# Generated by pormake.
# Topology lcy-a, (4)-cn, num edge types: 1
# Building blocks:
#     Node 0, Type 0, BuildingBlock: ICAMEG_clean_sbu_1, # of connection points: 4
#     Node 1, Type 0, BuildingBlock: ICAMEG_clean_sbu_1, # of connection points: 4
#     Node 2, Type 0, BuildingBlock: ICAMEG_clean_sbu_1, # of connection points: 4
#     Node 3, Type 0, BuildingBlock: ICAMEG_clean_sbu_1, # of connection points: 4
#     Node 4, Type 0, BuildingBlock: ICAMEG_clean_sbu_1, # of connection points: 4
#     Node 5, Type 0, BuildingBlock: ICAMEG_clean_sbu_1, # of connection points: 4
#     Node 6, Type 0, BuildingBlock: ICAMEG_clean_sbu_1, # of connection points: 4
#     Node 7, Type 0, BuildingBlock: ICAMEG_clean_sbu_1, # of connection points: 4
#     Node 8, Type 0, BuildingBlock: ICAMEG_clean_sbu_1, # of connection points: 4
#     Node 9, Type 0, BuildingBlock: ICAMEG_clean_sbu_1, # of connection points: 4
#     Node 10, Type 0, BuildingBlock: ICAMEG_clean_sbu_1, # of connection points: 4
#     Node 11, Type 0, BuildingBlock: ICAMEG_clean_sbu_1, # of connection points: 4
#     Node 12, Type 0, BuildingBlock: ICAMEG_clean_sbu_1, # of connection points: 4
#     Node 13, Type 0, BuildingBlock: ICAMEG_clean_sbu_1, # of connection points: 4
#     Node 14, Type 0, BuildingBlock: ICAMEG_clean_sbu_1, # of connection points: 4
#     Node 15, Type 0, BuildingBlock: ICAMEG_clean_sbu_1, # of connection points: 4
#     Node 16, Type 0, BuildingBlock: ICAMEG_clean_sbu_1, # of connection points: 4
#     Node 17, Type 0, BuildingBlock: ICAMEG_clean_sbu_1, # of connection points: 4
#     Node 18, Type 0, BuildingBlock: ICAMEG_clean_sbu_1, # of connection points: 4
#     Node 19, Type 0, BuildingBlock: ICAMEG_clean_sbu_1, # of connection points: 4
#     Node 20, Type 0, BuildingBlock: ICAMEG_clean_sbu_1, # of connection points: 4
#     Node 21, Type 0, BuildingBlock: ICAMEG_clean_sbu_1, # of connection points: 4
#     Node 22, Type 0, BuildingBlock: ICAMEG_clean_sbu_1, # of connection points: 4
#     Node 23, Type 0, BuildingBlock: ICAMEG_clean_sbu_1, # of connection points: 4
#     Edge 24, Type (0, 0), BuildingBlock: KIFKEQ_clean_linker_1, # of connection points: 2
#     Edge 25, Type (0, 0), BuildingBlock: KIFKEQ_clean_linker_1, # of connection points: 2
#     Edge 26, Type (0, 0), BuildingBlock: KIFKEQ_clean_linker_1, # of connection points: 2
#     Edge 27, Type (0, 0), BuildingBlock: KIFKEQ_clean_linker_1, # of connection points: 2
#     Edge 28, Type (0, 0), BuildingBlock: KIFKEQ_clean_linker_1, # of connection points: 2
#     Edge 29, Type (0, 0), BuildingBlock: KIFKEQ_clean_linker_1, # of connection points: 2
#     Edge 30, Type (0, 0), BuildingBlock: KIFKEQ_clean_linker_1, # of connection points: 2
#     Edge 31, Type (0, 0), BuildingBlock: KIFKEQ_clean_linker_1, # of connection points: 2
#     Edge 32, Type (0, 0), BuildingBlock: KIFKEQ_clean_linker_1, # of connection points: 2
#     Edge 33, Type (0, 0), BuildingBlock: KIFKEQ_clean_linker_1, # of connection points: 2
#     Edge 34, Type (0, 0), BuildingBlock: KIFKEQ_clean_linker_1, # of connection points: 2
#     Edge 35, Type (0, 0), BuildingBlock: KIFKEQ_clean_linker_1, # of connection points: 2
#     Edge 36, Type (0, 0), BuildingBlock: KIFKEQ_clean_linker_1, # of connection points: 2
#     Edge 37, Type (0, 0), BuildingBlock: KIFKEQ_clean_linker_1, # of connection points: 2
#     Edge 38, Type (0, 0), BuildingBlock: KIFKEQ_clean_linker_1, # of connection points: 2
#     Edge 39, Type (0, 0), BuildingBlock: KIFKEQ_clean_linker_1, # of connection points: 2
#     Edge 40, Type (0, 0), BuildingBlock: KIFKEQ_clean_linker_1, # of connection points: 2
#     Edge 41, Type (0, 0), BuildingBlock: KIFKEQ_clean_linker_1, # of connection points: 2
#     Edge 42, Type (0, 0), BuildingBlock: KIFKEQ_clean_linker_1, # of connection points: 2
#     Edge 43, Type (0, 0), BuildingBlock: KIFKEQ_clean_linker_1, # of connection points: 2
#     Edge 44, Type (0, 0), BuildingBlock: KIFKEQ_clean_linker_1, # of connection points: 2
#     Edge 45, Type (0, 0), BuildingBlock: KIFKEQ_clean_linker_1, # of connection points: 2
#     Edge 46, Type (0, 0), BuildingBlock: KIFKEQ_clean_linker_1, # of connection points: 2
#     Edge 47, Type (0, 0), BuildingBlock: KIFKEQ_clean_linker_1, # of connection points: 2
#     Edge 48, Type (0, 0), BuildingBlock: KIFKEQ_clean_linker_1, # of connection points: 2
#     Edge 49, Type (0, 0), BuildingBlock: KIFKEQ_clean_linker_1, # of connection points: 2
#     Edge 50, Type (0, 0), BuildingBlock: KIFKEQ_clean_linker_1, # of connection points: 2
#     Edge 51, Type (0, 0), BuildingBlock: KIFKEQ_clean_linker_1, # of connection points: 2
#     Edge 52, Type (0, 0), BuildingBlock: KIFKEQ_clean_linker_1, # of connection points: 2
#     Edge 53, Type (0, 0), BuildingBlock: KIFKEQ_clean_linker_1, # of connection points: 2
#     Edge 54, Type (0, 0), BuildingBlock: KIFKEQ_clean_linker_1, # of connection points: 2
#     Edge 55, Type (0, 0), BuildingBlock: KIFKEQ_clean_linker_1, # of connection points: 2
#     Edge 56, Type (0, 0), BuildingBlock: KIFKEQ_clean_linker_1, # of connection points: 2
#     Edge 57, Type (0, 0), BuildingBlock: KIFKEQ_clean_linker_1, # of connection points: 2
#     Edge 58, Type (0, 0), BuildingBlock: KIFKEQ_clean_linker_1, # of connection points: 2
#     Edge 59, Type (0, 0), BuildingBlock: KIFKEQ_clean_linker_1, # of connection points: 2
#     Edge 60, Type (0, 0), BuildingBlock: KIFKEQ_clean_linker_1, # of connection points: 2
#     Edge 61, Type (0, 0), BuildingBlock: KIFKEQ_clean_linker_1, # of connection points: 2
#     Edge 62, Type (0, 0), BuildingBlock: KIFKEQ_clean_linker_1, # of connection points: 2
#     Edge 63, Type (0, 0), BuildingBlock: KIFKEQ_clean_linker_1, # of connection points: 2
#     Edge 64, Type (0, 0), BuildingBlock: KIFKEQ_clean_linker_1, # of connection points: 2
#     Edge 65, Type (0, 0), BuildingBlock: KIFKEQ_clean_linker_1, # of connection points: 2
#     Edge 66, Type (0, 0), BuildingBlock: KIFKEQ_clean_linker_1, # of connection points: 2
#     Edge 67, Type (0, 0), BuildingBlock: KIFKEQ_clean_linker_1, # of connection points: 2
#     Edge 68, Type (0, 0), BuildingBlock: KIFKEQ_clean_linker_1, # of connection points: 2
#     Edge 69, Type (0, 0), BuildingBlock: KIFKEQ_clean_linker_1, # of connection points: 2
#     Edge 70, Type (0, 0), BuildingBlock: KIFKEQ_clean_linker_1, # of connection points: 2
#     Edge 71, Type (0, 0), BuildingBlock: KIFKEQ_clean_linker_1, # of connection points: 2
# Relax obj value: 0.380
# Max RMSD: 0.167
# Mean RMSD: 0.167
data_MOF--net-lcy-a--node1-ICAMEG_clean_sbu_1--edge1-KIFKEQ_clean_linker_1
_symmetry_space_group_name_H-M    P1
_symmetry_Int_Tables_number       1
_symmetry_cell_setting            triclinic
loop_
_symmetry_equiv_pos_as_xyz
'x, y, z'
_cell_length_a     61.084686
_cell_length_b     61.074429
_cell_length_c     61.085032
_cell_angle_alpha  89.990319
_cell_angle_beta   89.998357
_cell_angle_gamma 90.016078
loop_
_atom_site_label
_atom_site_type_symbol
_atom_site_fract_x
_atom_site_fract_y
_atom_site_fract_z
_atom_type_partial_charge
Co0 Co 0.22766 0.31396 0.38469 0.0
Co1 Co 0.17686 0.29298 0.37684 0.0
O2 O 0.19844 0.30697 0.39615 0.0
C3 C 0.21875 0.34751 0.42021 0.0
O4 O 0.19913 0.3397 0.42417 0.0
C5 C 0.17249 0.26735 0.41784 0.0
O6 O 0.19392 0.26621 0.41898 0.0
O7 O 0.19736 0.26794 0.37305 0.0
O8 O 0.22685 0.28798 0.36463 0.0
H9 H 0.1533 0.25204 0.30952 0.0
H10 H 0.21992 0.30541 0.43258 0.0
O11 O 0.23026 0.34007 0.40448 0.0
H12 H 0.28132 0.25753 0.41182 0.0
H13 H 0.30602 0.33965 0.38891 0.0
H14 H 0.24704 0.31423 0.34003 0.0
H15 H 0.26388 0.2813 0.38441 0.0
H16 H 0.26978 0.3301 0.40383 0.0
O17 O 0.16331 0.27785 0.4024 0.0
H18 H 0.17957 0.27077 0.33381 0.0
H19 H 0.12893 0.28372 0.37965 0.0
H20 H 0.28315 0.3234 0.32449 0.0
H21 H 0.23707 0.28219 0.46048 0.0
H22 H 0.31298 0.33609 0.34904 0.0
H23 H 0.26803 0.25792 0.45024 0.0
O24 O 0.21379 0.3324 0.36181 0.0
H25 H 0.13636 0.34885 0.42151 0.0
H26 H 0.15051 0.32143 0.34691 0.0
H27 H 0.12598 0.35306 0.35212 0.0
H28 H 0.11873 0.36695 0.38965 0.0
H29 H 0.16091 0.31733 0.41553 0.0
H30 H 0.10215 0.26495 0.35596 0.0
H31 H 0.11428 0.24903 0.32056 0.0
O32 O 0.1893 0.30785 0.35026 0.0
C33 C 0.21687 0.26971 0.36597 0.0
C34 C 0.1478 0.25896 0.32487 0.0
C35 C 0.1191 0.26618 0.35095 0.0
N36 N 0.15576 0.27847 0.35804 0.0
C37 C 0.16259 0.26963 0.33867 0.0
C38 C 0.13435 0.27675 0.36432 0.0
C39 C 0.12591 0.25727 0.33109 0.0
C40 C 0.23367 0.29545 0.42795 0.0
N41 N 0.24122 0.29541 0.40689 0.0
C42 C 0.24321 0.28207 0.44386 0.0
C43 C 0.26053 0.26842 0.4381 0.0
C44 C 0.26801 0.26822 0.41657 0.0
C45 C 0.25806 0.28181 0.40112 0.0
C46 C 0.29316 0.3341 0.37807 0.0
C47 C 0.25991 0.31974 0.35083 0.0
C48 C 0.27254 0.32877 0.3864 0.0
N49 N 0.25625 0.32151 0.37284 0.0
C50 C 0.28033 0.32494 0.34192 0.0
C51 C 0.29705 0.3321 0.35568 0.0
C52 C 0.20086 0.32499 0.34721 0.0
C53 C 0.13939 0.34295 0.40508 0.0
C54 C 0.14757 0.32747 0.36329 0.0
C55 C 0.13359 0.34534 0.36614 0.0
C56 C 0.12952 0.35311 0.3872 0.0
N57 N 0.1572 0.3176 0.38092 0.0
C58 C 0.15326 0.32511 0.4016 0.0
Co59 Co 0.9393 0.97697 0.63701 0.0
Co60 Co 0.96105 0.9268 0.62745 0.0
O61 O 0.94709 0.94763 0.64761 0.0
C62 C 0.90658 0.96643 0.67288 0.0
O63 O 0.91535 0.94721 0.6768 0.0
C64 C 0.98694 0.9216 0.66821 0.0
O65 O 0.98771 0.943 0.67007 0.0
O66 O 0.98569 0.94783 0.62381 0.0
O67 O 0.965 0.97721 0.61657 0.0
H68 H 0.00117 0.90566 0.55885 0.0
H69 H 0.94902 0.96828 0.68457 0.0
O70 O 0.91345 0.97843 0.65725 0.0
H71 H 0.99489 0.0314 0.66435 0.0
H72 H 0.91141 0.05446 0.64328 0.0
H73 H 0.93797 0.99733 0.59284 0.0
H74 H 0.97101 0.014 0.63701 0.0
H75 H 0.92237 0.01825 0.65732 0.0
O76 O 0.97671 0.91276 0.65241 0.0
H77 H 0.98253 0.931 0.58416 0.0
H78 H 0.97103 0.87895 0.62883 0.0
H79 H 0.92737 0.03339 0.57816 0.0
H80 H 0.97237 0.98535 0.7124 0.0
H81 H 0.91403 0.06228 0.60346 0.0
H82 H 0.99563 0.01718 0.70244 0.0
O83 O 0.92075 0.96326 0.61412 0.0
H84 H 0.90634 0.88441 0.67186 0.0
H85 H 0.93254 0.90078 0.59727 0.0
H86 H 0.90131 0.87571 0.6023 0.0
H87 H 0.88803 0.86734 0.63982 0.0
H88 H 0.93746 0.90951 0.66607 0.0
H89 H 0.98973 0.85309 0.6041 0.0
H90 H 0.00486 0.86639 0.56877 0.0
O91 O 0.94561 0.93971 0.60145 0.0
C92 C 0.98344 0.9675 0.61728 0.0
C93 C 0.99458 0.89965 0.57416 0.0
C94 C 0.98819 0.87015 0.59957 0.0
N95 N 0.97555 0.90644 0.60786 0.0
C96 C 0.98397 0.91391 0.58854 0.0
C97 C 0.97767 0.88489 0.61353 0.0
C98 C 0.99667 0.87763 0.57975 0.0
C99 C 0.95851 0.9824 0.68007 0.0
N100 N 0.95791 0.99045 0.65921 0.0
C101 C 0.97198 0.99189 0.69593 0.0
C102 C 0.98506 0.00971 0.69033 0.0
C103 C 0.98463 0.01771 0.66899 0.0
C104 C 0.97098 0.00778 0.65358 0.0
C105 C 0.91722 0.042 0.63209 0.0
C106 C 0.93224 0.0098 0.60399 0.0
C107 C 0.92336 0.02141 0.63994 0.0
N108 N 0.9309 0.00564 0.62594 0.0
C109 C 0.92622 0.0302 0.59556 0.0
C110 C 0.9187 0.04639 0.60975 0.0
C111 C 0.92816 0.95093 0.59902 0.0
C112 C 0.91197 0.88793 0.65543 0.0
C113 C 0.92678 0.89735 0.61365 0.0
C114 C 0.90913 0.88307 0.61639 0.0
C115 C 0.9017 0.87837 0.63745 0.0
N116 N 0.93677 0.90667 0.63138 0.0
C117 C 0.92959 0.90211 0.65206 0.0
Co118 Co 0.27415 0.69062 0.88597 0.0
Co119 Co 0.32499 0.7117 0.87868 0.0
O120 O 0.30329 0.69741 0.89763 0.0
C121 C 0.28296 0.65638 0.92092 0.0
O122 O 0.30235 0.66437 0.92558 0.0
C123 C 0.32869 0.73621 0.92034 0.0
O124 O 0.30725 0.73741 0.92093 0.0
O125 O 0.30451 0.7368 0.87504 0.0
O126 O 0.27501 0.71689 0.86635 0.0
H127 H 0.34926 0.75348 0.81212 0.0
H128 H 0.28159 0.69833 0.93407 0.0
O129 O 0.27158 0.66418 0.90527 0.0
H130 H 0.22024 0.74646 0.91377 0.0
H131 H 0.19573 0.6651 0.88966 0.0
H132 H 0.2549 0.69103 0.84124 0.0
H133 H 0.23791 0.72323 0.88606 0.0
H134 H 0.23203 0.67411 0.90474 0.0
O135 O 0.33823 0.72634 0.90469 0.0
H136 H 0.32273 0.73444 0.83589 0.0
H137 H 0.37283 0.72106 0.88221 0.0
H138 H 0.21871 0.68241 0.82554 0.0
H139 H 0.26423 0.72102 0.96226 0.0
H140 H 0.18877 0.66956 0.8499 0.0
H141 H 0.23329 0.74542 0.95226 0.0
O142 O 0.28814 0.67257 0.86288 0.0
H143 H 0.36506 0.65506 0.92282 0.0
H144 H 0.35162 0.68375 0.84856 0.0
H145 H 0.37609 0.65203 0.85348 0.0
H146 H 0.38298 0.6375 0.89083 0.0
H147 H 0.34058 0.68668 0.91714 0.0
H148 H 0.39986 0.74014 0.85905 0.0
H149 H 0.38814 0.75642 0.82367 0.0
O150 O 0.31277 0.69721 0.85175 0.0
C151 C 0.28505 0.73511 0.86781 0.0
C152 C 0.35458 0.74639 0.82747 0.0
C153 C 0.38298 0.73893 0.85382 0.0
N154 N 0.34626 0.72649 0.86032 0.0
C155 C 0.33965 0.73554 0.84096 0.0
C156 C 0.36759 0.72819 0.86689 0.0
C157 C 0.37639 0.74806 0.83397 0.0
C158 C 0.26786 0.70835 0.92953 0.0
N159 N 0.26046 0.70877 0.90842 0.0
C160 C 0.2582 0.72143 0.94561 0.0
C161 C 0.24089 0.73515 0.93998 0.0
C162 C 0.23354 0.73573 0.91841 0.0
C163 C 0.24363 0.72244 0.90278 0.0
C164 C 0.20864 0.67076 0.87891 0.0
C165 C 0.24198 0.6854 0.85194 0.0
C166 C 0.22929 0.67578 0.88734 0.0
N167 N 0.24561 0.68322 0.87392 0.0
C168 C 0.22153 0.68052 0.84294 0.0
C169 C 0.20475 0.67324 0.85658 0.0
C170 C 0.30119 0.68011 0.84845 0.0
C171 C 0.36218 0.66124 0.90647 0.0
C172 C 0.35441 0.67744 0.86486 0.0
C173 C 0.36835 0.65952 0.86755 0.0
C174 C 0.37222 0.65139 0.88851 0.0
N175 N 0.34461 0.68701 0.88256 0.0
C176 C 0.34835 0.67914 0.90316 0.0
Co177 Co 0.55151 0.01701 0.14159 0.0
Co178 Co 0.5451 0.07131 0.13186 0.0
O179 O 0.54889 0.04701 0.15239 0.0
C180 C 0.58609 0.01876 0.17661 0.0
O181 O 0.59485 0.03655 0.16828 0.0
C182 C 0.51067 0.07902 0.16463 0.0
O183 O 0.50479 0.05855 0.16174 0.0
O184 O 0.51831 0.05688 0.11992 0.0
O185 O 0.53235 0.0233 0.11583 0.0
H186 H 0.53004 0.10489 0.0583 0.0
H187 H 0.53648 0.02561 0.18693 0.0
O188 O 0.56997 0.00946 0.16734 0.0
H189 H 0.4787 0.98011 0.15362 0.0
H190 H 0.55712 0.93505 0.1496 0.0
H191 H 0.5574 0.99681 0.09764 0.0
H192 H 0.51144 0.99047 0.1324 0.0
H193 H 0.5527 0.9729 0.1628 0.0
O194 O 0.52675 0.08689 0.15399 0.0
H195 H 0.53581 0.07456 0.08434 0.0
H196 H 0.5446 0.11995 0.13628 0.0
H197 H 0.56167 0.95919 0.08376 0.0
H198 H 0.50404 0.01554 0.20877 0.0
H199 H 0.56157 0.92798 0.10985 0.0
H200 H 0.47483 0.99268 0.19209 0.0
O201 O 0.57748 0.02584 0.12413 0.0
H202 H 0.5944 0.09716 0.19237 0.0
H203 H 0.58505 0.09169 0.11236 0.0
H204 H 0.61849 0.10866 0.12734 0.0
H205 H 0.6233 0.11153 0.16762 0.0
H206 H 0.56128 0.08016 0.17668 0.0
H207 H 0.53873 0.15077 0.11084 0.0
H208 H 0.53148 0.14333 0.07153 0.0
O209 O 0.56362 0.05631 0.10917 0.0
C210 C 0.51754 0.03751 0.11229 0.0
C211 C 0.53325 0.10835 0.07538 0.0
C212 C 0.5381 0.1341 0.10487 0.0
N213 N 0.54072 0.09549 0.11175 0.0
C214 C 0.53659 0.09124 0.09019 0.0
C215 C 0.54137 0.11658 0.11921 0.0
C216 C 0.53404 0.12991 0.08282 0.0
C217 C 0.52389 0.01557 0.17959 0.0
N218 N 0.52584 0.00869 0.1584 0.0
C219 C 0.50554 0.00995 0.19202 0.0
C220 C 0.48915 0.99714 0.18265 0.0
C221 C 0.49131 0.99008 0.16107 0.0
C222 C 0.50987 0.99605 0.14912 0.0
C223 C 0.55724 0.94852 0.13809 0.0
C224 C 0.55732 0.98336 0.10912 0.0
C225 C 0.55486 0.97003 0.14548 0.0
N226 N 0.55487 0.98715 0.13104 0.0
C227 C 0.55975 0.96207 0.10114 0.0
C228 C 0.5597 0.94456 0.11577 0.0
C229 C 0.57717 0.04036 0.10908 0.0
C230 C 0.59247 0.09606 0.17479 0.0
C231 C 0.58706 0.0928 0.12991 0.0
C232 C 0.60601 0.10247 0.13829 0.0
C233 C 0.60869 0.10409 0.16089 0.0
N234 N 0.57119 0.08504 0.14365 0.0
C235 C 0.57372 0.08651 0.16582 0.0
Co236 Co 0.72837 0.18997 0.61688 0.0
Co237 Co 0.67644 0.20881 0.62283 0.0
O238 O 0.69916 0.19526 0.60456 0.0
C239 C 0.72172 0.15506 0.58218 0.0
O240 O 0.70167 0.16161 0.57809 0.0
C241 C 0.6725 0.23319 0.58113 0.0
O242 O 0.69388 0.23523 0.58094 0.0
O243 O 0.69568 0.23483 0.62658 0.0
O244 O 0.7259 0.21646 0.63611 0.0
H245 H 0.64897 0.25046 0.6882 0.0
H246 H 0.72151 0.19654 0.56856 0.0
O247 O 0.73269 0.16343 0.59785 0.0
H248 H 0.77967 0.24836 0.58928 0.0
H249 H 0.808 0.16826 0.61509 0.0
H250 H 0.74665 0.1918 0.66195 0.0
H251 H 0.76284 0.22449 0.61699 0.0
H252 H 0.77167 0.17548 0.59912 0.0
O253 O 0.66309 0.22264 0.59641 0.0
H254 H 0.67681 0.23232 0.66526 0.0
H255 H 0.62828 0.2158 0.61829 0.0
H256 H 0.78278 0.18488 0.67853 0.0
H257 H 0.73814 0.2198 0.54035 0.0
H258 H 0.81379 0.17321 0.655 0.0
H259 H 0.76746 0.24605 0.55057 0.0
O260 O 0.7148 0.17164 0.64011 0.0
H261 H 0.63957 0.15012 0.57858 0.0
H262 H 0.65065 0.1799 0.65279 0.0
H263 H 0.62767 0.14708 0.64779 0.0
H264 H 0.62197 0.132 0.61046 0.0
H265 H 0.66256 0.18284 0.58436 0.0
H266 H 0.59995 0.23394 0.64062 0.0
H267 H 0.61022 0.25135 0.6759 0.0
O268 O 0.68877 0.19528 0.65018 0.0
C269 C 0.71503 0.23415 0.63425 0.0
C270 C 0.64428 0.24287 0.6729 0.0
C271 C 0.61677 0.23362 0.64618 0.0
N272 N 0.65415 0.22284 0.64056 0.0
C273 C 0.65996 0.23252 0.65987 0.0
C274 C 0.63289 0.22341 0.63358 0.0
C275 C 0.62254 0.24338 0.66598 0.0
C276 C 0.73459 0.20737 0.5732 0.0
N277 N 0.74156 0.20848 0.59443 0.0
C278 C 0.74382 0.22076 0.55711 0.0
C279 C 0.76021 0.23553 0.56286 0.0
C280 C 0.76709 0.23681 0.58455 0.0
C281 C 0.75749 0.22317 0.60018 0.0
C282 C 0.79461 0.1734 0.62549 0.0
C283 C 0.76003 0.18668 0.65159 0.0
C284 C 0.77395 0.1774 0.61657 0.0
N285 N 0.757 0.18414 0.62956 0.0
C286 C 0.78046 0.18277 0.66109 0.0
C287 C 0.79785 0.17617 0.6479 0.0
C288 C 0.70125 0.179 0.65419 0.0
C289 C 0.64194 0.15653 0.59493 0.0
C290 C 0.64839 0.17335 0.63651 0.0
C291 C 0.63529 0.1548 0.63377 0.0
C292 C 0.63208 0.14636 0.61282 0.0
N293 N 0.65801 0.18322 0.61887 0.0
C294 C 0.65492 0.17505 0.59829 0.0
Co295 Co 0.05305 0.48056 0.86681 0.0
Co296 Co 0.0419 0.42644 0.87224 0.0
O297 O 0.05015 0.45136 0.85364 0.0
C298 C 0.08876 0.47896 0.83228 0.0
O299 O 0.09272 0.45805 0.8353 0.0
C300 C 0.01285 0.42138 0.83388 0.0
O301 O 0.00869 0.44242 0.83507 0.0
O302 O 0.01445 0.44212 0.88056 0.0
O303 O 0.03035 0.47384 0.88942 0.0
H304 H 0.01366 0.39154 0.94116 0.0
H305 H 0.04335 0.47564 0.81948 0.0
O306 O 0.07514 0.48912 0.8443 0.0
H307 H 0.98496 0.52335 0.84821 0.0
H308 H 0.06336 0.56247 0.86601 0.0
H309 H 0.0551 0.49706 0.91258 0.0
H310 H 0.0138 0.50926 0.87267 0.0
H311 H 0.05851 0.52605 0.84944 0.0
O312 O 0.02614 0.41254 0.84723 0.0
H313 H 0.02508 0.42225 0.91755 0.0
H314 H 0.03967 0.378 0.86594 0.0
H315 H 0.05982 0.53324 0.92981 0.0
H316 H 0.0149 0.48945 0.79444 0.0
H317 H 0.06395 0.56622 0.90639 0.0
H318 H 0.98538 0.51346 0.80879 0.0
O319 O 0.07603 0.46891 0.88669 0.0
H320 H 0.09777 0.39908 0.81851 0.0
H321 H 0.07737 0.40303 0.89652 0.0
H322 H 0.11153 0.38437 0.88585 0.0
H323 H 0.12189 0.38224 0.84658 0.0
H324 H 0.06384 0.41779 0.82994 0.0
H325 H 0.02821 0.34683 0.88892 0.0
H326 H 0.01518 0.3535 0.92686 0.0
O327 O 0.05769 0.43931 0.89807 0.0
C328 C 0.01398 0.46097 0.88942 0.0
C329 C 0.01937 0.38842 0.92468 0.0
C330 C 0.02751 0.36333 0.89535 0.0
N331 N 0.03318 0.40192 0.89045 0.0
C332 C 0.0259 0.40574 0.91125 0.0
C333 C 0.03392 0.38105 0.8824 0.0
C334 C 0.02021 0.36708 0.91664 0.0
C335 C 0.03065 0.48616 0.82585 0.0
N336 N 0.03027 0.49159 0.84754 0.0
C337 C 0.01454 0.4939 0.81158 0.0
C338 C 0.99798 0.50735 0.81965 0.0
C339 C 0.99773 0.5129 0.84176 0.0
C340 C 0.01408 0.50482 0.85555 0.0
C341 C 0.06162 0.54817 0.87634 0.0
C342 C 0.05692 0.51131 0.90228 0.0
C343 C 0.05899 0.52746 0.86705 0.0
N344 N 0.05661 0.50933 0.87999 0.0
C345 C 0.05958 0.53177 0.91215 0.0
C346 C 0.06192 0.55028 0.89903 0.0
C347 C 0.07248 0.45387 0.90079 0.0
C348 C 0.09341 0.39986 0.83566 0.0
C349 C 0.08183 0.4023 0.87941 0.0
C350 C 0.10116 0.39164 0.87346 0.0
C351 C 0.10695 0.39044 0.85143 0.0
N352 N 0.06862 0.41147 0.86384 0.0
C353 C 0.07419 0.41037 0.84222 0.0
Co354 Co 0.77215 0.81324 0.1114 0.0
Co355 Co 0.8237 0.794 0.11888 0.0
O356 O 0.80133 0.80671 0.09962 0.0
C357 C 0.77997 0.84615 0.075 0.0
O358 O 0.80016 0.83948 0.07201 0.0
C359 C 0.82747 0.76735 0.0786 0.0
O360 O 0.80606 0.76563 0.07836 0.0
O361 O 0.80399 0.76857 0.1241 0.0
O362 O 0.77408 0.78803 0.13236 0.0
H363 H 0.84999 0.75619 0.18703 0.0
H364 H 0.77891 0.80398 0.06362 0.0
O365 O 0.76841 0.8385 0.09063 0.0
H366 H 0.72039 0.75376 0.08721 0.0
H367 H 0.69295 0.8364 0.10794 0.0
H368 H 0.75369 0.81458 0.15639 0.0
H369 H 0.73732 0.77914 0.11351 0.0
H370 H 0.7291 0.8272 0.09255 0.0
O371 O 0.83697 0.77837 0.09348 0.0
H372 H 0.82264 0.77331 0.16276 0.0
H373 H 0.87175 0.78584 0.11515 0.0
H374 H 0.71774 0.82344 0.1724 0.0
H375 H 0.76219 0.77918 0.03677 0.0
H376 H 0.68704 0.83441 0.14813 0.0
H377 H 0.73272 0.75373 0.04846 0.0
O378 O 0.7859 0.83284 0.13338 0.0
H379 H 0.86202 0.84911 0.07135 0.0
H380 H 0.84976 0.82428 0.14719 0.0
H381 H 0.87338 0.85629 0.14034 0.0
H382 H 0.87968 0.86888 0.10219 0.0
H383 H 0.83838 0.81724 0.07897 0.0
H384 H 0.89959 0.76866 0.13881 0.0
H385 H 0.88879 0.75379 0.17509 0.0
O386 O 0.81141 0.80945 0.1452 0.0
C387 C 0.78463 0.77006 0.13166 0.0
C388 C 0.85492 0.76268 0.17129 0.0
C389 C 0.88275 0.76966 0.14422 0.0
N390 N 0.84562 0.78074 0.13765 0.0
C391 C 0.83951 0.77245 0.1575 0.0
C392 C 0.8669 0.77932 0.13087 0.0
C393 C 0.87668 0.76132 0.16457 0.0
C394 C 0.76579 0.79345 0.06885 0.0
N395 N 0.7588 0.79357 0.0901 0.0
C396 C 0.7565 0.77921 0.05355 0.0
C397 C 0.74001 0.76489 0.06012 0.0
C398 C 0.73307 0.76492 0.08184 0.0
C399 C 0.74273 0.77939 0.09667 0.0
C400 C 0.70621 0.83164 0.11869 0.0
C401 C 0.74044 0.81931 0.14567 0.0
C402 C 0.72677 0.82652 0.11008 0.0
N403 N 0.74356 0.82032 0.12353 0.0
C404 C 0.72011 0.82433 0.15486 0.0
C405 C 0.70289 0.83051 0.14123 0.0
C406 C 0.79924 0.82621 0.14801 0.0
C407 C 0.85939 0.84379 0.08805 0.0
C408 C 0.85226 0.82975 0.13055 0.0
C409 C 0.86574 0.84784 0.12677 0.0
C410 C 0.86928 0.85489 0.10536 0.0
N411 N 0.8426 0.81897 0.11348 0.0
C412 C 0.84603 0.82575 0.09246 0.0
Co413 Co 0.44062 0.52144 0.36301 0.0
Co414 Co 0.45883 0.57347 0.37002 0.0
O415 O 0.44657 0.55064 0.35093 0.0
C416 C 0.40744 0.528 0.32658 0.0
O417 O 0.41437 0.54793 0.32249 0.0
C418 C 0.48538 0.57778 0.3296 0.0
O419 O 0.48744 0.55639 0.32923 0.0
O420 O 0.48469 0.55437 0.37536 0.0
O421 O 0.46589 0.52406 0.38382 0.0
H422 H 0.49624 0.6011 0.43786 0.0
H423 H 0.44979 0.52791 0.31511 0.0
O424 O 0.41527 0.517 0.3425 0.0
H425 H 0.50097 0.47054 0.3393 0.0
H426 H 0.41859 0.44186 0.36042 0.0
H427 H 0.43985 0.50335 0.40819 0.0
H428 H 0.4753 0.48726 0.36542 0.0
H429 H 0.42724 0.47799 0.34465 0.0
O430 O 0.47415 0.58699 0.34451 0.0
H431 H 0.47968 0.57319 0.41383 0.0
H432 H 0.46583 0.62169 0.36596 0.0
H433 H 0.43152 0.46743 0.42459 0.0
H434 H 0.47487 0.51138 0.28844 0.0
H435 H 0.42082 0.43637 0.40065 0.0
H436 H 0.50081 0.48247 0.30042 0.0
O437 O 0.42083 0.535 0.38491 0.0
H438 H 0.4027 0.60995 0.3223 0.0
H439 H 0.42806 0.59911 0.39817 0.0
H440 H 0.39549 0.6219 0.39119 0.0
H441 H 0.38263 0.62749 0.35302 0.0
H442 H 0.43512 0.58715 0.33006 0.0
H443 H 0.48243 0.65009 0.38937 0.0
H444 H 0.49769 0.63987 0.42566 0.0
O445 O 0.44373 0.56103 0.3965 0.0
C446 C 0.4836 0.53505 0.38309 0.0
C447 C 0.48958 0.60577 0.42212 0.0
C448 C 0.48185 0.63326 0.39489 0.0
N449 N 0.47162 0.59583 0.38861 0.0
C450 C 0.48013 0.59005 0.40847 0.0
C451 C 0.47252 0.6171 0.38169 0.0
C452 C 0.49041 0.62752 0.41525 0.0
C453 C 0.46051 0.51502 0.32048 0.0
N454 N 0.46048 0.50823 0.34179 0.0
C455 C 0.47492 0.50584 0.30528 0.0
C456 C 0.48951 0.48967 0.31201 0.0
C457 C 0.48959 0.48295 0.3338 0.0
C458 C 0.47494 0.49249 0.34852 0.0
C459 C 0.42324 0.45528 0.37102 0.0
C460 C 0.43526 0.48994 0.39762 0.0
C461 C 0.42806 0.47583 0.36219 0.0
N462 N 0.4341 0.49283 0.37546 0.0
C463 C 0.43053 0.46962 0.40703 0.0
C464 C 0.42451 0.4522 0.39359 0.0
C465 C 0.42723 0.54853 0.39945 0.0
C466 C 0.40813 0.60764 0.33901 0.0
C467 C 0.42248 0.60132 0.38153 0.0
C468 C 0.40407 0.61432 0.37767 0.0
C469 C 0.39687 0.61746 0.35625 0.0
N470 N 0.43343 0.59173 0.36452 0.0
C471 C 0.42649 0.59476 0.34349 0.0
Co472 Co 0.38586 0.23315 0.30378 0.0
Co473 Co 0.38106 0.17945 0.29129 0.0
O474 O 0.39943 0.20445 0.29924 0.0
C475 C 0.42115 0.23068 0.33829 0.0
O476 O 0.4165 0.21031 0.34333 0.0
C477 C 0.41718 0.17618 0.25925 0.0
O478 O 0.41379 0.19681 0.25426 0.0
O479 O 0.37091 0.19579 0.26488 0.0
O480 O 0.36197 0.22665 0.28229 0.0
H481 H 0.31173 0.14347 0.26555 0.0
H482 H 0.43242 0.22901 0.29097 0.0
O483 O 0.40962 0.24122 0.32457 0.0
H484 H 0.39988 0.27822 0.23595 0.0
H485 H 0.38581 0.3145 0.31787 0.0
H486 H 0.34004 0.24857 0.30929 0.0
H487 H 0.37729 0.26318 0.26591 0.0
H488 H 0.40273 0.27875 0.30993 0.0
O489 O 0.40572 0.16689 0.27395 0.0
H490 H 0.33509 0.1745 0.27665 0.0
H491 H 0.38859 0.13135 0.28704 0.0
H492 H 0.32249 0.28403 0.3171 0.0
H493 H 0.4555 0.24372 0.26135 0.0
H494 H 0.34545 0.31726 0.32165 0.0
H495 H 0.43921 0.2685 0.23354 0.0
O496 O 0.3677 0.22033 0.32754 0.0
H497 H 0.43829 0.15197 0.34353 0.0
H498 H 0.35927 0.15425 0.32714 0.0
H499 H 0.37217 0.13486 0.36013 0.0
H500 H 0.41195 0.13358 0.36846 0.0
H501 H 0.42466 0.17138 0.31082 0.0
H502 H 0.36588 0.09988 0.27586 0.0
H503 H 0.32712 0.10583 0.26512 0.0
O504 O 0.35579 0.19118 0.30881 0.0
C505 C 0.36164 0.21444 0.26542 0.0
C506 C 0.32857 0.14066 0.27028 0.0
C507 C 0.35897 0.11619 0.27604 0.0
N508 N 0.36309 0.15471 0.28271 0.0
C509 C 0.34185 0.15815 0.27665 0.0
C510 C 0.37176 0.13408 0.28232 0.0
C511 C 0.33722 0.11954 0.27002 0.0
C512 C 0.4252 0.23985 0.27901 0.0
N513 N 0.40351 0.24522 0.28022 0.0
C514 C 0.43836 0.24811 0.26224 0.0
C515 C 0.42921 0.26199 0.24664 0.0
C516 C 0.40712 0.26746 0.248 0.0
C517 C 0.39443 0.25887 0.26499 0.0
C518 C 0.37565 0.3001 0.31599 0.0
C519 C 0.35016 0.26296 0.31107 0.0
C520 C 0.38514 0.27977 0.31157 0.0
N521 N 0.37242 0.2615 0.30915 0.0
C522 C 0.34011 0.28301 0.31552 0.0
C523 C 0.35299 0.30166 0.31804 0.0
C524 C 0.35367 0.20518 0.32424 0.0
C525 C 0.42093 0.15237 0.34004 0.0
C526 C 0.3766 0.15388 0.33072 0.0
C527 C 0.38381 0.14281 0.34939 0.0
C528 C 0.40613 0.14208 0.35404 0.0
N529 N 0.39122 0.16389 0.31705 0.0
C530 C 0.41312 0.16327 0.32152 0.0
Co531 Co 0.0198 0.13867 0.55448 0.0
Co532 Co 0.0732 0.13241 0.54127 0.0
O533 O 0.0489 0.15153 0.54992 0.0
C534 C 0.0233 0.17346 0.58959 0.0
O535 O 0.04354 0.16831 0.59464 0.0
C536 C 0.07771 0.17025 0.51138 0.0
O537 O 0.05654 0.16924 0.50786 0.0
O538 O 0.05624 0.12374 0.51471 0.0
O539 O 0.02547 0.11506 0.53245 0.0
H540 H 0.10594 0.06238 0.51326 0.0
H541 H 0.02502 0.18535 0.54225 0.0
O542 O 0.01252 0.16231 0.57573 0.0
H543 H 0.97379 0.15489 0.48785 0.0
H544 H 0.93857 0.14044 0.56921 0.0
H545 H 0.00316 0.09315 0.55909 0.0
H546 H 0.98901 0.13147 0.51701 0.0
H547 H 0.97474 0.15661 0.56162 0.0
O548 O 0.08683 0.15688 0.52445 0.0
H549 H 0.07605 0.08672 0.52525 0.0
H550 H 0.1216 0.13792 0.53707 0.0
H551 H 0.96725 0.07635 0.56649 0.0
H552 H 0.01018 0.2093 0.51337 0.0
H553 H 0.93467 0.10007 0.57173 0.0
H554 H 0.98438 0.19407 0.48588 0.0
O555 O 0.03232 0.11973 0.57779 0.0
H556 H 0.10297 0.18704 0.595 0.0
H557 H 0.09785 0.10866 0.57627 0.0
H558 H 0.11785 0.11988 0.6095 0.0
H559 H 0.12056 0.15933 0.61901 0.0
H560 H 0.08294 0.17507 0.56202 0.0
H561 H 0.15196 0.11421 0.525 0.0
H562 H 0.14423 0.0761 0.51308 0.0
O563 O 0.06061 0.10717 0.55824 0.0
C564 C 0.03736 0.11493 0.51533 0.0
C565 C 0.10953 0.07892 0.51848 0.0
C566 C 0.13535 0.10802 0.52505 0.0
N567 N 0.09709 0.11364 0.53204 0.0
C568 C 0.09268 0.09276 0.52535 0.0
C569 C 0.11809 0.12139 0.53182 0.0
C570 C 0.131 0.08664 0.51837 0.0
C571 C 0.01375 0.1786 0.53041 0.0
N572 N 0.00791 0.15702 0.53136 0.0
C573 C 0.00542 0.19224 0.51406 0.0
C574 C 0.99096 0.18369 0.49864 0.0
C575 C 0.98501 0.1617 0.49974 0.0
C576 C 0.99371 0.14852 0.51629 0.0
C577 C 0.95268 0.12995 0.567 0.0
C578 C 0.98908 0.10362 0.56123 0.0
C579 C 0.97325 0.13902 0.5628 0.0
N580 N 0.99114 0.12587 0.5599 0.0
C581 C 0.96877 0.09399 0.56544 0.0
C582 C 0.95048 0.10729 0.56836 0.0
C583 C 0.0469 0.10525 0.57394 0.0
C584 C 0.10195 0.1698 0.591 0.0
C585 C 0.09886 0.12586 0.58036 0.0
C586 C 0.11027 0.13211 0.59916 0.0
C587 C 0.11179 0.15425 0.60448 0.0
N588 N 0.0893 0.14122 0.56719 0.0
C589 C 0.0907 0.16294 0.57232 0.0
Co590 Co 0.11405 0.76676 0.8058 0.0
Co591 Co 0.1186 0.82044 0.79284 0.0
O592 O 0.10021 0.79551 0.80148 0.0
C593 C 0.07738 0.76865 0.83919 0.0
O594 O 0.07897 0.78991 0.84185 0.0
C595 C 0.08053 0.82457 0.76303 0.0
O596 O 0.08171 0.80346 0.75921 0.0
O597 O 0.12746 0.80393 0.76607 0.0
O598 O 0.13725 0.77339 0.78358 0.0
H599 H 0.18749 0.8552 0.76436 0.0
H600 H 0.06716 0.77065 0.79383 0.0
O601 O 0.09099 0.75827 0.82736 0.0
H602 H 0.09878 0.72061 0.73903 0.0
H603 H 0.11547 0.68536 0.81985 0.0
H604 H 0.16018 0.75185 0.81009 0.0
H605 H 0.12192 0.7364 0.7681 0.0
H606 H 0.09792 0.72089 0.81245 0.0
O607 O 0.09372 0.83361 0.77632 0.0
H608 H 0.16402 0.82459 0.77637 0.0
H609 H 0.11189 0.86876 0.78921 0.0
H610 H 0.17837 0.71659 0.81731 0.0
H611 H 0.04349 0.75522 0.76506 0.0
H612 H 0.15595 0.68307 0.8224 0.0
H613 H 0.0593 0.73001 0.73736 0.0
O614 O 0.13274 0.77977 0.82906 0.0
H615 H 0.06363 0.84891 0.84692 0.0
H616 H 0.14201 0.84531 0.82795 0.0
H617 H 0.13054 0.86492 0.86131 0.0
H618 H 0.09109 0.86687 0.87095 0.0
H619 H 0.07585 0.82927 0.81381 0.0
H620 H 0.13471 0.89981 0.77714 0.0
H621 H 0.17284 0.89313 0.7647 0.0
O622 O 0.14431 0.80846 0.8095 0.0
C623 C 0.1368 0.78532 0.7665 0.0
C624 C 0.17092 0.85833 0.76981 0.0
C625 C 0.14129 0.88336 0.77696 0.0
N626 N 0.13667 0.84489 0.78364 0.0
C627 C 0.15758 0.84107 0.77668 0.0
C628 C 0.12843 0.8657 0.78372 0.0
C629 C 0.16269 0.8796 0.76999 0.0
C630 C 0.07417 0.75962 0.78192 0.0
N631 N 0.09591 0.75441 0.78275 0.0
C632 C 0.06068 0.75096 0.76563 0.0
C633 C 0.06956 0.73683 0.75009 0.0
C634 C 0.09172 0.73155 0.75103 0.0
C635 C 0.10473 0.74056 0.76753 0.0
C636 C 0.1254 0.69989 0.81773 0.0
C637 C 0.15028 0.73735 0.81215 0.0
C638 C 0.11554 0.72011 0.81364 0.0
N639 N 0.12796 0.73854 0.81087 0.0
C640 C 0.1607 0.71741 0.81626 0.0
C641 C 0.14812 0.69859 0.8191 0.0
C642 C 0.1467 0.79485 0.8252 0.0
C643 C 0.08087 0.84821 0.84288 0.0
C644 C 0.12482 0.84595 0.8321 0.0
C645 C 0.11842 0.85715 0.85098 0.0
C646 C 0.09628 0.85825 0.85637 0.0
N647 N 0.10959 0.83615 0.81894 0.0
C648 C 0.08787 0.83716 0.82412 0.0
Co649 Co 0.47781 0.86712 0.05933 0.0
Co650 Co 0.42589 0.87282 0.04048 0.0
O651 O 0.44849 0.85484 0.0546 0.0
C652 C 0.47078 0.83395 0.09557 0.0
O653 O 0.45057 0.83014 0.08935 0.0
C654 C 0.42145 0.83022 0.01788 0.0
O655 O 0.44284 0.82977 0.01584 0.0
O656 O 0.44505 0.87526 0.01426 0.0
O657 O 0.47535 0.88543 0.03216 0.0
H658 H 0.39895 0.93682 0.99641 0.0
H659 H 0.47067 0.81866 0.05469 0.0
O660 O 0.48209 0.84898 0.08649 0.0
H661 H 0.5287 0.83705 0.00184 0.0
H662 H 0.55757 0.86576 0.0808 0.0
H663 H 0.49631 0.912 0.05584 0.0
H664 H 0.51214 0.86576 0.0247 0.0
H665 H 0.52112 0.84968 0.0743 0.0
O666 O 0.4122 0.84601 0.02778 0.0
H667 H 0.42662 0.91428 0.0153 0.0
H668 H 0.37765 0.86853 0.03387 0.0
H669 H 0.53251 0.92868 0.06206 0.0
H670 H 0.48701 0.78948 0.03245 0.0
H671 H 0.56349 0.90549 0.07444 0.0
H672 H 0.51625 0.79852 0.00568 0.0
O673 O 0.46445 0.89101 0.07689 0.0
H674 H 0.38876 0.83133 0.101 0.0
H675 H 0.4006 0.9042 0.06829 0.0
H676 H 0.37775 0.90076 0.10138 0.0
H677 H 0.37166 0.86411 0.11794 0.0
H678 H 0.41164 0.83555 0.06798 0.0
H679 H 0.34948 0.89045 0.015 0.0
H680 H 0.36006 0.92493 0.99618 0.0
O681 O 0.43859 0.90056 0.05285 0.0
C682 C 0.46449 0.88273 0.01456 0.0
C683 C 0.39413 0.92187 0.00462 0.0
C684 C 0.36637 0.89583 0.01503 0.0
N685 N 0.40373 0.89023 0.02585 0.0
C686 C 0.40971 0.90908 0.0154 0.0
C687 C 0.3824 0.88347 0.02564 0.0
C688 C 0.37231 0.91518 0.00448 0.0
C689 C 0.48371 0.8228 0.0436 0.0
N690 N 0.49079 0.84394 0.04162 0.0
C691 C 0.49277 0.80616 0.0308 0.0
C692 C 0.50913 0.81125 0.01575 0.0
C693 C 0.51614 0.83283 0.01361 0.0
C694 C 0.50669 0.84903 0.02667 0.0
C695 C 0.54419 0.87603 0.07535 0.0
C696 C 0.50966 0.90177 0.06129 0.0
C697 C 0.52347 0.86704 0.07174 0.0
N698 N 0.50655 0.87985 0.0646 0.0
C699 C 0.53014 0.91133 0.06479 0.0
C700 C 0.54751 0.89832 0.07178 0.0
C701 C 0.45106 0.90497 0.06903 0.0
C702 C 0.3913 0.84739 0.09395 0.0
C703 C 0.39819 0.88821 0.07549 0.0
C704 C 0.38515 0.88636 0.09418 0.0
C705 C 0.38172 0.86579 0.10345 0.0
N706 N 0.40754 0.87008 0.06628 0.0
C707 C 0.40422 0.84987 0.07525 0.0
Co708 Co 0.88605 0.27313 0.68867 0.0
Co709 Co 0.87724 0.3226 0.71191 0.0
O710 O 0.89737 0.30175 0.69797 0.0
C711 C 0.92418 0.28299 0.65826 0.0
O712 O 0.92855 0.30176 0.66777 0.0
C713 C 0.91713 0.32585 0.73959 0.0
O714 O 0.91864 0.30442 0.73966 0.0
O715 O 0.87203 0.30064 0.73554 0.0
O716 O 0.86403 0.27304 0.71294 0.0
H717 H 0.80748 0.344 0.74982 0.0
H718 H 0.93336 0.27922 0.70114 0.0
O719 O 0.90769 0.27156 0.66403 0.0
H720 H 0.9074 0.21665 0.74482 0.0
H721 H 0.89117 0.19633 0.65885 0.0
H722 H 0.84125 0.25449 0.68413 0.0
H723 H 0.88248 0.23551 0.71948 0.0
H724 H 0.90579 0.23161 0.67184 0.0
O725 O 0.90184 0.33533 0.72915 0.0
H726 H 0.83294 0.31875 0.73124 0.0
H727 H 0.87943 0.36996 0.72394 0.0
H728 H 0.82598 0.21936 0.67145 0.0
H729 H 0.95888 0.26057 0.72588 0.0
H730 H 0.85104 0.18997 0.6587 0.0
H731 H 0.946 0.22904 0.74809 0.0
O732 O 0.86481 0.28838 0.66936 0.0
H733 H 0.92512 0.36559 0.66072 0.0
H734 H 0.84907 0.35077 0.68338 0.0
H735 H 0.85614 0.3769 0.65344 0.0
H736 H 0.8944 0.38449 0.64194 0.0
H737 H 0.91729 0.33947 0.69053 0.0
H738 H 0.85458 0.39571 0.74262 0.0
H739 H 0.81827 0.38279 0.75561 0.0
O740 O 0.85164 0.3111 0.69473 0.0
C741 C 0.86468 0.28145 0.73199 0.0
C742 C 0.82324 0.34984 0.74418 0.0
C743 C 0.84968 0.37885 0.74017 0.0
N744 N 0.85758 0.3429 0.72639 0.0
C745 C 0.8377 0.33563 0.73361 0.0
C746 C 0.86371 0.36418 0.72965 0.0
C747 C 0.82931 0.3716 0.74744 0.0
C748 C 0.92764 0.26522 0.71013 0.0
N749 N 0.90649 0.2582 0.70817 0.0
C750 C 0.94218 0.25483 0.7244 0.0
C751 C 0.93493 0.23718 0.7369 0.0
C752 C 0.91331 0.23022 0.73505 0.0
C753 C 0.89927 0.24098 0.72059 0.0
C754 C 0.8801 0.20902 0.66436 0.0
C755 C 0.85228 0.24181 0.67866 0.0
C756 C 0.88827 0.2291 0.67164 0.0
N757 N 0.87441 0.24518 0.67877 0.0
C758 C 0.84352 0.22193 0.67147 0.0
C759 C 0.85757 0.20546 0.66429 0.0
C760 C 0.84969 0.30077 0.67666 0.0
C761 C 0.90838 0.36243 0.66558 0.0
C762 C 0.86576 0.35388 0.6784 0.0
C763 C 0.86966 0.36875 0.66148 0.0
C764 C 0.89114 0.37302 0.65505 0.0
N765 N 0.88277 0.34357 0.68867 0.0
C766 C 0.90385 0.34767 0.68246 0.0
Co767 Co 0.9766 0.63445 0.94216 0.0
Co768 Co 0.92551 0.62666 0.96265 0.0
O769 O 0.94698 0.64545 0.94782 0.0
C770 C 0.96756 0.66751 0.90609 0.0
O771 O 0.94785 0.67196 0.91342 0.0
C772 C 0.92068 0.66902 0.98556 0.0
O773 O 0.9421 0.66995 0.98703 0.0
O774 O 0.9456 0.62449 0.98823 0.0
O775 O 0.97592 0.61622 0.96939 0.0
H776 H 0.90197 0.5614 0.00686 0.0
H777 H 0.96731 0.68264 0.94729 0.0
O778 O 0.97909 0.65244 0.91477 0.0
H779 H 0.02838 0.66701 0.99746 0.0
H780 H 0.05545 0.64003 0.91856 0.0
H781 H 0.99751 0.59056 0.94532 0.0
H782 H 0.01212 0.63753 0.97541 0.0
H783 H 0.01828 0.65396 0.92553 0.0
O784 O 0.9115 0.65297 0.976 0.0
H785 H 0.9283 0.58494 0.98726 0.0
H786 H 0.87746 0.62951 0.97109 0.0
H787 H 0.03462 0.57604 0.93887 0.0
H788 H 0.98328 0.71256 0.96874 0.0
H789 H 0.06395 0.601 0.92566 0.0
H790 H 0.01407 0.70493 0.99415 0.0
O791 O 0.9638 0.60983 0.92515 0.0
H792 H 0.88537 0.66744 0.90361 0.0
H793 H 0.90009 0.59477 0.93555 0.0
H794 H 0.87605 0.59776 0.90327 0.0
H795 H 0.86851 0.63431 0.8871 0.0
H796 H 0.90943 0.66367 0.93582 0.0
H797 H 0.85061 0.60658 0.99069 0.0
H798 H 0.8628 0.57219 0.00866 0.0
O799 O 0.93858 0.59945 0.94957 0.0
C800 C 0.96532 0.61786 0.98725 0.0
C801 C 0.89644 0.57631 0.99904 0.0
C802 C 0.86762 0.60168 0.98999 0.0
N803 N 0.9044 0.60847 0.97788 0.0
C804 C 0.91127 0.58967 0.98787 0.0
C805 C 0.88291 0.61462 0.97895 0.0
C806 C 0.87447 0.58239 6e-05 0.0
C807 C 0.98101 0.6791 0.95773 0.0
N808 N 0.98912 0.65831 0.95936 0.0
C809 C 0.98987 0.69617 0.97011 0.0
C810 C 0.00709 0.69187 0.98441 0.0
C811 C 0.01514 0.67063 0.98625 0.0
C812 C 0.00585 0.65399 0.97363 0.0
C813 C 0.04282 0.62905 0.9244 0.0
C814 C 0.01015 0.60148 0.93949 0.0
C815 C 0.02167 0.63681 0.92824 0.0
N816 N 0.0057 0.62313 0.93597 0.0
C817 C 0.03113 0.59315 0.93585 0.0
C818 C 0.04757 0.60711 0.92837 0.0
C819 C 0.9508 0.59552 0.93308 0.0
C820 C 0.88852 0.65143 0.9105 0.0
C821 C 0.89702 0.61072 0.92853 0.0
C822 C 0.88332 0.61232 0.91029 0.0
C823 C 0.87909 0.63283 0.90124 0.0
N824 N 0.90621 0.62904 0.93753 0.0
C825 C 0.90212 0.6492 0.92875 0.0
Co826 Co 0.61354 0.72987 0.19001 0.0
Co827 Co 0.62022 0.67736 0.20688 0.0
O828 O 0.60119 0.70067 0.19545 0.0
C829 C 0.57642 0.72465 0.15736 0.0
O830 O 0.57207 0.70466 0.16394 0.0
C831 C 0.58017 0.67287 0.2339 0.0
O832 O 0.58009 0.69421 0.23642 0.0
O833 O 0.62608 0.69579 0.2331 0.0
O834 O 0.63475 0.72635 0.21484 0.0
H835 H 0.68827 0.64821 0.24269 0.0
H836 H 0.56575 0.72374 0.19993 0.0
O837 O 0.59268 0.73519 0.16513 0.0
H838 H 0.59155 0.77975 0.25185 0.0
H839 H 0.61174 0.80994 0.16974 0.0
H840 H 0.65895 0.74736 0.18892 0.0
H841 H 0.617 0.76325 0.22537 0.0
H842 H 0.59558 0.77387 0.17793 0.0
O843 O 0.59478 0.66373 0.22224 0.0
H844 H 0.66431 0.67672 0.22709 0.0
H845 H 0.61575 0.62903 0.21282 0.0
H846 H 0.67573 0.78319 0.18102 0.0
H847 H 0.53974 0.74006 0.22583 0.0
H848 H 0.65208 0.8148 0.17135 0.0
H849 H 0.55253 0.76827 0.25215 0.0
O850 O 0.63489 0.71649 0.16952 0.0
H851 H 0.57136 0.64273 0.15054 0.0
H852 H 0.64767 0.65213 0.17515 0.0
H853 H 0.64 0.63017 0.14216 0.0
H854 H 0.60161 0.62531 0.12968 0.0
H855 H 0.5798 0.66469 0.18338 0.0
H856 H 0.6391 0.60003 0.22845 0.0
H857 H 0.67569 0.60954 0.24344 0.0
O858 O 0.64663 0.68989 0.19168 0.0
C859 C 0.63403 0.71503 0.23234 0.0
C860 C 0.67239 0.64385 0.23614 0.0
C861 C 0.64478 0.61681 0.22817 0.0
N862 N 0.63875 0.65453 0.21888 0.0
C863 C 0.65878 0.65991 0.22723 0.0
C864 C 0.63162 0.63331 0.21939 0.0
C865 C 0.66531 0.62216 0.23657 0.0
C866 C 0.57146 0.73634 0.21082 0.0
N867 N 0.59285 0.74288 0.21054 0.0
C868 C 0.55664 0.74539 0.22569 0.0
C869 C 0.56383 0.76118 0.24049 0.0
C870 C 0.58569 0.76763 0.24031 0.0
C871 C 0.60003 0.75823 0.22521 0.0
C872 C 0.62222 0.79628 0.17394 0.0
C873 C 0.6485 0.76101 0.18479 0.0
C874 C 0.61317 0.77576 0.1785 0.0
N875 N 0.62628 0.75845 0.18395 0.0
C876 C 0.65812 0.78127 0.1803 0.0
C877 C 0.64485 0.79901 0.17486 0.0
C878 C 0.64942 0.70271 0.1754 0.0
C879 C 0.58816 0.64473 0.15581 0.0
C880 C 0.63093 0.65024 0.16974 0.0
C881 C 0.62669 0.63771 0.15109 0.0
C882 C 0.60514 0.63497 0.14411 0.0
N883 N 0.61418 0.65976 0.18113 0.0
C884 C 0.59303 0.65713 0.1744 0.0
Co885 Co 0.52435 0.36452 0.4418 0.0
Co886 Co 0.57598 0.37178 0.46083 0.0
O887 O 0.5535 0.35261 0.44807 0.0
C888 C 0.53164 0.32836 0.40847 0.0
O889 O 0.55118 0.3237 0.41608 0.0
C890 C 0.57992 0.33097 0.48667 0.0
O891 O 0.55851 0.33066 0.48838 0.0
O892 O 0.55646 0.37661 0.48646 0.0
O893 O 0.52644 0.38513 0.46727 0.0
H894 H 0.60262 0.43945 0.49924 0.0
H895 H 0.53097 0.31658 0.45088 0.0
O896 O 0.52058 0.34427 0.41622 0.0
H897 H 0.47215 0.34002 0.50073 0.0
H898 H 0.44531 0.36168 0.41802 0.0
H899 H 0.50603 0.4096 0.44112 0.0
H900 H 0.48938 0.36644 0.4757 0.0
H901 H 0.48131 0.34603 0.42736 0.0
O902 O 0.58939 0.34613 0.476 0.0
H903 H 0.57511 0.41539 0.48206 0.0
H904 H 0.62408 0.36792 0.46858 0.0
H905 H 0.47023 0.42587 0.43211 0.0
H906 H 0.514 0.28963 0.47537 0.0
H907 H 0.43957 0.40186 0.42045 0.0
H908 H 0.48435 0.30123 0.50064 0.0
O909 O 0.53813 0.38658 0.42239 0.0
H910 H 0.61343 0.32501 0.40454 0.0
H911 H 0.60193 0.40048 0.4308 0.0
H912 H 0.62516 0.39406 0.39843 0.0
H913 H 0.63108 0.35609 0.38511 0.0
H914 H 0.59019 0.3322 0.43678 0.0
H915 H 0.65208 0.39136 0.4858 0.0
H916 H 0.64143 0.42746 0.5012 0.0
O917 O 0.56357 0.39838 0.44581 0.0
C918 C 0.53708 0.38414 0.48518 0.0
C919 C 0.60748 0.42379 0.49253 0.0
C920 C 0.63524 0.39679 0.48501 0.0
N921 N 0.59801 0.39037 0.47415 0.0
C922 C 0.59198 0.41012 0.48272 0.0
C923 C 0.6193 0.38356 0.47532 0.0
C924 C 0.62925 0.41704 0.49364 0.0
C925 C 0.51778 0.32179 0.46131 0.0
N926 N 0.51087 0.34306 0.46124 0.0
C927 C 0.50834 0.30642 0.47538 0.0
C928 C 0.49176 0.31295 0.4896 0.0
C929 C 0.4849 0.33468 0.48964 0.0
C930 C 0.49472 0.34958 0.47535 0.0
C931 C 0.45856 0.37231 0.42308 0.0
C932 C 0.49278 0.399 0.43614 0.0
C933 C 0.47903 0.36355 0.4283 0.0
N934 N 0.49582 0.37686 0.43485 0.0
C935 C 0.47253 0.40833 0.43103 0.0
C936 C 0.45533 0.39486 0.42447 0.0
C937 C 0.55141 0.40122 0.42905 0.0
C938 C 0.61098 0.34163 0.41017 0.0
C939 C 0.60429 0.38392 0.42502 0.0
C940 C 0.61753 0.38038 0.40673 0.0
C941 C 0.62086 0.35907 0.39928 0.0
N942 N 0.59464 0.36672 0.43562 0.0
C943 C 0.59785 0.34579 0.42843 0.0
Co944 Co 0.30866 0.38606 0.22586 0.0
Co945 Co 0.29119 0.37965 0.17348 0.0
O946 O 0.30359 0.39814 0.19659 0.0
C947 C 0.34303 0.42146 0.21961 0.0
O948 O 0.33658 0.4256 0.19954 0.0
C949 C 0.26446 0.41976 0.16981 0.0
O950 O 0.26061 0.41831 0.19091 0.0
O951 O 0.26497 0.37443 0.19213 0.0
O952 O 0.28286 0.36604 0.223 0.0
H953 H 0.25295 0.31299 0.14413 0.0
H954 H 0.30095 0.43413 0.21859 0.0
O955 O 0.3346 0.4058 0.23055 0.0
H956 H 0.2483 0.41219 0.27556 0.0
H957 H 0.32855 0.38916 0.30587 0.0
H958 H 0.30777 0.34104 0.24448 0.0
H959 H 0.27343 0.38512 0.25956 0.0
H960 H 0.32177 0.40455 0.26922 0.0
O961 O 0.27671 0.40583 0.16039 0.0
H962 H 0.2696 0.33618 0.17269 0.0
H963 H 0.2846 0.38487 0.12536 0.0
H964 H 0.31425 0.32502 0.28097 0.0
H965 H 0.27639 0.46171 0.23438 0.0
H966 H 0.32449 0.34924 0.31199 0.0
H967 H 0.24973 0.45088 0.26309 0.0
O968 O 0.32785 0.36331 0.21277 0.0
H969 H 0.34863 0.42668 0.13804 0.0
H970 H 0.32175 0.35118 0.148 0.0
H971 H 0.35472 0.35775 0.12565 0.0
H972 H 0.36835 0.39573 0.12052 0.0
H973 H 0.3158 0.41934 0.16039 0.0
H974 H 0.26793 0.3623 0.09631 0.0
H975 H 0.25205 0.32603 0.10562 0.0
O976 O 0.30551 0.35272 0.18576 0.0
C977 C 0.26549 0.3668 0.2115 0.0
C978 C 0.2599 0.32872 0.13985 0.0
C979 C 0.26828 0.35641 0.11302 0.0
N980 N 0.27828 0.36174 0.15066 0.0
C981 C 0.26941 0.34189 0.15594 0.0
C982 C 0.27767 0.36913 0.12954 0.0
C983 C 0.25937 0.33606 0.11825 0.0
C984 C 0.2899 0.42924 0.2314 0.0
N985 N 0.28927 0.40804 0.23853 0.0
C986 C 0.2758 0.44497 0.24016 0.0
C987 C 0.2608 0.43888 0.25622 0.0
C988 C 0.26001 0.4172 0.26324 0.0
C989 C 0.27437 0.40194 0.25412 0.0
C990 C 0.32403 0.37848 0.29247 0.0
C991 C 0.3123 0.35167 0.25787 0.0
C992 C 0.32028 0.38708 0.27163 0.0
N993 N 0.31429 0.37374 0.25468 0.0
C994 C 0.31596 0.34249 0.2785 0.0
C995 C 0.32177 0.35605 0.2959 0.0
C996 C 0.32136 0.34909 0.19889 0.0
C997 C 0.34286 0.41005 0.14017 0.0
C998 C 0.32767 0.36775 0.146 0.0
C999 C 0.3463 0.37137 0.13324 0.0
C1000 C 0.35392 0.39268 0.13035 0.0
N1001 N 0.31692 0.38487 0.15559 0.0
C1002 C 0.32428 0.40581 0.15279 0.0
Co1003 Co 0.80176 0.10904 0.77018 0.0
Co1004 Co 0.7915 0.11721 0.82406 0.0
O1005 O 0.79795 0.09723 0.79979 0.0
C1006 C 0.83691 0.0743 0.77274 0.0
O1007 O 0.84429 0.08133 0.79166 0.0
C1008 C 0.75961 0.08143 0.83019 0.0
O1009 O 0.75533 0.08274 0.80918 0.0
O1010 O 0.76477 0.12732 0.80817 0.0
O1011 O 0.78114 0.13379 0.7761 0.0
H1012 H 0.7696 0.18937 0.85685 0.0
H1013 H 0.7881 0.06294 0.77684 0.0
O1014 O 0.82161 0.08429 0.76283 0.0
H1015 H 0.73222 0.0948 0.72808 0.0
H1016 H 0.81253 0.10398 0.6885 0.0
H1017 H 0.80715 0.15381 0.75175 0.0
H1018 H 0.76309 0.11721 0.74127 0.0
H1019 H 0.80625 0.08936 0.72555 0.0
O1020 O 0.77384 0.09395 0.83878 0.0
H1021 H 0.77875 0.16392 0.82687 0.0
H1022 H 0.78889 0.11258 0.87265 0.0
H1023 H 0.81326 0.16909 0.71493 0.0
H1024 H 0.75751 0.03994 0.76399 0.0
H1025 H 0.81606 0.14408 0.683 0.0
H1026 H 0.72926 0.05588 0.73946 0.0
O1027 O 0.82642 0.1273 0.78101 0.0
H1028 H 0.84333 0.05987 0.85205 0.0
H1029 H 0.82885 0.13913 0.84687 0.0
H1030 H 0.86226 0.12622 0.8655 0.0
H1031 H 0.86964 0.08632 0.86823 0.0
H1032 H 0.81018 0.07351 0.83341 0.0
H1033 H 0.77964 0.13741 0.90312 0.0
H1034 H 0.77001 0.17614 0.89531 0.0
O1035 O 0.80937 0.14118 0.8103 0.0
C1036 C 0.7649 0.13554 0.78902 0.0
C1037 C 0.77383 0.17255 0.86047 0.0
C1038 C 0.77944 0.14338 0.88644 0.0
N1039 N 0.7845 0.13684 0.84802 0.0
C1040 C 0.77908 0.15808 0.84357 0.0
C1041 C 0.78461 0.12938 0.86911 0.0
C1042 C 0.77404 0.16511 0.88204 0.0
C1043 C 0.77591 0.06998 0.76612 0.0
N1044 N 0.77736 0.09142 0.7599 0.0
C1045 C 0.75861 0.05688 0.75891 0.0
C1046 C 0.74276 0.06584 0.74517 0.0
C1047 C 0.74441 0.08768 0.73878 0.0
C1048 C 0.76191 0.10029 0.74635 0.0
C1049 C 0.81139 0.11503 0.70231 0.0
C1050 C 0.80828 0.1428 0.73797 0.0
C1051 C 0.80794 0.10684 0.72337 0.0
N1052 N 0.80638 0.12069 0.7409 0.0
C1053 C 0.81176 0.15157 0.71713 0.0
C1054 C 0.81333 0.13754 0.69922 0.0
C1055 C 0.82425 0.14211 0.79561 0.0
C1056 C 0.84026 0.07729 0.85102 0.0
C1057 C 0.83199 0.12174 0.84792 0.0
C1058 C 0.85091 0.11453 0.85853 0.0
C1059 C 0.85503 0.09214 0.86007 0.0
N1060 N 0.81754 0.10706 0.83915 0.0
C1061 C 0.8215 0.0851 0.84055 0.0
Co1062 Co 0.13493 0.55697 0.01805 0.0
Co1063 Co 0.13148 0.54393 0.07165 0.0
O1064 O 0.14926 0.55239 0.0464 0.0
C1065 C 0.17111 0.5906 0.01984 0.0
O1066 O 0.1679 0.59473 0.04067 0.0
C1067 C 0.16837 0.51261 0.07433 0.0
O1068 O 0.16463 0.5072 0.05387 0.0
O1069 O 0.12154 0.51743 0.0552 0.0
O1070 O 0.11131 0.53542 0.02515 0.0
H1071 H 0.06313 0.51677 0.10845 0.0
H1072 H 0.18154 0.54382 0.02129 0.0
O1073 O 0.15843 0.57787 0.00935 0.0
H1074 H 0.14786 0.48985 0.97165 0.0
H1075 H 0.13275 0.57004 0.93657 0.0
H1076 H 0.08866 0.56213 0.0037 0.0
H1077 H 0.12569 0.5195 0.98775 0.0
H1078 H 0.15062 0.56341 0.97209 0.0
O1079 O 0.15667 0.52704 0.08371 0.0
H1080 H 0.08582 0.52857 0.07718 0.0
H1081 H 0.13986 0.53931 0.11959 0.0
H1082 H 0.07015 0.5686 0.96845 0.0
H1083 H 0.20423 0.51438 0.00564 0.0
H1084 H 0.09228 0.57251 0.93456 0.0
H1085 H 0.18739 0.48711 0.98062 0.0
O1086 O 0.11698 0.58056 0.03147 0.0
H1087 H 0.18821 0.59691 0.09881 0.0
H1088 H 0.10947 0.57914 0.09755 0.0
H1089 H 0.12208 0.61213 0.11709 0.0
H1090 H 0.16172 0.62117 0.11786 0.0
H1091 H 0.17486 0.56419 0.07925 0.0
H1092 H 0.11782 0.52744 0.15129 0.0
H1093 H 0.07913 0.51616 0.14583 0.0
O1094 O 0.10577 0.5612 0.0605 0.0
C1095 C 0.11176 0.51818 0.03682 0.0
C1096 C 0.07994 0.52172 0.11105 0.0
C1097 C 0.11065 0.52768 0.13509 0.0
N1098 N 0.11405 0.53482 0.09659 0.0
C1099 C 0.09285 0.52847 0.09342 0.0
C1100 C 0.12306 0.53434 0.11707 0.0
C1101 C 0.08894 0.52136 0.13201 0.0
C1102 C 0.17407 0.53207 0.01039 0.0
N1103 N 0.15231 0.53347 0.00542 0.0
C1104 C 0.18701 0.51541 0.00159 0.0
C1105 C 0.17756 0.50011 0.98756 0.0
C1106 C 0.15537 0.50165 0.98252 0.0
C1107 C 0.14291 0.51848 0.9917 0.0
C1108 C 0.12296 0.56836 0.95124 0.0
C1109 C 0.09842 0.56383 0.98906 0.0
C1110 C 0.13299 0.56471 0.97145 0.0
N1111 N 0.12073 0.56234 0.99004 0.0
C1112 C 0.08782 0.5675 0.96913 0.0
C1113 C 0.10023 0.56972 0.95012 0.0
C1114 C 0.10331 0.57693 0.04689 0.0
C1115 C 0.1709 0.59313 0.09862 0.0
C1116 C 0.12673 0.58303 0.09768 0.0
C1117 C 0.13378 0.6017 0.10885 0.0
C1118 C 0.15603 0.60674 0.10929 0.0
N1119 N 0.14143 0.56973 0.08728 0.0
C1120 C 0.16326 0.57459 0.08764 0.0
Co1121 Co 0.69026 0.88575 0.2754 0.0
Co1122 Co 0.71151 0.87717 0.32597 0.0
O1123 O 0.69759 0.8968 0.30464 0.0
C1124 C 0.65681 0.92105 0.28543 0.0
O1125 O 0.66528 0.92509 0.30475 0.0
C1126 C 0.73686 0.91828 0.33012 0.0
O1127 O 0.73775 0.91925 0.30868 0.0
O1128 O 0.73637 0.87327 0.30529 0.0
O1129 O 0.71614 0.86554 0.27573 0.0
H1130 H 0.75188 0.8093 0.34896 0.0
H1131 H 0.69883 0.93364 0.28318 0.0
O1132 O 0.66421 0.90567 0.27341 0.0
H1133 H 0.74676 0.91287 0.22182 0.0
H1134 H 0.66348 0.89087 0.19745 0.0
H1135 H 0.68949 0.8413 0.2556 0.0
H1136 H 0.7228 0.88552 0.23912 0.0
H1137 H 0.67378 0.90542 0.23365 0.0
O1138 O 0.72686 0.90263 0.33953 0.0
H1139 H 0.73327 0.83392 0.32292 0.0
H1140 H 0.72119 0.87972 0.37381 0.0
H1141 H 0.67952 0.82612 0.21958 0.0
H1142 H 0.72219 0.96151 0.26615 0.0
H1143 H 0.66649 0.85097 0.19016 0.0
H1144 H 0.7465 0.95126 0.23523 0.0
O1145 O 0.6718 0.86289 0.28921 0.0
H1146 H 0.65626 0.92196 0.36721 0.0
H1147 H 0.68294 0.84726 0.3522 0.0
H1148 H 0.65148 0.8525 0.37693 0.0
H1149 H 0.63796 0.89008 0.38461 0.0
H1150 H 0.6876 0.91595 0.34245 0.0
H1151 H 0.73985 0.8557 0.40037 0.0
H1152 H 0.75526 0.82015 0.38801 0.0
O1153 O 0.69637 0.85075 0.31339 0.0
C1154 C 0.73442 0.86637 0.28573 0.0
C1155 C 0.74517 0.82471 0.35457 0.0
C1156 C 0.73844 0.85076 0.38341 0.0
N1157 N 0.72598 0.85813 0.34687 0.0
C1158 C 0.73456 0.83869 0.3399 0.0
C1159 C 0.72793 0.86432 0.36829 0.0
C1160 C 0.74708 0.83082 0.37646 0.0
C1161 C 0.7088 0.92902 0.26945 0.0
N1162 N 0.7088 0.90797 0.26186 0.0
C1163 C 0.72226 0.9449 0.25997 0.0
C1164 C 0.73594 0.93914 0.24267 0.0
C1165 C 0.73607 0.91762 0.23513 0.0
C1166 C 0.72239 0.9022 0.24501 0.0
C1167 C 0.66917 0.87987 0.21013 0.0
C1168 C 0.68387 0.85226 0.24291 0.0
C1169 C 0.67494 0.88801 0.23072 0.0
N1170 N 0.68233 0.87426 0.24677 0.0
C1171 C 0.67821 0.84354 0.22254 0.0
C1172 C 0.67087 0.85749 0.20605 0.0
C1173 C 0.67918 0.848 0.30181 0.0
C1174 C 0.66199 0.90551 0.36398 0.0
C1175 C 0.67706 0.86366 0.35532 0.0
C1176 C 0.65929 0.86653 0.36941 0.0
C1177 C 0.65172 0.88761 0.37373 0.0
N1178 N 0.68704 0.8813 0.34581 0.0
C1179 C 0.67973 0.90201 0.34999 0.0
Co1180 Co 0.3649 0.43863 0.52103 0.0
Co1181 Co 0.37052 0.45702 0.57307 0.0
O1182 O 0.35212 0.44484 0.5498 0.0
C1183 C 0.32789 0.40608 0.52708 0.0
O1184 O 0.32412 0.4127 0.54716 0.0
C1185 C 0.33109 0.48512 0.57576 0.0
O1186 O 0.33311 0.48914 0.55475 0.0
O1187 O 0.37682 0.48267 0.55395 0.0
O1188 O 0.38606 0.46356 0.52412 0.0
H1189 H 0.43777 0.49376 0.60294 0.0
H1190 H 0.31717 0.44873 0.52665 0.0
O1191 O 0.34402 0.41364 0.51618 0.0
H1192 H 0.34316 0.49896 0.46917 0.0
H1193 H 0.36398 0.41657 0.44147 0.0
H1194 H 0.41053 0.43706 0.50414 0.0
H1195 H 0.36855 0.47297 0.48653 0.0
H1196 H 0.34746 0.42539 0.4772 0.0
O1197 O 0.34452 0.47247 0.58541 0.0
H1198 H 0.41461 0.47723 0.57428 0.0
H1199 H 0.36459 0.46477 0.62095 0.0
H1200 H 0.42768 0.42854 0.46863 0.0
H1201 H 0.29125 0.47424 0.50955 0.0
H1202 H 0.40435 0.41828 0.43696 0.0
H1203 H 0.30414 0.49968 0.48057 0.0
O1204 O 0.38617 0.41863 0.53533 0.0
H1205 H 0.32107 0.40177 0.60872 0.0
H1206 H 0.39751 0.42616 0.5998 0.0
H1207 H 0.3895 0.3939 0.62269 0.0
H1208 H 0.35104 0.38152 0.62731 0.0
H1209 H 0.32984 0.43387 0.58584 0.0
H1210 H 0.38713 0.48133 0.65008 0.0
H1211 H 0.42404 0.49588 0.64116 0.0
O1212 O 0.39722 0.44154 0.56164 0.0
C1213 C 0.38507 0.4814 0.53486 0.0
C1214 C 0.42175 0.4874 0.60705 0.0
C1215 C 0.39331 0.48045 0.6335 0.0
N1216 N 0.38838 0.46983 0.59598 0.0
C1217 C 0.40859 0.47796 0.5909 0.0
C1218 C 0.38061 0.47112 0.61693 0.0
C1219 C 0.41403 0.4886 0.62849 0.0
C1220 C 0.32293 0.45928 0.51376 0.0
N1221 N 0.34432 0.45875 0.50724 0.0
C1222 C 0.30815 0.47391 0.50425 0.0
C1223 C 0.3154 0.48821 0.48803 0.0
C1224 C 0.33727 0.48779 0.48161 0.0
C1225 C 0.35157 0.47295 0.49149 0.0
C1226 C 0.37432 0.42104 0.45515 0.0
C1227 C 0.40023 0.43263 0.49046 0.0
C1228 C 0.36506 0.42595 0.47548 0.0
N1229 N 0.37799 0.4318 0.4928 0.0
C1230 C 0.41006 0.4278 0.47038 0.0
C1231 C 0.39697 0.42201 0.45263 0.0
C1232 C 0.40036 0.42495 0.5493 0.0
C1233 C 0.3379 0.40698 0.60681 0.0
C1234 C 0.38075 0.42078 0.60156 0.0
C1235 C 0.37631 0.40255 0.61463 0.0
C1236 C 0.35472 0.39562 0.61723 0.0
N1237 N 0.36416 0.43182 0.59136 0.0
C1238 C 0.34296 0.42515 0.59388 0.0
Co1239 Co 0.19558 0.61478 0.72882 0.0
Co1240 Co 0.21205 0.62078 0.6761 0.0
O1241 O 0.20037 0.60238 0.69966 0.0
C1242 C 0.16171 0.57862 0.7238 0.0
O1243 O 0.16819 0.57377 0.7039 0.0
C1244 C 0.23928 0.58093 0.67239 0.0
O1245 O 0.24384 0.58286 0.69331 0.0
O1246 O 0.23853 0.62669 0.69421 0.0
O1247 O 0.22095 0.63522 0.72523 0.0
H1248 H 0.24872 0.68759 0.64512 0.0
H1249 H 0.20421 0.56678 0.72206 0.0
O1250 O 0.17007 0.59469 0.73419 0.0
H1251 H 0.25721 0.59059 0.77793 0.0
H1252 H 0.17687 0.61255 0.80913 0.0
H1253 H 0.19588 0.66009 0.74671 0.0
H1254 H 0.23127 0.6169 0.76196 0.0
H1255 H 0.18352 0.59671 0.77265 0.0
O1256 O 0.22663 0.5946 0.66308 0.0
H1257 H 0.23296 0.66456 0.6743 0.0
H1258 H 0.21785 0.61498 0.62794 0.0
H1259 H 0.18952 0.67656 0.78301 0.0
H1260 H 0.2296 0.53995 0.73781 0.0
H1261 H 0.18014 0.65264 0.81454 0.0
H1262 H 0.25645 0.55172 0.76597 0.0
O1263 O 0.17574 0.63699 0.7157 0.0
H1264 H 0.15459 0.57243 0.64252 0.0
H1265 H 0.18065 0.64842 0.65073 0.0
H1266 H 0.14736 0.64106 0.62912 0.0
H1267 H 0.13415 0.60283 0.62486 0.0
H1268 H 0.18773 0.58055 0.66412 0.0
H1269 H 0.23364 0.63739 0.59828 0.0
H1270 H 0.24912 0.67403 0.60678 0.0
O1271 O 0.19753 0.64768 0.68828 0.0
C1272 C 0.23815 0.63465 0.71346 0.0
C1273 C 0.24194 0.6717 0.64119 0.0
C1274 C 0.2335 0.64351 0.61491 0.0
N1275 N 0.22427 0.63856 0.6528 0.0
C1276 C 0.23293 0.65861 0.65764 0.0
C1277 C 0.22462 0.63088 0.63178 0.0
C1278 C 0.24218 0.66407 0.61969 0.0
C1279 C 0.21533 0.57207 0.73464 0.0
N1280 N 0.21559 0.59337 0.74149 0.0
C1281 C 0.22991 0.55677 0.74337 0.0
C1282 C 0.24501 0.56339 0.75912 0.0
C1283 C 0.24542 0.58517 0.76586 0.0
C1284 C 0.2306 0.59999 0.75676 0.0
C1285 C 0.18101 0.6231 0.79551 0.0
C1286 C 0.19175 0.64959 0.76033 0.0
C1287 C 0.18469 0.61424 0.77477 0.0
N1288 N 0.19018 0.62744 0.75752 0.0
C1289 C 0.18815 0.65902 0.78085 0.0
C1290 C 0.18283 0.64563 0.79853 0.0
C1291 C 0.18175 0.65115 0.70155 0.0
C1292 C 0.16018 0.58916 0.64426 0.0
C1293 C 0.17492 0.63175 0.6491 0.0
C1294 C 0.1561 0.62768 0.63677 0.0
C1295 C 0.14871 0.60622 0.63437 0.0
N1296 N 0.18608 0.61492 0.65877 0.0
C1297 C 0.17894 0.59385 0.65646 0.0
Co1298 Co 0.63529 0.92898 0.97444 0.0
Co1299 Co 0.62628 0.9554 0.92669 0.0
O1300 O 0.64663 0.94033 0.94652 0.0
C1301 C 0.67436 0.90034 0.9633 0.0
O1302 O 0.67819 0.91071 0.94487 0.0
C1303 C 0.66563 0.98422 0.92493 0.0
O1304 O 0.66749 0.9831 0.94631 0.0
O1305 O 0.62084 0.97743 0.95024 0.0
O1306 O 0.61277 0.95271 0.97583 0.0
H1307 H 0.55594 0.99376 0.90823 0.0
H1308 H 0.68225 0.94306 0.96928 0.0
O1309 O 0.65748 0.90475 0.97475 0.0
H1310 H 0.65519 0.98186 0.03451 0.0
H1311 H 0.64031 0.89428 0.04922 0.0
H1312 H 0.59046 0.92269 0.99248 0.0
H1313 H 0.63096 0.95708 0.01407 0.0
H1314 H 0.65501 0.90985 0.01503 0.0
O1315 O 0.65053 0.97387 0.91507 0.0
H1316 H 0.58175 0.97378 0.93201 0.0
H1317 H 0.62803 0.97065 0.88023 0.0
H1318 H 0.57513 0.90745 0.02651 0.0
H1319 H 0.70712 0.96719 0.98954 0.0
H1320 H 0.60011 0.89306 0.05518 0.0
H1321 H 0.69368 0.98696 0.02241 0.0
O1322 O 0.6145 0.91027 0.95784 0.0
H1323 H 0.6748 0.90801 0.88026 0.0
H1324 H 0.59845 0.92853 0.89658 0.0
H1325 H 0.60591 0.90062 0.86841 0.0
H1326 H 0.64432 0.89021 0.86005 0.0
H1327 H 0.66657 0.93578 0.90843 0.0
H1328 H 0.60283 0.99078 0.85595 0.0
H1329 H 0.56644 0.00239 0.8699 0.0
O1330 O 0.601 0.93704 0.93697 0.0
C1331 C 0.61353 0.97242 0.96911 0.0
C1332 C 0.57173 0.98875 0.90195 0.0
C1333 C 0.59805 0.9871 0.87262 0.0
N1334 N 0.60632 0.97095 0.90749 0.0
C1335 C 0.58639 0.9774 0.91532 0.0
C1336 C 0.61228 0.97576 0.88646 0.0
C1337 C 0.57764 0.9936 0.88045 0.0
C1338 C 0.67631 0.95094 0.98384 0.0
N1339 N 0.65523 0.94793 0.99072 0.0
C1340 C 0.69047 0.96489 0.99516 0.0
C1341 C 0.68291 0.97603 0.01356 0.0
C1342 C 0.66135 0.97315 0.02036 0.0
C1343 C 0.6477 0.95901 0.00869 0.0
C1344 C 0.62926 0.90045 0.03682 0.0
C1345 C 0.60148 0.9165 0.00484 0.0
C1346 C 0.63748 0.90918 0.01735 0.0
N1347 N 0.62363 0.91712 0.00164 0.0
C1348 C 0.59268 0.90788 0.0241 0.0
C1349 C 0.6067 0.8998 0.04018 0.0
C1350 C 0.59928 0.91824 0.94596 0.0
C1351 C 0.65799 0.91241 0.88375 0.0
C1352 C 0.61521 0.92401 0.89314 0.0
C1353 C 0.61933 0.90824 0.87711 0.0
C1354 C 0.64088 0.90242 0.87242 0.0
N1355 N 0.63208 0.93376 0.90416 0.0
C1356 C 0.65324 0.92813 0.89966 0.0
Co1357 Co 0.86475 0.06082 0.47913 0.0
Co1358 Co 0.87069 0.04311 0.42677 0.0
O1359 O 0.85231 0.05571 0.44994 0.0
C1360 C 0.82912 0.09499 0.47343 0.0
O1361 O 0.82486 0.08862 0.45337 0.0
C1362 C 0.8298 0.01739 0.42297 0.0
O1363 O 0.83002 0.01496 0.44432 0.0
O1364 O 0.87557 0.01689 0.4455 0.0
O1365 O 0.88471 0.03498 0.47602 0.0
H1366 H 0.93702 0.0041 0.39776 0.0
H1367 H 0.81654 0.05312 0.47263 0.0
O1368 O 0.84506 0.08675 0.4841 0.0
H1369 H 0.83927 0.0006 0.52939 0.0
H1370 H 0.86286 0.08066 0.55923 0.0
H1371 H 0.91001 0.05992 0.4971 0.0
H1372 H 0.86614 0.0256 0.51284 0.0
H1373 H 0.84691 0.07396 0.5228 0.0
O1374 O 0.84456 0.02864 0.41353 0.0
H1375 H 0.91388 0.02102 0.42619 0.0
H1376 H 0.86573 0.03675 0.37856 0.0
H1377 H 0.92658 0.06632 0.53334 0.0
H1378 H 0.78915 0.02874 0.489 0.0
H1379 H 0.90288 0.07651 0.56477 0.0
H1380 H 0.80038 0.00212 0.5176 0.0
O1381 O 0.88736 0.08003 0.46573 0.0
H1382 H 0.82408 0.1009 0.39144 0.0
H1383 H 0.89936 0.0734 0.4011 0.0
H1384 H 0.89299 0.10639 0.37873 0.0
H1385 H 0.85512 0.12033 0.37374 0.0
H1386 H 0.83122 0.06803 0.41382 0.0
H1387 H 0.88824 0.0198 0.34965 0.0
H1388 H 0.92422 0.00341 0.35917 0.0
O1389 O 0.89772 0.05732 0.43898 0.0
C1390 C 0.88347 0.01748 0.46476 0.0
C1391 C 0.92141 0.01125 0.39339 0.0
C1392 C 0.89402 0.02004 0.3664 0.0
N1393 N 0.88857 0.03004 0.40401 0.0
C1394 C 0.90826 0.02091 0.40941 0.0
C1395 C 0.88132 0.02957 0.38285 0.0
C1396 C 0.91421 0.01085 0.37175 0.0
C1397 C 0.82161 0.04213 0.48541 0.0
N1398 N 0.84293 0.04144 0.49214 0.0
C1399 C 0.80599 0.0281 0.49449 0.0
C1400 C 0.8123 0.01313 0.51048 0.0
C1401 C 0.83409 0.01229 0.51711 0.0
C1402 C 0.84925 0.02657 0.50767 0.0
C1403 C 0.87333 0.07615 0.54567 0.0
C1404 C 0.89959 0.06444 0.51065 0.0
C1405 C 0.86441 0.07245 0.52495 0.0
N1406 N 0.87748 0.06646 0.50778 0.0
C1407 C 0.90909 0.06806 0.53114 0.0
C1408 C 0.8958 0.07384 0.54876 0.0
C1409 C 0.90146 0.07339 0.45182 0.0
C1410 C 0.84066 0.09499 0.39349 0.0
C1411 C 0.88284 0.07945 0.39916 0.0
C1412 C 0.87933 0.09809 0.38639 0.0
C1413 C 0.85808 0.10589 0.38358 0.0
N1414 N 0.86566 0.06885 0.40883 0.0
C1415 C 0.84479 0.07638 0.40613 0.0
H1416 H 0.12184 0.16884 0.50565 0.0
H1417 H 0.06471 0.20762 0.49039 0.0
H1418 H 0.14456 0.19373 0.48465 0.0
H1419 H 0.08766 0.23334 0.47018 0.0
H1420 H 0.12939 0.25734 0.41322 0.0
H1421 H 0.10668 0.2354 0.43711 0.0
H1422 H 0.16084 0.2284 0.48219 0.0
H1423 H 0.18403 0.24964 0.45747 0.0
C1424 C 0.11418 0.18292 0.49806 0.0
C1425 C 0.09145 0.1862 0.49952 0.0
C1426 C 0.12727 0.19734 0.48614 0.0
C1427 C 0.11802 0.21561 0.47563 0.0
C1428 C 0.09532 0.21922 0.47767 0.0
C1429 C 0.08215 0.20456 0.48932 0.0
C1430 C 0.13648 0.25126 0.42829 0.0
C1431 C 0.15857 0.25514 0.43341 0.0
C1432 C 0.12333 0.23877 0.44214 0.0
C1433 C 0.13182 0.23008 0.46167 0.0
C1434 C 0.15382 0.23449 0.4671 0.0
C1435 C 0.16711 0.24676 0.45302 0.0
H1436 H 0.00295 0.932 0.70884 0.0
H1437 H 0.9978 0.87885 0.66246 0.0
H1438 H 0.02313 0.90812 0.73377 0.0
H1439 H 0.01871 0.85544 0.68665 0.0
H1440 H 0.04413 0.81192 0.74003 0.0
H1441 H 0.01925 0.83532 0.71926 0.0
H1442 H 0.05773 0.892 0.73727 0.0
H1443 H 0.08172 0.86886 0.75873 0.0
C1444 C 0.00621 0.91527 0.70395 0.0
C1445 C 0.99882 0.90734 0.6837 0.0
C1446 C 0.01786 0.90158 0.71816 0.0
C1447 C 0.02265 0.87978 0.71225 0.0
C1448 C 0.01501 0.87191 0.69203 0.0
C1449 C 0.00313 0.88545 0.67803 0.0
C1450 C 0.0471 0.8294 0.73965 0.0
C1451 C 0.06489 0.83851 0.75096 0.0
C1452 C 0.03293 0.84284 0.72766 0.0
C1453 C 0.03649 0.86562 0.72646 0.0
C1454 C 0.05416 0.87465 0.7381 0.0
C1455 C 0.06807 0.8613 0.7503 0.0
H1456 H 0.37241 0.74449 0.91855 0.0
H1457 H 0.31561 0.75297 0.95986 0.0
H1458 H 0.3945 0.76476 0.94445 0.0
H1459 H 0.33808 0.77258 0.9865 0.0
H1460 H 0.37741 0.8318 0.01124 0.0
H1461 H 0.35509 0.80695 0.98991 0.0
H1462 H 0.41156 0.76567 0.97892 0.0
H1463 H 0.43422 0.7913 0.99956 0.0
C1464 C 0.36469 0.75039 0.93338 0.0
C1465 C 0.34219 0.74729 0.93707 0.0
C1466 C 0.37746 0.76188 0.94839 0.0
C1467 C 0.36815 0.77036 0.96764 0.0
C1468 C 0.34574 0.76661 0.97168 0.0
C1469 C 0.33286 0.75531 0.95647 0.0
C1470 C 0.38508 0.81733 0.00446 0.0
C1471 C 0.40767 0.81365 0.00689 0.0
C1472 C 0.37218 0.80292 0.99233 0.0
C1473 C 0.38148 0.7843 0.98253 0.0
C1474 C 0.40392 0.78009 0.98584 0.0
C1475 C 0.41691 0.7947 0.99777 0.0
H1476 H 0.47391 0.06882 0.188 0.0
H1477 H 0.51934 0.1216 0.17523 0.0
H1478 H 0.45264 0.09292 0.21158 0.0
H1479 H 0.49835 0.14552 0.19924 0.0
H1480 H 0.43962 0.1876 0.22213 0.0
H1481 H 0.46321 0.16415 0.19997 0.0
H1482 H 0.45455 0.1115 0.24644 0.0
H1483 H 0.43066 0.13465 0.26826 0.0
C1484 C 0.47946 0.0855 0.19036 0.0
C1485 C 0.49826 0.09331 0.17968 0.0
C1486 C 0.46735 0.09929 0.20398 0.0
C1487 C 0.47382 0.12115 0.20729 0.0
C1488 C 0.49277 0.12887 0.1968 0.0
C1489 C 0.50486 0.1151 0.18314 0.0
C1490 C 0.44292 0.17108 0.22769 0.0
C1491 C 0.43313 0.16293 0.24682 0.0
C1492 C 0.45649 0.15767 0.21504 0.0
C1493 C 0.46058 0.13589 0.22135 0.0
C1494 C 0.45137 0.12804 0.2409 0.0
C1495 C 0.43778 0.14138 0.25346 0.0
H1496 H 0.62857 0.2404 0.58292 0.0
H1497 H 0.68548 0.25214 0.54257 0.0
H1498 H 0.6064 0.2621 0.55827 0.0
H1499 H 0.66295 0.27314 0.5171 0.0
H1500 H 0.62363 0.33304 0.495 0.0
H1501 H 0.64578 0.30746 0.51569 0.0
H1502 H 0.58941 0.2654 0.52404 0.0
H1503 H 0.56692 0.29173 0.50408 0.0
C1504 C 0.63629 0.24729 0.56852 0.0
C1505 C 0.65886 0.24471 0.5648 0.0
C1506 C 0.62348 0.25964 0.55423 0.0
C1507 C 0.63282 0.2695 0.53565 0.0
C1508 C 0.65526 0.26617 0.53147 0.0
C1509 C 0.66818 0.25403 0.54598 0.0
C1510 C 0.61595 0.31827 0.50113 0.0
C1511 C 0.59346 0.31449 0.49806 0.0
C1512 C 0.62874 0.30345 0.51287 0.0
C1513 C 0.61946 0.28429 0.52161 0.0
C1514 C 0.59706 0.28017 0.51791 0.0
C1515 C 0.58416 0.29519 0.50639 0.0
H1516 H 0.91165 0.36821 0.75184 0.0
H1517 H 0.95748 0.31448 0.75579 0.0
H1518 H 0.93615 0.39097 0.77306 0.0
H1519 H 0.98274 0.33774 0.77638 0.0
H1520 H 0.00884 0.37699 0.83494 0.0
H1521 H 0.98711 0.35387 0.81106 0.0
H1522 H 0.96901 0.41063 0.77277 0.0
H1523 H 0.99 0.43395 0.79747 0.0
C1524 C 0.92716 0.36133 0.75701 0.0
C1525 C 0.93262 0.33951 0.75218 0.0
C1526 C 0.94134 0.3745 0.76906 0.0
C1527 C 0.96156 0.36633 0.77636 0.0
C1528 C 0.96718 0.34452 0.77128 0.0
C1529 C 0.95277 0.33119 0.75943 0.0
C1530 C 0.00034 0.38454 0.82133 0.0
C1531 C 0.00097 0.40734 0.81818 0.0
C1532 C 0.98797 0.37122 0.80751 0.0
C1533 C 0.97615 0.38032 0.78999 0.0
C1534 C 0.97748 0.40308 0.78638 0.0
C1535 C 0.98961 0.41646 0.80044 0.0
H1536 H 0.81433 0.74758 0.04051 0.0
H1537 H 0.87136 0.76007 0.08045 0.0
H1538 H 0.83687 0.72645 0.01515 0.0
H1539 H 0.89356 0.73832 0.05588 0.0
H1540 H 0.93305 0.70897 0.00177 0.0
H1541 H 0.91024 0.73529 0.02135 0.0
H1542 H 0.8545 0.69222 0.01404 0.0
H1543 H 0.87695 0.6666 0.99374 0.0
C1544 C 0.83165 0.7458 0.04387 0.0
C1545 C 0.84102 0.7554 0.06252 0.0
C1546 C 0.84457 0.73362 0.02941 0.0
C1547 C 0.86707 0.73056 0.03347 0.0
C1548 C 0.87643 0.7406 0.05193 0.0
C1549 C 0.86361 0.75297 0.06618 0.0
C1550 C 0.91587 0.70529 0.00419 0.0
C1551 C 0.90685 0.68567 0.99633 0.0
C1552 C 0.9028 0.7203 0.0155 0.0
C1553 C 0.88051 0.71585 0.01945 0.0
C1554 C 0.87145 0.69644 0.01105 0.0
C1555 C 0.88442 0.68161 0.99953 0.0
H1556 H 0.54173 0.68518 0.25349 0.0
H1557 H 0.58286 0.629 0.24114 0.0
H1558 H 0.51655 0.66206 0.2742 0.0
H1559 H 0.5585 0.6062 0.26259 0.0
H1560 H 0.50409 0.56555 0.29068 0.0
H1561 H 0.52456 0.58865 0.26528 0.0
H1562 H 0.51458 0.64424 0.308 0.0
H1563 H 0.49338 0.62149 0.3326 0.0
C1564 C 0.5454 0.66792 0.25525 0.0
C1565 C 0.5643 0.65895 0.24575 0.0
C1566 C 0.53105 0.65465 0.26721 0.0
C1567 C 0.53548 0.6322 0.27023 0.0
C1568 C 0.55425 0.62326 0.26035 0.0
C1569 C 0.56837 0.63642 0.24815 0.0
C1570 C 0.50616 0.58275 0.29448 0.0
C1571 C 0.49717 0.59166 0.31365 0.0
C1572 C 0.51799 0.596 0.28 0.0
C1573 C 0.52136 0.61838 0.28456 0.0
C1574 C 0.51204 0.62725 0.30364 0.0
C1575 C 0.49998 0.61411 0.31789 0.0
H1576 H 0.23055 0.44645 0.18177 0.0
H1577 H 0.2724 0.43004 0.12712 0.0
H1578 H 0.20916 0.47038 0.15809 0.0
H1579 H 0.25142 0.45441 0.10363 0.0
H1580 H 0.19072 0.47525 0.06367 0.0
H1581 H 0.21577 0.45462 0.08693 0.0
H1582 H 0.20944 0.50379 0.13743 0.0
H1583 H 0.18398 0.52403 0.11449 0.0
C1584 C 0.23541 0.44825 0.16481 0.0
C1585 C 0.25302 0.43621 0.15629 0.0
C1586 C 0.22321 0.46203 0.15123 0.0
C1587 C 0.22848 0.46418 0.1289 0.0
C1588 C 0.24666 0.45279 0.12063 0.0
C1589 C 0.25876 0.43893 0.13415 0.0
C1590 C 0.19485 0.48173 0.07965 0.0
C1591 C 0.18521 0.50113 0.08732 0.0
C1592 C 0.20928 0.46998 0.09296 0.0
C1593 C 0.21449 0.47749 0.11413 0.0
C1594 C 0.20545 0.49733 0.12141 0.0
C1595 C 0.19094 0.50898 0.10819 0.0
H1596 H 0.65854 0.99924 0.88378 0.0
H1597 H 0.70604 0.00059 0.93616 0.0
H1598 H 0.68217 0.02179 0.86144 0.0
H1599 H 0.73043 0.02266 0.91324 0.0
H1600 H 0.75631 0.08209 0.8747 0.0
H1601 H 0.73464 0.05809 0.89793 0.0
H1602 H 0.71453 0.02128 0.84089 0.0
H1603 H 0.73543 0.04599 0.81757 0.0
C1604 C 0.67422 0.00415 0.89045 0.0
C1605 C 0.68046 0.99806 0.91174 0.0
C1606 C 0.68789 0.01699 0.87752 0.0
C1607 C 0.70838 0.02389 0.88536 0.0
C1608 C 0.71467 0.01782 0.90672 0.0
C1609 C 0.70077 0.00513 0.91985 0.0
C1610 C 0.74731 0.06882 0.86713 0.0
C1611 C 0.74739 0.06604 0.84427 0.0
C1612 C 0.73499 0.05494 0.88049 0.0
C1613 C 0.72268 0.03778 0.87134 0.0
C1614 C 0.72338 0.03462 0.84849 0.0
C1615 C 0.73545 0.04871 0.8351 0.0
H1616 H 0.75276 0.95833 0.31762 0.0
H1617 H 0.74661 0.91534 0.37347 0.0
H1618 H 0.77238 0.98479 0.34026 0.0
H1619 H 0.76696 0.9411 0.39574 0.0
H1620 H 0.79227 0.99664 0.4362 0.0
H1621 H 0.76725 0.97511 0.41367 0.0
H1622 H 0.80687 0.98901 0.35665 0.0
H1623 H 0.83106 0.0112 0.37886 0.0
C1624 C 0.75567 0.95451 0.3347 0.0
C1625 C 0.74823 0.93473 0.34372 0.0
C1626 C 0.76698 0.96962 0.34768 0.0
C1627 C 0.77136 0.9651 0.36988 0.0
C1628 C 0.76358 0.94541 0.37888 0.0
C1629 C 0.75204 0.93049 0.36602 0.0
C1630 C 0.79544 0.99525 0.41881 0.0
C1631 C 0.81369 0.00552 0.40936 0.0
C1632 C 0.78119 0.98281 0.40589 0.0
C1633 C 0.78508 0.98014 0.38331 0.0
C1634 C 0.80307 0.99093 0.37386 0.0
C1635 C 0.8171 0.00357 0.38668 0.0
H1636 H 0.27415 0.55509 0.68339 0.0
H1637 H 0.22889 0.56873 0.63076 0.0
H1638 H 0.29425 0.5302 0.65958 0.0
H1639 H 0.24852 0.54333 0.60718 0.0
H1640 H 0.3067 0.52095 0.56443 0.0
H1641 H 0.28264 0.54222 0.58812 0.0
H1642 H 0.29351 0.49605 0.64066 0.0
H1643 H 0.31808 0.47526 0.61724 0.0
C1644 C 0.26828 0.55248 0.66687 0.0
C1645 C 0.25008 0.56402 0.65891 0.0
C1646 C 0.27972 0.53812 0.65322 0.0
C1647 C 0.27309 0.53486 0.63138 0.0
C1648 C 0.25434 0.54578 0.62375 0.0
C1649 C 0.24302 0.56025 0.63732 0.0
C1650 C 0.30374 0.51523 0.58096 0.0
C1651 C 0.31445 0.49658 0.58903 0.0
C1652 C 0.28987 0.52736 0.59453 0.0
C1653 C 0.28628 0.52095 0.61639 0.0
C1654 C 0.29627 0.50172 0.62409 0.0
C1655 C 0.31026 0.48973 0.6106 0.0
H1656 H 0.28394 0.40376 0.53602 0.0
H1657 H 0.33292 0.38278 0.48955 0.0
H1658 H 0.25508 0.39155 0.51105 0.0
H1659 H 0.3043 0.37016 0.46498 0.0
H1660 H 0.25304 0.37503 0.4141 0.0
H1661 H 0.27818 0.3885 0.44187 0.0
H1662 H 0.23742 0.36054 0.49248 0.0
H1663 H 0.21184 0.34753 0.46453 0.0
C1664 C 0.28855 0.39598 0.52077 0.0
C1665 C 0.3107 0.39437 0.51468 0.0
C1666 C 0.27202 0.3891 0.50642 0.0
C1667 C 0.27737 0.38042 0.48577 0.0
C1668 C 0.29957 0.37744 0.48044 0.0
C1669 C 0.31601 0.38441 0.49465 0.0
C1670 C 0.24914 0.37226 0.43119 0.0
C1671 C 0.23051 0.36018 0.43713 0.0
C1672 C 0.26371 0.3797 0.44711 0.0
C1673 C 0.26016 0.37503 0.46937 0.0
C1674 C 0.24068 0.36434 0.47547 0.0
C1675 C 0.22594 0.35701 0.45947 0.0
H1676 H 0.90634 0.96009 0.71729 0.0
H1677 H 0.87614 0.99776 0.66566 0.0
H1678 H 0.88832 0.98334 0.74471 0.0
H1679 H 0.85827 0.02075 0.69278 0.0
H1680 H 0.81568 0.0487 0.74359 0.0
H1681 H 0.83019 0.01879 0.72202 0.0
H1682 H 0.89204 0.02415 0.7558 0.0
H1683 H 0.87725 0.05437 0.77798 0.0
C1684 C 0.89537 0.9729 0.71183 0.0
C1685 C 0.89245 0.97702 0.68936 0.0
C1686 C 0.88533 0.98636 0.7275 0.0
C1687 C 0.87194 0.00387 0.72089 0.0
C1688 C 0.86829 0.00725 0.69841 0.0
C1689 C 0.8785 0.99407 0.68286 0.0
C1690 C 0.83234 0.04345 0.74668 0.0
C1691 C 0.8455 0.05424 0.7622 0.0
C1692 C 0.84061 0.02625 0.73428 0.0
C1693 C 0.86233 0.01937 0.73695 0.0
C1694 C 0.87518 0.02911 0.75345 0.0
C1695 C 0.86679 0.04644 0.76606 0.0
H1696 H 0.24902 0.62929 0.91231 0.0
H1697 H 0.28985 0.65245 0.96518 0.0
H1698 H 0.22457 0.61225 0.93846 0.0
H1699 H 0.26533 0.63482 0.99171 0.0
H1700 H 0.19626 0.62746 0.02766 0.0
H1701 H 0.22701 0.64074 0.00525 0.0
H1702 H 0.22193 0.58312 0.96454 0.0
H1703 H 0.19122 0.57051 0.98602 0.0
C1704 C 0.25309 0.63021 0.92955 0.0
C1705 C 0.2714 0.64212 0.93667 0.0
C1706 C 0.23907 0.62041 0.9446 0.0
C1707 C 0.24296 0.6222 0.96722 0.0
C1708 C 0.26181 0.63332 0.97439 0.0
C1709 C 0.27601 0.64311 0.95921 0.0
C1710 C 0.2019 0.61767 0.014 0.0
C1711 C 0.19098 0.59826 0.00828 0.0
C1712 C 0.21957 0.62514 0.00127 0.0
C1713 C 0.22666 0.61314 0.98287 0.0
C1714 C 0.21655 0.59306 0.97821 0.0
C1715 C 0.19888 0.58583 0.99059 0.0
H1716 H 0.62652 0.02405 0.1962 0.0
H1717 H 0.56469 0.99028 0.20297 0.0
H1718 H 0.64131 0.00247 0.22679 0.0
H1719 H 0.5793 0.96915 0.23322 0.0
H1720 H 0.62621 0.91305 0.25444 0.0
H1721 H 0.60773 0.93972 0.23135 0.0
H1722 H 0.63741 0.9924 0.26801 0.0
H1723 H 0.65594 0.96545 0.29141 0.0
C1724 C 0.616 0.01239 0.20444 0.0
C1725 C 0.59463 0.00854 0.19686 0.0
C1726 C 0.6244 0.00012 0.22197 0.0
C1727 C 0.6115 0.98392 0.23214 0.0
C1728 C 0.58973 0.98122 0.22545 0.0
C1729 C 0.5814 0.99335 0.20806 0.0
C1730 C 0.62833 0.93031 0.25796 0.0
C1731 C 0.64232 0.93718 0.27482 0.0
C1732 C 0.61778 0.9456 0.24473 0.0
C1733 C 0.62119 0.96815 0.24786 0.0
C1734 C 0.6346 0.97511 0.26521 0.0
C1735 C 0.64493 0.95972 0.27874 0.0
H1736 H 0.75829 0.13051 0.58838 0.0
H1737 H 0.71393 0.15281 0.53808 0.0
H1738 H 0.78317 0.11683 0.56048 0.0
H1739 H 0.73927 0.13984 0.50998 0.0
H1740 H 0.83563 0.11928 0.51011 0.0
H1741 H 0.808 0.13275 0.53538 0.0
H1742 H 0.75704 0.10975 0.49199 0.0
H1743 H 0.78488 0.09699 0.46626 0.0
C1744 C 0.75371 0.13219 0.57132 0.0
C1745 C 0.73416 0.14273 0.56545 0.0
C1746 C 0.76813 0.12465 0.55528 0.0
C1747 C 0.76356 0.12775 0.53291 0.0
C1748 C 0.74336 0.13716 0.52702 0.0
C1749 C 0.72876 0.1445 0.54314 0.0
C1750 C 0.81853 0.11754 0.50574 0.0
C1751 C 0.81245 0.10708 0.4862 0.0
C1752 C 0.80264 0.12496 0.52039 0.0
C1753 C 0.78023 0.12182 0.51606 0.0
C1754 C 0.77412 0.11246 0.4959 0.0
C1755 C 0.79009 0.10523 0.48107 0.0
H1756 H 0.13837 0.58736 0.76053 0.0
H1757 H 0.15485 0.53478 0.71619 0.0
H1758 H 0.12035 0.56145 0.78469 0.0
H1759 H 0.13646 0.5086 0.74057 0.0
H1760 H 0.12623 0.47009 0.80833 0.0
H1761 H 0.1423 0.49307 0.77933 0.0
H1762 H 0.08782 0.53777 0.78477 0.0
H1763 H 0.07211 0.51535 0.81335 0.0
C1764 C 0.1378 0.57028 0.75574 0.0
C1765 C 0.14792 0.56316 0.73637 0.0
C1766 C 0.12745 0.5554 0.7696 0.0
C1767 C 0.12699 0.53295 0.76454 0.0
C1768 C 0.1367 0.52579 0.74495 0.0
C1769 C 0.14695 0.5408 0.73088 0.0
C1770 C 0.11771 0.48475 0.80316 0.0
C1771 C 0.09824 0.49119 0.81358 0.0
C1772 C 0.1268 0.49782 0.78651 0.0
C1773 C 0.11647 0.51742 0.78005 0.0
C1774 C 0.09645 0.52308 0.78973 0.0
C1775 C 0.0875 0.5102 0.80623 0.0
H1776 H 0.71874 0.90527 0.95821 0.0
H1777 H 0.67001 0.86947 0.99489 0.0
H1778 H 0.74691 0.89339 0.98422 0.0
H1779 H 0.698 0.85753 0.02055 0.0
H1780 H 0.74144 0.86809 0.07824 0.0
H1781 H 0.71774 0.87959 0.04844 0.0
H1782 H 0.76731 0.86118 0.00154 0.0
H1783 H 0.79132 0.84968 0.03159 0.0
C1784 C 0.71418 0.89425 0.97134 0.0
C1785 C 0.69213 0.88842 0.97462 0.0
C1786 C 0.73028 0.8876 0.98631 0.0
C1787 C 0.72453 0.87506 0.00474 0.0
C1788 C 0.70283 0.86772 0.00685 0.0
C1789 C 0.68683 0.87434 0.992 0.0
C1790 C 0.74751 0.86686 0.06162 0.0
C1791 C 0.76818 0.85777 0.05729 0.0
C1792 C 0.73383 0.87324 0.04452 0.0
C1793 C 0.74043 0.87069 0.02263 0.0
C1794 C 0.76174 0.86317 0.01825 0.0
C1795 C 0.77552 0.85673 0.03547 0.0
H1796 H 0.34632 0.46554 0.21182 0.0
H1797 H 0.36764 0.41463 0.25598 0.0
H1798 H 0.3604 0.49328 0.23701 0.0
H1799 H 0.38236 0.44212 0.28069 0.0
H1800 H 0.40555 0.53535 0.28235 0.0
H1801 H 0.39154 0.5102 0.25453 0.0
H1802 H 0.36708 0.46771 0.30558 0.0
H1803 H 0.38172 0.49237 0.33316 0.0
C1804 C 0.35461 0.46026 0.22657 0.0
C1805 C 0.35579 0.43791 0.23198 0.0
C1806 C 0.36259 0.47617 0.24108 0.0
C1807 C 0.37204 0.46999 0.26117 0.0
C1808 C 0.37453 0.44754 0.26574 0.0
C1809 C 0.36637 0.43173 0.25142 0.0
C1810 C 0.39673 0.52088 0.28757 0.0
C1811 C 0.39481 0.51577 0.30994 0.0
C1812 C 0.38879 0.50639 0.27163 0.0
C1813 C 0.37865 0.48662 0.27778 0.0
C1814 C 0.37544 0.48239 0.3002 0.0
C1815 C 0.38355 0.49668 0.31605 0.0
H1816 H 0.53827 0.28406 0.40448 0.0
H1817 H 0.4976 0.33718 0.38156 0.0
H1818 H 0.51402 0.25772 0.38616 0.0
H1819 H 0.47355 0.31116 0.36363 0.0
H1820 H 0.44311 0.26383 0.31897 0.0
H1821 H 0.47323 0.28513 0.33333 0.0
H1822 H 0.47454 0.24461 0.39126 0.0
H1823 H 0.44422 0.22256 0.37644 0.0
C1824 C 0.5245 0.29013 0.39509 0.0
C1825 C 0.51989 0.31268 0.3943 0.0
C1826 C 0.51049 0.27505 0.38489 0.0
C1827 C 0.49187 0.28235 0.37349 0.0
C1828 C 0.48788 0.30498 0.37204 0.0
C1829 C 0.50167 0.31992 0.38233 0.0
C1830 C 0.44981 0.25926 0.33474 0.0
C1831 C 0.44093 0.24178 0.34683 0.0
C1832 C 0.46714 0.27151 0.34294 0.0
C1833 C 0.476 0.26682 0.36358 0.0
C1834 C 0.46804 0.24857 0.37525 0.0
C1835 C 0.45064 0.23605 0.36687 0.0
H1836 H 0.02979 0.19476 0.62907 0.0
H1837 H 0.99277 0.1977 0.56889 0.0
H1838 H 0.00781 0.22524 0.64369 0.0
H1839 H 0.97175 0.22811 0.58293 0.0
H1840 H 0.91678 0.25158 0.628 0.0
H1841 H 0.94353 0.228 0.61062 0.0
H1842 H 0.99596 0.26497 0.64043 0.0
H1843 H 0.9688 0.28868 0.65828 0.0
C1844 C 0.01733 0.20216 0.61886 0.0
C1845 C 0.01269 0.19352 0.59806 0.0
C1846 C 0.00485 0.21965 0.62713 0.0
C1847 C 0.98777 0.22881 0.61457 0.0
C1848 C 0.98437 0.22109 0.59323 0.0
C1849 C 0.9965 0.20362 0.58517 0.0
C1850 C 0.93401 0.25503 0.63048 0.0
C1851 C 0.94068 0.27206 0.64438 0.0
C1852 C 0.94939 0.24151 0.6205 0.0
C1853 C 0.97192 0.2446 0.62415 0.0
C1854 C 0.97872 0.26213 0.63744 0.0
C1855 C 0.9632 0.27586 0.64737 0.0
H1856 H 0.95936 0.71135 0.90013 0.0
H1857 H 0.00287 0.65913 0.88069 0.0
H1858 H 0.98358 0.73803 0.88232 0.0
H1859 H 0.02701 0.68548 0.86348 0.0
H1860 H 0.05956 0.73285 0.82038 0.0
H1861 H 0.0297 0.71036 0.83332 0.0
H1862 H 0.02107 0.75345 0.88874 0.0
H1863 H 0.05102 0.77675 0.87515 0.0
C1864 C 0.97376 0.70552 0.89157 0.0
C1865 C 0.97916 0.68312 0.89167 0.0
C1866 C 0.98778 0.72082 0.88169 0.0
C1867 C 0.00727 0.71392 0.87155 0.0
C1868 C 0.01202 0.6914 0.87087 0.0
C1869 C 0.99816 0.67623 0.88076 0.0
C1870 C 0.05136 0.73766 0.83534 0.0
C1871 C 0.05804 0.75632 0.84706 0.0
C1872 C 0.03416 0.72472 0.84274 0.0
C1873 C 0.02326 0.72982 0.86229 0.0
C1874 C 0.02914 0.7491 0.87357 0.0
C1875 C 0.04635 0.76235 0.86592 0.0
H1876 H 0.58329 0.76052 0.13206 0.0
H1877 H 0.53201 0.71838 0.1564 0.0
H1878 H 0.55599 0.78601 0.11835 0.0
H1879 H 0.5045 0.74438 0.14337 0.0
H1880 H 0.46192 0.79017 0.09932 0.0
H1881 H 0.48671 0.76189 0.11294 0.0
H1882 H 0.53197 0.81205 0.13403 0.0
H1883 H 0.50763 0.84009 0.1197 0.0
C1884 C 0.56612 0.75658 0.13421 0.0
C1885 C 0.5598 0.73746 0.1453 0.0
C1886 C 0.55044 0.77135 0.12665 0.0
C1887 C 0.528 0.76759 0.13028 0.0
C1888 C 0.52161 0.74783 0.1403 0.0
C1889 C 0.53737 0.73286 0.14767 0.0
C1890 C 0.47693 0.79513 0.10736 0.0
C1891 C 0.48288 0.81735 0.10838 0.0
C1892 C 0.49121 0.7789 0.11507 0.0
C1893 C 0.51162 0.78462 0.1241 0.0
C1894 C 0.51674 0.80697 0.12651 0.0
C1895 C 0.50264 0.8231 0.1186 0.0
H1896 H 0.22156 0.36242 0.33339 0.0
H1897 H 0.18314 0.30773 0.30992 0.0
H1898 H 0.22871 0.37337 0.29559 0.0
H1899 H 0.19077 0.31854 0.27229 0.0
H1900 H 0.2552 0.32597 0.22461 0.0
H1901 H 0.23146 0.31749 0.25564 0.0
H1902 H 0.2095 0.38464 0.25715 0.0
H1903 H 0.23264 0.39282 0.22538 0.0
C1904 C 0.21424 0.35303 0.32025 0.0
C1905 C 0.20204 0.33403 0.32473 0.0
C1906 C 0.21819 0.3594 0.29862 0.0
C1907 C 0.21024 0.34676 0.28112 0.0
C1908 C 0.197 0.32855 0.28554 0.0
C1909 C 0.19273 0.32238 0.30713 0.0
C1910 C 0.24422 0.33851 0.23071 0.0
C1911 C 0.24541 0.35992 0.22256 0.0
C1912 C 0.23079 0.33374 0.24856 0.0
C1913 C 0.21885 0.3505 0.25883 0.0
C1914 C 0.21854 0.37148 0.24944 0.0
C1915 C 0.23154 0.37608 0.23115 0.0
H1916 H 0.85766 0.98465 0.47917 0.0
H1917 H 0.9245 0.0072 0.47719 0.0
H1918 H 0.8665 0.96117 0.51053 0.0
H1919 H 0.93361 0.98314 0.50779 0.0
H1920 H 0.8903 0.97158 0.58641 0.0
H1921 H 0.87851 0.97941 0.549 0.0
H1922 H 0.9331 0.9424 0.5238 0.0
H1923 H 0.94476 0.93411 0.56103 0.0
C1924 C 0.87451 0.9835 0.48459 0.0
C1925 C 0.89051 0.99743 0.47578 0.0
C1926 C 0.87949 0.97031 0.50265 0.0
C1927 C 0.90068 0.97048 0.51157 0.0
C1928 C 0.91721 0.98257 0.50108 0.0
C1929 C 0.91208 0.99619 0.48348 0.0
C1930 C 0.89946 0.96461 0.57293 0.0
C1931 C 0.91864 0.95249 0.57676 0.0
C1932 C 0.89262 0.96896 0.55153 0.0
C1933 C 0.90495 0.96147 0.53361 0.0
C1934 C 0.92334 0.94829 0.53738 0.0
C1935 C 0.92999 0.94364 0.55874 0.0
H1936 H 0.27182 0.60988 0.72764 0.0
H1937 H 0.24756 0.67609 0.72525 0.0
H1938 H 0.29474 0.61942 0.75918 0.0
H1939 H 0.27101 0.68592 0.75607 0.0
H1940 H 0.31791 0.69819 0.81106 0.0
H1941 H 0.31089 0.68681 0.77345 0.0
H1942 H 0.27552 0.63038 0.79703 0.0
H1943 H 0.2821 0.64186 0.83476 0.0
C1944 C 0.27251 0.62679 0.73298 0.0
C1945 C 0.25819 0.64236 0.72403 0.0
C1946 C 0.28538 0.63217 0.75115 0.0
C1947 C 0.28448 0.65334 0.76008 0.0
C1948 C 0.27215 0.66953 0.74937 0.0
C1949 C 0.25887 0.664 0.73163 0.0
C1950 C 0.30903 0.68309 0.80832 0.0
C1951 C 0.30029 0.67107 0.82596 0.0
C1952 C 0.30509 0.6766 0.78675 0.0
C1953 C 0.29276 0.65773 0.7824 0.0
C1954 C 0.28535 0.64486 0.79998 0.0
C1955 C 0.28897 0.65153 0.82157 0.0
H1956 H 0.57908 0.06612 0.07232 0.0
H1957 H 0.60223 0.00459 0.09876 0.0
H1958 H 0.58949 0.05416 0.03558 0.0
H1959 H 0.61233 0.99283 0.06198 0.0
H1960 H 0.57984 0.9696 0.99732 0.0
H1961 H 0.57571 0.99033 0.03111 0.0
H1962 H 0.62842 0.03313 0.0117 0.0
H1963 H 0.63289 0.01199 0.97759 0.0
C1964 C 0.58696 0.05034 0.07046 0.0
C1965 C 0.58925 0.03604 0.08846 0.0
C1966 C 0.59296 0.04361 0.04941 0.0
C1967 C 0.60136 0.02254 0.04612 0.0
C1968 C 0.60572 0.00914 0.06427 0.0
C1969 C 0.59993 0.0159 0.0853 0.0
C1970 C 0.59007 0.98388 -0.00013 0.0
C1971 C 0.60666 0.98925 0.98489 0.0
C1972 C 0.58785 0.99556 0.01927 0.0
C1973 C 0.60204 0.01294 0.02401 0.0
C1974 C 0.6174 0.01967 0.00828 0.0
C1975 C 0.61973 0.00781 0.98872 0.0
H1976 H 0.685 0.19892 0.69078 0.0
H1977 H 0.72103 0.14174 0.6697 0.0
H1978 H 0.69258 0.18966 0.72888 0.0
H1979 H 0.72797 0.13229 0.70802 0.0
H1980 H 0.72643 0.1156 0.78018 0.0
H1981 H 0.7036 0.12543 0.74864 0.0
H1982 H 0.73742 0.18722 0.74355 0.0
H1983 H 0.76087 0.17691 0.77424 0.0
C1984 C 0.69399 0.18404 0.69422 0.0
C1985 C 0.70259 0.17114 0.67712 0.0
C1986 C 0.69823 0.17877 0.71607 0.0
C1987 C 0.7106 0.1602 0.72126 0.0
C1988 C 0.71803 0.14651 0.70434 0.0
C1989 C 0.7142 0.15201 0.68243 0.0
C1990 C 0.72803 0.13181 0.77314 0.0
C1991 C 0.74528 0.14558 0.77958 0.0
C1992 C 0.71521 0.13728 0.75495 0.0
C1993 C 0.71899 0.15695 0.74368 0.0
C1994 C 0.73417 0.172 0.75209 0.0
C1995 C 0.74741 0.16624 0.76978 0.0
H1996 H 0.13281 0.47979 0.02919 0.0
H1997 H 0.07172 0.51369 0.019 0.0
H1998 H 0.12544 0.45703 0.99689 0.0
H1999 H 0.06422 0.49074 0.98718 0.0
H2000 H 0.06556 0.42737 0.93633 0.0
H2001 H 0.07458 0.43548 0.97445 0.0
H2002 H 0.1101 0.49287 0.9539 0.0
H2003 H 0.10111 0.48513 0.91574 0.0
C2004 C 0.11714 0.4813 0.02102 0.0
C2005 C 0.1028 0.49844 0.02649 0.0
C2006 C 0.11309 0.4685 0.00241 0.0
C2007 C 0.09442 0.47244 0.98963 0.0
C2008 C 0.0787 0.48748 0.99691 0.0
C2009 C 0.08287 0.50041 0.01522 0.0
C2010 C 0.07581 0.44143 0.93979 0.0
C2011 C 0.08233 0.45582 0.92291 0.0
C2012 C 0.08098 0.44593 0.96163 0.0
C2013 C 0.09306 0.46465 0.96689 0.0
C2014 C 0.10099 0.47814 0.95005 0.0
C2015 C 0.09577 0.47373 0.92823 0.0
H2016 H 0.74392 0.8261 0.27045 0.0
H2017 H 0.76621 0.89307 0.27058 0.0
H2018 H 0.7671 0.81836 0.23876 0.0
H2019 H 0.78873 0.88564 0.23812 0.0
H2020 H 0.81731 0.8099 0.18553 0.0
H2021 H 0.80881 0.82051 0.22302 0.0
H2022 H 0.7693 0.87391 0.19909 0.0
H2023 H 0.77726 0.86309 0.16138 0.0
C2024 C 0.75463 0.83884 0.26428 0.0
C2025 C 0.75368 0.86002 0.27302 0.0
C2026 C 0.76774 0.8345 0.2461 0.0
C2027 C 0.77955 0.85147 0.23603 0.0
C2028 C 0.77982 0.87232 0.24572 0.0
C2029 C 0.76718 0.87648 0.26436 0.0
C2030 C 0.80719 0.82421 0.18814 0.0
C2031 C 0.79769 0.83546 0.17039 0.0
C2032 C 0.80241 0.83026 0.20965 0.0
C2033 C 0.78847 0.84798 0.21384 0.0
C2034 C 0.78032 0.86031 0.19621 0.0
C2035 C 0.78477 0.85403 0.17465 0.0
H2036 H 0.42574 0.48994 0.52004 0.0
H2037 H 0.35987 0.5152 0.52156 0.0
H2038 H 0.43433 0.51397 0.48922 0.0
H2039 H 0.36813 0.53858 0.48994 0.0
H2040 H 0.38984 0.52738 0.41263 0.0
H2041 H 0.37894 0.51909 0.45025 0.0
H2042 H 0.43362 0.55654 0.4746 0.0
H2043 H 0.44433 0.56539 0.43718 0.0
C2044 C 0.41348 0.50147 0.51444 0.0
C2045 C 0.3923 0.50107 0.52325 0.0
C2046 C 0.4183 0.51508 0.49674 0.0
C2047 C 0.40182 0.52796 0.48722 0.0
C2048 C 0.38109 0.52884 0.49712 0.0
C2049 C 0.37647 0.5157 0.51531 0.0
C2050 C 0.39918 0.53438 0.42598 0.0
C2051 C 0.41809 0.54684 0.42185 0.0
C2052 C 0.39285 0.52975 0.4475 0.0
C2053 C 0.40548 0.53724 0.4652 0.0
C2054 C 0.42361 0.5507 0.46117 0.0
C2055 C 0.42971 0.55568 0.43971 0.0
H2056 H 0.23195 0.23855 0.39342 0.0
H2057 H 0.23227 0.25928 0.32596 0.0
H2058 H 0.26473 0.21623 0.3867 0.0
H2059 H 0.26418 0.23612 0.31894 0.0
H2060 H 0.31636 0.18276 0.31388 0.0
H2061 H 0.27921 0.19133 0.32555 0.0
H2062 H 0.30429 0.23918 0.37094 0.0
H2063 H 0.34167 0.23129 0.35886 0.0
C2064 C 0.23827 0.23724 0.37689 0.0
C2065 C 0.2296 0.25031 0.36009 0.0
C2066 C 0.25707 0.22471 0.37314 0.0
C2067 C 0.26681 0.22456 0.35234 0.0
C2068 C 0.25675 0.23586 0.33505 0.0
C2069 C 0.23844 0.24892 0.33898 0.0
C2070 C 0.31414 0.19475 0.32674 0.0
C2071 C 0.33205 0.20662 0.33518 0.0
C2072 C 0.29282 0.19954 0.33342 0.0
C2073 C 0.28905 0.21581 0.3491 0.0
C2074 C 0.30694 0.22637 0.35896 0.0
C2075 C 0.32829 0.22191 0.35198 0.0
H2076 H 0.99312 0.98258 0.57696 0.0
H2077 H 0.01446 0.98377 0.64422 0.0
H2078 H 0.01553 0.01489 0.56922 0.0
H2079 H 0.03601 0.01692 0.63677 0.0
H2080 H 0.0209 0.09333 0.60872 0.0
H2081 H 0.01294 0.05598 0.62097 0.0
H2082 H 0.05987 0.03057 0.5748 0.0
H2083 H 0.06848 0.06765 0.56296 0.0
C2084 C 0.00345 0.98919 0.58978 0.0
C2085 C 0.00247 0.98063 0.61104 0.0
C2086 C 0.01607 0.00773 0.58545 0.0
C2087 C 0.02732 0.01831 0.60247 0.0
C2088 C 0.02754 0.00889 0.62342 0.0
C2089 C 0.01545 0.98988 0.62759 0.0
C2090 C 0.03003 0.07987 0.60166 0.0
C2091 C 0.04512 0.08353 0.58466 0.0
C2092 C 0.02554 0.05854 0.60874 0.0
C2093 C 0.03585 0.04058 0.59875 0.0
C2094 C 0.05183 0.04424 0.58276 0.0
C2095 C 0.05665 0.06552 0.57599 0.0
H2096 H 0.26876 0.76556 0.89532 0.0
H2097 H 0.27092 0.74615 0.82751 0.0
H2098 H 0.23529 0.78666 0.88819 0.0
H2099 H 0.2383 0.76815 0.82011 0.0
H2100 H 0.18328 0.81831 0.81462 0.0
H2101 H 0.22068 0.81131 0.82648 0.0
H2102 H 0.19735 0.76263 0.87196 0.0
H2103 H 0.15972 0.76898 0.85969 0.0
C2104 C 0.26284 0.76697 0.87865 0.0
C2105 C 0.27238 0.75452 0.86186 0.0
C2106 C 0.24363 0.77879 0.87466 0.0
C2107 C 0.23434 0.77888 0.85366 0.0
C2108 C 0.24533 0.76843 0.83639 0.0
C2109 C 0.26407 0.75606 0.84054 0.0
C2110 C 0.18592 0.80643 0.82751 0.0
C2111 C 0.16845 0.79392 0.83596 0.0
C2112 C 0.20738 0.80254 0.8343 0.0
C2113 C 0.21174 0.78655 0.8501 0.0
C2114 C 0.19424 0.77527 0.85989 0.0
C2115 C 0.17275 0.77883 0.8528 0.0
H2116 H 0.47761 0.03138 0.13008 0.0
H2117 H 0.51494 0.02258 0.07085 0.0
H2118 H 0.45382 0.00083 0.11959 0.0
H2119 H 0.49056 0.99286 0.05983 0.0
H2120 H 0.46914 0.9211 0.1068 0.0
H2121 H 0.47682 0.95949 0.11536 0.0
H2122 H 0.44566 0.97945 0.05526 0.0
H2123 H 0.43733 0.94127 0.04685 0.0
C2124 C 0.4797 0.02399 0.11409 0.0
C2125 C 0.49797 0.02927 0.10119 0.0
C2126 C 0.46629 0.00636 0.10825 0.0
C2127 C 0.47058 0.9945 0.08905 0.0
C2128 C 0.4869 0.00189 0.07466 0.0
C2129 C 0.50068 0.01903 0.08082 0.0
C2130 C 0.46338 0.93369 0.09571 0.0
C2131 C 0.45273 0.9281 0.07611 0.0
C2132 C 0.46762 0.95563 0.10069 0.0
C2133 C 0.4616 0.97229 0.08601 0.0
C2134 C 0.45018 0.96685 0.0669 0.0
C2135 C 0.44551 0.94498 0.06213 0.0
H2136 H 0.72958 0.26574 0.60699 0.0
H2137 H 0.72829 0.24578 0.67466 0.0
H2138 H 0.76113 0.28945 0.61457 0.0
H2139 H 0.75904 0.2701 0.68251 0.0
H2140 H 0.83729 0.27953 0.63899 0.0
H2141 H 0.79988 0.2717 0.62719 0.0
H2142 H 0.7747 0.31106 0.68012 0.0
H2143 H 0.81191 0.31937 0.69176 0.0
C2144 C 0.73523 0.26749 0.62372 0.0
C2145 C 0.72652 0.25424 0.64034 0.0
C2146 C 0.75337 0.28082 0.62798 0.0
C2147 C 0.76248 0.28149 0.64908 0.0
C2148 C 0.75216 0.27004 0.66616 0.0
C2149 C 0.7345 0.25626 0.66175 0.0
C2150 C 0.82383 0.28708 0.64772 0.0
C2151 C 0.82765 0.29974 0.66656 0.0
C2152 C 0.80242 0.2827 0.64087 0.0
C2153 C 0.7845 0.29076 0.65284 0.0
C2154 C 0.78828 0.30468 0.67067 0.0
C2155 C 0.80964 0.30933 0.67732 0.0
H2156 H 0.00698 0.47338 0.93114 0.0
H2157 H 0.97719 0.47143 0.86722 0.0
H2158 H 0.98349 0.50405 0.94127 0.0
H2159 H 0.95431 0.50293 0.87697 0.0
H2160 H 0.93466 0.55879 0.95292 0.0
H2161 H 0.94159 0.52073 0.94302 0.0
H2162 H 0.97659 0.54199 0.88551 0.0
H2163 H 0.9702 0.58022 0.89555 0.0
C2164 C 0.99444 0.47869 0.91975 0.0
C2165 C 0.99373 0.47006 0.89848 0.0
C2166 C 0.98118 0.49639 0.92543 0.0
C2167 C 0.9674 0.50598 0.90974 0.0
C2168 C 0.96486 0.49577 0.8893 0.0
C2169 C 0.97769 0.47758 0.88385 0.0
C2170 C 0.94347 0.55545 0.93791 0.0
C2171 C 0.9521 0.57262 0.92512 0.0
C2172 C 0.94732 0.53362 0.93226 0.0
C2173 C 0.95939 0.52851 0.91345 0.0
C2174 C 0.96687 0.54556 0.89992 0.0
C2175 C 0.96339 0.56743 0.90577 0.0
H2176 H 0.68746 0.68612 0.19204 0.0
H2177 H 0.66197 0.7239 0.13785 0.0
H2178 H 0.72468 0.6952 0.18085 0.0
H2179 H 0.69939 0.73243 0.12645 0.0
H2180 H 0.77016 0.76148 0.17244 0.0
H2181 H 0.73935 0.73755 0.18138 0.0
H2182 H 0.73883 0.71339 0.115 0.0
H2183 H 0.77044 0.73669 0.10638 0.0
C2184 C 0.68974 0.69581 0.17738 0.0
C2185 C 0.67169 0.70452 0.16598 0.0
C2186 C 0.71109 0.70095 0.17101 0.0
C2187 C 0.71481 0.71442 0.15281 0.0
C2188 C 0.69689 0.72177 0.14041 0.0
C2189 C 0.6755 0.717 0.14702 0.0
C2190 C 0.76426 0.75009 0.16019 0.0
C2191 C 0.77274 0.75056 0.13888 0.0
C2192 C 0.74657 0.73653 0.16521 0.0
C2193 C 0.73674 0.72377 0.14881 0.0
C2194 C 0.74626 0.72303 0.1279 0.0
C2195 C 0.76442 0.73613 0.12306 0.0
H2196 H 0.51737 0.52091 0.35836 0.0
H2197 H 0.49222 0.52181 0.42428 0.0
H2198 H 0.5411 0.48991 0.36785 0.0
H2199 H 0.51648 0.49155 0.43406 0.0
H2200 H 0.53196 0.41363 0.39059 0.0
H2201 H 0.52349 0.45092 0.37886 0.0
H2202 H 0.55768 0.4766 0.43507 0.0
H2203 H 0.56662 0.43944 0.44668 0.0
C2204 C 0.51794 0.5153 0.37518 0.0
C2205 C 0.50329 0.52376 0.39072 0.0
C2206 C 0.53129 0.49748 0.38053 0.0
C2207 C 0.53052 0.48838 0.40164 0.0
C2208 C 0.51754 0.49843 0.41774 0.0
C2209 C 0.50378 0.5158 0.41223 0.0
C2210 C 0.5382 0.42722 0.40013 0.0
C2211 C 0.54975 0.42353 0.41969 0.0
C2212 C 0.53348 0.44856 0.39333 0.0
C2213 C 0.53997 0.46655 0.40611 0.0
C2214 C 0.55258 0.46296 0.42495 0.0
C2215 C 0.55764 0.44165 0.43155 0.0
H2216 H 0.38291 0.22275 0.2275 0.0
H2217 H 0.32093 0.23071 0.26032 0.0
H2218 H 0.37437 0.2541 0.2039 0.0
H2219 H 0.31198 0.26127 0.23611 0.0
H2220 H 0.30485 0.3124 0.17917 0.0
H2221 H 0.31369 0.27435 0.18766 0.0
H2222 H 0.36498 0.29588 0.23102 0.0
H2223 H 0.35609 0.33404 0.22303 0.0
C2224 C 0.36685 0.23019 0.2286 0.0
C2225 C 0.3525 0.22437 0.24559 0.0
C2226 C 0.3621 0.24825 0.2153 0.0
C2227 C 0.34261 0.26 0.21839 0.0
C2228 C 0.32704 0.2523 0.2334 0.0
C2229 C 0.33205 0.23471 0.24708 0.0
C2230 C 0.31841 0.30912 0.1901 0.0
C2231 C 0.32965 0.32635 0.2006 0.0
C2232 C 0.32344 0.28731 0.19484 0.0
C2233 C 0.34017 0.28235 0.20968 0.0
C2234 C 0.35236 0.29941 0.2191 0.0
C2235 C 0.34713 0.32123 0.21465 0.0
H2236 H 0.82194 0.17831 0.82194 0.0
H2237 H 0.85253 0.15414 0.76278 0.0
H2238 H 0.83312 0.21551 0.81244 0.0
H2239 H 0.86373 0.19146 0.75363 0.0
H2240 H 0.82678 0.25924 0.73434 0.0
H2241 H 0.82078 0.22584 0.75551 0.0
H2242 H 0.88183 0.23613 0.7894 0.0
H2243 H 0.88777 0.26998 0.76829 0.0
C2244 C 0.83159 0.18076 0.80726 0.0
C2245 C 0.83593 0.16323 0.79286 0.0
C2246 C 0.83804 0.20207 0.80197 0.0
C2247 C 0.84919 0.20612 0.78239 0.0
C2248 C 0.85523 0.18852 0.76893 0.0
C2249 C 0.84877 0.1672 0.77417 0.0
C2250 C 0.83835 0.25496 0.74709 0.0
C2251 C 0.85755 0.26724 0.74997 0.0
C2252 C 0.83505 0.23581 0.75899 0.0
C2253 C 0.85095 0.22856 0.77383 0.0
C2254 C 0.86935 0.24164 0.77808 0.0
C2255 C 0.87256 0.26107 0.76628 0.0
H2256 H 0.98165 0.6467 0.0164 0.0
H2257 H 0.97861 0.57799 0.00063 0.0
H2258 H 0.01507 0.64032 0.03778 0.0
H2259 H 0.01118 0.57137 0.02294 0.0
H2260 H 0.09006 0.61121 0.02086 0.0
H2261 H 0.0524 0.62346 0.01488 0.0
H2262 H 0.0297 0.57892 0.06472 0.0
H2263 H 0.06717 0.56709 0.07136 0.0
C2264 C 0.98737 0.63006 0.0187 0.0
C2265 C 0.97762 0.61276 0.00714 0.0
C2266 C 0.00655 0.62647 0.03069 0.0
C2267 C 0.0156 0.6054 0.03185 0.0
C2268 C 0.00433 0.58773 0.02241 0.0
C2269 C 0.98562 0.59144 0.00985 0.0
C2270 C 0.07717 0.60454 0.03106 0.0
C2271 C 0.08166 0.58792 0.04634 0.0
C2272 C 0.05565 0.61163 0.0277 0.0
C2273 C 0.0383 0.60205 0.03938 0.0
C2274 C 0.04288 0.58656 0.05563 0.0
C2275 C 0.06438 0.57978 0.0593 0.0
H2276 H 0.64057 0.83538 0.28276 0.0
H2277 H 0.69742 0.80979 0.3163 0.0
H2278 H 0.62917 0.79808 0.27394 0.0
H2279 H 0.68613 0.77262 0.30702 0.0
H2280 H 0.60956 0.72797 0.26679 0.0
H2281 H 0.61893 0.75859 0.29106 0.0
H2282 H 0.68483 0.75844 0.26555 0.0
H2283 H 0.67515 0.72858 0.24077 0.0
C2284 C 0.65035 0.82184 0.28869 0.0
C2285 C 0.67004 0.82561 0.29999 0.0
C2286 C 0.64374 0.80048 0.28378 0.0
C2287 C 0.65682 0.78256 0.28984 0.0
C2288 C 0.67578 0.78621 0.30224 0.0
C2289 C 0.68221 0.80752 0.30749 0.0
C2290 C 0.62632 0.73379 0.26727 0.0
C2291 C 0.64177 0.72591 0.25222 0.0
C2292 C 0.63159 0.75141 0.28093 0.0
C2293 C 0.65255 0.76084 0.28007 0.0
C2294 C 0.66863 0.7513 0.26668 0.0
C2295 C 0.66318 0.73415 0.25262 0.0
H2296 H 0.43754 0.44128 0.56805 0.0
H2297 H 0.41404 0.38789 0.52789 0.0
H2298 H 0.47517 0.43061 0.56022 0.0
H2299 H 0.45187 0.377 0.52062 0.0
H2300 H 0.52239 0.42461 0.49474 0.0
H2301 H 0.49105 0.43256 0.51829 0.0
H2302 H 0.4909 0.36556 0.54075 0.0
H2303 H 0.52304 0.35794 0.51787 0.0
C2304 C 0.44032 0.42689 0.55809 0.0
C2305 C 0.42272 0.41561 0.54831 0.0
C2306 C 0.4619 0.42081 0.55369 0.0
C2307 C 0.46631 0.40302 0.53991 0.0
C2308 C 0.44881 0.39065 0.53154 0.0
C2309 C 0.42719 0.39696 0.53559 0.0
C2310 C 0.51647 0.41201 0.50574 0.0
C2311 C 0.52517 0.39081 0.50484 0.0
C2312 C 0.49847 0.41647 0.51907 0.0
C2313 C 0.48858 0.3996 0.53117 0.0
C2314 C 0.49837 0.37881 0.53162 0.0
C2315 C 0.51684 0.37454 0.51877 0.0
H2316 H 0.14503 0.66518 0.72327 0.0
H2317 H 0.1989 0.68839 0.68359 0.0
H2318 H 0.13442 0.70308 0.73057 0.0
H2319 H 0.18845 0.72614 0.69147 0.0
H2320 H 0.17817 0.77129 0.76037 0.0
H2321 H 0.18816 0.74076 0.73656 0.0
H2322 H 0.12437 0.74337 0.70641 0.0
H2323 H 0.11477 0.77476 0.72958 0.0
C2324 C 0.15428 0.67828 0.71569 0.0
C2325 C 0.17289 0.6737 0.70298 0.0
C2326 C 0.14809 0.69995 0.71973 0.0
C2327 C 0.16054 0.7174 0.71136 0.0
C2328 C 0.1785 0.71291 0.69786 0.0
C2329 C 0.18445 0.69126 0.69345 0.0
C2330 C 0.16687 0.76629 0.74763 0.0
C2331 C 0.14581 0.77539 0.74661 0.0
C2332 C 0.17248 0.74871 0.73417 0.0
C2333 C 0.1569 0.7397 0.71991 0.0
C2334 C 0.13663 0.75019 0.71727 0.0
C2335 C 0.13127 0.76828 0.73029 0.0
H2336 H 0.47966 0.92192 0.00117 0.0
H2337 H 0.47737 0.8535 0.984 0.0
H2338 H 0.51021 0.92733 0.97598 0.0
H2339 H 0.50875 0.85863 0.95941 0.0
H2340 H 0.56205 0.93302 0.92609 0.0
H2341 H 0.52461 0.92256 0.93477 0.0
H2342 H 0.54854 0.87029 0.97579 0.0
H2343 H 0.58621 0.8809 0.96754 0.0
C2344 C 0.48505 0.90831 0.99114 0.0
C2345 C 0.47611 0.88741 0.99416 0.0
C2346 C 0.50259 0.91132 0.97685 0.0
C2347 C 0.51183 0.89334 0.96588 0.0
C2348 C 0.50179 0.87273 0.96762 0.0
C2349 C 0.48376 0.86986 0.98146 0.0
C2350 C 0.55946 0.91893 0.93653 0.0
C2351 C 0.5772 0.90814 0.94658 0.0
C2352 C 0.53796 0.91294 0.94139 0.0
C2353 C 0.53377 0.89576 0.956 0.0
C2354 C 0.55139 0.88351 0.9643 0.0
C2355 C 0.57296 0.88967 0.95966 0.0
H2356 H 0.93807 0.05582 0.43302 0.0
H2357 H 0.91658 0.10949 0.47393 0.0
H2358 H 0.97611 0.06531 0.44056 0.0
H2359 H 0.95482 0.11917 0.48085 0.0
H2360 H 0.02199 0.07398 0.50962 0.0
H2361 H 0.9909 0.06486 0.48618 0.0
H2362 H 0.99537 0.12831 0.45553 0.0
H2363 H 0.0273 0.13702 0.47831 0.0
C2364 C 0.94138 0.07002 0.4431 0.0
C2365 C 0.9242 0.08178 0.45308 0.0
C2366 C 0.9632 0.07544 0.44729 0.0
C2367 C 0.96826 0.09306 0.46102 0.0
C2368 C 0.95123 0.10575 0.46984 0.0
C2369 C 0.92937 0.1001 0.46601 0.0
C2370 C 0.01725 0.08535 0.49684 0.0
C2371 C 0.02704 0.10609 0.49557 0.0
C2372 C 0.99936 0.08025 0.48361 0.0
C2373 C 0.99074 0.09602 0.46932 0.0
C2374 C 0.00188 0.11591 0.46641 0.0
C2375 C 0.02027 0.12075 0.47921 0.0
loop_
_geom_bond_atom_site_label_1
_geom_bond_atom_site_label_2
_geom_bond_distance
_geom_bond_site_symmetry_2
_ccdc_geom_bond_type
Co0 O2 2.143 . S
Co0 O8 2.074 . S
Co0 O11 2.093 . S
Co0 O24 2.097 . S
Co0 N41 2.151 . S
Co0 N49 2.214 . S
Co1 O2 2.160 . S
Co1 O7 2.058 . S
Co1 O17 2.057 . S
Co1 O32 2.037 . S
Co1 N36 2.145 . S
Co1 N57 2.257 . S
O2 Co0 2.143 . S
O2 Co1 2.160 . S
C3 O4 1.278 . S
C3 O11 1.224 . S
O4 C3 1.278 . S
C5 O6 1.245 . S
C5 O17 1.232 . S
O6 C5 1.245 . S
O7 Co1 2.058 . S
O7 C33 1.269 . S
O8 Co0 2.074 . S
O8 C33 1.257 . S
H9 C34 0.930 . S
H10 C40 0.930 . S
O11 Co0 2.093 . S
O11 C3 1.224 . S
H12 C44 0.929 . S
H13 C46 0.930 . S
H14 C47 0.930 . S
H15 C45 0.929 . S
H16 C48 0.928 . S
O17 Co1 2.057 . S
O17 C5 1.232 . S
H18 C37 0.929 . S
H19 C38 0.929 . S
H20 C50 0.931 . S
H21 C42 0.929 . S
H22 C51 0.930 . S
H23 C43 0.931 . S
O24 Co0 2.097 . S
O24 C52 1.214 . S
H25 C53 0.929 . S
H26 C54 0.929 . S
H27 C55 0.930 . S
H28 C56 0.929 . S
H29 C58 0.930 . S
H30 C35 0.930 . S
H31 C39 0.930 . S
O32 Co1 2.037 . S
O32 C52 1.234 . S
C33 O7 1.269 . S
C33 O8 1.257 . S
C34 H9 0.930 . S
C34 C37 1.388 . S
C34 C39 1.418 . S
C35 H30 0.930 . S
C35 C38 1.404 . S
C35 C39 1.353 . S
N36 Co1 2.145 . S
N36 C37 1.397 . S
N36 C38 1.334 . S
C37 H18 0.929 . S
C37 C34 1.388 . S
C37 N36 1.397 . S
C38 H19 0.929 . S
C38 C35 1.404 . S
C38 N36 1.334 . S
C39 H31 0.930 . S
C39 C34 1.418 . S
C39 C35 1.353 . S
C40 H10 0.930 . S
C40 N41 1.330 . S
C40 C42 1.446 . S
N41 Co0 2.151 . S
N41 C40 1.330 . S
N41 C45 1.418 . S
C42 H21 0.929 . S
C42 C40 1.446 . S
C42 C43 1.332 . S
C43 H23 0.931 . S
C43 C42 1.332 . S
C43 C44 1.267 . S
C44 H12 0.929 . S
C44 C43 1.267 . S
C44 C45 1.251 . S
C45 H15 0.929 . S
C45 N41 1.418 . S
C45 C44 1.251 . S
C46 H13 0.930 . S
C46 C48 1.406 . S
C46 C51 1.261 . S
C47 H14 0.930 . S
C47 N49 1.325 . S
C47 C50 1.357 . S
C48 H16 0.928 . S
C48 C46 1.406 . S
C48 N49 1.261 . S
N49 Co0 2.214 . S
N49 C47 1.325 . S
N49 C48 1.261 . S
C50 H20 0.931 . S
C50 C47 1.357 . S
C50 C51 1.312 . S
C51 H22 0.930 . S
C51 C46 1.261 . S
C51 C50 1.312 . S
C52 O24 1.214 . S
C52 O32 1.234 . S
C53 H25 0.929 . S
C53 C56 1.391 . S
C53 C58 1.391 . S
C54 H26 0.929 . S
C54 C55 1.390 . S
C54 N57 1.391 . S
C55 H27 0.930 . S
C55 C54 1.390 . S
C55 C56 1.392 . S
C56 H28 0.929 . S
C56 C53 1.391 . S
C56 C55 1.392 . S
N57 Co1 2.257 . S
N57 C54 1.391 . S
N57 C58 1.388 . S
C58 H29 0.930 . S
C58 C53 1.391 . S
C58 N57 1.388 . S
Co59 O61 2.143 . S
Co59 O67 2.074 . S
Co59 O70 2.093 . S
Co59 O83 2.097 . S
Co59 N100 2.151 . S
Co59 N108 2.214 1_565 S
Co60 O61 2.160 . S
Co60 O66 2.058 . S
Co60 O76 2.057 . S
Co60 O91 2.037 . S
Co60 N95 2.145 . S
Co60 N116 2.257 . S
O61 Co59 2.143 . S
O61 Co60 2.160 . S
C62 O63 1.278 . S
C62 O70 1.224 . S
O63 C62 1.278 . S
C64 O65 1.245 . S
C64 O76 1.232 . S
O65 C64 1.245 . S
O66 Co60 2.058 . S
O66 C92 1.269 . S
O67 Co59 2.074 . S
O67 C92 1.257 . S
H68 C93 0.930 . S
H69 C99 0.930 . S
O70 Co59 2.093 . S
O70 C62 1.224 . S
H71 C103 0.929 . S
H72 C105 0.930 . S
H73 C106 0.939 . S
H74 C104 0.929 . S
H75 C107 0.928 . S
O76 Co60 2.057 . S
O76 C64 1.232 . S
H77 C96 0.929 . S
H78 C97 0.929 . S
H79 C109 0.931 . S
H80 C101 0.929 . S
H81 C110 0.930 . S
H82 C102 0.931 . S
O83 Co59 2.097 . S
O83 C111 1.214 . S
H84 C112 0.929 . S
H85 C113 0.929 . S
H86 C114 0.930 . S
H87 C115 0.929 . S
H88 C117 0.930 . S
H89 C94 0.906 1_455 S
H90 C98 0.930 . S
O91 Co60 2.037 . S
O91 C111 1.234 . S
C92 O66 1.269 . S
C92 O67 1.257 . S
C93 H68 0.930 . S
C93 C96 1.388 . S
C93 C98 1.418 . S
C94 H89 0.906 1_655 S
C94 C97 1.404 . S
C94 C98 1.353 . S
N95 Co60 2.145 . S
N95 C96 1.397 . S
N95 C97 1.334 . S
C96 H77 0.929 . S
C96 C93 1.388 . S
C96 N95 1.397 . S
C97 H78 0.929 . S
C97 C94 1.404 . S
C97 N95 1.334 . S
C98 H90 0.930 . S
C98 C93 1.418 . S
C98 C94 1.353 . S
C99 H69 0.930 . S
C99 N100 1.330 . S
C99 C101 1.446 . S
N100 Co59 2.151 . S
N100 C99 1.330 . S
N100 C104 1.418 1_565 S
C101 H80 0.929 . S
C101 C99 1.446 . S
C101 C102 1.332 1_565 S
C102 H82 0.931 . S
C102 C101 1.332 1_545 S
C102 C103 1.267 . S
C103 H71 0.929 . S
C103 C102 1.267 . S
C103 C104 1.251 . S
C104 H74 0.929 . S
C104 N100 1.418 1_545 S
C104 C103 1.251 . S
C105 H72 0.930 . S
C105 C107 1.406 . S
C105 C110 1.261 . S
C106 H73 0.939 . S
C106 N108 1.325 . S
C106 C109 1.357 . S
C107 H75 0.928 . S
C107 C105 1.406 . S
C107 N108 1.261 . S
N108 Co59 2.214 1_545 S
N108 C106 1.325 . S
N108 C107 1.261 . S
C109 H79 0.931 . S
C109 C106 1.357 . S
C109 C110 1.312 . S
C110 H81 0.930 . S
C110 C105 1.261 . S
C110 C109 1.312 . S
C111 O83 1.214 . S
C111 O91 1.234 . S
C112 H84 0.929 . S
C112 C115 1.391 . S
C112 C117 1.391 . S
C113 H85 0.929 . S
C113 C114 1.390 . S
C113 N116 1.391 . S
C114 H86 0.930 . S
C114 C113 1.390 . S
C114 C115 1.392 . S
C115 H87 0.929 . S
C115 C112 1.391 . S
C115 C114 1.392 . S
N116 Co60 2.257 . S
N116 C113 1.391 . S
N116 C117 1.388 . S
C117 H88 0.930 . S
C117 C112 1.391 . S
C117 N116 1.388 . S
Co118 O120 2.143 . S
Co118 O126 2.074 . S
Co118 O129 2.093 . S
Co118 O142 2.097 . S
Co118 N159 2.151 . S
Co118 N167 2.214 . S
Co119 O120 2.160 . S
Co119 O125 2.058 . S
Co119 O135 2.057 . S
Co119 O150 2.037 . S
Co119 N154 2.145 . S
Co119 N175 2.257 . S
O120 Co118 2.143 . S
O120 Co119 2.160 . S
C121 O122 1.278 . S
C121 O129 1.224 . S
O122 C121 1.278 . S
C123 O124 1.245 . S
C123 O135 1.232 . S
O124 C123 1.245 . S
O125 Co119 2.058 . S
O125 C151 1.269 . S
O126 Co118 2.074 . S
O126 C151 1.257 . S
H127 C152 0.930 . S
H128 C158 0.930 . S
O129 Co118 2.093 . S
O129 C121 1.224 . S
H130 C162 0.929 . S
H131 C164 0.930 . S
H132 C165 0.930 . S
H133 C163 0.929 . S
H134 C166 0.928 . S
O135 Co119 2.057 . S
O135 C123 1.232 . S
H136 C155 0.929 . S
H137 C156 0.929 . S
H138 C168 0.931 . S
H139 C160 0.929 . S
H140 C169 0.930 . S
H141 C161 0.931 . S
O142 Co118 2.097 . S
O142 C170 1.214 . S
H143 C171 0.929 . S
H144 C172 0.929 . S
H145 C173 0.930 . S
H146 C174 0.929 . S
H147 C176 0.930 . S
H148 C153 0.930 . S
H149 C157 0.930 . S
O150 Co119 2.037 . S
O150 C170 1.234 . S
C151 O125 1.269 . S
C151 O126 1.257 . S
C152 H127 0.930 . S
C152 C155 1.388 . S
C152 C157 1.418 . S
C153 H148 0.930 . S
C153 C156 1.404 . S
C153 C157 1.353 . S
N154 Co119 2.145 . S
N154 C155 1.397 . S
N154 C156 1.334 . S
C155 H136 0.929 . S
C155 C152 1.388 . S
C155 N154 1.397 . S
C156 H137 0.929 . S
C156 C153 1.404 . S
C156 N154 1.334 . S
C157 H149 0.930 . S
C157 C152 1.418 . S
C157 C153 1.353 . S
C158 H128 0.930 . S
C158 N159 1.330 . S
C158 C160 1.446 . S
N159 Co118 2.151 . S
N159 C158 1.330 . S
N159 C163 1.418 . S
C160 H139 0.929 . S
C160 C158 1.446 . S
C160 C161 1.332 . S
C161 H141 0.931 . S
C161 C160 1.332 . S
C161 C162 1.267 . S
C162 H130 0.929 . S
C162 C161 1.267 . S
C162 C163 1.251 . S
C163 H133 0.929 . S
C163 N159 1.418 . S
C163 C162 1.251 . S
C164 H131 0.930 . S
C164 C166 1.406 . S
C164 C169 1.261 . S
C165 H132 0.930 . S
C165 N167 1.325 . S
C165 C168 1.357 . S
C166 H134 0.928 . S
C166 C164 1.406 . S
C166 N167 1.261 . S
N167 Co118 2.214 . S
N167 C165 1.325 . S
N167 C166 1.261 . S
C168 H138 0.931 . S
C168 C165 1.357 . S
C168 C169 1.312 . S
C169 H140 0.930 . S
C169 C164 1.261 . S
C169 C168 1.312 . S
C170 O142 1.214 . S
C170 O150 1.234 . S
C171 H143 0.929 . S
C171 C174 1.391 . S
C171 C176 1.391 . S
C172 H144 0.929 . S
C172 C173 1.390 . S
C172 N175 1.391 . S
C173 H145 0.930 . S
C173 C172 1.390 . S
C173 C174 1.392 . S
C174 H146 0.929 . S
C174 C171 1.391 . S
C174 C173 1.392 . S
N175 Co119 2.257 . S
N175 C172 1.391 . S
N175 C176 1.388 . S
C176 H147 0.930 . S
C176 C171 1.391 . S
C176 N175 1.388 . S
Co177 O179 2.143 . S
Co177 O185 2.074 . S
Co177 O188 2.093 . S
Co177 O201 2.097 . S
Co177 N218 2.151 . S
Co177 N226 2.214 1_545 S
Co178 O179 2.160 . S
Co178 O184 2.058 . S
Co178 O194 2.057 . S
Co178 O209 2.037 . S
Co178 N213 2.145 . S
Co178 N234 2.257 . S
O179 Co177 2.143 . S
O179 Co178 2.160 . S
C180 O181 1.278 . S
C180 O188 1.224 . S
O181 C180 1.278 . S
C182 O183 1.245 . S
C182 O194 1.232 . S
O183 C182 1.245 . S
O184 Co178 2.058 . S
O184 C210 1.269 . S
O185 Co177 2.074 . S
O185 C210 1.257 . S
H186 C211 0.930 . S
H187 C217 0.930 . S
O188 Co177 2.093 . S
O188 C180 1.224 . S
H189 C221 0.929 . S
H190 C223 0.930 . S
H191 C224 0.939 . S
H192 C222 0.929 . S
H193 C225 0.928 . S
O194 Co178 2.057 . S
O194 C182 1.232 . S
H195 C214 0.929 . S
H196 C215 0.929 . S
H197 C227 0.931 . S
H198 C219 0.929 . S
H199 C228 0.930 . S
H200 C220 0.931 . S
O201 Co177 2.097 . S
O201 C229 1.214 . S
H202 C230 0.929 . S
H203 C231 0.929 . S
H204 C232 0.930 . S
H205 C233 0.929 . S
H206 C235 0.930 . S
H207 C212 0.930 . S
H208 C216 0.930 . S
O209 Co178 2.037 . S
O209 C229 1.234 . S
C210 O184 1.269 . S
C210 O185 1.257 . S
C211 H186 0.930 . S
C211 C214 1.388 . S
C211 C216 1.418 . S
C212 H207 0.930 . S
C212 C215 1.404 . S
C212 C216 1.353 . S
N213 Co178 2.145 . S
N213 C214 1.397 . S
N213 C215 1.334 . S
C214 H195 0.929 . S
C214 C211 1.388 . S
C214 N213 1.397 . S
C215 H196 0.929 . S
C215 C212 1.404 . S
C215 N213 1.334 . S
C216 H208 0.930 . S
C216 C211 1.418 . S
C216 C212 1.353 . S
C217 H187 0.930 . S
C217 N218 1.330 . S
C217 C219 1.446 . S
N218 Co177 2.151 . S
N218 C217 1.330 . S
N218 C222 1.418 1_545 S
C219 H198 0.929 . S
C219 C217 1.446 . S
C219 C220 1.332 1_545 S
C220 H200 0.931 . S
C220 C219 1.332 1_565 S
C220 C221 1.267 . S
C221 H189 0.929 . S
C221 C220 1.267 . S
C221 C222 1.251 . S
C222 H192 0.929 . S
C222 N218 1.418 1_565 S
C222 C221 1.251 . S
C223 H190 0.930 . S
C223 C225 1.406 . S
C223 C228 1.261 . S
C224 H191 0.939 . S
C224 N226 1.325 . S
C224 C227 1.357 . S
C225 H193 0.928 . S
C225 C223 1.406 . S
C225 N226 1.261 . S
N226 Co177 2.214 1_565 S
N226 C224 1.325 . S
N226 C225 1.261 . S
C227 H197 0.931 . S
C227 C224 1.357 . S
C227 C228 1.312 . S
C228 H199 0.930 . S
C228 C223 1.261 . S
C228 C227 1.312 . S
C229 O201 1.214 . S
C229 O209 1.234 . S
C230 H202 0.929 . S
C230 C233 1.391 . S
C230 C235 1.391 . S
C231 H203 0.929 . S
C231 C232 1.390 . S
C231 N234 1.391 . S
C232 H204 0.930 . S
C232 C231 1.390 . S
C232 C233 1.392 . S
C233 H205 0.929 . S
C233 C230 1.391 . S
C233 C232 1.392 . S
N234 Co178 2.257 . S
N234 C231 1.391 . S
N234 C235 1.388 . S
C235 H206 0.930 . S
C235 C230 1.391 . S
C235 N234 1.388 . S
Co236 O238 2.143 . S
Co236 O244 2.074 . S
Co236 O247 2.093 . S
Co236 O260 2.097 . S
Co236 N277 2.151 . S
Co236 N285 2.214 . S
Co237 O238 2.160 . S
Co237 O243 2.058 . S
Co237 O253 2.057 . S
Co237 O268 2.037 . S
Co237 N272 2.145 . S
Co237 N293 2.257 . S
O238 Co236 2.143 . S
O238 Co237 2.160 . S
C239 O240 1.278 . S
C239 O247 1.224 . S
O240 C239 1.278 . S
C241 O242 1.245 . S
C241 O253 1.232 . S
O242 C241 1.245 . S
O243 Co237 2.058 . S
O243 C269 1.269 . S
O244 Co236 2.074 . S
O244 C269 1.257 . S
H245 C270 0.930 . S
H246 C276 0.930 . S
O247 Co236 2.093 . S
O247 C239 1.224 . S
H248 C280 0.929 . S
H249 C282 0.930 . S
H250 C283 0.930 . S
H251 C281 0.929 . S
H252 C284 0.928 . S
O253 Co237 2.057 . S
O253 C241 1.232 . S
H254 C273 0.929 . S
H255 C274 0.929 . S
H256 C286 0.931 . S
H257 C278 0.929 . S
H258 C287 0.930 . S
H259 C279 0.931 . S
O260 Co236 2.097 . S
O260 C288 1.214 . S
H261 C289 0.929 . S
H262 C290 0.929 . S
H263 C291 0.930 . S
H264 C292 0.929 . S
H265 C294 0.930 . S
H266 C271 0.930 . S
H267 C275 0.930 . S
O268 Co237 2.037 . S
O268 C288 1.234 . S
C269 O243 1.269 . S
C269 O244 1.257 . S
C270 H245 0.930 . S
C270 C273 1.388 . S
C270 C275 1.418 . S
C271 H266 0.930 . S
C271 C274 1.404 . S
C271 C275 1.353 . S
N272 Co237 2.145 . S
N272 C273 1.397 . S
N272 C274 1.334 . S
C273 H254 0.929 . S
C273 C270 1.388 . S
C273 N272 1.397 . S
C274 H255 0.929 . S
C274 C271 1.404 . S
C274 N272 1.334 . S
C275 H267 0.930 . S
C275 C270 1.418 . S
C275 C271 1.353 . S
C276 H246 0.930 . S
C276 N277 1.330 . S
C276 C278 1.446 . S
N277 Co236 2.151 . S
N277 C276 1.330 . S
N277 C281 1.418 . S
C278 H257 0.929 . S
C278 C276 1.446 . S
C278 C279 1.332 . S
C279 H259 0.931 . S
C279 C278 1.332 . S
C279 C280 1.267 . S
C280 H248 0.929 . S
C280 C279 1.267 . S
C280 C281 1.251 . S
C281 H251 0.929 . S
C281 N277 1.418 . S
C281 C280 1.251 . S
C282 H249 0.930 . S
C282 C284 1.406 . S
C282 C287 1.261 . S
C283 H250 0.930 . S
C283 N285 1.325 . S
C283 C286 1.357 . S
C284 H252 0.928 . S
C284 C282 1.406 . S
C284 N285 1.261 . S
N285 Co236 2.214 . S
N285 C283 1.325 . S
N285 C284 1.261 . S
C286 H256 0.931 . S
C286 C283 1.357 . S
C286 C287 1.312 . S
C287 H258 0.930 . S
C287 C282 1.261 . S
C287 C286 1.312 . S
C288 O260 1.214 . S
C288 O268 1.234 . S
C289 H261 0.929 . S
C289 C292 1.391 . S
C289 C294 1.391 . S
C290 H262 0.929 . S
C290 C291 1.390 . S
C290 N293 1.391 . S
C291 H263 0.930 . S
C291 C290 1.390 . S
C291 C292 1.392 . S
C292 H264 0.929 . S
C292 C289 1.391 . S
C292 C291 1.392 . S
N293 Co237 2.257 . S
N293 C290 1.391 . S
N293 C294 1.388 . S
C294 H265 0.930 . S
C294 C289 1.391 . S
C294 N293 1.388 . S
Co295 O297 2.143 . S
Co295 O303 2.074 . S
Co295 O306 2.093 . S
Co295 O319 2.097 . S
Co295 N336 2.151 . S
Co295 N344 2.214 . S
Co296 O297 2.160 . S
Co296 O302 2.058 . S
Co296 O312 2.057 . S
Co296 O327 2.037 . S
Co296 N331 2.145 . S
Co296 N352 2.257 . S
O297 Co295 2.143 . S
O297 Co296 2.160 . S
C298 O299 1.278 . S
C298 O306 1.224 . S
O299 C298 1.278 . S
C300 O301 1.245 . S
C300 O312 1.232 . S
O301 C300 1.245 . S
O302 Co296 2.058 . S
O302 C328 1.269 . S
O303 Co295 2.074 . S
O303 C328 1.257 . S
H304 C329 0.930 . S
H305 C335 0.930 . S
O306 Co295 2.093 . S
O306 C298 1.224 . S
H307 C339 0.929 . S
H308 C341 0.930 . S
H309 C342 0.930 . S
H310 C340 0.929 . S
H311 C343 0.928 . S
O312 Co296 2.057 . S
O312 C300 1.232 . S
H313 C332 0.929 . S
H314 C333 0.929 . S
H315 C345 0.931 . S
H316 C337 0.929 . S
H317 C346 0.930 . S
H318 C338 0.931 . S
O319 Co295 2.097 . S
O319 C347 1.214 . S
H320 C348 0.929 . S
H321 C349 0.929 . S
H322 C350 0.930 . S
H323 C351 0.929 . S
H324 C353 0.930 . S
H325 C330 0.906 1_655 S
H326 C334 0.930 . S
O327 Co296 2.037 . S
O327 C347 1.234 . S
C328 O302 1.269 . S
C328 O303 1.257 . S
C329 H304 0.930 . S
C329 C332 1.388 . S
C329 C334 1.418 . S
C330 H325 0.906 1_455 S
C330 C333 1.404 . S
C330 C334 1.353 . S
N331 Co296 2.145 . S
N331 C332 1.397 . S
N331 C333 1.334 . S
C332 H313 0.929 . S
C332 C329 1.388 . S
C332 N331 1.397 . S
C333 H314 0.929 . S
C333 C330 1.404 . S
C333 N331 1.334 . S
C334 H326 0.930 . S
C334 C329 1.418 . S
C334 C330 1.353 . S
C335 H305 0.930 . S
C335 N336 1.330 . S
C335 C337 1.446 . S
N336 Co295 2.151 . S
N336 C335 1.330 . S
N336 C340 1.418 . S
C337 H316 0.929 . S
C337 C335 1.446 . S
C337 C338 1.332 . S
C338 H318 0.931 . S
C338 C337 1.332 . S
C338 C339 1.267 . S
C339 H307 0.929 . S
C339 C338 1.267 . S
C339 C340 1.251 . S
C340 H310 0.929 . S
C340 N336 1.418 . S
C340 C339 1.251 . S
C341 H308 0.930 . S
C341 C343 1.406 . S
C341 C346 1.261 . S
C342 H309 0.930 . S
C342 N344 1.325 . S
C342 C345 1.357 . S
C343 H311 0.928 . S
C343 C341 1.406 . S
C343 N344 1.261 . S
N344 Co295 2.214 . S
N344 C342 1.325 . S
N344 C343 1.261 . S
C345 H315 0.931 . S
C345 C342 1.357 . S
C345 C346 1.312 . S
C346 H317 0.930 . S
C346 C341 1.261 . S
C346 C345 1.312 . S
C347 O319 1.214 . S
C347 O327 1.234 . S
C348 H320 0.929 . S
C348 C351 1.391 . S
C348 C353 1.391 . S
C349 H321 0.929 . S
C349 C350 1.390 . S
C349 N352 1.391 . S
C350 H322 0.930 . S
C350 C349 1.390 . S
C350 C351 1.392 . S
C351 H323 0.929 . S
C351 C348 1.391 . S
C351 C350 1.392 . S
N352 Co296 2.257 . S
N352 C349 1.391 . S
N352 C353 1.388 . S
C353 H324 0.930 . S
C353 C348 1.391 . S
C353 N352 1.388 . S
Co354 O356 2.143 . S
Co354 O362 2.074 . S
Co354 O365 2.093 . S
Co354 O378 2.097 . S
Co354 N395 2.151 . S
Co354 N403 2.214 . S
Co355 O356 2.160 . S
Co355 O361 2.058 . S
Co355 O371 2.057 . S
Co355 O386 2.037 . S
Co355 N390 2.145 . S
Co355 N411 2.257 . S
O356 Co354 2.143 . S
O356 Co355 2.160 . S
C357 O358 1.278 . S
C357 O365 1.224 . S
O358 C357 1.278 . S
C359 O360 1.245 . S
C359 O371 1.232 . S
O360 C359 1.245 . S
O361 Co355 2.058 . S
O361 C387 1.269 . S
O362 Co354 2.074 . S
O362 C387 1.257 . S
H363 C388 0.930 . S
H364 C394 0.930 . S
O365 Co354 2.093 . S
O365 C357 1.224 . S
H366 C398 0.929 . S
H367 C400 0.930 . S
H368 C401 0.930 . S
H369 C399 0.929 . S
H370 C402 0.928 . S
O371 Co355 2.057 . S
O371 C359 1.232 . S
H372 C391 0.929 . S
H373 C392 0.929 . S
H374 C404 0.931 . S
H375 C396 0.929 . S
H376 C405 0.930 . S
H377 C397 0.931 . S
O378 Co354 2.097 . S
O378 C406 1.214 . S
H379 C407 0.929 . S
H380 C408 0.929 . S
H381 C409 0.930 . S
H382 C410 0.929 . S
H383 C412 0.930 . S
H384 C389 0.930 . S
H385 C393 0.930 . S
O386 Co355 2.037 . S
O386 C406 1.234 . S
C387 O361 1.269 . S
C387 O362 1.257 . S
C388 H363 0.930 . S
C388 C391 1.388 . S
C388 C393 1.418 . S
C389 H384 0.930 . S
C389 C392 1.404 . S
C389 C393 1.353 . S
N390 Co355 2.145 . S
N390 C391 1.397 . S
N390 C392 1.334 . S
C391 H372 0.929 . S
C391 C388 1.388 . S
C391 N390 1.397 . S
C392 H373 0.929 . S
C392 C389 1.404 . S
C392 N390 1.334 . S
C393 H385 0.930 . S
C393 C388 1.418 . S
C393 C389 1.353 . S
C394 H364 0.930 . S
C394 N395 1.330 . S
C394 C396 1.446 . S
N395 Co354 2.151 . S
N395 C394 1.330 . S
N395 C399 1.418 . S
C396 H375 0.929 . S
C396 C394 1.446 . S
C396 C397 1.332 . S
C397 H377 0.931 . S
C397 C396 1.332 . S
C397 C398 1.267 . S
C398 H366 0.929 . S
C398 C397 1.267 . S
C398 C399 1.251 . S
C399 H369 0.929 . S
C399 N395 1.418 . S
C399 C398 1.251 . S
C400 H367 0.930 . S
C400 C402 1.406 . S
C400 C405 1.261 . S
C401 H368 0.930 . S
C401 N403 1.325 . S
C401 C404 1.357 . S
C402 H370 0.928 . S
C402 C400 1.406 . S
C402 N403 1.261 . S
N403 Co354 2.214 . S
N403 C401 1.325 . S
N403 C402 1.261 . S
C404 H374 0.931 . S
C404 C401 1.357 . S
C404 C405 1.312 . S
C405 H376 0.930 . S
C405 C400 1.261 . S
C405 C404 1.312 . S
C406 O378 1.214 . S
C406 O386 1.234 . S
C407 H379 0.929 . S
C407 C410 1.391 . S
C407 C412 1.391 . S
C408 H380 0.929 . S
C408 C409 1.390 . S
C408 N411 1.391 . S
C409 H381 0.930 . S
C409 C408 1.390 . S
C409 C410 1.392 . S
C410 H382 0.929 . S
C410 C407 1.391 . S
C410 C409 1.392 . S
N411 Co355 2.257 . S
N411 C408 1.391 . S
N411 C412 1.388 . S
C412 H383 0.930 . S
C412 C407 1.391 . S
C412 N411 1.388 . S
Co413 O415 2.143 . S
Co413 O421 2.074 . S
Co413 O424 2.093 . S
Co413 O437 2.097 . S
Co413 N454 2.151 . S
Co413 N462 2.214 . S
Co414 O415 2.160 . S
Co414 O420 2.058 . S
Co414 O430 2.057 . S
Co414 O445 2.037 . S
Co414 N449 2.145 . S
Co414 N470 2.257 . S
O415 Co413 2.143 . S
O415 Co414 2.160 . S
C416 O417 1.278 . S
C416 O424 1.224 . S
O417 C416 1.278 . S
C418 O419 1.245 . S
C418 O430 1.232 . S
O419 C418 1.245 . S
O420 Co414 2.058 . S
O420 C446 1.269 . S
O421 Co413 2.074 . S
O421 C446 1.257 . S
H422 C447 0.930 . S
H423 C453 0.930 . S
O424 Co413 2.093 . S
O424 C416 1.224 . S
H425 C457 0.929 . S
H426 C459 0.930 . S
H427 C460 0.930 . S
H428 C458 0.929 . S
H429 C461 0.928 . S
O430 Co414 2.057 . S
O430 C418 1.232 . S
H431 C450 0.929 . S
H432 C451 0.929 . S
H433 C463 0.931 . S
H434 C455 0.929 . S
H435 C464 0.930 . S
H436 C456 0.931 . S
O437 Co413 2.097 . S
O437 C465 1.214 . S
H438 C466 0.929 . S
H439 C467 0.929 . S
H440 C468 0.930 . S
H441 C469 0.929 . S
H442 C471 0.930 . S
H443 C448 0.930 . S
H444 C452 0.930 . S
O445 Co414 2.037 . S
O445 C465 1.234 . S
C446 O420 1.269 . S
C446 O421 1.257 . S
C447 H422 0.930 . S
C447 C450 1.388 . S
C447 C452 1.418 . S
C448 H443 0.930 . S
C448 C451 1.404 . S
C448 C452 1.353 . S
N449 Co414 2.145 . S
N449 C450 1.397 . S
N449 C451 1.334 . S
C450 H431 0.929 . S
C450 C447 1.388 . S
C450 N449 1.397 . S
C451 H432 0.929 . S
C451 C448 1.404 . S
C451 N449 1.334 . S
C452 H444 0.930 . S
C452 C447 1.418 . S
C452 C448 1.353 . S
C453 H423 0.930 . S
C453 N454 1.330 . S
C453 C455 1.446 . S
N454 Co413 2.151 . S
N454 C453 1.330 . S
N454 C458 1.418 . S
C455 H434 0.929 . S
C455 C453 1.446 . S
C455 C456 1.332 . S
C456 H436 0.931 . S
C456 C455 1.332 . S
C456 C457 1.267 . S
C457 H425 0.929 . S
C457 C456 1.267 . S
C457 C458 1.251 . S
C458 H428 0.929 . S
C458 N454 1.418 . S
C458 C457 1.251 . S
C459 H426 0.930 . S
C459 C461 1.406 . S
C459 C464 1.261 . S
C460 H427 0.930 . S
C460 N462 1.325 . S
C460 C463 1.357 . S
C461 H429 0.928 . S
C461 C459 1.406 . S
C461 N462 1.261 . S
N462 Co413 2.214 . S
N462 C460 1.325 . S
N462 C461 1.261 . S
C463 H433 0.931 . S
C463 C460 1.357 . S
C463 C464 1.312 . S
C464 H435 0.930 . S
C464 C459 1.261 . S
C464 C463 1.312 . S
C465 O437 1.214 . S
C465 O445 1.234 . S
C466 H438 0.929 . S
C466 C469 1.391 . S
C466 C471 1.391 . S
C467 H439 0.929 . S
C467 C468 1.390 . S
C467 N470 1.391 . S
C468 H440 0.930 . S
C468 C467 1.390 . S
C468 C469 1.392 . S
C469 H441 0.929 . S
C469 C466 1.391 . S
C469 C468 1.392 . S
N470 Co414 2.257 . S
N470 C467 1.391 . S
N470 C471 1.388 . S
C471 H442 0.930 . S
C471 C466 1.391 . S
C471 N470 1.388 . S
Co472 O474 2.143 . S
Co472 O480 2.074 . S
Co472 O483 2.093 . S
Co472 O496 2.097 . S
Co472 N513 2.151 . S
Co472 N521 2.214 . S
Co473 O474 2.160 . S
Co473 O479 2.058 . S
Co473 O489 2.057 . S
Co473 O504 2.037 . S
Co473 N508 2.145 . S
Co473 N529 2.257 . S
O474 Co472 2.143 . S
O474 Co473 2.160 . S
C475 O476 1.278 . S
C475 O483 1.224 . S
O476 C475 1.278 . S
C477 O478 1.245 . S
C477 O489 1.232 . S
O478 C477 1.245 . S
O479 Co473 2.058 . S
O479 C505 1.269 . S
O480 Co472 2.074 . S
O480 C505 1.257 . S
H481 C506 0.930 . S
H482 C512 0.930 . S
O483 Co472 2.093 . S
O483 C475 1.224 . S
H484 C516 0.929 . S
H485 C518 0.930 . S
H486 C519 0.930 . S
H487 C517 0.929 . S
H488 C520 0.928 . S
O489 Co473 2.057 . S
O489 C477 1.232 . S
H490 C509 0.929 . S
H491 C510 0.929 . S
H492 C522 0.931 . S
H493 C514 0.929 . S
H494 C523 0.930 . S
H495 C515 0.931 . S
O496 Co472 2.097 . S
O496 C524 1.214 . S
H497 C525 0.929 . S
H498 C526 0.929 . S
H499 C527 0.930 . S
H500 C528 0.929 . S
H501 C530 0.930 . S
H502 C507 0.930 . S
H503 C511 0.930 . S
O504 Co473 2.037 . S
O504 C524 1.234 . S
C505 O479 1.269 . S
C505 O480 1.257 . S
C506 H481 0.930 . S
C506 C509 1.388 . S
C506 C511 1.418 . S
C507 H502 0.930 . S
C507 C510 1.404 . S
C507 C511 1.353 . S
N508 Co473 2.145 . S
N508 C509 1.397 . S
N508 C510 1.334 . S
C509 H490 0.929 . S
C509 C506 1.388 . S
C509 N508 1.397 . S
C510 H491 0.929 . S
C510 C507 1.404 . S
C510 N508 1.334 . S
C511 H503 0.930 . S
C511 C506 1.418 . S
C511 C507 1.353 . S
C512 H482 0.930 . S
C512 N513 1.330 . S
C512 C514 1.446 . S
N513 Co472 2.151 . S
N513 C512 1.330 . S
N513 C517 1.418 . S
C514 H493 0.929 . S
C514 C512 1.446 . S
C514 C515 1.332 . S
C515 H495 0.931 . S
C515 C514 1.332 . S
C515 C516 1.267 . S
C516 H484 0.929 . S
C516 C515 1.267 . S
C516 C517 1.251 . S
C517 H487 0.929 . S
C517 N513 1.418 . S
C517 C516 1.251 . S
C518 H485 0.930 . S
C518 C520 1.406 . S
C518 C523 1.261 . S
C519 H486 0.930 . S
C519 N521 1.325 . S
C519 C522 1.357 . S
C520 H488 0.928 . S
C520 C518 1.406 . S
C520 N521 1.261 . S
N521 Co472 2.214 . S
N521 C519 1.325 . S
N521 C520 1.261 . S
C522 H492 0.931 . S
C522 C519 1.357 . S
C522 C523 1.312 . S
C523 H494 0.930 . S
C523 C518 1.261 . S
C523 C522 1.312 . S
C524 O496 1.214 . S
C524 O504 1.234 . S
C525 H497 0.929 . S
C525 C528 1.391 . S
C525 C530 1.391 . S
C526 H498 0.929 . S
C526 C527 1.390 . S
C526 N529 1.391 . S
C527 H499 0.930 . S
C527 C526 1.390 . S
C527 C528 1.392 . S
C528 H500 0.929 . S
C528 C525 1.391 . S
C528 C527 1.392 . S
N529 Co473 2.257 . S
N529 C526 1.391 . S
N529 C530 1.388 . S
C530 H501 0.930 . S
C530 C525 1.391 . S
C530 N529 1.388 . S
Co531 O533 2.143 . S
Co531 O539 2.074 . S
Co531 O542 2.093 . S
Co531 O555 2.097 . S
Co531 N572 2.151 . S
Co531 N580 2.214 1_455 S
Co532 O533 2.160 . S
Co532 O538 2.058 . S
Co532 O548 2.057 . S
Co532 O563 2.037 . S
Co532 N567 2.145 . S
Co532 N588 2.257 . S
O533 Co531 2.143 . S
O533 Co532 2.160 . S
C534 O535 1.278 . S
C534 O542 1.224 . S
O535 C534 1.278 . S
C536 O537 1.245 . S
C536 O548 1.232 . S
O537 C536 1.245 . S
O538 Co532 2.058 . S
O538 C564 1.269 . S
O539 Co531 2.074 . S
O539 C564 1.257 . S
H540 C565 0.930 . S
H541 C571 0.930 . S
O542 Co531 2.093 . S
O542 C534 1.224 . S
H543 C575 0.929 . S
H544 C577 0.930 . S
H545 C578 0.939 . S
H546 C576 0.929 . S
H547 C579 0.928 . S
O548 Co532 2.057 . S
O548 C536 1.232 . S
H549 C568 0.929 . S
H550 C569 0.929 . S
H551 C581 0.931 . S
H552 C573 0.929 . S
H553 C582 0.930 . S
H554 C574 0.931 . S
O555 Co531 2.097 . S
O555 C583 1.214 . S
H556 C584 0.929 . S
H557 C585 0.929 . S
H558 C586 0.930 . S
H559 C587 0.929 . S
H560 C589 0.930 . S
H561 C566 0.930 . S
H562 C570 0.930 . S
O563 Co532 2.037 . S
O563 C583 1.234 . S
C564 O538 1.269 . S
C564 O539 1.257 . S
C565 H540 0.930 . S
C565 C568 1.388 . S
C565 C570 1.418 . S
C566 H561 0.930 . S
C566 C569 1.404 . S
C566 C570 1.353 . S
N567 Co532 2.145 . S
N567 C568 1.397 . S
N567 C569 1.334 . S
C568 H549 0.929 . S
C568 C565 1.388 . S
C568 N567 1.397 . S
C569 H550 0.929 . S
C569 C566 1.404 . S
C569 N567 1.334 . S
C570 H562 0.930 . S
C570 C565 1.418 . S
C570 C566 1.353 . S
C571 H541 0.930 . S
C571 N572 1.330 . S
C571 C573 1.446 . S
N572 Co531 2.151 . S
N572 C571 1.330 . S
N572 C576 1.418 1_455 S
C573 H552 0.929 . S
C573 C571 1.446 . S
C573 C574 1.332 1_455 S
C574 H554 0.931 . S
C574 C573 1.332 1_655 S
C574 C575 1.267 . S
C575 H543 0.929 . S
C575 C574 1.267 . S
C575 C576 1.251 . S
C576 H546 0.929 . S
C576 N572 1.418 1_655 S
C576 C575 1.251 . S
C577 H544 0.930 . S
C577 C579 1.406 . S
C577 C582 1.261 . S
C578 H545 0.939 . S
C578 N580 1.325 . S
C578 C581 1.357 . S
C579 H547 0.928 . S
C579 C577 1.406 . S
C579 N580 1.261 . S
N580 Co531 2.214 1_655 S
N580 C578 1.325 . S
N580 C579 1.261 . S
C581 H551 0.931 . S
C581 C578 1.357 . S
C581 C582 1.312 . S
C582 H553 0.930 . S
C582 C577 1.261 . S
C582 C581 1.312 . S
C583 O555 1.214 . S
C583 O563 1.234 . S
C584 H556 0.929 . S
C584 C587 1.391 . S
C584 C589 1.391 . S
C585 H557 0.929 . S
C585 C586 1.390 . S
C585 N588 1.391 . S
C586 H558 0.930 . S
C586 C585 1.390 . S
C586 C587 1.392 . S
C587 H559 0.929 . S
C587 C584 1.391 . S
C587 C586 1.392 . S
N588 Co532 2.257 . S
N588 C585 1.391 . S
N588 C589 1.388 . S
C589 H560 0.930 . S
C589 C584 1.391 . S
C589 N588 1.388 . S
Co590 O592 2.143 . S
Co590 O598 2.074 . S
Co590 O601 2.093 . S
Co590 O614 2.097 . S
Co590 N631 2.151 . S
Co590 N639 2.214 . S
Co591 O592 2.160 . S
Co591 O597 2.058 . S
Co591 O607 2.057 . S
Co591 O622 2.037 . S
Co591 N626 2.145 . S
Co591 N647 2.257 . S
O592 Co590 2.143 . S
O592 Co591 2.160 . S
C593 O594 1.278 . S
C593 O601 1.224 . S
O594 C593 1.278 . S
C595 O596 1.245 . S
C595 O607 1.232 . S
O596 C595 1.245 . S
O597 Co591 2.058 . S
O597 C623 1.269 . S
O598 Co590 2.074 . S
O598 C623 1.257 . S
H599 C624 0.930 . S
H600 C630 0.930 . S
O601 Co590 2.093 . S
O601 C593 1.224 . S
H602 C634 0.929 . S
H603 C636 0.930 . S
H604 C637 0.930 . S
H605 C635 0.929 . S
H606 C638 0.928 . S
O607 Co591 2.057 . S
O607 C595 1.232 . S
H608 C627 0.929 . S
H609 C628 0.929 . S
H610 C640 0.931 . S
H611 C632 0.929 . S
H612 C641 0.930 . S
H613 C633 0.931 . S
O614 Co590 2.097 . S
O614 C642 1.214 . S
H615 C643 0.929 . S
H616 C644 0.929 . S
H617 C645 0.930 . S
H618 C646 0.929 . S
H619 C648 0.930 . S
H620 C625 0.930 . S
H621 C629 0.930 . S
O622 Co591 2.037 . S
O622 C642 1.234 . S
C623 O597 1.269 . S
C623 O598 1.257 . S
C624 H599 0.930 . S
C624 C627 1.388 . S
C624 C629 1.418 . S
C625 H620 0.930 . S
C625 C628 1.404 . S
C625 C629 1.353 . S
N626 Co591 2.145 . S
N626 C627 1.397 . S
N626 C628 1.334 . S
C627 H608 0.929 . S
C627 C624 1.388 . S
C627 N626 1.397 . S
C628 H609 0.929 . S
C628 C625 1.404 . S
C628 N626 1.334 . S
C629 H621 0.930 . S
C629 C624 1.418 . S
C629 C625 1.353 . S
C630 H600 0.930 . S
C630 N631 1.330 . S
C630 C632 1.446 . S
N631 Co590 2.151 . S
N631 C630 1.330 . S
N631 C635 1.418 . S
C632 H611 0.929 . S
C632 C630 1.446 . S
C632 C633 1.332 . S
C633 H613 0.931 . S
C633 C632 1.332 . S
C633 C634 1.267 . S
C634 H602 0.929 . S
C634 C633 1.267 . S
C634 C635 1.251 . S
C635 H605 0.929 . S
C635 N631 1.418 . S
C635 C634 1.251 . S
C636 H603 0.930 . S
C636 C638 1.406 . S
C636 C641 1.261 . S
C637 H604 0.930 . S
C637 N639 1.325 . S
C637 C640 1.357 . S
C638 H606 0.928 . S
C638 C636 1.406 . S
C638 N639 1.261 . S
N639 Co590 2.214 . S
N639 C637 1.325 . S
N639 C638 1.261 . S
C640 H610 0.931 . S
C640 C637 1.357 . S
C640 C641 1.312 . S
C641 H612 0.930 . S
C641 C636 1.261 . S
C641 C640 1.312 . S
C642 O614 1.214 . S
C642 O622 1.234 . S
C643 H615 0.929 . S
C643 C646 1.391 . S
C643 C648 1.391 . S
C644 H616 0.929 . S
C644 C645 1.390 . S
C644 N647 1.391 . S
C645 H617 0.930 . S
C645 C644 1.390 . S
C645 C646 1.392 . S
C646 H618 0.929 . S
C646 C643 1.391 . S
C646 C645 1.392 . S
N647 Co591 2.257 . S
N647 C644 1.391 . S
N647 C648 1.388 . S
C648 H619 0.930 . S
C648 C643 1.391 . S
C648 N647 1.388 . S
Co649 O651 2.143 . S
Co649 O657 2.074 . S
Co649 O660 2.093 . S
Co649 O673 2.097 . S
Co649 N690 2.151 . S
Co649 N698 2.214 . S
Co650 O651 2.160 . S
Co650 O656 2.058 . S
Co650 O666 2.057 . S
Co650 O681 2.037 . S
Co650 N685 2.145 . S
Co650 N706 2.257 . S
O651 Co649 2.143 . S
O651 Co650 2.160 . S
C652 O653 1.278 . S
C652 O660 1.224 . S
O653 C652 1.278 . S
C654 O655 1.245 . S
C654 O666 1.232 . S
O655 C654 1.245 . S
O656 Co650 2.058 . S
O656 C682 1.269 . S
O657 Co649 2.074 . S
O657 C682 1.257 . S
H658 C683 0.930 . S
H659 C689 0.930 . S
O660 Co649 2.093 . S
O660 C652 1.224 . S
H661 C693 0.929 . S
H662 C695 0.930 . S
H663 C696 0.930 . S
H664 C694 0.929 . S
H665 C697 0.928 . S
O666 Co650 2.057 . S
O666 C654 1.232 . S
H667 C686 0.929 . S
H668 C687 0.929 . S
H669 C699 0.931 . S
H670 C691 0.929 . S
H671 C700 0.930 . S
H672 C692 0.931 . S
O673 Co649 2.097 . S
O673 C701 1.214 . S
H674 C702 0.929 . S
H675 C703 0.929 . S
H676 C704 0.930 . S
H677 C705 0.929 . S
H678 C707 0.930 . S
H679 C684 0.906 1_556 S
H680 C688 0.930 . S
O681 Co650 2.037 . S
O681 C701 1.234 . S
C682 O656 1.269 . S
C682 O657 1.257 . S
C683 H658 0.930 . S
C683 C686 1.388 . S
C683 C688 1.418 . S
C684 H679 0.906 1_554 S
C684 C687 1.404 . S
C684 C688 1.353 . S
N685 Co650 2.145 . S
N685 C686 1.397 . S
N685 C687 1.334 . S
C686 H667 0.929 . S
C686 C683 1.388 . S
C686 N685 1.397 . S
C687 H668 0.929 . S
C687 C684 1.404 . S
C687 N685 1.334 . S
C688 H680 0.930 . S
C688 C683 1.418 . S
C688 C684 1.353 . S
C689 H659 0.930 . S
C689 N690 1.330 . S
C689 C691 1.446 . S
N690 Co649 2.151 . S
N690 C689 1.330 . S
N690 C694 1.418 . S
C691 H670 0.929 . S
C691 C689 1.446 . S
C691 C692 1.332 . S
C692 H672 0.931 . S
C692 C691 1.332 . S
C692 C693 1.267 . S
C693 H661 0.929 . S
C693 C692 1.267 . S
C693 C694 1.251 . S
C694 H664 0.929 . S
C694 N690 1.418 . S
C694 C693 1.251 . S
C695 H662 0.930 . S
C695 C697 1.406 . S
C695 C700 1.261 . S
C696 H663 0.930 . S
C696 N698 1.325 . S
C696 C699 1.357 . S
C697 H665 0.928 . S
C697 C695 1.406 . S
C697 N698 1.261 . S
N698 Co649 2.214 . S
N698 C696 1.325 . S
N698 C697 1.261 . S
C699 H669 0.931 . S
C699 C696 1.357 . S
C699 C700 1.312 . S
C700 H671 0.930 . S
C700 C695 1.261 . S
C700 C699 1.312 . S
C701 O673 1.214 . S
C701 O681 1.234 . S
C702 H674 0.929 . S
C702 C705 1.391 . S
C702 C707 1.391 . S
C703 H675 0.929 . S
C703 C704 1.390 . S
C703 N706 1.391 . S
C704 H676 0.930 . S
C704 C703 1.390 . S
C704 C705 1.392 . S
C705 H677 0.929 . S
C705 C702 1.391 . S
C705 C704 1.392 . S
N706 Co650 2.257 . S
N706 C703 1.391 . S
N706 C707 1.388 . S
C707 H678 0.930 . S
C707 C702 1.391 . S
C707 N706 1.388 . S
Co708 O710 2.143 . S
Co708 O716 2.074 . S
Co708 O719 2.093 . S
Co708 O732 2.097 . S
Co708 N749 2.151 . S
Co708 N757 2.214 . S
Co709 O710 2.160 . S
Co709 O715 2.058 . S
Co709 O725 2.057 . S
Co709 O740 2.037 . S
Co709 N744 2.145 . S
Co709 N765 2.257 . S
O710 Co708 2.143 . S
O710 Co709 2.160 . S
C711 O712 1.278 . S
C711 O719 1.224 . S
O712 C711 1.278 . S
C713 O714 1.245 . S
C713 O725 1.232 . S
O714 C713 1.245 . S
O715 Co709 2.058 . S
O715 C741 1.269 . S
O716 Co708 2.074 . S
O716 C741 1.257 . S
H717 C742 0.930 . S
H718 C748 0.930 . S
O719 Co708 2.093 . S
O719 C711 1.224 . S
H720 C752 0.929 . S
H721 C754 0.930 . S
H722 C755 0.930 . S
H723 C753 0.929 . S
H724 C756 0.928 . S
O725 Co709 2.057 . S
O725 C713 1.232 . S
H726 C745 0.929 . S
H727 C746 0.929 . S
H728 C758 0.931 . S
H729 C750 0.929 . S
H730 C759 0.930 . S
H731 C751 0.931 . S
O732 Co708 2.097 . S
O732 C760 1.214 . S
H733 C761 0.929 . S
H734 C762 0.929 . S
H735 C763 0.930 . S
H736 C764 0.929 . S
H737 C766 0.930 . S
H738 C743 0.930 . S
H739 C747 0.930 . S
O740 Co709 2.037 . S
O740 C760 1.234 . S
C741 O715 1.269 . S
C741 O716 1.257 . S
C742 H717 0.930 . S
C742 C745 1.388 . S
C742 C747 1.418 . S
C743 H738 0.930 . S
C743 C746 1.404 . S
C743 C747 1.353 . S
N744 Co709 2.145 . S
N744 C745 1.397 . S
N744 C746 1.334 . S
C745 H726 0.929 . S
C745 C742 1.388 . S
C745 N744 1.397 . S
C746 H727 0.929 . S
C746 C743 1.404 . S
C746 N744 1.334 . S
C747 H739 0.930 . S
C747 C742 1.418 . S
C747 C743 1.353 . S
C748 H718 0.930 . S
C748 N749 1.330 . S
C748 C750 1.446 . S
N749 Co708 2.151 . S
N749 C748 1.330 . S
N749 C753 1.418 . S
C750 H729 0.929 . S
C750 C748 1.446 . S
C750 C751 1.332 . S
C751 H731 0.931 . S
C751 C750 1.332 . S
C751 C752 1.267 . S
C752 H720 0.929 . S
C752 C751 1.267 . S
C752 C753 1.251 . S
C753 H723 0.929 . S
C753 N749 1.418 . S
C753 C752 1.251 . S
C754 H721 0.930 . S
C754 C756 1.406 . S
C754 C759 1.261 . S
C755 H722 0.930 . S
C755 N757 1.325 . S
C755 C758 1.357 . S
C756 H724 0.928 . S
C756 C754 1.406 . S
C756 N757 1.261 . S
N757 Co708 2.214 . S
N757 C755 1.325 . S
N757 C756 1.261 . S
C758 H728 0.931 . S
C758 C755 1.357 . S
C758 C759 1.312 . S
C759 H730 0.930 . S
C759 C754 1.261 . S
C759 C758 1.312 . S
C760 O732 1.214 . S
C760 O740 1.234 . S
C761 H733 0.929 . S
C761 C764 1.391 . S
C761 C766 1.391 . S
C762 H734 0.929 . S
C762 C763 1.390 . S
C762 N765 1.391 . S
C763 H735 0.930 . S
C763 C762 1.390 . S
C763 C764 1.392 . S
C764 H736 0.929 . S
C764 C761 1.391 . S
C764 C763 1.392 . S
N765 Co709 2.257 . S
N765 C762 1.391 . S
N765 C766 1.388 . S
C766 H737 0.930 . S
C766 C761 1.391 . S
C766 N765 1.388 . S
Co767 O769 2.143 . S
Co767 O775 2.074 . S
Co767 O778 2.093 . S
Co767 O791 2.097 . S
Co767 N808 2.151 . S
Co767 N816 2.214 1_655 S
Co768 O769 2.160 . S
Co768 O774 2.058 . S
Co768 O784 2.057 . S
Co768 O799 2.037 . S
Co768 N803 2.145 . S
Co768 N824 2.257 . S
O769 Co767 2.143 . S
O769 Co768 2.160 . S
C770 O771 1.278 . S
C770 O778 1.224 . S
O771 C770 1.278 . S
C772 O773 1.245 . S
C772 O784 1.232 . S
O773 C772 1.245 . S
O774 Co768 2.058 . S
O774 C800 1.269 . S
O775 Co767 2.074 . S
O775 C800 1.257 . S
H776 C801 0.930 . S
H777 C807 0.930 . S
O778 Co767 2.093 . S
O778 C770 1.224 . S
H779 C811 0.929 . S
H780 C813 0.930 . S
H781 C814 0.939 . S
H782 C812 0.929 . S
H783 C815 0.928 . S
O784 Co768 2.057 . S
O784 C772 1.232 . S
H785 C804 0.929 . S
H786 C805 0.929 . S
H787 C817 0.931 . S
H788 C809 0.929 . S
H789 C818 0.930 . S
H790 C810 0.931 . S
O791 Co767 2.097 . S
O791 C819 1.214 . S
H792 C820 0.929 . S
H793 C821 0.929 . S
H794 C822 0.930 . S
H795 C823 0.929 . S
H796 C825 0.930 . S
H797 C802 0.906 1_554 S
H798 C806 0.930 . S
O799 Co768 2.037 . S
O799 C819 1.234 . S
C800 O774 1.269 . S
C800 O775 1.257 . S
C801 H776 0.930 . S
C801 C804 1.388 . S
C801 C806 1.418 . S
C802 H797 0.906 1_556 S
C802 C805 1.404 . S
C802 C806 1.353 . S
N803 Co768 2.145 . S
N803 C804 1.397 . S
N803 C805 1.334 . S
C804 H785 0.929 . S
C804 C801 1.388 . S
C804 N803 1.397 . S
C805 H786 0.929 . S
C805 C802 1.404 . S
C805 N803 1.334 . S
C806 H798 0.930 . S
C806 C801 1.418 . S
C806 C802 1.353 . S
C807 H777 0.930 . S
C807 N808 1.330 . S
C807 C809 1.446 . S
N808 Co767 2.151 . S
N808 C807 1.330 . S
N808 C812 1.418 1_655 S
C809 H788 0.929 . S
C809 C807 1.446 . S
C809 C810 1.332 1_655 S
C810 H790 0.931 . S
C810 C809 1.332 1_455 S
C810 C811 1.267 . S
C811 H779 0.929 . S
C811 C810 1.267 . S
C811 C812 1.251 . S
C812 H782 0.929 . S
C812 N808 1.418 1_455 S
C812 C811 1.251 . S
C813 H780 0.930 . S
C813 C815 1.406 . S
C813 C818 1.261 . S
C814 H781 0.939 . S
C814 N816 1.325 . S
C814 C817 1.357 . S
C815 H783 0.928 . S
C815 C813 1.406 . S
C815 N816 1.261 . S
N816 Co767 2.214 1_455 S
N816 C814 1.325 . S
N816 C815 1.261 . S
C817 H787 0.931 . S
C817 C814 1.357 . S
C817 C818 1.312 . S
C818 H789 0.930 . S
C818 C813 1.261 . S
C818 C817 1.312 . S
C819 O791 1.214 . S
C819 O799 1.234 . S
C820 H792 0.929 . S
C820 C823 1.391 . S
C820 C825 1.391 . S
C821 H793 0.929 . S
C821 C822 1.390 . S
C821 N824 1.391 . S
C822 H794 0.930 . S
C822 C821 1.390 . S
C822 C823 1.392 . S
C823 H795 0.929 . S
C823 C820 1.391 . S
C823 C822 1.392 . S
N824 Co768 2.257 . S
N824 C821 1.391 . S
N824 C825 1.388 . S
C825 H796 0.930 . S
C825 C820 1.391 . S
C825 N824 1.388 . S
Co826 O828 2.143 . S
Co826 O834 2.074 . S
Co826 O837 2.093 . S
Co826 O850 2.097 . S
Co826 N867 2.151 . S
Co826 N875 2.214 . S
Co827 O828 2.160 . S
Co827 O833 2.058 . S
Co827 O843 2.057 . S
Co827 O858 2.037 . S
Co827 N862 2.145 . S
Co827 N883 2.257 . S
O828 Co826 2.143 . S
O828 Co827 2.160 . S
C829 O830 1.278 . S
C829 O837 1.224 . S
O830 C829 1.278 . S
C831 O832 1.245 . S
C831 O843 1.232 . S
O832 C831 1.245 . S
O833 Co827 2.058 . S
O833 C859 1.269 . S
O834 Co826 2.074 . S
O834 C859 1.257 . S
H835 C860 0.930 . S
H836 C866 0.930 . S
O837 Co826 2.093 . S
O837 C829 1.224 . S
H838 C870 0.929 . S
H839 C872 0.930 . S
H840 C873 0.930 . S
H841 C871 0.929 . S
H842 C874 0.928 . S
O843 Co827 2.057 . S
O843 C831 1.232 . S
H844 C863 0.929 . S
H845 C864 0.929 . S
H846 C876 0.931 . S
H847 C868 0.929 . S
H848 C877 0.930 . S
H849 C869 0.931 . S
O850 Co826 2.097 . S
O850 C878 1.214 . S
H851 C879 0.929 . S
H852 C880 0.929 . S
H853 C881 0.930 . S
H854 C882 0.929 . S
H855 C884 0.930 . S
H856 C861 0.930 . S
H857 C865 0.930 . S
O858 Co827 2.037 . S
O858 C878 1.234 . S
C859 O833 1.269 . S
C859 O834 1.257 . S
C860 H835 0.930 . S
C860 C863 1.388 . S
C860 C865 1.418 . S
C861 H856 0.930 . S
C861 C864 1.404 . S
C861 C865 1.353 . S
N862 Co827 2.145 . S
N862 C863 1.397 . S
N862 C864 1.334 . S
C863 H844 0.929 . S
C863 C860 1.388 . S
C863 N862 1.397 . S
C864 H845 0.929 . S
C864 C861 1.404 . S
C864 N862 1.334 . S
C865 H857 0.930 . S
C865 C860 1.418 . S
C865 C861 1.353 . S
C866 H836 0.930 . S
C866 N867 1.330 . S
C866 C868 1.446 . S
N867 Co826 2.151 . S
N867 C866 1.330 . S
N867 C871 1.418 . S
C868 H847 0.929 . S
C868 C866 1.446 . S
C868 C869 1.332 . S
C869 H849 0.931 . S
C869 C868 1.332 . S
C869 C870 1.267 . S
C870 H838 0.929 . S
C870 C869 1.267 . S
C870 C871 1.251 . S
C871 H841 0.929 . S
C871 N867 1.418 . S
C871 C870 1.251 . S
C872 H839 0.930 . S
C872 C874 1.406 . S
C872 C877 1.261 . S
C873 H840 0.930 . S
C873 N875 1.325 . S
C873 C876 1.357 . S
C874 H842 0.928 . S
C874 C872 1.406 . S
C874 N875 1.261 . S
N875 Co826 2.214 . S
N875 C873 1.325 . S
N875 C874 1.261 . S
C876 H846 0.931 . S
C876 C873 1.357 . S
C876 C877 1.312 . S
C877 H848 0.930 . S
C877 C872 1.261 . S
C877 C876 1.312 . S
C878 O850 1.214 . S
C878 O858 1.234 . S
C879 H851 0.929 . S
C879 C882 1.391 . S
C879 C884 1.391 . S
C880 H852 0.929 . S
C880 C881 1.390 . S
C880 N883 1.391 . S
C881 H853 0.930 . S
C881 C880 1.390 . S
C881 C882 1.392 . S
C882 H854 0.929 . S
C882 C879 1.391 . S
C882 C881 1.392 . S
N883 Co827 2.257 . S
N883 C880 1.391 . S
N883 C884 1.388 . S
C884 H855 0.930 . S
C884 C879 1.391 . S
C884 N883 1.388 . S
Co885 O887 2.143 . S
Co885 O893 2.074 . S
Co885 O896 2.093 . S
Co885 O909 2.097 . S
Co885 N926 2.151 . S
Co885 N934 2.214 . S
Co886 O887 2.160 . S
Co886 O892 2.058 . S
Co886 O902 2.057 . S
Co886 O917 2.037 . S
Co886 N921 2.145 . S
Co886 N942 2.257 . S
O887 Co885 2.143 . S
O887 Co886 2.160 . S
C888 O889 1.278 . S
C888 O896 1.224 . S
O889 C888 1.278 . S
C890 O891 1.245 . S
C890 O902 1.232 . S
O891 C890 1.245 . S
O892 Co886 2.058 . S
O892 C918 1.269 . S
O893 Co885 2.074 . S
O893 C918 1.257 . S
H894 C919 0.930 . S
H895 C925 0.930 . S
O896 Co885 2.093 . S
O896 C888 1.224 . S
H897 C929 0.929 . S
H898 C931 0.930 . S
H899 C932 0.930 . S
H900 C930 0.929 . S
H901 C933 0.928 . S
O902 Co886 2.057 . S
O902 C890 1.232 . S
H903 C922 0.929 . S
H904 C923 0.929 . S
H905 C935 0.931 . S
H906 C927 0.929 . S
H907 C936 0.930 . S
H908 C928 0.931 . S
O909 Co885 2.097 . S
O909 C937 1.214 . S
H910 C938 0.929 . S
H911 C939 0.929 . S
H912 C940 0.930 . S
H913 C941 0.929 . S
H914 C943 0.930 . S
H915 C920 0.930 . S
H916 C924 0.930 . S
O917 Co886 2.037 . S
O917 C937 1.234 . S
C918 O892 1.269 . S
C918 O893 1.257 . S
C919 H894 0.930 . S
C919 C922 1.388 . S
C919 C924 1.418 . S
C920 H915 0.930 . S
C920 C923 1.404 . S
C920 C924 1.353 . S
N921 Co886 2.145 . S
N921 C922 1.397 . S
N921 C923 1.334 . S
C922 H903 0.929 . S
C922 C919 1.388 . S
C922 N921 1.397 . S
C923 H904 0.929 . S
C923 C920 1.404 . S
C923 N921 1.334 . S
C924 H916 0.930 . S
C924 C919 1.418 . S
C924 C920 1.353 . S
C925 H895 0.930 . S
C925 N926 1.330 . S
C925 C927 1.446 . S
N926 Co885 2.151 . S
N926 C925 1.330 . S
N926 C930 1.418 . S
C927 H906 0.929 . S
C927 C925 1.446 . S
C927 C928 1.332 . S
C928 H908 0.931 . S
C928 C927 1.332 . S
C928 C929 1.267 . S
C929 H897 0.929 . S
C929 C928 1.267 . S
C929 C930 1.251 . S
C930 H900 0.929 . S
C930 N926 1.418 . S
C930 C929 1.251 . S
C931 H898 0.930 . S
C931 C933 1.406 . S
C931 C936 1.261 . S
C932 H899 0.930 . S
C932 N934 1.325 . S
C932 C935 1.357 . S
C933 H901 0.928 . S
C933 C931 1.406 . S
C933 N934 1.261 . S
N934 Co885 2.214 . S
N934 C932 1.325 . S
N934 C933 1.261 . S
C935 H905 0.931 . S
C935 C932 1.357 . S
C935 C936 1.312 . S
C936 H907 0.930 . S
C936 C931 1.261 . S
C936 C935 1.312 . S
C937 O909 1.214 . S
C937 O917 1.234 . S
C938 H910 0.929 . S
C938 C941 1.391 . S
C938 C943 1.391 . S
C939 H911 0.929 . S
C939 C940 1.390 . S
C939 N942 1.391 . S
C940 H912 0.930 . S
C940 C939 1.390 . S
C940 C941 1.392 . S
C941 H913 0.929 . S
C941 C938 1.391 . S
C941 C940 1.392 . S
N942 Co886 2.257 . S
N942 C939 1.391 . S
N942 C943 1.388 . S
C943 H914 0.930 . S
C943 C938 1.391 . S
C943 N942 1.388 . S
Co944 O946 2.143 . S
Co944 O952 2.074 . S
Co944 O955 2.093 . S
Co944 O968 2.097 . S
Co944 N985 2.151 . S
Co944 N993 2.214 . S
Co945 O946 2.160 . S
Co945 O951 2.058 . S
Co945 O961 2.057 . S
Co945 O976 2.037 . S
Co945 N980 2.145 . S
Co945 N1001 2.257 . S
O946 Co944 2.143 . S
O946 Co945 2.160 . S
C947 O948 1.278 . S
C947 O955 1.224 . S
O948 C947 1.278 . S
C949 O950 1.245 . S
C949 O961 1.232 . S
O950 C949 1.245 . S
O951 Co945 2.058 . S
O951 C977 1.269 . S
O952 Co944 2.074 . S
O952 C977 1.257 . S
H953 C978 0.930 . S
H954 C984 0.930 . S
O955 Co944 2.093 . S
O955 C947 1.224 . S
H956 C988 0.929 . S
H957 C990 0.930 . S
H958 C991 0.930 . S
H959 C989 0.929 . S
H960 C992 0.928 . S
O961 Co945 2.057 . S
O961 C949 1.232 . S
H962 C981 0.929 . S
H963 C982 0.929 . S
H964 C994 0.931 . S
H965 C986 0.929 . S
H966 C995 0.930 . S
H967 C987 0.931 . S
O968 Co944 2.097 . S
O968 C996 1.214 . S
H969 C997 0.929 . S
H970 C998 0.929 . S
H971 C999 0.930 . S
H972 C1000 0.929 . S
H973 C1002 0.930 . S
H974 C979 0.930 . S
H975 C983 0.930 . S
O976 Co945 2.037 . S
O976 C996 1.234 . S
C977 O951 1.269 . S
C977 O952 1.257 . S
C978 H953 0.930 . S
C978 C981 1.388 . S
C978 C983 1.418 . S
C979 H974 0.930 . S
C979 C982 1.404 . S
C979 C983 1.353 . S
N980 Co945 2.145 . S
N980 C981 1.397 . S
N980 C982 1.334 . S
C981 H962 0.929 . S
C981 C978 1.388 . S
C981 N980 1.397 . S
C982 H963 0.929 . S
C982 C979 1.404 . S
C982 N980 1.334 . S
C983 H975 0.930 . S
C983 C978 1.418 . S
C983 C979 1.353 . S
C984 H954 0.930 . S
C984 N985 1.330 . S
C984 C986 1.446 . S
N985 Co944 2.151 . S
N985 C984 1.330 . S
N985 C989 1.418 . S
C986 H965 0.929 . S
C986 C984 1.446 . S
C986 C987 1.332 . S
C987 H967 0.931 . S
C987 C986 1.332 . S
C987 C988 1.267 . S
C988 H956 0.929 . S
C988 C987 1.267 . S
C988 C989 1.251 . S
C989 H959 0.929 . S
C989 N985 1.418 . S
C989 C988 1.251 . S
C990 H957 0.930 . S
C990 C992 1.406 . S
C990 C995 1.261 . S
C991 H958 0.930 . S
C991 N993 1.325 . S
C991 C994 1.357 . S
C992 H960 0.928 . S
C992 C990 1.406 . S
C992 N993 1.261 . S
N993 Co944 2.214 . S
N993 C991 1.325 . S
N993 C992 1.261 . S
C994 H964 0.931 . S
C994 C991 1.357 . S
C994 C995 1.312 . S
C995 H966 0.930 . S
C995 C990 1.261 . S
C995 C994 1.312 . S
C996 O968 1.214 . S
C996 O976 1.234 . S
C997 H969 0.929 . S
C997 C1000 1.391 . S
C997 C1002 1.391 . S
C998 H970 0.929 . S
C998 C999 1.390 . S
C998 N1001 1.391 . S
C999 H971 0.930 . S
C999 C998 1.390 . S
C999 C1000 1.392 . S
C1000 H972 0.929 . S
C1000 C997 1.391 . S
C1000 C999 1.392 . S
N1001 Co945 2.257 . S
N1001 C998 1.391 . S
N1001 C1002 1.388 . S
C1002 H973 0.930 . S
C1002 C997 1.391 . S
C1002 N1001 1.388 . S
Co1003 O1005 2.143 . S
Co1003 O1011 2.074 . S
Co1003 O1014 2.093 . S
Co1003 O1027 2.097 . S
Co1003 N1044 2.151 . S
Co1003 N1052 2.214 . S
Co1004 O1005 2.160 . S
Co1004 O1010 2.058 . S
Co1004 O1020 2.057 . S
Co1004 O1035 2.037 . S
Co1004 N1039 2.145 . S
Co1004 N1060 2.257 . S
O1005 Co1003 2.143 . S
O1005 Co1004 2.160 . S
C1006 O1007 1.278 . S
C1006 O1014 1.224 . S
O1007 C1006 1.278 . S
C1008 O1009 1.245 . S
C1008 O1020 1.232 . S
O1009 C1008 1.245 . S
O1010 Co1004 2.058 . S
O1010 C1036 1.269 . S
O1011 Co1003 2.074 . S
O1011 C1036 1.257 . S
H1012 C1037 0.930 . S
H1013 C1043 0.930 . S
O1014 Co1003 2.093 . S
O1014 C1006 1.224 . S
H1015 C1047 0.929 . S
H1016 C1049 0.930 . S
H1017 C1050 0.930 . S
H1018 C1048 0.929 . S
H1019 C1051 0.928 . S
O1020 Co1004 2.057 . S
O1020 C1008 1.232 . S
H1021 C1040 0.929 . S
H1022 C1041 0.929 . S
H1023 C1053 0.931 . S
H1024 C1045 0.929 . S
H1025 C1054 0.930 . S
H1026 C1046 0.931 . S
O1027 Co1003 2.097 . S
O1027 C1055 1.214 . S
H1028 C1056 0.929 . S
H1029 C1057 0.929 . S
H1030 C1058 0.930 . S
H1031 C1059 0.929 . S
H1032 C1061 0.930 . S
H1033 C1038 0.930 . S
H1034 C1042 0.930 . S
O1035 Co1004 2.037 . S
O1035 C1055 1.234 . S
C1036 O1010 1.269 . S
C1036 O1011 1.257 . S
C1037 H1012 0.930 . S
C1037 C1040 1.388 . S
C1037 C1042 1.418 . S
C1038 H1033 0.930 . S
C1038 C1041 1.404 . S
C1038 C1042 1.353 . S
N1039 Co1004 2.145 . S
N1039 C1040 1.397 . S
N1039 C1041 1.334 . S
C1040 H1021 0.929 . S
C1040 C1037 1.388 . S
C1040 N1039 1.397 . S
C1041 H1022 0.929 . S
C1041 C1038 1.404 . S
C1041 N1039 1.334 . S
C1042 H1034 0.930 . S
C1042 C1037 1.418 . S
C1042 C1038 1.353 . S
C1043 H1013 0.930 . S
C1043 N1044 1.330 . S
C1043 C1045 1.446 . S
N1044 Co1003 2.151 . S
N1044 C1043 1.330 . S
N1044 C1048 1.418 . S
C1045 H1024 0.929 . S
C1045 C1043 1.446 . S
C1045 C1046 1.332 . S
C1046 H1026 0.931 . S
C1046 C1045 1.332 . S
C1046 C1047 1.267 . S
C1047 H1015 0.929 . S
C1047 C1046 1.267 . S
C1047 C1048 1.251 . S
C1048 H1018 0.929 . S
C1048 N1044 1.418 . S
C1048 C1047 1.251 . S
C1049 H1016 0.930 . S
C1049 C1051 1.406 . S
C1049 C1054 1.261 . S
C1050 H1017 0.930 . S
C1050 N1052 1.325 . S
C1050 C1053 1.357 . S
C1051 H1019 0.928 . S
C1051 C1049 1.406 . S
C1051 N1052 1.261 . S
N1052 Co1003 2.214 . S
N1052 C1050 1.325 . S
N1052 C1051 1.261 . S
C1053 H1023 0.931 . S
C1053 C1050 1.357 . S
C1053 C1054 1.312 . S
C1054 H1025 0.930 . S
C1054 C1049 1.261 . S
C1054 C1053 1.312 . S
C1055 O1027 1.214 . S
C1055 O1035 1.234 . S
C1056 H1028 0.929 . S
C1056 C1059 1.391 . S
C1056 C1061 1.391 . S
C1057 H1029 0.929 . S
C1057 C1058 1.390 . S
C1057 N1060 1.391 . S
C1058 H1030 0.930 . S
C1058 C1057 1.390 . S
C1058 C1059 1.392 . S
C1059 H1031 0.929 . S
C1059 C1056 1.391 . S
C1059 C1058 1.392 . S
N1060 Co1004 2.257 . S
N1060 C1057 1.391 . S
N1060 C1061 1.388 . S
C1061 H1032 0.930 . S
C1061 C1056 1.391 . S
C1061 N1060 1.388 . S
Co1062 O1064 2.143 . S
Co1062 O1070 2.074 . S
Co1062 O1073 2.093 . S
Co1062 O1086 2.097 . S
Co1062 N1103 2.151 . S
Co1062 N1111 2.214 1_554 S
Co1063 O1064 2.160 . S
Co1063 O1069 2.058 . S
Co1063 O1079 2.057 . S
Co1063 O1094 2.037 . S
Co1063 N1098 2.145 . S
Co1063 N1119 2.257 . S
O1064 Co1062 2.143 . S
O1064 Co1063 2.160 . S
C1065 O1066 1.278 . S
C1065 O1073 1.224 . S
O1066 C1065 1.278 . S
C1067 O1068 1.245 . S
C1067 O1079 1.232 . S
O1068 C1067 1.245 . S
O1069 Co1063 2.058 . S
O1069 C1095 1.269 . S
O1070 Co1062 2.074 . S
O1070 C1095 1.257 . S
H1071 C1096 0.930 . S
H1072 C1102 0.930 . S
O1073 Co1062 2.093 . S
O1073 C1065 1.224 . S
H1074 C1106 0.929 . S
H1075 C1108 0.930 . S
H1076 C1109 0.939 . S
H1077 C1107 0.929 . S
H1078 C1110 0.928 . S
O1079 Co1063 2.057 . S
O1079 C1067 1.232 . S
H1080 C1099 0.929 . S
H1081 C1100 0.929 . S
H1082 C1112 0.931 . S
H1083 C1104 0.929 . S
H1084 C1113 0.930 . S
H1085 C1105 0.931 . S
O1086 Co1062 2.097 . S
O1086 C1114 1.214 . S
H1087 C1115 0.929 . S
H1088 C1116 0.929 . S
H1089 C1117 0.930 . S
H1090 C1118 0.929 . S
H1091 C1120 0.930 . S
H1092 C1097 0.930 . S
H1093 C1101 0.930 . S
O1094 Co1063 2.037 . S
O1094 C1114 1.234 . S
C1095 O1069 1.269 . S
C1095 O1070 1.257 . S
C1096 H1071 0.930 . S
C1096 C1099 1.388 . S
C1096 C1101 1.418 . S
C1097 H1092 0.930 . S
C1097 C1100 1.404 . S
C1097 C1101 1.353 . S
N1098 Co1063 2.145 . S
N1098 C1099 1.397 . S
N1098 C1100 1.334 . S
C1099 H1080 0.929 . S
C1099 C1096 1.388 . S
C1099 N1098 1.397 . S
C1100 H1081 0.929 . S
C1100 C1097 1.404 . S
C1100 N1098 1.334 . S
C1101 H1093 0.930 . S
C1101 C1096 1.418 . S
C1101 C1097 1.353 . S
C1102 H1072 0.930 . S
C1102 N1103 1.330 . S
C1102 C1104 1.446 . S
N1103 Co1062 2.151 . S
N1103 C1102 1.330 . S
N1103 C1107 1.418 1_554 S
C1104 H1083 0.929 . S
C1104 C1102 1.446 . S
C1104 C1105 1.332 1_554 S
C1105 H1085 0.931 . S
C1105 C1104 1.332 1_556 S
C1105 C1106 1.267 . S
C1106 H1074 0.929 . S
C1106 C1105 1.267 . S
C1106 C1107 1.251 . S
C1107 H1077 0.929 . S
C1107 N1103 1.418 1_556 S
C1107 C1106 1.251 . S
C1108 H1075 0.930 . S
C1108 C1110 1.406 . S
C1108 C1113 1.261 . S
C1109 H1076 0.939 . S
C1109 N1111 1.325 . S
C1109 C1112 1.357 . S
C1110 H1078 0.928 . S
C1110 C1108 1.406 . S
C1110 N1111 1.261 . S
N1111 Co1062 2.214 1_556 S
N1111 C1109 1.325 . S
N1111 C1110 1.261 . S
C1112 H1082 0.931 . S
C1112 C1109 1.357 . S
C1112 C1113 1.312 . S
C1113 H1084 0.930 . S
C1113 C1108 1.261 . S
C1113 C1112 1.312 . S
C1114 O1086 1.214 . S
C1114 O1094 1.234 . S
C1115 H1087 0.929 . S
C1115 C1118 1.391 . S
C1115 C1120 1.391 . S
C1116 H1088 0.929 . S
C1116 C1117 1.390 . S
C1116 N1119 1.391 . S
C1117 H1089 0.930 . S
C1117 C1116 1.390 . S
C1117 C1118 1.392 . S
C1118 H1090 0.929 . S
C1118 C1115 1.391 . S
C1118 C1117 1.392 . S
N1119 Co1063 2.257 . S
N1119 C1116 1.391 . S
N1119 C1120 1.388 . S
C1120 H1091 0.930 . S
C1120 C1115 1.391 . S
C1120 N1119 1.388 . S
Co1121 O1123 2.143 . S
Co1121 O1129 2.074 . S
Co1121 O1132 2.093 . S
Co1121 O1145 2.097 . S
Co1121 N1162 2.151 . S
Co1121 N1170 2.214 . S
Co1122 O1123 2.160 . S
Co1122 O1128 2.058 . S
Co1122 O1138 2.057 . S
Co1122 O1153 2.037 . S
Co1122 N1157 2.145 . S
Co1122 N1178 2.257 . S
O1123 Co1121 2.143 . S
O1123 Co1122 2.160 . S
C1124 O1125 1.278 . S
C1124 O1132 1.224 . S
O1125 C1124 1.278 . S
C1126 O1127 1.245 . S
C1126 O1138 1.232 . S
O1127 C1126 1.245 . S
O1128 Co1122 2.058 . S
O1128 C1154 1.269 . S
O1129 Co1121 2.074 . S
O1129 C1154 1.257 . S
H1130 C1155 0.930 . S
H1131 C1161 0.930 . S
O1132 Co1121 2.093 . S
O1132 C1124 1.224 . S
H1133 C1165 0.929 . S
H1134 C1167 0.930 . S
H1135 C1168 0.930 . S
H1136 C1166 0.929 . S
H1137 C1169 0.928 . S
O1138 Co1122 2.057 . S
O1138 C1126 1.232 . S
H1139 C1158 0.929 . S
H1140 C1159 0.929 . S
H1141 C1171 0.931 . S
H1142 C1163 0.929 . S
H1143 C1172 0.930 . S
H1144 C1164 0.931 . S
O1145 Co1121 2.097 . S
O1145 C1173 1.214 . S
H1146 C1174 0.929 . S
H1147 C1175 0.929 . S
H1148 C1176 0.930 . S
H1149 C1177 0.929 . S
H1150 C1179 0.930 . S
H1151 C1156 0.930 . S
H1152 C1160 0.930 . S
O1153 Co1122 2.037 . S
O1153 C1173 1.234 . S
C1154 O1128 1.269 . S
C1154 O1129 1.257 . S
C1155 H1130 0.930 . S
C1155 C1158 1.388 . S
C1155 C1160 1.418 . S
C1156 H1151 0.930 . S
C1156 C1159 1.404 . S
C1156 C1160 1.353 . S
N1157 Co1122 2.145 . S
N1157 C1158 1.397 . S
N1157 C1159 1.334 . S
C1158 H1139 0.929 . S
C1158 C1155 1.388 . S
C1158 N1157 1.397 . S
C1159 H1140 0.929 . S
C1159 C1156 1.404 . S
C1159 N1157 1.334 . S
C1160 H1152 0.930 . S
C1160 C1155 1.418 . S
C1160 C1156 1.353 . S
C1161 H1131 0.930 . S
C1161 N1162 1.330 . S
C1161 C1163 1.446 . S
N1162 Co1121 2.151 . S
N1162 C1161 1.330 . S
N1162 C1166 1.418 . S
C1163 H1142 0.929 . S
C1163 C1161 1.446 . S
C1163 C1164 1.332 . S
C1164 H1144 0.931 . S
C1164 C1163 1.332 . S
C1164 C1165 1.267 . S
C1165 H1133 0.929 . S
C1165 C1164 1.267 . S
C1165 C1166 1.251 . S
C1166 H1136 0.929 . S
C1166 N1162 1.418 . S
C1166 C1165 1.251 . S
C1167 H1134 0.930 . S
C1167 C1169 1.406 . S
C1167 C1172 1.261 . S
C1168 H1135 0.930 . S
C1168 N1170 1.325 . S
C1168 C1171 1.357 . S
C1169 H1137 0.928 . S
C1169 C1167 1.406 . S
C1169 N1170 1.261 . S
N1170 Co1121 2.214 . S
N1170 C1168 1.325 . S
N1170 C1169 1.261 . S
C1171 H1141 0.931 . S
C1171 C1168 1.357 . S
C1171 C1172 1.312 . S
C1172 H1143 0.930 . S
C1172 C1167 1.261 . S
C1172 C1171 1.312 . S
C1173 O1145 1.214 . S
C1173 O1153 1.234 . S
C1174 H1146 0.929 . S
C1174 C1177 1.391 . S
C1174 C1179 1.391 . S
C1175 H1147 0.929 . S
C1175 C1176 1.390 . S
C1175 N1178 1.391 . S
C1176 H1148 0.930 . S
C1176 C1175 1.390 . S
C1176 C1177 1.392 . S
C1177 H1149 0.929 . S
C1177 C1174 1.391 . S
C1177 C1176 1.392 . S
N1178 Co1122 2.257 . S
N1178 C1175 1.391 . S
N1178 C1179 1.388 . S
C1179 H1150 0.930 . S
C1179 C1174 1.391 . S
C1179 N1178 1.388 . S
Co1180 O1182 2.143 . S
Co1180 O1188 2.074 . S
Co1180 O1191 2.093 . S
Co1180 O1204 2.097 . S
Co1180 N1221 2.151 . S
Co1180 N1229 2.214 . S
Co1181 O1182 2.160 . S
Co1181 O1187 2.058 . S
Co1181 O1197 2.057 . S
Co1181 O1212 2.037 . S
Co1181 N1216 2.145 . S
Co1181 N1237 2.257 . S
O1182 Co1180 2.143 . S
O1182 Co1181 2.160 . S
C1183 O1184 1.278 . S
C1183 O1191 1.224 . S
O1184 C1183 1.278 . S
C1185 O1186 1.245 . S
C1185 O1197 1.232 . S
O1186 C1185 1.245 . S
O1187 Co1181 2.058 . S
O1187 C1213 1.269 . S
O1188 Co1180 2.074 . S
O1188 C1213 1.257 . S
H1189 C1214 0.930 . S
H1190 C1220 0.930 . S
O1191 Co1180 2.093 . S
O1191 C1183 1.224 . S
H1192 C1224 0.929 . S
H1193 C1226 0.930 . S
H1194 C1227 0.930 . S
H1195 C1225 0.929 . S
H1196 C1228 0.928 . S
O1197 Co1181 2.057 . S
O1197 C1185 1.232 . S
H1198 C1217 0.929 . S
H1199 C1218 0.929 . S
H1200 C1230 0.931 . S
H1201 C1222 0.929 . S
H1202 C1231 0.930 . S
H1203 C1223 0.931 . S
O1204 Co1180 2.097 . S
O1204 C1232 1.214 . S
H1205 C1233 0.929 . S
H1206 C1234 0.929 . S
H1207 C1235 0.930 . S
H1208 C1236 0.929 . S
H1209 C1238 0.930 . S
H1210 C1215 0.930 . S
H1211 C1219 0.930 . S
O1212 Co1181 2.037 . S
O1212 C1232 1.234 . S
C1213 O1187 1.269 . S
C1213 O1188 1.257 . S
C1214 H1189 0.930 . S
C1214 C1217 1.388 . S
C1214 C1219 1.418 . S
C1215 H1210 0.930 . S
C1215 C1218 1.404 . S
C1215 C1219 1.353 . S
N1216 Co1181 2.145 . S
N1216 C1217 1.397 . S
N1216 C1218 1.334 . S
C1217 H1198 0.929 . S
C1217 C1214 1.388 . S
C1217 N1216 1.397 . S
C1218 H1199 0.929 . S
C1218 C1215 1.404 . S
C1218 N1216 1.334 . S
C1219 H1211 0.930 . S
C1219 C1214 1.418 . S
C1219 C1215 1.353 . S
C1220 H1190 0.930 . S
C1220 N1221 1.330 . S
C1220 C1222 1.446 . S
N1221 Co1180 2.151 . S
N1221 C1220 1.330 . S
N1221 C1225 1.418 . S
C1222 H1201 0.929 . S
C1222 C1220 1.446 . S
C1222 C1223 1.332 . S
C1223 H1203 0.931 . S
C1223 C1222 1.332 . S
C1223 C1224 1.267 . S
C1224 H1192 0.929 . S
C1224 C1223 1.267 . S
C1224 C1225 1.251 . S
C1225 H1195 0.929 . S
C1225 N1221 1.418 . S
C1225 C1224 1.251 . S
C1226 H1193 0.930 . S
C1226 C1228 1.406 . S
C1226 C1231 1.261 . S
C1227 H1194 0.930 . S
C1227 N1229 1.325 . S
C1227 C1230 1.357 . S
C1228 H1196 0.928 . S
C1228 C1226 1.406 . S
C1228 N1229 1.261 . S
N1229 Co1180 2.214 . S
N1229 C1227 1.325 . S
N1229 C1228 1.261 . S
C1230 H1200 0.931 . S
C1230 C1227 1.357 . S
C1230 C1231 1.312 . S
C1231 H1202 0.930 . S
C1231 C1226 1.261 . S
C1231 C1230 1.312 . S
C1232 O1204 1.214 . S
C1232 O1212 1.234 . S
C1233 H1205 0.929 . S
C1233 C1236 1.391 . S
C1233 C1238 1.391 . S
C1234 H1206 0.929 . S
C1234 C1235 1.390 . S
C1234 N1237 1.391 . S
C1235 H1207 0.930 . S
C1235 C1234 1.390 . S
C1235 C1236 1.392 . S
C1236 H1208 0.929 . S
C1236 C1233 1.391 . S
C1236 C1235 1.392 . S
N1237 Co1181 2.257 . S
N1237 C1234 1.391 . S
N1237 C1238 1.388 . S
C1238 H1209 0.930 . S
C1238 C1233 1.391 . S
C1238 N1237 1.388 . S
Co1239 O1241 2.143 . S
Co1239 O1247 2.074 . S
Co1239 O1250 2.093 . S
Co1239 O1263 2.097 . S
Co1239 N1280 2.151 . S
Co1239 N1288 2.214 . S
Co1240 O1241 2.160 . S
Co1240 O1246 2.058 . S
Co1240 O1256 2.057 . S
Co1240 O1271 2.037 . S
Co1240 N1275 2.145 . S
Co1240 N1296 2.257 . S
O1241 Co1239 2.143 . S
O1241 Co1240 2.160 . S
C1242 O1243 1.278 . S
C1242 O1250 1.224 . S
O1243 C1242 1.278 . S
C1244 O1245 1.245 . S
C1244 O1256 1.232 . S
O1245 C1244 1.245 . S
O1246 Co1240 2.058 . S
O1246 C1272 1.269 . S
O1247 Co1239 2.074 . S
O1247 C1272 1.257 . S
H1248 C1273 0.930 . S
H1249 C1279 0.930 . S
O1250 Co1239 2.093 . S
O1250 C1242 1.224 . S
H1251 C1283 0.929 . S
H1252 C1285 0.930 . S
H1253 C1286 0.930 . S
H1254 C1284 0.929 . S
H1255 C1287 0.928 . S
O1256 Co1240 2.057 . S
O1256 C1244 1.232 . S
H1257 C1276 0.929 . S
H1258 C1277 0.929 . S
H1259 C1289 0.931 . S
H1260 C1281 0.929 . S
H1261 C1290 0.930 . S
H1262 C1282 0.931 . S
O1263 Co1239 2.097 . S
O1263 C1291 1.214 . S
H1264 C1292 0.929 . S
H1265 C1293 0.929 . S
H1266 C1294 0.930 . S
H1267 C1295 0.929 . S
H1268 C1297 0.930 . S
H1269 C1274 0.930 . S
H1270 C1278 0.930 . S
O1271 Co1240 2.037 . S
O1271 C1291 1.234 . S
C1272 O1246 1.269 . S
C1272 O1247 1.257 . S
C1273 H1248 0.930 . S
C1273 C1276 1.388 . S
C1273 C1278 1.418 . S
C1274 H1269 0.930 . S
C1274 C1277 1.404 . S
C1274 C1278 1.353 . S
N1275 Co1240 2.145 . S
N1275 C1276 1.397 . S
N1275 C1277 1.334 . S
C1276 H1257 0.929 . S
C1276 C1273 1.388 . S
C1276 N1275 1.397 . S
C1277 H1258 0.929 . S
C1277 C1274 1.404 . S
C1277 N1275 1.334 . S
C1278 H1270 0.930 . S
C1278 C1273 1.418 . S
C1278 C1274 1.353 . S
C1279 H1249 0.930 . S
C1279 N1280 1.330 . S
C1279 C1281 1.446 . S
N1280 Co1239 2.151 . S
N1280 C1279 1.330 . S
N1280 C1284 1.418 . S
C1281 H1260 0.929 . S
C1281 C1279 1.446 . S
C1281 C1282 1.332 . S
C1282 H1262 0.931 . S
C1282 C1281 1.332 . S
C1282 C1283 1.267 . S
C1283 H1251 0.929 . S
C1283 C1282 1.267 . S
C1283 C1284 1.251 . S
C1284 H1254 0.929 . S
C1284 N1280 1.418 . S
C1284 C1283 1.251 . S
C1285 H1252 0.930 . S
C1285 C1287 1.406 . S
C1285 C1290 1.261 . S
C1286 H1253 0.930 . S
C1286 N1288 1.325 . S
C1286 C1289 1.357 . S
C1287 H1255 0.928 . S
C1287 C1285 1.406 . S
C1287 N1288 1.261 . S
N1288 Co1239 2.214 . S
N1288 C1286 1.325 . S
N1288 C1287 1.261 . S
C1289 H1259 0.931 . S
C1289 C1286 1.357 . S
C1289 C1290 1.312 . S
C1290 H1261 0.930 . S
C1290 C1285 1.261 . S
C1290 C1289 1.312 . S
C1291 O1263 1.214 . S
C1291 O1271 1.234 . S
C1292 H1264 0.929 . S
C1292 C1295 1.391 . S
C1292 C1297 1.391 . S
C1293 H1265 0.929 . S
C1293 C1294 1.390 . S
C1293 N1296 1.391 . S
C1294 H1266 0.930 . S
C1294 C1293 1.390 . S
C1294 C1295 1.392 . S
C1295 H1267 0.929 . S
C1295 C1292 1.391 . S
C1295 C1294 1.392 . S
N1296 Co1240 2.257 . S
N1296 C1293 1.391 . S
N1296 C1297 1.388 . S
C1297 H1268 0.930 . S
C1297 C1292 1.391 . S
C1297 N1296 1.388 . S
Co1298 O1300 2.143 . S
Co1298 O1306 2.074 . S
Co1298 O1309 2.093 . S
Co1298 O1322 2.097 . S
Co1298 N1339 2.151 . S
Co1298 N1347 2.214 1_556 S
Co1299 O1300 2.160 . S
Co1299 O1305 2.058 . S
Co1299 O1315 2.057 . S
Co1299 O1330 2.037 . S
Co1299 N1334 2.145 . S
Co1299 N1355 2.257 . S
O1300 Co1298 2.143 . S
O1300 Co1299 2.160 . S
C1301 O1302 1.278 . S
C1301 O1309 1.224 . S
O1302 C1301 1.278 . S
C1303 O1304 1.245 . S
C1303 O1315 1.232 . S
O1304 C1303 1.245 . S
O1305 Co1299 2.058 . S
O1305 C1331 1.269 . S
O1306 Co1298 2.074 . S
O1306 C1331 1.257 . S
H1307 C1332 0.930 . S
H1308 C1338 0.930 . S
O1309 Co1298 2.093 . S
O1309 C1301 1.224 . S
H1310 C1342 0.929 . S
H1311 C1344 0.930 . S
H1312 C1345 0.939 . S
H1313 C1343 0.929 . S
H1314 C1346 0.928 . S
O1315 Co1299 2.057 . S
O1315 C1303 1.232 . S
H1316 C1335 0.929 . S
H1317 C1336 0.929 . S
H1318 C1348 0.931 . S
H1319 C1340 0.929 . S
H1320 C1349 0.930 . S
H1321 C1341 0.931 . S
O1322 Co1298 2.097 . S
O1322 C1350 1.214 . S
H1323 C1351 0.929 . S
H1324 C1352 0.929 . S
H1325 C1353 0.930 . S
H1326 C1354 0.929 . S
H1327 C1356 0.930 . S
H1328 C1333 0.906 1_545 S
H1329 C1337 0.930 . S
O1330 Co1299 2.037 . S
O1330 C1350 1.234 . S
C1331 O1305 1.269 . S
C1331 O1306 1.257 . S
C1332 H1307 0.930 . S
C1332 C1335 1.388 . S
C1332 C1337 1.418 . S
C1333 H1328 0.906 1_565 S
C1333 C1336 1.404 . S
C1333 C1337 1.353 . S
N1334 Co1299 2.145 . S
N1334 C1335 1.397 . S
N1334 C1336 1.334 . S
C1335 H1316 0.929 . S
C1335 C1332 1.388 . S
C1335 N1334 1.397 . S
C1336 H1317 0.929 . S
C1336 C1333 1.404 . S
C1336 N1334 1.334 . S
C1337 H1329 0.930 . S
C1337 C1332 1.418 . S
C1337 C1333 1.353 . S
C1338 H1308 0.930 . S
C1338 N1339 1.330 . S
C1338 C1340 1.446 . S
N1339 Co1298 2.151 . S
N1339 C1338 1.330 . S
N1339 C1343 1.418 1_556 S
C1340 H1319 0.929 . S
C1340 C1338 1.446 . S
C1340 C1341 1.332 1_556 S
C1341 H1321 0.931 . S
C1341 C1340 1.332 1_554 S
C1341 C1342 1.267 . S
C1342 H1310 0.929 . S
C1342 C1341 1.267 . S
C1342 C1343 1.251 . S
C1343 H1313 0.929 . S
C1343 N1339 1.418 1_554 S
C1343 C1342 1.251 . S
C1344 H1311 0.930 . S
C1344 C1346 1.406 . S
C1344 C1349 1.261 . S
C1345 H1312 0.939 . S
C1345 N1347 1.325 . S
C1345 C1348 1.357 . S
C1346 H1314 0.928 . S
C1346 C1344 1.406 . S
C1346 N1347 1.261 . S
N1347 Co1298 2.214 1_554 S
N1347 C1345 1.325 . S
N1347 C1346 1.261 . S
C1348 H1318 0.931 . S
C1348 C1345 1.357 . S
C1348 C1349 1.312 . S
C1349 H1320 0.930 . S
C1349 C1344 1.261 . S
C1349 C1348 1.312 . S
C1350 O1322 1.214 . S
C1350 O1330 1.234 . S
C1351 H1323 0.929 . S
C1351 C1354 1.391 . S
C1351 C1356 1.391 . S
C1352 H1324 0.929 . S
C1352 C1353 1.390 . S
C1352 N1355 1.391 . S
C1353 H1325 0.930 . S
C1353 C1352 1.390 . S
C1353 C1354 1.392 . S
C1354 H1326 0.929 . S
C1354 C1351 1.391 . S
C1354 C1353 1.392 . S
N1355 Co1299 2.257 . S
N1355 C1352 1.391 . S
N1355 C1356 1.388 . S
C1356 H1327 0.930 . S
C1356 C1351 1.391 . S
C1356 N1355 1.388 . S
Co1357 O1359 2.143 . S
Co1357 O1365 2.074 . S
Co1357 O1368 2.093 . S
Co1357 O1381 2.097 . S
Co1357 N1398 2.151 . S
Co1357 N1406 2.214 . S
Co1358 O1359 2.160 . S
Co1358 O1364 2.058 . S
Co1358 O1374 2.057 . S
Co1358 O1389 2.037 . S
Co1358 N1393 2.145 . S
Co1358 N1414 2.257 . S
O1359 Co1357 2.143 . S
O1359 Co1358 2.160 . S
C1360 O1361 1.278 . S
C1360 O1368 1.224 . S
O1361 C1360 1.278 . S
C1362 O1363 1.245 . S
C1362 O1374 1.232 . S
O1363 C1362 1.245 . S
O1364 Co1358 2.058 . S
O1364 C1390 1.269 . S
O1365 Co1357 2.074 . S
O1365 C1390 1.257 . S
H1366 C1391 0.930 . S
H1367 C1397 0.930 . S
O1368 Co1357 2.093 . S
O1368 C1360 1.224 . S
H1369 C1401 0.929 . S
H1370 C1403 0.930 . S
H1371 C1404 0.930 . S
H1372 C1402 0.929 . S
H1373 C1405 0.928 . S
O1374 Co1358 2.057 . S
O1374 C1362 1.232 . S
H1375 C1394 0.929 . S
H1376 C1395 0.929 . S
H1377 C1407 0.931 . S
H1378 C1399 0.929 . S
H1379 C1408 0.930 . S
H1380 C1400 0.931 . S
O1381 Co1357 2.097 . S
O1381 C1409 1.214 . S
H1382 C1410 0.929 . S
H1383 C1411 0.929 . S
H1384 C1412 0.930 . S
H1385 C1413 0.929 . S
H1386 C1415 0.930 . S
H1387 C1392 0.906 1_565 S
H1388 C1396 0.930 . S
O1389 Co1358 2.037 . S
O1389 C1409 1.234 . S
C1390 O1364 1.269 . S
C1390 O1365 1.257 . S
C1391 H1366 0.930 . S
C1391 C1394 1.388 . S
C1391 C1396 1.418 . S
C1392 H1387 0.906 1_545 S
C1392 C1395 1.404 . S
C1392 C1396 1.353 . S
N1393 Co1358 2.145 . S
N1393 C1394 1.397 . S
N1393 C1395 1.334 . S
C1394 H1375 0.929 . S
C1394 C1391 1.388 . S
C1394 N1393 1.397 . S
C1395 H1376 0.929 . S
C1395 C1392 1.404 . S
C1395 N1393 1.334 . S
C1396 H1388 0.930 . S
C1396 C1391 1.418 . S
C1396 C1392 1.353 . S
C1397 H1367 0.930 . S
C1397 N1398 1.330 . S
C1397 C1399 1.446 . S
N1398 Co1357 2.151 . S
N1398 C1397 1.330 . S
N1398 C1402 1.418 . S
C1399 H1378 0.929 . S
C1399 C1397 1.446 . S
C1399 C1400 1.332 . S
C1400 H1380 0.931 . S
C1400 C1399 1.332 . S
C1400 C1401 1.267 . S
C1401 H1369 0.929 . S
C1401 C1400 1.267 . S
C1401 C1402 1.251 . S
C1402 H1372 0.929 . S
C1402 N1398 1.418 . S
C1402 C1401 1.251 . S
C1403 H1370 0.930 . S
C1403 C1405 1.406 . S
C1403 C1408 1.261 . S
C1404 H1371 0.930 . S
C1404 N1406 1.325 . S
C1404 C1407 1.357 . S
C1405 H1373 0.928 . S
C1405 C1403 1.406 . S
C1405 N1406 1.261 . S
N1406 Co1357 2.214 . S
N1406 C1404 1.325 . S
N1406 C1405 1.261 . S
C1407 H1377 0.931 . S
C1407 C1404 1.357 . S
C1407 C1408 1.312 . S
C1408 H1379 0.930 . S
C1408 C1403 1.261 . S
C1408 C1407 1.312 . S
C1409 O1381 1.214 . S
C1409 O1389 1.234 . S
C1410 H1382 0.929 . S
C1410 C1413 1.391 . S
C1410 C1415 1.391 . S
C1411 H1383 0.929 . S
C1411 C1412 1.390 . S
C1411 N1414 1.391 . S
C1412 H1384 0.930 . S
C1412 C1411 1.390 . S
C1412 C1413 1.392 . S
C1413 H1385 0.929 . S
C1413 C1410 1.391 . S
C1413 C1412 1.392 . S
N1414 Co1358 2.257 . S
N1414 C1411 1.391 . S
N1414 C1415 1.388 . S
C1415 H1386 0.930 . S
C1415 C1410 1.391 . S
C1415 N1414 1.388 . S
H1416 C1424 0.950 . S
H1417 C1429 0.950 . S
H1418 C1426 0.950 . S
H1419 C1428 0.950 . S
H1420 C1430 0.950 . S
H1421 C1432 0.950 . S
H1422 C1434 0.950 . S
H1423 C1435 0.950 . S
C1424 H1416 0.950 . S
C1424 C1425 1.386 . S
C1424 C1426 1.391 . S
C1425 C1424 1.386 . S
C1425 C1429 1.393 . S
C1426 H1418 0.950 . S
C1426 C1424 1.391 . S
C1426 C1427 1.400 . S
C1427 C1426 1.400 . S
C1427 C1428 1.398 . S
C1427 C1433 1.491 . S
C1428 H1419 0.950 . S
C1428 C1427 1.398 . S
C1428 C1429 1.391 . S
C1429 H1417 0.950 . S
C1429 C1425 1.393 . S
C1429 C1428 1.391 . S
C1430 H1420 0.950 . S
C1430 C1431 1.386 . S
C1430 C1432 1.391 . S
C1431 C1430 1.386 . S
C1431 C1435 1.393 . S
C1432 H1421 0.950 . S
C1432 C1430 1.391 . S
C1432 C1433 1.400 . S
C1433 C1427 1.491 . S
C1433 C1432 1.400 . S
C1433 C1434 1.398 . S
C1434 H1422 0.950 . S
C1434 C1433 1.398 . S
C1434 C1435 1.391 . S
C1435 H1423 0.950 . S
C1435 C1431 1.393 . S
C1435 C1434 1.391 . S
H1436 C1444 0.950 . S
H1437 C1449 0.950 . S
H1438 C1446 0.950 . S
H1439 C1448 0.950 . S
H1440 C1450 0.950 . S
H1441 C1452 0.950 . S
H1442 C1454 0.950 . S
H1443 C1455 0.950 . S
C1444 H1436 0.950 . S
C1444 C1445 1.386 1_455 S
C1444 C1446 1.391 . S
C1445 C1444 1.386 1_655 S
C1445 C1449 1.393 . S
C1446 H1438 0.950 . S
C1446 C1444 1.391 . S
C1446 C1447 1.400 . S
C1447 C1446 1.400 . S
C1447 C1448 1.398 . S
C1447 C1453 1.491 . S
C1448 H1439 0.950 . S
C1448 C1447 1.398 . S
C1448 C1449 1.391 1_455 S
C1449 H1437 0.950 . S
C1449 C1445 1.393 . S
C1449 C1448 1.391 1_655 S
C1450 H1440 0.950 . S
C1450 C1451 1.386 . S
C1450 C1452 1.391 . S
C1451 C1450 1.386 . S
C1451 C1455 1.393 . S
C1452 H1441 0.950 . S
C1452 C1450 1.391 . S
C1452 C1453 1.400 . S
C1453 C1447 1.491 . S
C1453 C1452 1.400 . S
C1453 C1454 1.398 . S
C1454 H1442 0.950 . S
C1454 C1453 1.398 . S
C1454 C1455 1.391 . S
C1455 H1443 0.950 . S
C1455 C1451 1.393 . S
C1455 C1454 1.391 . S
H1456 C1464 0.950 . S
H1457 C1469 0.950 . S
H1458 C1466 0.950 . S
H1459 C1468 0.950 . S
H1460 C1470 0.950 . S
H1461 C1472 0.948 1_554 S
H1462 C1474 0.950 . S
H1463 C1475 0.950 . S
C1464 H1456 0.950 . S
C1464 C1465 1.386 . S
C1464 C1466 1.391 . S
C1465 C1464 1.386 . S
C1465 C1469 1.393 . S
C1466 H1458 0.950 . S
C1466 C1464 1.391 . S
C1466 C1467 1.400 . S
C1467 C1466 1.400 . S
C1467 C1468 1.398 . S
C1467 C1473 1.491 . S
C1468 H1459 0.950 . S
C1468 C1467 1.398 . S
C1468 C1469 1.391 . S
C1469 H1457 0.950 . S
C1469 C1465 1.393 . S
C1469 C1468 1.391 . S
C1470 H1460 0.950 . S
C1470 C1471 1.386 . S
C1470 C1472 1.391 1_554 S
C1471 C1470 1.386 . S
C1471 C1475 1.393 1_554 S
C1472 H1461 0.948 1_556 S
C1472 C1470 1.391 1_556 S
C1472 C1473 1.400 . S
C1473 C1467 1.491 . S
C1473 C1472 1.400 . S
C1473 C1474 1.398 . S
C1474 H1462 0.950 . S
C1474 C1473 1.398 . S
C1474 C1475 1.391 . S
C1475 H1463 0.950 . S
C1475 C1471 1.393 1_556 S
C1475 C1474 1.391 . S
H1476 C1484 0.950 . S
H1477 C1489 0.950 . S
H1478 C1486 0.950 . S
H1479 C1488 0.950 . S
H1480 C1490 0.950 . S
H1481 C1492 0.950 . S
H1482 C1494 0.950 . S
H1483 C1495 0.950 . S
C1484 H1476 0.950 . S
C1484 C1485 1.386 . S
C1484 C1486 1.391 . S
C1485 C1484 1.386 . S
C1485 C1489 1.393 . S
C1486 H1478 0.950 . S
C1486 C1484 1.391 . S
C1486 C1487 1.400 . S
C1487 C1486 1.400 . S
C1487 C1488 1.398 . S
C1487 C1493 1.491 . S
C1488 H1479 0.950 . S
C1488 C1487 1.398 . S
C1488 C1489 1.391 . S
C1489 H1477 0.950 . S
C1489 C1485 1.393 . S
C1489 C1488 1.391 . S
C1490 H1480 0.950 . S
C1490 C1491 1.386 . S
C1490 C1492 1.391 . S
C1491 C1490 1.386 . S
C1491 C1495 1.393 . S
C1492 H1481 0.950 . S
C1492 C1490 1.391 . S
C1492 C1493 1.400 . S
C1493 C1487 1.491 . S
C1493 C1492 1.400 . S
C1493 C1494 1.398 . S
C1494 H1482 0.950 . S
C1494 C1493 1.398 . S
C1494 C1495 1.391 . S
C1495 H1483 0.950 . S
C1495 C1491 1.393 . S
C1495 C1494 1.391 . S
H1496 C1504 0.950 . S
H1497 C1509 0.950 . S
H1498 C1506 0.950 . S
H1499 C1508 0.950 . S
H1500 C1510 0.950 . S
H1501 C1512 0.950 . S
H1502 C1514 0.950 . S
H1503 C1515 0.950 . S
C1504 H1496 0.950 . S
C1504 C1505 1.386 . S
C1504 C1506 1.391 . S
C1505 C1504 1.386 . S
C1505 C1509 1.393 . S
C1506 H1498 0.950 . S
C1506 C1504 1.391 . S
C1506 C1507 1.400 . S
C1507 C1506 1.400 . S
C1507 C1508 1.398 . S
C1507 C1513 1.491 . S
C1508 H1499 0.950 . S
C1508 C1507 1.398 . S
C1508 C1509 1.391 . S
C1509 H1497 0.950 . S
C1509 C1505 1.393 . S
C1509 C1508 1.391 . S
C1510 H1500 0.950 . S
C1510 C1511 1.386 . S
C1510 C1512 1.391 . S
C1511 C1510 1.386 . S
C1511 C1515 1.393 . S
C1512 H1501 0.950 . S
C1512 C1510 1.391 . S
C1512 C1513 1.400 . S
C1513 C1507 1.491 . S
C1513 C1512 1.400 . S
C1513 C1514 1.398 . S
C1514 H1502 0.950 . S
C1514 C1513 1.398 . S
C1514 C1515 1.391 . S
C1515 H1503 0.950 . S
C1515 C1511 1.393 . S
C1515 C1514 1.391 . S
H1516 C1524 0.950 . S
H1517 C1529 0.950 . S
H1518 C1526 0.950 . S
H1519 C1528 0.950 . S
H1520 C1530 0.950 . S
H1521 C1532 0.950 . S
H1522 C1534 0.950 . S
H1523 C1535 0.950 . S
C1524 H1516 0.950 . S
C1524 C1525 1.386 . S
C1524 C1526 1.391 . S
C1525 C1524 1.386 . S
C1525 C1529 1.393 . S
C1526 H1518 0.950 . S
C1526 C1524 1.391 . S
C1526 C1527 1.400 . S
C1527 C1526 1.400 . S
C1527 C1528 1.398 . S
C1527 C1533 1.491 . S
C1528 H1519 0.950 . S
C1528 C1527 1.398 . S
C1528 C1529 1.391 . S
C1529 H1517 0.950 . S
C1529 C1525 1.393 . S
C1529 C1528 1.391 . S
C1530 H1520 0.950 . S
C1530 C1531 1.386 . S
C1530 C1532 1.391 1_455 S
C1531 C1530 1.386 . S
C1531 C1535 1.393 1_455 S
C1532 H1521 0.950 . S
C1532 C1530 1.391 1_655 S
C1532 C1533 1.400 . S
C1533 C1527 1.491 . S
C1533 C1532 1.400 . S
C1533 C1534 1.398 . S
C1534 H1522 0.950 . S
C1534 C1533 1.398 . S
C1534 C1535 1.391 . S
C1535 H1523 0.950 . S
C1535 C1531 1.393 1_655 S
C1535 C1534 1.391 . S
H1536 C1544 0.950 . S
H1537 C1549 0.950 . S
H1538 C1546 0.950 . S
H1539 C1548 0.950 . S
H1540 C1550 0.950 1_556 S
H1541 C1552 0.950 . S
H1542 C1554 0.950 . S
H1543 C1555 0.950 . S
C1544 H1536 0.950 . S
C1544 C1545 1.386 . S
C1544 C1546 1.391 . S
C1545 C1544 1.386 . S
C1545 C1549 1.393 . S
C1546 H1538 0.950 . S
C1546 C1544 1.391 . S
C1546 C1547 1.400 . S
C1547 C1546 1.400 . S
C1547 C1548 1.398 . S
C1547 C1553 1.491 . S
C1548 H1539 0.950 . S
C1548 C1547 1.398 . S
C1548 C1549 1.391 . S
C1549 H1537 0.950 . S
C1549 C1545 1.393 . S
C1549 C1548 1.391 . S
C1550 H1540 0.950 1_554 S
C1550 C1551 1.386 1_554 S
C1550 C1552 1.391 . S
C1551 C1550 1.386 1_556 S
C1551 C1555 1.393 1_556 S
C1552 H1541 0.950 . S
C1552 C1550 1.391 . S
C1552 C1553 1.400 . S
C1553 C1547 1.491 . S
C1553 C1552 1.400 . S
C1553 C1554 1.398 . S
C1554 H1542 0.950 . S
C1554 C1553 1.398 . S
C1554 C1555 1.391 . S
C1555 H1543 0.950 . S
C1555 C1551 1.393 1_554 S
C1555 C1554 1.391 . S
H1556 C1564 0.950 . S
H1557 C1569 0.950 . S
H1558 C1566 0.950 . S
H1559 C1568 0.950 . S
H1560 C1570 0.950 . S
H1561 C1572 0.950 . S
H1562 C1574 0.950 . S
H1563 C1575 0.950 . S
C1564 H1556 0.950 . S
C1564 C1565 1.386 . S
C1564 C1566 1.391 . S
C1565 C1564 1.386 . S
C1565 C1569 1.393 . S
C1566 H1558 0.950 . S
C1566 C1564 1.391 . S
C1566 C1567 1.400 . S
C1567 C1566 1.400 . S
C1567 C1568 1.398 . S
C1567 C1573 1.491 . S
C1568 H1559 0.950 . S
C1568 C1567 1.398 . S
C1568 C1569 1.391 . S
C1569 H1557 0.950 . S
C1569 C1565 1.393 . S
C1569 C1568 1.391 . S
C1570 H1560 0.950 . S
C1570 C1571 1.386 . S
C1570 C1572 1.391 . S
C1571 C1570 1.386 . S
C1571 C1575 1.393 . S
C1572 H1561 0.950 . S
C1572 C1570 1.391 . S
C1572 C1573 1.400 . S
C1573 C1567 1.491 . S
C1573 C1572 1.400 . S
C1573 C1574 1.398 . S
C1574 H1562 0.950 . S
C1574 C1573 1.398 . S
C1574 C1575 1.391 . S
C1575 H1563 0.950 . S
C1575 C1571 1.393 . S
C1575 C1574 1.391 . S
H1576 C1584 0.950 . S
H1577 C1589 0.950 . S
H1578 C1586 0.950 . S
H1579 C1588 0.950 . S
H1580 C1590 0.950 . S
H1581 C1592 0.950 . S
H1582 C1594 0.950 . S
H1583 C1595 0.950 . S
C1584 H1576 0.950 . S
C1584 C1585 1.386 . S
C1584 C1586 1.391 . S
C1585 C1584 1.386 . S
C1585 C1589 1.393 . S
C1586 H1578 0.950 . S
C1586 C1584 1.391 . S
C1586 C1587 1.400 . S
C1587 C1586 1.400 . S
C1587 C1588 1.398 . S
C1587 C1593 1.491 . S
C1588 H1579 0.950 . S
C1588 C1587 1.398 . S
C1588 C1589 1.391 . S
C1589 H1577 0.950 . S
C1589 C1585 1.393 . S
C1589 C1588 1.391 . S
C1590 H1580 0.950 . S
C1590 C1591 1.386 . S
C1590 C1592 1.391 . S
C1591 C1590 1.386 . S
C1591 C1595 1.393 . S
C1592 H1581 0.950 . S
C1592 C1590 1.391 . S
C1592 C1593 1.400 . S
C1593 C1587 1.491 . S
C1593 C1592 1.400 . S
C1593 C1594 1.398 . S
C1594 H1582 0.950 . S
C1594 C1593 1.398 . S
C1594 C1595 1.391 . S
C1595 H1583 0.950 . S
C1595 C1591 1.393 . S
C1595 C1594 1.391 . S
H1596 C1604 0.950 . S
H1597 C1609 0.950 . S
H1598 C1606 0.950 . S
H1599 C1608 0.950 . S
H1600 C1610 0.950 . S
H1601 C1612 0.950 . S
H1602 C1614 0.950 . S
H1603 C1615 0.950 . S
C1604 H1596 0.950 . S
C1604 C1605 1.386 . S
C1604 C1606 1.391 1_565 S
C1605 C1604 1.386 . S
C1605 C1609 1.393 1_565 S
C1606 H1598 0.950 . S
C1606 C1604 1.391 1_545 S
C1606 C1607 1.400 . S
C1607 C1606 1.400 . S
C1607 C1608 1.398 . S
C1607 C1613 1.491 . S
C1608 H1599 0.950 . S
C1608 C1607 1.398 . S
C1608 C1609 1.391 . S
C1609 H1597 0.950 . S
C1609 C1605 1.393 1_545 S
C1609 C1608 1.391 . S
C1610 H1600 0.950 . S
C1610 C1611 1.386 . S
C1610 C1612 1.391 . S
C1611 C1610 1.386 . S
C1611 C1615 1.393 . S
C1612 H1601 0.950 . S
C1612 C1610 1.391 . S
C1612 C1613 1.400 . S
C1613 C1607 1.491 . S
C1613 C1612 1.400 . S
C1613 C1614 1.398 . S
C1614 H1602 0.950 . S
C1614 C1613 1.398 . S
C1614 C1615 1.391 . S
C1615 H1603 0.950 . S
C1615 C1611 1.393 . S
C1615 C1614 1.391 . S
H1616 C1624 0.950 . S
H1617 C1629 0.950 . S
H1618 C1626 0.950 . S
H1619 C1628 0.950 . S
H1620 C1630 0.950 . S
H1621 C1632 0.950 . S
H1622 C1634 0.950 . S
H1623 C1635 0.950 . S
C1624 H1616 0.950 . S
C1624 C1625 1.386 . S
C1624 C1626 1.391 . S
C1625 C1624 1.386 . S
C1625 C1629 1.393 . S
C1626 H1618 0.950 . S
C1626 C1624 1.391 . S
C1626 C1627 1.400 . S
C1627 C1626 1.400 . S
C1627 C1628 1.398 . S
C1627 C1633 1.491 . S
C1628 H1619 0.950 . S
C1628 C1627 1.398 . S
C1628 C1629 1.391 . S
C1629 H1617 0.950 . S
C1629 C1625 1.393 . S
C1629 C1628 1.391 . S
C1630 H1620 0.950 . S
C1630 C1631 1.386 1_565 S
C1630 C1632 1.391 . S
C1631 C1630 1.386 1_545 S
C1631 C1635 1.393 . S
C1632 H1621 0.950 . S
C1632 C1630 1.391 . S
C1632 C1633 1.400 . S
C1633 C1627 1.491 . S
C1633 C1632 1.400 . S
C1633 C1634 1.398 . S
C1634 H1622 0.950 . S
C1634 C1633 1.398 . S
C1634 C1635 1.391 1_565 S
C1635 H1623 0.950 . S
C1635 C1631 1.393 . S
C1635 C1634 1.391 1_545 S
H1636 C1644 0.950 . S
H1637 C1649 0.950 . S
H1638 C1646 0.950 . S
H1639 C1648 0.950 . S
H1640 C1650 0.950 . S
H1641 C1652 0.950 . S
H1642 C1654 0.950 . S
H1643 C1655 0.950 . S
C1644 H1636 0.950 . S
C1644 C1645 1.386 . S
C1644 C1646 1.391 . S
C1645 C1644 1.386 . S
C1645 C1649 1.393 . S
C1646 H1638 0.950 . S
C1646 C1644 1.391 . S
C1646 C1647 1.400 . S
C1647 C1646 1.400 . S
C1647 C1648 1.398 . S
C1647 C1653 1.491 . S
C1648 H1639 0.950 . S
C1648 C1647 1.398 . S
C1648 C1649 1.391 . S
C1649 H1637 0.950 . S
C1649 C1645 1.393 . S
C1649 C1648 1.391 . S
C1650 H1640 0.950 . S
C1650 C1651 1.386 . S
C1650 C1652 1.391 . S
C1651 C1650 1.386 . S
C1651 C1655 1.393 . S
C1652 H1641 0.950 . S
C1652 C1650 1.391 . S
C1652 C1653 1.400 . S
C1653 C1647 1.491 . S
C1653 C1652 1.400 . S
C1653 C1654 1.398 . S
C1654 H1642 0.950 . S
C1654 C1653 1.398 . S
C1654 C1655 1.391 . S
C1655 H1643 0.950 . S
C1655 C1651 1.393 . S
C1655 C1654 1.391 . S
H1656 C1664 0.950 . S
H1657 C1669 0.950 . S
H1658 C1666 0.950 . S
H1659 C1668 0.950 . S
H1660 C1670 0.950 . S
H1661 C1672 0.950 . S
H1662 C1674 0.950 . S
H1663 C1675 0.950 . S
C1664 H1656 0.950 . S
C1664 C1665 1.386 . S
C1664 C1666 1.391 . S
C1665 C1664 1.386 . S
C1665 C1669 1.393 . S
C1666 H1658 0.950 . S
C1666 C1664 1.391 . S
C1666 C1667 1.400 . S
C1667 C1666 1.400 . S
C1667 C1668 1.398 . S
C1667 C1673 1.491 . S
C1668 H1659 0.950 . S
C1668 C1667 1.398 . S
C1668 C1669 1.391 . S
C1669 H1657 0.950 . S
C1669 C1665 1.393 . S
C1669 C1668 1.391 . S
C1670 H1660 0.950 . S
C1670 C1671 1.386 . S
C1670 C1672 1.391 . S
C1671 C1670 1.386 . S
C1671 C1675 1.393 . S
C1672 H1661 0.950 . S
C1672 C1670 1.391 . S
C1672 C1673 1.400 . S
C1673 C1667 1.491 . S
C1673 C1672 1.400 . S
C1673 C1674 1.398 . S
C1674 H1662 0.950 . S
C1674 C1673 1.398 . S
C1674 C1675 1.391 . S
C1675 H1663 0.950 . S
C1675 C1671 1.393 . S
C1675 C1674 1.391 . S
H1676 C1684 0.950 . S
H1677 C1689 0.950 . S
H1678 C1686 0.936 1_545 S
H1679 C1688 0.950 1_545 S
H1680 C1690 0.950 . S
H1681 C1692 0.950 . S
H1682 C1694 0.950 . S
H1683 C1695 0.950 . S
C1684 H1676 0.950 . S
C1684 C1685 1.386 . S
C1684 C1686 1.391 . S
C1685 C1684 1.386 . S
C1685 C1689 1.393 . S
C1686 H1678 0.936 1_565 S
C1686 C1684 1.391 . S
C1686 C1687 1.400 1_565 S
C1687 C1686 1.400 1_545 S
C1687 C1688 1.398 1_545 S
C1687 C1693 1.491 . S
C1688 H1679 0.950 1_565 S
C1688 C1687 1.398 1_565 S
C1688 C1689 1.391 . S
C1689 H1677 0.950 . S
C1689 C1685 1.393 . S
C1689 C1688 1.391 . S
C1690 H1680 0.950 . S
C1690 C1691 1.386 . S
C1690 C1692 1.391 . S
C1691 C1690 1.386 . S
C1691 C1695 1.393 . S
C1692 H1681 0.950 . S
C1692 C1690 1.391 . S
C1692 C1693 1.400 . S
C1693 C1687 1.491 . S
C1693 C1692 1.400 . S
C1693 C1694 1.398 . S
C1694 H1682 0.950 . S
C1694 C1693 1.398 . S
C1694 C1695 1.391 . S
C1695 H1683 0.950 . S
C1695 C1691 1.393 . S
C1695 C1694 1.391 . S
H1696 C1704 0.950 . S
H1697 C1709 0.950 . S
H1698 C1706 0.950 . S
H1699 C1708 0.910 1_554 S
H1700 C1710 0.950 . S
H1701 C1712 0.950 . S
H1702 C1714 0.950 . S
H1703 C1715 0.936 1_556 S
C1704 H1696 0.950 . S
C1704 C1705 1.386 . S
C1704 C1706 1.391 . S
C1705 C1704 1.386 . S
C1705 C1709 1.393 . S
C1706 H1698 0.950 . S
C1706 C1704 1.391 . S
C1706 C1707 1.400 . S
C1707 C1706 1.400 . S
C1707 C1708 1.398 . S
C1707 C1713 1.491 . S
C1708 H1699 0.910 1_556 S
C1708 C1707 1.398 . S
C1708 C1709 1.391 . S
C1709 H1697 0.950 . S
C1709 C1705 1.393 . S
C1709 C1708 1.391 . S
C1710 H1700 0.950 . S
C1710 C1711 1.386 . S
C1710 C1712 1.391 . S
C1711 C1710 1.386 . S
C1711 C1715 1.393 . S
C1712 H1701 0.950 . S
C1712 C1710 1.391 . S
C1712 C1713 1.400 1_554 S
C1713 C1707 1.491 . S
C1713 C1712 1.400 1_556 S
C1713 C1714 1.398 . S
C1714 H1702 0.950 . S
C1714 C1713 1.398 . S
C1714 C1715 1.391 1_556 S
C1715 H1703 0.936 1_554 S
C1715 C1711 1.393 . S
C1715 C1714 1.391 1_554 S
H1716 C1724 0.950 . S
H1717 C1729 0.950 . S
H1718 C1726 0.950 . S
H1719 C1728 0.950 . S
H1720 C1730 0.950 . S
H1721 C1732 0.950 . S
H1722 C1734 0.950 . S
H1723 C1735 0.950 . S
C1724 H1716 0.950 . S
C1724 C1725 1.386 . S
C1724 C1726 1.391 . S
C1725 C1724 1.386 . S
C1725 C1729 1.393 . S
C1726 H1718 0.950 . S
C1726 C1724 1.391 . S
C1726 C1727 1.400 1_545 S
C1727 C1726 1.400 1_565 S
C1727 C1728 1.398 . S
C1727 C1733 1.491 . S
C1728 H1719 0.950 . S
C1728 C1727 1.398 . S
C1728 C1729 1.391 1_565 S
C1729 H1717 0.950 . S
C1729 C1725 1.393 . S
C1729 C1728 1.391 1_545 S
C1730 H1720 0.950 . S
C1730 C1731 1.386 . S
C1730 C1732 1.391 . S
C1731 C1730 1.386 . S
C1731 C1735 1.393 . S
C1732 H1721 0.950 . S
C1732 C1730 1.391 . S
C1732 C1733 1.400 . S
C1733 C1727 1.491 . S
C1733 C1732 1.400 . S
C1733 C1734 1.398 . S
C1734 H1722 0.950 . S
C1734 C1733 1.398 . S
C1734 C1735 1.391 . S
C1735 H1723 0.950 . S
C1735 C1731 1.393 . S
C1735 C1734 1.391 . S
H1736 C1744 0.950 . S
H1737 C1749 0.950 . S
H1738 C1746 0.950 . S
H1739 C1748 0.950 . S
H1740 C1750 0.950 . S
H1741 C1752 0.950 . S
H1742 C1754 0.950 . S
H1743 C1755 0.950 . S
C1744 H1736 0.950 . S
C1744 C1745 1.386 . S
C1744 C1746 1.391 . S
C1745 C1744 1.386 . S
C1745 C1749 1.393 . S
C1746 H1738 0.950 . S
C1746 C1744 1.391 . S
C1746 C1747 1.400 . S
C1747 C1746 1.400 . S
C1747 C1748 1.398 . S
C1747 C1753 1.491 . S
C1748 H1739 0.950 . S
C1748 C1747 1.398 . S
C1748 C1749 1.391 . S
C1749 H1737 0.950 . S
C1749 C1745 1.393 . S
C1749 C1748 1.391 . S
C1750 H1740 0.950 . S
C1750 C1751 1.386 . S
C1750 C1752 1.391 . S
C1751 C1750 1.386 . S
C1751 C1755 1.393 . S
C1752 H1741 0.950 . S
C1752 C1750 1.391 . S
C1752 C1753 1.400 . S
C1753 C1747 1.491 . S
C1753 C1752 1.400 . S
C1753 C1754 1.398 . S
C1754 H1742 0.950 . S
C1754 C1753 1.398 . S
C1754 C1755 1.391 . S
C1755 H1743 0.950 . S
C1755 C1751 1.393 . S
C1755 C1754 1.391 . S
H1756 C1764 0.950 . S
H1757 C1769 0.950 . S
H1758 C1766 0.950 . S
H1759 C1768 0.950 . S
H1760 C1770 0.950 . S
H1761 C1772 0.950 . S
H1762 C1774 0.950 . S
H1763 C1775 0.950 . S
C1764 H1756 0.950 . S
C1764 C1765 1.386 . S
C1764 C1766 1.391 . S
C1765 C1764 1.386 . S
C1765 C1769 1.393 . S
C1766 H1758 0.950 . S
C1766 C1764 1.391 . S
C1766 C1767 1.400 . S
C1767 C1766 1.400 . S
C1767 C1768 1.398 . S
C1767 C1773 1.491 . S
C1768 H1759 0.950 . S
C1768 C1767 1.398 . S
C1768 C1769 1.391 . S
C1769 H1757 0.950 . S
C1769 C1765 1.393 . S
C1769 C1768 1.391 . S
C1770 H1760 0.950 . S
C1770 C1771 1.386 . S
C1770 C1772 1.391 . S
C1771 C1770 1.386 . S
C1771 C1775 1.393 . S
C1772 H1761 0.950 . S
C1772 C1770 1.391 . S
C1772 C1773 1.400 . S
C1773 C1767 1.491 . S
C1773 C1772 1.400 . S
C1773 C1774 1.398 . S
C1774 H1762 0.950 . S
C1774 C1773 1.398 . S
C1774 C1775 1.391 . S
C1775 H1763 0.950 . S
C1775 C1771 1.393 . S
C1775 C1774 1.391 . S
H1776 C1784 0.950 . S
H1777 C1789 0.950 . S
H1778 C1786 0.950 . S
H1779 C1788 0.950 . S
H1780 C1790 0.950 . S
H1781 C1792 0.950 . S
H1782 C1794 0.950 . S
H1783 C1795 0.950 . S
C1784 H1776 0.950 . S
C1784 C1785 1.386 . S
C1784 C1786 1.391 . S
C1785 C1784 1.386 . S
C1785 C1789 1.393 . S
C1786 H1778 0.950 . S
C1786 C1784 1.391 . S
C1786 C1787 1.400 1_556 S
C1787 C1786 1.400 1_554 S
C1787 C1788 1.398 . S
C1787 C1793 1.491 . S
C1788 H1779 0.950 . S
C1788 C1787 1.398 . S
C1788 C1789 1.391 1_554 S
C1789 H1777 0.950 . S
C1789 C1785 1.393 . S
C1789 C1788 1.391 1_556 S
C1790 H1780 0.950 . S
C1790 C1791 1.386 . S
C1790 C1792 1.391 . S
C1791 C1790 1.386 . S
C1791 C1795 1.393 . S
C1792 H1781 0.950 . S
C1792 C1790 1.391 . S
C1792 C1793 1.400 . S
C1793 C1787 1.491 . S
C1793 C1792 1.400 . S
C1793 C1794 1.398 . S
C1794 H1782 0.950 . S
C1794 C1793 1.398 . S
C1794 C1795 1.391 . S
C1795 H1783 0.950 . S
C1795 C1791 1.393 . S
C1795 C1794 1.391 . S
H1796 C1804 0.950 . S
H1797 C1809 0.950 . S
H1798 C1806 0.950 . S
H1799 C1808 0.950 . S
H1800 C1810 0.950 . S
H1801 C1812 0.950 . S
H1802 C1814 0.950 . S
H1803 C1815 0.950 . S
C1804 H1796 0.950 . S
C1804 C1805 1.386 . S
C1804 C1806 1.391 . S
C1805 C1804 1.386 . S
C1805 C1809 1.393 . S
C1806 H1798 0.950 . S
C1806 C1804 1.391 . S
C1806 C1807 1.400 . S
C1807 C1806 1.400 . S
C1807 C1808 1.398 . S
C1807 C1813 1.491 . S
C1808 H1799 0.950 . S
C1808 C1807 1.398 . S
C1808 C1809 1.391 . S
C1809 H1797 0.950 . S
C1809 C1805 1.393 . S
C1809 C1808 1.391 . S
C1810 H1800 0.950 . S
C1810 C1811 1.386 . S
C1810 C1812 1.391 . S
C1811 C1810 1.386 . S
C1811 C1815 1.393 . S
C1812 H1801 0.950 . S
C1812 C1810 1.391 . S
C1812 C1813 1.400 . S
C1813 C1807 1.491 . S
C1813 C1812 1.400 . S
C1813 C1814 1.398 . S
C1814 H1802 0.950 . S
C1814 C1813 1.398 . S
C1814 C1815 1.391 . S
C1815 H1803 0.950 . S
C1815 C1811 1.393 . S
C1815 C1814 1.391 . S
H1816 C1824 0.950 . S
H1817 C1829 0.950 . S
H1818 C1826 0.950 . S
H1819 C1828 0.950 . S
H1820 C1830 0.950 . S
H1821 C1832 0.950 . S
H1822 C1834 0.950 . S
H1823 C1835 0.950 . S
C1824 H1816 0.950 . S
C1824 C1825 1.386 . S
C1824 C1826 1.391 . S
C1825 C1824 1.386 . S
C1825 C1829 1.393 . S
C1826 H1818 0.950 . S
C1826 C1824 1.391 . S
C1826 C1827 1.400 . S
C1827 C1826 1.400 . S
C1827 C1828 1.398 . S
C1827 C1833 1.491 . S
C1828 H1819 0.950 . S
C1828 C1827 1.398 . S
C1828 C1829 1.391 . S
C1829 H1817 0.950 . S
C1829 C1825 1.393 . S
C1829 C1828 1.391 . S
C1830 H1820 0.950 . S
C1830 C1831 1.386 . S
C1830 C1832 1.391 . S
C1831 C1830 1.386 . S
C1831 C1835 1.393 . S
C1832 H1821 0.950 . S
C1832 C1830 1.391 . S
C1832 C1833 1.400 . S
C1833 C1827 1.491 . S
C1833 C1832 1.400 . S
C1833 C1834 1.398 . S
C1834 H1822 0.950 . S
C1834 C1833 1.398 . S
C1834 C1835 1.391 . S
C1835 H1823 0.950 . S
C1835 C1831 1.393 . S
C1835 C1834 1.391 . S
H1836 C1844 0.950 . S
H1837 C1849 0.950 . S
H1838 C1846 0.950 . S
H1839 C1848 0.950 . S
H1840 C1850 0.950 . S
H1841 C1852 0.950 . S
H1842 C1854 0.950 . S
H1843 C1855 0.950 . S
C1844 H1836 0.950 . S
C1844 C1845 1.386 . S
C1844 C1846 1.391 . S
C1845 C1844 1.386 . S
C1845 C1849 1.393 . S
C1846 H1838 0.950 . S
C1846 C1844 1.391 . S
C1846 C1847 1.400 1_455 S
C1847 C1846 1.400 1_655 S
C1847 C1848 1.398 . S
C1847 C1853 1.491 . S
C1848 H1839 0.950 . S
C1848 C1847 1.398 . S
C1848 C1849 1.391 1_655 S
C1849 H1837 0.950 . S
C1849 C1845 1.393 . S
C1849 C1848 1.391 1_455 S
C1850 H1840 0.950 . S
C1850 C1851 1.386 . S
C1850 C1852 1.391 . S
C1851 C1850 1.386 . S
C1851 C1855 1.393 . S
C1852 H1841 0.950 . S
C1852 C1850 1.391 . S
C1852 C1853 1.400 . S
C1853 C1847 1.491 . S
C1853 C1852 1.400 . S
C1853 C1854 1.398 . S
C1854 H1842 0.950 . S
C1854 C1853 1.398 . S
C1854 C1855 1.391 . S
C1855 H1843 0.950 . S
C1855 C1851 1.393 . S
C1855 C1854 1.391 . S
H1856 C1864 0.950 . S
H1857 C1869 0.950 . S
H1858 C1866 0.950 . S
H1859 C1868 0.950 . S
H1860 C1870 0.950 . S
H1861 C1872 0.950 . S
H1862 C1874 0.950 . S
H1863 C1875 0.950 . S
C1864 H1856 0.950 . S
C1864 C1865 1.386 . S
C1864 C1866 1.391 . S
C1865 C1864 1.386 . S
C1865 C1869 1.393 . S
C1866 H1858 0.950 . S
C1866 C1864 1.391 . S
C1866 C1867 1.400 1_655 S
C1867 C1866 1.400 1_455 S
C1867 C1868 1.398 . S
C1867 C1873 1.491 . S
C1868 H1859 0.950 . S
C1868 C1867 1.398 . S
C1868 C1869 1.391 1_455 S
C1869 H1857 0.950 . S
C1869 C1865 1.393 . S
C1869 C1868 1.391 1_655 S
C1870 H1860 0.950 . S
C1870 C1871 1.386 . S
C1870 C1872 1.391 . S
C1871 C1870 1.386 . S
C1871 C1875 1.393 . S
C1872 H1861 0.950 . S
C1872 C1870 1.391 . S
C1872 C1873 1.400 . S
C1873 C1867 1.491 . S
C1873 C1872 1.400 . S
C1873 C1874 1.398 . S
C1874 H1862 0.950 . S
C1874 C1873 1.398 . S
C1874 C1875 1.391 . S
C1875 H1863 0.950 . S
C1875 C1871 1.393 . S
C1875 C1874 1.391 . S
H1876 C1884 0.950 . S
H1877 C1889 0.950 . S
H1878 C1886 0.950 . S
H1879 C1888 0.950 . S
H1880 C1890 0.950 . S
H1881 C1892 0.950 . S
H1882 C1894 0.950 . S
H1883 C1895 0.950 . S
C1884 H1876 0.950 . S
C1884 C1885 1.386 . S
C1884 C1886 1.391 . S
C1885 C1884 1.386 . S
C1885 C1889 1.393 . S
C1886 H1878 0.950 . S
C1886 C1884 1.391 . S
C1886 C1887 1.400 . S
C1887 C1886 1.400 . S
C1887 C1888 1.398 . S
C1887 C1893 1.491 . S
C1888 H1879 0.950 . S
C1888 C1887 1.398 . S
C1888 C1889 1.391 . S
C1889 H1877 0.950 . S
C1889 C1885 1.393 . S
C1889 C1888 1.391 . S
C1890 H1880 0.950 . S
C1890 C1891 1.386 . S
C1890 C1892 1.391 . S
C1891 C1890 1.386 . S
C1891 C1895 1.393 . S
C1892 H1881 0.950 . S
C1892 C1890 1.391 . S
C1892 C1893 1.400 . S
C1893 C1887 1.491 . S
C1893 C1892 1.400 . S
C1893 C1894 1.398 . S
C1894 H1882 0.950 . S
C1894 C1893 1.398 . S
C1894 C1895 1.391 . S
C1895 H1883 0.950 . S
C1895 C1891 1.393 . S
C1895 C1894 1.391 . S
H1896 C1904 0.950 . S
H1897 C1909 0.950 . S
H1898 C1906 0.950 . S
H1899 C1908 0.950 . S
H1900 C1910 0.950 . S
H1901 C1912 0.950 . S
H1902 C1914 0.950 . S
H1903 C1915 0.950 . S
C1904 H1896 0.950 . S
C1904 C1905 1.386 . S
C1904 C1906 1.391 . S
C1905 C1904 1.386 . S
C1905 C1909 1.393 . S
C1906 H1898 0.950 . S
C1906 C1904 1.391 . S
C1906 C1907 1.400 . S
C1907 C1906 1.400 . S
C1907 C1908 1.398 . S
C1907 C1913 1.491 . S
C1908 H1899 0.950 . S
C1908 C1907 1.398 . S
C1908 C1909 1.391 . S
C1909 H1897 0.950 . S
C1909 C1905 1.393 . S
C1909 C1908 1.391 . S
C1910 H1900 0.950 . S
C1910 C1911 1.386 . S
C1910 C1912 1.391 . S
C1911 C1910 1.386 . S
C1911 C1915 1.393 . S
C1912 H1901 0.950 . S
C1912 C1910 1.391 . S
C1912 C1913 1.400 . S
C1913 C1907 1.491 . S
C1913 C1912 1.400 . S
C1913 C1914 1.398 . S
C1914 H1902 0.950 . S
C1914 C1913 1.398 . S
C1914 C1915 1.391 . S
C1915 H1903 0.950 . S
C1915 C1911 1.393 . S
C1915 C1914 1.391 . S
H1916 C1924 0.950 . S
H1917 C1929 0.950 . S
H1918 C1926 0.950 . S
H1919 C1928 0.950 . S
H1920 C1930 0.950 . S
H1921 C1932 0.950 1_545 S
H1922 C1934 0.950 . S
H1923 C1935 0.950 . S
C1924 H1916 0.950 . S
C1924 C1925 1.386 1_565 S
C1924 C1926 1.391 . S
C1925 C1924 1.386 1_545 S
C1925 C1929 1.393 . S
C1926 H1918 0.950 . S
C1926 C1924 1.391 . S
C1926 C1927 1.400 . S
C1927 C1926 1.400 . S
C1927 C1928 1.398 1_565 S
C1927 C1933 1.491 . S
C1928 H1919 0.950 . S
C1928 C1927 1.398 1_545 S
C1928 C1929 1.391 . S
C1929 H1917 0.950 . S
C1929 C1925 1.393 . S
C1929 C1928 1.391 . S
C1930 H1920 0.950 . S
C1930 C1931 1.386 . S
C1930 C1932 1.391 . S
C1931 C1930 1.386 . S
C1931 C1935 1.393 . S
C1932 H1921 0.950 1_565 S
C1932 C1930 1.391 . S
C1932 C1933 1.400 . S
C1933 C1927 1.491 . S
C1933 C1932 1.400 . S
C1933 C1934 1.398 . S
C1934 H1922 0.950 . S
C1934 C1933 1.398 . S
C1934 C1935 1.391 . S
C1935 H1923 0.950 . S
C1935 C1931 1.393 . S
C1935 C1934 1.391 . S
H1936 C1944 0.950 . S
H1937 C1949 0.950 . S
H1938 C1946 0.950 . S
H1939 C1948 0.950 . S
H1940 C1950 0.950 . S
H1941 C1952 0.950 . S
H1942 C1954 0.950 . S
H1943 C1955 0.950 . S
C1944 H1936 0.950 . S
C1944 C1945 1.386 . S
C1944 C1946 1.391 . S
C1945 C1944 1.386 . S
C1945 C1949 1.393 . S
C1946 H1938 0.950 . S
C1946 C1944 1.391 . S
C1946 C1947 1.400 . S
C1947 C1946 1.400 . S
C1947 C1948 1.398 . S
C1947 C1953 1.491 . S
C1948 H1939 0.950 . S
C1948 C1947 1.398 . S
C1948 C1949 1.391 . S
C1949 H1937 0.950 . S
C1949 C1945 1.393 . S
C1949 C1948 1.391 . S
C1950 H1940 0.950 . S
C1950 C1951 1.386 . S
C1950 C1952 1.391 . S
C1951 C1950 1.386 . S
C1951 C1955 1.393 . S
C1952 H1941 0.950 . S
C1952 C1950 1.391 . S
C1952 C1953 1.400 . S
C1953 C1947 1.491 . S
C1953 C1952 1.400 . S
C1953 C1954 1.398 . S
C1954 H1942 0.950 . S
C1954 C1953 1.398 . S
C1954 C1955 1.391 . S
C1955 H1943 0.950 . S
C1955 C1951 1.393 . S
C1955 C1954 1.391 . S
H1956 C1964 0.950 . S
H1957 C1969 0.950 . S
H1958 C1966 0.950 . S
H1959 C1968 0.950 . S
H1960 C1970 0.950 . S
H1961 C1972 0.954 . S
H1962 C1974 0.950 . S
H1963 C1975 0.950 . S
C1964 H1956 0.950 . S
C1964 C1965 1.386 . S
C1964 C1966 1.391 . S
C1965 C1964 1.386 . S
C1965 C1969 1.393 . S
C1966 H1958 0.950 . S
C1966 C1964 1.391 . S
C1966 C1967 1.400 . S
C1967 C1966 1.400 . S
C1967 C1968 1.398 . S
C1967 C1973 1.491 . S
C1968 H1959 0.950 . S
C1968 C1967 1.398 . S
C1968 C1969 1.391 . S
C1969 H1957 0.950 . S
C1969 C1965 1.393 . S
C1969 C1968 1.391 . S
C1970 H1960 0.950 . S
C1970 C1971 1.386 . S
C1970 C1972 1.397 1_556 S
C1971 C1970 1.386 . S
C1971 C1975 1.393 1_565 S
C1972 H1961 0.954 . S
C1972 C1970 1.397 1_554 S
C1972 C1973 1.390 1_565 S
C1973 C1967 1.491 . S
C1973 C1972 1.390 1_545 S
C1973 C1974 1.398 . S
C1974 H1962 0.950 . S
C1974 C1973 1.398 . S
C1974 C1975 1.391 1_554 S
C1975 H1963 0.950 . S
C1975 C1971 1.393 1_545 S
C1975 C1974 1.391 1_556 S
H1976 C1984 0.950 . S
H1977 C1989 0.950 . S
H1978 C1986 0.950 . S
H1979 C1988 0.950 . S
H1980 C1990 0.950 . S
H1981 C1992 0.950 . S
H1982 C1994 0.950 . S
H1983 C1995 0.950 . S
C1984 H1976 0.950 . S
C1984 C1985 1.386 . S
C1984 C1986 1.391 . S
C1985 C1984 1.386 . S
C1985 C1989 1.393 . S
C1986 H1978 0.950 . S
C1986 C1984 1.391 . S
C1986 C1987 1.400 . S
C1987 C1986 1.400 . S
C1987 C1988 1.398 . S
C1987 C1993 1.491 . S
C1988 H1979 0.950 . S
C1988 C1987 1.398 . S
C1988 C1989 1.391 . S
C1989 H1977 0.950 . S
C1989 C1985 1.393 . S
C1989 C1988 1.391 . S
C1990 H1980 0.950 . S
C1990 C1991 1.386 . S
C1990 C1992 1.391 . S
C1991 C1990 1.386 . S
C1991 C1995 1.393 . S
C1992 H1981 0.950 . S
C1992 C1990 1.391 . S
C1992 C1993 1.400 . S
C1993 C1987 1.491 . S
C1993 C1992 1.400 . S
C1993 C1994 1.398 . S
C1994 H1982 0.950 . S
C1994 C1993 1.398 . S
C1994 C1995 1.391 . S
C1995 H1983 0.950 . S
C1995 C1991 1.393 . S
C1995 C1994 1.391 . S
H1996 C2004 0.950 . S
H1997 C2009 0.950 . S
H1998 C2006 0.950 . S
H1999 C2008 0.950 . S
H2000 C2010 0.950 . S
H2001 C2012 0.950 . S
H2002 C2014 0.950 . S
H2003 C2015 0.950 . S
C2004 H1996 0.950 . S
C2004 C2005 1.386 . S
C2004 C2006 1.391 1_554 S
C2005 C2004 1.386 . S
C2005 C2009 1.393 . S
C2006 H1998 0.950 . S
C2006 C2004 1.391 1_556 S
C2006 C2007 1.400 . S
C2007 C2006 1.400 . S
C2007 C2008 1.398 . S
C2007 C2013 1.491 . S
C2008 H1999 0.950 . S
C2008 C2007 1.398 . S
C2008 C2009 1.391 1_556 S
C2009 H1997 0.950 . S
C2009 C2005 1.393 . S
C2009 C2008 1.391 1_554 S
C2010 H2000 0.950 . S
C2010 C2011 1.386 . S
C2010 C2012 1.391 . S
C2011 C2010 1.386 . S
C2011 C2015 1.393 . S
C2012 H2001 0.950 . S
C2012 C2010 1.391 . S
C2012 C2013 1.400 . S
C2013 C2007 1.491 . S
C2013 C2012 1.400 . S
C2013 C2014 1.398 . S
C2014 H2002 0.950 . S
C2014 C2013 1.398 . S
C2014 C2015 1.391 . S
C2015 H2003 0.950 . S
C2015 C2011 1.393 . S
C2015 C2014 1.391 . S
H2016 C2024 0.950 . S
H2017 C2029 0.950 . S
H2018 C2026 0.950 . S
H2019 C2028 0.950 . S
H2020 C2030 0.950 . S
H2021 C2032 0.950 . S
H2022 C2034 0.950 . S
H2023 C2035 0.950 . S
C2024 H2016 0.950 . S
C2024 C2025 1.386 . S
C2024 C2026 1.391 . S
C2025 C2024 1.386 . S
C2025 C2029 1.393 . S
C2026 H2018 0.950 . S
C2026 C2024 1.391 . S
C2026 C2027 1.400 . S
C2027 C2026 1.400 . S
C2027 C2028 1.398 . S
C2027 C2033 1.491 . S
C2028 H2019 0.950 . S
C2028 C2027 1.398 . S
C2028 C2029 1.391 . S
C2029 H2017 0.950 . S
C2029 C2025 1.393 . S
C2029 C2028 1.391 . S
C2030 H2020 0.950 . S
C2030 C2031 1.386 . S
C2030 C2032 1.391 . S
C2031 C2030 1.386 . S
C2031 C2035 1.393 . S
C2032 H2021 0.950 . S
C2032 C2030 1.391 . S
C2032 C2033 1.400 . S
C2033 C2027 1.491 . S
C2033 C2032 1.400 . S
C2033 C2034 1.398 . S
C2034 H2022 0.950 . S
C2034 C2033 1.398 . S
C2034 C2035 1.391 . S
C2035 H2023 0.950 . S
C2035 C2031 1.393 . S
C2035 C2034 1.391 . S
H2036 C2044 0.950 . S
H2037 C2049 0.950 . S
H2038 C2046 0.950 . S
H2039 C2048 0.950 . S
H2040 C2050 0.950 . S
H2041 C2052 0.950 . S
H2042 C2054 0.950 . S
H2043 C2055 0.950 . S
C2044 H2036 0.950 . S
C2044 C2045 1.386 . S
C2044 C2046 1.391 . S
C2045 C2044 1.386 . S
C2045 C2049 1.393 . S
C2046 H2038 0.950 . S
C2046 C2044 1.391 . S
C2046 C2047 1.400 . S
C2047 C2046 1.400 . S
C2047 C2048 1.398 . S
C2047 C2053 1.491 . S
C2048 H2039 0.950 . S
C2048 C2047 1.398 . S
C2048 C2049 1.391 . S
C2049 H2037 0.950 . S
C2049 C2045 1.393 . S
C2049 C2048 1.391 . S
C2050 H2040 0.950 . S
C2050 C2051 1.386 . S
C2050 C2052 1.391 . S
C2051 C2050 1.386 . S
C2051 C2055 1.393 . S
C2052 H2041 0.950 . S
C2052 C2050 1.391 . S
C2052 C2053 1.400 . S
C2053 C2047 1.491 . S
C2053 C2052 1.400 . S
C2053 C2054 1.398 . S
C2054 H2042 0.950 . S
C2054 C2053 1.398 . S
C2054 C2055 1.391 . S
C2055 H2043 0.950 . S
C2055 C2051 1.393 . S
C2055 C2054 1.391 . S
H2056 C2064 0.950 . S
H2057 C2069 0.950 . S
H2058 C2066 0.950 . S
H2059 C2068 0.950 . S
H2060 C2070 0.950 . S
H2061 C2072 0.950 . S
H2062 C2074 0.950 . S
H2063 C2075 0.950 . S
C2064 H2056 0.950 . S
C2064 C2065 1.386 . S
C2064 C2066 1.391 . S
C2065 C2064 1.386 . S
C2065 C2069 1.393 . S
C2066 H2058 0.950 . S
C2066 C2064 1.391 . S
C2066 C2067 1.400 . S
C2067 C2066 1.400 . S
C2067 C2068 1.398 . S
C2067 C2073 1.491 . S
C2068 H2059 0.950 . S
C2068 C2067 1.398 . S
C2068 C2069 1.391 . S
C2069 H2057 0.950 . S
C2069 C2065 1.393 . S
C2069 C2068 1.391 . S
C2070 H2060 0.950 . S
C2070 C2071 1.386 . S
C2070 C2072 1.391 . S
C2071 C2070 1.386 . S
C2071 C2075 1.393 . S
C2072 H2061 0.950 . S
C2072 C2070 1.391 . S
C2072 C2073 1.400 . S
C2073 C2067 1.491 . S
C2073 C2072 1.400 . S
C2073 C2074 1.398 . S
C2074 H2062 0.950 . S
C2074 C2073 1.398 . S
C2074 C2075 1.391 . S
C2075 H2063 0.950 . S
C2075 C2071 1.393 . S
C2075 C2074 1.391 . S
H2076 C2084 0.950 . S
H2077 C2089 0.950 . S
H2078 C2086 0.943 1_655 S
H2079 C2088 0.950 . S
H2080 C2090 0.950 . S
H2081 C2092 0.950 . S
H2082 C2094 0.950 . S
H2083 C2095 0.950 . S
C2084 H2076 0.950 . S
C2084 C2085 1.386 . S
C2084 C2086 1.380 1_665 S
C2085 C2084 1.386 . S
C2085 C2089 1.393 1_655 S
C2086 H2078 0.943 1_455 S
C2086 C2084 1.380 1_445 S
C2086 C2087 1.419 . S
C2087 C2086 1.419 . S
C2087 C2088 1.398 . S
C2087 C2093 1.491 . S
C2088 H2079 0.950 . S
C2088 C2087 1.398 . S
C2088 C2089 1.391 1_545 S
C2089 H2077 0.950 . S
C2089 C2085 1.393 1_455 S
C2089 C2088 1.391 1_565 S
C2090 H2080 0.950 . S
C2090 C2091 1.386 . S
C2090 C2092 1.391 . S
C2091 C2090 1.386 . S
C2091 C2095 1.393 . S
C2092 H2081 0.950 . S
C2092 C2090 1.391 . S
C2092 C2093 1.400 . S
C2093 C2087 1.491 . S
C2093 C2092 1.400 . S
C2093 C2094 1.398 . S
C2094 H2082 0.950 . S
C2094 C2093 1.398 . S
C2094 C2095 1.391 . S
C2095 H2083 0.950 . S
C2095 C2091 1.393 . S
C2095 C2094 1.391 . S
H2096 C2104 0.950 . S
H2097 C2109 0.950 . S
H2098 C2106 0.950 . S
H2099 C2108 0.950 . S
H2100 C2110 0.950 . S
H2101 C2112 0.950 . S
H2102 C2114 0.950 . S
H2103 C2115 0.950 . S
C2104 H2096 0.950 . S
C2104 C2105 1.386 . S
C2104 C2106 1.391 . S
C2105 C2104 1.386 . S
C2105 C2109 1.393 . S
C2106 H2098 0.950 . S
C2106 C2104 1.391 . S
C2106 C2107 1.400 . S
C2107 C2106 1.400 . S
C2107 C2108 1.398 . S
C2107 C2113 1.491 . S
C2108 H2099 0.950 . S
C2108 C2107 1.398 . S
C2108 C2109 1.391 . S
C2109 H2097 0.950 . S
C2109 C2105 1.393 . S
C2109 C2108 1.391 . S
C2110 H2100 0.950 . S
C2110 C2111 1.386 . S
C2110 C2112 1.391 . S
C2111 C2110 1.386 . S
C2111 C2115 1.393 . S
C2112 H2101 0.950 . S
C2112 C2110 1.391 . S
C2112 C2113 1.400 . S
C2113 C2107 1.491 . S
C2113 C2112 1.400 . S
C2113 C2114 1.398 . S
C2114 H2102 0.950 . S
C2114 C2113 1.398 . S
C2114 C2115 1.391 . S
C2115 H2103 0.950 . S
C2115 C2111 1.393 . S
C2115 C2114 1.391 . S
H2116 C2124 0.950 . S
H2117 C2129 0.950 . S
H2118 C2126 0.954 . S
H2119 C2128 0.950 . S
H2120 C2130 0.950 . S
H2121 C2132 0.950 . S
H2122 C2134 0.950 . S
H2123 C2135 0.950 . S
C2124 H2116 0.950 . S
C2124 C2125 1.386 . S
C2124 C2126 1.343 1_545 S
C2125 C2124 1.386 . S
C2125 C2129 1.393 . S
C2126 H2118 0.954 . S
C2126 C2124 1.343 1_565 S
C2126 C2127 1.447 . S
C2127 C2126 1.447 . S
C2127 C2128 1.398 . S
C2127 C2133 1.491 . S
C2128 H2119 0.950 . S
C2128 C2127 1.398 . S
C2128 C2129 1.391 1_565 S
C2129 H2117 0.950 . S
C2129 C2125 1.393 . S
C2129 C2128 1.391 1_545 S
C2130 H2120 0.950 . S
C2130 C2131 1.386 . S
C2130 C2132 1.391 . S
C2131 C2130 1.386 . S
C2131 C2135 1.393 . S
C2132 H2121 0.950 . S
C2132 C2130 1.391 . S
C2132 C2133 1.400 . S
C2133 C2127 1.491 . S
C2133 C2132 1.400 . S
C2133 C2134 1.398 . S
C2134 H2122 0.950 . S
C2134 C2133 1.398 . S
C2134 C2135 1.391 . S
C2135 H2123 0.950 . S
C2135 C2131 1.393 . S
C2135 C2134 1.391 . S
H2136 C2144 0.950 . S
H2137 C2149 0.950 . S
H2138 C2146 0.950 . S
H2139 C2148 0.950 . S
H2140 C2150 0.950 . S
H2141 C2152 0.950 . S
H2142 C2154 0.950 . S
H2143 C2155 0.950 . S
C2144 H2136 0.950 . S
C2144 C2145 1.386 . S
C2144 C2146 1.391 . S
C2145 C2144 1.386 . S
C2145 C2149 1.393 . S
C2146 H2138 0.950 . S
C2146 C2144 1.391 . S
C2146 C2147 1.400 . S
C2147 C2146 1.400 . S
C2147 C2148 1.398 . S
C2147 C2153 1.491 . S
C2148 H2139 0.950 . S
C2148 C2147 1.398 . S
C2148 C2149 1.391 . S
C2149 H2137 0.950 . S
C2149 C2145 1.393 . S
C2149 C2148 1.391 . S
C2150 H2140 0.950 . S
C2150 C2151 1.386 . S
C2150 C2152 1.391 . S
C2151 C2150 1.386 . S
C2151 C2155 1.393 . S
C2152 H2141 0.950 . S
C2152 C2150 1.391 . S
C2152 C2153 1.400 . S
C2153 C2147 1.491 . S
C2153 C2152 1.400 . S
C2153 C2154 1.398 . S
C2154 H2142 0.950 . S
C2154 C2153 1.398 . S
C2154 C2155 1.391 . S
C2155 H2143 0.950 . S
C2155 C2151 1.393 . S
C2155 C2154 1.391 . S
H2156 C2164 0.950 . S
H2157 C2169 0.950 . S
H2158 C2166 0.950 . S
H2159 C2168 0.950 . S
H2160 C2170 0.950 . S
H2161 C2172 0.950 . S
H2162 C2174 0.950 . S
H2163 C2175 0.950 . S
C2164 H2156 0.950 . S
C2164 C2165 1.386 . S
C2164 C2166 1.391 . S
C2165 C2164 1.386 . S
C2165 C2169 1.393 1_455 S
C2166 H2158 0.950 . S
C2166 C2164 1.391 . S
C2166 C2167 1.400 1_455 S
C2167 C2166 1.400 1_655 S
C2167 C2168 1.398 . S
C2167 C2173 1.491 . S
C2168 H2159 0.950 . S
C2168 C2167 1.398 . S
C2168 C2169 1.391 . S
C2169 H2157 0.950 . S
C2169 C2165 1.393 1_655 S
C2169 C2168 1.391 . S
C2170 H2160 0.950 . S
C2170 C2171 1.386 . S
C2170 C2172 1.391 . S
C2171 C2170 1.386 . S
C2171 C2175 1.393 . S
C2172 H2161 0.950 . S
C2172 C2170 1.391 . S
C2172 C2173 1.400 . S
C2173 C2167 1.491 . S
C2173 C2172 1.400 . S
C2173 C2174 1.398 . S
C2174 H2162 0.950 . S
C2174 C2173 1.398 . S
C2174 C2175 1.391 . S
C2175 H2163 0.950 . S
C2175 C2171 1.393 . S
C2175 C2174 1.391 . S
H2176 C2184 0.950 . S
H2177 C2189 0.950 . S
H2178 C2186 0.950 . S
H2179 C2188 0.950 . S
H2180 C2190 0.950 . S
H2181 C2192 0.950 . S
H2182 C2194 0.950 . S
H2183 C2195 0.950 . S
C2184 H2176 0.950 . S
C2184 C2185 1.386 . S
C2184 C2186 1.391 . S
C2185 C2184 1.386 . S
C2185 C2189 1.393 . S
C2186 H2178 0.950 . S
C2186 C2184 1.391 . S
C2186 C2187 1.400 . S
C2187 C2186 1.400 . S
C2187 C2188 1.398 . S
C2187 C2193 1.491 . S
C2188 H2179 0.950 . S
C2188 C2187 1.398 . S
C2188 C2189 1.391 . S
C2189 H2177 0.950 . S
C2189 C2185 1.393 . S
C2189 C2188 1.391 . S
C2190 H2180 0.950 . S
C2190 C2191 1.386 . S
C2190 C2192 1.391 . S
C2191 C2190 1.386 . S
C2191 C2195 1.393 . S
C2192 H2181 0.950 . S
C2192 C2190 1.391 . S
C2192 C2193 1.400 . S
C2193 C2187 1.491 . S
C2193 C2192 1.400 . S
C2193 C2194 1.398 . S
C2194 H2182 0.950 . S
C2194 C2193 1.398 . S
C2194 C2195 1.391 . S
C2195 H2183 0.950 . S
C2195 C2191 1.393 . S
C2195 C2194 1.391 . S
H2196 C2204 0.950 . S
H2197 C2209 0.950 . S
H2198 C2206 0.950 . S
H2199 C2208 0.950 . S
H2200 C2210 0.950 . S
H2201 C2212 0.950 . S
H2202 C2214 0.950 . S
H2203 C2215 0.950 . S
C2204 H2196 0.950 . S
C2204 C2205 1.386 . S
C2204 C2206 1.391 . S
C2205 C2204 1.386 . S
C2205 C2209 1.393 . S
C2206 H2198 0.950 . S
C2206 C2204 1.391 . S
C2206 C2207 1.400 . S
C2207 C2206 1.400 . S
C2207 C2208 1.398 . S
C2207 C2213 1.491 . S
C2208 H2199 0.950 . S
C2208 C2207 1.398 . S
C2208 C2209 1.391 . S
C2209 H2197 0.950 . S
C2209 C2205 1.393 . S
C2209 C2208 1.391 . S
C2210 H2200 0.950 . S
C2210 C2211 1.386 . S
C2210 C2212 1.391 . S
C2211 C2210 1.386 . S
C2211 C2215 1.393 . S
C2212 H2201 0.950 . S
C2212 C2210 1.391 . S
C2212 C2213 1.400 . S
C2213 C2207 1.491 . S
C2213 C2212 1.400 . S
C2213 C2214 1.398 . S
C2214 H2202 0.950 . S
C2214 C2213 1.398 . S
C2214 C2215 1.391 . S
C2215 H2203 0.950 . S
C2215 C2211 1.393 . S
C2215 C2214 1.391 . S
H2216 C2224 0.950 . S
H2217 C2229 0.950 . S
H2218 C2226 0.950 . S
H2219 C2228 0.950 . S
H2220 C2230 0.950 . S
H2221 C2232 0.950 . S
H2222 C2234 0.950 . S
H2223 C2235 0.950 . S
C2224 H2216 0.950 . S
C2224 C2225 1.386 . S
C2224 C2226 1.391 . S
C2225 C2224 1.386 . S
C2225 C2229 1.393 . S
C2226 H2218 0.950 . S
C2226 C2224 1.391 . S
C2226 C2227 1.400 . S
C2227 C2226 1.400 . S
C2227 C2228 1.398 . S
C2227 C2233 1.491 . S
C2228 H2219 0.950 . S
C2228 C2227 1.398 . S
C2228 C2229 1.391 . S
C2229 H2217 0.950 . S
C2229 C2225 1.393 . S
C2229 C2228 1.391 . S
C2230 H2220 0.950 . S
C2230 C2231 1.386 . S
C2230 C2232 1.391 . S
C2231 C2230 1.386 . S
C2231 C2235 1.393 . S
C2232 H2221 0.950 . S
C2232 C2230 1.391 . S
C2232 C2233 1.400 . S
C2233 C2227 1.491 . S
C2233 C2232 1.400 . S
C2233 C2234 1.398 . S
C2234 H2222 0.950 . S
C2234 C2233 1.398 . S
C2234 C2235 1.391 . S
C2235 H2223 0.950 . S
C2235 C2231 1.393 . S
C2235 C2234 1.391 . S
H2236 C2244 0.950 . S
H2237 C2249 0.950 . S
H2238 C2246 0.950 . S
H2239 C2248 0.950 . S
H2240 C2250 0.950 . S
H2241 C2252 0.950 . S
H2242 C2254 0.950 . S
H2243 C2255 0.950 . S
C2244 H2236 0.950 . S
C2244 C2245 1.386 . S
C2244 C2246 1.391 . S
C2245 C2244 1.386 . S
C2245 C2249 1.393 . S
C2246 H2238 0.950 . S
C2246 C2244 1.391 . S
C2246 C2247 1.400 . S
C2247 C2246 1.400 . S
C2247 C2248 1.398 . S
C2247 C2253 1.491 . S
C2248 H2239 0.950 . S
C2248 C2247 1.398 . S
C2248 C2249 1.391 . S
C2249 H2237 0.950 . S
C2249 C2245 1.393 . S
C2249 C2248 1.391 . S
C2250 H2240 0.950 . S
C2250 C2251 1.386 . S
C2250 C2252 1.391 . S
C2251 C2250 1.386 . S
C2251 C2255 1.393 . S
C2252 H2241 0.950 . S
C2252 C2250 1.391 . S
C2252 C2253 1.400 . S
C2253 C2247 1.491 . S
C2253 C2252 1.400 . S
C2253 C2254 1.398 . S
C2254 H2242 0.950 . S
C2254 C2253 1.398 . S
C2254 C2255 1.391 . S
C2255 H2243 0.950 . S
C2255 C2251 1.393 . S
C2255 C2254 1.391 . S
H2256 C2264 0.950 . S
H2257 C2269 0.950 . S
H2258 C2266 0.953 . S
H2259 C2268 0.950 . S
H2260 C2270 0.950 . S
H2261 C2272 0.941 1_556 S
H2262 C2274 0.950 . S
H2263 C2275 0.950 . S
C2264 H2256 0.950 . S
C2264 C2265 1.386 1_554 S
C2264 C2266 1.347 1_655 S
C2265 C2264 1.386 1_556 S
C2265 C2269 1.393 . S
C2266 H2258 0.953 . S
C2266 C2264 1.347 1_455 S
C2266 C2267 1.443 . S
C2267 C2266 1.443 . S
C2267 C2268 1.398 1_554 S
C2267 C2273 1.491 . S
C2268 H2259 0.950 . S
C2268 C2267 1.398 1_556 S
C2268 C2269 1.391 1_455 S
C2269 H2257 0.950 . S
C2269 C2265 1.393 . S
C2269 C2268 1.391 1_655 S
C2270 H2260 0.950 . S
C2270 C2271 1.386 . S
C2270 C2272 1.391 . S
C2271 C2270 1.386 . S
C2271 C2275 1.393 . S
C2272 H2261 0.941 1_554 S
C2272 C2270 1.391 . S
C2272 C2273 1.400 . S
C2273 C2267 1.491 . S
C2273 C2272 1.400 . S
C2273 C2274 1.398 . S
C2274 H2262 0.950 . S
C2274 C2273 1.398 . S
C2274 C2275 1.391 . S
C2275 H2263 0.950 . S
C2275 C2271 1.393 . S
C2275 C2274 1.391 . S
H2276 C2284 0.950 . S
H2277 C2289 0.950 . S
H2278 C2286 0.950 . S
H2279 C2288 0.950 . S
H2280 C2290 0.950 . S
H2281 C2292 0.950 . S
H2282 C2294 0.950 . S
H2283 C2295 0.950 . S
C2284 H2276 0.950 . S
C2284 C2285 1.386 . S
C2284 C2286 1.391 . S
C2285 C2284 1.386 . S
C2285 C2289 1.393 . S
C2286 H2278 0.950 . S
C2286 C2284 1.391 . S
C2286 C2287 1.400 . S
C2287 C2286 1.400 . S
C2287 C2288 1.398 . S
C2287 C2293 1.491 . S
C2288 H2279 0.950 . S
C2288 C2287 1.398 . S
C2288 C2289 1.391 . S
C2289 H2277 0.950 . S
C2289 C2285 1.393 . S
C2289 C2288 1.391 . S
C2290 H2280 0.950 . S
C2290 C2291 1.386 . S
C2290 C2292 1.391 . S
C2291 C2290 1.386 . S
C2291 C2295 1.393 . S
C2292 H2281 0.950 . S
C2292 C2290 1.391 . S
C2292 C2293 1.400 . S
C2293 C2287 1.491 . S
C2293 C2292 1.400 . S
C2293 C2294 1.398 . S
C2294 H2282 0.950 . S
C2294 C2293 1.398 . S
C2294 C2295 1.391 . S
C2295 H2283 0.950 . S
C2295 C2291 1.393 . S
C2295 C2294 1.391 . S
H2296 C2304 0.950 . S
H2297 C2309 0.950 . S
H2298 C2306 0.950 . S
H2299 C2308 0.950 . S
H2300 C2310 0.950 . S
H2301 C2312 0.950 . S
H2302 C2314 0.950 . S
H2303 C2315 0.950 . S
C2304 H2296 0.950 . S
C2304 C2305 1.386 . S
C2304 C2306 1.391 . S
C2305 C2304 1.386 . S
C2305 C2309 1.393 . S
C2306 H2298 0.950 . S
C2306 C2304 1.391 . S
C2306 C2307 1.400 . S
C2307 C2306 1.400 . S
C2307 C2308 1.398 . S
C2307 C2313 1.491 . S
C2308 H2299 0.950 . S
C2308 C2307 1.398 . S
C2308 C2309 1.391 . S
C2309 H2297 0.950 . S
C2309 C2305 1.393 . S
C2309 C2308 1.391 . S
C2310 H2300 0.950 . S
C2310 C2311 1.386 . S
C2310 C2312 1.391 . S
C2311 C2310 1.386 . S
C2311 C2315 1.393 . S
C2312 H2301 0.950 . S
C2312 C2310 1.391 . S
C2312 C2313 1.400 . S
C2313 C2307 1.491 . S
C2313 C2312 1.400 . S
C2313 C2314 1.398 . S
C2314 H2302 0.950 . S
C2314 C2313 1.398 . S
C2314 C2315 1.391 . S
C2315 H2303 0.950 . S
C2315 C2311 1.393 . S
C2315 C2314 1.391 . S
H2316 C2324 0.950 . S
H2317 C2329 0.950 . S
H2318 C2326 0.950 . S
H2319 C2328 0.950 . S
H2320 C2330 0.950 . S
H2321 C2332 0.950 . S
H2322 C2334 0.950 . S
H2323 C2335 0.950 . S
C2324 H2316 0.950 . S
C2324 C2325 1.386 . S
C2324 C2326 1.391 . S
C2325 C2324 1.386 . S
C2325 C2329 1.393 . S
C2326 H2318 0.950 . S
C2326 C2324 1.391 . S
C2326 C2327 1.400 . S
C2327 C2326 1.400 . S
C2327 C2328 1.398 . S
C2327 C2333 1.491 . S
C2328 H2319 0.950 . S
C2328 C2327 1.398 . S
C2328 C2329 1.391 . S
C2329 H2317 0.950 . S
C2329 C2325 1.393 . S
C2329 C2328 1.391 . S
C2330 H2320 0.950 . S
C2330 C2331 1.386 . S
C2330 C2332 1.391 . S
C2331 C2330 1.386 . S
C2331 C2335 1.393 . S
C2332 H2321 0.950 . S
C2332 C2330 1.391 . S
C2332 C2333 1.400 . S
C2333 C2327 1.491 . S
C2333 C2332 1.400 . S
C2333 C2334 1.398 . S
C2334 H2322 0.950 . S
C2334 C2333 1.398 . S
C2334 C2335 1.391 . S
C2335 H2323 0.950 . S
C2335 C2331 1.393 . S
C2335 C2334 1.391 . S
H2336 C2344 0.950 . S
H2337 C2349 0.950 . S
H2338 C2346 0.950 . S
H2339 C2348 0.950 . S
H2340 C2350 0.950 . S
H2341 C2352 0.950 . S
H2342 C2354 0.950 . S
H2343 C2355 0.950 . S
C2344 H2336 0.950 . S
C2344 C2345 1.386 . S
C2344 C2346 1.391 . S
C2345 C2344 1.386 . S
C2345 C2349 1.393 1_554 S
C2346 H2338 0.950 . S
C2346 C2344 1.391 . S
C2346 C2347 1.400 1_554 S
C2347 C2346 1.400 1_556 S
C2347 C2348 1.398 . S
C2347 C2353 1.491 . S
C2348 H2339 0.950 . S
C2348 C2347 1.398 . S
C2348 C2349 1.391 . S
C2349 H2337 0.950 . S
C2349 C2345 1.393 1_556 S
C2349 C2348 1.391 . S
C2350 H2340 0.950 . S
C2350 C2351 1.386 . S
C2350 C2352 1.391 . S
C2351 C2350 1.386 . S
C2351 C2355 1.393 . S
C2352 H2341 0.950 . S
C2352 C2350 1.391 . S
C2352 C2353 1.400 . S
C2353 C2347 1.491 . S
C2353 C2352 1.400 . S
C2353 C2354 1.398 . S
C2354 H2342 0.950 . S
C2354 C2353 1.398 . S
C2354 C2355 1.391 . S
C2355 H2343 0.950 . S
C2355 C2351 1.393 . S
C2355 C2354 1.391 . S
H2356 C2364 0.950 . S
H2357 C2369 0.950 . S
H2358 C2366 0.950 . S
H2359 C2368 0.950 . S
H2360 C2370 0.950 . S
H2361 C2372 0.950 . S
H2362 C2374 0.950 . S
H2363 C2375 0.950 . S
C2364 H2356 0.950 . S
C2364 C2365 1.386 . S
C2364 C2366 1.391 . S
C2365 C2364 1.386 . S
C2365 C2369 1.393 . S
C2366 H2358 0.950 . S
C2366 C2364 1.391 . S
C2366 C2367 1.400 . S
C2367 C2366 1.400 . S
C2367 C2368 1.398 . S
C2367 C2373 1.491 . S
C2368 H2359 0.950 . S
C2368 C2367 1.398 . S
C2368 C2369 1.391 . S
C2369 H2357 0.950 . S
C2369 C2365 1.393 . S
C2369 C2368 1.391 . S
C2370 H2360 0.950 . S
C2370 C2371 1.386 . S
C2370 C2372 1.391 1_455 S
C2371 C2370 1.386 . S
C2371 C2375 1.393 . S
C2372 H2361 0.950 . S
C2372 C2370 1.391 1_655 S
C2372 C2373 1.400 . S
C2373 C2367 1.491 . S
C2373 C2372 1.400 . S
C2373 C2374 1.398 . S
C2374 H2362 0.950 . S
C2374 C2373 1.398 . S
C2374 C2375 1.391 1_655 S
C2375 H2363 0.950 . S
C2375 C2371 1.393 . S
C2375 C2374 1.391 1_455 S
C1425 C536 1.186 . S
C1431 C5 1.187 . S
C1445 C64 1.181 . S
C1451 C595 1.180 . S
C1465 C123 1.174 . S
C1471 C654 1.174 . S
C1485 C182 1.183 . S
C1491 C477 1.182 . S
C1505 C241 1.187 . S
C1511 C890 1.188 . S
C1525 C713 1.183 . S
C1531 C300 1.184 . S
C1545 C359 1.181 . S
C1551 C772 1.180 . S
C1565 C831 1.177 . S
C1571 C418 1.176 . S
C1585 C949 1.172 . S
C1591 C1067 1.172 . S
C1605 C1303 1.187 . S
C1611 C1008 1.188 . S
C1625 C1126 1.187 . S
C1631 C1362 1.186 . S
C1645 C1244 1.173 . S
C1651 C1185 1.172 . S
C1665 C1183 1.989 . S
C1671 C3 1.991 . S
C1685 C62 1.985 . S
C1691 C1006 2.002 . S
C1705 C121 2.005 . S
C1711 C1065 1.994 . S
C1725 C180 2.001 . S
C1731 C1124 1.985 . S
C1745 C239 2.002 . S
C1751 C1360 1.985 . S
C1765 C1242 2.005 . S
C1771 C298 1.990 . S
C1785 C1301 1.986 . S
C1791 C357 1.995 . S
C1805 C947 1.988 . S
C1811 C416 2.005 . S
C1825 C888 1.985 . S
C1831 C475 2.001 . S
C1845 C534 1.997 . S
C1851 C711 1.985 . S
C1865 C770 1.985 . S
C1871 C593 1.998 . S
C1885 C829 2.004 . S
C1891 C652 1.996 . S
C1905 C52 1.293 . S
C1911 C977 1.285 . S
C1925 C1390 1.291 . S
C1931 C111 1.311 . S
C1945 C1272 1.296 . S
C1951 C170 1.299 . S
C1965 C229 1.316 . S
C1971 C1331 1.280 . S
C1985 C288 1.310 . S
C1991 C1036 1.267 . S
C2005 C1095 1.292 . S
C2011 C347 1.294 . S
C2025 C1154 1.271 . S
C2031 C406 1.298 . S
C2045 C1213 1.266 . S
C2051 C465 1.307 . S
C2065 C33 1.294 . S
C2071 C524 1.296 . S
C2085 C92 1.266 . S
C2091 C583 1.305 . S
C2105 C151 1.297 . S
C2111 C642 1.302 . S
C2125 C210 1.285 . S
C2131 C701 1.314 . S
C2145 C269 1.280 . S
C2151 C760 1.316 . S
C2165 C328 1.282 . S
C2171 C819 1.293 . S
C2185 C878 1.311 . S
C2191 C387 1.291 . S
C2205 C446 1.279 . S
C2211 C937 1.316 . S
C2225 C505 1.296 . S
C2231 C996 1.299 . S
C2245 C1055 1.314 . S
C2251 C741 1.285 . S
C2265 C800 1.285 . S
C2271 C1114 1.315 . S
C2285 C1173 1.298 . S
C2291 C859 1.270 . S
C2305 C1232 1.306 . S
C2311 C918 1.295 . S
C2325 C1291 1.293 . S
C2331 C623 1.290 . S
C2345 C682 1.283 . S
C2351 C1350 1.293 . S
C2365 C1409 1.312 . S
C2371 C564 1.290 . S
