# Generated by pormake.
# Topology ure, (4)-cn, num edge types: 1
# Building blocks:
#     Node 0, Type 0, BuildingBlock: ICAMEG_clean_sbu_1, # of connection points: 4
#     Node 1, Type 0, BuildingBlock: ICAMEG_clean_sbu_1, # of connection points: 4
#     Node 2, Type 0, BuildingBlock: ICAMEG_clean_sbu_1, # of connection points: 4
#     Node 3, Type 0, BuildingBlock: ICAMEG_clean_sbu_1, # of connection points: 4
#     Node 4, Type 0, BuildingBlock: ICAMEG_clean_sbu_1, # of connection points: 4
#     Node 5, Type 0, BuildingBlock: ICAMEG_clean_sbu_1, # of connection points: 4
#     Node 6, Type 0, BuildingBlock: ICAMEG_clean_sbu_1, # of connection points: 4
#     Node 7, Type 0, BuildingBlock: ICAMEG_clean_sbu_1, # of connection points: 4
#     Node 8, Type 0, BuildingBlock: ICAMEG_clean_sbu_1, # of connection points: 4
#     Node 9, Type 0, BuildingBlock: ICAMEG_clean_sbu_1, # of connection points: 4
#     Node 10, Type 0, BuildingBlock: ICAMEG_clean_sbu_1, # of connection points: 4
#     Node 11, Type 0, BuildingBlock: ICAMEG_clean_sbu_1, # of connection points: 4
#     Node 12, Type 0, BuildingBlock: ICAMEG_clean_sbu_1, # of connection points: 4
#     Node 13, Type 0, BuildingBlock: ICAMEG_clean_sbu_1, # of connection points: 4
#     Node 14, Type 0, BuildingBlock: ICAMEG_clean_sbu_1, # of connection points: 4
#     Node 15, Type 0, BuildingBlock: ICAMEG_clean_sbu_1, # of connection points: 4
#     Edge 16, Type (0, 0), BuildingBlock: KIFKEQ_clean_linker_1, # of connection points: 2
#     Edge 17, Type (0, 0), BuildingBlock: KIFKEQ_clean_linker_1, # of connection points: 2
#     Edge 18, Type (0, 0), BuildingBlock: KIFKEQ_clean_linker_1, # of connection points: 2
#     Edge 19, Type (0, 0), BuildingBlock: KIFKEQ_clean_linker_1, # of connection points: 2
#     Edge 20, Type (0, 0), BuildingBlock: KIFKEQ_clean_linker_1, # of connection points: 2
#     Edge 21, Type (0, 0), BuildingBlock: KIFKEQ_clean_linker_1, # of connection points: 2
#     Edge 22, Type (0, 0), BuildingBlock: KIFKEQ_clean_linker_1, # of connection points: 2
#     Edge 23, Type (0, 0), BuildingBlock: KIFKEQ_clean_linker_1, # of connection points: 2
#     Edge 24, Type (0, 0), BuildingBlock: KIFKEQ_clean_linker_1, # of connection points: 2
#     Edge 25, Type (0, 0), BuildingBlock: KIFKEQ_clean_linker_1, # of connection points: 2
#     Edge 26, Type (0, 0), BuildingBlock: KIFKEQ_clean_linker_1, # of connection points: 2
#     Edge 27, Type (0, 0), BuildingBlock: KIFKEQ_clean_linker_1, # of connection points: 2
#     Edge 28, Type (0, 0), BuildingBlock: KIFKEQ_clean_linker_1, # of connection points: 2
#     Edge 29, Type (0, 0), BuildingBlock: KIFKEQ_clean_linker_1, # of connection points: 2
#     Edge 30, Type (0, 0), BuildingBlock: KIFKEQ_clean_linker_1, # of connection points: 2
#     Edge 31, Type (0, 0), BuildingBlock: KIFKEQ_clean_linker_1, # of connection points: 2
#     Edge 32, Type (0, 0), BuildingBlock: KIFKEQ_clean_linker_1, # of connection points: 2
#     Edge 33, Type (0, 0), BuildingBlock: KIFKEQ_clean_linker_1, # of connection points: 2
#     Edge 34, Type (0, 0), BuildingBlock: KIFKEQ_clean_linker_1, # of connection points: 2
#     Edge 35, Type (0, 0), BuildingBlock: KIFKEQ_clean_linker_1, # of connection points: 2
#     Edge 36, Type (0, 0), BuildingBlock: KIFKEQ_clean_linker_1, # of connection points: 2
#     Edge 37, Type (0, 0), BuildingBlock: KIFKEQ_clean_linker_1, # of connection points: 2
#     Edge 38, Type (0, 0), BuildingBlock: KIFKEQ_clean_linker_1, # of connection points: 2
#     Edge 39, Type (0, 0), BuildingBlock: KIFKEQ_clean_linker_1, # of connection points: 2
#     Edge 40, Type (0, 0), BuildingBlock: KIFKEQ_clean_linker_1, # of connection points: 2
#     Edge 41, Type (0, 0), BuildingBlock: KIFKEQ_clean_linker_1, # of connection points: 2
#     Edge 42, Type (0, 0), BuildingBlock: KIFKEQ_clean_linker_1, # of connection points: 2
#     Edge 43, Type (0, 0), BuildingBlock: KIFKEQ_clean_linker_1, # of connection points: 2
#     Edge 44, Type (0, 0), BuildingBlock: KIFKEQ_clean_linker_1, # of connection points: 2
#     Edge 45, Type (0, 0), BuildingBlock: KIFKEQ_clean_linker_1, # of connection points: 2
#     Edge 46, Type (0, 0), BuildingBlock: KIFKEQ_clean_linker_1, # of connection points: 2
#     Edge 47, Type (0, 0), BuildingBlock: KIFKEQ_clean_linker_1, # of connection points: 2
# Relax obj value: 0.298
# Max RMSD: 0.316
# Mean RMSD: 0.229
data_MOF--net-ure--node1-ICAMEG_clean_sbu_1--edge1-KIFKEQ_clean_linker_1
_symmetry_space_group_name_H-M    P1
_symmetry_Int_Tables_number       1
_symmetry_cell_setting            triclinic
loop_
_symmetry_equiv_pos_as_xyz
'x, y, z'
_cell_length_a     33.111638
_cell_length_b     34.073963
_cell_length_c     33.040962
_cell_angle_alpha  93.930064
_cell_angle_beta   94.476761
_cell_angle_gamma 99.796993
loop_
_atom_site_label
_atom_site_type_symbol
_atom_site_fract_x
_atom_site_fract_y
_atom_site_fract_z
_atom_type_partial_charge
Co0 Co 0.31627 0.32436 0.30195 0.0
Co1 Co 0.28202 0.22387 0.30027 0.0
O2 O 0.27854 0.27607 0.28051 0.0
C3 C 0.254 0.37481 0.32238 0.0
O4 O 0.24887 0.35804 0.35662 0.0
C5 C 0.28011 0.2067 0.21138 0.0
O6 O 0.31391 0.23325 0.21173 0.0
O7 O 0.34035 0.22928 0.28848 0.0
O8 O 0.36346 0.29416 0.30924 0.0
H9 H 0.34492 0.1258 0.38061 0.0
H10 H 0.26782 0.32274 0.22262 0.0
O11 O 0.27163 0.35813 0.29441 0.0
H12 H 0.41308 0.34964 0.1926 0.0
H13 H 0.36751 0.47142 0.30663 0.0
H14 H 0.36719 0.3502 0.37971 0.0
H15 H 0.39511 0.34333 0.26315 0.0
H16 H 0.34224 0.40527 0.27111 0.0
O17 O 0.26367 0.19911 0.24419 0.0
H18 H 0.34163 0.19144 0.35474 0.0
H19 H 0.22868 0.14362 0.28492 0.0
H20 H 0.3834 0.41435 0.41729 0.0
H21 H 0.28441 0.32918 0.15156 0.0
H22 H 0.38598 0.47728 0.38111 0.0
H23 H 0.35752 0.34226 0.13638 0.0
O24 O 0.30161 0.31319 0.35842 0.0
H25 H 0.13335 0.23476 0.27109 0.0
H26 H 0.23699 0.20173 0.37255 0.0
H27 H 0.16564 0.19952 0.38995 0.0
H28 H 0.11322 0.21609 0.33902 0.0
H29 H 0.20522 0.23722 0.25518 0.0
H30 H 0.23082 0.07729 0.30986 0.0
H31 H 0.2891 0.06817 0.35832 0.0
O32 O 0.30058 0.24736 0.35663 0.0
C33 C 0.36928 0.25899 0.29794 0.0
C34 C 0.31929 0.12942 0.35961 0.0
C35 C 0.25528 0.10219 0.31986 0.0
N36 N 0.28481 0.17145 0.31866 0.0
C37 C 0.31724 0.16655 0.34489 0.0
C38 C 0.25429 0.13977 0.30575 0.0
C39 C 0.28798 0.09709 0.34706 0.0
C40 C 0.29967 0.32905 0.21617 0.0
N41 N 0.33043 0.33279 0.24696 0.0
C42 C 0.30888 0.33248 0.17591 0.0
C43 C 0.3499 0.33983 0.16736 0.0
C44 C 0.38112 0.34388 0.19893 0.0
C45 C 0.37075 0.34013 0.23878 0.0
C46 C 0.36709 0.4449 0.32294 0.0
C47 C 0.36599 0.37648 0.36352 0.0
C48 C 0.35384 0.40706 0.30271 0.0
N49 N 0.35203 0.37342 0.32346 0.0
C50 C 0.37596 0.41354 0.38517 0.0
C51 C 0.37692 0.44815 0.36482 0.0
C52 C 0.30259 0.2812 0.37608 0.0
C53 C 0.15588 0.22737 0.2935 0.0
C54 C 0.21439 0.20901 0.35021 0.0
C55 C 0.17401 0.20763 0.36022 0.0
C56 C 0.14462 0.21693 0.33163 0.0
N57 N 0.22522 0.21937 0.31277 0.0
C58 C 0.19658 0.22851 0.28459 0.0
Co59 Co 0.99428 0.05842 0.55863 0.0
Co60 Co 0.97087 0.95915 0.5215 0.0
O61 O 1.00195 0.0137 0.52133 0.0
C62 C 0.97602 0.10019 0.48451 0.0
O63 O 0.94197 0.07426 0.47461 0.0
C64 C 0.05795 0.94908 0.50378 0.0
O65 O 0.07156 0.98744 0.51215 0.0
O66 O 0.98681 0.95872 0.58136 0.0
O67 O 0.98787 0.023 0.60373 0.0
H68 H 0.86799 0.85016 0.57016 0.0
H69 H 0.06776 0.06937 0.51169 0.0
O70 O 1.00115 0.09548 0.51424 0.0
H71 H 0.12218 0.08836 0.65629 0.0
H72 H 0.02559 0.20104 0.61968 0.0
H73 H 0.93902 0.06864 0.62379 0.0
H74 H 0.04743 0.07331 0.63711 0.0
H75 H 0.03371 0.14436 0.57237 0.0
O76 O 0.02048 0.93441 0.50793 0.0
H77 H 0.90979 0.918 0.57319 0.0
H78 H 0.96582 0.88422 0.4679 0.0
H79 H 0.93101 0.12438 0.6725 0.0
H80 H 0.14286 0.085 0.52952 0.0
H81 H 0.97407 0.19111 0.67048 0.0
H82 H 0.17051 0.09447 0.60228 0.0
O83 O 0.93375 0.04693 0.54449 0.0
H84 H 0.99401 0.99254 0.37815 0.0
H85 H 0.89203 0.9379 0.46991 0.0
H86 H 0.86929 0.94628 0.40016 0.0
H87 H 0.92062 0.97323 0.35235 0.0
H88 H 0.01525 0.98564 0.44989 0.0
H89 H 0.92552 0.81622 0.46489 0.0
H90 H 0.87573 0.79899 0.51593 0.0
O91 O 0.91928 0.98023 0.53361 0.0
C92 C 0.98854 0.98663 0.60977 0.0
C93 C 0.88966 0.8575 0.54796 0.0
C94 C 0.92187 0.83833 0.48871 0.0
N95 N 0.9402 0.90514 0.52076 0.0
C96 C 0.91332 0.89577 0.54938 0.0
C97 C 0.94485 0.87686 0.49085 0.0
C98 C 0.89397 0.82869 0.51739 0.0
C99 C 0.07959 0.07356 0.54341 0.0
N100 N 0.05325 0.06998 0.57329 0.0
C101 C 0.12213 0.08234 0.55333 0.0
C102 C 0.13762 0.08761 0.59416 0.0
C103 C 0.11055 0.08413 0.62447 0.0
C104 C 0.06823 0.0753 0.6134 0.0
C105 C 1.00647 0.17209 0.6208 0.0
C106 C 0.95819 0.09756 0.62288 0.0
C107 C 0.01077 0.13988 0.59394 0.0
N108 N 0.98698 0.10311 0.5954 0.0
C109 C 0.95328 0.12903 0.65038 0.0
C110 C 0.97758 0.1665 0.64928 0.0
C111 C 0.90814 0.01429 0.53766 0.0
C112 C 0.9715 0.98029 0.39807 0.0
C113 C 0.91463 0.94973 0.44998 0.0
C114 C 0.90155 0.95427 0.40992 0.0
C115 C 0.93018 0.96951 0.38365 0.0
N116 N 0.9551 0.96064 0.46407 0.0
C117 C 0.98344 0.97585 0.43871 0.0
Co118 Co 0.22178 0.68833 0.82039 0.0
Co119 Co 0.25627 0.78601 0.80808 0.0
O120 O 0.2542 0.72902 0.79141 0.0
C121 C 0.2921 0.6452 0.83715 0.0
O122 O 0.30801 0.67169 0.86736 0.0
C123 C 0.26786 0.7823 0.71701 0.0
O124 O 0.25706 0.74326 0.71268 0.0
O125 O 0.1954 0.77795 0.79392 0.0
O126 O 0.17906 0.72305 0.82759 0.0
H127 H 0.20623 0.90172 0.87834 0.0
H128 H 0.24443 0.66554 0.73779 0.0
O129 O 0.26276 0.65167 0.81248 0.0
H130 H 0.0931 0.6298 0.73046 0.0
H131 H 0.17493 0.54772 0.85425 0.0
H132 H 0.1807 0.69021 0.89718 0.0
H133 H 0.13304 0.65962 0.79442 0.0
H134 H 0.19756 0.59961 0.80851 0.0
O135 O 0.26704 0.80149 0.75141 0.0
H136 H 0.20444 0.83079 0.85632 0.0
H137 H 0.31079 0.86191 0.79325 0.0
H138 H 0.1578 0.63921 0.94396 0.0
H139 H 0.20562 0.63534 0.67301 0.0
H140 H 0.15663 0.56759 0.92297 0.0
H141 H 0.12935 0.61739 0.66932 0.0
O142 O 0.25219 0.71251 0.87251 0.0
H143 H 0.39834 0.75962 0.78737 0.0
H144 H 0.31427 0.82301 0.88028 0.0
H145 H 0.38712 0.82191 0.90188 0.0
H146 H 0.42984 0.7911 0.85506 0.0
H147 H 0.325 0.75866 0.76802 0.0
H148 H 0.31366 0.93321 0.81449 0.0
H149 H 0.26128 0.95349 0.85758 0.0
O150 O 0.24665 0.77571 0.86608 0.0
C151 C 0.169 0.75222 0.80892 0.0
C152 C 0.22928 0.89326 0.85963 0.0
C153 C 0.28955 0.91093 0.82376 0.0
N154 N 0.25761 0.84218 0.82372 0.0
C155 C 0.22842 0.85313 0.84705 0.0
C156 C 0.28769 0.87052 0.81173 0.0
C157 C 0.26016 0.92229 0.84795 0.0
C158 C 0.21127 0.65787 0.73617 0.0
N159 N 0.19102 0.66477 0.76965 0.0
C160 C 0.18946 0.64076 0.69949 0.0
C161 C 0.14669 0.63069 0.69737 0.0
C162 C 0.12628 0.6377 0.73169 0.0
C163 C 0.14907 0.65484 0.76777 0.0
C164 C 0.17615 0.57894 0.86392 0.0
C165 C 0.17908 0.65901 0.88748 0.0
C166 C 0.18861 0.60844 0.83804 0.0
N167 N 0.19144 0.64798 0.85054 0.0
C168 C 0.16653 0.63032 0.91427 0.0
C169 C 0.16602 0.59014 0.9026 0.0
C170 C 0.25337 0.74782 0.8879 0.0
C171 C 0.38018 0.77383 0.80784 0.0
C172 C 0.33255 0.80924 0.85965 0.0
C173 C 0.37386 0.80908 0.872 0.0
C174 C 0.39782 0.79144 0.8458 0.0
N175 N 0.31525 0.79144 0.82251 0.0
C176 C 0.3386 0.77382 0.79682 0.0
Co177 Co 0.5743 0.9567 0.05094 0.0
Co178 Co 0.52838 0.97102 0.95797 0.0
O179 O 0.53816 0.98511 0.01772 0.0
C180 C 0.50994 0.97086 0.11139 0.0
O181 O 0.48963 0.99277 0.08903 0.0
C182 C 0.52055 0.0596 0.96774 0.0
O183 O 0.53114 0.06305 0.00712 0.0
O184 O 0.58896 0.98575 0.95352 0.0
O185 O 0.6107 0.9534 0.00566 0.0
H186 H 0.5586 0.90589 0.82519 0.0
H187 H 0.55821 0.03674 0.08016 0.0
O188 O 0.54055 0.95736 0.09867 0.0
H189 H 0.70916 0.05031 0.08682 0.0
H190 H 0.63575 0.91499 0.18113 0.0
H191 H 0.61547 0.88757 0.03198 0.0
H192 H 0.66479 0.98564 0.06432 0.0
H193 H 0.60635 0.96138 0.13873 0.0
O194 O 0.52061 0.02686 0.94662 0.0
H195 H 0.56894 0.92452 0.89914 0.0
H196 H 0.46956 0.98858 0.8908 0.0
H197 H 0.64914 0.84262 0.0731 0.0
H198 H 0.60129 0.10207 0.10216 0.0
H199 H 0.65809 0.85529 0.14845 0.0
H200 H 0.67743 0.10924 0.10565 0.0
O201 O 0.53937 0.90546 0.03038 0.0
H202 H 0.39433 0.98899 0.0124 0.0
H203 H 0.46219 0.90279 0.92399 0.0
H204 H 0.38761 0.88492 0.93009 0.0
H205 H 0.35331 0.92785 0.97451 0.0
H206 H 0.46832 0.0063 0.00508 0.0
H207 H 0.45842 0.97091 0.8167 0.0
H208 H 0.50293 0.92903 0.78343 0.0
O209 O 0.53418 0.91398 0.96413 0.0
C210 C 0.61662 0.97077 0.97319 0.0
C211 C 0.53896 0.92411 0.83934 0.0
C212 C 0.48279 0.96065 0.83456 0.0
N213 N 0.51983 0.95753 0.89941 0.0
C214 C 0.54464 0.93475 0.88124 0.0
C215 C 0.4894 0.97074 0.87653 0.0
C216 C 0.50774 0.93712 0.81592 0.0
C217 C 0.59119 0.03938 0.08202 0.0
N218 N 0.60879 0.00717 0.07146 0.0
C219 C 0.61552 0.07655 0.0944 0.0
C220 C 0.65822 0.08057 0.09627 0.0
C221 C 0.67603 0.04754 0.0857 0.0
C222 C 0.6507 0.01093 0.07313 0.0
C223 C 0.63251 0.90928 0.14835 0.0
C224 C 0.62118 0.89453 0.06454 0.0
C225 C 0.6155 0.93533 0.12412 0.0
N226 N 0.60864 0.92704 0.08284 0.0
C227 C 0.63976 0.86859 0.08773 0.0
C228 C 0.64474 0.87569 0.12999 0.0
C229 C 0.53198 0.8916 0.99344 0.0
C230 C 0.40891 0.97008 0.99266 0.0
C231 C 0.44748 0.92199 0.94321 0.0
C232 C 0.40528 0.91151 0.94662 0.0
C233 C 0.38595 0.93574 0.97151 0.0
N234 N 0.46969 0.95628 0.9633 0.0
C235 C 0.45092 0.97988 0.98818 0.0
Co236 Co 0.30296 0.70988 0.24885 0.0
Co237 Co 0.31566 0.76055 0.34418 0.0
O238 O 0.29054 0.75246 0.28706 0.0
C239 C 0.29299 0.7766 0.19255 0.0
O240 O 0.28221 0.80159 0.21999 0.0
C241 C 0.22981 0.78159 0.34812 0.0
O242 O 0.22114 0.77323 0.30873 0.0
O243 O 0.2943 0.70284 0.35254 0.0
O244 O 0.30794 0.67445 0.29329 0.0
H245 H 0.4018 0.72603 0.46424 0.0
H246 H 0.22653 0.74351 0.2306 0.0
O247 O 0.3002 0.74253 0.20118 0.0
H248 H 0.17977 0.59895 0.23589 0.0
H249 H 0.28454 0.62055 0.11829 0.0
H250 H 0.36295 0.65424 0.2529 0.0
H251 H 0.25342 0.62801 0.24776 0.0
H252 H 0.27085 0.6758 0.16438 0.0
O253 O 0.26403 0.77609 0.36546 0.0
H254 H 0.36814 0.71636 0.39416 0.0
H255 H 0.31603 0.82083 0.41471 0.0
H256 H 0.37656 0.59785 0.2083 0.0
H257 H 0.1527 0.71567 0.21798 0.0
H258 H 0.33712 0.5806 0.1405 0.0
H259 H 0.12878 0.64281 0.22056 0.0
O260 O 0.36222 0.73248 0.25862 0.0
H261 H 0.30793 0.89563 0.29316 0.0
H262 H 0.39572 0.81558 0.36642 0.0
H263 H 0.42321 0.88561 0.35697 0.0
H264 H 0.3788 0.92652 0.32058 0.0
H265 H 0.28195 0.82543 0.3028 0.0
H266 H 0.34887 0.83139 0.4851 0.0
H267 H 0.39248 0.78401 0.51019 0.0
O268 O 0.36916 0.74699 0.32633 0.0
C269 C 0.29889 0.67239 0.32971 0.0
C270 C 0.38299 0.74695 0.45365 0.0
C271 C 0.35319 0.80602 0.46538 0.0
N272 N 0.34028 0.76805 0.4002 0.0
C273 C 0.36386 0.74163 0.41396 0.0
C274 C 0.33447 0.79972 0.42553 0.0
C275 C 0.37769 0.77945 0.47942 0.0
C276 C 0.21662 0.71184 0.23136 0.0
N277 N 0.24456 0.68755 0.23943 0.0
C278 C 0.17463 0.6962 0.2244 0.0
C279 C 0.16122 0.65534 0.22593 0.0
C280 C 0.1898 0.63073 0.23455 0.0
C281 C 0.23152 0.64745 0.24137 0.0
C282 C 0.30178 0.62765 0.14784 0.0
C283 C 0.34546 0.6468 0.22356 0.0
C284 C 0.2944 0.65912 0.17399 0.0
N285 N 0.31574 0.668 0.21158 0.0
C286 C 0.35333 0.61485 0.19842 0.0
C287 C 0.33121 0.6052 0.16037 0.0
C288 C 0.38437 0.74218 0.29224 0.0
C289 C 0.32734 0.8783 0.30948 0.0
C290 C 0.37626 0.83289 0.35036 0.0
C291 C 0.39205 0.87271 0.34514 0.0
C292 C 0.36725 0.89557 0.32472 0.0
N293 N 0.33671 0.81625 0.33611 0.0
C294 C 0.3126 0.83839 0.31536 0.0
Co295 Co 0.52654 0.05144 0.46619 0.0
Co296 Co 0.52713 0.95821 0.49911 0.0
O297 O 0.5098 0.01076 0.5039 0.0
C298 C 0.55623 0.12505 0.52098 0.0
O299 O 0.59225 0.12576 0.50668 0.0
C300 C 0.43928 0.94051 0.52291 0.0
O301 O 0.43156 0.97449 0.51064 0.0
O302 O 0.50222 0.9487 0.44126 0.0
O303 O 0.52462 0.00932 0.42042 0.0
H304 H 0.58892 0.84982 0.42946 0.0
H305 H 0.45479 0.05877 0.51277 0.0
O306 O 0.52757 0.09495 0.51109 0.0
H307 H 0.40166 0.04983 0.36817 0.0
H308 H 0.52214 0.1808 0.40154 0.0
H309 H 0.58001 0.05672 0.39772 0.0
H310 H 0.47471 0.0483 0.38737 0.0
H311 H 0.50505 0.13158 0.45138 0.0
O312 O 0.47429 0.93064 0.51901 0.0
H313 H 0.56807 0.91587 0.4372 0.0
H314 H 0.52215 0.88903 0.55049 0.0
H315 H 0.59477 0.10362 0.34493 0.0
H316 H 0.38152 0.06105 0.49491 0.0
H317 H 0.56681 0.16667 0.34727 0.0
H318 H 0.35448 0.0564 0.42213 0.0
O319 O 0.58577 0.04885 0.48214 0.0
H320 H 0.53061 0.00464 0.64732 0.0
H321 H 0.60807 0.95018 0.54175 0.0
H322 H 0.64039 0.96564 0.6121 0.0
H323 H 0.60157 0.99301 0.66549 0.0
H324 H 0.49963 0.98921 0.57655 0.0
H325 H 0.54216 0.82262 0.54381 0.0
H326 H 0.57594 0.80267 0.48301 0.0
O327 O 0.58133 0.98239 0.48024 0.0
C328 C 0.50929 0.97237 0.41326 0.0
C329 C 0.57428 0.8582 0.45612 0.0
C330 C 0.54799 0.8429 0.52027 0.0
N331 N 0.54396 0.90636 0.49425 0.0
C332 C 0.56245 0.89558 0.46069 0.0
C333 C 0.5366 0.88052 0.5238 0.0
C334 C 0.56696 0.83174 0.48616 0.0
C335 C 0.4433 0.05697 0.48104 0.0
N336 N 0.469 0.05311 0.4512 0.0
C337 C 0.40176 0.05817 0.47111 0.0
C338 C 0.38659 0.05551 0.43028 0.0
C339 C 0.41302 0.05178 0.39999 0.0
C340 C 0.45435 0.05069 0.41108 0.0
C341 C 0.53509 0.1537 0.40052 0.0
C342 C 0.5673 0.08389 0.3988 0.0
C343 C 0.52613 0.12596 0.4292 0.0
N344 N 0.54261 0.09172 0.42849 0.0
C345 C 0.57587 0.11039 0.36884 0.0
C346 C 0.56006 0.14574 0.37007 0.0
C347 C 0.60236 0.01763 0.48297 0.0
C348 C 0.54776 0.99253 0.62438 0.0
C349 C 0.5909 0.96201 0.56479 0.0
C350 C 0.60939 0.97069 0.6046 0.0
C351 C 0.5876 0.98605 0.63454 0.0
N352 N 0.55174 0.96833 0.55505 0.0
C353 C 0.53028 0.98351 0.58425 0.0
Co354 Co 0.26707 0.31749 0.73989 0.0
Co355 Co 0.26965 0.27019 0.82815 0.0
O356 O 0.28493 0.27516 0.77142 0.0
C357 C 0.27183 0.25264 0.6727 0.0
O358 O 0.28874 0.22944 0.6965 0.0
C359 C 0.35406 0.24447 0.82929 0.0
O360 O 0.3596 0.25492 0.7924 0.0
O361 O 0.29815 0.32639 0.8438 0.0
O362 O 0.27246 0.354 0.79019 0.0
H363 H 0.21805 0.31885 0.9582 0.0
H364 H 0.34248 0.28264 0.72386 0.0
O365 O 0.26054 0.28412 0.68706 0.0
H366 H 0.38726 0.42827 0.73006 0.0
H367 H 0.26282 0.40504 0.62309 0.0
H368 H 0.21397 0.37763 0.75723 0.0
H369 H 0.31605 0.39988 0.7408 0.0
H370 H 0.27963 0.34732 0.65739 0.0
O371 O 0.32167 0.24986 0.84578 0.0
H372 H 0.23462 0.32189 0.88689 0.0
H373 H 0.27401 0.2097 0.88915 0.0
H374 H 0.20016 0.43786 0.72573 0.0
H375 H 0.41392 0.30968 0.71332 0.0
H376 H 0.22438 0.45188 0.65801 0.0
H377 H 0.43698 0.38315 0.7162 0.0
O378 O 0.20908 0.29543 0.7478 0.0
H379 H 0.2542 0.13241 0.75684 0.0
H380 H 0.18819 0.22282 0.84232 0.0
H381 H 0.15135 0.15458 0.82087 0.0
H382 H 0.18439 0.10878 0.77788 0.0
H383 H 0.2898 0.2009 0.77873 0.0
H384 H 0.25818 0.20561 0.96056 0.0
H385 H 0.22994 0.26042 0.99558 0.0
O386 O 0.21611 0.28926 0.81478 0.0
C387 C 0.29074 0.35659 0.82571 0.0
C388 C 0.2303 0.29475 0.94326 0.0
C389 C 0.25287 0.23122 0.94461 0.0
N390 N 0.25523 0.26603 0.88378 0.0
C391 C 0.23967 0.29628 0.90285 0.0
C392 C 0.26188 0.23377 0.90417 0.0
C393 C 0.23701 0.26198 0.96423 0.0
C394 C 0.35163 0.31441 0.72472 0.0
N395 N 0.32419 0.33924 0.73192 0.0
C396 C 0.39247 0.32969 0.71892 0.0
C397 C 0.40542 0.37088 0.72058 0.0
C398 C 0.37754 0.39617 0.72825 0.0
C399 C 0.33702 0.37976 0.73409 0.0
C400 C 0.25215 0.39931 0.65262 0.0
C401 C 0.22514 0.38362 0.72802 0.0
C402 C 0.26087 0.36613 0.67193 0.0
N403 N 0.24827 0.35915 0.70969 0.0
C404 C 0.21701 0.41775 0.7102 0.0
C405 C 0.23072 0.42564 0.67228 0.0
C406 C 0.1939 0.29009 0.78162 0.0
C407 C 0.23959 0.15198 0.77581 0.0
C408 C 0.20292 0.20307 0.82375 0.0
C409 C 0.18185 0.16444 0.81168 0.0
C410 C 0.2004 0.13877 0.78756 0.0
N411 N 0.24153 0.21576 0.81239 0.0
C412 C 0.25975 0.1908 0.78852 0.0
Co413 Co 0.99776 0.94049 0.95887 0.0
Co414 Co 0.99845 0.03759 0.99882 0.0
O415 O 0.01505 0.98453 1.00103 0.0
C416 C 0.99634 0.89637 0.03687 0.0
O417 O 0.01074 0.92834 0.06163 0.0
C418 C 0.08853 0.05685 0.99782 0.0
O419 O 0.08705 0.02559 0.97191 0.0
O420 O 1.00673 0.04145 0.93948 0.0
O421 O 1.00633 0.97827 0.91719 0.0
H422 H 0.92242 0.14109 0.94337 0.0
H423 H 0.06899 0.9415 0.02129 0.0
O424 O 0.98865 0.89893 0.9989 0.0
H425 H 0.12407 0.92296 0.88861 0.0
H426 H 0.99817 0.80471 0.88889 0.0
H427 H 0.95788 0.93563 0.87407 0.0
H428 H 0.05179 0.92974 0.89205 0.0
H429 H 1.00681 0.85411 0.94772 0.0
O430 O 0.05628 0.06469 0.01276 0.0
H431 H 0.94315 0.07485 0.94388 0.0
H432 H 0.02039 0.11272 0.05311 0.0
H433 H 0.94998 0.88755 0.81474 0.0
H434 H 0.14121 0.93436 0.0192 0.0
H435 H 0.97194 0.82299 0.8212 0.0
H436 H 0.16945 0.92498 0.95245 0.0
O437 O 0.93836 0.94744 0.96097 0.0
H438 H 0.03843 0.01601 0.14441 0.0
H439 H 0.92966 0.04936 0.04896 0.0
H440 H 0.91788 0.04479 0.12141 0.0
H441 H 0.97254 0.02807 0.1697 0.0
H442 H 0.04874 0.02043 0.07162 0.0
H443 H 1.00106 0.17945 0.05348 0.0
H444 H 0.95185 0.19399 0.99851 0.0
O445 O 0.94062 0.01174 0.98404 0.0
C446 C 0.0088 0.01466 0.91141 0.0
C447 C 0.9438 0.13504 0.96767 0.0
C448 C 0.98799 0.1566 0.02944 0.0
N449 N 0.98234 0.08971 0.99885 0.0
C450 C 0.95542 0.09753 0.96824 0.0
C451 C 0.99883 0.11876 0.02904 0.0
C452 C 0.96027 0.1647 0.99854 0.0
C453 C 0.08023 0.93616 0.99218 0.0
N454 N 0.0551 0.93423 0.957 0.0
C455 C 0.12158 0.9327 0.99114 0.0
C456 C 0.13745 0.9276 0.95371 0.0
C457 C 0.11201 0.92643 0.91791 0.0
C458 C 0.07086 0.93007 0.92014 0.0
C459 C 0.98832 0.83312 0.88578 0.0
C460 C 0.96586 0.90678 0.87823 0.0
C461 C 0.99235 0.86112 0.91935 0.0
N462 N 0.98159 0.8978 0.91531 0.0
C463 C 0.96156 0.87969 0.84411 0.0
C464 C 0.97344 0.84299 0.84792 0.0
C465 C 0.92091 0.97732 0.97065 0.0
C466 C 0.01441 0.02338 0.12368 0.0
C467 C 0.95351 0.04186 0.06974 0.0
C468 C 0.94671 0.03945 0.11076 0.0
C469 C 0.97741 0.0301 0.13784 0.0
N470 N 0.98988 0.03522 0.05609 0.0
C471 C 0.02013 0.02607 0.08246 0.0
Co472 Co 0.80282 0.20833 0.74944 0.0
Co473 Co 0.81613 0.25835 0.84495 0.0
O474 O 0.79109 0.25088 0.78792 0.0
C475 C 0.79667 0.27749 0.69623 0.0
O476 O 0.78674 0.30172 0.72491 0.0
C477 C 0.73023 0.27876 0.8488 0.0
O478 O 0.72082 0.26845 0.80979 0.0
O479 O 0.79292 0.20139 0.85289 0.0
O480 O 0.80554 0.17175 0.79366 0.0
H481 H 0.89797 0.22071 0.96617 0.0
H482 H 0.72797 0.24424 0.73039 0.0
O483 O 0.80195 0.24232 0.70273 0.0
H484 H 0.67745 0.09981 0.73166 0.0
H485 H 0.78781 0.124 0.61579 0.0
H486 H 0.85972 0.14982 0.75397 0.0
H487 H 0.75132 0.12721 0.74577 0.0
H488 H 0.77282 0.17739 0.6635 0.0
O489 O 0.76519 0.27517 0.86588 0.0
H490 H 0.86562 0.21209 0.89566 0.0
H491 H 0.8185 0.31964 0.91484 0.0
H492 H 0.87365 0.09454 0.70812 0.0
H493 H 0.65399 0.21809 0.71553 0.0
H494 H 0.83831 0.08188 0.63812 0.0
H495 H 0.62816 0.14531 0.71608 0.0
O496 O 0.86217 0.22973 0.75994 0.0
H497 H 0.81053 0.39492 0.79767 0.0
H498 H 0.89818 0.31056 0.86468 0.0
H499 H 0.92699 0.38033 0.85586 0.0
H500 H 0.8826 0.42351 0.82268 0.0
H501 H 0.7831 0.32477 0.80676 0.0
H502 H 0.85048 0.32941 0.98555 0.0
H503 H 0.89094 0.2799 0.01159 0.0
O504 O 0.86912 0.24308 0.82766 0.0
C505 C 0.79574 0.17044 0.82999 0.0
C506 C 0.88073 0.24263 0.95516 0.0
C507 C 0.85393 0.30356 0.96606 0.0
N508 N 0.8404 0.26541 0.90101 0.0
C509 C 0.86228 0.23787 0.91524 0.0
C510 C 0.83574 0.29775 0.92601 0.0
C511 C 0.87665 0.27579 0.98064 0.0
C512 C 0.71725 0.21261 0.73036 0.0
N513 N 0.74423 0.18744 0.73865 0.0
C514 C 0.67517 0.19792 0.7221 0.0
C515 C 0.66068 0.15711 0.72248 0.0
C516 C 0.6883 0.13158 0.73123 0.0
C517 C 0.73015 0.14736 0.73935 0.0
C518 C 0.8036 0.12936 0.64613 0.0
C519 C 0.84355 0.14404 0.72388 0.0
C520 C 0.79547 0.15976 0.67322 0.0
N521 N 0.81521 0.16665 0.71166 0.0
C522 C 0.85181 0.11287 0.69791 0.0
C523 C 0.83188 0.10571 0.65869 0.0
C524 C 0.88432 0.23911 0.79351 0.0
C525 C 0.82992 0.37663 0.81256 0.0
C526 C 0.87877 0.32886 0.84995 0.0
C527 C 0.8953 0.36854 0.84507 0.0
C528 C 0.87054 0.3926 0.82644 0.0
N529 N 0.83857 0.31356 0.83702 0.0
C530 C 0.81443 0.33682 0.81805 0.0
Co531 Co 0.02866 0.5474 0.9683 0.0
Co532 Co 0.02847 0.45553 0.0052 0.0
O533 O 0.01222 0.50869 0.00804 0.0
C534 C 0.05998 0.62335 0.01891 0.0
O535 O 0.09507 0.62358 0.00283 0.0
C536 C 0.94073 0.44073 0.02929 0.0
O537 O 0.93488 0.47601 0.01918 0.0
O538 O 1.00432 0.44405 0.94722 0.0
O539 O 0.02552 0.50375 0.92437 0.0
H540 H 0.08883 0.34393 0.93986 0.0
H541 H 0.95868 0.55917 0.01585 0.0
O542 O 0.03125 0.59295 0.01131 0.0
H543 H 0.9016 0.5423 0.8721 0.0
H544 H 0.01794 0.66757 0.89038 0.0
H545 H 0.082 0.54794 0.90064 0.0
H546 H 0.9747 0.54022 0.89016 0.0
H547 H 0.00733 0.62654 0.94828 0.0
O548 O 0.97488 0.42935 0.0245 0.0
H549 H 0.06993 0.4109 0.94565 0.0
H550 H 0.02088 0.38761 0.05835 0.0
H551 H 0.0908 0.58652 0.8407 0.0
H552 H 0.88546 0.56226 0.99907 0.0
H553 H 0.05833 0.64584 0.83471 0.0
H554 H 0.85642 0.55366 0.92673 0.0
O555 O 0.0879 0.54464 0.98307 0.0
H556 H 0.03071 0.5059 0.15224 0.0
H557 H 0.10827 0.44708 0.0495 0.0
H558 H 0.13964 0.46318 0.12013 0.0
H559 H 0.10075 0.49273 0.1721 0.0
H560 H 1.00066 0.48968 0.08128 0.0
H561 H 0.03884 0.32026 0.05357 0.0
H562 H 0.07315 0.29804 0.99404 0.0
O563 O 0.08319 0.47851 0.98673 0.0
C564 C 0.01134 0.46665 0.91843 0.0
C565 C 0.07397 0.35329 0.966 0.0
C566 C 0.04587 0.33999 0.02979 0.0
N567 N 0.04444 0.40325 0.00233 0.0
C568 C 0.06329 0.39123 0.96949 0.0
C569 C 0.03567 0.37815 0.03226 0.0
C570 C 0.06513 0.32755 0.99639 0.0
C571 C 0.94636 0.55568 0.98429 0.0
N572 N 0.97099 0.54929 0.9541 0.0
C573 C 0.90483 0.55731 0.97498 0.0
C574 C 0.88853 0.55242 0.9344 0.0
C575 C 0.91384 0.54599 0.90375 0.0
C576 C 0.9552 0.54454 0.91421 0.0
C577 C 0.03247 0.64158 0.89255 0.0
C578 C 0.06815 0.57432 0.89877 0.0
C579 C 0.0271 0.61855 0.92571 0.0
N580 N 0.04434 0.58496 0.92819 0.0
C581 C 0.07331 0.59603 0.86472 0.0
C582 C 0.05516 0.62967 0.86155 0.0
C583 C 0.10423 0.51336 0.98528 0.0
C584 C 0.04786 0.4928 0.12993 0.0
C585 C 0.09106 0.45984 0.07193 0.0
C586 C 0.10901 0.4689 0.11189 0.0
C587 C 0.08719 0.48547 0.14104 0.0
N588 N 0.05234 0.46686 0.06129 0.0
C589 C 0.03088 0.48333 0.08968 0.0
Co590 Co 0.76633 0.81937 0.23704 0.0
Co591 Co 0.77115 0.76704 0.32153 0.0
O592 O 0.78377 0.77524 0.26516 0.0
C593 C 0.77426 0.75956 0.16704 0.0
O594 O 0.794 0.73749 0.1897 0.0
C595 C 0.85316 0.75786 0.3602 0.0
O596 O 0.85239 0.78978 0.38458 0.0
O597 O 0.7992 0.82314 0.33945 0.0
O598 O 0.77263 0.85362 0.28859 0.0
H599 H 0.72534 0.80694 0.45742 0.0
H600 H 0.84457 0.78525 0.22903 0.0
O601 O 0.75881 0.78796 0.18289 0.0
H602 H 0.88633 0.93039 0.22574 0.0
H603 H 0.76119 0.91199 0.12478 0.0
H604 H 0.71423 0.87949 0.25845 0.0
H605 H 0.81525 0.90202 0.23574 0.0
H606 H 0.77733 0.85231 0.15567 0.0
O607 O 0.82445 0.74638 0.3316 0.0
H608 H 0.73889 0.8147 0.38579 0.0
H609 H 0.77851 0.70249 0.37744 0.0
H610 H 0.70066 0.94136 0.23009 0.0
H611 H 0.91589 0.8126 0.21976 0.0
H612 H 0.7245 0.95822 0.16295 0.0
H613 H 0.93757 0.88575 0.21757 0.0
O614 O 0.70846 0.79767 0.24606 0.0
H615 H 0.75726 0.63259 0.24388 0.0
H616 H 0.69087 0.71706 0.33559 0.0
H617 H 0.65487 0.6492 0.31127 0.0
H618 H 0.68812 0.60639 0.26511 0.0
H619 H 0.79201 0.70087 0.26865 0.0
H620 H 0.7654 0.69351 0.449 0.0
H621 H 0.73868 0.74599 0.48951 0.0
O622 O 0.71675 0.78567 0.31193 0.0
C623 C 0.79142 0.85435 0.32355 0.0
C624 C 0.73697 0.78384 0.44008 0.0
C625 C 0.75948 0.7202 0.43536 0.0
N626 N 0.75949 0.75913 0.37744 0.0
C627 C 0.74468 0.78807 0.3995 0.0
C628 C 0.76686 0.72546 0.39486 0.0
C629 C 0.74448 0.74966 0.45808 0.0
C630 C 0.85251 0.8168 0.22663 0.0
N631 N 0.82385 0.84123 0.22947 0.0
C632 C 0.8936 0.83231 0.22202 0.0
C633 C 0.9058 0.87332 0.22096 0.0
C634 C 0.87706 0.89832 0.22531 0.0
C635 C 0.83634 0.88177 0.23019 0.0
C636 C 0.75098 0.90517 0.15424 0.0
C637 C 0.72503 0.88661 0.22935 0.0
C638 C 0.75921 0.87081 0.17157 0.0
N639 N 0.74744 0.86255 0.20935 0.0
C640 C 0.71717 0.92173 0.21341 0.0
C641 C 0.73057 0.93118 0.17575 0.0
C642 C 0.69398 0.78991 0.27992 0.0
C643 C 0.74246 0.65094 0.26401 0.0
C644 C 0.70546 0.69876 0.31532 0.0
C645 C 0.68497 0.66027 0.30176 0.0
C646 C 0.70366 0.63627 0.2759 0.0
N647 N 0.74353 0.71297 0.30355 0.0
C648 C 0.76203 0.6896 0.27819 0.0
Co649 Co 0.06964 0.45887 0.55255 0.0
Co650 Co 0.02991 0.47315 0.45786 0.0
O651 O 0.0367 0.48797 0.51715 0.0
C652 C 0.01066 0.44117 0.61572 0.0
O653 O 0.99847 0.40541 0.59706 0.0
C654 C 0.02507 0.56198 0.46669 0.0
O655 O 0.03786 0.56532 0.50556 0.0
O656 O 0.09119 0.48701 0.45731 0.0
O657 O 0.10643 0.45041 0.50843 0.0
H658 H 0.06572 0.40506 0.32907 0.0
H659 H 0.0577 0.54026 0.57988 0.0
O660 O 0.03497 0.46757 0.59929 0.0
H661 H 0.20803 0.54815 0.58279 0.0
H662 H 0.13322 0.42558 0.68601 0.0
H663 H 0.10288 0.38392 0.53951 0.0
H664 H 0.1611 0.48389 0.565 0.0
H665 H 0.10401 0.46909 0.63969 0.0
O666 O 0.0233 0.52902 0.4453 0.0
H667 H 0.07318 0.42558 0.40266 0.0
H668 H 0.97464 0.48998 0.38749 0.0
H669 H 0.13523 0.34078 0.58418 0.0
H670 H 0.10345 0.60547 0.59651 0.0
H671 H 0.14937 0.36081 0.65827 0.0
H672 H 0.17922 0.60968 0.59813 0.0
O673 O 0.03221 0.4086 0.53189 0.0
H674 H 0.8933 0.49318 0.50465 0.0
H675 H 0.96442 0.40497 0.4221 0.0
H676 H 0.88933 0.38764 0.42504 0.0
H677 H 0.85338 0.43154 0.4667 0.0
H678 H 0.96794 0.51002 0.50032 0.0
H679 H 0.96636 0.47042 0.31371 0.0
H680 H 0.01186 0.42735 0.28407 0.0
O681 O 0.03426 0.41602 0.46568 0.0
C682 C 0.11644 0.46995 0.47808 0.0
C683 C 0.04569 0.42383 0.34162 0.0
C684 C 0.98999 0.46057 0.33298 0.0
N685 N 0.02437 0.45895 0.39946 0.0
C686 C 0.04978 0.43557 0.38329 0.0
C687 C 0.99502 0.47178 0.37478 0.0
C688 C 0.01549 0.43636 0.31638 0.0
C689 C 0.09063 0.54191 0.58059 0.0
N690 N 0.10665 0.50842 0.57123 0.0
C691 C 0.1164 0.57886 0.59007 0.0
C692 C 0.1589 0.58121 0.59089 0.0
C693 C 0.17508 0.54672 0.58227 0.0
C694 C 0.14833 0.51039 0.57234 0.0
C695 C 0.12732 0.41641 0.65381 0.0
C696 C 0.11018 0.39351 0.57148 0.0
C697 C 0.11033 0.44081 0.62752 0.0
N698 N 0.10082 0.42871 0.58714 0.0
C699 C 0.12823 0.36879 0.59668 0.0
C700 C 0.1362 0.38008 0.63824 0.0
C701 C 0.02652 0.39436 0.49496 0.0
C702 C 0.90861 0.47384 0.48617 0.0
C703 C 0.94898 0.42464 0.43997 0.0
C704 C 0.90649 0.41444 0.44169 0.0
C705 C 0.88626 0.43921 0.46498 0.0
N706 N 0.97065 0.45916 0.46015 0.0
C707 C 0.95097 0.48335 0.48339 0.0
Co708 Co 0.49461 0.55669 0.05214 0.0
Co709 Co 0.47319 0.45755 0.02129 0.0
O710 O 0.50574 0.51087 0.01922 0.0
C711 C 0.49462 0.59801 0.9753 0.0
O712 O 0.46116 0.57352 0.95981 0.0
C713 C 0.55966 0.44578 0.00491 0.0
O714 O 0.57314 0.48434 0.01119 0.0
O715 O 0.48783 0.46041 0.08182 0.0
O716 O 0.47638 0.52272 0.09598 0.0
H717 H 0.36297 0.3561 0.0701 0.0
H718 H 0.57723 0.56413 0.02108 0.0
O719 O 0.51283 0.59242 0.00925 0.0
H720 H 0.60336 0.57949 0.17082 0.0
H721 H 0.52553 0.69927 0.11307 0.0
H722 H 0.42706 0.57212 0.10195 0.0
H723 H 0.53255 0.56911 0.13807 0.0
H724 H 0.53825 0.64076 0.07109 0.0
O725 O 0.52244 0.43125 0.01027 0.0
H726 H 0.40883 0.42151 0.07242 0.0
H727 H 0.46815 0.37945 0.97286 0.0
H728 H 0.41351 0.62997 0.14443 0.0
H729 H 0.64868 0.57505 0.05265 0.0
H730 H 0.46287 0.6939 0.15053 0.0
H731 H 0.66209 0.58264 0.12805 0.0
O732 O 0.43702 0.547 0.02696 0.0
H733 H 0.49726 0.48382 0.87597 0.0
H734 H 0.39498 0.43435 0.96955 0.0
H735 H 0.37259 0.43871 0.89902 0.0
H736 H 0.42382 0.46312 0.85018 0.0
H737 H 0.51833 0.48052 0.9485 0.0
H738 H 0.42452 0.31307 0.97118 0.0
H739 H 0.37109 0.30116 0.01981 0.0
O740 O 0.42204 0.48089 0.03086 0.0
C741 C 0.48097 0.48849 0.10676 0.0
C742 C 0.38662 0.36074 0.04935 0.0
C743 C 0.42099 0.33663 0.99363 0.0
N744 N 0.44119 0.40438 0.02286 0.0
C745 C 0.41248 0.39781 0.05027 0.0
C746 C 0.44591 0.37422 0.99503 0.0
C747 C 0.39101 0.32998 0.02089 0.0
C748 C 0.58281 0.56749 0.0539 0.0
N749 N 0.55066 0.56548 0.07762 0.0
C750 C 0.62334 0.57363 0.07161 0.0
C751 C 0.63085 0.57786 0.11392 0.0
C752 C 0.59792 0.57603 0.13793 0.0
C753 C 0.55783 0.56986 0.11916 0.0
C754 C 0.50377 0.67148 0.11082 0.0
C755 C 0.44881 0.59986 0.10439 0.0
C756 C 0.51072 0.63825 0.08697 0.0
N757 N 0.48359 0.60288 0.08432 0.0
C758 C 0.4409 0.6325 0.12848 0.0
C759 C 0.46864 0.66846 0.13182 0.0
C760 C 0.41112 0.51456 0.02544 0.0
C761 C 0.47472 0.47258 0.8963 0.0
C762 C 0.41775 0.44483 0.94922 0.0
C763 C 0.40479 0.44723 0.90869 0.0
C764 C 0.43344 0.46106 0.88188 0.0
N765 N 0.45819 0.45627 0.9633 0.0
C766 C 0.48658 0.47018 0.93744 0.0
Co767 Co 0.81037 0.82909 0.79446 0.0
Co768 Co 0.77867 0.72801 0.79241 0.0
O769 O 0.77409 0.77993 0.77307 0.0
C770 C 0.73208 0.87605 0.78875 0.0
O771 O 0.69738 0.85791 0.76869 0.0
C772 C 0.77615 0.71285 0.70339 0.0
O773 O 0.80446 0.74493 0.70344 0.0
O774 O 0.8372 0.73515 0.78076 0.0
O775 O 0.85934 0.80096 0.79885 0.0
H776 H 0.84419 0.6302 0.87086 0.0
H777 H 0.75831 0.82858 0.71739 0.0
O778 O 0.76259 0.8578 0.79099 0.0
H779 H 0.90119 0.86585 0.68254 0.0
H780 H 0.86221 0.97718 0.79803 0.0
H781 H 0.86487 0.85544 0.8698 0.0
H782 H 0.88686 0.85121 0.75255 0.0
H783 H 0.82855 0.9116 0.76525 0.0
O784 O 0.76152 0.70263 0.73634 0.0
H785 H 0.8393 0.6962 0.8464 0.0
H786 H 0.72649 0.64739 0.77683 0.0
H787 H 0.88986 0.91999 0.90574 0.0
H788 H 0.77127 0.84361 0.6471 0.0
H789 H 0.8909 0.98247 0.87038 0.0
H790 H 0.84294 0.86343 0.62979 0.0
O791 O 0.79801 0.8175 0.85134 0.0
H792 H 0.62957 0.7371 0.76309 0.0
H793 H 0.73365 0.70437 0.86427 0.0
H794 H 0.66218 0.70136 0.88165 0.0
H795 H 0.60958 0.7179 0.8309 0.0
H796 H 0.70152 0.74006 0.74709 0.0
H797 H 0.7302 0.58083 0.8003 0.0
H798 H 0.78926 0.57197 0.84788 0.0
O799 O 0.79643 0.75152 0.84884 0.0
C800 C 0.86563 0.7657 0.78841 0.0
C801 C 0.81824 0.63371 0.85022 0.0
C802 C 0.7543 0.60598 0.81059 0.0
N803 N 0.78252 0.6757 0.81048 0.0
C804 C 0.81531 0.67101 0.83631 0.0
C805 C 0.75242 0.64371 0.79731 0.0
C806 C 0.78743 0.60104 0.83729 0.0
C807 C 0.78963 0.83697 0.70992 0.0
N808 N 0.8217 0.83949 0.73912 0.0
C809 C 0.79679 0.84526 0.67007 0.0
C810 C 0.83711 0.85603 0.66024 0.0
C811 C 0.86975 0.8576 0.68992 0.0
C812 C 0.86143 0.84902 0.72944 0.0
C813 C 0.86256 0.95056 0.81403 0.0
C814 C 0.86304 0.88189 0.85403 0.0
C815 C 0.84456 0.91301 0.79519 0.0
N816 N 0.84471 0.87921 0.81544 0.0
C817 C 0.87772 0.91894 0.87473 0.0
C818 C 0.87835 0.95357 0.8546 0.0
C819 C 0.79895 0.78529 0.86862 0.0
C820 C 0.65218 0.7297 0.78541 0.0
C821 C 0.71092 0.71149 0.84195 0.0
C822 C 0.67049 0.7097 0.85197 0.0
C823 C 0.641 0.71898 0.82348 0.0
N824 N 0.72168 0.72216 0.80458 0.0
C825 C 0.69291 0.73114 0.77644 0.0
Co826 Co 0.72351 0.18837 0.32639 0.0
Co827 Co 0.75976 0.28532 0.31396 0.0
O828 O 0.757 0.22828 0.29723 0.0
C829 C 0.79209 0.14268 0.34222 0.0
O830 O 0.80808 0.16799 0.37335 0.0
C831 C 0.77047 0.28229 0.22287 0.0
O832 O 0.75666 0.24367 0.2174 0.0
O833 O 0.69932 0.27772 0.29848 0.0
O834 O 0.68185 0.22437 0.33417 0.0
H835 H 0.70981 0.40146 0.38346 0.0
H836 H 0.74496 0.16471 0.24363 0.0
O837 O 0.76307 0.15034 0.31791 0.0
H838 H 0.59333 0.13472 0.2365 0.0
H839 H 0.67193 0.04865 0.36023 0.0
H840 H 0.68354 0.19182 0.40354 0.0
H841 H 0.63413 0.16282 0.30064 0.0
H842 H 0.69654 0.09995 0.31451 0.0
O843 O 0.77184 0.30088 0.25789 0.0
H844 H 0.70732 0.33056 0.36086 0.0
H845 H 0.8159 0.36089 0.30092 0.0
H846 H 0.65905 0.14149 0.45037 0.0
H847 H 0.70529 0.13625 0.17875 0.0
H848 H 0.65457 0.06959 0.42896 0.0
H849 H 0.62888 0.12123 0.17502 0.0
O850 O 0.75494 0.21202 0.37831 0.0
H851 H 0.9018 0.25804 0.29527 0.0
H852 H 0.81689 0.32151 0.38719 0.0
H853 H 0.88936 0.31988 0.40979 0.0
H854 H 0.93251 0.28886 0.36347 0.0
H855 H 0.82869 0.25785 0.27485 0.0
H856 H 0.81956 0.43214 0.32286 0.0
H857 H 0.76641 0.4528 0.36471 0.0
O858 O 0.74884 0.27497 0.37151 0.0
C859 C 0.67259 0.25284 0.31399 0.0
C860 C 0.73319 0.39284 0.36531 0.0
C861 C 0.79475 0.41006 0.33125 0.0
N862 N 0.76152 0.34155 0.32973 0.0
C863 C 0.73192 0.35272 0.35236 0.0
C864 C 0.79244 0.36968 0.31879 0.0
C865 C 0.76494 0.42162 0.35475 0.0
C866 C 0.71174 0.15813 0.24212 0.0
N867 N 0.69192 0.1656 0.27577 0.0
C868 C 0.68943 0.14206 0.20535 0.0
C869 C 0.64658 0.13363 0.20324 0.0
C870 C 0.62659 0.14122 0.23773 0.0
C871 C 0.64988 0.15727 0.27394 0.0
C872 C 0.67451 0.08003 0.36997 0.0
C873 C 0.68076 0.16049 0.3938 0.0
C874 C 0.68808 0.10919 0.34412 0.0
N875 N 0.69236 0.14886 0.3567 0.0
C876 C 0.6673 0.13219 0.4206 0.0
C877 C 0.66497 0.0918 0.40872 0.0
C878 C 0.75623 0.24743 0.39347 0.0
C879 C 0.88343 0.27219 0.31556 0.0
C880 C 0.83534 0.30764 0.36683 0.0
C881 C 0.87645 0.30714 0.37974 0.0
C882 C 0.90063 0.28945 0.35381 0.0
N883 N 0.81846 0.29012 0.32944 0.0
C884 C 0.84202 0.27256 0.30397 0.0
Co885 Co 0.49826 0.44353 0.45544 0.0
Co886 Co 0.50049 0.54 0.49831 0.0
O887 O 0.51664 0.4866 0.49836 0.0
C888 C 0.49461 0.39851 0.53276 0.0
O889 O 0.5087 0.43032 0.55785 0.0
C890 C 0.58993 0.5564 0.49257 0.0
O891 O 0.5858 0.5245 0.46702 0.0
O892 O 0.50449 0.54405 0.43835 0.0
O893 O 0.50758 0.48203 0.4144 0.0
H894 H 0.42086 0.64408 0.45069 0.0
H895 H 0.56847 0.43987 0.51719 0.0
O896 O 0.48822 0.40135 0.4947 0.0
H897 H 0.62341 0.42467 0.38392 0.0
H898 H 0.49387 0.30746 0.38379 0.0
H899 H 0.45748 0.44034 0.37085 0.0
H900 H 0.5518 0.43373 0.38802 0.0
H901 H 0.50515 0.35681 0.44275 0.0
O902 O 0.55914 0.56631 0.50877 0.0
H903 H 0.44131 0.57766 0.44854 0.0
H904 H 0.52696 0.61516 0.55205 0.0
H905 H 0.44834 0.39268 0.31089 0.0
H906 H 0.64005 0.43044 0.51442 0.0
H907 H 0.46727 0.32631 0.31678 0.0
H908 H 0.66816 0.42272 0.44739 0.0
O909 O 0.43952 0.45202 0.4586 0.0
H910 H 0.54922 0.51604 0.64092 0.0
H911 H 0.43594 0.55243 0.55356 0.0
H912 H 0.42877 0.5469 0.62679 0.0
H913 H 0.48568 0.52859 0.671 0.0
H914 H 0.55492 0.52146 0.56746 0.0
H915 H 0.50784 0.68209 0.55508 0.0
H916 H 0.45436 0.69684 0.50432 0.0
O917 O 0.44198 0.51475 0.48702 0.0
C918 C 0.50804 0.51842 0.40967 0.0
C919 C 0.4441 0.63795 0.47312 0.0
C920 C 0.49296 0.65931 0.53168 0.0
N921 N 0.48489 0.59239 0.50042 0.0
C922 C 0.45563 0.60034 0.47216 0.0
C923 C 0.5037 0.62138 0.52977 0.0
C924 C 0.46291 0.66755 0.50317 0.0
C925 C 0.57975 0.43543 0.48791 0.0
N926 N 0.555 0.43576 0.4529 0.0
C927 C 0.62068 0.43059 0.48651 0.0
C928 C 0.63648 0.42641 0.44892 0.0
C929 C 0.61139 0.42747 0.41332 0.0
C930 C 0.57066 0.43244 0.41591 0.0
C931 C 0.48516 0.33641 0.38098 0.0
C932 C 0.46521 0.41127 0.3744 0.0
C933 C 0.49063 0.36441 0.41468 0.0
N934 N 0.48089 0.40159 0.41122 0.0
C935 C 0.45991 0.38429 0.34001 0.0
C936 C 0.47019 0.34679 0.34342 0.0
C937 C 0.42228 0.48094 0.47181 0.0
C938 C 0.52424 0.52412 0.62199 0.0
C939 C 0.4608 0.54433 0.57257 0.0
C940 C 0.4566 0.54135 0.61404 0.0
C941 C 0.48856 0.53112 0.63884 0.0
N942 N 0.49587 0.53737 0.55627 0.0
C943 C 0.52737 0.52741 0.5804 0.0
H944 H 0.19964 0.17413 0.19733 0.0
H945 H 0.31274 0.19436 0.13855 0.0
H946 H 0.16315 0.14123 0.13421 0.0
H947 H 0.27549 0.16022 0.07471 0.0
H948 H 0.16176 0.03391 0.01946 0.0
H949 H 0.21866 0.07469 0.06407 0.0
H950 H 0.15909 0.17732 0.05507 0.0
H951 H 0.1023 0.13684 0.01137 0.0
C952 C 0.21677 0.17136 0.17095 0.0
C953 C 0.259 0.18681 0.17275 0.0
C954 C 0.19585 0.15266 0.13489 0.0
C955 C 0.21673 0.14856 0.10001 0.0
C956 C 0.25904 0.16333 0.1015 0.0
C957 C 0.28009 0.18283 0.13775 0.0
C958 C 0.16196 0.0656 0.02556 0.0
C959 C 0.12771 0.08235 0.01279 0.0
C960 C 0.19444 0.08885 0.05081 0.0
C961 C 0.19281 0.12886 0.06273 0.0
C962 C 0.16087 0.14654 0.04592 0.0
C963 C 0.1284 0.12337 0.02125 0.0
H964 H 0.04842 0.86704 0.49656 0.0
H965 H 0.12683 0.97308 0.46479 0.0
H966 H 0.08992 0.82536 0.46027 0.0
H967 H 0.16727 0.93133 0.42761 0.0
H968 H 0.18478 0.83613 0.32115 0.0
H969 H 0.1445 0.87636 0.3606 0.0
H970 H 0.17353 0.81743 0.46774 0.0
H971 H 0.21539 0.77818 0.42863 0.0
C972 C 0.0746 0.88148 0.4821 0.0
C973 C 0.08443 0.9235 0.48393 0.0
C974 C 0.09834 0.85758 0.46136 0.0
C975 C 0.13177 0.87511 0.44108 0.0
C976 C 0.14161 0.91701 0.44289 0.0
C977 C 0.11855 0.9409 0.46441 0.0
C978 C 0.18228 0.83145 0.35302 0.0
C979 C 0.20292 0.80363 0.37165 0.0
C980 C 0.15946 0.8547 0.37565 0.0
C981 C 0.15578 0.84995 0.4172 0.0
C982 C 0.17568 0.82156 0.43572 0.0
C983 C 0.19959 0.79913 0.41335 0.0
H984 H 0.44175 0.86493 0.54532 0.0
H985 H 0.36912 0.9587 0.55315 0.0
H986 H 0.39696 0.82608 0.5887 0.0
H987 H 0.32378 0.91941 0.59607 0.0
H988 H 0.28936 0.86318 0.71469 0.0
H989 H 0.3274 0.89953 0.66488 0.0
H990 H 0.32856 0.78842 0.59413 0.0
H991 H 0.29098 0.75171 0.64471 0.0
C992 C 0.41596 0.87714 0.55593 0.0
C993 C 0.40927 0.91517 0.54585 0.0
C994 C 0.39002 0.85464 0.58065 0.0
C995 C 0.35674 0.86958 0.59618 0.0
C996 C 0.3494 0.90714 0.58515 0.0
C997 C 0.37523 0.92957 0.56022 0.0
C998 C 0.29732 0.84637 0.68837 0.0
C999 C 0.28704 0.80437 0.6839 0.0
C1000 C 0.31901 0.86735 0.65956 0.0
C1001 C 0.33118 0.84703 0.62534 0.0
C1002 C 0.3201 0.80507 0.6203 0.0
C1003 C 0.29821 0.78401 0.64915 0.0
H1004 H 0.49729 0.06197 0.88678 0.0
H1005 H 0.50092 0.12867 0.00337 0.0
H1006 H 0.45982 0.10857 0.85474 0.0
H1007 H 0.46448 0.17653 0.97082 0.0
H1008 H 0.3543 0.22262 0.90762 0.0
H1009 H 0.39739 0.18107 0.94104 0.0
H1010 H 0.46337 0.17426 0.83373 0.0
H1011 H 0.41933 0.215 0.79981 0.0
C1012 C 0.49062 0.08692 0.90562 0.0
C1013 C 0.50212 0.09129 0.94786 0.0
C1014 C 0.46928 0.11399 0.88704 0.0
C1015 C 0.45892 0.14653 0.91002 0.0
C1016 C 0.47137 0.15158 0.95213 0.0
C1017 C 0.49269 0.12432 0.97081 0.0
C1018 C 0.3781 0.21246 0.89111 0.0
C1019 C 0.38309 0.22212 0.85081 0.0
C1020 C 0.40314 0.18879 0.9105 0.0
C1021 C 0.43399 0.17403 0.89021 0.0
C1022 C 0.43961 0.18452 0.85023 0.0
C1023 C 0.41454 0.20824 0.83082 0.0
H1024 H 0.72581 0.28479 0.93138 0.0
H1025 H 0.67351 0.32193 0.8195 0.0
H1026 H 0.68359 0.32353 0.97033 0.0
H1027 H 0.63252 0.36164 0.85869 0.0
H1028 H 0.62171 0.46861 0.95723 0.0
H1029 H 0.6609 0.42613 0.91943 0.0
H1030 H 0.59557 0.32215 0.96846 0.0
H1031 H 0.55499 0.36449 0.00539 0.0
C1032 C 0.70511 0.30096 0.9151 0.0
C1033 C 0.70272 0.29996 0.87229 0.0
C1034 C 0.68099 0.32305 0.9374 0.0
C1035 C 0.65484 0.34547 0.91745 0.0
C1036 C 0.65241 0.34453 0.87474 0.0
C1037 C 0.6757 0.32163 0.85236 0.0
C1038 C 0.61587 0.43675 0.96033 0.0
C1039 C 0.58546 0.41999 0.98469 0.0
C1040 C 0.63813 0.41246 0.93843 0.0
C1041 C 0.63124 0.37095 0.9411 0.0
C1042 C 0.60152 0.35413 0.96605 0.0
C1043 C 0.57839 0.37834 0.98716 0.0
H1044 H 0.93708 0.3622 0.04395 0.0
H1045 H 0.87516 0.46246 0.06546 0.0
H1046 H 0.8919 0.32317 0.08693 0.0
H1047 H 0.82946 0.42315 0.10798 0.0
H1048 H 0.79911 0.36241 0.22456 0.0
H1049 H 0.8362 0.39878 0.17444 0.0
H1050 H 0.82217 0.29004 0.09545 0.0
H1051 H 0.78562 0.25301 0.14659 0.0
C1052 C 0.91347 0.37579 0.05745 0.0
C1053 C 0.90995 0.41562 0.05143 0.0
C1054 C 0.88733 0.35324 0.08191 0.0
C1055 C 0.85712 0.37001 0.10123 0.0
C1056 C 0.85272 0.40941 0.09404 0.0
C1057 C 0.87871 0.43189 0.06936 0.0
C1058 C 0.80356 0.34608 0.19646 0.0
C1059 C 0.78941 0.30458 0.18984 0.0
C1060 C 0.82466 0.36715 0.16744 0.0
C1061 C 0.83219 0.34748 0.13074 0.0
C1062 C 0.81726 0.3061 0.12356 0.0
C1063 C 0.79603 0.2849 0.15275 0.0
H1064 H 0.0137 0.63361 0.50381 0.0
H1065 H 0.99191 0.56274 0.38818 0.0
H1066 H 0.9749 0.68183 0.47562 0.0
H1067 H 0.95369 0.61091 0.36001 0.0
H1068 H 0.84492 0.67748 0.34026 0.0
H1069 H 0.88917 0.63219 0.36463 0.0
H1070 H 0.97303 0.7323 0.42851 0.0
H1071 H 0.92819 0.77749 0.40434 0.0
C1072 C 1.00118 0.62853 0.47224 0.0
C1073 C 1.00585 0.59401 0.44848 0.0
C1074 C 0.97896 0.6563 0.45597 0.0
C1075 C 0.96075 0.65026 0.41551 0.0
C1076 C 0.96653 0.61632 0.39146 0.0
C1077 C 0.9888 0.58871 0.40765 0.0
C1078 C 0.87312 0.68993 0.35899 0.0
C1079 C 0.88286 0.73114 0.37069 0.0
C1080 C 0.89861 0.6639 0.37302 0.0
C1081 C 0.93473 0.67841 0.39887 0.0
C1082 C 0.94509 0.71986 0.40941 0.0
C1083 C 0.91947 0.74584 0.39549 0.0
H1084 H 0.65522 0.52562 0.52257 0.0
H1085 H 0.61468 0.63623 0.49847 0.0
H1086 H 0.71407 0.56292 0.56686 0.0
H1087 H 0.67379 0.67359 0.54168 0.0
H1088 H 0.78535 0.73159 0.62473 0.0
H1089 H 0.75285 0.69177 0.56225 0.0
H1090 H 0.69978 0.59859 0.63444 0.0
H1091 H 0.73156 0.63784 0.69618 0.0
C1092 C 0.66013 0.558 0.52523 0.0
C1093 C 0.63072 0.57832 0.50766 0.0
C1094 C 0.69358 0.57927 0.55055 0.0
C1095 C 0.69813 0.62102 0.55782 0.0
C1096 C 0.67113 0.64149 0.53636 0.0
C1097 C 0.63728 0.62019 0.51185 0.0
C1098 C 0.76729 0.70231 0.62705 0.0
C1099 C 0.76053 0.68803 0.66529 0.0
C1100 C 0.74893 0.67957 0.59141 0.0
C1101 C 0.72428 0.64203 0.59364 0.0
C1102 C 0.71936 0.62705 0.63178 0.0
C1103 C 0.73712 0.64984 0.6672 0.0
H1104 H 0.33143 0.22742 0.42202 0.0
H1105 H 0.2804 0.3359 0.43199 0.0
H1106 H 0.32559 0.21981 0.4936 0.0
H1107 H 0.27549 0.32883 0.50488 0.0
H1108 H 0.21912 0.27282 0.6142 0.0
H1109 H 0.23193 0.28425 0.544 0.0
H1110 H 0.34819 0.24345 0.56232 0.0
H1111 H 0.33456 0.23095 0.63239 0.0
C1112 C 0.31936 0.25001 0.43969 0.0
C1113 C 0.30531 0.28171 0.42104 0.0
C1114 C 0.31638 0.24579 0.48099 0.0
C1115 C 0.29935 0.27322 0.50494 0.0
C1116 C 0.28782 0.30656 0.48698 0.0
C1117 C 0.29094 0.31087 0.44536 0.0
C1118 C 0.24689 0.26526 0.60279 0.0
C1119 C 0.27544 0.25015 0.62843 0.0
C1120 C 0.25466 0.27264 0.56286 0.0
C1121 C 0.29137 0.26538 0.54763 0.0
C1122 C 0.31941 0.24908 0.57294 0.0
C1123 C 0.31143 0.24139 0.61292 0.0
H1124 H 0.95195 0.03854 0.85905 0.0
H1125 H 0.07138 0.00408 0.86771 0.0
H1126 H 0.94739 0.02653 0.78472 0.0
H1127 H 0.06662 0.99039 0.79432 0.0
H1128 H 0.05971 1.00105 0.6572 0.0
H1129 H 0.06698 0.01473 0.73075 0.0
H1130 H 0.93655 0.97212 0.73376 0.0
H1131 H 0.92941 0.96084 0.65927 0.0
C1132 C 0.97798 0.03013 0.84483 0.0
C1133 C 0.0126 0.02347 0.86887 0.0
C1134 C 0.97494 0.02204 0.80237 0.0
C1135 C 1.00641 0.00686 0.78327 0.0
C1136 C 0.04197 1.00248 0.80751 0.0
C1137 C 0.04502 0.01079 0.84967 0.0
C1138 C 0.03294 0.99324 0.67383 0.0
C1139 C 0.99423 0.97905 0.65282 0.0
C1140 C 0.03694 1.00139 0.71608 0.0
C1141 C 1.00227 0.99513 0.73849 0.0
C1142 C 0.96381 0.97828 0.71753 0.0
C1143 C 0.95979 0.97069 0.67501 0.0
H1144 H 0.27454 0.69783 0.944 0.0
H1145 H 0.24863 0.81708 0.93351 0.0
H1146 H 0.28666 0.71153 0.0175 0.0
H1147 H 0.26109 0.8308 0.00746 0.0
H1148 H 0.23905 0.81248 0.14653 0.0
H1149 H 0.23065 0.80921 0.07171 0.0
H1150 H 0.33817 0.75348 0.0666 0.0
H1151 H 0.34593 0.75609 0.14056 0.0
C1152 C 0.27156 0.72704 0.9573 0.0
C1153 C 0.26077 0.75637 0.93274 0.0
C1154 C 0.27875 0.73499 0.99949 0.0
C1155 C 0.27522 0.77243 0.0183 0.0
C1156 C 0.26394 0.80167 0.99388 0.0
C1157 C 0.25701 0.79381 0.95151 0.0
C1158 C 0.2615 0.80073 0.12928 0.0
C1159 C 0.29303 0.78444 0.14919 0.0
C1160 C 0.25662 0.79863 0.08653 0.0
C1161 C 0.28329 0.78032 0.06328 0.0
C1162 C 0.31653 0.76685 0.08356 0.0
C1163 C 0.32122 0.76873 0.12593 0.0
H1164 H 0.44113 0.97447 0.36316 0.0
H1165 H 0.56132 0.94199 0.36544 0.0
H1166 H 0.43581 0.96963 0.28868 0.0
H1167 H 0.55652 0.93713 0.29107 0.0
H1168 H 0.53057 0.91177 0.15583 0.0
H1169 H 0.525 0.90425 0.22782 0.0
H1170 H 0.46531 0.00747 0.23662 0.0
H1171 H 0.47014 0.01441 0.16384 0.0
C1172 C 0.46588 0.96511 0.34755 0.0
C1173 C 0.50121 0.95772 0.3699 0.0
C1174 C 0.46312 0.96282 0.3049 0.0
C1175 C 0.49579 0.95328 0.28359 0.0
C1176 C 0.53039 0.94399 0.30617 0.0
C1177 C 0.53313 0.94643 0.34885 0.0
C1178 C 0.51579 0.93268 0.17296 0.0
C1179 C 0.50096 0.9639 0.154 0.0
C1180 C 0.51283 0.92845 0.21445 0.0
C1181 C 0.4951 0.95543 0.23842 0.0
C1182 C 0.47876 0.98577 0.21914 0.0
C1183 C 0.48153 0.98987 0.17736 0.0
H1184 H 0.41939 0.27618 0.23815 0.0
H1185 H 0.41437 0.22677 0.35455 0.0
H1186 H 0.49282 0.27483 0.24034 0.0
H1187 H 0.48703 0.22207 0.35583 0.0
H1188 H 0.624 0.26222 0.37469 0.0
H1189 H 0.55008 0.26084 0.36866 0.0
H1190 H 0.54832 0.24409 0.23731 0.0
H1191 H 0.62295 0.24897 0.24403 0.0
C1192 C 0.4341 0.26427 0.26383 0.0
C1193 C 0.41183 0.25241 0.2966 0.0
C1194 C 0.4762 0.26298 0.265 0.0
C1195 C 0.49669 0.24915 0.29879 0.0
C1196 C 0.47311 0.23441 0.33005 0.0
C1197 C 0.43124 0.23649 0.32917 0.0
C1198 C 0.60767 0.25926 0.34461 0.0
C1199 C 0.62898 0.25674 0.3098 0.0
C1200 C 0.56509 0.25763 0.34099 0.0
C1201 C 0.54249 0.25186 0.3024 0.0
C1202 C 0.56428 0.24934 0.26754 0.0
C1203 C 0.60713 0.25221 0.27124 0.0
H1204 H 0.98503 0.34056 0.54128 0.0
H1205 H 0.04146 0.34968 0.42785 0.0
H1206 H 0.96865 0.26788 0.52745 0.0
H1207 H 0.02589 0.2768 0.4148 0.0
H1208 H 0.04712 0.14995 0.47468 0.0
H1209 H 0.05545 0.22206 0.46908 0.0
H1210 H 0.92362 0.2142 0.46051 0.0
H1211 H 0.91503 0.14175 0.46477 0.0
C1212 C 0.99375 0.3271 0.51338 0.0
C1213 C 0.01472 0.35074 0.48579 0.0
C1214 C 0.98407 0.28566 0.50535 0.0
C1215 C 0.99586 0.26717 0.46998 0.0
C1216 C 0.01633 0.29066 0.44209 0.0
C1217 C 0.02521 0.33221 0.44966 0.0
C1218 C 0.01991 0.1634 0.46989 0.0
C1219 C 0.98046 0.14036 0.46986 0.0
C1220 C 0.02469 0.20453 0.46683 0.0
C1221 C 0.99013 0.22329 0.46455 0.0
C1222 C 0.95059 0.20009 0.46212 0.0
C1223 C 0.94575 0.15873 0.4642 0.0
H1224 H 0.90981 0.73631 0.84723 0.0
H1225 H 0.91701 0.78127 0.72884 0.0
H1226 H 0.98228 0.73255 0.85124 0.0
H1227 H 0.98984 0.77544 0.731 0.0
H1228 H 0.129 0.80372 0.76593 0.0
H1229 H 0.05503 0.80441 0.75863 0.0
H1230 H 0.03499 0.70576 0.83421 0.0
H1231 H 0.10796 0.70745 0.84442 0.0
C1232 C 0.92701 0.74437 0.82155 0.0
C1233 C 0.90834 0.75943 0.788 0.0
C1234 C 0.96875 0.74187 0.82345 0.0
C1235 C 0.99284 0.75401 0.7915 0.0
C1236 C 0.97304 0.76695 0.75675 0.0
C1237 C 0.93125 0.77001 0.75525 0.0
C1238 C 0.10867 0.78255 0.78138 0.0
C1239 C 0.1246 0.75528 0.80545 0.0
C1240 C 0.06605 0.78244 0.7767 0.0
C1241 C 0.03839 0.75466 0.79553 0.0
C1242 C 0.05482 0.72788 0.81969 0.0
C1243 C 0.09703 0.72856 0.8251 0.0
H1244 H 0.56696 0.64949 0.99153 0.0
H1245 H 0.44555 0.63792 0.92848 0.0
H1246 H 0.57662 0.72159 0.98902 0.0
H1247 H 0.45566 0.71057 0.92578 0.0
H1248 H 0.50968 0.84891 0.9191 0.0
H1249 H 0.5034 0.77655 0.90396 0.0
H1250 H 0.53321 0.76359 0.03133 0.0
H1251 H 0.53899 0.83508 0.04674 0.0
C1252 C 0.54291 0.66221 0.97582 0.0
C1253 C 0.50519 0.63815 0.96087 0.0
C1254 C 0.54841 0.70348 0.97461 0.0
C1255 C 0.51648 0.72144 0.95809 0.0
C1256 C 0.48061 0.69724 0.93884 0.0
C1257 C 0.47495 0.6557 0.94023 0.0
C1258 C 0.51463 0.83055 0.94389 0.0
C1259 C 0.52512 0.84782 0.98413 0.0
C1260 C 0.51107 0.78926 0.93514 0.0
C1261 C 0.51863 0.76487 0.96637 0.0
C1262 C 0.52811 0.78199 0.00658 0.0
C1263 C 0.53111 0.82293 0.01541 0.0
H1264 H 0.65106 0.77152 0.3458 0.0
H1265 H 0.63415 0.79789 0.2201 0.0
H1266 H 0.57709 0.75919 0.34895 0.0
H1267 H 0.56002 0.78745 0.22386 0.0
H1268 H 0.4284 0.72484 0.22857 0.0
H1269 H 0.50258 0.737 0.22628 0.0
H1270 H 0.51794 0.7878 0.35125 0.0
H1271 H 0.44385 0.77338 0.35426 0.0
C1272 C 0.63162 0.775 0.31884 0.0
C1273 C 0.64878 0.78527 0.28252 0.0
C1274 C 0.58899 0.76826 0.32078 0.0
C1275 C 0.56221 0.77206 0.28662 0.0
C1276 C 0.57946 0.78334 0.25058 0.0
C1277 C 0.62213 0.78971 0.24851 0.0
C1278 C 0.44755 0.73847 0.25567 0.0
C1279 C 0.42988 0.74845 0.29151 0.0
C1280 C 0.49026 0.74583 0.25423 0.0
C1281 C 0.51659 0.76382 0.28842 0.0
C1282 C 0.49889 0.7735 0.32439 0.0
C1283 C 0.45617 0.76556 0.32602 0.0
H1284 H 0.60773 0.19631 0.54382 0.0
H1285 H 0.47963 0.14053 0.53475 0.0
H1286 H 0.58823 0.2615 0.55701 0.0
H1287 H 0.46026 0.20571 0.54826 0.0
H1288 H 0.44807 0.32918 0.49842 0.0
H1289 H 0.46096 0.26182 0.5059 0.0
H1290 H 0.55742 0.30751 0.60149 0.0
H1291 H 0.54468 0.37548 0.59354 0.0
C1292 C 0.5755 0.19776 0.54571 0.0
C1293 C 0.5453 0.16307 0.53791 0.0
C1294 C 0.5643 0.23522 0.55345 0.0
C1295 C 0.52261 0.23894 0.55337 0.0
C1296 C 0.49261 0.20398 0.54808 0.0
C1297 C 0.5038 0.16651 0.54064 0.0
C1298 C 0.47122 0.32477 0.52192 0.0
C1299 C 0.49536 0.35771 0.5454 0.0
C1300 C 0.47859 0.28605 0.52627 0.0
C1301 C 0.51047 0.2792 0.55412 0.0
C1302 C 0.53291 0.31184 0.57948 0.0
C1303 C 0.52527 0.35072 0.57532 0.0
H1304 H 0.13469 0.25417 0.72255 0.0
H1305 H 0.15139 0.31265 0.84416 0.0
H1306 H 0.0607 0.24038 0.72638 0.0
H1307 H 0.07712 0.30187 0.84723 0.0
H1308 H 0.94421 0.24541 0.85742 0.0
H1309 H 0.01854 0.25752 0.85466 0.0
H1310 H 1.00121 0.26483 0.72435 0.0
H1311 H 0.92749 0.25019 0.72698 0.0
C1312 C 0.12233 0.26487 0.7498 0.0
C1313 C 0.14875 0.28463 0.78295 0.0
C1314 C 0.07973 0.25719 0.75204 0.0
C1315 C 0.06225 0.27008 0.78711 0.0
C1316 C 0.08899 0.29058 0.82001 0.0
C1317 C 0.13169 0.29724 0.81814 0.0
C1318 C 0.9564 0.24925 0.82817 0.0
C1319 C 0.92976 0.24634 0.7924 0.0
C1320 C 0.99919 0.25666 0.82655 0.0
C1321 C 0.01652 0.26214 0.7892 0.0
C1322 C 0.98959 0.25979 0.75362 0.0
C1323 C 0.94697 0.25163 0.75515 0.0
H1324 H 0.05089 0.87407 0.09395 0.0
H1325 H 0.94834 0.82679 0.00543 0.0
H1326 H 0.06519 0.80634 0.10019 0.0
H1327 H 0.96268 0.75968 0.0112 0.0
H1328 H 0.98475 0.63882 0.03773 0.0
H1329 H 0.96586 0.70389 0.0531 0.0
H1330 H 0.09292 0.76025 0.0529 0.0
H1331 H 0.11198 0.6951 0.03788 0.0
C1332 C 0.03054 0.84912 0.07696 0.0
C1333 C 0.99839 0.85574 0.04934 0.0
C1334 C 0.03906 0.81039 0.08006 0.0
C1335 C 0.01529 0.77754 0.05598 0.0
C1336 C 0.98138 0.78405 0.03057 0.0
C1337 C 0.97313 0.82261 0.02723 0.0
C1338 C 0.0089 0.66491 0.04196 0.0
C1339 C 0.04992 0.66161 0.03627 0.0
C1340 C 0.99796 0.70232 0.0505 0.0
C1341 C 0.02777 0.73741 0.0539 0.0
C1342 C 0.06918 0.73388 0.05086 0.0
C1343 C 0.08011 0.69645 0.04205 0.0
H1344 H 0.22194 0.42121 0.37813 0.0
H1345 H 0.27742 0.42651 0.26429 0.0
H1346 H 0.23066 0.49418 0.38506 0.0
H1347 H 0.28858 0.49941 0.27287 0.0
H1348 H 0.35268 0.62175 0.32678 0.0
H1349 H 0.33613 0.54905 0.32378 0.0
H1350 H 0.21339 0.55652 0.35519 0.0
H1351 H 0.23017 0.62989 0.35786 0.0
C1352 C 0.23587 0.43783 0.35453 0.0
C1353 C 0.25038 0.41783 0.32142 0.0
C1354 C 0.24112 0.47966 0.35877 0.0
C1355 C 0.26195 0.50258 0.33065 0.0
C1356 C 0.27359 0.48261 0.29588 0.0
C1357 C 0.2671 0.44074 0.29091 0.0
C1358 C 0.32263 0.60791 0.33457 0.0
C1359 C 0.29292 0.63151 0.34322 0.0
C1360 C 0.31288 0.56624 0.33202 0.0
C1361 C 0.27309 0.54697 0.33812 0.0
C1362 C 0.24425 0.57053 0.35009 0.0
C1363 C 0.25401 0.61252 0.35234 0.0
H1364 H 0.71959 0.12954 0.8381 0.0
H1365 H 0.8478 0.11939 0.84607 0.0
H1366 H 0.70043 0.05668 0.83554 0.0
H1367 H 0.82915 0.04675 0.84336 0.0
H1368 H 0.78378 0.91511 0.85296 0.0
H1369 H 0.7988 0.98684 0.87207 0.0
H1370 H 0.70298 0.00424 0.78241 0.0
H1371 H 0.68997 0.9328 0.76136 0.0
C1372 C 0.74365 0.11174 0.84135 0.0
C1373 C 0.78515 0.12999 0.84344 0.0
C1374 C 0.73275 0.06999 0.83902 0.0
C1375 C 0.76319 0.0457 0.83876 0.0
C1376 C 0.80483 0.06434 0.84387 0.0
C1377 C 0.81563 0.10601 0.84578 0.0
C1378 C 0.7662 0.93435 0.83713 0.0
C1379 C 0.73677 0.91852 0.8047 0.0
C1380 C 0.7743 0.97541 0.84864 0.0
C1381 C 0.75191 1.00148 0.82928 0.0
C1382 C 0.72054 0.98513 0.7985 0.0
C1383 C 0.71313 0.94414 0.78631 0.0
H1384 H 0.37473 0.57697 0.00139 0.0
H1385 H 0.34604 0.45506 0.03316 0.0
H1386 H 0.30137 0.57833 0.98863 0.0
H1387 H 0.27309 0.45687 0.02191 0.0
H1388 H 0.14674 0.45521 0.96243 0.0
H1389 H 0.22049 0.45696 0.96978 0.0
H1390 H 0.23903 0.57957 0.02092 0.0
H1391 H 0.16462 0.57805 0.01228 0.0
C1392 C 0.35282 0.55056 0.006 0.0
C1393 C 0.36644 0.51591 0.01837 0.0
C1394 C 0.31067 0.55141 0.99885 0.0
C1395 C 0.28104 0.51771 0.00409 0.0
C1396 C 0.29481 0.4832 0.01671 0.0
C1397 C 0.33683 0.48224 0.02352 0.0
C1398 C 0.16649 0.4827 0.97501 0.0
C1399 C 0.14967 0.51646 0.9869 0.0
C1400 C 0.20893 0.48361 0.97954 0.0
C1401 C 0.23596 0.51818 0.9966 0.0
C1402 C 0.21928 0.55245 0.00745 0.0
C1403 C 0.17659 0.5516 0.00265 0.0
H1404 H 0.8455 0.11175 0.39355 0.0
H1405 H 0.75698 0.07937 0.28805 0.0
H1406 H 0.85057 0.04111 0.39748 0.0
H1407 H 0.76162 0.00909 0.29306 0.0
H1408 H 0.75232 0.89296 0.379 0.0
H1409 H 0.75656 0.96598 0.38572 0.0
H1410 H 0.8581 0.97908 0.31081 0.0
H1411 H 0.85716 0.90694 0.30853 0.0
C1412 C 0.82745 0.0898 0.37103 0.0
C1413 C 0.80057 0.10129 0.34068 0.0
C1414 C 0.83012 0.04948 0.37362 0.0
C1415 C 0.80578 0.02016 0.3461 0.0
C1416 C 0.78014 0.03147 0.31491 0.0
C1417 C 0.77776 0.0717 0.31201 0.0
C1418 C 0.77734 0.91174 0.36656 0.0
C1419 C 0.80483 0.89453 0.34369 0.0
C1420 C 0.77913 0.95324 0.36952 0.0
C1421 C 0.80777 0.97766 0.34878 0.0
C1422 C 0.83613 0.96067 0.32732 0.0
C1423 C 0.83548 0.91957 0.32595 0.0
H1424 H 0.87863 0.035 0.94915 0.0
H1425 H 0.85989 0.91242 0.97935 0.0
H1426 H 0.80551 0.03369 0.94297 0.0
H1427 H 0.78539 0.91112 0.97428 0.0
H1428 H 0.65057 0.91059 0.93999 0.0
H1429 H 0.72389 0.91064 0.93477 0.0
H1430 H 0.75021 0.0357 0.97901 0.0
H1431 H 0.67702 0.0356 0.98138 0.0
C1432 C 0.85879 0.0077 0.95486 0.0
C1433 C 0.87535 0.97391 0.96501 0.0
C1434 C 0.81649 0.00704 0.95168 0.0
C1435 C 0.78891 0.97248 0.95852 0.0
C1436 C 0.80536 0.93819 0.96806 0.0
C1437 C 0.84813 0.93889 0.97121 0.0
C1438 C 0.6722 0.93837 0.94682 0.0
C1439 C 0.65825 0.97344 0.95974 0.0
C1440 C 0.71432 0.93827 0.94479 0.0
C1441 C 0.74357 0.97305 0.95681 0.0
C1442 C 0.72906 0.00842 0.96858 0.0
C1443 C 0.68694 0.00861 0.96978 0.0
H1444 H 0.25966 0.58078 0.7834 0.0
H1445 H 0.34312 0.61568 0.89229 0.0
H1446 H 0.26405 0.51084 0.79099 0.0
H1447 H 0.34795 0.54533 0.89887 0.0
H1448 H 0.35677 0.40925 0.81102 0.0
H1449 H 0.35968 0.48168 0.81424 0.0
H1450 H 0.25455 0.46968 0.88445 0.0
H1451 H 0.24946 0.39658 0.87806 0.0
C1452 C 0.2793 0.57372 0.80866 0.0
C1453 C 0.30077 0.60395 0.83745 0.0
C1454 C 0.28153 0.53369 0.81304 0.0
C1455 C 0.30569 0.52316 0.84589 0.0
C1456 C 0.32869 0.55309 0.87368 0.0
C1457 C 0.32619 0.59324 0.86956 0.0
C1458 C 0.33463 0.42215 0.82751 0.0
C1459 C 0.30309 0.39748 0.84443 0.0
C1460 C 0.33655 0.46346 0.82964 0.0
C1461 C 0.30758 0.48081 0.84983 0.0
C1462 C 0.2776 0.45665 0.8693 0.0
C1463 C 0.27514 0.41507 0.86632 0.0
H1464 H 0.15428 0.40691 0.46313 0.0
H1465 H 0.17497 0.53558 0.47342 0.0
H1466 H 0.22755 0.40782 0.45892 0.0
H1467 H 0.24878 0.53718 0.4721 0.0
H1468 H 0.37684 0.53214 0.43997 0.0
H1469 H 0.30283 0.52843 0.43576 0.0
H1470 H 0.29085 0.41814 0.4951 0.0
H1471 H 0.36524 0.421 0.49654 0.0
C1472 C 0.17471 0.43545 0.46381 0.0
C1473 C 0.15902 0.47117 0.46744 0.0
C1474 C 0.21691 0.43608 0.46235 0.0
C1475 C 0.24477 0.47256 0.46545 0.0
C1476 C 0.22864 0.50839 0.4687 0.0
C1477 C 0.18622 0.50766 0.46917 0.0
C1478 C 0.35829 0.50704 0.45196 0.0
C1479 C 0.37679 0.47678 0.46841 0.0
C1480 C 0.31568 0.505 0.44987 0.0
C1481 C 0.29025 0.47328 0.46559 0.0
C1482 C 0.30895 0.44283 0.48206 0.0
C1483 C 0.3517 0.44447 0.48323 0.0
H1484 H 0.81961 0.72682 0.91367 0.0
H1485 H 0.78586 0.84394 0.92561 0.0
H1486 H 0.81615 0.72131 0.98583 0.0
H1487 H 0.7831 0.83852 0.99909 0.0
H1488 H 0.83448 0.73525 0.12441 0.0
H1489 H 0.84672 0.74669 0.05379 0.0
H1490 H 0.73555 0.79686 0.03986 0.0
H1491 H 0.72369 0.78596 0.11035 0.0
C1492 C 0.81185 0.75171 0.93178 0.0
C1493 C 0.80209 0.78551 0.91361 0.0
C1494 C 0.81026 0.7486 0.9734 0.0
C1495 C 0.79887 0.7792 0.99814 0.0
C1496 C 0.79125 0.8141 0.98055 0.0
C1497 C 0.79305 0.81733 0.9386 0.0
C1498 C 0.81219 0.74781 0.10594 0.0
C1499 C 0.77782 0.75913 0.12273 0.0
C1500 C 0.81942 0.75482 0.06566 0.0
C1501 C 0.79232 0.77312 0.04138 0.0
C1502 C 0.75747 0.78353 0.05798 0.0
C1503 C 0.75032 0.77662 0.09815 0.0
H1504 H 0.5694 0.52032 0.36018 0.0
H1505 H 0.44192 0.53072 0.36317 0.0
H1506 H 0.55994 0.50887 0.28613 0.0
H1507 H 0.43091 0.51592 0.28992 0.0
H1508 H 0.42911 0.51847 0.15361 0.0
H1509 H 0.43742 0.53216 0.22636 0.0
H1510 H 0.53431 0.46136 0.23367 0.0
H1511 H 0.52808 0.45092 0.15915 0.0
C1512 C 0.53968 0.52166 0.34461 0.0
C1513 C 0.50674 0.52784 0.36706 0.0
C1514 C 0.53376 0.51367 0.30226 0.0
C1515 C 0.49436 0.51038 0.28148 0.0
C1516 C 0.46188 0.51857 0.30415 0.0
C1517 C 0.46817 0.52765 0.34632 0.0
C1518 C 0.4518 0.50522 0.17079 0.0
C1519 C 0.47823 0.48394 0.15063 0.0
C1520 C 0.45652 0.51296 0.21292 0.0
C1521 C 0.48714 0.49865 0.23659 0.0
C1522 C 0.51128 0.47417 0.2166 0.0
C1523 C 0.50709 0.46715 0.17391 0.0
H1524 H 0.74641 0.31521 0.43828 0.0
H1525 H 0.78378 0.2006 0.44971 0.0
H1526 H 0.75985 0.33058 0.51188 0.0
H1527 H 0.79702 0.21599 0.52307 0.0
H1528 H 0.85356 0.26474 0.64559 0.0
H1529 H 0.8461 0.26244 0.5715 0.0
H1530 H 0.73156 0.30657 0.57609 0.0
H1531 H 0.7397 0.30961 0.65082 0.0
C1532 C 0.75756 0.29332 0.45644 0.0
C1533 C 0.76413 0.25666 0.43809 0.0
C1534 C 0.76508 0.30213 0.4986 0.0
C1535 C 0.77982 0.2747 0.52319 0.0
C1536 C 0.78634 0.23807 0.50482 0.0
C1537 C 0.77846 0.2291 0.4628 0.0
C1538 C 0.8275 0.27522 0.63075 0.0
C1539 C 0.79726 0.2875 0.6537 0.0
C1540 C 0.82296 0.27343 0.58838 0.0
C1541 C 0.78782 0.28347 0.568 0.0
C1542 C 0.75903 0.29872 0.59103 0.0
C1543 C 0.76376 0.30077 0.63372 0.0
H1544 H 0.95213 0.39843 0.65692 0.0
H1545 H 0.05519 0.49644 0.67423 0.0
H1546 H 0.94933 0.39945 0.73085 0.0
H1547 H 0.0536 0.49571 0.74808 0.0
H1548 H 0.06614 0.43773 0.87328 0.0
H1549 H 0.06334 0.43223 0.79852 0.0
H1550 H 0.94106 0.46036 0.79188 0.0
H1551 H 0.94399 0.46605 0.8666 0.0
C1552 C 0.97396 0.42038 0.6764 0.0
C1553 C 1.00421 0.44701 0.65957 0.0
C1554 C 0.97247 0.42072 0.71865 0.0
C1555 C 1.00183 0.44701 0.74494 0.0
C1556 C 0.0311 0.47465 0.7283 0.0
C1557 C 0.03182 0.47516 0.68601 0.0
C1558 C 0.03802 0.44095 0.85573 0.0
C1559 C 1.00462 0.45078 0.8755 0.0
C1560 C 0.0367 0.43852 0.81313 0.0
C1561 C 1.00189 0.44582 0.78968 0.0
C1562 C 0.96792 0.45408 0.80939 0.0
C1563 C 0.96948 0.457 0.85197 0.0
H1564 H 0.84284 0.95189 0.52354 0.0
H1565 H 0.87144 0.08089 0.53735 0.0
H1566 H 0.77041 0.95485 0.50968 0.0
H1567 H 0.79903 0.08396 0.522 0.0
H1568 H 0.65919 0.07493 0.52885 0.0
H1569 H 0.73279 0.07492 0.54336 0.0
H1570 H 0.72171 0.96844 0.4612 0.0
H1571 H 0.64819 0.96746 0.44889 0.0
C1572 C 0.83377 0.98097 0.52359 0.0
C1573 C 0.86332 0.01612 0.53161 0.0
C1574 C 0.79201 0.98273 0.51515 0.0
C1575 C 0.77835 0.01971 0.51413 0.0
C1576 C 0.8079 0.05487 0.52281 0.0
C1577 C 0.8497 0.0531 0.53151 0.0
C1578 C 0.67273 0.05181 0.51371 0.0
C1579 C 0.64787 0.0211 0.48791 0.0
C1580 C 0.71503 0.05176 0.52191 0.0
C1581 C 0.73362 0.02131 0.50399 0.0
C1582 C 0.70871 0.9917 0.47673 0.0
C1583 C 0.66647 0.99134 0.46924 0.0
loop_
_geom_bond_atom_site_label_1
_geom_bond_atom_site_label_2
_geom_bond_distance
_geom_bond_site_symmetry_2
_ccdc_geom_bond_type
Co0 O2 2.143 . S
Co0 O8 2.074 . S
Co0 O11 2.093 . S
Co0 O24 2.097 . S
Co0 N41 2.151 . S
Co0 N49 2.214 . S
Co1 O2 2.160 . S
Co1 O7 2.058 . S
Co1 O17 2.057 . S
Co1 O32 2.037 . S
Co1 N36 2.145 . S
Co1 N57 2.257 . S
O2 Co0 2.143 . S
O2 Co1 2.160 . S
C3 O4 1.278 . S
C3 O11 1.224 . S
O4 C3 1.278 . S
C5 O6 1.245 . S
C5 O17 1.232 . S
O6 C5 1.245 . S
O7 Co1 2.058 . S
O7 C33 1.269 . S
O8 Co0 2.074 . S
O8 C33 1.257 . S
H9 C34 0.930 . S
H10 C40 0.930 . S
O11 Co0 2.093 . S
O11 C3 1.224 . S
H12 C44 0.929 . S
H13 C46 0.930 . S
H14 C47 0.930 . S
H15 C45 0.929 . S
H16 C48 0.928 . S
O17 Co1 2.057 . S
O17 C5 1.232 . S
H18 C37 0.929 . S
H19 C38 0.929 . S
H20 C50 0.931 . S
H21 C42 0.929 . S
H22 C51 0.930 . S
H23 C43 0.931 . S
O24 Co0 2.097 . S
O24 C52 1.214 . S
H25 C53 0.929 . S
H26 C54 0.929 . S
H27 C55 0.930 . S
H28 C56 0.929 . S
H29 C58 0.930 . S
H30 C35 0.930 . S
H31 C39 0.930 . S
O32 Co1 2.037 . S
O32 C52 1.234 . S
C33 O7 1.269 . S
C33 O8 1.257 . S
C34 H9 0.930 . S
C34 C37 1.388 . S
C34 C39 1.418 . S
C35 H30 0.930 . S
C35 C38 1.404 . S
C35 C39 1.353 . S
N36 Co1 2.145 . S
N36 C37 1.397 . S
N36 C38 1.334 . S
C37 H18 0.929 . S
C37 C34 1.388 . S
C37 N36 1.397 . S
C38 H19 0.929 . S
C38 C35 1.404 . S
C38 N36 1.334 . S
C39 H31 0.930 . S
C39 C34 1.418 . S
C39 C35 1.353 . S
C40 H10 0.930 . S
C40 N41 1.330 . S
C40 C42 1.446 . S
N41 Co0 2.151 . S
N41 C40 1.330 . S
N41 C45 1.418 . S
C42 H21 0.929 . S
C42 C40 1.446 . S
C42 C43 1.332 . S
C43 H23 0.931 . S
C43 C42 1.332 . S
C43 C44 1.267 . S
C44 H12 0.929 . S
C44 C43 1.267 . S
C44 C45 1.251 . S
C45 H15 0.929 . S
C45 N41 1.418 . S
C45 C44 1.251 . S
C46 H13 0.930 . S
C46 C48 1.406 . S
C46 C51 1.261 . S
C47 H14 0.930 . S
C47 N49 1.325 . S
C47 C50 1.357 . S
C48 H16 0.928 . S
C48 C46 1.406 . S
C48 N49 1.261 . S
N49 Co0 2.214 . S
N49 C47 1.325 . S
N49 C48 1.261 . S
C50 H20 0.931 . S
C50 C47 1.357 . S
C50 C51 1.312 . S
C51 H22 0.930 . S
C51 C46 1.261 . S
C51 C50 1.312 . S
C52 O24 1.214 . S
C52 O32 1.234 . S
C53 H25 0.929 . S
C53 C56 1.391 . S
C53 C58 1.391 . S
C54 H26 0.929 . S
C54 C55 1.390 . S
C54 N57 1.391 . S
C55 H27 0.930 . S
C55 C54 1.390 . S
C55 C56 1.392 . S
C56 H28 0.929 . S
C56 C53 1.391 . S
C56 C55 1.392 . S
N57 Co1 2.257 . S
N57 C54 1.391 . S
N57 C58 1.388 . S
C58 H29 0.930 . S
C58 C53 1.391 . S
C58 N57 1.388 . S
Co59 O61 2.143 . S
Co59 O67 2.074 . S
Co59 O70 2.093 . S
Co59 O83 2.097 . S
Co59 N100 2.151 1_655 S
Co59 N108 2.214 . S
Co60 O61 2.160 1_565 S
Co60 O66 2.058 . S
Co60 O76 2.057 1_655 S
Co60 O91 2.037 . S
Co60 N95 2.145 . S
Co60 N116 2.257 . S
O61 Co59 2.143 . S
O61 Co60 2.160 1_545 S
C62 O63 1.278 . S
C62 O70 1.224 . S
O63 C62 1.278 . S
C64 O65 1.245 1_565 S
C64 O76 1.232 . S
O65 C64 1.245 1_545 S
O66 Co60 2.058 . S
O66 C92 1.269 . S
O67 Co59 2.074 . S
O67 C92 1.257 1_545 S
H68 C93 0.930 . S
H69 C99 0.930 . S
O70 Co59 2.093 . S
O70 C62 1.224 . S
H71 C103 0.929 . S
H72 C105 0.930 . S
H73 C106 0.930 . S
H74 C104 0.929 . S
H75 C107 0.928 . S
O76 Co60 2.057 1_455 S
O76 C64 1.232 . S
H77 C96 0.929 . S
H78 C97 0.929 . S
H79 C109 0.931 . S
H80 C101 0.929 . S
H81 C110 0.930 . S
H82 C102 0.931 . S
O83 Co59 2.097 . S
O83 C111 1.214 . S
H84 C112 0.929 . S
H85 C113 0.929 . S
H86 C114 0.930 . S
H87 C115 0.929 1_545 S
H88 C117 0.930 . S
H89 C94 0.930 . S
H90 C98 0.930 . S
O91 Co60 2.037 . S
O91 C111 1.234 1_565 S
C92 O66 1.269 . S
C92 O67 1.257 1_565 S
C93 H68 0.930 . S
C93 C96 1.388 . S
C93 C98 1.418 . S
C94 H89 0.930 . S
C94 C97 1.404 . S
C94 C98 1.353 . S
N95 Co60 2.145 . S
N95 C96 1.397 . S
N95 C97 1.334 . S
C96 H77 0.929 . S
C96 C93 1.388 . S
C96 N95 1.397 . S
C97 H78 0.929 . S
C97 C94 1.404 . S
C97 N95 1.334 . S
C98 H90 0.930 . S
C98 C93 1.418 . S
C98 C94 1.353 . S
C99 H69 0.930 . S
C99 N100 1.330 . S
C99 C101 1.446 . S
N100 Co59 2.151 1_455 S
N100 C99 1.330 . S
N100 C104 1.418 . S
C101 H80 0.929 . S
C101 C99 1.446 . S
C101 C102 1.332 . S
C102 H82 0.931 . S
C102 C101 1.332 . S
C102 C103 1.267 . S
C103 H71 0.929 . S
C103 C102 1.267 . S
C103 C104 1.251 . S
C104 H74 0.929 . S
C104 N100 1.418 . S
C104 C103 1.251 . S
C105 H72 0.930 . S
C105 C107 1.406 . S
C105 C110 1.261 . S
C106 H73 0.930 . S
C106 N108 1.325 . S
C106 C109 1.357 . S
C107 H75 0.928 . S
C107 C105 1.406 . S
C107 N108 1.261 . S
N108 Co59 2.214 . S
N108 C106 1.325 . S
N108 C107 1.261 . S
C109 H79 0.931 . S
C109 C106 1.357 . S
C109 C110 1.312 . S
C110 H81 0.930 . S
C110 C105 1.261 . S
C110 C109 1.312 . S
C111 O83 1.214 . S
C111 O91 1.234 1_545 S
C112 H84 0.929 . S
C112 C115 1.391 1_545 S
C112 C117 1.390 . S
C113 H85 0.929 . S
C113 C114 1.390 . S
C113 N116 1.391 . S
C114 H86 0.930 . S
C114 C113 1.390 . S
C114 C115 1.392 . S
C115 H87 0.929 1_565 S
C115 C112 1.391 1_565 S
C115 C114 1.392 . S
N116 Co60 2.257 . S
N116 C113 1.391 . S
N116 C117 1.390 1_565 S
C117 H88 0.930 . S
C117 C112 1.390 . S
C117 N116 1.390 1_545 S
Co118 O120 2.143 . S
Co118 O126 2.074 . S
Co118 O129 2.093 . S
Co118 O142 2.097 . S
Co118 N159 2.151 . S
Co118 N167 2.214 . S
Co119 O120 2.160 . S
Co119 O125 2.058 . S
Co119 O135 2.057 . S
Co119 O150 2.037 . S
Co119 N154 2.145 . S
Co119 N175 2.257 . S
O120 Co118 2.143 . S
O120 Co119 2.160 . S
C121 O122 1.278 . S
C121 O129 1.224 . S
O122 C121 1.278 . S
C123 O124 1.245 . S
C123 O135 1.232 . S
O124 C123 1.245 . S
O125 Co119 2.058 . S
O125 C151 1.269 . S
O126 Co118 2.074 . S
O126 C151 1.257 . S
H127 C152 0.930 . S
H128 C158 0.930 . S
O129 Co118 2.093 . S
O129 C121 1.224 . S
H130 C162 0.929 . S
H131 C164 0.930 . S
H132 C165 0.930 . S
H133 C163 0.929 . S
H134 C166 0.928 . S
O135 Co119 2.057 . S
O135 C123 1.232 . S
H136 C155 0.929 . S
H137 C156 0.929 . S
H138 C168 0.931 . S
H139 C160 0.929 . S
H140 C169 0.930 . S
H141 C161 0.931 . S
O142 Co118 2.097 . S
O142 C170 1.214 . S
H143 C171 0.929 . S
H144 C172 0.929 . S
H145 C173 0.930 . S
H146 C174 0.929 . S
H147 C176 0.930 . S
H148 C153 0.930 . S
H149 C157 0.930 . S
O150 Co119 2.037 . S
O150 C170 1.234 . S
C151 O125 1.269 . S
C151 O126 1.257 . S
C152 H127 0.930 . S
C152 C155 1.388 . S
C152 C157 1.418 . S
C153 H148 0.930 . S
C153 C156 1.404 . S
C153 C157 1.353 . S
N154 Co119 2.145 . S
N154 C155 1.397 . S
N154 C156 1.334 . S
C155 H136 0.929 . S
C155 C152 1.388 . S
C155 N154 1.397 . S
C156 H137 0.929 . S
C156 C153 1.404 . S
C156 N154 1.334 . S
C157 H149 0.930 . S
C157 C152 1.418 . S
C157 C153 1.353 . S
C158 H128 0.930 . S
C158 N159 1.330 . S
C158 C160 1.446 . S
N159 Co118 2.151 . S
N159 C158 1.330 . S
N159 C163 1.418 . S
C160 H139 0.929 . S
C160 C158 1.446 . S
C160 C161 1.332 . S
C161 H141 0.931 . S
C161 C160 1.332 . S
C161 C162 1.267 . S
C162 H130 0.929 . S
C162 C161 1.267 . S
C162 C163 1.251 . S
C163 H133 0.929 . S
C163 N159 1.418 . S
C163 C162 1.251 . S
C164 H131 0.930 . S
C164 C166 1.406 . S
C164 C169 1.261 . S
C165 H132 0.930 . S
C165 N167 1.325 . S
C165 C168 1.357 . S
C166 H134 0.928 . S
C166 C164 1.406 . S
C166 N167 1.261 . S
N167 Co118 2.214 . S
N167 C165 1.325 . S
N167 C166 1.261 . S
C168 H138 0.931 . S
C168 C165 1.357 . S
C168 C169 1.312 . S
C169 H140 0.930 . S
C169 C164 1.261 . S
C169 C168 1.312 . S
C170 O142 1.214 . S
C170 O150 1.234 . S
C171 H143 0.929 . S
C171 C174 1.391 . S
C171 C176 1.391 . S
C172 H144 0.929 . S
C172 C173 1.390 . S
C172 N175 1.391 . S
C173 H145 0.930 . S
C173 C172 1.390 . S
C173 C174 1.392 . S
C174 H146 0.929 . S
C174 C171 1.391 . S
C174 C173 1.392 . S
N175 Co119 2.257 . S
N175 C172 1.391 . S
N175 C176 1.388 . S
C176 H147 0.930 . S
C176 C171 1.391 . S
C176 N175 1.388 . S
Co177 O179 2.143 . S
Co177 O185 2.074 1_554 S
Co177 O188 2.093 . S
Co177 O201 2.097 . S
Co177 N218 2.151 . S
Co177 N226 2.214 . S
Co178 O179 2.160 1_556 S
Co178 O184 2.058 . S
Co178 O194 2.057 . S
Co178 O209 2.037 . S
Co178 N213 2.145 . S
Co178 N234 2.257 . S
O179 Co177 2.143 . S
O179 Co178 2.160 1_554 S
C180 O181 1.278 . S
C180 O188 1.224 . S
O181 C180 1.278 . S
C182 O183 1.245 . S
C182 O194 1.232 1_545 S
O183 C182 1.245 . S
O184 Co178 2.058 . S
O184 C210 1.269 . S
O185 Co177 2.074 1_556 S
O185 C210 1.257 . S
H186 C211 0.930 . S
H187 C217 0.930 . S
O188 Co177 2.093 . S
O188 C180 1.224 . S
H189 C221 0.929 . S
H190 C223 0.930 . S
H191 C224 0.930 . S
H192 C222 0.929 1_565 S
H193 C225 0.928 . S
O194 Co178 2.057 . S
O194 C182 1.232 1_565 S
H195 C214 0.929 . S
H196 C215 0.929 . S
H197 C227 0.931 . S
H198 C219 0.929 . S
H199 C228 0.930 . S
H200 C220 0.931 . S
O201 Co177 2.097 . S
O201 C229 1.214 1_554 S
H202 C230 0.929 . S
H203 C231 0.929 . S
H204 C232 0.930 . S
H205 C233 0.929 . S
H206 C235 0.930 . S
H207 C212 0.930 . S
H208 C216 0.930 . S
O209 Co178 2.037 . S
O209 C229 1.234 . S
C210 O184 1.269 . S
C210 O185 1.257 . S
C211 H186 0.930 . S
C211 C214 1.388 . S
C211 C216 1.418 . S
C212 H207 0.930 . S
C212 C215 1.404 . S
C212 C216 1.353 . S
N213 Co178 2.145 . S
N213 C214 1.397 . S
N213 C215 1.334 . S
C214 H195 0.929 . S
C214 C211 1.388 . S
C214 N213 1.397 . S
C215 H196 0.929 . S
C215 C212 1.404 . S
C215 N213 1.334 . S
C216 H208 0.930 . S
C216 C211 1.418 . S
C216 C212 1.353 . S
C217 H187 0.930 . S
C217 N218 1.330 1_545 S
C217 C219 1.446 . S
N218 Co177 2.151 . S
N218 C217 1.330 1_565 S
N218 C222 1.418 1_565 S
C219 H198 0.929 . S
C219 C217 1.446 . S
C219 C220 1.332 . S
C220 H200 0.931 . S
C220 C219 1.332 . S
C220 C221 1.267 . S
C221 H189 0.929 . S
C221 C220 1.267 . S
C221 C222 1.251 . S
C222 H192 0.929 1_545 S
C222 N218 1.418 1_545 S
C222 C221 1.251 . S
C223 H190 0.930 . S
C223 C225 1.406 . S
C223 C228 1.261 . S
C224 H191 0.930 . S
C224 N226 1.325 . S
C224 C227 1.357 . S
C225 H193 0.928 . S
C225 C223 1.406 . S
C225 N226 1.261 . S
N226 Co177 2.214 . S
N226 C224 1.325 . S
N226 C225 1.261 . S
C227 H197 0.931 . S
C227 C224 1.357 . S
C227 C228 1.312 . S
C228 H199 0.930 . S
C228 C223 1.261 . S
C228 C227 1.312 . S
C229 O201 1.214 1_556 S
C229 O209 1.234 . S
C230 H202 0.929 . S
C230 C233 1.391 . S
C230 C235 1.391 . S
C231 H203 0.929 . S
C231 C232 1.390 . S
C231 N234 1.391 . S
C232 H204 0.930 . S
C232 C231 1.390 . S
C232 C233 1.392 . S
C233 H205 0.929 . S
C233 C230 1.391 . S
C233 C232 1.392 . S
N234 Co178 2.257 . S
N234 C231 1.391 . S
N234 C235 1.388 . S
C235 H206 0.930 . S
C235 C230 1.391 . S
C235 N234 1.388 . S
Co236 O238 2.143 . S
Co236 O244 2.074 . S
Co236 O247 2.093 . S
Co236 O260 2.097 . S
Co236 N277 2.151 . S
Co236 N285 2.214 . S
Co237 O238 2.160 . S
Co237 O243 2.058 . S
Co237 O253 2.057 . S
Co237 O268 2.037 . S
Co237 N272 2.145 . S
Co237 N293 2.257 . S
O238 Co236 2.143 . S
O238 Co237 2.160 . S
C239 O240 1.278 . S
C239 O247 1.224 . S
O240 C239 1.278 . S
C241 O242 1.245 . S
C241 O253 1.232 . S
O242 C241 1.245 . S
O243 Co237 2.058 . S
O243 C269 1.269 . S
O244 Co236 2.074 . S
O244 C269 1.257 . S
H245 C270 0.930 . S
H246 C276 0.930 . S
O247 Co236 2.093 . S
O247 C239 1.224 . S
H248 C280 0.929 . S
H249 C282 0.930 . S
H250 C283 0.930 . S
H251 C281 0.929 . S
H252 C284 0.928 . S
O253 Co237 2.057 . S
O253 C241 1.232 . S
H254 C273 0.929 . S
H255 C274 0.929 . S
H256 C286 0.931 . S
H257 C278 0.929 . S
H258 C287 0.930 . S
H259 C279 0.931 . S
O260 Co236 2.097 . S
O260 C288 1.214 . S
H261 C289 0.929 . S
H262 C290 0.929 . S
H263 C291 0.930 . S
H264 C292 0.929 . S
H265 C294 0.930 . S
H266 C271 0.930 . S
H267 C275 0.930 . S
O268 Co237 2.037 . S
O268 C288 1.234 . S
C269 O243 1.269 . S
C269 O244 1.257 . S
C270 H245 0.930 . S
C270 C273 1.388 . S
C270 C275 1.418 . S
C271 H266 0.930 . S
C271 C274 1.404 . S
C271 C275 1.353 . S
N272 Co237 2.145 . S
N272 C273 1.397 . S
N272 C274 1.334 . S
C273 H254 0.929 . S
C273 C270 1.388 . S
C273 N272 1.397 . S
C274 H255 0.929 . S
C274 C271 1.404 . S
C274 N272 1.334 . S
C275 H267 0.930 . S
C275 C270 1.418 . S
C275 C271 1.353 . S
C276 H246 0.930 . S
C276 N277 1.330 . S
C276 C278 1.446 . S
N277 Co236 2.151 . S
N277 C276 1.330 . S
N277 C281 1.418 . S
C278 H257 0.929 . S
C278 C276 1.446 . S
C278 C279 1.332 . S
C279 H259 0.931 . S
C279 C278 1.332 . S
C279 C280 1.267 . S
C280 H248 0.929 . S
C280 C279 1.267 . S
C280 C281 1.251 . S
C281 H251 0.929 . S
C281 N277 1.418 . S
C281 C280 1.251 . S
C282 H249 0.930 . S
C282 C284 1.406 . S
C282 C287 1.261 . S
C283 H250 0.930 . S
C283 N285 1.325 . S
C283 C286 1.357 . S
C284 H252 0.928 . S
C284 C282 1.406 . S
C284 N285 1.261 . S
N285 Co236 2.214 . S
N285 C283 1.325 . S
N285 C284 1.261 . S
C286 H256 0.931 . S
C286 C283 1.357 . S
C286 C287 1.312 . S
C287 H258 0.930 . S
C287 C282 1.261 . S
C287 C286 1.312 . S
C288 O260 1.214 . S
C288 O268 1.234 . S
C289 H261 0.929 . S
C289 C292 1.391 . S
C289 C294 1.391 . S
C290 H262 0.929 . S
C290 C291 1.390 . S
C290 N293 1.391 . S
C291 H263 0.930 . S
C291 C290 1.390 . S
C291 C292 1.392 . S
C292 H264 0.929 . S
C292 C289 1.391 . S
C292 C291 1.392 . S
N293 Co237 2.257 . S
N293 C290 1.391 . S
N293 C294 1.388 . S
C294 H265 0.930 . S
C294 C289 1.391 . S
C294 N293 1.388 . S
Co295 O297 2.143 . S
Co295 O303 2.074 1_545 S
Co295 O306 2.093 . S
Co295 O319 2.097 . S
Co295 N336 2.151 . S
Co295 N344 2.214 . S
Co296 O297 2.160 1_565 S
Co296 O302 2.058 . S
Co296 O312 2.057 . S
Co296 O327 2.037 . S
Co296 N331 2.145 . S
Co296 N352 2.257 . S
O297 Co295 2.143 . S
O297 Co296 2.160 1_545 S
C298 O299 1.278 . S
C298 O306 1.224 . S
O299 C298 1.278 . S
C300 O301 1.245 . S
C300 O312 1.232 . S
O301 C300 1.245 . S
O302 Co296 2.058 . S
O302 C328 1.269 . S
O303 Co295 2.074 1_565 S
O303 C328 1.257 . S
H304 C329 0.930 . S
H305 C335 0.930 . S
O306 Co295 2.093 . S
O306 C298 1.224 . S
H307 C339 0.929 . S
H308 C341 0.930 . S
H309 C342 0.930 . S
H310 C340 0.929 . S
H311 C343 0.928 . S
O312 Co296 2.057 . S
O312 C300 1.232 . S
H313 C332 0.929 . S
H314 C333 0.929 . S
H315 C345 0.931 . S
H316 C337 0.929 . S
H317 C346 0.930 . S
H318 C338 0.931 . S
O319 Co295 2.097 . S
O319 C347 1.214 . S
H320 C348 0.929 . S
H321 C349 0.929 . S
H322 C350 0.930 . S
H323 C351 0.929 . S
H324 C353 0.930 . S
H325 C330 0.930 . S
H326 C334 0.930 . S
O327 Co296 2.037 . S
O327 C347 1.234 1_565 S
C328 O302 1.269 . S
C328 O303 1.257 . S
C329 H304 0.930 . S
C329 C332 1.388 . S
C329 C334 1.418 . S
C330 H325 0.930 . S
C330 C333 1.404 . S
C330 C334 1.353 . S
N331 Co296 2.145 . S
N331 C332 1.397 . S
N331 C333 1.334 . S
C332 H313 0.929 . S
C332 C329 1.388 . S
C332 N331 1.397 . S
C333 H314 0.929 . S
C333 C330 1.404 . S
C333 N331 1.334 . S
C334 H326 0.930 . S
C334 C329 1.418 . S
C334 C330 1.353 . S
C335 H305 0.930 . S
C335 N336 1.330 . S
C335 C337 1.446 . S
N336 Co295 2.151 . S
N336 C335 1.330 . S
N336 C340 1.418 . S
C337 H316 0.929 . S
C337 C335 1.446 . S
C337 C338 1.332 . S
C338 H318 0.931 . S
C338 C337 1.332 . S
C338 C339 1.267 . S
C339 H307 0.929 . S
C339 C338 1.267 . S
C339 C340 1.251 . S
C340 H310 0.929 . S
C340 N336 1.418 . S
C340 C339 1.251 . S
C341 H308 0.930 . S
C341 C343 1.406 . S
C341 C346 1.261 . S
C342 H309 0.930 . S
C342 N344 1.325 . S
C342 C345 1.357 . S
C343 H311 0.928 . S
C343 C341 1.406 . S
C343 N344 1.261 . S
N344 Co295 2.214 . S
N344 C342 1.325 . S
N344 C343 1.261 . S
C345 H315 0.931 . S
C345 C342 1.357 . S
C345 C346 1.312 . S
C346 H317 0.930 . S
C346 C341 1.261 . S
C346 C345 1.312 . S
C347 O319 1.214 . S
C347 O327 1.234 1_545 S
C348 H320 0.929 . S
C348 C351 1.391 . S
C348 C353 1.391 . S
C349 H321 0.929 . S
C349 C350 1.390 1_565 S
C349 N352 1.391 . S
C350 H322 0.930 . S
C350 C349 1.390 1_545 S
C350 C351 1.392 . S
C351 H323 0.929 . S
C351 C348 1.391 . S
C351 C350 1.392 . S
N352 Co296 2.257 . S
N352 C349 1.391 . S
N352 C353 1.388 1_565 S
C353 H324 0.930 . S
C353 C348 1.391 . S
C353 N352 1.388 1_545 S
Co354 O356 2.143 . S
Co354 O362 2.074 . S
Co354 O365 2.093 . S
Co354 O378 2.097 . S
Co354 N395 2.151 . S
Co354 N403 2.214 . S
Co355 O356 2.160 . S
Co355 O361 2.058 . S
Co355 O371 2.057 . S
Co355 O386 2.037 . S
Co355 N390 2.145 . S
Co355 N411 2.257 . S
O356 Co354 2.143 . S
O356 Co355 2.160 . S
C357 O358 1.278 . S
C357 O365 1.224 . S
O358 C357 1.278 . S
C359 O360 1.245 . S
C359 O371 1.232 . S
O360 C359 1.245 . S
O361 Co355 2.058 . S
O361 C387 1.269 . S
O362 Co354 2.074 . S
O362 C387 1.257 . S
H363 C388 0.930 . S
H364 C394 0.930 . S
O365 Co354 2.093 . S
O365 C357 1.224 . S
H366 C398 0.929 . S
H367 C400 0.930 . S
H368 C401 0.930 . S
H369 C399 0.929 . S
H370 C402 0.928 . S
O371 Co355 2.057 . S
O371 C359 1.232 . S
H372 C391 0.929 . S
H373 C392 0.929 . S
H374 C404 0.931 . S
H375 C396 0.929 . S
H376 C405 0.930 . S
H377 C397 0.931 . S
O378 Co354 2.097 . S
O378 C406 1.214 . S
H379 C407 0.929 . S
H380 C408 0.929 . S
H381 C409 0.930 . S
H382 C410 0.929 . S
H383 C412 0.930 . S
H384 C389 0.930 . S
H385 C393 0.930 . S
O386 Co355 2.037 . S
O386 C406 1.234 . S
C387 O361 1.269 . S
C387 O362 1.257 . S
C388 H363 0.930 . S
C388 C391 1.388 . S
C388 C393 1.418 . S
C389 H384 0.930 . S
C389 C392 1.404 . S
C389 C393 1.353 . S
N390 Co355 2.145 . S
N390 C391 1.397 . S
N390 C392 1.334 . S
C391 H372 0.929 . S
C391 C388 1.388 . S
C391 N390 1.397 . S
C392 H373 0.929 . S
C392 C389 1.404 . S
C392 N390 1.334 . S
C393 H385 0.930 . S
C393 C388 1.418 . S
C393 C389 1.353 . S
C394 H364 0.930 . S
C394 N395 1.330 . S
C394 C396 1.446 . S
N395 Co354 2.151 . S
N395 C394 1.330 . S
N395 C399 1.418 . S
C396 H375 0.929 . S
C396 C394 1.446 . S
C396 C397 1.332 . S
C397 H377 0.931 . S
C397 C396 1.332 . S
C397 C398 1.267 . S
C398 H366 0.929 . S
C398 C397 1.267 . S
C398 C399 1.251 . S
C399 H369 0.929 . S
C399 N395 1.418 . S
C399 C398 1.251 . S
C400 H367 0.930 . S
C400 C402 1.406 . S
C400 C405 1.261 . S
C401 H368 0.930 . S
C401 N403 1.325 . S
C401 C404 1.357 . S
C402 H370 0.928 . S
C402 C400 1.406 . S
C402 N403 1.261 . S
N403 Co354 2.214 . S
N403 C401 1.325 . S
N403 C402 1.261 . S
C404 H374 0.931 . S
C404 C401 1.357 . S
C404 C405 1.312 . S
C405 H376 0.930 . S
C405 C400 1.261 . S
C405 C404 1.312 . S
C406 O378 1.214 . S
C406 O386 1.234 . S
C407 H379 0.929 . S
C407 C410 1.391 . S
C407 C412 1.391 . S
C408 H380 0.929 . S
C408 C409 1.390 . S
C408 N411 1.391 . S
C409 H381 0.930 . S
C409 C408 1.390 . S
C409 C410 1.392 . S
C410 H382 0.929 . S
C410 C407 1.391 . S
C410 C409 1.392 . S
N411 Co355 2.257 . S
N411 C408 1.391 . S
N411 C412 1.388 . S
C412 H383 0.930 . S
C412 C407 1.391 . S
C412 N411 1.388 . S
Co413 O415 2.143 . S
Co413 O421 2.074 . S
Co413 O424 2.093 . S
Co413 O437 2.097 . S
Co413 N454 2.151 1_655 S
Co413 N462 2.214 . S
Co414 O415 2.160 1_545 S
Co414 O420 2.058 . S
Co414 O430 2.057 1_656 S
Co414 O445 2.037 1_545 S
Co414 N449 2.145 1_556 S
Co414 N470 2.257 1_546 S
O415 Co413 2.143 . S
O415 Co414 2.160 1_565 S
C416 O417 1.278 . S
C416 O424 1.224 1_554 S
O417 C416 1.278 . S
C418 O419 1.245 1_545 S
C418 O430 1.232 . S
O419 C418 1.245 1_565 S
O420 Co414 2.058 . S
O420 C446 1.269 1_545 S
O421 Co413 2.074 . S
O421 C446 1.257 . S
H422 C447 0.930 . S
H423 C453 0.930 . S
O424 Co413 2.093 . S
O424 C416 1.224 1_556 S
H425 C457 0.929 . S
H426 C459 0.930 . S
H427 C460 0.930 . S
H428 C458 0.929 . S
H429 C461 0.928 . S
O430 Co414 2.057 1_454 S
O430 C418 1.232 . S
H431 C450 0.929 . S
H432 C451 0.913 1_455 S
H433 C463 0.931 . S
H434 C455 0.929 . S
H435 C464 0.930 . S
H436 C456 0.931 . S
O437 Co413 2.097 . S
O437 C465 1.214 . S
H438 C466 0.929 . S
H439 C467 0.932 . S
H440 C468 0.930 . S
H441 C469 0.929 . S
H442 C471 0.930 1_455 S
H443 C448 0.930 . S
H444 C452 0.930 . S
O445 Co414 2.037 1_565 S
O445 C465 1.234 . S
C446 O420 1.269 1_565 S
C446 O421 1.257 . S
C447 H422 0.930 . S
C447 C450 1.388 . S
C447 C452 1.418 1_556 S
C448 H443 0.930 . S
C448 C451 1.404 . S
C448 C452 1.353 . S
N449 Co414 2.145 1_554 S
N449 C450 1.397 1_554 S
N449 C451 1.334 . S
C450 H431 0.929 . S
C450 C447 1.388 . S
C450 N449 1.397 1_556 S
C451 H432 0.913 1_655 S
C451 C448 1.404 . S
C451 N449 1.334 . S
C452 H444 0.930 . S
C452 C447 1.418 1_554 S
C452 C448 1.353 . S
C453 H423 0.930 . S
C453 N454 1.330 . S
C453 C455 1.446 . S
N454 Co413 2.151 1_455 S
N454 C453 1.330 . S
N454 C458 1.418 . S
C455 H434 0.929 . S
C455 C453 1.446 . S
C455 C456 1.332 . S
C456 H436 0.931 . S
C456 C455 1.332 . S
C456 C457 1.267 . S
C457 H425 0.929 . S
C457 C456 1.267 . S
C457 C458 1.251 . S
C458 H428 0.929 . S
C458 N454 1.418 . S
C458 C457 1.251 . S
C459 H426 0.930 . S
C459 C461 1.406 . S
C459 C464 1.261 . S
C460 H427 0.930 . S
C460 N462 1.325 . S
C460 C463 1.357 . S
C461 H429 0.928 . S
C461 C459 1.406 . S
C461 N462 1.261 . S
N462 Co413 2.214 . S
N462 C460 1.325 . S
N462 C461 1.261 . S
C463 H433 0.931 . S
C463 C460 1.357 . S
C463 C464 1.312 . S
C464 H435 0.930 . S
C464 C459 1.261 . S
C464 C463 1.312 . S
C465 O437 1.214 . S
C465 O445 1.234 . S
C466 H438 0.929 . S
C466 C469 1.391 . S
C466 C471 1.391 . S
C467 H439 0.932 . S
C467 C468 1.390 . S
C467 N470 1.391 . S
C468 H440 0.930 . S
C468 C467 1.390 . S
C468 C469 1.392 . S
C469 H441 0.929 . S
C469 C466 1.391 . S
C469 C468 1.392 . S
N470 Co414 2.257 1_564 S
N470 C467 1.391 . S
N470 C471 1.388 . S
C471 H442 0.930 1_655 S
C471 C466 1.391 . S
C471 N470 1.388 . S
Co472 O474 2.143 . S
Co472 O480 2.074 . S
Co472 O483 2.093 . S
Co472 O496 2.097 . S
Co472 N513 2.151 . S
Co472 N521 2.214 . S
Co473 O474 2.160 . S
Co473 O479 2.058 . S
Co473 O489 2.057 . S
Co473 O504 2.037 . S
Co473 N508 2.145 . S
Co473 N529 2.257 . S
O474 Co472 2.143 . S
O474 Co473 2.160 . S
C475 O476 1.278 . S
C475 O483 1.224 . S
O476 C475 1.278 . S
C477 O478 1.245 . S
C477 O489 1.232 . S
O478 C477 1.245 . S
O479 Co473 2.058 . S
O479 C505 1.269 . S
O480 Co472 2.074 . S
O480 C505 1.257 . S
H481 C506 0.930 . S
H482 C512 0.930 . S
O483 Co472 2.093 . S
O483 C475 1.224 . S
H484 C516 0.929 . S
H485 C518 0.930 . S
H486 C519 0.930 . S
H487 C517 0.929 . S
H488 C520 0.928 . S
O489 Co473 2.057 . S
O489 C477 1.232 . S
H490 C509 0.929 . S
H491 C510 0.929 . S
H492 C522 0.931 . S
H493 C514 0.929 . S
H494 C523 0.930 . S
H495 C515 0.931 . S
O496 Co472 2.097 . S
O496 C524 1.214 . S
H497 C525 0.929 . S
H498 C526 0.929 . S
H499 C527 0.930 . S
H500 C528 0.929 . S
H501 C530 0.930 . S
H502 C507 0.930 . S
H503 C511 0.930 . S
O504 Co473 2.037 . S
O504 C524 1.234 . S
C505 O479 1.269 . S
C505 O480 1.257 . S
C506 H481 0.930 . S
C506 C509 1.388 . S
C506 C511 1.418 . S
C507 H502 0.930 . S
C507 C510 1.404 . S
C507 C511 1.353 . S
N508 Co473 2.145 . S
N508 C509 1.397 . S
N508 C510 1.334 . S
C509 H490 0.929 . S
C509 C506 1.388 . S
C509 N508 1.397 . S
C510 H491 0.929 . S
C510 C507 1.404 . S
C510 N508 1.334 . S
C511 H503 0.930 . S
C511 C506 1.418 . S
C511 C507 1.353 . S
C512 H482 0.930 . S
C512 N513 1.330 . S
C512 C514 1.446 . S
N513 Co472 2.151 . S
N513 C512 1.330 . S
N513 C517 1.418 . S
C514 H493 0.929 . S
C514 C512 1.446 . S
C514 C515 1.332 . S
C515 H495 0.931 . S
C515 C514 1.332 . S
C515 C516 1.267 . S
C516 H484 0.929 . S
C516 C515 1.267 . S
C516 C517 1.251 . S
C517 H487 0.929 . S
C517 N513 1.418 . S
C517 C516 1.251 . S
C518 H485 0.930 . S
C518 C520 1.406 . S
C518 C523 1.261 . S
C519 H486 0.930 . S
C519 N521 1.325 . S
C519 C522 1.357 . S
C520 H488 0.928 . S
C520 C518 1.406 . S
C520 N521 1.261 . S
N521 Co472 2.214 . S
N521 C519 1.325 . S
N521 C520 1.261 . S
C522 H492 0.931 . S
C522 C519 1.357 . S
C522 C523 1.312 . S
C523 H494 0.930 . S
C523 C518 1.261 . S
C523 C522 1.312 . S
C524 O496 1.214 . S
C524 O504 1.234 . S
C525 H497 0.929 . S
C525 C528 1.391 . S
C525 C530 1.391 . S
C526 H498 0.929 . S
C526 C527 1.390 . S
C526 N529 1.391 . S
C527 H499 0.930 . S
C527 C526 1.390 . S
C527 C528 1.392 . S
C528 H500 0.929 . S
C528 C525 1.391 . S
C528 C527 1.392 . S
N529 Co473 2.257 . S
N529 C526 1.391 . S
N529 C530 1.388 . S
C530 H501 0.930 . S
C530 C525 1.391 . S
C530 N529 1.388 . S
Co531 O533 2.143 1_456 S
Co531 O539 2.074 . S
Co531 O542 2.093 . S
Co531 O555 2.097 . S
Co531 N572 2.151 1_455 S
Co531 N580 2.214 . S
Co532 O533 2.160 1_455 S
Co532 O538 2.058 1_454 S
Co532 O548 2.057 1_455 S
Co532 O563 2.033 1_554 S
Co532 N567 2.145 . S
Co532 N588 2.257 . S
O533 Co531 2.143 1_654 S
O533 Co532 2.160 1_655 S
C534 O535 1.279 . S
C534 O542 1.220 1_654 S
O535 C534 1.279 . S
C536 O537 1.245 . S
C536 O548 1.232 . S
O537 C536 1.245 . S
O538 Co532 2.058 1_656 S
O538 C564 1.269 . S
O539 Co531 2.074 . S
O539 C564 1.257 1_455 S
H540 C565 0.930 1_556 S
H541 C571 0.930 . S
O542 Co531 2.093 . S
O542 C534 1.220 1_456 S
H543 C575 0.929 . S
H544 C577 0.930 . S
H545 C578 0.930 . S
H546 C576 0.929 . S
H547 C579 0.928 . S
O548 Co532 2.057 1_655 S
O548 C536 1.232 . S
H549 C568 0.929 1_556 S
H550 C569 0.929 1_655 S
H551 C581 0.931 . S
H552 C573 0.929 . S
H553 C582 0.930 . S
H554 C574 0.931 . S
O555 Co531 2.097 . S
O555 C583 1.214 . S
H556 C584 0.929 . S
H557 C585 0.929 . S
H558 C586 0.930 . S
H559 C587 0.929 . S
H560 C589 0.930 1_655 S
H561 C566 0.930 . S
H562 C570 0.930 . S
O563 Co532 2.033 1_556 S
O563 C583 1.239 . S
C564 O538 1.269 . S
C564 O539 1.257 1_655 S
C565 H540 0.930 1_554 S
C565 C568 1.388 . S
C565 C570 1.418 . S
C566 H561 0.930 . S
C566 C569 1.404 . S
C566 C570 1.353 . S
N567 Co532 2.145 . S
N567 C568 1.397 . S
N567 C569 1.334 . S
C568 H549 0.929 1_554 S
C568 C565 1.388 . S
C568 N567 1.397 . S
C569 H550 0.929 1_455 S
C569 C566 1.404 . S
C569 N567 1.334 . S
C570 H562 0.930 . S
C570 C565 1.418 . S
C570 C566 1.353 . S
C571 H541 0.930 . S
C571 N572 1.330 . S
C571 C573 1.446 . S
N572 Co531 2.151 1_655 S
N572 C571 1.330 . S
N572 C576 1.418 . S
C573 H552 0.929 . S
C573 C571 1.446 . S
C573 C574 1.332 . S
C574 H554 0.931 . S
C574 C573 1.332 . S
C574 C575 1.267 . S
C575 H543 0.929 . S
C575 C574 1.267 . S
C575 C576 1.251 . S
C576 H546 0.929 . S
C576 N572 1.418 . S
C576 C575 1.251 . S
C577 H544 0.930 . S
C577 C579 1.406 . S
C577 C582 1.261 . S
C578 H545 0.930 . S
C578 N580 1.325 . S
C578 C581 1.357 . S
C579 H547 0.928 . S
C579 C577 1.406 . S
C579 N580 1.261 . S
N580 Co531 2.214 . S
N580 C578 1.325 . S
N580 C579 1.261 . S
C581 H551 0.931 . S
C581 C578 1.357 . S
C581 C582 1.312 . S
C582 H553 0.930 . S
C582 C577 1.261 . S
C582 C581 1.312 . S
C583 O555 1.214 . S
C583 O563 1.239 . S
C584 H556 0.929 . S
C584 C587 1.391 . S
C584 C589 1.391 . S
C585 H557 0.929 . S
C585 C586 1.390 . S
C585 N588 1.391 . S
C586 H558 0.930 . S
C586 C585 1.390 . S
C586 C587 1.392 . S
C587 H559 0.929 . S
C587 C584 1.391 . S
C587 C586 1.392 . S
N588 Co532 2.257 . S
N588 C585 1.391 . S
N588 C589 1.388 . S
C589 H560 0.930 1_455 S
C589 C584 1.391 . S
C589 N588 1.388 . S
Co590 O592 2.143 . S
Co590 O598 2.074 . S
Co590 O601 2.093 . S
Co590 O614 2.097 . S
Co590 N631 2.151 . S
Co590 N639 2.214 . S
Co591 O592 2.160 . S
Co591 O597 2.058 . S
Co591 O607 2.057 . S
Co591 O622 2.037 . S
Co591 N626 2.145 . S
Co591 N647 2.257 . S
O592 Co590 2.143 . S
O592 Co591 2.160 . S
C593 O594 1.278 . S
C593 O601 1.224 . S
O594 C593 1.278 . S
C595 O596 1.245 . S
C595 O607 1.232 . S
O596 C595 1.245 . S
O597 Co591 2.058 . S
O597 C623 1.269 . S
O598 Co590 2.074 . S
O598 C623 1.257 . S
H599 C624 0.930 . S
H600 C630 0.930 . S
O601 Co590 2.093 . S
O601 C593 1.224 . S
H602 C634 0.929 . S
H603 C636 0.930 . S
H604 C637 0.930 . S
H605 C635 0.929 . S
H606 C638 0.928 . S
O607 Co591 2.057 . S
O607 C595 1.232 . S
H608 C627 0.929 . S
H609 C628 0.929 . S
H610 C640 0.931 . S
H611 C632 0.929 . S
H612 C641 0.930 . S
H613 C633 0.931 . S
O614 Co590 2.097 . S
O614 C642 1.214 . S
H615 C643 0.929 . S
H616 C644 0.929 . S
H617 C645 0.930 . S
H618 C646 0.929 . S
H619 C648 0.930 . S
H620 C625 0.930 . S
H621 C629 0.930 . S
O622 Co591 2.037 . S
O622 C642 1.234 . S
C623 O597 1.269 . S
C623 O598 1.257 . S
C624 H599 0.930 . S
C624 C627 1.388 . S
C624 C629 1.418 . S
C625 H620 0.930 . S
C625 C628 1.404 . S
C625 C629 1.353 . S
N626 Co591 2.145 . S
N626 C627 1.397 . S
N626 C628 1.334 . S
C627 H608 0.929 . S
C627 C624 1.388 . S
C627 N626 1.397 . S
C628 H609 0.929 . S
C628 C625 1.404 . S
C628 N626 1.334 . S
C629 H621 0.930 . S
C629 C624 1.418 . S
C629 C625 1.353 . S
C630 H600 0.930 . S
C630 N631 1.330 . S
C630 C632 1.446 . S
N631 Co590 2.151 . S
N631 C630 1.330 . S
N631 C635 1.418 . S
C632 H611 0.929 . S
C632 C630 1.446 . S
C632 C633 1.332 . S
C633 H613 0.931 . S
C633 C632 1.332 . S
C633 C634 1.267 . S
C634 H602 0.929 . S
C634 C633 1.267 . S
C634 C635 1.251 . S
C635 H605 0.929 . S
C635 N631 1.418 . S
C635 C634 1.251 . S
C636 H603 0.930 . S
C636 C638 1.406 . S
C636 C641 1.261 . S
C637 H604 0.930 . S
C637 N639 1.325 . S
C637 C640 1.357 . S
C638 H606 0.928 . S
C638 C636 1.406 . S
C638 N639 1.261 . S
N639 Co590 2.214 . S
N639 C637 1.325 . S
N639 C638 1.261 . S
C640 H610 0.931 . S
C640 C637 1.357 . S
C640 C641 1.312 . S
C641 H612 0.930 . S
C641 C636 1.261 . S
C641 C640 1.312 . S
C642 O614 1.214 . S
C642 O622 1.234 . S
C643 H615 0.929 . S
C643 C646 1.391 . S
C643 C648 1.391 . S
C644 H616 0.929 . S
C644 C645 1.390 . S
C644 N647 1.391 . S
C645 H617 0.930 . S
C645 C644 1.390 . S
C645 C646 1.392 . S
C646 H618 0.929 . S
C646 C643 1.391 . S
C646 C645 1.392 . S
N647 Co591 2.257 . S
N647 C644 1.391 . S
N647 C648 1.388 . S
C648 H619 0.930 . S
C648 C643 1.391 . S
C648 N647 1.388 . S
Co649 O651 2.143 . S
Co649 O657 2.074 . S
Co649 O660 2.093 . S
Co649 O673 2.097 . S
Co649 N690 2.151 . S
Co649 N698 2.214 . S
Co650 O651 2.160 . S
Co650 O656 2.058 . S
Co650 O666 2.057 1_455 S
Co650 O681 2.037 . S
Co650 N685 2.145 1_455 S
Co650 N706 2.257 1_455 S
O651 Co649 2.143 . S
O651 Co650 2.160 . S
C652 O653 1.278 . S
C652 O660 1.224 1_655 S
O653 C652 1.278 . S
C654 O655 1.245 1_655 S
C654 O666 1.232 . S
O655 C654 1.245 1_455 S
O656 Co650 2.058 . S
O656 C682 1.269 . S
O657 Co649 2.074 . S
O657 C682 1.257 . S
H658 C683 0.930 1_455 S
H659 C689 0.930 . S
O660 Co649 2.093 . S
O660 C652 1.224 1_455 S
H661 C693 0.929 . S
H662 C695 0.930 . S
H663 C696 0.930 . S
H664 C694 0.929 . S
H665 C697 0.928 . S
O666 Co650 2.057 1_655 S
O666 C654 1.232 . S
H667 C686 0.929 . S
H668 C687 0.929 . S
H669 C699 0.931 . S
H670 C691 0.929 . S
H671 C700 0.930 . S
H672 C692 0.931 . S
O673 Co649 2.097 . S
O673 C701 1.214 . S
H674 C702 0.929 . S
H675 C703 0.929 . S
H676 C704 0.930 . S
H677 C705 0.929 . S
H678 C707 0.930 . S
H679 C684 0.930 . S
H680 C688 0.930 . S
O681 Co650 2.037 . S
O681 C701 1.234 . S
C682 O656 1.269 . S
C682 O657 1.257 . S
C683 H658 0.930 1_655 S
C683 C686 1.388 1_655 S
C683 C688 1.418 . S
C684 H679 0.930 . S
C684 C687 1.404 . S
C684 C688 1.353 . S
N685 Co650 2.145 1_655 S
N685 C686 1.397 1_655 S
N685 C687 1.334 . S
C686 H667 0.929 . S
C686 C683 1.388 1_455 S
C686 N685 1.397 1_455 S
C687 H668 0.929 . S
C687 C684 1.404 . S
C687 N685 1.334 . S
C688 H680 0.930 . S
C688 C683 1.418 . S
C688 C684 1.353 . S
C689 H659 0.930 . S
C689 N690 1.330 . S
C689 C691 1.446 . S
N690 Co649 2.151 . S
N690 C689 1.330 . S
N690 C694 1.418 . S
C691 H670 0.929 . S
C691 C689 1.446 . S
C691 C692 1.332 . S
C692 H672 0.931 . S
C692 C691 1.332 . S
C692 C693 1.267 . S
C693 H661 0.929 . S
C693 C692 1.267 . S
C693 C694 1.251 . S
C694 H664 0.929 . S
C694 N690 1.418 . S
C694 C693 1.251 . S
C695 H662 0.930 . S
C695 C697 1.406 . S
C695 C700 1.261 . S
C696 H663 0.930 . S
C696 N698 1.325 . S
C696 C699 1.357 . S
C697 H665 0.928 . S
C697 C695 1.406 . S
C697 N698 1.261 . S
N698 Co649 2.214 . S
N698 C696 1.325 . S
N698 C697 1.261 . S
C699 H669 0.931 . S
C699 C696 1.357 . S
C699 C700 1.312 . S
C700 H671 0.930 . S
C700 C695 1.261 . S
C700 C699 1.312 . S
C701 O673 1.214 . S
C701 O681 1.234 . S
C702 H674 0.929 . S
C702 C705 1.391 . S
C702 C707 1.391 . S
C703 H675 0.929 . S
C703 C704 1.390 . S
C703 N706 1.391 . S
C704 H676 0.930 . S
C704 C703 1.390 . S
C704 C705 1.392 . S
C705 H677 0.929 . S
C705 C702 1.391 . S
C705 C704 1.392 . S
N706 Co650 2.257 1_655 S
N706 C703 1.391 . S
N706 C707 1.388 . S
C707 H678 0.930 . S
C707 C702 1.391 . S
C707 N706 1.388 . S
Co708 O710 2.143 . S
Co708 O716 2.074 . S
Co708 O719 2.093 . S
Co708 O732 2.097 . S
Co708 N749 2.151 . S
Co708 N757 2.214 . S
Co709 O710 2.160 1_556 S
Co709 O715 2.058 1_556 S
Co709 O725 2.057 . S
Co709 O740 2.037 1_556 S
Co709 N744 2.145 . S
Co709 N765 2.257 . S
O710 Co708 2.143 . S
O710 Co709 2.160 1_554 S
C711 O712 1.278 . S
C711 O719 1.224 1_556 S
O712 C711 1.278 . S
C713 O714 1.245 . S
C713 O725 1.232 . S
O714 C713 1.245 . S
O715 Co709 2.058 1_554 S
O715 C741 1.269 . S
O716 Co708 2.074 . S
O716 C741 1.257 . S
H717 C742 0.930 1_554 S
H718 C748 0.930 . S
O719 Co708 2.093 . S
O719 C711 1.224 1_554 S
H720 C752 0.929 . S
H721 C754 0.930 . S
H722 C755 0.930 . S
H723 C753 0.929 . S
H724 C756 0.928 . S
O725 Co709 2.057 . S
O725 C713 1.232 . S
H726 C745 0.944 . S
H727 C746 0.929 . S
H728 C758 0.931 . S
H729 C750 0.929 . S
H730 C759 0.930 . S
H731 C751 0.931 . S
O732 Co708 2.097 . S
O732 C760 1.214 . S
H733 C761 0.929 . S
H734 C762 0.929 . S
H735 C763 0.930 . S
H736 C764 0.929 . S
H737 C766 0.930 . S
H738 C743 0.930 . S
H739 C747 0.930 . S
O740 Co709 2.037 1_554 S
O740 C760 1.234 . S
C741 O715 1.269 . S
C741 O716 1.257 . S
C742 H717 0.930 1_556 S
C742 C745 1.386 1_556 S
C742 C747 1.418 . S
C743 H738 0.930 . S
C743 C746 1.404 . S
C743 C747 1.353 . S
N744 Co709 2.145 . S
N744 C745 1.384 1_556 S
N744 C746 1.334 . S
C745 H726 0.944 . S
C745 C742 1.386 1_554 S
C745 N744 1.384 1_554 S
C746 H727 0.929 . S
C746 C743 1.404 . S
C746 N744 1.334 . S
C747 H739 0.930 . S
C747 C742 1.418 . S
C747 C743 1.353 . S
C748 H718 0.930 . S
C748 N749 1.330 . S
C748 C750 1.446 . S
N749 Co708 2.151 . S
N749 C748 1.330 . S
N749 C753 1.418 . S
C750 H729 0.929 . S
C750 C748 1.446 . S
C750 C751 1.332 . S
C751 H731 0.931 . S
C751 C750 1.332 . S
C751 C752 1.267 . S
C752 H720 0.929 . S
C752 C751 1.267 . S
C752 C753 1.251 . S
C753 H723 0.929 . S
C753 N749 1.418 . S
C753 C752 1.251 . S
C754 H721 0.930 . S
C754 C756 1.406 . S
C754 C759 1.261 . S
C755 H722 0.930 . S
C755 N757 1.325 . S
C755 C758 1.357 . S
C756 H724 0.928 . S
C756 C754 1.406 . S
C756 N757 1.261 . S
N757 Co708 2.214 . S
N757 C755 1.325 . S
N757 C756 1.261 . S
C758 H728 0.931 . S
C758 C755 1.357 . S
C758 C759 1.312 . S
C759 H730 0.930 . S
C759 C754 1.261 . S
C759 C758 1.312 . S
C760 O732 1.214 . S
C760 O740 1.234 . S
C761 H733 0.929 . S
C761 C764 1.391 . S
C761 C766 1.391 . S
C762 H734 0.929 . S
C762 C763 1.390 . S
C762 N765 1.391 . S
C763 H735 0.930 . S
C763 C762 1.390 . S
C763 C764 1.392 . S
C764 H736 0.929 . S
C764 C761 1.391 . S
C764 C763 1.392 . S
N765 Co709 2.257 . S
N765 C762 1.391 . S
N765 C766 1.388 . S
C766 H737 0.930 . S
C766 C761 1.391 . S
C766 N765 1.388 . S
Co767 O769 2.143 . S
Co767 O775 2.074 . S
Co767 O778 2.093 . S
Co767 O791 2.097 . S
Co767 N808 2.151 . S
Co767 N816 2.214 . S
Co768 O769 2.160 . S
Co768 O774 2.058 . S
Co768 O784 2.057 . S
Co768 O799 2.037 . S
Co768 N803 2.145 . S
Co768 N824 2.257 . S
O769 Co767 2.143 . S
O769 Co768 2.160 . S
C770 O771 1.278 . S
C770 O778 1.224 . S
O771 C770 1.278 . S
C772 O773 1.245 . S
C772 O784 1.232 . S
O773 C772 1.245 . S
O774 Co768 2.058 . S
O774 C800 1.269 . S
O775 Co767 2.074 . S
O775 C800 1.257 . S
H776 C801 0.930 . S
H777 C807 0.930 . S
O778 Co767 2.093 . S
O778 C770 1.224 . S
H779 C811 0.929 . S
H780 C813 0.930 . S
H781 C814 0.930 . S
H782 C812 0.929 . S
H783 C815 0.928 . S
O784 Co768 2.057 . S
O784 C772 1.232 . S
H785 C804 0.929 . S
H786 C805 0.929 . S
H787 C817 0.931 . S
H788 C809 0.929 . S
H789 C818 0.925 1_455 S
H790 C810 0.931 . S
O791 Co767 2.097 . S
O791 C819 1.214 . S
H792 C820 0.929 . S
H793 C821 0.929 . S
H794 C822 0.930 . S
H795 C823 0.929 . S
H796 C825 0.930 . S
H797 C802 0.930 . S
H798 C806 0.930 . S
O799 Co768 2.037 . S
O799 C819 1.234 . S
C800 O774 1.269 . S
C800 O775 1.257 . S
C801 H776 0.930 . S
C801 C804 1.388 . S
C801 C806 1.418 . S
C802 H797 0.930 . S
C802 C805 1.404 . S
C802 C806 1.353 . S
N803 Co768 2.145 . S
N803 C804 1.397 . S
N803 C805 1.334 . S
C804 H785 0.929 . S
C804 C801 1.388 . S
C804 N803 1.397 . S
C805 H786 0.929 . S
C805 C802 1.404 . S
C805 N803 1.334 . S
C806 H798 0.930 . S
C806 C801 1.418 . S
C806 C802 1.353 . S
C807 H777 0.930 . S
C807 N808 1.330 . S
C807 C809 1.446 . S
N808 Co767 2.151 . S
N808 C807 1.330 . S
N808 C812 1.418 . S
C809 H788 0.929 . S
C809 C807 1.446 . S
C809 C810 1.332 . S
C810 H790 0.931 . S
C810 C809 1.332 . S
C810 C811 1.267 . S
C811 H779 0.929 . S
C811 C810 1.267 . S
C811 C812 1.251 . S
C812 H782 0.929 . S
C812 N808 1.418 . S
C812 C811 1.251 . S
C813 H780 0.930 . S
C813 C815 1.406 . S
C813 C818 1.261 . S
C814 H781 0.930 . S
C814 N816 1.325 . S
C814 C817 1.357 . S
C815 H783 0.928 . S
C815 C813 1.406 . S
C815 N816 1.261 . S
N816 Co767 2.214 . S
N816 C814 1.325 . S
N816 C815 1.261 . S
C817 H787 0.931 . S
C817 C814 1.357 . S
C817 C818 1.312 . S
C818 H789 0.925 1_655 S
C818 C813 1.261 . S
C818 C817 1.312 . S
C819 O791 1.214 . S
C819 O799 1.234 . S
C820 H792 0.929 . S
C820 C823 1.391 . S
C820 C825 1.391 . S
C821 H793 0.929 . S
C821 C822 1.390 . S
C821 N824 1.391 . S
C822 H794 0.930 . S
C822 C821 1.390 . S
C822 C823 1.392 . S
C823 H795 0.929 . S
C823 C820 1.391 . S
C823 C822 1.392 . S
N824 Co768 2.257 . S
N824 C821 1.391 . S
N824 C825 1.388 . S
C825 H796 0.930 . S
C825 C820 1.391 . S
C825 N824 1.388 . S
Co826 O828 2.143 . S
Co826 O834 2.074 . S
Co826 O837 2.093 . S
Co826 O850 2.097 . S
Co826 N867 2.151 . S
Co826 N875 2.214 . S
Co827 O828 2.160 . S
Co827 O833 2.058 . S
Co827 O843 2.057 . S
Co827 O858 2.037 . S
Co827 N862 2.145 . S
Co827 N883 2.257 . S
O828 Co826 2.143 . S
O828 Co827 2.160 . S
C829 O830 1.278 . S
C829 O837 1.224 . S
O830 C829 1.278 . S
C831 O832 1.245 . S
C831 O843 1.232 . S
O832 C831 1.245 . S
O833 Co827 2.058 . S
O833 C859 1.269 . S
O834 Co826 2.074 . S
O834 C859 1.257 . S
H835 C860 0.930 . S
H836 C866 0.930 . S
O837 Co826 2.093 . S
O837 C829 1.224 . S
H838 C870 0.929 . S
H839 C872 0.930 . S
H840 C873 0.930 . S
H841 C871 0.929 . S
H842 C874 0.928 . S
O843 Co827 2.057 . S
O843 C831 1.232 . S
H844 C863 0.929 . S
H845 C864 0.929 . S
H846 C876 0.931 . S
H847 C868 0.929 . S
H848 C877 0.930 . S
H849 C869 0.931 . S
O850 Co826 2.097 . S
O850 C878 1.214 . S
H851 C879 0.929 . S
H852 C880 0.929 . S
H853 C881 0.930 . S
H854 C882 0.929 . S
H855 C884 0.930 . S
H856 C861 0.930 . S
H857 C865 0.930 . S
O858 Co827 2.037 . S
O858 C878 1.234 . S
C859 O833 1.269 . S
C859 O834 1.257 . S
C860 H835 0.930 . S
C860 C863 1.388 . S
C860 C865 1.418 . S
C861 H856 0.930 . S
C861 C864 1.404 . S
C861 C865 1.353 . S
N862 Co827 2.145 . S
N862 C863 1.397 . S
N862 C864 1.334 . S
C863 H844 0.929 . S
C863 C860 1.388 . S
C863 N862 1.397 . S
C864 H845 0.929 . S
C864 C861 1.404 . S
C864 N862 1.334 . S
C865 H857 0.930 . S
C865 C860 1.418 . S
C865 C861 1.353 . S
C866 H836 0.930 . S
C866 N867 1.330 . S
C866 C868 1.446 . S
N867 Co826 2.151 . S
N867 C866 1.330 . S
N867 C871 1.418 . S
C868 H847 0.929 . S
C868 C866 1.446 . S
C868 C869 1.332 . S
C869 H849 0.931 . S
C869 C868 1.332 . S
C869 C870 1.267 . S
C870 H838 0.929 . S
C870 C869 1.267 . S
C870 C871 1.251 . S
C871 H841 0.929 . S
C871 N867 1.418 . S
C871 C870 1.251 . S
C872 H839 0.930 . S
C872 C874 1.406 . S
C872 C877 1.261 . S
C873 H840 0.930 . S
C873 N875 1.325 . S
C873 C876 1.357 . S
C874 H842 0.928 . S
C874 C872 1.406 . S
C874 N875 1.261 . S
N875 Co826 2.214 . S
N875 C873 1.325 . S
N875 C874 1.261 . S
C876 H846 0.931 . S
C876 C873 1.357 . S
C876 C877 1.312 . S
C877 H848 0.930 . S
C877 C872 1.261 . S
C877 C876 1.312 . S
C878 O850 1.214 . S
C878 O858 1.234 . S
C879 H851 0.929 . S
C879 C882 1.391 . S
C879 C884 1.391 . S
C880 H852 0.929 . S
C880 C881 1.390 . S
C880 N883 1.391 . S
C881 H853 0.930 . S
C881 C880 1.390 . S
C881 C882 1.392 . S
C882 H854 0.929 . S
C882 C879 1.391 . S
C882 C881 1.392 . S
N883 Co827 2.257 . S
N883 C880 1.391 . S
N883 C884 1.388 . S
C884 H855 0.930 . S
C884 C879 1.391 . S
C884 N883 1.388 . S
Co885 O887 2.143 . S
Co885 O893 2.074 . S
Co885 O896 2.093 . S
Co885 O909 2.097 . S
Co885 N926 2.151 . S
Co885 N934 2.214 . S
Co886 O887 2.160 . S
Co886 O892 2.058 . S
Co886 O902 2.057 . S
Co886 O917 2.037 . S
Co886 N921 2.145 . S
Co886 N942 2.257 . S
O887 Co885 2.143 . S
O887 Co886 2.160 . S
C888 O889 1.278 . S
C888 O896 1.224 . S
O889 C888 1.278 . S
C890 O891 1.245 . S
C890 O902 1.232 . S
O891 C890 1.245 . S
O892 Co886 2.058 . S
O892 C918 1.269 . S
O893 Co885 2.074 . S
O893 C918 1.257 . S
H894 C919 0.930 . S
H895 C925 0.930 . S
O896 Co885 2.093 . S
O896 C888 1.224 . S
H897 C929 0.929 . S
H898 C931 0.930 . S
H899 C932 0.930 . S
H900 C930 0.929 . S
H901 C933 0.928 . S
O902 Co886 2.057 . S
O902 C890 1.232 . S
H903 C922 0.929 . S
H904 C923 0.929 . S
H905 C935 0.931 . S
H906 C927 0.929 . S
H907 C936 0.930 . S
H908 C928 0.931 . S
O909 Co885 2.097 . S
O909 C937 1.214 . S
H910 C938 0.929 . S
H911 C939 0.929 . S
H912 C940 0.930 . S
H913 C941 0.929 . S
H914 C943 0.930 . S
H915 C920 0.930 . S
H916 C924 0.930 . S
O917 Co886 2.037 . S
O917 C937 1.234 . S
C918 O892 1.269 . S
C918 O893 1.257 . S
C919 H894 0.930 . S
C919 C922 1.388 . S
C919 C924 1.418 . S
C920 H915 0.930 . S
C920 C923 1.404 . S
C920 C924 1.353 . S
N921 Co886 2.145 . S
N921 C922 1.397 . S
N921 C923 1.334 . S
C922 H903 0.929 . S
C922 C919 1.388 . S
C922 N921 1.397 . S
C923 H904 0.929 . S
C923 C920 1.404 . S
C923 N921 1.334 . S
C924 H916 0.930 . S
C924 C919 1.418 . S
C924 C920 1.353 . S
C925 H895 0.930 . S
C925 N926 1.330 . S
C925 C927 1.446 . S
N926 Co885 2.151 . S
N926 C925 1.330 . S
N926 C930 1.418 . S
C927 H906 0.929 . S
C927 C925 1.446 . S
C927 C928 1.332 . S
C928 H908 0.931 . S
C928 C927 1.332 . S
C928 C929 1.267 . S
C929 H897 0.929 . S
C929 C928 1.267 . S
C929 C930 1.251 . S
C930 H900 0.929 . S
C930 N926 1.418 . S
C930 C929 1.251 . S
C931 H898 0.930 . S
C931 C933 1.406 . S
C931 C936 1.261 . S
C932 H899 0.930 . S
C932 N934 1.325 . S
C932 C935 1.357 . S
C933 H901 0.928 . S
C933 C931 1.406 . S
C933 N934 1.261 . S
N934 Co885 2.214 . S
N934 C932 1.325 . S
N934 C933 1.261 . S
C935 H905 0.931 . S
C935 C932 1.357 . S
C935 C936 1.312 . S
C936 H907 0.930 . S
C936 C931 1.261 . S
C936 C935 1.312 . S
C937 O909 1.214 . S
C937 O917 1.234 . S
C938 H910 0.929 . S
C938 C941 1.391 . S
C938 C943 1.391 . S
C939 H911 0.929 . S
C939 C940 1.390 . S
C939 N942 1.391 . S
C940 H912 0.930 . S
C940 C939 1.390 . S
C940 C941 1.392 . S
C941 H913 0.929 . S
C941 C938 1.391 . S
C941 C940 1.392 . S
N942 Co886 2.257 . S
N942 C939 1.391 . S
N942 C943 1.388 . S
C943 H914 0.930 . S
C943 C938 1.391 . S
C943 N942 1.388 . S
H944 C952 0.950 . S
H945 C957 0.950 . S
H946 C954 0.950 . S
H947 C956 0.950 . S
H948 C958 0.950 . S
H949 C960 0.950 . S
H950 C962 0.950 . S
H951 C963 0.950 . S
C952 H944 0.950 . S
C952 C953 1.386 . S
C952 C954 1.391 . S
C953 C952 1.386 . S
C953 C957 1.393 . S
C954 H946 0.950 . S
C954 C952 1.391 . S
C954 C955 1.400 . S
C955 C954 1.400 . S
C955 C956 1.398 . S
C955 C961 1.491 . S
C956 H947 0.950 . S
C956 C955 1.398 . S
C956 C957 1.391 . S
C957 H945 0.950 . S
C957 C953 1.393 . S
C957 C956 1.391 . S
C958 H948 0.950 . S
C958 C959 1.386 . S
C958 C960 1.391 . S
C959 C958 1.386 . S
C959 C963 1.393 . S
C960 H949 0.950 . S
C960 C958 1.391 . S
C960 C961 1.400 . S
C961 C955 1.491 . S
C961 C960 1.400 . S
C961 C962 1.398 . S
C962 H950 0.950 . S
C962 C961 1.398 . S
C962 C963 1.391 . S
C963 H951 0.950 . S
C963 C959 1.393 . S
C963 C962 1.391 . S
H964 C972 0.950 . S
H965 C977 0.950 . S
H966 C974 0.950 . S
H967 C976 0.950 . S
H968 C978 0.950 . S
H969 C980 0.950 . S
H970 C982 0.950 . S
H971 C983 0.950 . S
C972 H964 0.950 . S
C972 C973 1.386 . S
C972 C974 1.391 . S
C973 C972 1.386 . S
C973 C977 1.393 . S
C974 H966 0.950 . S
C974 C972 1.391 . S
C974 C975 1.400 . S
C975 C974 1.400 . S
C975 C976 1.398 . S
C975 C981 1.491 . S
C976 H967 0.950 . S
C976 C975 1.398 . S
C976 C977 1.391 . S
C977 H965 0.950 . S
C977 C973 1.393 . S
C977 C976 1.391 . S
C978 H968 0.950 . S
C978 C979 1.386 . S
C978 C980 1.391 . S
C979 C978 1.386 . S
C979 C983 1.393 . S
C980 H969 0.950 . S
C980 C978 1.391 . S
C980 C981 1.400 . S
C981 C975 1.491 . S
C981 C980 1.400 . S
C981 C982 1.398 . S
C982 H970 0.950 . S
C982 C981 1.398 . S
C982 C983 1.391 . S
C983 H971 0.950 . S
C983 C979 1.393 . S
C983 C982 1.391 . S
H984 C992 0.950 . S
H985 C997 0.950 . S
H986 C994 0.950 . S
H987 C996 0.950 . S
H988 C998 0.950 . S
H989 C1000 0.950 . S
H990 C1002 0.950 . S
H991 C1003 0.950 . S
C992 H984 0.950 . S
C992 C993 1.386 . S
C992 C994 1.391 . S
C993 C992 1.386 . S
C993 C997 1.393 . S
C994 H986 0.950 . S
C994 C992 1.391 . S
C994 C995 1.400 . S
C995 C994 1.400 . S
C995 C996 1.398 . S
C995 C1001 1.491 . S
C996 H987 0.950 . S
C996 C995 1.398 . S
C996 C997 1.391 . S
C997 H985 0.950 . S
C997 C993 1.393 . S
C997 C996 1.391 . S
C998 H988 0.950 . S
C998 C999 1.386 . S
C998 C1000 1.391 . S
C999 C998 1.386 . S
C999 C1003 1.393 . S
C1000 H989 0.950 . S
C1000 C998 1.391 . S
C1000 C1001 1.400 . S
C1001 C995 1.491 . S
C1001 C1000 1.400 . S
C1001 C1002 1.398 . S
C1002 H990 0.950 . S
C1002 C1001 1.398 . S
C1002 C1003 1.391 . S
C1003 H991 0.950 . S
C1003 C999 1.393 . S
C1003 C1002 1.391 . S
H1004 C1012 0.950 . S
H1005 C1017 0.950 . S
H1006 C1014 0.950 . S
H1007 C1016 0.950 . S
H1008 C1018 0.950 . S
H1009 C1020 0.950 . S
H1010 C1022 0.950 . S
H1011 C1023 0.950 . S
C1012 H1004 0.950 . S
C1012 C1013 1.386 . S
C1012 C1014 1.391 . S
C1013 C1012 1.386 . S
C1013 C1017 1.393 . S
C1014 H1006 0.950 . S
C1014 C1012 1.391 . S
C1014 C1015 1.400 . S
C1015 C1014 1.400 . S
C1015 C1016 1.398 . S
C1015 C1021 1.491 . S
C1016 H1007 0.950 . S
C1016 C1015 1.398 . S
C1016 C1017 1.391 . S
C1017 H1005 0.950 . S
C1017 C1013 1.393 . S
C1017 C1016 1.391 . S
C1018 H1008 0.950 . S
C1018 C1019 1.386 . S
C1018 C1020 1.391 . S
C1019 C1018 1.386 . S
C1019 C1023 1.393 . S
C1020 H1009 0.950 . S
C1020 C1018 1.391 . S
C1020 C1021 1.400 . S
C1021 C1015 1.491 . S
C1021 C1020 1.400 . S
C1021 C1022 1.398 . S
C1022 H1010 0.950 . S
C1022 C1021 1.398 . S
C1022 C1023 1.391 . S
C1023 H1011 0.950 . S
C1023 C1019 1.393 . S
C1023 C1022 1.391 . S
H1024 C1032 0.950 . S
H1025 C1037 0.950 . S
H1026 C1034 0.950 . S
H1027 C1036 0.950 . S
H1028 C1038 0.950 . S
H1029 C1040 0.950 . S
H1030 C1042 0.950 . S
H1031 C1043 0.950 . S
C1032 H1024 0.950 . S
C1032 C1033 1.386 . S
C1032 C1034 1.391 . S
C1033 C1032 1.386 . S
C1033 C1037 1.393 . S
C1034 H1026 0.950 . S
C1034 C1032 1.391 . S
C1034 C1035 1.400 . S
C1035 C1034 1.400 . S
C1035 C1036 1.398 . S
C1035 C1041 1.491 . S
C1036 H1027 0.950 . S
C1036 C1035 1.398 . S
C1036 C1037 1.391 . S
C1037 H1025 0.950 . S
C1037 C1033 1.393 . S
C1037 C1036 1.391 . S
C1038 H1028 0.950 . S
C1038 C1039 1.386 . S
C1038 C1040 1.391 . S
C1039 C1038 1.386 . S
C1039 C1043 1.393 . S
C1040 H1029 0.950 . S
C1040 C1038 1.391 . S
C1040 C1041 1.400 . S
C1041 C1035 1.491 . S
C1041 C1040 1.400 . S
C1041 C1042 1.398 . S
C1042 H1030 0.950 . S
C1042 C1041 1.398 . S
C1042 C1043 1.391 . S
C1043 H1031 0.950 . S
C1043 C1039 1.393 . S
C1043 C1042 1.391 . S
H1044 C1052 0.950 . S
H1045 C1057 0.950 . S
H1046 C1054 0.950 . S
H1047 C1056 0.950 . S
H1048 C1058 0.950 . S
H1049 C1060 0.950 . S
H1050 C1062 0.950 . S
H1051 C1063 0.950 . S
C1052 H1044 0.950 . S
C1052 C1053 1.386 . S
C1052 C1054 1.391 . S
C1053 C1052 1.386 . S
C1053 C1057 1.393 . S
C1054 H1046 0.950 . S
C1054 C1052 1.391 . S
C1054 C1055 1.400 . S
C1055 C1054 1.400 . S
C1055 C1056 1.398 . S
C1055 C1061 1.491 . S
C1056 H1047 0.950 . S
C1056 C1055 1.398 . S
C1056 C1057 1.391 . S
C1057 H1045 0.950 . S
C1057 C1053 1.393 . S
C1057 C1056 1.391 . S
C1058 H1048 0.950 . S
C1058 C1059 1.386 . S
C1058 C1060 1.391 . S
C1059 C1058 1.386 . S
C1059 C1063 1.393 . S
C1060 H1049 0.950 . S
C1060 C1058 1.391 . S
C1060 C1061 1.400 . S
C1061 C1055 1.491 . S
C1061 C1060 1.400 . S
C1061 C1062 1.398 . S
C1062 H1050 0.950 . S
C1062 C1061 1.398 . S
C1062 C1063 1.391 . S
C1063 H1051 0.950 . S
C1063 C1059 1.393 . S
C1063 C1062 1.391 . S
H1064 C1072 0.950 1_455 S
H1065 C1077 0.950 . S
H1066 C1074 0.950 . S
H1067 C1076 0.950 . S
H1068 C1078 0.950 . S
H1069 C1080 0.950 . S
H1070 C1082 0.950 . S
H1071 C1083 0.950 . S
C1072 H1064 0.950 1_655 S
C1072 C1073 1.386 . S
C1072 C1074 1.391 . S
C1073 C1072 1.386 . S
C1073 C1077 1.393 . S
C1074 H1066 0.950 . S
C1074 C1072 1.391 . S
C1074 C1075 1.400 . S
C1075 C1074 1.400 . S
C1075 C1076 1.398 . S
C1075 C1081 1.491 . S
C1076 H1067 0.950 . S
C1076 C1075 1.398 . S
C1076 C1077 1.391 . S
C1077 H1065 0.950 . S
C1077 C1073 1.393 . S
C1077 C1076 1.391 . S
C1078 H1068 0.950 . S
C1078 C1079 1.386 . S
C1078 C1080 1.391 . S
C1079 C1078 1.386 . S
C1079 C1083 1.393 . S
C1080 H1069 0.950 . S
C1080 C1078 1.391 . S
C1080 C1081 1.400 . S
C1081 C1075 1.491 . S
C1081 C1080 1.400 . S
C1081 C1082 1.398 . S
C1082 H1070 0.950 . S
C1082 C1081 1.398 . S
C1082 C1083 1.391 . S
C1083 H1071 0.950 . S
C1083 C1079 1.393 . S
C1083 C1082 1.391 . S
H1084 C1092 0.950 . S
H1085 C1097 0.950 . S
H1086 C1094 0.950 . S
H1087 C1096 0.950 . S
H1088 C1098 0.950 . S
H1089 C1100 0.950 . S
H1090 C1102 0.950 . S
H1091 C1103 0.950 . S
C1092 H1084 0.950 . S
C1092 C1093 1.386 . S
C1092 C1094 1.391 . S
C1093 C1092 1.386 . S
C1093 C1097 1.393 . S
C1094 H1086 0.950 . S
C1094 C1092 1.391 . S
C1094 C1095 1.400 . S
C1095 C1094 1.400 . S
C1095 C1096 1.398 . S
C1095 C1101 1.491 . S
C1096 H1087 0.950 . S
C1096 C1095 1.398 . S
C1096 C1097 1.391 . S
C1097 H1085 0.950 . S
C1097 C1093 1.393 . S
C1097 C1096 1.391 . S
C1098 H1088 0.950 . S
C1098 C1099 1.386 . S
C1098 C1100 1.391 . S
C1099 C1098 1.386 . S
C1099 C1103 1.393 . S
C1100 H1089 0.950 . S
C1100 C1098 1.391 . S
C1100 C1101 1.400 . S
C1101 C1095 1.491 . S
C1101 C1100 1.400 . S
C1101 C1102 1.398 . S
C1102 H1090 0.950 . S
C1102 C1101 1.398 . S
C1102 C1103 1.391 . S
C1103 H1091 0.950 . S
C1103 C1099 1.393 . S
C1103 C1102 1.391 . S
H1104 C1112 0.950 . S
H1105 C1117 0.950 . S
H1106 C1114 0.950 . S
H1107 C1116 0.950 . S
H1108 C1118 0.950 . S
H1109 C1120 0.950 . S
H1110 C1122 0.950 . S
H1111 C1123 0.950 . S
C1112 H1104 0.950 . S
C1112 C1113 1.386 . S
C1112 C1114 1.391 . S
C1113 C1112 1.386 . S
C1113 C1117 1.393 . S
C1114 H1106 0.950 . S
C1114 C1112 1.391 . S
C1114 C1115 1.400 . S
C1115 C1114 1.400 . S
C1115 C1116 1.398 . S
C1115 C1121 1.491 . S
C1116 H1107 0.950 . S
C1116 C1115 1.398 . S
C1116 C1117 1.391 . S
C1117 H1105 0.950 . S
C1117 C1113 1.393 . S
C1117 C1116 1.391 . S
C1118 H1108 0.950 . S
C1118 C1119 1.386 . S
C1118 C1120 1.391 . S
C1119 C1118 1.386 . S
C1119 C1123 1.393 . S
C1120 H1109 0.950 . S
C1120 C1118 1.391 . S
C1120 C1121 1.400 . S
C1121 C1115 1.491 . S
C1121 C1120 1.400 . S
C1121 C1122 1.398 . S
C1122 H1110 0.950 . S
C1122 C1121 1.398 . S
C1122 C1123 1.391 . S
C1123 H1111 0.950 . S
C1123 C1119 1.393 . S
C1123 C1122 1.391 . S
H1124 C1132 0.950 . S
H1125 C1137 0.950 . S
H1126 C1134 0.950 . S
H1127 C1136 0.950 . S
H1128 C1138 0.950 1_545 S
H1129 C1140 0.956 . S
H1130 C1142 0.950 . S
H1131 C1143 0.950 . S
C1132 H1124 0.950 . S
C1132 C1133 1.386 1_565 S
C1132 C1134 1.391 . S
C1133 C1132 1.386 1_545 S
C1133 C1137 1.393 1_655 S
C1134 H1126 0.950 . S
C1134 C1132 1.391 . S
C1134 C1135 1.400 . S
C1135 C1134 1.400 . S
C1135 C1136 1.398 1_665 S
C1135 C1141 1.491 . S
C1136 H1127 0.950 . S
C1136 C1135 1.398 1_445 S
C1136 C1137 1.391 . S
C1137 H1125 0.950 . S
C1137 C1133 1.393 1_455 S
C1137 C1136 1.391 . S
C1138 H1128 0.950 1_565 S
C1138 C1139 1.386 1_455 S
C1138 C1140 1.391 1_565 S
C1139 C1138 1.386 1_655 S
C1139 C1143 1.393 . S
C1140 H1129 0.956 . S
C1140 C1138 1.391 1_545 S
C1140 C1141 1.395 1_445 S
C1141 C1135 1.491 . S
C1141 C1140 1.395 1_665 S
C1141 C1142 1.398 . S
C1142 H1130 0.950 . S
C1142 C1141 1.398 . S
C1142 C1143 1.391 . S
C1143 H1131 0.950 . S
C1143 C1139 1.393 . S
C1143 C1142 1.391 . S
H1144 C1152 0.950 . S
H1145 C1157 0.950 . S
H1146 C1154 0.950 1_554 S
H1147 C1156 0.946 1_554 S
H1148 C1158 0.950 . S
H1149 C1160 0.950 . S
H1150 C1162 0.950 . S
H1151 C1163 0.950 . S
C1152 H1144 0.950 . S
C1152 C1153 1.386 . S
C1152 C1154 1.391 . S
C1153 C1152 1.386 . S
C1153 C1157 1.393 . S
C1154 H1146 0.950 1_556 S
C1154 C1152 1.391 . S
C1154 C1155 1.400 1_556 S
C1155 C1154 1.400 1_554 S
C1155 C1156 1.396 1_554 S
C1155 C1161 1.491 . S
C1156 H1147 0.946 1_556 S
C1156 C1155 1.396 1_556 S
C1156 C1157 1.397 . S
C1157 H1145 0.950 . S
C1157 C1153 1.393 . S
C1157 C1156 1.397 . S
C1158 H1148 0.950 . S
C1158 C1159 1.386 . S
C1158 C1160 1.391 . S
C1159 C1158 1.386 . S
C1159 C1163 1.393 . S
C1160 H1149 0.950 . S
C1160 C1158 1.391 . S
C1160 C1161 1.400 . S
C1161 C1155 1.491 . S
C1161 C1160 1.400 . S
C1161 C1162 1.398 . S
C1162 H1150 0.950 . S
C1162 C1161 1.398 . S
C1162 C1163 1.391 . S
C1163 H1151 0.950 . S
C1163 C1159 1.393 . S
C1163 C1162 1.391 . S
H1164 C1172 0.950 . S
H1165 C1177 0.950 . S
H1166 C1174 0.932 1_545 S
H1167 C1176 0.950 . S
H1168 C1178 0.950 . S
H1169 C1180 0.950 . S
H1170 C1182 0.947 1_545 S
H1171 C1183 0.950 1_545 S
C1172 H1164 0.950 . S
C1172 C1173 1.386 . S
C1172 C1174 1.391 . S
C1173 C1172 1.386 . S
C1173 C1177 1.393 . S
C1174 H1166 0.932 1_565 S
C1174 C1172 1.391 . S
C1174 C1175 1.400 . S
C1175 C1174 1.400 . S
C1175 C1176 1.398 . S
C1175 C1181 1.491 . S
C1176 H1167 0.950 . S
C1176 C1175 1.398 . S
C1176 C1177 1.391 . S
C1177 H1165 0.950 . S
C1177 C1173 1.393 . S
C1177 C1176 1.391 . S
C1178 H1168 0.950 . S
C1178 C1179 1.386 . S
C1178 C1180 1.391 . S
C1179 C1178 1.386 . S
C1179 C1183 1.393 . S
C1180 H1169 0.950 . S
C1180 C1178 1.391 . S
C1180 C1181 1.400 . S
C1181 C1175 1.491 . S
C1181 C1180 1.400 . S
C1181 C1182 1.398 . S
C1182 H1170 0.947 1_565 S
C1182 C1181 1.398 . S
C1182 C1183 1.391 . S
C1183 H1171 0.950 1_565 S
C1183 C1179 1.393 . S
C1183 C1182 1.391 . S
H1184 C1192 0.950 . S
H1185 C1197 0.950 . S
H1186 C1194 0.950 . S
H1187 C1196 0.950 . S
H1188 C1198 0.950 . S
H1189 C1200 0.950 . S
H1190 C1202 0.950 . S
H1191 C1203 0.950 . S
C1192 H1184 0.950 . S
C1192 C1193 1.386 . S
C1192 C1194 1.391 . S
C1193 C1192 1.386 . S
C1193 C1197 1.393 . S
C1194 H1186 0.950 . S
C1194 C1192 1.391 . S
C1194 C1195 1.400 . S
C1195 C1194 1.400 . S
C1195 C1196 1.398 . S
C1195 C1201 1.491 . S
C1196 H1187 0.950 . S
C1196 C1195 1.398 . S
C1196 C1197 1.391 . S
C1197 H1185 0.950 . S
C1197 C1193 1.393 . S
C1197 C1196 1.391 . S
C1198 H1188 0.950 . S
C1198 C1199 1.386 . S
C1198 C1200 1.391 . S
C1199 C1198 1.386 . S
C1199 C1203 1.393 . S
C1200 H1189 0.950 . S
C1200 C1198 1.391 . S
C1200 C1201 1.400 . S
C1201 C1195 1.491 . S
C1201 C1200 1.400 . S
C1201 C1202 1.398 . S
C1202 H1190 0.950 . S
C1202 C1201 1.398 . S
C1202 C1203 1.391 . S
C1203 H1191 0.950 . S
C1203 C1199 1.393 . S
C1203 C1202 1.391 . S
H1204 C1212 0.950 . S
H1205 C1217 0.950 . S
H1206 C1214 0.950 . S
H1207 C1216 0.950 . S
H1208 C1218 0.950 . S
H1209 C1220 0.950 . S
H1210 C1222 0.950 . S
H1211 C1223 0.950 . S
C1212 H1204 0.950 . S
C1212 C1213 1.386 1_655 S
C1212 C1214 1.391 . S
C1213 C1212 1.386 1_455 S
C1213 C1217 1.393 . S
C1214 H1206 0.950 . S
C1214 C1212 1.391 . S
C1214 C1215 1.400 1_655 S
C1215 C1214 1.400 1_455 S
C1215 C1216 1.398 . S
C1215 C1221 1.491 . S
C1216 H1207 0.950 . S
C1216 C1215 1.398 . S
C1216 C1217 1.391 . S
C1217 H1205 0.950 . S
C1217 C1213 1.393 . S
C1217 C1216 1.391 . S
C1218 H1208 0.950 . S
C1218 C1219 1.386 . S
C1218 C1220 1.391 . S
C1219 C1218 1.386 . S
C1219 C1223 1.393 1_455 S
C1220 H1209 0.950 . S
C1220 C1218 1.391 . S
C1220 C1221 1.400 . S
C1221 C1215 1.491 . S
C1221 C1220 1.400 . S
C1221 C1222 1.398 1_455 S
C1222 H1210 0.950 . S
C1222 C1221 1.398 1_655 S
C1222 C1223 1.391 . S
C1223 H1211 0.950 . S
C1223 C1219 1.393 1_655 S
C1223 C1222 1.391 . S
H1224 C1232 0.950 . S
H1225 C1237 0.950 . S
H1226 C1234 0.950 . S
H1227 C1236 0.940 1_455 S
H1228 C1238 0.950 . S
H1229 C1240 0.950 . S
H1230 C1242 0.950 . S
H1231 C1243 0.950 . S
C1232 H1224 0.950 . S
C1232 C1233 1.386 . S
C1232 C1234 1.391 . S
C1233 C1232 1.386 . S
C1233 C1237 1.393 . S
C1234 H1226 0.950 . S
C1234 C1232 1.391 . S
C1234 C1235 1.387 1_655 S
C1235 C1234 1.387 1_455 S
C1235 C1236 1.382 1_455 S
C1235 C1241 1.520 . S
C1236 H1227 0.940 1_655 S
C1236 C1235 1.382 1_655 S
C1236 C1237 1.391 . S
C1237 H1225 0.950 . S
C1237 C1233 1.393 . S
C1237 C1236 1.391 . S
C1238 H1228 0.950 . S
C1238 C1239 1.386 . S
C1238 C1240 1.391 . S
C1239 C1238 1.386 . S
C1239 C1243 1.393 . S
C1240 H1229 0.950 . S
C1240 C1238 1.391 . S
C1240 C1241 1.400 . S
C1241 C1235 1.520 . S
C1241 C1240 1.400 . S
C1241 C1242 1.398 . S
C1242 H1230 0.950 . S
C1242 C1241 1.398 . S
C1242 C1243 1.391 . S
C1243 H1231 0.950 . S
C1243 C1239 1.393 . S
C1243 C1242 1.391 . S
H1244 C1252 0.950 . S
H1245 C1257 0.950 . S
H1246 C1254 0.950 . S
H1247 C1256 0.950 . S
H1248 C1258 0.950 . S
H1249 C1260 0.950 . S
H1250 C1262 0.950 . S
H1251 C1263 0.950 . S
C1252 H1244 0.950 . S
C1252 C1253 1.386 1_554 S
C1252 C1254 1.391 . S
C1253 C1252 1.386 1_556 S
C1253 C1257 1.393 . S
C1254 H1246 0.950 . S
C1254 C1252 1.391 . S
C1254 C1255 1.400 1_554 S
C1255 C1254 1.400 1_556 S
C1255 C1256 1.398 . S
C1255 C1261 1.491 . S
C1256 H1247 0.950 . S
C1256 C1255 1.398 . S
C1256 C1257 1.391 . S
C1257 H1245 0.950 . S
C1257 C1253 1.393 . S
C1257 C1256 1.391 . S
C1258 H1248 0.950 . S
C1258 C1259 1.386 . S
C1258 C1260 1.391 . S
C1259 C1258 1.386 . S
C1259 C1263 1.393 1_556 S
C1260 H1249 0.950 . S
C1260 C1258 1.391 . S
C1260 C1261 1.400 . S
C1261 C1255 1.491 . S
C1261 C1260 1.400 . S
C1261 C1262 1.398 1_556 S
C1262 H1250 0.950 . S
C1262 C1261 1.398 1_554 S
C1262 C1263 1.391 . S
C1263 H1251 0.950 . S
C1263 C1259 1.393 1_554 S
C1263 C1262 1.391 . S
H1264 C1272 0.950 . S
H1265 C1277 0.950 . S
H1266 C1274 0.950 . S
H1267 C1276 0.950 . S
H1268 C1278 0.950 . S
H1269 C1280 0.950 . S
H1270 C1282 0.950 . S
H1271 C1283 0.950 . S
C1272 H1264 0.950 . S
C1272 C1273 1.386 . S
C1272 C1274 1.391 . S
C1273 C1272 1.386 . S
C1273 C1277 1.393 . S
C1274 H1266 0.950 . S
C1274 C1272 1.391 . S
C1274 C1275 1.400 . S
C1275 C1274 1.400 . S
C1275 C1276 1.398 . S
C1275 C1281 1.491 . S
C1276 H1267 0.950 . S
C1276 C1275 1.398 . S
C1276 C1277 1.391 . S
C1277 H1265 0.950 . S
C1277 C1273 1.393 . S
C1277 C1276 1.391 . S
C1278 H1268 0.950 . S
C1278 C1279 1.386 . S
C1278 C1280 1.391 . S
C1279 C1278 1.386 . S
C1279 C1283 1.393 . S
C1280 H1269 0.950 . S
C1280 C1278 1.391 . S
C1280 C1281 1.400 . S
C1281 C1275 1.491 . S
C1281 C1280 1.400 . S
C1281 C1282 1.398 . S
C1282 H1270 0.950 . S
C1282 C1281 1.398 . S
C1282 C1283 1.391 . S
C1283 H1271 0.950 . S
C1283 C1279 1.393 . S
C1283 C1282 1.391 . S
H1284 C1292 0.950 . S
H1285 C1297 0.950 . S
H1286 C1294 0.950 . S
H1287 C1296 0.950 . S
H1288 C1298 0.950 . S
H1289 C1300 0.950 . S
H1290 C1302 0.950 . S
H1291 C1303 0.950 . S
C1292 H1284 0.950 . S
C1292 C1293 1.386 . S
C1292 C1294 1.391 . S
C1293 C1292 1.386 . S
C1293 C1297 1.393 . S
C1294 H1286 0.950 . S
C1294 C1292 1.391 . S
C1294 C1295 1.400 . S
C1295 C1294 1.400 . S
C1295 C1296 1.398 . S
C1295 C1301 1.491 . S
C1296 H1287 0.950 . S
C1296 C1295 1.398 . S
C1296 C1297 1.391 . S
C1297 H1285 0.950 . S
C1297 C1293 1.393 . S
C1297 C1296 1.391 . S
C1298 H1288 0.950 . S
C1298 C1299 1.386 . S
C1298 C1300 1.391 . S
C1299 C1298 1.386 . S
C1299 C1303 1.393 . S
C1300 H1289 0.950 . S
C1300 C1298 1.391 . S
C1300 C1301 1.400 . S
C1301 C1295 1.491 . S
C1301 C1300 1.400 . S
C1301 C1302 1.398 . S
C1302 H1290 0.950 . S
C1302 C1301 1.398 . S
C1302 C1303 1.391 . S
C1303 H1291 0.950 . S
C1303 C1299 1.393 . S
C1303 C1302 1.391 . S
H1304 C1312 0.950 . S
H1305 C1317 0.950 . S
H1306 C1314 0.950 . S
H1307 C1316 0.950 . S
H1308 C1318 0.950 . S
H1309 C1320 0.950 . S
H1310 C1322 0.950 . S
H1311 C1323 0.950 . S
C1312 H1304 0.950 . S
C1312 C1313 1.386 . S
C1312 C1314 1.391 . S
C1313 C1312 1.386 . S
C1313 C1317 1.393 . S
C1314 H1306 0.950 . S
C1314 C1312 1.391 . S
C1314 C1315 1.400 . S
C1315 C1314 1.400 . S
C1315 C1316 1.398 . S
C1315 C1321 1.491 . S
C1316 H1307 0.950 . S
C1316 C1315 1.398 . S
C1316 C1317 1.391 . S
C1317 H1305 0.950 . S
C1317 C1313 1.393 . S
C1317 C1316 1.391 . S
C1318 H1308 0.950 . S
C1318 C1319 1.386 . S
C1318 C1320 1.391 1_655 S
C1319 C1318 1.386 . S
C1319 C1323 1.393 . S
C1320 H1309 0.950 . S
C1320 C1318 1.391 1_455 S
C1320 C1321 1.400 . S
C1321 C1315 1.491 . S
C1321 C1320 1.400 . S
C1321 C1322 1.398 . S
C1322 H1310 0.950 . S
C1322 C1321 1.398 . S
C1322 C1323 1.391 1_455 S
C1323 H1311 0.950 . S
C1323 C1319 1.393 . S
C1323 C1322 1.391 1_655 S
H1324 C1332 0.950 . S
H1325 C1337 0.950 . S
H1326 C1334 0.950 . S
H1327 C1336 0.950 1_556 S
H1328 C1338 0.950 . S
H1329 C1340 0.950 1_556 S
H1330 C1342 0.950 . S
H1331 C1343 0.950 . S
C1332 H1324 0.950 . S
C1332 C1333 1.386 1_455 S
C1332 C1334 1.391 . S
C1333 C1332 1.386 1_655 S
C1333 C1337 1.393 1_554 S
C1334 H1326 0.950 . S
C1334 C1332 1.391 . S
C1334 C1335 1.400 1_455 S
C1335 C1334 1.400 1_655 S
C1335 C1336 1.398 . S
C1335 C1341 1.491 . S
C1336 H1327 0.950 1_554 S
C1336 C1335 1.398 . S
C1336 C1337 1.391 1_554 S
C1337 H1325 0.950 . S
C1337 C1333 1.393 1_556 S
C1337 C1336 1.391 1_556 S
C1338 H1328 0.950 . S
C1338 C1339 1.386 . S
C1338 C1340 1.391 . S
C1339 C1338 1.386 . S
C1339 C1343 1.393 1_655 S
C1340 H1329 0.950 1_554 S
C1340 C1338 1.391 . S
C1340 C1341 1.400 . S
C1341 C1335 1.491 . S
C1341 C1340 1.400 . S
C1341 C1342 1.398 1_655 S
C1342 H1330 0.950 . S
C1342 C1341 1.398 1_455 S
C1342 C1343 1.391 . S
C1343 H1331 0.950 . S
C1343 C1339 1.393 1_455 S
C1343 C1342 1.391 . S
H1344 C1352 0.950 . S
H1345 C1357 0.950 . S
H1346 C1354 0.950 . S
H1347 C1356 0.950 . S
H1348 C1358 0.950 . S
H1349 C1360 0.950 . S
H1350 C1362 0.950 . S
H1351 C1363 0.950 . S
C1352 H1344 0.950 . S
C1352 C1353 1.386 . S
C1352 C1354 1.391 . S
C1353 C1352 1.386 . S
C1353 C1357 1.393 . S
C1354 H1346 0.950 . S
C1354 C1352 1.391 . S
C1354 C1355 1.400 . S
C1355 C1354 1.400 . S
C1355 C1356 1.398 . S
C1355 C1361 1.491 . S
C1356 H1347 0.950 . S
C1356 C1355 1.398 . S
C1356 C1357 1.391 . S
C1357 H1345 0.950 . S
C1357 C1353 1.393 . S
C1357 C1356 1.391 . S
C1358 H1348 0.950 . S
C1358 C1359 1.386 . S
C1358 C1360 1.391 . S
C1359 C1358 1.386 . S
C1359 C1363 1.393 . S
C1360 H1349 0.950 . S
C1360 C1358 1.391 . S
C1360 C1361 1.400 . S
C1361 C1355 1.491 . S
C1361 C1360 1.400 . S
C1361 C1362 1.398 . S
C1362 H1350 0.950 . S
C1362 C1361 1.398 . S
C1362 C1363 1.391 . S
C1363 H1351 0.950 . S
C1363 C1359 1.393 . S
C1363 C1362 1.391 . S
H1364 C1372 0.950 . S
H1365 C1377 0.950 . S
H1366 C1374 0.950 . S
H1367 C1376 0.950 . S
H1368 C1378 0.950 . S
H1369 C1380 0.950 1_545 S
H1370 C1382 0.968 . S
H1371 C1383 0.950 . S
C1372 H1364 0.950 . S
C1372 C1373 1.386 . S
C1372 C1374 1.391 . S
C1373 C1372 1.386 . S
C1373 C1377 1.393 . S
C1374 H1366 0.950 . S
C1374 C1372 1.391 . S
C1374 C1375 1.400 . S
C1375 C1374 1.400 . S
C1375 C1376 1.398 . S
C1375 C1381 1.491 . S
C1376 H1367 0.950 . S
C1376 C1375 1.398 . S
C1376 C1377 1.391 . S
C1377 H1365 0.950 . S
C1377 C1373 1.393 . S
C1377 C1376 1.391 . S
C1378 H1368 0.950 . S
C1378 C1379 1.386 . S
C1378 C1380 1.391 . S
C1379 C1378 1.386 . S
C1379 C1383 1.393 . S
C1380 H1369 0.950 1_565 S
C1380 C1378 1.391 . S
C1380 C1381 1.400 1_565 S
C1381 C1375 1.491 . S
C1381 C1380 1.400 1_545 S
C1381 C1382 1.398 1_545 S
C1382 H1370 0.968 . S
C1382 C1381 1.398 1_565 S
C1382 C1383 1.391 . S
C1383 H1371 0.950 . S
C1383 C1379 1.393 . S
C1383 C1382 1.391 . S
H1384 C1392 0.950 . S
H1385 C1397 0.950 . S
H1386 C1394 0.950 . S
H1387 C1396 0.950 . S
H1388 C1398 0.950 . S
H1389 C1400 0.950 . S
H1390 C1402 0.950 . S
H1391 C1403 0.950 . S
C1392 H1384 0.950 . S
C1392 C1393 1.386 1_556 S
C1392 C1394 1.391 . S
C1393 C1392 1.386 1_554 S
C1393 C1397 1.393 . S
C1394 H1386 0.950 . S
C1394 C1392 1.391 . S
C1394 C1395 1.400 1_556 S
C1395 C1394 1.400 1_554 S
C1395 C1396 1.398 . S
C1395 C1401 1.491 . S
C1396 H1387 0.950 . S
C1396 C1395 1.398 . S
C1396 C1397 1.391 . S
C1397 H1385 0.950 . S
C1397 C1393 1.393 . S
C1397 C1396 1.391 . S
C1398 H1388 0.950 . S
C1398 C1399 1.386 1_554 S
C1398 C1400 1.391 . S
C1399 C1398 1.386 1_556 S
C1399 C1403 1.393 . S
C1400 H1389 0.950 . S
C1400 C1398 1.391 . S
C1400 C1401 1.410 . S
C1401 C1395 1.491 . S
C1401 C1400 1.410 . S
C1401 C1402 1.389 1_554 S
C1402 H1390 0.950 . S
C1402 C1401 1.389 1_556 S
C1402 C1403 1.391 . S
C1403 H1391 0.950 . S
C1403 C1399 1.393 . S
C1403 C1402 1.391 . S
H1404 C1412 0.950 . S
H1405 C1417 0.950 . S
H1406 C1414 0.950 . S
H1407 C1416 0.950 . S
H1408 C1418 0.950 . S
H1409 C1420 0.950 . S
H1410 C1422 0.950 . S
H1411 C1423 0.950 . S
C1412 H1404 0.950 . S
C1412 C1413 1.386 . S
C1412 C1414 1.391 . S
C1413 C1412 1.386 . S
C1413 C1417 1.393 . S
C1414 H1406 0.950 . S
C1414 C1412 1.391 . S
C1414 C1415 1.400 . S
C1415 C1414 1.400 . S
C1415 C1416 1.398 . S
C1415 C1421 1.491 1_545 S
C1416 H1407 0.950 . S
C1416 C1415 1.398 . S
C1416 C1417 1.391 . S
C1417 H1405 0.950 . S
C1417 C1413 1.393 . S
C1417 C1416 1.391 . S
C1418 H1408 0.950 . S
C1418 C1419 1.386 . S
C1418 C1420 1.391 . S
C1419 C1418 1.386 . S
C1419 C1423 1.393 . S
C1420 H1409 0.950 . S
C1420 C1418 1.391 . S
C1420 C1421 1.400 . S
C1421 C1415 1.491 1_565 S
C1421 C1420 1.400 . S
C1421 C1422 1.398 . S
C1422 H1410 0.950 . S
C1422 C1421 1.398 . S
C1422 C1423 1.391 . S
C1423 H1411 0.950 . S
C1423 C1419 1.393 . S
C1423 C1422 1.391 . S
H1424 C1432 0.950 1_554 S
H1425 C1437 0.950 . S
H1426 C1434 0.950 1_554 S
H1427 C1436 0.950 . S
H1428 C1438 0.950 . S
H1429 C1440 0.950 . S
H1430 C1442 0.950 1_554 S
H1431 C1443 0.950 1_554 S
C1432 H1424 0.950 1_556 S
C1432 C1433 1.386 . S
C1432 C1434 1.391 . S
C1433 C1432 1.386 . S
C1433 C1437 1.393 . S
C1434 H1426 0.950 1_556 S
C1434 C1432 1.391 . S
C1434 C1435 1.400 . S
C1435 C1434 1.400 . S
C1435 C1436 1.398 . S
C1435 C1441 1.491 . S
C1436 H1427 0.950 . S
C1436 C1435 1.398 . S
C1436 C1437 1.391 . S
C1437 H1425 0.950 . S
C1437 C1433 1.393 . S
C1437 C1436 1.391 . S
C1438 H1428 0.950 . S
C1438 C1439 1.386 . S
C1438 C1440 1.391 . S
C1439 C1438 1.386 . S
C1439 C1443 1.393 . S
C1440 H1429 0.950 . S
C1440 C1438 1.391 . S
C1440 C1441 1.400 . S
C1441 C1435 1.491 . S
C1441 C1440 1.400 . S
C1441 C1442 1.398 . S
C1442 H1430 0.950 1_556 S
C1442 C1441 1.398 . S
C1442 C1443 1.391 . S
C1443 H1431 0.950 1_556 S
C1443 C1439 1.393 . S
C1443 C1442 1.391 . S
H1444 C1452 0.950 . S
H1445 C1457 0.950 . S
H1446 C1454 0.950 . S
H1447 C1456 0.950 . S
H1448 C1458 0.950 . S
H1449 C1460 0.950 . S
H1450 C1462 0.950 . S
H1451 C1463 0.950 . S
C1452 H1444 0.950 . S
C1452 C1453 1.386 . S
C1452 C1454 1.391 . S
C1453 C1452 1.386 . S
C1453 C1457 1.393 . S
C1454 H1446 0.950 . S
C1454 C1452 1.391 . S
C1454 C1455 1.400 . S
C1455 C1454 1.400 . S
C1455 C1456 1.398 . S
C1455 C1461 1.491 . S
C1456 H1447 0.950 . S
C1456 C1455 1.398 . S
C1456 C1457 1.391 . S
C1457 H1445 0.950 . S
C1457 C1453 1.393 . S
C1457 C1456 1.391 . S
C1458 H1448 0.950 . S
C1458 C1459 1.386 . S
C1458 C1460 1.391 . S
C1459 C1458 1.386 . S
C1459 C1463 1.393 . S
C1460 H1449 0.950 . S
C1460 C1458 1.391 . S
C1460 C1461 1.400 . S
C1461 C1455 1.491 . S
C1461 C1460 1.400 . S
C1461 C1462 1.398 . S
C1462 H1450 0.950 . S
C1462 C1461 1.398 . S
C1462 C1463 1.391 . S
C1463 H1451 0.950 . S
C1463 C1459 1.393 . S
C1463 C1462 1.391 . S
H1464 C1472 0.950 . S
H1465 C1477 0.950 . S
H1466 C1474 0.950 . S
H1467 C1476 0.950 . S
H1468 C1478 0.950 . S
H1469 C1480 0.950 . S
H1470 C1482 0.950 . S
H1471 C1483 0.950 . S
C1472 H1464 0.950 . S
C1472 C1473 1.386 . S
C1472 C1474 1.391 . S
C1473 C1472 1.386 . S
C1473 C1477 1.393 . S
C1474 H1466 0.950 . S
C1474 C1472 1.391 . S
C1474 C1475 1.400 . S
C1475 C1474 1.400 . S
C1475 C1476 1.398 . S
C1475 C1481 1.491 . S
C1476 H1467 0.950 . S
C1476 C1475 1.398 . S
C1476 C1477 1.391 . S
C1477 H1465 0.950 . S
C1477 C1473 1.393 . S
C1477 C1476 1.391 . S
C1478 H1468 0.950 . S
C1478 C1479 1.386 . S
C1478 C1480 1.391 . S
C1479 C1478 1.386 . S
C1479 C1483 1.393 . S
C1480 H1469 0.950 . S
C1480 C1478 1.391 . S
C1480 C1481 1.400 . S
C1481 C1475 1.491 . S
C1481 C1480 1.400 . S
C1481 C1482 1.398 . S
C1482 H1470 0.950 . S
C1482 C1481 1.398 . S
C1482 C1483 1.391 . S
C1483 H1471 0.950 . S
C1483 C1479 1.393 . S
C1483 C1482 1.391 . S
H1484 C1492 0.950 . S
H1485 C1497 0.950 . S
H1486 C1494 0.950 . S
H1487 C1496 0.950 . S
H1488 C1498 0.950 . S
H1489 C1500 0.950 . S
H1490 C1502 0.950 . S
H1491 C1503 0.950 . S
C1492 H1484 0.950 . S
C1492 C1493 1.386 . S
C1492 C1494 1.391 . S
C1493 C1492 1.386 . S
C1493 C1497 1.393 . S
C1494 H1486 0.950 . S
C1494 C1492 1.391 . S
C1494 C1495 1.400 1_556 S
C1495 C1494 1.400 1_554 S
C1495 C1496 1.398 . S
C1495 C1501 1.491 . S
C1496 H1487 0.950 . S
C1496 C1495 1.398 . S
C1496 C1497 1.391 1_554 S
C1497 H1485 0.950 . S
C1497 C1493 1.393 . S
C1497 C1496 1.391 1_556 S
C1498 H1488 0.950 . S
C1498 C1499 1.386 . S
C1498 C1500 1.391 . S
C1499 C1498 1.386 . S
C1499 C1503 1.393 . S
C1500 H1489 0.950 . S
C1500 C1498 1.391 . S
C1500 C1501 1.400 . S
C1501 C1495 1.491 . S
C1501 C1500 1.400 . S
C1501 C1502 1.398 . S
C1502 H1490 0.950 . S
C1502 C1501 1.398 . S
C1502 C1503 1.391 . S
C1503 H1491 0.950 . S
C1503 C1499 1.393 . S
C1503 C1502 1.391 . S
H1504 C1512 0.950 . S
H1505 C1517 0.950 . S
H1506 C1514 0.950 . S
H1507 C1516 0.950 . S
H1508 C1518 0.950 . S
H1509 C1520 0.950 . S
H1510 C1522 0.950 . S
H1511 C1523 0.950 . S
C1512 H1504 0.950 . S
C1512 C1513 1.386 . S
C1512 C1514 1.391 . S
C1513 C1512 1.386 . S
C1513 C1517 1.393 . S
C1514 H1506 0.950 . S
C1514 C1512 1.391 . S
C1514 C1515 1.400 . S
C1515 C1514 1.400 . S
C1515 C1516 1.398 . S
C1515 C1521 1.491 . S
C1516 H1507 0.950 . S
C1516 C1515 1.398 . S
C1516 C1517 1.391 . S
C1517 H1505 0.950 . S
C1517 C1513 1.393 . S
C1517 C1516 1.391 . S
C1518 H1508 0.950 . S
C1518 C1519 1.386 . S
C1518 C1520 1.391 . S
C1519 C1518 1.386 . S
C1519 C1523 1.393 . S
C1520 H1509 0.950 . S
C1520 C1518 1.391 . S
C1520 C1521 1.400 . S
C1521 C1515 1.491 . S
C1521 C1520 1.400 . S
C1521 C1522 1.398 . S
C1522 H1510 0.950 . S
C1522 C1521 1.398 . S
C1522 C1523 1.391 . S
C1523 H1511 0.950 . S
C1523 C1519 1.393 . S
C1523 C1522 1.391 . S
H1524 C1532 0.950 . S
H1525 C1537 0.950 . S
H1526 C1534 0.950 . S
H1527 C1536 0.950 . S
H1528 C1538 0.950 . S
H1529 C1540 0.950 . S
H1530 C1542 0.950 . S
H1531 C1543 0.950 . S
C1532 H1524 0.950 . S
C1532 C1533 1.386 . S
C1532 C1534 1.391 . S
C1533 C1532 1.386 . S
C1533 C1537 1.393 . S
C1534 H1526 0.950 . S
C1534 C1532 1.391 . S
C1534 C1535 1.400 . S
C1535 C1534 1.400 . S
C1535 C1536 1.398 . S
C1535 C1541 1.491 . S
C1536 H1527 0.950 . S
C1536 C1535 1.398 . S
C1536 C1537 1.391 . S
C1537 H1525 0.950 . S
C1537 C1533 1.393 . S
C1537 C1536 1.391 . S
C1538 H1528 0.950 . S
C1538 C1539 1.386 . S
C1538 C1540 1.391 . S
C1539 C1538 1.386 . S
C1539 C1543 1.393 . S
C1540 H1529 0.950 . S
C1540 C1538 1.391 . S
C1540 C1541 1.400 . S
C1541 C1535 1.491 . S
C1541 C1540 1.400 . S
C1541 C1542 1.398 . S
C1542 H1530 0.950 . S
C1542 C1541 1.398 . S
C1542 C1543 1.391 . S
C1543 H1531 0.950 . S
C1543 C1539 1.393 . S
C1543 C1542 1.391 . S
H1544 C1552 0.950 . S
H1545 C1557 0.950 . S
H1546 C1554 0.950 . S
H1547 C1556 0.950 . S
H1548 C1558 0.950 . S
H1549 C1560 0.950 . S
H1550 C1562 0.950 . S
H1551 C1563 0.950 . S
C1552 H1544 0.950 . S
C1552 C1553 1.386 . S
C1552 C1554 1.391 . S
C1553 C1552 1.386 . S
C1553 C1557 1.393 1_655 S
C1554 H1546 0.950 . S
C1554 C1552 1.391 . S
C1554 C1555 1.400 . S
C1555 C1554 1.400 . S
C1555 C1556 1.398 1_655 S
C1555 C1561 1.491 . S
C1556 H1547 0.950 . S
C1556 C1555 1.398 1_455 S
C1556 C1557 1.391 . S
C1557 H1545 0.950 . S
C1557 C1553 1.393 1_455 S
C1557 C1556 1.391 . S
C1558 H1548 0.950 . S
C1558 C1559 1.386 1_455 S
C1558 C1560 1.391 . S
C1559 C1558 1.386 1_655 S
C1559 C1563 1.393 . S
C1560 H1549 0.950 . S
C1560 C1558 1.391 . S
C1560 C1561 1.400 1_455 S
C1561 C1555 1.491 . S
C1561 C1560 1.400 1_655 S
C1561 C1562 1.398 . S
C1562 H1550 0.950 . S
C1562 C1561 1.398 . S
C1562 C1563 1.391 . S
C1563 H1551 0.950 . S
C1563 C1559 1.393 . S
C1563 C1562 1.391 . S
H1564 C1572 0.950 1_565 S
H1565 C1577 0.950 . S
H1566 C1574 0.950 1_565 S
H1567 C1576 0.950 . S
H1568 C1578 0.950 . S
H1569 C1580 0.950 . S
H1570 C1582 0.950 . S
H1571 C1583 0.950 . S
C1572 H1564 0.950 1_545 S
C1572 C1573 1.386 . S
C1572 C1574 1.391 . S
C1573 C1572 1.386 . S
C1573 C1577 1.393 . S
C1574 H1566 0.950 1_545 S
C1574 C1572 1.391 . S
C1574 C1575 1.400 . S
C1575 C1574 1.400 . S
C1575 C1576 1.398 . S
C1575 C1581 1.491 . S
C1576 H1567 0.950 . S
C1576 C1575 1.398 . S
C1576 C1577 1.391 . S
C1577 H1565 0.950 . S
C1577 C1573 1.393 . S
C1577 C1576 1.391 . S
C1578 H1568 0.950 . S
C1578 C1579 1.386 . S
C1578 C1580 1.391 . S
C1579 C1578 1.386 . S
C1579 C1583 1.393 . S
C1580 H1569 0.950 . S
C1580 C1578 1.391 . S
C1580 C1581 1.400 . S
C1581 C1575 1.491 . S
C1581 C1580 1.400 . S
C1581 C1582 1.398 . S
C1582 H1570 0.950 . S
C1582 C1581 1.398 . S
C1582 C1583 1.391 . S
C1583 H1571 0.950 . S
C1583 C1579 1.393 . S
C1583 C1582 1.391 . S
C953 C5 1.791 . S
C959 C418 1.778 . S
C973 C64 1.889 . S
C979 C241 1.889 . S
C993 C300 1.717 . S
C999 C123 1.744 . S
C1013 C182 1.939 . S
C1019 C359 1.910 . S
C1033 C477 1.888 . S
C1039 C713 1.888 . S
C1053 C536 1.716 . S
C1059 C831 1.743 . S
C1073 C654 1.938 . S
C1079 C595 1.900 . S
C1093 C890 1.785 . S
C1099 C772 1.790 . S
C1113 C52 1.077 . S
C1119 C357 1.042 . S
C1133 C446 1.658 1_545 S
C1139 C92 1.666 . S
C1153 C170 0.978 . S
C1159 C239 0.936 . S
C1173 C328 1.823 . S
C1179 C180 1.837 . S
C1193 C33 1.243 . S
C1199 C859 1.251 . S
C1213 C701 0.610 . S
C1219 C62 0.637 1_455 S
C1233 C800 1.252 . S
C1239 C151 1.258 . S
C1253 C711 0.657 . S
C1259 C229 0.609 . S
C1273 C642 1.991 . S
C1279 C288 1.993 . S
C1293 C298 0.987 . S
C1299 C888 1.030 . S
C1313 C406 1.984 . S
C1319 C524 1.986 . S
C1333 C416 1.029 . S
C1339 C534 0.993 . S
C1353 C3 1.608 . S
C1359 C269 1.610 . S
C1373 C505 1.616 . S
C1379 C770 1.621 . S
C1393 C760 1.607 . S
C1399 C583 1.604 . S
C1413 C829 1.211 . S
C1419 C623 1.166 . S
C1433 C465 1.452 . S
C1439 C210 1.415 . S
C1453 C121 1.237 . S
C1459 C387 1.208 . S
C1473 C682 1.434 . S
C1479 C937 1.447 . S
C1493 C819 1.068 . S
C1499 C593 1.017 . S
C1513 C918 1.637 . S
C1519 C741 1.647 . S
C1533 C878 0.987 . S
C1539 C475 0.975 . S
C1553 C652 1.828 . S
C1559 C564 1.817 . S
C1573 C111 1.612 . S
C1579 C347 1.611 . S
