# Generated by pormake.
# Topology wkj, (6)-cn, num edge types: 1
# Building blocks:
#     Node 0, Type 0, BuildingBlock: HISSIN_clean_sbu_0, # of connection points: 6
#     Node 1, Type 0, BuildingBlock: HISSIN_clean_sbu_0, # of connection points: 6
#     Node 2, Type 0, BuildingBlock: HISSIN_clean_sbu_0, # of connection points: 6
#     Node 3, Type 0, BuildingBlock: HISSIN_clean_sbu_0, # of connection points: 6
#     Node 4, Type 0, BuildingBlock: HISSIN_clean_sbu_0, # of connection points: 6
#     Node 5, Type 0, BuildingBlock: HISSIN_clean_sbu_0, # of connection points: 6
#     Node 6, Type 0, BuildingBlock: HISSIN_clean_sbu_0, # of connection points: 6
#     Node 7, Type 0, BuildingBlock: HISSIN_clean_sbu_0, # of connection points: 6
#     Node 8, Type 0, BuildingBlock: HISSIN_clean_sbu_0, # of connection points: 6
#     Node 9, Type 0, BuildingBlock: HISSIN_clean_sbu_0, # of connection points: 6
#     Node 10, Type 0, BuildingBlock: HISSIN_clean_sbu_0, # of connection points: 6
#     Node 11, Type 0, BuildingBlock: HISSIN_clean_sbu_0, # of connection points: 6
#     Edge 12, Type (0, 0), BuildingBlock: KIFKEQ_clean_linker_1, # of connection points: 2
#     Edge 13, Type (0, 0), BuildingBlock: KIFKEQ_clean_linker_1, # of connection points: 2
#     Edge 14, Type (0, 0), BuildingBlock: KIFKEQ_clean_linker_1, # of connection points: 2
#     Edge 15, Type (0, 0), BuildingBlock: KIFKEQ_clean_linker_1, # of connection points: 2
#     Edge 16, Type (0, 0), BuildingBlock: KIFKEQ_clean_linker_1, # of connection points: 2
#     Edge 17, Type (0, 0), BuildingBlock: KIFKEQ_clean_linker_1, # of connection points: 2
#     Edge 18, Type (0, 0), BuildingBlock: KIFKEQ_clean_linker_1, # of connection points: 2
#     Edge 19, Type (0, 0), BuildingBlock: KIFKEQ_clean_linker_1, # of connection points: 2
#     Edge 20, Type (0, 0), BuildingBlock: KIFKEQ_clean_linker_1, # of connection points: 2
#     Edge 21, Type (0, 0), BuildingBlock: KIFKEQ_clean_linker_1, # of connection points: 2
#     Edge 22, Type (0, 0), BuildingBlock: KIFKEQ_clean_linker_1, # of connection points: 2
#     Edge 23, Type (0, 0), BuildingBlock: KIFKEQ_clean_linker_1, # of connection points: 2
#     Edge 24, Type (0, 0), BuildingBlock: KIFKEQ_clean_linker_1, # of connection points: 2
#     Edge 25, Type (0, 0), BuildingBlock: KIFKEQ_clean_linker_1, # of connection points: 2
#     Edge 26, Type (0, 0), BuildingBlock: KIFKEQ_clean_linker_1, # of connection points: 2
#     Edge 27, Type (0, 0), BuildingBlock: KIFKEQ_clean_linker_1, # of connection points: 2
#     Edge 28, Type (0, 0), BuildingBlock: KIFKEQ_clean_linker_1, # of connection points: 2
#     Edge 29, Type (0, 0), BuildingBlock: KIFKEQ_clean_linker_1, # of connection points: 2
#     Edge 30, Type (0, 0), BuildingBlock: KIFKEQ_clean_linker_1, # of connection points: 2
#     Edge 31, Type (0, 0), BuildingBlock: KIFKEQ_clean_linker_1, # of connection points: 2
#     Edge 32, Type (0, 0), BuildingBlock: KIFKEQ_clean_linker_1, # of connection points: 2
#     Edge 33, Type (0, 0), BuildingBlock: KIFKEQ_clean_linker_1, # of connection points: 2
#     Edge 34, Type (0, 0), BuildingBlock: KIFKEQ_clean_linker_1, # of connection points: 2
#     Edge 35, Type (0, 0), BuildingBlock: KIFKEQ_clean_linker_1, # of connection points: 2
#     Edge 36, Type (0, 0), BuildingBlock: KIFKEQ_clean_linker_1, # of connection points: 2
#     Edge 37, Type (0, 0), BuildingBlock: KIFKEQ_clean_linker_1, # of connection points: 2
#     Edge 38, Type (0, 0), BuildingBlock: KIFKEQ_clean_linker_1, # of connection points: 2
#     Edge 39, Type (0, 0), BuildingBlock: KIFKEQ_clean_linker_1, # of connection points: 2
#     Edge 40, Type (0, 0), BuildingBlock: KIFKEQ_clean_linker_1, # of connection points: 2
#     Edge 41, Type (0, 0), BuildingBlock: KIFKEQ_clean_linker_1, # of connection points: 2
#     Edge 42, Type (0, 0), BuildingBlock: KIFKEQ_clean_linker_1, # of connection points: 2
#     Edge 43, Type (0, 0), BuildingBlock: KIFKEQ_clean_linker_1, # of connection points: 2
#     Edge 44, Type (0, 0), BuildingBlock: KIFKEQ_clean_linker_1, # of connection points: 2
#     Edge 45, Type (0, 0), BuildingBlock: KIFKEQ_clean_linker_1, # of connection points: 2
#     Edge 46, Type (0, 0), BuildingBlock: KIFKEQ_clean_linker_1, # of connection points: 2
#     Edge 47, Type (0, 0), BuildingBlock: KIFKEQ_clean_linker_1, # of connection points: 2
# Relax obj value: 0.745
# Max RMSD: 0.178
# Mean RMSD: 0.178
data_MOF--net-wkj--node1-HISSIN_clean_sbu_0--edge1-KIFKEQ_clean_linker_1
_symmetry_space_group_name_H-M    P1
_symmetry_Int_Tables_number       1
_symmetry_cell_setting            triclinic
loop_
_symmetry_equiv_pos_as_xyz
'x, y, z'
_cell_length_a     49.842453
_cell_length_b     49.956612
_cell_length_c     30.93581
_cell_angle_alpha  89.837856
_cell_angle_beta   90.087943
_cell_angle_gamma 119.68365
loop_
_atom_site_label
_atom_site_type_symbol
_atom_site_fract_x
_atom_site_fract_y
_atom_site_fract_z
_atom_type_partial_charge
Eu0 Eu 0.47827 0.08378 0.36636 0.0
Eu1 Eu 0.54888 0.11283 0.34279 0.0
C2 C 0.51719 0.05406 0.40431 0.0
C3 C 0.39685 0.05228 0.41516 0.0
C4 C 0.40616 0.0545 0.45829 0.0
C5 C 0.34371 0.03161 0.43814 0.0
C6 C 0.38433 0.04539 0.49125 0.0
C7 C 0.36563 0.04084 0.40515 0.0
C8 C 0.3529 0.03395 0.48152 0.0
C9 C 0.41959 0.06323 0.3804 0.0
O10 O 0.5246 0.08484 0.27846 0.0
O11 O 0.47489 0.05708 0.30183 0.0
C12 C 0.4955 0.06268 0.27076 0.0
O13 O 0.48989 0.13045 0.33729 0.0
O14 O 0.58531 0.12219 0.29579 0.0
O15 O 0.59755 0.13845 0.36112 0.0
O16 O 0.54218 0.15447 0.33206 0.0
C17 C 0.51637 0.15538 0.32921 0.0
O18 O 0.5014 0.09985 0.43654 0.0
O19 O 0.55232 0.11885 0.41888 0.0
O20 O 0.53615 0.06656 0.37149 0.0
O21 O 0.44073 0.09222 0.38237 0.0
O22 O 0.4308 0.04553 0.36929 0.0
O23 O 0.4925 0.05673 0.40834 0.0
C24 C 0.62641 0.17245 0.305 0.0
C25 C 0.62154 0.19627 0.32001 0.0
C26 C 0.65698 0.20539 0.2459 0.0
C27 C 0.633 0.2238 0.2969 0.0
C28 C 0.64548 0.17779 0.26905 0.0
C29 C 0.64933 0.22789 0.25827 0.0
C30 C 0.60729 0.14086 0.32157 0.0
C31 C 0.53097 0.11179 0.4496 0.0
H32 H 0.43026 0.06333 0.46641 0.0
H33 H 0.31967 0.02282 0.42979 0.0
H34 H 0.392 0.04675 0.52437 0.0
H35 H 0.35825 0.03924 0.37183 0.0
H36 H 0.60689 0.1928 0.34771 0.0
H37 H 0.66924 0.20772 0.21599 0.0
H38 H 0.62691 0.2408 0.30726 0.0
H39 H 0.64941 0.1597 0.25687 0.0
Eu40 Eu 0.37803 0.45399 0.70619 0.0
Eu41 Eu 0.42891 0.52166 0.68165 0.0
C42 C 0.44385 0.46837 0.7149 0.0
C43 C 0.31355 0.38392 0.76358 0.0
C44 C 0.31922 0.398 0.80419 0.0
C45 C 0.26874 0.33886 0.7928 0.0
C46 C 0.30071 0.38205 0.83935 0.0
C47 C 0.2876 0.35478 0.75764 0.0
C48 C 0.27589 0.35176 0.83452 0.0
C49 C 0.3361 0.39823 0.7286 0.0
O50 O 0.43246 0.49613 0.6212 0.0
O51 O 0.38904 0.44942 0.63214 0.0
C52 C 0.41301 0.46808 0.60671 0.0
O53 O 0.34726 0.4737 0.69069 0.0
O54 O 0.46583 0.55578 0.64034 0.0
O55 O 0.45156 0.57048 0.69708 0.0
O56 O 0.38293 0.5197 0.66189 0.0
C57 C 0.35382 0.49913 0.67023 0.0
O58 O 0.394 0.47991 0.77535 0.0
O59 O 0.43208 0.52796 0.75591 0.0
O60 O 0.45095 0.49747 0.71829 0.0
O61 O 0.33102 0.4149 0.70087 0.0
O62 O 0.365 0.41119 0.74018 0.0
O63 O 0.41939 0.4499 0.69352 0.0
C64 C 0.45855 0.59912 0.63339 0.0
C65 C 0.43848 0.60912 0.64933 0.0
C66 C 0.4521 0.61435 0.56126 0.0
C67 C 0.42375 0.61952 0.62105 0.0
C68 C 0.46671 0.60374 0.58952 0.0
C69 C 0.42906 0.62048 0.57643 0.0
C70 C 0.46588 0.5789 0.66012 0.0
C71 C 0.41635 0.5083 0.78719 0.0
H72 H 0.33905 0.42065 0.8093 0.0
H73 H 0.2495 0.3159 0.78764 0.0
H74 H 0.30744 0.39278 0.87082 0.0
H75 H 0.28273 0.34376 0.72627 0.0
H76 H 0.43207 0.60651 0.68315 0.0
H77 H 0.45668 0.61472 0.52698 0.0
H78 H 0.40641 0.62446 0.63368 0.0
H79 H 0.48233 0.59661 0.57638 0.0
Eu80 Eu 0.92059 0.37684 1.03034 0.0
Eu81 Eu 0.90784 0.42931 1.01572 0.0
C82 C 0.97275 0.43927 1.06276 0.0
C83 C 0.92556 0.31017 1.08362 0.0
C84 C 0.95202 0.32685 1.10906 0.0
C85 C 0.90896 0.26602 0.13132 0.0
C86 C 0.95681 0.31329 0.14545 0.0
C87 C 0.90433 0.27953 1.09452 0.0
C88 C 0.9351 0.28293 0.15736 0.0
C89 C 0.91897 0.32482 1.04711 0.0
O90 O 0.93881 0.43655 0.95488 0.0
O91 O 0.94621 0.39534 0.96259 0.0
C92 C 0.95072 0.41991 0.93928 0.0
O93 O 0.88249 0.35853 0.98098 0.0
O94 O 0.90383 0.45962 0.9682 0.0
O95 O 0.88957 0.45947 1.03391 0.0
O96 O 0.86065 0.38336 1.01045 0.0
C97 C 0.8573 0.35924 0.98879 0.0
O98 O 0.90858 0.38951 1.10208 0.0
O99 O 0.90586 0.43295 1.0893 0.0
O100 O 0.95445 0.45055 1.05189 0.0
O101 O 0.89526 0.32899 1.05193 0.0
O102 O 0.94252 0.34849 1.02921 0.0
O103 O 0.96624 0.41152 1.05294 0.0
C104 C 0.85643 0.45806 0.97806 0.0
C105 C 0.83004 0.43609 1.00046 0.0
C106 C 0.82472 0.45009 0.91461 0.0
C107 C 0.80167 0.42 0.97923 0.0
C108 C 0.85302 0.46634 0.93595 0.0
C109 C 0.79926 0.42529 0.93513 0.0
C110 C 0.88763 0.46667 0.99402 0.0
C111 C 0.90552 0.41325 1.11793 0.0
H112 H 0.96856 0.35064 1.10161 0.0
H113 H 0.89184 0.24267 0.13995 0.0
H114 H 0.9768 0.32716 0.16549 0.0
H115 H 0.88374 0.26636 1.07521 0.0
H116 H 0.83177 0.42929 1.03316 0.0
H117 H 0.82395 0.45489 0.88062 0.0
H118 H 0.78238 0.40154 0.99627 0.0
H119 H 0.87297 0.48322 0.91805 0.0
Eu120 Eu 0.53224 0.9077 0.36487 0.0
Eu121 Eu 0.46182 0.88541 0.34234 0.0
C122 C 0.50484 0.94866 0.38627 0.0
C123 C 0.60899 0.92116 0.41191 0.0
C124 C 0.63855 0.94503 0.42218 0.0
C125 C 0.6111 0.89162 0.47284 0.0
C126 C 0.65369 0.94294 0.45885 0.0
C127 C 0.59579 0.8939 0.43631 0.0
C128 C 0.63946 0.91683 0.4859 0.0
C129 C 0.5906 0.92732 0.38073 0.0
O130 O 0.48734 0.91914 0.28339 0.0
O131 O 0.53541 0.92447 0.29161 0.0
C132 C 0.51599 0.92994 0.26787 0.0
O133 O 0.51185 0.8558 0.35939 0.0
O134 O 0.4243 0.8853 0.3049 0.0
O135 O 0.414 0.85242 0.3567 0.0
O136 O 0.4707 0.84667 0.31777 0.0
C137 C 0.48951 0.83751 0.33334 0.0
O138 O 0.51046 0.89856 0.4361 0.0
O139 O 0.4597 0.88107 0.41886 0.0
O140 O 0.47617 0.92659 0.38511 0.0
O141 O 0.57454 0.90592 0.35248 0.0
O142 O 0.57495 0.93926 0.39739 0.0
O143 O 0.52363 0.94713 0.35867 0.0
C144 C 0.38284 0.83455 0.29541 0.0
C145 C 0.39053 0.81174 0.28594 0.0
C146 C 0.3374 0.80811 0.2498 0.0
C147 C 0.37214 0.78759 0.25836 0.0
C148 C 0.3559 0.83237 0.2778 0.0
C149 C 0.34562 0.78568 0.23929 0.0
C150 C 0.4031 0.86028 0.32374 0.0
C151 C 0.48128 0.8884 0.44946 0.0
H152 H 0.64894 0.96629 0.40372 0.0
H153 H 0.59975 0.87095 0.49244 0.0
H154 H 0.67525 0.96302 0.46787 0.0
H155 H 0.57288 0.87523 0.42876 0.0
H156 H 0.41117 0.81287 0.29921 0.0
H157 H 0.31718 0.80733 0.2355 0.0
H158 H 0.37978 0.77135 0.25021 0.0
H159 H 0.34951 0.84968 0.28504 0.0
Eu160 Eu 0.62733 0.53858 0.70726 0.0
Eu161 Eu 0.57168 0.47626 0.68508 0.0
C162 C 0.5646 0.52905 0.74239 0.0
C163 C 0.69156 0.61263 0.75505 0.0
C164 C 0.68131 0.60233 0.79715 0.0
C165 C 0.72573 0.66401 0.78254 0.0
C166 C 0.69301 0.62275 0.83172 0.0
C167 C 0.71406 0.64343 0.74788 0.0
C168 C 0.71506 0.65391 0.82478 0.0
C169 C 0.6776 0.59167 0.7185 0.0
O170 O 0.56637 0.50074 0.62555 0.0
O171 O 0.61323 0.54376 0.63395 0.0
C172 C 0.5876 0.52747 0.60984 0.0
O173 O 0.64863 0.50818 0.70284 0.0
O174 O 0.52903 0.44227 0.65331 0.0
O175 O 0.55329 0.42731 0.69639 0.0
O176 O 0.61518 0.479 0.65198 0.0
C177 C 0.64244 0.48957 0.67046 0.0
O178 O 0.61097 0.51603 0.77843 0.0
O179 O 0.5715 0.46887 0.75907 0.0
O180 O 0.55116 0.50271 0.7205 0.0
O181 O 0.67655 0.56516 0.72166 0.0
O182 O 0.65169 0.58884 0.7044 0.0
O183 O 0.59433 0.5466 0.74353 0.0
C184 C 0.53546 0.40001 0.63182 0.0
C185 C 0.54536 0.37891 0.64315 0.0
C186 C 0.54926 0.39784 0.55735 0.0
C187 C 0.55921 0.36922 0.61231 0.0
C188 C 0.53563 0.40766 0.58805 0.0
C189 C 0.56278 0.38016 0.56983 0.0
C190 C 0.53266 0.41921 0.66584 0.0
C191 C 0.5881 0.48785 0.79037 0.0
H192 H 0.66368 0.57866 0.80314 0.0
H193 H 0.74267 0.68786 0.77628 0.0
H194 H 0.68374 0.61437 0.86367 0.0
H195 H 0.72209 0.65169 0.71542 0.0
H196 H 0.54524 0.37242 0.67662 0.0
H197 H 0.55164 0.40626 0.52446 0.0
H198 H 0.56949 0.35553 0.62242 0.0
H199 H 0.52793 0.42355 0.57802 0.0
Eu200 Eu 0.08288 0.62963 1.03116 0.0
Eu201 Eu 0.09535 0.57611 1.01458 0.0
C202 C 0.03189 0.56592 1.06546 0.0
C203 C 0.06919 0.68915 1.08663 0.0
C204 C 0.0672 0.6759 0.12733 0.0
C205 C 0.04611 0.71803 1.11621 0.0
C206 C 0.05476 0.68364 0.16221 0.0
C207 C 0.05883 0.71041 1.08127 0.0
C208 C 0.04382 0.70456 0.15698 0.0
C209 C 0.08009 0.67921 1.0493 0.0
O210 O 0.06725 0.57238 0.9518 0.0
O211 O 0.05482 0.60973 0.96529 0.0
C212 C 0.05278 0.58738 0.93919 0.0
O213 O 0.12402 0.65058 0.98628 0.0
O214 O 0.09992 0.54643 0.96679 0.0
O215 O 0.11104 0.54391 1.0334 0.0
O216 O 0.14316 0.62103 1.00963 0.0
C217 C 0.14795 0.64691 0.99143 0.0
O218 O 0.09582 0.61702 1.10202 0.0
O219 O 0.09851 0.57363 1.08833 0.0
O220 O 0.04798 0.55374 1.0487 0.0
O221 O 0.10467 0.67666 1.05557 0.0
O222 O 0.05868 0.65591 1.02798 0.0
O223 O 0.04013 0.59475 1.0611 0.0
C224 C 0.14515 0.54461 0.98022 0.0
C225 C 0.17105 0.57064 0.99742 0.0
C226 C 0.17752 0.54237 0.92353 0.0
C227 C 0.19952 0.58336 0.97647 0.0
C228 C 0.14894 0.52968 0.94444 0.0
C229 C 0.20255 0.57033 0.93795 0.0
C230 C 0.11392 0.53731 0.99365 0.0
C231 C 0.09908 0.59324 1.11719 0.0
H232 H 0.07462 0.65904 0.13192 0.0
H233 H 0.03782 0.73417 1.11132 0.0
H234 H 0.05268 0.67234 0.19297 0.0
H235 H 0.06 0.72063 1.04989 0.0
H236 H 0.16877 0.58268 1.02501 0.0
H237 H 0.17907 0.53199 0.89362 0.0
H238 H 0.21846 0.60484 0.98832 0.0
H239 H 0.12924 0.50975 0.93052 0.0
Eu240 Eu 0.90642 0.52684 0.53501 0.0
Eu241 Eu 0.88612 0.45759 0.5613 0.0
C242 C 0.95007 0.50164 0.52003 0.0
C243 C 0.9204 0.6027 0.48284 0.0
C244 C 0.91312 0.59142 0.44053 0.0
C245 C 0.93087 0.65297 0.45748 0.0
C246 C 0.91631 0.61121 0.40659 0.0
C247 C 0.92798 0.63316 0.49142 0.0
C248 C 0.92663 0.64262 0.4144 0.0
C249 C 0.92454 0.58448 0.51672 0.0
O250 O 0.91841 0.48481 0.62021 0.0
O251 O 0.92011 0.53104 0.60975 0.0
C252 C 0.92676 0.51307 0.63486 0.0
O253 O 0.8542 0.50454 0.53819 0.0
O254 O 0.8872 0.42115 0.59966 0.0
O255 O 0.85227 0.40957 0.55034 0.0
O256 O 0.84755 0.46701 0.58522 0.0
C257 C 0.83698 0.48384 0.5669 0.0
O258 O 0.90016 0.50407 0.46503 0.0
O259 O 0.88309 0.4539 0.48483 0.0
O260 O 0.92874 0.47269 0.52097 0.0
O261 O 0.90104 0.56768 0.54174 0.0
O262 O 0.93899 0.57002 0.50483 0.0
O263 O 0.94661 0.51991 0.54633 0.0
C264 C 0.83647 0.38138 0.61461 0.0
C265 C 0.81474 0.39044 0.62478 0.0
C266 C 0.81251 0.34002 0.66734 0.0
C267 C 0.79266 0.37508 0.65658 0.0
C268 C 0.83484 0.35563 0.63533 0.0
C269 C 0.79165 0.35012 0.67915 0.0
C270 C 0.86113 0.39969 0.58346 0.0
C271 C 0.89091 0.47485 0.45323 0.0
H272 H 0.9071 0.56788 0.43333 0.0
H273 H 0.9382 0.6768 0.46478 0.0
H274 H 0.91311 0.6023 0.374 0.0
H275 H 0.93346 0.64215 0.52403 0.0
H276 H 0.81536 0.41012 0.60909 0.0
H277 H 0.81228 0.32077 0.68386 0.0
H278 H 0.77769 0.38419 0.66516 0.0
H279 H 0.85129 0.34815 0.62762 0.0
Eu280 Eu 0.39039 0.9099 0.87486 0.0
Eu281 Eu 0.43268 0.8809 0.89615 0.0
C282 C 0.45934 0.94513 0.84893 0.0
C283 C 0.33705 0.93475 0.81931 0.0
C284 C 0.34629 0.93264 0.77738 0.0
C285 C 0.29807 0.94537 0.79023 0.0
C286 C 0.3316 0.93708 0.74198 0.0
C287 C 0.31281 0.9409 0.82566 0.0
C288 C 0.30739 0.94357 0.74803 0.0
C289 C 0.35176 0.92956 0.8567 0.0
O290 O 0.43938 0.91227 0.9585 0.0
O291 O 0.40782 0.93226 0.94336 0.0
C292 C 0.42773 0.93038 0.97035 0.0
O293 O 0.35869 0.86655 0.91346 0.0
O294 O 0.46174 0.8731 0.94201 0.0
O295 O 0.45059 0.85025 0.88033 0.0
O296 O 0.38326 0.83955 0.90133 0.0
C297 C 0.35823 0.84008 0.91335 0.0
O298 O 0.3999 0.89652 0.80389 0.0
O299 O 0.43444 0.88028 0.8199 0.0
O300 O 0.4642 0.92207 0.8559 0.0
O301 O 0.34345 0.9009 0.86463 0.0
O302 O 0.38142 0.94763 0.86082 0.0
O303 O 0.4393 0.94767 0.87299 0.0
C304 C 0.44682 0.82016 0.94118 0.0
C305 C 0.42299 0.79369 0.92119 0.0
C306 C 0.43452 0.7923 1.00917 0.0
C307 C 0.40397 0.76751 0.94558 0.0
C308 C 0.45356 0.8185 0.98477 0.0
C309 C 0.40841 0.76726 0.99034 0.0
C310 C 0.46044 0.85048 0.91933 0.0
C311 C 0.41947 0.88709 0.7898 0.0
H312 H 0.36495 0.92778 0.77208 0.0
H313 H 0.27952 0.95032 0.79581 0.0
H314 H 0.33983 0.93628 0.70989 0.0
H315 H 0.30533 0.94231 0.85803 0.0
H316 H 0.41737 0.79391 0.88741 0.0
H317 H 0.4386 0.79304 1.04365 0.0
H318 H 0.38435 0.74842 0.93005 0.0
H319 H 0.47188 0.83842 1.00088 0.0
Eu320 Eu 0.45568 0.36973 0.20176 0.0
Eu321 Eu 0.5226 0.42258 0.22229 0.0
C322 C 0.4677 0.4346 0.17885 0.0
C323 C 0.3754 0.31485 0.15385 0.0
C324 C 0.36657 0.33679 0.14376 0.0
C325 C 0.33359 0.27732 1.10939 0.0
C326 C 0.34141 0.32903 1.11658 0.0
C327 C 0.35858 0.28501 0.13695 0.0
C328 C 0.32493 0.29934 1.0987 0.0
C329 C 0.40191 0.32257 0.18206 0.0
O330 O 0.49718 0.4271 0.28234 0.0
O331 O 0.45015 0.38409 0.27317 0.0
C332 C 0.46905 0.40844 0.29737 0.0
O333 O 0.47457 0.34268 0.23484 0.0
O334 O 0.5562 0.45447 0.26901 0.0
O335 O 0.57054 0.45341 0.2037 0.0
O336 O 0.52558 0.37791 0.23385 0.0
C337 C 0.50311 0.34932 0.24034 0.0
O338 O 0.48071 0.38703 0.13153 0.0
O339 O 0.52915 0.42534 0.14882 0.0
O340 O 0.49738 0.44424 0.18616 0.0
O341 O 0.42762 0.32833 0.16327 0.0
O342 O 0.40639 0.34159 0.21351 0.0
O343 O 0.44626 0.40751 0.1905 0.0
C344 C 0.60327 0.45525 0.25987 0.0
C345 C 0.60459 0.42942 0.24452 0.0
C346 C 0.6359 0.45859 0.32014 0.0
C347 C 0.62 0.4173 0.26815 0.0
C348 C 0.62046 0.47073 0.29647 0.0
C349 C 0.63408 0.43063 0.30766 0.0
C350 C 0.57953 0.46199 0.24322 0.0
C351 C 0.50901 0.40935 1.11848 0.0
H352 H 0.37937 0.36002 0.15636 0.0
H353 H 0.32132 0.25433 1.09589 0.0
H354 H 0.33564 0.34664 1.10812 0.0
H355 H 0.36506 0.26779 0.14461 0.0
H356 H 0.59155 0.41699 0.21628 0.0
H357 H 0.64631 0.4693 0.35066 0.0
H358 H 0.61837 0.39587 0.25765 0.0
H359 H 0.61969 0.4906 0.30888 0.0
Eu360 Eu 0.09011 0.47622 0.53238 0.0
Eu361 Eu 0.12042 0.54664 0.559 0.0
C362 C 0.05909 0.51665 0.50212 0.0
C363 C 0.04496 0.39167 0.48803 0.0
C364 C 0.01297 0.37424 0.49538 0.0
C365 C 0.03963 0.35721 0.42933 0.0
C366 C 0.99443 0.34879 0.46957 0.0
C367 C 0.05815 0.38266 0.45511 0.0
C368 C 0.00756 0.3401 0.43614 0.0
C369 C 0.06477 0.41718 0.51728 0.0
O370 O 0.09178 0.52278 0.62263 0.0
O371 O 0.06992 0.47241 0.60251 0.0
C372 C 0.07333 0.49302 0.63237 0.0
O373 O 0.13838 0.48663 0.55276 0.0
O374 O 0.12819 0.58436 0.60255 0.0
O375 O 0.15349 0.59428 0.54265 0.0
O376 O 0.15915 0.53628 0.57549 0.0
C377 C 0.16146 0.51145 0.56974 0.0
O378 O 0.1022 0.5 0.46249 0.0
O379 O 0.12336 0.55065 0.48243 0.0
O380 O 0.07448 0.53674 0.53255 0.0
O381 O 0.09247 0.4374 0.50424 0.0
O382 O 0.05168 0.42962 0.53982 0.0
O383 O 0.06019 0.4911 0.49805 0.0
C384 C 0.18126 0.62081 0.60464 0.0
C385 C 0.20572 0.61535 0.59481 0.0
C386 C 0.20768 0.64632 0.67075 0.0
C387 C 0.23008 0.6239 0.62378 0.0
C388 C 0.18324 0.63774 0.64173 0.0
C389 C 0.23035 0.6379 0.66312 0.0
C390 C 0.15192 0.60467 0.58054 0.0
C391 C 0.11428 0.52974 0.45074 0.0
H392 H 0.00221 0.38012 0.52127 0.0
H393 H 0.05038 0.35143 0.40332 0.0
H394 H 0.96982 0.33591 0.47574 0.0
H395 H 0.08281 0.39523 0.44924 0.0
H396 H 0.20498 0.60243 0.56634 0.0
H397 H 0.20715 0.65686 0.70106 0.0
H398 H 0.24735 0.61731 0.61708 0.0
H399 H 0.16469 0.64221 0.64993 0.0
Eu400 Eu 0.62243 0.08723 0.87076 0.0
Eu401 Eu 0.57864 0.11371 0.89474 0.0
C402 C 0.5528 0.05484 0.83291 0.0
C403 C 0.66503 0.04759 0.82233 0.0
C404 C 0.66117 0.05196 0.77848 0.0
C405 C 0.68048 0.01011 0.8029 0.0
C406 C 0.66706 0.03557 0.74699 0.0
C407 C 0.67484 0.02672 0.83436 0.0
C408 C 0.67662 0.01438 0.75892 0.0
C409 C 0.65849 0.06409 0.85608 0.0
O410 O 0.56811 0.07928 0.95364 0.0
O411 O 0.60545 0.06663 0.9413 0.0
C412 C 0.58278 0.06439 0.96675 0.0
O413 O 0.65805 0.13674 0.88776 0.0
O414 O 0.5501 0.12216 0.94042 0.0
O415 O 0.55868 0.14237 0.87677 0.0
O416 O 0.62649 0.15341 0.91473 0.0
C417 C 0.65448 0.15831 0.90649 0.0
O418 O 0.61263 0.10038 0.80022 0.0
O419 O 0.58126 0.12001 0.81851 0.0
O420 O 0.54546 0.06988 0.8609 0.0
O421 O 0.66621 0.09267 0.84804 0.0
O422 O 0.63164 0.0489 0.87488 0.0
O423 O 0.58 0.05679 0.83283 0.0
C424 C 0.56178 0.17377 0.93522 0.0
C425 C 0.59083 0.19791 0.92229 0.0
C426 C 0.56238 0.20481 0.99578 0.0
C427 C 0.60606 0.22468 0.94694 0.0
C428 C 0.54709 0.17798 0.97101 0.0
C429 C 0.59267 0.22771 0.98516 0.0
C430 C 0.54933 0.14298 0.91579 0.0
C431 C 0.59488 0.1123 0.78749 0.0
H432 H 0.6533 0.06775 0.76861 0.0
H433 H 0.68782 0.99394 0.81291 0.0
H434 H 0.66333 0.03886 0.71335 0.0
H435 H 0.67786 0.02308 0.86815 0.0
H436 H 0.60278 0.19534 0.89479 0.0
H437 H 0.55158 0.20629 1.02534 0.0
H438 H 0.62927 0.24199 0.93787 0.0
H439 H 0.52477 0.15964 0.98159 0.0
Eu440 Eu 0.54359 0.62614 0.19996 0.0
Eu441 Eu 0.48089 0.57068 0.22121 0.0
C442 C 0.53458 0.56325 0.16681 0.0
C443 C 0.61815 0.68975 0.15246 0.0
C444 C 0.60765 0.67968 1.11041 0.0
C445 C 0.6698 0.72303 0.12466 0.0
C446 C 0.62809 0.69102 1.07573 0.0
C447 C 0.6492 0.71172 0.15946 0.0
C448 C 0.65948 0.71253 1.08248 0.0
C449 C 0.59709 0.67607 0.1891 0.0
O450 O 0.50592 0.56399 0.27907 0.0
O451 O 0.5475 0.61209 0.27374 0.0
C452 C 0.5318 0.58565 0.29636 0.0
O453 O 0.51342 0.64783 0.20231 0.0
O454 O 0.44629 0.53226 0.26001 0.0
O455 O 0.43241 0.54713 0.20283 0.0
O456 O 0.48293 0.61441 0.25242 0.0
C457 C 0.49408 0.6417 0.23383 0.0
O458 O 0.52204 0.60965 0.12833 0.0
O459 O 0.47444 0.57049 0.14696 0.0
O460 O 0.50767 0.54975 0.18757 0.0
O461 O 0.57066 0.67528 0.18583 0.0
O462 O 0.59395 0.65013 0.20338 0.0
O463 O 0.55223 0.5929 0.16597 0.0
C464 C 0.40055 0.53508 0.26331 0.0
C465 C 0.40467 0.56479 0.26785 0.0
C466 C 0.35716 0.5158 0.31288 0.0
C467 C 0.38622 0.57027 0.29595 0.0
C468 C 0.37608 0.51041 0.2849 0.0
C469 C 0.36286 0.54607 0.32016 0.0
C470 C 0.4232 0.53088 0.23821 0.0
C471 C 0.49394 0.58686 1.11591 0.0
H472 H 0.58379 0.66244 1.10454 0.0
H473 H 0.69384 0.73955 0.13079 0.0
H474 H 0.61952 0.68188 1.04382 0.0
H475 H 0.65761 0.7196 0.19187 0.0
H476 H 0.42314 0.58418 0.25108 0.0
H477 H 0.33905 0.49647 0.33025 0.0
H478 H 0.39205 0.59399 0.30078 0.0
H479 H 0.37233 0.48723 0.28136 0.0
H480 H 0.56455 0.21066 0.29675 0.0
H481 H 0.46895 0.16852 0.33426 0.0
H482 H 0.56373 0.25772 0.27569 0.0
H483 H 0.46829 0.21531 0.31536 0.0
H484 H 0.46067 0.28794 0.24064 0.0
H485 H 0.46566 0.24405 0.26055 0.0
H486 H 0.56201 0.30395 0.29034 0.0
H487 H 0.55706 0.34881 0.26801 0.0
C488 C 0.54334 0.21136 0.30079 0.0
C489 C 0.5167 0.18514 0.31692 0.0
C490 C 0.54289 0.23866 0.28888 0.0
C491 C 0.51579 0.24099 0.29285 0.0
C492 C 0.48952 0.21488 0.3101 0.0
C493 C 0.48991 0.18767 0.32147 0.0
C494 C 0.48313 0.29225 0.25151 0.0
C495 C 0.50834 0.32266 0.25297 0.0
C496 C 0.48595 0.26657 0.26354 0.0
C497 C 0.5141 0.2696 0.27842 0.0
C498 C 0.53976 0.30004 0.27922 0.0
C499 C 0.53695 0.32606 0.26659 0.0
H500 H 0.29222 0.4558 0.66933 0.0
H501 H 0.35319 0.55115 0.63728 0.0
H502 H 0.24813 0.46002 0.64543 0.0
H503 H 0.30843 0.55543 0.61211 0.0
H504 H 0.21486 0.55776 0.60824 0.0
H505 H 0.26134 0.55652 0.63122 0.0
H506 H 0.22162 0.46327 0.58442 0.0
H507 H 0.17533 0.46448 0.56212 0.0
C508 C 0.29644 0.47787 0.65701 0.0
C509 C 0.32685 0.50311 0.65523 0.0
C510 C 0.2708 0.48022 0.64274 0.0
C511 C 0.27407 0.50799 0.62603 0.0
C512 C 0.30449 0.53355 0.62474 0.0
C513 C 0.33038 0.53109 0.63889 0.0
C514 C 0.21601 0.53699 0.60266 0.0
C515 C 0.19078 0.51121 0.58318 0.0
C516 C 0.24298 0.53631 0.61578 0.0
C517 C 0.2458 0.50971 0.61025 0.0
C518 C 0.22064 0.48412 0.59029 0.0
C519 C 0.19383 0.48485 0.57709 0.0
H520 H 0.79636 0.34811 0.999 0.0
H521 H 0.84723 0.30534 0.95178 0.0
H522 H 0.74779 0.30211 0.97822 0.0
H523 H 0.79985 0.25931 0.93422 0.0
H524 H 0.71396 0.18238 0.87615 0.0
H525 H 0.75983 0.23043 0.89328 0.0
H526 H 0.70732 0.25267 0.98284 0.0
H527 H 0.66058 0.20477 0.96295 0.0
C528 C 0.79733 0.32905 0.98405 0.0
C529 C 0.82632 0.33132 0.97644 0.0
C530 C 0.76916 0.30212 0.97245 0.0
C531 C 0.76872 0.27599 0.95345 0.0
C532 C 0.79797 0.27846 0.947 0.0
C533 C 0.8258 0.30531 0.95772 0.0
C534 C 0.71199 0.19739 0.89954 0.0
C535 C 0.68304 0.18893 0.91817 0.0
C536 C 0.73887 0.22539 0.91003 0.0
C537 C 0.73865 0.24635 0.9407 0.0
C538 C 0.7094 0.23798 0.95899 0.0
C539 C 0.68224 0.21007 0.94773 0.0
H540 H 0.49662 0.68966 0.18708 0.0
H541 H 0.47921 0.65311 0.31663 0.0
H542 H 0.49282 0.73414 0.2115 0.0
H543 H 0.47623 0.69843 0.34156 0.0
H544 H 0.51419 0.80482 0.37326 0.0
H545 H 0.51174 0.75656 0.35127 0.0
H546 H 0.45672 0.75156 0.2408 0.0
H547 H 0.45847 0.7995 0.26347 0.0
C548 C 0.49166 0.69085 0.22087 0.0
C549 C 0.48807 0.6672 0.24957 0.0
C550 C 0.48943 0.71661 0.23497 0.0
C551 C 0.4843 0.72051 0.27878 0.0
C552 C 0.4804 0.69672 0.30762 0.0
C553 C 0.48185 0.6704 0.29321 0.0
C554 C 0.50127 0.79341 0.34443 0.0
C555 C 0.48656 0.80664 0.32037 0.0
C556 C 0.49975 0.7654 0.33183 0.0
C557 C 0.48407 0.74961 0.29398 0.0
C558 C 0.46924 0.76277 0.26997 0.0
C559 C 0.47014 0.79043 0.28315 0.0
H560 H 0.69066 0.49173 0.71603 0.0
H561 H 0.65318 0.47518 0.58712 0.0
H562 H 0.73481 0.48769 0.69049 0.0
H563 H 0.69791 0.4714 0.56108 0.0
H564 H 0.8031 0.50682 0.526 0.0
H565 H 0.75508 0.50472 0.54893 0.0
H566 H 0.75253 0.45289 0.66198 0.0
H567 H 0.80035 0.45455 0.63863 0.0
C568 C 0.69155 0.48685 0.68214 0.0
C569 C 0.66776 0.48356 0.65395 0.0
C570 C 0.7171 0.48444 0.66739 0.0
C571 C 0.72054 0.47925 0.62344 0.0
C572 C 0.69657 0.47562 0.5951 0.0
C573 C 0.67055 0.47744 0.61014 0.0
C574 C 0.79228 0.4947 0.55562 0.0
C575 C 0.80617 0.48092 0.58026 0.0
C576 C 0.7644 0.49337 0.56877 0.0
C577 C 0.7494 0.47872 0.60763 0.0
C578 C 0.76316 0.46468 0.63209 0.0
C579 C 0.79074 0.4655 0.61851 0.0
H580 H 0.30322 0.83408 0.94248 0.0
H581 H 0.34508 0.7786 0.91395 0.0
H582 H 0.25524 0.78806 0.96142 0.0
H583 H 0.29633 0.73186 0.93213 0.0
H584 H 0.20708 0.65304 1.00095 0.0
H585 H 0.25768 0.69792 0.98343 0.0
H586 H 0.21174 0.7457 0.93455 0.0
H587 H 0.16214 0.70183 0.95265 0.0
C588 C 0.30233 0.81203 0.94002 0.0
C589 C 0.32864 0.81069 0.92627 0.0
C590 C 0.27431 0.78518 0.95068 0.0
C591 C 0.27088 0.75535 0.94803 0.0
C592 C 0.29743 0.75397 0.93502 0.0
C593 C 0.32565 0.78103 0.9243 0.0
C594 C 0.20778 0.67311 0.98639 0.0
C595 C 0.17987 0.6733 0.97872 0.0
C596 C 0.23705 0.69908 0.97609 0.0
C597 C 0.23966 0.72641 0.9579 0.0
C598 C 0.21159 0.72601 0.94948 0.0
C599 C 0.18263 0.70029 0.95964 0.0
H600 H 0.6503 0.24156 1.00963 0.0
H601 H 0.57898 0.26422 1.03674 0.0
H602 H 0.67396 0.26211 1.07806 0.0
H603 H 0.6039 0.28695 1.10542 0.0
H604 H 0.69892 0.26661 0.20745 0.0
H605 H 0.69552 0.28921 0.13906 0.0
H606 H 0.59986 0.26047 0.16684 0.0
H607 H 0.60415 0.24018 0.23514 0.0
C608 C 0.64051 0.25244 1.02938 0.0
C609 C 0.61218 0.25032 1.01844 0.0
C610 C 0.65429 0.26454 1.06911 0.0
C611 C 0.64017 0.27507 1.09876 0.0
C612 C 0.61464 0.27765 1.08449 0.0
C613 C 0.60042 0.26484 1.04498 0.0
C614 C 0.67767 0.26644 0.19944 0.0
C615 C 0.65156 0.25086 0.22597 0.0
C616 C 0.67554 0.27912 0.16007 0.0
C617 C 0.64692 0.27527 0.14591 0.0
C618 C 0.62232 0.26382 0.17569 0.0
C619 C 0.6247 0.2519 0.21534 0.0
H620 H 0.34629 0.51671 0.39876 0.0
H621 H 0.34921 0.59322 0.32872 0.0
H622 H 0.34651 0.54084 0.46607 0.0
H623 H 0.352 0.61859 0.3972 0.0
H624 H 0.44046 0.65182 0.49962 0.0
H625 H 0.40507 0.63507 0.43848 0.0
H626 H 0.33118 0.57112 0.52108 0.0
H627 H 0.36641 0.58831 0.5823 0.0
C628 C 0.34553 0.53797 0.39733 0.0
C629 C 0.34943 0.55373 0.35804 0.0
C630 C 0.34566 0.55192 0.43634 0.0
C631 C 0.35029 0.58204 0.43676 0.0
C632 C 0.34897 0.59557 0.39764 0.0
C633 C 0.34784 0.58115 0.35849 0.0
C634 C 0.41631 0.63534 0.50515 0.0
C635 C 0.40644 0.62061 0.54535 0.0
C636 C 0.3959 0.62591 0.47022 0.0
C637 C 0.36554 0.60131 0.475 0.0
C638 C 0.35451 0.58999 0.51656 0.0
C639 C 0.3748 0.59981 0.55161 0.0
H640 H 0.77169 0.36277 0.94421 0.0
H641 H 0.77019 0.43295 0.86424 0.0
H642 H 0.74982 0.32605 0.8856 0.0
H643 H 0.74865 0.39629 0.80529 0.0
H644 H 0.73353 0.34188 0.6944 0.0
H645 H 0.71482 0.34636 0.76538 0.0
H646 H 0.78771 0.33659 0.82566 0.0
H647 H 0.80718 0.33369 0.7556 0.0
C648 C 0.76539 0.37009 0.91493 0.0
C649 C 0.77413 0.40125 0.90822 0.0
C650 C 0.75278 0.3489 0.88123 0.0
C651 C 0.74855 0.35855 0.84042 0.0
C652 C 0.75196 0.38815 0.83624 0.0
C653 C 0.76469 0.40937 0.86994 0.0
C654 C 0.74499 0.33976 0.7229 0.0
C655 C 0.77277 0.33897 0.71924 0.0
C656 C 0.73405 0.34204 0.76351 0.0
C657 C 0.75031 0.34275 0.80096 0.0
C658 C 0.77467 0.33629 0.79742 0.0
C659 C 0.78595 0.33461 0.7569 0.0
H660 H 0.34673 0.74664 0.98159 0.0
H661 H 0.41242 0.73858 1.06384 0.0
H662 H 0.31008 0.73031 1.04085 0.0
H663 H 0.37624 0.7231 0.12344 0.0
H664 H 0.33142 0.7251 0.23455 0.0
H665 H 0.32897 0.69863 0.16723 0.0
H666 H 0.32305 0.76994 1.0957 0.0
H667 H 0.32608 0.79636 0.16216 0.0
C668 C 0.35285 0.73993 1.01166 0.0
C669 C 0.38299 0.74517 1.01865 0.0
C670 C 0.33178 0.73063 1.04575 0.0
C671 C 0.34068 0.72665 1.0873 0.0
C672 C 0.36865 0.72636 1.09203 0.0
C673 C 0.38968 0.73561 1.05792 0.0
C674 C 0.32837 0.73441 0.20446 0.0
C675 C 0.33039 0.76353 0.20343 0.0
C676 C 0.32679 0.71914 0.16596 0.0
C677 C 0.32703 0.73276 0.12607 0.0
C678 C 0.32315 0.75883 0.12577 0.0
C679 C 0.32496 0.77418 0.16417 0.0
H680 H 0.6829 0.44813 0.36388 0.0
H681 H 0.5951 0.37072 0.32753 0.0
H682 H 0.67834 0.42506 0.435 0.0
H683 H 0.58945 0.34885 0.39817 0.0
H684 H 0.6171 0.42772 0.54652 0.0
H685 H 0.64811 0.43071 0.48526 0.0
H686 H 0.59125 0.33217 0.46644 0.0
H687 H 0.55919 0.33002 0.52789 0.0
C688 C 0.6632 0.42567 0.37054 0.0
C689 C 0.63878 0.41188 0.34085 0.0
C690 C 0.66037 0.4125 0.41142 0.0
C691 C 0.63251 0.38616 0.4236 0.0
C692 C 0.61099 0.36952 0.39094 0.0
C693 C 0.61419 0.38224 0.34987 0.0
C694 C 0.61184 0.40662 0.52989 0.0
C695 C 0.58538 0.3789 0.54062 0.0
C696 C 0.62991 0.4081 0.49483 0.0
C697 C 0.62175 0.38179 0.46943 0.0
C698 C 0.59762 0.35313 0.48418 0.0
C699 C 0.5793 0.35175 0.5194 0.0
H700 H 0.2235 0.62977 0.91562 0.0
H701 H 0.23833 0.55313 0.89086 0.0
H702 H 0.24964 0.65411 0.84985 0.0
H703 H 0.26706 0.57869 0.82551 0.0
H704 H 0.26599 0.68368 0.72088 0.0
H705 H 0.28089 0.6755 0.79276 0.0
H706 H 0.24752 0.57977 0.76052 0.0
H707 H 0.23529 0.58884 0.68892 0.0
C708 C 0.23386 0.61883 0.8971 0.0
C709 C 0.22806 0.5891 0.90765 0.0
C710 C 0.24918 0.63298 0.85895 0.0
C711 C 0.25946 0.61786 0.83066 0.0
C712 C 0.25809 0.59039 0.84512 0.0
C713 C 0.24192 0.57579 0.88284 0.0
C714 C 0.26319 0.66132 0.72895 0.0
C715 C 0.24878 0.63672 0.69984 0.0
C716 C 0.27136 0.65642 0.7703 0.0
C717 C 0.26393 0.62651 0.78379 0.0
C718 C 0.25353 0.60313 0.75231 0.0
C719 C 0.24626 0.60828 0.71075 0.0
H720 H 0.44412 0.99268 0.98782 0.0
H721 H 0.43389 0.91372 1.05728 0.0
H722 H 0.45927 0.02291 1.05515 0.0
H723 H 0.44693 0.94323 0.12519 0.0
H724 H 0.51425 0.08045 0.18272 0.0
H725 H 0.49707 0.05097 1.11485 0.0
H726 H 0.43654 0.96938 0.18672 0.0
H727 H 0.4523 -0.0006 0.2542 0.0
C728 C 0.44476 0.98124 1.01725 0.0
C729 C 0.43746 0.94974 1.01462 0.0
C730 C 0.45368 -0.00093 1.05701 0.0
C731 C 0.45484 0.98673 1.09836 0.0
C732 C 0.44679 0.95493 1.09579 0.0
C733 C 0.43917 0.93749 1.0557 0.0
C734 C 0.49713 0.05625 0.18474 0.0
C735 C 0.48531 0.04338 0.22642 0.0
C736 C 0.48685 0.03883 0.14467 0.0
C737 C 0.4648 0.00655 0.14259 0.0
C738 C 0.45338 0.99365 0.18447 0.0
C739 C 0.46272 0.01135 0.22432 0.0
H740 H 0.41199 0.37845 0.34466 0.0
H741 H 0.50366 0.45572 0.35677 0.0
H742 H 0.3982 0.39127 0.41499 0.0
H743 H 0.49046 0.46798 0.42689 0.0
H744 H 0.45997 0.50172 0.54626 0.0
H745 H 0.47149 0.4878 0.4762 0.0
H746 H 0.39357 0.39645 0.48969 0.0
H747 H 0.38159 0.41095 0.56009 0.0
C748 C 0.42952 0.39823 0.36192 0.0
C749 C 0.45932 0.41574 0.34278 0.0
C750 C 0.42151 0.40575 0.4034 0.0
C751 C 0.44263 0.43141 0.42912 0.0
C752 C 0.47244 0.44859 0.4098 0.0
C753 C 0.48037 0.44116 0.36851 0.0
C754 C 0.44495 0.47849 0.53486 0.0
C755 C 0.41948 0.45794 0.56107 0.0
C756 C 0.45194 0.47013 0.4936 0.0
C757 C 0.43419 0.44034 0.47473 0.0
C758 C 0.40846 0.41971 0.5009 0.0
C759 C 0.40141 0.42815 0.54241 0.0
H760 H 0.07354 0.52696 0.70705 0.0
H761 H 0.03192 0.43292 0.66511 0.0
H762 H 0.04701 0.50951 0.77692 0.0
H763 H 0.00456 0.41561 0.73458 0.0
H764 H 0.97231 0.38852 0.88299 0.0
H765 H 6e-05 0.40452 0.81331 0.0
H766 H 0.00019 0.49026 0.82088 0.0
H767 H 0.97259 0.4745 0.88972 0.0
C768 C 0.05852 0.50247 0.71187 0.0
C769 C 0.05574 0.482 0.67784 0.0
C770 C 0.04248 0.49221 0.75289 0.0
C771 C 0.02198 0.4606 0.76373 0.0
C772 C 0.0195 0.4401 0.72981 0.0
C773 C 0.03556 0.45034 0.68875 0.0
C774 C 0.97821 0.41099 0.87032 0.0
C775 C 0.96935 0.42973 0.89454 0.0
C776 C 0.99445 0.4204 0.82916 0.0
C777 C 0.00377 0.44959 0.80901 0.0
C778 C 0.99492 0.46812 0.83355 0.0
C779 C 0.97836 0.45863 0.87412 0.0
H780 H 0.57239 0.95471 0.21817 0.0
H781 H 0.48477 0.95136 0.21237 0.0
H782 H 0.58813 0.98481 0.15055 0.0
H783 H 0.50058 0.98121 0.1454 0.0
H784 H 0.53357 0.04868 1.02714 0.0
H785 H 0.5196 0.01866 1.09408 0.0
H786 H 0.59622 0.00302 1.07844 0.0
H787 H 0.61029 0.03321 1.01104 0.0
C788 C 0.55604 0.96009 0.20298 0.0
C789 C 0.52663 0.94934 0.22335 0.0
C790 C 0.56531 0.97787 0.16286 0.0
C791 C 0.54618 0.98692 0.13939 0.0
C792 C 0.51695 0.9761 0.16017 0.0
C793 C 0.50756 0.95821 0.19988 0.0
C794 C 0.54784 0.03907 1.03732 0.0
C795 C 0.57365 0.04464 1.01101 0.0
C796 C 0.53945 0.0211 1.07703 0.0
C797 C 0.55598 0.00694 1.0949 0.0
C798 C 0.58197 0.01266 1.06851 0.0
C799 C 0.59028 0.03049 1.02848 0.0
H800 H 0.53912 0.4955 0.5512 0.0
H801 H 0.62147 0.58372 0.56007 0.0
H802 H 0.52773 0.50906 0.48114 0.0
H803 H 0.60974 0.59808 0.48918 0.0
H804 H 0.58646 0.62052 0.34885 0.0
H805 H 0.6003 0.60831 0.41978 0.0
H806 H 0.51346 0.52345 0.4226 0.0
H807 H 0.50046 0.53532 0.35246 0.0
C808 C 0.55511 0.51816 0.53866 0.0
C809 C 0.58158 0.53799 0.5638 0.0
C810 C 0.54826 0.52637 0.49704 0.0
C811 C 0.56707 0.55544 0.47635 0.0
C812 C 0.59379 0.57542 0.50156 0.0
C813 C 0.60078 0.56704 0.54345 0.0
C814 C 0.57016 0.59909 0.3643 0.0
C815 C 0.54191 0.57926 0.34248 0.0
C816 C 0.57823 0.59181 0.40622 0.0
C817 C 0.55869 0.56415 0.43 0.0
C818 C 0.5304 0.54472 0.40785 0.0
C819 C 0.52252 0.55185 0.36618 0.0
H820 H 0.05687 0.55477 0.86731 0.0
H821 H 0.00551 0.59907 0.90476 0.0
H822 H 0.02979 0.54094 0.79783 0.0
H823 H 0.97657 0.58287 0.83596 0.0
H824 H 0.93873 0.56458 0.68887 0.0
H825 H 0.96689 0.58244 0.75787 0.0
H826 H 0.9865 0.50781 0.75453 0.0
H827 H 0.95783 0.48972 0.6866 0.0
C828 C 0.03942 0.56127 0.86171 0.0
C829 C 0.03427 0.57841 0.89429 0.0
C830 C 0.02304 0.55254 0.82097 0.0
C831 C 0.99908 0.55891 0.80925 0.0
C832 C 0.99412 0.57652 0.84161 0.0
C833 C 0.0111 0.58601 0.88225 0.0
C834 C 0.94881 0.5516 0.70253 0.0
C835 C 0.9449 0.52499 0.67981 0.0
C836 C 0.96535 0.56207 0.74328 0.0
C837 C 0.98016 0.54732 0.76451 0.0
C838 C 0.97643 0.52089 0.74137 0.0
C839 C 0.95936 0.51008 0.70125 0.0
H840 H 0.57713 0.0698 0.424 0.0
H841 H 0.48688 0.03326 0.48195 0.0
H842 H 0.59485 0.05632 0.49011 0.0
H843 H 0.50642 0.02037 0.54663 0.0
H844 H 0.56553 0.98268 0.40965 0.0
H845 H 0.58629 0.00671 0.47842 0.0
H846 H 0.49446 0.96995 0.52899 0.0
H847 H 0.47309 0.94406 0.46097 0.0
C848 C 0.56067 0.05746 0.44947 0.0
C849 C 0.52898 0.04755 0.4445 0.0
C850 C 0.57097 0.05083 0.48809 0.0
C851 C 0.54839 0.02796 0.51505 0.0
C852 C 0.52194 0.03102 0.5196 0.0
C853 C 0.51029 0.03719 0.48193 0.0
C854 C 0.54954 0.97919 0.43549 0.0
C855 C 0.51747 0.96329 0.42846 0.0
C856 C 0.56146 0.99256 0.47554 0.0
C857 C 0.54169 0.99559 0.50518 0.0
C858 C 0.51037 0.97224 0.50354 0.0
C859 C 0.49792 0.95815 0.46397 0.0
H860 H 0.41167 0.44473 0.79035 0.0
H861 H 0.49294 0.45771 0.72387 0.0
H862 H 0.4401 0.45952 0.85821 0.0
H863 H 0.51842 0.46488 0.79335 0.0
H864 H 0.51333 0.53702 0.73999 0.0
H865 H 0.47472 0.51587 0.79666 0.0
H866 H 0.53691 0.5037 0.87883 0.0
H867 H 0.5787 0.53371 0.82779 0.0
C868 C 0.43525 0.44962 0.79046 0.0
C869 C 0.4519 0.45491 0.75162 0.0
C870 C 0.45109 0.45661 0.82984 0.0
C871 C 0.48316 0.469 0.82874 0.0
C872 C 0.49463 0.45956 0.79353 0.0
C873 C 0.48036 0.4559 0.75323 0.0
C874 C 0.51956 0.53224 0.77147 0.0
C875 C 0.54781 0.53341 0.77807 0.0
C876 C 0.49757 0.52025 0.80452 0.0
C877 C 0.50167 0.50269 0.83715 0.0
C878 C 0.53215 0.5135 0.85058 0.0
C879 C 0.55575 0.5295 0.82046 0.0
H880 H 0.96083 0.41686 0.14419 0.0
H881 H 0.03169 0.48986 1.06775 0.0
H882 H 0.97457 0.45167 0.20555 0.0
H883 H 0.04977 0.52148 0.13234 0.0
H884 H 0.97351 0.51424 1.06895 0.0
H885 H 0.95535 0.48093 0.13219 0.0
H886 H 0.03028 0.54893 0.20759 0.0
H887 H 0.04367 0.58546 0.14811 0.0
C888 C 0.98042 0.43983 0.14123 0.0
C889 C 0.99289 0.45232 1.10038 0.0
C890 C 0.98914 0.45932 0.1771 0.0
C891 C 0.00961 0.49074 0.17041 0.0
C892 C 0.03088 0.49818 0.13597 0.0
C893 C 0.02043 0.48039 1.09839 0.0
C894 C 0.98473 0.52285 1.09983 0.0
C895 C 0.01207 0.551 1.10287 0.0
C896 C 0.97422 0.50411 0.13664 0.0
C897 C 0.99538 0.51076 0.17107 0.0
C898 C 0.01578 0.54199 0.17905 0.0
C899 C 0.02435 0.56243 0.14418 0.0
H900 H 0.07263 0.57589 0.48283 0.0
H901 H 0.03672 0.48583 0.42532 0.0
H902 H 0.05807 0.59303 0.41725 0.0
H903 H 0.02351 0.50502 0.36073 0.0
H904 H 0.98386 0.56234 0.49724 0.0
H905 H 0.00801 0.58362 0.42855 0.0
H906 H 0.97287 0.49242 0.37763 0.0
H907 H 0.94758 0.47047 0.44583 0.0
C908 C 0.06021 0.5593 0.45763 0.0
C909 C 0.05089 0.52781 0.4627 0.0
C910 C 0.05304 0.56934 0.41921 0.0
C911 C 0.03044 0.54664 0.39222 0.0
C912 C 0.03394 0.52051 0.38777 0.0
C913 C 0.04024 0.50903 0.42546 0.0
C914 C 0.98083 0.5466 0.47135 0.0
C915 C 0.96539 0.51457 0.47827 0.0
C916 C 0.99422 0.5588 0.43136 0.0
C917 C 0.9978 0.53946 0.40164 0.0
C918 C 0.97485 0.50805 0.4032 0.0
C919 C 0.96107 0.4953 0.44284 0.0
H920 H 0.42515 0.96576 0.80526 0.0
H921 H 0.49782 0.94371 0.78694 0.0
H922 H 0.43441 0.98772 0.7332 0.0
H923 H 0.50643 0.96582 0.71472 0.0
H924 H 0.569 0.03654 0.75838 0.0
H925 H 0.53846 0.01731 0.69282 0.0
H926 H 0.47217 0.03951 0.74238 0.0
H927 H 0.50176 0.05896 0.80888 0.0
C928 C 0.44369 0.96638 0.78648 0.0
C929 C 0.46377 0.95694 0.80422 0.0
C930 C 0.44815 0.97772 0.74425 0.0
C931 C 0.47618 0.98523 0.72369 0.0
C932 C 0.48841 0.96583 0.7342 0.0
C933 C 0.48437 0.95411 0.7762 0.0
C934 C 0.5472 0.03632 0.75642 0.0
C935 C 0.53517 0.04465 0.79208 0.0
C936 C 0.53036 0.02666 0.71791 0.0
C937 C 0.4992 0.01911 0.7193 0.0
C938 C 0.49339 0.03871 0.74571 0.0
C939 C 0.50961 0.04878 0.78466 0.0
H940 H 0.54089 0.51097 0.16921 0.0
H941 H 0.54323 0.57978 1.0824 0.0
H942 H 0.52419 0.47491 1.10924 0.0
H943 H 0.51798 0.54063 1.02687 0.0
H944 H 0.45282 0.4109 1.09802 0.0
H945 H 0.47288 0.44485 1.03539 0.0
H946 H 0.47336 0.51744 1.10933 0.0
H947 H 0.46108 0.48651 0.17475 0.0
C948 C 0.53833 0.51852 0.13739 0.0
C949 C 0.53991 0.54698 0.1314 0.0
C950 C 0.52903 0.4981 1.10246 0.0
C951 C 0.51407 0.50373 1.06752 0.0
C952 C 0.52567 0.53465 1.05624 0.0
C953 C 0.53893 0.55672 1.08884 0.0
C954 C 0.45755 0.43437 1.10102 0.0
C955 C 0.45966 0.44766 0.14192 0.0
C956 C 0.46772 0.45337 1.06453 0.0
C957 C 0.47989 0.48502 1.07055 0.0
C958 C 0.46792 0.49376 1.10596 0.0
C959 C 0.46133 0.47635 0.14398 0.0
H960 H 0.29087 0.91393 0.67052 0.0
H961 H 0.29393 0.99022 0.74007 0.0
H962 H 0.28556 0.93547 0.60309 0.0
H963 H 0.28676 0.01108 0.67257 0.0
H964 H 0.35668 0.0618 0.5585 0.0
H965 H 0.32799 0.03689 0.62331 0.0
H966 H 0.2672 0.95592 0.549 0.0
H967 H 0.29726 0.98059 0.48423 0.0
C968 C 0.2893 0.93478 0.67146 0.0
C969 C 0.29411 0.95106 0.7102 0.0
C970 C 0.28571 0.94697 0.63277 0.0
C971 C 0.28671 0.97562 0.63221 0.0
C972 C 0.28678 0.98942 0.67182 0.0
C973 C 0.29071 0.97735 0.71056 0.0
C974 C 0.33675 0.03894 0.55588 0.0
C975 C 0.32993 0.02265 0.51684 0.0
C976 C 0.31986 0.02473 0.59298 0.0
C977 C 0.29573 0.99395 0.59165 0.0
C978 C 0.28617 0.97935 0.55127 0.0
C979 C 0.30329 0.99354 0.51411 0.0
H980 H 0.27689 0.31127 1.10074 0.0
H981 H 0.32063 0.2735 1.02035 0.0
H982 H 0.24633 0.31142 1.03903 0.0
H983 H 0.29166 0.27485 0.95871 0.0
H984 H 0.25621 0.29018 0.84592 0.0
H985 H 0.25042 0.26447 0.91447 0.0
H986 H 0.26054 0.34497 0.98109 0.0
H987 H 0.26295 0.36926 0.91249 0.0
C988 C 0.27947 0.30244 1.07001 0.0
C989 C 0.30145 0.29288 1.06501 0.0
C990 C 0.26207 0.3026 1.03461 0.0
C991 C 0.2669 0.29386 0.99339 0.0
C992 C 0.28682 0.28151 0.98971 0.0
C993 C 0.30376 0.2809 1.02517 0.0
C994 C 0.25558 0.30187 0.87498 0.0
C995 C 0.26158 0.33251 0.87367 0.0
C996 C 0.25274 0.2872 0.91456 0.0
C997 C 0.25678 0.30321 0.95352 0.0
C998 C 0.25788 0.33191 0.95199 0.0
C999 C 0.25982 0.3462 0.9124 0.0
H1000 H 0.89092 0.25469 0.21934 0.0
H1001 H 0.9866 0.28509 0.19127 0.0
H1002 H 0.90053 0.25148 0.29597 0.0
H1003 H 0.99656 0.28307 0.26761 0.0
H1004 H 0.01745 0.29494 0.40265 0.0
H1005 H 0.99173 0.26289 0.33975 0.0
H1006 H 0.92786 0.29785 0.33809 0.0
H1007 H 0.95323 0.32937 0.40046 0.0
C1008 C 0.91371 0.25948 0.22933 0.0
C1009 C 0.93828 0.27102 0.19971 0.0
C1010 C 0.91927 0.25785 0.27326 0.0
C1011 C 0.94947 0.26794 0.28806 0.0
C1012 C 0.97301 0.27522 0.25753 0.0
C1013 C 0.96743 0.27673 0.21371 0.0
C1014 C 0.9974 0.2951 0.38934 0.0
C1015 C 0.98781 0.31522 0.40572 0.0
C1016 C 0.98261 0.27665 0.35353 0.0
C1017 C 0.95811 0.2782 0.3334 0.0
C1018 C 0.94646 0.29578 0.35286 0.0
C1019 C 0.96117 0.3141 0.38865 0.0
H1020 H 0.65438 0.95226 0.75961 0.0
H1021 H 0.70763 0.03408 0.68262 0.0
H1022 H 0.65276 0.92032 0.69883 0.0
H1023 H 0.70562 0.00231 0.62183 0.0
H1024 H 0.69972 0.94448 0.51475 0.0
H1025 H 0.71672 0.96332 0.58808 0.0
H1026 H 0.6222 0.91283 0.63211 0.0
H1027 H 0.60515 0.89491 0.55955 0.0
C1028 C 0.66649 0.96344 0.73011 0.0
C1029 C 0.68067 0.99559 0.72544 0.0
C1030 C 0.6655 0.94516 0.69536 0.0
C1031 C 0.67887 0.95878 0.65551 0.0
C1032 C 0.69535 0.99109 0.6522 0.0
C1033 C 0.69615 0.00931 0.68679 0.0
C1034 C 0.68267 0.93677 0.54032 0.0
C1035 C 0.65096 0.91893 0.53086 0.0
C1036 C 0.69245 0.94746 0.58231 0.0
C1037 C 0.67072 0.94007 0.61558 0.0
C1038 C 0.63956 0.91889 0.60724 0.0
C1039 C 0.62976 0.9085 0.56532 0.0
H1040 H 0.71619 0.71644 1.08211 0.0
H1041 H 0.65213 0.7275 1.00013 0.0
H1042 H 0.74502 0.71642 1.01856 0.0
H1043 H 0.67971 0.72582 0.93673 0.0
H1044 H 0.72043 0.71112 0.82477 0.0
H1045 H 0.72143 0.7405 0.8881 0.0
H1046 H 0.729 0.67441 0.97038 0.0
H1047 H 0.72968 0.64624 0.90718 0.0
C1048 C 0.70881 0.71984 1.05062 0.0
C1049 C 0.68141 0.72111 1.04593 0.0
C1050 C 0.72518 0.71955 1.01415 0.0
C1051 C 0.71424 0.72023 0.97244 0.0
C1052 C 0.68893 0.72521 0.9682 0.0
C1053 C 0.67277 0.72575 1.00459 0.0
C1054 C 0.72364 0.70365 0.8563 0.0
C1055 C 0.72411 0.67591 0.86119 0.0
C1056 C 0.72394 0.72035 0.89265 0.0
C1057 C 0.72443 0.70941 0.93444 0.0
C1058 C 0.72858 0.68365 0.93884 0.0
C1059 C 0.72853 0.66716 0.90257 0.0
H1060 H 0.06267 0.7159 0.24079 0.0
H1061 H 0.98937 0.70551 0.15577 0.0
H1062 H 0.03173 0.71255 0.30297 0.0
H1063 H 0.95855 0.7035 0.21832 0.0
H1064 H 0.97744 0.70046 0.41283 0.0
H1065 H 0.00508 0.72899 0.3491 0.0
H1066 H 0.9314 0.66256 0.26841 0.0
H1067 H 0.9026 0.63536 0.33235 0.0
C1068 C 0.04021 0.71377 0.23546 0.0
C1069 C 0.02815 0.71023 0.19355 0.0
C1070 C 0.02252 0.71228 0.27116 0.0
C1071 C 0.99235 0.70735 0.26578 0.0
C1072 C 0.98147 0.70679 0.22362 0.0
C1073 C 0.99922 0.7082 0.18778 0.0
C1074 C 0.9663 0.69268 0.38174 0.0
C1075 C 0.93817 0.66488 0.37772 0.0
C1076 C 0.98246 0.70891 0.34501 0.0
C1077 C 0.97111 0.69741 0.30355 0.0
C1078 C 0.94111 0.67203 0.29975 0.0
C1079 C 0.92471 0.65608 0.33652 0.0
H1080 H 0.49603 0.10092 0.52816 0.0
H1081 H 0.58779 0.12486 0.48887 0.0
H1082 H 0.51065 0.10123 0.60432 0.0
H1083 H 0.60233 0.12467 0.56458 0.0
H1084 H 0.54857 0.12203 0.74875 0.0
H1085 H 0.53367 0.12176 0.67304 0.0
H1086 H 0.60586 0.10401 0.63267 0.0
H1087 H 0.62038 0.10383 0.70873 0.0
C1088 C 0.51955 0.10658 0.53508 0.0
C1089 C 0.54032 0.11331 0.49963 0.0
C1090 C 0.52824 0.10674 0.58005 0.0
C1091 C 0.55833 0.11304 0.59375 0.0
C1092 C 0.57891 0.11944 0.55808 0.0
C1093 C 0.57038 0.11981 0.5133 0.0
C1094 C 0.56176 0.11826 0.72416 0.0
C1095 C 0.58653 0.11345 0.73759 0.0
C1096 C 0.55279 0.11784 0.67939 0.0
C1097 C 0.56804 0.11303 0.64356 0.0
C1098 C 0.59293 0.10828 0.65707 0.0
C1099 C 0.60155 0.10818 0.70199 0.0
H1100 H 0.46296 0.56511 0.81973 0.0
H1101 H 0.39415 0.47747 0.8697 0.0
H1102 H 0.48099 0.58331 0.89288 0.0
H1103 H 0.41222 0.49565 0.94366 0.0
H1104 H 0.43828 0.53835 1.08321 0.0
H1105 H 0.42049 0.52003 1.01009 0.0
H1106 H 0.50594 0.5929 0.95921 0.0
H1107 H 0.52381 0.61118 1.0332 0.0
C1108 C 0.45116 0.54932 0.84609 0.0
C1109 C 0.42625 0.51925 0.83613 0.0
C1110 C 0.46202 0.56004 0.88944 0.0
C1111 C 0.44887 0.54182 0.92735 0.0
C1112 C 0.42375 0.51163 0.91744 0.0
C1113 C 0.41299 0.50078 0.87379 0.0
C1114 C 0.45374 0.55092 1.05687 0.0
C1115 C 0.48316 0.57692 1.06688 0.0
C1116 C 0.44323 0.53992 1.01352 0.0
C1117 C 0.46095 0.5541 0.97558 0.0
C1118 C 0.49039 0.58046 0.98547 0.0
C1119 C 0.50106 0.59133 1.02915 0.0
H1120 H 0.90548 0.38265 0.19888 0.0
H1121 H 0.89913 0.46102 0.15554 0.0
H1122 H 0.90202 0.3964 0.27451 0.0
H1123 H 0.89599 0.47484 0.22995 0.0
H1124 H 0.90502 0.5092 0.37361 0.0
H1125 H 0.90849 0.49467 0.29895 0.0
H1126 H 0.88389 0.40341 0.3419 0.0
H1127 H 0.88045 0.41814 0.41644 0.0
C1128 C 0.90325 0.40282 0.20463 0.0
C1129 C 0.90266 0.42015 0.1681 0.0
C1130 C 0.9012 0.41103 0.24933 0.0
C1131 C 0.89867 0.43747 0.26169 0.0
C1132 C 0.89816 0.45459 0.22492 0.0
C1133 C 0.89989 0.44626 0.18063 0.0
C1134 C 0.89992 0.4858 0.36774 0.0
C1135 C 0.89188 0.46529 0.4038 0.0
C1136 C 0.90197 0.47709 0.32352 0.0
C1137 C 0.89647 0.4471 0.311 0.0
C1138 C 0.88866 0.42674 0.34732 0.0
C1139 C 0.88638 0.43538 0.39145 0.0
H1140 H 0.42549 0.87822 0.48952 0.0
H1141 H 0.516 0.89743 0.52815 0.0
H1142 H 0.41138 0.87827 0.56547 0.0
H1143 H 0.50186 0.8971 0.60446 0.0
H1144 H 0.46503 0.87714 0.74936 0.0
H1145 H 0.47933 0.87772 0.67344 0.0
H1146 H 0.40788 0.8972 0.63488 0.0
H1147 H 0.39391 0.89702 0.71131 0.0
C1148 C 0.44274 0.88227 0.51381 0.0
C1149 C 0.4723 0.88745 0.49975 0.0
C1150 C 0.43446 0.88252 0.55881 0.0
C1151 C 0.45479 0.88757 0.59447 0.0
C1152 C 0.48441 0.89267 0.58035 0.0
C1153 C 0.49285 0.89288 0.5352 0.0
C1154 C 0.45189 0.88144 0.72519 0.0
C1155 C 0.4275 0.88661 0.73942 0.0
C1156 C 0.46051 0.88201 0.68019 0.0
C1157 C 0.44534 0.8874 0.64464 0.0
C1158 C 0.42081 0.89251 0.65891 0.0
C1159 C 0.41248 0.89241 0.70411 0.0
H1160 H 0.5394 0.43201 0.82243 0.0
H1161 H 0.61262 0.51678 0.87323 0.0
H1162 H 0.52073 0.41386 0.89538 0.0
H1163 H 0.59398 0.4986 0.94696 0.0
H1164 H 0.56545 0.45606 1.08577 0.0
H1165 H 0.58377 0.47407 1.01283 0.0
H1166 H 0.49639 0.40478 0.96189 0.0
H1167 H 0.47804 0.38663 1.03589 0.0
C1168 C 0.55196 0.44723 0.84891 0.0
C1169 C 0.57814 0.47658 0.83922 0.0
C1170 C 0.54077 0.43651 0.89215 0.0
C1171 C 0.55492 0.45395 0.93021 0.0
C1172 C 0.58152 0.48326 0.92061 0.0
C1173 C 0.59262 0.49412 0.87708 0.0
C1174 C 0.54969 0.44415 1.05945 0.0
C1175 C 0.51964 0.41911 1.06943 0.0
C1176 C 0.56051 0.45501 1.01619 0.0
C1177 C 0.54243 0.44174 0.9783 0.0
C1178 C 0.51226 0.41643 0.98814 0.0
C1179 C 0.5013 0.40563 1.0318 0.0
H1180 H 0.09752 0.49528 0.37167 0.0
H1181 H 0.12819 0.58769 0.41411 0.0
H1182 H 0.09397 0.51038 0.29723 0.0
H1183 H 0.12449 0.60293 0.33977 0.0
H1184 H 0.09982 0.6237 0.19805 0.0
H1185 H 0.10362 0.60962 0.27357 0.0
H1186 H 0.10892 0.53107 0.22837 0.0
H1187 H 0.10559 0.54527 0.15407 0.0
C1188 C 0.10399 0.51908 0.36572 0.0
C1189 C 0.11374 0.5398 0.40152 0.0
C1190 C 0.10188 0.52809 0.32169 0.0
C1191 C 0.10894 0.5586 0.30927 0.0
C1192 C 0.11848 0.57922 0.3453 0.0
C1193 C 0.12094 0.57028 0.38922 0.0
C1194 C 0.10199 0.60345 0.20367 0.0
C1195 C 0.10229 0.58617 0.16709 0.0
C1196 C 0.10423 0.59506 0.24823 0.0
C1197 C 0.10661 0.56847 0.26023 0.0
C1198 C 0.10683 0.5514 0.22344 0.0
C1199 C 0.10499 0.55993 0.17928 0.0
loop_
_geom_bond_atom_site_label_1
_geom_bond_atom_site_label_2
_geom_bond_distance
_geom_bond_site_symmetry_2
_ccdc_geom_bond_type
Eu0 C9 2.828 . S
Eu0 O11 2.392 . S
Eu0 O13 2.418 . S
Eu0 O18 2.373 . S
Eu0 O21 2.488 . S
Eu0 O22 2.471 . S
Eu0 O23 2.349 . S
Eu1 O10 2.373 . S
Eu1 O14 2.488 . S
Eu1 O15 2.471 . S
Eu1 O16 2.349 . S
Eu1 O19 2.392 . S
Eu1 O20 2.418 . S
Eu1 C30 2.828 . S
C2 O20 1.244 . S
C2 O23 1.265 . S
C3 C4 1.379 . S
C3 C7 1.373 . S
C3 C9 1.505 . S
C4 C3 1.379 . S
C4 C6 1.369 . S
C4 H32 0.930 . S
C5 C7 1.383 . S
C5 C8 1.382 . S
C5 H33 0.930 . S
C6 C4 1.369 . S
C6 C8 1.392 . S
C6 H34 0.930 . S
C7 C3 1.373 . S
C7 C5 1.383 . S
C7 H35 0.931 . S
C8 C5 1.382 . S
C8 C6 1.392 . S
C9 Eu0 2.828 . S
C9 C3 1.505 . S
C9 O21 1.249 . S
C9 O22 1.244 . S
O10 Eu1 2.373 . S
O10 C12 1.258 . S
O11 Eu0 2.392 . S
O11 C12 1.242 . S
C12 O10 1.258 . S
C12 O11 1.242 . S
O13 Eu0 2.418 . S
O13 C17 1.244 . S
O14 Eu1 2.488 . S
O14 C30 1.249 . S
O15 Eu1 2.471 . S
O15 C30 1.244 . S
O16 Eu1 2.349 . S
O16 C17 1.265 . S
C17 O13 1.244 . S
C17 O16 1.265 . S
O18 Eu0 2.373 . S
O18 C31 1.258 . S
O19 Eu1 2.392 . S
O19 C31 1.242 . S
O20 Eu1 2.418 . S
O20 C2 1.244 . S
O21 Eu0 2.488 . S
O21 C9 1.249 . S
O22 Eu0 2.471 . S
O22 C9 1.244 . S
O23 Eu0 2.349 . S
O23 C2 1.265 . S
C24 C25 1.379 . S
C24 C28 1.373 . S
C24 C30 1.505 . S
C25 C24 1.379 . S
C25 C27 1.369 . S
C25 H36 0.930 . S
C26 C28 1.383 . S
C26 C29 1.382 . S
C26 H37 0.930 . S
C27 C25 1.369 . S
C27 C29 1.392 . S
C27 H38 0.930 . S
C28 C24 1.373 . S
C28 C26 1.383 . S
C28 H39 0.931 . S
C29 C26 1.382 . S
C29 C27 1.392 . S
C30 Eu1 2.828 . S
C30 O14 1.249 . S
C30 O15 1.244 . S
C30 C24 1.505 . S
C31 O18 1.258 . S
C31 O19 1.242 . S
H32 C4 0.930 . S
H33 C5 0.930 . S
H34 C6 0.930 . S
H35 C7 0.931 . S
H36 C25 0.930 . S
H37 C26 0.930 . S
H38 C27 0.930 . S
H39 C28 0.931 . S
Eu40 C49 2.828 . S
Eu40 O51 2.392 . S
Eu40 O53 2.418 . S
Eu40 O58 2.373 . S
Eu40 O61 2.488 . S
Eu40 O62 2.471 . S
Eu40 O63 2.349 . S
Eu41 O50 2.373 . S
Eu41 O54 2.488 . S
Eu41 O55 2.471 . S
Eu41 O56 2.349 . S
Eu41 O59 2.392 . S
Eu41 O60 2.418 . S
Eu41 C70 2.828 . S
C42 O60 1.244 . S
C42 O63 1.265 . S
C43 C44 1.379 . S
C43 C47 1.373 . S
C43 C49 1.505 . S
C44 C43 1.379 . S
C44 C46 1.369 . S
C44 H72 0.930 . S
C45 C47 1.383 . S
C45 C48 1.382 . S
C45 H73 0.930 . S
C46 C44 1.369 . S
C46 C48 1.392 . S
C46 H74 0.930 . S
C47 C43 1.373 . S
C47 C45 1.383 . S
C47 H75 0.931 . S
C48 C45 1.382 . S
C48 C46 1.392 . S
C49 Eu40 2.828 . S
C49 C43 1.505 . S
C49 O61 1.249 . S
C49 O62 1.244 . S
O50 Eu41 2.373 . S
O50 C52 1.258 . S
O51 Eu40 2.392 . S
O51 C52 1.242 . S
C52 O50 1.258 . S
C52 O51 1.242 . S
O53 Eu40 2.418 . S
O53 C57 1.244 . S
O54 Eu41 2.488 . S
O54 C70 1.249 . S
O55 Eu41 2.471 . S
O55 C70 1.244 . S
O56 Eu41 2.349 . S
O56 C57 1.265 . S
C57 O53 1.244 . S
C57 O56 1.265 . S
O58 Eu40 2.373 . S
O58 C71 1.258 . S
O59 Eu41 2.392 . S
O59 C71 1.242 . S
O60 Eu41 2.418 . S
O60 C42 1.244 . S
O61 Eu40 2.488 . S
O61 C49 1.249 . S
O62 Eu40 2.471 . S
O62 C49 1.244 . S
O63 Eu40 2.349 . S
O63 C42 1.265 . S
C64 C65 1.379 . S
C64 C68 1.373 . S
C64 C70 1.505 . S
C65 C64 1.379 . S
C65 C67 1.369 . S
C65 H76 0.930 . S
C66 C68 1.383 . S
C66 C69 1.382 . S
C66 H77 0.930 . S
C67 C65 1.369 . S
C67 C69 1.392 . S
C67 H78 0.930 . S
C68 C64 1.373 . S
C68 C66 1.383 . S
C68 H79 0.931 . S
C69 C66 1.382 . S
C69 C67 1.392 . S
C70 Eu41 2.828 . S
C70 O54 1.249 . S
C70 O55 1.244 . S
C70 C64 1.505 . S
C71 O58 1.258 . S
C71 O59 1.242 . S
H72 C44 0.930 . S
H73 C45 0.930 . S
H74 C46 0.930 . S
H75 C47 0.931 . S
H76 C65 0.930 . S
H77 C66 0.930 . S
H78 C67 0.930 . S
H79 C68 0.931 . S
Eu80 C89 2.828 1_556 S
Eu80 O91 2.392 . S
Eu80 O93 2.418 . S
Eu80 O98 2.373 . S
Eu80 O101 2.488 . S
Eu80 O102 2.471 . S
Eu80 O103 2.349 . S
Eu81 O90 2.373 . S
Eu81 O94 2.488 . S
Eu81 O95 2.471 . S
Eu81 O96 2.349 . S
Eu81 O99 2.392 . S
Eu81 O100 2.418 . S
Eu81 C110 2.828 . S
C82 O100 1.244 . S
C82 O103 1.265 . S
C83 C84 1.379 . S
C83 C87 1.373 . S
C83 C89 1.505 . S
C84 C83 1.379 . S
C84 C86 1.369 . S
C84 H112 0.930 . S
C85 C87 1.383 . S
C85 C88 1.382 . S
C85 H113 0.930 . S
C86 C84 1.369 . S
C86 C88 1.392 . S
C86 H114 0.930 . S
C87 C83 1.373 . S
C87 C85 1.383 . S
C87 H115 0.931 . S
C88 C85 1.382 . S
C88 C86 1.392 . S
C89 Eu80 2.828 1_554 S
C89 C83 1.505 . S
C89 O101 1.249 1_554 S
C89 O102 1.244 1_554 S
O90 Eu81 2.373 . S
O90 C92 1.258 . S
O91 Eu80 2.392 . S
O91 C92 1.242 . S
C92 O90 1.258 . S
C92 O91 1.242 . S
O93 Eu80 2.418 . S
O93 C97 1.244 . S
O94 Eu81 2.488 . S
O94 C110 1.249 . S
O95 Eu81 2.471 . S
O95 C110 1.244 . S
O96 Eu81 2.349 . S
O96 C97 1.265 . S
C97 O93 1.244 . S
C97 O96 1.265 . S
O98 Eu80 2.373 . S
O98 C111 1.258 . S
O99 Eu81 2.392 . S
O99 C111 1.242 . S
O100 Eu81 2.418 . S
O100 C82 1.244 . S
O101 Eu80 2.488 . S
O101 C89 1.249 1_556 S
O102 Eu80 2.471 . S
O102 C89 1.244 1_556 S
O103 Eu80 2.349 . S
O103 C82 1.265 . S
C104 C105 1.379 . S
C104 C108 1.373 . S
C104 C110 1.505 . S
C105 C104 1.379 . S
C105 C107 1.369 . S
C105 H116 0.930 . S
C106 C108 1.383 . S
C106 C109 1.382 . S
C106 H117 0.930 . S
C107 C105 1.369 . S
C107 C109 1.392 . S
C107 H118 0.930 . S
C108 C104 1.373 . S
C108 C106 1.383 . S
C108 H119 0.931 . S
C109 C106 1.382 . S
C109 C107 1.392 . S
C110 Eu81 2.828 . S
C110 O94 1.249 . S
C110 O95 1.244 . S
C110 C104 1.505 . S
C111 O98 1.258 . S
C111 O99 1.242 . S
H112 C84 0.930 . S
H113 C85 0.930 . S
H114 C86 0.930 . S
H115 C87 0.931 . S
H116 C105 0.930 . S
H117 C106 0.930 . S
H118 C107 0.930 . S
H119 C108 0.931 . S
Eu120 C129 2.828 . S
Eu120 O131 2.392 . S
Eu120 O133 2.418 . S
Eu120 O138 2.373 . S
Eu120 O141 2.488 . S
Eu120 O142 2.471 . S
Eu120 O143 2.349 . S
Eu121 O130 2.373 . S
Eu121 O134 2.488 . S
Eu121 O135 2.471 . S
Eu121 O136 2.349 . S
Eu121 O139 2.392 . S
Eu121 O140 2.418 . S
Eu121 C150 2.828 . S
C122 O140 1.244 . S
C122 O143 1.265 . S
C123 C124 1.379 . S
C123 C127 1.373 . S
C123 C129 1.505 . S
C124 C123 1.379 . S
C124 C126 1.369 . S
C124 H152 0.930 . S
C125 C127 1.383 . S
C125 C128 1.382 . S
C125 H153 0.930 . S
C126 C124 1.369 . S
C126 C128 1.392 . S
C126 H154 0.930 . S
C127 C123 1.373 . S
C127 C125 1.383 . S
C127 H155 0.931 . S
C128 C125 1.382 . S
C128 C126 1.392 . S
C129 Eu120 2.828 . S
C129 C123 1.505 . S
C129 O141 1.249 . S
C129 O142 1.244 . S
O130 Eu121 2.373 . S
O130 C132 1.258 . S
O131 Eu120 2.392 . S
O131 C132 1.242 . S
C132 O130 1.258 . S
C132 O131 1.242 . S
O133 Eu120 2.418 . S
O133 C137 1.244 . S
O134 Eu121 2.488 . S
O134 C150 1.249 . S
O135 Eu121 2.471 . S
O135 C150 1.244 . S
O136 Eu121 2.349 . S
O136 C137 1.265 . S
C137 O133 1.244 . S
C137 O136 1.265 . S
O138 Eu120 2.373 . S
O138 C151 1.258 . S
O139 Eu121 2.392 . S
O139 C151 1.242 . S
O140 Eu121 2.418 . S
O140 C122 1.244 . S
O141 Eu120 2.488 . S
O141 C129 1.249 . S
O142 Eu120 2.471 . S
O142 C129 1.244 . S
O143 Eu120 2.349 . S
O143 C122 1.265 . S
C144 C145 1.379 . S
C144 C148 1.373 . S
C144 C150 1.505 . S
C145 C144 1.379 . S
C145 C147 1.369 . S
C145 H156 0.930 . S
C146 C148 1.383 . S
C146 C149 1.382 . S
C146 H157 0.930 . S
C147 C145 1.369 . S
C147 C149 1.392 . S
C147 H158 0.930 . S
C148 C144 1.373 . S
C148 C146 1.383 . S
C148 H159 0.931 . S
C149 C146 1.382 . S
C149 C147 1.392 . S
C150 Eu121 2.828 . S
C150 O134 1.249 . S
C150 O135 1.244 . S
C150 C144 1.505 . S
C151 O138 1.258 . S
C151 O139 1.242 . S
H152 C124 0.930 . S
H153 C125 0.930 . S
H154 C126 0.930 . S
H155 C127 0.931 . S
H156 C145 0.930 . S
H157 C146 0.930 . S
H158 C147 0.930 . S
H159 C148 0.931 . S
Eu160 C169 2.828 . S
Eu160 O171 2.392 . S
Eu160 O173 2.418 . S
Eu160 O178 2.373 . S
Eu160 O181 2.488 . S
Eu160 O182 2.471 . S
Eu160 O183 2.349 . S
Eu161 O170 2.373 . S
Eu161 O174 2.488 . S
Eu161 O175 2.471 . S
Eu161 O176 2.349 . S
Eu161 O179 2.392 . S
Eu161 O180 2.418 . S
Eu161 C190 2.828 . S
C162 O180 1.244 . S
C162 O183 1.265 . S
C163 C164 1.379 . S
C163 C167 1.373 . S
C163 C169 1.505 . S
C164 C163 1.379 . S
C164 C166 1.369 . S
C164 H192 0.930 . S
C165 C167 1.383 . S
C165 C168 1.382 . S
C165 H193 0.930 . S
C166 C164 1.369 . S
C166 C168 1.392 . S
C166 H194 0.930 . S
C167 C163 1.373 . S
C167 C165 1.383 . S
C167 H195 0.931 . S
C168 C165 1.382 . S
C168 C166 1.392 . S
C169 Eu160 2.828 . S
C169 C163 1.505 . S
C169 O181 1.249 . S
C169 O182 1.244 . S
O170 Eu161 2.373 . S
O170 C172 1.258 . S
O171 Eu160 2.392 . S
O171 C172 1.242 . S
C172 O170 1.258 . S
C172 O171 1.242 . S
O173 Eu160 2.418 . S
O173 C177 1.244 . S
O174 Eu161 2.488 . S
O174 C190 1.249 . S
O175 Eu161 2.471 . S
O175 C190 1.244 . S
O176 Eu161 2.349 . S
O176 C177 1.265 . S
C177 O173 1.244 . S
C177 O176 1.265 . S
O178 Eu160 2.373 . S
O178 C191 1.258 . S
O179 Eu161 2.392 . S
O179 C191 1.242 . S
O180 Eu161 2.418 . S
O180 C162 1.244 . S
O181 Eu160 2.488 . S
O181 C169 1.249 . S
O182 Eu160 2.471 . S
O182 C169 1.244 . S
O183 Eu160 2.349 . S
O183 C162 1.265 . S
C184 C185 1.379 . S
C184 C188 1.373 . S
C184 C190 1.505 . S
C185 C184 1.379 . S
C185 C187 1.369 . S
C185 H196 0.930 . S
C186 C188 1.383 . S
C186 C189 1.382 . S
C186 H197 0.930 . S
C187 C185 1.369 . S
C187 C189 1.392 . S
C187 H198 0.930 . S
C188 C184 1.373 . S
C188 C186 1.383 . S
C188 H199 0.931 . S
C189 C186 1.382 . S
C189 C187 1.392 . S
C190 Eu161 2.828 . S
C190 O174 1.249 . S
C190 O175 1.244 . S
C190 C184 1.505 . S
C191 O178 1.258 . S
C191 O179 1.242 . S
H192 C164 0.930 . S
H193 C165 0.930 . S
H194 C166 0.930 . S
H195 C167 0.931 . S
H196 C185 0.930 . S
H197 C186 0.930 . S
H198 C187 0.930 . S
H199 C188 0.931 . S
Eu200 C209 2.828 1_556 S
Eu200 O211 2.392 . S
Eu200 O213 2.418 . S
Eu200 O218 2.373 . S
Eu200 O221 2.488 . S
Eu200 O222 2.471 . S
Eu200 O223 2.349 . S
Eu201 O210 2.373 . S
Eu201 O214 2.488 . S
Eu201 O215 2.471 . S
Eu201 O216 2.349 . S
Eu201 O219 2.392 . S
Eu201 O220 2.418 . S
Eu201 C230 2.828 . S
C202 O220 1.244 . S
C202 O223 1.265 . S
C203 C204 1.379 . S
C203 C207 1.373 . S
C203 C209 1.505 . S
C204 C203 1.379 . S
C204 C206 1.369 . S
C204 H232 0.930 . S
C205 C207 1.383 . S
C205 C208 1.382 . S
C205 H233 0.930 . S
C206 C204 1.369 . S
C206 C208 1.392 . S
C206 H234 0.930 . S
C207 C203 1.373 . S
C207 C205 1.383 . S
C207 H235 0.931 . S
C208 C205 1.382 . S
C208 C206 1.392 . S
C209 Eu200 2.828 1_554 S
C209 C203 1.505 . S
C209 O221 1.249 1_554 S
C209 O222 1.244 1_554 S
O210 Eu201 2.373 . S
O210 C212 1.258 . S
O211 Eu200 2.392 . S
O211 C212 1.242 . S
C212 O210 1.258 . S
C212 O211 1.242 . S
O213 Eu200 2.418 . S
O213 C217 1.244 . S
O214 Eu201 2.488 . S
O214 C230 1.249 . S
O215 Eu201 2.471 . S
O215 C230 1.244 . S
O216 Eu201 2.349 . S
O216 C217 1.265 . S
C217 O213 1.244 . S
C217 O216 1.265 . S
O218 Eu200 2.373 . S
O218 C231 1.258 . S
O219 Eu201 2.392 . S
O219 C231 1.242 . S
O220 Eu201 2.418 . S
O220 C202 1.244 . S
O221 Eu200 2.488 . S
O221 C209 1.249 1_556 S
O222 Eu200 2.471 . S
O222 C209 1.244 1_556 S
O223 Eu200 2.349 . S
O223 C202 1.265 . S
C224 C225 1.379 . S
C224 C228 1.373 . S
C224 C230 1.505 . S
C225 C224 1.379 . S
C225 C227 1.369 . S
C225 H236 0.930 . S
C226 C228 1.383 . S
C226 C229 1.382 . S
C226 H237 0.930 . S
C227 C225 1.369 . S
C227 C229 1.392 . S
C227 H238 0.930 . S
C228 C224 1.373 . S
C228 C226 1.383 . S
C228 H239 0.931 . S
C229 C226 1.382 . S
C229 C227 1.392 . S
C230 Eu201 2.828 . S
C230 O214 1.249 . S
C230 O215 1.244 . S
C230 C224 1.505 . S
C231 O218 1.258 . S
C231 O219 1.242 . S
H232 C204 0.930 . S
H233 C205 0.930 . S
H234 C206 0.930 . S
H235 C207 0.931 . S
H236 C225 0.930 . S
H237 C226 0.930 . S
H238 C227 0.930 . S
H239 C228 0.931 . S
Eu240 C249 2.828 . S
Eu240 O251 2.392 . S
Eu240 O253 2.418 . S
Eu240 O258 2.373 . S
Eu240 O261 2.488 . S
Eu240 O262 2.471 . S
Eu240 O263 2.349 . S
Eu241 O250 2.373 . S
Eu241 O254 2.488 . S
Eu241 O255 2.471 . S
Eu241 O256 2.349 . S
Eu241 O259 2.392 . S
Eu241 O260 2.418 . S
Eu241 C270 2.828 . S
C242 O260 1.244 . S
C242 O263 1.265 . S
C243 C244 1.379 . S
C243 C247 1.373 . S
C243 C249 1.505 . S
C244 C243 1.379 . S
C244 C246 1.369 . S
C244 H272 0.930 . S
C245 C247 1.383 . S
C245 C248 1.382 . S
C245 H273 0.930 . S
C246 C244 1.369 . S
C246 C248 1.392 . S
C246 H274 0.930 . S
C247 C243 1.373 . S
C247 C245 1.383 . S
C247 H275 0.931 . S
C248 C245 1.382 . S
C248 C246 1.392 . S
C249 Eu240 2.828 . S
C249 C243 1.505 . S
C249 O261 1.249 . S
C249 O262 1.244 . S
O250 Eu241 2.373 . S
O250 C252 1.258 . S
O251 Eu240 2.392 . S
O251 C252 1.242 . S
C252 O250 1.258 . S
C252 O251 1.242 . S
O253 Eu240 2.418 . S
O253 C257 1.244 . S
O254 Eu241 2.488 . S
O254 C270 1.249 . S
O255 Eu241 2.471 . S
O255 C270 1.244 . S
O256 Eu241 2.349 . S
O256 C257 1.265 . S
C257 O253 1.244 . S
C257 O256 1.265 . S
O258 Eu240 2.373 . S
O258 C271 1.258 . S
O259 Eu241 2.392 . S
O259 C271 1.242 . S
O260 Eu241 2.418 . S
O260 C242 1.244 . S
O261 Eu240 2.488 . S
O261 C249 1.249 . S
O262 Eu240 2.471 . S
O262 C249 1.244 . S
O263 Eu240 2.349 . S
O263 C242 1.265 . S
C264 C265 1.379 . S
C264 C268 1.373 . S
C264 C270 1.505 . S
C265 C264 1.379 . S
C265 C267 1.369 . S
C265 H276 0.930 . S
C266 C268 1.383 . S
C266 C269 1.382 . S
C266 H277 0.930 . S
C267 C265 1.369 . S
C267 C269 1.392 . S
C267 H278 0.930 . S
C268 C264 1.373 . S
C268 C266 1.383 . S
C268 H279 0.931 . S
C269 C266 1.382 . S
C269 C267 1.392 . S
C270 Eu241 2.828 . S
C270 O254 1.249 . S
C270 O255 1.244 . S
C270 C264 1.505 . S
C271 O258 1.258 . S
C271 O259 1.242 . S
H272 C244 0.930 . S
H273 C245 0.930 . S
H274 C246 0.930 . S
H275 C247 0.931 . S
H276 C265 0.930 . S
H277 C266 0.930 . S
H278 C267 0.930 . S
H279 C268 0.931 . S
Eu280 C289 2.828 . S
Eu280 O291 2.392 . S
Eu280 O293 2.418 . S
Eu280 O298 2.373 . S
Eu280 O301 2.488 . S
Eu280 O302 2.471 . S
Eu280 O303 2.349 . S
Eu281 O290 2.373 . S
Eu281 O294 2.488 . S
Eu281 O295 2.471 . S
Eu281 O296 2.349 . S
Eu281 O299 2.392 . S
Eu281 O300 2.418 . S
Eu281 C310 2.828 . S
C282 O300 1.244 . S
C282 O303 1.265 . S
C283 C284 1.379 . S
C283 C287 1.373 . S
C283 C289 1.505 . S
C284 C283 1.379 . S
C284 C286 1.369 . S
C284 H312 0.930 . S
C285 C287 1.383 . S
C285 C288 1.382 . S
C285 H313 0.930 . S
C286 C284 1.369 . S
C286 C288 1.392 . S
C286 H314 0.930 . S
C287 C283 1.373 . S
C287 C285 1.383 . S
C287 H315 0.931 . S
C288 C285 1.382 . S
C288 C286 1.392 . S
C289 Eu280 2.828 . S
C289 C283 1.505 . S
C289 O301 1.249 . S
C289 O302 1.244 . S
O290 Eu281 2.373 . S
O290 C292 1.258 . S
O291 Eu280 2.392 . S
O291 C292 1.242 . S
C292 O290 1.258 . S
C292 O291 1.242 . S
O293 Eu280 2.418 . S
O293 C297 1.244 . S
O294 Eu281 2.488 . S
O294 C310 1.249 . S
O295 Eu281 2.471 . S
O295 C310 1.244 . S
O296 Eu281 2.349 . S
O296 C297 1.265 . S
C297 O293 1.244 . S
C297 O296 1.265 . S
O298 Eu280 2.373 . S
O298 C311 1.258 . S
O299 Eu281 2.392 . S
O299 C311 1.242 . S
O300 Eu281 2.418 . S
O300 C282 1.244 . S
O301 Eu280 2.488 . S
O301 C289 1.249 . S
O302 Eu280 2.471 . S
O302 C289 1.244 . S
O303 Eu280 2.349 . S
O303 C282 1.265 . S
C304 C305 1.379 . S
C304 C308 1.373 . S
C304 C310 1.505 . S
C305 C304 1.379 . S
C305 C307 1.369 . S
C305 H316 0.930 . S
C306 C308 1.383 . S
C306 C309 1.382 . S
C306 H317 0.930 . S
C307 C305 1.369 . S
C307 C309 1.392 . S
C307 H318 0.930 . S
C308 C304 1.373 . S
C308 C306 1.383 . S
C308 H319 0.931 . S
C309 C306 1.382 . S
C309 C307 1.392 . S
C310 Eu281 2.828 . S
C310 O294 1.249 . S
C310 O295 1.244 . S
C310 C304 1.505 . S
C311 O298 1.258 . S
C311 O299 1.242 . S
H312 C284 0.930 . S
H313 C285 0.930 . S
H314 C286 0.930 . S
H315 C287 0.931 . S
H316 C305 0.930 . S
H317 C306 0.930 . S
H318 C307 0.930 . S
H319 C308 0.931 . S
Eu320 C329 2.828 1_554 S
Eu320 O331 2.392 . S
Eu320 O333 2.418 . S
Eu320 O338 2.373 . S
Eu320 O341 2.488 . S
Eu320 O342 2.471 . S
Eu320 O343 2.349 . S
Eu321 O330 2.373 . S
Eu321 O334 2.488 . S
Eu321 O335 2.471 . S
Eu321 O336 2.349 . S
Eu321 O339 2.392 . S
Eu321 O340 2.418 . S
Eu321 C350 2.828 . S
C322 O340 1.244 . S
C322 O343 1.265 . S
C323 C324 1.379 . S
C323 C327 1.373 . S
C323 C329 1.505 . S
C324 C323 1.379 . S
C324 C326 1.369 . S
C324 H352 0.930 . S
C325 C327 1.383 . S
C325 C328 1.382 . S
C325 H353 0.930 . S
C326 C324 1.369 . S
C326 C328 1.392 . S
C326 H354 0.930 . S
C327 C323 1.373 . S
C327 C325 1.383 . S
C327 H355 0.931 . S
C328 C325 1.382 . S
C328 C326 1.392 . S
C329 Eu320 2.828 1_556 S
C329 C323 1.505 . S
C329 O341 1.249 1_556 S
C329 O342 1.244 1_556 S
O330 Eu321 2.373 . S
O330 C332 1.258 . S
O331 Eu320 2.392 . S
O331 C332 1.242 . S
C332 O330 1.258 . S
C332 O331 1.242 . S
O333 Eu320 2.418 . S
O333 C337 1.244 . S
O334 Eu321 2.488 . S
O334 C350 1.249 . S
O335 Eu321 2.471 . S
O335 C350 1.244 . S
O336 Eu321 2.349 . S
O336 C337 1.265 . S
C337 O333 1.244 . S
C337 O336 1.265 . S
O338 Eu320 2.373 . S
O338 C351 1.258 . S
O339 Eu321 2.392 . S
O339 C351 1.242 . S
O340 Eu321 2.418 . S
O340 C322 1.244 . S
O341 Eu320 2.488 . S
O341 C329 1.249 1_554 S
O342 Eu320 2.471 . S
O342 C329 1.244 1_554 S
O343 Eu320 2.349 . S
O343 C322 1.265 . S
C344 C345 1.379 . S
C344 C348 1.373 . S
C344 C350 1.505 . S
C345 C344 1.379 . S
C345 C347 1.369 . S
C345 H356 0.930 . S
C346 C348 1.383 . S
C346 C349 1.382 . S
C346 H357 0.930 . S
C347 C345 1.369 . S
C347 C349 1.392 . S
C347 H358 0.930 . S
C348 C344 1.373 . S
C348 C346 1.383 . S
C348 H359 0.931 . S
C349 C346 1.382 . S
C349 C347 1.392 . S
C350 Eu321 2.828 . S
C350 O334 1.249 . S
C350 O335 1.244 . S
C350 C344 1.505 . S
C351 O338 1.258 . S
C351 O339 1.242 . S
H352 C324 0.930 . S
H353 C325 0.930 . S
H354 C326 0.930 . S
H355 C327 0.931 . S
H356 C345 0.930 . S
H357 C346 0.930 . S
H358 C347 0.930 . S
H359 C348 0.931 . S
Eu360 C369 2.828 . S
Eu360 O371 2.392 . S
Eu360 O373 2.418 . S
Eu360 O378 2.373 . S
Eu360 O381 2.488 . S
Eu360 O382 2.471 . S
Eu360 O383 2.349 . S
Eu361 O370 2.373 . S
Eu361 O374 2.488 . S
Eu361 O375 2.471 . S
Eu361 O376 2.349 . S
Eu361 O379 2.392 . S
Eu361 O380 2.418 . S
Eu361 C390 2.828 . S
C362 O380 1.244 . S
C362 O383 1.265 . S
C363 C364 1.379 . S
C363 C367 1.373 . S
C363 C369 1.505 . S
C364 C363 1.379 . S
C364 C366 1.369 . S
C364 H392 0.930 . S
C365 C367 1.383 . S
C365 C368 1.382 . S
C365 H393 0.930 . S
C366 C364 1.369 . S
C366 C368 1.392 . S
C366 H394 0.930 . S
C367 C363 1.373 . S
C367 C365 1.383 . S
C367 H395 0.931 . S
C368 C365 1.382 . S
C368 C366 1.392 . S
C369 Eu360 2.828 . S
C369 C363 1.505 . S
C369 O381 1.249 . S
C369 O382 1.244 . S
O370 Eu361 2.373 . S
O370 C372 1.258 . S
O371 Eu360 2.392 . S
O371 C372 1.242 . S
C372 O370 1.258 . S
C372 O371 1.242 . S
O373 Eu360 2.418 . S
O373 C377 1.244 . S
O374 Eu361 2.488 . S
O374 C390 1.249 . S
O375 Eu361 2.471 . S
O375 C390 1.244 . S
O376 Eu361 2.349 . S
O376 C377 1.265 . S
C377 O373 1.244 . S
C377 O376 1.265 . S
O378 Eu360 2.373 . S
O378 C391 1.258 . S
O379 Eu361 2.392 . S
O379 C391 1.242 . S
O380 Eu361 2.418 . S
O380 C362 1.244 . S
O381 Eu360 2.488 . S
O381 C369 1.249 . S
O382 Eu360 2.471 . S
O382 C369 1.244 . S
O383 Eu360 2.349 . S
O383 C362 1.265 . S
C384 C385 1.379 . S
C384 C388 1.373 . S
C384 C390 1.505 . S
C385 C384 1.379 . S
C385 C387 1.369 . S
C385 H396 0.930 . S
C386 C388 1.383 . S
C386 C389 1.382 . S
C386 H397 0.930 . S
C387 C385 1.369 . S
C387 C389 1.392 . S
C387 H398 0.930 . S
C388 C384 1.373 . S
C388 C386 1.383 . S
C388 H399 0.931 . S
C389 C386 1.382 . S
C389 C387 1.392 . S
C390 Eu361 2.828 . S
C390 O374 1.249 . S
C390 O375 1.244 . S
C390 C384 1.505 . S
C391 O378 1.258 . S
C391 O379 1.242 . S
H392 C364 0.930 . S
H393 C365 0.930 . S
H394 C366 0.930 . S
H395 C367 0.931 . S
H396 C385 0.930 . S
H397 C386 0.930 . S
H398 C387 0.930 . S
H399 C388 0.931 . S
Eu400 C409 2.828 . S
Eu400 O411 2.392 . S
Eu400 O413 2.418 . S
Eu400 O418 2.373 . S
Eu400 O421 2.488 . S
Eu400 O422 2.471 . S
Eu400 O423 2.349 . S
Eu401 O410 2.373 . S
Eu401 O414 2.488 . S
Eu401 O415 2.471 . S
Eu401 O416 2.349 . S
Eu401 O419 2.392 . S
Eu401 O420 2.418 . S
Eu401 C430 2.828 . S
C402 O420 1.244 . S
C402 O423 1.265 . S
C403 C404 1.379 . S
C403 C407 1.373 . S
C403 C409 1.505 . S
C404 C403 1.379 . S
C404 C406 1.369 . S
C404 H432 0.930 . S
C405 C407 1.383 . S
C405 C408 1.382 . S
C405 H433 0.930 . S
C406 C404 1.369 . S
C406 C408 1.392 . S
C406 H434 0.930 . S
C407 C403 1.373 . S
C407 C405 1.383 . S
C407 H435 0.931 . S
C408 C405 1.382 . S
C408 C406 1.392 . S
C409 Eu400 2.828 . S
C409 C403 1.505 . S
C409 O421 1.249 . S
C409 O422 1.244 . S
O410 Eu401 2.373 . S
O410 C412 1.258 . S
O411 Eu400 2.392 . S
O411 C412 1.242 . S
C412 O410 1.258 . S
C412 O411 1.242 . S
O413 Eu400 2.418 . S
O413 C417 1.244 . S
O414 Eu401 2.488 . S
O414 C430 1.249 . S
O415 Eu401 2.471 . S
O415 C430 1.244 . S
O416 Eu401 2.349 . S
O416 C417 1.265 . S
C417 O413 1.244 . S
C417 O416 1.265 . S
O418 Eu400 2.373 . S
O418 C431 1.258 . S
O419 Eu401 2.392 . S
O419 C431 1.242 . S
O420 Eu401 2.418 . S
O420 C402 1.244 . S
O421 Eu400 2.488 . S
O421 C409 1.249 . S
O422 Eu400 2.471 . S
O422 C409 1.244 . S
O423 Eu400 2.349 . S
O423 C402 1.265 . S
C424 C425 1.379 . S
C424 C428 1.373 . S
C424 C430 1.505 . S
C425 C424 1.379 . S
C425 C427 1.369 . S
C425 H436 0.930 . S
C426 C428 1.383 . S
C426 C429 1.382 . S
C426 H437 0.930 . S
C427 C425 1.369 . S
C427 C429 1.392 . S
C427 H438 0.930 . S
C428 C424 1.373 . S
C428 C426 1.383 . S
C428 H439 0.931 . S
C429 C426 1.382 . S
C429 C427 1.392 . S
C430 Eu401 2.828 . S
C430 O414 1.249 . S
C430 O415 1.244 . S
C430 C424 1.505 . S
C431 O418 1.258 . S
C431 O419 1.242 . S
H432 C404 0.930 . S
H433 C405 0.930 . S
H434 C406 0.930 . S
H435 C407 0.931 . S
H436 C425 0.930 . S
H437 C426 0.930 . S
H438 C427 0.930 . S
H439 C428 0.931 . S
Eu440 C449 2.828 1_554 S
Eu440 O451 2.392 . S
Eu440 O453 2.418 . S
Eu440 O458 2.373 . S
Eu440 O461 2.488 . S
Eu440 O462 2.471 . S
Eu440 O463 2.349 . S
Eu441 O450 2.373 . S
Eu441 O454 2.488 . S
Eu441 O455 2.471 . S
Eu441 O456 2.349 . S
Eu441 O459 2.392 . S
Eu441 O460 2.418 . S
Eu441 C470 2.828 . S
C442 O460 1.244 . S
C442 O463 1.265 . S
C443 C444 1.379 . S
C443 C447 1.373 . S
C443 C449 1.505 . S
C444 C443 1.379 . S
C444 C446 1.369 . S
C444 H472 0.930 . S
C445 C447 1.383 . S
C445 C448 1.382 . S
C445 H473 0.930 . S
C446 C444 1.369 . S
C446 C448 1.392 . S
C446 H474 0.930 . S
C447 C443 1.373 . S
C447 C445 1.383 . S
C447 H475 0.931 . S
C448 C445 1.382 . S
C448 C446 1.392 . S
C449 Eu440 2.828 1_556 S
C449 C443 1.505 . S
C449 O461 1.249 1_556 S
C449 O462 1.244 1_556 S
O450 Eu441 2.373 . S
O450 C452 1.258 . S
O451 Eu440 2.392 . S
O451 C452 1.242 . S
C452 O450 1.258 . S
C452 O451 1.242 . S
O453 Eu440 2.418 . S
O453 C457 1.244 . S
O454 Eu441 2.488 . S
O454 C470 1.249 . S
O455 Eu441 2.471 . S
O455 C470 1.244 . S
O456 Eu441 2.349 . S
O456 C457 1.265 . S
C457 O453 1.244 . S
C457 O456 1.265 . S
O458 Eu440 2.373 . S
O458 C471 1.258 . S
O459 Eu441 2.392 . S
O459 C471 1.242 . S
O460 Eu441 2.418 . S
O460 C442 1.244 . S
O461 Eu440 2.488 . S
O461 C449 1.249 1_554 S
O462 Eu440 2.471 . S
O462 C449 1.244 1_554 S
O463 Eu440 2.349 . S
O463 C442 1.265 . S
C464 C465 1.379 . S
C464 C468 1.373 . S
C464 C470 1.505 . S
C465 C464 1.379 . S
C465 C467 1.369 . S
C465 H476 0.930 . S
C466 C468 1.383 . S
C466 C469 1.382 . S
C466 H477 0.930 . S
C467 C465 1.369 . S
C467 C469 1.392 . S
C467 H478 0.930 . S
C468 C464 1.373 . S
C468 C466 1.383 . S
C468 H479 0.931 . S
C469 C466 1.382 . S
C469 C467 1.392 . S
C470 Eu441 2.828 . S
C470 O454 1.249 . S
C470 O455 1.244 . S
C470 C464 1.505 . S
C471 O458 1.258 . S
C471 O459 1.242 . S
H472 C444 0.930 . S
H473 C445 0.930 . S
H474 C446 0.930 . S
H475 C447 0.931 . S
H476 C465 0.930 . S
H477 C466 0.930 . S
H478 C467 0.930 . S
H479 C468 0.931 . S
H480 C488 0.950 . S
H481 C493 0.950 . S
H482 C490 0.950 . S
H483 C492 0.950 . S
H484 C494 0.950 . S
H485 C496 0.950 . S
H486 C498 0.950 . S
H487 C499 0.950 . S
C488 H480 0.950 . S
C488 C489 1.386 . S
C488 C490 1.391 . S
C489 C488 1.386 . S
C489 C493 1.393 . S
C490 H482 0.950 . S
C490 C488 1.391 . S
C490 C491 1.400 . S
C491 C490 1.400 . S
C491 C492 1.398 . S
C491 C497 1.491 . S
C492 H483 0.950 . S
C492 C491 1.398 . S
C492 C493 1.391 . S
C493 H481 0.950 . S
C493 C489 1.393 . S
C493 C492 1.391 . S
C494 H484 0.950 . S
C494 C495 1.386 . S
C494 C496 1.391 . S
C495 C494 1.386 . S
C495 C499 1.393 . S
C496 H485 0.950 . S
C496 C494 1.391 . S
C496 C497 1.400 . S
C497 C491 1.491 . S
C497 C496 1.400 . S
C497 C498 1.398 . S
C498 H486 0.950 . S
C498 C497 1.398 . S
C498 C499 1.391 . S
C499 H487 0.950 . S
C499 C495 1.393 . S
C499 C498 1.391 . S
H500 C508 0.950 . S
H501 C513 0.950 . S
H502 C510 0.950 . S
H503 C512 0.950 . S
H504 C514 0.950 . S
H505 C516 0.950 . S
H506 C518 0.950 . S
H507 C519 0.950 . S
C508 H500 0.950 . S
C508 C509 1.386 . S
C508 C510 1.391 . S
C509 C508 1.386 . S
C509 C513 1.393 . S
C510 H502 0.950 . S
C510 C508 1.391 . S
C510 C511 1.400 . S
C511 C510 1.400 . S
C511 C512 1.398 . S
C511 C517 1.491 . S
C512 H503 0.950 . S
C512 C511 1.398 . S
C512 C513 1.391 . S
C513 H501 0.950 . S
C513 C509 1.393 . S
C513 C512 1.391 . S
C514 H504 0.950 . S
C514 C515 1.386 . S
C514 C516 1.391 . S
C515 C514 1.386 . S
C515 C519 1.393 . S
C516 H505 0.950 . S
C516 C514 1.391 . S
C516 C517 1.400 . S
C517 C511 1.491 . S
C517 C516 1.400 . S
C517 C518 1.398 . S
C518 H506 0.950 . S
C518 C517 1.398 . S
C518 C519 1.391 . S
C519 H507 0.950 . S
C519 C515 1.393 . S
C519 C518 1.391 . S
H520 C528 0.950 . S
H521 C533 0.950 . S
H522 C530 0.950 . S
H523 C532 0.950 . S
H524 C534 0.950 . S
H525 C536 0.950 . S
H526 C538 0.950 . S
H527 C539 0.950 . S
C528 H520 0.950 . S
C528 C529 1.386 . S
C528 C530 1.391 . S
C529 C528 1.386 . S
C529 C533 1.393 . S
C530 H522 0.950 . S
C530 C528 1.391 . S
C530 C531 1.400 . S
C531 C530 1.400 . S
C531 C532 1.398 . S
C531 C537 1.491 . S
C532 H523 0.950 . S
C532 C531 1.398 . S
C532 C533 1.391 . S
C533 H521 0.950 . S
C533 C529 1.393 . S
C533 C532 1.391 . S
C534 H524 0.950 . S
C534 C535 1.386 . S
C534 C536 1.391 . S
C535 C534 1.386 . S
C535 C539 1.393 . S
C536 H525 0.950 . S
C536 C534 1.391 . S
C536 C537 1.400 . S
C537 C531 1.491 . S
C537 C536 1.400 . S
C537 C538 1.398 . S
C538 H526 0.950 . S
C538 C537 1.398 . S
C538 C539 1.391 . S
C539 H527 0.950 . S
C539 C535 1.393 . S
C539 C538 1.391 . S
H540 C548 0.950 . S
H541 C553 0.950 . S
H542 C550 0.950 . S
H543 C552 0.950 . S
H544 C554 0.950 . S
H545 C556 0.950 . S
H546 C558 0.950 . S
H547 C559 0.950 . S
C548 H540 0.950 . S
C548 C549 1.386 . S
C548 C550 1.391 . S
C549 C548 1.386 . S
C549 C553 1.393 . S
C550 H542 0.950 . S
C550 C548 1.391 . S
C550 C551 1.400 . S
C551 C550 1.400 . S
C551 C552 1.398 . S
C551 C557 1.491 . S
C552 H543 0.950 . S
C552 C551 1.398 . S
C552 C553 1.391 . S
C553 H541 0.950 . S
C553 C549 1.393 . S
C553 C552 1.391 . S
C554 H544 0.950 . S
C554 C555 1.386 . S
C554 C556 1.391 . S
C555 C554 1.386 . S
C555 C559 1.393 . S
C556 H545 0.950 . S
C556 C554 1.391 . S
C556 C557 1.400 . S
C557 C551 1.491 . S
C557 C556 1.400 . S
C557 C558 1.398 . S
C558 H546 0.950 . S
C558 C557 1.398 . S
C558 C559 1.391 . S
C559 H547 0.950 . S
C559 C555 1.393 . S
C559 C558 1.391 . S
H560 C568 0.950 . S
H561 C573 0.950 . S
H562 C570 0.950 . S
H563 C572 0.950 . S
H564 C574 0.950 . S
H565 C576 0.950 . S
H566 C578 0.950 . S
H567 C579 0.950 . S
C568 H560 0.950 . S
C568 C569 1.386 . S
C568 C570 1.391 . S
C569 C568 1.386 . S
C569 C573 1.393 . S
C570 H562 0.950 . S
C570 C568 1.391 . S
C570 C571 1.400 . S
C571 C570 1.400 . S
C571 C572 1.398 . S
C571 C577 1.491 . S
C572 H563 0.950 . S
C572 C571 1.398 . S
C572 C573 1.391 . S
C573 H561 0.950 . S
C573 C569 1.393 . S
C573 C572 1.391 . S
C574 H564 0.950 . S
C574 C575 1.386 . S
C574 C576 1.391 . S
C575 C574 1.386 . S
C575 C579 1.393 . S
C576 H565 0.950 . S
C576 C574 1.391 . S
C576 C577 1.400 . S
C577 C571 1.491 . S
C577 C576 1.400 . S
C577 C578 1.398 . S
C578 H566 0.950 . S
C578 C577 1.398 . S
C578 C579 1.391 . S
C579 H567 0.950 . S
C579 C575 1.393 . S
C579 C578 1.391 . S
H580 C588 0.950 . S
H581 C593 0.950 . S
H582 C590 0.950 . S
H583 C592 0.950 . S
H584 C594 0.950 . S
H585 C596 0.950 . S
H586 C598 0.950 . S
H587 C599 0.950 . S
C588 H580 0.950 . S
C588 C589 1.386 . S
C588 C590 1.391 . S
C589 C588 1.386 . S
C589 C593 1.393 . S
C590 H582 0.950 . S
C590 C588 1.391 . S
C590 C591 1.400 . S
C591 C590 1.400 . S
C591 C592 1.398 . S
C591 C597 1.491 . S
C592 H583 0.950 . S
C592 C591 1.398 . S
C592 C593 1.391 . S
C593 H581 0.950 . S
C593 C589 1.393 . S
C593 C592 1.391 . S
C594 H584 0.950 . S
C594 C595 1.386 . S
C594 C596 1.391 . S
C595 C594 1.386 . S
C595 C599 1.393 . S
C596 H585 0.950 . S
C596 C594 1.391 . S
C596 C597 1.400 . S
C597 C591 1.491 . S
C597 C596 1.400 . S
C597 C598 1.398 . S
C598 H586 0.950 . S
C598 C597 1.398 . S
C598 C599 1.391 . S
C599 H587 0.950 . S
C599 C595 1.393 . S
C599 C598 1.391 . S
H600 C608 0.950 . S
H601 C613 0.950 . S
H602 C610 0.950 . S
H603 C612 0.950 . S
H604 C614 0.950 . S
H605 C616 0.950 . S
H606 C618 0.950 . S
H607 C619 0.950 . S
C608 H600 0.950 . S
C608 C609 1.386 . S
C608 C610 1.391 . S
C609 C608 1.386 . S
C609 C613 1.393 . S
C610 H602 0.950 . S
C610 C608 1.391 . S
C610 C611 1.400 . S
C611 C610 1.400 . S
C611 C612 1.398 . S
C611 C617 1.491 1_556 S
C612 H603 0.950 . S
C612 C611 1.398 . S
C612 C613 1.391 . S
C613 H601 0.950 . S
C613 C609 1.393 . S
C613 C612 1.391 . S
C614 H604 0.950 . S
C614 C615 1.386 . S
C614 C616 1.391 . S
C615 C614 1.386 . S
C615 C619 1.393 . S
C616 H605 0.950 . S
C616 C614 1.391 . S
C616 C617 1.400 . S
C617 C611 1.491 1_554 S
C617 C616 1.400 . S
C617 C618 1.398 . S
C618 H606 0.950 . S
C618 C617 1.398 . S
C618 C619 1.391 . S
C619 H607 0.950 . S
C619 C615 1.393 . S
C619 C618 1.391 . S
H620 C628 0.950 . S
H621 C633 0.950 . S
H622 C630 0.950 . S
H623 C632 0.950 . S
H624 C634 0.950 . S
H625 C636 0.950 . S
H626 C638 0.950 . S
H627 C639 0.950 . S
C628 H620 0.950 . S
C628 C629 1.386 . S
C628 C630 1.391 . S
C629 C628 1.386 . S
C629 C633 1.393 . S
C630 H622 0.950 . S
C630 C628 1.391 . S
C630 C631 1.400 . S
C631 C630 1.400 . S
C631 C632 1.398 . S
C631 C637 1.491 . S
C632 H623 0.950 . S
C632 C631 1.398 . S
C632 C633 1.391 . S
C633 H621 0.950 . S
C633 C629 1.393 . S
C633 C632 1.391 . S
C634 H624 0.950 . S
C634 C635 1.386 . S
C634 C636 1.391 . S
C635 C634 1.386 . S
C635 C639 1.393 . S
C636 H625 0.950 . S
C636 C634 1.391 . S
C636 C637 1.400 . S
C637 C631 1.491 . S
C637 C636 1.400 . S
C637 C638 1.398 . S
C638 H626 0.950 . S
C638 C637 1.398 . S
C638 C639 1.391 . S
C639 H627 0.950 . S
C639 C635 1.393 . S
C639 C638 1.391 . S
H640 C648 0.950 . S
H641 C653 0.950 . S
H642 C650 0.950 . S
H643 C652 0.950 . S
H644 C654 0.950 . S
H645 C656 0.950 . S
H646 C658 0.950 . S
H647 C659 0.950 . S
C648 H640 0.950 . S
C648 C649 1.386 . S
C648 C650 1.391 . S
C649 C648 1.386 . S
C649 C653 1.393 . S
C650 H642 0.950 . S
C650 C648 1.391 . S
C650 C651 1.400 . S
C651 C650 1.400 . S
C651 C652 1.398 . S
C651 C657 1.491 . S
C652 H643 0.950 . S
C652 C651 1.398 . S
C652 C653 1.391 . S
C653 H641 0.950 . S
C653 C649 1.393 . S
C653 C652 1.391 . S
C654 H644 0.950 . S
C654 C655 1.386 . S
C654 C656 1.391 . S
C655 C654 1.386 . S
C655 C659 1.393 . S
C656 H645 0.950 . S
C656 C654 1.391 . S
C656 C657 1.400 . S
C657 C651 1.491 . S
C657 C656 1.400 . S
C657 C658 1.398 . S
C658 H646 0.950 . S
C658 C657 1.398 . S
C658 C659 1.391 . S
C659 H647 0.950 . S
C659 C655 1.393 . S
C659 C658 1.391 . S
H660 C668 0.950 . S
H661 C673 0.950 . S
H662 C670 0.950 . S
H663 C672 0.950 1_554 S
H664 C674 0.950 . S
H665 C676 0.950 . S
H666 C678 0.950 1_556 S
H667 C679 0.950 . S
C668 H660 0.950 . S
C668 C669 1.386 . S
C668 C670 1.391 . S
C669 C668 1.386 . S
C669 C673 1.393 . S
C670 H662 0.950 . S
C670 C668 1.391 . S
C670 C671 1.400 . S
C671 C670 1.400 . S
C671 C672 1.398 . S
C671 C677 1.491 1_556 S
C672 H663 0.950 1_556 S
C672 C671 1.398 . S
C672 C673 1.391 . S
C673 H661 0.950 . S
C673 C669 1.393 . S
C673 C672 1.391 . S
C674 H664 0.950 . S
C674 C675 1.386 . S
C674 C676 1.391 . S
C675 C674 1.386 . S
C675 C679 1.393 . S
C676 H665 0.950 . S
C676 C674 1.391 . S
C676 C677 1.400 . S
C677 C671 1.491 1_554 S
C677 C676 1.400 . S
C677 C678 1.398 . S
C678 H666 0.950 1_554 S
C678 C677 1.398 . S
C678 C679 1.391 . S
C679 H667 0.950 . S
C679 C675 1.393 . S
C679 C678 1.391 . S
H680 C688 0.950 . S
H681 C693 0.950 . S
H682 C690 0.950 . S
H683 C692 0.950 . S
H684 C694 0.950 . S
H685 C696 0.950 . S
H686 C698 0.950 . S
H687 C699 0.950 . S
C688 H680 0.950 . S
C688 C689 1.386 . S
C688 C690 1.391 . S
C689 C688 1.386 . S
C689 C693 1.393 . S
C690 H682 0.950 . S
C690 C688 1.391 . S
C690 C691 1.400 . S
C691 C690 1.400 . S
C691 C692 1.398 . S
C691 C697 1.491 . S
C692 H683 0.950 . S
C692 C691 1.398 . S
C692 C693 1.391 . S
C693 H681 0.950 . S
C693 C689 1.393 . S
C693 C692 1.391 . S
C694 H684 0.950 . S
C694 C695 1.386 . S
C694 C696 1.391 . S
C695 C694 1.386 . S
C695 C699 1.393 . S
C696 H685 0.950 . S
C696 C694 1.391 . S
C696 C697 1.400 . S
C697 C691 1.491 . S
C697 C696 1.400 . S
C697 C698 1.398 . S
C698 H686 0.950 . S
C698 C697 1.398 . S
C698 C699 1.391 . S
C699 H687 0.950 . S
C699 C695 1.393 . S
C699 C698 1.391 . S
H700 C708 0.950 . S
H701 C713 0.950 . S
H702 C710 0.950 . S
H703 C712 0.950 . S
H704 C714 0.950 . S
H705 C716 0.950 . S
H706 C718 0.950 . S
H707 C719 0.950 . S
C708 H700 0.950 . S
C708 C709 1.386 . S
C708 C710 1.391 . S
C709 C708 1.386 . S
C709 C713 1.393 . S
C710 H702 0.950 . S
C710 C708 1.391 . S
C710 C711 1.400 . S
C711 C710 1.400 . S
C711 C712 1.398 . S
C711 C717 1.491 . S
C712 H703 0.950 . S
C712 C711 1.398 . S
C712 C713 1.391 . S
C713 H701 0.950 . S
C713 C709 1.393 . S
C713 C712 1.391 . S
C714 H704 0.950 . S
C714 C715 1.386 . S
C714 C716 1.391 . S
C715 C714 1.386 . S
C715 C719 1.393 . S
C716 H705 0.950 . S
C716 C714 1.391 . S
C716 C717 1.400 . S
C717 C711 1.491 . S
C717 C716 1.400 . S
C717 C718 1.398 . S
C718 H706 0.950 . S
C718 C717 1.398 . S
C718 C719 1.391 . S
C719 H707 0.950 . S
C719 C715 1.393 . S
C719 C718 1.391 . S
H720 C728 0.950 . S
H721 C733 0.950 . S
H722 C730 0.950 . S
H723 C732 0.950 1_545 S
H724 C734 0.950 . S
H725 C736 0.950 . S
H726 C738 0.950 1_565 S
H727 C739 0.950 . S
C728 H720 0.950 . S
C728 C729 1.386 . S
C728 C730 1.391 . S
C729 C728 1.386 . S
C729 C733 1.393 . S
C730 H722 0.950 . S
C730 C728 1.391 . S
C730 C731 1.400 . S
C731 C730 1.400 . S
C731 C732 1.398 . S
C731 C737 1.491 1_566 S
C732 H723 0.950 1_565 S
C732 C731 1.398 . S
C732 C733 1.391 . S
C733 H721 0.950 . S
C733 C729 1.393 . S
C733 C732 1.391 . S
C734 H724 0.950 . S
C734 C735 1.386 . S
C734 C736 1.391 . S
C735 C734 1.386 . S
C735 C739 1.393 . S
C736 H725 0.950 . S
C736 C734 1.391 . S
C736 C737 1.400 . S
C737 C731 1.491 1_544 S
C737 C736 1.400 . S
C737 C738 1.398 . S
C738 H726 0.950 1_545 S
C738 C737 1.398 . S
C738 C739 1.391 . S
C739 H727 0.950 . S
C739 C735 1.393 . S
C739 C738 1.391 . S
H740 C748 0.950 . S
H741 C753 0.950 . S
H742 C750 0.950 . S
H743 C752 0.950 . S
H744 C754 0.950 . S
H745 C756 0.950 . S
H746 C758 0.950 . S
H747 C759 0.950 . S
C748 H740 0.950 . S
C748 C749 1.386 . S
C748 C750 1.391 . S
C749 C748 1.386 . S
C749 C753 1.393 . S
C750 H742 0.950 . S
C750 C748 1.391 . S
C750 C751 1.400 . S
C751 C750 1.400 . S
C751 C752 1.398 . S
C751 C757 1.491 . S
C752 H743 0.950 . S
C752 C751 1.398 . S
C752 C753 1.391 . S
C753 H741 0.950 . S
C753 C749 1.393 . S
C753 C752 1.391 . S
C754 H744 0.950 . S
C754 C755 1.386 . S
C754 C756 1.391 . S
C755 C754 1.386 . S
C755 C759 1.393 . S
C756 H745 0.950 . S
C756 C754 1.391 . S
C756 C757 1.400 . S
C757 C751 1.491 . S
C757 C756 1.400 . S
C757 C758 1.398 . S
C758 H746 0.950 . S
C758 C757 1.398 . S
C758 C759 1.391 . S
C759 H747 0.950 . S
C759 C755 1.393 . S
C759 C758 1.391 . S
H760 C768 0.950 . S
H761 C773 0.947 1_655 S
H762 C770 0.950 . S
H763 C772 0.950 . S
H764 C774 0.950 . S
H765 C776 0.950 . S
H766 C778 0.950 . S
H767 C779 0.948 1_455 S
C768 H760 0.950 . S
C768 C769 1.386 . S
C768 C770 1.391 . S
C769 C768 1.386 . S
C769 C773 1.393 . S
C770 H762 0.950 . S
C770 C768 1.391 . S
C770 C771 1.400 . S
C771 C770 1.400 . S
C771 C772 1.398 1_455 S
C771 C777 1.491 1_455 S
C772 H763 0.950 . S
C772 C771 1.398 1_655 S
C772 C773 1.391 1_655 S
C773 H761 0.947 1_455 S
C773 C769 1.393 . S
C773 C772 1.391 1_455 S
C774 H764 0.950 . S
C774 C775 1.386 . S
C774 C776 1.391 . S
C775 C774 1.386 . S
C775 C779 1.393 . S
C776 H765 0.950 . S
C776 C774 1.391 . S
C776 C777 1.400 . S
C777 C771 1.491 1_655 S
C777 C776 1.400 . S
C777 C778 1.398 1_655 S
C778 H766 0.950 . S
C778 C777 1.398 1_455 S
C778 C779 1.391 1_455 S
C779 H767 0.948 1_655 S
C779 C775 1.393 . S
C779 C778 1.391 1_655 S
H780 C788 0.950 . S
H781 C793 0.950 . S
H782 C790 0.950 . S
H783 C792 0.950 1_545 S
H784 C794 0.950 . S
H785 C796 0.950 . S
H786 C798 0.950 1_565 S
H787 C799 0.950 . S
C788 H780 0.950 . S
C788 C789 1.386 . S
C788 C790 1.391 . S
C789 C788 1.386 . S
C789 C793 1.393 . S
C790 H782 0.950 . S
C790 C788 1.391 . S
C790 C791 1.400 . S
C791 C790 1.400 . S
C791 C792 1.398 . S
C791 C797 1.491 1_564 S
C792 H783 0.950 1_565 S
C792 C791 1.398 . S
C792 C793 1.391 . S
C793 H781 0.950 . S
C793 C789 1.393 . S
C793 C792 1.391 . S
C794 H784 0.950 . S
C794 C795 1.386 . S
C794 C796 1.391 . S
C795 C794 1.386 . S
C795 C799 1.393 . S
C796 H785 0.950 . S
C796 C794 1.391 . S
C796 C797 1.400 . S
C797 C791 1.491 1_546 S
C797 C796 1.400 . S
C797 C798 1.398 . S
C798 H786 0.950 1_545 S
C798 C797 1.398 . S
C798 C799 1.391 . S
C799 H787 0.950 . S
C799 C795 1.393 . S
C799 C798 1.391 . S
H800 C808 0.950 . S
H801 C813 0.950 . S
H802 C810 0.950 . S
H803 C812 0.950 . S
H804 C814 0.950 . S
H805 C816 0.950 . S
H806 C818 0.950 . S
H807 C819 0.950 . S
C808 H800 0.950 . S
C808 C809 1.386 . S
C808 C810 1.391 . S
C809 C808 1.386 . S
C809 C813 1.393 . S
C810 H802 0.950 . S
C810 C808 1.391 . S
C810 C811 1.400 . S
C811 C810 1.400 . S
C811 C812 1.398 . S
C811 C817 1.491 . S
C812 H803 0.950 . S
C812 C811 1.398 . S
C812 C813 1.391 . S
C813 H801 0.950 . S
C813 C809 1.393 . S
C813 C812 1.391 . S
C814 H804 0.950 . S
C814 C815 1.386 . S
C814 C816 1.391 . S
C815 C814 1.386 . S
C815 C819 1.393 . S
C816 H805 0.950 . S
C816 C814 1.391 . S
C816 C817 1.400 . S
C817 C811 1.491 . S
C817 C816 1.400 . S
C817 C818 1.398 . S
C818 H806 0.950 . S
C818 C817 1.398 . S
C818 C819 1.391 . S
C819 H807 0.950 . S
C819 C815 1.393 . S
C819 C818 1.391 . S
H820 C828 0.950 . S
H821 C833 0.950 . S
H822 C830 0.950 . S
H823 C832 0.950 . S
H824 C834 0.950 . S
H825 C836 0.950 . S
H826 C838 0.950 . S
H827 C839 0.950 . S
C828 H820 0.950 . S
C828 C829 1.386 . S
C828 C830 1.391 . S
C829 C828 1.386 . S
C829 C833 1.393 . S
C830 H822 0.950 . S
C830 C828 1.391 . S
C830 C831 1.400 . S
C831 C830 1.400 . S
C831 C832 1.398 1_455 S
C831 C837 1.491 1_455 S
C832 H823 0.950 . S
C832 C831 1.398 1_655 S
C832 C833 1.391 1_655 S
C833 H821 0.950 . S
C833 C829 1.393 . S
C833 C832 1.391 1_455 S
C834 H824 0.950 . S
C834 C835 1.386 . S
C834 C836 1.391 . S
C835 C834 1.386 . S
C835 C839 1.393 . S
C836 H825 0.950 . S
C836 C834 1.391 . S
C836 C837 1.400 . S
C837 C831 1.491 1_655 S
C837 C836 1.400 . S
C837 C838 1.398 1_655 S
C838 H826 0.950 . S
C838 C837 1.398 1_455 S
C838 C839 1.391 1_455 S
C839 H827 0.950 . S
C839 C835 1.393 . S
C839 C838 1.391 1_655 S
H840 C848 0.950 . S
H841 C853 0.950 . S
H842 C850 0.950 1_565 S
H843 C852 0.950 . S
H844 C854 0.950 . S
H845 C856 0.950 1_545 S
H846 C858 0.950 . S
H847 C859 0.950 . S
C848 H840 0.950 . S
C848 C849 1.386 . S
C848 C850 1.391 . S
C849 C848 1.386 . S
C849 C853 1.393 . S
C850 H842 0.950 1_545 S
C850 C848 1.391 . S
C850 C851 1.400 . S
C851 C850 1.400 . S
C851 C852 1.398 . S
C851 C857 1.491 1_545 S
C852 H843 0.950 . S
C852 C851 1.398 . S
C852 C853 1.391 . S
C853 H841 0.950 . S
C853 C849 1.393 . S
C853 C852 1.391 . S
C854 H844 0.950 . S
C854 C855 1.386 . S
C854 C856 1.391 . S
C855 C854 1.386 . S
C855 C859 1.393 . S
C856 H845 0.950 1_565 S
C856 C854 1.391 . S
C856 C857 1.400 . S
C857 C851 1.491 1_565 S
C857 C856 1.400 . S
C857 C858 1.398 . S
C858 H846 0.950 . S
C858 C857 1.398 . S
C858 C859 1.391 . S
C859 H847 0.950 . S
C859 C855 1.393 . S
C859 C858 1.391 . S
H860 C868 0.950 . S
H861 C873 0.950 . S
H862 C870 0.950 . S
H863 C872 0.950 . S
H864 C874 0.950 . S
H865 C876 0.950 . S
H866 C878 0.950 . S
H867 C879 0.950 . S
C868 H860 0.950 . S
C868 C869 1.386 . S
C868 C870 1.391 . S
C869 C868 1.386 . S
C869 C873 1.393 . S
C870 H862 0.950 . S
C870 C868 1.391 . S
C870 C871 1.400 . S
C871 C870 1.400 . S
C871 C872 1.398 . S
C871 C877 1.491 . S
C872 H863 0.950 . S
C872 C871 1.398 . S
C872 C873 1.391 . S
C873 H861 0.950 . S
C873 C869 1.393 . S
C873 C872 1.391 . S
C874 H864 0.950 . S
C874 C875 1.386 . S
C874 C876 1.391 . S
C875 C874 1.386 . S
C875 C879 1.393 . S
C876 H865 0.950 . S
C876 C874 1.391 . S
C876 C877 1.400 . S
C877 C871 1.491 . S
C877 C876 1.400 . S
C877 C878 1.398 . S
C878 H866 0.950 . S
C878 C877 1.398 . S
C878 C879 1.391 . S
C879 H867 0.950 . S
C879 C875 1.393 . S
C879 C878 1.391 . S
H880 C888 0.950 . S
H881 C893 0.950 . S
H882 C890 0.950 . S
H883 C892 0.950 . S
H884 C894 0.950 . S
H885 C896 0.950 . S
H886 C898 0.950 . S
H887 C899 0.950 . S
C888 H880 0.950 . S
C888 C889 1.386 . S
C888 C890 1.391 . S
C889 C888 1.386 . S
C889 C893 1.393 . S
C890 H882 0.950 . S
C890 C888 1.391 . S
C890 C891 1.400 . S
C891 C890 1.400 . S
C891 C892 1.398 . S
C891 C897 1.491 1_655 S
C892 H883 0.950 . S
C892 C891 1.398 . S
C892 C893 1.391 . S
C893 H881 0.950 . S
C893 C889 1.393 . S
C893 C892 1.391 . S
C894 H884 0.950 . S
C894 C895 1.386 . S
C894 C896 1.391 . S
C895 C894 1.386 . S
C895 C899 1.393 . S
C896 H885 0.950 . S
C896 C894 1.391 . S
C896 C897 1.400 . S
C897 C891 1.491 1_455 S
C897 C896 1.400 . S
C897 C898 1.398 . S
C898 H886 0.950 . S
C898 C897 1.398 . S
C898 C899 1.391 . S
C899 H887 0.950 . S
C899 C895 1.393 . S
C899 C898 1.391 . S
H900 C908 0.950 . S
H901 C913 0.950 . S
H902 C910 0.950 1_655 S
H903 C912 0.950 . S
H904 C914 0.950 . S
H905 C916 0.950 1_455 S
H906 C918 0.950 . S
H907 C919 0.950 . S
C908 H900 0.950 . S
C908 C909 1.386 . S
C908 C910 1.391 . S
C909 C908 1.386 . S
C909 C913 1.393 . S
C910 H902 0.950 1_455 S
C910 C908 1.391 . S
C910 C911 1.400 . S
C911 C910 1.400 . S
C911 C912 1.398 . S
C911 C917 1.491 1_455 S
C912 H903 0.950 . S
C912 C911 1.398 . S
C912 C913 1.391 . S
C913 H901 0.950 . S
C913 C909 1.393 . S
C913 C912 1.391 . S
C914 H904 0.950 . S
C914 C915 1.386 . S
C914 C916 1.391 . S
C915 C914 1.386 . S
C915 C919 1.393 . S
C916 H905 0.950 1_655 S
C916 C914 1.391 . S
C916 C917 1.400 . S
C917 C911 1.491 1_655 S
C917 C916 1.400 . S
C917 C918 1.398 . S
C918 H906 0.950 . S
C918 C917 1.398 . S
C918 C919 1.391 . S
C919 H907 0.950 . S
C919 C915 1.393 . S
C919 C918 1.391 . S
H920 C928 0.950 . S
H921 C933 0.950 . S
H922 C930 0.950 1_545 S
H923 C932 0.950 . S
H924 C934 0.950 . S
H925 C936 0.950 1_565 S
H926 C938 0.950 . S
H927 C939 0.950 . S
C928 H920 0.950 . S
C928 C929 1.386 . S
C928 C930 1.391 . S
C929 C928 1.386 . S
C929 C933 1.393 . S
C930 H922 0.950 1_565 S
C930 C928 1.391 . S
C930 C931 1.400 . S
C931 C930 1.400 . S
C931 C932 1.398 . S
C931 C937 1.491 1_565 S
C932 H923 0.950 . S
C932 C931 1.398 . S
C932 C933 1.391 . S
C933 H921 0.950 . S
C933 C929 1.393 . S
C933 C932 1.391 . S
C934 H924 0.950 . S
C934 C935 1.386 . S
C934 C936 1.391 . S
C935 C934 1.386 . S
C935 C939 1.393 . S
C936 H925 0.950 1_545 S
C936 C934 1.391 . S
C936 C937 1.400 . S
C937 C931 1.491 1_545 S
C937 C936 1.400 . S
C937 C938 1.398 . S
C938 H926 0.950 . S
C938 C937 1.398 . S
C938 C939 1.391 . S
C939 H927 0.950 . S
C939 C935 1.393 . S
C939 C938 1.391 . S
H940 C948 0.950 . S
H941 C953 0.950 . S
H942 C950 0.950 . S
H943 C952 0.950 . S
H944 C954 0.950 . S
H945 C956 0.950 . S
H946 C958 0.950 . S
H947 C959 0.950 . S
C948 H940 0.950 . S
C948 C949 1.386 . S
C948 C950 1.391 . S
C949 C948 1.386 . S
C949 C953 1.393 . S
C950 H942 0.950 . S
C950 C948 1.391 . S
C950 C951 1.400 . S
C951 C950 1.400 . S
C951 C952 1.398 . S
C951 C957 1.491 . S
C952 H943 0.950 . S
C952 C951 1.398 . S
C952 C953 1.391 . S
C953 H941 0.950 . S
C953 C949 1.393 . S
C953 C952 1.391 . S
C954 H944 0.950 . S
C954 C955 1.386 . S
C954 C956 1.391 . S
C955 C954 1.386 . S
C955 C959 1.393 . S
C956 H945 0.950 . S
C956 C954 1.391 . S
C956 C957 1.400 . S
C957 C951 1.491 . S
C957 C956 1.400 . S
C957 C958 1.398 . S
C958 H946 0.950 . S
C958 C957 1.398 . S
C958 C959 1.391 . S
C959 H947 0.950 . S
C959 C955 1.393 . S
C959 C958 1.391 . S
H960 C968 0.950 . S
H961 C973 0.950 . S
H962 C970 0.950 . S
H963 C972 0.939 1_545 S
H964 C974 0.950 . S
H965 C976 0.950 . S
H966 C978 0.939 1_565 S
H967 C979 0.950 . S
C968 H960 0.950 . S
C968 C969 1.386 . S
C968 C970 1.391 . S
C969 C968 1.386 . S
C969 C973 1.393 . S
C970 H962 0.950 . S
C970 C968 1.391 . S
C970 C971 1.400 . S
C971 C970 1.400 . S
C971 C972 1.398 . S
C971 C977 1.491 1_565 S
C972 H963 0.939 1_565 S
C972 C971 1.398 . S
C972 C973 1.391 . S
C973 H961 0.950 . S
C973 C969 1.393 . S
C973 C972 1.391 . S
C974 H964 0.950 . S
C974 C975 1.386 . S
C974 C976 1.391 . S
C975 C974 1.386 . S
C975 C979 1.393 . S
C976 H965 0.950 . S
C976 C974 1.391 . S
C976 C977 1.400 . S
C977 C971 1.491 1_545 S
C977 C976 1.400 . S
C977 C978 1.398 . S
C978 H966 0.939 1_545 S
C978 C977 1.398 . S
C978 C979 1.391 . S
C979 H967 0.950 . S
C979 C975 1.393 . S
C979 C978 1.391 . S
H980 C988 0.950 . S
H981 C993 0.950 . S
H982 C990 0.950 . S
H983 C992 0.950 . S
H984 C994 0.950 . S
H985 C996 0.950 . S
H986 C998 0.950 . S
H987 C999 0.950 . S
C988 H980 0.950 . S
C988 C989 1.386 . S
C988 C990 1.391 . S
C989 C988 1.386 . S
C989 C993 1.393 . S
C990 H982 0.950 . S
C990 C988 1.391 . S
C990 C991 1.400 . S
C991 C990 1.400 . S
C991 C992 1.398 . S
C991 C997 1.491 . S
C992 H983 0.950 . S
C992 C991 1.398 . S
C992 C993 1.391 . S
C993 H981 0.950 . S
C993 C989 1.393 . S
C993 C992 1.391 . S
C994 H984 0.950 . S
C994 C995 1.386 . S
C994 C996 1.391 . S
C995 C994 1.386 . S
C995 C999 1.393 . S
C996 H985 0.950 . S
C996 C994 1.391 . S
C996 C997 1.400 . S
C997 C991 1.491 . S
C997 C996 1.400 . S
C997 C998 1.398 . S
C998 H986 0.950 . S
C998 C997 1.398 . S
C998 C999 1.391 . S
C999 H987 0.950 . S
C999 C995 1.393 . S
C999 C998 1.391 . S
H1000 C1008 0.950 . S
H1001 C1013 0.950 . S
H1002 C1010 0.950 . S
H1003 C1012 0.950 . S
H1004 C1014 0.950 . S
H1005 C1016 0.950 . S
H1006 C1018 0.950 . S
H1007 C1019 0.950 . S
C1008 H1000 0.950 . S
C1008 C1009 1.386 . S
C1008 C1010 1.391 . S
C1009 C1008 1.386 . S
C1009 C1013 1.393 . S
C1010 H1002 0.950 . S
C1010 C1008 1.391 . S
C1010 C1011 1.400 . S
C1011 C1010 1.400 . S
C1011 C1012 1.398 . S
C1011 C1017 1.491 1_655 S
C1012 H1003 0.950 . S
C1012 C1011 1.398 . S
C1012 C1013 1.391 . S
C1013 H1001 0.950 . S
C1013 C1009 1.393 . S
C1013 C1012 1.391 . S
C1014 H1004 0.950 . S
C1014 C1015 1.386 . S
C1014 C1016 1.391 . S
C1015 C1014 1.386 . S
C1015 C1019 1.393 . S
C1016 H1005 0.950 . S
C1016 C1014 1.391 . S
C1016 C1017 1.400 . S
C1017 C1011 1.491 1_455 S
C1017 C1016 1.400 . S
C1017 C1018 1.398 . S
C1018 H1006 0.950 . S
C1018 C1017 1.398 . S
C1018 C1019 1.391 . S
C1019 H1007 0.950 . S
C1019 C1015 1.393 . S
C1019 C1018 1.391 . S
H1020 C1028 0.950 . S
H1021 C1033 0.950 . S
H1022 C1030 0.950 1_565 S
H1023 C1032 0.950 . S
H1024 C1034 0.950 . S
H1025 C1036 0.950 1_545 S
H1026 C1038 0.950 . S
H1027 C1039 0.950 . S
C1028 H1020 0.950 . S
C1028 C1029 1.386 . S
C1028 C1030 1.391 . S
C1029 C1028 1.386 . S
C1029 C1033 1.393 . S
C1030 H1022 0.950 1_545 S
C1030 C1028 1.391 . S
C1030 C1031 1.400 . S
C1031 C1030 1.400 . S
C1031 C1032 1.398 . S
C1031 C1037 1.491 1_545 S
C1032 H1023 0.950 . S
C1032 C1031 1.398 . S
C1032 C1033 1.391 . S
C1033 H1021 0.950 . S
C1033 C1029 1.393 . S
C1033 C1032 1.391 . S
C1034 H1024 0.950 . S
C1034 C1035 1.386 . S
C1034 C1036 1.391 . S
C1035 C1034 1.386 . S
C1035 C1039 1.393 . S
C1036 H1025 0.950 1_565 S
C1036 C1034 1.391 . S
C1036 C1037 1.400 . S
C1037 C1031 1.491 1_565 S
C1037 C1036 1.400 . S
C1037 C1038 1.398 . S
C1038 H1026 0.950 . S
C1038 C1037 1.398 . S
C1038 C1039 1.391 . S
C1039 H1027 0.950 . S
C1039 C1035 1.393 . S
C1039 C1038 1.391 . S
H1040 C1048 0.950 . S
H1041 C1053 0.950 . S
H1042 C1050 0.950 . S
H1043 C1052 0.950 . S
H1044 C1054 0.950 . S
H1045 C1056 0.950 . S
H1046 C1058 0.950 . S
H1047 C1059 0.950 . S
C1048 H1040 0.950 . S
C1048 C1049 1.386 . S
C1048 C1050 1.391 . S
C1049 C1048 1.386 . S
C1049 C1053 1.393 . S
C1050 H1042 0.950 . S
C1050 C1048 1.391 . S
C1050 C1051 1.400 . S
C1051 C1050 1.400 . S
C1051 C1052 1.398 . S
C1051 C1057 1.491 . S
C1052 H1043 0.950 . S
C1052 C1051 1.398 . S
C1052 C1053 1.391 . S
C1053 H1041 0.950 . S
C1053 C1049 1.393 . S
C1053 C1052 1.391 . S
C1054 H1044 0.950 . S
C1054 C1055 1.386 . S
C1054 C1056 1.391 . S
C1055 C1054 1.386 . S
C1055 C1059 1.393 . S
C1056 H1045 0.950 . S
C1056 C1054 1.391 . S
C1056 C1057 1.400 . S
C1057 C1051 1.491 . S
C1057 C1056 1.400 . S
C1057 C1058 1.398 . S
C1058 H1046 0.950 . S
C1058 C1057 1.398 . S
C1058 C1059 1.391 . S
C1059 H1047 0.950 . S
C1059 C1055 1.393 . S
C1059 C1058 1.391 . S
H1060 C1068 0.950 . S
H1061 C1073 0.950 . S
H1062 C1070 0.950 . S
H1063 C1072 0.950 . S
H1064 C1074 0.950 . S
H1065 C1076 0.950 . S
H1066 C1078 0.950 . S
H1067 C1079 0.950 . S
C1068 H1060 0.950 . S
C1068 C1069 1.386 . S
C1068 C1070 1.391 . S
C1069 C1068 1.386 . S
C1069 C1073 1.393 . S
C1070 H1062 0.950 . S
C1070 C1068 1.391 . S
C1070 C1071 1.400 . S
C1071 C1070 1.400 . S
C1071 C1072 1.398 . S
C1071 C1077 1.491 1_455 S
C1072 H1063 0.950 . S
C1072 C1071 1.398 . S
C1072 C1073 1.391 . S
C1073 H1061 0.950 . S
C1073 C1069 1.393 . S
C1073 C1072 1.391 . S
C1074 H1064 0.950 . S
C1074 C1075 1.386 . S
C1074 C1076 1.391 . S
C1075 C1074 1.386 . S
C1075 C1079 1.393 . S
C1076 H1065 0.950 . S
C1076 C1074 1.391 . S
C1076 C1077 1.400 . S
C1077 C1071 1.491 1_655 S
C1077 C1076 1.400 . S
C1077 C1078 1.398 . S
C1078 H1066 0.950 . S
C1078 C1077 1.398 . S
C1078 C1079 1.391 . S
C1079 H1067 0.950 . S
C1079 C1075 1.393 . S
C1079 C1078 1.391 . S
H1080 C1088 0.950 . S
H1081 C1093 0.950 . S
H1082 C1090 0.950 . S
H1083 C1092 0.950 . S
H1084 C1094 0.950 . S
H1085 C1096 0.950 . S
H1086 C1098 0.950 . S
H1087 C1099 0.950 . S
C1088 H1080 0.950 . S
C1088 C1089 1.386 . S
C1088 C1090 1.391 . S
C1089 C1088 1.386 . S
C1089 C1093 1.393 . S
C1090 H1082 0.950 . S
C1090 C1088 1.391 . S
C1090 C1091 1.400 . S
C1091 C1090 1.400 . S
C1091 C1092 1.398 . S
C1091 C1097 1.491 . S
C1092 H1083 0.950 . S
C1092 C1091 1.398 . S
C1092 C1093 1.391 . S
C1093 H1081 0.950 . S
C1093 C1089 1.393 . S
C1093 C1092 1.391 . S
C1094 H1084 0.950 . S
C1094 C1095 1.386 . S
C1094 C1096 1.391 . S
C1095 C1094 1.386 . S
C1095 C1099 1.393 . S
C1096 H1085 0.950 . S
C1096 C1094 1.391 . S
C1096 C1097 1.400 . S
C1097 C1091 1.491 . S
C1097 C1096 1.400 . S
C1097 C1098 1.398 . S
C1098 H1086 0.950 . S
C1098 C1097 1.398 . S
C1098 C1099 1.391 . S
C1099 H1087 0.950 . S
C1099 C1095 1.393 . S
C1099 C1098 1.391 . S
H1100 C1108 0.950 . S
H1101 C1113 0.950 . S
H1102 C1110 0.950 . S
H1103 C1112 0.950 . S
H1104 C1114 0.950 . S
H1105 C1116 0.950 . S
H1106 C1118 0.950 . S
H1107 C1119 0.950 . S
C1108 H1100 0.950 . S
C1108 C1109 1.386 . S
C1108 C1110 1.391 . S
C1109 C1108 1.386 . S
C1109 C1113 1.393 . S
C1110 H1102 0.950 . S
C1110 C1108 1.391 . S
C1110 C1111 1.400 . S
C1111 C1110 1.400 . S
C1111 C1112 1.398 . S
C1111 C1117 1.491 . S
C1112 H1103 0.950 . S
C1112 C1111 1.398 . S
C1112 C1113 1.391 . S
C1113 H1101 0.950 . S
C1113 C1109 1.393 . S
C1113 C1112 1.391 . S
C1114 H1104 0.950 . S
C1114 C1115 1.386 . S
C1114 C1116 1.391 . S
C1115 C1114 1.386 . S
C1115 C1119 1.393 . S
C1116 H1105 0.950 . S
C1116 C1114 1.391 . S
C1116 C1117 1.400 . S
C1117 C1111 1.491 . S
C1117 C1116 1.400 . S
C1117 C1118 1.398 . S
C1118 H1106 0.950 . S
C1118 C1117 1.398 . S
C1118 C1119 1.391 . S
C1119 H1107 0.950 . S
C1119 C1115 1.393 . S
C1119 C1118 1.391 . S
H1120 C1128 0.950 . S
H1121 C1133 0.950 . S
H1122 C1130 0.950 . S
H1123 C1132 0.950 . S
H1124 C1134 0.950 . S
H1125 C1136 0.950 . S
H1126 C1138 0.950 . S
H1127 C1139 0.950 . S
C1128 H1120 0.950 . S
C1128 C1129 1.386 . S
C1128 C1130 1.391 . S
C1129 C1128 1.386 . S
C1129 C1133 1.393 . S
C1130 H1122 0.950 . S
C1130 C1128 1.391 . S
C1130 C1131 1.400 . S
C1131 C1130 1.400 . S
C1131 C1132 1.398 . S
C1131 C1137 1.491 . S
C1132 H1123 0.950 . S
C1132 C1131 1.398 . S
C1132 C1133 1.391 . S
C1133 H1121 0.950 . S
C1133 C1129 1.393 . S
C1133 C1132 1.391 . S
C1134 H1124 0.950 . S
C1134 C1135 1.386 . S
C1134 C1136 1.391 . S
C1135 C1134 1.386 . S
C1135 C1139 1.393 . S
C1136 H1125 0.950 . S
C1136 C1134 1.391 . S
C1136 C1137 1.400 . S
C1137 C1131 1.491 . S
C1137 C1136 1.400 . S
C1137 C1138 1.398 . S
C1138 H1126 0.950 . S
C1138 C1137 1.398 . S
C1138 C1139 1.391 . S
C1139 H1127 0.950 . S
C1139 C1135 1.393 . S
C1139 C1138 1.391 . S
H1140 C1148 0.950 . S
H1141 C1153 0.950 . S
H1142 C1150 0.950 . S
H1143 C1152 0.950 . S
H1144 C1154 0.950 . S
H1145 C1156 0.950 . S
H1146 C1158 0.950 . S
H1147 C1159 0.950 . S
C1148 H1140 0.950 . S
C1148 C1149 1.386 . S
C1148 C1150 1.391 . S
C1149 C1148 1.386 . S
C1149 C1153 1.393 . S
C1150 H1142 0.950 . S
C1150 C1148 1.391 . S
C1150 C1151 1.400 . S
C1151 C1150 1.400 . S
C1151 C1152 1.398 . S
C1151 C1157 1.491 . S
C1152 H1143 0.950 . S
C1152 C1151 1.398 . S
C1152 C1153 1.391 . S
C1153 H1141 0.950 . S
C1153 C1149 1.393 . S
C1153 C1152 1.391 . S
C1154 H1144 0.950 . S
C1154 C1155 1.386 . S
C1154 C1156 1.391 . S
C1155 C1154 1.386 . S
C1155 C1159 1.393 . S
C1156 H1145 0.950 . S
C1156 C1154 1.391 . S
C1156 C1157 1.400 . S
C1157 C1151 1.491 . S
C1157 C1156 1.400 . S
C1157 C1158 1.398 . S
C1158 H1146 0.950 . S
C1158 C1157 1.398 . S
C1158 C1159 1.391 . S
C1159 H1147 0.950 . S
C1159 C1155 1.393 . S
C1159 C1158 1.391 . S
H1160 C1168 0.950 . S
H1161 C1173 0.950 . S
H1162 C1170 0.950 . S
H1163 C1172 0.950 . S
H1164 C1174 0.950 . S
H1165 C1176 0.950 . S
H1166 C1178 0.950 . S
H1167 C1179 0.950 . S
C1168 H1160 0.950 . S
C1168 C1169 1.386 . S
C1168 C1170 1.391 . S
C1169 C1168 1.386 . S
C1169 C1173 1.393 . S
C1170 H1162 0.950 . S
C1170 C1168 1.391 . S
C1170 C1171 1.400 . S
C1171 C1170 1.400 . S
C1171 C1172 1.398 . S
C1171 C1177 1.491 . S
C1172 H1163 0.950 . S
C1172 C1171 1.398 . S
C1172 C1173 1.391 . S
C1173 H1161 0.950 . S
C1173 C1169 1.393 . S
C1173 C1172 1.391 . S
C1174 H1164 0.950 . S
C1174 C1175 1.386 . S
C1174 C1176 1.391 . S
C1175 C1174 1.386 . S
C1175 C1179 1.393 . S
C1176 H1165 0.950 . S
C1176 C1174 1.391 . S
C1176 C1177 1.400 . S
C1177 C1171 1.491 . S
C1177 C1176 1.400 . S
C1177 C1178 1.398 . S
C1178 H1166 0.950 . S
C1178 C1177 1.398 . S
C1178 C1179 1.391 . S
C1179 H1167 0.950 . S
C1179 C1175 1.393 . S
C1179 C1178 1.391 . S
H1180 C1188 0.950 . S
H1181 C1193 0.950 . S
H1182 C1190 0.950 . S
H1183 C1192 0.950 . S
H1184 C1194 0.950 . S
H1185 C1196 0.950 . S
H1186 C1198 0.950 . S
H1187 C1199 0.950 . S
C1188 H1180 0.950 . S
C1188 C1189 1.386 . S
C1188 C1190 1.391 . S
C1189 C1188 1.386 . S
C1189 C1193 1.393 . S
C1190 H1182 0.950 . S
C1190 C1188 1.391 . S
C1190 C1191 1.400 . S
C1191 C1190 1.400 . S
C1191 C1192 1.398 . S
C1191 C1197 1.491 . S
C1192 H1183 0.950 . S
C1192 C1191 1.398 . S
C1192 C1193 1.391 . S
C1193 H1181 0.950 . S
C1193 C1189 1.393 . S
C1193 C1192 1.391 . S
C1194 H1184 0.950 . S
C1194 C1195 1.386 . S
C1194 C1196 1.391 . S
C1195 C1194 1.386 . S
C1195 C1199 1.393 . S
C1196 H1185 0.950 . S
C1196 C1194 1.391 . S
C1196 C1197 1.400 . S
C1197 C1191 1.491 . S
C1197 C1196 1.400 . S
C1197 C1198 1.398 . S
C1198 H1186 0.950 . S
C1198 C1197 1.398 . S
C1198 C1199 1.391 . S
C1199 H1187 0.950 . S
C1199 C1195 1.393 . S
C1199 C1198 1.391 . S
C489 C17 1.084 . S
C495 C337 1.101 . S
C509 C57 1.094 . S
C515 C377 1.105 . S
C529 C97 1.082 . S
C535 C417 1.077 . S
C549 C457 1.091 . S
C555 C137 1.077 . S
C569 C177 1.089 . S
C575 C257 1.077 . S
C589 C297 1.101 . S
C595 C217 1.085 . S
C609 C429 1.615 . S
C615 C29 1.615 . S
C629 C469 1.606 . S
C635 C69 1.614 . S
C649 C109 1.615 . S
C655 C269 1.616 . S
C669 C309 1.609 . S
C675 C149 1.616 . S
C689 C349 1.591 . S
C695 C189 1.598 . S
C709 C229 1.613 . S
C715 C389 1.616 . S
C729 C292 4.345 . S
C735 C12 4.347 . S
C749 C332 4.348 . S
C755 C52 4.344 . S
C769 C372 4.342 . S
C775 C92 4.346 . S
C789 C132 4.344 . S
C795 C412 4.347 . S
C809 C172 4.344 . S
C815 C452 4.344 . S
C829 C212 4.342 . S
C835 C252 4.346 . S
C849 C2 0.446 . S
C855 C122 0.496 . S
C869 C42 0.495 . S
C875 C162 0.515 . S
C889 C82 0.512 . S
C895 C202 0.504 . S
C909 C362 0.456 . S
C915 C242 0.504 . S
C929 C282 0.427 . S
C935 C402 0.466 . S
C949 C442 0.447 . S
C955 C322 0.427 . S
C969 C288 0.666 . S
C975 C8 0.655 . S
C989 C328 0.702 . S
C995 C48 0.717 . S
C1009 C88 0.713 . S
C1015 C368 0.722 . S
C1029 C408 0.686 . S
C1035 C128 0.705 . S
C1049 C448 0.689 . S
C1055 C168 0.707 . S
C1069 C208 0.712 . S
C1075 C248 0.722 . S
C1089 C31 4.586 . S
C1095 C431 4.587 . S
C1109 C71 4.589 . S
C1115 C471 4.584 1_556 S
C1129 C111 4.587 1_554 S
C1135 C271 4.590 . S
C1149 C151 4.591 . S
C1155 C311 4.586 . S
C1169 C191 4.589 . S
C1175 C351 4.584 1_556 S
C1189 C391 4.587 . S
C1195 C231 4.590 1_554 S
