# Generated by pormake.
# Topology umn, (4)-cn, num edge types: 1
# Building blocks:
#     Node 0, Type 0, BuildingBlock: NAHDIM_clean_sbu_0, # of connection points: 4
#     Node 1, Type 0, BuildingBlock: NAHDIM_clean_sbu_0, # of connection points: 4
#     Node 2, Type 0, BuildingBlock: NAHDIM_clean_sbu_0, # of connection points: 4
#     Node 3, Type 0, BuildingBlock: NAHDIM_clean_sbu_0, # of connection points: 4
#     Node 4, Type 0, BuildingBlock: NAHDIM_clean_sbu_0, # of connection points: 4
#     Node 5, Type 0, BuildingBlock: NAHDIM_clean_sbu_0, # of connection points: 4
#     Node 6, Type 0, BuildingBlock: NAHDIM_clean_sbu_0, # of connection points: 4
#     Node 7, Type 0, BuildingBlock: NAHDIM_clean_sbu_0, # of connection points: 4
#     Node 8, Type 0, BuildingBlock: NAHDIM_clean_sbu_0, # of connection points: 4
#     Node 9, Type 0, BuildingBlock: NAHDIM_clean_sbu_0, # of connection points: 4
#     Node 10, Type 0, BuildingBlock: NAHDIM_clean_sbu_0, # of connection points: 4
#     Node 11, Type 0, BuildingBlock: NAHDIM_clean_sbu_0, # of connection points: 4
#     Node 12, Type 0, BuildingBlock: NAHDIM_clean_sbu_0, # of connection points: 4
#     Node 13, Type 0, BuildingBlock: NAHDIM_clean_sbu_0, # of connection points: 4
#     Node 14, Type 0, BuildingBlock: NAHDIM_clean_sbu_0, # of connection points: 4
#     Node 15, Type 0, BuildingBlock: NAHDIM_clean_sbu_0, # of connection points: 4
#     Node 16, Type 0, BuildingBlock: NAHDIM_clean_sbu_0, # of connection points: 4
#     Node 17, Type 0, BuildingBlock: NAHDIM_clean_sbu_0, # of connection points: 4
#     Node 18, Type 0, BuildingBlock: NAHDIM_clean_sbu_0, # of connection points: 4
#     Node 19, Type 0, BuildingBlock: NAHDIM_clean_sbu_0, # of connection points: 4
#     Node 20, Type 0, BuildingBlock: NAHDIM_clean_sbu_0, # of connection points: 4
#     Node 21, Type 0, BuildingBlock: NAHDIM_clean_sbu_0, # of connection points: 4
#     Node 22, Type 0, BuildingBlock: NAHDIM_clean_sbu_0, # of connection points: 4
#     Node 23, Type 0, BuildingBlock: NAHDIM_clean_sbu_0, # of connection points: 4
#     Node 24, Type 0, BuildingBlock: NAHDIM_clean_sbu_0, # of connection points: 4
#     Node 25, Type 0, BuildingBlock: NAHDIM_clean_sbu_0, # of connection points: 4
#     Node 26, Type 0, BuildingBlock: NAHDIM_clean_sbu_0, # of connection points: 4
#     Node 27, Type 0, BuildingBlock: NAHDIM_clean_sbu_0, # of connection points: 4
#     Node 28, Type 0, BuildingBlock: NAHDIM_clean_sbu_0, # of connection points: 4
#     Node 29, Type 0, BuildingBlock: NAHDIM_clean_sbu_0, # of connection points: 4
#     Node 30, Type 0, BuildingBlock: NAHDIM_clean_sbu_0, # of connection points: 4
#     Node 31, Type 0, BuildingBlock: NAHDIM_clean_sbu_0, # of connection points: 4
#     Node 32, Type 0, BuildingBlock: NAHDIM_clean_sbu_0, # of connection points: 4
#     Node 33, Type 0, BuildingBlock: NAHDIM_clean_sbu_0, # of connection points: 4
#     Node 34, Type 0, BuildingBlock: NAHDIM_clean_sbu_0, # of connection points: 4
#     Node 35, Type 0, BuildingBlock: NAHDIM_clean_sbu_0, # of connection points: 4
#     Edge 36, Type (0, 0), BuildingBlock: CIFDUS_clean_linker_0, # of connection points: 2
#     Edge 37, Type (0, 0), BuildingBlock: CIFDUS_clean_linker_0, # of connection points: 2
#     Edge 38, Type (0, 0), BuildingBlock: CIFDUS_clean_linker_0, # of connection points: 2
#     Edge 39, Type (0, 0), BuildingBlock: CIFDUS_clean_linker_0, # of connection points: 2
#     Edge 40, Type (0, 0), BuildingBlock: CIFDUS_clean_linker_0, # of connection points: 2
#     Edge 41, Type (0, 0), BuildingBlock: CIFDUS_clean_linker_0, # of connection points: 2
#     Edge 42, Type (0, 0), BuildingBlock: CIFDUS_clean_linker_0, # of connection points: 2
#     Edge 43, Type (0, 0), BuildingBlock: CIFDUS_clean_linker_0, # of connection points: 2
#     Edge 44, Type (0, 0), BuildingBlock: CIFDUS_clean_linker_0, # of connection points: 2
#     Edge 45, Type (0, 0), BuildingBlock: CIFDUS_clean_linker_0, # of connection points: 2
#     Edge 46, Type (0, 0), BuildingBlock: CIFDUS_clean_linker_0, # of connection points: 2
#     Edge 47, Type (0, 0), BuildingBlock: CIFDUS_clean_linker_0, # of connection points: 2
#     Edge 48, Type (0, 0), BuildingBlock: CIFDUS_clean_linker_0, # of connection points: 2
#     Edge 49, Type (0, 0), BuildingBlock: CIFDUS_clean_linker_0, # of connection points: 2
#     Edge 50, Type (0, 0), BuildingBlock: CIFDUS_clean_linker_0, # of connection points: 2
#     Edge 51, Type (0, 0), BuildingBlock: CIFDUS_clean_linker_0, # of connection points: 2
#     Edge 52, Type (0, 0), BuildingBlock: CIFDUS_clean_linker_0, # of connection points: 2
#     Edge 53, Type (0, 0), BuildingBlock: CIFDUS_clean_linker_0, # of connection points: 2
#     Edge 54, Type (0, 0), BuildingBlock: CIFDUS_clean_linker_0, # of connection points: 2
#     Edge 55, Type (0, 0), BuildingBlock: CIFDUS_clean_linker_0, # of connection points: 2
#     Edge 56, Type (0, 0), BuildingBlock: CIFDUS_clean_linker_0, # of connection points: 2
#     Edge 57, Type (0, 0), BuildingBlock: CIFDUS_clean_linker_0, # of connection points: 2
#     Edge 58, Type (0, 0), BuildingBlock: CIFDUS_clean_linker_0, # of connection points: 2
#     Edge 59, Type (0, 0), BuildingBlock: CIFDUS_clean_linker_0, # of connection points: 2
#     Edge 60, Type (0, 0), BuildingBlock: CIFDUS_clean_linker_0, # of connection points: 2
#     Edge 61, Type (0, 0), BuildingBlock: CIFDUS_clean_linker_0, # of connection points: 2
#     Edge 62, Type (0, 0), BuildingBlock: CIFDUS_clean_linker_0, # of connection points: 2
#     Edge 63, Type (0, 0), BuildingBlock: CIFDUS_clean_linker_0, # of connection points: 2
#     Edge 64, Type (0, 0), BuildingBlock: CIFDUS_clean_linker_0, # of connection points: 2
#     Edge 65, Type (0, 0), BuildingBlock: CIFDUS_clean_linker_0, # of connection points: 2
#     Edge 66, Type (0, 0), BuildingBlock: CIFDUS_clean_linker_0, # of connection points: 2
#     Edge 67, Type (0, 0), BuildingBlock: CIFDUS_clean_linker_0, # of connection points: 2
#     Edge 68, Type (0, 0), BuildingBlock: CIFDUS_clean_linker_0, # of connection points: 2
#     Edge 69, Type (0, 0), BuildingBlock: CIFDUS_clean_linker_0, # of connection points: 2
#     Edge 70, Type (0, 0), BuildingBlock: CIFDUS_clean_linker_0, # of connection points: 2
#     Edge 71, Type (0, 0), BuildingBlock: CIFDUS_clean_linker_0, # of connection points: 2
#     Edge 72, Type (0, 0), BuildingBlock: CIFDUS_clean_linker_0, # of connection points: 2
#     Edge 73, Type (0, 0), BuildingBlock: CIFDUS_clean_linker_0, # of connection points: 2
#     Edge 74, Type (0, 0), BuildingBlock: CIFDUS_clean_linker_0, # of connection points: 2
#     Edge 75, Type (0, 0), BuildingBlock: CIFDUS_clean_linker_0, # of connection points: 2
#     Edge 76, Type (0, 0), BuildingBlock: CIFDUS_clean_linker_0, # of connection points: 2
#     Edge 77, Type (0, 0), BuildingBlock: CIFDUS_clean_linker_0, # of connection points: 2
#     Edge 78, Type (0, 0), BuildingBlock: CIFDUS_clean_linker_0, # of connection points: 2
#     Edge 79, Type (0, 0), BuildingBlock: CIFDUS_clean_linker_0, # of connection points: 2
#     Edge 80, Type (0, 0), BuildingBlock: CIFDUS_clean_linker_0, # of connection points: 2
#     Edge 81, Type (0, 0), BuildingBlock: CIFDUS_clean_linker_0, # of connection points: 2
#     Edge 82, Type (0, 0), BuildingBlock: CIFDUS_clean_linker_0, # of connection points: 2
#     Edge 83, Type (0, 0), BuildingBlock: CIFDUS_clean_linker_0, # of connection points: 2
#     Edge 84, Type (0, 0), BuildingBlock: CIFDUS_clean_linker_0, # of connection points: 2
#     Edge 85, Type (0, 0), BuildingBlock: CIFDUS_clean_linker_0, # of connection points: 2
#     Edge 86, Type (0, 0), BuildingBlock: CIFDUS_clean_linker_0, # of connection points: 2
#     Edge 87, Type (0, 0), BuildingBlock: CIFDUS_clean_linker_0, # of connection points: 2
#     Edge 88, Type (0, 0), BuildingBlock: CIFDUS_clean_linker_0, # of connection points: 2
#     Edge 89, Type (0, 0), BuildingBlock: CIFDUS_clean_linker_0, # of connection points: 2
#     Edge 90, Type (0, 0), BuildingBlock: CIFDUS_clean_linker_0, # of connection points: 2
#     Edge 91, Type (0, 0), BuildingBlock: CIFDUS_clean_linker_0, # of connection points: 2
#     Edge 92, Type (0, 0), BuildingBlock: CIFDUS_clean_linker_0, # of connection points: 2
#     Edge 93, Type (0, 0), BuildingBlock: CIFDUS_clean_linker_0, # of connection points: 2
#     Edge 94, Type (0, 0), BuildingBlock: CIFDUS_clean_linker_0, # of connection points: 2
#     Edge 95, Type (0, 0), BuildingBlock: CIFDUS_clean_linker_0, # of connection points: 2
#     Edge 96, Type (0, 0), BuildingBlock: CIFDUS_clean_linker_0, # of connection points: 2
#     Edge 97, Type (0, 0), BuildingBlock: CIFDUS_clean_linker_0, # of connection points: 2
#     Edge 98, Type (0, 0), BuildingBlock: CIFDUS_clean_linker_0, # of connection points: 2
#     Edge 99, Type (0, 0), BuildingBlock: CIFDUS_clean_linker_0, # of connection points: 2
#     Edge 100, Type (0, 0), BuildingBlock: CIFDUS_clean_linker_0, # of connection points: 2
#     Edge 101, Type (0, 0), BuildingBlock: CIFDUS_clean_linker_0, # of connection points: 2
#     Edge 102, Type (0, 0), BuildingBlock: CIFDUS_clean_linker_0, # of connection points: 2
#     Edge 103, Type (0, 0), BuildingBlock: CIFDUS_clean_linker_0, # of connection points: 2
#     Edge 104, Type (0, 0), BuildingBlock: CIFDUS_clean_linker_0, # of connection points: 2
#     Edge 105, Type (0, 0), BuildingBlock: CIFDUS_clean_linker_0, # of connection points: 2
#     Edge 106, Type (0, 0), BuildingBlock: CIFDUS_clean_linker_0, # of connection points: 2
#     Edge 107, Type (0, 0), BuildingBlock: CIFDUS_clean_linker_0, # of connection points: 2
# Relax obj value: 0.320
# Max RMSD: 0.320
# Mean RMSD: 0.320
data_MOF--net-umn--node1-NAHDIM_clean_sbu_0--edge1-CIFDUS_clean_linker_0
_symmetry_space_group_name_H-M    P1
_symmetry_Int_Tables_number       1
_symmetry_cell_setting            triclinic
loop_
_symmetry_equiv_pos_as_xyz
'x, y, z'
_cell_length_a     73.766034
_cell_length_b     73.781969
_cell_length_c     30.635724
_cell_angle_alpha  90.012751
_cell_angle_beta   90.009979
_cell_angle_gamma 120.0178
loop_
_atom_site_label
_atom_site_type_symbol
_atom_site_fract_x
_atom_site_fract_y
_atom_site_fract_z
_atom_type_partial_charge
C0 C 0.33181 0.13896 0.2022 0.0
O1 O 0.34976 0.14194 0.21739 0.0
O2 O 0.34322 0.09796 0.20802 0.0
Zn3 Zn 0.31742 0.09741 0.233 0.0
O4 O 0.31645 0.09695 0.29956 0.0
C5 C 0.29407 0.05879 0.18538 0.0
O6 O 0.31084 0.06682 0.16067 0.0
O7 O 0.31545 0.12122 0.20717 0.0
C8 C 0.31019 0.07901 0.31644 0.0
O9 O 0.30619 0.06324 0.29065 0.0
C10 C 0.35318 0.08968 0.22452 0.0
O11 O 0.34815 0.0814 0.26367 0.0
O12 O 0.29236 0.07032 0.21393 0.0
C13 C 0.88137 0.22488 0.20171 0.0
O14 O 0.89733 0.23542 0.1754 0.0
O15 O 0.91179 0.2791 0.18767 0.0
Zn16 Zn 0.89765 0.26488 0.2442 0.0
O17 O 0.88087 0.27727 0.26878 0.0
C18 C 0.92261 0.2539 0.29998 0.0
O19 O 0.9095 0.2347 0.2872 0.0
O20 O 0.87839 0.2343 0.2332 0.0
C21 C 0.87835 0.27894 0.30934 0.0
O22 O 0.86832 0.28854 0.32203 0.0
C23 C 0.90689 0.29011 0.16386 0.0
O24 O 0.89141 0.29297 0.17586 0.0
O25 O 0.92035 0.26889 0.28617 0.0
C26 C 0.79548 0.66424 0.18973 0.0
O27 O 0.78757 0.67486 0.17142 0.0
O28 O 0.73771 0.64156 0.18893 0.0
Zn29 Zn 0.75873 0.65057 0.23817 0.0
O30 O 0.74681 0.63461 0.29425 0.0
C31 C 0.77613 0.68688 0.29078 0.0
O32 O 0.78145 0.67535 0.3142 0.0
O33 O 0.78516 0.65125 0.21978 0.0
C34 C 0.73324 0.63771 0.31324 0.0
O35 O 0.72533 0.64759 0.29188 0.0
C36 C 0.72209 0.62335 0.18293 0.0
O37 O 0.71878 0.60826 0.2102 0.0
O38 O 0.76692 0.67994 0.25442 0.0
C39 C 0.10841 0.29491 0.31735 0.0
O40 O 0.11193 0.31173 0.29566 0.0
O41 O 0.07519 0.31803 0.33186 0.0
Zn42 Zn 0.06783 0.28885 0.31193 0.0
O43 O 0.06504 0.28588 0.24626 0.0
C44 C 0.03188 0.2727 0.36941 0.0
O45 O 0.0437 0.28977 0.39193 0.0
O46 O 0.08988 0.28208 0.32965 0.0
C47 C 0.04765 0.27978 0.22695 0.0
O48 O 0.03131 0.27674 0.2499 0.0
C49 C 0.08558 0.32573 0.36682 0.0
O50 O 0.09282 0.31518 0.38794 0.0
O51 O 0.0397 0.26829 0.33696 0.0
C52 C 0.69653 0.79544 0.36028 0.0
O53 O 0.68215 0.78361 0.33169 0.0
O54 O 0.6776 0.73762 0.40354 0.0
Zn55 Zn 0.70089 0.75935 0.36596 0.0
O56 O 0.69534 0.75404 0.30137 0.0
C57 C 0.72973 0.74788 0.40601 0.0
O58 O 0.71619 0.74022 0.43822 0.0
O59 O 0.70659 0.78815 0.38018 0.0
C60 C 0.6968 0.73918 0.28388 0.0
O61 O 0.70007 0.7266 0.3088 0.0
C62 C 0.66148 0.72155 0.38867 0.0
O63 O 0.6588 0.71904 0.34627 0.0
O64 O 0.72674 0.75768 0.37539 0.0
C65 C 0.23038 0.87645 0.34233 0.0
O66 O 0.24375 0.87114 0.32721 0.0
O67 O 0.28609 0.91818 0.37148 0.0
Zn68 Zn 0.26512 0.91677 0.32732 0.0
O69 O 0.26993 0.91183 0.26476 0.0
C70 C 0.25845 0.94902 0.2954 0.0
O71 O 0.24329 0.93337 0.27388 0.0
O72 O 0.23606 0.89571 0.34565 0.0
C73 C 0.28511 0.92703 0.24509 0.0
O74 O 0.29915 0.94285 0.26821 0.0
C75 C 0.30287 0.91775 0.36476 0.0
O76 O 0.30755 0.9149 0.32493 0.0
O77 O 0.2684 0.94522 0.32442 0.0
C78 C 0.68565 0.88897 0.84143 0.0
O79 O 0.67087 0.88756 0.81529 0.0
O80 O 0.67382 0.93283 0.84518 0.0
Zn81 Zn 0.69984 0.93188 0.82796 0.0
O82 O 0.70148 0.931 0.76233 0.0
C83 C 0.72033 0.96714 0.88258 0.0
O84 O 0.7057 0.95471 0.91012 0.0
O85 O 0.70014 0.90697 0.85309 0.0
C86 C 0.71318 0.94726 0.73995 0.0
O87 O 0.72461 0.96523 0.75993 0.0
C88 C 0.67285 0.94865 0.83176 0.0
O89 O 0.68725 0.96168 0.80455 0.0
O90 O 0.72381 0.959 0.84941 0.0
C91 C 0.1119 0.77155 0.84773 0.0
O92 O 0.10748 0.77169 0.80622 0.0
O93 O 0.05262 0.71322 0.88544 0.0
Zn94 Zn 0.07057 0.73737 0.84548 0.0
O95 O 0.07404 0.72798 0.7858 0.0
C96 C 0.04295 0.75527 0.85665 0.0
O97 O 0.04097 0.74952 0.89777 0.0
O98 O 0.09827 0.75749 0.87234 0.0
C99 C 0.05753 0.71527 0.76519 0.0
O100 O 0.03947 0.70659 0.78567 0.0
C101 C 0.05312 0.69627 0.88689 0.0
O102 O 0.06639 0.69413 0.86183 0.0
O103 O 0.05511 0.7524 0.832 0.0
C104 C 0.19433 0.30277 0.76133 0.0
O105 O 0.20671 0.30505 0.79428 0.0
O106 O 0.24948 0.34582 0.73975 0.0
Zn107 Zn 0.23235 0.3166 0.71461 0.0
O108 O 0.23791 0.31322 0.65087 0.0
C109 C 0.25147 0.30329 0.78149 0.0
O110 O 0.25584 0.32079 0.80136 0.0
O111 O 0.20187 0.30676 0.72298 0.0
C112 C 0.2526 0.30942 0.64239 0.0
O113 O 0.26511 0.3106 0.67415 0.0
C114 C 0.26933 0.35657 0.73716 0.0
O115 O 0.27916 0.34994 0.71182 0.0
O116 O 0.23994 0.29773 0.74767 0.0
C117 C 0.88458 0.67189 0.69258 0.0
O118 O 0.88547 0.65853 0.7196 0.0
O119 O 0.93059 0.66466 0.66109 0.0
Zn120 Zn 0.92831 0.68766 0.69202 0.0
O121 O 0.92945 0.68555 0.7577 0.0
C122 C 0.95268 0.73045 0.70244 0.0
O123 O 0.93525 0.7267 0.72185 0.0
O124 O 0.9014 0.68619 0.67567 0.0
C125 C 0.94694 0.692 0.77685 0.0
O126 O 0.96382 0.69765 0.7533 0.0
C127 C 0.94798 0.66561 0.65346 0.0
O128 O 0.96539 0.68213 0.66639 0.0
O129 O 0.95238 0.71613 0.67882 0.0
C130 C 0.37454 0.25426 0.66877 0.0
O131 O 0.3931 0.26264 0.68714 0.0
O132 O 0.38256 0.31227 0.61588 0.0
Zn133 Zn 0.38057 0.29658 0.67152 0.0
O134 O 0.40923 0.3074 0.69837 0.0
C135 C 0.34425 0.28634 0.7251 0.0
O136 O 0.33822 0.26714 0.71248 0.0
O137 O 0.36704 0.26585 0.65833 0.0
C138 C 0.41351 0.31062 0.73883 0.0
O139 O 0.43312 0.31941 0.75149 0.0
C140 C 0.39828 0.33012 0.60758 0.0
O141 O 0.41411 0.3382 0.63498 0.0
O142 O 0.3618 0.30125 0.71222 0.0
C143 C 0.74824 0.13332 0.71871 0.0
O144 O 0.73474 0.13168 0.68882 0.0
O145 O 0.70453 0.08292 0.68717 0.0
Zn146 Zn 0.71459 0.09285 0.74846 0.0
O147 O 0.69296 0.09692 0.78051 0.0
C148 C 0.73475 0.06965 0.77244 0.0
O149 O 0.74917 0.08291 0.74556 0.0
O150 O 0.74268 0.11909 0.74734 0.0
C151 C 0.68921 0.09354 0.8211 0.0
O152 O 0.67322 0.09425 0.838 0.0
C153 C 0.69309 0.08843 0.66663 0.0
O154 O 0.68808 0.10133 0.68545 0.0
O155 O 0.71821 0.07063 0.77827 0.0
C156 C 0.00267 0.43905 0.48559 0.0
O157 O 0.99312 0.42715 0.51949 0.0
O158 O 0.04202 0.41023 0.45219 0.0
Zn159 Zn 0.02012 0.41297 0.48675 0.0
O160 O 0.02542 0.41652 0.55185 0.0
C161 C 0.99128 0.37079 0.45798 0.0
O162 O 0.0066 0.37399 0.43151 0.0
O163 O 0.01583 0.43606 0.46467 0.0
C164 C 0.01931 0.40006 0.57467 0.0
O165 O 0.01272 0.38207 0.5547 0.0
C166 C 0.05442 0.40484 0.46877 0.0
O167 O 0.05551 0.40394 0.51144 0.0
O168 O 0.99295 0.38582 0.48115 0.0
C169 C 0.5235 0.55 0.54291 0.0
O170 O 0.52537 0.56059 0.57873 0.0
O171 O 0.58119 0.59855 0.50644 0.0
Zn172 Zn 0.5693 0.57211 0.54243 0.0
O173 O 0.57218 0.57759 0.6073 0.0
C174 C 0.5994 0.5629 0.50055 0.0
O175 O 0.59861 0.57381 0.46746 0.0
O176 O 0.53983 0.55242 0.52371 0.0
C177 C 0.59087 0.58805 0.62148 0.0
O178 O 0.60641 0.59613 0.59338 0.0
C179 C 0.58744 0.61699 0.52031 0.0
O180 O 0.58583 0.62006 0.56202 0.0
O181 O 0.587 0.55899 0.53246 0.0
C182 C 0.44806 0.00852 0.52061 0.0
O183 O 0.43261 0.0052 0.49433 0.0
O184 O 0.39535 0.98046 0.55609 0.0
Zn185 Zn 0.41903 0.00656 0.58346 0.0
O186 O 0.41886 0.00637 0.64948 0.0
C187 C 0.40253 0.02991 0.5399 0.0
O188 O 0.39143 0.01237 0.51829 0.0
O189 O 0.44597 0.01 0.56138 0.0
C190 C 0.40828 0.01314 0.66944 0.0
O191 O 0.39633 0.01817 0.64675 0.0
C192 C 0.37645 0.97107 0.56908 0.0
O193 O 0.37169 0.97722 0.60537 0.0
O194 O 0.41659 0.03154 0.5661 0.0
C195 C 0.76764 0.64847 0.65843 0.0
O196 O 0.76702 0.66199 0.63149 0.0
O197 O 0.714 0.64584 0.69485 0.0
Zn198 Zn 0.72369 0.63122 0.65286 0.0
O199 O 0.72711 0.64165 0.59079 0.0
C200 C 0.7019 0.5911 0.61491 0.0
O201 O 0.719 0.59924 0.59111 0.0
O202 O 0.75059 0.63352 0.67309 0.0
C203 C 0.71143 0.63873 0.56809 0.0
O204 O 0.69317 0.6317 0.58714 0.0
C205 C 0.72466 0.66496 0.7062 0.0
O206 O 0.7432 0.67685 0.68876 0.0
O207 O 0.70133 0.60115 0.64812 0.0
C208 C 0.31575 0.12945 0.66625 0.0
O209 O 0.29781 0.1216 0.64545 0.0
O210 O 0.28532 0.06935 0.70959 0.0
Zn211 Zn 0.30527 0.08697 0.6614 0.0
O212 O 0.29326 0.08564 0.6009 0.0
C213 C 0.34045 0.08419 0.62815 0.0
O214 O 0.34637 0.10274 0.61154 0.0
O215 O 0.32218 0.11721 0.67866 0.0
C216 C 0.29218 0.07194 0.57414 0.0
O217 O 0.29483 0.05672 0.58884 0.0
C218 C 0.27452 0.04959 0.70487 0.0
O219 O 0.27396 0.04156 0.66633 0.0
O220 O 0.32452 0.07561 0.6529 0.0
C221 C 0.8654 0.20873 0.64488 0.0
O222 O 0.87929 0.21121 0.67463 0.0
O223 O 0.91589 0.21438 0.62523 0.0
Zn224 Zn 0.90013 0.22306 0.58353 0.0
O225 O 0.89724 0.21383 0.5203 0.0
C226 C 0.90736 0.26562 0.5728 0.0
O227 O 0.88692 0.25725 0.57452 0.0
O228 O 0.87106 0.21302 0.60532 0.0
C229 C 0.91163 0.22618 0.49442 0.0
O230 O 0.93012 0.2392 0.51086 0.0
C231 C 0.93557 0.22616 0.62988 0.0
O232 O 0.94558 0.24217 0.60343 0.0
O233 O 0.91556 0.25429 0.57934 0.0
C234 C 0.31025 0.21145 0.04249 0.0
O235 O 0.29244 0.2076 0.02482 0.0
O236 O 0.29547 0.24896 0.03722 0.0
Zn237 Zn 0.32168 0.25144 0.01003 0.0
O238 O 0.32188 0.24928 0.94437 0.0
C239 C 0.35293 0.28965 0.05799 0.0
O240 O 0.34408 0.2804 0.09491 0.0
O241 O 0.32613 0.22964 0.0387 0.0
C242 C 0.32683 0.26621 0.92419 0.0
O243 O 0.32648 0.28145 0.94568 0.0
C244 C 0.29462 0.26467 0.05174 0.0
O245 O 0.3098 0.2836 0.04224 0.0
O246 O 0.34616 0.27979 0.02232 0.0
C247 C 0.80161 0.10989 0.11903 0.0
O248 O 0.78793 0.09921 0.14964 0.0
O249 O 0.76101 0.05478 0.10885 0.0
Zn250 Zn 0.76801 0.07984 0.07031 0.0
O251 O 0.76097 0.07153 0.00745 0.0
C252 C 0.7427 0.10087 0.10457 0.0
O253 O 0.75047 0.10643 0.14405 0.0
O254 O 0.79723 0.1037 0.07974 0.0
C255 C 0.74159 0.0582 0.00324 0.0
O256 O 0.73118 0.04778 0.03804 0.0
C257 C 0.75114 0.05199 0.1445 0.0
O258 O 0.7453 0.06544 0.15607 0.0
O259 O 0.74864 0.09116 0.07947 0.0
C260 C 0.91048 0.70159 0.10049 0.0
O261 O 0.91746 0.70757 0.06061 0.0
O262 O 0.96785 0.70533 0.15796 0.0
Zn263 Zn 0.94715 0.69725 0.1082 0.0
O264 O 0.95867 0.71303 0.05205 0.0
C265 C 0.92071 0.65171 0.10025 0.0
O266 O 0.90834 0.65304 0.12931 0.0
O267 O 0.92119 0.69753 0.12709 0.0
C268 C 0.97175 0.70984 0.03128 0.0
O269 O 0.98075 0.70072 0.05154 0.0
C270 C 0.98511 0.72241 0.16172 0.0
O271 O 0.9908 0.73667 0.13103 0.0
O272 O 0.93774 0.66793 0.08965 0.0
C273 C 0.57231 0.04054 0.98938 0.0
O274 O 0.58203 0.04773 0.02679 0.0
O275 O 0.61706 0.02079 0.93792 0.0
Zn276 Zn 0.6065 0.03439 0.98041 0.0
O277 O 0.6013 0.02099 0.03931 0.0
C278 C 0.64502 0.07381 0.96797 0.0
O279 O 0.644 0.06724 0.92768 0.0
O280 O 0.58034 0.034 0.96118 0.0
C281 C 0.61672 0.02196 0.05986 0.0
O282 O 0.63467 0.02885 0.03954 0.0
C283 C 0.61324 0.00206 0.94199 0.0
O284 O 0.60074 0.99036 0.9734 0.0
O285 O 0.62962 0.06343 0.99324 0.0
C286 C 0.96276 0.52002 0.00535 0.0
O287 O 0.97931 0.53521 0.02463 0.0
O288 O 0.97332 0.57238 0.00725 0.0
Zn289 Zn 0.94748 0.54651 0.0297 0.0
O290 O 0.94808 0.54487 0.09549 0.0
C291 C 0.92381 0.56013 0.98059 0.0
O292 O 0.93715 0.56258 0.94954 0.0
O293 O 0.94614 0.52112 0.00316 0.0
C294 C 0.9403 0.5536 0.11873 0.0
O295 O 0.93244 0.56404 0.09948 0.0
C296 C 0.97613 0.59064 0.0138 0.0
O297 O 0.96268 0.59283 0.0381 0.0
O298 O 0.92267 0.54927 0.01371 0.0
C299 C 0.4242 0.46464 0.00438 0.0
O300 O 0.42086 0.45229 0.038 0.0
O301 O 0.36348 0.42748 0.9359 0.0
Zn302 Zn 0.38113 0.43556 0.99054 0.0
O303 O 0.36856 0.43971 0.04515 0.0
C304 C 0.3938 0.4043 0.97915 0.0
O305 O 0.40038 0.41293 0.94061 0.0
O306 O 0.40907 0.46081 0.97902 0.0
C307 C 0.35364 0.42371 0.06334 0.0
O308 O 0.3444 0.40591 0.04184 0.0
C309 C 0.34506 0.42425 0.9297 0.0
O310 O 0.33496 0.42697 0.96204 0.0
O311 O 0.38558 0.41163 0.00486 0.0
C312 C 0.70562 0.79798 0.92537 0.0
O313 O 0.7214 0.79941 0.94804 0.0
O314 O 0.70448 0.74435 0.89535 0.0
Zn315 Zn 0.69002 0.7542 0.9381 0.0
O316 O 0.70223 0.75968 0.99877 0.0
C317 C 0.64697 0.72218 0.91602 0.0
O318 O 0.65176 0.72901 0.8757 0.0
O319 O 0.69037 0.77998 0.91615 0.0
C320 C 0.6975 0.74417 0.02375 0.0
O321 O 0.68708 0.72516 0.00755 0.0
C322 C 0.69753 0.72484 0.89001 0.0
O323 O 0.68197 0.71139 0.91445 0.0
O324 O 0.66037 0.73134 0.94602 0.0
C325 C 0.21587 0.87692 0.91121 0.0
O326 O 0.21911 0.87882 0.95355 0.0
O327 O 0.246 0.94245 0.87083 0.0
Zn328 Zn 0.2479 0.921 0.90879 0.0
O329 O 0.24387 0.92341 0.97345 0.0
C330 C 0.28247 0.91587 0.93135 0.0
O331 O 0.26845 0.90202 0.95805 0.0
O332 O 0.22654 0.89261 0.88668 0.0
C333 C 0.25964 0.93638 0.99575 0.0
O334 O 0.27657 0.95023 0.97514 0.0
C335 C 0.24984 0.96087 0.87988 0.0
O336 O 0.25561 0.96818 0.91963 0.0
O337 O 0.27675 0.92479 0.90347 0.0
C338 C 0.08023 0.27367 0.84274 0.0
O339 O 0.06854 0.27371 0.81043 0.0
O340 O 0.02675 0.25884 0.84257 0.0
Zn341 Zn 0.04607 0.27003 0.895 0.0
O342 O 0.03536 0.25546 0.9526 0.0
C343 C 0.06215 0.31514 0.88317 0.0
O344 O 0.07036 0.31344 0.84643 0.0
O345 O 0.07357 0.27182 0.88165 0.0
C346 C 0.02208 0.25841 0.97317 0.0
O347 O 0.01238 0.26666 0.95233 0.0
C348 C 0.00792 0.24416 0.8378 0.0
O349 O -0.00247 0.23272 0.87159 0.0
O350 O 0.0517 0.29907 0.90683 0.0
C351 C 0.46089 0.03374 0.98988 0.0
O352 O 0.45039 0.02498 0.95397 0.0
O353 O 0.41609 0.05209 0.04589 0.0
Zn354 Zn 0.42471 0.03667 0.00364 0.0
O355 O 0.42525 0.04482 0.94082 0.0
C356 C 0.39072 0.99537 0.03363 0.0
O357 O 0.39334 0.00344 0.07293 0.0
O358 O 0.45276 0.04008 0.0183 0.0
C359 C 0.40804 0.03961 0.92169 0.0
O360 O 0.39085 0.03241 0.94501 0.0
C361 C 0.41403 0.06769 0.03581 0.0
O362 O 0.41843 0.07513 0.99588 0.0
O363 O 0.40277 0.00636 0.00296 0.0
C364 C 0.98353 0.42913 0.92553 0.0
O365 O 0.96661 0.41354 0.90817 0.0
O366 O 0.97135 0.37708 0.94697 0.0
Zn367 Zn 0.99579 0.39952 0.9124 0.0
O368 O 0.9919 0.39646 0.84721 0.0
C369 C 0.02706 0.3936 0.95991 0.0
O370 O 0.01706 0.3933 0.99564 0.0
O371 O -0.00043 0.42722 0.93063 0.0
C372 C 0.99237 0.38128 0.82874 0.0
O373 O 0.99289 0.36688 0.85303 0.0
C374 C 0.96993 0.35986 0.9586 0.0
O375 O 0.98389 0.35516 0.94457 0.0
O376 O 0.02141 0.39748 0.92364 0.0
C377 C 0.54547 0.54699 0.97197 0.0
O378 O 0.54848 0.5596 0.93902 0.0
O379 O 0.6128 0.57126 0.00455 0.0
Zn380 Zn 0.58919 0.56957 0.96752 0.0
O381 O 0.59027 0.56307 0.90393 0.0
C382 C 0.58944 0.60734 0.99984 0.0
O383 O 0.58702 0.59937 0.03918 0.0
O384 O 0.56129 0.54821 0.99123 0.0
C385 C 0.60171 0.578 0.8782 0.0
O386 O 0.61478 0.59646 0.89471 0.0
C387 C 0.62992 0.58852 0.00825 0.0
O388 O 0.63247 0.60475 0.9856 0.0
O389 O 0.59052 0.59729 0.96729 0.0
C390 C 0.96958 0.52554 0.44839 0.0
O391 O 0.97652 0.53506 0.41073 0.0
O392 O 0.95238 0.57205 0.49822 0.0
Zn393 Zn 0.96037 0.55758 0.45259 0.0
O394 O 0.94396 0.55097 0.39696 0.0
C395 C 0.00531 0.58442 0.45953 0.0
O396 O 0.00287 0.57591 0.49833 0.0
O397 O 0.96079 0.5322 0.4744 0.0
C398 C 0.94267 0.56539 0.37708 0.0
O399 O 0.9494 0.58351 0.39656 0.0
C400 C 0.9349 0.57124 0.50314 0.0
O401 O 0.919 0.55868 0.47828 0.0
O402 O 0.98947 0.57861 0.43504 0.0
C403 C 0.42237 0.46498 0.41493 0.0
O404 O 0.42226 0.45384 0.38133 0.0
O405 O 0.38704 0.41002 0.42616 0.0
Zn406 Zn 0.38135 0.43323 0.40974 0.0
O407 O 0.3803 0.43622 0.34438 0.0
C408 C 0.34804 0.41537 0.47112 0.0
O409 O 0.36257 0.41491 0.49515 0.0
O410 O 0.40519 0.45962 0.43437 0.0
C411 C 0.36363 0.42616 0.32203 0.0
O412 O 0.34622 0.41261 0.34163 0.0
C413 C 0.37328 0.3907 0.42398 0.0
O414 O 0.35523 0.38521 0.40527 0.0
O415 O 0.35338 0.42552 0.43546 0.0
C416 C 0.55776 0.01721 0.46585 0.0
O417 O 0.57353 0.02172 0.49217 0.0
O418 O 0.6101 0.04013 0.43959 0.0
Zn419 Zn 0.58662 0.0179 0.40342 0.0
O420 O 0.58982 0.02491 0.33961 0.0
C421 C 0.58656 0.98155 0.44323 0.0
O422 O 0.58522 0.98917 0.48106 0.0
O423 O 0.55957 0.01453 0.42546 0.0
C424 C 0.60247 0.02153 0.31771 0.0
O425 O 0.61415 0.01545 0.33825 0.0
C426 C 0.62621 0.03919 0.45081 0.0
O427 O 0.62894 0.02416 0.43505 0.0
O428 O 0.58659 0.99084 0.40836 0.0
C429 C 0.18891 0.25477 0.36202 0.0
O430 O 0.18559 0.23571 0.36777 0.0
O431 O 0.24738 0.27354 0.30896 0.0
Zn432 Zn 0.23378 0.26874 0.3682 0.0
O433 O 0.22799 0.24099 0.39254 0.0
C434 C 0.25118 0.30723 0.41838 0.0
O435 O 0.23491 0.30797 0.40322 0.0
O436 O 0.20753 0.2701 0.36144 0.0
C437 C 0.22831 0.23748 0.43308 0.0
O438 O 0.22642 0.21961 0.44576 0.0
C439 C 0.23945 0.26063 0.27755 0.0
O440 O 0.22177 0.24305 0.28369 0.0
O441 O 0.25376 0.292 0.40783 0.0
C442 C 0.70493 0.90674 0.38768 0.0
O443 O 0.72045 0.91918 0.41347 0.0
O444 O 0.70999 0.96316 0.36448 0.0
Zn445 Zn 0.69363 0.93781 0.40236 0.0
O446 O 0.70531 0.94222 0.46299 0.0
C447 C 0.6523 0.92972 0.37804 0.0
O448 O 0.65742 0.92644 0.33895 0.0
O449 O 0.69147 0.91185 0.37688 0.0
C450 C 0.71414 0.95995 0.48175 0.0
O451 O 0.71729 0.97657 0.45975 0.0
C452 C 0.71442 0.96242 0.32467 0.0
O453 O 0.70946 0.94427 0.3071 0.0
O454 O 0.6651 0.93405 0.40932 0.0
C455 C 0.12058 0.7764 0.40235 0.0
O456 O 0.10719 0.78163 0.41771 0.0
O457 O 0.06479 0.73632 0.3782 0.0
Zn458 Zn 0.08631 0.73559 0.4184 0.0
O459 O 0.0825 0.73983 0.4824 0.0
C460 C 0.08032 0.69721 0.37848 0.0
O461 O 0.0804 0.7062 0.3414 0.0
O462 O 0.11506 0.75716 0.39941 0.0
C463 C 0.07039 0.72417 0.50597 0.0
O464 O 0.05914 0.70579 0.48742 0.0
C465 C 0.04638 0.72062 0.37573 0.0
O466 O 0.04107 0.70469 0.40206 0.0
O467 O 0.08357 0.70734 0.41385 0.0
H468 H 0.23895 0.96544 0.2474 0.0
H469 H 0.29849 0.98059 0.30431 0.0
H470 H 0.31501 0.01478 0.26959 0.0
H471 H 0.31275 0.04049 0.22376 0.0
H472 H 0.25303 0.02832 0.17455 0.0
H473 H 0.23632 0.99253 0.20429 0.0
C474 C 0.25548 0.97634 0.25241 0.0
C475 C 0.26745 0.97051 0.27843 0.0
C476 C 0.26488 0.99625 0.23297 0.0
C477 C 0.28886 0.98476 0.28484 0.0
C478 C 0.29839 0.00425 0.26465 0.0
C479 C 0.29612 0.02981 0.21898 0.0
C480 C 0.2841 0.03655 0.19627 0.0
C481 C 0.2866 0.01007 0.23851 0.0
C482 C 0.26252 0.02307 0.19123 0.0
C483 C 0.25302 0.0028 0.20862 0.0
H484 H 0.01024 0.29201 0.38957 0.0
H485 H 0.0025 0.23242 0.35031 0.0
H486 H 0.96574 0.21981 0.33251 0.0
H487 H 0.93827 0.22817 0.31541 0.0
H488 H 0.94854 0.28993 0.34377 0.0
H489 H 0.98159 0.29916 0.37934 0.0
C490 C 0.00031 0.27602 0.37853 0.0
C491 C 0.00897 0.26313 0.37111 0.0
C492 C 0.97971 0.26945 0.36565 0.0
C493 C 0.99607 0.24257 0.35619 0.0
C494 C 0.97515 0.23546 0.34567 0.0
C495 C 0.94757 0.24352 0.33006 0.0
C496 C 0.94102 0.25837 0.32675 0.0
C497 C 0.96715 0.24914 0.34816 0.0
C498 C 0.95325 0.27821 0.34581 0.0
C499 C 0.97221 0.28354 0.36601 0.0
H500 H 0.76815 0.69063 0.37515 0.0
H501 H 0.78173 0.7221 0.25074 0.0
H502 H 0.77275 0.74741 0.28018 0.0
H503 H 0.75526 0.75632 0.33637 0.0
H504 H 0.73722 0.72195 0.45771 0.0
H505 H 0.75427 0.70237 0.43495 0.0
C506 C 0.76978 0.70346 0.355 0.0
C507 C 0.77555 0.70463 0.31092 0.0
C508 C 0.76355 0.71723 0.3715 0.0
C509 C 0.77726 0.72099 0.28475 0.0
C510 C 0.77206 0.73537 0.30153 0.0
C511 C 0.75544 0.7449 0.35838 0.0
C512 C 0.7446 0.7403 0.39831 0.0
C513 C 0.76429 0.73302 0.34418 0.0
C514 C 0.74525 0.72564 0.42659 0.0
C515 C 0.75489 0.71434 0.41347 0.0
H516 H 0.75139 -0.00189 0.83498 0.0
H517 H 0.69905 0.98487 0.9185 0.0
H518 H 0.69932 0.01607 0.89223 0.0
H519 H 0.7113 0.04433 0.83851 0.0
H520 H 0.76424 0.05845 0.75628 0.0
H521 H 0.76679 0.02962 0.789 0.0
C522 C 0.74052 0.00247 0.84852 0.0
C523 C 0.72509 0.98903 0.8782 0.0
C524 C 0.74061 0.02039 0.83297 0.0
C525 C 0.71118 0.99493 0.89574 0.0
C526 C 0.71118 0.01273 0.88043 0.0
C527 C 0.72368 0.04142 0.82841 0.0
C528 C 0.73744 0.05342 0.79481 0.0
C529 C 0.72529 0.02509 0.84786 0.0
C530 C 0.75335 0.04936 0.78191 0.0
C531 C 0.75486 0.03291 0.80067 0.0
H532 H 0.04207 0.76542 0.77213 0.0
H533 H 0.00891 0.75481 0.89408 0.0
H534 H 0.97856 0.75159 0.85507 0.0
H535 H 0.95926 0.74373 0.78615 0.0
H536 H 0.99122 0.74951 0.66454 0.0
H537 H 0.02445 0.76329 0.7035 0.0
C538 C 0.02841 0.76292 0.79039 0.0
C539 C 0.0275 0.7597 0.83582 0.0
C540 C 0.01073 0.76008 0.7676 0.0
C541 C 0.00988 0.75698 0.85902 0.0
C542 C 0.99248 0.75506 0.83667 0.0
C543 C 0.97363 0.74882 0.76795 0.0
C544 C 0.97284 0.74545 0.72258 0.0
C545 C 0.99235 0.75537 0.79085 0.0
C546 C 0.99152 0.75191 0.69949 0.0
C547 C 0.01044 0.75957 0.72182 0.0
H548 H 0.30301 0.26008 0.74076 0.0
H549 H 0.35342 0.32279 0.76624 0.0
H550 H 0.32862 0.33209 0.79689 0.0
H551 H 0.29233 0.3243 0.80338 0.0
H552 H 0.24182 0.26292 0.76938 0.0
H553 H 0.26687 0.25098 0.7562 0.0
C554 C 0.30863 0.27567 0.75377 0.0
C555 C 0.32994 0.29085 0.75042 0.0
C556 C 0.29419 0.28114 0.76969 0.0
C557 C 0.33701 0.31092 0.76776 0.0
C558 C 0.32284 0.31625 0.78531 0.0
C559 C 0.28677 0.30809 0.79468 0.0
C560 C 0.26532 0.29447 0.78724 0.0
C561 C 0.30132 0.30176 0.78463 0.0
C562 C 0.25831 0.27362 0.77528 0.0
C563 C 0.27263 0.26688 0.76734 0.0
H564 H 0.95416 0.35795 0.49942 0.0
H565 H 0.99317 0.33538 0.44461 0.0
H566 H 0.97116 0.30129 0.47796 0.0
H567 H 0.94304 0.27915 0.52771 0.0
H568 H 0.90081 0.2991 0.57532 0.0
H569 H 0.92252 0.33352 0.54127 0.0
C570 C 0.9576 0.34544 0.49424 0.0
C571 C 0.97541 0.34926 0.4701 0.0
C572 C 0.94477 0.32575 0.51325 0.0
C573 C 0.97958 0.33287 0.46307 0.0
C574 C 0.96715 0.31344 0.48255 0.0
C575 C 0.93841 0.29091 0.53039 0.0
C576 C 0.92047 0.28669 0.55424 0.0
C577 C 0.95012 0.30995 0.50866 0.0
C578 C 0.91468 0.3021 0.55732 0.0
C579 C 0.92698 0.32167 0.53765 0.0
H580 H 0.60795 0.54603 0.57066 0.0
H581 H 0.63347 0.57599 0.4469 0.0
H582 H 0.66812 0.58286 0.46921 0.0
H583 H 0.69188 0.58748 0.52951 0.0
H584 H 0.66667 0.56198 0.65633 0.0
H585 H 0.63112 0.54579 0.62703 0.0
C586 C 0.62094 0.55355 0.548 0.0
C587 C 0.61823 0.56099 0.50763 0.0
C588 C 0.64096 0.55843 0.56193 0.0
C589 C 0.63517 0.57037 0.47843 0.0
C590 C 0.65504 0.57442 0.4913 0.0
C591 C 0.67863 0.57767 0.55029 0.0
C592 C 0.68177 0.57596 0.59504 0.0
C593 C 0.65828 0.56959 0.53386 0.0
C594 C 0.66452 0.56349 0.62181 0.0
C595 C 0.64423 0.5544 0.60512 0.0
H596 H 0.37937 0.09809 0.5941 0.0
H597 H 0.32137 0.04191 0.62516 0.0
H598 H 0.33477 0.02049 0.59469 0.0
H599 H 0.36316 0.01744 0.56181 0.0
H600 H 0.42281 0.07267 0.53853 0.0
H601 H 0.40858 0.09487 0.56253 0.0
C602 C 0.36975 0.08117 0.59419 0.0
C603 C 0.34946 0.07161 0.6119 0.0
C604 C 0.37776 0.06883 0.57751 0.0
C605 C 0.33713 0.04966 0.6121 0.0
C606 C 0.3447 0.03737 0.5944 0.0
C607 C 0.37286 0.03437 0.56105 0.0
C608 C 0.39373 0.04357 0.54743 0.0
C609 C 0.36496 0.04677 0.57715 0.0
C610 C 0.40653 0.06542 0.54814 0.0
C611 C 0.39845 0.07802 0.5622 0.0
H612 H 0.3856 0.3855 0.05844 0.0
H613 H 0.39995 0.37839 0.92507 0.0
H614 H 0.39199 0.3427 0.94066 0.0
H615 H 0.3759 0.3122 0.98882 0.0
H616 H 0.35978 0.3187 0.12112 0.0
H617 H 0.37412 0.3562 0.10965 0.0
C618 C 0.38732 0.37626 0.03295 0.0
C619 C 0.39294 0.38442 0.99042 0.0
C620 C 0.38238 0.35567 0.04195 0.0
C621 C 0.39548 0.37242 0.95796 0.0
C622 C 0.39086 0.35198 0.96682 0.0
C623 C 0.37593 0.32189 0.0155 0.0
C624 C 0.36643 0.31262 0.05552 0.0
C625 C 0.38355 0.34323 0.00823 0.0
C626 C 0.36689 0.32542 0.08995 0.0
C627 C 0.37492 0.34683 0.08327 0.0
H628 H 0.65399 0.08296 0.05421 0.0
H629 H 0.68252 0.09695 0.92656 0.0
H630 H 0.71698 0.11025 0.95964 0.0
H631 H 0.73739 0.11084 0.02333 0.0
H632 H 0.70895 0.09615 0.15091 0.0
H633 H 0.67595 0.09053 0.11948 0.0
C634 C 0.66779 0.08947 0.03358 0.0
C635 C 0.66564 0.08814 0.98777 0.0
C636 C 0.68747 0.09671 0.05289 0.0
C637 C 0.68372 0.09712 0.96174 0.0
C638 C 0.70341 0.10471 0.98067 0.0
C639 C 0.72412 0.10703 0.04439 0.0
C640 C 0.72534 0.10358 0.08914 0.0
C641 C 0.70525 0.10344 0.02598 0.0
C642 C 0.70826 0.09887 0.11635 0.0
C643 C 0.68939 0.09548 0.0983 0.0
H644 H 0.93283 0.64647 0.0205 0.0
H645 H 0.89519 0.61217 0.1313 0.0
H646 H 0.88892 0.57928 0.09835 0.0
H647 H 0.89834 0.5613 0.04318 0.0
H648 H 0.93703 0.59614 0.93377 0.0
H649 H 0.9379 0.62769 0.96014 0.0
C650 C 0.9231 0.63176 0.03726 0.0
C651 C 0.91488 0.63169 0.07869 0.0
C652 C 0.91959 0.61303 0.01816 0.0
C653 C 0.90186 0.61256 0.09958 0.0
C654 C 0.89827 0.59379 0.08074 0.0
C655 C 0.90649 0.57566 0.02444 0.0
C656 C 0.91803 0.57645 0.98716 0.0
C657 C 0.9076 0.59395 0.04068 0.0
C658 C 0.92815 0.59507 0.96277 0.0
C659 C 0.92889 0.61323 0.97813 0.0
H660 H 0.58909 0.62563 0.92359 0.0
H661 H 0.60137 0.63815 0.06132 0.0
H662 H 0.61702 0.67566 0.04761 0.0
H663 H 0.63249 0.70467 0.99538 0.0
H664 H 0.6219 0.69203 0.85728 0.0
H665 H 0.5998 0.65474 0.8724 0.0
C666 C 0.59485 0.63654 0.95073 0.0
C667 C 0.59453 0.6292 0.99329 0.0
C668 C 0.60423 0.65804 0.94249 0.0
C669 C 0.60163 0.64343 0.02822 0.0
C670 C 0.61067 0.66489 0.02036 0.0
C671 C 0.62496 0.69382 0.9686 0.0
C672 C 0.62923 0.70105 0.92521 0.0
C673 C 0.61286 0.67236 0.97744 0.0
C674 C 0.61905 0.68687 0.89094 0.0
C675 C 0.60654 0.66551 0.89955 0.0
H676 H 0.37765 0.97911 0.95285 0.0
H677 H 0.36036 0.96729 0.08893 0.0
H678 H 0.32593 0.93828 0.06843 0.0
H679 H 0.29921 0.92029 0.01183 0.0
H680 H 0.31567 0.93509 0.8762 0.0
H681 H 0.35214 0.95884 0.89657 0.0
C682 C 0.36653 0.97 0.97821 0.0
C683 C 0.3715 0.97555 0.02239 0.0
C684 C 0.34655 0.95399 0.96618 0.0
C685 C 0.35689 0.96347 0.05468 0.0
C686 C 0.33717 0.94695 0.04298 0.0
C687 C 0.31092 0.92823 0.98668 0.0
C688 C 0.30486 0.92598 0.94255 0.0
C689 C 0.33158 0.94261 0.9988 0.0
C690 C 0.32006 0.93662 0.91033 0.0
C691 C 0.34084 0.95026 0.922 0.0
H692 H 0.05318 0.32557 0.96178 0.0
H693 H 0.07229 0.34886 0.83074 0.0
H694 H 0.06688 0.37827 0.84649 0.0
H695 H 0.05134 0.39379 0.89338 0.0
H696 H 0.03075 0.36952 0.0233 0.0
H697 H 0.04277 0.34445 0.01253 0.0
C698 C 0.05648 0.33726 0.93685 0.0
C699 C 0.06266 0.3348 0.89484 0.0
C700 C 0.05305 0.35393 0.94594 0.0
C701 C 0.0673 0.35029 0.86318 0.0
C702 C 0.06415 0.36707 0.87214 0.0
C703 C 0.04994 0.38336 0.91976 0.0
C704 C 0.03977 0.38322 0.95874 0.0
C705 C 0.05624 0.36855 0.91282 0.0
C706 C 0.0384 0.36987 0.99287 0.0
C707 C 0.04508 0.35538 0.98657 0.0
H708 H 0.08127 0.67488 0.44763 0.0
H709 H 0.05837 0.66809 0.31551 0.0
H710 H 0.03512 0.63068 0.32733 0.0
H711 H 0.01673 0.60187 0.37929 0.0
H712 H 0.03841 0.60919 0.5125 0.0
H713 H 0.06695 0.64436 0.49595 0.0
C714 C 0.07156 0.66512 0.42107 0.0
C715 C 0.07114 0.6743 0.38113 0.0
C716 C 0.05779 0.64379 0.42852 0.0
C717 C 0.05883 0.66144 0.34673 0.0
C718 C 0.0454 0.64007 0.35357 0.0
C719 C 0.02796 0.61101 0.40448 0.0
C720 C 0.02517 0.6032 0.44732 0.0
C721 C 0.044 0.63136 0.395 0.0
C722 C 0.04007 0.61497 0.4794 0.0
C723 C 0.05634 0.63512 0.47001 0.0
H724 H 0.25774 0.34677 0.42226 0.0
H725 H 0.28186 0.30776 0.46899 0.0
H726 H 0.31232 0.33836 0.49974 0.0
H727 H 0.33472 0.37642 0.50162 0.0
H728 H 0.31276 0.41567 0.44607 0.0
H729 H 0.2786 0.38483 0.43151 0.0
C730 C 0.26945 0.34492 0.43996 0.0
C731 C 0.26769 0.32509 0.44293 0.0
C732 C 0.28737 0.3627 0.4558 0.0
C733 C 0.28298 0.32291 0.46592 0.0
C734 C 0.30041 0.34041 0.48345 0.0
C735 C 0.32222 0.3783 0.48777 0.0
C736 C 0.32618 0.39825 0.47487 0.0
C737 C 0.30317 0.36045 0.477 0.0
C738 C 0.30998 0.40043 0.45629 0.0
C739 C 0.29056 0.3828 0.44758 0.0
H740 H 0.63689 0.93462 0.45472 0.0
H741 H 0.6267 0.93131 0.31543 0.0
H742 H 0.60192 0.9438 0.32483 0.0
H743 H 0.58816 0.96123 0.37098 0.0
H744 H 0.59991 0.96635 0.50977 0.0
H745 H 0.61873 0.94714 0.50225 0.0
C746 C 0.62896 0.93626 0.42646 0.0
C747 C 0.63401 0.93254 0.38433 0.0
C748 C 0.61516 0.94394 0.43198 0.0
C749 C 0.62329 0.93431 0.34816 0.0
C750 C 0.60919 0.94155 0.35349 0.0
C751 C 0.59447 0.95778 0.39976 0.0
C752 C 0.59307 0.96562 0.44073 0.0
C753 C 0.60577 0.94729 0.39501 0.0
C754 C 0.60095 0.96068 0.47779 0.0
C755 C 0.61184 0.94981 0.47347 0.0
H756 H 0.29292 0.047 0.51049 0.0
H757 H 0.29344 0.10516 0.53049 0.0
H758 H 0.2995 0.1129 0.45235 0.0
H759 H 0.30622 0.10366 0.37851 0.0
H760 H 0.30586 0.0454 0.36088 0.0
H761 H 0.29854 0.03744 0.438 0.0
C762 C 0.29412 0.0613 0.49785 0.0
C763 C 0.29273 0.07546 0.5264 0.0
C764 C 0.29799 0.06581 0.45328 0.0
C765 C 0.29434 0.0939 0.50924 0.0
C766 C 0.29798 0.09842 0.46459 0.0
C767 C 0.30464 0.08931 0.39169 0.0
C768 C 0.30669 0.07522 0.36394 0.0
C769 C 0.30018 0.08463 0.43637 0.0
C770 C 0.30437 0.05655 0.3814 0.0
C771 C 0.30012 0.05192 0.42555 0.0
H772 H 0.92804 0.26455 0.45853 0.0
H773 H 0.88068 0.2002 0.43752 0.0
H774 H 0.867 0.21077 0.37537 0.0
H775 H 0.86685 0.23896 0.33111 0.0
H776 H 0.911 0.30337 0.36144 0.0
H777 H 0.92706 0.29232 0.41758 0.0
C778 C 0.91477 0.25278 0.44042 0.0
C779 C 0.90542 0.23162 0.45263 0.0
C780 C 0.9061 0.25913 0.40723 0.0
C781 C 0.88824 0.21659 0.42854 0.0
C782 C 0.8803 0.22266 0.39336 0.0
C783 C 0.88006 0.25046 0.34998 0.0
C784 C 0.88801 0.2719 0.34213 0.0
C785 C 0.8888 0.24396 0.38309 0.0
C786 C 0.90483 0.2868 0.367 0.0
C787 C 0.91398 0.28048 0.39898 0.0
H788 H 0.73822 0.63279 0.51795 0.0
H789 H 0.68719 0.64541 0.51034 0.0
H790 H 0.68866 0.6451 0.43046 0.0
H791 H 0.70493 0.64184 0.36297 0.0
H792 H 0.75486 0.62749 0.37124 0.0
H793 H 0.75304 0.62749 0.45075 0.0
C794 C 0.72756 0.63569 0.4988 0.0
C795 C 0.7129 0.63955 0.51994 0.0
C796 C 0.7281 0.63488 0.45306 0.0
C797 C 0.69878 0.64266 0.49474 0.0
C798 C 0.69956 0.64239 0.44913 0.0
C799 C 0.71526 0.63847 0.38213 0.0
C800 C 0.73004 0.63471 0.36105 0.0
C801 C 0.71417 0.63852 0.42794 0.0
C802 C 0.74326 0.63033 0.38647 0.0
C803 C 0.74235 0.63049 0.43201 0.0
H804 H 0.01399 0.26977 0.17472 0.0
H805 H 0.07649 0.27872 0.17274 0.0
H806 H 0.073 0.27038 0.09506 0.0
H807 H 0.05296 0.26218 0.02703 0.0
H808 H 0.99138 0.25539 0.02752 0.0
H809 H 0.99358 0.26081 0.10662 0.0
C810 C 0.02685 0.26987 0.15734 0.0
C811 C 0.04552 0.27498 0.17959 0.0
C812 C 0.02482 0.26524 0.11246 0.0
C813 C 0.062 0.27501 0.15646 0.0
C814 C 0.05999 0.27014 0.11202 0.0
C815 C 0.03983 0.26145 0.04454 0.0
C816 C 0.02194 0.2582 0.02148 0.0
C817 C 0.04154 0.26537 0.08964 0.0
C818 C 0.00526 0.25774 0.04458 0.0
C819 C 0.00658 0.26098 0.08973 0.0
H820 H 0.70536 0.76904 0.22275 0.0
H821 H 0.68727 0.704 0.23765 0.0
H822 H 0.68689 0.70003 0.15838 0.0
H823 H 0.69102 0.71488 0.08493 0.0
H824 H 0.71038 0.78029 0.07004 0.0
H825 H 0.71129 0.78435 0.14923 0.0
C826 C 0.70122 0.75398 0.2086 0.0
C827 C 0.69611 0.73677 0.23594 0.0
C828 C 0.70147 0.75193 0.16305 0.0
C829 C 0.69117 0.71745 0.21724 0.0
C830 C 0.69099 0.71518 0.17194 0.0
C831 C 0.69562 0.73007 0.09897 0.0
C832 C 0.70053 0.74721 0.07153 0.0
C833 C 0.69608 0.73231 0.14454 0.0
C834 C 0.70657 0.76682 0.09034 0.0
C835 C 0.70697 0.76914 0.13566 0.0
H836 H 0.25116 0.907 0.19195 0.0
H837 H 0.31689 0.95344 0.19157 0.0
H838 H 0.31454 0.96117 0.11494 0.0
H839 H 0.29375 0.9552 0.04857 0.0
H840 H 0.22784 0.90922 0.0491 0.0
H841 H 0.23031 0.90106 0.1254 0.0
C842 C 0.26506 0.91854 0.17489 0.0
C843 C 0.28424 0.92947 0.19733 0.0
C844 C 0.2635 0.92325 0.13109 0.0
C845 C 0.30199 0.9447 0.17496 0.0
C846 C 0.30063 0.94922 0.13122 0.0
C847 C 0.27984 0.94356 0.06543 0.0
C848 C 0.26059 0.93296 0.04315 0.0
C849 C 0.28142 0.93876 0.10912 0.0
C850 C 0.24282 0.91772 0.0655 0.0
C851 C 0.24425 0.91294 0.10906 0.0
H852 H 0.73074 0.97972 0.68269 0.0
H853 H 0.69571 0.91221 0.68902 0.0
H854 H 0.69445 0.91028 0.60948 0.0
H855 H 0.70167 0.92768 0.53853 0.0
H856 H 0.73531 0.99518 0.53181 0.0
H857 H 0.73894 0.99717 0.61125 0.0
C858 C 0.72296 0.96457 0.66669 0.0
C859 C 0.71326 0.94614 0.69178 0.0
C860 C 0.72204 0.96357 0.62092 0.0
C861 C 0.70319 0.92664 0.67051 0.0
C862 C 0.70248 0.92552 0.62501 0.0
C863 C 0.71001 0.94285 0.55432 0.0
C864 C 0.71817 0.96126 0.52925 0.0
C865 C 0.71163 0.94388 0.59995 0.0
C866 C 0.72883 0.98077 0.55034 0.0
C867 C 0.73087 0.98192 0.59577 0.0
H868 H 0.04325 0.69544 0.56374 0.0
H869 H 0.09809 0.75694 0.55659 0.0
H870 H 0.09981 0.75891 0.63621 0.0
H871 H 0.08572 0.74321 0.70793 0.0
H872 H 0.02978 0.68262 0.71506 0.0
H873 H 0.02865 0.68012 0.63537 0.0
C874 C 0.05555 0.70932 0.57956 0.0
C875 C 0.07054 0.72601 0.55417 0.0
C876 C 0.05638 0.7104 0.62537 0.0
C877 C 0.08629 0.74391 0.57528 0.0
C878 C 0.08736 0.745 0.62084 0.0
C879 C 0.07346 0.72933 0.69203 0.0
C880 C 0.05802 0.71298 0.71732 0.0
C881 C 0.07256 0.7283 0.64621 0.0
C882 C 0.04193 0.69533 0.69626 0.0
C883 C 0.04123 0.69393 0.65073 0.0
H884 H 0.25963 0.25534 0.49171 0.0
H885 H 0.20386 0.25472 0.44812 0.0
H886 H 0.20762 0.2791 0.50641 0.0
H887 H 0.22524 0.29814 0.57374 0.0
H888 H 0.28136 0.29879 0.6165 0.0
H889 H 0.27927 0.2773 0.55429 0.0
C890 C 0.24846 0.26075 0.49491 0.0
C891 C 0.23154 0.2534 0.46586 0.0
C892 C 0.25078 0.27475 0.52841 0.0
C893 C 0.21713 0.26044 0.46992 0.0
C894 C 0.21924 0.27428 0.50337 0.0
C895 C 0.23721 0.29388 0.56906 0.0
C896 C 0.25323 0.29983 0.60025 0.0
C897 C 0.23582 0.28127 0.5333 0.0
C898 C 0.2687 0.29428 0.59338 0.0
C899 C 0.26749 0.28187 0.55787 0.0
H900 H 0.94123 0.70697 0.97777 0.0
H901 H 0.00247 0.71295 0.97671 0.0
H902 H 0.00038 0.70829 0.89731 0.0
H903 H 0.98024 0.70056 0.82895 0.0
H904 H 0.91793 0.69208 0.83181 0.0
H905 H 0.92132 0.69951 0.90988 0.0
C906 C 0.95432 0.70769 0.96011 0.0
C907 C 0.97209 0.71054 0.98302 0.0
C908 C 0.95265 0.70416 0.9149 0.0
C909 C 0.98869 0.71093 0.95973 0.0
C910 C 0.98743 0.70809 0.91444 0.0
C911 C 0.96736 0.70024 0.8467 0.0
C912 C 0.94878 0.69556 0.82459 0.0
C913 C 0.96931 0.70429 0.89181 0.0
C914 C 0.93231 0.69536 0.84805 0.0
C915 C 0.93428 0.69976 0.89268 0.0
H916 H 0.35384 0.30446 0.89142 0.0
H917 H 0.32677 0.2385 0.8645 0.0
H918 H 0.3507 0.24656 0.80271 0.0
H919 H 0.38136 0.27234 0.76052 0.0
H920 H 0.4095 0.33795 0.79081 0.0
H921 H 0.3833 0.33007 0.84784 0.0
C922 C 0.35287 0.29181 0.87162 0.0
C923 C 0.33852 0.27088 0.88255 0.0
C924 C 0.36717 0.29652 0.83739 0.0
C925 C 0.33768 0.25473 0.85676 0.0
C926 C 0.35146 0.25932 0.82168 0.0
C927 C 0.38154 0.28486 0.77932 0.0
C928 C 0.39706 0.30569 0.77139 0.0
C929 C 0.36662 0.28013 0.81242 0.0
C930 C 0.39752 0.32183 0.79641 0.0
C931 C 0.38257 0.31732 0.82888 0.0
H932 H 0.67585 0.06098 0.87681 0.0
H933 H 0.73149 0.11495 0.82866 0.0
H934 H 0.75322 0.10716 0.87678 0.0
H935 H 0.75603 0.08637 0.93624 0.0
H936 H 0.70002 0.03308 0.98642 0.0
H937 H 0.67882 0.03916 0.93391 0.0
C938 C 0.69274 0.0709 0.87682 0.0
C939 C 0.70219 0.08831 0.84897 0.0
C940 C 0.70502 0.06651 0.90512 0.0
C941 C 0.72403 0.10121 0.84924 0.0
C942 C 0.73639 0.09683 0.87694 0.0
C943 C 0.73925 0.0758 0.93509 0.0
C944 C 0.72967 0.05933 0.96539 0.0
C945 C 0.72705 0.07962 0.90533 0.0
C946 C 0.70784 0.04592 0.96358 0.0
C947 C 0.69565 0.04946 0.93375 0.0
H948 H 0.00528 0.36736 0.63086 0.0
H949 H 0.02701 0.43361 0.62595 0.0
H950 H 0.01952 0.4334 0.70372 0.0
H951 H 0.0064 0.41429 0.77295 0.0
H952 H 0.98546 0.34823 0.77771 0.0
H953 H 0.99274 0.34845 0.6999 0.0
C954 C 0.00853 0.38182 0.64678 0.0
C955 C 0.01672 0.40048 0.62254 0.0
C956 C 0.00407 0.38156 0.69137 0.0
C957 C 0.0208 0.41903 0.64381 0.0
C958 C 0.01641 0.41891 0.68825 0.0
C959 C 0.00322 0.3999 0.75684 0.0
C960 C 0.99523 0.38123 0.78099 0.0
C961 C 0.00787 0.40023 0.71226 0.0
C962 C 0.99153 0.36279 0.75982 0.0
C963 C 0.99577 0.36291 0.71537 0.0
H964 H 0.62506 0.60543 0.81454 0.0
H965 H 0.56909 0.54575 0.83494 0.0
H966 H 0.56023 0.54411 0.7577 0.0
H967 H 0.56787 0.56009 0.68456 0.0
H968 H 0.62465 0.61889 0.6636 0.0
H969 H 0.63356 0.62056 0.74095 0.0
C970 C 0.61101 0.59197 0.80204 0.0
C971 C 0.59775 0.57577 0.83056 0.0
C972 C 0.60599 0.59112 0.75759 0.0
C973 C 0.57965 0.5584 0.81373 0.0
C974 C 0.57448 0.55752 0.76959 0.0
C975 C 0.58207 0.57335 0.6971 0.0
C976 C 0.59544 0.5895 0.66867 0.0
C977 C 0.58739 0.57391 0.74134 0.0
C978 C 0.61405 0.60636 0.68501 0.0
C979 C 0.61919 0.60728 0.72916 0.0
H980 H 0.43297 0.03238 0.86828 0.0
H981 H 0.37912 0.04071 0.86813 0.0
H982 H 0.3744 0.03318 0.78979 0.0
H983 H 0.38498 0.02318 0.72207 0.0
H984 H 0.43761 0.01278 0.72347 0.0
H985 H 0.44322 0.02187 0.80087 0.0
C986 C 0.4204 0.03287 0.85094 0.0
C987 C 0.40657 0.03737 0.87374 0.0
C988 C 0.41737 0.02782 0.80637 0.0
C989 C 0.39005 0.03745 0.85113 0.0
C990 C 0.38729 0.03304 0.80645 0.0
C991 C 0.39765 0.02285 0.73931 0.0
C992 C 0.41085 0.0173 0.71697 0.0
C993 C 0.40071 0.02796 0.78387 0.0
C994 C 0.42714 0.01687 0.73988 0.0
C995 C 0.43044 0.02219 0.7841 0.0
H996 H 0.58922 0.02411 0.11504 0.0
H997 H 0.6424 0.01466 0.11195 0.0
H998 H 0.64274 0.01378 0.19178 0.0
H999 H 0.62854 0.01675 0.26224 0.0
H1000 H 0.57636 0.02787 0.2648 0.0
H1001 H 0.57522 0.02731 0.18521 0.0
C1002 C 0.60071 0.02156 0.13181 0.0
C1003 C 0.61564 0.01925 0.10769 0.0
C1004 C 0.60118 0.02169 0.17755 0.0
C1005 C 0.63068 0.01637 0.12987 0.0
C1006 C 0.63094 0.01597 0.17546 0.0
C1007 C 0.61695 0.01911 0.24542 0.0
C1008 C 0.60258 0.02237 0.26948 0.0
C1009 C 0.61641 0.01885 0.19962 0.0
C1010 C 0.58768 0.02543 0.24712 0.0
C1011 C 0.58694 0.02501 0.20159 0.0
H1012 H 0.94582 0.53906 0.31997 0.0
H1013 H 0.92993 0.58785 0.32816 0.0
H1014 H 0.9268 0.58777 0.24863 0.0
H1015 H 0.93088 0.57545 0.17684 0.0
H1016 H 0.94903 0.52826 0.16878 0.0
H1017 H 0.94909 0.52618 0.24834 0.0
C1018 C 0.94131 0.54942 0.30442 0.0
C1019 C 0.93799 0.56338 0.32988 0.0
C1020 C 0.94025 0.54978 0.25873 0.0
C1021 C 0.93251 0.57695 0.30921 0.0
C1022 C 0.93082 0.57696 0.26378 0.0
C1023 C 0.93475 0.56463 0.19245 0.0
C1024 C 0.94002 0.55208 0.16689 0.0
C1025 C 0.93506 0.56374 0.2382 0.0
C1026 C 0.94506 0.53819 0.18768 0.0
C1027 C 0.94503 0.53695 0.23317 0.0
H1028 H 0.38077 0.45084 0.1231 0.0
H1029 H 0.31963 0.39595 0.11064 0.0
H1030 H 0.31678 0.39251 0.19013 0.0
H1031 H 0.33292 0.40347 0.26278 0.0
H1032 H 0.39508 0.45709 0.2742 0.0
H1033 H 0.39628 0.46257 0.19552 0.0
C1034 C 0.36663 0.43837 0.13775 0.0
C1035 C 0.35039 0.42371 0.11099 0.0
C1036 C 0.36543 0.43606 0.18331 0.0
C1037 C 0.33233 0.40745 0.13054 0.0
C1038 C 0.33074 0.40542 0.17597 0.0
C1039 C 0.34668 0.41643 0.2481 0.0
C1040 C 0.36393 0.42976 0.27439 0.0
C1041 C 0.34741 0.41934 0.20264 0.0
C1042 C 0.38164 0.44648 0.25477 0.0
C1043 C 0.38233 0.44968 0.20975 0.0
H1044 H 0.34324 0.21579 0.09048 0.0
H1045 H 0.27934 0.17113 0.05587 0.0
H1046 H 0.28021 0.1451 0.1035 0.0
H1047 H 0.29894 0.13503 0.15493 0.0
H1048 H 0.36294 0.17939 0.18929 0.0
H1049 H 0.36208 0.20562 0.14203 0.0
C1050 C 0.32953 0.20033 0.09316 0.0
C1051 C 0.31127 0.19542 0.06957 0.0
C1052 C 0.33008 0.18545 0.1208 0.0
C1053 C 0.29362 0.17534 0.07359 0.0
C1054 C 0.29407 0.16044 0.10092 0.0
C1055 C 0.31268 0.15047 0.15235 0.0
C1056 C 0.33096 0.15526 0.17571 0.0
C1057 C 0.31217 0.16536 0.12479 0.0
C1058 C 0.34866 0.1753 0.17171 0.0
C1059 C 0.3482 0.1903 0.1446 0.0
H1060 H 0.80984 0.13069 0.19567 0.0
H1061 H 0.83428 0.13549 0.06552 0.0
H1062 H 0.86216 0.17128 0.08078 0.0
H1063 H 0.87788 0.20199 0.12935 0.0
H1064 H 0.85194 0.1973 0.25797 0.0
H1065 H 0.8263 0.1606 0.24493 0.0
C1066 C 0.82141 0.13942 0.17074 0.0
C1067 C 0.81995 0.13046 0.12946 0.0
C1068 C 0.83698 0.16008 0.17932 0.0
C1069 C 0.83503 0.14206 0.09754 0.0
C1070 C 0.85092 0.16254 0.10619 0.0
C1071 C 0.86672 0.19288 0.15463 0.0
C1072 C 0.86671 0.20239 0.19442 0.0
C1073 C 0.85178 0.17185 0.14668 0.0
C1074 C 0.85215 0.1904 0.22688 0.0
C1075 C 0.83751 0.16941 0.21951 0.0
H1076 H 0.81999 0.68903 0.12396 0.0
H1077 H 0.81885 0.64957 0.22924 0.0
H1078 H 0.85469 0.65843 0.21203 0.0
H1079 H 0.88633 0.67742 0.16727 0.0
H1080 H 0.88707 0.71596 0.06054 0.0
H1081 H 0.85141 0.70756 0.07848 0.0
C1082 C 0.82754 0.68231 0.14311 0.0
C1083 C 0.81675 0.66867 0.17786 0.0
C1084 C 0.84812 0.68743 0.133 0.0
C1085 C 0.82676 0.66006 0.20221 0.0
C1086 C 0.84729 0.66518 0.19252 0.0
C1087 C 0.87876 0.68414 0.14817 0.0
C1088 C 0.88938 0.69742 0.11282 0.0
C1089 C 0.85814 0.67892 0.15812 0.0
C1090 C 0.87924 0.70573 0.08796 0.0
C1091 C 0.85885 0.7009 0.09814 0.0
H1092 H 0.10546 0.25827 0.34341 0.0
H1093 H 0.15016 0.32234 0.31038 0.0
H1094 H 0.17891 0.31553 0.32217 0.0
H1095 H 0.19131 0.29142 0.34029 0.0
H1096 H 0.14695 0.22699 0.37119 0.0
H1097 H 0.11804 0.23393 0.36168 0.0
C1098 C 0.12151 0.27076 0.33905 0.0
C1099 C 0.12569 0.29078 0.32607 0.0
C1100 C 0.13798 0.26667 0.34528 0.0
C1101 C 0.14653 0.30677 0.32021 0.0
C1102 C 0.16298 0.30291 0.32696 0.0
C1103 C 0.17533 0.27886 0.34507 0.0
C1104 C 0.17129 0.25871 0.35643 0.0
C1105 C 0.15886 0.28291 0.33921 0.0
C1106 C 0.15048 0.24263 0.36231 0.0
C1107 C 0.13395 0.24659 0.35695 0.0
H1108 H 0.72604 0.88806 0.41818 0.0
H1109 H 0.6769 0.87905 0.32893 0.0
H1110 H 0.67024 0.8439 0.31194 0.0
H1111 H 0.67753 0.81533 0.32446 0.0
H1112 H 0.72616 0.82417 0.41507 0.0
H1113 H 0.73379 0.85981 0.42955 0.0
C1114 C 0.71399 0.87849 0.39472 0.0
C1115 C 0.70197 0.88614 0.37492 0.0
C1116 C 0.71004 0.85821 0.38559 0.0
C1117 C 0.68635 0.8735 0.34474 0.0
C1118 C 0.6825 0.85339 0.33505 0.0
C1119 C 0.68982 0.82505 0.34733 0.0
C1120 C 0.70118 0.81706 0.36875 0.0
C1121 C 0.69409 0.84551 0.35568 0.0
C1122 C 0.7171 0.82989 0.39823 0.0
C1123 C 0.72151 0.85029 0.40651 0.0
H1124 H 0.13728 0.81861 0.40534 0.0
H1125 H 0.15168 0.77062 0.36921 0.0
H1126 H 0.18685 0.79734 0.34744 0.0
H1127 H 0.21355 0.83426 0.33886 0.0
H1128 H 0.19921 0.88228 0.37498 0.0
H1129 H 0.16397 0.85556 0.39655 0.0
C1130 C 0.1481 0.81398 0.39268 0.0
C1131 C 0.14184 0.79265 0.38895 0.0
C1132 C 0.16832 0.82942 0.38024 0.0
C1133 C 0.15607 0.78693 0.37246 0.0
C1134 C 0.17621 0.8022 0.35999 0.0
C1135 C 0.20274 0.8389 0.35144 0.0
C1136 C 0.20903 0.86024 0.35531 0.0
C1137 C 0.1825 0.82348 0.36378 0.0
C1138 C 0.19479 0.86597 0.37166 0.0
C1139 C 0.17462 0.8507 0.38402 0.0
H1140 H 0.71622 0.88679 0.88674 0.0
H1141 H 0.6559 0.8483 0.82629 0.0
H1142 H 0.65687 0.81682 0.84654 0.0
H1143 H 0.67489 0.80022 0.8809 0.0
H1144 H 0.73534 0.83868 0.94091 0.0
H1145 H 0.73427 0.87017 0.92108 0.0
C1146 C 0.70324 0.87152 0.87814 0.0
C1147 C 0.686 0.86992 0.85509 0.0
C1148 C 0.70395 0.85347 0.8896 0.0
C1149 C 0.66936 0.85 0.84404 0.0
C1150 C 0.66991 0.83197 0.85555 0.0
C1151 C 0.68787 0.81548 0.8896 0.0
C1152 C 0.70517 0.81706 0.91234 0.0
C1153 C 0.68715 0.83352 0.87819 0.0
C1154 C 0.72183 0.83698 0.92336 0.0
C1155 C 0.72123 0.85501 0.91211 0.0
H1156 H 0.14355 0.80372 0.80379 0.0
H1157 H 0.12467 0.77765 0.93303 0.0
H1158 H 0.15596 0.80738 0.96387 0.0
H1159 H 0.1875 0.84186 0.95458 0.0
H1160 H 0.20581 0.868 0.82519 0.0
H1161 H 0.17597 0.83707 0.79407 0.0
C1162 C 0.14632 0.80443 0.83869 0.0
C1163 C 0.13169 0.78856 0.86606 0.0
C1164 C 0.16421 0.82164 0.85624 0.0
C1165 C 0.13563 0.78969 0.91119 0.0
C1166 C 0.15351 0.80672 0.92889 0.0
C1167 C 0.18507 0.84072 0.91954 0.0
C1168 C 0.19879 0.85732 0.89235 0.0
C1169 C 0.16773 0.82295 0.9018 0.0
C1170 C 0.19544 0.85553 0.84698 0.0
C1171 C 0.17835 0.83785 0.82909 0.0
H1172 H 0.09983 0.28027 0.76437 0.0
H1173 H 0.10854 0.27526 0.90233 0.0
H1174 H 0.14438 0.28322 0.88905 0.0
H1175 H 0.17363 0.29284 0.83875 0.0
H1176 H 0.16507 0.29816 0.70086 0.0
H1177 H 0.12876 0.28879 0.71374 0.0
C1178 C 0.10951 0.2808 0.79153 0.0
C1179 C 0.10151 0.27725 0.83428 0.0
C1180 C 0.13017 0.28552 0.78374 0.0
C1181 C 0.11429 0.27797 0.86908 0.0
C1182 C 0.13482 0.28255 0.86155 0.0
C1183 C 0.16382 0.29189 0.81146 0.0
C1184 C 0.17211 0.2963 0.76895 0.0
C1185 C 0.14298 0.28656 0.81908 0.0
C1186 C 0.15913 0.2949 0.73396 0.0
C1187 C 0.13835 0.28955 0.74127 0.0
H1188 H 0.84614 0.64341 0.72328 0.0
H1189 H 0.87759 0.69717 0.63854 0.0
H1190 H 0.84421 0.69481 0.62121 0.0
H1191 H 0.80617 0.67739 0.62955 0.0
H1192 H 0.77456 0.62351 0.71389 0.0
H1193 H 0.80801 0.6261 0.73202 0.0
C1194 C 0.84571 0.65462 0.70102 0.0
C1195 C 0.86433 0.67042 0.6822 0.0
C1196 C 0.82646 0.65318 0.69115 0.0
C1197 C 0.86349 0.68483 0.65346 0.0
C1198 C 0.84441 0.68351 0.64353 0.0
C1199 C 0.80657 0.66623 0.65199 0.0
C1200 C 0.7879 0.65028 0.6703 0.0
C1201 C 0.82581 0.66774 0.66213 0.0
C1202 C 0.78871 0.63594 0.6993 0.0
C1203 C 0.80783 0.63739 0.70967 0.0
H1204 H 0.38277 0.2244 0.69898 0.0
H1205 H 0.33696 0.23258 0.62724 0.0
H1206 H 0.3146 0.19476 0.62126 0.0
H1207 H 0.30791 0.15944 0.6365 0.0
H1208 H 0.35349 0.15091 0.70819 0.0
H1209 H 0.376 0.18882 0.71435 0.0
C1210 C 0.36796 0.21791 0.68181 0.0
C1211 C 0.3616 0.23132 0.66347 0.0
C1212 C 0.35506 0.1961 0.67874 0.0
C1213 C 0.34227 0.22264 0.64161 0.0
C1214 C 0.32943 0.201 0.63824 0.0
C1215 C 0.32272 0.16583 0.65367 0.0
C1216 C 0.32898 0.15234 0.67191 0.0
C1217 C 0.33563 0.18759 0.65681 0.0
C1218 C 0.34827 0.16093 0.69389 0.0
C1219 C 0.36118 0.18262 0.69733 0.0
H1220 H 0.84635 0.18894 0.72034 0.0
H1221 H 0.83398 0.20628 0.5939 0.0
H1222 H 0.79644 0.18626 0.60786 0.0
H1223 H 0.76715 0.16101 0.65259 0.0
H1224 H 0.77941 0.14233 0.77764 0.0
H1225 H 0.81691 0.16589 0.76779 0.0
C1226 C 0.83545 0.18859 0.69611 0.0
C1227 C 0.84295 0.19887 0.65596 0.0
C1228 C 0.81383 0.17669 0.70395 0.0
C1229 C 0.82862 0.19829 0.62492 0.0
C1230 C 0.80713 0.18685 0.63284 0.0
C1231 C 0.77798 0.16232 0.678 0.0
C1232 C 0.7705 0.14976 0.71553 0.0
C1233 C 0.79955 0.17553 0.67173 0.0
C1234 C 0.78477 0.15169 0.7482 0.0
C1235 C 0.80623 0.16513 0.74259 0.0
H1236 H 0.97826 0.45138 0.52772 0.0
H1237 H 0.01696 0.46396 0.4133 0.0
H1238 H 0.00958 0.4914 0.39129 0.0
H1239 H 0.99258 0.51205 0.40493 0.0
H1240 H 0.95449 0.50014 0.52007 0.0
H1241 H 0.96117 0.47208 0.54133 0.0
C1242 C 0.98506 0.46008 0.49792 0.0
C1243 C -0.00186 0.45562 0.4722 0.0
C1244 C 0.98086 0.47593 0.48558 0.0
C1245 C 0.00687 0.4671 0.43375 0.0
C1246 C 0.00264 0.48279 0.4211 0.0
C1247 C 0.98564 0.50327 0.4346 0.0
C1248 C 0.97303 0.50816 0.46085 0.0
C1249 C 0.98971 0.48735 0.44682 0.0
C1250 C 0.96427 0.4967 0.4993 0.0
C1251 C 0.96809 0.48066 0.51149 0.0
H1252 H 0.51522 0.53059 0.46456 0.0
H1253 H 0.48493 0.53675 0.57957 0.0
H1254 H 0.45067 0.51175 0.54912 0.0
H1255 H 0.4295 0.48706 0.4908 0.0
H1256 H 0.46051 0.48131 0.37644 0.0
H1257 H 0.4943 0.50738 0.40568 0.0
C1258 C 0.50115 0.52651 0.48307 0.0
C1259 C 0.50265 0.5354 0.52443 0.0
C1260 C 0.48162 0.51221 0.46544 0.0
C1261 C 0.48422 0.53008 0.54769 0.0
C1262 C 0.46463 0.51578 0.53031 0.0
C1263 C 0.44364 0.49166 0.47214 0.0
C1264 C 0.44247 0.48215 0.4316 0.0
C1265 C 0.46315 0.50661 0.48933 0.0
C1266 C 0.46094 0.48828 0.40783 0.0
C1267 C 0.48031 0.50318 0.42452 0.0
H1268 H 0.52368 0.01097 0.41954 0.0
H1269 H 0.54847 0.02057 0.55055 0.0
H1270 H 0.51678 0.01891 0.57886 0.0
H1271 H 0.48216 0.01478 0.56652 0.0
H1272 H 0.45729 0.00529 0.43562 0.0
H1273 H 0.489 0.00694 0.40717 0.0
C1274 C 0.52214 0.01265 0.4543 0.0
C1275 C 0.53841 0.01586 0.48288 0.0
C1276 C 0.50392 0.01176 0.47038 0.0
C1277 C 0.53619 0.01808 0.52781 0.0
C1278 C 0.51808 0.01715 0.54406 0.0
C1279 C 0.48366 0.01309 0.53175 0.0
C1280 C 0.46738 0.00991 0.50325 0.0
C1281 C 0.50188 0.01402 0.51563 0.0
C1282 C 0.46959 0.00777 0.45828 0.0
C1283 C 0.48771 0.00868 0.44198 0.0
H1284 H 0.48323 0.02447 0.93281 0.0
H1285 H 0.48612 0.04961 0.06157 0.0
H1286 H 0.52108 0.05445 0.07209 0.0
H1287 H 0.55056 0.05115 0.04517 0.0
H1288 H 0.54769 0.02593 0.91649 0.0
H1289 H 0.51296 0.02164 0.90545 0.0
C1290 C 0.49148 0.03099 0.96322 0.0
C1291 C 0.48203 0.0366 0.99641 0.0
C1292 C 0.51159 0.03377 0.96902 0.0
C1293 C 0.493 0.04512 0.03551 0.0
C1294 C 0.513 0.04791 0.04155 0.0
C1295 C 0.54241 0.04479 0.0146 0.0
C1296 C 0.55172 0.03885 0.98173 0.0
C1297 C 0.52242 0.04226 0.00856 0.0
C1298 C 0.54089 0.03063 0.94235 0.0
C1299 C 0.52101 0.02814 0.93603 0.0
H1300 H 0.9958 0.5134 0.00483 0.0
H1301 H 0.93126 0.48587 0.96436 0.0
H1302 H 0.93226 0.45563 0.93503 0.0
H1303 H 0.95119 0.43674 0.92223 0.0
H1304 H 0.01564 0.46408 0.96319 0.0
H1305 H 0.01493 0.49476 0.99085 0.0
C1306 C 0.98195 0.50081 0.98954 0.0
C1307 C 0.96347 0.50187 0.98692 0.0
C1308 C 0.98261 0.48346 0.97284 0.0
C1309 C 0.94568 0.48544 0.9669 0.0
C1310 C 0.94624 0.46813 0.95011 0.0
C1311 C 0.96513 0.44943 0.93705 0.0
C1312 C 0.98342 0.44809 0.94071 0.0
C1313 C 0.96458 0.46695 0.95309 0.0
C1314 C 0.00134 0.4647 0.96 0.0
C1315 C 0.00094 0.48224 0.97587 0.0
H1316 H 0.46033 0.47409 0.0464 0.0
H1317 H 0.43591 0.49412 0.94033 0.0
H1318 H 0.47124 0.52174 0.92196 0.0
H1319 H 0.50905 0.53946 0.93442 0.0
H1320 H 0.53367 0.51912 0.03954 0.0
H1321 H 0.4982 0.49237 0.05989 0.0
C1322 C 0.46271 0.48457 0.01942 0.0
C1323 C 0.4455 0.482 0.99473 0.0
C1324 C 0.48309 0.50031 0.00875 0.0
C1325 C 0.44888 0.4957 0.95982 0.0
C1326 C 0.46908 0.51151 0.94925 0.0
C1327 C 0.50669 0.52924 0.9619 0.0
C1328 C 0.524 0.53125 0.98532 0.0
C1329 C 0.4863 0.51382 0.97324 0.0
C1330 C 0.52063 0.51788 0.02086 0.0
C1331 C 0.50035 0.50257 0.03254 0.0
H1332 H 0.4064 0.05823 0.12224 0.0
H1333 H 0.40125 0.09609 0.02097 0.0
H1334 H 0.38341 0.10755 0.07152 0.0
H1335 H 0.36702 0.10483 0.14279 0.0
H1336 H 0.37207 0.06688 0.24403 0.0
H1337 H 0.3924 0.0577 0.1953 0.0
C1338 C 0.40152 0.06912 0.11128 0.0
C1339 C 0.40499 0.07611 0.0677 0.0
C1340 C 0.39121 0.07562 0.1405 0.0
C1341 C 0.39874 0.09038 0.05424 0.0
C1342 C 0.38848 0.09692 0.08313 0.0
C1343 C 0.37276 0.09474 0.15442 0.0
C1344 C 0.36784 0.08644 0.19696 0.0
C1345 C 0.3843 0.08935 0.12609 0.0
C1346 C 0.37555 0.07349 0.21147 0.0
C1347 C 0.38713 0.06814 0.18354 0.0
H1348 H 0.9041 0.31839 0.11099 0.0
H1349 H 0.93709 0.2842 0.12635 0.0
H1350 H 0.95833 0.3016 0.0623 0.0
H1351 H 0.96883 0.32775 0.0042 0.0
H1352 H 0.93682 0.36293 0.98995 0.0
H1353 H 0.91381 0.34375 0.05093 0.0
C1354 C 0.91584 0.31464 0.10018 0.0
C1355 C 0.91904 0.30008 0.12368 0.0
C1356 C 0.92821 0.32488 0.06347 0.0
C1357 C 0.93435 0.29543 0.10913 0.0
C1358 C 0.94652 0.30536 0.07242 0.0
C1359 C 0.95666 0.33107 0.01403 0.0
C1360 C 0.95459 0.34679 0.9925 0.0
C1361 C 0.94375 0.32028 0.04964 0.0
C1362 C 0.9388 0.35094 0.00596 0.0
C1363 C 0.92566 0.34002 0.04093 0.0
H1364 H 0.66698 0.62361 0.02557 0.0
H1365 H 0.62897 0.55891 0.06379 0.0
H1366 H 0.65441 0.56375 0.12033 0.0
H1367 H 0.6868 0.5868 0.16094 0.0
H1368 H 0.72437 0.65157 0.1225 0.0
H1369 H 0.69974 0.64618 0.06414 0.0
C1370 C 0.66428 0.61049 0.04603 0.0
C1371 C 0.64602 0.59094 0.04045 0.0
C1372 C 0.67886 0.61342 0.07868 0.0
C1373 C 0.64286 0.57415 0.06732 0.0
C1374 C 0.65739 0.57692 0.09977 0.0
C1375 C 0.68965 0.59972 0.13969 0.0
C1376 C 0.70741 0.61959 0.14637 0.0
C1377 C 0.67534 0.59655 0.10609 0.0
C1378 C 0.71084 0.63612 0.11834 0.0
C1379 C 0.69675 0.63307 0.08487 0.0
H1380 H 0.0706 0.35018 0.33449 0.0
H1381 H 0.10115 0.34224 0.44709 0.0
H1382 H 0.09646 0.36815 0.48709 0.0
H1383 H 0.0799 0.38977 0.49319 0.0
H1384 H 0.04905 0.39751 0.38086 0.0
H1385 H 0.05797 0.3753 0.3377 0.0
C1386 C 0.07654 0.35435 0.36753 0.0
C1387 C 0.08591 0.34399 0.38791 0.0
C1388 C 0.07362 0.36916 0.39063 0.0
C1389 C 0.09371 0.34979 0.43063 0.0
C1390 C 0.09098 0.36459 0.45366 0.0
C1391 C 0.07545 0.38693 0.45905 0.0
C1392 C 0.06353 0.39506 0.44061 0.0
C1393 C 0.08038 0.37389 0.43446 0.0
C1394 C 0.0581 0.39136 0.39613 0.0
C1395 C 0.0631 0.37855 0.37139 0.0
H1396 H 0.61216 0.65819 0.54085 0.0
H1397 H 0.58663 0.61592 0.43139 0.0
H1398 H 0.60607 0.64489 0.38092 0.0
H1399 H 0.63192 0.68175 0.36794 0.0
H1400 H 0.65895 0.72377 0.47734 0.0
H1401 H 0.63724 0.69542 0.52766 0.0
C1402 C 0.61067 0.65536 0.50595 0.0
C1403 C 0.59799 0.63491 0.48995 0.0
C1404 C 0.62224 0.67203 0.47706 0.0
C1405 C 0.59636 0.63149 0.44461 0.0
C1406 C 0.60747 0.64805 0.41569 0.0
C1407 C 0.6329 0.68479 0.40275 0.0
C1408 C 0.64706 0.70485 0.41882 0.0
C1409 C 0.62071 0.66832 0.43156 0.0
C1410 C 0.64823 0.70845 0.46408 0.0
C1411 C 0.63583 0.69224 0.49291 0.0
H1412 H 0.381 0.95713 0.48972 0.0
H1413 H 0.33413 0.95243 0.58071 0.0
H1414 H 0.30683 0.93343 0.5265 0.0
H1415 H 0.29682 0.92177 0.45092 0.0
H1416 H 0.34371 0.92714 0.35928 0.0
H1417 H 0.37038 0.94203 0.41633 0.0
C1418 C 0.36478 0.95167 0.498 0.0
C1419 C 0.35969 0.95647 0.53911 0.0
C1420 C 0.34917 0.94103 0.46642 0.0
C1421 C 0.33855 0.9491 0.54929 0.0
C1422 C 0.32291 0.9383 0.51822 0.0
C1423 C 0.31282 0.92595 0.44349 0.0
C1424 C 0.31829 0.92362 0.40066 0.0
C1425 C 0.32812 0.93475 0.47628 0.0
C1426 C 0.33906 0.92886 0.39184 0.0
C1427 C 0.35435 0.93746 0.42444 0.0
H1428 H 0.67223 0.98485 0.82124 0.0
H1429 H 0.64049 0.92535 0.88784 0.0
H1430 H 0.61844 0.93627 0.92608 0.0
H1431 H 0.60958 0.96344 0.94365 0.0
H1432 H 0.64233 0.02332 0.87861 0.0
H1433 H 0.66271 0.01154 0.83702 0.0
C1434 C 0.66033 0.97413 0.84373 0.0
C1435 C 0.65803 0.95429 0.85163 0.0
C1436 C 0.64802 0.98066 0.8662 0.0
C1437 C 0.6426 0.9407 0.88112 0.0
C1438 C 0.63003 0.94696 0.9031 0.0
C1439 C 0.62102 0.97385 0.92007 0.0
C1440 C 0.62438 0.99424 0.91435 0.0
C1441 C 0.63281 0.96702 0.89637 0.0
C1442 C 0.63934 0.00753 0.88367 0.0
C1443 C 0.65103 0.00081 0.85985 0.0
H1444 H 0.98189 0.62998 0.00921 0.0
H1445 H 0.00808 0.59227 0.96552 0.0
H1446 H 0.03454 0.62177 0.92342 0.0
H1447 H 0.04953 0.6579 0.89701 0.0
H1448 H 0.02304 0.69542 0.94021 0.0
H1449 H -0.00256 0.66637 0.98442 0.0
C1450 C 0.99351 0.62825 0.99084 0.0
C1451 C 0.993 0.60892 0.99062 0.0
C1452 C 0.00857 0.64522 0.96637 0.0
C1453 C 0.00808 0.60695 0.96629 0.0
C1454 C 0.02322 0.62381 0.94214 0.0
C1455 C 0.03823 0.65977 0.91625 0.0
C1456 C 0.0382 0.67882 0.91511 0.0
C1457 C 0.0235 0.64296 0.94161 0.0
C1458 C 0.02342 0.68094 0.94033 0.0
C1459 C 0.00876 0.66432 0.96568 0.0
H1460 H 0.31142 0.37782 0.75023 0.0
H1461 H 0.25386 0.3719 0.79937 0.0
H1462 H 0.27259 0.39391 0.86184 0.0
H1463 H 0.30463 0.41167 0.90652 0.0
H1464 H 0.36184 0.41658 0.85758 0.0
H1465 H 0.34391 0.39823 0.79122 0.0
C1466 C 0.30299 0.38162 0.77414 0.0
C1467 C 0.28121 0.37302 0.77021 0.0
C1468 C 0.31377 0.39393 0.81047 0.0
C1469 C 0.27061 0.37821 0.80158 0.0
C1470 C 0.2813 0.39073 0.8375 0.0
C1471 C 0.31324 0.40897 0.88112 0.0
C1472 C 0.33451 0.41531 0.88743 0.0
C1473 C 0.30277 0.39816 0.84296 0.0
C1474 C 0.34542 0.41175 0.85394 0.0
C1475 C 0.33519 0.40122 0.81586 0.0
H1476 H 0.91541 0.6314 0.61526 0.0
H1477 H 0.98216 0.66163 0.63651 0.0
H1478 H 0.9837 0.63447 0.59403 0.0
H1479 H 0.96644 0.60297 0.54866 0.0
H1480 H 0.8999 0.57314 0.52528 0.0
H1481 H 0.89795 0.59925 0.57112 0.0
C1482 C 0.93029 0.632 0.6108 0.0
C1483 C 0.94865 0.64861 0.62899 0.0
C1484 C 0.93111 0.61641 0.58595 0.0
C1485 C 0.96779 0.64912 0.6228 0.0
C1486 C 0.96869 0.63356 0.59851 0.0
C1487 C 0.95145 0.60203 0.55381 0.0
C1488 C 0.93333 0.58608 0.53345 0.0
C1489 C 0.95049 0.61725 0.57964 0.0
C1490 C 0.91409 0.58523 0.54046 0.0
C1491 C 0.91297 0.60019 0.56662 0.0
H1492 H 0.36644 0.31997 0.54969 0.0
H1493 H 0.42944 0.36839 0.58074 0.0
H1494 H 0.42796 0.39055 0.5235 0.0
H1495 H 0.40788 0.3974 0.46893 0.0
H1496 H 0.34453 0.34953 0.43893 0.0
H1497 H 0.34718 0.32591 0.49102 0.0
C1498 C 0.37994 0.33528 0.54364 0.0
C1499 C 0.39796 0.34255 0.56984 0.0
C1500 C 0.37891 0.3481 0.5109 0.0
C1501 C 0.41531 0.36242 0.56137 0.0
C1502 C 0.41449 0.37514 0.5286 0.0
C1503 C 0.39474 0.38169 0.47326 0.0
C1504 C 0.376 0.37533 0.45018 0.0
C1505 C 0.39623 0.36831 0.50379 0.0
C1506 C 0.35916 0.35488 0.45619 0.0
C1507 C 0.36062 0.34137 0.48619 0.0
H1508 H 0.65723 0.03653 0.49317 0.0
H1509 H 0.62532 0.07215 0.48923 0.0
H1510 H 0.64429 0.09149 0.55416 0.0
H1511 H 0.66777 0.09635 0.61528 0.0
H1512 H 0.69899 0.0601 0.62036 0.0
H1513 H 0.6825 0.04305 0.55169 0.0
C1514 C 0.65462 0.04872 0.50611 0.0
C1515 C 0.63976 0.05276 0.48647 0.0
C1516 C 0.66531 0.05956 0.54395 0.0
C1517 C 0.6366 0.06863 0.50377 0.0
C1518 C 0.64739 0.07967 0.54102 0.0
C1519 C 0.67111 0.08484 0.60124 0.0
C1520 C 0.68444 0.07939 0.62323 0.0
C1521 C 0.66142 0.07494 0.56193 0.0
C1522 C 0.68869 0.06453 0.60433 0.0
C1523 C 0.67925 0.05474 0.56503 0.0
H1524 H 0.74267 0.70506 0.73692 0.0
H1525 H 0.6885 0.64356 0.753 0.0
H1526 H 0.67573 0.65663 0.81147 0.0
H1527 H 0.67995 0.68527 0.85858 0.0
H1528 H 0.73342 0.74709 0.84194 0.0
H1529 H 0.74646 0.73411 0.78329 0.0
C1530 C 0.72805 0.69452 0.75313 0.0
C1531 C 0.71663 0.67332 0.74056 0.0
C1532 C 0.7207 0.70216 0.78681 0.0
C1533 C 0.69766 0.65993 0.7619 0.0
C1534 C 0.69033 0.66738 0.79548 0.0
C1535 C 0.69453 0.69593 0.84232 0.0
C1536 C 0.70577 0.71711 0.85489 0.0
C1537 C 0.70177 0.68842 0.80834 0.0
C1538 C 0.72447 0.73071 0.833 0.0
C1539 C 0.73193 0.72329 0.79943 0.0
H1540 H 0.2527 0.00716 0.70537 0.0
H1541 H 0.27931 0.06062 0.79153 0.0
H1542 H 0.27235 0.03758 0.85429 0.0
H1543 H 0.26228 0.00259 0.88354 0.0
H1544 H 0.23672 0.94958 0.79602 0.0
H1545 H 0.23969 0.97212 0.73521 0.0
C1546 C 0.2567 0.0138 0.73792 0.0
C1547 C 0.26675 0.03563 0.74356 0.0
C1548 C 0.25309 0.00053 0.7737 0.0
C1549 C 0.27164 0.04388 0.78611 0.0
C1550 C 0.26778 0.03071 0.82205 0.0
C1551 C 0.25712 0.99592 0.85128 0.0
C1552 C 0.24955 0.97443 0.84439 0.0
C1553 C 0.25909 0.00906 0.81607 0.0
C1554 C 0.24283 0.96608 0.80233 0.0
C1555 C 0.24451 0.97896 0.76742 0.0
H1556 H 0.97709 0.24861 0.64818 0.0
H1557 H 0.91852 0.1995 0.69962 0.0
H1558 H 0.9359 0.19985 0.76788 0.0
H1559 H 0.96731 0.2161 0.81512 0.0
H1560 H 0.02554 0.26557 0.76274 0.0
H1561 H 0.00868 0.26301 0.69299 0.0
C1562 C 0.96812 0.23778 0.67408 0.0
C1563 C 0.94648 0.22416 0.66876 0.0
C1564 C 0.97814 0.23827 0.71342 0.0
C1565 C 0.93519 0.21017 0.70271 0.0
C1566 C 0.94511 0.21044 0.74191 0.0
C1567 C 0.97635 0.2262 0.78835 0.0
C1568 C -0.00235 0.24115 0.79454 0.0
C1569 C 0.96651 0.22475 0.748 0.0
C1570 C 0.00911 0.25402 0.75926 0.0
C1571 C -0.00052 0.25258 0.7192 0.0
H1572 H 0.29815 0.29307 0.11225 0.0
H1573 H 0.258 0.22904 0.07183 0.0
H1574 H 0.23647 0.22247 0.13708 0.0
H1575 H 0.23086 0.23415 0.20857 0.0
H1576 H 0.27252 0.29767 0.25048 0.0
H1577 H 0.29164 0.30515 0.18178 0.0
C1578 C 0.28445 0.27778 0.11722 0.0
C1579 C 0.27967 0.26158 0.08713 0.0
C1580 C 0.27258 0.27392 0.15548 0.0
C1581 C 0.26201 0.24179 0.09447 0.0
C1582 C 0.24976 0.23799 0.13189 0.0
C1583 C 0.24402 0.24967 0.20255 0.0
C1584 C 0.25031 0.26527 0.23483 0.0
C1585 C 0.2552 0.25381 0.16314 0.0
C1586 C 0.26743 0.2853 0.22643 0.0
C1587 C 0.27836 0.28963 0.18706 0.0
H1588 H 0.74053 0.04773 0.22984 0.0
H1589 H 0.75101 0.01589 0.12317 0.0
H1590 H 0.74136 0.98552 0.17005 0.0
H1591 H 0.72854 0.96754 0.24071 0.0
H1592 H 0.71907 0.00022 0.34738 0.0
H1593 H 0.72989 0.03077 0.30114 0.0
C1594 C 0.74072 0.03415 0.21682 0.0
C1595 C 0.74627 0.03396 0.17301 0.0
C1596 C 0.73536 0.0169 0.24397 0.0
C1597 C 0.74676 0.01639 0.1568 0.0
C1598 C 0.74121 -0.00098 0.18356 0.0
C1599 C 0.72898 0.9814 0.25391 0.0
C1600 C 0.72285 0.9815 0.29739 0.0
C1601 C 0.73529 -0.00097 0.22711 0.0
C1602 C 0.72368 -0.00034 0.31406 0.0
C1603 C 0.7298 0.01715 0.2876 0.0
H1604 H 0.054 0.74806 0.30881 0.0
H1605 H 0.00603 0.68959 0.36327 0.0
H1606 H 0.98283 0.68529 0.30261 0.0
H1607 H 0.97655 0.69726 0.2327 0.0
H1608 H 0.02437 0.75554 0.1774 0.0
H1609 H 0.04715 0.76073 0.23975 0.0
C1610 C 0.0384 0.73447 0.30764 0.0
C1611 C 0.03183 0.71916 0.34062 0.0
C1612 C 0.02513 0.73196 0.27232 0.0
C1613 C 0.01157 0.70162 0.33841 0.0
C1614 C -0.00174 0.6991 0.30362 0.0
C1615 C 0.99194 0.71114 0.23424 0.0
C1616 C -0.00126 0.72592 0.20019 0.0
C1617 C 0.00497 0.71403 0.27014 0.0
C1618 C 0.01871 0.74387 0.20302 0.0
C1619 C 0.03177 0.74686 0.2387 0.0
loop_
_geom_bond_atom_site_label_1
_geom_bond_atom_site_label_2
_geom_bond_distance
_geom_bond_site_symmetry_2
_ccdc_geom_bond_type
C0 O1 1.160 . S
C0 O7 1.185 . S
O1 C0 1.160 . S
O2 Zn3 1.899 . S
O2 C10 1.284 . S
Zn3 O2 1.899 . S
Zn3 O4 2.032 . S
Zn3 O7 2.086 . S
Zn3 O12 1.977 . S
O4 Zn3 2.032 . S
O4 C8 1.278 . S
C5 O6 1.203 . S
C5 O12 1.267 . S
O6 C5 1.203 . S
O7 C0 1.185 . S
O7 Zn3 2.086 . S
C8 O4 1.278 . S
C8 O9 1.211 . S
O9 C8 1.211 . S
C10 O2 1.284 . S
C10 O11 1.273 . S
O11 C10 1.273 . S
O12 Zn3 1.977 . S
O12 C5 1.267 . S
C13 O14 1.160 . S
C13 O20 1.185 . S
O14 C13 1.160 . S
O15 Zn16 1.899 . S
O15 C23 1.284 . S
Zn16 O15 1.899 . S
Zn16 O17 2.032 . S
Zn16 O20 2.086 . S
Zn16 O25 1.977 . S
O17 Zn16 2.032 . S
O17 C21 1.278 . S
C18 O19 1.203 . S
C18 O25 1.267 . S
O19 C18 1.203 . S
O20 C13 1.185 . S
O20 Zn16 2.086 . S
C21 O17 1.278 . S
C21 O22 1.211 . S
O22 C21 1.211 . S
C23 O15 1.284 . S
C23 O24 1.273 . S
O24 C23 1.273 . S
O25 Zn16 1.977 . S
O25 C18 1.267 . S
C26 O27 1.160 . S
C26 O33 1.185 . S
O27 C26 1.160 . S
O28 Zn29 1.899 . S
O28 C36 1.284 . S
Zn29 O28 1.899 . S
Zn29 O30 2.032 . S
Zn29 O33 2.086 . S
Zn29 O38 1.977 . S
O30 Zn29 2.032 . S
O30 C34 1.278 . S
C31 O32 1.203 . S
C31 O38 1.267 . S
O32 C31 1.203 . S
O33 C26 1.185 . S
O33 Zn29 2.086 . S
C34 O30 1.278 . S
C34 O35 1.211 . S
O35 C34 1.211 . S
C36 O28 1.284 . S
C36 O37 1.273 . S
O37 C36 1.273 . S
O38 Zn29 1.977 . S
O38 C31 1.267 . S
C39 O40 1.160 . S
C39 O46 1.185 . S
O40 C39 1.160 . S
O41 Zn42 1.899 . S
O41 C49 1.284 . S
Zn42 O41 1.899 . S
Zn42 O43 2.032 . S
Zn42 O46 2.086 . S
Zn42 O51 1.977 . S
O43 Zn42 2.032 . S
O43 C47 1.278 . S
C44 O45 1.203 . S
C44 O51 1.267 . S
O45 C44 1.203 . S
O46 C39 1.185 . S
O46 Zn42 2.086 . S
C47 O43 1.278 . S
C47 O48 1.211 . S
O48 C47 1.211 . S
C49 O41 1.284 . S
C49 O50 1.273 . S
O50 C49 1.273 . S
O51 Zn42 1.977 . S
O51 C44 1.267 . S
C52 O53 1.160 . S
C52 O59 1.185 . S
O53 C52 1.160 . S
O54 Zn55 1.899 . S
O54 C62 1.284 . S
Zn55 O54 1.899 . S
Zn55 O56 2.032 . S
Zn55 O59 2.086 . S
Zn55 O64 1.977 . S
O56 Zn55 2.032 . S
O56 C60 1.278 . S
C57 O58 1.203 . S
C57 O64 1.267 . S
O58 C57 1.203 . S
O59 C52 1.185 . S
O59 Zn55 2.086 . S
C60 O56 1.278 . S
C60 O61 1.211 . S
O61 C60 1.211 . S
C62 O54 1.284 . S
C62 O63 1.273 . S
O63 C62 1.273 . S
O64 Zn55 1.977 . S
O64 C57 1.267 . S
C65 O66 1.160 . S
C65 O72 1.185 . S
O66 C65 1.160 . S
O67 Zn68 1.899 . S
O67 C75 1.284 . S
Zn68 O67 1.899 . S
Zn68 O69 2.032 . S
Zn68 O72 2.086 . S
Zn68 O77 1.977 . S
O69 Zn68 2.032 . S
O69 C73 1.278 . S
C70 O71 1.203 . S
C70 O77 1.267 . S
O71 C70 1.203 . S
O72 C65 1.185 . S
O72 Zn68 2.086 . S
C73 O69 1.278 . S
C73 O74 1.211 . S
O74 C73 1.211 . S
C75 O67 1.284 . S
C75 O76 1.273 . S
O76 C75 1.273 . S
O77 Zn68 1.977 . S
O77 C70 1.267 . S
C78 O79 1.160 . S
C78 O85 1.185 . S
O79 C78 1.160 . S
O80 Zn81 1.899 . S
O80 C88 1.284 . S
Zn81 O80 1.899 . S
Zn81 O82 2.032 . S
Zn81 O85 2.086 . S
Zn81 O90 1.977 . S
O82 Zn81 2.032 . S
O82 C86 1.278 . S
C83 O84 1.203 . S
C83 O90 1.267 . S
O84 C83 1.203 . S
O85 C78 1.185 . S
O85 Zn81 2.086 . S
C86 O82 1.278 . S
C86 O87 1.211 . S
O87 C86 1.211 . S
C88 O80 1.284 . S
C88 O89 1.273 . S
O89 C88 1.273 . S
O90 Zn81 1.977 . S
O90 C83 1.267 . S
C91 O92 1.160 . S
C91 O98 1.185 . S
O92 C91 1.160 . S
O93 Zn94 1.899 . S
O93 C101 1.284 . S
Zn94 O93 1.899 . S
Zn94 O95 2.032 . S
Zn94 O98 2.086 . S
Zn94 O103 1.977 . S
O95 Zn94 2.032 . S
O95 C99 1.278 . S
C96 O97 1.203 . S
C96 O103 1.267 . S
O97 C96 1.203 . S
O98 C91 1.185 . S
O98 Zn94 2.086 . S
C99 O95 1.278 . S
C99 O100 1.211 . S
O100 C99 1.211 . S
C101 O93 1.284 . S
C101 O102 1.273 . S
O102 C101 1.273 . S
O103 Zn94 1.977 . S
O103 C96 1.267 . S
C104 O105 1.160 . S
C104 O111 1.185 . S
O105 C104 1.160 . S
O106 Zn107 1.899 . S
O106 C114 1.284 . S
Zn107 O106 1.899 . S
Zn107 O108 2.032 . S
Zn107 O111 2.086 . S
Zn107 O116 1.977 . S
O108 Zn107 2.032 . S
O108 C112 1.278 . S
C109 O110 1.203 . S
C109 O116 1.267 . S
O110 C109 1.203 . S
O111 C104 1.185 . S
O111 Zn107 2.086 . S
C112 O108 1.278 . S
C112 O113 1.211 . S
O113 C112 1.211 . S
C114 O106 1.284 . S
C114 O115 1.273 . S
O115 C114 1.273 . S
O116 Zn107 1.977 . S
O116 C109 1.267 . S
C117 O118 1.160 . S
C117 O124 1.185 . S
O118 C117 1.160 . S
O119 Zn120 1.899 . S
O119 C127 1.284 . S
Zn120 O119 1.899 . S
Zn120 O121 2.032 . S
Zn120 O124 2.086 . S
Zn120 O129 1.977 . S
O121 Zn120 2.032 . S
O121 C125 1.278 . S
C122 O123 1.203 . S
C122 O129 1.267 . S
O123 C122 1.203 . S
O124 C117 1.185 . S
O124 Zn120 2.086 . S
C125 O121 1.278 . S
C125 O126 1.211 . S
O126 C125 1.211 . S
C127 O119 1.284 . S
C127 O128 1.273 . S
O128 C127 1.273 . S
O129 Zn120 1.977 . S
O129 C122 1.267 . S
C130 O131 1.160 . S
C130 O137 1.185 . S
O131 C130 1.160 . S
O132 Zn133 1.899 . S
O132 C140 1.284 . S
Zn133 O132 1.899 . S
Zn133 O134 2.032 . S
Zn133 O137 2.086 . S
Zn133 O142 1.977 . S
O134 Zn133 2.032 . S
O134 C138 1.278 . S
C135 O136 1.203 . S
C135 O142 1.267 . S
O136 C135 1.203 . S
O137 C130 1.185 . S
O137 Zn133 2.086 . S
C138 O134 1.278 . S
C138 O139 1.211 . S
O139 C138 1.211 . S
C140 O132 1.284 . S
C140 O141 1.273 . S
O141 C140 1.273 . S
O142 Zn133 1.977 . S
O142 C135 1.267 . S
C143 O144 1.160 . S
C143 O150 1.185 . S
O144 C143 1.160 . S
O145 Zn146 1.899 . S
O145 C153 1.284 . S
Zn146 O145 1.899 . S
Zn146 O147 2.032 . S
Zn146 O150 2.086 . S
Zn146 O155 1.977 . S
O147 Zn146 2.032 . S
O147 C151 1.278 . S
C148 O149 1.203 . S
C148 O155 1.267 . S
O149 C148 1.203 . S
O150 C143 1.185 . S
O150 Zn146 2.086 . S
C151 O147 1.278 . S
C151 O152 1.211 . S
O152 C151 1.211 . S
C153 O145 1.284 . S
C153 O154 1.273 . S
O154 C153 1.273 . S
O155 Zn146 1.977 . S
O155 C148 1.267 . S
C156 O157 1.160 . S
C156 O163 1.185 . S
O157 C156 1.160 . S
O158 Zn159 1.899 . S
O158 C166 1.284 . S
Zn159 O158 1.899 . S
Zn159 O160 2.032 . S
Zn159 O163 2.086 . S
Zn159 O168 1.977 1_455 S
O160 Zn159 2.032 . S
O160 C164 1.278 . S
C161 O162 1.203 1_655 S
C161 O168 1.267 . S
O162 C161 1.203 1_455 S
O163 C156 1.185 . S
O163 Zn159 2.086 . S
C164 O160 1.278 . S
C164 O165 1.211 . S
O165 C164 1.211 . S
C166 O158 1.284 . S
C166 O167 1.273 . S
O167 C166 1.273 . S
O168 Zn159 1.977 1_655 S
O168 C161 1.267 . S
C169 O170 1.160 . S
C169 O176 1.185 . S
O170 C169 1.160 . S
O171 Zn172 1.899 . S
O171 C179 1.284 . S
Zn172 O171 1.899 . S
Zn172 O173 2.032 . S
Zn172 O176 2.086 . S
Zn172 O181 1.977 . S
O173 Zn172 2.032 . S
O173 C177 1.278 . S
C174 O175 1.203 . S
C174 O181 1.267 . S
O175 C174 1.203 . S
O176 C169 1.185 . S
O176 Zn172 2.086 . S
C177 O173 1.278 . S
C177 O178 1.211 . S
O178 C177 1.211 . S
C179 O171 1.284 . S
C179 O180 1.273 . S
O180 C179 1.273 . S
O181 Zn172 1.977 . S
O181 C174 1.267 . S
C182 O183 1.160 . S
C182 O189 1.185 . S
O183 C182 1.160 . S
O184 Zn185 1.899 . S
O184 C192 1.284 . S
Zn185 O184 1.899 . S
Zn185 O186 2.032 . S
Zn185 O189 2.086 . S
Zn185 O194 1.977 1_565 S
O186 Zn185 2.032 . S
O186 C190 1.278 . S
C187 O188 1.203 1_545 S
C187 O194 1.267 . S
O188 C187 1.203 1_565 S
O189 C182 1.185 . S
O189 Zn185 2.086 . S
C190 O186 1.278 . S
C190 O191 1.211 . S
O191 C190 1.211 . S
C192 O184 1.284 . S
C192 O193 1.273 . S
O193 C192 1.273 . S
O194 Zn185 1.977 1_545 S
O194 C187 1.267 . S
C195 O196 1.160 . S
C195 O202 1.185 . S
O196 C195 1.160 . S
O197 Zn198 1.899 . S
O197 C205 1.284 . S
Zn198 O197 1.899 . S
Zn198 O199 2.032 . S
Zn198 O202 2.086 . S
Zn198 O207 1.977 . S
O199 Zn198 2.032 . S
O199 C203 1.278 . S
C200 O201 1.203 . S
C200 O207 1.267 . S
O201 C200 1.203 . S
O202 C195 1.185 . S
O202 Zn198 2.086 . S
C203 O199 1.278 . S
C203 O204 1.211 . S
O204 C203 1.211 . S
C205 O197 1.284 . S
C205 O206 1.273 . S
O206 C205 1.273 . S
O207 Zn198 1.977 . S
O207 C200 1.267 . S
C208 O209 1.160 . S
C208 O215 1.185 . S
O209 C208 1.160 . S
O210 Zn211 1.899 . S
O210 C218 1.284 . S
Zn211 O210 1.899 . S
Zn211 O212 2.032 . S
Zn211 O215 2.086 . S
Zn211 O220 1.977 . S
O212 Zn211 2.032 . S
O212 C216 1.278 . S
C213 O214 1.203 . S
C213 O220 1.267 . S
O214 C213 1.203 . S
O215 C208 1.185 . S
O215 Zn211 2.086 . S
C216 O212 1.278 . S
C216 O217 1.211 . S
O217 C216 1.211 . S
C218 O210 1.284 . S
C218 O219 1.273 . S
O219 C218 1.273 . S
O220 Zn211 1.977 . S
O220 C213 1.267 . S
C221 O222 1.160 . S
C221 O228 1.185 . S
O222 C221 1.160 . S
O223 Zn224 1.899 . S
O223 C231 1.284 . S
Zn224 O223 1.899 . S
Zn224 O225 2.032 . S
Zn224 O228 2.086 . S
Zn224 O233 1.977 . S
O225 Zn224 2.032 . S
O225 C229 1.278 . S
C226 O227 1.203 . S
C226 O233 1.267 . S
O227 C226 1.203 . S
O228 C221 1.185 . S
O228 Zn224 2.086 . S
C229 O225 1.278 . S
C229 O230 1.211 . S
O230 C229 1.211 . S
C231 O223 1.284 . S
C231 O232 1.273 . S
O232 C231 1.273 . S
O233 Zn224 1.977 . S
O233 C226 1.267 . S
C234 O235 1.160 . S
C234 O241 1.185 . S
O235 C234 1.160 . S
O236 Zn237 1.899 . S
O236 C244 1.284 . S
Zn237 O236 1.899 . S
Zn237 O238 2.032 . S
Zn237 O241 2.086 . S
Zn237 O246 1.977 . S
O238 Zn237 2.032 . S
O238 C242 1.278 . S
C239 O240 1.203 . S
C239 O246 1.267 . S
O240 C239 1.203 . S
O241 C234 1.185 . S
O241 Zn237 2.086 . S
C242 O238 1.278 . S
C242 O243 1.211 . S
O243 C242 1.211 . S
C244 O236 1.284 . S
C244 O245 1.273 . S
O245 C244 1.273 . S
O246 Zn237 1.977 . S
O246 C239 1.267 . S
C247 O248 1.160 . S
C247 O254 1.185 . S
O248 C247 1.160 . S
O249 Zn250 1.899 . S
O249 C257 1.284 . S
Zn250 O249 1.899 . S
Zn250 O251 2.032 . S
Zn250 O254 2.086 . S
Zn250 O259 1.977 . S
O251 Zn250 2.032 . S
O251 C255 1.278 . S
C252 O253 1.203 . S
C252 O259 1.267 . S
O253 C252 1.203 . S
O254 C247 1.185 . S
O254 Zn250 2.086 . S
C255 O251 1.278 . S
C255 O256 1.211 . S
O256 C255 1.211 . S
C257 O249 1.284 . S
C257 O258 1.273 . S
O258 C257 1.273 . S
O259 Zn250 1.977 . S
O259 C252 1.267 . S
C260 O261 1.160 . S
C260 O267 1.185 . S
O261 C260 1.160 . S
O262 Zn263 1.899 . S
O262 C270 1.284 . S
Zn263 O262 1.899 . S
Zn263 O264 2.032 . S
Zn263 O267 2.086 . S
Zn263 O272 1.977 . S
O264 Zn263 2.032 . S
O264 C268 1.278 . S
C265 O266 1.203 . S
C265 O272 1.267 . S
O266 C265 1.203 . S
O267 C260 1.185 . S
O267 Zn263 2.086 . S
C268 O264 1.278 . S
C268 O269 1.211 . S
O269 C268 1.211 . S
C270 O262 1.284 . S
C270 O271 1.273 . S
O271 C270 1.273 . S
O272 Zn263 1.977 . S
O272 C265 1.267 . S
C273 O274 1.160 . S
C273 O280 1.185 . S
O274 C273 1.160 . S
O275 Zn276 1.899 . S
O275 C283 1.284 . S
Zn276 O275 1.899 . S
Zn276 O277 2.032 . S
Zn276 O280 2.086 . S
Zn276 O285 1.977 1_565 S
O277 Zn276 2.032 . S
O277 C281 1.278 . S
C278 O279 1.203 1_545 S
C278 O285 1.267 . S
O279 C278 1.203 1_565 S
O280 C273 1.185 . S
O280 Zn276 2.086 . S
C281 O277 1.278 . S
C281 O282 1.211 . S
O282 C281 1.211 . S
C283 O275 1.284 . S
C283 O284 1.273 . S
O284 C283 1.273 . S
O285 Zn276 1.977 1_545 S
O285 C278 1.267 . S
C286 O287 1.160 . S
C286 O293 1.185 . S
O287 C286 1.160 . S
O288 Zn289 1.899 . S
O288 C296 1.284 . S
Zn289 O288 1.899 . S
Zn289 O290 2.032 . S
Zn289 O293 2.086 . S
Zn289 O298 1.977 1_455 S
O290 Zn289 2.032 . S
O290 C294 1.278 . S
C291 O292 1.203 1_655 S
C291 O298 1.267 . S
O292 C291 1.203 1_455 S
O293 C286 1.185 . S
O293 Zn289 2.086 . S
C294 O290 1.278 . S
C294 O295 1.211 . S
O295 C294 1.211 . S
C296 O288 1.284 . S
C296 O297 1.273 . S
O297 C296 1.273 . S
O298 Zn289 1.977 1_655 S
O298 C291 1.267 . S
C299 O300 1.160 . S
C299 O306 1.185 . S
O300 C299 1.160 . S
O301 Zn302 1.899 . S
O301 C309 1.284 . S
Zn302 O301 1.899 . S
Zn302 O303 2.032 . S
Zn302 O306 2.086 . S
Zn302 O311 1.977 . S
O303 Zn302 2.032 . S
O303 C307 1.278 . S
C304 O305 1.203 . S
C304 O311 1.267 . S
O305 C304 1.203 . S
O306 C299 1.185 . S
O306 Zn302 2.086 . S
C307 O303 1.278 . S
C307 O308 1.211 . S
O308 C307 1.211 . S
C309 O301 1.284 . S
C309 O310 1.273 . S
O310 C309 1.273 . S
O311 Zn302 1.977 . S
O311 C304 1.267 . S
C312 O313 1.160 . S
C312 O319 1.185 . S
O313 C312 1.160 . S
O314 Zn315 1.899 . S
O314 C322 1.284 . S
Zn315 O314 1.899 . S
Zn315 O316 2.032 . S
Zn315 O319 2.086 . S
Zn315 O324 1.977 . S
O316 Zn315 2.032 . S
O316 C320 1.278 . S
C317 O318 1.203 . S
C317 O324 1.267 . S
O318 C317 1.203 . S
O319 C312 1.185 . S
O319 Zn315 2.086 . S
C320 O316 1.278 . S
C320 O321 1.211 . S
O321 C320 1.211 . S
C322 O314 1.284 . S
C322 O323 1.273 . S
O323 C322 1.273 . S
O324 Zn315 1.977 . S
O324 C317 1.267 . S
C325 O326 1.160 . S
C325 O332 1.185 . S
O326 C325 1.160 . S
O327 Zn328 1.899 . S
O327 C335 1.284 . S
Zn328 O327 1.899 . S
Zn328 O329 2.032 . S
Zn328 O332 2.086 . S
Zn328 O337 1.977 . S
O329 Zn328 2.032 . S
O329 C333 1.278 . S
C330 O331 1.203 . S
C330 O337 1.267 . S
O331 C330 1.203 . S
O332 C325 1.185 . S
O332 Zn328 2.086 . S
C333 O329 1.278 . S
C333 O334 1.211 . S
O334 C333 1.211 . S
C335 O327 1.284 . S
C335 O336 1.273 . S
O336 C335 1.273 . S
O337 Zn328 1.977 . S
O337 C330 1.267 . S
C338 O339 1.160 . S
C338 O345 1.185 . S
O339 C338 1.160 . S
O340 Zn341 1.899 . S
O340 C348 1.284 . S
Zn341 O340 1.899 . S
Zn341 O342 2.032 . S
Zn341 O345 2.086 . S
Zn341 O350 1.977 . S
O342 Zn341 2.032 . S
O342 C346 1.278 . S
C343 O344 1.203 . S
C343 O350 1.267 . S
O344 C343 1.203 . S
O345 C338 1.185 . S
O345 Zn341 2.086 . S
C346 O342 1.278 . S
C346 O347 1.211 . S
O347 C346 1.211 . S
C348 O340 1.284 . S
C348 O349 1.273 . S
O349 C348 1.273 . S
O350 Zn341 1.977 . S
O350 C343 1.267 . S
C351 O352 1.160 . S
C351 O358 1.185 . S
O352 C351 1.160 . S
O353 Zn354 1.899 . S
O353 C361 1.284 . S
Zn354 O353 1.899 . S
Zn354 O355 2.032 . S
Zn354 O358 2.086 . S
Zn354 O363 1.977 1_545 S
O355 Zn354 2.032 . S
O355 C359 1.278 . S
C356 O357 1.203 1_565 S
C356 O363 1.267 . S
O357 C356 1.203 1_545 S
O358 C351 1.185 . S
O358 Zn354 2.086 . S
C359 O355 1.278 . S
C359 O360 1.211 . S
O360 C359 1.211 . S
C361 O353 1.284 . S
C361 O362 1.273 . S
O362 C361 1.273 . S
O363 Zn354 1.977 1_565 S
O363 C356 1.267 . S
C364 O365 1.160 . S
C364 O371 1.185 . S
O365 C364 1.160 . S
O366 Zn367 1.899 . S
O366 C374 1.284 . S
Zn367 O366 1.899 . S
Zn367 O368 2.032 . S
Zn367 O371 2.086 . S
Zn367 O376 1.977 1_655 S
O368 Zn367 2.032 . S
O368 C372 1.278 . S
C369 O370 1.203 1_455 S
C369 O376 1.267 . S
O370 C369 1.203 1_655 S
O371 C364 1.185 . S
O371 Zn367 2.086 . S
C372 O368 1.278 . S
C372 O373 1.211 . S
O373 C372 1.211 . S
C374 O366 1.284 . S
C374 O375 1.273 . S
O375 C374 1.273 . S
O376 Zn367 1.977 1_455 S
O376 C369 1.267 . S
C377 O378 1.160 . S
C377 O384 1.185 . S
O378 C377 1.160 . S
O379 Zn380 1.899 . S
O379 C387 1.284 . S
Zn380 O379 1.899 . S
Zn380 O381 2.032 . S
Zn380 O384 2.086 . S
Zn380 O389 1.977 . S
O381 Zn380 2.032 . S
O381 C385 1.278 . S
C382 O383 1.203 . S
C382 O389 1.267 . S
O383 C382 1.203 . S
O384 C377 1.185 . S
O384 Zn380 2.086 . S
C385 O381 1.278 . S
C385 O386 1.211 . S
O386 C385 1.211 . S
C387 O379 1.284 . S
C387 O388 1.273 . S
O388 C387 1.273 . S
O389 Zn380 1.977 . S
O389 C382 1.267 . S
C390 O391 1.160 . S
C390 O397 1.185 . S
O391 C390 1.160 . S
O392 Zn393 1.899 . S
O392 C400 1.284 . S
Zn393 O392 1.899 . S
Zn393 O394 2.032 . S
Zn393 O397 2.086 . S
Zn393 O402 1.977 1_655 S
O394 Zn393 2.032 . S
O394 C398 1.278 . S
C395 O396 1.203 1_455 S
C395 O402 1.267 . S
O396 C395 1.203 1_655 S
O397 C390 1.185 . S
O397 Zn393 2.086 . S
C398 O394 1.278 . S
C398 O399 1.211 . S
O399 C398 1.211 . S
C400 O392 1.284 . S
C400 O401 1.273 . S
O401 C400 1.273 . S
O402 Zn393 1.977 1_455 S
O402 C395 1.267 . S
C403 O404 1.160 . S
C403 O410 1.185 . S
O404 C403 1.160 . S
O405 Zn406 1.899 . S
O405 C413 1.284 . S
Zn406 O405 1.899 . S
Zn406 O407 2.032 . S
Zn406 O410 2.086 . S
Zn406 O415 1.977 . S
O407 Zn406 2.032 . S
O407 C411 1.278 . S
C408 O409 1.203 . S
C408 O415 1.267 . S
O409 C408 1.203 . S
O410 C403 1.185 . S
O410 Zn406 2.086 . S
C411 O407 1.278 . S
C411 O412 1.211 . S
O412 C411 1.211 . S
C413 O405 1.284 . S
C413 O414 1.273 . S
O414 C413 1.273 . S
O415 Zn406 1.977 . S
O415 C408 1.267 . S
C416 O417 1.160 . S
C416 O423 1.185 . S
O417 C416 1.160 . S
O418 Zn419 1.899 . S
O418 C426 1.284 . S
Zn419 O418 1.899 . S
Zn419 O420 2.032 . S
Zn419 O423 2.086 . S
Zn419 O428 1.977 1_545 S
O420 Zn419 2.032 . S
O420 C424 1.278 . S
C421 O422 1.203 1_565 S
C421 O428 1.267 . S
O422 C421 1.203 1_545 S
O423 C416 1.185 . S
O423 Zn419 2.086 . S
C424 O420 1.278 . S
C424 O425 1.211 . S
O425 C424 1.211 . S
C426 O418 1.284 . S
C426 O427 1.273 . S
O427 C426 1.273 . S
O428 Zn419 1.977 1_565 S
O428 C421 1.267 . S
C429 O430 1.160 . S
C429 O436 1.185 . S
O430 C429 1.160 . S
O431 Zn432 1.899 . S
O431 C439 1.284 . S
Zn432 O431 1.899 . S
Zn432 O433 2.032 . S
Zn432 O436 2.086 . S
Zn432 O441 1.977 . S
O433 Zn432 2.032 . S
O433 C437 1.278 . S
C434 O435 1.203 . S
C434 O441 1.267 . S
O435 C434 1.203 . S
O436 C429 1.185 . S
O436 Zn432 2.086 . S
C437 O433 1.278 . S
C437 O438 1.211 . S
O438 C437 1.211 . S
C439 O431 1.284 . S
C439 O440 1.273 . S
O440 C439 1.273 . S
O441 Zn432 1.977 . S
O441 C434 1.267 . S
C442 O443 1.160 . S
C442 O449 1.185 . S
O443 C442 1.160 . S
O444 Zn445 1.899 . S
O444 C452 1.284 . S
Zn445 O444 1.899 . S
Zn445 O446 2.032 . S
Zn445 O449 2.086 . S
Zn445 O454 1.977 . S
O446 Zn445 2.032 . S
O446 C450 1.278 . S
C447 O448 1.203 . S
C447 O454 1.267 . S
O448 C447 1.203 . S
O449 C442 1.185 . S
O449 Zn445 2.086 . S
C450 O446 1.278 . S
C450 O451 1.211 . S
O451 C450 1.211 . S
C452 O444 1.284 . S
C452 O453 1.273 . S
O453 C452 1.273 . S
O454 Zn445 1.977 . S
O454 C447 1.267 . S
C455 O456 1.160 . S
C455 O462 1.185 . S
O456 C455 1.160 . S
O457 Zn458 1.899 . S
O457 C465 1.284 . S
Zn458 O457 1.899 . S
Zn458 O459 2.032 . S
Zn458 O462 2.086 . S
Zn458 O467 1.977 . S
O459 Zn458 2.032 . S
O459 C463 1.278 . S
C460 O461 1.203 . S
C460 O467 1.267 . S
O461 C460 1.203 . S
O462 C455 1.185 . S
O462 Zn458 2.086 . S
C463 O459 1.278 . S
C463 O464 1.211 . S
O464 C463 1.211 . S
C465 O457 1.284 . S
C465 O466 1.273 . S
O466 C465 1.273 . S
O467 Zn458 1.977 . S
O467 C460 1.267 . S
H468 C474 0.930 . S
H469 C477 0.930 . S
H470 C478 0.930 . S
H471 C479 0.930 . S
H472 C482 0.930 . S
H473 C483 0.930 . S
C474 H468 0.930 . S
C474 C475 1.355 . S
C474 C476 1.415 . S
C475 C474 1.355 . S
C475 C477 1.419 . S
C476 C474 1.415 . S
C476 C481 1.425 1_565 S
C476 C483 1.409 1_565 S
C477 H469 0.930 . S
C477 C475 1.419 . S
C477 C478 1.362 . S
C478 H470 0.930 . S
C478 C477 1.362 . S
C478 C481 1.409 1_565 S
C479 H471 0.930 . S
C479 C480 1.355 . S
C479 C481 1.415 . S
C480 C479 1.355 . S
C480 C482 1.419 . S
C481 C476 1.425 1_545 S
C481 C478 1.409 1_545 S
C481 C479 1.415 . S
C482 H472 0.930 . S
C482 C480 1.419 . S
C482 C483 1.362 . S
C483 H473 0.930 . S
C483 C476 1.409 1_545 S
C483 C482 1.362 . S
H484 C490 0.930 . S
H485 C493 0.930 . S
H486 C494 0.930 . S
H487 C495 0.930 . S
H488 C498 0.930 . S
H489 C499 0.930 . S
C490 H484 0.930 . S
C490 C491 1.355 . S
C490 C492 1.415 . S
C491 C490 1.355 . S
C491 C493 1.419 . S
C492 C490 1.415 . S
C492 C497 1.425 1_455 S
C492 C499 1.409 1_455 S
C493 H485 0.930 . S
C493 C491 1.419 . S
C493 C494 1.362 . S
C494 H486 0.930 . S
C494 C493 1.362 . S
C494 C497 1.409 1_455 S
C495 H487 0.930 . S
C495 C496 1.355 . S
C495 C497 1.415 . S
C496 C495 1.355 . S
C496 C498 1.419 . S
C497 C492 1.425 1_655 S
C497 C494 1.409 1_655 S
C497 C495 1.415 . S
C498 H488 0.930 . S
C498 C496 1.419 . S
C498 C499 1.362 . S
C499 H489 0.930 . S
C499 C492 1.409 1_655 S
C499 C498 1.362 . S
H500 C506 0.930 . S
H501 C509 0.930 . S
H502 C510 0.930 . S
H503 C511 0.930 . S
H504 C514 0.930 . S
H505 C515 0.930 . S
C506 H500 0.930 . S
C506 C507 1.355 . S
C506 C508 1.415 . S
C507 C506 1.355 . S
C507 C509 1.419 . S
C508 C506 1.415 . S
C508 C513 1.425 . S
C508 C515 1.409 . S
C509 H501 0.930 . S
C509 C507 1.419 . S
C509 C510 1.362 . S
C510 H502 0.930 . S
C510 C509 1.362 . S
C510 C513 1.409 . S
C511 H503 0.930 . S
C511 C512 1.355 . S
C511 C513 1.415 . S
C512 C511 1.355 . S
C512 C514 1.419 . S
C513 C508 1.425 . S
C513 C510 1.409 . S
C513 C511 1.415 . S
C514 H504 0.930 . S
C514 C512 1.419 . S
C514 C515 1.362 . S
C515 H505 0.930 . S
C515 C508 1.409 . S
C515 C514 1.362 . S
H516 C522 0.930 . S
H517 C525 0.930 . S
H518 C526 0.930 1_545 S
H519 C527 0.930 . S
H520 C530 0.930 . S
H521 C531 0.930 1_565 S
C522 H516 0.930 . S
C522 C523 1.355 . S
C522 C524 1.415 . S
C523 C522 1.355 . S
C523 C525 1.419 . S
C524 C522 1.415 . S
C524 C529 1.425 1_565 S
C524 C531 1.409 1_565 S
C525 H517 0.930 . S
C525 C523 1.419 . S
C525 C526 1.362 . S
C526 H518 0.930 1_565 S
C526 C525 1.362 . S
C526 C529 1.409 1_565 S
C527 H519 0.930 . S
C527 C528 1.355 . S
C527 C529 1.415 . S
C528 C527 1.355 . S
C528 C530 1.419 . S
C529 C524 1.425 1_545 S
C529 C526 1.409 1_545 S
C529 C527 1.415 . S
C530 H520 0.930 . S
C530 C528 1.419 . S
C530 C531 1.362 . S
C531 H521 0.930 1_545 S
C531 C524 1.409 1_545 S
C531 C530 1.362 . S
H532 C538 0.930 . S
H533 C541 0.930 . S
H534 C542 0.930 . S
H535 C543 0.930 . S
H536 C546 0.930 . S
H537 C547 0.930 . S
C538 H532 0.930 . S
C538 C539 1.355 . S
C538 C540 1.415 . S
C539 C538 1.355 . S
C539 C541 1.419 . S
C540 C538 1.415 . S
C540 C545 1.425 1_455 S
C540 C547 1.409 1_455 S
C541 H533 0.930 . S
C541 C539 1.419 . S
C541 C542 1.362 . S
C542 H534 0.930 . S
C542 C541 1.362 . S
C542 C545 1.409 1_455 S
C543 H535 0.930 . S
C543 C544 1.355 . S
C543 C545 1.415 . S
C544 C543 1.355 . S
C544 C546 1.419 . S
C545 C540 1.425 1_655 S
C545 C542 1.409 1_655 S
C545 C543 1.415 . S
C546 H536 0.930 . S
C546 C544 1.419 . S
C546 C547 1.362 . S
C547 H537 0.930 . S
C547 C540 1.409 1_655 S
C547 C546 1.362 . S
H548 C554 0.930 . S
H549 C557 0.930 . S
H550 C558 0.930 . S
H551 C559 0.930 . S
H552 C562 0.930 . S
H553 C563 0.930 . S
C554 H548 0.930 . S
C554 C555 1.355 . S
C554 C556 1.415 . S
C555 C554 1.355 . S
C555 C557 1.419 . S
C556 C554 1.415 . S
C556 C561 1.425 . S
C556 C563 1.409 . S
C557 H549 0.930 . S
C557 C555 1.419 . S
C557 C558 1.362 . S
C558 H550 0.930 . S
C558 C557 1.362 . S
C558 C561 1.409 . S
C559 H551 0.930 . S
C559 C560 1.355 . S
C559 C561 1.415 . S
C560 C559 1.355 . S
C560 C562 1.419 . S
C561 C556 1.425 . S
C561 C558 1.409 . S
C561 C559 1.415 . S
C562 H552 0.930 . S
C562 C560 1.419 . S
C562 C563 1.362 . S
C563 H553 0.930 . S
C563 C556 1.409 . S
C563 C562 1.362 . S
H564 C570 0.930 . S
H565 C573 0.930 1_455 S
H566 C574 0.980 . S
H567 C575 0.930 . S
H568 C578 0.930 . S
H569 C579 0.930 . S
C570 H564 0.930 . S
C570 C571 1.355 . S
C570 C572 1.415 . S
C571 C570 1.355 . S
C571 C573 1.419 . S
C572 C570 1.415 . S
C572 C577 1.425 . S
C572 C579 1.409 . S
C573 H565 0.930 1_655 S
C573 C571 1.419 . S
C573 C574 1.362 . S
C574 H566 0.980 . S
C574 C573 1.362 . S
C574 C577 1.409 . S
C575 H567 0.930 . S
C575 C576 1.355 . S
C575 C577 1.415 . S
C576 C575 1.355 . S
C576 C578 1.419 . S
C577 C572 1.425 . S
C577 C574 1.409 . S
C577 C575 1.415 . S
C578 H568 0.930 . S
C578 C576 1.419 . S
C578 C579 1.362 . S
C579 H569 0.930 . S
C579 C572 1.409 . S
C579 C578 1.362 . S
H580 C586 0.930 . S
H581 C589 0.930 . S
H582 C590 0.930 . S
H583 C591 0.930 . S
H584 C594 0.930 . S
H585 C595 0.930 . S
C586 H580 0.930 . S
C586 C587 1.355 . S
C586 C588 1.415 . S
C587 C586 1.355 . S
C587 C589 1.419 . S
C588 C586 1.415 . S
C588 C593 1.425 . S
C588 C595 1.409 . S
C589 H581 0.930 . S
C589 C587 1.419 . S
C589 C590 1.362 . S
C590 H582 0.930 . S
C590 C589 1.362 . S
C590 C593 1.409 . S
C591 H583 0.930 . S
C591 C592 1.355 . S
C591 C593 1.415 . S
C592 C591 1.355 . S
C592 C594 1.419 . S
C593 C588 1.425 . S
C593 C590 1.409 . S
C593 C591 1.415 . S
C594 H584 0.930 . S
C594 C592 1.419 . S
C594 C595 1.362 . S
C595 H585 0.930 . S
C595 C588 1.409 . S
C595 C594 1.362 . S
H596 C602 0.930 . S
H597 C605 0.930 . S
H598 C606 0.930 . S
H599 C607 0.930 1_565 S
H600 C610 0.930 . S
H601 C611 0.930 . S
C602 H596 0.930 . S
C602 C603 1.355 . S
C602 C604 1.415 . S
C603 C602 1.355 . S
C603 C605 1.419 . S
C604 C602 1.415 . S
C604 C609 1.425 . S
C604 C611 1.409 . S
C605 H597 0.930 . S
C605 C603 1.419 . S
C605 C606 1.362 . S
C606 H598 0.930 . S
C606 C605 1.362 . S
C606 C609 1.409 . S
C607 H599 0.930 1_545 S
C607 C608 1.355 . S
C607 C609 1.415 . S
C608 C607 1.355 . S
C608 C610 1.419 . S
C609 C604 1.425 . S
C609 C606 1.409 . S
C609 C607 1.415 . S
C610 H600 0.930 . S
C610 C608 1.419 . S
C610 C611 1.362 . S
C611 H601 0.930 . S
C611 C604 1.409 . S
C611 C610 1.362 . S
H612 C618 0.930 . S
H613 C621 0.930 1_556 S
H614 C622 0.918 1_556 S
H615 C623 0.930 . S
H616 C626 0.930 . S
H617 C627 0.930 . S
C618 H612 0.930 . S
C618 C619 1.355 . S
C618 C620 1.415 . S
C619 C618 1.355 . S
C619 C621 1.419 . S
C620 C618 1.415 . S
C620 C625 1.425 . S
C620 C627 1.409 . S
C621 H613 0.930 1_554 S
C621 C619 1.419 . S
C621 C622 1.362 . S
C622 H614 0.918 1_554 S
C622 C621 1.362 . S
C622 C625 1.409 . S
C623 H615 0.930 . S
C623 C624 1.355 . S
C623 C625 1.415 . S
C624 C623 1.355 . S
C624 C626 1.419 . S
C625 C620 1.425 . S
C625 C622 1.409 . S
C625 C623 1.415 . S
C626 H616 0.930 . S
C626 C624 1.419 . S
C626 C627 1.362 . S
C627 H617 0.930 . S
C627 C620 1.409 . S
C627 C626 1.362 . S
H628 C634 0.930 . S
H629 C637 0.930 1_565 S
H630 C638 0.930 . S
H631 C639 0.930 . S
H632 C642 0.930 . S
H633 C643 0.930 . S
C634 H628 0.930 . S
C634 C635 1.355 . S
C634 C636 1.415 . S
C635 C634 1.355 . S
C635 C637 1.419 . S
C636 C634 1.415 . S
C636 C641 1.425 . S
C636 C643 1.409 . S
C637 H629 0.930 1_545 S
C637 C635 1.419 . S
C637 C638 1.362 . S
C638 H630 0.930 . S
C638 C637 1.362 . S
C638 C641 1.409 . S
C639 H631 0.930 . S
C639 C640 1.355 . S
C639 C641 1.415 . S
C640 C639 1.355 . S
C640 C642 1.419 . S
C641 C636 1.425 . S
C641 C638 1.409 . S
C641 C639 1.415 . S
C642 H632 0.930 . S
C642 C640 1.419 . S
C642 C643 1.362 . S
C643 H633 0.930 . S
C643 C636 1.409 . S
C643 C642 1.362 . S
H644 C650 0.930 . S
H645 C653 0.930 . S
H646 C654 0.930 . S
H647 C655 0.930 . S
H648 C658 0.930 1_556 S
H649 C659 0.909 1_556 S
C650 H644 0.930 . S
C650 C651 1.355 . S
C650 C652 1.415 . S
C651 C650 1.355 . S
C651 C653 1.419 . S
C652 C650 1.415 . S
C652 C657 1.425 . S
C652 C659 1.409 . S
C653 H645 0.930 . S
C653 C651 1.419 . S
C653 C654 1.362 . S
C654 H646 0.930 . S
C654 C653 1.362 . S
C654 C657 1.409 . S
C655 H647 0.930 . S
C655 C656 1.355 . S
C655 C657 1.415 . S
C656 C655 1.355 . S
C656 C658 1.419 . S
C657 C652 1.425 . S
C657 C654 1.409 . S
C657 C655 1.415 . S
C658 H648 0.930 1_554 S
C658 C656 1.419 . S
C658 C659 1.362 . S
C659 H649 0.909 1_554 S
C659 C652 1.409 . S
C659 C658 1.362 . S
H660 C666 0.930 . S
H661 C669 0.930 . S
H662 C670 0.930 . S
H663 C671 0.930 . S
H664 C674 0.930 . S
H665 C675 0.930 . S
C666 H660 0.930 . S
C666 C667 1.355 . S
C666 C668 1.415 . S
C667 C666 1.355 . S
C667 C669 1.419 . S
C668 C666 1.415 . S
C668 C673 1.425 . S
C668 C675 1.409 . S
C669 H661 0.930 . S
C669 C667 1.419 . S
C669 C670 1.362 . S
C670 H662 0.930 . S
C670 C669 1.362 . S
C670 C673 1.409 . S
C671 H663 0.930 . S
C671 C672 1.355 . S
C671 C673 1.415 . S
C672 C671 1.355 . S
C672 C674 1.419 . S
C673 C668 1.425 . S
C673 C670 1.409 . S
C673 C671 1.415 . S
C674 H664 0.930 . S
C674 C672 1.419 . S
C674 C675 1.362 . S
C675 H665 0.930 . S
C675 C668 1.409 . S
C675 C674 1.362 . S
H676 C682 0.985 . S
H677 C685 0.930 . S
H678 C686 0.930 . S
H679 C687 0.930 . S
H680 C690 0.930 . S
H681 C691 0.930 . S
C682 H676 0.985 . S
C682 C683 1.355 . S
C682 C684 1.415 . S
C683 C682 1.355 . S
C683 C685 1.419 . S
C684 C682 1.415 . S
C684 C689 1.425 . S
C684 C691 1.409 . S
C685 H677 0.930 . S
C685 C683 1.419 . S
C685 C686 1.362 . S
C686 H678 0.930 . S
C686 C685 1.362 . S
C686 C689 1.409 . S
C687 H679 0.930 . S
C687 C688 1.355 . S
C687 C689 1.415 . S
C688 C687 1.355 . S
C688 C690 1.419 . S
C689 C684 1.425 . S
C689 C686 1.409 . S
C689 C687 1.415 . S
C690 H680 0.930 . S
C690 C688 1.419 . S
C690 C691 1.362 . S
C691 H681 0.930 . S
C691 C684 1.409 . S
C691 C690 1.362 . S
H692 C698 0.930 . S
H693 C701 0.930 . S
H694 C702 0.930 . S
H695 C703 0.930 . S
H696 C706 0.930 . S
H697 C707 0.930 . S
C698 H692 0.930 . S
C698 C699 1.355 . S
C698 C700 1.415 . S
C699 C698 1.355 . S
C699 C701 1.419 . S
C700 C698 1.415 . S
C700 C705 1.425 . S
C700 C707 1.409 . S
C701 H693 0.930 . S
C701 C699 1.419 . S
C701 C702 1.362 . S
C702 H694 0.930 . S
C702 C701 1.362 . S
C702 C705 1.409 . S
C703 H695 0.930 . S
C703 C704 1.355 . S
C703 C705 1.415 . S
C704 C703 1.355 . S
C704 C706 1.419 . S
C705 C700 1.425 . S
C705 C702 1.409 . S
C705 C703 1.415 . S
C706 H696 0.930 . S
C706 C704 1.419 . S
C706 C707 1.362 . S
C707 H697 0.930 . S
C707 C700 1.409 . S
C707 C706 1.362 . S
H708 C714 0.930 . S
H709 C717 0.930 . S
H710 C718 0.930 . S
H711 C719 0.930 . S
H712 C722 0.930 . S
H713 C723 0.930 . S
C714 H708 0.930 . S
C714 C715 1.355 . S
C714 C716 1.415 . S
C715 C714 1.355 . S
C715 C717 1.419 . S
C716 C714 1.415 . S
C716 C721 1.425 . S
C716 C723 1.409 . S
C717 H709 0.930 . S
C717 C715 1.419 . S
C717 C718 1.362 . S
C718 H710 0.930 . S
C718 C717 1.362 . S
C718 C721 1.409 . S
C719 H711 0.930 . S
C719 C720 1.355 . S
C719 C721 1.415 . S
C720 C719 1.355 . S
C720 C722 1.419 . S
C721 C716 1.425 . S
C721 C718 1.409 . S
C721 C719 1.415 . S
C722 H712 0.930 . S
C722 C720 1.419 . S
C722 C723 1.362 . S
C723 H713 0.930 . S
C723 C716 1.409 . S
C723 C722 1.362 . S
H724 C730 0.930 . S
H725 C733 0.930 . S
H726 C734 0.930 . S
H727 C735 0.930 . S
H728 C738 0.930 . S
H729 C739 0.930 . S
C730 H724 0.930 . S
C730 C731 1.355 . S
C730 C732 1.415 . S
C731 C730 1.355 . S
C731 C733 1.419 . S
C732 C730 1.415 . S
C732 C737 1.425 . S
C732 C739 1.409 . S
C733 H725 0.930 . S
C733 C731 1.419 . S
C733 C734 1.362 . S
C734 H726 0.930 . S
C734 C733 1.362 . S
C734 C737 1.409 . S
C735 H727 0.930 . S
C735 C736 1.355 . S
C735 C737 1.415 . S
C736 C735 1.355 . S
C736 C738 1.419 . S
C737 C732 1.425 . S
C737 C734 1.409 . S
C737 C735 1.415 . S
C738 H728 0.930 . S
C738 C736 1.419 . S
C738 C739 1.362 . S
C739 H729 0.930 . S
C739 C732 1.409 . S
C739 C738 1.362 . S
H740 C746 0.930 . S
H741 C749 0.930 . S
H742 C750 0.930 . S
H743 C751 0.930 . S
H744 C754 0.874 1_545 S
H745 C755 0.930 1_545 S
C746 H740 0.930 . S
C746 C747 1.355 . S
C746 C748 1.415 . S
C747 C746 1.355 . S
C747 C749 1.419 . S
C748 C746 1.415 . S
C748 C753 1.425 . S
C748 C755 1.409 . S
C749 H741 0.930 . S
C749 C747 1.419 . S
C749 C750 1.362 . S
C750 H742 0.930 . S
C750 C749 1.362 . S
C750 C753 1.409 . S
C751 H743 0.930 . S
C751 C752 1.355 . S
C751 C753 1.415 . S
C752 C751 1.355 . S
C752 C754 1.430 . S
C753 C748 1.425 . S
C753 C750 1.409 . S
C753 C751 1.415 . S
C754 H744 0.874 1_565 S
C754 C752 1.430 . S
C754 C755 1.410 . S
C755 H745 0.930 1_565 S
C755 C748 1.409 . S
C755 C754 1.410 . S
H756 C762 0.930 . S
H757 C765 0.930 . S
H758 C766 0.930 . S
H759 C767 0.930 . S
H760 C770 0.930 . S
H761 C771 0.930 . S
C762 H756 0.930 . S
C762 C763 1.355 . S
C762 C764 1.415 . S
C763 C762 1.355 . S
C763 C765 1.419 . S
C764 C762 1.415 . S
C764 C769 1.425 . S
C764 C771 1.409 . S
C765 H757 0.930 . S
C765 C763 1.419 . S
C765 C766 1.362 . S
C766 H758 0.930 . S
C766 C765 1.362 . S
C766 C769 1.409 . S
C767 H759 0.930 . S
C767 C768 1.355 . S
C767 C769 1.415 . S
C768 C767 1.355 . S
C768 C770 1.419 . S
C769 C764 1.425 . S
C769 C766 1.409 . S
C769 C767 1.415 . S
C770 H760 0.930 . S
C770 C768 1.419 . S
C770 C771 1.362 . S
C771 H761 0.930 . S
C771 C764 1.409 . S
C771 C770 1.362 . S
H772 C778 0.930 . S
H773 C781 0.930 . S
H774 C782 0.930 . S
H775 C783 0.930 . S
H776 C786 0.930 . S
H777 C787 0.930 . S
C778 H772 0.930 . S
C778 C779 1.355 . S
C778 C780 1.415 . S
C779 C778 1.355 . S
C779 C781 1.419 . S
C780 C778 1.415 . S
C780 C785 1.425 . S
C780 C787 1.409 . S
C781 H773 0.930 . S
C781 C779 1.419 . S
C781 C782 1.362 . S
C782 H774 0.930 . S
C782 C781 1.362 . S
C782 C785 1.409 . S
C783 H775 0.930 . S
C783 C784 1.355 . S
C783 C785 1.415 . S
C784 C783 1.355 . S
C784 C786 1.419 . S
C785 C780 1.425 . S
C785 C782 1.409 . S
C785 C783 1.415 . S
C786 H776 0.930 . S
C786 C784 1.419 . S
C786 C787 1.362 . S
C787 H777 0.930 . S
C787 C780 1.409 . S
C787 C786 1.362 . S
H788 C794 0.930 . S
H789 C797 0.930 . S
H790 C798 0.930 . S
H791 C799 0.930 . S
H792 C802 0.930 . S
H793 C803 0.930 . S
C794 H788 0.930 . S
C794 C795 1.355 . S
C794 C796 1.415 . S
C795 C794 1.355 . S
C795 C797 1.419 . S
C796 C794 1.415 . S
C796 C801 1.425 . S
C796 C803 1.409 . S
C797 H789 0.930 . S
C797 C795 1.419 . S
C797 C798 1.362 . S
C798 H790 0.930 . S
C798 C797 1.362 . S
C798 C801 1.409 . S
C799 H791 0.930 . S
C799 C800 1.355 . S
C799 C801 1.415 . S
C800 C799 1.355 . S
C800 C802 1.419 . S
C801 C796 1.425 . S
C801 C798 1.409 . S
C801 C799 1.415 . S
C802 H792 0.930 . S
C802 C800 1.419 . S
C802 C803 1.362 . S
C803 H793 0.930 . S
C803 C796 1.409 . S
C803 C802 1.362 . S
H804 C810 0.930 . S
H805 C813 0.930 . S
H806 C814 0.930 . S
H807 C815 0.930 . S
H808 C818 0.930 . S
H809 C819 0.930 . S
C810 H804 0.930 . S
C810 C811 1.355 . S
C810 C812 1.415 . S
C811 C810 1.355 . S
C811 C813 1.419 . S
C812 C810 1.415 . S
C812 C817 1.425 . S
C812 C819 1.409 . S
C813 H805 0.930 . S
C813 C811 1.419 . S
C813 C814 1.362 . S
C814 H806 0.930 . S
C814 C813 1.362 . S
C814 C817 1.409 . S
C815 H807 0.930 . S
C815 C816 1.355 . S
C815 C817 1.415 . S
C816 C815 1.355 . S
C816 C818 1.419 . S
C817 C812 1.425 . S
C817 C814 1.409 . S
C817 C815 1.415 . S
C818 H808 0.930 . S
C818 C816 1.419 . S
C818 C819 1.362 . S
C819 H809 0.930 . S
C819 C812 1.409 . S
C819 C818 1.362 . S
H820 C826 0.930 . S
H821 C829 0.930 . S
H822 C830 0.930 . S
H823 C831 0.930 . S
H824 C834 0.930 . S
H825 C835 0.930 . S
C826 H820 0.930 . S
C826 C827 1.355 . S
C826 C828 1.415 . S
C827 C826 1.355 . S
C827 C829 1.419 . S
C828 C826 1.415 . S
C828 C833 1.425 . S
C828 C835 1.409 . S
C829 H821 0.930 . S
C829 C827 1.419 . S
C829 C830 1.362 . S
C830 H822 0.930 . S
C830 C829 1.362 . S
C830 C833 1.409 . S
C831 H823 0.930 . S
C831 C832 1.355 . S
C831 C833 1.415 . S
C832 C831 1.355 . S
C832 C834 1.419 . S
C833 C828 1.425 . S
C833 C830 1.409 . S
C833 C831 1.415 . S
C834 H824 0.930 . S
C834 C832 1.419 . S
C834 C835 1.362 . S
C835 H825 0.930 . S
C835 C828 1.409 . S
C835 C834 1.362 . S
H836 C842 0.930 . S
H837 C845 0.930 . S
H838 C846 0.930 . S
H839 C847 0.930 . S
H840 C850 0.930 . S
H841 C851 0.930 . S
C842 H836 0.930 . S
C842 C843 1.355 . S
C842 C844 1.415 . S
C843 C842 1.355 . S
C843 C845 1.419 . S
C844 C842 1.415 . S
C844 C849 1.425 . S
C844 C851 1.409 . S
C845 H837 0.930 . S
C845 C843 1.419 . S
C845 C846 1.362 . S
C846 H838 0.930 . S
C846 C845 1.362 . S
C846 C849 1.409 . S
C847 H839 0.930 . S
C847 C848 1.355 . S
C847 C849 1.415 . S
C848 C847 1.355 . S
C848 C850 1.419 . S
C849 C844 1.425 . S
C849 C846 1.409 . S
C849 C847 1.415 . S
C850 H840 0.930 . S
C850 C848 1.419 . S
C850 C851 1.362 . S
C851 H841 0.930 . S
C851 C844 1.409 . S
C851 C850 1.362 . S
H852 C858 0.930 . S
H853 C861 0.930 . S
H854 C862 0.930 . S
H855 C863 0.930 . S
H856 C866 0.930 . S
H857 C867 0.930 . S
C858 H852 0.930 . S
C858 C859 1.355 . S
C858 C860 1.415 . S
C859 C858 1.355 . S
C859 C861 1.419 . S
C860 C858 1.415 . S
C860 C865 1.425 . S
C860 C867 1.409 . S
C861 H853 0.930 . S
C861 C859 1.419 . S
C861 C862 1.362 . S
C862 H854 0.930 . S
C862 C861 1.362 . S
C862 C865 1.409 . S
C863 H855 0.930 . S
C863 C864 1.355 . S
C863 C865 1.415 . S
C864 C863 1.355 . S
C864 C866 1.419 . S
C865 C860 1.425 . S
C865 C862 1.409 . S
C865 C863 1.415 . S
C866 H856 0.930 . S
C866 C864 1.419 . S
C866 C867 1.362 . S
C867 H857 0.930 . S
C867 C860 1.409 . S
C867 C866 1.362 . S
H868 C874 0.930 . S
H869 C877 0.930 . S
H870 C878 0.930 . S
H871 C879 0.930 . S
H872 C882 0.930 . S
H873 C883 0.930 . S
C874 H868 0.930 . S
C874 C875 1.355 . S
C874 C876 1.415 . S
C875 C874 1.355 . S
C875 C877 1.419 . S
C876 C874 1.415 . S
C876 C881 1.425 . S
C876 C883 1.409 . S
C877 H869 0.930 . S
C877 C875 1.419 . S
C877 C878 1.362 . S
C878 H870 0.930 . S
C878 C877 1.362 . S
C878 C881 1.409 . S
C879 H871 0.930 . S
C879 C880 1.355 . S
C879 C881 1.415 . S
C880 C879 1.355 . S
C880 C882 1.419 . S
C881 C876 1.425 . S
C881 C878 1.409 . S
C881 C879 1.415 . S
C882 H872 0.930 . S
C882 C880 1.419 . S
C882 C883 1.362 . S
C883 H873 0.930 . S
C883 C876 1.409 . S
C883 C882 1.362 . S
H884 C890 0.930 . S
H885 C893 0.930 . S
H886 C894 0.930 . S
H887 C895 0.930 . S
H888 C898 0.930 . S
H889 C899 0.930 . S
C890 H884 0.930 . S
C890 C891 1.355 . S
C890 C892 1.415 . S
C891 C890 1.355 . S
C891 C893 1.419 . S
C892 C890 1.415 . S
C892 C897 1.425 . S
C892 C899 1.409 . S
C893 H885 0.930 . S
C893 C891 1.419 . S
C893 C894 1.362 . S
C894 H886 0.930 . S
C894 C893 1.362 . S
C894 C897 1.409 . S
C895 H887 0.930 . S
C895 C896 1.355 . S
C895 C897 1.415 . S
C896 C895 1.355 . S
C896 C898 1.419 . S
C897 C892 1.425 . S
C897 C894 1.409 . S
C897 C895 1.415 . S
C898 H888 0.930 . S
C898 C896 1.419 . S
C898 C899 1.362 . S
C899 H889 0.930 . S
C899 C892 1.409 . S
C899 C898 1.362 . S
H900 C906 0.930 1_554 S
H901 C909 0.930 . S
H902 C910 0.930 . S
H903 C911 0.930 . S
H904 C914 0.930 . S
H905 C915 0.930 . S
C906 H900 0.930 1_556 S
C906 C907 1.355 . S
C906 C908 1.415 . S
C907 C906 1.355 . S
C907 C909 1.419 . S
C908 C906 1.415 . S
C908 C913 1.425 . S
C908 C915 1.409 . S
C909 H901 0.930 . S
C909 C907 1.419 . S
C909 C910 1.362 . S
C910 H902 0.930 . S
C910 C909 1.362 . S
C910 C913 1.409 . S
C911 H903 0.930 . S
C911 C912 1.355 . S
C911 C913 1.415 . S
C912 C911 1.355 . S
C912 C914 1.419 . S
C913 C908 1.425 . S
C913 C910 1.409 . S
C913 C911 1.415 . S
C914 H904 0.930 . S
C914 C912 1.419 . S
C914 C915 1.362 . S
C915 H905 0.930 . S
C915 C908 1.409 . S
C915 C914 1.362 . S
H916 C922 0.930 . S
H917 C925 0.930 . S
H918 C926 0.930 . S
H919 C927 0.930 . S
H920 C930 0.930 . S
H921 C931 0.930 . S
C922 H916 0.930 . S
C922 C923 1.355 . S
C922 C924 1.415 . S
C923 C922 1.355 . S
C923 C925 1.419 . S
C924 C922 1.415 . S
C924 C929 1.425 . S
C924 C931 1.409 . S
C925 H917 0.930 . S
C925 C923 1.419 . S
C925 C926 1.362 . S
C926 H918 0.930 . S
C926 C925 1.362 . S
C926 C929 1.409 . S
C927 H919 0.930 . S
C927 C928 1.355 . S
C927 C929 1.415 . S
C928 C927 1.355 . S
C928 C930 1.419 . S
C929 C924 1.425 . S
C929 C926 1.409 . S
C929 C927 1.415 . S
C930 H920 0.930 . S
C930 C928 1.419 . S
C930 C931 1.362 . S
C931 H921 0.930 . S
C931 C924 1.409 . S
C931 C930 1.362 . S
H932 C938 0.930 . S
H933 C941 0.930 . S
H934 C942 0.930 . S
H935 C943 0.930 . S
H936 C946 0.930 1_554 S
H937 C947 0.930 . S
C938 H932 0.930 . S
C938 C939 1.355 . S
C938 C940 1.415 . S
C939 C938 1.355 . S
C939 C941 1.419 . S
C940 C938 1.415 . S
C940 C945 1.425 . S
C940 C947 1.409 . S
C941 H933 0.930 . S
C941 C939 1.419 . S
C941 C942 1.362 . S
C942 H934 0.930 . S
C942 C941 1.362 . S
C942 C945 1.409 . S
C943 H935 0.930 . S
C943 C944 1.355 . S
C943 C945 1.415 . S
C944 C943 1.355 . S
C944 C946 1.419 . S
C945 C940 1.425 . S
C945 C942 1.409 . S
C945 C943 1.415 . S
C946 H936 0.930 1_556 S
C946 C944 1.419 . S
C946 C947 1.362 . S
C947 H937 0.930 . S
C947 C940 1.409 . S
C947 C946 1.362 . S
H948 C954 0.930 . S
H949 C957 0.930 . S
H950 C958 0.930 . S
H951 C959 0.930 . S
H952 C962 0.930 . S
H953 C963 0.930 . S
C954 H948 0.930 . S
C954 C955 1.355 . S
C954 C956 1.415 . S
C955 C954 1.355 . S
C955 C957 1.419 . S
C956 C954 1.415 . S
C956 C961 1.425 1_455 S
C956 C963 1.409 . S
C957 H949 0.930 . S
C957 C955 1.419 . S
C957 C958 1.362 1_455 S
C958 H950 0.930 . S
C958 C957 1.362 1_655 S
C958 C961 1.409 . S
C959 H951 0.930 . S
C959 C960 1.355 . S
C959 C961 1.415 . S
C960 C959 1.355 . S
C960 C962 1.419 . S
C961 C956 1.425 1_655 S
C961 C958 1.409 . S
C961 C959 1.415 . S
C962 H952 0.930 . S
C962 C960 1.419 . S
C962 C963 1.362 1_655 S
C963 H953 0.930 . S
C963 C956 1.409 . S
C963 C962 1.362 1_455 S
H964 C970 0.930 . S
H965 C973 0.930 . S
H966 C974 0.930 . S
H967 C975 0.930 . S
H968 C978 0.930 . S
H969 C979 0.930 . S
C970 H964 0.930 . S
C970 C971 1.355 . S
C970 C972 1.415 . S
C971 C970 1.355 . S
C971 C973 1.419 . S
C972 C970 1.415 . S
C972 C977 1.425 . S
C972 C979 1.409 . S
C973 H965 0.930 . S
C973 C971 1.419 . S
C973 C974 1.362 . S
C974 H966 0.930 . S
C974 C973 1.362 . S
C974 C977 1.409 . S
C975 H967 0.930 . S
C975 C976 1.355 . S
C975 C977 1.415 . S
C976 C975 1.355 . S
C976 C978 1.419 . S
C977 C972 1.425 . S
C977 C974 1.409 . S
C977 C975 1.415 . S
C978 H968 0.930 . S
C978 C976 1.419 . S
C978 C979 1.362 . S
C979 H969 0.930 . S
C979 C972 1.409 . S
C979 C978 1.362 . S
H980 C986 0.930 . S
H981 C989 0.938 . S
H982 C990 0.930 . S
H983 C991 0.930 . S
H984 C994 0.938 . S
H985 C995 0.930 . S
C986 H980 0.930 . S
C986 C987 1.355 . S
C986 C988 1.415 . S
C987 C986 1.355 . S
C987 C989 1.419 . S
C988 C986 1.415 . S
C988 C993 1.425 1_545 S
C988 C995 1.409 . S
C989 H981 0.938 . S
C989 C987 1.419 . S
C989 C990 1.362 1_545 S
C990 H982 0.930 . S
C990 C989 1.362 1_565 S
C990 C993 1.409 . S
C991 H983 0.930 . S
C991 C992 1.355 . S
C991 C993 1.415 . S
C992 C991 1.355 . S
C992 C994 1.419 . S
C993 C988 1.425 1_565 S
C993 C990 1.409 . S
C993 C991 1.415 . S
C994 H984 0.938 . S
C994 C992 1.419 . S
C994 C995 1.362 1_565 S
C995 H985 0.930 . S
C995 C988 1.409 . S
C995 C994 1.362 1_545 S
H996 C1002 0.930 1_545 S
H997 C1005 0.930 . S
H998 C1006 0.930 . S
H999 C1007 0.930 1_565 S
H1000 C1010 0.930 . S
H1001 C1011 0.930 . S
C1002 H996 0.930 1_565 S
C1002 C1003 1.355 . S
C1002 C1004 1.415 1_565 S
C1003 C1002 1.355 . S
C1003 C1005 1.419 . S
C1004 C1002 1.415 1_545 S
C1004 C1009 1.425 1_545 S
C1004 C1011 1.409 . S
C1005 H997 0.930 . S
C1005 C1003 1.419 . S
C1005 C1006 1.362 . S
C1006 H998 0.930 . S
C1006 C1005 1.362 . S
C1006 C1009 1.409 . S
C1007 H999 0.930 1_545 S
C1007 C1008 1.355 . S
C1007 C1009 1.415 1_545 S
C1008 C1007 1.355 . S
C1008 C1010 1.419 . S
C1009 C1004 1.425 1_565 S
C1009 C1006 1.409 . S
C1009 C1007 1.415 1_565 S
C1010 H1000 0.930 . S
C1010 C1008 1.419 . S
C1010 C1011 1.362 . S
C1011 H1001 0.930 . S
C1011 C1004 1.409 . S
C1011 C1010 1.362 . S
H1012 C1018 0.930 . S
H1013 C1021 0.930 . S
H1014 C1022 0.930 . S
H1015 C1023 0.930 . S
H1016 C1026 0.930 . S
H1017 C1027 0.930 . S
C1018 H1012 0.930 . S
C1018 C1019 1.355 . S
C1018 C1020 1.415 . S
C1019 C1018 1.355 . S
C1019 C1021 1.419 . S
C1020 C1018 1.415 . S
C1020 C1025 1.425 1_655 S
C1020 C1027 1.409 . S
C1021 H1013 0.930 . S
C1021 C1019 1.419 . S
C1021 C1022 1.362 1_655 S
C1022 H1014 0.930 . S
C1022 C1021 1.362 1_455 S
C1022 C1025 1.409 . S
C1023 H1015 0.930 . S
C1023 C1024 1.355 . S
C1023 C1025 1.415 . S
C1024 C1023 1.355 . S
C1024 C1026 1.419 . S
C1025 C1020 1.425 1_455 S
C1025 C1022 1.409 . S
C1025 C1023 1.415 . S
C1026 H1016 0.930 . S
C1026 C1024 1.419 . S
C1026 C1027 1.362 1_455 S
C1027 H1017 0.930 . S
C1027 C1020 1.409 . S
C1027 C1026 1.362 1_655 S
H1028 C1034 0.930 . S
H1029 C1037 0.930 . S
H1030 C1038 0.930 . S
H1031 C1039 0.930 . S
H1032 C1042 0.930 . S
H1033 C1043 0.930 . S
C1034 H1028 0.930 . S
C1034 C1035 1.355 . S
C1034 C1036 1.415 . S
C1035 C1034 1.355 . S
C1035 C1037 1.419 . S
C1036 C1034 1.415 . S
C1036 C1041 1.425 . S
C1036 C1043 1.409 . S
C1037 H1029 0.930 . S
C1037 C1035 1.419 . S
C1037 C1038 1.362 . S
C1038 H1030 0.930 . S
C1038 C1037 1.362 . S
C1038 C1041 1.409 . S
C1039 H1031 0.930 . S
C1039 C1040 1.355 . S
C1039 C1041 1.415 . S
C1040 C1039 1.355 . S
C1040 C1042 1.419 . S
C1041 C1036 1.425 . S
C1041 C1038 1.409 . S
C1041 C1039 1.415 . S
C1042 H1032 0.930 . S
C1042 C1040 1.419 . S
C1042 C1043 1.362 . S
C1043 H1033 0.930 . S
C1043 C1036 1.409 . S
C1043 C1042 1.362 . S
H1044 C1050 0.930 . S
H1045 C1053 0.930 . S
H1046 C1054 0.930 . S
H1047 C1055 0.930 . S
H1048 C1058 0.930 . S
H1049 C1059 0.930 . S
C1050 H1044 0.930 . S
C1050 C1051 1.355 . S
C1050 C1052 1.415 . S
C1051 C1050 1.355 . S
C1051 C1053 1.419 . S
C1052 C1050 1.415 . S
C1052 C1057 1.425 . S
C1052 C1059 1.409 . S
C1053 H1045 0.930 . S
C1053 C1051 1.419 . S
C1053 C1054 1.362 . S
C1054 H1046 0.930 . S
C1054 C1053 1.362 . S
C1054 C1057 1.409 . S
C1055 H1047 0.930 . S
C1055 C1056 1.355 . S
C1055 C1057 1.415 . S
C1056 C1055 1.355 . S
C1056 C1058 1.419 . S
C1057 C1052 1.425 . S
C1057 C1054 1.409 . S
C1057 C1055 1.415 . S
C1058 H1048 0.930 . S
C1058 C1056 1.419 . S
C1058 C1059 1.362 . S
C1059 H1049 0.930 . S
C1059 C1052 1.409 . S
C1059 C1058 1.362 . S
H1060 C1066 0.930 . S
H1061 C1069 0.930 . S
H1062 C1070 0.930 . S
H1063 C1071 0.930 . S
H1064 C1074 0.930 . S
H1065 C1075 0.930 . S
C1066 H1060 0.930 . S
C1066 C1067 1.355 . S
C1066 C1068 1.415 . S
C1067 C1066 1.355 . S
C1067 C1069 1.419 . S
C1068 C1066 1.415 . S
C1068 C1073 1.425 . S
C1068 C1075 1.409 . S
C1069 H1061 0.930 . S
C1069 C1067 1.419 . S
C1069 C1070 1.362 . S
C1070 H1062 0.930 . S
C1070 C1069 1.362 . S
C1070 C1073 1.409 . S
C1071 H1063 0.930 . S
C1071 C1072 1.355 . S
C1071 C1073 1.415 . S
C1072 C1071 1.355 . S
C1072 C1074 1.419 . S
C1073 C1068 1.425 . S
C1073 C1070 1.409 . S
C1073 C1071 1.415 . S
C1074 H1064 0.930 . S
C1074 C1072 1.419 . S
C1074 C1075 1.362 . S
C1075 H1065 0.930 . S
C1075 C1068 1.409 . S
C1075 C1074 1.362 . S
H1076 C1082 0.930 . S
H1077 C1085 0.930 . S
H1078 C1086 0.930 . S
H1079 C1087 0.930 . S
H1080 C1090 0.930 . S
H1081 C1091 0.930 . S
C1082 H1076 0.930 . S
C1082 C1083 1.355 . S
C1082 C1084 1.415 . S
C1083 C1082 1.355 . S
C1083 C1085 1.419 . S
C1084 C1082 1.415 . S
C1084 C1089 1.425 . S
C1084 C1091 1.409 . S
C1085 H1077 0.930 . S
C1085 C1083 1.419 . S
C1085 C1086 1.362 . S
C1086 H1078 0.930 . S
C1086 C1085 1.362 . S
C1086 C1089 1.409 . S
C1087 H1079 0.930 . S
C1087 C1088 1.355 . S
C1087 C1089 1.415 . S
C1088 C1087 1.355 . S
C1088 C1090 1.419 . S
C1089 C1084 1.425 . S
C1089 C1086 1.409 . S
C1089 C1087 1.415 . S
C1090 H1080 0.930 . S
C1090 C1088 1.419 . S
C1090 C1091 1.362 . S
C1091 H1081 0.930 . S
C1091 C1084 1.409 . S
C1091 C1090 1.362 . S
H1092 C1098 0.930 . S
H1093 C1101 0.930 . S
H1094 C1102 0.930 . S
H1095 C1103 0.930 . S
H1096 C1106 0.930 . S
H1097 C1107 0.930 . S
C1098 H1092 0.930 . S
C1098 C1099 1.355 . S
C1098 C1100 1.415 . S
C1099 C1098 1.355 . S
C1099 C1101 1.419 . S
C1100 C1098 1.415 . S
C1100 C1105 1.425 . S
C1100 C1107 1.409 . S
C1101 H1093 0.930 . S
C1101 C1099 1.419 . S
C1101 C1102 1.362 . S
C1102 H1094 0.930 . S
C1102 C1101 1.362 . S
C1102 C1105 1.409 . S
C1103 H1095 0.930 . S
C1103 C1104 1.355 . S
C1103 C1105 1.415 . S
C1104 C1103 1.355 . S
C1104 C1106 1.419 . S
C1105 C1100 1.425 . S
C1105 C1102 1.409 . S
C1105 C1103 1.415 . S
C1106 H1096 0.930 . S
C1106 C1104 1.419 . S
C1106 C1107 1.362 . S
C1107 H1097 0.930 . S
C1107 C1100 1.409 . S
C1107 C1106 1.362 . S
H1108 C1114 0.930 . S
H1109 C1117 0.930 . S
H1110 C1118 0.930 . S
H1111 C1119 0.930 . S
H1112 C1122 0.930 . S
H1113 C1123 0.930 . S
C1114 H1108 0.930 . S
C1114 C1115 1.355 . S
C1114 C1116 1.415 . S
C1115 C1114 1.355 . S
C1115 C1117 1.419 . S
C1116 C1114 1.415 . S
C1116 C1121 1.425 . S
C1116 C1123 1.409 . S
C1117 H1109 0.930 . S
C1117 C1115 1.419 . S
C1117 C1118 1.362 . S
C1118 H1110 0.930 . S
C1118 C1117 1.362 . S
C1118 C1121 1.409 . S
C1119 H1111 0.930 . S
C1119 C1120 1.355 . S
C1119 C1121 1.415 . S
C1120 C1119 1.355 . S
C1120 C1122 1.419 . S
C1121 C1116 1.425 . S
C1121 C1118 1.409 . S
C1121 C1119 1.415 . S
C1122 H1112 0.930 . S
C1122 C1120 1.419 . S
C1122 C1123 1.362 . S
C1123 H1113 0.930 . S
C1123 C1116 1.409 . S
C1123 C1122 1.362 . S
H1124 C1130 0.930 . S
H1125 C1133 0.930 . S
H1126 C1134 0.930 . S
H1127 C1135 0.930 . S
H1128 C1138 0.930 . S
H1129 C1139 0.930 . S
C1130 H1124 0.930 . S
C1130 C1131 1.355 . S
C1130 C1132 1.415 . S
C1131 C1130 1.355 . S
C1131 C1133 1.419 . S
C1132 C1130 1.415 . S
C1132 C1137 1.425 . S
C1132 C1139 1.409 . S
C1133 H1125 0.930 . S
C1133 C1131 1.419 . S
C1133 C1134 1.362 . S
C1134 H1126 0.930 . S
C1134 C1133 1.362 . S
C1134 C1137 1.409 . S
C1135 H1127 0.930 . S
C1135 C1136 1.355 . S
C1135 C1137 1.415 . S
C1136 C1135 1.355 . S
C1136 C1138 1.419 . S
C1137 C1132 1.425 . S
C1137 C1134 1.409 . S
C1137 C1135 1.415 . S
C1138 H1128 0.930 . S
C1138 C1136 1.419 . S
C1138 C1139 1.362 . S
C1139 H1129 0.930 . S
C1139 C1132 1.409 . S
C1139 C1138 1.362 . S
H1140 C1146 0.930 . S
H1141 C1149 0.930 . S
H1142 C1150 0.930 . S
H1143 C1151 0.930 . S
H1144 C1154 0.930 . S
H1145 C1155 0.930 . S
C1146 H1140 0.930 . S
C1146 C1147 1.355 . S
C1146 C1148 1.415 . S
C1147 C1146 1.355 . S
C1147 C1149 1.419 . S
C1148 C1146 1.415 . S
C1148 C1153 1.425 . S
C1148 C1155 1.409 . S
C1149 H1141 0.930 . S
C1149 C1147 1.419 . S
C1149 C1150 1.362 . S
C1150 H1142 0.930 . S
C1150 C1149 1.362 . S
C1150 C1153 1.409 . S
C1151 H1143 0.930 . S
C1151 C1152 1.355 . S
C1151 C1153 1.415 . S
C1152 C1151 1.355 . S
C1152 C1154 1.419 . S
C1153 C1148 1.425 . S
C1153 C1150 1.409 . S
C1153 C1151 1.415 . S
C1154 H1144 0.930 . S
C1154 C1152 1.419 . S
C1154 C1155 1.362 . S
C1155 H1145 0.930 . S
C1155 C1148 1.409 . S
C1155 C1154 1.362 . S
H1156 C1162 0.930 . S
H1157 C1165 0.930 . S
H1158 C1166 0.930 . S
H1159 C1167 0.930 . S
H1160 C1170 0.930 . S
H1161 C1171 0.930 . S
C1162 H1156 0.930 . S
C1162 C1163 1.355 . S
C1162 C1164 1.415 . S
C1163 C1162 1.355 . S
C1163 C1165 1.419 . S
C1164 C1162 1.415 . S
C1164 C1169 1.425 . S
C1164 C1171 1.409 . S
C1165 H1157 0.930 . S
C1165 C1163 1.419 . S
C1165 C1166 1.362 . S
C1166 H1158 0.930 . S
C1166 C1165 1.362 . S
C1166 C1169 1.409 . S
C1167 H1159 0.930 . S
C1167 C1168 1.355 . S
C1167 C1169 1.415 . S
C1168 C1167 1.355 . S
C1168 C1170 1.419 . S
C1169 C1164 1.425 . S
C1169 C1166 1.409 . S
C1169 C1167 1.415 . S
C1170 H1160 0.930 . S
C1170 C1168 1.419 . S
C1170 C1171 1.362 . S
C1171 H1161 0.930 . S
C1171 C1164 1.409 . S
C1171 C1170 1.362 . S
H1172 C1178 0.930 . S
H1173 C1181 0.930 . S
H1174 C1182 0.930 . S
H1175 C1183 0.930 . S
H1176 C1186 0.930 . S
H1177 C1187 0.930 . S
C1178 H1172 0.930 . S
C1178 C1179 1.355 . S
C1178 C1180 1.415 . S
C1179 C1178 1.355 . S
C1179 C1181 1.419 . S
C1180 C1178 1.415 . S
C1180 C1185 1.425 . S
C1180 C1187 1.409 . S
C1181 H1173 0.930 . S
C1181 C1179 1.419 . S
C1181 C1182 1.362 . S
C1182 H1174 0.930 . S
C1182 C1181 1.362 . S
C1182 C1185 1.409 . S
C1183 H1175 0.930 . S
C1183 C1184 1.355 . S
C1183 C1185 1.415 . S
C1184 C1183 1.355 . S
C1184 C1186 1.419 . S
C1185 C1180 1.425 . S
C1185 C1182 1.409 . S
C1185 C1183 1.415 . S
C1186 H1176 0.930 . S
C1186 C1184 1.419 . S
C1186 C1187 1.362 . S
C1187 H1177 0.930 . S
C1187 C1180 1.409 . S
C1187 C1186 1.362 . S
H1188 C1194 0.930 . S
H1189 C1197 0.930 . S
H1190 C1198 0.930 . S
H1191 C1199 0.930 . S
H1192 C1202 0.930 . S
H1193 C1203 0.930 . S
C1194 H1188 0.930 . S
C1194 C1195 1.355 . S
C1194 C1196 1.415 . S
C1195 C1194 1.355 . S
C1195 C1197 1.419 . S
C1196 C1194 1.415 . S
C1196 C1201 1.425 . S
C1196 C1203 1.409 . S
C1197 H1189 0.930 . S
C1197 C1195 1.419 . S
C1197 C1198 1.362 . S
C1198 H1190 0.930 . S
C1198 C1197 1.362 . S
C1198 C1201 1.409 . S
C1199 H1191 0.930 . S
C1199 C1200 1.355 . S
C1199 C1201 1.415 . S
C1200 C1199 1.355 . S
C1200 C1202 1.419 . S
C1201 C1196 1.425 . S
C1201 C1198 1.409 . S
C1201 C1199 1.415 . S
C1202 H1192 0.930 . S
C1202 C1200 1.419 . S
C1202 C1203 1.362 . S
C1203 H1193 0.930 . S
C1203 C1196 1.409 . S
C1203 C1202 1.362 . S
H1204 C1210 0.930 . S
H1205 C1213 0.930 . S
H1206 C1214 0.930 . S
H1207 C1215 0.930 . S
H1208 C1218 0.930 . S
H1209 C1219 0.930 . S
C1210 H1204 0.930 . S
C1210 C1211 1.355 . S
C1210 C1212 1.415 . S
C1211 C1210 1.355 . S
C1211 C1213 1.419 . S
C1212 C1210 1.415 . S
C1212 C1217 1.425 . S
C1212 C1219 1.409 . S
C1213 H1205 0.930 . S
C1213 C1211 1.419 . S
C1213 C1214 1.362 . S
C1214 H1206 0.930 . S
C1214 C1213 1.362 . S
C1214 C1217 1.409 . S
C1215 H1207 0.930 . S
C1215 C1216 1.355 . S
C1215 C1217 1.415 . S
C1216 C1215 1.355 . S
C1216 C1218 1.419 . S
C1217 C1212 1.425 . S
C1217 C1214 1.409 . S
C1217 C1215 1.415 . S
C1218 H1208 0.930 . S
C1218 C1216 1.419 . S
C1218 C1219 1.362 . S
C1219 H1209 0.930 . S
C1219 C1212 1.409 . S
C1219 C1218 1.362 . S
H1220 C1226 0.930 . S
H1221 C1229 0.930 . S
H1222 C1230 0.930 . S
H1223 C1231 0.930 . S
H1224 C1234 0.930 . S
H1225 C1235 0.930 . S
C1226 H1220 0.930 . S
C1226 C1227 1.355 . S
C1226 C1228 1.415 . S
C1227 C1226 1.355 . S
C1227 C1229 1.419 . S
C1228 C1226 1.415 . S
C1228 C1233 1.425 . S
C1228 C1235 1.409 . S
C1229 H1221 0.930 . S
C1229 C1227 1.419 . S
C1229 C1230 1.362 . S
C1230 H1222 0.930 . S
C1230 C1229 1.362 . S
C1230 C1233 1.409 . S
C1231 H1223 0.930 . S
C1231 C1232 1.355 . S
C1231 C1233 1.415 . S
C1232 C1231 1.355 . S
C1232 C1234 1.419 . S
C1233 C1228 1.425 . S
C1233 C1230 1.409 . S
C1233 C1231 1.415 . S
C1234 H1224 0.930 . S
C1234 C1232 1.419 . S
C1234 C1235 1.362 . S
C1235 H1225 0.930 . S
C1235 C1228 1.409 . S
C1235 C1234 1.362 . S
H1236 C1242 0.930 . S
H1237 C1245 0.930 . S
H1238 C1246 0.930 . S
H1239 C1247 0.930 . S
H1240 C1250 0.930 . S
H1241 C1251 0.930 . S
C1242 H1236 0.930 . S
C1242 C1243 1.355 . S
C1242 C1244 1.415 . S
C1243 C1242 1.355 . S
C1243 C1245 1.419 1_455 S
C1244 C1242 1.415 . S
C1244 C1249 1.425 1_455 S
C1244 C1251 1.409 . S
C1245 H1237 0.930 . S
C1245 C1243 1.419 1_655 S
C1245 C1246 1.362 . S
C1246 H1238 0.930 . S
C1246 C1245 1.362 . S
C1246 C1249 1.409 . S
C1247 H1239 0.930 . S
C1247 C1248 1.355 . S
C1247 C1249 1.415 . S
C1248 C1247 1.355 . S
C1248 C1250 1.419 1_655 S
C1249 C1244 1.425 1_655 S
C1249 C1246 1.409 . S
C1249 C1247 1.415 . S
C1250 H1240 0.930 . S
C1250 C1248 1.419 1_455 S
C1250 C1251 1.362 . S
C1251 H1241 0.930 . S
C1251 C1244 1.409 . S
C1251 C1250 1.362 . S
H1252 C1258 0.930 . S
H1253 C1261 0.930 . S
H1254 C1262 0.930 . S
H1255 C1263 0.930 . S
H1256 C1266 0.930 . S
H1257 C1267 0.930 . S
C1258 H1252 0.930 . S
C1258 C1259 1.355 . S
C1258 C1260 1.415 . S
C1259 C1258 1.355 . S
C1259 C1261 1.419 . S
C1260 C1258 1.415 . S
C1260 C1265 1.425 . S
C1260 C1267 1.409 . S
C1261 H1253 0.930 . S
C1261 C1259 1.419 . S
C1261 C1262 1.362 . S
C1262 H1254 0.930 . S
C1262 C1261 1.362 . S
C1262 C1265 1.409 . S
C1263 H1255 0.930 . S
C1263 C1264 1.355 . S
C1263 C1265 1.415 . S
C1264 C1263 1.355 . S
C1264 C1266 1.419 . S
C1265 C1260 1.425 . S
C1265 C1262 1.409 . S
C1265 C1263 1.415 . S
C1266 H1256 0.930 . S
C1266 C1264 1.419 . S
C1266 C1267 1.362 . S
C1267 H1257 0.930 . S
C1267 C1260 1.409 . S
C1267 C1266 1.362 . S
H1268 C1274 0.934 . S
H1269 C1277 0.930 . S
H1270 C1278 0.930 . S
H1271 C1279 0.934 . S
H1272 C1282 0.930 . S
H1273 C1283 0.930 . S
C1274 H1268 0.934 . S
C1274 C1275 1.356 1_565 S
C1274 C1276 1.409 . S
C1275 C1274 1.356 1_545 S
C1275 C1277 1.419 . S
C1276 C1274 1.409 . S
C1276 C1281 1.425 1_565 S
C1276 C1283 1.409 . S
C1277 H1269 0.930 . S
C1277 C1275 1.419 . S
C1277 C1278 1.362 . S
C1278 H1270 0.930 . S
C1278 C1277 1.362 . S
C1278 C1281 1.409 . S
C1279 H1271 0.934 . S
C1279 C1280 1.356 1_545 S
C1279 C1281 1.409 . S
C1280 C1279 1.356 1_565 S
C1280 C1282 1.419 . S
C1281 C1276 1.425 1_545 S
C1281 C1278 1.409 . S
C1281 C1279 1.409 . S
C1282 H1272 0.930 . S
C1282 C1280 1.419 . S
C1282 C1283 1.362 . S
C1283 H1273 0.930 . S
C1283 C1276 1.409 . S
C1283 C1282 1.362 . S
H1284 C1290 0.930 . S
H1285 C1293 0.930 . S
H1286 C1294 0.930 . S
H1287 C1295 0.930 . S
H1288 C1298 0.930 . S
H1289 C1299 0.930 . S
C1290 H1284 0.930 . S
C1290 C1291 1.355 1_554 S
C1290 C1292 1.415 . S
C1291 C1290 1.355 1_556 S
C1291 C1293 1.419 1_545 S
C1292 C1290 1.415 . S
C1292 C1297 1.425 1_544 S
C1292 C1299 1.409 . S
C1293 H1285 0.930 . S
C1293 C1291 1.419 1_565 S
C1293 C1294 1.362 . S
C1294 H1286 0.930 . S
C1294 C1293 1.362 . S
C1294 C1297 1.409 . S
C1295 H1287 0.930 . S
C1295 C1296 1.355 1_556 S
C1295 C1297 1.415 . S
C1296 C1295 1.355 1_554 S
C1296 C1298 1.419 1_565 S
C1297 C1292 1.425 1_566 S
C1297 C1294 1.409 . S
C1297 C1295 1.415 . S
C1298 H1288 0.930 . S
C1298 C1296 1.419 1_545 S
C1298 C1299 1.362 . S
C1299 H1289 0.930 . S
C1299 C1292 1.409 . S
C1299 C1298 1.362 . S
H1300 C1306 0.930 . S
H1301 C1309 0.930 . S
H1302 C1310 0.930 . S
H1303 C1311 0.930 . S
H1304 C1314 0.930 . S
H1305 C1315 0.930 . S
C1306 H1300 0.930 . S
C1306 C1307 1.355 . S
C1306 C1308 1.415 . S
C1307 C1306 1.355 . S
C1307 C1309 1.419 1_454 S
C1308 C1306 1.415 . S
C1308 C1313 1.425 1_454 S
C1308 C1315 1.409 . S
C1309 H1301 0.930 . S
C1309 C1307 1.419 1_656 S
C1309 C1310 1.362 . S
C1310 H1302 0.930 . S
C1310 C1309 1.362 . S
C1310 C1313 1.409 . S
C1311 H1303 0.930 . S
C1311 C1312 1.355 . S
C1311 C1313 1.415 . S
C1312 C1311 1.355 . S
C1312 C1314 1.419 1_656 S
C1313 C1308 1.425 1_656 S
C1313 C1310 1.409 . S
C1313 C1311 1.415 . S
C1314 H1304 0.930 . S
C1314 C1312 1.419 1_454 S
C1314 C1315 1.362 . S
C1315 H1305 0.930 . S
C1315 C1308 1.409 . S
C1315 C1314 1.362 . S
H1316 C1322 0.930 . S
H1317 C1325 0.930 . S
H1318 C1326 0.930 . S
H1319 C1327 0.930 . S
H1320 C1330 0.930 . S
H1321 C1331 0.930 . S
C1322 H1316 0.930 . S
C1322 C1323 1.355 . S
C1322 C1324 1.415 . S
C1323 C1322 1.355 . S
C1323 C1325 1.419 1_554 S
C1324 C1322 1.415 . S
C1324 C1329 1.425 1_554 S
C1324 C1331 1.409 . S
C1325 H1317 0.930 . S
C1325 C1323 1.419 1_556 S
C1325 C1326 1.362 . S
C1326 H1318 0.930 . S
C1326 C1325 1.362 . S
C1326 C1329 1.409 . S
C1327 H1319 0.930 . S
C1327 C1328 1.355 . S
C1327 C1329 1.415 . S
C1328 C1327 1.355 . S
C1328 C1330 1.419 1_556 S
C1329 C1324 1.425 1_556 S
C1329 C1326 1.409 . S
C1329 C1327 1.415 . S
C1330 H1320 0.930 . S
C1330 C1328 1.419 1_554 S
C1330 C1331 1.362 . S
C1331 H1321 0.930 . S
C1331 C1324 1.409 . S
C1331 C1330 1.362 . S
H1332 C1338 0.930 . S
H1333 C1341 0.930 . S
H1334 C1342 0.930 . S
H1335 C1343 0.930 . S
H1336 C1346 0.930 . S
H1337 C1347 0.930 . S
C1338 H1332 0.930 . S
C1338 C1339 1.355 . S
C1338 C1340 1.415 . S
C1339 C1338 1.355 . S
C1339 C1341 1.419 . S
C1340 C1338 1.415 . S
C1340 C1345 1.425 . S
C1340 C1347 1.409 . S
C1341 H1333 0.930 . S
C1341 C1339 1.419 . S
C1341 C1342 1.362 . S
C1342 H1334 0.930 . S
C1342 C1341 1.362 . S
C1342 C1345 1.409 . S
C1343 H1335 0.930 . S
C1343 C1344 1.355 . S
C1343 C1345 1.415 . S
C1344 C1343 1.355 . S
C1344 C1346 1.419 . S
C1345 C1340 1.425 . S
C1345 C1342 1.409 . S
C1345 C1343 1.415 . S
C1346 H1336 0.930 . S
C1346 C1344 1.419 . S
C1346 C1347 1.362 . S
C1347 H1337 0.930 . S
C1347 C1340 1.409 . S
C1347 C1346 1.362 . S
H1348 C1354 0.930 . S
H1349 C1357 0.930 . S
H1350 C1358 0.930 . S
H1351 C1359 0.930 . S
H1352 C1362 0.930 . S
H1353 C1363 0.930 . S
C1354 H1348 0.930 . S
C1354 C1355 1.355 . S
C1354 C1356 1.415 . S
C1355 C1354 1.355 . S
C1355 C1357 1.419 . S
C1356 C1354 1.415 . S
C1356 C1361 1.425 . S
C1356 C1363 1.409 . S
C1357 H1349 0.930 . S
C1357 C1355 1.419 . S
C1357 C1358 1.362 . S
C1358 H1350 0.930 . S
C1358 C1357 1.362 . S
C1358 C1361 1.409 . S
C1359 H1351 0.930 . S
C1359 C1360 1.355 . S
C1359 C1361 1.415 . S
C1360 C1359 1.355 . S
C1360 C1362 1.419 . S
C1361 C1356 1.425 . S
C1361 C1358 1.409 . S
C1361 C1359 1.415 . S
C1362 H1352 0.930 . S
C1362 C1360 1.419 . S
C1362 C1363 1.362 . S
C1363 H1353 0.930 . S
C1363 C1356 1.409 . S
C1363 C1362 1.362 . S
H1364 C1370 0.930 1_556 S
H1365 C1373 0.930 . S
H1366 C1374 0.930 . S
H1367 C1375 0.930 . S
H1368 C1378 0.930 . S
H1369 C1379 0.930 . S
C1370 H1364 0.930 1_554 S
C1370 C1371 1.355 . S
C1370 C1372 1.415 . S
C1371 C1370 1.355 . S
C1371 C1373 1.419 . S
C1372 C1370 1.415 . S
C1372 C1377 1.425 . S
C1372 C1379 1.409 . S
C1373 H1365 0.930 . S
C1373 C1371 1.419 . S
C1373 C1374 1.362 . S
C1374 H1366 0.930 . S
C1374 C1373 1.362 . S
C1374 C1377 1.409 . S
C1375 H1367 0.930 . S
C1375 C1376 1.355 . S
C1375 C1377 1.415 . S
C1376 C1375 1.355 . S
C1376 C1378 1.419 . S
C1377 C1372 1.425 . S
C1377 C1374 1.409 . S
C1377 C1375 1.415 . S
C1378 H1368 0.930 . S
C1378 C1376 1.419 . S
C1378 C1379 1.362 . S
C1379 H1369 0.930 . S
C1379 C1372 1.409 . S
C1379 C1378 1.362 . S
H1380 C1386 0.930 . S
H1381 C1389 0.930 . S
H1382 C1390 0.930 . S
H1383 C1391 0.930 . S
H1384 C1394 0.930 . S
H1385 C1395 0.930 . S
C1386 H1380 0.930 . S
C1386 C1387 1.355 . S
C1386 C1388 1.415 . S
C1387 C1386 1.355 . S
C1387 C1389 1.419 . S
C1388 C1386 1.415 . S
C1388 C1393 1.425 . S
C1388 C1395 1.409 . S
C1389 H1381 0.930 . S
C1389 C1387 1.419 . S
C1389 C1390 1.362 . S
C1390 H1382 0.930 . S
C1390 C1389 1.362 . S
C1390 C1393 1.409 . S
C1391 H1383 0.930 . S
C1391 C1392 1.355 . S
C1391 C1393 1.415 . S
C1392 C1391 1.355 . S
C1392 C1394 1.419 . S
C1393 C1388 1.425 . S
C1393 C1390 1.409 . S
C1393 C1391 1.415 . S
C1394 H1384 0.930 . S
C1394 C1392 1.419 . S
C1394 C1395 1.362 . S
C1395 H1385 0.930 . S
C1395 C1388 1.409 . S
C1395 C1394 1.362 . S
H1396 C1402 0.930 . S
H1397 C1405 0.930 . S
H1398 C1406 0.930 . S
H1399 C1407 0.930 . S
H1400 C1410 0.930 . S
H1401 C1411 0.930 . S
C1402 H1396 0.930 . S
C1402 C1403 1.355 . S
C1402 C1404 1.415 . S
C1403 C1402 1.355 . S
C1403 C1405 1.419 . S
C1404 C1402 1.415 . S
C1404 C1409 1.425 . S
C1404 C1411 1.409 . S
C1405 H1397 0.930 . S
C1405 C1403 1.419 . S
C1405 C1406 1.362 . S
C1406 H1398 0.930 . S
C1406 C1405 1.362 . S
C1406 C1409 1.409 . S
C1407 H1399 0.930 . S
C1407 C1408 1.355 . S
C1407 C1409 1.415 . S
C1408 C1407 1.355 . S
C1408 C1410 1.419 . S
C1409 C1404 1.425 . S
C1409 C1406 1.409 . S
C1409 C1407 1.415 . S
C1410 H1400 0.930 . S
C1410 C1408 1.419 . S
C1410 C1411 1.362 . S
C1411 H1401 0.930 . S
C1411 C1404 1.409 . S
C1411 C1410 1.362 . S
H1412 C1418 0.930 . S
H1413 C1421 0.930 . S
H1414 C1422 0.930 . S
H1415 C1423 0.930 . S
H1416 C1426 0.930 . S
H1417 C1427 0.930 . S
C1418 H1412 0.930 . S
C1418 C1419 1.355 . S
C1418 C1420 1.415 . S
C1419 C1418 1.355 . S
C1419 C1421 1.419 . S
C1420 C1418 1.415 . S
C1420 C1425 1.425 . S
C1420 C1427 1.409 . S
C1421 H1413 0.930 . S
C1421 C1419 1.419 . S
C1421 C1422 1.362 . S
C1422 H1414 0.930 . S
C1422 C1421 1.362 . S
C1422 C1425 1.409 . S
C1423 H1415 0.930 . S
C1423 C1424 1.355 . S
C1423 C1425 1.415 . S
C1424 C1423 1.355 . S
C1424 C1426 1.419 . S
C1425 C1420 1.425 . S
C1425 C1422 1.409 . S
C1425 C1423 1.415 . S
C1426 H1416 0.930 . S
C1426 C1424 1.419 . S
C1426 C1427 1.362 . S
C1427 H1417 0.930 . S
C1427 C1420 1.409 . S
C1427 C1426 1.362 . S
H1428 C1434 0.930 . S
H1429 C1437 0.930 . S
H1430 C1438 0.930 . S
H1431 C1439 0.930 1_554 S
H1432 C1442 0.930 . S
H1433 C1443 0.930 . S
C1434 H1428 0.930 . S
C1434 C1435 1.355 . S
C1434 C1436 1.415 . S
C1435 C1434 1.355 . S
C1435 C1437 1.419 . S
C1436 C1434 1.415 . S
C1436 C1441 1.425 . S
C1436 C1443 1.409 . S
C1437 H1429 0.930 . S
C1437 C1435 1.419 . S
C1437 C1438 1.362 . S
C1438 H1430 0.930 . S
C1438 C1437 1.362 . S
C1438 C1441 1.409 . S
C1439 H1431 0.930 1_556 S
C1439 C1440 1.355 . S
C1439 C1441 1.415 . S
C1440 C1439 1.355 . S
C1440 C1442 1.419 . S
C1441 C1436 1.425 . S
C1441 C1438 1.409 . S
C1441 C1439 1.415 . S
C1442 H1432 0.930 . S
C1442 C1440 1.419 . S
C1442 C1443 1.362 . S
C1443 H1433 0.930 . S
C1443 C1436 1.409 . S
C1443 C1442 1.362 . S
H1444 C1450 0.943 . S
H1445 C1453 0.930 . S
H1446 C1454 0.930 . S
H1447 C1455 0.930 . S
H1448 C1458 0.930 . S
H1449 C1459 0.930 . S
C1450 H1444 0.943 . S
C1450 C1451 1.355 . S
C1450 C1452 1.415 . S
C1451 C1450 1.355 . S
C1451 C1453 1.419 . S
C1452 C1450 1.415 . S
C1452 C1457 1.425 . S
C1452 C1459 1.409 . S
C1453 H1445 0.930 . S
C1453 C1451 1.419 . S
C1453 C1454 1.362 . S
C1454 H1446 0.930 . S
C1454 C1453 1.362 . S
C1454 C1457 1.409 . S
C1455 H1447 0.930 . S
C1455 C1456 1.355 . S
C1455 C1457 1.415 . S
C1456 C1455 1.355 . S
C1456 C1458 1.419 . S
C1457 C1452 1.425 . S
C1457 C1454 1.409 . S
C1457 C1455 1.415 . S
C1458 H1448 0.930 . S
C1458 C1456 1.419 . S
C1458 C1459 1.362 . S
C1459 H1449 0.930 . S
C1459 C1452 1.409 . S
C1459 C1458 1.362 . S
H1460 C1466 0.930 . S
H1461 C1469 0.930 . S
H1462 C1470 0.930 . S
H1463 C1471 0.949 . S
H1464 C1474 0.930 . S
H1465 C1475 0.930 . S
C1466 H1460 0.930 . S
C1466 C1467 1.355 . S
C1466 C1468 1.415 . S
C1467 C1466 1.355 . S
C1467 C1469 1.419 . S
C1468 C1466 1.415 . S
C1468 C1473 1.425 . S
C1468 C1475 1.409 . S
C1469 H1461 0.930 . S
C1469 C1467 1.419 . S
C1469 C1470 1.362 . S
C1470 H1462 0.930 . S
C1470 C1469 1.362 . S
C1470 C1473 1.409 . S
C1471 H1463 0.949 . S
C1471 C1472 1.355 . S
C1471 C1473 1.415 . S
C1472 C1471 1.355 . S
C1472 C1474 1.419 . S
C1473 C1468 1.425 . S
C1473 C1470 1.409 . S
C1473 C1471 1.415 . S
C1474 H1464 0.930 . S
C1474 C1472 1.419 . S
C1474 C1475 1.362 . S
C1475 H1465 0.930 . S
C1475 C1468 1.409 . S
C1475 C1474 1.362 . S
H1476 C1482 0.930 . S
H1477 C1485 0.930 . S
H1478 C1486 0.930 . S
H1479 C1487 0.930 . S
H1480 C1490 0.930 . S
H1481 C1491 0.930 . S
C1482 H1476 0.930 . S
C1482 C1483 1.355 . S
C1482 C1484 1.415 . S
C1483 C1482 1.355 . S
C1483 C1485 1.419 . S
C1484 C1482 1.415 . S
C1484 C1489 1.425 . S
C1484 C1491 1.409 . S
C1485 H1477 0.930 . S
C1485 C1483 1.419 . S
C1485 C1486 1.362 . S
C1486 H1478 0.930 . S
C1486 C1485 1.362 . S
C1486 C1489 1.409 . S
C1487 H1479 0.930 . S
C1487 C1488 1.355 . S
C1487 C1489 1.415 . S
C1488 C1487 1.355 . S
C1488 C1490 1.419 . S
C1489 C1484 1.425 . S
C1489 C1486 1.409 . S
C1489 C1487 1.415 . S
C1490 H1480 0.930 . S
C1490 C1488 1.419 . S
C1490 C1491 1.362 . S
C1491 H1481 0.930 . S
C1491 C1484 1.409 . S
C1491 C1490 1.362 . S
H1492 C1498 0.930 . S
H1493 C1501 0.930 . S
H1494 C1502 0.930 . S
H1495 C1503 0.930 . S
H1496 C1506 0.930 . S
H1497 C1507 0.930 . S
C1498 H1492 0.930 . S
C1498 C1499 1.355 . S
C1498 C1500 1.415 . S
C1499 C1498 1.355 . S
C1499 C1501 1.419 . S
C1500 C1498 1.415 . S
C1500 C1505 1.425 . S
C1500 C1507 1.409 . S
C1501 H1493 0.930 . S
C1501 C1499 1.419 . S
C1501 C1502 1.362 . S
C1502 H1494 0.930 . S
C1502 C1501 1.362 . S
C1502 C1505 1.409 . S
C1503 H1495 0.930 . S
C1503 C1504 1.355 . S
C1503 C1505 1.415 . S
C1504 C1503 1.355 . S
C1504 C1506 1.419 . S
C1505 C1500 1.425 . S
C1505 C1502 1.409 . S
C1505 C1503 1.415 . S
C1506 H1496 0.930 . S
C1506 C1504 1.419 . S
C1506 C1507 1.362 . S
C1507 H1497 0.930 . S
C1507 C1500 1.409 . S
C1507 C1506 1.362 . S
H1508 C1514 0.930 . S
H1509 C1517 0.930 . S
H1510 C1518 0.930 . S
H1511 C1519 0.930 . S
H1512 C1522 0.930 . S
H1513 C1523 0.930 . S
C1514 H1508 0.930 . S
C1514 C1515 1.355 . S
C1514 C1516 1.415 . S
C1515 C1514 1.355 . S
C1515 C1517 1.419 . S
C1516 C1514 1.415 . S
C1516 C1521 1.425 . S
C1516 C1523 1.409 . S
C1517 H1509 0.930 . S
C1517 C1515 1.419 . S
C1517 C1518 1.362 . S
C1518 H1510 0.930 . S
C1518 C1517 1.362 . S
C1518 C1521 1.409 . S
C1519 H1511 0.930 . S
C1519 C1520 1.355 . S
C1519 C1521 1.415 . S
C1520 C1519 1.355 . S
C1520 C1522 1.419 . S
C1521 C1516 1.425 . S
C1521 C1518 1.409 . S
C1521 C1519 1.415 . S
C1522 H1512 0.930 . S
C1522 C1520 1.419 . S
C1522 C1523 1.362 . S
C1523 H1513 0.930 . S
C1523 C1516 1.409 . S
C1523 C1522 1.362 . S
H1524 C1530 0.930 . S
H1525 C1533 0.930 . S
H1526 C1534 0.930 . S
H1527 C1535 0.930 . S
H1528 C1538 0.930 . S
H1529 C1539 0.930 . S
C1530 H1524 0.930 . S
C1530 C1531 1.355 . S
C1530 C1532 1.415 . S
C1531 C1530 1.355 . S
C1531 C1533 1.419 . S
C1532 C1530 1.415 . S
C1532 C1537 1.425 . S
C1532 C1539 1.409 . S
C1533 H1525 0.930 . S
C1533 C1531 1.419 . S
C1533 C1534 1.362 . S
C1534 H1526 0.930 . S
C1534 C1533 1.362 . S
C1534 C1537 1.409 . S
C1535 H1527 0.930 . S
C1535 C1536 1.355 . S
C1535 C1537 1.415 . S
C1536 C1535 1.355 . S
C1536 C1538 1.419 . S
C1537 C1532 1.425 . S
C1537 C1534 1.409 . S
C1537 C1535 1.415 . S
C1538 H1528 0.930 . S
C1538 C1536 1.419 . S
C1538 C1539 1.362 . S
C1539 H1529 0.930 . S
C1539 C1532 1.409 . S
C1539 C1538 1.362 . S
H1540 C1546 0.930 . S
H1541 C1549 0.930 . S
H1542 C1550 0.930 . S
H1543 C1551 0.930 . S
H1544 C1554 0.930 . S
H1545 C1555 0.930 . S
C1546 H1540 0.930 . S
C1546 C1547 1.355 . S
C1546 C1548 1.432 . S
C1547 C1546 1.355 . S
C1547 C1549 1.419 . S
C1548 C1546 1.432 . S
C1548 C1553 1.398 1_545 S
C1548 C1555 1.406 1_545 S
C1549 H1541 0.930 . S
C1549 C1547 1.419 . S
C1549 C1550 1.362 . S
C1550 H1542 0.930 . S
C1550 C1549 1.362 . S
C1550 C1553 1.406 1_545 S
C1551 H1543 0.930 . S
C1551 C1552 1.355 . S
C1551 C1553 1.432 . S
C1552 C1551 1.355 . S
C1552 C1554 1.419 . S
C1553 C1548 1.398 1_565 S
C1553 C1550 1.406 1_565 S
C1553 C1551 1.432 . S
C1554 H1544 0.930 . S
C1554 C1552 1.419 . S
C1554 C1555 1.362 . S
C1555 H1545 0.930 . S
C1555 C1548 1.406 1_565 S
C1555 C1554 1.362 . S
H1556 C1562 0.930 1_455 S
H1557 C1565 0.930 . S
H1558 C1566 0.930 . S
H1559 C1567 0.930 1_655 S
H1560 C1570 0.930 . S
H1561 C1571 0.930 . S
C1562 H1556 0.930 1_655 S
C1562 C1563 1.355 . S
C1562 C1564 1.415 1_655 S
C1563 C1562 1.355 . S
C1563 C1565 1.419 . S
C1564 C1562 1.415 1_455 S
C1564 C1569 1.425 1_455 S
C1564 C1571 1.409 . S
C1565 H1557 0.930 . S
C1565 C1563 1.419 . S
C1565 C1566 1.362 . S
C1566 H1558 0.930 . S
C1566 C1565 1.362 . S
C1566 C1569 1.409 . S
C1567 H1559 0.930 1_455 S
C1567 C1568 1.355 . S
C1567 C1569 1.415 1_455 S
C1568 C1567 1.355 . S
C1568 C1570 1.419 . S
C1569 C1564 1.425 1_655 S
C1569 C1566 1.409 . S
C1569 C1567 1.415 1_655 S
C1570 H1560 0.930 . S
C1570 C1568 1.419 . S
C1570 C1571 1.362 . S
C1571 H1561 0.930 . S
C1571 C1564 1.409 . S
C1571 C1570 1.362 . S
H1572 C1578 0.930 . S
H1573 C1581 0.930 . S
H1574 C1582 0.930 . S
H1575 C1583 0.930 . S
H1576 C1586 0.930 . S
H1577 C1587 0.930 . S
C1578 H1572 0.930 . S
C1578 C1579 1.355 . S
C1578 C1580 1.415 . S
C1579 C1578 1.355 . S
C1579 C1581 1.419 . S
C1580 C1578 1.415 . S
C1580 C1585 1.425 . S
C1580 C1587 1.409 . S
C1581 H1573 0.930 . S
C1581 C1579 1.419 . S
C1581 C1582 1.362 . S
C1582 H1574 0.930 . S
C1582 C1581 1.362 . S
C1582 C1585 1.409 . S
C1583 H1575 0.930 . S
C1583 C1584 1.355 . S
C1583 C1585 1.415 . S
C1584 C1583 1.355 . S
C1584 C1586 1.419 . S
C1585 C1580 1.425 . S
C1585 C1582 1.409 . S
C1585 C1583 1.415 . S
C1586 H1576 0.930 . S
C1586 C1584 1.419 . S
C1586 C1587 1.362 . S
C1587 H1577 0.930 . S
C1587 C1580 1.409 . S
C1587 C1586 1.362 . S
H1588 C1594 0.934 . S
H1589 C1597 0.930 . S
H1590 C1598 0.930 . S
H1591 C1599 0.934 . S
H1592 C1602 0.930 . S
H1593 C1603 0.930 . S
C1594 H1588 0.934 . S
C1594 C1595 1.355 . S
C1594 C1596 1.415 1_545 S
C1595 C1594 1.355 . S
C1595 C1597 1.419 . S
C1596 C1594 1.415 1_565 S
C1596 C1601 1.425 1_565 S
C1596 C1603 1.409 . S
C1597 H1589 0.930 . S
C1597 C1595 1.419 . S
C1597 C1598 1.362 . S
C1598 H1590 0.930 . S
C1598 C1597 1.362 . S
C1598 C1601 1.409 . S
C1599 H1591 0.934 . S
C1599 C1600 1.355 . S
C1599 C1601 1.415 1_565 S
C1600 C1599 1.355 . S
C1600 C1602 1.419 . S
C1601 C1596 1.425 1_545 S
C1601 C1598 1.409 . S
C1601 C1599 1.415 1_545 S
C1602 H1592 0.930 . S
C1602 C1600 1.419 . S
C1602 C1603 1.362 . S
C1603 H1593 0.930 . S
C1603 C1596 1.409 . S
C1603 C1602 1.362 . S
H1604 C1610 0.930 . S
H1605 C1613 0.930 . S
H1606 C1614 0.929 . S
H1607 C1615 0.930 . S
H1608 C1618 0.930 . S
H1609 C1619 0.929 . S
C1610 H1604 0.930 . S
C1610 C1611 1.355 . S
C1610 C1612 1.415 . S
C1611 C1610 1.355 . S
C1611 C1613 1.419 . S
C1612 C1610 1.415 . S
C1612 C1617 1.425 1_455 S
C1612 C1619 1.440 . S
C1613 H1605 0.930 . S
C1613 C1611 1.419 . S
C1613 C1614 1.336 1_455 S
C1614 H1606 0.929 . S
C1614 C1613 1.336 1_655 S
C1614 C1617 1.440 . S
C1615 H1607 0.930 . S
C1615 C1616 1.355 . S
C1615 C1617 1.415 . S
C1616 C1615 1.355 . S
C1616 C1618 1.419 . S
C1617 C1612 1.425 1_655 S
C1617 C1614 1.440 . S
C1617 C1615 1.415 . S
C1618 H1608 0.930 . S
C1618 C1616 1.419 . S
C1618 C1619 1.336 1_655 S
C1619 H1609 0.929 . S
C1619 C1612 1.440 . S
C1619 C1618 1.336 1_455 S
C475 C70 0.621 . S
C480 C5 0.768 . S
C491 C44 0.790 . S
C496 C18 0.625 . S
C507 C31 0.797 . S
C512 C57 0.662 . S
C523 C83 0.753 . S
C528 C148 0.741 . S
C539 C96 0.775 . S
C544 C122 0.620 . S
C555 C135 0.624 . S
C560 C109 0.758 . S
C571 C161 0.627 . S
C576 C226 0.792 . S
C587 C174 0.622 . S
C592 C200 0.786 . S
C603 C213 0.622 . S
C608 C187 0.761 . S
C619 C304 0.779 . S
C624 C239 0.707 . S
C635 C278 0.691 . S
C640 C252 0.787 . S
C651 C265 0.777 . S
C656 C291 0.709 . S
C667 C382 0.796 . S
C672 C317 0.665 . S
C683 C356 0.790 . S
C688 C330 0.625 . S
C699 C343 0.664 . S
C704 C369 0.796 . S
C715 C460 0.772 . S
C720 C395 0.717 . S
C731 C434 0.628 . S
C736 C408 0.747 . S
C747 C447 0.785 . S
C752 C421 0.622 . S
C763 C216 1.411 . S
C768 C8 1.358 . S
C779 C229 1.390 . S
C784 C21 1.326 . S
C795 C203 1.283 . S
C800 C34 1.335 . S
C811 C47 1.367 . S
C816 C346 1.303 1_554 S
C827 C60 1.331 . S
C832 C320 1.394 1_554 S
C843 C73 1.359 . S
C848 C333 1.411 1_554 S
C859 C86 1.320 . S
C864 C450 1.278 . S
C875 C463 1.396 . S
C880 C99 1.334 . S
C891 C437 1.347 . S
C896 C112 1.289 . S
C907 C268 1.380 1_556 S
C912 C125 1.418 . S
C923 C242 1.400 1_556 S
C928 C138 1.339 . S
C939 C151 1.356 . S
C944 C255 1.295 1_556 S
C955 C164 1.281 . S
C960 C372 1.288 . S
C971 C385 1.419 . S
C976 C177 1.394 . S
C987 C359 1.276 . S
C992 C190 1.305 . S
C1003 C281 1.388 . S
C1008 C424 1.419 . S
C1019 C398 1.277 . S
C1024 C294 1.318 . S
C1035 C307 1.312 . S
C1040 C411 1.277 . S
C1051 C234 1.245 . S
C1056 C0 1.245 . S
C1067 C247 1.298 . S
C1072 C13 1.298 . S
C1083 C26 1.269 . S
C1088 C260 1.269 . S
C1099 C39 1.251 . S
C1104 C429 1.251 . S
C1115 C442 1.296 . S
C1120 C52 1.296 . S
C1131 C455 1.293 . S
C1136 C65 1.293 . S
C1147 C78 1.264 . S
C1152 C312 1.264 . S
C1163 C91 1.295 . S
C1168 C325 1.295 . S
C1179 C338 1.276 . S
C1184 C104 1.276 . S
C1195 C117 1.261 . S
C1200 C195 1.261 . S
C1211 C130 1.299 . S
C1216 C208 1.299 . S
C1227 C221 1.292 . S
C1232 C143 1.292 . S
C1243 C156 1.287 . S
C1248 C390 1.287 . S
C1259 C169 1.239 . S
C1264 C403 1.239 . S
C1275 C416 1.241 . S
C1280 C182 1.241 . S
C1291 C351 1.281 . S
C1296 C273 1.281 . S
C1307 C286 1.272 . S
C1312 C364 1.272 . S
C1323 C299 1.257 . S
C1328 C377 1.257 . S
C1339 C361 1.662 1_554 S
C1344 C10 1.702 . S
C1355 C23 1.671 . S
C1360 C374 1.688 1_554 S
C1371 C387 1.690 1_554 S
C1376 C36 1.669 . S
C1387 C49 1.702 . S
C1392 C166 1.665 . S
C1403 C179 1.701 . S
C1408 C62 1.662 . S
C1419 C192 1.663 . S
C1424 C75 1.702 . S
C1435 C88 1.668 . S
C1440 C283 1.691 1_556 S
C1451 C296 1.666 1_556 S
C1456 C101 1.694 . S
C1467 C114 1.680 . S
C1472 C309 1.678 1_556 S
C1483 C127 1.664 . S
C1488 C400 1.702 . S
C1499 C140 1.701 . S
C1504 C413 1.666 . S
C1515 C426 1.684 . S
C1520 C153 1.675 . S
C1531 C205 1.700 . S
C1536 C322 1.662 . S
C1547 C218 1.664 . S
C1552 C335 1.698 . S
C1563 C231 1.688 . S
C1568 C348 1.671 . S
C1579 C244 1.675 . S
C1584 C439 1.683 . S
C1595 C257 1.685 . S
C1600 C452 1.673 . S
C1611 C465 1.669 . S
C1616 C270 1.700 . S
