# Generated by pormake.
# Topology vbn, (6)-cn, num edge types: 1
# Building blocks:
#     Node 0, Type 0, BuildingBlock: IZENUY_clean_sbu_0, # of connection points: 6
#     Node 1, Type 0, BuildingBlock: IZENUY_clean_sbu_0, # of connection points: 6
#     Node 2, Type 0, BuildingBlock: IZENUY_clean_sbu_0, # of connection points: 6
#     Node 3, Type 0, BuildingBlock: IZENUY_clean_sbu_0, # of connection points: 6
#     Node 4, Type 0, BuildingBlock: IZENUY_clean_sbu_0, # of connection points: 6
#     Node 5, Type 0, BuildingBlock: IZENUY_clean_sbu_0, # of connection points: 6
#     Node 6, Type 0, BuildingBlock: IZENUY_clean_sbu_0, # of connection points: 6
#     Node 7, Type 0, BuildingBlock: IZENUY_clean_sbu_0, # of connection points: 6
#     Edge 8, Type (0, 0), BuildingBlock: EYOCIG_clean_linker_4, # of connection points: 2
#     Edge 9, Type (0, 0), BuildingBlock: EYOCIG_clean_linker_4, # of connection points: 2
#     Edge 10, Type (0, 0), BuildingBlock: EYOCIG_clean_linker_4, # of connection points: 2
#     Edge 11, Type (0, 0), BuildingBlock: EYOCIG_clean_linker_4, # of connection points: 2
#     Edge 12, Type (0, 0), BuildingBlock: EYOCIG_clean_linker_4, # of connection points: 2
#     Edge 13, Type (0, 0), BuildingBlock: EYOCIG_clean_linker_4, # of connection points: 2
#     Edge 14, Type (0, 0), BuildingBlock: EYOCIG_clean_linker_4, # of connection points: 2
#     Edge 15, Type (0, 0), BuildingBlock: EYOCIG_clean_linker_4, # of connection points: 2
#     Edge 16, Type (0, 0), BuildingBlock: EYOCIG_clean_linker_4, # of connection points: 2
#     Edge 17, Type (0, 0), BuildingBlock: EYOCIG_clean_linker_4, # of connection points: 2
#     Edge 18, Type (0, 0), BuildingBlock: EYOCIG_clean_linker_4, # of connection points: 2
#     Edge 19, Type (0, 0), BuildingBlock: EYOCIG_clean_linker_4, # of connection points: 2
#     Edge 20, Type (0, 0), BuildingBlock: EYOCIG_clean_linker_4, # of connection points: 2
#     Edge 21, Type (0, 0), BuildingBlock: EYOCIG_clean_linker_4, # of connection points: 2
#     Edge 22, Type (0, 0), BuildingBlock: EYOCIG_clean_linker_4, # of connection points: 2
#     Edge 23, Type (0, 0), BuildingBlock: EYOCIG_clean_linker_4, # of connection points: 2
#     Edge 24, Type (0, 0), BuildingBlock: EYOCIG_clean_linker_4, # of connection points: 2
#     Edge 25, Type (0, 0), BuildingBlock: EYOCIG_clean_linker_4, # of connection points: 2
#     Edge 26, Type (0, 0), BuildingBlock: EYOCIG_clean_linker_4, # of connection points: 2
#     Edge 27, Type (0, 0), BuildingBlock: EYOCIG_clean_linker_4, # of connection points: 2
#     Edge 28, Type (0, 0), BuildingBlock: EYOCIG_clean_linker_4, # of connection points: 2
#     Edge 29, Type (0, 0), BuildingBlock: EYOCIG_clean_linker_4, # of connection points: 2
#     Edge 30, Type (0, 0), BuildingBlock: EYOCIG_clean_linker_4, # of connection points: 2
#     Edge 31, Type (0, 0), BuildingBlock: EYOCIG_clean_linker_4, # of connection points: 2
# Relax obj value: 0.241
# Max RMSD: 0.242
# Mean RMSD: 0.242
data_MOF--net-vbn--node1-IZENUY_clean_sbu_0--edge1-EYOCIG_clean_linker_4
_symmetry_space_group_name_H-M    P1
_symmetry_Int_Tables_number       1
_symmetry_cell_setting            triclinic
loop_
_symmetry_equiv_pos_as_xyz
'x, y, z'
_cell_length_a     20.193673
_cell_length_b     22.279529
_cell_length_c     36.691716
_cell_angle_alpha  89.994411
_cell_angle_beta   90.000279
_cell_angle_gamma 90.004944
loop_
_atom_site_label
_atom_site_type_symbol
_atom_site_fract_x
_atom_site_fract_y
_atom_site_fract_z
_atom_type_partial_charge
Fe0 Fe 0.45583 0.36936 0.41419 0.0
Fe1 Fe 0.39835 0.28168 0.46983 0.0
O2 O 0.39314 0.31842 0.42732 0.0
Fe3 Fe 0.32504 0.30551 0.39806 0.0
O4 O 0.30118 0.38328 0.4008 0.0
O5 O 0.39964 0.41866 0.38778 0.0
O6 O 0.43782 0.41694 0.45211 0.0
C7 C 0.44454 0.40058 0.48449 0.0
C8 C 0.43662 0.3124 0.3502 0.0
O9 O 0.44067 0.34543 0.49333 0.0
C10 C 0.34508 0.19229 0.42166 0.0
O11 O 0.52294 0.33054 0.43964 0.0
O12 O 0.47574 0.24706 0.45728 0.0
O13 O 0.37427 0.31626 0.3554 0.0
O14 O 0.47689 0.32438 0.37523 0.0
C15 C 0.26739 0.30602 0.46928 0.0
O16 O 0.35637 0.21222 0.4536 0.0
O17 O 0.34417 0.22674 0.39454 0.0
C18 C 0.52699 0.27807 0.453 0.0
O19 O 0.32174 0.31411 0.48502 0.0
O20 O 0.26482 0.29209 0.43567 0.0
C21 C 0.33829 0.42672 0.39346 0.0
Fe22 Fe 0.21249 0.22717 0.89805 0.0
Fe23 Fe 0.0817 0.16334 0.91421 0.0
O24 O 0.14441 0.21427 0.92732 0.0
Fe25 Fe 0.13923 0.25099 0.96983 0.0
O26 O 0.21584 0.21853 0.98501 0.0
O27 O 0.27273 0.24057 0.93565 0.0
O28 O 0.23634 0.14939 0.90079 0.0
C29 C 0.19921 0.10597 0.89345 0.0
C30 C 0.19249 0.34039 0.92166 0.0
O31 O 0.13786 0.11404 0.88779 0.0
C32 C 1.01058 0.25463 0.95302 0.0
O33 O 0.16324 0.21644 0.8554 0.0
O34 O 0.06062 0.20833 0.87525 0.0
O35 O 0.18122 0.32044 0.95359 0.0
O36 O 0.19337 0.30594 0.89453 0.0
C37 C 0.09302 0.13209 0.9845 0.0
O38 O 1.01461 0.20216 0.93966 0.0
O39 O 0.06184 0.28563 0.95729 0.0
C40 C 0.10088 0.22031 0.85021 0.0
O41 O 0.09972 0.11575 0.95212 0.0
O42 O 0.09691 0.18724 0.99334 0.0
C43 C 0.27019 0.22663 0.96926 0.0
Fe44 Fe 0.95583 0.16355 0.62876 0.0
Fe45 Fe 0.89836 0.25122 0.57312 0.0
O46 O 0.89314 0.21449 0.61563 0.0
Fe47 Fe 0.82505 0.22739 0.64489 0.0
O48 O 0.80117 0.14962 0.64215 0.0
O49 O 0.89963 0.11424 0.65517 0.0
O50 O 0.93782 0.11597 0.59084 0.0
C51 C 0.94455 0.13233 0.55846 0.0
C52 C 0.93662 0.22048 0.69276 0.0
O53 O 0.94068 0.18748 0.54962 0.0
C54 C 0.8451 0.34061 0.62129 0.0
O55 O 0.02294 0.20238 0.60332 0.0
O56 O 0.97575 0.28586 0.58568 0.0
O57 O 0.87427 0.21663 0.68755 0.0
O58 O 0.97689 0.20853 0.66772 0.0
C59 C 0.76739 0.22688 0.57367 0.0
O60 O 0.85638 0.32068 0.58936 0.0
O61 O 0.84419 0.30615 0.64842 0.0
C62 C 0.027 0.25485 0.58996 0.0
O63 O 0.82175 0.21879 0.55793 0.0
O64 O 0.76483 0.24081 0.60728 0.0
C65 C 0.83829 0.10619 0.6495 0.0
Fe66 Fe 0.5817 0.36909 0.12875 0.0
Fe67 Fe 0.63922 0.28145 0.07312 0.0
O68 O 0.64441 0.31817 0.11563 0.0
Fe69 Fe 0.71249 0.30527 0.1449 0.0
O70 O 0.73635 0.38305 0.14216 0.0
O71 O 0.63787 0.4184 0.15516 0.0
O72 O 0.59973 0.41669 0.09083 0.0
C73 C 0.59302 0.40034 0.05845 0.0
C74 C 0.60089 0.31216 0.19275 0.0
O75 O 0.59691 0.34519 0.04961 0.0
C76 C 0.69248 0.19205 0.1213 0.0
O77 O 0.51461 0.33026 0.10329 0.0
O78 O 0.56184 0.2468 0.08566 0.0
O79 O 0.66324 0.31601 0.18755 0.0
O80 O 0.56063 0.3241 0.16771 0.0
C81 C 0.77018 0.30581 0.0737 0.0
O82 O 0.68121 0.212 0.08936 0.0
O83 O 0.69336 0.2265 0.14843 0.0
C84 C 0.51058 0.2778 0.08994 0.0
O85 O 0.71584 0.31391 0.05795 0.0
O86 O 0.77273 0.29187 0.10731 0.0
C87 C 0.69922 0.42647 0.1495 0.0
Fe88 Fe 0.58146 0.66356 0.62875 0.0
Fe89 Fe 0.63884 0.7513 0.57313 0.0
O90 O 0.64413 0.71451 0.61561 0.0
Fe91 Fe 0.71229 0.72737 0.64483 0.0
O92 O 0.73613 0.6496 0.64205 0.0
O93 O 0.63768 0.61422 0.65511 0.0
O94 O 0.59939 0.61603 0.5908 0.0
C95 C 0.59258 0.63244 0.55844 0.0
C96 C 0.60081 0.72045 0.69276 0.0
O97 O 0.59644 0.6876 0.54962 0.0
C98 C 0.69223 0.84063 0.6213 0.0
O99 O 0.51431 0.70243 0.60337 0.0
O100 O 0.56149 0.78593 0.58576 0.0
O101 O 0.66315 0.71659 0.68752 0.0
O102 O 0.56048 0.7085 0.66774 0.0
C103 C 0.76979 0.72691 0.57359 0.0
O104 O 0.68088 0.82073 0.58936 0.0
O105 O 0.69319 0.80614 0.64841 0.0
C106 C 0.51024 0.75492 0.59005 0.0
O107 O 0.7154 0.71888 0.55787 0.0
O108 O 0.77243 0.74081 0.6072 0.0
C109 C 0.69902 0.60616 0.64941 0.0
Fe110 Fe 0.95609 0.86907 0.12875 0.0
Fe111 Fe 0.89868 0.78136 0.07313 0.0
O112 O 0.8934 0.81815 0.11561 0.0
Fe113 Fe 0.82525 0.80529 0.14484 0.0
O114 O 0.80142 0.88307 0.14206 0.0
O115 O 0.89989 0.91843 0.15511 0.0
O116 O 0.93816 0.91662 0.09079 0.0
C117 C 0.94496 0.90022 0.05843 0.0
C118 C 0.93674 0.81219 0.19275 0.0
O119 O 0.94108 0.84506 0.04961 0.0
C120 C 0.84528 0.69204 0.1213 0.0
O121 O 0.02323 0.83021 0.10336 0.0
O122 O 0.97602 0.74671 0.08575 0.0
O123 O 0.8744 0.81606 0.18751 0.0
O124 O 0.97707 0.82413 0.16774 0.0
C125 C 0.76773 0.80578 0.07359 0.0
O126 O 0.85662 0.71194 0.08936 0.0
O127 O 0.84433 0.72652 0.14841 0.0
C128 C 0.02728 0.77772 0.09004 0.0
O129 O 0.82211 0.81381 0.05787 0.0
O130 O 0.76509 0.79187 0.1072 0.0
C131 C 0.83855 0.92649 0.14941 0.0
Fe132 Fe 0.08147 0.8693 0.41421 0.0
Fe133 Fe 0.13885 0.7816 0.46986 0.0
O134 O 0.14415 0.81837 0.42737 0.0
Fe135 Fe 0.21231 0.8055 0.39815 0.0
O136 O 0.23615 0.88328 0.40091 0.0
O137 O 0.1377 0.91863 0.38784 0.0
O138 O 0.0994 0.91686 0.45215 0.0
C139 C 0.09259 0.90048 0.48452 0.0
C140 C 0.10082 0.81236 0.35022 0.0
O141 O 0.09646 0.84532 0.49335 0.0
C142 C 0.19225 0.69225 0.42171 0.0
O143 O 1.01432 0.83045 0.4396 0.0
O144 O 0.0615 0.74696 0.45724 0.0
O145 O 0.16317 0.81625 0.35546 0.0
O146 O 0.0605 0.82433 0.37523 0.0
C147 C 0.2698 0.80601 0.4694 0.0
O148 O 0.18089 0.71216 0.45364 0.0
O149 O 0.19321 0.72673 0.3946 0.0
C150 C 1.01025 0.77796 0.45294 0.0
O151 O 0.21542 0.81405 0.48511 0.0
O152 O 0.27245 0.79209 0.43579 0.0
C153 C 0.19904 0.9267 0.39354 0.0
Fe154 Fe 0.39867 0.75107 0.96986 0.0
Fe155 Fe 0.32523 0.72718 0.89814 0.0
O156 O 0.39339 0.71432 0.92737 0.0
Fe157 Fe 0.45607 0.6634 0.91422 0.0
O158 O 0.43815 0.61583 0.95216 0.0
O159 O 0.44107 0.68736 0.99336 0.0
O160 O 0.3221 0.71861 0.98511 0.0
C161 C 0.26772 0.72664 0.96939 0.0
C162 C 0.52726 0.75474 0.95295 0.0
O163 O 0.26508 0.74057 0.93578 0.0
C164 C 0.43672 0.72034 0.85023 0.0
O165 O 0.35661 0.82051 0.95364 0.0
O166 O 0.34431 0.80595 0.89459 0.0
O167 O 0.52321 0.70226 0.93961 0.0
O168 O 0.47601 0.78574 0.95725 0.0
C169 C 0.33853 0.60598 0.89354 0.0
O170 O 0.37438 0.71645 0.85546 0.0
O171 O 0.47705 0.70838 0.87524 0.0
C172 C 0.34526 0.84042 0.9217 0.0
O173 O 0.30141 0.6494 0.90091 0.0
O174 O 0.39987 0.61406 0.88785 0.0
C175 C 0.44495 0.63221 0.98453 0.0
C176 C 0.25603 0.03275 0.40078 0.0
C177 C 0.22614 0.98621 0.39677 0.0
C178 C 0.291 0.08611 0.4093 0.0
C179 C 0.31614 0.13377 0.41682 0.0
C180 C 0.24659 0.44656 0.90929 0.0
C181 C 0.22144 0.3989 0.91681 0.0
C182 C 0.28155 0.49992 0.90078 0.0
C183 C 0.31144 0.54646 0.89676 0.0
C184 C 0.75603 0.50012 0.64217 0.0
C185 C 0.72613 0.54666 0.64618 0.0
C186 C 0.791 0.44677 0.63365 0.0
C187 C 0.81615 0.39912 0.62614 0.0
C188 C 0.74659 0.0859 0.13367 0.0
C189 C 0.72144 0.13355 0.12615 0.0
C190 C 0.78156 0.03254 0.14217 0.0
C191 C 0.81145 0.98601 0.14619 0.0
C192 C 0.78128 1.00014 0.64223 0.0
C193 C 0.81118 0.04668 0.64625 0.0
C194 C 0.74631 0.94679 0.63369 0.0
C195 C 0.72117 0.89914 0.62616 0.0
C196 C 0.79118 0.58588 0.1337 0.0
C197 C 0.81633 0.63353 0.12616 0.0
C198 C 0.75621 0.53253 0.14223 0.0
C199 C 0.72632 0.48599 0.14626 0.0
C200 C 0.28131 0.53276 0.40077 0.0
C201 C 0.3112 0.48623 0.39673 0.0
C202 C 0.24634 0.5861 0.40932 0.0
C203 C 0.22119 0.63374 0.41686 0.0
C204 C 0.25618 0.99992 0.90076 0.0
C205 C 0.22629 0.04645 0.89672 0.0
C206 C 0.29115 0.94657 0.90931 0.0
C207 C 0.31631 0.89893 0.91685 0.0
C208 C 0.50215 0.48922 0.51782 0.0
C209 C 0.47588 0.44375 0.50752 0.0
C210 C 0.53483 0.54387 0.52512 0.0
C211 C 0.56114 0.58931 0.53541 0.0
C212 C 1.00273 0.98879 0.02512 0.0
C213 C 0.9764 0.94335 0.0354 0.0
C214 C 0.03542 0.04345 1.01782 0.0
C215 C 0.06168 0.08892 1.00754 0.0
C216 C 1.00217 0.04371 0.52513 0.0
C217 C 0.9759 0.08916 0.53543 0.0
C218 C 0.03485 0.98906 0.51783 0.0
C219 C 0.06116 0.94362 0.50753 0.0
C220 C 0.50271 0.54362 1.01783 0.0
C221 C 0.47639 0.58906 1.00754 0.0
C222 C 0.5354 0.48897 0.02513 0.0
C223 C 0.56167 0.44351 0.03542 0.0
C224 C 0.54008 0.29929 0.25607 0.0
C225 C 0.57333 0.30431 0.22874 0.0
C226 C 0.4974 0.29935 0.2869 0.0
C227 C 0.46417 0.30445 0.31422 0.0
C228 C 0.04008 0.23333 0.78691 0.0
C229 C 0.07332 0.22824 0.81423 0.0
C230 C 0.9974 0.23337 0.75607 0.0
C231 C 0.96417 0.22834 0.72875 0.0
C232 C 0.49743 0.73337 0.78691 0.0
C233 C 0.46421 0.72827 0.81423 0.0
C234 C 0.54011 0.73339 0.75608 0.0
C235 C 0.57333 0.72834 0.72875 0.0
C236 C 0.99745 0.79927 0.25608 0.0
C237 C 0.96423 0.80431 0.22875 0.0
C238 C 0.04013 0.79931 0.28691 0.0
C239 C 0.07334 0.80442 0.31423 0.0
C240 C 0.62407 0.25009 0.4982 0.0
C241 C 0.58119 0.26483 0.47709 0.0
C242 C 0.66942 0.23855 0.52677 0.0
C243 C 0.71066 0.23401 0.55044 0.0
C244 C 0.91352 0.28261 0.99823 0.0
C245 C 0.95639 0.26787 0.97712 0.0
C246 C 0.86817 0.29415 0.0268 0.0
C247 C 0.82693 0.29869 0.05047 0.0
C248 C 0.12407 0.28283 0.54476 0.0
C249 C 0.08119 0.26809 0.56587 0.0
C250 C 0.16942 0.29437 0.51619 0.0
C251 C 0.21066 0.2989 0.49251 0.0
C252 C 0.41352 0.24981 0.04473 0.0
C253 C 0.45639 0.26455 0.06584 0.0
C254 C 0.36818 0.23827 1.01615 0.0
C255 C 0.32693 0.23374 0.99248 0.0
C256 C 0.41311 0.78293 0.5449 0.0
C257 C 0.45602 0.76818 0.56598 0.0
C258 C 0.36774 0.79444 0.51634 0.0
C259 C 0.32651 0.79894 0.49266 0.0
C260 C 0.1244 0.7497 0.04488 0.0
C261 C 0.08149 0.76445 0.06597 0.0
C262 C 0.16977 0.73819 1.01632 0.0
C263 C 0.21101 0.7337 0.99264 0.0
C264 C 0.91311 0.74997 0.49809 0.0
C265 C 0.95603 0.76471 0.477 0.0
C266 C 0.86774 0.73847 0.52665 0.0
C267 C 0.8265 0.73397 0.55033 0.0
C268 C 0.66977 0.79424 0.02666 0.0
C269 C 0.71101 0.79873 0.05034 0.0
C270 C 0.6244 0.78274 0.9981 0.0
C271 C 0.58148 0.768 0.97702 0.0
loop_
_geom_bond_atom_site_label_1
_geom_bond_atom_site_label_2
_geom_bond_distance
_geom_bond_site_symmetry_2
_ccdc_geom_bond_type
Fe0 O2 1.918 . S
Fe0 O5 1.997 . S
Fe0 O6 2.002 . S
Fe0 O11 1.976 . S
Fe0 O14 1.996 . S
Fe1 O2 1.918 . S
Fe1 O9 1.997 . S
Fe1 O12 1.996 . S
Fe1 O16 1.976 . S
Fe1 O19 2.002 . S
O2 Fe0 1.918 . S
O2 Fe1 1.918 . S
O2 Fe3 1.918 . S
Fe3 O2 1.918 . S
Fe3 O4 2.002 . S
Fe3 O13 1.976 . S
Fe3 O17 1.996 . S
Fe3 O20 1.997 . S
O4 Fe3 2.002 . S
O4 C21 1.295 . S
O5 Fe0 1.997 . S
O5 C21 1.235 . S
O6 Fe0 2.002 . S
O6 C7 1.295 . S
C7 O6 1.295 . S
C7 O9 1.235 . S
C8 O13 1.287 . S
C8 O14 1.255 . S
O9 Fe1 1.997 . S
O9 C7 1.235 . S
C10 O16 1.287 . S
C10 O17 1.255 . S
O11 Fe0 1.976 . S
O11 C18 1.287 . S
O12 Fe1 1.996 . S
O12 C18 1.255 . S
O13 Fe3 1.976 . S
O13 C8 1.287 . S
O14 Fe0 1.996 . S
O14 C8 1.255 . S
C15 O19 1.295 . S
C15 O20 1.235 . S
O16 Fe1 1.976 . S
O16 C10 1.287 . S
O17 Fe3 1.996 . S
O17 C10 1.255 . S
C18 O11 1.287 . S
C18 O12 1.255 . S
O19 Fe1 2.002 . S
O19 C15 1.295 . S
O20 Fe3 1.997 . S
O20 C15 1.235 . S
C21 O4 1.295 . S
C21 O5 1.235 . S
Fe22 O24 1.918 . S
Fe22 O27 1.997 . S
Fe22 O28 2.002 . S
Fe22 O33 1.976 . S
Fe22 O36 1.996 . S
Fe23 O24 1.918 . S
Fe23 O31 1.997 . S
Fe23 O34 1.996 . S
Fe23 O38 1.976 1_455 S
Fe23 O41 2.002 . S
O24 Fe22 1.918 . S
O24 Fe23 1.918 . S
O24 Fe25 1.918 . S
Fe25 O24 1.918 . S
Fe25 O26 2.002 . S
Fe25 O35 1.976 . S
Fe25 O39 1.996 . S
Fe25 O42 1.997 . S
O26 Fe25 2.002 . S
O26 C43 1.295 . S
O27 Fe22 1.997 . S
O27 C43 1.235 . S
O28 Fe22 2.002 . S
O28 C29 1.295 . S
C29 O28 1.295 . S
C29 O31 1.235 . S
C30 O35 1.287 . S
C30 O36 1.255 . S
O31 Fe23 1.997 . S
O31 C29 1.235 . S
C32 O38 1.287 . S
C32 O39 1.255 1_655 S
O33 Fe22 1.976 . S
O33 C40 1.287 . S
O34 Fe23 1.996 . S
O34 C40 1.255 . S
O35 Fe25 1.976 . S
O35 C30 1.287 . S
O36 Fe22 1.996 . S
O36 C30 1.255 . S
C37 O41 1.295 . S
C37 O42 1.235 . S
O38 Fe23 1.976 1_655 S
O38 C32 1.287 . S
O39 Fe25 1.996 . S
O39 C32 1.255 1_455 S
C40 O33 1.287 . S
C40 O34 1.255 . S
O41 Fe23 2.002 . S
O41 C37 1.295 . S
O42 Fe25 1.997 . S
O42 C37 1.235 . S
C43 O26 1.295 . S
C43 O27 1.235 . S
Fe44 O46 1.918 . S
Fe44 O49 1.997 . S
Fe44 O50 2.002 . S
Fe44 O55 1.976 1_655 S
Fe44 O58 1.996 . S
Fe45 O46 1.918 . S
Fe45 O53 1.997 . S
Fe45 O56 1.996 . S
Fe45 O60 1.976 . S
Fe45 O63 2.002 . S
O46 Fe44 1.918 . S
O46 Fe45 1.918 . S
O46 Fe47 1.918 . S
Fe47 O46 1.918 . S
Fe47 O48 2.002 . S
Fe47 O57 1.976 . S
Fe47 O61 1.996 . S
Fe47 O64 1.997 . S
O48 Fe47 2.002 . S
O48 C65 1.295 . S
O49 Fe44 1.997 . S
O49 C65 1.235 . S
O50 Fe44 2.002 . S
O50 C51 1.295 . S
C51 O50 1.295 . S
C51 O53 1.235 . S
C52 O57 1.287 . S
C52 O58 1.255 . S
O53 Fe45 1.997 . S
O53 C51 1.235 . S
C54 O60 1.287 . S
C54 O61 1.255 . S
O55 Fe44 1.976 1_455 S
O55 C62 1.287 . S
O56 Fe45 1.996 . S
O56 C62 1.255 1_655 S
O57 Fe47 1.976 . S
O57 C52 1.287 . S
O58 Fe44 1.996 . S
O58 C52 1.255 . S
C59 O63 1.295 . S
C59 O64 1.235 . S
O60 Fe45 1.976 . S
O60 C54 1.287 . S
O61 Fe47 1.996 . S
O61 C54 1.255 . S
C62 O55 1.287 . S
C62 O56 1.255 1_455 S
O63 Fe45 2.002 . S
O63 C59 1.295 . S
O64 Fe47 1.997 . S
O64 C59 1.235 . S
C65 O48 1.295 . S
C65 O49 1.235 . S
Fe66 O68 1.918 . S
Fe66 O71 1.997 . S
Fe66 O72 2.002 . S
Fe66 O77 1.976 . S
Fe66 O80 1.996 . S
Fe67 O68 1.918 . S
Fe67 O75 1.997 . S
Fe67 O78 1.996 . S
Fe67 O82 1.976 . S
Fe67 O85 2.002 . S
O68 Fe66 1.918 . S
O68 Fe67 1.918 . S
O68 Fe69 1.918 . S
Fe69 O68 1.918 . S
Fe69 O70 2.002 . S
Fe69 O79 1.976 . S
Fe69 O83 1.996 . S
Fe69 O86 1.997 . S
O70 Fe69 2.002 . S
O70 C87 1.295 . S
O71 Fe66 1.997 . S
O71 C87 1.235 . S
O72 Fe66 2.002 . S
O72 C73 1.295 . S
C73 O72 1.295 . S
C73 O75 1.235 . S
C74 O79 1.287 . S
C74 O80 1.255 . S
O75 Fe67 1.997 . S
O75 C73 1.235 . S
C76 O82 1.287 . S
C76 O83 1.255 . S
O77 Fe66 1.976 . S
O77 C84 1.287 . S
O78 Fe67 1.996 . S
O78 C84 1.255 . S
O79 Fe69 1.976 . S
O79 C74 1.287 . S
O80 Fe66 1.996 . S
O80 C74 1.255 . S
C81 O85 1.295 . S
C81 O86 1.235 . S
O82 Fe67 1.976 . S
O82 C76 1.287 . S
O83 Fe69 1.996 . S
O83 C76 1.255 . S
C84 O77 1.287 . S
C84 O78 1.255 . S
O85 Fe67 2.002 . S
O85 C81 1.295 . S
O86 Fe69 1.997 . S
O86 C81 1.235 . S
C87 O70 1.295 . S
C87 O71 1.235 . S
Fe88 O90 1.918 . S
Fe88 O93 1.997 . S
Fe88 O94 2.002 . S
Fe88 O99 1.976 . S
Fe88 O102 1.996 . S
Fe89 O90 1.918 . S
Fe89 O97 1.997 . S
Fe89 O100 1.996 . S
Fe89 O104 1.976 . S
Fe89 O107 2.002 . S
O90 Fe88 1.918 . S
O90 Fe89 1.918 . S
O90 Fe91 1.918 . S
Fe91 O90 1.918 . S
Fe91 O92 2.002 . S
Fe91 O101 1.976 . S
Fe91 O105 1.996 . S
Fe91 O108 1.997 . S
O92 Fe91 2.002 . S
O92 C109 1.295 . S
O93 Fe88 1.997 . S
O93 C109 1.235 . S
O94 Fe88 2.002 . S
O94 C95 1.295 . S
C95 O94 1.295 . S
C95 O97 1.235 . S
C96 O101 1.287 . S
C96 O102 1.255 . S
O97 Fe89 1.997 . S
O97 C95 1.235 . S
C98 O104 1.287 . S
C98 O105 1.255 . S
O99 Fe88 1.976 . S
O99 C106 1.287 . S
O100 Fe89 1.996 . S
O100 C106 1.255 . S
O101 Fe91 1.976 . S
O101 C96 1.287 . S
O102 Fe88 1.996 . S
O102 C96 1.255 . S
C103 O107 1.295 . S
C103 O108 1.235 . S
O104 Fe89 1.976 . S
O104 C98 1.287 . S
O105 Fe91 1.996 . S
O105 C98 1.255 . S
C106 O99 1.287 . S
C106 O100 1.255 . S
O107 Fe89 2.002 . S
O107 C103 1.295 . S
O108 Fe91 1.997 . S
O108 C103 1.235 . S
C109 O92 1.295 . S
C109 O93 1.235 . S
Fe110 O112 1.918 . S
Fe110 O115 1.997 . S
Fe110 O116 2.002 . S
Fe110 O121 1.976 1_655 S
Fe110 O124 1.996 . S
Fe111 O112 1.918 . S
Fe111 O119 1.997 . S
Fe111 O122 1.996 . S
Fe111 O126 1.976 . S
Fe111 O129 2.002 . S
O112 Fe110 1.918 . S
O112 Fe111 1.918 . S
O112 Fe113 1.918 . S
Fe113 O112 1.918 . S
Fe113 O114 2.002 . S
Fe113 O123 1.976 . S
Fe113 O127 1.996 . S
Fe113 O130 1.997 . S
O114 Fe113 2.002 . S
O114 C131 1.295 . S
O115 Fe110 1.997 . S
O115 C131 1.235 . S
O116 Fe110 2.002 . S
O116 C117 1.295 . S
C117 O116 1.295 . S
C117 O119 1.235 . S
C118 O123 1.287 . S
C118 O124 1.255 . S
O119 Fe111 1.997 . S
O119 C117 1.235 . S
C120 O126 1.287 . S
C120 O127 1.255 . S
O121 Fe110 1.976 1_455 S
O121 C128 1.287 . S
O122 Fe111 1.996 . S
O122 C128 1.255 1_655 S
O123 Fe113 1.976 . S
O123 C118 1.287 . S
O124 Fe110 1.996 . S
O124 C118 1.255 . S
C125 O129 1.295 . S
C125 O130 1.235 . S
O126 Fe111 1.976 . S
O126 C120 1.287 . S
O127 Fe113 1.996 . S
O127 C120 1.255 . S
C128 O121 1.287 . S
C128 O122 1.255 1_455 S
O129 Fe111 2.002 . S
O129 C125 1.295 . S
O130 Fe113 1.997 . S
O130 C125 1.235 . S
C131 O114 1.295 . S
C131 O115 1.235 . S
Fe132 O134 1.918 . S
Fe132 O137 1.997 . S
Fe132 O138 2.002 . S
Fe132 O143 1.976 1_455 S
Fe132 O146 1.996 . S
Fe133 O134 1.918 . S
Fe133 O141 1.997 . S
Fe133 O144 1.996 . S
Fe133 O148 1.976 . S
Fe133 O151 2.002 . S
O134 Fe132 1.918 . S
O134 Fe133 1.918 . S
O134 Fe135 1.918 . S
Fe135 O134 1.918 . S
Fe135 O136 2.002 . S
Fe135 O145 1.976 . S
Fe135 O149 1.996 . S
Fe135 O152 1.997 . S
O136 Fe135 2.002 . S
O136 C153 1.295 . S
O137 Fe132 1.997 . S
O137 C153 1.235 . S
O138 Fe132 2.002 . S
O138 C139 1.295 . S
C139 O138 1.295 . S
C139 O141 1.235 . S
C140 O145 1.287 . S
C140 O146 1.255 . S
O141 Fe133 1.997 . S
O141 C139 1.235 . S
C142 O148 1.287 . S
C142 O149 1.255 . S
O143 Fe132 1.976 1_655 S
O143 C150 1.287 . S
O144 Fe133 1.996 . S
O144 C150 1.255 1_455 S
O145 Fe135 1.976 . S
O145 C140 1.287 . S
O146 Fe132 1.996 . S
O146 C140 1.255 . S
C147 O151 1.295 . S
C147 O152 1.235 . S
O148 Fe133 1.976 . S
O148 C142 1.287 . S
O149 Fe135 1.996 . S
O149 C142 1.255 . S
C150 O143 1.287 . S
C150 O144 1.255 1_655 S
O151 Fe133 2.002 . S
O151 C147 1.295 . S
O152 Fe135 1.997 . S
O152 C147 1.235 . S
C153 O136 1.295 . S
C153 O137 1.235 . S
Fe154 O156 1.918 . S
Fe154 O159 1.997 . S
Fe154 O160 2.002 . S
Fe154 O165 1.976 . S
Fe154 O168 1.996 . S
Fe155 O156 1.918 . S
Fe155 O163 1.997 . S
Fe155 O166 1.996 . S
Fe155 O170 1.976 . S
Fe155 O173 2.002 . S
O156 Fe154 1.918 . S
O156 Fe155 1.918 . S
O156 Fe157 1.918 . S
Fe157 O156 1.918 . S
Fe157 O158 2.002 . S
Fe157 O167 1.976 . S
Fe157 O171 1.996 . S
Fe157 O174 1.997 . S
O158 Fe157 2.002 . S
O158 C175 1.295 . S
O159 Fe154 1.997 . S
O159 C175 1.235 . S
O160 Fe154 2.002 . S
O160 C161 1.295 . S
C161 O160 1.295 . S
C161 O163 1.235 . S
C162 O167 1.287 . S
C162 O168 1.255 . S
O163 Fe155 1.997 . S
O163 C161 1.235 . S
C164 O170 1.287 . S
C164 O171 1.255 . S
O165 Fe154 1.976 . S
O165 C172 1.287 . S
O166 Fe155 1.996 . S
O166 C172 1.255 . S
O167 Fe157 1.976 . S
O167 C162 1.287 . S
O168 Fe154 1.996 . S
O168 C162 1.255 . S
C169 O173 1.295 . S
C169 O174 1.235 . S
O170 Fe155 1.976 . S
O170 C164 1.287 . S
O171 Fe157 1.996 . S
O171 C164 1.255 . S
C172 O165 1.287 . S
C172 O166 1.255 . S
O173 Fe155 2.002 . S
O173 C169 1.295 . S
O174 Fe157 1.997 . S
O174 C169 1.235 . S
C175 O158 1.295 . S
C175 O159 1.235 . S
C176 C177 1.170 1_545 S
C176 C178 1.380 . S
C177 C176 1.170 1_565 S
C178 C176 1.380 . S
C178 C179 1.170 . S
C179 C178 1.170 . S
C180 C181 1.170 . S
C180 C182 1.380 . S
C181 C180 1.170 . S
C182 C180 1.380 . S
C182 C183 1.170 . S
C183 C182 1.170 . S
C184 C185 1.170 . S
C184 C186 1.380 . S
C185 C184 1.170 . S
C186 C184 1.380 . S
C186 C187 1.170 . S
C187 C186 1.170 . S
C188 C189 1.170 . S
C188 C190 1.380 . S
C189 C188 1.170 . S
C190 C188 1.380 . S
C190 C191 1.170 1_545 S
C191 C190 1.170 1_565 S
C192 C193 1.170 1_565 S
C192 C194 1.380 . S
C193 C192 1.170 1_545 S
C194 C192 1.380 . S
C194 C195 1.170 . S
C195 C194 1.170 . S
C196 C197 1.170 . S
C196 C198 1.380 . S
C197 C196 1.170 . S
C198 C196 1.380 . S
C198 C199 1.170 . S
C199 C198 1.170 . S
C200 C201 1.170 . S
C200 C202 1.380 . S
C201 C200 1.170 . S
C202 C200 1.380 . S
C202 C203 1.170 . S
C203 C202 1.170 . S
C204 C205 1.170 1_565 S
C204 C206 1.380 . S
C205 C204 1.170 1_545 S
C206 C204 1.380 . S
C206 C207 1.170 . S
C207 C206 1.170 . S
C208 C209 1.170 . S
C208 C210 1.380 . S
C209 C208 1.170 . S
C210 C208 1.380 . S
C210 C211 1.170 . S
C211 C210 1.170 . S
C212 C213 1.170 . S
C212 C214 1.380 1_664 S
C213 C212 1.170 . S
C214 C212 1.380 1_446 S
C214 C215 1.170 . S
C215 C214 1.170 . S
C216 C217 1.170 . S
C216 C218 1.380 1_645 S
C217 C216 1.170 . S
C218 C216 1.380 1_465 S
C218 C219 1.170 . S
C219 C218 1.170 . S
C220 C221 1.170 1_554 S
C220 C222 1.381 . S
C221 C220 1.170 1_556 S
C222 C220 1.381 . S
C222 C223 1.170 . S
C223 C222 1.170 . S
C224 C225 1.170 . S
C224 C226 1.380 . S
C225 C224 1.170 . S
C226 C224 1.380 . S
C226 C227 1.170 . S
C227 C226 1.170 . S
C228 C229 1.170 . S
C228 C230 1.380 1_455 S
C229 C228 1.170 . S
C230 C228 1.380 1_655 S
C230 C231 1.170 . S
C231 C230 1.170 . S
C232 C233 1.170 . S
C232 C234 1.380 . S
C233 C232 1.170 . S
C234 C232 1.380 . S
C234 C235 1.170 . S
C235 C234 1.170 . S
C236 C237 1.170 . S
C236 C238 1.380 1_655 S
C237 C236 1.170 . S
C238 C236 1.380 1_455 S
C238 C239 1.170 . S
C239 C238 1.170 . S
C240 C241 1.170 . S
C240 C242 1.380 . S
C241 C240 1.170 . S
C242 C240 1.380 . S
C242 C243 1.170 . S
C243 C242 1.170 . S
C244 C245 1.170 . S
C244 C246 1.390 . S
C245 C244 1.170 . S
C246 C244 1.390 . S
C246 C247 1.160 1_556 S
C247 C246 1.160 1_554 S
C248 C249 1.170 . S
C248 C250 1.380 . S
C249 C248 1.170 . S
C250 C248 1.380 . S
C250 C251 1.170 . S
C251 C250 1.170 . S
C252 C253 1.170 . S
C252 C254 1.375 1_554 S
C253 C252 1.170 . S
C254 C252 1.375 1_556 S
C254 C255 1.176 . S
C255 C254 1.176 . S
C256 C257 1.170 . S
C256 C258 1.380 . S
C257 C256 1.170 . S
C258 C256 1.380 . S
C258 C259 1.170 . S
C259 C258 1.170 . S
C260 C261 1.170 . S
C260 C262 1.380 . S
C261 C260 1.170 . S
C262 C260 1.380 . S
C262 C263 1.170 1_554 S
C263 C262 1.170 1_556 S
C264 C265 1.170 . S
C264 C266 1.380 . S
C265 C264 1.170 . S
C266 C264 1.380 . S
C266 C267 1.170 . S
C267 C266 1.170 . S
C268 C269 1.170 1_556 S
C268 C270 1.380 . S
C269 C268 1.170 1_554 S
C270 C268 1.380 . S
C270 C271 1.170 . S
C271 C270 1.170 . S
C177 C153 1.606 . S
C179 C10 1.581 . S
C181 C30 1.581 . S
C183 C169 1.618 . S
C185 C109 1.612 . S
C187 C54 1.579 . S
C189 C76 1.599 . S
C191 C131 1.625 . S
C193 C65 1.624 . S
C195 C98 1.580 . S
C197 C120 1.588 . S
C199 C87 1.615 . S
C201 C21 1.599 . S
C203 C142 1.612 . S
C205 C29 1.617 . S
C207 C172 1.585 . S
C209 C7 1.169 . S
C211 C95 1.204 . S
C213 C117 1.166 . S
C215 C37 1.206 . S
C217 C51 1.145 . S
C219 C139 1.198 . S
C221 C175 1.211 . S
C223 C73 1.157 . S
C225 C74 1.565 . S
C227 C8 1.549 . S
C229 C40 1.563 . S
C231 C52 1.565 . S
C233 C164 1.551 . S
C235 C96 1.559 . S
C237 C118 1.547 . S
C239 C140 1.564 . S
C241 C18 1.505 . S
C243 C59 1.548 . S
C245 C32 1.521 . S
C247 C81 1.583 . S
C249 C62 1.527 . S
C251 C15 1.583 . S
C253 C84 1.511 . S
C255 C43 1.581 . S
C257 C106 1.544 . S
C259 C147 1.546 . S
C261 C128 1.543 . S
C263 C161 1.554 . S
C265 C150 1.545 . S
C267 C103 1.549 . S
C269 C125 1.549 . S
C271 C162 1.532 . S
