# Generated by pormake.
# Topology kfi, (4)-cn, num edge types: 1
# Building blocks:
#     Node 0, Type 0, BuildingBlock: CEKHIL_clean_sbu_0, # of connection points: 4
#     Node 1, Type 0, BuildingBlock: CEKHIL_clean_sbu_0, # of connection points: 4
#     Node 2, Type 0, BuildingBlock: CEKHIL_clean_sbu_0, # of connection points: 4
#     Node 3, Type 0, BuildingBlock: CEKHIL_clean_sbu_0, # of connection points: 4
#     Node 4, Type 0, BuildingBlock: CEKHIL_clean_sbu_0, # of connection points: 4
#     Node 5, Type 0, BuildingBlock: CEKHIL_clean_sbu_0, # of connection points: 4
#     Node 6, Type 0, BuildingBlock: CEKHIL_clean_sbu_0, # of connection points: 4
#     Node 7, Type 0, BuildingBlock: CEKHIL_clean_sbu_0, # of connection points: 4
#     Node 8, Type 0, BuildingBlock: CEKHIL_clean_sbu_0, # of connection points: 4
#     Node 9, Type 0, BuildingBlock: CEKHIL_clean_sbu_0, # of connection points: 4
#     Node 10, Type 0, BuildingBlock: CEKHIL_clean_sbu_0, # of connection points: 4
#     Node 11, Type 0, BuildingBlock: CEKHIL_clean_sbu_0, # of connection points: 4
#     Node 12, Type 0, BuildingBlock: CEKHIL_clean_sbu_0, # of connection points: 4
#     Node 13, Type 0, BuildingBlock: CEKHIL_clean_sbu_0, # of connection points: 4
#     Node 14, Type 0, BuildingBlock: CEKHIL_clean_sbu_0, # of connection points: 4
#     Node 15, Type 0, BuildingBlock: CEKHIL_clean_sbu_0, # of connection points: 4
#     Node 16, Type 0, BuildingBlock: CEKHIL_clean_sbu_0, # of connection points: 4
#     Node 17, Type 0, BuildingBlock: CEKHIL_clean_sbu_0, # of connection points: 4
#     Node 18, Type 0, BuildingBlock: CEKHIL_clean_sbu_0, # of connection points: 4
#     Node 19, Type 0, BuildingBlock: CEKHIL_clean_sbu_0, # of connection points: 4
#     Node 20, Type 0, BuildingBlock: CEKHIL_clean_sbu_0, # of connection points: 4
#     Node 21, Type 0, BuildingBlock: CEKHIL_clean_sbu_0, # of connection points: 4
#     Node 22, Type 0, BuildingBlock: CEKHIL_clean_sbu_0, # of connection points: 4
#     Node 23, Type 0, BuildingBlock: CEKHIL_clean_sbu_0, # of connection points: 4
#     Node 24, Type 0, BuildingBlock: CEKHIL_clean_sbu_0, # of connection points: 4
#     Node 25, Type 0, BuildingBlock: CEKHIL_clean_sbu_0, # of connection points: 4
#     Node 26, Type 0, BuildingBlock: CEKHIL_clean_sbu_0, # of connection points: 4
#     Node 27, Type 0, BuildingBlock: CEKHIL_clean_sbu_0, # of connection points: 4
#     Node 28, Type 0, BuildingBlock: CEKHIL_clean_sbu_0, # of connection points: 4
#     Node 29, Type 0, BuildingBlock: CEKHIL_clean_sbu_0, # of connection points: 4
#     Node 30, Type 0, BuildingBlock: CEKHIL_clean_sbu_0, # of connection points: 4
#     Node 31, Type 0, BuildingBlock: CEKHIL_clean_sbu_0, # of connection points: 4
#     Node 32, Type 0, BuildingBlock: CEKHIL_clean_sbu_0, # of connection points: 4
#     Node 33, Type 0, BuildingBlock: CEKHIL_clean_sbu_0, # of connection points: 4
#     Node 34, Type 0, BuildingBlock: CEKHIL_clean_sbu_0, # of connection points: 4
#     Node 35, Type 0, BuildingBlock: CEKHIL_clean_sbu_0, # of connection points: 4
#     Node 36, Type 0, BuildingBlock: CEKHIL_clean_sbu_0, # of connection points: 4
#     Node 37, Type 0, BuildingBlock: CEKHIL_clean_sbu_0, # of connection points: 4
#     Node 38, Type 0, BuildingBlock: CEKHIL_clean_sbu_0, # of connection points: 4
#     Node 39, Type 0, BuildingBlock: CEKHIL_clean_sbu_0, # of connection points: 4
#     Node 40, Type 0, BuildingBlock: CEKHIL_clean_sbu_0, # of connection points: 4
#     Node 41, Type 0, BuildingBlock: CEKHIL_clean_sbu_0, # of connection points: 4
#     Node 42, Type 0, BuildingBlock: CEKHIL_clean_sbu_0, # of connection points: 4
#     Node 43, Type 0, BuildingBlock: CEKHIL_clean_sbu_0, # of connection points: 4
#     Node 44, Type 0, BuildingBlock: CEKHIL_clean_sbu_0, # of connection points: 4
#     Node 45, Type 0, BuildingBlock: CEKHIL_clean_sbu_0, # of connection points: 4
#     Node 46, Type 0, BuildingBlock: CEKHIL_clean_sbu_0, # of connection points: 4
#     Node 47, Type 0, BuildingBlock: CEKHIL_clean_sbu_0, # of connection points: 4
#     Node 48, Type 0, BuildingBlock: CEKHIL_clean_sbu_0, # of connection points: 4
#     Node 49, Type 0, BuildingBlock: CEKHIL_clean_sbu_0, # of connection points: 4
#     Node 50, Type 0, BuildingBlock: CEKHIL_clean_sbu_0, # of connection points: 4
#     Node 51, Type 0, BuildingBlock: CEKHIL_clean_sbu_0, # of connection points: 4
#     Node 52, Type 0, BuildingBlock: CEKHIL_clean_sbu_0, # of connection points: 4
#     Node 53, Type 0, BuildingBlock: CEKHIL_clean_sbu_0, # of connection points: 4
#     Node 54, Type 0, BuildingBlock: CEKHIL_clean_sbu_0, # of connection points: 4
#     Node 55, Type 0, BuildingBlock: CEKHIL_clean_sbu_0, # of connection points: 4
#     Node 56, Type 0, BuildingBlock: CEKHIL_clean_sbu_0, # of connection points: 4
#     Node 57, Type 0, BuildingBlock: CEKHIL_clean_sbu_0, # of connection points: 4
#     Node 58, Type 0, BuildingBlock: CEKHIL_clean_sbu_0, # of connection points: 4
#     Node 59, Type 0, BuildingBlock: CEKHIL_clean_sbu_0, # of connection points: 4
#     Node 60, Type 0, BuildingBlock: CEKHIL_clean_sbu_0, # of connection points: 4
#     Node 61, Type 0, BuildingBlock: CEKHIL_clean_sbu_0, # of connection points: 4
#     Node 62, Type 0, BuildingBlock: CEKHIL_clean_sbu_0, # of connection points: 4
#     Node 63, Type 0, BuildingBlock: CEKHIL_clean_sbu_0, # of connection points: 4
#     Node 64, Type 0, BuildingBlock: CEKHIL_clean_sbu_0, # of connection points: 4
#     Node 65, Type 0, BuildingBlock: CEKHIL_clean_sbu_0, # of connection points: 4
#     Node 66, Type 0, BuildingBlock: CEKHIL_clean_sbu_0, # of connection points: 4
#     Node 67, Type 0, BuildingBlock: CEKHIL_clean_sbu_0, # of connection points: 4
#     Node 68, Type 0, BuildingBlock: CEKHIL_clean_sbu_0, # of connection points: 4
#     Node 69, Type 0, BuildingBlock: CEKHIL_clean_sbu_0, # of connection points: 4
#     Node 70, Type 0, BuildingBlock: CEKHIL_clean_sbu_0, # of connection points: 4
#     Node 71, Type 0, BuildingBlock: CEKHIL_clean_sbu_0, # of connection points: 4
#     Node 72, Type 0, BuildingBlock: CEKHIL_clean_sbu_0, # of connection points: 4
#     Node 73, Type 0, BuildingBlock: CEKHIL_clean_sbu_0, # of connection points: 4
#     Node 74, Type 0, BuildingBlock: CEKHIL_clean_sbu_0, # of connection points: 4
#     Node 75, Type 0, BuildingBlock: CEKHIL_clean_sbu_0, # of connection points: 4
#     Node 76, Type 0, BuildingBlock: CEKHIL_clean_sbu_0, # of connection points: 4
#     Node 77, Type 0, BuildingBlock: CEKHIL_clean_sbu_0, # of connection points: 4
#     Node 78, Type 0, BuildingBlock: CEKHIL_clean_sbu_0, # of connection points: 4
#     Node 79, Type 0, BuildingBlock: CEKHIL_clean_sbu_0, # of connection points: 4
#     Node 80, Type 0, BuildingBlock: CEKHIL_clean_sbu_0, # of connection points: 4
#     Node 81, Type 0, BuildingBlock: CEKHIL_clean_sbu_0, # of connection points: 4
#     Node 82, Type 0, BuildingBlock: CEKHIL_clean_sbu_0, # of connection points: 4
#     Node 83, Type 0, BuildingBlock: CEKHIL_clean_sbu_0, # of connection points: 4
#     Node 84, Type 0, BuildingBlock: CEKHIL_clean_sbu_0, # of connection points: 4
#     Node 85, Type 0, BuildingBlock: CEKHIL_clean_sbu_0, # of connection points: 4
#     Node 86, Type 0, BuildingBlock: CEKHIL_clean_sbu_0, # of connection points: 4
#     Node 87, Type 0, BuildingBlock: CEKHIL_clean_sbu_0, # of connection points: 4
#     Node 88, Type 0, BuildingBlock: CEKHIL_clean_sbu_0, # of connection points: 4
#     Node 89, Type 0, BuildingBlock: CEKHIL_clean_sbu_0, # of connection points: 4
#     Node 90, Type 0, BuildingBlock: CEKHIL_clean_sbu_0, # of connection points: 4
#     Node 91, Type 0, BuildingBlock: CEKHIL_clean_sbu_0, # of connection points: 4
#     Node 92, Type 0, BuildingBlock: CEKHIL_clean_sbu_0, # of connection points: 4
#     Node 93, Type 0, BuildingBlock: CEKHIL_clean_sbu_0, # of connection points: 4
#     Node 94, Type 0, BuildingBlock: CEKHIL_clean_sbu_0, # of connection points: 4
#     Node 95, Type 0, BuildingBlock: CEKHIL_clean_sbu_0, # of connection points: 4
#     Edge 96, Type (0, 0), BuildingBlock: XIVTED_clean_linker_0, # of connection points: 2
#     Edge 97, Type (0, 0), BuildingBlock: XIVTED_clean_linker_0, # of connection points: 2
#     Edge 98, Type (0, 0), BuildingBlock: XIVTED_clean_linker_0, # of connection points: 2
#     Edge 99, Type (0, 0), BuildingBlock: XIVTED_clean_linker_0, # of connection points: 2
#     Edge 100, Type (0, 0), BuildingBlock: XIVTED_clean_linker_0, # of connection points: 2
#     Edge 101, Type (0, 0), BuildingBlock: XIVTED_clean_linker_0, # of connection points: 2
#     Edge 102, Type (0, 0), BuildingBlock: XIVTED_clean_linker_0, # of connection points: 2
#     Edge 103, Type (0, 0), BuildingBlock: XIVTED_clean_linker_0, # of connection points: 2
#     Edge 104, Type (0, 0), BuildingBlock: XIVTED_clean_linker_0, # of connection points: 2
#     Edge 105, Type (0, 0), BuildingBlock: XIVTED_clean_linker_0, # of connection points: 2
#     Edge 106, Type (0, 0), BuildingBlock: XIVTED_clean_linker_0, # of connection points: 2
#     Edge 107, Type (0, 0), BuildingBlock: XIVTED_clean_linker_0, # of connection points: 2
#     Edge 108, Type (0, 0), BuildingBlock: XIVTED_clean_linker_0, # of connection points: 2
#     Edge 109, Type (0, 0), BuildingBlock: XIVTED_clean_linker_0, # of connection points: 2
#     Edge 110, Type (0, 0), BuildingBlock: XIVTED_clean_linker_0, # of connection points: 2
#     Edge 111, Type (0, 0), BuildingBlock: XIVTED_clean_linker_0, # of connection points: 2
#     Edge 112, Type (0, 0), BuildingBlock: XIVTED_clean_linker_0, # of connection points: 2
#     Edge 113, Type (0, 0), BuildingBlock: XIVTED_clean_linker_0, # of connection points: 2
#     Edge 114, Type (0, 0), BuildingBlock: XIVTED_clean_linker_0, # of connection points: 2
#     Edge 115, Type (0, 0), BuildingBlock: XIVTED_clean_linker_0, # of connection points: 2
#     Edge 116, Type (0, 0), BuildingBlock: XIVTED_clean_linker_0, # of connection points: 2
#     Edge 117, Type (0, 0), BuildingBlock: XIVTED_clean_linker_0, # of connection points: 2
#     Edge 118, Type (0, 0), BuildingBlock: XIVTED_clean_linker_0, # of connection points: 2
#     Edge 119, Type (0, 0), BuildingBlock: XIVTED_clean_linker_0, # of connection points: 2
#     Edge 120, Type (0, 0), BuildingBlock: XIVTED_clean_linker_0, # of connection points: 2
#     Edge 121, Type (0, 0), BuildingBlock: XIVTED_clean_linker_0, # of connection points: 2
#     Edge 122, Type (0, 0), BuildingBlock: XIVTED_clean_linker_0, # of connection points: 2
#     Edge 123, Type (0, 0), BuildingBlock: XIVTED_clean_linker_0, # of connection points: 2
#     Edge 124, Type (0, 0), BuildingBlock: XIVTED_clean_linker_0, # of connection points: 2
#     Edge 125, Type (0, 0), BuildingBlock: XIVTED_clean_linker_0, # of connection points: 2
#     Edge 126, Type (0, 0), BuildingBlock: XIVTED_clean_linker_0, # of connection points: 2
#     Edge 127, Type (0, 0), BuildingBlock: XIVTED_clean_linker_0, # of connection points: 2
#     Edge 128, Type (0, 0), BuildingBlock: XIVTED_clean_linker_0, # of connection points: 2
#     Edge 129, Type (0, 0), BuildingBlock: XIVTED_clean_linker_0, # of connection points: 2
#     Edge 130, Type (0, 0), BuildingBlock: XIVTED_clean_linker_0, # of connection points: 2
#     Edge 131, Type (0, 0), BuildingBlock: XIVTED_clean_linker_0, # of connection points: 2
#     Edge 132, Type (0, 0), BuildingBlock: XIVTED_clean_linker_0, # of connection points: 2
#     Edge 133, Type (0, 0), BuildingBlock: XIVTED_clean_linker_0, # of connection points: 2
#     Edge 134, Type (0, 0), BuildingBlock: XIVTED_clean_linker_0, # of connection points: 2
#     Edge 135, Type (0, 0), BuildingBlock: XIVTED_clean_linker_0, # of connection points: 2
#     Edge 136, Type (0, 0), BuildingBlock: XIVTED_clean_linker_0, # of connection points: 2
#     Edge 137, Type (0, 0), BuildingBlock: XIVTED_clean_linker_0, # of connection points: 2
#     Edge 138, Type (0, 0), BuildingBlock: XIVTED_clean_linker_0, # of connection points: 2
#     Edge 139, Type (0, 0), BuildingBlock: XIVTED_clean_linker_0, # of connection points: 2
#     Edge 140, Type (0, 0), BuildingBlock: XIVTED_clean_linker_0, # of connection points: 2
#     Edge 141, Type (0, 0), BuildingBlock: XIVTED_clean_linker_0, # of connection points: 2
#     Edge 142, Type (0, 0), BuildingBlock: XIVTED_clean_linker_0, # of connection points: 2
#     Edge 143, Type (0, 0), BuildingBlock: XIVTED_clean_linker_0, # of connection points: 2
#     Edge 144, Type (0, 0), BuildingBlock: XIVTED_clean_linker_0, # of connection points: 2
#     Edge 145, Type (0, 0), BuildingBlock: XIVTED_clean_linker_0, # of connection points: 2
#     Edge 146, Type (0, 0), BuildingBlock: XIVTED_clean_linker_0, # of connection points: 2
#     Edge 147, Type (0, 0), BuildingBlock: XIVTED_clean_linker_0, # of connection points: 2
#     Edge 148, Type (0, 0), BuildingBlock: XIVTED_clean_linker_0, # of connection points: 2
#     Edge 149, Type (0, 0), BuildingBlock: XIVTED_clean_linker_0, # of connection points: 2
#     Edge 150, Type (0, 0), BuildingBlock: XIVTED_clean_linker_0, # of connection points: 2
#     Edge 151, Type (0, 0), BuildingBlock: XIVTED_clean_linker_0, # of connection points: 2
#     Edge 152, Type (0, 0), BuildingBlock: XIVTED_clean_linker_0, # of connection points: 2
#     Edge 153, Type (0, 0), BuildingBlock: XIVTED_clean_linker_0, # of connection points: 2
#     Edge 154, Type (0, 0), BuildingBlock: XIVTED_clean_linker_0, # of connection points: 2
#     Edge 155, Type (0, 0), BuildingBlock: XIVTED_clean_linker_0, # of connection points: 2
#     Edge 156, Type (0, 0), BuildingBlock: XIVTED_clean_linker_0, # of connection points: 2
#     Edge 157, Type (0, 0), BuildingBlock: XIVTED_clean_linker_0, # of connection points: 2
#     Edge 158, Type (0, 0), BuildingBlock: XIVTED_clean_linker_0, # of connection points: 2
#     Edge 159, Type (0, 0), BuildingBlock: XIVTED_clean_linker_0, # of connection points: 2
#     Edge 160, Type (0, 0), BuildingBlock: XIVTED_clean_linker_0, # of connection points: 2
#     Edge 161, Type (0, 0), BuildingBlock: XIVTED_clean_linker_0, # of connection points: 2
#     Edge 162, Type (0, 0), BuildingBlock: XIVTED_clean_linker_0, # of connection points: 2
#     Edge 163, Type (0, 0), BuildingBlock: XIVTED_clean_linker_0, # of connection points: 2
#     Edge 164, Type (0, 0), BuildingBlock: XIVTED_clean_linker_0, # of connection points: 2
#     Edge 165, Type (0, 0), BuildingBlock: XIVTED_clean_linker_0, # of connection points: 2
#     Edge 166, Type (0, 0), BuildingBlock: XIVTED_clean_linker_0, # of connection points: 2
#     Edge 167, Type (0, 0), BuildingBlock: XIVTED_clean_linker_0, # of connection points: 2
#     Edge 168, Type (0, 0), BuildingBlock: XIVTED_clean_linker_0, # of connection points: 2
#     Edge 169, Type (0, 0), BuildingBlock: XIVTED_clean_linker_0, # of connection points: 2
#     Edge 170, Type (0, 0), BuildingBlock: XIVTED_clean_linker_0, # of connection points: 2
#     Edge 171, Type (0, 0), BuildingBlock: XIVTED_clean_linker_0, # of connection points: 2
#     Edge 172, Type (0, 0), BuildingBlock: XIVTED_clean_linker_0, # of connection points: 2
#     Edge 173, Type (0, 0), BuildingBlock: XIVTED_clean_linker_0, # of connection points: 2
#     Edge 174, Type (0, 0), BuildingBlock: XIVTED_clean_linker_0, # of connection points: 2
#     Edge 175, Type (0, 0), BuildingBlock: XIVTED_clean_linker_0, # of connection points: 2
#     Edge 176, Type (0, 0), BuildingBlock: XIVTED_clean_linker_0, # of connection points: 2
#     Edge 177, Type (0, 0), BuildingBlock: XIVTED_clean_linker_0, # of connection points: 2
#     Edge 178, Type (0, 0), BuildingBlock: XIVTED_clean_linker_0, # of connection points: 2
#     Edge 179, Type (0, 0), BuildingBlock: XIVTED_clean_linker_0, # of connection points: 2
#     Edge 180, Type (0, 0), BuildingBlock: XIVTED_clean_linker_0, # of connection points: 2
#     Edge 181, Type (0, 0), BuildingBlock: XIVTED_clean_linker_0, # of connection points: 2
#     Edge 182, Type (0, 0), BuildingBlock: XIVTED_clean_linker_0, # of connection points: 2
#     Edge 183, Type (0, 0), BuildingBlock: XIVTED_clean_linker_0, # of connection points: 2
#     Edge 184, Type (0, 0), BuildingBlock: XIVTED_clean_linker_0, # of connection points: 2
#     Edge 185, Type (0, 0), BuildingBlock: XIVTED_clean_linker_0, # of connection points: 2
#     Edge 186, Type (0, 0), BuildingBlock: XIVTED_clean_linker_0, # of connection points: 2
#     Edge 187, Type (0, 0), BuildingBlock: XIVTED_clean_linker_0, # of connection points: 2
#     Edge 188, Type (0, 0), BuildingBlock: XIVTED_clean_linker_0, # of connection points: 2
#     Edge 189, Type (0, 0), BuildingBlock: XIVTED_clean_linker_0, # of connection points: 2
#     Edge 190, Type (0, 0), BuildingBlock: XIVTED_clean_linker_0, # of connection points: 2
#     Edge 191, Type (0, 0), BuildingBlock: XIVTED_clean_linker_0, # of connection points: 2
#     Edge 192, Type (0, 0), BuildingBlock: XIVTED_clean_linker_0, # of connection points: 2
#     Edge 193, Type (0, 0), BuildingBlock: XIVTED_clean_linker_0, # of connection points: 2
#     Edge 194, Type (0, 0), BuildingBlock: XIVTED_clean_linker_0, # of connection points: 2
#     Edge 195, Type (0, 0), BuildingBlock: XIVTED_clean_linker_0, # of connection points: 2
#     Edge 196, Type (0, 0), BuildingBlock: XIVTED_clean_linker_0, # of connection points: 2
#     Edge 197, Type (0, 0), BuildingBlock: XIVTED_clean_linker_0, # of connection points: 2
#     Edge 198, Type (0, 0), BuildingBlock: XIVTED_clean_linker_0, # of connection points: 2
#     Edge 199, Type (0, 0), BuildingBlock: XIVTED_clean_linker_0, # of connection points: 2
#     Edge 200, Type (0, 0), BuildingBlock: XIVTED_clean_linker_0, # of connection points: 2
#     Edge 201, Type (0, 0), BuildingBlock: XIVTED_clean_linker_0, # of connection points: 2
#     Edge 202, Type (0, 0), BuildingBlock: XIVTED_clean_linker_0, # of connection points: 2
#     Edge 203, Type (0, 0), BuildingBlock: XIVTED_clean_linker_0, # of connection points: 2
#     Edge 204, Type (0, 0), BuildingBlock: XIVTED_clean_linker_0, # of connection points: 2
#     Edge 205, Type (0, 0), BuildingBlock: XIVTED_clean_linker_0, # of connection points: 2
#     Edge 206, Type (0, 0), BuildingBlock: XIVTED_clean_linker_0, # of connection points: 2
#     Edge 207, Type (0, 0), BuildingBlock: XIVTED_clean_linker_0, # of connection points: 2
#     Edge 208, Type (0, 0), BuildingBlock: XIVTED_clean_linker_0, # of connection points: 2
#     Edge 209, Type (0, 0), BuildingBlock: XIVTED_clean_linker_0, # of connection points: 2
#     Edge 210, Type (0, 0), BuildingBlock: XIVTED_clean_linker_0, # of connection points: 2
#     Edge 211, Type (0, 0), BuildingBlock: XIVTED_clean_linker_0, # of connection points: 2
#     Edge 212, Type (0, 0), BuildingBlock: XIVTED_clean_linker_0, # of connection points: 2
#     Edge 213, Type (0, 0), BuildingBlock: XIVTED_clean_linker_0, # of connection points: 2
#     Edge 214, Type (0, 0), BuildingBlock: XIVTED_clean_linker_0, # of connection points: 2
#     Edge 215, Type (0, 0), BuildingBlock: XIVTED_clean_linker_0, # of connection points: 2
#     Edge 216, Type (0, 0), BuildingBlock: XIVTED_clean_linker_0, # of connection points: 2
#     Edge 217, Type (0, 0), BuildingBlock: XIVTED_clean_linker_0, # of connection points: 2
#     Edge 218, Type (0, 0), BuildingBlock: XIVTED_clean_linker_0, # of connection points: 2
#     Edge 219, Type (0, 0), BuildingBlock: XIVTED_clean_linker_0, # of connection points: 2
#     Edge 220, Type (0, 0), BuildingBlock: XIVTED_clean_linker_0, # of connection points: 2
#     Edge 221, Type (0, 0), BuildingBlock: XIVTED_clean_linker_0, # of connection points: 2
#     Edge 222, Type (0, 0), BuildingBlock: XIVTED_clean_linker_0, # of connection points: 2
#     Edge 223, Type (0, 0), BuildingBlock: XIVTED_clean_linker_0, # of connection points: 2
#     Edge 224, Type (0, 0), BuildingBlock: XIVTED_clean_linker_0, # of connection points: 2
#     Edge 225, Type (0, 0), BuildingBlock: XIVTED_clean_linker_0, # of connection points: 2
#     Edge 226, Type (0, 0), BuildingBlock: XIVTED_clean_linker_0, # of connection points: 2
#     Edge 227, Type (0, 0), BuildingBlock: XIVTED_clean_linker_0, # of connection points: 2
#     Edge 228, Type (0, 0), BuildingBlock: XIVTED_clean_linker_0, # of connection points: 2
#     Edge 229, Type (0, 0), BuildingBlock: XIVTED_clean_linker_0, # of connection points: 2
#     Edge 230, Type (0, 0), BuildingBlock: XIVTED_clean_linker_0, # of connection points: 2
#     Edge 231, Type (0, 0), BuildingBlock: XIVTED_clean_linker_0, # of connection points: 2
#     Edge 232, Type (0, 0), BuildingBlock: XIVTED_clean_linker_0, # of connection points: 2
#     Edge 233, Type (0, 0), BuildingBlock: XIVTED_clean_linker_0, # of connection points: 2
#     Edge 234, Type (0, 0), BuildingBlock: XIVTED_clean_linker_0, # of connection points: 2
#     Edge 235, Type (0, 0), BuildingBlock: XIVTED_clean_linker_0, # of connection points: 2
#     Edge 236, Type (0, 0), BuildingBlock: XIVTED_clean_linker_0, # of connection points: 2
#     Edge 237, Type (0, 0), BuildingBlock: XIVTED_clean_linker_0, # of connection points: 2
#     Edge 238, Type (0, 0), BuildingBlock: XIVTED_clean_linker_0, # of connection points: 2
#     Edge 239, Type (0, 0), BuildingBlock: XIVTED_clean_linker_0, # of connection points: 2
#     Edge 240, Type (0, 0), BuildingBlock: XIVTED_clean_linker_0, # of connection points: 2
#     Edge 241, Type (0, 0), BuildingBlock: XIVTED_clean_linker_0, # of connection points: 2
#     Edge 242, Type (0, 0), BuildingBlock: XIVTED_clean_linker_0, # of connection points: 2
#     Edge 243, Type (0, 0), BuildingBlock: XIVTED_clean_linker_0, # of connection points: 2
#     Edge 244, Type (0, 0), BuildingBlock: XIVTED_clean_linker_0, # of connection points: 2
#     Edge 245, Type (0, 0), BuildingBlock: XIVTED_clean_linker_0, # of connection points: 2
#     Edge 246, Type (0, 0), BuildingBlock: XIVTED_clean_linker_0, # of connection points: 2
#     Edge 247, Type (0, 0), BuildingBlock: XIVTED_clean_linker_0, # of connection points: 2
#     Edge 248, Type (0, 0), BuildingBlock: XIVTED_clean_linker_0, # of connection points: 2
#     Edge 249, Type (0, 0), BuildingBlock: XIVTED_clean_linker_0, # of connection points: 2
#     Edge 250, Type (0, 0), BuildingBlock: XIVTED_clean_linker_0, # of connection points: 2
#     Edge 251, Type (0, 0), BuildingBlock: XIVTED_clean_linker_0, # of connection points: 2
#     Edge 252, Type (0, 0), BuildingBlock: XIVTED_clean_linker_0, # of connection points: 2
#     Edge 253, Type (0, 0), BuildingBlock: XIVTED_clean_linker_0, # of connection points: 2
#     Edge 254, Type (0, 0), BuildingBlock: XIVTED_clean_linker_0, # of connection points: 2
#     Edge 255, Type (0, 0), BuildingBlock: XIVTED_clean_linker_0, # of connection points: 2
#     Edge 256, Type (0, 0), BuildingBlock: XIVTED_clean_linker_0, # of connection points: 2
#     Edge 257, Type (0, 0), BuildingBlock: XIVTED_clean_linker_0, # of connection points: 2
#     Edge 258, Type (0, 0), BuildingBlock: XIVTED_clean_linker_0, # of connection points: 2
#     Edge 259, Type (0, 0), BuildingBlock: XIVTED_clean_linker_0, # of connection points: 2
#     Edge 260, Type (0, 0), BuildingBlock: XIVTED_clean_linker_0, # of connection points: 2
#     Edge 261, Type (0, 0), BuildingBlock: XIVTED_clean_linker_0, # of connection points: 2
#     Edge 262, Type (0, 0), BuildingBlock: XIVTED_clean_linker_0, # of connection points: 2
#     Edge 263, Type (0, 0), BuildingBlock: XIVTED_clean_linker_0, # of connection points: 2
#     Edge 264, Type (0, 0), BuildingBlock: XIVTED_clean_linker_0, # of connection points: 2
#     Edge 265, Type (0, 0), BuildingBlock: XIVTED_clean_linker_0, # of connection points: 2
#     Edge 266, Type (0, 0), BuildingBlock: XIVTED_clean_linker_0, # of connection points: 2
#     Edge 267, Type (0, 0), BuildingBlock: XIVTED_clean_linker_0, # of connection points: 2
#     Edge 268, Type (0, 0), BuildingBlock: XIVTED_clean_linker_0, # of connection points: 2
#     Edge 269, Type (0, 0), BuildingBlock: XIVTED_clean_linker_0, # of connection points: 2
#     Edge 270, Type (0, 0), BuildingBlock: XIVTED_clean_linker_0, # of connection points: 2
#     Edge 271, Type (0, 0), BuildingBlock: XIVTED_clean_linker_0, # of connection points: 2
#     Edge 272, Type (0, 0), BuildingBlock: XIVTED_clean_linker_0, # of connection points: 2
#     Edge 273, Type (0, 0), BuildingBlock: XIVTED_clean_linker_0, # of connection points: 2
#     Edge 274, Type (0, 0), BuildingBlock: XIVTED_clean_linker_0, # of connection points: 2
#     Edge 275, Type (0, 0), BuildingBlock: XIVTED_clean_linker_0, # of connection points: 2
#     Edge 276, Type (0, 0), BuildingBlock: XIVTED_clean_linker_0, # of connection points: 2
#     Edge 277, Type (0, 0), BuildingBlock: XIVTED_clean_linker_0, # of connection points: 2
#     Edge 278, Type (0, 0), BuildingBlock: XIVTED_clean_linker_0, # of connection points: 2
#     Edge 279, Type (0, 0), BuildingBlock: XIVTED_clean_linker_0, # of connection points: 2
#     Edge 280, Type (0, 0), BuildingBlock: XIVTED_clean_linker_0, # of connection points: 2
#     Edge 281, Type (0, 0), BuildingBlock: XIVTED_clean_linker_0, # of connection points: 2
#     Edge 282, Type (0, 0), BuildingBlock: XIVTED_clean_linker_0, # of connection points: 2
#     Edge 283, Type (0, 0), BuildingBlock: XIVTED_clean_linker_0, # of connection points: 2
#     Edge 284, Type (0, 0), BuildingBlock: XIVTED_clean_linker_0, # of connection points: 2
#     Edge 285, Type (0, 0), BuildingBlock: XIVTED_clean_linker_0, # of connection points: 2
#     Edge 286, Type (0, 0), BuildingBlock: XIVTED_clean_linker_0, # of connection points: 2
#     Edge 287, Type (0, 0), BuildingBlock: XIVTED_clean_linker_0, # of connection points: 2
# Relax obj value: 0.163
# Max RMSD: 0.098
# Mean RMSD: 0.098
data_MOF--net-kfi--node1-CEKHIL_clean_sbu_0--edge1-XIVTED_clean_linker_0
_symmetry_space_group_name_H-M    P1
_symmetry_Int_Tables_number       1
_symmetry_cell_setting            triclinic
loop_
_symmetry_equiv_pos_as_xyz
'x, y, z'
_cell_length_a     88.276004
_cell_length_b     88.272068
_cell_length_c     88.270722
_cell_angle_alpha  89.999487
_cell_angle_beta   90.001287
_cell_angle_gamma 89.999255
loop_
_atom_site_label
_atom_site_type_symbol
_atom_site_fract_x
_atom_site_fract_y
_atom_site_fract_z
_atom_type_partial_charge
Co0 Co 0.08276 0.19892 0.3235 0.0
O1 O 0.06427 0.18835 0.31923 0.0
O2 O 0.06625 0.20782 0.33493 0.0
C3 C 0.0973 0.17802 0.32633 0.0
O4 O 0.10006 0.21222 0.33107 0.0
Co5 Co 0.11047 0.19542 0.30183 0.0
O6 O 0.12119 0.2072 0.31769 0.0
C7 C 0.08381 0.21307 0.29229 0.0
C8 C 0.05769 0.19769 0.32847 0.0
C9 C 0.11432 0.21396 0.32846 0.0
O10 O 0.07875 0.21321 0.30599 0.0
O11 O 0.09524 0.20518 0.28813 0.0
O12 O 0.08913 0.18279 0.33763 0.0
O13 O 0.09535 0.18516 0.31379 0.0
Co14 Co 0.80342 0.08163 0.32092 0.0
O15 O 0.81396 0.06305 0.31695 0.0
O16 O 0.79442 0.06534 0.33254 0.0
C17 C 0.82431 0.09618 0.3237 0.0
O18 O 0.79014 0.099 0.32825 0.0
Co19 Co 0.80693 0.10912 0.29903 0.0
O20 O 0.79506 0.12003 0.31472 0.0
C21 C 0.78918 0.08244 0.28973 0.0
C22 C 0.80457 0.05667 0.32629 0.0
C23 C 0.78834 0.11322 0.32554 0.0
O24 O 0.78914 0.07745 0.30344 0.0
O25 O 0.79705 0.09385 0.28544 0.0
O26 O 0.81947 0.08811 0.33504 0.0
O27 O 0.81725 0.09413 0.31111 0.0
Co28 Co 0.91685 0.80177 0.32128 0.0
O29 O 0.93523 0.8124 0.31671 0.0
O30 O 0.93353 0.79301 0.33256 0.0
C31 C 0.90228 0.82262 0.32417 0.0
O32 O 0.89976 0.78843 0.32921 0.0
Co33 Co 0.88874 0.80491 0.30011 0.0
O34 O 0.87833 0.79322 0.31625 0.0
C35 C 0.9154 0.78742 0.29021 0.0
C36 C 0.94196 0.80316 0.32596 0.0
C37 C 0.88547 0.78659 0.32693 0.0
O38 O 0.9207 0.7874 0.30381 0.0
O39 O 0.90381 0.79518 0.28621 0.0
O40 O 0.91062 0.81795 0.33539 0.0
O41 O 0.90405 0.81538 0.31165 0.0
Co42 Co 0.19603 0.91898 0.32361 0.0
O43 O 0.1861 0.93782 0.31942 0.0
O44 O 0.20596 0.93526 0.33454 0.0
C45 C 0.17455 0.90556 0.32731 0.0
O46 O 0.20882 0.90124 0.33099 0.0
Co47 Co 0.19061 0.89114 0.30259 0.0
O48 O 0.20241 0.88012 0.31824 0.0
C49 C 0.20927 0.91676 0.29207 0.0
C50 C 0.19595 0.94412 0.32831 0.0
C51 C 0.20986 0.88688 0.32861 0.0
O52 O 0.2099 0.92213 0.30562 0.0
O53 O 0.20083 0.90556 0.28834 0.0
O54 O 0.18015 0.91354 0.33836 0.0
O55 O 0.18138 0.90693 0.31451 0.0
Co56 Co 0.08222 0.80211 0.67785 0.0
O57 O 0.06384 0.81295 0.68196 0.0
O58 O 0.06571 0.79353 0.66617 0.0
C59 C 0.09717 0.82277 0.6753 0.0
O60 O 0.09941 0.78858 0.6704 0.0
Co61 Co 0.10963 0.80499 0.69996 0.0
O62 O 0.12039 0.79317 0.68416 0.0
C63 C 0.08264 0.78759 0.70893 0.0
C64 C 0.05723 0.80375 0.6726 0.0
C65 C 0.11359 0.78659 0.67323 0.0
O66 O 0.07776 0.78773 0.69518 0.0
O67 O 0.09412 0.79526 0.71337 0.0
O68 O 0.08901 0.81822 0.6639 0.0
O69 O 0.09494 0.8156 0.68779 0.0
Co70 Co 0.1949 0.08193 0.68053 0.0
O71 O 0.18416 0.06358 0.68514 0.0
O72 O 0.20336 0.06527 0.66906 0.0
C73 C 0.17421 0.09682 0.67796 0.0
O74 O 0.20835 0.0989 0.67257 0.0
Co75 Co 0.19241 0.10986 0.70199 0.0
O76 O 0.20434 0.12021 0.68597 0.0
C77 C 0.20984 0.08301 0.71137 0.0
C78 C 0.1933 0.05685 0.67579 0.0
C79 C 0.21064 0.11308 0.67509 0.0
O80 O 0.20952 0.07783 0.69774 0.0
O81 O 0.20225 0.09461 0.71564 0.0
O82 O 0.17862 0.08842 0.66667 0.0
O83 O 0.18154 0.09486 0.6904 0.0
Co84 Co 0.91528 0.1979 0.6794 0.0
O85 O 0.9336 0.18718 0.68412 0.0
O86 O 0.93199 0.20628 0.66792 0.0
C87 C 0.9004 0.1772 0.67688 0.0
O88 O 0.89829 0.21126 0.6713 0.0
Co89 Co 0.88739 0.19552 0.7009 0.0
O90 O 0.87697 0.207 0.68461 0.0
C91 C 0.91423 0.21301 0.71018 0.0
C92 C 0.94037 0.19625 0.67474 0.0
C93 C 0.88405 0.21332 0.67371 0.0
O94 O 0.91939 0.21259 0.69654 0.0
O95 O 0.90259 0.2055 0.7145 0.0
O96 O 0.90884 0.18156 0.6656 0.0
O97 O 0.90233 0.18457 0.68931 0.0
Co98 Co 0.80303 0.91753 0.68171 0.0
O99 O 0.81341 0.93608 0.68622 0.0
O100 O 0.79403 0.93403 0.6704 0.0
C101 C 0.82397 0.90313 0.6787 0.0
O102 O 0.78993 0.90023 0.67388 0.0
Co103 Co 0.80651 0.88974 0.70318 0.0
O104 O 0.79501 0.87902 0.6871 0.0
C105 C 0.78845 0.91608 0.71275 0.0
C106 C 0.80402 0.94264 0.677 0.0
C107 C 0.7883 0.88593 0.67632 0.0
O108 O 0.78857 0.92127 0.69912 0.0
O109 O 0.79631 0.90464 0.71696 0.0
O110 O 0.81918 0.91148 0.66755 0.0
O111 O 0.81688 0.90489 0.69132 0.0
Co112 Co 0.31849 0.08252 0.1979 0.0
O113 O 0.31277 0.06455 0.187 0.0
O114 O 0.32919 0.06522 0.20598 0.0
C115 C 0.32148 0.09747 0.17731 0.0
O116 O 0.32753 0.09877 0.21154 0.0
Co117 Co 0.29916 0.11201 0.19626 0.0
O118 O 0.31713 0.1214 0.20607 0.0
C119 C 0.28819 0.08548 0.21354 0.0
C120 C 0.32191 0.05726 0.19594 0.0
C121 C 0.32694 0.11327 0.21286 0.0
O122 O 0.30131 0.07916 0.21266 0.0
O123 O 0.28474 0.09771 0.20653 0.0
O124 O 0.3324 0.08848 0.18145 0.0
O125 O 0.30911 0.0962 0.18492 0.0
Co126 Co 0.91878 0.31995 0.19874 0.0
O127 O 0.93704 0.31492 0.18801 0.0
O128 O 0.9357 0.33083 0.20737 0.0
C129 C 0.90415 0.32318 0.17796 0.0
O130 O 0.90213 0.32831 0.2123 0.0
Co131 Co 0.8897 0.30015 0.19611 0.0
O132 O 0.87978 0.31772 0.20614 0.0
C133 C 0.91611 0.28925 0.21364 0.0
C134 C 0.94397 0.32402 0.19726 0.0
C135 C 0.88762 0.32748 0.21332 0.0
O136 O 0.92224 0.30247 0.21312 0.0
O137 O 0.90404 0.28576 0.20637 0.0
O138 O 0.91282 0.33417 0.18257 0.0
O139 O 0.90553 0.31064 0.18527 0.0
Co140 Co 0.68054 0.91799 0.19856 0.0
O141 O 0.68513 0.93635 0.18786 0.0
O142 O 0.66895 0.93462 0.20696 0.0
C143 C 0.67811 0.90312 0.17785 0.0
O144 O 0.67259 0.90089 0.2119 0.0
Co145 Co 0.70228 0.89026 0.19606 0.0
O146 O 0.68609 0.8797 0.20755 0.0
C147 C 0.71134 0.91711 0.21364 0.0
C148 C 0.6757 0.94306 0.19692 0.0
C149 C 0.67514 0.88666 0.21392 0.0
O150 O 0.69766 0.92217 0.21324 0.0
O151 O 0.71575 0.90555 0.20608 0.0
O152 O 0.66678 0.91146 0.18223 0.0
O153 O 0.69054 0.90514 0.18519 0.0
Co154 Co 0.08382 0.68236 0.19902 0.0
O155 O 0.0656 0.68799 0.1885 0.0
O156 O 0.06673 0.67167 0.20755 0.0
C157 C 0.09816 0.67927 0.17803 0.0
O158 O 0.10032 0.67335 0.21235 0.0
Co159 Co 0.11347 0.7013 0.1966 0.0
O160 O 0.12297 0.68333 0.2063 0.0
C161 C 0.08746 0.71264 0.21453 0.0
C162 C 0.05855 0.67882 0.19759 0.0
C163 C 0.11485 0.67372 0.21337 0.0
O164 O 0.08085 0.69966 0.21371 0.0
O165 O 0.09966 0.71585 0.20733 0.0
O166 O 0.08936 0.66834 0.18254 0.0
O167 O 0.09718 0.69166 0.18565 0.0
Co168 Co 0.32033 0.91749 0.80327 0.0
O169 O 0.3155 0.93586 0.81387 0.0
O170 O 0.33159 0.93424 0.79469 0.0
C171 C 0.3231 0.90279 0.82407 0.0
O172 O 0.32851 0.9005 0.78995 0.0
Co173 Co 0.29925 0.88929 0.80602 0.0
O174 O 0.31548 0.87903 0.79433 0.0
C175 C 0.28947 0.91589 0.78841 0.0
C176 C 0.32476 0.94265 0.80469 0.0
C177 C 0.32623 0.88623 0.78789 0.0
O178 O 0.30304 0.92127 0.78867 0.0
O179 O 0.2854 0.90426 0.79606 0.0
O180 O 0.33429 0.91128 0.81959 0.0
O181 O 0.31064 0.90455 0.81673 0.0
Co182 Co 0.08068 0.32163 0.80268 0.0
O183 O 0.06204 0.31786 0.8132 0.0
O184 O 0.06446 0.33328 0.79354 0.0
C185 C 0.0952 0.32444 0.8236 0.0
O186 O 0.09817 0.32872 0.78939 0.0
Co187 Co 0.10792 0.29947 0.80648 0.0
O188 O 0.11902 0.31499 0.79458 0.0
C189 C 0.08114 0.29026 0.78887 0.0
C190 C 0.05571 0.32711 0.80368 0.0
C191 C 0.11238 0.32584 0.78772 0.0
O192 O 0.07639 0.30406 0.78856 0.0
O193 O 0.09245 0.28594 0.79685 0.0
O194 O 0.08724 0.33582 0.81866 0.0
O195 O 0.09303 0.31183 0.81661 0.0
Co196 Co 0.67784 0.08009 0.8051 0.0
O197 O 0.68157 0.06164 0.81596 0.0
O198 O 0.66622 0.06372 0.79621 0.0
C199 C 0.67498 0.09504 0.82572 0.0
O200 O 0.67085 0.09737 0.79147 0.0
Co201 Co 0.70014 0.1073 0.80853 0.0
O202 O 0.68476 0.1182 0.79627 0.0
C203 C 0.70921 0.0803 0.79121 0.0
C204 C 0.67237 0.05514 0.8065 0.0
C205 C 0.67389 0.1115 0.78949 0.0
O206 O 0.69541 0.07555 0.79106 0.0
O207 O 0.71361 0.09169 0.79904 0.0
O208 O 0.66361 0.08697 0.82093 0.0
O209 O 0.68761 0.09268 0.81884 0.0
Co210 Co 0.92 0.67881 0.80196 0.0
O211 O 0.93819 0.68361 0.81291 0.0
O212 O 0.9369 0.66774 0.79349 0.0
C213 C 0.90509 0.67574 0.82256 0.0
O214 O 0.90339 0.67068 0.78823 0.0
Co215 Co 0.89116 0.69903 0.80435 0.0
O216 O 0.88113 0.68153 0.79432 0.0
C217 C 0.91779 0.70949 0.78686 0.0
C218 C 0.94512 0.67444 0.80373 0.0
C219 C 0.88889 0.67168 0.78716 0.0
O220 O 0.92383 0.69624 0.78761 0.0
O221 O 0.90568 0.71316 0.79398 0.0
O222 O 0.91369 0.66465 0.81805 0.0
O223 O 0.90673 0.68828 0.8153 0.0
Co224 Co 0.197 0.3233 0.08165 0.0
O225 O 0.18587 0.31904 0.06345 0.0
O226 O 0.20547 0.33466 0.0649 0.0
C227 C 0.17659 0.32622 0.09689 0.0
O228 O 0.21086 0.33088 0.09848 0.0
Co229 Co 0.19443 0.30175 0.10953 0.0
O230 O 0.20689 0.31742 0.11977 0.0
C231 C 0.21096 0.29203 0.08226 0.0
C232 C 0.19512 0.32821 0.05662 0.0
C233 C 0.2133 0.32822 0.11262 0.0
O234 O 0.21111 0.30574 0.07725 0.0
O235 O 0.20337 0.28792 0.09391 0.0
O236 O 0.1811 0.33748 0.08849 0.0
O237 O 0.18364 0.31365 0.09473 0.0
Co238 Co 0.19855 0.67865 0.91775 0.0
O239 O 0.18782 0.68284 0.93618 0.0
O240 O 0.20724 0.66707 0.93424 0.0
C241 C 0.17784 0.67598 0.90293 0.0
O242 O 0.21198 0.6711 0.90056 0.0
Co243 Co 0.19556 0.70049 0.89015 0.0
O244 O 0.20734 0.68462 0.87944 0.0
C245 C 0.21296 0.70975 0.91706 0.0
C246 C 0.19708 0.67351 0.94276 0.0
C247 C 0.21391 0.67375 0.88634 0.0
O248 O 0.2129 0.69603 0.92204 0.0
O249 O 0.20527 0.71405 0.90555 0.0
O250 O 0.18245 0.66464 0.91114 0.0
O251 O 0.18498 0.68851 0.90504 0.0
Co252 Co 0.31839 0.19743 0.91751 0.0
O253 O 0.31298 0.18668 0.93567 0.0
O254 O 0.3293 0.20573 0.93458 0.0
C255 C 0.32132 0.1767 0.90273 0.0
O256 O 0.32717 0.21093 0.90102 0.0
Co257 Co 0.29875 0.1954 0.88827 0.0
O258 O 0.31662 0.20508 0.87856 0.0
C259 C 0.28801 0.21298 0.91471 0.0
C260 C 0.3222 0.19571 0.94274 0.0
C261 C 0.32648 0.21202 0.88651 0.0
O262 O 0.30118 0.21215 0.92094 0.0
O263 O 0.28446 0.20585 0.90257 0.0
O264 O 0.33233 0.18101 0.91154 0.0
O265 O 0.30892 0.18425 0.90409 0.0
Co266 Co 0.80256 0.32229 0.91879 0.0
O267 O 0.81322 0.31779 0.93721 0.0
O268 O 0.79383 0.33362 0.93545 0.0
C269 C 0.82336 0.32515 0.9041 0.0
O270 O 0.78917 0.33011 0.90168 0.0
Co271 Co 0.8057 0.3009 0.89083 0.0
O272 O 0.79386 0.3169 0.88037 0.0
C273 C 0.78813 0.29121 0.91749 0.0
C274 C 0.80395 0.32702 0.94391 0.0
C275 C 0.78724 0.32764 0.88742 0.0
O276 O 0.78818 0.30484 0.92273 0.0
O277 O 0.7959 0.28711 0.90595 0.0
O278 O 0.81872 0.33638 0.91245 0.0
O279 O 0.81617 0.31262 0.90599 0.0
Co280 Co 0.68042 0.80137 0.91928 0.0
O281 O 0.68578 0.81226 0.93735 0.0
O282 O 0.66954 0.79315 0.93642 0.0
C283 C 0.67744 0.82202 0.9044 0.0
O284 O 0.67168 0.78775 0.90287 0.0
Co285 Co 0.69998 0.80334 0.88996 0.0
O286 O 0.68207 0.79363 0.88034 0.0
C287 C 0.71083 0.78589 0.91647 0.0
C288 C 0.67659 0.80327 0.94449 0.0
C289 C 0.67229 0.78665 0.88835 0.0
O290 O 0.6977 0.78675 0.92277 0.0
O291 O 0.71429 0.79293 0.90426 0.0
O292 O 0.66643 0.81772 0.91321 0.0
O293 O 0.68985 0.8145 0.90578 0.0
Co294 Co 0.80437 0.67783 0.08069 0.0
O295 O 0.81475 0.68213 0.06209 0.0
O296 O 0.79553 0.66615 0.06433 0.0
C297 C 0.82541 0.6754 0.09511 0.0
O298 O 0.79128 0.67016 0.09809 0.0
Co299 Co 0.80765 0.69963 0.10829 0.0
O300 O 0.79613 0.68367 0.11916 0.0
C301 C 0.78964 0.70877 0.08172 0.0
C302 C 0.8055 0.6727 0.05565 0.0
C303 C 0.78951 0.67278 0.11234 0.0
O304 O 0.78977 0.69507 0.07667 0.0
O305 O 0.79749 0.71311 0.09311 0.0
O306 O 0.82074 0.66398 0.08704 0.0
O307 O 0.81806 0.68783 0.09315 0.0
Co308 Co 0.32065 0.80262 0.08292 0.0
O309 O 0.31601 0.81302 0.0644 0.0
O310 O 0.33222 0.79396 0.06642 0.0
C311 C 0.32309 0.82361 0.09739 0.0
O312 O 0.32871 0.78956 0.10015 0.0
Co313 Co 0.2992 0.80546 0.11079 0.0
O314 O 0.31547 0.79418 0.12144 0.0
C315 C 0.28989 0.78752 0.08423 0.0
C316 C 0.32546 0.80386 0.05784 0.0
C317 C 0.32635 0.78774 0.11444 0.0
O318 O 0.30352 0.78786 0.07903 0.0
O319 O 0.2856 0.7952 0.09576 0.0
O320 O 0.33442 0.81908 0.08912 0.0
O321 O 0.31068 0.81617 0.09558 0.0
Co322 Co 0.67979 0.19799 0.08237 0.0
O323 O 0.68511 0.18713 0.06423 0.0
O324 O 0.669 0.20636 0.06529 0.0
C325 C 0.67665 0.17732 0.09721 0.0
O326 O 0.67113 0.21167 0.09875 0.0
Co327 Co 0.69922 0.19593 0.11174 0.0
O328 O 0.68158 0.20615 0.12133 0.0
C329 C 0.7103 0.21322 0.08524 0.0
C330 C 0.67599 0.19626 0.05715 0.0
C331 C 0.67185 0.21308 0.11323 0.0
O332 O 0.69717 0.21251 0.07893 0.0
O333 O 0.7137 0.20611 0.09743 0.0
O334 O 0.6657 0.18171 0.08838 0.0
O335 O 0.68911 0.18477 0.09588 0.0
Co336 Co 0.91921 0.80207 0.67936 0.0
O337 O 0.93784 0.81259 0.68321 0.0
O338 O 0.93536 0.79331 0.66735 0.0
C339 C 0.90455 0.82298 0.67721 0.0
O340 O 0.90172 0.78886 0.67209 0.0
Co341 Co 0.89208 0.80519 0.70179 0.0
O342 O 0.88093 0.79363 0.68605 0.0
C343 C 0.91911 0.78764 0.71041 0.0
C344 C 0.94412 0.80334 0.67367 0.0
C345 C 0.88753 0.78706 0.67501 0.0
O346 O 0.92371 0.78757 0.69657 0.0
O347 O 0.9078 0.79549 0.71499 0.0
O348 O 0.91243 0.81837 0.66563 0.0
O349 O 0.90686 0.81568 0.68961 0.0
Co350 Co 0.1978 0.91838 0.67929 0.0
O351 O 0.18684 0.93648 0.68442 0.0
O352 O 0.20623 0.93548 0.66852 0.0
C353 C 0.1772 0.90351 0.67595 0.0
O354 O 0.21156 0.90195 0.67083 0.0
Co355 Co 0.19545 0.88909 0.69886 0.0
O356 O 0.20554 0.87944 0.68118 0.0
C357 C 0.21263 0.91564 0.71001 0.0
C358 C 0.19599 0.94358 0.67535 0.0
C359 C 0.21268 0.88743 0.67151 0.0
O360 O 0.21211 0.92188 0.69683 0.0
O361 O 0.20547 0.90347 0.71337 0.0
O362 O 0.18171 0.91231 0.66501 0.0
O363 O 0.18449 0.90491 0.6885 0.0
Co364 Co 0.07881 0.19766 0.68064 0.0
O365 O 0.06057 0.1869 0.68568 0.0
O366 O 0.06189 0.20614 0.66961 0.0
C367 C 0.09352 0.17689 0.67765 0.0
O368 O 0.09546 0.21119 0.67223 0.0
Co369 Co 0.10784 0.19522 0.70057 0.0
O370 O 0.11779 0.205 0.68288 0.0
C371 C 0.08144 0.21298 0.71117 0.0
C372 C 0.05364 0.19602 0.67645 0.0
C373 C 0.10998 0.21214 0.67306 0.0
O374 O 0.07525 0.21219 0.69798 0.0
O375 O 0.09354 0.2058 0.71475 0.0
O376 O 0.08488 0.18139 0.66658 0.0
O377 O 0.09206 0.1843 0.69012 0.0
Co378 Co 0.80024 0.08103 0.68182 0.0
O379 O 0.81133 0.06303 0.687 0.0
O380 O 0.79218 0.06392 0.67079 0.0
C381 C 0.8207 0.09617 0.67895 0.0
O382 O 0.78645 0.09739 0.67324 0.0
Co383 Co 0.80187 0.11016 0.70169 0.0
O384 O 0.79219 0.11987 0.68382 0.0
C385 C 0.78482 0.08331 0.7123 0.0
C386 C 0.8024 0.0559 0.67773 0.0
C387 C 0.78529 0.11189 0.67396 0.0
O388 O 0.78569 0.0772 0.69908 0.0
O389 O 0.79172 0.09557 0.71589 0.0
O390 O 0.81649 0.0874 0.66788 0.0
O391 O 0.81323 0.09459 0.69137 0.0
Co392 Co 0.91943 0.19717 0.32221 0.0
O393 O 0.93802 0.18672 0.31805 0.0
O394 O 0.93582 0.20622 0.33369 0.0
C395 C 0.905 0.17619 0.32506 0.0
O396 O 0.90203 0.21037 0.32972 0.0
Co397 Co 0.89176 0.19348 0.30053 0.0
O398 O 0.88093 0.20522 0.31636 0.0
C399 C 0.91827 0.21139 0.29103 0.0
C400 C 0.94448 0.19614 0.3273 0.0
C401 C 0.88777 0.21204 0.32711 0.0
O402 O 0.92338 0.21148 0.3047 0.0
O403 O 0.90687 0.20345 0.28685 0.0
O404 O 0.91313 0.18105 0.33636 0.0
O405 O 0.90694 0.18331 0.3125 0.0
Co406 Co 0.80227 0.91868 0.32253 0.0
O407 O 0.81289 0.93722 0.31866 0.0
O408 O 0.79327 0.935 0.33416 0.0
C409 C 0.8231 0.90407 0.32536 0.0
O410 O 0.78896 0.90123 0.32969 0.0
Co411 Co 0.80595 0.89148 0.30029 0.0
O412 O 0.79422 0.88039 0.31595 0.0
C413 C 0.78833 0.91828 0.29121 0.0
C414 C 0.80346 0.94364 0.32793 0.0
C415 C 0.78736 0.88701 0.32682 0.0
O416 O 0.7881 0.923 0.30501 0.0
O417 O 0.79627 0.90697 0.28681 0.0
O418 O 0.81823 0.9121 0.33671 0.0
O419 O 0.81613 0.90625 0.31274 0.0
Co420 Co 0.08043 0.80508 0.32297 0.0
O421 O 0.06153 0.81473 0.31844 0.0
O422 O 0.06413 0.79505 0.33379 0.0
C423 C 0.09352 0.82676 0.32659 0.0
O424 O 0.09823 0.79258 0.33071 0.0
Co425 Co 0.10849 0.81065 0.30229 0.0
O426 O 0.11945 0.79921 0.31824 0.0
C427 C 0.08324 0.79158 0.29159 0.0
C428 C 0.05523 0.80488 0.32734 0.0
C429 C 0.11264 0.79175 0.32858 0.0
O430 O 0.07768 0.791 0.30507 0.0
O431 O 0.09439 0.80013 0.28795 0.0
O432 O 0.08552 0.82116 0.33763 0.0
O433 O 0.09239 0.81978 0.31385 0.0
Co434 Co 0.19783 0.08244 0.3235 0.0
O435 O 0.18708 0.06407 0.31916 0.0
O436 O 0.20675 0.06578 0.33466 0.0
C437 C 0.1771 0.09713 0.32672 0.0
O438 O 0.21135 0.0995 0.33115 0.0
Co439 Co 0.19444 0.1105 0.30229 0.0
O440 O 0.20657 0.12089 0.31811 0.0
C441 C 0.21174 0.0838 0.2922 0.0
C442 C 0.19649 0.05736 0.32824 0.0
C443 C 0.2133 0.11376 0.32873 0.0
O444 O 0.21192 0.07853 0.30581 0.0
O445 O 0.20394 0.09538 0.28828 0.0
O446 O 0.18192 0.08877 0.33787 0.0
O447 O 0.1841 0.09528 0.31407 0.0
Co448 Co 0.67827 0.917 0.80309 0.0
O449 O 0.68238 0.93549 0.81377 0.0
O450 O 0.66672 0.93345 0.79427 0.0
C451 C 0.67548 0.90229 0.8239 0.0
O452 O 0.67078 0.89975 0.78968 0.0
Co453 Co 0.70002 0.88936 0.80635 0.0
O454 O 0.68419 0.87862 0.79453 0.0
C455 C 0.70945 0.91614 0.78882 0.0
C456 C 0.67307 0.94202 0.80445 0.0
C457 C 0.6734 0.88551 0.78783 0.0
O458 O 0.69575 0.9212 0.78881 0.0
O459 O 0.71366 0.90464 0.79659 0.0
O460 O 0.66416 0.91046 0.81916 0.0
O461 O 0.68803 0.90434 0.81679 0.0
Co462 Co 0.08326 0.67986 0.80127 0.0
O463 O 0.06486 0.6841 0.81203 0.0
O464 O 0.06678 0.66818 0.79272 0.0
C465 C 0.09815 0.67731 0.82193 0.0
O466 O 0.10043 0.67226 0.78786 0.0
Co467 Co 0.1107 0.7019 0.80401 0.0
O468 O 0.12147 0.68595 0.79237 0.0
C469 C 0.08369 0.71088 0.78666 0.0
C470 C 0.05828 0.67468 0.80286 0.0
C471 C 0.11464 0.67497 0.78591 0.0
O472 O 0.07887 0.69711 0.7868 0.0
O473 O 0.09518 0.71534 0.7943 0.0
O474 O 0.08992 0.66596 0.81741 0.0
O475 O 0.09599 0.68983 0.81476 0.0
Co476 Co 0.32024 0.08128 0.80176 0.0
O477 O 0.3147 0.06329 0.81273 0.0
O478 O 0.33104 0.06403 0.7937 0.0
C479 C 0.32319 0.09626 0.82236 0.0
O480 O 0.32919 0.09751 0.78805 0.0
Co481 Co 0.30101 0.11084 0.80339 0.0
O482 O 0.31898 0.12021 0.79358 0.0
C483 C 0.28988 0.08422 0.78628 0.0
C484 C 0.3239 0.05605 0.80382 0.0
C485 C 0.32871 0.11202 0.78674 0.0
O486 O 0.30297 0.07783 0.7871 0.0
O487 O 0.28655 0.09651 0.79325 0.0
O488 O 0.33417 0.08736 0.81818 0.0
O489 O 0.31084 0.09495 0.81474 0.0
Co490 Co 0.9176 0.32118 0.80214 0.0
O491 O 0.9361 0.31713 0.81277 0.0
O492 O 0.93402 0.33278 0.79326 0.0
C493 C 0.90297 0.32396 0.82299 0.0
O494 O 0.90023 0.32855 0.78883 0.0
Co495 Co 0.89023 0.29911 0.80564 0.0
O496 O 0.87929 0.31491 0.79394 0.0
C497 C 0.91694 0.28997 0.78792 0.0
C498 C 0.9426 0.32645 0.80345 0.0
C499 C 0.886 0.32577 0.78716 0.0
O500 O 0.92182 0.30373 0.78784 0.0
O501 O 0.90559 0.2856 0.79581 0.0
O502 O 0.91108 0.33529 0.81821 0.0
O503 O 0.90507 0.31138 0.81592 0.0
Co504 Co 0.67997 0.0816 0.1979 0.0
O505 O 0.68526 0.06341 0.18716 0.0
O506 O 0.66893 0.06459 0.20617 0.0
C507 C 0.67724 0.0964 0.17714 0.0
O508 O 0.67125 0.09815 0.21139 0.0
Co509 Co 0.69973 0.11079 0.19591 0.0
O510 O 0.68181 0.12058 0.20543 0.0
C511 C 0.71033 0.08428 0.2135 0.0
C512 C 0.67597 0.0564 0.19615 0.0
C513 C 0.67194 0.11268 0.21239 0.0
O514 O 0.69716 0.07807 0.21264 0.0
O515 O 0.7139 0.09643 0.20641 0.0
O516 O 0.66613 0.0877 0.18142 0.0
O517 O 0.68958 0.09496 0.18476 0.0
Co518 Co 0.91978 0.67986 0.19669 0.0
O519 O 0.9379 0.68573 0.18615 0.0
O520 O 0.93706 0.6695 0.20528 0.0
C521 C 0.90545 0.67645 0.17574 0.0
O522 O 0.90335 0.67072 0.21002 0.0
Co523 Co 0.89002 0.69866 0.19406 0.0
O524 O 0.88069 0.68061 0.20379 0.0
C525 C 0.91592 0.71024 0.21192 0.0
C526 C 0.94512 0.6768 0.19532 0.0
C527 C 0.88881 0.67104 0.21092 0.0
O528 O 0.92251 0.69725 0.21131 0.0
O529 O 0.9038 0.7134 0.20458 0.0
O530 O 0.91443 0.66567 0.18026 0.0
O531 O 0.90633 0.6889 0.18326 0.0
Co532 Co 0.31757 0.91849 0.19848 0.0
O533 O 0.31173 0.93672 0.18807 0.0
O534 O 0.32825 0.93562 0.20694 0.0
C535 C 0.32052 0.9042 0.17743 0.0
O536 O 0.32683 0.902 0.21166 0.0
Co537 Co 0.2988 0.88872 0.19616 0.0
O538 O 0.31698 0.87931 0.20556 0.0
C539 C 0.28748 0.91461 0.21429 0.0
C540 C 0.32095 0.9438 0.19709 0.0
C541 C 0.3266 0.88746 0.21257 0.0
O542 O 0.3004 0.92131 0.21337 0.0
O543 O 0.28428 0.90242 0.20708 0.0
O544 O 0.33145 0.91306 0.18184 0.0
O545 O 0.30821 0.90511 0.18518 0.0
Co546 Co 0.08253 0.32068 0.19903 0.0
O547 O 0.06453 0.31532 0.18801 0.0
O548 O 0.06531 0.33143 0.20725 0.0
C549 C 0.09752 0.32389 0.1785 0.0
O550 O 0.09885 0.32934 0.2128 0.0
Co551 Co 0.11181 0.30107 0.19706 0.0
O552 O 0.12138 0.31885 0.20705 0.0
C553 C 0.08523 0.29014 0.21427 0.0
C554 C 0.05732 0.32441 0.19705 0.0
C555 C 0.11336 0.32862 0.21403 0.0
O556 O 0.079 0.3033 0.21352 0.0
O557 O 0.09743 0.28666 0.20722 0.0
O558 O 0.08862 0.33482 0.18283 0.0
O559 O 0.09612 0.3114 0.18589 0.0
Co560 Co 0.80363 0.67835 0.91748 0.0
O561 O 0.81456 0.68257 0.93579 0.0
O562 O 0.79515 0.66676 0.93408 0.0
C563 C 0.82419 0.67572 0.90242 0.0
O564 O 0.79 0.67076 0.90047 0.0
Co565 Co 0.80623 0.70017 0.88982 0.0
O566 O 0.79421 0.68434 0.8793 0.0
C567 C 0.78921 0.70943 0.91696 0.0
C568 C 0.8054 0.67323 0.94248 0.0
C569 C 0.78778 0.67345 0.8863 0.0
O570 O 0.78928 0.69571 0.92191 0.0
O571 O 0.7968 0.71375 0.90538 0.0
O572 O 0.8197 0.66438 0.91069 0.0
O573 O 0.81702 0.68823 0.90459 0.0
Co574 Co 0.80348 0.3211 0.08232 0.0
O575 O 0.81404 0.31644 0.06388 0.0
O576 O 0.79494 0.33261 0.06569 0.0
C577 C 0.82435 0.32356 0.097 0.0
O578 O 0.79024 0.32919 0.09941 0.0
Co579 Co 0.80617 0.29978 0.11035 0.0
O580 O 0.79466 0.31603 0.1208 0.0
C581 C 0.78847 0.29031 0.08368 0.0
C582 C 0.80493 0.32586 0.05721 0.0
C583 C 0.78826 0.32685 0.11368 0.0
O584 O 0.78877 0.30392 0.07839 0.0
O585 O 0.79614 0.28612 0.09525 0.0
O586 O 0.81991 0.33488 0.08866 0.0
O587 O 0.8169 0.31118 0.09513 0.0
Co588 Co 0.68208 0.80184 0.08284 0.0
O589 O 0.68664 0.81242 0.0644 0.0
O590 O 0.67043 0.79335 0.06631 0.0
C591 C 0.67968 0.8226 0.09762 0.0
O592 O 0.67411 0.78862 0.1 0.0
Co593 Co 0.70381 0.80437 0.11054 0.0
O594 O 0.68757 0.79302 0.1212 0.0
C595 C 0.71287 0.78679 0.08369 0.0
C596 C 0.67716 0.80332 0.05779 0.0
C597 C 0.6766 0.78669 0.11425 0.0
O598 O 0.69917 0.7871 0.07869 0.0
O599 O 0.7173 0.79441 0.09521 0.0
O600 O 0.66834 0.8182 0.08929 0.0
O601 O 0.69211 0.81525 0.09562 0.0
Co602 Co 0.19711 0.67969 0.08092 0.0
O603 O 0.18661 0.68396 0.06239 0.0
O604 O 0.20592 0.66807 0.06451 0.0
C605 C 0.17619 0.67711 0.09548 0.0
O606 O 0.2103 0.67203 0.09824 0.0
Co607 Co 0.19389 0.70147 0.10854 0.0
O608 O 0.20545 0.68549 0.11935 0.0
C609 C 0.21174 0.71069 0.08191 0.0
C610 C 0.19586 0.67457 0.0559 0.0
C611 C 0.21207 0.67462 0.1125 0.0
O612 O 0.21163 0.697 0.07686 0.0
O613 O 0.20392 0.71502 0.09333 0.0
O614 O 0.18086 0.66574 0.08733 0.0
O615 O 0.18343 0.68959 0.09348 0.0
Co616 Co 0.31773 0.19794 0.08132 0.0
O617 O 0.31217 0.18689 0.06338 0.0
O618 O 0.32868 0.20578 0.06408 0.0
C619 C 0.32048 0.17749 0.09652 0.0
O620 O 0.32669 0.21169 0.0975 0.0
Co621 Co 0.29818 0.19674 0.11067 0.0
O622 O 0.31614 0.20652 0.12012 0.0
C623 C 0.28759 0.21399 0.08395 0.0
C624 C 0.32147 0.19569 0.05613 0.0
C625 C 0.32603 0.21317 0.11198 0.0
O626 O 0.30068 0.21278 0.07764 0.0
O627 O 0.28401 0.20719 0.09627 0.0
O628 O 0.3315 0.18149 0.08759 0.0
O629 O 0.30816 0.18514 0.09505 0.0
Co630 Co 0.19662 0.32236 0.91829 0.0
O631 O 0.18619 0.31805 0.93687 0.0
O632 O 0.20565 0.33374 0.93474 0.0
C633 C 0.17563 0.32531 0.90389 0.0
O634 O 0.20981 0.33003 0.90096 0.0
Co635 Co 0.19298 0.30094 0.89043 0.0
O636 O 0.2047 0.31687 0.87973 0.0
C637 C 0.21088 0.29121 0.91686 0.0
C638 C 0.19558 0.32729 0.94337 0.0
C639 C 0.21149 0.32757 0.88667 0.0
O640 O 0.21095 0.30483 0.9221 0.0
O641 O 0.20296 0.28714 0.90542 0.0
O642 O 0.18048 0.33654 0.91211 0.0
O643 O 0.18276 0.31273 0.90571 0.0
Co644 Co 0.67998 0.19839 0.9185 0.0
O645 O 0.6856 0.18747 0.93648 0.0
O646 O 0.66928 0.20653 0.93578 0.0
C647 C 0.67687 0.17778 0.90361 0.0
O648 O 0.67102 0.21203 0.9022 0.0
Co649 Co 0.69932 0.19655 0.88903 0.0
O650 O 0.6813 0.20624 0.8796 0.0
C651 C 0.71038 0.2138 0.91554 0.0
C652 C 0.67645 0.19641 0.94375 0.0
C653 C 0.67154 0.21315 0.88768 0.0
O654 O 0.69725 0.21304 0.92185 0.0
O655 O 0.71379 0.20675 0.90333 0.0
O656 O 0.66597 0.18203 0.91257 0.0
O657 O 0.68929 0.18531 0.90487 0.0
Co658 Co 0.32114 0.80192 0.91945 0.0
O659 O 0.31628 0.81286 0.93761 0.0
O660 O 0.33217 0.79347 0.9364 0.0
C661 C 0.32419 0.82256 0.90458 0.0
O662 O 0.3293 0.7882 0.90282 0.0
Co663 Co 0.30093 0.80437 0.89058 0.0
O664 O 0.31843 0.79431 0.88057 0.0
C665 C 0.29038 0.78708 0.91728 0.0
C666 C 0.32543 0.80371 0.94459 0.0
C667 C 0.32828 0.78715 0.88832 0.0
O668 O 0.30369 0.78758 0.92323 0.0
O669 O 0.28673 0.7943 0.90523 0.0
O670 O 0.33529 0.81804 0.91317 0.0
O671 O 0.31168 0.81525 0.90619 0.0
Co672 Co 0.58153 0.69823 0.81894 0.0
O673 O 0.56358 0.68728 0.81329 0.0
O674 O 0.56425 0.70628 0.82969 0.0
C675 C 0.59648 0.67766 0.82195 0.0
O676 O 0.59778 0.71188 0.82794 0.0
Co677 Co 0.611 0.6966 0.7996 0.0
O678 O 0.62042 0.70624 0.81765 0.0
C679 C 0.58449 0.71397 0.78868 0.0
C680 C 0.55631 0.69619 0.82247 0.0
C681 C 0.61229 0.71308 0.82743 0.0
O682 O 0.57811 0.71295 0.80175 0.0
O683 O 0.59677 0.70704 0.78523 0.0
O684 O 0.58752 0.68184 0.83288 0.0
O685 O 0.5952 0.68523 0.80955 0.0
Co686 Co 0.30301 0.58147 0.82031 0.0
O687 O 0.31352 0.56286 0.81633 0.0
O688 O 0.29415 0.56523 0.83212 0.0
C689 C 0.32387 0.59613 0.82278 0.0
O690 O 0.2898 0.5989 0.82766 0.0
Co691 Co 0.30621 0.60869 0.79804 0.0
O692 O 0.29467 0.61977 0.81385 0.0
C693 C 0.28846 0.58187 0.78924 0.0
C694 C 0.30419 0.55651 0.82576 0.0
C695 C 0.28805 0.61311 0.82484 0.0
O696 O 0.28854 0.57711 0.80303 0.0
O697 O 0.29627 0.59322 0.78471 0.0
O698 O 0.31919 0.58808 0.83421 0.0
O699 O 0.31671 0.59392 0.81027 0.0
Co700 Co 0.41703 0.30157 0.81864 0.0
O701 O 0.43525 0.31211 0.81305 0.0
O702 O 0.4341 0.29317 0.82947 0.0
C703 C 0.4025 0.32248 0.82149 0.0
O704 O 0.40047 0.28825 0.8276 0.0
Co705 Co 0.38757 0.3038 0.79931 0.0
O706 O 0.37794 0.29432 0.81733 0.0
C707 C 0.41377 0.28591 0.78839 0.0
C708 C 0.44229 0.30307 0.82226 0.0
C709 C 0.38594 0.28731 0.82709 0.0
O710 O 0.42019 0.28677 0.80146 0.0
O711 O 0.40162 0.29308 0.78498 0.0
O712 O 0.41129 0.31814 0.8325 0.0
O713 O 0.40368 0.3148 0.80915 0.0
Co714 Co 0.69639 0.41869 0.82174 0.0
O715 O 0.68579 0.43717 0.81747 0.0
O716 O 0.70505 0.43515 0.83342 0.0
C717 C 0.67548 0.40405 0.82416 0.0
O718 O 0.70966 0.40141 0.82939 0.0
Co719 Co 0.69335 0.39109 0.79988 0.0
O720 O 0.70493 0.38032 0.81587 0.0
C721 C 0.71105 0.41788 0.79076 0.0
C722 C 0.69498 0.44371 0.82689 0.0
C723 C 0.71151 0.38717 0.82676 0.0
O724 O 0.71093 0.42288 0.80447 0.0
O725 O 0.70329 0.40642 0.78641 0.0
O726 O 0.68007 0.41215 0.83559 0.0
O727 O 0.68282 0.40611 0.81174 0.0
Co728 Co 0.58114 0.30443 0.17855 0.0
O729 O 0.56297 0.31524 0.18368 0.0
O730 O 0.56412 0.29584 0.16779 0.0
C731 C 0.59581 0.32517 0.17534 0.0
O732 O 0.59768 0.29075 0.17017 0.0
Co733 Co 0.61038 0.30702 0.19819 0.0
O734 O 0.62013 0.29665 0.18073 0.0
C735 C 0.58387 0.28974 0.20928 0.0
C736 C 0.55593 0.30597 0.17468 0.0
C737 C 0.61217 0.28951 0.17103 0.0
O738 O 0.57771 0.29012 0.19607 0.0
O739 O 0.59595 0.29704 0.21268 0.0
O740 O 0.58716 0.3206 0.16431 0.0
O741 O 0.59444 0.3178 0.18783 0.0
Co742 Co 0.69804 0.58269 0.17829 0.0
O743 O 0.68725 0.56428 0.18241 0.0
O744 O 0.70687 0.56615 0.16688 0.0
C745 C 0.67734 0.59748 0.17531 0.0
O746 O 0.71159 0.59983 0.17084 0.0
Co747 Co 0.69476 0.61042 0.19994 0.0
O748 O 0.70689 0.62101 0.18424 0.0
C749 C 0.71199 0.58354 0.20958 0.0
C750 C 0.69661 0.55766 0.17321 0.0
C751 C 0.71358 0.61404 0.17349 0.0
O752 O 0.71217 0.5785 0.19588 0.0
O753 O 0.70419 0.59504 0.21371 0.0
O754 O 0.68211 0.58925 0.16405 0.0
O755 O 0.68435 0.59544 0.18792 0.0
Co756 Co 0.41951 0.69796 0.17856 0.0
O757 O 0.438 0.68719 0.18224 0.0
O758 O 0.4358 0.70689 0.16685 0.0
C759 C 0.40469 0.67726 0.17579 0.0
O760 O 0.40214 0.71147 0.17157 0.0
Co761 Co 0.39237 0.69444 0.20092 0.0
O762 O 0.38134 0.70648 0.18546 0.0
C763 C 0.41936 0.71181 0.20992 0.0
C764 C 0.44442 0.69661 0.17297 0.0
C765 C 0.38797 0.71329 0.17457 0.0
O766 O 0.42405 0.71204 0.1961 0.0
O767 O 0.40802 0.70394 0.21434 0.0
O768 O 0.41267 0.68209 0.16437 0.0
O769 O 0.40703 0.68419 0.18839 0.0
Co770 Co 0.30414 0.41998 0.17686 0.0
O771 O 0.31405 0.43879 0.18123 0.0
O772 O 0.29432 0.43633 0.16594 0.0
C773 C 0.32566 0.40659 0.17331 0.0
O774 O 0.29138 0.40232 0.16924 0.0
Co775 Co 0.30931 0.39193 0.19764 0.0
O776 O 0.29763 0.38104 0.18181 0.0
C777 C 0.29078 0.41759 0.2083 0.0
C778 C 0.30428 0.44515 0.1723 0.0
C779 C 0.29029 0.38793 0.17144 0.0
O780 O 0.29015 0.42304 0.19478 0.0
O781 O 0.29918 0.40635 0.21196 0.0
O782 O 0.32015 0.41457 0.16221 0.0
O783 O 0.31869 0.40788 0.18603 0.0
Co784 Co 0.81998 0.58123 0.69851 0.0
O785 O 0.81481 0.563 0.68778 0.0
O786 O 0.8309 0.56428 0.70701 0.0
C787 C 0.82304 0.59593 0.67775 0.0
O788 O 0.82852 0.5978 0.71203 0.0
Co789 Co 0.80031 0.61044 0.69617 0.0
O790 O 0.81805 0.62025 0.70601 0.0
C791 C 0.78949 0.58407 0.71386 0.0
C792 C 0.82399 0.55604 0.69694 0.0
C793 C 0.82781 0.61231 0.71308 0.0
O794 O 0.80263 0.57779 0.71305 0.0
O795 O 0.78601 0.59622 0.70671 0.0
O796 O 0.83405 0.58721 0.68222 0.0
O797 O 0.81057 0.59456 0.68517 0.0
Co798 Co 0.41808 0.82284 0.69613 0.0
O799 O 0.43662 0.81879 0.68553 0.0
O800 O 0.43448 0.83442 0.70504 0.0
C801 C 0.40345 0.82558 0.67525 0.0
O802 O 0.40073 0.8302 0.70949 0.0
Co803 Co 0.39058 0.80091 0.69262 0.0
O804 O 0.37974 0.81659 0.70452 0.0
C805 C 0.41731 0.79163 0.71031 0.0
C806 C 0.4431 0.82806 0.69491 0.0
C807 C 0.38651 0.82742 0.7113 0.0
O808 O 0.42227 0.80536 0.7104 0.0
O809 O 0.40591 0.78735 0.70242 0.0
O810 O 0.41153 0.83694 0.68003 0.0
O811 O 0.40555 0.81304 0.68237 0.0
Co812 Co 0.17897 0.4172 0.69743 0.0
O813 O 0.1834 0.43556 0.68667 0.0
O814 O 0.16728 0.43376 0.70582 0.0
C815 C 0.17666 0.40226 0.67673 0.0
O816 O 0.17112 0.40012 0.71083 0.0
Co817 Co 0.20076 0.38951 0.69505 0.0
O818 O 0.18463 0.37891 0.7066 0.0
C819 C 0.20979 0.41649 0.71247 0.0
C820 C 0.17393 0.44222 0.69573 0.0
C821 C 0.17368 0.3859 0.71292 0.0
O822 O 0.1961 0.42153 0.71209 0.0
O823 O 0.2142 0.4049 0.70495 0.0
O824 O 0.16525 0.41051 0.6811 0.0
O825 O 0.18905 0.40437 0.68412 0.0
Co826 Co 0.58476 0.17785 0.69684 0.0
O827 O 0.56645 0.18277 0.68621 0.0
O828 O 0.56789 0.16692 0.70561 0.0
C829 C 0.59928 0.17463 0.67598 0.0
O830 O 0.60169 0.16963 0.71021 0.0
Co831 Co 0.61326 0.19847 0.69369 0.0
O832 O 0.62335 0.18223 0.70551 0.0
C833 C 0.58686 0.20888 0.71128 0.0
C834 C 0.55957 0.1737 0.6955 0.0
C835 C 0.616 0.17169 0.71215 0.0
O836 O 0.58125 0.1954 0.7112 0.0
O837 O 0.59854 0.21266 0.70357 0.0
O838 O 0.59071 0.1636 0.68068 0.0
O839 O 0.59776 0.18721 0.68319 0.0
Co840 Co 0.81905 0.41841 0.30198 0.0
O841 O 0.8138 0.43662 0.31272 0.0
O842 O 0.82995 0.4354 0.29355 0.0
C843 C 0.82212 0.40369 0.32273 0.0
O844 O 0.82767 0.40186 0.28845 0.0
Co845 Co 0.7994 0.38919 0.30424 0.0
O846 O 0.81717 0.37941 0.29443 0.0
C847 C 0.78862 0.41553 0.28649 0.0
C848 C 0.82298 0.44362 0.3036 0.0
C849 C 0.82695 0.38735 0.28738 0.0
O850 O 0.80174 0.42184 0.2874 0.0
O851 O 0.78512 0.40336 0.2936 0.0
O852 O 0.8331 0.41245 0.31828 0.0
O853 O 0.80964 0.40504 0.31529 0.0
Co854 Co 0.58283 0.82029 0.30309 0.0
O855 O 0.5643 0.81597 0.3136 0.0
O856 O 0.5664 0.83192 0.29434 0.0
C857 C 0.59746 0.82287 0.32395 0.0
O858 O 0.60015 0.82797 0.28989 0.0
Co859 Co 0.61032 0.79835 0.30618 0.0
O860 O 0.62118 0.81438 0.29474 0.0
C861 C 0.58369 0.78935 0.28824 0.0
C862 C 0.55778 0.82534 0.30434 0.0
C863 C 0.6144 0.82531 0.28814 0.0
O864 O 0.57869 0.80306 0.28853 0.0
O865 O 0.59513 0.78491 0.29596 0.0
O866 O 0.58925 0.8342 0.31934 0.0
O867 O 0.59543 0.81036 0.31674 0.0
Co868 Co 0.18153 0.58235 0.30323 0.0
O869 O 0.18677 0.56425 0.31415 0.0
O870 O 0.17088 0.56521 0.29474 0.0
C871 C 0.17808 0.59722 0.32379 0.0
O872 O 0.17303 0.59877 0.28947 0.0
Co873 Co 0.20112 0.61162 0.30561 0.0
O874 O 0.1835 0.62126 0.2954 0.0
C875 C 0.21222 0.58516 0.28831 0.0
C876 C 0.17781 0.55711 0.30491 0.0
C877 C 0.17379 0.61328 0.28828 0.0
O878 O 0.19905 0.57893 0.2889 0.0
O879 O 0.21563 0.59731 0.29548 0.0
O880 O 0.16721 0.58834 0.3193 0.0
O881 O 0.19067 0.59584 0.31656 0.0
Co882 Co 0.41689 0.18124 0.30292 0.0
O883 O 0.43517 0.18729 0.31308 0.0
O884 O 0.4341 0.17109 0.29394 0.0
C885 C 0.40323 0.17768 0.32428 0.0
O886 O 0.40032 0.17189 0.2899 0.0
Co887 Co 0.38678 0.1993 0.3063 0.0
O888 O 0.37756 0.18115 0.29666 0.0
C889 C 0.41206 0.21158 0.28793 0.0
C890 C 0.44229 0.17838 0.30379 0.0
C891 C 0.38576 0.17185 0.28927 0.0
O892 O 0.41902 0.19876 0.28833 0.0
O893 O 0.39999 0.21434 0.29551 0.0
O894 O 0.41211 0.16696 0.31944 0.0
O895 O 0.40366 0.1901 0.31668 0.0
Co896 Co 0.6991 0.82142 0.58233 0.0
O897 O 0.68852 0.81716 0.56384 0.0
O898 O 0.70802 0.83283 0.56583 0.0
C899 C 0.67824 0.8244 0.5969 0.0
O900 O 0.71239 0.82898 0.59962 0.0
Co901 Co 0.69562 0.7997 0.60996 0.0
O902 O 0.70736 0.81557 0.62073 0.0
C903 C 0.71349 0.79026 0.58343 0.0
C904 C 0.69788 0.82639 0.55728 0.0
C905 C 0.71412 0.82636 0.61388 0.0
O906 O 0.7134 0.80393 0.57831 0.0
O907 O 0.70567 0.78602 0.59489 0.0
O908 O 0.68306 0.83562 0.58864 0.0
O909 O 0.68528 0.81177 0.59497 0.0
Co910 Co 0.69761 0.17904 0.41628 0.0
O911 O 0.68691 0.18316 0.43472 0.0
O912 O 0.70638 0.16744 0.43271 0.0
C913 C 0.67683 0.17629 0.40158 0.0
O914 O 0.71099 0.17161 0.39902 0.0
Co915 Co 0.69443 0.20101 0.38883 0.0
O916 O 0.70619 0.18521 0.37799 0.0
C917 C 0.71219 0.21012 0.41556 0.0
C918 C 0.6962 0.17383 0.44125 0.0
C919 C 0.71285 0.17434 0.38481 0.0
O920 O 0.71196 0.19642 0.42056 0.0
O921 O 0.7045 0.21451 0.40407 0.0
O922 O 0.68156 0.16497 0.40974 0.0
O923 O 0.68392 0.18887 0.40365 0.0
Co924 Co 0.82111 0.69653 0.41962 0.0
O925 O 0.81721 0.68593 0.43819 0.0
O926 O 0.83299 0.7053 0.43586 0.0
C927 C 0.8235 0.67575 0.40482 0.0
O928 O 0.82836 0.70984 0.4022 0.0
Co929 Co 0.79866 0.6934 0.39251 0.0
O930 O 0.81438 0.70505 0.38142 0.0
C931 C 0.79008 0.71123 0.41935 0.0
C932 C 0.82665 0.69522 0.44456 0.0
C933 C 0.82539 0.71167 0.38803 0.0
O934 O 0.80387 0.711 0.42412 0.0
O935 O 0.78547 0.70348 0.40799 0.0
O936 O 0.83497 0.68037 0.41284 0.0
O937 O 0.81101 0.68289 0.40715 0.0
Co938 Co 0.30315 0.82077 0.4171 0.0
O939 O 0.31412 0.81623 0.43533 0.0
O940 O 0.2949 0.83231 0.4338 0.0
C941 C 0.32357 0.8233 0.40185 0.0
O942 O 0.28947 0.82868 0.40029 0.0
Co943 Co 0.30511 0.79912 0.3893 0.0
O944 O 0.29298 0.81505 0.37904 0.0
C945 C 0.28822 0.78992 0.41651 0.0
C946 C 0.30503 0.82558 0.44213 0.0
C947 C 0.28689 0.82603 0.38618 0.0
O948 O 0.28858 0.80361 0.42152 0.0
O949 O 0.29561 0.78553 0.40483 0.0
O950 O 0.31932 0.8346 0.41031 0.0
O951 O 0.31631 0.81084 0.40398 0.0
Co952 Co 0.18273 0.30311 0.41919 0.0
O953 O 0.18741 0.31357 0.43766 0.0
O954 O 0.17114 0.29456 0.43574 0.0
C955 C 0.1804 0.32402 0.40458 0.0
O956 O 0.17467 0.29 0.40197 0.0
Co957 Co 0.2044 0.3058 0.39145 0.0
O958 O 0.18811 0.29455 0.38078 0.0
C959 C 0.21348 0.288 0.41814 0.0
C960 C 0.17797 0.30446 0.44428 0.0
C961 C 0.17715 0.28816 0.3877 0.0
O962 O 0.1998 0.2883 0.42318 0.0
O963 O 0.2179 0.2957 0.40667 0.0
O964 O 0.16904 0.3196 0.41286 0.0
O965 O 0.19277 0.31656 0.40649 0.0
Co966 Co 0.30321 0.17584 0.58391 0.0
O967 O 0.31355 0.18005 0.56529 0.0
O968 O 0.29373 0.16481 0.56744 0.0
C969 C 0.32437 0.17232 0.59792 0.0
O970 O 0.29003 0.16844 0.60135 0.0
Co971 Co 0.30777 0.19706 0.61177 0.0
O972 O 0.29567 0.18146 0.62253 0.0
C973 C 0.28966 0.20731 0.58566 0.0
C974 C 0.30388 0.1711 0.55879 0.0
C975 C 0.28852 0.17096 0.61564 0.0
O976 O 0.28927 0.19372 0.58036 0.0
O977 O 0.29782 0.21118 0.59702 0.0
O978 O 0.31907 0.16123 0.58978 0.0
O979 O 0.31749 0.18507 0.59632 0.0
Co980 Co 0.81944 0.30301 0.58062 0.0
O981 O 0.81548 0.31373 0.56214 0.0
O982 O 0.8314 0.29445 0.5643 0.0
C983 C 0.82166 0.32372 0.59551 0.0
O984 O 0.82678 0.28964 0.59797 0.0
Co985 Co 0.79694 0.30586 0.60772 0.0
O986 O 0.81277 0.29434 0.61876 0.0
C987 C 0.78852 0.28814 0.58075 0.0
C988 C 0.825 0.30457 0.55569 0.0
C989 C 0.82383 0.28778 0.61215 0.0
O990 O 0.80231 0.28846 0.57601 0.0
O991 O 0.78385 0.2958 0.59215 0.0
O992 O 0.83318 0.31923 0.5875 0.0
O993 O 0.80923 0.31649 0.59314 0.0
Co994 Co 0.1791 0.69588 0.58143 0.0
O995 O 0.18354 0.6853 0.56296 0.0
O996 O 0.16772 0.70468 0.56487 0.0
C997 C 0.17627 0.67503 0.59606 0.0
O998 O 0.17128 0.70919 0.5986 0.0
Co999 Co 0.20051 0.69274 0.60935 0.0
O1000 O 0.18448 0.70447 0.61989 0.0
C1001 C 0.21017 0.71029 0.58267 0.0
C1002 C 0.17428 0.6946 0.55634 0.0
C1003 C 0.17371 0.71107 0.61286 0.0
O1004 O 0.19652 0.71029 0.5775 0.0
O1005 O 0.2143 0.7025 0.59419 0.0
O1006 O 0.16503 0.6797 0.58774 0.0
O1007 O 0.18881 0.68223 0.59418 0.0
Co1008 Co 0.41713 0.30349 0.17798 0.0
O1009 O 0.43548 0.31363 0.18375 0.0
O1010 O 0.43425 0.29412 0.16801 0.0
C1011 C 0.40372 0.3249 0.17388 0.0
O1012 O 0.4004 0.29042 0.169 0.0
Co1013 Co 0.38712 0.30765 0.19603 0.0
O1014 O 0.37776 0.29778 0.17809 0.0
C1015 C 0.4121 0.28903 0.20859 0.0
C1016 C 0.44251 0.30411 0.17503 0.0
C1017 C 0.38583 0.29003 0.16898 0.0
O1018 O 0.41916 0.28929 0.19582 0.0
O1019 O 0.40007 0.29673 0.21121 0.0
O1020 O 0.41251 0.31965 0.16327 0.0
O1021 O 0.40407 0.31763 0.18651 0.0
Co1022 Co 0.69753 0.41942 0.17738 0.0
O1023 O 0.68705 0.43803 0.18137 0.0
O1024 O 0.70683 0.4358 0.16609 0.0
C1025 C 0.67656 0.40507 0.17413 0.0
O1026 O 0.71082 0.40198 0.17014 0.0
Co1027 Co 0.69332 0.39183 0.19905 0.0
O1028 O 0.70543 0.38096 0.18354 0.0
C1029 C 0.71104 0.41833 0.20887 0.0
C1030 C 0.69665 0.44448 0.1723 0.0
C1031 C 0.71245 0.38773 0.17287 0.0
O1032 O 0.7115 0.42333 0.19516 0.0
O1033 O 0.70292 0.40701 0.21292 0.0
O1034 O 0.68165 0.41317 0.16291 0.0
O1035 O 0.68345 0.40699 0.18682 0.0
Co1036 Co 0.58233 0.69865 0.17908 0.0
O1037 O 0.5637 0.68809 0.18272 0.0
O1038 O 0.56617 0.70773 0.1673 0.0
C1039 C 0.59694 0.6778 0.17636 0.0
O1040 O 0.59985 0.71195 0.1721 0.0
Co1041 Co 0.60937 0.69492 0.20151 0.0
O1042 O 0.62059 0.70672 0.186 0.0
C1043 C 0.5825 0.71254 0.21044 0.0
C1044 C 0.55742 0.69755 0.17339 0.0
C1045 C 0.61405 0.71357 0.17508 0.0
O1046 O 0.57788 0.7128 0.1966 0.0
O1047 O 0.59378 0.70457 0.21489 0.0
O1048 O 0.58902 0.6827 0.16494 0.0
O1049 O 0.59465 0.68475 0.18897 0.0
Co1050 Co 0.30249 0.58342 0.17842 0.0
O1051 O 0.31319 0.56497 0.18251 0.0
O1052 O 0.29344 0.5669 0.16714 0.0
C1053 C 0.32327 0.59803 0.17521 0.0
O1054 O 0.28901 0.60065 0.17103 0.0
Co1055 Co 0.30619 0.61118 0.19996 0.0
O1056 O 0.29412 0.62184 0.18427 0.0
C1057 C 0.2888 0.58447 0.20983 0.0
C1058 C 0.30371 0.55838 0.17341 0.0
C1059 C 0.28724 0.61491 0.17362 0.0
O1060 O 0.2885 0.57938 0.19615 0.0
O1061 O 0.29669 0.59596 0.21385 0.0
O1062 O 0.31834 0.58981 0.16401 0.0
O1063 O 0.31635 0.59609 0.18789 0.0
Co1064 Co 0.41777 0.69848 0.81809 0.0
O1065 O 0.43592 0.68771 0.81271 0.0
O1066 O 0.43479 0.70671 0.82908 0.0
C1067 C 0.40296 0.67778 0.8209 0.0
O1068 O 0.40133 0.71201 0.82689 0.0
Co1069 Co 0.38849 0.69666 0.7985 0.0
O1070 O 0.3788 0.70643 0.81635 0.0
C1071 C 0.41507 0.71404 0.78775 0.0
C1072 C 0.44296 0.6967 0.822 0.0
C1073 C 0.38683 0.71326 0.82621 0.0
O1074 O 0.42127 0.71322 0.80093 0.0
O1075 O 0.40289 0.70698 0.78421 0.0
O1076 O 0.41174 0.68205 0.83195 0.0
O1077 O 0.40432 0.68538 0.80853 0.0
Co1078 Co 0.30212 0.41838 0.82041 0.0
O1079 O 0.31293 0.43674 0.81617 0.0
O1080 O 0.29351 0.43495 0.83197 0.0
C1081 C 0.3228 0.4035 0.82312 0.0
O1082 O 0.28863 0.40124 0.82798 0.0
Co1083 Co 0.30504 0.39082 0.79851 0.0
O1084 O 0.29326 0.38014 0.81441 0.0
C1085 C 0.2876 0.41771 0.78932 0.0
C1086 C 0.30374 0.44339 0.82552 0.0
C1087 C 0.28668 0.38703 0.82529 0.0
O1088 O 0.28773 0.42268 0.80304 0.0
O1089 O 0.29529 0.40621 0.78496 0.0
O1090 O 0.3182 0.41175 0.83444 0.0
O1091 O 0.31567 0.40561 0.81058 0.0
Co1092 Co 0.58115 0.30244 0.81914 0.0
O1093 O 0.56302 0.31292 0.8132 0.0
O1094 O 0.56385 0.29381 0.82944 0.0
C1095 C 0.5954 0.32344 0.82262 0.0
O1096 O 0.59759 0.28917 0.82838 0.0
Co1097 Co 0.61104 0.30518 0.80056 0.0
O1098 O 0.62029 0.2956 0.81874 0.0
C1099 C 0.58529 0.28721 0.78877 0.0
C1100 C 0.55579 0.30377 0.82216 0.0
C1101 C 0.61214 0.28841 0.82823 0.0
O1102 O 0.57857 0.2878 0.80171 0.0
O1103 O 0.59742 0.29459 0.78573 0.0
O1104 O 0.58638 0.31888 0.83335 0.0
O1105 O 0.59461 0.31591 0.81017 0.0
Co1106 Co 0.69686 0.58186 0.82165 0.0
O1107 O 0.6863 0.5633 0.81764 0.0
O1108 O 0.70578 0.56553 0.8333 0.0
C1109 C 0.67599 0.59648 0.82432 0.0
O1110 O 0.71016 0.59924 0.829 0.0
Co1111 Co 0.69342 0.6093 0.79964 0.0
O1112 O 0.70518 0.62023 0.8154 0.0
C1113 C 0.71105 0.58252 0.79045 0.0
C1114 C 0.69566 0.55687 0.82697 0.0
C1115 C 0.71192 0.61347 0.82625 0.0
O1116 O 0.71117 0.57763 0.80421 0.0
O1117 O 0.70317 0.59389 0.78612 0.0
O1118 O 0.68075 0.58841 0.8357 0.0
O1119 O 0.68311 0.59436 0.81178 0.0
Co1120 Co 0.18336 0.41843 0.30283 0.0
O1121 O 0.18922 0.43651 0.31347 0.0
O1122 O 0.17268 0.43567 0.2946 0.0
C1123 C 0.1804 0.40385 0.32368 0.0
O1124 O 0.17409 0.40211 0.28946 0.0
Co1125 Co 0.20221 0.38867 0.30473 0.0
O1126 O 0.18403 0.37936 0.29524 0.0
C1127 C 0.2134 0.41475 0.28681 0.0
C1128 C 0.17999 0.44371 0.30456 0.0
C1129 C 0.17437 0.38758 0.28836 0.0
O1130 O 0.20048 0.42144 0.28793 0.0
O1131 O 0.21666 0.40247 0.29384 0.0
O1132 O 0.1695 0.41281 0.31941 0.0
O1133 O 0.19272 0.40486 0.31596 0.0
Co1134 Co 0.58106 0.18094 0.30133 0.0
O1135 O 0.56287 0.18652 0.31191 0.0
O1136 O 0.56396 0.17021 0.29287 0.0
C1137 C 0.59555 0.17797 0.32224 0.0
O1138 O 0.59762 0.17203 0.28798 0.0
Co1139 Co 0.61057 0.20021 0.30376 0.0
O1140 O 0.62015 0.1822 0.29421 0.0
C1141 C 0.5843 0.21136 0.28612 0.0
C1142 C 0.55579 0.17739 0.30281 0.0
C1143 C 0.61216 0.1725 0.28711 0.0
O1144 O 0.57795 0.19825 0.28668 0.0
O1145 O 0.59642 0.21468 0.29339 0.0
O1146 O 0.58678 0.16697 0.31783 0.0
O1147 O 0.59439 0.19033 0.31461 0.0
Co1148 Co 0.82051 0.58231 0.30203 0.0
O1149 O 0.81468 0.56436 0.31291 0.0
O1150 O 0.83109 0.56494 0.29393 0.0
C1151 C 0.82363 0.59716 0.32267 0.0
O1152 O 0.82968 0.59849 0.28841 0.0
Co1153 Co 0.80152 0.612 0.30372 0.0
O1154 O 0.81962 0.62124 0.29401 0.0
C1155 C 0.79028 0.58563 0.28631 0.0
C1156 C 0.82379 0.55703 0.30399 0.0
C1157 C 0.82931 0.613 0.28717 0.0
O1158 O 0.80328 0.5791 0.28729 0.0
O1159 O 0.78699 0.59794 0.29327 0.0
O1160 O 0.83448 0.58811 0.31846 0.0
O1161 O 0.81124 0.59604 0.31506 0.0
Co1162 Co 0.41936 0.82087 0.30123 0.0
O1163 O 0.43741 0.81589 0.31233 0.0
O1164 O 0.43643 0.83191 0.29304 0.0
C1165 C 0.40423 0.82386 0.3217 0.0
O1166 O 0.40292 0.82921 0.28736 0.0
Co1167 Co 0.39038 0.8008 0.30315 0.0
O1168 O 0.38055 0.81845 0.29318 0.0
C1169 C 0.4172 0.79026 0.28603 0.0
C1170 C 0.4445 0.82508 0.30331 0.0
C1171 C 0.38842 0.82831 0.28617 0.0
O1172 O 0.42325 0.80351 0.28682 0.0
O1173 O 0.405 0.78663 0.293 0.0
O1174 O 0.41294 0.83494 0.31737 0.0
O1175 O 0.40588 0.81138 0.31435 0.0
Co1176 Co 0.1796 0.5804 0.69765 0.0
O1177 O 0.1838 0.56182 0.6872 0.0
O1178 O 0.16789 0.56406 0.70648 0.0
C1179 C 0.17708 0.59493 0.6767 0.0
O1180 O 0.17201 0.59781 0.71078 0.0
Co1181 Co 0.20157 0.60786 0.69437 0.0
O1182 O 0.18559 0.61882 0.70579 0.0
C1183 C 0.21058 0.58125 0.71236 0.0
C1184 C 0.17437 0.55539 0.69646 0.0
C1185 C 0.17468 0.61207 0.71244 0.0
O1186 O 0.19687 0.57627 0.7122 0.0
O1187 O 0.21499 0.59264 0.70454 0.0
O1188 O 0.1657 0.58682 0.68138 0.0
O1189 O 0.18957 0.59289 0.68394 0.0
Co1190 Co 0.42086 0.1768 0.69665 0.0
O1191 O 0.43932 0.18199 0.68638 0.0
O1192 O 0.43774 0.16628 0.70588 0.0
C1193 C 0.40707 0.17324 0.67537 0.0
O1194 O 0.40395 0.16835 0.70984 0.0
Co1195 Co 0.39145 0.19592 0.69275 0.0
O1196 O 0.38157 0.17831 0.70274 0.0
C1197 C 0.41714 0.20763 0.71091 0.0
C1198 C 0.44616 0.17309 0.69588 0.0
C1199 C 0.38939 0.16887 0.71037 0.0
O1200 O 0.42359 0.19455 0.71086 0.0
O1201 O 0.40523 0.2107 0.70319 0.0
O1202 O 0.41555 0.16231 0.68046 0.0
O1203 O 0.40798 0.18581 0.68267 0.0
Co1204 Co 0.81864 0.41765 0.69779 0.0
O1205 O 0.81392 0.43595 0.68706 0.0
O1206 O 0.82998 0.43441 0.70629 0.0
C1207 C 0.82145 0.40284 0.6771 0.0
O1208 O 0.8267 0.40066 0.71117 0.0
Co1209 Co 0.79723 0.38972 0.69514 0.0
O1210 O 0.81348 0.37931 0.70669 0.0
C1211 C 0.78774 0.41647 0.71263 0.0
C1212 C 0.82322 0.44275 0.69617 0.0
C1213 C 0.82432 0.38639 0.71313 0.0
O1214 O 0.80137 0.42164 0.71236 0.0
O1215 O 0.78349 0.40487 0.70503 0.0
O1216 O 0.83262 0.41133 0.6816 0.0
O1217 O 0.80892 0.40469 0.68433 0.0
Co1218 Co 0.58128 0.82168 0.69625 0.0
O1219 O 0.56288 0.81761 0.6854 0.0
O1220 O 0.56479 0.83334 0.70486 0.0
C1221 C 0.59624 0.82427 0.6756 0.0
O1222 O 0.59842 0.82912 0.7098 0.0
Co1223 Co 0.60885 0.79975 0.69334 0.0
O1224 O 0.61952 0.8155 0.70533 0.0
C1225 C 0.58176 0.79053 0.71048 0.0
C1226 C 0.55629 0.82696 0.69464 0.0
C1227 C 0.61261 0.82638 0.71188 0.0
O1228 O 0.57686 0.80428 0.71054 0.0
O1229 O 0.59325 0.78622 0.70276 0.0
O1230 O 0.58809 0.83567 0.68017 0.0
O1231 O 0.59401 0.81177 0.68275 0.0
Co1232 Co 0.30391 0.17807 0.42063 0.0
O1233 O 0.31428 0.18207 0.43929 0.0
O1234 O 0.2947 0.16654 0.4369 0.0
C1235 C 0.32499 0.1752 0.40638 0.0
O1236 O 0.29079 0.17076 0.40312 0.0
Co1237 Co 0.30789 0.1999 0.39315 0.0
O1238 O 0.29621 0.18417 0.38212 0.0
C1239 C 0.28977 0.20932 0.41956 0.0
C1240 C 0.30479 0.17281 0.44564 0.0
C1241 C 0.28927 0.17343 0.38885 0.0
O1242 O 0.28967 0.19563 0.42462 0.0
O1243 O 0.29777 0.21354 0.40822 0.0
O1244 O 0.31998 0.16387 0.41435 0.0
O1245 O 0.31793 0.1878 0.40832 0.0
Co1246 Co 0.30194 0.81949 0.58059 0.0
O1247 O 0.31289 0.81428 0.56251 0.0
O1248 O 0.2936 0.8303 0.56347 0.0
C1249 C 0.32257 0.82272 0.59544 0.0
O1250 O 0.28822 0.82806 0.597 0.0
Co1251 Co 0.30416 0.79998 0.60992 0.0
O1252 O 0.29423 0.81776 0.61954 0.0
C1253 C 0.28672 0.78894 0.58347 0.0
C1254 C 0.30383 0.82343 0.5554 0.0
C1255 C 0.28713 0.82744 0.61152 0.0
O1256 O 0.28751 0.80204 0.5771 0.0
O1257 O 0.29379 0.78556 0.59569 0.0
O1258 O 0.31811 0.83367 0.58664 0.0
O1259 O 0.3152 0.81021 0.59408 0.0
Co1260 Co 0.18071 0.29994 0.5829 0.0
O1261 O 0.18641 0.31056 0.56476 0.0
O1262 O 0.17014 0.29147 0.5657 0.0
C1263 C 0.17745 0.32084 0.59738 0.0
O1264 O 0.17164 0.28654 0.59931 0.0
Co1265 Co 0.19955 0.30232 0.61265 0.0
O1266 O 0.18147 0.2927 0.62201 0.0
C1267 C 0.21103 0.28446 0.58665 0.0
C1268 C 0.1773 0.30149 0.55761 0.0
C1269 C 0.17191 0.28561 0.61385 0.0
O1270 O 0.19807 0.28528 0.57998 0.0
O1271 O 0.21417 0.29165 0.59887 0.0
O1272 O 0.16661 0.31637 0.58844 0.0
O1273 O 0.18988 0.31328 0.5964 0.0
Co1274 Co 0.69872 0.17801 0.57938 0.0
O1275 O 0.68799 0.18244 0.56099 0.0
O1276 O 0.70747 0.16669 0.56277 0.0
C1277 C 0.67789 0.17515 0.59399 0.0
O1278 O 0.71225 0.17022 0.59633 0.0
Co1279 Co 0.69578 0.19865 0.60787 0.0
O1280 O 0.70566 0.18131 0.61833 0.0
C1281 C 0.71321 0.20893 0.58113 0.0
C1282 C 0.69729 0.1732 0.55432 0.0
C1283 C 0.713 0.17139 0.61083 0.0
O1284 O 0.71297 0.1955 0.57545 0.0
O1285 O 0.70581 0.2127 0.59304 0.0
O1286 O 0.6826 0.16388 0.58573 0.0
O1287 O 0.68517 0.18765 0.59225 0.0
Co1288 Co 0.82114 0.69737 0.58273 0.0
O1289 O 0.81677 0.68654 0.56439 0.0
O1290 O 0.83283 0.70574 0.56614 0.0
C1291 C 0.82352 0.67671 0.59772 0.0
O1292 O 0.82892 0.71083 0.5998 0.0
Co1293 Co 0.79927 0.69493 0.61035 0.0
O1294 O 0.81532 0.70658 0.62095 0.0
C1295 C 0.79024 0.71221 0.5833 0.0
C1296 C 0.82624 0.69559 0.55772 0.0
C1297 C 0.82629 0.71293 0.61401 0.0
O1298 O 0.80396 0.71196 0.57835 0.0
O1299 O 0.78581 0.70464 0.59485 0.0
O1300 O 0.83491 0.6811 0.58945 0.0
O1301 O 0.81111 0.68404 0.59557 0.0
Co1302 Co 0.69862 0.81986 0.41918 0.0
O1303 O 0.68788 0.81564 0.43761 0.0
O1304 O 0.70713 0.83163 0.43561 0.0
C1305 C 0.67793 0.82222 0.40426 0.0
O1306 O 0.71199 0.82753 0.40202 0.0
Co1307 Co 0.69609 0.79789 0.39166 0.0
O1308 O 0.70766 0.8139 0.38091 0.0
C1309 C 0.71332 0.78891 0.41876 0.0
C1310 C 0.69702 0.82513 0.44415 0.0
C1311 C 0.71402 0.82489 0.38781 0.0
O1312 O 0.71317 0.80268 0.4236 0.0
O1313 O 0.70572 0.78446 0.40725 0.0
O1314 O 0.68238 0.83363 0.41246 0.0
O1315 O 0.68521 0.80977 0.40644 0.0
Co1316 Co 0.17887 0.69932 0.41812 0.0
O1317 O 0.18335 0.68828 0.43631 0.0
O1318 O 0.16729 0.7075 0.43485 0.0
C1319 C 0.17641 0.67886 0.40288 0.0
O1320 O 0.17098 0.71304 0.40131 0.0
Co1321 Co 0.20046 0.69729 0.39024 0.0
O1322 O 0.18453 0.70941 0.38001 0.0
C1323 C 0.20979 0.71406 0.41752 0.0
C1324 C 0.17394 0.69729 0.44313 0.0
C1325 C 0.17359 0.71557 0.38717 0.0
O1326 O 0.1961 0.71383 0.42256 0.0
O1327 O 0.21407 0.70662 0.40583 0.0
O1328 O 0.16506 0.68312 0.41127 0.0
O1329 O 0.18882 0.68619 0.40502 0.0
Co1330 Co 0.82046 0.30214 0.41757 0.0
O1331 O 0.8162 0.31277 0.43605 0.0
O1332 O 0.8322 0.29354 0.434 0.0
C1333 C 0.82282 0.32294 0.40278 0.0
O1334 O 0.82813 0.28883 0.40034 0.0
Co1335 Co 0.79853 0.3049 0.39001 0.0
O1336 O 0.8145 0.29327 0.37925 0.0
C1337 C 0.7895 0.28747 0.41697 0.0
C1338 C 0.82566 0.3036 0.44257 0.0
C1339 C 0.82547 0.28684 0.38613 0.0
O1340 O 0.80325 0.28756 0.42186 0.0
O1341 O 0.78508 0.29518 0.40551 0.0
O1342 O 0.83424 0.31845 0.41094 0.0
O1343 O 0.8104 0.31561 0.4049 0.0
H1344 H 0.10578 0.22827 0.35491 0.0
H1345 H 0.18117 0.27823 0.35864 0.0
H1346 H 0.14303 0.22438 0.32342 0.0
H1347 H 0.15072 0.27412 0.39674 0.0
H1348 H 0.16565 0.26033 0.34462 0.0
H1349 H 0.12062 0.24663 0.3696 0.0
C1350 C 0.11705 0.23123 0.35108 0.0
C1351 C 0.12314 0.22473 0.33788 0.0
C1352 C 0.16234 0.26332 0.35605 0.0
C1353 C 0.14007 0.24579 0.35455 0.0
C1354 C 0.17118 0.27363 0.36407 0.0
C1355 C 0.16731 0.2777 0.37896 0.0
C1356 C 0.14941 0.25705 0.36284 0.0
C1357 C 0.15419 0.27128 0.38532 0.0
C1358 C 0.12551 0.24169 0.35949 0.0
C1359 C 0.13783 0.22901 0.33351 0.0
N1360 N 0.14569 0.26127 0.37722 0.0
N1361 N 0.14573 0.23929 0.34177 0.0
H1362 H 0.72319 0.1792 0.356 0.0
H1363 H 0.77413 0.10451 0.35191 0.0
H1364 H 0.72721 0.14804 0.39353 0.0
H1365 H 0.77773 0.14191 0.32054 0.0
H1366 H 0.75558 0.11907 0.36656 0.0
H1367 H 0.74157 0.16423 0.34195 0.0
C1368 C 0.72788 0.16917 0.3613 0.0
C1369 C 0.72363 0.16492 0.37603 0.0
C1370 C 0.76049 0.12407 0.3565 0.0
C1371 C 0.74481 0.14768 0.35989 0.0
C1372 C 0.77107 0.11577 0.34811 0.0
C1373 C 0.77752 0.12197 0.33494 0.0
C1374 C 0.75623 0.13859 0.35159 0.0
C1375 C 0.77312 0.13664 0.33061 0.0
C1376 C 0.73845 0.16066 0.35326 0.0
C1377 C 0.73017 0.15179 0.38224 0.0
N1378 N 0.76272 0.14439 0.33886 0.0
N1379 N 0.74042 0.14362 0.37413 0.0
H1380 H 0.82003 0.72191 0.3593 0.0
H1381 H 0.89488 0.77239 0.3531 0.0
H1382 H 0.85196 0.72594 0.39617 0.0
H1383 H 0.8566 0.77614 0.32285 0.0
H1384 H 0.88063 0.75398 0.36826 0.0
H1385 H 0.83479 0.74013 0.34485 0.0
C1386 C 0.83019 0.72657 0.36437 0.0
C1387 C 0.83472 0.72237 0.37903 0.0
C1388 C 0.87537 0.7589 0.35832 0.0
C1389 C 0.85173 0.74337 0.36243 0.0
C1390 C 0.8835 0.76939 0.34965 0.0
C1391 C 0.87696 0.77584 0.33664 0.0
C1392 C 0.86068 0.75472 0.35386 0.0
C1393 C 0.86214 0.77153 0.33277 0.0
C1394 C 0.83859 0.73705 0.3561 0.0
C1395 C 0.848 0.72887 0.38494 0.0
N1396 N 0.85457 0.76121 0.34128 0.0
N1397 N 0.85607 0.73904 0.3766 0.0
H1398 H 0.21826 0.85736 0.32431 0.0
H1399 H 0.27414 0.853 0.39534 0.0
H1400 H 0.22628 0.89569 0.35368 0.0
H1401 H 0.27424 0.82096 0.35835 0.0
H1402 H 0.25509 0.86801 0.3818 0.0
H1403 H 0.23694 0.84291 0.3385 0.0
C1404 C 0.22388 0.86276 0.33379 0.0
C1405 C 0.22069 0.87783 0.33774 0.0
C1406 C 0.25936 0.85772 0.37666 0.0
C1407 C 0.24222 0.86123 0.35408 0.0
C1408 C 0.27021 0.84913 0.38438 0.0
C1409 C 0.27584 0.83568 0.37799 0.0
C1410 C 0.25396 0.85272 0.36256 0.0
C1411 C 0.27032 0.83125 0.36374 0.0
C1412 C 0.23463 0.85449 0.34185 0.0
C1413 C 0.2284 0.88414 0.35017 0.0
N1414 N 0.25966 0.8397 0.35657 0.0
N1415 N 0.23882 0.8758 0.35791 0.0
H1416 H 0.14748 0.72531 0.60365 0.0
H1417 H 0.14228 0.77613 0.67834 0.0
H1418 H 0.17805 0.72156 0.64169 0.0
H1419 H 0.10505 0.77222 0.64681 0.0
H1420 H 0.15643 0.75774 0.66354 0.0
H1421 H 0.13251 0.74382 0.61799 0.0
C1422 C 0.15104 0.72832 0.615 0.0
C1423 C 0.16408 0.72184 0.62145 0.0
C1424 C 0.14516 0.76087 0.65983 0.0
C1425 C 0.14708 0.74308 0.63781 0.0
C1426 C 0.13707 0.77146 0.66826 0.0
C1427 C 0.12239 0.77576 0.66386 0.0
C1428 C 0.13866 0.75453 0.64679 0.0
C1429 C 0.1163 0.76922 0.65067 0.0
C1430 C 0.14247 0.73887 0.62317 0.0
C1431 C 0.1681 0.72619 0.63622 0.0
N1432 N 0.12448 0.75895 0.64257 0.0
N1433 N 0.15969 0.73656 0.64383 0.0
H1434 H 0.27889 0.17572 0.6447 0.0
H1435 H 0.22428 0.10372 0.64861 0.0
H1436 H 0.27281 0.14549 0.60669 0.0
H1437 H 0.22235 0.14137 0.67982 0.0
H1438 H 0.24344 0.11741 0.63387 0.0
H1439 H 0.25989 0.16153 0.6587 0.0
C1440 C 0.27363 0.16605 0.63929 0.0
C1441 C 0.27747 0.16185 0.62443 0.0
C1442 C 0.23874 0.12265 0.64392 0.0
C1443 C 0.25555 0.14551 0.64052 0.0
C1444 C 0.22782 0.11486 0.65235 0.0
C1445 C 0.22167 0.12138 0.66551 0.0
C1446 C 0.24367 0.13698 0.64878 0.0
C1447 C 0.2267 0.13587 0.66976 0.0
C1448 C 0.26269 0.15798 0.6473 0.0
C1449 C 0.27018 0.14919 0.61808 0.0
N1450 N 0.23744 0.1431 0.66149 0.0
N1451 N 0.25957 0.14144 0.62617 0.0
H1452 H 0.81868 0.27783 0.64101 0.0
H1453 H 0.89335 0.22707 0.64724 0.0
H1454 H 0.85031 0.27333 0.60393 0.0
H1455 H 0.85528 0.224 0.67783 0.0
H1456 H 0.87907 0.24536 0.63192 0.0
H1457 H 0.83348 0.25973 0.65552 0.0
C1458 C 0.82878 0.27309 0.6359 0.0
C1459 C 0.8332 0.27713 0.62116 0.0
C1460 C 0.87387 0.24061 0.64197 0.0
C1461 C 0.85028 0.25624 0.63785 0.0
C1462 C 0.882 0.23019 0.65073 0.0
C1463 C 0.87553 0.22397 0.66388 0.0
C1464 C 0.85925 0.24495 0.64649 0.0
C1465 C 0.86077 0.22843 0.66781 0.0
C1466 C 0.83721 0.26267 0.64421 0.0
C1467 C 0.84643 0.27053 0.61522 0.0
N1468 N 0.8532 0.23867 0.65921 0.0
N1469 N 0.85453 0.26042 0.6236 0.0
H1470 H 0.77843 0.85688 0.68057 0.0
H1471 H 0.72827 0.85285 0.60533 0.0
H1472 H 0.77405 0.89486 0.65001 0.0
H1473 H 0.72457 0.82133 0.64259 0.0
H1474 H 0.74658 0.86762 0.62015 0.0
H1475 H 0.76047 0.84275 0.66518 0.0
C1476 C 0.77375 0.86226 0.67058 0.0
C1477 C 0.77777 0.87714 0.66663 0.0
C1478 C 0.74169 0.85749 0.62505 0.0
C1479 C 0.75707 0.86091 0.64889 0.0
C1480 C 0.73127 0.84904 0.6166 0.0
C1481 C 0.72484 0.83581 0.6227 0.0
C1482 C 0.74584 0.85256 0.6396 0.0
C1483 C 0.72915 0.83145 0.63739 0.0
C1484 C 0.76342 0.85418 0.66182 0.0
C1485 C 0.77125 0.88345 0.65353 0.0
N1486 N 0.7394 0.83975 0.64527 0.0
N1487 N 0.76123 0.87529 0.64511 0.0
H1488 H 0.34232 0.13979 0.20898 0.0
H1489 H 0.35979 0.1556 0.29355 0.0
H1490 H 0.33464 0.10388 0.2412 0.0
H1491 H 0.39455 0.16501 0.26054 0.0
H1492 H 0.34663 0.13981 0.27468 0.0
H1493 H 0.35815 0.15288 0.22783 0.0
C1494 C 0.34405 0.13466 0.21999 0.0
C1495 C 0.33729 0.12075 0.22359 0.0
C1496 C 0.35721 0.14526 0.27169 0.0
C1497 C 0.35483 0.13576 0.24514 0.0
C1498 C 0.36466 0.15426 0.28236 0.0
C1499 C 0.37826 0.16151 0.27854 0.0
C1500 C 0.36317 0.14401 0.25701 0.0
C1501 C 0.38414 0.15947 0.26391 0.0
C1502 C 0.35307 0.14207 0.23066 0.0
C1503 C 0.33981 0.11454 0.238 0.0
N1504 N 0.37641 0.15111 0.25355 0.0
N1505 N 0.34818 0.12223 0.2484 0.0
H1506 H 0.89642 0.33481 0.24193 0.0
H1507 H 0.83454 0.39639 0.25892 0.0
H1508 H 0.86103 0.34269 0.20919 0.0
H1509 H 0.84224 0.36078 0.29147 0.0
H1510 H 0.85009 0.38244 0.24045 0.0
H1511 H 0.88229 0.35015 0.26044 0.0
C1512 C 0.88579 0.33995 0.23861 0.0
C1513 C 0.8798 0.33752 0.22409 0.0
C1514 C 0.84843 0.37782 0.25169 0.0
C1515 C 0.86395 0.35517 0.24492 0.0
C1516 C 0.83969 0.38575 0.26221 0.0
C1517 C 0.83714 0.37965 0.27666 0.0
C1518 C 0.85503 0.364 0.25588 0.0
C1519 C 0.84392 0.36577 0.28039 0.0
C1520 C 0.87775 0.34858 0.24915 0.0
C1521 C 0.86593 0.34429 0.22032 0.0
N1522 N 0.8527 0.35844 0.27008 0.0
N1523 N 0.8585 0.35296 0.23065 0.0
H1524 H 0.64855 0.89558 0.22772 0.0
H1525 H 0.64341 0.82072 0.27834 0.0
H1526 H 0.67967 0.85794 0.22457 0.0
H1527 H 0.60578 0.85167 0.27372 0.0
H1528 H 0.65773 0.83583 0.26033 0.0
H1529 H 0.63344 0.88105 0.24598 0.0
C1530 C 0.6522 0.88428 0.23081 0.0
C1531 C 0.66543 0.878 0.22457 0.0
C1532 C 0.64634 0.83934 0.26323 0.0
C1533 C 0.64828 0.86143 0.24552 0.0
C1534 C 0.63814 0.83074 0.2736 0.0
C1535 C 0.6233 0.83488 0.27757 0.0
C1536 C 0.63977 0.85231 0.25679 0.0
C1537 C 0.61715 0.84801 0.27096 0.0
C1538 C 0.64356 0.87601 0.24122 0.0
C1539 C 0.66957 0.86329 0.22901 0.0
N1540 N 0.62543 0.85628 0.2609 0.0
N1541 N 0.66108 0.85558 0.23924 0.0
H1542 H 0.10544 0.66622 0.24173 0.0
H1543 H 0.1667 0.60418 0.2597 0.0
H1544 H 0.1413 0.65812 0.20954 0.0
H1545 H 0.15841 0.63981 0.29209 0.0
H1546 H 0.15151 0.61815 0.24093 0.0
H1547 H 0.11906 0.6506 0.26037 0.0
C1548 C 0.11606 0.66096 0.23854 0.0
C1549 C 0.12233 0.66342 0.22415 0.0
C1550 C 0.15296 0.62277 0.25221 0.0
C1551 C 0.13762 0.64546 0.24514 0.0
C1552 C 0.16149 0.61483 0.2629 0.0
C1553 C 0.16376 0.62093 0.27739 0.0
C1554 C 0.1463 0.63659 0.25626 0.0
C1555 C 0.15693 0.63481 0.28098 0.0
C1556 C 0.12381 0.65218 0.24916 0.0
C1557 C 0.13618 0.65651 0.22057 0.0
N1558 N 0.14836 0.64215 0.2705 0.0
N1559 N 0.14334 0.64769 0.23099 0.0
H1560 H 0.35243 0.89582 0.77384 0.0
H1561 H 0.35772 0.82226 0.72144 0.0
H1562 H 0.32212 0.85754 0.77699 0.0
H1563 H 0.39506 0.85353 0.72622 0.0
H1564 H 0.34356 0.8367 0.74012 0.0
H1565 H 0.36744 0.8819 0.75503 0.0
C1566 C 0.34895 0.8845 0.77064 0.0
C1567 C 0.33596 0.87787 0.77703 0.0
C1568 C 0.35485 0.84042 0.7371 0.0
C1569 C 0.35298 0.862 0.75544 0.0
C1570 C 0.36295 0.83221 0.72635 0.0
C1571 C 0.37767 0.83663 0.72223 0.0
C1572 C 0.36139 0.85328 0.74378 0.0
C1573 C 0.38378 0.84965 0.72907 0.0
C1574 C 0.35753 0.87657 0.75992 0.0
C1575 C 0.33203 0.86315 0.77244 0.0
N1576 N 0.3756 0.85755 0.73951 0.0
N1577 N 0.34044 0.85578 0.7619 0.0
H1578 H 0.14711 0.39501 0.72656 0.0
H1579 H 0.14124 0.32059 0.77776 0.0
H1580 H 0.17808 0.35722 0.72378 0.0
H1581 H 0.10412 0.35213 0.77303 0.0
H1582 H 0.15573 0.3353 0.75953 0.0
H1583 H 0.1319 0.3807 0.74488 0.0
C1584 C 0.1507 0.38372 0.72975 0.0
C1585 C 0.16393 0.37733 0.7236 0.0
C1586 C 0.14441 0.33902 0.76245 0.0
C1587 C 0.14664 0.361 0.74462 0.0
C1588 C 0.13612 0.33064 0.77294 0.0
C1589 C 0.12138 0.33508 0.77696 0.0
C1590 C 0.13803 0.35204 0.75594 0.0
C1591 C 0.11541 0.34824 0.77025 0.0
C1592 C 0.142 0.37556 0.74019 0.0
C1593 C 0.16799 0.36264 0.72815 0.0
N1594 N 0.12377 0.35628 0.76008 0.0
N1595 N 0.15943 0.35503 0.73842 0.0
H1596 H 0.60601 0.1459 0.72665 0.0
H1597 H 0.67974 0.13995 0.77873 0.0
H1598 H 0.64486 0.17541 0.72278 0.0
H1599 H 0.64758 0.10327 0.77479 0.0
H1600 H 0.66555 0.15408 0.75983 0.0
H1601 H 0.61975 0.13092 0.7456 0.0
C1602 C 0.61742 0.14921 0.72972 0.0
C1603 C 0.62426 0.16197 0.72309 0.0
C1604 C 0.66158 0.14294 0.76307 0.0
C1605 C 0.63994 0.14497 0.74483 0.0
C1606 C 0.66965 0.13486 0.77395 0.0
C1607 C 0.66489 0.12034 0.77839 0.0
C1608 C 0.64854 0.13658 0.75658 0.0
C1609 C 0.65171 0.11439 0.77169 0.0
C1610 C 0.62525 0.14064 0.74052 0.0
C1611 C 0.63909 0.16568 0.72752 0.0
N1612 N 0.64397 0.12255 0.76114 0.0
N1613 N 0.64636 0.15729 0.73814 0.0
H1614 H 0.89758 0.66444 0.7585 0.0
H1615 H 0.83544 0.60319 0.7415 0.0
H1616 H 0.86223 0.65662 0.79131 0.0
H1617 H 0.84305 0.63892 0.70905 0.0
H1618 H 0.85109 0.61704 0.75995 0.0
H1619 H 0.88331 0.64926 0.73997 0.0
C1620 C 0.88693 0.65934 0.76183 0.0
C1621 C 0.881 0.66174 0.77637 0.0
C1622 C 0.84938 0.62172 0.74873 0.0
C1623 C 0.86498 0.64428 0.75553 0.0
C1624 C 0.84058 0.61385 0.73822 0.0
C1625 C 0.83799 0.62 0.72381 0.0
C1626 C 0.85599 0.63553 0.74457 0.0
C1627 C 0.84476 0.63389 0.7201 0.0
C1628 C 0.87881 0.65081 0.75128 0.0
C1629 C 0.8671 0.65504 0.78016 0.0
N1630 N 0.85361 0.64116 0.7304 0.0
N1631 N 0.85958 0.64646 0.76981 0.0
H1632 H 0.22657 0.35501 0.10364 0.0
H1633 H 0.2817 0.35842 0.17535 0.0
H1634 H 0.22575 0.32279 0.14045 0.0
H1635 H 0.27425 0.39706 0.14625 0.0
H1636 H 0.26314 0.34419 0.16077 0.0
H1637 H 0.24568 0.36973 0.11744 0.0
C1638 C 0.23037 0.35103 0.11461 0.0
C1639 C 0.2245 0.33763 0.12088 0.0
C1640 C 0.26555 0.35578 0.15755 0.0
C1641 C 0.24644 0.35432 0.13661 0.0
C1642 C 0.27623 0.36392 0.16584 0.0
C1643 C 0.27954 0.37902 0.16209 0.0
C1644 C 0.25815 0.36268 0.1453 0.0
C1645 C 0.27202 0.38548 0.14961 0.0
C1646 C 0.24125 0.35945 0.12247 0.0
C1647 C 0.22985 0.33306 0.13516 0.0
N1648 N 0.26167 0.37727 0.14165 0.0
N1649 N 0.24054 0.34133 0.14247 0.0
H1650 H 0.22782 0.64721 0.89511 0.0
H1651 H 0.27815 0.64208 0.82003 0.0
H1652 H 0.22464 0.67858 0.85768 0.0
H1653 H 0.27378 0.60468 0.8513 0.0
H1654 H 0.26021 0.65649 0.83516 0.0
H1655 H 0.24609 0.63222 0.88051 0.0
C1656 C 0.23092 0.65094 0.88384 0.0
C1657 C 0.22465 0.6642 0.87764 0.0
C1658 C 0.26315 0.64513 0.83873 0.0
C1659 C 0.24561 0.64717 0.86096 0.0
C1660 C 0.27348 0.63688 0.83011 0.0
C1661 C 0.2775 0.62208 0.83435 0.0
C1662 C 0.25681 0.63865 0.85179 0.0
C1663 C 0.27098 0.61602 0.84756 0.0
C1664 C 0.24133 0.64237 0.87552 0.0
C1665 C 0.2291 0.66845 0.86296 0.0
N1666 N 0.26097 0.62434 0.85583 0.0
N1667 N 0.23933 0.66001 0.85519 0.0
H1668 H 0.35965 0.29183 0.8427 0.0
H1669 H 0.3418 0.20766 0.86003 0.0
H1670 H 0.39463 0.25871 0.83458 0.0
H1671 H 0.33415 0.24053 0.89535 0.0
H1672 H 0.35772 0.22625 0.84664 0.0
H1673 H 0.34623 0.27326 0.85861 0.0
C1674 C 0.3645 0.28068 0.84435 0.0
C1675 C 0.37825 0.27674 0.83744 0.0
C1676 C 0.35262 0.22928 0.85739 0.0
C1677 C 0.36286 0.25553 0.85506 0.0
C1678 C 0.34354 0.21877 0.86496 0.0
C1679 C 0.33677 0.22263 0.87879 0.0
C1680 C 0.35442 0.24385 0.86346 0.0
C1681 C 0.33932 0.23714 0.88476 0.0
C1682 C 0.35691 0.27017 0.85341 0.0
C1683 C 0.38411 0.26216 0.83985 0.0
N1684 N 0.34775 0.24737 0.87691 0.0
N1685 N 0.37624 0.25195 0.84827 0.0
H1686 H 0.72157 0.35825 0.82217 0.0
H1687 H 0.77302 0.35394 0.89651 0.0
H1688 H 0.72603 0.39601 0.85299 0.0
H1689 H 0.77649 0.32299 0.85876 0.0
H1690 H 0.75433 0.36872 0.88217 0.0
H1691 H 0.73993 0.3442 0.83713 0.0
C1692 C 0.72635 0.3636 0.83213 0.0
C1693 C 0.72223 0.3784 0.83627 0.0
C1694 C 0.75926 0.35871 0.87706 0.0
C1695 C 0.74342 0.36225 0.85351 0.0
C1696 C 0.7699 0.35026 0.88522 0.0
C1697 C 0.77636 0.33717 0.87885 0.0
C1698 C 0.75493 0.35394 0.86251 0.0
C1699 C 0.77189 0.33299 0.86417 0.0
C1700 C 0.73692 0.35556 0.84064 0.0
C1701 C 0.72889 0.38466 0.84932 0.0
N1702 N 0.76142 0.34128 0.85656 0.0
N1703 N 0.73915 0.37654 0.8575 0.0
H1704 H 0.60306 0.74143 0.83522 0.0
H1705 H 0.66467 0.75817 0.89733 0.0
H1706 H 0.63863 0.70887 0.84305 0.0
H1707 H 0.65681 0.79093 0.86194 0.0
H1708 H 0.64908 0.73977 0.88332 0.0
H1709 H 0.61683 0.75982 0.85103 0.0
C1710 C 0.61364 0.73811 0.84046 0.0
C1711 C 0.6198 0.7237 0.83786 0.0
C1712 C 0.65069 0.75106 0.87877 0.0
C1713 C 0.63524 0.74437 0.85604 0.0
C1714 C 0.65947 0.76153 0.88673 0.0
C1715 C 0.66199 0.77601 0.8807 0.0
C1716 C 0.64406 0.75532 0.86499 0.0
C1717 C 0.65515 0.77983 0.86688 0.0
C1718 C 0.62147 0.74858 0.84936 0.0
C1719 C 0.6336 0.71993 0.84477 0.0
N1720 N 0.64635 0.76956 0.85951 0.0
N1721 N 0.64084 0.73019 0.85368 0.0
H1722 H 0.77504 0.64655 0.10352 0.0
H1723 H 0.72447 0.64261 0.17845 0.0
H1724 H 0.77938 0.67742 0.14125 0.0
H1725 H 0.72783 0.60513 0.14717 0.0
H1726 H 0.74307 0.6564 0.16352 0.0
H1727 H 0.75648 0.63191 0.11812 0.0
C1728 C 0.77215 0.65024 0.11486 0.0
C1729 C 0.7788 0.66328 0.12113 0.0
C1730 C 0.73976 0.64516 0.15991 0.0
C1731 C 0.7575 0.64666 0.1378 0.0
C1732 C 0.72906 0.63727 0.1684 0.0
C1733 C 0.72455 0.62264 0.1641 0.0
C1734 C 0.74599 0.63847 0.1469 0.0
C1735 C 0.73099 0.61635 0.15095 0.0
C1736 C 0.76158 0.64186 0.12318 0.0
C1737 C 0.77462 0.66747 0.1359 0.0
N1738 N 0.74137 0.62432 0.14279 0.0
N1739 N 0.7642 0.65925 0.14366 0.0
H1740 H 0.35273 0.77385 0.10518 0.0
H1741 H 0.35936 0.72372 0.18022 0.0
H1742 H 0.32241 0.77751 0.14342 0.0
H1743 H 0.39602 0.72766 0.14804 0.0
H1744 H 0.34485 0.74196 0.16554 0.0
H1745 H 0.36808 0.75571 0.11956 0.0
C1746 C 0.34931 0.77089 0.11658 0.0
C1747 C 0.33622 0.77723 0.12307 0.0
C1748 C 0.35608 0.73887 0.16168 0.0
C1749 C 0.35366 0.75641 0.13949 0.0
C1750 C 0.36437 0.72837 0.17003 0.0
C1751 C 0.37898 0.72412 0.16539 0.0
C1752 C 0.36232 0.74515 0.14847 0.0
C1753 C 0.38483 0.73063 0.15208 0.0
C1754 C 0.35809 0.76055 0.12478 0.0
C1755 C 0.33239 0.77298 0.13792 0.0
N1756 N 0.37646 0.7408 0.14406 0.0
N1757 N 0.34101 0.7628 0.14556 0.0
H1758 H 0.66446 0.24128 0.10331 0.0
H1759 H 0.60289 0.26092 0.16431 0.0
H1760 H 0.65665 0.20998 0.14001 0.0
H1761 H 0.63884 0.29287 0.15574 0.0
H1762 H 0.61676 0.2418 0.14949 0.0
H1763 H 0.64914 0.26033 0.11671 0.0
C1764 C 0.65933 0.23838 0.11408 0.0
C1765 C 0.66178 0.22411 0.12064 0.0
C1766 C 0.62148 0.25306 0.15079 0.0
C1767 C 0.64415 0.24556 0.13567 0.0
C1768 C 0.61359 0.26395 0.15911 0.0
C1769 C 0.6198 0.27842 0.1612 0.0
C1770 C 0.63537 0.25689 0.14415 0.0
C1771 C 0.63375 0.28179 0.15439 0.0
C1772 C 0.65072 0.24923 0.12169 0.0
C1773 C 0.65504 0.2209 0.13466 0.0
N1774 N 0.64105 0.27112 0.14602 0.0
N1775 N 0.64637 0.23153 0.14169 0.0
H1776 H 0.8586 0.77716 0.68 0.0
H1777 H 0.8529 0.72663 0.60507 0.0
H1778 H 0.8958 0.77271 0.64851 0.0
H1779 H 0.82172 0.72374 0.64267 0.0
H1780 H 0.86807 0.74487 0.61955 0.0
H1781 H 0.84409 0.75919 0.665 0.0
C1782 C 0.86374 0.77246 0.66989 0.0
C1783 C 0.87851 0.77647 0.66556 0.0
C1784 C 0.85793 0.74018 0.6246 0.0
C1785 C 0.86183 0.75575 0.64826 0.0
C1786 C 0.84925 0.72979 0.61635 0.0
C1787 C 0.83598 0.72361 0.62264 0.0
C1788 C 0.85322 0.74453 0.63916 0.0
C1789 C 0.83185 0.72813 0.63733 0.0
C1790 C 0.85543 0.76212 0.66135 0.0
C1791 C 0.88449 0.76993 0.65233 0.0
N1792 N 0.84038 0.73833 0.64503 0.0
N1793 N 0.87612 0.75989 0.64412 0.0
H1794 H 0.2412 0.89651 0.66419 0.0
H1795 H 0.25861 0.83479 0.60244 0.0
H1796 H 0.20872 0.86093 0.65609 0.0
H1797 H 0.29113 0.8429 0.63799 0.0
H1798 H 0.24003 0.85025 0.61635 0.0
H1799 H 0.25979 0.88263 0.64873 0.0
C1800 C 0.23795 0.88589 0.65897 0.0
C1801 C 0.22348 0.87978 0.66138 0.0
C1802 C 0.25129 0.84871 0.62096 0.0
C1803 C 0.2444 0.8642 0.6436 0.0
C1804 C 0.26187 0.84001 0.61306 0.0
C1805 C 0.27634 0.83761 0.61916 0.0
C1806 C 0.25544 0.85538 0.63476 0.0
C1807 C 0.28004 0.84447 0.633 0.0
C1808 C 0.24853 0.878 0.65028 0.0
C1809 C 0.21981 0.86593 0.65452 0.0
N1810 N 0.26966 0.8532 0.64031 0.0
N1811 N 0.23018 0.85863 0.64579 0.0
H1812 H 0.10134 0.24075 0.6655 0.0
H1813 H 0.16433 0.25716 0.60473 0.0
H1814 H 0.1366 0.20777 0.65797 0.0
H1815 H 0.15602 0.2899 0.64003 0.0
H1816 H 0.14836 0.23884 0.61839 0.0
H1817 H 0.1157 0.25912 0.65021 0.0
C1818 C 0.11199 0.23734 0.66043 0.0
C1819 C 0.11787 0.2228 0.66296 0.0
C1820 C 0.14997 0.2501 0.623 0.0
C1821 C 0.13398 0.24347 0.64537 0.0
C1822 C 0.15896 0.26054 0.61524 0.0
C1823 C 0.16146 0.27499 0.62134 0.0
C1824 C 0.1431 0.25438 0.63666 0.0
C1825 C 0.15438 0.27882 0.63504 0.0
C1826 C 0.12015 0.2478 0.65184 0.0
C1827 C 0.13176 0.21892 0.6563 0.0
N1828 N 0.14538 0.26859 0.64222 0.0
N1829 N 0.13933 0.22919 0.64766 0.0
H1830 H 0.75689 0.10298 0.66596 0.0
H1831 H 0.7418 0.16383 0.60287 0.0
H1832 H 0.78984 0.13828 0.65854 0.0
H1833 H 0.70815 0.15666 0.63755 0.0
H1834 H 0.75985 0.14857 0.61768 0.0
H1835 H 0.73885 0.11686 0.64984 0.0
C1836 C 0.76036 0.11354 0.66076 0.0
C1837 C 0.77479 0.11958 0.66354 0.0
C1838 C 0.74846 0.15029 0.62192 0.0
C1839 C 0.75452 0.13514 0.64501 0.0
C1840 C 0.73819 0.15887 0.6135 0.0
C1841 C 0.72355 0.16147 0.61909 0.0
C1842 C 0.74385 0.14391 0.6357 0.0
C1843 C 0.71939 0.15493 0.63296 0.0
C1844 C 0.75009 0.12144 0.65169 0.0
C1845 C 0.77876 0.13335 0.65669 0.0
N1846 N 0.72947 0.1463 0.64077 0.0
N1847 N 0.7687 0.14064 0.64758 0.0
H1848 H 0.89642 0.22659 0.35336 0.0
H1849 H 0.82088 0.2763 0.35736 0.0
H1850 H 0.85891 0.22217 0.32224 0.0
H1851 H 0.85201 0.27296 0.39497 0.0
H1852 H 0.83619 0.25815 0.3434 0.0
H1853 H 0.88162 0.245 0.36799 0.0
C1854 C 0.88509 0.22944 0.34961 0.0
C1855 C 0.87892 0.22279 0.33652 0.0
C1856 C 0.83969 0.26136 0.35471 0.0
C1857 C 0.86203 0.24392 0.35313 0.0
C1858 C 0.83097 0.27181 0.36269 0.0
C1859 C 0.83511 0.27618 0.37742 0.0
C1860 C 0.85276 0.25525 0.36139 0.0
C1861 C 0.84834 0.26989 0.38368 0.0
C1862 C 0.87666 0.23994 0.35798 0.0
C1863 C 0.86416 0.22693 0.33225 0.0
N1864 N 0.85672 0.25975 0.37562 0.0
N1865 N 0.85629 0.23726 0.34047 0.0
H1866 H 0.77771 0.85802 0.32171 0.0
H1867 H 0.72737 0.85167 0.39666 0.0
H1868 H 0.77277 0.89515 0.35321 0.0
H1869 H 0.72485 0.82037 0.35913 0.0
H1870 H 0.74532 0.86708 0.38212 0.0
H1871 H 0.75988 0.84329 0.33665 0.0
C1872 C 0.77293 0.8631 0.3318 0.0
C1873 C 0.77677 0.8779 0.33616 0.0
C1874 C 0.74078 0.85686 0.37709 0.0
C1875 C 0.75622 0.86097 0.3534 0.0
C1876 C 0.73055 0.84804 0.38538 0.0
C1877 C 0.72457 0.83467 0.37913 0.0
C1878 C 0.74516 0.8522 0.36252 0.0
C1879 C 0.7291 0.83057 0.36444 0.0
C1880 C 0.76267 0.85466 0.34031 0.0
C1881 C 0.77011 0.88381 0.34937 0.0
N1882 N 0.73915 0.83925 0.3567 0.0
N1883 N 0.76018 0.87531 0.35755 0.0
H1884 H 0.14652 0.72827 0.39617 0.0
H1885 H 0.14236 0.78382 0.32486 0.0
H1886 H 0.17881 0.72825 0.35941 0.0
H1887 H 0.10367 0.77536 0.35361 0.0
H1888 H 0.15686 0.76546 0.3394 0.0
H1889 H 0.13148 0.74719 0.38245 0.0
C1890 C 0.15045 0.7322 0.38523 0.0
C1891 C 0.16397 0.72662 0.37895 0.0
C1892 C 0.1452 0.76761 0.34255 0.0
C1893 C 0.14691 0.74834 0.36332 0.0
C1894 C 0.1369 0.77817 0.33428 0.0
C1895 C 0.12171 0.78114 0.33795 0.0
C1896 C 0.13837 0.75996 0.35469 0.0
C1897 C 0.11532 0.7734 0.35032 0.0
C1898 C 0.14184 0.74298 0.37742 0.0
C1899 C 0.16846 0.73213 0.36471 0.0
N1900 N 0.12369 0.76315 0.35826 0.0
N1901 N 0.16001 0.74271 0.35745 0.0
H1902 H 0.22733 0.10454 0.35504 0.0
H1903 H 0.27961 0.17825 0.35981 0.0
H1904 H 0.22448 0.14226 0.32398 0.0
H1905 H 0.27435 0.14739 0.39743 0.0
H1906 H 0.26121 0.16354 0.3455 0.0
H1907 H 0.2461 0.11866 0.36987 0.0
C1908 C 0.23061 0.11578 0.35134 0.0
C1909 C 0.22429 0.12221 0.33822 0.0
C1910 C 0.26407 0.15997 0.35689 0.0
C1911 C 0.24583 0.1383 0.35505 0.0
C1912 C 0.27465 0.16834 0.36507 0.0
C1913 C 0.27854 0.1641 0.3799 0.0
C1914 C 0.25734 0.14716 0.36348 0.0
C1915 C 0.27166 0.15112 0.38606 0.0
C1916 C 0.2413 0.12382 0.35983 0.0
C1917 C 0.22897 0.13682 0.33401 0.0
N1918 N 0.2614 0.14309 0.37781 0.0
N1919 N 0.23948 0.14431 0.34235 0.0
H1920 H 0.67802 0.85662 0.77766 0.0
H1921 H 0.60381 0.85284 0.72596 0.0
H1922 H 0.64729 0.89445 0.7732 0.0
H1923 H 0.64113 0.82133 0.72286 0.0
H1924 H 0.61823 0.8675 0.74465 0.0
H1925 H 0.66308 0.84263 0.75923 0.0
C1926 C 0.66809 0.862 0.77287 0.0
C1927 C 0.66396 0.87679 0.77701 0.0
C1928 C 0.62324 0.85739 0.73981 0.0
C1929 C 0.64674 0.86072 0.75575 0.0
C1930 C 0.61502 0.84901 0.72916 0.0
C1931 C 0.62124 0.8358 0.7228 0.0
C1932 C 0.6377 0.85245 0.74424 0.0
C1933 C 0.63584 0.83143 0.72738 0.0
C1934 C 0.65959 0.85399 0.76226 0.0
C1935 C 0.65095 0.8831 0.77032 0.0
N1936 N 0.6435 0.83967 0.73785 0.0
N1937 N 0.64278 0.87502 0.76003 0.0
H1938 H 0.14822 0.60355 0.7267 0.0
H1939 H 0.14339 0.6797 0.7754 0.0
H1940 H 0.17938 0.64104 0.72233 0.0
H1941 H 0.10601 0.64828 0.77218 0.0
H1942 H 0.15757 0.66428 0.75753 0.0
H1943 H 0.13329 0.61855 0.7447 0.0
C1944 C 0.15192 0.61492 0.72948 0.0
C1945 C 0.16511 0.62102 0.72297 0.0
C1946 C 0.14626 0.66074 0.7607 0.0
C1947 C 0.14815 0.63814 0.74362 0.0
C1948 C 0.13815 0.66952 0.77099 0.0
C1949 C 0.12343 0.66533 0.77532 0.0
C1950 C 0.13972 0.64754 0.75471 0.0
C1951 C 0.11729 0.652 0.76913 0.0
C1952 C 0.14337 0.62347 0.73973 0.0
C1953 C 0.16931 0.63583 0.727 0.0
N1954 N 0.12548 0.64355 0.75915 0.0
N1955 N 0.16091 0.64382 0.73709 0.0
H1956 H 0.34417 0.13852 0.79053 0.0
H1957 H 0.36307 0.15325 0.70596 0.0
H1958 H 0.33648 0.10245 0.75849 0.0
H1959 H 0.39754 0.16236 0.73937 0.0
H1960 H 0.34928 0.13803 0.72484 0.0
H1961 H 0.36031 0.15132 0.77173 0.0
C1962 C 0.34595 0.1333 0.77956 0.0
C1963 C 0.3391 0.11942 0.776 0.0
C1964 C 0.35993 0.1433 0.72793 0.0
C1965 C 0.35701 0.1341 0.75452 0.0
C1966 C 0.36773 0.15197 0.71725 0.0
C1967 C 0.38144 0.15895 0.72117 0.0
C1968 C 0.36564 0.14211 0.74271 0.0
C1969 C 0.38705 0.15702 0.73592 0.0
C1970 C 0.35514 0.14055 0.76893 0.0
C1971 C 0.3417 0.11309 0.76165 0.0
N1972 N 0.37898 0.14897 0.74628 0.0
N1973 N 0.35026 0.12061 0.7513 0.0
H1974 H 0.85709 0.32071 0.7773 0.0
H1975 H 0.85083 0.39559 0.72687 0.0
H1976 H 0.89428 0.35219 0.77264 0.0
H1977 H 0.82014 0.3576 0.72373 0.0
H1978 H 0.86619 0.38119 0.74502 0.0
H1979 H 0.84254 0.33562 0.75931 0.0
C1980 C 0.86221 0.3308 0.77255 0.0
C1981 C 0.87699 0.33515 0.77652 0.0
C1982 C 0.85611 0.37604 0.74029 0.0
C1983 C 0.86026 0.35235 0.75576 0.0
C1984 C 0.84732 0.38424 0.72995 0.0
C1985 C 0.83414 0.37782 0.72374 0.0
C1986 C 0.85158 0.36139 0.74456 0.0
C1987 C 0.83019 0.36305 0.72815 0.0
C1988 C 0.85388 0.33928 0.76219 0.0
C1989 C 0.88296 0.34835 0.76989 0.0
N1990 N 0.83882 0.3554 0.73831 0.0
N1991 N 0.87455 0.35652 0.75985 0.0
H1992 H 0.65672 0.13918 0.20783 0.0
H1993 H 0.63831 0.15675 0.29185 0.0
H1994 H 0.66405 0.10397 0.24089 0.0
H1995 H 0.60368 0.16508 0.25842 0.0
H1996 H 0.6518 0.14075 0.27341 0.0
H1997 H 0.64071 0.15268 0.22624 0.0
C1998 C 0.65489 0.13429 0.21894 0.0
C1999 C 0.6616 0.12046 0.2229 0.0
C2000 C 0.64118 0.14602 0.27022 0.0
C2001 C 0.64384 0.13593 0.24394 0.0
C2002 C 0.63355 0.15513 0.28065 0.0
C2003 C 0.61988 0.16212 0.27659 0.0
C2004 C 0.63535 0.14439 0.25553 0.0
C2005 C 0.61414 0.15974 0.26196 0.0
C2006 C 0.64576 0.14193 0.22935 0.0
C2007 C 0.65894 0.11456 0.23742 0.0
N2008 N 0.62205 0.15127 0.25182 0.0
N2009 N 0.65045 0.12247 0.24755 0.0
H2010 H 0.86262 0.65517 0.20666 0.0
H2011 H 0.84503 0.63932 0.29113 0.0
H2012 H 0.89765 0.66392 0.23957 0.0
H2013 H 0.83691 0.60359 0.25882 0.0
H2014 H 0.86106 0.65223 0.27232 0.0
H2015 H 0.84931 0.63949 0.22549 0.0
C2016 C 0.86752 0.6537 0.21782 0.0
C2017 C 0.88124 0.66073 0.22162 0.0
C2018 C 0.85584 0.6415 0.26946 0.0
C2019 C 0.86597 0.64336 0.24312 0.0
C2020 C 0.84671 0.63419 0.28011 0.0
C2021 C 0.83976 0.62038 0.27647 0.0
C2022 C 0.85753 0.63519 0.25498 0.0
C2023 C 0.84221 0.61417 0.26205 0.0
C2024 C 0.85998 0.64476 0.22847 0.0
C2025 C 0.88715 0.65854 0.23622 0.0
N2026 N 0.8507 0.62176 0.25168 0.0
N2027 N 0.87933 0.65025 0.24657 0.0
H2028 H 0.33449 0.89673 0.24087 0.0
H2029 H 0.39716 0.83567 0.25753 0.0
H2030 H 0.34236 0.86117 0.2083 0.0
H2031 H 0.36192 0.84358 0.29042 0.0
H2032 H 0.38289 0.85095 0.23904 0.0
H2033 H 0.35051 0.8831 0.25916 0.0
C2034 C 0.33978 0.88617 0.23752 0.0
C2035 C 0.33713 0.87999 0.22313 0.0
C2036 C 0.37843 0.84941 0.25037 0.0
C2037 C 0.35555 0.86469 0.24372 0.0
C2038 C 0.38654 0.84082 0.26089 0.0
C2039 C 0.38063 0.83841 0.27544 0.0
C2040 C 0.36462 0.85597 0.25465 0.0
C2041 C 0.36677 0.84516 0.27927 0.0
C2042 C 0.3488 0.87842 0.24794 0.0
C2043 C 0.34411 0.86622 0.21934 0.0
N2044 N 0.35926 0.85379 0.26895 0.0
N2045 N 0.35314 0.85905 0.22956 0.0
H2046 H 0.16656 0.39713 0.26013 0.0
H2047 H 0.10431 0.33589 0.24259 0.0
H2048 H 0.15865 0.36123 0.29232 0.0
H2049 H 0.13978 0.34412 0.21002 0.0
H2050 H 0.11831 0.35119 0.26123 0.0
H2051 H 0.15069 0.38361 0.24162 0.0
C2052 C 0.16128 0.38653 0.26335 0.0
C2053 C 0.16388 0.38021 0.27769 0.0
C2054 C 0.12288 0.34972 0.24994 0.0
C2055 C 0.14563 0.36505 0.25687 0.0
C2056 C 0.11492 0.34112 0.23932 0.0
C2057 C 0.12098 0.33878 0.22482 0.0
C2058 C 0.13669 0.35638 0.2458 0.0
C2059 C 0.13482 0.34564 0.22113 0.0
C2060 C 0.15235 0.37884 0.25281 0.0
C2061 C 0.15693 0.36639 0.28132 0.0
N2062 N 0.14219 0.35427 0.23154 0.0
N2063 N 0.14799 0.35928 0.27098 0.0
H2064 H 0.77401 0.6469 0.89527 0.0
H2065 H 0.72171 0.64248 0.82152 0.0
H2066 H 0.77644 0.6784 0.8579 0.0
H2067 H 0.72679 0.60478 0.85231 0.0
H2068 H 0.74009 0.6567 0.8363 0.0
H2069 H 0.7553 0.63207 0.88107 0.0
C2070 C 0.77066 0.65069 0.8841 0.0
C2071 C 0.77684 0.66394 0.87779 0.0
C2072 C 0.7372 0.64532 0.83984 0.0
C2073 C 0.75537 0.6471 0.86158 0.0
C2074 C 0.72663 0.63718 0.83143 0.0
C2075 C 0.72268 0.62235 0.83562 0.0
C2076 C 0.74387 0.63869 0.85266 0.0
C2077 C 0.72951 0.61615 0.84861 0.0
C2078 C 0.76 0.6422 0.876 0.0
C2079 C 0.77206 0.66827 0.86324 0.0
N2080 N 0.73977 0.62436 0.85669 0.0
N2081 N 0.76159 0.65992 0.8557 0.0
H2082 H 0.77439 0.3532 0.10426 0.0
H2083 H 0.72257 0.35896 0.17819 0.0
H2084 H 0.77753 0.32277 0.14246 0.0
H2085 H 0.72738 0.39615 0.14675 0.0
H2086 H 0.74111 0.34464 0.16371 0.0
H2087 H 0.75586 0.36837 0.11835 0.0
C2088 C 0.77124 0.34972 0.1156 0.0
C2089 C 0.77754 0.33665 0.12215 0.0
C2090 C 0.73814 0.35594 0.15996 0.0
C2091 C 0.75627 0.35387 0.13823 0.0
C2092 C 0.72746 0.36413 0.16819 0.0
C2093 C 0.72337 0.37883 0.16372 0.0
C2094 C 0.74477 0.36239 0.14703 0.0
C2095 C 0.73021 0.38488 0.15066 0.0
C2096 C 0.76068 0.3584 0.12363 0.0
C2097 C 0.77303 0.33273 0.1369 0.0
N2098 N 0.74055 0.37661 0.14274 0.0
N2099 N 0.76264 0.34124 0.14437 0.0
H2100 H 0.64994 0.77319 0.1052 0.0
H2101 H 0.64288 0.7235 0.18054 0.0
H2102 H 0.68073 0.77624 0.14313 0.0
H2103 H 0.60615 0.72794 0.1485 0.0
H2104 H 0.65768 0.74134 0.16565 0.0
H2105 H 0.6344 0.75534 0.11974 0.0
C2106 C 0.65343 0.77015 0.11657 0.0
C2107 C 0.6667 0.77625 0.12292 0.0
C2108 C 0.64638 0.73844 0.16186 0.0
C2109 C 0.64903 0.75577 0.13953 0.0
C2110 C 0.63791 0.72818 0.17034 0.0
C2111 C 0.62319 0.72419 0.1658 0.0
C2112 C 0.6402 0.74474 0.14864 0.0
C2113 C 0.61741 0.73071 0.15247 0.0
C2114 C 0.64454 0.75999 0.12486 0.0
C2115 C 0.67061 0.7719 0.13772 0.0
N2116 N 0.62595 0.74065 0.14433 0.0
N2117 N 0.66187 0.7619 0.14546 0.0
H2118 H 0.27679 0.64364 0.17855 0.0
H2119 H 0.2262 0.64822 0.10369 0.0
H2120 H 0.27275 0.60612 0.14739 0.0
H2121 H 0.22239 0.67925 0.14134 0.0
H2122 H 0.24455 0.63333 0.1183 0.0
H2123 H 0.2584 0.6577 0.16362 0.0
C2124 C 0.27209 0.63835 0.16853 0.0
C2125 C 0.27635 0.62363 0.16426 0.0
C2126 C 0.23963 0.64337 0.12334 0.0
C2127 C 0.25516 0.63977 0.14705 0.0
C2128 C 0.22917 0.65189 0.11501 0.0
C2129 C 0.22273 0.66504 0.12126 0.0
C2130 C 0.24378 0.64814 0.13794 0.0
C2131 C 0.227 0.66921 0.13602 0.0
C2132 C 0.26151 0.64639 0.16004 0.0
C2133 C 0.26978 0.61741 0.15115 0.0
N2134 N 0.23729 0.66084 0.14378 0.0
N2135 N 0.25952 0.62553 0.14298 0.0
H2136 H 0.34099 0.20971 0.13881 0.0
H2137 H 0.36 0.29437 0.15255 0.0
H2138 H 0.3342 0.24119 0.10206 0.0
H2139 H 0.39406 0.26094 0.16302 0.0
H2140 H 0.34651 0.27534 0.13726 0.0
H2141 H 0.35701 0.22862 0.1516 0.0
C2142 C 0.34295 0.22057 0.13344 0.0
C2143 C 0.33639 0.22394 0.11938 0.0
C2144 C 0.35701 0.27228 0.14283 0.0
C2145 C 0.35415 0.24555 0.13403 0.0
C2146 C 0.36464 0.28305 0.15154 0.0
C2147 C 0.37815 0.27917 0.15893 0.0
C2148 C 0.36267 0.25746 0.14202 0.0
C2149 C 0.38373 0.26437 0.15735 0.0
C2150 C 0.35207 0.23127 0.14068 0.0
C2151 C 0.3392 0.23816 0.11285 0.0
N2152 N 0.37582 0.25393 0.14926 0.0
N2153 N 0.34768 0.24859 0.12036 0.0
H2154 H 0.27619 0.35829 0.82048 0.0
H2155 H 0.22594 0.35378 0.8956 0.0
H2156 H 0.27251 0.39578 0.85172 0.0
H2157 H 0.22174 0.32297 0.85781 0.0
H2158 H 0.24441 0.36855 0.88101 0.0
H2159 H 0.2579 0.34426 0.83555 0.0
C2160 C 0.27159 0.36359 0.83055 0.0
C2161 C 0.27592 0.3783 0.83479 0.0
C2162 C 0.23937 0.35859 0.87594 0.0
C2163 C 0.25483 0.36218 0.85216 0.0
C2164 C 0.22885 0.35013 0.88425 0.0
C2165 C 0.22225 0.33708 0.87795 0.0
C2166 C 0.24344 0.35386 0.8613 0.0
C2167 C 0.22646 0.33294 0.86317 0.0
C2168 C 0.26107 0.35556 0.83912 0.0
C2169 C 0.26948 0.3845 0.84798 0.0
N2170 N 0.23681 0.34124 0.85541 0.0
N2171 N 0.25927 0.3764 0.85622 0.0
H2172 H 0.65602 0.20879 0.86133 0.0
H2173 H 0.63815 0.29301 0.84428 0.0
H2174 H 0.66381 0.24163 0.89666 0.0
H2175 H 0.60345 0.25974 0.83554 0.0
H2176 H 0.65144 0.27445 0.8603 0.0
H2177 H 0.64002 0.22736 0.84805 0.0
C2178 C 0.65428 0.21988 0.86629 0.0
C2179 C 0.66113 0.22374 0.88009 0.0
C2180 C 0.64085 0.27133 0.85495 0.0
C2181 C 0.64338 0.24495 0.86486 0.0
C2182 C 0.63333 0.28183 0.84582 0.0
C2183 C 0.61971 0.27785 0.83869 0.0
C2184 C 0.63495 0.25665 0.85646 0.0
C2185 C 0.61388 0.26324 0.84098 0.0
C2186 C 0.64516 0.23039 0.85877 0.0
C2187 C 0.65859 0.23824 0.88609 0.0
N2188 N 0.62169 0.25303 0.84947 0.0
N2189 N 0.65011 0.24846 0.87829 0.0
H2190 H 0.33533 0.75835 0.89675 0.0
H2191 H 0.39633 0.74143 0.83429 0.0
H2192 H 0.34348 0.79147 0.86178 0.0
H2193 H 0.36019 0.70934 0.84144 0.0
H2194 H 0.38277 0.75981 0.85026 0.0
H2195 H 0.35034 0.73982 0.88225 0.0
C2196 C 0.34048 0.76175 0.88614 0.0
C2197 C 0.33822 0.77638 0.88037 0.0
C2198 C 0.37794 0.74868 0.84839 0.0
C2199 C 0.35547 0.75554 0.86411 0.0
C2200 C 0.38565 0.73821 0.8394 0.0
C2201 C 0.37929 0.72393 0.83657 0.0
C2202 C 0.36408 0.7446 0.85495 0.0
C2203 C 0.36537 0.7203 0.84332 0.0
C2204 C 0.34891 0.75121 0.8779 0.0
C2205 C 0.34496 0.78026 0.86652 0.0
N2206 N 0.35825 0.73055 0.85235 0.0
N2207 N 0.35344 0.76991 0.85888 0.0
H2208 H 0.07126 0.24132 0.29644 0.0
H2209 H 0.08437 0.25983 0.20953 0.0
H2210 H 0.08188 0.20831 0.26201 0.0
H2211 H 0.07179 0.294 0.24208 0.0
H2212 H 0.07828 0.24027 0.22796 0.0
H2213 H 0.06625 0.26004 0.27644 0.0
C2214 C 0.07213 0.23791 0.28468 0.0
C2215 C 0.07727 0.22336 0.28084 0.0
C2216 C 0.07662 0.25201 0.23109 0.0
C2217 C 0.0717 0.24462 0.25802 0.0
C2218 C 0.0801 0.26318 0.22054 0.0
C2219 C 0.07878 0.27851 0.22439 0.0
C2220 C 0.07213 0.25617 0.24579 0.0
C2221 C 0.07301 0.28226 0.23873 0.0
C2222 C 0.06935 0.2486 0.27328 0.0
C2223 C 0.07823 0.2195 0.26547 0.0
N2224 N 0.0702 0.27115 0.24907 0.0
N2225 N 0.07568 0.23011 0.25466 0.0
H2226 H 0.79414 0.07921 0.2596 0.0
H2227 H 0.70631 0.06994 0.24091 0.0
H2228 H 0.76045 0.07122 0.29405 0.0
H2229 H 0.74074 0.08425 0.20934 0.0
H2230 H 0.72629 0.06395 0.25943 0.0
H2231 H 0.77524 0.0741 0.24018 0.0
C2232 C 0.78279 0.0761 0.26306 0.0
C2233 C 0.77877 0.07587 0.27842 0.0
C2234 C 0.72944 0.06812 0.24833 0.0
C2235 C 0.75689 0.07041 0.25621 0.0
C2236 C 0.71807 0.07147 0.23776 0.0
C2237 C 0.72192 0.07782 0.2237 0.0
C2238 C 0.74468 0.07102 0.24467 0.0
C2239 C 0.73729 0.07962 0.22016 0.0
C2240 C 0.77197 0.07322 0.25197 0.0
C2241 C 0.76396 0.07158 0.2823 0.0
N2242 N 0.74806 0.07637 0.23061 0.0
N2243 N 0.75342 0.06933 0.27124 0.0
H2244 H 0.91572 0.74058 0.20729 0.0
H2245 H 0.92874 0.75951 0.29421 0.0
H2246 H 0.92932 0.70677 0.23981 0.0
H2247 H 0.91656 0.79208 0.25988 0.0
H2248 H 0.93405 0.74091 0.27417 0.0
H2249 H 0.92111 0.76029 0.22577 0.0
C2250 C 0.92005 0.73734 0.21831 0.0
C2251 C 0.92186 0.72205 0.22213 0.0
C2252 C 0.93052 0.75223 0.27104 0.0
C2253 C 0.92774 0.74456 0.24358 0.0
C2254 C 0.92757 0.76286 0.28246 0.0
C2255 C 0.92193 0.77724 0.27867 0.0
C2256 C 0.92785 0.75612 0.25582 0.0
C2257 C 0.9206 0.78101 0.2633 0.0
C2258 C 0.92314 0.7486 0.22889 0.0
C2259 C 0.92771 0.71847 0.23648 0.0
N2260 N 0.92334 0.77048 0.25248 0.0
N2261 N 0.93015 0.72965 0.24684 0.0
H2262 H 0.20406 0.91798 0.26181 0.0
H2263 H 0.29126 0.9298 0.24128 0.0
H2264 H 0.23792 0.92859 0.2954 0.0
H2265 H 0.25701 0.91271 0.2109 0.0
H2266 H 0.27137 0.93538 0.26 0.0
H2267 H 0.22262 0.92249 0.24194 0.0
C2268 C 0.21538 0.9215 0.26498 0.0
C2269 C 0.21955 0.92266 0.28026 0.0
C2270 C 0.26823 0.93065 0.24912 0.0
C2271 C 0.24103 0.92753 0.25754 0.0
C2272 C 0.27954 0.92753 0.23843 0.0
C2273 C 0.27576 0.92056 0.22464 0.0
C2274 C 0.25309 0.92691 0.24585 0.0
C2275 C 0.26044 0.91784 0.22151 0.0
C2276 C 0.226 0.92405 0.25363 0.0
C2277 C 0.2343 0.92748 0.28374 0.0
N2278 N 0.24972 0.9209 0.23205 0.0
N2279 N 0.24464 0.92946 0.27244 0.0
H2280 H 0.0797 0.74088 0.79179 0.0
H2281 H 0.07043 0.75931 0.70423 0.0
H2282 H 0.07218 0.70634 0.75809 0.0
H2283 H 0.07974 0.79216 0.73917 0.0
H2284 H 0.06493 0.74041 0.72395 0.0
H2285 H 0.07338 0.76019 0.77316 0.0
C2286 C 0.07646 0.73737 0.78048 0.0
C2287 C 0.07669 0.72204 0.77638 0.0
C2288 C 0.06784 0.75186 0.72727 0.0
C2289 C 0.06983 0.74413 0.75478 0.0
C2290 C 0.07089 0.76265 0.71603 0.0
C2291 C 0.0758 0.77721 0.72012 0.0
C2292 C 0.06966 0.75576 0.74262 0.0
C2293 C 0.07627 0.78097 0.73554 0.0
C2294 C 0.07286 0.7484 0.76981 0.0
C2295 C 0.0722 0.71808 0.76165 0.0
N2296 N 0.07343 0.77028 0.7462 0.0
N2297 N 0.06927 0.7291 0.75124 0.0
H2298 H 0.29333 0.0698 0.75885 0.0
H2299 H 0.20535 0.08016 0.74161 0.0
H2300 H 0.25957 0.08436 0.79102 0.0
H2301 H 0.23831 0.07131 0.70666 0.0
H2302 H 0.22448 0.07484 0.76074 0.0
H2303 H 0.27298 0.06396 0.74068 0.0
C2304 C 0.28164 0.0714 0.7622 0.0
C2305 C 0.27809 0.07779 0.77633 0.0
C2306 C 0.22755 0.07382 0.7489 0.0
C2307 C 0.25491 0.07117 0.75576 0.0
C2308 C 0.2166 0.07682 0.73798 0.0
C2309 C 0.22035 0.0764 0.72256 0.0
C2310 C 0.2425 0.07071 0.74443 0.0
C2311 C 0.23501 0.07182 0.71846 0.0
C2312 C 0.27006 0.06815 0.75183 0.0
C2313 C 0.2628 0.0797 0.78014 0.0
N2314 N 0.2457 0.06946 0.72935 0.0
N2315 N 0.25182 0.07654 0.76988 0.0
H2316 H 0.92096 0.25999 0.79317 0.0
H2317 H 0.92761 0.24075 0.70533 0.0
H2318 H 0.9275 0.29422 0.75894 0.0
H2319 H 0.91617 0.2089 0.74057 0.0
H2320 H 0.93401 0.25955 0.72488 0.0
H2321 H 0.92609 0.24047 0.77437 0.0
C2322 C 0.92377 0.26339 0.78171 0.0
C2323 C 0.92358 0.27869 0.77752 0.0
C2324 C 0.93039 0.24834 0.7283 0.0
C2325 C 0.92904 0.25637 0.75576 0.0
C2326 C 0.92681 0.2376 0.71716 0.0
C2327 C 0.92111 0.22337 0.72138 0.0
C2328 C 0.92835 0.24468 0.74368 0.0
C2329 C 0.92026 0.21985 0.73684 0.0
C2330 C 0.92666 0.25224 0.77095 0.0
C2331 C 0.92747 0.2825 0.76258 0.0
N2332 N 0.92368 0.23046 0.74739 0.0
N2333 N 0.92972 0.27138 0.75211 0.0
H2334 H 0.70526 0.9286 0.76054 0.0
H2335 H 0.79301 0.91877 0.74302 0.0
H2336 H 0.73968 0.91847 0.7937 0.0
H2337 H 0.75995 0.92781 0.70821 0.0
H2338 H 0.7741 0.92453 0.76222 0.0
H2339 H 0.72528 0.93404 0.74194 0.0
C2340 C 0.71701 0.92793 0.76401 0.0
C2341 C 0.72086 0.92283 0.77858 0.0
C2342 C 0.77096 0.92549 0.75041 0.0
C2343 C 0.7437 0.9289 0.75746 0.0
C2344 C 0.78179 0.92221 0.73943 0.0
C2345 C 0.77796 0.92259 0.72404 0.0
C2346 C 0.75603 0.92884 0.746 0.0
C2347 C 0.76332 0.92731 0.71999 0.0
C2348 C 0.72842 0.93094 0.75338 0.0
C2349 C 0.73623 0.9221 0.7825 0.0
N2350 N 0.75275 0.92995 0.73094 0.0
N2351 N 0.74704 0.92491 0.77198 0.0
H2352 H 0.23987 0.0709 0.29595 0.0
H2353 H 0.25784 0.08493 0.20906 0.0
H2354 H 0.20674 0.08238 0.26193 0.0
H2355 H 0.29217 0.0718 0.24123 0.0
H2356 H 0.23838 0.0788 0.22758 0.0
H2357 H 0.2584 0.06599 0.27575 0.0
C2358 C 0.23639 0.07198 0.28424 0.0
C2359 C 0.22187 0.07733 0.28058 0.0
C2360 C 0.25014 0.07703 0.2306 0.0
C2361 C 0.24291 0.07188 0.25753 0.0
C2362 C 0.26125 0.08054 0.22 0.0
C2363 C 0.2766 0.07908 0.22372 0.0
C2364 C 0.25437 0.07237 0.24523 0.0
C2365 C 0.28042 0.07314 0.23798 0.0
C2366 C 0.24697 0.06927 0.27272 0.0
C2367 C 0.21792 0.07857 0.26525 0.0
N2368 N 0.26936 0.0703 0.24837 0.0
N2369 N 0.22841 0.07607 0.25433 0.0
H2370 H 0.91697 0.25897 0.20869 0.0
H2371 H 0.93065 0.23968 0.29536 0.0
H2372 H 0.92953 0.2929 0.24151 0.0
H2373 H 0.92004 0.20694 0.26068 0.0
H2374 H 0.93539 0.25864 0.27553 0.0
H2375 H 0.92318 0.23927 0.22693 0.0
C2376 C 0.92125 0.26225 0.21972 0.0
C2377 C 0.92253 0.27755 0.2237 0.0
C2378 C 0.93235 0.24721 0.27227 0.0
C2379 C 0.92934 0.25504 0.24488 0.0
C2380 C 0.92973 0.23638 0.28358 0.0
C2381 C 0.92468 0.22183 0.27963 0.0
C2382 C 0.92991 0.24337 0.257 0.0
C2383 C 0.92363 0.21813 0.26422 0.0
C2384 C 0.9248 0.251 0.23017 0.0
C2385 C 0.92832 0.28119 0.23806 0.0
N2386 N 0.92602 0.22886 0.25351 0.0
N2387 N 0.93122 0.27 0.24829 0.0
H2388 H 0.79385 0.92246 0.2613 0.0
H2389 H 0.7063 0.9301 0.24152 0.0
H2390 H 0.75944 0.92912 0.29531 0.0
H2391 H 0.74172 0.91932 0.20964 0.0
H2392 H 0.72574 0.93616 0.26054 0.0
H2393 H 0.77531 0.9281 0.24168 0.0
C2394 C 0.78241 0.92539 0.26463 0.0
C2395 C 0.77809 0.92509 0.27989 0.0
C2396 C 0.72922 0.93278 0.24927 0.0
C2397 C 0.75662 0.93115 0.25746 0.0
C2398 C 0.71815 0.92939 0.23841 0.0
C2399 C 0.72245 0.92395 0.2241 0.0
C2400 C 0.74462 0.93079 0.24567 0.0
C2401 C 0.73792 0.92321 0.22064 0.0
C2402 C 0.77179 0.92858 0.25342 0.0
C2403 C 0.76318 0.92916 0.28363 0.0
N2404 N 0.74841 0.92642 0.23138 0.0
N2405 N 0.75284 0.9317 0.27244 0.0
H2406 H 0.07179 0.70901 0.24126 0.0
H2407 H 0.08244 0.79651 0.26127 0.0
H2408 H 0.08948 0.7431 0.21104 0.0
H2409 H 0.0717 0.76282 0.29499 0.0
H2410 H 0.07854 0.77771 0.24151 0.0
H2411 H 0.06574 0.72902 0.25971 0.0
C2412 C 0.0741 0.72071 0.23839 0.0
C2413 C 0.08136 0.72442 0.22473 0.0
C2414 C 0.07682 0.77441 0.2532 0.0
C2415 C 0.07446 0.74722 0.24562 0.0
C2416 C 0.07902 0.78517 0.26449 0.0
C2417 C 0.07765 0.78113 0.27979 0.0
C2418 C 0.07348 0.75938 0.25719 0.0
C2419 C 0.07296 0.76635 0.28331 0.0
C2420 C 0.07071 0.7321 0.24893 0.0
C2421 C 0.08413 0.73972 0.22155 0.0
N2422 N 0.07133 0.75588 0.27209 0.0
N2423 N 0.08079 0.75051 0.23195 0.0
H2424 H 0.20724 0.9167 0.74019 0.0
H2425 H 0.29399 0.9292 0.76056 0.0
H2426 H 0.24073 0.92866 0.70671 0.0
H2427 H 0.25904 0.91695 0.79243 0.0
H2428 H 0.27432 0.93448 0.74156 0.0
H2429 H 0.22539 0.92238 0.76013 0.0
C2430 C 0.2184 0.92076 0.73707 0.0
C2431 C 0.22259 0.92201 0.72182 0.0
C2432 C 0.27097 0.93094 0.75281 0.0
C2433 C 0.24366 0.92817 0.74461 0.0
C2434 C 0.28218 0.92801 0.76367 0.0
C2435 C 0.27811 0.92237 0.77798 0.0
C2436 C 0.25567 0.92828 0.7564 0.0
C2437 C 0.26268 0.921 0.78144 0.0
C2438 C 0.22879 0.924 0.74846 0.0
C2439 C 0.23711 0.9275 0.71837 0.0
N2440 N 0.25206 0.92375 0.77069 0.0
N2441 N 0.24728 0.93008 0.7297 0.0
H2442 H 0.0672 0.24038 0.70693 0.0
H2443 H 0.07762 0.26025 0.79434 0.0
H2444 H 0.08162 0.20916 0.74165 0.0
H2445 H 0.0697 0.29426 0.76017 0.0
H2446 H 0.07206 0.2406 0.77582 0.0
H2447 H 0.06154 0.2592 0.7267 0.0
C2448 C 0.06882 0.23737 0.71872 0.0
C2449 C 0.07511 0.22331 0.72269 0.0
C2450 C 0.07129 0.25235 0.77236 0.0
C2451 C 0.0687 0.24464 0.74522 0.0
C2452 C 0.07444 0.26357 0.78296 0.0
C2453 C 0.07437 0.27886 0.77869 0.0
C2454 C 0.06836 0.25639 0.75725 0.0
C2455 C 0.06996 0.28256 0.76387 0.0
C2456 C 0.06566 0.24812 0.72997 0.0
C2457 C 0.07703 0.21997 0.73809 0.0
N2458 N 0.06744 0.27136 0.75354 0.0
N2459 N 0.07397 0.23059 0.74875 0.0
H2460 H 0.73929 0.0767 0.79625 0.0
H2461 H 0.75774 0.0684 0.70831 0.0
H2462 H 0.70481 0.06914 0.76249 0.0
H2463 H 0.78912 0.08322 0.7427 0.0
H2464 H 0.73945 0.06186 0.72831 0.0
H2465 H 0.75869 0.07169 0.77729 0.0
C2466 C 0.73582 0.07368 0.78487 0.0
C2467 C 0.72047 0.07358 0.78085 0.0
C2468 C 0.75046 0.06626 0.73145 0.0
C2469 C 0.74263 0.06826 0.75892 0.0
C2470 C 0.7609 0.06993 0.72007 0.0
C2471 C 0.77482 0.07659 0.7239 0.0
C2472 C 0.75413 0.06914 0.74669 0.0
C2473 C 0.77839 0.07836 0.73926 0.0
C2474 C 0.74689 0.07087 0.77402 0.0
C2475 C 0.71656 0.06941 0.76601 0.0
N2476 N 0.76807 0.0748 0.75006 0.0
N2477 N 0.7276 0.06723 0.75544 0.0
H2478 H 0.93214 0.70522 0.75955 0.0
H2479 H 0.92345 0.79295 0.74032 0.0
H2480 H 0.91801 0.73995 0.79087 0.0
H2481 H 0.92997 0.75879 0.70602 0.0
H2482 H 0.92891 0.77419 0.75979 0.0
H2483 H 0.93825 0.72501 0.74089 0.0
C2484 C 0.93068 0.71701 0.76262 0.0
C2485 C 0.92434 0.72099 0.77665 0.0
C2486 C 0.92941 0.77079 0.74802 0.0
C2487 C 0.93128 0.74354 0.75552 0.0
C2488 C 0.92634 0.78152 0.7369 0.0
C2489 C 0.92601 0.77732 0.72159 0.0
C2490 C 0.93187 0.75563 0.74385 0.0
C2491 C 0.93003 0.76243 0.71774 0.0
C2492 C 0.9341 0.72827 0.75196 0.0
C2493 C 0.92264 0.73639 0.78008 0.0
N2494 N 0.93247 0.75198 0.72884 0.0
N2495 N 0.92595 0.74707 0.76955 0.0
H2496 H 0.20499 0.26215 0.07874 0.0
H2497 H 0.29216 0.24094 0.06898 0.0
H2498 H 0.23967 0.29559 0.07075 0.0
H2499 H 0.25706 0.21066 0.08441 0.0
H2500 H 0.27264 0.25987 0.06282 0.0
H2501 H 0.22327 0.24218 0.07345 0.0
C2502 C 0.21643 0.26527 0.07557 0.0
C2503 C 0.22092 0.28049 0.07542 0.0
C2504 C 0.26923 0.24896 0.06728 0.0
C2505 C 0.24207 0.25768 0.06977 0.0
C2506 C 0.28034 0.23815 0.07072 0.0
C2507 C 0.27619 0.22434 0.07743 0.0
C2508 C 0.25395 0.24579 0.07043 0.0
C2509 C 0.26075 0.22128 0.07949 0.0
C2510 C 0.22689 0.25387 0.0726 0.0
C2511 C 0.23581 0.28396 0.07105 0.0
N2512 N 0.25023 0.23195 0.07614 0.0
N2513 N 0.246 0.27259 0.06872 0.0
H2514 H 0.24091 0.70521 0.93009 0.0
H2515 H 0.2602 0.7923 0.91909 0.0
H2516 H 0.20849 0.74007 0.91913 0.0
H2517 H 0.29413 0.7589 0.92994 0.0
H2518 H 0.24049 0.77393 0.92493 0.0
H2519 H 0.25971 0.72496 0.93575 0.0
C2520 C 0.23764 0.717 0.92927 0.0
C2521 C 0.22324 0.72105 0.92386 0.0
C2522 C 0.25222 0.7706 0.92628 0.0
C2523 C 0.24459 0.74358 0.93018 0.0
C2524 C 0.26347 0.78112 0.92295 0.0
C2525 C 0.27877 0.77701 0.92382 0.0
C2526 C 0.25626 0.7557 0.93015 0.0
C2527 C 0.28243 0.76245 0.92907 0.0
C2528 C 0.24838 0.72826 0.93242 0.0
C2529 C 0.21956 0.73647 0.92298 0.0
N2530 N 0.27123 0.75217 0.93172 0.0
N2531 N 0.23021 0.74713 0.92591 0.0
H2532 H 0.23926 0.29531 0.92913 0.0
H2533 H 0.25769 0.20837 0.91565 0.0
H2534 H 0.20621 0.26091 0.91861 0.0
H2535 H 0.292 0.24087 0.92799 0.0
H2536 H 0.23821 0.22686 0.9218 0.0
H2537 H 0.25807 0.2753 0.93381 0.0
C2538 C 0.23586 0.28355 0.92822 0.0
C2539 C 0.22126 0.27972 0.92322 0.0
C2540 C 0.24996 0.22997 0.92339 0.0
C2541 C 0.24262 0.2569 0.9284 0.0
C2542 C 0.26109 0.21938 0.91987 0.0
C2543 C 0.27644 0.22319 0.92112 0.0
C2544 C 0.25417 0.24466 0.92784 0.0
C2545 C 0.28025 0.23754 0.92682 0.0
C2546 C 0.24661 0.27215 0.9308 0.0
C2547 C 0.21743 0.26435 0.92217 0.0
N2548 N 0.26917 0.24791 0.92968 0.0
N2549 N 0.22807 0.25354 0.92454 0.0
H2550 H 0.74065 0.20885 0.91633 0.0
H2551 H 0.75995 0.29551 0.93012 0.0
H2552 H 0.70675 0.24163 0.92905 0.0
H2553 H 0.79261 0.26087 0.91912 0.0
H2554 H 0.74103 0.27564 0.93494 0.0
H2555 H 0.76036 0.22709 0.92251 0.0
C2556 C 0.73738 0.21988 0.92064 0.0
C2557 C 0.72208 0.22385 0.92198 0.0
C2558 C 0.75244 0.2724 0.9318 0.0
C2559 C 0.74461 0.24502 0.92875 0.0
C2560 C 0.76325 0.28373 0.92913 0.0
C2561 C 0.77776 0.2798 0.92395 0.0
C2562 C 0.75627 0.25714 0.92929 0.0
C2563 C 0.78146 0.2644 0.92282 0.0
C2564 C 0.74864 0.23031 0.92418 0.0
C2565 C 0.71845 0.23819 0.92781 0.0
N2566 N 0.77075 0.25367 0.92526 0.0
N2567 N 0.72965 0.24842 0.93069 0.0
H2568 H 0.70686 0.75853 0.93089 0.0
H2569 H 0.79443 0.73948 0.92041 0.0
H2570 H 0.74125 0.78999 0.91625 0.0
H2571 H 0.76065 0.70518 0.92862 0.0
H2572 H 0.77574 0.75898 0.92598 0.0
H2573 H 0.72682 0.73994 0.93666 0.0
C2574 C 0.71861 0.76165 0.92925 0.0
C2575 C 0.72244 0.77569 0.92285 0.0
C2576 C 0.7724 0.7472 0.92681 0.0
C2577 C 0.74519 0.75464 0.92941 0.0
C2578 C 0.7831 0.73607 0.92367 0.0
C2579 C 0.77899 0.72074 0.92382 0.0
C2580 C 0.75734 0.74302 0.9298 0.0
C2581 C 0.76422 0.71691 0.92831 0.0
C2582 C 0.72997 0.75103 0.93247 0.0
C2583 C 0.73781 0.77918 0.92091 0.0
N2584 N 0.75379 0.72801 0.93081 0.0
N2585 N 0.74857 0.76869 0.92404 0.0
H2586 H 0.76113 0.70417 0.06998 0.0
H2587 H 0.74292 0.79173 0.07992 0.0
H2588 H 0.79415 0.73901 0.07902 0.0
H2589 H 0.70823 0.75824 0.07215 0.0
H2590 H 0.76215 0.77304 0.07355 0.0
H2591 H 0.74217 0.72394 0.0649 0.0
C2592 C 0.76449 0.71596 0.07048 0.0
C2593 C 0.77913 0.72001 0.07517 0.0
C2594 C 0.75035 0.76975 0.073 0.0
C2595 C 0.75761 0.74256 0.06951 0.0
C2596 C 0.73937 0.78046 0.07662 0.0
C2597 C 0.72402 0.77644 0.07678 0.0
C2598 C 0.74602 0.75476 0.06985 0.0
C2599 C 0.71999 0.76174 0.07223 0.0
C2600 C 0.75365 0.72723 0.06767 0.0
C2601 C 0.7829 0.73542 0.0757 0.0
N2602 N 0.73096 0.75129 0.06926 0.0
N2603 N 0.77219 0.7461 0.0731 0.0
H2604 H 0.20671 0.74072 0.07812 0.0
H2605 H 0.29462 0.75958 0.07119 0.0
H2606 H 0.2407 0.70632 0.07133 0.0
H2607 H 0.25952 0.79169 0.08233 0.0
H2608 H 0.27498 0.74078 0.06503 0.0
H2609 H 0.2256 0.76015 0.07303 0.0
C2610 C 0.21814 0.73727 0.07527 0.0
C2611 C 0.22222 0.72194 0.07536 0.0
C2612 C 0.27161 0.75204 0.06854 0.0
C2613 C 0.2441 0.74415 0.06995 0.0
C2614 C 0.2828 0.76278 0.07197 0.0
C2615 C 0.27865 0.7771 0.07751 0.0
C2616 C 0.25625 0.75578 0.07055 0.0
C2617 C 0.26321 0.78068 0.07836 0.0
C2618 C 0.22896 0.74837 0.07241 0.0
C2619 C 0.23713 0.71805 0.07142 0.0
N2620 N 0.25261 0.77007 0.07507 0.0
N2621 N 0.24766 0.72913 0.0692 0.0
H2622 H 0.74054 0.20815 0.08428 0.0
H2623 H 0.76023 0.29487 0.07125 0.0
H2624 H 0.70673 0.2412 0.07203 0.0
H2625 H 0.79274 0.25997 0.08182 0.0
H2626 H 0.74117 0.27515 0.06638 0.0
H2627 H 0.7603 0.22638 0.07825 0.0
C2628 C 0.73731 0.21923 0.0801 0.0
C2629 C 0.72202 0.22327 0.07884 0.0
C2630 C 0.75257 0.27183 0.06944 0.0
C2631 C 0.74461 0.24444 0.07226 0.0
C2632 C 0.76346 0.28307 0.07213 0.0
C2633 C 0.77798 0.27901 0.0772 0.0
C2634 C 0.75633 0.25652 0.0718 0.0
C2635 C 0.78159 0.26358 0.07821 0.0
C2636 C 0.7486 0.22967 0.07665 0.0
C2637 C 0.71843 0.23769 0.07319 0.0
N2638 N 0.77081 0.25294 0.07573 0.0
N2639 N 0.72966 0.24792 0.0704 0.0
H2640 H 0.57809 0.76054 0.70511 0.0
H2641 H 0.56933 0.74089 0.7928 0.0
H2642 H 0.57066 0.79464 0.73928 0.0
H2643 H 0.58519 0.71027 0.75819 0.0
H2644 H 0.56293 0.75943 0.77298 0.0
H2645 H 0.57316 0.74092 0.72387 0.0
C2646 C 0.57511 0.76388 0.71654 0.0
C2647 C 0.57503 0.77919 0.72074 0.0
C2648 C 0.56755 0.74853 0.76975 0.0
C2649 C 0.56979 0.75678 0.74243 0.0
C2650 C 0.57113 0.73795 0.78103 0.0
C2651 C 0.57802 0.72416 0.7771 0.0
C2652 C 0.57071 0.74513 0.75451 0.0
C2653 C 0.58015 0.72088 0.76171 0.0
C2654 C 0.57235 0.75268 0.72727 0.0
C2655 C 0.57091 0.78293 0.73563 0.0
N2656 N 0.57663 0.73133 0.75103 0.0
N2657 N 0.56878 0.77176 0.74608 0.0
H2658 H 0.20583 0.56917 0.74071 0.0
H2659 H 0.29354 0.57768 0.75925 0.0
H2660 H 0.24087 0.57858 0.70799 0.0
H2661 H 0.25971 0.57084 0.79381 0.0
H2662 H 0.2748 0.57164 0.73995 0.0
H2663 H 0.2255 0.56368 0.75967 0.0
C2664 C 0.21764 0.56968 0.73741 0.0
C2665 C 0.22177 0.57458 0.72286 0.0
C2666 C 0.27144 0.57122 0.75175 0.0
C2667 C 0.24421 0.56843 0.74438 0.0
C2668 C 0.28218 0.57464 0.76277 0.0
C2669 C 0.27808 0.57498 0.7781 0.0
C2670 C 0.25636 0.56845 0.75602 0.0
C2671 C 0.26327 0.57076 0.78207 0.0
C2672 C 0.22885 0.56663 0.74824 0.0
C2673 C 0.2372 0.5751 0.71917 0.0
N2674 N 0.25281 0.56799 0.77106 0.0
N2675 N 0.24782 0.57225 0.72988 0.0
H2676 H 0.41713 0.23783 0.70551 0.0
H2677 H 0.42925 0.25912 0.79238 0.0
H2678 H 0.42972 0.20485 0.73928 0.0
H2679 H 0.41223 0.28927 0.75789 0.0
H2680 H 0.4352 0.24042 0.77259 0.0
H2681 H 0.42147 0.25797 0.72381 0.0
C2682 C 0.42105 0.23487 0.71676 0.0
C2683 C 0.42283 0.21968 0.72099 0.0
C2684 C 0.43041 0.25124 0.76937 0.0
C2685 C 0.42748 0.24268 0.7422 0.0
C2686 C 0.42708 0.26192 0.78064 0.0
C2687 C 0.41999 0.27562 0.77676 0.0
C2688 C 0.42675 0.25444 0.7542 0.0
C2689 C 0.41742 0.27872 0.7614 0.0
C2690 C 0.4235 0.24637 0.72724 0.0
C2691 C 0.42814 0.21646 0.73563 0.0
N2692 N 0.42066 0.26817 0.75074 0.0
N2693 N 0.42998 0.22788 0.74586 0.0
H2694 H 0.73947 0.42985 0.79527 0.0
H2695 H 0.75759 0.4196 0.70776 0.0
H2696 H 0.70639 0.42061 0.76054 0.0
H2697 H 0.79223 0.42836 0.74106 0.0
H2698 H 0.7383 0.42584 0.72645 0.0
H2699 H 0.75833 0.43505 0.77543 0.0
C2700 C 0.73608 0.42934 0.78349 0.0
C2701 C 0.72146 0.42455 0.77949 0.0
C2702 C 0.75011 0.42663 0.72969 0.0
C2703 C 0.74286 0.43033 0.75686 0.0
C2704 C 0.76112 0.42308 0.71899 0.0
C2705 C 0.77648 0.42325 0.72296 0.0
C2706 C 0.75443 0.43003 0.74463 0.0
C2707 C 0.78047 0.42803 0.7376 0.0
C2708 C 0.74685 0.43221 0.77218 0.0
C2709 C 0.71763 0.424 0.76409 0.0
N2710 N 0.76948 0.43092 0.74805 0.0
N2711 N 0.7283 0.42666 0.75338 0.0
H2712 H 0.56947 0.20787 0.25891 0.0
H2713 H 0.58327 0.29478 0.23955 0.0
H2714 H 0.58526 0.24175 0.29039 0.0
H2715 H 0.57052 0.26184 0.2058 0.0
H2716 H 0.57784 0.27636 0.25932 0.0
H2717 H 0.56396 0.22805 0.2405 0.0
C2718 C 0.57144 0.21956 0.26206 0.0
C2719 C 0.5781 0.22317 0.27604 0.0
C2720 C 0.576 0.27315 0.24763 0.0
C2721 C 0.57188 0.24616 0.25519 0.0
C2722 C 0.57909 0.28369 0.23634 0.0
C2723 C 0.57758 0.27971 0.22105 0.0
C2724 C 0.5717 0.25836 0.24363 0.0
C2725 C 0.57191 0.26529 0.21749 0.0
C2726 C 0.56836 0.23105 0.25155 0.0
C2727 C 0.58042 0.23846 0.2796 0.0
N2728 N 0.56947 0.25497 0.22871 0.0
N2729 N 0.57747 0.24935 0.2692 0.0
H2730 H 0.79416 0.57036 0.25941 0.0
H2731 H 0.70664 0.58061 0.23967 0.0
H2732 H 0.75981 0.5868 0.29002 0.0
H2733 H 0.74063 0.57194 0.20567 0.0
H2734 H 0.72532 0.57561 0.25934 0.0
H2735 H 0.77423 0.56425 0.24089 0.0
C2736 C 0.78242 0.57236 0.26235 0.0
C2737 C 0.7786 0.57932 0.27614 0.0
C2738 C 0.7287 0.57456 0.2476 0.0
C2739 C 0.7559 0.57236 0.25517 0.0
C2740 C 0.71801 0.57736 0.23636 0.0
C2741 C 0.72219 0.57693 0.22105 0.0
C2742 C 0.74379 0.5716 0.24354 0.0
C2743 C 0.737 0.57246 0.21737 0.0
C2744 C 0.77108 0.56893 0.25178 0.0
C2745 C 0.76325 0.58169 0.27941 0.0
N2746 N 0.74741 0.57028 0.22857 0.0
N2747 N 0.75251 0.57834 0.26898 0.0
H2748 H 0.42309 0.70658 0.23996 0.0
H2749 H 0.43194 0.79435 0.25888 0.0
H2750 H 0.43061 0.74053 0.20564 0.0
H2751 H 0.41734 0.75983 0.29021 0.0
H2752 H 0.43827 0.77443 0.24043 0.0
H2753 H 0.42834 0.72538 0.25944 0.0
C2754 C 0.42614 0.71797 0.23654 0.0
C2755 C 0.42616 0.7221 0.22121 0.0
C2756 C 0.43397 0.77125 0.25146 0.0
C2757 C 0.43178 0.74384 0.24348 0.0
C2758 C 0.43042 0.78258 0.262 0.0
C2759 C 0.42387 0.77869 0.27596 0.0
C2760 C 0.43107 0.756 0.25507 0.0
C2761 C 0.42211 0.76331 0.27946 0.0
C2762 C 0.4291 0.72873 0.24766 0.0
C2763 C 0.43039 0.73694 0.21737 0.0
N2764 N 0.42554 0.75257 0.26905 0.0
N2765 N 0.43271 0.74741 0.22847 0.0
H2766 H 0.29633 0.41901 0.23847 0.0
H2767 H 0.20928 0.43018 0.26002 0.0
H2768 H 0.26199 0.42919 0.20524 0.0
H2769 H 0.24391 0.41284 0.28981 0.0
H2770 H 0.22894 0.43598 0.24112 0.0
H2771 H 0.27795 0.42338 0.25854 0.0
C2772 C 0.28494 0.42241 0.23542 0.0
C2773 C 0.28059 0.42349 0.22019 0.0
C2774 C 0.23222 0.43115 0.25191 0.0
C2775 C 0.25932 0.42817 0.24314 0.0
C2776 C 0.22103 0.42791 0.2627 0.0
C2777 C 0.22499 0.42081 0.27638 0.0
C2778 C 0.24739 0.42741 0.25497 0.0
C2779 C 0.24035 0.41807 0.2793 0.0
C2780 C 0.27442 0.42487 0.24689 0.0
C2781 C 0.26576 0.42816 0.21687 0.0
N2782 N 0.25094 0.42126 0.26866 0.0
N2783 N 0.25552 0.43004 0.22827 0.0
H2784 H 0.70586 0.57904 0.7604 0.0
H2785 H 0.79354 0.5695 0.74111 0.0
H2786 H 0.73982 0.57134 0.79465 0.0
H2787 H 0.75903 0.5845 0.70995 0.0
H2788 H 0.77365 0.56354 0.75972 0.0
H2789 H 0.72463 0.57387 0.74087 0.0
C2790 C 0.71725 0.57597 0.7638 0.0
C2791 C 0.72138 0.57586 0.77912 0.0
C2792 C 0.77046 0.56787 0.7487 0.0
C2793 C 0.7431 0.57033 0.7568 0.0
C2794 C 0.78177 0.5712 0.73807 0.0
C2795 C 0.77789 0.57772 0.7241 0.0
C2796 C 0.75523 0.57095 0.74517 0.0
C2797 C 0.76252 0.57973 0.7207 0.0
C2798 C 0.72799 0.57307 0.75264 0.0
C2799 C 0.73623 0.57162 0.78293 0.0
N2800 N 0.75179 0.57649 0.73119 0.0
N2801 N 0.74669 0.56933 0.7718 0.0
H2802 H 0.42942 0.79601 0.73871 0.0
H2803 H 0.4162 0.70922 0.75748 0.0
H2804 H 0.41964 0.76136 0.70567 0.0
H2805 H 0.42841 0.7419 0.79165 0.0
H2806 H 0.42254 0.72756 0.73791 0.0
H2807 H 0.43422 0.77614 0.75762 0.0
C2808 C 0.42871 0.78423 0.73533 0.0
C2809 C 0.42386 0.78029 0.72071 0.0
C2810 C 0.42407 0.73074 0.74966 0.0
C2811 C 0.42916 0.75762 0.74219 0.0
C2812 C 0.42043 0.72024 0.76083 0.0
C2813 C 0.42158 0.72416 0.77616 0.0
C2814 C 0.42854 0.74545 0.7538 0.0
C2815 C 0.42732 0.73851 0.77992 0.0
C2816 C 0.43136 0.7729 0.74614 0.0
C2817 C 0.42307 0.76489 0.71691 0.0
N2818 N 0.43029 0.74879 0.76879 0.0
N2819 N 0.42548 0.75416 0.72762 0.0
H2820 H 0.29274 0.42161 0.75931 0.0
H2821 H 0.20498 0.42924 0.74052 0.0
H2822 H 0.25881 0.42871 0.79371 0.0
H2823 H 0.24008 0.41903 0.70811 0.0
H2824 H 0.22461 0.43525 0.75937 0.0
H2825 H 0.27398 0.42719 0.73989 0.0
C2826 C 0.28136 0.42463 0.76276 0.0
C2827 C 0.27724 0.42448 0.77809 0.0
C2828 C 0.22798 0.432 0.74803 0.0
C2829 C 0.2555 0.43047 0.75588 0.0
C2830 C 0.2168 0.42866 0.73726 0.0
C2831 C 0.22096 0.42339 0.72285 0.0
C2832 C 0.24335 0.43015 0.74423 0.0
C2833 C 0.2364 0.42279 0.71919 0.0
C2834 C 0.27061 0.42778 0.75167 0.0
C2835 C 0.26239 0.42864 0.78198 0.0
N2836 N 0.247 0.42595 0.72984 0.0
N2837 N 0.25192 0.43115 0.77091 0.0
H2838 H 0.58569 0.29196 0.75847 0.0
H2839 H 0.57285 0.20498 0.73889 0.0
H2840 H 0.57214 0.25915 0.79202 0.0
H2841 H 0.58672 0.2393 0.707 0.0
H2842 H 0.56741 0.22499 0.75751 0.0
H2843 H 0.58079 0.27347 0.73864 0.0
C2844 C 0.58147 0.28087 0.76162 0.0
C2845 C 0.57953 0.27698 0.77688 0.0
C2846 C 0.57136 0.22812 0.74633 0.0
C2847 C 0.57423 0.25552 0.75423 0.0
C2848 C 0.57439 0.21673 0.73569 0.0
C2849 C 0.5805 0.22051 0.7215 0.0
C2850 C 0.5744 0.24333 0.74263 0.0
C2851 C 0.58231 0.23587 0.71791 0.0
C2852 C 0.57868 0.27028 0.7503 0.0
C2853 C 0.57384 0.26254 0.78035 0.0
N2854 N 0.57944 0.24666 0.72844 0.0
N2855 N 0.57167 0.25218 0.76911 0.0
H2856 H 0.79288 0.43068 0.25958 0.0
H2857 H 0.70547 0.42118 0.23893 0.0
H2858 H 0.75809 0.4146 0.28989 0.0
H2859 H 0.73987 0.42957 0.20528 0.0
H2860 H 0.724 0.4259 0.2588 0.0
H2861 H 0.77319 0.43686 0.24083 0.0
C2862 C 0.78109 0.42877 0.26241 0.0
C2863 C 0.77709 0.42189 0.27618 0.0
C2864 C 0.72751 0.42695 0.24709 0.0
C2865 C 0.75465 0.42894 0.25495 0.0
C2866 C 0.7169 0.4243 0.23574 0.0
C2867 C 0.72123 0.42473 0.22047 0.0
C2868 C 0.74267 0.42978 0.24318 0.0
C2869 C 0.73612 0.42904 0.21695 0.0
C2870 C 0.76989 0.43224 0.25171 0.0
C2871 C 0.76168 0.41964 0.2793 0.0
N2872 N 0.74644 0.43109 0.22825 0.0
N2873 N 0.75107 0.42303 0.26874 0.0
H2874 H 0.57072 0.79446 0.26036 0.0
H2875 H 0.57808 0.70692 0.24029 0.0
H2876 H 0.58159 0.75893 0.29208 0.0
H2877 H 0.57183 0.7415 0.20637 0.0
H2878 H 0.57249 0.72544 0.25995 0.0
H2879 H 0.56466 0.7751 0.24127 0.0
C2880 C 0.57146 0.7826 0.26341 0.0
C2881 C 0.57691 0.77825 0.27771 0.0
C2882 C 0.57209 0.729 0.24821 0.0
C2883 C 0.57006 0.75616 0.25605 0.0
C2884 C 0.57524 0.71839 0.23699 0.0
C2885 C 0.57565 0.72277 0.22174 0.0
C2886 C 0.56965 0.74421 0.24422 0.0
C2887 C 0.5717 0.73772 0.21804 0.0
C2888 C 0.56807 0.77157 0.25251 0.0
C2889 C 0.57768 0.76276 0.2811 0.0
N2890 N 0.56919 0.74803 0.22925 0.0
N2891 N 0.57447 0.75231 0.27032 0.0
H2892 H 0.26079 0.57133 0.206 0.0
H2893 H 0.24257 0.58473 0.29294 0.0
H2894 H 0.29377 0.583 0.24011 0.0
H2895 H 0.20844 0.57152 0.26059 0.0
H2896 H 0.26213 0.57882 0.27444 0.0
H2897 H 0.24231 0.56611 0.22616 0.0
C2898 C 0.26425 0.5724 0.21773 0.0
C2899 C 0.27871 0.57788 0.22143 0.0
C2900 C 0.2504 0.57698 0.27138 0.0
C2901 C 0.25772 0.57208 0.24442 0.0
C2902 C 0.23923 0.58036 0.28196 0.0
C2903 C 0.2239 0.57882 0.27818 0.0
C2904 C 0.24623 0.57237 0.25672 0.0
C2905 C 0.22017 0.57292 0.26389 0.0
C2906 C 0.25369 0.5695 0.22922 0.0
C2907 C 0.28263 0.57909 0.23677 0.0
N2908 N 0.23127 0.57021 0.25352 0.0
N2909 N 0.27216 0.57641 0.24766 0.0
H2910 H 0.40982 0.24188 0.29227 0.0
H2911 H 0.42773 0.26212 0.20609 0.0
H2912 H 0.42634 0.2088 0.26033 0.0
H2913 H 0.40825 0.2927 0.23887 0.0
H2914 H 0.43225 0.2437 0.22651 0.0
H2915 H 0.41443 0.26177 0.2738 0.0
C2916 C 0.4146 0.23884 0.28138 0.0
C2917 C 0.41747 0.22366 0.27772 0.0
C2918 C 0.42721 0.25455 0.22923 0.0
C2919 C 0.42252 0.2464 0.25629 0.0
C2920 C 0.42469 0.26508 0.21761 0.0
C2921 C 0.41737 0.27884 0.22078 0.0
C2922 C 0.42247 0.25794 0.24406 0.0
C2923 C 0.41367 0.28211 0.23587 0.0
C2924 C 0.41724 0.25021 0.27081 0.0
C2925 C 0.4239 0.22038 0.26355 0.0
N2926 N 0.41613 0.27171 0.24688 0.0
N2927 N 0.42595 0.23165 0.2532 0.0
H2928 H 0.76025 0.70709 0.57931 0.0
H2929 H 0.74157 0.79481 0.57067 0.0
H2930 H 0.79471 0.74093 0.57214 0.0
H2931 H 0.70915 0.75989 0.58148 0.0
H2932 H 0.7604 0.77508 0.56498 0.0
H2933 H 0.74087 0.72584 0.57353 0.0
C2934 C 0.76373 0.71845 0.57623 0.0
C2935 C 0.77905 0.72255 0.57641 0.0
C2936 C 0.74907 0.77177 0.56829 0.0
C2937 C 0.7569 0.74428 0.5702 0.0
C2938 C 0.73831 0.78301 0.57146 0.0
C2939 C 0.72389 0.77894 0.5768 0.0
C2940 C 0.74526 0.75644 0.57039 0.0
C2941 C 0.72024 0.76352 0.57766 0.0
C2942 C 0.75266 0.72919 0.57297 0.0
C2943 C 0.78298 0.73736 0.57217 0.0
N2944 N 0.73088 0.75286 0.57466 0.0
N2945 N 0.77193 0.74783 0.56956 0.0
H2946 H 0.7596 0.29287 0.42125 0.0
H2947 H 0.74008 0.20519 0.42858 0.0
H2948 H 0.79374 0.25854 0.42767 0.0
H2949 H 0.70815 0.24053 0.41766 0.0
H2950 H 0.75903 0.22468 0.43467 0.0
H2951 H 0.74005 0.27421 0.42676 0.0
C2952 C 0.76297 0.28142 0.42412 0.0
C2953 C 0.77826 0.27716 0.42379 0.0
C2954 C 0.74778 0.22813 0.43124 0.0
C2955 C 0.7559 0.25555 0.42968 0.0
C2956 C 0.73694 0.21703 0.42784 0.0
C2957 C 0.72263 0.22129 0.42236 0.0
C2958 C 0.74415 0.24352 0.42924 0.0
C2959 C 0.71915 0.23676 0.42158 0.0
C2960 C 0.75181 0.27074 0.42722 0.0
C2961 C 0.78204 0.26223 0.42775 0.0
N2962 N 0.72986 0.24728 0.42481 0.0
N2963 N 0.77089 0.25184 0.43021 0.0
H2964 H 0.79524 0.73946 0.43148 0.0
H2965 H 0.7078 0.75906 0.42321 0.0
H2966 H 0.75977 0.70714 0.42234 0.0
H2967 H 0.7421 0.79319 0.42984 0.0
H2968 H 0.72627 0.73954 0.4294 0.0
H2969 H 0.77585 0.75864 0.43712 0.0
C2970 C 0.78339 0.7363 0.43107 0.0
C2971 C 0.77906 0.7218 0.42619 0.0
C2972 C 0.72979 0.75129 0.42975 0.0
C2973 C 0.75693 0.74357 0.4325 0.0
C2974 C 0.71921 0.76244 0.42625 0.0
C2975 C 0.72352 0.7777 0.4258 0.0
C2976 C 0.74493 0.75537 0.43248 0.0
C2977 C 0.73837 0.78151 0.43 0.0
C2978 C 0.77234 0.74726 0.4342 0.0
C2979 C 0.76358 0.71828 0.4258 0.0
N2980 N 0.74868 0.77037 0.43284 0.0
N2981 N 0.75311 0.72912 0.42872 0.0
H2982 H 0.20545 0.74228 0.43 0.0
H2983 H 0.29307 0.7598 0.42006 0.0
H2984 H 0.23995 0.70908 0.42032 0.0
H2985 H 0.25989 0.79463 0.4285 0.0
H2986 H 0.27431 0.74063 0.42643 0.0
H2987 H 0.22541 0.7609 0.43556 0.0
C2988 C 0.2172 0.7388 0.42948 0.0
C2989 C 0.2211 0.72424 0.42445 0.0
C2990 C 0.27111 0.75245 0.42714 0.0
C2991 C 0.24388 0.74536 0.43064 0.0
C2992 C 0.28185 0.7634 0.42352 0.0
C2993 C 0.27793 0.77878 0.42353 0.0
C2994 C 0.25617 0.75686 0.43044 0.0
C2995 C 0.26331 0.78286 0.42828 0.0
C2996 C 0.22858 0.74944 0.43255 0.0
C2997 C 0.23647 0.72029 0.42389 0.0
N2998 N 0.25282 0.77193 0.43123 0.0
N2999 N 0.24726 0.73083 0.42675 0.0
H3000 H 0.26136 0.20503 0.43163 0.0
H3001 H 0.24361 0.29273 0.42162 0.0
H3002 H 0.29446 0.2396 0.42181 0.0
H3003 H 0.20878 0.25946 0.42968 0.0
H3004 H 0.26278 0.2739 0.42775 0.0
H3005 H 0.24258 0.22497 0.43678 0.0
C3006 C 0.26477 0.2168 0.43097 0.0
C3007 C 0.27938 0.22071 0.42605 0.0
C3008 C 0.25096 0.27069 0.42841 0.0
C3009 C 0.25808 0.24345 0.4318 0.0
C3010 C 0.24001 0.28147 0.42493 0.0
C3011 C 0.22463 0.27756 0.42493 0.0
C3012 C 0.24656 0.25572 0.43158 0.0
C3013 C 0.22055 0.26288 0.42949 0.0
C3014 C 0.25405 0.22816 0.43382 0.0
C3015 C 0.28323 0.23609 0.42531 0.0
N3016 N 0.23149 0.25236 0.43233 0.0
N3017 N 0.27262 0.24686 0.42797 0.0
H3018 H 0.20745 0.25732 0.57169 0.0
H3019 H 0.29473 0.23758 0.58409 0.0
H3020 H 0.24146 0.28823 0.58829 0.0
H3021 H 0.26118 0.20367 0.57354 0.0
H3022 H 0.2761 0.25728 0.57914 0.0
H3023 H 0.2275 0.23872 0.56629 0.0
C3024 C 0.21915 0.26031 0.57387 0.0
C3025 C 0.22282 0.27421 0.58067 0.0
C3026 C 0.2728 0.24556 0.57769 0.0
C3027 C 0.24567 0.25314 0.57453 0.0
C3028 C 0.28346 0.2343 0.58049 0.0
C3029 C 0.2794 0.21898 0.57947 0.0
C3030 C 0.25783 0.24152 0.57412 0.0
C3031 C 0.26472 0.21537 0.57453 0.0
C3032 C 0.23056 0.24969 0.57085 0.0
C3033 C 0.23812 0.27754 0.58329 0.0
N3034 N 0.25433 0.22657 0.57233 0.0
N3035 N 0.24893 0.26705 0.58034 0.0
H3036 H 0.79396 0.26013 0.56824 0.0
H3037 H 0.70723 0.23888 0.57839 0.0
H3038 H 0.75813 0.29187 0.57806 0.0
H3039 H 0.74168 0.20556 0.56902 0.0
H3040 H 0.72516 0.2589 0.57227 0.0
H3041 H 0.77478 0.24073 0.56266 0.0
C3042 C 0.78207 0.26312 0.56881 0.0
C3043 C 0.77758 0.27751 0.57388 0.0
C3044 C 0.72883 0.24724 0.57131 0.0
C3045 C 0.7557 0.25548 0.56766 0.0
C3046 C 0.71856 0.2358 0.57479 0.0
C3047 C 0.72308 0.2206 0.57442 0.0
C3048 C 0.74389 0.24349 0.5678 0.0
C3049 C 0.73781 0.21719 0.56951 0.0
C3050 C 0.77114 0.25204 0.56571 0.0
C3051 C 0.76207 0.28082 0.57446 0.0
N3052 N 0.74784 0.22859 0.5667 0.0
N3053 N 0.75172 0.26985 0.57159 0.0
H3054 H 0.25943 0.79273 0.56888 0.0
H3055 H 0.24032 0.70521 0.57996 0.0
H3056 H 0.29081 0.75851 0.58406 0.0
H3057 H 0.20608 0.73884 0.57088 0.0
H3058 H 0.25986 0.72392 0.57464 0.0
H3059 H 0.24087 0.77271 0.56322 0.0
C3060 C 0.26253 0.781 0.57067 0.0
C3061 C 0.27655 0.77724 0.57717 0.0
C3062 C 0.24809 0.72722 0.57358 0.0
C3063 C 0.25553 0.75442 0.57076 0.0
C3064 C 0.23693 0.71651 0.57658 0.0
C3065 C 0.2216 0.72058 0.5761 0.0
C3066 C 0.24393 0.74224 0.57037 0.0
C3067 C 0.21781 0.7353 0.57145 0.0
C3068 C 0.25194 0.7696 0.56751 0.0
C3069 C 0.28003 0.7619 0.5793 0.0
N3070 N 0.22894 0.74575 0.56907 0.0
N3071 N 0.26956 0.7511 0.57624 0.0
H3072 H 0.03924 0.21806 0.34333 0.0
H3073 H 0.96396 0.17414 0.31817 0.0
H3074 H 0.03837 0.1758 0.31877 0.0
H3075 H 0.96272 0.21684 0.34196 0.0
H3076 H 0.99138 0.1739 0.32042 0.0
H3077 H 0.01145 0.21723 0.34502 0.0
C3078 C 0.03323 0.20856 0.33843 0.0
C3079 C 0.04112 0.19704 0.33081 0.0
C3080 C 0.98518 0.18332 0.32523 0.0
C3081 C 0.00946 0.19602 0.33266 0.0
C3082 C 0.96947 0.18346 0.32395 0.0
C3083 C 0.96104 0.19558 0.32979 0.0
C3084 C 0.99264 0.19545 0.33233 0.0
C3085 C 0.96881 0.20729 0.33726 0.0
C3086 C 0.01739 0.20811 0.33937 0.0
C3087 C 0.03278 0.185 0.32465 0.0
N3088 N 0.98422 0.207 0.33822 0.0
N3089 N 0.01746 0.18485 0.32566 0.0
H3090 H 0.78267 0.962 0.3423 0.0
H3091 H 0.82694 0.03728 0.31794 0.0
H3092 H 0.82576 0.96294 0.31923 0.0
H3093 H 0.78372 0.03848 0.34075 0.0
H3094 H 0.82736 0.0099 0.32057 0.0
H3095 H 0.78344 0.9898 0.34407 0.0
C3096 C 0.79234 0.96803 0.33776 0.0
C3097 C 0.80411 0.96017 0.33049 0.0
C3098 C 0.81778 0.01609 0.3251 0.0
C3099 C 0.80505 0.99181 0.33244 0.0
C3100 C 0.81754 0.03177 0.32359 0.0
C3101 C 0.80522 0.04017 0.32903 0.0
C3102 C 0.80554 0.00862 0.332 0.0
C3103 C 0.79342 0.0324 0.33636 0.0
C3104 C 0.79276 0.98387 0.33874 0.0
C3105 C 0.81637 0.96852 0.3248 0.0
N3106 N 0.7938 0.01701 0.33752 0.0
N3107 N 0.81647 0.98383 0.32583 0.0
H3108 H 0.96092 0.82538 0.31638 0.0
H3109 H 0.03736 0.78362 0.34173 0.0
H3110 H 0.96071 0.78291 0.34061 0.0
H3111 H 0.03523 0.82606 0.31753 0.0
H3112 H 0.00952 0.7835 0.34317 0.0
H3113 H 0.98832 0.82623 0.31847 0.0
C3114 C 0.96666 0.81623 0.32221 0.0
C3115 C 0.95852 0.80401 0.32825 0.0
C3116 C 0.0152 0.79286 0.33764 0.0
C3117 C 0.99011 0.80484 0.33062 0.0
C3118 C 0.03106 0.79295 0.33684 0.0
C3119 C 0.03861 0.80482 0.32941 0.0
C3120 C 0.00693 0.80474 0.331 0.0
C3121 C 0.02992 0.81661 0.32327 0.0
C3122 C 0.98235 0.81672 0.32341 0.0
C3123 C 0.96658 0.79254 0.33578 0.0
N3124 N 0.0146 0.81623 0.32415 0.0
N3125 N 0.98198 0.79317 0.33666 0.0
H3126 H 0.17411 0.03833 0.31913 0.0
H3127 H 0.21715 0.96203 0.34271 0.0
H3128 H 0.21714 0.03864 0.34234 0.0
H3129 H 0.17438 0.96399 0.3191 0.0
H3130 H 0.21694 0.98984 0.34459 0.0
H3131 H 0.17351 0.0109 0.321 0.0
C3132 C 0.18343 0.03261 0.3247 0.0
C3133 C 0.19574 0.04079 0.3305 0.0
C3134 C 0.20758 0.98413 0.3391 0.0
C3135 C 0.1952 0.00917 0.3326 0.0
C3136 C 0.20768 0.96829 0.33804 0.0
C3137 C 0.19582 0.9607 0.33065 0.0
C3138 C 0.1955 0.99235 0.33274 0.0
C3139 C 0.18383 0.96933 0.3248 0.0
C3140 C 0.18309 0.0169 0.32577 0.0
C3141 C 0.20744 0.03275 0.33769 0.0
N3142 N 0.18402 0.98464 0.32592 0.0
N3143 N 0.20695 0.01733 0.33845 0.0
H3144 H 0.03824 0.82624 0.68154 0.0
H3145 H 0.96202 0.78297 0.65819 0.0
H3146 H 0.03852 0.78325 0.65826 0.0
H3147 H 0.96383 0.82511 0.6829 0.0
H3148 H 0.98976 0.78363 0.65575 0.0
H3149 H 0.01079 0.82685 0.67968 0.0
C3150 C 0.03251 0.81694 0.67594 0.0
C3151 C 0.04068 0.80461 0.67015 0.0
C3152 C 0.98404 0.79277 0.6616 0.0
C3153 C 0.00905 0.80517 0.66808 0.0
C3154 C 0.96822 0.79241 0.66296 0.0
C3155 C 0.96062 0.80395 0.67086 0.0
C3156 C 0.99222 0.80477 0.66814 0.0
C3157 C 0.9692 0.81591 0.67683 0.0
C3158 C 0.01679 0.81729 0.67489 0.0
C3159 C 0.03263 0.79296 0.6629 0.0
N3160 N 0.98449 0.81596 0.6754 0.0
N3161 N 0.01722 0.79345 0.66218 0.0
H3162 H 0.17214 0.03737 0.68688 0.0
H3163 H 0.21496 0.96233 0.65926 0.0
H3164 H 0.21302 0.03851 0.66008 0.0
H3165 H 0.17479 0.96266 0.68714 0.0
H3166 H 0.21365 0.99005 0.65764 0.0
H3167 H 0.17205 0.00987 0.68519 0.0
C3168 C 0.18107 0.03183 0.68055 0.0
C3169 C 0.19266 0.04025 0.67368 0.0
C3170 C 0.20509 0.98402 0.66403 0.0
C3171 C 0.1927 0.00861 0.67179 0.0
C3172 C 0.20582 0.96821 0.66495 0.0
C3173 C 0.19501 0.96018 0.67342 0.0
C3174 C 0.19346 0.99181 0.67163 0.0
C3175 C 0.18342 0.96837 0.68055 0.0
C3176 C 0.18102 0.01608 0.6796 0.0
C3177 C 0.20388 0.03244 0.66557 0.0
N3178 N 0.18299 0.9837 0.67954 0.0
N3179 N 0.20369 0.01703 0.66493 0.0
H3180 H 0.95883 0.2157 0.65883 0.0
H3181 H 0.03442 0.17471 0.68774 0.0
H3182 H 0.95974 0.17519 0.68619 0.0
H3183 H 0.03508 0.21531 0.6605 0.0
H3184 H 0.00695 0.17399 0.68561 0.0
H3185 H 0.98662 0.21505 0.65759 0.0
C3186 C 0.96486 0.20661 0.66445 0.0
C3187 C 0.95697 0.19553 0.6727 0.0
C3188 C 0.01306 0.18304 0.68002 0.0
C3189 C 0.98865 0.19475 0.67139 0.0
C3190 C 0.02878 0.18346 0.68124 0.0
C3191 C 0.03705 0.19514 0.67436 0.0
C3192 C 0.00546 0.19443 0.67192 0.0
C3193 C 0.02912 0.20612 0.66602 0.0
C3194 C 0.9807 0.20626 0.66377 0.0
C3195 C 0.96533 0.18402 0.67978 0.0
N3196 N 0.01373 0.20556 0.6651 0.0
N3197 N 0.98068 0.18398 0.67901 0.0
H3198 H 0.82407 0.03712 0.6891 0.0
H3199 H 0.78404 0.96065 0.66121 0.0
H3200 H 0.7834 0.03691 0.66196 0.0
H3201 H 0.82486 0.96244 0.68807 0.0
H3202 H 0.78424 0.98843 0.65971 0.0
H3203 H 0.82521 0.00965 0.68722 0.0
C3204 C 0.81539 0.03129 0.68267 0.0
C3205 C 0.80357 0.03932 0.67575 0.0
C3206 C 0.7932 0.98271 0.66584 0.0
C3207 C 0.80475 0.00772 0.6736 0.0
C3208 C 0.7931 0.96687 0.66667 0.0
C3209 C 0.8044 0.95924 0.67486 0.0
C3210 C 0.80468 0.9909 0.67323 0.0
C3211 C 0.81586 0.96784 0.68172 0.0
C3212 C 0.81605 0.01557 0.68159 0.0
C3213 C 0.7927 0.03114 0.6675 0.0
N3214 N 0.81566 0.98317 0.68081 0.0
N3215 N 0.79348 0.01576 0.66673 0.0
H3216 H 0.33802 0.96224 0.21544 0.0
H3217 H 0.30859 0.03826 0.17556 0.0
H3218 H 0.30761 0.96328 0.17716 0.0
H3219 H 0.33818 0.03828 0.21449 0.0
H3220 H 0.30951 0.01068 0.17517 0.0
H3221 H 0.33956 0.98995 0.21455 0.0
C3222 C 0.33173 0.96828 0.20681 0.0
C3223 C 0.32262 0.96045 0.19639 0.0
C3224 C 0.31587 0.01668 0.18377 0.0
C3225 C 0.32432 0.99209 0.19532 0.0
C3226 C 0.31536 0.03246 0.18399 0.0
C3227 C 0.32327 0.04059 0.19511 0.0
C3228 C 0.32432 0.00891 0.19479 0.0
C3229 C 0.33189 0.03245 0.20572 0.0
C3230 C 0.3326 0.9841 0.20631 0.0
C3231 C 0.31473 0.96884 0.18545 0.0
N3232 N 0.33212 0.01704 0.20535 0.0
N3233 N 0.31573 0.98419 0.18524 0.0
H3234 H 0.96226 0.34047 0.21632 0.0
H3235 H 0.03841 0.31214 0.17597 0.0
H3236 H 0.96352 0.31183 0.17671 0.0
H3237 H 0.03835 0.34028 0.21596 0.0
H3238 H 0.01087 0.31347 0.17528 0.0
H3239 H 0.98999 0.34207 0.21564 0.0
C3240 C 0.96836 0.33461 0.20743 0.0
C3241 C 0.96058 0.32594 0.1966 0.0
C3242 C 0.01684 0.31943 0.18418 0.0
C3243 C 0.99223 0.32769 0.19577 0.0
C3244 C 0.0326 0.31868 0.18458 0.0
C3245 C 0.04069 0.32605 0.19609 0.0
C3246 C 0.00904 0.32756 0.19541 0.0
C3247 C 0.03254 0.3344 0.2069 0.0
C3248 C 0.98417 0.33551 0.20706 0.0
C3249 C 0.96904 0.31858 0.18533 0.0
N3250 N 0.01714 0.33486 0.20635 0.0
N3251 N 0.98438 0.31958 0.18525 0.0
H3252 H 0.65951 0.96144 0.21624 0.0
H3253 H 0.68777 0.0372 0.17507 0.0
H3254 H 0.68709 0.96248 0.17589 0.0
H3255 H 0.66002 0.03772 0.21532 0.0
H3256 H 0.68605 0.00969 0.17451 0.0
H3257 H 0.65794 0.98921 0.21545 0.0
C3258 C 0.66511 0.96749 0.20716 0.0
C3259 C 0.67352 0.95965 0.19616 0.0
C3260 C 0.68025 0.01578 0.18345 0.0
C3261 C 0.67182 0.99131 0.19522 0.0
C3262 C 0.68124 0.03152 0.18377 0.0
C3263 C 0.6741 0.03977 0.19531 0.0
C3264 C 0.67212 0.00813 0.1948 0.0
C3265 C 0.66573 0.03179 0.20624 0.0
C3266 C 0.66424 0.98332 0.20673 0.0
C3267 C 0.68057 0.96804 0.18466 0.0
N3268 N 0.66505 0.01638 0.20577 0.0
N3269 N 0.67961 0.98337 0.18453 0.0
H3270 H 0.04011 0.6619 0.21609 0.0
H3271 H 0.96424 0.69005 0.17505 0.0
H3272 H 0.03911 0.69175 0.17737 0.0
H3273 H 0.96402 0.66105 0.21442 0.0
H3274 H 0.99182 0.68942 0.17502 0.0
H3275 H 0.01241 0.66014 0.21503 0.0
C3276 C 0.03408 0.66802 0.20733 0.0
C3277 C 0.04192 0.67703 0.19684 0.0
C3278 C 0.98578 0.68313 0.18365 0.0
C3279 C 0.0103 0.67508 0.19557 0.0
C3280 C 0.97 0.68347 0.18366 0.0
C3281 C 0.96181 0.67563 0.19479 0.0
C3282 C 0.9935 0.67492 0.19488 0.0
C3283 C 0.9699 0.66727 0.20564 0.0
C3284 C 0.01828 0.66702 0.20674 0.0
C3285 C 0.03354 0.68471 0.18573 0.0
N3286 N 0.98532 0.66719 0.20546 0.0
N3287 N 0.01822 0.68359 0.18542 0.0
H3288 H 0.34106 0.96092 0.78541 0.0
H3289 H 0.31148 0.03712 0.82482 0.0
H3290 H 0.31264 0.96227 0.82517 0.0
H3291 H 0.34017 0.0371 0.78523 0.0
H3292 H 0.31318 0.00961 0.82578 0.0
H3293 H 0.34232 0.9887 0.78579 0.0
C3294 C 0.3352 0.96704 0.79427 0.0
C3295 C 0.32667 0.95928 0.80523 0.0
C3296 C 0.31918 0.01558 0.8169 0.0
C3297 C 0.328 0.99097 0.8057 0.0
C3298 C 0.31821 0.03133 0.81635 0.0
C3299 C 0.32564 0.03942 0.80488 0.0
C3300 C 0.32759 0.00779 0.80586 0.0
C3301 C 0.33424 0.03129 0.79425 0.0
C3302 C 0.33589 0.98288 0.79447 0.0
C3303 C 0.31928 0.96777 0.81645 0.0
N3304 N 0.33491 0.0159 0.79494 0.0
N3305 N 0.32007 0.98312 0.81635 0.0
H3306 H 0.03771 0.34174 0.78276 0.0
H3307 H 0.96166 0.31801 0.82605 0.0
H3308 H 0.03602 0.31825 0.82561 0.0
H3309 H 0.96118 0.34071 0.78276 0.0
H3310 H 0.98905 0.32031 0.82676 0.0
H3311 H 0.00993 0.34372 0.78317 0.0
C3312 C 0.03152 0.33715 0.79231 0.0
C3313 C 0.03917 0.32972 0.80411 0.0
C3314 C 0.98302 0.32488 0.8171 0.0
C3315 C 0.00753 0.33191 0.80464 0.0
C3316 C 0.96733 0.32356 0.8167 0.0
C3317 C 0.95912 0.32907 0.80427 0.0
C3318 C 0.9907 0.33166 0.80493 0.0
C3319 C 0.9671 0.33628 0.79254 0.0
C3320 C 0.01569 0.33825 0.79251 0.0
C3321 C 0.03062 0.32396 0.81619 0.0
N3322 N 0.9825 0.33726 0.79309 0.0
N3323 N 0.0153 0.32512 0.8161 0.0
H3324 H 0.68101 0.03582 0.82885 0.0
H3325 H 0.65783 0.9603 0.78424 0.0
H3326 H 0.65824 0.03675 0.78559 0.0
H3327 H 0.68249 0.9614 0.82645 0.0
H3328 H 0.65551 0.98803 0.7853 0.0
H3329 H 0.67914 0.00835 0.82902 0.0
C3330 C 0.67551 0.03023 0.8194 0.0
C3331 C 0.66988 0.03859 0.80713 0.0
C3332 C 0.66133 0.98215 0.79436 0.0
C3333 C 0.6678 0.00696 0.80717 0.0
C3334 C 0.66263 0.96634 0.79378 0.0
C3335 C 0.67046 0.95854 0.80522 0.0
C3336 C 0.66786 0.99014 0.80649 0.0
C3337 C 0.67646 0.96692 0.81731 0.0
C3338 C 0.67446 0.0145 0.81949 0.0
C3339 C 0.66277 0.03072 0.79526 0.0
N3340 N 0.67509 0.98222 0.81758 0.0
N3341 N 0.66204 0.0153 0.79551 0.0
H3342 H 0.96423 0.68515 0.82542 0.0
H3343 H 0.04004 0.6588 0.78317 0.0
H3344 H 0.96378 0.65913 0.78403 0.0
H3345 H 0.03885 0.68513 0.82436 0.0
H3346 H 0.01229 0.65688 0.78403 0.0
H3347 H 0.99172 0.68333 0.82601 0.0
C3348 C 0.96992 0.67898 0.81647 0.0
C3349 C 0.9617 0.67237 0.8046 0.0
C3350 C 0.01815 0.66297 0.79292 0.0
C3351 C 0.99332 0.6703 0.80514 0.0
C3352 C 0.03396 0.66405 0.79245 0.0
C3353 C 0.04174 0.67222 0.80365 0.0
C3354 C 0.01013 0.67011 0.80469 0.0
C3355 C 0.03333 0.6788 0.81542 0.0
C3356 C 0.98565 0.67793 0.81681 0.0
C3357 C 0.9697 0.66442 0.79337 0.0
N3358 N 0.01802 0.67766 0.81558 0.0
N3359 N 0.9851 0.6637 0.79385 0.0
H3360 H 0.17296 0.31837 0.03761 0.0
H3361 H 0.21571 0.34289 0.96143 0.0
H3362 H 0.21526 0.34287 0.03784 0.0
H3363 H 0.17416 0.31717 0.96306 0.0
H3364 H 0.21502 0.34507 0.98918 0.0
H3365 H 0.17239 0.32 0.01013 0.0
C3366 C 0.18211 0.32419 0.03187 0.0
C3367 C 0.19423 0.3304 0.04003 0.0
C3368 C 0.20602 0.33904 0.98342 0.0
C3369 C 0.19373 0.33222 0.00839 0.0
C3370 C 0.20639 0.33782 0.9676 0.0
C3371 C 0.19502 0.32976 0.95994 0.0
C3372 C 0.19417 0.33218 0.99156 0.0
C3373 C 0.18323 0.3234 0.96847 0.0
C3374 C 0.18179 0.32511 0.01613 0.0
C3375 C 0.20572 0.33789 0.03196 0.0
N3376 N 0.18315 0.32471 0.98378 0.0
N3377 N 0.20525 0.3385 0.01655 0.0
H3378 H 0.21729 0.65839 0.96114 0.0
H3379 H 0.17383 0.68387 0.03654 0.0
H3380 H 0.17522 0.68328 0.9621 0.0
H3381 H 0.21629 0.65966 0.03758 0.0
H3382 H 0.17341 0.68158 0.00912 0.0
H3383 H 0.21645 0.65662 0.98892 0.0
C3384 C 0.20782 0.66334 0.96717 0.0
C3385 C 0.19636 0.67109 0.95931 0.0
C3386 C 0.18282 0.67668 0.01528 0.0
C3387 C 0.19535 0.66914 0.99096 0.0
C3388 C 0.18306 0.67799 0.03099 0.0
C3389 C 0.19517 0.67204 0.03936 0.0
C3390 C 0.19484 0.66946 0.00777 0.0
C3391 C 0.20675 0.66444 0.03154 0.0
C3392 C 0.20737 0.66236 0.983 0.0
C3393 C 0.18437 0.6773 0.96767 0.0
N3394 N 0.20637 0.66347 0.01613 0.0
N3395 N 0.18422 0.67625 0.98299 0.0
H3396 H 0.30853 0.17502 0.03715 0.0
H3397 H 0.33902 0.21424 0.96123 0.0
H3398 H 0.33811 0.21396 0.03723 0.0
H3399 H 0.30914 0.17554 0.96216 0.0
H3400 H 0.34026 0.21353 0.98896 0.0
H3401 H 0.31006 0.17422 0.00961 0.0
C3402 C 0.31543 0.18337 0.03137 0.0
C3403 C 0.32315 0.19462 0.0395 0.0
C3404 C 0.3335 0.20515 0.98308 0.0
C3405 C 0.32491 0.19382 0.00787 0.0
C3406 C 0.33281 0.20554 0.96725 0.0
C3407 C 0.32391 0.19498 0.95938 0.0
C3408 C 0.32523 0.19413 0.99105 0.0
C3409 C 0.3161 0.18395 0.96775 0.0
C3410 C 0.31629 0.18291 0.01562 0.0
C3411 C 0.33195 0.20511 0.0314 0.0
N3412 N 0.3169 0.18386 0.98311 0.0
N3413 N 0.33252 0.2045 0.01601 0.0
H3414 H 0.78406 0.34247 0.96236 0.0
H3415 H 0.82649 0.31542 0.03785 0.0
H3416 H 0.82538 0.31635 0.96329 0.0
H3417 H 0.78505 0.34133 0.03879 0.0
H3418 H 0.82693 0.3175 0.0104 0.0
H3419 H 0.78483 0.344 0.99015 0.0
C3420 C 0.79334 0.33718 0.96839 0.0
C3421 C 0.80462 0.32919 0.96051 0.0
C3422 C 0.81775 0.32281 0.01655 0.0
C3423 C 0.80555 0.33086 0.99218 0.0
C3424 C 0.81749 0.32163 0.03227 0.0
C3425 C 0.80566 0.32813 0.04063 0.0
C3426 C 0.80603 0.33049 0.00901 0.0
C3427 C 0.79437 0.33612 0.03276 0.0
C3428 C 0.79376 0.33803 0.98423 0.0
C3429 C 0.81638 0.32254 0.96887 0.0
N3430 N 0.79476 0.33699 0.01735 0.0
N3431 N 0.8165 0.32348 0.98421 0.0
H3432 H 0.66077 0.78394 0.03968 0.0
H3433 H 0.68839 0.82458 0.96341 0.0
H3434 H 0.6885 0.82418 0.03813 0.0
H3435 H 0.66086 0.78418 0.96343 0.0
H3436 H 0.68685 0.82537 0.99092 0.0
H3437 H 0.65897 0.78455 0.01193 0.0
C3438 C 0.66636 0.79296 0.03352 0.0
C3439 C 0.67487 0.80398 0.04121 0.0
C3440 C 0.68107 0.81635 0.98495 0.0
C3441 C 0.67291 0.80472 0.00957 0.0
C3442 C 0.68195 0.81589 0.96921 0.0
C3443 C 0.67481 0.80424 0.96111 0.0
C3444 C 0.67306 0.80502 0.99275 0.0
C3445 C 0.66656 0.79334 0.96924 0.0
C3446 C 0.66535 0.79329 0.0177 0.0
C3447 C 0.68189 0.8154 0.03269 0.0
N3448 N 0.66598 0.79393 0.98465 0.0
N3449 N 0.68081 0.81543 0.01736 0.0
H3450 H 0.78524 0.65729 0.03757 0.0
H3451 H 0.82764 0.68273 0.96152 0.0
H3452 H 0.82699 0.68267 0.03601 0.0
H3453 H 0.7853 0.6583 0.96112 0.0
H3454 H 0.82838 0.68061 0.98896 0.0
H3455 H 0.78578 0.6554 0.00979 0.0
C3456 C 0.79457 0.66233 0.03141 0.0
C3457 C 0.80603 0.67024 0.03909 0.0
C3458 C 0.81893 0.67562 0.98293 0.0
C3459 C 0.80671 0.66816 0.00745 0.0
C3460 C 0.81851 0.67683 0.96722 0.0
C3461 C 0.80633 0.67078 0.95902 0.0
C3462 C 0.80703 0.66839 0.99062 0.0
C3463 C 0.79488 0.66316 0.96703 0.0
C3464 C 0.79486 0.66128 0.01557 0.0
C3465 C 0.81785 0.67657 0.03057 0.0
N3466 N 0.79544 0.66228 0.98243 0.0
N3467 N 0.81784 0.67544 0.01525 0.0
H3468 H 0.34145 0.78413 0.03973 0.0
H3469 H 0.31457 0.82543 0.96356 0.0
H3470 H 0.31448 0.82489 0.03818 0.0
H3471 H 0.34077 0.78415 0.9634 0.0
H3472 H 0.31634 0.8262 0.99104 0.0
H3473 H 0.34322 0.78467 0.01197 0.0
C3474 C 0.33602 0.79325 0.03357 0.0
C3475 C 0.32773 0.80443 0.04126 0.0
C3476 C 0.32178 0.81698 0.98505 0.0
C3477 C 0.32966 0.8051 0.00962 0.0
C3478 C 0.32078 0.81654 0.96932 0.0
C3479 C 0.32746 0.80465 0.96118 0.0
C3480 C 0.32946 0.8054 0.9928 0.0
C3481 C 0.33543 0.7935 0.96926 0.0
C3482 C 0.33701 0.79353 0.01774 0.0
C3483 C 0.32091 0.81597 0.03274 0.0
N3484 N 0.33613 0.79408 0.98466 0.0
N3485 N 0.32198 0.81596 0.01741 0.0
H3486 H 0.68931 0.17567 0.96267 0.0
H3487 H 0.65927 0.21493 0.03873 0.0
H3488 H 0.66008 0.21487 0.96272 0.0
H3489 H 0.68893 0.17606 0.03766 0.0
H3490 H 0.658 0.21432 0.011 0.0
H3491 H 0.68787 0.17485 0.99021 0.0
C3492 C 0.68252 0.18408 0.96848 0.0
C3493 C 0.67486 0.19541 0.96038 0.0
C3494 C 0.66472 0.20588 0.01685 0.0
C3495 C 0.67321 0.19457 0.99202 0.0
C3496 C 0.66543 0.20621 0.03268 0.0
C3497 C 0.67428 0.19557 0.04051 0.0
C3498 C 0.67291 0.19484 0.00884 0.0
C3499 C 0.68201 0.18453 0.0321 0.0
C3500 C 0.6817 0.18361 0.98423 0.0
C3501 C 0.66619 0.20597 0.96853 0.0
N3502 N 0.6812 0.18449 0.01674 0.0
N3503 N 0.66566 0.20534 0.98392 0.0
H3504 H 0.46133 0.71514 0.83902 0.0
H3505 H 0.5374 0.6755 0.80953 0.0
H3506 H 0.46243 0.67648 0.8091 0.0
H3507 H 0.53732 0.71468 0.83878 0.0
H3508 H 0.50984 0.67481 0.81077 0.0
H3509 H 0.48903 0.71432 0.84057 0.0
C3510 C 0.46739 0.70643 0.83286 0.0
C3511 C 0.45957 0.69591 0.82385 0.0
C3512 C 0.51582 0.68353 0.81699 0.0
C3513 C 0.49121 0.69493 0.82555 0.0
C3514 C 0.53158 0.68393 0.81629 0.0
C3515 C 0.53967 0.69521 0.82401 0.0
C3516 C 0.50802 0.69454 0.82542 0.0
C3517 C 0.53152 0.7058 0.83263 0.0
C3518 C 0.48319 0.70598 0.83373 0.0
C3519 C 0.46798 0.68486 0.81612 0.0
N3520 N 0.51612 0.70526 0.83304 0.0
N3521 N 0.48333 0.6847 0.8171 0.0
H3522 H 0.2837 0.53857 0.84101 0.0
H3523 H 0.32619 0.46233 0.81638 0.0
H3524 H 0.32583 0.53678 0.81627 0.0
H3525 H 0.28348 0.46211 0.84017 0.0
H3526 H 0.32702 0.48975 0.81852 0.0
H3527 H 0.28414 0.5108 0.84304 0.0
C3528 C 0.2931 0.53236 0.83615 0.0
C3529 C 0.30469 0.53997 0.82836 0.0
C3530 C 0.31747 0.48377 0.82336 0.0
C3531 C 0.30525 0.50834 0.83061 0.0
C3532 C 0.31699 0.46807 0.82214 0.0
C3533 C 0.30468 0.45992 0.828 0.0
C3534 C 0.3055 0.49152 0.83041 0.0
C3535 C 0.29316 0.46797 0.83546 0.0
C3536 C 0.29332 0.51653 0.83728 0.0
C3537 C 0.31659 0.53139 0.82226 0.0
N3538 N 0.29378 0.48337 0.83635 0.0
N3539 N 0.31651 0.51608 0.82346 0.0
H3540 H 0.53667 0.32411 0.80898 0.0
H3541 H 0.46078 0.28442 0.83898 0.0
H3542 H 0.53692 0.28499 0.83831 0.0
H3543 H 0.46175 0.32312 0.80912 0.0
H3544 H 0.48853 0.28507 0.84018 0.0
H3545 H 0.50912 0.32457 0.81019 0.0
C3546 C 0.53093 0.31563 0.81574 0.0
C3547 C 0.53911 0.30445 0.82351 0.0
C3548 C 0.48265 0.29345 0.83343 0.0
C3549 C 0.50745 0.30487 0.82491 0.0
C3550 C 0.46682 0.2931 0.83276 0.0
C3551 C 0.45895 0.3037 0.82389 0.0
C3552 C 0.49063 0.30448 0.82517 0.0
C3553 C 0.46733 0.31469 0.81605 0.0
C3554 C 0.51516 0.3159 0.81643 0.0
C3555 C 0.53104 0.29379 0.83212 0.0
N3556 N 0.48269 0.31476 0.81684 0.0
N3557 N 0.51563 0.29422 0.83254 0.0
H3558 H 0.67273 0.46289 0.81776 0.0
H3559 H 0.7161 0.53873 0.8421 0.0
H3560 H 0.71546 0.46223 0.84151 0.0
H3561 H 0.67384 0.53731 0.81755 0.0
H3562 H 0.71541 0.51096 0.84416 0.0
H3563 H 0.67222 0.49032 0.81983 0.0
C3564 C 0.682 0.46853 0.8235 0.0
C3565 C 0.69421 0.46026 0.82937 0.0
C3566 C 0.70626 0.51678 0.83843 0.0
C3567 C 0.69377 0.49187 0.83169 0.0
C3568 C 0.70663 0.53261 0.83728 0.0
C3569 C 0.69507 0.54033 0.82955 0.0
C3570 C 0.69422 0.50869 0.83184 0.0
C3571 C 0.68307 0.53185 0.82351 0.0
C3572 C 0.6817 0.48424 0.82468 0.0
C3573 C 0.70584 0.46819 0.83679 0.0
N3574 N 0.683 0.51654 0.82473 0.0
N3575 N 0.7054 0.48361 0.83764 0.0
H3576 H 0.46108 0.2848 0.1591 0.0
H3577 H 0.53663 0.32678 0.18675 0.0
H3578 H 0.46188 0.3246 0.18751 0.0
H3579 H 0.5373 0.2864 0.1592 0.0
H3580 H 0.50909 0.3268 0.18567 0.0
H3581 H 0.48883 0.28571 0.15765 0.0
C3582 C 0.46708 0.29375 0.16498 0.0
C3583 C 0.45917 0.3046 0.17349 0.0
C3584 C 0.51521 0.31795 0.17979 0.0
C3585 C 0.49081 0.30572 0.17187 0.0
C3586 C 0.53098 0.31795 0.18039 0.0
C3587 C 0.53928 0.30653 0.17311 0.0
C3588 C 0.50762 0.30641 0.17189 0.0
C3589 C 0.53132 0.2954 0.16499 0.0
C3590 C 0.4829 0.29426 0.16415 0.0
C3591 C 0.4675 0.31595 0.18086 0.0
N3592 N 0.5159 0.29557 0.16467 0.0
N3593 N 0.48283 0.31619 0.17991 0.0
H3594 H 0.71745 0.46263 0.15769 0.0
H3595 H 0.67425 0.53852 0.1822 0.0
H3596 H 0.67483 0.46408 0.18159 0.0
H3597 H 0.71713 0.53912 0.15872 0.0
H3598 H 0.67363 0.5111 0.17998 0.0
H3599 H 0.71697 0.49042 0.15591 0.0
C3600 C 0.70794 0.46877 0.16243 0.0
C3601 C 0.69621 0.46105 0.16989 0.0
C3602 C 0.68317 0.51717 0.17522 0.0
C3603 C 0.6956 0.4927 0.16793 0.0
C3604 C 0.68353 0.53287 0.17649 0.0
C3605 C 0.69581 0.54112 0.17073 0.0
C3606 C 0.69525 0.50953 0.16823 0.0
C3607 C 0.70745 0.53317 0.16335 0.0
C3608 C 0.70769 0.48461 0.16143 0.0
C3609 C 0.68418 0.46954 0.17584 0.0
N3610 N 0.70696 0.51777 0.16241 0.0
N3611 N 0.68423 0.48486 0.17478 0.0
H3612 H 0.53939 0.71837 0.15867 0.0
H3613 H 0.46356 0.67386 0.18081 0.0
H3614 H 0.53789 0.67531 0.18177 0.0
H3615 H 0.46289 0.71768 0.15915 0.0
H3616 H 0.49098 0.67341 0.17865 0.0
H3617 H 0.51164 0.71762 0.15626 0.0
C3618 C 0.53325 0.70871 0.16309 0.0
C3619 C 0.54093 0.69694 0.17054 0.0
C3620 C 0.4849 0.68312 0.17427 0.0
C3621 C 0.50934 0.69602 0.16784 0.0
C3622 C 0.46919 0.68338 0.1755 0.0
C3623 C 0.46093 0.69588 0.17027 0.0
C3624 C 0.49252 0.69552 0.16786 0.0
C3625 C 0.46885 0.70783 0.16336 0.0
C3626 C 0.51744 0.70831 0.16174 0.0
C3627 C 0.53245 0.6847 0.17606 0.0
N3628 N 0.48426 0.70743 0.16248 0.0
N3629 N 0.51716 0.68461 0.17466 0.0
H3630 H 0.28308 0.46317 0.15803 0.0
H3631 H 0.32617 0.53927 0.18213 0.0
H3632 H 0.32584 0.46495 0.18167 0.0
H3633 H 0.28295 0.53979 0.15929 0.0
H3634 H 0.32677 0.51187 0.17998 0.0
H3635 H 0.28327 0.49099 0.15638 0.0
C3636 C 0.29255 0.46939 0.16275 0.0
C3637 C 0.30441 0.46175 0.17009 0.0
C3638 C 0.31715 0.5179 0.17535 0.0
C3639 C 0.3047 0.49341 0.16826 0.0
C3640 C 0.3168 0.53361 0.17658 0.0
C3641 C 0.30444 0.54183 0.17098 0.0
C3642 C 0.30499 0.51024 0.16855 0.0
C3643 C 0.29269 0.53386 0.16379 0.0
C3644 C 0.29264 0.48524 0.16183 0.0
C3645 C 0.31639 0.47034 0.17601 0.0
N3646 N 0.29318 0.51845 0.16288 0.0
N3647 N 0.31619 0.48565 0.17501 0.0
H3648 H 0.84013 0.5376 0.71616 0.0
H3649 H 0.8122 0.46192 0.67473 0.0
H3650 H 0.81209 0.53662 0.67611 0.0
H3651 H 0.83889 0.46137 0.7157 0.0
H3652 H 0.81397 0.4894 0.67418 0.0
H3653 H 0.84165 0.50986 0.71537 0.0
C3654 C 0.83439 0.53157 0.70715 0.0
C3655 C 0.8259 0.53942 0.69623 0.0
C3656 C 0.81952 0.48332 0.68328 0.0
C3657 C 0.82757 0.50777 0.69527 0.0
C3658 C 0.81851 0.46759 0.68359 0.0
C3659 C 0.82533 0.45934 0.69534 0.0
C3660 C 0.82734 0.49096 0.69483 0.0
C3661 C 0.83344 0.46731 0.70645 0.0
C3662 C 0.83524 0.51575 0.70672 0.0
C3663 C 0.81869 0.53105 0.68481 0.0
N3664 N 0.83414 0.48272 0.70599 0.0
N3665 N 0.81965 0.51571 0.68467 0.0
H3666 H 0.53711 0.81781 0.67237 0.0
H3667 H 0.46133 0.84303 0.71539 0.0
H3668 H 0.5378 0.84179 0.71497 0.0
H3669 H 0.46263 0.81846 0.67314 0.0
H3670 H 0.48912 0.8448 0.71479 0.0
H3671 H 0.50969 0.8201 0.67175 0.0
C3672 C 0.53148 0.82364 0.68159 0.0
C3673 C 0.53976 0.82952 0.6938 0.0
C3674 C 0.48328 0.83913 0.70561 0.0
C3675 C 0.50816 0.83211 0.69323 0.0
C3676 C 0.46744 0.83815 0.70593 0.0
C3677 C 0.45967 0.8305 0.69435 0.0
C3678 C 0.49133 0.83244 0.6936 0.0
C3679 C 0.46813 0.82437 0.68237 0.0
C3680 C 0.51577 0.82495 0.68123 0.0
C3681 C 0.53183 0.83706 0.70535 0.0
N3682 N 0.48345 0.82542 0.68236 0.0
N3683 N 0.51643 0.83804 0.70486 0.0
H3684 H 0.15881 0.53728 0.7166 0.0
H3685 H 0.18363 0.46134 0.67365 0.0
H3686 H 0.1842 0.5358 0.67484 0.0
H3687 H 0.15903 0.46082 0.71589 0.0
H3688 H 0.18174 0.4888 0.67311 0.0
H3689 H 0.15666 0.50953 0.71585 0.0
C3690 C 0.16381 0.53115 0.70723 0.0
C3691 C 0.17179 0.53885 0.69583 0.0
C3692 C 0.17666 0.48274 0.68249 0.0
C3693 C 0.1694 0.50723 0.6949 0.0
C3694 C 0.17774 0.46701 0.6828 0.0
C3695 C 0.17157 0.45878 0.69489 0.0
C3696 C 0.16946 0.4904 0.69443 0.0
C3697 C 0.16397 0.46675 0.70637 0.0
C3698 C 0.1626 0.51532 0.70681 0.0
C3699 C 0.17804 0.53035 0.68394 0.0
N3700 N 0.16323 0.48217 0.70593 0.0
N3701 N 0.17676 0.51505 0.68384 0.0
H3702 H 0.4645 0.15752 0.71572 0.0
H3703 H 0.54037 0.18485 0.67415 0.0
H3704 H 0.46574 0.18476 0.67514 0.0
H3705 H 0.54088 0.15842 0.71528 0.0
H3706 H 0.51289 0.18327 0.67371 0.0
H3707 H 0.49229 0.15614 0.71522 0.0
C3708 C 0.4706 0.16312 0.70667 0.0
C3709 C 0.4628 0.17133 0.69549 0.0
C3710 C 0.51895 0.17775 0.68283 0.0
C3711 C 0.49448 0.16981 0.69485 0.0
C3712 C 0.53469 0.17864 0.68308 0.0
C3713 C 0.54294 0.17182 0.69482 0.0
C3714 C 0.5113 0.17003 0.69445 0.0
C3715 C 0.53495 0.16386 0.70604 0.0
C3716 C 0.48644 0.16234 0.7064 0.0
C3717 C 0.47126 0.17837 0.68403 0.0
N3718 N 0.51953 0.16326 0.70563 0.0
N3719 N 0.48659 0.17748 0.68404 0.0
H3720 H 0.83985 0.46194 0.28495 0.0
H3721 H 0.81068 0.53815 0.32461 0.0
H3722 H 0.81022 0.46316 0.32383 0.0
H3723 H 0.83998 0.53797 0.28547 0.0
H3724 H 0.81178 0.51058 0.32527 0.0
H3725 H 0.84142 0.48965 0.28569 0.0
C3726 C 0.83375 0.46802 0.29369 0.0
C3727 C 0.82483 0.46024 0.30431 0.0
C3728 C 0.81804 0.51654 0.31656 0.0
C3729 C 0.82654 0.49189 0.30519 0.0
C3730 C 0.81742 0.5323 0.31618 0.0
C3731 C 0.8252 0.54037 0.30492 0.0
C3732 C 0.82646 0.50871 0.30556 0.0
C3733 C 0.83379 0.53219 0.29433 0.0
C3734 C 0.83464 0.48384 0.29409 0.0
C3735 C 0.81718 0.46869 0.31538 0.0
N3736 N 0.83413 0.51678 0.29486 0.0
N3737 N 0.81817 0.48403 0.31549 0.0
H3738 H 0.53975 0.84123 0.28444 0.0
H3739 H 0.46334 0.81394 0.32503 0.0
H3740 H 0.53802 0.8145 0.32535 0.0
H3741 H 0.46346 0.84065 0.28408 0.0
H3742 H 0.49082 0.81576 0.32604 0.0
H3743 H 0.51198 0.8429 0.28479 0.0
C3744 C 0.53355 0.83584 0.29355 0.0
C3745 C 0.5412 0.82764 0.30483 0.0
C3746 C 0.48488 0.82131 0.31685 0.0
C3747 C 0.50953 0.82945 0.30527 0.0
C3748 C 0.46915 0.82026 0.31627 0.0
C3749 C 0.46109 0.82708 0.3044 0.0
C3750 C 0.49271 0.82916 0.30543 0.0
C3751 C 0.46925 0.8352 0.29341 0.0
C3752 C 0.51772 0.83677 0.29373 0.0
C3753 C 0.53262 0.82086 0.31636 0.0
N3754 N 0.48464 0.83593 0.29413 0.0
N3755 N 0.51728 0.82186 0.31624 0.0
H3756 H 0.19296 0.46284 0.32504 0.0
H3757 H 0.16159 0.53848 0.286 0.0
H3758 H 0.16328 0.46246 0.28618 0.0
H3759 H 0.19077 0.53779 0.32522 0.0
H3760 H 0.16084 0.51072 0.28648 0.0
H3761 H 0.19113 0.49036 0.32587 0.0
C3762 C 0.186 0.46855 0.3167 0.0
C3763 C 0.17831 0.46034 0.30548 0.0
C3764 C 0.16733 0.51666 0.29502 0.0
C3765 C 0.17619 0.49195 0.30633 0.0
C3766 C 0.16774 0.5325 0.29477 0.0
C3767 C 0.17631 0.54045 0.30555 0.0
C3768 C 0.17556 0.50876 0.30613 0.0
C3769 C 0.18407 0.53214 0.31665 0.0
C3770 C 0.18495 0.48429 0.31718 0.0
C3771 C 0.16942 0.46835 0.29501 0.0
N3772 N 0.18356 0.51677 0.31661 0.0
N3773 N 0.16866 0.48374 0.29564 0.0
H3774 H 0.53715 0.16103 0.28397 0.0
H3775 H 0.46161 0.1915 0.32396 0.0
H3776 H 0.53646 0.19049 0.32299 0.0
H3777 H 0.46097 0.16223 0.2848 0.0
H3778 H 0.48914 0.1901 0.32428 0.0
H3779 H 0.50938 0.16012 0.28459 0.0
C3780 C 0.53117 0.16722 0.29272 0.0
C3781 C 0.53912 0.17589 0.30342 0.0
C3782 C 0.48302 0.18392 0.31563 0.0
C3783 C 0.50743 0.17495 0.30416 0.0
C3784 C 0.46726 0.18473 0.31543 0.0
C3785 C 0.45897 0.17701 0.3043 0.0
C3786 C 0.49062 0.17538 0.30457 0.0
C3787 C 0.46693 0.16837 0.29357 0.0
C3788 C 0.51533 0.16671 0.29305 0.0
C3789 C 0.53081 0.1837 0.31449 0.0
N3790 N 0.48234 0.16783 0.29393 0.0
N3791 N 0.51546 0.18307 0.31453 0.0
H3792 H 0.67495 0.81573 0.46344 0.0
H3793 H 0.71818 0.84143 0.53891 0.0
H3794 H 0.71725 0.84022 0.46249 0.0
H3795 H 0.67606 0.81662 0.5379 0.0
H3796 H 0.71739 0.84316 0.51113 0.0
H3797 H 0.67444 0.81807 0.49087 0.0
C3798 C 0.68412 0.82169 0.46901 0.0
C3799 C 0.69622 0.8277 0.46067 0.0
C3800 C 0.70828 0.83745 0.51704 0.0
C3801 C 0.69579 0.83033 0.49225 0.0
C3802 C 0.70871 0.83648 0.53287 0.0
C3803 C 0.69722 0.82877 0.54071 0.0
C3804 C 0.69627 0.83068 0.50907 0.0
C3805 C 0.68523 0.82256 0.53234 0.0
C3806 C 0.68383 0.82302 0.48472 0.0
C3807 C 0.70772 0.83539 0.46852 0.0
N3808 N 0.68511 0.8236 0.51702 0.0
N3809 N 0.7073 0.83639 0.48391 0.0
H3810 H 0.67397 0.18294 0.46046 0.0
H3811 H 0.71734 0.15786 0.53602 0.0
H3812 H 0.71664 0.1591 0.45967 0.0
H3813 H 0.67558 0.18328 0.53493 0.0
H3814 H 0.71648 0.15594 0.50827 0.0
H3815 H 0.67349 0.18079 0.48789 0.0
C3816 C 0.68323 0.17717 0.46607 0.0
C3817 C 0.69543 0.1713 0.45777 0.0
C3818 C 0.70747 0.16183 0.51415 0.0
C3819 C 0.69502 0.16888 0.48935 0.0
C3820 C 0.70794 0.16291 0.52997 0.0
C3821 C 0.69657 0.17083 0.53777 0.0
C3822 C 0.69552 0.16869 0.50616 0.0
C3823 C 0.68466 0.17716 0.52939 0.0
C3824 C 0.68295 0.17594 0.48178 0.0
C3825 C 0.70704 0.16382 0.46566 0.0
N3826 N 0.68449 0.176 0.51407 0.0
N3827 N 0.70662 0.16292 0.48106 0.0
H3828 H 0.8167 0.67333 0.53872 0.0
H3829 H 0.84198 0.7156 0.46258 0.0
H3830 H 0.84125 0.7156 0.53903 0.0
H3831 H 0.81707 0.67357 0.46424 0.0
H3832 H 0.84394 0.71512 0.49035 0.0
H3833 H 0.81887 0.67248 0.5113 0.0
C3834 C 0.82263 0.68242 0.53301 0.0
C3835 C 0.82871 0.69461 0.54118 0.0
C3836 C 0.83816 0.70596 0.48459 0.0
C3837 C 0.83116 0.69379 0.50958 0.0
C3838 C 0.83707 0.70621 0.46876 0.0
C3839 C 0.82926 0.69466 0.4611 0.0
C3840 C 0.83141 0.69405 0.49275 0.0
C3841 C 0.8231 0.68278 0.46965 0.0
C3842 C 0.82388 0.68194 0.5173 0.0
C3843 C 0.83637 0.70601 0.53315 0.0
N3844 N 0.82425 0.68283 0.48497 0.0
N3845 N 0.83728 0.70539 0.51775 0.0
H3846 H 0.28564 0.84163 0.46047 0.0
H3847 H 0.32522 0.81179 0.53643 0.0
H3848 H 0.32586 0.81386 0.46165 0.0
H3849 H 0.28501 0.8396 0.53659 0.0
H3850 H 0.32638 0.81402 0.50897 0.0
H3851 H 0.28598 0.8427 0.48825 0.0
C3852 C 0.29461 0.83589 0.46656 0.0
C3853 C 0.30569 0.82757 0.45875 0.0
C3854 C 0.31732 0.81971 0.51497 0.0
C3855 C 0.30611 0.82867 0.49043 0.0
C3856 C 0.31665 0.81843 0.53069 0.0
C3857 C 0.30495 0.82545 0.53881 0.0
C3858 C 0.30616 0.82802 0.50724 0.0
C3859 C 0.2942 0.83397 0.53075 0.0
C3860 C 0.29478 0.83647 0.4824 0.0
C3861 C 0.31704 0.82033 0.46718 0.0
N3862 N 0.29501 0.83494 0.51538 0.0
N3863 N 0.31691 0.82099 0.48254 0.0
H3864 H 0.18918 0.32542 0.46387 0.0
H3865 H 0.1611 0.28267 0.5388 0.0
H3866 H 0.1622 0.28466 0.46253 0.0
H3867 H 0.18966 0.32235 0.53852 0.0
H3868 H 0.15962 0.28396 0.51106 0.0
H3869 H 0.18758 0.32533 0.49137 0.0
C3870 C 0.18283 0.31647 0.46937 0.0
C3871 C 0.17589 0.30497 0.46089 0.0
C3872 C 0.16614 0.29241 0.5171 0.0
C3873 C 0.17408 0.30474 0.49253 0.0
C3874 C 0.16699 0.29169 0.53292 0.0
C3875 C 0.17558 0.30238 0.54097 0.0
C3876 C 0.17394 0.30392 0.50933 0.0
C3877 C 0.18297 0.31382 0.5328 0.0
C3878 C 0.18193 0.31642 0.48511 0.0
C3879 C 0.16774 0.29373 0.46865 0.0
N3880 N 0.182 0.31426 0.51746 0.0
N3881 N 0.16714 0.29383 0.48407 0.0
H3882 H 0.28288 0.15697 0.54045 0.0
H3883 H 0.32709 0.18121 0.46506 0.0
H3884 H 0.32589 0.1802 0.53935 0.0
H3885 H 0.28378 0.15856 0.46385 0.0
H3886 H 0.32739 0.1788 0.49244 0.0
H3887 H 0.28347 0.15537 0.51263 0.0
C3888 C 0.29249 0.1616 0.53438 0.0
C3889 C 0.3043 0.16882 0.54221 0.0
C3890 C 0.31781 0.17426 0.48626 0.0
C3891 C 0.30504 0.16706 0.51055 0.0
C3892 C 0.31764 0.17565 0.47057 0.0
C3893 C 0.30533 0.17018 0.46216 0.0
C3894 C 0.30553 0.16745 0.49373 0.0
C3895 C 0.29347 0.16296 0.46993 0.0
C3896 C 0.29281 0.16071 0.51853 0.0
C3897 C 0.31647 0.17464 0.53381 0.0
N3898 N 0.2938 0.16191 0.48534 0.0
N3899 N 0.31648 0.17368 0.51849 0.0
H3900 H 0.84108 0.28351 0.46083 0.0
H3901 H 0.81603 0.32685 0.53646 0.0
H3902 H 0.81582 0.32535 0.46202 0.0
H3903 H 0.83985 0.28416 0.53729 0.0
H3904 H 0.81828 0.32736 0.50904 0.0
H3905 H 0.84306 0.28433 0.48859 0.0
C3906 C 0.83608 0.29293 0.4669 0.0
C3907 C 0.82818 0.30433 0.45912 0.0
C3908 C 0.82311 0.31789 0.51515 0.0
C3909 C 0.83038 0.30533 0.49075 0.0
C3910 C 0.82183 0.31759 0.53086 0.0
C3911 C 0.82766 0.30538 0.53917 0.0
C3912 C 0.83018 0.30582 0.50758 0.0
C3913 C 0.83516 0.29378 0.53129 0.0
C3914 C 0.83719 0.29337 0.48273 0.0
C3915 C 0.82192 0.31625 0.46754 0.0
N3916 N 0.8361 0.2942 0.51588 0.0
N3917 N 0.8231 0.3164 0.48285 0.0
H3918 H 0.18457 0.6731 0.53681 0.0
H3919 H 0.15806 0.71662 0.46176 0.0
H3920 H 0.15902 0.71477 0.53807 0.0
H3921 H 0.18468 0.67561 0.46223 0.0
H3922 H 0.15626 0.71535 0.4895 0.0
H3923 H 0.18263 0.67299 0.50934 0.0
C3924 C 0.17846 0.68221 0.5313 0.0
C3925 C 0.17203 0.69402 0.53975 0.0
C3926 C 0.1624 0.70659 0.48349 0.0
C3927 C 0.16985 0.69403 0.50813 0.0
C3928 C 0.1634 0.70729 0.46768 0.0
C3929 C 0.17161 0.69626 0.45969 0.0
C3930 C 0.16963 0.69475 0.49131 0.0
C3931 C 0.17832 0.68443 0.46791 0.0
C3932 C 0.17736 0.68215 0.51557 0.0
C3933 C 0.16418 0.70547 0.53198 0.0
N3934 N 0.17723 0.68403 0.48323 0.0
N3935 N 0.16339 0.70525 0.51656 0.0
H3936 H 0.16094 0.10615 0.35217 0.0
H3937 H 0.114 0.16661 0.30342 0.0
H3938 H 0.16563 0.11429 0.30418 0.0
H3939 H 0.10656 0.16151 0.35148 0.0
H3940 H 0.1329 0.14693 0.30435 0.0
H3941 H 0.141 0.12578 0.35308 0.0
C3942 C 0.15778 0.11202 0.34187 0.0
C3943 C 0.16498 0.10861 0.32809 0.0
C3944 C 0.12721 0.15001 0.31477 0.0
C3945 C 0.14237 0.13087 0.32903 0.0
C3946 C 0.11636 0.16134 0.31425 0.0
C3947 C 0.10868 0.16577 0.32741 0.0
C3948 C 0.1306 0.1429 0.32859 0.0
C3949 C 0.11224 0.15841 0.34107 0.0
C3950 C 0.14644 0.12319 0.3424 0.0
C3951 C 0.16048 0.11653 0.31508 0.0
N3952 N 0.123 0.14729 0.34134 0.0
N3953 N 0.14955 0.12721 0.31591 0.0
H3954 H 0.89559 0.16004 0.35036 0.0
H3955 H 0.8359 0.11287 0.30083 0.0
H3956 H 0.88842 0.16449 0.30219 0.0
H3957 H 0.84057 0.10549 0.34894 0.0
H3958 H 0.85559 0.13181 0.30193 0.0
H3959 H 0.87603 0.14003 0.35095 0.0
C3960 C 0.88995 0.15681 0.33995 0.0
C3961 C 0.89361 0.16397 0.32621 0.0
C3962 C 0.85241 0.12612 0.31233 0.0
C3963 C 0.87141 0.14129 0.3268 0.0
C3964 C 0.84108 0.11525 0.3117 0.0
C3965 C 0.83653 0.10759 0.32482 0.0
C3966 C 0.85939 0.12951 0.32621 0.0
C3967 C 0.84377 0.11116 0.33855 0.0
C3968 C 0.87882 0.14543 0.3403 0.0
C3969 C 0.88598 0.15938 0.31306 0.0
N3970 N 0.85487 0.12193 0.33892 0.0
N3971 N 0.87531 0.14841 0.31372 0.0
H3972 H 0.88532 0.83395 0.30141 0.0
H3973 H 0.83902 0.89445 0.35068 0.0
H3974 H 0.89343 0.83929 0.34934 0.0
H3975 H 0.83471 0.88741 0.30248 0.0
H3976 H 0.85881 0.87468 0.35135 0.0
H3977 H 0.86657 0.85379 0.30247 0.0
C3978 C 0.88314 0.83931 0.31223 0.0
C3979 C 0.89096 0.8349 0.32532 0.0
C3980 C 0.85349 0.87754 0.34067 0.0
C3981 C 0.86924 0.85795 0.32665 0.0
C3982 C 0.84224 0.88879 0.34028 0.0
C3983 C 0.83518 0.89254 0.32651 0.0
C3984 C 0.85761 0.8701 0.32719 0.0
C3985 C 0.83975 0.88489 0.31338 0.0
C3986 C 0.87237 0.85073 0.31283 0.0
C3987 C 0.88763 0.84237 0.33898 0.0
N3988 N 0.8506 0.8741 0.31407 0.0
N3989 N 0.87696 0.85357 0.33932 0.0
H3990 H 0.10366 0.84431 0.30388 0.0
H3991 H 0.16068 0.89465 0.35334 0.0
H3992 H 0.10644 0.83922 0.35241 0.0
H3993 H 0.15856 0.8931 0.30452 0.0
H3994 H 0.13939 0.8765 0.3544 0.0
H3995 H 0.12191 0.86467 0.30507 0.0
C3996 C 0.10813 0.84753 0.31485 0.0
C3997 C 0.10367 0.83995 0.32805 0.0
C3998 C 0.1436 0.88024 0.3435 0.0
C3999 C 0.12494 0.86335 0.32953 0.0
C4000 C 0.15569 0.89058 0.3429 0.0
C4001 C 0.16144 0.89528 0.32882 0.0
C4002 C 0.13725 0.8748 0.32993 0.0
C4003 C 0.15462 0.88971 0.31563 0.0
C4004 C 0.11861 0.8592 0.31554 0.0
C4005 C 0.10967 0.84478 0.34197 0.0
N4006 N 0.14297 0.87981 0.31653 0.0
N4007 N 0.12018 0.85613 0.34236 0.0
H4008 H 0.16023 0.89558 0.65065 0.0
H4009 H 0.11495 0.83281 0.69808 0.0
H4010 H 0.16686 0.88493 0.69792 0.0
H4011 H 0.10598 0.8401 0.65056 0.0
H4012 H 0.13409 0.85228 0.69735 0.0
H4013 H 0.14044 0.87582 0.64945 0.0
C4014 C 0.15754 0.88912 0.66073 0.0
C4015 C 0.16522 0.8919 0.6744 0.0
C4016 C 0.12802 0.84972 0.687 0.0
C4017 C 0.14278 0.86947 0.67312 0.0
C4018 C 0.11702 0.83851 0.68741 0.0
C4019 C 0.10883 0.83477 0.67435 0.0
C4020 C 0.131 0.85743 0.67341 0.0
C4021 C 0.11207 0.84266 0.66089 0.0
C4022 C 0.14629 0.87787 0.66004 0.0
C4023 C 0.16132 0.88322 0.68711 0.0
N4024 N 0.12294 0.85367 0.66075 0.0
N4025 N 0.15044 0.87248 0.68614 0.0
H4026 H 0.16422 0.11486 0.70055 0.0
H4027 H 0.10164 0.15979 0.65251 0.0
H4028 H 0.15676 0.10525 0.65318 0.0
H4029 H 0.11174 0.16648 0.6999 0.0
H4030 H 0.12134 0.13993 0.6516 0.0
H4031 H 0.1447 0.13397 0.69963 0.0
C4032 C 0.15846 0.11679 0.68988 0.0
C4033 C 0.16217 0.10843 0.67691 0.0
C4034 C 0.11918 0.1458 0.66215 0.0
C4035 C 0.13948 0.13054 0.67576 0.0
C4036 C 0.10796 0.1571 0.66268 0.0
C4037 C 0.10506 0.16482 0.67629 0.0
C4038 C 0.12743 0.1423 0.67533 0.0
C4039 C 0.11355 0.16091 0.68912 0.0
C4040 C 0.14723 0.12776 0.68936 0.0
C4041 C 0.15423 0.11146 0.66345 0.0
N4042 N 0.12427 0.15 0.6883 0.0
N4043 N 0.1432 0.12232 0.6632 0.0
H4044 H 0.89247 0.15943 0.65221 0.0
H4045 H 0.83005 0.11519 0.70102 0.0
H4046 H 0.88189 0.16752 0.69927 0.0
H4047 H 0.83826 0.10413 0.65409 0.0
H4048 H 0.84918 0.13466 0.69967 0.0
H4049 H 0.87294 0.13941 0.65172 0.0
C4050 C 0.88606 0.15702 0.66239 0.0
C4051 C 0.88881 0.16516 0.6758 0.0
C4052 C 0.84689 0.12805 0.68959 0.0
C4053 C 0.86663 0.14245 0.67532 0.0
C4054 C 0.83589 0.11686 0.69035 0.0
C4055 C 0.83251 0.10799 0.67764 0.0
C4056 C 0.85476 0.13052 0.67599 0.0
C4057 C 0.84054 0.11074 0.66417 0.0
C4058 C 0.87495 0.14563 0.66211 0.0
C4059 C 0.8802 0.16161 0.68866 0.0
N4060 N 0.85135 0.1218 0.66368 0.0
N4061 N 0.86958 0.15058 0.68807 0.0
H4062 H 0.88809 0.83385 0.70059 0.0
H4063 H 0.84028 0.89473 0.65323 0.0
H4064 H 0.89473 0.83977 0.6525 0.0
H4065 H 0.83539 0.88549 0.701 0.0
H4066 H 0.86034 0.8753 0.65197 0.0
H4067 H 0.86892 0.85335 0.70023 0.0
C4068 C 0.8855 0.83927 0.68989 0.0
C4069 C 0.89302 0.83511 0.67654 0.0
C4070 C 0.85483 0.87759 0.66269 0.0
C4071 C 0.87083 0.85775 0.67603 0.0
C4072 C 0.84342 0.88865 0.66342 0.0
C4073 C 0.83614 0.89172 0.67724 0.0
C4074 C 0.85892 0.86965 0.67589 0.0
C4075 C 0.84062 0.88353 0.69008 0.0
C4076 C 0.87449 0.85048 0.68969 0.0
C4077 C 0.88918 0.84265 0.66305 0.0
N4078 N 0.85165 0.87294 0.68907 0.0
N4079 N 0.87829 0.85364 0.66312 0.0
H4080 H 0.29873 0.16904 0.11629 0.0
H4081 H 0.3461 0.10441 0.15894 0.0
H4082 H 0.34495 0.15907 0.10382 0.0
H4083 H 0.29982 0.11712 0.16834 0.0
H4084 H 0.34695 0.12407 0.13902 0.0
H4085 H 0.29994 0.14989 0.13572 0.0
C4086 C 0.30921 0.16281 0.11765 0.0
C4087 C 0.32176 0.1657 0.10838 0.0
C4088 C 0.33667 0.12249 0.14551 0.0
C4089 C 0.32325 0.14339 0.13087 0.0
C4090 C 0.33617 0.11131 0.15685 0.0
C4091 C 0.32287 0.10912 0.16532 0.0
C4092 C 0.32377 0.13144 0.14274 0.0
C4093 C 0.31034 0.11835 0.16217 0.0
C4094 C 0.3099 0.15179 0.12882 0.0
C4095 C 0.33501 0.15718 0.11074 0.0
N4096 N 0.31112 0.12901 0.1512 0.0
N4097 N 0.33542 0.14634 0.12179 0.0
H4098 H 0.89635 0.34844 0.1609 0.0
H4099 H 0.83489 0.30063 0.11424 0.0
H4100 H 0.88595 0.30108 0.1672 0.0
H4101 H 0.8414 0.34841 0.1061 0.0
H4102 H 0.85427 0.30137 0.13348 0.0
H4103 H 0.87699 0.34952 0.1407 0.0
C4104 C 0.89003 0.33832 0.15805 0.0
C4105 C 0.89276 0.32465 0.16576 0.0
C4106 C 0.85156 0.31177 0.12757 0.0
C4107 C 0.8708 0.3258 0.14285 0.0
C4108 C 0.84041 0.31136 0.11652 0.0
C4109 C 0.83645 0.3245 0.10855 0.0
C4110 C 0.85897 0.32546 0.13085 0.0
C4111 C 0.84412 0.33802 0.11201 0.0
C4112 C 0.87901 0.33894 0.14656 0.0
C4113 C 0.88427 0.31188 0.16165 0.0
N4114 N 0.85506 0.33818 0.12296 0.0
N4115 N 0.87376 0.31279 0.15055 0.0
H4116 H 0.65332 0.89461 0.16057 0.0
H4117 H 0.70226 0.83273 0.11567 0.0
H4118 H 0.70074 0.88511 0.16775 0.0
H4119 H 0.65484 0.83981 0.1061 0.0
H4120 H 0.70116 0.85219 0.1349 0.0
H4121 H 0.65283 0.87495 0.14071 0.0
C4122 C 0.66359 0.88841 0.15799 0.0
C4123 C 0.67708 0.89149 0.16583 0.0
C4124 C 0.69092 0.84957 0.12866 0.0
C4125 C 0.67662 0.86915 0.14329 0.0
C4126 C 0.69156 0.83839 0.11763 0.0
C4127 C 0.67862 0.8346 0.10925 0.0
C4128 C 0.67724 0.85717 0.13148 0.0
C4129 C 0.66508 0.84241 0.11232 0.0
C4130 C 0.6633 0.87722 0.14668 0.0
C4131 C 0.69006 0.88315 0.16206 0.0
N4132 N 0.66473 0.85337 0.12322 0.0
N4133 N 0.68948 0.87243 0.15112 0.0
H4134 H 0.16022 0.65189 0.1054 0.0
H4135 H 0.11524 0.70176 0.16639 0.0
H4136 H 0.16448 0.70019 0.11175 0.0
H4137 H 0.10616 0.65401 0.16101 0.0
H4138 H 0.13352 0.70047 0.14614 0.0
H4139 H 0.14056 0.65146 0.12532 0.0
C4140 C 0.15701 0.66236 0.11092 0.0
C4141 C 0.16404 0.67608 0.10697 0.0
C4142 C 0.12759 0.69019 0.14927 0.0
C4143 C 0.14176 0.67568 0.12957 0.0
C4144 C 0.1171 0.69093 0.16093 0.0
C4145 C 0.10915 0.67796 0.16546 0.0
C4146 C 0.13034 0.67636 0.14193 0.0
C4147 C 0.11206 0.66428 0.15785 0.0
C4148 C 0.14582 0.66211 0.12226 0.0
C4149 C 0.15948 0.68932 0.11444 0.0
N4150 N 0.1225 0.6638 0.14643 0.0
N4151 N 0.14871 0.68875 0.12533 0.0
H4152 H 0.30062 0.88483 0.83439 0.0
H4153 H 0.34926 0.83973 0.89636 0.0
H4154 H 0.34808 0.89438 0.84126 0.0
H4155 H 0.30187 0.83289 0.88643 0.0
H4156 H 0.35001 0.85968 0.87673 0.0
H4157 H 0.30175 0.8657 0.85385 0.0
C4158 C 0.31136 0.88289 0.84001 0.0
C4159 C 0.32429 0.89123 0.83614 0.0
C4160 C 0.3395 0.85375 0.87891 0.0
C4161 C 0.3257 0.86907 0.85877 0.0
C4162 C 0.33906 0.8424 0.89009 0.0
C4163 C 0.32549 0.83462 0.89302 0.0
C4164 C 0.32626 0.85724 0.87075 0.0
C4165 C 0.31261 0.83851 0.88459 0.0
C4166 C 0.312 0.8719 0.85121 0.0
C4167 C 0.33785 0.88818 0.84392 0.0
N4168 N 0.31334 0.84947 0.87392 0.0
N4169 N 0.33823 0.87729 0.85492 0.0
H4170 H 0.15941 0.35066 0.89476 0.0
H4171 H 0.11157 0.30144 0.83536 0.0
H4172 H 0.16394 0.30258 0.8871 0.0
H4173 H 0.10489 0.3497 0.83965 0.0
H4174 H 0.1306 0.30244 0.85495 0.0
H4175 H 0.1393 0.3514 0.87532 0.0
C4176 C 0.15618 0.3403 0.88904 0.0
C4177 C 0.16338 0.32654 0.89253 0.0
C4178 C 0.12505 0.31289 0.85171 0.0
C4179 C 0.14057 0.3273 0.87047 0.0
C4180 C 0.11412 0.31232 0.84044 0.0
C4181 C 0.10663 0.32552 0.8358 0.0
C4182 C 0.12868 0.32678 0.85854 0.0
C4183 C 0.11043 0.33925 0.84291 0.0
C4184 C 0.14474 0.34073 0.87796 0.0
C4185 C 0.15879 0.31346 0.8848 0.0
N4186 N 0.12125 0.33955 0.85397 0.0
N4187 N 0.14775 0.31419 0.8742 0.0
H4188 H 0.69854 0.16843 0.88417 0.0
H4189 H 0.6498 0.1046 0.84197 0.0
H4190 H 0.65213 0.15956 0.89678 0.0
H4191 H 0.69771 0.11256 0.83629 0.0
H4192 H 0.64917 0.12495 0.86119 0.0
H4193 H 0.69715 0.14856 0.86547 0.0
C4194 C 0.68798 0.16229 0.883 0.0
C4195 C 0.67544 0.16567 0.89211 0.0
C4196 C 0.65978 0.12216 0.85569 0.0
C4197 C 0.67376 0.14253 0.8705 0.0
C4198 C 0.66014 0.11059 0.84476 0.0
C4199 C 0.67382 0.10692 0.83748 0.0
C4200 C 0.67317 0.13004 0.85923 0.0
C4201 C 0.68688 0.11499 0.8415 0.0
C4202 C 0.6872 0.15084 0.87227 0.0
C4203 C 0.66208 0.15727 0.88999 0.0
N4204 N 0.6862 0.12611 0.85202 0.0
N4205 N 0.66157 0.14602 0.87937 0.0
H4206 H 0.8969 0.65056 0.83954 0.0
H4207 H 0.834 0.69832 0.88427 0.0
H4208 H 0.88663 0.69789 0.83278 0.0
H4209 H 0.84164 0.65099 0.8939 0.0
H4210 H 0.85347 0.69746 0.86512 0.0
H4211 H 0.87707 0.64954 0.85925 0.0
C4212 C 0.89051 0.66069 0.84218 0.0
C4213 C 0.89342 0.67432 0.8345 0.0
C4214 C 0.85099 0.68719 0.87134 0.0
C4215 C 0.87089 0.67324 0.85684 0.0
C4216 C 0.83978 0.68767 0.88234 0.0
C4217 C 0.83614 0.6747 0.89072 0.0
C4218 C 0.8588 0.67361 0.86857 0.0
C4219 C 0.84412 0.66125 0.88767 0.0
C4220 C 0.87922 0.6601 0.8534 0.0
C4221 C 0.88482 0.6871 0.83834 0.0
N4222 N 0.85513 0.66104 0.8768 0.0
N4223 N 0.87403 0.68623 0.84917 0.0
H4224 H 0.15945 0.35115 0.10561 0.0
H4225 H 0.11705 0.30226 0.16924 0.0
H4226 H 0.16688 0.30378 0.11524 0.0
H4227 H 0.10463 0.34876 0.16056 0.0
H4228 H 0.13609 0.3038 0.14974 0.0
H4229 H 0.13996 0.35169 0.12571 0.0
C4230 C 0.15701 0.34091 0.11192 0.0
C4231 C 0.16482 0.3274 0.10875 0.0
C4232 C 0.12927 0.31375 0.15198 0.0
C4233 C 0.14275 0.32795 0.13158 0.0
C4234 C 0.11834 0.31287 0.16322 0.0
C4235 C 0.10918 0.3254 0.16656 0.0
C4236 C 0.13121 0.32726 0.14383 0.0
C4237 C 0.11145 0.33882 0.1583 0.0
C4238 C 0.14592 0.34123 0.12335 0.0
C4239 C 0.16123 0.31448 0.11724 0.0
N4240 N 0.12227 0.33942 0.14724 0.0
N4241 N 0.15054 0.3151 0.12819 0.0
H4242 H 0.16114 0.65095 0.89394 0.0
H4243 H 0.11607 0.69992 0.83221 0.0
H4244 H 0.16729 0.69869 0.88532 0.0
H4245 H 0.10673 0.65241 0.839 0.0
H4246 H 0.13518 0.69883 0.85178 0.0
H4247 H 0.14143 0.65036 0.87411 0.0
C4248 C 0.15836 0.66126 0.88791 0.0
C4249 C 0.16588 0.67488 0.89127 0.0
C4250 C 0.12901 0.68858 0.84908 0.0
C4251 C 0.14353 0.6743 0.86874 0.0
C4252 C 0.11805 0.6892 0.83783 0.0
C4253 C 0.10977 0.67623 0.83394 0.0
C4254 C 0.13184 0.67487 0.85664 0.0
C4255 C 0.11287 0.66267 0.84168 0.0
C4256 C 0.14715 0.66092 0.87662 0.0
C4257 C 0.16186 0.68791 0.88314 0.0
N4258 N 0.1237 0.66233 0.85272 0.0
N4259 N 0.15103 0.68727 0.87232 0.0
H4260 H 0.29934 0.16706 0.88381 0.0
H4261 H 0.34786 0.10371 0.8405 0.0
H4262 H 0.34621 0.15894 0.89515 0.0
H4263 H 0.30118 0.11531 0.83169 0.0
H4264 H 0.34847 0.12335 0.86046 0.0
H4265 H 0.30073 0.14768 0.86462 0.0
C4266 C 0.31 0.16119 0.88225 0.0
C4267 C 0.32269 0.16468 0.89112 0.0
C4268 C 0.33815 0.12153 0.85409 0.0
C4269 C 0.32439 0.14213 0.86888 0.0
C4270 C 0.3378 0.11035 0.84274 0.0
C4271 C 0.32446 0.10786 0.8344 0.0
C4272 C 0.32507 0.13016 0.85703 0.0
C4273 C 0.31175 0.11678 0.83774 0.0
C4274 C 0.31079 0.15003 0.87122 0.0
C4275 C 0.33616 0.15658 0.88853 0.0
N4276 N 0.31239 0.12743 0.84872 0.0
N4277 N 0.33668 0.14562 0.87761 0.0
H4278 H 0.88572 0.30122 0.83401 0.0
H4279 H 0.83986 0.35035 0.89505 0.0
H4280 H 0.89406 0.34907 0.83966 0.0
H4281 H 0.83434 0.30247 0.88678 0.0
H4282 H 0.85966 0.35101 0.87528 0.0
H4283 H 0.86678 0.30231 0.8537 0.0
C4284 C 0.88355 0.31203 0.83941 0.0
C4285 C 0.89149 0.32508 0.83514 0.0
C4286 C 0.85407 0.34041 0.87786 0.0
C4287 C 0.86957 0.32645 0.858 0.0
C4288 C 0.84281 0.34002 0.88911 0.0
C4289 C 0.83542 0.32634 0.89254 0.0
C4290 C 0.85787 0.32701 0.8701 0.0
C4291 C 0.83964 0.3133 0.88453 0.0
C4292 C 0.87267 0.31265 0.85073 0.0
C4293 C 0.88816 0.33874 0.84263 0.0
N4294 N 0.85051 0.31398 0.87376 0.0
N4295 N 0.8774 0.33909 0.85375 0.0
H4296 H 0.65045 0.89356 0.84084 0.0
H4297 H 0.69965 0.8321 0.88598 0.0
H4298 H 0.69814 0.88476 0.83462 0.0
H4299 H 0.65241 0.83933 0.89632 0.0
H4300 H 0.69832 0.85147 0.86678 0.0
H4301 H 0.64991 0.874 0.86085 0.0
C4302 C 0.66076 0.88755 0.84366 0.0
C4303 C 0.67435 0.89077 0.83603 0.0
C4304 C 0.68817 0.84893 0.87317 0.0
C4305 C 0.67382 0.86856 0.85872 0.0
C4306 C 0.68892 0.83778 0.8842 0.0
C4307 C 0.67611 0.83404 0.89279 0.0
C4308 C 0.67448 0.85659 0.87055 0.0
C4309 C 0.66255 0.84189 0.88993 0.0
C4310 C 0.66044 0.87642 0.85506 0.0
C4311 C 0.68738 0.88268 0.84012 0.0
N4312 N 0.66207 0.85285 0.879 0.0
N4313 N 0.68676 0.87202 0.85111 0.0
H4314 H 0.83711 0.6987 0.11104 0.0
H4315 H 0.89759 0.65094 0.15901 0.0
H4316 H 0.8419 0.65042 0.10487 0.0
H4317 H 0.8878 0.69857 0.16425 0.0
H4318 H 0.87834 0.6497 0.1387 0.0
H4319 H 0.8568 0.69813 0.12996 0.0
C4320 C 0.84232 0.6879 0.11369 0.0
C4321 C 0.83777 0.67457 0.10639 0.0
C4322 C 0.88049 0.66038 0.14435 0.0
C4323 C 0.86062 0.6738 0.12835 0.0
C4324 C 0.89145 0.66109 0.15589 0.0
C4325 C 0.89427 0.67487 0.16336 0.0
C4326 C 0.87246 0.67355 0.14032 0.0
C4327 C 0.88601 0.68767 0.15891 0.0
C4328 C 0.85364 0.68758 0.12456 0.0
C4329 C 0.84508 0.66096 0.11027 0.0
N4330 N 0.87557 0.68668 0.14776 0.0
N4331 N 0.85618 0.6609 0.12107 0.0
H4332 H 0.34801 0.84061 0.1062 0.0
H4333 H 0.29788 0.88752 0.16554 0.0
H4334 H 0.30012 0.83486 0.11417 0.0
H4335 H 0.34592 0.89544 0.16101 0.0
H4336 H 0.29923 0.86862 0.14586 0.0
H4337 H 0.3483 0.86099 0.12538 0.0
C4338 C 0.3376 0.84363 0.11195 0.0
C4339 C 0.32403 0.836 0.10862 0.0
C4340 C 0.30956 0.87441 0.14907 0.0
C4341 C 0.32427 0.85913 0.13037 0.0
C4342 C 0.30879 0.88527 0.16038 0.0
C4343 C 0.32182 0.89305 0.16501 0.0
C4344 C 0.3235 0.8711 0.14219 0.0
C4345 C 0.3356 0.88967 0.15776 0.0
C4346 C 0.33778 0.85522 0.12286 0.0
C4347 C 0.31087 0.84034 0.11636 0.0
N4348 N 0.33611 0.87886 0.1467 0.0
N4349 N 0.31135 0.85154 0.1268 0.0
H4350 H 0.6517 0.15955 0.10457 0.0
H4351 H 0.69964 0.11469 0.16726 0.0
H4352 H 0.69857 0.16742 0.11609 0.0
H4353 H 0.65241 0.10463 0.15955 0.0
H4354 H 0.69859 0.13397 0.14797 0.0
H4355 H 0.65079 0.13942 0.12402 0.0
C4356 C 0.66175 0.15707 0.11116 0.0
C4357 C 0.67523 0.16519 0.1087 0.0
C4358 C 0.68837 0.12763 0.15039 0.0
C4359 C 0.67428 0.14235 0.13077 0.0
C4360 C 0.68896 0.11655 0.16149 0.0
C4361 C 0.67607 0.10801 0.16509 0.0
C4362 C 0.67476 0.13038 0.14263 0.0
C4363 C 0.66261 0.11097 0.15711 0.0
C4364 C 0.66122 0.14562 0.12222 0.0
C4365 C 0.68791 0.16154 0.11753 0.0
N4366 N 0.66228 0.12196 0.1462 0.0
N4367 N 0.6871 0.15046 0.12808 0.0
H4368 H 0.61552 0.668 0.80005 0.0
H4369 H 0.6593 0.60567 0.84935 0.0
H4370 H 0.60388 0.65992 0.84685 0.0
H4371 H 0.6652 0.61373 0.80148 0.0
H4372 H 0.63958 0.62553 0.84979 0.0
H4373 H 0.63451 0.64841 0.80149 0.0
C4374 C 0.61697 0.66209 0.8107 0.0
C4375 C 0.60806 0.66563 0.82335 0.0
C4376 C 0.64524 0.62287 0.83924 0.0
C4377 C 0.63002 0.64283 0.82511 0.0
C4378 C 0.65646 0.61157 0.83898 0.0
C4379 C 0.66394 0.60808 0.82537 0.0
C4380 C 0.6416 0.63063 0.8258 0.0
C4381 C 0.65984 0.61603 0.81226 0.0
C4382 C 0.62786 0.65081 0.81152 0.0
C4383 C 0.61051 0.6575 0.83683 0.0
N4384 N 0.64903 0.62687 0.81283 0.0
N4385 N 0.62131 0.64643 0.83738 0.0
H4386 H 0.34055 0.60532 0.84777 0.0
H4387 H 0.38439 0.66782 0.79872 0.0
H4388 H 0.33453 0.61352 0.79994 0.0
H4389 H 0.39533 0.66006 0.84575 0.0
H4390 H 0.36552 0.64807 0.79996 0.0
H4391 H 0.36018 0.62523 0.84826 0.0
C4392 C 0.34335 0.61127 0.83741 0.0
C4393 C 0.33586 0.60778 0.8238 0.0
C4394 C 0.37199 0.65058 0.81008 0.0
C4395 C 0.35811 0.63043 0.82429 0.0
C4396 C 0.38281 0.66195 0.80938 0.0
C4397 C 0.39148 0.66563 0.82216 0.0
C4398 C 0.36966 0.64267 0.82368 0.0
C4399 C 0.38888 0.65754 0.83563 0.0
C4400 C 0.35452 0.6226 0.8377 0.0
C4401 C 0.33991 0.61581 0.81072 0.0
N4402 N 0.37816 0.64639 0.83606 0.0
N4403 N 0.35069 0.6267 0.81132 0.0
H4404 H 0.38455 0.33296 0.7991 0.0
H4405 H 0.33966 0.39472 0.84814 0.0
H4406 H 0.39445 0.33985 0.84649 0.0
H4407 H 0.33339 0.38586 0.80047 0.0
H4408 H 0.35955 0.37504 0.84873 0.0
H4409 H 0.36559 0.35258 0.80031 0.0
C4410 C 0.38272 0.33862 0.80984 0.0
C4411 C 0.39111 0.3347 0.82273 0.0
C4412 C 0.35377 0.37747 0.83819 0.0
C4413 C 0.36914 0.35752 0.82422 0.0
C4414 C 0.34245 0.38867 0.83784 0.0
C4415 C 0.33484 0.39191 0.82424 0.0
C4416 C 0.35739 0.36957 0.82483 0.0
C4417 C 0.33887 0.38376 0.81123 0.0
C4418 C 0.37183 0.34991 0.81052 0.0
C4419 C 0.38822 0.34254 0.83629 0.0
N4420 N 0.3498 0.37304 0.81187 0.0
N4421 N 0.37741 0.35362 0.8367 0.0
H4422 H 0.60314 0.34014 0.84819 0.0
H4423 H 0.66422 0.38779 0.80088 0.0
H4424 H 0.61321 0.33491 0.80062 0.0
H4425 H 0.65872 0.39441 0.84902 0.0
H4426 H 0.64457 0.36884 0.80134 0.0
H4427 H 0.62245 0.36038 0.84957 0.0
C4428 C 0.60935 0.34325 0.83808 0.0
C4429 C 0.60659 0.33581 0.82428 0.0
C4430 C 0.64756 0.37434 0.81188 0.0
C4431 C 0.62848 0.35876 0.82576 0.0
C4432 C 0.65887 0.38523 0.81162 0.0
C4433 C 0.6632 0.39268 0.82495 0.0
C4434 C 0.64037 0.37069 0.82559 0.0
C4435 C 0.65572 0.3889 0.83849 0.0
C4436 C 0.62035 0.35475 0.83888 0.0
C4437 C 0.61494 0.34024 0.81153 0.0
N4438 N 0.64463 0.37809 0.83849 0.0
N4439 N 0.62543 0.35135 0.81261 0.0
H4440 H 0.6605 0.39589 0.14864 0.0
H4441 H 0.61263 0.33672 0.19802 0.0
H4442 H 0.66447 0.3886 0.19684 0.0
H4443 H 0.60496 0.3415 0.14995 0.0
H4444 H 0.63166 0.35621 0.19684 0.0
H4445 H 0.64021 0.37659 0.14787 0.0
C4446 C 0.65712 0.39028 0.15901 0.0
C4447 C 0.66422 0.39382 0.17282 0.0
C4448 C 0.6259 0.35311 0.18646 0.0
C4449 C 0.64122 0.37195 0.17202 0.0
C4450 C 0.61496 0.34189 0.18713 0.0
C4451 C 0.60719 0.3374 0.17405 0.0
C4452 C 0.62929 0.36007 0.17258 0.0
C4453 C 0.61072 0.34465 0.16031 0.0
C4454 C 0.64558 0.3793 0.15856 0.0
C4455 C 0.65942 0.38625 0.18591 0.0
N4456 N 0.62159 0.35566 0.1599 0.0
N4457 N 0.64831 0.37575 0.18516 0.0
H4458 H 0.61372 0.66644 0.19928 0.0
H4459 H 0.66089 0.60648 0.15008 0.0
H4460 H 0.60646 0.6616 0.15117 0.0
H4461 H 0.66623 0.61477 0.19798 0.0
H4462 H 0.64088 0.62603 0.1494 0.0
H4463 H 0.63288 0.64696 0.19824 0.0
C4464 C 0.61617 0.66126 0.18843 0.0
C4465 C 0.60848 0.66571 0.17528 0.0
C4466 C 0.64649 0.62351 0.16001 0.0
C4467 C 0.63066 0.6431 0.17396 0.0
C4468 C 0.65787 0.61238 0.1604 0.0
C4469 C 0.66525 0.60901 0.1741 0.0
C4470 C 0.64255 0.63119 0.17341 0.0
C4471 C 0.66093 0.61697 0.18714 0.0
C4472 C 0.62718 0.65007 0.18783 0.0
C4473 C 0.61216 0.65849 0.16157 0.0
N4474 N 0.64993 0.62761 0.18645 0.0
N4475 N 0.62304 0.6475 0.16124 0.0
H4476 H 0.38804 0.66593 0.19879 0.0
H4477 H 0.33968 0.60675 0.14984 0.0
H4478 H 0.39477 0.6613 0.15057 0.0
H4479 H 0.3347 0.61525 0.19774 0.0
H4480 H 0.35997 0.62602 0.149 0.0
H4481 H 0.36864 0.64671 0.19782 0.0
C4482 C 0.38542 0.66086 0.18792 0.0
C4483 C 0.39304 0.66529 0.17473 0.0
C4484 C 0.35437 0.62361 0.15965 0.0
C4485 C 0.37056 0.64298 0.1735 0.0
C4486 C 0.34284 0.61264 0.16013 0.0
C4487 C 0.33548 0.60941 0.17388 0.0
C4488 C 0.35849 0.63126 0.17301 0.0
C4489 C 0.33998 0.61734 0.18687 0.0
C4490 C 0.37428 0.64981 0.18737 0.0
C4491 C 0.38914 0.6582 0.16101 0.0
N4492 N 0.35112 0.62782 0.18609 0.0
N4493 N 0.37811 0.64735 0.16073 0.0
H4494 H 0.39399 0.33927 0.1476 0.0
H4495 H 0.34315 0.39664 0.19614 0.0
H4496 H 0.39053 0.34067 0.19635 0.0
H4497 H 0.33814 0.39335 0.14763 0.0
H4498 H 0.36342 0.37829 0.1952 0.0
H4499 H 0.37605 0.36075 0.14617 0.0
C4500 C 0.38956 0.34414 0.15795 0.0
C4501 C 0.39365 0.33814 0.17211 0.0
C4502 C 0.35798 0.3815 0.18468 0.0
C4503 C 0.37344 0.36253 0.17058 0.0
C4504 C 0.34636 0.39203 0.18523 0.0
C4505 C 0.33882 0.39638 0.17197 0.0
C4506 C 0.36212 0.37498 0.17078 0.0
C4507 C 0.34367 0.39021 0.15812 0.0
C4508 C 0.37934 0.35633 0.15713 0.0
C4509 C 0.38761 0.3448 0.18518 0.0
N4510 N 0.35497 0.37963 0.15787 0.0
N4511 N 0.37787 0.35656 0.18407 0.0
H4512 H 0.80077 0.66683 0.61563 0.0
H4513 H 0.84824 0.60389 0.66068 0.0
H4514 H 0.84815 0.65916 0.60632 0.0
H4515 H 0.80094 0.61435 0.66735 0.0
H4516 H 0.84933 0.62362 0.64085 0.0
H4517 H 0.80147 0.64728 0.63474 0.0
C4518 C 0.81139 0.66102 0.61762 0.0
C4519 C 0.82443 0.66468 0.60935 0.0
C4520 C 0.83876 0.62153 0.64671 0.0
C4521 C 0.82534 0.64196 0.63146 0.0
C4522 C 0.83813 0.6103 0.65798 0.0
C4523 C 0.82449 0.60749 0.66569 0.0
C4524 C 0.82565 0.62989 0.64321 0.0
C4525 C 0.81173 0.6161 0.66178 0.0
C4526 C 0.81179 0.64978 0.62859 0.0
C4527 C 0.83784 0.65667 0.61247 0.0
N4528 N 0.81265 0.62683 0.65089 0.0
N4529 N 0.83797 0.64563 0.62332 0.0
H4530 H 0.3329 0.8007 0.61395 0.0
H4531 H 0.39413 0.85062 0.65861 0.0
H4532 H 0.33972 0.84793 0.60327 0.0
H4533 H 0.38646 0.80266 0.66427 0.0
H4534 H 0.37439 0.85096 0.63875 0.0
H4535 H 0.35245 0.80227 0.63295 0.0
C4536 C 0.33852 0.81148 0.61561 0.0
C4537 C 0.33463 0.82421 0.60697 0.0
C4538 C 0.37711 0.84041 0.64439 0.0
C4539 C 0.35738 0.82613 0.62898 0.0
C4540 C 0.38834 0.84021 0.65569 0.0
C4541 C 0.39191 0.8266 0.66314 0.0
C4542 C 0.3695 0.82691 0.64065 0.0
C4543 C 0.3841 0.81344 0.65893 0.0
C4544 C 0.34978 0.81237 0.62652 0.0
C4545 C 0.34241 0.83784 0.60969 0.0
N4546 N 0.37333 0.81396 0.64805 0.0
N4547 N 0.35346 0.83847 0.62051 0.0
H4548 H 0.15222 0.33817 0.60474 0.0
H4549 H 0.19967 0.38497 0.6664 0.0
H4550 H 0.1994 0.33154 0.61577 0.0
H4551 H 0.15192 0.393 0.65965 0.0
H4552 H 0.19904 0.36565 0.64707 0.0
H4553 H 0.15106 0.35848 0.62398 0.0
C4554 C 0.16229 0.34097 0.61117 0.0
C4555 C 0.17592 0.33314 0.60866 0.0
C4556 C 0.18862 0.37155 0.64973 0.0
C4557 C 0.17469 0.35617 0.63049 0.0
C4558 C 0.18898 0.38265 0.66084 0.0
C4559 C 0.17581 0.39061 0.66471 0.0
C4560 C 0.17498 0.36822 0.64227 0.0
C4561 C 0.16233 0.3871 0.657 0.0
C4562 C 0.16162 0.35252 0.62213 0.0
C4563 C 0.18862 0.33719 0.61729 0.0
N4564 N 0.16223 0.3761 0.6461 0.0
N4565 N 0.18767 0.34836 0.62773 0.0
H4566 H 0.66584 0.19821 0.60995 0.0
H4567 H 0.60726 0.14934 0.65905 0.0
H4568 H 0.66216 0.14979 0.60411 0.0
H4569 H 0.61679 0.19698 0.66465 0.0
H4570 H 0.62617 0.14845 0.63842 0.0
H4571 H 0.6466 0.19725 0.6293 0.0
C4572 C 0.66097 0.1873 0.61276 0.0
C4573 C 0.66571 0.17404 0.60543 0.0
C4574 C 0.62406 0.15905 0.64423 0.0
C4575 C 0.64339 0.17282 0.6279 0.0
C4576 C 0.6133 0.15956 0.65596 0.0
C4577 C 0.61046 0.17325 0.66359 0.0
C4578 C 0.63187 0.17233 0.64018 0.0
C4579 C 0.61857 0.18615 0.65917 0.0
C4580 C 0.64991 0.18675 0.62388 0.0
C4581 C 0.65883 0.16028 0.60952 0.0
N4582 N 0.62883 0.18535 0.64782 0.0
N4583 N 0.64799 0.15999 0.62057 0.0
H4584 H 0.79992 0.33314 0.38525 0.0
H4585 H 0.84734 0.39579 0.33978 0.0
H4586 H 0.8475 0.34032 0.39394 0.0
H4587 H 0.80006 0.38523 0.33316 0.0
H4588 H 0.84848 0.37611 0.35965 0.0
H4589 H 0.80055 0.35271 0.36617 0.0
C4590 C 0.81057 0.33885 0.38313 0.0
C4591 C 0.82368 0.33504 0.39121 0.0
C4592 C 0.8379 0.37817 0.35379 0.0
C4593 C 0.82452 0.35778 0.36912 0.0
C4594 C 0.83724 0.38937 0.34249 0.0
C4595 C 0.82359 0.39214 0.33479 0.0
C4596 C 0.8248 0.3698 0.35732 0.0
C4597 C 0.81085 0.38352 0.33872 0.0
C4598 C 0.81093 0.3501 0.37216 0.0
C4599 C 0.83713 0.34293 0.38794 0.0
N4600 N 0.81179 0.37282 0.34965 0.0
N4601 N 0.83722 0.35397 0.37709 0.0
H4602 H 0.6677 0.79941 0.38657 0.0
H4603 H 0.60614 0.84791 0.34077 0.0
H4604 H 0.66082 0.84701 0.39539 0.0
H4605 H 0.61516 0.80024 0.33463 0.0
H4606 H 0.62577 0.84862 0.36065 0.0
H4607 H 0.64822 0.80027 0.36735 0.0
C4608 C 0.66208 0.81011 0.38445 0.0
C4609 C 0.66593 0.82316 0.39261 0.0
C4610 C 0.62339 0.83805 0.35491 0.0
C4611 C 0.64333 0.82426 0.3704 0.0
C4612 C 0.61222 0.83763 0.34359 0.0
C4613 C 0.60903 0.824 0.33602 0.0
C4614 C 0.63134 0.82473 0.35859 0.0
C4615 C 0.61722 0.81102 0.3401 0.0
C4616 C 0.65088 0.8106 0.37342 0.0
C4617 C 0.65818 0.83668 0.38934 0.0
N4618 N 0.62793 0.81173 0.35104 0.0
N4619 N 0.6472 0.8369 0.37844 0.0
H4620 H 0.19885 0.67001 0.38407 0.0
H4621 H 0.15268 0.60503 0.34066 0.0
H4622 H 0.15212 0.6605 0.39492 0.0
H4623 H 0.19978 0.61627 0.33387 0.0
H4624 H 0.15117 0.62512 0.36009 0.0
H4625 H 0.19832 0.65041 0.36505 0.0
C4626 C 0.1884 0.66379 0.38244 0.0
C4627 C 0.17551 0.66693 0.39115 0.0
C4628 C 0.16179 0.62312 0.35429 0.0
C4629 C 0.17482 0.64409 0.36915 0.0
C4630 C 0.16266 0.61168 0.34324 0.0
C4631 C 0.17637 0.60898 0.33561 0.0
C4632 C 0.17473 0.63181 0.35762 0.0
C4633 C 0.18895 0.61791 0.33937 0.0
C4634 C 0.1881 0.6525 0.37152 0.0
C4635 C 0.16232 0.65842 0.38844 0.0
N4636 N 0.1878 0.62884 0.35003 0.0
N4637 N 0.1623 0.64731 0.37766 0.0
H4638 H 0.34 0.14971 0.39564 0.0
H4639 H 0.38902 0.20048 0.33864 0.0
H4640 H 0.33841 0.19843 0.3918 0.0
H4641 H 0.39377 0.15183 0.33963 0.0
H4642 H 0.37108 0.19907 0.35917 0.0
H4643 H 0.36016 0.14929 0.3762 0.0
C4644 C 0.34392 0.16028 0.39078 0.0
C4645 C 0.33746 0.17412 0.39526 0.0
C4646 C 0.37597 0.18861 0.35502 0.0
C4647 C 0.36033 0.17373 0.37326 0.0
C4648 C 0.38627 0.18942 0.34321 0.0
C4649 C 0.39284 0.17624 0.33732 0.0
C4650 C 0.37197 0.17448 0.3611 0.0
C4651 C 0.38892 0.16226 0.34386 0.0
C4652 C 0.35538 0.16003 0.37972 0.0
C4653 C 0.34293 0.18747 0.38865 0.0
N4654 N 0.3786 0.16171 0.3554 0.0
N4655 N 0.35395 0.18691 0.37804 0.0
H4656 H 0.66146 0.84964 0.60513 0.0
H4657 H 0.61326 0.80125 0.66487 0.0
H4658 H 0.66712 0.80199 0.61456 0.0
H4659 H 0.60604 0.84929 0.65923 0.0
H4660 H 0.63285 0.80206 0.64582 0.0
H4661 H 0.64108 0.85056 0.62426 0.0
C4662 C 0.65844 0.83942 0.6112 0.0
C4663 C 0.666 0.82572 0.60825 0.0
C4664 C 0.62707 0.8125 0.64866 0.0
C4665 C 0.64287 0.82668 0.62997 0.0
C4666 C 0.61581 0.81204 0.65961 0.0
C4667 C 0.608 0.82524 0.66371 0.0
C4668 C 0.6307 0.82628 0.6416 0.0
C4669 C 0.61181 0.83885 0.65639 0.0
C4670 C 0.64684 0.83995 0.62209 0.0
C4671 C 0.66166 0.81282 0.61642 0.0
N4672 N 0.62295 0.83904 0.64564 0.0
N4673 N 0.65044 0.81364 0.62683 0.0
H4674 H 0.61258 0.20064 0.33352 0.0
H4675 H 0.6599 0.15123 0.39308 0.0
H4676 H 0.60456 0.15268 0.33873 0.0
H4677 H 0.66583 0.19895 0.3842 0.0
H4678 H 0.63951 0.15065 0.37393 0.0
H4679 H 0.63185 0.19943 0.3528 0.0
C4680 C 0.61488 0.18977 0.33875 0.0
C4681 C 0.60696 0.17672 0.33443 0.0
C4682 C 0.64533 0.1612 0.37624 0.0
C4683 C 0.62933 0.17522 0.35683 0.0
C4684 C 0.65693 0.16154 0.38713 0.0
C4685 C 0.66458 0.17516 0.39022 0.0
C4686 C 0.64144 0.17459 0.36851 0.0
C4687 C 0.66032 0.18818 0.38222 0.0
C4688 C 0.62596 0.18909 0.34984 0.0
C4689 C 0.61044 0.16301 0.34174 0.0
N4690 N 0.6491 0.18754 0.37181 0.0
N4691 N 0.62145 0.16258 0.35262 0.0
H4692 H 0.84844 0.60398 0.34075 0.0
H4693 H 0.8006 0.66543 0.38734 0.0
H4694 H 0.80189 0.61639 0.33237 0.0
H4695 H 0.8484 0.65902 0.39539 0.0
H4696 H 0.80148 0.64645 0.36767 0.0
H4697 H 0.84939 0.62313 0.36114 0.0
C4698 C 0.83847 0.61071 0.34317 0.0
C4699 C 0.82506 0.60857 0.33486 0.0
C4700 C 0.81185 0.64912 0.37365 0.0
C4701 C 0.82604 0.63029 0.358 0.0
C4702 C 0.81135 0.66002 0.38496 0.0
C4703 C 0.82446 0.66389 0.39302 0.0
C4704 C 0.82558 0.64185 0.37024 0.0
C4705 C 0.83803 0.65637 0.38941 0.0
C4706 C 0.83902 0.62161 0.35477 0.0
C4707 C 0.81249 0.61758 0.33842 0.0
N4708 N 0.83826 0.64566 0.37824 0.0
N4709 N 0.8133 0.62795 0.34967 0.0
H4710 H 0.39641 0.84875 0.33926 0.0
H4711 H 0.33264 0.80104 0.38287 0.0
H4712 H 0.38519 0.80185 0.33117 0.0
H4713 H 0.34142 0.84788 0.39381 0.0
H4714 H 0.35196 0.80206 0.36353 0.0
H4715 H 0.37655 0.84963 0.35896 0.0
C4716 C 0.38979 0.83869 0.3416 0.0
C4717 C 0.39246 0.82521 0.33356 0.0
C4718 C 0.34975 0.81219 0.37009 0.0
C4719 C 0.3699 0.82613 0.35589 0.0
C4720 C 0.33864 0.81161 0.38119 0.0
C4721 C 0.33538 0.8244 0.39 0.0
C4722 C 0.35784 0.82567 0.36765 0.0
C4723 C 0.3436 0.83776 0.38725 0.0
C4724 C 0.37849 0.8392 0.35281 0.0
C4725 C 0.38358 0.81251 0.33701 0.0
N4726 N 0.35452 0.83806 0.37629 0.0
N4727 N 0.37278 0.8133 0.34785 0.0
H4728 H 0.15535 0.39632 0.34117 0.0
H4729 H 0.20338 0.33478 0.3875 0.0
H4730 H 0.20254 0.38558 0.3342 0.0
H4731 H 0.15555 0.34101 0.39551 0.0
H4732 H 0.2026 0.35429 0.36837 0.0
H4733 H 0.15442 0.37702 0.36142 0.0
C4734 C 0.16547 0.38995 0.34389 0.0
C4735 C 0.17903 0.39255 0.33597 0.0
C4736 C 0.1922 0.35148 0.37423 0.0
C4737 C 0.17807 0.37066 0.35895 0.0
C4738 C 0.19264 0.34027 0.38522 0.0
C4739 C 0.17949 0.33619 0.3931 0.0
C4740 C 0.17848 0.35883 0.37093 0.0
C4741 C 0.16594 0.34382 0.38966 0.0
C4742 C 0.16493 0.37896 0.3554 0.0
C4743 C 0.19181 0.38399 0.33992 0.0
N4744 N 0.16576 0.35481 0.37876 0.0
N4745 N 0.19099 0.37351 0.35106 0.0
H4746 H 0.39493 0.19615 0.65946 0.0
H4747 H 0.33988 0.14654 0.60714 0.0
H4748 H 0.3949 0.14734 0.66216 0.0
H4749 H 0.33823 0.19507 0.61287 0.0
H4750 H 0.36127 0.14559 0.6252 0.0
H4751 H 0.37587 0.195 0.63989 0.0
C4752 C 0.39089 0.18512 0.65589 0.0
C4753 C 0.39639 0.17183 0.66258 0.0
C4754 C 0.35617 0.1564 0.62243 0.0
C4755 C 0.37419 0.17038 0.64003 0.0
C4756 C 0.34401 0.15695 0.61215 0.0
C4757 C 0.33725 0.1709 0.60853 0.0
C4758 C 0.36155 0.16992 0.62892 0.0
C4759 C 0.343 0.18404 0.61532 0.0
C4760 C 0.37994 0.18446 0.64467 0.0
C4761 C 0.39088 0.15786 0.65729 0.0
N4762 N 0.35475 0.1832 0.6251 0.0
N4763 N 0.37992 0.15747 0.64636 0.0
H4764 H 0.84649 0.39497 0.65993 0.0
H4765 H 0.79858 0.33399 0.61281 0.0
H4766 H 0.79919 0.38455 0.66666 0.0
H4767 H 0.84642 0.34051 0.60508 0.0
H4768 H 0.79926 0.3531 0.63239 0.0
H4769 H 0.84742 0.37568 0.63973 0.0
C4770 C 0.83634 0.38864 0.65718 0.0
C4771 C 0.82274 0.39136 0.66499 0.0
C4772 C 0.80967 0.35043 0.62649 0.0
C4773 C 0.82372 0.36946 0.64204 0.0
C4774 C 0.80929 0.33946 0.61525 0.0
C4775 C 0.82248 0.3356 0.60729 0.0
C4776 C 0.82336 0.35776 0.62994 0.0
C4777 C 0.83599 0.34317 0.61096 0.0
C4778 C 0.83688 0.37766 0.64568 0.0
C4779 C 0.80994 0.38287 0.661 0.0
N4780 N 0.83611 0.35393 0.62207 0.0
N4781 N 0.81076 0.37237 0.64985 0.0
H4782 H 0.19999 0.61193 0.66562 0.0
H4783 H 0.15108 0.65845 0.60491 0.0
H4784 H 0.15206 0.60405 0.66002 0.0
H4785 H 0.19892 0.66395 0.61339 0.0
H4786 H 0.15037 0.63848 0.62449 0.0
H4787 H 0.19904 0.63096 0.646 0.0
C4788 C 0.1892 0.61422 0.66025 0.0
C4789 C 0.17607 0.60639 0.66452 0.0
C4790 C 0.16098 0.6441 0.622 0.0
C4791 C 0.17486 0.62842 0.64175 0.0
C4792 C 0.16139 0.65546 0.61085 0.0
C4793 C 0.17507 0.66289 0.60754 0.0
C4794 C 0.17435 0.64024 0.62976 0.0
C4795 C 0.1881 0.65862 0.61555 0.0
C4796 C 0.18865 0.62515 0.64897 0.0
C4797 C 0.16244 0.60986 0.65705 0.0
N4798 N 0.18739 0.64764 0.62622 0.0
N4799 N 0.16217 0.62067 0.64599 0.0
loop_
_geom_bond_atom_site_label_1
_geom_bond_atom_site_label_2
_geom_bond_distance
_geom_bond_site_symmetry_2
_ccdc_geom_bond_type
Co0 O1 2.216 . S
Co0 O2 2.091 . S
Co0 O4 2.004 . S
Co0 O10 2.021 . S
Co0 O12 2.137 . S
Co0 O13 2.244 . S
O1 Co0 2.216 . S
O1 C8 1.247 . S
O2 Co0 2.091 . S
O2 C8 1.261 . S
C3 O12 1.247 . S
C3 O13 1.272 . S
O4 Co0 2.004 . S
O4 C9 1.259 . S
Co5 O6 2.061 . S
Co5 O11 2.052 . S
Co5 O13 2.135 . S
O6 Co5 2.061 . S
O6 C9 1.235 . S
C7 O10 1.238 . S
C7 O11 1.241 . S
C8 O1 1.247 . S
C8 O2 1.261 . S
C9 O4 1.259 . S
C9 O6 1.235 . S
O10 Co0 2.021 . S
O10 C7 1.238 . S
O11 Co5 2.052 . S
O11 C7 1.241 . S
O12 Co0 2.137 . S
O12 C3 1.247 . S
O13 Co0 2.244 . S
O13 C3 1.272 . S
O13 Co5 2.135 . S
Co14 O15 2.216 . S
Co14 O16 2.091 . S
Co14 O18 2.004 . S
Co14 O24 2.021 . S
Co14 O26 2.137 . S
Co14 O27 2.244 . S
O15 Co14 2.216 . S
O15 C22 1.247 . S
O16 Co14 2.091 . S
O16 C22 1.261 . S
C17 O26 1.247 . S
C17 O27 1.272 . S
O18 Co14 2.004 . S
O18 C23 1.259 . S
Co19 O20 2.061 . S
Co19 O25 2.052 . S
Co19 O27 2.135 . S
O20 Co19 2.061 . S
O20 C23 1.235 . S
C21 O24 1.238 . S
C21 O25 1.241 . S
C22 O15 1.247 . S
C22 O16 1.261 . S
C23 O18 1.259 . S
C23 O20 1.235 . S
O24 Co14 2.021 . S
O24 C21 1.238 . S
O25 Co19 2.052 . S
O25 C21 1.241 . S
O26 Co14 2.137 . S
O26 C17 1.247 . S
O27 Co14 2.244 . S
O27 C17 1.272 . S
O27 Co19 2.135 . S
Co28 O29 2.216 . S
Co28 O30 2.091 . S
Co28 O32 2.004 . S
Co28 O38 2.021 . S
Co28 O40 2.137 . S
Co28 O41 2.244 . S
O29 Co28 2.216 . S
O29 C36 1.247 . S
O30 Co28 2.091 . S
O30 C36 1.261 . S
C31 O40 1.247 . S
C31 O41 1.272 . S
O32 Co28 2.004 . S
O32 C37 1.259 . S
Co33 O34 2.061 . S
Co33 O39 2.052 . S
Co33 O41 2.135 . S
O34 Co33 2.061 . S
O34 C37 1.235 . S
C35 O38 1.238 . S
C35 O39 1.241 . S
C36 O29 1.247 . S
C36 O30 1.261 . S
C37 O32 1.259 . S
C37 O34 1.235 . S
O38 Co28 2.021 . S
O38 C35 1.238 . S
O39 Co33 2.052 . S
O39 C35 1.241 . S
O40 Co28 2.137 . S
O40 C31 1.247 . S
O41 Co28 2.244 . S
O41 C31 1.272 . S
O41 Co33 2.135 . S
Co42 O43 2.216 . S
Co42 O44 2.091 . S
Co42 O46 2.004 . S
Co42 O52 2.021 . S
Co42 O54 2.137 . S
Co42 O55 2.244 . S
O43 Co42 2.216 . S
O43 C50 1.247 . S
O44 Co42 2.091 . S
O44 C50 1.261 . S
C45 O54 1.247 . S
C45 O55 1.272 . S
O46 Co42 2.004 . S
O46 C51 1.259 . S
Co47 O48 2.061 . S
Co47 O53 2.052 . S
Co47 O55 2.135 . S
O48 Co47 2.061 . S
O48 C51 1.235 . S
C49 O52 1.238 . S
C49 O53 1.241 . S
C50 O43 1.247 . S
C50 O44 1.261 . S
C51 O46 1.259 . S
C51 O48 1.235 . S
O52 Co42 2.021 . S
O52 C49 1.238 . S
O53 Co47 2.052 . S
O53 C49 1.241 . S
O54 Co42 2.137 . S
O54 C45 1.247 . S
O55 Co42 2.244 . S
O55 C45 1.272 . S
O55 Co47 2.135 . S
Co56 O57 2.216 . S
Co56 O58 2.091 . S
Co56 O60 2.004 . S
Co56 O66 2.021 . S
Co56 O68 2.137 . S
Co56 O69 2.244 . S
O57 Co56 2.216 . S
O57 C64 1.247 . S
O58 Co56 2.091 . S
O58 C64 1.261 . S
C59 O68 1.247 . S
C59 O69 1.272 . S
O60 Co56 2.004 . S
O60 C65 1.259 . S
Co61 O62 2.061 . S
Co61 O67 2.052 . S
Co61 O69 2.135 . S
O62 Co61 2.061 . S
O62 C65 1.235 . S
C63 O66 1.238 . S
C63 O67 1.241 . S
C64 O57 1.247 . S
C64 O58 1.261 . S
C65 O60 1.259 . S
C65 O62 1.235 . S
O66 Co56 2.021 . S
O66 C63 1.238 . S
O67 Co61 2.052 . S
O67 C63 1.241 . S
O68 Co56 2.137 . S
O68 C59 1.247 . S
O69 Co56 2.244 . S
O69 C59 1.272 . S
O69 Co61 2.135 . S
Co70 O71 2.216 . S
Co70 O72 2.091 . S
Co70 O74 2.004 . S
Co70 O80 2.021 . S
Co70 O82 2.137 . S
Co70 O83 2.244 . S
O71 Co70 2.216 . S
O71 C78 1.247 . S
O72 Co70 2.091 . S
O72 C78 1.261 . S
C73 O82 1.247 . S
C73 O83 1.272 . S
O74 Co70 2.004 . S
O74 C79 1.259 . S
Co75 O76 2.061 . S
Co75 O81 2.052 . S
Co75 O83 2.135 . S
O76 Co75 2.061 . S
O76 C79 1.235 . S
C77 O80 1.238 . S
C77 O81 1.241 . S
C78 O71 1.247 . S
C78 O72 1.261 . S
C79 O74 1.259 . S
C79 O76 1.235 . S
O80 Co70 2.021 . S
O80 C77 1.238 . S
O81 Co75 2.052 . S
O81 C77 1.241 . S
O82 Co70 2.137 . S
O82 C73 1.247 . S
O83 Co70 2.244 . S
O83 C73 1.272 . S
O83 Co75 2.135 . S
Co84 O85 2.216 . S
Co84 O86 2.091 . S
Co84 O88 2.004 . S
Co84 O94 2.021 . S
Co84 O96 2.137 . S
Co84 O97 2.244 . S
O85 Co84 2.216 . S
O85 C92 1.247 . S
O86 Co84 2.091 . S
O86 C92 1.261 . S
C87 O96 1.247 . S
C87 O97 1.272 . S
O88 Co84 2.004 . S
O88 C93 1.259 . S
Co89 O90 2.061 . S
Co89 O95 2.052 . S
Co89 O97 2.135 . S
O90 Co89 2.061 . S
O90 C93 1.235 . S
C91 O94 1.238 . S
C91 O95 1.241 . S
C92 O85 1.247 . S
C92 O86 1.261 . S
C93 O88 1.259 . S
C93 O90 1.235 . S
O94 Co84 2.021 . S
O94 C91 1.238 . S
O95 Co89 2.052 . S
O95 C91 1.241 . S
O96 Co84 2.137 . S
O96 C87 1.247 . S
O97 Co84 2.244 . S
O97 C87 1.272 . S
O97 Co89 2.135 . S
Co98 O99 2.216 . S
Co98 O100 2.091 . S
Co98 O102 2.004 . S
Co98 O108 2.021 . S
Co98 O110 2.137 . S
Co98 O111 2.244 . S
O99 Co98 2.216 . S
O99 C106 1.247 . S
O100 Co98 2.091 . S
O100 C106 1.261 . S
C101 O110 1.247 . S
C101 O111 1.272 . S
O102 Co98 2.004 . S
O102 C107 1.259 . S
Co103 O104 2.061 . S
Co103 O109 2.052 . S
Co103 O111 2.135 . S
O104 Co103 2.061 . S
O104 C107 1.235 . S
C105 O108 1.238 . S
C105 O109 1.241 . S
C106 O99 1.247 . S
C106 O100 1.261 . S
C107 O102 1.259 . S
C107 O104 1.235 . S
O108 Co98 2.021 . S
O108 C105 1.238 . S
O109 Co103 2.052 . S
O109 C105 1.241 . S
O110 Co98 2.137 . S
O110 C101 1.247 . S
O111 Co98 2.244 . S
O111 C101 1.272 . S
O111 Co103 2.135 . S
Co112 O113 2.216 . S
Co112 O114 2.091 . S
Co112 O116 2.004 . S
Co112 O122 2.021 . S
Co112 O124 2.137 . S
Co112 O125 2.244 . S
O113 Co112 2.216 . S
O113 C120 1.247 . S
O114 Co112 2.091 . S
O114 C120 1.261 . S
C115 O124 1.247 . S
C115 O125 1.272 . S
O116 Co112 2.004 . S
O116 C121 1.259 . S
Co117 O118 2.061 . S
Co117 O123 2.052 . S
Co117 O125 2.135 . S
O118 Co117 2.061 . S
O118 C121 1.235 . S
C119 O122 1.238 . S
C119 O123 1.241 . S
C120 O113 1.247 . S
C120 O114 1.261 . S
C121 O116 1.259 . S
C121 O118 1.235 . S
O122 Co112 2.021 . S
O122 C119 1.238 . S
O123 Co117 2.052 . S
O123 C119 1.241 . S
O124 Co112 2.137 . S
O124 C115 1.247 . S
O125 Co112 2.244 . S
O125 C115 1.272 . S
O125 Co117 2.135 . S
Co126 O127 2.216 . S
Co126 O128 2.091 . S
Co126 O130 2.004 . S
Co126 O136 2.021 . S
Co126 O138 2.137 . S
Co126 O139 2.244 . S
O127 Co126 2.216 . S
O127 C134 1.247 . S
O128 Co126 2.091 . S
O128 C134 1.261 . S
C129 O138 1.247 . S
C129 O139 1.272 . S
O130 Co126 2.004 . S
O130 C135 1.259 . S
Co131 O132 2.061 . S
Co131 O137 2.052 . S
Co131 O139 2.135 . S
O132 Co131 2.061 . S
O132 C135 1.235 . S
C133 O136 1.238 . S
C133 O137 1.241 . S
C134 O127 1.247 . S
C134 O128 1.261 . S
C135 O130 1.259 . S
C135 O132 1.235 . S
O136 Co126 2.021 . S
O136 C133 1.238 . S
O137 Co131 2.052 . S
O137 C133 1.241 . S
O138 Co126 2.137 . S
O138 C129 1.247 . S
O139 Co126 2.244 . S
O139 C129 1.272 . S
O139 Co131 2.135 . S
Co140 O141 2.216 . S
Co140 O142 2.091 . S
Co140 O144 2.004 . S
Co140 O150 2.021 . S
Co140 O152 2.137 . S
Co140 O153 2.244 . S
O141 Co140 2.216 . S
O141 C148 1.247 . S
O142 Co140 2.091 . S
O142 C148 1.261 . S
C143 O152 1.247 . S
C143 O153 1.272 . S
O144 Co140 2.004 . S
O144 C149 1.259 . S
Co145 O146 2.061 . S
Co145 O151 2.052 . S
Co145 O153 2.135 . S
O146 Co145 2.061 . S
O146 C149 1.235 . S
C147 O150 1.238 . S
C147 O151 1.241 . S
C148 O141 1.247 . S
C148 O142 1.261 . S
C149 O144 1.259 . S
C149 O146 1.235 . S
O150 Co140 2.021 . S
O150 C147 1.238 . S
O151 Co145 2.052 . S
O151 C147 1.241 . S
O152 Co140 2.137 . S
O152 C143 1.247 . S
O153 Co140 2.244 . S
O153 C143 1.272 . S
O153 Co145 2.135 . S
Co154 O155 2.216 . S
Co154 O156 2.091 . S
Co154 O158 2.004 . S
Co154 O164 2.021 . S
Co154 O166 2.137 . S
Co154 O167 2.244 . S
O155 Co154 2.216 . S
O155 C162 1.247 . S
O156 Co154 2.091 . S
O156 C162 1.261 . S
C157 O166 1.247 . S
C157 O167 1.272 . S
O158 Co154 2.004 . S
O158 C163 1.259 . S
Co159 O160 2.061 . S
Co159 O165 2.052 . S
Co159 O167 2.135 . S
O160 Co159 2.061 . S
O160 C163 1.235 . S
C161 O164 1.238 . S
C161 O165 1.241 . S
C162 O155 1.247 . S
C162 O156 1.261 . S
C163 O158 1.259 . S
C163 O160 1.235 . S
O164 Co154 2.021 . S
O164 C161 1.238 . S
O165 Co159 2.052 . S
O165 C161 1.241 . S
O166 Co154 2.137 . S
O166 C157 1.247 . S
O167 Co154 2.244 . S
O167 C157 1.272 . S
O167 Co159 2.135 . S
Co168 O169 2.216 . S
Co168 O170 2.091 . S
Co168 O172 2.004 . S
Co168 O178 2.021 . S
Co168 O180 2.137 . S
Co168 O181 2.244 . S
O169 Co168 2.216 . S
O169 C176 1.247 . S
O170 Co168 2.091 . S
O170 C176 1.261 . S
C171 O180 1.247 . S
C171 O181 1.272 . S
O172 Co168 2.004 . S
O172 C177 1.259 . S
Co173 O174 2.061 . S
Co173 O179 2.052 . S
Co173 O181 2.135 . S
O174 Co173 2.061 . S
O174 C177 1.235 . S
C175 O178 1.238 . S
C175 O179 1.241 . S
C176 O169 1.247 . S
C176 O170 1.261 . S
C177 O172 1.259 . S
C177 O174 1.235 . S
O178 Co168 2.021 . S
O178 C175 1.238 . S
O179 Co173 2.052 . S
O179 C175 1.241 . S
O180 Co168 2.137 . S
O180 C171 1.247 . S
O181 Co168 2.244 . S
O181 C171 1.272 . S
O181 Co173 2.135 . S
Co182 O183 2.216 . S
Co182 O184 2.091 . S
Co182 O186 2.004 . S
Co182 O192 2.021 . S
Co182 O194 2.137 . S
Co182 O195 2.244 . S
O183 Co182 2.216 . S
O183 C190 1.247 . S
O184 Co182 2.091 . S
O184 C190 1.261 . S
C185 O194 1.247 . S
C185 O195 1.272 . S
O186 Co182 2.004 . S
O186 C191 1.259 . S
Co187 O188 2.061 . S
Co187 O193 2.052 . S
Co187 O195 2.135 . S
O188 Co187 2.061 . S
O188 C191 1.235 . S
C189 O192 1.238 . S
C189 O193 1.241 . S
C190 O183 1.247 . S
C190 O184 1.261 . S
C191 O186 1.259 . S
C191 O188 1.235 . S
O192 Co182 2.021 . S
O192 C189 1.238 . S
O193 Co187 2.052 . S
O193 C189 1.241 . S
O194 Co182 2.137 . S
O194 C185 1.247 . S
O195 Co182 2.244 . S
O195 C185 1.272 . S
O195 Co187 2.135 . S
Co196 O197 2.216 . S
Co196 O198 2.091 . S
Co196 O200 2.004 . S
Co196 O206 2.021 . S
Co196 O208 2.137 . S
Co196 O209 2.244 . S
O197 Co196 2.216 . S
O197 C204 1.247 . S
O198 Co196 2.091 . S
O198 C204 1.261 . S
C199 O208 1.247 . S
C199 O209 1.272 . S
O200 Co196 2.004 . S
O200 C205 1.259 . S
Co201 O202 2.061 . S
Co201 O207 2.052 . S
Co201 O209 2.135 . S
O202 Co201 2.061 . S
O202 C205 1.235 . S
C203 O206 1.238 . S
C203 O207 1.241 . S
C204 O197 1.247 . S
C204 O198 1.261 . S
C205 O200 1.259 . S
C205 O202 1.235 . S
O206 Co196 2.021 . S
O206 C203 1.238 . S
O207 Co201 2.052 . S
O207 C203 1.241 . S
O208 Co196 2.137 . S
O208 C199 1.247 . S
O209 Co196 2.244 . S
O209 C199 1.272 . S
O209 Co201 2.135 . S
Co210 O211 2.216 . S
Co210 O212 2.091 . S
Co210 O214 2.004 . S
Co210 O220 2.021 . S
Co210 O222 2.137 . S
Co210 O223 2.244 . S
O211 Co210 2.216 . S
O211 C218 1.247 . S
O212 Co210 2.091 . S
O212 C218 1.261 . S
C213 O222 1.247 . S
C213 O223 1.272 . S
O214 Co210 2.004 . S
O214 C219 1.259 . S
Co215 O216 2.061 . S
Co215 O221 2.052 . S
Co215 O223 2.135 . S
O216 Co215 2.061 . S
O216 C219 1.235 . S
C217 O220 1.238 . S
C217 O221 1.241 . S
C218 O211 1.247 . S
C218 O212 1.261 . S
C219 O214 1.259 . S
C219 O216 1.235 . S
O220 Co210 2.021 . S
O220 C217 1.238 . S
O221 Co215 2.052 . S
O221 C217 1.241 . S
O222 Co210 2.137 . S
O222 C213 1.247 . S
O223 Co210 2.244 . S
O223 C213 1.272 . S
O223 Co215 2.135 . S
Co224 O225 2.216 . S
Co224 O226 2.091 . S
Co224 O228 2.004 . S
Co224 O234 2.021 . S
Co224 O236 2.137 . S
Co224 O237 2.244 . S
O225 Co224 2.216 . S
O225 C232 1.247 . S
O226 Co224 2.091 . S
O226 C232 1.261 . S
C227 O236 1.247 . S
C227 O237 1.272 . S
O228 Co224 2.004 . S
O228 C233 1.259 . S
Co229 O230 2.061 . S
Co229 O235 2.052 . S
Co229 O237 2.135 . S
O230 Co229 2.061 . S
O230 C233 1.235 . S
C231 O234 1.238 . S
C231 O235 1.241 . S
C232 O225 1.247 . S
C232 O226 1.261 . S
C233 O228 1.259 . S
C233 O230 1.235 . S
O234 Co224 2.021 . S
O234 C231 1.238 . S
O235 Co229 2.052 . S
O235 C231 1.241 . S
O236 Co224 2.137 . S
O236 C227 1.247 . S
O237 Co224 2.244 . S
O237 C227 1.272 . S
O237 Co229 2.135 . S
Co238 O239 2.216 . S
Co238 O240 2.091 . S
Co238 O242 2.004 . S
Co238 O248 2.021 . S
Co238 O250 2.137 . S
Co238 O251 2.244 . S
O239 Co238 2.216 . S
O239 C246 1.247 . S
O240 Co238 2.091 . S
O240 C246 1.261 . S
C241 O250 1.247 . S
C241 O251 1.272 . S
O242 Co238 2.004 . S
O242 C247 1.259 . S
Co243 O244 2.061 . S
Co243 O249 2.052 . S
Co243 O251 2.135 . S
O244 Co243 2.061 . S
O244 C247 1.235 . S
C245 O248 1.238 . S
C245 O249 1.241 . S
C246 O239 1.247 . S
C246 O240 1.261 . S
C247 O242 1.259 . S
C247 O244 1.235 . S
O248 Co238 2.021 . S
O248 C245 1.238 . S
O249 Co243 2.052 . S
O249 C245 1.241 . S
O250 Co238 2.137 . S
O250 C241 1.247 . S
O251 Co238 2.244 . S
O251 C241 1.272 . S
O251 Co243 2.135 . S
Co252 O253 2.216 . S
Co252 O254 2.091 . S
Co252 O256 2.004 . S
Co252 O262 2.021 . S
Co252 O264 2.137 . S
Co252 O265 2.244 . S
O253 Co252 2.216 . S
O253 C260 1.247 . S
O254 Co252 2.091 . S
O254 C260 1.261 . S
C255 O264 1.247 . S
C255 O265 1.272 . S
O256 Co252 2.004 . S
O256 C261 1.259 . S
Co257 O258 2.061 . S
Co257 O263 2.052 . S
Co257 O265 2.135 . S
O258 Co257 2.061 . S
O258 C261 1.235 . S
C259 O262 1.238 . S
C259 O263 1.241 . S
C260 O253 1.247 . S
C260 O254 1.261 . S
C261 O256 1.259 . S
C261 O258 1.235 . S
O262 Co252 2.021 . S
O262 C259 1.238 . S
O263 Co257 2.052 . S
O263 C259 1.241 . S
O264 Co252 2.137 . S
O264 C255 1.247 . S
O265 Co252 2.244 . S
O265 C255 1.272 . S
O265 Co257 2.135 . S
Co266 O267 2.216 . S
Co266 O268 2.091 . S
Co266 O270 2.004 . S
Co266 O276 2.021 . S
Co266 O278 2.137 . S
Co266 O279 2.244 . S
O267 Co266 2.216 . S
O267 C274 1.247 . S
O268 Co266 2.091 . S
O268 C274 1.261 . S
C269 O278 1.247 . S
C269 O279 1.272 . S
O270 Co266 2.004 . S
O270 C275 1.259 . S
Co271 O272 2.061 . S
Co271 O277 2.052 . S
Co271 O279 2.135 . S
O272 Co271 2.061 . S
O272 C275 1.235 . S
C273 O276 1.238 . S
C273 O277 1.241 . S
C274 O267 1.247 . S
C274 O268 1.261 . S
C275 O270 1.259 . S
C275 O272 1.235 . S
O276 Co266 2.021 . S
O276 C273 1.238 . S
O277 Co271 2.052 . S
O277 C273 1.241 . S
O278 Co266 2.137 . S
O278 C269 1.247 . S
O279 Co266 2.244 . S
O279 C269 1.272 . S
O279 Co271 2.135 . S
Co280 O281 2.216 . S
Co280 O282 2.091 . S
Co280 O284 2.004 . S
Co280 O290 2.021 . S
Co280 O292 2.137 . S
Co280 O293 2.244 . S
O281 Co280 2.216 . S
O281 C288 1.247 . S
O282 Co280 2.091 . S
O282 C288 1.261 . S
C283 O292 1.247 . S
C283 O293 1.272 . S
O284 Co280 2.004 . S
O284 C289 1.259 . S
Co285 O286 2.061 . S
Co285 O291 2.052 . S
Co285 O293 2.135 . S
O286 Co285 2.061 . S
O286 C289 1.235 . S
C287 O290 1.238 . S
C287 O291 1.241 . S
C288 O281 1.247 . S
C288 O282 1.261 . S
C289 O284 1.259 . S
C289 O286 1.235 . S
O290 Co280 2.021 . S
O290 C287 1.238 . S
O291 Co285 2.052 . S
O291 C287 1.241 . S
O292 Co280 2.137 . S
O292 C283 1.247 . S
O293 Co280 2.244 . S
O293 C283 1.272 . S
O293 Co285 2.135 . S
Co294 O295 2.216 . S
Co294 O296 2.091 . S
Co294 O298 2.004 . S
Co294 O304 2.021 . S
Co294 O306 2.137 . S
Co294 O307 2.244 . S
O295 Co294 2.216 . S
O295 C302 1.247 . S
O296 Co294 2.091 . S
O296 C302 1.261 . S
C297 O306 1.247 . S
C297 O307 1.272 . S
O298 Co294 2.004 . S
O298 C303 1.259 . S
Co299 O300 2.061 . S
Co299 O305 2.052 . S
Co299 O307 2.135 . S
O300 Co299 2.061 . S
O300 C303 1.235 . S
C301 O304 1.238 . S
C301 O305 1.241 . S
C302 O295 1.247 . S
C302 O296 1.261 . S
C303 O298 1.259 . S
C303 O300 1.235 . S
O304 Co294 2.021 . S
O304 C301 1.238 . S
O305 Co299 2.052 . S
O305 C301 1.241 . S
O306 Co294 2.137 . S
O306 C297 1.247 . S
O307 Co294 2.244 . S
O307 C297 1.272 . S
O307 Co299 2.135 . S
Co308 O309 2.216 . S
Co308 O310 2.091 . S
Co308 O312 2.004 . S
Co308 O318 2.021 . S
Co308 O320 2.137 . S
Co308 O321 2.244 . S
O309 Co308 2.216 . S
O309 C316 1.247 . S
O310 Co308 2.091 . S
O310 C316 1.261 . S
C311 O320 1.247 . S
C311 O321 1.272 . S
O312 Co308 2.004 . S
O312 C317 1.259 . S
Co313 O314 2.061 . S
Co313 O319 2.052 . S
Co313 O321 2.135 . S
O314 Co313 2.061 . S
O314 C317 1.235 . S
C315 O318 1.238 . S
C315 O319 1.241 . S
C316 O309 1.247 . S
C316 O310 1.261 . S
C317 O312 1.259 . S
C317 O314 1.235 . S
O318 Co308 2.021 . S
O318 C315 1.238 . S
O319 Co313 2.052 . S
O319 C315 1.241 . S
O320 Co308 2.137 . S
O320 C311 1.247 . S
O321 Co308 2.244 . S
O321 C311 1.272 . S
O321 Co313 2.135 . S
Co322 O323 2.216 . S
Co322 O324 2.091 . S
Co322 O326 2.004 . S
Co322 O332 2.021 . S
Co322 O334 2.137 . S
Co322 O335 2.244 . S
O323 Co322 2.216 . S
O323 C330 1.247 . S
O324 Co322 2.091 . S
O324 C330 1.261 . S
C325 O334 1.247 . S
C325 O335 1.272 . S
O326 Co322 2.004 . S
O326 C331 1.259 . S
Co327 O328 2.061 . S
Co327 O333 2.052 . S
Co327 O335 2.135 . S
O328 Co327 2.061 . S
O328 C331 1.235 . S
C329 O332 1.238 . S
C329 O333 1.241 . S
C330 O323 1.247 . S
C330 O324 1.261 . S
C331 O326 1.259 . S
C331 O328 1.235 . S
O332 Co322 2.021 . S
O332 C329 1.238 . S
O333 Co327 2.052 . S
O333 C329 1.241 . S
O334 Co322 2.137 . S
O334 C325 1.247 . S
O335 Co322 2.244 . S
O335 C325 1.272 . S
O335 Co327 2.135 . S
Co336 O337 2.216 . S
Co336 O338 2.091 . S
Co336 O340 2.004 . S
Co336 O346 2.021 . S
Co336 O348 2.137 . S
Co336 O349 2.244 . S
O337 Co336 2.216 . S
O337 C344 1.247 . S
O338 Co336 2.091 . S
O338 C344 1.261 . S
C339 O348 1.247 . S
C339 O349 1.272 . S
O340 Co336 2.004 . S
O340 C345 1.259 . S
Co341 O342 2.061 . S
Co341 O347 2.052 . S
Co341 O349 2.135 . S
O342 Co341 2.061 . S
O342 C345 1.235 . S
C343 O346 1.238 . S
C343 O347 1.241 . S
C344 O337 1.247 . S
C344 O338 1.261 . S
C345 O340 1.259 . S
C345 O342 1.235 . S
O346 Co336 2.021 . S
O346 C343 1.238 . S
O347 Co341 2.052 . S
O347 C343 1.241 . S
O348 Co336 2.137 . S
O348 C339 1.247 . S
O349 Co336 2.244 . S
O349 C339 1.272 . S
O349 Co341 2.135 . S
Co350 O351 2.216 . S
Co350 O352 2.091 . S
Co350 O354 2.004 . S
Co350 O360 2.021 . S
Co350 O362 2.137 . S
Co350 O363 2.244 . S
O351 Co350 2.216 . S
O351 C358 1.247 . S
O352 Co350 2.091 . S
O352 C358 1.261 . S
C353 O362 1.247 . S
C353 O363 1.272 . S
O354 Co350 2.004 . S
O354 C359 1.259 . S
Co355 O356 2.061 . S
Co355 O361 2.052 . S
Co355 O363 2.135 . S
O356 Co355 2.061 . S
O356 C359 1.235 . S
C357 O360 1.238 . S
C357 O361 1.241 . S
C358 O351 1.247 . S
C358 O352 1.261 . S
C359 O354 1.259 . S
C359 O356 1.235 . S
O360 Co350 2.021 . S
O360 C357 1.238 . S
O361 Co355 2.052 . S
O361 C357 1.241 . S
O362 Co350 2.137 . S
O362 C353 1.247 . S
O363 Co350 2.244 . S
O363 C353 1.272 . S
O363 Co355 2.135 . S
Co364 O365 2.216 . S
Co364 O366 2.091 . S
Co364 O368 2.004 . S
Co364 O374 2.021 . S
Co364 O376 2.137 . S
Co364 O377 2.244 . S
O365 Co364 2.216 . S
O365 C372 1.247 . S
O366 Co364 2.091 . S
O366 C372 1.261 . S
C367 O376 1.247 . S
C367 O377 1.272 . S
O368 Co364 2.004 . S
O368 C373 1.259 . S
Co369 O370 2.061 . S
Co369 O375 2.052 . S
Co369 O377 2.135 . S
O370 Co369 2.061 . S
O370 C373 1.235 . S
C371 O374 1.238 . S
C371 O375 1.241 . S
C372 O365 1.247 . S
C372 O366 1.261 . S
C373 O368 1.259 . S
C373 O370 1.235 . S
O374 Co364 2.021 . S
O374 C371 1.238 . S
O375 Co369 2.052 . S
O375 C371 1.241 . S
O376 Co364 2.137 . S
O376 C367 1.247 . S
O377 Co364 2.244 . S
O377 C367 1.272 . S
O377 Co369 2.135 . S
Co378 O379 2.216 . S
Co378 O380 2.091 . S
Co378 O382 2.004 . S
Co378 O388 2.021 . S
Co378 O390 2.137 . S
Co378 O391 2.244 . S
O379 Co378 2.216 . S
O379 C386 1.247 . S
O380 Co378 2.091 . S
O380 C386 1.261 . S
C381 O390 1.247 . S
C381 O391 1.272 . S
O382 Co378 2.004 . S
O382 C387 1.259 . S
Co383 O384 2.061 . S
Co383 O389 2.052 . S
Co383 O391 2.135 . S
O384 Co383 2.061 . S
O384 C387 1.235 . S
C385 O388 1.238 . S
C385 O389 1.241 . S
C386 O379 1.247 . S
C386 O380 1.261 . S
C387 O382 1.259 . S
C387 O384 1.235 . S
O388 Co378 2.021 . S
O388 C385 1.238 . S
O389 Co383 2.052 . S
O389 C385 1.241 . S
O390 Co378 2.137 . S
O390 C381 1.247 . S
O391 Co378 2.244 . S
O391 C381 1.272 . S
O391 Co383 2.135 . S
Co392 O393 2.216 . S
Co392 O394 2.091 . S
Co392 O396 2.004 . S
Co392 O402 2.021 . S
Co392 O404 2.137 . S
Co392 O405 2.244 . S
O393 Co392 2.216 . S
O393 C400 1.247 . S
O394 Co392 2.091 . S
O394 C400 1.261 . S
C395 O404 1.247 . S
C395 O405 1.272 . S
O396 Co392 2.004 . S
O396 C401 1.259 . S
Co397 O398 2.061 . S
Co397 O403 2.052 . S
Co397 O405 2.135 . S
O398 Co397 2.061 . S
O398 C401 1.235 . S
C399 O402 1.238 . S
C399 O403 1.241 . S
C400 O393 1.247 . S
C400 O394 1.261 . S
C401 O396 1.259 . S
C401 O398 1.235 . S
O402 Co392 2.021 . S
O402 C399 1.238 . S
O403 Co397 2.052 . S
O403 C399 1.241 . S
O404 Co392 2.137 . S
O404 C395 1.247 . S
O405 Co392 2.244 . S
O405 C395 1.272 . S
O405 Co397 2.135 . S
Co406 O407 2.216 . S
Co406 O408 2.091 . S
Co406 O410 2.004 . S
Co406 O416 2.021 . S
Co406 O418 2.137 . S
Co406 O419 2.244 . S
O407 Co406 2.216 . S
O407 C414 1.247 . S
O408 Co406 2.091 . S
O408 C414 1.261 . S
C409 O418 1.247 . S
C409 O419 1.272 . S
O410 Co406 2.004 . S
O410 C415 1.259 . S
Co411 O412 2.061 . S
Co411 O417 2.052 . S
Co411 O419 2.135 . S
O412 Co411 2.061 . S
O412 C415 1.235 . S
C413 O416 1.238 . S
C413 O417 1.241 . S
C414 O407 1.247 . S
C414 O408 1.261 . S
C415 O410 1.259 . S
C415 O412 1.235 . S
O416 Co406 2.021 . S
O416 C413 1.238 . S
O417 Co411 2.052 . S
O417 C413 1.241 . S
O418 Co406 2.137 . S
O418 C409 1.247 . S
O419 Co406 2.244 . S
O419 C409 1.272 . S
O419 Co411 2.135 . S
Co420 O421 2.216 . S
Co420 O422 2.091 . S
Co420 O424 2.004 . S
Co420 O430 2.021 . S
Co420 O432 2.137 . S
Co420 O433 2.244 . S
O421 Co420 2.216 . S
O421 C428 1.247 . S
O422 Co420 2.091 . S
O422 C428 1.261 . S
C423 O432 1.247 . S
C423 O433 1.272 . S
O424 Co420 2.004 . S
O424 C429 1.259 . S
Co425 O426 2.061 . S
Co425 O431 2.052 . S
Co425 O433 2.135 . S
O426 Co425 2.061 . S
O426 C429 1.235 . S
C427 O430 1.238 . S
C427 O431 1.241 . S
C428 O421 1.247 . S
C428 O422 1.261 . S
C429 O424 1.259 . S
C429 O426 1.235 . S
O430 Co420 2.021 . S
O430 C427 1.238 . S
O431 Co425 2.052 . S
O431 C427 1.241 . S
O432 Co420 2.137 . S
O432 C423 1.247 . S
O433 Co420 2.244 . S
O433 C423 1.272 . S
O433 Co425 2.135 . S
Co434 O435 2.216 . S
Co434 O436 2.091 . S
Co434 O438 2.004 . S
Co434 O444 2.021 . S
Co434 O446 2.137 . S
Co434 O447 2.244 . S
O435 Co434 2.216 . S
O435 C442 1.247 . S
O436 Co434 2.091 . S
O436 C442 1.261 . S
C437 O446 1.247 . S
C437 O447 1.272 . S
O438 Co434 2.004 . S
O438 C443 1.259 . S
Co439 O440 2.061 . S
Co439 O445 2.052 . S
Co439 O447 2.135 . S
O440 Co439 2.061 . S
O440 C443 1.235 . S
C441 O444 1.238 . S
C441 O445 1.241 . S
C442 O435 1.247 . S
C442 O436 1.261 . S
C443 O438 1.259 . S
C443 O440 1.235 . S
O444 Co434 2.021 . S
O444 C441 1.238 . S
O445 Co439 2.052 . S
O445 C441 1.241 . S
O446 Co434 2.137 . S
O446 C437 1.247 . S
O447 Co434 2.244 . S
O447 C437 1.272 . S
O447 Co439 2.135 . S
Co448 O449 2.216 . S
Co448 O450 2.091 . S
Co448 O452 2.004 . S
Co448 O458 2.021 . S
Co448 O460 2.137 . S
Co448 O461 2.244 . S
O449 Co448 2.216 . S
O449 C456 1.247 . S
O450 Co448 2.091 . S
O450 C456 1.261 . S
C451 O460 1.247 . S
C451 O461 1.272 . S
O452 Co448 2.004 . S
O452 C457 1.259 . S
Co453 O454 2.061 . S
Co453 O459 2.052 . S
Co453 O461 2.135 . S
O454 Co453 2.061 . S
O454 C457 1.235 . S
C455 O458 1.238 . S
C455 O459 1.241 . S
C456 O449 1.247 . S
C456 O450 1.261 . S
C457 O452 1.259 . S
C457 O454 1.235 . S
O458 Co448 2.021 . S
O458 C455 1.238 . S
O459 Co453 2.052 . S
O459 C455 1.241 . S
O460 Co448 2.137 . S
O460 C451 1.247 . S
O461 Co448 2.244 . S
O461 C451 1.272 . S
O461 Co453 2.135 . S
Co462 O463 2.216 . S
Co462 O464 2.091 . S
Co462 O466 2.004 . S
Co462 O472 2.021 . S
Co462 O474 2.137 . S
Co462 O475 2.244 . S
O463 Co462 2.216 . S
O463 C470 1.247 . S
O464 Co462 2.091 . S
O464 C470 1.261 . S
C465 O474 1.247 . S
C465 O475 1.272 . S
O466 Co462 2.004 . S
O466 C471 1.259 . S
Co467 O468 2.061 . S
Co467 O473 2.052 . S
Co467 O475 2.135 . S
O468 Co467 2.061 . S
O468 C471 1.235 . S
C469 O472 1.238 . S
C469 O473 1.241 . S
C470 O463 1.247 . S
C470 O464 1.261 . S
C471 O466 1.259 . S
C471 O468 1.235 . S
O472 Co462 2.021 . S
O472 C469 1.238 . S
O473 Co467 2.052 . S
O473 C469 1.241 . S
O474 Co462 2.137 . S
O474 C465 1.247 . S
O475 Co462 2.244 . S
O475 C465 1.272 . S
O475 Co467 2.135 . S
Co476 O477 2.216 . S
Co476 O478 2.091 . S
Co476 O480 2.004 . S
Co476 O486 2.021 . S
Co476 O488 2.137 . S
Co476 O489 2.244 . S
O477 Co476 2.216 . S
O477 C484 1.247 . S
O478 Co476 2.091 . S
O478 C484 1.261 . S
C479 O488 1.247 . S
C479 O489 1.272 . S
O480 Co476 2.004 . S
O480 C485 1.259 . S
Co481 O482 2.061 . S
Co481 O487 2.052 . S
Co481 O489 2.135 . S
O482 Co481 2.061 . S
O482 C485 1.235 . S
C483 O486 1.238 . S
C483 O487 1.241 . S
C484 O477 1.247 . S
C484 O478 1.261 . S
C485 O480 1.259 . S
C485 O482 1.235 . S
O486 Co476 2.021 . S
O486 C483 1.238 . S
O487 Co481 2.052 . S
O487 C483 1.241 . S
O488 Co476 2.137 . S
O488 C479 1.247 . S
O489 Co476 2.244 . S
O489 C479 1.272 . S
O489 Co481 2.135 . S
Co490 O491 2.216 . S
Co490 O492 2.091 . S
Co490 O494 2.004 . S
Co490 O500 2.021 . S
Co490 O502 2.137 . S
Co490 O503 2.244 . S
O491 Co490 2.216 . S
O491 C498 1.247 . S
O492 Co490 2.091 . S
O492 C498 1.261 . S
C493 O502 1.247 . S
C493 O503 1.272 . S
O494 Co490 2.004 . S
O494 C499 1.259 . S
Co495 O496 2.061 . S
Co495 O501 2.052 . S
Co495 O503 2.135 . S
O496 Co495 2.061 . S
O496 C499 1.235 . S
C497 O500 1.238 . S
C497 O501 1.241 . S
C498 O491 1.247 . S
C498 O492 1.261 . S
C499 O494 1.259 . S
C499 O496 1.235 . S
O500 Co490 2.021 . S
O500 C497 1.238 . S
O501 Co495 2.052 . S
O501 C497 1.241 . S
O502 Co490 2.137 . S
O502 C493 1.247 . S
O503 Co490 2.244 . S
O503 C493 1.272 . S
O503 Co495 2.135 . S
Co504 O505 2.216 . S
Co504 O506 2.091 . S
Co504 O508 2.004 . S
Co504 O514 2.021 . S
Co504 O516 2.137 . S
Co504 O517 2.244 . S
O505 Co504 2.216 . S
O505 C512 1.247 . S
O506 Co504 2.091 . S
O506 C512 1.261 . S
C507 O516 1.247 . S
C507 O517 1.272 . S
O508 Co504 2.004 . S
O508 C513 1.259 . S
Co509 O510 2.061 . S
Co509 O515 2.052 . S
Co509 O517 2.135 . S
O510 Co509 2.061 . S
O510 C513 1.235 . S
C511 O514 1.238 . S
C511 O515 1.241 . S
C512 O505 1.247 . S
C512 O506 1.261 . S
C513 O508 1.259 . S
C513 O510 1.235 . S
O514 Co504 2.021 . S
O514 C511 1.238 . S
O515 Co509 2.052 . S
O515 C511 1.241 . S
O516 Co504 2.137 . S
O516 C507 1.247 . S
O517 Co504 2.244 . S
O517 C507 1.272 . S
O517 Co509 2.135 . S
Co518 O519 2.216 . S
Co518 O520 2.091 . S
Co518 O522 2.004 . S
Co518 O528 2.021 . S
Co518 O530 2.137 . S
Co518 O531 2.244 . S
O519 Co518 2.216 . S
O519 C526 1.247 . S
O520 Co518 2.091 . S
O520 C526 1.261 . S
C521 O530 1.247 . S
C521 O531 1.272 . S
O522 Co518 2.004 . S
O522 C527 1.259 . S
Co523 O524 2.061 . S
Co523 O529 2.052 . S
Co523 O531 2.135 . S
O524 Co523 2.061 . S
O524 C527 1.235 . S
C525 O528 1.238 . S
C525 O529 1.241 . S
C526 O519 1.247 . S
C526 O520 1.261 . S
C527 O522 1.259 . S
C527 O524 1.235 . S
O528 Co518 2.021 . S
O528 C525 1.238 . S
O529 Co523 2.052 . S
O529 C525 1.241 . S
O530 Co518 2.137 . S
O530 C521 1.247 . S
O531 Co518 2.244 . S
O531 C521 1.272 . S
O531 Co523 2.135 . S
Co532 O533 2.216 . S
Co532 O534 2.091 . S
Co532 O536 2.004 . S
Co532 O542 2.021 . S
Co532 O544 2.137 . S
Co532 O545 2.244 . S
O533 Co532 2.216 . S
O533 C540 1.247 . S
O534 Co532 2.091 . S
O534 C540 1.261 . S
C535 O544 1.247 . S
C535 O545 1.272 . S
O536 Co532 2.004 . S
O536 C541 1.259 . S
Co537 O538 2.061 . S
Co537 O543 2.052 . S
Co537 O545 2.135 . S
O538 Co537 2.061 . S
O538 C541 1.235 . S
C539 O542 1.238 . S
C539 O543 1.241 . S
C540 O533 1.247 . S
C540 O534 1.261 . S
C541 O536 1.259 . S
C541 O538 1.235 . S
O542 Co532 2.021 . S
O542 C539 1.238 . S
O543 Co537 2.052 . S
O543 C539 1.241 . S
O544 Co532 2.137 . S
O544 C535 1.247 . S
O545 Co532 2.244 . S
O545 C535 1.272 . S
O545 Co537 2.135 . S
Co546 O547 2.216 . S
Co546 O548 2.091 . S
Co546 O550 2.004 . S
Co546 O556 2.021 . S
Co546 O558 2.137 . S
Co546 O559 2.244 . S
O547 Co546 2.216 . S
O547 C554 1.247 . S
O548 Co546 2.091 . S
O548 C554 1.261 . S
C549 O558 1.247 . S
C549 O559 1.272 . S
O550 Co546 2.004 . S
O550 C555 1.259 . S
Co551 O552 2.061 . S
Co551 O557 2.052 . S
Co551 O559 2.135 . S
O552 Co551 2.061 . S
O552 C555 1.235 . S
C553 O556 1.238 . S
C553 O557 1.241 . S
C554 O547 1.247 . S
C554 O548 1.261 . S
C555 O550 1.259 . S
C555 O552 1.235 . S
O556 Co546 2.021 . S
O556 C553 1.238 . S
O557 Co551 2.052 . S
O557 C553 1.241 . S
O558 Co546 2.137 . S
O558 C549 1.247 . S
O559 Co546 2.244 . S
O559 C549 1.272 . S
O559 Co551 2.135 . S
Co560 O561 2.216 . S
Co560 O562 2.091 . S
Co560 O564 2.004 . S
Co560 O570 2.021 . S
Co560 O572 2.137 . S
Co560 O573 2.244 . S
O561 Co560 2.216 . S
O561 C568 1.247 . S
O562 Co560 2.091 . S
O562 C568 1.261 . S
C563 O572 1.247 . S
C563 O573 1.272 . S
O564 Co560 2.004 . S
O564 C569 1.259 . S
Co565 O566 2.061 . S
Co565 O571 2.052 . S
Co565 O573 2.135 . S
O566 Co565 2.061 . S
O566 C569 1.235 . S
C567 O570 1.238 . S
C567 O571 1.241 . S
C568 O561 1.247 . S
C568 O562 1.261 . S
C569 O564 1.259 . S
C569 O566 1.235 . S
O570 Co560 2.021 . S
O570 C567 1.238 . S
O571 Co565 2.052 . S
O571 C567 1.241 . S
O572 Co560 2.137 . S
O572 C563 1.247 . S
O573 Co560 2.244 . S
O573 C563 1.272 . S
O573 Co565 2.135 . S
Co574 O575 2.216 . S
Co574 O576 2.091 . S
Co574 O578 2.004 . S
Co574 O584 2.021 . S
Co574 O586 2.137 . S
Co574 O587 2.244 . S
O575 Co574 2.216 . S
O575 C582 1.247 . S
O576 Co574 2.091 . S
O576 C582 1.261 . S
C577 O586 1.247 . S
C577 O587 1.272 . S
O578 Co574 2.004 . S
O578 C583 1.259 . S
Co579 O580 2.061 . S
Co579 O585 2.052 . S
Co579 O587 2.135 . S
O580 Co579 2.061 . S
O580 C583 1.235 . S
C581 O584 1.238 . S
C581 O585 1.241 . S
C582 O575 1.247 . S
C582 O576 1.261 . S
C583 O578 1.259 . S
C583 O580 1.235 . S
O584 Co574 2.021 . S
O584 C581 1.238 . S
O585 Co579 2.052 . S
O585 C581 1.241 . S
O586 Co574 2.137 . S
O586 C577 1.247 . S
O587 Co574 2.244 . S
O587 C577 1.272 . S
O587 Co579 2.135 . S
Co588 O589 2.216 . S
Co588 O590 2.091 . S
Co588 O592 2.004 . S
Co588 O598 2.021 . S
Co588 O600 2.137 . S
Co588 O601 2.244 . S
O589 Co588 2.216 . S
O589 C596 1.247 . S
O590 Co588 2.091 . S
O590 C596 1.261 . S
C591 O600 1.247 . S
C591 O601 1.272 . S
O592 Co588 2.004 . S
O592 C597 1.259 . S
Co593 O594 2.061 . S
Co593 O599 2.052 . S
Co593 O601 2.135 . S
O594 Co593 2.061 . S
O594 C597 1.235 . S
C595 O598 1.238 . S
C595 O599 1.241 . S
C596 O589 1.247 . S
C596 O590 1.261 . S
C597 O592 1.259 . S
C597 O594 1.235 . S
O598 Co588 2.021 . S
O598 C595 1.238 . S
O599 Co593 2.052 . S
O599 C595 1.241 . S
O600 Co588 2.137 . S
O600 C591 1.247 . S
O601 Co588 2.244 . S
O601 C591 1.272 . S
O601 Co593 2.135 . S
Co602 O603 2.216 . S
Co602 O604 2.091 . S
Co602 O606 2.004 . S
Co602 O612 2.021 . S
Co602 O614 2.137 . S
Co602 O615 2.244 . S
O603 Co602 2.216 . S
O603 C610 1.247 . S
O604 Co602 2.091 . S
O604 C610 1.261 . S
C605 O614 1.247 . S
C605 O615 1.272 . S
O606 Co602 2.004 . S
O606 C611 1.259 . S
Co607 O608 2.061 . S
Co607 O613 2.052 . S
Co607 O615 2.135 . S
O608 Co607 2.061 . S
O608 C611 1.235 . S
C609 O612 1.238 . S
C609 O613 1.241 . S
C610 O603 1.247 . S
C610 O604 1.261 . S
C611 O606 1.259 . S
C611 O608 1.235 . S
O612 Co602 2.021 . S
O612 C609 1.238 . S
O613 Co607 2.052 . S
O613 C609 1.241 . S
O614 Co602 2.137 . S
O614 C605 1.247 . S
O615 Co602 2.244 . S
O615 C605 1.272 . S
O615 Co607 2.135 . S
Co616 O617 2.216 . S
Co616 O618 2.091 . S
Co616 O620 2.004 . S
Co616 O626 2.021 . S
Co616 O628 2.137 . S
Co616 O629 2.244 . S
O617 Co616 2.216 . S
O617 C624 1.247 . S
O618 Co616 2.091 . S
O618 C624 1.261 . S
C619 O628 1.247 . S
C619 O629 1.272 . S
O620 Co616 2.004 . S
O620 C625 1.259 . S
Co621 O622 2.061 . S
Co621 O627 2.052 . S
Co621 O629 2.135 . S
O622 Co621 2.061 . S
O622 C625 1.235 . S
C623 O626 1.238 . S
C623 O627 1.241 . S
C624 O617 1.247 . S
C624 O618 1.261 . S
C625 O620 1.259 . S
C625 O622 1.235 . S
O626 Co616 2.021 . S
O626 C623 1.238 . S
O627 Co621 2.052 . S
O627 C623 1.241 . S
O628 Co616 2.137 . S
O628 C619 1.247 . S
O629 Co616 2.244 . S
O629 C619 1.272 . S
O629 Co621 2.135 . S
Co630 O631 2.216 . S
Co630 O632 2.091 . S
Co630 O634 2.004 . S
Co630 O640 2.021 . S
Co630 O642 2.137 . S
Co630 O643 2.244 . S
O631 Co630 2.216 . S
O631 C638 1.247 . S
O632 Co630 2.091 . S
O632 C638 1.261 . S
C633 O642 1.247 . S
C633 O643 1.272 . S
O634 Co630 2.004 . S
O634 C639 1.259 . S
Co635 O636 2.061 . S
Co635 O641 2.052 . S
Co635 O643 2.135 . S
O636 Co635 2.061 . S
O636 C639 1.235 . S
C637 O640 1.238 . S
C637 O641 1.241 . S
C638 O631 1.247 . S
C638 O632 1.261 . S
C639 O634 1.259 . S
C639 O636 1.235 . S
O640 Co630 2.021 . S
O640 C637 1.238 . S
O641 Co635 2.052 . S
O641 C637 1.241 . S
O642 Co630 2.137 . S
O642 C633 1.247 . S
O643 Co630 2.244 . S
O643 C633 1.272 . S
O643 Co635 2.135 . S
Co644 O645 2.216 . S
Co644 O646 2.091 . S
Co644 O648 2.004 . S
Co644 O654 2.021 . S
Co644 O656 2.137 . S
Co644 O657 2.244 . S
O645 Co644 2.216 . S
O645 C652 1.247 . S
O646 Co644 2.091 . S
O646 C652 1.261 . S
C647 O656 1.247 . S
C647 O657 1.272 . S
O648 Co644 2.004 . S
O648 C653 1.259 . S
Co649 O650 2.061 . S
Co649 O655 2.052 . S
Co649 O657 2.135 . S
O650 Co649 2.061 . S
O650 C653 1.235 . S
C651 O654 1.238 . S
C651 O655 1.241 . S
C652 O645 1.247 . S
C652 O646 1.261 . S
C653 O648 1.259 . S
C653 O650 1.235 . S
O654 Co644 2.021 . S
O654 C651 1.238 . S
O655 Co649 2.052 . S
O655 C651 1.241 . S
O656 Co644 2.137 . S
O656 C647 1.247 . S
O657 Co644 2.244 . S
O657 C647 1.272 . S
O657 Co649 2.135 . S
Co658 O659 2.216 . S
Co658 O660 2.091 . S
Co658 O662 2.004 . S
Co658 O668 2.021 . S
Co658 O670 2.137 . S
Co658 O671 2.244 . S
O659 Co658 2.216 . S
O659 C666 1.247 . S
O660 Co658 2.091 . S
O660 C666 1.261 . S
C661 O670 1.247 . S
C661 O671 1.272 . S
O662 Co658 2.004 . S
O662 C667 1.259 . S
Co663 O664 2.061 . S
Co663 O669 2.052 . S
Co663 O671 2.135 . S
O664 Co663 2.061 . S
O664 C667 1.235 . S
C665 O668 1.238 . S
C665 O669 1.241 . S
C666 O659 1.247 . S
C666 O660 1.261 . S
C667 O662 1.259 . S
C667 O664 1.235 . S
O668 Co658 2.021 . S
O668 C665 1.238 . S
O669 Co663 2.052 . S
O669 C665 1.241 . S
O670 Co658 2.137 . S
O670 C661 1.247 . S
O671 Co658 2.244 . S
O671 C661 1.272 . S
O671 Co663 2.135 . S
Co672 O673 2.216 . S
Co672 O674 2.091 . S
Co672 O676 2.004 . S
Co672 O682 2.021 . S
Co672 O684 2.137 . S
Co672 O685 2.244 . S
O673 Co672 2.216 . S
O673 C680 1.247 . S
O674 Co672 2.091 . S
O674 C680 1.261 . S
C675 O684 1.247 . S
C675 O685 1.272 . S
O676 Co672 2.004 . S
O676 C681 1.259 . S
Co677 O678 2.061 . S
Co677 O683 2.052 . S
Co677 O685 2.135 . S
O678 Co677 2.061 . S
O678 C681 1.235 . S
C679 O682 1.238 . S
C679 O683 1.241 . S
C680 O673 1.247 . S
C680 O674 1.261 . S
C681 O676 1.259 . S
C681 O678 1.235 . S
O682 Co672 2.021 . S
O682 C679 1.238 . S
O683 Co677 2.052 . S
O683 C679 1.241 . S
O684 Co672 2.137 . S
O684 C675 1.247 . S
O685 Co672 2.244 . S
O685 C675 1.272 . S
O685 Co677 2.135 . S
Co686 O687 2.216 . S
Co686 O688 2.091 . S
Co686 O690 2.004 . S
Co686 O696 2.021 . S
Co686 O698 2.137 . S
Co686 O699 2.244 . S
O687 Co686 2.216 . S
O687 C694 1.247 . S
O688 Co686 2.091 . S
O688 C694 1.261 . S
C689 O698 1.247 . S
C689 O699 1.272 . S
O690 Co686 2.004 . S
O690 C695 1.259 . S
Co691 O692 2.061 . S
Co691 O697 2.052 . S
Co691 O699 2.135 . S
O692 Co691 2.061 . S
O692 C695 1.235 . S
C693 O696 1.238 . S
C693 O697 1.241 . S
C694 O687 1.247 . S
C694 O688 1.261 . S
C695 O690 1.259 . S
C695 O692 1.235 . S
O696 Co686 2.021 . S
O696 C693 1.238 . S
O697 Co691 2.052 . S
O697 C693 1.241 . S
O698 Co686 2.137 . S
O698 C689 1.247 . S
O699 Co686 2.244 . S
O699 C689 1.272 . S
O699 Co691 2.135 . S
Co700 O701 2.216 . S
Co700 O702 2.091 . S
Co700 O704 2.004 . S
Co700 O710 2.021 . S
Co700 O712 2.137 . S
Co700 O713 2.244 . S
O701 Co700 2.216 . S
O701 C708 1.247 . S
O702 Co700 2.091 . S
O702 C708 1.261 . S
C703 O712 1.247 . S
C703 O713 1.272 . S
O704 Co700 2.004 . S
O704 C709 1.259 . S
Co705 O706 2.061 . S
Co705 O711 2.052 . S
Co705 O713 2.135 . S
O706 Co705 2.061 . S
O706 C709 1.235 . S
C707 O710 1.238 . S
C707 O711 1.241 . S
C708 O701 1.247 . S
C708 O702 1.261 . S
C709 O704 1.259 . S
C709 O706 1.235 . S
O710 Co700 2.021 . S
O710 C707 1.238 . S
O711 Co705 2.052 . S
O711 C707 1.241 . S
O712 Co700 2.137 . S
O712 C703 1.247 . S
O713 Co700 2.244 . S
O713 C703 1.272 . S
O713 Co705 2.135 . S
Co714 O715 2.216 . S
Co714 O716 2.091 . S
Co714 O718 2.004 . S
Co714 O724 2.021 . S
Co714 O726 2.137 . S
Co714 O727 2.244 . S
O715 Co714 2.216 . S
O715 C722 1.247 . S
O716 Co714 2.091 . S
O716 C722 1.261 . S
C717 O726 1.247 . S
C717 O727 1.272 . S
O718 Co714 2.004 . S
O718 C723 1.259 . S
Co719 O720 2.061 . S
Co719 O725 2.052 . S
Co719 O727 2.135 . S
O720 Co719 2.061 . S
O720 C723 1.235 . S
C721 O724 1.238 . S
C721 O725 1.241 . S
C722 O715 1.247 . S
C722 O716 1.261 . S
C723 O718 1.259 . S
C723 O720 1.235 . S
O724 Co714 2.021 . S
O724 C721 1.238 . S
O725 Co719 2.052 . S
O725 C721 1.241 . S
O726 Co714 2.137 . S
O726 C717 1.247 . S
O727 Co714 2.244 . S
O727 C717 1.272 . S
O727 Co719 2.135 . S
Co728 O729 2.216 . S
Co728 O730 2.091 . S
Co728 O732 2.004 . S
Co728 O738 2.021 . S
Co728 O740 2.137 . S
Co728 O741 2.244 . S
O729 Co728 2.216 . S
O729 C736 1.247 . S
O730 Co728 2.091 . S
O730 C736 1.261 . S
C731 O740 1.247 . S
C731 O741 1.272 . S
O732 Co728 2.004 . S
O732 C737 1.259 . S
Co733 O734 2.061 . S
Co733 O739 2.052 . S
Co733 O741 2.135 . S
O734 Co733 2.061 . S
O734 C737 1.235 . S
C735 O738 1.238 . S
C735 O739 1.241 . S
C736 O729 1.247 . S
C736 O730 1.261 . S
C737 O732 1.259 . S
C737 O734 1.235 . S
O738 Co728 2.021 . S
O738 C735 1.238 . S
O739 Co733 2.052 . S
O739 C735 1.241 . S
O740 Co728 2.137 . S
O740 C731 1.247 . S
O741 Co728 2.244 . S
O741 C731 1.272 . S
O741 Co733 2.135 . S
Co742 O743 2.216 . S
Co742 O744 2.091 . S
Co742 O746 2.004 . S
Co742 O752 2.021 . S
Co742 O754 2.137 . S
Co742 O755 2.244 . S
O743 Co742 2.216 . S
O743 C750 1.247 . S
O744 Co742 2.091 . S
O744 C750 1.261 . S
C745 O754 1.247 . S
C745 O755 1.272 . S
O746 Co742 2.004 . S
O746 C751 1.259 . S
Co747 O748 2.061 . S
Co747 O753 2.052 . S
Co747 O755 2.135 . S
O748 Co747 2.061 . S
O748 C751 1.235 . S
C749 O752 1.238 . S
C749 O753 1.241 . S
C750 O743 1.247 . S
C750 O744 1.261 . S
C751 O746 1.259 . S
C751 O748 1.235 . S
O752 Co742 2.021 . S
O752 C749 1.238 . S
O753 Co747 2.052 . S
O753 C749 1.241 . S
O754 Co742 2.137 . S
O754 C745 1.247 . S
O755 Co742 2.244 . S
O755 C745 1.272 . S
O755 Co747 2.135 . S
Co756 O757 2.216 . S
Co756 O758 2.091 . S
Co756 O760 2.004 . S
Co756 O766 2.021 . S
Co756 O768 2.137 . S
Co756 O769 2.244 . S
O757 Co756 2.216 . S
O757 C764 1.247 . S
O758 Co756 2.091 . S
O758 C764 1.261 . S
C759 O768 1.247 . S
C759 O769 1.272 . S
O760 Co756 2.004 . S
O760 C765 1.259 . S
Co761 O762 2.061 . S
Co761 O767 2.052 . S
Co761 O769 2.135 . S
O762 Co761 2.061 . S
O762 C765 1.235 . S
C763 O766 1.238 . S
C763 O767 1.241 . S
C764 O757 1.247 . S
C764 O758 1.261 . S
C765 O760 1.259 . S
C765 O762 1.235 . S
O766 Co756 2.021 . S
O766 C763 1.238 . S
O767 Co761 2.052 . S
O767 C763 1.241 . S
O768 Co756 2.137 . S
O768 C759 1.247 . S
O769 Co756 2.244 . S
O769 C759 1.272 . S
O769 Co761 2.135 . S
Co770 O771 2.216 . S
Co770 O772 2.091 . S
Co770 O774 2.004 . S
Co770 O780 2.021 . S
Co770 O782 2.137 . S
Co770 O783 2.244 . S
O771 Co770 2.216 . S
O771 C778 1.247 . S
O772 Co770 2.091 . S
O772 C778 1.261 . S
C773 O782 1.247 . S
C773 O783 1.272 . S
O774 Co770 2.004 . S
O774 C779 1.259 . S
Co775 O776 2.061 . S
Co775 O781 2.052 . S
Co775 O783 2.135 . S
O776 Co775 2.061 . S
O776 C779 1.235 . S
C777 O780 1.238 . S
C777 O781 1.241 . S
C778 O771 1.247 . S
C778 O772 1.261 . S
C779 O774 1.259 . S
C779 O776 1.235 . S
O780 Co770 2.021 . S
O780 C777 1.238 . S
O781 Co775 2.052 . S
O781 C777 1.241 . S
O782 Co770 2.137 . S
O782 C773 1.247 . S
O783 Co770 2.244 . S
O783 C773 1.272 . S
O783 Co775 2.135 . S
Co784 O785 2.216 . S
Co784 O786 2.091 . S
Co784 O788 2.004 . S
Co784 O794 2.021 . S
Co784 O796 2.137 . S
Co784 O797 2.244 . S
O785 Co784 2.216 . S
O785 C792 1.247 . S
O786 Co784 2.091 . S
O786 C792 1.261 . S
C787 O796 1.247 . S
C787 O797 1.272 . S
O788 Co784 2.004 . S
O788 C793 1.259 . S
Co789 O790 2.061 . S
Co789 O795 2.052 . S
Co789 O797 2.135 . S
O790 Co789 2.061 . S
O790 C793 1.235 . S
C791 O794 1.238 . S
C791 O795 1.241 . S
C792 O785 1.247 . S
C792 O786 1.261 . S
C793 O788 1.259 . S
C793 O790 1.235 . S
O794 Co784 2.021 . S
O794 C791 1.238 . S
O795 Co789 2.052 . S
O795 C791 1.241 . S
O796 Co784 2.137 . S
O796 C787 1.247 . S
O797 Co784 2.244 . S
O797 C787 1.272 . S
O797 Co789 2.135 . S
Co798 O799 2.216 . S
Co798 O800 2.091 . S
Co798 O802 2.004 . S
Co798 O808 2.021 . S
Co798 O810 2.137 . S
Co798 O811 2.244 . S
O799 Co798 2.216 . S
O799 C806 1.247 . S
O800 Co798 2.091 . S
O800 C806 1.261 . S
C801 O810 1.247 . S
C801 O811 1.272 . S
O802 Co798 2.004 . S
O802 C807 1.259 . S
Co803 O804 2.061 . S
Co803 O809 2.052 . S
Co803 O811 2.135 . S
O804 Co803 2.061 . S
O804 C807 1.235 . S
C805 O808 1.238 . S
C805 O809 1.241 . S
C806 O799 1.247 . S
C806 O800 1.261 . S
C807 O802 1.259 . S
C807 O804 1.235 . S
O808 Co798 2.021 . S
O808 C805 1.238 . S
O809 Co803 2.052 . S
O809 C805 1.241 . S
O810 Co798 2.137 . S
O810 C801 1.247 . S
O811 Co798 2.244 . S
O811 C801 1.272 . S
O811 Co803 2.135 . S
Co812 O813 2.216 . S
Co812 O814 2.091 . S
Co812 O816 2.004 . S
Co812 O822 2.021 . S
Co812 O824 2.137 . S
Co812 O825 2.244 . S
O813 Co812 2.216 . S
O813 C820 1.247 . S
O814 Co812 2.091 . S
O814 C820 1.261 . S
C815 O824 1.247 . S
C815 O825 1.272 . S
O816 Co812 2.004 . S
O816 C821 1.259 . S
Co817 O818 2.061 . S
Co817 O823 2.052 . S
Co817 O825 2.135 . S
O818 Co817 2.061 . S
O818 C821 1.235 . S
C819 O822 1.238 . S
C819 O823 1.241 . S
C820 O813 1.247 . S
C820 O814 1.261 . S
C821 O816 1.259 . S
C821 O818 1.235 . S
O822 Co812 2.021 . S
O822 C819 1.238 . S
O823 Co817 2.052 . S
O823 C819 1.241 . S
O824 Co812 2.137 . S
O824 C815 1.247 . S
O825 Co812 2.244 . S
O825 C815 1.272 . S
O825 Co817 2.135 . S
Co826 O827 2.216 . S
Co826 O828 2.091 . S
Co826 O830 2.004 . S
Co826 O836 2.021 . S
Co826 O838 2.137 . S
Co826 O839 2.244 . S
O827 Co826 2.216 . S
O827 C834 1.247 . S
O828 Co826 2.091 . S
O828 C834 1.261 . S
C829 O838 1.247 . S
C829 O839 1.272 . S
O830 Co826 2.004 . S
O830 C835 1.259 . S
Co831 O832 2.061 . S
Co831 O837 2.052 . S
Co831 O839 2.135 . S
O832 Co831 2.061 . S
O832 C835 1.235 . S
C833 O836 1.238 . S
C833 O837 1.241 . S
C834 O827 1.247 . S
C834 O828 1.261 . S
C835 O830 1.259 . S
C835 O832 1.235 . S
O836 Co826 2.021 . S
O836 C833 1.238 . S
O837 Co831 2.052 . S
O837 C833 1.241 . S
O838 Co826 2.137 . S
O838 C829 1.247 . S
O839 Co826 2.244 . S
O839 C829 1.272 . S
O839 Co831 2.135 . S
Co840 O841 2.216 . S
Co840 O842 2.091 . S
Co840 O844 2.004 . S
Co840 O850 2.021 . S
Co840 O852 2.137 . S
Co840 O853 2.244 . S
O841 Co840 2.216 . S
O841 C848 1.247 . S
O842 Co840 2.091 . S
O842 C848 1.261 . S
C843 O852 1.247 . S
C843 O853 1.272 . S
O844 Co840 2.004 . S
O844 C849 1.259 . S
Co845 O846 2.061 . S
Co845 O851 2.052 . S
Co845 O853 2.135 . S
O846 Co845 2.061 . S
O846 C849 1.235 . S
C847 O850 1.238 . S
C847 O851 1.241 . S
C848 O841 1.247 . S
C848 O842 1.261 . S
C849 O844 1.259 . S
C849 O846 1.235 . S
O850 Co840 2.021 . S
O850 C847 1.238 . S
O851 Co845 2.052 . S
O851 C847 1.241 . S
O852 Co840 2.137 . S
O852 C843 1.247 . S
O853 Co840 2.244 . S
O853 C843 1.272 . S
O853 Co845 2.135 . S
Co854 O855 2.216 . S
Co854 O856 2.091 . S
Co854 O858 2.004 . S
Co854 O864 2.021 . S
Co854 O866 2.137 . S
Co854 O867 2.244 . S
O855 Co854 2.216 . S
O855 C862 1.247 . S
O856 Co854 2.091 . S
O856 C862 1.261 . S
C857 O866 1.247 . S
C857 O867 1.272 . S
O858 Co854 2.004 . S
O858 C863 1.259 . S
Co859 O860 2.061 . S
Co859 O865 2.052 . S
Co859 O867 2.135 . S
O860 Co859 2.061 . S
O860 C863 1.235 . S
C861 O864 1.238 . S
C861 O865 1.241 . S
C862 O855 1.247 . S
C862 O856 1.261 . S
C863 O858 1.259 . S
C863 O860 1.235 . S
O864 Co854 2.021 . S
O864 C861 1.238 . S
O865 Co859 2.052 . S
O865 C861 1.241 . S
O866 Co854 2.137 . S
O866 C857 1.247 . S
O867 Co854 2.244 . S
O867 C857 1.272 . S
O867 Co859 2.135 . S
Co868 O869 2.216 . S
Co868 O870 2.091 . S
Co868 O872 2.004 . S
Co868 O878 2.021 . S
Co868 O880 2.137 . S
Co868 O881 2.244 . S
O869 Co868 2.216 . S
O869 C876 1.247 . S
O870 Co868 2.091 . S
O870 C876 1.261 . S
C871 O880 1.247 . S
C871 O881 1.272 . S
O872 Co868 2.004 . S
O872 C877 1.259 . S
Co873 O874 2.061 . S
Co873 O879 2.052 . S
Co873 O881 2.135 . S
O874 Co873 2.061 . S
O874 C877 1.235 . S
C875 O878 1.238 . S
C875 O879 1.241 . S
C876 O869 1.247 . S
C876 O870 1.261 . S
C877 O872 1.259 . S
C877 O874 1.235 . S
O878 Co868 2.021 . S
O878 C875 1.238 . S
O879 Co873 2.052 . S
O879 C875 1.241 . S
O880 Co868 2.137 . S
O880 C871 1.247 . S
O881 Co868 2.244 . S
O881 C871 1.272 . S
O881 Co873 2.135 . S
Co882 O883 2.216 . S
Co882 O884 2.091 . S
Co882 O886 2.004 . S
Co882 O892 2.021 . S
Co882 O894 2.137 . S
Co882 O895 2.244 . S
O883 Co882 2.216 . S
O883 C890 1.247 . S
O884 Co882 2.091 . S
O884 C890 1.261 . S
C885 O894 1.247 . S
C885 O895 1.272 . S
O886 Co882 2.004 . S
O886 C891 1.259 . S
Co887 O888 2.061 . S
Co887 O893 2.052 . S
Co887 O895 2.135 . S
O888 Co887 2.061 . S
O888 C891 1.235 . S
C889 O892 1.238 . S
C889 O893 1.241 . S
C890 O883 1.247 . S
C890 O884 1.261 . S
C891 O886 1.259 . S
C891 O888 1.235 . S
O892 Co882 2.021 . S
O892 C889 1.238 . S
O893 Co887 2.052 . S
O893 C889 1.241 . S
O894 Co882 2.137 . S
O894 C885 1.247 . S
O895 Co882 2.244 . S
O895 C885 1.272 . S
O895 Co887 2.135 . S
Co896 O897 2.216 . S
Co896 O898 2.091 . S
Co896 O900 2.004 . S
Co896 O906 2.021 . S
Co896 O908 2.137 . S
Co896 O909 2.244 . S
O897 Co896 2.216 . S
O897 C904 1.247 . S
O898 Co896 2.091 . S
O898 C904 1.261 . S
C899 O908 1.247 . S
C899 O909 1.272 . S
O900 Co896 2.004 . S
O900 C905 1.259 . S
Co901 O902 2.061 . S
Co901 O907 2.052 . S
Co901 O909 2.135 . S
O902 Co901 2.061 . S
O902 C905 1.235 . S
C903 O906 1.238 . S
C903 O907 1.241 . S
C904 O897 1.247 . S
C904 O898 1.261 . S
C905 O900 1.259 . S
C905 O902 1.235 . S
O906 Co896 2.021 . S
O906 C903 1.238 . S
O907 Co901 2.052 . S
O907 C903 1.241 . S
O908 Co896 2.137 . S
O908 C899 1.247 . S
O909 Co896 2.244 . S
O909 C899 1.272 . S
O909 Co901 2.135 . S
Co910 O911 2.216 . S
Co910 O912 2.091 . S
Co910 O914 2.004 . S
Co910 O920 2.021 . S
Co910 O922 2.137 . S
Co910 O923 2.244 . S
O911 Co910 2.216 . S
O911 C918 1.247 . S
O912 Co910 2.091 . S
O912 C918 1.261 . S
C913 O922 1.247 . S
C913 O923 1.272 . S
O914 Co910 2.004 . S
O914 C919 1.259 . S
Co915 O916 2.061 . S
Co915 O921 2.052 . S
Co915 O923 2.135 . S
O916 Co915 2.061 . S
O916 C919 1.235 . S
C917 O920 1.238 . S
C917 O921 1.241 . S
C918 O911 1.247 . S
C918 O912 1.261 . S
C919 O914 1.259 . S
C919 O916 1.235 . S
O920 Co910 2.021 . S
O920 C917 1.238 . S
O921 Co915 2.052 . S
O921 C917 1.241 . S
O922 Co910 2.137 . S
O922 C913 1.247 . S
O923 Co910 2.244 . S
O923 C913 1.272 . S
O923 Co915 2.135 . S
Co924 O925 2.216 . S
Co924 O926 2.091 . S
Co924 O928 2.004 . S
Co924 O934 2.021 . S
Co924 O936 2.137 . S
Co924 O937 2.244 . S
O925 Co924 2.216 . S
O925 C932 1.247 . S
O926 Co924 2.091 . S
O926 C932 1.261 . S
C927 O936 1.247 . S
C927 O937 1.272 . S
O928 Co924 2.004 . S
O928 C933 1.259 . S
Co929 O930 2.061 . S
Co929 O935 2.052 . S
Co929 O937 2.135 . S
O930 Co929 2.061 . S
O930 C933 1.235 . S
C931 O934 1.238 . S
C931 O935 1.241 . S
C932 O925 1.247 . S
C932 O926 1.261 . S
C933 O928 1.259 . S
C933 O930 1.235 . S
O934 Co924 2.021 . S
O934 C931 1.238 . S
O935 Co929 2.052 . S
O935 C931 1.241 . S
O936 Co924 2.137 . S
O936 C927 1.247 . S
O937 Co924 2.244 . S
O937 C927 1.272 . S
O937 Co929 2.135 . S
Co938 O939 2.216 . S
Co938 O940 2.091 . S
Co938 O942 2.004 . S
Co938 O948 2.021 . S
Co938 O950 2.137 . S
Co938 O951 2.244 . S
O939 Co938 2.216 . S
O939 C946 1.247 . S
O940 Co938 2.091 . S
O940 C946 1.261 . S
C941 O950 1.247 . S
C941 O951 1.272 . S
O942 Co938 2.004 . S
O942 C947 1.259 . S
Co943 O944 2.061 . S
Co943 O949 2.052 . S
Co943 O951 2.135 . S
O944 Co943 2.061 . S
O944 C947 1.235 . S
C945 O948 1.238 . S
C945 O949 1.241 . S
C946 O939 1.247 . S
C946 O940 1.261 . S
C947 O942 1.259 . S
C947 O944 1.235 . S
O948 Co938 2.021 . S
O948 C945 1.238 . S
O949 Co943 2.052 . S
O949 C945 1.241 . S
O950 Co938 2.137 . S
O950 C941 1.247 . S
O951 Co938 2.244 . S
O951 C941 1.272 . S
O951 Co943 2.135 . S
Co952 O953 2.216 . S
Co952 O954 2.091 . S
Co952 O956 2.004 . S
Co952 O962 2.021 . S
Co952 O964 2.137 . S
Co952 O965 2.244 . S
O953 Co952 2.216 . S
O953 C960 1.247 . S
O954 Co952 2.091 . S
O954 C960 1.261 . S
C955 O964 1.247 . S
C955 O965 1.272 . S
O956 Co952 2.004 . S
O956 C961 1.259 . S
Co957 O958 2.061 . S
Co957 O963 2.052 . S
Co957 O965 2.135 . S
O958 Co957 2.061 . S
O958 C961 1.235 . S
C959 O962 1.238 . S
C959 O963 1.241 . S
C960 O953 1.247 . S
C960 O954 1.261 . S
C961 O956 1.259 . S
C961 O958 1.235 . S
O962 Co952 2.021 . S
O962 C959 1.238 . S
O963 Co957 2.052 . S
O963 C959 1.241 . S
O964 Co952 2.137 . S
O964 C955 1.247 . S
O965 Co952 2.244 . S
O965 C955 1.272 . S
O965 Co957 2.135 . S
Co966 O967 2.216 . S
Co966 O968 2.091 . S
Co966 O970 2.004 . S
Co966 O976 2.021 . S
Co966 O978 2.137 . S
Co966 O979 2.244 . S
O967 Co966 2.216 . S
O967 C974 1.247 . S
O968 Co966 2.091 . S
O968 C974 1.261 . S
C969 O978 1.247 . S
C969 O979 1.272 . S
O970 Co966 2.004 . S
O970 C975 1.259 . S
Co971 O972 2.061 . S
Co971 O977 2.052 . S
Co971 O979 2.135 . S
O972 Co971 2.061 . S
O972 C975 1.235 . S
C973 O976 1.238 . S
C973 O977 1.241 . S
C974 O967 1.247 . S
C974 O968 1.261 . S
C975 O970 1.259 . S
C975 O972 1.235 . S
O976 Co966 2.021 . S
O976 C973 1.238 . S
O977 Co971 2.052 . S
O977 C973 1.241 . S
O978 Co966 2.137 . S
O978 C969 1.247 . S
O979 Co966 2.244 . S
O979 C969 1.272 . S
O979 Co971 2.135 . S
Co980 O981 2.216 . S
Co980 O982 2.091 . S
Co980 O984 2.004 . S
Co980 O990 2.021 . S
Co980 O992 2.137 . S
Co980 O993 2.244 . S
O981 Co980 2.216 . S
O981 C988 1.247 . S
O982 Co980 2.091 . S
O982 C988 1.261 . S
C983 O992 1.247 . S
C983 O993 1.272 . S
O984 Co980 2.004 . S
O984 C989 1.259 . S
Co985 O986 2.061 . S
Co985 O991 2.052 . S
Co985 O993 2.135 . S
O986 Co985 2.061 . S
O986 C989 1.235 . S
C987 O990 1.238 . S
C987 O991 1.241 . S
C988 O981 1.247 . S
C988 O982 1.261 . S
C989 O984 1.259 . S
C989 O986 1.235 . S
O990 Co980 2.021 . S
O990 C987 1.238 . S
O991 Co985 2.052 . S
O991 C987 1.241 . S
O992 Co980 2.137 . S
O992 C983 1.247 . S
O993 Co980 2.244 . S
O993 C983 1.272 . S
O993 Co985 2.135 . S
Co994 O995 2.216 . S
Co994 O996 2.091 . S
Co994 O998 2.004 . S
Co994 O1004 2.021 . S
Co994 O1006 2.137 . S
Co994 O1007 2.244 . S
O995 Co994 2.216 . S
O995 C1002 1.247 . S
O996 Co994 2.091 . S
O996 C1002 1.261 . S
C997 O1006 1.247 . S
C997 O1007 1.272 . S
O998 Co994 2.004 . S
O998 C1003 1.259 . S
Co999 O1000 2.061 . S
Co999 O1005 2.052 . S
Co999 O1007 2.135 . S
O1000 Co999 2.061 . S
O1000 C1003 1.235 . S
C1001 O1004 1.238 . S
C1001 O1005 1.241 . S
C1002 O995 1.247 . S
C1002 O996 1.261 . S
C1003 O998 1.259 . S
C1003 O1000 1.235 . S
O1004 Co994 2.021 . S
O1004 C1001 1.238 . S
O1005 Co999 2.052 . S
O1005 C1001 1.241 . S
O1006 Co994 2.137 . S
O1006 C997 1.247 . S
O1007 Co994 2.244 . S
O1007 C997 1.272 . S
O1007 Co999 2.135 . S
Co1008 O1009 2.216 . S
Co1008 O1010 2.091 . S
Co1008 O1012 2.004 . S
Co1008 O1018 2.021 . S
Co1008 O1020 2.137 . S
Co1008 O1021 2.244 . S
O1009 Co1008 2.216 . S
O1009 C1016 1.247 . S
O1010 Co1008 2.091 . S
O1010 C1016 1.261 . S
C1011 O1020 1.247 . S
C1011 O1021 1.272 . S
O1012 Co1008 2.004 . S
O1012 C1017 1.259 . S
Co1013 O1014 2.061 . S
Co1013 O1019 2.052 . S
Co1013 O1021 2.135 . S
O1014 Co1013 2.061 . S
O1014 C1017 1.235 . S
C1015 O1018 1.238 . S
C1015 O1019 1.241 . S
C1016 O1009 1.247 . S
C1016 O1010 1.261 . S
C1017 O1012 1.259 . S
C1017 O1014 1.235 . S
O1018 Co1008 2.021 . S
O1018 C1015 1.238 . S
O1019 Co1013 2.052 . S
O1019 C1015 1.241 . S
O1020 Co1008 2.137 . S
O1020 C1011 1.247 . S
O1021 Co1008 2.244 . S
O1021 C1011 1.272 . S
O1021 Co1013 2.135 . S
Co1022 O1023 2.216 . S
Co1022 O1024 2.091 . S
Co1022 O1026 2.004 . S
Co1022 O1032 2.021 . S
Co1022 O1034 2.137 . S
Co1022 O1035 2.244 . S
O1023 Co1022 2.216 . S
O1023 C1030 1.247 . S
O1024 Co1022 2.091 . S
O1024 C1030 1.261 . S
C1025 O1034 1.247 . S
C1025 O1035 1.272 . S
O1026 Co1022 2.004 . S
O1026 C1031 1.259 . S
Co1027 O1028 2.061 . S
Co1027 O1033 2.052 . S
Co1027 O1035 2.135 . S
O1028 Co1027 2.061 . S
O1028 C1031 1.235 . S
C1029 O1032 1.238 . S
C1029 O1033 1.241 . S
C1030 O1023 1.247 . S
C1030 O1024 1.261 . S
C1031 O1026 1.259 . S
C1031 O1028 1.235 . S
O1032 Co1022 2.021 . S
O1032 C1029 1.238 . S
O1033 Co1027 2.052 . S
O1033 C1029 1.241 . S
O1034 Co1022 2.137 . S
O1034 C1025 1.247 . S
O1035 Co1022 2.244 . S
O1035 C1025 1.272 . S
O1035 Co1027 2.135 . S
Co1036 O1037 2.216 . S
Co1036 O1038 2.091 . S
Co1036 O1040 2.004 . S
Co1036 O1046 2.021 . S
Co1036 O1048 2.137 . S
Co1036 O1049 2.244 . S
O1037 Co1036 2.216 . S
O1037 C1044 1.247 . S
O1038 Co1036 2.091 . S
O1038 C1044 1.261 . S
C1039 O1048 1.247 . S
C1039 O1049 1.272 . S
O1040 Co1036 2.004 . S
O1040 C1045 1.259 . S
Co1041 O1042 2.061 . S
Co1041 O1047 2.052 . S
Co1041 O1049 2.135 . S
O1042 Co1041 2.061 . S
O1042 C1045 1.235 . S
C1043 O1046 1.238 . S
C1043 O1047 1.241 . S
C1044 O1037 1.247 . S
C1044 O1038 1.261 . S
C1045 O1040 1.259 . S
C1045 O1042 1.235 . S
O1046 Co1036 2.021 . S
O1046 C1043 1.238 . S
O1047 Co1041 2.052 . S
O1047 C1043 1.241 . S
O1048 Co1036 2.137 . S
O1048 C1039 1.247 . S
O1049 Co1036 2.244 . S
O1049 C1039 1.272 . S
O1049 Co1041 2.135 . S
Co1050 O1051 2.216 . S
Co1050 O1052 2.091 . S
Co1050 O1054 2.004 . S
Co1050 O1060 2.021 . S
Co1050 O1062 2.137 . S
Co1050 O1063 2.244 . S
O1051 Co1050 2.216 . S
O1051 C1058 1.247 . S
O1052 Co1050 2.091 . S
O1052 C1058 1.261 . S
C1053 O1062 1.247 . S
C1053 O1063 1.272 . S
O1054 Co1050 2.004 . S
O1054 C1059 1.259 . S
Co1055 O1056 2.061 . S
Co1055 O1061 2.052 . S
Co1055 O1063 2.135 . S
O1056 Co1055 2.061 . S
O1056 C1059 1.235 . S
C1057 O1060 1.238 . S
C1057 O1061 1.241 . S
C1058 O1051 1.247 . S
C1058 O1052 1.261 . S
C1059 O1054 1.259 . S
C1059 O1056 1.235 . S
O1060 Co1050 2.021 . S
O1060 C1057 1.238 . S
O1061 Co1055 2.052 . S
O1061 C1057 1.241 . S
O1062 Co1050 2.137 . S
O1062 C1053 1.247 . S
O1063 Co1050 2.244 . S
O1063 C1053 1.272 . S
O1063 Co1055 2.135 . S
Co1064 O1065 2.216 . S
Co1064 O1066 2.091 . S
Co1064 O1068 2.004 . S
Co1064 O1074 2.021 . S
Co1064 O1076 2.137 . S
Co1064 O1077 2.244 . S
O1065 Co1064 2.216 . S
O1065 C1072 1.247 . S
O1066 Co1064 2.091 . S
O1066 C1072 1.261 . S
C1067 O1076 1.247 . S
C1067 O1077 1.272 . S
O1068 Co1064 2.004 . S
O1068 C1073 1.259 . S
Co1069 O1070 2.061 . S
Co1069 O1075 2.052 . S
Co1069 O1077 2.135 . S
O1070 Co1069 2.061 . S
O1070 C1073 1.235 . S
C1071 O1074 1.238 . S
C1071 O1075 1.241 . S
C1072 O1065 1.247 . S
C1072 O1066 1.261 . S
C1073 O1068 1.259 . S
C1073 O1070 1.235 . S
O1074 Co1064 2.021 . S
O1074 C1071 1.238 . S
O1075 Co1069 2.052 . S
O1075 C1071 1.241 . S
O1076 Co1064 2.137 . S
O1076 C1067 1.247 . S
O1077 Co1064 2.244 . S
O1077 C1067 1.272 . S
O1077 Co1069 2.135 . S
Co1078 O1079 2.216 . S
Co1078 O1080 2.091 . S
Co1078 O1082 2.004 . S
Co1078 O1088 2.021 . S
Co1078 O1090 2.137 . S
Co1078 O1091 2.244 . S
O1079 Co1078 2.216 . S
O1079 C1086 1.247 . S
O1080 Co1078 2.091 . S
O1080 C1086 1.261 . S
C1081 O1090 1.247 . S
C1081 O1091 1.272 . S
O1082 Co1078 2.004 . S
O1082 C1087 1.259 . S
Co1083 O1084 2.061 . S
Co1083 O1089 2.052 . S
Co1083 O1091 2.135 . S
O1084 Co1083 2.061 . S
O1084 C1087 1.235 . S
C1085 O1088 1.238 . S
C1085 O1089 1.241 . S
C1086 O1079 1.247 . S
C1086 O1080 1.261 . S
C1087 O1082 1.259 . S
C1087 O1084 1.235 . S
O1088 Co1078 2.021 . S
O1088 C1085 1.238 . S
O1089 Co1083 2.052 . S
O1089 C1085 1.241 . S
O1090 Co1078 2.137 . S
O1090 C1081 1.247 . S
O1091 Co1078 2.244 . S
O1091 C1081 1.272 . S
O1091 Co1083 2.135 . S
Co1092 O1093 2.216 . S
Co1092 O1094 2.091 . S
Co1092 O1096 2.004 . S
Co1092 O1102 2.021 . S
Co1092 O1104 2.137 . S
Co1092 O1105 2.244 . S
O1093 Co1092 2.216 . S
O1093 C1100 1.247 . S
O1094 Co1092 2.091 . S
O1094 C1100 1.261 . S
C1095 O1104 1.247 . S
C1095 O1105 1.272 . S
O1096 Co1092 2.004 . S
O1096 C1101 1.259 . S
Co1097 O1098 2.061 . S
Co1097 O1103 2.052 . S
Co1097 O1105 2.135 . S
O1098 Co1097 2.061 . S
O1098 C1101 1.235 . S
C1099 O1102 1.238 . S
C1099 O1103 1.241 . S
C1100 O1093 1.247 . S
C1100 O1094 1.261 . S
C1101 O1096 1.259 . S
C1101 O1098 1.235 . S
O1102 Co1092 2.021 . S
O1102 C1099 1.238 . S
O1103 Co1097 2.052 . S
O1103 C1099 1.241 . S
O1104 Co1092 2.137 . S
O1104 C1095 1.247 . S
O1105 Co1092 2.244 . S
O1105 C1095 1.272 . S
O1105 Co1097 2.135 . S
Co1106 O1107 2.216 . S
Co1106 O1108 2.091 . S
Co1106 O1110 2.004 . S
Co1106 O1116 2.021 . S
Co1106 O1118 2.137 . S
Co1106 O1119 2.244 . S
O1107 Co1106 2.216 . S
O1107 C1114 1.247 . S
O1108 Co1106 2.091 . S
O1108 C1114 1.261 . S
C1109 O1118 1.247 . S
C1109 O1119 1.272 . S
O1110 Co1106 2.004 . S
O1110 C1115 1.259 . S
Co1111 O1112 2.061 . S
Co1111 O1117 2.052 . S
Co1111 O1119 2.135 . S
O1112 Co1111 2.061 . S
O1112 C1115 1.235 . S
C1113 O1116 1.238 . S
C1113 O1117 1.241 . S
C1114 O1107 1.247 . S
C1114 O1108 1.261 . S
C1115 O1110 1.259 . S
C1115 O1112 1.235 . S
O1116 Co1106 2.021 . S
O1116 C1113 1.238 . S
O1117 Co1111 2.052 . S
O1117 C1113 1.241 . S
O1118 Co1106 2.137 . S
O1118 C1109 1.247 . S
O1119 Co1106 2.244 . S
O1119 C1109 1.272 . S
O1119 Co1111 2.135 . S
Co1120 O1121 2.216 . S
Co1120 O1122 2.091 . S
Co1120 O1124 2.004 . S
Co1120 O1130 2.021 . S
Co1120 O1132 2.137 . S
Co1120 O1133 2.244 . S
O1121 Co1120 2.216 . S
O1121 C1128 1.247 . S
O1122 Co1120 2.091 . S
O1122 C1128 1.261 . S
C1123 O1132 1.247 . S
C1123 O1133 1.272 . S
O1124 Co1120 2.004 . S
O1124 C1129 1.259 . S
Co1125 O1126 2.061 . S
Co1125 O1131 2.052 . S
Co1125 O1133 2.135 . S
O1126 Co1125 2.061 . S
O1126 C1129 1.235 . S
C1127 O1130 1.238 . S
C1127 O1131 1.241 . S
C1128 O1121 1.247 . S
C1128 O1122 1.261 . S
C1129 O1124 1.259 . S
C1129 O1126 1.235 . S
O1130 Co1120 2.021 . S
O1130 C1127 1.238 . S
O1131 Co1125 2.052 . S
O1131 C1127 1.241 . S
O1132 Co1120 2.137 . S
O1132 C1123 1.247 . S
O1133 Co1120 2.244 . S
O1133 C1123 1.272 . S
O1133 Co1125 2.135 . S
Co1134 O1135 2.216 . S
Co1134 O1136 2.091 . S
Co1134 O1138 2.004 . S
Co1134 O1144 2.021 . S
Co1134 O1146 2.137 . S
Co1134 O1147 2.244 . S
O1135 Co1134 2.216 . S
O1135 C1142 1.247 . S
O1136 Co1134 2.091 . S
O1136 C1142 1.261 . S
C1137 O1146 1.247 . S
C1137 O1147 1.272 . S
O1138 Co1134 2.004 . S
O1138 C1143 1.259 . S
Co1139 O1140 2.061 . S
Co1139 O1145 2.052 . S
Co1139 O1147 2.135 . S
O1140 Co1139 2.061 . S
O1140 C1143 1.235 . S
C1141 O1144 1.238 . S
C1141 O1145 1.241 . S
C1142 O1135 1.247 . S
C1142 O1136 1.261 . S
C1143 O1138 1.259 . S
C1143 O1140 1.235 . S
O1144 Co1134 2.021 . S
O1144 C1141 1.238 . S
O1145 Co1139 2.052 . S
O1145 C1141 1.241 . S
O1146 Co1134 2.137 . S
O1146 C1137 1.247 . S
O1147 Co1134 2.244 . S
O1147 C1137 1.272 . S
O1147 Co1139 2.135 . S
Co1148 O1149 2.216 . S
Co1148 O1150 2.091 . S
Co1148 O1152 2.004 . S
Co1148 O1158 2.021 . S
Co1148 O1160 2.137 . S
Co1148 O1161 2.244 . S
O1149 Co1148 2.216 . S
O1149 C1156 1.247 . S
O1150 Co1148 2.091 . S
O1150 C1156 1.261 . S
C1151 O1160 1.247 . S
C1151 O1161 1.272 . S
O1152 Co1148 2.004 . S
O1152 C1157 1.259 . S
Co1153 O1154 2.061 . S
Co1153 O1159 2.052 . S
Co1153 O1161 2.135 . S
O1154 Co1153 2.061 . S
O1154 C1157 1.235 . S
C1155 O1158 1.238 . S
C1155 O1159 1.241 . S
C1156 O1149 1.247 . S
C1156 O1150 1.261 . S
C1157 O1152 1.259 . S
C1157 O1154 1.235 . S
O1158 Co1148 2.021 . S
O1158 C1155 1.238 . S
O1159 Co1153 2.052 . S
O1159 C1155 1.241 . S
O1160 Co1148 2.137 . S
O1160 C1151 1.247 . S
O1161 Co1148 2.244 . S
O1161 C1151 1.272 . S
O1161 Co1153 2.135 . S
Co1162 O1163 2.216 . S
Co1162 O1164 2.091 . S
Co1162 O1166 2.004 . S
Co1162 O1172 2.021 . S
Co1162 O1174 2.137 . S
Co1162 O1175 2.244 . S
O1163 Co1162 2.216 . S
O1163 C1170 1.247 . S
O1164 Co1162 2.091 . S
O1164 C1170 1.261 . S
C1165 O1174 1.247 . S
C1165 O1175 1.272 . S
O1166 Co1162 2.004 . S
O1166 C1171 1.259 . S
Co1167 O1168 2.061 . S
Co1167 O1173 2.052 . S
Co1167 O1175 2.135 . S
O1168 Co1167 2.061 . S
O1168 C1171 1.235 . S
C1169 O1172 1.238 . S
C1169 O1173 1.241 . S
C1170 O1163 1.247 . S
C1170 O1164 1.261 . S
C1171 O1166 1.259 . S
C1171 O1168 1.235 . S
O1172 Co1162 2.021 . S
O1172 C1169 1.238 . S
O1173 Co1167 2.052 . S
O1173 C1169 1.241 . S
O1174 Co1162 2.137 . S
O1174 C1165 1.247 . S
O1175 Co1162 2.244 . S
O1175 C1165 1.272 . S
O1175 Co1167 2.135 . S
Co1176 O1177 2.216 . S
Co1176 O1178 2.091 . S
Co1176 O1180 2.004 . S
Co1176 O1186 2.021 . S
Co1176 O1188 2.137 . S
Co1176 O1189 2.244 . S
O1177 Co1176 2.216 . S
O1177 C1184 1.247 . S
O1178 Co1176 2.091 . S
O1178 C1184 1.261 . S
C1179 O1188 1.247 . S
C1179 O1189 1.272 . S
O1180 Co1176 2.004 . S
O1180 C1185 1.259 . S
Co1181 O1182 2.061 . S
Co1181 O1187 2.052 . S
Co1181 O1189 2.135 . S
O1182 Co1181 2.061 . S
O1182 C1185 1.235 . S
C1183 O1186 1.238 . S
C1183 O1187 1.241 . S
C1184 O1177 1.247 . S
C1184 O1178 1.261 . S
C1185 O1180 1.259 . S
C1185 O1182 1.235 . S
O1186 Co1176 2.021 . S
O1186 C1183 1.238 . S
O1187 Co1181 2.052 . S
O1187 C1183 1.241 . S
O1188 Co1176 2.137 . S
O1188 C1179 1.247 . S
O1189 Co1176 2.244 . S
O1189 C1179 1.272 . S
O1189 Co1181 2.135 . S
Co1190 O1191 2.216 . S
Co1190 O1192 2.091 . S
Co1190 O1194 2.004 . S
Co1190 O1200 2.021 . S
Co1190 O1202 2.137 . S
Co1190 O1203 2.244 . S
O1191 Co1190 2.216 . S
O1191 C1198 1.247 . S
O1192 Co1190 2.091 . S
O1192 C1198 1.261 . S
C1193 O1202 1.247 . S
C1193 O1203 1.272 . S
O1194 Co1190 2.004 . S
O1194 C1199 1.259 . S
Co1195 O1196 2.061 . S
Co1195 O1201 2.052 . S
Co1195 O1203 2.135 . S
O1196 Co1195 2.061 . S
O1196 C1199 1.235 . S
C1197 O1200 1.238 . S
C1197 O1201 1.241 . S
C1198 O1191 1.247 . S
C1198 O1192 1.261 . S
C1199 O1194 1.259 . S
C1199 O1196 1.235 . S
O1200 Co1190 2.021 . S
O1200 C1197 1.238 . S
O1201 Co1195 2.052 . S
O1201 C1197 1.241 . S
O1202 Co1190 2.137 . S
O1202 C1193 1.247 . S
O1203 Co1190 2.244 . S
O1203 C1193 1.272 . S
O1203 Co1195 2.135 . S
Co1204 O1205 2.216 . S
Co1204 O1206 2.091 . S
Co1204 O1208 2.004 . S
Co1204 O1214 2.021 . S
Co1204 O1216 2.137 . S
Co1204 O1217 2.244 . S
O1205 Co1204 2.216 . S
O1205 C1212 1.247 . S
O1206 Co1204 2.091 . S
O1206 C1212 1.261 . S
C1207 O1216 1.247 . S
C1207 O1217 1.272 . S
O1208 Co1204 2.004 . S
O1208 C1213 1.259 . S
Co1209 O1210 2.061 . S
Co1209 O1215 2.052 . S
Co1209 O1217 2.135 . S
O1210 Co1209 2.061 . S
O1210 C1213 1.235 . S
C1211 O1214 1.238 . S
C1211 O1215 1.241 . S
C1212 O1205 1.247 . S
C1212 O1206 1.261 . S
C1213 O1208 1.259 . S
C1213 O1210 1.235 . S
O1214 Co1204 2.021 . S
O1214 C1211 1.238 . S
O1215 Co1209 2.052 . S
O1215 C1211 1.241 . S
O1216 Co1204 2.137 . S
O1216 C1207 1.247 . S
O1217 Co1204 2.244 . S
O1217 C1207 1.272 . S
O1217 Co1209 2.135 . S
Co1218 O1219 2.216 . S
Co1218 O1220 2.091 . S
Co1218 O1222 2.004 . S
Co1218 O1228 2.021 . S
Co1218 O1230 2.137 . S
Co1218 O1231 2.244 . S
O1219 Co1218 2.216 . S
O1219 C1226 1.247 . S
O1220 Co1218 2.091 . S
O1220 C1226 1.261 . S
C1221 O1230 1.247 . S
C1221 O1231 1.272 . S
O1222 Co1218 2.004 . S
O1222 C1227 1.259 . S
Co1223 O1224 2.061 . S
Co1223 O1229 2.052 . S
Co1223 O1231 2.135 . S
O1224 Co1223 2.061 . S
O1224 C1227 1.235 . S
C1225 O1228 1.238 . S
C1225 O1229 1.241 . S
C1226 O1219 1.247 . S
C1226 O1220 1.261 . S
C1227 O1222 1.259 . S
C1227 O1224 1.235 . S
O1228 Co1218 2.021 . S
O1228 C1225 1.238 . S
O1229 Co1223 2.052 . S
O1229 C1225 1.241 . S
O1230 Co1218 2.137 . S
O1230 C1221 1.247 . S
O1231 Co1218 2.244 . S
O1231 C1221 1.272 . S
O1231 Co1223 2.135 . S
Co1232 O1233 2.216 . S
Co1232 O1234 2.091 . S
Co1232 O1236 2.004 . S
Co1232 O1242 2.021 . S
Co1232 O1244 2.137 . S
Co1232 O1245 2.244 . S
O1233 Co1232 2.216 . S
O1233 C1240 1.247 . S
O1234 Co1232 2.091 . S
O1234 C1240 1.261 . S
C1235 O1244 1.247 . S
C1235 O1245 1.272 . S
O1236 Co1232 2.004 . S
O1236 C1241 1.259 . S
Co1237 O1238 2.061 . S
Co1237 O1243 2.052 . S
Co1237 O1245 2.135 . S
O1238 Co1237 2.061 . S
O1238 C1241 1.235 . S
C1239 O1242 1.238 . S
C1239 O1243 1.241 . S
C1240 O1233 1.247 . S
C1240 O1234 1.261 . S
C1241 O1236 1.259 . S
C1241 O1238 1.235 . S
O1242 Co1232 2.021 . S
O1242 C1239 1.238 . S
O1243 Co1237 2.052 . S
O1243 C1239 1.241 . S
O1244 Co1232 2.137 . S
O1244 C1235 1.247 . S
O1245 Co1232 2.244 . S
O1245 C1235 1.272 . S
O1245 Co1237 2.135 . S
Co1246 O1247 2.216 . S
Co1246 O1248 2.091 . S
Co1246 O1250 2.004 . S
Co1246 O1256 2.021 . S
Co1246 O1258 2.137 . S
Co1246 O1259 2.244 . S
O1247 Co1246 2.216 . S
O1247 C1254 1.247 . S
O1248 Co1246 2.091 . S
O1248 C1254 1.261 . S
C1249 O1258 1.247 . S
C1249 O1259 1.272 . S
O1250 Co1246 2.004 . S
O1250 C1255 1.259 . S
Co1251 O1252 2.061 . S
Co1251 O1257 2.052 . S
Co1251 O1259 2.135 . S
O1252 Co1251 2.061 . S
O1252 C1255 1.235 . S
C1253 O1256 1.238 . S
C1253 O1257 1.241 . S
C1254 O1247 1.247 . S
C1254 O1248 1.261 . S
C1255 O1250 1.259 . S
C1255 O1252 1.235 . S
O1256 Co1246 2.021 . S
O1256 C1253 1.238 . S
O1257 Co1251 2.052 . S
O1257 C1253 1.241 . S
O1258 Co1246 2.137 . S
O1258 C1249 1.247 . S
O1259 Co1246 2.244 . S
O1259 C1249 1.272 . S
O1259 Co1251 2.135 . S
Co1260 O1261 2.216 . S
Co1260 O1262 2.091 . S
Co1260 O1264 2.004 . S
Co1260 O1270 2.021 . S
Co1260 O1272 2.137 . S
Co1260 O1273 2.244 . S
O1261 Co1260 2.216 . S
O1261 C1268 1.247 . S
O1262 Co1260 2.091 . S
O1262 C1268 1.261 . S
C1263 O1272 1.247 . S
C1263 O1273 1.272 . S
O1264 Co1260 2.004 . S
O1264 C1269 1.259 . S
Co1265 O1266 2.061 . S
Co1265 O1271 2.052 . S
Co1265 O1273 2.135 . S
O1266 Co1265 2.061 . S
O1266 C1269 1.235 . S
C1267 O1270 1.238 . S
C1267 O1271 1.241 . S
C1268 O1261 1.247 . S
C1268 O1262 1.261 . S
C1269 O1264 1.259 . S
C1269 O1266 1.235 . S
O1270 Co1260 2.021 . S
O1270 C1267 1.238 . S
O1271 Co1265 2.052 . S
O1271 C1267 1.241 . S
O1272 Co1260 2.137 . S
O1272 C1263 1.247 . S
O1273 Co1260 2.244 . S
O1273 C1263 1.272 . S
O1273 Co1265 2.135 . S
Co1274 O1275 2.216 . S
Co1274 O1276 2.091 . S
Co1274 O1278 2.004 . S
Co1274 O1284 2.021 . S
Co1274 O1286 2.137 . S
Co1274 O1287 2.244 . S
O1275 Co1274 2.216 . S
O1275 C1282 1.247 . S
O1276 Co1274 2.091 . S
O1276 C1282 1.261 . S
C1277 O1286 1.247 . S
C1277 O1287 1.272 . S
O1278 Co1274 2.004 . S
O1278 C1283 1.259 . S
Co1279 O1280 2.061 . S
Co1279 O1285 2.052 . S
Co1279 O1287 2.135 . S
O1280 Co1279 2.061 . S
O1280 C1283 1.235 . S
C1281 O1284 1.238 . S
C1281 O1285 1.241 . S
C1282 O1275 1.247 . S
C1282 O1276 1.261 . S
C1283 O1278 1.259 . S
C1283 O1280 1.235 . S
O1284 Co1274 2.021 . S
O1284 C1281 1.238 . S
O1285 Co1279 2.052 . S
O1285 C1281 1.241 . S
O1286 Co1274 2.137 . S
O1286 C1277 1.247 . S
O1287 Co1274 2.244 . S
O1287 C1277 1.272 . S
O1287 Co1279 2.135 . S
Co1288 O1289 2.216 . S
Co1288 O1290 2.091 . S
Co1288 O1292 2.004 . S
Co1288 O1298 2.021 . S
Co1288 O1300 2.137 . S
Co1288 O1301 2.244 . S
O1289 Co1288 2.216 . S
O1289 C1296 1.247 . S
O1290 Co1288 2.091 . S
O1290 C1296 1.261 . S
C1291 O1300 1.247 . S
C1291 O1301 1.272 . S
O1292 Co1288 2.004 . S
O1292 C1297 1.259 . S
Co1293 O1294 2.061 . S
Co1293 O1299 2.052 . S
Co1293 O1301 2.135 . S
O1294 Co1293 2.061 . S
O1294 C1297 1.235 . S
C1295 O1298 1.238 . S
C1295 O1299 1.241 . S
C1296 O1289 1.247 . S
C1296 O1290 1.261 . S
C1297 O1292 1.259 . S
C1297 O1294 1.235 . S
O1298 Co1288 2.021 . S
O1298 C1295 1.238 . S
O1299 Co1293 2.052 . S
O1299 C1295 1.241 . S
O1300 Co1288 2.137 . S
O1300 C1291 1.247 . S
O1301 Co1288 2.244 . S
O1301 C1291 1.272 . S
O1301 Co1293 2.135 . S
Co1302 O1303 2.216 . S
Co1302 O1304 2.091 . S
Co1302 O1306 2.004 . S
Co1302 O1312 2.021 . S
Co1302 O1314 2.137 . S
Co1302 O1315 2.244 . S
O1303 Co1302 2.216 . S
O1303 C1310 1.247 . S
O1304 Co1302 2.091 . S
O1304 C1310 1.261 . S
C1305 O1314 1.247 . S
C1305 O1315 1.272 . S
O1306 Co1302 2.004 . S
O1306 C1311 1.259 . S
Co1307 O1308 2.061 . S
Co1307 O1313 2.052 . S
Co1307 O1315 2.135 . S
O1308 Co1307 2.061 . S
O1308 C1311 1.235 . S
C1309 O1312 1.238 . S
C1309 O1313 1.241 . S
C1310 O1303 1.247 . S
C1310 O1304 1.261 . S
C1311 O1306 1.259 . S
C1311 O1308 1.235 . S
O1312 Co1302 2.021 . S
O1312 C1309 1.238 . S
O1313 Co1307 2.052 . S
O1313 C1309 1.241 . S
O1314 Co1302 2.137 . S
O1314 C1305 1.247 . S
O1315 Co1302 2.244 . S
O1315 C1305 1.272 . S
O1315 Co1307 2.135 . S
Co1316 O1317 2.216 . S
Co1316 O1318 2.091 . S
Co1316 O1320 2.004 . S
Co1316 O1326 2.021 . S
Co1316 O1328 2.137 . S
Co1316 O1329 2.244 . S
O1317 Co1316 2.216 . S
O1317 C1324 1.247 . S
O1318 Co1316 2.091 . S
O1318 C1324 1.261 . S
C1319 O1328 1.247 . S
C1319 O1329 1.272 . S
O1320 Co1316 2.004 . S
O1320 C1325 1.259 . S
Co1321 O1322 2.061 . S
Co1321 O1327 2.052 . S
Co1321 O1329 2.135 . S
O1322 Co1321 2.061 . S
O1322 C1325 1.235 . S
C1323 O1326 1.238 . S
C1323 O1327 1.241 . S
C1324 O1317 1.247 . S
C1324 O1318 1.261 . S
C1325 O1320 1.259 . S
C1325 O1322 1.235 . S
O1326 Co1316 2.021 . S
O1326 C1323 1.238 . S
O1327 Co1321 2.052 . S
O1327 C1323 1.241 . S
O1328 Co1316 2.137 . S
O1328 C1319 1.247 . S
O1329 Co1316 2.244 . S
O1329 C1319 1.272 . S
O1329 Co1321 2.135 . S
Co1330 O1331 2.216 . S
Co1330 O1332 2.091 . S
Co1330 O1334 2.004 . S
Co1330 O1340 2.021 . S
Co1330 O1342 2.137 . S
Co1330 O1343 2.244 . S
O1331 Co1330 2.216 . S
O1331 C1338 1.247 . S
O1332 Co1330 2.091 . S
O1332 C1338 1.261 . S
C1333 O1342 1.247 . S
C1333 O1343 1.272 . S
O1334 Co1330 2.004 . S
O1334 C1339 1.259 . S
Co1335 O1336 2.061 . S
Co1335 O1341 2.052 . S
Co1335 O1343 2.135 . S
O1336 Co1335 2.061 . S
O1336 C1339 1.235 . S
C1337 O1340 1.238 . S
C1337 O1341 1.241 . S
C1338 O1331 1.247 . S
C1338 O1332 1.261 . S
C1339 O1334 1.259 . S
C1339 O1336 1.235 . S
O1340 Co1330 2.021 . S
O1340 C1337 1.238 . S
O1341 Co1335 2.052 . S
O1341 C1337 1.241 . S
O1342 Co1330 2.137 . S
O1342 C1333 1.247 . S
O1343 Co1330 2.244 . S
O1343 C1333 1.272 . S
O1343 Co1335 2.135 . S
H1344 C1350 0.930 . S
H1345 C1354 0.930 . S
H1346 C1359 0.929 . S
H1347 C1357 0.929 . S
H1348 C1352 0.929 . S
H1349 C1358 0.929 . S
C1350 H1344 0.930 . S
C1350 C1351 1.367 . S
C1350 C1358 1.378 . S
C1351 C1350 1.367 . S
C1351 C1359 1.433 . S
C1352 H1348 0.929 . S
C1352 C1354 1.378 . S
C1352 C1356 1.350 . S
C1353 C1356 1.463 . S
C1353 C1358 1.350 . S
C1353 N1361 1.427 . S
C1354 H1345 0.930 . S
C1354 C1352 1.378 . S
C1354 C1355 1.367 . S
C1355 C1354 1.367 . S
C1355 C1357 1.433 . S
C1356 C1352 1.350 . S
C1356 C1353 1.463 . S
C1356 N1360 1.427 . S
C1357 H1347 0.929 . S
C1357 C1355 1.433 . S
C1357 N1360 1.384 . S
C1358 H1349 0.929 . S
C1358 C1350 1.378 . S
C1358 C1353 1.350 . S
C1359 H1346 0.929 . S
C1359 C1351 1.433 . S
C1359 N1361 1.384 . S
N1360 C1356 1.427 . S
N1360 C1357 1.384 . S
N1361 C1353 1.427 . S
N1361 C1359 1.384 . S
H1362 C1368 0.930 . S
H1363 C1372 0.930 . S
H1364 C1377 0.929 . S
H1365 C1375 0.929 . S
H1366 C1370 0.929 . S
H1367 C1376 0.929 . S
C1368 H1362 0.930 . S
C1368 C1369 1.367 . S
C1368 C1376 1.378 . S
C1369 C1368 1.367 . S
C1369 C1377 1.433 . S
C1370 H1366 0.929 . S
C1370 C1372 1.378 . S
C1370 C1374 1.350 . S
C1371 C1374 1.463 . S
C1371 C1376 1.350 . S
C1371 N1379 1.427 . S
C1372 H1363 0.930 . S
C1372 C1370 1.378 . S
C1372 C1373 1.367 . S
C1373 C1372 1.367 . S
C1373 C1375 1.433 . S
C1374 C1370 1.350 . S
C1374 C1371 1.463 . S
C1374 N1378 1.427 . S
C1375 H1365 0.929 . S
C1375 C1373 1.433 . S
C1375 N1378 1.384 . S
C1376 H1367 0.929 . S
C1376 C1368 1.378 . S
C1376 C1371 1.350 . S
C1377 H1364 0.929 . S
C1377 C1369 1.433 . S
C1377 N1379 1.384 . S
N1378 C1374 1.427 . S
N1378 C1375 1.384 . S
N1379 C1371 1.427 . S
N1379 C1377 1.384 . S
H1380 C1386 0.930 . S
H1381 C1390 0.930 . S
H1382 C1395 0.929 . S
H1383 C1393 0.929 . S
H1384 C1388 0.929 . S
H1385 C1394 0.929 . S
C1386 H1380 0.930 . S
C1386 C1387 1.367 . S
C1386 C1394 1.378 . S
C1387 C1386 1.367 . S
C1387 C1395 1.433 . S
C1388 H1384 0.929 . S
C1388 C1390 1.378 . S
C1388 C1392 1.350 . S
C1389 C1392 1.463 . S
C1389 C1394 1.350 . S
C1389 N1397 1.427 . S
C1390 H1381 0.930 . S
C1390 C1388 1.378 . S
C1390 C1391 1.367 . S
C1391 C1390 1.367 . S
C1391 C1393 1.433 . S
C1392 C1388 1.350 . S
C1392 C1389 1.463 . S
C1392 N1396 1.427 . S
C1393 H1383 0.929 . S
C1393 C1391 1.433 . S
C1393 N1396 1.384 . S
C1394 H1385 0.929 . S
C1394 C1386 1.378 . S
C1394 C1389 1.350 . S
C1395 H1382 0.929 . S
C1395 C1387 1.433 . S
C1395 N1397 1.384 . S
N1396 C1392 1.427 . S
N1396 C1393 1.384 . S
N1397 C1389 1.427 . S
N1397 C1395 1.384 . S
H1398 C1404 0.930 . S
H1399 C1408 0.930 . S
H1400 C1413 0.929 . S
H1401 C1411 0.929 . S
H1402 C1406 0.929 . S
H1403 C1412 0.929 . S
C1404 H1398 0.930 . S
C1404 C1405 1.367 . S
C1404 C1412 1.378 . S
C1405 C1404 1.367 . S
C1405 C1413 1.433 . S
C1406 H1402 0.929 . S
C1406 C1408 1.378 . S
C1406 C1410 1.350 . S
C1407 C1410 1.463 . S
C1407 C1412 1.350 . S
C1407 N1415 1.427 . S
C1408 H1399 0.930 . S
C1408 C1406 1.378 . S
C1408 C1409 1.367 . S
C1409 C1408 1.367 . S
C1409 C1411 1.433 . S
C1410 C1406 1.350 . S
C1410 C1407 1.463 . S
C1410 N1414 1.427 . S
C1411 H1401 0.929 . S
C1411 C1409 1.433 . S
C1411 N1414 1.384 . S
C1412 H1403 0.929 . S
C1412 C1404 1.378 . S
C1412 C1407 1.350 . S
C1413 H1400 0.929 . S
C1413 C1405 1.433 . S
C1413 N1415 1.384 . S
N1414 C1410 1.427 . S
N1414 C1411 1.384 . S
N1415 C1407 1.427 . S
N1415 C1413 1.384 . S
H1416 C1422 0.930 . S
H1417 C1426 0.930 . S
H1418 C1431 0.929 . S
H1419 C1429 0.929 . S
H1420 C1424 0.929 . S
H1421 C1430 0.929 . S
C1422 H1416 0.930 . S
C1422 C1423 1.367 . S
C1422 C1430 1.378 . S
C1423 C1422 1.367 . S
C1423 C1431 1.433 . S
C1424 H1420 0.929 . S
C1424 C1426 1.378 . S
C1424 C1428 1.350 . S
C1425 C1428 1.463 . S
C1425 C1430 1.350 . S
C1425 N1433 1.427 . S
C1426 H1417 0.930 . S
C1426 C1424 1.378 . S
C1426 C1427 1.367 . S
C1427 C1426 1.367 . S
C1427 C1429 1.433 . S
C1428 C1424 1.350 . S
C1428 C1425 1.463 . S
C1428 N1432 1.427 . S
C1429 H1419 0.929 . S
C1429 C1427 1.433 . S
C1429 N1432 1.384 . S
C1430 H1421 0.929 . S
C1430 C1422 1.378 . S
C1430 C1425 1.350 . S
C1431 H1418 0.929 . S
C1431 C1423 1.433 . S
C1431 N1433 1.384 . S
N1432 C1428 1.427 . S
N1432 C1429 1.384 . S
N1433 C1425 1.427 . S
N1433 C1431 1.384 . S
H1434 C1440 0.930 . S
H1435 C1444 0.930 . S
H1436 C1449 0.929 . S
H1437 C1447 0.929 . S
H1438 C1442 0.929 . S
H1439 C1448 0.929 . S
C1440 H1434 0.930 . S
C1440 C1441 1.367 . S
C1440 C1448 1.378 . S
C1441 C1440 1.367 . S
C1441 C1449 1.433 . S
C1442 H1438 0.929 . S
C1442 C1444 1.378 . S
C1442 C1446 1.350 . S
C1443 C1446 1.463 . S
C1443 C1448 1.350 . S
C1443 N1451 1.427 . S
C1444 H1435 0.930 . S
C1444 C1442 1.378 . S
C1444 C1445 1.367 . S
C1445 C1444 1.367 . S
C1445 C1447 1.433 . S
C1446 C1442 1.350 . S
C1446 C1443 1.463 . S
C1446 N1450 1.427 . S
C1447 H1437 0.929 . S
C1447 C1445 1.433 . S
C1447 N1450 1.384 . S
C1448 H1439 0.929 . S
C1448 C1440 1.378 . S
C1448 C1443 1.350 . S
C1449 H1436 0.929 . S
C1449 C1441 1.433 . S
C1449 N1451 1.384 . S
N1450 C1446 1.427 . S
N1450 C1447 1.384 . S
N1451 C1443 1.427 . S
N1451 C1449 1.384 . S
H1452 C1458 0.930 . S
H1453 C1462 0.930 . S
H1454 C1467 0.929 . S
H1455 C1465 0.929 . S
H1456 C1460 0.929 . S
H1457 C1466 0.929 . S
C1458 H1452 0.930 . S
C1458 C1459 1.367 . S
C1458 C1466 1.378 . S
C1459 C1458 1.367 . S
C1459 C1467 1.433 . S
C1460 H1456 0.929 . S
C1460 C1462 1.378 . S
C1460 C1464 1.350 . S
C1461 C1464 1.463 . S
C1461 C1466 1.350 . S
C1461 N1469 1.427 . S
C1462 H1453 0.930 . S
C1462 C1460 1.378 . S
C1462 C1463 1.367 . S
C1463 C1462 1.367 . S
C1463 C1465 1.433 . S
C1464 C1460 1.350 . S
C1464 C1461 1.463 . S
C1464 N1468 1.427 . S
C1465 H1455 0.929 . S
C1465 C1463 1.433 . S
C1465 N1468 1.384 . S
C1466 H1457 0.929 . S
C1466 C1458 1.378 . S
C1466 C1461 1.350 . S
C1467 H1454 0.929 . S
C1467 C1459 1.433 . S
C1467 N1469 1.384 . S
N1468 C1464 1.427 . S
N1468 C1465 1.384 . S
N1469 C1461 1.427 . S
N1469 C1467 1.384 . S
H1470 C1476 0.930 . S
H1471 C1480 0.930 . S
H1472 C1485 0.929 . S
H1473 C1483 0.929 . S
H1474 C1478 0.929 . S
H1475 C1484 0.929 . S
C1476 H1470 0.930 . S
C1476 C1477 1.367 . S
C1476 C1484 1.378 . S
C1477 C1476 1.367 . S
C1477 C1485 1.433 . S
C1478 H1474 0.929 . S
C1478 C1480 1.378 . S
C1478 C1482 1.350 . S
C1479 C1482 1.463 . S
C1479 C1484 1.350 . S
C1479 N1487 1.427 . S
C1480 H1471 0.930 . S
C1480 C1478 1.378 . S
C1480 C1481 1.367 . S
C1481 C1480 1.367 . S
C1481 C1483 1.433 . S
C1482 C1478 1.350 . S
C1482 C1479 1.463 . S
C1482 N1486 1.427 . S
C1483 H1473 0.929 . S
C1483 C1481 1.433 . S
C1483 N1486 1.384 . S
C1484 H1475 0.929 . S
C1484 C1476 1.378 . S
C1484 C1479 1.350 . S
C1485 H1472 0.929 . S
C1485 C1477 1.433 . S
C1485 N1487 1.384 . S
N1486 C1482 1.427 . S
N1486 C1483 1.384 . S
N1487 C1479 1.427 . S
N1487 C1485 1.384 . S
H1488 C1494 0.930 . S
H1489 C1498 0.930 . S
H1490 C1503 0.929 . S
H1491 C1501 0.929 . S
H1492 C1496 0.929 . S
H1493 C1502 0.929 . S
C1494 H1488 0.930 . S
C1494 C1495 1.367 . S
C1494 C1502 1.378 . S
C1495 C1494 1.367 . S
C1495 C1503 1.433 . S
C1496 H1492 0.929 . S
C1496 C1498 1.378 . S
C1496 C1500 1.350 . S
C1497 C1500 1.463 . S
C1497 C1502 1.350 . S
C1497 N1505 1.427 . S
C1498 H1489 0.930 . S
C1498 C1496 1.378 . S
C1498 C1499 1.367 . S
C1499 C1498 1.367 . S
C1499 C1501 1.433 . S
C1500 C1496 1.350 . S
C1500 C1497 1.463 . S
C1500 N1504 1.427 . S
C1501 H1491 0.929 . S
C1501 C1499 1.433 . S
C1501 N1504 1.384 . S
C1502 H1493 0.929 . S
C1502 C1494 1.378 . S
C1502 C1497 1.350 . S
C1503 H1490 0.929 . S
C1503 C1495 1.433 . S
C1503 N1505 1.384 . S
N1504 C1500 1.427 . S
N1504 C1501 1.384 . S
N1505 C1497 1.427 . S
N1505 C1503 1.384 . S
H1506 C1512 0.930 . S
H1507 C1516 0.930 . S
H1508 C1521 0.929 . S
H1509 C1519 0.929 . S
H1510 C1514 0.929 . S
H1511 C1520 0.929 . S
C1512 H1506 0.930 . S
C1512 C1513 1.367 . S
C1512 C1520 1.378 . S
C1513 C1512 1.367 . S
C1513 C1521 1.433 . S
C1514 H1510 0.929 . S
C1514 C1516 1.378 . S
C1514 C1518 1.350 . S
C1515 C1518 1.463 . S
C1515 C1520 1.350 . S
C1515 N1523 1.427 . S
C1516 H1507 0.930 . S
C1516 C1514 1.378 . S
C1516 C1517 1.367 . S
C1517 C1516 1.367 . S
C1517 C1519 1.433 . S
C1518 C1514 1.350 . S
C1518 C1515 1.463 . S
C1518 N1522 1.427 . S
C1519 H1509 0.929 . S
C1519 C1517 1.433 . S
C1519 N1522 1.384 . S
C1520 H1511 0.929 . S
C1520 C1512 1.378 . S
C1520 C1515 1.350 . S
C1521 H1508 0.929 . S
C1521 C1513 1.433 . S
C1521 N1523 1.384 . S
N1522 C1518 1.427 . S
N1522 C1519 1.384 . S
N1523 C1515 1.427 . S
N1523 C1521 1.384 . S
H1524 C1530 0.930 . S
H1525 C1534 0.930 . S
H1526 C1539 0.929 . S
H1527 C1537 0.929 . S
H1528 C1532 0.929 . S
H1529 C1538 0.929 . S
C1530 H1524 0.930 . S
C1530 C1531 1.367 . S
C1530 C1538 1.378 . S
C1531 C1530 1.367 . S
C1531 C1539 1.433 . S
C1532 H1528 0.929 . S
C1532 C1534 1.378 . S
C1532 C1536 1.350 . S
C1533 C1536 1.463 . S
C1533 C1538 1.350 . S
C1533 N1541 1.427 . S
C1534 H1525 0.930 . S
C1534 C1532 1.378 . S
C1534 C1535 1.367 . S
C1535 C1534 1.367 . S
C1535 C1537 1.433 . S
C1536 C1532 1.350 . S
C1536 C1533 1.463 . S
C1536 N1540 1.427 . S
C1537 H1527 0.929 . S
C1537 C1535 1.433 . S
C1537 N1540 1.384 . S
C1538 H1529 0.929 . S
C1538 C1530 1.378 . S
C1538 C1533 1.350 . S
C1539 H1526 0.929 . S
C1539 C1531 1.433 . S
C1539 N1541 1.384 . S
N1540 C1536 1.427 . S
N1540 C1537 1.384 . S
N1541 C1533 1.427 . S
N1541 C1539 1.384 . S
H1542 C1548 0.930 . S
H1543 C1552 0.930 . S
H1544 C1557 0.929 . S
H1545 C1555 0.929 . S
H1546 C1550 0.929 . S
H1547 C1556 0.929 . S
C1548 H1542 0.930 . S
C1548 C1549 1.367 . S
C1548 C1556 1.378 . S
C1549 C1548 1.367 . S
C1549 C1557 1.433 . S
C1550 H1546 0.929 . S
C1550 C1552 1.378 . S
C1550 C1554 1.350 . S
C1551 C1554 1.463 . S
C1551 C1556 1.350 . S
C1551 N1559 1.427 . S
C1552 H1543 0.930 . S
C1552 C1550 1.378 . S
C1552 C1553 1.367 . S
C1553 C1552 1.367 . S
C1553 C1555 1.433 . S
C1554 C1550 1.350 . S
C1554 C1551 1.463 . S
C1554 N1558 1.427 . S
C1555 H1545 0.929 . S
C1555 C1553 1.433 . S
C1555 N1558 1.384 . S
C1556 H1547 0.929 . S
C1556 C1548 1.378 . S
C1556 C1551 1.350 . S
C1557 H1544 0.929 . S
C1557 C1549 1.433 . S
C1557 N1559 1.384 . S
N1558 C1554 1.427 . S
N1558 C1555 1.384 . S
N1559 C1551 1.427 . S
N1559 C1557 1.384 . S
H1560 C1566 0.930 . S
H1561 C1570 0.930 . S
H1562 C1575 0.929 . S
H1563 C1573 0.929 . S
H1564 C1568 0.929 . S
H1565 C1574 0.929 . S
C1566 H1560 0.930 . S
C1566 C1567 1.367 . S
C1566 C1574 1.378 . S
C1567 C1566 1.367 . S
C1567 C1575 1.433 . S
C1568 H1564 0.929 . S
C1568 C1570 1.378 . S
C1568 C1572 1.350 . S
C1569 C1572 1.463 . S
C1569 C1574 1.350 . S
C1569 N1577 1.427 . S
C1570 H1561 0.930 . S
C1570 C1568 1.378 . S
C1570 C1571 1.367 . S
C1571 C1570 1.367 . S
C1571 C1573 1.433 . S
C1572 C1568 1.350 . S
C1572 C1569 1.463 . S
C1572 N1576 1.427 . S
C1573 H1563 0.929 . S
C1573 C1571 1.433 . S
C1573 N1576 1.384 . S
C1574 H1565 0.929 . S
C1574 C1566 1.378 . S
C1574 C1569 1.350 . S
C1575 H1562 0.929 . S
C1575 C1567 1.433 . S
C1575 N1577 1.384 . S
N1576 C1572 1.427 . S
N1576 C1573 1.384 . S
N1577 C1569 1.427 . S
N1577 C1575 1.384 . S
H1578 C1584 0.930 . S
H1579 C1588 0.930 . S
H1580 C1593 0.929 . S
H1581 C1591 0.929 . S
H1582 C1586 0.929 . S
H1583 C1592 0.929 . S
C1584 H1578 0.930 . S
C1584 C1585 1.367 . S
C1584 C1592 1.378 . S
C1585 C1584 1.367 . S
C1585 C1593 1.433 . S
C1586 H1582 0.929 . S
C1586 C1588 1.378 . S
C1586 C1590 1.350 . S
C1587 C1590 1.463 . S
C1587 C1592 1.350 . S
C1587 N1595 1.427 . S
C1588 H1579 0.930 . S
C1588 C1586 1.378 . S
C1588 C1589 1.367 . S
C1589 C1588 1.367 . S
C1589 C1591 1.433 . S
C1590 C1586 1.350 . S
C1590 C1587 1.463 . S
C1590 N1594 1.427 . S
C1591 H1581 0.929 . S
C1591 C1589 1.433 . S
C1591 N1594 1.384 . S
C1592 H1583 0.929 . S
C1592 C1584 1.378 . S
C1592 C1587 1.350 . S
C1593 H1580 0.929 . S
C1593 C1585 1.433 . S
C1593 N1595 1.384 . S
N1594 C1590 1.427 . S
N1594 C1591 1.384 . S
N1595 C1587 1.427 . S
N1595 C1593 1.384 . S
H1596 C1602 0.930 . S
H1597 C1606 0.930 . S
H1598 C1611 0.929 . S
H1599 C1609 0.929 . S
H1600 C1604 0.929 . S
H1601 C1610 0.929 . S
C1602 H1596 0.930 . S
C1602 C1603 1.367 . S
C1602 C1610 1.378 . S
C1603 C1602 1.367 . S
C1603 C1611 1.433 . S
C1604 H1600 0.929 . S
C1604 C1606 1.378 . S
C1604 C1608 1.350 . S
C1605 C1608 1.463 . S
C1605 C1610 1.350 . S
C1605 N1613 1.427 . S
C1606 H1597 0.930 . S
C1606 C1604 1.378 . S
C1606 C1607 1.367 . S
C1607 C1606 1.367 . S
C1607 C1609 1.433 . S
C1608 C1604 1.350 . S
C1608 C1605 1.463 . S
C1608 N1612 1.427 . S
C1609 H1599 0.929 . S
C1609 C1607 1.433 . S
C1609 N1612 1.384 . S
C1610 H1601 0.929 . S
C1610 C1602 1.378 . S
C1610 C1605 1.350 . S
C1611 H1598 0.929 . S
C1611 C1603 1.433 . S
C1611 N1613 1.384 . S
N1612 C1608 1.427 . S
N1612 C1609 1.384 . S
N1613 C1605 1.427 . S
N1613 C1611 1.384 . S
H1614 C1620 0.930 . S
H1615 C1624 0.930 . S
H1616 C1629 0.929 . S
H1617 C1627 0.929 . S
H1618 C1622 0.929 . S
H1619 C1628 0.929 . S
C1620 H1614 0.930 . S
C1620 C1621 1.367 . S
C1620 C1628 1.378 . S
C1621 C1620 1.367 . S
C1621 C1629 1.433 . S
C1622 H1618 0.929 . S
C1622 C1624 1.378 . S
C1622 C1626 1.350 . S
C1623 C1626 1.463 . S
C1623 C1628 1.350 . S
C1623 N1631 1.427 . S
C1624 H1615 0.930 . S
C1624 C1622 1.378 . S
C1624 C1625 1.367 . S
C1625 C1624 1.367 . S
C1625 C1627 1.433 . S
C1626 C1622 1.350 . S
C1626 C1623 1.463 . S
C1626 N1630 1.427 . S
C1627 H1617 0.929 . S
C1627 C1625 1.433 . S
C1627 N1630 1.384 . S
C1628 H1619 0.929 . S
C1628 C1620 1.378 . S
C1628 C1623 1.350 . S
C1629 H1616 0.929 . S
C1629 C1621 1.433 . S
C1629 N1631 1.384 . S
N1630 C1626 1.427 . S
N1630 C1627 1.384 . S
N1631 C1623 1.427 . S
N1631 C1629 1.384 . S
H1632 C1638 0.930 . S
H1633 C1642 0.930 . S
H1634 C1647 0.929 . S
H1635 C1645 0.929 . S
H1636 C1640 0.929 . S
H1637 C1646 0.929 . S
C1638 H1632 0.930 . S
C1638 C1639 1.367 . S
C1638 C1646 1.378 . S
C1639 C1638 1.367 . S
C1639 C1647 1.433 . S
C1640 H1636 0.929 . S
C1640 C1642 1.378 . S
C1640 C1644 1.350 . S
C1641 C1644 1.463 . S
C1641 C1646 1.350 . S
C1641 N1649 1.427 . S
C1642 H1633 0.930 . S
C1642 C1640 1.378 . S
C1642 C1643 1.367 . S
C1643 C1642 1.367 . S
C1643 C1645 1.433 . S
C1644 C1640 1.350 . S
C1644 C1641 1.463 . S
C1644 N1648 1.427 . S
C1645 H1635 0.929 . S
C1645 C1643 1.433 . S
C1645 N1648 1.384 . S
C1646 H1637 0.929 . S
C1646 C1638 1.378 . S
C1646 C1641 1.350 . S
C1647 H1634 0.929 . S
C1647 C1639 1.433 . S
C1647 N1649 1.384 . S
N1648 C1644 1.427 . S
N1648 C1645 1.384 . S
N1649 C1641 1.427 . S
N1649 C1647 1.384 . S
H1650 C1656 0.930 . S
H1651 C1660 0.930 . S
H1652 C1665 0.929 . S
H1653 C1663 0.929 . S
H1654 C1658 0.929 . S
H1655 C1664 0.929 . S
C1656 H1650 0.930 . S
C1656 C1657 1.367 . S
C1656 C1664 1.378 . S
C1657 C1656 1.367 . S
C1657 C1665 1.433 . S
C1658 H1654 0.929 . S
C1658 C1660 1.378 . S
C1658 C1662 1.350 . S
C1659 C1662 1.463 . S
C1659 C1664 1.350 . S
C1659 N1667 1.427 . S
C1660 H1651 0.930 . S
C1660 C1658 1.378 . S
C1660 C1661 1.367 . S
C1661 C1660 1.367 . S
C1661 C1663 1.433 . S
C1662 C1658 1.350 . S
C1662 C1659 1.463 . S
C1662 N1666 1.427 . S
C1663 H1653 0.929 . S
C1663 C1661 1.433 . S
C1663 N1666 1.384 . S
C1664 H1655 0.929 . S
C1664 C1656 1.378 . S
C1664 C1659 1.350 . S
C1665 H1652 0.929 . S
C1665 C1657 1.433 . S
C1665 N1667 1.384 . S
N1666 C1662 1.427 . S
N1666 C1663 1.384 . S
N1667 C1659 1.427 . S
N1667 C1665 1.384 . S
H1668 C1674 0.930 . S
H1669 C1678 0.930 . S
H1670 C1683 0.929 . S
H1671 C1681 0.929 . S
H1672 C1676 0.929 . S
H1673 C1682 0.929 . S
C1674 H1668 0.930 . S
C1674 C1675 1.367 . S
C1674 C1682 1.378 . S
C1675 C1674 1.367 . S
C1675 C1683 1.433 . S
C1676 H1672 0.929 . S
C1676 C1678 1.378 . S
C1676 C1680 1.350 . S
C1677 C1680 1.463 . S
C1677 C1682 1.350 . S
C1677 N1685 1.427 . S
C1678 H1669 0.930 . S
C1678 C1676 1.378 . S
C1678 C1679 1.367 . S
C1679 C1678 1.367 . S
C1679 C1681 1.433 . S
C1680 C1676 1.350 . S
C1680 C1677 1.463 . S
C1680 N1684 1.427 . S
C1681 H1671 0.929 . S
C1681 C1679 1.433 . S
C1681 N1684 1.384 . S
C1682 H1673 0.929 . S
C1682 C1674 1.378 . S
C1682 C1677 1.350 . S
C1683 H1670 0.929 . S
C1683 C1675 1.433 . S
C1683 N1685 1.384 . S
N1684 C1680 1.427 . S
N1684 C1681 1.384 . S
N1685 C1677 1.427 . S
N1685 C1683 1.384 . S
H1686 C1692 0.930 . S
H1687 C1696 0.930 . S
H1688 C1701 0.929 . S
H1689 C1699 0.929 . S
H1690 C1694 0.929 . S
H1691 C1700 0.929 . S
C1692 H1686 0.930 . S
C1692 C1693 1.367 . S
C1692 C1700 1.378 . S
C1693 C1692 1.367 . S
C1693 C1701 1.433 . S
C1694 H1690 0.929 . S
C1694 C1696 1.378 . S
C1694 C1698 1.350 . S
C1695 C1698 1.463 . S
C1695 C1700 1.350 . S
C1695 N1703 1.427 . S
C1696 H1687 0.930 . S
C1696 C1694 1.378 . S
C1696 C1697 1.367 . S
C1697 C1696 1.367 . S
C1697 C1699 1.433 . S
C1698 C1694 1.350 . S
C1698 C1695 1.463 . S
C1698 N1702 1.427 . S
C1699 H1689 0.929 . S
C1699 C1697 1.433 . S
C1699 N1702 1.384 . S
C1700 H1691 0.929 . S
C1700 C1692 1.378 . S
C1700 C1695 1.350 . S
C1701 H1688 0.929 . S
C1701 C1693 1.433 . S
C1701 N1703 1.384 . S
N1702 C1698 1.427 . S
N1702 C1699 1.384 . S
N1703 C1695 1.427 . S
N1703 C1701 1.384 . S
H1704 C1710 0.930 . S
H1705 C1714 0.930 . S
H1706 C1719 0.929 . S
H1707 C1717 0.929 . S
H1708 C1712 0.929 . S
H1709 C1718 0.929 . S
C1710 H1704 0.930 . S
C1710 C1711 1.367 . S
C1710 C1718 1.378 . S
C1711 C1710 1.367 . S
C1711 C1719 1.433 . S
C1712 H1708 0.929 . S
C1712 C1714 1.378 . S
C1712 C1716 1.350 . S
C1713 C1716 1.463 . S
C1713 C1718 1.350 . S
C1713 N1721 1.427 . S
C1714 H1705 0.930 . S
C1714 C1712 1.378 . S
C1714 C1715 1.367 . S
C1715 C1714 1.367 . S
C1715 C1717 1.433 . S
C1716 C1712 1.350 . S
C1716 C1713 1.463 . S
C1716 N1720 1.427 . S
C1717 H1707 0.929 . S
C1717 C1715 1.433 . S
C1717 N1720 1.384 . S
C1718 H1709 0.929 . S
C1718 C1710 1.378 . S
C1718 C1713 1.350 . S
C1719 H1706 0.929 . S
C1719 C1711 1.433 . S
C1719 N1721 1.384 . S
N1720 C1716 1.427 . S
N1720 C1717 1.384 . S
N1721 C1713 1.427 . S
N1721 C1719 1.384 . S
H1722 C1728 0.930 . S
H1723 C1732 0.930 . S
H1724 C1737 0.929 . S
H1725 C1735 0.929 . S
H1726 C1730 0.929 . S
H1727 C1736 0.929 . S
C1728 H1722 0.930 . S
C1728 C1729 1.367 . S
C1728 C1736 1.378 . S
C1729 C1728 1.367 . S
C1729 C1737 1.433 . S
C1730 H1726 0.929 . S
C1730 C1732 1.378 . S
C1730 C1734 1.350 . S
C1731 C1734 1.463 . S
C1731 C1736 1.350 . S
C1731 N1739 1.427 . S
C1732 H1723 0.930 . S
C1732 C1730 1.378 . S
C1732 C1733 1.367 . S
C1733 C1732 1.367 . S
C1733 C1735 1.433 . S
C1734 C1730 1.350 . S
C1734 C1731 1.463 . S
C1734 N1738 1.427 . S
C1735 H1725 0.929 . S
C1735 C1733 1.433 . S
C1735 N1738 1.384 . S
C1736 H1727 0.929 . S
C1736 C1728 1.378 . S
C1736 C1731 1.350 . S
C1737 H1724 0.929 . S
C1737 C1729 1.433 . S
C1737 N1739 1.384 . S
N1738 C1734 1.427 . S
N1738 C1735 1.384 . S
N1739 C1731 1.427 . S
N1739 C1737 1.384 . S
H1740 C1746 0.930 . S
H1741 C1750 0.930 . S
H1742 C1755 0.929 . S
H1743 C1753 0.929 . S
H1744 C1748 0.929 . S
H1745 C1754 0.929 . S
C1746 H1740 0.930 . S
C1746 C1747 1.367 . S
C1746 C1754 1.378 . S
C1747 C1746 1.367 . S
C1747 C1755 1.433 . S
C1748 H1744 0.929 . S
C1748 C1750 1.378 . S
C1748 C1752 1.350 . S
C1749 C1752 1.463 . S
C1749 C1754 1.350 . S
C1749 N1757 1.427 . S
C1750 H1741 0.930 . S
C1750 C1748 1.378 . S
C1750 C1751 1.367 . S
C1751 C1750 1.367 . S
C1751 C1753 1.433 . S
C1752 C1748 1.350 . S
C1752 C1749 1.463 . S
C1752 N1756 1.427 . S
C1753 H1743 0.929 . S
C1753 C1751 1.433 . S
C1753 N1756 1.384 . S
C1754 H1745 0.929 . S
C1754 C1746 1.378 . S
C1754 C1749 1.350 . S
C1755 H1742 0.929 . S
C1755 C1747 1.433 . S
C1755 N1757 1.384 . S
N1756 C1752 1.427 . S
N1756 C1753 1.384 . S
N1757 C1749 1.427 . S
N1757 C1755 1.384 . S
H1758 C1764 0.930 . S
H1759 C1768 0.930 . S
H1760 C1773 0.929 . S
H1761 C1771 0.929 . S
H1762 C1766 0.929 . S
H1763 C1772 0.929 . S
C1764 H1758 0.930 . S
C1764 C1765 1.367 . S
C1764 C1772 1.378 . S
C1765 C1764 1.367 . S
C1765 C1773 1.433 . S
C1766 H1762 0.929 . S
C1766 C1768 1.378 . S
C1766 C1770 1.350 . S
C1767 C1770 1.463 . S
C1767 C1772 1.350 . S
C1767 N1775 1.427 . S
C1768 H1759 0.930 . S
C1768 C1766 1.378 . S
C1768 C1769 1.367 . S
C1769 C1768 1.367 . S
C1769 C1771 1.433 . S
C1770 C1766 1.350 . S
C1770 C1767 1.463 . S
C1770 N1774 1.427 . S
C1771 H1761 0.929 . S
C1771 C1769 1.433 . S
C1771 N1774 1.384 . S
C1772 H1763 0.929 . S
C1772 C1764 1.378 . S
C1772 C1767 1.350 . S
C1773 H1760 0.929 . S
C1773 C1765 1.433 . S
C1773 N1775 1.384 . S
N1774 C1770 1.427 . S
N1774 C1771 1.384 . S
N1775 C1767 1.427 . S
N1775 C1773 1.384 . S
H1776 C1782 0.930 . S
H1777 C1786 0.930 . S
H1778 C1791 0.929 . S
H1779 C1789 0.929 . S
H1780 C1784 0.929 . S
H1781 C1790 0.929 . S
C1782 H1776 0.930 . S
C1782 C1783 1.367 . S
C1782 C1790 1.378 . S
C1783 C1782 1.367 . S
C1783 C1791 1.433 . S
C1784 H1780 0.929 . S
C1784 C1786 1.378 . S
C1784 C1788 1.350 . S
C1785 C1788 1.463 . S
C1785 C1790 1.350 . S
C1785 N1793 1.427 . S
C1786 H1777 0.930 . S
C1786 C1784 1.378 . S
C1786 C1787 1.367 . S
C1787 C1786 1.367 . S
C1787 C1789 1.433 . S
C1788 C1784 1.350 . S
C1788 C1785 1.463 . S
C1788 N1792 1.427 . S
C1789 H1779 0.929 . S
C1789 C1787 1.433 . S
C1789 N1792 1.384 . S
C1790 H1781 0.929 . S
C1790 C1782 1.378 . S
C1790 C1785 1.350 . S
C1791 H1778 0.929 . S
C1791 C1783 1.433 . S
C1791 N1793 1.384 . S
N1792 C1788 1.427 . S
N1792 C1789 1.384 . S
N1793 C1785 1.427 . S
N1793 C1791 1.384 . S
H1794 C1800 0.930 . S
H1795 C1804 0.930 . S
H1796 C1809 0.929 . S
H1797 C1807 0.929 . S
H1798 C1802 0.929 . S
H1799 C1808 0.929 . S
C1800 H1794 0.930 . S
C1800 C1801 1.367 . S
C1800 C1808 1.378 . S
C1801 C1800 1.367 . S
C1801 C1809 1.433 . S
C1802 H1798 0.929 . S
C1802 C1804 1.378 . S
C1802 C1806 1.350 . S
C1803 C1806 1.463 . S
C1803 C1808 1.350 . S
C1803 N1811 1.427 . S
C1804 H1795 0.930 . S
C1804 C1802 1.378 . S
C1804 C1805 1.367 . S
C1805 C1804 1.367 . S
C1805 C1807 1.433 . S
C1806 C1802 1.350 . S
C1806 C1803 1.463 . S
C1806 N1810 1.427 . S
C1807 H1797 0.929 . S
C1807 C1805 1.433 . S
C1807 N1810 1.384 . S
C1808 H1799 0.929 . S
C1808 C1800 1.378 . S
C1808 C1803 1.350 . S
C1809 H1796 0.929 . S
C1809 C1801 1.433 . S
C1809 N1811 1.384 . S
N1810 C1806 1.427 . S
N1810 C1807 1.384 . S
N1811 C1803 1.427 . S
N1811 C1809 1.384 . S
H1812 C1818 0.930 . S
H1813 C1822 0.930 . S
H1814 C1827 0.929 . S
H1815 C1825 0.929 . S
H1816 C1820 0.929 . S
H1817 C1826 0.929 . S
C1818 H1812 0.930 . S
C1818 C1819 1.367 . S
C1818 C1826 1.378 . S
C1819 C1818 1.367 . S
C1819 C1827 1.433 . S
C1820 H1816 0.929 . S
C1820 C1822 1.378 . S
C1820 C1824 1.350 . S
C1821 C1824 1.463 . S
C1821 C1826 1.350 . S
C1821 N1829 1.427 . S
C1822 H1813 0.930 . S
C1822 C1820 1.378 . S
C1822 C1823 1.367 . S
C1823 C1822 1.367 . S
C1823 C1825 1.433 . S
C1824 C1820 1.350 . S
C1824 C1821 1.463 . S
C1824 N1828 1.427 . S
C1825 H1815 0.929 . S
C1825 C1823 1.433 . S
C1825 N1828 1.384 . S
C1826 H1817 0.929 . S
C1826 C1818 1.378 . S
C1826 C1821 1.350 . S
C1827 H1814 0.929 . S
C1827 C1819 1.433 . S
C1827 N1829 1.384 . S
N1828 C1824 1.427 . S
N1828 C1825 1.384 . S
N1829 C1821 1.427 . S
N1829 C1827 1.384 . S
H1830 C1836 0.930 . S
H1831 C1840 0.930 . S
H1832 C1845 0.929 . S
H1833 C1843 0.929 . S
H1834 C1838 0.929 . S
H1835 C1844 0.929 . S
C1836 H1830 0.930 . S
C1836 C1837 1.367 . S
C1836 C1844 1.378 . S
C1837 C1836 1.367 . S
C1837 C1845 1.433 . S
C1838 H1834 0.929 . S
C1838 C1840 1.378 . S
C1838 C1842 1.350 . S
C1839 C1842 1.463 . S
C1839 C1844 1.350 . S
C1839 N1847 1.427 . S
C1840 H1831 0.930 . S
C1840 C1838 1.378 . S
C1840 C1841 1.367 . S
C1841 C1840 1.367 . S
C1841 C1843 1.433 . S
C1842 C1838 1.350 . S
C1842 C1839 1.463 . S
C1842 N1846 1.427 . S
C1843 H1833 0.929 . S
C1843 C1841 1.433 . S
C1843 N1846 1.384 . S
C1844 H1835 0.929 . S
C1844 C1836 1.378 . S
C1844 C1839 1.350 . S
C1845 H1832 0.929 . S
C1845 C1837 1.433 . S
C1845 N1847 1.384 . S
N1846 C1842 1.427 . S
N1846 C1843 1.384 . S
N1847 C1839 1.427 . S
N1847 C1845 1.384 . S
H1848 C1854 0.930 . S
H1849 C1858 0.930 . S
H1850 C1863 0.929 . S
H1851 C1861 0.929 . S
H1852 C1856 0.929 . S
H1853 C1862 0.929 . S
C1854 H1848 0.930 . S
C1854 C1855 1.367 . S
C1854 C1862 1.378 . S
C1855 C1854 1.367 . S
C1855 C1863 1.433 . S
C1856 H1852 0.929 . S
C1856 C1858 1.378 . S
C1856 C1860 1.350 . S
C1857 C1860 1.463 . S
C1857 C1862 1.350 . S
C1857 N1865 1.427 . S
C1858 H1849 0.930 . S
C1858 C1856 1.378 . S
C1858 C1859 1.367 . S
C1859 C1858 1.367 . S
C1859 C1861 1.433 . S
C1860 C1856 1.350 . S
C1860 C1857 1.463 . S
C1860 N1864 1.427 . S
C1861 H1851 0.929 . S
C1861 C1859 1.433 . S
C1861 N1864 1.384 . S
C1862 H1853 0.929 . S
C1862 C1854 1.378 . S
C1862 C1857 1.350 . S
C1863 H1850 0.929 . S
C1863 C1855 1.433 . S
C1863 N1865 1.384 . S
N1864 C1860 1.427 . S
N1864 C1861 1.384 . S
N1865 C1857 1.427 . S
N1865 C1863 1.384 . S
H1866 C1872 0.930 . S
H1867 C1876 0.930 . S
H1868 C1881 0.929 . S
H1869 C1879 0.929 . S
H1870 C1874 0.929 . S
H1871 C1880 0.929 . S
C1872 H1866 0.930 . S
C1872 C1873 1.367 . S
C1872 C1880 1.378 . S
C1873 C1872 1.367 . S
C1873 C1881 1.433 . S
C1874 H1870 0.929 . S
C1874 C1876 1.378 . S
C1874 C1878 1.350 . S
C1875 C1878 1.463 . S
C1875 C1880 1.350 . S
C1875 N1883 1.427 . S
C1876 H1867 0.930 . S
C1876 C1874 1.378 . S
C1876 C1877 1.367 . S
C1877 C1876 1.367 . S
C1877 C1879 1.433 . S
C1878 C1874 1.350 . S
C1878 C1875 1.463 . S
C1878 N1882 1.427 . S
C1879 H1869 0.929 . S
C1879 C1877 1.433 . S
C1879 N1882 1.384 . S
C1880 H1871 0.929 . S
C1880 C1872 1.378 . S
C1880 C1875 1.350 . S
C1881 H1868 0.929 . S
C1881 C1873 1.433 . S
C1881 N1883 1.384 . S
N1882 C1878 1.427 . S
N1882 C1879 1.384 . S
N1883 C1875 1.427 . S
N1883 C1881 1.384 . S
H1884 C1890 0.930 . S
H1885 C1894 0.930 . S
H1886 C1899 0.929 . S
H1887 C1897 0.929 . S
H1888 C1892 0.929 . S
H1889 C1898 0.929 . S
C1890 H1884 0.930 . S
C1890 C1891 1.367 . S
C1890 C1898 1.378 . S
C1891 C1890 1.367 . S
C1891 C1899 1.433 . S
C1892 H1888 0.929 . S
C1892 C1894 1.378 . S
C1892 C1896 1.350 . S
C1893 C1896 1.463 . S
C1893 C1898 1.350 . S
C1893 N1901 1.427 . S
C1894 H1885 0.930 . S
C1894 C1892 1.378 . S
C1894 C1895 1.367 . S
C1895 C1894 1.367 . S
C1895 C1897 1.433 . S
C1896 C1892 1.350 . S
C1896 C1893 1.463 . S
C1896 N1900 1.427 . S
C1897 H1887 0.929 . S
C1897 C1895 1.433 . S
C1897 N1900 1.384 . S
C1898 H1889 0.929 . S
C1898 C1890 1.378 . S
C1898 C1893 1.350 . S
C1899 H1886 0.929 . S
C1899 C1891 1.433 . S
C1899 N1901 1.384 . S
N1900 C1896 1.427 . S
N1900 C1897 1.384 . S
N1901 C1893 1.427 . S
N1901 C1899 1.384 . S
H1902 C1908 0.930 . S
H1903 C1912 0.930 . S
H1904 C1917 0.929 . S
H1905 C1915 0.929 . S
H1906 C1910 0.929 . S
H1907 C1916 0.929 . S
C1908 H1902 0.930 . S
C1908 C1909 1.367 . S
C1908 C1916 1.378 . S
C1909 C1908 1.367 . S
C1909 C1917 1.433 . S
C1910 H1906 0.929 . S
C1910 C1912 1.378 . S
C1910 C1914 1.350 . S
C1911 C1914 1.463 . S
C1911 C1916 1.350 . S
C1911 N1919 1.427 . S
C1912 H1903 0.930 . S
C1912 C1910 1.378 . S
C1912 C1913 1.367 . S
C1913 C1912 1.367 . S
C1913 C1915 1.433 . S
C1914 C1910 1.350 . S
C1914 C1911 1.463 . S
C1914 N1918 1.427 . S
C1915 H1905 0.929 . S
C1915 C1913 1.433 . S
C1915 N1918 1.384 . S
C1916 H1907 0.929 . S
C1916 C1908 1.378 . S
C1916 C1911 1.350 . S
C1917 H1904 0.929 . S
C1917 C1909 1.433 . S
C1917 N1919 1.384 . S
N1918 C1914 1.427 . S
N1918 C1915 1.384 . S
N1919 C1911 1.427 . S
N1919 C1917 1.384 . S
H1920 C1926 0.930 . S
H1921 C1930 0.930 . S
H1922 C1935 0.929 . S
H1923 C1933 0.929 . S
H1924 C1928 0.929 . S
H1925 C1934 0.929 . S
C1926 H1920 0.930 . S
C1926 C1927 1.367 . S
C1926 C1934 1.378 . S
C1927 C1926 1.367 . S
C1927 C1935 1.433 . S
C1928 H1924 0.929 . S
C1928 C1930 1.378 . S
C1928 C1932 1.350 . S
C1929 C1932 1.463 . S
C1929 C1934 1.350 . S
C1929 N1937 1.427 . S
C1930 H1921 0.930 . S
C1930 C1928 1.378 . S
C1930 C1931 1.367 . S
C1931 C1930 1.367 . S
C1931 C1933 1.433 . S
C1932 C1928 1.350 . S
C1932 C1929 1.463 . S
C1932 N1936 1.427 . S
C1933 H1923 0.929 . S
C1933 C1931 1.433 . S
C1933 N1936 1.384 . S
C1934 H1925 0.929 . S
C1934 C1926 1.378 . S
C1934 C1929 1.350 . S
C1935 H1922 0.929 . S
C1935 C1927 1.433 . S
C1935 N1937 1.384 . S
N1936 C1932 1.427 . S
N1936 C1933 1.384 . S
N1937 C1929 1.427 . S
N1937 C1935 1.384 . S
H1938 C1944 0.930 . S
H1939 C1948 0.930 . S
H1940 C1953 0.929 . S
H1941 C1951 0.929 . S
H1942 C1946 0.929 . S
H1943 C1952 0.929 . S
C1944 H1938 0.930 . S
C1944 C1945 1.367 . S
C1944 C1952 1.378 . S
C1945 C1944 1.367 . S
C1945 C1953 1.433 . S
C1946 H1942 0.929 . S
C1946 C1948 1.378 . S
C1946 C1950 1.350 . S
C1947 C1950 1.463 . S
C1947 C1952 1.350 . S
C1947 N1955 1.427 . S
C1948 H1939 0.930 . S
C1948 C1946 1.378 . S
C1948 C1949 1.367 . S
C1949 C1948 1.367 . S
C1949 C1951 1.433 . S
C1950 C1946 1.350 . S
C1950 C1947 1.463 . S
C1950 N1954 1.427 . S
C1951 H1941 0.929 . S
C1951 C1949 1.433 . S
C1951 N1954 1.384 . S
C1952 H1943 0.929 . S
C1952 C1944 1.378 . S
C1952 C1947 1.350 . S
C1953 H1940 0.929 . S
C1953 C1945 1.433 . S
C1953 N1955 1.384 . S
N1954 C1950 1.427 . S
N1954 C1951 1.384 . S
N1955 C1947 1.427 . S
N1955 C1953 1.384 . S
H1956 C1962 0.930 . S
H1957 C1966 0.930 . S
H1958 C1971 0.929 . S
H1959 C1969 0.929 . S
H1960 C1964 0.929 . S
H1961 C1970 0.929 . S
C1962 H1956 0.930 . S
C1962 C1963 1.367 . S
C1962 C1970 1.378 . S
C1963 C1962 1.367 . S
C1963 C1971 1.433 . S
C1964 H1960 0.929 . S
C1964 C1966 1.378 . S
C1964 C1968 1.350 . S
C1965 C1968 1.463 . S
C1965 C1970 1.350 . S
C1965 N1973 1.427 . S
C1966 H1957 0.930 . S
C1966 C1964 1.378 . S
C1966 C1967 1.367 . S
C1967 C1966 1.367 . S
C1967 C1969 1.433 . S
C1968 C1964 1.350 . S
C1968 C1965 1.463 . S
C1968 N1972 1.427 . S
C1969 H1959 0.929 . S
C1969 C1967 1.433 . S
C1969 N1972 1.384 . S
C1970 H1961 0.929 . S
C1970 C1962 1.378 . S
C1970 C1965 1.350 . S
C1971 H1958 0.929 . S
C1971 C1963 1.433 . S
C1971 N1973 1.384 . S
N1972 C1968 1.427 . S
N1972 C1969 1.384 . S
N1973 C1965 1.427 . S
N1973 C1971 1.384 . S
H1974 C1980 0.930 . S
H1975 C1984 0.930 . S
H1976 C1989 0.929 . S
H1977 C1987 0.929 . S
H1978 C1982 0.929 . S
H1979 C1988 0.929 . S
C1980 H1974 0.930 . S
C1980 C1981 1.367 . S
C1980 C1988 1.378 . S
C1981 C1980 1.367 . S
C1981 C1989 1.433 . S
C1982 H1978 0.929 . S
C1982 C1984 1.378 . S
C1982 C1986 1.350 . S
C1983 C1986 1.463 . S
C1983 C1988 1.350 . S
C1983 N1991 1.427 . S
C1984 H1975 0.930 . S
C1984 C1982 1.378 . S
C1984 C1985 1.367 . S
C1985 C1984 1.367 . S
C1985 C1987 1.433 . S
C1986 C1982 1.350 . S
C1986 C1983 1.463 . S
C1986 N1990 1.427 . S
C1987 H1977 0.929 . S
C1987 C1985 1.433 . S
C1987 N1990 1.384 . S
C1988 H1979 0.929 . S
C1988 C1980 1.378 . S
C1988 C1983 1.350 . S
C1989 H1976 0.929 . S
C1989 C1981 1.433 . S
C1989 N1991 1.384 . S
N1990 C1986 1.427 . S
N1990 C1987 1.384 . S
N1991 C1983 1.427 . S
N1991 C1989 1.384 . S
H1992 C1998 0.930 . S
H1993 C2002 0.930 . S
H1994 C2007 0.929 . S
H1995 C2005 0.929 . S
H1996 C2000 0.929 . S
H1997 C2006 0.929 . S
C1998 H1992 0.930 . S
C1998 C1999 1.367 . S
C1998 C2006 1.378 . S
C1999 C1998 1.367 . S
C1999 C2007 1.433 . S
C2000 H1996 0.929 . S
C2000 C2002 1.378 . S
C2000 C2004 1.350 . S
C2001 C2004 1.463 . S
C2001 C2006 1.350 . S
C2001 N2009 1.427 . S
C2002 H1993 0.930 . S
C2002 C2000 1.378 . S
C2002 C2003 1.367 . S
C2003 C2002 1.367 . S
C2003 C2005 1.433 . S
C2004 C2000 1.350 . S
C2004 C2001 1.463 . S
C2004 N2008 1.427 . S
C2005 H1995 0.929 . S
C2005 C2003 1.433 . S
C2005 N2008 1.384 . S
C2006 H1997 0.929 . S
C2006 C1998 1.378 . S
C2006 C2001 1.350 . S
C2007 H1994 0.929 . S
C2007 C1999 1.433 . S
C2007 N2009 1.384 . S
N2008 C2004 1.427 . S
N2008 C2005 1.384 . S
N2009 C2001 1.427 . S
N2009 C2007 1.384 . S
H2010 C2016 0.930 . S
H2011 C2020 0.930 . S
H2012 C2025 0.929 . S
H2013 C2023 0.929 . S
H2014 C2018 0.929 . S
H2015 C2024 0.929 . S
C2016 H2010 0.930 . S
C2016 C2017 1.367 . S
C2016 C2024 1.378 . S
C2017 C2016 1.367 . S
C2017 C2025 1.433 . S
C2018 H2014 0.929 . S
C2018 C2020 1.378 . S
C2018 C2022 1.350 . S
C2019 C2022 1.463 . S
C2019 C2024 1.350 . S
C2019 N2027 1.427 . S
C2020 H2011 0.930 . S
C2020 C2018 1.378 . S
C2020 C2021 1.367 . S
C2021 C2020 1.367 . S
C2021 C2023 1.433 . S
C2022 C2018 1.350 . S
C2022 C2019 1.463 . S
C2022 N2026 1.427 . S
C2023 H2013 0.929 . S
C2023 C2021 1.433 . S
C2023 N2026 1.384 . S
C2024 H2015 0.929 . S
C2024 C2016 1.378 . S
C2024 C2019 1.350 . S
C2025 H2012 0.929 . S
C2025 C2017 1.433 . S
C2025 N2027 1.384 . S
N2026 C2022 1.427 . S
N2026 C2023 1.384 . S
N2027 C2019 1.427 . S
N2027 C2025 1.384 . S
H2028 C2034 0.930 . S
H2029 C2038 0.930 . S
H2030 C2043 0.929 . S
H2031 C2041 0.929 . S
H2032 C2036 0.929 . S
H2033 C2042 0.929 . S
C2034 H2028 0.930 . S
C2034 C2035 1.367 . S
C2034 C2042 1.378 . S
C2035 C2034 1.367 . S
C2035 C2043 1.433 . S
C2036 H2032 0.929 . S
C2036 C2038 1.378 . S
C2036 C2040 1.350 . S
C2037 C2040 1.463 . S
C2037 C2042 1.350 . S
C2037 N2045 1.427 . S
C2038 H2029 0.930 . S
C2038 C2036 1.378 . S
C2038 C2039 1.367 . S
C2039 C2038 1.367 . S
C2039 C2041 1.433 . S
C2040 C2036 1.350 . S
C2040 C2037 1.463 . S
C2040 N2044 1.427 . S
C2041 H2031 0.929 . S
C2041 C2039 1.433 . S
C2041 N2044 1.384 . S
C2042 H2033 0.929 . S
C2042 C2034 1.378 . S
C2042 C2037 1.350 . S
C2043 H2030 0.929 . S
C2043 C2035 1.433 . S
C2043 N2045 1.384 . S
N2044 C2040 1.427 . S
N2044 C2041 1.384 . S
N2045 C2037 1.427 . S
N2045 C2043 1.384 . S
H2046 C2052 0.930 . S
H2047 C2056 0.930 . S
H2048 C2061 0.929 . S
H2049 C2059 0.929 . S
H2050 C2054 0.929 . S
H2051 C2060 0.929 . S
C2052 H2046 0.930 . S
C2052 C2053 1.367 . S
C2052 C2060 1.378 . S
C2053 C2052 1.367 . S
C2053 C2061 1.433 . S
C2054 H2050 0.929 . S
C2054 C2056 1.378 . S
C2054 C2058 1.350 . S
C2055 C2058 1.463 . S
C2055 C2060 1.350 . S
C2055 N2063 1.427 . S
C2056 H2047 0.930 . S
C2056 C2054 1.378 . S
C2056 C2057 1.367 . S
C2057 C2056 1.367 . S
C2057 C2059 1.433 . S
C2058 C2054 1.350 . S
C2058 C2055 1.463 . S
C2058 N2062 1.427 . S
C2059 H2049 0.929 . S
C2059 C2057 1.433 . S
C2059 N2062 1.384 . S
C2060 H2051 0.929 . S
C2060 C2052 1.378 . S
C2060 C2055 1.350 . S
C2061 H2048 0.929 . S
C2061 C2053 1.433 . S
C2061 N2063 1.384 . S
N2062 C2058 1.427 . S
N2062 C2059 1.384 . S
N2063 C2055 1.427 . S
N2063 C2061 1.384 . S
H2064 C2070 0.930 . S
H2065 C2074 0.930 . S
H2066 C2079 0.929 . S
H2067 C2077 0.929 . S
H2068 C2072 0.929 . S
H2069 C2078 0.929 . S
C2070 H2064 0.930 . S
C2070 C2071 1.367 . S
C2070 C2078 1.378 . S
C2071 C2070 1.367 . S
C2071 C2079 1.433 . S
C2072 H2068 0.929 . S
C2072 C2074 1.378 . S
C2072 C2076 1.350 . S
C2073 C2076 1.463 . S
C2073 C2078 1.350 . S
C2073 N2081 1.427 . S
C2074 H2065 0.930 . S
C2074 C2072 1.378 . S
C2074 C2075 1.367 . S
C2075 C2074 1.367 . S
C2075 C2077 1.433 . S
C2076 C2072 1.350 . S
C2076 C2073 1.463 . S
C2076 N2080 1.427 . S
C2077 H2067 0.929 . S
C2077 C2075 1.433 . S
C2077 N2080 1.384 . S
C2078 H2069 0.929 . S
C2078 C2070 1.378 . S
C2078 C2073 1.350 . S
C2079 H2066 0.929 . S
C2079 C2071 1.433 . S
C2079 N2081 1.384 . S
N2080 C2076 1.427 . S
N2080 C2077 1.384 . S
N2081 C2073 1.427 . S
N2081 C2079 1.384 . S
H2082 C2088 0.930 . S
H2083 C2092 0.930 . S
H2084 C2097 0.929 . S
H2085 C2095 0.929 . S
H2086 C2090 0.929 . S
H2087 C2096 0.929 . S
C2088 H2082 0.930 . S
C2088 C2089 1.367 . S
C2088 C2096 1.378 . S
C2089 C2088 1.367 . S
C2089 C2097 1.433 . S
C2090 H2086 0.929 . S
C2090 C2092 1.378 . S
C2090 C2094 1.350 . S
C2091 C2094 1.463 . S
C2091 C2096 1.350 . S
C2091 N2099 1.427 . S
C2092 H2083 0.930 . S
C2092 C2090 1.378 . S
C2092 C2093 1.367 . S
C2093 C2092 1.367 . S
C2093 C2095 1.433 . S
C2094 C2090 1.350 . S
C2094 C2091 1.463 . S
C2094 N2098 1.427 . S
C2095 H2085 0.929 . S
C2095 C2093 1.433 . S
C2095 N2098 1.384 . S
C2096 H2087 0.929 . S
C2096 C2088 1.378 . S
C2096 C2091 1.350 . S
C2097 H2084 0.929 . S
C2097 C2089 1.433 . S
C2097 N2099 1.384 . S
N2098 C2094 1.427 . S
N2098 C2095 1.384 . S
N2099 C2091 1.427 . S
N2099 C2097 1.384 . S
H2100 C2106 0.930 . S
H2101 C2110 0.930 . S
H2102 C2115 0.929 . S
H2103 C2113 0.929 . S
H2104 C2108 0.929 . S
H2105 C2114 0.929 . S
C2106 H2100 0.930 . S
C2106 C2107 1.367 . S
C2106 C2114 1.378 . S
C2107 C2106 1.367 . S
C2107 C2115 1.433 . S
C2108 H2104 0.929 . S
C2108 C2110 1.378 . S
C2108 C2112 1.350 . S
C2109 C2112 1.463 . S
C2109 C2114 1.350 . S
C2109 N2117 1.427 . S
C2110 H2101 0.930 . S
C2110 C2108 1.378 . S
C2110 C2111 1.367 . S
C2111 C2110 1.367 . S
C2111 C2113 1.433 . S
C2112 C2108 1.350 . S
C2112 C2109 1.463 . S
C2112 N2116 1.427 . S
C2113 H2103 0.929 . S
C2113 C2111 1.433 . S
C2113 N2116 1.384 . S
C2114 H2105 0.929 . S
C2114 C2106 1.378 . S
C2114 C2109 1.350 . S
C2115 H2102 0.929 . S
C2115 C2107 1.433 . S
C2115 N2117 1.384 . S
N2116 C2112 1.427 . S
N2116 C2113 1.384 . S
N2117 C2109 1.427 . S
N2117 C2115 1.384 . S
H2118 C2124 0.930 . S
H2119 C2128 0.930 . S
H2120 C2133 0.929 . S
H2121 C2131 0.929 . S
H2122 C2126 0.929 . S
H2123 C2132 0.929 . S
C2124 H2118 0.930 . S
C2124 C2125 1.367 . S
C2124 C2132 1.378 . S
C2125 C2124 1.367 . S
C2125 C2133 1.433 . S
C2126 H2122 0.929 . S
C2126 C2128 1.378 . S
C2126 C2130 1.350 . S
C2127 C2130 1.463 . S
C2127 C2132 1.350 . S
C2127 N2135 1.427 . S
C2128 H2119 0.930 . S
C2128 C2126 1.378 . S
C2128 C2129 1.367 . S
C2129 C2128 1.367 . S
C2129 C2131 1.433 . S
C2130 C2126 1.350 . S
C2130 C2127 1.463 . S
C2130 N2134 1.427 . S
C2131 H2121 0.929 . S
C2131 C2129 1.433 . S
C2131 N2134 1.384 . S
C2132 H2123 0.929 . S
C2132 C2124 1.378 . S
C2132 C2127 1.350 . S
C2133 H2120 0.929 . S
C2133 C2125 1.433 . S
C2133 N2135 1.384 . S
N2134 C2130 1.427 . S
N2134 C2131 1.384 . S
N2135 C2127 1.427 . S
N2135 C2133 1.384 . S
H2136 C2142 0.930 . S
H2137 C2146 0.930 . S
H2138 C2151 0.929 . S
H2139 C2149 0.929 . S
H2140 C2144 0.929 . S
H2141 C2150 0.929 . S
C2142 H2136 0.930 . S
C2142 C2143 1.367 . S
C2142 C2150 1.378 . S
C2143 C2142 1.367 . S
C2143 C2151 1.433 . S
C2144 H2140 0.929 . S
C2144 C2146 1.378 . S
C2144 C2148 1.350 . S
C2145 C2148 1.463 . S
C2145 C2150 1.350 . S
C2145 N2153 1.427 . S
C2146 H2137 0.930 . S
C2146 C2144 1.378 . S
C2146 C2147 1.367 . S
C2147 C2146 1.367 . S
C2147 C2149 1.433 . S
C2148 C2144 1.350 . S
C2148 C2145 1.463 . S
C2148 N2152 1.427 . S
C2149 H2139 0.929 . S
C2149 C2147 1.433 . S
C2149 N2152 1.384 . S
C2150 H2141 0.929 . S
C2150 C2142 1.378 . S
C2150 C2145 1.350 . S
C2151 H2138 0.929 . S
C2151 C2143 1.433 . S
C2151 N2153 1.384 . S
N2152 C2148 1.427 . S
N2152 C2149 1.384 . S
N2153 C2145 1.427 . S
N2153 C2151 1.384 . S
H2154 C2160 0.930 . S
H2155 C2164 0.930 . S
H2156 C2169 0.929 . S
H2157 C2167 0.929 . S
H2158 C2162 0.929 . S
H2159 C2168 0.929 . S
C2160 H2154 0.930 . S
C2160 C2161 1.367 . S
C2160 C2168 1.378 . S
C2161 C2160 1.367 . S
C2161 C2169 1.433 . S
C2162 H2158 0.929 . S
C2162 C2164 1.378 . S
C2162 C2166 1.350 . S
C2163 C2166 1.463 . S
C2163 C2168 1.350 . S
C2163 N2171 1.427 . S
C2164 H2155 0.930 . S
C2164 C2162 1.378 . S
C2164 C2165 1.367 . S
C2165 C2164 1.367 . S
C2165 C2167 1.433 . S
C2166 C2162 1.350 . S
C2166 C2163 1.463 . S
C2166 N2170 1.427 . S
C2167 H2157 0.929 . S
C2167 C2165 1.433 . S
C2167 N2170 1.384 . S
C2168 H2159 0.929 . S
C2168 C2160 1.378 . S
C2168 C2163 1.350 . S
C2169 H2156 0.929 . S
C2169 C2161 1.433 . S
C2169 N2171 1.384 . S
N2170 C2166 1.427 . S
N2170 C2167 1.384 . S
N2171 C2163 1.427 . S
N2171 C2169 1.384 . S
H2172 C2178 0.930 . S
H2173 C2182 0.930 . S
H2174 C2187 0.929 . S
H2175 C2185 0.929 . S
H2176 C2180 0.929 . S
H2177 C2186 0.929 . S
C2178 H2172 0.930 . S
C2178 C2179 1.367 . S
C2178 C2186 1.378 . S
C2179 C2178 1.367 . S
C2179 C2187 1.433 . S
C2180 H2176 0.929 . S
C2180 C2182 1.378 . S
C2180 C2184 1.350 . S
C2181 C2184 1.463 . S
C2181 C2186 1.350 . S
C2181 N2189 1.427 . S
C2182 H2173 0.930 . S
C2182 C2180 1.378 . S
C2182 C2183 1.367 . S
C2183 C2182 1.367 . S
C2183 C2185 1.433 . S
C2184 C2180 1.350 . S
C2184 C2181 1.463 . S
C2184 N2188 1.427 . S
C2185 H2175 0.929 . S
C2185 C2183 1.433 . S
C2185 N2188 1.384 . S
C2186 H2177 0.929 . S
C2186 C2178 1.378 . S
C2186 C2181 1.350 . S
C2187 H2174 0.929 . S
C2187 C2179 1.433 . S
C2187 N2189 1.384 . S
N2188 C2184 1.427 . S
N2188 C2185 1.384 . S
N2189 C2181 1.427 . S
N2189 C2187 1.384 . S
H2190 C2196 0.930 . S
H2191 C2200 0.930 . S
H2192 C2205 0.929 . S
H2193 C2203 0.929 . S
H2194 C2198 0.929 . S
H2195 C2204 0.929 . S
C2196 H2190 0.930 . S
C2196 C2197 1.367 . S
C2196 C2204 1.378 . S
C2197 C2196 1.367 . S
C2197 C2205 1.433 . S
C2198 H2194 0.929 . S
C2198 C2200 1.378 . S
C2198 C2202 1.350 . S
C2199 C2202 1.463 . S
C2199 C2204 1.350 . S
C2199 N2207 1.427 . S
C2200 H2191 0.930 . S
C2200 C2198 1.378 . S
C2200 C2201 1.367 . S
C2201 C2200 1.367 . S
C2201 C2203 1.433 . S
C2202 C2198 1.350 . S
C2202 C2199 1.463 . S
C2202 N2206 1.427 . S
C2203 H2193 0.929 . S
C2203 C2201 1.433 . S
C2203 N2206 1.384 . S
C2204 H2195 0.929 . S
C2204 C2196 1.378 . S
C2204 C2199 1.350 . S
C2205 H2192 0.929 . S
C2205 C2197 1.433 . S
C2205 N2207 1.384 . S
N2206 C2202 1.427 . S
N2206 C2203 1.384 . S
N2207 C2199 1.427 . S
N2207 C2205 1.384 . S
H2208 C2214 0.930 . S
H2209 C2218 0.930 . S
H2210 C2223 0.929 . S
H2211 C2221 0.929 . S
H2212 C2216 0.929 . S
H2213 C2222 0.929 . S
C2214 H2208 0.930 . S
C2214 C2215 1.367 . S
C2214 C2222 1.378 . S
C2215 C2214 1.367 . S
C2215 C2223 1.433 . S
C2216 H2212 0.929 . S
C2216 C2218 1.378 . S
C2216 C2220 1.350 . S
C2217 C2220 1.463 . S
C2217 C2222 1.350 . S
C2217 N2225 1.427 . S
C2218 H2209 0.930 . S
C2218 C2216 1.378 . S
C2218 C2219 1.367 . S
C2219 C2218 1.367 . S
C2219 C2221 1.433 . S
C2220 C2216 1.350 . S
C2220 C2217 1.463 . S
C2220 N2224 1.427 . S
C2221 H2211 0.929 . S
C2221 C2219 1.433 . S
C2221 N2224 1.384 . S
C2222 H2213 0.929 . S
C2222 C2214 1.378 . S
C2222 C2217 1.350 . S
C2223 H2210 0.929 . S
C2223 C2215 1.433 . S
C2223 N2225 1.384 . S
N2224 C2220 1.427 . S
N2224 C2221 1.384 . S
N2225 C2217 1.427 . S
N2225 C2223 1.384 . S
H2226 C2232 0.930 . S
H2227 C2236 0.930 . S
H2228 C2241 0.929 . S
H2229 C2239 0.929 . S
H2230 C2234 0.929 . S
H2231 C2240 0.929 . S
C2232 H2226 0.930 . S
C2232 C2233 1.367 . S
C2232 C2240 1.378 . S
C2233 C2232 1.367 . S
C2233 C2241 1.433 . S
C2234 H2230 0.929 . S
C2234 C2236 1.378 . S
C2234 C2238 1.350 . S
C2235 C2238 1.463 . S
C2235 C2240 1.350 . S
C2235 N2243 1.427 . S
C2236 H2227 0.930 . S
C2236 C2234 1.378 . S
C2236 C2237 1.367 . S
C2237 C2236 1.367 . S
C2237 C2239 1.433 . S
C2238 C2234 1.350 . S
C2238 C2235 1.463 . S
C2238 N2242 1.427 . S
C2239 H2229 0.929 . S
C2239 C2237 1.433 . S
C2239 N2242 1.384 . S
C2240 H2231 0.929 . S
C2240 C2232 1.378 . S
C2240 C2235 1.350 . S
C2241 H2228 0.929 . S
C2241 C2233 1.433 . S
C2241 N2243 1.384 . S
N2242 C2238 1.427 . S
N2242 C2239 1.384 . S
N2243 C2235 1.427 . S
N2243 C2241 1.384 . S
H2244 C2250 0.930 . S
H2245 C2254 0.930 . S
H2246 C2259 0.929 . S
H2247 C2257 0.929 . S
H2248 C2252 0.929 . S
H2249 C2258 0.929 . S
C2250 H2244 0.930 . S
C2250 C2251 1.367 . S
C2250 C2258 1.378 . S
C2251 C2250 1.367 . S
C2251 C2259 1.433 . S
C2252 H2248 0.929 . S
C2252 C2254 1.378 . S
C2252 C2256 1.350 . S
C2253 C2256 1.463 . S
C2253 C2258 1.350 . S
C2253 N2261 1.427 . S
C2254 H2245 0.930 . S
C2254 C2252 1.378 . S
C2254 C2255 1.367 . S
C2255 C2254 1.367 . S
C2255 C2257 1.433 . S
C2256 C2252 1.350 . S
C2256 C2253 1.463 . S
C2256 N2260 1.427 . S
C2257 H2247 0.929 . S
C2257 C2255 1.433 . S
C2257 N2260 1.384 . S
C2258 H2249 0.929 . S
C2258 C2250 1.378 . S
C2258 C2253 1.350 . S
C2259 H2246 0.929 . S
C2259 C2251 1.433 . S
C2259 N2261 1.384 . S
N2260 C2256 1.427 . S
N2260 C2257 1.384 . S
N2261 C2253 1.427 . S
N2261 C2259 1.384 . S
H2262 C2268 0.930 . S
H2263 C2272 0.930 . S
H2264 C2277 0.929 . S
H2265 C2275 0.929 . S
H2266 C2270 0.929 . S
H2267 C2276 0.929 . S
C2268 H2262 0.930 . S
C2268 C2269 1.367 . S
C2268 C2276 1.378 . S
C2269 C2268 1.367 . S
C2269 C2277 1.433 . S
C2270 H2266 0.929 . S
C2270 C2272 1.378 . S
C2270 C2274 1.350 . S
C2271 C2274 1.463 . S
C2271 C2276 1.350 . S
C2271 N2279 1.427 . S
C2272 H2263 0.930 . S
C2272 C2270 1.378 . S
C2272 C2273 1.367 . S
C2273 C2272 1.367 . S
C2273 C2275 1.433 . S
C2274 C2270 1.350 . S
C2274 C2271 1.463 . S
C2274 N2278 1.427 . S
C2275 H2265 0.929 . S
C2275 C2273 1.433 . S
C2275 N2278 1.384 . S
C2276 H2267 0.929 . S
C2276 C2268 1.378 . S
C2276 C2271 1.350 . S
C2277 H2264 0.929 . S
C2277 C2269 1.433 . S
C2277 N2279 1.384 . S
N2278 C2274 1.427 . S
N2278 C2275 1.384 . S
N2279 C2271 1.427 . S
N2279 C2277 1.384 . S
H2280 C2286 0.930 . S
H2281 C2290 0.930 . S
H2282 C2295 0.929 . S
H2283 C2293 0.929 . S
H2284 C2288 0.929 . S
H2285 C2294 0.929 . S
C2286 H2280 0.930 . S
C2286 C2287 1.367 . S
C2286 C2294 1.378 . S
C2287 C2286 1.367 . S
C2287 C2295 1.433 . S
C2288 H2284 0.929 . S
C2288 C2290 1.378 . S
C2288 C2292 1.350 . S
C2289 C2292 1.463 . S
C2289 C2294 1.350 . S
C2289 N2297 1.427 . S
C2290 H2281 0.930 . S
C2290 C2288 1.378 . S
C2290 C2291 1.367 . S
C2291 C2290 1.367 . S
C2291 C2293 1.433 . S
C2292 C2288 1.350 . S
C2292 C2289 1.463 . S
C2292 N2296 1.427 . S
C2293 H2283 0.929 . S
C2293 C2291 1.433 . S
C2293 N2296 1.384 . S
C2294 H2285 0.929 . S
C2294 C2286 1.378 . S
C2294 C2289 1.350 . S
C2295 H2282 0.929 . S
C2295 C2287 1.433 . S
C2295 N2297 1.384 . S
N2296 C2292 1.427 . S
N2296 C2293 1.384 . S
N2297 C2289 1.427 . S
N2297 C2295 1.384 . S
H2298 C2304 0.930 . S
H2299 C2308 0.930 . S
H2300 C2313 0.929 . S
H2301 C2311 0.929 . S
H2302 C2306 0.929 . S
H2303 C2312 0.929 . S
C2304 H2298 0.930 . S
C2304 C2305 1.367 . S
C2304 C2312 1.378 . S
C2305 C2304 1.367 . S
C2305 C2313 1.433 . S
C2306 H2302 0.929 . S
C2306 C2308 1.378 . S
C2306 C2310 1.350 . S
C2307 C2310 1.463 . S
C2307 C2312 1.350 . S
C2307 N2315 1.427 . S
C2308 H2299 0.930 . S
C2308 C2306 1.378 . S
C2308 C2309 1.367 . S
C2309 C2308 1.367 . S
C2309 C2311 1.433 . S
C2310 C2306 1.350 . S
C2310 C2307 1.463 . S
C2310 N2314 1.427 . S
C2311 H2301 0.929 . S
C2311 C2309 1.433 . S
C2311 N2314 1.384 . S
C2312 H2303 0.929 . S
C2312 C2304 1.378 . S
C2312 C2307 1.350 . S
C2313 H2300 0.929 . S
C2313 C2305 1.433 . S
C2313 N2315 1.384 . S
N2314 C2310 1.427 . S
N2314 C2311 1.384 . S
N2315 C2307 1.427 . S
N2315 C2313 1.384 . S
H2316 C2322 0.930 . S
H2317 C2326 0.930 . S
H2318 C2331 0.929 . S
H2319 C2329 0.929 . S
H2320 C2324 0.929 . S
H2321 C2330 0.929 . S
C2322 H2316 0.930 . S
C2322 C2323 1.367 . S
C2322 C2330 1.378 . S
C2323 C2322 1.367 . S
C2323 C2331 1.433 . S
C2324 H2320 0.929 . S
C2324 C2326 1.378 . S
C2324 C2328 1.350 . S
C2325 C2328 1.463 . S
C2325 C2330 1.350 . S
C2325 N2333 1.427 . S
C2326 H2317 0.930 . S
C2326 C2324 1.378 . S
C2326 C2327 1.367 . S
C2327 C2326 1.367 . S
C2327 C2329 1.433 . S
C2328 C2324 1.350 . S
C2328 C2325 1.463 . S
C2328 N2332 1.427 . S
C2329 H2319 0.929 . S
C2329 C2327 1.433 . S
C2329 N2332 1.384 . S
C2330 H2321 0.929 . S
C2330 C2322 1.378 . S
C2330 C2325 1.350 . S
C2331 H2318 0.929 . S
C2331 C2323 1.433 . S
C2331 N2333 1.384 . S
N2332 C2328 1.427 . S
N2332 C2329 1.384 . S
N2333 C2325 1.427 . S
N2333 C2331 1.384 . S
H2334 C2340 0.930 . S
H2335 C2344 0.930 . S
H2336 C2349 0.929 . S
H2337 C2347 0.929 . S
H2338 C2342 0.929 . S
H2339 C2348 0.929 . S
C2340 H2334 0.930 . S
C2340 C2341 1.367 . S
C2340 C2348 1.378 . S
C2341 C2340 1.367 . S
C2341 C2349 1.433 . S
C2342 H2338 0.929 . S
C2342 C2344 1.378 . S
C2342 C2346 1.350 . S
C2343 C2346 1.463 . S
C2343 C2348 1.350 . S
C2343 N2351 1.427 . S
C2344 H2335 0.930 . S
C2344 C2342 1.378 . S
C2344 C2345 1.367 . S
C2345 C2344 1.367 . S
C2345 C2347 1.433 . S
C2346 C2342 1.350 . S
C2346 C2343 1.463 . S
C2346 N2350 1.427 . S
C2347 H2337 0.929 . S
C2347 C2345 1.433 . S
C2347 N2350 1.384 . S
C2348 H2339 0.929 . S
C2348 C2340 1.378 . S
C2348 C2343 1.350 . S
C2349 H2336 0.929 . S
C2349 C2341 1.433 . S
C2349 N2351 1.384 . S
N2350 C2346 1.427 . S
N2350 C2347 1.384 . S
N2351 C2343 1.427 . S
N2351 C2349 1.384 . S
H2352 C2358 0.930 . S
H2353 C2362 0.930 . S
H2354 C2367 0.929 . S
H2355 C2365 0.929 . S
H2356 C2360 0.929 . S
H2357 C2366 0.929 . S
C2358 H2352 0.930 . S
C2358 C2359 1.367 . S
C2358 C2366 1.378 . S
C2359 C2358 1.367 . S
C2359 C2367 1.433 . S
C2360 H2356 0.929 . S
C2360 C2362 1.378 . S
C2360 C2364 1.350 . S
C2361 C2364 1.463 . S
C2361 C2366 1.350 . S
C2361 N2369 1.427 . S
C2362 H2353 0.930 . S
C2362 C2360 1.378 . S
C2362 C2363 1.367 . S
C2363 C2362 1.367 . S
C2363 C2365 1.433 . S
C2364 C2360 1.350 . S
C2364 C2361 1.463 . S
C2364 N2368 1.427 . S
C2365 H2355 0.929 . S
C2365 C2363 1.433 . S
C2365 N2368 1.384 . S
C2366 H2357 0.929 . S
C2366 C2358 1.378 . S
C2366 C2361 1.350 . S
C2367 H2354 0.929 . S
C2367 C2359 1.433 . S
C2367 N2369 1.384 . S
N2368 C2364 1.427 . S
N2368 C2365 1.384 . S
N2369 C2361 1.427 . S
N2369 C2367 1.384 . S
H2370 C2376 0.930 . S
H2371 C2380 0.930 . S
H2372 C2385 0.929 . S
H2373 C2383 0.929 . S
H2374 C2378 0.929 . S
H2375 C2384 0.929 . S
C2376 H2370 0.930 . S
C2376 C2377 1.367 . S
C2376 C2384 1.378 . S
C2377 C2376 1.367 . S
C2377 C2385 1.433 . S
C2378 H2374 0.929 . S
C2378 C2380 1.378 . S
C2378 C2382 1.350 . S
C2379 C2382 1.463 . S
C2379 C2384 1.350 . S
C2379 N2387 1.427 . S
C2380 H2371 0.930 . S
C2380 C2378 1.378 . S
C2380 C2381 1.367 . S
C2381 C2380 1.367 . S
C2381 C2383 1.433 . S
C2382 C2378 1.350 . S
C2382 C2379 1.463 . S
C2382 N2386 1.427 . S
C2383 H2373 0.929 . S
C2383 C2381 1.433 . S
C2383 N2386 1.384 . S
C2384 H2375 0.929 . S
C2384 C2376 1.378 . S
C2384 C2379 1.350 . S
C2385 H2372 0.929 . S
C2385 C2377 1.433 . S
C2385 N2387 1.384 . S
N2386 C2382 1.427 . S
N2386 C2383 1.384 . S
N2387 C2379 1.427 . S
N2387 C2385 1.384 . S
H2388 C2394 0.930 . S
H2389 C2398 0.930 . S
H2390 C2403 0.929 . S
H2391 C2401 0.929 . S
H2392 C2396 0.929 . S
H2393 C2402 0.929 . S
C2394 H2388 0.930 . S
C2394 C2395 1.367 . S
C2394 C2402 1.378 . S
C2395 C2394 1.367 . S
C2395 C2403 1.433 . S
C2396 H2392 0.929 . S
C2396 C2398 1.378 . S
C2396 C2400 1.350 . S
C2397 C2400 1.463 . S
C2397 C2402 1.350 . S
C2397 N2405 1.427 . S
C2398 H2389 0.930 . S
C2398 C2396 1.378 . S
C2398 C2399 1.367 . S
C2399 C2398 1.367 . S
C2399 C2401 1.433 . S
C2400 C2396 1.350 . S
C2400 C2397 1.463 . S
C2400 N2404 1.427 . S
C2401 H2391 0.929 . S
C2401 C2399 1.433 . S
C2401 N2404 1.384 . S
C2402 H2393 0.929 . S
C2402 C2394 1.378 . S
C2402 C2397 1.350 . S
C2403 H2390 0.929 . S
C2403 C2395 1.433 . S
C2403 N2405 1.384 . S
N2404 C2400 1.427 . S
N2404 C2401 1.384 . S
N2405 C2397 1.427 . S
N2405 C2403 1.384 . S
H2406 C2412 0.930 . S
H2407 C2416 0.930 . S
H2408 C2421 0.929 . S
H2409 C2419 0.929 . S
H2410 C2414 0.929 . S
H2411 C2420 0.929 . S
C2412 H2406 0.930 . S
C2412 C2413 1.367 . S
C2412 C2420 1.378 . S
C2413 C2412 1.367 . S
C2413 C2421 1.433 . S
C2414 H2410 0.929 . S
C2414 C2416 1.378 . S
C2414 C2418 1.350 . S
C2415 C2418 1.463 . S
C2415 C2420 1.350 . S
C2415 N2423 1.427 . S
C2416 H2407 0.930 . S
C2416 C2414 1.378 . S
C2416 C2417 1.367 . S
C2417 C2416 1.367 . S
C2417 C2419 1.433 . S
C2418 C2414 1.350 . S
C2418 C2415 1.463 . S
C2418 N2422 1.427 . S
C2419 H2409 0.929 . S
C2419 C2417 1.433 . S
C2419 N2422 1.384 . S
C2420 H2411 0.929 . S
C2420 C2412 1.378 . S
C2420 C2415 1.350 . S
C2421 H2408 0.929 . S
C2421 C2413 1.433 . S
C2421 N2423 1.384 . S
N2422 C2418 1.427 . S
N2422 C2419 1.384 . S
N2423 C2415 1.427 . S
N2423 C2421 1.384 . S
H2424 C2430 0.930 . S
H2425 C2434 0.930 . S
H2426 C2439 0.929 . S
H2427 C2437 0.929 . S
H2428 C2432 0.929 . S
H2429 C2438 0.929 . S
C2430 H2424 0.930 . S
C2430 C2431 1.367 . S
C2430 C2438 1.378 . S
C2431 C2430 1.367 . S
C2431 C2439 1.433 . S
C2432 H2428 0.929 . S
C2432 C2434 1.378 . S
C2432 C2436 1.350 . S
C2433 C2436 1.463 . S
C2433 C2438 1.350 . S
C2433 N2441 1.427 . S
C2434 H2425 0.930 . S
C2434 C2432 1.378 . S
C2434 C2435 1.367 . S
C2435 C2434 1.367 . S
C2435 C2437 1.433 . S
C2436 C2432 1.350 . S
C2436 C2433 1.463 . S
C2436 N2440 1.427 . S
C2437 H2427 0.929 . S
C2437 C2435 1.433 . S
C2437 N2440 1.384 . S
C2438 H2429 0.929 . S
C2438 C2430 1.378 . S
C2438 C2433 1.350 . S
C2439 H2426 0.929 . S
C2439 C2431 1.433 . S
C2439 N2441 1.384 . S
N2440 C2436 1.427 . S
N2440 C2437 1.384 . S
N2441 C2433 1.427 . S
N2441 C2439 1.384 . S
H2442 C2448 0.930 . S
H2443 C2452 0.930 . S
H2444 C2457 0.929 . S
H2445 C2455 0.929 . S
H2446 C2450 0.929 . S
H2447 C2456 0.929 . S
C2448 H2442 0.930 . S
C2448 C2449 1.367 . S
C2448 C2456 1.378 . S
C2449 C2448 1.367 . S
C2449 C2457 1.433 . S
C2450 H2446 0.929 . S
C2450 C2452 1.378 . S
C2450 C2454 1.350 . S
C2451 C2454 1.463 . S
C2451 C2456 1.350 . S
C2451 N2459 1.427 . S
C2452 H2443 0.930 . S
C2452 C2450 1.378 . S
C2452 C2453 1.367 . S
C2453 C2452 1.367 . S
C2453 C2455 1.433 . S
C2454 C2450 1.350 . S
C2454 C2451 1.463 . S
C2454 N2458 1.427 . S
C2455 H2445 0.929 . S
C2455 C2453 1.433 . S
C2455 N2458 1.384 . S
C2456 H2447 0.929 . S
C2456 C2448 1.378 . S
C2456 C2451 1.350 . S
C2457 H2444 0.929 . S
C2457 C2449 1.433 . S
C2457 N2459 1.384 . S
N2458 C2454 1.427 . S
N2458 C2455 1.384 . S
N2459 C2451 1.427 . S
N2459 C2457 1.384 . S
H2460 C2466 0.930 . S
H2461 C2470 0.930 . S
H2462 C2475 0.929 . S
H2463 C2473 0.929 . S
H2464 C2468 0.929 . S
H2465 C2474 0.929 . S
C2466 H2460 0.930 . S
C2466 C2467 1.367 . S
C2466 C2474 1.378 . S
C2467 C2466 1.367 . S
C2467 C2475 1.433 . S
C2468 H2464 0.929 . S
C2468 C2470 1.378 . S
C2468 C2472 1.350 . S
C2469 C2472 1.463 . S
C2469 C2474 1.350 . S
C2469 N2477 1.427 . S
C2470 H2461 0.930 . S
C2470 C2468 1.378 . S
C2470 C2471 1.367 . S
C2471 C2470 1.367 . S
C2471 C2473 1.433 . S
C2472 C2468 1.350 . S
C2472 C2469 1.463 . S
C2472 N2476 1.427 . S
C2473 H2463 0.929 . S
C2473 C2471 1.433 . S
C2473 N2476 1.384 . S
C2474 H2465 0.929 . S
C2474 C2466 1.378 . S
C2474 C2469 1.350 . S
C2475 H2462 0.929 . S
C2475 C2467 1.433 . S
C2475 N2477 1.384 . S
N2476 C2472 1.427 . S
N2476 C2473 1.384 . S
N2477 C2469 1.427 . S
N2477 C2475 1.384 . S
H2478 C2484 0.930 . S
H2479 C2488 0.930 . S
H2480 C2493 0.929 . S
H2481 C2491 0.929 . S
H2482 C2486 0.929 . S
H2483 C2492 0.929 . S
C2484 H2478 0.930 . S
C2484 C2485 1.367 . S
C2484 C2492 1.378 . S
C2485 C2484 1.367 . S
C2485 C2493 1.433 . S
C2486 H2482 0.929 . S
C2486 C2488 1.378 . S
C2486 C2490 1.350 . S
C2487 C2490 1.463 . S
C2487 C2492 1.350 . S
C2487 N2495 1.427 . S
C2488 H2479 0.930 . S
C2488 C2486 1.378 . S
C2488 C2489 1.367 . S
C2489 C2488 1.367 . S
C2489 C2491 1.433 . S
C2490 C2486 1.350 . S
C2490 C2487 1.463 . S
C2490 N2494 1.427 . S
C2491 H2481 0.929 . S
C2491 C2489 1.433 . S
C2491 N2494 1.384 . S
C2492 H2483 0.929 . S
C2492 C2484 1.378 . S
C2492 C2487 1.350 . S
C2493 H2480 0.929 . S
C2493 C2485 1.433 . S
C2493 N2495 1.384 . S
N2494 C2490 1.427 . S
N2494 C2491 1.384 . S
N2495 C2487 1.427 . S
N2495 C2493 1.384 . S
H2496 C2502 0.930 . S
H2497 C2506 0.930 . S
H2498 C2511 0.929 . S
H2499 C2509 0.929 . S
H2500 C2504 0.929 . S
H2501 C2510 0.929 . S
C2502 H2496 0.930 . S
C2502 C2503 1.367 . S
C2502 C2510 1.378 . S
C2503 C2502 1.367 . S
C2503 C2511 1.433 . S
C2504 H2500 0.929 . S
C2504 C2506 1.378 . S
C2504 C2508 1.350 . S
C2505 C2508 1.463 . S
C2505 C2510 1.350 . S
C2505 N2513 1.427 . S
C2506 H2497 0.930 . S
C2506 C2504 1.378 . S
C2506 C2507 1.367 . S
C2507 C2506 1.367 . S
C2507 C2509 1.433 . S
C2508 C2504 1.350 . S
C2508 C2505 1.463 . S
C2508 N2512 1.427 . S
C2509 H2499 0.929 . S
C2509 C2507 1.433 . S
C2509 N2512 1.384 . S
C2510 H2501 0.929 . S
C2510 C2502 1.378 . S
C2510 C2505 1.350 . S
C2511 H2498 0.929 . S
C2511 C2503 1.433 . S
C2511 N2513 1.384 . S
N2512 C2508 1.427 . S
N2512 C2509 1.384 . S
N2513 C2505 1.427 . S
N2513 C2511 1.384 . S
H2514 C2520 0.930 . S
H2515 C2524 0.930 . S
H2516 C2529 0.929 . S
H2517 C2527 0.929 . S
H2518 C2522 0.929 . S
H2519 C2528 0.929 . S
C2520 H2514 0.930 . S
C2520 C2521 1.367 . S
C2520 C2528 1.378 . S
C2521 C2520 1.367 . S
C2521 C2529 1.433 . S
C2522 H2518 0.929 . S
C2522 C2524 1.378 . S
C2522 C2526 1.350 . S
C2523 C2526 1.463 . S
C2523 C2528 1.350 . S
C2523 N2531 1.427 . S
C2524 H2515 0.930 . S
C2524 C2522 1.378 . S
C2524 C2525 1.367 . S
C2525 C2524 1.367 . S
C2525 C2527 1.433 . S
C2526 C2522 1.350 . S
C2526 C2523 1.463 . S
C2526 N2530 1.427 . S
C2527 H2517 0.929 . S
C2527 C2525 1.433 . S
C2527 N2530 1.384 . S
C2528 H2519 0.929 . S
C2528 C2520 1.378 . S
C2528 C2523 1.350 . S
C2529 H2516 0.929 . S
C2529 C2521 1.433 . S
C2529 N2531 1.384 . S
N2530 C2526 1.427 . S
N2530 C2527 1.384 . S
N2531 C2523 1.427 . S
N2531 C2529 1.384 . S
H2532 C2538 0.930 . S
H2533 C2542 0.930 . S
H2534 C2547 0.929 . S
H2535 C2545 0.929 . S
H2536 C2540 0.929 . S
H2537 C2546 0.929 . S
C2538 H2532 0.930 . S
C2538 C2539 1.367 . S
C2538 C2546 1.378 . S
C2539 C2538 1.367 . S
C2539 C2547 1.433 . S
C2540 H2536 0.929 . S
C2540 C2542 1.378 . S
C2540 C2544 1.350 . S
C2541 C2544 1.463 . S
C2541 C2546 1.350 . S
C2541 N2549 1.427 . S
C2542 H2533 0.930 . S
C2542 C2540 1.378 . S
C2542 C2543 1.367 . S
C2543 C2542 1.367 . S
C2543 C2545 1.433 . S
C2544 C2540 1.350 . S
C2544 C2541 1.463 . S
C2544 N2548 1.427 . S
C2545 H2535 0.929 . S
C2545 C2543 1.433 . S
C2545 N2548 1.384 . S
C2546 H2537 0.929 . S
C2546 C2538 1.378 . S
C2546 C2541 1.350 . S
C2547 H2534 0.929 . S
C2547 C2539 1.433 . S
C2547 N2549 1.384 . S
N2548 C2544 1.427 . S
N2548 C2545 1.384 . S
N2549 C2541 1.427 . S
N2549 C2547 1.384 . S
H2550 C2556 0.930 . S
H2551 C2560 0.930 . S
H2552 C2565 0.929 . S
H2553 C2563 0.929 . S
H2554 C2558 0.929 . S
H2555 C2564 0.929 . S
C2556 H2550 0.930 . S
C2556 C2557 1.367 . S
C2556 C2564 1.378 . S
C2557 C2556 1.367 . S
C2557 C2565 1.433 . S
C2558 H2554 0.929 . S
C2558 C2560 1.378 . S
C2558 C2562 1.350 . S
C2559 C2562 1.463 . S
C2559 C2564 1.350 . S
C2559 N2567 1.427 . S
C2560 H2551 0.930 . S
C2560 C2558 1.378 . S
C2560 C2561 1.367 . S
C2561 C2560 1.367 . S
C2561 C2563 1.433 . S
C2562 C2558 1.350 . S
C2562 C2559 1.463 . S
C2562 N2566 1.427 . S
C2563 H2553 0.929 . S
C2563 C2561 1.433 . S
C2563 N2566 1.384 . S
C2564 H2555 0.929 . S
C2564 C2556 1.378 . S
C2564 C2559 1.350 . S
C2565 H2552 0.929 . S
C2565 C2557 1.433 . S
C2565 N2567 1.384 . S
N2566 C2562 1.427 . S
N2566 C2563 1.384 . S
N2567 C2559 1.427 . S
N2567 C2565 1.384 . S
H2568 C2574 0.930 . S
H2569 C2578 0.930 . S
H2570 C2583 0.929 . S
H2571 C2581 0.929 . S
H2572 C2576 0.929 . S
H2573 C2582 0.929 . S
C2574 H2568 0.930 . S
C2574 C2575 1.367 . S
C2574 C2582 1.378 . S
C2575 C2574 1.367 . S
C2575 C2583 1.433 . S
C2576 H2572 0.929 . S
C2576 C2578 1.378 . S
C2576 C2580 1.350 . S
C2577 C2580 1.463 . S
C2577 C2582 1.350 . S
C2577 N2585 1.427 . S
C2578 H2569 0.930 . S
C2578 C2576 1.378 . S
C2578 C2579 1.367 . S
C2579 C2578 1.367 . S
C2579 C2581 1.433 . S
C2580 C2576 1.350 . S
C2580 C2577 1.463 . S
C2580 N2584 1.427 . S
C2581 H2571 0.929 . S
C2581 C2579 1.433 . S
C2581 N2584 1.384 . S
C2582 H2573 0.929 . S
C2582 C2574 1.378 . S
C2582 C2577 1.350 . S
C2583 H2570 0.929 . S
C2583 C2575 1.433 . S
C2583 N2585 1.384 . S
N2584 C2580 1.427 . S
N2584 C2581 1.384 . S
N2585 C2577 1.427 . S
N2585 C2583 1.384 . S
H2586 C2592 0.930 . S
H2587 C2596 0.930 . S
H2588 C2601 0.929 . S
H2589 C2599 0.929 . S
H2590 C2594 0.929 . S
H2591 C2600 0.929 . S
C2592 H2586 0.930 . S
C2592 C2593 1.367 . S
C2592 C2600 1.378 . S
C2593 C2592 1.367 . S
C2593 C2601 1.433 . S
C2594 H2590 0.929 . S
C2594 C2596 1.378 . S
C2594 C2598 1.350 . S
C2595 C2598 1.463 . S
C2595 C2600 1.350 . S
C2595 N2603 1.427 . S
C2596 H2587 0.930 . S
C2596 C2594 1.378 . S
C2596 C2597 1.367 . S
C2597 C2596 1.367 . S
C2597 C2599 1.433 . S
C2598 C2594 1.350 . S
C2598 C2595 1.463 . S
C2598 N2602 1.427 . S
C2599 H2589 0.929 . S
C2599 C2597 1.433 . S
C2599 N2602 1.384 . S
C2600 H2591 0.929 . S
C2600 C2592 1.378 . S
C2600 C2595 1.350 . S
C2601 H2588 0.929 . S
C2601 C2593 1.433 . S
C2601 N2603 1.384 . S
N2602 C2598 1.427 . S
N2602 C2599 1.384 . S
N2603 C2595 1.427 . S
N2603 C2601 1.384 . S
H2604 C2610 0.930 . S
H2605 C2614 0.930 . S
H2606 C2619 0.929 . S
H2607 C2617 0.929 . S
H2608 C2612 0.929 . S
H2609 C2618 0.929 . S
C2610 H2604 0.930 . S
C2610 C2611 1.367 . S
C2610 C2618 1.378 . S
C2611 C2610 1.367 . S
C2611 C2619 1.433 . S
C2612 H2608 0.929 . S
C2612 C2614 1.378 . S
C2612 C2616 1.350 . S
C2613 C2616 1.463 . S
C2613 C2618 1.350 . S
C2613 N2621 1.427 . S
C2614 H2605 0.930 . S
C2614 C2612 1.378 . S
C2614 C2615 1.367 . S
C2615 C2614 1.367 . S
C2615 C2617 1.433 . S
C2616 C2612 1.350 . S
C2616 C2613 1.463 . S
C2616 N2620 1.427 . S
C2617 H2607 0.929 . S
C2617 C2615 1.433 . S
C2617 N2620 1.384 . S
C2618 H2609 0.929 . S
C2618 C2610 1.378 . S
C2618 C2613 1.350 . S
C2619 H2606 0.929 . S
C2619 C2611 1.433 . S
C2619 N2621 1.384 . S
N2620 C2616 1.427 . S
N2620 C2617 1.384 . S
N2621 C2613 1.427 . S
N2621 C2619 1.384 . S
H2622 C2628 0.930 . S
H2623 C2632 0.930 . S
H2624 C2637 0.929 . S
H2625 C2635 0.929 . S
H2626 C2630 0.929 . S
H2627 C2636 0.929 . S
C2628 H2622 0.930 . S
C2628 C2629 1.367 . S
C2628 C2636 1.378 . S
C2629 C2628 1.367 . S
C2629 C2637 1.433 . S
C2630 H2626 0.929 . S
C2630 C2632 1.378 . S
C2630 C2634 1.350 . S
C2631 C2634 1.463 . S
C2631 C2636 1.350 . S
C2631 N2639 1.427 . S
C2632 H2623 0.930 . S
C2632 C2630 1.378 . S
C2632 C2633 1.367 . S
C2633 C2632 1.367 . S
C2633 C2635 1.433 . S
C2634 C2630 1.350 . S
C2634 C2631 1.463 . S
C2634 N2638 1.427 . S
C2635 H2625 0.929 . S
C2635 C2633 1.433 . S
C2635 N2638 1.384 . S
C2636 H2627 0.929 . S
C2636 C2628 1.378 . S
C2636 C2631 1.350 . S
C2637 H2624 0.929 . S
C2637 C2629 1.433 . S
C2637 N2639 1.384 . S
N2638 C2634 1.427 . S
N2638 C2635 1.384 . S
N2639 C2631 1.427 . S
N2639 C2637 1.384 . S
H2640 C2646 0.930 . S
H2641 C2650 0.930 . S
H2642 C2655 0.929 . S
H2643 C2653 0.929 . S
H2644 C2648 0.929 . S
H2645 C2654 0.929 . S
C2646 H2640 0.930 . S
C2646 C2647 1.367 . S
C2646 C2654 1.378 . S
C2647 C2646 1.367 . S
C2647 C2655 1.433 . S
C2648 H2644 0.929 . S
C2648 C2650 1.378 . S
C2648 C2652 1.350 . S
C2649 C2652 1.463 . S
C2649 C2654 1.350 . S
C2649 N2657 1.427 . S
C2650 H2641 0.930 . S
C2650 C2648 1.378 . S
C2650 C2651 1.367 . S
C2651 C2650 1.367 . S
C2651 C2653 1.433 . S
C2652 C2648 1.350 . S
C2652 C2649 1.463 . S
C2652 N2656 1.427 . S
C2653 H2643 0.929 . S
C2653 C2651 1.433 . S
C2653 N2656 1.384 . S
C2654 H2645 0.929 . S
C2654 C2646 1.378 . S
C2654 C2649 1.350 . S
C2655 H2642 0.929 . S
C2655 C2647 1.433 . S
C2655 N2657 1.384 . S
N2656 C2652 1.427 . S
N2656 C2653 1.384 . S
N2657 C2649 1.427 . S
N2657 C2655 1.384 . S
H2658 C2664 0.930 . S
H2659 C2668 0.930 . S
H2660 C2673 0.929 . S
H2661 C2671 0.929 . S
H2662 C2666 0.929 . S
H2663 C2672 0.929 . S
C2664 H2658 0.930 . S
C2664 C2665 1.367 . S
C2664 C2672 1.378 . S
C2665 C2664 1.367 . S
C2665 C2673 1.433 . S
C2666 H2662 0.929 . S
C2666 C2668 1.378 . S
C2666 C2670 1.350 . S
C2667 C2670 1.463 . S
C2667 C2672 1.350 . S
C2667 N2675 1.427 . S
C2668 H2659 0.930 . S
C2668 C2666 1.378 . S
C2668 C2669 1.367 . S
C2669 C2668 1.367 . S
C2669 C2671 1.433 . S
C2670 C2666 1.350 . S
C2670 C2667 1.463 . S
C2670 N2674 1.427 . S
C2671 H2661 0.929 . S
C2671 C2669 1.433 . S
C2671 N2674 1.384 . S
C2672 H2663 0.929 . S
C2672 C2664 1.378 . S
C2672 C2667 1.350 . S
C2673 H2660 0.929 . S
C2673 C2665 1.433 . S
C2673 N2675 1.384 . S
N2674 C2670 1.427 . S
N2674 C2671 1.384 . S
N2675 C2667 1.427 . S
N2675 C2673 1.384 . S
H2676 C2682 0.930 . S
H2677 C2686 0.930 . S
H2678 C2691 0.929 . S
H2679 C2689 0.929 . S
H2680 C2684 0.929 . S
H2681 C2690 0.929 . S
C2682 H2676 0.930 . S
C2682 C2683 1.367 . S
C2682 C2690 1.378 . S
C2683 C2682 1.367 . S
C2683 C2691 1.433 . S
C2684 H2680 0.929 . S
C2684 C2686 1.378 . S
C2684 C2688 1.350 . S
C2685 C2688 1.463 . S
C2685 C2690 1.350 . S
C2685 N2693 1.427 . S
C2686 H2677 0.930 . S
C2686 C2684 1.378 . S
C2686 C2687 1.367 . S
C2687 C2686 1.367 . S
C2687 C2689 1.433 . S
C2688 C2684 1.350 . S
C2688 C2685 1.463 . S
C2688 N2692 1.427 . S
C2689 H2679 0.929 . S
C2689 C2687 1.433 . S
C2689 N2692 1.384 . S
C2690 H2681 0.929 . S
C2690 C2682 1.378 . S
C2690 C2685 1.350 . S
C2691 H2678 0.929 . S
C2691 C2683 1.433 . S
C2691 N2693 1.384 . S
N2692 C2688 1.427 . S
N2692 C2689 1.384 . S
N2693 C2685 1.427 . S
N2693 C2691 1.384 . S
H2694 C2700 0.930 . S
H2695 C2704 0.930 . S
H2696 C2709 0.929 . S
H2697 C2707 0.929 . S
H2698 C2702 0.929 . S
H2699 C2708 0.929 . S
C2700 H2694 0.930 . S
C2700 C2701 1.367 . S
C2700 C2708 1.378 . S
C2701 C2700 1.367 . S
C2701 C2709 1.433 . S
C2702 H2698 0.929 . S
C2702 C2704 1.378 . S
C2702 C2706 1.350 . S
C2703 C2706 1.463 . S
C2703 C2708 1.350 . S
C2703 N2711 1.427 . S
C2704 H2695 0.930 . S
C2704 C2702 1.378 . S
C2704 C2705 1.367 . S
C2705 C2704 1.367 . S
C2705 C2707 1.433 . S
C2706 C2702 1.350 . S
C2706 C2703 1.463 . S
C2706 N2710 1.427 . S
C2707 H2697 0.929 . S
C2707 C2705 1.433 . S
C2707 N2710 1.384 . S
C2708 H2699 0.929 . S
C2708 C2700 1.378 . S
C2708 C2703 1.350 . S
C2709 H2696 0.929 . S
C2709 C2701 1.433 . S
C2709 N2711 1.384 . S
N2710 C2706 1.427 . S
N2710 C2707 1.384 . S
N2711 C2703 1.427 . S
N2711 C2709 1.384 . S
H2712 C2718 0.930 . S
H2713 C2722 0.930 . S
H2714 C2727 0.929 . S
H2715 C2725 0.929 . S
H2716 C2720 0.929 . S
H2717 C2726 0.929 . S
C2718 H2712 0.930 . S
C2718 C2719 1.367 . S
C2718 C2726 1.378 . S
C2719 C2718 1.367 . S
C2719 C2727 1.433 . S
C2720 H2716 0.929 . S
C2720 C2722 1.378 . S
C2720 C2724 1.350 . S
C2721 C2724 1.463 . S
C2721 C2726 1.350 . S
C2721 N2729 1.427 . S
C2722 H2713 0.930 . S
C2722 C2720 1.378 . S
C2722 C2723 1.367 . S
C2723 C2722 1.367 . S
C2723 C2725 1.433 . S
C2724 C2720 1.350 . S
C2724 C2721 1.463 . S
C2724 N2728 1.427 . S
C2725 H2715 0.929 . S
C2725 C2723 1.433 . S
C2725 N2728 1.384 . S
C2726 H2717 0.929 . S
C2726 C2718 1.378 . S
C2726 C2721 1.350 . S
C2727 H2714 0.929 . S
C2727 C2719 1.433 . S
C2727 N2729 1.384 . S
N2728 C2724 1.427 . S
N2728 C2725 1.384 . S
N2729 C2721 1.427 . S
N2729 C2727 1.384 . S
H2730 C2736 0.930 . S
H2731 C2740 0.930 . S
H2732 C2745 0.929 . S
H2733 C2743 0.929 . S
H2734 C2738 0.929 . S
H2735 C2744 0.929 . S
C2736 H2730 0.930 . S
C2736 C2737 1.367 . S
C2736 C2744 1.378 . S
C2737 C2736 1.367 . S
C2737 C2745 1.433 . S
C2738 H2734 0.929 . S
C2738 C2740 1.378 . S
C2738 C2742 1.350 . S
C2739 C2742 1.463 . S
C2739 C2744 1.350 . S
C2739 N2747 1.427 . S
C2740 H2731 0.930 . S
C2740 C2738 1.378 . S
C2740 C2741 1.367 . S
C2741 C2740 1.367 . S
C2741 C2743 1.433 . S
C2742 C2738 1.350 . S
C2742 C2739 1.463 . S
C2742 N2746 1.427 . S
C2743 H2733 0.929 . S
C2743 C2741 1.433 . S
C2743 N2746 1.384 . S
C2744 H2735 0.929 . S
C2744 C2736 1.378 . S
C2744 C2739 1.350 . S
C2745 H2732 0.929 . S
C2745 C2737 1.433 . S
C2745 N2747 1.384 . S
N2746 C2742 1.427 . S
N2746 C2743 1.384 . S
N2747 C2739 1.427 . S
N2747 C2745 1.384 . S
H2748 C2754 0.930 . S
H2749 C2758 0.930 . S
H2750 C2763 0.929 . S
H2751 C2761 0.929 . S
H2752 C2756 0.929 . S
H2753 C2762 0.929 . S
C2754 H2748 0.930 . S
C2754 C2755 1.367 . S
C2754 C2762 1.378 . S
C2755 C2754 1.367 . S
C2755 C2763 1.433 . S
C2756 H2752 0.929 . S
C2756 C2758 1.378 . S
C2756 C2760 1.350 . S
C2757 C2760 1.463 . S
C2757 C2762 1.350 . S
C2757 N2765 1.427 . S
C2758 H2749 0.930 . S
C2758 C2756 1.378 . S
C2758 C2759 1.367 . S
C2759 C2758 1.367 . S
C2759 C2761 1.433 . S
C2760 C2756 1.350 . S
C2760 C2757 1.463 . S
C2760 N2764 1.427 . S
C2761 H2751 0.929 . S
C2761 C2759 1.433 . S
C2761 N2764 1.384 . S
C2762 H2753 0.929 . S
C2762 C2754 1.378 . S
C2762 C2757 1.350 . S
C2763 H2750 0.929 . S
C2763 C2755 1.433 . S
C2763 N2765 1.384 . S
N2764 C2760 1.427 . S
N2764 C2761 1.384 . S
N2765 C2757 1.427 . S
N2765 C2763 1.384 . S
H2766 C2772 0.930 . S
H2767 C2776 0.930 . S
H2768 C2781 0.929 . S
H2769 C2779 0.929 . S
H2770 C2774 0.929 . S
H2771 C2780 0.929 . S
C2772 H2766 0.930 . S
C2772 C2773 1.367 . S
C2772 C2780 1.378 . S
C2773 C2772 1.367 . S
C2773 C2781 1.433 . S
C2774 H2770 0.929 . S
C2774 C2776 1.378 . S
C2774 C2778 1.350 . S
C2775 C2778 1.463 . S
C2775 C2780 1.350 . S
C2775 N2783 1.427 . S
C2776 H2767 0.930 . S
C2776 C2774 1.378 . S
C2776 C2777 1.367 . S
C2777 C2776 1.367 . S
C2777 C2779 1.433 . S
C2778 C2774 1.350 . S
C2778 C2775 1.463 . S
C2778 N2782 1.427 . S
C2779 H2769 0.929 . S
C2779 C2777 1.433 . S
C2779 N2782 1.384 . S
C2780 H2771 0.929 . S
C2780 C2772 1.378 . S
C2780 C2775 1.350 . S
C2781 H2768 0.929 . S
C2781 C2773 1.433 . S
C2781 N2783 1.384 . S
N2782 C2778 1.427 . S
N2782 C2779 1.384 . S
N2783 C2775 1.427 . S
N2783 C2781 1.384 . S
H2784 C2790 0.930 . S
H2785 C2794 0.930 . S
H2786 C2799 0.929 . S
H2787 C2797 0.929 . S
H2788 C2792 0.929 . S
H2789 C2798 0.929 . S
C2790 H2784 0.930 . S
C2790 C2791 1.367 . S
C2790 C2798 1.378 . S
C2791 C2790 1.367 . S
C2791 C2799 1.433 . S
C2792 H2788 0.929 . S
C2792 C2794 1.378 . S
C2792 C2796 1.350 . S
C2793 C2796 1.463 . S
C2793 C2798 1.350 . S
C2793 N2801 1.427 . S
C2794 H2785 0.930 . S
C2794 C2792 1.378 . S
C2794 C2795 1.367 . S
C2795 C2794 1.367 . S
C2795 C2797 1.433 . S
C2796 C2792 1.350 . S
C2796 C2793 1.463 . S
C2796 N2800 1.427 . S
C2797 H2787 0.929 . S
C2797 C2795 1.433 . S
C2797 N2800 1.384 . S
C2798 H2789 0.929 . S
C2798 C2790 1.378 . S
C2798 C2793 1.350 . S
C2799 H2786 0.929 . S
C2799 C2791 1.433 . S
C2799 N2801 1.384 . S
N2800 C2796 1.427 . S
N2800 C2797 1.384 . S
N2801 C2793 1.427 . S
N2801 C2799 1.384 . S
H2802 C2808 0.930 . S
H2803 C2812 0.930 . S
H2804 C2817 0.929 . S
H2805 C2815 0.929 . S
H2806 C2810 0.929 . S
H2807 C2816 0.929 . S
C2808 H2802 0.930 . S
C2808 C2809 1.367 . S
C2808 C2816 1.378 . S
C2809 C2808 1.367 . S
C2809 C2817 1.433 . S
C2810 H2806 0.929 . S
C2810 C2812 1.378 . S
C2810 C2814 1.350 . S
C2811 C2814 1.463 . S
C2811 C2816 1.350 . S
C2811 N2819 1.427 . S
C2812 H2803 0.930 . S
C2812 C2810 1.378 . S
C2812 C2813 1.367 . S
C2813 C2812 1.367 . S
C2813 C2815 1.433 . S
C2814 C2810 1.350 . S
C2814 C2811 1.463 . S
C2814 N2818 1.427 . S
C2815 H2805 0.929 . S
C2815 C2813 1.433 . S
C2815 N2818 1.384 . S
C2816 H2807 0.929 . S
C2816 C2808 1.378 . S
C2816 C2811 1.350 . S
C2817 H2804 0.929 . S
C2817 C2809 1.433 . S
C2817 N2819 1.384 . S
N2818 C2814 1.427 . S
N2818 C2815 1.384 . S
N2819 C2811 1.427 . S
N2819 C2817 1.384 . S
H2820 C2826 0.930 . S
H2821 C2830 0.930 . S
H2822 C2835 0.929 . S
H2823 C2833 0.929 . S
H2824 C2828 0.929 . S
H2825 C2834 0.929 . S
C2826 H2820 0.930 . S
C2826 C2827 1.367 . S
C2826 C2834 1.378 . S
C2827 C2826 1.367 . S
C2827 C2835 1.433 . S
C2828 H2824 0.929 . S
C2828 C2830 1.378 . S
C2828 C2832 1.350 . S
C2829 C2832 1.463 . S
C2829 C2834 1.350 . S
C2829 N2837 1.427 . S
C2830 H2821 0.930 . S
C2830 C2828 1.378 . S
C2830 C2831 1.367 . S
C2831 C2830 1.367 . S
C2831 C2833 1.433 . S
C2832 C2828 1.350 . S
C2832 C2829 1.463 . S
C2832 N2836 1.427 . S
C2833 H2823 0.929 . S
C2833 C2831 1.433 . S
C2833 N2836 1.384 . S
C2834 H2825 0.929 . S
C2834 C2826 1.378 . S
C2834 C2829 1.350 . S
C2835 H2822 0.929 . S
C2835 C2827 1.433 . S
C2835 N2837 1.384 . S
N2836 C2832 1.427 . S
N2836 C2833 1.384 . S
N2837 C2829 1.427 . S
N2837 C2835 1.384 . S
H2838 C2844 0.930 . S
H2839 C2848 0.930 . S
H2840 C2853 0.929 . S
H2841 C2851 0.929 . S
H2842 C2846 0.929 . S
H2843 C2852 0.929 . S
C2844 H2838 0.930 . S
C2844 C2845 1.367 . S
C2844 C2852 1.378 . S
C2845 C2844 1.367 . S
C2845 C2853 1.433 . S
C2846 H2842 0.929 . S
C2846 C2848 1.378 . S
C2846 C2850 1.350 . S
C2847 C2850 1.463 . S
C2847 C2852 1.350 . S
C2847 N2855 1.427 . S
C2848 H2839 0.930 . S
C2848 C2846 1.378 . S
C2848 C2849 1.367 . S
C2849 C2848 1.367 . S
C2849 C2851 1.433 . S
C2850 C2846 1.350 . S
C2850 C2847 1.463 . S
C2850 N2854 1.427 . S
C2851 H2841 0.929 . S
C2851 C2849 1.433 . S
C2851 N2854 1.384 . S
C2852 H2843 0.929 . S
C2852 C2844 1.378 . S
C2852 C2847 1.350 . S
C2853 H2840 0.929 . S
C2853 C2845 1.433 . S
C2853 N2855 1.384 . S
N2854 C2850 1.427 . S
N2854 C2851 1.384 . S
N2855 C2847 1.427 . S
N2855 C2853 1.384 . S
H2856 C2862 0.930 . S
H2857 C2866 0.930 . S
H2858 C2871 0.929 . S
H2859 C2869 0.929 . S
H2860 C2864 0.929 . S
H2861 C2870 0.929 . S
C2862 H2856 0.930 . S
C2862 C2863 1.367 . S
C2862 C2870 1.378 . S
C2863 C2862 1.367 . S
C2863 C2871 1.433 . S
C2864 H2860 0.929 . S
C2864 C2866 1.378 . S
C2864 C2868 1.350 . S
C2865 C2868 1.463 . S
C2865 C2870 1.350 . S
C2865 N2873 1.427 . S
C2866 H2857 0.930 . S
C2866 C2864 1.378 . S
C2866 C2867 1.367 . S
C2867 C2866 1.367 . S
C2867 C2869 1.433 . S
C2868 C2864 1.350 . S
C2868 C2865 1.463 . S
C2868 N2872 1.427 . S
C2869 H2859 0.929 . S
C2869 C2867 1.433 . S
C2869 N2872 1.384 . S
C2870 H2861 0.929 . S
C2870 C2862 1.378 . S
C2870 C2865 1.350 . S
C2871 H2858 0.929 . S
C2871 C2863 1.433 . S
C2871 N2873 1.384 . S
N2872 C2868 1.427 . S
N2872 C2869 1.384 . S
N2873 C2865 1.427 . S
N2873 C2871 1.384 . S
H2874 C2880 0.930 . S
H2875 C2884 0.930 . S
H2876 C2889 0.929 . S
H2877 C2887 0.929 . S
H2878 C2882 0.929 . S
H2879 C2888 0.929 . S
C2880 H2874 0.930 . S
C2880 C2881 1.367 . S
C2880 C2888 1.378 . S
C2881 C2880 1.367 . S
C2881 C2889 1.433 . S
C2882 H2878 0.929 . S
C2882 C2884 1.378 . S
C2882 C2886 1.350 . S
C2883 C2886 1.463 . S
C2883 C2888 1.350 . S
C2883 N2891 1.427 . S
C2884 H2875 0.930 . S
C2884 C2882 1.378 . S
C2884 C2885 1.367 . S
C2885 C2884 1.367 . S
C2885 C2887 1.433 . S
C2886 C2882 1.350 . S
C2886 C2883 1.463 . S
C2886 N2890 1.427 . S
C2887 H2877 0.929 . S
C2887 C2885 1.433 . S
C2887 N2890 1.384 . S
C2888 H2879 0.929 . S
C2888 C2880 1.378 . S
C2888 C2883 1.350 . S
C2889 H2876 0.929 . S
C2889 C2881 1.433 . S
C2889 N2891 1.384 . S
N2890 C2886 1.427 . S
N2890 C2887 1.384 . S
N2891 C2883 1.427 . S
N2891 C2889 1.384 . S
H2892 C2898 0.930 . S
H2893 C2902 0.930 . S
H2894 C2907 0.929 . S
H2895 C2905 0.929 . S
H2896 C2900 0.929 . S
H2897 C2906 0.929 . S
C2898 H2892 0.930 . S
C2898 C2899 1.367 . S
C2898 C2906 1.378 . S
C2899 C2898 1.367 . S
C2899 C2907 1.433 . S
C2900 H2896 0.929 . S
C2900 C2902 1.378 . S
C2900 C2904 1.350 . S
C2901 C2904 1.463 . S
C2901 C2906 1.350 . S
C2901 N2909 1.427 . S
C2902 H2893 0.930 . S
C2902 C2900 1.378 . S
C2902 C2903 1.367 . S
C2903 C2902 1.367 . S
C2903 C2905 1.433 . S
C2904 C2900 1.350 . S
C2904 C2901 1.463 . S
C2904 N2908 1.427 . S
C2905 H2895 0.929 . S
C2905 C2903 1.433 . S
C2905 N2908 1.384 . S
C2906 H2897 0.929 . S
C2906 C2898 1.378 . S
C2906 C2901 1.350 . S
C2907 H2894 0.929 . S
C2907 C2899 1.433 . S
C2907 N2909 1.384 . S
N2908 C2904 1.427 . S
N2908 C2905 1.384 . S
N2909 C2901 1.427 . S
N2909 C2907 1.384 . S
H2910 C2916 0.930 . S
H2911 C2920 0.930 . S
H2912 C2925 0.929 . S
H2913 C2923 0.929 . S
H2914 C2918 0.929 . S
H2915 C2924 0.929 . S
C2916 H2910 0.930 . S
C2916 C2917 1.367 . S
C2916 C2924 1.378 . S
C2917 C2916 1.367 . S
C2917 C2925 1.433 . S
C2918 H2914 0.929 . S
C2918 C2920 1.378 . S
C2918 C2922 1.350 . S
C2919 C2922 1.463 . S
C2919 C2924 1.350 . S
C2919 N2927 1.427 . S
C2920 H2911 0.930 . S
C2920 C2918 1.378 . S
C2920 C2921 1.367 . S
C2921 C2920 1.367 . S
C2921 C2923 1.433 . S
C2922 C2918 1.350 . S
C2922 C2919 1.463 . S
C2922 N2926 1.427 . S
C2923 H2913 0.929 . S
C2923 C2921 1.433 . S
C2923 N2926 1.384 . S
C2924 H2915 0.929 . S
C2924 C2916 1.378 . S
C2924 C2919 1.350 . S
C2925 H2912 0.929 . S
C2925 C2917 1.433 . S
C2925 N2927 1.384 . S
N2926 C2922 1.427 . S
N2926 C2923 1.384 . S
N2927 C2919 1.427 . S
N2927 C2925 1.384 . S
H2928 C2934 0.930 . S
H2929 C2938 0.930 . S
H2930 C2943 0.929 . S
H2931 C2941 0.929 . S
H2932 C2936 0.929 . S
H2933 C2942 0.929 . S
C2934 H2928 0.930 . S
C2934 C2935 1.367 . S
C2934 C2942 1.378 . S
C2935 C2934 1.367 . S
C2935 C2943 1.433 . S
C2936 H2932 0.929 . S
C2936 C2938 1.378 . S
C2936 C2940 1.350 . S
C2937 C2940 1.463 . S
C2937 C2942 1.350 . S
C2937 N2945 1.427 . S
C2938 H2929 0.930 . S
C2938 C2936 1.378 . S
C2938 C2939 1.367 . S
C2939 C2938 1.367 . S
C2939 C2941 1.433 . S
C2940 C2936 1.350 . S
C2940 C2937 1.463 . S
C2940 N2944 1.427 . S
C2941 H2931 0.929 . S
C2941 C2939 1.433 . S
C2941 N2944 1.384 . S
C2942 H2933 0.929 . S
C2942 C2934 1.378 . S
C2942 C2937 1.350 . S
C2943 H2930 0.929 . S
C2943 C2935 1.433 . S
C2943 N2945 1.384 . S
N2944 C2940 1.427 . S
N2944 C2941 1.384 . S
N2945 C2937 1.427 . S
N2945 C2943 1.384 . S
H2946 C2952 0.930 . S
H2947 C2956 0.930 . S
H2948 C2961 0.929 . S
H2949 C2959 0.929 . S
H2950 C2954 0.929 . S
H2951 C2960 0.929 . S
C2952 H2946 0.930 . S
C2952 C2953 1.367 . S
C2952 C2960 1.378 . S
C2953 C2952 1.367 . S
C2953 C2961 1.433 . S
C2954 H2950 0.929 . S
C2954 C2956 1.378 . S
C2954 C2958 1.350 . S
C2955 C2958 1.463 . S
C2955 C2960 1.350 . S
C2955 N2963 1.427 . S
C2956 H2947 0.930 . S
C2956 C2954 1.378 . S
C2956 C2957 1.367 . S
C2957 C2956 1.367 . S
C2957 C2959 1.433 . S
C2958 C2954 1.350 . S
C2958 C2955 1.463 . S
C2958 N2962 1.427 . S
C2959 H2949 0.929 . S
C2959 C2957 1.433 . S
C2959 N2962 1.384 . S
C2960 H2951 0.929 . S
C2960 C2952 1.378 . S
C2960 C2955 1.350 . S
C2961 H2948 0.929 . S
C2961 C2953 1.433 . S
C2961 N2963 1.384 . S
N2962 C2958 1.427 . S
N2962 C2959 1.384 . S
N2963 C2955 1.427 . S
N2963 C2961 1.384 . S
H2964 C2970 0.930 . S
H2965 C2974 0.930 . S
H2966 C2979 0.929 . S
H2967 C2977 0.929 . S
H2968 C2972 0.929 . S
H2969 C2978 0.929 . S
C2970 H2964 0.930 . S
C2970 C2971 1.367 . S
C2970 C2978 1.378 . S
C2971 C2970 1.367 . S
C2971 C2979 1.433 . S
C2972 H2968 0.929 . S
C2972 C2974 1.378 . S
C2972 C2976 1.350 . S
C2973 C2976 1.463 . S
C2973 C2978 1.350 . S
C2973 N2981 1.427 . S
C2974 H2965 0.930 . S
C2974 C2972 1.378 . S
C2974 C2975 1.367 . S
C2975 C2974 1.367 . S
C2975 C2977 1.433 . S
C2976 C2972 1.350 . S
C2976 C2973 1.463 . S
C2976 N2980 1.427 . S
C2977 H2967 0.929 . S
C2977 C2975 1.433 . S
C2977 N2980 1.384 . S
C2978 H2969 0.929 . S
C2978 C2970 1.378 . S
C2978 C2973 1.350 . S
C2979 H2966 0.929 . S
C2979 C2971 1.433 . S
C2979 N2981 1.384 . S
N2980 C2976 1.427 . S
N2980 C2977 1.384 . S
N2981 C2973 1.427 . S
N2981 C2979 1.384 . S
H2982 C2988 0.930 . S
H2983 C2992 0.930 . S
H2984 C2997 0.929 . S
H2985 C2995 0.929 . S
H2986 C2990 0.929 . S
H2987 C2996 0.929 . S
C2988 H2982 0.930 . S
C2988 C2989 1.367 . S
C2988 C2996 1.378 . S
C2989 C2988 1.367 . S
C2989 C2997 1.433 . S
C2990 H2986 0.929 . S
C2990 C2992 1.378 . S
C2990 C2994 1.350 . S
C2991 C2994 1.463 . S
C2991 C2996 1.350 . S
C2991 N2999 1.427 . S
C2992 H2983 0.930 . S
C2992 C2990 1.378 . S
C2992 C2993 1.367 . S
C2993 C2992 1.367 . S
C2993 C2995 1.433 . S
C2994 C2990 1.350 . S
C2994 C2991 1.463 . S
C2994 N2998 1.427 . S
C2995 H2985 0.929 . S
C2995 C2993 1.433 . S
C2995 N2998 1.384 . S
C2996 H2987 0.929 . S
C2996 C2988 1.378 . S
C2996 C2991 1.350 . S
C2997 H2984 0.929 . S
C2997 C2989 1.433 . S
C2997 N2999 1.384 . S
N2998 C2994 1.427 . S
N2998 C2995 1.384 . S
N2999 C2991 1.427 . S
N2999 C2997 1.384 . S
H3000 C3006 0.930 . S
H3001 C3010 0.930 . S
H3002 C3015 0.929 . S
H3003 C3013 0.929 . S
H3004 C3008 0.929 . S
H3005 C3014 0.929 . S
C3006 H3000 0.930 . S
C3006 C3007 1.367 . S
C3006 C3014 1.378 . S
C3007 C3006 1.367 . S
C3007 C3015 1.433 . S
C3008 H3004 0.929 . S
C3008 C3010 1.378 . S
C3008 C3012 1.350 . S
C3009 C3012 1.463 . S
C3009 C3014 1.350 . S
C3009 N3017 1.427 . S
C3010 H3001 0.930 . S
C3010 C3008 1.378 . S
C3010 C3011 1.367 . S
C3011 C3010 1.367 . S
C3011 C3013 1.433 . S
C3012 C3008 1.350 . S
C3012 C3009 1.463 . S
C3012 N3016 1.427 . S
C3013 H3003 0.929 . S
C3013 C3011 1.433 . S
C3013 N3016 1.384 . S
C3014 H3005 0.929 . S
C3014 C3006 1.378 . S
C3014 C3009 1.350 . S
C3015 H3002 0.929 . S
C3015 C3007 1.433 . S
C3015 N3017 1.384 . S
N3016 C3012 1.427 . S
N3016 C3013 1.384 . S
N3017 C3009 1.427 . S
N3017 C3015 1.384 . S
H3018 C3024 0.930 . S
H3019 C3028 0.930 . S
H3020 C3033 0.929 . S
H3021 C3031 0.929 . S
H3022 C3026 0.929 . S
H3023 C3032 0.929 . S
C3024 H3018 0.930 . S
C3024 C3025 1.367 . S
C3024 C3032 1.378 . S
C3025 C3024 1.367 . S
C3025 C3033 1.433 . S
C3026 H3022 0.929 . S
C3026 C3028 1.378 . S
C3026 C3030 1.350 . S
C3027 C3030 1.463 . S
C3027 C3032 1.350 . S
C3027 N3035 1.427 . S
C3028 H3019 0.930 . S
C3028 C3026 1.378 . S
C3028 C3029 1.367 . S
C3029 C3028 1.367 . S
C3029 C3031 1.433 . S
C3030 C3026 1.350 . S
C3030 C3027 1.463 . S
C3030 N3034 1.427 . S
C3031 H3021 0.929 . S
C3031 C3029 1.433 . S
C3031 N3034 1.384 . S
C3032 H3023 0.929 . S
C3032 C3024 1.378 . S
C3032 C3027 1.350 . S
C3033 H3020 0.929 . S
C3033 C3025 1.433 . S
C3033 N3035 1.384 . S
N3034 C3030 1.427 . S
N3034 C3031 1.384 . S
N3035 C3027 1.427 . S
N3035 C3033 1.384 . S
H3036 C3042 0.930 . S
H3037 C3046 0.930 . S
H3038 C3051 0.929 . S
H3039 C3049 0.929 . S
H3040 C3044 0.929 . S
H3041 C3050 0.929 . S
C3042 H3036 0.930 . S
C3042 C3043 1.367 . S
C3042 C3050 1.378 . S
C3043 C3042 1.367 . S
C3043 C3051 1.433 . S
C3044 H3040 0.929 . S
C3044 C3046 1.378 . S
C3044 C3048 1.350 . S
C3045 C3048 1.463 . S
C3045 C3050 1.350 . S
C3045 N3053 1.427 . S
C3046 H3037 0.930 . S
C3046 C3044 1.378 . S
C3046 C3047 1.367 . S
C3047 C3046 1.367 . S
C3047 C3049 1.433 . S
C3048 C3044 1.350 . S
C3048 C3045 1.463 . S
C3048 N3052 1.427 . S
C3049 H3039 0.929 . S
C3049 C3047 1.433 . S
C3049 N3052 1.384 . S
C3050 H3041 0.929 . S
C3050 C3042 1.378 . S
C3050 C3045 1.350 . S
C3051 H3038 0.929 . S
C3051 C3043 1.433 . S
C3051 N3053 1.384 . S
N3052 C3048 1.427 . S
N3052 C3049 1.384 . S
N3053 C3045 1.427 . S
N3053 C3051 1.384 . S
H3054 C3060 0.930 . S
H3055 C3064 0.930 . S
H3056 C3069 0.929 . S
H3057 C3067 0.929 . S
H3058 C3062 0.929 . S
H3059 C3068 0.929 . S
C3060 H3054 0.930 . S
C3060 C3061 1.367 . S
C3060 C3068 1.378 . S
C3061 C3060 1.367 . S
C3061 C3069 1.433 . S
C3062 H3058 0.929 . S
C3062 C3064 1.378 . S
C3062 C3066 1.350 . S
C3063 C3066 1.463 . S
C3063 C3068 1.350 . S
C3063 N3071 1.427 . S
C3064 H3055 0.930 . S
C3064 C3062 1.378 . S
C3064 C3065 1.367 . S
C3065 C3064 1.367 . S
C3065 C3067 1.433 . S
C3066 C3062 1.350 . S
C3066 C3063 1.463 . S
C3066 N3070 1.427 . S
C3067 H3057 0.929 . S
C3067 C3065 1.433 . S
C3067 N3070 1.384 . S
C3068 H3059 0.929 . S
C3068 C3060 1.378 . S
C3068 C3063 1.350 . S
C3069 H3056 0.929 . S
C3069 C3061 1.433 . S
C3069 N3071 1.384 . S
N3070 C3066 1.427 . S
N3070 C3067 1.384 . S
N3071 C3063 1.427 . S
N3071 C3069 1.384 . S
H3072 C3078 0.930 . S
H3073 C3082 0.930 . S
H3074 C3087 0.929 . S
H3075 C3085 0.929 . S
H3076 C3080 0.929 . S
H3077 C3086 0.929 . S
C3078 H3072 0.930 . S
C3078 C3079 1.367 . S
C3078 C3086 1.378 . S
C3079 C3078 1.367 . S
C3079 C3087 1.433 . S
C3080 H3076 0.929 . S
C3080 C3082 1.378 . S
C3080 C3084 1.350 . S
C3081 C3084 1.463 1_455 S
C3081 C3086 1.350 . S
C3081 N3089 1.427 . S
C3082 H3073 0.930 . S
C3082 C3080 1.378 . S
C3082 C3083 1.367 . S
C3083 C3082 1.367 . S
C3083 C3085 1.433 . S
C3084 C3080 1.350 . S
C3084 C3081 1.463 1_655 S
C3084 N3088 1.427 . S
C3085 H3075 0.929 . S
C3085 C3083 1.433 . S
C3085 N3088 1.384 . S
C3086 H3077 0.929 . S
C3086 C3078 1.378 . S
C3086 C3081 1.350 . S
C3087 H3074 0.929 . S
C3087 C3079 1.433 . S
C3087 N3089 1.384 . S
N3088 C3084 1.427 . S
N3088 C3085 1.384 . S
N3089 C3081 1.427 . S
N3089 C3087 1.384 . S
H3090 C3096 0.930 . S
H3091 C3100 0.930 . S
H3092 C3105 0.929 . S
H3093 C3103 0.929 . S
H3094 C3098 0.929 . S
H3095 C3104 0.929 . S
C3096 H3090 0.930 . S
C3096 C3097 1.367 . S
C3096 C3104 1.378 . S
C3097 C3096 1.367 . S
C3097 C3105 1.433 . S
C3098 H3094 0.929 . S
C3098 C3100 1.378 . S
C3098 C3102 1.350 . S
C3099 C3102 1.463 1_565 S
C3099 C3104 1.350 . S
C3099 N3107 1.427 . S
C3100 H3091 0.930 . S
C3100 C3098 1.378 . S
C3100 C3101 1.367 . S
C3101 C3100 1.367 . S
C3101 C3103 1.433 . S
C3102 C3098 1.350 . S
C3102 C3099 1.463 1_545 S
C3102 N3106 1.427 . S
C3103 H3093 0.929 . S
C3103 C3101 1.433 . S
C3103 N3106 1.384 . S
C3104 H3095 0.929 . S
C3104 C3096 1.378 . S
C3104 C3099 1.350 . S
C3105 H3092 0.929 . S
C3105 C3097 1.433 . S
C3105 N3107 1.384 . S
N3106 C3102 1.427 . S
N3106 C3103 1.384 . S
N3107 C3099 1.427 . S
N3107 C3105 1.384 . S
H3108 C3114 0.930 . S
H3109 C3118 0.930 . S
H3110 C3123 0.929 . S
H3111 C3121 0.929 . S
H3112 C3116 0.929 . S
H3113 C3122 0.929 . S
C3114 H3108 0.930 . S
C3114 C3115 1.367 . S
C3114 C3122 1.378 . S
C3115 C3114 1.367 . S
C3115 C3123 1.433 . S
C3116 H3112 0.929 . S
C3116 C3118 1.378 . S
C3116 C3120 1.350 . S
C3117 C3120 1.463 1_655 S
C3117 C3122 1.350 . S
C3117 N3125 1.427 . S
C3118 H3109 0.930 . S
C3118 C3116 1.378 . S
C3118 C3119 1.367 . S
C3119 C3118 1.367 . S
C3119 C3121 1.433 . S
C3120 C3116 1.350 . S
C3120 C3117 1.463 1_455 S
C3120 N3124 1.427 . S
C3121 H3111 0.929 . S
C3121 C3119 1.433 . S
C3121 N3124 1.384 . S
C3122 H3113 0.929 . S
C3122 C3114 1.378 . S
C3122 C3117 1.350 . S
C3123 H3110 0.929 . S
C3123 C3115 1.433 . S
C3123 N3125 1.384 . S
N3124 C3120 1.427 . S
N3124 C3121 1.384 . S
N3125 C3117 1.427 . S
N3125 C3123 1.384 . S
H3126 C3132 0.930 . S
H3127 C3136 0.930 . S
H3128 C3141 0.929 . S
H3129 C3139 0.929 . S
H3130 C3134 0.929 . S
H3131 C3140 0.929 . S
C3132 H3126 0.930 . S
C3132 C3133 1.367 . S
C3132 C3140 1.378 . S
C3133 C3132 1.367 . S
C3133 C3141 1.433 . S
C3134 H3130 0.929 . S
C3134 C3136 1.378 . S
C3134 C3138 1.350 . S
C3135 C3138 1.463 1_545 S
C3135 C3140 1.350 . S
C3135 N3143 1.427 . S
C3136 H3127 0.930 . S
C3136 C3134 1.378 . S
C3136 C3137 1.367 . S
C3137 C3136 1.367 . S
C3137 C3139 1.433 . S
C3138 C3134 1.350 . S
C3138 C3135 1.463 1_565 S
C3138 N3142 1.427 . S
C3139 H3129 0.929 . S
C3139 C3137 1.433 . S
C3139 N3142 1.384 . S
C3140 H3131 0.929 . S
C3140 C3132 1.378 . S
C3140 C3135 1.350 . S
C3141 H3128 0.929 . S
C3141 C3133 1.433 . S
C3141 N3143 1.384 . S
N3142 C3138 1.427 . S
N3142 C3139 1.384 . S
N3143 C3135 1.427 . S
N3143 C3141 1.384 . S
H3144 C3150 0.930 . S
H3145 C3154 0.930 . S
H3146 C3159 0.929 . S
H3147 C3157 0.929 . S
H3148 C3152 0.929 . S
H3149 C3158 0.929 . S
C3150 H3144 0.930 . S
C3150 C3151 1.367 . S
C3150 C3158 1.378 . S
C3151 C3150 1.367 . S
C3151 C3159 1.433 . S
C3152 H3148 0.929 . S
C3152 C3154 1.378 . S
C3152 C3156 1.350 . S
C3153 C3156 1.463 1_455 S
C3153 C3158 1.350 . S
C3153 N3161 1.427 . S
C3154 H3145 0.930 . S
C3154 C3152 1.378 . S
C3154 C3155 1.367 . S
C3155 C3154 1.367 . S
C3155 C3157 1.433 . S
C3156 C3152 1.350 . S
C3156 C3153 1.463 1_655 S
C3156 N3160 1.427 . S
C3157 H3147 0.929 . S
C3157 C3155 1.433 . S
C3157 N3160 1.384 . S
C3158 H3149 0.929 . S
C3158 C3150 1.378 . S
C3158 C3153 1.350 . S
C3159 H3146 0.929 . S
C3159 C3151 1.433 . S
C3159 N3161 1.384 . S
N3160 C3156 1.427 . S
N3160 C3157 1.384 . S
N3161 C3153 1.427 . S
N3161 C3159 1.384 . S
H3162 C3168 0.930 . S
H3163 C3172 0.930 . S
H3164 C3177 0.929 . S
H3165 C3175 0.929 . S
H3166 C3170 0.929 . S
H3167 C3176 0.929 . S
C3168 H3162 0.930 . S
C3168 C3169 1.367 . S
C3168 C3176 1.378 . S
C3169 C3168 1.367 . S
C3169 C3177 1.433 . S
C3170 H3166 0.929 . S
C3170 C3172 1.378 . S
C3170 C3174 1.350 . S
C3171 C3174 1.463 1_545 S
C3171 C3176 1.350 . S
C3171 N3179 1.427 . S
C3172 H3163 0.930 . S
C3172 C3170 1.378 . S
C3172 C3173 1.367 . S
C3173 C3172 1.367 . S
C3173 C3175 1.433 . S
C3174 C3170 1.350 . S
C3174 C3171 1.463 1_565 S
C3174 N3178 1.427 . S
C3175 H3165 0.929 . S
C3175 C3173 1.433 . S
C3175 N3178 1.384 . S
C3176 H3167 0.929 . S
C3176 C3168 1.378 . S
C3176 C3171 1.350 . S
C3177 H3164 0.929 . S
C3177 C3169 1.433 . S
C3177 N3179 1.384 . S
N3178 C3174 1.427 . S
N3178 C3175 1.384 . S
N3179 C3171 1.427 . S
N3179 C3177 1.384 . S
H3180 C3186 0.930 . S
H3181 C3190 0.930 . S
H3182 C3195 0.929 . S
H3183 C3193 0.929 . S
H3184 C3188 0.929 . S
H3185 C3194 0.929 . S
C3186 H3180 0.930 . S
C3186 C3187 1.367 . S
C3186 C3194 1.378 . S
C3187 C3186 1.367 . S
C3187 C3195 1.433 . S
C3188 H3184 0.929 . S
C3188 C3190 1.378 . S
C3188 C3192 1.350 . S
C3189 C3192 1.463 1_655 S
C3189 C3194 1.350 . S
C3189 N3197 1.427 . S
C3190 H3181 0.930 . S
C3190 C3188 1.378 . S
C3190 C3191 1.367 . S
C3191 C3190 1.367 . S
C3191 C3193 1.433 . S
C3192 C3188 1.350 . S
C3192 C3189 1.463 1_455 S
C3192 N3196 1.427 . S
C3193 H3183 0.929 . S
C3193 C3191 1.433 . S
C3193 N3196 1.384 . S
C3194 H3185 0.929 . S
C3194 C3186 1.378 . S
C3194 C3189 1.350 . S
C3195 H3182 0.929 . S
C3195 C3187 1.433 . S
C3195 N3197 1.384 . S
N3196 C3192 1.427 . S
N3196 C3193 1.384 . S
N3197 C3189 1.427 . S
N3197 C3195 1.384 . S
H3198 C3204 0.930 . S
H3199 C3208 0.930 . S
H3200 C3213 0.929 . S
H3201 C3211 0.929 . S
H3202 C3206 0.929 . S
H3203 C3212 0.929 . S
C3204 H3198 0.930 . S
C3204 C3205 1.367 . S
C3204 C3212 1.378 . S
C3205 C3204 1.367 . S
C3205 C3213 1.433 . S
C3206 H3202 0.929 . S
C3206 C3208 1.378 . S
C3206 C3210 1.350 . S
C3207 C3210 1.463 1_545 S
C3207 C3212 1.350 . S
C3207 N3215 1.427 . S
C3208 H3199 0.930 . S
C3208 C3206 1.378 . S
C3208 C3209 1.367 . S
C3209 C3208 1.367 . S
C3209 C3211 1.433 . S
C3210 C3206 1.350 . S
C3210 C3207 1.463 1_565 S
C3210 N3214 1.427 . S
C3211 H3201 0.929 . S
C3211 C3209 1.433 . S
C3211 N3214 1.384 . S
C3212 H3203 0.929 . S
C3212 C3204 1.378 . S
C3212 C3207 1.350 . S
C3213 H3200 0.929 . S
C3213 C3205 1.433 . S
C3213 N3215 1.384 . S
N3214 C3210 1.427 . S
N3214 C3211 1.384 . S
N3215 C3207 1.427 . S
N3215 C3213 1.384 . S
H3216 C3222 0.930 . S
H3217 C3226 0.930 . S
H3218 C3231 0.929 . S
H3219 C3229 0.929 . S
H3220 C3224 0.929 . S
H3221 C3230 0.929 . S
C3222 H3216 0.930 . S
C3222 C3223 1.367 . S
C3222 C3230 1.378 . S
C3223 C3222 1.367 . S
C3223 C3231 1.433 . S
C3224 H3220 0.929 . S
C3224 C3226 1.378 . S
C3224 C3228 1.350 . S
C3225 C3228 1.463 1_565 S
C3225 C3230 1.350 . S
C3225 N3233 1.427 . S
C3226 H3217 0.930 . S
C3226 C3224 1.378 . S
C3226 C3227 1.367 . S
C3227 C3226 1.367 . S
C3227 C3229 1.433 . S
C3228 C3224 1.350 . S
C3228 C3225 1.463 1_545 S
C3228 N3232 1.427 . S
C3229 H3219 0.929 . S
C3229 C3227 1.433 . S
C3229 N3232 1.384 . S
C3230 H3221 0.929 . S
C3230 C3222 1.378 . S
C3230 C3225 1.350 . S
C3231 H3218 0.929 . S
C3231 C3223 1.433 . S
C3231 N3233 1.384 . S
N3232 C3228 1.427 . S
N3232 C3229 1.384 . S
N3233 C3225 1.427 . S
N3233 C3231 1.384 . S
H3234 C3240 0.930 . S
H3235 C3244 0.930 . S
H3236 C3249 0.929 . S
H3237 C3247 0.929 . S
H3238 C3242 0.929 . S
H3239 C3248 0.929 . S
C3240 H3234 0.930 . S
C3240 C3241 1.367 . S
C3240 C3248 1.378 . S
C3241 C3240 1.367 . S
C3241 C3249 1.433 . S
C3242 H3238 0.929 . S
C3242 C3244 1.378 . S
C3242 C3246 1.350 . S
C3243 C3246 1.463 1_655 S
C3243 C3248 1.350 . S
C3243 N3251 1.427 . S
C3244 H3235 0.930 . S
C3244 C3242 1.378 . S
C3244 C3245 1.367 . S
C3245 C3244 1.367 . S
C3245 C3247 1.433 . S
C3246 C3242 1.350 . S
C3246 C3243 1.463 1_455 S
C3246 N3250 1.427 . S
C3247 H3237 0.929 . S
C3247 C3245 1.433 . S
C3247 N3250 1.384 . S
C3248 H3239 0.929 . S
C3248 C3240 1.378 . S
C3248 C3243 1.350 . S
C3249 H3236 0.929 . S
C3249 C3241 1.433 . S
C3249 N3251 1.384 . S
N3250 C3246 1.427 . S
N3250 C3247 1.384 . S
N3251 C3243 1.427 . S
N3251 C3249 1.384 . S
H3252 C3258 0.930 . S
H3253 C3262 0.930 . S
H3254 C3267 0.929 . S
H3255 C3265 0.929 . S
H3256 C3260 0.929 . S
H3257 C3266 0.929 . S
C3258 H3252 0.930 . S
C3258 C3259 1.367 . S
C3258 C3266 1.378 . S
C3259 C3258 1.367 . S
C3259 C3267 1.433 . S
C3260 H3256 0.929 . S
C3260 C3262 1.378 . S
C3260 C3264 1.350 . S
C3261 C3264 1.463 1_565 S
C3261 C3266 1.350 . S
C3261 N3269 1.427 . S
C3262 H3253 0.930 . S
C3262 C3260 1.378 . S
C3262 C3263 1.367 . S
C3263 C3262 1.367 . S
C3263 C3265 1.433 . S
C3264 C3260 1.350 . S
C3264 C3261 1.463 1_545 S
C3264 N3268 1.427 . S
C3265 H3255 0.929 . S
C3265 C3263 1.433 . S
C3265 N3268 1.384 . S
C3266 H3257 0.929 . S
C3266 C3258 1.378 . S
C3266 C3261 1.350 . S
C3267 H3254 0.929 . S
C3267 C3259 1.433 . S
C3267 N3269 1.384 . S
N3268 C3264 1.427 . S
N3268 C3265 1.384 . S
N3269 C3261 1.427 . S
N3269 C3267 1.384 . S
H3270 C3276 0.930 . S
H3271 C3280 0.930 . S
H3272 C3285 0.929 . S
H3273 C3283 0.929 . S
H3274 C3278 0.929 . S
H3275 C3284 0.929 . S
C3276 H3270 0.930 . S
C3276 C3277 1.367 . S
C3276 C3284 1.378 . S
C3277 C3276 1.367 . S
C3277 C3285 1.433 . S
C3278 H3274 0.929 . S
C3278 C3280 1.378 . S
C3278 C3282 1.350 . S
C3279 C3282 1.463 1_455 S
C3279 C3284 1.350 . S
C3279 N3287 1.427 . S
C3280 H3271 0.930 . S
C3280 C3278 1.378 . S
C3280 C3281 1.367 . S
C3281 C3280 1.367 . S
C3281 C3283 1.433 . S
C3282 C3278 1.350 . S
C3282 C3279 1.463 1_655 S
C3282 N3286 1.427 . S
C3283 H3273 0.929 . S
C3283 C3281 1.433 . S
C3283 N3286 1.384 . S
C3284 H3275 0.929 . S
C3284 C3276 1.378 . S
C3284 C3279 1.350 . S
C3285 H3272 0.929 . S
C3285 C3277 1.433 . S
C3285 N3287 1.384 . S
N3286 C3282 1.427 . S
N3286 C3283 1.384 . S
N3287 C3279 1.427 . S
N3287 C3285 1.384 . S
H3288 C3294 0.930 . S
H3289 C3298 0.930 . S
H3290 C3303 0.929 . S
H3291 C3301 0.929 . S
H3292 C3296 0.929 . S
H3293 C3302 0.929 . S
C3294 H3288 0.930 . S
C3294 C3295 1.367 . S
C3294 C3302 1.378 . S
C3295 C3294 1.367 . S
C3295 C3303 1.433 . S
C3296 H3292 0.929 . S
C3296 C3298 1.378 . S
C3296 C3300 1.350 . S
C3297 C3300 1.463 1_565 S
C3297 C3302 1.350 . S
C3297 N3305 1.427 . S
C3298 H3289 0.930 . S
C3298 C3296 1.378 . S
C3298 C3299 1.367 . S
C3299 C3298 1.367 . S
C3299 C3301 1.433 . S
C3300 C3296 1.350 . S
C3300 C3297 1.463 1_545 S
C3300 N3304 1.427 . S
C3301 H3291 0.929 . S
C3301 C3299 1.433 . S
C3301 N3304 1.384 . S
C3302 H3293 0.929 . S
C3302 C3294 1.378 . S
C3302 C3297 1.350 . S
C3303 H3290 0.929 . S
C3303 C3295 1.433 . S
C3303 N3305 1.384 . S
N3304 C3300 1.427 . S
N3304 C3301 1.384 . S
N3305 C3297 1.427 . S
N3305 C3303 1.384 . S
H3306 C3312 0.930 . S
H3307 C3316 0.930 . S
H3308 C3321 0.929 . S
H3309 C3319 0.929 . S
H3310 C3314 0.929 . S
H3311 C3320 0.929 . S
C3312 H3306 0.930 . S
C3312 C3313 1.367 . S
C3312 C3320 1.378 . S
C3313 C3312 1.367 . S
C3313 C3321 1.433 . S
C3314 H3310 0.929 . S
C3314 C3316 1.378 . S
C3314 C3318 1.350 . S
C3315 C3318 1.463 1_455 S
C3315 C3320 1.350 . S
C3315 N3323 1.427 . S
C3316 H3307 0.930 . S
C3316 C3314 1.378 . S
C3316 C3317 1.367 . S
C3317 C3316 1.367 . S
C3317 C3319 1.433 . S
C3318 C3314 1.350 . S
C3318 C3315 1.463 1_655 S
C3318 N3322 1.427 . S
C3319 H3309 0.929 . S
C3319 C3317 1.433 . S
C3319 N3322 1.384 . S
C3320 H3311 0.929 . S
C3320 C3312 1.378 . S
C3320 C3315 1.350 . S
C3321 H3308 0.929 . S
C3321 C3313 1.433 . S
C3321 N3323 1.384 . S
N3322 C3318 1.427 . S
N3322 C3319 1.384 . S
N3323 C3315 1.427 . S
N3323 C3321 1.384 . S
H3324 C3330 0.930 . S
H3325 C3334 0.930 . S
H3326 C3339 0.929 . S
H3327 C3337 0.929 . S
H3328 C3332 0.929 . S
H3329 C3338 0.929 . S
C3330 H3324 0.930 . S
C3330 C3331 1.367 . S
C3330 C3338 1.378 . S
C3331 C3330 1.367 . S
C3331 C3339 1.433 . S
C3332 H3328 0.929 . S
C3332 C3334 1.378 . S
C3332 C3336 1.350 . S
C3333 C3336 1.463 1_545 S
C3333 C3338 1.350 . S
C3333 N3341 1.427 . S
C3334 H3325 0.930 . S
C3334 C3332 1.378 . S
C3334 C3335 1.367 . S
C3335 C3334 1.367 . S
C3335 C3337 1.433 . S
C3336 C3332 1.350 . S
C3336 C3333 1.463 1_565 S
C3336 N3340 1.427 . S
C3337 H3327 0.929 . S
C3337 C3335 1.433 . S
C3337 N3340 1.384 . S
C3338 H3329 0.929 . S
C3338 C3330 1.378 . S
C3338 C3333 1.350 . S
C3339 H3326 0.929 . S
C3339 C3331 1.433 . S
C3339 N3341 1.384 . S
N3340 C3336 1.427 . S
N3340 C3337 1.384 . S
N3341 C3333 1.427 . S
N3341 C3339 1.384 . S
H3342 C3348 0.930 . S
H3343 C3352 0.930 . S
H3344 C3357 0.929 . S
H3345 C3355 0.929 . S
H3346 C3350 0.929 . S
H3347 C3356 0.929 . S
C3348 H3342 0.930 . S
C3348 C3349 1.367 . S
C3348 C3356 1.378 . S
C3349 C3348 1.367 . S
C3349 C3357 1.433 . S
C3350 H3346 0.929 . S
C3350 C3352 1.378 . S
C3350 C3354 1.350 . S
C3351 C3354 1.463 1_655 S
C3351 C3356 1.350 . S
C3351 N3359 1.427 . S
C3352 H3343 0.930 . S
C3352 C3350 1.378 . S
C3352 C3353 1.367 . S
C3353 C3352 1.367 . S
C3353 C3355 1.433 . S
C3354 C3350 1.350 . S
C3354 C3351 1.463 1_455 S
C3354 N3358 1.427 . S
C3355 H3345 0.929 . S
C3355 C3353 1.433 . S
C3355 N3358 1.384 . S
C3356 H3347 0.929 . S
C3356 C3348 1.378 . S
C3356 C3351 1.350 . S
C3357 H3344 0.929 . S
C3357 C3349 1.433 . S
C3357 N3359 1.384 . S
N3358 C3354 1.427 . S
N3358 C3355 1.384 . S
N3359 C3351 1.427 . S
N3359 C3357 1.384 . S
H3360 C3366 0.930 . S
H3361 C3370 0.930 . S
H3362 C3375 0.929 . S
H3363 C3373 0.929 . S
H3364 C3368 0.929 . S
H3365 C3374 0.929 . S
C3366 H3360 0.930 . S
C3366 C3367 1.367 . S
C3366 C3374 1.378 . S
C3367 C3366 1.367 . S
C3367 C3375 1.433 . S
C3368 H3364 0.929 . S
C3368 C3370 1.378 . S
C3368 C3372 1.350 . S
C3369 C3372 1.463 1_554 S
C3369 C3374 1.350 . S
C3369 N3377 1.427 . S
C3370 H3361 0.930 . S
C3370 C3368 1.378 . S
C3370 C3371 1.367 . S
C3371 C3370 1.367 . S
C3371 C3373 1.433 . S
C3372 C3368 1.350 . S
C3372 C3369 1.463 1_556 S
C3372 N3376 1.427 . S
C3373 H3363 0.929 . S
C3373 C3371 1.433 . S
C3373 N3376 1.384 . S
C3374 H3365 0.929 . S
C3374 C3366 1.378 . S
C3374 C3369 1.350 . S
C3375 H3362 0.929 . S
C3375 C3367 1.433 . S
C3375 N3377 1.384 . S
N3376 C3372 1.427 . S
N3376 C3373 1.384 . S
N3377 C3369 1.427 . S
N3377 C3375 1.384 . S
H3378 C3384 0.930 . S
H3379 C3388 0.930 . S
H3380 C3393 0.929 . S
H3381 C3391 0.929 . S
H3382 C3386 0.929 . S
H3383 C3392 0.929 . S
C3384 H3378 0.930 . S
C3384 C3385 1.367 . S
C3384 C3392 1.378 . S
C3385 C3384 1.367 . S
C3385 C3393 1.433 . S
C3386 H3382 0.929 . S
C3386 C3388 1.378 . S
C3386 C3390 1.350 . S
C3387 C3390 1.463 1_556 S
C3387 C3392 1.350 . S
C3387 N3395 1.427 . S
C3388 H3379 0.930 . S
C3388 C3386 1.378 . S
C3388 C3389 1.367 . S
C3389 C3388 1.367 . S
C3389 C3391 1.433 . S
C3390 C3386 1.350 . S
C3390 C3387 1.463 1_554 S
C3390 N3394 1.427 . S
C3391 H3381 0.929 . S
C3391 C3389 1.433 . S
C3391 N3394 1.384 . S
C3392 H3383 0.929 . S
C3392 C3384 1.378 . S
C3392 C3387 1.350 . S
C3393 H3380 0.929 . S
C3393 C3385 1.433 . S
C3393 N3395 1.384 . S
N3394 C3390 1.427 . S
N3394 C3391 1.384 . S
N3395 C3387 1.427 . S
N3395 C3393 1.384 . S
H3396 C3402 0.930 . S
H3397 C3406 0.930 . S
H3398 C3411 0.929 . S
H3399 C3409 0.929 . S
H3400 C3404 0.929 . S
H3401 C3410 0.929 . S
C3402 H3396 0.930 . S
C3402 C3403 1.367 . S
C3402 C3410 1.378 . S
C3403 C3402 1.367 . S
C3403 C3411 1.433 . S
C3404 H3400 0.929 . S
C3404 C3406 1.378 . S
C3404 C3408 1.350 . S
C3405 C3408 1.463 1_554 S
C3405 C3410 1.350 . S
C3405 N3413 1.427 . S
C3406 H3397 0.930 . S
C3406 C3404 1.378 . S
C3406 C3407 1.367 . S
C3407 C3406 1.367 . S
C3407 C3409 1.433 . S
C3408 C3404 1.350 . S
C3408 C3405 1.463 1_556 S
C3408 N3412 1.427 . S
C3409 H3399 0.929 . S
C3409 C3407 1.433 . S
C3409 N3412 1.384 . S
C3410 H3401 0.929 . S
C3410 C3402 1.378 . S
C3410 C3405 1.350 . S
C3411 H3398 0.929 . S
C3411 C3403 1.433 . S
C3411 N3413 1.384 . S
N3412 C3408 1.427 . S
N3412 C3409 1.384 . S
N3413 C3405 1.427 . S
N3413 C3411 1.384 . S
H3414 C3420 0.930 . S
H3415 C3424 0.930 . S
H3416 C3429 0.929 . S
H3417 C3427 0.929 . S
H3418 C3422 0.929 . S
H3419 C3428 0.929 . S
C3420 H3414 0.930 . S
C3420 C3421 1.367 . S
C3420 C3428 1.378 . S
C3421 C3420 1.367 . S
C3421 C3429 1.433 . S
C3422 H3418 0.929 . S
C3422 C3424 1.378 . S
C3422 C3426 1.350 . S
C3423 C3426 1.463 1_556 S
C3423 C3428 1.350 . S
C3423 N3431 1.427 . S
C3424 H3415 0.930 . S
C3424 C3422 1.378 . S
C3424 C3425 1.367 . S
C3425 C3424 1.367 . S
C3425 C3427 1.433 . S
C3426 C3422 1.350 . S
C3426 C3423 1.463 1_554 S
C3426 N3430 1.427 . S
C3427 H3417 0.929 . S
C3427 C3425 1.433 . S
C3427 N3430 1.384 . S
C3428 H3419 0.929 . S
C3428 C3420 1.378 . S
C3428 C3423 1.350 . S
C3429 H3416 0.929 . S
C3429 C3421 1.433 . S
C3429 N3431 1.384 . S
N3430 C3426 1.427 . S
N3430 C3427 1.384 . S
N3431 C3423 1.427 . S
N3431 C3429 1.384 . S
H3432 C3438 0.930 . S
H3433 C3442 0.930 . S
H3434 C3447 0.929 . S
H3435 C3445 0.929 . S
H3436 C3440 0.929 . S
H3437 C3446 0.929 . S
C3438 H3432 0.930 . S
C3438 C3439 1.367 . S
C3438 C3446 1.378 . S
C3439 C3438 1.367 . S
C3439 C3447 1.433 . S
C3440 H3436 0.929 . S
C3440 C3442 1.378 . S
C3440 C3444 1.350 . S
C3441 C3444 1.463 1_554 S
C3441 C3446 1.350 . S
C3441 N3449 1.427 . S
C3442 H3433 0.930 . S
C3442 C3440 1.378 . S
C3442 C3443 1.367 . S
C3443 C3442 1.367 . S
C3443 C3445 1.433 . S
C3444 C3440 1.350 . S
C3444 C3441 1.463 1_556 S
C3444 N3448 1.427 . S
C3445 H3435 0.929 . S
C3445 C3443 1.433 . S
C3445 N3448 1.384 . S
C3446 H3437 0.929 . S
C3446 C3438 1.378 . S
C3446 C3441 1.350 . S
C3447 H3434 0.929 . S
C3447 C3439 1.433 . S
C3447 N3449 1.384 . S
N3448 C3444 1.427 . S
N3448 C3445 1.384 . S
N3449 C3441 1.427 . S
N3449 C3447 1.384 . S
H3450 C3456 0.930 . S
H3451 C3460 0.930 . S
H3452 C3465 0.929 . S
H3453 C3463 0.929 . S
H3454 C3458 0.929 . S
H3455 C3464 0.929 . S
C3456 H3450 0.930 . S
C3456 C3457 1.367 . S
C3456 C3464 1.378 . S
C3457 C3456 1.367 . S
C3457 C3465 1.433 . S
C3458 H3454 0.929 . S
C3458 C3460 1.378 . S
C3458 C3462 1.350 . S
C3459 C3462 1.463 1_554 S
C3459 C3464 1.350 . S
C3459 N3467 1.427 . S
C3460 H3451 0.930 . S
C3460 C3458 1.378 . S
C3460 C3461 1.367 . S
C3461 C3460 1.367 . S
C3461 C3463 1.433 . S
C3462 C3458 1.350 . S
C3462 C3459 1.463 1_556 S
C3462 N3466 1.427 . S
C3463 H3453 0.929 . S
C3463 C3461 1.433 . S
C3463 N3466 1.384 . S
C3464 H3455 0.929 . S
C3464 C3456 1.378 . S
C3464 C3459 1.350 . S
C3465 H3452 0.929 . S
C3465 C3457 1.433 . S
C3465 N3467 1.384 . S
N3466 C3462 1.427 . S
N3466 C3463 1.384 . S
N3467 C3459 1.427 . S
N3467 C3465 1.384 . S
H3468 C3474 0.930 . S
H3469 C3478 0.930 . S
H3470 C3483 0.929 . S
H3471 C3481 0.929 . S
H3472 C3476 0.929 . S
H3473 C3482 0.929 . S
C3474 H3468 0.930 . S
C3474 C3475 1.367 . S
C3474 C3482 1.378 . S
C3475 C3474 1.367 . S
C3475 C3483 1.433 . S
C3476 H3472 0.929 . S
C3476 C3478 1.378 . S
C3476 C3480 1.350 . S
C3477 C3480 1.463 1_554 S
C3477 C3482 1.350 . S
C3477 N3485 1.427 . S
C3478 H3469 0.930 . S
C3478 C3476 1.378 . S
C3478 C3479 1.367 . S
C3479 C3478 1.367 . S
C3479 C3481 1.433 . S
C3480 C3476 1.350 . S
C3480 C3477 1.463 1_556 S
C3480 N3484 1.427 . S
C3481 H3471 0.929 . S
C3481 C3479 1.433 . S
C3481 N3484 1.384 . S
C3482 H3473 0.929 . S
C3482 C3474 1.378 . S
C3482 C3477 1.350 . S
C3483 H3470 0.929 . S
C3483 C3475 1.433 . S
C3483 N3485 1.384 . S
N3484 C3480 1.427 . S
N3484 C3481 1.384 . S
N3485 C3477 1.427 . S
N3485 C3483 1.384 . S
H3486 C3492 0.930 . S
H3487 C3496 0.930 . S
H3488 C3501 0.929 . S
H3489 C3499 0.929 . S
H3490 C3494 0.929 . S
H3491 C3500 0.929 . S
C3492 H3486 0.930 . S
C3492 C3493 1.367 . S
C3492 C3500 1.378 . S
C3493 C3492 1.367 . S
C3493 C3501 1.433 . S
C3494 H3490 0.929 . S
C3494 C3496 1.378 . S
C3494 C3498 1.350 . S
C3495 C3498 1.463 1_556 S
C3495 C3500 1.350 . S
C3495 N3503 1.427 . S
C3496 H3487 0.930 . S
C3496 C3494 1.378 . S
C3496 C3497 1.367 . S
C3497 C3496 1.367 . S
C3497 C3499 1.433 . S
C3498 C3494 1.350 . S
C3498 C3495 1.463 1_554 S
C3498 N3502 1.427 . S
C3499 H3489 0.929 . S
C3499 C3497 1.433 . S
C3499 N3502 1.384 . S
C3500 H3491 0.929 . S
C3500 C3492 1.378 . S
C3500 C3495 1.350 . S
C3501 H3488 0.929 . S
C3501 C3493 1.433 . S
C3501 N3503 1.384 . S
N3502 C3498 1.427 . S
N3502 C3499 1.384 . S
N3503 C3495 1.427 . S
N3503 C3501 1.384 . S
H3504 C3510 0.930 . S
H3505 C3514 0.930 . S
H3506 C3519 0.929 . S
H3507 C3517 0.929 . S
H3508 C3512 0.929 . S
H3509 C3518 0.929 . S
C3510 H3504 0.930 . S
C3510 C3511 1.367 . S
C3510 C3518 1.378 . S
C3511 C3510 1.367 . S
C3511 C3519 1.433 . S
C3512 H3508 0.929 . S
C3512 C3514 1.378 . S
C3512 C3516 1.350 . S
C3513 C3516 1.463 . S
C3513 C3518 1.350 . S
C3513 N3521 1.427 . S
C3514 H3505 0.930 . S
C3514 C3512 1.378 . S
C3514 C3515 1.367 . S
C3515 C3514 1.367 . S
C3515 C3517 1.433 . S
C3516 C3512 1.350 . S
C3516 C3513 1.463 . S
C3516 N3520 1.427 . S
C3517 H3507 0.929 . S
C3517 C3515 1.433 . S
C3517 N3520 1.384 . S
C3518 H3509 0.929 . S
C3518 C3510 1.378 . S
C3518 C3513 1.350 . S
C3519 H3506 0.929 . S
C3519 C3511 1.433 . S
C3519 N3521 1.384 . S
N3520 C3516 1.427 . S
N3520 C3517 1.384 . S
N3521 C3513 1.427 . S
N3521 C3519 1.384 . S
H3522 C3528 0.930 . S
H3523 C3532 0.930 . S
H3524 C3537 0.929 . S
H3525 C3535 0.929 . S
H3526 C3530 0.929 . S
H3527 C3536 0.929 . S
C3528 H3522 0.930 . S
C3528 C3529 1.367 . S
C3528 C3536 1.378 . S
C3529 C3528 1.367 . S
C3529 C3537 1.433 . S
C3530 H3526 0.929 . S
C3530 C3532 1.378 . S
C3530 C3534 1.350 . S
C3531 C3534 1.463 . S
C3531 C3536 1.350 . S
C3531 N3539 1.427 . S
C3532 H3523 0.930 . S
C3532 C3530 1.378 . S
C3532 C3533 1.367 . S
C3533 C3532 1.367 . S
C3533 C3535 1.433 . S
C3534 C3530 1.350 . S
C3534 C3531 1.463 . S
C3534 N3538 1.427 . S
C3535 H3525 0.929 . S
C3535 C3533 1.433 . S
C3535 N3538 1.384 . S
C3536 H3527 0.929 . S
C3536 C3528 1.378 . S
C3536 C3531 1.350 . S
C3537 H3524 0.929 . S
C3537 C3529 1.433 . S
C3537 N3539 1.384 . S
N3538 C3534 1.427 . S
N3538 C3535 1.384 . S
N3539 C3531 1.427 . S
N3539 C3537 1.384 . S
H3540 C3546 0.930 . S
H3541 C3550 0.930 . S
H3542 C3555 0.929 . S
H3543 C3553 0.929 . S
H3544 C3548 0.929 . S
H3545 C3554 0.929 . S
C3546 H3540 0.930 . S
C3546 C3547 1.367 . S
C3546 C3554 1.378 . S
C3547 C3546 1.367 . S
C3547 C3555 1.433 . S
C3548 H3544 0.929 . S
C3548 C3550 1.378 . S
C3548 C3552 1.350 . S
C3549 C3552 1.463 . S
C3549 C3554 1.350 . S
C3549 N3557 1.427 . S
C3550 H3541 0.930 . S
C3550 C3548 1.378 . S
C3550 C3551 1.367 . S
C3551 C3550 1.367 . S
C3551 C3553 1.433 . S
C3552 C3548 1.350 . S
C3552 C3549 1.463 . S
C3552 N3556 1.427 . S
C3553 H3543 0.929 . S
C3553 C3551 1.433 . S
C3553 N3556 1.384 . S
C3554 H3545 0.929 . S
C3554 C3546 1.378 . S
C3554 C3549 1.350 . S
C3555 H3542 0.929 . S
C3555 C3547 1.433 . S
C3555 N3557 1.384 . S
N3556 C3552 1.427 . S
N3556 C3553 1.384 . S
N3557 C3549 1.427 . S
N3557 C3555 1.384 . S
H3558 C3564 0.930 . S
H3559 C3568 0.930 . S
H3560 C3573 0.929 . S
H3561 C3571 0.929 . S
H3562 C3566 0.929 . S
H3563 C3572 0.929 . S
C3564 H3558 0.930 . S
C3564 C3565 1.367 . S
C3564 C3572 1.378 . S
C3565 C3564 1.367 . S
C3565 C3573 1.433 . S
C3566 H3562 0.929 . S
C3566 C3568 1.378 . S
C3566 C3570 1.350 . S
C3567 C3570 1.463 . S
C3567 C3572 1.350 . S
C3567 N3575 1.427 . S
C3568 H3559 0.930 . S
C3568 C3566 1.378 . S
C3568 C3569 1.367 . S
C3569 C3568 1.367 . S
C3569 C3571 1.433 . S
C3570 C3566 1.350 . S
C3570 C3567 1.463 . S
C3570 N3574 1.427 . S
C3571 H3561 0.929 . S
C3571 C3569 1.433 . S
C3571 N3574 1.384 . S
C3572 H3563 0.929 . S
C3572 C3564 1.378 . S
C3572 C3567 1.350 . S
C3573 H3560 0.929 . S
C3573 C3565 1.433 . S
C3573 N3575 1.384 . S
N3574 C3570 1.427 . S
N3574 C3571 1.384 . S
N3575 C3567 1.427 . S
N3575 C3573 1.384 . S
H3576 C3582 0.930 . S
H3577 C3586 0.930 . S
H3578 C3591 0.929 . S
H3579 C3589 0.929 . S
H3580 C3584 0.929 . S
H3581 C3590 0.929 . S
C3582 H3576 0.930 . S
C3582 C3583 1.367 . S
C3582 C3590 1.378 . S
C3583 C3582 1.367 . S
C3583 C3591 1.433 . S
C3584 H3580 0.929 . S
C3584 C3586 1.378 . S
C3584 C3588 1.350 . S
C3585 C3588 1.463 . S
C3585 C3590 1.350 . S
C3585 N3593 1.427 . S
C3586 H3577 0.930 . S
C3586 C3584 1.378 . S
C3586 C3587 1.367 . S
C3587 C3586 1.367 . S
C3587 C3589 1.433 . S
C3588 C3584 1.350 . S
C3588 C3585 1.463 . S
C3588 N3592 1.427 . S
C3589 H3579 0.929 . S
C3589 C3587 1.433 . S
C3589 N3592 1.384 . S
C3590 H3581 0.929 . S
C3590 C3582 1.378 . S
C3590 C3585 1.350 . S
C3591 H3578 0.929 . S
C3591 C3583 1.433 . S
C3591 N3593 1.384 . S
N3592 C3588 1.427 . S
N3592 C3589 1.384 . S
N3593 C3585 1.427 . S
N3593 C3591 1.384 . S
H3594 C3600 0.930 . S
H3595 C3604 0.930 . S
H3596 C3609 0.929 . S
H3597 C3607 0.929 . S
H3598 C3602 0.929 . S
H3599 C3608 0.929 . S
C3600 H3594 0.930 . S
C3600 C3601 1.367 . S
C3600 C3608 1.378 . S
C3601 C3600 1.367 . S
C3601 C3609 1.433 . S
C3602 H3598 0.929 . S
C3602 C3604 1.378 . S
C3602 C3606 1.350 . S
C3603 C3606 1.463 . S
C3603 C3608 1.350 . S
C3603 N3611 1.427 . S
C3604 H3595 0.930 . S
C3604 C3602 1.378 . S
C3604 C3605 1.367 . S
C3605 C3604 1.367 . S
C3605 C3607 1.433 . S
C3606 C3602 1.350 . S
C3606 C3603 1.463 . S
C3606 N3610 1.427 . S
C3607 H3597 0.929 . S
C3607 C3605 1.433 . S
C3607 N3610 1.384 . S
C3608 H3599 0.929 . S
C3608 C3600 1.378 . S
C3608 C3603 1.350 . S
C3609 H3596 0.929 . S
C3609 C3601 1.433 . S
C3609 N3611 1.384 . S
N3610 C3606 1.427 . S
N3610 C3607 1.384 . S
N3611 C3603 1.427 . S
N3611 C3609 1.384 . S
H3612 C3618 0.930 . S
H3613 C3622 0.930 . S
H3614 C3627 0.929 . S
H3615 C3625 0.929 . S
H3616 C3620 0.929 . S
H3617 C3626 0.929 . S
C3618 H3612 0.930 . S
C3618 C3619 1.367 . S
C3618 C3626 1.378 . S
C3619 C3618 1.367 . S
C3619 C3627 1.433 . S
C3620 H3616 0.929 . S
C3620 C3622 1.378 . S
C3620 C3624 1.350 . S
C3621 C3624 1.463 . S
C3621 C3626 1.350 . S
C3621 N3629 1.427 . S
C3622 H3613 0.930 . S
C3622 C3620 1.378 . S
C3622 C3623 1.367 . S
C3623 C3622 1.367 . S
C3623 C3625 1.433 . S
C3624 C3620 1.350 . S
C3624 C3621 1.463 . S
C3624 N3628 1.427 . S
C3625 H3615 0.929 . S
C3625 C3623 1.433 . S
C3625 N3628 1.384 . S
C3626 H3617 0.929 . S
C3626 C3618 1.378 . S
C3626 C3621 1.350 . S
C3627 H3614 0.929 . S
C3627 C3619 1.433 . S
C3627 N3629 1.384 . S
N3628 C3624 1.427 . S
N3628 C3625 1.384 . S
N3629 C3621 1.427 . S
N3629 C3627 1.384 . S
H3630 C3636 0.930 . S
H3631 C3640 0.930 . S
H3632 C3645 0.929 . S
H3633 C3643 0.929 . S
H3634 C3638 0.929 . S
H3635 C3644 0.929 . S
C3636 H3630 0.930 . S
C3636 C3637 1.367 . S
C3636 C3644 1.378 . S
C3637 C3636 1.367 . S
C3637 C3645 1.433 . S
C3638 H3634 0.929 . S
C3638 C3640 1.378 . S
C3638 C3642 1.350 . S
C3639 C3642 1.463 . S
C3639 C3644 1.350 . S
C3639 N3647 1.427 . S
C3640 H3631 0.930 . S
C3640 C3638 1.378 . S
C3640 C3641 1.367 . S
C3641 C3640 1.367 . S
C3641 C3643 1.433 . S
C3642 C3638 1.350 . S
C3642 C3639 1.463 . S
C3642 N3646 1.427 . S
C3643 H3633 0.929 . S
C3643 C3641 1.433 . S
C3643 N3646 1.384 . S
C3644 H3635 0.929 . S
C3644 C3636 1.378 . S
C3644 C3639 1.350 . S
C3645 H3632 0.929 . S
C3645 C3637 1.433 . S
C3645 N3647 1.384 . S
N3646 C3642 1.427 . S
N3646 C3643 1.384 . S
N3647 C3639 1.427 . S
N3647 C3645 1.384 . S
H3648 C3654 0.930 . S
H3649 C3658 0.930 . S
H3650 C3663 0.929 . S
H3651 C3661 0.929 . S
H3652 C3656 0.929 . S
H3653 C3662 0.929 . S
C3654 H3648 0.930 . S
C3654 C3655 1.367 . S
C3654 C3662 1.378 . S
C3655 C3654 1.367 . S
C3655 C3663 1.433 . S
C3656 H3652 0.929 . S
C3656 C3658 1.378 . S
C3656 C3660 1.350 . S
C3657 C3660 1.463 . S
C3657 C3662 1.350 . S
C3657 N3665 1.427 . S
C3658 H3649 0.930 . S
C3658 C3656 1.378 . S
C3658 C3659 1.367 . S
C3659 C3658 1.367 . S
C3659 C3661 1.433 . S
C3660 C3656 1.350 . S
C3660 C3657 1.463 . S
C3660 N3664 1.427 . S
C3661 H3651 0.929 . S
C3661 C3659 1.433 . S
C3661 N3664 1.384 . S
C3662 H3653 0.929 . S
C3662 C3654 1.378 . S
C3662 C3657 1.350 . S
C3663 H3650 0.929 . S
C3663 C3655 1.433 . S
C3663 N3665 1.384 . S
N3664 C3660 1.427 . S
N3664 C3661 1.384 . S
N3665 C3657 1.427 . S
N3665 C3663 1.384 . S
H3666 C3672 0.930 . S
H3667 C3676 0.930 . S
H3668 C3681 0.929 . S
H3669 C3679 0.929 . S
H3670 C3674 0.929 . S
H3671 C3680 0.929 . S
C3672 H3666 0.930 . S
C3672 C3673 1.367 . S
C3672 C3680 1.378 . S
C3673 C3672 1.367 . S
C3673 C3681 1.433 . S
C3674 H3670 0.929 . S
C3674 C3676 1.378 . S
C3674 C3678 1.350 . S
C3675 C3678 1.463 . S
C3675 C3680 1.350 . S
C3675 N3683 1.427 . S
C3676 H3667 0.930 . S
C3676 C3674 1.378 . S
C3676 C3677 1.367 . S
C3677 C3676 1.367 . S
C3677 C3679 1.433 . S
C3678 C3674 1.350 . S
C3678 C3675 1.463 . S
C3678 N3682 1.427 . S
C3679 H3669 0.929 . S
C3679 C3677 1.433 . S
C3679 N3682 1.384 . S
C3680 H3671 0.929 . S
C3680 C3672 1.378 . S
C3680 C3675 1.350 . S
C3681 H3668 0.929 . S
C3681 C3673 1.433 . S
C3681 N3683 1.384 . S
N3682 C3678 1.427 . S
N3682 C3679 1.384 . S
N3683 C3675 1.427 . S
N3683 C3681 1.384 . S
H3684 C3690 0.930 . S
H3685 C3694 0.930 . S
H3686 C3699 0.929 . S
H3687 C3697 0.929 . S
H3688 C3692 0.929 . S
H3689 C3698 0.929 . S
C3690 H3684 0.930 . S
C3690 C3691 1.367 . S
C3690 C3698 1.378 . S
C3691 C3690 1.367 . S
C3691 C3699 1.433 . S
C3692 H3688 0.929 . S
C3692 C3694 1.378 . S
C3692 C3696 1.350 . S
C3693 C3696 1.463 . S
C3693 C3698 1.350 . S
C3693 N3701 1.427 . S
C3694 H3685 0.930 . S
C3694 C3692 1.378 . S
C3694 C3695 1.367 . S
C3695 C3694 1.367 . S
C3695 C3697 1.433 . S
C3696 C3692 1.350 . S
C3696 C3693 1.463 . S
C3696 N3700 1.427 . S
C3697 H3687 0.929 . S
C3697 C3695 1.433 . S
C3697 N3700 1.384 . S
C3698 H3689 0.929 . S
C3698 C3690 1.378 . S
C3698 C3693 1.350 . S
C3699 H3686 0.929 . S
C3699 C3691 1.433 . S
C3699 N3701 1.384 . S
N3700 C3696 1.427 . S
N3700 C3697 1.384 . S
N3701 C3693 1.427 . S
N3701 C3699 1.384 . S
H3702 C3708 0.930 . S
H3703 C3712 0.930 . S
H3704 C3717 0.929 . S
H3705 C3715 0.929 . S
H3706 C3710 0.929 . S
H3707 C3716 0.929 . S
C3708 H3702 0.930 . S
C3708 C3709 1.367 . S
C3708 C3716 1.378 . S
C3709 C3708 1.367 . S
C3709 C3717 1.433 . S
C3710 H3706 0.929 . S
C3710 C3712 1.378 . S
C3710 C3714 1.350 . S
C3711 C3714 1.463 . S
C3711 C3716 1.350 . S
C3711 N3719 1.427 . S
C3712 H3703 0.930 . S
C3712 C3710 1.378 . S
C3712 C3713 1.367 . S
C3713 C3712 1.367 . S
C3713 C3715 1.433 . S
C3714 C3710 1.350 . S
C3714 C3711 1.463 . S
C3714 N3718 1.427 . S
C3715 H3705 0.929 . S
C3715 C3713 1.433 . S
C3715 N3718 1.384 . S
C3716 H3707 0.929 . S
C3716 C3708 1.378 . S
C3716 C3711 1.350 . S
C3717 H3704 0.929 . S
C3717 C3709 1.433 . S
C3717 N3719 1.384 . S
N3718 C3714 1.427 . S
N3718 C3715 1.384 . S
N3719 C3711 1.427 . S
N3719 C3717 1.384 . S
H3720 C3726 0.930 . S
H3721 C3730 0.930 . S
H3722 C3735 0.929 . S
H3723 C3733 0.929 . S
H3724 C3728 0.929 . S
H3725 C3734 0.929 . S
C3726 H3720 0.930 . S
C3726 C3727 1.367 . S
C3726 C3734 1.378 . S
C3727 C3726 1.367 . S
C3727 C3735 1.433 . S
C3728 H3724 0.929 . S
C3728 C3730 1.378 . S
C3728 C3732 1.350 . S
C3729 C3732 1.463 . S
C3729 C3734 1.350 . S
C3729 N3737 1.427 . S
C3730 H3721 0.930 . S
C3730 C3728 1.378 . S
C3730 C3731 1.367 . S
C3731 C3730 1.367 . S
C3731 C3733 1.433 . S
C3732 C3728 1.350 . S
C3732 C3729 1.463 . S
C3732 N3736 1.427 . S
C3733 H3723 0.929 . S
C3733 C3731 1.433 . S
C3733 N3736 1.384 . S
C3734 H3725 0.929 . S
C3734 C3726 1.378 . S
C3734 C3729 1.350 . S
C3735 H3722 0.929 . S
C3735 C3727 1.433 . S
C3735 N3737 1.384 . S
N3736 C3732 1.427 . S
N3736 C3733 1.384 . S
N3737 C3729 1.427 . S
N3737 C3735 1.384 . S
H3738 C3744 0.930 . S
H3739 C3748 0.930 . S
H3740 C3753 0.929 . S
H3741 C3751 0.929 . S
H3742 C3746 0.929 . S
H3743 C3752 0.929 . S
C3744 H3738 0.930 . S
C3744 C3745 1.367 . S
C3744 C3752 1.378 . S
C3745 C3744 1.367 . S
C3745 C3753 1.433 . S
C3746 H3742 0.929 . S
C3746 C3748 1.378 . S
C3746 C3750 1.350 . S
C3747 C3750 1.463 . S
C3747 C3752 1.350 . S
C3747 N3755 1.427 . S
C3748 H3739 0.930 . S
C3748 C3746 1.378 . S
C3748 C3749 1.367 . S
C3749 C3748 1.367 . S
C3749 C3751 1.433 . S
C3750 C3746 1.350 . S
C3750 C3747 1.463 . S
C3750 N3754 1.427 . S
C3751 H3741 0.929 . S
C3751 C3749 1.433 . S
C3751 N3754 1.384 . S
C3752 H3743 0.929 . S
C3752 C3744 1.378 . S
C3752 C3747 1.350 . S
C3753 H3740 0.929 . S
C3753 C3745 1.433 . S
C3753 N3755 1.384 . S
N3754 C3750 1.427 . S
N3754 C3751 1.384 . S
N3755 C3747 1.427 . S
N3755 C3753 1.384 . S
H3756 C3762 0.930 . S
H3757 C3766 0.930 . S
H3758 C3771 0.929 . S
H3759 C3769 0.929 . S
H3760 C3764 0.929 . S
H3761 C3770 0.929 . S
C3762 H3756 0.930 . S
C3762 C3763 1.367 . S
C3762 C3770 1.378 . S
C3763 C3762 1.367 . S
C3763 C3771 1.433 . S
C3764 H3760 0.929 . S
C3764 C3766 1.378 . S
C3764 C3768 1.350 . S
C3765 C3768 1.463 . S
C3765 C3770 1.350 . S
C3765 N3773 1.427 . S
C3766 H3757 0.930 . S
C3766 C3764 1.378 . S
C3766 C3767 1.367 . S
C3767 C3766 1.367 . S
C3767 C3769 1.433 . S
C3768 C3764 1.350 . S
C3768 C3765 1.463 . S
C3768 N3772 1.427 . S
C3769 H3759 0.929 . S
C3769 C3767 1.433 . S
C3769 N3772 1.384 . S
C3770 H3761 0.929 . S
C3770 C3762 1.378 . S
C3770 C3765 1.350 . S
C3771 H3758 0.929 . S
C3771 C3763 1.433 . S
C3771 N3773 1.384 . S
N3772 C3768 1.427 . S
N3772 C3769 1.384 . S
N3773 C3765 1.427 . S
N3773 C3771 1.384 . S
H3774 C3780 0.930 . S
H3775 C3784 0.930 . S
H3776 C3789 0.929 . S
H3777 C3787 0.929 . S
H3778 C3782 0.929 . S
H3779 C3788 0.929 . S
C3780 H3774 0.930 . S
C3780 C3781 1.367 . S
C3780 C3788 1.378 . S
C3781 C3780 1.367 . S
C3781 C3789 1.433 . S
C3782 H3778 0.929 . S
C3782 C3784 1.378 . S
C3782 C3786 1.350 . S
C3783 C3786 1.463 . S
C3783 C3788 1.350 . S
C3783 N3791 1.427 . S
C3784 H3775 0.930 . S
C3784 C3782 1.378 . S
C3784 C3785 1.367 . S
C3785 C3784 1.367 . S
C3785 C3787 1.433 . S
C3786 C3782 1.350 . S
C3786 C3783 1.463 . S
C3786 N3790 1.427 . S
C3787 H3777 0.929 . S
C3787 C3785 1.433 . S
C3787 N3790 1.384 . S
C3788 H3779 0.929 . S
C3788 C3780 1.378 . S
C3788 C3783 1.350 . S
C3789 H3776 0.929 . S
C3789 C3781 1.433 . S
C3789 N3791 1.384 . S
N3790 C3786 1.427 . S
N3790 C3787 1.384 . S
N3791 C3783 1.427 . S
N3791 C3789 1.384 . S
H3792 C3798 0.930 . S
H3793 C3802 0.930 . S
H3794 C3807 0.929 . S
H3795 C3805 0.929 . S
H3796 C3800 0.929 . S
H3797 C3806 0.929 . S
C3798 H3792 0.930 . S
C3798 C3799 1.367 . S
C3798 C3806 1.378 . S
C3799 C3798 1.367 . S
C3799 C3807 1.433 . S
C3800 H3796 0.929 . S
C3800 C3802 1.378 . S
C3800 C3804 1.350 . S
C3801 C3804 1.463 . S
C3801 C3806 1.350 . S
C3801 N3809 1.427 . S
C3802 H3793 0.930 . S
C3802 C3800 1.378 . S
C3802 C3803 1.367 . S
C3803 C3802 1.367 . S
C3803 C3805 1.433 . S
C3804 C3800 1.350 . S
C3804 C3801 1.463 . S
C3804 N3808 1.427 . S
C3805 H3795 0.929 . S
C3805 C3803 1.433 . S
C3805 N3808 1.384 . S
C3806 H3797 0.929 . S
C3806 C3798 1.378 . S
C3806 C3801 1.350 . S
C3807 H3794 0.929 . S
C3807 C3799 1.433 . S
C3807 N3809 1.384 . S
N3808 C3804 1.427 . S
N3808 C3805 1.384 . S
N3809 C3801 1.427 . S
N3809 C3807 1.384 . S
H3810 C3816 0.930 . S
H3811 C3820 0.930 . S
H3812 C3825 0.929 . S
H3813 C3823 0.929 . S
H3814 C3818 0.929 . S
H3815 C3824 0.929 . S
C3816 H3810 0.930 . S
C3816 C3817 1.367 . S
C3816 C3824 1.378 . S
C3817 C3816 1.367 . S
C3817 C3825 1.433 . S
C3818 H3814 0.929 . S
C3818 C3820 1.378 . S
C3818 C3822 1.350 . S
C3819 C3822 1.463 . S
C3819 C3824 1.350 . S
C3819 N3827 1.427 . S
C3820 H3811 0.930 . S
C3820 C3818 1.378 . S
C3820 C3821 1.367 . S
C3821 C3820 1.367 . S
C3821 C3823 1.433 . S
C3822 C3818 1.350 . S
C3822 C3819 1.463 . S
C3822 N3826 1.427 . S
C3823 H3813 0.929 . S
C3823 C3821 1.433 . S
C3823 N3826 1.384 . S
C3824 H3815 0.929 . S
C3824 C3816 1.378 . S
C3824 C3819 1.350 . S
C3825 H3812 0.929 . S
C3825 C3817 1.433 . S
C3825 N3827 1.384 . S
N3826 C3822 1.427 . S
N3826 C3823 1.384 . S
N3827 C3819 1.427 . S
N3827 C3825 1.384 . S
H3828 C3834 0.930 . S
H3829 C3838 0.930 . S
H3830 C3843 0.929 . S
H3831 C3841 0.929 . S
H3832 C3836 0.929 . S
H3833 C3842 0.929 . S
C3834 H3828 0.930 . S
C3834 C3835 1.367 . S
C3834 C3842 1.378 . S
C3835 C3834 1.367 . S
C3835 C3843 1.433 . S
C3836 H3832 0.929 . S
C3836 C3838 1.378 . S
C3836 C3840 1.350 . S
C3837 C3840 1.463 . S
C3837 C3842 1.350 . S
C3837 N3845 1.427 . S
C3838 H3829 0.930 . S
C3838 C3836 1.378 . S
C3838 C3839 1.367 . S
C3839 C3838 1.367 . S
C3839 C3841 1.433 . S
C3840 C3836 1.350 . S
C3840 C3837 1.463 . S
C3840 N3844 1.427 . S
C3841 H3831 0.929 . S
C3841 C3839 1.433 . S
C3841 N3844 1.384 . S
C3842 H3833 0.929 . S
C3842 C3834 1.378 . S
C3842 C3837 1.350 . S
C3843 H3830 0.929 . S
C3843 C3835 1.433 . S
C3843 N3845 1.384 . S
N3844 C3840 1.427 . S
N3844 C3841 1.384 . S
N3845 C3837 1.427 . S
N3845 C3843 1.384 . S
H3846 C3852 0.930 . S
H3847 C3856 0.930 . S
H3848 C3861 0.929 . S
H3849 C3859 0.929 . S
H3850 C3854 0.929 . S
H3851 C3860 0.929 . S
C3852 H3846 0.930 . S
C3852 C3853 1.367 . S
C3852 C3860 1.378 . S
C3853 C3852 1.367 . S
C3853 C3861 1.433 . S
C3854 H3850 0.929 . S
C3854 C3856 1.378 . S
C3854 C3858 1.350 . S
C3855 C3858 1.463 . S
C3855 C3860 1.350 . S
C3855 N3863 1.427 . S
C3856 H3847 0.930 . S
C3856 C3854 1.378 . S
C3856 C3857 1.367 . S
C3857 C3856 1.367 . S
C3857 C3859 1.433 . S
C3858 C3854 1.350 . S
C3858 C3855 1.463 . S
C3858 N3862 1.427 . S
C3859 H3849 0.929 . S
C3859 C3857 1.433 . S
C3859 N3862 1.384 . S
C3860 H3851 0.929 . S
C3860 C3852 1.378 . S
C3860 C3855 1.350 . S
C3861 H3848 0.929 . S
C3861 C3853 1.433 . S
C3861 N3863 1.384 . S
N3862 C3858 1.427 . S
N3862 C3859 1.384 . S
N3863 C3855 1.427 . S
N3863 C3861 1.384 . S
H3864 C3870 0.930 . S
H3865 C3874 0.930 . S
H3866 C3879 0.929 . S
H3867 C3877 0.929 . S
H3868 C3872 0.929 . S
H3869 C3878 0.929 . S
C3870 H3864 0.930 . S
C3870 C3871 1.367 . S
C3870 C3878 1.378 . S
C3871 C3870 1.367 . S
C3871 C3879 1.433 . S
C3872 H3868 0.929 . S
C3872 C3874 1.378 . S
C3872 C3876 1.350 . S
C3873 C3876 1.463 . S
C3873 C3878 1.350 . S
C3873 N3881 1.427 . S
C3874 H3865 0.930 . S
C3874 C3872 1.378 . S
C3874 C3875 1.367 . S
C3875 C3874 1.367 . S
C3875 C3877 1.433 . S
C3876 C3872 1.350 . S
C3876 C3873 1.463 . S
C3876 N3880 1.427 . S
C3877 H3867 0.929 . S
C3877 C3875 1.433 . S
C3877 N3880 1.384 . S
C3878 H3869 0.929 . S
C3878 C3870 1.378 . S
C3878 C3873 1.350 . S
C3879 H3866 0.929 . S
C3879 C3871 1.433 . S
C3879 N3881 1.384 . S
N3880 C3876 1.427 . S
N3880 C3877 1.384 . S
N3881 C3873 1.427 . S
N3881 C3879 1.384 . S
H3882 C3888 0.930 . S
H3883 C3892 0.930 . S
H3884 C3897 0.929 . S
H3885 C3895 0.929 . S
H3886 C3890 0.929 . S
H3887 C3896 0.929 . S
C3888 H3882 0.930 . S
C3888 C3889 1.367 . S
C3888 C3896 1.378 . S
C3889 C3888 1.367 . S
C3889 C3897 1.433 . S
C3890 H3886 0.929 . S
C3890 C3892 1.378 . S
C3890 C3894 1.350 . S
C3891 C3894 1.463 . S
C3891 C3896 1.350 . S
C3891 N3899 1.427 . S
C3892 H3883 0.930 . S
C3892 C3890 1.378 . S
C3892 C3893 1.367 . S
C3893 C3892 1.367 . S
C3893 C3895 1.433 . S
C3894 C3890 1.350 . S
C3894 C3891 1.463 . S
C3894 N3898 1.427 . S
C3895 H3885 0.929 . S
C3895 C3893 1.433 . S
C3895 N3898 1.384 . S
C3896 H3887 0.929 . S
C3896 C3888 1.378 . S
C3896 C3891 1.350 . S
C3897 H3884 0.929 . S
C3897 C3889 1.433 . S
C3897 N3899 1.384 . S
N3898 C3894 1.427 . S
N3898 C3895 1.384 . S
N3899 C3891 1.427 . S
N3899 C3897 1.384 . S
H3900 C3906 0.930 . S
H3901 C3910 0.930 . S
H3902 C3915 0.929 . S
H3903 C3913 0.929 . S
H3904 C3908 0.929 . S
H3905 C3914 0.929 . S
C3906 H3900 0.930 . S
C3906 C3907 1.367 . S
C3906 C3914 1.378 . S
C3907 C3906 1.367 . S
C3907 C3915 1.433 . S
C3908 H3904 0.929 . S
C3908 C3910 1.378 . S
C3908 C3912 1.350 . S
C3909 C3912 1.463 . S
C3909 C3914 1.350 . S
C3909 N3917 1.427 . S
C3910 H3901 0.930 . S
C3910 C3908 1.378 . S
C3910 C3911 1.367 . S
C3911 C3910 1.367 . S
C3911 C3913 1.433 . S
C3912 C3908 1.350 . S
C3912 C3909 1.463 . S
C3912 N3916 1.427 . S
C3913 H3903 0.929 . S
C3913 C3911 1.433 . S
C3913 N3916 1.384 . S
C3914 H3905 0.929 . S
C3914 C3906 1.378 . S
C3914 C3909 1.350 . S
C3915 H3902 0.929 . S
C3915 C3907 1.433 . S
C3915 N3917 1.384 . S
N3916 C3912 1.427 . S
N3916 C3913 1.384 . S
N3917 C3909 1.427 . S
N3917 C3915 1.384 . S
H3918 C3924 0.930 . S
H3919 C3928 0.930 . S
H3920 C3933 0.929 . S
H3921 C3931 0.929 . S
H3922 C3926 0.929 . S
H3923 C3932 0.929 . S
C3924 H3918 0.930 . S
C3924 C3925 1.367 . S
C3924 C3932 1.378 . S
C3925 C3924 1.367 . S
C3925 C3933 1.433 . S
C3926 H3922 0.929 . S
C3926 C3928 1.378 . S
C3926 C3930 1.350 . S
C3927 C3930 1.463 . S
C3927 C3932 1.350 . S
C3927 N3935 1.427 . S
C3928 H3919 0.930 . S
C3928 C3926 1.378 . S
C3928 C3929 1.367 . S
C3929 C3928 1.367 . S
C3929 C3931 1.433 . S
C3930 C3926 1.350 . S
C3930 C3927 1.463 . S
C3930 N3934 1.427 . S
C3931 H3921 0.929 . S
C3931 C3929 1.433 . S
C3931 N3934 1.384 . S
C3932 H3923 0.929 . S
C3932 C3924 1.378 . S
C3932 C3927 1.350 . S
C3933 H3920 0.929 . S
C3933 C3925 1.433 . S
C3933 N3935 1.384 . S
N3934 C3930 1.427 . S
N3934 C3931 1.384 . S
N3935 C3927 1.427 . S
N3935 C3933 1.384 . S
H3936 C3942 0.930 . S
H3937 C3946 0.930 . S
H3938 C3951 0.929 . S
H3939 C3949 0.929 . S
H3940 C3944 0.929 . S
H3941 C3950 0.929 . S
C3942 H3936 0.930 . S
C3942 C3943 1.367 . S
C3942 C3950 1.378 . S
C3943 C3942 1.367 . S
C3943 C3951 1.433 . S
C3944 H3940 0.929 . S
C3944 C3946 1.378 . S
C3944 C3948 1.350 . S
C3945 C3948 1.463 . S
C3945 C3950 1.350 . S
C3945 N3953 1.427 . S
C3946 H3937 0.930 . S
C3946 C3944 1.378 . S
C3946 C3947 1.367 . S
C3947 C3946 1.367 . S
C3947 C3949 1.433 . S
C3948 C3944 1.350 . S
C3948 C3945 1.463 . S
C3948 N3952 1.427 . S
C3949 H3939 0.929 . S
C3949 C3947 1.433 . S
C3949 N3952 1.384 . S
C3950 H3941 0.929 . S
C3950 C3942 1.378 . S
C3950 C3945 1.350 . S
C3951 H3938 0.929 . S
C3951 C3943 1.433 . S
C3951 N3953 1.384 . S
N3952 C3948 1.427 . S
N3952 C3949 1.384 . S
N3953 C3945 1.427 . S
N3953 C3951 1.384 . S
H3954 C3960 0.930 . S
H3955 C3964 0.930 . S
H3956 C3969 0.929 . S
H3957 C3967 0.929 . S
H3958 C3962 0.929 . S
H3959 C3968 0.929 . S
C3960 H3954 0.930 . S
C3960 C3961 1.367 . S
C3960 C3968 1.378 . S
C3961 C3960 1.367 . S
C3961 C3969 1.433 . S
C3962 H3958 0.929 . S
C3962 C3964 1.378 . S
C3962 C3966 1.350 . S
C3963 C3966 1.463 . S
C3963 C3968 1.350 . S
C3963 N3971 1.427 . S
C3964 H3955 0.930 . S
C3964 C3962 1.378 . S
C3964 C3965 1.367 . S
C3965 C3964 1.367 . S
C3965 C3967 1.433 . S
C3966 C3962 1.350 . S
C3966 C3963 1.463 . S
C3966 N3970 1.427 . S
C3967 H3957 0.929 . S
C3967 C3965 1.433 . S
C3967 N3970 1.384 . S
C3968 H3959 0.929 . S
C3968 C3960 1.378 . S
C3968 C3963 1.350 . S
C3969 H3956 0.929 . S
C3969 C3961 1.433 . S
C3969 N3971 1.384 . S
N3970 C3966 1.427 . S
N3970 C3967 1.384 . S
N3971 C3963 1.427 . S
N3971 C3969 1.384 . S
H3972 C3978 0.930 . S
H3973 C3982 0.930 . S
H3974 C3987 0.929 . S
H3975 C3985 0.929 . S
H3976 C3980 0.929 . S
H3977 C3986 0.929 . S
C3978 H3972 0.930 . S
C3978 C3979 1.367 . S
C3978 C3986 1.378 . S
C3979 C3978 1.367 . S
C3979 C3987 1.433 . S
C3980 H3976 0.929 . S
C3980 C3982 1.378 . S
C3980 C3984 1.350 . S
C3981 C3984 1.463 . S
C3981 C3986 1.350 . S
C3981 N3989 1.427 . S
C3982 H3973 0.930 . S
C3982 C3980 1.378 . S
C3982 C3983 1.367 . S
C3983 C3982 1.367 . S
C3983 C3985 1.433 . S
C3984 C3980 1.350 . S
C3984 C3981 1.463 . S
C3984 N3988 1.427 . S
C3985 H3975 0.929 . S
C3985 C3983 1.433 . S
C3985 N3988 1.384 . S
C3986 H3977 0.929 . S
C3986 C3978 1.378 . S
C3986 C3981 1.350 . S
C3987 H3974 0.929 . S
C3987 C3979 1.433 . S
C3987 N3989 1.384 . S
N3988 C3984 1.427 . S
N3988 C3985 1.384 . S
N3989 C3981 1.427 . S
N3989 C3987 1.384 . S
H3990 C3996 0.930 . S
H3991 C4000 0.930 . S
H3992 C4005 0.929 . S
H3993 C4003 0.929 . S
H3994 C3998 0.929 . S
H3995 C4004 0.929 . S
C3996 H3990 0.930 . S
C3996 C3997 1.367 . S
C3996 C4004 1.378 . S
C3997 C3996 1.367 . S
C3997 C4005 1.433 . S
C3998 H3994 0.929 . S
C3998 C4000 1.378 . S
C3998 C4002 1.350 . S
C3999 C4002 1.463 . S
C3999 C4004 1.350 . S
C3999 N4007 1.427 . S
C4000 H3991 0.930 . S
C4000 C3998 1.378 . S
C4000 C4001 1.367 . S
C4001 C4000 1.367 . S
C4001 C4003 1.433 . S
C4002 C3998 1.350 . S
C4002 C3999 1.463 . S
C4002 N4006 1.427 . S
C4003 H3993 0.929 . S
C4003 C4001 1.433 . S
C4003 N4006 1.384 . S
C4004 H3995 0.929 . S
C4004 C3996 1.378 . S
C4004 C3999 1.350 . S
C4005 H3992 0.929 . S
C4005 C3997 1.433 . S
C4005 N4007 1.384 . S
N4006 C4002 1.427 . S
N4006 C4003 1.384 . S
N4007 C3999 1.427 . S
N4007 C4005 1.384 . S
H4008 C4014 0.930 . S
H4009 C4018 0.930 . S
H4010 C4023 0.929 . S
H4011 C4021 0.929 . S
H4012 C4016 0.929 . S
H4013 C4022 0.929 . S
C4014 H4008 0.930 . S
C4014 C4015 1.367 . S
C4014 C4022 1.378 . S
C4015 C4014 1.367 . S
C4015 C4023 1.433 . S
C4016 H4012 0.929 . S
C4016 C4018 1.378 . S
C4016 C4020 1.350 . S
C4017 C4020 1.463 . S
C4017 C4022 1.350 . S
C4017 N4025 1.427 . S
C4018 H4009 0.930 . S
C4018 C4016 1.378 . S
C4018 C4019 1.367 . S
C4019 C4018 1.367 . S
C4019 C4021 1.433 . S
C4020 C4016 1.350 . S
C4020 C4017 1.463 . S
C4020 N4024 1.427 . S
C4021 H4011 0.929 . S
C4021 C4019 1.433 . S
C4021 N4024 1.384 . S
C4022 H4013 0.929 . S
C4022 C4014 1.378 . S
C4022 C4017 1.350 . S
C4023 H4010 0.929 . S
C4023 C4015 1.433 . S
C4023 N4025 1.384 . S
N4024 C4020 1.427 . S
N4024 C4021 1.384 . S
N4025 C4017 1.427 . S
N4025 C4023 1.384 . S
H4026 C4032 0.930 . S
H4027 C4036 0.930 . S
H4028 C4041 0.929 . S
H4029 C4039 0.929 . S
H4030 C4034 0.929 . S
H4031 C4040 0.929 . S
C4032 H4026 0.930 . S
C4032 C4033 1.367 . S
C4032 C4040 1.378 . S
C4033 C4032 1.367 . S
C4033 C4041 1.433 . S
C4034 H4030 0.929 . S
C4034 C4036 1.378 . S
C4034 C4038 1.350 . S
C4035 C4038 1.463 . S
C4035 C4040 1.350 . S
C4035 N4043 1.427 . S
C4036 H4027 0.930 . S
C4036 C4034 1.378 . S
C4036 C4037 1.367 . S
C4037 C4036 1.367 . S
C4037 C4039 1.433 . S
C4038 C4034 1.350 . S
C4038 C4035 1.463 . S
C4038 N4042 1.427 . S
C4039 H4029 0.929 . S
C4039 C4037 1.433 . S
C4039 N4042 1.384 . S
C4040 H4031 0.929 . S
C4040 C4032 1.378 . S
C4040 C4035 1.350 . S
C4041 H4028 0.929 . S
C4041 C4033 1.433 . S
C4041 N4043 1.384 . S
N4042 C4038 1.427 . S
N4042 C4039 1.384 . S
N4043 C4035 1.427 . S
N4043 C4041 1.384 . S
H4044 C4050 0.930 . S
H4045 C4054 0.930 . S
H4046 C4059 0.929 . S
H4047 C4057 0.929 . S
H4048 C4052 0.929 . S
H4049 C4058 0.929 . S
C4050 H4044 0.930 . S
C4050 C4051 1.367 . S
C4050 C4058 1.378 . S
C4051 C4050 1.367 . S
C4051 C4059 1.433 . S
C4052 H4048 0.929 . S
C4052 C4054 1.378 . S
C4052 C4056 1.350 . S
C4053 C4056 1.463 . S
C4053 C4058 1.350 . S
C4053 N4061 1.427 . S
C4054 H4045 0.930 . S
C4054 C4052 1.378 . S
C4054 C4055 1.367 . S
C4055 C4054 1.367 . S
C4055 C4057 1.433 . S
C4056 C4052 1.350 . S
C4056 C4053 1.463 . S
C4056 N4060 1.427 . S
C4057 H4047 0.929 . S
C4057 C4055 1.433 . S
C4057 N4060 1.384 . S
C4058 H4049 0.929 . S
C4058 C4050 1.378 . S
C4058 C4053 1.350 . S
C4059 H4046 0.929 . S
C4059 C4051 1.433 . S
C4059 N4061 1.384 . S
N4060 C4056 1.427 . S
N4060 C4057 1.384 . S
N4061 C4053 1.427 . S
N4061 C4059 1.384 . S
H4062 C4068 0.930 . S
H4063 C4072 0.930 . S
H4064 C4077 0.929 . S
H4065 C4075 0.929 . S
H4066 C4070 0.929 . S
H4067 C4076 0.929 . S
C4068 H4062 0.930 . S
C4068 C4069 1.367 . S
C4068 C4076 1.378 . S
C4069 C4068 1.367 . S
C4069 C4077 1.433 . S
C4070 H4066 0.929 . S
C4070 C4072 1.378 . S
C4070 C4074 1.350 . S
C4071 C4074 1.463 . S
C4071 C4076 1.350 . S
C4071 N4079 1.427 . S
C4072 H4063 0.930 . S
C4072 C4070 1.378 . S
C4072 C4073 1.367 . S
C4073 C4072 1.367 . S
C4073 C4075 1.433 . S
C4074 C4070 1.350 . S
C4074 C4071 1.463 . S
C4074 N4078 1.427 . S
C4075 H4065 0.929 . S
C4075 C4073 1.433 . S
C4075 N4078 1.384 . S
C4076 H4067 0.929 . S
C4076 C4068 1.378 . S
C4076 C4071 1.350 . S
C4077 H4064 0.929 . S
C4077 C4069 1.433 . S
C4077 N4079 1.384 . S
N4078 C4074 1.427 . S
N4078 C4075 1.384 . S
N4079 C4071 1.427 . S
N4079 C4077 1.384 . S
H4080 C4086 0.930 . S
H4081 C4090 0.930 . S
H4082 C4095 0.929 . S
H4083 C4093 0.929 . S
H4084 C4088 0.929 . S
H4085 C4094 0.929 . S
C4086 H4080 0.930 . S
C4086 C4087 1.367 . S
C4086 C4094 1.378 . S
C4087 C4086 1.367 . S
C4087 C4095 1.433 . S
C4088 H4084 0.929 . S
C4088 C4090 1.378 . S
C4088 C4092 1.350 . S
C4089 C4092 1.463 . S
C4089 C4094 1.350 . S
C4089 N4097 1.427 . S
C4090 H4081 0.930 . S
C4090 C4088 1.378 . S
C4090 C4091 1.367 . S
C4091 C4090 1.367 . S
C4091 C4093 1.433 . S
C4092 C4088 1.350 . S
C4092 C4089 1.463 . S
C4092 N4096 1.427 . S
C4093 H4083 0.929 . S
C4093 C4091 1.433 . S
C4093 N4096 1.384 . S
C4094 H4085 0.929 . S
C4094 C4086 1.378 . S
C4094 C4089 1.350 . S
C4095 H4082 0.929 . S
C4095 C4087 1.433 . S
C4095 N4097 1.384 . S
N4096 C4092 1.427 . S
N4096 C4093 1.384 . S
N4097 C4089 1.427 . S
N4097 C4095 1.384 . S
H4098 C4104 0.930 . S
H4099 C4108 0.930 . S
H4100 C4113 0.929 . S
H4101 C4111 0.929 . S
H4102 C4106 0.929 . S
H4103 C4112 0.929 . S
C4104 H4098 0.930 . S
C4104 C4105 1.367 . S
C4104 C4112 1.378 . S
C4105 C4104 1.367 . S
C4105 C4113 1.433 . S
C4106 H4102 0.929 . S
C4106 C4108 1.378 . S
C4106 C4110 1.350 . S
C4107 C4110 1.463 . S
C4107 C4112 1.350 . S
C4107 N4115 1.427 . S
C4108 H4099 0.930 . S
C4108 C4106 1.378 . S
C4108 C4109 1.367 . S
C4109 C4108 1.367 . S
C4109 C4111 1.433 . S
C4110 C4106 1.350 . S
C4110 C4107 1.463 . S
C4110 N4114 1.427 . S
C4111 H4101 0.929 . S
C4111 C4109 1.433 . S
C4111 N4114 1.384 . S
C4112 H4103 0.929 . S
C4112 C4104 1.378 . S
C4112 C4107 1.350 . S
C4113 H4100 0.929 . S
C4113 C4105 1.433 . S
C4113 N4115 1.384 . S
N4114 C4110 1.427 . S
N4114 C4111 1.384 . S
N4115 C4107 1.427 . S
N4115 C4113 1.384 . S
H4116 C4122 0.930 . S
H4117 C4126 0.930 . S
H4118 C4131 0.929 . S
H4119 C4129 0.929 . S
H4120 C4124 0.929 . S
H4121 C4130 0.929 . S
C4122 H4116 0.930 . S
C4122 C4123 1.367 . S
C4122 C4130 1.378 . S
C4123 C4122 1.367 . S
C4123 C4131 1.433 . S
C4124 H4120 0.929 . S
C4124 C4126 1.378 . S
C4124 C4128 1.350 . S
C4125 C4128 1.463 . S
C4125 C4130 1.350 . S
C4125 N4133 1.427 . S
C4126 H4117 0.930 . S
C4126 C4124 1.378 . S
C4126 C4127 1.367 . S
C4127 C4126 1.367 . S
C4127 C4129 1.433 . S
C4128 C4124 1.350 . S
C4128 C4125 1.463 . S
C4128 N4132 1.427 . S
C4129 H4119 0.929 . S
C4129 C4127 1.433 . S
C4129 N4132 1.384 . S
C4130 H4121 0.929 . S
C4130 C4122 1.378 . S
C4130 C4125 1.350 . S
C4131 H4118 0.929 . S
C4131 C4123 1.433 . S
C4131 N4133 1.384 . S
N4132 C4128 1.427 . S
N4132 C4129 1.384 . S
N4133 C4125 1.427 . S
N4133 C4131 1.384 . S
H4134 C4140 0.930 . S
H4135 C4144 0.930 . S
H4136 C4149 0.929 . S
H4137 C4147 0.929 . S
H4138 C4142 0.929 . S
H4139 C4148 0.929 . S
C4140 H4134 0.930 . S
C4140 C4141 1.367 . S
C4140 C4148 1.378 . S
C4141 C4140 1.367 . S
C4141 C4149 1.433 . S
C4142 H4138 0.929 . S
C4142 C4144 1.378 . S
C4142 C4146 1.350 . S
C4143 C4146 1.463 . S
C4143 C4148 1.350 . S
C4143 N4151 1.427 . S
C4144 H4135 0.930 . S
C4144 C4142 1.378 . S
C4144 C4145 1.367 . S
C4145 C4144 1.367 . S
C4145 C4147 1.433 . S
C4146 C4142 1.350 . S
C4146 C4143 1.463 . S
C4146 N4150 1.427 . S
C4147 H4137 0.929 . S
C4147 C4145 1.433 . S
C4147 N4150 1.384 . S
C4148 H4139 0.929 . S
C4148 C4140 1.378 . S
C4148 C4143 1.350 . S
C4149 H4136 0.929 . S
C4149 C4141 1.433 . S
C4149 N4151 1.384 . S
N4150 C4146 1.427 . S
N4150 C4147 1.384 . S
N4151 C4143 1.427 . S
N4151 C4149 1.384 . S
H4152 C4158 0.930 . S
H4153 C4162 0.930 . S
H4154 C4167 0.929 . S
H4155 C4165 0.929 . S
H4156 C4160 0.929 . S
H4157 C4166 0.929 . S
C4158 H4152 0.930 . S
C4158 C4159 1.367 . S
C4158 C4166 1.378 . S
C4159 C4158 1.367 . S
C4159 C4167 1.433 . S
C4160 H4156 0.929 . S
C4160 C4162 1.378 . S
C4160 C4164 1.350 . S
C4161 C4164 1.463 . S
C4161 C4166 1.350 . S
C4161 N4169 1.427 . S
C4162 H4153 0.930 . S
C4162 C4160 1.378 . S
C4162 C4163 1.367 . S
C4163 C4162 1.367 . S
C4163 C4165 1.433 . S
C4164 C4160 1.350 . S
C4164 C4161 1.463 . S
C4164 N4168 1.427 . S
C4165 H4155 0.929 . S
C4165 C4163 1.433 . S
C4165 N4168 1.384 . S
C4166 H4157 0.929 . S
C4166 C4158 1.378 . S
C4166 C4161 1.350 . S
C4167 H4154 0.929 . S
C4167 C4159 1.433 . S
C4167 N4169 1.384 . S
N4168 C4164 1.427 . S
N4168 C4165 1.384 . S
N4169 C4161 1.427 . S
N4169 C4167 1.384 . S
H4170 C4176 0.930 . S
H4171 C4180 0.930 . S
H4172 C4185 0.929 . S
H4173 C4183 0.929 . S
H4174 C4178 0.929 . S
H4175 C4184 0.929 . S
C4176 H4170 0.930 . S
C4176 C4177 1.367 . S
C4176 C4184 1.378 . S
C4177 C4176 1.367 . S
C4177 C4185 1.433 . S
C4178 H4174 0.929 . S
C4178 C4180 1.378 . S
C4178 C4182 1.350 . S
C4179 C4182 1.463 . S
C4179 C4184 1.350 . S
C4179 N4187 1.427 . S
C4180 H4171 0.930 . S
C4180 C4178 1.378 . S
C4180 C4181 1.367 . S
C4181 C4180 1.367 . S
C4181 C4183 1.433 . S
C4182 C4178 1.350 . S
C4182 C4179 1.463 . S
C4182 N4186 1.427 . S
C4183 H4173 0.929 . S
C4183 C4181 1.433 . S
C4183 N4186 1.384 . S
C4184 H4175 0.929 . S
C4184 C4176 1.378 . S
C4184 C4179 1.350 . S
C4185 H4172 0.929 . S
C4185 C4177 1.433 . S
C4185 N4187 1.384 . S
N4186 C4182 1.427 . S
N4186 C4183 1.384 . S
N4187 C4179 1.427 . S
N4187 C4185 1.384 . S
H4188 C4194 0.930 . S
H4189 C4198 0.930 . S
H4190 C4203 0.929 . S
H4191 C4201 0.929 . S
H4192 C4196 0.929 . S
H4193 C4202 0.929 . S
C4194 H4188 0.930 . S
C4194 C4195 1.367 . S
C4194 C4202 1.378 . S
C4195 C4194 1.367 . S
C4195 C4203 1.433 . S
C4196 H4192 0.929 . S
C4196 C4198 1.378 . S
C4196 C4200 1.350 . S
C4197 C4200 1.463 . S
C4197 C4202 1.350 . S
C4197 N4205 1.427 . S
C4198 H4189 0.930 . S
C4198 C4196 1.378 . S
C4198 C4199 1.367 . S
C4199 C4198 1.367 . S
C4199 C4201 1.433 . S
C4200 C4196 1.350 . S
C4200 C4197 1.463 . S
C4200 N4204 1.427 . S
C4201 H4191 0.929 . S
C4201 C4199 1.433 . S
C4201 N4204 1.384 . S
C4202 H4193 0.929 . S
C4202 C4194 1.378 . S
C4202 C4197 1.350 . S
C4203 H4190 0.929 . S
C4203 C4195 1.433 . S
C4203 N4205 1.384 . S
N4204 C4200 1.427 . S
N4204 C4201 1.384 . S
N4205 C4197 1.427 . S
N4205 C4203 1.384 . S
H4206 C4212 0.930 . S
H4207 C4216 0.930 . S
H4208 C4221 0.929 . S
H4209 C4219 0.929 . S
H4210 C4214 0.929 . S
H4211 C4220 0.929 . S
C4212 H4206 0.930 . S
C4212 C4213 1.367 . S
C4212 C4220 1.378 . S
C4213 C4212 1.367 . S
C4213 C4221 1.433 . S
C4214 H4210 0.929 . S
C4214 C4216 1.378 . S
C4214 C4218 1.350 . S
C4215 C4218 1.463 . S
C4215 C4220 1.350 . S
C4215 N4223 1.427 . S
C4216 H4207 0.930 . S
C4216 C4214 1.378 . S
C4216 C4217 1.367 . S
C4217 C4216 1.367 . S
C4217 C4219 1.433 . S
C4218 C4214 1.350 . S
C4218 C4215 1.463 . S
C4218 N4222 1.427 . S
C4219 H4209 0.929 . S
C4219 C4217 1.433 . S
C4219 N4222 1.384 . S
C4220 H4211 0.929 . S
C4220 C4212 1.378 . S
C4220 C4215 1.350 . S
C4221 H4208 0.929 . S
C4221 C4213 1.433 . S
C4221 N4223 1.384 . S
N4222 C4218 1.427 . S
N4222 C4219 1.384 . S
N4223 C4215 1.427 . S
N4223 C4221 1.384 . S
H4224 C4230 0.930 . S
H4225 C4234 0.930 . S
H4226 C4239 0.929 . S
H4227 C4237 0.929 . S
H4228 C4232 0.929 . S
H4229 C4238 0.929 . S
C4230 H4224 0.930 . S
C4230 C4231 1.367 . S
C4230 C4238 1.378 . S
C4231 C4230 1.367 . S
C4231 C4239 1.433 . S
C4232 H4228 0.929 . S
C4232 C4234 1.378 . S
C4232 C4236 1.350 . S
C4233 C4236 1.463 . S
C4233 C4238 1.350 . S
C4233 N4241 1.427 . S
C4234 H4225 0.930 . S
C4234 C4232 1.378 . S
C4234 C4235 1.367 . S
C4235 C4234 1.367 . S
C4235 C4237 1.433 . S
C4236 C4232 1.350 . S
C4236 C4233 1.463 . S
C4236 N4240 1.427 . S
C4237 H4227 0.929 . S
C4237 C4235 1.433 . S
C4237 N4240 1.384 . S
C4238 H4229 0.929 . S
C4238 C4230 1.378 . S
C4238 C4233 1.350 . S
C4239 H4226 0.929 . S
C4239 C4231 1.433 . S
C4239 N4241 1.384 . S
N4240 C4236 1.427 . S
N4240 C4237 1.384 . S
N4241 C4233 1.427 . S
N4241 C4239 1.384 . S
H4242 C4248 0.930 . S
H4243 C4252 0.930 . S
H4244 C4257 0.929 . S
H4245 C4255 0.929 . S
H4246 C4250 0.929 . S
H4247 C4256 0.929 . S
C4248 H4242 0.930 . S
C4248 C4249 1.367 . S
C4248 C4256 1.378 . S
C4249 C4248 1.367 . S
C4249 C4257 1.433 . S
C4250 H4246 0.929 . S
C4250 C4252 1.378 . S
C4250 C4254 1.350 . S
C4251 C4254 1.463 . S
C4251 C4256 1.350 . S
C4251 N4259 1.427 . S
C4252 H4243 0.930 . S
C4252 C4250 1.378 . S
C4252 C4253 1.367 . S
C4253 C4252 1.367 . S
C4253 C4255 1.433 . S
C4254 C4250 1.350 . S
C4254 C4251 1.463 . S
C4254 N4258 1.427 . S
C4255 H4245 0.929 . S
C4255 C4253 1.433 . S
C4255 N4258 1.384 . S
C4256 H4247 0.929 . S
C4256 C4248 1.378 . S
C4256 C4251 1.350 . S
C4257 H4244 0.929 . S
C4257 C4249 1.433 . S
C4257 N4259 1.384 . S
N4258 C4254 1.427 . S
N4258 C4255 1.384 . S
N4259 C4251 1.427 . S
N4259 C4257 1.384 . S
H4260 C4266 0.930 . S
H4261 C4270 0.930 . S
H4262 C4275 0.929 . S
H4263 C4273 0.929 . S
H4264 C4268 0.929 . S
H4265 C4274 0.929 . S
C4266 H4260 0.930 . S
C4266 C4267 1.367 . S
C4266 C4274 1.378 . S
C4267 C4266 1.367 . S
C4267 C4275 1.433 . S
C4268 H4264 0.929 . S
C4268 C4270 1.378 . S
C4268 C4272 1.350 . S
C4269 C4272 1.463 . S
C4269 C4274 1.350 . S
C4269 N4277 1.427 . S
C4270 H4261 0.930 . S
C4270 C4268 1.378 . S
C4270 C4271 1.367 . S
C4271 C4270 1.367 . S
C4271 C4273 1.433 . S
C4272 C4268 1.350 . S
C4272 C4269 1.463 . S
C4272 N4276 1.427 . S
C4273 H4263 0.929 . S
C4273 C4271 1.433 . S
C4273 N4276 1.384 . S
C4274 H4265 0.929 . S
C4274 C4266 1.378 . S
C4274 C4269 1.350 . S
C4275 H4262 0.929 . S
C4275 C4267 1.433 . S
C4275 N4277 1.384 . S
N4276 C4272 1.427 . S
N4276 C4273 1.384 . S
N4277 C4269 1.427 . S
N4277 C4275 1.384 . S
H4278 C4284 0.930 . S
H4279 C4288 0.930 . S
H4280 C4293 0.929 . S
H4281 C4291 0.929 . S
H4282 C4286 0.929 . S
H4283 C4292 0.929 . S
C4284 H4278 0.930 . S
C4284 C4285 1.367 . S
C4284 C4292 1.378 . S
C4285 C4284 1.367 . S
C4285 C4293 1.433 . S
C4286 H4282 0.929 . S
C4286 C4288 1.378 . S
C4286 C4290 1.350 . S
C4287 C4290 1.463 . S
C4287 C4292 1.350 . S
C4287 N4295 1.427 . S
C4288 H4279 0.930 . S
C4288 C4286 1.378 . S
C4288 C4289 1.367 . S
C4289 C4288 1.367 . S
C4289 C4291 1.433 . S
C4290 C4286 1.350 . S
C4290 C4287 1.463 . S
C4290 N4294 1.427 . S
C4291 H4281 0.929 . S
C4291 C4289 1.433 . S
C4291 N4294 1.384 . S
C4292 H4283 0.929 . S
C4292 C4284 1.378 . S
C4292 C4287 1.350 . S
C4293 H4280 0.929 . S
C4293 C4285 1.433 . S
C4293 N4295 1.384 . S
N4294 C4290 1.427 . S
N4294 C4291 1.384 . S
N4295 C4287 1.427 . S
N4295 C4293 1.384 . S
H4296 C4302 0.930 . S
H4297 C4306 0.930 . S
H4298 C4311 0.929 . S
H4299 C4309 0.929 . S
H4300 C4304 0.929 . S
H4301 C4310 0.929 . S
C4302 H4296 0.930 . S
C4302 C4303 1.367 . S
C4302 C4310 1.378 . S
C4303 C4302 1.367 . S
C4303 C4311 1.433 . S
C4304 H4300 0.929 . S
C4304 C4306 1.378 . S
C4304 C4308 1.350 . S
C4305 C4308 1.463 . S
C4305 C4310 1.350 . S
C4305 N4313 1.427 . S
C4306 H4297 0.930 . S
C4306 C4304 1.378 . S
C4306 C4307 1.367 . S
C4307 C4306 1.367 . S
C4307 C4309 1.433 . S
C4308 C4304 1.350 . S
C4308 C4305 1.463 . S
C4308 N4312 1.427 . S
C4309 H4299 0.929 . S
C4309 C4307 1.433 . S
C4309 N4312 1.384 . S
C4310 H4301 0.929 . S
C4310 C4302 1.378 . S
C4310 C4305 1.350 . S
C4311 H4298 0.929 . S
C4311 C4303 1.433 . S
C4311 N4313 1.384 . S
N4312 C4308 1.427 . S
N4312 C4309 1.384 . S
N4313 C4305 1.427 . S
N4313 C4311 1.384 . S
H4314 C4320 0.930 . S
H4315 C4324 0.930 . S
H4316 C4329 0.929 . S
H4317 C4327 0.929 . S
H4318 C4322 0.929 . S
H4319 C4328 0.929 . S
C4320 H4314 0.930 . S
C4320 C4321 1.367 . S
C4320 C4328 1.378 . S
C4321 C4320 1.367 . S
C4321 C4329 1.433 . S
C4322 H4318 0.929 . S
C4322 C4324 1.378 . S
C4322 C4326 1.350 . S
C4323 C4326 1.463 . S
C4323 C4328 1.350 . S
C4323 N4331 1.427 . S
C4324 H4315 0.930 . S
C4324 C4322 1.378 . S
C4324 C4325 1.367 . S
C4325 C4324 1.367 . S
C4325 C4327 1.433 . S
C4326 C4322 1.350 . S
C4326 C4323 1.463 . S
C4326 N4330 1.427 . S
C4327 H4317 0.929 . S
C4327 C4325 1.433 . S
C4327 N4330 1.384 . S
C4328 H4319 0.929 . S
C4328 C4320 1.378 . S
C4328 C4323 1.350 . S
C4329 H4316 0.929 . S
C4329 C4321 1.433 . S
C4329 N4331 1.384 . S
N4330 C4326 1.427 . S
N4330 C4327 1.384 . S
N4331 C4323 1.427 . S
N4331 C4329 1.384 . S
H4332 C4338 0.930 . S
H4333 C4342 0.930 . S
H4334 C4347 0.929 . S
H4335 C4345 0.929 . S
H4336 C4340 0.929 . S
H4337 C4346 0.929 . S
C4338 H4332 0.930 . S
C4338 C4339 1.367 . S
C4338 C4346 1.378 . S
C4339 C4338 1.367 . S
C4339 C4347 1.433 . S
C4340 H4336 0.929 . S
C4340 C4342 1.378 . S
C4340 C4344 1.350 . S
C4341 C4344 1.463 . S
C4341 C4346 1.350 . S
C4341 N4349 1.427 . S
C4342 H4333 0.930 . S
C4342 C4340 1.378 . S
C4342 C4343 1.367 . S
C4343 C4342 1.367 . S
C4343 C4345 1.433 . S
C4344 C4340 1.350 . S
C4344 C4341 1.463 . S
C4344 N4348 1.427 . S
C4345 H4335 0.929 . S
C4345 C4343 1.433 . S
C4345 N4348 1.384 . S
C4346 H4337 0.929 . S
C4346 C4338 1.378 . S
C4346 C4341 1.350 . S
C4347 H4334 0.929 . S
C4347 C4339 1.433 . S
C4347 N4349 1.384 . S
N4348 C4344 1.427 . S
N4348 C4345 1.384 . S
N4349 C4341 1.427 . S
N4349 C4347 1.384 . S
H4350 C4356 0.930 . S
H4351 C4360 0.930 . S
H4352 C4365 0.929 . S
H4353 C4363 0.929 . S
H4354 C4358 0.929 . S
H4355 C4364 0.929 . S
C4356 H4350 0.930 . S
C4356 C4357 1.367 . S
C4356 C4364 1.378 . S
C4357 C4356 1.367 . S
C4357 C4365 1.433 . S
C4358 H4354 0.929 . S
C4358 C4360 1.378 . S
C4358 C4362 1.350 . S
C4359 C4362 1.463 . S
C4359 C4364 1.350 . S
C4359 N4367 1.427 . S
C4360 H4351 0.930 . S
C4360 C4358 1.378 . S
C4360 C4361 1.367 . S
C4361 C4360 1.367 . S
C4361 C4363 1.433 . S
C4362 C4358 1.350 . S
C4362 C4359 1.463 . S
C4362 N4366 1.427 . S
C4363 H4353 0.929 . S
C4363 C4361 1.433 . S
C4363 N4366 1.384 . S
C4364 H4355 0.929 . S
C4364 C4356 1.378 . S
C4364 C4359 1.350 . S
C4365 H4352 0.929 . S
C4365 C4357 1.433 . S
C4365 N4367 1.384 . S
N4366 C4362 1.427 . S
N4366 C4363 1.384 . S
N4367 C4359 1.427 . S
N4367 C4365 1.384 . S
H4368 C4374 0.930 . S
H4369 C4378 0.930 . S
H4370 C4383 0.929 . S
H4371 C4381 0.929 . S
H4372 C4376 0.929 . S
H4373 C4382 0.929 . S
C4374 H4368 0.930 . S
C4374 C4375 1.367 . S
C4374 C4382 1.378 . S
C4375 C4374 1.367 . S
C4375 C4383 1.433 . S
C4376 H4372 0.929 . S
C4376 C4378 1.378 . S
C4376 C4380 1.350 . S
C4377 C4380 1.463 . S
C4377 C4382 1.350 . S
C4377 N4385 1.427 . S
C4378 H4369 0.930 . S
C4378 C4376 1.378 . S
C4378 C4379 1.367 . S
C4379 C4378 1.367 . S
C4379 C4381 1.433 . S
C4380 C4376 1.350 . S
C4380 C4377 1.463 . S
C4380 N4384 1.427 . S
C4381 H4371 0.929 . S
C4381 C4379 1.433 . S
C4381 N4384 1.384 . S
C4382 H4373 0.929 . S
C4382 C4374 1.378 . S
C4382 C4377 1.350 . S
C4383 H4370 0.929 . S
C4383 C4375 1.433 . S
C4383 N4385 1.384 . S
N4384 C4380 1.427 . S
N4384 C4381 1.384 . S
N4385 C4377 1.427 . S
N4385 C4383 1.384 . S
H4386 C4392 0.930 . S
H4387 C4396 0.930 . S
H4388 C4401 0.929 . S
H4389 C4399 0.929 . S
H4390 C4394 0.929 . S
H4391 C4400 0.929 . S
C4392 H4386 0.930 . S
C4392 C4393 1.367 . S
C4392 C4400 1.378 . S
C4393 C4392 1.367 . S
C4393 C4401 1.433 . S
C4394 H4390 0.929 . S
C4394 C4396 1.378 . S
C4394 C4398 1.350 . S
C4395 C4398 1.463 . S
C4395 C4400 1.350 . S
C4395 N4403 1.427 . S
C4396 H4387 0.930 . S
C4396 C4394 1.378 . S
C4396 C4397 1.367 . S
C4397 C4396 1.367 . S
C4397 C4399 1.433 . S
C4398 C4394 1.350 . S
C4398 C4395 1.463 . S
C4398 N4402 1.427 . S
C4399 H4389 0.929 . S
C4399 C4397 1.433 . S
C4399 N4402 1.384 . S
C4400 H4391 0.929 . S
C4400 C4392 1.378 . S
C4400 C4395 1.350 . S
C4401 H4388 0.929 . S
C4401 C4393 1.433 . S
C4401 N4403 1.384 . S
N4402 C4398 1.427 . S
N4402 C4399 1.384 . S
N4403 C4395 1.427 . S
N4403 C4401 1.384 . S
H4404 C4410 0.930 . S
H4405 C4414 0.930 . S
H4406 C4419 0.929 . S
H4407 C4417 0.929 . S
H4408 C4412 0.929 . S
H4409 C4418 0.929 . S
C4410 H4404 0.930 . S
C4410 C4411 1.367 . S
C4410 C4418 1.378 . S
C4411 C4410 1.367 . S
C4411 C4419 1.433 . S
C4412 H4408 0.929 . S
C4412 C4414 1.378 . S
C4412 C4416 1.350 . S
C4413 C4416 1.463 . S
C4413 C4418 1.350 . S
C4413 N4421 1.427 . S
C4414 H4405 0.930 . S
C4414 C4412 1.378 . S
C4414 C4415 1.367 . S
C4415 C4414 1.367 . S
C4415 C4417 1.433 . S
C4416 C4412 1.350 . S
C4416 C4413 1.463 . S
C4416 N4420 1.427 . S
C4417 H4407 0.929 . S
C4417 C4415 1.433 . S
C4417 N4420 1.384 . S
C4418 H4409 0.929 . S
C4418 C4410 1.378 . S
C4418 C4413 1.350 . S
C4419 H4406 0.929 . S
C4419 C4411 1.433 . S
C4419 N4421 1.384 . S
N4420 C4416 1.427 . S
N4420 C4417 1.384 . S
N4421 C4413 1.427 . S
N4421 C4419 1.384 . S
H4422 C4428 0.930 . S
H4423 C4432 0.930 . S
H4424 C4437 0.929 . S
H4425 C4435 0.929 . S
H4426 C4430 0.929 . S
H4427 C4436 0.929 . S
C4428 H4422 0.930 . S
C4428 C4429 1.367 . S
C4428 C4436 1.378 . S
C4429 C4428 1.367 . S
C4429 C4437 1.433 . S
C4430 H4426 0.929 . S
C4430 C4432 1.378 . S
C4430 C4434 1.350 . S
C4431 C4434 1.463 . S
C4431 C4436 1.350 . S
C4431 N4439 1.427 . S
C4432 H4423 0.930 . S
C4432 C4430 1.378 . S
C4432 C4433 1.367 . S
C4433 C4432 1.367 . S
C4433 C4435 1.433 . S
C4434 C4430 1.350 . S
C4434 C4431 1.463 . S
C4434 N4438 1.427 . S
C4435 H4425 0.929 . S
C4435 C4433 1.433 . S
C4435 N4438 1.384 . S
C4436 H4427 0.929 . S
C4436 C4428 1.378 . S
C4436 C4431 1.350 . S
C4437 H4424 0.929 . S
C4437 C4429 1.433 . S
C4437 N4439 1.384 . S
N4438 C4434 1.427 . S
N4438 C4435 1.384 . S
N4439 C4431 1.427 . S
N4439 C4437 1.384 . S
H4440 C4446 0.930 . S
H4441 C4450 0.930 . S
H4442 C4455 0.929 . S
H4443 C4453 0.929 . S
H4444 C4448 0.929 . S
H4445 C4454 0.929 . S
C4446 H4440 0.930 . S
C4446 C4447 1.367 . S
C4446 C4454 1.378 . S
C4447 C4446 1.367 . S
C4447 C4455 1.433 . S
C4448 H4444 0.929 . S
C4448 C4450 1.378 . S
C4448 C4452 1.350 . S
C4449 C4452 1.463 . S
C4449 C4454 1.350 . S
C4449 N4457 1.427 . S
C4450 H4441 0.930 . S
C4450 C4448 1.378 . S
C4450 C4451 1.367 . S
C4451 C4450 1.367 . S
C4451 C4453 1.433 . S
C4452 C4448 1.350 . S
C4452 C4449 1.463 . S
C4452 N4456 1.427 . S
C4453 H4443 0.929 . S
C4453 C4451 1.433 . S
C4453 N4456 1.384 . S
C4454 H4445 0.929 . S
C4454 C4446 1.378 . S
C4454 C4449 1.350 . S
C4455 H4442 0.929 . S
C4455 C4447 1.433 . S
C4455 N4457 1.384 . S
N4456 C4452 1.427 . S
N4456 C4453 1.384 . S
N4457 C4449 1.427 . S
N4457 C4455 1.384 . S
H4458 C4464 0.930 . S
H4459 C4468 0.930 . S
H4460 C4473 0.929 . S
H4461 C4471 0.929 . S
H4462 C4466 0.929 . S
H4463 C4472 0.929 . S
C4464 H4458 0.930 . S
C4464 C4465 1.367 . S
C4464 C4472 1.378 . S
C4465 C4464 1.367 . S
C4465 C4473 1.433 . S
C4466 H4462 0.929 . S
C4466 C4468 1.378 . S
C4466 C4470 1.350 . S
C4467 C4470 1.463 . S
C4467 C4472 1.350 . S
C4467 N4475 1.427 . S
C4468 H4459 0.930 . S
C4468 C4466 1.378 . S
C4468 C4469 1.367 . S
C4469 C4468 1.367 . S
C4469 C4471 1.433 . S
C4470 C4466 1.350 . S
C4470 C4467 1.463 . S
C4470 N4474 1.427 . S
C4471 H4461 0.929 . S
C4471 C4469 1.433 . S
C4471 N4474 1.384 . S
C4472 H4463 0.929 . S
C4472 C4464 1.378 . S
C4472 C4467 1.350 . S
C4473 H4460 0.929 . S
C4473 C4465 1.433 . S
C4473 N4475 1.384 . S
N4474 C4470 1.427 . S
N4474 C4471 1.384 . S
N4475 C4467 1.427 . S
N4475 C4473 1.384 . S
H4476 C4482 0.930 . S
H4477 C4486 0.930 . S
H4478 C4491 0.929 . S
H4479 C4489 0.929 . S
H4480 C4484 0.929 . S
H4481 C4490 0.929 . S
C4482 H4476 0.930 . S
C4482 C4483 1.367 . S
C4482 C4490 1.378 . S
C4483 C4482 1.367 . S
C4483 C4491 1.433 . S
C4484 H4480 0.929 . S
C4484 C4486 1.378 . S
C4484 C4488 1.350 . S
C4485 C4488 1.463 . S
C4485 C4490 1.350 . S
C4485 N4493 1.427 . S
C4486 H4477 0.930 . S
C4486 C4484 1.378 . S
C4486 C4487 1.367 . S
C4487 C4486 1.367 . S
C4487 C4489 1.433 . S
C4488 C4484 1.350 . S
C4488 C4485 1.463 . S
C4488 N4492 1.427 . S
C4489 H4479 0.929 . S
C4489 C4487 1.433 . S
C4489 N4492 1.384 . S
C4490 H4481 0.929 . S
C4490 C4482 1.378 . S
C4490 C4485 1.350 . S
C4491 H4478 0.929 . S
C4491 C4483 1.433 . S
C4491 N4493 1.384 . S
N4492 C4488 1.427 . S
N4492 C4489 1.384 . S
N4493 C4485 1.427 . S
N4493 C4491 1.384 . S
H4494 C4500 0.930 . S
H4495 C4504 0.930 . S
H4496 C4509 0.929 . S
H4497 C4507 0.929 . S
H4498 C4502 0.929 . S
H4499 C4508 0.929 . S
C4500 H4494 0.930 . S
C4500 C4501 1.367 . S
C4500 C4508 1.378 . S
C4501 C4500 1.367 . S
C4501 C4509 1.433 . S
C4502 H4498 0.929 . S
C4502 C4504 1.378 . S
C4502 C4506 1.350 . S
C4503 C4506 1.463 . S
C4503 C4508 1.350 . S
C4503 N4511 1.427 . S
C4504 H4495 0.930 . S
C4504 C4502 1.378 . S
C4504 C4505 1.367 . S
C4505 C4504 1.367 . S
C4505 C4507 1.433 . S
C4506 C4502 1.350 . S
C4506 C4503 1.463 . S
C4506 N4510 1.427 . S
C4507 H4497 0.929 . S
C4507 C4505 1.433 . S
C4507 N4510 1.384 . S
C4508 H4499 0.929 . S
C4508 C4500 1.378 . S
C4508 C4503 1.350 . S
C4509 H4496 0.929 . S
C4509 C4501 1.433 . S
C4509 N4511 1.384 . S
N4510 C4506 1.427 . S
N4510 C4507 1.384 . S
N4511 C4503 1.427 . S
N4511 C4509 1.384 . S
H4512 C4518 0.930 . S
H4513 C4522 0.930 . S
H4514 C4527 0.929 . S
H4515 C4525 0.929 . S
H4516 C4520 0.929 . S
H4517 C4526 0.929 . S
C4518 H4512 0.930 . S
C4518 C4519 1.367 . S
C4518 C4526 1.378 . S
C4519 C4518 1.367 . S
C4519 C4527 1.433 . S
C4520 H4516 0.929 . S
C4520 C4522 1.378 . S
C4520 C4524 1.350 . S
C4521 C4524 1.463 . S
C4521 C4526 1.350 . S
C4521 N4529 1.427 . S
C4522 H4513 0.930 . S
C4522 C4520 1.378 . S
C4522 C4523 1.367 . S
C4523 C4522 1.367 . S
C4523 C4525 1.433 . S
C4524 C4520 1.350 . S
C4524 C4521 1.463 . S
C4524 N4528 1.427 . S
C4525 H4515 0.929 . S
C4525 C4523 1.433 . S
C4525 N4528 1.384 . S
C4526 H4517 0.929 . S
C4526 C4518 1.378 . S
C4526 C4521 1.350 . S
C4527 H4514 0.929 . S
C4527 C4519 1.433 . S
C4527 N4529 1.384 . S
N4528 C4524 1.427 . S
N4528 C4525 1.384 . S
N4529 C4521 1.427 . S
N4529 C4527 1.384 . S
H4530 C4536 0.930 . S
H4531 C4540 0.930 . S
H4532 C4545 0.929 . S
H4533 C4543 0.929 . S
H4534 C4538 0.929 . S
H4535 C4544 0.929 . S
C4536 H4530 0.930 . S
C4536 C4537 1.367 . S
C4536 C4544 1.378 . S
C4537 C4536 1.367 . S
C4537 C4545 1.433 . S
C4538 H4534 0.929 . S
C4538 C4540 1.378 . S
C4538 C4542 1.350 . S
C4539 C4542 1.463 . S
C4539 C4544 1.350 . S
C4539 N4547 1.427 . S
C4540 H4531 0.930 . S
C4540 C4538 1.378 . S
C4540 C4541 1.367 . S
C4541 C4540 1.367 . S
C4541 C4543 1.433 . S
C4542 C4538 1.350 . S
C4542 C4539 1.463 . S
C4542 N4546 1.427 . S
C4543 H4533 0.929 . S
C4543 C4541 1.433 . S
C4543 N4546 1.384 . S
C4544 H4535 0.929 . S
C4544 C4536 1.378 . S
C4544 C4539 1.350 . S
C4545 H4532 0.929 . S
C4545 C4537 1.433 . S
C4545 N4547 1.384 . S
N4546 C4542 1.427 . S
N4546 C4543 1.384 . S
N4547 C4539 1.427 . S
N4547 C4545 1.384 . S
H4548 C4554 0.930 . S
H4549 C4558 0.930 . S
H4550 C4563 0.929 . S
H4551 C4561 0.929 . S
H4552 C4556 0.929 . S
H4553 C4562 0.929 . S
C4554 H4548 0.930 . S
C4554 C4555 1.367 . S
C4554 C4562 1.378 . S
C4555 C4554 1.367 . S
C4555 C4563 1.433 . S
C4556 H4552 0.929 . S
C4556 C4558 1.378 . S
C4556 C4560 1.350 . S
C4557 C4560 1.463 . S
C4557 C4562 1.350 . S
C4557 N4565 1.427 . S
C4558 H4549 0.930 . S
C4558 C4556 1.378 . S
C4558 C4559 1.367 . S
C4559 C4558 1.367 . S
C4559 C4561 1.433 . S
C4560 C4556 1.350 . S
C4560 C4557 1.463 . S
C4560 N4564 1.427 . S
C4561 H4551 0.929 . S
C4561 C4559 1.433 . S
C4561 N4564 1.384 . S
C4562 H4553 0.929 . S
C4562 C4554 1.378 . S
C4562 C4557 1.350 . S
C4563 H4550 0.929 . S
C4563 C4555 1.433 . S
C4563 N4565 1.384 . S
N4564 C4560 1.427 . S
N4564 C4561 1.384 . S
N4565 C4557 1.427 . S
N4565 C4563 1.384 . S
H4566 C4572 0.930 . S
H4567 C4576 0.930 . S
H4568 C4581 0.929 . S
H4569 C4579 0.929 . S
H4570 C4574 0.929 . S
H4571 C4580 0.929 . S
C4572 H4566 0.930 . S
C4572 C4573 1.367 . S
C4572 C4580 1.378 . S
C4573 C4572 1.367 . S
C4573 C4581 1.433 . S
C4574 H4570 0.929 . S
C4574 C4576 1.378 . S
C4574 C4578 1.350 . S
C4575 C4578 1.463 . S
C4575 C4580 1.350 . S
C4575 N4583 1.427 . S
C4576 H4567 0.930 . S
C4576 C4574 1.378 . S
C4576 C4577 1.367 . S
C4577 C4576 1.367 . S
C4577 C4579 1.433 . S
C4578 C4574 1.350 . S
C4578 C4575 1.463 . S
C4578 N4582 1.427 . S
C4579 H4569 0.929 . S
C4579 C4577 1.433 . S
C4579 N4582 1.384 . S
C4580 H4571 0.929 . S
C4580 C4572 1.378 . S
C4580 C4575 1.350 . S
C4581 H4568 0.929 . S
C4581 C4573 1.433 . S
C4581 N4583 1.384 . S
N4582 C4578 1.427 . S
N4582 C4579 1.384 . S
N4583 C4575 1.427 . S
N4583 C4581 1.384 . S
H4584 C4590 0.930 . S
H4585 C4594 0.930 . S
H4586 C4599 0.929 . S
H4587 C4597 0.929 . S
H4588 C4592 0.929 . S
H4589 C4598 0.929 . S
C4590 H4584 0.930 . S
C4590 C4591 1.367 . S
C4590 C4598 1.378 . S
C4591 C4590 1.367 . S
C4591 C4599 1.433 . S
C4592 H4588 0.929 . S
C4592 C4594 1.378 . S
C4592 C4596 1.350 . S
C4593 C4596 1.463 . S
C4593 C4598 1.350 . S
C4593 N4601 1.427 . S
C4594 H4585 0.930 . S
C4594 C4592 1.378 . S
C4594 C4595 1.367 . S
C4595 C4594 1.367 . S
C4595 C4597 1.433 . S
C4596 C4592 1.350 . S
C4596 C4593 1.463 . S
C4596 N4600 1.427 . S
C4597 H4587 0.929 . S
C4597 C4595 1.433 . S
C4597 N4600 1.384 . S
C4598 H4589 0.929 . S
C4598 C4590 1.378 . S
C4598 C4593 1.350 . S
C4599 H4586 0.929 . S
C4599 C4591 1.433 . S
C4599 N4601 1.384 . S
N4600 C4596 1.427 . S
N4600 C4597 1.384 . S
N4601 C4593 1.427 . S
N4601 C4599 1.384 . S
H4602 C4608 0.930 . S
H4603 C4612 0.930 . S
H4604 C4617 0.929 . S
H4605 C4615 0.929 . S
H4606 C4610 0.929 . S
H4607 C4616 0.929 . S
C4608 H4602 0.930 . S
C4608 C4609 1.367 . S
C4608 C4616 1.378 . S
C4609 C4608 1.367 . S
C4609 C4617 1.433 . S
C4610 H4606 0.929 . S
C4610 C4612 1.378 . S
C4610 C4614 1.350 . S
C4611 C4614 1.463 . S
C4611 C4616 1.350 . S
C4611 N4619 1.427 . S
C4612 H4603 0.930 . S
C4612 C4610 1.378 . S
C4612 C4613 1.367 . S
C4613 C4612 1.367 . S
C4613 C4615 1.433 . S
C4614 C4610 1.350 . S
C4614 C4611 1.463 . S
C4614 N4618 1.427 . S
C4615 H4605 0.929 . S
C4615 C4613 1.433 . S
C4615 N4618 1.384 . S
C4616 H4607 0.929 . S
C4616 C4608 1.378 . S
C4616 C4611 1.350 . S
C4617 H4604 0.929 . S
C4617 C4609 1.433 . S
C4617 N4619 1.384 . S
N4618 C4614 1.427 . S
N4618 C4615 1.384 . S
N4619 C4611 1.427 . S
N4619 C4617 1.384 . S
H4620 C4626 0.930 . S
H4621 C4630 0.930 . S
H4622 C4635 0.929 . S
H4623 C4633 0.929 . S
H4624 C4628 0.929 . S
H4625 C4634 0.929 . S
C4626 H4620 0.930 . S
C4626 C4627 1.367 . S
C4626 C4634 1.378 . S
C4627 C4626 1.367 . S
C4627 C4635 1.433 . S
C4628 H4624 0.929 . S
C4628 C4630 1.378 . S
C4628 C4632 1.350 . S
C4629 C4632 1.463 . S
C4629 C4634 1.350 . S
C4629 N4637 1.427 . S
C4630 H4621 0.930 . S
C4630 C4628 1.378 . S
C4630 C4631 1.367 . S
C4631 C4630 1.367 . S
C4631 C4633 1.433 . S
C4632 C4628 1.350 . S
C4632 C4629 1.463 . S
C4632 N4636 1.427 . S
C4633 H4623 0.929 . S
C4633 C4631 1.433 . S
C4633 N4636 1.384 . S
C4634 H4625 0.929 . S
C4634 C4626 1.378 . S
C4634 C4629 1.350 . S
C4635 H4622 0.929 . S
C4635 C4627 1.433 . S
C4635 N4637 1.384 . S
N4636 C4632 1.427 . S
N4636 C4633 1.384 . S
N4637 C4629 1.427 . S
N4637 C4635 1.384 . S
H4638 C4644 0.930 . S
H4639 C4648 0.930 . S
H4640 C4653 0.929 . S
H4641 C4651 0.929 . S
H4642 C4646 0.929 . S
H4643 C4652 0.929 . S
C4644 H4638 0.930 . S
C4644 C4645 1.367 . S
C4644 C4652 1.378 . S
C4645 C4644 1.367 . S
C4645 C4653 1.433 . S
C4646 H4642 0.929 . S
C4646 C4648 1.378 . S
C4646 C4650 1.350 . S
C4647 C4650 1.463 . S
C4647 C4652 1.350 . S
C4647 N4655 1.427 . S
C4648 H4639 0.930 . S
C4648 C4646 1.378 . S
C4648 C4649 1.367 . S
C4649 C4648 1.367 . S
C4649 C4651 1.433 . S
C4650 C4646 1.350 . S
C4650 C4647 1.463 . S
C4650 N4654 1.427 . S
C4651 H4641 0.929 . S
C4651 C4649 1.433 . S
C4651 N4654 1.384 . S
C4652 H4643 0.929 . S
C4652 C4644 1.378 . S
C4652 C4647 1.350 . S
C4653 H4640 0.929 . S
C4653 C4645 1.433 . S
C4653 N4655 1.384 . S
N4654 C4650 1.427 . S
N4654 C4651 1.384 . S
N4655 C4647 1.427 . S
N4655 C4653 1.384 . S
H4656 C4662 0.930 . S
H4657 C4666 0.930 . S
H4658 C4671 0.929 . S
H4659 C4669 0.929 . S
H4660 C4664 0.929 . S
H4661 C4670 0.929 . S
C4662 H4656 0.930 . S
C4662 C4663 1.367 . S
C4662 C4670 1.378 . S
C4663 C4662 1.367 . S
C4663 C4671 1.433 . S
C4664 H4660 0.929 . S
C4664 C4666 1.378 . S
C4664 C4668 1.350 . S
C4665 C4668 1.463 . S
C4665 C4670 1.350 . S
C4665 N4673 1.427 . S
C4666 H4657 0.930 . S
C4666 C4664 1.378 . S
C4666 C4667 1.367 . S
C4667 C4666 1.367 . S
C4667 C4669 1.433 . S
C4668 C4664 1.350 . S
C4668 C4665 1.463 . S
C4668 N4672 1.427 . S
C4669 H4659 0.929 . S
C4669 C4667 1.433 . S
C4669 N4672 1.384 . S
C4670 H4661 0.929 . S
C4670 C4662 1.378 . S
C4670 C4665 1.350 . S
C4671 H4658 0.929 . S
C4671 C4663 1.433 . S
C4671 N4673 1.384 . S
N4672 C4668 1.427 . S
N4672 C4669 1.384 . S
N4673 C4665 1.427 . S
N4673 C4671 1.384 . S
H4674 C4680 0.930 . S
H4675 C4684 0.930 . S
H4676 C4689 0.929 . S
H4677 C4687 0.929 . S
H4678 C4682 0.929 . S
H4679 C4688 0.929 . S
C4680 H4674 0.930 . S
C4680 C4681 1.367 . S
C4680 C4688 1.378 . S
C4681 C4680 1.367 . S
C4681 C4689 1.433 . S
C4682 H4678 0.929 . S
C4682 C4684 1.378 . S
C4682 C4686 1.350 . S
C4683 C4686 1.463 . S
C4683 C4688 1.350 . S
C4683 N4691 1.427 . S
C4684 H4675 0.930 . S
C4684 C4682 1.378 . S
C4684 C4685 1.367 . S
C4685 C4684 1.367 . S
C4685 C4687 1.433 . S
C4686 C4682 1.350 . S
C4686 C4683 1.463 . S
C4686 N4690 1.427 . S
C4687 H4677 0.929 . S
C4687 C4685 1.433 . S
C4687 N4690 1.384 . S
C4688 H4679 0.929 . S
C4688 C4680 1.378 . S
C4688 C4683 1.350 . S
C4689 H4676 0.929 . S
C4689 C4681 1.433 . S
C4689 N4691 1.384 . S
N4690 C4686 1.427 . S
N4690 C4687 1.384 . S
N4691 C4683 1.427 . S
N4691 C4689 1.384 . S
H4692 C4698 0.930 . S
H4693 C4702 0.930 . S
H4694 C4707 0.929 . S
H4695 C4705 0.929 . S
H4696 C4700 0.929 . S
H4697 C4706 0.929 . S
C4698 H4692 0.930 . S
C4698 C4699 1.367 . S
C4698 C4706 1.378 . S
C4699 C4698 1.367 . S
C4699 C4707 1.433 . S
C4700 H4696 0.929 . S
C4700 C4702 1.378 . S
C4700 C4704 1.350 . S
C4701 C4704 1.463 . S
C4701 C4706 1.350 . S
C4701 N4709 1.427 . S
C4702 H4693 0.930 . S
C4702 C4700 1.378 . S
C4702 C4703 1.367 . S
C4703 C4702 1.367 . S
C4703 C4705 1.433 . S
C4704 C4700 1.350 . S
C4704 C4701 1.463 . S
C4704 N4708 1.427 . S
C4705 H4695 0.929 . S
C4705 C4703 1.433 . S
C4705 N4708 1.384 . S
C4706 H4697 0.929 . S
C4706 C4698 1.378 . S
C4706 C4701 1.350 . S
C4707 H4694 0.929 . S
C4707 C4699 1.433 . S
C4707 N4709 1.384 . S
N4708 C4704 1.427 . S
N4708 C4705 1.384 . S
N4709 C4701 1.427 . S
N4709 C4707 1.384 . S
H4710 C4716 0.930 . S
H4711 C4720 0.930 . S
H4712 C4725 0.929 . S
H4713 C4723 0.929 . S
H4714 C4718 0.929 . S
H4715 C4724 0.929 . S
C4716 H4710 0.930 . S
C4716 C4717 1.367 . S
C4716 C4724 1.378 . S
C4717 C4716 1.367 . S
C4717 C4725 1.433 . S
C4718 H4714 0.929 . S
C4718 C4720 1.378 . S
C4718 C4722 1.350 . S
C4719 C4722 1.463 . S
C4719 C4724 1.350 . S
C4719 N4727 1.427 . S
C4720 H4711 0.930 . S
C4720 C4718 1.378 . S
C4720 C4721 1.367 . S
C4721 C4720 1.367 . S
C4721 C4723 1.433 . S
C4722 C4718 1.350 . S
C4722 C4719 1.463 . S
C4722 N4726 1.427 . S
C4723 H4713 0.929 . S
C4723 C4721 1.433 . S
C4723 N4726 1.384 . S
C4724 H4715 0.929 . S
C4724 C4716 1.378 . S
C4724 C4719 1.350 . S
C4725 H4712 0.929 . S
C4725 C4717 1.433 . S
C4725 N4727 1.384 . S
N4726 C4722 1.427 . S
N4726 C4723 1.384 . S
N4727 C4719 1.427 . S
N4727 C4725 1.384 . S
H4728 C4734 0.930 . S
H4729 C4738 0.930 . S
H4730 C4743 0.929 . S
H4731 C4741 0.929 . S
H4732 C4736 0.929 . S
H4733 C4742 0.929 . S
C4734 H4728 0.930 . S
C4734 C4735 1.367 . S
C4734 C4742 1.378 . S
C4735 C4734 1.367 . S
C4735 C4743 1.433 . S
C4736 H4732 0.929 . S
C4736 C4738 1.378 . S
C4736 C4740 1.350 . S
C4737 C4740 1.463 . S
C4737 C4742 1.350 . S
C4737 N4745 1.427 . S
C4738 H4729 0.930 . S
C4738 C4736 1.378 . S
C4738 C4739 1.367 . S
C4739 C4738 1.367 . S
C4739 C4741 1.433 . S
C4740 C4736 1.350 . S
C4740 C4737 1.463 . S
C4740 N4744 1.427 . S
C4741 H4731 0.929 . S
C4741 C4739 1.433 . S
C4741 N4744 1.384 . S
C4742 H4733 0.929 . S
C4742 C4734 1.378 . S
C4742 C4737 1.350 . S
C4743 H4730 0.929 . S
C4743 C4735 1.433 . S
C4743 N4745 1.384 . S
N4744 C4740 1.427 . S
N4744 C4741 1.384 . S
N4745 C4737 1.427 . S
N4745 C4743 1.384 . S
H4746 C4752 0.930 . S
H4747 C4756 0.930 . S
H4748 C4761 0.929 . S
H4749 C4759 0.929 . S
H4750 C4754 0.929 . S
H4751 C4760 0.929 . S
C4752 H4746 0.930 . S
C4752 C4753 1.367 . S
C4752 C4760 1.378 . S
C4753 C4752 1.367 . S
C4753 C4761 1.433 . S
C4754 H4750 0.929 . S
C4754 C4756 1.378 . S
C4754 C4758 1.350 . S
C4755 C4758 1.463 . S
C4755 C4760 1.350 . S
C4755 N4763 1.427 . S
C4756 H4747 0.930 . S
C4756 C4754 1.378 . S
C4756 C4757 1.367 . S
C4757 C4756 1.367 . S
C4757 C4759 1.433 . S
C4758 C4754 1.350 . S
C4758 C4755 1.463 . S
C4758 N4762 1.427 . S
C4759 H4749 0.929 . S
C4759 C4757 1.433 . S
C4759 N4762 1.384 . S
C4760 H4751 0.929 . S
C4760 C4752 1.378 . S
C4760 C4755 1.350 . S
C4761 H4748 0.929 . S
C4761 C4753 1.433 . S
C4761 N4763 1.384 . S
N4762 C4758 1.427 . S
N4762 C4759 1.384 . S
N4763 C4755 1.427 . S
N4763 C4761 1.384 . S
H4764 C4770 0.930 . S
H4765 C4774 0.930 . S
H4766 C4779 0.929 . S
H4767 C4777 0.929 . S
H4768 C4772 0.929 . S
H4769 C4778 0.929 . S
C4770 H4764 0.930 . S
C4770 C4771 1.367 . S
C4770 C4778 1.378 . S
C4771 C4770 1.367 . S
C4771 C4779 1.433 . S
C4772 H4768 0.929 . S
C4772 C4774 1.378 . S
C4772 C4776 1.350 . S
C4773 C4776 1.463 . S
C4773 C4778 1.350 . S
C4773 N4781 1.427 . S
C4774 H4765 0.930 . S
C4774 C4772 1.378 . S
C4774 C4775 1.367 . S
C4775 C4774 1.367 . S
C4775 C4777 1.433 . S
C4776 C4772 1.350 . S
C4776 C4773 1.463 . S
C4776 N4780 1.427 . S
C4777 H4767 0.929 . S
C4777 C4775 1.433 . S
C4777 N4780 1.384 . S
C4778 H4769 0.929 . S
C4778 C4770 1.378 . S
C4778 C4773 1.350 . S
C4779 H4766 0.929 . S
C4779 C4771 1.433 . S
C4779 N4781 1.384 . S
N4780 C4776 1.427 . S
N4780 C4777 1.384 . S
N4781 C4773 1.427 . S
N4781 C4779 1.384 . S
H4782 C4788 0.930 . S
H4783 C4792 0.930 . S
H4784 C4797 0.929 . S
H4785 C4795 0.929 . S
H4786 C4790 0.929 . S
H4787 C4796 0.929 . S
C4788 H4782 0.930 . S
C4788 C4789 1.367 . S
C4788 C4796 1.378 . S
C4789 C4788 1.367 . S
C4789 C4797 1.433 . S
C4790 H4786 0.929 . S
C4790 C4792 1.378 . S
C4790 C4794 1.350 . S
C4791 C4794 1.463 . S
C4791 C4796 1.350 . S
C4791 N4799 1.427 . S
C4792 H4783 0.930 . S
C4792 C4790 1.378 . S
C4792 C4793 1.367 . S
C4793 C4792 1.367 . S
C4793 C4795 1.433 . S
C4794 C4790 1.350 . S
C4794 C4791 1.463 . S
C4794 N4798 1.427 . S
C4795 H4785 0.929 . S
C4795 C4793 1.433 . S
C4795 N4798 1.384 . S
C4796 H4787 0.929 . S
C4796 C4788 1.378 . S
C4796 C4791 1.350 . S
C4797 H4784 0.929 . S
C4797 C4789 1.433 . S
C4797 N4799 1.384 . S
N4798 C4794 1.427 . S
N4798 C4795 1.384 . S
N4799 C4791 1.427 . S
N4799 C4797 1.384 . S
C1351 C9 1.659 . S
C1355 C961 1.651 . S
C1369 C919 1.652 . S
C1373 C23 1.656 . S
C1387 C933 1.651 . S
C1391 C37 1.658 . S
C1405 C51 1.651 . S
C1409 C947 1.658 . S
C1423 C1003 1.656 . S
C1427 C65 1.652 . S
C1441 C975 1.651 . S
C1445 C79 1.658 . S
C1459 C989 1.651 . S
C1463 C93 1.658 . S
C1477 C107 1.653 . S
C1481 C905 1.658 . S
C1495 C121 1.655 . S
C1499 C891 1.657 . S
C1513 C135 1.653 . S
C1517 C849 1.654 . S
C1531 C149 1.659 . S
C1535 C863 1.651 . S
C1549 C163 1.655 . S
C1553 C877 1.652 . S
C1567 C177 1.657 . S
C1571 C807 1.651 . S
C1585 C821 1.659 . S
C1589 C191 1.652 . S
C1603 C835 1.656 . S
C1607 C205 1.652 . S
C1621 C219 1.652 . S
C1625 C793 1.655 . S
C1639 C233 1.659 . S
C1643 C779 1.652 . S
C1657 C247 1.658 . S
C1661 C695 1.651 . S
C1675 C709 1.656 . S
C1679 C261 1.656 . S
C1693 C723 1.651 . S
C1697 C275 1.659 . S
C1711 C681 1.654 . S
C1715 C289 1.654 . S
C1729 C303 1.656 . S
C1733 C751 1.652 . S
C1747 C317 1.659 . S
C1751 C765 1.652 . S
C1765 C331 1.654 . S
C1769 C737 1.653 . S
C1783 C345 1.651 . S
C1787 C1297 1.658 . S
C1801 C359 1.652 . S
C1805 C1255 1.655 . S
C1819 C373 1.655 . S
C1823 C1269 1.652 . S
C1837 C387 1.653 . S
C1841 C1283 1.654 . S
C1855 C401 1.656 . S
C1859 C1339 1.651 . S
C1873 C415 1.651 . S
C1877 C1311 1.658 . S
C1891 C1325 1.658 . S
C1895 C429 1.653 . S
C1909 C443 1.657 . S
C1913 C1241 1.651 . S
C1927 C457 1.651 . S
C1931 C1227 1.659 . S
C1945 C1185 1.658 . S
C1949 C471 1.653 . S
C1963 C485 1.656 . S
C1967 C1199 1.656 . S
C1981 C499 1.651 . S
C1985 C1213 1.657 . S
C1999 C513 1.657 . S
C2003 C1143 1.655 . S
C2017 C527 1.657 . S
C2021 C1157 1.654 . S
C2035 C541 1.654 . S
C2039 C1171 1.653 . S
C2053 C1129 1.653 . S
C2057 C555 1.655 . S
C2071 C569 1.659 . S
C2075 C1115 1.651 . S
C2089 C583 1.658 . S
C2093 C1031 1.651 . S
C2107 C597 1.659 . S
C2111 C1045 1.652 . S
C2125 C1059 1.651 . S
C2129 C611 1.656 . S
C2143 C625 1.658 . S
C2147 C1017 1.654 . S
C2161 C1087 1.652 . S
C2165 C639 1.659 . S
C2179 C653 1.655 . S
C2183 C1101 1.657 . S
C2197 C667 1.655 . S
C2201 C1073 1.652 . S
C2215 C7 1.465 . S
C2219 C553 1.455 . S
C2233 C21 1.459 . S
C2237 C511 1.461 . S
C2251 C525 1.454 . S
C2255 C35 1.466 . S
C2269 C49 1.454 . S
C2273 C539 1.466 . S
C2287 C469 1.465 . S
C2291 C63 1.455 . S
C2305 C483 1.454 . S
C2309 C77 1.466 . S
C2323 C497 1.457 . S
C2327 C91 1.463 . S
C2341 C455 1.455 . S
C2345 C105 1.465 . S
C2359 C441 1.457 . S
C2363 C119 1.463 . S
C2377 C133 1.465 . S
C2381 C399 1.455 . S
C2395 C413 1.466 . S
C2399 C147 1.454 . S
C2413 C161 1.465 . S
C2417 C427 1.455 . S
C2431 C357 1.464 . S
C2435 C175 1.456 . S
C2449 C371 1.461 . S
C2453 C189 1.459 . S
C2467 C203 1.465 . S
C2471 C385 1.455 . S
C2485 C217 1.455 . S
C2489 C343 1.465 . S
C2503 C231 1.455 . S
C2507 C623 1.465 . S
C2521 C245 1.465 . S
C2525 C665 1.455 . S
C2539 C637 1.454 . S
C2543 C259 1.466 . S
C2557 C651 1.465 . S
C2561 C273 1.455 . S
C2575 C287 1.464 . S
C2579 C567 1.456 . S
C2593 C301 1.454 . S
C2597 C595 1.466 . S
C2611 C609 1.456 . S
C2615 C315 1.464 . S
C2629 C329 1.466 . S
C2633 C581 1.454 . S
C2647 C1225 1.458 . S
C2651 C679 1.462 . S
C2665 C1183 1.454 . S
C2669 C693 1.466 . S
C2683 C1197 1.456 . S
C2687 C707 1.464 . S
C2701 C721 1.465 . S
C2705 C1211 1.455 . S
C2719 C1141 1.464 . S
C2723 C735 1.456 . S
C2737 C1155 1.454 . S
C2741 C749 1.466 . S
C2755 C763 1.457 . S
C2759 C1169 1.463 . S
C2773 C777 1.454 . S
C2777 C1127 1.466 . S
C2791 C1113 1.466 . S
C2795 C791 1.454 . S
C2809 C805 1.455 . S
C2813 C1071 1.465 . S
C2827 C1085 1.455 . S
C2831 C819 1.465 . S
C2845 C1099 1.454 . S
C2849 C833 1.466 . S
C2863 C847 1.458 . S
C2867 C1029 1.462 . S
C2881 C861 1.454 . S
C2885 C1043 1.466 . S
C2899 C1057 1.459 . S
C2903 C875 1.461 . S
C2917 C889 1.454 . S
C2921 C1015 1.466 . S
C2935 C1295 1.463 . S
C2939 C903 1.457 . S
C2953 C1337 1.466 . S
C2957 C917 1.454 . S
C2971 C931 1.463 . S
C2975 C1309 1.457 . S
C2989 C1323 1.454 . S
C2993 C945 1.466 . S
C3007 C1239 1.455 . S
C3011 C959 1.465 . S
C3025 C1267 1.466 . S
C3029 C973 1.454 . S
C3043 C987 1.462 . S
C3047 C1281 1.458 . S
C3061 C1253 1.455 . S
C3065 C1001 1.465 . S
C3079 C8 1.243 . S
C3083 C400 1.239 . S
C3097 C414 1.243 . S
C3101 C22 1.239 . S
C3115 C36 1.245 . S
C3119 C428 1.237 . S
C3133 C442 1.241 . S
C3137 C50 1.241 . S
C3151 C64 1.239 . S
C3155 C344 1.242 . S
C3169 C78 1.244 . S
C3173 C358 1.238 . S
C3187 C92 1.237 . S
C3191 C372 1.245 . S
C3205 C386 1.245 . S
C3209 C106 1.237 . S
C3223 C540 1.244 . S
C3227 C120 1.238 . S
C3241 C134 1.238 . S
C3245 C554 1.244 . S
C3259 C148 1.238 . S
C3263 C512 1.244 . S
C3277 C162 1.237 . S
C3281 C526 1.245 . S
C3295 C176 1.244 . S
C3299 C484 1.238 . S
C3313 C190 1.243 . S
C3317 C498 1.239 . S
C3331 C204 1.245 . S
C3335 C456 1.236 . S
C3349 C218 1.243 . S
C3353 C470 1.239 . S
C3367 C232 1.244 . S
C3371 C638 1.238 . S
C3385 C246 1.240 . S
C3389 C610 1.241 . S
C3403 C624 1.245 . S
C3407 C260 1.237 . S
C3421 C274 1.237 . S
C3425 C582 1.245 . S
C3439 C596 1.242 . S
C3443 C288 1.240 . S
C3457 C302 1.238 . S
C3461 C568 1.244 . S
C3475 C316 1.238 . S
C3479 C666 1.244 . S
C3493 C652 1.245 . S
C3497 C330 1.237 . S
C3511 C1072 1.243 . S
C3515 C680 1.239 . S
C3529 C694 1.237 . S
C3533 C1086 1.245 . S
C3547 C1100 1.238 . S
C3551 C708 1.244 . S
C3565 C722 1.242 . S
C3569 C1114 1.240 . S
C3583 C1016 1.237 . S
C3587 C736 1.245 . S
C3601 C1030 1.237 . S
C3605 C750 1.244 . S
C3619 C1044 1.240 . S
C3623 C764 1.242 . S
C3637 C778 1.238 . S
C3641 C1058 1.244 . S
C3655 C792 1.240 . S
C3659 C1212 1.242 . S
C3673 C1226 1.245 . S
C3677 C806 1.237 . S
C3691 C1184 1.237 . S
C3695 C820 1.245 . S
C3709 C1198 1.243 . S
C3713 C834 1.239 . S
C3727 C848 1.244 . S
C3731 C1156 1.238 . S
C3745 C862 1.244 . S
C3749 C1170 1.238 . S
C3763 C1128 1.245 . S
C3767 C876 1.237 . S
C3781 C1142 1.237 . S
C3785 C890 1.245 . S
C3799 C1310 1.239 . S
C3803 C904 1.243 . S
C3817 C918 1.245 . S
C3821 C1282 1.237 . S
C3835 C1296 1.245 . S
C3839 C932 1.237 . S
C3853 C946 1.240 . S
C3857 C1254 1.242 . S
C3871 C960 1.241 . S
C3875 C1268 1.241 . S
C3889 C974 1.238 . S
C3893 C1240 1.244 . S
C3907 C1338 1.237 . S
C3911 C988 1.245 . S
C3925 C1002 1.244 . S
C3929 C1324 1.238 . S
C3943 C437 1.298 . S
C3947 C3 1.302 . S
C3961 C395 1.304 . S
C3965 C17 1.297 . S
C3979 C31 1.297 . S
C3983 C409 1.303 . S
C3997 C423 1.304 . S
C4001 C45 1.297 . S
C4015 C353 1.302 . S
C4019 C59 1.299 . S
C4033 C73 1.299 . S
C4037 C367 1.302 . S
C4051 C87 1.304 . S
C4055 C381 1.297 . S
C4069 C339 1.302 . S
C4073 C101 1.298 . S
C4087 C619 1.297 . S
C4091 C115 1.303 . S
C4105 C129 1.303 . S
C4109 C577 1.297 . S
C4123 C143 1.303 . S
C4127 C591 1.297 . S
C4141 C605 1.299 . S
C4145 C157 1.302 . S
C4159 C171 1.297 . S
C4163 C661 1.304 . S
C4177 C633 1.299 . S
C4181 C185 1.302 . S
C4195 C647 1.301 . S
C4199 C199 1.299 . S
C4213 C213 1.302 . S
C4217 C563 1.298 . S
C4231 C227 1.297 . S
C4235 C549 1.304 . S
C4249 C241 1.301 . S
C4253 C465 1.299 . S
C4267 C255 1.298 . S
C4271 C479 1.303 . S
C4285 C493 1.302 . S
C4289 C269 1.298 . S
C4303 C451 1.303 . S
C4307 C283 1.297 . S
C4321 C297 1.302 . S
C4325 C521 1.298 . S
C4339 C311 1.304 . S
C4343 C535 1.297 . S
C4357 C325 1.298 . S
C4361 C507 1.302 . S
C4375 C675 1.299 . S
C4379 C1109 1.301 . S
C4393 C689 1.299 . S
C4397 C1067 1.302 . S
C4411 C703 1.302 . S
C4415 C1081 1.298 . S
C4429 C1095 1.303 . S
C4433 C717 1.298 . S
C4447 C1025 1.297 . S
C4451 C731 1.303 . S
C4465 C1039 1.301 . S
C4469 C745 1.299 . S
C4483 C759 1.297 . S
C4487 C1053 1.304 . S
C4501 C1011 1.297 . S
C4505 C773 1.303 . S
C4519 C1291 1.298 . S
C4523 C787 1.303 . S
C4537 C1249 1.302 . S
C4541 C801 1.299 . S
C4555 C1263 1.299 . S
C4559 C815 1.301 . S
C4573 C1277 1.303 . S
C4577 C829 1.297 . S
C4591 C1333 1.297 . S
C4595 C843 1.304 . S
C4609 C1305 1.303 . S
C4613 C857 1.297 . S
C4627 C1319 1.297 . S
C4631 C871 1.303 . S
C4645 C1235 1.298 . S
C4649 C885 1.302 . S
C4663 C899 1.302 . S
C4667 C1221 1.298 . S
C4681 C1137 1.297 . S
C4685 C913 1.304 . S
C4699 C1151 1.301 . S
C4703 C927 1.300 . S
C4717 C1165 1.299 . S
C4721 C941 1.301 . S
C4735 C1123 1.298 . S
C4739 C955 1.303 . S
C4753 C1193 1.303 . S
C4757 C969 1.298 . S
C4771 C1207 1.304 . S
C4775 C983 1.297 . S
C4789 C1179 1.299 . S
C4793 C997 1.301 . S
