# Generated by pormake.
# Topology uox, (4)-cn, num edge types: 1
# Building blocks:
#     Node 0, Type 0, BuildingBlock: ICAMEG_clean_sbu_1, # of connection points: 4
#     Node 1, Type 0, BuildingBlock: ICAMEG_clean_sbu_1, # of connection points: 4
#     Node 2, Type 0, BuildingBlock: ICAMEG_clean_sbu_1, # of connection points: 4
#     Node 3, Type 0, BuildingBlock: ICAMEG_clean_sbu_1, # of connection points: 4
#     Node 4, Type 0, BuildingBlock: ICAMEG_clean_sbu_1, # of connection points: 4
#     Node 5, Type 0, BuildingBlock: ICAMEG_clean_sbu_1, # of connection points: 4
#     Node 6, Type 0, BuildingBlock: ICAMEG_clean_sbu_1, # of connection points: 4
#     Node 7, Type 0, BuildingBlock: ICAMEG_clean_sbu_1, # of connection points: 4
#     Node 8, Type 0, BuildingBlock: ICAMEG_clean_sbu_1, # of connection points: 4
#     Node 9, Type 0, BuildingBlock: ICAMEG_clean_sbu_1, # of connection points: 4
#     Node 10, Type 0, BuildingBlock: ICAMEG_clean_sbu_1, # of connection points: 4
#     Node 11, Type 0, BuildingBlock: ICAMEG_clean_sbu_1, # of connection points: 4
#     Node 12, Type 0, BuildingBlock: ICAMEG_clean_sbu_1, # of connection points: 4
#     Node 13, Type 0, BuildingBlock: ICAMEG_clean_sbu_1, # of connection points: 4
#     Node 14, Type 0, BuildingBlock: ICAMEG_clean_sbu_1, # of connection points: 4
#     Node 15, Type 0, BuildingBlock: ICAMEG_clean_sbu_1, # of connection points: 4
#     Node 16, Type 0, BuildingBlock: ICAMEG_clean_sbu_1, # of connection points: 4
#     Node 17, Type 0, BuildingBlock: ICAMEG_clean_sbu_1, # of connection points: 4
#     Node 18, Type 0, BuildingBlock: ICAMEG_clean_sbu_1, # of connection points: 4
#     Node 19, Type 0, BuildingBlock: ICAMEG_clean_sbu_1, # of connection points: 4
#     Node 20, Type 0, BuildingBlock: ICAMEG_clean_sbu_1, # of connection points: 4
#     Node 21, Type 0, BuildingBlock: ICAMEG_clean_sbu_1, # of connection points: 4
#     Node 22, Type 0, BuildingBlock: ICAMEG_clean_sbu_1, # of connection points: 4
#     Node 23, Type 0, BuildingBlock: ICAMEG_clean_sbu_1, # of connection points: 4
#     Node 24, Type 0, BuildingBlock: ICAMEG_clean_sbu_1, # of connection points: 4
#     Node 25, Type 0, BuildingBlock: ICAMEG_clean_sbu_1, # of connection points: 4
#     Node 26, Type 0, BuildingBlock: ICAMEG_clean_sbu_1, # of connection points: 4
#     Node 27, Type 0, BuildingBlock: ICAMEG_clean_sbu_1, # of connection points: 4
#     Node 28, Type 0, BuildingBlock: ICAMEG_clean_sbu_1, # of connection points: 4
#     Node 29, Type 0, BuildingBlock: ICAMEG_clean_sbu_1, # of connection points: 4
#     Node 30, Type 0, BuildingBlock: ICAMEG_clean_sbu_1, # of connection points: 4
#     Node 31, Type 0, BuildingBlock: ICAMEG_clean_sbu_1, # of connection points: 4
#     Edge 32, Type (0, 0), BuildingBlock: OJICUG_clean_linker_0, # of connection points: 2
#     Edge 33, Type (0, 0), BuildingBlock: OJICUG_clean_linker_0, # of connection points: 2
#     Edge 34, Type (0, 0), BuildingBlock: OJICUG_clean_linker_0, # of connection points: 2
#     Edge 35, Type (0, 0), BuildingBlock: OJICUG_clean_linker_0, # of connection points: 2
#     Edge 36, Type (0, 0), BuildingBlock: OJICUG_clean_linker_0, # of connection points: 2
#     Edge 37, Type (0, 0), BuildingBlock: OJICUG_clean_linker_0, # of connection points: 2
#     Edge 38, Type (0, 0), BuildingBlock: OJICUG_clean_linker_0, # of connection points: 2
#     Edge 39, Type (0, 0), BuildingBlock: OJICUG_clean_linker_0, # of connection points: 2
#     Edge 40, Type (0, 0), BuildingBlock: OJICUG_clean_linker_0, # of connection points: 2
#     Edge 41, Type (0, 0), BuildingBlock: OJICUG_clean_linker_0, # of connection points: 2
#     Edge 42, Type (0, 0), BuildingBlock: OJICUG_clean_linker_0, # of connection points: 2
#     Edge 43, Type (0, 0), BuildingBlock: OJICUG_clean_linker_0, # of connection points: 2
#     Edge 44, Type (0, 0), BuildingBlock: OJICUG_clean_linker_0, # of connection points: 2
#     Edge 45, Type (0, 0), BuildingBlock: OJICUG_clean_linker_0, # of connection points: 2
#     Edge 46, Type (0, 0), BuildingBlock: OJICUG_clean_linker_0, # of connection points: 2
#     Edge 47, Type (0, 0), BuildingBlock: OJICUG_clean_linker_0, # of connection points: 2
#     Edge 48, Type (0, 0), BuildingBlock: OJICUG_clean_linker_0, # of connection points: 2
#     Edge 49, Type (0, 0), BuildingBlock: OJICUG_clean_linker_0, # of connection points: 2
#     Edge 50, Type (0, 0), BuildingBlock: OJICUG_clean_linker_0, # of connection points: 2
#     Edge 51, Type (0, 0), BuildingBlock: OJICUG_clean_linker_0, # of connection points: 2
#     Edge 52, Type (0, 0), BuildingBlock: OJICUG_clean_linker_0, # of connection points: 2
#     Edge 53, Type (0, 0), BuildingBlock: OJICUG_clean_linker_0, # of connection points: 2
#     Edge 54, Type (0, 0), BuildingBlock: OJICUG_clean_linker_0, # of connection points: 2
#     Edge 55, Type (0, 0), BuildingBlock: OJICUG_clean_linker_0, # of connection points: 2
#     Edge 56, Type (0, 0), BuildingBlock: OJICUG_clean_linker_0, # of connection points: 2
#     Edge 57, Type (0, 0), BuildingBlock: OJICUG_clean_linker_0, # of connection points: 2
#     Edge 58, Type (0, 0), BuildingBlock: OJICUG_clean_linker_0, # of connection points: 2
#     Edge 59, Type (0, 0), BuildingBlock: OJICUG_clean_linker_0, # of connection points: 2
#     Edge 60, Type (0, 0), BuildingBlock: OJICUG_clean_linker_0, # of connection points: 2
#     Edge 61, Type (0, 0), BuildingBlock: OJICUG_clean_linker_0, # of connection points: 2
#     Edge 62, Type (0, 0), BuildingBlock: OJICUG_clean_linker_0, # of connection points: 2
#     Edge 63, Type (0, 0), BuildingBlock: OJICUG_clean_linker_0, # of connection points: 2
#     Edge 64, Type (0, 0), BuildingBlock: OJICUG_clean_linker_0, # of connection points: 2
#     Edge 65, Type (0, 0), BuildingBlock: OJICUG_clean_linker_0, # of connection points: 2
#     Edge 66, Type (0, 0), BuildingBlock: OJICUG_clean_linker_0, # of connection points: 2
#     Edge 67, Type (0, 0), BuildingBlock: OJICUG_clean_linker_0, # of connection points: 2
#     Edge 68, Type (0, 0), BuildingBlock: OJICUG_clean_linker_0, # of connection points: 2
#     Edge 69, Type (0, 0), BuildingBlock: OJICUG_clean_linker_0, # of connection points: 2
#     Edge 70, Type (0, 0), BuildingBlock: OJICUG_clean_linker_0, # of connection points: 2
#     Edge 71, Type (0, 0), BuildingBlock: OJICUG_clean_linker_0, # of connection points: 2
#     Edge 72, Type (0, 0), BuildingBlock: OJICUG_clean_linker_0, # of connection points: 2
#     Edge 73, Type (0, 0), BuildingBlock: OJICUG_clean_linker_0, # of connection points: 2
#     Edge 74, Type (0, 0), BuildingBlock: OJICUG_clean_linker_0, # of connection points: 2
#     Edge 75, Type (0, 0), BuildingBlock: OJICUG_clean_linker_0, # of connection points: 2
#     Edge 76, Type (0, 0), BuildingBlock: OJICUG_clean_linker_0, # of connection points: 2
#     Edge 77, Type (0, 0), BuildingBlock: OJICUG_clean_linker_0, # of connection points: 2
#     Edge 78, Type (0, 0), BuildingBlock: OJICUG_clean_linker_0, # of connection points: 2
#     Edge 79, Type (0, 0), BuildingBlock: OJICUG_clean_linker_0, # of connection points: 2
#     Edge 80, Type (0, 0), BuildingBlock: OJICUG_clean_linker_0, # of connection points: 2
#     Edge 81, Type (0, 0), BuildingBlock: OJICUG_clean_linker_0, # of connection points: 2
#     Edge 82, Type (0, 0), BuildingBlock: OJICUG_clean_linker_0, # of connection points: 2
#     Edge 83, Type (0, 0), BuildingBlock: OJICUG_clean_linker_0, # of connection points: 2
#     Edge 84, Type (0, 0), BuildingBlock: OJICUG_clean_linker_0, # of connection points: 2
#     Edge 85, Type (0, 0), BuildingBlock: OJICUG_clean_linker_0, # of connection points: 2
#     Edge 86, Type (0, 0), BuildingBlock: OJICUG_clean_linker_0, # of connection points: 2
#     Edge 87, Type (0, 0), BuildingBlock: OJICUG_clean_linker_0, # of connection points: 2
#     Edge 88, Type (0, 0), BuildingBlock: OJICUG_clean_linker_0, # of connection points: 2
#     Edge 89, Type (0, 0), BuildingBlock: OJICUG_clean_linker_0, # of connection points: 2
#     Edge 90, Type (0, 0), BuildingBlock: OJICUG_clean_linker_0, # of connection points: 2
#     Edge 91, Type (0, 0), BuildingBlock: OJICUG_clean_linker_0, # of connection points: 2
#     Edge 92, Type (0, 0), BuildingBlock: OJICUG_clean_linker_0, # of connection points: 2
#     Edge 93, Type (0, 0), BuildingBlock: OJICUG_clean_linker_0, # of connection points: 2
#     Edge 94, Type (0, 0), BuildingBlock: OJICUG_clean_linker_0, # of connection points: 2
#     Edge 95, Type (0, 0), BuildingBlock: OJICUG_clean_linker_0, # of connection points: 2
# Relax obj value: 0.072
# Max RMSD: 0.112
# Mean RMSD: 0.112
data_MOF--net-uox--node1-ICAMEG_clean_sbu_1--edge1-OJICUG_clean_linker_0
_symmetry_space_group_name_H-M    P1
_symmetry_Int_Tables_number       1
_symmetry_cell_setting            triclinic
loop_
_symmetry_equiv_pos_as_xyz
'x, y, z'
_cell_length_a     35.729818
_cell_length_b     35.718444
_cell_length_c     62.932217
_cell_angle_alpha  90.020715
_cell_angle_beta   90.01536
_cell_angle_gamma 89.988795
loop_
_atom_site_label
_atom_site_type_symbol
_atom_site_fract_x
_atom_site_fract_y
_atom_site_fract_z
_atom_type_partial_charge
Co0 Co 0.4243 0.04849 0.14217 0.0
Co1 Co 0.43165 0.09645 0.18941 0.0
O2 O 0.41776 0.05121 0.17327 0.0
C3 C 0.34648 0.02059 0.14824 0.0
O4 O 0.34154 0.0453 0.1634 0.0
C5 C 0.45917 0.03287 0.21737 0.0
O6 O 0.46472 0.01142 0.20073 0.0
O7 O 0.48379 0.09427 0.17773 0.0
O8 O 0.47078 0.07931 0.14389 0.0
H9 H 0.49065 0.22304 0.19814 0.0
H10 H 0.41306 0.97784 0.16591 0.0
O11 O 0.37785 0.01768 0.13887 0.0
H12 H 0.53691 0.96552 0.13205 0.0
H13 H 0.42476 0.98407 0.07093 0.0
H14 H 0.44389 0.10351 0.10866 0.0
H15 H 0.499 0.02246 0.1268 0.0
H16 H 0.41724 0.98767 0.10982 0.0
O17 O 0.44717 0.06618 0.215 0.0
H18 H 0.47222 0.16625 0.17862 0.0
H19 H 0.42093 0.12239 0.23419 0.0
H20 H 0.45208 0.1011 0.06979 0.0
H21 H 0.44982 0.92015 0.17136 0.0
H22 H 0.44249 0.04102 0.05065 0.0
H23 H 0.51229 0.91379 0.15441 0.0
O24 O 0.3942 0.09487 0.13815 0.0
H25 H 0.31613 0.04229 0.22298 0.0
H26 H 0.37379 0.15652 0.19371 0.0
H27 H 0.30914 0.15903 0.20725 0.0
H28 H 0.27991 0.10164 0.22212 0.0
H29 H 0.3805 0.04092 0.2089 0.0
H30 H 0.43878 0.17885 0.25431 0.0
H31 H 0.47367 0.22983 0.23626 0.0
O32 O 0.41597 0.12942 0.16514 0.0
C33 C 0.49272 0.09219 0.15811 0.0
C34 C 0.47527 0.20119 0.20618 0.0
C35 C 0.44624 0.17631 0.2377 0.0
N36 N 0.44541 0.14105 0.20521 0.0
C37 C 0.46476 0.1689 0.1952 0.0
C38 C 0.4363 0.14434 0.22623 0.0
C39 C 0.46583 0.20491 0.22756 0.0
C40 C 0.44006 0.9751 0.15833 0.0
N41 N 0.45382 0.00343 0.14603 0.0
C42 C 0.46082 0.94245 0.16154 0.0
C43 C 0.49589 0.93893 0.15206 0.0
C44 C 0.50974 0.96796 0.13953 0.0
C45 C 0.48821 1.00021 0.13669 0.0
C46 C 0.42917 0.01037 0.0791 0.0
C47 C 0.44005 0.0772 0.10049 0.0
C48 C 0.42492 0.0126 0.10112 0.0
N49 N 0.43065 0.04569 0.11157 0.0
C50 C 0.44455 0.07603 0.07846 0.0
C51 C 0.43912 0.04233 0.06773 0.0
C52 C 0.3986 0.12621 0.14749 0.0
C53 C 0.32858 0.06751 0.21659 0.0
C54 C 0.36119 0.13135 0.19993 0.0
C55 C 0.32461 0.13299 0.20769 0.0
C56 C 0.30825 0.1008 0.21606 0.0
N57 N 0.38097 0.09861 0.2005 0.0
C58 C 0.3651 0.06695 0.20869 0.0
Co59 Co 0.20854 0.17233 0.39211 0.0
Co60 Co 0.16076 0.18107 0.4392 0.0
O61 O 0.206 0.16637 0.42329 0.0
C62 C 0.23741 0.09481 0.39868 0.0
O63 O 0.21335 0.08999 0.41418 0.0
C64 C 0.22409 0.20839 0.46729 0.0
O65 O 0.24566 0.2139 0.4507 0.0
O66 O 0.16402 0.23298 0.4274 0.0
O67 O 0.17759 0.21888 0.39355 0.0
H68 H 0.03497 0.24219 0.44697 0.0
H69 H 0.27925 0.16203 0.41592 0.0
O70 O 0.23959 0.12596 0.38901 0.0
H71 H 0.29098 0.28503 0.38098 0.0
H72 H 0.27228 0.1716 0.3207 0.0
H73 H 0.15316 0.19111 0.35864 0.0
H74 H 0.23423 0.24673 0.37605 0.0
H75 H 0.26908 0.16484 0.35965 0.0
O76 O 0.19085 0.19634 0.46485 0.0
H77 H 0.09182 0.22266 0.42788 0.0
H78 H 0.13388 0.1713 0.4839 0.0
H79 H 0.15518 0.19852 0.31971 0.0
H80 H 0.33675 0.19921 0.42106 0.0
H81 H 0.21509 0.18874 0.30047 0.0
H82 H 0.34281 0.26124 0.40356 0.0
O83 O 0.16233 0.14184 0.38845 0.0
H84 H 0.21252 0.065 0.47341 0.0
H85 H 0.09971 0.12421 0.44334 0.0
H86 H 0.09598 0.05971 0.45705 0.0
H87 H 0.15265 0.02971 0.47232 0.0
H88 H 0.21512 0.12924 0.45916 0.0
H89 H 0.07737 0.19034 0.5036 0.0
H90 H 0.02728 0.22587 0.48511 0.0
O91 O 0.1279 0.16568 0.41488 0.0
C92 C 0.16565 0.24146 0.40772 0.0
C93 C 0.05646 0.22659 0.45521 0.0
C94 C 0.08032 0.19756 0.48699 0.0
N95 N 0.11614 0.19574 0.45472 0.0
C96 C 0.08877 0.21544 0.44447 0.0
C97 C 0.11232 0.18694 0.47575 0.0
C98 C 0.05222 0.21749 0.4766 0.0
C99 C 0.28186 0.18885 0.4081 0.0
N100 N 0.25347 0.20214 0.39568 0.0
C101 C 0.3144 0.20984 0.41114 0.0
C102 C 0.31776 0.24467 0.40134 0.0
C103 C 0.28867 0.25805 0.38869 0.0
C104 C 0.25653 0.2363 0.38603 0.0
C105 C 0.24605 0.17607 0.32891 0.0
C106 C 0.1794 0.18715 0.35042 0.0
C107 C 0.24404 0.17225 0.35097 0.0
N108 N 0.21105 0.17807 0.36147 0.0
C109 C 0.18034 0.19123 0.32836 0.0
C110 C 0.21395 0.18569 0.31757 0.0
C111 C 0.13102 0.14705 0.39766 0.0
C112 C 0.18761 0.07779 0.46684 0.0
C113 C 0.12457 0.11127 0.44975 0.0
C114 C 0.12225 0.07478 0.4576 0.0
C115 C 0.15404 0.05798 0.46619 0.0
N116 N 0.1576 0.13054 0.45044 0.0
C117 C 0.18887 0.11424 0.45885 0.0
Co118 Co 0.0812 0.95881 0.64239 0.0
Co119 Co 0.07317 0.90997 0.68919 0.0
O120 O 0.08788 0.95542 0.67348 0.0
C121 C 0.15905 0.98712 0.64878 0.0
O122 O 0.16387 0.96304 0.66427 0.0
C123 C 0.04562 0.97265 0.71755 0.0
O124 O 0.03855 0.99379 0.70097 0.0
O125 O 0.02105 0.91377 0.67775 0.0
O126 O 0.03441 0.92831 0.64394 0.0
H127 H 0.01143 0.78446 0.69658 0.0
H128 H 0.09285 0.02875 0.66675 0.0
O129 O 0.12784 0.98943 0.63917 0.0
H130 H 0.96919 0.04282 0.63286 0.0
H131 H 0.08076 0.02445 0.57153 0.0
H132 H 0.06108 0.90449 0.60859 0.0
H133 H 0.00674 0.98578 0.62712 0.0
H134 H 0.08848 0.02014 0.61039 0.0
O135 O 0.05864 0.93978 0.71506 0.0
H136 H 0.031 0.8415 0.67771 0.0
H137 H 0.08356 0.88228 0.73369 0.0
H138 H 0.05268 0.90762 0.56975 0.0
H139 H 0.05643 0.08651 0.67271 0.0
H140 H 0.06254 0.96796 0.55095 0.0
H141 H 0.99407 0.09375 0.65574 0.0
O142 O 0.11101 0.91228 0.6381 0.0
H143 H 0.19001 0.96028 0.72323 0.0
H144 H 0.12976 0.8485 0.69257 0.0
H145 H 0.19442 0.84408 0.70594 0.0
H146 H 0.22495 0.90023 0.72151 0.0
H147 H 0.12558 0.96359 0.7093 0.0
H148 H 0.06451 0.82554 0.75318 0.0
H149 H 0.02837 0.77598 0.73459 0.0
O150 O 0.08784 0.87747 0.66457 0.0
C151 C 0.01214 0.91599 0.65814 0.0
C152 C 0.02731 0.80569 0.70486 0.0
C153 C 0.05703 0.82883 0.73662 0.0
N154 N 0.05852 0.86518 0.70454 0.0
C155 C 0.03848 0.83812 0.69424 0.0
C156 C 0.06765 0.86095 0.7255 0.0
C157 C 0.03675 0.80103 0.72618 0.0
C158 C 0.06589 0.03187 0.65916 0.0
N159 N 0.052 0.004 0.64657 0.0
C160 C 0.04533 0.06456 0.66266 0.0
C161 C 0.01031 0.06858 0.65316 0.0
C162 C 0.99632 0.04 0.64034 0.0
C163 C 0.01766 0.00769 0.63722 0.0
C164 C 0.07624 0.99803 0.57955 0.0
C165 C 0.06506 0.93091 0.60057 0.0
C166 C 0.0806 0.9954 0.60155 0.0
N167 N 0.07473 0.96218 0.61181 0.0
C168 C 0.06043 0.93249 0.57855 0.0
C169 C 0.06601 0.96633 0.56801 0.0
C170 C 0.10579 0.88079 0.64713 0.0
C171 C 0.177 0.9356 0.71653 0.0
C172 C 0.14294 0.87315 0.69909 0.0
C173 C 0.17952 0.87043 0.70676 0.0
C174 C 0.19661 0.90192 0.71552 0.0
N175 N 0.12387 0.90628 0.70012 0.0
C176 C 0.14045 0.93726 0.7087 0.0
Co177 Co 0.29704 0.83096 0.89264 0.0
Co178 Co 0.34554 0.82317 0.93959 0.0
O179 O 0.30012 0.83757 0.92375 0.0
C180 C 0.26846 0.90872 0.89888 0.0
O181 O 0.29269 0.91373 0.91428 0.0
C182 C 0.2826 0.79582 0.96788 0.0
O183 O 0.26121 0.78946 0.95131 0.0
O184 O 0.3423 0.77103 0.92806 0.0
O185 O 0.32788 0.78437 0.89422 0.0
H186 H 0.4715 0.76243 0.94718 0.0
H187 H 0.22676 0.84206 0.91673 0.0
O188 O 0.2661 0.8774 0.88938 0.0
H189 H 0.21403 0.7183 0.88273 0.0
H190 H 0.23202 0.83032 0.82157 0.0
H191 H 0.35176 0.81128 0.85898 0.0
H192 H 0.27083 0.75628 0.87724 0.0
H193 H 0.23594 0.83793 0.86046 0.0
O194 O 0.31568 0.80827 0.96538 0.0
H195 H 0.41446 0.78169 0.92821 0.0
H196 H 0.37281 0.83349 0.9842 0.0
H197 H 0.34901 0.80301 0.82013 0.0
H198 H 0.16922 0.80521 0.92243 0.0
H199 H 0.28879 0.81255 0.80115 0.0
H200 H 0.16266 0.7428 0.90541 0.0
O201 O 0.34333 0.86113 0.88852 0.0
H202 H 0.29381 0.93958 0.97347 0.0
H203 H 0.40651 0.88019 0.9434 0.0
H204 H 0.41023 0.94486 0.95688 0.0
H205 H 0.35361 0.97495 0.97215 0.0
H206 H 0.29122 0.87516 0.95945 0.0
H207 H 0.42952 0.81468 1.00382 0.0
H208 H 0.47951 0.77904 0.98527 0.0
O209 O 0.37812 0.83827 0.91509 0.0
C210 C 0.34028 0.76215 0.90844 0.0
C211 C 0.45007 0.77806 0.95545 0.0
C212 C 0.42644 0.80732 0.98722 0.0
N213 N 0.39033 0.8088 0.95504 0.0
C214 C 0.41764 0.78907 0.94477 0.0
C215 C 0.39433 0.81781 0.97604 0.0
C216 C 0.45447 0.78733 0.97681 0.0
C217 C 0.22393 0.81508 0.90912 0.0
N218 N 0.25206 0.8014 0.89664 0.0
C219 C 0.19137 0.79428 0.91247 0.0
C220 C 0.18773 0.75923 0.90294 0.0
C221 C 0.21656 0.74545 0.89024 0.0
C222 C 0.24873 0.76703 0.88726 0.0
C223 C 0.25839 0.82594 0.82967 0.0
C224 C 0.32538 0.81512 0.85089 0.0
C225 C 0.2608 0.83024 0.85169 0.0
N226 N 0.29397 0.82455 0.86204 0.0
C227 C 0.32403 0.81057 0.82886 0.0
C228 C 0.29025 0.81597 0.81822 0.0
C229 C 0.37477 0.85624 0.89766 0.0
C230 C 0.31869 0.92675 0.9669 0.0
C231 C 0.38167 0.89318 0.9498 0.0
C232 C 0.38399 0.92976 0.95752 0.0
C233 C 0.35223 0.94661 0.96612 0.0
N234 N 0.34868 0.87387 0.95061 0.0
C235 C 0.31744 0.89021 0.95902 0.0
Co236 Co 0.42508 0.95808 0.37881 0.0
Co237 Co 0.4327 0.91045 0.33149 0.0
O238 O 0.41869 0.95562 0.34767 0.0
C239 C 0.34729 0.98619 0.37278 0.0
O240 O 0.34228 0.96149 0.35761 0.0
C241 C 0.4596 0.97434 0.30357 0.0
O242 O 0.4644 0.996 0.32019 0.0
O243 O 0.48478 0.91266 0.34325 0.0
O244 O 0.47147 0.92706 0.37711 0.0
H245 H 0.4918 0.78383 0.32287 0.0
H246 H 0.41422 0.02903 0.35529 0.0
O247 O 0.37872 0.98907 0.38211 0.0
H248 H 0.53799 0.04044 0.38938 0.0
H249 H 0.42546 0.02189 0.45023 0.0
H250 H 0.44435 0.9027 0.4122 0.0
H251 H 0.49982 0.98362 0.39439 0.0
H252 H 0.41806 0.01864 0.41131 0.0
O253 O 0.44828 0.9408 0.30594 0.0
H254 H 0.47319 0.84062 0.34235 0.0
H255 H 0.42238 0.88457 0.28664 0.0
H256 H 0.45242 0.90476 0.45108 0.0
H257 H 0.45125 0.08661 0.35009 0.0
H258 H 0.44295 0.96471 0.47037 0.0
H259 H 0.51368 0.0925 0.36715 0.0
O260 O 0.39477 0.9118 0.38263 0.0
H261 H 0.31709 0.96463 0.29798 0.0
H262 H 0.37503 0.85027 0.32694 0.0
H263 H 0.31042 0.84772 0.31334 0.0
H264 H 0.28105 0.90518 0.29862 0.0
H265 H 0.38143 0.96603 0.3121 0.0
H266 H 0.44053 0.82816 0.26654 0.0
H267 H 0.47532 0.77715 0.28469 0.0
O268 O 0.41695 0.87741 0.35569 0.0
C269 C 0.49353 0.9144 0.3629 0.0
C270 C 0.47652 0.80572 0.31479 0.0
C271 C 0.44781 0.83067 0.28318 0.0
N272 N 0.44661 0.86588 0.31569 0.0
C273 C 0.46589 0.838 0.32575 0.0
C274 C 0.43771 0.86261 0.29463 0.0
C275 C 0.46733 0.80206 0.29337 0.0
C276 C 0.44121 0.03156 0.36292 0.0
N277 N 0.4548 0.00305 0.37514 0.0
C278 C 0.46212 0.06415 0.35985 0.0
C279 C 0.49716 0.06741 0.3694 0.0
C280 C 0.51084 0.03819 0.38185 0.0
C281 C 0.48917 0.00602 0.38455 0.0
C282 C 0.42981 0.99564 0.442 0.0
C283 C 0.44056 0.92895 0.42043 0.0
C284 C 0.42563 0.99361 0.41996 0.0
N285 N 0.43128 0.96059 0.40943 0.0
C286 C 0.44499 0.92992 0.44248 0.0
C287 C 0.43963 0.96355 0.45329 0.0
C288 C 0.39928 0.88053 0.37324 0.0
C289 C 0.3296 0.93938 0.30429 0.0
C290 C 0.36238 0.87546 0.32077 0.0
C291 C 0.32581 0.87381 0.31298 0.0
C292 C 0.30937 0.90604 0.3047 0.0
N293 N 0.38207 0.90825 0.32031 0.0
C294 C 0.36611 0.93996 0.31222 0.0
Co295 Co 0.29614 0.1747 0.62902 0.0
Co296 Co 0.34443 0.18213 0.58198 0.0
O297 O 0.29906 0.168 0.59791 0.0
C298 C 0.26792 0.09685 0.62298 0.0
O299 O 0.29252 0.09178 0.60778 0.0
C300 C 0.28131 0.20927 0.55369 0.0
O301 O 0.25972 0.21515 0.57023 0.0
O302 O 0.34152 0.23432 0.59348 0.0
O303 O 0.32704 0.22122 0.62734 0.0
H304 H 0.4706 0.2422 0.57409 0.0
H305 H 0.22569 0.16357 0.60508 0.0
O306 O 0.26519 0.12828 0.63233 0.0
H307 H 0.21334 0.28754 0.63889 0.0
H308 H 0.23143 0.17563 0.70015 0.0
H309 H 0.35101 0.19449 0.66259 0.0
H310 H 0.27013 0.24949 0.64434 0.0
H311 H 0.2352 0.16784 0.66128 0.0
O312 O 0.31451 0.19716 0.55622 0.0
H313 H 0.4136 0.2233 0.59319 0.0
H314 H 0.37136 0.17151 0.53733 0.0
H315 H 0.34842 0.20294 0.70144 0.0
H316 H 0.16815 0.20049 0.59943 0.0
H317 H 0.28828 0.19349 0.72049 0.0
H318 H 0.16179 0.26301 0.61635 0.0
O319 O 0.34242 0.14447 0.63314 0.0
H320 H 0.29184 0.06583 0.54841 0.0
H321 H 0.4051 0.12478 0.57808 0.0
H322 H 0.40838 0.06003 0.5647 0.0
H323 H 0.35148 0.03015 0.54963 0.0
H324 H 0.2897 0.13033 0.56232 0.0
H325 H 0.42803 0.18996 0.51759 0.0
H326 H 0.4783 0.22541 0.53601 0.0
O327 O 0.3771 0.16693 0.60643 0.0
C328 C 0.33952 0.2433 0.61309 0.0
C329 C 0.44905 0.22664 0.56588 0.0
C330 C 0.42508 0.19739 0.53418 0.0
N331 N 0.38919 0.19621 0.56643 0.0
C332 C 0.41665 0.21584 0.57663 0.0
C333 C 0.393 0.18711 0.54544 0.0
C334 C 0.45328 0.21727 0.54452 0.0
C335 C 0.22294 0.1906 0.61265 0.0
N336 N 0.25117 0.20431 0.62505 0.0
C337 C 0.19038 0.21144 0.60932 0.0
C338 C 0.18686 0.24654 0.61879 0.0
C339 C 0.21579 0.26034 0.63142 0.0
C340 C 0.24795 0.23873 0.63438 0.0
C341 C 0.25776 0.17996 0.69202 0.0
C342 C 0.32467 0.19068 0.67072 0.0
C343 C 0.26009 0.17556 0.67001 0.0
N344 N 0.29321 0.1812 0.65961 0.0
C345 C 0.32341 0.19534 0.69274 0.0
C346 C 0.28967 0.18999 0.70343 0.0
C347 C 0.37381 0.14915 0.62393 0.0
C348 C 0.31685 0.07856 0.55489 0.0
C349 C 0.38015 0.1119 0.57177 0.0
C350 C 0.38221 0.07526 0.5641 0.0
C351 C 0.3503 0.05854 0.55562 0.0
N352 N 0.34724 0.13138 0.571 0.0
C353 C 0.31584 0.11516 0.5627 0.0
Co354 Co 0.08138 0.04641 0.87894 0.0
Co355 Co 0.07353 0.09403 0.83166 0.0
O356 O 0.08771 0.04884 0.84779 0.0
C357 C 0.15907 0.01779 0.87276 0.0
O358 O 0.16402 0.04198 0.85734 0.0
C359 C 0.04605 0.03043 0.8038 0.0
O360 O 0.04088 0.0089 0.82044 0.0
O361 O 0.02151 0.09158 0.84339 0.0
O362 O 0.03489 0.07732 0.87726 0.0
H363 H 0.014 0.22048 0.82327 0.0
H364 H 0.0922 0.97552 0.85534 0.0
O365 O 0.12777 0.01543 0.88227 0.0
H366 H 0.96863 0.96387 0.88959 0.0
H367 H 0.08115 0.98278 0.9504 0.0
H368 H 0.06209 0.10185 0.91231 0.0
H369 H 0.00675 0.02073 0.89461 0.0
H370 H 0.08849 0.98592 0.91148 0.0
O371 O 0.05795 0.06376 0.80614 0.0
H372 H 0.03286 0.16368 0.84264 0.0
H373 H 0.08361 0.12008 0.78682 0.0
H374 H 0.05409 0.09989 0.95119 0.0
H375 H 0.05521 0.9179 0.85013 0.0
H376 H 0.06364 0.04 0.97051 0.0
H377 H 0.99289 0.91189 0.86727 0.0
O378 O 0.11166 0.09272 0.88274 0.0
H379 H 0.18907 0.04019 0.79792 0.0
H380 H 0.13107 0.15435 0.82711 0.0
H381 H 0.19562 0.15706 0.81344 0.0
H382 H 0.22502 0.09969 0.79861 0.0
H383 H 0.12479 0.03864 0.81213 0.0
H384 H 0.06519 0.1765 0.76682 0.0
H385 H 0.0303 0.22733 0.78508 0.0
O386 O 0.08923 0.12704 0.85585 0.0
C387 C 0.01272 0.08975 0.86303 0.0
C388 C 0.02932 0.19866 0.81513 0.0
C389 C 0.05799 0.17391 0.78346 0.0
N390 N 0.05944 0.1386 0.81592 0.0
C391 C 0.0401 0.16638 0.82604 0.0
C392 C 0.06825 0.14197 0.79486 0.0
C393 C 0.03841 0.20242 0.79371 0.0
C394 C 0.06526 0.97293 0.86301 0.0
N395 N 0.0517 1.0014 0.87529 0.0
C396 C 0.04437 0.94032 0.85993 0.0
C397 C 0.00938 0.93699 0.86952 0.0
C398 C 0.99573 0.96616 0.88203 0.0
C399 C 0.01739 0.99836 0.88474 0.0
C400 C 0.07677 0.009 0.94215 0.0
C401 C 0.06593 0.07562 0.92055 0.0
C402 C 0.08092 0.01097 0.92011 0.0
N403 N 0.07522 0.04395 0.90957 0.0
C404 C 0.06153 0.07471 0.9426 0.0
C405 C 0.06694 0.04112 0.95343 0.0
C406 C 0.10704 0.12397 0.87335 0.0
C407 C 0.17655 0.06539 0.8043 0.0
C408 C 0.14375 0.1292 0.82091 0.0
C409 C 0.18027 0.13094 0.81307 0.0
C410 C 0.19672 0.09877 0.80472 0.0
N411 N 0.12411 0.09637 0.82044 0.0
C412 C 0.14007 0.06473 0.81227 0.0
Co413 Co 0.20813 0.834 0.12917 0.0
Co414 Co 0.16111 0.82565 0.08174 0.0
O415 O 0.20625 0.83962 0.09796 0.0
C416 C 0.23721 0.91123 0.12267 0.0
O417 O 0.21267 0.91618 0.10743 0.0
C418 C 0.22483 0.79751 0.05413 0.0
O419 O 0.24649 0.79307 0.07078 0.0
O420 O 0.16284 0.77387 0.09384 0.0
O421 O 0.17647 0.78803 0.12771 0.0
H422 H 0.03386 0.76793 0.07344 0.0
H423 H 0.27953 0.84316 0.10589 0.0
O424 O 0.2397 0.87999 0.13222 0.0
H425 H 0.28866 0.72014 0.14106 0.0
H426 H 0.27078 0.83465 0.20091 0.0
H427 H 0.15207 0.81593 0.16241 0.0
H428 H 0.23236 0.7593 0.1455 0.0
H429 H 0.26821 0.84124 0.16193 0.0
O430 O 0.19141 0.8092 0.05639 0.0
H431 H 0.09082 0.78625 0.0928 0.0
H432 H 0.13558 0.83499 0.03672 0.0
H433 H 0.15346 0.80869 0.20135 0.0
H434 H 0.33661 0.80512 0.10125 0.0
H435 H 0.21316 0.81807 0.22088 0.0
H436 H 0.34135 0.74306 0.11886 0.0
O437 O 0.16227 0.86511 0.13253 0.0
H438 H 0.21651 0.94009 0.04761 0.0
H439 H 0.10146 0.88375 0.07664 0.0
H440 H 0.09958 0.94812 0.06262 0.0
H441 H 0.15738 0.97668 0.04787 0.0
H442 H 0.21724 0.87601 0.06214 0.0
H443 H 0.07909 0.81687 0.0167 0.0
H444 H 0.0276 0.7832 0.03509 0.0
O445 O 0.12811 0.84222 0.1057 0.0
C446 C 0.16401 0.76568 0.11358 0.0
C447 C 0.05601 0.78261 0.06523 0.0
C448 C 0.08144 0.81004 0.0334 0.0
N449 N 0.11652 0.81177 0.06595 0.0
C450 C 0.08837 0.79311 0.07613 0.0
C451 C 0.11343 0.82012 0.04482 0.0
C452 C 0.05256 0.79117 0.04372 0.0
C453 C 0.28157 0.81634 0.11375 0.0
N454 N 0.2527 0.80351 0.12596 0.0
C455 C 0.31387 0.79486 0.111 0.0
C456 C 0.31649 0.76002 0.12086 0.0
C457 C 0.28692 0.74712 0.1333 0.0
C458 C 0.25504 0.76936 0.13568 0.0
C459 C 0.24463 0.83036 0.19258 0.0
C460 C 0.17821 0.81974 0.17075 0.0
C461 C 0.24298 0.83411 0.1705 0.0
N462 N 0.21009 0.82853 0.15985 0.0
C463 C 0.1788 0.81575 0.19282 0.0
C464 C 0.21229 0.82106 0.20377 0.0
C465 C 0.13112 0.86054 0.12304 0.0
C466 C 0.19111 0.92793 0.05393 0.0
C467 C 0.12679 0.89605 0.07044 0.0
C468 C 0.12552 0.93248 0.06242 0.0
C469 C 0.15795 0.94846 0.05412 0.0
N470 N 0.15942 0.87605 0.0702 0.0
C471 C 0.19131 0.89156 0.06209 0.0
Co472 Co 0.58134 0.95964 0.87921 0.0
Co473 Co 0.57399 0.91078 0.83234 0.0
O474 O 0.58826 0.95627 0.84814 0.0
C475 C 0.65929 0.98741 0.87317 0.0
O476 O 0.66427 0.96264 0.85804 0.0
C477 C 0.54667 0.97359 0.80395 0.0
O478 O 0.54 0.99489 0.82052 0.0
O479 O 0.52175 0.91414 0.84367 0.0
O480 O 0.53469 0.92897 0.87752 0.0
H481 H 0.51325 0.78484 0.82462 0.0
H482 H 0.59302 0.02969 0.85497 0.0
O483 O 0.62788 0.99037 0.8825 0.0
H484 H 0.46895 0.04324 0.88842 0.0
H485 H 0.58027 0.02538 0.95006 0.0
H486 H 0.56103 0.90534 0.91295 0.0
H487 H 0.50663 0.98631 0.89422 0.0
H488 H 0.58831 0.02102 0.91122 0.0
O489 O 0.55935 0.94058 0.80645 0.0
H490 H 0.53228 0.84195 0.84362 0.0
H491 H 0.58484 0.88335 0.78783 0.0
H492 H 0.55233 0.90852 0.95177 0.0
H493 H 0.55647 0.08736 0.84897 0.0
H494 H 0.56197 0.9689 0.97059 0.0
H495 H 0.4939 0.09433 0.86571 0.0
O496 O 0.61126 0.91323 0.88359 0.0
H497 H 0.69075 0.96213 0.79877 0.0
H498 H 0.63103 0.84974 0.82899 0.0
H499 H 0.69585 0.84586 0.81581 0.0
H500 H 0.72611 0.90232 0.80046 0.0
H501 H 0.62617 0.96489 0.81249 0.0
H502 H 0.56633 0.82654 0.7682 0.0
H503 H 0.53047 0.77664 0.78663 0.0
O504 O 0.58878 0.87829 0.85697 0.0
C505 C 0.51266 0.91639 0.86325 0.0
C506 C 0.52902 0.80622 0.81641 0.0
C507 C 0.55874 0.8297 0.78475 0.0
N508 N 0.55977 0.86594 0.81689 0.0
C509 C 0.53989 0.83868 0.8271 0.0
C510 C 0.56906 0.86186 0.79594 0.0
C511 C 0.53862 0.80171 0.7951 0.0
C512 C 0.56597 0.03271 0.86247 0.0
N513 N 0.55203 0.00473 0.87496 0.0
C514 C 0.54534 0.06534 0.85894 0.0
C515 C 0.51021 0.0692 0.86831 0.0
C516 C 0.49617 0.04053 0.88104 0.0
C517 C 0.51758 0.00829 0.88419 0.0
C518 C 0.57585 0.99895 0.94203 0.0
C519 C 0.56492 0.93178 0.92098 0.0
C520 C 0.58039 0.99629 0.92004 0.0
N521 N 0.57464 0.96304 0.90976 0.0
C522 C 0.56012 0.93338 0.94299 0.0
C523 C 0.56558 0.96725 0.95354 0.0
C524 C 0.60642 0.88172 0.87451 0.0
C525 C 0.67785 0.93732 0.80537 0.0
C526 C 0.64408 0.87451 0.82255 0.0
C527 C 0.68075 0.8721 0.815 0.0
C528 C 0.69769 0.90377 0.80636 0.0
N529 N 0.62478 0.90751 0.82153 0.0
C530 C 0.64122 0.93866 0.81308 0.0
Co531 Co 0.79612 0.83085 0.62936 0.0
Co532 Co 0.84393 0.82285 0.58215 0.0
O533 O 0.79878 0.83721 0.59823 0.0
C534 C 0.76796 0.90864 0.62301 0.0
O535 O 0.79229 0.91337 0.60764 0.0
C536 C 0.78065 0.79422 0.55464 0.0
O537 O 0.75994 0.78781 0.57147 0.0
O538 O 0.84126 0.77087 0.59388 0.0
O539 O 0.82679 0.78418 0.62773 0.0
H540 H 0.97016 0.76294 0.57394 0.0
H541 H 0.72552 0.84203 0.60555 0.0
O542 O 0.76539 0.87742 0.63259 0.0
H543 H 0.71292 0.71851 0.63978 0.0
H544 H 0.73202 0.831 0.70066 0.0
H545 H 0.85119 0.81118 0.66283 0.0
H546 H 0.76991 0.75635 0.64497 0.0
H547 H 0.73548 0.83833 0.66175 0.0
O548 O 0.81357 0.80732 0.55669 0.0
H549 H 0.91341 0.78208 0.59324 0.0
H550 H 0.87003 0.83255 0.53729 0.0
H551 H 0.84891 0.8032 0.70171 0.0
H552 H 0.6678 0.80531 0.60015 0.0
H553 H 0.78897 0.81312 0.7209 0.0
H554 H 0.6613 0.74302 0.61729 0.0
O555 O 0.84254 0.8609 0.63326 0.0
H556 H 0.79061 0.93837 0.54813 0.0
H557 H 0.90441 0.88024 0.57766 0.0
H558 H 0.90735 0.94474 0.56389 0.0
H559 H 0.85017 0.9742 0.5489 0.0
H560 H 0.78882 0.87413 0.56243 0.0
H561 H 0.92641 0.81381 0.51735 0.0
H562 H 0.97711 0.77889 0.53571 0.0
O563 O 0.87692 0.83853 0.60637 0.0
C564 C 0.8392 0.762 0.61349 0.0
C565 C 0.94841 0.77825 0.56576 0.0
C566 C 0.92378 0.80674 0.53401 0.0
N567 N 0.88846 0.80855 0.56645 0.0
C568 C 0.91616 0.78921 0.57662 0.0
C569 C 0.89187 0.81719 0.54538 0.0
C570 C 0.95222 0.78716 0.54432 0.0
C571 C 0.72272 0.8151 0.61321 0.0
N572 N 0.75099 0.80141 0.62559 0.0
C573 C 0.69005 0.79437 0.61003 0.0
C574 C 0.68645 0.75939 0.61962 0.0
C575 C 0.71542 0.7456 0.63222 0.0
C576 C 0.74769 0.76711 0.63503 0.0
C577 C 0.75826 0.82645 0.69247 0.0
C578 C 0.82494 0.8152 0.67102 0.0
C579 C 0.76041 0.83059 0.67044 0.0
N580 N 0.79342 0.82469 0.65997 0.0
C581 C 0.82385 0.8108 0.69306 0.0
C582 C 0.79023 0.81642 0.70382 0.0
C583 C 0.87381 0.85628 0.6239 0.0
C584 C 0.81573 0.92583 0.55459 0.0
C585 C 0.87934 0.89295 0.57139 0.0
C586 C 0.88121 0.92944 0.5635 0.0
C587 C 0.84914 0.94593 0.55506 0.0
N588 N 0.84647 0.8734 0.57089 0.0
C589 C 0.81493 0.88939 0.56262 0.0
Co590 Co 0.9248 0.04206 0.38333 0.0
Co591 Co 0.93169 0.0829 0.33408 0.0
O592 O 0.91827 0.04058 0.35239 0.0
C593 C 0.8469 0.0152 0.37805 0.0
O594 O 0.84258 0.03984 0.36279 0.0
C595 C 0.97651 0.04483 0.30009 0.0
O596 O 0.00493 0.06656 0.30492 0.0
O597 O 0.98376 0.0831 0.34595 0.0
O598 O 0.97137 0.07235 0.38037 0.0
H599 H 0.99003 0.20775 0.31806 0.0
H600 H 0.91413 0.969 0.36192 0.0
O601 O 0.87814 0.01191 0.38755 0.0
H602 H 0.03681 0.96017 0.39751 0.0
H603 H 0.92404 0.98732 0.45708 0.0
H604 H 0.94473 0.10121 0.41445 0.0
H605 H 0.99883 0.01761 0.40041 0.0
H606 H 0.91681 0.98584 0.41811 0.0
O607 O 0.94646 0.04632 0.31106 0.0
H608 H 0.97221 0.15429 0.34069 0.0
H609 H 0.92015 0.10102 0.28806 0.0
H610 H 0.95265 0.10387 0.45333 0.0
H611 H 0.95105 0.91086 0.35875 0.0
H612 H 0.94228 0.04661 0.47494 0.0
H613 H 0.01289 0.90623 0.37661 0.0
O614 O 0.89507 0.08896 0.38516 0.0
H615 H 0.81647 0.02267 0.3035 0.0
H616 H 0.87343 0.14157 0.32665 0.0
H617 H 0.80875 0.14144 0.31306 0.0
H618 H 0.77988 0.08168 0.30126 0.0
H619 H 0.88085 0.02399 0.31757 0.0
H620 H 0.93756 0.15383 0.26484 0.0
H621 H 0.97271 0.20773 0.27984 0.0
O622 O 0.91581 0.12002 0.35647 0.0
C623 C 0.99299 0.0835 0.36555 0.0
C624 C 0.97471 0.18443 0.31134 0.0
C625 C 0.94528 0.15416 0.28148 0.0
N626 N 0.94517 0.12454 0.31573 0.0
C627 C 0.96453 0.15407 0.32408 0.0
C628 C 0.93555 0.12431 0.2947 0.0
C629 C 0.96499 0.18439 0.2899 0.0
C630 C 0.9409 0.96706 0.36985 0.0
N631 N 0.9542 0.99654 0.38143 0.0
C632 C 0.96173 0.93413 0.36795 0.0
C633 C 0.99644 0.93157 0.37795 0.0
C634 C 0.00989 0.96183 0.38967 0.0
C635 C 0.9883 0.99432 0.39122 0.0
C636 C 0.92879 0.01242 0.44784 0.0
C637 C 0.94056 0.0761 0.4237 0.0
C638 C 0.9247 0.01177 0.42577 0.0
N639 N 0.93088 0.0433 0.41397 0.0
C640 C 0.9449 0.07781 0.44573 0.0
C641 C 0.93903 0.04569 0.45785 0.0
C642 C 0.89883 0.11894 0.37438 0.0
C643 C 0.82876 0.04891 0.30855 0.0
C644 C 0.86097 0.11541 0.32179 0.0
C645 C 0.82438 0.11553 0.31398 0.0
C646 C 0.80822 0.08201 0.30733 0.0
N647 N 0.88097 0.08284 0.32293 0.0
C648 C 0.86529 0.04987 0.31643 0.0
Co649 Co 0.70796 0.17721 0.12749 0.0
Co650 Co 0.65909 0.1847 0.08066 0.0
O651 O 0.70452 0.17057 0.09644 0.0
C652 C 0.73478 0.09933 0.12094 0.0
O653 O 0.70921 0.09487 0.1062 0.0
C654 C 0.72186 0.21286 0.05271 0.0
O655 O 0.74256 0.22 0.06946 0.0
O656 O 0.66208 0.23687 0.09217 0.0
O657 O 0.67737 0.22396 0.12597 0.0
H658 H 0.53301 0.24465 0.07288 0.0
H659 H 0.77793 0.16554 0.10315 0.0
O660 O 0.7385 0.13052 0.13044 0.0
H661 H 0.79178 0.28936 0.13694 0.0
H662 H 0.77401 0.17713 0.19823 0.0
H663 H 0.65396 0.19761 0.16138 0.0
H664 H 0.73481 0.25174 0.14268 0.0
H665 H 0.7694 0.16951 0.15937 0.0
O666 O 0.68901 0.19967 0.05493 0.0
H667 H 0.59003 0.2259 0.0919 0.0
H668 H 0.63212 0.17404 0.03604 0.0
H669 H 0.65739 0.20591 0.20022 0.0
H670 H 0.83562 0.20201 0.0972 0.0
H671 H 0.71776 0.19565 0.21891 0.0
H672 H 0.84275 0.26446 0.11411 0.0
O673 O 0.66154 0.1474 0.13188 0.0
H674 H 0.71123 0.06853 0.04668 0.0
H675 H 0.59848 0.12726 0.07713 0.0
H676 H 0.59504 0.06253 0.06372 0.0
H677 H 0.65168 0.03277 0.04827 0.0
H678 H 0.71355 0.13301 0.06063 0.0
H679 H 0.57529 0.19228 0.01636 0.0
H680 H 0.52503 0.22765 0.03482 0.0
O681 O 0.62656 0.16954 0.10519 0.0
C682 C 0.66454 0.24593 0.11175 0.0
C683 C 0.55447 0.2291 0.06464 0.0
C684 C 0.5783 0.19977 0.03294 0.0
N685 N 0.61434 0.19876 0.06515 0.0
C686 C 0.58691 0.21838 0.07536 0.0
C687 C 0.61047 0.1896 0.04416 0.0
C688 C 0.55012 0.21962 0.0433 0.0
C689 C 0.78101 0.19253 0.11072 0.0
N690 N 0.7531 0.20644 0.12328 0.0
C691 C 0.81366 0.21312 0.10723 0.0
C692 C 0.81761 0.24819 0.11669 0.0
C693 C 0.789 0.26219 0.12948 0.0
C694 C 0.75674 0.24082 0.1326 0.0
C695 C 0.74757 0.18183 0.19026 0.0
C696 C 0.6804 0.19345 0.16936 0.0
C697 C 0.74478 0.17751 0.16825 0.0
N698 N 0.71154 0.1836 0.15806 0.0
C699 C 0.68214 0.19803 0.19138 0.0
C700 C 0.71601 0.19222 0.20186 0.0
C701 C 0.63004 0.15206 0.12278 0.0
C702 C 0.68634 0.08122 0.05333 0.0
C703 C 0.62333 0.11443 0.07064 0.0
C704 C 0.62117 0.0778 0.06296 0.0
C705 C 0.65294 0.06114 0.05426 0.0
N706 N 0.65619 0.13396 0.06968 0.0
C707 C 0.68744 0.1178 0.06116 0.0
Co708 Co 0.58051 0.04577 0.64234 0.0
Co709 Co 0.57305 0.09437 0.68931 0.0
O710 O 0.58737 0.04897 0.67342 0.0
C711 C 0.65848 0.01803 0.6484 0.0
O712 O 0.66341 0.04274 0.66356 0.0
C713 C 0.54626 0.0312 0.71762 0.0
O714 O 0.54024 0.00971 0.70105 0.0
O715 O 0.52084 0.09113 0.67791 0.0
O716 O 0.53381 0.07639 0.64405 0.0
H717 H 0.51233 0.22031 0.69725 0.0
H718 H 0.59228 0.97554 0.66641 0.0
O719 O 0.62709 0.0151 0.63904 0.0
H720 H 0.46823 0.96212 0.63289 0.0
H721 H 0.57961 0.9804 0.57138 0.0
H722 H 0.56024 0.10024 0.60867 0.0
H723 H 0.50582 0.01914 0.62725 0.0
H724 H 0.58757 0.98456 0.61023 0.0
O725 O 0.55834 0.06443 0.71513 0.0
H726 H 0.53138 0.16331 0.67814 0.0
H727 H 0.58382 0.1215 0.73389 0.0
H728 H 0.55161 0.09726 0.56985 0.0
H729 H 0.55582 0.91777 0.67224 0.0
H730 H 0.56131 0.03699 0.55093 0.0
H731 H 0.49327 0.91087 0.65547 0.0
O732 O 0.61036 0.09223 0.63806 0.0
H733 H 0.68977 0.04272 0.72285 0.0
H734 H 0.63008 0.15537 0.69287 0.0
H735 H 0.69486 0.15913 0.70613 0.0
H736 H 0.72511 0.10255 0.72135 0.0
H737 H 0.62523 0.04009 0.70905 0.0
H738 H 0.5653 0.17819 0.75362 0.0
H739 H 0.5295 0.22824 0.73527 0.0
O740 O 0.5879 0.127 0.66476 0.0
C741 C 0.51177 0.08893 0.65832 0.0
C742 C 0.52808 0.19887 0.70542 0.0
C743 C 0.55774 0.17515 0.73705 0.0
N744 N 0.55881 0.13912 0.70483 0.0
C745 C 0.53896 0.16646 0.69467 0.0
C746 C 0.56806 0.14305 0.7258 0.0
C747 C 0.53764 0.20322 0.72675 0.0
C748 C 0.56523 0.97256 0.6589 0.0
N749 N 0.55125 1.00062 0.64648 0.0
C750 C 0.54465 0.93987 0.66233 0.0
C751 C 0.50953 0.93604 0.65294 0.0
C752 C 0.49544 0.9648 0.64029 0.0
C753 C 0.5168 0.9971 0.63723 0.0
C754 C 0.57515 0.00679 0.57945 0.0
C755 C 0.56415 0.07384 0.6006 0.0
C756 C 0.57965 0.00933 0.60145 0.0
N757 N 0.57386 0.04252 0.61178 0.0
C758 C 0.55939 0.07236 0.57859 0.0
C759 C 0.56489 0.03855 0.56799 0.0
C760 C 0.60551 0.12368 0.64721 0.0
C761 C 0.67688 0.0676 0.7163 0.0
C762 C 0.64312 0.13054 0.69926 0.0
C763 C 0.67978 0.13289 0.70686 0.0
C764 C 0.69671 0.10115 0.71542 0.0
N765 N 0.62383 0.09754 0.70018 0.0
C766 C 0.64026 0.06631 0.70856 0.0
Co767 Co 0.70827 0.82864 0.39417 0.0
Co768 Co 0.65865 0.82064 0.44068 0.0
O769 O 0.70432 0.83513 0.42522 0.0
C770 C 0.73571 0.90633 0.4011 0.0
O771 O 0.71055 0.91082 0.41606 0.0
C772 C 0.72093 0.79235 0.4689 0.0
O773 O 0.74162 0.78481 0.45221 0.0
O774 O 0.66228 0.76855 0.42914 0.0
O775 O 0.67769 0.78189 0.39543 0.0
H776 H 0.5329 0.75954 0.44757 0.0
H777 H 0.7778 0.84006 0.41896 0.0
O778 O 0.73891 0.87528 0.39141 0.0
H779 H 0.79228 0.71655 0.38489 0.0
H780 H 0.77534 0.82893 0.32376 0.0
H781 H 0.65472 0.80863 0.35997 0.0
H782 H 0.7354 0.75422 0.37893 0.0
H783 H 0.77021 0.83634 0.36261 0.0
O784 O 0.68821 0.80582 0.46657 0.0
H785 H 0.59014 0.77892 0.42892 0.0
H786 H 0.63068 0.83094 0.4851 0.0
H787 H 0.65868 0.80055 0.32114 0.0
H788 H 0.8354 0.80352 0.42515 0.0
H789 H 0.71935 0.81072 0.30276 0.0
H790 H 0.84284 0.74123 0.40809 0.0
O791 O 0.66192 0.85853 0.38964 0.0
H792 H 0.70914 0.93699 0.47524 0.0
H793 H 0.59754 0.87763 0.44383 0.0
H794 H 0.59331 0.94227 0.45731 0.0
H795 H 0.64937 0.97235 0.47325 0.0
H796 H 0.71227 0.87261 0.46119 0.0
H797 H 0.57363 0.81217 0.50439 0.0
H798 H 0.52407 0.77642 0.48558 0.0
O799 O 0.6265 0.83567 0.41594 0.0
C800 C 0.66494 0.75968 0.40954 0.0
C801 C 0.55407 0.7753 0.45594 0.0
C802 C 0.57704 0.80475 0.48782 0.0
N803 N 0.61368 0.80618 0.45586 0.0
C804 C 0.58663 0.78635 0.44544 0.0
C805 C 0.60932 0.81523 0.47683 0.0
C806 C 0.54924 0.78468 0.47726 0.0
C807 C 0.78102 0.81314 0.41133 0.0
N808 N 0.75334 0.79935 0.39857 0.0
C809 C 0.81361 0.79251 0.41496 0.0
C810 C 0.81774 0.75753 0.40542 0.0
C811 C 0.78936 0.74365 0.39242 0.0
C812 C 0.75715 0.76505 0.38917 0.0
C813 C 0.74879 0.82427 0.33159 0.0
C814 C 0.68129 0.81274 0.35214 0.0
C815 C 0.74569 0.82846 0.35359 0.0
N816 N 0.71228 0.82242 0.36361 0.0
C817 C 0.68333 0.80829 0.33012 0.0
C818 C 0.71736 0.81405 0.31982 0.0
C819 C 0.63026 0.85356 0.3985 0.0
C820 C 0.6845 0.92417 0.46837 0.0
C821 C 0.62215 0.89061 0.45052 0.0
C822 C 0.61954 0.92718 0.45825 0.0
C823 C 0.65098 0.94401 0.46721 0.0
N824 N 0.65513 0.87132 0.45169 0.0
C825 C 0.68606 0.88764 0.46048 0.0
Co826 Co 0.92326 0.96294 0.13775 0.0
Co827 Co 0.93171 0.92238 0.187 0.0
O828 O 0.91722 0.96442 0.16872 0.0
C829 C 0.84518 0.98932 0.14351 0.0
O830 O 0.84136 0.9651 0.15902 0.0
C831 C 0.97643 0.9613 0.22071 0.0
O832 O 0.00512 0.94005 0.21573 0.0
O833 O 0.98358 0.92308 0.17487 0.0
O834 O 0.97035 0.93343 0.14052 0.0
H835 H 0.99261 0.79871 0.20297 0.0
H836 H 0.91184 0.03589 0.15917 0.0
O837 O 0.87613 0.99242 0.1337 0.0
H838 H 0.03373 0.04649 0.12292 0.0
H839 H 0.92061 0.01741 0.06394 0.0
H840 H 0.94341 0.90394 0.10659 0.0
H841 H 0.9966 0.98847 0.12025 0.0
H842 H 0.91398 0.01894 0.10294 0.0
O843 O 0.9462 0.95928 0.20992 0.0
H844 H 0.97352 0.85171 0.18032 0.0
H845 H 0.92108 0.90426 0.23305 0.0
H846 H 0.95074 0.90123 0.06767 0.0
H847 H 0.9479 0.09459 0.1621 0.0
H848 H 0.93932 0.95829 0.04606 0.0
H849 H 0.00934 0.10011 0.1439 0.0
O850 O 0.89425 0.91553 0.13613 0.0
H851 H 0.81599 0.98053 0.21826 0.0
H852 H 0.87458 0.86272 0.19461 0.0
H853 H 0.81015 0.8617 0.20853 0.0
H854 H 0.78047 0.9209 0.22059 0.0
H855 H 0.88013 0.98037 0.20384 0.0
H856 H 0.93969 0.85187 0.25628 0.0
H857 H 0.97565 0.79857 0.24125 0.0
O858 O 0.91622 0.88492 0.1647 0.0
C859 C 0.99246 0.92275 0.15522 0.0
C860 C 0.97691 0.82176 0.2097 0.0
C861 C 0.94724 0.85161 0.23962 0.0
N862 N 0.94621 0.88107 0.20533 0.0
C863 C 0.96603 0.85186 0.19695 0.0
C864 C 0.93682 0.88122 0.2264 0.0
C865 C 0.96741 0.8217 0.23118 0.0
C866 C 0.93843 0.03821 0.15109 0.0
N867 N 0.95198 0.00891 0.13945 0.0
C868 C 0.95878 0.07146 0.15286 0.0
C869 C 0.99327 0.07452 0.14266 0.0
C870 C 0.00698 0.04444 0.13089 0.0
C871 C 0.98587 0.01163 0.12949 0.0
C872 C 0.92583 0.99241 0.07319 0.0
C873 C 0.93878 0.92896 0.09734 0.0
C874 C 0.92208 0.99308 0.09528 0.0
N875 N 0.92886 0.96167 0.10708 0.0
C876 C 0.94279 0.92722 0.07528 0.0
C877 C 0.93632 0.95923 0.06317 0.0
C878 C 0.89893 0.88562 0.14688 0.0
C879 C 0.82864 0.95453 0.2131 0.0
C880 C 0.86176 0.88865 0.19957 0.0
C881 C 0.82531 0.88787 0.20758 0.0
C882 C 0.8087 0.92108 0.21437 0.0
N883 N 0.88117 0.92156 0.19838 0.0
C884 C 0.86504 0.95423 0.20502 0.0
Co885 Co 0.79681 0.17461 0.89234 0.0
Co886 Co 0.84494 0.18241 0.93944 0.0
O887 O 0.79972 0.16805 0.92344 0.0
C888 C 0.76877 0.09676 0.8986 0.0
O889 O 0.79317 0.09198 0.91394 0.0
C890 C 0.78193 0.21114 0.96706 0.0
O891 O 0.76144 0.21822 0.95022 0.0
O892 O 0.84202 0.23448 0.92785 0.0
O893 O 0.82743 0.2213 0.89401 0.0
H894 H 0.97104 0.24267 0.94763 0.0
H895 H 0.72645 0.16321 0.91631 0.0
O896 O 0.76613 0.12802 0.88907 0.0
H897 H 0.71335 0.28691 0.88233 0.0
H898 H 0.73217 0.17486 0.82117 0.0
H899 H 0.85159 0.19458 0.85879 0.0
H900 H 0.77034 0.24916 0.87692 0.0
H901 H 0.73594 0.16727 0.86006 0.0
O902 O 0.81468 0.19762 0.965 0.0
H903 H 0.91423 0.22352 0.92836 0.0
H904 H 0.87137 0.17237 0.98421 0.0
H905 H 0.84901 0.20284 0.81993 0.0
H906 H 0.66872 0.19984 0.92193 0.0
H907 H 0.78894 0.19295 0.80085 0.0
H908 H 0.66197 0.26222 0.90492 0.0
O909 O 0.84326 0.14465 0.88828 0.0
H910 H 0.79239 0.06648 0.97336 0.0
H911 H 0.90564 0.12515 0.94355 0.0
H912 H 0.90894 0.06055 0.95714 0.0
H913 H 0.85205 0.03081 0.97228 0.0
H914 H 0.79022 0.13083 0.95924 0.0
H915 H 0.9278 0.19107 1.00412 0.0
H916 H 0.97827 0.22632 0.98579 0.0
O917 O 0.87781 0.16706 0.91511 0.0
C918 C 0.83989 0.24342 0.90826 0.0
C919 C 0.94939 0.22719 0.95579 0.0
C920 C 0.92505 0.1983 0.98749 0.0
N921 N 0.88953 0.19672 0.9551 0.0
C922 C 0.91711 0.21625 0.94494 0.0
C923 C 0.8931 0.18787 0.97614 0.0
C924 C 0.95336 0.21807 0.9772 0.0
C925 C 0.72354 0.19018 0.9087 0.0
N926 N 0.75166 0.20397 0.89627 0.0
C927 C 0.69087 0.21086 0.91201 0.0
C928 C 0.68713 0.24588 0.90249 0.0
C929 C 0.71596 0.25977 0.88983 0.0
C930 C 0.74823 0.23833 0.8869 0.0
C931 C 0.75847 0.17939 0.82931 0.0
C932 C 0.82529 0.19059 0.85065 0.0
C933 C 0.76079 0.17509 0.85133 0.0
N934 N 0.79387 0.18097 0.86175 0.0
C935 C 0.82402 0.19514 0.82862 0.0
C936 C 0.79033 0.18954 0.81792 0.0
C937 C 0.87461 0.14937 0.89756 0.0
C938 C 0.81739 0.07915 0.96684 0.0
C939 C 0.88068 0.11232 0.94988 0.0
C940 C 0.88277 0.07577 0.95768 0.0
C941 C 0.85085 0.05913 0.96619 0.0
N942 N 0.84776 0.13178 0.95056 0.0
C943 C 0.81637 0.11565 0.95891 0.0
Co944 Co 0.92397 0.54585 0.6424 0.0
Co945 Co 0.93191 0.59399 0.6895 0.0
O946 O 0.91753 0.54867 0.67353 0.0
C947 C 0.84631 0.51698 0.64873 0.0
O948 O 0.84142 0.54077 0.66436 0.0
C949 C 0.9599 0.53093 0.71745 0.0
O950 O 0.96611 0.50969 0.7008 0.0
O951 O 0.98396 0.59105 0.67787 0.0
O952 O 0.97056 0.57661 0.64404 0.0
H953 H 0.99223 0.7201 0.69756 0.0
H954 H 0.9129 0.47537 0.66632 0.0
O955 O 0.8775 0.51498 0.63909 0.0
H956 H 0.03646 0.46274 0.63215 0.0
H957 H 0.92429 0.48142 0.57115 0.0
H958 H 0.9435 0.60086 0.60889 0.0
H959 H 0.99852 0.51966 0.62686 0.0
H960 H 0.91684 0.48501 0.61005 0.0
O961 O 0.94716 0.56394 0.71512 0.0
H962 H 0.97311 0.66321 0.67835 0.0
H963 H 0.92172 0.62067 0.73422 0.0
H964 H 0.95161 0.59845 0.57002 0.0
H965 H 0.94971 0.41772 0.67183 0.0
H966 H 0.94199 0.53838 0.55088 0.0
H967 H 0.01202 0.41121 0.65472 0.0
O968 O 0.89382 0.59223 0.63844 0.0
H969 H 0.81607 0.54147 0.72353 0.0
H970 H 0.87465 0.65471 0.69362 0.0
H971 H 0.8101 0.65804 0.70725 0.0
H972 H 0.78041 0.60115 0.72244 0.0
H973 H 0.88035 0.53928 0.70934 0.0
H974 H 0.94034 0.67722 0.75404 0.0
H975 H 0.97566 0.72758 0.73568 0.0
O976 O 0.91654 0.62677 0.66517 0.0
C977 C 0.99279 0.58901 0.65825 0.0
C978 C 0.9767 0.69851 0.70574 0.0
C979 C 0.94764 0.67437 0.73743 0.0
N980 N 0.94619 0.63866 0.7051 0.0
C981 C 0.96578 0.66617 0.69493 0.0
C982 C 0.93727 0.64235 0.72613 0.0
C983 C 0.96747 0.70262 0.72712 0.0
C984 C 0.93984 0.47256 0.65867 0.0
N985 N 0.95349 0.50078 0.64625 0.0
C986 C 0.96062 0.43993 0.66191 0.0
C987 C 0.99561 0.43633 0.65234 0.0
C988 C 0.00935 0.46525 0.6397 0.0
C989 C 0.9878 0.49748 0.63683 0.0
C990 C 0.92871 0.50773 0.57932 0.0
C991 C 0.93962 0.57455 0.60072 0.0
C992 C 0.9245 0.50995 0.60135 0.0
N993 N 0.93024 0.54303 0.61179 0.0
C994 C 0.94409 0.57339 0.57868 0.0
C995 C 0.93864 0.53969 0.56795 0.0
C996 C 0.89865 0.62358 0.6477 0.0
C997 C 0.82871 0.56647 0.71698 0.0
C998 C 0.86183 0.62975 0.69996 0.0
C999 C 0.82532 0.63185 0.70779 0.0
C1000 C 0.8087 0.59994 0.71634 0.0
N1001 N 0.8813 0.59682 0.70064 0.0
C1002 C 0.86518 0.56544 0.70902 0.0
Co1003 Co 0.71019 0.67583 0.89346 0.0
Co1004 Co 0.66209 0.6828 0.94063 0.0
O1005 O 0.70748 0.66907 0.92457 0.0
C1006 C 0.73868 0.59802 0.89921 0.0
O1007 O 0.71406 0.59269 0.91437 0.0
C1008 C 0.72529 0.71017 0.96897 0.0
O1009 O 0.74705 0.71581 0.95249 0.0
O1010 O 0.66436 0.73504 0.92912 0.0
O1011 O 0.67904 0.72215 0.89525 0.0
H1012 H 0.53534 0.74165 0.94893 0.0
H1013 H 0.78084 0.665 0.91725 0.0
O1014 O 0.74138 0.6296 0.89003 0.0
H1015 H 0.79226 0.78916 0.88363 0.0
H1016 H 0.77457 0.67738 0.82223 0.0
H1017 H 0.65504 0.69537 0.85999 0.0
H1018 H 0.73567 0.75083 0.87822 0.0
H1019 H 0.77103 0.66944 0.8611 0.0
O1020 O 0.69205 0.69814 0.96637 0.0
H1021 H 0.59239 0.72333 0.92964 0.0
H1022 H 0.63562 0.67182 0.98532 0.0
H1023 H 0.6574 0.70398 0.82116 0.0
H1024 H 0.83819 0.70221 0.92286 0.0
H1025 H 0.71752 0.69497 0.802 0.0
H1026 H 0.84409 0.76483 0.90603 0.0
O1027 O 0.66406 0.64539 0.88935 0.0
H1028 H 0.7162 0.56696 0.97391 0.0
H1029 H 0.60204 0.62487 0.94468 0.0
H1030 H 0.59955 0.56006 0.958 0.0
H1031 H 0.65691 0.5307 0.97285 0.0
H1032 H 0.71754 0.6315 0.96006 0.0
H1033 H 0.57894 0.68968 1.00523 0.0
H1034 H 0.52817 0.72469 0.987 0.0
O1035 O 0.62937 0.66726 0.91624 0.0
C1036 C 0.6663 0.74407 0.90952 0.0
C1037 C 0.55713 0.72628 0.95705 0.0
C1038 C 0.58167 0.69718 0.98864 0.0
N1039 N 0.61731 0.69643 0.95629 0.0
C1040 C 0.58955 0.71581 0.94619 0.0
C1041 C 0.61376 0.68724 0.97729 0.0
C1042 C 0.55319 0.71682 0.97841 0.0
C1043 C 0.78339 0.69207 0.90973 0.0
N1044 N 0.75501 0.70567 0.8974 0.0
C1045 C 0.81584 0.71308 0.91303 0.0
C1046 C 0.81911 0.74824 0.90361 0.0
C1047 C 0.79002 0.76193 0.89106 0.0
C1048 C 0.75797 0.74015 0.88813 0.0
C1049 C 0.74825 0.68153 0.83041 0.0
C1050 C 0.68137 0.69176 0.85182 0.0
C1051 C 0.74605 0.67703 0.85242 0.0
N1052 N 0.71294 0.68244 0.86287 0.0
C1053 C 0.6825 0.69651 0.8298 0.0
C1054 C 0.71623 0.6914 0.81907 0.0
C1055 C 0.63269 0.64972 0.89866 0.0
C1056 C 0.69099 0.57946 0.96753 0.0
C1057 C 0.62718 0.61222 0.95091 0.0
C1058 C 0.62557 0.57555 0.95854 0.0
C1059 C 0.65774 0.55911 0.96689 0.0
N1060 N 0.6599 0.63202 0.95158 0.0
C1061 C 0.69154 0.61608 0.95975 0.0
Co1062 Co 0.5808 0.4618 0.14249 0.0
Co1063 Co 0.57152 0.41201 0.18889 0.0
O1064 O 0.58688 0.45765 0.17358 0.0
C1065 C 0.65872 0.48946 0.14963 0.0
O1066 O 0.66295 0.46529 0.16513 0.0
C1067 C 0.54397 0.4744 0.21737 0.0
O1068 O 0.53745 0.49581 0.20083 0.0
O1069 O 0.51964 0.41639 0.17717 0.0
O1070 O 0.53365 0.43173 0.14356 0.0
H1071 H 0.50883 0.28682 0.19502 0.0
H1072 H 0.59273 0.53109 0.1674 0.0
O1073 O 0.6278 0.49204 0.13974 0.0
H1074 H 0.46983 0.54719 0.13291 0.0
H1075 H 0.58232 0.529 0.07211 0.0
H1076 H 0.5609 0.40841 0.10818 0.0
H1077 H 0.50686 0.48985 0.12701 0.0
H1078 H 0.58918 0.52378 0.11098 0.0
O1079 O 0.5567 0.44143 0.21484 0.0
H1080 H 0.52912 0.34411 0.17669 0.0
H1081 H 0.58077 0.38339 0.23328 0.0
H1082 H 0.55335 0.41246 0.06932 0.0
H1083 H 0.55684 0.58913 0.17352 0.0
H1084 H 0.56409 0.47312 0.05101 0.0
H1085 H 0.49486 0.59739 0.15625 0.0
O1086 O 0.61026 0.41511 0.13805 0.0
H1087 H 0.68799 0.46068 0.22412 0.0
H1088 H 0.62758 0.35005 0.19225 0.0
H1089 H 0.69188 0.34482 0.20607 0.0
H1090 H 0.72249 0.40038 0.22225 0.0
H1091 H 0.62393 0.4648 0.20972 0.0
H1092 H 0.56101 0.32634 0.25225 0.0
H1093 H 0.52501 0.27739 0.23308 0.0
O1094 O 0.58647 0.37988 0.16416 0.0
C1095 C 0.51105 0.41919 0.15754 0.0
C1096 C 0.52467 0.30775 0.20356 0.0
C1097 C 0.55389 0.33002 0.23567 0.0
N1098 N 0.55625 0.36704 0.20385 0.0
C1099 C 0.53625 0.34033 0.19324 0.0
C1100 C 0.56491 0.36232 0.22485 0.0
C1101 C 0.53367 0.30257 0.2249 0.0
C1102 C 0.56594 0.53466 0.15968 0.0
N1103 N 0.55197 0.50719 0.14683 0.0
C1104 C 0.54567 0.5675 0.16327 0.0
C1105 C 0.51087 0.57209 0.15361 0.0
C1106 C 0.4968 0.54392 0.14053 0.0
C1107 C 0.51783 0.51145 0.13731 0.0
C1108 C 0.5774 0.50246 0.07991 0.0
C1109 C 0.56524 0.43498 0.10038 0.0
C1110 C 0.58128 0.49931 0.10192 0.0
N1111 N 0.57492 0.46592 0.11191 0.0
C1112 C 0.5611 0.43707 0.07834 0.0
C1113 C 0.56718 0.47109 0.06808 0.0
C1114 C 0.60474 0.38347 0.14685 0.0
C1115 C 0.67494 0.43625 0.21714 0.0
C1116 C 0.6408 0.37445 0.19902 0.0
C1117 C 0.67717 0.37127 0.20695 0.0
C1118 C 0.6943 0.40243 0.21605 0.0
N1119 N 0.62197 0.40771 0.20013 0.0
C1120 C 0.63859 0.43837 0.20905 0.0
Co1121 Co 0.79652 0.32824 0.39062 0.0
Co1122 Co 0.84344 0.31999 0.43814 0.0
O1123 O 0.79844 0.33412 0.42183 0.0
C1124 C 0.76772 0.40576 0.39712 0.0
O1125 O 0.79199 0.41051 0.41252 0.0
C1126 C 0.77906 0.29391 0.46606 0.0
O1127 O 0.75666 0.29116 0.44961 0.0
O1128 O 0.84137 0.26818 0.42608 0.0
O1129 O 0.82759 0.28176 0.39218 0.0
H1130 H 0.96993 0.26072 0.44678 0.0
H1131 H 0.72517 0.33839 0.41384 0.0
O1132 O 0.7654 0.37459 0.38744 0.0
H1133 H 0.71469 0.21529 0.37883 0.0
H1134 H 0.73408 0.32921 0.31882 0.0
H1135 H 0.8525 0.30949 0.35747 0.0
H1136 H 0.77144 0.25374 0.37438 0.0
H1137 H 0.73657 0.33583 0.3578 0.0
O1138 O 0.813 0.30383 0.46353 0.0
H1139 H 0.91332 0.27968 0.42727 0.0
H1140 H 0.86897 0.32963 0.48313 0.0
H1141 H 0.85119 0.30226 0.31852 0.0
H1142 H 0.66764 0.30107 0.41849 0.0
H1143 H 0.79165 0.31214 0.29892 0.0
H1144 H 0.66222 0.23898 0.40097 0.0
O1145 O 0.84269 0.35881 0.38723 0.0
H1146 H 0.78859 0.43506 0.47198 0.0
H1147 H 0.90349 0.37761 0.44343 0.0
H1148 H 0.90577 0.44199 0.45743 0.0
H1149 H 0.84803 0.47111 0.47194 0.0
H1150 H 0.78747 0.37099 0.45745 0.0
H1151 H 0.92519 0.31112 0.50327 0.0
H1152 H 0.97631 0.2766 0.48506 0.0
O1153 O 0.8767 0.33624 0.4142 0.0
C1154 C 0.83981 0.25947 0.40641 0.0
C1155 C 0.94799 0.27589 0.45489 0.0
C1156 C 0.92281 0.30411 0.48659 0.0
N1157 N 0.88787 0.30586 0.454 0.0
C1158 C 0.91581 0.28672 0.44391 0.0
C1159 C 0.89098 0.31442 0.47511 0.0
C1160 C 0.95149 0.28474 0.47637 0.0
C1161 C 0.72285 0.31155 0.40601 0.0
N1162 N 0.7516 0.2983 0.39385 0.0
C1163 C 0.69028 0.29047 0.40877 0.0
C1164 C 0.68728 0.25561 0.39896 0.0
C1165 C 0.71673 0.24229 0.38656 0.0
C1166 C 0.74887 0.26412 0.38418 0.0
C1167 C 0.76017 0.3247 0.32718 0.0
C1168 C 0.82642 0.31352 0.34909 0.0
C1169 C 0.76177 0.32845 0.34926 0.0
N1170 N 0.79457 0.32259 0.35995 0.0
C1171 C 0.82588 0.30953 0.32702 0.0
C1172 C 0.79247 0.31512 0.31603 0.0
C1173 C 0.87379 0.3543 0.39678 0.0
C1174 C 0.81396 0.42265 0.46576 0.0
C1175 C 0.87819 0.39016 0.4495 0.0
C1176 C 0.87968 0.42659 0.45752 0.0
C1177 C 0.8473 0.44289 0.46569 0.0
N1178 N 0.8454 0.37045 0.44962 0.0
C1179 C 0.81354 0.38628 0.45761 0.0
Co1180 Co 0.92463 0.4593 0.87876 0.0
Co1181 Co 0.93243 0.41064 0.83186 0.0
O1182 O 0.91791 0.4561 0.84765 0.0
C1183 C 0.84693 0.48825 0.87247 0.0
O1184 O 0.84195 0.46454 0.85681 0.0
C1185 C 0.96029 0.47328 0.80365 0.0
O1186 O 0.96724 0.49439 0.82026 0.0
O1187 O 0.98455 0.41412 0.84331 0.0
O1188 O 0.97127 0.42858 0.87714 0.0
H1189 H 0.99353 0.28479 0.82433 0.0
H1190 H 0.91332 0.52943 0.85456 0.0
O1191 O 0.87815 0.49016 0.88209 0.0
H1192 H 0.03704 0.54268 0.88848 0.0
H1193 H 0.92542 0.52448 0.94979 0.0
H1194 H 0.94454 0.40467 0.91242 0.0
H1195 H 0.99923 0.48579 0.89408 0.0
H1196 H 0.91768 0.52047 0.91092 0.0
O1197 O 0.94718 0.44045 0.80606 0.0
H1198 H 0.97415 0.34186 0.84327 0.0
H1199 H 0.92212 0.38319 0.78728 0.0
H1200 H 0.95294 0.4075 0.95126 0.0
H1201 H 0.95 0.58705 0.84874 0.0
H1202 H 0.94336 0.46775 0.97022 0.0
H1203 H 0.0124 0.59387 0.86572 0.0
O1204 O 0.89458 0.41293 0.88294 0.0
H1205 H 0.81592 0.46181 0.79786 0.0
H1206 H 0.87557 0.34947 0.82822 0.0
H1207 H 0.81094 0.34547 0.81476 0.0
H1208 H 0.7807 0.40191 0.79935 0.0
H1209 H 0.88032 0.46467 0.81187 0.0
H1210 H 0.94104 0.32646 0.76771 0.0
H1211 H 0.97685 0.27662 0.78627 0.0
O1212 O 0.91753 0.37812 0.8564 0.0
C1213 C 0.99349 0.41627 0.8629 0.0
C1214 C 0.97782 0.30616 0.81607 0.0
C1215 C 0.94842 0.32962 0.78429 0.0
N1216 N 0.9469 0.36582 0.81644 0.0
C1217 C 0.96674 0.3386 0.82672 0.0
C1218 C 0.93787 0.36174 0.79545 0.0
C1219 C 0.96851 0.30166 0.79472 0.0
C1220 C 0.94029 0.53238 0.86216 0.0
N1221 N 0.95405 0.50436 0.87468 0.0
C1222 C 0.961 0.56499 0.85874 0.0
C1223 C 0.99603 0.56877 0.86824 0.0
C1224 C 0.0099 0.54004 0.88099 0.0
C1225 C 0.98841 0.50782 0.88404 0.0
C1226 C 0.92981 0.49809 0.9417 0.0
C1227 C 0.94067 0.43106 0.92051 0.0
C1228 C 0.92544 0.49563 0.91969 0.0
N1229 N 0.93115 0.46245 0.90935 0.0
C1230 C 0.94531 0.43246 0.94253 0.0
C1231 C 0.93988 0.46626 0.95316 0.0
C1232 C 0.89957 0.38147 0.87383 0.0
C1233 C 0.8288 0.437 0.80451 0.0
C1234 C 0.86252 0.37423 0.82177 0.0
C1235 C 0.82596 0.37175 0.81405 0.0
C1236 C 0.80904 0.40341 0.80538 0.0
N1237 N 0.88174 0.40728 0.82088 0.0
C1238 C 0.86533 0.43842 0.81238 0.0
Co1239 Co 0.79788 0.6761 0.13103 0.0
Co1240 Co 0.84564 0.68248 0.08357 0.0
O1241 O 0.80026 0.66963 0.09986 0.0
C1242 C 0.76895 0.59862 0.12491 0.0
O1243 O 0.7938 0.59337 0.10986 0.0
C1244 C 0.78192 0.71013 0.0556 0.0
O1245 O 0.75961 0.71343 0.07205 0.0
O1246 O 0.84501 0.73444 0.09555 0.0
O1247 O 0.82936 0.72223 0.12937 0.0
H1248 H 0.97401 0.73751 0.07529 0.0
H1249 H 0.72679 0.66603 0.10752 0.0
O1250 O 0.76635 0.63006 0.13427 0.0
H1251 H 0.71683 0.79002 0.14154 0.0
H1252 H 0.73414 0.67699 0.20244 0.0
H1253 H 0.85337 0.69518 0.16439 0.0
H1254 H 0.77319 0.75119 0.14657 0.0
H1255 H 0.7373 0.66957 0.16352 0.0
O1256 O 0.81564 0.69947 0.05814 0.0
H1257 H 0.9167 0.7203 0.09463 0.0
H1258 H 0.8709 0.67261 0.03851 0.0
H1259 H 0.8514 0.7032 0.20328 0.0
H1260 H 0.66965 0.70373 0.1023 0.0
H1261 H 0.79145 0.6941 0.22258 0.0
H1262 H 0.66449 0.76628 0.11932 0.0
O1263 O 0.84371 0.64524 0.13494 0.0
H1264 H 0.78718 0.56885 0.05013 0.0
H1265 H 0.90412 0.62339 0.07778 0.0
H1266 H 0.90447 0.55894 0.06383 0.0
H1267 H 0.84569 0.53128 0.04977 0.0
H1268 H 0.78802 0.63295 0.06461 0.0
H1269 H 0.92769 0.68972 0.01848 0.0
H1270 H 0.97988 0.7223 0.03691 0.0
O1271 O 0.87839 0.66516 0.10755 0.0
C1272 C 0.84265 0.74379 0.1151 0.0
C1273 C 0.95156 0.72331 0.06707 0.0
C1274 C 0.92551 0.69652 0.0352 0.0
N1275 N 0.89049 0.69535 0.06776 0.0
C1276 C 0.91902 0.7134 0.07796 0.0
C1277 C 0.89335 0.68702 0.04661 0.0
C1278 C 0.95479 0.71478 0.04554 0.0
C1279 C 0.72458 0.69307 0.11513 0.0
N1280 N 0.75326 0.70636 0.12733 0.0
C1281 C 0.69223 0.71436 0.11205 0.0
C1282 C 0.68938 0.74947 0.12157 0.0
C1283 C 0.71876 0.76283 0.13402 0.0
C1284 C 0.75069 0.74078 0.13673 0.0
C1285 C 0.7604 0.68116 0.1942 0.0
C1286 C 0.82711 0.69148 0.17264 0.0
C1287 C 0.76238 0.67696 0.17216 0.0
N1288 N 0.79541 0.68238 0.16164 0.0
C1289 C 0.8262 0.69592 0.19468 0.0
C1290 C 0.79256 0.69076 0.20549 0.0
C1291 C 0.87489 0.64818 0.12529 0.0
C1292 C 0.813 0.5806 0.05617 0.0
C1293 C 0.87838 0.61146 0.07194 0.0
C1294 C 0.87878 0.575 0.06393 0.0
C1295 C 0.84581 0.55952 0.05601 0.0
N1296 N 0.84611 0.63199 0.07206 0.0
C1297 C 0.81369 0.61699 0.0643 0.0
Co1298 Co 0.58065 0.54414 0.3788 0.0
Co1299 Co 0.57254 0.59353 0.33217 0.0
O1300 O 0.58709 0.54784 0.3477 0.0
C1301 C 0.65836 0.51569 0.37212 0.0
O1302 O 0.66309 0.54001 0.35674 0.0
C1303 C 0.54439 0.53123 0.30377 0.0
O1304 O 0.53767 0.50992 0.32032 0.0
O1305 O 0.52052 0.59003 0.34376 0.0
O1306 O 0.53394 0.57484 0.37747 0.0
H1307 H 0.5118 0.71967 0.32543 0.0
H1308 H 0.59188 0.47439 0.35419 0.0
O1309 O 0.62722 0.5133 0.38179 0.0
H1310 H 0.46841 0.46047 0.38828 0.0
H1311 H 0.58064 0.47772 0.44943 0.0
H1312 H 0.56096 0.59814 0.41284 0.0
H1313 H 0.5062 0.51731 0.39413 0.0
H1314 H 0.58801 0.48242 0.41056 0.0
O1315 O 0.55746 0.56407 0.30628 0.0
H1316 H 0.53112 0.66225 0.34402 0.0
H1317 H 0.58246 0.62152 0.28769 0.0
H1318 H 0.55293 0.59462 0.45169 0.0
H1319 H 0.55523 0.41682 0.34814 0.0
H1320 H 0.56279 0.53405 0.47025 0.0
H1321 H 0.49296 0.40966 0.3652 0.0
O1322 O 0.61066 0.59048 0.3832 0.0
H1323 H 0.6886 0.54252 0.29761 0.0
H1324 H 0.62951 0.6546 0.32867 0.0
H1325 H 0.69404 0.65861 0.31506 0.0
H1326 H 0.72398 0.60231 0.29929 0.0
H1327 H 0.62433 0.53963 0.31178 0.0
H1328 H 0.56359 0.67861 0.26845 0.0
H1329 H 0.52819 0.72833 0.28736 0.0
O1330 O 0.58774 0.62568 0.35682 0.0
C1331 C 0.51169 0.58752 0.36335 0.0
C1332 C 0.52735 0.69836 0.31701 0.0
C1333 C 0.55635 0.67524 0.28504 0.0
N1334 N 0.55803 0.63857 0.317 0.0
C1335 C 0.53839 0.66572 0.32747 0.0
C1336 C 0.56687 0.64291 0.29601 0.0
C1337 C 0.53649 0.70313 0.29566 0.0
C1338 C 0.56497 0.47129 0.36183 0.0
N1339 N 0.55126 0.49911 0.37453 0.0
C1340 C 0.54427 0.43872 0.35827 0.0
C1341 C 0.50931 0.43475 0.36782 0.0
C1342 C 0.4955 0.46326 0.38076 0.0
C1343 C 0.51697 0.49545 0.38394 0.0
C1344 C 0.57612 0.50423 0.44151 0.0
C1345 C 0.56494 0.57162 0.42076 0.0
C1346 C 0.58029 0.50709 0.41951 0.0
N1347 N 0.57442 0.54044 0.40938 0.0
C1348 C 0.56052 0.56982 0.44278 0.0
C1349 C 0.56611 0.53585 0.45319 0.0
C1350 C 0.60568 0.62207 0.37424 0.0
C1351 C 0.67584 0.56727 0.30441 0.0
C1352 C 0.64244 0.62989 0.32206 0.0
C1353 C 0.67894 0.63238 0.31426 0.0
C1354 C 0.6957 0.6008 0.30539 0.0
N1355 N 0.62313 0.5969 0.32106 0.0
C1356 C 0.63938 0.56584 0.31237 0.0
Co1357 Co 0.70884 0.32982 0.62818 0.0
Co1358 Co 0.66027 0.32286 0.58117 0.0
O1359 O 0.70583 0.33657 0.59708 0.0
C1360 C 0.73752 0.40755 0.62227 0.0
O1361 O 0.71289 0.41288 0.60711 0.0
C1362 C 0.72283 0.29467 0.55272 0.0
O1363 O 0.74439 0.28812 0.56919 0.0
O1364 O 0.6627 0.27061 0.59266 0.0
O1365 O 0.67764 0.28353 0.6265 0.0
H1366 H 0.5335 0.264 0.57332 0.0
H1367 H 0.77918 0.34048 0.6041 0.0
O1368 O 0.74011 0.37601 0.63151 0.0
H1369 H 0.79092 0.21641 0.6378 0.0
H1370 H 0.77391 0.32826 0.69922 0.0
H1371 H 0.654 0.31036 0.66181 0.0
H1372 H 0.73445 0.25486 0.64341 0.0
H1373 H 0.77 0.33617 0.66036 0.0
O1374 O 0.68993 0.30755 0.55536 0.0
H1375 H 0.59075 0.2823 0.5924 0.0
H1376 H 0.63325 0.33389 0.53658 0.0
H1377 H 0.65673 0.30179 0.70064 0.0
H1378 H 0.83639 0.30315 0.59828 0.0
H1379 H 0.71704 0.31075 0.71962 0.0
H1380 H 0.84245 0.24057 0.61515 0.0
O1381 O 0.66276 0.36034 0.63241 0.0
H1382 H 0.71397 0.4386 0.54763 0.0
H1383 H 0.60018 0.38085 0.57736 0.0
H1384 H 0.59756 0.44565 0.56403 0.0
H1385 H 0.65473 0.47492 0.54893 0.0
H1386 H 0.71546 0.37406 0.56149 0.0
H1387 H 0.57634 0.31604 0.51687 0.0
H1388 H 0.52581 0.28099 0.53527 0.0
O1389 O 0.62783 0.33837 0.60566 0.0
C1390 C 0.66483 0.26159 0.61226 0.0
C1391 C 0.55516 0.27938 0.56512 0.0
C1392 C 0.57928 0.30851 0.53344 0.0
N1393 N 0.61532 0.30923 0.56566 0.0
C1394 C 0.58771 0.28983 0.57585 0.0
C1395 C 0.61151 0.31845 0.54468 0.0
C1396 C 0.55094 0.28886 0.54378 0.0
C1397 C 0.78179 0.31342 0.61164 0.0
N1398 N 0.75358 0.29992 0.62411 0.0
C1399 C 0.81417 0.29235 0.60822 0.0
C1400 C 0.81753 0.25722 0.61767 0.0
C1401 C 0.78861 0.24362 0.63036 0.0
C1402 C 0.75663 0.26547 0.63341 0.0
C1403 C 0.7475 0.32413 0.69113 0.0
C1404 C 0.68041 0.31395 0.66991 0.0
C1405 C 0.7451 0.32861 0.66912 0.0
N1406 N 0.71188 0.32323 0.65876 0.0
C1407 C 0.68176 0.30923 0.69192 0.0
C1408 C 0.71559 0.31431 0.70256 0.0
C1409 C 0.63131 0.35597 0.62321 0.0
C1410 C 0.68885 0.42613 0.55413 0.0
C1411 C 0.62525 0.39347 0.57103 0.0
C1412 C 0.62355 0.43014 0.56339 0.0
C1413 C 0.65562 0.44652 0.5549 0.0
N1414 N 0.65794 0.37363 0.57023 0.0
C1415 C 0.68948 0.38952 0.56191 0.0
Co1416 Co 0.08124 0.45792 0.3798 0.0
Co1417 Co 0.07298 0.41128 0.33219 0.0
O1418 O 0.08754 0.45592 0.34867 0.0
C1419 C 0.15901 0.4859 0.37347 0.0
O1420 O 0.16349 0.46182 0.35793 0.0
C1421 C 0.04464 0.47591 0.30574 0.0
O1422 O 0.03839 0.4956 0.32298 0.0
O1423 O 0.02113 0.41367 0.34406 0.0
O1424 O 0.03446 0.42747 0.378 0.0
H1425 H 0.01343 0.28486 0.32287 0.0
H1426 H 0.09274 0.52916 0.35666 0.0
O1427 O 0.12794 0.48836 0.38319 0.0
H1428 H 0.96928 0.54136 0.39099 0.0
H1429 H 0.08194 0.5204 0.4516 0.0
H1430 H 0.06154 0.40214 0.41288 0.0
H1431 H 0.00686 0.48404 0.39564 0.0
H1432 H 0.08907 0.5178 0.41265 0.0
O1433 O 0.05734 0.44269 0.30713 0.0
H1434 H 0.0326 0.34121 0.34273 0.0
H1435 H 0.08177 0.38678 0.28699 0.0
H1436 H 0.05376 0.40355 0.45179 0.0
H1437 H 0.05631 0.58723 0.35183 0.0
H1438 H 0.06398 0.46303 0.47142 0.0
H1439 H 0.99404 0.59353 0.36901 0.0
O1440 O 0.11107 0.41129 0.38329 0.0
H1441 H 0.18837 0.46528 0.29842 0.0
H1442 H 0.13006 0.35075 0.32687 0.0
H1443 H 0.19439 0.34797 0.31287 0.0
H1444 H 0.22394 0.40552 0.29841 0.0
H1445 H 0.1243 0.46688 0.31294 0.0
H1446 H 0.06282 0.33106 0.2665 0.0
H1447 H 0.02852 0.27952 0.28447 0.0
O1448 O 0.08884 0.37751 0.35607 0.0
C1449 C 0.01228 0.41534 0.36369 0.0
C1450 C 0.02842 0.3071 0.31487 0.0
C1451 C 0.0561 0.33305 0.28323 0.0
N1452 N 0.05843 0.36723 0.31608 0.0
C1453 C 0.03941 0.33906 0.32604 0.0
C1454 C 0.06665 0.3646 0.29491 0.0
C1455 C 0.03688 0.30413 0.29332 0.0
C1456 C 0.06583 0.53187 0.36435 0.0
N1457 N 0.05199 0.50329 0.37643 0.0
C1458 C 0.04526 0.56474 0.36149 0.0
C1459 C 0.0103 0.56822 0.3711 0.0
C1460 C 0.99637 0.53895 0.38341 0.0
C1461 C 0.01771 0.50648 0.38591 0.0
C1462 C 0.07726 0.49435 0.44321 0.0
C1463 C 0.06567 0.4282 0.42127 0.0
C1464 C 0.08128 0.4927 0.42116 0.0
N1465 N 0.07521 0.45995 0.41044 0.0
C1466 C 0.06139 0.42879 0.44332 0.0
C1467 C 0.06718 0.46215 0.45433 0.0
C1468 C 0.1065 0.38024 0.37366 0.0
C1469 C 0.17578 0.43999 0.30463 0.0
C1470 C 0.14281 0.37597 0.32083 0.0
C1471 C 0.17921 0.37419 0.31281 0.0
C1472 C 0.19575 0.40647 0.30467 0.0
N1473 N 0.1234 0.40894 0.32076 0.0
C1474 C 0.13943 0.44069 0.31279 0.0
Co1475 Co 0.29565 0.33285 0.12685 0.0
Co1476 Co 0.34541 0.32498 0.08039 0.0
O1477 O 0.29968 0.33872 0.09585 0.0
C1478 C 0.27105 0.41166 0.12129 0.0
O1479 O 0.30119 0.41748 0.10982 0.0
C1480 C 0.28354 0.29486 0.05241 0.0
O1481 O 0.26277 0.28757 0.0691 0.0
O1482 O 0.3433 0.27305 0.09242 0.0
O1483 O 0.32667 0.28634 0.126 0.0
H1484 H 0.47283 0.26761 0.07364 0.0
H1485 H 0.22615 0.34317 0.1018 0.0
O1486 O 0.26437 0.37925 0.12878 0.0
H1487 H 0.21261 0.22023 0.13659 0.0
H1488 H 0.22747 0.33448 0.19689 0.0
H1489 H 0.3488 0.31393 0.16146 0.0
H1490 H 0.26909 0.25852 0.14244 0.0
H1491 H 0.2332 0.34094 0.15801 0.0
O1492 O 0.31604 0.30882 0.05469 0.0
H1493 H 0.41512 0.28551 0.09224 0.0
H1494 H 0.3726 0.33485 0.03576 0.0
H1495 H 0.34425 0.30679 0.20033 0.0
H1496 H 0.16894 0.30601 0.09573 0.0
H1497 H 0.28322 0.31709 0.21831 0.0
H1498 H 0.16197 0.244 0.11314 0.0
O1499 O 0.34196 0.36301 0.13148 0.0
H1500 H 0.29021 0.44005 0.04688 0.0
H1501 H 0.40512 0.38319 0.0758 0.0
H1502 H 0.40696 0.44796 0.06237 0.0
H1503 H 0.3492 0.47681 0.04771 0.0
H1504 H 0.28957 0.37549 0.06073 0.0
H1505 H 0.43006 0.31732 0.01647 0.0
H1506 H 0.4809 0.28369 0.03545 0.0
O1507 O 0.37736 0.34144 0.10481 0.0
C1508 C 0.34026 0.26428 0.11203 0.0
C1509 C 0.45112 0.28238 0.06516 0.0
C1510 C 0.427 0.31022 0.0331 0.0
N1511 N 0.39056 0.31135 0.06515 0.0
C1512 C 0.41829 0.29263 0.07564 0.0
C1513 C 0.39448 0.31997 0.0441 0.0
C1514 C 0.45551 0.29134 0.04376 0.0
C1515 C 0.22314 0.31638 0.10959 0.0
N1516 N 0.25088 0.30308 0.12248 0.0
C1517 C 0.19076 0.29539 0.10602 0.0
C1518 C 0.1869 0.26057 0.11577 0.0
C1519 C 0.21532 0.2472 0.1289 0.0
C1520 C 0.24732 0.26894 0.13209 0.0
C1521 C 0.25418 0.32979 0.18923 0.0
C1522 C 0.32208 0.31812 0.16913 0.0
C1523 C 0.25762 0.33346 0.16723 0.0
N1524 N 0.29122 0.32737 0.15743 0.0
C1525 C 0.31971 0.3142 0.19117 0.0
C1526 C 0.28548 0.32003 0.20125 0.0
C1527 C 0.37356 0.35892 0.12237 0.0
C1528 C 0.31558 0.42778 0.05318 0.0
C1529 C 0.37984 0.39559 0.0696 0.0
C1530 C 0.38108 0.43225 0.06193 0.0
C1531 C 0.34867 0.4484 0.05369 0.0
N1532 N 0.3473 0.37551 0.06905 0.0
C1533 C 0.31543 0.39117 0.06098 0.0
Co1534 Co 0.42596 0.5464 0.87941 0.0
Co1535 Co 0.43418 0.5945 0.83232 0.0
O1536 O 0.41981 0.54919 0.84826 0.0
C1537 C 0.34826 0.51809 0.87292 0.0
O1538 O 0.34349 0.54256 0.85762 0.0
C1539 C 0.4611 0.53095 0.80418 0.0
O1540 O 0.46593 0.50911 0.82072 0.0
O1541 O 0.48616 0.59174 0.84414 0.0
O1542 O 0.47254 0.57724 0.87794 0.0
H1543 H 0.49422 0.72074 0.82447 0.0
H1544 H 0.41516 0.47577 0.85555 0.0
O1545 O 0.37948 0.51549 0.8825 0.0
H1546 H 0.53851 0.46351 0.89003 0.0
H1547 H 0.4256 0.48196 0.95063 0.0
H1548 H 0.44509 0.60143 0.91302 0.0
H1549 H 0.50046 0.5204 0.89515 0.0
H1550 H 0.41855 0.48556 0.9117 0.0
O1551 O 0.44971 0.56444 0.80668 0.0
H1552 H 0.4751 0.66382 0.8436 0.0
H1553 H 0.42424 0.62113 0.78758 0.0
H1554 H 0.4528 0.59902 0.95192 0.0
H1555 H 0.45207 0.41813 0.85023 0.0
H1556 H 0.44304 0.53893 0.971 0.0
H1557 H 0.51429 0.41181 0.86748 0.0
O1558 O 0.39572 0.59272 0.8833 0.0
H1559 H 0.31854 0.54156 0.79821 0.0
H1560 H 0.37687 0.6551 0.82796 0.0
H1561 H 0.31238 0.65825 0.8142 0.0
H1562 H 0.28282 0.60121 0.79909 0.0
H1563 H 0.38275 0.53955 0.81251 0.0
H1564 H 0.44286 0.67772 0.76783 0.0
H1565 H 0.47791 0.72818 0.7863 0.0
O1566 O 0.41849 0.62732 0.85663 0.0
C1567 C 0.49483 0.58975 0.8638 0.0
C1568 C 0.47881 0.69912 0.81624 0.0
C1569 C 0.45006 0.67489 0.78445 0.0
N1570 N 0.44846 0.63919 0.81677 0.0
C1571 C 0.46789 0.66676 0.82701 0.0
C1572 C 0.43968 0.64285 0.79572 0.0
C1573 C 0.46973 0.7032 0.79483 0.0
C1574 C 0.44205 0.47304 0.86327 0.0
N1575 N 0.45559 0.50136 0.87566 0.0
C1576 C 0.46289 0.44042 0.86013 0.0
C1577 C 0.49783 0.43692 0.86978 0.0
C1578 C 0.51145 0.46594 0.88241 0.0
C1579 C 0.48984 0.49816 0.88518 0.0
C1580 C 0.43008 0.50827 0.94249 0.0
C1581 C 0.44116 0.57511 0.92116 0.0
C1582 C 0.4261 0.5105 0.92045 0.0
N1583 N 0.43192 0.54359 0.91004 0.0
C1584 C 0.4454 0.57395 0.94321 0.0
C1585 C 0.43987 0.54025 0.95391 0.0
C1586 C 0.4005 0.62408 0.87406 0.0
C1587 C 0.33114 0.56663 0.80471 0.0
C1588 C 0.36412 0.63009 0.82163 0.0
C1589 C 0.32764 0.63208 0.81375 0.0
C1590 C 0.31109 0.60008 0.80524 0.0
N1591 N 0.38363 0.59718 0.82105 0.0
C1592 C 0.36757 0.5657 0.81273 0.0
Co1593 Co 0.20847 0.67422 0.62865 0.0
Co1594 Co 0.16009 0.68114 0.58159 0.0
O1595 O 0.20554 0.66725 0.59755 0.0
C1596 C 0.2372 0.59644 0.62279 0.0
O1597 O 0.21283 0.59114 0.60749 0.0
C1598 C 0.22272 0.70924 0.55334 0.0
O1599 O 0.24387 0.71626 0.56993 0.0
O1600 O 0.16287 0.73343 0.59293 0.0
O1601 O 0.17745 0.72064 0.62683 0.0
H1602 H 0.03364 0.74071 0.57354 0.0
H1603 H 0.27883 0.66314 0.60463 0.0
O1604 O 0.23959 0.62794 0.6321 0.0
H1605 H 0.29095 0.78735 0.63818 0.0
H1606 H 0.27323 0.67601 0.69978 0.0
H1607 H 0.15358 0.69424 0.66214 0.0
H1608 H 0.23432 0.74917 0.64379 0.0
H1609 H 0.26946 0.66781 0.66093 0.0
O1610 O 0.18993 0.69604 0.55581 0.0
H1611 H 0.09076 0.7222 0.59269 0.0
H1612 H 0.13316 0.67008 0.53698 0.0
H1613 H 0.15617 0.7031 0.70096 0.0
H1614 H 0.33621 0.7002 0.59882 0.0
H1615 H 0.21635 0.69397 0.72005 0.0
H1616 H 0.34246 0.76284 0.61561 0.0
O1617 O 0.16227 0.64392 0.63286 0.0
H1618 H 0.21304 0.56482 0.54824 0.0
H1619 H 0.09964 0.62353 0.57789 0.0
H1620 H 0.09659 0.55865 0.56469 0.0
H1621 H 0.15357 0.5289 0.54963 0.0
H1622 H 0.21494 0.62945 0.56199 0.0
H1623 H 0.0764 0.68817 0.51719 0.0
H1624 H 0.02601 0.7236 0.5355 0.0
O1625 O 0.12752 0.66607 0.60608 0.0
C1626 C 0.16492 0.74258 0.61251 0.0
C1627 C 0.05526 0.72518 0.56537 0.0
C1628 C 0.07933 0.69575 0.53376 0.0
N1629 N 0.11526 0.69497 0.56601 0.0
C1630 C 0.08773 0.71459 0.57615 0.0
C1631 C 0.11147 0.68568 0.54504 0.0
C1632 C 0.05106 0.71562 0.54404 0.0
C1633 C 0.28153 0.69023 0.61215 0.0
N1634 N 0.25334 0.70392 0.62457 0.0
C1635 C 0.314 0.71115 0.60873 0.0
C1636 C 0.31746 0.74632 0.61813 0.0
C1637 C 0.28856 0.7601 0.63077 0.0
C1638 C 0.25649 0.73841 0.63382 0.0
C1639 C 0.24688 0.6802 0.69163 0.0
C1640 C 0.17993 0.69056 0.67029 0.0
C1641 C 0.24455 0.67556 0.66963 0.0
N1642 N 0.21141 0.68102 0.65921 0.0
C1643 C 0.1812 0.69546 0.6923 0.0
C1644 C 0.21496 0.69028 0.703 0.0
C1645 C 0.13086 0.64848 0.62363 0.0
C1646 C 0.188 0.57749 0.55472 0.0
C1647 C 0.12462 0.6107 0.57159 0.0
C1648 C 0.12269 0.57399 0.56402 0.0
C1649 C 0.15465 0.55733 0.55554 0.0
N1650 N 0.15744 0.6303 0.57074 0.0
C1651 C 0.18887 0.61415 0.56244 0.0
Co1652 Co 0.08515 0.55009 0.14868 0.0
Co1653 Co 0.07115 0.60358 0.19331 0.0
O1654 O 0.09005 0.5581 0.17941 0.0
C1655 C 0.16182 0.52865 0.13591 0.0
O1656 O 0.16053 0.55694 0.1226 0.0
C1657 C 0.04353 0.54166 0.22141 0.0
O1658 O 0.03487 0.52219 0.20441 0.0
O1659 O 0.02027 0.59518 0.18097 0.0
O1660 O 0.0361 0.57708 0.14803 0.0
H1661 H 1.00109 0.7255 0.19595 0.0
H1662 H 0.10088 0.48458 0.17617 0.0
O1663 O 0.13451 0.52278 0.14859 0.0
H1664 H 0.98007 0.4568 0.1417 0.0
H1665 H 0.09125 0.47419 0.08116 0.0
H1666 H 0.06439 0.59815 0.11211 0.0
H1667 H 0.01353 0.51556 0.13387 0.0
H1668 H 0.09683 0.48455 0.11978 0.0
O1669 O 0.05742 0.57431 0.21952 0.0
H1670 H 0.02566 0.6683 0.17903 0.0
H1671 H 0.07572 0.63499 0.23727 0.0
H1672 H 0.05833 0.58899 0.07344 0.0
H1673 H 0.06861 0.42522 0.18421 0.0
H1674 H 0.07181 0.52663 0.05771 0.0
H1675 H 0.00769 0.41108 0.16696 0.0
O1676 O 0.11113 0.59842 0.14305 0.0
H1677 H 0.18993 0.56469 0.22992 0.0
H1678 H 0.12237 0.66952 0.19637 0.0
H1679 H 0.18579 0.6799 0.21061 0.0
H1680 H 0.21997 0.62727 0.22763 0.0
H1681 H 0.12658 0.55546 0.21523 0.0
H1682 H 0.05145 0.69174 0.25485 0.0
H1683 H 0.01402 0.73756 0.23412 0.0
O1684 O 0.08517 0.63482 0.16803 0.0
C1685 C 0.01251 0.59004 0.16137 0.0
C1686 C 0.01746 0.70581 0.20514 0.0
C1687 C 0.04568 0.68682 0.2382 0.0
N1688 N 0.05226 0.64839 0.20711 0.0
C1689 C 0.0315 0.67337 0.19564 0.0
C1690 C 0.05924 0.65466 0.22817 0.0
C1691 C 0.02468 0.71253 0.22656 0.0
C1692 C 0.0746 0.47843 0.16841 0.0
N1693 N 0.05924 0.50343 0.15448 0.0
C1694 C 0.05636 0.44486 0.17311 0.0
C1695 C 0.02215 0.43697 0.16346 0.0
C1696 C 0.00661 0.46264 0.14931 0.0
C1697 C 0.02563 0.49595 0.14501 0.0
C1698 C 0.08517 0.50146 0.08783 0.0
C1699 C 0.07008 0.57088 0.10542 0.0
C1700 C 0.08823 0.50749 0.10969 0.0
N1701 N 0.08058 0.54186 0.11824 0.0
C1702 C 0.0667 0.56588 0.08349 0.0
C1703 C 0.07428 0.5309 0.07468 0.0
C1704 C 0.10392 0.6305 0.15092 0.0
C1705 C 0.1753 0.58786 0.22258 0.0
C1706 C 0.13713 0.64642 0.2036 0.0
C1707 C 0.173 0.6525 0.21172 0.0
C1708 C 0.19215 0.62297 0.22127 0.0
N1709 N 0.12073 0.61193 0.20501 0.0
C1710 C 0.13938 0.58282 0.21429 0.0
Co1711 Co 0.20964 0.3314 0.89166 0.0
Co1712 Co 0.16167 0.32332 0.9388 0.0
O1713 O 0.2069 0.33771 0.92281 0.0
C1714 C 0.23826 0.40906 0.89816 0.0
O1715 O 0.21419 0.41382 0.91366 0.0
C1716 C 0.22479 0.29487 0.96649 0.0
O1717 O 0.24573 0.28853 0.94974 0.0
O1718 O 0.16448 0.27134 0.92706 0.0
O1719 O 0.17891 0.28476 0.89323 0.0
H1720 H 0.03544 0.26329 0.94678 0.0
H1721 H 0.28016 0.34237 0.91557 0.0
O1722 O 0.24048 0.37791 0.88847 0.0
H1723 H 0.29271 0.21893 0.88117 0.0
H1724 H 0.27388 0.3315 0.8204 0.0
H1725 H 0.1546 0.31191 0.85814 0.0
H1726 H 0.23579 0.2569 0.87597 0.0
H1727 H 0.27036 0.33877 0.85931 0.0
O1728 O 0.19185 0.30785 0.96432 0.0
H1729 H 0.09231 0.28242 0.92759 0.0
H1730 H 0.13525 0.33311 0.98359 0.0
H1731 H 0.15693 0.30398 0.81925 0.0
H1732 H 0.33782 0.30553 0.92098 0.0
H1733 H 0.21692 0.31379 0.80011 0.0
H1734 H 0.34428 0.24327 0.90376 0.0
O1735 O 0.16325 0.36155 0.88776 0.0
H1736 H 0.21461 0.43889 0.97298 0.0
H1737 H 0.10109 0.38068 0.94316 0.0
H1738 H 0.09798 0.44518 0.95694 0.0
H1739 H 0.15502 0.47468 0.97209 0.0
H1740 H 0.21658 0.37465 0.95866 0.0
H1741 H 0.07876 0.31441 1.00342 0.0
H1742 H 0.02822 0.27941 0.98498 0.0
O1743 O 0.1288 0.33891 0.91453 0.0
C1744 C 0.16654 0.26252 0.90744 0.0
C1745 C 0.05713 0.27866 0.95499 0.0
C1746 C 0.08151 0.30728 0.98678 0.0
N1747 N 0.11706 0.309 0.95441 0.0
C1748 C 0.08944 0.28959 0.94419 0.0
C1749 C 0.11349 0.31771 0.97547 0.0
C1750 C 0.05316 0.28765 0.97642 0.0
C1751 C 0.28295 0.31546 0.90787 0.0
N1752 N 0.25471 0.30186 0.89544 0.0
C1753 C 0.31558 0.29466 0.91106 0.0
C1754 C 0.31916 0.2597 0.90142 0.0
C1755 C 0.29022 0.24601 0.88877 0.0
C1756 C 0.25799 0.26758 0.88595 0.0
C1757 C 0.24761 0.327 0.82856 0.0
C1758 C 0.18087 0.31587 0.84997 0.0
C1759 C 0.24543 0.33112 0.8506 0.0
N1760 N 0.21239 0.32527 0.86105 0.0
C1761 C 0.18199 0.31151 0.82792 0.0
C1762 C 0.21565 0.31707 0.81719 0.0
C1763 C 0.13195 0.35679 0.89706 0.0
C1764 C 0.18955 0.42633 0.96646 0.0
C1765 C 0.12611 0.39341 0.94949 0.0
C1766 C 0.12413 0.4299 0.9574 0.0
C1767 C 0.15613 0.44641 0.96592 0.0
N1768 N 0.15899 0.37388 0.95006 0.0
C1769 C 0.19045 0.38989 0.95842 0.0
Co1770 Co 0.42458 0.45918 0.64256 0.0
Co1771 Co 0.43289 0.41066 0.68948 0.0
O1772 O 0.41828 0.45607 0.67369 0.0
C1773 C 0.34682 0.48767 0.64903 0.0
O1774 O 0.34204 0.46359 0.66452 0.0
C1775 C 0.46044 0.47369 0.71775 0.0
O1776 O 0.46649 0.49518 0.70119 0.0
O1777 O 0.48491 0.4139 0.6778 0.0
O1778 O 0.47127 0.42849 0.64402 0.0
H1779 H 0.4938 0.28474 0.69701 0.0
H1780 H 0.41345 0.52943 0.66671 0.0
O1781 O 0.37802 0.48998 0.63941 0.0
H1782 H 0.53683 0.5426 0.63243 0.0
H1783 H 0.42444 0.52427 0.57153 0.0
H1784 H 0.44404 0.4045 0.60882 0.0
H1785 H 0.49902 0.48566 0.627 0.0
H1786 H 0.41719 0.5203 0.61043 0.0
O1787 O 0.44804 0.44057 0.71525 0.0
H1788 H 0.47438 0.34175 0.67804 0.0
H1789 H 0.42288 0.38346 0.7341 0.0
H1790 H 0.45195 0.40729 0.56995 0.0
H1791 H 0.45014 0.58711 0.67235 0.0
H1792 H 0.44213 0.46752 0.55103 0.0
H1793 H 0.51237 0.5939 0.65518 0.0
O1794 O 0.39453 0.41277 0.63848 0.0
H1795 H 0.31684 0.46234 0.72375 0.0
H1796 H 0.37592 0.34967 0.69339 0.0
H1797 H 0.31141 0.34591 0.70705 0.0
H1798 H 0.28148 0.40251 0.72247 0.0
H1799 H 0.3811 0.46496 0.70954 0.0
H1800 H 0.44178 0.32676 0.75369 0.0
H1801 H 0.4773 0.27675 0.73511 0.0
O1802 O 0.41758 0.37802 0.66502 0.0
C1803 C 0.49361 0.41603 0.65816 0.0
C1804 C 0.47818 0.30617 0.70528 0.0
C1805 C 0.44906 0.32983 0.73709 0.0
N1806 N 0.4474 0.3659 0.7049 0.0
C1807 C 0.4671 0.33858 0.69461 0.0
C1808 C 0.43852 0.36193 0.72592 0.0
C1809 C 0.46899 0.30178 0.72665 0.0
C1810 C 0.44035 0.53236 0.65904 0.0
N1811 N 0.45402 0.50428 0.64651 0.0
C1812 C 0.46106 0.565 0.66235 0.0
C1813 C 0.496 0.56876 0.65275 0.0
C1814 C 0.50977 0.53998 0.64 0.0
C1815 C 0.48828 0.50773 0.63705 0.0
C1816 C 0.42895 0.4979 0.5796 0.0
C1817 C 0.44008 0.43089 0.60075 0.0
C1818 C 0.42485 0.49546 0.60163 0.0
N1819 N 0.4307 0.46229 0.61195 0.0
C1820 C 0.44444 0.43226 0.57871 0.0
C1821 C 0.43887 0.46605 0.56811 0.0
C1822 C 0.39954 0.38133 0.6476 0.0
C1823 C 0.3296 0.43746 0.71711 0.0
C1824 C 0.363 0.3745 0.69985 0.0
C1825 C 0.32651 0.37216 0.70768 0.0
C1826 C 0.30975 0.40391 0.71635 0.0
N1827 N 0.38231 0.40751 0.70064 0.0
C1828 C 0.36605 0.43873 0.70913 0.0
Co1829 Co 0.29603 0.67371 0.39193 0.0
Co1830 Co 0.34369 0.68151 0.43923 0.0
O1831 O 0.2985 0.66757 0.42308 0.0
C1832 C 0.26811 0.59598 0.39828 0.0
O1833 O 0.29294 0.59124 0.4134 0.0
C1834 C 0.2801 0.70924 0.46704 0.0
O1835 O 0.25842 0.71405 0.45043 0.0
O1836 O 0.34167 0.7335 0.42736 0.0
O1837 O 0.32693 0.72021 0.39352 0.0
H1838 H 0.47026 0.7403 0.44775 0.0
H1839 H 0.22518 0.66299 0.41555 0.0
O1840 O 0.26513 0.62726 0.3888 0.0
H1841 H 0.21348 0.78644 0.38112 0.0
H1842 H 0.23218 0.67333 0.32054 0.0
H1843 H 0.35132 0.69281 0.35849 0.0
H1844 H 0.27032 0.74828 0.37616 0.0
H1845 H 0.23547 0.66629 0.35947 0.0
O1846 O 0.31348 0.6975 0.46469 0.0
H1847 H 0.41351 0.72174 0.42833 0.0
H1848 H 0.36949 0.67131 0.48411 0.0
H1849 H 0.34921 0.70051 0.31958 0.0
H1850 H 0.16758 0.70002 0.42071 0.0
H1851 H 0.28929 0.69075 0.30033 0.0
H1852 H 0.16153 0.76228 0.40347 0.0
O1853 O 0.34231 0.64339 0.38814 0.0
H1854 H 0.28883 0.56654 0.47307 0.0
H1855 H 0.40353 0.6235 0.444 0.0
H1856 H 0.40568 0.55898 0.45778 0.0
H1857 H 0.34805 0.53011 0.47255 0.0
H1858 H 0.28783 0.63076 0.45876 0.0
H1859 H 0.42599 0.6893 0.50415 0.0
H1860 H 0.47705 0.72383 0.48595 0.0
O1861 O 0.37668 0.66539 0.41513 0.0
C1862 C 0.33964 0.74231 0.40772 0.0
C1863 C 0.44841 0.72508 0.45587 0.0
C1864 C 0.42347 0.69654 0.48751 0.0
N1865 N 0.38824 0.69533 0.45502 0.0
C1866 C 0.41613 0.71449 0.44493 0.0
C1867 C 0.3915 0.68651 0.47608 0.0
C1868 C 0.45211 0.71593 0.47729 0.0
C1869 C 0.22258 0.6899 0.40784 0.0
N1870 N 0.25103 0.70341 0.39555 0.0
C1871 C 0.18998 0.71081 0.41089 0.0
C1872 C 0.18663 0.74577 0.40125 0.0
C1873 C 0.21578 0.75936 0.38872 0.0
C1874 C 0.24798 0.73769 0.38605 0.0
C1875 C 0.25842 0.67781 0.32875 0.0
C1876 C 0.32507 0.68889 0.35027 0.0
C1877 C 0.26047 0.67383 0.3508 0.0
N1878 N 0.29347 0.67965 0.3613 0.0
C1879 C 0.32408 0.69312 0.32821 0.0
C1880 C 0.29047 0.68759 0.31742 0.0
C1881 C 0.37355 0.64771 0.39758 0.0
C1882 C 0.31415 0.57883 0.46672 0.0
C1883 C 0.37827 0.61105 0.45018 0.0
C1884 C 0.37969 0.57454 0.45808 0.0
C1885 C 0.34736 0.55838 0.46639 0.0
N1886 N 0.3456 0.63095 0.45055 0.0
C1887 C 0.3138 0.61528 0.45869 0.0
C1888 C 0.4643 0.96506 0.26396 0.0
C1889 C 0.46348 0.98945 0.28158 0.0
H1890 H 0.46417 0.95943 0.23 0.0
C1891 C 0.46389 0.02822 0.2778 0.0
H1892 H 0.46419 0.93501 0.26625 0.0
C1893 C 0.46352 0.0422 0.25697 0.0
C1894 C 0.46324 0.0178 0.23935 0.0
H1895 H 0.4632 0.04783 0.29092 0.0
H1896 H 0.46282 0.07224 0.25469 0.0
C1897 C 0.46443 0.97905 0.24313 0.0
C1898 C 0.29121 0.21345 0.51416 0.0
C1899 C 0.26655 0.2131 0.53165 0.0
H1900 H 0.29735 0.21284 0.48023 0.0
C1901 C 0.22786 0.21392 0.52768 0.0
H1902 H 0.32122 0.21304 0.5166 0.0
C1903 C 0.21421 0.21344 0.50678 0.0
C1904 C 0.23887 0.21265 0.4893 0.0
H1905 H 0.20807 0.2136 0.54071 0.0
H1906 H 0.1842 0.21304 0.50435 0.0
C1907 C 0.27756 0.21349 0.49326 0.0
C1908 C 0.04177 0.97672 0.77796 0.0
C1909 C 0.04183 0.01545 0.78184 0.0
H1910 H 0.04299 0.93293 0.75471 0.0
C1911 C 0.04042 0.04 0.76431 0.0
H1912 H 0.04292 0.95702 0.79102 0.0
C1913 C 0.04008 0.0262 0.74344 0.0
C1914 C 0.0417 0.98751 0.73956 0.0
H1915 H 0.04023 0.07003 0.7667 0.0
H1916 H 0.0399 0.04591 0.73037 0.0
C1917 C 0.04197 0.96294 0.75709 0.0
C1918 C 0.22904 0.79078 0.99378 0.0
C1919 C 0.26773 0.7921 0.9899 0.0
H1920 H 0.18522 0.79144 0.01701 0.0
C1921 C 0.29229 0.79237 1.00744 0.0
H1922 H 0.20933 0.7906 0.9807 0.0
C1923 C 0.2785 0.79249 0.02831 0.0
C1924 C 0.23978 0.79286 0.03218 0.0
H1925 H 0.3223 0.79316 1.00507 0.0
H1926 H 0.2982 0.79367 0.04138 0.0
C1927 C 0.21524 0.7914 0.01464 0.0
C1928 C 0.54247 0.96384 0.76441 0.0
C1929 C 0.54273 0.98843 0.78194 0.0
H1930 H 0.54275 0.95785 0.73047 0.0
C1931 C 0.54154 0.02714 0.77804 0.0
H1932 H 0.54317 0.93382 0.7668 0.0
C1933 C 0.54171 0.0409 0.75716 0.0
C1934 C 0.54249 0.01631 0.73964 0.0
H1935 H 0.54179 0.04688 0.79111 0.0
H1936 H 0.54182 0.07093 0.75477 0.0
C1937 C 0.54207 0.97759 0.74353 0.0
C1938 C 0.71211 0.78893 0.5085 0.0
C1939 C 0.73627 0.7887 0.4908 0.0
H1940 H 0.70701 0.79017 0.54248 0.0
C1941 C 0.77505 0.78754 0.49438 0.0
H1942 H 0.68204 0.78964 0.50633 0.0
C1943 C 0.78933 0.7883 0.51513 0.0
C1944 C 0.76518 0.78962 0.53283 0.0
H1945 H 0.79444 0.78745 0.48116 0.0
H1946 H 0.81941 0.78849 0.51729 0.0
C1947 C 0.72638 0.78907 0.52926 0.0
C1948 C 0.94318 0.01229 0.27023 0.0
C1949 C 0.977 0.02264 0.28006 0.0
H1950 H 0.9165 0.98577 0.24375 0.0
C1951 C 0.01086 0.01324 0.26995 0.0
H1952 H 0.91655 0.01941 0.2774 0.0
C1953 C 0.01083 0.99349 0.25063 0.0
C1954 C 0.97694 0.98353 0.24073 0.0
H1955 H 0.03739 0.02093 0.27704 0.0
H1956 H 0.03735 0.98624 0.24338 0.0
C1957 C 0.94314 0.99333 0.25076 0.0
C1958 C 0.79051 0.21641 1.00661 0.0
C1959 C 0.76643 0.21564 0.98887 0.0
H1960 H 0.79549 0.21683 0.0406 0.0
C1961 C 0.72763 0.21673 0.99237 0.0
H1962 H 0.82059 0.21581 1.0045 0.0
C1963 C 0.71326 0.21686 0.01311 0.0
C1964 C 0.73734 0.21655 0.03085 0.0
H1965 H 0.70829 0.21607 0.97911 0.0
H1966 H 0.68318 0.21656 0.01523 0.0
C1967 C 0.77615 0.21717 0.02734 0.0
C1968 C 0.9651 0.5406 0.75693 0.0
C1969 C 0.96417 0.51601 0.73941 0.0
H1970 H 0.96523 0.54657 0.79087 0.0
C1971 C 0.96477 0.4773 0.74327 0.0
H1972 H 0.96487 0.57063 0.75455 0.0
C1973 C 0.96457 0.46354 0.76414 0.0
C1974 C 0.96433 0.48814 0.78167 0.0
H1975 H 0.96401 0.45758 0.7302 0.0
H1976 H 0.96393 0.43352 0.76653 0.0
C1977 C 0.96546 0.52684 0.7778 0.0
C1978 C 0.72861 0.71435 0.02945 0.0
C1979 C 0.76728 0.71438 0.03352 0.0
H1980 H 0.68513 0.71302 1.00602 0.0
C1981 C 0.79203 0.71577 0.01609 0.0
H1982 H 0.70872 0.71323 0.04241 0.0
C1983 C 0.7785 0.71592 0.99515 0.0
C1984 C 0.73986 0.71425 0.99107 0.0
H1985 H 0.82202 0.716 0.01859 0.0
H1986 H 0.79839 0.71606 0.98216 0.0
C1987 C 0.7151 0.71407 1.00851 0.0
C1988 C 0.53968 0.54132 0.26431 0.0
C1989 C 0.54019 0.51656 0.28175 0.0
H1990 H 0.53984 0.5476 0.23039 0.0
C1991 C 0.53917 0.47789 0.27775 0.0
H1992 H 0.54024 0.57133 0.2668 0.0
C1993 C 0.53935 0.46432 0.25684 0.0
C1994 C 0.53998 0.48908 0.2394 0.0
H1995 H 0.53961 0.45805 0.29076 0.0
H1996 H 0.53966 0.43432 0.25435 0.0
C1997 C 0.53929 0.52776 0.2434 0.0
C1998 C 0.71239 0.2913 0.5132 0.0
C1999 C 0.73723 0.29043 0.53061 0.0
H2000 H 0.70587 0.2925 0.47931 0.0
C2001 C 0.77579 0.28784 0.52649 0.0
H2002 H 0.68246 0.29304 0.51573 0.0
C2003 C 0.78922 0.2878 0.50554 0.0
C2004 C 0.76442 0.28989 0.48814 0.0
H2005 H 0.79573 0.28713 0.53945 0.0
H2006 H 0.81918 0.28685 0.503 0.0
C2007 C 0.72579 0.29082 0.49225 0.0
C2008 C 0.0386 0.47015 0.26607 0.0
C2009 C 0.04051 0.49299 0.2843 0.0
H2010 H 0.0374 0.4675 0.23201 0.0
C2011 C 0.04099 0.53204 0.28163 0.0
H2012 H 0.03807 0.43994 0.26754 0.0
C2013 C 0.04115 0.54781 0.26122 0.0
C2014 C 0.04014 0.52493 0.24298 0.0
H2015 H 0.04261 0.55043 0.29529 0.0
H2016 H 0.0426 0.57799 0.25973 0.0
C2017 C 0.03809 0.48594 0.24567 0.0
C2018 C 0.29282 0.29044 0.01288 0.0
C2019 C 0.26846 0.29047 0.0305 0.0
H2020 H 0.29831 0.29112 0.97892 0.0
C2021 C 0.22973 0.28902 0.02679 0.0
H2022 H 0.32286 0.29135 0.01516 0.0
C2023 C 0.21569 0.28933 1.00598 0.0
C2024 C 0.24003 0.2905 0.98837 0.0
H2025 H 0.21019 0.2891 0.03994 0.0
H2026 H 0.18563 0.28936 1.00371 0.0
C2027 C 0.27879 0.29015 0.99207 0.0
C2028 C 0.46519 0.47743 0.77817 0.0
C2029 C 0.46501 0.51614 0.78214 0.0
H2030 H 0.46386 0.43376 0.75484 0.0
C2031 C 0.46602 0.54079 0.76465 0.0
H2032 H 0.46436 0.45764 0.7912 0.0
C2033 C 0.46607 0.52711 0.74375 0.0
C2034 C 0.46461 0.48843 0.73979 0.0
H2035 H 0.46609 0.57081 0.76709 0.0
H2036 H 0.46594 0.54691 0.73072 0.0
C2037 C 0.46475 0.46377 0.75728 0.0
C2038 C 0.27612 0.71515 0.52741 0.0
C2039 C 0.23747 0.71336 0.53133 0.0
H2040 H 0.31984 0.71523 0.50411 0.0
C2041 C 0.21284 0.71309 0.51382 0.0
H2042 H 0.29589 0.71535 0.54046 0.0
C2043 C 0.22652 0.7134 0.49294 0.0
C2044 C 0.26522 0.71348 0.48902 0.0
H2045 H 0.18285 0.71195 0.51623 0.0
H2046 H 0.20677 0.7122 0.4799 0.0
C2047 C 0.28983 0.71495 0.50652 0.0
C2048 C 0.30901 0.98872 0.12013 0.0
C2049 C 0.31594 0.99531 0.14181 0.0
H2050 H 0.27742 0.95764 0.09703 0.0
C2051 C 0.29528 0.97566 0.1571 0.0
H2052 H 0.32476 0.00358 0.10808 0.0
C2053 C 0.26928 0.94854 0.15079 0.0
C2054 C 0.26255 0.94174 0.1291 0.0
H2055 H 0.3004 0.9801 0.17389 0.0
H2056 H 0.25458 0.93265 0.16285 0.0
C2057 C 0.28198 0.96263 0.11382 0.0
C2058 C 0.26896 0.05717 0.37052 0.0
C2059 C 0.26285 0.06438 0.39221 0.0
H2060 H 0.29979 0.02554 0.34733 0.0
C2061 C 0.28313 0.04417 0.40744 0.0
H2062 H 0.25363 0.07257 0.3585 0.0
C2063 C 0.31036 0.01834 0.40104 0.0
C2064 C 0.31668 0.01133 0.37934 0.0
H2065 H 0.27908 0.04951 0.42423 0.0
H2066 H 0.32672 0.004 0.41304 0.0
C2067 C 0.29518 0.03031 0.36413 0.0
C2068 C 0.20974 0.03277 0.65757 0.0
C2069 C 0.18949 0.01254 0.64232 0.0
H2070 H 0.24999 0.07626 0.66322 0.0
C2071 C 0.19671 0.01871 0.62064 0.0
H2072 H 0.2044 0.02869 0.67436 0.0
C2073 C 0.22363 0.04489 0.61428 0.0
C2074 C 0.24266 0.06631 0.62951 0.0
H2075 H 0.18128 0.00344 0.6086 0.0
H2076 H 0.22841 0.04951 0.59748 0.0
C2077 C 0.23562 0.05996 0.6512 0.0
C2078 C 0.21057 0.97289 0.86416 0.0
C2079 C 0.18955 0.99247 0.87934 0.0
H2080 H 0.25159 0.93007 0.85862 0.0
C2081 C 0.19618 0.9859 0.90106 0.0
H2082 H 0.20571 0.9773 0.84735 0.0
C2083 C 0.22327 0.95994 0.9075 0.0
C2084 C 0.24308 0.93915 0.89232 0.0
H2085 H 0.18019 1.0007 0.91304 0.0
H2086 H 0.22758 0.95498 0.92431 0.0
C2087 C 0.23662 0.9459 0.87061 0.0
C2088 C 0.72368 0.04569 0.90753 0.0
C2089 C 0.74344 0.0662 0.89221 0.0
H2090 H 0.68058 0.0051 0.91333 0.0
C2091 C 0.73693 0.05908 0.87055 0.0
H2092 H 0.72804 0.05096 0.92431 0.0
C2093 C 0.71083 0.032 0.86427 0.0
C2094 C 0.68986 0.01272 0.87958 0.0
H2095 H 0.75185 0.0747 0.85846 0.0
H2096 H 0.7059 0.02731 0.84749 0.0
C2097 C 0.69656 0.01965 0.90125 0.0
C2098 C 0.69577 0.98579 0.62033 0.0
C2099 C 0.68906 0.99273 0.64199 0.0
H2100 H 0.72725 0.95447 0.59728 0.0
C2101 C 0.71003 0.97344 0.65731 0.0
H2102 H 0.67979 1.00036 0.60824 0.0
C2103 C 0.73612 0.94635 0.65105 0.0
C2104 C 0.74263 0.93922 0.62938 0.0
H2105 H 0.70509 0.97813 0.67409 0.0
H2106 H 0.75103 0.93072 0.66314 0.0
C2107 C 0.72289 0.95974 0.61406 0.0
C2108 C 0.768 0.94533 0.37394 0.0
C2109 C 0.76138 0.93693 0.39543 0.0
H2110 H 0.79961 0.97795 0.3516 0.0
C2111 C 0.78156 0.95594 0.4112 0.0
H2112 H 0.75277 0.9308 0.36153 0.0
C2113 C 0.80921 0.98181 0.40549 0.0
C2114 C 0.81602 0.99001 0.38399 0.0
H2115 H 0.77711 0.9496 0.42784 0.0
H2116 H 0.82549 0.99523 0.41787 0.0
C2117 C 0.79462 0.97223 0.36827 0.0
C2118 C 0.76776 0.06073 0.14806 0.0
C2119 C 0.76022 0.0685 0.12659 0.0
H2120 H 0.79987 0.02828 0.17027 0.0
C2121 C 0.77914 0.04844 0.11074 0.0
H2122 H 0.75348 0.07603 0.16053 0.0
C2123 C 0.80652 0.02219 0.1163 0.0
C2124 C 0.81428 0.01464 0.13778 0.0
H2125 H 0.77395 0.05425 0.0941 0.0
H2126 H 0.8219 0.008 0.10383 0.0
C2127 C 0.79409 0.03345 0.15362 0.0
C2128 C 0.78186 0.45963 0.61387 0.0
C2129 C 0.76283 0.43796 0.62897 0.0
H2130 H 0.82417 0.50121 0.60845 0.0
C2131 C 0.76985 0.44396 0.6507 0.0
H2132 H 0.77708 0.45528 0.59705 0.0
C2133 C 0.7957 0.47107 0.65724 0.0
C2134 C 0.81594 0.49156 0.64212 0.0
H2135 H 0.75548 0.42747 0.66263 0.0
H2136 H 0.80103 0.47489 0.67406 0.0
C2137 C 0.80875 0.48573 0.62039 0.0
C2138 C 0.80947 0.51938 0.90088 0.0
C2139 C 0.81665 0.51373 0.87914 0.0
H2140 H 0.77795 0.5498 0.9243 0.0
C2141 C 0.79654 0.53449 0.86407 0.0
H2142 H 0.82479 0.50369 0.91278 0.0
C2143 C 0.77084 0.5617 0.87068 0.0
C2144 C 0.76383 0.56753 0.89243 0.0
H2145 H 0.80187 0.53081 0.84725 0.0
H2146 H 0.75658 0.57839 0.8588 0.0
C2147 C 0.78272 0.54558 0.90747 0.0
C2148 C 0.72485 0.54671 0.11582 0.0
C2149 C 0.74326 0.56829 0.13122 0.0
H2150 H 0.68268 0.50525 0.10972 0.0
C2151 C 0.73528 0.56222 0.15284 0.0
H2152 H 0.73036 0.5511 0.09908 0.0
C2153 C 0.70909 0.53513 0.15896 0.0
C2154 C 0.68948 0.51474 0.14351 0.0
H2155 H 0.74917 0.57862 0.16499 0.0
H2156 H 0.70302 0.53126 0.17568 0.0
C2157 C 0.69762 0.52064 0.12191 0.0
C2158 C 0.73515 0.44308 0.36915 0.0
C2159 C 0.74225 0.43629 0.3908 0.0
H2160 H 0.70377 0.47477 0.34623 0.0
C2161 C 0.72313 0.45728 0.40618 0.0
H2162 H 0.74958 0.42713 0.35701 0.0
C2163 C 0.69609 0.4835 0.40002 0.0
C2164 C 0.68883 0.49013 0.37838 0.0
H2165 H 0.72796 0.45231 0.42294 0.0
H2166 H 0.68063 0.49845 0.41216 0.0
C2167 C 0.70914 0.47032 0.36298 0.0
C2168 C 0.19698 0.51793 0.40132 0.0
C2169 C 0.18957 0.51134 0.37969 0.0
H2170 H 0.22892 0.54919 0.42419 0.0
C2171 C 0.2097 0.5312 0.36425 0.0
H2172 H 0.18164 0.50293 0.41348 0.0
C2173 C 0.23565 0.55849 0.37038 0.0
C2174 C 0.24287 0.56528 0.39201 0.0
H2175 H 0.20418 0.52679 0.34751 0.0
H2176 H 0.24992 0.57454 0.35822 0.0
C2177 C 0.22398 0.5442 0.40743 0.0
C2178 C 0.24793 0.47745 0.1157 0.0
C2179 C 0.24447 0.44256 0.12581 0.0
H2180 H 0.22472 0.53215 0.11107 0.0
C2181 C 0.21494 0.43716 0.14029 0.0
H2182 H 0.27039 0.48257 0.10452 0.0
C2183 C 0.18899 0.46561 0.14419 0.0
C2184 C 0.19175 0.50014 0.13362 0.0
H2185 H 0.21154 0.41074 0.1485 0.0
H2186 H 0.16618 0.46011 0.15509 0.0
C2187 C 0.22177 0.50589 0.11951 0.0
C2188 C 0.29671 0.47351 0.86394 0.0
C2189 C 0.31766 0.49278 0.87928 0.0
H2190 H 0.25557 0.43096 0.85805 0.0
C2191 C 0.31081 0.4859 0.90094 0.0
H2192 H 0.30173 0.47817 0.84716 0.0
C2193 C 0.28357 0.45996 0.90717 0.0
C2194 C 0.26381 0.43949 0.89182 0.0
H2195 H 0.32675 0.50044 0.91305 0.0
H2196 H 0.27909 0.45476 0.92394 0.0
C2197 C 0.27049 0.44654 0.87016 0.0
C2198 C 0.30908 0.51885 0.62076 0.0
C2199 C 0.31626 0.5129 0.64247 0.0
H2200 H 0.27722 0.54922 0.59748 0.0
C2201 C 0.29579 0.53308 0.65764 0.0
H2202 H 0.32467 0.5036 0.60879 0.0
C2203 C 0.2697 0.56002 0.65116 0.0
C2204 C 0.26269 0.56614 0.62944 0.0
H2205 H 0.30109 0.52916 0.67444 0.0
H2206 H 0.25515 0.57629 0.66312 0.0
C2207 C 0.28197 0.54476 0.61429 0.0
C2208 C 0.38445 0.19454 0.14932 0.0
C2209 C 0.38379 0.16103 0.13762 0.0
H2210 H 0.37152 0.25261 0.15039 0.0
C2211 C 0.36965 0.16185 0.11669 0.0
H2212 H 0.39566 0.19549 0.16529 0.0
C2213 C 0.35615 0.19548 0.10787 0.0
C2214 C 0.35597 0.22854 0.12 0.0
H2215 H 0.36912 0.13663 0.10714 0.0
H2216 H 0.34519 0.19545 0.09182 0.0
C2217 C 0.37053 0.22756 0.14072 0.0
C2218 C 0.0624 0.13517 0.39962 0.0
C2219 C 0.0961 0.13151 0.3883 0.0
H2220 H 0.00421 0.12326 0.40121 0.0
C2221 C 0.09545 0.11318 0.36844 0.0
H2222 H 0.0613 0.14961 0.41473 0.0
C2223 C 0.06181 0.09823 0.36042 0.0
C2224 C 0.02864 0.10089 0.37234 0.0
H2225 H 0.12084 0.11025 0.35919 0.0
H2226 H 0.06194 0.08382 0.34527 0.0
C2227 C 0.02939 0.11993 0.39184 0.0
C2228 C 0.1369 0.84538 0.61689 0.0
C2229 C 0.12037 0.84589 0.63725 0.0
H2230 H 0.16368 0.81193 0.59271 0.0
C2231 C 0.11736 0.81201 0.64847 0.0
H2232 H 0.13927 0.8709 0.6077 0.0
C2233 C 0.13147 0.77894 0.64007 0.0
C2234 C 0.14864 0.77831 0.62002 0.0
H2235 H 0.10428 0.81081 0.66396 0.0
H2236 H 0.12871 0.75361 0.64937 0.0
C2237 C 0.15067 0.8117 0.60825 0.0
C2238 C 0.47627 0.88341 0.89098 0.0
C2239 C 0.47695 0.90014 0.87081 0.0
H2240 H 0.44448 0.85617 0.91488 0.0
C2241 C 0.44371 0.90149 0.85888 0.0
H2242 H 0.5015 0.88114 0.90042 0.0
C2243 C 0.41012 0.88743 0.86745 0.0
C2244 C 0.40957 0.87125 0.8879 0.0
H2245 H 0.44352 0.91411 0.84323 0.0
H2246 H 0.38471 0.88923 0.85811 0.0
C2247 C 0.4433 0.86898 0.89931 0.0
C2248 C 0.35533 0.81111 0.41222 0.0
C2249 C 0.35568 0.77809 0.40005 0.0
H2250 H 0.36822 0.86996 0.41321 0.0
C2251 C 0.37116 0.77914 0.37955 0.0
H2252 H 0.34366 0.81106 0.42811 0.0
C2253 C 0.38542 0.81219 0.3712 0.0
C2254 C 0.38421 0.84566 0.38291 0.0
H2255 H 0.37261 0.75414 0.36986 0.0
H2256 H 0.3973 0.81129 0.35538 0.0
C2257 C 0.36919 0.84477 0.40364 0.0
C2258 C 0.40927 0.11819 0.65419 0.0
C2259 C 0.40862 0.13408 0.63367 0.0
H2260 H 0.44276 0.09175 0.67846 0.0
C2261 C 0.44226 0.13602 0.62217 0.0
H2262 H 0.38393 0.11665 0.66359 0.0
C2263 C 0.47524 0.12158 0.63049 0.0
C2264 C 0.47604 0.10515 0.65074 0.0
H2265 H 0.44336 0.14859 0.60653 0.0
H2266 H 0.50039 0.12361 0.62098 0.0
C2267 C 0.44287 0.10412 0.66275 0.0
C2268 C 0.12078 0.19228 0.87114 0.0
C2269 C 0.12217 0.1589 0.88292 0.0
H2270 H 0.13345 0.25034 0.86965 0.0
C2271 C 0.1374 0.15994 0.90359 0.0
H2272 H 0.1087 0.19307 0.85537 0.0
C2273 C 0.15127 0.1937 0.91207 0.0
C2274 C 0.15071 0.22662 0.89982 0.0
H2275 H 0.13851 0.13483 0.9132 0.0
H2276 H 0.16306 0.19389 0.92792 0.0
C2277 C 0.13506 0.22541 0.87937 0.0
C2278 C 0.06289 0.87395 0.12045 0.0
C2279 C 0.09619 0.87628 0.13224 0.0
H2280 H 0.00492 0.88638 0.11849 0.0
C2281 C 0.09503 0.8931 0.15252 0.0
H2282 H 0.06217 0.86069 0.10498 0.0
C2283 C 0.06123 0.90768 0.16055 0.0
C2284 C 0.02841 0.90618 0.14823 0.0
H2285 H 0.12009 0.89496 0.16214 0.0
H2286 H 0.06094 0.92076 0.17608 0.0
C2287 C 0.02975 0.88882 0.12824 0.0
C2288 C 0.65128 0.81309 0.91367 0.0
C2289 C 0.64977 0.77965 0.90191 0.0
H2290 H 0.63932 0.87218 0.91413 0.0
C2291 C 0.63292 0.7801 0.88176 0.0
H2292 H 0.66403 0.81349 0.92929 0.0
C2293 C 0.61866 0.81302 0.87326 0.0
C2294 C 0.62115 0.84694 0.88448 0.0
H2295 H 0.63054 0.75473 0.87245 0.0
H2296 H 0.60586 0.81168 0.85768 0.0
C2297 C 0.63734 0.84662 0.90494 0.0
C2298 C 0.9433 0.9007 0.66269 0.0
C2299 C 0.97628 0.90012 0.6505 0.0
H2300 H 0.88445 0.8879 0.66374 0.0
C2301 C 0.97518 0.88434 0.63008 0.0
H2302 H 0.9434 0.91257 0.67853 0.0
C2303 C 0.94212 0.86999 0.6218 0.0
C2304 C 0.90869 0.87141 0.63352 0.0
H2305 H 1.00017 0.88267 0.6204 0.0
H2306 H 0.94301 0.85783 0.60605 0.0
C2307 C 0.90962 0.88676 0.65417 0.0
C2308 C 0.85755 0.19163 0.41222 0.0
C2309 C 0.85507 0.22313 0.39892 0.0
H2310 H 0.87268 0.1336 0.41484 0.0
C2311 C 0.86739 0.21997 0.37777 0.0
H2312 H 0.84837 0.1932 0.4286 0.0
C2313 C 0.88171 0.18638 0.37002 0.0
C2314 C 0.88356 0.15453 0.38304 0.0
H2315 H 0.86645 0.24373 0.36711 0.0
H2316 H 0.89126 0.18552 0.3537 0.0
C2317 C 0.87133 0.15751 0.40429 0.0
C2318 C 0.56146 0.13939 0.12155 0.0
C2319 C 0.59536 0.13727 0.13279 0.0
H2320 H 0.50325 0.12727 0.12082 0.0
C2321 C 0.59512 0.12144 0.15334 0.0
H2322 H 0.56007 0.15189 0.1059 0.0
C2323 C 0.56167 0.10751 0.16216 0.0
C2324 C 0.52824 0.10867 0.15039 0.0
H2325 H 0.62067 0.11977 0.16255 0.0
H2326 H 0.56213 0.09507 0.17785 0.0
C2327 C 0.52861 0.12515 0.13014 0.0
C2328 C 0.63202 0.22533 0.64013 0.0
C2329 C 0.6485 0.22594 0.61989 0.0
H2330 H 0.60535 0.19356 0.66426 0.0
C2331 C 0.64982 0.19259 0.60803 0.0
H2332 H 0.62981 0.25062 0.64953 0.0
C2333 C 0.63603 0.159 0.61676 0.0
C2334 C 0.62017 0.15852 0.63729 0.0
H2335 H 0.66227 0.19232 0.59235 0.0
H2336 H 0.63783 0.13352 0.60748 0.0
C2337 C 0.61789 0.19234 0.64862 0.0
C2338 C 0.56258 0.89931 0.35914 0.0
C2339 C 0.5289 0.8976 0.37064 0.0
H2340 H 0.62163 0.88727 0.35904 0.0
C2341 C 0.52885 0.88027 0.39065 0.0
H2342 H 0.56335 0.91242 0.34363 0.0
C2343 C 0.56155 0.86576 0.3993 0.0
C2344 C 0.59571 0.86848 0.38836 0.0
H2345 H 0.50328 0.87771 0.39975 0.0
H2346 H 0.55985 0.85263 0.41478 0.0
C2347 C 0.59588 0.88512 0.36803 0.0
C2348 C 0.85924 0.81185 0.10912 0.0
C2349 C 0.85769 0.78031 0.12243 0.0
H2350 H 0.87276 0.87027 0.10647 0.0
C2351 C 0.87021 0.78374 0.14353 0.0
H2352 H 0.84981 0.81006 0.09279 0.0
C2353 C 0.88372 0.81771 0.15125 0.0
C2354 C 0.88452 0.84963 0.13824 0.0
H2355 H 0.86995 0.75995 0.15417 0.0
H2356 H 0.8934 0.81881 0.16753 0.0
C2357 C 0.87219 0.84633 0.11702 0.0
C2358 C 0.94383 0.10495 0.85862 0.0
C2359 C 0.97697 0.10588 0.87066 0.0
H2360 H 0.88488 0.11738 0.85778 0.0
C2361 C 0.97611 0.12202 0.89099 0.0
H2362 H 0.94375 0.09277 0.84286 0.0
C2363 C 0.94308 0.13629 0.89936 0.0
C2364 C 0.90947 0.13445 0.88782 0.0
H2365 H 1.00123 0.12395 0.90055 0.0
H2366 H 0.94411 0.14864 0.91506 0.0
C2367 C 0.91019 0.11884 0.86722 0.0
C2368 C 0.85407 0.69306 0.60898 0.0
C2369 C 0.85515 0.72615 0.62107 0.0
H2370 H 0.86638 0.63407 0.60801 0.0
C2371 C 0.87137 0.72516 0.64138 0.0
H2372 H 0.84184 0.6931 0.59323 0.0
C2373 C 0.88563 0.69206 0.64965 0.0
C2374 C 0.88367 0.65849 0.63804 0.0
H2375 H 0.87339 0.75024 0.65097 0.0
H2376 H 0.8981 0.69301 0.66531 0.0
C2377 C 0.86793 0.65934 0.61749 0.0
C2378 C 0.56439 0.6357 0.90049 0.0
C2379 C 0.59794 0.63456 0.88887 0.0
H2380 H 0.50639 0.62276 0.90169 0.0
C2381 C 0.59722 0.61949 0.86814 0.0
H2382 H 0.56334 0.64762 0.9163 0.0
C2383 C 0.56366 0.60552 0.85948 0.0
C2384 C 0.53057 0.6058 0.87157 0.0
H2385 H 0.62247 0.61857 0.85864 0.0
H2386 H 0.56375 0.59384 0.84359 0.0
C2387 C 0.53145 0.62134 0.89207 0.0
C2388 C 0.63638 0.34861 0.11659 0.0
C2389 C 0.61946 0.34873 0.13684 0.0
H2390 H 0.66362 0.31563 0.09236 0.0
C2391 C 0.61628 0.31465 0.14785 0.0
H2392 H 0.63889 0.37429 0.10756 0.0
C2393 C 0.63062 0.28175 0.13934 0.0
C2394 C 0.64816 0.28152 0.1194 0.0
H2395 H 0.60288 0.31315 0.16325 0.0
H2396 H 0.62772 0.25623 0.14847 0.0
C2397 C 0.65034 0.31511 0.10783 0.0
C2398 C 0.94186 0.36878 0.3995 0.0
C2399 C 0.90871 0.36991 0.38751 0.0
H2400 H 0.99974 0.38207 0.40139 0.0
C2401 C 0.90995 0.38539 0.3669 0.0
H2402 H 0.9425 0.35653 0.41522 0.0
C2403 C 0.94368 0.39968 0.35868 0.0
C2404 C 0.97638 0.39934 0.37112 0.0
H2405 H 0.885 0.38631 0.35714 0.0
H2406 H 0.94403 0.41157 0.34286 0.0
C2407 C 0.97497 0.38352 0.39152 0.0
C2408 C 0.86842 0.34608 0.90402 0.0
C2409 C 0.88468 0.34663 0.8836 0.0
H2410 H 0.84178 0.31262 0.92822 0.0
C2411 C 0.88716 0.31287 0.87222 0.0
H2412 H 0.86646 0.37151 0.91333 0.0
C2413 C 0.87284 0.27985 0.88055 0.0
C2414 C 0.85602 0.27916 0.90069 0.0
H2415 H 0.90005 0.3117 0.85667 0.0
H2416 H 0.87525 0.2546 0.87113 0.0
C2417 C 0.85448 0.31244 0.9126 0.0
C2418 C 0.944 0.60698 0.16531 0.0
C2419 C 0.97634 0.60353 0.15272 0.0
H2420 H 0.886 0.62305 0.16644 0.0
C2421 C 0.97467 0.61452 0.13131 0.0
H2422 H 0.94451 0.59893 0.18189 0.0
C2423 C 0.94188 0.62894 0.12268 0.0
C2424 C 0.90923 0.63203 0.13498 0.0
H2425 H 0.99911 0.61296 0.1212 0.0
H2426 H 0.94244 0.63794 0.10628 0.0
C2427 C 0.91054 0.6207 0.15643 0.0
C2428 C 0.6182 0.69067 0.37298 0.0
C2429 C 0.62052 0.65676 0.38422 0.0
H2430 H 0.6301 0.74895 0.37221 0.0
C2431 C 0.63652 0.65706 0.40472 0.0
H2432 H 0.60552 0.69204 0.35738 0.0
C2433 C 0.65033 0.69059 0.41351 0.0
C2434 C 0.64893 0.72402 0.40175 0.0
H2435 H 0.63835 0.63151 0.41393 0.0
H2436 H 0.66282 0.69022 0.4292 0.0
C2437 C 0.6324 0.72358 0.38153 0.0
C2438 C 0.56298 0.36982 0.6215 0.0
C2439 C 0.59662 0.37116 0.63304 0.0
H2440 H 0.50494 0.38262 0.62039 0.0
C2441 C 0.59604 0.38646 0.65372 0.0
H2442 H 0.56181 0.35772 0.60575 0.0
C2443 C 0.56251 0.40046 0.66241 0.0
C2444 C 0.52933 0.39998 0.65039 0.0
H2445 H 0.62137 0.38753 0.66315 0.0
H2446 H 0.56269 0.41232 0.67825 0.0
C2447 C 0.53007 0.38421 0.62995 0.0
C2448 C 0.13619 0.34395 0.40394 0.0
C2449 C 0.12157 0.34521 0.38313 0.0
H2450 H 0.16124 0.30985 0.42838 0.0
C2451 C 0.12078 0.31202 0.37116 0.0
H2452 H 0.13684 0.36893 0.41369 0.0
C2453 C 0.13501 0.27884 0.3794 0.0
C2454 C 0.14998 0.27741 0.40002 0.0
H2455 H 0.10923 0.31143 0.35527 0.0
H2456 H 0.13387 0.25404 0.36953 0.0
C2457 C 0.14998 0.31018 0.4124 0.0
C2458 C 0.40874 0.38903 0.15306 0.0
C2459 C 0.40806 0.37455 0.1322 0.0
H2460 H 0.44218 0.41418 0.1778 0.0
C2461 C 0.44151 0.37429 0.12047 0.0
H2462 H 0.38357 0.38927 0.16264 0.0
C2463 C 0.47432 0.38883 0.12893 0.0
C2464 C 0.47524 0.4036 0.14959 0.0
H2465 H 0.44264 0.36281 0.10456 0.0
H2466 H 0.4993 0.38796 0.11921 0.0
C2467 C 0.44223 0.40313 0.16178 0.0
C2468 C 0.37256 0.72551 0.88048 0.0
C2469 C 0.35641 0.72639 0.90081 0.0
H2470 H 0.39943 0.69354 0.85649 0.0
C2471 C 0.35558 0.69327 0.91287 0.0
H2472 H 0.37441 0.75061 0.87091 0.0
C2473 C 0.36963 0.65964 0.90431 0.0
C2474 C 0.38532 0.65892 0.88374 0.0
H2475 H 0.34341 0.6932 0.92863 0.0
H2476 H 0.36828 0.63436 0.91377 0.0
C2477 C 0.38702 0.6925 0.87217 0.0
C2478 C 0.06172 0.60413 0.66264 0.0
C2479 C 0.02856 0.60503 0.6506 0.0
H2480 H 0.12068 0.61658 0.66345 0.0
C2481 C 0.02941 0.62109 0.63026 0.0
H2482 H 0.0618 0.59202 0.67841 0.0
C2483 C 0.06242 0.63532 0.62188 0.0
C2484 C 0.09605 0.63353 0.63342 0.0
H2485 H 0.00429 0.623 0.62071 0.0
H2486 H 0.06135 0.64763 0.60618 0.0
C2487 C 0.09536 0.61799 0.65402 0.0
C2488 C 0.11257 0.69977 0.14985 0.0
C2489 C 0.11781 0.66477 0.14009 0.0
H2490 H 0.12274 0.75847 0.14896 0.0
C2491 C 0.13655 0.66338 0.12037 0.0
H2492 H 0.09778 0.70234 0.16479 0.0
C2493 C 0.15063 0.69628 0.11103 0.0
C2494 C 0.14664 0.73082 0.12146 0.0
H2495 H 0.14069 0.63692 0.11229 0.0
H2496 H 0.16563 0.69456 0.09611 0.0
C2497 C 0.12696 0.73216 0.14075 0.0
C2498 C 0.09611 0.38739 0.86684 0.0
C2499 C 0.09704 0.37185 0.88744 0.0
H2500 H 0.06228 0.41331 0.84255 0.0
C2501 C 0.06356 0.37012 0.8991 0.0
H2502 H 0.12131 0.38876 0.85731 0.0
C2503 C 0.03046 0.38439 0.89085 0.0
C2504 C 0.02937 0.40038 0.87049 0.0
H2505 H 0.06268 0.3578 0.91481 0.0
H2506 H 0.00545 0.38251 0.90049 0.0
C2507 C 0.06238 0.40126 0.85834 0.0
C2508 C 0.3725 0.27973 0.64086 0.0
C2509 C 0.35579 0.27903 0.62067 0.0
H2510 H 0.39967 0.31157 0.66479 0.0
C2511 C 0.3544 0.3123 0.60877 0.0
H2512 H 0.37478 0.25449 0.65029 0.0
C2513 C 0.3684 0.34592 0.61737 0.0
C2514 C 0.38456 0.34649 0.63783 0.0
H2515 H 0.34178 0.3125 0.59312 0.0
H2516 H 0.36656 0.37134 0.60805 0.0
C2517 C 0.38688 0.31273 0.64921 0.0
C2518 C 0.44301 0.60344 0.35875 0.0
C2519 C 0.47585 0.60334 0.37107 0.0
H2520 H 0.38432 0.61691 0.35757 0.0
C2521 C 0.47466 0.6185 0.39164 0.0
H2522 H 0.44318 0.59206 0.3428 0.0
C2523 C 0.44165 0.63301 0.3999 0.0
C2524 C 0.40836 0.6323 0.38803 0.0
H2525 H 0.49954 0.61962 0.40144 0.0
H2526 H 0.44246 0.64474 0.41575 0.0
C2527 C 0.40937 0.61749 0.36725 0.0
loop_
_geom_bond_atom_site_label_1
_geom_bond_atom_site_label_2
_geom_bond_distance
_geom_bond_site_symmetry_2
_ccdc_geom_bond_type
Co0 O2 2.143 . S
Co0 O8 2.074 . S
Co0 O11 2.093 . S
Co0 O24 2.097 . S
Co0 N41 2.151 1_545 S
Co0 N49 2.214 . S
Co1 O2 2.160 . S
Co1 O7 2.058 . S
Co1 O17 2.057 . S
Co1 O32 2.037 . S
Co1 N36 2.145 . S
Co1 N57 2.257 . S
O2 Co0 2.143 . S
O2 Co1 2.160 . S
C3 O4 1.278 1_565 S
C3 O11 1.224 1_565 S
O4 C3 1.278 1_545 S
C5 O6 1.245 1_545 S
C5 O17 1.232 . S
O6 C5 1.245 1_565 S
O7 Co1 2.058 . S
O7 C33 1.269 . S
O8 Co0 2.074 . S
O8 C33 1.257 . S
H9 C34 0.930 . S
H10 C40 0.930 . S
O11 Co0 2.093 . S
O11 C3 1.224 1_545 S
H12 C44 0.929 . S
H13 C46 0.930 . S
H14 C47 0.930 . S
H15 C45 0.929 1_545 S
H16 C48 0.928 1_565 S
O17 Co1 2.057 . S
O17 C5 1.232 . S
H18 C37 0.929 . S
H19 C38 0.929 . S
H20 C50 0.931 . S
H21 C42 0.929 . S
H22 C51 0.930 . S
H23 C43 0.931 . S
O24 Co0 2.097 . S
O24 C52 1.214 . S
H25 C53 0.929 . S
H26 C54 0.929 . S
H27 C55 0.930 . S
H28 C56 0.929 . S
H29 C58 0.930 . S
H30 C35 0.930 . S
H31 C39 0.930 . S
O32 Co1 2.037 . S
O32 C52 1.234 . S
C33 O7 1.269 . S
C33 O8 1.257 . S
C34 H9 0.930 . S
C34 C37 1.388 . S
C34 C39 1.418 . S
C35 H30 0.930 . S
C35 C38 1.404 . S
C35 C39 1.353 . S
N36 Co1 2.145 . S
N36 C37 1.397 . S
N36 C38 1.334 . S
C37 H18 0.929 . S
C37 C34 1.388 . S
C37 N36 1.397 . S
C38 H19 0.929 . S
C38 C35 1.404 . S
C38 N36 1.334 . S
C39 H31 0.930 . S
C39 C34 1.418 . S
C39 C35 1.353 . S
C40 H10 0.930 . S
C40 N41 1.330 . S
C40 C42 1.446 . S
N41 Co0 2.151 1_565 S
N41 C40 1.330 . S
N41 C45 1.418 . S
C42 H21 0.929 . S
C42 C40 1.446 . S
C42 C43 1.332 . S
C43 H23 0.931 . S
C43 C42 1.332 . S
C43 C44 1.267 . S
C44 H12 0.929 . S
C44 C43 1.267 . S
C44 C45 1.251 . S
C45 H15 0.929 1_565 S
C45 N41 1.418 . S
C45 C44 1.251 . S
C46 H13 0.930 . S
C46 C48 1.406 . S
C46 C51 1.261 . S
C47 H14 0.930 . S
C47 N49 1.325 . S
C47 C50 1.357 . S
C48 H16 0.928 1_545 S
C48 C46 1.406 . S
C48 N49 1.261 . S
N49 Co0 2.214 . S
N49 C47 1.325 . S
N49 C48 1.261 . S
C50 H20 0.931 . S
C50 C47 1.357 . S
C50 C51 1.312 . S
C51 H22 0.930 . S
C51 C46 1.261 . S
C51 C50 1.312 . S
C52 O24 1.214 . S
C52 O32 1.234 . S
C53 H25 0.929 . S
C53 C56 1.391 . S
C53 C58 1.391 . S
C54 H26 0.929 . S
C54 C55 1.390 . S
C54 N57 1.391 . S
C55 H27 0.930 . S
C55 C54 1.390 . S
C55 C56 1.392 . S
C56 H28 0.929 . S
C56 C53 1.391 . S
C56 C55 1.392 . S
N57 Co1 2.257 . S
N57 C54 1.391 . S
N57 C58 1.388 . S
C58 H29 0.930 . S
C58 C53 1.391 . S
C58 N57 1.388 . S
Co59 O61 2.143 . S
Co59 O67 2.074 . S
Co59 O70 2.093 . S
Co59 O83 2.097 . S
Co59 N100 2.151 . S
Co59 N108 2.214 . S
Co60 O61 2.160 . S
Co60 O66 2.058 . S
Co60 O76 2.057 . S
Co60 O91 2.037 . S
Co60 N95 2.145 . S
Co60 N116 2.257 . S
O61 Co59 2.143 . S
O61 Co60 2.160 . S
C62 O63 1.278 . S
C62 O70 1.224 . S
O63 C62 1.278 . S
C64 O65 1.245 . S
C64 O76 1.232 . S
O65 C64 1.245 . S
O66 Co60 2.058 . S
O66 C92 1.269 . S
O67 Co59 2.074 . S
O67 C92 1.257 . S
H68 C93 0.930 . S
H69 C99 0.930 . S
O70 Co59 2.093 . S
O70 C62 1.224 . S
H71 C103 0.929 . S
H72 C105 0.930 . S
H73 C106 0.930 . S
H74 C104 0.929 . S
H75 C107 0.928 . S
O76 Co60 2.057 . S
O76 C64 1.232 . S
H77 C96 0.929 . S
H78 C97 0.929 . S
H79 C109 0.931 . S
H80 C101 0.929 . S
H81 C110 0.930 . S
H82 C102 0.931 . S
O83 Co59 2.097 . S
O83 C111 1.214 . S
H84 C112 0.929 . S
H85 C113 0.929 . S
H86 C114 0.930 . S
H87 C115 0.929 . S
H88 C117 0.930 . S
H89 C94 0.930 . S
H90 C98 0.930 . S
O91 Co60 2.037 . S
O91 C111 1.234 . S
C92 O66 1.269 . S
C92 O67 1.257 . S
C93 H68 0.930 . S
C93 C96 1.388 . S
C93 C98 1.418 . S
C94 H89 0.930 . S
C94 C97 1.404 . S
C94 C98 1.353 . S
N95 Co60 2.145 . S
N95 C96 1.397 . S
N95 C97 1.334 . S
C96 H77 0.929 . S
C96 C93 1.388 . S
C96 N95 1.397 . S
C97 H78 0.929 . S
C97 C94 1.404 . S
C97 N95 1.334 . S
C98 H90 0.930 . S
C98 C93 1.418 . S
C98 C94 1.353 . S
C99 H69 0.930 . S
C99 N100 1.330 . S
C99 C101 1.446 . S
N100 Co59 2.151 . S
N100 C99 1.330 . S
N100 C104 1.418 . S
C101 H80 0.929 . S
C101 C99 1.446 . S
C101 C102 1.332 . S
C102 H82 0.931 . S
C102 C101 1.332 . S
C102 C103 1.267 . S
C103 H71 0.929 . S
C103 C102 1.267 . S
C103 C104 1.251 . S
C104 H74 0.929 . S
C104 N100 1.418 . S
C104 C103 1.251 . S
C105 H72 0.930 . S
C105 C107 1.406 . S
C105 C110 1.261 . S
C106 H73 0.930 . S
C106 N108 1.325 . S
C106 C109 1.357 . S
C107 H75 0.928 . S
C107 C105 1.406 . S
C107 N108 1.261 . S
N108 Co59 2.214 . S
N108 C106 1.325 . S
N108 C107 1.261 . S
C109 H79 0.931 . S
C109 C106 1.357 . S
C109 C110 1.312 . S
C110 H81 0.930 . S
C110 C105 1.261 . S
C110 C109 1.312 . S
C111 O83 1.214 . S
C111 O91 1.234 . S
C112 H84 0.929 . S
C112 C115 1.391 . S
C112 C117 1.391 . S
C113 H85 0.929 . S
C113 C114 1.390 . S
C113 N116 1.391 . S
C114 H86 0.930 . S
C114 C113 1.390 . S
C114 C115 1.392 . S
C115 H87 0.929 . S
C115 C112 1.391 . S
C115 C114 1.392 . S
N116 Co60 2.257 . S
N116 C113 1.391 . S
N116 C117 1.388 . S
C117 H88 0.930 . S
C117 C112 1.391 . S
C117 N116 1.388 . S
Co118 O120 2.143 . S
Co118 O126 2.074 . S
Co118 O129 2.093 . S
Co118 O142 2.097 . S
Co118 N159 2.151 1_565 S
Co118 N167 2.214 . S
Co119 O120 2.160 . S
Co119 O125 2.058 . S
Co119 O135 2.057 . S
Co119 O150 2.037 . S
Co119 N154 2.145 . S
Co119 N175 2.257 . S
O120 Co118 2.143 . S
O120 Co119 2.160 . S
C121 O122 1.278 1_545 S
C121 O129 1.224 1_545 S
O122 C121 1.278 1_565 S
C123 O124 1.245 1_565 S
C123 O135 1.232 . S
O124 C123 1.245 1_545 S
O125 Co119 2.058 . S
O125 C151 1.270 1_455 S
O126 Co118 2.074 . S
O126 C151 1.259 1_455 S
H127 C152 0.930 . S
H128 C158 0.930 . S
O129 Co118 2.093 . S
O129 C121 1.224 1_565 S
H130 C162 0.929 . S
H131 C164 0.930 . S
H132 C165 0.930 . S
H133 C163 0.929 1_565 S
H134 C166 0.928 1_545 S
O135 Co119 2.057 . S
O135 C123 1.232 . S
H136 C155 0.929 . S
H137 C156 0.929 . S
H138 C168 0.931 . S
H139 C160 0.929 . S
H140 C169 0.930 . S
H141 C161 0.931 . S
O142 Co118 2.097 . S
O142 C170 1.214 . S
H143 C171 0.929 . S
H144 C172 0.929 . S
H145 C173 0.930 . S
H146 C174 0.929 . S
H147 C176 0.930 . S
H148 C153 0.930 . S
H149 C157 0.930 . S
O150 Co119 2.037 . S
O150 C170 1.234 . S
C151 O125 1.270 1_655 S
C151 O126 1.259 1_655 S
C152 H127 0.930 . S
C152 C155 1.388 . S
C152 C157 1.418 . S
C153 H148 0.930 . S
C153 C156 1.404 . S
C153 C157 1.353 . S
N154 Co119 2.145 . S
N154 C155 1.397 . S
N154 C156 1.334 . S
C155 H136 0.929 . S
C155 C152 1.388 . S
C155 N154 1.397 . S
C156 H137 0.929 . S
C156 C153 1.404 . S
C156 N154 1.334 . S
C157 H149 0.930 . S
C157 C152 1.418 . S
C157 C153 1.353 . S
C158 H128 0.930 . S
C158 N159 1.330 . S
C158 C160 1.446 . S
N159 Co118 2.151 1_545 S
N159 C158 1.330 . S
N159 C163 1.418 1_455 S
C160 H139 0.929 . S
C160 C158 1.446 . S
C160 C161 1.332 1_455 S
C161 H141 0.931 . S
C161 C160 1.332 1_655 S
C161 C162 1.267 . S
C162 H130 0.929 . S
C162 C161 1.267 . S
C162 C163 1.251 . S
C163 H133 0.929 1_545 S
C163 N159 1.418 1_655 S
C163 C162 1.251 . S
C164 H131 0.930 . S
C164 C166 1.406 . S
C164 C169 1.261 . S
C165 H132 0.930 . S
C165 N167 1.325 . S
C165 C168 1.357 . S
C166 H134 0.928 1_565 S
C166 C164 1.406 . S
C166 N167 1.261 . S
N167 Co118 2.214 . S
N167 C165 1.325 . S
N167 C166 1.261 . S
C168 H138 0.931 . S
C168 C165 1.357 . S
C168 C169 1.312 . S
C169 H140 0.930 . S
C169 C164 1.261 . S
C169 C168 1.312 . S
C170 O142 1.214 . S
C170 O150 1.234 . S
C171 H143 0.929 . S
C171 C174 1.391 . S
C171 C176 1.391 . S
C172 H144 0.929 . S
C172 C173 1.390 . S
C172 N175 1.391 . S
C173 H145 0.930 . S
C173 C172 1.390 . S
C173 C174 1.392 . S
C174 H146 0.929 . S
C174 C171 1.391 . S
C174 C173 1.392 . S
N175 Co119 2.257 . S
N175 C172 1.391 . S
N175 C176 1.388 . S
C176 H147 0.930 . S
C176 C171 1.391 . S
C176 N175 1.388 . S
Co177 O179 2.143 . S
Co177 O185 2.074 . S
Co177 O188 2.093 . S
Co177 O201 2.097 . S
Co177 N218 2.151 . S
Co177 N226 2.214 . S
Co178 O179 2.160 . S
Co178 O184 2.058 . S
Co178 O194 2.057 . S
Co178 O209 2.037 . S
Co178 N213 2.145 . S
Co178 N234 2.257 . S
O179 Co177 2.143 . S
O179 Co178 2.160 . S
C180 O181 1.278 . S
C180 O188 1.224 . S
O181 C180 1.278 . S
C182 O183 1.245 . S
C182 O194 1.232 . S
O183 C182 1.245 . S
O184 Co178 2.058 . S
O184 C210 1.269 . S
O185 Co177 2.074 . S
O185 C210 1.257 . S
H186 C211 0.930 . S
H187 C217 0.930 . S
O188 Co177 2.093 . S
O188 C180 1.224 . S
H189 C221 0.929 . S
H190 C223 0.930 . S
H191 C224 0.930 . S
H192 C222 0.929 . S
H193 C225 0.928 . S
O194 Co178 2.057 . S
O194 C182 1.232 . S
H195 C214 0.929 . S
H196 C215 0.929 . S
H197 C227 0.931 . S
H198 C219 0.929 . S
H199 C228 0.930 . S
H200 C220 0.931 . S
O201 Co177 2.097 . S
O201 C229 1.214 . S
H202 C230 0.929 . S
H203 C231 0.929 . S
H204 C232 0.930 . S
H205 C233 0.929 . S
H206 C235 0.930 . S
H207 C212 0.930 . S
H208 C216 0.930 . S
O209 Co178 2.037 . S
O209 C229 1.234 . S
C210 O184 1.269 . S
C210 O185 1.257 . S
C211 H186 0.930 . S
C211 C214 1.388 . S
C211 C216 1.418 . S
C212 H207 0.930 . S
C212 C215 1.404 . S
C212 C216 1.353 . S
N213 Co178 2.145 . S
N213 C214 1.397 . S
N213 C215 1.334 . S
C214 H195 0.929 . S
C214 C211 1.388 . S
C214 N213 1.397 . S
C215 H196 0.929 . S
C215 C212 1.404 . S
C215 N213 1.334 . S
C216 H208 0.930 . S
C216 C211 1.418 . S
C216 C212 1.353 . S
C217 H187 0.930 . S
C217 N218 1.330 . S
C217 C219 1.446 . S
N218 Co177 2.151 . S
N218 C217 1.330 . S
N218 C222 1.418 . S
C219 H198 0.929 . S
C219 C217 1.446 . S
C219 C220 1.332 . S
C220 H200 0.931 . S
C220 C219 1.332 . S
C220 C221 1.267 . S
C221 H189 0.929 . S
C221 C220 1.267 . S
C221 C222 1.251 . S
C222 H192 0.929 . S
C222 N218 1.418 . S
C222 C221 1.251 . S
C223 H190 0.930 . S
C223 C225 1.406 . S
C223 C228 1.261 . S
C224 H191 0.930 . S
C224 N226 1.325 . S
C224 C227 1.357 . S
C225 H193 0.928 . S
C225 C223 1.406 . S
C225 N226 1.261 . S
N226 Co177 2.214 . S
N226 C224 1.325 . S
N226 C225 1.261 . S
C227 H197 0.931 . S
C227 C224 1.357 . S
C227 C228 1.312 . S
C228 H199 0.930 . S
C228 C223 1.261 . S
C228 C227 1.312 . S
C229 O201 1.214 . S
C229 O209 1.234 . S
C230 H202 0.929 . S
C230 C233 1.391 . S
C230 C235 1.391 . S
C231 H203 0.929 . S
C231 C232 1.390 . S
C231 N234 1.391 . S
C232 H204 0.930 . S
C232 C231 1.390 . S
C232 C233 1.392 . S
C233 H205 0.929 . S
C233 C230 1.391 . S
C233 C232 1.392 . S
N234 Co178 2.257 . S
N234 C231 1.391 . S
N234 C235 1.388 . S
C235 H206 0.930 . S
C235 C230 1.391 . S
C235 N234 1.388 . S
Co236 O238 2.143 . S
Co236 O244 2.074 . S
Co236 O247 2.093 . S
Co236 O260 2.097 . S
Co236 N277 2.151 1_565 S
Co236 N285 2.214 . S
Co237 O238 2.160 . S
Co237 O243 2.058 . S
Co237 O253 2.057 . S
Co237 O268 2.037 . S
Co237 N272 2.145 . S
Co237 N293 2.257 . S
O238 Co236 2.143 . S
O238 Co237 2.160 . S
C239 O240 1.278 1_545 S
C239 O247 1.224 1_545 S
O240 C239 1.278 1_565 S
C241 O242 1.245 1_565 S
C241 O253 1.232 . S
O242 C241 1.245 1_545 S
O243 Co237 2.058 . S
O243 C269 1.269 . S
O244 Co236 2.074 . S
O244 C269 1.257 . S
H245 C270 0.930 . S
H246 C276 0.930 . S
O247 Co236 2.093 . S
O247 C239 1.224 1_565 S
H248 C280 0.929 . S
H249 C282 0.930 . S
H250 C283 0.930 . S
H251 C281 0.929 1_565 S
H252 C284 0.928 1_545 S
O253 Co237 2.057 . S
O253 C241 1.232 . S
H254 C273 0.929 . S
H255 C274 0.929 . S
H256 C286 0.931 . S
H257 C278 0.929 . S
H258 C287 0.930 . S
H259 C279 0.931 . S
O260 Co236 2.097 . S
O260 C288 1.214 . S
H261 C289 0.929 . S
H262 C290 0.929 . S
H263 C291 0.930 . S
H264 C292 0.929 . S
H265 C294 0.930 . S
H266 C271 0.930 . S
H267 C275 0.930 . S
O268 Co237 2.037 . S
O268 C288 1.234 . S
C269 O243 1.269 . S
C269 O244 1.257 . S
C270 H245 0.930 . S
C270 C273 1.388 . S
C270 C275 1.418 . S
C271 H266 0.930 . S
C271 C274 1.404 . S
C271 C275 1.353 . S
N272 Co237 2.145 . S
N272 C273 1.397 . S
N272 C274 1.334 . S
C273 H254 0.929 . S
C273 C270 1.388 . S
C273 N272 1.397 . S
C274 H255 0.929 . S
C274 C271 1.404 . S
C274 N272 1.334 . S
C275 H267 0.930 . S
C275 C270 1.418 . S
C275 C271 1.353 . S
C276 H246 0.930 . S
C276 N277 1.330 . S
C276 C278 1.446 . S
N277 Co236 2.151 1_545 S
N277 C276 1.330 . S
N277 C281 1.418 . S
C278 H257 0.929 . S
C278 C276 1.446 . S
C278 C279 1.332 . S
C279 H259 0.931 . S
C279 C278 1.332 . S
C279 C280 1.267 . S
C280 H248 0.929 . S
C280 C279 1.267 . S
C280 C281 1.251 . S
C281 H251 0.929 1_545 S
C281 N277 1.418 . S
C281 C280 1.251 . S
C282 H249 0.930 . S
C282 C284 1.406 . S
C282 C287 1.261 . S
C283 H250 0.930 . S
C283 N285 1.325 . S
C283 C286 1.357 . S
C284 H252 0.928 1_565 S
C284 C282 1.406 . S
C284 N285 1.261 . S
N285 Co236 2.214 . S
N285 C283 1.325 . S
N285 C284 1.261 . S
C286 H256 0.931 . S
C286 C283 1.357 . S
C286 C287 1.312 . S
C287 H258 0.930 . S
C287 C282 1.261 . S
C287 C286 1.312 . S
C288 O260 1.214 . S
C288 O268 1.234 . S
C289 H261 0.929 . S
C289 C292 1.391 . S
C289 C294 1.391 . S
C290 H262 0.929 . S
C290 C291 1.390 . S
C290 N293 1.391 . S
C291 H263 0.930 . S
C291 C290 1.390 . S
C291 C292 1.392 . S
C292 H264 0.929 . S
C292 C289 1.391 . S
C292 C291 1.392 . S
N293 Co237 2.257 . S
N293 C290 1.391 . S
N293 C294 1.388 . S
C294 H265 0.930 . S
C294 C289 1.391 . S
C294 N293 1.388 . S
Co295 O297 2.143 . S
Co295 O303 2.074 . S
Co295 O306 2.093 . S
Co295 O319 2.097 . S
Co295 N336 2.151 . S
Co295 N344 2.214 . S
Co296 O297 2.160 . S
Co296 O302 2.058 . S
Co296 O312 2.057 . S
Co296 O327 2.037 . S
Co296 N331 2.145 . S
Co296 N352 2.257 . S
O297 Co295 2.143 . S
O297 Co296 2.160 . S
C298 O299 1.278 . S
C298 O306 1.224 . S
O299 C298 1.278 . S
C300 O301 1.245 . S
C300 O312 1.232 . S
O301 C300 1.245 . S
O302 Co296 2.058 . S
O302 C328 1.269 . S
O303 Co295 2.074 . S
O303 C328 1.257 . S
H304 C329 0.930 . S
H305 C335 0.930 . S
O306 Co295 2.093 . S
O306 C298 1.224 . S
H307 C339 0.929 . S
H308 C341 0.930 . S
H309 C342 0.930 . S
H310 C340 0.929 . S
H311 C343 0.928 . S
O312 Co296 2.057 . S
O312 C300 1.232 . S
H313 C332 0.929 . S
H314 C333 0.929 . S
H315 C345 0.931 . S
H316 C337 0.929 . S
H317 C346 0.930 . S
H318 C338 0.931 . S
O319 Co295 2.097 . S
O319 C347 1.214 . S
H320 C348 0.929 . S
H321 C349 0.929 . S
H322 C350 0.930 . S
H323 C351 0.929 . S
H324 C353 0.930 . S
H325 C330 0.930 . S
H326 C334 0.930 . S
O327 Co296 2.037 . S
O327 C347 1.234 . S
C328 O302 1.269 . S
C328 O303 1.257 . S
C329 H304 0.930 . S
C329 C332 1.388 . S
C329 C334 1.418 . S
C330 H325 0.930 . S
C330 C333 1.404 . S
C330 C334 1.353 . S
N331 Co296 2.145 . S
N331 C332 1.397 . S
N331 C333 1.334 . S
C332 H313 0.929 . S
C332 C329 1.388 . S
C332 N331 1.397 . S
C333 H314 0.929 . S
C333 C330 1.404 . S
C333 N331 1.334 . S
C334 H326 0.930 . S
C334 C329 1.418 . S
C334 C330 1.353 . S
C335 H305 0.930 . S
C335 N336 1.330 . S
C335 C337 1.446 . S
N336 Co295 2.151 . S
N336 C335 1.330 . S
N336 C340 1.418 . S
C337 H316 0.929 . S
C337 C335 1.446 . S
C337 C338 1.332 . S
C338 H318 0.931 . S
C338 C337 1.332 . S
C338 C339 1.267 . S
C339 H307 0.929 . S
C339 C338 1.267 . S
C339 C340 1.251 . S
C340 H310 0.929 . S
C340 N336 1.418 . S
C340 C339 1.251 . S
C341 H308 0.930 . S
C341 C343 1.406 . S
C341 C346 1.261 . S
C342 H309 0.930 . S
C342 N344 1.325 . S
C342 C345 1.357 . S
C343 H311 0.928 . S
C343 C341 1.406 . S
C343 N344 1.261 . S
N344 Co295 2.214 . S
N344 C342 1.325 . S
N344 C343 1.261 . S
C345 H315 0.931 . S
C345 C342 1.357 . S
C345 C346 1.312 . S
C346 H317 0.930 . S
C346 C341 1.261 . S
C346 C345 1.312 . S
C347 O319 1.214 . S
C347 O327 1.234 . S
C348 H320 0.929 . S
C348 C351 1.391 . S
C348 C353 1.391 . S
C349 H321 0.929 . S
C349 C350 1.390 . S
C349 N352 1.391 . S
C350 H322 0.930 . S
C350 C349 1.390 . S
C350 C351 1.392 . S
C351 H323 0.929 . S
C351 C348 1.391 . S
C351 C350 1.392 . S
N352 Co296 2.257 . S
N352 C349 1.391 . S
N352 C353 1.388 . S
C353 H324 0.930 . S
C353 C348 1.391 . S
C353 N352 1.388 . S
Co354 O356 2.143 . S
Co354 O362 2.074 . S
Co354 O365 2.093 . S
Co354 O378 2.097 . S
Co354 N395 2.151 1_545 S
Co354 N403 2.214 . S
Co355 O356 2.160 . S
Co355 O361 2.058 . S
Co355 O371 2.057 . S
Co355 O386 2.037 . S
Co355 N390 2.145 . S
Co355 N411 2.257 . S
O356 Co354 2.143 . S
O356 Co355 2.160 . S
C357 O358 1.278 1_565 S
C357 O365 1.224 1_565 S
O358 C357 1.278 1_545 S
C359 O360 1.245 1_545 S
C359 O371 1.232 . S
O360 C359 1.245 1_565 S
O361 Co355 2.058 . S
O361 C387 1.270 1_455 S
O362 Co354 2.074 . S
O362 C387 1.259 1_455 S
H363 C388 0.930 . S
H364 C394 0.930 . S
O365 Co354 2.093 . S
O365 C357 1.224 1_545 S
H366 C398 0.929 . S
H367 C400 0.930 . S
H368 C401 0.930 . S
H369 C399 0.929 1_545 S
H370 C402 0.928 1_565 S
O371 Co355 2.057 . S
O371 C359 1.232 . S
H372 C391 0.929 . S
H373 C392 0.929 . S
H374 C404 0.931 . S
H375 C396 0.929 . S
H376 C405 0.930 . S
H377 C397 0.931 . S
O378 Co354 2.097 . S
O378 C406 1.214 . S
H379 C407 0.929 . S
H380 C408 0.929 . S
H381 C409 0.930 . S
H382 C410 0.929 . S
H383 C412 0.930 . S
H384 C389 0.930 . S
H385 C393 0.930 . S
O386 Co355 2.037 . S
O386 C406 1.234 . S
C387 O361 1.270 1_655 S
C387 O362 1.259 1_655 S
C388 H363 0.930 . S
C388 C391 1.388 . S
C388 C393 1.418 . S
C389 H384 0.930 . S
C389 C392 1.404 . S
C389 C393 1.353 . S
N390 Co355 2.145 . S
N390 C391 1.397 . S
N390 C392 1.334 . S
C391 H372 0.929 . S
C391 C388 1.388 . S
C391 N390 1.397 . S
C392 H373 0.929 . S
C392 C389 1.404 . S
C392 N390 1.334 . S
C393 H385 0.930 . S
C393 C388 1.418 . S
C393 C389 1.353 . S
C394 H364 0.930 . S
C394 N395 1.330 . S
C394 C396 1.446 . S
N395 Co354 2.151 1_565 S
N395 C394 1.330 . S
N395 C399 1.418 1_455 S
C396 H375 0.929 . S
C396 C394 1.446 . S
C396 C397 1.332 1_455 S
C397 H377 0.931 . S
C397 C396 1.332 1_655 S
C397 C398 1.267 . S
C398 H366 0.929 . S
C398 C397 1.267 . S
C398 C399 1.251 . S
C399 H369 0.929 1_565 S
C399 N395 1.418 1_655 S
C399 C398 1.251 . S
C400 H367 0.930 . S
C400 C402 1.406 . S
C400 C405 1.261 . S
C401 H368 0.930 . S
C401 N403 1.325 . S
C401 C404 1.357 . S
C402 H370 0.928 1_545 S
C402 C400 1.406 . S
C402 N403 1.261 . S
N403 Co354 2.214 . S
N403 C401 1.325 . S
N403 C402 1.261 . S
C404 H374 0.931 . S
C404 C401 1.357 . S
C404 C405 1.312 . S
C405 H376 0.930 . S
C405 C400 1.261 . S
C405 C404 1.312 . S
C406 O378 1.214 . S
C406 O386 1.234 . S
C407 H379 0.929 . S
C407 C410 1.391 . S
C407 C412 1.391 . S
C408 H380 0.929 . S
C408 C409 1.390 . S
C408 N411 1.391 . S
C409 H381 0.930 . S
C409 C408 1.390 . S
C409 C410 1.392 . S
C410 H382 0.929 . S
C410 C407 1.391 . S
C410 C409 1.392 . S
N411 Co355 2.257 . S
N411 C408 1.391 . S
N411 C412 1.388 . S
C412 H383 0.930 . S
C412 C407 1.391 . S
C412 N411 1.388 . S
Co413 O415 2.143 . S
Co413 O421 2.074 . S
Co413 O424 2.093 . S
Co413 O437 2.097 . S
Co413 N454 2.151 . S
Co413 N462 2.214 . S
Co414 O415 2.160 . S
Co414 O420 2.058 . S
Co414 O430 2.057 . S
Co414 O445 2.037 . S
Co414 N449 2.145 . S
Co414 N470 2.257 . S
O415 Co413 2.143 . S
O415 Co414 2.160 . S
C416 O417 1.278 . S
C416 O424 1.224 . S
O417 C416 1.278 . S
C418 O419 1.245 . S
C418 O430 1.232 . S
O419 C418 1.245 . S
O420 Co414 2.058 . S
O420 C446 1.269 . S
O421 Co413 2.074 . S
O421 C446 1.257 . S
H422 C447 0.930 . S
H423 C453 0.930 . S
O424 Co413 2.093 . S
O424 C416 1.224 . S
H425 C457 0.929 . S
H426 C459 0.930 . S
H427 C460 0.930 . S
H428 C458 0.929 . S
H429 C461 0.928 . S
O430 Co414 2.057 . S
O430 C418 1.232 . S
H431 C450 0.929 . S
H432 C451 0.929 . S
H433 C463 0.931 . S
H434 C455 0.929 . S
H435 C464 0.930 . S
H436 C456 0.931 . S
O437 Co413 2.097 . S
O437 C465 1.214 . S
H438 C466 0.929 . S
H439 C467 0.929 . S
H440 C468 0.930 . S
H441 C469 0.929 . S
H442 C471 0.930 . S
H443 C448 0.930 . S
H444 C452 0.930 . S
O445 Co414 2.037 . S
O445 C465 1.234 . S
C446 O420 1.269 . S
C446 O421 1.257 . S
C447 H422 0.930 . S
C447 C450 1.388 . S
C447 C452 1.418 . S
C448 H443 0.930 . S
C448 C451 1.404 . S
C448 C452 1.353 . S
N449 Co414 2.145 . S
N449 C450 1.397 . S
N449 C451 1.334 . S
C450 H431 0.929 . S
C450 C447 1.388 . S
C450 N449 1.397 . S
C451 H432 0.929 . S
C451 C448 1.404 . S
C451 N449 1.334 . S
C452 H444 0.930 . S
C452 C447 1.418 . S
C452 C448 1.353 . S
C453 H423 0.930 . S
C453 N454 1.330 . S
C453 C455 1.446 . S
N454 Co413 2.151 . S
N454 C453 1.330 . S
N454 C458 1.418 . S
C455 H434 0.929 . S
C455 C453 1.446 . S
C455 C456 1.332 . S
C456 H436 0.931 . S
C456 C455 1.332 . S
C456 C457 1.267 . S
C457 H425 0.929 . S
C457 C456 1.267 . S
C457 C458 1.251 . S
C458 H428 0.929 . S
C458 N454 1.418 . S
C458 C457 1.251 . S
C459 H426 0.930 . S
C459 C461 1.406 . S
C459 C464 1.261 . S
C460 H427 0.930 . S
C460 N462 1.325 . S
C460 C463 1.357 . S
C461 H429 0.928 . S
C461 C459 1.406 . S
C461 N462 1.261 . S
N462 Co413 2.214 . S
N462 C460 1.325 . S
N462 C461 1.261 . S
C463 H433 0.931 . S
C463 C460 1.357 . S
C463 C464 1.312 . S
C464 H435 0.930 . S
C464 C459 1.261 . S
C464 C463 1.312 . S
C465 O437 1.214 . S
C465 O445 1.234 . S
C466 H438 0.929 . S
C466 C469 1.391 . S
C466 C471 1.391 . S
C467 H439 0.929 . S
C467 C468 1.390 . S
C467 N470 1.391 . S
C468 H440 0.930 . S
C468 C467 1.390 . S
C468 C469 1.392 . S
C469 H441 0.929 . S
C469 C466 1.391 . S
C469 C468 1.392 . S
N470 Co414 2.257 . S
N470 C467 1.391 . S
N470 C471 1.388 . S
C471 H442 0.930 . S
C471 C466 1.391 . S
C471 N470 1.388 . S
Co472 O474 2.143 . S
Co472 O480 2.074 . S
Co472 O483 2.093 . S
Co472 O496 2.097 . S
Co472 N513 2.151 1_565 S
Co472 N521 2.214 . S
Co473 O474 2.160 . S
Co473 O479 2.058 . S
Co473 O489 2.057 . S
Co473 O504 2.037 . S
Co473 N508 2.145 . S
Co473 N529 2.257 . S
O474 Co472 2.143 . S
O474 Co473 2.160 . S
C475 O476 1.278 1_545 S
C475 O483 1.224 1_545 S
O476 C475 1.278 1_565 S
C477 O478 1.245 1_565 S
C477 O489 1.232 . S
O478 C477 1.245 1_545 S
O479 Co473 2.058 . S
O479 C505 1.269 . S
O480 Co472 2.074 . S
O480 C505 1.257 . S
H481 C506 0.930 . S
H482 C512 0.930 . S
O483 Co472 2.093 . S
O483 C475 1.224 1_565 S
H484 C516 0.929 . S
H485 C518 0.930 . S
H486 C519 0.930 . S
H487 C517 0.929 1_565 S
H488 C520 0.928 1_545 S
O489 Co473 2.057 . S
O489 C477 1.232 . S
H490 C509 0.929 . S
H491 C510 0.929 . S
H492 C522 0.931 . S
H493 C514 0.929 . S
H494 C523 0.930 . S
H495 C515 0.931 . S
O496 Co472 2.097 . S
O496 C524 1.214 . S
H497 C525 0.929 . S
H498 C526 0.929 . S
H499 C527 0.930 . S
H500 C528 0.929 . S
H501 C530 0.930 . S
H502 C507 0.930 . S
H503 C511 0.930 . S
O504 Co473 2.037 . S
O504 C524 1.234 . S
C505 O479 1.269 . S
C505 O480 1.257 . S
C506 H481 0.930 . S
C506 C509 1.388 . S
C506 C511 1.418 . S
C507 H502 0.930 . S
C507 C510 1.404 . S
C507 C511 1.353 . S
N508 Co473 2.145 . S
N508 C509 1.397 . S
N508 C510 1.334 . S
C509 H490 0.929 . S
C509 C506 1.388 . S
C509 N508 1.397 . S
C510 H491 0.929 . S
C510 C507 1.404 . S
C510 N508 1.334 . S
C511 H503 0.930 . S
C511 C506 1.418 . S
C511 C507 1.353 . S
C512 H482 0.930 . S
C512 N513 1.330 . S
C512 C514 1.446 . S
N513 Co472 2.151 1_545 S
N513 C512 1.330 . S
N513 C517 1.418 . S
C514 H493 0.929 . S
C514 C512 1.446 . S
C514 C515 1.332 . S
C515 H495 0.931 . S
C515 C514 1.332 . S
C515 C516 1.267 . S
C516 H484 0.929 . S
C516 C515 1.267 . S
C516 C517 1.251 . S
C517 H487 0.929 1_545 S
C517 N513 1.418 . S
C517 C516 1.251 . S
C518 H485 0.930 . S
C518 C520 1.406 . S
C518 C523 1.261 . S
C519 H486 0.930 . S
C519 N521 1.325 . S
C519 C522 1.357 . S
C520 H488 0.928 1_565 S
C520 C518 1.406 . S
C520 N521 1.261 . S
N521 Co472 2.214 . S
N521 C519 1.325 . S
N521 C520 1.261 . S
C522 H492 0.931 . S
C522 C519 1.357 . S
C522 C523 1.312 . S
C523 H494 0.930 . S
C523 C518 1.261 . S
C523 C522 1.312 . S
C524 O496 1.214 . S
C524 O504 1.234 . S
C525 H497 0.929 . S
C525 C528 1.391 . S
C525 C530 1.391 . S
C526 H498 0.929 . S
C526 C527 1.390 . S
C526 N529 1.391 . S
C527 H499 0.930 . S
C527 C526 1.390 . S
C527 C528 1.392 . S
C528 H500 0.929 . S
C528 C525 1.391 . S
C528 C527 1.392 . S
N529 Co473 2.257 . S
N529 C526 1.391 . S
N529 C530 1.388 . S
C530 H501 0.930 . S
C530 C525 1.391 . S
C530 N529 1.388 . S
Co531 O533 2.143 . S
Co531 O539 2.074 . S
Co531 O542 2.093 . S
Co531 O555 2.097 . S
Co531 N572 2.151 . S
Co531 N580 2.214 . S
Co532 O533 2.160 . S
Co532 O538 2.058 . S
Co532 O548 2.057 . S
Co532 O563 2.037 . S
Co532 N567 2.145 . S
Co532 N588 2.257 . S
O533 Co531 2.143 . S
O533 Co532 2.160 . S
C534 O535 1.278 . S
C534 O542 1.224 . S
O535 C534 1.278 . S
C536 O537 1.245 . S
C536 O548 1.232 . S
O537 C536 1.245 . S
O538 Co532 2.058 . S
O538 C564 1.269 . S
O539 Co531 2.074 . S
O539 C564 1.257 . S
H540 C565 0.930 . S
H541 C571 0.930 . S
O542 Co531 2.093 . S
O542 C534 1.224 . S
H543 C575 0.929 . S
H544 C577 0.930 . S
H545 C578 0.930 . S
H546 C576 0.929 . S
H547 C579 0.928 . S
O548 Co532 2.057 . S
O548 C536 1.232 . S
H549 C568 0.929 . S
H550 C569 0.929 . S
H551 C581 0.931 . S
H552 C573 0.929 . S
H553 C582 0.930 . S
H554 C574 0.931 . S
O555 Co531 2.097 . S
O555 C583 1.214 . S
H556 C584 0.929 . S
H557 C585 0.929 . S
H558 C586 0.930 . S
H559 C587 0.929 . S
H560 C589 0.930 . S
H561 C566 0.930 . S
H562 C570 0.930 . S
O563 Co532 2.037 . S
O563 C583 1.234 . S
C564 O538 1.269 . S
C564 O539 1.257 . S
C565 H540 0.930 . S
C565 C568 1.388 . S
C565 C570 1.418 . S
C566 H561 0.930 . S
C566 C569 1.404 . S
C566 C570 1.353 . S
N567 Co532 2.145 . S
N567 C568 1.397 . S
N567 C569 1.334 . S
C568 H549 0.929 . S
C568 C565 1.388 . S
C568 N567 1.397 . S
C569 H550 0.929 . S
C569 C566 1.404 . S
C569 N567 1.334 . S
C570 H562 0.930 . S
C570 C565 1.418 . S
C570 C566 1.353 . S
C571 H541 0.930 . S
C571 N572 1.330 . S
C571 C573 1.446 . S
N572 Co531 2.151 . S
N572 C571 1.330 . S
N572 C576 1.418 . S
C573 H552 0.929 . S
C573 C571 1.446 . S
C573 C574 1.332 . S
C574 H554 0.931 . S
C574 C573 1.332 . S
C574 C575 1.267 . S
C575 H543 0.929 . S
C575 C574 1.267 . S
C575 C576 1.251 . S
C576 H546 0.929 . S
C576 N572 1.418 . S
C576 C575 1.251 . S
C577 H544 0.930 . S
C577 C579 1.406 . S
C577 C582 1.261 . S
C578 H545 0.930 . S
C578 N580 1.325 . S
C578 C581 1.357 . S
C579 H547 0.928 . S
C579 C577 1.406 . S
C579 N580 1.261 . S
N580 Co531 2.214 . S
N580 C578 1.325 . S
N580 C579 1.261 . S
C581 H551 0.931 . S
C581 C578 1.357 . S
C581 C582 1.312 . S
C582 H553 0.930 . S
C582 C577 1.261 . S
C582 C581 1.312 . S
C583 O555 1.214 . S
C583 O563 1.234 . S
C584 H556 0.929 . S
C584 C587 1.391 . S
C584 C589 1.391 . S
C585 H557 0.929 . S
C585 C586 1.390 . S
C585 N588 1.391 . S
C586 H558 0.930 . S
C586 C585 1.390 . S
C586 C587 1.392 . S
C587 H559 0.929 . S
C587 C584 1.391 . S
C587 C586 1.392 . S
N588 Co532 2.257 . S
N588 C585 1.391 . S
N588 C589 1.388 . S
C589 H560 0.930 . S
C589 C584 1.391 . S
C589 N588 1.388 . S
Co590 O592 2.143 . S
Co590 O598 2.074 . S
Co590 O601 2.093 . S
Co590 O614 2.097 . S
Co590 N631 2.151 1_545 S
Co590 N639 2.214 . S
Co591 O592 2.160 . S
Co591 O597 2.058 . S
Co591 O607 2.057 . S
Co591 O622 2.037 . S
Co591 N626 2.145 . S
Co591 N647 2.257 . S
O592 Co590 2.143 . S
O592 Co591 2.160 . S
C593 O594 1.278 1_565 S
C593 O601 1.224 1_565 S
O594 C593 1.278 1_545 S
C595 O596 1.245 1_545 S
C595 O607 1.232 . S
O596 C595 1.245 1_565 S
O597 Co591 2.058 . S
O597 C623 1.270 1_655 S
O598 Co590 2.074 . S
O598 C623 1.259 1_655 S
H599 C624 0.930 . S
H600 C630 0.930 . S
O601 Co590 2.093 . S
O601 C593 1.224 1_545 S
H602 C634 0.929 . S
H603 C636 0.930 . S
H604 C637 0.930 . S
H605 C635 0.929 1_545 S
H606 C638 0.928 1_565 S
O607 Co591 2.057 . S
O607 C595 1.232 . S
H608 C627 0.929 . S
H609 C628 0.929 . S
H610 C640 0.931 . S
H611 C632 0.929 . S
H612 C641 0.930 . S
H613 C633 0.931 . S
O614 Co590 2.097 . S
O614 C642 1.214 . S
H615 C643 0.929 . S
H616 C644 0.929 . S
H617 C645 0.930 . S
H618 C646 0.929 . S
H619 C648 0.930 . S
H620 C625 0.930 . S
H621 C629 0.930 . S
O622 Co591 2.037 . S
O622 C642 1.234 . S
C623 O597 1.270 1_455 S
C623 O598 1.259 1_455 S
C624 H599 0.930 . S
C624 C627 1.388 . S
C624 C629 1.418 . S
C625 H620 0.930 . S
C625 C628 1.404 . S
C625 C629 1.353 . S
N626 Co591 2.145 . S
N626 C627 1.397 . S
N626 C628 1.334 . S
C627 H608 0.929 . S
C627 C624 1.388 . S
C627 N626 1.397 . S
C628 H609 0.929 . S
C628 C625 1.404 . S
C628 N626 1.334 . S
C629 H621 0.930 . S
C629 C624 1.418 . S
C629 C625 1.353 . S
C630 H600 0.930 . S
C630 N631 1.330 . S
C630 C632 1.446 . S
N631 Co590 2.151 1_565 S
N631 C630 1.330 . S
N631 C635 1.418 1_655 S
C632 H611 0.929 . S
C632 C630 1.446 . S
C632 C633 1.332 1_655 S
C633 H613 0.931 . S
C633 C632 1.332 1_455 S
C633 C634 1.267 . S
C634 H602 0.929 . S
C634 C633 1.267 . S
C634 C635 1.251 . S
C635 H605 0.929 1_565 S
C635 N631 1.418 1_455 S
C635 C634 1.251 . S
C636 H603 0.930 . S
C636 C638 1.406 . S
C636 C641 1.261 . S
C637 H604 0.930 . S
C637 N639 1.325 . S
C637 C640 1.357 . S
C638 H606 0.928 1_545 S
C638 C636 1.406 . S
C638 N639 1.261 . S
N639 Co590 2.214 . S
N639 C637 1.325 . S
N639 C638 1.261 . S
C640 H610 0.931 . S
C640 C637 1.357 . S
C640 C641 1.312 . S
C641 H612 0.930 . S
C641 C636 1.261 . S
C641 C640 1.312 . S
C642 O614 1.214 . S
C642 O622 1.234 . S
C643 H615 0.929 . S
C643 C646 1.391 . S
C643 C648 1.391 . S
C644 H616 0.929 . S
C644 C645 1.390 . S
C644 N647 1.391 . S
C645 H617 0.930 . S
C645 C644 1.390 . S
C645 C646 1.392 . S
C646 H618 0.929 . S
C646 C643 1.391 . S
C646 C645 1.392 . S
N647 Co591 2.257 . S
N647 C644 1.391 . S
N647 C648 1.388 . S
C648 H619 0.930 . S
C648 C643 1.391 . S
C648 N647 1.388 . S
Co649 O651 2.143 . S
Co649 O657 2.074 . S
Co649 O660 2.093 . S
Co649 O673 2.097 . S
Co649 N690 2.151 . S
Co649 N698 2.214 . S
Co650 O651 2.160 . S
Co650 O656 2.058 . S
Co650 O666 2.057 . S
Co650 O681 2.037 . S
Co650 N685 2.145 . S
Co650 N706 2.257 . S
O651 Co649 2.143 . S
O651 Co650 2.160 . S
C652 O653 1.278 . S
C652 O660 1.224 . S
O653 C652 1.278 . S
C654 O655 1.245 . S
C654 O666 1.232 . S
O655 C654 1.245 . S
O656 Co650 2.058 . S
O656 C682 1.269 . S
O657 Co649 2.074 . S
O657 C682 1.257 . S
H658 C683 0.930 . S
H659 C689 0.930 . S
O660 Co649 2.093 . S
O660 C652 1.224 . S
H661 C693 0.929 . S
H662 C695 0.930 . S
H663 C696 0.930 . S
H664 C694 0.929 . S
H665 C697 0.928 . S
O666 Co650 2.057 . S
O666 C654 1.232 . S
H667 C686 0.929 . S
H668 C687 0.929 . S
H669 C699 0.931 . S
H670 C691 0.929 . S
H671 C700 0.930 . S
H672 C692 0.931 . S
O673 Co649 2.097 . S
O673 C701 1.214 . S
H674 C702 0.929 . S
H675 C703 0.929 . S
H676 C704 0.930 . S
H677 C705 0.929 . S
H678 C707 0.930 . S
H679 C684 0.930 . S
H680 C688 0.930 . S
O681 Co650 2.037 . S
O681 C701 1.234 . S
C682 O656 1.269 . S
C682 O657 1.257 . S
C683 H658 0.930 . S
C683 C686 1.388 . S
C683 C688 1.418 . S
C684 H679 0.930 . S
C684 C687 1.404 . S
C684 C688 1.353 . S
N685 Co650 2.145 . S
N685 C686 1.397 . S
N685 C687 1.334 . S
C686 H667 0.929 . S
C686 C683 1.388 . S
C686 N685 1.397 . S
C687 H668 0.929 . S
C687 C684 1.404 . S
C687 N685 1.334 . S
C688 H680 0.930 . S
C688 C683 1.418 . S
C688 C684 1.353 . S
C689 H659 0.930 . S
C689 N690 1.330 . S
C689 C691 1.446 . S
N690 Co649 2.151 . S
N690 C689 1.330 . S
N690 C694 1.418 . S
C691 H670 0.929 . S
C691 C689 1.446 . S
C691 C692 1.332 . S
C692 H672 0.931 . S
C692 C691 1.332 . S
C692 C693 1.267 . S
C693 H661 0.929 . S
C693 C692 1.267 . S
C693 C694 1.251 . S
C694 H664 0.929 . S
C694 N690 1.418 . S
C694 C693 1.251 . S
C695 H662 0.930 . S
C695 C697 1.406 . S
C695 C700 1.261 . S
C696 H663 0.930 . S
C696 N698 1.325 . S
C696 C699 1.357 . S
C697 H665 0.928 . S
C697 C695 1.406 . S
C697 N698 1.261 . S
N698 Co649 2.214 . S
N698 C696 1.325 . S
N698 C697 1.261 . S
C699 H669 0.931 . S
C699 C696 1.357 . S
C699 C700 1.312 . S
C700 H671 0.930 . S
C700 C695 1.261 . S
C700 C699 1.312 . S
C701 O673 1.214 . S
C701 O681 1.234 . S
C702 H674 0.929 . S
C702 C705 1.391 . S
C702 C707 1.391 . S
C703 H675 0.929 . S
C703 C704 1.390 . S
C703 N706 1.391 . S
C704 H676 0.930 . S
C704 C703 1.390 . S
C704 C705 1.392 . S
C705 H677 0.929 . S
C705 C702 1.391 . S
C705 C704 1.392 . S
N706 Co650 2.257 . S
N706 C703 1.391 . S
N706 C707 1.388 . S
C707 H678 0.930 . S
C707 C702 1.391 . S
C707 N706 1.388 . S
Co708 O710 2.143 . S
Co708 O716 2.074 . S
Co708 O719 2.093 . S
Co708 O732 2.097 . S
Co708 N749 2.151 1_545 S
Co708 N757 2.214 . S
Co709 O710 2.160 . S
Co709 O715 2.058 . S
Co709 O725 2.057 . S
Co709 O740 2.037 . S
Co709 N744 2.145 . S
Co709 N765 2.257 . S
O710 Co708 2.143 . S
O710 Co709 2.160 . S
C711 O712 1.278 1_565 S
C711 O719 1.224 1_565 S
O712 C711 1.278 1_545 S
C713 O714 1.245 1_545 S
C713 O725 1.232 . S
O714 C713 1.245 1_565 S
O715 Co709 2.058 . S
O715 C741 1.269 . S
O716 Co708 2.074 . S
O716 C741 1.257 . S
H717 C742 0.930 . S
H718 C748 0.930 . S
O719 Co708 2.093 . S
O719 C711 1.224 1_545 S
H720 C752 0.929 . S
H721 C754 0.930 . S
H722 C755 0.930 . S
H723 C753 0.929 1_545 S
H724 C756 0.928 1_565 S
O725 Co709 2.057 . S
O725 C713 1.232 . S
H726 C745 0.929 . S
H727 C746 0.929 . S
H728 C758 0.931 . S
H729 C750 0.929 . S
H730 C759 0.930 . S
H731 C751 0.931 . S
O732 Co708 2.097 . S
O732 C760 1.214 . S
H733 C761 0.929 . S
H734 C762 0.929 . S
H735 C763 0.930 . S
H736 C764 0.929 . S
H737 C766 0.930 . S
H738 C743 0.930 . S
H739 C747 0.930 . S
O740 Co709 2.037 . S
O740 C760 1.234 . S
C741 O715 1.269 . S
C741 O716 1.257 . S
C742 H717 0.930 . S
C742 C745 1.388 . S
C742 C747 1.418 . S
C743 H738 0.930 . S
C743 C746 1.404 . S
C743 C747 1.353 . S
N744 Co709 2.145 . S
N744 C745 1.397 . S
N744 C746 1.334 . S
C745 H726 0.929 . S
C745 C742 1.388 . S
C745 N744 1.397 . S
C746 H727 0.929 . S
C746 C743 1.404 . S
C746 N744 1.334 . S
C747 H739 0.930 . S
C747 C742 1.418 . S
C747 C743 1.353 . S
C748 H718 0.930 . S
C748 N749 1.330 . S
C748 C750 1.446 . S
N749 Co708 2.151 1_565 S
N749 C748 1.330 . S
N749 C753 1.418 . S
C750 H729 0.929 . S
C750 C748 1.446 . S
C750 C751 1.332 . S
C751 H731 0.931 . S
C751 C750 1.332 . S
C751 C752 1.267 . S
C752 H720 0.929 . S
C752 C751 1.267 . S
C752 C753 1.251 . S
C753 H723 0.929 1_565 S
C753 N749 1.418 . S
C753 C752 1.251 . S
C754 H721 0.930 . S
C754 C756 1.406 . S
C754 C759 1.261 . S
C755 H722 0.930 . S
C755 N757 1.325 . S
C755 C758 1.357 . S
C756 H724 0.928 1_545 S
C756 C754 1.406 . S
C756 N757 1.261 . S
N757 Co708 2.214 . S
N757 C755 1.325 . S
N757 C756 1.261 . S
C758 H728 0.931 . S
C758 C755 1.357 . S
C758 C759 1.312 . S
C759 H730 0.930 . S
C759 C754 1.261 . S
C759 C758 1.312 . S
C760 O732 1.214 . S
C760 O740 1.234 . S
C761 H733 0.929 . S
C761 C764 1.391 . S
C761 C766 1.391 . S
C762 H734 0.929 . S
C762 C763 1.390 . S
C762 N765 1.391 . S
C763 H735 0.930 . S
C763 C762 1.390 . S
C763 C764 1.392 . S
C764 H736 0.929 . S
C764 C761 1.391 . S
C764 C763 1.392 . S
N765 Co709 2.257 . S
N765 C762 1.391 . S
N765 C766 1.388 . S
C766 H737 0.930 . S
C766 C761 1.391 . S
C766 N765 1.388 . S
Co767 O769 2.143 . S
Co767 O775 2.074 . S
Co767 O778 2.093 . S
Co767 O791 2.097 . S
Co767 N808 2.151 . S
Co767 N816 2.214 . S
Co768 O769 2.160 . S
Co768 O774 2.058 . S
Co768 O784 2.057 . S
Co768 O799 2.037 . S
Co768 N803 2.145 . S
Co768 N824 2.257 . S
O769 Co767 2.143 . S
O769 Co768 2.160 . S
C770 O771 1.278 . S
C770 O778 1.224 . S
O771 C770 1.278 . S
C772 O773 1.245 . S
C772 O784 1.232 . S
O773 C772 1.245 . S
O774 Co768 2.058 . S
O774 C800 1.269 . S
O775 Co767 2.074 . S
O775 C800 1.257 . S
H776 C801 0.930 . S
H777 C807 0.930 . S
O778 Co767 2.093 . S
O778 C770 1.224 . S
H779 C811 0.929 . S
H780 C813 0.930 . S
H781 C814 0.930 . S
H782 C812 0.929 . S
H783 C815 0.928 . S
O784 Co768 2.057 . S
O784 C772 1.232 . S
H785 C804 0.929 . S
H786 C805 0.929 . S
H787 C817 0.931 . S
H788 C809 0.929 . S
H789 C818 0.930 . S
H790 C810 0.931 . S
O791 Co767 2.097 . S
O791 C819 1.214 . S
H792 C820 0.929 . S
H793 C821 0.929 . S
H794 C822 0.930 . S
H795 C823 0.929 . S
H796 C825 0.930 . S
H797 C802 0.930 . S
H798 C806 0.930 . S
O799 Co768 2.037 . S
O799 C819 1.234 . S
C800 O774 1.269 . S
C800 O775 1.257 . S
C801 H776 0.930 . S
C801 C804 1.388 . S
C801 C806 1.418 . S
C802 H797 0.930 . S
C802 C805 1.404 . S
C802 C806 1.353 . S
N803 Co768 2.145 . S
N803 C804 1.397 . S
N803 C805 1.334 . S
C804 H785 0.929 . S
C804 C801 1.388 . S
C804 N803 1.397 . S
C805 H786 0.929 . S
C805 C802 1.404 . S
C805 N803 1.334 . S
C806 H798 0.930 . S
C806 C801 1.418 . S
C806 C802 1.353 . S
C807 H777 0.930 . S
C807 N808 1.330 . S
C807 C809 1.446 . S
N808 Co767 2.151 . S
N808 C807 1.330 . S
N808 C812 1.418 . S
C809 H788 0.929 . S
C809 C807 1.446 . S
C809 C810 1.332 . S
C810 H790 0.931 . S
C810 C809 1.332 . S
C810 C811 1.267 . S
C811 H779 0.929 . S
C811 C810 1.267 . S
C811 C812 1.251 . S
C812 H782 0.929 . S
C812 N808 1.418 . S
C812 C811 1.251 . S
C813 H780 0.930 . S
C813 C815 1.406 . S
C813 C818 1.261 . S
C814 H781 0.930 . S
C814 N816 1.325 . S
C814 C817 1.357 . S
C815 H783 0.928 . S
C815 C813 1.406 . S
C815 N816 1.261 . S
N816 Co767 2.214 . S
N816 C814 1.325 . S
N816 C815 1.261 . S
C817 H787 0.931 . S
C817 C814 1.357 . S
C817 C818 1.312 . S
C818 H789 0.930 . S
C818 C813 1.261 . S
C818 C817 1.312 . S
C819 O791 1.214 . S
C819 O799 1.234 . S
C820 H792 0.929 . S
C820 C823 1.391 . S
C820 C825 1.391 . S
C821 H793 0.929 . S
C821 C822 1.390 . S
C821 N824 1.391 . S
C822 H794 0.930 . S
C822 C821 1.390 . S
C822 C823 1.392 . S
C823 H795 0.929 . S
C823 C820 1.391 . S
C823 C822 1.392 . S
N824 Co768 2.257 . S
N824 C821 1.391 . S
N824 C825 1.388 . S
C825 H796 0.930 . S
C825 C820 1.391 . S
C825 N824 1.388 . S
Co826 O828 2.143 . S
Co826 O834 2.074 . S
Co826 O837 2.093 . S
Co826 O850 2.097 . S
Co826 N867 2.151 1_565 S
Co826 N875 2.214 . S
Co827 O828 2.160 . S
Co827 O833 2.058 . S
Co827 O843 2.057 . S
Co827 O858 2.037 . S
Co827 N862 2.145 . S
Co827 N883 2.257 . S
O828 Co826 2.143 . S
O828 Co827 2.160 . S
C829 O830 1.278 1_545 S
C829 O837 1.224 1_545 S
O830 C829 1.278 1_565 S
C831 O832 1.245 1_565 S
C831 O843 1.232 . S
O832 C831 1.245 1_545 S
O833 Co827 2.058 . S
O833 C859 1.270 1_655 S
O834 Co826 2.074 . S
O834 C859 1.259 1_655 S
H835 C860 0.930 . S
H836 C866 0.930 . S
O837 Co826 2.093 . S
O837 C829 1.224 1_565 S
H838 C870 0.929 . S
H839 C872 0.930 . S
H840 C873 0.930 . S
H841 C871 0.929 1_565 S
H842 C874 0.928 1_545 S
O843 Co827 2.057 . S
O843 C831 1.232 . S
H844 C863 0.929 . S
H845 C864 0.929 . S
H846 C876 0.931 . S
H847 C868 0.929 . S
H848 C877 0.930 . S
H849 C869 0.931 . S
O850 Co826 2.097 . S
O850 C878 1.214 . S
H851 C879 0.929 . S
H852 C880 0.929 . S
H853 C881 0.930 . S
H854 C882 0.929 . S
H855 C884 0.930 . S
H856 C861 0.930 . S
H857 C865 0.930 . S
O858 Co827 2.037 . S
O858 C878 1.234 . S
C859 O833 1.270 1_455 S
C859 O834 1.259 1_455 S
C860 H835 0.930 . S
C860 C863 1.388 . S
C860 C865 1.418 . S
C861 H856 0.930 . S
C861 C864 1.404 . S
C861 C865 1.353 . S
N862 Co827 2.145 . S
N862 C863 1.397 . S
N862 C864 1.334 . S
C863 H844 0.929 . S
C863 C860 1.388 . S
C863 N862 1.397 . S
C864 H845 0.929 . S
C864 C861 1.404 . S
C864 N862 1.334 . S
C865 H857 0.930 . S
C865 C860 1.418 . S
C865 C861 1.353 . S
C866 H836 0.930 . S
C866 N867 1.330 . S
C866 C868 1.446 . S
N867 Co826 2.151 1_545 S
N867 C866 1.330 . S
N867 C871 1.418 1_655 S
C868 H847 0.929 . S
C868 C866 1.446 . S
C868 C869 1.332 1_655 S
C869 H849 0.931 . S
C869 C868 1.332 1_455 S
C869 C870 1.267 . S
C870 H838 0.929 . S
C870 C869 1.267 . S
C870 C871 1.251 . S
C871 H841 0.929 1_545 S
C871 N867 1.418 1_455 S
C871 C870 1.251 . S
C872 H839 0.930 . S
C872 C874 1.406 . S
C872 C877 1.261 . S
C873 H840 0.930 . S
C873 N875 1.325 . S
C873 C876 1.357 . S
C874 H842 0.928 1_565 S
C874 C872 1.406 . S
C874 N875 1.261 . S
N875 Co826 2.214 . S
N875 C873 1.325 . S
N875 C874 1.261 . S
C876 H846 0.931 . S
C876 C873 1.357 . S
C876 C877 1.312 . S
C877 H848 0.930 . S
C877 C872 1.261 . S
C877 C876 1.312 . S
C878 O850 1.214 . S
C878 O858 1.234 . S
C879 H851 0.929 . S
C879 C882 1.391 . S
C879 C884 1.391 . S
C880 H852 0.929 . S
C880 C881 1.390 . S
C880 N883 1.391 . S
C881 H853 0.930 . S
C881 C880 1.390 . S
C881 C882 1.392 . S
C882 H854 0.929 . S
C882 C879 1.391 . S
C882 C881 1.392 . S
N883 Co827 2.257 . S
N883 C880 1.391 . S
N883 C884 1.388 . S
C884 H855 0.930 . S
C884 C879 1.391 . S
C884 N883 1.388 . S
Co885 O887 2.143 . S
Co885 O893 2.074 . S
Co885 O896 2.093 . S
Co885 O909 2.097 . S
Co885 N926 2.151 . S
Co885 N934 2.214 . S
Co886 O887 2.160 . S
Co886 O892 2.058 . S
Co886 O902 2.057 . S
Co886 O917 2.037 . S
Co886 N921 2.145 . S
Co886 N942 2.257 . S
O887 Co885 2.143 . S
O887 Co886 2.160 . S
C888 O889 1.278 . S
C888 O896 1.224 . S
O889 C888 1.278 . S
C890 O891 1.245 . S
C890 O902 1.232 . S
O891 C890 1.245 . S
O892 Co886 2.058 . S
O892 C918 1.269 . S
O893 Co885 2.074 . S
O893 C918 1.257 . S
H894 C919 0.930 . S
H895 C925 0.930 . S
O896 Co885 2.093 . S
O896 C888 1.224 . S
H897 C929 0.929 . S
H898 C931 0.930 . S
H899 C932 0.930 . S
H900 C930 0.929 . S
H901 C933 0.928 . S
O902 Co886 2.057 . S
O902 C890 1.232 . S
H903 C922 0.929 . S
H904 C923 0.929 . S
H905 C935 0.931 . S
H906 C927 0.929 . S
H907 C936 0.930 . S
H908 C928 0.931 . S
O909 Co885 2.097 . S
O909 C937 1.214 . S
H910 C938 0.929 . S
H911 C939 0.929 . S
H912 C940 0.930 . S
H913 C941 0.929 . S
H914 C943 0.930 . S
H915 C920 0.930 . S
H916 C924 0.930 . S
O917 Co886 2.037 . S
O917 C937 1.234 . S
C918 O892 1.269 . S
C918 O893 1.257 . S
C919 H894 0.930 . S
C919 C922 1.388 . S
C919 C924 1.418 . S
C920 H915 0.930 . S
C920 C923 1.404 . S
C920 C924 1.353 . S
N921 Co886 2.145 . S
N921 C922 1.397 . S
N921 C923 1.334 . S
C922 H903 0.929 . S
C922 C919 1.388 . S
C922 N921 1.397 . S
C923 H904 0.929 . S
C923 C920 1.404 . S
C923 N921 1.334 . S
C924 H916 0.930 . S
C924 C919 1.418 . S
C924 C920 1.353 . S
C925 H895 0.930 . S
C925 N926 1.330 . S
C925 C927 1.446 . S
N926 Co885 2.151 . S
N926 C925 1.330 . S
N926 C930 1.418 . S
C927 H906 0.929 . S
C927 C925 1.446 . S
C927 C928 1.332 . S
C928 H908 0.931 . S
C928 C927 1.332 . S
C928 C929 1.267 . S
C929 H897 0.929 . S
C929 C928 1.267 . S
C929 C930 1.251 . S
C930 H900 0.929 . S
C930 N926 1.418 . S
C930 C929 1.251 . S
C931 H898 0.930 . S
C931 C933 1.406 . S
C931 C936 1.261 . S
C932 H899 0.930 . S
C932 N934 1.325 . S
C932 C935 1.357 . S
C933 H901 0.928 . S
C933 C931 1.406 . S
C933 N934 1.261 . S
N934 Co885 2.214 . S
N934 C932 1.325 . S
N934 C933 1.261 . S
C935 H905 0.931 . S
C935 C932 1.357 . S
C935 C936 1.312 . S
C936 H907 0.930 . S
C936 C931 1.261 . S
C936 C935 1.312 . S
C937 O909 1.214 . S
C937 O917 1.234 . S
C938 H910 0.929 . S
C938 C941 1.391 . S
C938 C943 1.391 . S
C939 H911 0.929 . S
C939 C940 1.390 . S
C939 N942 1.391 . S
C940 H912 0.930 . S
C940 C939 1.390 . S
C940 C941 1.392 . S
C941 H913 0.929 . S
C941 C938 1.391 . S
C941 C940 1.392 . S
N942 Co886 2.257 . S
N942 C939 1.391 . S
N942 C943 1.388 . S
C943 H914 0.930 . S
C943 C938 1.391 . S
C943 N942 1.388 . S
Co944 O946 2.143 . S
Co944 O952 2.074 . S
Co944 O955 2.093 . S
Co944 O968 2.097 . S
Co944 N985 2.151 . S
Co944 N993 2.214 . S
Co945 O946 2.160 . S
Co945 O951 2.058 . S
Co945 O961 2.057 . S
Co945 O976 2.037 . S
Co945 N980 2.145 . S
Co945 N1001 2.257 . S
O946 Co944 2.143 . S
O946 Co945 2.160 . S
C947 O948 1.278 . S
C947 O955 1.224 . S
O948 C947 1.278 . S
C949 O950 1.245 . S
C949 O961 1.232 . S
O950 C949 1.245 . S
O951 Co945 2.058 . S
O951 C977 1.270 1_655 S
O952 Co944 2.074 . S
O952 C977 1.258 1_655 S
H953 C978 0.930 . S
H954 C984 0.930 . S
O955 Co944 2.093 . S
O955 C947 1.224 . S
H956 C988 0.929 . S
H957 C990 0.930 . S
H958 C991 0.930 . S
H959 C989 0.929 . S
H960 C992 0.928 . S
O961 Co945 2.057 . S
O961 C949 1.232 . S
H962 C981 0.929 . S
H963 C982 0.929 . S
H964 C994 0.931 . S
H965 C986 0.929 . S
H966 C995 0.930 . S
H967 C987 0.931 . S
O968 Co944 2.097 . S
O968 C996 1.214 . S
H969 C997 0.929 . S
H970 C998 0.929 . S
H971 C999 0.930 . S
H972 C1000 0.929 . S
H973 C1002 0.930 . S
H974 C979 0.930 . S
H975 C983 0.930 . S
O976 Co945 2.037 . S
O976 C996 1.234 . S
C977 O951 1.270 1_455 S
C977 O952 1.258 1_455 S
C978 H953 0.930 . S
C978 C981 1.388 . S
C978 C983 1.418 . S
C979 H974 0.930 . S
C979 C982 1.404 . S
C979 C983 1.353 . S
N980 Co945 2.145 . S
N980 C981 1.397 . S
N980 C982 1.334 . S
C981 H962 0.929 . S
C981 C978 1.388 . S
C981 N980 1.397 . S
C982 H963 0.929 . S
C982 C979 1.404 . S
C982 N980 1.334 . S
C983 H975 0.930 . S
C983 C978 1.418 . S
C983 C979 1.353 . S
C984 H954 0.930 . S
C984 N985 1.330 . S
C984 C986 1.446 . S
N985 Co944 2.151 . S
N985 C984 1.330 . S
N985 C989 1.418 1_655 S
C986 H965 0.929 . S
C986 C984 1.446 . S
C986 C987 1.332 1_655 S
C987 H967 0.931 . S
C987 C986 1.332 1_455 S
C987 C988 1.267 . S
C988 H956 0.929 . S
C988 C987 1.267 . S
C988 C989 1.251 . S
C989 H959 0.929 . S
C989 N985 1.418 1_455 S
C989 C988 1.251 . S
C990 H957 0.930 . S
C990 C992 1.406 . S
C990 C995 1.261 . S
C991 H958 0.930 . S
C991 N993 1.325 . S
C991 C994 1.357 . S
C992 H960 0.928 . S
C992 C990 1.406 . S
C992 N993 1.261 . S
N993 Co944 2.214 . S
N993 C991 1.325 . S
N993 C992 1.261 . S
C994 H964 0.931 . S
C994 C991 1.357 . S
C994 C995 1.312 . S
C995 H966 0.930 . S
C995 C990 1.261 . S
C995 C994 1.312 . S
C996 O968 1.214 . S
C996 O976 1.234 . S
C997 H969 0.929 . S
C997 C1000 1.391 . S
C997 C1002 1.391 . S
C998 H970 0.929 . S
C998 C999 1.390 . S
C998 N1001 1.391 . S
C999 H971 0.930 . S
C999 C998 1.390 . S
C999 C1000 1.392 . S
C1000 H972 0.929 . S
C1000 C997 1.391 . S
C1000 C999 1.392 . S
N1001 Co945 2.257 . S
N1001 C998 1.391 . S
N1001 C1002 1.388 . S
C1002 H973 0.930 . S
C1002 C997 1.391 . S
C1002 N1001 1.388 . S
Co1003 O1005 2.143 . S
Co1003 O1011 2.074 . S
Co1003 O1014 2.093 . S
Co1003 O1027 2.097 . S
Co1003 N1044 2.151 . S
Co1003 N1052 2.214 . S
Co1004 O1005 2.160 . S
Co1004 O1010 2.058 . S
Co1004 O1020 2.057 . S
Co1004 O1035 2.037 . S
Co1004 N1039 2.145 . S
Co1004 N1060 2.257 . S
O1005 Co1003 2.143 . S
O1005 Co1004 2.160 . S
C1006 O1007 1.278 . S
C1006 O1014 1.224 . S
O1007 C1006 1.278 . S
C1008 O1009 1.245 . S
C1008 O1020 1.232 . S
O1009 C1008 1.245 . S
O1010 Co1004 2.058 . S
O1010 C1036 1.269 . S
O1011 Co1003 2.074 . S
O1011 C1036 1.257 . S
H1012 C1037 0.930 . S
H1013 C1043 0.930 . S
O1014 Co1003 2.093 . S
O1014 C1006 1.224 . S
H1015 C1047 0.929 . S
H1016 C1049 0.930 . S
H1017 C1050 0.930 . S
H1018 C1048 0.929 . S
H1019 C1051 0.928 . S
O1020 Co1004 2.057 . S
O1020 C1008 1.232 . S
H1021 C1040 0.929 . S
H1022 C1041 0.929 . S
H1023 C1053 0.931 . S
H1024 C1045 0.929 . S
H1025 C1054 0.930 . S
H1026 C1046 0.931 . S
O1027 Co1003 2.097 . S
O1027 C1055 1.214 . S
H1028 C1056 0.929 . S
H1029 C1057 0.929 . S
H1030 C1058 0.930 . S
H1031 C1059 0.929 . S
H1032 C1061 0.930 . S
H1033 C1038 0.930 . S
H1034 C1042 0.930 . S
O1035 Co1004 2.037 . S
O1035 C1055 1.234 . S
C1036 O1010 1.269 . S
C1036 O1011 1.257 . S
C1037 H1012 0.930 . S
C1037 C1040 1.388 . S
C1037 C1042 1.418 . S
C1038 H1033 0.930 . S
C1038 C1041 1.404 . S
C1038 C1042 1.353 . S
N1039 Co1004 2.145 . S
N1039 C1040 1.397 . S
N1039 C1041 1.334 . S
C1040 H1021 0.929 . S
C1040 C1037 1.388 . S
C1040 N1039 1.397 . S
C1041 H1022 0.929 . S
C1041 C1038 1.404 . S
C1041 N1039 1.334 . S
C1042 H1034 0.930 . S
C1042 C1037 1.418 . S
C1042 C1038 1.353 . S
C1043 H1013 0.930 . S
C1043 N1044 1.330 . S
C1043 C1045 1.446 . S
N1044 Co1003 2.151 . S
N1044 C1043 1.330 . S
N1044 C1048 1.418 . S
C1045 H1024 0.929 . S
C1045 C1043 1.446 . S
C1045 C1046 1.332 . S
C1046 H1026 0.931 . S
C1046 C1045 1.332 . S
C1046 C1047 1.267 . S
C1047 H1015 0.929 . S
C1047 C1046 1.267 . S
C1047 C1048 1.251 . S
C1048 H1018 0.929 . S
C1048 N1044 1.418 . S
C1048 C1047 1.251 . S
C1049 H1016 0.930 . S
C1049 C1051 1.406 . S
C1049 C1054 1.261 . S
C1050 H1017 0.930 . S
C1050 N1052 1.325 . S
C1050 C1053 1.357 . S
C1051 H1019 0.928 . S
C1051 C1049 1.406 . S
C1051 N1052 1.261 . S
N1052 Co1003 2.214 . S
N1052 C1050 1.325 . S
N1052 C1051 1.261 . S
C1053 H1023 0.931 . S
C1053 C1050 1.357 . S
C1053 C1054 1.312 . S
C1054 H1025 0.930 . S
C1054 C1049 1.261 . S
C1054 C1053 1.312 . S
C1055 O1027 1.214 . S
C1055 O1035 1.234 . S
C1056 H1028 0.929 . S
C1056 C1059 1.391 . S
C1056 C1061 1.391 . S
C1057 H1029 0.929 . S
C1057 C1058 1.390 . S
C1057 N1060 1.391 . S
C1058 H1030 0.930 . S
C1058 C1057 1.390 . S
C1058 C1059 1.392 . S
C1059 H1031 0.929 . S
C1059 C1056 1.391 . S
C1059 C1058 1.392 . S
N1060 Co1004 2.257 . S
N1060 C1057 1.391 . S
N1060 C1061 1.388 . S
C1061 H1032 0.930 . S
C1061 C1056 1.391 . S
C1061 N1060 1.388 . S
Co1062 O1064 2.143 . S
Co1062 O1070 2.074 . S
Co1062 O1073 2.093 . S
Co1062 O1086 2.097 . S
Co1062 N1103 2.151 . S
Co1062 N1111 2.214 . S
Co1063 O1064 2.160 . S
Co1063 O1069 2.058 . S
Co1063 O1079 2.057 . S
Co1063 O1094 2.037 . S
Co1063 N1098 2.145 . S
Co1063 N1119 2.257 . S
O1064 Co1062 2.143 . S
O1064 Co1063 2.160 . S
C1065 O1066 1.278 . S
C1065 O1073 1.224 . S
O1066 C1065 1.278 . S
C1067 O1068 1.245 . S
C1067 O1079 1.232 . S
O1068 C1067 1.245 . S
O1069 Co1063 2.058 . S
O1069 C1095 1.269 . S
O1070 Co1062 2.074 . S
O1070 C1095 1.257 . S
H1071 C1096 0.930 . S
H1072 C1102 0.930 . S
O1073 Co1062 2.093 . S
O1073 C1065 1.224 . S
H1074 C1106 0.929 . S
H1075 C1108 0.930 . S
H1076 C1109 0.930 . S
H1077 C1107 0.929 . S
H1078 C1110 0.928 . S
O1079 Co1063 2.057 . S
O1079 C1067 1.232 . S
H1080 C1099 0.929 . S
H1081 C1100 0.929 . S
H1082 C1112 0.931 . S
H1083 C1104 0.929 . S
H1084 C1113 0.930 . S
H1085 C1105 0.931 . S
O1086 Co1062 2.097 . S
O1086 C1114 1.214 . S
H1087 C1115 0.929 . S
H1088 C1116 0.929 . S
H1089 C1117 0.930 . S
H1090 C1118 0.929 . S
H1091 C1120 0.930 . S
H1092 C1097 0.930 . S
H1093 C1101 0.930 . S
O1094 Co1063 2.037 . S
O1094 C1114 1.234 . S
C1095 O1069 1.269 . S
C1095 O1070 1.257 . S
C1096 H1071 0.930 . S
C1096 C1099 1.388 . S
C1096 C1101 1.418 . S
C1097 H1092 0.930 . S
C1097 C1100 1.404 . S
C1097 C1101 1.353 . S
N1098 Co1063 2.145 . S
N1098 C1099 1.397 . S
N1098 C1100 1.334 . S
C1099 H1080 0.929 . S
C1099 C1096 1.388 . S
C1099 N1098 1.397 . S
C1100 H1081 0.929 . S
C1100 C1097 1.404 . S
C1100 N1098 1.334 . S
C1101 H1093 0.930 . S
C1101 C1096 1.418 . S
C1101 C1097 1.353 . S
C1102 H1072 0.930 . S
C1102 N1103 1.330 . S
C1102 C1104 1.446 . S
N1103 Co1062 2.151 . S
N1103 C1102 1.330 . S
N1103 C1107 1.418 . S
C1104 H1083 0.929 . S
C1104 C1102 1.446 . S
C1104 C1105 1.332 . S
C1105 H1085 0.931 . S
C1105 C1104 1.332 . S
C1105 C1106 1.267 . S
C1106 H1074 0.929 . S
C1106 C1105 1.267 . S
C1106 C1107 1.251 . S
C1107 H1077 0.929 . S
C1107 N1103 1.418 . S
C1107 C1106 1.251 . S
C1108 H1075 0.930 . S
C1108 C1110 1.406 . S
C1108 C1113 1.261 . S
C1109 H1076 0.930 . S
C1109 N1111 1.325 . S
C1109 C1112 1.357 . S
C1110 H1078 0.928 . S
C1110 C1108 1.406 . S
C1110 N1111 1.261 . S
N1111 Co1062 2.214 . S
N1111 C1109 1.325 . S
N1111 C1110 1.261 . S
C1112 H1082 0.931 . S
C1112 C1109 1.357 . S
C1112 C1113 1.312 . S
C1113 H1084 0.930 . S
C1113 C1108 1.261 . S
C1113 C1112 1.312 . S
C1114 O1086 1.214 . S
C1114 O1094 1.234 . S
C1115 H1087 0.929 . S
C1115 C1118 1.391 . S
C1115 C1120 1.391 . S
C1116 H1088 0.929 . S
C1116 C1117 1.390 . S
C1116 N1119 1.391 . S
C1117 H1089 0.930 . S
C1117 C1116 1.390 . S
C1117 C1118 1.392 . S
C1118 H1090 0.929 . S
C1118 C1115 1.391 . S
C1118 C1117 1.392 . S
N1119 Co1063 2.257 . S
N1119 C1116 1.391 . S
N1119 C1120 1.388 . S
C1120 H1091 0.930 . S
C1120 C1115 1.391 . S
C1120 N1119 1.388 . S
Co1121 O1123 2.143 . S
Co1121 O1129 2.074 . S
Co1121 O1132 2.093 . S
Co1121 O1145 2.097 . S
Co1121 N1162 2.151 . S
Co1121 N1170 2.214 . S
Co1122 O1123 2.160 . S
Co1122 O1128 2.058 . S
Co1122 O1138 2.057 . S
Co1122 O1153 2.037 . S
Co1122 N1157 2.145 . S
Co1122 N1178 2.257 . S
O1123 Co1121 2.143 . S
O1123 Co1122 2.160 . S
C1124 O1125 1.278 . S
C1124 O1132 1.224 . S
O1125 C1124 1.278 . S
C1126 O1127 1.245 . S
C1126 O1138 1.232 . S
O1127 C1126 1.245 . S
O1128 Co1122 2.058 . S
O1128 C1154 1.269 . S
O1129 Co1121 2.074 . S
O1129 C1154 1.257 . S
H1130 C1155 0.930 . S
H1131 C1161 0.930 . S
O1132 Co1121 2.093 . S
O1132 C1124 1.224 . S
H1133 C1165 0.929 . S
H1134 C1167 0.930 . S
H1135 C1168 0.930 . S
H1136 C1166 0.929 . S
H1137 C1169 0.928 . S
O1138 Co1122 2.057 . S
O1138 C1126 1.232 . S
H1139 C1158 0.929 . S
H1140 C1159 0.929 . S
H1141 C1171 0.931 . S
H1142 C1163 0.929 . S
H1143 C1172 0.930 . S
H1144 C1164 0.931 . S
O1145 Co1121 2.097 . S
O1145 C1173 1.214 . S
H1146 C1174 0.929 . S
H1147 C1175 0.929 . S
H1148 C1176 0.930 . S
H1149 C1177 0.929 . S
H1150 C1179 0.930 . S
H1151 C1156 0.930 . S
H1152 C1160 0.930 . S
O1153 Co1122 2.037 . S
O1153 C1173 1.234 . S
C1154 O1128 1.269 . S
C1154 O1129 1.257 . S
C1155 H1130 0.930 . S
C1155 C1158 1.388 . S
C1155 C1160 1.418 . S
C1156 H1151 0.930 . S
C1156 C1159 1.404 . S
C1156 C1160 1.353 . S
N1157 Co1122 2.145 . S
N1157 C1158 1.397 . S
N1157 C1159 1.334 . S
C1158 H1139 0.929 . S
C1158 C1155 1.388 . S
C1158 N1157 1.397 . S
C1159 H1140 0.929 . S
C1159 C1156 1.404 . S
C1159 N1157 1.334 . S
C1160 H1152 0.930 . S
C1160 C1155 1.418 . S
C1160 C1156 1.353 . S
C1161 H1131 0.930 . S
C1161 N1162 1.330 . S
C1161 C1163 1.446 . S
N1162 Co1121 2.151 . S
N1162 C1161 1.330 . S
N1162 C1166 1.418 . S
C1163 H1142 0.929 . S
C1163 C1161 1.446 . S
C1163 C1164 1.332 . S
C1164 H1144 0.931 . S
C1164 C1163 1.332 . S
C1164 C1165 1.267 . S
C1165 H1133 0.929 . S
C1165 C1164 1.267 . S
C1165 C1166 1.251 . S
C1166 H1136 0.929 . S
C1166 N1162 1.418 . S
C1166 C1165 1.251 . S
C1167 H1134 0.930 . S
C1167 C1169 1.406 . S
C1167 C1172 1.261 . S
C1168 H1135 0.930 . S
C1168 N1170 1.325 . S
C1168 C1171 1.357 . S
C1169 H1137 0.928 . S
C1169 C1167 1.406 . S
C1169 N1170 1.261 . S
N1170 Co1121 2.214 . S
N1170 C1168 1.325 . S
N1170 C1169 1.261 . S
C1171 H1141 0.931 . S
C1171 C1168 1.357 . S
C1171 C1172 1.312 . S
C1172 H1143 0.930 . S
C1172 C1167 1.261 . S
C1172 C1171 1.312 . S
C1173 O1145 1.214 . S
C1173 O1153 1.234 . S
C1174 H1146 0.929 . S
C1174 C1177 1.391 . S
C1174 C1179 1.391 . S
C1175 H1147 0.929 . S
C1175 C1176 1.390 . S
C1175 N1178 1.391 . S
C1176 H1148 0.930 . S
C1176 C1175 1.390 . S
C1176 C1177 1.392 . S
C1177 H1149 0.929 . S
C1177 C1174 1.391 . S
C1177 C1176 1.392 . S
N1178 Co1122 2.257 . S
N1178 C1175 1.391 . S
N1178 C1179 1.388 . S
C1179 H1150 0.930 . S
C1179 C1174 1.391 . S
C1179 N1178 1.388 . S
Co1180 O1182 2.143 . S
Co1180 O1188 2.074 . S
Co1180 O1191 2.093 . S
Co1180 O1204 2.097 . S
Co1180 N1221 2.151 . S
Co1180 N1229 2.214 . S
Co1181 O1182 2.160 . S
Co1181 O1187 2.058 . S
Co1181 O1197 2.057 . S
Co1181 O1212 2.037 . S
Co1181 N1216 2.145 . S
Co1181 N1237 2.257 . S
O1182 Co1180 2.143 . S
O1182 Co1181 2.160 . S
C1183 O1184 1.278 . S
C1183 O1191 1.224 . S
O1184 C1183 1.278 . S
C1185 O1186 1.245 . S
C1185 O1197 1.232 . S
O1186 C1185 1.245 . S
O1187 Co1181 2.058 . S
O1187 C1213 1.270 1_655 S
O1188 Co1180 2.074 . S
O1188 C1213 1.258 1_655 S
H1189 C1214 0.930 . S
H1190 C1220 0.930 . S
O1191 Co1180 2.093 . S
O1191 C1183 1.224 . S
H1192 C1224 0.929 . S
H1193 C1226 0.930 . S
H1194 C1227 0.930 . S
H1195 C1225 0.929 . S
H1196 C1228 0.928 . S
O1197 Co1181 2.057 . S
O1197 C1185 1.232 . S
H1198 C1217 0.929 . S
H1199 C1218 0.929 . S
H1200 C1230 0.931 . S
H1201 C1222 0.929 . S
H1202 C1231 0.930 . S
H1203 C1223 0.931 . S
O1204 Co1180 2.097 . S
O1204 C1232 1.214 . S
H1205 C1233 0.929 . S
H1206 C1234 0.929 . S
H1207 C1235 0.930 . S
H1208 C1236 0.929 . S
H1209 C1238 0.930 . S
H1210 C1215 0.930 . S
H1211 C1219 0.930 . S
O1212 Co1181 2.037 . S
O1212 C1232 1.234 . S
C1213 O1187 1.270 1_455 S
C1213 O1188 1.258 1_455 S
C1214 H1189 0.930 . S
C1214 C1217 1.388 . S
C1214 C1219 1.418 . S
C1215 H1210 0.930 . S
C1215 C1218 1.404 . S
C1215 C1219 1.353 . S
N1216 Co1181 2.145 . S
N1216 C1217 1.397 . S
N1216 C1218 1.334 . S
C1217 H1198 0.929 . S
C1217 C1214 1.388 . S
C1217 N1216 1.397 . S
C1218 H1199 0.929 . S
C1218 C1215 1.404 . S
C1218 N1216 1.334 . S
C1219 H1211 0.930 . S
C1219 C1214 1.418 . S
C1219 C1215 1.353 . S
C1220 H1190 0.930 . S
C1220 N1221 1.330 . S
C1220 C1222 1.446 . S
N1221 Co1180 2.151 . S
N1221 C1220 1.330 . S
N1221 C1225 1.418 1_655 S
C1222 H1201 0.929 . S
C1222 C1220 1.446 . S
C1222 C1223 1.332 1_655 S
C1223 H1203 0.931 . S
C1223 C1222 1.332 1_455 S
C1223 C1224 1.267 . S
C1224 H1192 0.929 . S
C1224 C1223 1.267 . S
C1224 C1225 1.251 . S
C1225 H1195 0.929 . S
C1225 N1221 1.418 1_455 S
C1225 C1224 1.251 . S
C1226 H1193 0.930 . S
C1226 C1228 1.406 . S
C1226 C1231 1.261 . S
C1227 H1194 0.930 . S
C1227 N1229 1.325 . S
C1227 C1230 1.357 . S
C1228 H1196 0.928 . S
C1228 C1226 1.406 . S
C1228 N1229 1.261 . S
N1229 Co1180 2.214 . S
N1229 C1227 1.325 . S
N1229 C1228 1.261 . S
C1230 H1200 0.931 . S
C1230 C1227 1.357 . S
C1230 C1231 1.312 . S
C1231 H1202 0.930 . S
C1231 C1226 1.261 . S
C1231 C1230 1.312 . S
C1232 O1204 1.214 . S
C1232 O1212 1.234 . S
C1233 H1205 0.929 . S
C1233 C1236 1.391 . S
C1233 C1238 1.391 . S
C1234 H1206 0.929 . S
C1234 C1235 1.390 . S
C1234 N1237 1.391 . S
C1235 H1207 0.930 . S
C1235 C1234 1.390 . S
C1235 C1236 1.392 . S
C1236 H1208 0.929 . S
C1236 C1233 1.391 . S
C1236 C1235 1.392 . S
N1237 Co1181 2.257 . S
N1237 C1234 1.391 . S
N1237 C1238 1.388 . S
C1238 H1209 0.930 . S
C1238 C1233 1.391 . S
C1238 N1237 1.388 . S
Co1239 O1241 2.143 . S
Co1239 O1247 2.074 . S
Co1239 O1250 2.093 . S
Co1239 O1263 2.097 . S
Co1239 N1280 2.151 . S
Co1239 N1288 2.214 . S
Co1240 O1241 2.160 . S
Co1240 O1246 2.058 . S
Co1240 O1256 2.057 . S
Co1240 O1271 2.037 . S
Co1240 N1275 2.145 . S
Co1240 N1296 2.257 . S
O1241 Co1239 2.143 . S
O1241 Co1240 2.160 . S
C1242 O1243 1.278 . S
C1242 O1250 1.224 . S
O1243 C1242 1.278 . S
C1244 O1245 1.245 . S
C1244 O1256 1.232 . S
O1245 C1244 1.245 . S
O1246 Co1240 2.058 . S
O1246 C1272 1.269 . S
O1247 Co1239 2.074 . S
O1247 C1272 1.257 . S
H1248 C1273 0.930 . S
H1249 C1279 0.930 . S
O1250 Co1239 2.093 . S
O1250 C1242 1.224 . S
H1251 C1283 0.929 . S
H1252 C1285 0.930 . S
H1253 C1286 0.930 . S
H1254 C1284 0.929 . S
H1255 C1287 0.928 . S
O1256 Co1240 2.057 . S
O1256 C1244 1.232 . S
H1257 C1276 0.929 . S
H1258 C1277 0.929 . S
H1259 C1289 0.931 . S
H1260 C1281 0.929 . S
H1261 C1290 0.930 . S
H1262 C1282 0.931 . S
O1263 Co1239 2.097 . S
O1263 C1291 1.214 . S
H1264 C1292 0.929 . S
H1265 C1293 0.929 . S
H1266 C1294 0.930 . S
H1267 C1295 0.929 . S
H1268 C1297 0.930 . S
H1269 C1274 0.930 . S
H1270 C1278 0.930 . S
O1271 Co1240 2.037 . S
O1271 C1291 1.234 . S
C1272 O1246 1.269 . S
C1272 O1247 1.257 . S
C1273 H1248 0.930 . S
C1273 C1276 1.388 . S
C1273 C1278 1.418 . S
C1274 H1269 0.930 . S
C1274 C1277 1.404 . S
C1274 C1278 1.353 . S
N1275 Co1240 2.145 . S
N1275 C1276 1.397 . S
N1275 C1277 1.334 . S
C1276 H1257 0.929 . S
C1276 C1273 1.388 . S
C1276 N1275 1.397 . S
C1277 H1258 0.929 . S
C1277 C1274 1.404 . S
C1277 N1275 1.334 . S
C1278 H1270 0.930 . S
C1278 C1273 1.418 . S
C1278 C1274 1.353 . S
C1279 H1249 0.930 . S
C1279 N1280 1.330 . S
C1279 C1281 1.446 . S
N1280 Co1239 2.151 . S
N1280 C1279 1.330 . S
N1280 C1284 1.418 . S
C1281 H1260 0.929 . S
C1281 C1279 1.446 . S
C1281 C1282 1.332 . S
C1282 H1262 0.931 . S
C1282 C1281 1.332 . S
C1282 C1283 1.267 . S
C1283 H1251 0.929 . S
C1283 C1282 1.267 . S
C1283 C1284 1.251 . S
C1284 H1254 0.929 . S
C1284 N1280 1.418 . S
C1284 C1283 1.251 . S
C1285 H1252 0.930 . S
C1285 C1287 1.406 . S
C1285 C1290 1.261 . S
C1286 H1253 0.930 . S
C1286 N1288 1.325 . S
C1286 C1289 1.357 . S
C1287 H1255 0.928 . S
C1287 C1285 1.406 . S
C1287 N1288 1.261 . S
N1288 Co1239 2.214 . S
N1288 C1286 1.325 . S
N1288 C1287 1.261 . S
C1289 H1259 0.931 . S
C1289 C1286 1.357 . S
C1289 C1290 1.312 . S
C1290 H1261 0.930 . S
C1290 C1285 1.261 . S
C1290 C1289 1.312 . S
C1291 O1263 1.214 . S
C1291 O1271 1.234 . S
C1292 H1264 0.929 . S
C1292 C1295 1.391 . S
C1292 C1297 1.391 . S
C1293 H1265 0.929 . S
C1293 C1294 1.390 . S
C1293 N1296 1.391 . S
C1294 H1266 0.930 . S
C1294 C1293 1.390 . S
C1294 C1295 1.392 . S
C1295 H1267 0.929 . S
C1295 C1292 1.391 . S
C1295 C1294 1.392 . S
N1296 Co1240 2.257 . S
N1296 C1293 1.391 . S
N1296 C1297 1.388 . S
C1297 H1268 0.930 . S
C1297 C1292 1.391 . S
C1297 N1296 1.388 . S
Co1298 O1300 2.143 . S
Co1298 O1306 2.074 . S
Co1298 O1309 2.093 . S
Co1298 O1322 2.097 . S
Co1298 N1339 2.151 . S
Co1298 N1347 2.214 . S
Co1299 O1300 2.160 . S
Co1299 O1305 2.058 . S
Co1299 O1315 2.057 . S
Co1299 O1330 2.037 . S
Co1299 N1334 2.145 . S
Co1299 N1355 2.257 . S
O1300 Co1298 2.143 . S
O1300 Co1299 2.160 . S
C1301 O1302 1.278 . S
C1301 O1309 1.224 . S
O1302 C1301 1.278 . S
C1303 O1304 1.245 . S
C1303 O1315 1.232 . S
O1304 C1303 1.245 . S
O1305 Co1299 2.058 . S
O1305 C1331 1.269 . S
O1306 Co1298 2.074 . S
O1306 C1331 1.257 . S
H1307 C1332 0.930 . S
H1308 C1338 0.930 . S
O1309 Co1298 2.093 . S
O1309 C1301 1.224 . S
H1310 C1342 0.929 . S
H1311 C1344 0.930 . S
H1312 C1345 0.930 . S
H1313 C1343 0.929 . S
H1314 C1346 0.928 . S
O1315 Co1299 2.057 . S
O1315 C1303 1.232 . S
H1316 C1335 0.929 . S
H1317 C1336 0.929 . S
H1318 C1348 0.931 . S
H1319 C1340 0.929 . S
H1320 C1349 0.930 . S
H1321 C1341 0.931 . S
O1322 Co1298 2.097 . S
O1322 C1350 1.214 . S
H1323 C1351 0.929 . S
H1324 C1352 0.929 . S
H1325 C1353 0.930 . S
H1326 C1354 0.929 . S
H1327 C1356 0.930 . S
H1328 C1333 0.930 . S
H1329 C1337 0.930 . S
O1330 Co1299 2.037 . S
O1330 C1350 1.234 . S
C1331 O1305 1.269 . S
C1331 O1306 1.257 . S
C1332 H1307 0.930 . S
C1332 C1335 1.388 . S
C1332 C1337 1.418 . S
C1333 H1328 0.930 . S
C1333 C1336 1.404 . S
C1333 C1337 1.353 . S
N1334 Co1299 2.145 . S
N1334 C1335 1.397 . S
N1334 C1336 1.334 . S
C1335 H1316 0.929 . S
C1335 C1332 1.388 . S
C1335 N1334 1.397 . S
C1336 H1317 0.929 . S
C1336 C1333 1.404 . S
C1336 N1334 1.334 . S
C1337 H1329 0.930 . S
C1337 C1332 1.418 . S
C1337 C1333 1.353 . S
C1338 H1308 0.930 . S
C1338 N1339 1.330 . S
C1338 C1340 1.446 . S
N1339 Co1298 2.151 . S
N1339 C1338 1.330 . S
N1339 C1343 1.418 . S
C1340 H1319 0.929 . S
C1340 C1338 1.446 . S
C1340 C1341 1.332 . S
C1341 H1321 0.931 . S
C1341 C1340 1.332 . S
C1341 C1342 1.267 . S
C1342 H1310 0.929 . S
C1342 C1341 1.267 . S
C1342 C1343 1.251 . S
C1343 H1313 0.929 . S
C1343 N1339 1.418 . S
C1343 C1342 1.251 . S
C1344 H1311 0.930 . S
C1344 C1346 1.406 . S
C1344 C1349 1.261 . S
C1345 H1312 0.930 . S
C1345 N1347 1.325 . S
C1345 C1348 1.357 . S
C1346 H1314 0.928 . S
C1346 C1344 1.406 . S
C1346 N1347 1.261 . S
N1347 Co1298 2.214 . S
N1347 C1345 1.325 . S
N1347 C1346 1.261 . S
C1348 H1318 0.931 . S
C1348 C1345 1.357 . S
C1348 C1349 1.312 . S
C1349 H1320 0.930 . S
C1349 C1344 1.261 . S
C1349 C1348 1.312 . S
C1350 O1322 1.214 . S
C1350 O1330 1.234 . S
C1351 H1323 0.929 . S
C1351 C1354 1.391 . S
C1351 C1356 1.391 . S
C1352 H1324 0.929 . S
C1352 C1353 1.390 . S
C1352 N1355 1.391 . S
C1353 H1325 0.930 . S
C1353 C1352 1.390 . S
C1353 C1354 1.392 . S
C1354 H1326 0.929 . S
C1354 C1351 1.391 . S
C1354 C1353 1.392 . S
N1355 Co1299 2.257 . S
N1355 C1352 1.391 . S
N1355 C1356 1.388 . S
C1356 H1327 0.930 . S
C1356 C1351 1.391 . S
C1356 N1355 1.388 . S
Co1357 O1359 2.143 . S
Co1357 O1365 2.074 . S
Co1357 O1368 2.093 . S
Co1357 O1381 2.097 . S
Co1357 N1398 2.151 . S
Co1357 N1406 2.214 . S
Co1358 O1359 2.160 . S
Co1358 O1364 2.058 . S
Co1358 O1374 2.057 . S
Co1358 O1389 2.037 . S
Co1358 N1393 2.145 . S
Co1358 N1414 2.257 . S
O1359 Co1357 2.143 . S
O1359 Co1358 2.160 . S
C1360 O1361 1.278 . S
C1360 O1368 1.224 . S
O1361 C1360 1.278 . S
C1362 O1363 1.245 . S
C1362 O1374 1.232 . S
O1363 C1362 1.245 . S
O1364 Co1358 2.058 . S
O1364 C1390 1.269 . S
O1365 Co1357 2.074 . S
O1365 C1390 1.257 . S
H1366 C1391 0.930 . S
H1367 C1397 0.930 . S
O1368 Co1357 2.093 . S
O1368 C1360 1.224 . S
H1369 C1401 0.929 . S
H1370 C1403 0.930 . S
H1371 C1404 0.930 . S
H1372 C1402 0.929 . S
H1373 C1405 0.928 . S
O1374 Co1358 2.057 . S
O1374 C1362 1.232 . S
H1375 C1394 0.929 . S
H1376 C1395 0.929 . S
H1377 C1407 0.931 . S
H1378 C1399 0.929 . S
H1379 C1408 0.930 . S
H1380 C1400 0.931 . S
O1381 Co1357 2.097 . S
O1381 C1409 1.214 . S
H1382 C1410 0.929 . S
H1383 C1411 0.929 . S
H1384 C1412 0.930 . S
H1385 C1413 0.929 . S
H1386 C1415 0.930 . S
H1387 C1392 0.930 . S
H1388 C1396 0.930 . S
O1389 Co1358 2.037 . S
O1389 C1409 1.234 . S
C1390 O1364 1.269 . S
C1390 O1365 1.257 . S
C1391 H1366 0.930 . S
C1391 C1394 1.388 . S
C1391 C1396 1.418 . S
C1392 H1387 0.930 . S
C1392 C1395 1.404 . S
C1392 C1396 1.353 . S
N1393 Co1358 2.145 . S
N1393 C1394 1.397 . S
N1393 C1395 1.334 . S
C1394 H1375 0.929 . S
C1394 C1391 1.388 . S
C1394 N1393 1.397 . S
C1395 H1376 0.929 . S
C1395 C1392 1.404 . S
C1395 N1393 1.334 . S
C1396 H1388 0.930 . S
C1396 C1391 1.418 . S
C1396 C1392 1.353 . S
C1397 H1367 0.930 . S
C1397 N1398 1.330 . S
C1397 C1399 1.446 . S
N1398 Co1357 2.151 . S
N1398 C1397 1.330 . S
N1398 C1402 1.418 . S
C1399 H1378 0.929 . S
C1399 C1397 1.446 . S
C1399 C1400 1.332 . S
C1400 H1380 0.931 . S
C1400 C1399 1.332 . S
C1400 C1401 1.267 . S
C1401 H1369 0.929 . S
C1401 C1400 1.267 . S
C1401 C1402 1.251 . S
C1402 H1372 0.929 . S
C1402 N1398 1.418 . S
C1402 C1401 1.251 . S
C1403 H1370 0.930 . S
C1403 C1405 1.406 . S
C1403 C1408 1.261 . S
C1404 H1371 0.930 . S
C1404 N1406 1.325 . S
C1404 C1407 1.357 . S
C1405 H1373 0.928 . S
C1405 C1403 1.406 . S
C1405 N1406 1.261 . S
N1406 Co1357 2.214 . S
N1406 C1404 1.325 . S
N1406 C1405 1.261 . S
C1407 H1377 0.931 . S
C1407 C1404 1.357 . S
C1407 C1408 1.312 . S
C1408 H1379 0.930 . S
C1408 C1403 1.261 . S
C1408 C1407 1.312 . S
C1409 O1381 1.214 . S
C1409 O1389 1.234 . S
C1410 H1382 0.929 . S
C1410 C1413 1.391 . S
C1410 C1415 1.391 . S
C1411 H1383 0.929 . S
C1411 C1412 1.390 . S
C1411 N1414 1.391 . S
C1412 H1384 0.930 . S
C1412 C1411 1.390 . S
C1412 C1413 1.392 . S
C1413 H1385 0.929 . S
C1413 C1410 1.391 . S
C1413 C1412 1.392 . S
N1414 Co1358 2.257 . S
N1414 C1411 1.391 . S
N1414 C1415 1.388 . S
C1415 H1386 0.930 . S
C1415 C1410 1.391 . S
C1415 N1414 1.388 . S
Co1416 O1418 2.143 . S
Co1416 O1424 2.074 . S
Co1416 O1427 2.093 . S
Co1416 O1440 2.097 . S
Co1416 N1457 2.151 . S
Co1416 N1465 2.214 . S
Co1417 O1418 2.160 . S
Co1417 O1423 2.058 . S
Co1417 O1433 2.057 . S
Co1417 O1448 2.037 . S
Co1417 N1452 2.145 . S
Co1417 N1473 2.257 . S
O1418 Co1416 2.143 . S
O1418 Co1417 2.160 . S
C1419 O1420 1.278 . S
C1419 O1427 1.224 . S
O1420 C1419 1.278 . S
C1421 O1422 1.245 . S
C1421 O1433 1.232 . S
O1422 C1421 1.245 . S
O1423 Co1417 2.058 . S
O1423 C1449 1.270 1_455 S
O1424 Co1416 2.074 . S
O1424 C1449 1.258 1_455 S
H1425 C1450 0.930 . S
H1426 C1456 0.930 . S
O1427 Co1416 2.093 . S
O1427 C1419 1.224 . S
H1428 C1460 0.929 . S
H1429 C1462 0.930 . S
H1430 C1463 0.930 . S
H1431 C1461 0.929 . S
H1432 C1464 0.928 . S
O1433 Co1417 2.057 . S
O1433 C1421 1.232 . S
H1434 C1453 0.929 . S
H1435 C1454 0.929 . S
H1436 C1466 0.931 . S
H1437 C1458 0.929 . S
H1438 C1467 0.930 . S
H1439 C1459 0.931 . S
O1440 Co1416 2.097 . S
O1440 C1468 1.214 . S
H1441 C1469 0.929 . S
H1442 C1470 0.929 . S
H1443 C1471 0.930 . S
H1444 C1472 0.929 . S
H1445 C1474 0.930 . S
H1446 C1451 0.930 . S
H1447 C1455 0.930 . S
O1448 Co1417 2.037 . S
O1448 C1468 1.234 . S
C1449 O1423 1.270 1_655 S
C1449 O1424 1.258 1_655 S
C1450 H1425 0.930 . S
C1450 C1453 1.388 . S
C1450 C1455 1.418 . S
C1451 H1446 0.930 . S
C1451 C1454 1.404 . S
C1451 C1455 1.353 . S
N1452 Co1417 2.145 . S
N1452 C1453 1.397 . S
N1452 C1454 1.334 . S
C1453 H1434 0.929 . S
C1453 C1450 1.388 . S
C1453 N1452 1.397 . S
C1454 H1435 0.929 . S
C1454 C1451 1.404 . S
C1454 N1452 1.334 . S
C1455 H1447 0.930 . S
C1455 C1450 1.418 . S
C1455 C1451 1.353 . S
C1456 H1426 0.930 . S
C1456 N1457 1.330 . S
C1456 C1458 1.446 . S
N1457 Co1416 2.151 . S
N1457 C1456 1.330 . S
N1457 C1461 1.418 1_455 S
C1458 H1437 0.929 . S
C1458 C1456 1.446 . S
C1458 C1459 1.332 1_455 S
C1459 H1439 0.931 . S
C1459 C1458 1.332 1_655 S
C1459 C1460 1.267 . S
C1460 H1428 0.929 . S
C1460 C1459 1.267 . S
C1460 C1461 1.251 . S
C1461 H1431 0.929 . S
C1461 N1457 1.418 1_655 S
C1461 C1460 1.251 . S
C1462 H1429 0.930 . S
C1462 C1464 1.406 . S
C1462 C1467 1.261 . S
C1463 H1430 0.930 . S
C1463 N1465 1.325 . S
C1463 C1466 1.357 . S
C1464 H1432 0.928 . S
C1464 C1462 1.406 . S
C1464 N1465 1.261 . S
N1465 Co1416 2.214 . S
N1465 C1463 1.325 . S
N1465 C1464 1.261 . S
C1466 H1436 0.931 . S
C1466 C1463 1.357 . S
C1466 C1467 1.312 . S
C1467 H1438 0.930 . S
C1467 C1462 1.261 . S
C1467 C1466 1.312 . S
C1468 O1440 1.214 . S
C1468 O1448 1.234 . S
C1469 H1441 0.929 . S
C1469 C1472 1.391 . S
C1469 C1474 1.391 . S
C1470 H1442 0.929 . S
C1470 C1471 1.390 . S
C1470 N1473 1.391 . S
C1471 H1443 0.930 . S
C1471 C1470 1.390 . S
C1471 C1472 1.392 . S
C1472 H1444 0.929 . S
C1472 C1469 1.391 . S
C1472 C1471 1.392 . S
N1473 Co1417 2.257 . S
N1473 C1470 1.391 . S
N1473 C1474 1.388 . S
C1474 H1445 0.930 . S
C1474 C1469 1.391 . S
C1474 N1473 1.388 . S
Co1475 O1477 2.143 . S
Co1475 O1483 2.074 . S
Co1475 O1486 2.093 . S
Co1475 O1499 2.097 . S
Co1475 N1516 2.151 . S
Co1475 N1524 2.214 . S
Co1476 O1477 2.160 . S
Co1476 O1482 2.058 . S
Co1476 O1492 2.057 . S
Co1476 O1507 2.037 . S
Co1476 N1511 2.145 . S
Co1476 N1532 2.257 . S
O1477 Co1475 2.143 . S
O1477 Co1476 2.160 . S
C1478 O1479 1.278 . S
C1478 O1486 1.224 . S
O1479 C1478 1.278 . S
C1480 O1481 1.245 . S
C1480 O1492 1.232 . S
O1481 C1480 1.245 . S
O1482 Co1476 2.058 . S
O1482 C1508 1.269 . S
O1483 Co1475 2.074 . S
O1483 C1508 1.257 . S
H1484 C1509 0.930 . S
H1485 C1515 0.930 . S
O1486 Co1475 2.093 . S
O1486 C1478 1.224 . S
H1487 C1519 0.929 . S
H1488 C1521 0.930 . S
H1489 C1522 0.930 . S
H1490 C1520 0.929 . S
H1491 C1523 0.928 . S
O1492 Co1476 2.057 . S
O1492 C1480 1.232 . S
H1493 C1512 0.929 . S
H1494 C1513 0.929 . S
H1495 C1525 0.931 . S
H1496 C1517 0.929 . S
H1497 C1526 0.930 . S
H1498 C1518 0.931 . S
O1499 Co1475 2.097 . S
O1499 C1527 1.214 . S
H1500 C1528 0.929 . S
H1501 C1529 0.929 . S
H1502 C1530 0.930 . S
H1503 C1531 0.929 . S
H1504 C1533 0.930 . S
H1505 C1510 0.930 . S
H1506 C1514 0.930 . S
O1507 Co1476 2.037 . S
O1507 C1527 1.234 . S
C1508 O1482 1.269 . S
C1508 O1483 1.257 . S
C1509 H1484 0.930 . S
C1509 C1512 1.388 . S
C1509 C1514 1.418 . S
C1510 H1505 0.930 . S
C1510 C1513 1.404 . S
C1510 C1514 1.353 . S
N1511 Co1476 2.145 . S
N1511 C1512 1.397 . S
N1511 C1513 1.334 . S
C1512 H1493 0.929 . S
C1512 C1509 1.388 . S
C1512 N1511 1.397 . S
C1513 H1494 0.929 . S
C1513 C1510 1.404 . S
C1513 N1511 1.334 . S
C1514 H1506 0.930 . S
C1514 C1509 1.418 . S
C1514 C1510 1.353 . S
C1515 H1485 0.930 . S
C1515 N1516 1.330 . S
C1515 C1517 1.446 . S
N1516 Co1475 2.151 . S
N1516 C1515 1.330 . S
N1516 C1520 1.418 . S
C1517 H1496 0.929 . S
C1517 C1515 1.446 . S
C1517 C1518 1.332 . S
C1518 H1498 0.931 . S
C1518 C1517 1.332 . S
C1518 C1519 1.267 . S
C1519 H1487 0.929 . S
C1519 C1518 1.267 . S
C1519 C1520 1.251 . S
C1520 H1490 0.929 . S
C1520 N1516 1.418 . S
C1520 C1519 1.251 . S
C1521 H1488 0.930 . S
C1521 C1523 1.406 . S
C1521 C1526 1.261 . S
C1522 H1489 0.930 . S
C1522 N1524 1.325 . S
C1522 C1525 1.357 . S
C1523 H1491 0.928 . S
C1523 C1521 1.406 . S
C1523 N1524 1.261 . S
N1524 Co1475 2.214 . S
N1524 C1522 1.325 . S
N1524 C1523 1.261 . S
C1525 H1495 0.931 . S
C1525 C1522 1.357 . S
C1525 C1526 1.312 . S
C1526 H1497 0.930 . S
C1526 C1521 1.261 . S
C1526 C1525 1.312 . S
C1527 O1499 1.214 . S
C1527 O1507 1.234 . S
C1528 H1500 0.929 . S
C1528 C1531 1.391 . S
C1528 C1533 1.391 . S
C1529 H1501 0.929 . S
C1529 C1530 1.390 . S
C1529 N1532 1.391 . S
C1530 H1502 0.930 . S
C1530 C1529 1.390 . S
C1530 C1531 1.392 . S
C1531 H1503 0.929 . S
C1531 C1528 1.391 . S
C1531 C1530 1.392 . S
N1532 Co1476 2.257 . S
N1532 C1529 1.391 . S
N1532 C1533 1.388 . S
C1533 H1504 0.930 . S
C1533 C1528 1.391 . S
C1533 N1532 1.388 . S
Co1534 O1536 2.143 . S
Co1534 O1542 2.074 . S
Co1534 O1545 2.093 . S
Co1534 O1558 2.097 . S
Co1534 N1575 2.151 . S
Co1534 N1583 2.214 . S
Co1535 O1536 2.160 . S
Co1535 O1541 2.058 . S
Co1535 O1551 2.057 . S
Co1535 O1566 2.037 . S
Co1535 N1570 2.145 . S
Co1535 N1591 2.257 . S
O1536 Co1534 2.143 . S
O1536 Co1535 2.160 . S
C1537 O1538 1.278 . S
C1537 O1545 1.224 . S
O1538 C1537 1.278 . S
C1539 O1540 1.245 . S
C1539 O1551 1.232 . S
O1540 C1539 1.245 . S
O1541 Co1535 2.058 . S
O1541 C1567 1.269 . S
O1542 Co1534 2.074 . S
O1542 C1567 1.257 . S
H1543 C1568 0.930 . S
H1544 C1574 0.930 . S
O1545 Co1534 2.093 . S
O1545 C1537 1.224 . S
H1546 C1578 0.929 . S
H1547 C1580 0.930 . S
H1548 C1581 0.930 . S
H1549 C1579 0.929 . S
H1550 C1582 0.928 . S
O1551 Co1535 2.057 . S
O1551 C1539 1.232 . S
H1552 C1571 0.929 . S
H1553 C1572 0.929 . S
H1554 C1584 0.931 . S
H1555 C1576 0.929 . S
H1556 C1585 0.930 . S
H1557 C1577 0.931 . S
O1558 Co1534 2.097 . S
O1558 C1586 1.214 . S
H1559 C1587 0.929 . S
H1560 C1588 0.929 . S
H1561 C1589 0.930 . S
H1562 C1590 0.929 . S
H1563 C1592 0.930 . S
H1564 C1569 0.930 . S
H1565 C1573 0.930 . S
O1566 Co1535 2.037 . S
O1566 C1586 1.234 . S
C1567 O1541 1.269 . S
C1567 O1542 1.257 . S
C1568 H1543 0.930 . S
C1568 C1571 1.388 . S
C1568 C1573 1.418 . S
C1569 H1564 0.930 . S
C1569 C1572 1.404 . S
C1569 C1573 1.353 . S
N1570 Co1535 2.145 . S
N1570 C1571 1.397 . S
N1570 C1572 1.334 . S
C1571 H1552 0.929 . S
C1571 C1568 1.388 . S
C1571 N1570 1.397 . S
C1572 H1553 0.929 . S
C1572 C1569 1.404 . S
C1572 N1570 1.334 . S
C1573 H1565 0.930 . S
C1573 C1568 1.418 . S
C1573 C1569 1.353 . S
C1574 H1544 0.930 . S
C1574 N1575 1.330 . S
C1574 C1576 1.446 . S
N1575 Co1534 2.151 . S
N1575 C1574 1.330 . S
N1575 C1579 1.418 . S
C1576 H1555 0.929 . S
C1576 C1574 1.446 . S
C1576 C1577 1.332 . S
C1577 H1557 0.931 . S
C1577 C1576 1.332 . S
C1577 C1578 1.267 . S
C1578 H1546 0.929 . S
C1578 C1577 1.267 . S
C1578 C1579 1.251 . S
C1579 H1549 0.929 . S
C1579 N1575 1.418 . S
C1579 C1578 1.251 . S
C1580 H1547 0.930 . S
C1580 C1582 1.406 . S
C1580 C1585 1.261 . S
C1581 H1548 0.930 . S
C1581 N1583 1.325 . S
C1581 C1584 1.357 . S
C1582 H1550 0.928 . S
C1582 C1580 1.406 . S
C1582 N1583 1.261 . S
N1583 Co1534 2.214 . S
N1583 C1581 1.325 . S
N1583 C1582 1.261 . S
C1584 H1554 0.931 . S
C1584 C1581 1.357 . S
C1584 C1585 1.312 . S
C1585 H1556 0.930 . S
C1585 C1580 1.261 . S
C1585 C1584 1.312 . S
C1586 O1558 1.214 . S
C1586 O1566 1.234 . S
C1587 H1559 0.929 . S
C1587 C1590 1.391 . S
C1587 C1592 1.391 . S
C1588 H1560 0.929 . S
C1588 C1589 1.390 . S
C1588 N1591 1.391 . S
C1589 H1561 0.930 . S
C1589 C1588 1.390 . S
C1589 C1590 1.392 . S
C1590 H1562 0.929 . S
C1590 C1587 1.391 . S
C1590 C1589 1.392 . S
N1591 Co1535 2.257 . S
N1591 C1588 1.391 . S
N1591 C1592 1.388 . S
C1592 H1563 0.930 . S
C1592 C1587 1.391 . S
C1592 N1591 1.388 . S
Co1593 O1595 2.143 . S
Co1593 O1601 2.074 . S
Co1593 O1604 2.093 . S
Co1593 O1617 2.097 . S
Co1593 N1634 2.151 . S
Co1593 N1642 2.214 . S
Co1594 O1595 2.160 . S
Co1594 O1600 2.058 . S
Co1594 O1610 2.057 . S
Co1594 O1625 2.037 . S
Co1594 N1629 2.145 . S
Co1594 N1650 2.257 . S
O1595 Co1593 2.143 . S
O1595 Co1594 2.160 . S
C1596 O1597 1.278 . S
C1596 O1604 1.224 . S
O1597 C1596 1.278 . S
C1598 O1599 1.245 . S
C1598 O1610 1.232 . S
O1599 C1598 1.245 . S
O1600 Co1594 2.058 . S
O1600 C1626 1.269 . S
O1601 Co1593 2.074 . S
O1601 C1626 1.257 . S
H1602 C1627 0.930 . S
H1603 C1633 0.930 . S
O1604 Co1593 2.093 . S
O1604 C1596 1.224 . S
H1605 C1637 0.929 . S
H1606 C1639 0.930 . S
H1607 C1640 0.930 . S
H1608 C1638 0.929 . S
H1609 C1641 0.928 . S
O1610 Co1594 2.057 . S
O1610 C1598 1.232 . S
H1611 C1630 0.929 . S
H1612 C1631 0.929 . S
H1613 C1643 0.931 . S
H1614 C1635 0.929 . S
H1615 C1644 0.930 . S
H1616 C1636 0.931 . S
O1617 Co1593 2.097 . S
O1617 C1645 1.214 . S
H1618 C1646 0.929 . S
H1619 C1647 0.929 . S
H1620 C1648 0.930 . S
H1621 C1649 0.929 . S
H1622 C1651 0.930 . S
H1623 C1628 0.930 . S
H1624 C1632 0.930 . S
O1625 Co1594 2.037 . S
O1625 C1645 1.234 . S
C1626 O1600 1.269 . S
C1626 O1601 1.257 . S
C1627 H1602 0.930 . S
C1627 C1630 1.388 . S
C1627 C1632 1.418 . S
C1628 H1623 0.930 . S
C1628 C1631 1.404 . S
C1628 C1632 1.353 . S
N1629 Co1594 2.145 . S
N1629 C1630 1.397 . S
N1629 C1631 1.334 . S
C1630 H1611 0.929 . S
C1630 C1627 1.388 . S
C1630 N1629 1.397 . S
C1631 H1612 0.929 . S
C1631 C1628 1.404 . S
C1631 N1629 1.334 . S
C1632 H1624 0.930 . S
C1632 C1627 1.418 . S
C1632 C1628 1.353 . S
C1633 H1603 0.930 . S
C1633 N1634 1.330 . S
C1633 C1635 1.446 . S
N1634 Co1593 2.151 . S
N1634 C1633 1.330 . S
N1634 C1638 1.418 . S
C1635 H1614 0.929 . S
C1635 C1633 1.446 . S
C1635 C1636 1.332 . S
C1636 H1616 0.931 . S
C1636 C1635 1.332 . S
C1636 C1637 1.267 . S
C1637 H1605 0.929 . S
C1637 C1636 1.267 . S
C1637 C1638 1.251 . S
C1638 H1608 0.929 . S
C1638 N1634 1.418 . S
C1638 C1637 1.251 . S
C1639 H1606 0.930 . S
C1639 C1641 1.406 . S
C1639 C1644 1.261 . S
C1640 H1607 0.930 . S
C1640 N1642 1.325 . S
C1640 C1643 1.357 . S
C1641 H1609 0.928 . S
C1641 C1639 1.406 . S
C1641 N1642 1.261 . S
N1642 Co1593 2.214 . S
N1642 C1640 1.325 . S
N1642 C1641 1.261 . S
C1643 H1613 0.931 . S
C1643 C1640 1.357 . S
C1643 C1644 1.312 . S
C1644 H1615 0.930 . S
C1644 C1639 1.261 . S
C1644 C1643 1.312 . S
C1645 O1617 1.214 . S
C1645 O1625 1.234 . S
C1646 H1618 0.929 . S
C1646 C1649 1.391 . S
C1646 C1651 1.391 . S
C1647 H1619 0.929 . S
C1647 C1648 1.390 . S
C1647 N1650 1.391 . S
C1648 H1620 0.930 . S
C1648 C1647 1.390 . S
C1648 C1649 1.392 . S
C1649 H1621 0.929 . S
C1649 C1646 1.391 . S
C1649 C1648 1.392 . S
N1650 Co1594 2.257 . S
N1650 C1647 1.391 . S
N1650 C1651 1.388 . S
C1651 H1622 0.930 . S
C1651 C1646 1.391 . S
C1651 N1650 1.388 . S
Co1652 O1654 2.143 . S
Co1652 O1660 2.074 . S
Co1652 O1663 2.093 . S
Co1652 O1676 2.097 . S
Co1652 N1693 2.151 . S
Co1652 N1701 2.214 . S
Co1653 O1654 2.160 . S
Co1653 O1659 2.058 . S
Co1653 O1669 2.057 . S
Co1653 O1684 2.037 . S
Co1653 N1688 2.145 . S
Co1653 N1709 2.257 . S
O1654 Co1652 2.143 . S
O1654 Co1653 2.160 . S
C1655 O1656 1.278 . S
C1655 O1663 1.224 . S
O1656 C1655 1.278 . S
C1657 O1658 1.245 . S
C1657 O1669 1.232 . S
O1658 C1657 1.245 . S
O1659 Co1653 2.058 . S
O1659 C1685 1.270 1_455 S
O1660 Co1652 2.074 . S
O1660 C1685 1.258 1_455 S
H1661 C1686 0.930 . S
H1662 C1692 0.930 . S
O1663 Co1652 2.093 . S
O1663 C1655 1.224 . S
H1664 C1696 0.929 . S
H1665 C1698 0.930 . S
H1666 C1699 0.930 . S
H1667 C1697 0.929 . S
H1668 C1700 0.928 . S
O1669 Co1653 2.057 . S
O1669 C1657 1.232 . S
H1670 C1689 0.929 . S
H1671 C1690 0.929 . S
H1672 C1702 0.931 . S
H1673 C1694 0.929 . S
H1674 C1703 0.930 . S
H1675 C1695 0.931 . S
O1676 Co1652 2.097 . S
O1676 C1704 1.214 . S
H1677 C1705 0.929 . S
H1678 C1706 0.929 . S
H1679 C1707 0.930 . S
H1680 C1708 0.929 . S
H1681 C1710 0.930 . S
H1682 C1687 0.930 . S
H1683 C1691 0.930 . S
O1684 Co1653 2.037 . S
O1684 C1704 1.234 . S
C1685 O1659 1.270 1_655 S
C1685 O1660 1.258 1_655 S
C1686 H1661 0.930 . S
C1686 C1689 1.388 . S
C1686 C1691 1.418 . S
C1687 H1682 0.930 . S
C1687 C1690 1.404 . S
C1687 C1691 1.353 . S
N1688 Co1653 2.145 . S
N1688 C1689 1.397 . S
N1688 C1690 1.334 . S
C1689 H1670 0.929 . S
C1689 C1686 1.388 . S
C1689 N1688 1.397 . S
C1690 H1671 0.929 . S
C1690 C1687 1.404 . S
C1690 N1688 1.334 . S
C1691 H1683 0.930 . S
C1691 C1686 1.418 . S
C1691 C1687 1.353 . S
C1692 H1662 0.930 . S
C1692 N1693 1.330 . S
C1692 C1694 1.446 . S
N1693 Co1652 2.151 . S
N1693 C1692 1.330 . S
N1693 C1697 1.418 1_455 S
C1694 H1673 0.929 . S
C1694 C1692 1.446 . S
C1694 C1695 1.332 1_455 S
C1695 H1675 0.931 . S
C1695 C1694 1.332 1_655 S
C1695 C1696 1.267 . S
C1696 H1664 0.929 . S
C1696 C1695 1.267 . S
C1696 C1697 1.251 . S
C1697 H1667 0.929 . S
C1697 N1693 1.418 1_655 S
C1697 C1696 1.251 . S
C1698 H1665 0.930 . S
C1698 C1700 1.406 . S
C1698 C1703 1.261 . S
C1699 H1666 0.930 . S
C1699 N1701 1.325 . S
C1699 C1702 1.357 . S
C1700 H1668 0.928 . S
C1700 C1698 1.406 . S
C1700 N1701 1.261 . S
N1701 Co1652 2.214 . S
N1701 C1699 1.325 . S
N1701 C1700 1.261 . S
C1702 H1672 0.931 . S
C1702 C1699 1.357 . S
C1702 C1703 1.312 . S
C1703 H1674 0.930 . S
C1703 C1698 1.261 . S
C1703 C1702 1.312 . S
C1704 O1676 1.214 . S
C1704 O1684 1.234 . S
C1705 H1677 0.929 . S
C1705 C1708 1.391 . S
C1705 C1710 1.391 . S
C1706 H1678 0.929 . S
C1706 C1707 1.390 . S
C1706 N1709 1.391 . S
C1707 H1679 0.930 . S
C1707 C1706 1.390 . S
C1707 C1708 1.392 . S
C1708 H1680 0.929 . S
C1708 C1705 1.391 . S
C1708 C1707 1.392 . S
N1709 Co1653 2.257 . S
N1709 C1706 1.391 . S
N1709 C1710 1.388 . S
C1710 H1681 0.930 . S
C1710 C1705 1.391 . S
C1710 N1709 1.388 . S
Co1711 O1713 2.143 . S
Co1711 O1719 2.074 . S
Co1711 O1722 2.093 . S
Co1711 O1735 2.097 . S
Co1711 N1752 2.151 . S
Co1711 N1760 2.214 . S
Co1712 O1713 2.160 . S
Co1712 O1718 2.058 . S
Co1712 O1728 2.057 . S
Co1712 O1743 2.037 . S
Co1712 N1747 2.145 . S
Co1712 N1768 2.257 . S
O1713 Co1711 2.143 . S
O1713 Co1712 2.160 . S
C1714 O1715 1.278 . S
C1714 O1722 1.224 . S
O1715 C1714 1.278 . S
C1716 O1717 1.245 . S
C1716 O1728 1.232 . S
O1717 C1716 1.245 . S
O1718 Co1712 2.058 . S
O1718 C1744 1.269 . S
O1719 Co1711 2.074 . S
O1719 C1744 1.257 . S
H1720 C1745 0.930 . S
H1721 C1751 0.930 . S
O1722 Co1711 2.093 . S
O1722 C1714 1.224 . S
H1723 C1755 0.929 . S
H1724 C1757 0.930 . S
H1725 C1758 0.930 . S
H1726 C1756 0.929 . S
H1727 C1759 0.928 . S
O1728 Co1712 2.057 . S
O1728 C1716 1.232 . S
H1729 C1748 0.929 . S
H1730 C1749 0.929 . S
H1731 C1761 0.931 . S
H1732 C1753 0.929 . S
H1733 C1762 0.930 . S
H1734 C1754 0.931 . S
O1735 Co1711 2.097 . S
O1735 C1763 1.214 . S
H1736 C1764 0.929 . S
H1737 C1765 0.929 . S
H1738 C1766 0.930 . S
H1739 C1767 0.929 . S
H1740 C1769 0.930 . S
H1741 C1746 0.930 . S
H1742 C1750 0.930 . S
O1743 Co1712 2.037 . S
O1743 C1763 1.234 . S
C1744 O1718 1.269 . S
C1744 O1719 1.257 . S
C1745 H1720 0.930 . S
C1745 C1748 1.388 . S
C1745 C1750 1.418 . S
C1746 H1741 0.930 . S
C1746 C1749 1.404 . S
C1746 C1750 1.353 . S
N1747 Co1712 2.145 . S
N1747 C1748 1.397 . S
N1747 C1749 1.334 . S
C1748 H1729 0.929 . S
C1748 C1745 1.388 . S
C1748 N1747 1.397 . S
C1749 H1730 0.929 . S
C1749 C1746 1.404 . S
C1749 N1747 1.334 . S
C1750 H1742 0.930 . S
C1750 C1745 1.418 . S
C1750 C1746 1.353 . S
C1751 H1721 0.930 . S
C1751 N1752 1.330 . S
C1751 C1753 1.446 . S
N1752 Co1711 2.151 . S
N1752 C1751 1.330 . S
N1752 C1756 1.418 . S
C1753 H1732 0.929 . S
C1753 C1751 1.446 . S
C1753 C1754 1.332 . S
C1754 H1734 0.931 . S
C1754 C1753 1.332 . S
C1754 C1755 1.267 . S
C1755 H1723 0.929 . S
C1755 C1754 1.267 . S
C1755 C1756 1.251 . S
C1756 H1726 0.929 . S
C1756 N1752 1.418 . S
C1756 C1755 1.251 . S
C1757 H1724 0.930 . S
C1757 C1759 1.406 . S
C1757 C1762 1.261 . S
C1758 H1725 0.930 . S
C1758 N1760 1.325 . S
C1758 C1761 1.357 . S
C1759 H1727 0.928 . S
C1759 C1757 1.406 . S
C1759 N1760 1.261 . S
N1760 Co1711 2.214 . S
N1760 C1758 1.325 . S
N1760 C1759 1.261 . S
C1761 H1731 0.931 . S
C1761 C1758 1.357 . S
C1761 C1762 1.312 . S
C1762 H1733 0.930 . S
C1762 C1757 1.261 . S
C1762 C1761 1.312 . S
C1763 O1735 1.214 . S
C1763 O1743 1.234 . S
C1764 H1736 0.929 . S
C1764 C1767 1.391 . S
C1764 C1769 1.391 . S
C1765 H1737 0.929 . S
C1765 C1766 1.390 . S
C1765 N1768 1.391 . S
C1766 H1738 0.930 . S
C1766 C1765 1.390 . S
C1766 C1767 1.392 . S
C1767 H1739 0.929 . S
C1767 C1764 1.391 . S
C1767 C1766 1.392 . S
N1768 Co1712 2.257 . S
N1768 C1765 1.391 . S
N1768 C1769 1.388 . S
C1769 H1740 0.930 . S
C1769 C1764 1.391 . S
C1769 N1768 1.388 . S
Co1770 O1772 2.143 . S
Co1770 O1778 2.074 . S
Co1770 O1781 2.093 . S
Co1770 O1794 2.097 . S
Co1770 N1811 2.151 . S
Co1770 N1819 2.214 . S
Co1771 O1772 2.160 . S
Co1771 O1777 2.058 . S
Co1771 O1787 2.057 . S
Co1771 O1802 2.037 . S
Co1771 N1806 2.145 . S
Co1771 N1827 2.257 . S
O1772 Co1770 2.143 . S
O1772 Co1771 2.160 . S
C1773 O1774 1.278 . S
C1773 O1781 1.224 . S
O1774 C1773 1.278 . S
C1775 O1776 1.245 . S
C1775 O1787 1.232 . S
O1776 C1775 1.245 . S
O1777 Co1771 2.058 . S
O1777 C1803 1.269 . S
O1778 Co1770 2.074 . S
O1778 C1803 1.257 . S
H1779 C1804 0.930 . S
H1780 C1810 0.930 . S
O1781 Co1770 2.093 . S
O1781 C1773 1.224 . S
H1782 C1814 0.929 . S
H1783 C1816 0.930 . S
H1784 C1817 0.930 . S
H1785 C1815 0.929 . S
H1786 C1818 0.928 . S
O1787 Co1771 2.057 . S
O1787 C1775 1.232 . S
H1788 C1807 0.929 . S
H1789 C1808 0.929 . S
H1790 C1820 0.931 . S
H1791 C1812 0.929 . S
H1792 C1821 0.930 . S
H1793 C1813 0.931 . S
O1794 Co1770 2.097 . S
O1794 C1822 1.214 . S
H1795 C1823 0.929 . S
H1796 C1824 0.929 . S
H1797 C1825 0.930 . S
H1798 C1826 0.929 . S
H1799 C1828 0.930 . S
H1800 C1805 0.930 . S
H1801 C1809 0.930 . S
O1802 Co1771 2.037 . S
O1802 C1822 1.234 . S
C1803 O1777 1.269 . S
C1803 O1778 1.257 . S
C1804 H1779 0.930 . S
C1804 C1807 1.388 . S
C1804 C1809 1.418 . S
C1805 H1800 0.930 . S
C1805 C1808 1.404 . S
C1805 C1809 1.353 . S
N1806 Co1771 2.145 . S
N1806 C1807 1.397 . S
N1806 C1808 1.334 . S
C1807 H1788 0.929 . S
C1807 C1804 1.388 . S
C1807 N1806 1.397 . S
C1808 H1789 0.929 . S
C1808 C1805 1.404 . S
C1808 N1806 1.334 . S
C1809 H1801 0.930 . S
C1809 C1804 1.418 . S
C1809 C1805 1.353 . S
C1810 H1780 0.930 . S
C1810 N1811 1.330 . S
C1810 C1812 1.446 . S
N1811 Co1770 2.151 . S
N1811 C1810 1.330 . S
N1811 C1815 1.418 . S
C1812 H1791 0.929 . S
C1812 C1810 1.446 . S
C1812 C1813 1.332 . S
C1813 H1793 0.931 . S
C1813 C1812 1.332 . S
C1813 C1814 1.267 . S
C1814 H1782 0.929 . S
C1814 C1813 1.267 . S
C1814 C1815 1.251 . S
C1815 H1785 0.929 . S
C1815 N1811 1.418 . S
C1815 C1814 1.251 . S
C1816 H1783 0.930 . S
C1816 C1818 1.406 . S
C1816 C1821 1.261 . S
C1817 H1784 0.930 . S
C1817 N1819 1.325 . S
C1817 C1820 1.357 . S
C1818 H1786 0.928 . S
C1818 C1816 1.406 . S
C1818 N1819 1.261 . S
N1819 Co1770 2.214 . S
N1819 C1817 1.325 . S
N1819 C1818 1.261 . S
C1820 H1790 0.931 . S
C1820 C1817 1.357 . S
C1820 C1821 1.312 . S
C1821 H1792 0.930 . S
C1821 C1816 1.261 . S
C1821 C1820 1.312 . S
C1822 O1794 1.214 . S
C1822 O1802 1.234 . S
C1823 H1795 0.929 . S
C1823 C1826 1.391 . S
C1823 C1828 1.391 . S
C1824 H1796 0.929 . S
C1824 C1825 1.390 . S
C1824 N1827 1.391 . S
C1825 H1797 0.930 . S
C1825 C1824 1.390 . S
C1825 C1826 1.392 . S
C1826 H1798 0.929 . S
C1826 C1823 1.391 . S
C1826 C1825 1.392 . S
N1827 Co1771 2.257 . S
N1827 C1824 1.391 . S
N1827 C1828 1.388 . S
C1828 H1799 0.930 . S
C1828 C1823 1.391 . S
C1828 N1827 1.388 . S
Co1829 O1831 2.143 . S
Co1829 O1837 2.074 . S
Co1829 O1840 2.093 . S
Co1829 O1853 2.097 . S
Co1829 N1870 2.151 . S
Co1829 N1878 2.214 . S
Co1830 O1831 2.160 . S
Co1830 O1836 2.058 . S
Co1830 O1846 2.057 . S
Co1830 O1861 2.037 . S
Co1830 N1865 2.145 . S
Co1830 N1886 2.257 . S
O1831 Co1829 2.143 . S
O1831 Co1830 2.160 . S
C1832 O1833 1.278 . S
C1832 O1840 1.224 . S
O1833 C1832 1.278 . S
C1834 O1835 1.245 . S
C1834 O1846 1.232 . S
O1835 C1834 1.245 . S
O1836 Co1830 2.058 . S
O1836 C1862 1.269 . S
O1837 Co1829 2.074 . S
O1837 C1862 1.257 . S
H1838 C1863 0.930 . S
H1839 C1869 0.930 . S
O1840 Co1829 2.093 . S
O1840 C1832 1.224 . S
H1841 C1873 0.929 . S
H1842 C1875 0.930 . S
H1843 C1876 0.930 . S
H1844 C1874 0.929 . S
H1845 C1877 0.928 . S
O1846 Co1830 2.057 . S
O1846 C1834 1.232 . S
H1847 C1866 0.929 . S
H1848 C1867 0.929 . S
H1849 C1879 0.931 . S
H1850 C1871 0.929 . S
H1851 C1880 0.930 . S
H1852 C1872 0.931 . S
O1853 Co1829 2.097 . S
O1853 C1881 1.214 . S
H1854 C1882 0.929 . S
H1855 C1883 0.929 . S
H1856 C1884 0.930 . S
H1857 C1885 0.929 . S
H1858 C1887 0.930 . S
H1859 C1864 0.930 . S
H1860 C1868 0.930 . S
O1861 Co1830 2.037 . S
O1861 C1881 1.234 . S
C1862 O1836 1.269 . S
C1862 O1837 1.257 . S
C1863 H1838 0.930 . S
C1863 C1866 1.388 . S
C1863 C1868 1.418 . S
C1864 H1859 0.930 . S
C1864 C1867 1.404 . S
C1864 C1868 1.353 . S
N1865 Co1830 2.145 . S
N1865 C1866 1.397 . S
N1865 C1867 1.334 . S
C1866 H1847 0.929 . S
C1866 C1863 1.388 . S
C1866 N1865 1.397 . S
C1867 H1848 0.929 . S
C1867 C1864 1.404 . S
C1867 N1865 1.334 . S
C1868 H1860 0.930 . S
C1868 C1863 1.418 . S
C1868 C1864 1.353 . S
C1869 H1839 0.930 . S
C1869 N1870 1.330 . S
C1869 C1871 1.446 . S
N1870 Co1829 2.151 . S
N1870 C1869 1.330 . S
N1870 C1874 1.418 . S
C1871 H1850 0.929 . S
C1871 C1869 1.446 . S
C1871 C1872 1.332 . S
C1872 H1852 0.931 . S
C1872 C1871 1.332 . S
C1872 C1873 1.267 . S
C1873 H1841 0.929 . S
C1873 C1872 1.267 . S
C1873 C1874 1.251 . S
C1874 H1844 0.929 . S
C1874 N1870 1.418 . S
C1874 C1873 1.251 . S
C1875 H1842 0.930 . S
C1875 C1877 1.406 . S
C1875 C1880 1.261 . S
C1876 H1843 0.930 . S
C1876 N1878 1.325 . S
C1876 C1879 1.357 . S
C1877 H1845 0.928 . S
C1877 C1875 1.406 . S
C1877 N1878 1.261 . S
N1878 Co1829 2.214 . S
N1878 C1876 1.325 . S
N1878 C1877 1.261 . S
C1879 H1849 0.931 . S
C1879 C1876 1.357 . S
C1879 C1880 1.312 . S
C1880 H1851 0.930 . S
C1880 C1875 1.261 . S
C1880 C1879 1.312 . S
C1881 O1853 1.214 . S
C1881 O1861 1.234 . S
C1882 H1854 0.929 . S
C1882 C1885 1.391 . S
C1882 C1887 1.391 . S
C1883 H1855 0.929 . S
C1883 C1884 1.390 . S
C1883 N1886 1.391 . S
C1884 H1856 0.930 . S
C1884 C1883 1.390 . S
C1884 C1885 1.392 . S
C1885 H1857 0.929 . S
C1885 C1882 1.391 . S
C1885 C1884 1.392 . S
N1886 Co1830 2.257 . S
N1886 C1883 1.391 . S
N1886 C1887 1.388 . S
C1887 H1858 0.930 . S
C1887 C1882 1.391 . S
C1887 N1886 1.388 . S
C1888 C1889 1.387 . S
C1888 H1892 0.950 . S
C1888 C1897 1.390 1_565 S
C1889 C1888 1.387 . S
C1889 C1891 1.387 . S
H1890 C1897 0.950 . S
C1891 C1889 1.387 . S
C1891 C1893 1.390 1_565 S
C1891 H1895 0.950 . S
H1892 C1888 0.950 . S
C1893 C1891 1.390 1_545 S
C1893 C1894 1.387 . S
C1893 H1896 0.950 . S
C1894 C1893 1.387 . S
C1894 C1897 1.387 . S
H1895 C1891 0.950 . S
H1896 C1893 0.950 . S
C1897 C1888 1.390 1_545 S
C1897 H1890 0.950 . S
C1897 C1894 1.387 . S
C1898 C1899 1.387 . S
C1898 H1902 0.950 . S
C1898 C1907 1.390 . S
C1899 C1898 1.387 . S
C1899 C1901 1.387 . S
H1900 C1907 0.950 . S
C1901 C1899 1.387 . S
C1901 C1903 1.390 . S
C1901 H1905 0.950 . S
H1902 C1898 0.950 . S
C1903 C1901 1.390 . S
C1903 C1904 1.387 . S
C1903 H1906 0.950 . S
C1904 C1903 1.387 . S
C1904 C1907 1.387 . S
H1905 C1901 0.950 . S
H1906 C1903 0.950 . S
C1907 C1898 1.390 . S
C1907 H1900 0.950 . S
C1907 C1904 1.387 . S
C1908 C1909 1.387 . S
C1908 H1912 0.950 . S
C1908 C1917 1.390 1_545 S
C1909 C1908 1.387 . S
C1909 C1911 1.387 . S
H1910 C1917 0.950 . S
C1911 C1909 1.387 . S
C1911 C1913 1.390 1_545 S
C1911 H1915 0.950 1_455 S
H1912 C1908 0.950 . S
C1913 C1911 1.390 1_565 S
C1913 C1914 1.387 . S
C1913 H1916 0.950 1_455 S
C1914 C1913 1.387 . S
C1914 C1917 1.387 . S
H1915 C1911 0.950 1_655 S
H1916 C1913 0.950 1_655 S
C1917 C1908 1.390 1_565 S
C1917 H1910 0.950 . S
C1917 C1914 1.387 . S
C1918 C1919 1.387 . S
C1918 H1922 0.950 . S
C1918 C1927 1.390 1_556 S
C1919 C1918 1.387 . S
C1919 C1921 1.387 . S
H1920 C1927 0.950 . S
C1921 C1919 1.387 . S
C1921 C1923 1.390 1_556 S
C1921 H1925 0.950 . S
H1922 C1918 0.950 . S
C1923 C1921 1.390 1_554 S
C1923 C1924 1.387 . S
C1923 H1926 0.950 . S
C1924 C1923 1.387 . S
C1924 C1927 1.387 . S
H1925 C1921 0.950 . S
H1926 C1923 0.950 . S
C1927 C1918 1.390 1_554 S
C1927 H1920 0.950 . S
C1927 C1924 1.387 . S
C1928 C1929 1.387 . S
C1928 H1932 0.950 . S
C1928 C1937 1.390 1_565 S
C1929 C1928 1.387 . S
C1929 C1931 1.387 . S
H1930 C1937 0.950 . S
C1931 C1929 1.387 . S
C1931 C1933 1.390 1_565 S
C1931 H1935 0.950 . S
H1932 C1928 0.950 . S
C1933 C1931 1.390 1_545 S
C1933 C1934 1.387 . S
C1933 H1936 0.950 . S
C1934 C1933 1.387 . S
C1934 C1937 1.387 . S
H1935 C1931 0.950 . S
H1936 C1933 0.950 . S
C1937 C1928 1.390 1_545 S
C1937 H1930 0.950 . S
C1937 C1934 1.387 . S
C1938 C1939 1.387 . S
C1938 H1942 0.950 . S
C1938 C1947 1.390 . S
C1939 C1938 1.387 . S
C1939 C1941 1.387 . S
H1940 C1947 0.950 . S
C1941 C1939 1.387 . S
C1941 C1943 1.390 . S
C1941 H1945 0.950 . S
H1942 C1938 0.950 . S
C1943 C1941 1.390 . S
C1943 C1944 1.387 . S
C1943 H1946 0.950 . S
C1944 C1943 1.387 . S
C1944 C1947 1.387 . S
H1945 C1941 0.950 . S
H1946 C1943 0.950 . S
C1947 C1938 1.390 . S
C1947 H1940 0.950 . S
C1947 C1944 1.387 . S
C1948 C1949 1.387 . S
C1948 H1952 0.950 . S
C1948 C1957 1.390 1_545 S
C1949 C1948 1.387 . S
C1949 C1951 1.387 . S
H1950 C1957 0.950 . S
C1951 C1949 1.387 . S
C1951 C1953 1.390 1_545 S
C1951 H1955 0.950 1_655 S
H1952 C1948 0.950 . S
C1953 C1951 1.390 1_565 S
C1953 C1954 1.387 . S
C1953 H1956 0.950 1_655 S
C1954 C1953 1.387 . S
C1954 C1957 1.387 . S
H1955 C1951 0.950 1_455 S
H1956 C1953 0.950 1_455 S
C1957 C1948 1.390 1_565 S
C1957 H1950 0.950 . S
C1957 C1954 1.387 . S
C1958 C1959 1.387 . S
C1958 H1962 0.950 . S
C1958 C1967 1.390 1_556 S
C1959 C1958 1.387 . S
C1959 C1961 1.387 . S
H1960 C1967 0.950 . S
C1961 C1959 1.387 . S
C1961 C1963 1.390 1_556 S
C1961 H1965 0.950 . S
H1962 C1958 0.950 . S
C1963 C1961 1.390 1_554 S
C1963 C1964 1.387 . S
C1963 H1966 0.950 . S
C1964 C1963 1.387 . S
C1964 C1967 1.387 . S
H1965 C1961 0.950 . S
H1966 C1963 0.950 . S
C1967 C1958 1.390 1_554 S
C1967 H1960 0.950 . S
C1967 C1964 1.387 . S
C1968 C1969 1.387 . S
C1968 H1972 0.950 . S
C1968 C1977 1.390 . S
C1969 C1968 1.387 . S
C1969 C1971 1.387 . S
H1970 C1977 0.950 . S
C1971 C1969 1.387 . S
C1971 C1973 1.390 . S
C1971 H1975 0.950 1_655 S
H1972 C1968 0.950 . S
C1973 C1971 1.390 . S
C1973 C1974 1.387 . S
C1973 H1976 0.950 1_655 S
C1974 C1973 1.387 . S
C1974 C1977 1.387 . S
H1975 C1971 0.950 1_455 S
H1976 C1973 0.950 1_455 S
C1977 C1968 1.390 . S
C1977 H1970 0.950 . S
C1977 C1974 1.387 . S
C1978 C1979 1.387 . S
C1978 H1982 0.950 . S
C1978 C1987 1.390 1_554 S
C1979 C1978 1.387 . S
C1979 C1981 1.387 . S
H1980 C1987 0.950 . S
C1981 C1979 1.387 . S
C1981 C1983 1.390 1_554 S
C1981 H1985 0.950 . S
H1982 C1978 0.950 . S
C1983 C1981 1.390 1_556 S
C1983 C1984 1.387 . S
C1983 H1986 0.950 . S
C1984 C1983 1.387 . S
C1984 C1987 1.387 . S
H1985 C1981 0.950 . S
H1986 C1983 0.950 . S
C1987 C1978 1.390 1_556 S
C1987 H1980 0.950 . S
C1987 C1984 1.387 . S
C1988 C1989 1.387 . S
C1988 H1992 0.950 . S
C1988 C1997 1.390 . S
C1989 C1988 1.387 . S
C1989 C1991 1.387 . S
H1990 C1997 0.950 . S
C1991 C1989 1.387 . S
C1991 C1993 1.390 . S
C1991 H1995 0.950 . S
H1992 C1988 0.950 . S
C1993 C1991 1.390 . S
C1993 C1994 1.387 . S
C1993 H1996 0.950 . S
C1994 C1993 1.387 . S
C1994 C1997 1.387 . S
H1995 C1991 0.950 . S
H1996 C1993 0.950 . S
C1997 C1988 1.390 . S
C1997 H1990 0.950 . S
C1997 C1994 1.387 . S
C1998 C1999 1.387 . S
C1998 H2002 0.950 . S
C1998 C2007 1.390 . S
C1999 C1998 1.387 . S
C1999 C2001 1.387 . S
H2000 C2007 0.950 . S
C2001 C1999 1.387 . S
C2001 C2003 1.390 . S
C2001 H2005 0.950 . S
H2002 C1998 0.950 . S
C2003 C2001 1.390 . S
C2003 C2004 1.387 . S
C2003 H2006 0.950 . S
C2004 C2003 1.387 . S
C2004 C2007 1.387 . S
H2005 C2001 0.950 . S
H2006 C2003 0.950 . S
C2007 C1998 1.390 . S
C2007 H2000 0.950 . S
C2007 C2004 1.387 . S
C2008 C2009 1.387 . S
C2008 H2012 0.950 1_455 S
C2008 C2017 1.390 . S
C2009 C2008 1.387 . S
C2009 C2011 1.387 . S
H2010 C2017 0.950 1_655 S
C2011 C2009 1.387 . S
C2011 C2013 1.390 . S
C2011 H2015 0.950 . S
H2012 C2008 0.950 1_655 S
C2013 C2011 1.390 . S
C2013 C2014 1.387 . S
C2013 H2016 0.950 . S
C2014 C2013 1.387 . S
C2014 C2017 1.387 . S
H2015 C2011 0.950 . S
H2016 C2013 0.950 . S
C2017 C2008 1.390 . S
C2017 H2010 0.950 1_455 S
C2017 C2014 1.387 . S
C2018 C2019 1.387 . S
C2018 H2022 0.950 . S
C2018 C2027 1.390 1_554 S
C2019 C2018 1.387 . S
C2019 C2021 1.387 . S
H2020 C2027 0.950 . S
C2021 C2019 1.387 . S
C2021 C2023 1.390 1_554 S
C2021 H2025 0.950 . S
H2022 C2018 0.950 . S
C2023 C2021 1.390 1_556 S
C2023 C2024 1.387 . S
C2023 H2026 0.950 . S
C2024 C2023 1.387 . S
C2024 C2027 1.387 . S
H2025 C2021 0.950 . S
H2026 C2023 0.950 . S
C2027 C2018 1.390 1_556 S
C2027 H2020 0.950 . S
C2027 C2024 1.387 . S
C2028 C2029 1.387 . S
C2028 H2032 0.950 . S
C2028 C2037 1.390 . S
C2029 C2028 1.387 . S
C2029 C2031 1.387 . S
H2030 C2037 0.950 . S
C2031 C2029 1.387 . S
C2031 C2033 1.390 . S
C2031 H2035 0.950 . S
H2032 C2028 0.950 . S
C2033 C2031 1.390 . S
C2033 C2034 1.387 . S
C2033 H2036 0.950 . S
C2034 C2033 1.387 . S
C2034 C2037 1.387 . S
H2035 C2031 0.950 . S
H2036 C2033 0.950 . S
C2037 C2028 1.390 . S
C2037 H2030 0.950 . S
C2037 C2034 1.387 . S
C2038 C2039 1.387 . S
C2038 H2042 0.950 . S
C2038 C2047 1.390 . S
C2039 C2038 1.387 . S
C2039 C2041 1.387 . S
H2040 C2047 0.950 . S
C2041 C2039 1.387 . S
C2041 C2043 1.390 . S
C2041 H2045 0.950 . S
H2042 C2038 0.950 . S
C2043 C2041 1.390 . S
C2043 C2044 1.387 . S
C2043 H2046 0.950 . S
C2044 C2043 1.387 . S
C2044 C2047 1.387 . S
H2045 C2041 0.950 . S
H2046 C2043 0.950 . S
C2047 C2038 1.390 . S
C2047 H2040 0.950 . S
C2047 C2044 1.387 . S
C2048 C2049 1.387 . S
C2048 H2052 0.950 . S
C2048 C2057 1.390 . S
C2049 C2048 1.387 . S
C2049 C2051 1.387 . S
H2050 C2057 0.950 . S
C2051 C2049 1.387 . S
C2051 C2053 1.390 . S
C2051 H2055 0.950 . S
H2052 C2048 0.950 . S
C2053 C2051 1.390 . S
C2053 C2054 1.387 . S
C2053 H2056 0.950 . S
C2054 C2053 1.387 . S
C2054 C2057 1.387 . S
H2055 C2051 0.950 . S
H2056 C2053 0.950 . S
C2057 C2048 1.390 . S
C2057 H2050 0.950 . S
C2057 C2054 1.387 . S
C2058 C2059 1.387 . S
C2058 H2062 0.950 . S
C2058 C2067 1.390 . S
C2059 C2058 1.387 . S
C2059 C2061 1.387 . S
H2060 C2067 0.950 . S
C2061 C2059 1.387 . S
C2061 C2063 1.390 . S
C2061 H2065 0.950 . S
H2062 C2058 0.950 . S
C2063 C2061 1.390 . S
C2063 C2064 1.387 . S
C2063 H2066 0.950 . S
C2064 C2063 1.387 . S
C2064 C2067 1.387 . S
H2065 C2061 0.950 . S
H2066 C2063 0.950 . S
C2067 C2058 1.390 . S
C2067 H2060 0.950 . S
C2067 C2064 1.387 . S
C2068 C2069 1.387 . S
C2068 H2072 0.950 . S
C2068 C2077 1.390 . S
C2069 C2068 1.387 . S
C2069 C2071 1.387 . S
H2070 C2077 0.950 . S
C2071 C2069 1.387 . S
C2071 C2073 1.390 . S
C2071 H2075 0.950 . S
H2072 C2068 0.950 . S
C2073 C2071 1.390 . S
C2073 C2074 1.387 . S
C2073 H2076 0.950 . S
C2074 C2073 1.387 . S
C2074 C2077 1.387 . S
H2075 C2071 0.950 . S
H2076 C2073 0.950 . S
C2077 C2068 1.390 . S
C2077 H2070 0.950 . S
C2077 C2074 1.387 . S
C2078 C2079 1.387 . S
C2078 H2082 0.950 . S
C2078 C2087 1.390 . S
C2079 C2078 1.387 . S
C2079 C2081 1.387 . S
H2080 C2087 0.950 . S
C2081 C2079 1.387 . S
C2081 C2083 1.390 . S
C2081 H2085 0.950 . S
H2082 C2078 0.950 . S
C2083 C2081 1.390 . S
C2083 C2084 1.387 . S
C2083 H2086 0.950 . S
C2084 C2083 1.387 . S
C2084 C2087 1.387 . S
H2085 C2081 0.950 . S
H2086 C2083 0.950 . S
C2087 C2078 1.390 . S
C2087 H2080 0.950 . S
C2087 C2084 1.387 . S
C2088 C2089 1.387 . S
C2088 H2092 0.950 . S
C2088 C2097 1.390 . S
C2089 C2088 1.387 . S
C2089 C2091 1.387 . S
H2090 C2097 0.950 . S
C2091 C2089 1.387 . S
C2091 C2093 1.390 . S
C2091 H2095 0.950 . S
H2092 C2088 0.950 . S
C2093 C2091 1.390 . S
C2093 C2094 1.387 . S
C2093 H2096 0.950 . S
C2094 C2093 1.387 . S
C2094 C2097 1.387 . S
H2095 C2091 0.950 . S
H2096 C2093 0.950 . S
C2097 C2088 1.390 . S
C2097 H2090 0.950 . S
C2097 C2094 1.387 . S
C2098 C2099 1.387 . S
C2098 H2102 0.950 . S
C2098 C2107 1.390 . S
C2099 C2098 1.387 . S
C2099 C2101 1.387 . S
H2100 C2107 0.950 . S
C2101 C2099 1.387 . S
C2101 C2103 1.390 . S
C2101 H2105 0.950 . S
H2102 C2098 0.950 . S
C2103 C2101 1.390 . S
C2103 C2104 1.387 . S
C2103 H2106 0.950 . S
C2104 C2103 1.387 . S
C2104 C2107 1.387 . S
H2105 C2101 0.950 . S
H2106 C2103 0.950 . S
C2107 C2098 1.390 . S
C2107 H2100 0.950 . S
C2107 C2104 1.387 . S
C2108 C2109 1.387 . S
C2108 H2112 0.950 . S
C2108 C2117 1.390 . S
C2109 C2108 1.387 . S
C2109 C2111 1.387 . S
H2110 C2117 0.950 . S
C2111 C2109 1.387 . S
C2111 C2113 1.390 . S
C2111 H2115 0.950 . S
H2112 C2108 0.950 . S
C2113 C2111 1.390 . S
C2113 C2114 1.387 . S
C2113 H2116 0.950 . S
C2114 C2113 1.387 . S
C2114 C2117 1.387 . S
H2115 C2111 0.950 . S
H2116 C2113 0.950 . S
C2117 C2108 1.390 . S
C2117 H2110 0.950 . S
C2117 C2114 1.387 . S
C2118 C2119 1.387 . S
C2118 H2122 0.950 . S
C2118 C2127 1.390 . S
C2119 C2118 1.387 . S
C2119 C2121 1.387 . S
H2120 C2127 0.950 . S
C2121 C2119 1.387 . S
C2121 C2123 1.390 . S
C2121 H2125 0.950 . S
H2122 C2118 0.950 . S
C2123 C2121 1.390 . S
C2123 C2124 1.387 . S
C2123 H2126 0.950 . S
C2124 C2123 1.387 . S
C2124 C2127 1.387 . S
H2125 C2121 0.950 . S
H2126 C2123 0.950 . S
C2127 C2118 1.390 . S
C2127 H2120 0.950 . S
C2127 C2124 1.387 . S
C2128 C2129 1.387 . S
C2128 H2132 0.950 . S
C2128 C2137 1.390 . S
C2129 C2128 1.387 . S
C2129 C2131 1.387 . S
H2130 C2137 0.950 . S
C2131 C2129 1.387 . S
C2131 C2133 1.390 . S
C2131 H2135 0.950 . S
H2132 C2128 0.950 . S
C2133 C2131 1.390 . S
C2133 C2134 1.387 . S
C2133 H2136 0.950 . S
C2134 C2133 1.387 . S
C2134 C2137 1.387 . S
H2135 C2131 0.950 . S
H2136 C2133 0.950 . S
C2137 C2128 1.390 . S
C2137 H2130 0.950 . S
C2137 C2134 1.387 . S
C2138 C2139 1.387 . S
C2138 H2142 0.950 . S
C2138 C2147 1.390 . S
C2139 C2138 1.387 . S
C2139 C2141 1.387 . S
H2140 C2147 0.950 . S
C2141 C2139 1.387 . S
C2141 C2143 1.390 . S
C2141 H2145 0.950 . S
H2142 C2138 0.950 . S
C2143 C2141 1.390 . S
C2143 C2144 1.387 . S
C2143 H2146 0.950 . S
C2144 C2143 1.387 . S
C2144 C2147 1.387 . S
H2145 C2141 0.950 . S
H2146 C2143 0.950 . S
C2147 C2138 1.390 . S
C2147 H2140 0.950 . S
C2147 C2144 1.387 . S
C2148 C2149 1.387 . S
C2148 H2152 0.950 . S
C2148 C2157 1.390 . S
C2149 C2148 1.387 . S
C2149 C2151 1.387 . S
H2150 C2157 0.950 . S
C2151 C2149 1.387 . S
C2151 C2153 1.390 . S
C2151 H2155 0.950 . S
H2152 C2148 0.950 . S
C2153 C2151 1.390 . S
C2153 C2154 1.387 . S
C2153 H2156 0.950 . S
C2154 C2153 1.387 . S
C2154 C2157 1.387 . S
H2155 C2151 0.950 . S
H2156 C2153 0.950 . S
C2157 C2148 1.390 . S
C2157 H2150 0.950 . S
C2157 C2154 1.387 . S
C2158 C2159 1.387 . S
C2158 H2162 0.950 . S
C2158 C2167 1.390 . S
C2159 C2158 1.387 . S
C2159 C2161 1.387 . S
H2160 C2167 0.950 . S
C2161 C2159 1.387 . S
C2161 C2163 1.390 . S
C2161 H2165 0.950 . S
H2162 C2158 0.950 . S
C2163 C2161 1.390 . S
C2163 C2164 1.387 . S
C2163 H2166 0.950 . S
C2164 C2163 1.387 . S
C2164 C2167 1.387 . S
H2165 C2161 0.950 . S
H2166 C2163 0.950 . S
C2167 C2158 1.390 . S
C2167 H2160 0.950 . S
C2167 C2164 1.387 . S
C2168 C2169 1.387 . S
C2168 H2172 0.950 . S
C2168 C2177 1.390 . S
C2169 C2168 1.387 . S
C2169 C2171 1.387 . S
H2170 C2177 0.950 . S
C2171 C2169 1.387 . S
C2171 C2173 1.390 . S
C2171 H2175 0.950 . S
H2172 C2168 0.950 . S
C2173 C2171 1.390 . S
C2173 C2174 1.387 . S
C2173 H2176 0.950 . S
C2174 C2173 1.387 . S
C2174 C2177 1.387 . S
H2175 C2171 0.950 . S
H2176 C2173 0.950 . S
C2177 C2168 1.390 . S
C2177 H2170 0.950 . S
C2177 C2174 1.387 . S
C2178 C2179 1.387 . S
C2178 H2182 0.950 . S
C2178 C2187 1.390 . S
C2179 C2178 1.387 . S
C2179 C2181 1.387 . S
H2180 C2187 0.950 . S
C2181 C2179 1.387 . S
C2181 C2183 1.390 . S
C2181 H2185 0.950 . S
H2182 C2178 0.950 . S
C2183 C2181 1.390 . S
C2183 C2184 1.387 . S
C2183 H2186 0.950 . S
C2184 C2183 1.387 . S
C2184 C2187 1.387 . S
H2185 C2181 0.950 . S
H2186 C2183 0.950 . S
C2187 C2178 1.390 . S
C2187 H2180 0.950 . S
C2187 C2184 1.387 . S
C2188 C2189 1.387 . S
C2188 H2192 0.950 . S
C2188 C2197 1.390 . S
C2189 C2188 1.387 . S
C2189 C2191 1.387 . S
H2190 C2197 0.950 . S
C2191 C2189 1.387 . S
C2191 C2193 1.390 . S
C2191 H2195 0.950 . S
H2192 C2188 0.950 . S
C2193 C2191 1.390 . S
C2193 C2194 1.387 . S
C2193 H2196 0.950 . S
C2194 C2193 1.387 . S
C2194 C2197 1.387 . S
H2195 C2191 0.950 . S
H2196 C2193 0.950 . S
C2197 C2188 1.390 . S
C2197 H2190 0.950 . S
C2197 C2194 1.387 . S
C2198 C2199 1.387 . S
C2198 H2202 0.950 . S
C2198 C2207 1.390 . S
C2199 C2198 1.387 . S
C2199 C2201 1.387 . S
H2200 C2207 0.950 . S
C2201 C2199 1.387 . S
C2201 C2203 1.390 . S
C2201 H2205 0.950 . S
H2202 C2198 0.950 . S
C2203 C2201 1.390 . S
C2203 C2204 1.387 . S
C2203 H2206 0.950 . S
C2204 C2203 1.387 . S
C2204 C2207 1.387 . S
H2205 C2201 0.950 . S
H2206 C2203 0.950 . S
C2207 C2198 1.390 . S
C2207 H2200 0.950 . S
C2207 C2204 1.387 . S
C2208 C2209 1.387 . S
C2208 H2212 0.950 . S
C2208 C2217 1.390 . S
C2209 C2208 1.387 . S
C2209 C2211 1.387 . S
H2210 C2217 0.950 . S
C2211 C2209 1.387 . S
C2211 C2213 1.390 . S
C2211 H2215 0.950 . S
H2212 C2208 0.950 . S
C2213 C2211 1.390 . S
C2213 C2214 1.387 . S
C2213 H2216 0.950 . S
C2214 C2213 1.387 . S
C2214 C2217 1.387 . S
H2215 C2211 0.950 . S
H2216 C2213 0.950 . S
C2217 C2208 1.390 . S
C2217 H2210 0.950 . S
C2217 C2214 1.387 . S
C2218 C2219 1.387 . S
C2218 H2222 0.950 . S
C2218 C2227 1.390 . S
C2219 C2218 1.387 . S
C2219 C2221 1.387 . S
H2220 C2227 0.950 . S
C2221 C2219 1.387 . S
C2221 C2223 1.390 . S
C2221 H2225 0.950 . S
H2222 C2218 0.950 . S
C2223 C2221 1.390 . S
C2223 C2224 1.387 . S
C2223 H2226 0.950 . S
C2224 C2223 1.387 . S
C2224 C2227 1.387 . S
H2225 C2221 0.950 . S
H2226 C2223 0.950 . S
C2227 C2218 1.390 . S
C2227 H2220 0.950 . S
C2227 C2224 1.387 . S
C2228 C2229 1.387 . S
C2228 H2232 0.950 . S
C2228 C2237 1.390 . S
C2229 C2228 1.387 . S
C2229 C2231 1.387 . S
H2230 C2237 0.950 . S
C2231 C2229 1.387 . S
C2231 C2233 1.390 . S
C2231 H2235 0.950 . S
H2232 C2228 0.950 . S
C2233 C2231 1.390 . S
C2233 C2234 1.387 . S
C2233 H2236 0.950 . S
C2234 C2233 1.387 . S
C2234 C2237 1.387 . S
H2235 C2231 0.950 . S
H2236 C2233 0.950 . S
C2237 C2228 1.390 . S
C2237 H2230 0.950 . S
C2237 C2234 1.387 . S
C2238 C2239 1.387 . S
C2238 H2242 0.950 . S
C2238 C2247 1.390 . S
C2239 C2238 1.387 . S
C2239 C2241 1.387 . S
H2240 C2247 0.950 . S
C2241 C2239 1.387 . S
C2241 C2243 1.390 . S
C2241 H2245 0.950 . S
H2242 C2238 0.950 . S
C2243 C2241 1.390 . S
C2243 C2244 1.387 . S
C2243 H2246 0.950 . S
C2244 C2243 1.387 . S
C2244 C2247 1.387 . S
H2245 C2241 0.950 . S
H2246 C2243 0.950 . S
C2247 C2238 1.390 . S
C2247 H2240 0.950 . S
C2247 C2244 1.387 . S
C2248 C2249 1.387 . S
C2248 H2252 0.950 . S
C2248 C2257 1.390 . S
C2249 C2248 1.387 . S
C2249 C2251 1.387 . S
H2250 C2257 0.950 . S
C2251 C2249 1.387 . S
C2251 C2253 1.390 . S
C2251 H2255 0.950 . S
H2252 C2248 0.950 . S
C2253 C2251 1.390 . S
C2253 C2254 1.387 . S
C2253 H2256 0.950 . S
C2254 C2253 1.387 . S
C2254 C2257 1.387 . S
H2255 C2251 0.950 . S
H2256 C2253 0.950 . S
C2257 C2248 1.390 . S
C2257 H2250 0.950 . S
C2257 C2254 1.387 . S
C2258 C2259 1.387 . S
C2258 H2262 0.950 . S
C2258 C2267 1.390 . S
C2259 C2258 1.387 . S
C2259 C2261 1.387 . S
H2260 C2267 0.950 . S
C2261 C2259 1.387 . S
C2261 C2263 1.390 . S
C2261 H2265 0.950 . S
H2262 C2258 0.950 . S
C2263 C2261 1.390 . S
C2263 C2264 1.387 . S
C2263 H2266 0.950 . S
C2264 C2263 1.387 . S
C2264 C2267 1.387 . S
H2265 C2261 0.950 . S
H2266 C2263 0.950 . S
C2267 C2258 1.390 . S
C2267 H2260 0.950 . S
C2267 C2264 1.387 . S
C2268 C2269 1.387 . S
C2268 H2272 0.950 . S
C2268 C2277 1.390 . S
C2269 C2268 1.387 . S
C2269 C2271 1.387 . S
H2270 C2277 0.950 . S
C2271 C2269 1.387 . S
C2271 C2273 1.390 . S
C2271 H2275 0.950 . S
H2272 C2268 0.950 . S
C2273 C2271 1.390 . S
C2273 C2274 1.387 . S
C2273 H2276 0.950 . S
C2274 C2273 1.387 . S
C2274 C2277 1.387 . S
H2275 C2271 0.950 . S
H2276 C2273 0.950 . S
C2277 C2268 1.390 . S
C2277 H2270 0.950 . S
C2277 C2274 1.387 . S
C2278 C2279 1.387 . S
C2278 H2282 0.950 . S
C2278 C2287 1.390 . S
C2279 C2278 1.387 . S
C2279 C2281 1.387 . S
H2280 C2287 0.950 . S
C2281 C2279 1.387 . S
C2281 C2283 1.390 . S
C2281 H2285 0.950 . S
H2282 C2278 0.950 . S
C2283 C2281 1.390 . S
C2283 C2284 1.387 . S
C2283 H2286 0.950 . S
C2284 C2283 1.387 . S
C2284 C2287 1.387 . S
H2285 C2281 0.950 . S
H2286 C2283 0.950 . S
C2287 C2278 1.390 . S
C2287 H2280 0.950 . S
C2287 C2284 1.387 . S
C2288 C2289 1.387 . S
C2288 H2292 0.950 . S
C2288 C2297 1.390 . S
C2289 C2288 1.387 . S
C2289 C2291 1.387 . S
H2290 C2297 0.950 . S
C2291 C2289 1.387 . S
C2291 C2293 1.390 . S
C2291 H2295 0.950 . S
H2292 C2288 0.950 . S
C2293 C2291 1.390 . S
C2293 C2294 1.387 . S
C2293 H2296 0.950 . S
C2294 C2293 1.387 . S
C2294 C2297 1.387 . S
H2295 C2291 0.950 . S
H2296 C2293 0.950 . S
C2297 C2288 1.390 . S
C2297 H2290 0.950 . S
C2297 C2294 1.387 . S
C2298 C2299 1.387 . S
C2298 H2302 0.950 . S
C2298 C2307 1.390 . S
C2299 C2298 1.387 . S
C2299 C2301 1.387 . S
H2300 C2307 0.950 . S
C2301 C2299 1.387 . S
C2301 C2303 1.390 . S
C2301 H2305 0.950 . S
H2302 C2298 0.950 . S
C2303 C2301 1.390 . S
C2303 C2304 1.387 . S
C2303 H2306 0.950 . S
C2304 C2303 1.387 . S
C2304 C2307 1.387 . S
H2305 C2301 0.950 . S
H2306 C2303 0.950 . S
C2307 C2298 1.390 . S
C2307 H2300 0.950 . S
C2307 C2304 1.387 . S
C2308 C2309 1.387 . S
C2308 H2312 0.950 . S
C2308 C2317 1.390 . S
C2309 C2308 1.387 . S
C2309 C2311 1.387 . S
H2310 C2317 0.950 . S
C2311 C2309 1.387 . S
C2311 C2313 1.390 . S
C2311 H2315 0.950 . S
H2312 C2308 0.950 . S
C2313 C2311 1.390 . S
C2313 C2314 1.387 . S
C2313 H2316 0.950 . S
C2314 C2313 1.387 . S
C2314 C2317 1.387 . S
H2315 C2311 0.950 . S
H2316 C2313 0.950 . S
C2317 C2308 1.390 . S
C2317 H2310 0.950 . S
C2317 C2314 1.387 . S
C2318 C2319 1.387 . S
C2318 H2322 0.950 . S
C2318 C2327 1.390 . S
C2319 C2318 1.387 . S
C2319 C2321 1.387 . S
H2320 C2327 0.950 . S
C2321 C2319 1.387 . S
C2321 C2323 1.390 . S
C2321 H2325 0.950 . S
H2322 C2318 0.950 . S
C2323 C2321 1.390 . S
C2323 C2324 1.387 . S
C2323 H2326 0.950 . S
C2324 C2323 1.387 . S
C2324 C2327 1.387 . S
H2325 C2321 0.950 . S
H2326 C2323 0.950 . S
C2327 C2318 1.390 . S
C2327 H2320 0.950 . S
C2327 C2324 1.387 . S
C2328 C2329 1.387 . S
C2328 H2332 0.950 . S
C2328 C2337 1.390 . S
C2329 C2328 1.387 . S
C2329 C2331 1.387 . S
H2330 C2337 0.950 . S
C2331 C2329 1.387 . S
C2331 C2333 1.390 . S
C2331 H2335 0.950 . S
H2332 C2328 0.950 . S
C2333 C2331 1.390 . S
C2333 C2334 1.387 . S
C2333 H2336 0.950 . S
C2334 C2333 1.387 . S
C2334 C2337 1.387 . S
H2335 C2331 0.950 . S
H2336 C2333 0.950 . S
C2337 C2328 1.390 . S
C2337 H2330 0.950 . S
C2337 C2334 1.387 . S
C2338 C2339 1.387 . S
C2338 H2342 0.950 . S
C2338 C2347 1.390 . S
C2339 C2338 1.387 . S
C2339 C2341 1.387 . S
H2340 C2347 0.950 . S
C2341 C2339 1.387 . S
C2341 C2343 1.390 . S
C2341 H2345 0.950 . S
H2342 C2338 0.950 . S
C2343 C2341 1.390 . S
C2343 C2344 1.387 . S
C2343 H2346 0.950 . S
C2344 C2343 1.387 . S
C2344 C2347 1.387 . S
H2345 C2341 0.950 . S
H2346 C2343 0.950 . S
C2347 C2338 1.390 . S
C2347 H2340 0.950 . S
C2347 C2344 1.387 . S
C2348 C2349 1.387 . S
C2348 H2352 0.950 . S
C2348 C2357 1.390 . S
C2349 C2348 1.387 . S
C2349 C2351 1.387 . S
H2350 C2357 0.950 . S
C2351 C2349 1.387 . S
C2351 C2353 1.390 . S
C2351 H2355 0.950 . S
H2352 C2348 0.950 . S
C2353 C2351 1.390 . S
C2353 C2354 1.387 . S
C2353 H2356 0.950 . S
C2354 C2353 1.387 . S
C2354 C2357 1.387 . S
H2355 C2351 0.950 . S
H2356 C2353 0.950 . S
C2357 C2348 1.390 . S
C2357 H2350 0.950 . S
C2357 C2354 1.387 . S
C2358 C2359 1.387 . S
C2358 H2362 0.950 . S
C2358 C2367 1.390 . S
C2359 C2358 1.387 . S
C2359 C2361 1.387 . S
H2360 C2367 0.950 . S
C2361 C2359 1.387 . S
C2361 C2363 1.390 . S
C2361 H2365 0.950 . S
H2362 C2358 0.950 . S
C2363 C2361 1.390 . S
C2363 C2364 1.387 . S
C2363 H2366 0.950 . S
C2364 C2363 1.387 . S
C2364 C2367 1.387 . S
H2365 C2361 0.950 . S
H2366 C2363 0.950 . S
C2367 C2358 1.390 . S
C2367 H2360 0.950 . S
C2367 C2364 1.387 . S
C2368 C2369 1.387 . S
C2368 H2372 0.950 . S
C2368 C2377 1.390 . S
C2369 C2368 1.387 . S
C2369 C2371 1.387 . S
H2370 C2377 0.950 . S
C2371 C2369 1.387 . S
C2371 C2373 1.390 . S
C2371 H2375 0.950 . S
H2372 C2368 0.950 . S
C2373 C2371 1.390 . S
C2373 C2374 1.387 . S
C2373 H2376 0.950 . S
C2374 C2373 1.387 . S
C2374 C2377 1.387 . S
H2375 C2371 0.950 . S
H2376 C2373 0.950 . S
C2377 C2368 1.390 . S
C2377 H2370 0.950 . S
C2377 C2374 1.387 . S
C2378 C2379 1.387 . S
C2378 H2382 0.950 . S
C2378 C2387 1.390 . S
C2379 C2378 1.387 . S
C2379 C2381 1.387 . S
H2380 C2387 0.950 . S
C2381 C2379 1.387 . S
C2381 C2383 1.390 . S
C2381 H2385 0.950 . S
H2382 C2378 0.950 . S
C2383 C2381 1.390 . S
C2383 C2384 1.387 . S
C2383 H2386 0.950 . S
C2384 C2383 1.387 . S
C2384 C2387 1.387 . S
H2385 C2381 0.950 . S
H2386 C2383 0.950 . S
C2387 C2378 1.390 . S
C2387 H2380 0.950 . S
C2387 C2384 1.387 . S
C2388 C2389 1.387 . S
C2388 H2392 0.950 . S
C2388 C2397 1.390 . S
C2389 C2388 1.387 . S
C2389 C2391 1.387 . S
H2390 C2397 0.950 . S
C2391 C2389 1.387 . S
C2391 C2393 1.390 . S
C2391 H2395 0.950 . S
H2392 C2388 0.950 . S
C2393 C2391 1.390 . S
C2393 C2394 1.387 . S
C2393 H2396 0.950 . S
C2394 C2393 1.387 . S
C2394 C2397 1.387 . S
H2395 C2391 0.950 . S
H2396 C2393 0.950 . S
C2397 C2388 1.390 . S
C2397 H2390 0.950 . S
C2397 C2394 1.387 . S
C2398 C2399 1.387 . S
C2398 H2402 0.950 . S
C2398 C2407 1.390 . S
C2399 C2398 1.387 . S
C2399 C2401 1.387 . S
H2400 C2407 0.950 . S
C2401 C2399 1.387 . S
C2401 C2403 1.390 . S
C2401 H2405 0.950 . S
H2402 C2398 0.950 . S
C2403 C2401 1.390 . S
C2403 C2404 1.387 . S
C2403 H2406 0.950 . S
C2404 C2403 1.387 . S
C2404 C2407 1.387 . S
H2405 C2401 0.950 . S
H2406 C2403 0.950 . S
C2407 C2398 1.390 . S
C2407 H2400 0.950 . S
C2407 C2404 1.387 . S
C2408 C2409 1.387 . S
C2408 H2412 0.950 . S
C2408 C2417 1.390 . S
C2409 C2408 1.387 . S
C2409 C2411 1.387 . S
H2410 C2417 0.950 . S
C2411 C2409 1.387 . S
C2411 C2413 1.390 . S
C2411 H2415 0.950 . S
H2412 C2408 0.950 . S
C2413 C2411 1.390 . S
C2413 C2414 1.387 . S
C2413 H2416 0.950 . S
C2414 C2413 1.387 . S
C2414 C2417 1.387 . S
H2415 C2411 0.950 . S
H2416 C2413 0.950 . S
C2417 C2408 1.390 . S
C2417 H2410 0.950 . S
C2417 C2414 1.387 . S
C2418 C2419 1.387 . S
C2418 H2422 0.950 . S
C2418 C2427 1.390 . S
C2419 C2418 1.387 . S
C2419 C2421 1.387 . S
H2420 C2427 0.950 . S
C2421 C2419 1.387 . S
C2421 C2423 1.390 . S
C2421 H2425 0.950 . S
H2422 C2418 0.950 . S
C2423 C2421 1.390 . S
C2423 C2424 1.387 . S
C2423 H2426 0.950 . S
C2424 C2423 1.387 . S
C2424 C2427 1.387 . S
H2425 C2421 0.950 . S
H2426 C2423 0.950 . S
C2427 C2418 1.390 . S
C2427 H2420 0.950 . S
C2427 C2424 1.387 . S
C2428 C2429 1.387 . S
C2428 H2432 0.950 . S
C2428 C2437 1.390 . S
C2429 C2428 1.387 . S
C2429 C2431 1.387 . S
H2430 C2437 0.950 . S
C2431 C2429 1.387 . S
C2431 C2433 1.390 . S
C2431 H2435 0.950 . S
H2432 C2428 0.950 . S
C2433 C2431 1.390 . S
C2433 C2434 1.387 . S
C2433 H2436 0.950 . S
C2434 C2433 1.387 . S
C2434 C2437 1.387 . S
H2435 C2431 0.950 . S
H2436 C2433 0.950 . S
C2437 C2428 1.390 . S
C2437 H2430 0.950 . S
C2437 C2434 1.387 . S
C2438 C2439 1.387 . S
C2438 H2442 0.950 . S
C2438 C2447 1.390 . S
C2439 C2438 1.387 . S
C2439 C2441 1.387 . S
H2440 C2447 0.950 . S
C2441 C2439 1.387 . S
C2441 C2443 1.390 . S
C2441 H2445 0.950 . S
H2442 C2438 0.950 . S
C2443 C2441 1.390 . S
C2443 C2444 1.387 . S
C2443 H2446 0.950 . S
C2444 C2443 1.387 . S
C2444 C2447 1.387 . S
H2445 C2441 0.950 . S
H2446 C2443 0.950 . S
C2447 C2438 1.390 . S
C2447 H2440 0.950 . S
C2447 C2444 1.387 . S
C2448 C2449 1.387 . S
C2448 H2452 0.950 . S
C2448 C2457 1.390 . S
C2449 C2448 1.387 . S
C2449 C2451 1.387 . S
H2450 C2457 0.950 . S
C2451 C2449 1.387 . S
C2451 C2453 1.390 . S
C2451 H2455 0.950 . S
H2452 C2448 0.950 . S
C2453 C2451 1.390 . S
C2453 C2454 1.387 . S
C2453 H2456 0.950 . S
C2454 C2453 1.387 . S
C2454 C2457 1.387 . S
H2455 C2451 0.950 . S
H2456 C2453 0.950 . S
C2457 C2448 1.390 . S
C2457 H2450 0.950 . S
C2457 C2454 1.387 . S
C2458 C2459 1.387 . S
C2458 H2462 0.950 . S
C2458 C2467 1.390 . S
C2459 C2458 1.387 . S
C2459 C2461 1.387 . S
H2460 C2467 0.950 . S
C2461 C2459 1.387 . S
C2461 C2463 1.390 . S
C2461 H2465 0.950 . S
H2462 C2458 0.950 . S
C2463 C2461 1.390 . S
C2463 C2464 1.387 . S
C2463 H2466 0.950 . S
C2464 C2463 1.387 . S
C2464 C2467 1.387 . S
H2465 C2461 0.950 . S
H2466 C2463 0.950 . S
C2467 C2458 1.390 . S
C2467 H2460 0.950 . S
C2467 C2464 1.387 . S
C2468 C2469 1.387 . S
C2468 H2472 0.950 . S
C2468 C2477 1.390 . S
C2469 C2468 1.387 . S
C2469 C2471 1.387 . S
H2470 C2477 0.950 . S
C2471 C2469 1.387 . S
C2471 C2473 1.390 . S
C2471 H2475 0.950 . S
H2472 C2468 0.950 . S
C2473 C2471 1.390 . S
C2473 C2474 1.387 . S
C2473 H2476 0.950 . S
C2474 C2473 1.387 . S
C2474 C2477 1.387 . S
H2475 C2471 0.950 . S
H2476 C2473 0.950 . S
C2477 C2468 1.390 . S
C2477 H2470 0.950 . S
C2477 C2474 1.387 . S
C2478 C2479 1.387 . S
C2478 H2482 0.950 . S
C2478 C2487 1.390 . S
C2479 C2478 1.387 . S
C2479 C2481 1.387 . S
H2480 C2487 0.950 . S
C2481 C2479 1.387 . S
C2481 C2483 1.390 . S
C2481 H2485 0.950 . S
H2482 C2478 0.950 . S
C2483 C2481 1.390 . S
C2483 C2484 1.387 . S
C2483 H2486 0.950 . S
C2484 C2483 1.387 . S
C2484 C2487 1.387 . S
H2485 C2481 0.950 . S
H2486 C2483 0.950 . S
C2487 C2478 1.390 . S
C2487 H2480 0.950 . S
C2487 C2484 1.387 . S
C2488 C2489 1.387 . S
C2488 H2492 0.950 . S
C2488 C2497 1.390 . S
C2489 C2488 1.387 . S
C2489 C2491 1.387 . S
H2490 C2497 0.950 . S
C2491 C2489 1.387 . S
C2491 C2493 1.390 . S
C2491 H2495 0.950 . S
H2492 C2488 0.950 . S
C2493 C2491 1.390 . S
C2493 C2494 1.387 . S
C2493 H2496 0.950 . S
C2494 C2493 1.387 . S
C2494 C2497 1.387 . S
H2495 C2491 0.950 . S
H2496 C2493 0.950 . S
C2497 C2488 1.390 . S
C2497 H2490 0.950 . S
C2497 C2494 1.387 . S
C2498 C2499 1.387 . S
C2498 H2502 0.950 . S
C2498 C2507 1.390 . S
C2499 C2498 1.387 . S
C2499 C2501 1.387 . S
H2500 C2507 0.950 . S
C2501 C2499 1.387 . S
C2501 C2503 1.390 . S
C2501 H2505 0.950 . S
H2502 C2498 0.950 . S
C2503 C2501 1.390 . S
C2503 C2504 1.387 . S
C2503 H2506 0.950 . S
C2504 C2503 1.387 . S
C2504 C2507 1.387 . S
H2505 C2501 0.950 . S
H2506 C2503 0.950 . S
C2507 C2498 1.390 . S
C2507 H2500 0.950 . S
C2507 C2504 1.387 . S
C2508 C2509 1.387 . S
C2508 H2512 0.950 . S
C2508 C2517 1.390 . S
C2509 C2508 1.387 . S
C2509 C2511 1.387 . S
H2510 C2517 0.950 . S
C2511 C2509 1.387 . S
C2511 C2513 1.390 . S
C2511 H2515 0.950 . S
H2512 C2508 0.950 . S
C2513 C2511 1.390 . S
C2513 C2514 1.387 . S
C2513 H2516 0.950 . S
C2514 C2513 1.387 . S
C2514 C2517 1.387 . S
H2515 C2511 0.950 . S
H2516 C2513 0.950 . S
C2517 C2508 1.390 . S
C2517 H2510 0.950 . S
C2517 C2514 1.387 . S
C2518 C2519 1.387 . S
C2518 H2522 0.950 . S
C2518 C2527 1.390 . S
C2519 C2518 1.387 . S
C2519 C2521 1.387 . S
H2520 C2527 0.950 . S
C2521 C2519 1.387 . S
C2521 C2523 1.390 . S
C2521 H2525 0.950 . S
H2522 C2518 0.950 . S
C2523 C2521 1.390 . S
C2523 C2524 1.387 . S
C2523 H2526 0.950 . S
C2524 C2523 1.387 . S
C2524 C2527 1.387 . S
H2525 C2521 0.950 . S
H2526 C2523 0.950 . S
C2527 C2518 1.390 . S
C2527 H2520 0.950 . S
C2527 C2524 1.387 . S
C1889 C241 1.608 . S
C1894 C5 1.608 . S
C1899 C300 1.608 . S
C1904 C64 1.608 . S
C1909 C359 1.608 . S
C1914 C123 1.608 . S
C1919 C182 1.608 . S
C1924 C418 1.608 . S
C1929 C477 1.608 . S
C1934 C713 1.608 . S
C1939 C772 1.608 . S
C1944 C536 1.608 . S
C1949 C595 1.609 . S
C1954 C831 1.609 . S
C1959 C890 1.609 . S
C1964 C654 1.609 . S
C1969 C949 1.608 . S
C1974 C1185 1.608 . S
C1979 C1244 1.608 . S
C1984 C1008 1.608 . S
C1989 C1303 1.609 . S
C1994 C1067 1.609 . S
C1999 C1362 1.608 . S
C2004 C1126 1.608 . S
C2009 C1421 1.608 . S
C2014 C1657 1.608 . S
C2019 C1480 1.609 . S
C2024 C1716 1.609 . S
C2029 C1539 1.609 . S
C2034 C1775 1.609 . S
C2039 C1598 1.608 . S
C2044 C1834 1.608 . S
C2049 C3 1.413 . S
C2054 C416 1.414 . S
C2059 C62 1.413 . S
C2064 C239 1.414 . S
C2069 C121 1.414 . S
C2074 C298 1.413 . S
C2079 C357 1.414 . S
C2084 C180 1.413 . S
C2089 C888 1.413 . S
C2094 C475 1.414 . S
C2099 C711 1.414 . S
C2104 C534 1.413 . S
C2109 C770 1.414 . S
C2114 C593 1.413 . S
C2119 C652 1.414 . S
C2124 C829 1.413 . S
C2129 C1360 1.414 . S
C2134 C947 1.413 . S
C2139 C1183 1.413 . S
C2144 C1006 1.414 . S
C2149 C1242 1.414 . S
C2154 C1065 1.413 . S
C2159 C1124 1.413 . S
C2164 C1301 1.414 . S
C2169 C1419 1.414 . S
C2174 C1832 1.413 . S
C2179 C1478 1.413 . S
C2184 C1655 1.413 . S
C2189 C1537 1.413 . S
C2194 C1714 1.414 . S
C2199 C1773 1.413 . S
C2204 C1596 1.413 . S
C2209 C52 1.587 . S
C2214 C1508 1.584 . S
C2219 C111 1.587 . S
C2224 C623 1.582 . S
C2229 C170 1.588 . S
C2234 C1626 1.585 . S
C2239 C505 1.584 . S
C2244 C229 1.587 . S
C2249 C1862 1.585 . S
C2254 C288 1.588 . S
C2259 C347 1.587 . S
C2264 C741 1.585 . S
C2269 C406 1.587 . S
C2274 C1744 1.584 . S
C2279 C465 1.587 . S
C2284 C859 1.583 . S
C2289 C1036 1.584 . S
C2294 C524 1.587 . S
C2299 C151 1.582 . S
C2304 C583 1.587 . S
C2309 C1154 1.584 . S
C2314 C642 1.587 . S
C2319 C701 1.588 . S
C2324 C33 1.585 . S
C2329 C1390 1.585 . S
C2334 C760 1.588 . S
C2339 C269 1.584 . S
C2344 C819 1.587 . S
C2349 C1272 1.584 . S
C2354 C878 1.587 . S
C2359 C387 1.583 . S
C2364 C937 1.587 . S
C2369 C564 1.585 . S
C2374 C996 1.587 . S
C2379 C1055 1.587 . S
C2384 C1567 1.584 . S
C2389 C1114 1.587 . S
C2394 C682 1.585 . S
C2399 C1173 1.587 . S
C2404 C1449 1.582 . S
C2409 C1232 1.588 . S
C2414 C918 1.585 . S
C2419 C1685 1.584 . S
C2424 C1291 1.587 . S
C2429 C1350 1.587 . S
C2434 C800 1.584 . S
C2439 C1409 1.587 . S
C2444 C1803 1.584 . S
C2449 C1468 1.587 . S
C2454 C92 1.584 . S
C2459 C1527 1.587 . S
C2464 C1095 1.584 . S
C2469 C210 1.585 . S
C2474 C1586 1.588 . S
C2479 C977 1.582 . S
C2484 C1645 1.587 . S
C2489 C1704 1.588 . S
C2494 C446 1.585 . S
C2499 C1763 1.587 . S
C2504 C1213 1.582 . S
C2509 C328 1.585 . S
C2514 C1822 1.588 . S
C2519 C1331 1.584 . S
C2524 C1881 1.587 . S
