# Generated by pormake.
# Topology wfa, (4)-cn, num edge types: 1
# Building blocks:
#     Node 0, Type 0, BuildingBlock: NAWXER_clean_sbu_0, # of connection points: 4
#     Node 1, Type 0, BuildingBlock: NAWXER_clean_sbu_0, # of connection points: 4
#     Node 2, Type 0, BuildingBlock: NAWXER_clean_sbu_0, # of connection points: 4
#     Node 3, Type 0, BuildingBlock: NAWXER_clean_sbu_0, # of connection points: 4
#     Node 4, Type 0, BuildingBlock: NAWXER_clean_sbu_0, # of connection points: 4
#     Node 5, Type 0, BuildingBlock: NAWXER_clean_sbu_0, # of connection points: 4
#     Node 6, Type 0, BuildingBlock: NAWXER_clean_sbu_0, # of connection points: 4
#     Node 7, Type 0, BuildingBlock: NAWXER_clean_sbu_0, # of connection points: 4
#     Node 8, Type 0, BuildingBlock: NAWXER_clean_sbu_0, # of connection points: 4
#     Node 9, Type 0, BuildingBlock: NAWXER_clean_sbu_0, # of connection points: 4
#     Node 10, Type 0, BuildingBlock: NAWXER_clean_sbu_0, # of connection points: 4
#     Node 11, Type 0, BuildingBlock: NAWXER_clean_sbu_0, # of connection points: 4
#     Node 12, Type 0, BuildingBlock: NAWXER_clean_sbu_0, # of connection points: 4
#     Node 13, Type 0, BuildingBlock: NAWXER_clean_sbu_0, # of connection points: 4
#     Node 14, Type 0, BuildingBlock: NAWXER_clean_sbu_0, # of connection points: 4
#     Node 15, Type 0, BuildingBlock: NAWXER_clean_sbu_0, # of connection points: 4
#     Edge 16, Type (0, 0), BuildingBlock: AJUNOK_clean_linker_0, # of connection points: 2
#     Edge 17, Type (0, 0), BuildingBlock: AJUNOK_clean_linker_0, # of connection points: 2
#     Edge 18, Type (0, 0), BuildingBlock: AJUNOK_clean_linker_0, # of connection points: 2
#     Edge 19, Type (0, 0), BuildingBlock: AJUNOK_clean_linker_0, # of connection points: 2
#     Edge 20, Type (0, 0), BuildingBlock: AJUNOK_clean_linker_0, # of connection points: 2
#     Edge 21, Type (0, 0), BuildingBlock: AJUNOK_clean_linker_0, # of connection points: 2
#     Edge 22, Type (0, 0), BuildingBlock: AJUNOK_clean_linker_0, # of connection points: 2
#     Edge 23, Type (0, 0), BuildingBlock: AJUNOK_clean_linker_0, # of connection points: 2
#     Edge 24, Type (0, 0), BuildingBlock: AJUNOK_clean_linker_0, # of connection points: 2
#     Edge 25, Type (0, 0), BuildingBlock: AJUNOK_clean_linker_0, # of connection points: 2
#     Edge 26, Type (0, 0), BuildingBlock: AJUNOK_clean_linker_0, # of connection points: 2
#     Edge 27, Type (0, 0), BuildingBlock: AJUNOK_clean_linker_0, # of connection points: 2
#     Edge 28, Type (0, 0), BuildingBlock: AJUNOK_clean_linker_0, # of connection points: 2
#     Edge 29, Type (0, 0), BuildingBlock: AJUNOK_clean_linker_0, # of connection points: 2
#     Edge 30, Type (0, 0), BuildingBlock: AJUNOK_clean_linker_0, # of connection points: 2
#     Edge 31, Type (0, 0), BuildingBlock: AJUNOK_clean_linker_0, # of connection points: 2
#     Edge 32, Type (0, 0), BuildingBlock: AJUNOK_clean_linker_0, # of connection points: 2
#     Edge 33, Type (0, 0), BuildingBlock: AJUNOK_clean_linker_0, # of connection points: 2
#     Edge 34, Type (0, 0), BuildingBlock: AJUNOK_clean_linker_0, # of connection points: 2
#     Edge 35, Type (0, 0), BuildingBlock: AJUNOK_clean_linker_0, # of connection points: 2
#     Edge 36, Type (0, 0), BuildingBlock: AJUNOK_clean_linker_0, # of connection points: 2
#     Edge 37, Type (0, 0), BuildingBlock: AJUNOK_clean_linker_0, # of connection points: 2
#     Edge 38, Type (0, 0), BuildingBlock: AJUNOK_clean_linker_0, # of connection points: 2
#     Edge 39, Type (0, 0), BuildingBlock: AJUNOK_clean_linker_0, # of connection points: 2
#     Edge 40, Type (0, 0), BuildingBlock: AJUNOK_clean_linker_0, # of connection points: 2
#     Edge 41, Type (0, 0), BuildingBlock: AJUNOK_clean_linker_0, # of connection points: 2
#     Edge 42, Type (0, 0), BuildingBlock: AJUNOK_clean_linker_0, # of connection points: 2
#     Edge 43, Type (0, 0), BuildingBlock: AJUNOK_clean_linker_0, # of connection points: 2
#     Edge 44, Type (0, 0), BuildingBlock: AJUNOK_clean_linker_0, # of connection points: 2
#     Edge 45, Type (0, 0), BuildingBlock: AJUNOK_clean_linker_0, # of connection points: 2
#     Edge 46, Type (0, 0), BuildingBlock: AJUNOK_clean_linker_0, # of connection points: 2
#     Edge 47, Type (0, 0), BuildingBlock: AJUNOK_clean_linker_0, # of connection points: 2
# Relax obj value: 0.153
# Max RMSD: 0.233
# Mean RMSD: 0.220
data_MOF--net-wfa--node1-NAWXER_clean_sbu_0--edge1-AJUNOK_clean_linker_0
_symmetry_space_group_name_H-M    P1
_symmetry_Int_Tables_number       1
_symmetry_cell_setting            triclinic
loop_
_symmetry_equiv_pos_as_xyz
'x, y, z'
_cell_length_a     35.157714
_cell_length_b     35.170418
_cell_length_c     16.585559
_cell_angle_alpha  89.764988
_cell_angle_beta   89.761756
_cell_angle_gamma 90.459735
loop_
_atom_site_label
_atom_site_type_symbol
_atom_site_fract_x
_atom_site_fract_y
_atom_site_fract_z
_atom_type_partial_charge
C0 C 0.68794 0.06716 0.16907 0.0
C1 C 0.73851 1.00231 0.94013 0.0
O2 O 0.70197 0.0802 0.104 0.0
Zn3 Zn 0.71012 0.0323 0.05813 0.0
O4 O 0.68497 0.03103 0.18066 0.0
Zn5 Zn 0.69866 0.98002 0.10912 0.0
O6 O 0.73324 0.95495 0.18271 0.0
O7 O 0.75444 1.01051 0.13993 0.0
O8 O 0.72848 0.97712 0.99276 0.0
O9 O 0.73163 0.03679 0.95406 0.0
O10 O 0.65108 1.01414 0.04385 0.0
O11 O 0.64805 0.95677 0.0955 0.0
C12 C 0.75874 0.98074 0.18441 0.0
C13 C 0.63123 0.98459 0.06261 0.0
C14 C 0.53682 0.72996 0.05016 0.0
C15 C 0.53502 0.59905 0.95742 0.0
O16 O 0.56396 0.70632 0.05041 0.0
Zn17 Zn 0.53889 0.66714 0.98928 0.0
O18 O 0.50627 0.72181 0.01149 0.0
Zn19 Zn 0.48359 0.67414 0.94455 0.0
O20 O 0.43798 0.66541 1.00816 0.0
O21 O 0.49208 0.65329 0.07081 0.0
O22 O 0.50436 0.61651 0.93871 0.0
O23 O 0.56326 0.61822 0.98279 0.0
O24 O 0.53826 0.69025 0.86906 0.0
O25 O 0.478 0.69156 0.83469 0.0
C26 C 0.45558 0.65403 0.07061 0.0
C27 C 0.51259 0.69774 0.81676 0.0
C28 C 0.79587 0.52592 0.03653 0.0
C29 C 0.93005 0.51677 0.96051 0.0
O30 O 0.8206 0.55258 0.03773 0.0
Zn31 Zn 0.86049 0.52576 0.98114 0.0
O32 O 0.80333 0.49533 0.99755 0.0
Zn33 Zn 0.85229 0.47027 0.93684 0.0
O34 O 0.85538 0.42491 1.00226 0.0
O35 O 0.8652 0.47958 0.06598 0.0
O36 O 0.91111 0.48707 0.94025 0.0
O37 O 0.912 0.54621 0.98198 0.0
O38 O 0.8411 0.52494 0.85904 0.0
O39 O 0.83856 0.46461 0.82569 0.0
C40 C 0.86187 0.4433 0.06682 0.0
C41 C 0.83408 0.4992 0.80655 0.0
C42 C 0.03699 0.94333 0.1737 0.0
C43 C 0.97285 0.87209 0.96251 0.0
O44 O 0.04864 0.92963 0.10754 0.0
Zn45 Zn 1.00144 0.90992 0.07288 0.0
O46 O 1.00166 0.93849 0.19375 0.0
Zn47 Zn 0.95088 0.91064 0.13243 0.0
O48 O 0.9351 0.87447 0.21072 0.0
O49 O 0.99204 0.86326 0.16106 0.0
O50 O 0.94879 0.87738 0.01998 0.0
O51 O 1.0051 0.88789 0.96772 0.0
O52 O 0.97017 0.9631 0.06398 0.0
O53 O 0.91474 0.95143 0.1214 0.0
C54 C 0.96464 0.85417 0.20958 0.0
C55 C 0.93721 0.9745 0.08665 0.0
C56 C 0.15216 0.99477 0.39257 0.0
C57 C 0.2318 0.9917 0.63953 0.0
O58 O 0.16443 0.96218 0.41377 0.0
Zn59 Zn 0.19668 0.93569 0.50587 0.0
O60 O 0.1622 0.0244 0.43164 0.0
Zn61 Zn 0.19424 0.99716 0.51103 0.0
O62 O 0.23881 0.97609 0.43591 0.0
O63 O 0.23755 0.91353 0.44223 0.0
O64 O 0.22037 0.02136 0.60293 0.0
O65 O 0.22432 0.95905 0.60905 0.0
O66 O 0.15398 0.90561 0.55027 0.0
O67 O 0.14816 0.9676 0.56561 0.0
C68 C 0.25242 0.94399 0.41422 0.0
C69 C 0.1346 0.93398 0.5741 0.0
C70 C 0.52521 0.22783 0.3848 0.0
C71 C 0.52485 0.09774 0.48761 0.0
O72 O 0.49845 0.20338 0.38116 0.0
Zn73 Zn 0.52001 0.166 0.45263 0.0
O74 O 0.55324 0.22175 0.43261 0.0
Zn75 Zn 0.57129 0.1757 0.51217 0.0
O76 O 0.62072 0.16696 0.46937 0.0
O77 O 0.57261 0.15426 0.38704 0.0
O78 O 0.55278 0.11734 0.51478 0.0
O79 O 0.49751 0.11498 0.45384 0.0
O80 O 0.5123 0.19005 0.57132 0.0
O81 O 0.57029 0.19317 0.62014 0.0
C82 C 0.60845 0.15567 0.40149 0.0
C83 C 0.53498 0.19812 0.62934 0.0
C84 C 0.43348 0.51272 0.47924 0.0
C85 C 0.30573 0.50283 0.36876 0.0
O86 O 0.41651 0.48306 0.45397 0.0
Zn87 Zn 0.36696 0.50488 0.4361 0.0
O88 O 0.41412 0.54289 0.49155 0.0
Zn89 Zn 0.35638 0.56108 0.47402 0.0
O90 O 0.33459 0.56857 0.5797 0.0
O91 O 0.33918 0.50777 0.55173 0.0
O92 O 0.31188 0.53441 0.40511 0.0
O93 O 0.33069 0.47689 0.37134 0.0
O94 O 0.38204 0.55002 0.35234 0.0
O95 O 0.36566 0.60516 0.40573 0.0
C96 C 0.32842 0.53419 0.59957 0.0
C97 C 0.38011 0.58638 0.34787 0.0
C98 C 0.89782 0.40451 0.38899 0.0
C99 C 0.92826 0.36219 0.6575 0.0
O100 O 0.87475 0.39725 0.44632 0.0
Zn101 Zn 0.91382 0.38973 0.52435 0.0
O102 O 0.93371 0.40687 0.40203 0.0
Zn103 Zn 0.97188 0.39657 0.50237 0.0
O104 O 1.00245 0.35836 0.44726 0.0
O105 O 0.94224 0.34207 0.46342 0.0
O106 O 0.95895 0.37007 0.61814 0.0
O107 O 0.89661 0.37043 0.62626 0.0
O108 O 0.93259 0.4479 0.5421 0.0
O109 O 0.99416 0.44702 0.5219 0.0
C110 C 0.97539 0.33485 0.4344 0.0
C111 C 0.96447 0.46585 0.53829 0.0
C112 C 0.40819 0.91122 0.87945 0.0
C113 C 0.35864 0.94212 0.14255 0.0
O114 O 0.40914 0.94729 0.89131 0.0
Zn115 Zn 0.39529 0.98588 0.98981 0.0
O116 O 0.39903 0.88864 0.93645 0.0
Zn117 Zn 0.38897 0.92803 0.01175 0.0
O118 O 0.3422 0.95517 0.94516 0.0
O119 O 0.35771 0.01565 0.93138 0.0
O120 O 0.368 0.91069 0.11195 0.0
O121 O 0.36683 0.97292 0.10388 0.0
O122 O 0.44478 1.00951 0.01274 0.0
O123 O 0.44666 0.94802 0.03336 0.0
C124 C 0.33501 0.98828 0.91584 0.0
C125 C 0.46404 0.98024 0.03014 0.0
C126 C 0.51473 0.30245 0.88636 0.0
C127 C 0.52834 0.43304 0.97769 0.0
O128 O 0.54673 0.30868 0.92133 0.0
Zn129 Zn 0.57459 0.35511 0.98459 0.0
O130 O 0.48927 0.32794 0.88731 0.0
Zn131 Zn 0.51883 0.36508 0.94533 0.0
O132 O 0.56403 0.37388 0.85689 0.0
O133 O 0.6189 0.36175 0.91655 0.0
O134 O 0.49836 0.41589 0.95495 0.0
O135 O 0.55806 0.41348 0.99276 0.0
O136 O 0.58214 0.33662 0.09303 0.0
O137 O 0.52135 0.34041 0.06462 0.0
C138 C 0.6004 0.3714 0.85401 0.0
C139 C 0.54779 0.33097 0.11374 0.0
C140 C 0.1993 0.52171 0.11298 0.0
C141 C 0.1443 0.5897 0.88903 0.0
O142 O 0.18982 0.49794 0.05794 0.0
Zn143 Zn 0.16263 0.50297 0.94177 0.0
O144 O 0.19372 0.55682 0.10183 0.0
Zn145 Zn 0.1726 0.55563 0.99691 0.0
O146 O 0.11537 0.53421 0.01092 0.0
O147 O 0.11263 0.47847 0.95169 0.0
O148 O 0.16015 0.60387 0.95098 0.0
O149 O 0.14451 0.55365 0.87742 0.0
O150 O 0.19923 0.48273 0.86586 0.0
O151 O 0.21653 0.53849 0.9137 0.0
C152 C 0.09574 0.50553 0.98746 0.0
C153 C 0.22274 0.51038 0.86648 0.0
C154 C 0.97894 0.23413 0.15558 0.0
C155 C 0.98374 0.15884 0.90287 0.0
O156 O 1.00888 0.22429 0.11788 0.0
Zn157 Zn 0.98503 0.19902 0.02439 0.0
O158 O 0.94642 0.22667 0.12442 0.0
Zn159 Zn 0.92356 0.20064 0.01877 0.0
O160 O 0.89376 0.15712 0.0602 0.0
O161 O 0.95581 0.15169 0.07536 0.0
O162 O 0.95078 0.17002 0.92452 0.0
O163 O 1.01304 0.16893 0.943 0.0
O164 O 0.96353 0.24414 0.95201 0.0
O165 O 0.90096 0.24227 0.95791 0.0
C166 C 0.9223 0.13755 0.08238 0.0
C167 C 0.93134 0.25773 0.93095 0.0
C168 C 0.84928 0.97755 0.68582 0.0
C169 C 0.9723 0.95064 0.57387 0.0
O170 O 0.85988 1.0052 0.6394 0.0
Zn171 Zn 0.9085 0.01538 0.55684 0.0
O172 O 0.86887 0.94748 0.68751 0.0
Zn173 Zn 0.90712 0.96385 0.61353 0.0
O174 O 0.93307 1.01339 0.68149 0.0
O175 O 0.92758 0.06195 0.5979 0.0
O176 O 0.9483 0.92784 0.60462 0.0
O177 O 0.96159 0.98395 0.55217 0.0
O178 O 0.88866 0.02055 0.44943 0.0
O179 O 0.87646 0.96384 0.4979 0.0
C180 C 0.93874 0.04898 0.6652 0.0
C181 C 0.87257 0.98857 0.44118 0.0
C182 C 0.53782 0.79867 0.54593 0.0
C183 C 0.53435 0.93198 0.46141 0.0
O184 O 0.50806 0.80669 0.50471 0.0
Zn185 Zn 0.48573 0.85544 0.43905 0.0
O186 O 0.56509 0.8227 0.54852 0.0
Zn187 Zn 0.54054 0.86259 0.48752 0.0
O188 O 0.49287 0.87036 0.56801 0.0
O189 O 0.43933 0.86114 0.49962 0.0
O190 O 0.56284 0.91343 0.48648 0.0
O191 O 0.50448 0.91362 0.43997 0.0
O192 O 0.48146 0.84025 0.32868 0.0
O193 O 0.54124 0.84115 0.36666 0.0
C194 C 0.45651 0.86839 0.56527 0.0
C195 C 0.51615 0.83414 0.31273 0.0
C196 C 0.6589 0.43805 0.56175 0.0
C197 C 0.69603 0.5007 0.30918 0.0
O198 O 0.65879 0.47447 0.56667 0.0
Zn199 Zn 0.66846 0.52309 0.48668 0.0
O200 O 0.66624 0.42208 0.49476 0.0
Zn201 Zn 0.67433 0.46901 0.43589 0.0
O202 O 0.72364 0.49062 0.50081 0.0
O203 O 0.70868 0.54767 0.5449 0.0
O204 O 0.68963 0.46584 0.3241 0.0
O205 O 0.68936 0.52516 0.36449 0.0
O206 O 0.61895 0.54689 0.48814 0.0
O207 O 0.61684 0.48919 0.43807 0.0
C208 C 0.73238 0.52062 0.54092 0.0
C209 C 0.59951 0.51912 0.46154 0.0
C210 C 0.9881 0.74282 0.46524 0.0
C211 C 0.04709 0.68267 0.69283 0.0
O212 O 0.96206 0.73088 0.51411 0.0
Zn213 Zn 0.96195 0.69865 0.62703 0.0
O214 O 0.02244 0.73574 0.4811 0.0
Zn215 Zn 0.01592 0.71101 0.58224 0.0
O216 O 0.99658 0.65282 0.55831 0.0
O217 O 0.93816 0.6491 0.60504 0.0
O218 O 0.0625 0.70058 0.63455 0.0
O219 O 1.01068 0.68003 0.69834 0.0
O220 O 0.93692 0.73221 0.70396 0.0
O221 O 0.99327 0.75312 0.66559 0.0
C222 C 0.96652 0.63286 0.5726 0.0
C223 C 0.96314 0.75717 0.70883 0.0
C224 C 0.65881 0.10986 0.36756 0.0
C225 C 0.63426 0.13892 0.34279 0.0
C226 C 0.67707 0.08703 0.31067 0.0
C227 C 0.67197 0.09347 0.22787 0.0
H228 H 0.66196 0.10314 0.43101 0.0
H229 H 0.69451 0.06371 0.33144 0.0
S230 S 0.61226 0.16761 0.13322 0.0
N231 N 0.60667 0.17388 0.23119 0.0
N232 N 0.64216 0.13189 0.12378 0.0
C233 C 0.64908 0.12378 0.20257 0.0
C234 C 0.62986 0.14634 0.26035 0.0
C235 C 0.43229 0.59052 0.24787 0.0
C236 C 0.39826 0.60555 0.27836 0.0
C237 C 0.4505 0.60682 0.18113 0.0
C238 C 0.43497 0.6383 0.14097 0.0
H239 H 0.44523 0.56606 0.27635 0.0
H240 H 0.47673 0.59422 0.16002 0.0
S241 S 0.34637 0.68842 0.19669 0.0
N242 N 0.34985 0.65405 0.26449 0.0
N243 N 0.38368 0.6842 0.13645 0.0
C244 C 0.40082 0.65362 0.17033 0.0
C245 C 0.38262 0.63745 0.23992 0.0
C246 C 0.84316 0.43885 0.2093 0.0
C247 C 0.86482 0.42451 0.14488 0.0
C248 C 0.85245 0.43025 0.28908 0.0
C249 C 0.88425 0.40795 0.30613 0.0
H250 H 0.82027 0.45863 0.19795 0.0
H251 H 0.83632 0.44319 0.33742 0.0
S252 S 0.94659 0.35939 0.15838 0.0
N253 N 0.91634 0.38361 0.10249 0.0
N254 N 0.93455 0.36782 0.25301 0.0
C255 C 0.90441 0.39122 0.24211 0.0
C256 C 0.89444 0.39939 0.16096 0.0
C257 C 0.10381 0.964 0.20375 0.0
C258 C 0.06498 0.96375 0.22608 0.0
C259 C 0.13196 0.97877 0.25461 0.0
C260 C 0.12268 0.99474 0.32943 0.0
H261 H 0.11303 0.95082 0.14817 0.0
H262 H 0.16154 0.97526 0.23767 0.0
S263 S 0.02553 1.00592 0.413 0.0
N264 N 0.01868 0.98451 0.3257 0.0
N265 N 0.07196 1.01227 0.42129 0.0
C266 C 0.08398 0.99731 0.35034 0.0
C267 C 0.05507 0.98186 0.29874 0.0
C268 C 0.40741 0.91989 0.73098 0.0
C269 C 0.41568 0.89677 0.79812 0.0
C270 C 0.41729 0.90867 0.65297 0.0
C271 C 0.43592 0.87419 0.64034 0.0
H272 H 0.3942 0.94737 0.73896 0.0
H273 H 0.41269 0.92813 0.60318 0.0
S274 S 0.46137 0.80218 0.79405 0.0
N275 N 0.44098 0.83657 0.84581 0.0
N276 N 0.46039 0.81595 0.69874 0.0
C277 C 0.44257 0.84993 0.70602 0.0
C278 C 0.43213 0.86108 0.78528 0.0
C279 C 0.66274 0.42696 0.70969 0.0
C280 C 0.64879 0.4156 0.63402 0.0
C281 C 0.64901 0.41028 0.78114 0.0
C282 C 0.62013 0.38251 0.77907 0.0
H283 H 0.68354 0.44978 0.71377 0.0
H284 H 0.6593 0.42088 0.83837 0.0
S285 S 0.57579 0.34124 0.59654 0.0
N286 N 0.60652 0.37303 0.56115 0.0
N287 N 0.5796 0.34269 0.69575 0.0
C288 C 0.60704 0.36983 0.70382 0.0
C289 C 0.62172 0.38609 0.63105 0.0
C290 C 0.10586 0.67411 0.77418 0.0
C291 C 0.07083 0.65991 0.74639 0.0
C292 C 0.12984 0.6513 0.82083 0.0
C293 C 0.12001 0.61332 0.83793 0.0
H294 H 0.1146 0.703 0.76013 0.0
H295 H 0.15639 0.6632 0.84255 0.0
S296 S 0.03163 0.5627 0.7767 0.0
N297 N 0.02737 0.60594 0.73909 0.0
N298 N 0.07296 0.56256 0.82347 0.0
C299 C 0.08518 0.59879 0.8095 0.0
C300 C 0.0604 0.62227 0.76449 0.0
C301 C 0.97242 0.14162 0.76061 0.0
C302 C 0.98479 0.13053 0.83741 0.0
C303 C 0.95939 0.11479 0.70457 0.0
C304 C 0.95721 0.07563 0.72355 0.0
H305 H 0.97052 0.17156 0.74552 0.0
H306 H 0.94911 0.12528 0.64724 0.0
S307 S 0.98876 0.0318 0.9157 0.0
N308 N 0.99631 0.0778 0.92857 0.0
N309 N 0.97141 0.02714 0.82384 0.0
C310 C 0.97136 0.06398 0.79901 0.0
C311 C 0.98518 0.09146 0.85574 0.0
C312 C 0.78481 0.96055 0.86764 0.0
C313 C 0.76149 0.99278 0.86775 0.0
C314 C 0.81192 0.95504 0.80645 0.0
C315 C 0.8168 0.98155 0.74294 0.0
H316 H 0.78357 0.94046 0.91728 0.0
H317 H 0.8303 0.93057 0.81116 0.0
S318 S 0.75854 0.06758 0.70891 0.0
N319 N 0.74191 0.04928 0.79394 0.0
N320 N 0.79288 0.03898 0.6796 0.0
C321 C 0.79195 1.01259 0.7397 0.0
C322 C 0.76431 0.01817 0.80186 0.0
C323 C 0.56203 0.76448 0.66845 0.0
C324 C 0.53627 0.76603 0.60364 0.0
C325 C 0.55546 0.7404 0.735 0.0
C326 C 0.52276 0.71712 0.73968 0.0
H327 H 0.5862 0.78373 0.67051 0.0
H328 H 0.57494 0.74191 0.78534 0.0
S329 S 0.45049 0.70473 0.57938 0.0
N330 N 0.47981 0.73758 0.54334 0.0
N331 N 0.46734 0.69298 0.66875 0.0
C332 C 0.49854 0.71597 0.67248 0.0
C333 C 0.50538 0.74017 0.60437 0.0
C334 C 0.81036 0.48027 0.67061 0.0
C335 C 0.81606 0.50894 0.72835 0.0
C336 C 0.78596 0.4857 0.60515 0.0
C337 C 0.76599 0.51994 0.595 0.0
H338 H 0.82306 0.45254 0.6784 0.0
H339 H 0.78073 0.46177 0.56568 0.0
S340 S 0.77759 0.60691 0.71902 0.0
N341 N 0.80481 0.57509 0.76333 0.0
N342 N 0.75874 0.5852 0.6405 0.0
C343 C 0.77463 0.55024 0.64728 0.0
C344 C 0.7997 0.54476 0.71392 0.0
C345 C 0.99125 0.84541 0.82792 0.0
C346 C 0.96547 0.84576 0.89337 0.0
C347 C 0.9891 0.8178 0.76719 0.0
C348 C 0.961 0.78904 0.76845 0.0
H349 H 1.01424 0.86606 0.8245 0.0
H350 H 1.01049 0.81848 0.71998 0.0
S351 S 0.88431 0.77889 0.92229 0.0
N352 N 0.9092 0.81617 0.95256 0.0
N353 N 0.90496 0.76432 0.83841 0.0
C354 C 0.93372 0.79015 0.83118 0.0
C355 C 0.93598 0.81843 0.89343 0.0
C356 C 0.25995 0.96036 0.76152 0.0
C357 C 0.25457 0.99371 0.71568 0.0
C358 C 0.28406 0.95968 0.82878 0.0
C359 C 0.30437 0.99227 0.85367 0.0
H360 H 0.24607 0.93402 0.7443 0.0
H361 H 0.28787 0.93275 0.85951 0.0
S362 S 0.29807 0.08797 0.75888 0.0
N363 N 0.26969 0.06107 0.70369 0.0
N364 N 0.31527 0.05981 0.82959 0.0
C365 C 0.29793 0.02637 0.81076 0.0
C366 C 0.27304 0.02709 0.74213 0.0
C367 C 0.49427 0.24607 0.69815 0.0
C368 C 0.52158 0.2172 0.70318 0.0
C369 C 0.48916 0.27172 0.76192 0.0
C370 C 0.51118 0.26914 0.83253 0.0
H371 H 0.47917 0.25093 0.64228 0.0
H372 H 0.47027 0.29553 0.75283 0.0
S373 S 0.5793 0.19264 0.88234 0.0
N374 N 0.56569 0.18326 0.78929 0.0
N375 N 0.55589 0.23111 0.90922 0.0
C376 C 0.53527 0.23772 0.8415 0.0
C377 C 0.54056 0.21183 0.77667 0.0
C378 C 0.29881 0.55387 0.73048 0.0
C379 C 0.30595 0.52513 0.67372 0.0
C380 C 0.27364 0.54795 0.79521 0.0
C381 C 0.25411 0.51311 0.80584 0.0
H382 H 0.31187 0.5817 0.72363 0.0
H383 H 0.26826 0.57162 0.83512 0.0
S384 S 0.26568 0.42713 0.6791 0.0
N385 N 0.29378 0.45928 0.63643 0.0
N386 N 0.24626 0.4483 0.75763 0.0
C387 C 0.26254 0.4834 0.75211 0.0
C388 C 0.28847 0.48935 0.68631 0.0
C389 C 0.96311 0.32248 0.75871 0.0
C390 C 0.9293 0.34021 0.73453 0.0
C391 C 0.96366 0.29725 0.82442 0.0
C392 C 0.9304 0.28848 0.86888 0.0
H393 H 0.98917 0.32688 0.72475 0.0
H394 H 0.99025 0.28335 0.83824 0.0
S395 S 0.83561 0.33175 0.83831 0.0
N396 N 0.86244 0.35053 0.76634 0.0
N397 N 0.86356 0.30288 0.88922 0.0
C398 C 0.89686 0.30771 0.84842 0.0
C399 C 0.8963 0.33359 0.78156 0.0
C400 C 0.29248 0.97671 0.30872 0.0
C401 C 0.28296 0.94315 0.35149 0.0
C402 C 0.31811 0.97645 0.24357 0.0
C403 C 0.33551 0.94264 0.21824 0.0
H404 H 0.27907 1.00339 0.32378 0.0
H405 H 0.32328 1.00281 0.2112 0.0
S406 S 0.32411 0.84779 0.31602 0.0
N407 N 0.29567 0.87575 0.36794 0.0
N408 N 0.34396 0.87515 0.24627 0.0
C409 C 0.32778 0.9092 0.26311 0.0
C410 C 0.30152 0.90947 0.32936 0.0
C411 C 0.56248 0.27859 0.31219 0.0
C412 C 0.52752 0.25957 0.32491 0.0
C413 C 0.56809 0.30311 0.24615 0.0
C414 C 0.53893 0.31004 0.19012 0.0
H415 H 0.58651 0.27302 0.35103 0.0
H416 H 0.59609 0.31558 0.23743 0.0
S417 S 0.44033 0.27155 0.20199 0.0
N418 N 0.46204 0.25248 0.28022 0.0
N419 N 0.47247 0.29872 0.15665 0.0
C420 C 0.503 0.29336 0.20527 0.0
C421 C 0.49734 0.26812 0.27238 0.0
C422 C 0.27459 0.47731 0.24433 0.0
C423 C 0.27259 0.49986 0.31423 0.0
C424 C 0.24848 0.48205 0.18118 0.0
C425 C 0.21978 0.50956 0.1861 0.0
H426 H 0.2981 0.45802 0.23553 0.0
H427 H 0.25267 0.46627 0.12592 0.0
S428 S 0.19698 0.56914 0.36347 0.0
N429 N 0.23541 0.54562 0.39013 0.0
N430 N 0.18688 0.5548 0.27128 0.0
C431 C 0.2152 0.52937 0.25879 0.0
C432 C 0.24147 0.52441 0.32301 0.0
C433 C 1.01172 0.27922 0.25218 0.0
C434 C 0.98071 0.25521 0.23371 0.0
C435 C 1.01108 0.30309 0.32044 0.0
C436 C 0.97956 0.30369 0.37353 0.0
H437 H 0.03583 0.28106 0.21146 0.0
H438 H 0.03468 0.3226 0.32917 0.0
S439 S 0.89387 0.24151 0.35915 0.0
N440 N 0.91955 0.23042 0.27928 0.0
N441 N 0.91851 0.27447 0.40705 0.0
C442 C 0.94964 0.27775 0.35854 0.0
C443 C 0.95016 0.25382 0.28889 0.0
C444 C 0.81767 1.00866 0.24758 0.0
C445 C 0.79101 0.97863 0.24331 0.0
C446 C 0.84495 1.01042 0.30922 0.0
C447 C 0.84704 0.98228 0.37004 0.0
H448 H 0.81675 0.03187 0.20452 0.0
H449 H 0.8638 0.03492 0.31045 0.0
S450 S 0.78712 0.89502 0.38138 0.0
N451 N 0.77096 0.918 0.3017 0.0
N452 N 0.82208 0.92151 0.41729 0.0
C453 C 0.82212 0.95089 0.36387 0.0
C454 C 0.79422 0.94904 0.3008 0.0
C455 C 0.49901 0.81087 0.17548 0.0
C456 C 0.52642 0.8146 0.23656 0.0
C457 C 0.50425 0.78583 0.11108 0.0
C458 C 0.53703 0.76321 0.10528 0.0
H459 H 0.47228 0.82588 0.17951 0.0
H460 H 0.48122 0.78252 0.06843 0.0
S461 S 0.62063 0.76765 0.24123 0.0
N462 N 0.59005 0.79774 0.28079 0.0
N463 N 0.59985 0.75049 0.15991 0.0
C464 C 0.56631 0.76941 0.1616 0.0
C465 C 0.56101 0.79513 0.22722 0.0
C466 C 0.71701 0.48572 0.16834 0.0
C467 C 0.7148 0.51206 0.23181 0.0
C468 C 0.74048 0.49235 0.10108 0.0
C469 C 0.76322 0.52545 0.09449 0.0
H470 H 0.70188 0.45882 0.17225 0.0
H471 H 0.74263 0.47001 0.05658 0.0
S472 S 0.76286 0.60646 0.23752 0.0
N473 N 0.73343 0.57499 0.27846 0.0
N474 N 0.77784 0.58727 0.15257 0.0
C475 C 0.75863 0.55359 0.15396 0.0
C476 C 0.73443 0.54692 0.22246 0.0
C477 C 1.00338 0.80401 0.27812 0.0
C478 C 0.96828 0.82227 0.26838 0.0
C479 C 1.00883 0.77719 0.33971 0.0
C480 C 0.97943 0.76732 0.3943 0.0
H481 H 0.02733 0.81139 0.2397 0.0
H482 H 0.03684 0.76492 0.34582 0.0
S483 S 0.88084 0.80415 0.39035 0.0
N484 N 0.90258 0.82635 0.31515 0.0
N485 N 0.91307 0.77613 0.43079 0.0
C486 C 0.94362 0.78392 0.38283 0.0
C487 C 0.93801 0.81133 0.32005 0.0
C488 C 0.52758 0.94944 0.05756 0.0
C489 C 0.50654 0.98252 0.04054 0.0
C490 C 0.5676 0.95026 0.06358 0.0
C491 C 0.58873 0.98415 0.0522 0.0
H492 H 0.51308 0.92242 0.06608 0.0
H493 H 0.58208 0.92395 0.07718 0.0
S494 S 0.54776 0.0792 1.00871 0.0
N495 N 0.51039 0.05057 0.01407 0.0
N496 N 0.58505 0.05206 0.02495 0.0
C497 C 0.56807 0.01752 0.03553 0.0
C498 C 0.52728 0.01674 0.02991 0.0
C499 C 0.49954 0.49663 0.94832 0.0
C500 C 0.53053 0.4754 0.97671 0.0
C501 C 0.5018 0.53629 0.93997 0.0
C502 C 0.53516 0.55666 0.95968 0.0
H503 H 0.47326 0.48254 0.93147 0.0
H504 H 0.47687 0.55107 0.91855 0.0
S505 S 0.62465 0.51477 0.03728 0.0
N506 N 0.59588 0.47797 0.02494 0.0
N507 N 0.60005 0.55233 1.00935 0.0
C508 C 0.56646 0.53583 0.98819 0.0
C509 C 0.56415 0.49535 0.9968 0.0
C510 C 0.99132 0.48033 0.9524 0.0
C511 C 0.97238 0.5149 0.96694 0.0
C512 C 0.03088 0.477 0.96227 0.0
C513 C 0.0533 0.50796 0.98787 0.0
H514 H 0.97552 0.45544 0.93318 0.0
H515 H 0.044 0.45 0.94864 0.0
S516 S 0.01792 0.60522 0.03223 0.0
N517 N 0.97947 0.58097 1.00694 0.0
N518 N 0.05327 0.5748 0.02659 0.0
C519 C 0.03463 0.54267 1.00332 0.0
C520 C 0.99443 0.54613 0.99241 0.0
C521 C 0.95251 0.07832 0.13043 0.0
C522 C 0.91988 0.09606 0.09915 0.0
C523 C 0.95749 0.0391 0.12533 0.0
C524 C 0.92966 0.01561 0.09078 0.0
H525 H 0.97563 0.09512 0.1551 0.0
H526 H 0.98369 0.02707 0.14794 0.0
S527 S 0.83655 0.04612 0.01056 0.0
N528 N 0.85761 0.08616 0.03837 0.0
N529 N 0.86641 1.01164 0.03307 0.0
C530 C 0.89545 0.03211 0.06542 0.0
C531 C 0.89063 0.07253 0.06881 0.0
C532 C 0.0699 0.90549 0.55002 0.0
C533 C 0.09338 0.93114 0.59257 0.0
C534 C 0.03025 0.91097 0.54548 0.0
C535 C 1.01325 0.9427 0.58181 0.0
H536 H 0.08244 0.88268 0.51547 0.0
H537 H 1.01317 0.89149 0.51012 0.0
S538 S 0.06087 1.01424 0.71097 0.0
N539 N 0.09549 0.98613 0.68096 0.0
N540 N 0.02177 0.99704 0.66964 0.0
C541 C 0.03596 0.96682 0.62883 0.0
C542 C 0.0758 0.96081 0.63511 0.0
C543 C 0.49903 0.99369 0.45098 0.0
C544 C 0.53337 0.97437 0.4657 0.0
C545 C 0.49619 0.03327 0.46024 0.0
C546 C 0.52748 0.0554 0.48509 0.0
H547 H 0.47381 0.97811 0.43277 0.0
H548 H 0.46919 0.0466 0.44745 0.0
S549 S 0.62454 0.01919 0.52827 0.0
N550 N 0.59973 0.98086 0.50439 0.0
N551 N 0.59455 0.05491 0.52196 0.0
C552 C 0.56213 0.03649 0.49965 0.0
C553 C 0.56504 0.99619 0.48983 0.0
C554 C 0.53681 0.48566 0.44585 0.0
C555 C 0.55715 0.51898 0.46588 0.0
C556 C 0.49714 0.48341 0.45372 0.0
C557 C 0.47584 0.5144 0.48182 0.0
H558 H 0.55159 0.46081 0.42403 0.0
H559 H 0.48306 0.45726 0.436 0.0
S560 S 0.5152 0.60813 0.54479 0.0
N561 N 0.55283 0.5836 0.51694 0.0
N562 N 0.47837 0.57948 0.53155 0.0
C563 C 0.4958 0.54784 0.50318 0.0
C564 C 0.53633 0.55012 0.49513 0.0
C565 C 0.93257 0.56909 0.5677 0.0
C566 C 0.9665 0.59051 0.56004 0.0
C567 C 0.93229 0.52909 0.56146 0.0
C568 C 0.96597 0.50839 0.54794 0.0
H569 H 0.90586 0.58329 0.57889 0.0
H570 H 0.90526 0.51431 0.56726 0.0
S571 S 0.06292 0.55044 0.52748 0.0
N572 N 0.03504 0.58746 0.54033 0.0
N573 N 0.03454 0.51284 0.52937 0.0
C574 C 1.00018 0.52943 0.54102 0.0
C575 C 1.00043 0.57019 0.54675 0.0
loop_
_geom_bond_atom_site_label_1
_geom_bond_atom_site_label_2
_geom_bond_distance
_geom_bond_site_symmetry_2
_ccdc_geom_bond_type
C0 O2 1.247 . S
C0 O4 1.258 1_545 S
C1 O8 1.247 1_556 S
C1 O9 1.258 1_565 S
O2 C0 1.247 . S
O2 Zn3 2.028 . S
Zn3 O2 2.028 . S
Zn3 O7 2.035 . S
Zn3 O9 2.035 1_554 S
Zn3 O10 2.028 . S
O4 C0 1.258 1_565 S
O4 Zn5 2.035 . S
Zn5 O4 2.035 . S
Zn5 O6 2.028 . S
Zn5 O8 2.028 . S
Zn5 O11 2.035 . S
O6 Zn5 2.028 . S
O6 C12 1.247 1_565 S
O7 Zn3 2.035 . S
O7 C12 1.258 . S
O8 C1 1.247 1_554 S
O8 Zn5 2.028 . S
O9 C1 1.258 1_545 S
O9 Zn3 2.035 1_556 S
O10 Zn3 2.028 . S
O10 C13 1.247 1_545 S
O11 Zn5 2.035 . S
O11 C13 1.258 . S
C12 O6 1.247 1_545 S
C12 O7 1.258 . S
C13 O10 1.247 1_565 S
C13 O11 1.258 . S
C14 O16 1.247 . S
C14 O18 1.258 . S
C15 O22 1.247 . S
C15 O23 1.258 . S
O16 C14 1.247 . S
O16 Zn17 2.028 . S
Zn17 O16 2.028 . S
Zn17 O21 2.035 . S
Zn17 O23 2.035 . S
Zn17 O24 2.028 . S
O18 C14 1.258 . S
O18 Zn19 2.035 . S
Zn19 O18 2.035 . S
Zn19 O20 2.028 . S
Zn19 O22 2.028 . S
Zn19 O25 2.035 . S
O20 Zn19 2.028 . S
O20 C26 1.247 . S
O21 Zn17 2.035 . S
O21 C26 1.258 . S
O22 C15 1.247 . S
O22 Zn19 2.028 . S
O23 C15 1.258 . S
O23 Zn17 2.035 . S
O24 Zn17 2.028 . S
O24 C27 1.247 1_554 S
O25 Zn19 2.035 . S
O25 C27 1.258 1_554 S
C26 O20 1.247 . S
C26 O21 1.258 . S
C27 O24 1.247 1_556 S
C27 O25 1.258 1_556 S
C28 O30 1.247 . S
C28 O32 1.258 . S
C29 O36 1.247 . S
C29 O37 1.258 . S
O30 C28 1.247 . S
O30 Zn31 2.028 . S
Zn31 O30 2.028 . S
Zn31 O35 2.035 . S
Zn31 O37 2.035 . S
Zn31 O38 2.028 . S
O32 C28 1.258 . S
O32 Zn33 2.035 . S
Zn33 O32 2.035 . S
Zn33 O34 2.028 . S
Zn33 O36 2.028 . S
Zn33 O39 2.035 . S
O34 Zn33 2.028 . S
O34 C40 1.247 . S
O35 Zn31 2.035 . S
O35 C40 1.258 . S
O36 C29 1.247 . S
O36 Zn33 2.028 . S
O37 C29 1.258 . S
O37 Zn31 2.035 . S
O38 Zn31 2.028 . S
O38 C41 1.247 1_554 S
O39 Zn33 2.035 . S
O39 C41 1.258 1_554 S
C40 O34 1.247 . S
C40 O35 1.258 . S
C41 O38 1.247 1_556 S
C41 O39 1.258 1_556 S
C42 O44 1.247 . S
C42 O46 1.258 1_455 S
C43 O50 1.247 1_556 S
C43 O51 1.258 1_655 S
O44 C42 1.247 . S
O44 Zn45 2.028 . S
Zn45 O44 2.028 . S
Zn45 O49 2.035 . S
Zn45 O51 2.035 1_554 S
Zn45 O52 2.028 . S
O46 C42 1.258 1_655 S
O46 Zn47 2.035 . S
Zn47 O46 2.035 . S
Zn47 O48 2.028 . S
Zn47 O50 2.028 . S
Zn47 O53 2.035 . S
O48 Zn47 2.028 . S
O48 C54 1.247 1_655 S
O49 Zn45 2.035 . S
O49 C54 1.258 . S
O50 C43 1.247 1_554 S
O50 Zn47 2.028 . S
O51 C43 1.258 1_455 S
O51 Zn45 2.035 1_556 S
O52 Zn45 2.028 . S
O52 C55 1.247 1_455 S
O53 Zn47 2.035 . S
O53 C55 1.258 . S
C54 O48 1.247 1_455 S
C54 O49 1.258 . S
C55 O52 1.247 1_655 S
C55 O53 1.258 . S
C56 O58 1.247 . S
C56 O60 1.258 1_565 S
C57 O64 1.247 . S
C57 O65 1.258 1_545 S
O58 C56 1.247 . S
O58 Zn59 2.028 . S
Zn59 O58 2.028 . S
Zn59 O63 2.035 . S
Zn59 O65 2.035 . S
Zn59 O66 2.028 . S
O60 C56 1.258 1_545 S
O60 Zn61 2.035 . S
Zn61 O60 2.035 . S
Zn61 O62 2.028 . S
Zn61 O64 2.028 . S
Zn61 O67 2.035 . S
O62 Zn61 2.028 . S
O62 C68 1.247 1_545 S
O63 Zn59 2.035 . S
O63 C68 1.258 . S
O64 C57 1.247 . S
O64 Zn61 2.028 . S
O65 C57 1.258 1_565 S
O65 Zn59 2.035 . S
O66 Zn59 2.028 . S
O66 C69 1.247 1_565 S
O67 Zn61 2.035 . S
O67 C69 1.258 . S
C68 O62 1.247 1_565 S
C68 O63 1.258 . S
C69 O66 1.247 1_545 S
C69 O67 1.258 . S
C70 O72 1.247 . S
C70 O74 1.258 . S
C71 O78 1.247 . S
C71 O79 1.258 . S
O72 C70 1.247 . S
O72 Zn73 2.028 . S
Zn73 O72 2.028 . S
Zn73 O77 2.035 . S
Zn73 O79 2.035 . S
Zn73 O80 2.028 . S
O74 C70 1.258 . S
O74 Zn75 2.035 . S
Zn75 O74 2.035 . S
Zn75 O76 2.028 . S
Zn75 O78 2.028 . S
Zn75 O81 2.035 . S
O76 Zn75 2.028 . S
O76 C82 1.247 . S
O77 Zn73 2.035 . S
O77 C82 1.258 . S
O78 C71 1.247 . S
O78 Zn75 2.028 . S
O79 C71 1.258 . S
O79 Zn73 2.035 . S
O80 Zn73 2.028 . S
O80 C83 1.247 . S
O81 Zn75 2.035 . S
O81 C83 1.258 . S
C82 O76 1.247 . S
C82 O77 1.258 . S
C83 O80 1.247 . S
C83 O81 1.258 . S
C84 O86 1.247 . S
C84 O88 1.258 . S
C85 O92 1.247 . S
C85 O93 1.258 . S
O86 C84 1.247 . S
O86 Zn87 2.028 . S
Zn87 O86 2.028 . S
Zn87 O91 2.035 . S
Zn87 O93 2.035 . S
Zn87 O94 2.028 . S
O88 C84 1.258 . S
O88 Zn89 2.035 . S
Zn89 O88 2.035 . S
Zn89 O90 2.028 . S
Zn89 O92 2.028 . S
Zn89 O95 2.035 . S
O90 Zn89 2.028 . S
O90 C96 1.247 . S
O91 Zn87 2.035 . S
O91 C96 1.258 . S
O92 C85 1.247 . S
O92 Zn89 2.028 . S
O93 C85 1.258 . S
O93 Zn87 2.035 . S
O94 Zn87 2.028 . S
O94 C97 1.247 . S
O95 Zn89 2.035 . S
O95 C97 1.258 . S
C96 O90 1.247 . S
C96 O91 1.258 . S
C97 O94 1.247 . S
C97 O95 1.258 . S
C98 O100 1.247 . S
C98 O102 1.258 1_655 S
C99 O106 1.247 . S
C99 O107 1.258 1_455 S
O100 C98 1.247 . S
O100 Zn101 2.028 . S
Zn101 O100 2.028 . S
Zn101 O105 2.035 . S
Zn101 O107 2.035 . S
Zn101 O108 2.028 . S
O102 C98 1.258 1_455 S
O102 Zn103 2.035 . S
Zn103 O102 2.035 . S
Zn103 O104 2.028 . S
Zn103 O106 2.028 . S
Zn103 O109 2.035 . S
O104 Zn103 2.028 . S
O104 C110 1.247 1_455 S
O105 Zn101 2.035 . S
O105 C110 1.258 . S
O106 C99 1.247 . S
O106 Zn103 2.028 . S
O107 C99 1.258 1_655 S
O107 Zn101 2.035 . S
O108 Zn101 2.028 . S
O108 C111 1.247 1_655 S
O109 Zn103 2.035 . S
O109 C111 1.258 . S
C110 O104 1.247 1_655 S
C110 O105 1.258 . S
C111 O108 1.247 1_455 S
C111 O109 1.258 . S
C112 O114 1.247 1_565 S
C112 O116 1.258 . S
C113 O120 1.247 1_545 S
C113 O121 1.258 1_554 S
O114 C112 1.247 1_545 S
O114 Zn115 2.028 . S
Zn115 O114 2.028 . S
Zn115 O119 2.035 . S
Zn115 O121 2.035 . S
Zn115 O122 2.028 . S
O116 C112 1.258 . S
O116 Zn117 2.035 . S
Zn117 O116 2.035 . S
Zn117 O118 2.028 . S
Zn117 O120 2.028 1_556 S
Zn117 O123 2.035 . S
O118 Zn117 2.028 . S
O118 C124 1.247 . S
O119 Zn115 2.035 . S
O119 C124 1.258 1_545 S
O120 C113 1.247 1_565 S
O120 Zn117 2.028 1_554 S
O121 C113 1.258 1_556 S
O121 Zn115 2.035 . S
O122 Zn115 2.028 . S
O122 C125 1.247 . S
O123 Zn117 2.035 . S
O123 C125 1.258 1_565 S
C124 O118 1.247 . S
C124 O119 1.258 1_565 S
C125 O122 1.247 . S
C125 O123 1.258 1_545 S
C126 O128 1.247 . S
C126 O130 1.258 . S
C127 O134 1.247 . S
C127 O135 1.258 . S
O128 C126 1.247 . S
O128 Zn129 2.028 . S
Zn129 O128 2.028 . S
Zn129 O133 2.035 . S
Zn129 O135 2.035 . S
Zn129 O136 2.028 . S
O130 C126 1.258 . S
O130 Zn131 2.035 . S
Zn131 O130 2.035 . S
Zn131 O132 2.028 . S
Zn131 O134 2.028 . S
Zn131 O137 2.035 . S
O132 Zn131 2.028 . S
O132 C138 1.247 . S
O133 Zn129 2.035 . S
O133 C138 1.258 . S
O134 C127 1.247 . S
O134 Zn131 2.028 . S
O135 C127 1.258 . S
O135 Zn129 2.035 . S
O136 Zn129 2.028 . S
O136 C139 1.247 1_556 S
O137 Zn131 2.035 . S
O137 C139 1.258 1_556 S
C138 O132 1.247 . S
C138 O133 1.258 . S
C139 O136 1.247 1_554 S
C139 O137 1.258 1_554 S
C140 O142 1.247 1_554 S
C140 O144 1.258 1_554 S
C141 O148 1.247 . S
C141 O149 1.258 . S
O142 C140 1.247 1_556 S
O142 Zn143 2.028 . S
Zn143 O142 2.028 . S
Zn143 O147 2.035 . S
Zn143 O149 2.035 . S
Zn143 O150 2.028 . S
O144 C140 1.258 1_556 S
O144 Zn145 2.035 . S
Zn145 O144 2.035 . S
Zn145 O146 2.028 . S
Zn145 O148 2.028 . S
Zn145 O151 2.035 . S
O146 Zn145 2.028 . S
O146 C152 1.247 . S
O147 Zn143 2.035 . S
O147 C152 1.258 . S
O148 C141 1.247 . S
O148 Zn145 2.028 . S
O149 C141 1.258 . S
O149 Zn143 2.035 . S
O150 Zn143 2.028 . S
O150 C153 1.247 . S
O151 Zn145 2.035 . S
O151 C153 1.258 . S
C152 O146 1.247 . S
C152 O147 1.258 . S
C153 O150 1.247 . S
C153 O151 1.258 . S
C154 O156 1.247 1_554 S
C154 O158 1.258 1_455 S
C155 O162 1.247 . S
C155 O163 1.258 1_655 S
O156 C154 1.247 1_556 S
O156 Zn157 2.028 . S
Zn157 O156 2.028 . S
Zn157 O161 2.035 . S
Zn157 O163 2.035 . S
Zn157 O164 2.028 . S
O158 C154 1.258 1_655 S
O158 Zn159 2.035 1_554 S
Zn159 O158 2.035 1_556 S
Zn159 O160 2.028 . S
Zn159 O162 2.028 . S
Zn159 O165 2.035 . S
O160 Zn159 2.028 . S
O160 C166 1.247 1_655 S
O161 Zn157 2.035 . S
O161 C166 1.258 . S
O162 C155 1.247 . S
O162 Zn159 2.028 . S
O163 C155 1.258 1_455 S
O163 Zn157 2.035 . S
O164 Zn157 2.028 . S
O164 C167 1.247 1_455 S
O165 Zn159 2.035 . S
O165 C167 1.258 . S
C166 O160 1.247 1_455 S
C166 O161 1.258 . S
C167 O164 1.247 1_655 S
C167 O165 1.258 . S
C168 O170 1.247 . S
C168 O172 1.258 1_545 S
C169 O176 1.247 . S
C169 O177 1.258 1_565 S
O170 C168 1.247 . S
O170 Zn171 2.028 . S
Zn171 O170 2.028 . S
Zn171 O175 2.035 . S
Zn171 O177 2.035 . S
Zn171 O178 2.028 . S
O172 C168 1.258 1_565 S
O172 Zn173 2.035 . S
Zn173 O172 2.035 . S
Zn173 O174 2.028 . S
Zn173 O176 2.028 . S
Zn173 O179 2.035 . S
O174 Zn173 2.028 . S
O174 C180 1.247 1_565 S
O175 Zn171 2.035 . S
O175 C180 1.258 . S
O176 C169 1.247 . S
O176 Zn173 2.028 . S
O177 C169 1.258 1_545 S
O177 Zn171 2.035 . S
O178 Zn171 2.028 . S
O178 C181 1.247 1_545 S
O179 Zn173 2.035 . S
O179 C181 1.258 . S
C180 O174 1.247 1_545 S
C180 O175 1.258 . S
C181 O178 1.247 1_565 S
C181 O179 1.258 . S
C182 O184 1.247 . S
C182 O186 1.258 . S
C183 O190 1.247 . S
C183 O191 1.258 . S
O184 C182 1.247 . S
O184 Zn185 2.028 . S
Zn185 O184 2.028 . S
Zn185 O189 2.035 . S
Zn185 O191 2.035 . S
Zn185 O192 2.028 . S
O186 C182 1.258 . S
O186 Zn187 2.035 . S
Zn187 O186 2.035 . S
Zn187 O188 2.028 . S
Zn187 O190 2.028 . S
Zn187 O193 2.035 . S
O188 Zn187 2.028 . S
O188 C194 1.247 . S
O189 Zn185 2.035 . S
O189 C194 1.258 . S
O190 C183 1.247 . S
O190 Zn187 2.028 . S
O191 C183 1.258 . S
O191 Zn185 2.035 . S
O192 Zn185 2.028 . S
O192 C195 1.247 . S
O193 Zn187 2.035 . S
O193 C195 1.258 . S
C194 O188 1.247 . S
C194 O189 1.258 . S
C195 O192 1.247 . S
C195 O193 1.258 . S
C196 O198 1.247 . S
C196 O200 1.258 . S
C197 O204 1.247 . S
C197 O205 1.258 . S
O198 C196 1.247 . S
O198 Zn199 2.028 . S
Zn199 O198 2.028 . S
Zn199 O203 2.035 . S
Zn199 O205 2.035 . S
Zn199 O206 2.028 . S
O200 C196 1.258 . S
O200 Zn201 2.035 . S
Zn201 O200 2.035 . S
Zn201 O202 2.028 . S
Zn201 O204 2.028 . S
Zn201 O207 2.035 . S
O202 Zn201 2.028 . S
O202 C208 1.247 . S
O203 Zn199 2.035 . S
O203 C208 1.258 . S
O204 C197 1.247 . S
O204 Zn201 2.028 . S
O205 C197 1.258 . S
O205 Zn199 2.035 . S
O206 Zn199 2.028 . S
O206 C209 1.247 . S
O207 Zn201 2.035 . S
O207 C209 1.258 . S
C208 O202 1.247 . S
C208 O203 1.258 . S
C209 O206 1.247 . S
C209 O207 1.258 . S
C210 O212 1.247 . S
C210 O214 1.258 1_655 S
C211 O218 1.247 . S
C211 O219 1.258 1_455 S
O212 C210 1.247 . S
O212 Zn213 2.028 . S
Zn213 O212 2.028 . S
Zn213 O217 2.035 . S
Zn213 O219 2.035 . S
Zn213 O220 2.028 . S
O214 C210 1.258 1_455 S
O214 Zn215 2.035 . S
Zn215 O214 2.035 . S
Zn215 O216 2.028 . S
Zn215 O218 2.028 . S
Zn215 O221 2.035 . S
O216 Zn215 2.028 . S
O216 C222 1.247 1_455 S
O217 Zn213 2.035 . S
O217 C222 1.258 . S
O218 C211 1.247 . S
O218 Zn215 2.028 . S
O219 C211 1.258 1_655 S
O219 Zn213 2.035 . S
O220 Zn213 2.028 . S
O220 C223 1.247 1_655 S
O221 Zn215 2.035 . S
O221 C223 1.258 . S
C222 O216 1.247 1_655 S
C222 O217 1.258 . S
C223 O220 1.247 1_455 S
C223 O221 1.258 . S
C224 C225 1.369 . S
C224 C226 1.419 . S
C224 H228 0.930 . S
C225 C224 1.369 . S
C225 C234 1.429 . S
C226 C224 1.419 . S
C226 C227 1.363 . S
C226 H229 0.929 . S
C227 C226 1.363 . S
C227 C233 1.428 . S
H228 C224 0.930 . S
H229 C226 0.929 . S
S230 N231 1.613 . S
S230 N232 1.610 . S
N231 S230 1.613 . S
N231 C234 1.350 . S
N232 S230 1.610 . S
N232 C233 1.351 . S
C233 C227 1.428 . S
C233 N232 1.351 . S
C233 C234 1.434 . S
C234 C225 1.429 . S
C234 N231 1.350 . S
C234 C233 1.434 . S
C235 C236 1.369 . S
C235 C237 1.419 . S
C235 H239 0.930 . S
C236 C235 1.369 . S
C236 C245 1.429 . S
C237 C235 1.419 . S
C237 C238 1.363 . S
C237 H240 0.929 . S
C238 C237 1.363 . S
C238 C244 1.428 . S
H239 C235 0.930 . S
H240 C237 0.929 . S
S241 N242 1.613 . S
S241 N243 1.610 . S
N242 S241 1.613 . S
N242 C245 1.350 . S
N243 S241 1.610 . S
N243 C244 1.351 . S
C244 C238 1.428 . S
C244 N243 1.351 . S
C244 C245 1.434 . S
C245 C236 1.429 . S
C245 N242 1.350 . S
C245 C244 1.434 . S
C246 C247 1.369 . S
C246 C248 1.419 . S
C246 H250 0.930 . S
C247 C246 1.369 . S
C247 C256 1.429 . S
C248 C246 1.419 . S
C248 C249 1.363 . S
C248 H251 0.929 . S
C249 C248 1.363 . S
C249 C255 1.428 . S
H250 C246 0.930 . S
H251 C248 0.929 . S
S252 N253 1.613 1_455 S
S252 N254 1.610 . S
N253 S252 1.613 1_655 S
N253 C256 1.350 . S
N254 S252 1.610 . S
N254 C255 1.351 1_455 S
C255 C249 1.428 . S
C255 N254 1.351 1_655 S
C255 C256 1.434 . S
C256 C247 1.429 . S
C256 N253 1.350 . S
C256 C255 1.434 . S
C257 C258 1.369 . S
C257 C259 1.419 . S
C257 H261 0.930 . S
C258 C257 1.369 . S
C258 C267 1.429 . S
C259 C257 1.419 . S
C259 C260 1.363 . S
C259 H262 0.929 . S
C260 C259 1.363 . S
C260 C266 1.428 . S
H261 C257 0.930 . S
H262 C259 0.929 . S
S263 N264 1.613 1_545 S
S263 N265 1.610 . S
N264 S263 1.613 1_565 S
N264 C267 1.350 . S
N265 S263 1.610 . S
N265 C266 1.351 1_545 S
C266 C260 1.428 . S
C266 N265 1.351 1_565 S
C266 C267 1.434 . S
C267 C258 1.429 . S
C267 N264 1.350 . S
C267 C266 1.434 . S
C268 C269 1.369 . S
C268 C270 1.419 . S
C268 H272 0.930 1_565 S
C269 C268 1.369 . S
C269 C278 1.429 . S
C270 C268 1.419 . S
C270 C271 1.363 . S
C270 H273 0.929 . S
C271 C270 1.363 . S
C271 C277 1.428 . S
H272 C268 0.930 1_545 S
H273 C270 0.929 . S
S274 N275 1.613 . S
S274 N276 1.610 . S
N275 S274 1.613 . S
N275 C278 1.350 . S
N276 S274 1.610 . S
N276 C277 1.351 . S
C277 C271 1.428 . S
C277 N276 1.351 . S
C277 C278 1.434 . S
C278 C269 1.429 . S
C278 N275 1.350 . S
C278 C277 1.434 . S
C279 C280 1.369 . S
C279 C281 1.419 . S
C279 H283 0.930 . S
C280 C279 1.369 . S
C280 C289 1.429 . S
C281 C279 1.419 . S
C281 C282 1.363 . S
C281 H284 0.929 . S
C282 C281 1.363 . S
C282 C288 1.428 . S
H283 C279 0.930 . S
H284 C281 0.929 . S
S285 N286 1.613 . S
S285 N287 1.610 . S
N286 S285 1.613 . S
N286 C289 1.350 . S
N287 S285 1.610 . S
N287 C288 1.351 . S
C288 C282 1.428 . S
C288 N287 1.351 . S
C288 C289 1.434 . S
C289 C280 1.429 . S
C289 N286 1.350 . S
C289 C288 1.434 . S
C290 C291 1.369 . S
C290 C292 1.419 . S
C290 H294 0.930 . S
C291 C290 1.369 . S
C291 C300 1.429 . S
C292 C290 1.419 . S
C292 C293 1.363 . S
C292 H295 0.929 . S
C293 C292 1.363 . S
C293 C299 1.428 . S
H294 C290 0.930 . S
H295 C292 0.929 . S
S296 N297 1.613 . S
S296 N298 1.610 1_655 S
N297 S296 1.613 . S
N297 C300 1.350 1_655 S
N298 S296 1.610 1_455 S
N298 C299 1.351 . S
C299 C293 1.428 . S
C299 N298 1.351 . S
C299 C300 1.434 . S
C300 C291 1.429 . S
C300 N297 1.350 1_455 S
C300 C299 1.434 . S
C301 C302 1.369 . S
C301 C303 1.419 . S
C301 H305 0.930 . S
C302 C301 1.369 . S
C302 C311 1.429 . S
C303 C301 1.419 . S
C303 C304 1.363 . S
C303 H306 0.929 . S
C304 C303 1.363 . S
C304 C310 1.428 . S
H305 C301 0.930 . S
H306 C303 0.929 . S
S307 N308 1.613 1_565 S
S307 N309 1.610 1_455 S
N308 S307 1.613 1_545 S
N308 C311 1.350 1_455 S
N309 S307 1.610 1_655 S
N309 C310 1.351 1_565 S
C310 C304 1.428 . S
C310 N309 1.351 1_545 S
C310 C311 1.434 . S
C311 C302 1.429 . S
C311 N308 1.350 1_655 S
C311 C310 1.434 . S
C312 C313 1.369 . S
C312 C314 1.419 . S
C312 H316 0.930 . S
C313 C312 1.369 . S
C313 C322 1.429 1_565 S
C314 C312 1.419 . S
C314 C315 1.363 . S
C314 H317 0.929 . S
C315 C314 1.363 . S
C315 C321 1.428 1_565 S
H316 C312 0.930 . S
H317 C314 0.929 . S
S318 N319 1.613 . S
S318 N320 1.610 . S
N319 S318 1.613 . S
N319 C322 1.350 . S
N320 S318 1.610 . S
N320 C321 1.351 . S
C321 C315 1.428 1_545 S
C321 N320 1.351 . S
C321 C322 1.434 . S
C322 C313 1.429 1_545 S
C322 N319 1.350 . S
C322 C321 1.434 . S
C323 C324 1.369 . S
C323 C325 1.419 . S
C323 H327 0.930 . S
C324 C323 1.369 . S
C324 C333 1.429 . S
C325 C323 1.419 . S
C325 C326 1.363 . S
C325 H328 0.929 . S
C326 C325 1.363 . S
C326 C332 1.428 . S
H327 C323 0.930 . S
H328 C325 0.929 . S
S329 N330 1.613 . S
S329 N331 1.610 . S
N330 S329 1.613 . S
N330 C333 1.350 . S
N331 S329 1.610 . S
N331 C332 1.351 . S
C332 C326 1.428 . S
C332 N331 1.351 . S
C332 C333 1.434 . S
C333 C324 1.429 . S
C333 N330 1.350 . S
C333 C332 1.434 . S
C334 C335 1.369 . S
C334 C336 1.419 . S
C334 H338 0.930 . S
C335 C334 1.369 . S
C335 C344 1.429 . S
C336 C334 1.419 . S
C336 C337 1.363 . S
C336 H339 0.929 . S
C337 C336 1.363 . S
C337 C343 1.428 . S
H338 C334 0.930 . S
H339 C336 0.929 . S
S340 N341 1.613 . S
S340 N342 1.610 . S
N341 S340 1.613 . S
N341 C344 1.350 . S
N342 S340 1.610 . S
N342 C343 1.351 . S
C343 C337 1.428 . S
C343 N342 1.351 . S
C343 C344 1.434 . S
C344 C335 1.429 . S
C344 N341 1.350 . S
C344 C343 1.434 . S
C345 C346 1.369 1_455 S
C345 C347 1.419 . S
C345 H349 0.930 . S
C346 C345 1.369 1_655 S
C346 C355 1.429 . S
C347 C345 1.419 . S
C347 C348 1.363 1_455 S
C347 H350 0.929 . S
C348 C347 1.363 1_655 S
C348 C354 1.428 . S
H349 C345 0.930 . S
H350 C347 0.929 . S
S351 N352 1.613 . S
S351 N353 1.610 . S
N352 S351 1.613 . S
N352 C355 1.350 . S
N353 S351 1.610 . S
N353 C354 1.351 . S
C354 C348 1.428 . S
C354 N353 1.351 . S
C354 C355 1.434 . S
C355 C346 1.429 . S
C355 N352 1.350 . S
C355 C354 1.434 . S
C356 C357 1.369 1_565 S
C356 C358 1.419 . S
C356 H360 0.930 . S
C357 C356 1.369 1_545 S
C357 C366 1.429 . S
C358 C356 1.419 . S
C358 C359 1.363 1_565 S
C358 H361 0.929 . S
C359 C358 1.363 1_545 S
C359 C365 1.428 . S
H360 C356 0.930 . S
H361 C358 0.929 . S
S362 N363 1.613 . S
S362 N364 1.610 . S
N363 S362 1.613 . S
N363 C366 1.350 . S
N364 S362 1.610 . S
N364 C365 1.351 . S
C365 C359 1.428 . S
C365 N364 1.351 . S
C365 C366 1.434 . S
C366 C357 1.429 . S
C366 N363 1.350 . S
C366 C365 1.434 . S
C367 C368 1.369 . S
C367 C369 1.419 . S
C367 H371 0.930 . S
C368 C367 1.369 . S
C368 C377 1.429 . S
C369 C367 1.419 . S
C369 C370 1.363 . S
C369 H372 0.929 . S
C370 C369 1.363 . S
C370 C376 1.428 . S
H371 C367 0.930 . S
H372 C369 0.929 . S
S373 N374 1.613 . S
S373 N375 1.610 . S
N374 S373 1.613 . S
N374 C377 1.350 . S
N375 S373 1.610 . S
N375 C376 1.351 . S
C376 C370 1.428 . S
C376 N375 1.351 . S
C376 C377 1.434 . S
C377 C368 1.429 . S
C377 N374 1.350 . S
C377 C376 1.434 . S
C378 C379 1.369 . S
C378 C380 1.419 . S
C378 H382 0.930 . S
C379 C378 1.369 . S
C379 C388 1.429 . S
C380 C378 1.419 . S
C380 C381 1.363 . S
C380 H383 0.929 . S
C381 C380 1.363 . S
C381 C387 1.428 . S
H382 C378 0.930 . S
H383 C380 0.929 . S
S384 N385 1.613 . S
S384 N386 1.610 . S
N385 S384 1.613 . S
N385 C388 1.350 . S
N386 S384 1.610 . S
N386 C387 1.351 . S
C387 C381 1.428 . S
C387 N386 1.351 . S
C387 C388 1.434 . S
C388 C379 1.429 . S
C388 N385 1.350 . S
C388 C387 1.434 . S
C389 C390 1.369 . S
C389 C391 1.419 . S
C389 H393 0.930 . S
C390 C389 1.369 . S
C390 C399 1.429 1_455 S
C391 C389 1.419 . S
C391 C392 1.363 . S
C391 H394 0.929 . S
C392 C391 1.363 . S
C392 C398 1.428 1_455 S
H393 C389 0.930 . S
H394 C391 0.929 . S
S395 N396 1.613 . S
S395 N397 1.610 . S
N396 S395 1.613 . S
N396 C399 1.350 . S
N397 S395 1.610 . S
N397 C398 1.351 . S
C398 C392 1.428 1_655 S
C398 N397 1.351 . S
C398 C399 1.434 . S
C399 C390 1.429 1_655 S
C399 N396 1.350 . S
C399 C398 1.434 . S
C400 C401 1.369 . S
C400 C402 1.419 . S
C400 H404 0.930 . S
C401 C400 1.369 . S
C401 C410 1.429 1_545 S
C402 C400 1.419 . S
C402 C403 1.363 . S
C402 H405 0.929 . S
C403 C402 1.363 . S
C403 C409 1.440 . S
H404 C400 0.930 . S
H405 C402 0.929 . S
S406 N407 1.613 . S
S406 N408 1.610 . S
N407 S406 1.613 . S
N407 C410 1.350 . S
N408 S406 1.610 . S
N408 C409 1.342 1_565 S
C409 C403 1.440 . S
C409 N408 1.342 1_545 S
C409 C410 1.430 1_545 S
C410 C401 1.429 1_565 S
C410 N407 1.350 . S
C410 C409 1.430 1_565 S
C411 C412 1.369 . S
C411 C413 1.419 . S
C411 H415 0.930 . S
C412 C411 1.369 . S
C412 C421 1.429 . S
C413 C411 1.419 . S
C413 C414 1.363 . S
C413 H416 0.929 . S
C414 C413 1.363 . S
C414 C420 1.428 . S
H415 C411 0.930 . S
H416 C413 0.929 . S
S417 N418 1.613 . S
S417 N419 1.610 . S
N418 S417 1.613 . S
N418 C421 1.350 . S
N419 S417 1.610 . S
N419 C420 1.351 . S
C420 C414 1.428 . S
C420 N419 1.351 . S
C420 C421 1.434 . S
C421 C412 1.429 . S
C421 N418 1.350 . S
C421 C420 1.434 . S
C422 C423 1.369 . S
C422 C424 1.419 . S
C422 H426 0.930 . S
C423 C422 1.369 . S
C423 C432 1.429 . S
C424 C422 1.419 . S
C424 C425 1.363 . S
C424 H427 0.929 . S
C425 C424 1.363 . S
C425 C431 1.428 . S
H426 C422 0.930 . S
H427 C424 0.929 . S
S428 N429 1.613 . S
S428 N430 1.610 . S
N429 S428 1.613 . S
N429 C432 1.350 . S
N430 S428 1.610 . S
N430 C431 1.351 . S
C431 C425 1.428 . S
C431 N430 1.351 . S
C431 C432 1.434 . S
C432 C423 1.429 . S
C432 N429 1.350 . S
C432 C431 1.434 . S
C433 C434 1.369 . S
C433 C435 1.419 . S
C433 H437 0.930 . S
C434 C433 1.369 . S
C434 C443 1.429 . S
C435 C433 1.419 . S
C435 C436 1.363 . S
C435 H438 0.929 . S
C436 C435 1.363 . S
C436 C442 1.428 . S
H437 C433 0.930 . S
H438 C435 0.929 . S
S439 N440 1.613 . S
S439 N441 1.610 . S
N440 S439 1.613 . S
N440 C443 1.350 . S
N441 S439 1.610 . S
N441 C442 1.351 . S
C442 C436 1.428 . S
C442 N441 1.351 . S
C442 C443 1.434 . S
C443 C434 1.429 . S
C443 N440 1.350 . S
C443 C442 1.434 . S
C444 C445 1.369 1_545 S
C444 C446 1.419 1_545 S
C444 H448 0.930 . S
C445 C444 1.369 1_565 S
C445 C454 1.429 . S
C446 C444 1.419 1_565 S
C446 C447 1.363 . S
C446 H449 0.929 1_565 S
C447 C446 1.363 . S
C447 C453 1.428 . S
H448 C444 0.930 . S
H449 C446 0.929 1_545 S
S450 N451 1.613 . S
S450 N452 1.610 . S
N451 S450 1.613 . S
N451 C454 1.350 . S
N452 S450 1.610 . S
N452 C453 1.351 . S
C453 C447 1.428 . S
C453 N452 1.351 . S
C453 C454 1.434 . S
C454 C445 1.429 . S
C454 N451 1.350 . S
C454 C453 1.434 . S
C455 C456 1.369 . S
C455 C457 1.419 . S
C455 H459 0.930 . S
C456 C455 1.369 . S
C456 C465 1.429 . S
C457 C455 1.419 . S
C457 C458 1.363 . S
C457 H460 0.929 . S
C458 C457 1.363 . S
C458 C464 1.428 . S
H459 C455 0.930 . S
H460 C457 0.929 . S
S461 N462 1.613 . S
S461 N463 1.610 . S
N462 S461 1.613 . S
N462 C465 1.350 . S
N463 S461 1.610 . S
N463 C464 1.351 . S
C464 C458 1.428 . S
C464 N463 1.351 . S
C464 C465 1.434 . S
C465 C456 1.429 . S
C465 N462 1.350 . S
C465 C464 1.434 . S
C466 C467 1.369 . S
C466 C468 1.419 . S
C466 H470 0.930 . S
C467 C466 1.369 . S
C467 C476 1.429 . S
C468 C466 1.419 . S
C468 C469 1.363 . S
C468 H471 0.929 . S
C469 C468 1.363 . S
C469 C475 1.428 . S
H470 C466 0.930 . S
H471 C468 0.929 . S
S472 N473 1.613 . S
S472 N474 1.610 . S
N473 S472 1.613 . S
N473 C476 1.350 . S
N474 S472 1.610 . S
N474 C475 1.351 . S
C475 C469 1.428 . S
C475 N474 1.351 . S
C475 C476 1.434 . S
C476 C467 1.429 . S
C476 N473 1.350 . S
C476 C475 1.434 . S
C477 C478 1.369 1_455 S
C477 C479 1.419 . S
C477 H481 0.930 . S
C478 C477 1.369 1_655 S
C478 C487 1.429 . S
C479 C477 1.419 . S
C479 C480 1.363 1_455 S
C479 H482 0.929 . S
C480 C479 1.363 1_655 S
C480 C486 1.428 . S
H481 C477 0.930 . S
H482 C479 0.929 . S
S483 N484 1.613 . S
S483 N485 1.610 . S
N484 S483 1.613 . S
N484 C487 1.350 . S
N485 S483 1.610 . S
N485 C486 1.351 . S
C486 C480 1.428 . S
C486 N485 1.351 . S
C486 C487 1.434 . S
C487 C478 1.429 . S
C487 N484 1.350 . S
C487 C486 1.434 . S
C488 C489 1.369 1_565 S
C488 C490 1.419 . S
C488 H492 0.930 . S
C489 C488 1.369 1_545 S
C489 C498 1.429 1_554 S
C490 C488 1.419 . S
C490 C491 1.384 1_554 S
C490 H493 0.929 . S
C491 C490 1.384 1_556 S
C491 C497 1.407 1_565 S
H492 C488 0.930 . S
H493 C490 0.929 . S
S494 N495 1.613 . S
S494 N496 1.610 . S
N495 S494 1.613 . S
N495 C498 1.350 . S
N496 S494 1.610 . S
N496 C497 1.351 . S
C497 C491 1.407 1_545 S
C497 N496 1.351 . S
C497 C498 1.434 . S
C498 C489 1.429 1_556 S
C498 N495 1.350 . S
C498 C497 1.434 . S
C499 C500 1.369 1_556 S
C499 C501 1.419 . S
C499 H503 0.930 . S
C500 C499 1.369 1_554 S
C500 C509 1.429 . S
C501 C499 1.419 . S
C501 C502 1.363 . S
C501 H504 0.929 . S
C502 C501 1.363 . S
C502 C508 1.428 1_556 S
H503 C499 0.930 . S
H504 C501 0.929 . S
S505 N506 1.613 . S
S505 N507 1.610 . S
N506 S505 1.613 . S
N506 C509 1.350 . S
N507 S505 1.610 . S
N507 C508 1.351 . S
C508 C502 1.428 1_554 S
C508 N507 1.351 . S
C508 C509 1.434 . S
C509 C500 1.429 . S
C509 N506 1.350 . S
C509 C508 1.434 . S
C510 C511 1.369 . S
C510 C512 1.419 1_655 S
C510 H514 0.930 . S
C511 C510 1.369 . S
C511 C520 1.429 1_556 S
C512 C510 1.419 1_455 S
C512 C513 1.363 1_556 S
C512 H515 0.929 . S
C513 C512 1.363 1_554 S
C513 C519 1.428 . S
H514 C510 0.930 . S
H515 C512 0.929 . S
S516 N517 1.613 1_455 S
S516 N518 1.610 . S
N517 S516 1.613 1_655 S
N517 C520 1.350 . S
N518 S516 1.610 . S
N518 C519 1.351 . S
C519 C513 1.428 . S
C519 N518 1.351 . S
C519 C520 1.434 1_455 S
C520 C511 1.429 1_554 S
C520 N517 1.350 . S
C520 C519 1.434 1_655 S
C521 C522 1.371 1_556 S
C521 C523 1.419 1_545 S
C521 H525 0.930 . S
C522 C521 1.371 1_554 S
C522 C531 1.427 1_455 S
C523 C521 1.419 1_565 S
C523 C524 1.343 1_455 S
C523 H526 0.929 . S
C524 C523 1.343 1_655 S
C524 C530 1.448 1_556 S
H525 C521 0.930 . S
H526 C523 0.929 . S
S527 N528 1.613 1_565 S
S527 N529 1.610 . S
N528 S527 1.613 1_545 S
N528 C531 1.350 . S
N529 S527 1.610 . S
N529 C530 1.351 . S
C530 C524 1.448 1_554 S
C530 N529 1.351 . S
C530 C531 1.434 1_565 S
C531 C522 1.427 1_655 S
C531 N528 1.350 . S
C531 C530 1.434 1_545 S
C532 C533 1.347 1_565 S
C532 C534 1.419 1_455 S
C532 H536 0.930 . S
C533 C532 1.347 1_545 S
C533 C542 1.451 . S
C534 C532 1.419 1_655 S
C534 C535 1.368 . S
C534 H537 0.929 . S
C535 C534 1.368 . S
C535 C541 1.423 1_565 S
H536 C532 0.930 . S
H537 C534 0.929 . S
S538 N539 1.613 . S
S538 N540 1.610 1_455 S
N539 S538 1.613 . S
N539 C542 1.350 . S
N540 S538 1.610 1_655 S
N540 C541 1.351 . S
C541 C535 1.423 1_545 S
C541 N540 1.351 . S
C541 C542 1.434 1_655 S
C542 C533 1.451 . S
C542 N539 1.350 . S
C542 C541 1.434 1_455 S
C543 C544 1.369 . S
C543 C545 1.419 1_565 S
C543 H547 0.930 . S
C544 C543 1.369 . S
C544 C553 1.429 . S
C545 C543 1.419 1_545 S
C545 C546 1.363 . S
C545 H548 0.929 . S
C546 C545 1.363 . S
C546 C552 1.428 . S
H547 C543 0.930 . S
H548 C545 0.929 . S
S549 N550 1.613 1_545 S
S549 N551 1.610 . S
N550 S549 1.613 1_565 S
N550 C553 1.350 . S
N551 S549 1.610 . S
N551 C552 1.351 . S
C552 C546 1.428 . S
C552 N551 1.351 . S
C552 C553 1.434 1_545 S
C553 C544 1.429 . S
C553 N550 1.350 . S
C553 C552 1.434 1_565 S
C554 C555 1.369 . S
C554 C556 1.419 . S
C554 H558 0.930 . S
C555 C554 1.369 . S
C555 C564 1.429 . S
C556 C554 1.419 . S
C556 C557 1.363 . S
C556 H559 0.929 . S
C557 C556 1.363 . S
C557 C563 1.428 . S
H558 C554 0.930 . S
H559 C556 0.929 . S
S560 N561 1.613 . S
S560 N562 1.610 . S
N561 S560 1.613 . S
N561 C564 1.350 . S
N562 S560 1.610 . S
N562 C563 1.351 . S
C563 C557 1.428 . S
C563 N562 1.351 . S
C563 C564 1.434 . S
C564 C555 1.429 . S
C564 N561 1.350 . S
C564 C563 1.434 . S
C565 C566 1.376 . S
C565 C567 1.419 . S
C565 H569 0.930 . S
C566 C565 1.376 . S
C566 C575 1.421 1_655 S
C567 C565 1.419 . S
C567 C568 1.363 1_655 S
C567 H570 0.929 . S
C568 C567 1.363 1_455 S
C568 C574 1.428 . S
H569 C565 0.930 . S
H570 C567 0.929 . S
S571 N572 1.613 . S
S571 N573 1.610 . S
N572 S571 1.613 . S
N572 C575 1.350 . S
N573 S571 1.610 . S
N573 C574 1.351 . S
C574 C568 1.428 . S
C574 N573 1.351 . S
C574 C575 1.434 . S
C575 C566 1.421 1_455 S
C575 N572 1.350 . S
C575 C574 1.434 . S
C225 C82 1.101 . S
C227 C0 1.113 . S
C236 C97 1.281 . S
C238 C26 1.280 . S
C247 C40 1.096 . S
C249 C98 1.120 . S
C258 C42 0.868 . S
C260 C56 0.874 . S
C269 C112 1.116 . S
C271 C194 1.092 . S
C280 C196 1.277 . S
C282 C138 1.286 . S
C291 C211 1.124 . S
C293 C141 1.091 . S
C302 C155 0.880 . S
C304 C180 0.868 . S
C313 C1 1.823 . S
C315 C168 1.835 1_565 S
C324 C182 1.931 . S
C326 C27 1.911 . S
C335 C41 1.994 . S
C337 C208 2.040 . S
C346 C43 1.881 . S
C348 C223 1.899 1_655 S
C357 C57 1.881 . S
C359 C124 1.902 1_545 S
C368 C83 1.988 . S
C370 C126 2.040 . S
C379 C96 1.911 . S
C381 C153 1.934 . S
C390 C99 1.824 . S
C392 C167 1.832 1_455 S
C401 C68 1.832 1_545 S
C403 C113 1.822 . S
C412 C70 1.932 . S
C414 C139 1.911 . S
C423 C85 2.041 . S
C425 C140 1.992 . S
C434 C154 1.876 . S
C436 C110 1.901 1_455 S
C445 C12 1.896 1_565 S
C447 C181 1.877 . S
C456 C195 1.992 . S
C458 C14 2.038 . S
C467 C197 1.911 . S
C469 C28 1.933 . S
C478 C54 1.830 1_655 S
C480 C210 1.828 . S
C489 C125 1.576 1_554 S
C491 C13 1.582 1_556 S
C500 C127 1.668 1_554 S
C502 C15 1.662 1_556 S
C511 C29 1.883 1_556 S
C513 C152 1.886 1_554 S
C522 C166 1.770 1_554 S
C524 C55 1.764 1_556 S
C533 C69 1.766 . S
C535 C169 1.765 . S
C544 C183 1.883 . S
C546 C71 1.886 . S
C555 C209 1.663 . S
C557 C84 1.666 . S
C566 C222 1.577 . S
C568 C111 1.582 . S
