# Generated by pormake.
# Topology mok, (4)-cn, num edge types: 1
# Building blocks:
#     Node 0, Type 0, BuildingBlock: GALJAG_clean_sbu_0, # of connection points: 4
#     Node 1, Type 0, BuildingBlock: GALJAG_clean_sbu_0, # of connection points: 4
#     Node 2, Type 0, BuildingBlock: GALJAG_clean_sbu_0, # of connection points: 4
#     Node 3, Type 0, BuildingBlock: GALJAG_clean_sbu_0, # of connection points: 4
#     Node 4, Type 0, BuildingBlock: GALJAG_clean_sbu_0, # of connection points: 4
#     Node 5, Type 0, BuildingBlock: GALJAG_clean_sbu_0, # of connection points: 4
#     Node 6, Type 0, BuildingBlock: GALJAG_clean_sbu_0, # of connection points: 4
#     Node 7, Type 0, BuildingBlock: GALJAG_clean_sbu_0, # of connection points: 4
#     Edge 8, Type (0, 0), BuildingBlock: ZUJKAS_clean_linker_0, # of connection points: 2
#     Edge 9, Type (0, 0), BuildingBlock: ZUJKAS_clean_linker_0, # of connection points: 2
#     Edge 10, Type (0, 0), BuildingBlock: ZUJKAS_clean_linker_0, # of connection points: 2
#     Edge 11, Type (0, 0), BuildingBlock: ZUJKAS_clean_linker_0, # of connection points: 2
#     Edge 12, Type (0, 0), BuildingBlock: ZUJKAS_clean_linker_0, # of connection points: 2
#     Edge 13, Type (0, 0), BuildingBlock: ZUJKAS_clean_linker_0, # of connection points: 2
#     Edge 14, Type (0, 0), BuildingBlock: ZUJKAS_clean_linker_0, # of connection points: 2
#     Edge 15, Type (0, 0), BuildingBlock: ZUJKAS_clean_linker_0, # of connection points: 2
#     Edge 16, Type (0, 0), BuildingBlock: ZUJKAS_clean_linker_0, # of connection points: 2
#     Edge 17, Type (0, 0), BuildingBlock: ZUJKAS_clean_linker_0, # of connection points: 2
#     Edge 18, Type (0, 0), BuildingBlock: ZUJKAS_clean_linker_0, # of connection points: 2
#     Edge 19, Type (0, 0), BuildingBlock: ZUJKAS_clean_linker_0, # of connection points: 2
#     Edge 20, Type (0, 0), BuildingBlock: ZUJKAS_clean_linker_0, # of connection points: 2
#     Edge 21, Type (0, 0), BuildingBlock: ZUJKAS_clean_linker_0, # of connection points: 2
#     Edge 22, Type (0, 0), BuildingBlock: ZUJKAS_clean_linker_0, # of connection points: 2
#     Edge 23, Type (0, 0), BuildingBlock: ZUJKAS_clean_linker_0, # of connection points: 2
# Relax obj value: 0.070
# Max RMSD: 0.103
# Mean RMSD: 0.103
data_MOF--net-mok--node1-GALJAG_clean_sbu_0--edge1-ZUJKAS_clean_linker_0
_symmetry_space_group_name_H-M    P1
_symmetry_Int_Tables_number       1
_symmetry_cell_setting            triclinic
loop_
_symmetry_equiv_pos_as_xyz
'x, y, z'
_cell_length_a     71.161916
_cell_length_b     18.027257
_cell_length_c     36.970947
_cell_angle_alpha  90.001391
_cell_angle_beta   90.024637
_cell_angle_gamma 90.005708
loop_
_atom_site_label
_atom_site_type_symbol
_atom_site_fract_x
_atom_site_fract_y
_atom_site_fract_z
_atom_type_partial_charge
In0 In 0.60838 0.31683 0.0137 0.0
O1 O 0.60033 0.40927 0.97422 0.0
O2 O 0.61592 0.3167 0.95443 0.0
C3 C 0.60085 0.36963 0.08005 0.0
C4 C 0.57936 0.2232 0.00569 0.0
C5 C 0.64547 0.29505 0.02163 0.0
O6 O 0.60236 0.41216 0.05297 0.0
O7 O 0.60307 0.30162 0.07334 0.0
O8 O 0.63421 0.24174 0.01641 0.0
O9 O 0.63793 0.35838 0.02304 0.0
C10 C 0.60805 0.37776 0.9475 0.0
O11 O 0.59587 0.19999 0.01151 0.0
O12 O 0.57775 0.29273 0.00355 0.0
In13 In 0.38466 0.67682 0.0159 0.0
O14 O 0.39756 0.79297 0.01398 0.0
O15 O 0.41561 0.70019 0.0224 0.0
C16 C 0.34745 0.69776 0.00984 0.0
C17 C 0.39117 0.61634 0.95073 0.0
C18 C 0.38585 0.62601 0.08409 0.0
O19 O 0.35885 0.75152 0.01193 0.0
O20 O 0.35491 0.63423 0.01061 0.0
O21 O 0.39204 0.58814 0.05784 0.0
O22 O 0.3791 0.68839 0.07571 0.0
C23 C 0.41414 0.76949 0.01872 0.0
O24 O 0.39118 0.57756 0.97928 0.0
O25 O 0.38784 0.68437 0.9554 0.0
In26 In 0.60942 0.68117 0.51159 0.0
O27 O 0.60145 0.58924 0.55139 0.0
O28 O 0.61568 0.68505 0.57136 0.0
C29 C 0.60263 0.62611 0.44539 0.0
C30 C 0.58027 0.77509 0.5168 0.0
C31 C 0.64672 0.70067 0.50637 0.0
O32 O 0.60265 0.58522 0.47322 0.0
O33 O 0.60606 0.69369 0.45123 0.0
O34 O 0.63555 0.75468 0.5106 0.0
O35 O 0.63897 0.63779 0.5044 0.0
C36 C 0.60834 0.62299 0.57832 0.0
O37 O 0.59682 0.79803 0.51108 0.0
O38 O 0.57871 0.7058 0.52026 0.0
In39 In 0.38534 0.31622 0.51789 0.0
O40 O 0.39814 0.19999 0.51451 0.0
O41 O 0.41573 0.29325 0.50434 0.0
C42 C 0.34855 0.28749 0.52573 0.0
C43 C 0.3931 0.36341 0.5852 0.0
C44 C 0.38469 0.38766 0.4541 0.0
O45 O 0.36003 0.23866 0.51492 0.0
O46 O 0.35573 0.34988 0.53281 0.0
O47 O 0.39352 0.41329 0.48102 0.0
O48 O 0.3762 0.32738 0.45967 0.0
C49 C 0.41439 0.22372 0.5069 0.0
O50 O 0.39082 0.40827 0.55923 0.0
O51 O 0.39156 0.29583 0.57693 0.0
In52 In 0.10983 0.81051 0.01463 0.0
O53 O 0.09631 0.69554 0.01454 0.0
O54 O 0.07861 0.79053 0.01915 0.0
C55 C 0.147 0.78645 0.00973 0.0
C56 C 0.10424 0.86891 0.94863 0.0
C57 C 0.10826 0.86375 0.08246 0.0
O58 O 0.13533 0.73358 0.01142 0.0
O59 O 0.13984 0.85046 0.01049 0.0
O60 O 0.10381 0.90313 0.05542 0.0
O61 O 0.11347 0.79864 0.07499 0.0
C62 C 0.07979 0.72076 0.01755 0.0
O63 O 0.10401 0.9086 0.97688 0.0
O64 O 0.1072 0.80081 0.954 0.0
In65 In 0.88309 0.18296 0.01651 0.0
O66 O 0.88859 0.08967 0.97588 0.0
O67 O 0.88198 0.19752 0.95591 0.0
C68 C 0.88811 0.12413 0.08257 0.0
C69 C 0.91328 0.27197 0.01561 0.0
C70 C 0.84586 0.20755 0.01935 0.0
O71 O 0.88872 0.08468 0.05427 0.0
O72 O 0.88498 0.19211 0.07723 0.0
O73 O 0.85762 0.26019 0.01943 0.0
O74 O 0.85295 0.14352 0.01777 0.0
C75 C 0.88606 0.13106 0.94864 0.0
O76 O 0.89674 0.29757 0.01733 0.0
O77 O 0.91441 0.20214 0.01431 0.0
In78 In 0.11101 0.18286 0.51583 0.0
O79 O 0.10449 0.08887 0.55557 0.0
O80 O 0.1091 0.19783 0.57625 0.0
C81 C 0.10903 0.12533 0.44889 0.0
C82 C 0.08121 0.27373 0.51264 0.0
C83 C 0.14831 0.2041 0.51994 0.0
O84 O 0.10494 0.08737 0.47661 0.0
O85 O 0.11405 0.19115 0.45526 0.0
O86 O 0.13697 0.25764 0.51619 0.0
O87 O 0.14076 0.14084 0.52159 0.0
C88 C 0.1054 0.13079 0.58301 0.0
O89 O 0.09784 0.29842 0.51453 0.0
O90 O 0.07983 0.20394 0.51214 0.0
In91 In 0.88444 0.81077 0.5161 0.0
O92 O 0.89839 0.6968 0.51786 0.0
O93 O 0.91582 0.79304 0.5159 0.0
C94 C 0.8472 0.78582 0.51585 0.0
C95 C 0.88806 0.86942 0.5825 0.0
C96 C 0.88812 0.86256 0.44836 0.0
O97 O 0.85897 0.73317 0.51577 0.0
O98 O 0.8543 0.84992 0.51627 0.0
O99 O 0.89004 0.9044 0.47562 0.0
O100 O 0.88439 0.79578 0.45557 0.0
C101 C 0.91488 0.72315 0.51707 0.0
O102 O 0.88955 0.90868 0.55425 0.0
O103 O 0.88477 0.80158 0.57696 0.0
H104 H 0.81863 0.10184 0.01724 0.0
H105 H 0.78463 0.11967 0.01935 0.0
H106 H 0.79261 0.35619 0.02806 0.0
H107 H 0.82677 0.33887 0.02536 0.0
H108 H 0.76286 0.18437 0.07318 0.0
H109 H 0.75605 0.33652 0.94311 0.0
H110 H 0.77707 0.28649 0.95545 0.0
H111 H 0.77247 0.3764 0.97449 0.0
C112 C 0.81317 0.15774 0.01948 0.0
C113 C 0.82534 0.21907 0.02092 0.0
C114 C 0.79374 0.16776 0.02076 0.0
C115 C 0.78612 0.23924 0.02339 0.0
C116 C 0.79823 0.30064 0.02532 0.0
H117 H 0.67179 0.40267 0.03134 0.0
H118 H 0.7059 0.38809 0.03382 0.0
C119 C 0.81771 0.29067 0.02395 0.0
C120 C 0.76548 0.24893 0.02442 0.0
H121 H 0.72861 0.3259 0.97884 0.0
C122 C 0.75534 0.21522 0.05255 0.0
C123 C 0.75575 0.28907 -0.0026 0.0
C124 C 0.76583 0.3237 0.9657 0.0
C125 C 0.73571 0.22127 0.05461 0.0
C126 C 0.72601 0.26127 0.02755 0.0
C127 C 0.73614 0.29531 -0.00046 0.0
C128 C 0.70532 0.26879 0.02774 0.0
C129 C 0.72554 0.18591 0.08597 0.0
C130 C 0.69372 0.20639 0.02344 0.0
C131 C 0.67419 0.21451 0.02199 0.0
C132 C 0.666 0.28522 0.02467 0.0
C133 C 0.67768 0.34744 0.02925 0.0
C134 C 0.69716 0.33928 0.03064 0.0
H135 H 0.73524 0.17254 0.1086 0.0
H136 H 0.71426 0.22292 0.09624 0.0
H137 H 0.7189 0.13348 0.07678 0.0
H138 H 0.6998 0.15162 0.02055 0.0
H139 H 0.66554 0.16566 0.01829 0.0
H140 H 0.17401 0.89284 0.00593 0.0
H141 H 0.20802 0.87564 0.00361 0.0
H142 H 0.20053 0.63833 0.007 0.0
H143 H 0.16633 0.65505 0.00897 0.0
H144 H 0.23036 0.8031 0.05554 0.0
H145 H 0.23611 0.67029 0.9203 0.0
H146 H 0.21533 0.71964 0.9347 0.0
H147 H 0.21976 0.6273 0.95084 0.0
C148 C 0.17957 0.83691 0.00596 0.0
C149 C 0.16752 0.77522 0.00756 0.0
C150 C 0.199 0.82725 0.00466 0.0
C151 C 0.20675 0.75579 0.00473 0.0
C152 C 0.19479 0.69393 0.00628 0.0
H153 H 0.32077 0.58971 0.00727 0.0
H154 H 0.28666 0.60521 0.00595 0.0
C155 C 0.17529 0.70356 0.0076 0.0
C156 C 0.22741 0.74657 0.00456 0.0
H157 H 0.26393 0.6769 0.95535 0.0
C158 C 0.23773 0.77574 0.0336 0.0
C159 C 0.23691 0.71074 0.9759 0.0
C160 C 0.22653 0.68066 0.94347 0.0
C161 C 0.25735 0.76912 0.03505 0.0
C162 C 0.26689 0.73365 0.00629 0.0
C163 C 0.25656 0.70427 0.97728 0.0
C164 C 0.28757 0.72515 0.0062 0.0
C165 C 0.26765 0.79863 0.06772 0.0
C166 C 0.29938 0.78757 0.00618 0.0
C167 C 0.3189 0.77892 0.00705 0.0
C168 C 0.32689 0.70767 0.00768 0.0
C169 C 0.31502 0.64534 0.0069 0.0
C170 C 0.29554 0.65404 0.0061 0.0
H171 H 0.25805 0.80708 0.09106 0.0
H172 H 0.27908 0.76033 0.07605 0.0
H173 H 0.27405 0.85298 0.0609 0.0
H174 H 0.29348 0.84295 0.00553 0.0
H175 H 0.32771 0.82792 0.00742 0.0
H176 H 0.82799 0.65453 0.51041 0.0
H177 H 0.7938 0.63781 0.50688 0.0
H178 H 0.78608 0.87435 0.51617 0.0
H179 H 0.82005 0.89157 0.51914 0.0
H180 H 0.76606 0.67929 0.55678 0.0
H181 H 0.75582 0.82326 0.42563 0.0
H182 H 0.77864 0.79379 0.44142 0.0
H183 H 0.76824 0.87766 0.45855 0.0
C184 C 0.81898 0.70287 0.51163 0.0
C185 C 0.82667 0.77436 0.5148 0.0
C186 C 0.79949 0.69328 0.5096 0.0
C187 C 0.78746 0.755 0.51056 0.0
C188 C 0.79513 0.82617 0.51449 0.0
H189 H 0.66718 0.82865 0.51239 0.0
H190 H 0.70152 0.8406 0.51331 0.0
C191 C 0.81455 0.83582 0.51642 0.0
C192 C 0.76685 0.7453 0.50829 0.0
H193 H 0.72819 0.79603 0.45945 0.0
C194 C 0.75778 0.70424 0.53536 0.0
C195 C 0.75612 0.77817 0.48033 0.0
C196 C 0.7652 0.82012 0.44963 0.0
C197 C 0.73816 0.69666 0.53573 0.0
C198 C 0.72742 0.73017 0.50797 0.0
C199 C 0.7365 0.77076 0.48076 0.0
C200 C 0.70673 0.72315 0.50658 0.0
C201 C 0.72903 0.6544 0.56627 0.0
C202 C 0.69839 0.65342 0.50177 0.0
C203 C 0.67886 0.64647 0.50121 0.0
C204 C 0.66733 0.70925 0.50527 0.0
C205 C 0.67572 0.77934 0.50928 0.0
C206 C 0.69529 0.78623 0.50981 0.0
H207 H 0.73867 0.64772 0.5897 0.0
H208 H 0.71606 0.68284 0.57558 0.0
H209 H 0.72506 0.59827 0.5566 0.0
H210 H 0.707 0.6043 0.49853 0.0
H211 H 0.67281 0.59176 0.49788 0.0
H212 H 0.16861 0.33176 0.51066 0.0
H213 H 0.20293 0.34539 0.51288 0.0
H214 H 0.20858 0.11201 0.53596 0.0
H215 H 0.17445 0.09782 0.53377 0.0
H216 H 0.23014 0.21374 0.5822 0.0
H217 H 0.2401 0.25972 0.43453 0.0
H218 H 0.22266 0.3161 0.45656 0.0
H219 H 0.21911 0.21784 0.45293 0.0
C220 C 0.17719 0.28345 0.51623 0.0
C221 C 0.16888 0.2137 0.52192 0.0
C222 C 0.19674 0.29126 0.51736 0.0
C223 C 0.20821 0.22951 0.52427 0.0
C224 C 0.19993 0.16018 0.5305 0.0
H225 H 0.32862 0.16883 0.50022 0.0
H226 H 0.29438 0.15231 0.5012 0.0
C227 C 0.18044 0.15223 0.52917 0.0
C228 C 0.22887 0.23678 0.52511 0.0
H229 H 0.26709 0.26895 0.4716 0.0
C230 C 0.23825 0.2259 0.55808 0.0
C231 C 0.23933 0.25177 0.49345 0.0
C232 C 0.22988 0.26157 0.45722 0.0
C233 C 0.25789 0.23075 0.5603 0.0
C234 C 0.2683 0.24679 0.52875 0.0
C235 C 0.25897 0.25676 0.4957 0.0
C236 C 0.28893 0.2549 0.52965 0.0
C237 C 0.26746 0.21819 0.59619 0.0
C238 C 0.29703 0.31793 0.54538 0.0
C239 C 0.31648 0.32775 0.54465 0.0
C240 C 0.32813 0.27443 0.52831 0.0
C241 C 0.31998 0.2106 0.51313 0.0
C242 C 0.30048 0.20118 0.51358 0.0
H243 H 0.25772 0.19476 0.6167 0.0
H244 H 0.27959 0.18002 0.59292 0.0
H245 H 0.27294 0.27182 0.60651 0.0
H246 H 0.28827 0.36016 0.55765 0.0
H247 H 0.32238 0.37749 0.55655 0.0
H248 H 0.60054 0.51323 0.10431 0.0
H249 H 0.59789 0.55507 0.16732 0.0
H250 H 0.59094 0.3284 0.20215 0.0
H251 H 0.59384 0.28621 0.13967 0.0
H252 H 0.56914 0.53251 0.22071 0.0
H253 H 0.63696 0.40175 0.25934 0.0
H254 H 0.63012 0.41571 0.21282 0.0
H255 H 0.62042 0.34002 0.23836 0.0
C256 C 0.59831 0.47251 0.12542 0.0
C257 C 0.59761 0.39647 0.1172 0.0
C258 C 0.59679 0.49641 0.1613 0.0
C259 C 0.59457 0.44458 0.18932 0.0
C260 C 0.59303 0.36903 0.18094 0.0
H261 H 0.59668 0.48238 0.42429 0.0
H262 H 0.59263 0.43643 0.36228 0.0
C263 C 0.59463 0.34513 0.14523 0.0
C264 C 0.5945 0.46895 0.22747 0.0
H265 H 0.61889 0.45358 0.30661 0.0
C266 C 0.58 0.51543 0.23954 0.0
C267 C 0.6087 0.44626 0.25187 0.0
C268 C 0.62504 0.39872 0.23998 0.0
C269 C 0.57923 0.53939 0.27563 0.0
C270 C 0.5935 0.51705 0.29995 0.0
C271 C 0.6079 0.47009 0.28791 0.0
C272 C 0.59444 0.54498 0.3375 0.0
C273 C 0.56306 0.58772 0.28752 0.0
C274 C 0.59687 0.62098 0.34392 0.0
C275 C 0.59921 0.64719 0.37911 0.0
C276 C 0.59929 0.59777 0.40853 0.0
C277 C 0.59665 0.52167 0.40213 0.0
C278 C 0.59433 0.49543 0.3668 0.0
H279 H 0.5508 0.58213 0.26912 0.0
H280 H 0.55856 0.57375 0.31546 0.0
H281 H 0.56759 0.64663 0.28716 0.0
H282 H 0.59743 0.6599 0.32163 0.0
H283 H 0.60127 0.70614 0.38319 0.0
H284 H 0.40801 0.51744 0.11327 0.0
H285 H 0.40977 0.48026 0.17699 0.0
H286 H 0.3665 0.63908 0.20339 0.0
H287 H 0.36537 0.67863 0.14032 0.0
H288 H 0.39347 0.64535 0.25149 0.0
H289 H 0.37403 0.3505 0.23072 0.0
H290 H 0.39469 0.37704 0.20621 0.0
H291 H 0.3724 0.41842 0.1951 0.0
C292 C 0.39884 0.54398 0.13273 0.0
C293 C 0.3865 0.60058 0.12194 0.0
C294 C 0.39977 0.52251 0.16906 0.0
C295 C 0.38803 0.55598 0.19491 0.0
C296 C 0.3757 0.61243 0.18398 0.0
H297 H 0.35836 0.37372 0.40174 0.0
H298 H 0.35971 0.42064 0.33988 0.0
C299 C 0.37502 0.63481 0.14791 0.0
C300 C 0.38859 0.53331 0.23347 0.0
H301 H 0.38349 0.38481 0.28975 0.0
C302 C 0.39124 0.58838 0.2599 0.0
C303 C 0.38549 0.45912 0.24441 0.0
C304 C 0.3813 0.398 0.21766 0.0
C305 C 0.39061 0.57157 0.29695 0.0
C306 C 0.38795 0.49708 0.30785 0.0
C307 C 0.38561 0.44189 0.28139 0.0
C308 C 0.38666 0.47494 0.34644 0.0
C309 C 0.39212 0.63425 0.32386 0.0
C310 C 0.40118 0.491 0.37102 0.0
C311 C 0.40018 0.46574 0.40677 0.0
C312 C 0.38489 0.42233 0.41807 0.0
C313 C 0.37031 0.40703 0.39362 0.0
C314 C 0.37112 0.43357 0.35826 0.0
H315 H 0.38847 0.68846 0.31139 0.0
H316 H 0.38275 0.62503 0.34745 0.0
H317 H 0.40681 0.63796 0.33375 0.0
H318 H 0.41355 0.52111 0.36234 0.0
H319 H 0.41171 0.47734 0.42505 0.0
H320 H 0.39693 0.47103 0.93174 0.0
H321 H 0.40126 0.42143 0.87041 0.0
H322 H 0.39682 0.64256 0.82668 0.0
H323 H 0.39271 0.69232 0.88744 0.0
H324 H 0.37567 0.43481 0.81341 0.0
H325 H 0.44386 0.56275 0.77688 0.0
H326 H 0.43567 0.55664 0.82302 0.0
H327 H 0.42706 0.62856 0.79363 0.0
C328 C 0.39708 0.50898 0.90903 0.0
C329 C 0.39451 0.58548 0.91434 0.0
C330 C 0.39957 0.48067 0.87411 0.0
C331 C 0.39969 0.52856 0.84414 0.0
C332 C 0.39723 0.60489 0.8495 0.0
H333 H 0.39316 0.50482 0.61223 0.0
H334 H 0.39606 0.54177 0.67588 0.0
C335 C 0.39473 0.63312 0.88425 0.0
C336 C 0.40097 0.49889 0.80694 0.0
H337 H 0.42537 0.51538 0.72784 0.0
C338 C 0.38668 0.45146 0.79481 0.0
C339 C 0.4153 0.52121 0.78277 0.0
C340 C 0.43145 0.56954 0.79479 0.0
C341 C 0.38591 0.42794 0.75869 0.0
C342 C 0.40002 0.45156 0.73432 0.0
C343 C 0.41454 0.49772 0.74662 0.0
C344 C 0.39967 0.42978 0.69579 0.0
C345 C 0.36964 0.38023 0.7466 0.0
C346 C 0.40125 0.35495 0.68602 0.0
C347 C 0.39954 0.33379 0.64988 0.0
C348 C 0.39637 0.38722 0.62285 0.0
C349 C 0.39554 0.46251 0.63252 0.0
C350 C 0.39721 0.48363 0.66878 0.0
H351 H 0.35788 0.38128 0.76635 0.0
H352 H 0.36427 0.39872 0.71988 0.0
H353 H 0.37446 0.32196 0.74388 0.0
H354 H 0.40352 0.31278 0.70643 0.0
H355 H 0.40041 0.27538 0.64321 0.0
H356 H 0.63215 0.3467 0.89291 0.0
H357 H 0.63086 0.39111 0.8306 0.0
H358 H 0.58086 0.51662 0.8556 0.0
H359 H 0.58272 0.47515 0.91867 0.0
H360 H 0.60563 0.36846 0.78106 0.0
H361 H 0.6106 0.67151 0.80475 0.0
H362 H 0.61466 0.60467 0.84016 0.0
H363 H 0.59105 0.62984 0.82759 0.0
C364 C 0.62103 0.38457 0.88519 0.0
C365 C 0.60761 0.40801 0.91054 0.0
C366 C 0.62026 0.40971 0.84958 0.0
C367 C 0.60589 0.45792 0.83844 0.0
C368 C 0.59237 0.48111 0.86374 0.0
H369 H 0.58398 0.52081 0.60637 0.0
H370 H 0.58198 0.47947 0.66945 0.0
C371 C 0.59338 0.45716 0.89969 0.0
C372 C 0.6049 0.48146 0.80003 0.0
H373 H 0.60373 0.6331 0.7449 0.0
C374 C 0.60527 0.42638 0.77314 0.0
C375 C 0.60458 0.55703 0.78971 0.0
C376 C 0.60539 0.61916 0.81705 0.0
C377 C 0.60567 0.44464 0.73627 0.0
C378 C 0.60491 0.52016 0.72594 0.0
C379 C 0.6042 0.57519 0.75283 0.0
C380 C 0.60591 0.54394 0.68758 0.0
C381 C 0.60767 0.38286 0.70897 0.0
C382 C 0.61966 0.59536 0.67697 0.0
C383 C 0.62047 0.62035 0.64134 0.0
C384 C 0.60773 0.59363 0.61545 0.0
C385 C 0.59411 0.54146 0.62579 0.0
C386 C 0.59303 0.51757 0.66175 0.0
H387 H 0.61354 0.33179 0.72146 0.0
H388 H 0.59362 0.36888 0.69789 0.0
H389 H 0.61693 0.39953 0.68622 0.0
H390 H 0.62976 0.61644 0.69635 0.0
H391 H 0.63114 0.66055 0.63403 0.0
H392 H 0.11989 0.79102 0.14279 0.0
H393 H 0.11873 0.83419 0.20536 0.0
H394 H 0.09379 0.03994 0.17025 0.0
H395 H 0.09489 0.99703 0.10722 0.0
H396 H 0.13607 0.9675 0.23288 0.0
H397 H 0.05858 0.96036 0.25271 0.0
H398 H 0.0702 0.90985 0.21691 0.0
H399 H 0.06685 0.0082 0.21307 0.0
C400 C 0.1141 0.84541 0.14833 0.0
C401 C 0.10745 0.8907 0.12013 0.0
C402 C 0.11345 0.8699 0.18408 0.0
C403 C 0.106 0.93978 0.19236 0.0
C404 C 0.09935 0.98534 0.16435 0.0
H405 H 0.1192 0.19643 0.38715 0.0
H406 H 0.11819 0.14903 0.32533 0.0
C407 C 0.10008 0.96098 0.12843 0.0
C408 C 0.10585 0.96555 0.23031 0.0
H409 H 0.07682 0.01037 0.30051 0.0
C410 C 0.12313 0.97685 0.24771 0.0
C411 C 0.08893 0.97671 0.24957 0.0
C412 C 0.07004 0.96271 0.23234 0.0
C413 C 0.12395 0.00031 0.28382 0.0
C414 C 0.10704 0.01313 0.30284 0.0
C415 C 0.08974 0.00064 0.28568 0.0
C416 C 0.10713 0.04162 0.3403 0.0
C417 C 0.14288 0.01083 0.30149 0.0
C418 C 0.10093 0.99712 0.36907 0.0
C419 C 0.10152 0.024 0.40458 0.0
C420 C 0.10817 0.09598 0.41164 0.0
C421 C 0.11407 0.14061 0.38261 0.0
C422 C 0.11356 0.11365 0.34728 0.0
H423 H 0.15429 0.98332 0.28597 0.0
H424 H 0.14611 0.07098 0.303 0.0
H425 H 0.14283 0.9885 0.32948 0.0
H426 H 0.09586 0.94138 0.36406 0.0
H427 H 0.09681 0.98855 0.42643 0.0
H428 H 0.89312 0.00503 0.42429 0.0
H429 H 0.8946 0.04709 0.36118 0.0
H430 H 0.88885 0.82094 0.32473 0.0
H431 H 0.88704 0.77881 0.38733 0.0
H432 H 0.91962 0.00816 0.30545 0.0
H433 H 0.84644 0.92727 0.27145 0.0
H434 H 0.85483 0.93278 0.31744 0.0
H435 H 0.86026 0.85321 0.29004 0.0
C436 C 0.89217 0.96443 0.40277 0.0
C437 C 0.88979 0.88879 0.41069 0.0
C438 C 0.89304 0.98844 0.36681 0.0
C439 C 0.89149 0.93719 0.33836 0.0
C440 C 0.88964 0.86152 0.34628 0.0
H441 H 0.89007 0.97835 0.10325 0.0
H442 H 0.89243 0.93016 0.16525 0.0
C443 C 0.8887 0.83757 0.38209 0.0
C444 C 0.89179 0.9625 0.3003 0.0
H445 H 0.86585 0.96458 0.22259 0.0
C446 C 0.90786 -0.0011 0.28733 0.0
C447 C 0.87641 0.95009 0.27677 0.0
C448 C 0.85843 0.91433 0.28964 0.0
C449 C 0.90904 0.02261 0.25125 0.0
C450 C 0.89367 0.01012 0.22779 0.0
C451 C 0.87766 0.97337 0.24066 0.0
C452 C 0.89345 0.03856 0.19031 0.0
C453 C 0.92675 0.06021 0.23836 0.0
C454 C 0.89315 0.11521 0.18412 0.0
C455 C 0.89169 0.14269 0.14898 0.0
C456 C 0.89049 0.09397 0.11938 0.0
C457 C 0.89103 0.0171 0.12556 0.0
C458 C 0.89237 0.98958 0.16086 0.0
H459 H 0.93879 0.04932 0.25675 0.0
H460 H 0.93052 0.04137 0.21069 0.0
H461 H 0.9244 0.12103 0.23739 0.0
H462 H 0.89364 0.15381 0.20656 0.0
H463 H 0.89129 0.20222 0.14507 0.0
H464 H 0.88898 0.79186 0.64549 0.0
H465 H 0.89034 0.84097 0.70703 0.0
H466 H 0.89212 0.06392 0.66494 0.0
H467 H 0.89079 0.01512 0.60296 0.0
H468 H 0.91874 0.94146 0.73876 0.0
H469 H 0.84601 0.05538 0.73642 0.0
H470 H 0.85391 0.98579 0.70474 0.0
H471 H 0.86116 0.08047 0.69943 0.0
C472 C 0.88972 0.85138 0.64927 0.0
C473 C 0.88967 0.89977 0.61944 0.0
C474 C 0.89054 0.87923 0.68443 0.0
C475 C 0.89116 0.95591 0.6904 0.0
C476 C 0.89146 0.00451 0.66075 0.0
H477 H 0.88381 0.21398 0.88741 0.0
H478 H 0.88627 0.17177 0.82487 0.0
C479 C 0.89076 0.97662 0.62545 0.0
C480 C 0.89111 0.98453 0.72784 0.0
H481 H 0.86365 0.07413 0.7895 0.0
C482 C 0.90675 0.97068 0.74993 0.0
C483 C 0.87541 0.0224 0.74213 0.0
C484 C 0.85807 0.03668 0.71966 0.0
C485 C 0.90717 0.99446 0.78608 0.0
C486 C 0.89133 0.03141 0.80058 0.0
C487 C 0.87576 0.04565 0.77832 0.0
C488 C 0.8906 0.05642 0.83872 0.0
C489 C 0.92468 0.981 0.80816 0.0
C490 C 0.89212 0.00541 0.8673 0.0
C491 C 0.89081 0.02947 0.9032 0.0
C492 C 0.88776 0.10478 0.91097 0.0
C493 C 0.88617 0.15555 0.88228 0.0
C494 C 0.88757 0.13157 0.84652 0.0
H495 H 0.93712 0.97113 0.79067 0.0
H496 H 0.92769 0.02875 0.82623 0.0
H497 H 0.92261 0.93104 0.82523 0.0
H498 H 0.89403 0.94688 0.86185 0.0
H499 H 0.89198 0.9891 0.92478 0.0
H500 H 0.10197 0.79109 0.88584 0.0
H501 H 0.09984 0.83993 0.82437 0.0
H502 H 0.09884 0.0631 0.86633 0.0
H503 H 0.10109 0.01454 0.92823 0.0
H504 H 0.07211 0.93604 0.79221 0.0
H505 H 0.14389 0.05844 0.7946 0.0
H506 H 0.13618 0.99066 0.82733 0.0
H507 H 0.12857 0.08532 0.83097 0.0
C508 C 0.10123 0.8506 0.88205 0.0
C509 C 0.10184 0.89911 0.91181 0.0
C510 C 0.09996 0.87832 0.84692 0.0
C511 C 0.09941 0.95499 0.84088 0.0
C512 C 0.09951 0.00369 0.87052 0.0
H513 H 0.10477 0.21414 0.6442 0.0
H514 H 0.1018 0.17141 0.70655 0.0
C515 C 0.10072 0.97594 0.90579 0.0
C516 C 0.09926 0.98348 0.80338 0.0
H517 H 0.12592 0.07719 0.74185 0.0
C518 C 0.08382 0.96709 0.78113 0.0
C519 C 0.11463 0.02358 0.78914 0.0
C520 C 0.13185 0.04022 0.81155 0.0
C521 C 0.08326 0.99057 0.74494 0.0
C522 C 0.09872 0.03013 0.73059 0.0
C523 C 0.11409 0.04683 0.75296 0.0
C524 C 0.0993 0.05534 0.6925 0.0
C525 C 0.06603 0.97393 0.72258 0.0
C526 C 0.09888 0.00412 0.66387 0.0
C527 C 0.10052 0.02845 0.62805 0.0
C528 C 0.10278 0.10427 0.62045 0.0
C529 C 0.10306 0.15532 0.64919 0.0
C530 C 0.10136 0.13105 0.68485 0.0
H531 H 0.05368 0.96098 0.73984 0.0
H532 H 0.06245 0.02144 0.70474 0.0
H533 H 0.06884 0.92498 0.70521 0.0
H534 H 0.09769 0.94526 0.66925 0.0
H535 H 0.10036 0.98789 0.60644 0.0
H536 H 0.45038 0.72937 0.03096 0.0
H537 H 0.47832 0.80778 0.0283 0.0
H538 H 0.44373 0.99707 0.00259 0.0
H539 H 0.41556 0.91891 0.0057 0.0
H540 H 0.49109 0.88888 0.96885 0.0
H541 H 0.47639 0.07139 0.08663 0.0
H542 H 0.46408 0.98515 0.07919 0.0
H543 H 0.45781 0.06648 0.05381 0.0
C544 C 0.44868 0.78784 0.02504 0.0
C545 C 0.43079 0.81818 0.01865 0.0
C546 C 0.46466 0.83244 0.02345 0.0
C547 C 0.46305 0.9082 0.01559 0.0
C548 C 0.44521 0.93889 0.00932 0.0
H549 H 0.54341 0.26288 0.99046 0.0
H550 H 0.51551 0.18408 0.99081 0.0
C551 C 0.42916 0.89423 0.01098 0.0
C552 C 0.48018 0.95423 0.01287 0.0
H553 H 0.50257 0.10296 0.0502 0.0
C554 C 0.49365 0.93561 0.98667 0.0
C555 C 0.48343 0.01495 0.03622 0.0
C556 C 0.46977 0.0355 0.06578 0.0
C557 C 0.51023 0.97695 0.98282 0.0
C558 C 0.51347 0.03767 0.00617 0.0
C559 C 0.49999 0.0563 0.03235 0.0
C560 C 0.53065 0.08346 0.00373 0.0
C561 C 0.52395 0.95628 0.95339 0.0
C562 C 0.54841 0.0527 0.01069 0.0
C563 C 0.56444 0.09763 0.0104 0.0
C564 C 0.56286 0.17397 0.00342 0.0
C565 C 0.54507 0.20422 0.99594 0.0
C566 C 0.52911 0.15938 0.99617 0.0
H567 H 0.51736 0.9203 0.93253 0.0
H568 H 0.52965 0.0066 0.93999 0.0
H569 H 0.53588 0.92539 0.96548 0.0
H570 H 0.54982 0.99439 0.0172 0.0
H571 H 0.57796 0.073 0.01646 0.0
H572 H 0.57872 0.9241 0.50251 0.0
H573 H 0.55052 0.00258 0.50087 0.0
H574 H 0.51641 0.81451 0.53067 0.0
H575 H 0.54435 0.73627 0.53263 0.0
H576 H 0.51811 0.97811 0.45638 0.0
H577 H 0.50036 0.97714 0.6026 0.0
H578 H 0.52331 0.9517 0.58586 0.0
H579 H 0.50419 0.8867 0.58361 0.0
C580 C 0.56523 0.89986 0.50911 0.0
C581 C 0.56372 0.82422 0.5178 0.0
C582 C 0.54917 0.94457 0.50807 0.0
C583 C 0.53147 0.91435 0.51607 0.0
C584 C 0.52999 0.83908 0.52505 0.0
H585 H 0.41652 0.07439 0.51951 0.0
H586 H 0.44491 0.99716 0.51904 0.0
C587 C 0.54597 0.79444 0.52598 0.0
C588 C 0.51434 0.96029 0.5135 0.0
H589 H 0.47705 0.02371 0.56253 0.0
C590 C 0.50918 0.98867 0.47959 0.0
C591 C 0.50271 0.97326 0.54384 0.0
C592 C 0.50796 0.94621 0.58112 0.0
C593 C 0.49244 0.0287 0.47506 0.0
C594 C 0.48078 0.04143 0.50538 0.0
C595 C 0.48598 0.01326 0.53931 0.0
C596 C 0.46346 0.08631 0.50287 0.0
C597 C 0.48718 0.05572 0.43778 0.0
C598 C 0.46457 0.16166 0.49382 0.0
C599 C 0.44845 0.20566 0.49408 0.0
C600 C 0.43096 0.17512 0.50358 0.0
C601 C 0.4298 0.09926 0.51194 0.0
C602 C 0.44598 0.05523 0.51177 0.0
H603 H 0.49484 0.02505 0.4163 0.0
H604 H 0.47184 0.04984 0.433 0.0
H605 H 0.49084 0.11534 0.43535 0.0
H606 H 0.47798 0.18694 0.48752 0.0
H607 H 0.44979 0.26404 0.48762 0.0
H608 H 0.04348 0.76483 0.02511 0.0
H609 H 0.01536 0.68717 0.0257 0.0
H610 H 0.0497 0.49201 0.01211 0.0
H611 H 0.07803 0.56949 0.01194 0.0
H612 H 0.00295 0.59178 0.97079 0.0
H613 H 0.0162 0.44013 0.09917 0.0
H614 H 0.02866 0.52383 0.08716 0.0
H615 H 0.03509 0.43678 0.06699 0.0
C616 C 0.04508 0.70532 0.02246 0.0
C617 C 0.06295 0.67311 0.01858 0.0
C618 C 0.029 0.66112 0.02276 0.0
C619 C 0.03049 0.58393 0.01936 0.0
C620 C 0.04831 0.55145 0.01543 0.0
H621 H 0.94964 0.22738 0.00974 0.0
H622 H 0.97781 0.30478 0.00982 0.0
C623 C 0.06444 0.59572 0.01516 0.0
C624 C 0.01329 0.538 0.01885 0.0
H625 H 0.99024 0.40036 0.06402 0.0
C626 C 0.00011 0.55005 0.99121 0.0
C627 C 0.00969 0.48376 0.04557 0.0
C628 C 0.02305 0.47056 0.07661 0.0
C629 C 0.98351 0.50833 0.98921 0.0
C630 C 0.9799 0.45414 0.01596 0.0
C631 C 0.99308 0.44208 0.0436 0.0
C632 C 0.96269 0.40824 0.01543 0.0
C633 C 0.9702 0.52144 0.95808 0.0
C634 C 0.94486 0.4409 0.01881 0.0
C635 C 0.9287 0.39678 0.01864 0.0
C636 C 0.93017 0.31936 0.01539 0.0
C637 C 0.94806 0.28692 0.01224 0.0
C638 C 0.96416 0.33098 0.01233 0.0
H639 H 0.97713 0.55129 0.93543 0.0
H640 H 0.96449 0.4682 0.9477 0.0
H641 H 0.95823 0.55579 0.96754 0.0
H642 H 0.94347 0.50038 0.02192 0.0
H643 H 0.9151 0.42318 0.02133 0.0
H644 H 0.04464 0.23051 0.5106 0.0
H645 H 0.01672 0.30924 0.51078 0.0
H646 H 0.05182 0.50421 0.51384 0.0
H647 H 0.07996 0.42556 0.51342 0.0
H648 H 0.00674 0.41497 0.56455 0.0
H649 H 0.01525 0.54242 0.42854 0.0
H650 H 0.02764 0.45944 0.442 0.0
H651 H 0.03536 0.54853 0.45786 0.0
C652 C 0.04645 0.29016 0.5111 0.0
C653 C 0.06448 0.32199 0.51189 0.0
C654 C 0.03048 0.33497 0.51125 0.0
C655 C 0.03224 0.41236 0.51196 0.0
C656 C 0.05021 0.4445 0.51273 0.0
H657 H 0.95122 0.76964 0.51611 0.0
H658 H 0.97958 0.69328 0.51593 0.0
C659 C 0.06624 0.3996 0.51263 0.0
C660 C 0.01518 0.45899 0.51292 0.0
H661 H 0.99039 0.58747 0.46484 0.0
C662 C 0.00311 0.45264 0.54276 0.0
C663 C 0.01058 0.50792 0.48441 0.0
C664 C 0.02277 0.51484 0.4512 0.0
C665 C 0.9866 0.4948 0.54508 0.0
C666 C 0.98192 0.54341 0.51646 0.0
C667 C 0.99403 0.54996 0.48668 0.0
C668 C 0.96462 0.58883 0.51707 0.0
C669 C 0.97451 0.48808 0.57845 0.0
C670 C 0.94683 0.55521 0.5175 0.0
C671 C 0.93056 0.59873 0.51769 0.0
C672 C 0.9319 0.67647 0.51722 0.0
C673 C 0.94975 0.70984 0.51656 0.0
C674 C 0.96596 0.66637 0.5164 0.0
H675 H 0.98233 0.46303 0.60141 0.0
H676 H 0.9691 0.54317 0.58696 0.0
H677 H 0.96228 0.45194 0.57237 0.0
H678 H 0.94552 0.49535 0.51734 0.0
H679 H 0.91699 0.57158 0.518 0.0
loop_
_geom_bond_atom_site_label_1
_geom_bond_atom_site_label_2
_geom_bond_distance
_geom_bond_site_symmetry_2
_ccdc_geom_bond_type
In0 O1 2.294 1_554 S
In0 O2 2.326 1_554 S
In0 O6 2.266 . S
In0 O7 2.326 . S
In0 O8 2.266 . S
In0 O9 2.326 . S
In0 O11 2.294 . S
In0 O12 2.326 . S
O1 In0 2.294 1_556 S
O1 C10 1.240 . S
O2 In0 2.326 1_556 S
O2 C10 1.252 . S
C3 O6 1.252 . S
C3 O7 1.260 . S
C4 O11 1.240 . S
C4 O12 1.252 . S
C5 O8 1.252 . S
C5 O9 1.260 . S
O6 In0 2.266 . S
O6 C3 1.252 . S
O7 In0 2.326 . S
O7 C3 1.260 . S
O8 In0 2.266 . S
O8 C5 1.252 . S
O9 In0 2.326 . S
O9 C5 1.260 . S
C10 O1 1.240 . S
C10 O2 1.252 . S
O11 In0 2.294 . S
O11 C4 1.240 . S
O12 In0 2.326 . S
O12 C4 1.252 . S
In13 O14 2.294 . S
In13 O15 2.326 . S
In13 O19 2.266 . S
In13 O20 2.326 . S
In13 O21 2.266 . S
In13 O22 2.326 . S
In13 O24 2.294 1_554 S
In13 O25 2.326 1_554 S
O14 In13 2.294 . S
O14 C23 1.240 . S
O15 In13 2.326 . S
O15 C23 1.252 . S
C16 O19 1.252 . S
C16 O20 1.260 . S
C17 O24 1.240 . S
C17 O25 1.252 . S
C18 O21 1.252 . S
C18 O22 1.260 . S
O19 In13 2.266 . S
O19 C16 1.252 . S
O20 In13 2.326 . S
O20 C16 1.260 . S
O21 In13 2.266 . S
O21 C18 1.252 . S
O22 In13 2.326 . S
O22 C18 1.260 . S
C23 O14 1.240 . S
C23 O15 1.252 . S
O24 In13 2.294 1_556 S
O24 C17 1.240 . S
O25 In13 2.326 1_556 S
O25 C17 1.252 . S
In26 O27 2.294 . S
In26 O28 2.326 . S
In26 O32 2.266 . S
In26 O33 2.326 . S
In26 O34 2.266 . S
In26 O35 2.326 . S
In26 O37 2.294 . S
In26 O38 2.326 . S
O27 In26 2.294 . S
O27 C36 1.240 . S
O28 In26 2.326 . S
O28 C36 1.252 . S
C29 O32 1.252 . S
C29 O33 1.260 . S
C30 O37 1.240 . S
C30 O38 1.252 . S
C31 O34 1.252 . S
C31 O35 1.260 . S
O32 In26 2.266 . S
O32 C29 1.252 . S
O33 In26 2.326 . S
O33 C29 1.260 . S
O34 In26 2.266 . S
O34 C31 1.252 . S
O35 In26 2.326 . S
O35 C31 1.260 . S
C36 O27 1.240 . S
C36 O28 1.252 . S
O37 In26 2.294 . S
O37 C30 1.240 . S
O38 In26 2.326 . S
O38 C30 1.252 . S
In39 O40 2.294 . S
In39 O41 2.326 . S
In39 O45 2.266 . S
In39 O46 2.326 . S
In39 O47 2.266 . S
In39 O48 2.326 . S
In39 O50 2.294 . S
In39 O51 2.326 . S
O40 In39 2.294 . S
O40 C49 1.240 . S
O41 In39 2.326 . S
O41 C49 1.252 . S
C42 O45 1.252 . S
C42 O46 1.260 . S
C43 O50 1.240 . S
C43 O51 1.252 . S
C44 O47 1.252 . S
C44 O48 1.260 . S
O45 In39 2.266 . S
O45 C42 1.252 . S
O46 In39 2.326 . S
O46 C42 1.260 . S
O47 In39 2.266 . S
O47 C44 1.252 . S
O48 In39 2.326 . S
O48 C44 1.260 . S
C49 O40 1.240 . S
C49 O41 1.252 . S
O50 In39 2.294 . S
O50 C43 1.240 . S
O51 In39 2.326 . S
O51 C43 1.252 . S
In52 O53 2.294 . S
In52 O54 2.326 . S
In52 O58 2.266 . S
In52 O59 2.326 . S
In52 O60 2.266 . S
In52 O61 2.326 . S
In52 O63 2.294 1_554 S
In52 O64 2.326 1_554 S
O53 In52 2.294 . S
O53 C62 1.240 . S
O54 In52 2.326 . S
O54 C62 1.252 . S
C55 O58 1.252 . S
C55 O59 1.260 . S
C56 O63 1.240 . S
C56 O64 1.252 . S
C57 O60 1.252 . S
C57 O61 1.260 . S
O58 In52 2.266 . S
O58 C55 1.252 . S
O59 In52 2.326 . S
O59 C55 1.260 . S
O60 In52 2.266 . S
O60 C57 1.252 . S
O61 In52 2.326 . S
O61 C57 1.260 . S
C62 O53 1.240 . S
C62 O54 1.252 . S
O63 In52 2.294 1_556 S
O63 C56 1.240 . S
O64 In52 2.326 1_556 S
O64 C56 1.252 . S
In65 O66 2.294 1_554 S
In65 O67 2.326 1_554 S
In65 O71 2.266 . S
In65 O72 2.326 . S
In65 O73 2.266 . S
In65 O74 2.326 . S
In65 O76 2.294 . S
In65 O77 2.326 . S
O66 In65 2.294 1_556 S
O66 C75 1.240 . S
O67 In65 2.326 1_556 S
O67 C75 1.252 . S
C68 O71 1.252 . S
C68 O72 1.260 . S
C69 O76 1.240 . S
C69 O77 1.252 . S
C70 O73 1.252 . S
C70 O74 1.260 . S
O71 In65 2.266 . S
O71 C68 1.252 . S
O72 In65 2.326 . S
O72 C68 1.260 . S
O73 In65 2.266 . S
O73 C70 1.252 . S
O74 In65 2.326 . S
O74 C70 1.260 . S
C75 O66 1.240 . S
C75 O67 1.252 . S
O76 In65 2.294 . S
O76 C69 1.240 . S
O77 In65 2.326 . S
O77 C69 1.252 . S
In78 O79 2.294 . S
In78 O80 2.326 . S
In78 O84 2.266 . S
In78 O85 2.326 . S
In78 O86 2.266 . S
In78 O87 2.326 . S
In78 O89 2.294 . S
In78 O90 2.326 . S
O79 In78 2.294 . S
O79 C88 1.240 . S
O80 In78 2.326 . S
O80 C88 1.252 . S
C81 O84 1.252 . S
C81 O85 1.260 . S
C82 O89 1.240 . S
C82 O90 1.252 . S
C83 O86 1.252 . S
C83 O87 1.260 . S
O84 In78 2.266 . S
O84 C81 1.252 . S
O85 In78 2.326 . S
O85 C81 1.260 . S
O86 In78 2.266 . S
O86 C83 1.252 . S
O87 In78 2.326 . S
O87 C83 1.260 . S
C88 O79 1.240 . S
C88 O80 1.252 . S
O89 In78 2.294 . S
O89 C82 1.240 . S
O90 In78 2.326 . S
O90 C82 1.252 . S
In91 O92 2.294 . S
In91 O93 2.326 . S
In91 O97 2.266 . S
In91 O98 2.326 . S
In91 O99 2.266 . S
In91 O100 2.326 . S
In91 O102 2.294 . S
In91 O103 2.326 . S
O92 In91 2.294 . S
O92 C101 1.240 . S
O93 In91 2.326 . S
O93 C101 1.252 . S
C94 O97 1.252 . S
C94 O98 1.260 . S
C95 O102 1.240 . S
C95 O103 1.252 . S
C96 O99 1.252 . S
C96 O100 1.260 . S
O97 In91 2.266 . S
O97 C94 1.252 . S
O98 In91 2.326 . S
O98 C94 1.260 . S
O99 In91 2.266 . S
O99 C96 1.252 . S
O100 In91 2.326 . S
O100 C96 1.260 . S
C101 O92 1.240 . S
C101 O93 1.252 . S
O102 In91 2.294 . S
O102 C95 1.240 . S
O103 In91 2.326 . S
O103 C95 1.252 . S
H104 C112 0.929 . S
H105 C114 0.930 . S
H106 C116 0.930 . S
H107 C119 0.929 . S
H108 C122 0.930 . S
H109 C124 0.960 . S
H110 C124 0.960 . S
H111 C124 0.960 . S
C112 H104 0.929 . S
C112 C113 1.377 . S
C112 C114 1.384 . S
C113 C112 1.377 . S
C113 C119 1.390 . S
C114 H105 0.930 . S
C114 C112 1.384 . S
C114 C115 1.372 . S
C115 C114 1.372 . S
C115 C116 1.400 . S
C115 C120 1.490 . S
C116 H106 0.930 . S
C116 C115 1.400 . S
C116 C119 1.386 . S
H117 C133 0.930 . S
H118 C134 0.931 . S
C119 H107 0.929 . S
C119 C113 1.390 . S
C119 C116 1.386 . S
C120 C115 1.490 . S
C120 C122 1.395 . S
C120 C123 1.403 . S
H121 C127 0.930 1_556 S
C122 H108 0.930 . S
C122 C120 1.395 . S
C122 C125 1.403 . S
C123 C120 1.403 . S
C123 C124 1.524 1_554 S
C123 C127 1.400 . S
C124 H109 0.960 . S
C124 H110 0.960 . S
C124 H111 0.960 . S
C124 C123 1.524 1_556 S
C125 C122 1.403 . S
C125 C126 1.392 . S
C125 C129 1.495 . S
C126 C125 1.392 . S
C126 C127 1.385 . S
C126 C128 1.478 . S
C127 H121 0.930 1_554 S
C127 C123 1.400 . S
C127 C126 1.385 . S
C128 C126 1.478 . S
C128 C130 1.381 . S
C128 C134 1.383 . S
C129 C125 1.495 . S
C129 H135 0.959 . S
C129 H136 0.961 . S
C129 H137 0.960 . S
C130 C128 1.381 . S
C130 C131 1.394 . S
C130 H138 0.930 . S
C131 C130 1.394 . S
C131 C132 1.383 . S
C131 H139 0.929 . S
C132 C131 1.383 . S
C132 C133 1.377 . S
C133 H117 0.930 . S
C133 C132 1.377 . S
C133 C134 1.379 . S
C134 H118 0.931 . S
C134 C128 1.383 . S
C134 C133 1.379 . S
H135 C129 0.959 . S
H136 C129 0.961 . S
H137 C129 0.960 . S
H138 C130 0.930 . S
H139 C131 0.929 . S
H140 C148 0.929 . S
H141 C150 0.930 . S
H142 C152 0.930 . S
H143 C155 0.929 . S
H144 C158 0.930 . S
H145 C160 0.960 . S
H146 C160 0.960 . S
H147 C160 0.960 . S
C148 H140 0.929 . S
C148 C149 1.377 . S
C148 C150 1.384 . S
C149 C148 1.377 . S
C149 C155 1.390 . S
C150 H141 0.930 . S
C150 C148 1.384 . S
C150 C151 1.372 . S
C151 C150 1.372 . S
C151 C152 1.400 . S
C151 C156 1.490 . S
C152 H142 0.930 . S
C152 C151 1.400 . S
C152 C155 1.386 . S
H153 C169 0.930 . S
H154 C170 0.931 . S
C155 H143 0.929 . S
C155 C149 1.390 . S
C155 C152 1.386 . S
C156 C151 1.490 . S
C156 C158 1.395 . S
C156 C159 1.403 . S
H157 C163 0.930 1_556 S
C158 H144 0.930 . S
C158 C156 1.395 . S
C158 C161 1.403 . S
C159 C156 1.403 . S
C159 C160 1.524 1_554 S
C159 C163 1.400 . S
C160 H145 0.960 . S
C160 H146 0.960 . S
C160 H147 0.960 . S
C160 C159 1.524 1_556 S
C161 C158 1.403 . S
C161 C162 1.392 . S
C161 C165 1.495 . S
C162 C161 1.392 . S
C162 C163 1.385 . S
C162 C164 1.478 . S
C163 H157 0.930 1_554 S
C163 C159 1.400 . S
C163 C162 1.385 . S
C164 C162 1.478 . S
C164 C166 1.381 . S
C164 C170 1.383 . S
C165 C161 1.495 . S
C165 H171 0.959 . S
C165 H172 0.961 . S
C165 H173 0.960 . S
C166 C164 1.381 . S
C166 C167 1.394 . S
C166 H174 0.930 . S
C167 C166 1.394 . S
C167 C168 1.383 . S
C167 H175 0.929 . S
C168 C167 1.383 . S
C168 C169 1.377 . S
C169 H153 0.930 . S
C169 C168 1.377 . S
C169 C170 1.379 . S
C170 H154 0.931 . S
C170 C164 1.383 . S
C170 C169 1.379 . S
H171 C165 0.959 . S
H172 C165 0.961 . S
H173 C165 0.960 . S
H174 C166 0.930 . S
H175 C167 0.929 . S
H176 C184 0.929 . S
H177 C186 0.930 . S
H178 C188 0.930 . S
H179 C191 0.929 . S
H180 C194 0.930 . S
H181 C196 0.960 . S
H182 C196 0.960 . S
H183 C196 0.960 . S
C184 H176 0.929 . S
C184 C185 1.377 . S
C184 C186 1.384 . S
C185 C184 1.377 . S
C185 C191 1.390 . S
C186 H177 0.930 . S
C186 C184 1.384 . S
C186 C187 1.372 . S
C187 C186 1.372 . S
C187 C188 1.400 . S
C187 C192 1.490 . S
C188 H178 0.930 . S
C188 C187 1.400 . S
C188 C191 1.386 . S
H189 C205 0.930 . S
H190 C206 0.931 . S
C191 H179 0.929 . S
C191 C185 1.390 . S
C191 C188 1.386 . S
C192 C187 1.490 . S
C192 C194 1.395 . S
C192 C195 1.403 . S
H193 C199 0.930 . S
C194 H180 0.930 . S
C194 C192 1.395 . S
C194 C197 1.403 . S
C195 C192 1.403 . S
C195 C196 1.524 . S
C195 C199 1.400 . S
C196 H181 0.960 . S
C196 H182 0.960 . S
C196 H183 0.960 . S
C196 C195 1.524 . S
C197 C194 1.403 . S
C197 C198 1.392 . S
C197 C201 1.495 . S
C198 C197 1.392 . S
C198 C199 1.385 . S
C198 C200 1.478 . S
C199 H193 0.930 . S
C199 C195 1.400 . S
C199 C198 1.385 . S
C200 C198 1.478 . S
C200 C202 1.381 . S
C200 C206 1.383 . S
C201 C197 1.495 . S
C201 H207 0.959 . S
C201 H208 0.961 . S
C201 H209 0.960 . S
C202 C200 1.381 . S
C202 C203 1.394 . S
C202 H210 0.930 . S
C203 C202 1.394 . S
C203 C204 1.383 . S
C203 H211 0.929 . S
C204 C203 1.383 . S
C204 C205 1.377 . S
C205 H189 0.930 . S
C205 C204 1.377 . S
C205 C206 1.379 . S
C206 H190 0.931 . S
C206 C200 1.383 . S
C206 C205 1.379 . S
H207 C201 0.959 . S
H208 C201 0.961 . S
H209 C201 0.960 . S
H210 C202 0.930 . S
H211 C203 0.929 . S
H212 C220 0.929 . S
H213 C222 0.930 . S
H214 C224 0.930 . S
H215 C227 0.929 . S
H216 C230 0.930 . S
H217 C232 0.960 . S
H218 C232 0.960 . S
H219 C232 0.960 . S
C220 H212 0.929 . S
C220 C221 1.377 . S
C220 C222 1.384 . S
C221 C220 1.377 . S
C221 C227 1.390 . S
C222 H213 0.930 . S
C222 C220 1.384 . S
C222 C223 1.372 . S
C223 C222 1.372 . S
C223 C224 1.400 . S
C223 C228 1.490 . S
C224 H214 0.930 . S
C224 C223 1.400 . S
C224 C227 1.386 . S
H225 C241 0.930 . S
H226 C242 0.931 . S
C227 H215 0.929 . S
C227 C221 1.390 . S
C227 C224 1.386 . S
C228 C223 1.490 . S
C228 C230 1.395 . S
C228 C231 1.403 . S
H229 C235 0.930 . S
C230 H216 0.930 . S
C230 C228 1.395 . S
C230 C233 1.403 . S
C231 C228 1.403 . S
C231 C232 1.524 . S
C231 C235 1.400 . S
C232 H217 0.960 . S
C232 H218 0.960 . S
C232 H219 0.960 . S
C232 C231 1.524 . S
C233 C230 1.403 . S
C233 C234 1.392 . S
C233 C237 1.495 . S
C234 C233 1.392 . S
C234 C235 1.385 . S
C234 C236 1.478 . S
C235 H229 0.930 . S
C235 C231 1.400 . S
C235 C234 1.385 . S
C236 C234 1.478 . S
C236 C238 1.381 . S
C236 C242 1.383 . S
C237 C233 1.495 . S
C237 H243 0.959 . S
C237 H244 0.961 . S
C237 H245 0.960 . S
C238 C236 1.381 . S
C238 C239 1.394 . S
C238 H246 0.930 . S
C239 C238 1.394 . S
C239 C240 1.383 . S
C239 H247 0.929 . S
C240 C239 1.383 . S
C240 C241 1.377 . S
C241 H225 0.930 . S
C241 C240 1.377 . S
C241 C242 1.379 . S
C242 H226 0.931 . S
C242 C236 1.383 . S
C242 C241 1.379 . S
H243 C237 0.959 . S
H244 C237 0.961 . S
H245 C237 0.960 . S
H246 C238 0.930 . S
H247 C239 0.929 . S
H248 C256 0.929 . S
H249 C258 0.930 . S
H250 C260 0.930 . S
H251 C263 0.929 . S
H252 C266 0.930 . S
H253 C268 0.960 . S
H254 C268 0.960 . S
H255 C268 0.960 . S
C256 H248 0.929 . S
C256 C257 1.377 . S
C256 C258 1.384 . S
C257 C256 1.377 . S
C257 C263 1.390 . S
C258 H249 0.930 . S
C258 C256 1.384 . S
C258 C259 1.372 . S
C259 C258 1.372 . S
C259 C260 1.400 . S
C259 C264 1.490 . S
C260 H250 0.930 . S
C260 C259 1.400 . S
C260 C263 1.386 . S
H261 C277 0.930 . S
H262 C278 0.931 . S
C263 H251 0.929 . S
C263 C257 1.390 . S
C263 C260 1.386 . S
C264 C259 1.490 . S
C264 C266 1.395 . S
C264 C267 1.403 . S
H265 C271 0.930 . S
C266 H252 0.930 . S
C266 C264 1.395 . S
C266 C269 1.403 . S
C267 C264 1.403 . S
C267 C268 1.524 . S
C267 C271 1.400 . S
C268 H253 0.960 . S
C268 H254 0.960 . S
C268 H255 0.960 . S
C268 C267 1.524 . S
C269 C266 1.403 . S
C269 C270 1.392 . S
C269 C273 1.495 . S
C270 C269 1.392 . S
C270 C271 1.385 . S
C270 C272 1.478 . S
C271 H265 0.930 . S
C271 C267 1.400 . S
C271 C270 1.385 . S
C272 C270 1.478 . S
C272 C274 1.381 . S
C272 C278 1.383 . S
C273 C269 1.495 . S
C273 H279 0.959 . S
C273 H280 0.961 . S
C273 H281 0.960 . S
C274 C272 1.381 . S
C274 C275 1.394 . S
C274 H282 0.930 . S
C275 C274 1.394 . S
C275 C276 1.383 . S
C275 H283 0.929 . S
C276 C275 1.383 . S
C276 C277 1.377 . S
C277 H261 0.930 . S
C277 C276 1.377 . S
C277 C278 1.379 . S
C278 H262 0.931 . S
C278 C272 1.383 . S
C278 C277 1.379 . S
H279 C273 0.959 . S
H280 C273 0.961 . S
H281 C273 0.960 . S
H282 C274 0.930 . S
H283 C275 0.929 . S
H284 C292 0.929 . S
H285 C294 0.930 . S
H286 C296 0.930 . S
H287 C299 0.929 . S
H288 C302 0.930 . S
H289 C304 0.960 . S
H290 C304 0.960 . S
H291 C304 0.960 . S
C292 H284 0.929 . S
C292 C293 1.377 . S
C292 C294 1.384 . S
C293 C292 1.377 . S
C293 C299 1.390 . S
C294 H285 0.930 . S
C294 C292 1.384 . S
C294 C295 1.372 . S
C295 C294 1.372 . S
C295 C296 1.400 . S
C295 C300 1.490 . S
C296 H286 0.930 . S
C296 C295 1.400 . S
C296 C299 1.386 . S
H297 C313 0.930 . S
H298 C314 0.931 . S
C299 H287 0.929 . S
C299 C293 1.390 . S
C299 C296 1.386 . S
C300 C295 1.490 . S
C300 C302 1.395 . S
C300 C303 1.403 . S
H301 C307 0.930 . S
C302 H288 0.930 . S
C302 C300 1.395 . S
C302 C305 1.403 . S
C303 C300 1.403 . S
C303 C304 1.524 . S
C303 C307 1.400 . S
C304 H289 0.960 . S
C304 H290 0.960 . S
C304 H291 0.960 . S
C304 C303 1.524 . S
C305 C302 1.403 . S
C305 C306 1.392 . S
C305 C309 1.495 . S
C306 C305 1.392 . S
C306 C307 1.385 . S
C306 C308 1.478 . S
C307 H301 0.930 . S
C307 C303 1.400 . S
C307 C306 1.385 . S
C308 C306 1.478 . S
C308 C310 1.381 . S
C308 C314 1.383 . S
C309 C305 1.495 . S
C309 H315 0.959 . S
C309 H316 0.961 . S
C309 H317 0.960 . S
C310 C308 1.381 . S
C310 C311 1.394 . S
C310 H318 0.930 . S
C311 C310 1.394 . S
C311 C312 1.383 . S
C311 H319 0.929 . S
C312 C311 1.383 . S
C312 C313 1.377 . S
C313 H297 0.930 . S
C313 C312 1.377 . S
C313 C314 1.379 . S
C314 H298 0.931 . S
C314 C308 1.383 . S
C314 C313 1.379 . S
H315 C309 0.959 . S
H316 C309 0.961 . S
H317 C309 0.960 . S
H318 C310 0.930 . S
H319 C311 0.929 . S
H320 C328 0.929 . S
H321 C330 0.930 . S
H322 C332 0.930 . S
H323 C335 0.929 . S
H324 C338 0.930 . S
H325 C340 0.960 . S
H326 C340 0.960 . S
H327 C340 0.960 . S
C328 H320 0.929 . S
C328 C329 1.377 . S
C328 C330 1.384 . S
C329 C328 1.377 . S
C329 C335 1.390 . S
C330 H321 0.930 . S
C330 C328 1.384 . S
C330 C331 1.372 . S
C331 C330 1.372 . S
C331 C332 1.400 . S
C331 C336 1.490 . S
C332 H322 0.930 . S
C332 C331 1.400 . S
C332 C335 1.386 . S
H333 C349 0.930 . S
H334 C350 0.931 . S
C335 H323 0.929 . S
C335 C329 1.390 . S
C335 C332 1.386 . S
C336 C331 1.490 . S
C336 C338 1.395 . S
C336 C339 1.403 . S
H337 C343 0.930 . S
C338 H324 0.930 . S
C338 C336 1.395 . S
C338 C341 1.403 . S
C339 C336 1.403 . S
C339 C340 1.524 . S
C339 C343 1.400 . S
C340 H325 0.960 . S
C340 H326 0.960 . S
C340 H327 0.960 . S
C340 C339 1.524 . S
C341 C338 1.403 . S
C341 C342 1.392 . S
C341 C345 1.495 . S
C342 C341 1.392 . S
C342 C343 1.385 . S
C342 C344 1.478 . S
C343 H337 0.930 . S
C343 C339 1.400 . S
C343 C342 1.385 . S
C344 C342 1.478 . S
C344 C346 1.381 . S
C344 C350 1.383 . S
C345 C341 1.495 . S
C345 H351 0.959 . S
C345 H352 0.961 . S
C345 H353 0.960 . S
C346 C344 1.381 . S
C346 C347 1.394 . S
C346 H354 0.930 . S
C347 C346 1.394 . S
C347 C348 1.383 . S
C347 H355 0.929 . S
C348 C347 1.383 . S
C348 C349 1.377 . S
C349 H333 0.930 . S
C349 C348 1.377 . S
C349 C350 1.379 . S
C350 H334 0.931 . S
C350 C344 1.383 . S
C350 C349 1.379 . S
H351 C345 0.959 . S
H352 C345 0.961 . S
H353 C345 0.960 . S
H354 C346 0.930 . S
H355 C347 0.929 . S
H356 C364 0.929 . S
H357 C366 0.930 . S
H358 C368 0.930 . S
H359 C371 0.929 . S
H360 C374 0.930 . S
H361 C376 0.960 . S
H362 C376 0.960 . S
H363 C376 0.960 . S
C364 H356 0.929 . S
C364 C365 1.377 . S
C364 C366 1.384 . S
C365 C364 1.377 . S
C365 C371 1.390 . S
C366 H357 0.930 . S
C366 C364 1.384 . S
C366 C367 1.372 . S
C367 C366 1.372 . S
C367 C368 1.400 . S
C367 C372 1.490 . S
C368 H358 0.930 . S
C368 C367 1.400 . S
C368 C371 1.386 . S
H369 C385 0.930 . S
H370 C386 0.931 . S
C371 H359 0.929 . S
C371 C365 1.390 . S
C371 C368 1.386 . S
C372 C367 1.490 . S
C372 C374 1.395 . S
C372 C375 1.403 . S
H373 C379 0.930 . S
C374 H360 0.930 . S
C374 C372 1.395 . S
C374 C377 1.403 . S
C375 C372 1.403 . S
C375 C376 1.524 . S
C375 C379 1.400 . S
C376 H361 0.960 . S
C376 H362 0.960 . S
C376 H363 0.960 . S
C376 C375 1.524 . S
C377 C374 1.403 . S
C377 C378 1.392 . S
C377 C381 1.495 . S
C378 C377 1.392 . S
C378 C379 1.385 . S
C378 C380 1.478 . S
C379 H373 0.930 . S
C379 C375 1.400 . S
C379 C378 1.385 . S
C380 C378 1.478 . S
C380 C382 1.381 . S
C380 C386 1.383 . S
C381 C377 1.495 . S
C381 H387 0.959 . S
C381 H388 0.961 . S
C381 H389 0.960 . S
C382 C380 1.381 . S
C382 C383 1.394 . S
C382 H390 0.930 . S
C383 C382 1.394 . S
C383 C384 1.383 . S
C383 H391 0.929 . S
C384 C383 1.383 . S
C384 C385 1.377 . S
C385 H369 0.930 . S
C385 C384 1.377 . S
C385 C386 1.379 . S
C386 H370 0.931 . S
C386 C380 1.383 . S
C386 C385 1.379 . S
H387 C381 0.959 . S
H388 C381 0.961 . S
H389 C381 0.960 . S
H390 C382 0.930 . S
H391 C383 0.929 . S
H392 C400 0.929 . S
H393 C402 0.930 . S
H394 C404 0.930 1_545 S
H395 C407 0.929 . S
H396 C410 0.930 . S
H397 C412 0.960 . S
H398 C412 0.960 . S
H399 C412 0.960 . S
C400 H392 0.929 . S
C400 C401 1.377 . S
C400 C402 1.384 . S
C401 C400 1.377 . S
C401 C407 1.390 . S
C402 H393 0.930 . S
C402 C400 1.384 . S
C402 C403 1.372 . S
C403 C402 1.372 . S
C403 C404 1.400 . S
C403 C408 1.490 . S
C404 H394 0.930 1_565 S
C404 C403 1.400 . S
C404 C407 1.386 . S
H405 C421 0.930 . S
H406 C422 0.931 . S
C407 H395 0.929 . S
C407 C401 1.390 . S
C407 C404 1.386 . S
C408 C403 1.490 . S
C408 C410 1.395 1_565 S
C408 C411 1.403 . S
H409 C415 0.930 . S
C410 H396 0.930 . S
C410 C408 1.395 1_545 S
C410 C413 1.403 . S
C411 C408 1.403 . S
C411 C412 1.524 . S
C411 C415 1.400 . S
C412 H397 0.960 . S
C412 H398 0.960 . S
C412 H399 0.960 . S
C412 C411 1.524 . S
C413 C410 1.403 . S
C413 C414 1.392 . S
C413 C417 1.495 . S
C414 C413 1.392 . S
C414 C415 1.385 1_545 S
C414 C416 1.478 . S
C415 H409 0.930 . S
C415 C411 1.400 . S
C415 C414 1.385 1_565 S
C416 C414 1.478 . S
C416 C418 1.381 . S
C416 C422 1.383 . S
C417 C413 1.495 . S
C417 H423 0.959 . S
C417 H424 0.961 . S
C417 H425 0.960 . S
C418 C416 1.381 . S
C418 C419 1.394 . S
C418 H426 0.930 1_545 S
C419 C418 1.394 . S
C419 C420 1.383 . S
C419 H427 0.929 . S
C420 C419 1.383 . S
C420 C421 1.377 . S
C421 H405 0.930 . S
C421 C420 1.377 . S
C421 C422 1.379 . S
C422 H406 0.931 . S
C422 C416 1.383 . S
C422 C421 1.379 . S
H423 C417 0.959 . S
H424 C417 0.961 . S
H425 C417 0.960 . S
H426 C418 0.930 1_565 S
H427 C419 0.929 . S
H428 C436 0.929 1_545 S
H429 C438 0.930 . S
H430 C440 0.930 . S
H431 C443 0.929 . S
H432 C446 0.930 . S
H433 C448 0.960 . S
H434 C448 0.960 . S
H435 C448 0.960 . S
C436 H428 0.929 1_565 S
C436 C437 1.377 . S
C436 C438 1.384 1_565 S
C437 C436 1.377 . S
C437 C443 1.390 . S
C438 H429 0.930 . S
C438 C436 1.384 1_545 S
C438 C439 1.372 1_545 S
C439 C438 1.372 1_565 S
C439 C440 1.400 . S
C439 C444 1.490 . S
C440 H430 0.930 . S
C440 C439 1.400 . S
C440 C443 1.386 . S
H441 C457 0.930 1_565 S
H442 C458 0.943 . S
C443 H431 0.929 . S
C443 C437 1.390 . S
C443 C440 1.386 . S
C444 C439 1.490 . S
C444 C446 1.395 1_565 S
C444 C447 1.403 . S
H445 C451 0.930 1_565 S
C446 H432 0.930 . S
C446 C444 1.395 1_545 S
C446 C449 1.403 . S
C447 C444 1.403 . S
C447 C448 1.524 . S
C447 C451 1.398 1_565 S
C448 H433 0.960 . S
C448 H434 0.960 . S
C448 H435 0.960 . S
C448 C447 1.524 . S
C449 C446 1.403 . S
C449 C450 1.392 . S
C449 C453 1.495 . S
C450 C449 1.392 . S
C450 C451 1.388 . S
C450 C452 1.478 . S
C451 H445 0.930 1_545 S
C451 C447 1.398 1_545 S
C451 C450 1.388 . S
C452 C450 1.478 . S
C452 C454 1.381 . S
C452 C458 1.374 1_545 S
C453 C449 1.495 . S
C453 H459 0.959 . S
C453 H460 0.961 . S
C453 H461 0.960 . S
C454 C452 1.381 . S
C454 C455 1.394 . S
C454 H462 0.930 . S
C455 C454 1.394 . S
C455 C456 1.383 . S
C455 H463 0.929 . S
C456 C455 1.383 . S
C456 C457 1.377 . S
C457 H441 0.930 1_545 S
C457 C456 1.377 . S
C457 C458 1.376 1_545 S
C458 H442 0.943 . S
C458 C452 1.374 1_565 S
C458 C457 1.376 1_565 S
H459 C453 0.959 . S
H460 C453 0.961 . S
H461 C453 0.960 . S
H462 C454 0.930 . S
H463 C455 0.929 . S
H464 C472 0.929 . S
H465 C474 0.930 . S
H466 C476 0.930 1_545 S
H467 C479 0.929 . S
H468 C482 0.930 . S
H469 C484 0.960 . S
H470 C484 0.960 . S
H471 C484 0.960 . S
C472 H464 0.929 . S
C472 C473 1.377 . S
C472 C474 1.384 . S
C473 C472 1.377 . S
C473 C479 1.390 . S
C474 H465 0.930 . S
C474 C472 1.384 . S
C474 C475 1.372 . S
C475 C474 1.372 . S
C475 C476 1.400 . S
C475 C480 1.490 . S
C476 H466 0.930 1_565 S
C476 C475 1.400 . S
C476 C479 1.386 . S
H477 C493 0.930 . S
H478 C494 0.931 . S
C479 H467 0.929 . S
C479 C473 1.390 . S
C479 C476 1.386 . S
C480 C475 1.490 . S
C480 C482 1.395 . S
C480 C483 1.403 . S
H481 C487 0.930 . S
C482 H468 0.930 . S
C482 C480 1.395 . S
C482 C485 1.403 1_565 S
C483 C480 1.403 . S
C483 C484 1.524 . S
C483 C487 1.400 1_565 S
C484 H469 0.960 . S
C484 H470 0.960 . S
C484 H471 0.960 . S
C484 C483 1.524 . S
C485 C482 1.403 1_545 S
C485 C486 1.392 . S
C485 C489 1.495 . S
C486 C485 1.392 . S
C486 C487 1.385 . S
C486 C488 1.478 . S
C487 H481 0.930 . S
C487 C483 1.400 1_545 S
C487 C486 1.385 . S
C488 C486 1.478 . S
C488 C490 1.381 . S
C488 C494 1.383 . S
C489 C485 1.495 . S
C489 H495 0.959 . S
C489 H496 0.961 . S
C489 H497 0.960 1_545 S
C490 C488 1.381 . S
C490 C491 1.394 . S
C490 H498 0.930 1_545 S
C491 C490 1.394 . S
C491 C492 1.383 . S
C491 H499 0.929 1_545 S
C492 C491 1.383 . S
C492 C493 1.377 . S
C493 H477 0.930 . S
C493 C492 1.377 . S
C493 C494 1.379 . S
C494 H478 0.931 . S
C494 C488 1.383 . S
C494 C493 1.379 . S
H495 C489 0.959 . S
H496 C489 0.961 . S
H497 C489 0.960 1_565 S
H498 C490 0.930 1_565 S
H499 C491 0.929 1_565 S
H500 C508 0.929 . S
H501 C510 0.930 . S
H502 C512 0.930 1_545 S
H503 C515 0.929 1_545 S
H504 C518 0.930 . S
H505 C520 0.960 . S
H506 C520 0.960 1_565 S
H507 C520 0.960 . S
C508 H500 0.929 . S
C508 C509 1.377 . S
C508 C510 1.384 . S
C509 C508 1.377 . S
C509 C515 1.390 . S
C510 H501 0.930 . S
C510 C508 1.384 . S
C510 C511 1.372 . S
C511 C510 1.372 . S
C511 C512 1.400 . S
C511 C516 1.490 . S
C512 H502 0.930 1_565 S
C512 C511 1.400 . S
C512 C515 1.386 . S
H513 C529 0.930 . S
H514 C530 0.931 . S
C515 H503 0.929 1_565 S
C515 C509 1.390 . S
C515 C512 1.386 . S
C516 C511 1.490 . S
C516 C518 1.395 . S
C516 C519 1.397 1_565 S
H517 C523 0.930 . S
C518 H504 0.930 . S
C518 C516 1.395 . S
C518 C521 1.403 . S
C519 C516 1.397 1_545 S
C519 C520 1.525 . S
C519 C523 1.404 . S
C520 H505 0.960 . S
C520 H506 0.960 1_545 S
C520 H507 0.960 . S
C520 C519 1.525 . S
C521 C518 1.403 . S
C521 C522 1.392 1_565 S
C521 C525 1.495 . S
C522 C521 1.392 1_545 S
C522 C523 1.385 . S
C522 C524 1.478 . S
C523 H517 0.930 . S
C523 C519 1.404 . S
C523 C522 1.385 . S
C524 C522 1.478 . S
C524 C526 1.381 1_545 S
C524 C530 1.383 . S
C525 C521 1.495 . S
C525 H531 0.959 . S
C525 H532 0.961 1_565 S
C525 H533 0.960 . S
C526 C524 1.381 1_565 S
C526 C527 1.394 1_565 S
C526 H534 0.930 . S
C527 C526 1.394 1_545 S
C527 C528 1.383 . S
C527 H535 0.929 1_545 S
C528 C527 1.383 . S
C528 C529 1.377 . S
C529 H513 0.930 . S
C529 C528 1.377 . S
C529 C530 1.379 . S
C530 H514 0.931 . S
C530 C524 1.383 . S
C530 C529 1.379 . S
H531 C525 0.959 . S
H532 C525 0.961 1_545 S
H533 C525 0.960 . S
H534 C526 0.930 . S
H535 C527 0.929 1_565 S
H536 C544 0.929 . S
H537 C546 0.930 . S
H538 C548 0.930 . S
H539 C551 0.929 . S
H540 C554 0.930 1_556 S
H541 C556 0.960 . S
H542 C556 0.960 . S
H543 C556 0.960 . S
C544 H536 0.929 . S
C544 C545 1.377 . S
C544 C546 1.384 . S
C545 C544 1.377 . S
C545 C551 1.390 1_554 S
C546 H537 0.930 . S
C546 C544 1.384 . S
C546 C547 1.372 . S
C547 C546 1.372 . S
C547 C548 1.400 1_554 S
C547 C552 1.490 . S
C548 H538 0.930 . S
C548 C547 1.400 1_556 S
C548 C551 1.386 . S
H549 C565 0.930 . S
H550 C566 0.931 . S
C551 H539 0.929 . S
C551 C545 1.390 1_556 S
C551 C548 1.386 . S
C552 C547 1.490 . S
C552 C554 1.395 . S
C552 C555 1.403 1_565 S
H553 C559 0.930 . S
C554 H540 0.930 1_554 S
C554 C552 1.395 . S
C554 C557 1.403 . S
C555 C552 1.403 1_545 S
C555 C556 1.524 . S
C555 C559 1.400 . S
C556 H541 0.960 . S
C556 H542 0.960 . S
C556 H543 0.960 . S
C556 C555 1.524 . S
C557 C554 1.403 . S
C557 C558 1.392 1_565 S
C557 C561 1.495 1_554 S
C558 C557 1.392 1_545 S
C558 C559 1.385 . S
C558 C560 1.478 . S
C559 H553 0.930 . S
C559 C555 1.400 . S
C559 C558 1.385 . S
C560 C558 1.478 . S
C560 C562 1.381 . S
C560 C566 1.383 1_554 S
C561 C557 1.495 1_556 S
C561 H567 0.959 . S
C561 H568 0.961 . S
C561 H569 0.960 1_556 S
C562 C560 1.381 . S
C562 C563 1.394 . S
C562 H570 0.930 . S
C563 C562 1.394 . S
C563 C564 1.383 . S
C563 H571 0.929 . S
C564 C563 1.383 . S
C564 C565 1.377 1_554 S
C565 H549 0.930 . S
C565 C564 1.377 1_556 S
C565 C566 1.379 . S
C566 H550 0.931 . S
C566 C560 1.383 1_556 S
C566 C565 1.379 . S
H567 C561 0.959 . S
H568 C561 0.961 . S
H569 C561 0.960 1_554 S
H570 C562 0.930 . S
H571 C563 0.929 . S
H572 C580 0.929 . S
H573 C582 0.930 . S
H574 C584 0.930 . S
H575 C587 0.929 . S
H576 C590 0.930 . S
H577 C592 0.960 . S
H578 C592 0.960 . S
H579 C592 0.960 1_565 S
C580 H572 0.929 . S
C580 C581 1.377 . S
C580 C582 1.384 . S
C581 C580 1.377 . S
C581 C587 1.390 . S
C582 H573 0.930 . S
C582 C580 1.384 . S
C582 C583 1.372 . S
C583 C582 1.372 . S
C583 C584 1.400 . S
C583 C588 1.490 . S
C584 H574 0.930 . S
C584 C583 1.400 . S
C584 C587 1.386 . S
H585 C601 0.930 . S
H586 C602 0.931 . S
C587 H575 0.929 . S
C587 C581 1.390 . S
C587 C584 1.386 . S
C588 C583 1.490 . S
C588 C590 1.395 . S
C588 C591 1.398 1_565 S
H589 C595 0.930 . S
C590 H576 0.930 . S
C590 C588 1.395 . S
C590 C593 1.396 1_565 S
C591 C588 1.398 1_545 S
C591 C592 1.524 . S
C591 C595 1.405 . S
C592 H577 0.960 . S
C592 H578 0.960 . S
C592 H579 0.960 1_545 S
C592 C591 1.524 . S
C593 C590 1.396 1_545 S
C593 C594 1.399 . S
C593 C597 1.495 1_545 S
C594 C593 1.399 . S
C594 C595 1.385 . S
C594 C596 1.478 . S
C595 H589 0.930 . S
C595 C591 1.405 . S
C595 C594 1.385 . S
C596 C594 1.478 . S
C596 C598 1.381 . S
C596 C602 1.383 . S
C597 C593 1.495 1_565 S
C597 H603 0.959 . S
C597 H604 0.961 . S
C597 H605 0.960 1_565 S
C598 C596 1.381 . S
C598 C599 1.394 . S
C598 H606 0.930 . S
C599 C598 1.394 . S
C599 C600 1.383 . S
C599 H607 0.929 . S
C600 C599 1.383 . S
C600 C601 1.377 . S
C601 H585 0.930 . S
C601 C600 1.377 . S
C601 C602 1.379 . S
C602 H586 0.931 . S
C602 C596 1.383 . S
C602 C601 1.379 . S
H603 C597 0.959 . S
H604 C597 0.961 . S
H605 C597 0.960 1_545 S
H606 C598 0.930 . S
H607 C599 0.929 . S
H608 C616 0.929 . S
H609 C618 0.930 . S
H610 C620 0.930 . S
H611 C623 0.929 . S
H612 C626 0.930 . S
H613 C628 0.960 . S
H614 C628 0.960 . S
H615 C628 0.960 1_556 S
C616 H608 0.929 . S
C616 C617 1.377 . S
C616 C618 1.384 . S
C617 C616 1.377 . S
C617 C623 1.390 1_554 S
C618 H609 0.930 . S
C618 C616 1.384 . S
C618 C619 1.372 . S
C619 C618 1.372 . S
C619 C620 1.400 1_554 S
C619 C624 1.490 . S
C620 H610 0.930 . S
C620 C619 1.400 1_556 S
C620 C623 1.386 . S
H621 C637 0.930 . S
H622 C638 0.931 . S
C623 H611 0.929 . S
C623 C617 1.390 1_556 S
C623 C620 1.386 . S
C624 C619 1.490 . S
C624 C626 1.395 1_455 S
C624 C627 1.403 . S
H625 C631 0.929 . S
C626 H612 0.930 . S
C626 C624 1.395 1_655 S
C626 C629 1.403 . S
C627 C624 1.403 . S
C627 C628 1.524 . S
C627 C631 1.367 1_455 S
C628 H613 0.960 . S
C628 H614 0.960 . S
C628 H615 0.960 1_554 S
C628 C627 1.524 . S
C629 C626 1.403 . S
C629 C630 1.392 . S
C629 C633 1.495 . S
C630 C629 1.392 . S
C630 C631 1.420 . S
C630 C632 1.478 . S
C631 H625 0.929 . S
C631 C627 1.367 1_655 S
C631 C630 1.420 . S
C632 C630 1.478 . S
C632 C634 1.381 . S
C632 C638 1.383 1_554 S
C633 C629 1.495 . S
C633 H639 0.959 . S
C633 H640 0.961 1_554 S
C633 H641 0.960 . S
C634 C632 1.381 . S
C634 C635 1.394 . S
C634 H642 0.930 . S
C635 C634 1.394 . S
C635 C636 1.383 . S
C635 H643 0.929 . S
C636 C635 1.383 . S
C636 C637 1.377 1_554 S
C637 H621 0.930 . S
C637 C636 1.377 1_556 S
C637 C638 1.379 . S
C638 H622 0.931 . S
C638 C632 1.383 1_556 S
C638 C637 1.379 . S
H639 C633 0.959 . S
H640 C633 0.961 1_556 S
H641 C633 0.960 . S
H642 C634 0.930 . S
H643 C635 0.929 . S
H644 C652 0.929 . S
H645 C654 0.930 . S
H646 C656 0.930 . S
H647 C659 0.929 . S
H648 C662 0.930 . S
H649 C664 0.960 . S
H650 C664 0.960 . S
H651 C664 0.960 . S
C652 H644 0.929 . S
C652 C653 1.377 . S
C652 C654 1.384 . S
C653 C652 1.377 . S
C653 C659 1.390 . S
C654 H645 0.930 . S
C654 C652 1.384 . S
C654 C655 1.372 . S
C655 C654 1.372 . S
C655 C656 1.400 . S
C655 C660 1.490 . S
C656 H646 0.930 . S
C656 C655 1.400 . S
C656 C659 1.386 . S
H657 C673 0.930 . S
H658 C674 0.931 . S
C659 H647 0.929 . S
C659 C653 1.390 . S
C659 C656 1.386 . S
C660 C655 1.490 . S
C660 C662 1.395 . S
C660 C663 1.403 . S
H661 C667 0.930 . S
C662 H648 0.930 . S
C662 C660 1.395 . S
C662 C665 1.403 1_455 S
C663 C660 1.403 . S
C663 C664 1.524 . S
C663 C667 1.400 1_455 S
C664 H649 0.960 . S
C664 H650 0.960 . S
C664 H651 0.960 . S
C664 C663 1.524 . S
C665 C662 1.403 1_655 S
C665 C666 1.392 . S
C665 C669 1.495 . S
C666 C665 1.392 . S
C666 C667 1.385 . S
C666 C668 1.478 . S
C667 H661 0.930 . S
C667 C663 1.400 1_655 S
C667 C666 1.385 . S
C668 C666 1.478 . S
C668 C670 1.381 . S
C668 C674 1.383 . S
C669 C665 1.495 . S
C669 H675 0.959 . S
C669 H676 0.961 . S
C669 H677 0.960 . S
C670 C668 1.381 . S
C670 C671 1.394 . S
C670 H678 0.930 . S
C671 C670 1.394 . S
C671 C672 1.383 . S
C671 H679 0.929 . S
C672 C671 1.383 . S
C672 C673 1.377 . S
C673 H657 0.930 . S
C673 C672 1.377 . S
C673 C674 1.379 . S
C674 H658 0.931 . S
C674 C668 1.383 . S
C674 C673 1.379 . S
H675 C669 0.959 . S
H676 C669 0.961 . S
H677 C669 0.960 . S
H678 C670 0.930 . S
H679 C671 0.929 . S
C113 C70 1.514 . S
C132 C5 1.517 . S
C149 C55 1.514 . S
C168 C16 1.517 . S
C185 C94 1.515 . S
C204 C31 1.508 . S
C221 C83 1.516 . S
C240 C42 1.511 . S
C257 C3 1.389 . S
C276 C29 1.379 . S
C293 C18 1.391 . S
C312 C44 1.393 . S
C329 C17 1.433 . S
C348 C43 1.423 . S
C365 C10 1.431 . S
C384 C36 1.432 . S
C401 C57 1.388 . S
C420 C81 1.383 . S
C437 C96 1.391 . S
C456 C68 1.386 . S
C473 C95 1.431 . S
C492 C75 1.435 . S
C509 C56 1.430 . S
C528 C88 1.436 . S
C545 C23 1.514 . S
C564 C4 1.511 . S
C581 C30 1.514 . S
C600 C49 1.509 . S
C617 C62 1.514 . S
C636 C69 1.510 . S
C653 C82 1.514 . S
C672 C101 1.512 . S
