# Generated by pormake.
# Topology afw, (4)-cn, num edge types: 1
# Building blocks:
#     Node 0, Type 0, BuildingBlock: QUQFOY_clean_sbu_1, # of connection points: 4
#     Node 1, Type 0, BuildingBlock: QUQFOY_clean_sbu_1, # of connection points: 4
#     Node 2, Type 0, BuildingBlock: QUQFOY_clean_sbu_1, # of connection points: 4
#     Node 3, Type 0, BuildingBlock: QUQFOY_clean_sbu_1, # of connection points: 4
#     Node 4, Type 0, BuildingBlock: QUQFOY_clean_sbu_1, # of connection points: 4
#     Node 5, Type 0, BuildingBlock: QUQFOY_clean_sbu_1, # of connection points: 4
#     Node 6, Type 0, BuildingBlock: QUQFOY_clean_sbu_1, # of connection points: 4
#     Node 7, Type 0, BuildingBlock: QUQFOY_clean_sbu_1, # of connection points: 4
#     Node 8, Type 0, BuildingBlock: QUQFOY_clean_sbu_1, # of connection points: 4
#     Edge 9, Type (0, 0), BuildingBlock: FUNLAD_clean_linker_1, # of connection points: 2
#     Edge 10, Type (0, 0), BuildingBlock: FUNLAD_clean_linker_1, # of connection points: 2
#     Edge 11, Type (0, 0), BuildingBlock: FUNLAD_clean_linker_1, # of connection points: 2
#     Edge 12, Type (0, 0), BuildingBlock: FUNLAD_clean_linker_1, # of connection points: 2
#     Edge 13, Type (0, 0), BuildingBlock: FUNLAD_clean_linker_1, # of connection points: 2
#     Edge 14, Type (0, 0), BuildingBlock: FUNLAD_clean_linker_1, # of connection points: 2
#     Edge 15, Type (0, 0), BuildingBlock: FUNLAD_clean_linker_1, # of connection points: 2
#     Edge 16, Type (0, 0), BuildingBlock: FUNLAD_clean_linker_1, # of connection points: 2
#     Edge 17, Type (0, 0), BuildingBlock: FUNLAD_clean_linker_1, # of connection points: 2
#     Edge 18, Type (0, 0), BuildingBlock: FUNLAD_clean_linker_1, # of connection points: 2
#     Edge 19, Type (0, 0), BuildingBlock: FUNLAD_clean_linker_1, # of connection points: 2
#     Edge 20, Type (0, 0), BuildingBlock: FUNLAD_clean_linker_1, # of connection points: 2
#     Edge 21, Type (0, 0), BuildingBlock: FUNLAD_clean_linker_1, # of connection points: 2
#     Edge 22, Type (0, 0), BuildingBlock: FUNLAD_clean_linker_1, # of connection points: 2
#     Edge 23, Type (0, 0), BuildingBlock: FUNLAD_clean_linker_1, # of connection points: 2
#     Edge 24, Type (0, 0), BuildingBlock: FUNLAD_clean_linker_1, # of connection points: 2
#     Edge 25, Type (0, 0), BuildingBlock: FUNLAD_clean_linker_1, # of connection points: 2
#     Edge 26, Type (0, 0), BuildingBlock: FUNLAD_clean_linker_1, # of connection points: 2
# Relax obj value: 0.125
# Max RMSD: 0.152
# Mean RMSD: 0.152
data_MOF--net-afw--node1-QUQFOY_clean_sbu_1--edge1-FUNLAD_clean_linker_1
_symmetry_space_group_name_H-M    P1
_symmetry_Int_Tables_number       1
_symmetry_cell_setting            triclinic
loop_
_symmetry_equiv_pos_as_xyz
'x, y, z'
_cell_length_a     44.438045
_cell_length_b     44.666667
_cell_length_c     38.436575
_cell_angle_alpha  90.055824
_cell_angle_beta   90.457546
_cell_angle_gamma 119.99547
loop_
_atom_site_label
_atom_site_type_symbol
_atom_site_fract_x
_atom_site_fract_y
_atom_site_fract_z
_atom_type_partial_charge
O0 O 0.07279 0.21563 1.01746 0.0
Cd1 Cd 0.02716 0.21449 1.00362 0.0
Cd2 Cd 0.01562 0.20484 0.07221 0.0
O3 O 0.06347 0.20789 0.07389 0.0
O4 O 0.03592 0.23449 0.95594 0.0
O5 O 0.02214 0.25679 1.00034 0.0
C6 C 0.02984 0.25791 0.9679 0.0
C7 C 1.00466 0.24069 0.10738 0.0
C8 C 0.08222 0.21174 0.04764 0.0
C9 C 0.96639 0.14708 0.02517 0.0
O10 O 0.9745 0.15778 0.05638 0.0
O11 O 0.98367 0.16604 0.99991 0.0
O12 O 1.00521 0.21421 0.12003 0.0
O13 O 0.0107 0.24708 0.07463 0.0
O14 O 0.87288 0.81675 0.04997 0.0
Cd15 Cd 0.82628 0.81547 0.05726 0.0
Cd16 Cd 0.83218 0.82636 0.98633 0.0
O17 O 0.87812 0.82585 0.99331 0.0
O18 O 0.81509 0.79864 0.10602 0.0
O19 O 0.78057 0.7708 0.06139 0.0
C20 C 0.78701 0.77246 0.09435 0.0
C21 C 0.79378 0.79513 0.94099 0.0
C22 C 0.89004 0.82213 0.02218 0.0
C23 C 0.83249 0.88175 0.03133 0.0
O24 O 0.83418 0.87175 1.0008 0.0
O25 O 0.82853 0.86283 0.05751 0.0
O26 O 0.82327 0.82233 0.93511 0.0
O27 O 0.78619 0.78482 0.97277 0.0
O28 O 0.1727 0.9813 0.98655 0.0
Cd29 Cd 0.22128 0.02473 0.98264 0.0
Cd30 Cd 0.21332 0.02183 0.05523 0.0
O31 O 0.169 0.97532 0.04371 0.0
O32 O 0.23154 0.02522 0.9321 0.0
O33 O 0.26263 0.0185 0.97326 0.0
C34 C 0.25653 0.01993 0.94058 0.0
C35 C 0.25019 0.02693 0.10149 0.0
C36 C 0.1563 0.96487 1.01339 0.0
C37 C 0.21595 0.08224 1.01743 0.0
O38 O 0.20978 0.06538 0.04561 0.0
O39 O 0.22362 0.07178 0.98994 0.0
O40 O 0.21946 0.02197 0.10676 0.0
O41 O 0.25985 0.02773 0.06971 0.0
O42 O 0.6337 0.49831 0.38138 0.0
Cd43 Cd 0.67783 0.54212 0.39905 0.0
Cd44 Cd 0.69487 0.54766 0.33002 0.0
O45 O 0.64834 0.50172 0.32614 0.0
O46 O 0.66524 0.55197 0.44561 0.0
O47 O 0.68262 0.58937 0.40219 0.0
C48 C 0.6724 0.58185 0.43397 0.0
C49 C 0.70787 0.58835 0.28612 0.0
C50 C 0.62737 0.48591 0.35067 0.0
C51 C 0.74158 0.53913 0.38212 0.0
O52 O 0.73611 0.54437 0.35079 0.0
O53 O 0.72123 0.53721 0.40611 0.0
O54 O 0.71005 0.56104 0.28109 0.0
O55 O 0.69802 0.59283 0.31625 0.0
O56 O 0.52963 0.16259 0.39149 0.0
Cd57 Cd 0.4805 0.1567 0.39175 0.0
Cd58 Cd 0.49345 0.16714 0.32211 0.0
O59 O 0.53829 0.16616 0.33476 0.0
O60 O 0.46361 0.13908 0.43945 0.0
O61 O 0.43883 0.10851 0.39181 0.0
C62 C 0.4403 0.11057 0.42535 0.0
C63 C 0.45698 0.13429 0.27626 0.0
C64 C 0.5486 0.16574 0.36564 0.0
C65 C 0.48715 0.2217 0.36194 0.0
O66 O 0.49496 0.21301 0.33338 0.0
O67 O 0.4782 0.20174 0.38807 0.0
O68 O 0.48699 0.16093 0.27063 0.0
O69 O 0.44787 0.12542 0.30816 0.0
O70 O 0.87188 0.39376 0.39701 0.0
Cd71 Cd 0.87431 0.34983 0.40734 0.0
Cd72 Cd 0.88107 0.34938 0.33791 0.0
O73 O 0.88369 0.3969 0.341 0.0
O74 O 0.89132 0.35383 0.4563 0.0
O75 O 0.92098 0.35321 0.41044 0.0
C76 C 0.91923 0.35605 0.44372 0.0
C77 C 0.9189 0.34118 0.30263 0.0
C78 C 0.87715 0.40908 0.36796 0.0
C79 C 0.81526 0.29214 0.36979 0.0
O80 O 0.83215 0.30663 0.34248 0.0
O81 O 0.82811 0.304 0.39976 0.0
O82 O 0.89457 0.34547 0.28946 0.0
O83 O 0.92279 0.34294 0.33601 0.0
O84 O 0.39387 0.87731 0.65628 0.0
Cd85 Cd 0.34988 0.88185 0.65524 0.0
Cd86 Cd 0.35427 0.87514 0.7253 0.0
O87 O 0.40044 0.87707 0.71327 0.0
O88 O 0.34986 0.90026 0.60799 0.0
O89 O 0.35494 0.92922 0.65652 0.0
C90 C 0.35429 0.92805 0.62294 0.0
C91 C 0.35111 0.90725 0.77169 0.0
C92 C 0.41062 0.87615 0.68266 0.0
C93 C 0.29305 0.81764 0.68696 0.0
O94 O 0.31013 0.82836 0.71533 0.0
O95 O 0.30316 0.83613 0.65976 0.0
O96 O 0.35522 0.88104 0.77683 0.0
O97 O 0.3498 0.91614 0.73997 0.0
O98 O 0.20208 0.48743 0.73195 0.0
Cd99 Cd 0.15653 0.48765 0.74117 0.0
Cd100 Cd 0.15949 0.49264 0.67009 0.0
O101 O 0.20436 0.48982 0.67461 0.0
O102 O 0.15243 0.47806 0.79199 0.0
O103 O 0.11284 0.44326 0.75381 0.0
C104 C 0.12403 0.44977 0.78557 0.0
C105 C 0.11197 0.45425 0.63632 0.0
C106 C 0.21736 0.48863 0.70381 0.0
C107 C 0.16353 0.55249 0.70977 0.0
O108 O 0.16517 0.54048 0.68029 0.0
O109 O 0.1585 0.53486 0.73726 0.0
O110 O 0.13959 0.47879 0.62222 0.0
O111 O 0.11175 0.45078 0.66972 0.0
O112 O 0.49651 0.64098 0.66578 0.0
Cd113 Cd 0.54383 0.68537 0.66068 0.0
Cd114 Cd 0.54038 0.67914 0.73326 0.0
O115 O 0.49544 0.63279 0.72251 0.0
O116 O 0.55058 0.68472 0.60955 0.0
O117 O 0.58633 0.68221 0.64827 0.0
C118 C 0.57721 0.68147 0.61614 0.0
C119 C 0.57991 0.68279 0.77593 0.0
C120 C 0.48153 0.62332 0.69249 0.0
C121 C 0.53955 0.74059 0.7007 0.0
O122 O 0.53671 0.72316 0.72781 0.0
O123 O 0.5445 0.73115 0.67106 0.0
O124 O 0.54964 0.6777 0.78396 0.0
O125 O 0.58754 0.68451 0.74335 0.0
H126 H 0.21227 0.12358 0.98974 0.0
C127 C 0.20955 0.11159 1.015 0.0
H128 H 0.19223 0.10829 0.06674 0.0
H129 H 0.18542 0.24744 0.05525 0.0
H130 H 0.24061 0.27028 0.08606 0.0
H131 H 0.26836 0.23471 0.09397 0.0
H132 H 0.24115 0.17607 0.07106 0.0
C133 C 0.19542 0.12007 0.04131 0.0
C134 C 0.17947 0.14208 0.03551 0.0
C135 C 0.19558 0.17615 0.04917 0.0
C136 C 0.17944 0.19657 0.04486 0.0
C137 C 0.19633 0.23069 0.05831 0.0
C138 C 0.22805 0.24413 0.07589 0.0
C139 C 0.24369 0.22411 0.08033 0.0
C140 C 0.2278 0.19051 0.06711 0.0
H141 H 0.11666 0.1987 0.07743 0.0
C142 C 0.11193 0.20585 0.05178 0.0
H143 H 0.12286 0.20821 0.99823 0.0
H144 H 0.13982 0.07647 1.00871 0.0
H145 H 0.08491 0.05381 0.97804 0.0
H146 H 0.058 0.08992 0.96871 0.0
H147 H 0.0854 0.14852 0.99081 0.0
C148 C 0.12855 0.20264 0.0242 0.0
C149 C 0.14711 0.18274 0.02707 0.0
C150 C 0.13117 0.14875 1.01304 0.0
C151 C 0.14708 0.12822 1.0177 0.0
C152 C 0.12956 0.09369 1.00507 0.0
C153 C 0.09783 0.0802 0.98756 0.0
C154 C 0.08263 0.10047 0.98242 0.0
C155 C 0.09881 0.13422 0.99514 0.0
H156 H 0.84152 0.92621 0.06394 0.0
C157 C 0.83973 0.91741 0.03722 0.0
H158 H 0.84907 0.9322 0.98451 0.0
H159 H 0.8639 0.07376 0.05952 0.0
H160 H 0.80143 0.04019 0.06767 0.0
H161 H 0.76877 0.97799 0.05311 0.0
H162 H 0.79836 0.94892 0.03035 0.0
C163 C 0.84924 0.94036 1.01119 0.0
C164 C 0.86804 0.97809 1.01866 0.0
C165 C 0.85032 0.99463 0.03182 0.0
C166 C 0.86912 0.03056 0.03996 0.0
C167 C 0.85084 0.04652 0.05295 0.0
C168 C 0.81501 0.02758 0.05771 0.0
C169 C 0.79662 0.99254 0.04954 0.0
C170 C 0.81392 0.97613 0.03664 0.0
H171 H 0.93433 0.10261 0.99082 0.0
C172 C 0.93948 0.111 1.01786 0.0
H173 H 0.93002 0.09499 0.0704 0.0
H174 H 0.90992 0.95429 0.99345 0.0
H175 H 0.97232 0.98747 0.98654 0.0
H176 H 1.00523 0.04903 1.0033 0.0
H177 H 0.97584 0.07809 0.02587 0.0
C178 C 0.92522 0.08736 0.04317 0.0
C179 C 0.90548 0.0498 0.03476 0.0
C180 C 0.9233 0.0331 0.0221 0.0
C181 C 0.90445 0.99735 1.01347 0.0
C182 C 0.92284 0.98139 1.00051 0.0
C183 C 0.95875 1.00009 0.99652 0.0
C184 C 0.97726 0.03478 1.00581 0.0
C185 C 0.95995 0.0512 1.01855 0.0
H186 H 0.93454 0.82393 0.04988 0.0
C187 C 0.92616 0.8292 0.02511 0.0
H188 H 0.94265 0.85581 0.97749 0.0
H189 H 0.08209 0.96899 0.05063 0.0
H190 H 0.04687 0.996 0.05762 0.0
H191 H 0.98419 0.96403 0.0438 0.0
H192 H 0.95649 0.90517 0.02199 0.0
C193 C 0.95018 0.84812 1.00133 0.0
C194 C 0.98776 0.86644 1.01078 0.0
C195 C 1.00356 0.90091 0.02345 0.0
C196 C 0.03958 0.91913 0.03199 0.0
C197 C 0.05475 0.95371 0.04412 0.0
C198 C 0.03485 0.9696 0.04821 0.0
C199 C 0.99958 0.95165 0.0403 0.0
C200 C 0.98401 0.9178 0.0279 0.0
H201 H 0.111 0.92793 0.98217 0.0
C202 C 0.12045 0.93587 1.00867 0.0
H203 H 0.10638 0.93236 0.06142 0.0
H204 H 0.96533 0.80077 0.98757 0.0
H205 H 1.00026 0.77308 0.98179 0.0
H206 H 0.06261 0.80434 0.99744 0.0
H207 H 0.09051 0.86354 1.01885 0.0
C208 C 0.09785 0.92311 0.03501 0.0
C209 C 0.0598 0.90289 0.02776 0.0
C210 C 0.04386 0.86823 1.01565 0.0
C211 C 0.00779 0.85002 1.00704 0.0
C212 C 0.99257 0.81561 0.99467 0.0
C213 C 0.01232 0.79946 0.99123 0.0
C214 C 0.04744 0.81708 1.00001 0.0
C215 C 0.06317 0.85107 1.01213 0.0
H216 H 0.87245 0.4488 0.33824 0.0
C217 C 0.87057 0.43818 0.36409 0.0
H218 H 0.8543 0.43707 0.41593 0.0
H219 H 0.84326 0.57338 0.39598 0.0
H220 H 0.89906 0.59904 0.42607 0.0
H221 H 0.92823 0.56516 0.4367 0.0
H222 H 0.90183 0.50539 0.41725 0.0
C223 C 0.85676 0.44758 0.38996 0.0
C224 C 0.83974 0.46838 0.38295 0.0
C225 C 0.85538 0.50311 0.39464 0.0
C226 C 0.83848 0.5226 0.38868 0.0
C227 C 0.85486 0.55737 0.40019 0.0
C228 C 0.88689 0.5724 0.41739 0.0
C229 C 0.90333 0.55333 0.42336 0.0
C230 C 0.88791 0.51908 0.41213 0.0
H231 H 0.77118 0.52344 0.41664 0.0
C232 C 0.76907 0.53074 0.39014 0.0
H233 H 0.78449 0.53248 0.33801 0.0
H234 H 0.80062 0.40107 0.36034 0.0
H235 H 0.74497 0.37556 0.33064 0.0
H236 H 0.71639 0.40979 0.31904 0.0
H237 H 0.74343 0.46978 0.33704 0.0
C238 C 0.78762 0.52687 0.36487 0.0
C239 C 0.80593 0.50718 0.37118 0.0
C240 C 0.79017 0.47236 0.35963 0.0
C241 C 0.80686 0.45278 0.3659 0.0
C242 C 0.78971 0.41756 0.35545 0.0
C243 C 0.75755 0.40244 0.33857 0.0
C244 C 0.74147 0.4217 0.33204 0.0
C245 C 0.75737 0.45619 0.34247 0.0
H246 H 0.48876 0.26449 0.39225 0.0
C247 C 0.49339 0.25717 0.36672 0.0
H248 H 0.51528 0.27514 0.31711 0.0
H249 H 0.52532 0.42172 0.33607 0.0
H250 H 0.4723 0.39322 0.30128 0.0
H251 H 0.44344 0.33057 0.2892 0.0
H252 H 0.46733 0.29595 0.31194 0.0
C253 C 0.51003 0.28177 0.34268 0.0
C254 C 0.5262 0.31913 0.35154 0.0
C255 C 0.51203 0.33897 0.33798 0.0
C256 C 0.52884 0.37516 0.34469 0.0
C257 C 0.51387 0.39427 0.33125 0.0
C258 C 0.4834 0.3782 0.31139 0.0
C259 C 0.46712 0.34291 0.30461 0.0
C260 C 0.48112 0.32337 0.31774 0.0
H261 H 0.59534 0.44007 0.31789 0.0
C262 C 0.59823 0.45062 0.34401 0.0
H263 H 0.58326 0.43935 0.39648 0.0
H264 H 0.56186 0.28917 0.37962 0.0
H265 H 0.61451 0.31758 0.41435 0.0
H266 H 0.64299 0.38006 0.42693 0.0
H267 H 0.61886 0.41442 0.40487 0.0
C268 C 0.57939 0.42958 0.36995 0.0
C269 C 0.55994 0.39142 0.36472 0.0
C270 C 0.57386 0.37147 0.37876 0.0
C271 C 0.55722 0.33538 0.37183 0.0
C272 C 0.57273 0.31647 0.38476 0.0
C273 C 0.60319 0.33251 0.40457 0.0
C274 C 0.61922 0.36767 0.41165 0.0
C275 C 0.60496 0.38707 0.39886 0.0
H276 H 0.59112 0.17015 0.39915 0.0
C277 C 0.58431 0.1729 0.37256 0.0
H278 H 0.60376 0.19309 0.32287 0.0
H279 H 0.7448 0.3074 0.39355 0.0
H280 H 0.71476 0.33985 0.38739 0.0
H281 H 0.65347 0.31117 0.36818 0.0
H282 H 0.62164 0.24968 0.35564 0.0
C283 C 0.60962 0.18793 0.34894 0.0
C284 C 0.64673 0.20484 0.35998 0.0
C285 C 0.66494 0.24082 0.36728 0.0
C286 C 0.7003 0.25736 0.37825 0.0
C287 C 0.71786 0.29338 0.38528 0.0
C288 C 0.70095 0.3124 0.38178 0.0
C289 C 0.66643 0.29623 0.37104 0.0
C290 C 0.64848 0.2609 0.36388 0.0
H291 H 0.77015 0.25362 0.33957 0.0
C292 C 0.77889 0.26417 0.36559 0.0
H293 H 0.76313 0.26853 0.41606 0.0
H294 H 0.61938 0.13576 0.3477 0.0
H295 H 0.64928 0.10299 0.35428 0.0
H296 H 0.71055 0.1316 0.37371 0.0
H297 H 0.74238 0.19318 0.38665 0.0
C298 C 0.75522 0.25626 0.39062 0.0
C299 C 0.71754 0.23798 0.38146 0.0
C300 C 0.69927 0.20198 0.37436 0.0
C301 C 0.6638 0.18539 0.36356 0.0
C302 C 0.64624 0.1495 0.3563 0.0
C303 C 0.6631 0.13044 0.35992 0.0
C304 C 0.69763 0.14657 0.37082 0.0
C305 C 0.71563 0.18191 0.37803 0.0
H306 H 0.44682 0.86831 0.65032 0.0
C307 C 0.43909 0.8688 0.677 0.0
H308 H 0.44309 0.8562 0.72924 0.0
H309 H 0.46762 0.74043 0.65032 0.0
H310 H 0.40615 0.71334 0.63692 0.0
H311 H 0.3733 0.74295 0.65011 0.0
H312 H 0.40162 0.79963 0.67698 0.0
C313 C 0.45091 0.85665 0.70245 0.0
C314 C 0.47092 0.83904 0.69417 0.0
C315 C 0.45371 0.80556 0.6788 0.0
C316 C 0.47255 0.7883 0.67158 0.0
C317 C 0.45469 0.75484 0.65634 0.0
C318 C 0.41933 0.73889 0.64856 0.0
C319 C 0.40084 0.75556 0.65599 0.0
C320 C 0.41758 0.78833 0.67116 0.0
H321 H 0.5282 0.7762 0.72978 0.0
C322 C 0.53276 0.76961 0.70385 0.0
H323 H 0.52904 0.77632 0.64997 0.0
H324 H 0.51142 0.9027 0.72374 0.0
H325 H 0.573 0.92963 0.73775 0.0
H326 H 0.60565 0.8996 0.72529 0.0
H327 H 0.57695 0.84241 0.69878 0.0
C328 C 0.52657 0.78406 0.67612 0.0
C329 C 0.5083 0.80408 0.68058 0.0
C330 C 0.52552 0.83757 0.69576 0.0
C331 C 0.50675 0.85501 0.70268 0.0
C332 C 0.5245 0.88836 0.71797 0.0
C333 C 0.55981 0.9041 0.72609 0.0
C334 C 0.57819 0.88717 0.7191 0.0
C335 C 0.5614 0.85431 0.70404 0.0
H336 H 0.25221 0.77217 0.65866 0.0
C337 C 0.26421 0.78159 0.68408 0.0
H338 H 0.26969 0.76793 0.73533 0.0
H339 H 0.13179 0.621 0.6847 0.0
H340 H 0.09996 0.6521 0.68795 0.0
H341 H 0.13069 0.71504 0.69875 0.0
H342 H 0.19347 0.74735 0.70629 0.0
C343 C 0.25658 0.75909 0.7103 0.0
C344 C 0.23741 0.72119 0.70375 0.0
C345 C 0.20078 0.70277 0.69957 0.0
C346 C 0.18301 0.66641 0.69371 0.0
C347 C 0.14646 0.64858 0.68947 0.0
C348 C 0.12793 0.66612 0.69124 0.0
C349 C 0.14524 0.70158 0.69729 0.0
C350 C 0.18125 0.71983 0.70149 0.0
H351 H 0.17136 0.59857 0.7388 0.0
C352 C 0.17159 0.58871 0.71299 0.0
H353 H 0.18593 0.60166 0.66048 0.0
H354 H 0.30794 0.7488 0.71048 0.0
H355 H 0.33953 0.71771 0.7071 0.0
H356 H 0.30881 0.65491 0.69588 0.0
H357 H 0.24612 0.62257 0.68914 0.0
C358 C 0.18388 0.61072 0.68612 0.0
C359 C 0.20194 0.64868 0.69206 0.0
C360 C 0.23862 0.66716 0.69588 0.0
C361 C 0.25634 0.7034 0.70201 0.0
C362 C 0.29302 0.7212 0.70592 0.0
C363 C 0.31156 0.7037 0.70391 0.0
C364 C 0.29424 0.66832 0.69773 0.0
C365 C 0.25823 0.6501 0.69383 0.0
H366 H 0.26093 0.48921 0.7318 0.0
C367 C 0.25262 0.49349 0.7065 0.0
H368 H 0.26949 0.51641 0.65715 0.0
H369 H 0.40849 0.6206 0.74455 0.0
H370 H 0.37387 0.64641 0.76047 0.0
H371 H 0.31169 0.61816 0.74475 0.0
H372 H 0.28392 0.56424 0.71255 0.0
C373 C 0.27663 0.51005 0.68201 0.0
C374 C 0.3142 0.5268 0.69126 0.0
C375 C 0.33016 0.55863 0.70983 0.0
C376 C 0.36602 0.57491 0.71889 0.0
C377 C 0.38131 0.60686 0.73716 0.0
C378 C 0.36175 0.62207 0.74643 0.0
C379 C 0.32677 0.6062 0.73754 0.0
C380 C 0.31109 0.57504 0.71925 0.0
H381 H 0.43518 0.5882 0.66178 0.0
C382 C 0.44575 0.5942 0.68813 0.0
H383 H 0.43398 0.58622 0.74151 0.0
H384 H 0.29141 0.4661 0.65594 0.0
H385 H 0.32587 0.43964 0.64051 0.0
H386 H 0.38796 0.4675 0.6568 0.0
H387 H 0.41606 0.52202 0.68853 0.0
C388 C 0.42432 0.57916 0.71498 0.0
C389 C 0.38602 0.55966 0.70885 0.0
C390 C 0.36991 0.52757 0.69078 0.0
C391 C 0.33398 0.51124 0.6818 0.0
C392 C 0.31859 0.47943 0.66347 0.0
C393 C 0.33805 0.46401 0.6545 0.0
C394 C 0.37303 0.47972 0.66364 0.0
C395 C 0.38889 0.51109 0.68165 0.0
H396 H 0.01671 0.29762 0.95197 0.0
C397 C 0.03138 0.28506 0.94496 0.0
H398 H 0.06543 0.28171 0.90961 0.0
H399 H 0.04845 0.34299 0.77311 0.0
H400 H 0.02728 0.28334 0.7572 0.0
H401 H 0.01555 0.23948 0.80204 0.0
H402 H 0.02564 0.25527 0.86307 0.0
C403 C 0.051 0.29465 0.9162 0.0
C404 C 0.05197 0.32033 0.8907 0.0
C405 C 0.04428 0.31041 0.85516 0.0
C406 C 0.04992 0.3355 0.82938 0.0
C407 C 0.04404 0.32509 0.79395 0.0
C408 C 0.03185 0.29082 0.78438 0.0
C409 C 0.02531 0.26614 0.8096 0.0
C410 C 0.03141 0.27565 0.84457 0.0
H411 H 0.12367 0.42758 0.83631 0.0
C412 C 0.1075 0.4246 0.81372 0.0
H413 H 0.05868 0.39479 0.78951 0.0
H414 H 0.07267 0.35019 0.95585 0.0
H415 H 0.08588 0.40775 0.97242 0.0
H416 H 0.08506 0.44788 0.92885 0.0
H417 H 0.0726 0.43089 0.86799 0.0
C418 C 0.0748 0.39787 0.81212 0.0
C419 C 0.06195 0.3703 0.8393 0.0
C420 C 0.06545 0.37917 0.87519 0.0
C421 C 0.06256 0.35486 0.90075 0.0
C422 C 0.07148 0.36635 0.93567 0.0
C423 C 0.0796 0.39961 0.94552 0.0
C424 C 0.07936 0.42228 0.92097 0.0
C425 C 0.07247 0.41233 0.88616 0.0
H426 H 0.77852 0.78708 0.88567 0.0
C427 C 0.76926 0.77795 0.91178 0.0
H428 H 0.72588 0.74455 0.9421 0.0
H429 H 0.65786 0.76661 0.79527 0.0
H430 H 0.68381 0.82652 0.81347 0.0
H431 H 0.72104 0.84769 0.86597 0.0
H432 H 0.73294 0.80931 0.90025 0.0
C433 C 0.73563 0.75426 0.91628 0.0
C434 C 0.71079 0.741 0.88617 0.0
C435 C 0.70327 0.7637 0.86695 0.0
C436 C 0.68081 0.75124 0.83735 0.0
C437 C 0.6744 0.77461 0.8182 0.0
C438 C 0.68909 0.80907 0.82836 0.0
C439 C 0.71012 0.82101 0.85786 0.0
C440 C 0.71705 0.7987 0.87712 0.0
H441 H 0.59607 0.68458 0.83054 0.0
C442 C 0.60529 0.68872 0.80389 0.0
H443 H 0.64954 0.7091 0.77187 0.0
H444 H 0.71842 0.69033 0.91781 0.0
H445 H 0.69019 0.62981 0.90097 0.0
H446 H 0.65009 0.60805 0.85053 0.0
H447 H 0.63803 0.64674 0.8165 0.0
C448 C 0.63947 0.7028 0.79813 0.0
C449 C 0.66463 0.71583 0.82786 0.0
C450 C 0.67132 0.69295 0.84755 0.0
C451 C 0.69444 0.70554 0.8767 0.0
C452 C 0.70095 0.68214 0.8956 0.0
C453 C 0.68495 0.64735 0.88618 0.0
C454 C 0.66236 0.63509 0.85778 0.0
C455 C 0.65559 0.65752 0.83854 0.0
H456 H 0.34926 0.91679 0.82761 0.0
C457 C 0.34605 0.92476 0.80177 0.0
H458 H 0.33117 0.95566 0.77307 0.0
H459 H 0.25242 0.93474 0.92527 0.0
H460 H 0.21886 0.87418 0.90912 0.0
H461 H 0.2323 0.85253 0.85582 0.0
H462 H 0.27954 0.89111 0.81866 0.0
C463 C 0.33432 0.94713 0.79861 0.0
C464 C 0.32475 0.96037 0.82984 0.0
C465 C 0.29637 0.93743 0.85091 0.0
C466 C 0.28789 0.9501 0.88108 0.0
C467 C 0.2598 0.92659 0.90191 0.0
C468 C 0.24028 0.89174 0.89293 0.0
C469 C 0.2479 0.87954 0.86298 0.0
C470 C 0.27541 0.90199 0.84203 0.0
H471 H 0.2705 0.01789 0.88623 0.0
C472 C 0.2756 0.01364 0.91297 0.0
H473 H 0.29891 0.99262 0.94535 0.0
H474 H 0.3801 0.01131 0.79501 0.0
H475 H 0.41228 0.07227 0.81029 0.0
H476 H 0.39669 0.09426 0.86196 0.0
H477 H 0.34883 0.05539 0.89877 0.0
C478 C 0.29527 0.99914 0.91902 0.0
C479 C 0.30673 0.98583 0.88937 0.0
C480 C 0.33474 0.0088 0.86815 0.0
C481 C 0.34375 0.99607 0.83836 0.0
C482 C 0.37202 0.0196 0.8178 0.0
C483 C 0.39075 0.05464 0.82631 0.0
C484 C 0.38196 0.06704 0.8554 0.0
C485 C 0.35436 0.04449 0.87622 0.0
H486 H 0.44377 0.12413 0.22052 0.0
C487 C 0.43352 0.11613 0.24656 0.0
H488 H 0.38843 0.08592 0.27613 0.0
H489 H 0.30134 0.0994 0.1493 0.0
H490 H 0.30495 0.14406 0.18768 0.0
H491 H 0.3404 0.15989 0.24143 0.0
H492 H 0.37289 0.1314 0.25679 0.0
C493 C 0.39967 0.09293 0.25036 0.0
C494 C 0.37582 0.08072 0.21955 0.0
C495 C 0.35581 0.09655 0.21164 0.0
C496 C 0.3344 0.08655 0.18123 0.0
C497 C 0.31668 0.10464 0.17283 0.0
C498 C 0.31882 0.13068 0.19448 0.0
C499 C 0.33885 0.13965 0.22469 0.0
C500 C 0.35732 0.12303 0.23321 0.0
H501 H 0.26269 0.02974 0.15734 0.0
C502 C 0.27374 0.03362 0.13148 0.0
H503 H 0.31993 0.05202 0.10271 0.0
H504 H 0.41035 0.0449 0.22753 0.0
H505 H 0.40658 0.99971 0.1894 0.0
H506 H 0.36843 0.98128 0.13745 0.0
H507 H 0.33385 0.00792 0.12318 0.0
C508 C 0.30833 0.04797 0.12829 0.0
C509 C 0.33179 0.05953 0.15954 0.0
C510 C 0.35191 0.04377 0.16747 0.0
C511 C 0.37394 0.05439 0.19748 0.0
C512 C 0.39347 0.03799 0.20492 0.0
C513 C 0.39145 0.01197 0.18332 0.0
C514 C 0.36996 1.00158 0.15407 0.0
C515 C 0.35029 0.01713 0.14615 0.0
H516 H 0.99426 0.28347 0.1172 0.0
C517 C 0.99609 0.26246 0.12936 0.0
H518 H 0.9894 0.23413 0.17541 0.0
H519 H 0.99711 0.37561 0.24017 0.0
H520 H 0.05795 0.4049 0.2241 0.0
H521 H 0.08174 0.37461 0.19027 0.0
H522 H 0.04478 0.31496 0.17198 0.0
C523 C 0.98885 0.25584 0.16331 0.0
C524 C 0.97517 0.27441 0.1842 0.0
C525 C 0.99731 0.30906 0.19522 0.0
C526 C 0.98379 0.32627 0.2155 0.0
C527 C 0.00621 0.36113 0.22538 0.0
C528 C 0.04115 0.37826 0.21623 0.0
C529 C 0.05453 0.36122 0.19712 0.0
C530 C 0.033 0.32702 0.18669 0.0
H531 H 0.95867 0.32629 0.29289 0.0
C532 C 0.93984 0.33166 0.28046 0.0
H533 H 0.91365 0.32996 0.23379 0.0
H534 H 0.9257 0.20803 0.16719 0.0
H535 H 0.86523 0.17844 0.18423 0.0
H536 H 0.84207 0.20785 0.22036 0.0
H537 H 0.8792 0.26702 0.23959 0.0
C538 C 0.93354 0.3261 0.2461 0.0
C539 C 0.94834 0.30857 0.22519 0.0
C540 C 0.92628 0.27387 0.21428 0.0
C541 C 0.93971 0.25678 0.19381 0.0
C542 C 0.91699 0.22218 0.1831 0.0
C543 C 0.88217 0.20488 0.19263 0.0
C544 C 0.86913 0.22144 0.21293 0.0
C545 C 0.89076 0.25549 0.22372 0.0
H546 H 0.73526 0.61382 0.23836 0.0
C547 C 0.71796 0.61395 0.25812 0.0
H548 H 0.68862 0.63634 0.27498 0.0
H549 H 0.77984 0.77905 0.19894 0.0
H550 H 0.78018 0.79637 0.25876 0.0
H551 H 0.75295 0.75279 0.30488 0.0
H552 H 0.72473 0.69169 0.2914 0.0
C553 C 0.70608 0.63625 0.25542 0.0
C554 C 0.71838 0.66247 0.22695 0.0
C555 C 0.73512 0.69815 0.23542 0.0
C556 C 0.75178 0.72331 0.20897 0.0
C557 C 0.76763 0.7588 0.21808 0.0
C558 C 0.76788 0.76914 0.25232 0.0
C559 C 0.75249 0.74461 0.27826 0.0
C560 C 0.73633 0.70953 0.2701 0.0
H561 H 0.73652 0.72802 0.11007 0.0
C562 C 0.76337 0.74486 0.11808 0.0
H563 H 0.80211 0.7568 0.15611 0.0
H564 H 0.67893 0.5973 0.19991 0.0
H565 H 0.68018 0.57931 0.14056 0.0
H566 H 0.7172 0.62185 0.09668 0.0
H567 H 0.75176 0.68249 0.11136 0.0
C568 C 0.77516 0.73966 0.14854 0.0
C569 C 0.75278 0.71284 0.17429 0.0
C570 C 0.73485 0.67708 0.16558 0.0
C571 C 0.71606 0.65211 0.19161 0.0
C572 C 0.69554 0.61696 0.18164 0.0
C573 C 0.69577 0.60634 0.14763 0.0
C574 C 0.71642 0.63032 0.12289 0.0
C575 C 0.73588 0.66525 0.13162 0.0
H576 H 0.05747 0.41264 0.62843 0.0
C577 C 0.08056 0.43203 0.61522 0.0
H578 H 0.10162 0.45749 0.56782 0.0
H579 H 0.95903 0.31919 0.50882 0.0
H580 H 0.98694 0.28664 0.52634 0.0
H581 H 0.04229 0.31471 0.55926 0.0
H582 H 0.06994 0.37543 0.5752 0.0
C583 C 0.07908 0.43715 0.58091 0.0
C584 C 0.0457 0.41966 0.56097 0.0
C585 C 0.03019 0.3843 0.55138 0.0
C586 C 0.99867 0.3683 0.53161 0.0
C587 C 0.98331 0.33277 0.52314 0.0
C588 C 0.99899 0.31377 0.53314 0.0
C589 C 0.03013 0.32957 0.55174 0.0
C590 C 0.04568 0.36441 0.56081 0.0
H591 H 0.97292 0.36736 0.45414 0.0
C592 C 0.94956 0.36437 0.46625 0.0
H593 H 0.92739 0.37034 0.51221 0.0
H594 H 0.06831 0.48779 0.57536 0.0
H595 H 0.0411 0.52058 0.55684 0.0
H596 H 0.98723 0.49322 0.52155 0.0
H597 H 0.96018 0.4329 0.50468 0.0
C598 C 0.95013 0.37171 0.50028 0.0
C599 C 0.98307 0.38786 0.52099 0.0
C600 C 0.99864 0.42323 0.53057 0.0
C601 C 0.02994 0.43912 0.55053 0.0
C602 C 0.04476 0.47446 0.55988 0.0
C603 C 0.02937 0.4936 0.54948 0.0
C604 C 0.99902 0.47819 0.52966 0.0
C605 C 0.98373 0.44347 0.52023 0.0
H606 H 0.6861 0.63442 0.45145 0.0
C607 C 0.66978 0.60704 0.45677 0.0
H608 H 0.63179 0.56888 0.48859 0.0
H609 H 0.64279 0.63938 0.6288 0.0
H610 H 0.65837 0.59641 0.64399 0.0
H611 H 0.67053 0.56503 0.59852 0.0
H612 H 0.66639 0.576 0.53752 0.0
C613 C 0.64785 0.59644 0.48382 0.0
C614 C 0.64668 0.6204 0.51029 0.0
C615 C 0.65101 0.61507 0.54599 0.0
C616 C 0.64533 0.63416 0.57226 0.0
C617 C 0.64762 0.62646 0.60764 0.0
C618 C 0.65653 0.60172 0.61682 0.0
C619 C 0.66329 0.584 0.59124 0.0
C620 C 0.66061 0.59046 0.55625 0.0
H621 H 0.57825 0.66264 0.56384 0.0
C622 C 0.59362 0.67305 0.58751 0.0
H623 H 0.64012 0.68568 0.61386 0.0
H624 H 0.63261 0.63582 0.44481 0.0
H625 H 0.625 0.68414 0.42952 0.0
H626 H 0.62599 0.72391 0.47469 0.0
H627 H 0.63297 0.71436 0.53573 0.0
C628 C 0.62489 0.67535 0.59015 0.0
C629 C 0.63682 0.65977 0.5628 0.0
C630 C 0.63646 0.66779 0.52709 0.0
C631 C 0.6393 0.64684 0.50082 0.0
C632 C 0.63366 0.65249 0.4657 0.0
C633 C 0.62879 0.67996 0.45655 0.0
C634 C 0.62912 0.70221 0.48199 0.0
C635 C 0.63283 0.69628 0.51689 0.0
H636 H 0.36851 0.9827 0.616 0.0
C637 C 0.36142 0.95874 0.60229 0.0
H638 H 0.35561 0.93478 0.55325 0.0
H639 H 0.3531 0.05846 0.47228 0.0
H640 H 0.29094 0.01904 0.4755 0.0
H641 H 0.26744 0.96628 0.51113 0.0
H642 H 0.306 0.95277 0.54405 0.0
C643 C 0.3628 0.95856 0.56735 0.0
C644 C 0.37684 0.99095 0.54678 0.0
C645 C 0.35408 0.99819 0.52722 0.0
C646 C 0.3677 0.02832 0.50615 0.0
C647 C 0.34425 0.0355 0.48791 0.0
C648 C 0.30849 0.01319 0.48971 0.0
C649 C 0.29525 0.9835 0.50981 0.0
C650 C 0.31765 0.976 0.5285 0.0
H651 H 0.40255 0.0553 0.43415 0.0
C652 C 0.41801 0.0802 0.44696 0.0
H653 H 0.43538 0.10699 0.49471 0.0
H654 H 0.42789 0.98387 0.57977 0.0
H655 H 0.48993 0.02285 0.57624 0.0
H656 H 0.51363 0.07497 0.5397 0.0
H657 H 0.47543 0.08834 0.50641 0.0
C658 C 0.41917 0.08221 0.48193 0.0
C659 C 0.40415 0.05077 0.50417 0.0
C660 C 0.42691 0.04357 0.52391 0.0
C661 C 0.41326 0.01358 0.5451 0.0
C662 C 0.4367 0.00654 0.56369 0.0
C663 C 0.47246 0.02864 0.5618 0.0
C664 C 0.48579 0.05797 0.54123 0.0
C665 C 0.46347 0.0654 0.52235 0.0
loop_
_geom_bond_atom_site_label_1
_geom_bond_atom_site_label_2
_geom_bond_distance
_geom_bond_site_symmetry_2
_ccdc_geom_bond_type
O0 Cd1 2.223 . S
O0 C8 1.315 . S
Cd1 O0 2.223 . S
Cd1 O4 2.297 . S
Cd1 O5 2.439 . S
Cd1 O11 2.240 1_456 S
Cd2 O3 2.240 . S
Cd2 O10 2.223 1_455 S
Cd2 O12 2.297 1_455 S
Cd2 O13 2.439 1_455 S
O3 Cd2 2.240 . S
O3 C8 1.279 1_554 S
O4 Cd1 2.297 . S
O4 C6 1.247 . S
O5 Cd1 2.439 . S
O5 C6 1.208 . S
C6 O4 1.247 . S
C6 O5 1.208 . S
C7 O12 1.247 . S
C7 O13 1.208 . S
C8 O0 1.315 . S
C8 O3 1.279 1_556 S
C9 O10 1.315 . S
C9 O11 1.279 . S
O10 Cd2 2.223 1_655 S
O10 C9 1.315 . S
O11 Cd1 2.240 1_654 S
O11 C9 1.279 . S
O12 Cd2 2.297 1_655 S
O12 C7 1.247 . S
O13 Cd2 2.439 1_655 S
O13 C7 1.208 . S
O14 Cd15 2.223 . S
O14 C22 1.315 . S
Cd15 O14 2.223 . S
Cd15 O18 2.297 . S
Cd15 O19 2.439 . S
Cd15 O25 2.240 . S
Cd16 O17 2.240 1_556 S
Cd16 O24 2.223 . S
Cd16 O26 2.297 . S
Cd16 O27 2.439 . S
O17 Cd16 2.240 1_554 S
O17 C22 1.279 . S
O18 Cd15 2.297 . S
O18 C20 1.247 . S
O19 Cd15 2.439 . S
O19 C20 1.208 . S
C20 O18 1.247 . S
C20 O19 1.208 . S
C21 O26 1.247 . S
C21 O27 1.208 . S
C22 O14 1.315 . S
C22 O17 1.279 . S
C23 O24 1.315 . S
C23 O25 1.279 1_556 S
O24 Cd16 2.223 . S
O24 C23 1.315 . S
O25 Cd15 2.240 . S
O25 C23 1.279 1_554 S
O26 Cd16 2.297 . S
O26 C21 1.247 . S
O27 Cd16 2.439 . S
O27 C21 1.208 . S
O28 Cd29 2.223 1_565 S
O28 C36 1.315 . S
Cd29 O28 2.223 1_545 S
Cd29 O32 2.297 1_545 S
Cd29 O33 2.439 1_545 S
Cd29 O39 2.240 1_556 S
Cd30 O31 2.240 1_545 S
Cd30 O38 2.223 . S
Cd30 O40 2.297 . S
Cd30 O41 2.439 . S
O31 Cd30 2.240 1_565 S
O31 C36 1.279 1_554 S
O32 Cd29 2.297 1_565 S
O32 C34 1.247 . S
O33 Cd29 2.439 1_565 S
O33 C34 1.208 . S
C34 O32 1.247 . S
C34 O33 1.208 . S
C35 O40 1.247 . S
C35 O41 1.208 . S
C36 O28 1.315 . S
C36 O31 1.279 1_556 S
C37 O38 1.315 . S
C37 O39 1.279 . S
O38 Cd30 2.223 . S
O38 C37 1.315 . S
O39 Cd29 2.240 1_554 S
O39 C37 1.279 . S
O40 Cd30 2.297 . S
O40 C35 1.247 . S
O41 Cd30 2.439 . S
O41 C35 1.208 . S
O42 Cd43 2.223 . S
O42 C50 1.315 . S
Cd43 O42 2.223 . S
Cd43 O46 2.297 . S
Cd43 O47 2.439 . S
Cd43 O53 2.240 . S
Cd44 O45 2.240 . S
Cd44 O52 2.223 . S
Cd44 O54 2.297 . S
Cd44 O55 2.439 . S
O45 Cd44 2.240 . S
O45 C50 1.279 . S
O46 Cd43 2.297 . S
O46 C48 1.247 . S
O47 Cd43 2.439 . S
O47 C48 1.208 . S
C48 O46 1.247 . S
C48 O47 1.208 . S
C49 O54 1.247 . S
C49 O55 1.208 . S
C50 O42 1.315 . S
C50 O45 1.279 . S
C51 O52 1.315 . S
C51 O53 1.279 . S
O52 Cd44 2.223 . S
O52 C51 1.315 . S
O53 Cd43 2.240 . S
O53 C51 1.279 . S
O54 Cd44 2.297 . S
O54 C49 1.247 . S
O55 Cd44 2.439 . S
O55 C49 1.208 . S
O56 Cd57 2.223 . S
O56 C64 1.315 . S
Cd57 O56 2.223 . S
Cd57 O60 2.297 . S
Cd57 O61 2.439 . S
Cd57 O67 2.240 . S
Cd58 O59 2.240 . S
Cd58 O66 2.223 . S
Cd58 O68 2.297 . S
Cd58 O69 2.439 . S
O59 Cd58 2.240 . S
O59 C64 1.279 . S
O60 Cd57 2.297 . S
O60 C62 1.247 . S
O61 Cd57 2.439 . S
O61 C62 1.208 . S
C62 O60 1.247 . S
C62 O61 1.208 . S
C63 O68 1.247 . S
C63 O69 1.208 . S
C64 O56 1.315 . S
C64 O59 1.279 . S
C65 O66 1.315 . S
C65 O67 1.279 . S
O66 Cd58 2.223 . S
O66 C65 1.315 . S
O67 Cd57 2.240 . S
O67 C65 1.279 . S
O68 Cd58 2.297 . S
O68 C63 1.247 . S
O69 Cd58 2.439 . S
O69 C63 1.208 . S
O70 Cd71 2.223 . S
O70 C78 1.315 . S
Cd71 O70 2.223 . S
Cd71 O74 2.297 . S
Cd71 O75 2.439 . S
Cd71 O81 2.240 . S
Cd72 O73 2.240 . S
Cd72 O80 2.223 . S
Cd72 O82 2.297 . S
Cd72 O83 2.439 . S
O73 Cd72 2.240 . S
O73 C78 1.279 . S
O74 Cd71 2.297 . S
O74 C76 1.247 . S
O75 Cd71 2.439 . S
O75 C76 1.208 . S
C76 O74 1.247 . S
C76 O75 1.208 . S
C77 O82 1.247 . S
C77 O83 1.208 . S
C78 O70 1.315 . S
C78 O73 1.279 . S
C79 O80 1.315 . S
C79 O81 1.279 . S
O80 Cd72 2.223 . S
O80 C79 1.315 . S
O81 Cd71 2.240 . S
O81 C79 1.279 . S
O82 Cd72 2.297 . S
O82 C77 1.247 . S
O83 Cd72 2.439 . S
O83 C77 1.208 . S
O84 Cd85 2.223 . S
O84 C92 1.315 . S
Cd85 O84 2.223 . S
Cd85 O88 2.297 . S
Cd85 O89 2.439 . S
Cd85 O95 2.240 . S
Cd86 O87 2.240 . S
Cd86 O94 2.223 . S
Cd86 O96 2.297 . S
Cd86 O97 2.439 . S
O87 Cd86 2.240 . S
O87 C92 1.279 . S
O88 Cd85 2.297 . S
O88 C90 1.247 . S
O89 Cd85 2.439 . S
O89 C90 1.208 . S
C90 O88 1.247 . S
C90 O89 1.208 . S
C91 O96 1.247 . S
C91 O97 1.208 . S
C92 O84 1.315 . S
C92 O87 1.279 . S
C93 O94 1.315 . S
C93 O95 1.279 . S
O94 Cd86 2.223 . S
O94 C93 1.315 . S
O95 Cd85 2.240 . S
O95 C93 1.279 . S
O96 Cd86 2.297 . S
O96 C91 1.247 . S
O97 Cd86 2.439 . S
O97 C91 1.208 . S
O98 Cd99 2.223 . S
O98 C106 1.315 . S
Cd99 O98 2.223 . S
Cd99 O102 2.297 . S
Cd99 O103 2.439 . S
Cd99 O109 2.240 . S
Cd100 O101 2.240 . S
Cd100 O108 2.223 . S
Cd100 O110 2.297 . S
Cd100 O111 2.439 . S
O101 Cd100 2.240 . S
O101 C106 1.279 . S
O102 Cd99 2.297 . S
O102 C104 1.247 . S
O103 Cd99 2.439 . S
O103 C104 1.208 . S
C104 O102 1.247 . S
C104 O103 1.208 . S
C105 O110 1.247 . S
C105 O111 1.208 . S
C106 O98 1.315 . S
C106 O101 1.279 . S
C107 O108 1.315 . S
C107 O109 1.279 . S
O108 Cd100 2.223 . S
O108 C107 1.315 . S
O109 Cd99 2.240 . S
O109 C107 1.279 . S
O110 Cd100 2.297 . S
O110 C105 1.247 . S
O111 Cd100 2.439 . S
O111 C105 1.208 . S
O112 Cd113 2.223 . S
O112 C120 1.315 . S
Cd113 O112 2.223 . S
Cd113 O116 2.297 . S
Cd113 O117 2.439 . S
Cd113 O123 2.240 . S
Cd114 O115 2.240 . S
Cd114 O122 2.223 . S
Cd114 O124 2.297 . S
Cd114 O125 2.439 . S
O115 Cd114 2.240 . S
O115 C120 1.279 . S
O116 Cd113 2.297 . S
O116 C118 1.247 . S
O117 Cd113 2.439 . S
O117 C118 1.208 . S
C118 O116 1.247 . S
C118 O117 1.208 . S
C119 O124 1.247 . S
C119 O125 1.208 . S
C120 O112 1.315 . S
C120 O115 1.279 . S
C121 O122 1.315 . S
C121 O123 1.279 . S
O122 Cd114 2.223 . S
O122 C121 1.315 . S
O123 Cd113 2.240 . S
O123 C121 1.279 . S
O124 Cd114 2.297 . S
O124 C119 1.247 . S
O125 Cd114 2.439 . S
O125 C119 1.208 . S
H126 C127 0.951 . S
C127 H126 0.951 . S
C127 C133 1.265 . S
H128 C133 0.950 . S
H129 C137 0.949 . S
H130 C138 0.950 . S
H131 C139 0.951 . S
H132 C140 0.951 . S
C133 C127 1.265 . S
C133 H128 0.950 . S
C133 C134 1.478 . S
C134 C133 1.478 . S
C134 C135 1.397 . S
C134 C151 1.394 1_554 S
C135 C134 1.397 . S
C135 C136 1.438 . S
C135 C140 1.429 . S
C136 C135 1.438 . S
C136 C137 1.428 . S
C136 C149 1.394 . S
C137 H129 0.949 . S
C137 C136 1.428 . S
C137 C138 1.345 . S
C138 H130 0.950 . S
C138 C137 1.345 . S
C138 C139 1.424 . S
C139 H131 0.951 . S
C139 C138 1.424 . S
C139 C140 1.347 . S
C140 H132 0.951 . S
C140 C135 1.429 . S
C140 C139 1.347 . S
H141 C142 0.951 . S
C142 H141 0.951 . S
C142 C148 1.263 1_554 S
H143 C148 0.954 . S
H144 C152 0.949 . S
H145 C153 0.950 . S
H146 C154 0.951 . S
H147 C155 0.951 . S
C148 C142 1.263 1_556 S
C148 H143 0.954 . S
C148 C149 1.476 1_556 S
C149 C136 1.394 . S
C149 C148 1.476 1_554 S
C149 C150 1.397 1_554 S
C150 C149 1.397 1_556 S
C150 C151 1.438 . S
C150 C155 1.429 . S
C151 C134 1.394 1_556 S
C151 C150 1.438 . S
C151 C152 1.428 . S
C152 H144 0.949 . S
C152 C151 1.428 . S
C152 C153 1.345 . S
C153 H145 0.950 . S
C153 C152 1.345 . S
C153 C154 1.424 . S
C154 H146 0.951 . S
C154 C153 1.424 . S
C154 C155 1.347 . S
C155 H147 0.951 . S
C155 C150 1.429 . S
C155 C154 1.347 . S
H156 C157 0.950 1_556 S
C157 H156 0.950 1_554 S
C157 C163 1.265 . S
H158 C163 0.950 . S
H159 C167 0.949 . S
H160 C168 0.950 . S
H161 C169 0.951 1_565 S
H162 C170 0.951 . S
C163 C157 1.265 . S
C163 H158 0.950 . S
C163 C164 1.478 . S
C164 C163 1.478 . S
C164 C165 1.399 . S
C164 C181 1.394 1_554 S
C165 C164 1.399 . S
C165 C166 1.435 1_565 S
C165 C170 1.430 . S
C166 C165 1.435 1_545 S
C166 C167 1.428 . S
C166 C179 1.394 . S
C167 H159 0.949 . S
C167 C166 1.428 . S
C167 C168 1.345 . S
C168 H160 0.950 . S
C168 C167 1.345 . S
C168 C169 1.424 . S
C169 H161 0.951 1_545 S
C169 C168 1.424 . S
C169 C170 1.347 1_545 S
C170 H162 0.951 . S
C170 C165 1.430 . S
C170 C169 1.347 1_565 S
H171 C172 0.951 . S
C172 H171 0.951 . S
C172 C178 1.265 . S
H173 C178 0.950 . S
H174 C182 0.949 . S
H175 C183 0.950 . S
H176 C184 0.951 . S
H177 C185 0.951 . S
C178 C172 1.265 . S
C178 H173 0.950 . S
C178 C179 1.478 . S
C179 C166 1.394 . S
C179 C178 1.478 . S
C179 C180 1.397 1_554 S
C180 C179 1.397 1_556 S
C180 C181 1.438 1_545 S
C180 C185 1.429 . S
C181 C164 1.394 1_556 S
C181 C180 1.438 1_565 S
C181 C182 1.428 . S
C182 H174 0.949 . S
C182 C181 1.428 . S
C182 C183 1.345 . S
C183 H175 0.950 . S
C183 C182 1.345 . S
C183 C184 1.424 1_565 S
C184 H176 0.951 . S
C184 C183 1.424 1_545 S
C184 C185 1.347 . S
C185 H177 0.951 . S
C185 C180 1.429 . S
C185 C184 1.347 . S
H186 C187 0.951 . S
C187 H186 0.951 . S
C187 C193 1.265 . S
H188 C193 0.950 . S
H189 C197 0.949 . S
H190 C198 0.950 . S
H191 C199 0.951 . S
H192 C200 0.951 . S
C193 C187 1.265 . S
C193 H188 0.950 . S
C193 C194 1.478 . S
C194 C193 1.478 . S
C194 C195 1.388 1_655 S
C194 C211 1.394 1_554 S
C195 C194 1.388 1_455 S
C195 C196 1.458 . S
C195 C200 1.417 1_455 S
C196 C195 1.458 . S
C196 C197 1.428 . S
C196 C209 1.394 . S
C197 H189 0.949 . S
C197 C196 1.428 . S
C197 C198 1.345 . S
C198 H190 0.950 . S
C198 C197 1.345 . S
C198 C199 1.424 . S
C199 H191 0.951 . S
C199 C198 1.424 . S
C199 C200 1.347 1_455 S
C200 H192 0.951 . S
C200 C195 1.417 1_655 S
C200 C199 1.347 1_655 S
H201 C202 0.951 . S
C202 H201 0.951 . S
C202 C208 1.265 . S
H203 C208 0.950 . S
H204 C212 0.949 . S
H205 C213 0.950 . S
H206 C214 0.951 . S
H207 C215 0.951 . S
C208 C202 1.265 . S
C208 H203 0.950 . S
C208 C209 1.478 . S
C209 C196 1.394 . S
C209 C208 1.478 . S
C209 C210 1.397 1_554 S
C210 C209 1.397 1_556 S
C210 C211 1.438 1_455 S
C210 C215 1.429 . S
C211 C194 1.394 1_556 S
C211 C210 1.438 1_655 S
C211 C212 1.428 . S
C212 H204 0.949 . S
C212 C211 1.428 . S
C212 C213 1.345 . S
C213 H205 0.950 . S
C213 C212 1.345 . S
C213 C214 1.424 1_655 S
C214 H206 0.951 . S
C214 C213 1.424 1_455 S
C214 C215 1.347 . S
C215 H207 0.951 . S
C215 C210 1.429 . S
C215 C214 1.347 . S
H216 C217 0.951 . S
C217 H216 0.951 . S
C217 C223 1.265 . S
H218 C223 0.950 . S
H219 C227 0.949 . S
H220 C228 0.950 . S
H221 C229 0.951 . S
H222 C230 0.951 . S
C223 C217 1.265 . S
C223 H218 0.950 . S
C223 C224 1.478 . S
C224 C223 1.478 . S
C224 C225 1.397 . S
C224 C241 1.394 . S
C225 C224 1.397 . S
C225 C226 1.438 . S
C225 C230 1.429 . S
C226 C225 1.438 . S
C226 C227 1.428 . S
C226 C239 1.394 . S
C227 H219 0.949 . S
C227 C226 1.428 . S
C227 C228 1.345 . S
C228 H220 0.950 . S
C228 C227 1.345 . S
C228 C229 1.424 . S
C229 H221 0.951 . S
C229 C228 1.424 . S
C229 C230 1.347 . S
C230 H222 0.951 . S
C230 C225 1.429 . S
C230 C229 1.347 . S
H231 C232 0.951 . S
C232 H231 0.951 . S
C232 C238 1.265 . S
H233 C238 0.950 . S
H234 C242 0.949 . S
H235 C243 0.950 . S
H236 C244 0.951 . S
H237 C245 0.951 . S
C238 C232 1.265 . S
C238 H233 0.950 . S
C238 C239 1.478 . S
C239 C226 1.394 . S
C239 C238 1.478 . S
C239 C240 1.397 . S
C240 C239 1.397 . S
C240 C241 1.438 . S
C240 C245 1.429 . S
C241 C224 1.394 . S
C241 C240 1.438 . S
C241 C242 1.428 . S
C242 H234 0.949 . S
C242 C241 1.428 . S
C242 C243 1.345 . S
C243 H235 0.950 . S
C243 C242 1.345 . S
C243 C244 1.424 . S
C244 H236 0.951 . S
C244 C243 1.424 . S
C244 C245 1.347 . S
C245 H237 0.951 . S
C245 C240 1.429 . S
C245 C244 1.347 . S
H246 C247 0.951 . S
C247 H246 0.951 . S
C247 C253 1.265 . S
H248 C253 0.950 . S
H249 C257 0.949 . S
H250 C258 0.950 . S
H251 C259 0.951 . S
H252 C260 0.951 . S
C253 C247 1.265 . S
C253 H248 0.950 . S
C253 C254 1.478 . S
C254 C253 1.478 . S
C254 C255 1.397 . S
C254 C271 1.394 . S
C255 C254 1.397 . S
C255 C256 1.438 . S
C255 C260 1.429 . S
C256 C255 1.438 . S
C256 C257 1.428 . S
C256 C269 1.394 . S
C257 H249 0.949 . S
C257 C256 1.428 . S
C257 C258 1.345 . S
C258 H250 0.950 . S
C258 C257 1.345 . S
C258 C259 1.424 . S
C259 H251 0.951 . S
C259 C258 1.424 . S
C259 C260 1.347 . S
C260 H252 0.951 . S
C260 C255 1.429 . S
C260 C259 1.347 . S
H261 C262 0.951 . S
C262 H261 0.951 . S
C262 C268 1.265 . S
H263 C268 0.950 . S
H264 C272 0.949 . S
H265 C273 0.950 . S
H266 C274 0.951 . S
H267 C275 0.951 . S
C268 C262 1.265 . S
C268 H263 0.950 . S
C268 C269 1.478 . S
C269 C256 1.394 . S
C269 C268 1.478 . S
C269 C270 1.397 . S
C270 C269 1.397 . S
C270 C271 1.438 . S
C270 C275 1.429 . S
C271 C254 1.394 . S
C271 C270 1.438 . S
C271 C272 1.428 . S
C272 H264 0.949 . S
C272 C271 1.428 . S
C272 C273 1.345 . S
C273 H265 0.950 . S
C273 C272 1.345 . S
C273 C274 1.424 . S
C274 H266 0.951 . S
C274 C273 1.424 . S
C274 C275 1.347 . S
C275 H267 0.951 . S
C275 C270 1.429 . S
C275 C274 1.347 . S
H276 C277 0.951 . S
C277 H276 0.951 . S
C277 C283 1.265 . S
H278 C283 0.950 . S
H279 C287 0.949 . S
H280 C288 0.950 . S
H281 C289 0.951 . S
H282 C290 0.951 . S
C283 C277 1.265 . S
C283 H278 0.950 . S
C283 C284 1.478 . S
C284 C283 1.478 . S
C284 C285 1.397 . S
C284 C301 1.394 . S
C285 C284 1.397 . S
C285 C286 1.438 . S
C285 C290 1.429 . S
C286 C285 1.438 . S
C286 C287 1.428 . S
C286 C299 1.394 . S
C287 H279 0.949 . S
C287 C286 1.428 . S
C287 C288 1.345 . S
C288 H280 0.950 . S
C288 C287 1.345 . S
C288 C289 1.424 . S
C289 H281 0.951 . S
C289 C288 1.424 . S
C289 C290 1.347 . S
C290 H282 0.951 . S
C290 C285 1.429 . S
C290 C289 1.347 . S
H291 C292 0.951 . S
C292 H291 0.951 . S
C292 C298 1.265 . S
H293 C298 0.950 . S
H294 C302 0.949 . S
H295 C303 0.950 . S
H296 C304 0.951 . S
H297 C305 0.951 . S
C298 C292 1.265 . S
C298 H293 0.950 . S
C298 C299 1.478 . S
C299 C286 1.394 . S
C299 C298 1.478 . S
C299 C300 1.397 . S
C300 C299 1.397 . S
C300 C301 1.438 . S
C300 C305 1.429 . S
C301 C284 1.394 . S
C301 C300 1.438 . S
C301 C302 1.428 . S
C302 H294 0.949 . S
C302 C301 1.428 . S
C302 C303 1.345 . S
C303 H295 0.950 . S
C303 C302 1.345 . S
C303 C304 1.424 . S
C304 H296 0.951 . S
C304 C303 1.424 . S
C304 C305 1.347 . S
C305 H297 0.951 . S
C305 C300 1.429 . S
C305 C304 1.347 . S
H306 C307 0.951 . S
C307 H306 0.951 . S
C307 C313 1.265 . S
H308 C313 0.950 . S
H309 C317 0.949 . S
H310 C318 0.950 . S
H311 C319 0.951 . S
H312 C320 0.951 . S
C313 C307 1.265 . S
C313 H308 0.950 . S
C313 C314 1.478 . S
C314 C313 1.478 . S
C314 C315 1.397 . S
C314 C331 1.394 . S
C315 C314 1.397 . S
C315 C316 1.438 . S
C315 C320 1.429 . S
C316 C315 1.438 . S
C316 C317 1.428 . S
C316 C329 1.394 . S
C317 H309 0.949 . S
C317 C316 1.428 . S
C317 C318 1.345 . S
C318 H310 0.950 . S
C318 C317 1.345 . S
C318 C319 1.424 . S
C319 H311 0.951 . S
C319 C318 1.424 . S
C319 C320 1.347 . S
C320 H312 0.951 . S
C320 C315 1.429 . S
C320 C319 1.347 . S
H321 C322 0.951 . S
C322 H321 0.951 . S
C322 C328 1.265 . S
H323 C328 0.950 . S
H324 C332 0.949 . S
H325 C333 0.950 . S
H326 C334 0.951 . S
H327 C335 0.951 . S
C328 C322 1.265 . S
C328 H323 0.950 . S
C328 C329 1.478 . S
C329 C316 1.394 . S
C329 C328 1.478 . S
C329 C330 1.397 . S
C330 C329 1.397 . S
C330 C331 1.438 . S
C330 C335 1.429 . S
C331 C314 1.394 . S
C331 C330 1.438 . S
C331 C332 1.428 . S
C332 H324 0.949 . S
C332 C331 1.428 . S
C332 C333 1.345 . S
C333 H325 0.950 . S
C333 C332 1.345 . S
C333 C334 1.424 . S
C334 H326 0.951 . S
C334 C333 1.424 . S
C334 C335 1.347 . S
C335 H327 0.951 . S
C335 C330 1.429 . S
C335 C334 1.347 . S
H336 C337 0.951 . S
C337 H336 0.951 . S
C337 C343 1.265 . S
H338 C343 0.950 . S
H339 C347 0.949 . S
H340 C348 0.950 . S
H341 C349 0.951 . S
H342 C350 0.951 . S
C343 C337 1.265 . S
C343 H338 0.950 . S
C343 C344 1.478 . S
C344 C343 1.478 . S
C344 C345 1.397 . S
C344 C361 1.394 . S
C345 C344 1.397 . S
C345 C346 1.438 . S
C345 C350 1.429 . S
C346 C345 1.438 . S
C346 C347 1.428 . S
C346 C359 1.394 . S
C347 H339 0.949 . S
C347 C346 1.428 . S
C347 C348 1.345 . S
C348 H340 0.950 . S
C348 C347 1.345 . S
C348 C349 1.424 . S
C349 H341 0.951 . S
C349 C348 1.424 . S
C349 C350 1.347 . S
C350 H342 0.951 . S
C350 C345 1.429 . S
C350 C349 1.347 . S
H351 C352 0.951 . S
C352 H351 0.951 . S
C352 C358 1.265 . S
H353 C358 0.950 . S
H354 C362 0.949 . S
H355 C363 0.950 . S
H356 C364 0.951 . S
H357 C365 0.951 . S
C358 C352 1.265 . S
C358 H353 0.950 . S
C358 C359 1.478 . S
C359 C346 1.394 . S
C359 C358 1.478 . S
C359 C360 1.397 . S
C360 C359 1.397 . S
C360 C361 1.438 . S
C360 C365 1.429 . S
C361 C344 1.394 . S
C361 C360 1.438 . S
C361 C362 1.428 . S
C362 H354 0.949 . S
C362 C361 1.428 . S
C362 C363 1.345 . S
C363 H355 0.950 . S
C363 C362 1.345 . S
C363 C364 1.424 . S
C364 H356 0.951 . S
C364 C363 1.424 . S
C364 C365 1.347 . S
C365 H357 0.951 . S
C365 C360 1.429 . S
C365 C364 1.347 . S
H366 C367 0.951 . S
C367 H366 0.951 . S
C367 C373 1.265 . S
H368 C373 0.950 . S
H369 C377 0.949 . S
H370 C378 0.950 . S
H371 C379 0.951 . S
H372 C380 0.951 . S
C373 C367 1.265 . S
C373 H368 0.950 . S
C373 C374 1.478 . S
C374 C373 1.478 . S
C374 C375 1.397 . S
C374 C391 1.394 . S
C375 C374 1.397 . S
C375 C376 1.438 . S
C375 C380 1.429 . S
C376 C375 1.438 . S
C376 C377 1.428 . S
C376 C389 1.394 . S
C377 H369 0.949 . S
C377 C376 1.428 . S
C377 C378 1.345 . S
C378 H370 0.950 . S
C378 C377 1.345 . S
C378 C379 1.424 . S
C379 H371 0.951 . S
C379 C378 1.424 . S
C379 C380 1.347 . S
C380 H372 0.951 . S
C380 C375 1.429 . S
C380 C379 1.347 . S
H381 C382 0.951 . S
C382 H381 0.951 . S
C382 C388 1.265 . S
H383 C388 0.950 . S
H384 C392 0.949 . S
H385 C393 0.950 . S
H386 C394 0.951 . S
H387 C395 0.951 . S
C388 C382 1.265 . S
C388 H383 0.950 . S
C388 C389 1.478 . S
C389 C376 1.394 . S
C389 C388 1.478 . S
C389 C390 1.397 . S
C390 C389 1.397 . S
C390 C391 1.438 . S
C390 C395 1.429 . S
C391 C374 1.394 . S
C391 C390 1.438 . S
C391 C392 1.428 . S
C392 H384 0.949 . S
C392 C391 1.428 . S
C392 C393 1.345 . S
C393 H385 0.950 . S
C393 C392 1.345 . S
C393 C394 1.424 . S
C394 H386 0.951 . S
C394 C393 1.424 . S
C394 C395 1.347 . S
C395 H387 0.951 . S
C395 C390 1.429 . S
C395 C394 1.347 . S
H396 C397 0.951 . S
C397 H396 0.951 . S
C397 C403 1.265 . S
H398 C403 0.950 . S
H399 C407 0.949 . S
H400 C408 0.950 . S
H401 C409 0.951 . S
H402 C410 0.951 . S
C403 C397 1.265 . S
C403 H398 0.950 . S
C403 C404 1.478 . S
C404 C403 1.478 . S
C404 C405 1.397 . S
C404 C421 1.394 . S
C405 C404 1.397 . S
C405 C406 1.438 . S
C405 C410 1.429 . S
C406 C405 1.438 . S
C406 C407 1.428 . S
C406 C419 1.394 . S
C407 H399 0.949 . S
C407 C406 1.428 . S
C407 C408 1.345 . S
C408 H400 0.950 . S
C408 C407 1.345 . S
C408 C409 1.424 . S
C409 H401 0.951 . S
C409 C408 1.424 . S
C409 C410 1.347 . S
C410 H402 0.951 . S
C410 C405 1.429 . S
C410 C409 1.347 . S
H411 C412 0.951 . S
C412 H411 0.951 . S
C412 C418 1.265 . S
H413 C418 0.950 . S
H414 C422 0.949 . S
H415 C423 0.950 . S
H416 C424 0.951 . S
H417 C425 0.951 . S
C418 C412 1.265 . S
C418 H413 0.950 . S
C418 C419 1.478 . S
C419 C406 1.394 . S
C419 C418 1.478 . S
C419 C420 1.397 . S
C420 C419 1.397 . S
C420 C421 1.438 . S
C420 C425 1.429 . S
C421 C404 1.394 . S
C421 C420 1.438 . S
C421 C422 1.428 . S
C422 H414 0.949 . S
C422 C421 1.428 . S
C422 C423 1.345 . S
C423 H415 0.950 . S
C423 C422 1.345 . S
C423 C424 1.424 . S
C424 H416 0.951 . S
C424 C423 1.424 . S
C424 C425 1.347 . S
C425 H417 0.951 . S
C425 C420 1.429 . S
C425 C424 1.347 . S
H426 C427 0.951 . S
C427 H426 0.951 . S
C427 C433 1.265 . S
H428 C433 0.950 . S
H429 C437 0.949 . S
H430 C438 0.950 . S
H431 C439 0.951 . S
H432 C440 0.951 . S
C433 C427 1.265 . S
C433 H428 0.950 . S
C433 C434 1.478 . S
C434 C433 1.478 . S
C434 C435 1.397 . S
C434 C451 1.394 . S
C435 C434 1.397 . S
C435 C436 1.438 . S
C435 C440 1.429 . S
C436 C435 1.438 . S
C436 C437 1.428 . S
C436 C449 1.394 . S
C437 H429 0.949 . S
C437 C436 1.428 . S
C437 C438 1.345 . S
C438 H430 0.950 . S
C438 C437 1.345 . S
C438 C439 1.424 . S
C439 H431 0.951 . S
C439 C438 1.424 . S
C439 C440 1.347 . S
C440 H432 0.951 . S
C440 C435 1.429 . S
C440 C439 1.347 . S
H441 C442 0.951 . S
C442 H441 0.951 . S
C442 C448 1.265 . S
H443 C448 0.950 . S
H444 C452 0.949 . S
H445 C453 0.950 . S
H446 C454 0.951 . S
H447 C455 0.951 . S
C448 C442 1.265 . S
C448 H443 0.950 . S
C448 C449 1.478 . S
C449 C436 1.394 . S
C449 C448 1.478 . S
C449 C450 1.397 . S
C450 C449 1.397 . S
C450 C451 1.438 . S
C450 C455 1.429 . S
C451 C434 1.394 . S
C451 C450 1.438 . S
C451 C452 1.428 . S
C452 H444 0.949 . S
C452 C451 1.428 . S
C452 C453 1.345 . S
C453 H445 0.950 . S
C453 C452 1.345 . S
C453 C454 1.424 . S
C454 H446 0.951 . S
C454 C453 1.424 . S
C454 C455 1.347 . S
C455 H447 0.951 . S
C455 C450 1.429 . S
C455 C454 1.347 . S
H456 C457 0.951 . S
C457 H456 0.951 . S
C457 C463 1.265 . S
H458 C463 0.950 . S
H459 C467 0.949 . S
H460 C468 0.950 . S
H461 C469 0.951 . S
H462 C470 0.951 . S
C463 C457 1.265 . S
C463 H458 0.950 . S
C463 C464 1.478 . S
C464 C463 1.478 . S
C464 C465 1.397 . S
C464 C481 1.394 . S
C465 C464 1.397 . S
C465 C466 1.438 . S
C465 C470 1.429 . S
C466 C465 1.438 . S
C466 C467 1.428 . S
C466 C479 1.394 . S
C467 H459 0.949 . S
C467 C466 1.428 . S
C467 C468 1.345 . S
C468 H460 0.950 . S
C468 C467 1.345 . S
C468 C469 1.424 . S
C469 H461 0.951 . S
C469 C468 1.424 . S
C469 C470 1.347 . S
C470 H462 0.951 . S
C470 C465 1.429 . S
C470 C469 1.347 . S
H471 C472 0.951 . S
C472 H471 0.951 . S
C472 C478 1.265 . S
H473 C478 0.950 . S
H474 C482 0.949 . S
H475 C483 0.950 . S
H476 C484 0.951 . S
H477 C485 0.951 . S
C478 C472 1.265 . S
C478 H473 0.950 . S
C478 C479 1.478 . S
C479 C466 1.394 . S
C479 C478 1.478 . S
C479 C480 1.397 . S
C480 C479 1.397 . S
C480 C481 1.438 . S
C480 C485 1.429 1_565 S
C481 C464 1.394 . S
C481 C480 1.438 . S
C481 C482 1.428 . S
C482 H474 0.949 . S
C482 C481 1.428 . S
C482 C483 1.345 1_565 S
C483 H475 0.950 . S
C483 C482 1.345 1_545 S
C483 C484 1.424 . S
C484 H476 0.951 . S
C484 C483 1.424 . S
C484 C485 1.347 . S
C485 H477 0.951 . S
C485 C480 1.429 1_545 S
C485 C484 1.347 . S
H486 C487 0.951 . S
C487 H486 0.951 . S
C487 C493 1.265 . S
H488 C493 0.950 . S
H489 C497 0.949 . S
H490 C498 0.950 . S
H491 C499 0.951 . S
H492 C500 0.951 . S
C493 C487 1.265 . S
C493 H488 0.950 . S
C493 C494 1.478 . S
C494 C493 1.478 . S
C494 C495 1.397 . S
C494 C511 1.394 . S
C495 C494 1.397 . S
C495 C496 1.438 . S
C495 C500 1.429 . S
C496 C495 1.438 . S
C496 C497 1.428 . S
C496 C509 1.394 . S
C497 H489 0.949 . S
C497 C496 1.428 . S
C497 C498 1.345 . S
C498 H490 0.950 . S
C498 C497 1.345 . S
C498 C499 1.424 . S
C499 H491 0.951 . S
C499 C498 1.424 . S
C499 C500 1.347 . S
C500 H492 0.951 . S
C500 C495 1.429 . S
C500 C499 1.347 . S
H501 C502 0.951 . S
C502 H501 0.951 . S
C502 C508 1.265 . S
H503 C508 0.950 . S
H504 C512 0.949 . S
H505 C513 0.950 . S
H506 C514 0.951 . S
H507 C515 0.951 . S
C508 C502 1.265 . S
C508 H503 0.950 . S
C508 C509 1.478 . S
C509 C496 1.394 . S
C509 C508 1.478 . S
C509 C510 1.397 . S
C510 C509 1.397 . S
C510 C511 1.438 . S
C510 C515 1.429 . S
C511 C494 1.394 . S
C511 C510 1.438 . S
C511 C512 1.428 . S
C512 H504 0.949 . S
C512 C511 1.428 . S
C512 C513 1.345 . S
C513 H505 0.950 . S
C513 C512 1.345 . S
C513 C514 1.424 . S
C514 H506 0.951 . S
C514 C513 1.424 . S
C514 C515 1.347 . S
C515 H507 0.951 . S
C515 C510 1.429 . S
C515 C514 1.347 . S
H516 C517 0.951 . S
C517 H516 0.951 . S
C517 C523 1.265 . S
H518 C523 0.950 . S
H519 C527 0.949 . S
H520 C528 0.950 . S
H521 C529 0.951 . S
H522 C530 0.951 . S
C523 C517 1.265 . S
C523 H518 0.950 . S
C523 C524 1.478 . S
C524 C523 1.478 . S
C524 C525 1.397 . S
C524 C541 1.394 . S
C525 C524 1.397 . S
C525 C526 1.438 . S
C525 C530 1.429 1_655 S
C526 C525 1.438 . S
C526 C527 1.428 . S
C526 C539 1.394 . S
C527 H519 0.949 . S
C527 C526 1.428 . S
C527 C528 1.345 1_655 S
C528 H520 0.950 . S
C528 C527 1.345 1_455 S
C528 C529 1.424 . S
C529 H521 0.951 . S
C529 C528 1.424 . S
C529 C530 1.347 . S
C530 H522 0.951 . S
C530 C525 1.429 1_455 S
C530 C529 1.347 . S
H531 C532 0.951 . S
C532 H531 0.951 . S
C532 C538 1.265 . S
H533 C538 0.950 . S
H534 C542 0.949 . S
H535 C543 0.950 . S
H536 C544 0.951 . S
H537 C545 0.951 . S
C538 C532 1.265 . S
C538 H533 0.950 . S
C538 C539 1.478 . S
C539 C526 1.394 . S
C539 C538 1.478 . S
C539 C540 1.397 . S
C540 C539 1.397 . S
C540 C541 1.438 . S
C540 C545 1.429 . S
C541 C524 1.394 . S
C541 C540 1.438 . S
C541 C542 1.428 . S
C542 H534 0.949 . S
C542 C541 1.428 . S
C542 C543 1.345 . S
C543 H535 0.950 . S
C543 C542 1.345 . S
C543 C544 1.424 . S
C544 H536 0.951 . S
C544 C543 1.424 . S
C544 C545 1.347 . S
C545 H537 0.951 . S
C545 C540 1.429 . S
C545 C544 1.347 . S
H546 C547 0.951 . S
C547 H546 0.951 . S
C547 C553 1.265 . S
H548 C553 0.950 . S
H549 C557 0.949 . S
H550 C558 0.950 . S
H551 C559 0.951 . S
H552 C560 0.951 . S
C553 C547 1.265 . S
C553 H548 0.950 . S
C553 C554 1.478 . S
C554 C553 1.478 . S
C554 C555 1.397 . S
C554 C571 1.394 . S
C555 C554 1.397 . S
C555 C556 1.438 . S
C555 C560 1.429 . S
C556 C555 1.438 . S
C556 C557 1.428 . S
C556 C569 1.394 . S
C557 H549 0.949 . S
C557 C556 1.428 . S
C557 C558 1.345 . S
C558 H550 0.950 . S
C558 C557 1.345 . S
C558 C559 1.424 . S
C559 H551 0.951 . S
C559 C558 1.424 . S
C559 C560 1.347 . S
C560 H552 0.951 . S
C560 C555 1.429 . S
C560 C559 1.347 . S
H561 C562 0.951 . S
C562 H561 0.951 . S
C562 C568 1.265 . S
H563 C568 0.950 . S
H564 C572 0.949 . S
H565 C573 0.950 . S
H566 C574 0.951 . S
H567 C575 0.951 . S
C568 C562 1.265 . S
C568 H563 0.950 . S
C568 C569 1.478 . S
C569 C556 1.394 . S
C569 C568 1.478 . S
C569 C570 1.397 . S
C570 C569 1.397 . S
C570 C571 1.438 . S
C570 C575 1.429 . S
C571 C554 1.394 . S
C571 C570 1.438 . S
C571 C572 1.428 . S
C572 H564 0.949 . S
C572 C571 1.428 . S
C572 C573 1.345 . S
C573 H565 0.950 . S
C573 C572 1.345 . S
C573 C574 1.424 . S
C574 H566 0.951 . S
C574 C573 1.424 . S
C574 C575 1.347 . S
C575 H567 0.951 . S
C575 C570 1.429 . S
C575 C574 1.347 . S
H576 C577 0.951 . S
C577 H576 0.951 . S
C577 C583 1.265 . S
H578 C583 0.950 . S
H579 C587 0.949 . S
H580 C588 0.950 . S
H581 C589 0.951 . S
H582 C590 0.951 . S
C583 C577 1.265 . S
C583 H578 0.950 . S
C583 C584 1.478 . S
C584 C583 1.478 . S
C584 C585 1.397 . S
C584 C601 1.394 . S
C585 C584 1.397 . S
C585 C586 1.438 1_455 S
C585 C590 1.429 . S
C586 C585 1.438 1_655 S
C586 C587 1.428 . S
C586 C599 1.394 . S
C587 H579 0.949 . S
C587 C586 1.428 . S
C587 C588 1.345 . S
C588 H580 0.950 . S
C588 C587 1.345 . S
C588 C589 1.424 1_655 S
C589 H581 0.951 . S
C589 C588 1.424 1_455 S
C589 C590 1.347 . S
C590 H582 0.951 . S
C590 C585 1.429 . S
C590 C589 1.347 . S
H591 C592 0.951 . S
C592 H591 0.951 . S
C592 C598 1.265 . S
H593 C598 0.950 . S
H594 C602 0.949 . S
H595 C603 0.950 . S
H596 C604 0.951 . S
H597 C605 0.951 1_655 S
C598 C592 1.265 . S
C598 H593 0.950 . S
C598 C599 1.478 . S
C599 C586 1.394 . S
C599 C598 1.478 . S
C599 C600 1.397 1_655 S
C600 C599 1.397 1_455 S
C600 C601 1.438 . S
C600 C605 1.429 . S
C601 C584 1.394 . S
C601 C600 1.438 . S
C601 C602 1.428 . S
C602 H594 0.949 . S
C602 C601 1.428 . S
C602 C603 1.345 . S
C603 H595 0.950 . S
C603 C602 1.345 . S
C603 C604 1.424 . S
C604 H596 0.951 . S
C604 C603 1.424 . S
C604 C605 1.347 . S
C605 H597 0.951 1_455 S
C605 C600 1.429 . S
C605 C604 1.347 . S
H606 C607 0.951 . S
C607 H606 0.951 . S
C607 C613 1.265 . S
H608 C613 0.950 . S
H609 C617 0.949 . S
H610 C618 0.950 . S
H611 C619 0.951 . S
H612 C620 0.951 . S
C613 C607 1.265 . S
C613 H608 0.950 . S
C613 C614 1.478 . S
C614 C613 1.478 . S
C614 C615 1.397 . S
C614 C631 1.394 . S
C615 C614 1.397 . S
C615 C616 1.438 . S
C615 C620 1.429 . S
C616 C615 1.438 . S
C616 C617 1.428 . S
C616 C629 1.394 . S
C617 H609 0.949 . S
C617 C616 1.428 . S
C617 C618 1.345 . S
C618 H610 0.950 . S
C618 C617 1.345 . S
C618 C619 1.424 . S
C619 H611 0.951 . S
C619 C618 1.424 . S
C619 C620 1.347 . S
C620 H612 0.951 . S
C620 C615 1.429 . S
C620 C619 1.347 . S
H621 C622 0.951 . S
C622 H621 0.951 . S
C622 C628 1.265 . S
H623 C628 0.950 . S
H624 C632 0.949 . S
H625 C633 0.950 . S
H626 C634 0.951 . S
H627 C635 0.951 . S
C628 C622 1.265 . S
C628 H623 0.950 . S
C628 C629 1.478 . S
C629 C616 1.394 . S
C629 C628 1.478 . S
C629 C630 1.397 . S
C630 C629 1.397 . S
C630 C631 1.438 . S
C630 C635 1.429 . S
C631 C614 1.394 . S
C631 C630 1.438 . S
C631 C632 1.428 . S
C632 H624 0.949 . S
C632 C631 1.428 . S
C632 C633 1.345 . S
C633 H625 0.950 . S
C633 C632 1.345 . S
C633 C634 1.424 . S
C634 H626 0.951 . S
C634 C633 1.424 . S
C634 C635 1.347 . S
C635 H627 0.951 . S
C635 C630 1.429 . S
C635 C634 1.347 . S
H636 C637 0.951 . S
C637 H636 0.951 . S
C637 C643 1.265 . S
H638 C643 0.950 . S
H639 C647 0.949 . S
H640 C648 0.950 . S
H641 C649 0.951 . S
H642 C650 0.951 . S
C643 C637 1.265 . S
C643 H638 0.950 . S
C643 C644 1.478 . S
C644 C643 1.478 . S
C644 C645 1.397 . S
C644 C661 1.394 1_565 S
C645 C644 1.397 . S
C645 C646 1.438 1_565 S
C645 C650 1.429 . S
C646 C645 1.438 1_545 S
C646 C647 1.428 . S
C646 C659 1.394 . S
C647 H639 0.949 . S
C647 C646 1.428 . S
C647 C648 1.345 1_545 S
C648 H640 0.950 . S
C648 C647 1.345 1_565 S
C648 C649 1.424 . S
C649 H641 0.951 . S
C649 C648 1.424 . S
C649 C650 1.347 . S
C650 H642 0.951 . S
C650 C645 1.429 . S
C650 C649 1.347 . S
H651 C652 0.951 . S
C652 H651 0.951 . S
C652 C658 1.265 . S
H653 C658 0.950 . S
H654 C662 0.949 . S
H655 C663 0.950 . S
H656 C664 0.951 . S
H657 C665 0.951 . S
C658 C652 1.265 . S
C658 H653 0.950 . S
C658 C659 1.478 . S
C659 C646 1.394 . S
C659 C658 1.478 . S
C659 C660 1.397 . S
C660 C659 1.397 . S
C660 C661 1.438 . S
C660 C665 1.429 . S
C661 C644 1.394 1_545 S
C661 C660 1.438 . S
C661 C662 1.428 . S
C662 H654 0.949 . S
C662 C661 1.428 . S
C662 C663 1.345 . S
C663 H655 0.950 . S
C663 C662 1.345 . S
C663 C664 1.424 . S
C664 H656 0.951 . S
C664 C663 1.424 . S
C664 C665 1.347 . S
C665 H657 0.951 . S
C665 C660 1.429 . S
C665 C664 1.347 . S
C127 C37 1.235 . S
C142 C8 1.184 1_554 S
C157 C23 1.175 1_554 S
C172 C9 1.227 . S
C187 C22 1.228 . S
C202 C36 1.175 1_554 S
C217 C78 1.235 . S
C232 C51 1.184 . S
C247 C65 1.231 . S
C262 C50 1.179 . S
C277 C64 1.223 . S
C292 C79 1.172 . S
C307 C92 1.226 . S
C322 C121 1.174 . S
C337 C93 1.177 . S
C352 C107 1.229 . S
C367 C106 1.226 . S
C382 C120 1.174 . S
C397 C6 1.469 . S
C412 C104 1.474 . S
C427 C21 1.444 . S
C442 C119 1.448 . S
C457 C91 1.443 . S
C472 C34 1.448 . S
C487 C63 1.438 . S
C502 C35 1.435 . S
C517 C7 1.505 . S
C532 C77 1.503 . S
C547 C49 1.467 . S
C562 C20 1.461 . S
C577 C105 1.502 . S
C592 C76 1.499 . S
C607 C48 1.459 . S
C622 C118 1.464 . S
C637 C90 1.499 . S
C652 C62 1.503 . S
