# Generated by pormake.
# Topology vmb, (5)-cn, num edge types: 1
# Building blocks:
#     Node 0, Type 0, BuildingBlock: XOMCOT_clean_sbu_1, # of connection points: 5
#     Node 1, Type 0, BuildingBlock: XOMCOT_clean_sbu_1, # of connection points: 5
#     Node 2, Type 0, BuildingBlock: XOMCOT_clean_sbu_1, # of connection points: 5
#     Node 3, Type 0, BuildingBlock: XOMCOT_clean_sbu_1, # of connection points: 5
#     Node 4, Type 0, BuildingBlock: XOMCOT_clean_sbu_1, # of connection points: 5
#     Node 5, Type 0, BuildingBlock: XOMCOT_clean_sbu_1, # of connection points: 5
#     Node 6, Type 0, BuildingBlock: XOMCOT_clean_sbu_1, # of connection points: 5
#     Node 7, Type 0, BuildingBlock: XOMCOT_clean_sbu_1, # of connection points: 5
#     Edge 8, Type (0, 0), BuildingBlock: MIFKUJ_clean_linker_0, # of connection points: 2
#     Edge 9, Type (0, 0), BuildingBlock: MIFKUJ_clean_linker_0, # of connection points: 2
#     Edge 10, Type (0, 0), BuildingBlock: MIFKUJ_clean_linker_0, # of connection points: 2
#     Edge 11, Type (0, 0), BuildingBlock: MIFKUJ_clean_linker_0, # of connection points: 2
#     Edge 12, Type (0, 0), BuildingBlock: MIFKUJ_clean_linker_0, # of connection points: 2
#     Edge 13, Type (0, 0), BuildingBlock: MIFKUJ_clean_linker_0, # of connection points: 2
#     Edge 14, Type (0, 0), BuildingBlock: MIFKUJ_clean_linker_0, # of connection points: 2
#     Edge 15, Type (0, 0), BuildingBlock: MIFKUJ_clean_linker_0, # of connection points: 2
#     Edge 16, Type (0, 0), BuildingBlock: MIFKUJ_clean_linker_0, # of connection points: 2
#     Edge 17, Type (0, 0), BuildingBlock: MIFKUJ_clean_linker_0, # of connection points: 2
#     Edge 18, Type (0, 0), BuildingBlock: MIFKUJ_clean_linker_0, # of connection points: 2
#     Edge 19, Type (0, 0), BuildingBlock: MIFKUJ_clean_linker_0, # of connection points: 2
#     Edge 20, Type (0, 0), BuildingBlock: MIFKUJ_clean_linker_0, # of connection points: 2
#     Edge 21, Type (0, 0), BuildingBlock: MIFKUJ_clean_linker_0, # of connection points: 2
#     Edge 22, Type (0, 0), BuildingBlock: MIFKUJ_clean_linker_0, # of connection points: 2
#     Edge 23, Type (0, 0), BuildingBlock: MIFKUJ_clean_linker_0, # of connection points: 2
#     Edge 24, Type (0, 0), BuildingBlock: MIFKUJ_clean_linker_0, # of connection points: 2
#     Edge 25, Type (0, 0), BuildingBlock: MIFKUJ_clean_linker_0, # of connection points: 2
#     Edge 26, Type (0, 0), BuildingBlock: MIFKUJ_clean_linker_0, # of connection points: 2
#     Edge 27, Type (0, 0), BuildingBlock: MIFKUJ_clean_linker_0, # of connection points: 2
# Relax obj value: 0.089
# Max RMSD: 0.129
# Mean RMSD: 0.129
data_MOF--net-vmb--node1-XOMCOT_clean_sbu_1--edge1-MIFKUJ_clean_linker_0
_symmetry_space_group_name_H-M    P1
_symmetry_Int_Tables_number       1
_symmetry_cell_setting            triclinic
loop_
_symmetry_equiv_pos_as_xyz
'x, y, z'
_cell_length_a     48.044636
_cell_length_b     59.478005
_cell_length_c     35.005973
_cell_angle_alpha  89.965569
_cell_angle_beta   118.24827
_cell_angle_gamma 90.163752
loop_
_atom_site_label
_atom_site_type_symbol
_atom_site_fract_x
_atom_site_fract_y
_atom_site_fract_z
_atom_type_partial_charge
C0 C 0.21641 0.08126 0.28655 0.0
C1 C 0.18449 0.07875 0.27096 0.0
N2 N 0.1794 0.07043 0.30289 0.0
N3 N 0.23174 0.07435 0.32812 0.0
C4 C 0.20847 0.06801 0.33746 0.0
H5 H 0.22773 0.08805 0.26874 0.0
Co6 Co 0.27584 0.0757 0.35983 0.0
C7 C 0.29338 0.06039 0.44783 0.0
O8 O 0.31377 0.07709 0.46154 0.0
N9 N 0.32115 0.07691 0.39064 0.0
C10 C 0.37174 0.08745 0.42167 0.0
C11 C 0.34101 0.09475 0.40204 0.0
C12 C 0.34085 0.05888 0.40355 0.0
N13 N 0.37177 0.06484 0.42268 0.0
O14 O 0.2783 0.04963 0.32904 0.0
H15 H 0.33433 0.11216 0.39627 0.0
H16 H 0.33258 0.04166 0.39904 0.0
O17 O 0.27585 0.05726 0.40699 0.0
C18 C 0.28238 0.05724 0.29792 0.0
O19 O 0.28715 0.07896 0.2969 0.0
N20 N 0.27164 0.10284 0.38437 0.0
C21 C 0.26182 0.14622 0.40631 0.0
C22 C 0.25441 0.12725 0.42371 0.0
C23 C 0.25877 0.10569 0.41152 0.0
C24 C 0.27617 0.12103 0.36431 0.0
C25 C 0.27245 0.14282 0.37572 0.0
H26 H 0.25079 0.09149 0.42293 0.0
H27 H 0.2832 0.11856 0.33946 0.0
H28 H 0.21267 0.06176 0.36878 0.0
H29 H 0.16631 0.08329 0.23883 0.0
H30 H 0.39246 0.09808 0.43308 0.0
H31 H 0.24447 0.129 0.4456 0.0
H32 H 0.27809 0.1568 0.36077 0.0
C33 C 0.80859 0.08703 0.19388 0.0
C34 C 0.84093 0.08947 0.21728 0.0
N35 N 0.85455 0.07346 0.20444 0.0
N36 N 0.80173 0.06953 0.16642 0.0
C37 C 0.8302 0.06157 0.17371 0.0
H38 H 0.79113 0.0976 0.19608 0.0
Co39 Co 0.76094 0.06016 0.12642 0.0
C40 C 0.77479 0.0213 0.0864 0.0
O41 O 0.75776 0.00801 0.0972 0.0
N42 N 0.71975 0.05076 0.08546 0.0
C43 C 0.67833 0.0435 0.0213 0.0
C44 C 0.7093 0.05036 0.04222 0.0
C45 C 0.69448 0.04389 0.08996 0.0
N46 N 0.66891 0.03944 0.05125 0.0
O47 O 0.7641 0.03637 0.16483 0.0
H48 H 0.72339 0.05482 0.02675 0.0
H49 H 0.69454 0.04251 0.12079 0.0
O50 O 0.77801 0.04194 0.09724 0.0
C51 C 0.7554 0.04431 0.19128 0.0
O52 O 0.74437 0.06495 0.18496 0.0
N53 N 0.75765 0.08483 0.09169 0.0
C54 C 0.75269 0.12564 0.05007 0.0
C55 C 0.77288 0.10878 0.04957 0.0
C56 C 0.77535 0.0885 0.07115 0.0
C57 C 0.73738 0.10079 0.09158 0.0
C58 C 0.73446 0.12132 0.07088 0.0
H59 H 0.79226 0.07621 0.07256 0.0
H60 H 0.72398 0.0977 0.10867 0.0
H61 H 0.83312 0.04733 0.15676 0.0
H62 H 0.85336 0.10249 0.2409 0.0
H63 H 0.66397 0.04137 0.98663 0.0
H64 H 0.78767 0.11163 0.03438 0.0
H65 H 0.71848 0.13386 0.07178 0.0
C66 C 0.81097 0.92426 0.71867 0.0
C67 C 0.8435 0.92412 0.74125 0.0
N68 N 0.85464 0.93014 0.71392 0.0
N69 N 0.80153 0.93058 0.67734 0.0
C70 C 0.82875 0.93395 0.67543 0.0
H71 H 0.79519 0.92021 0.73173 0.0
Co72 Co 0.75932 0.93482 0.63524 0.0
C73 C 0.76465 0.96927 0.57965 0.0
O74 O 0.74584 0.98218 0.58761 0.0
N75 N 0.71639 0.93919 0.59228 0.0
C76 C 0.67286 0.93877 0.528 0.0
C77 C 0.70424 0.93295 0.55025 0.0
C78 C 0.69169 0.9491 0.59436 0.0
N79 N 0.66498 0.949 0.55576 0.0
O80 O 0.75946 0.96222 0.66362 0.0
H81 H 0.71749 0.92495 0.53626 0.0
H82 H 0.69291 0.95633 0.62336 0.0
O83 O 0.77259 0.95007 0.59772 0.0
C84 C 0.74942 0.95935 0.691 0.0
O85 O 0.73783 0.93962 0.69314 0.0
N86 N 0.75976 0.90693 0.61106 0.0
C87 C 0.7598 0.86308 0.583 0.0
C88 C 0.77771 0.87997 0.57676 0.0
C89 C 0.77758 0.90178 0.59134 0.0
C90 C 0.74232 0.89078 0.61759 0.0
C91 C 0.74186 0.86874 0.60364 0.0
H92 H 0.79236 0.91429 0.58757 0.0
H93 H 0.72883 0.89508 0.63403 0.0
H94 H 0.82975 0.93954 0.64668 0.0
H95 H 0.85786 0.91971 0.77503 0.0
H96 H 0.65727 0.93622 0.49374 0.0
H97 H 0.79242 0.87623 0.56182 0.0
H98 H 0.72757 0.85627 0.60892 0.0
C99 C 0.21604 0.9204 0.78072 0.0
C100 C 0.18386 0.92167 0.76347 0.0
N101 N 0.17682 0.92723 0.79525 0.0
N102 N 0.22975 0.92537 0.82326 0.0
C103 C 0.20526 0.92954 0.83132 0.0
H104 H 0.22866 0.91574 0.7633 0.0
Co105 Co 0.27364 0.9238 0.85788 0.0
C106 C 0.28811 0.93882 0.94514 0.0
O107 O 0.30867 0.92235 0.95969 0.0
N108 N 0.31895 0.92229 0.89188 0.0
C109 C 0.36918 0.91138 0.93024 0.0
C110 C 0.33824 0.90437 0.90918 0.0
C111 C 0.33927 0.94001 0.90292 0.0
N112 N 0.36988 0.9338 0.92617 0.0
O113 O 0.27801 0.95013 0.82899 0.0
H114 H 0.33098 0.88711 0.90742 0.0
H115 H 0.33179 0.95725 0.89436 0.0
O116 O 0.27166 0.94196 0.9041 0.0
C117 C 0.2855 0.94315 0.80056 0.0
O118 O 0.29049 0.9215 0.79934 0.0
N119 N 0.26785 0.89646 0.88047 0.0
C120 C 0.25865 0.85284 0.90169 0.0
C121 C 0.25018 0.87143 0.91856 0.0
C122 C 0.25439 0.89317 0.90684 0.0
C123 C 0.27315 0.87854 0.86059 0.0
C124 C 0.26961 0.8566 0.8716 0.0
H125 H 0.24626 0.90713 0.91849 0.0
H126 H 0.28116 0.88138 0.83683 0.0
H127 H 0.2082 0.93351 0.86317 0.0
H128 H 0.16704 0.91865 0.72985 0.0
H129 H 0.38969 0.90067 0.94649 0.0
H130 H 0.24059 0.86921 0.94077 0.0
H131 H 0.27515 0.84269 0.85641 0.0
C132 C 0.71894 0.59055 0.30542 0.0
C133 C 0.68647 0.59118 0.28496 0.0
N134 N 0.67617 0.57669 0.30514 0.0
N135 N 0.7292 0.57557 0.33814 0.0
C136 C 0.70256 0.56743 0.33729 0.0
H137 H 0.73417 0.6008 0.29759 0.0
Co138 Co 0.77184 0.57003 0.37605 0.0
C139 C 0.77032 0.53213 0.42858 0.0
O140 O 0.78802 0.52058 0.41634 0.0
N141 N 0.81496 0.56465 0.41473 0.0
C142 C 0.85944 0.56105 0.47687 0.0
C143 C 0.82822 0.56704 0.4582 0.0
C144 C 0.83885 0.55717 0.40783 0.0
N145 N 0.86626 0.55482 0.44526 0.0
O146 O 0.77045 0.54487 0.3406 0.0
H147 H 0.81574 0.57232 0.4755 0.0
H148 H 0.83623 0.55345 0.37608 0.0
O149 O 0.76079 0.55164 0.41281 0.0
C150 C 0.77434 0.55232 0.30924 0.0
O151 O 0.78094 0.57378 0.30914 0.0
N152 N 0.77295 0.59584 0.40695 0.0
C153 C 0.77314 0.63794 0.4419 0.0
C154 C 0.75545 0.62013 0.44592 0.0
C155 C 0.75544 0.59918 0.42783 0.0
C156 C 0.79049 0.61283 0.4031 0.0
C157 C 0.79111 0.63398 0.42059 0.0
H158 H 0.74053 0.58598 0.42932 0.0
H159 H 0.80362 0.61 0.38557 0.0
H160 H 0.70241 0.55512 0.35994 0.0
H161 H 0.67163 0.60206 0.25826 0.0
H162 H 0.87557 0.56066 0.51132 0.0
H163 H 0.7408 0.62258 0.46141 0.0
H164 H 0.80529 0.64718 0.41704 0.0
C165 C 0.30409 0.58344 0.19646 0.0
C166 C 0.33647 0.58559 0.21921 0.0
N167 N 0.34902 0.57447 0.19753 0.0
N168 N 0.29621 0.57081 0.1608 0.0
C169 C 0.32414 0.56573 0.16223 0.0
H170 H 0.28736 0.59066 0.20538 0.0
Co171 Co 0.25504 0.56248 0.12054 0.0
C172 C 0.26584 0.52294 0.07944 0.0
O173 O 0.24772 0.51074 0.09008 0.0
N174 N 0.21336 0.55415 0.07943 0.0
C175 C 0.17114 0.54732 0.01576 0.0
C176 C 0.20209 0.55433 0.03598 0.0
C177 C 0.18862 0.54682 0.08466 0.0
N178 N 0.16265 0.54256 0.0464 0.0
O179 O 0.25716 0.5386 0.15846 0.0
H180 H 0.21567 0.559 0.01985 0.0
H181 H 0.18934 0.54472 0.11575 0.0
O182 O 0.271 0.5435 0.09083 0.0
C183 C 0.24757 0.54561 0.18457 0.0
O184 O 0.23583 0.56602 0.179 0.0
N185 N 0.253 0.58714 0.08644 0.0
C186 C 0.24844 0.62756 0.04348 0.0
C187 C 0.26667 0.60974 0.041 0.0
C188 C 0.26891 0.58968 0.0631 0.0
C189 C 0.23505 0.60412 0.08901 0.0
C190 C 0.23241 0.62446 0.06779 0.0
H191 H 0.2838 0.57648 0.06189 0.0
H192 H 0.22317 0.60192 0.1084 0.0
H193 H 0.32639 0.55557 0.13824 0.0
H194 H 0.3497 0.59491 0.24904 0.0
H195 H 0.1563 0.54535 0.98115 0.0
H196 H 0.27931 0.6113 0.02243 0.0
H197 H 0.21867 0.63784 0.07155 0.0
C198 C 0.30409 0.41314 0.69386 0.0
C199 C 0.33634 0.41073 0.71823 0.0
N200 N 0.35046 0.42502 0.70279 0.0
N201 N 0.29783 0.42895 0.6633 0.0
C202 C 0.32655 0.43589 0.6696 0.0
H203 H 0.28629 0.40374 0.69774 0.0
Co204 Co 0.25749 0.43779 0.62164 0.0
C205 C 0.27144 0.47671 0.58233 0.0
O206 O 0.25396 0.48943 0.59318 0.0
N207 N 0.21669 0.44664 0.57899 0.0
C208 C 0.17632 0.45396 0.51397 0.0
C209 C 0.20696 0.44658 0.53591 0.0
C210 C 0.19133 0.45421 0.58231 0.0
N211 N 0.16642 0.45879 0.54314 0.0
O212 O 0.25943 0.46189 0.65891 0.0
H213 H 0.22141 0.4417 0.52123 0.0
H214 H 0.19089 0.45621 0.61269 0.0
O215 O 0.2753 0.45605 0.59306 0.0
C216 C 0.24907 0.45466 0.68407 0.0
O217 O 0.23737 0.43417 0.67781 0.0
N218 N 0.2554 0.41283 0.58834 0.0
C219 C 0.25226 0.37136 0.54978 0.0
C220 C 0.27169 0.38854 0.548 0.0
C221 C 0.27326 0.40918 0.56807 0.0
C222 C 0.23584 0.39655 0.58941 0.0
C223 C 0.23386 0.37567 0.57029 0.0
H224 H 0.28957 0.4218 0.56849 0.0
H225 H 0.22231 0.39967 0.60628 0.0
H226 H 0.32998 0.44872 0.65034 0.0
H227 H 0.34838 0.39892 0.7445 0.0
H228 H 0.16264 0.45608 0.47922 0.0
H229 H 0.28656 0.38572 0.53294 0.0
H230 H 0.21843 0.36289 0.57212 0.0
C231 C 0.71504 0.42044 0.7922 0.0
C232 C 0.68287 0.42241 0.77474 0.0
N233 N 0.67611 0.42876 0.80637 0.0
N234 N 0.72876 0.42561 0.83468 0.0
C235 C 0.70444 0.43056 0.84256 0.0
H236 H 0.72769 0.41516 0.77516 0.0
Co237 Co 0.77232 0.42396 0.86953 0.0
C238 C 0.7858 0.43651 0.95778 0.0
O239 O 0.80622 0.41994 0.97117 0.0
N240 N 0.81754 0.4224 0.90401 0.0
C241 C 0.86775 0.41143 0.94236 0.0
C242 C 0.83681 0.40445 0.92134 0.0
C243 C 0.83787 0.44009 0.91524 0.0
N244 N 0.86844 0.43385 0.93831 0.0
O245 O 0.77657 0.45127 0.84327 0.0
H246 H 0.82953 0.3872 0.91968 0.0
H247 H 0.83047 0.45735 0.90676 0.0
O248 O 0.76983 0.44063 0.91702 0.0
C249 C 0.78523 0.44594 0.81516 0.0
O250 O 0.79142 0.42471 0.812 0.0
N251 N 0.76639 0.39587 0.88933 0.0
C252 C 0.75611 0.3515 0.9059 0.0
C253 C 0.74715 0.36957 0.92348 0.0
C254 C 0.75187 0.39165 0.91405 0.0
C255 C 0.77236 0.3786 0.86873 0.0
C256 C 0.76833 0.35631 0.87748 0.0
H257 H 0.74312 0.40517 0.92589 0.0
H258 H 0.78139 0.38222 0.84633 0.0
H259 H 0.70739 0.43528 0.8741 0.0
H260 H 0.66571 0.41876 0.7415 0.0
H261 H 0.88826 0.40071 0.95843 0.0
H262 H 0.73603 0.36672 0.9437 0.0
H263 H 0.77533 0.34306 0.86264 0.0
H264 H 0.29499 0.92256 0.02121 0.0
H265 H 0.2881 0.94221 0.07712 0.0
H266 H 0.25946 0.00191 0.99792 0.0
H267 H 0.26593 0.98199 0.94081 0.0
H268 H 0.30898 0.00826 0.08528 0.0
H269 H 0.20571 0.97559 0.01097 0.0
H270 H 0.16672 0.94512 0.97697 0.0
H271 H 0.20519 0.91013 0.09858 0.0
H272 H 0.24473 0.94022 0.13319 0.0
H273 H 0.26918 0.07211 0.21834 0.0
H274 H 0.26562 0.05084 0.15714 0.0
H275 H 0.28428 0.98951 0.23099 0.0
H276 H 0.28714 0.01099 0.29308 0.0
H277 H 0.23895 0.9836 0.14569 0.0
H278 H 0.34229 0.01562 0.22025 0.0
H279 H 0.38117 0.04601 0.25522 0.0
H280 H 0.34463 0.08112 0.13393 0.0
H281 H 0.30476 0.05133 0.09846 0.0
C282 C 0.28699 0.93984 0.01539 0.0
C283 C 0.28124 0.95083 0.97673 0.0
C284 C 0.28287 0.95098 0.04735 0.0
C285 C 0.27318 0.97346 0.04166 0.0
C286 C 0.26688 0.9845 0.00282 0.0
C287 C 0.27048 0.97314 0.97025 0.0
C288 C 0.27179 0.98557 0.07779 0.0
C289 C 0.29325 0.00318 0.09799 0.0
C290 C 0.25214 0.97826 0.09537 0.0
C291 C 0.22839 0.9601 0.07461 0.0
C292 C 0.20606 0.9613 0.03039 0.0
C293 C 0.18381 0.94412 0.01101 0.0
C294 C 0.18352 0.92569 0.03558 0.0
C295 C 0.20546 0.92442 0.07958 0.0
C296 C 0.22777 0.94154 0.09911 0.0
C297 C 0.27257 0.05408 0.22186 0.0
C298 C 0.27899 0.04327 0.26093 0.0
C299 C 0.27048 0.04193 0.18666 0.0
C300 C 0.27538 0.01865 0.18969 0.0
C301 C 0.28064 0.00752 0.22806 0.0
C302 C 0.28236 0.01977 0.2635 0.0
C303 C 0.27598 0.00646 0.15298 0.0
C304 C 0.25458 0.98875 0.13287 0.0
C305 C 0.29592 0.01353 0.13561 0.0
C306 C 0.32031 0.03129 0.15674 0.0
C307 C 0.34236 0.02989 0.20106 0.0
C308 C 0.3646 0.04701 0.22099 0.0
C309 C 0.36543 0.06544 0.1968 0.0
C310 C 0.34397 0.06682 0.15263 0.0
C311 C 0.3215 0.04984 0.1326 0.0
H312 H 0.3827 0.07866 0.21229 0.0
H313 H 0.16627 0.91242 0.02057 0.0
H314 H 0.78739 0.00462 0.22526 0.0
H315 H 0.79853 0.98748 0.29517 0.0
H316 H 0.74476 0.03972 0.31537 0.0
H317 H 0.73353 0.05666 0.2465 0.0
H318 H 0.80448 0.03389 0.38585 0.0
H319 H 0.71424 0.98841 0.28498 0.0
H320 H 0.68789 0.96193 0.22391 0.0
H321 H 0.76146 0.91359 0.29046 0.0
H322 H 0.78845 0.93994 0.35171 0.0
H323 H 0.74853 0.00762 0.5311 0.0
H324 H 0.75746 0.01638 0.46974 0.0
H325 H 0.80816 0.95415 0.48848 0.0
H326 H 0.79937 0.94521 0.55016 0.0
H327 H 0.76398 0.96001 0.40387 0.0
H328 H 0.84889 0.00187 0.51026 0.0
H329 H 0.87629 0.02763 0.57222 0.0
H330 H 0.81646 0.08184 0.49732 0.0
H331 H 0.78838 0.05633 0.43506 0.0
C332 C 0.77767 0.01221 0.24446 0.0
C333 C 0.75976 0.03206 0.2305 0.0
C334 C 0.78412 0.00248 0.28436 0.0
C335 C 0.77273 0.01251 0.31059 0.0
C336 C 0.75411 0.03188 0.29591 0.0
C337 C 0.74761 0.04149 0.25634 0.0
C338 C 0.78018 0.0035 0.35383 0.0
C339 C 0.7957 0.01772 0.38989 0.0
C340 C 0.76988 0.98204 0.35934 0.0
C341 C 0.75356 0.96624 0.32261 0.0
C342 C 0.72493 0.97221 0.2864 0.0
C343 C 0.70985 0.95722 0.2518 0.0
C344 C 0.72305 0.93612 0.25323 0.0
C345 C 0.7513 0.92996 0.28935 0.0
C346 C 0.76649 0.94491 0.32401 0.0
C347 C 0.76195 0.99589 0.52264 0.0
C348 C 0.77305 0.97563 0.54546 0.0
C349 C 0.76711 0.00096 0.48757 0.0
C350 C 0.78361 0.98595 0.47465 0.0
C351 C 0.79534 0.96593 0.49788 0.0
C352 C 0.79031 0.96089 0.53318 0.0
C353 C 0.7869 0.9909 0.43546 0.0
C354 C 0.77355 0.97593 0.40024 0.0
C355 C 0.79948 0.01161 0.43076 0.0
C356 C 0.81642 0.02713 0.468 0.0
C357 C 0.84143 0.01925 0.50705 0.0
C358 C 0.85711 0.03382 0.54223 0.0
C359 C 0.8481 0.05635 0.53872 0.0
C360 C 0.82343 0.06438 0.49998 0.0
C361 C 0.80765 0.04988 0.4647 0.0
H362 H 0.86025 0.06761 0.56599 0.0
H363 H 0.71134 0.92453 0.22642 0.0
H364 H 0.80342 0.98251 0.74122 0.0
H365 H 0.81658 0.00022 0.81115 0.0
H366 H 0.72056 0.9905 0.78674 0.0
H367 H 0.70765 0.9723 0.71768 0.0
H368 H 0.75295 0.03164 0.83717 0.0
H369 H 0.76387 0.94924 0.82989 0.0
H370 H 0.78573 0.91675 0.80926 0.0
H371 H 0.87987 0.94133 0.88985 0.0
H372 H 0.85846 0.97419 0.91034 0.0
H373 H 0.75526 0.984 0.0343 0.0
H374 H 0.76134 0.97736 0.96965 0.0
H375 H 0.82078 0.0361 0.9991 0.0
H376 H 0.81552 0.04257 0.06427 0.0
H377 H 0.81437 0.97432 0.94873 0.0
H378 H 0.78816 0.06591 0.90762 0.0
H379 H 0.76623 0.09831 0.9286 0.0
H380 H 0.70142 0.05447 0.94478 0.0
H381 H 0.72312 0.02187 0.92418 0.0
C382 C 0.78486 0.98513 0.75 0.0
C383 C 0.75457 0.97612 0.72441 0.0
C384 C 0.7924 0.99515 0.78991 0.0
C385 C 0.76954 0.99653 0.80405 0.0
C386 C 0.73843 0.98971 0.77623 0.0
C387 C 0.7311 0.97928 0.73691 0.0
C388 C 0.77887 0.00059 0.85021 0.0
C389 C 0.7669 0.01937 0.86172 0.0
C390 C 0.79672 0.98441 0.88211 0.0
C391 C 0.8096 0.9642 0.87137 0.0
C392 C 0.78922 0.94773 0.84309 0.0
C393 C 0.80152 0.92927 0.8314 0.0
C394 C 0.83416 0.92699 0.8482 0.0
C395 C 0.85458 0.94313 0.87685 0.0
C396 C 0.84239 0.96166 0.88853 0.0
C397 C 0.77044 0.99509 0.02782 0.0
C398 C 0.78426 0.01413 0.05379 0.0
C399 C 0.77391 0.99127 0.99089 0.0
C400 C 0.79112 0.00645 0.97943 0.0
C401 C 0.80717 0.02434 0.00728 0.0
C402 C 0.80391 0.02808 0.04431 0.0
C403 C 0.78849 0.00537 0.93567 0.0
C404 C 0.80139 0.98701 0.92454 0.0
C405 C 0.77153 0.02194 0.90416 0.0
C406 C 0.7573 0.04152 0.91451 0.0
C407 C 0.76911 0.06325 0.91542 0.0
C408 C 0.75683 0.08162 0.92744 0.0
C409 C 0.73255 0.07844 0.93822 0.0
C410 C 0.72036 0.0569 0.93672 0.0
C411 C 0.73266 0.03848 0.92494 0.0
H412 H 0.72315 0.09266 0.94766 0.0
H413 H 0.84364 0.9127 0.83908 0.0
H414 H 0.30419 0.93128 0.74166 0.0
H415 H 0.30333 0.95339 0.6831 0.0
H416 H 0.26921 0.0107 0.72393 0.0
H417 H 0.26922 0.98811 0.78307 0.0
H418 H 0.23755 0.00604 0.63644 0.0
H419 H 0.34492 0.00942 0.74222 0.0
H420 H 0.39661 0.99564 0.79806 0.0
H421 H 0.40513 0.95477 0.70308 0.0
H422 H 0.3532 0.968 0.64676 0.0
H423 H 0.28767 0.07935 0.51365 0.0
H424 H 0.28304 0.06049 0.57256 0.0
H425 H 0.28237 0.9961 0.51564 0.0
H426 H 0.28592 0.01509 0.45533 0.0
H427 H 0.33178 0.00736 0.61321 0.0
H428 H 0.22063 0.00584 0.50751 0.0
H429 H 0.1715 0.0241 0.45434 0.0
H430 H 0.17302 0.06667 0.55433 0.0
H431 H 0.22275 0.04911 0.60791 0.0
C432 C 0.29662 0.94862 0.73865 0.0
C433 C 0.28686 0.95793 0.76731 0.0
C434 C 0.29627 0.96131 0.70503 0.0
C435 C 0.28663 0.98382 0.69931 0.0
C436 C 0.27686 0.99335 0.72782 0.0
C437 C 0.27709 0.98051 0.76174 0.0
C438 C 0.28659 0.99685 0.66294 0.0
C439 C 0.2583 0.00661 0.63176 0.0
C440 C 0.31361 0.99756 0.65656 0.0
C441 C 0.345 0.98959 0.69028 0.0
C442 C 0.35768 0.99736 0.73327 0.0
C443 C 0.38705 0.98967 0.76502 0.0
C444 C 0.40412 0.97432 0.75414 0.0
C445 C 0.39187 0.96666 0.71146 0.0
C446 C 0.36247 0.97426 0.67959 0.0
C447 C 0.28607 0.06116 0.51336 0.0
C448 C 0.28717 0.0486 0.4801 0.0
C449 C 0.2834 0.05046 0.54696 0.0
C450 C 0.28244 0.02696 0.54842 0.0
C451 C 0.28303 0.01429 0.51489 0.0
C452 C 0.28489 0.02508 0.48049 0.0
C453 C 0.28261 0.01583 0.58641 0.0
C454 C 0.31108 0.00668 0.61803 0.0
C455 C 0.25602 0.01619 0.5936 0.0
C456 C 0.22567 0.02634 0.56164 0.0
C457 C 0.2107 0.01926 0.5181 0.0
C458 C 0.1827 0.02946 0.48788 0.0
C459 C 0.16917 0.04657 0.50092 0.0
C460 C 0.18356 0.05345 0.54426 0.0
C461 C 0.21168 0.04338 0.57456 0.0
H462 H 0.14753 0.0545 0.47747 0.0
H463 H 0.42687 0.96839 0.77876 0.0
H464 H 0.76149 0.56668 0.22932 0.0
H465 H 0.75796 0.54472 0.16859 0.0
H466 H 0.77542 0.484 0.24382 0.0
H467 H 0.77877 0.50614 0.30545 0.0
H468 H 0.8141 0.48949 0.20338 0.0
H469 H 0.70421 0.49189 0.16321 0.0
H470 H 0.65416 0.50991 0.14937 0.0
H471 H 0.65616 0.55002 0.04867 0.0
H472 H 0.7065 0.53249 0.06235 0.0
H473 H 0.79317 0.41868 0.03301 0.0
H474 H 0.78596 0.4367 0.08994 0.0
H475 H 0.75598 0.49758 0.01421 0.0
H476 H 0.76219 0.47908 0.95568 0.0
H477 H 0.72203 0.49065 0.05574 0.0
H478 H 0.83242 0.49122 0.09794 0.0
H479 H 0.8836 0.47504 0.11203 0.0
H480 H 0.88216 0.43172 0.20925 0.0
H481 H 0.83071 0.44741 0.1953 0.0
C482 C 0.76442 0.54863 0.23307 0.0
C483 C 0.77056 0.53813 0.27232 0.0
C484 C 0.76217 0.53608 0.1981 0.0
C485 C 0.76617 0.51272 0.20149 0.0
C486 C 0.7721 0.50204 0.24051 0.0
C487 C 0.77393 0.51464 0.27558 0.0
C488 C 0.76587 0.49995 0.16481 0.0
C489 C 0.79376 0.48931 0.1713 0.0
C490 C 0.7397 0.5005 0.12259 0.0
C491 C 0.70929 0.51099 0.11405 0.0
C492 C 0.69412 0.50468 0.13834 0.0
C493 C 0.66566 0.51479 0.13048 0.0
C494 C 0.65202 0.53113 0.09822 0.0
C495 C 0.66677 0.53737 0.07367 0.0
C496 C 0.69525 0.52733 0.08143 0.0
C497 C 0.78495 0.43591 0.02824 0.0
C498 C 0.77879 0.44762 0.99012 0.0
C499 C 0.78089 0.44622 0.06098 0.0
C500 C 0.7713 0.46872 0.05705 0.0
C501 C 0.76371 0.48024 0.01818 0.0
C502 C 0.76729 0.46972 0.9848 0.0
C503 C 0.77031 0.48014 0.09429 0.0
C504 C 0.74229 0.49063 0.08788 0.0
C505 C 0.79651 0.47971 0.1366 0.0
C506 C 0.82756 0.47035 0.14528 0.0
C507 C 0.84291 0.47813 0.12211 0.0
C508 C 0.87198 0.46907 0.1301 0.0
C509 C 0.88608 0.45233 0.16144 0.0
C510 C 0.87118 0.44467 0.18494 0.0
C511 C 0.84208 0.45365 0.17703 0.0
H512 H 0.90859 0.44533 0.16757 0.0
H513 H 0.62999 0.53894 0.09219 0.0
H514 H 0.21927 0.55328 0.23412 0.0
H515 H 0.23274 0.53716 0.30458 0.0
H516 H 0.29936 0.49269 0.29375 0.0
H517 H 0.28605 0.50902 0.22241 0.0
H518 H 0.25858 0.47419 0.3337 0.0
H519 H 0.33279 0.5319 0.34946 0.0
H520 H 0.34833 0.56883 0.33348 0.0
H521 H 0.29364 0.60192 0.38447 0.0
H522 H 0.2772 0.56517 0.39989 0.0
H523 H 0.31157 0.45646 0.55782 0.0
H524 H 0.318 0.46544 0.49429 0.0
H525 H 0.25874 0.52373 0.46979 0.0
H526 H 0.25217 0.51489 0.53318 0.0
H527 H 0.30753 0.53129 0.45066 0.0
H528 H 0.22664 0.47443 0.42229 0.0
H529 H 0.20956 0.43811 0.43841 0.0
H530 H 0.27692 0.40357 0.41191 0.0
H531 H 0.2947 0.43978 0.39619 0.0
C532 C 0.23644 0.53982 0.24623 0.0
C533 C 0.25193 0.53263 0.22299 0.0
C534 C 0.24404 0.5306 0.2865 0.0
C535 C 0.26731 0.514 0.3045 0.0
C536 C 0.28136 0.50555 0.28026 0.0
C537 C 0.27373 0.51486 0.23963 0.0
C538 C 0.27852 0.50746 0.35023 0.0
C539 C 0.2701 0.48638 0.35958 0.0
C540 C 0.29316 0.52356 0.38374 0.0
C541 C 0.30362 0.54575 0.37561 0.0
C542 C 0.3239 0.54705 0.35701 0.0
C543 C 0.33288 0.56795 0.34806 0.0
C544 C 0.32195 0.58771 0.35792 0.0
C545 C 0.30209 0.5866 0.37686 0.0
C546 C 0.29295 0.56573 0.38574 0.0
C547 C 0.30028 0.47138 0.53929 0.0
C548 C 0.28076 0.48469 0.54997 0.0
C549 C 0.30406 0.4765 0.50306 0.0
C550 C 0.28833 0.49498 0.47687 0.0
C551 C 0.27098 0.50933 0.4895 0.0
C552 C 0.26722 0.50423 0.52575 0.0
C553 C 0.28702 0.49819 0.43407 0.0
C554 C 0.29703 0.51877 0.42519 0.0
C555 C 0.27391 0.48161 0.40109 0.0
C556 C 0.26217 0.4598 0.40844 0.0
C557 C 0.23783 0.45909 0.41997 0.0
C558 C 0.22806 0.43854 0.4291 0.0
C559 C 0.24223 0.41855 0.42635 0.0
C560 C 0.26602 0.41907 0.41411 0.0
C561 C 0.27593 0.4396 0.40504 0.0
H562 H 0.23474 0.40266 0.43362 0.0
H563 H 0.32891 0.60388 0.35095 0.0
H564 H 0.30808 0.54162 0.0569 0.0
H565 H 0.31477 0.53225 0.99378 0.0
H566 H 0.25056 0.47633 0.96513 0.0
H567 H 0.24372 0.48557 0.02818 0.0
H568 H 0.29979 0.46678 0.94788 0.0
H569 H 0.2234 0.52653 0.91939 0.0
H570 H 0.20863 0.56351 0.93607 0.0
H571 H 0.27944 0.59542 0.91271 0.0
H572 H 0.29502 0.55853 0.89665 0.0
H573 H 0.21753 0.44719 0.72947 0.0
H574 H 0.22905 0.46272 0.79968 0.0
H575 H 0.29972 0.50631 0.79636 0.0
H576 H 0.28833 0.4906 0.72524 0.0
H577 H 0.25825 0.52539 0.83321 0.0
H578 H 0.32917 0.46527 0.85093 0.0
H579 H 0.34319 0.42787 0.83505 0.0
H580 H 0.28304 0.39661 0.87942 0.0
H581 H 0.26812 0.43387 0.89473 0.0
C582 C 0.29571 0.52714 0.03753 0.0
C583 C 0.27483 0.51462 0.047 0.0
C584 C 0.29963 0.52179 0.00153 0.0
C585 C 0.28266 0.50388 0.97433 0.0
C586 C 0.26377 0.49029 0.98564 0.0
C587 C 0.25987 0.4956 0.0217 0.0
C588 C 0.28199 0.50054 0.93194 0.0
C589 C 0.29083 0.4796 0.92289 0.0
C590 C 0.27096 0.51751 0.89966 0.0
C591 C 0.26057 0.53977 0.9072 0.0
C592 C 0.23587 0.54143 0.91791 0.0
C593 C 0.22738 0.56237 0.92732 0.0
C594 C 0.24315 0.5818 0.92557 0.0
C595 C 0.26729 0.58035 0.91412 0.0
C596 C 0.27595 0.55943 0.90485 0.0
C597 C 0.23519 0.46035 0.74317 0.0
C598 C 0.25235 0.46746 0.72213 0.0
C599 C 0.24168 0.46923 0.7833 0.0
C600 C 0.26552 0.48538 0.80338 0.0
C601 C 0.28126 0.49379 0.78127 0.0
C602 C 0.27473 0.48484 0.74075 0.0
C603 C 0.27545 0.49147 0.84903 0.0
C604 C 0.26812 0.51282 0.85862 0.0
C605 C 0.28795 0.4749 0.88193 0.0
C606 C 0.29738 0.4524 0.87373 0.0
C607 C 0.31876 0.45043 0.85703 0.0
C608 C 0.32688 0.42925 0.84814 0.0
C609 C 0.31399 0.40987 0.85618 0.0
C610 C 0.29301 0.41164 0.87322 0.0
C611 C 0.28473 0.43279 0.88204 0.0
H612 H 0.32029 0.39349 0.84926 0.0
H613 H 0.23662 0.59798 0.93301 0.0
H614 H 0.82222 0.44325 0.77677 0.0
H615 H 0.81807 0.46474 0.7153 0.0
H616 H 0.74618 0.50638 0.71954 0.0
H617 H 0.75003 0.48437 0.78158 0.0
H618 H 0.72775 0.49094 0.63847 0.0
H619 H 0.818 0.5289 0.7435 0.0
H620 H 0.8704 0.53319 0.80744 0.0
H621 H 0.91281 0.49645 0.74284 0.0
H622 H 0.8606 0.4916 0.67874 0.0
H623 H 0.73278 0.55014 0.46028 0.0
H624 H 0.73352 0.54128 0.52912 0.0
H625 H 0.80227 0.4893 0.5533 0.0
H626 H 0.80177 0.49805 0.48482 0.0
H627 H 0.81967 0.51825 0.62326 0.0
H628 H 0.72701 0.47588 0.52343 0.0
H629 H 0.67417 0.47178 0.46018 0.0
H630 H 0.63624 0.51877 0.51641 0.0
H631 H 0.68899 0.52337 0.57978 0.0
C632 C 0.80595 0.45728 0.76527 0.0
C633 C 0.78645 0.46215 0.78397 0.0
C634 C 0.8037 0.46965 0.73014 0.0
C635 C 0.78198 0.48733 0.71285 0.0
C636 C 0.7632 0.49286 0.73246 0.0
C637 C 0.7656 0.48045 0.76808 0.0
C638 C 0.77759 0.49844 0.67224 0.0
C639 C 0.7477 0.49748 0.63541 0.0
C640 C 0.80366 0.50673 0.668 0.0
C641 C 0.83528 0.50981 0.7063 0.0
C642 C 0.83846 0.52162 0.74299 0.0
C643 C 0.86815 0.52416 0.77927 0.0
C644 C 0.89491 0.51508 0.77922 0.0
C645 C 0.89205 0.50348 0.74283 0.0
C646 C 0.86241 0.50087 0.70647 0.0
C647 C 0.74781 0.53666 0.48002 0.0
C648 C 0.7673 0.52485 0.46703 0.0
C649 C 0.74818 0.53161 0.51936 0.0
C650 C 0.76808 0.5147 0.54647 0.0
C651 C 0.78687 0.50251 0.53301 0.0
C652 C 0.78636 0.50742 0.49362 0.0
C653 C 0.77016 0.50995 0.58946 0.0
C654 C 0.79963 0.51217 0.62663 0.0
C655 C 0.74369 0.50303 0.59404 0.0
C656 C 0.712 0.50018 0.55607 0.0
C657 C 0.70745 0.48549 0.52212 0.0
C658 C 0.67752 0.48304 0.48629 0.0
C659 C 0.65189 0.49506 0.4842 0.0
C660 C 0.65613 0.5095 0.51803 0.0
C661 C 0.68603 0.51203 0.55392 0.0
H662 H 0.62873 0.49314 0.45644 0.0
H663 H 0.91787 0.51704 0.80736 0.0
H664 H 0.65351 0.98656 0.58993 0.0
H665 H 0.60211 0.00377 0.56919 0.0
H666 H 0.556 0.94997 0.4779 0.0
H667 H 0.60749 0.93324 0.49759 0.0
H668 H 0.53006 0.98657 0.4409 0.0
H669 H 0.55489 0.95564 0.57932 0.0
H670 H 0.58743 0.9486 0.65765 0.0
H671 H 0.58748 0.01915 0.68365 0.0
H672 H 0.55529 0.02665 0.6054 0.0
H673 H 0.37571 0.02204 0.39766 0.0
H674 H 0.4236 -0.00079 0.42252 0.0
H675 H 0.47857 0.05262 0.50882 0.0
H676 H 0.4309 0.07503 0.4854 0.0
H677 H 0.49774 0.01337 0.54814 0.0
H678 H 0.47439 0.04345 0.40701 0.0
H679 H 0.44172 0.04916 0.32822 0.0
H680 H 0.43768 0.97782 0.30755 0.0
H681 H 0.46998 0.97166 0.38626 0.0
C682 C 0.63237 0.9783 0.56581 0.0
C683 C 0.63458 0.95852 0.54546 0.0
C684 C 0.6029 0.98811 0.55399 0.0
C685 C 0.57485 0.97807 0.5223 0.0
C686 C 0.57711 0.95816 0.50232 0.0
C687 C 0.60658 0.94857 0.51361 0.0
C688 C 0.54332 0.98867 0.50887 0.0
C689 C 0.52286 0.99205 0.46445 0.0
C690 C 0.53377 0.99619 0.53932 0.0
C691 C 0.55289 0.99172 0.58645 0.0
C692 C 0.562 0.96967 0.60172 0.0
C693 C 0.58037 0.9656 0.64611 0.0
C694 C 0.58958 0.98342 0.6756 0.0
C695 C 0.58036 0.00536 0.66077 0.0
C696 C 0.56202 0.00953 0.6164 0.0
C697 C 0.3979 0.02878 0.42237 0.0
C698 C 0.39939 0.05053 0.43911 0.0
C699 C 0.42538 0.01579 0.43629 0.0
C700 C 0.45493 0.02431 0.46709 0.0
C701 C 0.4562 0.04566 0.48488 0.0
C702 C 0.42886 0.05859 0.47109 0.0
C703 C 0.48478 0.01143 0.48033 0.0
C704 C 0.50492 0.00766 0.52469 0.0
C705 C 0.49388 0.00334 0.44982 0.0
C706 C 0.47433 0.00709 0.40255 0.0
C707 C 0.46632 0.02898 0.38568 0.0
C708 C 0.44791 0.03229 0.34104 0.0
C709 C 0.4376 0.01386 0.31292 0.0
C710 C 0.44566 0.99207 0.32938 0.0
C711 C 0.46402 0.98866 0.37398 0.0
H712 H 0.42349 0.01643 0.27836 0.0
H713 H 0.60381 0.98024 0.70995 0.0
H714 H 0.42464 0.92819 0.00021 0.0
H715 H 0.47384 0.94932 0.02375 0.0
H716 H 0.42832 0.99173 0.91087 0.0
H717 H 0.37889 0.97049 0.88714 0.0
H718 H 0.48564 0.97495 0.92295 0.0
H719 H 0.44639 0.01273 0.00825 0.0
H720 H 0.42482 0.01565 0.05946 0.0
H721 H 0.50814 0.98433 0.15872 0.0
H722 H 0.53003 0.98091 0.10789 0.0
H723 H 0.6132 0.04969 0.98171 0.0
H724 H 0.56119 0.03434 0.96316 0.0
H725 H 0.60179 0.99599 0.08184 0.0
H726 H 0.65409 0.01178 0.10093 0.0
H727 H 0.54587 0.01171 0.0665 0.0
H728 H 0.58432 0.97213 0.98202 0.0
H729 H 0.60616 0.96776 0.93135 0.0
H730 H 0.52474 0.00048 0.83117 0.0
H731 H 0.50262 0.00536 0.88146 0.0
C732 C 0.42506 0.94212 0.98057 0.0
C733 C 0.39789 0.94766 0.94179 0.0
C734 C 0.45314 0.95429 0.9942 0.0
C735 C 0.45481 0.97222 0.96925 0.0
C736 C 0.42759 0.97801 0.93076 0.0
C737 C 0.39931 0.96599 0.91736 0.0
C738 C 0.48544 0.98402 0.98229 0.0
C739 C 0.49854 0.98335 0.95401 0.0
C740 C 0.5028 0.99433 0.02343 0.0
C741 C 0.48972 0.99637 0.05411 0.0
C742 C 0.46 0.00628 0.04088 0.0
C743 C 0.44774 0.00806 0.06986 0.0
C744 C 0.46507 0.00013 0.11229 0.0
C745 C 0.49473 0.99044 0.12584 0.0
C746 C 0.50709 0.9886 0.09696 0.0
C747 C 0.61109 0.038 0.00391 0.0
C748 C 0.63789 0.03174 0.04255 0.0
C749 C 0.58129 0.02919 0.99323 0.0
C750 C 0.57752 0.01353 0.02051 0.0
C751 C 0.60403 0.00792 0.06006 0.0
C752 C 0.63392 0.01698 0.07102 0.0
C753 C 0.54612 0.00269 0.00709 0.0
C754 C 0.53292 0.00344 0.03533 0.0
C755 C 0.52872 0.99224 0.966 0.0
C756 C 0.54198 0.98933 0.93567 0.0
C757 C 0.57119 0.97857 0.9493 0.0
C758 C 0.58361 0.97597 0.92063 0.0
C759 C 0.5669 0.9839 0.87811 0.0
C760 C 0.53769 0.99439 0.86415 0.0
C761 C 0.5252 0.99707 0.89271 0.0
H762 H 0.57654 0.98186 0.85596 0.0
H763 H 0.45554 0.00153 0.13469 0.0
H764 H 0.92408 0.56361 0.51272 0.0
H765 H 0.97431 0.54721 0.5267 0.0
H766 H 0.92806 0.51101 0.40563 0.0
H767 H 0.87711 0.52674 0.39222 0.0
H768 H 0.96744 0.48405 0.46825 0.0
H769 H 0.976 0.5573 0.41906 0.0
H770 H 0.97409 0.59872 0.41634 0.0
H771 H 0.04702 0.60198 0.54881 0.0
H772 H 0.04907 0.56056 0.55253 0.0
H773 H 0.11086 0.45187 0.47042 0.0
H774 H 0.05964 0.46837 0.45239 0.0
H775 H 0.10074 0.50201 0.57629 0.0
H776 H 0.1524 0.48584 0.59423 0.0
H777 H 0.06367 0.53024 0.50961 0.0
H778 H 0.05384 0.45652 0.55821 0.0
H779 H 0.05566 0.41509 0.55956 0.0
H780 H 0.98489 0.41289 0.42576 0.0
H781 H 0.98296 0.45435 0.42344 0.0
C782 C 0.92441 0.55211 0.48903 0.0
C783 C 0.89635 0.54643 0.45141 0.0
C784 C 0.95334 0.54291 0.49688 0.0
C785 C 0.95517 0.52803 0.46704 0.0
C786 C 0.92731 0.52251 0.42912 0.0
C787 C 0.89821 0.53168 0.42128 0.0
C788 C 0.98603 0.51773 0.47646 0.0
C789 C 0.98834 0.49419 0.47654 0.0
C790 C 1.01358 0.53088 0.48831 0.0
C791 C 1.01249 0.55581 0.48617 0.0
C792 C 0.99147 0.56684 0.44772 0.0
C793 C 0.99039 0.59032 0.44598 0.0
C794 C 1.01037 0.60297 0.48241 0.0
C795 C 0.03153 0.59216 0.52063 0.0
C796 C 0.03269 0.56868 0.52256 0.0
C797 C 0.10908 0.46282 0.49384 0.0
C798 C 0.13582 0.46757 0.53377 0.0
C799 C 0.07968 0.47211 0.4836 0.0
C800 C 0.07624 0.48632 0.51307 0.0
C801 C 0.10281 0.49105 0.55307 0.0
C802 C 0.13227 0.48165 0.56345 0.0
C803 C 0.04505 0.49662 0.50164 0.0
C804 C 0.04271 0.52015 0.50116 0.0
C805 C 1.01745 0.48347 0.48917 0.0
C806 C 0.01849 0.45854 0.49054 0.0
C807 C 0.03885 0.44721 0.52897 0.0
C808 C 0.03987 0.42372 0.52993 0.0
C809 C 0.02047 0.41137 0.49274 0.0
C810 C 0.99994 0.42248 0.45453 0.0
C811 C 0.99885 0.44597 0.45339 0.0
H812 H 0.02129 0.39318 0.49355 0.0
H813 H 1.00949 0.62115 0.481 0.0
H814 H 0.10548 0.55066 0.97744 0.0
H815 H 0.05469 0.53421 0.96282 0.0
H816 H 0.1001 0.49836 0.08417 0.0
H817 H 0.15116 0.51462 0.09875 0.0
H818 H 0.06128 0.47115 0.01555 0.0
H819 H 0.05399 0.54271 0.0737 0.0
H820 H 0.05579 0.58408 0.07892 0.0
H821 H 0.9808 0.58877 0.94799 0.0
H822 H 0.97886 0.54741 0.94177 0.0
H823 H 0.92356 0.42854 0.01178 0.0
H824 H 0.97273 0.44933 0.03349 0.0
H825 H 0.92634 0.49077 0.91923 0.0
H826 H 0.87677 0.47023 0.89801 0.0
H827 H 0.96585 0.51567 0.98529 0.0
H828 H 0.97372 0.44561 0.92431 0.0
H829 H 0.97167 0.40441 0.91548 0.0
H830 H 0.0453 0.39703 0.04673 0.0
H831 H 0.04749 0.4382 0.05654 0.0
C832 C 0.10468 0.5393 0.00105 0.0
C833 C 0.13242 0.53392 0.03923 0.0
C834 C 0.07556 0.53004 0.99281 0.0
C835 C 0.0735 0.51515 0.02251 0.0
C836 C 0.1011 0.50987 0.06085 0.0
C837 C 0.13023 0.51929 0.0693 0.0
C838 C 0.0428 0.50439 0.01261 0.0
C839 C 0.04055 0.48087 0.00968 0.0
C840 C 1.01545 0.51709 0.00342 0.0
C841 C 1.01648 0.54196 0.00715 0.0
C842 C 0.03806 0.55256 0.0459 0.0
C843 C 0.03907 0.57601 0.04906 0.0
C844 C 0.01848 0.58904 0.01377 0.0
C845 C 0.99676 0.57865 0.97528 0.0
C846 C 0.99568 0.55521 0.97194 0.0
C847 C 0.92383 0.44217 0.99144 0.0
C848 C 0.8964 0.44763 0.95301 0.0
C849 C 0.95196 0.45402 0.00379 0.0
C850 C 0.95355 0.47131 0.97751 0.0
C851 C 0.92582 0.47745 0.94 0.0
C852 C 0.89747 0.46575 0.92791 0.0
C853 C 0.98435 0.48238 0.9885 0.0
C854 C 0.9866 0.50593 0.99141 0.0
C855 C 1.01169 0.46973 0.99713 0.0
C856 C 1.01055 0.44497 0.99128 0.0
C857 C 0.98932 0.43519 0.95138 0.0
C858 C 0.98815 0.41184 0.94619 0.0
C859 C 1.00828 0.39811 0.98055 0.0
C860 C 0.02969 0.40769 0.02016 0.0
C861 C 0.03092 0.43103 0.02555 0.0
H862 H 1.00734 0.38004 0.97647 0.0
H863 H 0.0193 0.6072 0.01628 0.0
H864 H 0.16091 0.0777 0.36429 0.0
H865 H 0.10649 0.07584 0.35354 0.0
H866 H 0.07433 0.0518 0.22301 0.0
H867 H 0.1282 0.05404 0.23351 0.0
H868 H 0.03929 0.08516 0.22125 0.0
H869 H 0.0775 0.0183 0.30779 0.0
H870 H 0.11193 0.99561 0.37182 0.0
H871 H 0.08593 0.03608 0.4514 0.0
H872 H 0.05174 0.05927 0.38798 0.0
H873 H 0.88166 0.05533 0.1588 0.0
H874 H 0.93802 0.05244 0.18139 0.0
H875 H 0.96007 0.08282 0.30431 0.0
H876 H 0.90361 0.08531 0.28229 0.0
H877 H 1.00053 0.04775 0.31379 0.0
H878 H 0.96231 0.11428 0.22694 0.0
H879 H 0.9267 0.13617 0.16237 0.0
H880 H 0.95279 0.0955 0.08312 0.0
H881 H 0.98824 0.07315 0.14715 0.0
C882 C 0.14224 0.07161 0.3337 0.0
C883 C 0.14872 0.06622 0.29958 0.0
C884 C 0.11113 0.07055 0.3275 0.0
C885 C 0.0861 0.06376 0.2873 0.0
C886 C 0.09301 0.05734 0.25413 0.0
C887 C 0.12385 0.0586 0.26015 0.0
C888 C 0.05241 0.06476 0.27814 0.0
C889 C 0.03087 0.07668 0.24129 0.0
C890 C 0.04134 0.05437 0.30489 0.0
C891 C 0.06231 0.04068 0.34319 0.0
C892 C 0.07937 0.02252 0.33903 0.0
C893 C 0.09878 0.00953 0.37519 0.0
C894 C 0.10109 0.01439 0.41563 0.0
C895 C 0.08408 0.03231 0.42003 0.0
C896 C 0.06471 0.0454 0.384 0.0
C897 C 0.89841 0.0611 0.1909 0.0
C898 C 0.88795 0.07068 0.2186 0.0
C899 C 0.93071 0.05958 0.20368 0.0
C900 C 0.95336 0.06765 0.24439 0.0
C901 C 0.94309 0.07654 0.27271 0.0
C902 C 0.91075 0.07814 0.25988 0.0
C903 C 0.98759 0.06767 0.25649 0.0
C904 C 1.00914 0.05615 0.29391 0.0
C905 C 0.9988 0.07837 0.23029 0.0
C906 C 0.97772 0.09191 0.19178 0.0
C907 C 0.96029 0.1099 0.19569 0.0
C908 C 0.94015 0.12241 0.1592 0.0
C909 C 0.93742 0.1172 0.11865 0.0
C910 C 0.9549 0.0995 0.11454 0.0
C911 C 0.97504 0.08692 0.15093 0.0
H912 H 0.92182 0.12689 0.09043 0.0
H913 H 0.11606 0.00428 0.44357 0.0
H914 H 0.15904 0.949 0.84913 0.0
H915 H 0.10524 0.95267 0.83959 0.0
H916 H 0.0692 0.91384 0.72176 0.0
H917 H 0.12229 0.9096 0.73136 0.0
H918 H 0.03412 0.9523 0.71176 0.0
H919 H 0.07725 0.88993 0.81392 0.0
H920 H 0.11686 0.87331 0.88291 0.0
H921 H 0.09641 0.92356 0.95405 0.0
H922 H 0.05678 0.94055 0.88538 0.0
H923 H 0.87995 0.91933 0.6619 0.0
H924 H 0.9356 0.9214 0.67956 0.0
H925 H 0.95908 0.94805 0.80597 0.0
H926 H 0.90351 0.94492 0.78887 0.0
H927 H 1.00226 0.92069 0.81647 0.0
H928 H 0.95604 0.98137 0.71811 0.0
H929 H 0.91773 0.00039 0.65118 0.0
H930 H 0.94542 0.95813 0.57567 0.0
H931 H 0.9836 0.93863 0.64207 0.0
C932 C 0.13975 0.94109 0.82138 0.0
C933 C 0.14532 0.92919 0.79085 0.0
C934 C 0.10893 0.94328 0.81588 0.0
C935 C 0.08309 0.93362 0.77978 0.0
C936 C 0.08864 0.92168 0.74957 0.0
C937 C 0.11924 0.91936 0.75513 0.0
C938 C 0.05012 0.93553 0.77305 0.0
C939 C 0.02706 0.94529 0.7345 0.0
C940 C 0.04108 0.92714 0.80339 0.0
C941 C 0.06426 0.91659 0.84458 0.0
C942 C 0.08128 0.89746 0.84429 0.0
C943 C 0.10371 0.88797 0.88331 0.0
C944 C 0.10917 0.8974 0.92283 0.0
C945 C 0.09213 0.91628 0.9234 0.0
C946 C 0.06965 0.92582 0.88446 0.0
C947 C 0.89699 0.92577 0.6933 0.0
C948 C 0.88736 0.93206 0.7239 0.0
C949 C 0.92886 0.92706 0.70341 0.0
C950 C 0.95177 0.93536 0.74389 0.0
C951 C 0.94208 0.94161 0.77452 0.0
C952 C 0.91029 0.93985 0.76473 0.0
C953 C 0.98579 0.93705 0.75445 0.0
C954 C 1.00913 0.928 0.79377 0.0
C955 C 0.99521 0.94654 0.72512 0.0
C956 C 0.97254 0.95842 0.68509 0.0
C957 C 0.95385 0.97605 0.68721 0.0
C958 C 0.93216 0.98692 0.64936 0.0
C959 C 0.92909 0.98044 0.60919 0.0
C960 C 0.9478 0.96312 0.60681 0.0
C961 C 0.96951 0.95217 0.64455 0.0
H962 H 0.91225 0.98886 0.57993 0.0
H963 H 0.12656 0.89003 0.95298 0.0
H964 H 0.39828 0.57239 0.27867 0.0
H965 H 0.4544 0.56997 0.29907 0.0
H966 H 0.43095 0.57029 0.16386 0.0
H967 H 0.37471 0.57204 0.14345 0.0
H968 H 0.47606 0.54175 0.20415 0.0
H969 H 0.45957 0.61823 0.2319 0.0
H970 H 0.44246 0.64886 0.26343 0.0
H971 H 0.50716 0.62622 0.39168 0.0
H972 H 0.52437 0.59527 0.36089 0.0
H973 H 0.62433 0.57854 0.22649 0.0
H974 H 0.56912 0.57523 0.21066 0.0
H975 H 0.59911 0.5638 0.34625 0.0
H976 H 0.65453 0.56722 0.36229 0.0
H977 H 0.5519 0.59643 0.30902 0.0
H978 H 0.57049 0.52104 0.27832 0.0
H979 H 0.5879 0.49193 0.24421 0.0
H980 H 0.51922 0.51454 0.11799 0.0
H981 H 0.50169 0.54401 0.15133 0.0
C982 C 0.40513 0.57201 0.25334 0.0
C983 C 0.38209 0.57256 0.20946 0.0
C984 C 0.43725 0.57067 0.26501 0.0
C985 C 0.44712 0.57038 0.23307 0.0
C986 C 0.42405 0.57051 0.18918 0.0
C987 C 0.39189 0.5715 0.1775 0.0
C988 C 0.48142 0.57015 0.24533 0.0
C989 C 0.49252 0.55389 0.22672 0.0
C990 C 0.50323 0.58566 0.27549 0.0
C991 C 0.49301 0.6043 0.29408 0.0
C992 C 0.46998 0.61969 0.26682 0.0
C993 C 0.46029 0.63712 0.28456 0.0
C994 C 0.47364 0.63944 0.32953 0.0
C995 C 0.49679 0.62438 0.35686 0.0
C996 C 0.50654 0.6069 0.33928 0.0
C997 C 0.61917 0.57526 0.25291 0.0
C998 C 0.64379 0.57317 0.29564 0.0
C999 C 0.58762 0.57322 0.24379 0.0
C1000 C 0.57997 0.56916 0.27724 0.0
C1001 C 0.60448 0.56688 0.31994 0.0
C1002 C 0.63612 0.56867 0.32902 0.0
C1003 C 0.54633 0.56817 0.26763 0.0
C1004 C 0.5354 0.58423 0.28669 0.0
C1005 C 0.52463 0.55269 0.23748 0.0
C1006 C 0.53496 0.53487 0.21734 0.0
C1007 C 0.55926 0.51992 0.24328 0.0
C1008 C 0.56912 0.50333 0.22409 0.0
C1009 C 0.55473 0.50142 0.17896 0.0
C1010 C 0.53037 0.51605 0.15294 0.0
C1011 C 0.52044 0.53269 0.17197 0.0
H1012 H 0.5624 0.48857 0.16416 0.0
H1013 H 0.46611 0.65295 0.3432 0.0
H1014 H 0.62371 0.44209 0.73451 0.0
H1015 H 0.56992 0.44384 0.72412 0.0
H1016 H 0.60315 0.42425 0.85731 0.0
H1017 H 0.65731 0.4219 0.86761 0.0
H1018 H 0.55164 0.40011 0.80293 0.0
H1019 H 0.5787 0.47802 0.82461 0.0
H1020 H 0.59921 0.51403 0.81318 0.0
H1021 H 0.52778 0.51422 0.67968 0.0
H1022 H 0.5071 0.47804 0.69013 0.0
H1023 H 0.39852 0.41693 0.78352 0.0
H1024 H 0.45519 0.41987 0.80749 0.0
H1025 H 0.4353 0.44139 0.67939 0.0
H1026 H 0.3787 0.43853 0.6553 0.0
H1027 H 0.48176 0.46606 0.73912 0.0
H1028 H 0.45816 0.38693 0.71519 0.0
H1029 H 0.43776 0.35049 0.725 0.0
H1030 H 0.50278 0.35238 0.86136 0.0
H1031 H 0.5233 0.38899 0.85242 0.0
C1032 C 0.61966 0.43817 0.76167 0.0
C1033 C 0.64485 0.43174 0.80185 0.0
C1034 C 0.58886 0.43939 0.75579 0.0
C1035 C 0.58242 0.43438 0.79001 0.0
C1036 C 0.60755 0.42827 0.83045 0.0
C1037 C 0.63852 0.42711 0.83641 0.0
C1038 C 0.5492 0.43454 0.78256 0.0
C1039 C 0.53654 0.41469 0.78984 0.0
C1040 C 0.52922 0.45338 0.76449 0.0
C1041 C 0.54149 0.47522 0.75811 0.0
C1042 C 0.5675 0.48566 0.79273 0.0
C1043 C 0.57914 0.50611 0.78644 0.0
C1044 C 0.56485 0.51638 0.74571 0.0
C1045 C 0.53884 0.50624 0.71121 0.0
C1046 C 0.52712 0.48577 0.71732 0.0
C1047 C 0.40619 0.42218 0.76038 0.0
C1048 C 0.38396 0.4274 0.7174 0.0
C1049 C 0.43864 0.42388 0.77416 0.0
C1050 C 0.44962 0.4306 0.74514 0.0
C1051 C 0.42748 0.43622 0.70245 0.0
C1052 C 0.39505 0.43462 0.68872 0.0
C1053 C 0.4841 0.43153 0.7589 0.0
C1054 C 0.49697 0.45158 0.75274 0.0
C1055 C 0.50424 0.41285 0.77782 0.0
C1056 C 0.49201 0.39081 0.78322 0.0
C1057 C 0.46794 0.37965 0.74732 0.0
C1058 C 0.45638 0.35896 0.75271 0.0
C1059 C 0.4689 0.34916 0.7938 0.0
C1060 C 0.49307 0.36001 0.82956 0.0
C1061 C 0.50468 0.38072 0.82435 0.0
H1062 H 0.45992 0.33313 0.79791 0.0
H1063 H 0.5739 0.53222 0.7409 0.0
H1064 H 0.25753 0.33144 0.5905 0.0
H1065 H 0.25831 0.29369 0.56351 0.0
H1066 H 0.24872 0.32189 0.44435 0.0
H1067 H 0.2479 0.35992 0.47129 0.0
H1068 H 0.20749 0.28441 0.43383 0.0
H1069 H 0.31752 0.30442 0.51265 0.0
H1070 H 0.3656 0.31825 0.57607 0.0
H1071 H 0.35984 0.26403 0.6531 0.0
H1072 H 0.31141 0.25007 0.59027 0.0
H1073 H 0.24208 0.18418 0.35566 0.0
H1074 H 0.24006 0.22251 0.37851 0.0
H1075 H 0.26941 0.19923 0.50878 0.0
H1076 H 0.27358 0.16097 0.48684 0.0
H1077 H 0.30084 0.23519 0.51209 0.0
H1078 H 0.19121 0.21533 0.43695 0.0
H1079 H 0.14169 0.20141 0.37603 0.0
H1080 H 0.14465 0.25464 0.2951 0.0
H1081 H 0.19444 0.2687 0.35538 0.0
C1082 C 0.25536 0.32961 0.55841 0.0
C1083 C 0.25254 0.34858 0.53288 0.0
C1084 C 0.256 0.30806 0.54317 0.0
C1085 C 0.25372 0.30506 0.50207 0.0
C1086 C 0.25053 0.32392 0.47619 0.0
C1087 C 0.25024 0.34557 0.49166 0.0
C1088 C 0.25486 0.28213 0.48651 0.0
C1089 C 0.22803 0.27371 0.45041 0.0
C1090 C 0.28137 0.26807 0.50911 0.0
C1091 C 0.31067 0.27631 0.54684 0.0
C1092 C 0.32635 0.29555 0.5432 0.0
C1093 C 0.3537 0.30339 0.57902 0.0
C1094 C 0.36573 0.29206 0.61862 0.0
C1095 C 0.35048 0.27281 0.62242 0.0
C1096 C 0.3231 0.26491 0.5867 0.0
C1097 C 0.24844 0.18717 0.38931 0.0
C1098 C 0.25822 0.1694 0.41945 0.0
C1099 C 0.2468 0.20912 0.40219 0.0
C1100 C 0.2542 0.21378 0.44528 0.0
C1101 C 0.26352 0.19607 0.47532 0.0
C1102 C 0.26556 0.17412 0.46259 0.0
C1103 C 0.25329 0.23722 0.45935 0.0
C1104 C 0.28022 0.2458 0.49527 0.0
C1105 C 0.2267 0.25133 0.43687 0.0
C1106 C 0.19673 0.24293 0.40057 0.0
C1107 C 0.18144 0.22396 0.40606 0.0
C1108 C 0.15329 0.21607 0.37166 0.0
C1109 C 0.14008 0.2271 0.33169 0.0
C1110 C 0.15494 0.24609 0.32606 0.0
C1111 C 0.1831 0.25404 0.36035 0.0
H1112 H 0.11829 0.22096 0.3051 0.0
H1113 H 0.3869 0.29817 0.64632 0.0
H1114 H 0.76561 0.3352 0.98439 0.0
H1115 H 0.76346 0.29625 0.00437 0.0
H1116 H 0.73978 0.27489 0.87474 0.0
H1117 H 0.73984 0.314 0.85361 0.0
H1118 H 0.70704 0.25136 0.90236 0.0
H1119 H 0.81602 0.27016 0.96025 0.0
H1120 H 0.86462 0.29245 0.00119 0.0
H1121 H 0.8593 0.28131 0.11876 0.0
H1122 H 0.81039 0.25921 0.07842 0.0
H1123 H 0.74862 0.13613 0.97126 0.0
H1124 H 0.74848 0.17385 0.94241 0.0
H1125 H 0.75609 0.20346 0.05945 0.0
H1126 H 0.75632 0.16603 0.08834 0.0
H1127 H 0.79874 0.22133 0.03384 0.0
H1128 H 0.68716 0.20346 0.97177 0.0
H1129 H 0.63976 0.18033 0.92887 0.0
H1130 H 0.65251 0.18846 0.81623 0.0
H1131 H 0.70028 0.21139 0.85866 0.0
C1132 C 0.75934 0.32232 0.9598 0.0
C1133 C 0.75318 0.32782 0.91743 0.0
C1134 C 0.75856 0.29997 0.97149 0.0
C1135 C 0.75222 0.28256 0.94135 0.0
C1136 C 0.74505 0.28801 0.89868 0.0
C1137 C 0.74544 0.3104 0.8868 0.0
C1138 C 0.7535 0.25871 0.95464 0.0
C1139 C 0.72732 0.24471 0.93073 0.0
C1140 C 0.77987 0.24999 0.99176 0.0
C1141 C 0.80938 0.26319 0.01622 0.0
C1142 C 0.82509 0.27259 0.99478 0.0
C1143 C 0.85271 0.28517 0.01789 0.0
C1144 C 0.865 0.28833 0.06253 0.0
C1145 C 0.84973 0.27887 0.08418 0.0
C1146 C 0.82208 0.26629 0.06121 0.0
C1147 C 0.75028 0.15073 0.99073 0.0
C1148 C 0.75223 0.1482 0.03187 0.0
C1149 C 0.75007 0.1722 0.9742 0.0
C1150 C 0.75212 0.19139 0.99878 0.0
C1151 C 0.75443 0.18885 0.03999 0.0
C1152 C 0.75431 0.16748 0.05628 0.0
C1153 C 0.75212 0.21425 0.98207 0.0
C1154 C 0.77861 0.228 0.00531 0.0
C1155 C 0.72627 0.22259 0.94404 0.0
C1156 C 0.69748 0.20892 0.91851 0.0
C1157 C 0.68001 0.20015 0.93795 0.0
C1158 C 0.65305 0.18711 0.9137 0.0
C1159 C 0.64318 0.18287 0.86988 0.0
C1160 C 0.66021 0.19172 0.85019 0.0
C1161 C 0.68722 0.20475 0.87432 0.0
H1162 H 0.6223 0.17277 0.85116 0.0
H1163 H 0.88639 0.29808 0.08036 0.0
H1164 H 0.76795 0.678 0.40106 0.0
H1165 H 0.76623 0.71566 0.42742 0.0
H1166 H 0.77315 0.68741 0.54514 0.0
H1167 H 0.77485 0.64951 0.51883 0.0
H1168 H 0.72909 0.72001 0.51353 0.0
H1169 H 0.83699 0.71221 0.54479 0.0
H1170 H 0.88056 0.70379 0.52863 0.0
H1171 H 0.84954 0.75657 0.43376 0.0
H1172 H 0.80549 0.76511 0.44891 0.0
H1173 H 0.76376 0.82426 0.62725 0.0
H1174 H 0.76585 0.78568 0.60474 0.0
H1175 H 0.75981 0.81022 0.48505 0.0
H1176 H 0.75774 0.84887 0.50738 0.0
H1177 H 0.80478 0.77894 0.52083 0.0
H1178 H 0.69604 0.786 0.48812 0.0
H1179 H 0.65235 0.79436 0.50408 0.0
H1180 H 0.68507 0.74298 0.60182 0.0
H1181 H 0.72923 0.73452 0.58684 0.0
C1182 C 0.76945 0.67979 0.43278 0.0
C1183 C 0.77187 0.66078 0.45808 0.0
C1184 C 0.76841 0.70133 0.44777 0.0
C1185 C 0.77006 0.70437 0.48854 0.0
C1186 C 0.77193 0.68544 0.51361 0.0
C1187 C 0.77285 0.66382 0.49853 0.0
C1188 C 0.76959 0.72735 0.50467 0.0
C1189 C 0.74594 0.73281 0.51579 0.0
C1190 C 0.79118 0.74417 0.50674 0.0
C1191 C 0.81778 0.73917 0.49774 0.0
C1192 C 0.83932 0.72191 0.52026 0.0
C1193 C 0.86413 0.71714 0.51131 0.0
C1194 C 0.86777 0.7296 0.48012 0.0
C1195 C 0.84667 0.74692 0.45788 0.0
C1196 C 0.8218 0.75175 0.46667 0.0
C1197 C 0.7625 0.82143 0.59591 0.0
C1198 C 0.76046 0.83962 0.56901 0.0
C1199 C 0.76375 0.79937 0.58313 0.0
C1200 C 0.76267 0.79505 0.54302 0.0
C1201 C 0.76073 0.81317 0.51617 0.0
C1202 C 0.7596 0.83524 0.529 0.0
C1203 C 0.7641 0.77167 0.52931 0.0
C1204 C 0.78798 0.76613 0.51871 0.0
C1205 C 0.74273 0.75479 0.52774 0.0
C1206 C 0.71612 0.75978 0.53665 0.0
C1207 C 0.69406 0.7766 0.51325 0.0
C1208 C 0.66919 0.78134 0.52208 0.0
C1209 C 0.66599 0.76925 0.55403 0.0
C1210 C 0.68761 0.75236 0.57713 0.0
C1211 C 0.71254 0.74757 0.56845 0.0
H1212 H 0.64672 0.77295 0.56082 0.0
H1213 H 0.88699 0.72588 0.47324 0.0
H1214 H 0.30248 0.81961 0.92546 0.0
H1215 H 0.29824 0.781 0.94593 0.0
H1216 H 0.20462 0.7948 0.92784 0.0
H1217 H 0.20912 0.83372 0.90823 0.0
H1218 H 0.23606 0.77102 0.99848 0.0
H1219 H 0.2171 0.76448 0.85212 0.0
H1220 H 0.22767 0.76997 0.79034 0.0
H1221 H 0.31442 0.73322 0.85709 0.0
H1222 H 0.3046 0.72778 0.91957 0.0
H1223 H 0.19775 0.65584 0.00274 0.0
H1224 H 0.19737 0.69369 0.97528 0.0
H1225 H 0.29568 0.68709 0.00899 0.0
H1226 H 0.2966 0.64948 0.03766 0.0
H1227 H 0.25878 0.70674 0.92726 0.0
H1228 H 0.27772 0.71499 0.07481 0.0
H1229 H 0.26587 0.70925 0.1354 0.0
H1230 H 0.17673 0.74256 0.0636 0.0
H1231 H 0.18786 0.74821 0.00228 0.0
C1232 C 0.28094 0.81437 0.92566 0.0
C1233 C 0.25603 0.8296 0.91495 0.0
C1234 C 0.27849 0.79228 0.93724 0.0
C1235 C 0.25085 0.78483 0.93756 0.0
C1236 C 0.22613 0.80014 0.92764 0.0
C1237 C 0.22872 0.82235 0.91652 0.0
C1238 C 0.24802 0.76114 0.94882 0.0
C1239 C 0.2405 0.75698 0.98235 0.0
C1240 C 0.25433 0.74277 0.92832 0.0
C1241 C 0.26023 0.74589 0.89069 0.0
C1242 C 0.23854 0.7577 0.85376 0.0
C1243 C 0.24438 0.76078 0.81859 0.0
C1244 C 0.27173 0.75199 0.81983 0.0
C1245 C 0.29326 0.74004 0.8562 0.0
C1246 C 0.28755 0.73693 0.89148 0.0
C1247 C 0.21935 0.66243 0.00447 0.0
C1248 C 0.2473 0.64965 0.02283 0.0
C1249 C 0.21903 0.68403 0.98857 0.0
C1250 C 0.24659 0.69324 0.99056 0.0
C1251 C 0.27416 0.68024 0.00715 0.0
C1252 C 0.27458 0.65869 0.02333 0.0
C1253 C 0.24702 0.71676 0.97692 0.0
C1254 C 0.25412 0.72084 0.94303 0.0
C1255 C 0.24008 0.73504 0.99682 0.0
C1256 C 0.23347 0.73181 0.03378 0.0
C1257 C 0.25548 0.72093 0.0718 0.0
C1258 C 0.24891 0.71772 0.10629 0.0
C1259 C 0.22053 0.72548 0.1033 0.0
C1260 C 0.19868 0.73652 0.06584 0.0
C1261 C 0.20512 0.73975 0.03122 0.0
H1262 H 0.21549 0.72297 0.13004 0.0
H1263 H 0.27621 0.75439 0.79257 0.0
loop_
_geom_bond_atom_site_label_1
_geom_bond_atom_site_label_2
_geom_bond_distance
_geom_bond_site_symmetry_2
_ccdc_geom_bond_type
C0 C1 1.351 . S
C0 N3 1.368 . S
C0 H5 0.931 . S
C1 C0 1.351 . S
C1 N2 1.373 . S
C1 H29 0.930 . S
N2 C1 1.373 . S
N2 C4 1.340 . S
N3 C0 1.368 . S
N3 C4 1.321 . S
N3 Co6 2.135 . S
C4 N2 1.340 . S
C4 N3 1.321 . S
C4 H28 0.930 . S
H5 C0 0.931 . S
Co6 N3 2.135 . S
Co6 N9 2.121 . S
Co6 O14 2.055 . S
Co6 O17 2.039 . S
Co6 N20 2.140 . S
C7 O8 1.227 . S
C7 O17 1.265 . S
O8 C7 1.227 . S
N9 Co6 2.121 . S
N9 C11 1.375 . S
N9 C12 1.313 . S
C10 C11 1.338 . S
C10 N13 1.377 . S
C10 H30 0.930 . S
C11 N9 1.375 . S
C11 C10 1.338 . S
C11 H15 0.931 . S
C12 N9 1.313 . S
C12 N13 1.344 . S
C12 H16 0.930 . S
N13 C10 1.377 . S
N13 C12 1.344 . S
O14 Co6 2.055 . S
O14 C18 1.253 . S
H15 C11 0.931 . S
H16 C12 0.930 . S
O17 Co6 2.039 . S
O17 C7 1.265 . S
C18 O14 1.253 . S
C18 O19 1.227 . S
O19 C18 1.227 . S
N20 Co6 2.140 . S
N20 C23 1.346 . S
N20 C24 1.345 . S
C21 C22 1.387 . S
C21 C25 1.391 . S
C22 C21 1.387 . S
C22 C23 1.369 . S
C22 H31 0.929 . S
C23 N20 1.346 . S
C23 C22 1.369 . S
C23 H26 0.928 . S
C24 N20 1.345 . S
C24 C25 1.371 . S
C24 H27 0.931 . S
C25 C21 1.391 . S
C25 C24 1.371 . S
C25 H32 0.930 . S
H26 C23 0.928 . S
H27 C24 0.931 . S
H28 C4 0.930 . S
H29 C1 0.930 . S
H30 C10 0.930 . S
H31 C22 0.929 . S
H32 C25 0.930 . S
C33 C34 1.351 . S
C33 N36 1.368 . S
C33 H38 0.931 . S
C34 C33 1.351 . S
C34 N35 1.373 . S
C34 H62 0.930 . S
N35 C34 1.373 . S
N35 C37 1.340 . S
N36 C33 1.368 . S
N36 C37 1.321 . S
N36 Co39 2.135 . S
C37 N35 1.340 . S
C37 N36 1.321 . S
C37 H61 0.930 . S
H38 C33 0.931 . S
Co39 N36 2.135 . S
Co39 N42 2.121 . S
Co39 O47 2.055 . S
Co39 O50 2.039 . S
Co39 N53 2.140 . S
C40 O41 1.227 . S
C40 O50 1.265 . S
O41 C40 1.227 . S
N42 Co39 2.121 . S
N42 C44 1.375 . S
N42 C45 1.313 . S
C43 C44 1.338 . S
C43 N46 1.377 . S
C43 H63 0.930 1_554 S
C44 N42 1.375 . S
C44 C43 1.338 . S
C44 H48 0.931 1_554 S
C45 N42 1.313 . S
C45 N46 1.344 . S
C45 H49 0.930 . S
N46 C43 1.377 . S
N46 C45 1.344 . S
O47 Co39 2.055 . S
O47 C51 1.253 . S
H48 C44 0.931 1_556 S
H49 C45 0.930 . S
O50 Co39 2.039 . S
O50 C40 1.265 . S
C51 O47 1.253 . S
C51 O52 1.227 . S
O52 C51 1.227 . S
N53 Co39 2.140 . S
N53 C56 1.346 . S
N53 C57 1.345 . S
C54 C55 1.387 . S
C54 C58 1.391 . S
C55 C54 1.387 . S
C55 C56 1.369 . S
C55 H64 0.929 . S
C56 N53 1.346 . S
C56 C55 1.369 . S
C56 H59 0.928 . S
C57 N53 1.345 . S
C57 C58 1.371 . S
C57 H60 0.931 . S
C58 C54 1.391 . S
C58 C57 1.371 . S
C58 H65 0.930 . S
H59 C56 0.928 . S
H60 C57 0.931 . S
H61 C37 0.930 . S
H62 C34 0.930 . S
H63 C43 0.930 1_556 S
H64 C55 0.929 . S
H65 C58 0.930 . S
C66 C67 1.351 . S
C66 N69 1.368 . S
C66 H71 0.931 . S
C67 C66 1.351 . S
C67 N68 1.373 . S
C67 H95 0.930 . S
N68 C67 1.373 . S
N68 C70 1.340 . S
N69 C66 1.368 . S
N69 C70 1.321 . S
N69 Co72 2.135 . S
C70 N68 1.340 . S
C70 N69 1.321 . S
C70 H94 0.930 . S
H71 C66 0.931 . S
Co72 N69 2.135 . S
Co72 N75 2.121 . S
Co72 O80 2.055 . S
Co72 O83 2.039 . S
Co72 N86 2.140 . S
C73 O74 1.227 . S
C73 O83 1.265 . S
O74 C73 1.227 . S
N75 Co72 2.121 . S
N75 C77 1.375 . S
N75 C78 1.313 . S
C76 C77 1.338 . S
C76 N79 1.377 . S
C76 H96 0.930 . S
C77 N75 1.375 . S
C77 C76 1.338 . S
C77 H81 0.931 . S
C78 N75 1.313 . S
C78 N79 1.344 . S
C78 H82 0.930 . S
N79 C76 1.377 . S
N79 C78 1.344 . S
O80 Co72 2.055 . S
O80 C84 1.253 . S
H81 C77 0.931 . S
H82 C78 0.930 . S
O83 Co72 2.039 . S
O83 C73 1.265 . S
C84 O80 1.253 . S
C84 O85 1.227 . S
O85 C84 1.227 . S
N86 Co72 2.140 . S
N86 C89 1.346 . S
N86 C90 1.345 . S
C87 C88 1.387 . S
C87 C91 1.391 . S
C88 C87 1.387 . S
C88 C89 1.369 . S
C88 H97 0.929 . S
C89 N86 1.346 . S
C89 C88 1.369 . S
C89 H92 0.928 . S
C90 N86 1.345 . S
C90 C91 1.371 . S
C90 H93 0.931 . S
C91 C87 1.391 . S
C91 C90 1.371 . S
C91 H98 0.930 . S
H92 C89 0.928 . S
H93 C90 0.931 . S
H94 C70 0.930 . S
H95 C67 0.930 . S
H96 C76 0.930 . S
H97 C88 0.929 . S
H98 C91 0.930 . S
C99 C100 1.351 . S
C99 N102 1.368 . S
C99 H104 0.931 . S
C100 C99 1.351 . S
C100 N101 1.373 . S
C100 H128 0.930 . S
N101 C100 1.373 . S
N101 C103 1.340 . S
N102 C99 1.368 . S
N102 C103 1.321 . S
N102 Co105 2.135 . S
C103 N101 1.340 . S
C103 N102 1.321 . S
C103 H127 0.930 . S
H104 C99 0.931 . S
Co105 N102 2.135 . S
Co105 N108 2.121 . S
Co105 O113 2.055 . S
Co105 O116 2.039 . S
Co105 N119 2.140 . S
C106 O107 1.227 . S
C106 O116 1.265 . S
O107 C106 1.227 . S
N108 Co105 2.121 . S
N108 C110 1.375 . S
N108 C111 1.313 . S
C109 C110 1.338 . S
C109 N112 1.377 . S
C109 H129 0.930 1_556 S
C110 N108 1.375 . S
C110 C109 1.338 . S
C110 H114 0.931 1_556 S
C111 N108 1.313 . S
C111 N112 1.344 . S
C111 H115 0.930 . S
N112 C109 1.377 . S
N112 C111 1.344 . S
O113 Co105 2.055 . S
O113 C117 1.253 . S
H114 C110 0.931 1_554 S
H115 C111 0.930 . S
O116 Co105 2.039 . S
O116 C106 1.265 . S
C117 O113 1.253 . S
C117 O118 1.227 . S
O118 C117 1.227 . S
N119 Co105 2.140 . S
N119 C122 1.346 . S
N119 C123 1.345 . S
C120 C121 1.387 . S
C120 C124 1.391 . S
C121 C120 1.387 . S
C121 C122 1.369 . S
C121 H130 0.929 . S
C122 N119 1.346 . S
C122 C121 1.369 . S
C122 H125 0.928 . S
C123 N119 1.345 . S
C123 C124 1.371 . S
C123 H126 0.931 . S
C124 C120 1.391 . S
C124 C123 1.371 . S
C124 H131 0.930 . S
H125 C122 0.928 . S
H126 C123 0.931 . S
H127 C103 0.930 . S
H128 C100 0.930 . S
H129 C109 0.930 1_554 S
H130 C121 0.929 . S
H131 C124 0.930 . S
C132 C133 1.351 . S
C132 N135 1.368 . S
C132 H137 0.931 . S
C133 C132 1.351 . S
C133 N134 1.373 . S
C133 H161 0.930 . S
N134 C133 1.373 . S
N134 C136 1.340 . S
N135 C132 1.368 . S
N135 C136 1.321 . S
N135 Co138 2.135 . S
C136 N134 1.340 . S
C136 N135 1.321 . S
C136 H160 0.930 . S
H137 C132 0.931 . S
Co138 N135 2.135 . S
Co138 N141 2.121 . S
Co138 O146 2.055 . S
Co138 O149 2.039 . S
Co138 N152 2.140 . S
C139 O140 1.227 . S
C139 O149 1.265 . S
O140 C139 1.227 . S
N141 Co138 2.121 . S
N141 C143 1.375 . S
N141 C144 1.313 . S
C142 C143 1.338 . S
C142 N145 1.377 . S
C142 H162 0.930 . S
C143 N141 1.375 . S
C143 C142 1.338 . S
C143 H147 0.931 . S
C144 N141 1.313 . S
C144 N145 1.344 . S
C144 H148 0.930 . S
N145 C142 1.377 . S
N145 C144 1.344 . S
O146 Co138 2.055 . S
O146 C150 1.253 . S
H147 C143 0.931 . S
H148 C144 0.930 . S
O149 Co138 2.039 . S
O149 C139 1.265 . S
C150 O146 1.253 . S
C150 O151 1.227 . S
O151 C150 1.227 . S
N152 Co138 2.140 . S
N152 C155 1.346 . S
N152 C156 1.345 . S
C153 C154 1.387 . S
C153 C157 1.391 . S
C154 C153 1.387 . S
C154 C155 1.369 . S
C154 H163 0.929 . S
C155 N152 1.346 . S
C155 C154 1.369 . S
C155 H158 0.928 . S
C156 N152 1.345 . S
C156 C157 1.371 . S
C156 H159 0.931 . S
C157 C153 1.391 . S
C157 C156 1.371 . S
C157 H164 0.930 . S
H158 C155 0.928 . S
H159 C156 0.931 . S
H160 C136 0.930 . S
H161 C133 0.930 . S
H162 C142 0.930 . S
H163 C154 0.929 . S
H164 C157 0.930 . S
C165 C166 1.351 . S
C165 N168 1.368 . S
C165 H170 0.931 . S
C166 C165 1.351 . S
C166 N167 1.373 . S
C166 H194 0.930 . S
N167 C166 1.373 . S
N167 C169 1.340 . S
N168 C165 1.368 . S
N168 C169 1.321 . S
N168 Co171 2.135 . S
C169 N167 1.340 . S
C169 N168 1.321 . S
C169 H193 0.930 . S
H170 C165 0.931 . S
Co171 N168 2.135 . S
Co171 N174 2.121 . S
Co171 O179 2.055 . S
Co171 O182 2.039 . S
Co171 N185 2.140 . S
C172 O173 1.227 . S
C172 O182 1.265 . S
O173 C172 1.227 . S
N174 Co171 2.121 . S
N174 C176 1.375 . S
N174 C177 1.313 . S
C175 C176 1.338 . S
C175 N178 1.377 . S
C175 H195 0.930 1_554 S
C176 N174 1.375 . S
C176 C175 1.338 . S
C176 H180 0.931 1_554 S
C177 N174 1.313 . S
C177 N178 1.344 . S
C177 H181 0.930 . S
N178 C175 1.377 . S
N178 C177 1.344 . S
O179 Co171 2.055 . S
O179 C183 1.253 . S
H180 C176 0.931 1_556 S
H181 C177 0.930 . S
O182 Co171 2.039 . S
O182 C172 1.265 . S
C183 O179 1.253 . S
C183 O184 1.227 . S
O184 C183 1.227 . S
N185 Co171 2.140 . S
N185 C188 1.346 . S
N185 C189 1.345 . S
C186 C187 1.387 . S
C186 C190 1.391 . S
C187 C186 1.387 . S
C187 C188 1.369 . S
C187 H196 0.929 . S
C188 N185 1.346 . S
C188 C187 1.369 . S
C188 H191 0.928 . S
C189 N185 1.345 . S
C189 C190 1.371 . S
C189 H192 0.931 . S
C190 C186 1.391 . S
C190 C189 1.371 . S
C190 H197 0.930 . S
H191 C188 0.928 . S
H192 C189 0.931 . S
H193 C169 0.930 . S
H194 C166 0.930 . S
H195 C175 0.930 1_556 S
H196 C187 0.929 . S
H197 C190 0.930 . S
C198 C199 1.351 . S
C198 N201 1.368 . S
C198 H203 0.931 . S
C199 C198 1.351 . S
C199 N200 1.373 . S
C199 H227 0.930 . S
N200 C199 1.373 . S
N200 C202 1.340 . S
N201 C198 1.368 . S
N201 C202 1.321 . S
N201 Co204 2.135 . S
C202 N200 1.340 . S
C202 N201 1.321 . S
C202 H226 0.930 . S
H203 C198 0.931 . S
Co204 N201 2.135 . S
Co204 N207 2.121 . S
Co204 O212 2.055 . S
Co204 O215 2.039 . S
Co204 N218 2.140 . S
C205 O206 1.227 . S
C205 O215 1.265 . S
O206 C205 1.227 . S
N207 Co204 2.121 . S
N207 C209 1.375 . S
N207 C210 1.313 . S
C208 C209 1.338 . S
C208 N211 1.377 . S
C208 H228 0.930 . S
C209 N207 1.375 . S
C209 C208 1.338 . S
C209 H213 0.931 . S
C210 N207 1.313 . S
C210 N211 1.344 . S
C210 H214 0.930 . S
N211 C208 1.377 . S
N211 C210 1.344 . S
O212 Co204 2.055 . S
O212 C216 1.253 . S
H213 C209 0.931 . S
H214 C210 0.930 . S
O215 Co204 2.039 . S
O215 C205 1.265 . S
C216 O212 1.253 . S
C216 O217 1.227 . S
O217 C216 1.227 . S
N218 Co204 2.140 . S
N218 C221 1.346 . S
N218 C222 1.345 . S
C219 C220 1.387 . S
C219 C223 1.391 . S
C220 C219 1.387 . S
C220 C221 1.369 . S
C220 H229 0.929 . S
C221 N218 1.346 . S
C221 C220 1.369 . S
C221 H224 0.928 . S
C222 N218 1.345 . S
C222 C223 1.371 . S
C222 H225 0.931 . S
C223 C219 1.391 . S
C223 C222 1.371 . S
C223 H230 0.930 . S
H224 C221 0.928 . S
H225 C222 0.931 . S
H226 C202 0.930 . S
H227 C199 0.930 . S
H228 C208 0.930 . S
H229 C220 0.929 . S
H230 C223 0.930 . S
C231 C232 1.351 . S
C231 N234 1.368 . S
C231 H236 0.931 . S
C232 C231 1.351 . S
C232 N233 1.373 . S
C232 H260 0.930 . S
N233 C232 1.373 . S
N233 C235 1.340 . S
N234 C231 1.368 . S
N234 C235 1.321 . S
N234 Co237 2.135 . S
C235 N233 1.340 . S
C235 N234 1.321 . S
C235 H259 0.930 . S
H236 C231 0.931 . S
Co237 N234 2.135 . S
Co237 N240 2.121 . S
Co237 O245 2.055 . S
Co237 O248 2.039 . S
Co237 N251 2.140 . S
C238 O239 1.227 . S
C238 O248 1.265 . S
O239 C238 1.227 . S
N240 Co237 2.121 . S
N240 C242 1.375 . S
N240 C243 1.313 . S
C241 C242 1.338 . S
C241 N244 1.377 . S
C241 H261 0.930 1_556 S
C242 N240 1.375 . S
C242 C241 1.338 . S
C242 H246 0.931 1_556 S
C243 N240 1.313 . S
C243 N244 1.344 . S
C243 H247 0.930 . S
N244 C241 1.377 . S
N244 C243 1.344 . S
O245 Co237 2.055 . S
O245 C249 1.253 . S
H246 C242 0.931 1_554 S
H247 C243 0.930 . S
O248 Co237 2.039 . S
O248 C238 1.265 . S
C249 O245 1.253 . S
C249 O250 1.227 . S
O250 C249 1.227 . S
N251 Co237 2.140 . S
N251 C254 1.346 . S
N251 C255 1.345 . S
C252 C253 1.387 . S
C252 C256 1.391 . S
C253 C252 1.387 . S
C253 C254 1.369 . S
C253 H262 0.929 . S
C254 N251 1.346 . S
C254 C253 1.369 . S
C254 H257 0.928 . S
C255 N251 1.345 . S
C255 C256 1.371 . S
C255 H258 0.931 . S
C256 C252 1.391 . S
C256 C255 1.371 . S
C256 H263 0.930 . S
H257 C254 0.928 . S
H258 C255 0.931 . S
H259 C235 0.930 . S
H260 C232 0.930 . S
H261 C241 0.930 1_554 S
H262 C253 0.929 . S
H263 C256 0.930 . S
H264 C282 0.951 . S
H265 C284 0.951 . S
H266 C286 0.950 1_545 S
H267 C287 0.951 . S
H268 C289 0.950 . S
H269 C292 0.950 . S
H270 C293 0.950 . S
H271 C295 0.950 . S
H272 C296 0.950 . S
H273 C297 0.951 . S
H274 C299 0.951 . S
H275 C301 0.950 1_565 S
H276 C302 0.950 . S
H277 C304 0.950 . S
H278 C307 0.950 . S
H279 C308 0.950 . S
H280 C310 0.950 . S
H281 C311 0.950 . S
C282 H264 0.951 . S
C282 C283 1.373 . S
C282 C284 1.388 . S
C283 C282 1.373 . S
C283 C287 1.387 1_554 S
C284 H265 0.951 . S
C284 C282 1.388 . S
C284 C285 1.366 . S
C285 C284 1.366 . S
C285 C286 1.414 . S
C285 C288 1.499 . S
C286 H266 0.950 1_565 S
C286 C285 1.414 . S
C286 C287 1.372 1_554 S
C287 H267 0.951 . S
C287 C283 1.387 1_556 S
C287 C286 1.372 1_556 S
C288 C285 1.499 . S
C288 C289 1.373 1_565 S
C288 C290 1.389 . S
C289 H268 0.950 . S
C289 C288 1.373 1_545 S
C289 C305 1.377 . S
C290 C288 1.389 . S
C290 C291 1.524 . S
C290 C304 1.377 . S
C291 C290 1.524 . S
C291 C292 1.397 . S
C291 C296 1.363 . S
C292 H269 0.950 . S
C292 C291 1.397 . S
C292 C293 1.334 . S
C293 H270 0.950 . S
C293 C292 1.334 . S
C293 C294 1.287 . S
C294 C293 1.287 . S
C294 C295 1.524 . S
C294 H313 0.913 . S
C295 H271 0.950 . S
C295 C294 1.524 . S
C295 C296 1.415 . S
C296 H272 0.950 . S
C296 C291 1.363 . S
C296 C295 1.415 . S
C297 H273 0.951 . S
C297 C298 1.366 . S
C297 C299 1.388 . S
C298 C297 1.366 . S
C298 C302 1.385 . S
C299 H274 0.951 . S
C299 C297 1.388 . S
C299 C300 1.366 . S
C300 C299 1.366 . S
C300 C301 1.414 . S
C300 C303 1.499 . S
C301 H275 0.950 1_545 S
C301 C300 1.414 . S
C301 C302 1.374 . S
C302 H276 0.950 . S
C302 C298 1.385 . S
C302 C301 1.374 . S
C303 C300 1.499 . S
C303 C304 1.373 1_545 S
C303 C305 1.389 . S
C304 H277 0.950 . S
C304 C290 1.377 . S
C304 C303 1.373 1_565 S
C305 C289 1.377 . S
C305 C303 1.389 . S
C305 C306 1.524 . S
C306 C305 1.524 . S
C306 C307 1.397 . S
C306 C311 1.363 . S
C307 H278 0.950 . S
C307 C306 1.397 . S
C307 C308 1.334 . S
C308 H279 0.950 . S
C308 C307 1.334 . S
C308 C309 1.287 . S
C309 C308 1.287 . S
C309 C310 1.524 . S
C309 H312 0.999 . S
C310 H280 0.950 . S
C310 C309 1.524 . S
C310 C311 1.415 . S
C311 H281 0.950 . S
C311 C306 1.363 . S
C311 C310 1.415 . S
H312 C309 0.999 . S
H313 C294 0.913 . S
H314 C332 0.951 . S
H315 C334 0.951 . S
H316 C336 0.950 . S
H317 C337 0.950 . S
H318 C339 0.950 . S
H319 C342 0.950 . S
H320 C343 0.950 . S
H321 C345 0.950 . S
H322 C346 0.950 . S
H323 C347 0.951 . S
H324 C349 0.951 . S
H325 C351 0.950 . S
H326 C352 0.950 . S
H327 C354 0.950 . S
H328 C357 0.950 . S
H329 C358 0.950 . S
H330 C360 0.950 . S
H331 C361 0.950 . S
C332 H314 0.951 . S
C332 C333 1.366 . S
C332 C334 1.388 . S
C333 C332 1.366 . S
C333 C337 1.385 . S
C334 H315 0.951 . S
C334 C332 1.388 . S
C334 C335 1.366 . S
C335 C334 1.366 . S
C335 C336 1.414 . S
C335 C338 1.499 . S
C336 H316 0.950 . S
C336 C335 1.414 . S
C336 C337 1.374 . S
C337 H317 0.950 . S
C337 C333 1.385 . S
C337 C336 1.374 . S
C338 C335 1.499 . S
C338 C339 1.373 . S
C338 C340 1.389 1_545 S
C339 H318 0.950 . S
C339 C338 1.373 . S
C339 C355 1.377 . S
C340 C338 1.389 1_565 S
C340 C341 1.524 . S
C340 C354 1.377 . S
C341 C340 1.524 . S
C341 C342 1.397 . S
C341 C346 1.363 . S
C342 H319 0.950 . S
C342 C341 1.397 . S
C342 C343 1.334 . S
C343 H320 0.950 . S
C343 C342 1.334 . S
C343 C344 1.287 . S
C344 C343 1.287 . S
C344 C345 1.524 . S
C344 H363 0.913 . S
C345 H321 0.950 . S
C345 C344 1.524 . S
C345 C346 1.415 . S
C346 H322 0.950 . S
C346 C341 1.363 . S
C346 C345 1.415 . S
C347 H323 0.951 . S
C347 C348 1.366 . S
C347 C349 1.388 . S
C348 C347 1.366 . S
C348 C352 1.385 . S
C349 H324 0.951 . S
C349 C347 1.388 . S
C349 C350 1.366 . S
C350 C349 1.366 . S
C350 C351 1.414 . S
C350 C353 1.499 . S
C351 H325 0.950 . S
C351 C350 1.414 . S
C351 C352 1.374 . S
C352 H326 0.950 . S
C352 C348 1.385 . S
C352 C351 1.374 . S
C353 C350 1.499 . S
C353 C354 1.373 . S
C353 C355 1.389 1_565 S
C354 H327 0.950 . S
C354 C340 1.377 . S
C354 C353 1.373 . S
C355 C339 1.377 . S
C355 C353 1.389 1_545 S
C355 C356 1.524 . S
C356 C355 1.524 . S
C356 C357 1.397 . S
C356 C361 1.363 . S
C357 H328 0.950 . S
C357 C356 1.397 . S
C357 C358 1.334 . S
C358 H329 0.950 . S
C358 C357 1.334 . S
C358 C359 1.287 . S
C359 C358 1.287 . S
C359 C360 1.524 . S
C359 H362 0.999 . S
C360 H330 0.950 . S
C360 C359 1.524 . S
C360 C361 1.415 . S
C361 H331 0.950 . S
C361 C356 1.363 . S
C361 C360 1.415 . S
H362 C359 0.999 . S
H363 C344 0.913 . S
H364 C382 0.951 . S
H365 C384 0.951 . S
H366 C386 0.950 . S
H367 C387 0.950 . S
H368 C389 0.950 . S
H369 C392 0.950 . S
H370 C393 0.950 . S
H371 C395 0.950 . S
H372 C396 0.950 . S
H373 C397 0.951 . S
H374 C399 0.951 . S
H375 C401 0.950 . S
H376 C402 0.946 1_554 S
H377 C404 0.950 . S
H378 C407 0.950 . S
H379 C408 0.950 . S
H380 C410 0.950 . S
H381 C411 0.950 . S
C382 H364 0.951 . S
C382 C383 1.366 . S
C382 C384 1.388 . S
C383 C382 1.366 . S
C383 C387 1.385 . S
C384 H365 0.951 . S
C384 C382 1.388 . S
C384 C385 1.366 . S
C385 C384 1.366 . S
C385 C386 1.414 . S
C385 C388 1.499 . S
C386 H366 0.950 . S
C386 C385 1.414 . S
C386 C387 1.374 . S
C387 H367 0.950 . S
C387 C383 1.385 . S
C387 C386 1.374 . S
C388 C385 1.499 . S
C388 C389 1.373 1_565 S
C388 C390 1.389 . S
C389 H368 0.950 . S
C389 C388 1.373 1_545 S
C389 C405 1.377 . S
C390 C388 1.389 . S
C390 C391 1.524 . S
C390 C404 1.377 . S
C391 C390 1.524 . S
C391 C392 1.397 . S
C391 C396 1.363 . S
C392 H369 0.950 . S
C392 C391 1.397 . S
C392 C393 1.334 . S
C393 H370 0.950 . S
C393 C392 1.334 . S
C393 C394 1.287 . S
C394 C393 1.287 . S
C394 C395 1.524 . S
C394 H413 0.913 . S
C395 H371 0.950 . S
C395 C394 1.524 . S
C395 C396 1.415 . S
C396 H372 0.950 . S
C396 C391 1.363 . S
C396 C395 1.415 . S
C397 H373 0.951 . S
C397 C398 1.370 . S
C397 C399 1.388 . S
C398 C397 1.370 . S
C398 C402 1.384 . S
C399 H374 0.951 . S
C399 C397 1.388 . S
C399 C400 1.366 . S
C400 C399 1.366 . S
C400 C401 1.414 . S
C400 C403 1.499 . S
C401 H375 0.950 . S
C401 C400 1.414 . S
C401 C402 1.382 . S
C402 H376 0.946 1_556 S
C402 C398 1.384 . S
C402 C401 1.382 . S
C403 C400 1.499 . S
C403 C404 1.373 1_545 S
C403 C405 1.389 . S
C404 H377 0.950 . S
C404 C390 1.377 . S
C404 C403 1.373 1_565 S
C405 C389 1.377 . S
C405 C403 1.389 . S
C405 C406 1.524 . S
C406 C405 1.524 . S
C406 C407 1.397 . S
C406 C411 1.363 . S
C407 H378 0.950 . S
C407 C406 1.397 . S
C407 C408 1.334 . S
C408 H379 0.950 . S
C408 C407 1.334 . S
C408 C409 1.287 . S
C409 C408 1.287 . S
C409 C410 1.524 . S
C409 H412 0.999 . S
C410 H380 0.950 . S
C410 C409 1.524 . S
C410 C411 1.415 . S
C411 H381 0.950 . S
C411 C406 1.363 . S
C411 C410 1.415 . S
H412 C409 0.999 . S
H413 C394 0.913 . S
H414 C432 0.951 . S
H415 C434 0.951 . S
H416 C436 0.950 1_545 S
H417 C437 0.950 . S
H418 C439 0.950 . S
H419 C442 0.950 1_545 S
H420 C443 0.950 . S
H421 C445 0.950 . S
H422 C446 0.950 . S
H423 C447 0.951 . S
H424 C449 0.951 . S
H425 C451 0.950 1_565 S
H426 C452 0.950 . S
H427 C454 0.950 . S
H428 C457 0.984 . S
H429 C458 0.950 1_565 S
H430 C460 0.950 . S
H431 C461 0.950 . S
C432 H414 0.951 . S
C432 C433 1.366 . S
C432 C434 1.388 . S
C433 C432 1.366 . S
C433 C437 1.385 . S
C434 H415 0.951 . S
C434 C432 1.388 . S
C434 C435 1.366 . S
C435 C434 1.366 . S
C435 C436 1.414 . S
C435 C438 1.499 . S
C436 H416 0.950 1_565 S
C436 C435 1.414 . S
C436 C437 1.374 . S
C437 H417 0.950 . S
C437 C433 1.385 . S
C437 C436 1.374 . S
C438 C435 1.499 . S
C438 C439 1.373 . S
C438 C440 1.389 . S
C439 H418 0.950 . S
C439 C438 1.373 . S
C439 C455 1.377 1_565 S
C440 C438 1.389 . S
C440 C441 1.524 . S
C440 C454 1.377 . S
C441 C440 1.524 . S
C441 C442 1.397 . S
C441 C446 1.363 . S
C442 H419 0.950 1_565 S
C442 C441 1.397 . S
C442 C443 1.334 . S
C443 H420 0.950 . S
C443 C442 1.334 . S
C443 C444 1.287 . S
C444 C443 1.287 . S
C444 C445 1.524 . S
C444 H463 0.913 . S
C445 H421 0.950 . S
C445 C444 1.524 . S
C445 C446 1.415 . S
C446 H422 0.950 . S
C446 C441 1.363 . S
C446 C445 1.415 . S
C447 H423 0.951 . S
C447 C448 1.366 . S
C447 C449 1.388 . S
C448 C447 1.366 . S
C448 C452 1.385 . S
C449 H424 0.951 . S
C449 C447 1.388 . S
C449 C450 1.366 . S
C450 C449 1.366 . S
C450 C451 1.414 . S
C450 C453 1.499 . S
C451 H425 0.950 1_545 S
C451 C450 1.414 . S
C451 C452 1.374 . S
C452 H426 0.950 . S
C452 C448 1.385 . S
C452 C451 1.374 . S
C453 C450 1.499 . S
C453 C454 1.373 1_545 S
C453 C455 1.389 . S
C454 H427 0.950 . S
C454 C440 1.377 . S
C454 C453 1.373 1_565 S
C455 C439 1.377 1_545 S
C455 C453 1.389 . S
C455 C456 1.524 . S
C456 C455 1.524 . S
C456 C457 1.373 1_545 S
C456 C461 1.363 . S
C457 H428 0.984 . S
C457 C456 1.373 1_565 S
C457 C458 1.326 1_565 S
C458 H429 0.950 1_545 S
C458 C457 1.326 1_545 S
C458 C459 1.287 . S
C459 C458 1.287 . S
C459 C460 1.524 . S
C459 H462 0.999 . S
C460 H430 0.950 . S
C460 C459 1.524 . S
C460 C461 1.415 . S
C461 H431 0.950 . S
C461 C456 1.363 . S
C461 C460 1.415 . S
H462 C459 0.999 . S
H463 C444 0.913 . S
H464 C482 0.951 . S
H465 C484 0.951 . S
H466 C486 0.950 . S
H467 C487 0.950 . S
H468 C489 0.950 . S
H469 C492 0.950 . S
H470 C493 0.950 . S
H471 C495 0.950 . S
H472 C496 0.950 . S
H473 C497 0.951 . S
H474 C499 0.951 . S
H475 C501 0.950 . S
H476 C502 0.950 1_556 S
H477 C504 0.950 . S
H478 C507 0.950 . S
H479 C508 0.950 . S
H480 C510 0.950 . S
H481 C511 0.950 . S
C482 H464 0.951 . S
C482 C483 1.366 . S
C482 C484 1.388 . S
C483 C482 1.366 . S
C483 C487 1.385 . S
C484 H465 0.951 . S
C484 C482 1.388 . S
C484 C485 1.366 . S
C485 C484 1.366 . S
C485 C486 1.414 . S
C485 C488 1.499 . S
C486 H466 0.950 . S
C486 C485 1.414 . S
C486 C487 1.374 . S
C487 H467 0.950 . S
C487 C483 1.385 . S
C487 C486 1.374 . S
C488 C485 1.499 . S
C488 C489 1.373 . S
C488 C490 1.389 . S
C489 H468 0.950 . S
C489 C488 1.373 . S
C489 C505 1.377 . S
C490 C488 1.389 . S
C490 C491 1.524 . S
C490 C504 1.377 . S
C491 C490 1.524 . S
C491 C492 1.397 . S
C491 C496 1.363 . S
C492 H469 0.950 . S
C492 C491 1.397 . S
C492 C493 1.334 . S
C493 H470 0.950 . S
C493 C492 1.334 . S
C493 C494 1.287 . S
C494 C493 1.287 . S
C494 C495 1.524 . S
C494 H513 0.913 . S
C495 H471 0.950 . S
C495 C494 1.524 . S
C495 C496 1.415 . S
C496 H472 0.950 . S
C496 C491 1.363 . S
C496 C495 1.415 . S
C497 H473 0.951 . S
C497 C498 1.371 . S
C497 C499 1.388 . S
C498 C497 1.371 . S
C498 C502 1.386 . S
C499 H474 0.951 . S
C499 C497 1.388 . S
C499 C500 1.366 . S
C500 C499 1.366 . S
C500 C501 1.414 . S
C500 C503 1.499 . S
C501 H475 0.950 . S
C501 C500 1.414 . S
C501 C502 1.374 . S
C502 H476 0.950 1_554 S
C502 C498 1.386 . S
C502 C501 1.374 . S
C503 C500 1.499 . S
C503 C504 1.373 . S
C503 C505 1.389 . S
C504 H477 0.950 . S
C504 C490 1.377 . S
C504 C503 1.373 . S
C505 C489 1.377 . S
C505 C503 1.389 . S
C505 C506 1.524 . S
C506 C505 1.524 . S
C506 C507 1.397 . S
C506 C511 1.363 . S
C507 H478 0.950 . S
C507 C506 1.397 . S
C507 C508 1.334 . S
C508 H479 0.950 . S
C508 C507 1.334 . S
C508 C509 1.287 . S
C509 C508 1.287 . S
C509 C510 1.524 . S
C509 H512 0.999 . S
C510 H480 0.950 . S
C510 C509 1.524 . S
C510 C511 1.415 . S
C511 H481 0.950 . S
C511 C506 1.363 . S
C511 C510 1.415 . S
H512 C509 0.999 . S
H513 C494 0.913 . S
H514 C532 0.951 . S
H515 C534 0.951 . S
H516 C536 0.950 . S
H517 C537 0.950 . S
H518 C539 0.950 . S
H519 C542 0.950 . S
H520 C543 0.950 . S
H521 C545 0.950 . S
H522 C546 0.950 . S
H523 C547 0.951 . S
H524 C549 0.951 . S
H525 C551 0.950 . S
H526 C552 0.950 . S
H527 C554 0.950 . S
H528 C557 0.950 . S
H529 C558 0.950 . S
H530 C560 0.950 . S
H531 C561 0.950 . S
C532 H514 0.951 . S
C532 C533 1.366 . S
C532 C534 1.388 . S
C533 C532 1.366 . S
C533 C537 1.385 . S
C534 H515 0.951 . S
C534 C532 1.388 . S
C534 C535 1.366 . S
C535 C534 1.366 . S
C535 C536 1.414 . S
C535 C538 1.499 . S
C536 H516 0.950 . S
C536 C535 1.414 . S
C536 C537 1.374 . S
C537 H517 0.950 . S
C537 C533 1.385 . S
C537 C536 1.374 . S
C538 C535 1.499 . S
C538 C539 1.373 . S
C538 C540 1.389 . S
C539 H518 0.950 . S
C539 C538 1.373 . S
C539 C555 1.377 . S
C540 C538 1.389 . S
C540 C541 1.524 . S
C540 C554 1.377 . S
C541 C540 1.524 . S
C541 C542 1.397 . S
C541 C546 1.363 . S
C542 H519 0.950 . S
C542 C541 1.397 . S
C542 C543 1.334 . S
C543 H520 0.950 . S
C543 C542 1.334 . S
C543 C544 1.287 . S
C544 C543 1.287 . S
C544 C545 1.524 . S
C544 H563 0.913 . S
C545 H521 0.950 . S
C545 C544 1.524 . S
C545 C546 1.415 . S
C546 H522 0.950 . S
C546 C541 1.363 . S
C546 C545 1.415 . S
C547 H523 0.951 . S
C547 C548 1.366 . S
C547 C549 1.388 . S
C548 C547 1.366 . S
C548 C552 1.385 . S
C549 H524 0.951 . S
C549 C547 1.388 . S
C549 C550 1.366 . S
C550 C549 1.366 . S
C550 C551 1.414 . S
C550 C553 1.499 . S
C551 H525 0.950 . S
C551 C550 1.414 . S
C551 C552 1.374 . S
C552 H526 0.950 . S
C552 C548 1.385 . S
C552 C551 1.374 . S
C553 C550 1.499 . S
C553 C554 1.373 . S
C553 C555 1.389 . S
C554 H527 0.950 . S
C554 C540 1.377 . S
C554 C553 1.373 . S
C555 C539 1.377 . S
C555 C553 1.389 . S
C555 C556 1.524 . S
C556 C555 1.524 . S
C556 C557 1.397 . S
C556 C561 1.363 . S
C557 H528 0.950 . S
C557 C556 1.397 . S
C557 C558 1.334 . S
C558 H529 0.950 . S
C558 C557 1.334 . S
C558 C559 1.287 . S
C559 C558 1.287 . S
C559 C560 1.524 . S
C559 H562 0.999 . S
C560 H530 0.950 . S
C560 C559 1.524 . S
C560 C561 1.415 . S
C561 H531 0.950 . S
C561 C556 1.363 . S
C561 C560 1.415 . S
H562 C559 0.999 . S
H563 C544 0.913 . S
H564 C582 0.951 . S
H565 C584 0.951 . S
H566 C586 0.950 . S
H567 C587 0.950 . S
H568 C589 0.950 . S
H569 C592 0.950 . S
H570 C593 0.950 . S
H571 C595 0.950 . S
H572 C596 0.950 . S
H573 C597 0.951 . S
H574 C599 0.951 . S
H575 C601 0.950 . S
H576 C602 0.950 . S
H577 C604 0.950 . S
H578 C607 0.950 . S
H579 C608 0.950 . S
H580 C610 0.950 . S
H581 C611 0.950 . S
C582 H564 0.951 . S
C582 C583 1.371 . S
C582 C584 1.388 . S
C583 C582 1.371 . S
C583 C587 1.386 . S
C584 H565 0.951 . S
C584 C582 1.388 . S
C584 C585 1.366 . S
C585 C584 1.366 . S
C585 C586 1.414 . S
C585 C588 1.499 . S
C586 H566 0.950 . S
C586 C585 1.414 . S
C586 C587 1.374 . S
C587 H567 0.950 . S
C587 C583 1.386 . S
C587 C586 1.374 . S
C588 C585 1.499 . S
C588 C589 1.373 . S
C588 C590 1.389 . S
C589 H568 0.950 . S
C589 C588 1.373 . S
C589 C605 1.377 . S
C590 C588 1.389 . S
C590 C591 1.524 . S
C590 C604 1.377 . S
C591 C590 1.524 . S
C591 C592 1.397 . S
C591 C596 1.363 . S
C592 H569 0.950 . S
C592 C591 1.397 . S
C592 C593 1.334 . S
C593 H570 0.950 . S
C593 C592 1.334 . S
C593 C594 1.287 . S
C594 C593 1.287 . S
C594 C595 1.524 . S
C594 H613 0.913 . S
C595 H571 0.950 . S
C595 C594 1.524 . S
C595 C596 1.415 . S
C596 H572 0.950 . S
C596 C591 1.363 . S
C596 C595 1.415 . S
C597 H573 0.951 . S
C597 C598 1.366 . S
C597 C599 1.388 . S
C598 C597 1.366 . S
C598 C602 1.385 . S
C599 H574 0.951 . S
C599 C597 1.388 . S
C599 C600 1.366 . S
C600 C599 1.366 . S
C600 C601 1.414 . S
C600 C603 1.499 . S
C601 H575 0.950 . S
C601 C600 1.414 . S
C601 C602 1.374 . S
C602 H576 0.950 . S
C602 C598 1.385 . S
C602 C601 1.374 . S
C603 C600 1.499 . S
C603 C604 1.373 . S
C603 C605 1.389 . S
C604 H577 0.950 . S
C604 C590 1.377 . S
C604 C603 1.373 . S
C605 C589 1.377 . S
C605 C603 1.389 . S
C605 C606 1.524 . S
C606 C605 1.524 . S
C606 C607 1.397 . S
C606 C611 1.363 . S
C607 H578 0.950 . S
C607 C606 1.397 . S
C607 C608 1.334 . S
C608 H579 0.950 . S
C608 C607 1.334 . S
C608 C609 1.287 . S
C609 C608 1.287 . S
C609 C610 1.524 . S
C609 H612 0.999 . S
C610 H580 0.950 . S
C610 C609 1.524 . S
C610 C611 1.415 . S
C611 H581 0.950 . S
C611 C606 1.363 . S
C611 C610 1.415 . S
H612 C609 0.999 . S
H613 C594 0.913 . S
H614 C632 0.951 . S
H615 C634 0.951 . S
H616 C636 0.950 . S
H617 C637 0.950 . S
H618 C639 0.950 . S
H619 C642 0.950 . S
H620 C643 0.950 . S
H621 C645 0.950 . S
H622 C646 0.950 . S
H623 C647 0.951 . S
H624 C649 0.951 . S
H625 C651 0.950 . S
H626 C652 0.950 . S
H627 C654 0.950 . S
H628 C657 0.950 . S
H629 C658 0.950 . S
H630 C660 0.950 . S
H631 C661 0.950 . S
C632 H614 0.951 . S
C632 C633 1.366 . S
C632 C634 1.388 . S
C633 C632 1.366 . S
C633 C637 1.385 . S
C634 H615 0.951 . S
C634 C632 1.388 . S
C634 C635 1.366 . S
C635 C634 1.366 . S
C635 C636 1.414 . S
C635 C638 1.499 . S
C636 H616 0.950 . S
C636 C635 1.414 . S
C636 C637 1.374 . S
C637 H617 0.950 . S
C637 C633 1.385 . S
C637 C636 1.374 . S
C638 C635 1.499 . S
C638 C639 1.373 . S
C638 C640 1.389 . S
C639 H618 0.950 . S
C639 C638 1.373 . S
C639 C655 1.377 . S
C640 C638 1.389 . S
C640 C641 1.524 . S
C640 C654 1.377 . S
C641 C640 1.524 . S
C641 C642 1.397 . S
C641 C646 1.363 . S
C642 H619 0.950 . S
C642 C641 1.397 . S
C642 C643 1.334 . S
C643 H620 0.950 . S
C643 C642 1.334 . S
C643 C644 1.287 . S
C644 C643 1.287 . S
C644 C645 1.524 . S
C644 H663 0.913 . S
C645 H621 0.950 . S
C645 C644 1.524 . S
C645 C646 1.415 . S
C646 H622 0.950 . S
C646 C641 1.363 . S
C646 C645 1.415 . S
C647 H623 0.951 . S
C647 C648 1.366 . S
C647 C649 1.388 . S
C648 C647 1.366 . S
C648 C652 1.385 . S
C649 H624 0.951 . S
C649 C647 1.388 . S
C649 C650 1.366 . S
C650 C649 1.366 . S
C650 C651 1.414 . S
C650 C653 1.499 . S
C651 H625 0.950 . S
C651 C650 1.414 . S
C651 C652 1.374 . S
C652 H626 0.950 . S
C652 C648 1.385 . S
C652 C651 1.374 . S
C653 C650 1.499 . S
C653 C654 1.373 . S
C653 C655 1.389 . S
C654 H627 0.950 . S
C654 C640 1.377 . S
C654 C653 1.373 . S
C655 C639 1.377 . S
C655 C653 1.389 . S
C655 C656 1.524 . S
C656 C655 1.524 . S
C656 C657 1.397 . S
C656 C661 1.363 . S
C657 H628 0.950 . S
C657 C656 1.397 . S
C657 C658 1.334 . S
C658 H629 0.950 . S
C658 C657 1.334 . S
C658 C659 1.287 . S
C659 C658 1.287 . S
C659 C660 1.524 . S
C659 H662 0.999 . S
C660 H630 0.950 . S
C660 C659 1.524 . S
C660 C661 1.415 . S
C661 H631 0.950 . S
C661 C656 1.363 . S
C661 C660 1.415 . S
H662 C659 0.999 . S
H663 C644 0.913 . S
H664 C682 0.951 . S
H665 C684 0.951 1_545 S
H666 C686 0.950 . S
H667 C687 0.950 . S
H668 C689 0.950 . S
H669 C692 0.950 . S
H670 C693 0.950 . S
H671 C695 0.950 . S
H672 C696 0.950 . S
H673 C697 0.951 . S
H674 C699 0.951 1_565 S
H675 C701 0.950 . S
H676 C702 0.950 . S
H677 C704 0.950 . S
H678 C707 0.950 . S
H679 C708 0.950 . S
H680 C710 0.950 . S
H681 C711 0.950 . S
C682 H664 0.951 . S
C682 C683 1.366 . S
C682 C684 1.388 . S
C683 C682 1.366 . S
C683 C687 1.385 . S
C684 H665 0.951 1_565 S
C684 C682 1.388 . S
C684 C685 1.366 . S
C685 C684 1.366 . S
C685 C686 1.414 . S
C685 C688 1.499 . S
C686 H666 0.950 . S
C686 C685 1.414 . S
C686 C687 1.374 . S
C687 H667 0.950 . S
C687 C683 1.385 . S
C687 C686 1.374 . S
C688 C685 1.499 . S
C688 C689 1.373 . S
C688 C690 1.389 1_565 S
C689 H668 0.950 . S
C689 C688 1.373 . S
C689 C705 1.377 . S
C690 C688 1.389 1_545 S
C690 C691 1.524 . S
C690 C704 1.377 . S
C691 C690 1.524 . S
C691 C692 1.397 1_545 S
C691 C696 1.363 . S
C692 H669 0.950 . S
C692 C691 1.397 1_565 S
C692 C693 1.334 . S
C693 H670 0.950 . S
C693 C692 1.334 . S
C693 C694 1.287 1_565 S
C694 C693 1.287 1_545 S
C694 C695 1.524 . S
C694 H713 0.913 . S
C695 H671 0.950 . S
C695 C694 1.524 . S
C695 C696 1.415 . S
C696 H672 0.950 . S
C696 C691 1.363 . S
C696 C695 1.415 . S
C697 H673 0.951 . S
C697 C698 1.366 . S
C697 C699 1.388 . S
C698 C697 1.366 . S
C698 C702 1.385 . S
C699 H674 0.951 1_545 S
C699 C697 1.388 . S
C699 C700 1.366 . S
C700 C699 1.366 . S
C700 C701 1.414 . S
C700 C703 1.499 . S
C701 H675 0.950 . S
C701 C700 1.414 . S
C701 C702 1.374 . S
C702 H676 0.950 . S
C702 C698 1.385 . S
C702 C701 1.374 . S
C703 C700 1.499 . S
C703 C704 1.373 . S
C703 C705 1.389 1_545 S
C704 H677 0.950 . S
C704 C690 1.377 . S
C704 C703 1.373 . S
C705 C689 1.377 . S
C705 C703 1.389 1_565 S
C705 C706 1.524 . S
C706 C705 1.524 . S
C706 C707 1.397 1_565 S
C706 C711 1.363 . S
C707 H678 0.950 . S
C707 C706 1.397 1_545 S
C707 C708 1.334 . S
C708 H679 0.950 . S
C708 C707 1.334 . S
C708 C709 1.287 1_545 S
C709 C708 1.287 1_565 S
C709 C710 1.524 . S
C709 H712 0.999 . S
C710 H680 0.950 . S
C710 C709 1.524 . S
C710 C711 1.415 . S
C711 H681 0.950 . S
C711 C706 1.363 . S
C711 C710 1.415 . S
H712 C709 0.999 . S
H713 C694 0.913 . S
H714 C732 0.951 . S
H715 C734 0.951 . S
H716 C736 0.950 . S
H717 C737 0.950 . S
H718 C739 0.950 . S
H719 C742 0.950 . S
H720 C743 0.950 . S
H721 C745 0.950 . S
H722 C746 0.950 . S
H723 C747 0.951 . S
H724 C749 0.951 . S
H725 C751 0.950 . S
H726 C752 0.950 . S
H727 C754 0.950 . S
H728 C757 0.950 . S
H729 C758 0.950 . S
H730 C760 0.950 . S
H731 C761 0.950 . S
C732 H714 0.951 . S
C732 C733 1.366 1_554 S
C732 C734 1.388 . S
C733 C732 1.366 1_556 S
C733 C737 1.385 . S
C734 H715 0.951 . S
C734 C732 1.388 . S
C734 C735 1.366 1_554 S
C735 C734 1.366 1_556 S
C735 C736 1.414 . S
C735 C738 1.499 . S
C736 H716 0.950 . S
C736 C735 1.414 . S
C736 C737 1.374 . S
C737 H717 0.950 . S
C737 C733 1.385 . S
C737 C736 1.374 . S
C738 C735 1.499 . S
C738 C739 1.373 . S
C738 C740 1.389 1_566 S
C739 H718 0.950 . S
C739 C738 1.373 . S
C739 C755 1.377 . S
C740 C738 1.389 1_544 S
C740 C741 1.524 . S
C740 C754 1.377 . S
C741 C740 1.524 . S
C741 C742 1.397 . S
C741 C746 1.363 . S
C742 H719 0.950 . S
C742 C741 1.397 . S
C742 C743 1.334 . S
C743 H720 0.950 . S
C743 C742 1.334 . S
C743 C744 1.287 . S
C744 C743 1.287 . S
C744 C745 1.524 . S
C744 H763 0.913 . S
C745 H721 0.950 . S
C745 C744 1.524 . S
C745 C746 1.415 . S
C746 H722 0.950 . S
C746 C741 1.363 . S
C746 C745 1.415 . S
C747 H723 0.951 . S
C747 C748 1.366 1_556 S
C747 C749 1.388 . S
C748 C747 1.366 1_554 S
C748 C752 1.385 . S
C749 H724 0.951 . S
C749 C747 1.388 . S
C749 C750 1.366 1_556 S
C750 C749 1.366 1_554 S
C750 C751 1.414 . S
C750 C753 1.499 . S
C751 H725 0.950 . S
C751 C750 1.414 . S
C751 C752 1.374 . S
C752 H726 0.950 . S
C752 C748 1.385 . S
C752 C751 1.374 . S
C753 C750 1.499 . S
C753 C754 1.373 . S
C753 C755 1.389 1_544 S
C754 H727 0.950 . S
C754 C740 1.377 . S
C754 C753 1.373 . S
C755 C739 1.377 . S
C755 C753 1.389 1_566 S
C755 C756 1.524 . S
C756 C755 1.524 . S
C756 C757 1.397 . S
C756 C761 1.363 . S
C757 H728 0.950 . S
C757 C756 1.397 . S
C757 C758 1.334 . S
C758 H729 0.950 . S
C758 C757 1.334 . S
C758 C759 1.287 . S
C759 C758 1.287 . S
C759 C760 1.524 . S
C759 H762 0.999 . S
C760 H730 0.950 . S
C760 C759 1.524 . S
C760 C761 1.415 . S
C761 H731 0.950 . S
C761 C756 1.363 . S
C761 C760 1.415 . S
H762 C759 0.999 . S
H763 C744 0.913 . S
H764 C782 0.951 . S
H765 C784 0.951 . S
H766 C786 0.950 . S
H767 C787 0.950 . S
H768 C789 0.950 . S
H769 C792 0.950 . S
H770 C793 0.950 . S
H771 C795 0.950 . S
H772 C796 0.950 . S
H773 C797 0.951 . S
H774 C799 0.951 . S
H775 C801 0.950 . S
H776 C802 0.950 . S
H777 C804 0.950 . S
H778 C807 0.950 . S
H779 C808 0.950 . S
H780 C810 0.950 . S
H781 C811 0.950 . S
C782 H764 0.951 . S
C782 C783 1.366 . S
C782 C784 1.388 . S
C783 C782 1.366 . S
C783 C787 1.385 . S
C784 H765 0.951 . S
C784 C782 1.388 . S
C784 C785 1.366 . S
C785 C784 1.366 . S
C785 C786 1.414 . S
C785 C788 1.499 . S
C786 H766 0.950 . S
C786 C785 1.414 . S
C786 C787 1.374 . S
C787 H767 0.950 . S
C787 C783 1.385 . S
C787 C786 1.374 . S
C788 C785 1.499 . S
C788 C789 1.373 . S
C788 C790 1.389 . S
C789 H768 0.950 . S
C789 C788 1.373 . S
C789 C805 1.377 1_655 S
C790 C788 1.389 . S
C790 C791 1.524 . S
C790 C804 1.377 1_655 S
C791 C790 1.524 . S
C791 C792 1.397 . S
C791 C796 1.363 1_655 S
C792 H769 0.950 . S
C792 C791 1.397 . S
C792 C793 1.334 . S
C793 H770 0.950 . S
C793 C792 1.334 . S
C793 C794 1.287 . S
C794 C793 1.287 . S
C794 C795 1.524 1_655 S
C794 H813 0.913 . S
C795 H771 0.950 . S
C795 C794 1.524 1_455 S
C795 C796 1.415 . S
C796 H772 0.950 . S
C796 C791 1.363 1_455 S
C796 C795 1.415 . S
C797 H773 0.951 . S
C797 C798 1.366 . S
C797 C799 1.388 . S
C798 C797 1.366 . S
C798 C802 1.385 . S
C799 H774 0.951 . S
C799 C797 1.388 . S
C799 C800 1.366 . S
C800 C799 1.366 . S
C800 C801 1.414 . S
C800 C803 1.499 . S
C801 H775 0.950 . S
C801 C800 1.414 . S
C801 C802 1.374 . S
C802 H776 0.950 . S
C802 C798 1.385 . S
C802 C801 1.374 . S
C803 C800 1.499 . S
C803 C804 1.373 . S
C803 C805 1.389 . S
C804 H777 0.950 . S
C804 C790 1.377 1_455 S
C804 C803 1.373 . S
C805 C789 1.377 1_455 S
C805 C803 1.389 . S
C805 C806 1.524 . S
C806 C805 1.524 . S
C806 C807 1.397 . S
C806 C811 1.363 1_455 S
C807 H778 0.950 . S
C807 C806 1.397 . S
C807 C808 1.334 . S
C808 H779 0.950 . S
C808 C807 1.334 . S
C808 C809 1.287 . S
C809 C808 1.287 . S
C809 C810 1.524 1_455 S
C809 H812 0.999 . S
C810 H780 0.950 . S
C810 C809 1.524 1_655 S
C810 C811 1.415 . S
C811 H781 0.950 . S
C811 C806 1.363 1_655 S
C811 C810 1.415 . S
H812 C809 0.999 . S
H813 C794 0.913 . S
H814 C832 0.951 . S
H815 C834 0.951 . S
H816 C836 0.950 . S
H817 C837 0.950 . S
H818 C839 0.950 . S
H819 C842 0.950 . S
H820 C843 0.950 . S
H821 C845 0.950 . S
H822 C846 0.950 1_655 S
H823 C847 0.951 . S
H824 C849 0.951 . S
H825 C851 0.950 . S
H826 C852 0.950 . S
H827 C854 0.950 . S
H828 C857 0.950 . S
H829 C858 0.950 . S
H830 C860 0.950 . S
H831 C861 0.950 1_455 S
C832 H814 0.951 . S
C832 C833 1.366 . S
C832 C834 1.388 . S
C833 C832 1.366 . S
C833 C837 1.385 . S
C834 H815 0.951 . S
C834 C832 1.388 . S
C834 C835 1.366 . S
C835 C834 1.366 . S
C835 C836 1.414 . S
C835 C838 1.499 . S
C836 H816 0.950 . S
C836 C835 1.414 . S
C836 C837 1.374 . S
C837 H817 0.950 . S
C837 C833 1.385 . S
C837 C836 1.374 . S
C838 C835 1.499 . S
C838 C839 1.373 1_554 S
C838 C840 1.389 . S
C839 H818 0.950 . S
C839 C838 1.373 1_556 S
C839 C855 1.377 1_455 S
C840 C838 1.389 . S
C840 C841 1.524 . S
C840 C854 1.377 1_455 S
C841 C840 1.524 . S
C841 C842 1.397 . S
C841 C846 1.363 . S
C842 H819 0.950 . S
C842 C841 1.397 . S
C842 C843 1.334 . S
C843 H820 0.950 . S
C843 C842 1.334 . S
C843 C844 1.287 . S
C844 C843 1.287 . S
C844 C845 1.524 . S
C844 H863 0.913 . S
C845 H821 0.950 . S
C845 C844 1.524 . S
C845 C846 1.415 . S
C846 H822 0.950 1_455 S
C846 C841 1.363 . S
C846 C845 1.415 . S
C847 H823 0.951 . S
C847 C848 1.366 . S
C847 C849 1.388 . S
C848 C847 1.366 . S
C848 C852 1.385 . S
C849 H824 0.951 . S
C849 C847 1.388 . S
C849 C850 1.366 . S
C850 C849 1.366 . S
C850 C851 1.414 . S
C850 C853 1.499 . S
C851 H825 0.950 . S
C851 C850 1.414 . S
C851 C852 1.374 . S
C852 H826 0.950 . S
C852 C848 1.385 . S
C852 C851 1.374 . S
C853 C850 1.499 . S
C853 C854 1.373 1_556 S
C853 C855 1.389 . S
C854 H827 0.950 . S
C854 C840 1.377 1_655 S
C854 C853 1.373 1_554 S
C855 C839 1.377 1_655 S
C855 C853 1.389 . S
C855 C856 1.524 . S
C856 C855 1.524 . S
C856 C857 1.397 . S
C856 C861 1.363 . S
C857 H828 0.950 . S
C857 C856 1.397 . S
C857 C858 1.334 . S
C858 H829 0.950 . S
C858 C857 1.334 . S
C858 C859 1.287 . S
C859 C858 1.287 . S
C859 C860 1.524 . S
C859 H862 0.999 . S
C860 H830 0.950 . S
C860 C859 1.524 . S
C860 C861 1.415 . S
C861 H831 0.950 1_655 S
C861 C856 1.363 . S
C861 C860 1.415 . S
H862 C859 0.999 . S
H863 C844 0.913 . S
H864 C882 0.951 . S
H865 C884 0.951 . S
H866 C886 0.950 . S
H867 C887 0.950 . S
H868 C889 0.950 . S
H869 C892 0.950 . S
H870 C893 0.950 1_565 S
H871 C895 0.950 . S
H872 C896 0.950 . S
H873 C897 0.951 . S
H874 C899 0.951 . S
H875 C901 0.950 . S
H876 C902 0.950 . S
H877 C904 0.950 . S
H878 C907 0.950 . S
H879 C908 0.950 . S
H880 C910 0.950 . S
H881 C911 0.950 . S
C882 H864 0.951 . S
C882 C883 1.366 . S
C882 C884 1.388 . S
C883 C882 1.366 . S
C883 C887 1.385 . S
C884 H865 0.951 . S
C884 C882 1.388 . S
C884 C885 1.366 . S
C885 C884 1.366 . S
C885 C886 1.414 . S
C885 C888 1.499 . S
C886 H866 0.950 . S
C886 C885 1.414 . S
C886 C887 1.374 . S
C887 H867 0.950 . S
C887 C883 1.385 . S
C887 C886 1.374 . S
C888 C885 1.499 . S
C888 C889 1.373 . S
C888 C890 1.389 . S
C889 H868 0.950 . S
C889 C888 1.373 . S
C889 C905 1.377 1_455 S
C890 C888 1.389 . S
C890 C891 1.524 . S
C890 C904 1.377 1_455 S
C891 C890 1.524 . S
C891 C892 1.397 . S
C891 C896 1.363 . S
C892 H869 0.950 . S
C892 C891 1.397 . S
C892 C893 1.334 . S
C893 H870 0.950 1_545 S
C893 C892 1.334 . S
C893 C894 1.287 . S
C894 C893 1.287 . S
C894 C895 1.524 . S
C894 H913 0.913 . S
C895 H871 0.950 . S
C895 C894 1.524 . S
C895 C896 1.415 . S
C896 H872 0.950 . S
C896 C891 1.363 . S
C896 C895 1.415 . S
C897 H873 0.951 . S
C897 C898 1.366 . S
C897 C899 1.388 . S
C898 C897 1.366 . S
C898 C902 1.385 . S
C899 H874 0.951 . S
C899 C897 1.388 . S
C899 C900 1.366 . S
C900 C899 1.366 . S
C900 C901 1.414 . S
C900 C903 1.499 . S
C901 H875 0.950 . S
C901 C900 1.414 . S
C901 C902 1.374 . S
C902 H876 0.950 . S
C902 C898 1.385 . S
C902 C901 1.374 . S
C903 C900 1.499 . S
C903 C904 1.373 . S
C903 C905 1.389 . S
C904 H877 0.950 . S
C904 C890 1.377 1_655 S
C904 C903 1.373 . S
C905 C889 1.377 1_655 S
C905 C903 1.389 . S
C905 C906 1.524 . S
C906 C905 1.524 . S
C906 C907 1.397 . S
C906 C911 1.363 . S
C907 H878 0.950 . S
C907 C906 1.397 . S
C907 C908 1.334 . S
C908 H879 0.950 . S
C908 C907 1.334 . S
C908 C909 1.287 . S
C909 C908 1.287 . S
C909 C910 1.524 . S
C909 H912 0.999 . S
C910 H880 0.950 . S
C910 C909 1.524 . S
C910 C911 1.415 . S
C911 H881 0.950 . S
C911 C906 1.363 . S
C911 C910 1.415 . S
H912 C909 0.999 . S
H913 C894 0.913 . S
H914 C932 0.951 . S
H915 C934 0.951 . S
H916 C936 0.950 . S
H917 C937 0.950 . S
H918 C939 0.950 . S
H919 C942 0.950 . S
H920 C943 0.950 . S
H921 C945 0.950 . S
H922 C946 0.950 . S
H923 C947 0.951 . S
H924 C949 0.951 . S
H925 C951 0.950 . S
H926 C952 0.950 . S
H927 C954 0.950 . S
H928 C957 0.950 . S
H929 C958 0.950 . S
H930 C960 0.950 . S
H931 C961 0.950 . S
C932 H914 0.951 . S
C932 C933 1.366 . S
C932 C934 1.388 . S
C933 C932 1.366 . S
C933 C937 1.385 . S
C934 H915 0.951 . S
C934 C932 1.388 . S
C934 C935 1.366 . S
C935 C934 1.366 . S
C935 C936 1.414 . S
C935 C938 1.499 . S
C936 H916 0.950 . S
C936 C935 1.414 . S
C936 C937 1.374 . S
C937 H917 0.950 . S
C937 C933 1.385 . S
C937 C936 1.374 . S
C938 C935 1.499 . S
C938 C939 1.373 . S
C938 C940 1.389 . S
C939 H918 0.950 . S
C939 C938 1.373 . S
C939 C955 1.377 1_455 S
C940 C938 1.389 . S
C940 C941 1.524 . S
C940 C954 1.377 1_455 S
C941 C940 1.524 . S
C941 C942 1.397 . S
C941 C946 1.363 . S
C942 H919 0.950 . S
C942 C941 1.397 . S
C942 C943 1.334 . S
C943 H920 0.950 . S
C943 C942 1.334 . S
C943 C944 1.287 . S
C944 C943 1.287 . S
C944 C945 1.524 . S
C944 H963 0.913 . S
C945 H921 0.950 . S
C945 C944 1.524 . S
C945 C946 1.415 . S
C946 H922 0.950 . S
C946 C941 1.363 . S
C946 C945 1.415 . S
C947 H923 0.951 . S
C947 C948 1.366 . S
C947 C949 1.388 . S
C948 C947 1.366 . S
C948 C952 1.385 . S
C949 H924 0.951 . S
C949 C947 1.388 . S
C949 C950 1.366 . S
C950 C949 1.366 . S
C950 C951 1.414 . S
C950 C953 1.499 . S
C951 H925 0.950 . S
C951 C950 1.414 . S
C951 C952 1.374 . S
C952 H926 0.950 . S
C952 C948 1.385 . S
C952 C951 1.374 . S
C953 C950 1.499 . S
C953 C954 1.373 . S
C953 C955 1.389 . S
C954 H927 0.950 . S
C954 C940 1.377 1_655 S
C954 C953 1.373 . S
C955 C939 1.377 1_655 S
C955 C953 1.389 . S
C955 C956 1.524 . S
C956 C955 1.524 . S
C956 C957 1.397 . S
C956 C961 1.363 . S
C957 H928 0.950 . S
C957 C956 1.397 . S
C957 C958 1.334 . S
C958 H929 0.950 . S
C958 C957 1.334 . S
C958 C959 1.287 . S
C959 C958 1.287 . S
C959 C960 1.524 . S
C959 H962 0.999 . S
C960 H930 0.950 . S
C960 C959 1.524 . S
C960 C961 1.415 . S
C961 H931 0.950 . S
C961 C956 1.363 . S
C961 C960 1.415 . S
H962 C959 0.999 . S
H963 C944 0.913 . S
H964 C982 0.951 . S
H965 C984 0.951 . S
H966 C986 0.950 . S
H967 C987 0.950 . S
H968 C989 0.950 . S
H969 C992 0.950 . S
H970 C993 0.950 . S
H971 C995 0.950 . S
H972 C996 0.950 . S
H973 C997 0.951 . S
H974 C999 0.951 . S
H975 C1001 0.950 . S
H976 C1002 0.950 . S
H977 C1004 0.950 . S
H978 C1007 0.950 . S
H979 C1008 0.950 . S
H980 C1010 0.950 . S
H981 C1011 0.950 . S
C982 H964 0.951 . S
C982 C983 1.366 . S
C982 C984 1.388 . S
C983 C982 1.366 . S
C983 C987 1.385 . S
C984 H965 0.951 . S
C984 C982 1.388 . S
C984 C985 1.366 . S
C985 C984 1.366 . S
C985 C986 1.414 . S
C985 C988 1.499 . S
C986 H966 0.950 . S
C986 C985 1.414 . S
C986 C987 1.374 . S
C987 H967 0.950 . S
C987 C983 1.385 . S
C987 C986 1.374 . S
C988 C985 1.499 . S
C988 C989 1.373 . S
C988 C990 1.389 . S
C989 H968 0.950 . S
C989 C988 1.373 . S
C989 C1005 1.377 . S
C990 C988 1.389 . S
C990 C991 1.524 . S
C990 C1004 1.377 . S
C991 C990 1.524 . S
C991 C992 1.397 . S
C991 C996 1.363 . S
C992 H969 0.950 . S
C992 C991 1.397 . S
C992 C993 1.334 . S
C993 H970 0.950 . S
C993 C992 1.334 . S
C993 C994 1.287 . S
C994 C993 1.287 . S
C994 C995 1.524 . S
C994 H1013 0.913 . S
C995 H971 0.950 . S
C995 C994 1.524 . S
C995 C996 1.415 . S
C996 H972 0.950 . S
C996 C991 1.363 . S
C996 C995 1.415 . S
C997 H973 0.951 . S
C997 C998 1.366 . S
C997 C999 1.388 . S
C998 C997 1.366 . S
C998 C1002 1.385 . S
C999 H974 0.951 . S
C999 C997 1.388 . S
C999 C1000 1.366 . S
C1000 C999 1.366 . S
C1000 C1001 1.414 . S
C1000 C1003 1.499 . S
C1001 H975 0.950 . S
C1001 C1000 1.414 . S
C1001 C1002 1.374 . S
C1002 H976 0.950 . S
C1002 C998 1.385 . S
C1002 C1001 1.374 . S
C1003 C1000 1.499 . S
C1003 C1004 1.373 . S
C1003 C1005 1.389 . S
C1004 H977 0.950 . S
C1004 C990 1.377 . S
C1004 C1003 1.373 . S
C1005 C989 1.377 . S
C1005 C1003 1.389 . S
C1005 C1006 1.524 . S
C1006 C1005 1.524 . S
C1006 C1007 1.397 . S
C1006 C1011 1.363 . S
C1007 H978 0.950 . S
C1007 C1006 1.397 . S
C1007 C1008 1.334 . S
C1008 H979 0.950 . S
C1008 C1007 1.334 . S
C1008 C1009 1.287 . S
C1009 C1008 1.287 . S
C1009 C1010 1.524 . S
C1009 H1012 0.999 . S
C1010 H980 0.950 . S
C1010 C1009 1.524 . S
C1010 C1011 1.415 . S
C1011 H981 0.950 . S
C1011 C1006 1.363 . S
C1011 C1010 1.415 . S
H1012 C1009 0.999 . S
H1013 C994 0.913 . S
H1014 C1032 0.951 . S
H1015 C1034 0.951 . S
H1016 C1036 0.950 . S
H1017 C1037 0.950 . S
H1018 C1039 0.950 . S
H1019 C1042 0.950 . S
H1020 C1043 0.950 . S
H1021 C1045 0.950 . S
H1022 C1046 0.950 . S
H1023 C1047 0.951 . S
H1024 C1049 0.951 . S
H1025 C1051 0.950 . S
H1026 C1052 0.950 . S
H1027 C1054 0.950 . S
H1028 C1057 0.950 . S
H1029 C1058 0.950 . S
H1030 C1060 0.950 . S
H1031 C1061 0.950 . S
C1032 H1014 0.951 . S
C1032 C1033 1.366 . S
C1032 C1034 1.388 . S
C1033 C1032 1.366 . S
C1033 C1037 1.385 . S
C1034 H1015 0.951 . S
C1034 C1032 1.388 . S
C1034 C1035 1.366 . S
C1035 C1034 1.366 . S
C1035 C1036 1.414 . S
C1035 C1038 1.499 . S
C1036 H1016 0.950 . S
C1036 C1035 1.414 . S
C1036 C1037 1.374 . S
C1037 H1017 0.950 . S
C1037 C1033 1.385 . S
C1037 C1036 1.374 . S
C1038 C1035 1.499 . S
C1038 C1039 1.373 . S
C1038 C1040 1.389 . S
C1039 H1018 0.950 . S
C1039 C1038 1.373 . S
C1039 C1055 1.377 . S
C1040 C1038 1.389 . S
C1040 C1041 1.524 . S
C1040 C1054 1.377 . S
C1041 C1040 1.524 . S
C1041 C1042 1.397 . S
C1041 C1046 1.363 . S
C1042 H1019 0.950 . S
C1042 C1041 1.397 . S
C1042 C1043 1.334 . S
C1043 H1020 0.950 . S
C1043 C1042 1.334 . S
C1043 C1044 1.287 . S
C1044 C1043 1.287 . S
C1044 C1045 1.524 . S
C1044 H1063 0.913 . S
C1045 H1021 0.950 . S
C1045 C1044 1.524 . S
C1045 C1046 1.415 . S
C1046 H1022 0.950 . S
C1046 C1041 1.363 . S
C1046 C1045 1.415 . S
C1047 H1023 0.951 . S
C1047 C1048 1.366 . S
C1047 C1049 1.388 . S
C1048 C1047 1.366 . S
C1048 C1052 1.385 . S
C1049 H1024 0.951 . S
C1049 C1047 1.388 . S
C1049 C1050 1.366 . S
C1050 C1049 1.366 . S
C1050 C1051 1.414 . S
C1050 C1053 1.499 . S
C1051 H1025 0.950 . S
C1051 C1050 1.414 . S
C1051 C1052 1.374 . S
C1052 H1026 0.950 . S
C1052 C1048 1.385 . S
C1052 C1051 1.374 . S
C1053 C1050 1.499 . S
C1053 C1054 1.373 . S
C1053 C1055 1.389 . S
C1054 H1027 0.950 . S
C1054 C1040 1.377 . S
C1054 C1053 1.373 . S
C1055 C1039 1.377 . S
C1055 C1053 1.389 . S
C1055 C1056 1.524 . S
C1056 C1055 1.524 . S
C1056 C1057 1.397 . S
C1056 C1061 1.363 . S
C1057 H1028 0.950 . S
C1057 C1056 1.397 . S
C1057 C1058 1.334 . S
C1058 H1029 0.950 . S
C1058 C1057 1.334 . S
C1058 C1059 1.287 . S
C1059 C1058 1.287 . S
C1059 C1060 1.524 . S
C1059 H1062 0.999 . S
C1060 H1030 0.950 . S
C1060 C1059 1.524 . S
C1060 C1061 1.415 . S
C1061 H1031 0.950 . S
C1061 C1056 1.363 . S
C1061 C1060 1.415 . S
H1062 C1059 0.999 . S
H1063 C1044 0.913 . S
H1064 C1082 0.951 . S
H1065 C1084 0.951 . S
H1066 C1086 0.950 . S
H1067 C1087 0.950 . S
H1068 C1089 0.950 . S
H1069 C1092 0.950 . S
H1070 C1093 0.950 . S
H1071 C1095 0.950 . S
H1072 C1096 0.950 . S
H1073 C1097 0.951 . S
H1074 C1099 0.951 . S
H1075 C1101 0.950 . S
H1076 C1102 0.950 . S
H1077 C1104 0.950 . S
H1078 C1107 0.950 . S
H1079 C1108 0.950 . S
H1080 C1110 0.950 . S
H1081 C1111 0.950 . S
C1082 H1064 0.951 . S
C1082 C1083 1.366 . S
C1082 C1084 1.388 . S
C1083 C1082 1.366 . S
C1083 C1087 1.385 . S
C1084 H1065 0.951 . S
C1084 C1082 1.388 . S
C1084 C1085 1.366 . S
C1085 C1084 1.366 . S
C1085 C1086 1.414 . S
C1085 C1088 1.499 . S
C1086 H1066 0.950 . S
C1086 C1085 1.414 . S
C1086 C1087 1.374 . S
C1087 H1067 0.950 . S
C1087 C1083 1.385 . S
C1087 C1086 1.374 . S
C1088 C1085 1.499 . S
C1088 C1089 1.373 . S
C1088 C1090 1.389 . S
C1089 H1068 0.950 . S
C1089 C1088 1.373 . S
C1089 C1105 1.377 . S
C1090 C1088 1.389 . S
C1090 C1091 1.524 . S
C1090 C1104 1.377 . S
C1091 C1090 1.524 . S
C1091 C1092 1.397 . S
C1091 C1096 1.363 . S
C1092 H1069 0.950 . S
C1092 C1091 1.397 . S
C1092 C1093 1.334 . S
C1093 H1070 0.950 . S
C1093 C1092 1.334 . S
C1093 C1094 1.287 . S
C1094 C1093 1.287 . S
C1094 C1095 1.524 . S
C1094 H1113 0.913 . S
C1095 H1071 0.950 . S
C1095 C1094 1.524 . S
C1095 C1096 1.415 . S
C1096 H1072 0.950 . S
C1096 C1091 1.363 . S
C1096 C1095 1.415 . S
C1097 H1073 0.951 . S
C1097 C1098 1.366 . S
C1097 C1099 1.388 . S
C1098 C1097 1.366 . S
C1098 C1102 1.385 . S
C1099 H1074 0.951 . S
C1099 C1097 1.388 . S
C1099 C1100 1.366 . S
C1100 C1099 1.366 . S
C1100 C1101 1.414 . S
C1100 C1103 1.499 . S
C1101 H1075 0.950 . S
C1101 C1100 1.414 . S
C1101 C1102 1.374 . S
C1102 H1076 0.950 . S
C1102 C1098 1.385 . S
C1102 C1101 1.374 . S
C1103 C1100 1.499 . S
C1103 C1104 1.373 . S
C1103 C1105 1.389 . S
C1104 H1077 0.950 . S
C1104 C1090 1.377 . S
C1104 C1103 1.373 . S
C1105 C1089 1.377 . S
C1105 C1103 1.389 . S
C1105 C1106 1.524 . S
C1106 C1105 1.524 . S
C1106 C1107 1.397 . S
C1106 C1111 1.363 . S
C1107 H1078 0.950 . S
C1107 C1106 1.397 . S
C1107 C1108 1.334 . S
C1108 H1079 0.950 . S
C1108 C1107 1.334 . S
C1108 C1109 1.287 . S
C1109 C1108 1.287 . S
C1109 C1110 1.524 . S
C1109 H1112 0.999 . S
C1110 H1080 0.950 . S
C1110 C1109 1.524 . S
C1110 C1111 1.415 . S
C1111 H1081 0.950 . S
C1111 C1106 1.363 . S
C1111 C1110 1.415 . S
H1112 C1109 0.999 . S
H1113 C1094 0.913 . S
H1114 C1132 0.951 1_554 S
H1115 C1134 0.960 . S
H1116 C1136 0.950 . S
H1117 C1137 0.950 . S
H1118 C1139 0.950 . S
H1119 C1142 0.950 . S
H1120 C1143 0.950 . S
H1121 C1145 0.950 . S
H1122 C1146 0.950 . S
H1123 C1147 0.951 1_556 S
H1124 C1149 0.960 . S
H1125 C1151 0.950 . S
H1126 C1152 0.950 . S
H1127 C1154 0.950 . S
H1128 C1157 0.950 . S
H1129 C1158 0.950 . S
H1130 C1160 0.950 . S
H1131 C1161 0.950 . S
C1132 H1114 0.951 1_556 S
C1132 C1133 1.366 . S
C1132 C1134 1.384 1_556 S
C1133 C1132 1.366 . S
C1133 C1137 1.385 . S
C1134 H1115 0.960 . S
C1134 C1132 1.384 1_554 S
C1134 C1135 1.361 1_554 S
C1135 C1134 1.361 1_556 S
C1135 C1136 1.414 . S
C1135 C1138 1.499 . S
C1136 H1116 0.950 . S
C1136 C1135 1.414 . S
C1136 C1137 1.374 . S
C1137 H1117 0.950 . S
C1137 C1133 1.385 . S
C1137 C1136 1.374 . S
C1138 C1135 1.499 . S
C1138 C1139 1.373 . S
C1138 C1140 1.389 1_556 S
C1139 H1118 0.950 . S
C1139 C1138 1.373 . S
C1139 C1155 1.377 . S
C1140 C1138 1.389 1_554 S
C1140 C1141 1.524 . S
C1140 C1154 1.377 . S
C1141 C1140 1.524 . S
C1141 C1142 1.397 1_554 S
C1141 C1146 1.363 . S
C1142 H1119 0.950 . S
C1142 C1141 1.397 1_556 S
C1142 C1143 1.334 . S
C1143 H1120 0.950 . S
C1143 C1142 1.334 . S
C1143 C1144 1.287 1_556 S
C1144 C1143 1.287 1_554 S
C1144 C1145 1.524 . S
C1144 H1163 0.913 . S
C1145 H1121 0.950 . S
C1145 C1144 1.524 . S
C1145 C1146 1.415 . S
C1146 H1122 0.950 . S
C1146 C1141 1.363 . S
C1146 C1145 1.415 . S
C1147 H1123 0.951 1_554 S
C1147 C1148 1.366 . S
C1147 C1149 1.384 1_554 S
C1148 C1147 1.366 . S
C1148 C1152 1.385 . S
C1149 H1124 0.960 . S
C1149 C1147 1.384 1_556 S
C1149 C1150 1.361 1_556 S
C1150 C1149 1.361 1_554 S
C1150 C1151 1.414 . S
C1150 C1153 1.499 . S
C1151 H1125 0.950 . S
C1151 C1150 1.414 . S
C1151 C1152 1.374 . S
C1152 H1126 0.950 . S
C1152 C1148 1.385 . S
C1152 C1151 1.374 . S
C1153 C1150 1.499 . S
C1153 C1154 1.373 . S
C1153 C1155 1.389 1_554 S
C1154 H1127 0.950 . S
C1154 C1140 1.377 . S
C1154 C1153 1.373 . S
C1155 C1139 1.377 . S
C1155 C1153 1.389 1_556 S
C1155 C1156 1.524 . S
C1156 C1155 1.524 . S
C1156 C1157 1.397 1_556 S
C1156 C1161 1.363 . S
C1157 H1128 0.950 . S
C1157 C1156 1.397 1_554 S
C1157 C1158 1.334 . S
C1158 H1129 0.950 . S
C1158 C1157 1.334 . S
C1158 C1159 1.287 1_554 S
C1159 C1158 1.287 1_556 S
C1159 C1160 1.524 . S
C1159 H1162 0.999 . S
C1160 H1130 0.950 . S
C1160 C1159 1.524 . S
C1160 C1161 1.415 . S
C1161 H1131 0.950 . S
C1161 C1156 1.363 . S
C1161 C1160 1.415 . S
H1162 C1159 0.999 . S
H1163 C1144 0.913 . S
H1164 C1182 0.951 . S
H1165 C1184 0.951 . S
H1166 C1186 0.950 . S
H1167 C1187 0.950 . S
H1168 C1189 0.950 . S
H1169 C1192 0.950 . S
H1170 C1193 0.950 . S
H1171 C1195 0.950 . S
H1172 C1196 0.950 . S
H1173 C1197 0.951 . S
H1174 C1199 0.951 . S
H1175 C1201 0.950 . S
H1176 C1202 0.950 . S
H1177 C1204 0.950 . S
H1178 C1207 0.950 . S
H1179 C1208 0.950 . S
H1180 C1210 0.950 . S
H1181 C1211 0.950 . S
C1182 H1164 0.951 . S
C1182 C1183 1.366 . S
C1182 C1184 1.388 . S
C1183 C1182 1.366 . S
C1183 C1187 1.385 . S
C1184 H1165 0.951 . S
C1184 C1182 1.388 . S
C1184 C1185 1.366 . S
C1185 C1184 1.366 . S
C1185 C1186 1.414 . S
C1185 C1188 1.499 . S
C1186 H1166 0.950 . S
C1186 C1185 1.414 . S
C1186 C1187 1.374 . S
C1187 H1167 0.950 . S
C1187 C1183 1.385 . S
C1187 C1186 1.374 . S
C1188 C1185 1.499 . S
C1188 C1189 1.373 . S
C1188 C1190 1.389 . S
C1189 H1168 0.950 . S
C1189 C1188 1.373 . S
C1189 C1205 1.377 . S
C1190 C1188 1.389 . S
C1190 C1191 1.524 . S
C1190 C1204 1.377 . S
C1191 C1190 1.524 . S
C1191 C1192 1.397 . S
C1191 C1196 1.363 . S
C1192 H1169 0.950 . S
C1192 C1191 1.397 . S
C1192 C1193 1.334 . S
C1193 H1170 0.950 . S
C1193 C1192 1.334 . S
C1193 C1194 1.287 . S
C1194 C1193 1.287 . S
C1194 C1195 1.524 . S
C1194 H1213 0.913 . S
C1195 H1171 0.950 . S
C1195 C1194 1.524 . S
C1195 C1196 1.415 . S
C1196 H1172 0.950 . S
C1196 C1191 1.363 . S
C1196 C1195 1.415 . S
C1197 H1173 0.951 . S
C1197 C1198 1.366 . S
C1197 C1199 1.388 . S
C1198 C1197 1.366 . S
C1198 C1202 1.385 . S
C1199 H1174 0.951 . S
C1199 C1197 1.388 . S
C1199 C1200 1.366 . S
C1200 C1199 1.366 . S
C1200 C1201 1.414 . S
C1200 C1203 1.499 . S
C1201 H1175 0.950 . S
C1201 C1200 1.414 . S
C1201 C1202 1.374 . S
C1202 H1176 0.950 . S
C1202 C1198 1.385 . S
C1202 C1201 1.374 . S
C1203 C1200 1.499 . S
C1203 C1204 1.373 . S
C1203 C1205 1.389 . S
C1204 H1177 0.950 . S
C1204 C1190 1.377 . S
C1204 C1203 1.373 . S
C1205 C1189 1.377 . S
C1205 C1203 1.389 . S
C1205 C1206 1.524 . S
C1206 C1205 1.524 . S
C1206 C1207 1.397 . S
C1206 C1211 1.363 . S
C1207 H1178 0.950 . S
C1207 C1206 1.397 . S
C1207 C1208 1.334 . S
C1208 H1179 0.950 . S
C1208 C1207 1.334 . S
C1208 C1209 1.287 . S
C1209 C1208 1.287 . S
C1209 C1210 1.524 . S
C1209 H1212 0.999 . S
C1210 H1180 0.950 . S
C1210 C1209 1.524 . S
C1210 C1211 1.415 . S
C1211 H1181 0.950 . S
C1211 C1206 1.363 . S
C1211 C1210 1.415 . S
H1212 C1209 0.999 . S
H1213 C1194 0.913 . S
H1214 C1232 0.951 . S
H1215 C1234 0.951 . S
H1216 C1236 0.950 . S
H1217 C1237 0.950 . S
H1218 C1239 0.950 . S
H1219 C1242 0.950 . S
H1220 C1243 0.950 . S
H1221 C1245 0.950 . S
H1222 C1246 0.964 . S
H1223 C1247 0.951 . S
H1224 C1249 0.951 . S
H1225 C1251 0.950 . S
H1226 C1252 0.950 . S
H1227 C1254 0.950 . S
H1228 C1257 0.950 . S
H1229 C1258 0.950 . S
H1230 C1260 0.950 . S
H1231 C1261 0.964 . S
C1232 H1214 0.951 . S
C1232 C1233 1.366 . S
C1232 C1234 1.388 . S
C1233 C1232 1.366 . S
C1233 C1237 1.385 . S
C1234 H1215 0.951 . S
C1234 C1232 1.388 . S
C1234 C1235 1.366 . S
C1235 C1234 1.366 . S
C1235 C1236 1.414 . S
C1235 C1238 1.499 . S
C1236 H1216 0.950 . S
C1236 C1235 1.414 . S
C1236 C1237 1.374 . S
C1237 H1217 0.950 . S
C1237 C1233 1.385 . S
C1237 C1236 1.374 . S
C1238 C1235 1.499 . S
C1238 C1239 1.373 1_556 S
C1238 C1240 1.389 . S
C1239 H1218 0.950 . S
C1239 C1238 1.373 1_554 S
C1239 C1255 1.377 . S
C1240 C1238 1.389 . S
C1240 C1241 1.524 . S
C1240 C1254 1.377 . S
C1241 C1240 1.524 . S
C1241 C1242 1.397 . S
C1241 C1246 1.363 . S
C1242 H1219 0.950 . S
C1242 C1241 1.397 . S
C1242 C1243 1.334 . S
C1243 H1220 0.950 . S
C1243 C1242 1.334 . S
C1243 C1244 1.287 . S
C1244 C1243 1.287 . S
C1244 C1245 1.524 . S
C1244 H1263 0.913 . S
C1245 H1221 0.950 . S
C1245 C1244 1.524 . S
C1245 C1246 1.415 . S
C1246 H1222 0.964 . S
C1246 C1241 1.363 . S
C1246 C1245 1.415 . S
C1247 H1223 0.951 . S
C1247 C1248 1.366 . S
C1247 C1249 1.388 . S
C1248 C1247 1.366 . S
C1248 C1252 1.385 . S
C1249 H1224 0.951 . S
C1249 C1247 1.388 . S
C1249 C1250 1.366 . S
C1250 C1249 1.366 . S
C1250 C1251 1.414 . S
C1250 C1253 1.499 . S
C1251 H1225 0.950 . S
C1251 C1250 1.414 . S
C1251 C1252 1.374 . S
C1252 H1226 0.950 . S
C1252 C1248 1.385 . S
C1252 C1251 1.374 . S
C1253 C1250 1.499 . S
C1253 C1254 1.373 1_554 S
C1253 C1255 1.389 . S
C1254 H1227 0.950 . S
C1254 C1240 1.377 . S
C1254 C1253 1.373 1_556 S
C1255 C1239 1.377 . S
C1255 C1253 1.389 . S
C1255 C1256 1.524 . S
C1256 C1255 1.524 . S
C1256 C1257 1.397 . S
C1256 C1261 1.363 . S
C1257 H1228 0.950 . S
C1257 C1256 1.397 . S
C1257 C1258 1.334 . S
C1258 H1229 0.950 . S
C1258 C1257 1.334 . S
C1258 C1259 1.287 . S
C1259 C1258 1.287 . S
C1259 C1260 1.524 . S
C1259 H1262 0.999 . S
C1260 H1230 0.950 . S
C1260 C1259 1.524 . S
C1260 C1261 1.415 . S
C1261 H1231 0.964 . S
C1261 C1256 1.363 . S
C1261 C1260 1.415 . S
H1262 C1259 0.999 . S
H1263 C1244 0.913 . S
C283 C106 0.870 1_554 S
C298 C18 0.882 . S
C333 C51 0.882 . S
C348 C73 0.877 . S
C383 C84 0.882 . S
C398 C40 0.871 1_556 S
C433 C117 0.882 . S
C448 C7 0.877 . S
C483 C150 0.882 . S
C498 C238 0.871 1_554 S
C533 C183 0.882 . S
C548 C205 0.878 . S
C583 C172 0.872 1_556 S
C598 C216 0.882 . S
C633 C249 0.882 . S
C648 C139 0.877 . S
C683 N79 2.064 . S
C698 N13 2.064 . S
C733 N112 2.065 . S
C748 N46 2.065 . S
C783 N145 2.064 . S
C798 N211 2.064 . S
C833 N178 2.064 . S
C848 N244 2.064 . S
C883 N2 1.104 . S
C898 N35 1.104 . S
C933 N101 1.104 . S
C948 N68 1.104 . S
C983 N167 1.105 . S
C998 N134 1.105 . S
C1033 N233 1.105 . S
C1048 N200 1.105 . S
C1083 C219 1.580 . S
C1098 C21 1.580 . S
C1133 C252 1.580 . S
C1148 C54 1.580 . S
C1183 C153 1.580 . S
C1198 C87 1.580 . S
C1233 C120 1.580 . S
C1248 C186 1.580 . S
