# Generated by pormake.
# Topology npo, (4)-cn, num edge types: 1
# Building blocks:
#     Node 0, Type 0, BuildingBlock: QUQFOY_clean_sbu_3, # of connection points: 4
#     Node 1, Type 0, BuildingBlock: QUQFOY_clean_sbu_3, # of connection points: 4
#     Node 2, Type 0, BuildingBlock: QUQFOY_clean_sbu_3, # of connection points: 4
#     Node 3, Type 0, BuildingBlock: QUQFOY_clean_sbu_3, # of connection points: 4
#     Node 4, Type 0, BuildingBlock: QUQFOY_clean_sbu_3, # of connection points: 4
#     Node 5, Type 0, BuildingBlock: QUQFOY_clean_sbu_3, # of connection points: 4
#     Edge 6, Type (0, 0), BuildingBlock: FUNLAD_clean_linker_1, # of connection points: 2
#     Edge 7, Type (0, 0), BuildingBlock: FUNLAD_clean_linker_1, # of connection points: 2
#     Edge 8, Type (0, 0), BuildingBlock: FUNLAD_clean_linker_1, # of connection points: 2
#     Edge 9, Type (0, 0), BuildingBlock: FUNLAD_clean_linker_1, # of connection points: 2
#     Edge 10, Type (0, 0), BuildingBlock: FUNLAD_clean_linker_1, # of connection points: 2
#     Edge 11, Type (0, 0), BuildingBlock: FUNLAD_clean_linker_1, # of connection points: 2
#     Edge 12, Type (0, 0), BuildingBlock: FUNLAD_clean_linker_1, # of connection points: 2
#     Edge 13, Type (0, 0), BuildingBlock: FUNLAD_clean_linker_1, # of connection points: 2
#     Edge 14, Type (0, 0), BuildingBlock: FUNLAD_clean_linker_1, # of connection points: 2
#     Edge 15, Type (0, 0), BuildingBlock: FUNLAD_clean_linker_1, # of connection points: 2
#     Edge 16, Type (0, 0), BuildingBlock: FUNLAD_clean_linker_1, # of connection points: 2
#     Edge 17, Type (0, 0), BuildingBlock: FUNLAD_clean_linker_1, # of connection points: 2
# Relax obj value: 0.289
# Max RMSD: 0.250
# Mean RMSD: 0.240
data_MOF--net-npo--node1-QUQFOY_clean_sbu_3--edge1-FUNLAD_clean_linker_1
_symmetry_space_group_name_H-M    P1
_symmetry_Int_Tables_number       1
_symmetry_cell_setting            triclinic
loop_
_symmetry_equiv_pos_as_xyz
'x, y, z'
_cell_length_a     47.388693
_cell_length_b     46.422338
_cell_length_c     25.756604
_cell_angle_alpha  91.69742
_cell_angle_beta   89.864453
_cell_angle_gamma 120.82671
loop_
_atom_site_label
_atom_site_type_symbol
_atom_site_fract_x
_atom_site_fract_y
_atom_site_fract_z
_atom_type_partial_charge
C0 C 0.49244 0.15296 0.1793 0.0
O1 O 0.49554 0.1457 0.13253 0.0
Cd2 Cd 0.51845 0.11217 0.10774 0.0
O3 O 0.49926 0.14024 0.21692 0.0
Cd4 Cd 0.51753 0.09932 0.22928 0.0
C5 C 0.5901 0.15706 0.18013 0.0
O6 O 0.49041 0.06214 0.15536 0.0
O7 O 0.53094 0.05961 0.18801 0.0
O8 O 0.47543 0.07126 0.2942 0.0
C9 C 0.5071 0.0479 0.15585 0.0
O10 O 0.57611 0.14784 0.13559 0.0
C11 C 0.49467 0.07051 0.32755 0.0
O12 O 0.57414 0.14477 0.22151 0.0
O13 O 0.52488 0.08438 0.31609 0.0
C14 C 0.3572 0.50914 0.71255 0.0
O15 O 0.36716 0.50873 0.66682 0.0
Cd16 Cd 0.42358 0.52775 0.64651 0.0
O17 O 0.37683 0.51894 0.75144 0.0
Cd18 Cd 0.43525 0.54067 0.77189 0.0
C19 C 0.45433 0.60735 0.69698 0.0
O20 O 0.44331 0.50557 0.71055 0.0
O21 O 0.48749 0.54515 0.74776 0.0
O22 O 0.41857 0.50999 0.8518 0.0
C23 C 0.47422 0.52008 0.71632 0.0
O24 O 0.44905 0.58881 0.65644 0.0
C25 C 0.43815 0.53511 0.88064 0.0
O26 O 0.44963 0.59548 0.7422 0.0
O27 O 0.45601 0.56284 0.85891 0.0
C28 C 0.82375 0.47834 0.27988 0.0
O29 O 0.83233 0.47527 0.32502 0.0
Cd30 Cd 0.86209 0.44741 0.34049 0.0
O31 O 0.83301 0.46898 0.23955 0.0
Cd32 Cd 0.86808 0.44541 0.21561 0.0
C33 C 0.81038 0.37419 0.27074 0.0
O34 O 0.90824 0.47206 0.28462 0.0
O35 O 0.90909 0.43127 0.24403 0.0
O36 O 0.89217 0.48678 0.14858 0.0
C37 C 0.92182 0.4548 0.27823 0.0
O38 O 0.82205 0.38903 0.31458 0.0
C39 C 0.8894 0.46602 0.1129 0.0
O40 O 0.8216 0.38927 0.22839 0.0
O41 O 0.87565 0.43532 0.12441 0.0
C42 C 0.36223 0.83161 0.78041 0.0
O43 O 0.37168 0.83928 0.8275 0.0
Cd44 Cd 0.42804 0.86903 0.8542 0.0
O45 O 0.38269 0.84316 0.74343 0.0
Cd46 Cd 0.4424 0.88509 0.73222 0.0
C47 C 0.45542 0.82577 0.77756 0.0
O48 O 0.4524 0.91956 0.80869 0.0
O49 O 0.49606 0.92421 0.77487 0.0
O50 O 0.43213 0.91764 0.67091 0.0
C51 C 0.4834 0.93379 0.80959 0.0
O52 O 0.44877 0.83286 0.82241 0.0
C53 C 0.45015 0.91611 0.63564 0.0
O54 O 0.45379 0.84014 0.73729 0.0
O55 O 0.46358 0.89906 0.64447 0.0
C56 C 0.61566 0.48628 0.19885 0.0
O57 O 0.60376 0.48822 0.15588 0.0
Cd58 Cd 0.54636 0.46708 0.14028 0.0
O59 O 0.59757 0.4744 0.23851 0.0
Cd60 Cd 0.53985 0.45178 0.26473 0.0
C61 C 0.51747 0.38643 0.17902 0.0
O62 O 0.52863 0.4868 0.21255 0.0
O63 O 0.48605 0.44596 0.24703 0.0
O64 O 0.55752 0.48217 0.34787 0.0
C65 C 0.49786 0.47144 0.21905 0.0
O66 O 0.52205 0.40597 0.1421 0.0
C67 C 0.53992 0.4565 0.37458 0.0
O68 O 0.52354 0.39721 0.22609 0.0
O69 O 0.52316 0.42851 0.35019 0.0
C70 C 0.14544 0.51787 0.74137 0.0
O71 O 0.14227 0.51824 0.79034 0.0
Cd72 Cd 0.10842 0.53565 0.83263 0.0
O73 O 0.12884 0.52517 0.71134 0.0
Cd74 Cd 0.08524 0.54001 0.71746 0.0
C75 C 0.13977 0.6132 0.77908 0.0
O76 O 0.05627 0.50354 0.78841 0.0
O77 O 0.039 0.53642 0.76641 0.0
O78 O 0.06117 0.50482 0.63913 0.0
C79 C 0.03566 0.51293 0.79445 0.0
O80 O 0.13822 0.59612 0.81792 0.0
C81 C 0.0585 0.52683 0.61512 0.0
O82 O 0.12316 0.59915 0.7378 0.0
O83 O 0.06812 0.55476 0.63873 0.0
H84 H 0.48576 0.18771 0.23091 0.0
C85 C 0.4852 0.1798 0.19057 0.0
H86 H 0.4841 0.19114 0.11205 0.0
H87 H 0.44443 0.29391 0.23289 0.0
H88 H 0.39201 0.24382 0.24972 0.0
H89 H 0.38269 0.18753 0.22713 0.0
H90 H 0.42577 0.18098 0.18763 0.0
C91 C 0.48311 0.19782 0.15254 0.0
C92 C 0.48767 0.2314 0.16437 0.0
C93 C 0.46221 0.2347 0.18721 0.0
C94 C 0.46754 0.26714 0.19993 0.0
C95 C 0.4417 0.26983 0.22259 0.0
C96 C 0.4115 0.2413 0.23237 0.0
C97 C 0.40626 0.2096 0.21968 0.0
C98 C 0.43121 0.20618 0.19722 0.0
H99 H 0.50447 0.34323 0.1256 0.0
C100 C 0.50721 0.35125 0.1663 0.0
H101 H 0.50581 0.33713 0.24411 0.0
H102 H 0.54169 0.23363 0.12101 0.0
H103 H 0.59435 0.28349 0.10587 0.0
H104 H 0.60402 0.3397 0.12966 0.0
H105 H 0.56121 0.34638 0.16909 0.0
C106 C 0.50381 0.32988 0.20317 0.0
C107 C 0.49819 0.29607 0.18941 0.0
C108 C 0.52382 0.29274 0.16705 0.0
C109 C 0.51838 0.26034 0.15394 0.0
C110 C 0.54437 0.25763 0.13167 0.0
C111 C 0.5748 0.28606 0.12287 0.0
C112 C 0.58025 0.3177 0.1363 0.0
C113 C 0.55527 0.32116 0.15847 0.0
H114 H 0.31624 0.50251 0.7611 0.0
C115 C 0.3236 0.50215 0.72116 0.0
H116 H 0.31075 0.50058 0.64192 0.0
H117 H 0.16105 0.44456 0.71163 0.0
H118 H 0.15547 0.39332 0.67358 0.0
H119 H 0.20421 0.39156 0.64428 0.0
H120 H 0.25889 0.44108 0.65284 0.0
C121 C 0.30398 0.50053 0.68226 0.0
C122 C 0.27428 0.50242 0.69406 0.0
C123 C 0.2426 0.47351 0.6879 0.0
C124 C 0.21452 0.47456 0.70465 0.0
C125 C 0.18317 0.44514 0.69925 0.0
C126 C 0.17964 0.41559 0.67755 0.0
C127 C 0.2071 0.4146 0.66106 0.0
C128 C 0.2383 0.44314 0.6662 0.0
H129 H 0.17346 0.51231 0.67705 0.0
C130 C 0.17004 0.51089 0.71885 0.0
H131 H 0.18743 0.50498 0.79094 0.0
H132 H 0.3311 0.56389 0.70321 0.0
H133 H 0.33658 0.61519 0.7402 0.0
H134 H 0.28804 0.61661 0.77134 0.0
H135 H 0.23372 0.56667 0.76584 0.0
C136 C 0.18974 0.50534 0.74895 0.0
C137 C 0.21834 0.50459 0.72718 0.0
C138 C 0.24989 0.53394 0.73116 0.0
C139 C 0.27788 0.53298 0.71394 0.0
C140 C 0.30907 0.56291 0.71706 0.0
C141 C 0.31254 0.59264 0.73778 0.0
C142 C 0.28522 0.59344 0.75533 0.0
C143 C 0.25419 0.56455 0.75205 0.0
H144 H 0.63716 0.19494 0.14699 0.0
C145 C 0.62475 0.18433 0.18314 0.0
H146 H 0.6278 0.18899 0.26507 0.0
H147 H 0.78359 0.28446 0.19104 0.0
H148 H 0.78016 0.23215 0.16407 0.0
H149 H 0.72768 0.17828 0.16796 0.0
H150 H 0.67828 0.17637 0.19859 0.0
C151 C 0.64032 0.19827 0.22857 0.0
C152 C 0.67264 0.23007 0.22987 0.0
C153 C 0.70132 0.23063 0.21246 0.0
C154 C 0.73166 0.26161 0.21089 0.0
C155 C 0.75992 0.26157 0.19307 0.0
C156 C 0.75831 0.23174 0.17755 0.0
C157 C 0.72875 0.20141 0.17968 0.0
C158 C 0.70053 0.20069 0.19705 0.0
H159 H 0.77214 0.32822 0.30703 0.0
C160 C 0.78158 0.33991 0.27002 0.0
H161 H 0.77402 0.33508 0.18848 0.0
H162 H 0.62225 0.23764 0.266 0.0
H163 H 0.62572 0.28983 0.29296 0.0
H164 H 0.67826 0.3436 0.28979 0.0
H165 H 0.72755 0.34558 0.25904 0.0
C166 C 0.76504 0.32412 0.22603 0.0
C167 C 0.73332 0.2918 0.22754 0.0
C168 C 0.70467 0.29124 0.24524 0.0
C169 C 0.67434 0.26028 0.2468 0.0
C170 C 0.64601 0.26042 0.26424 0.0
C171 C 0.64761 0.29022 0.27974 0.0
C172 C 0.67719 0.32049 0.27794 0.0
C173 C 0.70539 0.3212 0.26058 0.0
H174 H 0.46265 0.78597 0.8073 0.0
C175 C 0.46293 0.79875 0.7724 0.0
H176 H 0.46644 0.79932 0.6905 0.0
H177 H 0.52169 0.70009 0.76629 0.0
H178 H 0.56998 0.75163 0.79775 0.0
H179 H 0.57246 0.80593 0.79383 0.0
H180 H 0.5266 0.809 0.75854 0.0
C181 C 0.46739 0.78778 0.72604 0.0
C182 C 0.46819 0.75627 0.72181 0.0
C183 C 0.49536 0.75505 0.7418 0.0
C184 C 0.49403 0.72382 0.74364 0.0
C185 C 0.52138 0.72317 0.76419 0.0
C186 C 0.54927 0.75257 0.78223 0.0
C187 C 0.55066 0.78314 0.78006 0.0
C188 C 0.52412 0.78453 0.76 0.0
H189 H 0.46578 0.65174 0.65192 0.0
C190 C 0.46283 0.64233 0.69092 0.0
H191 H 0.46055 0.65234 0.771 0.0
H192 H 0.41312 0.75066 0.67692 0.0
H193 H 0.36488 0.69934 0.6454 0.0
H194 H 0.36167 0.64481 0.65114 0.0
H195 H 0.40658 0.64127 0.68823 0.0
C196 C 0.46317 0.6612 0.7317 0.0
C197 C 0.46566 0.69404 0.72507 0.0
C198 C 0.43882 0.69542 0.70359 0.0
C199 C 0.44036 0.72673 0.70122 0.0
C200 C 0.41325 0.72753 0.67982 0.0
C201 C 0.38535 0.69824 0.66163 0.0
C202 C 0.38356 0.66756 0.6648 0.0
C203 C 0.40975 0.66596 0.68584 0.0
H204 H 0.66485 0.50461 0.16617 0.0
C205 C 0.65019 0.49489 0.20082 0.0
H206 H 0.64764 0.47583 0.27529 0.0
H207 H 0.74375 0.42477 0.20958 0.0
H208 H 0.69125 0.37308 0.19911 0.0
H209 H 0.63934 0.37301 0.20718 0.0
H210 H 0.63965 0.42484 0.22396 0.0
C211 C 0.66255 0.48725 0.24143 0.0
C212 C 0.69401 0.4878 0.23705 0.0
C213 C 0.69331 0.45724 0.22715 0.0
C214 C 0.72319 0.45724 0.22297 0.0
C215 C 0.72181 0.42633 0.21301 0.0
C216 C 0.6918 0.3964 0.20707 0.0
C217 C 0.66259 0.39637 0.21139 0.0
C218 C 0.66315 0.42634 0.22119 0.0
H219 H 0.79154 0.49586 0.31065 0.0
C220 C 0.79973 0.48929 0.27513 0.0
H221 H 0.79115 0.47855 0.1945 0.0
H222 H 0.7037 0.55051 0.25648 0.0
H223 H 0.75634 0.60258 0.26505 0.0
H224 H 0.80829 0.60268 0.25671 0.0
H225 H 0.80792 0.55069 0.23994 0.0
C226 C 0.78448 0.48679 0.22993 0.0
C227 C 0.75366 0.48775 0.2296 0.0
C228 C 0.75437 0.51838 0.2386 0.0
C229 C 0.72445 0.51839 0.24252 0.0
C230 C 0.72575 0.5492 0.25246 0.0
C231 C 0.75578 0.57922 0.25757 0.0
C232 C 0.78503 0.57927 0.25296 0.0
C233 C 0.78449 0.54927 0.24356 0.0
H234 H 0.3239 0.7872 0.73743 0.0
C235 C 0.32808 0.80497 0.76916 0.0
H236 H 0.30826 0.8181 0.83199 0.0
H237 H 0.19693 0.67562 0.69832 0.0
H238 H 0.21082 0.70912 0.62197 0.0
H239 H 0.25059 0.77006 0.62751 0.0
H240 H 0.27785 0.79739 0.70942 0.0
C241 C 0.30348 0.79966 0.8011 0.0
C242 C 0.27199 0.76662 0.80109 0.0
C243 C 0.25377 0.75181 0.75437 0.0
C244 C 0.2285 0.71738 0.75237 0.0
C245 C 0.21424 0.70219 0.70338 0.0
C246 C 0.22231 0.72109 0.65892 0.0
C247 C 0.24485 0.75534 0.66195 0.0
C248 C 0.26052 0.77064 0.70901 0.0
H249 H 0.15534 0.66576 0.76293 0.0
C250 C 0.16283 0.64963 0.78034 0.0
H251 H 0.20094 0.64569 0.81423 0.0
H252 H 0.2999 0.78763 0.89915 0.0
H253 H 0.28105 0.75641 0.9775 0.0
H254 H 0.23265 0.69913 0.976 0.0
H255 H 0.20331 0.67254 0.8955 0.0
C256 C 0.19377 0.66238 0.79783 0.0
C257 C 0.21883 0.69893 0.79868 0.0
C258 C 0.23473 0.71489 0.8465 0.0
C259 C 0.26182 0.74845 0.84762 0.0
C260 C 0.27856 0.7627 0.89563 0.0
C261 C 0.26806 0.74497 0.94123 0.0
C262 C 0.24089 0.7127 0.94037 0.0
C263 C 0.22437 0.6977 0.89375 0.0
H264 H 0.52847 0.9615 0.85845 0.0
C265 C 0.50263 0.95373 0.85551 0.0
H266 H 0.46176 0.95102 0.89289 0.0
H267 H 0.49862 0.95778 0.12307 0.0
H268 H 0.46018 0.89774 0.11092 0.0
H269 H 0.44219 0.87208 0.02288 0.0
H270 H 0.46238 0.90619 0.9466 0.0
C271 C 0.48791 0.96001 0.89507 0.0
C272 C 0.50448 0.97428 0.94591 0.0
C273 C 0.493 0.95376 -0.01023 0.0
C274 C 0.50335 0.9684 0.04036 0.0
C275 C 0.49112 0.94768 0.0838 0.0
C276 C 0.46923 0.91328 0.07732 0.0
C277 C 0.45911 0.89884 0.02775 0.0
C278 C 0.47077 0.91871 0.98433 0.0
H279 H 0.48121 0.01421 0.08909 0.0
C280 C 0.50347 0.0248 0.1129 0.0
H281 H 0.5514 0.03233 0.11887 0.0
H282 H 0.53368 0.0203 0.86958 0.0
H283 H 0.57445 0.07936 0.88231 0.0
H284 H 0.5937 0.10421 0.97043 0.0
H285 H 0.57202 0.07001 0.04644 0.0
C286 C 0.52802 0.02016 0.09792 0.0
C287 C 0.5251 0.00338 0.04676 0.0
C288 C 0.53932 0.02326 0.00287 0.0
C289 C 0.52865 0.00879 0.95213 0.0
C290 C 0.54145 0.02973 0.90898 0.0
C291 C 0.56478 0.06376 0.91576 0.0
C292 C 0.57559 0.07776 0.96538 0.0
C293 C 0.56295 0.05791 0.00861 0.0
H294 H 0.51664 0.43709 0.44946 0.0
C295 C 0.53553 0.45931 0.43058 0.0
H296 H 0.5681 0.51165 0.43719 0.0
H297 H 0.46871 0.52735 0.58176 0.0
H298 H 0.4677 0.55507 0.50414 0.0
H299 H 0.49772 0.55461 0.42604 0.0
H300 H 0.52902 0.52663 0.42525 0.0
C301 C 0.55008 0.48909 0.45635 0.0
C302 C 0.53587 0.49289 0.50562 0.0
C303 C 0.51795 0.50971 0.50533 0.0
C304 C 0.50035 0.50965 0.55001 0.0
C305 C 0.48235 0.52636 0.54871 0.0
C306 C 0.48158 0.54243 0.5044 0.0
C307 C 0.4985 0.5422 0.46048 0.0
C308 C 0.51643 0.52603 0.46063 0.0
H309 H 0.52103 0.53018 0.68224 0.0
C310 C 0.49447 0.51382 0.67973 0.0
H311 H 0.45428 0.47622 0.63557 0.0
H312 H 0.57129 0.46224 0.52077 0.0
H313 H 0.57265 0.43487 0.59899 0.0
H314 H 0.54094 0.43358 0.67595 0.0
H315 H 0.50782 0.45983 0.67532 0.0
C316 C 0.48085 0.4916 0.63984 0.0
C317 C 0.50085 0.4929 0.59478 0.0
C318 C 0.51984 0.4773 0.59589 0.0
C319 C 0.53759 0.47748 0.55124 0.0
C320 C 0.55676 0.46213 0.55334 0.0
C321 C 0.55788 0.44651 0.59803 0.0
C322 C 0.54007 0.44584 0.6414 0.0
C323 C 0.5212 0.46101 0.64057 0.0
H324 H 0.01195 0.48112 0.86113 0.0
C325 C 0.01172 0.49965 0.83655 0.0
H326 H -0.01002 0.52879 0.82262 0.0
H327 H 0.86392 0.43341 0.95515 0.0
H328 H 0.84028 0.42076 0.86797 0.0
H329 H 0.8756 0.4436 0.79156 0.0
H330 H 0.93479 0.47939 0.80181 0.0
C331 C -0.00879 0.51088 0.84732 0.0
C332 C 0.96972 0.49894 0.89343 0.0
C333 C 0.93523 0.47815 0.8867 0.0
C334 C 0.9149 0.46474 0.93071 0.0
C335 C 0.8805 0.44407 0.92298 0.0
C336 C 0.86662 0.43664 0.87319 0.0
C337 C 0.88652 0.44951 0.83016 0.0
C338 C 0.92044 0.47002 0.83658 0.0
H339 H 0.91602 0.50467 0.05526 0.0
C340 C 0.90443 0.47798 0.06207 0.0
H341 H 0.89646 0.43122 0.0331 0.0
H342 H 0.03434 0.54239 0.92051 0.0
H343 H 0.05826 0.55348 0.00712 0.0
H344 H 0.0237 0.52619 0.08274 0.0
H345 H 0.96503 0.48835 0.0723 0.0
C346 C 0.9079 0.45798 0.0272 0.0
C347 C 0.92913 0.47216 0.98123 0.0
C348 C 0.9637 0.49298 -0.01204 0.0
C349 C -0.01612 0.50721 0.94412 0.0
C350 C 0.01804 0.52964 0.95218 0.0
C351 C 0.03208 0.53644 0.00177 0.0
C352 C 0.01262 0.5212 0.04434 0.0
C353 C 0.97885 0.49969 0.03778 0.0
H354 H 0.45567 0.0413 0.38337 0.0
C355 C 0.48166 0.05198 0.37551 0.0
H356 H 0.5261 0.05573 0.39952 0.0
H357 H 0.48043 0.01299 0.62991 0.0
H358 H 0.51757 0.07281 0.64418 0.0
H359 H 0.54015 0.11038 0.57026 0.0
H360 H 0.52584 0.08827 0.48152 0.0
C361 C 0.50004 0.04514 0.40653 0.0
C362 C 0.48535 0.02253 0.45082 0.0
C363 C 0.49366 0.03589 0.50235 0.0
C364 C 0.48031 0.01428 0.54491 0.0
C365 C 0.48952 0.02825 0.59605 0.0
C366 C 0.51087 0.06257 0.60483 0.0
C367 C 0.52361 0.08372 0.56322 0.0
C368 C 0.51521 0.07069 0.51249 0.0
H369 H 0.47275 0.93256 0.55916 0.0
C370 C 0.45708 0.93495 0.58773 0.0
H371 H 0.4324 0.96042 0.60979 0.0
H372 H 0.46633 0.98817 0.35664 0.0
H373 H 0.4274 0.9288 0.34236 0.0
H374 H 0.40117 0.89204 0.41625 0.0
H375 H 0.41428 0.91442 0.50491 0.0
C376 C 0.44681 0.95667 0.58039 0.0
C377 C 0.45864 0.97934 0.53574 0.0
C378 C 0.44956 0.96611 0.48417 0.0
C379 C 0.46351 0.9876 0.44161 0.0
C380 C 0.45553 0.97334 0.39049 0.0
C381 C 0.43334 0.9392 0.3817 0.0
C382 C 0.41867 0.91848 0.42329 0.0
C383 C 0.42658 0.93163 0.474 0.0
H384 H 0.4633 0.55297 0.95644 0.0
C385 C 0.44253 0.53193 0.93615 0.0
H386 H 0.40382 0.48162 0.94015 0.0
H387 H 0.48936 0.45193 0.09372 0.0
H388 H 0.48265 0.41605 0.01888 0.0
H389 H 0.45409 0.41701 0.93958 0.0
H390 H 0.4321 0.45383 0.93478 0.0
C391 C 0.42412 0.50306 0.96051 0.0
C392 C 0.43535 0.498 0.01133 0.0
C393 C 0.44728 0.4756 0.01371 0.0
C394 C 0.46375 0.47507 0.05929 0.0
C395 C 0.47647 0.45331 0.06018 0.0
C396 C 0.47284 0.43256 0.01742 0.0
C397 C 0.45676 0.4331 0.9728 0.0
C398 C 0.44421 0.45439 0.97064 0.0
H399 H 0.44987 0.45884 0.18577 0.0
C400 C 0.4762 0.47647 0.18456 0.0
H401 H 0.51492 0.51608 0.14439 0.0
H402 H 0.40989 0.53899 0.02245 0.0
H403 H 0.4154 0.57395 0.09849 0.0
H404 H 0.44508 0.57387 0.17707 0.0
H405 H 0.46925 0.53865 0.18023 0.0
C406 C 0.48859 0.4989 0.14701 0.0
C407 C 0.46789 0.49668 0.10239 0.0
C408 C 0.45411 0.5174 0.10129 0.0
C409 C 0.43751 0.51786 0.05575 0.0
C410 C 0.42347 0.5384 0.05572 0.0
C411 C 0.42628 0.55837 0.09916 0.0
C412 C 0.44296 0.5583 0.14344 0.0
C413 C 0.45675 0.53806 0.14474 0.0
H414 H 0.04 0.53937 0.54646 0.0
C415 C 0.04395 0.52034 0.56272 0.0
H416 H 0.03753 0.47201 0.55173 0.0
H417 H 0.91328 0.43002 0.40575 0.0
H418 H 0.88865 0.39305 0.47778 0.0
H419 H 0.92209 0.39736 0.55414 0.0
H420 H 0.98036 0.43873 0.55891 0.0
C421 C 0.03454 0.49165 0.53552 0.0
C422 C 0.01622 0.48478 0.48564 0.0
C423 C -0.01757 0.45975 0.48296 0.0
C424 C 0.96321 0.45716 0.43889 0.0
C425 C 0.92917 0.43288 0.43802 0.0
C426 C 0.91467 0.41152 0.47919 0.0
C427 C 0.9335 0.41396 0.52218 0.0
C428 C 0.96695 0.43783 0.52439 0.0
H429 H 0.9544 0.43911 0.31234 0.0
C430 C 0.9465 0.45732 0.31548 0.0
H431 H 0.94963 0.4983 0.35881 0.0
H432 H 0.08161 0.53058 0.4743 0.0
H433 H 0.10669 0.56645 0.40088 0.0
H434 H 0.07306 0.56282 0.32516 0.0
H435 H 0.01418 0.52309 0.32222 0.0
C436 C 0.95725 0.47988 0.35523 0.0
C437 C 0.97803 0.47933 0.39751 0.0
C438 C 0.01222 0.50272 0.39858 0.0
C439 C 0.03146 0.50522 0.44254 0.0
C440 C 0.06574 0.52835 0.44237 0.0
C441 C 0.08045 0.54889 0.40036 0.0
C442 C 0.06151 0.54681 0.3577 0.0
C443 C 0.02777 0.524 0.35656 0.0
loop_
_geom_bond_atom_site_label_1
_geom_bond_atom_site_label_2
_geom_bond_distance
_geom_bond_site_symmetry_2
_ccdc_geom_bond_type
C0 O1 1.306 . S
C0 O3 1.160 . S
O1 C0 1.306 . S
O1 Cd2 2.228 . S
Cd2 O1 2.228 . S
Cd2 O6 2.273 . S
Cd2 O10 2.277 . S
O3 C0 1.160 . S
O3 Cd4 2.203 . S
Cd4 O3 2.203 . S
Cd4 O6 2.411 . S
Cd4 O7 2.333 . S
Cd4 O8 2.352 . S
Cd4 O12 2.277 . S
Cd4 O13 2.356 . S
C5 O10 1.209 . S
C5 O12 1.226 . S
O6 Cd2 2.273 . S
O6 Cd4 2.411 . S
O6 C9 1.320 . S
O7 Cd4 2.333 . S
O7 C9 1.214 . S
O8 Cd4 2.352 . S
O8 C11 1.258 . S
C9 O6 1.320 . S
C9 O7 1.214 . S
O10 Cd2 2.277 . S
O10 C5 1.209 . S
C11 O8 1.258 . S
C11 O13 1.282 . S
O12 Cd4 2.277 . S
O12 C5 1.226 . S
O13 Cd4 2.356 . S
O13 C11 1.282 . S
C14 O15 1.306 . S
C14 O17 1.160 . S
O15 C14 1.306 . S
O15 Cd16 2.228 . S
Cd16 O15 2.228 . S
Cd16 O20 2.273 . S
Cd16 O24 2.277 . S
O17 C14 1.160 . S
O17 Cd18 2.203 . S
Cd18 O17 2.203 . S
Cd18 O20 2.411 . S
Cd18 O21 2.333 . S
Cd18 O22 2.352 . S
Cd18 O26 2.277 . S
Cd18 O27 2.356 . S
C19 O24 1.209 . S
C19 O26 1.226 . S
O20 Cd16 2.273 . S
O20 Cd18 2.411 . S
O20 C23 1.320 . S
O21 Cd18 2.333 . S
O21 C23 1.214 . S
O22 Cd18 2.352 . S
O22 C25 1.258 . S
C23 O20 1.320 . S
C23 O21 1.214 . S
O24 Cd16 2.277 . S
O24 C19 1.209 . S
C25 O22 1.258 . S
C25 O27 1.282 . S
O26 Cd18 2.277 . S
O26 C19 1.226 . S
O27 Cd18 2.356 . S
O27 C25 1.282 . S
C28 O29 1.306 . S
C28 O31 1.160 . S
O29 C28 1.306 . S
O29 Cd30 2.228 . S
Cd30 O29 2.228 . S
Cd30 O34 2.273 . S
Cd30 O38 2.277 . S
O31 C28 1.160 . S
O31 Cd32 2.203 . S
Cd32 O31 2.203 . S
Cd32 O34 2.411 . S
Cd32 O35 2.333 . S
Cd32 O36 2.352 . S
Cd32 O40 2.277 . S
Cd32 O41 2.356 . S
C33 O38 1.209 . S
C33 O40 1.226 . S
O34 Cd30 2.273 . S
O34 Cd32 2.411 . S
O34 C37 1.320 . S
O35 Cd32 2.333 . S
O35 C37 1.214 . S
O36 Cd32 2.352 . S
O36 C39 1.258 . S
C37 O34 1.320 . S
C37 O35 1.214 . S
O38 Cd30 2.277 . S
O38 C33 1.209 . S
C39 O36 1.258 . S
C39 O41 1.282 . S
O40 Cd32 2.277 . S
O40 C33 1.226 . S
O41 Cd32 2.356 . S
O41 C39 1.282 . S
C42 O43 1.306 . S
C42 O45 1.160 . S
O43 C42 1.306 . S
O43 Cd44 2.228 . S
Cd44 O43 2.228 . S
Cd44 O48 2.273 . S
Cd44 O52 2.277 . S
O45 C42 1.160 . S
O45 Cd46 2.203 . S
Cd46 O45 2.203 . S
Cd46 O48 2.411 . S
Cd46 O49 2.333 . S
Cd46 O50 2.352 . S
Cd46 O54 2.277 . S
Cd46 O55 2.356 . S
C47 O52 1.209 . S
C47 O54 1.226 . S
O48 Cd44 2.273 . S
O48 Cd46 2.411 . S
O48 C51 1.320 . S
O49 Cd46 2.333 . S
O49 C51 1.214 . S
O50 Cd46 2.352 . S
O50 C53 1.258 . S
C51 O48 1.320 . S
C51 O49 1.214 . S
O52 Cd44 2.277 . S
O52 C47 1.209 . S
C53 O50 1.258 . S
C53 O55 1.282 . S
O54 Cd46 2.277 . S
O54 C47 1.226 . S
O55 Cd46 2.356 . S
O55 C53 1.282 . S
C56 O57 1.306 . S
C56 O59 1.160 . S
O57 C56 1.306 . S
O57 Cd58 2.228 . S
Cd58 O57 2.228 . S
Cd58 O62 2.273 . S
Cd58 O66 2.277 . S
O59 C56 1.160 . S
O59 Cd60 2.203 . S
Cd60 O59 2.203 . S
Cd60 O62 2.411 . S
Cd60 O63 2.333 . S
Cd60 O64 2.352 . S
Cd60 O68 2.277 . S
Cd60 O69 2.356 . S
C61 O66 1.209 . S
C61 O68 1.226 . S
O62 Cd58 2.273 . S
O62 Cd60 2.411 . S
O62 C65 1.320 . S
O63 Cd60 2.333 . S
O63 C65 1.214 . S
O64 Cd60 2.352 . S
O64 C67 1.258 . S
C65 O62 1.320 . S
C65 O63 1.214 . S
O66 Cd58 2.277 . S
O66 C61 1.209 . S
C67 O64 1.258 . S
C67 O69 1.282 . S
O68 Cd60 2.277 . S
O68 C61 1.226 . S
O69 Cd60 2.356 . S
O69 C67 1.282 . S
C70 O71 1.306 . S
C70 O73 1.160 . S
O71 C70 1.306 . S
O71 Cd72 2.228 . S
Cd72 O71 2.228 . S
Cd72 O76 2.273 . S
Cd72 O80 2.277 . S
O73 C70 1.160 . S
O73 Cd74 2.203 . S
Cd74 O73 2.203 . S
Cd74 O76 2.411 . S
Cd74 O77 2.333 . S
Cd74 O78 2.352 . S
Cd74 O82 2.277 . S
Cd74 O83 2.356 . S
C75 O80 1.209 . S
C75 O82 1.226 . S
O76 Cd72 2.273 . S
O76 Cd74 2.411 . S
O76 C79 1.320 . S
O77 Cd74 2.333 . S
O77 C79 1.214 . S
O78 Cd74 2.352 . S
O78 C81 1.258 . S
C79 O76 1.320 . S
C79 O77 1.214 . S
O80 Cd72 2.277 . S
O80 C75 1.209 . S
C81 O78 1.258 . S
C81 O83 1.282 . S
O82 Cd74 2.277 . S
O82 C75 1.226 . S
O83 Cd74 2.356 . S
O83 C81 1.282 . S
H84 C85 0.951 . S
C85 H84 0.951 . S
C85 C91 1.265 . S
H86 C91 0.950 . S
H87 C95 0.949 . S
H88 C96 0.950 . S
H89 C97 0.951 . S
H90 C98 0.951 . S
C91 C85 1.265 . S
C91 H86 0.950 . S
C91 C92 1.478 . S
C92 C91 1.478 . S
C92 C93 1.397 . S
C92 C109 1.394 . S
C93 C92 1.397 . S
C93 C94 1.438 . S
C93 C98 1.429 . S
C94 C93 1.438 . S
C94 C95 1.428 . S
C94 C107 1.394 . S
C95 H87 0.949 . S
C95 C94 1.428 . S
C95 C96 1.345 . S
C96 H88 0.950 . S
C96 C95 1.345 . S
C96 C97 1.424 . S
C97 H89 0.951 . S
C97 C96 1.424 . S
C97 C98 1.347 . S
C98 H90 0.951 . S
C98 C93 1.429 . S
C98 C97 1.347 . S
H99 C100 0.951 . S
C100 H99 0.951 . S
C100 C106 1.265 . S
H101 C106 0.950 . S
H102 C110 0.949 . S
H103 C111 0.950 . S
H104 C112 0.951 . S
H105 C113 0.951 . S
C106 C100 1.265 . S
C106 H101 0.950 . S
C106 C107 1.478 . S
C107 C94 1.394 . S
C107 C106 1.478 . S
C107 C108 1.397 . S
C108 C107 1.397 . S
C108 C109 1.438 . S
C108 C113 1.429 . S
C109 C92 1.394 . S
C109 C108 1.438 . S
C109 C110 1.428 . S
C110 H102 0.949 . S
C110 C109 1.428 . S
C110 C111 1.345 . S
C111 H103 0.950 . S
C111 C110 1.345 . S
C111 C112 1.424 . S
C112 H104 0.951 . S
C112 C111 1.424 . S
C112 C113 1.347 . S
C113 H105 0.951 . S
C113 C108 1.429 . S
C113 C112 1.347 . S
H114 C115 0.951 . S
C115 H114 0.951 . S
C115 C121 1.265 . S
H116 C121 0.950 . S
H117 C125 0.949 . S
H118 C126 0.950 . S
H119 C127 0.951 . S
H120 C128 0.951 . S
C121 C115 1.265 . S
C121 H116 0.950 . S
C121 C122 1.478 . S
C122 C121 1.478 . S
C122 C123 1.397 . S
C122 C139 1.394 . S
C123 C122 1.397 . S
C123 C124 1.438 . S
C123 C128 1.429 . S
C124 C123 1.438 . S
C124 C125 1.428 . S
C124 C137 1.394 . S
C125 H117 0.949 . S
C125 C124 1.428 . S
C125 C126 1.345 . S
C126 H118 0.950 . S
C126 C125 1.345 . S
C126 C127 1.424 . S
C127 H119 0.951 . S
C127 C126 1.424 . S
C127 C128 1.347 . S
C128 H120 0.951 . S
C128 C123 1.429 . S
C128 C127 1.347 . S
H129 C130 0.951 . S
C130 H129 0.951 . S
C130 C136 1.265 . S
H131 C136 0.950 . S
H132 C140 0.949 . S
H133 C141 0.950 . S
H134 C142 0.951 . S
H135 C143 0.951 . S
C136 C130 1.265 . S
C136 H131 0.950 . S
C136 C137 1.478 . S
C137 C124 1.394 . S
C137 C136 1.478 . S
C137 C138 1.397 . S
C138 C137 1.397 . S
C138 C139 1.438 . S
C138 C143 1.429 . S
C139 C122 1.394 . S
C139 C138 1.438 . S
C139 C140 1.428 . S
C140 H132 0.949 . S
C140 C139 1.428 . S
C140 C141 1.345 . S
C141 H133 0.950 . S
C141 C140 1.345 . S
C141 C142 1.424 . S
C142 H134 0.951 . S
C142 C141 1.424 . S
C142 C143 1.347 . S
C143 H135 0.951 . S
C143 C138 1.429 . S
C143 C142 1.347 . S
H144 C145 0.951 . S
C145 H144 0.951 . S
C145 C151 1.265 . S
H146 C151 0.950 . S
H147 C155 0.949 . S
H148 C156 0.950 . S
H149 C157 0.951 . S
H150 C158 0.951 . S
C151 C145 1.265 . S
C151 H146 0.950 . S
C151 C152 1.478 . S
C152 C151 1.478 . S
C152 C153 1.397 . S
C152 C169 1.394 . S
C153 C152 1.397 . S
C153 C154 1.438 . S
C153 C158 1.429 . S
C154 C153 1.438 . S
C154 C155 1.428 . S
C154 C167 1.394 . S
C155 H147 0.949 . S
C155 C154 1.428 . S
C155 C156 1.345 . S
C156 H148 0.950 . S
C156 C155 1.345 . S
C156 C157 1.424 . S
C157 H149 0.951 . S
C157 C156 1.424 . S
C157 C158 1.347 . S
C158 H150 0.951 . S
C158 C153 1.429 . S
C158 C157 1.347 . S
H159 C160 0.951 . S
C160 H159 0.951 . S
C160 C166 1.265 . S
H161 C166 0.950 . S
H162 C170 0.949 . S
H163 C171 0.950 . S
H164 C172 0.951 . S
H165 C173 0.951 . S
C166 C160 1.265 . S
C166 H161 0.950 . S
C166 C167 1.478 . S
C167 C154 1.394 . S
C167 C166 1.478 . S
C167 C168 1.397 . S
C168 C167 1.397 . S
C168 C169 1.438 . S
C168 C173 1.429 . S
C169 C152 1.394 . S
C169 C168 1.438 . S
C169 C170 1.428 . S
C170 H162 0.949 . S
C170 C169 1.428 . S
C170 C171 1.345 . S
C171 H163 0.950 . S
C171 C170 1.345 . S
C171 C172 1.424 . S
C172 H164 0.951 . S
C172 C171 1.424 . S
C172 C173 1.347 . S
C173 H165 0.951 . S
C173 C168 1.429 . S
C173 C172 1.347 . S
H174 C175 0.951 . S
C175 H174 0.951 . S
C175 C181 1.265 . S
H176 C181 0.950 . S
H177 C185 0.949 . S
H178 C186 0.950 . S
H179 C187 0.951 . S
H180 C188 0.951 . S
C181 C175 1.265 . S
C181 H176 0.950 . S
C181 C182 1.478 . S
C182 C181 1.478 . S
C182 C183 1.397 . S
C182 C199 1.394 . S
C183 C182 1.397 . S
C183 C184 1.438 . S
C183 C188 1.429 . S
C184 C183 1.438 . S
C184 C185 1.428 . S
C184 C197 1.394 . S
C185 H177 0.949 . S
C185 C184 1.428 . S
C185 C186 1.345 . S
C186 H178 0.950 . S
C186 C185 1.345 . S
C186 C187 1.424 . S
C187 H179 0.951 . S
C187 C186 1.424 . S
C187 C188 1.347 . S
C188 H180 0.951 . S
C188 C183 1.429 . S
C188 C187 1.347 . S
H189 C190 0.951 . S
C190 H189 0.951 . S
C190 C196 1.265 . S
H191 C196 0.950 . S
H192 C200 0.949 . S
H193 C201 0.950 . S
H194 C202 0.951 . S
H195 C203 0.951 . S
C196 C190 1.265 . S
C196 H191 0.950 . S
C196 C197 1.478 . S
C197 C184 1.394 . S
C197 C196 1.478 . S
C197 C198 1.397 . S
C198 C197 1.397 . S
C198 C199 1.438 . S
C198 C203 1.429 . S
C199 C182 1.394 . S
C199 C198 1.438 . S
C199 C200 1.428 . S
C200 H192 0.949 . S
C200 C199 1.428 . S
C200 C201 1.345 . S
C201 H193 0.950 . S
C201 C200 1.345 . S
C201 C202 1.424 . S
C202 H194 0.951 . S
C202 C201 1.424 . S
C202 C203 1.347 . S
C203 H195 0.951 . S
C203 C198 1.429 . S
C203 C202 1.347 . S
H204 C205 0.951 . S
C205 H204 0.951 . S
C205 C211 1.265 . S
H206 C211 0.950 . S
H207 C215 0.949 . S
H208 C216 0.950 . S
H209 C217 0.951 . S
H210 C218 0.951 . S
C211 C205 1.265 . S
C211 H206 0.950 . S
C211 C212 1.478 . S
C212 C211 1.478 . S
C212 C213 1.397 . S
C212 C229 1.394 . S
C213 C212 1.397 . S
C213 C214 1.438 . S
C213 C218 1.429 . S
C214 C213 1.438 . S
C214 C215 1.428 . S
C214 C227 1.394 . S
C215 H207 0.949 . S
C215 C214 1.428 . S
C215 C216 1.345 . S
C216 H208 0.950 . S
C216 C215 1.345 . S
C216 C217 1.424 . S
C217 H209 0.951 . S
C217 C216 1.424 . S
C217 C218 1.347 . S
C218 H210 0.951 . S
C218 C213 1.429 . S
C218 C217 1.347 . S
H219 C220 0.951 . S
C220 H219 0.951 . S
C220 C226 1.265 . S
H221 C226 0.950 . S
H222 C230 0.949 . S
H223 C231 0.950 . S
H224 C232 0.951 . S
H225 C233 0.951 . S
C226 C220 1.265 . S
C226 H221 0.950 . S
C226 C227 1.478 . S
C227 C214 1.394 . S
C227 C226 1.478 . S
C227 C228 1.397 . S
C228 C227 1.397 . S
C228 C229 1.438 . S
C228 C233 1.429 . S
C229 C212 1.394 . S
C229 C228 1.438 . S
C229 C230 1.428 . S
C230 H222 0.949 . S
C230 C229 1.428 . S
C230 C231 1.345 . S
C231 H223 0.950 . S
C231 C230 1.345 . S
C231 C232 1.424 . S
C232 H224 0.951 . S
C232 C231 1.424 . S
C232 C233 1.347 . S
C233 H225 0.951 . S
C233 C228 1.429 . S
C233 C232 1.347 . S
H234 C235 0.951 . S
C235 H234 0.951 . S
C235 C241 1.265 . S
H236 C241 0.950 . S
H237 C245 0.949 . S
H238 C246 0.950 . S
H239 C247 0.951 . S
H240 C248 0.951 . S
C241 C235 1.265 . S
C241 H236 0.950 . S
C241 C242 1.478 . S
C242 C241 1.478 . S
C242 C243 1.397 . S
C242 C259 1.394 . S
C243 C242 1.397 . S
C243 C244 1.438 . S
C243 C248 1.429 . S
C244 C243 1.438 . S
C244 C245 1.428 . S
C244 C257 1.394 . S
C245 H237 0.949 . S
C245 C244 1.428 . S
C245 C246 1.345 . S
C246 H238 0.950 . S
C246 C245 1.345 . S
C246 C247 1.424 . S
C247 H239 0.951 . S
C247 C246 1.424 . S
C247 C248 1.347 . S
C248 H240 0.951 . S
C248 C243 1.429 . S
C248 C247 1.347 . S
H249 C250 0.951 . S
C250 H249 0.951 . S
C250 C256 1.265 . S
H251 C256 0.950 . S
H252 C260 0.949 . S
H253 C261 0.950 . S
H254 C262 0.951 . S
H255 C263 0.951 . S
C256 C250 1.265 . S
C256 H251 0.950 . S
C256 C257 1.478 . S
C257 C244 1.394 . S
C257 C256 1.478 . S
C257 C258 1.397 . S
C258 C257 1.397 . S
C258 C259 1.438 . S
C258 C263 1.429 . S
C259 C242 1.394 . S
C259 C258 1.438 . S
C259 C260 1.428 . S
C260 H252 0.949 . S
C260 C259 1.428 . S
C260 C261 1.345 . S
C261 H253 0.950 . S
C261 C260 1.345 . S
C261 C262 1.424 . S
C262 H254 0.951 . S
C262 C261 1.424 . S
C262 C263 1.347 . S
C263 H255 0.951 . S
C263 C258 1.429 . S
C263 C262 1.347 . S
H264 C265 0.951 . S
C265 H264 0.951 . S
C265 C271 1.265 . S
H266 C271 0.950 . S
H267 C275 0.949 . S
H268 C276 0.950 . S
H269 C277 0.951 . S
H270 C278 0.951 1_556 S
C271 C265 1.265 . S
C271 H266 0.950 . S
C271 C272 1.478 . S
C272 C271 1.478 . S
C272 C273 1.397 1_556 S
C272 C289 1.394 1_565 S
C273 C272 1.397 1_554 S
C273 C274 1.438 . S
C273 C278 1.429 . S
C274 C273 1.438 . S
C274 C275 1.428 . S
C274 C287 1.394 1_565 S
C275 H267 0.949 . S
C275 C274 1.428 . S
C275 C276 1.345 . S
C276 H268 0.950 . S
C276 C275 1.345 . S
C276 C277 1.424 . S
C277 H269 0.951 . S
C277 C276 1.424 . S
C277 C278 1.347 . S
C278 H270 0.951 1_554 S
C278 C273 1.429 . S
C278 C277 1.347 . S
H279 C280 0.951 . S
C280 H279 0.951 . S
C280 C286 1.265 . S
H281 C286 0.950 . S
H282 C290 0.949 . S
H283 C291 0.950 . S
H284 C292 0.951 . S
H285 C293 0.951 1_554 S
C286 C280 1.265 . S
C286 H281 0.950 . S
C286 C287 1.478 . S
C287 C274 1.394 1_545 S
C287 C286 1.478 . S
C287 C288 1.397 1_554 S
C288 C287 1.397 1_556 S
C288 C289 1.438 . S
C288 C293 1.429 . S
C289 C272 1.394 1_545 S
C289 C288 1.438 . S
C289 C290 1.428 . S
C290 H282 0.949 . S
C290 C289 1.428 . S
C290 C291 1.345 . S
C291 H283 0.950 . S
C291 C290 1.345 . S
C291 C292 1.424 . S
C292 H284 0.951 . S
C292 C291 1.424 . S
C292 C293 1.347 . S
C293 H285 0.951 1_556 S
C293 C288 1.429 . S
C293 C292 1.347 . S
H294 C295 0.951 . S
C295 H294 0.951 . S
C295 C301 1.265 . S
H296 C301 0.950 . S
H297 C305 0.949 . S
H298 C306 0.950 . S
H299 C307 0.951 . S
H300 C308 0.951 . S
C301 C295 1.265 . S
C301 H296 0.950 . S
C301 C302 1.478 . S
C302 C301 1.478 . S
C302 C303 1.397 . S
C302 C319 1.394 . S
C303 C302 1.397 . S
C303 C304 1.438 . S
C303 C308 1.429 . S
C304 C303 1.438 . S
C304 C305 1.428 . S
C304 C317 1.394 . S
C305 H297 0.949 . S
C305 C304 1.428 . S
C305 C306 1.345 . S
C306 H298 0.950 . S
C306 C305 1.345 . S
C306 C307 1.424 . S
C307 H299 0.951 . S
C307 C306 1.424 . S
C307 C308 1.347 . S
C308 H300 0.951 . S
C308 C303 1.429 . S
C308 C307 1.347 . S
H309 C310 0.951 . S
C310 H309 0.951 . S
C310 C316 1.265 . S
H311 C316 0.950 . S
H312 C320 0.949 . S
H313 C321 0.950 . S
H314 C322 0.951 . S
H315 C323 0.951 . S
C316 C310 1.265 . S
C316 H311 0.950 . S
C316 C317 1.478 . S
C317 C304 1.394 . S
C317 C316 1.478 . S
C317 C318 1.397 . S
C318 C317 1.397 . S
C318 C319 1.438 . S
C318 C323 1.429 . S
C319 C302 1.394 . S
C319 C318 1.438 . S
C319 C320 1.428 . S
C320 H312 0.949 . S
C320 C319 1.428 . S
C320 C321 1.345 . S
C321 H313 0.950 . S
C321 C320 1.345 . S
C321 C322 1.424 . S
C322 H314 0.951 . S
C322 C321 1.424 . S
C322 C323 1.347 . S
C323 H315 0.951 . S
C323 C318 1.429 . S
C323 C322 1.347 . S
H324 C325 0.951 . S
C325 H324 0.951 . S
C325 C331 1.265 . S
H326 C331 0.950 . S
H327 C335 0.949 1_554 S
H328 C336 0.950 . S
H329 C337 0.951 . S
H330 C338 0.951 . S
C331 C325 1.265 . S
C331 H326 0.950 . S
C331 C332 1.478 . S
C332 C331 1.478 . S
C332 C333 1.397 1_455 S
C332 C349 1.394 . S
C333 C332 1.397 1_655 S
C333 C334 1.438 . S
C333 C338 1.429 . S
C334 C333 1.438 . S
C334 C335 1.428 . S
C334 C347 1.394 1_556 S
C335 H327 0.949 1_556 S
C335 C334 1.428 . S
C335 C336 1.345 . S
C336 H328 0.950 . S
C336 C335 1.345 . S
C336 C337 1.424 . S
C337 H329 0.951 . S
C337 C336 1.424 . S
C337 C338 1.347 . S
C338 H330 0.951 . S
C338 C333 1.429 . S
C338 C337 1.347 . S
H339 C340 0.951 . S
C340 H339 0.951 . S
C340 C346 1.265 . S
H341 C346 0.950 . S
H342 C350 0.949 . S
H343 C351 0.950 . S
H344 C352 0.951 . S
H345 C353 0.951 . S
C346 C340 1.265 . S
C346 H341 0.950 . S
C346 C347 1.478 . S
C347 C334 1.394 1_554 S
C347 C346 1.478 . S
C347 C348 1.397 1_655 S
C348 C347 1.397 1_455 S
C348 C349 1.438 1_554 S
C348 C353 1.429 . S
C349 C332 1.394 . S
C349 C348 1.438 1_556 S
C349 C350 1.428 . S
C350 H342 0.949 . S
C350 C349 1.428 . S
C350 C351 1.345 1_556 S
C351 H343 0.950 . S
C351 C350 1.345 1_554 S
C351 C352 1.424 . S
C352 H344 0.951 . S
C352 C351 1.424 . S
C352 C353 1.347 . S
C353 H345 0.951 . S
C353 C348 1.429 . S
C353 C352 1.347 . S
H354 C355 0.951 . S
C355 H354 0.951 . S
C355 C361 1.265 . S
H356 C361 0.950 . S
H357 C365 0.949 . S
H358 C366 0.950 . S
H359 C367 0.951 . S
H360 C368 0.951 . S
C361 C355 1.265 . S
C361 H356 0.950 . S
C361 C362 1.478 . S
C362 C361 1.478 . S
C362 C363 1.397 . S
C362 C379 1.394 1_545 S
C363 C362 1.397 . S
C363 C364 1.438 . S
C363 C368 1.429 . S
C364 C363 1.438 . S
C364 C365 1.428 . S
C364 C377 1.394 1_545 S
C365 H357 0.949 . S
C365 C364 1.428 . S
C365 C366 1.345 . S
C366 H358 0.950 . S
C366 C365 1.345 . S
C366 C367 1.424 . S
C367 H359 0.951 . S
C367 C366 1.424 . S
C367 C368 1.347 . S
C368 H360 0.951 . S
C368 C363 1.429 . S
C368 C367 1.347 . S
H369 C370 0.951 . S
C370 H369 0.951 . S
C370 C376 1.265 . S
H371 C376 0.950 . S
H372 C380 0.949 . S
H373 C381 0.950 . S
H374 C382 0.951 . S
H375 C383 0.951 . S
C376 C370 1.265 . S
C376 H371 0.950 . S
C376 C377 1.478 . S
C377 C364 1.394 1_565 S
C377 C376 1.478 . S
C377 C378 1.397 . S
C378 C377 1.397 . S
C378 C379 1.438 . S
C378 C383 1.429 . S
C379 C362 1.394 1_565 S
C379 C378 1.438 . S
C379 C380 1.428 . S
C380 H372 0.949 . S
C380 C379 1.428 . S
C380 C381 1.345 . S
C381 H373 0.950 . S
C381 C380 1.345 . S
C381 C382 1.424 . S
C382 H374 0.951 . S
C382 C381 1.424 . S
C382 C383 1.347 . S
C383 H375 0.951 . S
C383 C378 1.429 . S
C383 C382 1.347 . S
H384 C385 0.951 . S
C385 H384 0.951 . S
C385 C391 1.265 . S
H386 C391 0.950 . S
H387 C395 0.949 . S
H388 C396 0.950 1_554 S
H389 C397 0.951 . S
H390 C398 0.951 . S
C391 C385 1.265 . S
C391 H386 0.950 . S
C391 C392 1.478 . S
C392 C391 1.478 . S
C392 C393 1.397 . S
C392 C409 1.394 1_556 S
C393 C392 1.397 . S
C393 C394 1.438 1_556 S
C393 C398 1.429 . S
C394 C393 1.438 1_554 S
C394 C395 1.428 . S
C394 C407 1.394 . S
C395 H387 0.949 . S
C395 C394 1.428 . S
C395 C396 1.345 1_554 S
C396 H388 0.950 1_556 S
C396 C395 1.345 1_556 S
C396 C397 1.424 . S
C397 H389 0.951 . S
C397 C396 1.424 . S
C397 C398 1.347 . S
C398 H390 0.951 . S
C398 C393 1.429 . S
C398 C397 1.347 . S
H399 C400 0.951 . S
C400 H399 0.951 . S
C400 C406 1.265 . S
H401 C406 0.950 . S
H402 C410 0.949 1_556 S
H403 C411 0.950 . S
H404 C412 0.951 . S
H405 C413 0.951 . S
C406 C400 1.265 . S
C406 H401 0.950 . S
C406 C407 1.478 . S
C407 C394 1.394 . S
C407 C406 1.478 . S
C407 C408 1.397 . S
C408 C407 1.397 . S
C408 C409 1.438 . S
C408 C413 1.429 . S
C409 C392 1.394 1_554 S
C409 C408 1.438 . S
C409 C410 1.428 . S
C410 H402 0.949 1_554 S
C410 C409 1.428 . S
C410 C411 1.345 . S
C411 H403 0.950 . S
C411 C410 1.345 . S
C411 C412 1.424 . S
C412 H404 0.951 . S
C412 C411 1.424 . S
C412 C413 1.347 . S
C413 H405 0.951 . S
C413 C408 1.429 . S
C413 C412 1.347 . S
H414 C415 0.951 . S
C415 H414 0.951 . S
C415 C421 1.265 . S
H416 C421 0.950 . S
H417 C425 0.949 . S
H418 C426 0.950 . S
H419 C427 0.951 . S
H420 C428 0.949 . S
C421 C415 1.265 . S
C421 H416 0.950 . S
C421 C422 1.478 . S
C422 C421 1.478 . S
C422 C423 1.397 1_455 S
C422 C439 1.394 . S
C423 C422 1.397 1_655 S
C423 C424 1.438 . S
C423 C428 1.430 1_655 S
C424 C423 1.438 . S
C424 C425 1.428 . S
C424 C437 1.394 . S
C425 H417 0.949 . S
C425 C424 1.428 . S
C425 C426 1.345 . S
C426 H418 0.950 . S
C426 C425 1.345 . S
C426 C427 1.424 . S
C427 H419 0.951 . S
C427 C426 1.424 . S
C427 C428 1.347 1_655 S
C428 H420 0.949 . S
C428 C423 1.430 1_455 S
C428 C427 1.347 1_455 S
H429 C430 0.951 . S
C430 H429 0.951 . S
C430 C436 1.265 . S
H431 C436 0.950 . S
H432 C440 0.949 . S
H433 C441 0.950 . S
H434 C442 0.951 . S
H435 C443 0.951 . S
C436 C430 1.265 . S
C436 H431 0.950 . S
C436 C437 1.478 . S
C437 C424 1.394 . S
C437 C436 1.478 . S
C437 C438 1.397 . S
C438 C437 1.397 . S
C438 C439 1.438 1_655 S
C438 C443 1.429 . S
C439 C422 1.394 . S
C439 C438 1.438 1_455 S
C439 C440 1.428 . S
C440 H432 0.949 . S
C440 C439 1.428 . S
C440 C441 1.345 . S
C441 H433 0.950 . S
C441 C440 1.345 . S
C441 C442 1.424 . S
C442 H434 0.951 . S
C442 C441 1.424 . S
C442 C443 1.347 1_455 S
C443 H435 0.951 . S
C443 C438 1.429 . S
C443 C442 1.347 1_655 S
C85 C0 0.963 . S
C100 C61 1.072 . S
C115 C14 1.097 . S
C130 C70 1.070 . S
C145 C5 0.981 . S
C160 C33 1.067 . S
C175 C47 0.977 . S
C190 C19 1.059 . S
C205 C56 0.954 . S
C220 C28 0.989 . S
C235 C42 0.959 . S
C250 C75 1.069 . S
C265 C51 1.366 . S
C280 C9 1.359 . S
C295 C67 1.359 . S
C310 C23 1.405 . S
C325 C79 1.391 . S
C340 C39 1.383 . S
C355 C11 1.402 . S
C370 C53 1.376 . S
C385 C25 1.358 . S
C400 C65 1.389 . S
C415 C81 1.376 . S
C430 C37 1.401 . S
