# Generated by pormake.
# Topology gis, (4)-cn, num edge types: 1
# Building blocks:
#     Node 0, Type 0, BuildingBlock: ICAMEG_clean_sbu_1, # of connection points: 4
#     Node 1, Type 0, BuildingBlock: ICAMEG_clean_sbu_1, # of connection points: 4
#     Node 2, Type 0, BuildingBlock: ICAMEG_clean_sbu_1, # of connection points: 4
#     Node 3, Type 0, BuildingBlock: ICAMEG_clean_sbu_1, # of connection points: 4
#     Node 4, Type 0, BuildingBlock: ICAMEG_clean_sbu_1, # of connection points: 4
#     Node 5, Type 0, BuildingBlock: ICAMEG_clean_sbu_1, # of connection points: 4
#     Node 6, Type 0, BuildingBlock: ICAMEG_clean_sbu_1, # of connection points: 4
#     Node 7, Type 0, BuildingBlock: ICAMEG_clean_sbu_1, # of connection points: 4
#     Node 8, Type 0, BuildingBlock: ICAMEG_clean_sbu_1, # of connection points: 4
#     Node 9, Type 0, BuildingBlock: ICAMEG_clean_sbu_1, # of connection points: 4
#     Node 10, Type 0, BuildingBlock: ICAMEG_clean_sbu_1, # of connection points: 4
#     Node 11, Type 0, BuildingBlock: ICAMEG_clean_sbu_1, # of connection points: 4
#     Node 12, Type 0, BuildingBlock: ICAMEG_clean_sbu_1, # of connection points: 4
#     Node 13, Type 0, BuildingBlock: ICAMEG_clean_sbu_1, # of connection points: 4
#     Node 14, Type 0, BuildingBlock: ICAMEG_clean_sbu_1, # of connection points: 4
#     Node 15, Type 0, BuildingBlock: ICAMEG_clean_sbu_1, # of connection points: 4
#     Edge 16, Type (0, 0), BuildingBlock: XUDNAN_clean_linker_2, # of connection points: 2
#     Edge 17, Type (0, 0), BuildingBlock: XUDNAN_clean_linker_2, # of connection points: 2
#     Edge 18, Type (0, 0), BuildingBlock: XUDNAN_clean_linker_2, # of connection points: 2
#     Edge 19, Type (0, 0), BuildingBlock: XUDNAN_clean_linker_2, # of connection points: 2
#     Edge 20, Type (0, 0), BuildingBlock: XUDNAN_clean_linker_2, # of connection points: 2
#     Edge 21, Type (0, 0), BuildingBlock: XUDNAN_clean_linker_2, # of connection points: 2
#     Edge 22, Type (0, 0), BuildingBlock: XUDNAN_clean_linker_2, # of connection points: 2
#     Edge 23, Type (0, 0), BuildingBlock: XUDNAN_clean_linker_2, # of connection points: 2
#     Edge 24, Type (0, 0), BuildingBlock: XUDNAN_clean_linker_2, # of connection points: 2
#     Edge 25, Type (0, 0), BuildingBlock: XUDNAN_clean_linker_2, # of connection points: 2
#     Edge 26, Type (0, 0), BuildingBlock: XUDNAN_clean_linker_2, # of connection points: 2
#     Edge 27, Type (0, 0), BuildingBlock: XUDNAN_clean_linker_2, # of connection points: 2
#     Edge 28, Type (0, 0), BuildingBlock: XUDNAN_clean_linker_2, # of connection points: 2
#     Edge 29, Type (0, 0), BuildingBlock: XUDNAN_clean_linker_2, # of connection points: 2
#     Edge 30, Type (0, 0), BuildingBlock: XUDNAN_clean_linker_2, # of connection points: 2
#     Edge 31, Type (0, 0), BuildingBlock: XUDNAN_clean_linker_2, # of connection points: 2
#     Edge 32, Type (0, 0), BuildingBlock: XUDNAN_clean_linker_2, # of connection points: 2
#     Edge 33, Type (0, 0), BuildingBlock: XUDNAN_clean_linker_2, # of connection points: 2
#     Edge 34, Type (0, 0), BuildingBlock: XUDNAN_clean_linker_2, # of connection points: 2
#     Edge 35, Type (0, 0), BuildingBlock: XUDNAN_clean_linker_2, # of connection points: 2
#     Edge 36, Type (0, 0), BuildingBlock: XUDNAN_clean_linker_2, # of connection points: 2
#     Edge 37, Type (0, 0), BuildingBlock: XUDNAN_clean_linker_2, # of connection points: 2
#     Edge 38, Type (0, 0), BuildingBlock: XUDNAN_clean_linker_2, # of connection points: 2
#     Edge 39, Type (0, 0), BuildingBlock: XUDNAN_clean_linker_2, # of connection points: 2
#     Edge 40, Type (0, 0), BuildingBlock: XUDNAN_clean_linker_2, # of connection points: 2
#     Edge 41, Type (0, 0), BuildingBlock: XUDNAN_clean_linker_2, # of connection points: 2
#     Edge 42, Type (0, 0), BuildingBlock: XUDNAN_clean_linker_2, # of connection points: 2
#     Edge 43, Type (0, 0), BuildingBlock: XUDNAN_clean_linker_2, # of connection points: 2
#     Edge 44, Type (0, 0), BuildingBlock: XUDNAN_clean_linker_2, # of connection points: 2
#     Edge 45, Type (0, 0), BuildingBlock: XUDNAN_clean_linker_2, # of connection points: 2
#     Edge 46, Type (0, 0), BuildingBlock: XUDNAN_clean_linker_2, # of connection points: 2
#     Edge 47, Type (0, 0), BuildingBlock: XUDNAN_clean_linker_2, # of connection points: 2
# Relax obj value: 0.027
# Max RMSD: 0.089
# Mean RMSD: 0.088
data_MOF--net-gis--node1-ICAMEG_clean_sbu_1--edge1-XUDNAN_clean_linker_2
_symmetry_space_group_name_H-M    P1
_symmetry_Int_Tables_number       1
_symmetry_cell_setting            triclinic
loop_
_symmetry_equiv_pos_as_xyz
'x, y, z'
_cell_length_a     57.732945
_cell_length_b     57.851107
_cell_length_c     35.726626
_cell_angle_alpha  90.09944
_cell_angle_beta   90.0271
_cell_angle_gamma 89.985241
loop_
_atom_site_label
_atom_site_type_symbol
_atom_site_fract_x
_atom_site_fract_y
_atom_site_fract_z
_atom_type_partial_charge
Co0 Co 0.13035 0.63103 0.07394 0.0
Co1 Co 0.13287 0.61982 0.16831 0.0
O2 O 0.14239 0.61343 0.11676 0.0
C3 C 0.1225 0.58197 0.05278 0.0
O4 O 0.11505 0.57844 0.08698 0.0
C5 C 0.18412 0.62029 0.17919 0.0
O6 O 0.18644 0.63451 0.15083 0.0
O7 O 0.14194 0.65283 0.16279 0.0
O8 O 0.13126 0.66058 0.10364 0.0
H9 H 0.09474 0.66639 0.26996 0.0
H10 H 0.17167 0.60116 0.06482 0.0
O11 O 0.12928 0.60201 0.04288 0.0
H12 H 0.19778 0.6797 0.03191 0.0
H13 H 0.12493 0.6521 0.93751 0.0
H14 H 0.09561 0.66832 0.0645 0.0
H15 H 0.15722 0.67255 0.05009 0.0
H16 H 0.13981 0.63041 0.99184 0.0
O17 O 0.16436 0.61206 0.18746 0.0
H18 H 0.1064 0.65747 0.20515 0.0
H19 H 0.13962 0.59599 0.24162 0.0
H20 H 0.08045 0.6906 0.01103 0.0
H21 H 0.21238 0.60749 0.04648 0.0
H22 H 0.09512 0.68252 0.94697 0.0
H23 H 0.22567 0.64701 0.02995 0.0
O24 O 0.09755 0.62562 0.0898 0.0
H25 H 0.14461 0.53412 0.15578 0.0
H26 H 0.09038 0.59537 0.19523 0.0
H27 H 0.07844 0.55455 0.19956 0.0
H28 H 0.10566 0.52359 0.17979 0.0
H29 H 0.15576 0.5752 0.15151 0.0
H30 H 0.12848 0.60434 0.30687 0.0
H31 H 0.1058 0.63973 0.32138 0.0
O32 O 0.10106 0.6277 0.15205 0.0
C33 C 0.13773 0.667 0.13628 0.0
C34 C 0.10459 0.6509 0.264 0.0
C35 C 0.12355 0.61609 0.28472 0.0
N36 N 0.12362 0.62619 0.21955 0.0
C37 C 0.11122 0.64573 0.22733 0.0
C38 C 0.12986 0.61149 0.24771 0.0
C39 C 0.11082 0.63594 0.29283 0.0
C40 C 0.1773 0.61837 0.05739 0.0
N41 N 0.16207 0.63644 0.05838 0.0
C42 C 0.20038 0.62186 0.04715 0.0
C43 C 0.20783 0.64405 0.03792 0.0
C44 C 0.1922 0.66239 0.03903 0.0
C45 C 0.16926 0.65825 0.04944 0.0
C46 C 0.11842 0.65579 0.96529 0.0
C47 C 0.10217 0.66479 0.03674 0.0
C48 C 0.12673 0.64352 0.99614 0.0
N49 N 0.11868 0.64819 0.03132 0.0
C50 C 0.09348 0.67742 0.00656 0.0
C51 C 0.1017 0.67287 0.97062 0.0
C52 C 0.08886 0.62748 0.12245 0.0
C53 C 0.13263 0.54745 0.1646 0.0
C54 C 0.1023 0.58202 0.18641 0.0
C55 C 0.09546 0.55892 0.18905 0.0
C56 C 0.11075 0.54156 0.178 0.0
N57 N 0.12378 0.58767 0.1732 0.0
C58 C 0.13889 0.57073 0.16243 0.0
Co59 Co 0.63436 0.87117 0.42993 0.0
Co60 Co 0.63078 0.8816 0.33459 0.0
O61 O 0.643 0.88799 0.38474 0.0
C62 C 0.62408 0.9204 0.44748 0.0
O63 O 0.61617 0.92269 0.41323 0.0
C64 C 0.68119 0.874 0.32979 0.0
O65 O 0.6786 0.86284 0.36142 0.0
O66 O 0.63445 0.84764 0.34113 0.0
O67 O 0.63627 0.84096 0.40294 0.0
H68 H 0.58024 0.84194 0.23969 0.0
H69 H 0.67336 0.90441 0.43302 0.0
O70 O 0.6321 0.90103 0.4585 0.0
H71 H 0.70698 0.82914 0.46818 0.0
H72 H 0.63596 0.85453 0.5682 0.0
H73 H 0.60273 0.83212 0.44625 0.0
H74 H 0.66536 0.83256 0.45361 0.0
H75 H 0.64707 0.87523 0.51063 0.0
O76 O 0.66354 0.883 0.31382 0.0
H77 H 0.59542 0.84993 0.30298 0.0
H78 H 0.64141 0.90027 0.25892 0.0
H79 H 0.59134 0.81078 0.50303 0.0
H80 H 0.71502 0.90182 0.44782 0.0
H81 H 0.60799 0.82197 0.56458 0.0
H82 H 0.7321 0.86395 0.4654 0.0
O83 O 0.60111 0.87367 0.41687 0.0
H84 H 0.65669 0.96444 0.34021 0.0
H85 H 0.59234 0.91192 0.30828 0.0
H86 H 0.58703 0.95402 0.30157 0.0
H87 H 0.61936 0.98059 0.31761 0.0
H88 H 0.66119 0.92222 0.34675 0.0
H89 H 0.62691 0.89267 0.19508 0.0
H90 H 0.59603 0.86339 0.1852 0.0
O91 O 0.598 0.8797 0.35484 0.0
C92 C 0.63614 0.83405 0.36904 0.0
C93 C 0.59364 0.85479 0.24365 0.0
C94 C 0.61986 0.88325 0.2186 0.0
N95 N 0.61912 0.87568 0.28462 0.0
C96 C 0.60224 0.85944 0.27943 0.0
C97 C 0.62803 0.88744 0.25479 0.0
C98 C 0.60253 0.86682 0.21308 0.0
C99 C 0.68062 0.88793 0.44109 0.0
N100 N 0.66692 0.8687 0.4427 0.0
C101 C 0.70423 0.88655 0.44929 0.0
C102 C 0.71381 0.86529 0.45908 0.0
C103 C 0.69974 0.84574 0.46061 0.0
C104 C 0.67619 0.84778 0.45225 0.0
C105 C 0.62862 0.84946 0.54154 0.0
C106 C 0.61017 0.83698 0.47289 0.0
C107 C 0.6348 0.86115 0.50887 0.0
N108 N 0.6257 0.85475 0.47508 0.0
C109 C 0.6036 0.82489 0.50496 0.0
C110 C 0.61293 0.83119 0.53949 0.0
C111 C 0.58906 0.87651 0.38727 0.0
C112 C 0.6425 0.95303 0.33302 0.0
C113 C 0.60648 0.92337 0.31533 0.0
C114 C 0.60339 0.94719 0.31142 0.0
C115 C 0.62154 0.96209 0.3204 0.0
N116 N 0.62709 0.91464 0.32773 0.0
C117 C 0.64498 0.92912 0.33651 0.0
Co118 Co 0.37695 0.37705 0.67117 0.0
Co119 Co 0.37281 0.38583 0.57551 0.0
O120 O 0.36428 0.39269 0.62711 0.0
C121 C 0.32678 0.36805 0.67195 0.0
O122 O 0.32985 0.36238 0.63675 0.0
C123 C 0.38381 0.43529 0.58428 0.0
O124 O 0.39239 0.42998 0.61719 0.0
O125 O 0.40608 0.38631 0.58877 0.0
O126 O 0.40958 0.37982 0.65068 0.0
H127 H 0.41673 0.3445 0.47413 0.0
H128 H 0.34593 0.41756 0.68069 0.0
O129 O 0.34426 0.37409 0.69168 0.0
H130 H 0.41974 0.43978 0.74021 0.0
H131 H 0.38124 0.36018 0.80911 0.0
H132 H 0.41299 0.34149 0.68455 0.0
H133 H 0.41505 0.4012 0.71168 0.0
H134 H 0.36639 0.37974 0.75263 0.0
O135 O 0.37448 0.41971 0.56404 0.0
H136 H 0.40513 0.35288 0.53921 0.0
H137 H 0.35925 0.4053 0.50145 0.0
H138 H 0.42847 0.32164 0.74028 0.0
H139 H 0.34981 0.45624 0.70915 0.0
H140 H 0.41256 0.33096 0.80311 0.0
H141 H 0.38696 0.46759 0.73908 0.0
O142 O 0.37392 0.34595 0.64747 0.0
H143 H 0.29141 0.41644 0.57657 0.0
H144 H 0.34227 0.35333 0.53332 0.0
H145 H 0.30051 0.35193 0.51884 0.0
H146 H 0.27478 0.38365 0.54053 0.0
H147 H 0.33326 0.41706 0.59064 0.0
H148 H 0.37051 0.39764 0.43599 0.0
H149 H 0.39938 0.36698 0.42199 0.0
O150 O 0.37176 0.35198 0.5855 0.0
C151 C 0.41829 0.3836 0.61823 0.0
C152 C 0.40406 0.35783 0.47986 0.0
C153 C 0.37814 0.38768 0.45845 0.0
N154 N 0.38136 0.37938 0.52406 0.0
C155 C 0.39737 0.3626 0.51663 0.0
C156 C 0.37186 0.39196 0.49557 0.0
C157 C 0.39434 0.37047 0.45062 0.0
C158 C 0.36207 0.42229 0.69399 0.0
N159 N 0.38019 0.4071 0.69472 0.0
C160 C 0.3642 0.44425 0.70992 0.0
C161 C 0.38506 0.45062 0.72666 0.0
C162 C 0.40346 0.43503 0.72728 0.0
C163 C 0.40072 0.41323 0.71103 0.0
C164 C 0.38834 0.35601 0.78189 0.0
C165 C 0.40611 0.34574 0.71184 0.0
C166 C 0.37998 0.36699 0.74983 0.0
N167 N 0.38896 0.36188 0.71542 0.0
C168 C 0.41488 0.3344 0.74327 0.0
C169 C 0.40593 0.33962 0.77851 0.0
C170 C 0.37248 0.33865 0.61385 0.0
C171 C 0.30246 0.40256 0.56684 0.0
C172 C 0.33118 0.3672 0.54283 0.0
C173 C 0.30756 0.36633 0.53451 0.0
C174 C 0.29313 0.38414 0.54666 0.0
N175 N 0.34019 0.38533 0.56261 0.0
C176 C 0.32617 0.40287 0.57459 0.0
Co177 Co 0.88456 0.11993 0.83091 0.0
Co178 Co 0.87386 0.13021 0.92476 0.0
O179 O 0.86765 0.11458 0.87731 0.0
C180 C 0.83614 0.13087 0.81171 0.0
O181 O 0.83592 0.14371 0.84203 0.0
C182 C 0.87976 0.08084 0.94021 0.0
O183 O 0.89191 0.08011 0.90923 0.0
O184 O 0.90778 0.12503 0.91978 0.0
O185 O 0.9148 0.12035 0.85831 0.0
H186 H 0.91432 0.1863 0.01006 0.0
H187 H 0.85147 0.08086 0.83566 0.0
O188 O 0.85441 0.11976 0.80273 0.0
H189 H 0.92716 0.04537 0.8074 0.0
H190 H 0.901 0.10792 0.69389 0.0
H191 H 0.92371 0.15 0.80832 0.0
H192 H 0.92343 0.08768 0.81355 0.0
H193 H 0.88031 0.10134 0.75336 0.0
O194 O 0.87091 0.09979 0.95146 0.0
H195 H 0.90656 0.16652 0.95013 0.0
H196 H 0.85394 0.12623 0.00138 0.0
H197 H 0.94504 0.15691 0.7496 0.0
H198 H 0.85439 0.03848 0.8295 0.0
H199 H 0.9337 0.13579 0.69182 0.0
H200 H 0.89246 0.02047 0.81537 0.0
O201 O 0.88207 0.15396 0.83712 0.0
H202 H 0.79002 0.10708 0.92045 0.0
H203 H 0.84459 0.17122 0.94281 0.0
H204 H 0.80255 0.17846 0.94662 0.0
H205 H 0.77495 0.14625 0.93536 0.0
H206 H 0.83219 0.10064 0.91665 0.0
H207 H 0.8613 0.1454 0.062 0.0
H208 H 0.89161 0.17575 0.06654 0.0
O209 O 0.87701 0.16061 0.89865 0.0
C210 C 0.92154 0.12214 0.89225 0.0
C211 C 0.90103 0.17315 0.00842 0.0
C212 C 0.87129 0.15017 0.03758 0.0
N213 N 0.8797 0.14538 0.97223 0.0
C214 C 0.89651 0.16194 0.97454 0.0
C215 C 0.86724 0.13934 0.00322 0.0
C216 C 0.88829 0.1672 0.0401 0.0
C217 C 0.86805 0.07316 0.82912 0.0
N218 N 0.88722 0.08672 0.82474 0.0
C219 C 0.86961 0.04915 0.82583 0.0
C220 C 0.89099 0.03906 0.81796 0.0
C221 C 0.91047 0.05301 0.81351 0.0
C222 C 0.90826 0.07696 0.81709 0.0
C223 C 0.90613 0.11718 0.71889 0.0
C224 C 0.91879 0.14062 0.78336 0.0
C225 C 0.89445 0.11357 0.75261 0.0
N226 N 0.90095 0.12511 0.78432 0.0
C227 C 0.93088 0.14466 0.75016 0.0
C228 C 0.92449 0.13282 0.71775 0.0
C229 C 0.87977 0.16755 0.86502 0.0
C230 C 0.80187 0.12124 0.92553 0.0
C231 C 0.83269 0.15711 0.93791 0.0
C232 C 0.8089 0.16131 0.94014 0.0
C233 C 0.79343 0.14323 0.93384 0.0
N234 N 0.84083 0.13549 0.92973 0.0
C235 C 0.82577 0.11767 0.92358 0.0
Co236 Co 0.13724 0.38617 0.91814 0.0
Co237 Co 0.12745 0.37602 0.82383 0.0
O238 O 0.14272 0.39246 0.86507 0.0
C239 C 0.12654 0.43606 0.91049 0.0
O240 O 0.11628 0.43099 0.87873 0.0
C241 C 0.17804 0.37013 0.80897 0.0
O242 O 0.18101 0.36618 0.84482 0.0
O243 O 0.13403 0.34534 0.84695 0.0
O244 O 0.13781 0.35209 0.90855 0.0
H245 H 0.07378 0.31736 0.76692 0.0
H246 H 0.17564 0.41717 0.89612 0.0
O247 O 0.13636 0.42023 0.92951 0.0
H248 H 0.2127 0.35273 0.96364 0.0
H249 H 0.14804 0.39909 0.05645 0.0
H250 H 0.10746 0.35344 0.95992 0.0
H251 H 0.17026 0.35405 0.95597 0.0
H252 H 0.15522 0.40625 0.98941 0.0
O253 O 0.15781 0.37425 0.79615 0.0
H254 H 0.09276 0.33842 0.81859 0.0
H255 H 0.13063 0.37884 0.74063 0.0
H256 H 0.09992 0.34554 0.02666 0.0
H257 H 0.21815 0.41664 0.90337 0.0
H258 H 0.12029 0.36848 0.07544 0.0
H259 H 0.23695 0.38418 0.9372 0.0
O260 O 0.10312 0.38673 0.91049 0.0
H261 H 0.14769 0.4561 0.78053 0.0
H262 H 0.0854 0.39816 0.79098 0.0
H263 H 0.07677 0.43631 0.76366 0.0
H264 H 0.10805 0.46559 0.75825 0.0
H265 H 0.15551 0.4178 0.80801 0.0
H266 H 0.11218 0.35811 0.68808 0.0
H267 H 0.08347 0.32718 0.7011 0.0
O268 O 0.09673 0.37759 0.85021 0.0
C269 C 0.13692 0.33842 0.88051 0.0
C270 C 0.0862 0.33086 0.76088 0.0
C271 C 0.10779 0.3537 0.71663 0.0
N272 N 0.11265 0.35995 0.78261 0.0
C273 C 0.09696 0.34288 0.79002 0.0
C274 C 0.11821 0.36535 0.74649 0.0
C275 C 0.09167 0.33636 0.72396 0.0
C276 C 0.1837 0.40313 0.91121 0.0
N277 N 0.1705 0.38571 0.9257 0.0
C278 C 0.20777 0.40286 0.91509 0.0
C279 C 0.21831 0.38463 0.93403 0.0
C280 C 0.20472 0.36696 0.94884 0.0
C281 C 0.1807 0.36778 0.94434 0.0
C282 C 0.1391 0.38894 0.03546 0.0
C283 C 0.11651 0.36336 0.981 0.0
C284 C 0.14306 0.39295 0.99746 0.0
N285 N 0.1319 0.38014 0.97081 0.0
C286 C 0.11212 0.35887 0.01874 0.0
C287 C 0.12353 0.37176 0.04609 0.0
C288 C 0.08956 0.38254 0.88309 0.0
C289 C 0.13393 0.44347 0.78264 0.0
C290 C 0.09909 0.41082 0.78884 0.0
C291 C 0.09411 0.43238 0.77325 0.0
C292 C 0.11168 0.44879 0.7702 0.0
N293 N 0.12096 0.40573 0.80097 0.0
C294 C 0.13828 0.42171 0.79802 0.0
Co295 Co 0.86986 0.88306 0.07952 0.0
Co296 Co 0.87944 0.87664 0.17388 0.0
O297 O 0.86347 0.89112 0.13156 0.0
C298 C 0.87378 0.93457 0.07618 0.0
O299 O 0.8881 0.93436 0.10475 0.0
C300 C 0.82918 0.87153 0.19168 0.0
O301 O 0.82595 0.86467 0.15704 0.0
O302 O 0.87221 0.84495 0.15465 0.0
O303 O 0.87457 0.85003 0.09267 0.0
H304 H 0.93399 0.82069 0.23536 0.0
H305 H 0.82696 0.90878 0.09789 0.0
O306 O 0.86499 0.91583 0.06407 0.0
H307 H 0.80062 0.83633 0.03874 0.0
H308 H 0.85716 0.88662 0.94013 0.0
H309 H 0.90497 0.85393 0.04148 0.0
H310 H 0.84229 0.84446 0.04604 0.0
H311 H 0.84873 0.89591 0.00612 0.0
O312 O 0.84952 0.87666 0.20305 0.0
H313 H 0.91408 0.83918 0.18214 0.0
H314 H 0.87764 0.88344 0.25659 0.0
H315 H 0.9139 0.84404 0.97589 0.0
H316 H 0.78509 0.90145 0.09079 0.0
H317 H 0.8899 0.86043 0.92467 0.0
H318 H 0.77169 0.86495 0.06119 0.0
O319 O 0.90346 0.889 0.0872 0.0
H320 H 0.86074 0.95894 0.20737 0.0
H321 H 0.92214 0.89975 0.20257 0.0
H322 H 0.93158 0.93903 0.22469 0.0
H323 H 0.90074 0.96894 0.22726 0.0
H324 H 0.85211 0.91949 0.18511 0.0
H325 H 0.89699 0.86529 0.31067 0.0
H326 H 0.92547 0.83375 0.30019 0.0
O327 O 0.90985 0.8766 0.14591 0.0
C328 C 0.87317 0.83707 0.12132 0.0
C329 C 0.92167 0.83446 0.24029 0.0
C330 C 0.90087 0.85948 0.28255 0.0
N331 N 0.89485 0.86247 0.21626 0.0
C332 C 0.91039 0.84504 0.21026 0.0
C333 C 0.88992 0.86964 0.25184 0.0
C334 C 0.91686 0.84178 0.27665 0.0
C335 C 0.82126 0.89297 0.08459 0.0
N336 N 0.83707 0.87709 0.07235 0.0
C337 C 0.79753 0.88888 0.0808 0.0
C338 C 0.79002 0.86837 0.06426 0.0
C339 C 0.80624 0.85229 0.0517 0.0
C340 C 0.82983 0.85695 0.05603 0.0
C341 C 0.86773 0.87935 0.9622 0.0
C342 C 0.89439 0.86106 0.01936 0.0
C343 C 0.86308 0.8846 0.99962 0.0
N344 N 0.87628 0.87539 0.02765 0.0
C345 C 0.89956 0.85543 0.98227 0.0
C346 C 0.8861 0.86464 0.95354 0.0
C347 C 0.91707 0.88343 0.11391 0.0
C348 C 0.87432 0.94605 0.20647 0.0
C349 C 0.90865 0.91268 0.20347 0.0
C350 C 0.91408 0.93488 0.21612 0.0
C351 C 0.89677 0.95165 0.21757 0.0
N352 N 0.88658 0.90731 0.19266 0.0
C353 C 0.86951 0.92366 0.19401 0.0
Co354 Co 0.37373 0.62588 0.33687 0.0
Co355 Co 0.37579 0.63083 0.43374 0.0
O356 O 0.36569 0.61535 0.38757 0.0
C357 C 0.32281 0.62475 0.33704 0.0
O358 O 0.32362 0.63323 0.37109 0.0
C359 C 0.38922 0.58135 0.44493 0.0
O360 O 0.39324 0.57908 0.40897 0.0
O361 O 0.40852 0.63188 0.41579 0.0
O362 O 0.40604 0.63216 0.35296 0.0
H363 H 0.41818 0.69158 0.50737 0.0
H364 H 0.35071 0.58046 0.34594 0.0
O365 O 0.34135 0.62022 0.3193 0.0
H366 H 0.42629 0.56327 0.28798 0.0
H367 H 0.37238 0.62164 0.19609 0.0
H368 H 0.4005 0.66516 0.30585 0.0
H369 H 0.41506 0.60349 0.30216 0.0
H370 H 0.36307 0.60861 0.26005 0.0
O371 O 0.38229 0.60051 0.45838 0.0
H372 H 0.40471 0.67189 0.45005 0.0
H373 H 0.36868 0.62231 0.51543 0.0
H374 H 0.41039 0.67871 0.24242 0.0
H375 H 0.36114 0.54001 0.33187 0.0
H376 H 0.39629 0.65688 0.18698 0.0
H377 H 0.39921 0.53121 0.3028 0.0
O378 O 0.36512 0.65837 0.34879 0.0
H379 H 0.29927 0.59224 0.45752 0.0
H380 H 0.34362 0.66471 0.46945 0.0
H381 H 0.30294 0.66356 0.49047 0.0
H382 H 0.2805 0.6271 0.48459 0.0
H383 H 0.33991 0.59427 0.43646 0.0
H384 H 0.38192 0.64134 0.57343 0.0
H385 H 0.40679 0.67629 0.56962 0.0
O386 O 0.36922 0.66169 0.41119 0.0
C387 C 0.41756 0.63341 0.38333 0.0
C388 C 0.40729 0.67641 0.5094 0.0
C389 C 0.38697 0.64819 0.54648 0.0
N390 N 0.38579 0.64609 0.47938 0.0
C391 C 0.39956 0.66524 0.47704 0.0
C392 C 0.37957 0.63746 0.51353 0.0
C393 C 0.40091 0.6678 0.54432 0.0
C394 C 0.3672 0.57678 0.33292 0.0
N395 N 0.38221 0.59431 0.32476 0.0
C396 C 0.37306 0.55384 0.32518 0.0
C397 C 0.39444 0.54891 0.30893 0.0
C398 C 0.40965 0.56689 0.30064 0.0
C399 C 0.40323 0.58962 0.30884 0.0
C400 C 0.37872 0.63124 0.22002 0.0
C401 C 0.39451 0.65544 0.28187 0.0
C402 C 0.3735 0.62395 0.2563 0.0
N403 N 0.38153 0.63594 0.28666 0.0
C404 C 0.40008 0.66325 0.24602 0.0
C405 C 0.39213 0.65101 0.21493 0.0
C406 C 0.36487 0.67008 0.37898 0.0
C407 C 0.30887 0.60822 0.46025 0.0
C408 C 0.3339 0.64885 0.46654 0.0
C409 C 0.31091 0.64826 0.47865 0.0
C410 C 0.29834 0.6278 0.47538 0.0
N411 N 0.34409 0.62961 0.4516 0.0
C412 C 0.33191 0.60945 0.44849 0.0
Co413 Co 0.63702 0.12503 0.6696 0.0
Co414 Co 0.62708 0.11887 0.57464 0.0
O415 O 0.64325 0.11098 0.62089 0.0
C416 C 0.6834 0.14174 0.69211 0.0
O417 O 0.67359 0.16171 0.69958 0.0
C418 C 0.61967 0.06871 0.58298 0.0
O419 O 0.61431 0.07314 0.61796 0.0
O420 O 0.59632 0.11678 0.5996 0.0
O421 O 0.60293 0.12507 0.66012 0.0
H422 H 0.5687 0.16144 0.49648 0.0
H423 H 0.66599 0.08275 0.66519 0.0
O424 O 0.67132 0.12505 0.67926 0.0
H425 H 0.59887 0.06123 0.74296 0.0
H426 H 0.64747 0.13411 0.80899 0.0
H427 H 0.6071 0.16312 0.6968 0.0
H428 H 0.60269 0.10082 0.71828 0.0
H429 H 0.6546 0.11647 0.74713 0.0
O430 O 0.62514 0.08518 0.56106 0.0
H431 H 0.58983 0.15183 0.55444 0.0
H432 H 0.62979 0.10183 0.49592 0.0
H433 H 0.59949 0.18129 0.75808 0.0
H434 H 0.66296 0.04304 0.68964 0.0
H435 H 0.61975 0.16678 0.81472 0.0
H436 H 0.62916 0.03203 0.7287 0.0
O437 O 0.63925 0.15669 0.64777 0.0
H438 H 0.70715 0.09149 0.54186 0.0
H439 H 0.64948 0.15343 0.52446 0.0
H440 H 0.68763 0.15664 0.49387 0.0
H441 H 0.71675 0.12547 0.5024 0.0
H442 H 0.66885 0.0891 0.57221 0.0
H443 H 0.609 0.1108 0.43736 0.0
H444 H 0.57826 0.14085 0.4374 0.0
O445 O 0.62884 0.15252 0.58742 0.0
C446 C 0.58931 0.1209 0.63279 0.0
C447 C 0.58213 0.14838 0.49607 0.0
C448 C 0.60472 0.11993 0.46291 0.0
N449 N 0.61114 0.12643 0.52847 0.0
C450 C 0.5942 0.14292 0.52877 0.0
C451 C 0.6164 0.1149 0.49616 0.0
C452 C 0.58748 0.1368 0.46295 0.0
C453 C 0.65138 0.07819 0.68256 0.0
N454 N 0.63462 0.09415 0.69047 0.0
C455 C 0.6497 0.05563 0.69617 0.0
C456 C 0.6307 0.04946 0.71802 0.0
C457 C 0.61369 0.06583 0.726 0.0
C458 C 0.61592 0.08821 0.71186 0.0
C459 C 0.6385 0.14056 0.78453 0.0
C460 C 0.61595 0.15668 0.72134 0.0
C461 C 0.64245 0.13063 0.74945 0.0
N462 N 0.63122 0.13872 0.71841 0.0
C463 C 0.61158 0.16704 0.75595 0.0
C464 C 0.62296 0.1589 0.78772 0.0
C465 C 0.6344 0.16498 0.61562 0.0
C466 C 0.69459 0.10516 0.53788 0.0
C467 C 0.66211 0.13988 0.52849 0.0
C468 C 0.68365 0.14175 0.511 0.0
C469 C 0.69998 0.12425 0.51577 0.0
N470 N 0.65693 0.12107 0.55002 0.0
C471 C 0.67286 0.10387 0.55491 0.0
Co472 Co 0.87406 0.3735 0.93 0.0
Co473 Co 0.87645 0.38569 0.83512 0.0
O474 O 0.86374 0.39005 0.88548 0.0
C475 C 0.88065 0.42282 0.94882 0.0
O476 O 0.88839 0.42569 0.9146 0.0
C477 C 0.82704 0.37345 0.82996 0.0
O478 O 0.83081 0.3618 0.86082 0.0
O479 O 0.87626 0.35147 0.84022 0.0
O480 O 0.87499 0.34375 0.90176 0.0
H481 H 0.93046 0.35262 0.73867 0.0
H482 H 0.83215 0.4029 0.93442 0.0
O483 O 0.87369 0.40301 0.95956 0.0
H484 H 0.80579 0.32433 0.96657 0.0
H485 H 0.87434 0.35481 0.06759 0.0
H486 H 0.90915 0.33722 0.94477 0.0
H487 H 0.84688 0.33183 0.95219 0.0
H488 H 0.86128 0.37527 0.01083 0.0
O489 O 0.84372 0.38434 0.81443 0.0
H490 H 0.91467 0.35808 0.80223 0.0
H491 H 0.86396 0.40449 0.76025 0.0
H492 H 0.92253 0.31615 1.00072 0.0
H493 H 0.79092 0.39622 0.94905 0.0
H494 H 0.9051 0.32492 0.06269 0.0
H495 H 0.77751 0.35668 0.96512 0.0
O496 O 0.90692 0.37934 0.91717 0.0
H497 H 0.84264 0.46553 0.84458 0.0
H498 H 0.91168 0.42 0.81014 0.0
H499 H 0.91288 0.46253 0.80542 0.0
H500 H 0.87818 0.48558 0.82275 0.0
H501 H 0.84225 0.42298 0.84912 0.0
H502 H 0.87904 0.39936 0.69614 0.0
H503 H 0.9126 0.37335 0.68508 0.0
O504 O 0.90918 0.38661 0.85534 0.0
C505 C 0.87599 0.33739 0.86761 0.0
C506 C 0.91588 0.36407 0.74314 0.0
C507 C 0.887 0.39028 0.71927 0.0
N508 N 0.88856 0.38174 0.78494 0.0
C509 C 0.90692 0.36729 0.77908 0.0
C510 C 0.87851 0.39308 0.7556 0.0
C511 C 0.90584 0.37568 0.71309 0.0
C512 C 0.82647 0.3857 0.94181 0.0
N513 N 0.84191 0.36781 0.94266 0.0
C514 C 0.8031 0.38201 0.94992 0.0
C515 C 0.79558 0.3598 0.95887 0.0
C516 C 0.81143 0.34164 0.95965 0.0
C517 C 0.83467 0.34598 0.9514 0.0
C518 C 0.88204 0.3508 0.04073 0.0
C519 C 0.90138 0.34101 0.9716 0.0
C520 C 0.87476 0.36237 0.00852 0.0
N521 N 0.88432 0.3573 0.97449 0.0
C522 C 0.90907 0.32908 0.0032 0.0
C523 C 0.89929 0.33403 0.03796 0.0
C524 C 0.91845 0.38396 0.88765 0.0
C525 C 0.85785 0.45567 0.83684 0.0
C526 C 0.89651 0.42992 0.81771 0.0
C527 C 0.89728 0.45399 0.81494 0.0
C528 C 0.8778 0.46691 0.82465 0.0
N529 N 0.87687 0.41903 0.82971 0.0
C530 C 0.85769 0.43157 0.83919 0.0
Co531 Co 0.37992 0.12176 0.57671 0.0
Co532 Co 0.37171 0.12993 0.67186 0.0
O533 O 0.36491 0.11433 0.62436 0.0
C534 C 0.38929 0.07181 0.58516 0.0
O535 O 0.39508 0.07605 0.62005 0.0
C536 C 0.32116 0.1362 0.66296 0.0
O537 O 0.32517 0.14168 0.62791 0.0
O538 O 0.36899 0.16104 0.64827 0.0
O539 O 0.37781 0.15545 0.58769 0.0
H540 H 0.41139 0.18802 0.75458 0.0
H541 H 0.33889 0.09107 0.57805 0.0
O542 O 0.38237 0.08815 0.56415 0.0
H543 H 0.31642 0.15704 0.4987 0.0
H544 H 0.39479 0.11206 0.43869 0.0
H545 H 0.41628 0.15481 0.55309 0.0
H546 H 0.35554 0.15493 0.52625 0.0
H547 H 0.37553 0.10365 0.49876 0.0
O548 O 0.33789 0.13075 0.68443 0.0
H549 H 0.40311 0.16784 0.69518 0.0
H550 H 0.35392 0.12502 0.74984 0.0
H551 H 0.43586 0.1639 0.49355 0.0
H552 H 0.29965 0.09234 0.55077 0.0
H553 H 0.42514 0.14243 0.43581 0.0
H554 H 0.28817 0.12556 0.51089 0.0
O555 O 0.41128 0.1206 0.60016 0.0
H556 H 0.3463 0.04863 0.69904 0.0
H557 H 0.40647 0.10747 0.72189 0.0
H558 H 0.4106 0.06876 0.74993 0.0
H559 H 0.38035 0.03904 0.73859 0.0
H560 H 0.34297 0.08751 0.67127 0.0
H561 H 0.36155 0.14483 0.80978 0.0
H562 H 0.39053 0.17653 0.81243 0.0
O563 O 0.40554 0.12942 0.66072 0.0
C564 C 0.3729 0.16854 0.61531 0.0
C565 C 0.39879 0.17418 0.75382 0.0
C566 C 0.37079 0.14996 0.78479 0.0
N567 N 0.37819 0.14517 0.71911 0.0
C568 C 0.39408 0.16265 0.72029 0.0
C569 C 0.36651 0.13884 0.75076 0.0
C570 C 0.38706 0.16774 0.78625 0.0
C571 C 0.33408 0.10548 0.56046 0.0
N572 N 0.34949 0.12291 0.55374 0.0
C573 C 0.31181 0.10615 0.5452 0.0
C574 C 0.30538 0.12481 0.52288 0.0
C575 C 0.32121 0.14248 0.51606 0.0
C576 C 0.34331 0.14124 0.53184 0.0
C577 C 0.39958 0.12156 0.46364 0.0
C578 C 0.41142 0.14551 0.52802 0.0
C579 C 0.38877 0.11685 0.49775 0.0
N580 N 0.39467 0.12885 0.52934 0.0
C581 C 0.42261 0.15068 0.49442 0.0
C582 C 0.4166 0.13861 0.46204 0.0
C583 C 0.41876 0.12495 0.63305 0.0
C584 C 0.35957 0.06145 0.70426 0.0
C585 C 0.39328 0.09461 0.71672 0.0
C586 C 0.39568 0.07274 0.73276 0.0
C587 C 0.3787 0.05607 0.72641 0.0
N588 N 0.37446 0.09976 0.69506 0.0
C589 C 0.35773 0.08352 0.68873 0.0
Co590 Co 0.62861 0.6193 0.32601 0.0
Co591 Co 0.63065 0.6253 0.42215 0.0
O592 O 0.63923 0.60964 0.37537 0.0
C593 C 0.67939 0.61855 0.31436 0.0
O594 O 0.68191 0.62956 0.34628 0.0
C595 C 0.61612 0.57718 0.43174 0.0
O596 O 0.6059 0.57987 0.39923 0.0
O597 O 0.59702 0.6255 0.40871 0.0
O598 O 0.59758 0.62731 0.34601 0.0
H599 H 0.59108 0.68533 0.50132 0.0
H600 H 0.65029 0.57319 0.33381 0.0
O601 O 0.65943 0.61194 0.30375 0.0
H602 H 0.57116 0.55812 0.28782 0.0
H603 H 0.6207 0.61241 0.18602 0.0
H604 H 0.60282 0.65986 0.29708 0.0
H605 H 0.58459 0.59805 0.29858 0.0
H606 H 0.63311 0.59991 0.24887 0.0
O607 O 0.62677 0.59416 0.44669 0.0
H608 H 0.60162 0.66575 0.44235 0.0
H609 H 0.64201 0.61687 0.50232 0.0
H610 H 0.5899 0.67291 0.23481 0.0
H611 H 0.6377 0.53299 0.32279 0.0
H612 H 0.59883 0.6491 0.17871 0.0
H613 H 0.59784 0.52526 0.29981 0.0
O614 O 0.63905 0.65133 0.33596 0.0
H615 H 0.70965 0.59003 0.43762 0.0
H616 H 0.6633 0.66122 0.45041 0.0
H617 H 0.70492 0.66204 0.46593 0.0
H618 H 0.72838 0.62624 0.45961 0.0
H619 H 0.66801 0.59004 0.4221 0.0
H620 H 0.63169 0.63576 0.56202 0.0
H621 H 0.60614 0.67032 0.56172 0.0
O622 O 0.6344 0.65652 0.39798 0.0
C623 C 0.58702 0.6283 0.37723 0.0
C624 C 0.60228 0.67032 0.50181 0.0
C625 C 0.62505 0.64248 0.53588 0.0
N626 N 0.62255 0.6403 0.4689 0.0
C627 C 0.60836 0.65921 0.4685 0.0
C628 C 0.63078 0.63182 0.50202 0.0
C629 C 0.61072 0.66188 0.53569 0.0
C630 C 0.63301 0.56996 0.32336 0.0
N631 N 0.61825 0.58793 0.31663 0.0
C632 C 0.62595 0.54717 0.31732 0.0
C633 C 0.60357 0.54284 0.3045 0.0
C634 C 0.58858 0.56127 0.29781 0.0
C635 C 0.59625 0.58384 0.30409 0.0
C636 C 0.6166 0.62288 0.21026 0.0
C637 C 0.60656 0.64929 0.27286 0.0
C638 C 0.62359 0.61589 0.24593 0.0
N639 N 0.61838 0.62897 0.27671 0.0
C640 C 0.59929 0.65682 0.23765 0.0
C641 C 0.60434 0.64347 0.20618 0.0
C642 C 0.63864 0.66413 0.36505 0.0
C643 C 0.69959 0.60572 0.44059 0.0
C644 C 0.6734 0.64559 0.44752 0.0
C645 C 0.69695 0.64615 0.45641 0.0
C646 C 0.7101 0.62605 0.45288 0.0
N647 N 0.66321 0.62557 0.43555 0.0
C648 C 0.67599 0.60581 0.43198 0.0
Co649 Co 0.12722 0.885 0.17116 0.0
Co650 Co 0.1355 0.87437 0.07676 0.0
O651 O 0.1425 0.891 0.12319 0.0
C652 C 0.17763 0.8799 0.18831 0.0
O653 O 0.17985 0.8684 0.15681 0.0
C654 C 0.12938 0.92393 0.05697 0.0
O655 O 0.11964 0.92698 0.08978 0.0
O656 O 0.10169 0.8793 0.08384 0.0
O657 O 0.09612 0.88199 0.14592 0.0
H658 H 0.09354 0.81607 0.99747 0.0
H659 H 0.15699 0.92641 0.16321 0.0
O660 O 0.15787 0.8879 0.19792 0.0
H661 H 0.0794 0.95641 0.19448 0.0
H662 H 0.11293 0.89781 0.30864 0.0
H663 H 0.09133 0.85217 0.19727 0.0
H664 H 0.0863 0.91444 0.18982 0.0
H665 H 0.13157 0.9052 0.2477 0.0
O666 O 0.137 0.90406 0.04755 0.0
H667 H 0.10259 0.83727 0.05564 0.0
H668 H 0.15351 0.87677 0.99862 0.0
H669 H 0.07206 0.84437 0.25756 0.0
H670 H 0.15089 0.96852 0.1679 0.0
H671 H 0.08286 0.86728 0.3138 0.0
H672 H 0.11184 0.98377 0.18347 0.0
O673 O 0.13257 0.85114 0.16614 0.0
H674 H 0.21877 0.89939 0.07313 0.0
H675 H 0.16521 0.83356 0.05881 0.0
H676 H 0.20724 0.82722 0.05197 0.0
H677 H 0.23433 0.86029 0.05914 0.0
H678 H 0.17661 0.90492 0.08006 0.0
H679 H 0.14483 0.85618 0.93972 0.0
H680 H 0.11474 0.8255 0.93897 0.0
O681 O 0.13378 0.84425 0.1043 0.0
C682 C 0.0885 0.88099 0.11236 0.0
C683 C 0.10674 0.82935 0.99747 0.0
C684 C 0.13551 0.85189 0.96505 0.0
N685 N 0.12869 0.85809 0.03057 0.0
C686 C 0.11198 0.84137 0.03033 0.0
C687 C 0.14031 0.86352 0.99845 0.0
C688 C 0.11863 0.83467 0.96465 0.0
C689 C 0.14001 0.93291 0.17041 0.0
N690 N 0.12206 0.91798 0.17635 0.0
C691 C 0.13663 0.95677 0.17286 0.0
C692 C 0.11471 0.96532 0.18154 0.0
C693 C 0.0965 0.94998 0.18768 0.0
C694 C 0.1005 0.92622 0.18491 0.0
C695 C 0.10805 0.88774 0.28433 0.0
C696 C 0.096 0.8623 0.22157 0.0
C697 C 0.11858 0.89181 0.24978 0.0
N698 N 0.11241 0.87923 0.21893 0.0
C699 C 0.08509 0.85777 0.25566 0.0
C700 C 0.09117 0.87061 0.2872 0.0
C701 C 0.13376 0.8374 0.13824 0.0
C702 C 0.20713 0.88486 0.06983 0.0
C703 C 0.17688 0.84803 0.06203 0.0
C704 C 0.20066 0.84435 0.05804 0.0
C705 C 0.21586 0.86291 0.06204 0.0
N706 N 0.16847 0.86962 0.06968 0.0
C707 C 0.18324 0.88791 0.07355 0.0
Co708 Co 0.87821 0.62015 0.07609 0.0
Co709 Co 0.87267 0.62807 0.17161 0.0
O710 O 0.86485 0.61236 0.12478 0.0
C711 C 0.88728 0.57033 0.08505 0.0
O712 O 0.89404 0.57509 0.11929 0.0
C713 C 0.82193 0.63113 0.16655 0.0
O714 O 0.82468 0.63686 0.1313 0.0
O715 O 0.86764 0.65895 0.1486 0.0
O716 O 0.8762 0.65393 0.08774 0.0
H717 H 0.91232 0.68796 0.25094 0.0
H718 H 0.83758 0.58891 0.07994 0.0
O719 O 0.88049 0.58647 0.06347 0.0
H720 H 0.81202 0.65536 0.00416 0.0
H721 H 0.88875 0.61073 0.93703 0.0
H722 H 0.91327 0.65376 0.04955 0.0
H723 H 0.85191 0.65352 0.02872 0.0
H724 H 0.87163 0.60198 0.99865 0.0
O725 O 0.83945 0.62715 0.18715 0.0
H726 H 0.90294 0.66748 0.19226 0.0
H727 H 0.858 0.62218 0.25107 0.0
H728 H 0.93074 0.66318 0.98844 0.0
H729 H 0.79759 0.58993 0.05565 0.0
H730 H 0.91848 0.64158 0.93164 0.0
H731 H 0.78456 0.62339 0.01757 0.0
O732 O 0.91023 0.6193 0.09677 0.0
H733 H 0.8523 0.54563 0.20086 0.0
H734 H 0.91042 0.60724 0.21761 0.0
H735 H 0.91752 0.56875 0.2449 0.0
H736 H 0.88832 0.53763 0.23661 0.0
H737 H 0.84599 0.58431 0.17378 0.0
H738 H 0.86681 0.64224 0.31037 0.0
H739 H 0.89421 0.67535 0.31056 0.0
O740 O 0.90592 0.62935 0.15713 0.0
C741 C 0.87122 0.66675 0.11575 0.0
C742 C 0.90044 0.6735 0.25126 0.0
C743 C 0.87486 0.64786 0.2846 0.0
N744 N 0.8801 0.64354 0.2183 0.0
C745 C 0.89511 0.6618 0.21813 0.0
C746 C 0.86992 0.63659 0.25093 0.0
C747 C 0.89024 0.66643 0.28468 0.0
C748 C 0.83211 0.60341 0.06307 0.0
N749 N 0.84708 0.6211 0.05567 0.0
C750 C 0.80942 0.60394 0.04952 0.0
C751 C 0.8021 0.62274 0.02822 0.0
C752 C 0.8175 0.64069 0.02072 0.0
C753 C 0.84004 0.63959 0.03479 0.0
C754 C 0.8942 0.6203 0.96156 0.0
C755 C 0.90774 0.6444 0.0249 0.0
C756 C 0.88459 0.6154 0.99653 0.0
N757 N 0.89132 0.62748 0.02759 0.0
C758 C 0.91773 0.64976 0.99041 0.0
C759 C 0.91087 0.63762 0.95855 0.0
C760 C 0.91847 0.62481 0.12867 0.0
C761 C 0.86512 0.55907 0.20477 0.0
C762 C 0.89766 0.59378 0.21382 0.0
C763 C 0.90175 0.57203 0.2294 0.0
C764 C 0.88535 0.55458 0.22477 0.0
N765 N 0.87776 0.59805 0.19426 0.0
C766 C 0.86159 0.58104 0.18964 0.0
Co767 Co 0.14048 0.12058 0.92315 0.0
Co768 Co 0.12742 0.12928 0.82947 0.0
O769 O 0.14435 0.11367 0.86976 0.0
C770 C 0.13051 0.07049 0.91728 0.0
O771 O 0.11922 0.07519 0.88633 0.0
C772 C 0.17684 0.13593 0.80936 0.0
O773 O 0.18101 0.14055 0.84471 0.0
O774 O 0.13449 0.16034 0.85095 0.0
O775 O 0.14013 0.15455 0.91246 0.0
H776 H 0.07081 0.18643 0.7763 0.0
H777 H 0.1786 0.08985 0.89861 0.0
O778 O 0.14054 0.08662 0.93545 0.0
H779 H 0.2168 0.15584 0.96065 0.0
H780 H 0.15625 0.10962 0.06058 0.0
H781 H 0.11175 0.15351 0.96666 0.0
H782 H 0.17419 0.15374 0.95688 0.0
H783 H 0.16116 0.10165 0.9932 0.0
O784 O 0.15639 0.13097 0.79868 0.0
H785 H 0.09215 0.16645 0.82656 0.0
H786 H 0.1273 0.1252 0.74618 0.0
H787 H 0.10647 0.16221 0.03375 0.0
H788 H 0.22127 0.09116 0.90195 0.0
H789 H 0.12881 0.14016 0.08122 0.0
H790 H 0.24064 0.12439 0.93303 0.0
O791 O 0.10611 0.11947 0.9188 0.0
H792 H 0.147 0.04874 0.78721 0.0
H793 H 0.08453 0.10622 0.8013 0.0
H794 H 0.07537 0.06754 0.7763 0.0
H795 H 0.10675 0.03849 0.76907 0.0
H796 H 0.15534 0.08757 0.81248 0.0
H797 H 0.10648 0.14487 0.695 0.0
H798 H 0.07794 0.17566 0.70995 0.0
O799 O 0.09808 0.12787 0.85883 0.0
C800 C 0.13824 0.16779 0.88404 0.0
C801 C 0.08316 0.173 0.76943 0.0
C802 C 0.1032 0.14969 0.7238 0.0
N803 N 0.11083 0.14457 0.78932 0.0
C804 C 0.09524 0.16158 0.79777 0.0
C805 C 0.11498 0.13865 0.75288 0.0
C806 C 0.08718 0.16696 0.73221 0.0
C807 C 0.18691 0.10424 0.91251 0.0
N808 N 0.17393 0.12164 0.92766 0.0
C809 C 0.21107 0.10494 0.91418 0.0
C810 C 0.22193 0.1236 0.93157 0.0
C811 C 0.20856 0.14126 0.94705 0.0
C812 C 0.18444 0.14001 0.94477 0.0
C813 C 0.14646 0.11938 0.04016 0.0
C814 C 0.12166 0.14397 0.98716 0.0
C815 C 0.14913 0.11491 0.00198 0.0
N816 N 0.13688 0.12723 0.97604 0.0
C817 C 0.11854 0.14892 0.0251 0.0
C818 C 0.13106 0.13652 0.05172 0.0
C819 C 0.09186 0.12339 0.89228 0.0
C820 C 0.13319 0.06127 0.79014 0.0
C821 C 0.09825 0.09366 0.79841 0.0
C822 C 0.09298 0.0718 0.78411 0.0
C823 C 0.1106 0.05551 0.78003 0.0
N824 N 0.12045 0.09916 0.8083 0.0
C825 C 0.13783 0.08331 0.80428 0.0
Co826 Co 0.62809 0.37532 0.67684 0.0
Co827 Co 0.63648 0.38177 0.58181 0.0
O828 O 0.64325 0.39016 0.63373 0.0
C829 C 0.67869 0.37076 0.69265 0.0
O830 O 0.6818 0.36516 0.6574 0.0
C831 C 0.62956 0.43309 0.57719 0.0
O832 O 0.61842 0.43318 0.60922 0.0
O833 O 0.60286 0.38637 0.59073 0.0
O834 O 0.59725 0.37534 0.65032 0.0
H835 H 0.59226 0.34062 0.48055 0.0
H836 H 0.65558 0.4181 0.68757 0.0
O837 O 0.65838 0.3752 0.70481 0.0
H838 H 0.5767 0.43755 0.73013 0.0
H839 H 0.61282 0.3637 0.81428 0.0
H840 H 0.59368 0.33777 0.68638 0.0
H841 H 0.58576 0.39839 0.70711 0.0
H842 H 0.63121 0.382 0.7595 0.0
O843 O 0.63902 0.41467 0.56503 0.0
H844 H 0.60179 0.35132 0.5456 0.0
H845 H 0.6562 0.39468 0.5074 0.0
H846 H 0.57473 0.31913 0.74034 0.0
H847 H 0.64731 0.45744 0.71073 0.0
H848 H 0.58429 0.33209 0.80484 0.0
H849 H 0.60761 0.46739 0.73212 0.0
O850 O 0.63501 0.34354 0.65739 0.0
H851 H 0.72026 0.40455 0.58931 0.0
H852 H 0.66549 0.34421 0.54828 0.0
H853 H 0.70742 0.33814 0.53966 0.0
H854 H 0.73513 0.36845 0.56024 0.0
H855 H 0.67815 0.4098 0.59774 0.0
H856 H 0.64719 0.38452 0.44192 0.0
H857 H 0.61505 0.35726 0.42816 0.0
O858 O 0.63358 0.34865 0.59542 0.0
C859 C 0.58964 0.38157 0.61828 0.0
C860 C 0.60635 0.35246 0.48618 0.0
C861 C 0.63717 0.37711 0.46451 0.0
N862 N 0.62964 0.37347 0.53033 0.0
C863 C 0.61185 0.35856 0.52297 0.0
C864 C 0.64219 0.38279 0.50164 0.0
C865 C 0.61913 0.36182 0.45681 0.0
C866 C 0.63831 0.42225 0.69712 0.0
N867 N 0.62122 0.40594 0.69613 0.0
C868 C 0.63371 0.44458 0.71008 0.0
C869 C 0.61142 0.45015 0.72204 0.0
C870 C 0.59407 0.43343 0.72091 0.0
C871 C 0.5993 0.41129 0.70775 0.0
C872 C 0.6085 0.35792 0.7863 0.0
C873 C 0.59783 0.34359 0.71437 0.0
C874 C 0.6189 0.36818 0.75519 0.0
N875 N 0.61342 0.36104 0.71979 0.0
C876 C 0.58709 0.33293 0.74481 0.0
C877 C 0.59248 0.3402 0.78099 0.0
C878 C 0.63461 0.33566 0.62404 0.0
C879 C 0.70836 0.39124 0.58013 0.0
C880 C 0.67742 0.35744 0.55744 0.0
C881 C 0.70115 0.35394 0.55238 0.0
C882 C 0.71669 0.37097 0.56388 0.0
N883 N 0.66939 0.37737 0.57345 0.0
C884 C 0.68451 0.39417 0.58468 0.0
Co885 Co 0.37167 0.87878 0.4276 0.0
Co886 Co 0.37636 0.88153 0.33079 0.0
O887 O 0.36517 0.8933 0.37933 0.0
C888 C 0.38671 0.92811 0.43866 0.0
O889 O 0.39113 0.93048 0.40283 0.0
C890 C 0.32529 0.87891 0.32731 0.0
O891 O 0.32669 0.87096 0.36157 0.0
O892 O 0.36979 0.84857 0.34413 0.0
O893 O 0.36467 0.84789 0.40635 0.0
H894 H 0.42287 0.83015 0.24581 0.0
H895 H 0.33795 0.9172 0.42256 0.0
O896 O 0.37874 0.90924 0.45149 0.0
H897 H 0.29427 0.85184 0.47585 0.0
H898 H 0.36971 0.87173 0.56816 0.0
H899 H 0.39746 0.83686 0.45036 0.0
H900 H 0.33581 0.84784 0.461 0.0
H901 H 0.36063 0.88981 0.50745 0.0
O902 O 0.34379 0.88409 0.30953 0.0
H903 H 0.40881 0.8447 0.30666 0.0
H904 H 0.367 0.89457 0.25158 0.0
H905 H 0.40677 0.81809 0.51047 0.0
H906 H 0.29651 0.92209 0.43746 0.0
H907 H 0.39287 0.83555 0.56992 0.0
H908 H 0.27436 0.8892 0.46411 0.0
O909 O 0.40491 0.87559 0.41412 0.0
H910 H 0.3575 0.96591 0.31722 0.0
H911 H 0.41712 0.90595 0.29838 0.0
H912 H 0.42586 0.9464 0.28192 0.0
H913 H 0.3959 0.9767 0.29126 0.0
H914 H 0.34959 0.92527 0.33366 0.0
H915 H 0.38045 0.88045 0.19009 0.0
H916 H 0.40865 0.84807 0.18697 0.0
O917 O 0.4088 0.87869 0.3516 0.0
C918 C 0.36503 0.83809 0.3745 0.0
C919 C 0.41063 0.84432 0.2468 0.0
C920 C 0.3868 0.87253 0.21553 0.0
N921 N 0.38724 0.87056 0.28262 0.0
C922 C 0.40267 0.85267 0.28117 0.0
C923 C 0.3792 0.88042 0.2504 0.0
C924 C 0.40263 0.85436 0.2138 0.0
C925 C 0.32847 0.90289 0.43448 0.0
N926 N 0.33926 0.88225 0.44084 0.0
C927 C 0.305 0.90573 0.44275 0.0
C928 C 0.29257 0.88726 0.45764 0.0
C929 C 0.30372 0.86628 0.46418 0.0
C930 C 0.32722 0.86408 0.45557 0.0
C931 C 0.37582 0.86392 0.54244 0.0
C932 C 0.39121 0.84446 0.47611 0.0
C933 C 0.37078 0.87411 0.50797 0.0
N934 N 0.37835 0.86429 0.47536 0.0
C935 C 0.3966 0.8338 0.51006 0.0
C936 C 0.38881 0.84362 0.5434 0.0
C937 C 0.41728 0.8762 0.38449 0.0
C938 C 0.37067 0.95285 0.31293 0.0
C939 C 0.40403 0.91905 0.30266 0.0
C940 C 0.40906 0.94192 0.29319 0.0
C941 C 0.39224 0.9589 0.29842 0.0
N942 N 0.38284 0.91325 0.31684 0.0
C943 C 0.36625 0.9298 0.32203 0.0
H944 H 0.13072 0.80168 0.08735 0.0
H945 H 0.14069 0.8158 0.20575 0.0
H946 H 0.14395 0.77394 0.21783 0.0
H947 H 0.09561 0.75112 0.09938 0.0
H948 H 0.10778 0.73613 0.05973 0.0
H949 H 0.10685 0.76725 0.06027 0.0
H950 H 0.15116 0.76869 0.04919 0.0
H951 H 0.15225 0.73756 0.04873 0.0
H952 H 0.17025 0.75361 0.08078 0.0
H953 H 0.14622 0.73033 0.21706 0.0
H954 H 0.14557 0.68843 0.20388 0.0
H955 H 0.13323 0.70289 0.08623 0.0
C956 C 0.13366 0.79604 0.11585 0.0
C957 C 0.13551 0.81216 0.14557 0.0
C958 C 0.13919 0.80389 0.18245 0.0
C959 C 0.14113 0.78011 0.18962 0.0
C960 C 0.13925 0.76474 0.15968 0.0
C961 C 0.13547 0.77237 0.12356 0.0
C962 C 0.13355 0.75225 0.09649 0.0
C963 C 0.10952 0.75166 0.07788 0.0
C964 C 0.15296 0.75308 0.06706 0.0
C965 C 0.13679 0.73211 0.12305 0.0
C966 C 0.14021 0.73967 0.15933 0.0
C967 C 0.14356 0.72421 0.18874 0.0
C968 C 0.14321 0.70041 0.18093 0.0
C969 C 0.13938 0.69222 0.144 0.0
C970 C 0.13626 0.70844 0.11478 0.0
H971 H 0.45291 0.88324 0.33254 0.0
H972 H 0.43994 0.86444 0.44851 0.0
H973 H 0.48164 0.86244 0.45998 0.0
H974 H 0.504 0.84622 0.32039 0.0
H975 H 0.51944 0.86678 0.29195 0.0
H976 H 0.48822 0.86633 0.29151 0.0
H977 H 0.48745 0.90966 0.30958 0.0
H978 H 0.51866 0.91023 0.3102 0.0
H979 H 0.50259 0.9192 0.35097 0.0
H980 H 0.52382 0.86344 0.46097 0.0
H981 H 0.56554 0.86622 0.45111 0.0
H982 H 0.55394 0.88405 0.33428 0.0
C983 C 0.45887 0.87854 0.36023 0.0
C984 C 0.44287 0.87408 0.38959 0.0
C985 C 0.45155 0.86808 0.42546 0.0
C986 C 0.47534 0.86685 0.43237 0.0
C987 C 0.49053 0.87159 0.40322 0.0
C988 C 0.48284 0.87722 0.36779 0.0
C989 C 0.50337 0.88172 0.34194 0.0
C990 C 0.50378 0.86422 0.30952 0.0
C991 C 0.50299 0.90669 0.32731 0.0
C992 C 0.52363 0.87785 0.36862 0.0
C993 C 0.51556 0.87204 0.40375 0.0
C994 C 0.53041 0.86788 0.43356 0.0
C995 C 0.55424 0.86959 0.42754 0.0
C996 C 0.56335 0.87538 0.39183 0.0
C997 C 0.54768 0.87956 0.36189 0.0
H998 H 0.37059 0.3035 0.666 0.0
H999 H 0.37231 0.31647 0.54617 0.0
H1000 H 0.37176 0.27463 0.53423 0.0
H1001 H 0.40746 0.25384 0.66512 0.0
H1002 H 0.39153 0.23849 0.70062 0.0
H1003 H 0.39153 0.26963 0.70022 0.0
H1004 H 0.34667 0.26974 0.69808 0.0
H1005 H 0.34654 0.23859 0.69849 0.0
H1006 H 0.33193 0.254 0.66156 0.0
H1007 H 0.37267 0.23189 0.5347 0.0
H1008 H 0.37372 0.19024 0.54742 0.0
H1009 H 0.37022 0.20412 0.66693 0.0
C1010 C 0.37074 0.29757 0.63724 0.0
C1011 C 0.37149 0.31339 0.60705 0.0
C1012 C 0.3717 0.30482 0.56984 0.0
C1013 C 0.3714 0.28104 0.5627 0.0
C1014 C 0.37076 0.26598 0.593 0.0
C1015 C 0.37032 0.27382 0.62953 0.0
C1016 C 0.36981 0.25378 0.65688 0.0
C1017 C 0.39137 0.25395 0.6822 0.0
C1018 C 0.3474 0.25405 0.68012 0.0
C1019 C 0.37023 0.23351 0.62991 0.0
C1020 C 0.37082 0.24103 0.59325 0.0
C1021 C 0.37199 0.22573 0.56327 0.0
C1022 C 0.37256 0.20204 0.57086 0.0
C1023 C 0.3718 0.19376 0.6082 0.0
C1024 C 0.37055 0.20982 0.63807 0.0
H1025 H 0.05595 0.12581 0.84203 0.0
H1026 H 0.07061 0.11888 0.96079 0.0
H1027 H 0.02861 0.1173 0.97374 0.0
H1028 H 0.00598 0.16172 0.85067 0.0
H1029 H 0.99077 0.14812 0.81247 0.0
H1030 H 0.02195 0.14871 0.81274 0.0
H1031 H 0.02291 0.10408 0.80637 0.0
H1032 H 0.99172 0.10337 0.80611 0.0
H1033 H 0.00761 0.08658 0.83995 0.0
H1034 H 0.98486 0.11733 0.97369 0.0
H1035 H 0.94288 0.11817 0.96063 0.0
H1036 H 0.95732 0.12382 0.84164 0.0
C1037 C 0.05045 0.1239 0.87081 0.0
C1038 C 0.06669 0.12243 0.90038 0.0
C1039 C 0.05857 0.11999 0.93761 0.0
C1040 C 0.03473 0.11908 0.94526 0.0
C1041 C 0.01926 0.1205 0.91539 0.0
C1042 C 0.02681 0.12277 0.8789 0.0
C1043 C 0.00669 0.1238 0.85177 0.0
C1044 C 0.00633 0.14697 0.83068 0.0
C1045 C 0.00727 0.10323 0.82444 0.0
C1046 C 0.98658 0.12192 0.87872 0.0
C1047 C 0.99417 0.12009 0.91529 0.0
C1048 C 0.97872 0.11865 0.94514 0.0
C1049 C 0.9549 0.11916 0.93741 0.0
C1050 C 0.94673 0.12098 0.90008 0.0
C1051 C 0.96291 0.12225 0.87046 0.0
H1052 H 0.13205 0.30229 0.83025 0.0
H1053 H 0.14641 0.31715 0.94729 0.0
H1054 H 0.14924 0.27548 0.96007 0.0
H1055 H 0.09651 0.25258 0.84666 0.0
H1056 H 0.10703 0.23673 0.80664 0.0
H1057 H 0.10688 0.26787 0.80605 0.0
H1058 H 0.15081 0.26806 0.79134 0.0
H1059 H 0.15109 0.23692 0.79187 0.0
H1060 H 0.17049 0.25288 0.82184 0.0
H1061 H 0.14978 0.2323 0.96093 0.0
H1062 H 0.14768 0.19036 0.94985 0.0
H1063 H 0.13278 0.20293 0.83235 0.0
C1064 C 0.13596 0.29682 0.85853 0.0
C1065 C 0.13913 0.31318 0.88768 0.0
C1066 C 0.14399 0.30513 0.92435 0.0
C1067 C 0.14564 0.28143 0.93197 0.0
C1068 C 0.14236 0.26584 0.9027 0.0
C1069 C 0.1376 0.27315 0.86672 0.0
C1070 C 0.13432 0.25269 0.84059 0.0
C1071 C 0.10973 0.25246 0.82401 0.0
C1072 C 0.15278 0.25264 0.80958 0.0
C1073 C 0.13791 0.23277 0.86759 0.0
C1074 C 0.14257 0.2408 0.90323 0.0
C1075 C 0.14622 0.2258 0.9331 0.0
C1076 C 0.14499 0.20194 0.92646 0.0
C1077 C 0.14015 0.19317 0.89017 0.0
C1078 C 0.13664 0.20895 0.86039 0.0
H1079 H 0.95298 0.8781 0.16479 0.0
H1080 H 0.93908 0.89071 0.04702 0.0
H1081 H 0.98098 0.89146 0.03446 0.0
H1082 H 1.00333 0.91553 0.17097 0.0
H1083 H 0.01874 0.8968 0.20264 0.0
H1084 H 0.98753 0.89718 0.2027 0.0
H1085 H 0.98694 0.85295 0.19139 0.0
H1086 H 0.01814 0.85246 0.19122 0.0
H1087 H 1.00227 0.84106 0.15185 0.0
H1088 H 0.02425 0.88983 0.03385 0.0
H1089 H 0.06619 0.88753 0.04561 0.0
H1090 H 0.05287 0.87723 0.16412 0.0
C1091 C 0.95871 0.8811 0.13637 0.0
C1092 C 0.94253 0.88437 0.10693 0.0
C1093 C 0.95094 0.88823 0.07016 0.0
C1094 C 0.97479 0.88865 0.06267 0.0
C1095 C 0.99018 0.88534 0.09221 0.0
C1096 C 0.98255 0.88179 0.12838 0.0
C1097 C 1.0029 0.87891 0.15501 0.0
C1098 C 1.00313 0.89826 0.18458 0.0
C1099 C 1.00253 0.85492 0.17345 0.0
C1100 C 0.02312 0.88125 0.12806 0.0
C1101 C 0.01532 0.88485 0.09197 0.0
C1102 C 0.03057 0.88712 0.06202 0.0
C1103 C 0.05443 0.88572 0.06903 0.0
C1104 C 0.06301 0.88223 0.10582 0.0
C1105 C 0.04699 0.88002 0.1357 0.0
H1106 H 0.38316 0.70362 0.33355 0.0
H1107 H 0.33272 0.69177 0.42126 0.0
H1108 H 0.32417 0.73349 0.42364 0.0
H1109 H 0.40648 0.75374 0.37267 0.0
H1110 H 0.41126 0.76875 0.32919 0.0
H1111 H 0.41109 0.73766 0.33004 0.0
H1112 H 0.37898 0.73708 0.27941 0.0
H1113 H 0.37909 0.76824 0.27832 0.0
H1114 H 0.3525 0.75288 0.28721 0.0
H1115 H 0.32375 0.77583 0.42154 0.0
H1116 H 0.33217 0.81734 0.41652 0.0
H1117 H 0.38345 0.80328 0.33072 0.0
C1118 C 0.36991 0.70987 0.35249 0.0
C1119 C 0.35848 0.69464 0.3772 0.0
C1120 C 0.3417 0.70328 0.40236 0.0
C1121 C 0.33661 0.72689 0.40366 0.0
C1122 C 0.34851 0.74161 0.37963 0.0
C1123 C 0.36483 0.73356 0.35448 0.0
C1124 C 0.37668 0.75349 0.33454 0.0
C1125 C 0.40293 0.7534 0.34208 0.0
C1126 C 0.3715 0.75288 0.29236 0.0
C1127 C 0.36493 0.77393 0.35328 0.0
C1128 C 0.34851 0.76654 0.37876 0.0
C1129 C 0.33636 0.78188 0.40141 0.0
C1130 C 0.34139 0.80541 0.39856 0.0
C1131 C 0.35848 0.81346 0.37336 0.0
C1132 C 0.37004 0.79757 0.34979 0.0
H1133 H 0.55358 0.11523 0.5822 0.0
H1134 H 0.56764 0.1277 0.70011 0.0
H1135 H 0.52579 0.12953 0.71251 0.0
H1136 H 0.50514 0.15355 0.57506 0.0
H1137 H 0.48898 0.1352 0.54368 0.0
H1138 H 0.52017 0.13417 0.54383 0.0
H1139 H 0.51884 0.09008 0.55622 0.0
H1140 H 0.48764 0.09096 0.55604 0.0
H1141 H 0.50283 0.07929 0.59584 0.0
H1142 H 0.48278 0.13104 0.71237 0.0
H1143 H 0.44094 0.13153 0.69996 0.0
H1144 H 0.45414 0.11789 0.58214 0.0
C1145 C 0.5479 0.1182 0.61069 0.0
C1146 C 0.56403 0.12124 0.64017 0.0
C1147 C 0.55575 0.12524 0.67699 0.0
C1148 C 0.53196 0.12633 0.68438 0.0
C1149 C 0.5166 0.12339 0.65472 0.0
C1150 C 0.52416 0.11936 0.61863 0.0
C1151 C 0.50389 0.1171 0.59182 0.0
C1152 C 0.50459 0.13614 0.56183 0.0
C1153 C 0.50327 0.09292 0.57393 0.0
C1154 C 0.48379 0.1206 0.61855 0.0
C1155 C 0.49158 0.12419 0.65466 0.0
C1156 C 0.47643 0.12814 0.68424 0.0
C1157 C 0.45263 0.12838 0.67682 0.0
C1158 C 0.44409 0.12463 0.64005 0.0
C1159 C 0.46001 0.1207 0.61058 0.0
H1160 H 0.8763 0.20287 0.91639 0.0
H1161 H 0.8832 0.18939 0.79716 0.0
H1162 H 0.88277 0.23129 0.78493 0.0
H1163 H 0.83759 0.25116 0.90831 0.0
H1164 H 0.85046 0.26691 0.9466 0.0
H1165 H 0.85136 0.23578 0.94611 0.0
H1166 H 0.89607 0.23691 0.95242 0.0
H1167 H 0.89532 0.26804 0.95296 0.0
H1168 H 0.91287 0.25308 0.91895 0.0
H1169 H 0.8814 0.27461 0.78547 0.0
H1170 H 0.87975 0.3164 0.79891 0.0
H1171 H 0.87397 0.30147 0.91776 0.0
C1172 C 0.87772 0.20866 0.88767 0.0
C1173 C 0.87975 0.19275 0.85776 0.0
C1174 C 0.88162 0.20117 0.82061 0.0
C1175 C 0.88138 0.22496 0.81333 0.0
C1176 C 0.87929 0.24012 0.84344 0.0
C1177 C 0.87755 0.23233 0.87987 0.0
C1178 C 0.87557 0.25227 0.90719 0.0
C1179 C 0.85236 0.25147 0.92828 0.0
C1180 C 0.89619 0.25258 0.93449 0.0
C1181 C 0.87649 0.27247 0.88038 0.0
C1182 C 0.8786 0.2651 0.84376 0.0
C1183 C 0.87975 0.28061 0.81404 0.0
C1184 C 0.87877 0.30433 0.822 0.0
C1185 C 0.87669 0.31231 0.8594 0.0
C1186 C 0.87554 0.29604 0.88885 0.0
H1187 H 0.63511 0.69908 0.41759 0.0
H1188 H 0.64919 0.68646 0.29976 0.0
H1189 H 0.65131 0.72833 0.28881 0.0
H1190 H 0.59869 0.74744 0.40451 0.0
H1191 H 0.60906 0.76322 0.44469 0.0
H1192 H 0.61018 0.73211 0.44431 0.0
H1193 H 0.65428 0.73341 0.45752 0.0
H1194 H 0.65327 0.76455 0.4582 0.0
H1195 H 0.67293 0.74982 0.42705 0.0
H1196 H 0.64927 0.77133 0.28923 0.0
H1197 H 0.64504 0.81301 0.30183 0.0
H1198 H 0.63292 0.79818 0.41943 0.0
C1199 C 0.63898 0.70508 0.38958 0.0
C1200 C 0.64198 0.68934 0.35959 0.0
C1201 C 0.64683 0.69804 0.32331 0.0
C1202 C 0.64807 0.72185 0.31672 0.0
C1203 C 0.64458 0.73684 0.34667 0.0
C1204 C 0.64033 0.72886 0.38245 0.0
C1205 C 0.63655 0.74879 0.40942 0.0
C1206 C 0.61217 0.74782 0.42674 0.0
C1207 C 0.65538 0.74916 0.43984 0.0
C1208 C 0.639 0.76914 0.38301 0.0
C1209 C 0.64364 0.76182 0.34698 0.0
C1210 C 0.64584 0.77732 0.3174 0.0
C1211 C 0.64332 0.80097 0.32485 0.0
C1212 C 0.63871 0.80896 0.36164 0.0
C1213 C 0.63661 0.79271 0.39104 0.0
H1214 H 0.86786 0.7014 0.1689 0.0
H1215 H 0.87301 0.68963 0.04893 0.0
H1216 H 0.87334 0.73156 0.03838 0.0
H1217 H 0.83068 0.7522 0.16392 0.0
H1218 H 0.84491 0.7668 0.20216 0.0
H1219 H 0.84414 0.73567 0.20073 0.0
H1220 H 0.88888 0.73443 0.2055 0.0
H1221 H 0.88981 0.76555 0.20681 0.0
H1222 H 0.90605 0.75001 0.1718 0.0
H1223 H 0.87429 0.774 0.04012 0.0
H1224 H 0.87539 0.81542 0.05358 0.0
H1225 H 0.86989 0.80114 0.17279 0.0
C1226 C 0.8688 0.70762 0.14038 0.0
C1227 C 0.87025 0.69209 0.10973 0.0
C1228 C 0.87177 0.70104 0.0729 0.0
C1229 C 0.87199 0.72488 0.06657 0.0
C1230 C 0.87075 0.73964 0.0973 0.0
C1231 C 0.86916 0.73148 0.13348 0.0
C1232 C 0.86863 0.75132 0.16142 0.0
C1233 C 0.84572 0.75151 0.18335 0.0
C1234 C 0.88959 0.75026 0.18794 0.0
C1235 C 0.87025 0.77186 0.13515 0.0
C1236 C 0.87142 0.76455 0.09834 0.0
C1237 C 0.87328 0.77998 0.06879 0.0
C1238 C 0.87388 0.80358 0.07689 0.0
C1239 C 0.87261 0.81175 0.11435 0.0
C1240 C 0.87081 0.79555 0.14388 0.0
H1241 H 0.63825 0.29936 0.67518 0.0
H1242 H 0.63165 0.31422 0.55629 0.0
H1243 H 0.63149 0.27289 0.54242 0.0
H1244 H 0.67643 0.24962 0.66383 0.0
H1245 H 0.66338 0.23324 0.70115 0.0
H1246 H 0.66319 0.26438 0.70282 0.0
H1247 H 0.61852 0.26408 0.7096 0.0
H1248 H 0.6186 0.23294 0.70797 0.0
H1249 H 0.60122 0.2491 0.67525 0.0
H1250 H 0.63087 0.23058 0.54011 0.0
H1251 H 0.63078 0.18862 0.54976 0.0
H1252 H 0.63872 0.19926 0.66962 0.0
C1253 C 0.63686 0.2939 0.64626 0.0
C1254 C 0.635 0.3103 0.61695 0.0
C1255 C 0.63316 0.30228 0.57946 0.0
C1256 C 0.63303 0.27871 0.57112 0.0
C1257 C 0.63484 0.2631 0.60042 0.0
C1258 C 0.6368 0.27019 0.63724 0.0
C1259 C 0.63845 0.24939 0.66311 0.0
C1260 C 0.66175 0.24915 0.68396 0.0
C1261 C 0.61798 0.24885 0.69061 0.0
C1262 C 0.63697 0.2297 0.63492 0.0
C1263 C 0.63485 0.23816 0.59899 0.0
C1264 C 0.63268 0.22366 0.56809 0.0
C1265 C 0.63266 0.19977 0.57392 0.0
C1266 C 0.63494 0.19046 0.61042 0.0
C1267 C 0.63717 0.20575 0.64132 0.0
H1268 H 0.05346 0.37716 0.83233 0.0
H1269 H 0.06787 0.39131 0.94964 0.0
H1270 H 0.02615 0.39451 0.96193 0.0
H1271 H 0.00467 0.41646 0.82387 0.0
H1272 H 0.98829 0.39761 0.79358 0.0
H1273 H 0.0195 0.39657 0.79323 0.0
H1274 H 0.01825 0.35272 0.80746 0.0
H1275 H 0.98706 0.35362 0.80771 0.0
H1276 H 1.00248 0.34258 0.84776 0.0
H1277 H 0.98343 0.39561 0.96263 0.0
H1278 H 0.94146 0.39387 0.95204 0.0
H1279 H 0.95322 0.3795 0.83414 0.0
C1280 C 0.04787 0.38096 0.86061 0.0
C1281 C 0.06416 0.38402 0.88998 0.0
C1282 C 0.05594 0.38892 0.92656 0.0
C1283 C 0.0322 0.39081 0.93388 0.0
C1284 C 0.01671 0.38783 0.90441 0.0
C1285 C 0.02409 0.38298 0.8685 0.0
C1286 C 1.00353 0.38031 0.84216 0.0
C1287 C 0.00403 0.39885 0.81139 0.0
C1288 C 1.00279 0.35585 0.82528 0.0
C1289 C 0.9835 0.38427 0.86906 0.0
C1290 C 0.99166 0.38861 0.90476 0.0
C1291 C 0.9768 0.39228 0.9348 0.0
C1292 C 0.95292 0.3912 0.92843 0.0
C1293 C 0.94392 0.38652 0.89224 0.0
C1294 C 0.95951 0.38331 0.86203 0.0
H1295 H 0.55273 0.61779 0.42898 0.0
H1296 H 0.56469 0.65078 0.32153 0.0
H1297 H 0.5232 0.65819 0.31502 0.0
H1298 H 0.50141 0.58898 0.40225 0.0
H1299 H 0.48649 0.59272 0.44616 0.0
H1300 H 0.51766 0.59186 0.44513 0.0
H1301 H 0.51933 0.63164 0.47843 0.0
H1302 H 0.48812 0.63259 0.47964 0.0
H1303 H 0.50413 0.6559 0.4585 0.0
H1304 H 0.48125 0.65934 0.31629 0.0
H1305 H 0.43953 0.6544 0.32569 0.0
H1306 H 0.4525 0.62101 0.43251 0.0
C1307 C 0.54657 0.62692 0.40448 0.0
C1308 C 0.56202 0.63367 0.37575 0.0
C1309 C 0.55329 0.64528 0.34381 0.0
C1310 C 0.5297 0.64972 0.33989 0.0
C1311 C 0.51491 0.64251 0.36815 0.0
C1312 C 0.52281 0.63141 0.39991 0.0
C1313 C 0.50264 0.62428 0.42467 0.0
C1314 C 0.50202 0.59789 0.42984 0.0
C1315 C 0.50362 0.63686 0.46256 0.0
C1316 C 0.48233 0.63265 0.40124 0.0
C1317 C 0.49002 0.64327 0.36896 0.0
C1318 C 0.47493 0.65133 0.34165 0.0
C1319 C 0.45122 0.64832 0.3472 0.0
C1320 C 0.44273 0.63738 0.37986 0.0
C1321 C 0.45851 0.62972 0.40753 0.0
H1322 H 0.55411 0.37125 0.66802 0.0
H1323 H 0.56725 0.39651 0.55543 0.0
H1324 H 0.5254 0.40031 0.54497 0.0
H1325 H 0.50334 0.33779 0.64463 0.0
H1326 H 0.48807 0.34459 0.68726 0.0
H1327 H 0.51928 0.34409 0.68684 0.0
H1328 H 0.52017 0.38601 0.71225 0.0
H1329 H 0.48896 0.38665 0.71272 0.0
H1330 H 0.50486 0.40842 0.68744 0.0
H1331 H 0.48286 0.40128 0.54554 0.0
H1332 H 0.44112 0.39883 0.55638 0.0
H1333 H 0.45366 0.3728 0.66876 0.0
C1334 C 0.54819 0.37762 0.64118 0.0
C1335 C 0.56417 0.38359 0.61257 0.0
C1336 C 0.55556 0.39178 0.57785 0.0
C1337 C 0.53174 0.39406 0.5716 0.0
C1338 C 0.51657 0.38806 0.60023 0.0
C1339 C 0.52431 0.37997 0.63433 0.0
C1340 C 0.50398 0.3745 0.65998 0.0
C1341 C 0.50366 0.34871 0.67028 0.0
C1342 C 0.50453 0.38981 0.69519 0.0
C1343 C 0.48367 0.38075 0.63478 0.0
C1344 C 0.49153 0.38856 0.60054 0.0
C1345 C 0.47646 0.39518 0.57222 0.0
C1346 C 0.45266 0.39365 0.57876 0.0
C1347 C 0.44386 0.38552 0.61346 0.0
C1348 C 0.45972 0.37914 0.64199 0.0
H1349 H 0.05319 0.61926 0.07145 0.0
H1350 H 0.06696 0.64067 0.18613 0.0
H1351 H 0.02551 0.64256 0.19858 0.0
H1352 H 1.00142 0.65548 0.05899 0.0
H1353 H 0.98606 0.63406 0.03197 0.0
H1354 H 0.01725 0.63512 0.03055 0.0
H1355 H 0.01908 0.59214 0.05057 0.0
H1356 H 0.98792 0.59099 0.05222 0.0
H1357 H 0.00467 0.58315 0.09286 0.0
H1358 H 0.98357 0.64088 0.20092 0.0
H1359 H 0.94173 0.63694 0.19212 0.0
H1360 H 0.9529 0.61683 0.07607 0.0
C1361 C 0.04743 0.62456 0.09899 0.0
C1362 C 0.06351 0.6297 0.12776 0.0
C1363 C 0.0552 0.63646 0.16354 0.0
C1364 C 0.03158 0.63766 0.17103 0.0
C1365 C 0.01626 0.63214 0.14251 0.0
C1366 C 0.02363 0.62585 0.10713 0.0
C1367 C 1.00302 0.62043 0.08211 0.0
C1368 C 1.00187 0.63728 0.04894 0.0
C1369 C 0.00372 0.59517 0.06866 0.0
C1370 C 0.98317 0.62446 0.10929 0.0
C1371 C 0.99139 0.63124 0.14387 0.0
C1372 C 0.9768 0.6357 0.17393 0.0
C1373 C 0.95299 0.63334 0.16859 0.0
C1374 C 0.94388 0.62656 0.13338 0.0
C1375 C 0.95927 0.62204 0.10332 0.0
H1376 H 0.12506 0.53532 0.06691 0.0
H1377 H 0.12129 0.58523 0.97659 0.0
H1378 H 0.12183 0.55341 0.93038 0.0
H1379 H 0.16494 0.49676 0.02001 0.0
H1380 H 0.15199 0.4709 0.03874 0.0
H1381 H 0.15058 0.49755 0.0648 0.0
H1382 H 0.10587 0.49427 0.06765 0.0
H1383 H 0.10715 0.46761 0.04164 0.0
H1384 H 0.08964 0.49121 0.02481 0.0
H1385 H 0.12112 0.51602 0.89401 0.0
H1386 H 0.12227 0.47588 0.87 0.0
H1387 H 0.12939 0.4504 0.98358 0.0
C1388 C 0.12424 0.53951 0.0374 0.0
C1389 C 0.12295 0.56274 0.02532 0.0
C1390 C 0.12227 0.56757 0.98646 0.0
C1391 C 0.12252 0.54961 0.96001 0.0
C1392 C 0.12381 0.5269 0.9728 0.0
C1393 C 0.12493 0.52179 0.01055 0.0
C1394 C 0.127 0.49595 0.01678 0.0
C1395 C 0.15 0.48994 0.03623 0.0
C1396 C 0.10617 0.48672 0.03903 0.0
C1397 C 0.12666 0.48732 0.97668 0.0
C1398 C 0.12457 0.50543 0.95175 0.0
C1399 C 0.12298 0.50171 0.91325 0.0
C1400 C 0.12359 0.47887 0.89987 0.0
C1401 C 0.12613 0.46008 0.92486 0.0
C1402 C 0.12778 0.46445 0.96375 0.0
H1403 H 0.69531 0.87498 0.25552 0.0
H1404 H 0.72077 0.87795 0.36969 0.0
H1405 H 0.76091 0.87925 0.34651 0.0
H1406 H 0.7394 0.83687 0.22235 0.0
H1407 H 0.742 0.84997 0.1768 0.0
H1408 H 0.71494 0.85148 0.20174 0.0
H1409 H 0.7153 0.89611 0.19647 0.0
H1410 H 0.74233 0.89472 0.17134 0.0
H1411 H 0.74009 0.91204 0.21317 0.0
H1412 H 0.79825 0.87916 0.31188 0.0
H1413 H 0.83087 0.87628 0.26768 0.0
H1414 H 0.78231 0.87118 0.17513 0.0
C1415 C 0.70937 0.87634 0.27547 0.0
C1416 C 0.70492 0.8766 0.31445 0.0
C1417 C 0.72377 0.8778 0.33977 0.0
C1418 C 0.74665 0.87858 0.32686 0.0
C1419 C 0.75056 0.87789 0.28844 0.0
C1420 C 0.73253 0.8767 0.263 0.0
C1421 C 0.74182 0.8747 0.22328 0.0
C1422 C 0.73408 0.8519 0.20497 0.0
C1423 C 0.73444 0.89564 0.19967 0.0
C1424 C 0.76779 0.87483 0.23054 0.0
C1425 C 0.77235 0.87694 0.26834 0.0
C1426 C 0.79491 0.87751 0.28219 0.0
C1427 C 0.81336 0.87587 0.2568 0.0
C1428 C 0.80925 0.87341 0.21789 0.0
C1429 C 0.78607 0.8729 0.2047 0.0
H1430 H 0.37832 0.45009 0.51183 0.0
H1431 H 0.39446 0.47429 0.62399 0.0
H1432 H 0.399 0.51398 0.59976 0.0
H1433 H 0.41921 0.48674 0.46378 0.0
H1434 H 0.4005 0.4917 0.4242 0.0
H1435 H 0.3983 0.46515 0.45025 0.0
H1436 H 0.35465 0.47277 0.46159 0.0
H1437 H 0.35667 0.49926 0.43539 0.0
H1438 H 0.34568 0.49968 0.48261 0.0
H1439 H 0.40041 0.55102 0.56412 0.0
H1440 H 0.39924 0.58324 0.51909 0.0
H1441 H 0.38401 0.53501 0.42921 0.0
C1442 C 0.38272 0.46376 0.53134 0.0
C1443 C 0.38596 0.45913 0.56986 0.0
C1444 C 0.39192 0.47744 0.59439 0.0
C1445 C 0.39454 0.50002 0.58089 0.0
C1446 C 0.39138 0.50396 0.54275 0.0
C1447 C 0.38567 0.48636 0.51827 0.0
C1448 C 0.38334 0.49528 0.47854 0.0
C1449 C 0.40142 0.48405 0.45267 0.0
C1450 C 0.35861 0.49153 0.46367 0.0
C1451 C 0.38841 0.52072 0.48458 0.0
C1452 C 0.39293 0.52531 0.52189 0.0
C1453 C 0.3971 0.54763 0.5348 0.0
C1454 C 0.39637 0.5658 0.50902 0.0
C1455 C 0.39173 0.56157 0.47067 0.0
C1456 C 0.388 0.53867 0.45825 0.0
H1457 H 0.70924 0.16563 0.74345 0.0
H1458 H 0.71239 0.1081 0.66553 0.0
H1459 H 0.75248 0.0998 0.68599 0.0
H1460 H 0.76919 0.18429 0.7349 0.0
H1461 H 0.77185 0.19094 0.78402 0.0
H1462 H 0.74412 0.19328 0.76123 0.0
H1463 H 0.72633 0.16547 0.81022 0.0
H1464 H 0.75403 0.16293 0.83303 0.0
H1465 H 0.73913 0.13736 0.81712 0.0
H1466 H 0.79206 0.09742 0.71599 0.0
H1467 H 0.82743 0.1002 0.7548 0.0
H1468 H 0.7974 0.15814 0.81505 0.0
C1469 C 0.7185 0.15152 0.73024 0.0
C1470 C 0.70783 0.13765 0.7026 0.0
C1471 C 0.72031 0.119 0.68663 0.0
C1472 C 0.74308 0.11418 0.69803 0.0
C1473 C 0.753 0.12804 0.72568 0.0
C1474 C 0.74107 0.14626 0.74169 0.0
C1475 C 0.75517 0.15771 0.7723 0.0
C1476 C 0.76039 0.18306 0.76251 0.0
C1477 C 0.74293 0.15574 0.81041 0.0
C1478 C 0.77689 0.14307 0.77107 0.0
C1479 C 0.77541 0.12617 0.74379 0.0
C1480 C 0.79341 0.11059 0.73743 0.0
C1481 C 0.81343 0.11231 0.7596 0.0
C1482 C 0.81516 0.12934 0.78802 0.0
C1483 C 0.79659 0.14487 0.79367 0.0
H1484 H 0.88286 0.46914 0.93291 0.0
H1485 H 0.87905 0.42055 0.02516 0.0
H1486 H 0.88086 0.45296 0.07013 0.0
H1487 H 0.9222 0.50922 0.97543 0.0
H1488 H 0.90807 0.53448 0.95673 0.0
H1489 H 0.90666 0.50745 0.93173 0.0
H1490 H 0.86183 0.50951 0.93194 0.0
H1491 H 0.8631 0.53659 0.95682 0.0
H1492 H 0.8467 0.51282 0.97577 0.0
H1493 H 0.88466 0.4906 0.1051 0.0
H1494 H 0.88695 0.53101 0.12749 0.0
H1495 H 0.88628 0.55508 0.01247 0.0
C1496 C 0.88242 0.46533 0.96257 0.0
C1497 C 0.88092 0.44233 0.97557 0.0
C1498 C 0.88013 0.43805 0.01458 0.0
C1499 C 0.88124 0.45633 0.04035 0.0
C1500 C 0.88286 0.4788 0.02664 0.0
C1501 C 0.88316 0.48339 0.98868 0.0
C1502 C 0.88437 0.50914 0.98131 0.0
C1503 C 0.90665 0.51543 0.96005 0.0
C1504 C 0.86271 0.5175 0.96022 0.0
C1505 C 0.88488 0.51829 0.02104 0.0
C1506 C 0.8842 0.50051 0.04679 0.0
C1507 C 0.88506 0.50468 0.08521 0.0
C1508 C 0.88645 0.52766 0.09765 0.0
C1509 C 0.8867 0.54614 0.07173 0.0
C1510 C 0.88593 0.5413 0.03296 0.0
H1511 H 0.22387 0.13557 0.8222 0.0
H1512 H 0.17261 0.13723 0.73325 0.0
H1513 H 0.20386 0.13782 0.68622 0.0
H1514 H 0.26572 0.17307 0.77828 0.0
H1515 H 0.29039 0.15686 0.79462 0.0
H1516 H 0.26398 0.15707 0.82145 0.0
H1517 H 0.26277 0.11231 0.81938 0.0
H1518 H 0.28917 0.11197 0.79253 0.0
H1519 H 0.26367 0.0977 0.77478 0.0
H1520 H 0.24068 0.13875 0.64867 0.0
H1521 H 0.28054 0.13839 0.6234 0.0
H1522 H 0.30776 0.13478 0.73656 0.0
C1523 C 0.21923 0.13618 0.79284 0.0
C1524 C 0.19578 0.13645 0.78143 0.0
C1525 C 0.19044 0.13698 0.7427 0.0
C1526 C 0.20807 0.13737 0.71573 0.0
C1527 C 0.23099 0.13704 0.72787 0.0
C1528 C 0.23663 0.13633 0.76548 0.0
C1529 C 0.26264 0.13553 0.77097 0.0
C1530 C 0.27118 0.15691 0.7926 0.0
C1531 C 0.26999 0.11304 0.79057 0.0
C1532 C 0.27071 0.13598 0.73061 0.0
C1533 C 0.25219 0.13699 0.70619 0.0
C1534 C 0.25533 0.13789 0.66752 0.0
C1535 C 0.27803 0.13773 0.65342 0.0
C1536 C 0.29726 0.13648 0.67794 0.0
C1537 C 0.29343 0.13558 0.71703 0.0
H1538 H 0.6221 0.56516 0.50622 0.0
H1539 H 0.61266 0.53639 0.39492 0.0
H1540 H 0.61573 0.49713 0.42058 0.0
H1541 H 0.66253 0.52271 0.5407 0.0
H1542 H 0.65018 0.5212 0.58696 0.0
H1543 H 0.64785 0.54747 0.56019 0.0
H1544 H 0.60325 0.54661 0.56757 0.0
H1545 H 0.60544 0.52037 0.59446 0.0
H1546 H 0.58741 0.52123 0.55328 0.0
H1547 H 0.62142 0.46145 0.45645 0.0
H1548 H 0.62567 0.43013 0.5021 0.0
H1549 H 0.62847 0.4803 0.59255 0.0
C1550 C 0.6207 0.55054 0.48738 0.0
C1551 C 0.61728 0.55383 0.44848 0.0
C1552 C 0.61525 0.53432 0.42473 0.0
C1553 C 0.61705 0.51192 0.43903 0.0
C1554 C 0.62045 0.50922 0.47732 0.0
C1555 C 0.62191 0.52786 0.5014 0.0
C1556 C 0.62467 0.51974 0.54166 0.0
C1557 C 0.64768 0.52829 0.55836 0.0
C1558 C 0.60396 0.52744 0.56566 0.0
C1559 C 0.62482 0.49366 0.53619 0.0
C1560 C 0.62262 0.48817 0.49868 0.0
C1561 C 0.62302 0.46547 0.48593 0.0
C1562 C 0.62561 0.44779 0.51215 0.0
C1563 C 0.6275 0.45274 0.55089 0.0
C1564 C 0.62695 0.47603 0.56313 0.0
H1565 H 0.31113 0.87383 0.25355 0.0
H1566 H 0.28667 0.89189 0.36461 0.0
H1567 H 0.24697 0.8961 0.3402 0.0
H1568 H 0.27154 0.91142 0.20032 0.0
H1569 H 0.26687 0.8904 0.1638 0.0
H1570 H 0.29394 0.89085 0.18897 0.0
H1571 H 0.28841 0.84779 0.2065 0.0
H1572 H 0.26132 0.84724 0.1815 0.0
H1573 H 0.26228 0.83892 0.23008 0.0
H1574 H 0.20986 0.89747 0.30489 0.0
H1575 H 0.17696 0.89384 0.26136 0.0
H1576 H 0.2241 0.87259 0.17303 0.0
C1577 C 0.29743 0.87907 0.27245 0.0
C1578 C 0.30201 0.88278 0.31094 0.0
C1579 C 0.28357 0.88903 0.33505 0.0
C1580 C 0.26096 0.89153 0.32143 0.0
C1581 C 0.25688 0.88743 0.28359 0.0
C1582 C 0.2745 0.88119 0.25938 0.0
C1583 C 0.2649 0.87627 0.22051 0.0
C1584 C 0.27491 0.89325 0.1917 0.0
C1585 C 0.2695 0.85106 0.20898 0.0
C1586 C 0.23921 0.88058 0.22686 0.0
C1587 C 0.23509 0.8873 0.26337 0.0
C1588 C 0.21285 0.89225 0.2762 0.0
C1589 C 0.19424 0.89015 0.25118 0.0
C1590 C 0.19784 0.88288 0.21373 0.0
C1591 C 0.22072 0.87811 0.20149 0.0
H1592 H 0.61912 0.05335 0.51007 0.0
H1593 H 0.62114 0.02939 0.62513 0.0
H1594 H 0.62259 0.98899 0.60283 0.0
H1595 H 0.58209 0.00764 0.47548 0.0
H1596 H 0.59655 0.00562 0.43088 0.0
H1597 H 0.59603 0.03272 0.4558 0.0
H1598 H 0.64083 0.03451 0.45335 0.0
H1599 H 0.64149 0.00741 0.42846 0.0
H1600 H 0.65755 0.01068 0.47141 0.0
H1601 H 0.62521 0.95135 0.56823 0.0
H1602 H 0.62634 0.91872 0.52371 0.0
H1603 H 0.62067 0.96676 0.43092 0.0
C1604 C 0.61989 0.03959 0.53056 0.0
C1605 C 0.62008 0.04452 0.56937 0.0
C1606 C 0.62089 0.02604 0.59529 0.0
C1607 C 0.62179 0.00303 0.58289 0.0
C1608 C 0.62162 0.99877 0.54449 0.0
C1609 C 0.62047 0.01649 0.51868 0.0
C1610 C 0.62002 0.00711 0.47899 0.0
C1611 C 0.59732 0.01366 0.45913 0.0
C1612 C 0.64124 0.01543 0.45675 0.0
C1613 C 0.62123 0.98135 0.48654 0.0
C1614 C 0.62232 0.97696 0.52452 0.0
C1615 C 0.6242 0.95456 0.53844 0.0
C1616 C 0.6249 0.93614 0.51291 0.0
C1617 C 0.62345 0.94017 0.47386 0.0
C1618 C 0.62155 0.96312 0.46062 0.0
H1619 H 0.31217 0.37047 0.74617 0.0
H1620 H 0.2869 0.36663 0.63175 0.0
H1621 H 0.24682 0.36709 0.65461 0.0
H1622 H 0.2683 0.333 0.78555 0.0
H1623 H 0.26548 0.34912 0.82853 0.0
H1624 H 0.29259 0.34913 0.80359 0.0
H1625 H 0.29179 0.39386 0.80123 0.0
H1626 H 0.26467 0.39397 0.82618 0.0
H1627 H 0.26695 0.40833 0.7816 0.0
H1628 H 0.20949 0.36829 0.68866 0.0
H1629 H 0.17672 0.3689 0.73268 0.0
H1630 H 0.22486 0.37067 0.82614 0.0
C1631 C 0.29817 0.3698 0.72601 0.0
C1632 C 0.3028 0.3685 0.68709 0.0
C1633 C 0.28395 0.36752 0.66165 0.0
C1634 C 0.26103 0.36783 0.67434 0.0
C1635 C 0.25703 0.36898 0.71268 0.0
C1636 C 0.27498 0.36985 0.73827 0.0
C1637 C 0.26556 0.37051 0.77803 0.0
C1638 C 0.27346 0.34917 0.80023 0.0
C1639 C 0.27267 0.39301 0.79793 0.0
C1640 C 0.23962 0.3699 0.77059 0.0
C1641 C 0.23519 0.36916 0.73262 0.0
C1642 C 0.21271 0.36881 0.71849 0.0
C1643 C 0.19417 0.36919 0.74379 0.0
C1644 C 0.19812 0.36975 0.78293 0.0
C1645 C 0.22123 0.37008 0.79641 0.0
H1646 H 0.89383 0.06517 0.00879 0.0
H1647 H 0.85257 0.04747 0.91156 0.0
H1648 H 0.84348 0.00944 0.93948 0.0
H1649 H 0.91959 0.01021 0.01816 0.0
H1650 H 0.92011 0.01016 0.06861 0.0
H1651 H 0.92094 0.03713 0.0436 0.0
H1652 H 0.8848 0.05129 0.07999 0.0
H1653 H 0.88387 0.02432 0.10516 0.0
H1654 H 0.85879 0.03405 0.07957 0.0
H1655 H 0.84034 0.97331 0.97569 0.0
H1656 H 0.84565 0.93924 0.01544 0.0
H1657 H 0.89118 0.97861 0.08856 0.0
C1658 C 0.8825 0.05336 0.99397 0.0
C1659 C 0.87349 0.0591 0.95847 0.0
C1660 C 0.85933 0.04323 0.93901 0.0
C1661 C 0.85404 0.02172 0.95469 0.0
C1662 C 0.86332 0.01635 0.98963 0.0
C1663 C 0.87741 0.03156 0.00899 0.0
C1664 C 0.88682 0.0205 0.04439 0.0
C1665 C 0.91344 0.01943 0.04362 0.0
C1666 C 0.87804 0.03331 0.07935 0.0
C1667 C 0.8762 0.99657 0.04143 0.0
C1668 C 0.86237 0.99483 0.00997 0.0
C1669 C 0.85106 0.97444 1.00048 0.0
C1670 C 0.85428 0.95513 0.02332 0.0
C1671 C 0.86899 0.95611 0.05513 0.0
C1672 C 0.8798 0.97729 0.06456 0.0
H1673 H 0.2307 0.63055 0.17061 0.0
H1674 H 0.18109 0.60114 0.24859 0.0
H1675 H 0.21136 0.59815 0.29634 0.0
H1676 H 0.27976 0.59395 0.20158 0.0
H1677 H 0.30067 0.61678 0.19562 0.0
H1678 H 0.27525 0.61578 0.16636 0.0
H1679 H 0.26477 0.65752 0.18662 0.0
H1680 H 0.29004 0.65858 0.21614 0.0
H1681 H 0.26181 0.66415 0.23572 0.0
H1682 H 0.24533 0.60253 0.33828 0.0
H1683 H 0.28311 0.60919 0.36928 0.0
H1684 H 0.31207 0.63218 0.26371 0.0
C1685 C 0.22632 0.62318 0.19754 0.0
C1686 C 0.20341 0.61624 0.20575 0.0
C1687 C 0.19842 0.60663 0.24139 0.0
C1688 C 0.21552 0.60487 0.2689 0.0
C1689 C 0.23773 0.61233 0.26028 0.0
C1690 C 0.24339 0.62083 0.22529 0.0
C1691 C 0.26874 0.6276 0.22366 0.0
C1692 C 0.28188 0.61263 0.19511 0.0
C1693 C 0.27149 0.6535 0.21503 0.0
C1694 C 0.27613 0.6221 0.26341 0.0
C1695 C 0.25789 0.61351 0.28412 0.0
C1696 C 0.25993 0.60878 0.32224 0.0
C1697 C 0.28133 0.61271 0.33964 0.0
C1698 C 0.30038 0.62085 0.31868 0.0
C1699 C 0.29778 0.62549 0.2801 0.0
H1700 H 0.38508 0.0586 0.51172 0.0
H1701 H 0.39755 0.03154 0.62326 0.0
H1702 H 0.40017 0.99208 0.59702 0.0
H1703 H 0.34963 0.01242 0.47925 0.0
H1704 H 0.3611 0.01271 0.43234 0.0
H1705 H 0.3609 0.03885 0.45976 0.0
H1706 H 0.40514 0.04319 0.44995 0.0
H1707 H 0.40551 0.017 0.42257 0.0
H1708 H 0.42414 0.01978 0.46282 0.0
H1709 H 0.39943 0.95563 0.55939 0.0
H1710 H 0.39601 0.92435 0.51284 0.0
H1711 H 0.38535 0.97502 0.42503 0.0
C1712 C 0.38842 0.0444 0.53068 0.0
C1713 C 0.39108 0.04815 0.56962 0.0
C1714 C 0.3955 0.0291 0.59338 0.0
C1715 C 0.39703 0.00663 0.57872 0.0
C1716 C 0.3943 0.00357 0.54024 0.0
C1717 C 0.39018 0.02192 0.51651 0.0
C1718 C 0.38756 0.01387 0.47629 0.0
C1719 C 0.36336 0.01981 0.46103 0.0
C1720 C 0.40674 0.02407 0.45145 0.0
C1721 C 0.39056 0.98803 0.48115 0.0
C1722 C 0.39442 0.98252 0.51831 0.0
C1723 C 0.39664 0.95974 0.53019 0.0
C1724 C 0.39461 0.94211 0.50353 0.0
C1725 C 0.39055 0.94729 0.46531 0.0
C1726 C 0.38883 0.9706 0.45394 0.0
H1727 H 0.80891 0.63479 0.23985 0.0
H1728 H 0.78231 0.62058 0.12851 0.0
H1729 H 0.74341 0.61366 0.15521 0.0
H1730 H 0.77466 0.59314 0.29006 0.0
H1731 H 0.76985 0.61174 0.32983 0.0
H1732 H 0.7958 0.6148 0.3023 0.0
H1733 H 0.78639 0.65804 0.29117 0.0
H1734 H 0.76052 0.65517 0.31891 0.0
H1735 H 0.75869 0.66596 0.27169 0.0
H1736 H 0.70804 0.60731 0.19386 0.0
H1737 H 0.67692 0.6064 0.24067 0.0
H1738 H 0.7258 0.62704 0.32702 0.0
C1739 C 0.79488 0.63016 0.22114 0.0
C1740 C 0.79854 0.62807 0.18217 0.0
C1741 C 0.77978 0.62233 0.15843 0.0
C1742 C 0.75771 0.61822 0.17336 0.0
C1743 C 0.75472 0.62025 0.21195 0.0
C1744 C 0.77267 0.62643 0.23547 0.0
C1745 C 0.76452 0.62857 0.27566 0.0
C1746 C 0.77695 0.61101 0.30095 0.0
C1747 C 0.76771 0.65341 0.2902 0.0
C1748 C 0.73914 0.62259 0.27107 0.0
C1749 C 0.734 0.61753 0.23415 0.0
C1750 C 0.71181 0.61134 0.22282 0.0
C1751 C 0.69426 0.61079 0.24977 0.0
C1752 C 0.69886 0.61672 0.28761 0.0
C1753 C 0.72171 0.62244 0.29837 0.0
H1754 H 0.13027 0.97057 0.07212 0.0
H1755 H 0.13142 0.92101 0.98082 0.0
H1756 H 0.13213 0.95307 0.93523 0.0
H1757 H 0.09442 0.01312 0.0284 0.0
H1758 H 0.11028 0.03749 0.0467 0.0
H1759 H 0.1097 0.01068 0.07224 0.0
H1760 H 0.15455 0.00957 0.07229 0.0
H1761 H 0.15527 0.0364 0.04678 0.0
H1762 H 0.16997 0.01131 0.02851 0.0
H1763 H 0.1301 0.9905 0.89948 0.0
H1764 H 0.12932 0.03075 0.87615 0.0
H1765 H 0.13286 0.05611 0.99034 0.0
C1766 C 0.13068 0.96651 0.04252 0.0
C1767 C 0.13065 0.9433 0.02997 0.0
C1768 C 0.13149 0.93865 0.99105 0.0
C1769 C 0.13182 0.95674 0.96494 0.0
C1770 C 0.13173 0.97942 0.97816 0.0
C1771 C 0.13154 0.98438 0.01604 0.0
C1772 C 0.13215 0.01028 0.02278 0.0
C1773 C 0.11034 0.01836 0.04377 0.0
C1774 C 0.15431 0.0173 0.04383 0.0
C1775 C 0.13239 0.01909 0.98281 0.0
C1776 C 0.13189 1.001 0.95751 0.0
C1777 C 0.1308 0.0048 0.91901 0.0
C1778 C 0.1303 0.02769 0.90602 0.0
C1779 C 0.13129 0.04647 0.9314 0.0
C1780 C 0.13248 0.04205 0.97027 0.0
H1781 H 0.72537 0.37408 0.67585 0.0
H1782 H 0.67718 0.36978 0.76887 0.0
H1783 H 0.70983 0.37108 0.81322 0.0
H1784 H 0.77043 0.33912 0.71598 0.0
H1785 H 0.79386 0.35651 0.69818 0.0
H1786 H 0.76673 0.35531 0.67331 0.0
H1787 H 0.76361 0.39991 0.6764 0.0
H1788 H 0.79071 0.40126 0.70135 0.0
H1789 H 0.76512 0.41426 0.72117 0.0
H1790 H 0.74724 0.37081 0.84751 0.0
H1791 H 0.78748 0.37096 0.87031 0.0
H1792 H 0.81241 0.37787 0.75629 0.0
C1793 C 0.72173 0.37339 0.70556 0.0
C1794 C 0.69865 0.37173 0.71885 0.0
C1795 C 0.69462 0.37109 0.75796 0.0
C1796 C 0.71309 0.37179 0.78341 0.0
C1797 C 0.73555 0.37343 0.76947 0.0
C1798 C 0.74002 0.37442 0.73153 0.0
C1799 C 0.76591 0.37642 0.72428 0.0
C1800 C 0.77475 0.35559 0.7016 0.0
C1801 C 0.77167 0.39933 0.70463 0.0
C1802 C 0.77525 0.37608 0.76407 0.0
C1803 C 0.75734 0.37422 0.78957 0.0
C1804 C 0.7614 0.3725 0.82786 0.0
C1805 C 0.78435 0.37255 0.84053 0.0
C1806 C 0.80307 0.3746 0.81515 0.0
C1807 C 0.79842 0.37664 0.77637 0.0
loop_
_geom_bond_atom_site_label_1
_geom_bond_atom_site_label_2
_geom_bond_distance
_geom_bond_site_symmetry_2
_ccdc_geom_bond_type
Co0 O2 2.143 . S
Co0 O8 2.074 . S
Co0 O11 2.093 . S
Co0 O24 2.097 . S
Co0 N41 2.151 . S
Co0 N49 2.214 . S
Co1 O2 2.160 . S
Co1 O7 2.058 . S
Co1 O17 2.057 . S
Co1 O32 2.037 . S
Co1 N36 2.145 . S
Co1 N57 2.257 . S
O2 Co0 2.143 . S
O2 Co1 2.160 . S
C3 O4 1.278 . S
C3 O11 1.224 . S
O4 C3 1.278 . S
C5 O6 1.245 . S
C5 O17 1.232 . S
O6 C5 1.245 . S
O7 Co1 2.058 . S
O7 C33 1.269 . S
O8 Co0 2.074 . S
O8 C33 1.257 . S
H9 C34 0.930 . S
H10 C40 0.930 . S
O11 Co0 2.093 . S
O11 C3 1.224 . S
H12 C44 0.929 . S
H13 C46 0.930 . S
H14 C47 0.930 . S
H15 C45 0.929 . S
H16 C48 0.928 . S
O17 Co1 2.057 . S
O17 C5 1.232 . S
H18 C37 0.929 . S
H19 C38 0.929 . S
H20 C50 0.931 . S
H21 C42 0.929 . S
H22 C51 0.930 . S
H23 C43 0.931 . S
O24 Co0 2.097 . S
O24 C52 1.214 . S
H25 C53 0.929 . S
H26 C54 0.929 . S
H27 C55 0.930 . S
H28 C56 0.929 . S
H29 C58 0.930 . S
H30 C35 0.930 . S
H31 C39 0.930 . S
O32 Co1 2.037 . S
O32 C52 1.234 . S
C33 O7 1.269 . S
C33 O8 1.257 . S
C34 H9 0.930 . S
C34 C37 1.388 . S
C34 C39 1.418 . S
C35 H30 0.930 . S
C35 C38 1.404 . S
C35 C39 1.353 . S
N36 Co1 2.145 . S
N36 C37 1.397 . S
N36 C38 1.334 . S
C37 H18 0.929 . S
C37 C34 1.388 . S
C37 N36 1.397 . S
C38 H19 0.929 . S
C38 C35 1.404 . S
C38 N36 1.334 . S
C39 H31 0.930 . S
C39 C34 1.418 . S
C39 C35 1.353 . S
C40 H10 0.930 . S
C40 N41 1.330 . S
C40 C42 1.446 . S
N41 Co0 2.151 . S
N41 C40 1.330 . S
N41 C45 1.418 . S
C42 H21 0.929 . S
C42 C40 1.446 . S
C42 C43 1.332 1_554 S
C43 H23 0.931 . S
C43 C42 1.332 1_556 S
C43 C44 1.267 . S
C44 H12 0.929 . S
C44 C43 1.267 . S
C44 C45 1.251 1_556 S
C45 H15 0.929 . S
C45 N41 1.418 . S
C45 C44 1.251 1_554 S
C46 H13 0.930 . S
C46 C48 1.406 . S
C46 C51 1.261 . S
C47 H14 0.930 . S
C47 N49 1.325 . S
C47 C50 1.357 . S
C48 H16 0.928 . S
C48 C46 1.406 . S
C48 N49 1.261 1_556 S
N49 Co0 2.214 . S
N49 C47 1.325 . S
N49 C48 1.261 1_554 S
C50 H20 0.931 . S
C50 C47 1.357 . S
C50 C51 1.312 1_554 S
C51 H22 0.930 . S
C51 C46 1.261 . S
C51 C50 1.312 1_556 S
C52 O24 1.214 . S
C52 O32 1.234 . S
C53 H25 0.929 . S
C53 C56 1.391 . S
C53 C58 1.391 . S
C54 H26 0.929 . S
C54 C55 1.390 . S
C54 N57 1.391 . S
C55 H27 0.930 . S
C55 C54 1.390 . S
C55 C56 1.392 . S
C56 H28 0.929 . S
C56 C53 1.391 . S
C56 C55 1.392 . S
N57 Co1 2.257 . S
N57 C54 1.391 . S
N57 C58 1.388 . S
C58 H29 0.930 . S
C58 C53 1.391 . S
C58 N57 1.388 . S
Co59 O61 2.143 . S
Co59 O67 2.074 . S
Co59 O70 2.093 . S
Co59 O83 2.097 . S
Co59 N100 2.151 . S
Co59 N108 2.214 . S
Co60 O61 2.160 . S
Co60 O66 2.058 . S
Co60 O76 2.057 . S
Co60 O91 2.037 . S
Co60 N95 2.145 . S
Co60 N116 2.257 . S
O61 Co59 2.143 . S
O61 Co60 2.160 . S
C62 O63 1.278 . S
C62 O70 1.224 . S
O63 C62 1.278 . S
C64 O65 1.245 . S
C64 O76 1.232 . S
O65 C64 1.245 . S
O66 Co60 2.058 . S
O66 C92 1.269 . S
O67 Co59 2.074 . S
O67 C92 1.257 . S
H68 C93 0.930 . S
H69 C99 0.930 . S
O70 Co59 2.093 . S
O70 C62 1.224 . S
H71 C103 0.929 . S
H72 C105 0.930 . S
H73 C106 0.930 . S
H74 C104 0.929 . S
H75 C107 0.928 . S
O76 Co60 2.057 . S
O76 C64 1.232 . S
H77 C96 0.929 . S
H78 C97 0.929 . S
H79 C109 0.931 . S
H80 C101 0.929 . S
H81 C110 0.930 . S
H82 C102 0.931 . S
O83 Co59 2.097 . S
O83 C111 1.214 . S
H84 C112 0.929 . S
H85 C113 0.929 . S
H86 C114 0.930 . S
H87 C115 0.929 . S
H88 C117 0.930 . S
H89 C94 0.930 . S
H90 C98 0.930 . S
O91 Co60 2.037 . S
O91 C111 1.234 . S
C92 O66 1.269 . S
C92 O67 1.257 . S
C93 H68 0.930 . S
C93 C96 1.388 . S
C93 C98 1.418 . S
C94 H89 0.930 . S
C94 C97 1.404 . S
C94 C98 1.353 . S
N95 Co60 2.145 . S
N95 C96 1.397 . S
N95 C97 1.334 . S
C96 H77 0.929 . S
C96 C93 1.388 . S
C96 N95 1.397 . S
C97 H78 0.929 . S
C97 C94 1.404 . S
C97 N95 1.334 . S
C98 H90 0.930 . S
C98 C93 1.418 . S
C98 C94 1.353 . S
C99 H69 0.930 . S
C99 N100 1.330 . S
C99 C101 1.446 . S
N100 Co59 2.151 . S
N100 C99 1.330 . S
N100 C104 1.418 . S
C101 H80 0.929 . S
C101 C99 1.446 . S
C101 C102 1.332 . S
C102 H82 0.931 . S
C102 C101 1.332 . S
C102 C103 1.267 . S
C103 H71 0.929 . S
C103 C102 1.267 . S
C103 C104 1.251 . S
C104 H74 0.929 . S
C104 N100 1.418 . S
C104 C103 1.251 . S
C105 H72 0.930 . S
C105 C107 1.406 . S
C105 C110 1.261 . S
C106 H73 0.930 . S
C106 N108 1.325 . S
C106 C109 1.357 . S
C107 H75 0.928 . S
C107 C105 1.406 . S
C107 N108 1.261 . S
N108 Co59 2.214 . S
N108 C106 1.325 . S
N108 C107 1.261 . S
C109 H79 0.931 . S
C109 C106 1.357 . S
C109 C110 1.312 . S
C110 H81 0.930 . S
C110 C105 1.261 . S
C110 C109 1.312 . S
C111 O83 1.214 . S
C111 O91 1.234 . S
C112 H84 0.929 . S
C112 C115 1.391 . S
C112 C117 1.391 . S
C113 H85 0.929 . S
C113 C114 1.390 . S
C113 N116 1.391 . S
C114 H86 0.930 . S
C114 C113 1.390 . S
C114 C115 1.392 . S
C115 H87 0.929 . S
C115 C112 1.391 . S
C115 C114 1.392 . S
N116 Co60 2.257 . S
N116 C113 1.391 . S
N116 C117 1.388 . S
C117 H88 0.930 . S
C117 C112 1.391 . S
C117 N116 1.388 . S
Co118 O120 2.143 . S
Co118 O126 2.074 . S
Co118 O129 2.093 . S
Co118 O142 2.097 . S
Co118 N159 2.151 . S
Co118 N167 2.214 . S
Co119 O120 2.160 . S
Co119 O125 2.058 . S
Co119 O135 2.057 . S
Co119 O150 2.037 . S
Co119 N154 2.145 . S
Co119 N175 2.257 . S
O120 Co118 2.143 . S
O120 Co119 2.160 . S
C121 O122 1.278 . S
C121 O129 1.224 . S
O122 C121 1.278 . S
C123 O124 1.245 . S
C123 O135 1.232 . S
O124 C123 1.245 . S
O125 Co119 2.058 . S
O125 C151 1.269 . S
O126 Co118 2.074 . S
O126 C151 1.257 . S
H127 C152 0.930 . S
H128 C158 0.930 . S
O129 Co118 2.093 . S
O129 C121 1.224 . S
H130 C162 0.929 . S
H131 C164 0.930 . S
H132 C165 0.930 . S
H133 C163 0.929 . S
H134 C166 0.928 . S
O135 Co119 2.057 . S
O135 C123 1.232 . S
H136 C155 0.929 . S
H137 C156 0.929 . S
H138 C168 0.931 . S
H139 C160 0.929 . S
H140 C169 0.930 . S
H141 C161 0.931 . S
O142 Co118 2.097 . S
O142 C170 1.214 . S
H143 C171 0.929 . S
H144 C172 0.929 . S
H145 C173 0.930 . S
H146 C174 0.929 . S
H147 C176 0.930 . S
H148 C153 0.930 . S
H149 C157 0.930 . S
O150 Co119 2.037 . S
O150 C170 1.234 . S
C151 O125 1.269 . S
C151 O126 1.257 . S
C152 H127 0.930 . S
C152 C155 1.388 . S
C152 C157 1.418 . S
C153 H148 0.930 . S
C153 C156 1.404 . S
C153 C157 1.353 . S
N154 Co119 2.145 . S
N154 C155 1.397 . S
N154 C156 1.334 . S
C155 H136 0.929 . S
C155 C152 1.388 . S
C155 N154 1.397 . S
C156 H137 0.929 . S
C156 C153 1.404 . S
C156 N154 1.334 . S
C157 H149 0.930 . S
C157 C152 1.418 . S
C157 C153 1.353 . S
C158 H128 0.930 . S
C158 N159 1.330 . S
C158 C160 1.446 . S
N159 Co118 2.151 . S
N159 C158 1.330 . S
N159 C163 1.418 . S
C160 H139 0.929 . S
C160 C158 1.446 . S
C160 C161 1.332 . S
C161 H141 0.931 . S
C161 C160 1.332 . S
C161 C162 1.267 . S
C162 H130 0.929 . S
C162 C161 1.267 . S
C162 C163 1.251 . S
C163 H133 0.929 . S
C163 N159 1.418 . S
C163 C162 1.251 . S
C164 H131 0.930 . S
C164 C166 1.406 . S
C164 C169 1.261 . S
C165 H132 0.930 . S
C165 N167 1.325 . S
C165 C168 1.357 . S
C166 H134 0.928 . S
C166 C164 1.406 . S
C166 N167 1.261 . S
N167 Co118 2.214 . S
N167 C165 1.325 . S
N167 C166 1.261 . S
C168 H138 0.931 . S
C168 C165 1.357 . S
C168 C169 1.312 . S
C169 H140 0.930 . S
C169 C164 1.261 . S
C169 C168 1.312 . S
C170 O142 1.214 . S
C170 O150 1.234 . S
C171 H143 0.929 . S
C171 C174 1.391 . S
C171 C176 1.391 . S
C172 H144 0.929 . S
C172 C173 1.390 . S
C172 N175 1.391 . S
C173 H145 0.930 . S
C173 C172 1.390 . S
C173 C174 1.392 . S
C174 H146 0.929 . S
C174 C171 1.391 . S
C174 C173 1.392 . S
N175 Co119 2.257 . S
N175 C172 1.391 . S
N175 C176 1.388 . S
C176 H147 0.930 . S
C176 C171 1.391 . S
C176 N175 1.388 . S
Co177 O179 2.143 . S
Co177 O185 2.074 . S
Co177 O188 2.093 . S
Co177 O201 2.097 . S
Co177 N218 2.151 . S
Co177 N226 2.214 . S
Co178 O179 2.160 . S
Co178 O184 2.058 . S
Co178 O194 2.057 . S
Co178 O209 2.037 . S
Co178 N213 2.145 . S
Co178 N234 2.257 . S
O179 Co177 2.143 . S
O179 Co178 2.160 . S
C180 O181 1.278 . S
C180 O188 1.224 . S
O181 C180 1.278 . S
C182 O183 1.245 . S
C182 O194 1.232 . S
O183 C182 1.245 . S
O184 Co178 2.058 . S
O184 C210 1.269 . S
O185 Co177 2.074 . S
O185 C210 1.257 . S
H186 C211 0.930 . S
H187 C217 0.930 . S
O188 Co177 2.093 . S
O188 C180 1.224 . S
H189 C221 0.929 . S
H190 C223 0.930 . S
H191 C224 0.930 . S
H192 C222 0.929 . S
H193 C225 0.928 . S
O194 Co178 2.057 . S
O194 C182 1.232 . S
H195 C214 0.929 . S
H196 C215 0.929 . S
H197 C227 0.931 . S
H198 C219 0.929 . S
H199 C228 0.930 . S
H200 C220 0.931 . S
O201 Co177 2.097 . S
O201 C229 1.214 . S
H202 C230 0.929 . S
H203 C231 0.929 . S
H204 C232 0.930 . S
H205 C233 0.929 . S
H206 C235 0.930 . S
H207 C212 0.930 . S
H208 C216 0.930 . S
O209 Co178 2.037 . S
O209 C229 1.234 . S
C210 O184 1.269 . S
C210 O185 1.257 . S
C211 H186 0.930 . S
C211 C214 1.388 1_554 S
C211 C216 1.418 . S
C212 H207 0.930 . S
C212 C215 1.404 . S
C212 C216 1.353 . S
N213 Co178 2.145 . S
N213 C214 1.397 . S
N213 C215 1.334 1_556 S
C214 H195 0.929 . S
C214 C211 1.388 1_556 S
C214 N213 1.397 . S
C215 H196 0.929 . S
C215 C212 1.404 . S
C215 N213 1.334 1_554 S
C216 H208 0.930 . S
C216 C211 1.418 . S
C216 C212 1.353 . S
C217 H187 0.930 . S
C217 N218 1.330 . S
C217 C219 1.446 . S
N218 Co177 2.151 . S
N218 C217 1.330 . S
N218 C222 1.418 . S
C219 H198 0.929 . S
C219 C217 1.446 . S
C219 C220 1.332 . S
C220 H200 0.931 . S
C220 C219 1.332 . S
C220 C221 1.267 . S
C221 H189 0.929 . S
C221 C220 1.267 . S
C221 C222 1.251 . S
C222 H192 0.929 . S
C222 N218 1.418 . S
C222 C221 1.251 . S
C223 H190 0.930 . S
C223 C225 1.406 . S
C223 C228 1.261 . S
C224 H191 0.930 . S
C224 N226 1.325 . S
C224 C227 1.357 . S
C225 H193 0.928 . S
C225 C223 1.406 . S
C225 N226 1.261 . S
N226 Co177 2.214 . S
N226 C224 1.325 . S
N226 C225 1.261 . S
C227 H197 0.931 . S
C227 C224 1.357 . S
C227 C228 1.312 . S
C228 H199 0.930 . S
C228 C223 1.261 . S
C228 C227 1.312 . S
C229 O201 1.214 . S
C229 O209 1.234 . S
C230 H202 0.929 . S
C230 C233 1.391 . S
C230 C235 1.391 . S
C231 H203 0.929 . S
C231 C232 1.390 . S
C231 N234 1.391 . S
C232 H204 0.930 . S
C232 C231 1.390 . S
C232 C233 1.392 . S
C233 H205 0.929 . S
C233 C230 1.391 . S
C233 C232 1.392 . S
N234 Co178 2.257 . S
N234 C231 1.391 . S
N234 C235 1.388 . S
C235 H206 0.930 . S
C235 C230 1.391 . S
C235 N234 1.388 . S
Co236 O238 2.143 . S
Co236 O244 2.074 . S
Co236 O247 2.093 . S
Co236 O260 2.097 . S
Co236 N277 2.151 . S
Co236 N285 2.214 . S
Co237 O238 2.160 . S
Co237 O243 2.058 . S
Co237 O253 2.057 . S
Co237 O268 2.037 . S
Co237 N272 2.145 . S
Co237 N293 2.257 . S
O238 Co236 2.143 . S
O238 Co237 2.160 . S
C239 O240 1.278 . S
C239 O247 1.224 . S
O240 C239 1.278 . S
C241 O242 1.245 . S
C241 O253 1.232 . S
O242 C241 1.245 . S
O243 Co237 2.058 . S
O243 C269 1.269 . S
O244 Co236 2.074 . S
O244 C269 1.257 . S
H245 C270 0.930 . S
H246 C276 0.930 . S
O247 Co236 2.093 . S
O247 C239 1.224 . S
H248 C280 0.929 . S
H249 C282 0.930 . S
H250 C283 0.930 . S
H251 C281 0.929 . S
H252 C284 0.928 . S
O253 Co237 2.057 . S
O253 C241 1.232 . S
H254 C273 0.929 . S
H255 C274 0.929 . S
H256 C286 0.931 . S
H257 C278 0.929 . S
H258 C287 0.930 . S
H259 C279 0.931 . S
O260 Co236 2.097 . S
O260 C288 1.214 . S
H261 C289 0.929 . S
H262 C290 0.929 . S
H263 C291 0.930 . S
H264 C292 0.929 . S
H265 C294 0.930 . S
H266 C271 0.930 . S
H267 C275 0.930 . S
O268 Co237 2.037 . S
O268 C288 1.234 . S
C269 O243 1.269 . S
C269 O244 1.257 . S
C270 H245 0.930 . S
C270 C273 1.388 . S
C270 C275 1.418 . S
C271 H266 0.930 . S
C271 C274 1.404 . S
C271 C275 1.353 . S
N272 Co237 2.145 . S
N272 C273 1.397 . S
N272 C274 1.334 . S
C273 H254 0.929 . S
C273 C270 1.388 . S
C273 N272 1.397 . S
C274 H255 0.929 . S
C274 C271 1.404 . S
C274 N272 1.334 . S
C275 H267 0.930 . S
C275 C270 1.418 . S
C275 C271 1.353 . S
C276 H246 0.930 . S
C276 N277 1.330 . S
C276 C278 1.446 . S
N277 Co236 2.151 . S
N277 C276 1.330 . S
N277 C281 1.418 . S
C278 H257 0.929 . S
C278 C276 1.446 . S
C278 C279 1.332 1_556 S
C279 H259 0.931 . S
C279 C278 1.332 1_554 S
C279 C280 1.267 . S
C280 H248 0.929 . S
C280 C279 1.267 . S
C280 C281 1.251 1_554 S
C281 H251 0.929 . S
C281 N277 1.418 . S
C281 C280 1.251 1_556 S
C282 H249 0.930 . S
C282 C284 1.406 . S
C282 C287 1.261 . S
C283 H250 0.930 . S
C283 N285 1.325 . S
C283 C286 1.357 . S
C284 H252 0.928 . S
C284 C282 1.406 . S
C284 N285 1.261 1_554 S
N285 Co236 2.214 . S
N285 C283 1.325 . S
N285 C284 1.261 1_556 S
C286 H256 0.931 . S
C286 C283 1.357 . S
C286 C287 1.312 1_556 S
C287 H258 0.930 . S
C287 C282 1.261 . S
C287 C286 1.312 1_554 S
C288 O260 1.214 . S
C288 O268 1.234 . S
C289 H261 0.929 . S
C289 C292 1.391 . S
C289 C294 1.391 . S
C290 H262 0.929 . S
C290 C291 1.390 . S
C290 N293 1.391 . S
C291 H263 0.930 . S
C291 C290 1.390 . S
C291 C292 1.392 . S
C292 H264 0.929 . S
C292 C289 1.391 . S
C292 C291 1.392 . S
N293 Co237 2.257 . S
N293 C290 1.391 . S
N293 C294 1.388 . S
C294 H265 0.930 . S
C294 C289 1.391 . S
C294 N293 1.388 . S
Co295 O297 2.143 . S
Co295 O303 2.074 . S
Co295 O306 2.093 . S
Co295 O319 2.097 . S
Co295 N336 2.151 . S
Co295 N344 2.214 . S
Co296 O297 2.160 . S
Co296 O302 2.058 . S
Co296 O312 2.057 . S
Co296 O327 2.037 . S
Co296 N331 2.145 . S
Co296 N352 2.257 . S
O297 Co295 2.143 . S
O297 Co296 2.160 . S
C298 O299 1.278 . S
C298 O306 1.224 . S
O299 C298 1.278 . S
C300 O301 1.245 . S
C300 O312 1.232 . S
O301 C300 1.245 . S
O302 Co296 2.058 . S
O302 C328 1.269 . S
O303 Co295 2.074 . S
O303 C328 1.257 . S
H304 C329 0.930 . S
H305 C335 0.930 . S
O306 Co295 2.093 . S
O306 C298 1.224 . S
H307 C339 0.929 . S
H308 C341 0.930 . S
H309 C342 0.930 . S
H310 C340 0.929 . S
H311 C343 0.928 . S
O312 Co296 2.057 . S
O312 C300 1.232 . S
H313 C332 0.929 . S
H314 C333 0.929 . S
H315 C345 0.931 . S
H316 C337 0.929 . S
H317 C346 0.930 . S
H318 C338 0.931 . S
O319 Co295 2.097 . S
O319 C347 1.214 . S
H320 C348 0.929 . S
H321 C349 0.929 . S
H322 C350 0.930 . S
H323 C351 0.929 . S
H324 C353 0.930 . S
H325 C330 0.930 . S
H326 C334 0.930 . S
O327 Co296 2.037 . S
O327 C347 1.234 . S
C328 O302 1.269 . S
C328 O303 1.257 . S
C329 H304 0.930 . S
C329 C332 1.388 . S
C329 C334 1.418 . S
C330 H325 0.930 . S
C330 C333 1.404 . S
C330 C334 1.353 . S
N331 Co296 2.145 . S
N331 C332 1.397 . S
N331 C333 1.334 . S
C332 H313 0.929 . S
C332 C329 1.388 . S
C332 N331 1.397 . S
C333 H314 0.929 . S
C333 C330 1.404 . S
C333 N331 1.334 . S
C334 H326 0.930 . S
C334 C329 1.418 . S
C334 C330 1.353 . S
C335 H305 0.930 . S
C335 N336 1.330 . S
C335 C337 1.446 . S
N336 Co295 2.151 . S
N336 C335 1.330 . S
N336 C340 1.418 . S
C337 H316 0.929 . S
C337 C335 1.446 . S
C337 C338 1.332 1_554 S
C338 H318 0.931 . S
C338 C337 1.332 1_556 S
C338 C339 1.267 . S
C339 H307 0.929 . S
C339 C338 1.267 . S
C339 C340 1.251 1_556 S
C340 H310 0.929 . S
C340 N336 1.418 . S
C340 C339 1.251 1_554 S
C341 H308 0.930 . S
C341 C343 1.406 . S
C341 C346 1.261 . S
C342 H309 0.930 . S
C342 N344 1.325 . S
C342 C345 1.357 . S
C343 H311 0.928 . S
C343 C341 1.406 . S
C343 N344 1.261 1_556 S
N344 Co295 2.214 . S
N344 C342 1.325 . S
N344 C343 1.261 1_554 S
C345 H315 0.931 . S
C345 C342 1.357 . S
C345 C346 1.312 1_554 S
C346 H317 0.930 . S
C346 C341 1.261 . S
C346 C345 1.312 1_556 S
C347 O319 1.214 . S
C347 O327 1.234 . S
C348 H320 0.929 . S
C348 C351 1.391 . S
C348 C353 1.391 . S
C349 H321 0.929 . S
C349 C350 1.390 . S
C349 N352 1.391 . S
C350 H322 0.930 . S
C350 C349 1.390 . S
C350 C351 1.392 . S
C351 H323 0.929 . S
C351 C348 1.391 . S
C351 C350 1.392 . S
N352 Co296 2.257 . S
N352 C349 1.391 . S
N352 C353 1.388 . S
C353 H324 0.930 . S
C353 C348 1.391 . S
C353 N352 1.388 . S
Co354 O356 2.143 . S
Co354 O362 2.074 . S
Co354 O365 2.093 . S
Co354 O378 2.097 . S
Co354 N395 2.151 . S
Co354 N403 2.214 . S
Co355 O356 2.160 . S
Co355 O361 2.058 . S
Co355 O371 2.057 . S
Co355 O386 2.037 . S
Co355 N390 2.145 . S
Co355 N411 2.257 . S
O356 Co354 2.143 . S
O356 Co355 2.160 . S
C357 O358 1.278 . S
C357 O365 1.224 . S
O358 C357 1.278 . S
C359 O360 1.245 . S
C359 O371 1.232 . S
O360 C359 1.245 . S
O361 Co355 2.058 . S
O361 C387 1.269 . S
O362 Co354 2.074 . S
O362 C387 1.257 . S
H363 C388 0.930 . S
H364 C394 0.930 . S
O365 Co354 2.093 . S
O365 C357 1.224 . S
H366 C398 0.929 . S
H367 C400 0.930 . S
H368 C401 0.930 . S
H369 C399 0.929 . S
H370 C402 0.928 . S
O371 Co355 2.057 . S
O371 C359 1.232 . S
H372 C391 0.929 . S
H373 C392 0.929 . S
H374 C404 0.931 . S
H375 C396 0.929 . S
H376 C405 0.930 . S
H377 C397 0.931 . S
O378 Co354 2.097 . S
O378 C406 1.214 . S
H379 C407 0.929 . S
H380 C408 0.929 . S
H381 C409 0.930 . S
H382 C410 0.929 . S
H383 C412 0.930 . S
H384 C389 0.930 . S
H385 C393 0.930 . S
O386 Co355 2.037 . S
O386 C406 1.234 . S
C387 O361 1.269 . S
C387 O362 1.257 . S
C388 H363 0.930 . S
C388 C391 1.388 . S
C388 C393 1.418 . S
C389 H384 0.930 . S
C389 C392 1.404 . S
C389 C393 1.353 . S
N390 Co355 2.145 . S
N390 C391 1.397 . S
N390 C392 1.334 . S
C391 H372 0.929 . S
C391 C388 1.388 . S
C391 N390 1.397 . S
C392 H373 0.929 . S
C392 C389 1.404 . S
C392 N390 1.334 . S
C393 H385 0.930 . S
C393 C388 1.418 . S
C393 C389 1.353 . S
C394 H364 0.930 . S
C394 N395 1.330 . S
C394 C396 1.446 . S
N395 Co354 2.151 . S
N395 C394 1.330 . S
N395 C399 1.418 . S
C396 H375 0.929 . S
C396 C394 1.446 . S
C396 C397 1.332 . S
C397 H377 0.931 . S
C397 C396 1.332 . S
C397 C398 1.267 . S
C398 H366 0.929 . S
C398 C397 1.267 . S
C398 C399 1.251 . S
C399 H369 0.929 . S
C399 N395 1.418 . S
C399 C398 1.251 . S
C400 H367 0.930 . S
C400 C402 1.406 . S
C400 C405 1.261 . S
C401 H368 0.930 . S
C401 N403 1.325 . S
C401 C404 1.357 . S
C402 H370 0.928 . S
C402 C400 1.406 . S
C402 N403 1.261 . S
N403 Co354 2.214 . S
N403 C401 1.325 . S
N403 C402 1.261 . S
C404 H374 0.931 . S
C404 C401 1.357 . S
C404 C405 1.312 . S
C405 H376 0.930 . S
C405 C400 1.261 . S
C405 C404 1.312 . S
C406 O378 1.214 . S
C406 O386 1.234 . S
C407 H379 0.929 . S
C407 C410 1.391 . S
C407 C412 1.391 . S
C408 H380 0.929 . S
C408 C409 1.390 . S
C408 N411 1.391 . S
C409 H381 0.930 . S
C409 C408 1.390 . S
C409 C410 1.392 . S
C410 H382 0.929 . S
C410 C407 1.391 . S
C410 C409 1.392 . S
N411 Co355 2.257 . S
N411 C408 1.391 . S
N411 C412 1.388 . S
C412 H383 0.930 . S
C412 C407 1.391 . S
C412 N411 1.388 . S
Co413 O415 2.143 . S
Co413 O421 2.074 . S
Co413 O424 2.093 . S
Co413 O437 2.097 . S
Co413 N454 2.151 . S
Co413 N462 2.214 . S
Co414 O415 2.160 . S
Co414 O420 2.058 . S
Co414 O430 2.057 . S
Co414 O445 2.037 . S
Co414 N449 2.145 . S
Co414 N470 2.257 . S
O415 Co413 2.143 . S
O415 Co414 2.160 . S
C416 O417 1.278 . S
C416 O424 1.224 . S
O417 C416 1.278 . S
C418 O419 1.245 . S
C418 O430 1.232 . S
O419 C418 1.245 . S
O420 Co414 2.058 . S
O420 C446 1.269 . S
O421 Co413 2.074 . S
O421 C446 1.257 . S
H422 C447 0.930 . S
H423 C453 0.930 . S
O424 Co413 2.093 . S
O424 C416 1.224 . S
H425 C457 0.929 . S
H426 C459 0.930 . S
H427 C460 0.930 . S
H428 C458 0.929 . S
H429 C461 0.928 . S
O430 Co414 2.057 . S
O430 C418 1.232 . S
H431 C450 0.929 . S
H432 C451 0.929 . S
H433 C463 0.931 . S
H434 C455 0.929 . S
H435 C464 0.930 . S
H436 C456 0.931 . S
O437 Co413 2.097 . S
O437 C465 1.214 . S
H438 C466 0.929 . S
H439 C467 0.929 . S
H440 C468 0.930 . S
H441 C469 0.929 . S
H442 C471 0.930 . S
H443 C448 0.930 . S
H444 C452 0.930 . S
O445 Co414 2.037 . S
O445 C465 1.234 . S
C446 O420 1.269 . S
C446 O421 1.257 . S
C447 H422 0.930 . S
C447 C450 1.388 . S
C447 C452 1.418 . S
C448 H443 0.930 . S
C448 C451 1.404 . S
C448 C452 1.353 . S
N449 Co414 2.145 . S
N449 C450 1.397 . S
N449 C451 1.334 . S
C450 H431 0.929 . S
C450 C447 1.388 . S
C450 N449 1.397 . S
C451 H432 0.929 . S
C451 C448 1.404 . S
C451 N449 1.334 . S
C452 H444 0.930 . S
C452 C447 1.418 . S
C452 C448 1.353 . S
C453 H423 0.930 . S
C453 N454 1.330 . S
C453 C455 1.446 . S
N454 Co413 2.151 . S
N454 C453 1.330 . S
N454 C458 1.418 . S
C455 H434 0.929 . S
C455 C453 1.446 . S
C455 C456 1.332 . S
C456 H436 0.931 . S
C456 C455 1.332 . S
C456 C457 1.267 . S
C457 H425 0.929 . S
C457 C456 1.267 . S
C457 C458 1.251 . S
C458 H428 0.929 . S
C458 N454 1.418 . S
C458 C457 1.251 . S
C459 H426 0.930 . S
C459 C461 1.406 . S
C459 C464 1.261 . S
C460 H427 0.930 . S
C460 N462 1.325 . S
C460 C463 1.357 . S
C461 H429 0.928 . S
C461 C459 1.406 . S
C461 N462 1.261 . S
N462 Co413 2.214 . S
N462 C460 1.325 . S
N462 C461 1.261 . S
C463 H433 0.931 . S
C463 C460 1.357 . S
C463 C464 1.312 . S
C464 H435 0.930 . S
C464 C459 1.261 . S
C464 C463 1.312 . S
C465 O437 1.214 . S
C465 O445 1.234 . S
C466 H438 0.929 . S
C466 C469 1.391 . S
C466 C471 1.391 . S
C467 H439 0.929 . S
C467 C468 1.390 . S
C467 N470 1.391 . S
C468 H440 0.930 . S
C468 C467 1.390 . S
C468 C469 1.392 . S
C469 H441 0.929 . S
C469 C466 1.391 . S
C469 C468 1.392 . S
N470 Co414 2.257 . S
N470 C467 1.391 . S
N470 C471 1.388 . S
C471 H442 0.930 . S
C471 C466 1.391 . S
C471 N470 1.388 . S
Co472 O474 2.143 . S
Co472 O480 2.074 . S
Co472 O483 2.093 . S
Co472 O496 2.097 . S
Co472 N513 2.151 . S
Co472 N521 2.214 . S
Co473 O474 2.160 . S
Co473 O479 2.058 . S
Co473 O489 2.057 . S
Co473 O504 2.037 . S
Co473 N508 2.145 . S
Co473 N529 2.257 . S
O474 Co472 2.143 . S
O474 Co473 2.160 . S
C475 O476 1.278 . S
C475 O483 1.224 . S
O476 C475 1.278 . S
C477 O478 1.245 . S
C477 O489 1.232 . S
O478 C477 1.245 . S
O479 Co473 2.058 . S
O479 C505 1.269 . S
O480 Co472 2.074 . S
O480 C505 1.257 . S
H481 C506 0.930 . S
H482 C512 0.930 . S
O483 Co472 2.093 . S
O483 C475 1.224 . S
H484 C516 0.929 . S
H485 C518 0.930 . S
H486 C519 0.930 . S
H487 C517 0.929 . S
H488 C520 0.928 . S
O489 Co473 2.057 . S
O489 C477 1.232 . S
H490 C509 0.929 . S
H491 C510 0.929 . S
H492 C522 0.931 . S
H493 C514 0.929 . S
H494 C523 0.930 . S
H495 C515 0.931 . S
O496 Co472 2.097 . S
O496 C524 1.214 . S
H497 C525 0.929 . S
H498 C526 0.929 . S
H499 C527 0.930 . S
H500 C528 0.929 . S
H501 C530 0.930 . S
H502 C507 0.930 . S
H503 C511 0.930 . S
O504 Co473 2.037 . S
O504 C524 1.234 . S
C505 O479 1.269 . S
C505 O480 1.257 . S
C506 H481 0.930 . S
C506 C509 1.388 . S
C506 C511 1.418 . S
C507 H502 0.930 . S
C507 C510 1.404 . S
C507 C511 1.353 . S
N508 Co473 2.145 . S
N508 C509 1.397 . S
N508 C510 1.334 . S
C509 H490 0.929 . S
C509 C506 1.388 . S
C509 N508 1.397 . S
C510 H491 0.929 . S
C510 C507 1.404 . S
C510 N508 1.334 . S
C511 H503 0.930 . S
C511 C506 1.418 . S
C511 C507 1.353 . S
C512 H482 0.930 . S
C512 N513 1.330 . S
C512 C514 1.446 . S
N513 Co472 2.151 . S
N513 C512 1.330 . S
N513 C517 1.418 . S
C514 H493 0.929 . S
C514 C512 1.446 . S
C514 C515 1.332 1_556 S
C515 H495 0.931 . S
C515 C514 1.332 1_554 S
C515 C516 1.267 . S
C516 H484 0.929 . S
C516 C515 1.267 . S
C516 C517 1.251 1_554 S
C517 H487 0.929 . S
C517 N513 1.418 . S
C517 C516 1.251 1_556 S
C518 H485 0.930 . S
C518 C520 1.406 . S
C518 C523 1.261 . S
C519 H486 0.930 . S
C519 N521 1.325 . S
C519 C522 1.357 . S
C520 H488 0.928 . S
C520 C518 1.406 . S
C520 N521 1.261 1_554 S
N521 Co472 2.214 . S
N521 C519 1.325 . S
N521 C520 1.261 1_556 S
C522 H492 0.931 . S
C522 C519 1.357 . S
C522 C523 1.312 1_556 S
C523 H494 0.930 . S
C523 C518 1.261 . S
C523 C522 1.312 1_554 S
C524 O496 1.214 . S
C524 O504 1.234 . S
C525 H497 0.929 . S
C525 C528 1.391 . S
C525 C530 1.391 . S
C526 H498 0.929 . S
C526 C527 1.390 . S
C526 N529 1.391 . S
C527 H499 0.930 . S
C527 C526 1.390 . S
C527 C528 1.392 . S
C528 H500 0.929 . S
C528 C525 1.391 . S
C528 C527 1.392 . S
N529 Co473 2.257 . S
N529 C526 1.391 . S
N529 C530 1.388 . S
C530 H501 0.930 . S
C530 C525 1.391 . S
C530 N529 1.388 . S
Co531 O533 2.143 . S
Co531 O539 2.074 . S
Co531 O542 2.093 . S
Co531 O555 2.097 . S
Co531 N572 2.151 . S
Co531 N580 2.214 . S
Co532 O533 2.160 . S
Co532 O538 2.058 . S
Co532 O548 2.057 . S
Co532 O563 2.037 . S
Co532 N567 2.145 . S
Co532 N588 2.257 . S
O533 Co531 2.143 . S
O533 Co532 2.160 . S
C534 O535 1.278 . S
C534 O542 1.224 . S
O535 C534 1.278 . S
C536 O537 1.245 . S
C536 O548 1.232 . S
O537 C536 1.245 . S
O538 Co532 2.058 . S
O538 C564 1.269 . S
O539 Co531 2.074 . S
O539 C564 1.257 . S
H540 C565 0.930 . S
H541 C571 0.930 . S
O542 Co531 2.093 . S
O542 C534 1.224 . S
H543 C575 0.929 . S
H544 C577 0.930 . S
H545 C578 0.930 . S
H546 C576 0.929 . S
H547 C579 0.928 . S
O548 Co532 2.057 . S
O548 C536 1.232 . S
H549 C568 0.929 . S
H550 C569 0.929 . S
H551 C581 0.931 . S
H552 C573 0.929 . S
H553 C582 0.930 . S
H554 C574 0.931 . S
O555 Co531 2.097 . S
O555 C583 1.214 . S
H556 C584 0.929 . S
H557 C585 0.929 . S
H558 C586 0.930 . S
H559 C587 0.929 . S
H560 C589 0.930 . S
H561 C566 0.930 . S
H562 C570 0.930 . S
O563 Co532 2.037 . S
O563 C583 1.234 . S
C564 O538 1.269 . S
C564 O539 1.257 . S
C565 H540 0.930 . S
C565 C568 1.388 . S
C565 C570 1.418 . S
C566 H561 0.930 . S
C566 C569 1.404 . S
C566 C570 1.353 . S
N567 Co532 2.145 . S
N567 C568 1.397 . S
N567 C569 1.334 . S
C568 H549 0.929 . S
C568 C565 1.388 . S
C568 N567 1.397 . S
C569 H550 0.929 . S
C569 C566 1.404 . S
C569 N567 1.334 . S
C570 H562 0.930 . S
C570 C565 1.418 . S
C570 C566 1.353 . S
C571 H541 0.930 . S
C571 N572 1.330 . S
C571 C573 1.446 . S
N572 Co531 2.151 . S
N572 C571 1.330 . S
N572 C576 1.418 . S
C573 H552 0.929 . S
C573 C571 1.446 . S
C573 C574 1.332 . S
C574 H554 0.931 . S
C574 C573 1.332 . S
C574 C575 1.267 . S
C575 H543 0.929 . S
C575 C574 1.267 . S
C575 C576 1.251 . S
C576 H546 0.929 . S
C576 N572 1.418 . S
C576 C575 1.251 . S
C577 H544 0.930 . S
C577 C579 1.406 . S
C577 C582 1.261 . S
C578 H545 0.930 . S
C578 N580 1.325 . S
C578 C581 1.357 . S
C579 H547 0.928 . S
C579 C577 1.406 . S
C579 N580 1.261 . S
N580 Co531 2.214 . S
N580 C578 1.325 . S
N580 C579 1.261 . S
C581 H551 0.931 . S
C581 C578 1.357 . S
C581 C582 1.312 . S
C582 H553 0.930 . S
C582 C577 1.261 . S
C582 C581 1.312 . S
C583 O555 1.214 . S
C583 O563 1.234 . S
C584 H556 0.929 . S
C584 C587 1.391 . S
C584 C589 1.391 . S
C585 H557 0.929 . S
C585 C586 1.390 . S
C585 N588 1.391 . S
C586 H558 0.930 . S
C586 C585 1.390 . S
C586 C587 1.392 . S
C587 H559 0.929 . S
C587 C584 1.391 . S
C587 C586 1.392 . S
N588 Co532 2.257 . S
N588 C585 1.391 . S
N588 C589 1.388 . S
C589 H560 0.930 . S
C589 C584 1.391 . S
C589 N588 1.388 . S
Co590 O592 2.143 . S
Co590 O598 2.074 . S
Co590 O601 2.093 . S
Co590 O614 2.097 . S
Co590 N631 2.151 . S
Co590 N639 2.214 . S
Co591 O592 2.160 . S
Co591 O597 2.058 . S
Co591 O607 2.057 . S
Co591 O622 2.037 . S
Co591 N626 2.145 . S
Co591 N647 2.257 . S
O592 Co590 2.143 . S
O592 Co591 2.160 . S
C593 O594 1.278 . S
C593 O601 1.224 . S
O594 C593 1.278 . S
C595 O596 1.245 . S
C595 O607 1.232 . S
O596 C595 1.245 . S
O597 Co591 2.058 . S
O597 C623 1.269 . S
O598 Co590 2.074 . S
O598 C623 1.257 . S
H599 C624 0.930 . S
H600 C630 0.930 . S
O601 Co590 2.093 . S
O601 C593 1.224 . S
H602 C634 0.929 . S
H603 C636 0.930 . S
H604 C637 0.930 . S
H605 C635 0.929 . S
H606 C638 0.928 . S
O607 Co591 2.057 . S
O607 C595 1.232 . S
H608 C627 0.929 . S
H609 C628 0.929 . S
H610 C640 0.931 . S
H611 C632 0.929 . S
H612 C641 0.930 . S
H613 C633 0.931 . S
O614 Co590 2.097 . S
O614 C642 1.214 . S
H615 C643 0.929 . S
H616 C644 0.929 . S
H617 C645 0.930 . S
H618 C646 0.929 . S
H619 C648 0.930 . S
H620 C625 0.930 . S
H621 C629 0.930 . S
O622 Co591 2.037 . S
O622 C642 1.234 . S
C623 O597 1.269 . S
C623 O598 1.257 . S
C624 H599 0.930 . S
C624 C627 1.388 . S
C624 C629 1.418 . S
C625 H620 0.930 . S
C625 C628 1.404 . S
C625 C629 1.353 . S
N626 Co591 2.145 . S
N626 C627 1.397 . S
N626 C628 1.334 . S
C627 H608 0.929 . S
C627 C624 1.388 . S
C627 N626 1.397 . S
C628 H609 0.929 . S
C628 C625 1.404 . S
C628 N626 1.334 . S
C629 H621 0.930 . S
C629 C624 1.418 . S
C629 C625 1.353 . S
C630 H600 0.930 . S
C630 N631 1.330 . S
C630 C632 1.446 . S
N631 Co590 2.151 . S
N631 C630 1.330 . S
N631 C635 1.418 . S
C632 H611 0.929 . S
C632 C630 1.446 . S
C632 C633 1.332 . S
C633 H613 0.931 . S
C633 C632 1.332 . S
C633 C634 1.267 . S
C634 H602 0.929 . S
C634 C633 1.267 . S
C634 C635 1.251 . S
C635 H605 0.929 . S
C635 N631 1.418 . S
C635 C634 1.251 . S
C636 H603 0.930 . S
C636 C638 1.406 . S
C636 C641 1.261 . S
C637 H604 0.930 . S
C637 N639 1.325 . S
C637 C640 1.357 . S
C638 H606 0.928 . S
C638 C636 1.406 . S
C638 N639 1.261 . S
N639 Co590 2.214 . S
N639 C637 1.325 . S
N639 C638 1.261 . S
C640 H610 0.931 . S
C640 C637 1.357 . S
C640 C641 1.312 . S
C641 H612 0.930 . S
C641 C636 1.261 . S
C641 C640 1.312 . S
C642 O614 1.214 . S
C642 O622 1.234 . S
C643 H615 0.929 . S
C643 C646 1.391 . S
C643 C648 1.391 . S
C644 H616 0.929 . S
C644 C645 1.390 . S
C644 N647 1.391 . S
C645 H617 0.930 . S
C645 C644 1.390 . S
C645 C646 1.392 . S
C646 H618 0.929 . S
C646 C643 1.391 . S
C646 C645 1.392 . S
N647 Co591 2.257 . S
N647 C644 1.391 . S
N647 C648 1.388 . S
C648 H619 0.930 . S
C648 C643 1.391 . S
C648 N647 1.388 . S
Co649 O651 2.143 . S
Co649 O657 2.074 . S
Co649 O660 2.093 . S
Co649 O673 2.097 . S
Co649 N690 2.151 . S
Co649 N698 2.214 . S
Co650 O651 2.160 . S
Co650 O656 2.058 . S
Co650 O666 2.057 . S
Co650 O681 2.037 . S
Co650 N685 2.145 . S
Co650 N706 2.257 . S
O651 Co649 2.143 . S
O651 Co650 2.160 . S
C652 O653 1.278 . S
C652 O660 1.224 . S
O653 C652 1.278 . S
C654 O655 1.245 . S
C654 O666 1.232 . S
O655 C654 1.245 . S
O656 Co650 2.058 . S
O656 C682 1.269 . S
O657 Co649 2.074 . S
O657 C682 1.257 . S
H658 C683 0.930 . S
H659 C689 0.930 . S
O660 Co649 2.093 . S
O660 C652 1.224 . S
H661 C693 0.929 . S
H662 C695 0.930 . S
H663 C696 0.930 . S
H664 C694 0.929 . S
H665 C697 0.928 . S
O666 Co650 2.057 . S
O666 C654 1.232 . S
H667 C686 0.929 . S
H668 C687 0.929 . S
H669 C699 0.931 . S
H670 C691 0.929 . S
H671 C700 0.930 . S
H672 C692 0.931 . S
O673 Co649 2.097 . S
O673 C701 1.214 . S
H674 C702 0.929 . S
H675 C703 0.929 . S
H676 C704 0.930 . S
H677 C705 0.929 . S
H678 C707 0.930 . S
H679 C684 0.930 . S
H680 C688 0.930 . S
O681 Co650 2.037 . S
O681 C701 1.234 . S
C682 O656 1.269 . S
C682 O657 1.257 . S
C683 H658 0.930 . S
C683 C686 1.388 1_556 S
C683 C688 1.418 . S
C684 H679 0.930 . S
C684 C687 1.404 . S
C684 C688 1.353 . S
N685 Co650 2.145 . S
N685 C686 1.397 . S
N685 C687 1.334 1_554 S
C686 H667 0.929 . S
C686 C683 1.388 1_554 S
C686 N685 1.397 . S
C687 H668 0.929 . S
C687 C684 1.404 . S
C687 N685 1.334 1_556 S
C688 H680 0.930 . S
C688 C683 1.418 . S
C688 C684 1.353 . S
C689 H659 0.930 . S
C689 N690 1.330 . S
C689 C691 1.446 . S
N690 Co649 2.151 . S
N690 C689 1.330 . S
N690 C694 1.418 . S
C691 H670 0.929 . S
C691 C689 1.446 . S
C691 C692 1.332 . S
C692 H672 0.931 . S
C692 C691 1.332 . S
C692 C693 1.267 . S
C693 H661 0.929 . S
C693 C692 1.267 . S
C693 C694 1.251 . S
C694 H664 0.929 . S
C694 N690 1.418 . S
C694 C693 1.251 . S
C695 H662 0.930 . S
C695 C697 1.406 . S
C695 C700 1.261 . S
C696 H663 0.930 . S
C696 N698 1.325 . S
C696 C699 1.357 . S
C697 H665 0.928 . S
C697 C695 1.406 . S
C697 N698 1.261 . S
N698 Co649 2.214 . S
N698 C696 1.325 . S
N698 C697 1.261 . S
C699 H669 0.931 . S
C699 C696 1.357 . S
C699 C700 1.312 . S
C700 H671 0.930 . S
C700 C695 1.261 . S
C700 C699 1.312 . S
C701 O673 1.214 . S
C701 O681 1.234 . S
C702 H674 0.929 . S
C702 C705 1.391 . S
C702 C707 1.391 . S
C703 H675 0.929 . S
C703 C704 1.390 . S
C703 N706 1.391 . S
C704 H676 0.930 . S
C704 C703 1.390 . S
C704 C705 1.392 . S
C705 H677 0.929 . S
C705 C702 1.391 . S
C705 C704 1.392 . S
N706 Co650 2.257 . S
N706 C703 1.391 . S
N706 C707 1.388 . S
C707 H678 0.930 . S
C707 C702 1.391 . S
C707 N706 1.388 . S
Co708 O710 2.143 . S
Co708 O716 2.074 . S
Co708 O719 2.093 . S
Co708 O732 2.097 . S
Co708 N749 2.151 . S
Co708 N757 2.214 . S
Co709 O710 2.160 . S
Co709 O715 2.058 . S
Co709 O725 2.057 . S
Co709 O740 2.037 . S
Co709 N744 2.145 . S
Co709 N765 2.257 . S
O710 Co708 2.143 . S
O710 Co709 2.160 . S
C711 O712 1.278 . S
C711 O719 1.224 . S
O712 C711 1.278 . S
C713 O714 1.245 . S
C713 O725 1.232 . S
O714 C713 1.245 . S
O715 Co709 2.058 . S
O715 C741 1.269 . S
O716 Co708 2.074 . S
O716 C741 1.257 . S
H717 C742 0.930 . S
H718 C748 0.930 . S
O719 Co708 2.093 . S
O719 C711 1.224 . S
H720 C752 0.929 . S
H721 C754 0.930 . S
H722 C755 0.930 . S
H723 C753 0.929 . S
H724 C756 0.928 . S
O725 Co709 2.057 . S
O725 C713 1.232 . S
H726 C745 0.929 . S
H727 C746 0.929 . S
H728 C758 0.931 . S
H729 C750 0.929 . S
H730 C759 0.930 . S
H731 C751 0.931 . S
O732 Co708 2.097 . S
O732 C760 1.214 . S
H733 C761 0.929 . S
H734 C762 0.929 . S
H735 C763 0.930 . S
H736 C764 0.929 . S
H737 C766 0.930 . S
H738 C743 0.930 . S
H739 C747 0.930 . S
O740 Co709 2.037 . S
O740 C760 1.234 . S
C741 O715 1.269 . S
C741 O716 1.257 . S
C742 H717 0.930 . S
C742 C745 1.388 . S
C742 C747 1.418 . S
C743 H738 0.930 . S
C743 C746 1.404 . S
C743 C747 1.353 . S
N744 Co709 2.145 . S
N744 C745 1.397 . S
N744 C746 1.334 . S
C745 H726 0.929 . S
C745 C742 1.388 . S
C745 N744 1.397 . S
C746 H727 0.929 . S
C746 C743 1.404 . S
C746 N744 1.334 . S
C747 H739 0.930 . S
C747 C742 1.418 . S
C747 C743 1.353 . S
C748 H718 0.930 . S
C748 N749 1.330 . S
C748 C750 1.446 . S
N749 Co708 2.151 . S
N749 C748 1.330 . S
N749 C753 1.418 . S
C750 H729 0.929 . S
C750 C748 1.446 . S
C750 C751 1.332 1_554 S
C751 H731 0.931 . S
C751 C750 1.332 1_556 S
C751 C752 1.267 . S
C752 H720 0.929 . S
C752 C751 1.267 . S
C752 C753 1.251 1_556 S
C753 H723 0.929 . S
C753 N749 1.418 . S
C753 C752 1.251 1_554 S
C754 H721 0.930 . S
C754 C756 1.406 . S
C754 C759 1.261 . S
C755 H722 0.930 . S
C755 N757 1.325 . S
C755 C758 1.357 . S
C756 H724 0.928 . S
C756 C754 1.406 . S
C756 N757 1.261 1_556 S
N757 Co708 2.214 . S
N757 C755 1.325 . S
N757 C756 1.261 1_554 S
C758 H728 0.931 . S
C758 C755 1.357 . S
C758 C759 1.312 1_554 S
C759 H730 0.930 . S
C759 C754 1.261 . S
C759 C758 1.312 1_556 S
C760 O732 1.214 . S
C760 O740 1.234 . S
C761 H733 0.929 . S
C761 C764 1.391 . S
C761 C766 1.391 . S
C762 H734 0.929 . S
C762 C763 1.390 . S
C762 N765 1.391 . S
C763 H735 0.930 . S
C763 C762 1.390 . S
C763 C764 1.392 . S
C764 H736 0.929 . S
C764 C761 1.391 . S
C764 C763 1.392 . S
N765 Co709 2.257 . S
N765 C762 1.391 . S
N765 C766 1.388 . S
C766 H737 0.930 . S
C766 C761 1.391 . S
C766 N765 1.388 . S
Co767 O769 2.143 . S
Co767 O775 2.074 . S
Co767 O778 2.093 . S
Co767 O791 2.097 . S
Co767 N808 2.151 . S
Co767 N816 2.214 . S
Co768 O769 2.160 . S
Co768 O774 2.058 . S
Co768 O784 2.057 . S
Co768 O799 2.037 . S
Co768 N803 2.145 . S
Co768 N824 2.257 . S
O769 Co767 2.143 . S
O769 Co768 2.160 . S
C770 O771 1.278 . S
C770 O778 1.224 . S
O771 C770 1.278 . S
C772 O773 1.245 . S
C772 O784 1.232 . S
O773 C772 1.245 . S
O774 Co768 2.058 . S
O774 C800 1.269 . S
O775 Co767 2.074 . S
O775 C800 1.257 . S
H776 C801 0.930 . S
H777 C807 0.930 . S
O778 Co767 2.093 . S
O778 C770 1.224 . S
H779 C811 0.944 . S
H780 C813 0.930 . S
H781 C814 0.930 . S
H782 C812 0.929 . S
H783 C815 0.928 . S
O784 Co768 2.057 . S
O784 C772 1.232 . S
H785 C804 0.929 . S
H786 C805 0.929 . S
H787 C817 0.931 . S
H788 C809 0.929 . S
H789 C818 0.930 . S
H790 C810 0.931 . S
O791 Co767 2.097 . S
O791 C819 1.214 . S
H792 C820 0.929 . S
H793 C821 0.929 . S
H794 C822 0.930 . S
H795 C823 0.929 . S
H796 C825 0.930 . S
H797 C802 0.930 . S
H798 C806 0.930 . S
O799 Co768 2.037 . S
O799 C819 1.234 . S
C800 O774 1.269 . S
C800 O775 1.257 . S
C801 H776 0.930 . S
C801 C804 1.388 . S
C801 C806 1.418 . S
C802 H797 0.930 . S
C802 C805 1.404 . S
C802 C806 1.353 . S
N803 Co768 2.145 . S
N803 C804 1.397 . S
N803 C805 1.334 . S
C804 H785 0.929 . S
C804 C801 1.388 . S
C804 N803 1.397 . S
C805 H786 0.929 . S
C805 C802 1.404 . S
C805 N803 1.334 . S
C806 H798 0.930 . S
C806 C801 1.418 . S
C806 C802 1.353 . S
C807 H777 0.930 . S
C807 N808 1.330 . S
C807 C809 1.446 . S
N808 Co767 2.151 . S
N808 C807 1.330 . S
N808 C812 1.418 . S
C809 H788 0.929 . S
C809 C807 1.446 . S
C809 C810 1.332 1_556 S
C810 H790 0.931 . S
C810 C809 1.332 1_554 S
C810 C811 1.272 . S
C811 H779 0.944 . S
C811 C810 1.272 . S
C811 C812 1.233 1_554 S
C812 H782 0.929 . S
C812 N808 1.418 . S
C812 C811 1.233 1_556 S
C813 H780 0.930 . S
C813 C815 1.406 . S
C813 C818 1.261 . S
C814 H781 0.930 . S
C814 N816 1.325 . S
C814 C817 1.357 . S
C815 H783 0.928 . S
C815 C813 1.406 . S
C815 N816 1.261 1_554 S
N816 Co767 2.214 . S
N816 C814 1.325 . S
N816 C815 1.261 1_556 S
C817 H787 0.931 . S
C817 C814 1.357 . S
C817 C818 1.312 1_556 S
C818 H789 0.930 . S
C818 C813 1.261 . S
C818 C817 1.312 1_554 S
C819 O791 1.214 . S
C819 O799 1.234 . S
C820 H792 0.929 . S
C820 C823 1.391 . S
C820 C825 1.391 . S
C821 H793 0.929 . S
C821 C822 1.390 . S
C821 N824 1.391 . S
C822 H794 0.930 . S
C822 C821 1.390 . S
C822 C823 1.392 . S
C823 H795 0.929 . S
C823 C820 1.391 . S
C823 C822 1.392 . S
N824 Co768 2.257 . S
N824 C821 1.391 . S
N824 C825 1.388 . S
C825 H796 0.930 . S
C825 C820 1.391 . S
C825 N824 1.388 . S
Co826 O828 2.143 . S
Co826 O834 2.074 . S
Co826 O837 2.093 . S
Co826 O850 2.097 . S
Co826 N867 2.151 . S
Co826 N875 2.214 . S
Co827 O828 2.160 . S
Co827 O833 2.058 . S
Co827 O843 2.057 . S
Co827 O858 2.037 . S
Co827 N862 2.145 . S
Co827 N883 2.257 . S
O828 Co826 2.143 . S
O828 Co827 2.160 . S
C829 O830 1.278 . S
C829 O837 1.224 . S
O830 C829 1.278 . S
C831 O832 1.245 . S
C831 O843 1.232 . S
O832 C831 1.245 . S
O833 Co827 2.058 . S
O833 C859 1.269 . S
O834 Co826 2.074 . S
O834 C859 1.257 . S
H835 C860 0.930 . S
H836 C866 0.930 . S
O837 Co826 2.093 . S
O837 C829 1.224 . S
H838 C870 0.929 . S
H839 C872 0.930 . S
H840 C873 0.930 . S
H841 C871 0.929 . S
H842 C874 0.928 . S
O843 Co827 2.057 . S
O843 C831 1.232 . S
H844 C863 0.929 . S
H845 C864 0.929 . S
H846 C876 0.931 . S
H847 C868 0.929 . S
H848 C877 0.930 . S
H849 C869 0.931 . S
O850 Co826 2.097 . S
O850 C878 1.214 . S
H851 C879 0.929 . S
H852 C880 0.929 . S
H853 C881 0.930 . S
H854 C882 0.929 . S
H855 C884 0.930 . S
H856 C861 0.930 . S
H857 C865 0.930 . S
O858 Co827 2.037 . S
O858 C878 1.234 . S
C859 O833 1.269 . S
C859 O834 1.257 . S
C860 H835 0.930 . S
C860 C863 1.388 . S
C860 C865 1.418 . S
C861 H856 0.930 . S
C861 C864 1.404 . S
C861 C865 1.353 . S
N862 Co827 2.145 . S
N862 C863 1.397 . S
N862 C864 1.334 . S
C863 H844 0.929 . S
C863 C860 1.388 . S
C863 N862 1.397 . S
C864 H845 0.929 . S
C864 C861 1.404 . S
C864 N862 1.334 . S
C865 H857 0.930 . S
C865 C860 1.418 . S
C865 C861 1.353 . S
C866 H836 0.930 . S
C866 N867 1.330 . S
C866 C868 1.446 . S
N867 Co826 2.151 . S
N867 C866 1.330 . S
N867 C871 1.418 . S
C868 H847 0.929 . S
C868 C866 1.446 . S
C868 C869 1.332 . S
C869 H849 0.931 . S
C869 C868 1.332 . S
C869 C870 1.267 . S
C870 H838 0.929 . S
C870 C869 1.267 . S
C870 C871 1.251 . S
C871 H841 0.929 . S
C871 N867 1.418 . S
C871 C870 1.251 . S
C872 H839 0.930 . S
C872 C874 1.406 . S
C872 C877 1.261 . S
C873 H840 0.930 . S
C873 N875 1.325 . S
C873 C876 1.357 . S
C874 H842 0.928 . S
C874 C872 1.406 . S
C874 N875 1.261 . S
N875 Co826 2.214 . S
N875 C873 1.325 . S
N875 C874 1.261 . S
C876 H846 0.931 . S
C876 C873 1.357 . S
C876 C877 1.312 . S
C877 H848 0.930 . S
C877 C872 1.261 . S
C877 C876 1.312 . S
C878 O850 1.214 . S
C878 O858 1.234 . S
C879 H851 0.929 . S
C879 C882 1.391 . S
C879 C884 1.391 . S
C880 H852 0.929 . S
C880 C881 1.390 . S
C880 N883 1.391 . S
C881 H853 0.930 . S
C881 C880 1.390 . S
C881 C882 1.392 . S
C882 H854 0.929 . S
C882 C879 1.391 . S
C882 C881 1.392 . S
N883 Co827 2.257 . S
N883 C880 1.391 . S
N883 C884 1.388 . S
C884 H855 0.930 . S
C884 C879 1.391 . S
C884 N883 1.388 . S
Co885 O887 2.143 . S
Co885 O893 2.074 . S
Co885 O896 2.093 . S
Co885 O909 2.097 . S
Co885 N926 2.151 . S
Co885 N934 2.214 . S
Co886 O887 2.160 . S
Co886 O892 2.058 . S
Co886 O902 2.057 . S
Co886 O917 2.037 . S
Co886 N921 2.145 . S
Co886 N942 2.257 . S
O887 Co885 2.143 . S
O887 Co886 2.160 . S
C888 O889 1.278 . S
C888 O896 1.224 . S
O889 C888 1.278 . S
C890 O891 1.245 . S
C890 O902 1.232 . S
O891 C890 1.245 . S
O892 Co886 2.058 . S
O892 C918 1.269 . S
O893 Co885 2.074 . S
O893 C918 1.257 . S
H894 C919 0.930 . S
H895 C925 0.930 . S
O896 Co885 2.093 . S
O896 C888 1.224 . S
H897 C929 0.929 . S
H898 C931 0.930 . S
H899 C932 0.930 . S
H900 C930 0.929 . S
H901 C933 0.928 . S
O902 Co886 2.057 . S
O902 C890 1.232 . S
H903 C922 0.929 . S
H904 C923 0.929 . S
H905 C935 0.931 . S
H906 C927 0.929 . S
H907 C936 0.930 . S
H908 C928 0.931 . S
O909 Co885 2.097 . S
O909 C937 1.214 . S
H910 C938 0.929 . S
H911 C939 0.929 . S
H912 C940 0.930 . S
H913 C941 0.929 . S
H914 C943 0.930 . S
H915 C920 0.930 . S
H916 C924 0.930 . S
O917 Co886 2.037 . S
O917 C937 1.234 . S
C918 O892 1.269 . S
C918 O893 1.257 . S
C919 H894 0.930 . S
C919 C922 1.388 . S
C919 C924 1.418 . S
C920 H915 0.930 . S
C920 C923 1.404 . S
C920 C924 1.353 . S
N921 Co886 2.145 . S
N921 C922 1.397 . S
N921 C923 1.334 . S
C922 H903 0.929 . S
C922 C919 1.388 . S
C922 N921 1.397 . S
C923 H904 0.929 . S
C923 C920 1.404 . S
C923 N921 1.334 . S
C924 H916 0.930 . S
C924 C919 1.418 . S
C924 C920 1.353 . S
C925 H895 0.930 . S
C925 N926 1.330 . S
C925 C927 1.446 . S
N926 Co885 2.151 . S
N926 C925 1.330 . S
N926 C930 1.418 . S
C927 H906 0.929 . S
C927 C925 1.446 . S
C927 C928 1.332 . S
C928 H908 0.931 . S
C928 C927 1.332 . S
C928 C929 1.267 . S
C929 H897 0.929 . S
C929 C928 1.267 . S
C929 C930 1.251 . S
C930 H900 0.929 . S
C930 N926 1.418 . S
C930 C929 1.251 . S
C931 H898 0.930 . S
C931 C933 1.406 . S
C931 C936 1.261 . S
C932 H899 0.930 . S
C932 N934 1.325 . S
C932 C935 1.357 . S
C933 H901 0.928 . S
C933 C931 1.406 . S
C933 N934 1.261 . S
N934 Co885 2.214 . S
N934 C932 1.325 . S
N934 C933 1.261 . S
C935 H905 0.931 . S
C935 C932 1.357 . S
C935 C936 1.312 . S
C936 H907 0.930 . S
C936 C931 1.261 . S
C936 C935 1.312 . S
C937 O909 1.214 . S
C937 O917 1.234 . S
C938 H910 0.929 . S
C938 C941 1.391 . S
C938 C943 1.391 . S
C939 H911 0.929 . S
C939 C940 1.390 . S
C939 N942 1.391 . S
C940 H912 0.930 . S
C940 C939 1.390 . S
C940 C941 1.392 . S
C941 H913 0.929 . S
C941 C938 1.391 . S
C941 C940 1.392 . S
N942 Co886 2.257 . S
N942 C939 1.391 . S
N942 C943 1.388 . S
C943 H914 0.930 . S
C943 C938 1.391 . S
C943 N942 1.388 . S
H944 C956 0.930 . S
H945 C958 0.930 . S
H946 C959 0.930 . S
H947 C963 0.959 . S
H948 C963 0.959 . S
H949 C963 0.961 . S
H950 C964 0.960 . S
H951 C964 0.961 . S
H952 C964 0.959 . S
H953 C967 0.929 . S
H954 C968 0.931 . S
H955 C970 0.930 . S
C956 H944 0.930 . S
C956 C957 1.399 . S
C956 C961 1.399 . S
C957 C956 1.399 . S
C957 C958 1.376 . S
C958 H945 0.930 . S
C958 C957 1.376 . S
C958 C959 1.388 . S
C959 H946 0.930 . S
C959 C958 1.388 . S
C959 C960 1.390 . S
C960 C959 1.390 . S
C960 C961 1.394 . S
C960 C966 1.465 . S
C961 C956 1.399 . S
C961 C960 1.394 . S
C961 C962 1.516 . S
C962 C961 1.516 . S
C962 C963 1.502 . S
C962 C964 1.561 . S
C962 C965 1.526 . S
C963 H947 0.959 . S
C963 H948 0.959 . S
C963 H949 0.961 . S
C963 C962 1.502 . S
C964 H950 0.960 . S
C964 H951 0.961 . S
C964 H952 0.959 . S
C964 C962 1.561 . S
C965 C962 1.526 . S
C965 C966 1.396 . S
C965 C970 1.390 . S
C966 C960 1.465 . S
C966 C965 1.396 . S
C966 C967 1.399 . S
C967 H953 0.929 . S
C967 C966 1.399 . S
C967 C968 1.385 . S
C968 H954 0.931 . S
C968 C967 1.385 . S
C968 C969 1.389 . S
C969 C968 1.389 . S
C969 C970 1.387 . S
C970 H955 0.930 . S
C970 C965 1.390 . S
C970 C969 1.387 . S
H971 C983 0.930 . S
H972 C985 0.930 . S
H973 C986 0.930 . S
H974 C990 0.959 . S
H975 C990 0.959 . S
H976 C990 0.961 . S
H977 C991 0.960 . S
H978 C991 0.961 . S
H979 C991 0.959 . S
H980 C994 0.929 . S
H981 C995 0.931 . S
H982 C997 0.930 . S
C983 H971 0.930 . S
C983 C984 1.399 . S
C983 C988 1.399 . S
C984 C983 1.399 . S
C984 C985 1.376 . S
C985 H972 0.930 . S
C985 C984 1.376 . S
C985 C986 1.388 . S
C986 H973 0.930 . S
C986 C985 1.388 . S
C986 C987 1.390 . S
C987 C986 1.390 . S
C987 C988 1.394 . S
C987 C993 1.465 . S
C988 C983 1.399 . S
C988 C987 1.394 . S
C988 C989 1.516 . S
C989 C988 1.516 . S
C989 C990 1.502 . S
C989 C991 1.561 . S
C989 C992 1.526 . S
C990 H974 0.959 . S
C990 H975 0.959 . S
C990 H976 0.961 . S
C990 C989 1.502 . S
C991 H977 0.960 . S
C991 H978 0.961 . S
C991 H979 0.959 . S
C991 C989 1.561 . S
C992 C989 1.526 . S
C992 C993 1.396 . S
C992 C997 1.390 . S
C993 C987 1.465 . S
C993 C992 1.396 . S
C993 C994 1.399 . S
C994 H980 0.929 . S
C994 C993 1.399 . S
C994 C995 1.385 . S
C995 H981 0.931 . S
C995 C994 1.385 . S
C995 C996 1.389 . S
C996 C995 1.389 . S
C996 C997 1.387 . S
C997 H982 0.930 . S
C997 C992 1.390 . S
C997 C996 1.387 . S
H998 C1010 0.930 . S
H999 C1012 0.930 . S
H1000 C1013 0.930 . S
H1001 C1017 0.959 . S
H1002 C1017 0.959 . S
H1003 C1017 0.961 . S
H1004 C1018 0.960 . S
H1005 C1018 0.961 . S
H1006 C1018 0.959 . S
H1007 C1021 0.929 . S
H1008 C1022 0.931 . S
H1009 C1024 0.930 . S
C1010 H998 0.930 . S
C1010 C1011 1.399 . S
C1010 C1015 1.399 . S
C1011 C1010 1.399 . S
C1011 C1012 1.376 . S
C1012 H999 0.930 . S
C1012 C1011 1.376 . S
C1012 C1013 1.388 . S
C1013 H1000 0.930 . S
C1013 C1012 1.388 . S
C1013 C1014 1.390 . S
C1014 C1013 1.390 . S
C1014 C1015 1.394 . S
C1014 C1020 1.465 . S
C1015 C1010 1.399 . S
C1015 C1014 1.394 . S
C1015 C1016 1.516 . S
C1016 C1015 1.516 . S
C1016 C1017 1.502 . S
C1016 C1018 1.561 . S
C1016 C1019 1.526 . S
C1017 H1001 0.959 . S
C1017 H1002 0.959 . S
C1017 H1003 0.961 . S
C1017 C1016 1.502 . S
C1018 H1004 0.960 . S
C1018 H1005 0.961 . S
C1018 H1006 0.959 . S
C1018 C1016 1.561 . S
C1019 C1016 1.526 . S
C1019 C1020 1.396 . S
C1019 C1024 1.390 . S
C1020 C1014 1.465 . S
C1020 C1019 1.396 . S
C1020 C1021 1.399 . S
C1021 H1007 0.929 . S
C1021 C1020 1.399 . S
C1021 C1022 1.385 . S
C1022 H1008 0.931 . S
C1022 C1021 1.385 . S
C1022 C1023 1.389 . S
C1023 C1022 1.389 . S
C1023 C1024 1.387 . S
C1024 H1009 0.930 . S
C1024 C1019 1.390 . S
C1024 C1023 1.387 . S
H1025 C1037 0.930 . S
H1026 C1039 0.930 . S
H1027 C1040 0.930 . S
H1028 C1044 0.963 . S
H1029 C1044 0.989 . S
H1030 C1044 0.929 1_455 S
H1031 C1045 0.952 1_455 S
H1032 C1045 0.968 . S
H1033 C1045 0.960 . S
H1034 C1048 0.929 . S
H1035 C1049 0.931 . S
H1036 C1051 0.930 . S
C1037 H1025 0.930 . S
C1037 C1038 1.399 . S
C1037 C1042 1.399 . S
C1038 C1037 1.399 . S
C1038 C1039 1.376 . S
C1039 H1026 0.930 . S
C1039 C1038 1.376 . S
C1039 C1040 1.388 . S
C1040 H1027 0.930 . S
C1040 C1039 1.388 . S
C1040 C1041 1.390 . S
C1041 C1040 1.390 . S
C1041 C1042 1.394 . S
C1041 C1047 1.465 1_455 S
C1042 C1037 1.399 . S
C1042 C1041 1.394 . S
C1042 C1043 1.510 1_455 S
C1043 C1042 1.510 1_655 S
C1043 C1044 1.501 . S
C1043 C1045 1.561 . S
C1043 C1046 1.532 . S
C1044 H1028 0.963 . S
C1044 H1029 0.989 . S
C1044 H1030 0.929 1_655 S
C1044 C1043 1.501 . S
C1045 H1031 0.952 1_655 S
C1045 H1032 0.968 . S
C1045 H1033 0.960 . S
C1045 C1043 1.561 . S
C1046 C1043 1.532 . S
C1046 C1047 1.396 . S
C1046 C1051 1.390 . S
C1047 C1041 1.465 1_655 S
C1047 C1046 1.396 . S
C1047 C1048 1.399 . S
C1048 H1034 0.929 . S
C1048 C1047 1.399 . S
C1048 C1049 1.385 . S
C1049 H1035 0.931 . S
C1049 C1048 1.385 . S
C1049 C1050 1.389 . S
C1050 C1049 1.389 . S
C1050 C1051 1.387 . S
C1051 H1036 0.930 . S
C1051 C1046 1.390 . S
C1051 C1050 1.387 . S
H1052 C1064 0.930 . S
H1053 C1066 0.930 . S
H1054 C1067 0.930 . S
H1055 C1071 0.959 . S
H1056 C1071 0.959 . S
H1057 C1071 0.961 . S
H1058 C1072 0.960 . S
H1059 C1072 0.961 . S
H1060 C1072 0.959 . S
H1061 C1075 0.929 . S
H1062 C1076 0.931 . S
H1063 C1078 0.930 . S
C1064 H1052 0.930 . S
C1064 C1065 1.399 . S
C1064 C1069 1.399 . S
C1065 C1064 1.399 . S
C1065 C1066 1.376 . S
C1066 H1053 0.930 . S
C1066 C1065 1.376 . S
C1066 C1067 1.388 . S
C1067 H1054 0.930 . S
C1067 C1066 1.388 . S
C1067 C1068 1.390 . S
C1068 C1067 1.390 . S
C1068 C1069 1.394 . S
C1068 C1074 1.465 . S
C1069 C1064 1.399 . S
C1069 C1068 1.394 . S
C1069 C1070 1.516 . S
C1070 C1069 1.516 . S
C1070 C1071 1.502 . S
C1070 C1072 1.561 . S
C1070 C1073 1.526 . S
C1071 H1055 0.959 . S
C1071 H1056 0.959 . S
C1071 H1057 0.961 . S
C1071 C1070 1.502 . S
C1072 H1058 0.960 . S
C1072 H1059 0.961 . S
C1072 H1060 0.959 . S
C1072 C1070 1.561 . S
C1073 C1070 1.526 . S
C1073 C1074 1.396 . S
C1073 C1078 1.390 . S
C1074 C1068 1.465 . S
C1074 C1073 1.396 . S
C1074 C1075 1.399 . S
C1075 H1061 0.929 . S
C1075 C1074 1.399 . S
C1075 C1076 1.385 . S
C1076 H1062 0.931 . S
C1076 C1075 1.385 . S
C1076 C1077 1.389 . S
C1077 C1076 1.389 . S
C1077 C1078 1.387 . S
C1078 H1063 0.930 . S
C1078 C1073 1.390 . S
C1078 C1077 1.387 . S
H1079 C1091 0.930 . S
H1080 C1093 0.930 . S
H1081 C1094 0.930 . S
H1082 C1098 0.963 . S
H1083 C1098 0.985 . S
H1084 C1098 0.933 1_655 S
H1085 C1099 0.955 1_655 S
H1086 C1099 0.966 . S
H1087 C1099 0.959 . S
H1088 C1102 0.929 . S
H1089 C1103 0.931 . S
H1090 C1105 0.930 . S
C1091 H1079 0.930 . S
C1091 C1092 1.399 . S
C1091 C1096 1.399 . S
C1092 C1091 1.399 . S
C1092 C1093 1.376 . S
C1093 H1080 0.930 . S
C1093 C1092 1.376 . S
C1093 C1094 1.388 . S
C1094 H1081 0.930 . S
C1094 C1093 1.388 . S
C1094 C1095 1.390 . S
C1095 C1094 1.390 . S
C1095 C1096 1.394 . S
C1095 C1101 1.465 1_655 S
C1096 C1091 1.399 . S
C1096 C1095 1.394 . S
C1096 C1097 1.513 1_655 S
C1097 C1096 1.513 1_455 S
C1097 C1098 1.501 . S
C1097 C1099 1.561 . S
C1097 C1100 1.529 . S
C1098 H1082 0.963 . S
C1098 H1083 0.985 . S
C1098 H1084 0.933 1_455 S
C1098 C1097 1.501 . S
C1099 H1085 0.955 1_455 S
C1099 H1086 0.966 . S
C1099 H1087 0.959 . S
C1099 C1097 1.561 . S
C1100 C1097 1.529 . S
C1100 C1101 1.396 . S
C1100 C1105 1.390 . S
C1101 C1095 1.465 1_455 S
C1101 C1100 1.396 . S
C1101 C1102 1.399 . S
C1102 H1088 0.929 . S
C1102 C1101 1.399 . S
C1102 C1103 1.385 . S
C1103 H1089 0.931 . S
C1103 C1102 1.385 . S
C1103 C1104 1.389 . S
C1104 C1103 1.389 . S
C1104 C1105 1.387 . S
C1105 H1090 0.930 . S
C1105 C1100 1.390 . S
C1105 C1104 1.387 . S
H1106 C1118 0.930 . S
H1107 C1120 0.930 . S
H1108 C1121 0.930 . S
H1109 C1125 0.959 . S
H1110 C1125 0.959 . S
H1111 C1125 0.961 . S
H1112 C1126 0.960 . S
H1113 C1126 0.961 . S
H1114 C1126 0.959 . S
H1115 C1129 0.929 . S
H1116 C1130 0.931 . S
H1117 C1132 0.930 . S
C1118 H1106 0.930 . S
C1118 C1119 1.399 . S
C1118 C1123 1.399 . S
C1119 C1118 1.399 . S
C1119 C1120 1.376 . S
C1120 H1107 0.930 . S
C1120 C1119 1.376 . S
C1120 C1121 1.388 . S
C1121 H1108 0.930 . S
C1121 C1120 1.388 . S
C1121 C1122 1.390 . S
C1122 C1121 1.390 . S
C1122 C1123 1.394 . S
C1122 C1128 1.465 . S
C1123 C1118 1.399 . S
C1123 C1122 1.394 . S
C1123 C1124 1.516 . S
C1124 C1123 1.516 . S
C1124 C1125 1.502 . S
C1124 C1126 1.561 . S
C1124 C1127 1.526 . S
C1125 H1109 0.959 . S
C1125 H1110 0.959 . S
C1125 H1111 0.961 . S
C1125 C1124 1.502 . S
C1126 H1112 0.960 . S
C1126 H1113 0.961 . S
C1126 H1114 0.959 . S
C1126 C1124 1.561 . S
C1127 C1124 1.526 . S
C1127 C1128 1.396 . S
C1127 C1132 1.390 . S
C1128 C1122 1.465 . S
C1128 C1127 1.396 . S
C1128 C1129 1.399 . S
C1129 H1115 0.929 . S
C1129 C1128 1.399 . S
C1129 C1130 1.385 . S
C1130 H1116 0.931 . S
C1130 C1129 1.385 . S
C1130 C1131 1.389 . S
C1131 C1130 1.389 . S
C1131 C1132 1.387 . S
C1132 H1117 0.930 . S
C1132 C1127 1.390 . S
C1132 C1131 1.387 . S
H1133 C1145 0.930 . S
H1134 C1147 0.930 . S
H1135 C1148 0.930 . S
H1136 C1152 0.959 . S
H1137 C1152 0.959 . S
H1138 C1152 0.961 . S
H1139 C1153 0.960 . S
H1140 C1153 0.961 . S
H1141 C1153 0.959 . S
H1142 C1156 0.929 . S
H1143 C1157 0.931 . S
H1144 C1159 0.930 . S
C1145 H1133 0.930 . S
C1145 C1146 1.399 . S
C1145 C1150 1.399 . S
C1146 C1145 1.399 . S
C1146 C1147 1.376 . S
C1147 H1134 0.930 . S
C1147 C1146 1.376 . S
C1147 C1148 1.388 . S
C1148 H1135 0.930 . S
C1148 C1147 1.388 . S
C1148 C1149 1.390 . S
C1149 C1148 1.390 . S
C1149 C1150 1.394 . S
C1149 C1155 1.465 . S
C1150 C1145 1.399 . S
C1150 C1149 1.394 . S
C1150 C1151 1.516 . S
C1151 C1150 1.516 . S
C1151 C1152 1.502 . S
C1151 C1153 1.561 . S
C1151 C1154 1.526 . S
C1152 H1136 0.959 . S
C1152 H1137 0.959 . S
C1152 H1138 0.961 . S
C1152 C1151 1.502 . S
C1153 H1139 0.960 . S
C1153 H1140 0.961 . S
C1153 H1141 0.959 . S
C1153 C1151 1.561 . S
C1154 C1151 1.526 . S
C1154 C1155 1.396 . S
C1154 C1159 1.390 . S
C1155 C1149 1.465 . S
C1155 C1154 1.396 . S
C1155 C1156 1.399 . S
C1156 H1142 0.929 . S
C1156 C1155 1.399 . S
C1156 C1157 1.385 . S
C1157 H1143 0.931 . S
C1157 C1156 1.385 . S
C1157 C1158 1.389 . S
C1158 C1157 1.389 . S
C1158 C1159 1.387 . S
C1159 H1144 0.930 . S
C1159 C1154 1.390 . S
C1159 C1158 1.387 . S
H1160 C1172 0.930 . S
H1161 C1174 0.930 . S
H1162 C1175 0.930 . S
H1163 C1179 0.959 . S
H1164 C1179 0.959 . S
H1165 C1179 0.961 . S
H1166 C1180 0.960 . S
H1167 C1180 0.961 . S
H1168 C1180 0.959 . S
H1169 C1183 0.929 . S
H1170 C1184 0.931 . S
H1171 C1186 0.930 . S
C1172 H1160 0.930 . S
C1172 C1173 1.399 . S
C1172 C1177 1.399 . S
C1173 C1172 1.399 . S
C1173 C1174 1.376 . S
C1174 H1161 0.930 . S
C1174 C1173 1.376 . S
C1174 C1175 1.388 . S
C1175 H1162 0.930 . S
C1175 C1174 1.388 . S
C1175 C1176 1.390 . S
C1176 C1175 1.390 . S
C1176 C1177 1.394 . S
C1176 C1182 1.465 . S
C1177 C1172 1.399 . S
C1177 C1176 1.394 . S
C1177 C1178 1.516 . S
C1178 C1177 1.516 . S
C1178 C1179 1.502 . S
C1178 C1180 1.561 . S
C1178 C1181 1.526 . S
C1179 H1163 0.959 . S
C1179 H1164 0.959 . S
C1179 H1165 0.961 . S
C1179 C1178 1.502 . S
C1180 H1166 0.960 . S
C1180 H1167 0.961 . S
C1180 H1168 0.959 . S
C1180 C1178 1.561 . S
C1181 C1178 1.526 . S
C1181 C1182 1.396 . S
C1181 C1186 1.390 . S
C1182 C1176 1.465 . S
C1182 C1181 1.396 . S
C1182 C1183 1.399 . S
C1183 H1169 0.929 . S
C1183 C1182 1.399 . S
C1183 C1184 1.385 . S
C1184 H1170 0.931 . S
C1184 C1183 1.385 . S
C1184 C1185 1.389 . S
C1185 C1184 1.389 . S
C1185 C1186 1.387 . S
C1186 H1171 0.930 . S
C1186 C1181 1.390 . S
C1186 C1185 1.387 . S
H1187 C1199 0.930 . S
H1188 C1201 0.930 . S
H1189 C1202 0.930 . S
H1190 C1206 0.959 . S
H1191 C1206 0.959 . S
H1192 C1206 0.961 . S
H1193 C1207 0.960 . S
H1194 C1207 0.961 . S
H1195 C1207 0.959 . S
H1196 C1210 0.929 . S
H1197 C1211 0.931 . S
H1198 C1213 0.930 . S
C1199 H1187 0.930 . S
C1199 C1200 1.399 . S
C1199 C1204 1.399 . S
C1200 C1199 1.399 . S
C1200 C1201 1.376 . S
C1201 H1188 0.930 . S
C1201 C1200 1.376 . S
C1201 C1202 1.388 . S
C1202 H1189 0.930 . S
C1202 C1201 1.388 . S
C1202 C1203 1.390 . S
C1203 C1202 1.390 . S
C1203 C1204 1.394 . S
C1203 C1209 1.465 . S
C1204 C1199 1.399 . S
C1204 C1203 1.394 . S
C1204 C1205 1.516 . S
C1205 C1204 1.516 . S
C1205 C1206 1.502 . S
C1205 C1207 1.561 . S
C1205 C1208 1.526 . S
C1206 H1190 0.959 . S
C1206 H1191 0.959 . S
C1206 H1192 0.961 . S
C1206 C1205 1.502 . S
C1207 H1193 0.960 . S
C1207 H1194 0.961 . S
C1207 H1195 0.959 . S
C1207 C1205 1.561 . S
C1208 C1205 1.526 . S
C1208 C1209 1.396 . S
C1208 C1213 1.390 . S
C1209 C1203 1.465 . S
C1209 C1208 1.396 . S
C1209 C1210 1.399 . S
C1210 H1196 0.929 . S
C1210 C1209 1.399 . S
C1210 C1211 1.385 . S
C1211 H1197 0.931 . S
C1211 C1210 1.385 . S
C1211 C1212 1.389 . S
C1212 C1211 1.389 . S
C1212 C1213 1.387 . S
C1213 H1198 0.930 . S
C1213 C1208 1.390 . S
C1213 C1212 1.387 . S
H1214 C1226 0.930 . S
H1215 C1228 0.930 . S
H1216 C1229 0.930 . S
H1217 C1233 0.959 . S
H1218 C1233 0.959 . S
H1219 C1233 0.961 . S
H1220 C1234 0.960 . S
H1221 C1234 0.961 . S
H1222 C1234 0.959 . S
H1223 C1237 0.929 . S
H1224 C1238 0.931 . S
H1225 C1240 0.930 . S
C1226 H1214 0.930 . S
C1226 C1227 1.399 . S
C1226 C1231 1.399 . S
C1227 C1226 1.399 . S
C1227 C1228 1.376 . S
C1228 H1215 0.930 . S
C1228 C1227 1.376 . S
C1228 C1229 1.388 . S
C1229 H1216 0.930 . S
C1229 C1228 1.388 . S
C1229 C1230 1.390 . S
C1230 C1229 1.390 . S
C1230 C1231 1.394 . S
C1230 C1236 1.465 . S
C1231 C1226 1.399 . S
C1231 C1230 1.394 . S
C1231 C1232 1.516 . S
C1232 C1231 1.516 . S
C1232 C1233 1.502 . S
C1232 C1234 1.561 . S
C1232 C1235 1.526 . S
C1233 H1217 0.959 . S
C1233 H1218 0.959 . S
C1233 H1219 0.961 . S
C1233 C1232 1.502 . S
C1234 H1220 0.960 . S
C1234 H1221 0.961 . S
C1234 H1222 0.959 . S
C1234 C1232 1.561 . S
C1235 C1232 1.526 . S
C1235 C1236 1.396 . S
C1235 C1240 1.390 . S
C1236 C1230 1.465 . S
C1236 C1235 1.396 . S
C1236 C1237 1.399 . S
C1237 H1223 0.929 . S
C1237 C1236 1.399 . S
C1237 C1238 1.385 . S
C1238 H1224 0.931 . S
C1238 C1237 1.385 . S
C1238 C1239 1.389 . S
C1239 C1238 1.389 . S
C1239 C1240 1.387 . S
C1240 H1225 0.930 . S
C1240 C1235 1.390 . S
C1240 C1239 1.387 . S
H1241 C1253 0.930 . S
H1242 C1255 0.930 . S
H1243 C1256 0.930 . S
H1244 C1260 0.959 . S
H1245 C1260 0.959 . S
H1246 C1260 0.961 . S
H1247 C1261 0.960 . S
H1248 C1261 0.961 . S
H1249 C1261 0.959 . S
H1250 C1264 0.929 . S
H1251 C1265 0.931 . S
H1252 C1267 0.930 . S
C1253 H1241 0.930 . S
C1253 C1254 1.399 . S
C1253 C1258 1.399 . S
C1254 C1253 1.399 . S
C1254 C1255 1.376 . S
C1255 H1242 0.930 . S
C1255 C1254 1.376 . S
C1255 C1256 1.388 . S
C1256 H1243 0.930 . S
C1256 C1255 1.388 . S
C1256 C1257 1.390 . S
C1257 C1256 1.390 . S
C1257 C1258 1.394 . S
C1257 C1263 1.465 . S
C1258 C1253 1.399 . S
C1258 C1257 1.394 . S
C1258 C1259 1.516 . S
C1259 C1258 1.516 . S
C1259 C1260 1.502 . S
C1259 C1261 1.561 . S
C1259 C1262 1.526 . S
C1260 H1244 0.959 . S
C1260 H1245 0.959 . S
C1260 H1246 0.961 . S
C1260 C1259 1.502 . S
C1261 H1247 0.960 . S
C1261 H1248 0.961 . S
C1261 H1249 0.959 . S
C1261 C1259 1.561 . S
C1262 C1259 1.526 . S
C1262 C1263 1.396 . S
C1262 C1267 1.390 . S
C1263 C1257 1.465 . S
C1263 C1262 1.396 . S
C1263 C1264 1.399 . S
C1264 H1250 0.929 . S
C1264 C1263 1.399 . S
C1264 C1265 1.385 . S
C1265 H1251 0.931 . S
C1265 C1264 1.385 . S
C1265 C1266 1.389 . S
C1266 C1265 1.389 . S
C1266 C1267 1.387 . S
C1267 H1252 0.930 . S
C1267 C1262 1.390 . S
C1267 C1266 1.387 . S
H1268 C1280 0.930 . S
H1269 C1282 0.930 . S
H1270 C1283 0.930 . S
H1271 C1287 0.962 . S
H1272 C1287 0.980 . S
H1273 C1287 0.939 1_455 S
H1274 C1288 0.957 1_455 S
H1275 C1288 0.963 . S
H1276 C1288 0.959 . S
H1277 C1291 0.929 . S
H1278 C1292 0.931 . S
H1279 C1294 0.930 . S
C1280 H1268 0.930 . S
C1280 C1281 1.399 . S
C1280 C1285 1.399 . S
C1281 C1280 1.399 . S
C1281 C1282 1.376 . S
C1282 H1269 0.930 . S
C1282 C1281 1.376 . S
C1282 C1283 1.388 . S
C1283 H1270 0.930 . S
C1283 C1282 1.388 . S
C1283 C1284 1.390 . S
C1284 C1283 1.390 . S
C1284 C1285 1.394 . S
C1284 C1290 1.465 1_455 S
C1285 C1280 1.399 . S
C1285 C1284 1.394 . S
C1285 C1286 1.517 1_455 S
C1286 C1285 1.517 1_655 S
C1286 C1287 1.502 . S
C1286 C1288 1.561 . S
C1286 C1289 1.525 . S
C1287 H1271 0.962 . S
C1287 H1272 0.980 . S
C1287 H1273 0.939 1_655 S
C1287 C1286 1.502 . S
C1288 H1274 0.957 1_655 S
C1288 H1275 0.963 . S
C1288 H1276 0.959 . S
C1288 C1286 1.561 . S
C1289 C1286 1.525 . S
C1289 C1290 1.396 . S
C1289 C1294 1.390 . S
C1290 C1284 1.465 1_655 S
C1290 C1289 1.396 . S
C1290 C1291 1.399 . S
C1291 H1277 0.929 . S
C1291 C1290 1.399 . S
C1291 C1292 1.385 . S
C1292 H1278 0.931 . S
C1292 C1291 1.385 . S
C1292 C1293 1.389 . S
C1293 C1292 1.389 . S
C1293 C1294 1.387 . S
C1294 H1279 0.930 . S
C1294 C1289 1.390 . S
C1294 C1293 1.387 . S
H1295 C1307 0.930 . S
H1296 C1309 0.930 . S
H1297 C1310 0.930 . S
H1298 C1314 0.959 . S
H1299 C1314 0.959 . S
H1300 C1314 0.961 . S
H1301 C1315 0.960 . S
H1302 C1315 0.961 . S
H1303 C1315 0.959 . S
H1304 C1318 0.929 . S
H1305 C1319 0.931 . S
H1306 C1321 0.930 . S
C1307 H1295 0.930 . S
C1307 C1308 1.399 . S
C1307 C1312 1.399 . S
C1308 C1307 1.399 . S
C1308 C1309 1.376 . S
C1309 H1296 0.930 . S
C1309 C1308 1.376 . S
C1309 C1310 1.388 . S
C1310 H1297 0.930 . S
C1310 C1309 1.388 . S
C1310 C1311 1.390 . S
C1311 C1310 1.390 . S
C1311 C1312 1.394 . S
C1311 C1317 1.465 . S
C1312 C1307 1.399 . S
C1312 C1311 1.394 . S
C1312 C1313 1.516 . S
C1313 C1312 1.516 . S
C1313 C1314 1.502 . S
C1313 C1315 1.561 . S
C1313 C1316 1.526 . S
C1314 H1298 0.959 . S
C1314 H1299 0.959 . S
C1314 H1300 0.961 . S
C1314 C1313 1.502 . S
C1315 H1301 0.960 . S
C1315 H1302 0.961 . S
C1315 H1303 0.959 . S
C1315 C1313 1.561 . S
C1316 C1313 1.526 . S
C1316 C1317 1.396 . S
C1316 C1321 1.390 . S
C1317 C1311 1.465 . S
C1317 C1316 1.396 . S
C1317 C1318 1.399 . S
C1318 H1304 0.929 . S
C1318 C1317 1.399 . S
C1318 C1319 1.385 . S
C1319 H1305 0.931 . S
C1319 C1318 1.385 . S
C1319 C1320 1.389 . S
C1320 C1319 1.389 . S
C1320 C1321 1.387 . S
C1321 H1306 0.930 . S
C1321 C1316 1.390 . S
C1321 C1320 1.387 . S
H1322 C1334 0.930 . S
H1323 C1336 0.930 . S
H1324 C1337 0.930 . S
H1325 C1341 0.959 . S
H1326 C1341 0.959 . S
H1327 C1341 0.961 . S
H1328 C1342 0.960 . S
H1329 C1342 0.961 . S
H1330 C1342 0.959 . S
H1331 C1345 0.929 . S
H1332 C1346 0.931 . S
H1333 C1348 0.930 . S
C1334 H1322 0.930 . S
C1334 C1335 1.399 . S
C1334 C1339 1.399 . S
C1335 C1334 1.399 . S
C1335 C1336 1.376 . S
C1336 H1323 0.930 . S
C1336 C1335 1.376 . S
C1336 C1337 1.388 . S
C1337 H1324 0.930 . S
C1337 C1336 1.388 . S
C1337 C1338 1.390 . S
C1338 C1337 1.390 . S
C1338 C1339 1.394 . S
C1338 C1344 1.465 . S
C1339 C1334 1.399 . S
C1339 C1338 1.394 . S
C1339 C1340 1.516 . S
C1340 C1339 1.516 . S
C1340 C1341 1.502 . S
C1340 C1342 1.561 . S
C1340 C1343 1.526 . S
C1341 H1325 0.959 . S
C1341 H1326 0.959 . S
C1341 H1327 0.961 . S
C1341 C1340 1.502 . S
C1342 H1328 0.960 . S
C1342 H1329 0.961 . S
C1342 H1330 0.959 . S
C1342 C1340 1.561 . S
C1343 C1340 1.526 . S
C1343 C1344 1.396 . S
C1343 C1348 1.390 . S
C1344 C1338 1.465 . S
C1344 C1343 1.396 . S
C1344 C1345 1.399 . S
C1345 H1331 0.929 . S
C1345 C1344 1.399 . S
C1345 C1346 1.385 . S
C1346 H1332 0.931 . S
C1346 C1345 1.385 . S
C1346 C1347 1.389 . S
C1347 C1346 1.389 . S
C1347 C1348 1.387 . S
C1348 H1333 0.930 . S
C1348 C1343 1.390 . S
C1348 C1347 1.387 . S
H1349 C1361 0.930 . S
H1350 C1363 0.930 . S
H1351 C1364 0.930 . S
H1352 C1368 0.962 . S
H1353 C1368 0.980 . S
H1354 C1368 0.938 1_455 S
H1355 C1369 0.958 1_455 S
H1356 C1369 0.963 . S
H1357 C1369 0.959 . S
H1358 C1372 0.929 . S
H1359 C1373 0.931 . S
H1360 C1375 0.930 . S
C1361 H1349 0.930 . S
C1361 C1362 1.399 . S
C1361 C1366 1.399 . S
C1362 C1361 1.399 . S
C1362 C1363 1.376 . S
C1363 H1350 0.930 . S
C1363 C1362 1.376 . S
C1363 C1364 1.388 . S
C1364 H1351 0.930 . S
C1364 C1363 1.388 . S
C1364 C1365 1.390 . S
C1365 C1364 1.390 . S
C1365 C1366 1.394 . S
C1365 C1371 1.465 1_455 S
C1366 C1361 1.399 . S
C1366 C1365 1.394 . S
C1366 C1367 1.517 1_455 S
C1367 C1366 1.517 1_655 S
C1367 C1368 1.502 . S
C1367 C1369 1.561 . S
C1367 C1370 1.525 . S
C1368 H1352 0.962 . S
C1368 H1353 0.980 . S
C1368 H1354 0.938 1_655 S
C1368 C1367 1.502 . S
C1369 H1355 0.958 1_655 S
C1369 H1356 0.963 . S
C1369 H1357 0.959 . S
C1369 C1367 1.561 . S
C1370 C1367 1.525 . S
C1370 C1371 1.396 . S
C1370 C1375 1.390 . S
C1371 C1365 1.465 1_655 S
C1371 C1370 1.396 . S
C1371 C1372 1.399 . S
C1372 H1358 0.929 . S
C1372 C1371 1.399 . S
C1372 C1373 1.385 . S
C1373 H1359 0.931 . S
C1373 C1372 1.385 . S
C1373 C1374 1.389 . S
C1374 C1373 1.389 . S
C1374 C1375 1.387 . S
C1375 H1360 0.930 . S
C1375 C1370 1.390 . S
C1375 C1374 1.387 . S
H1376 C1388 0.930 . S
H1377 C1390 0.926 1_556 S
H1378 C1391 0.930 . S
H1379 C1395 0.959 . S
H1380 C1395 0.959 . S
H1381 C1395 0.961 . S
H1382 C1396 0.960 . S
H1383 C1396 0.961 . S
H1384 C1396 0.959 . S
H1385 C1399 0.929 . S
H1386 C1400 0.931 . S
H1387 C1402 0.930 1_554 S
C1388 H1376 0.930 . S
C1388 C1389 1.399 . S
C1388 C1393 1.399 . S
C1389 C1388 1.399 . S
C1389 C1390 1.376 . S
C1390 H1377 0.926 1_554 S
C1390 C1389 1.376 . S
C1390 C1391 1.388 1_554 S
C1391 H1378 0.930 . S
C1391 C1390 1.388 1_556 S
C1391 C1392 1.390 . S
C1392 C1391 1.390 . S
C1392 C1393 1.394 1_556 S
C1392 C1398 1.465 . S
C1393 C1388 1.399 . S
C1393 C1392 1.394 1_554 S
C1393 C1394 1.516 . S
C1394 C1393 1.516 . S
C1394 C1395 1.502 . S
C1394 C1396 1.561 . S
C1394 C1397 1.526 1_554 S
C1395 H1379 0.959 . S
C1395 H1380 0.959 . S
C1395 H1381 0.961 . S
C1395 C1394 1.502 . S
C1396 H1382 0.960 . S
C1396 H1383 0.961 . S
C1396 H1384 0.959 . S
C1396 C1394 1.561 . S
C1397 C1394 1.526 1_556 S
C1397 C1398 1.396 . S
C1397 C1402 1.390 . S
C1398 C1392 1.465 . S
C1398 C1397 1.396 . S
C1398 C1399 1.399 . S
C1399 H1385 0.929 . S
C1399 C1398 1.399 . S
C1399 C1400 1.385 . S
C1400 H1386 0.931 . S
C1400 C1399 1.385 . S
C1400 C1401 1.389 . S
C1401 C1400 1.389 . S
C1401 C1402 1.387 . S
C1402 H1387 0.930 1_556 S
C1402 C1397 1.390 . S
C1402 C1401 1.387 . S
H1403 C1415 0.930 . S
H1404 C1417 0.930 . S
H1405 C1418 0.930 . S
H1406 C1422 0.959 . S
H1407 C1422 0.959 . S
H1408 C1422 0.961 . S
H1409 C1423 0.960 . S
H1410 C1423 0.961 . S
H1411 C1423 0.959 . S
H1412 C1426 0.929 . S
H1413 C1427 0.931 . S
H1414 C1429 0.930 . S
C1415 H1403 0.930 . S
C1415 C1416 1.399 . S
C1415 C1420 1.399 . S
C1416 C1415 1.399 . S
C1416 C1417 1.376 . S
C1417 H1404 0.930 . S
C1417 C1416 1.376 . S
C1417 C1418 1.388 . S
C1418 H1405 0.930 . S
C1418 C1417 1.388 . S
C1418 C1419 1.390 . S
C1419 C1418 1.390 . S
C1419 C1420 1.394 . S
C1419 C1425 1.465 . S
C1420 C1415 1.399 . S
C1420 C1419 1.394 . S
C1420 C1421 1.516 . S
C1421 C1420 1.516 . S
C1421 C1422 1.502 . S
C1421 C1423 1.561 . S
C1421 C1424 1.526 . S
C1422 H1406 0.959 . S
C1422 H1407 0.959 . S
C1422 H1408 0.961 . S
C1422 C1421 1.502 . S
C1423 H1409 0.960 . S
C1423 H1410 0.961 . S
C1423 H1411 0.959 . S
C1423 C1421 1.561 . S
C1424 C1421 1.526 . S
C1424 C1425 1.396 . S
C1424 C1429 1.390 . S
C1425 C1419 1.465 . S
C1425 C1424 1.396 . S
C1425 C1426 1.399 . S
C1426 H1412 0.929 . S
C1426 C1425 1.399 . S
C1426 C1427 1.385 . S
C1427 H1413 0.931 . S
C1427 C1426 1.385 . S
C1427 C1428 1.389 . S
C1428 C1427 1.389 . S
C1428 C1429 1.387 . S
C1429 H1414 0.930 . S
C1429 C1424 1.390 . S
C1429 C1428 1.387 . S
H1430 C1442 0.930 . S
H1431 C1444 0.930 . S
H1432 C1445 0.930 . S
H1433 C1449 0.959 . S
H1434 C1449 0.959 . S
H1435 C1449 0.961 . S
H1436 C1450 0.960 . S
H1437 C1450 0.961 . S
H1438 C1450 0.959 . S
H1439 C1453 0.929 . S
H1440 C1454 0.931 . S
H1441 C1456 0.930 . S
C1442 H1430 0.930 . S
C1442 C1443 1.399 . S
C1442 C1447 1.399 . S
C1443 C1442 1.399 . S
C1443 C1444 1.376 . S
C1444 H1431 0.930 . S
C1444 C1443 1.376 . S
C1444 C1445 1.388 . S
C1445 H1432 0.930 . S
C1445 C1444 1.388 . S
C1445 C1446 1.390 . S
C1446 C1445 1.390 . S
C1446 C1447 1.394 . S
C1446 C1452 1.465 . S
C1447 C1442 1.399 . S
C1447 C1446 1.394 . S
C1447 C1448 1.516 . S
C1448 C1447 1.516 . S
C1448 C1449 1.502 . S
C1448 C1450 1.561 . S
C1448 C1451 1.526 . S
C1449 H1433 0.959 . S
C1449 H1434 0.959 . S
C1449 H1435 0.961 . S
C1449 C1448 1.502 . S
C1450 H1436 0.960 . S
C1450 H1437 0.961 . S
C1450 H1438 0.959 . S
C1450 C1448 1.561 . S
C1451 C1448 1.526 . S
C1451 C1452 1.396 . S
C1451 C1456 1.390 . S
C1452 C1446 1.465 . S
C1452 C1451 1.396 . S
C1452 C1453 1.399 . S
C1453 H1439 0.929 . S
C1453 C1452 1.399 . S
C1453 C1454 1.385 . S
C1454 H1440 0.931 . S
C1454 C1453 1.385 . S
C1454 C1455 1.389 . S
C1455 C1454 1.389 . S
C1455 C1456 1.387 . S
C1456 H1441 0.930 . S
C1456 C1451 1.390 . S
C1456 C1455 1.387 . S
H1457 C1469 0.930 . S
H1458 C1471 0.930 . S
H1459 C1472 0.930 . S
H1460 C1476 0.959 . S
H1461 C1476 0.959 . S
H1462 C1476 0.961 . S
H1463 C1477 0.960 . S
H1464 C1477 0.961 . S
H1465 C1477 0.959 . S
H1466 C1480 0.929 . S
H1467 C1481 0.931 . S
H1468 C1483 0.930 . S
C1469 H1457 0.930 . S
C1469 C1470 1.399 . S
C1469 C1474 1.399 . S
C1470 C1469 1.399 . S
C1470 C1471 1.376 . S
C1471 H1458 0.930 . S
C1471 C1470 1.376 . S
C1471 C1472 1.388 . S
C1472 H1459 0.930 . S
C1472 C1471 1.388 . S
C1472 C1473 1.390 . S
C1473 C1472 1.390 . S
C1473 C1474 1.394 . S
C1473 C1479 1.465 . S
C1474 C1469 1.399 . S
C1474 C1473 1.394 . S
C1474 C1475 1.516 . S
C1475 C1474 1.516 . S
C1475 C1476 1.502 . S
C1475 C1477 1.561 . S
C1475 C1478 1.526 . S
C1476 H1460 0.959 . S
C1476 H1461 0.959 . S
C1476 H1462 0.961 . S
C1476 C1475 1.502 . S
C1477 H1463 0.960 . S
C1477 H1464 0.961 . S
C1477 H1465 0.959 . S
C1477 C1475 1.561 . S
C1478 C1475 1.526 . S
C1478 C1479 1.396 . S
C1478 C1483 1.390 . S
C1479 C1473 1.465 . S
C1479 C1478 1.396 . S
C1479 C1480 1.399 . S
C1480 H1466 0.929 . S
C1480 C1479 1.399 . S
C1480 C1481 1.385 . S
C1481 H1467 0.931 . S
C1481 C1480 1.385 . S
C1481 C1482 1.389 . S
C1482 C1481 1.389 . S
C1482 C1483 1.387 . S
C1483 H1468 0.930 . S
C1483 C1478 1.390 . S
C1483 C1482 1.387 . S
H1484 C1496 0.930 . S
H1485 C1498 0.930 . S
H1486 C1499 0.930 . S
H1487 C1503 0.959 . S
H1488 C1503 0.959 . S
H1489 C1503 0.961 . S
H1490 C1504 0.960 . S
H1491 C1504 0.961 . S
H1492 C1504 0.959 . S
H1493 C1507 0.929 . S
H1494 C1508 0.931 . S
H1495 C1510 0.932 . S
C1496 H1484 0.930 . S
C1496 C1497 1.399 . S
C1496 C1501 1.399 . S
C1497 C1496 1.399 . S
C1497 C1498 1.376 . S
C1498 H1485 0.930 . S
C1498 C1497 1.376 . S
C1498 C1499 1.388 1_556 S
C1499 H1486 0.930 . S
C1499 C1498 1.388 1_554 S
C1499 C1500 1.390 . S
C1500 C1499 1.390 . S
C1500 C1501 1.394 1_554 S
C1500 C1506 1.465 . S
C1501 C1496 1.399 . S
C1501 C1500 1.394 1_556 S
C1501 C1502 1.516 . S
C1502 C1501 1.516 . S
C1502 C1503 1.502 . S
C1502 C1504 1.561 . S
C1502 C1505 1.526 1_556 S
C1503 H1487 0.959 . S
C1503 H1488 0.959 . S
C1503 H1489 0.961 . S
C1503 C1502 1.502 . S
C1504 H1490 0.960 . S
C1504 H1491 0.961 . S
C1504 H1492 0.959 . S
C1504 C1502 1.561 . S
C1505 C1502 1.526 1_554 S
C1505 C1506 1.396 . S
C1505 C1510 1.390 . S
C1506 C1500 1.465 . S
C1506 C1505 1.396 . S
C1506 C1507 1.399 . S
C1507 H1493 0.929 . S
C1507 C1506 1.399 . S
C1507 C1508 1.385 . S
C1508 H1494 0.931 . S
C1508 C1507 1.385 . S
C1508 C1509 1.389 . S
C1509 C1508 1.389 . S
C1509 C1510 1.387 . S
C1510 H1495 0.932 . S
C1510 C1505 1.390 . S
C1510 C1509 1.387 . S
H1511 C1523 0.930 . S
H1512 C1525 0.930 . S
H1513 C1526 0.930 . S
H1514 C1530 0.959 . S
H1515 C1530 0.959 . S
H1516 C1530 0.961 . S
H1517 C1531 0.960 . S
H1518 C1531 0.961 . S
H1519 C1531 0.959 . S
H1520 C1534 0.929 . S
H1521 C1535 0.931 . S
H1522 C1537 0.930 . S
C1523 H1511 0.930 . S
C1523 C1524 1.399 . S
C1523 C1528 1.399 . S
C1524 C1523 1.399 . S
C1524 C1525 1.376 . S
C1525 H1512 0.930 . S
C1525 C1524 1.376 . S
C1525 C1526 1.388 . S
C1526 H1513 0.930 . S
C1526 C1525 1.388 . S
C1526 C1527 1.390 . S
C1527 C1526 1.390 . S
C1527 C1528 1.394 . S
C1527 C1533 1.465 . S
C1528 C1523 1.399 . S
C1528 C1527 1.394 . S
C1528 C1529 1.516 . S
C1529 C1528 1.516 . S
C1529 C1530 1.502 . S
C1529 C1531 1.561 . S
C1529 C1532 1.526 . S
C1530 H1514 0.959 . S
C1530 H1515 0.959 . S
C1530 H1516 0.961 . S
C1530 C1529 1.502 . S
C1531 H1517 0.960 . S
C1531 H1518 0.961 . S
C1531 H1519 0.959 . S
C1531 C1529 1.561 . S
C1532 C1529 1.526 . S
C1532 C1533 1.396 . S
C1532 C1537 1.390 . S
C1533 C1527 1.465 . S
C1533 C1532 1.396 . S
C1533 C1534 1.399 . S
C1534 H1520 0.929 . S
C1534 C1533 1.399 . S
C1534 C1535 1.385 . S
C1535 H1521 0.931 . S
C1535 C1534 1.385 . S
C1535 C1536 1.389 . S
C1536 C1535 1.389 . S
C1536 C1537 1.387 . S
C1537 H1522 0.930 . S
C1537 C1532 1.390 . S
C1537 C1536 1.387 . S
H1538 C1550 0.930 . S
H1539 C1552 0.930 . S
H1540 C1553 0.930 . S
H1541 C1557 0.959 . S
H1542 C1557 0.959 . S
H1543 C1557 0.961 . S
H1544 C1558 0.960 . S
H1545 C1558 0.961 . S
H1546 C1558 0.959 . S
H1547 C1561 0.929 . S
H1548 C1562 0.931 . S
H1549 C1564 0.930 . S
C1550 H1538 0.930 . S
C1550 C1551 1.399 . S
C1550 C1555 1.399 . S
C1551 C1550 1.399 . S
C1551 C1552 1.376 . S
C1552 H1539 0.930 . S
C1552 C1551 1.376 . S
C1552 C1553 1.388 . S
C1553 H1540 0.930 . S
C1553 C1552 1.388 . S
C1553 C1554 1.390 . S
C1554 C1553 1.390 . S
C1554 C1555 1.394 . S
C1554 C1560 1.465 . S
C1555 C1550 1.399 . S
C1555 C1554 1.394 . S
C1555 C1556 1.516 . S
C1556 C1555 1.516 . S
C1556 C1557 1.502 . S
C1556 C1558 1.561 . S
C1556 C1559 1.526 . S
C1557 H1541 0.959 . S
C1557 H1542 0.959 . S
C1557 H1543 0.961 . S
C1557 C1556 1.502 . S
C1558 H1544 0.960 . S
C1558 H1545 0.961 . S
C1558 H1546 0.959 . S
C1558 C1556 1.561 . S
C1559 C1556 1.526 . S
C1559 C1560 1.396 . S
C1559 C1564 1.390 . S
C1560 C1554 1.465 . S
C1560 C1559 1.396 . S
C1560 C1561 1.399 . S
C1561 H1547 0.929 . S
C1561 C1560 1.399 . S
C1561 C1562 1.385 . S
C1562 H1548 0.931 . S
C1562 C1561 1.385 . S
C1562 C1563 1.389 . S
C1563 C1562 1.389 . S
C1563 C1564 1.387 . S
C1564 H1549 0.930 . S
C1564 C1559 1.390 . S
C1564 C1563 1.387 . S
H1565 C1577 0.930 . S
H1566 C1579 0.930 . S
H1567 C1580 0.930 . S
H1568 C1584 0.959 . S
H1569 C1584 0.959 . S
H1570 C1584 0.961 . S
H1571 C1585 0.960 . S
H1572 C1585 0.961 . S
H1573 C1585 0.959 . S
H1574 C1588 0.929 . S
H1575 C1589 0.931 . S
H1576 C1591 0.930 . S
C1577 H1565 0.930 . S
C1577 C1578 1.399 . S
C1577 C1582 1.399 . S
C1578 C1577 1.399 . S
C1578 C1579 1.376 . S
C1579 H1566 0.930 . S
C1579 C1578 1.376 . S
C1579 C1580 1.388 . S
C1580 H1567 0.930 . S
C1580 C1579 1.388 . S
C1580 C1581 1.390 . S
C1581 C1580 1.390 . S
C1581 C1582 1.394 . S
C1581 C1587 1.465 . S
C1582 C1577 1.399 . S
C1582 C1581 1.394 . S
C1582 C1583 1.516 . S
C1583 C1582 1.516 . S
C1583 C1584 1.502 . S
C1583 C1585 1.561 . S
C1583 C1586 1.526 . S
C1584 H1568 0.959 . S
C1584 H1569 0.959 . S
C1584 H1570 0.961 . S
C1584 C1583 1.502 . S
C1585 H1571 0.960 . S
C1585 H1572 0.961 . S
C1585 H1573 0.959 . S
C1585 C1583 1.561 . S
C1586 C1583 1.526 . S
C1586 C1587 1.396 . S
C1586 C1591 1.390 . S
C1587 C1581 1.465 . S
C1587 C1586 1.396 . S
C1587 C1588 1.399 . S
C1588 H1574 0.929 . S
C1588 C1587 1.399 . S
C1588 C1589 1.385 . S
C1589 H1575 0.931 . S
C1589 C1588 1.385 . S
C1589 C1590 1.389 . S
C1590 C1589 1.389 . S
C1590 C1591 1.387 . S
C1591 H1576 0.930 . S
C1591 C1586 1.390 . S
C1591 C1590 1.387 . S
H1592 C1604 0.930 . S
H1593 C1606 0.930 . S
H1594 C1607 0.930 . S
H1595 C1611 0.959 . S
H1596 C1611 0.959 . S
H1597 C1611 0.961 . S
H1598 C1612 0.936 1_545 S
H1599 C1612 0.976 . S
H1600 C1612 0.976 . S
H1601 C1615 0.929 . S
H1602 C1616 0.931 . S
H1603 C1618 0.930 . S
C1604 H1592 0.930 . S
C1604 C1605 1.399 . S
C1604 C1609 1.399 . S
C1605 C1604 1.399 . S
C1605 C1606 1.376 . S
C1606 H1593 0.930 . S
C1606 C1605 1.376 . S
C1606 C1607 1.388 . S
C1607 H1594 0.930 . S
C1607 C1606 1.388 . S
C1607 C1608 1.390 . S
C1608 C1607 1.390 . S
C1608 C1609 1.394 . S
C1608 C1614 1.465 1_545 S
C1609 C1604 1.399 . S
C1609 C1608 1.394 . S
C1609 C1610 1.516 . S
C1610 C1609 1.516 . S
C1610 C1611 1.502 . S
C1610 C1612 1.554 1_545 S
C1610 C1613 1.526 1_545 S
C1611 H1595 0.959 . S
C1611 H1596 0.959 . S
C1611 H1597 0.961 . S
C1611 C1610 1.502 . S
C1612 H1598 0.936 1_565 S
C1612 H1599 0.976 . S
C1612 H1600 0.976 . S
C1612 C1610 1.554 1_565 S
C1613 C1610 1.526 1_565 S
C1613 C1614 1.396 . S
C1613 C1618 1.390 . S
C1614 C1608 1.465 1_565 S
C1614 C1613 1.396 . S
C1614 C1615 1.399 . S
C1615 H1601 0.929 . S
C1615 C1614 1.399 . S
C1615 C1616 1.385 . S
C1616 H1602 0.931 . S
C1616 C1615 1.385 . S
C1616 C1617 1.389 . S
C1617 C1616 1.389 . S
C1617 C1618 1.387 . S
C1618 H1603 0.930 . S
C1618 C1613 1.390 . S
C1618 C1617 1.387 . S
H1619 C1631 0.930 . S
H1620 C1633 0.930 . S
H1621 C1634 0.930 . S
H1622 C1638 0.959 . S
H1623 C1638 0.959 . S
H1624 C1638 0.961 . S
H1625 C1639 0.960 . S
H1626 C1639 0.961 . S
H1627 C1639 0.959 . S
H1628 C1642 0.929 . S
H1629 C1643 0.931 . S
H1630 C1645 0.930 . S
C1631 H1619 0.930 . S
C1631 C1632 1.399 . S
C1631 C1636 1.399 . S
C1632 C1631 1.399 . S
C1632 C1633 1.376 . S
C1633 H1620 0.930 . S
C1633 C1632 1.376 . S
C1633 C1634 1.388 . S
C1634 H1621 0.930 . S
C1634 C1633 1.388 . S
C1634 C1635 1.390 . S
C1635 C1634 1.390 . S
C1635 C1636 1.394 . S
C1635 C1641 1.465 . S
C1636 C1631 1.399 . S
C1636 C1635 1.394 . S
C1636 C1637 1.516 . S
C1637 C1636 1.516 . S
C1637 C1638 1.502 . S
C1637 C1639 1.561 . S
C1637 C1640 1.526 . S
C1638 H1622 0.959 . S
C1638 H1623 0.959 . S
C1638 H1624 0.961 . S
C1638 C1637 1.502 . S
C1639 H1625 0.960 . S
C1639 H1626 0.961 . S
C1639 H1627 0.959 . S
C1639 C1637 1.561 . S
C1640 C1637 1.526 . S
C1640 C1641 1.396 . S
C1640 C1645 1.390 . S
C1641 C1635 1.465 . S
C1641 C1640 1.396 . S
C1641 C1642 1.399 . S
C1642 H1628 0.929 . S
C1642 C1641 1.399 . S
C1642 C1643 1.385 . S
C1643 H1629 0.931 . S
C1643 C1642 1.385 . S
C1643 C1644 1.389 . S
C1644 C1643 1.389 . S
C1644 C1645 1.387 . S
C1645 H1630 0.930 . S
C1645 C1640 1.390 . S
C1645 C1644 1.387 . S
H1646 C1658 0.930 1_554 S
H1647 C1660 0.930 . S
H1648 C1661 0.930 1_565 S
H1649 C1665 0.959 . S
H1650 C1665 0.959 . S
H1651 C1665 0.961 . S
H1652 C1666 0.960 . S
H1653 C1666 0.961 . S
H1654 C1666 0.959 . S
H1655 C1669 0.929 . S
H1656 C1670 0.934 . S
H1657 C1672 0.930 . S
C1658 H1646 0.930 1_556 S
C1658 C1659 1.399 . S
C1658 C1663 1.402 . S
C1659 C1658 1.399 . S
C1659 C1660 1.376 . S
C1660 H1647 0.930 . S
C1660 C1659 1.376 . S
C1660 C1661 1.388 . S
C1661 H1648 0.930 1_545 S
C1661 C1660 1.388 . S
C1661 C1662 1.390 . S
C1662 C1661 1.390 . S
C1662 C1663 1.399 . S
C1662 C1668 1.465 1_545 S
C1663 C1658 1.402 . S
C1663 C1662 1.399 . S
C1663 C1664 1.508 1_556 S
C1664 C1663 1.508 1_554 S
C1664 C1665 1.502 . S
C1664 C1666 1.561 . S
C1664 C1667 1.526 1_545 S
C1665 H1649 0.959 . S
C1665 H1650 0.959 . S
C1665 H1651 0.961 . S
C1665 C1664 1.502 . S
C1666 H1652 0.960 . S
C1666 H1653 0.961 . S
C1666 H1654 0.959 . S
C1666 C1664 1.561 . S
C1667 C1664 1.526 1_565 S
C1667 C1668 1.396 1_554 S
C1667 C1672 1.390 . S
C1668 C1662 1.465 1_565 S
C1668 C1667 1.396 1_556 S
C1668 C1669 1.399 . S
C1669 H1655 0.929 . S
C1669 C1668 1.399 . S
C1669 C1670 1.385 1_556 S
C1670 H1656 0.934 . S
C1670 C1669 1.385 1_554 S
C1670 C1671 1.389 . S
C1671 C1670 1.389 . S
C1671 C1672 1.387 . S
C1672 H1657 0.930 . S
C1672 C1667 1.390 . S
C1672 C1671 1.387 . S
H1673 C1685 0.930 . S
H1674 C1687 0.930 . S
H1675 C1688 0.930 . S
H1676 C1692 0.959 . S
H1677 C1692 0.959 . S
H1678 C1692 0.961 . S
H1679 C1693 0.960 . S
H1680 C1693 0.961 . S
H1681 C1693 0.959 . S
H1682 C1696 0.929 . S
H1683 C1697 0.931 . S
H1684 C1699 0.930 . S
C1685 H1673 0.930 . S
C1685 C1686 1.399 . S
C1685 C1690 1.399 . S
C1686 C1685 1.399 . S
C1686 C1687 1.376 . S
C1687 H1674 0.930 . S
C1687 C1686 1.376 . S
C1687 C1688 1.388 . S
C1688 H1675 0.930 . S
C1688 C1687 1.388 . S
C1688 C1689 1.390 . S
C1689 C1688 1.390 . S
C1689 C1690 1.394 . S
C1689 C1695 1.465 . S
C1690 C1685 1.399 . S
C1690 C1689 1.394 . S
C1690 C1691 1.516 . S
C1691 C1690 1.516 . S
C1691 C1692 1.502 . S
C1691 C1693 1.561 . S
C1691 C1694 1.526 . S
C1692 H1676 0.959 . S
C1692 H1677 0.959 . S
C1692 H1678 0.961 . S
C1692 C1691 1.502 . S
C1693 H1679 0.960 . S
C1693 H1680 0.961 . S
C1693 H1681 0.959 . S
C1693 C1691 1.561 . S
C1694 C1691 1.526 . S
C1694 C1695 1.396 . S
C1694 C1699 1.390 . S
C1695 C1689 1.465 . S
C1695 C1694 1.396 . S
C1695 C1696 1.399 . S
C1696 H1682 0.929 . S
C1696 C1695 1.399 . S
C1696 C1697 1.385 . S
C1697 H1683 0.931 . S
C1697 C1696 1.385 . S
C1697 C1698 1.389 . S
C1698 C1697 1.389 . S
C1698 C1699 1.387 . S
C1699 H1684 0.930 . S
C1699 C1694 1.390 . S
C1699 C1698 1.387 . S
H1700 C1712 0.930 . S
H1701 C1714 0.930 . S
H1702 C1715 0.930 1_565 S
H1703 C1719 0.959 . S
H1704 C1719 0.959 . S
H1705 C1719 0.961 . S
H1706 C1720 0.960 . S
H1707 C1720 0.961 . S
H1708 C1720 0.959 . S
H1709 C1723 0.929 . S
H1710 C1724 0.931 . S
H1711 C1726 0.930 . S
C1712 H1700 0.930 . S
C1712 C1713 1.399 . S
C1712 C1717 1.399 . S
C1713 C1712 1.399 . S
C1713 C1714 1.376 . S
C1714 H1701 0.930 . S
C1714 C1713 1.376 . S
C1714 C1715 1.388 . S
C1715 H1702 0.930 1_545 S
C1715 C1714 1.388 . S
C1715 C1716 1.390 . S
C1716 C1715 1.390 . S
C1716 C1717 1.394 . S
C1716 C1722 1.465 1_545 S
C1717 C1712 1.399 . S
C1717 C1716 1.394 . S
C1717 C1718 1.516 . S
C1718 C1717 1.516 . S
C1718 C1719 1.502 . S
C1718 C1720 1.561 . S
C1718 C1721 1.526 1_545 S
C1719 H1703 0.959 . S
C1719 H1704 0.959 . S
C1719 H1705 0.961 . S
C1719 C1718 1.502 . S
C1720 H1706 0.960 . S
C1720 H1707 0.961 . S
C1720 H1708 0.959 . S
C1720 C1718 1.561 . S
C1721 C1718 1.526 1_565 S
C1721 C1722 1.396 . S
C1721 C1726 1.390 . S
C1722 C1716 1.465 1_565 S
C1722 C1721 1.396 . S
C1722 C1723 1.399 . S
C1723 H1709 0.929 . S
C1723 C1722 1.399 . S
C1723 C1724 1.385 . S
C1724 H1710 0.931 . S
C1724 C1723 1.385 . S
C1724 C1725 1.389 . S
C1725 C1724 1.389 . S
C1725 C1726 1.387 . S
C1726 H1711 0.930 . S
C1726 C1721 1.390 . S
C1726 C1725 1.387 . S
H1727 C1739 0.930 . S
H1728 C1741 0.930 . S
H1729 C1742 0.930 . S
H1730 C1746 0.959 . S
H1731 C1746 0.959 . S
H1732 C1746 0.961 . S
H1733 C1747 0.960 . S
H1734 C1747 0.961 . S
H1735 C1747 0.959 . S
H1736 C1750 0.929 . S
H1737 C1751 0.931 . S
H1738 C1753 0.930 . S
C1739 H1727 0.930 . S
C1739 C1740 1.399 . S
C1739 C1744 1.399 . S
C1740 C1739 1.399 . S
C1740 C1741 1.376 . S
C1741 H1728 0.930 . S
C1741 C1740 1.376 . S
C1741 C1742 1.388 . S
C1742 H1729 0.930 . S
C1742 C1741 1.388 . S
C1742 C1743 1.390 . S
C1743 C1742 1.390 . S
C1743 C1744 1.394 . S
C1743 C1749 1.465 . S
C1744 C1739 1.399 . S
C1744 C1743 1.394 . S
C1744 C1745 1.516 . S
C1745 C1744 1.516 . S
C1745 C1746 1.502 . S
C1745 C1747 1.561 . S
C1745 C1748 1.526 . S
C1746 H1730 0.959 . S
C1746 H1731 0.959 . S
C1746 H1732 0.961 . S
C1746 C1745 1.502 . S
C1747 H1733 0.960 . S
C1747 H1734 0.961 . S
C1747 H1735 0.959 . S
C1747 C1745 1.561 . S
C1748 C1745 1.526 . S
C1748 C1749 1.396 . S
C1748 C1753 1.390 . S
C1749 C1743 1.465 . S
C1749 C1748 1.396 . S
C1749 C1750 1.399 . S
C1750 H1736 0.929 . S
C1750 C1749 1.399 . S
C1750 C1751 1.385 . S
C1751 H1737 0.931 . S
C1751 C1750 1.385 . S
C1751 C1752 1.389 . S
C1752 C1751 1.389 . S
C1752 C1753 1.387 . S
C1753 H1738 0.930 . S
C1753 C1748 1.390 . S
C1753 C1752 1.387 . S
H1754 C1766 0.930 . S
H1755 C1768 0.925 1_556 S
H1756 C1769 0.930 . S
H1757 C1773 0.959 . S
H1758 C1773 0.959 . S
H1759 C1773 0.961 . S
H1760 C1774 0.960 . S
H1761 C1774 0.961 . S
H1762 C1774 0.959 . S
H1763 C1777 0.929 1_565 S
H1764 C1778 0.931 . S
H1765 C1780 0.930 1_554 S
C1766 H1754 0.930 . S
C1766 C1767 1.399 . S
C1766 C1771 1.399 . S
C1767 C1766 1.399 . S
C1767 C1768 1.376 . S
C1768 H1755 0.925 1_554 S
C1768 C1767 1.376 . S
C1768 C1769 1.388 1_554 S
C1769 H1756 0.930 . S
C1769 C1768 1.388 1_556 S
C1769 C1770 1.390 . S
C1770 C1769 1.390 . S
C1770 C1771 1.394 1_556 S
C1770 C1776 1.465 1_565 S
C1771 C1766 1.399 . S
C1771 C1770 1.394 1_554 S
C1771 C1772 1.516 1_565 S
C1772 C1771 1.516 1_545 S
C1772 C1773 1.502 . S
C1772 C1774 1.561 . S
C1772 C1775 1.526 1_554 S
C1773 H1757 0.959 . S
C1773 H1758 0.959 . S
C1773 H1759 0.961 . S
C1773 C1772 1.502 . S
C1774 H1760 0.960 . S
C1774 H1761 0.961 . S
C1774 H1762 0.959 . S
C1774 C1772 1.561 . S
C1775 C1772 1.526 1_556 S
C1775 C1776 1.396 . S
C1775 C1780 1.390 . S
C1776 C1770 1.465 1_545 S
C1776 C1775 1.396 . S
C1776 C1777 1.399 . S
C1777 H1763 0.929 1_545 S
C1777 C1776 1.399 . S
C1777 C1778 1.385 . S
C1778 H1764 0.931 . S
C1778 C1777 1.385 . S
C1778 C1779 1.389 . S
C1779 C1778 1.389 . S
C1779 C1780 1.387 . S
C1780 H1765 0.930 1_556 S
C1780 C1775 1.390 . S
C1780 C1779 1.387 . S
H1781 C1793 0.930 . S
H1782 C1795 0.930 . S
H1783 C1796 0.930 . S
H1784 C1800 0.959 . S
H1785 C1800 0.959 . S
H1786 C1800 0.961 . S
H1787 C1801 0.960 . S
H1788 C1801 0.961 . S
H1789 C1801 0.959 . S
H1790 C1804 0.929 . S
H1791 C1805 0.931 . S
H1792 C1807 0.930 . S
C1793 H1781 0.930 . S
C1793 C1794 1.399 . S
C1793 C1798 1.399 . S
C1794 C1793 1.399 . S
C1794 C1795 1.376 . S
C1795 H1782 0.930 . S
C1795 C1794 1.376 . S
C1795 C1796 1.388 . S
C1796 H1783 0.930 . S
C1796 C1795 1.388 . S
C1796 C1797 1.390 . S
C1797 C1796 1.390 . S
C1797 C1798 1.394 . S
C1797 C1803 1.465 . S
C1798 C1793 1.399 . S
C1798 C1797 1.394 . S
C1798 C1799 1.516 . S
C1799 C1798 1.516 . S
C1799 C1800 1.502 . S
C1799 C1801 1.561 . S
C1799 C1802 1.526 . S
C1800 H1784 0.959 . S
C1800 H1785 0.959 . S
C1800 H1786 0.961 . S
C1800 C1799 1.502 . S
C1801 H1787 0.960 . S
C1801 H1788 0.961 . S
C1801 H1789 0.959 . S
C1801 C1799 1.561 . S
C1802 C1799 1.526 . S
C1802 C1803 1.396 . S
C1802 C1807 1.390 . S
C1803 C1797 1.465 . S
C1803 C1802 1.396 . S
C1803 C1804 1.399 . S
C1804 H1790 0.929 . S
C1804 C1803 1.399 . S
C1804 C1805 1.385 . S
C1805 H1791 0.931 . S
C1805 C1804 1.385 . S
C1805 C1806 1.389 . S
C1806 C1805 1.389 . S
C1806 C1807 1.387 . S
C1807 H1792 0.930 . S
C1807 C1802 1.390 . S
C1807 C1806 1.387 . S
C957 C701 1.404 . S
C969 C33 1.410 . S
C984 C937 1.401 . S
C996 C111 1.404 . S
C1011 C170 1.416 . S
C1023 C564 1.417 . S
C1038 C819 1.406 . S
C1050 C210 1.402 . S
C1065 C269 1.412 . S
C1077 C800 1.409 . S
C1092 C347 1.395 . S
C1104 C682 1.401 . S
C1119 C406 1.405 . S
C1131 C918 1.416 . S
C1146 C446 1.407 . S
C1158 C583 1.402 . S
C1173 C229 1.405 . S
C1185 C505 1.399 . S
C1200 C642 1.397 . S
C1212 C92 1.402 . S
C1227 C741 1.416 . S
C1239 C328 1.417 . S
C1254 C878 1.417 . S
C1266 C465 1.416 . S
C1281 C288 1.404 . S
C1293 C524 1.401 . S
C1308 C623 1.405 . S
C1320 C387 1.408 . S
C1335 C859 1.413 . S
C1347 C151 1.411 . S
C1362 C52 1.418 . S
C1374 C760 1.418 . S
C1389 C3 1.384 . S
C1401 C239 1.382 . S
C1416 C64 1.405 . S
C1428 C300 1.405 . S
C1443 C123 1.396 . S
C1455 C359 1.408 . S
C1470 C416 1.413 . S
C1482 C180 1.412 . S
C1497 C475 1.408 . S
C1509 C711 1.396 . S
C1524 C772 1.407 . S
C1536 C536 1.386 . S
C1551 C595 1.384 . S
C1563 C831 1.405 . S
C1578 C890 1.389 . S
C1590 C652 1.364 . S
C1605 C418 1.379 . S
C1617 C62 1.369 . S
C1632 C121 1.410 . S
C1644 C241 1.415 . S
C1659 C182 1.399 . S
C1671 C298 1.401 . S
C1686 C5 1.408 . S
C1698 C357 1.396 . S
C1713 C534 1.372 . S
C1725 C888 1.387 . S
C1740 C713 1.403 . S
C1752 C593 1.413 . S
C1767 C654 1.411 . S
C1779 C770 1.388 . S
C1794 C829 1.380 . S
C1806 C477 1.379 . S
