# Generated by pormake.
# Topology vmi, (6)-cn, num edge types: 1
# Building blocks:
#     Node 0, Type 0, BuildingBlock: IZENUY_clean_sbu_0, # of connection points: 6
#     Node 1, Type 0, BuildingBlock: IZENUY_clean_sbu_0, # of connection points: 6
#     Node 2, Type 0, BuildingBlock: IZENUY_clean_sbu_0, # of connection points: 6
#     Node 3, Type 0, BuildingBlock: IZENUY_clean_sbu_0, # of connection points: 6
#     Node 4, Type 0, BuildingBlock: IZENUY_clean_sbu_0, # of connection points: 6
#     Node 5, Type 0, BuildingBlock: IZENUY_clean_sbu_0, # of connection points: 6
#     Node 6, Type 0, BuildingBlock: IZENUY_clean_sbu_0, # of connection points: 6
#     Node 7, Type 0, BuildingBlock: IZENUY_clean_sbu_0, # of connection points: 6
#     Edge 8, Type (0, 0), BuildingBlock: ZUJKAS_clean_linker_0, # of connection points: 2
#     Edge 9, Type (0, 0), BuildingBlock: ZUJKAS_clean_linker_0, # of connection points: 2
#     Edge 10, Type (0, 0), BuildingBlock: ZUJKAS_clean_linker_0, # of connection points: 2
#     Edge 11, Type (0, 0), BuildingBlock: ZUJKAS_clean_linker_0, # of connection points: 2
#     Edge 12, Type (0, 0), BuildingBlock: ZUJKAS_clean_linker_0, # of connection points: 2
#     Edge 13, Type (0, 0), BuildingBlock: ZUJKAS_clean_linker_0, # of connection points: 2
#     Edge 14, Type (0, 0), BuildingBlock: ZUJKAS_clean_linker_0, # of connection points: 2
#     Edge 15, Type (0, 0), BuildingBlock: ZUJKAS_clean_linker_0, # of connection points: 2
#     Edge 16, Type (0, 0), BuildingBlock: ZUJKAS_clean_linker_0, # of connection points: 2
#     Edge 17, Type (0, 0), BuildingBlock: ZUJKAS_clean_linker_0, # of connection points: 2
#     Edge 18, Type (0, 0), BuildingBlock: ZUJKAS_clean_linker_0, # of connection points: 2
#     Edge 19, Type (0, 0), BuildingBlock: ZUJKAS_clean_linker_0, # of connection points: 2
#     Edge 20, Type (0, 0), BuildingBlock: ZUJKAS_clean_linker_0, # of connection points: 2
#     Edge 21, Type (0, 0), BuildingBlock: ZUJKAS_clean_linker_0, # of connection points: 2
#     Edge 22, Type (0, 0), BuildingBlock: ZUJKAS_clean_linker_0, # of connection points: 2
#     Edge 23, Type (0, 0), BuildingBlock: ZUJKAS_clean_linker_0, # of connection points: 2
#     Edge 24, Type (0, 0), BuildingBlock: ZUJKAS_clean_linker_0, # of connection points: 2
#     Edge 25, Type (0, 0), BuildingBlock: ZUJKAS_clean_linker_0, # of connection points: 2
#     Edge 26, Type (0, 0), BuildingBlock: ZUJKAS_clean_linker_0, # of connection points: 2
#     Edge 27, Type (0, 0), BuildingBlock: ZUJKAS_clean_linker_0, # of connection points: 2
#     Edge 28, Type (0, 0), BuildingBlock: ZUJKAS_clean_linker_0, # of connection points: 2
#     Edge 29, Type (0, 0), BuildingBlock: ZUJKAS_clean_linker_0, # of connection points: 2
#     Edge 30, Type (0, 0), BuildingBlock: ZUJKAS_clean_linker_0, # of connection points: 2
#     Edge 31, Type (0, 0), BuildingBlock: ZUJKAS_clean_linker_0, # of connection points: 2
# Relax obj value: 0.332
# Max RMSD: 0.290
# Mean RMSD: 0.290
data_MOF--net-vmi--node1-IZENUY_clean_sbu_0--edge1-ZUJKAS_clean_linker_0
_symmetry_space_group_name_H-M    P1
_symmetry_Int_Tables_number       1
_symmetry_cell_setting            triclinic
loop_
_symmetry_equiv_pos_as_xyz
'x, y, z'
_cell_length_a     34.944835
_cell_length_b     57.711481
_cell_length_c     38.21523
_cell_angle_alpha  90.034897
_cell_angle_beta   109.76585
_cell_angle_gamma 89.942228
loop_
_atom_site_label
_atom_site_type_symbol
_atom_site_fract_x
_atom_site_fract_y
_atom_site_fract_z
_atom_type_partial_charge
Fe0 Fe 0.18261 0.05554 0.23433 0.0
Fe1 Fe 0.15168 0.10052 0.19193 0.0
O2 O 0.19227 0.08411 0.22239 0.0
Fe3 Fe 0.24191 0.0959 0.24068 0.0
O4 O 0.26408 0.07214 0.2231 0.0
O5 O 0.2339 0.04401 0.24174 0.0
O6 O 0.16807 0.04624 0.18622 0.0
C7 C 0.13922 0.0556 0.16065 0.0
C8 C 0.22802 0.07365 0.30172 0.0
O9 O 0.12553 0.07523 0.16558 0.0
C10 C 0.19868 0.13523 0.24104 0.0
O11 O 0.12961 0.06129 0.23029 0.0
O12 O 0.12266 0.09899 0.22341 0.0
O13 O 0.25246 0.08246 0.2871 0.0
O14 O 0.19594 0.0636 0.28218 0.0
C15 C 0.21292 0.11017 0.16458 0.0
O16 O 0.17105 0.12895 0.21157 0.0
O17 O 0.22475 0.12094 0.25971 0.0
C18 C 0.11151 0.0799 0.23293 0.0
O19 O 0.1773 0.10291 0.1586 0.0
O20 O 0.23878 0.11127 0.19728 0.0
C21 C 0.26177 0.05108 0.2303 0.0
Fe22 Fe 0.36476 0.10207 0.80374 0.0
Fe23 Fe 0.27462 0.09921 0.75402 0.0
O24 O 0.32365 0.08655 0.77216 0.0
Fe25 Fe 0.33217 0.05801 0.7592 0.0
O26 O 0.34607 0.04797 0.80692 0.0
O27 O 0.38978 0.07618 0.82893 0.0
O28 O 0.33861 0.10401 0.83677 0.0
C29 C 0.30315 0.11156 0.83089 0.0
C30 C 0.40452 0.08158 0.76211 0.0
O31 O 0.27803 0.1139 0.79804 0.0
C32 C 0.28764 0.0771 0.69226 0.0
O33 O 0.34672 0.13105 0.78556 0.0
O34 O 0.29336 0.12431 0.73648 0.0
O35 O 0.3854 0.06317 0.76365 0.0
O36 O 0.39432 0.10069 0.7726 0.0
C37 C 0.25237 0.05445 0.76221 0.0
O38 O 0.26385 0.0865 0.70708 0.0
O39 O 0.31935 0.06661 0.71161 0.0
C40 C 0.31973 0.13809 0.75619 0.0
O41 O 0.25079 0.0755 0.77006 0.0
O42 O 0.28041 0.04713 0.75118 0.0
C43 C 0.37522 0.05667 0.83297 0.0
Fe44 Fe 0.82759 0.95299 0.75717 0.0
Fe45 Fe 0.7635 0.91518 0.7466 0.0
O46 O 0.81436 0.92469 0.76671 0.0
Fe47 Fe 0.8512 0.90591 0.79662 0.0
O48 O 0.86192 0.92615 0.83465 0.0
O49 O 0.86561 0.9576 0.80347 0.0
O50 O 0.79045 0.96633 0.77483 0.0
C51 C 0.75287 0.9622 0.76183 0.0
C52 C 0.89582 0.92993 0.75718 0.0
O53 O 0.74024 0.94395 0.74325 0.0
C54 C 0.80849 0.87414 0.74628 0.0
O55 O 0.7922 0.95289 0.70902 0.0
O56 O 0.76652 0.9176 0.70046 0.0
O57 O 0.89411 0.91707 0.78355 0.0
O58 O 0.86571 0.94208 0.73896 0.0
C59 C 0.78222 0.90026 0.81803 0.0
O60 O 0.77636 0.88446 0.74583 0.0
O61 O 0.8427 0.88374 0.76083 0.0
C62 C 0.77633 0.93601 0.68775 0.0
O63 O 0.75886 0.91256 0.79226 0.0
O64 O 0.81506 0.89216 0.81575 0.0
C65 C 0.87258 0.94692 0.83395 0.0
Fe66 Fe 0.75391 0.91775 0.24558 0.0
Fe67 Fe 0.66687 0.90698 0.19571 0.0
O68 O 0.70257 0.92639 0.22537 0.0
Fe69 Fe 0.6877 0.95439 0.23467 0.0
O70 O 0.72415 0.96854 0.21706 0.0
O71 O 0.77546 0.94687 0.24873 0.0
O72 O 0.75876 0.91533 0.19995 0.0
C73 C 0.7362 0.90254 0.17444 0.0
C74 C 0.73974 0.93809 0.30425 0.0
O75 O 0.7038 0.89391 0.17681 0.0
C76 C 0.62087 0.93 0.23483 0.0
O77 O 0.74283 0.88688 0.24666 0.0
O78 O 0.67661 0.88498 0.23185 0.0
O79 O 0.72296 0.95478 0.28291 0.0
O80 O 0.7507 0.91997 0.29165 0.0
C81 C 0.64307 0.94763 0.15788 0.0
O82 O 0.62332 0.91731 0.20854 0.0
O83 O 0.6502 0.94269 0.25291 0.0
C84 C 0.71139 0.87606 0.24666 0.0
O85 O 0.65498 0.92708 0.15743 0.0
O86 O 0.64953 0.95841 0.18823 0.0
C87 C 0.76193 0.96496 0.23008 0.0
Fe88 Fe 0.64613 0.60241 0.68675 0.0
Fe89 Fe 0.73693 0.59472 0.73252 0.0
O90 O 0.68595 0.58463 0.71564 0.0
Fe91 Fe 0.67421 0.55631 0.72709 0.0
O92 O 0.65649 0.54773 0.67849 0.0
O93 O 0.61674 0.57811 0.66001 0.0
O94 O 0.67024 0.60434 0.65207 0.0
C95 C 0.70661 0.60985 0.65727 0.0
C96 C 0.60655 0.58271 0.72923 0.0
O97 O 0.73355 0.60999 0.68935 0.0
C98 C 0.72513 0.57175 0.79419 0.0
O99 O 0.66881 0.63008 0.70708 0.0
O100 O 0.72367 0.62045 0.75309 0.0
O101 O 0.62272 0.56369 0.72549 0.0
O102 O 0.61836 0.60153 0.71941 0.0
C103 C 0.75161 0.5493 0.72028 0.0
O104 O 0.74825 0.58093 0.77855 0.0
O105 O 0.69096 0.56341 0.77561 0.0
C106 C 0.69837 0.63553 0.73569 0.0
O107 O 0.75563 0.57022 0.71327 0.0
O108 O 0.72354 0.54313 0.732 0.0
C109 C 0.62779 0.558 0.65402 0.0
Fe110 Fe 0.84077 0.60361 0.29037 0.0
Fe111 Fe 0.75404 0.59482 0.2379 0.0
O112 O 0.80464 0.58507 0.25917 0.0
Fe113 Fe 0.81812 0.55684 0.2493 0.0
O114 O 0.85442 0.55158 0.29625 0.0
O115 O 0.85046 0.58292 0.32768 0.0
O116 O 0.80351 0.61693 0.30868 0.0
C117 C 0.76998 0.60888 0.30933 0.0
C118 C 0.88729 0.58018 0.25206 0.0
O119 O 0.7474 0.59676 0.28283 0.0
C120 C 0.77028 0.57516 0.17971 0.0
O121 O 0.83345 0.62621 0.25545 0.0
O122 O 0.76706 0.62551 0.23878 0.0
O123 O 0.85782 0.56778 0.2333 0.0
O124 O 0.88451 0.59291 0.2782 0.0
C125 C 0.74209 0.54797 0.25143 0.0
O126 O 0.75938 0.59318 0.19262 0.0
O127 O 0.78453 0.55774 0.20036 0.0
C128 C 0.79941 0.63587 0.24031 0.0
O129 O 0.73038 0.56617 0.23257 0.0
O130 O 0.77948 0.54335 0.26484 0.0
C131 C 0.86071 0.56208 0.32682 0.0
Fe132 Fe 0.31866 0.45278 0.24824 0.0
Fe133 Fe 0.25502 0.41459 0.23703 0.0
O134 O 0.30514 0.42485 0.2592 0.0
Fe135 Fe 0.34085 0.40712 0.29231 0.0
O136 O 0.3485 0.42868 0.32823 0.0
O137 O 0.35354 0.45907 0.29536 0.0
O138 O 0.27873 0.46657 0.26173 0.0
C139 C 0.24148 0.46187 0.24721 0.0
C140 C 0.38894 0.42943 0.25467 0.0
O141 O 0.23065 0.44319 0.2294 0.0
C142 C 0.30205 0.37377 0.24311 0.0
O143 O 0.28654 0.45085 0.19893 0.0
O144 O 0.26232 0.41527 0.19248 0.0
O145 O 0.38528 0.41755 0.28128 0.0
O146 O 0.35969 0.44141 0.2343 0.0
C147 C 0.26851 0.40193 0.30883 0.0
O148 O 0.26901 0.38395 0.23994 0.0
O149 O 0.33559 0.38376 0.25897 0.0
C150 C 0.27365 0.43293 0.17913 0.0
O151 O 0.24634 0.41344 0.28125 0.0
O152 O 0.30279 0.39415 0.3097 0.0
C153 C 0.35889 0.4494 0.32641 0.0
Fe154 Fe 0.23594 0.41723 0.73064 0.0
Fe155 Fe 0.14401 0.41074 0.68929 0.0
O156 O 0.18536 0.42785 0.71715 0.0
Fe157 Fe 0.17555 0.45598 0.73089 0.0
O158 O 0.22437 0.46884 0.73325 0.0
O159 O 0.25331 0.44189 0.71067 0.0
O160 O 0.22874 0.40243 0.68607 0.0
C161 C 0.20033 0.40369 0.65485 0.0
C162 C 0.22981 0.43919 0.79541 0.0
O163 O 0.16485 0.40971 0.65233 0.0
C164 C 0.10901 0.42964 0.73597 0.0
O165 O 0.22371 0.39141 0.75161 0.0
O166 O 0.16702 0.3826 0.70717 0.0
O167 O 0.19536 0.44799 0.77901 0.0
O168 O 0.25101 0.43035 0.7775 0.0
C169 C 0.12488 0.45563 0.65909 0.0
O170 O 0.11957 0.41099 0.72445 0.0
O171 O 0.12502 0.44872 0.73221 0.0
C172 C 0.19737 0.37669 0.73483 0.0
O173 O 0.11383 0.43558 0.66517 0.0
O174 O 0.15486 0.46543 0.68278 0.0
C175 C 0.25043 0.46275 0.71891 0.0
H176 H 0.54585 0.92512 0.18162 0.0
H177 H 0.4819 0.94186 0.18261 0.0
H178 H 0.54043 0.96257 0.29673 0.0
H179 H 0.6049 0.94668 0.29546 0.0
H180 H 0.43033 0.93777 0.22104 0.0
H181 H 0.50374 0.02414 0.24796 0.0
H182 H 0.5285 0.99913 0.23708 0.0
H183 H 0.52796 1.00346 0.28359 0.0
C184 C 0.54492 0.93274 0.20724 0.0
C185 C 0.58059 0.93477 0.23837 0.0
C186 C 0.5083 0.94242 0.2077 0.0
C187 C 0.50656 0.95413 0.23938 0.0
C188 C 0.54128 0.95431 0.27156 0.0
H189 H 0.28318 0.00909 0.26518 0.0
H190 H 0.341 0.98458 0.26692 0.0
C191 C 0.57804 0.945 0.27094 0.0
C192 C 0.46948 0.96749 0.23783 0.0
H193 H 0.43669 0.02187 0.24918 0.0
C194 C 0.43168 0.95617 0.22718 0.0
C195 C 0.471 0.99163 0.245 0.0
C196 C 0.50987 1.00537 0.25366 0.0
C197 C 0.39556 0.96823 0.22389 0.0
C198 C 0.39737 0.9922 0.23243 0.0
C199 C 0.43517 1.00349 0.24289 0.0
C200 C 0.36062 0.00623 0.22992 0.0
C201 C 0.35576 0.95528 0.2102 0.0
C202 C 0.3526 0.02687 0.20917 0.0
C203 C 0.32011 0.04116 0.20879 0.0
C204 C 0.29457 0.03508 0.22894 0.0
C205 C 0.30201 0.01417 0.24905 0.0
C206 C 0.33496 1.00003 0.24987 0.0
H207 H 0.35804 0.93953 0.19428 0.0
H208 H 0.3474 0.94965 0.23442 0.0
H209 H 0.33095 0.9664 0.1922 0.0
H210 H 0.37186 0.03211 0.19353 0.0
H211 H 0.31517 0.05709 0.19289 0.0
H212 H 0.91058 0.94719 0.69636 0.0
H213 H 0.9743 0.96355 0.69426 0.0
H214 H 0.03425 0.94378 0.80867 0.0
H215 H 0.97114 0.92655 0.81036 0.0
H216 H 0.0111 0.9991 0.73139 0.0
H217 H 0.12131 0.92686 0.76829 0.0
H218 H 0.0673 0.92225 0.75601 0.0
H219 H 0.0974 0.93063 0.80265 0.0
C220 C 0.93769 0.94567 0.72069 0.0
C221 C 0.9358 0.9354 0.75343 0.0
C222 C 0.97411 0.95516 0.71955 0.0
C223 C 0.00945 0.95484 0.75121 0.0
C224 C 0.00796 0.94377 0.7835 0.0
H225 H 0.19585 0.06131 0.79629 0.0
H226 H 0.13838 0.03653 0.79395 0.0
C227 C 0.97168 0.93392 0.78447 0.0
C228 C 0.04624 0.96817 0.75156 0.0
H229 H 0.14969 0.96523 0.77502 0.0
C230 C 0.04131 0.99154 0.74058 0.0
C231 C 0.08582 0.95843 0.76314 0.0
C232 C 0.09324 0.9331 0.77279 0.0
C233 C 0.0746 1.00548 0.7415 0.0
C234 C 0.11441 0.99612 0.75508 0.0
C235 C 0.11934 0.97259 0.76521 0.0
C236 C 0.15111 0.01043 0.75863 0.0
C237 C 0.06648 0.03002 0.7272 0.0
C238 C 0.17885 1.00354 0.74122 0.0
C239 C 0.21232 0.01751 0.74314 0.0
C240 C 0.21867 0.03875 0.76238 0.0
C241 C 0.19157 0.04525 0.78076 0.0
C242 C 0.15847 0.03114 0.77923 0.0
H243 H 0.03499 0.03203 0.70734 0.0
H244 H 0.06994 0.04192 0.75089 0.0
H245 H 0.08805 0.03542 0.71307 0.0
H246 H 0.17411 0.98758 0.72539 0.0
H247 H 0.2326 0.01193 0.72872 0.0
H248 H 0.76674 1.00483 0.79675 0.0
H249 H 0.71564 0.03389 0.79793 0.0
H250 H 0.62011 0.98842 0.73325 0.0
H251 H 0.67031 0.95947 0.73193 0.0
H252 H 0.61851 0.0376 0.70703 0.0
H253 H 0.63078 0.02771 0.85563 0.0
H254 H 0.67646 0.0306 0.84405 0.0
H255 H 0.64636 1.00485 0.83105 0.0
C256 C 0.73484 1.001 0.78293 0.0
C257 C 0.72272 0.97979 0.76418 0.0
C258 C 0.70572 0.01761 0.78367 0.0
C259 C 0.66413 0.01326 0.76567 0.0
C260 C 0.65206 0.99213 0.74721 0.0
H261 H 0.42257 0.0508 0.71671 0.0
H262 H 0.48988 0.03998 0.71633 0.0
C263 C 0.68092 0.97556 0.74658 0.0
C264 C 0.63255 0.03053 0.76535 0.0
H265 H 0.57703 0.05038 0.8175 0.0
C266 C 0.60989 0.04078 0.73134 0.0
C267 C 0.62157 0.03477 0.79713 0.0
C268 C 0.64482 0.02393 0.83415 0.0
C269 C 0.57532 0.05427 0.72788 0.0
C270 C 0.56263 0.05719 0.75905 0.0
C271 C 0.58678 0.04815 0.79361 0.0
C272 C 0.52178 0.06653 0.75529 0.0
C273 C 0.55198 0.0647 0.69056 0.0
C274 C 0.51711 0.0853 0.77698 0.0
C275 C 0.47833 0.09166 0.77701 0.0
C276 C 0.44386 0.07901 0.75593 0.0
C277 C 0.44857 0.06093 0.73307 0.0
C278 C 0.48705 0.05478 0.73273 0.0
H279 H 0.57214 0.06788 0.67397 0.0
H280 H 0.52793 0.05242 0.67472 0.0
H281 H 0.53727 0.08127 0.69367 0.0
H282 H 0.54355 0.09446 0.79484 0.0
H283 H 0.47565 0.10544 0.79531 0.0
H284 H 0.74653 0.0085 0.19811 0.0
H285 H 0.79693 0.03824 0.19791 0.0
H286 H 0.8938 0.99176 0.25706 0.0
H287 H 0.84443 0.96223 0.25743 0.0
H288 H 0.89631 0.03946 0.28771 0.0
H289 H 0.87901 0.03554 0.13725 0.0
H290 H 0.83444 0.0379 0.15072 0.0
H291 H 0.86359 0.01165 0.15993 0.0
C292 C 0.77858 1.00461 0.21089 0.0
C293 C 0.79135 0.98297 0.22789 0.0
C294 C 0.80728 0.0216 0.21072 0.0
C295 C 0.84903 0.01715 0.22754 0.0
C296 C 0.86171 0.99556 0.2441 0.0
H297 H 0.09053 0.04765 0.27444 0.0
H298 H 0.02251 0.03887 0.27498 0.0
C299 C 0.83331 0.97867 0.24419 0.0
C300 C 0.88037 0.03467 0.22861 0.0
H301 H 0.93549 0.05556 0.17691 0.0
C302 C 0.90436 0.04347 0.26335 0.0
C303 C 0.89059 0.03999 0.19677 0.0
C304 C 0.86579 0.03082 0.15893 0.0
C305 C 0.93978 0.05623 0.26746 0.0
C306 C 0.95186 0.05993 0.23614 0.0
C307 C 0.92621 0.05267 0.20092 0.0
C308 C 0.99351 0.06785 0.24011 0.0
C309 C 0.96488 0.06482 0.3056 0.0
C310 C 1.0 0.08726 0.22065 0.0
C311 C 0.03918 0.09243 0.22052 0.0
C312 C 0.07215 0.07793 0.23921 0.0
C313 C 0.06572 0.05914 0.25989 0.0
C314 C 0.02685 0.05418 0.26036 0.0
H315 H 0.94563 0.06786 0.3231 0.0
H316 H 0.98786 0.05149 0.31962 0.0
H317 H 0.98103 0.08112 0.30394 0.0
H318 H 0.9746 0.0979 0.20457 0.0
H319 H 0.04318 0.10685 0.20398 0.0
H320 H 0.09591 0.44809 0.79603 0.0
H321 H 0.03055 0.46171 0.79857 0.0
H322 H 0.96979 0.43162 0.69053 0.0
H323 H 0.03482 0.41679 0.68927 0.0
H324 H 0.99072 0.49314 0.75535 0.0
H325 H 0.88541 0.41924 0.73545 0.0
H326 H 0.93951 0.41525 0.74709 0.0
H327 H 0.90755 0.41983 0.69949 0.0
C328 C 0.06824 0.44337 0.77383 0.0
C329 C 0.07013 0.43103 0.74284 0.0
C330 C 0.03093 0.45135 0.77503 0.0
C331 C 0.99493 0.44771 0.74478 0.0
C332 C 0.99666 0.43417 0.71472 0.0
H333 H 0.80479 0.55217 0.68188 0.0
H334 H 0.86175 0.52628 0.68641 0.0
C335 C 0.03392 0.42565 0.71399 0.0
C336 C 0.95744 0.461 0.7422 0.0
H337 H 0.85428 0.45695 0.71952 0.0
C338 C 0.96101 0.48507 0.74804 0.0
C339 C 0.91851 0.45066 0.73283 0.0
C340 C 0.91259 0.42479 0.72877 0.0
C341 C 0.92703 0.49907 0.74428 0.0
C342 C 0.88783 0.48896 0.73268 0.0
C343 C 0.88419 0.46482 0.72766 0.0
C344 C 0.85053 0.50317 0.72653 0.0
C345 C 0.93383 0.52452 0.75355 0.0
C346 C 0.82364 0.49802 0.74567 0.0
C347 C 0.79042 0.51247 0.74236 0.0
C348 C 0.78366 0.5325 0.7201 0.0
C349 C 0.80954 0.53706 0.69967 0.0
C350 C 0.8423 0.52236 0.70247 0.0
H351 H 0.96519 0.52786 0.77283 0.0
H352 H 0.92974 0.53443 0.72767 0.0
H353 H 0.91201 0.53121 0.76655 0.0
H354 H 0.8291 0.48323 0.76417 0.0
H355 H 0.77103 0.50846 0.75846 0.0
H356 H 0.66183 0.55662 0.23752 0.0
H357 H 0.60945 0.52999 0.24172 0.0
H358 H 0.69834 0.47535 0.27722 0.0
H359 H 0.75162 0.50213 0.27341 0.0
H360 H 0.61624 0.46632 0.21256 0.0
H361 H 0.60316 0.50145 0.34351 0.0
H362 H 0.60582 0.52259 0.3098 0.0
H363 H 0.64887 0.50432 0.33171 0.0
C364 C 0.67046 0.53896 0.24627 0.0
C365 C 0.71099 0.5315 0.25503 0.0
C366 C 0.64042 0.52379 0.24875 0.0
C367 C 0.65007 0.50077 0.25988 0.0
C368 C 0.69038 0.49311 0.26863 0.0
H369 H 0.4628 0.41746 0.30549 0.0
H370 H 0.52993 0.4304 0.30687 0.0
C371 C 0.72074 0.50842 0.26653 0.0
C372 C 0.61738 0.48496 0.26171 0.0
H373 H 0.54918 0.47741 0.30694 0.0
C374 C 0.60193 0.46842 0.23352 0.0
C375 C 0.59897 0.48769 0.28916 0.0
C376 C 0.61512 0.50484 0.3205 0.0
C377 C 0.56722 0.45528 0.23111 0.0
C378 C 0.54745 0.45894 0.25743 0.0
C379 C 0.56423 0.47466 0.28667 0.0
C380 C 0.5078 0.448 0.25385 0.0
C381 C 0.55162 0.43787 0.20011 0.0
C382 C 0.47308 0.45319 0.22321 0.0
C383 C 0.4346 0.44589 0.22235 0.0
C384 C 0.43001 0.43326 0.25218 0.0
C385 C 0.46513 0.42703 0.28192 0.0
C386 C 0.50358 0.4345 0.28286 0.0
H387 H 0.57597 0.43226 0.18932 0.0
H388 H 0.53902 0.42236 0.20954 0.0
H389 H 0.52697 0.44592 0.17681 0.0
H390 H 0.47545 0.46392 0.20079 0.0
H391 H 0.40827 0.45102 0.19903 0.0
H392 H 0.96233 0.59542 0.29723 0.0
H393 H 0.02892 0.58276 0.2963 0.0
H394 H 0.97026 0.5418 0.19842 0.0
H395 H 0.90399 0.5547 0.19859 0.0
H396 H 0.05608 0.53875 0.30501 0.0
H397 H 0.06002 0.57075 0.17019 0.0
H398 H 0.0237 0.58134 0.1906 0.0
H399 H 0.01436 0.55473 0.16434 0.0
C400 C 0.96362 0.58424 0.27488 0.0
C401 C 0.92765 0.5761 0.24799 0.0
C402 C 1.00177 0.57691 0.27452 0.0
C403 C 0.00478 0.56149 0.24708 0.0
C404 C 0.96897 0.55411 0.2194 0.0
H405 H 0.16024 0.46025 0.2079 0.0
H406 H 0.10731 0.48717 0.21013 0.0
C407 C 0.93093 0.56142 0.21969 0.0
C408 C 0.04467 0.55121 0.24927 0.0
H409 H 0.10383 0.53811 0.19667 0.0
C410 C 0.067 0.53904 0.28162 0.0
C411 C 0.05908 0.55158 0.2188 0.0
C412 C 0.03822 0.56552 0.1842 0.0
C413 C 0.10186 0.52618 0.28347 0.0
C414 C 0.11489 0.52557 0.25226 0.0
C415 C 0.09366 0.53851 0.22053 0.0
C416 C 0.14809 0.50993 0.25076 0.0
C417 C 0.12334 0.51233 0.31803 0.0
C418 C 0.18883 0.5139 0.27268 0.0
C419 C 0.21947 0.49852 0.27137 0.0
C420 C 0.20979 0.47884 0.24823 0.0
C421 C 0.16892 0.47514 0.22614 0.0
C422 C 0.13853 0.49056 0.22727 0.0
H423 H 0.10671 0.51258 0.33819 0.0
H424 H 0.12705 0.49406 0.3106 0.0
H425 H 0.15416 0.51961 0.33188 0.0
H426 H 0.19687 0.52886 0.29082 0.0
H427 H 0.25058 0.50188 0.28875 0.0
H428 H 0.591 0.56389 0.78777 0.0
H429 H 0.52501 0.54934 0.78729 0.0
H430 H 0.46727 0.58039 0.67958 0.0
H431 H 0.53308 0.59596 0.681 0.0
H432 H 0.41582 0.57966 0.71935 0.0
H433 H 0.48572 0.49315 0.72277 0.0
H434 H 0.51174 0.51008 0.76316 0.0
H435 H 0.51111 0.51951 0.71803 0.0
C436 C 0.56387 0.56849 0.76485 0.0
C437 C 0.5669 0.5812 0.73461 0.0
C438 C 0.5263 0.55987 0.76428 0.0
C439 C 0.49141 0.56308 0.73281 0.0
C440 C 0.4938 0.57754 0.70403 0.0
H441 H 0.29816 0.46018 0.67518 0.0
H442 H 0.35302 0.48641 0.67493 0.0
C443 C 0.53132 0.58661 0.70499 0.0
C444 C 0.45394 0.54939 0.72821 0.0
H445 H 0.42005 0.49388 0.7278 0.0
C446 C 0.41665 0.5609 0.72111 0.0
C447 C 0.45474 0.52484 0.7293 0.0
C448 C 0.49286 0.51115 0.73331 0.0
C449 C 0.3804 0.54857 0.71605 0.0
C450 C 0.3817 0.52408 0.71926 0.0
C451 C 0.41891 0.51263 0.72564 0.0
C452 C 0.34525 0.50977 0.71643 0.0
C453 C 0.34107 0.56194 0.70645 0.0
C454 C 0.32208 0.51422 0.73943 0.0
C455 C 0.29018 0.49947 0.73907 0.0
C456 C 0.28141 0.4796 0.7164 0.0
C457 C 0.30424 0.4753 0.69305 0.0
C458 C 0.33563 0.49029 0.69292 0.0
H459 H 0.34294 0.57864 0.69268 0.0
H460 H 0.31515 0.55182 0.68781 0.0
H461 H 0.3348 0.56598 0.73238 0.0
H462 H 0.32951 0.52864 0.75868 0.0
H463 H 0.27349 0.50313 0.75771 0.0
H464 H 0.07842 0.07157 0.1003 0.0
H465 H 0.03632 0.04952 0.0469 0.0
H466 H 0.10609 0.98792 0.09027 0.0
H467 H 0.14883 0.00993 0.14446 0.0
H468 H 0.0856 0.99907 0.00824 0.0
H469 H 0.95409 0.99865 0.05885 0.0
H470 H 0.97771 0.02644 0.06006 0.0
H471 H 0.00575 1.00344 0.08924 0.0
C472 C 0.08508 0.05335 0.0986 0.0
C473 C 0.11663 0.0424 0.12692 0.0
C474 C 0.06093 0.04082 0.06805 0.0
C475 C 0.06783 0.01713 0.06518 0.0
C476 C 0.1003 0.00622 0.09239 0.0
H477 H 0.89016 0.93006 0.9044 0.0
H478 H 0.93919 0.94549 0.9615 0.0
C479 C 0.1246 0.0188 0.1232 0.0
C480 C 0.04006 1.00394 0.03394 0.0
H481 H 0.94048 0.98844 -0.00461 0.0
C482 C 0.05399 0.99643 0.00551 0.0
C483 C 0.99905 1.00043 0.03089 0.0
C484 C 0.9832 0.00747 0.0615 0.0
C485 C 0.02727 0.98627 0.97312 0.0
C486 C 0.98572 0.98395 0.96919 0.0
C487 C 0.97228 0.99054 -0.00161 0.0
C488 C 0.95552 0.97504 0.93474 0.0
C489 C 0.04363 0.97824 0.94333 0.0
C490 C 0.94768 0.98702 0.90112 0.0
C491 C 0.91962 0.97832 0.86842 0.0
C492 C 0.89891 0.95752 0.86893 0.0
C493 C 0.90583 0.94604 0.903 0.0
C494 C 0.93385 0.95478 0.93564 0.0
H495 H 0.07707 0.97554 0.95455 0.0
H496 H 0.02888 0.96184 0.93043 0.0
H497 H 0.03714 0.99162 0.92124 0.0
H498 H 0.96349 1.00301 0.90015 0.0
H499 H 0.9149 0.98761 0.84267 0.0
H500 H 0.59909 0.9878 0.1486 0.0
H501 H 0.54951 1.00243 0.09103 0.0
H502 H 0.57526 0.94482 0.03053 0.0
H503 H 0.62532 0.9302 0.08771 0.0
H504 H 0.57236 0.98716 -0.00443 0.0
H505 H 0.43661 0.97446 0.03753 0.0
H506 H 0.47613 0.991 0.0704 0.0
H507 H 0.48516 0.96118 0.06194 0.0
C508 C 0.59446 0.97833 0.12302 0.0
C509 C 0.61595 0.95776 0.12278 0.0
C510 C 0.56581 0.98657 0.09026 0.0
C511 C 0.55811 0.97435 0.05685 0.0
C512 C 0.58047 0.95429 0.05622 0.0
H513 H 0.36503 0.01063 0.84667 0.0
H514 H 0.40713 0.98768 0.90006 0.0
C515 C 0.60909 0.94602 0.08891 0.0
C516 C 0.52753 0.98291 0.02229 0.0
H517 H 0.42763 0.99825 0.98387 0.0
C518 C 0.54063 0.9893 0.9928 0.0
C519 C 0.48605 0.98529 0.01862 0.0
C520 C 0.46999 0.97741 0.04866 0.0
C521 C 0.51365 0.99919 0.96039 0.0
C522 C 0.47279 1.00288 0.9577 0.0
C523 C 0.45914 0.99545 0.98632 0.0
C524 C 0.44519 0.01654 0.92698 0.0
C525 C 0.52918 0.00621 0.92959 0.0
C526 C 0.45218 0.0403 0.92541 0.0
C527 C 0.42842 0.05336 0.89535 0.0
C528 C 0.39716 0.04286 0.8662 0.0
C529 C 0.38903 0.01915 0.86861 0.0
C530 C 0.41296 0.00605 0.89896 0.0
H531 H 0.55828 0.99741 0.93206 0.0
H532 H 0.50647 1.00214 0.90196 0.0
H533 H 0.53453 0.02519 0.93095 0.0
H534 H 0.47664 0.04867 0.94716 0.0
H535 H 0.43517 0.07163 0.89467 0.0
H536 H 0.56347 0.57512 0.59764 0.0
H537 H 0.51888 0.55449 0.54376 0.0
H538 H 0.58981 0.49228 0.57929 0.0
H539 H 0.63515 0.51287 0.63383 0.0
H540 H 0.56778 0.50452 0.50034 0.0
H541 H 0.4363 0.50401 0.55081 0.0
H542 H 0.45951 0.53192 0.55224 0.0
H543 H 0.48789 0.50891 0.58121 0.0
C544 C 0.56981 0.55705 0.59416 0.0
C545 C 0.60266 0.54555 0.62031 0.0
C546 C 0.54415 0.5453 0.56336 0.0
C547 C 0.55073 0.52184 0.55807 0.0
C548 C 0.58418 0.51039 0.58327 0.0
H549 H 0.37509 0.43417 0.39766 0.0
H550 H 0.42219 0.45112 0.45443 0.0
C551 C 0.60998 0.52216 0.61431 0.0
C552 C 0.52227 0.50949 0.52604 0.0
H553 H 0.42244 0.49448 0.48702 0.0
C554 C 0.53608 0.50209 0.49747 0.0
C555 C 0.48113 0.50622 0.52277 0.0
C556 C 0.46529 0.51298 0.55352 0.0
C557 C 0.5093 0.49213 0.46492 0.0
C558 C 0.46771 0.48989 0.46089 0.0
C559 C 0.45426 0.49655 0.49006 0.0
C560 C 0.43771 0.48046 0.42668 0.0
C561 C 0.52573 0.48404 0.4352 0.0
C562 C 0.4299 0.49182 0.39254 0.0
C563 C 0.40295 0.48223 0.35998 0.0
C564 C 0.38333 0.46113 0.36114 0.0
C565 C 0.38992 0.45036 0.39573 0.0
C566 C 0.41684 0.45998 0.42821 0.0
H567 H 0.55922 0.48154 0.44636 0.0
H568 H 0.51127 0.4675 0.42261 0.0
H569 H 0.5189 0.49727 0.41286 0.0
H570 H 0.44508 0.50796 0.39103 0.0
H571 H 0.39842 0.49102 0.33385 0.0
H572 H 0.13458 0.50005 0.63731 0.0
H573 H 0.08986 0.5207 0.5825 0.0
H574 H 0.01318 0.46034 0.55114 0.0
H575 H 0.05702 0.43972 0.60536 0.0
H576 H 0.06695 0.50728 0.50539 0.0
H577 H 0.93443 0.51338 0.55374 0.0
H578 H 0.98527 0.50724 0.58477 0.0
H579 H 0.95493 0.48464 0.55625 0.0
C580 C 0.10814 0.49123 0.61876 0.0
C581 C 0.09916 0.46833 0.62591 0.0
C582 C 0.08271 0.50302 0.58754 0.0
C583 C 0.04794 0.49211 0.56332 0.0
C584 C 0.03944 0.46918 0.56999 0.0
H585 H 0.90005 0.52022 0.33644 0.0
H586 H 0.94587 0.50395 0.39468 0.0
C587 C 0.0647 0.45741 0.60097 0.0
C588 C 0.02054 0.50432 0.5305 0.0
H589 H 0.92164 0.52068 0.48927 0.0
C590 C 0.03528 0.51046 0.50193 0.0
C591 C 0.97941 0.5086 0.5264 0.0
C592 C 0.96258 0.50333 0.55706 0.0
C593 C 0.00944 0.52009 0.46862 0.0
C594 C 0.96782 0.52326 0.46378 0.0
C595 C 0.95346 0.51788 0.49292 0.0
C596 C 0.93871 0.53243 0.42884 0.0
C597 C 0.02692 0.52685 0.43897 0.0
C598 C 0.91831 0.55329 0.42915 0.0
C599 C 0.89187 0.56251 0.3961 0.0
C600 C 0.88529 0.55097 0.3621 0.0
C601 C 0.9046 0.52959 0.3621 0.0
C602 C 0.93107 0.52037 0.39526 0.0
H603 H 0.06048 0.52892 0.45055 0.0
H604 H 0.02002 0.51307 0.41746 0.0
H605 H 0.01331 0.54329 0.42525 0.0
H606 H 0.92353 0.56269 0.4549 0.0
H607 H 0.87726 0.57893 0.39715 0.0
H608 H 0.35212 0.11149 0.90343 0.0
H609 H 0.33326 0.11849 0.9581 0.0
H610 H 0.21024 0.13359 0.88825 0.0
H611 H 0.22871 0.12615 0.8327 0.0
H612 H 0.29994 0.15647 0.98293 0.0
H613 H 0.19762 0.07965 0.95337 0.0
H614 H 0.23282 0.08495 0.92897 0.0
H615 H 0.1863 0.10119 0.91736 0.0
C616 C 0.32102 0.11644 0.89942 0.0
C617 C 0.29175 0.11799 0.86357 0.0
C618 C 0.3104 0.12055 0.93084 0.0
C619 C 0.27032 0.12627 0.92723 0.0
C620 C 0.24126 0.12884 0.89156 0.0
H621 H 0.16058 0.12569 0.09891 0.0
H622 H 0.17483 0.13368 0.04201 0.0
C623 C 0.25187 0.12467 0.85989 0.0
C624 C 0.25906 0.12795 0.96114 0.0
H625 H 0.20546 0.10017 0.00831 0.0
C626 C 0.27897 0.14433 0.98841 0.0
C627 C 0.23202 0.11192 0.96826 0.0
C628 C 0.21113 0.09329 0.94066 0.0
C629 C 0.27269 0.14502 0.02281 0.0
C630 C 0.24626 0.12871 0.03013 0.0
C631 C 0.22572 0.11267 0.00254 0.0
C632 C 0.23949 0.12749 0.06627 0.0
C633 C 0.29427 0.16318 0.05094 0.0
C634 C 0.27141 0.12189 0.09913 0.0
C635 C 0.26338 0.11739 0.13201 0.0
C636 C 0.22326 0.11811 0.13216 0.0
C637 C 0.19178 0.12473 0.09958 0.0
C638 C 0.19984 0.12938 0.06703 0.0
H639 H 0.30459 0.17793 0.0377 0.0
H640 H 0.27424 0.16993 0.06582 0.0
H641 H 0.32147 0.15531 0.07177 0.0
H642 H 0.30215 0.11992 0.09893 0.0
H643 H 0.28813 0.1122 0.15666 0.0
H644 H 0.7329 0.92581 0.84513 0.0
H645 H 0.72574 0.92231 0.90636 0.0
H646 H 0.80157 0.86125 0.92862 0.0
H647 H 0.81015 0.86517 0.868 0.0
H648 H 0.69731 0.8903 0.94123 0.0
H649 H 0.8627 0.90183 0.01483 0.0
H650 H 0.83951 0.90615 0.96542 0.0
H651 H 0.85112 0.87735 0.9841 0.0
C652 C 0.74758 0.91146 0.86288 0.0
C653 C 0.77243 0.89591 0.85203 0.0
C654 C 0.74358 0.90951 0.89788 0.0
C655 C 0.76404 0.89188 0.92241 0.0
C656 C 0.78661 0.87542 0.9106 0.0
H657 H 0.71199 0.86605 0.12677 0.0
H658 H 0.72129 0.86138 0.06657 0.0
C659 C 0.79118 0.87756 0.87586 0.0
C660 C 0.76274 0.89129 0.96071 0.0
H661 H 0.82266 0.89287 0.05215 0.0
C662 C 0.72469 0.89083 0.96551 0.0
C663 C 0.79855 0.89244 0.9923 0.0
C664 C 0.84025 0.89471 0.989 0.0
C665 C 0.72139 0.89155 0.00104 0.0
C666 C 0.75724 0.89186 0.03266 0.0
C667 C 0.79529 0.89228 0.02787 0.0
C668 C 0.7558 0.89303 0.07089 0.0
C669 C 0.6795 0.89285 0.00419 0.0
C670 C 0.77443 0.91154 0.09429 0.0
C671 C 0.77005 0.91394 0.1291 0.0
C672 C 0.74662 0.89796 0.14083 0.0
C673 C 0.72979 0.87878 0.11818 0.0
C674 C 0.73478 0.87619 0.08369 0.0
H675 H 0.65644 0.89899 0.97793 0.0
H676 H 0.67026 0.87532 0.01018 0.0
H677 H 0.67912 0.90465 0.02702 0.0
H678 H 0.79107 0.92464 0.08505 0.0
H679 H 0.78323 0.92892 0.14596 0.0
H680 H 0.78588 0.64744 0.35294 0.0
H681 H 0.77312 0.65292 0.41156 0.0
H682 H 0.71748 0.58525 0.39925 0.0
H683 H 0.72791 0.58039 0.33957 0.0
H684 H 0.67787 0.61327 0.42659 0.0
H685 H 0.84174 0.62453 0.5064 0.0
H686 H 0.82275 0.64636 0.47147 0.0
H687 H 0.82363 0.61648 0.45801 0.0
C688 C 0.77041 0.63392 0.36261 0.0
C689 C 0.75801 0.61346 0.34201 0.0
C690 C 0.76356 0.63694 0.39625 0.0
C691 C 0.74558 0.61918 0.41043 0.0
C692 C 0.73168 0.59914 0.38901 0.0
H693 H 0.7695 0.59306 0.63851 0.0
H694 H 0.77949 0.5976 0.57842 0.0
C695 C 0.73753 0.59638 0.3549 0.0
C696 C 0.74185 0.62111 0.44782 0.0
H697 H 0.79615 0.63019 0.53952 0.0
C698 C 0.70375 0.61695 0.4513 0.0
C699 C 0.77582 0.62552 0.48015 0.0
C700 C 0.81834 0.62822 0.47894 0.0
C701 C 0.6987 0.61669 0.48613 0.0
C702 C 0.73231 0.622 0.51832 0.0
C703 C 0.77031 0.62646 0.51481 0.0
C704 C 0.72922 0.62152 0.55605 0.0
C705 C 0.65781 0.60965 0.48801 0.0
C706 C 0.69888 0.63421 0.56404 0.0
C707 C 0.6925 0.63109 0.59783 0.0
C708 C 0.71753 0.61603 0.62471 0.0
C709 C 0.75005 0.60485 0.61811 0.0
C710 C 0.75565 0.60742 0.58382 0.0
H711 H 0.63989 0.59955 0.4631 0.0
H712 H 0.66118 0.59901 0.51307 0.0
H713 H 0.64004 0.62541 0.48908 0.0
H714 H 0.67918 0.64588 0.54365 0.0
H715 H 0.66747 0.64002 0.60269 0.0
H716 H 0.27383 0.40099 0.64384 0.0
H717 H 0.28496 0.39625 0.58414 0.0
H718 H 0.15572 0.38937 0.52825 0.0
H719 H 0.14427 0.39395 0.58733 0.0
H720 H 0.20666 0.35724 0.50449 0.0
H721 H 0.25048 0.45006 0.50553 0.0
H722 H 0.27787 0.43331 0.54595 0.0
H723 H 0.22463 0.43886 0.53561 0.0
C724 C 0.2479 0.39809 0.61891 0.0
C725 C 0.20818 0.39807 0.62021 0.0
C726 C 0.25427 0.3955 0.5849 0.0
C727 C 0.22106 0.39275 0.55194 0.0
C728 C 0.18166 0.39154 0.55345 0.0
H729 H 0.20687 0.42298 0.32601 0.0
H730 H 0.19167 0.4188 0.38379 0.0
C731 C 0.17523 0.39426 0.58724 0.0
C732 C 0.22667 0.39262 0.5154 0.0
H733 H 0.25156 0.42753 0.45444 0.0
C734 C 0.21665 0.37253 0.49351 0.0
C735 C 0.23888 0.41279 0.5011 0.0
C736 C 0.24833 0.43509 0.52302 0.0
C737 C 0.21903 0.37202 0.4576 0.0
C738 C 0.23194 0.39209 0.44358 0.0
C739 C 0.24159 0.41221 0.46537 0.0
C740 C 0.2373 0.39243 0.40691 0.0
C741 C 0.20722 0.35019 0.43476 0.0
C742 C 0.26752 0.37874 0.40078 0.0
C743 C 0.27629 0.3811 0.368 0.0
C744 C 0.25503 0.39726 0.3408 0.0
C745 C 0.22358 0.4103 0.34635 0.0
C746 C 0.21497 0.408 0.37933 0.0
H747 H 0.1885 0.33855 0.44558 0.0
H748 H 0.18999 0.35433 0.40523 0.0
H749 H 0.23516 0.34066 0.43574 0.0
H750 H 0.2855 0.36692 0.42201 0.0
H751 H 0.30067 0.37077 0.36456 0.0
H752 H 0.17778 0.05966 0.33837 0.0
H753 H 0.18774 0.06279 0.40402 0.0
H754 H 0.3057 0.09347 0.42377 0.0
H755 H 0.29558 0.0909 0.35696 0.0
H756 H 0.24566 0.04242 0.46108 0.0
H757 H 0.25265 0.1382 0.4771 0.0
H758 H 0.23504 0.12418 0.43221 0.0
H759 H 0.28854 0.126 0.45786 0.0
C760 C 0.20603 0.06708 0.35644 0.0
C761 C 0.23606 0.07494 0.34229 0.0
C762 C 0.21154 0.0689 0.39408 0.0
C763 C 0.24719 0.07858 0.41872 0.0
C764 C 0.27757 0.08634 0.40503 0.0
H765 H 0.33281 0.05803 0.65408 0.0
H766 H 0.32086 0.05948 0.58786 0.0
C767 C 0.27195 0.08465 0.36698 0.0
C768 C 0.25249 0.07943 0.45881 0.0
H769 H 0.2648 0.11599 0.53215 0.0
C770 C 0.2498 0.05852 0.47658 0.0
C771 C 0.25712 0.1005 0.47876 0.0
C772 C 0.25815 0.12355 0.46053 0.0
C773 C 0.25206 0.05805 0.51384 0.0
C774 C 0.25808 0.07899 0.53416 0.0
C775 C 0.26022 0.09998 0.5164 0.0
C776 C 0.26497 0.07904 0.5745 0.0
C777 C 0.24768 0.03511 0.53108 0.0
C778 C 0.2378 0.09006 0.58911 0.0
C779 C 0.24454 0.08933 0.62743 0.0
C780 C 0.27867 0.07767 0.65151 0.0
C781 C 0.30591 0.06697 0.63649 0.0
C782 C 0.2992 0.06773 0.59853 0.0
H783 H 0.23185 0.02211 0.50962 0.0
H784 H 0.27833 0.02822 0.54683 0.0
H785 H 0.23057 0.03712 0.55067 0.0
H786 H 0.21127 0.09898 0.57085 0.0
H787 H 0.22324 0.09793 0.63814 0.0
H788 H 0.79478 0.97271 0.6514 0.0
H789 H 0.7869 0.97527 0.58559 0.0
H790 H 0.73374 0.907 0.56731 0.0
H791 H 0.7412 0.90423 0.63314 0.0
H792 H 0.82283 0.94382 0.54838 0.0
H793 H 0.65449 0.94747 0.48444 0.0
H794 H 0.68081 0.95377 0.53296 0.0
H795 H 0.67369 0.92427 0.51708 0.0
C796 C 0.78089 0.95833 0.63335 0.0
C797 C 0.76852 0.93827 0.64748 0.0
C798 C 0.77652 0.95984 0.59581 0.0
C799 C 0.75947 0.94142 0.57175 0.0
C800 C 0.7464 0.92153 0.58549 0.0
H801 H 0.77803 0.90702 0.35895 0.0
H802 H 0.78485 0.90915 0.42466 0.0
C803 C 0.75082 0.91996 0.62309 0.0
C804 C 0.75757 0.94248 0.53271 0.0
H805 H 0.6919 0.94203 0.44343 0.0
C806 C 0.79424 0.94355 0.52537 0.0
C807 C 0.72017 0.94233 0.503 0.0
C808 C 0.67998 0.9421 0.5096 0.0
C809 C 0.79452 0.94401 0.48883 0.0
C810 C 0.75717 0.94314 0.45912 0.0
C811 C 0.72046 0.94255 0.46645 0.0
C812 C 0.75542 0.94256 0.42009 0.0
C813 C 0.83465 0.94557 0.48224 0.0
C814 C 0.73648 0.96063 0.39599 0.0
C815 C 0.73249 0.9595 0.35849 0.0
C816 C 0.74712 0.94015 0.34447 0.0
C817 C 0.76664 0.92221 0.36891 0.0
C818 C 0.77069 0.92342 0.40645 0.0
H819 H 0.85946 0.95158 0.50743 0.0
H820 H 0.84299 0.92817 0.47473 0.0
H821 H 0.83245 0.95755 0.45891 0.0
H822 H 0.72438 0.97549 0.40615 0.0
H823 H 0.71712 0.97355 0.34038 0.0
H824 H 0.78059 0.5988 0.84601 0.0
H825 H 0.79392 0.59901 0.91336 0.0
H826 H 0.71211 0.54127 0.90128 0.0
H827 H 0.69811 0.54123 0.83442 0.0
H828 H 0.69347 0.57843 0.93737 0.0
H829 H 0.85727 0.55547 -0.00165 0.0
H830 H 0.84566 0.579 0.96562 0.0
H831 H 0.82789 0.55034 0.95009 0.0
C832 C 0.76616 0.58588 0.85792 0.0
C833 C 0.7381 0.57013 0.83502 0.0
C834 C 0.77386 0.58597 0.89633 0.0
C835 C 0.75405 0.57009 0.91219 0.0
C836 C 0.72758 0.55369 0.8895 0.0
H837 H 0.78659 0.53868 0.14118 0.0
H838 H 0.78271 0.53812 0.07609 0.0
C839 C 0.71961 0.55373 0.85131 0.0
C840 C 0.75759 0.57167 0.95172 0.0
H841 H 0.82381 0.56646 0.04044 0.0
C842 C 0.72197 0.57582 0.95993 0.0
C843 C 0.79477 0.5681 0.98093 0.0
C844 C 0.83358 0.56278 0.97348 0.0
C845 C 0.72238 0.57633 -0.00334 0.0
C846 C 0.75964 0.57311 0.02593 0.0
C847 C 0.79536 0.56903 0.0178 0.0
C848 C 0.76191 0.57357 0.06519 0.0
C849 C 0.68277 0.57972 0.00374 0.0
C850 C 0.75153 0.59372 0.08044 0.0
C851 C 0.75331 0.59405 0.11744 0.0
C852 C 0.76589 0.57428 0.13993 0.0
C853 C 0.77648 0.55414 0.12455 0.0
C854 C 0.77452 0.55382 0.08746 0.0
H855 H 0.65609 0.57601 0.97856 0.0
H856 H 0.68121 0.56839 0.02669 0.0
H857 H 0.68051 0.59799 0.01188 0.0
H858 H 0.74239 0.60925 0.06379 0.0
H859 H 0.74546 0.60994 0.12854 0.0
H860 H 0.28662 0.41055 0.84304 0.0
H861 H 0.30211 0.4074 0.91064 0.0
H862 H 0.22233 0.46504 0.90721 0.0
H863 H 0.20654 0.46823 0.84027 0.0
H864 H 0.32975 0.44227 0.97275 0.0
H865 H 0.1743 0.40762 0.94592 0.0
H866 H 0.19812 0.40838 0.91071 0.0
H867 H 0.1758 0.43418 0.92192 0.0
C868 C 0.27311 0.42282 0.85691 0.0
C869 C 0.24496 0.43941 0.83639 0.0
C870 C 0.28189 0.42097 0.89538 0.0
C871 C 0.2627 0.43574 0.91352 0.0
C872 C 0.23686 0.45328 0.89346 0.0
H873 H 0.28954 0.46868 0.13905 0.0
H874 H 0.28993 0.46745 0.07526 0.0
C875 C 0.22792 0.45505 0.85524 0.0
C876 C 0.26684 0.43206 0.95278 0.0
H877 H 0.21044 0.41985 0.00783 0.0
C878 C 0.30393 0.4371 0.98059 0.0
C879 C 0.23316 0.42497 0.96267 0.0
C880 C 0.19317 0.41825 0.93377 0.0
C881 C 0.30768 0.4362 0.01832 0.0
C882 C 0.2732 0.4305 0.0281 0.0
C883 C 0.23668 0.42448 0.00023 0.0
C884 C 0.27382 0.43115 0.06695 0.0
C885 C 0.34841 0.44138 0.0473 0.0
C886 C 0.26316 0.41138 0.08288 0.0
C887 C 0.26221 0.41212 0.11905 0.0
C888 C 0.27184 0.43269 0.13996 0.0
C889 C 0.28201 0.45256 0.12373 0.0
C890 C 0.28274 0.45182 0.08744 0.0
H891 H 0.37368 0.43847 0.03631 0.0
H892 H 0.34924 0.45985 0.05564 0.0
H893 H 0.35367 0.4305 0.07245 0.0
H894 H 0.2558 0.39532 0.06735 0.0
H895 H 0.25448 0.39646 0.13078 0.0
H896 H 0.15453 0.17188 0.20214 0.0
H897 H 0.17617 0.21233 0.20576 0.0
H898 H 0.28297 0.19607 0.29938 0.0
H899 H 0.26179 0.15554 0.29605 0.0
H900 H 0.19813 0.24608 0.26551 0.0
H901 H 0.32743 0.22205 0.21872 0.0
H902 H 0.28546 0.2027 0.21419 0.0
H903 H 0.32415 0.20685 0.25868 0.0
C904 C 0.18219 0.17694 0.22403 0.0
C905 C 0.20665 0.16033 0.2485 0.0
C906 C 0.19459 0.20007 0.22594 0.0
C907 C 0.23166 0.20701 0.25222 0.0
C908 C 0.25469 0.19091 0.27837 0.0
H909 H 0.35611 0.34083 0.28262 0.0
H910 H 0.34193 0.29925 0.28443 0.0
C911 C 0.2423 0.16778 0.27659 0.0
C912 C 0.24694 0.23083 0.25102 0.0
H913 H 0.3206 0.26163 0.23112 0.0
C914 C 0.22495 0.2495 0.2581 0.0
C915 C 0.28203 0.23518 0.24143 0.0
C916 C 0.3061 0.2157 0.23252 0.0
C917 C 0.23708 0.27246 0.25582 0.0
C918 C 0.27158 0.27684 0.24531 0.0
C919 C 0.29409 0.25818 0.23897 0.0
C920 C 0.28381 0.30081 0.24001 0.0
C921 C 0.21298 0.29184 0.26496 0.0
C922 C 0.25704 0.31505 0.21295 0.0
C923 C 0.26505 0.33866 0.21184 0.0
C924 C 0.30021 0.34842 0.23751 0.0
C925 C 0.32892 0.33375 0.26232 0.0
C926 C 0.3207 0.31005 0.26359 0.0
H927 H 0.19463 0.28561 0.28181 0.0
H928 H 0.23333 0.30594 0.28043 0.0
H929 H 0.19178 0.29921 0.23874 0.0
H930 H 0.22887 0.30812 0.19392 0.0
H931 H 0.24252 0.34954 0.19229 0.0
H932 H 0.36308 0.17387 0.79874 0.0
H933 H 0.34311 0.21468 0.79541 0.0
H934 H 0.24064 0.20068 0.6967 0.0
H935 H 0.26011 0.15985 0.69977 0.0
H936 H 0.32738 0.24952 0.73817 0.0
H937 H 0.18942 0.22678 0.77201 0.0
H938 H 0.23096 0.20676 0.7784 0.0
H939 H 0.19483 0.21172 0.73277 0.0
C940 C 0.33674 0.1795 0.77586 0.0
C941 C 0.31297 0.16343 0.74977 0.0
C942 C 0.3253 0.20285 0.7741 0.0
C943 C 0.28984 0.21057 0.74636 0.0
C944 C 0.26762 0.19496 0.71883 0.0
H945 H 0.15527 0.33937 0.69613 0.0
H946 H 0.17792 0.29906 0.70109 0.0
C947 C 0.27904 0.17163 0.72049 0.0
C948 C 0.27507 0.23465 0.74716 0.0
H949 H 0.19633 0.26601 0.75712 0.0
C950 C 0.29883 0.25317 0.74246 0.0
C951 C 0.23784 0.23934 0.75287 0.0
C952 C 0.21185 0.22015 0.75963 0.0
C953 C 0.28586 0.27626 0.74236 0.0
C954 C 0.24855 0.28096 0.74799 0.0
C955 C 0.22492 0.26241 0.7529 0.0
C956 C 0.233 0.30498 0.74774 0.0
C957 C 0.31169 0.29537 0.73514 0.0
C958 C 0.25546 0.32154 0.77341 0.0
C959 C 0.24259 0.34465 0.77071 0.0
C960 C 0.20679 0.35166 0.74237 0.0
C961 C 0.18301 0.33468 0.71826 0.0
C962 C 0.19599 0.31159 0.72094 0.0
H963 H 0.33361 0.28866 0.72222 0.0
H964 H 0.29249 0.30884 0.71665 0.0
H965 H 0.32937 0.30369 0.7619 0.0
H966 H 0.28355 0.31671 0.79497 0.0
H967 H 0.26155 0.35718 0.78996 0.0
H968 H 0.65395 0.67331 0.70122 0.0
H969 H 0.67745 0.71334 0.70417 0.0
H970 H 0.79039 0.69443 0.78871 0.0
H971 H 0.767 0.65435 0.78645 0.0
H972 H 0.76072 0.73748 0.8014 0.0
H973 H 0.76253 0.73132 0.65716 0.0
H974 H 0.71405 0.72461 0.6612 0.0
H975 H 0.75708 0.70625 0.68329 0.0
C976 C 0.68348 0.67768 0.721 0.0
C977 C 0.70873 0.66045 0.74327 0.0
C978 C 0.69704 0.70057 0.72236 0.0
C979 C 0.73617 0.70672 0.74582 0.0
C980 C 0.76029 0.69 0.77003 0.0
H981 H 0.86531 0.8404 0.77775 0.0
H982 H 0.85271 0.7985 0.77674 0.0
C983 C 0.74673 0.66708 0.76879 0.0
C984 C 0.75241 0.73033 0.74404 0.0
H985 H 0.77236 0.76891 0.68455 0.0
C986 C 0.76367 0.74429 0.77599 0.0
C987 C 0.75661 0.73911 0.71091 0.0
C988 C 0.74733 0.72449 0.67627 0.0
C989 C 0.77732 0.76715 0.77526 0.0
C990 C 0.78041 0.77612 0.74183 0.0
C991 C 0.77007 0.76197 0.71015 0.0
C992 C 0.79091 0.80076 0.73846 0.0
C993 C 0.78678 0.78184 0.80983 0.0
C994 C 0.76122 0.81569 0.71567 0.0
C995 C 0.76839 0.8395 0.71604 0.0
C996 C 0.80554 0.84888 0.73899 0.0
C997 C 0.83648 0.83371 0.75961 0.0
C998 C 0.82914 0.8098 0.75942 0.0
H999 H 0.77603 0.7737 0.83117 0.0
H1000 H 0.82017 0.78429 0.82212 0.0
H1001 H 0.77255 0.79922 0.80295 0.0
H1002 H 0.73164 0.80907 0.69906 0.0
H1003 H 0.744 0.85074 0.69977 0.0
H1004 H 0.85512 0.66939 0.27501 0.0
H1005 H 0.84095 0.71099 0.27667 0.0
H1006 H 0.72236 0.70093 0.19442 0.0
H1007 H 0.7361 0.65951 0.19275 0.0
H1008 H 0.81279 0.74748 0.22013 0.0
H1009 H 0.70021 0.72545 0.28846 0.0
H1010 H 0.73785 0.70507 0.28465 0.0
H1011 H 0.69307 0.71074 0.24526 0.0
C1012 C 0.82659 0.67618 0.2564 0.0
C1013 C 0.79655 0.66118 0.23399 0.0
C1014 C 0.8184 0.6999 0.25761 0.0
C1015 C 0.78018 0.70884 0.23641 0.0
C1016 C 0.75167 0.69425 0.21161 0.0
H1017 H 0.65714 0.84127 0.21505 0.0
H1018 H 0.6734 0.79987 0.21535 0.0
C1019 C 0.75972 0.67063 0.21048 0.0
C1020 C 0.76882 0.73298 0.2419 0.0
H1021 H 0.70299 0.76477 0.27154 0.0
C1022 C 0.78899 0.75131 0.23155 0.0
C1023 C 0.73769 0.73784 0.25682 0.0
C1024 C 0.71611 0.71878 0.26977 0.0
C1025 C 0.77816 0.77444 0.2349 0.0
C1026 C 0.74691 0.77932 0.24972 0.0
C1027 C 0.72688 0.76097 0.26022 0.0
C1028 C 0.73467 0.80343 0.25423 0.0
C1029 C 0.79957 0.79346 0.22167 0.0
C1030 C 0.76284 0.81881 0.2777 0.0
C1031 C 0.75362 0.84234 0.27766 0.0
C1032 C 0.71591 0.85092 0.25438 0.0
C1033 C 0.68633 0.83517 0.23344 0.0
C1034 C 0.69571 0.81155 0.23335 0.0
H1035 H 0.81536 0.78673 0.20294 0.0
H1036 H 0.77776 0.80713 0.20673 0.0
H1037 H 0.8227 0.80158 0.24604 0.0
H1038 H 0.79269 0.81278 0.29473 0.0
H1039 H 0.77691 0.85406 0.29429 0.0
loop_
_geom_bond_atom_site_label_1
_geom_bond_atom_site_label_2
_geom_bond_distance
_geom_bond_site_symmetry_2
_ccdc_geom_bond_type
Fe0 O2 1.918 . S
Fe0 O5 1.997 . S
Fe0 O6 2.002 . S
Fe0 O11 1.976 . S
Fe0 O14 1.996 . S
Fe1 O2 1.918 . S
Fe1 O9 1.997 . S
Fe1 O12 1.996 . S
Fe1 O16 1.976 . S
Fe1 O19 2.002 . S
O2 Fe0 1.918 . S
O2 Fe1 1.918 . S
O2 Fe3 1.918 . S
Fe3 O2 1.918 . S
Fe3 O4 2.002 . S
Fe3 O13 1.976 . S
Fe3 O17 1.996 . S
Fe3 O20 1.997 . S
O4 Fe3 2.002 . S
O4 C21 1.295 . S
O5 Fe0 1.997 . S
O5 C21 1.235 . S
O6 Fe0 2.002 . S
O6 C7 1.295 . S
C7 O6 1.295 . S
C7 O9 1.235 . S
C8 O13 1.287 . S
C8 O14 1.255 . S
O9 Fe1 1.997 . S
O9 C7 1.235 . S
C10 O16 1.287 . S
C10 O17 1.255 . S
O11 Fe0 1.976 . S
O11 C18 1.287 . S
O12 Fe1 1.996 . S
O12 C18 1.255 . S
O13 Fe3 1.976 . S
O13 C8 1.287 . S
O14 Fe0 1.996 . S
O14 C8 1.255 . S
C15 O19 1.295 . S
C15 O20 1.235 . S
O16 Fe1 1.976 . S
O16 C10 1.287 . S
O17 Fe3 1.996 . S
O17 C10 1.255 . S
C18 O11 1.287 . S
C18 O12 1.255 . S
O19 Fe1 2.002 . S
O19 C15 1.295 . S
O20 Fe3 1.997 . S
O20 C15 1.235 . S
C21 O4 1.295 . S
C21 O5 1.235 . S
Fe22 O24 1.918 . S
Fe22 O27 1.997 . S
Fe22 O28 2.002 . S
Fe22 O33 1.976 . S
Fe22 O36 1.996 . S
Fe23 O24 1.918 . S
Fe23 O31 1.997 . S
Fe23 O34 1.996 . S
Fe23 O38 1.976 . S
Fe23 O41 2.002 . S
O24 Fe22 1.918 . S
O24 Fe23 1.918 . S
O24 Fe25 1.918 . S
Fe25 O24 1.918 . S
Fe25 O26 2.002 . S
Fe25 O35 1.976 . S
Fe25 O39 1.996 . S
Fe25 O42 1.997 . S
O26 Fe25 2.002 . S
O26 C43 1.295 . S
O27 Fe22 1.997 . S
O27 C43 1.235 . S
O28 Fe22 2.002 . S
O28 C29 1.295 . S
C29 O28 1.295 . S
C29 O31 1.235 . S
C30 O35 1.287 . S
C30 O36 1.255 . S
O31 Fe23 1.997 . S
O31 C29 1.235 . S
C32 O38 1.287 . S
C32 O39 1.255 . S
O33 Fe22 1.976 . S
O33 C40 1.287 . S
O34 Fe23 1.996 . S
O34 C40 1.255 . S
O35 Fe25 1.976 . S
O35 C30 1.287 . S
O36 Fe22 1.996 . S
O36 C30 1.255 . S
C37 O41 1.295 . S
C37 O42 1.235 . S
O38 Fe23 1.976 . S
O38 C32 1.287 . S
O39 Fe25 1.996 . S
O39 C32 1.255 . S
C40 O33 1.287 . S
C40 O34 1.255 . S
O41 Fe23 2.002 . S
O41 C37 1.295 . S
O42 Fe25 1.997 . S
O42 C37 1.235 . S
C43 O26 1.295 . S
C43 O27 1.235 . S
Fe44 O46 1.918 . S
Fe44 O49 1.997 . S
Fe44 O50 2.002 . S
Fe44 O55 1.976 . S
Fe44 O58 1.996 . S
Fe45 O46 1.918 . S
Fe45 O53 1.997 . S
Fe45 O56 1.996 . S
Fe45 O60 1.976 . S
Fe45 O63 2.002 . S
O46 Fe44 1.918 . S
O46 Fe45 1.918 . S
O46 Fe47 1.918 . S
Fe47 O46 1.918 . S
Fe47 O48 2.002 . S
Fe47 O57 1.976 . S
Fe47 O61 1.996 . S
Fe47 O64 1.997 . S
O48 Fe47 2.002 . S
O48 C65 1.295 . S
O49 Fe44 1.997 . S
O49 C65 1.235 . S
O50 Fe44 2.002 . S
O50 C51 1.295 . S
C51 O50 1.295 . S
C51 O53 1.235 . S
C52 O57 1.287 . S
C52 O58 1.255 . S
O53 Fe45 1.997 . S
O53 C51 1.235 . S
C54 O60 1.287 . S
C54 O61 1.255 . S
O55 Fe44 1.976 . S
O55 C62 1.287 . S
O56 Fe45 1.996 . S
O56 C62 1.255 . S
O57 Fe47 1.976 . S
O57 C52 1.287 . S
O58 Fe44 1.996 . S
O58 C52 1.255 . S
C59 O63 1.295 . S
C59 O64 1.235 . S
O60 Fe45 1.976 . S
O60 C54 1.287 . S
O61 Fe47 1.996 . S
O61 C54 1.255 . S
C62 O55 1.287 . S
C62 O56 1.255 . S
O63 Fe45 2.002 . S
O63 C59 1.295 . S
O64 Fe47 1.997 . S
O64 C59 1.235 . S
C65 O48 1.295 . S
C65 O49 1.235 . S
Fe66 O68 1.918 . S
Fe66 O71 1.997 . S
Fe66 O72 2.002 . S
Fe66 O77 1.976 . S
Fe66 O80 1.996 . S
Fe67 O68 1.918 . S
Fe67 O75 1.997 . S
Fe67 O78 1.996 . S
Fe67 O82 1.976 . S
Fe67 O85 2.002 . S
O68 Fe66 1.918 . S
O68 Fe67 1.918 . S
O68 Fe69 1.918 . S
Fe69 O68 1.918 . S
Fe69 O70 2.002 . S
Fe69 O79 1.976 . S
Fe69 O83 1.996 . S
Fe69 O86 1.997 . S
O70 Fe69 2.002 . S
O70 C87 1.295 . S
O71 Fe66 1.997 . S
O71 C87 1.235 . S
O72 Fe66 2.002 . S
O72 C73 1.295 . S
C73 O72 1.295 . S
C73 O75 1.235 . S
C74 O79 1.287 . S
C74 O80 1.255 . S
O75 Fe67 1.997 . S
O75 C73 1.235 . S
C76 O82 1.287 . S
C76 O83 1.255 . S
O77 Fe66 1.976 . S
O77 C84 1.287 . S
O78 Fe67 1.996 . S
O78 C84 1.255 . S
O79 Fe69 1.976 . S
O79 C74 1.287 . S
O80 Fe66 1.996 . S
O80 C74 1.255 . S
C81 O85 1.295 . S
C81 O86 1.235 . S
O82 Fe67 1.976 . S
O82 C76 1.287 . S
O83 Fe69 1.996 . S
O83 C76 1.255 . S
C84 O77 1.287 . S
C84 O78 1.255 . S
O85 Fe67 2.002 . S
O85 C81 1.295 . S
O86 Fe69 1.997 . S
O86 C81 1.235 . S
C87 O70 1.295 . S
C87 O71 1.235 . S
Fe88 O90 1.918 . S
Fe88 O93 1.997 . S
Fe88 O94 2.002 . S
Fe88 O99 1.976 . S
Fe88 O102 1.996 . S
Fe89 O90 1.918 . S
Fe89 O97 1.997 . S
Fe89 O100 1.996 . S
Fe89 O104 1.976 . S
Fe89 O107 2.002 . S
O90 Fe88 1.918 . S
O90 Fe89 1.918 . S
O90 Fe91 1.918 . S
Fe91 O90 1.918 . S
Fe91 O92 2.002 . S
Fe91 O101 1.976 . S
Fe91 O105 1.996 . S
Fe91 O108 1.997 . S
O92 Fe91 2.002 . S
O92 C109 1.295 . S
O93 Fe88 1.997 . S
O93 C109 1.235 . S
O94 Fe88 2.002 . S
O94 C95 1.295 . S
C95 O94 1.295 . S
C95 O97 1.235 . S
C96 O101 1.287 . S
C96 O102 1.255 . S
O97 Fe89 1.997 . S
O97 C95 1.235 . S
C98 O104 1.287 . S
C98 O105 1.255 . S
O99 Fe88 1.976 . S
O99 C106 1.287 . S
O100 Fe89 1.996 . S
O100 C106 1.255 . S
O101 Fe91 1.976 . S
O101 C96 1.287 . S
O102 Fe88 1.996 . S
O102 C96 1.255 . S
C103 O107 1.295 . S
C103 O108 1.235 . S
O104 Fe89 1.976 . S
O104 C98 1.287 . S
O105 Fe91 1.996 . S
O105 C98 1.255 . S
C106 O99 1.287 . S
C106 O100 1.255 . S
O107 Fe89 2.002 . S
O107 C103 1.295 . S
O108 Fe91 1.997 . S
O108 C103 1.235 . S
C109 O92 1.295 . S
C109 O93 1.235 . S
Fe110 O112 1.918 . S
Fe110 O115 1.997 . S
Fe110 O116 2.002 . S
Fe110 O121 1.976 . S
Fe110 O124 1.996 . S
Fe111 O112 1.918 . S
Fe111 O119 1.997 . S
Fe111 O122 1.996 . S
Fe111 O126 1.976 . S
Fe111 O129 2.002 . S
O112 Fe110 1.918 . S
O112 Fe111 1.918 . S
O112 Fe113 1.918 . S
Fe113 O112 1.918 . S
Fe113 O114 2.002 . S
Fe113 O123 1.976 . S
Fe113 O127 1.996 . S
Fe113 O130 1.997 . S
O114 Fe113 2.002 . S
O114 C131 1.295 . S
O115 Fe110 1.997 . S
O115 C131 1.235 . S
O116 Fe110 2.002 . S
O116 C117 1.295 . S
C117 O116 1.295 . S
C117 O119 1.235 . S
C118 O123 1.287 . S
C118 O124 1.255 . S
O119 Fe111 1.997 . S
O119 C117 1.235 . S
C120 O126 1.287 . S
C120 O127 1.255 . S
O121 Fe110 1.976 . S
O121 C128 1.287 . S
O122 Fe111 1.996 . S
O122 C128 1.255 . S
O123 Fe113 1.976 . S
O123 C118 1.287 . S
O124 Fe110 1.996 . S
O124 C118 1.255 . S
C125 O129 1.295 . S
C125 O130 1.235 . S
O126 Fe111 1.976 . S
O126 C120 1.287 . S
O127 Fe113 1.996 . S
O127 C120 1.255 . S
C128 O121 1.287 . S
C128 O122 1.255 . S
O129 Fe111 2.002 . S
O129 C125 1.295 . S
O130 Fe113 1.997 . S
O130 C125 1.235 . S
C131 O114 1.295 . S
C131 O115 1.235 . S
Fe132 O134 1.918 . S
Fe132 O137 1.997 . S
Fe132 O138 2.002 . S
Fe132 O143 1.976 . S
Fe132 O146 1.996 . S
Fe133 O134 1.918 . S
Fe133 O141 1.997 . S
Fe133 O144 1.996 . S
Fe133 O148 1.976 . S
Fe133 O151 2.002 . S
O134 Fe132 1.918 . S
O134 Fe133 1.918 . S
O134 Fe135 1.918 . S
Fe135 O134 1.918 . S
Fe135 O136 2.002 . S
Fe135 O145 1.976 . S
Fe135 O149 1.996 . S
Fe135 O152 1.997 . S
O136 Fe135 2.002 . S
O136 C153 1.295 . S
O137 Fe132 1.997 . S
O137 C153 1.235 . S
O138 Fe132 2.002 . S
O138 C139 1.295 . S
C139 O138 1.295 . S
C139 O141 1.235 . S
C140 O145 1.287 . S
C140 O146 1.255 . S
O141 Fe133 1.997 . S
O141 C139 1.235 . S
C142 O148 1.287 . S
C142 O149 1.255 . S
O143 Fe132 1.976 . S
O143 C150 1.287 . S
O144 Fe133 1.996 . S
O144 C150 1.255 . S
O145 Fe135 1.976 . S
O145 C140 1.287 . S
O146 Fe132 1.996 . S
O146 C140 1.255 . S
C147 O151 1.295 . S
C147 O152 1.235 . S
O148 Fe133 1.976 . S
O148 C142 1.287 . S
O149 Fe135 1.996 . S
O149 C142 1.255 . S
C150 O143 1.287 . S
C150 O144 1.255 . S
O151 Fe133 2.002 . S
O151 C147 1.295 . S
O152 Fe135 1.997 . S
O152 C147 1.235 . S
C153 O136 1.295 . S
C153 O137 1.235 . S
Fe154 O156 1.918 . S
Fe154 O159 1.997 . S
Fe154 O160 2.002 . S
Fe154 O165 1.976 . S
Fe154 O168 1.996 . S
Fe155 O156 1.918 . S
Fe155 O163 1.997 . S
Fe155 O166 1.996 . S
Fe155 O170 1.976 . S
Fe155 O173 2.002 . S
O156 Fe154 1.918 . S
O156 Fe155 1.918 . S
O156 Fe157 1.918 . S
Fe157 O156 1.918 . S
Fe157 O158 2.002 . S
Fe157 O167 1.976 . S
Fe157 O171 1.996 . S
Fe157 O174 1.997 . S
O158 Fe157 2.002 . S
O158 C175 1.295 . S
O159 Fe154 1.997 . S
O159 C175 1.235 . S
O160 Fe154 2.002 . S
O160 C161 1.295 . S
C161 O160 1.295 . S
C161 O163 1.235 . S
C162 O167 1.287 . S
C162 O168 1.255 . S
O163 Fe155 1.997 . S
O163 C161 1.235 . S
C164 O170 1.287 . S
C164 O171 1.255 . S
O165 Fe154 1.976 . S
O165 C172 1.287 . S
O166 Fe155 1.996 . S
O166 C172 1.255 . S
O167 Fe157 1.976 . S
O167 C162 1.287 . S
O168 Fe154 1.996 . S
O168 C162 1.255 . S
C169 O173 1.295 . S
C169 O174 1.235 . S
O170 Fe155 1.976 . S
O170 C164 1.287 . S
O171 Fe157 1.996 . S
O171 C164 1.255 . S
C172 O165 1.287 . S
C172 O166 1.255 . S
O173 Fe155 2.002 . S
O173 C169 1.295 . S
O174 Fe157 1.997 . S
O174 C169 1.235 . S
C175 O158 1.295 . S
C175 O159 1.235 . S
H176 C184 0.929 . S
H177 C186 0.930 . S
H178 C188 0.930 . S
H179 C191 0.929 . S
H180 C194 0.930 . S
H181 C196 0.960 . S
H182 C196 0.960 . S
H183 C196 0.960 1_565 S
C184 H176 0.929 . S
C184 C185 1.377 . S
C184 C186 1.384 . S
C185 C184 1.377 . S
C185 C191 1.390 . S
C186 H177 0.930 . S
C186 C184 1.384 . S
C186 C187 1.372 . S
C187 C186 1.372 . S
C187 C188 1.400 . S
C187 C192 1.490 . S
C188 H178 0.930 . S
C188 C187 1.400 . S
C188 C191 1.386 . S
H189 C205 0.930 . S
H190 C206 0.931 . S
C191 H179 0.929 . S
C191 C185 1.390 . S
C191 C188 1.386 . S
C192 C187 1.490 . S
C192 C194 1.395 . S
C192 C195 1.403 . S
H193 C199 0.930 . S
C194 H180 0.930 . S
C194 C192 1.395 . S
C194 C197 1.403 . S
C195 C192 1.403 . S
C195 C196 1.524 1_565 S
C195 C199 1.400 1_565 S
C196 H181 0.960 . S
C196 H182 0.960 . S
C196 H183 0.960 1_545 S
C196 C195 1.524 1_545 S
C197 C194 1.403 . S
C197 C198 1.392 . S
C197 C201 1.495 . S
C198 C197 1.392 . S
C198 C199 1.385 1_565 S
C198 C200 1.478 1_565 S
C199 H193 0.930 . S
C199 C195 1.400 1_545 S
C199 C198 1.385 1_545 S
C200 C198 1.478 1_545 S
C200 C202 1.381 . S
C200 C206 1.383 . S
C201 C197 1.495 . S
C201 H207 0.959 . S
C201 H208 0.961 . S
C201 H209 0.960 . S
C202 C200 1.381 . S
C202 C203 1.394 . S
C202 H210 0.930 . S
C203 C202 1.394 . S
C203 C204 1.383 . S
C203 H211 0.929 . S
C204 C203 1.383 . S
C204 C205 1.377 . S
C205 H189 0.930 . S
C205 C204 1.377 . S
C205 C206 1.379 . S
C206 H190 0.931 . S
C206 C200 1.383 . S
C206 C205 1.379 . S
H207 C201 0.959 . S
H208 C201 0.961 . S
H209 C201 0.960 . S
H210 C202 0.930 . S
H211 C203 0.929 . S
H212 C220 0.929 . S
H213 C222 0.930 . S
H214 C224 0.930 1_455 S
H215 C227 0.929 . S
H216 C230 0.930 . S
H217 C232 0.960 . S
H218 C232 0.960 . S
H219 C232 0.960 . S
C220 H212 0.929 . S
C220 C221 1.377 . S
C220 C222 1.384 . S
C221 C220 1.377 . S
C221 C227 1.390 . S
C222 H213 0.930 . S
C222 C220 1.384 . S
C222 C223 1.372 1_655 S
C223 C222 1.372 1_455 S
C223 C224 1.400 1_455 S
C223 C228 1.490 . S
C224 H214 0.930 1_655 S
C224 C223 1.400 1_655 S
C224 C227 1.386 . S
H225 C241 0.930 . S
H226 C242 0.931 . S
C227 H215 0.929 . S
C227 C221 1.390 . S
C227 C224 1.386 . S
C228 C223 1.490 . S
C228 C230 1.395 . S
C228 C231 1.403 . S
H229 C235 0.930 . S
C230 H216 0.930 . S
C230 C228 1.395 . S
C230 C233 1.403 . S
C231 C228 1.403 . S
C231 C232 1.524 . S
C231 C235 1.400 . S
C232 H217 0.960 . S
C232 H218 0.960 . S
C232 H219 0.960 . S
C232 C231 1.524 . S
C233 C230 1.403 . S
C233 C234 1.392 . S
C233 C237 1.495 1_565 S
C234 C233 1.392 . S
C234 C235 1.385 . S
C234 C236 1.478 1_565 S
C235 H229 0.930 . S
C235 C231 1.400 . S
C235 C234 1.385 . S
C236 C234 1.478 1_545 S
C236 C238 1.381 . S
C236 C242 1.383 . S
C237 C233 1.495 1_545 S
C237 H243 0.959 . S
C237 H244 0.961 . S
C237 H245 0.960 . S
C238 C236 1.381 . S
C238 C239 1.394 . S
C238 H246 0.930 1_545 S
C239 C238 1.394 . S
C239 C240 1.383 . S
C239 H247 0.929 . S
C240 C239 1.383 . S
C240 C241 1.377 . S
C241 H225 0.930 . S
C241 C240 1.377 . S
C241 C242 1.379 . S
C242 H226 0.931 . S
C242 C236 1.383 . S
C242 C241 1.379 . S
H243 C237 0.959 . S
H244 C237 0.961 . S
H245 C237 0.960 . S
H246 C238 0.930 1_565 S
H247 C239 0.929 . S
H248 C256 0.929 . S
H249 C258 0.930 . S
H250 C260 0.930 . S
H251 C263 0.929 . S
H252 C266 0.930 . S
H253 C268 0.960 . S
H254 C268 0.960 . S
H255 C268 0.960 . S
C256 H248 0.929 . S
C256 C257 1.377 . S
C256 C258 1.384 1_565 S
C257 C256 1.377 . S
C257 C263 1.390 . S
C258 H249 0.930 . S
C258 C256 1.384 1_545 S
C258 C259 1.372 1_545 S
C259 C258 1.372 1_565 S
C259 C260 1.400 . S
C259 C264 1.490 1_565 S
C260 H250 0.930 . S
C260 C259 1.400 . S
C260 C263 1.386 . S
H261 C277 0.930 . S
H262 C278 0.931 . S
C263 H251 0.929 . S
C263 C257 1.390 . S
C263 C260 1.386 . S
C264 C259 1.490 1_545 S
C264 C266 1.395 . S
C264 C267 1.403 1_545 S
H265 C271 0.930 . S
C266 H252 0.930 . S
C266 C264 1.395 . S
C266 C269 1.403 . S
C267 C264 1.403 1_565 S
C267 C268 1.524 . S
C267 C271 1.400 1_565 S
C268 H253 0.960 . S
C268 H254 0.960 . S
C268 H255 0.960 . S
C268 C267 1.524 . S
C269 C266 1.403 . S
C269 C270 1.392 . S
C269 C273 1.495 . S
C270 C269 1.392 . S
C270 C271 1.385 . S
C270 C272 1.478 . S
C271 H265 0.930 . S
C271 C267 1.400 1_545 S
C271 C270 1.385 . S
C272 C270 1.478 . S
C272 C274 1.381 . S
C272 C278 1.383 . S
C273 C269 1.495 . S
C273 H279 0.959 . S
C273 H280 0.961 . S
C273 H281 0.960 . S
C274 C272 1.381 . S
C274 C275 1.394 . S
C274 H282 0.930 . S
C275 C274 1.394 . S
C275 C276 1.383 . S
C275 H283 0.929 . S
C276 C275 1.383 . S
C276 C277 1.377 . S
C277 H261 0.930 . S
C277 C276 1.377 . S
C277 C278 1.379 . S
C278 H262 0.931 . S
C278 C272 1.383 . S
C278 C277 1.379 . S
H279 C273 0.959 . S
H280 C273 0.961 . S
H281 C273 0.960 . S
H282 C274 0.930 . S
H283 C275 0.929 . S
H284 C292 0.930 1_545 S
H285 C294 0.930 . S
H286 C296 0.930 . S
H287 C299 0.929 . S
H288 C302 0.930 . S
H289 C304 0.960 . S
H290 C304 0.960 . S
H291 C304 0.960 . S
C292 H284 0.930 1_565 S
C292 C293 1.377 . S
C292 C294 1.384 1_565 S
C293 C292 1.377 . S
C293 C299 1.390 . S
C294 H285 0.930 . S
C294 C292 1.384 1_545 S
C294 C295 1.372 1_545 S
C295 C294 1.372 1_565 S
C295 C296 1.400 . S
C295 C300 1.490 1_565 S
C296 H286 0.930 . S
C296 C295 1.400 . S
C296 C299 1.386 . S
H297 C313 0.930 . S
H298 C314 0.931 . S
C299 H287 0.929 . S
C299 C293 1.390 . S
C299 C296 1.386 . S
C300 C295 1.490 1_545 S
C300 C302 1.395 . S
C300 C303 1.403 . S
H301 C307 0.930 . S
C302 H288 0.930 . S
C302 C300 1.395 . S
C302 C305 1.403 . S
C303 C300 1.403 . S
C303 C304 1.524 1_545 S
C303 C307 1.400 . S
C304 H289 0.960 . S
C304 H290 0.960 . S
C304 H291 0.960 . S
C304 C303 1.524 1_565 S
C305 C302 1.403 . S
C305 C306 1.392 . S
C305 C309 1.495 . S
C306 C305 1.392 . S
C306 C307 1.385 . S
C306 C308 1.478 . S
C307 H301 0.930 . S
C307 C303 1.400 . S
C307 C306 1.385 . S
C308 C306 1.478 . S
C308 C310 1.381 . S
C308 C314 1.383 1_655 S
C309 C305 1.495 . S
C309 H315 0.959 . S
C309 H316 0.961 . S
C309 H317 0.960 . S
C310 C308 1.381 . S
C310 C311 1.394 1_655 S
C310 H318 0.930 . S
C311 C310 1.394 1_455 S
C311 C312 1.383 . S
C311 H319 0.929 . S
C312 C311 1.383 . S
C312 C313 1.377 . S
C313 H297 0.930 . S
C313 C312 1.377 . S
C313 C314 1.379 . S
C314 H298 0.931 . S
C314 C308 1.383 1_455 S
C314 C313 1.379 . S
H315 C309 0.959 . S
H316 C309 0.961 . S
H317 C309 0.960 . S
H318 C310 0.930 . S
H319 C311 0.929 . S
H320 C328 0.929 . S
H321 C330 0.930 . S
H322 C332 0.930 1_655 S
H323 C335 0.929 . S
H324 C338 0.930 . S
H325 C340 0.960 . S
H326 C340 0.960 . S
H327 C340 0.960 . S
C328 H320 0.929 . S
C328 C329 1.377 . S
C328 C330 1.384 . S
C329 C328 1.377 . S
C329 C335 1.390 . S
C330 H321 0.930 . S
C330 C328 1.384 . S
C330 C331 1.372 1_455 S
C331 C330 1.372 1_655 S
C331 C332 1.400 1_655 S
C331 C336 1.490 . S
C332 H322 0.930 1_455 S
C332 C331 1.400 1_455 S
C332 C335 1.386 . S
H333 C349 0.930 . S
H334 C350 0.931 . S
C335 H323 0.929 . S
C335 C329 1.390 . S
C335 C332 1.386 . S
C336 C331 1.490 . S
C336 C338 1.395 . S
C336 C339 1.403 . S
H337 C343 0.930 . S
C338 H324 0.930 . S
C338 C336 1.395 . S
C338 C341 1.403 . S
C339 C336 1.403 . S
C339 C340 1.524 . S
C339 C343 1.400 . S
C340 H325 0.960 . S
C340 H326 0.960 . S
C340 H327 0.960 . S
C340 C339 1.524 . S
C341 C338 1.403 . S
C341 C342 1.392 . S
C341 C345 1.495 . S
C342 C341 1.392 . S
C342 C343 1.385 . S
C342 C344 1.478 . S
C343 H337 0.930 . S
C343 C339 1.400 . S
C343 C342 1.385 . S
C344 C342 1.478 . S
C344 C346 1.381 . S
C344 C350 1.383 . S
C345 C341 1.495 . S
C345 H351 0.959 . S
C345 H352 0.961 . S
C345 H353 0.960 . S
C346 C344 1.381 . S
C346 C347 1.394 . S
C346 H354 0.930 . S
C347 C346 1.394 . S
C347 C348 1.383 . S
C347 H355 0.929 . S
C348 C347 1.383 . S
C348 C349 1.377 . S
C349 H333 0.930 . S
C349 C348 1.377 . S
C349 C350 1.379 . S
C350 H334 0.931 . S
C350 C344 1.383 . S
C350 C349 1.379 . S
H351 C345 0.959 . S
H352 C345 0.961 . S
H353 C345 0.960 . S
H354 C346 0.930 . S
H355 C347 0.929 . S
H356 C364 0.929 . S
H357 C366 0.930 . S
H358 C368 0.930 . S
H359 C371 0.929 . S
H360 C374 0.930 . S
H361 C376 0.960 . S
H362 C376 0.960 . S
H363 C376 0.960 . S
C364 H356 0.929 . S
C364 C365 1.377 . S
C364 C366 1.384 . S
C365 C364 1.377 . S
C365 C371 1.390 . S
C366 H357 0.930 . S
C366 C364 1.384 . S
C366 C367 1.372 . S
C367 C366 1.372 . S
C367 C368 1.400 . S
C367 C372 1.490 . S
C368 H358 0.930 . S
C368 C367 1.400 . S
C368 C371 1.386 . S
H369 C385 0.930 . S
H370 C386 0.931 . S
C371 H359 0.929 . S
C371 C365 1.390 . S
C371 C368 1.386 . S
C372 C367 1.490 . S
C372 C374 1.395 . S
C372 C375 1.403 . S
H373 C379 0.930 . S
C374 H360 0.930 . S
C374 C372 1.395 . S
C374 C377 1.403 . S
C375 C372 1.403 . S
C375 C376 1.524 . S
C375 C379 1.400 . S
C376 H361 0.960 . S
C376 H362 0.960 . S
C376 H363 0.960 . S
C376 C375 1.524 . S
C377 C374 1.403 . S
C377 C378 1.392 . S
C377 C381 1.495 . S
C378 C377 1.392 . S
C378 C379 1.385 . S
C378 C380 1.478 . S
C379 H373 0.930 . S
C379 C375 1.400 . S
C379 C378 1.385 . S
C380 C378 1.478 . S
C380 C382 1.381 . S
C380 C386 1.383 . S
C381 C377 1.495 . S
C381 H387 0.959 . S
C381 H388 0.961 . S
C381 H389 0.960 . S
C382 C380 1.381 . S
C382 C383 1.394 . S
C382 H390 0.930 . S
C383 C382 1.394 . S
C383 C384 1.383 . S
C383 H391 0.929 . S
C384 C383 1.383 . S
C384 C385 1.377 . S
C385 H369 0.930 . S
C385 C384 1.377 . S
C385 C386 1.379 . S
C386 H370 0.931 . S
C386 C380 1.383 . S
C386 C385 1.379 . S
H387 C381 0.959 . S
H388 C381 0.961 . S
H389 C381 0.960 . S
H390 C382 0.930 . S
H391 C383 0.929 . S
H392 C400 0.929 . S
H393 C402 0.930 . S
H394 C404 0.930 . S
H395 C407 0.929 . S
H396 C410 0.930 . S
H397 C412 0.960 . S
H398 C412 0.960 . S
H399 C412 0.960 1_655 S
C400 H392 0.929 . S
C400 C401 1.377 . S
C400 C402 1.384 1_655 S
C401 C400 1.377 . S
C401 C407 1.390 . S
C402 H393 0.930 . S
C402 C400 1.384 1_455 S
C402 C403 1.372 . S
C403 C402 1.372 . S
C403 C404 1.400 1_455 S
C403 C408 1.490 . S
C404 H394 0.930 . S
C404 C403 1.400 1_655 S
C404 C407 1.386 . S
H405 C421 0.930 . S
H406 C422 0.931 . S
C407 H395 0.929 . S
C407 C401 1.390 . S
C407 C404 1.386 . S
C408 C403 1.490 . S
C408 C410 1.395 . S
C408 C411 1.403 . S
H409 C415 0.930 . S
C410 H396 0.930 . S
C410 C408 1.395 . S
C410 C413 1.403 . S
C411 C408 1.403 . S
C411 C412 1.524 . S
C411 C415 1.400 . S
C412 H397 0.960 . S
C412 H398 0.960 . S
C412 H399 0.960 1_455 S
C412 C411 1.524 . S
C413 C410 1.403 . S
C413 C414 1.392 . S
C413 C417 1.495 . S
C414 C413 1.392 . S
C414 C415 1.385 . S
C414 C416 1.478 . S
C415 H409 0.930 . S
C415 C411 1.400 . S
C415 C414 1.385 . S
C416 C414 1.478 . S
C416 C418 1.381 . S
C416 C422 1.383 . S
C417 C413 1.495 . S
C417 H423 0.959 . S
C417 H424 0.961 . S
C417 H425 0.960 . S
C418 C416 1.381 . S
C418 C419 1.394 . S
C418 H426 0.930 . S
C419 C418 1.394 . S
C419 C420 1.383 . S
C419 H427 0.929 . S
C420 C419 1.383 . S
C420 C421 1.377 . S
C421 H405 0.930 . S
C421 C420 1.377 . S
C421 C422 1.379 . S
C422 H406 0.931 . S
C422 C416 1.383 . S
C422 C421 1.379 . S
H423 C417 0.959 . S
H424 C417 0.961 . S
H425 C417 0.960 . S
H426 C418 0.930 . S
H427 C419 0.929 . S
H428 C436 0.929 . S
H429 C438 0.930 . S
H430 C440 0.930 . S
H431 C443 0.929 . S
H432 C446 0.930 . S
H433 C448 0.960 . S
H434 C448 0.960 . S
H435 C448 0.960 . S
C436 H428 0.929 . S
C436 C437 1.377 . S
C436 C438 1.384 . S
C437 C436 1.377 . S
C437 C443 1.390 . S
C438 H429 0.930 . S
C438 C436 1.384 . S
C438 C439 1.372 . S
C439 C438 1.372 . S
C439 C440 1.400 . S
C439 C444 1.490 . S
C440 H430 0.930 . S
C440 C439 1.400 . S
C440 C443 1.386 . S
H441 C457 0.930 . S
H442 C458 0.931 . S
C443 H431 0.929 . S
C443 C437 1.390 . S
C443 C440 1.386 . S
C444 C439 1.490 . S
C444 C446 1.395 . S
C444 C447 1.403 . S
H445 C451 0.930 . S
C446 H432 0.930 . S
C446 C444 1.395 . S
C446 C449 1.403 . S
C447 C444 1.403 . S
C447 C448 1.524 . S
C447 C451 1.400 . S
C448 H433 0.960 . S
C448 H434 0.960 . S
C448 H435 0.960 . S
C448 C447 1.524 . S
C449 C446 1.403 . S
C449 C450 1.392 . S
C449 C453 1.495 . S
C450 C449 1.392 . S
C450 C451 1.385 . S
C450 C452 1.478 . S
C451 H445 0.930 . S
C451 C447 1.400 . S
C451 C450 1.385 . S
C452 C450 1.478 . S
C452 C454 1.381 . S
C452 C458 1.383 . S
C453 C449 1.495 . S
C453 H459 0.959 . S
C453 H460 0.961 . S
C453 H461 0.960 . S
C454 C452 1.381 . S
C454 C455 1.394 . S
C454 H462 0.930 . S
C455 C454 1.394 . S
C455 C456 1.383 . S
C455 H463 0.929 . S
C456 C455 1.383 . S
C456 C457 1.377 . S
C457 H441 0.930 . S
C457 C456 1.377 . S
C457 C458 1.379 . S
C458 H442 0.931 . S
C458 C452 1.383 . S
C458 C457 1.379 . S
H459 C453 0.959 . S
H460 C453 0.961 . S
H461 C453 0.960 . S
H462 C454 0.930 . S
H463 C455 0.929 . S
H464 C472 0.929 . S
H465 C474 0.930 . S
H466 C476 0.930 . S
H467 C479 0.929 . S
H468 C482 0.930 . S
H469 C484 0.960 . S
H470 C484 0.960 . S
H471 C484 0.960 . S
C472 H464 0.929 . S
C472 C473 1.377 . S
C472 C474 1.384 . S
C473 C472 1.377 . S
C473 C479 1.390 . S
C474 H465 0.930 . S
C474 C472 1.384 . S
C474 C475 1.372 . S
C475 C474 1.372 . S
C475 C476 1.400 . S
C475 C480 1.490 . S
C476 H466 0.930 . S
C476 C475 1.400 . S
C476 C479 1.386 . S
H477 C493 0.930 . S
H478 C494 0.931 . S
C479 H467 0.929 . S
C479 C473 1.390 . S
C479 C476 1.386 . S
C480 C475 1.490 . S
C480 C482 1.395 1_545 S
C480 C483 1.403 1_455 S
H481 C487 0.930 . S
C482 H468 0.930 . S
C482 C480 1.395 1_565 S
C482 C485 1.403 1_554 S
C483 C480 1.403 1_655 S
C483 C484 1.524 . S
C483 C487 1.400 1_554 S
C484 H469 0.960 . S
C484 H470 0.960 . S
C484 H471 0.960 . S
C484 C483 1.524 . S
C485 C482 1.403 1_556 S
C485 C486 1.392 1_455 S
C485 C489 1.495 . S
C486 C485 1.392 1_655 S
C486 C487 1.385 1_565 S
C486 C488 1.478 . S
C487 H481 0.930 . S
C487 C483 1.400 1_556 S
C487 C486 1.385 1_545 S
C488 C486 1.478 . S
C488 C490 1.381 . S
C488 C494 1.383 . S
C489 C485 1.495 . S
C489 H495 0.959 . S
C489 H496 0.961 . S
C489 H497 0.960 . S
C490 C488 1.381 . S
C490 C491 1.394 . S
C490 H498 0.930 . S
C491 C490 1.394 . S
C491 C492 1.383 . S
C491 H499 0.929 . S
C492 C491 1.383 . S
C492 C493 1.377 . S
C493 H477 0.930 . S
C493 C492 1.377 . S
C493 C494 1.379 . S
C494 H478 0.931 . S
C494 C488 1.383 . S
C494 C493 1.379 . S
H495 C489 0.959 . S
H496 C489 0.961 . S
H497 C489 0.960 . S
H498 C490 0.930 . S
H499 C491 0.929 . S
H500 C508 0.929 1_545 S
H501 C510 0.909 1_545 S
H502 C512 0.930 . S
H503 C515 0.929 . S
H504 C518 0.930 . S
H505 C520 0.960 . S
H506 C520 0.960 . S
H507 C520 0.960 . S
C508 H500 0.929 1_565 S
C508 C509 1.377 . S
C508 C510 1.391 . S
C509 C508 1.377 . S
C509 C515 1.390 . S
C510 H501 0.909 1_565 S
C510 C508 1.391 . S
C510 C511 1.385 . S
C511 C510 1.385 . S
C511 C512 1.400 . S
C511 C516 1.490 . S
C512 H502 0.930 . S
C512 C511 1.400 . S
C512 C515 1.386 . S
H513 C529 0.930 1_565 S
H514 C530 0.931 1_565 S
C515 H503 0.929 . S
C515 C509 1.390 . S
C515 C512 1.386 . S
C516 C511 1.490 . S
C516 C518 1.395 1_565 S
C516 C519 1.403 . S
H517 C523 0.930 . S
C518 H504 0.930 . S
C518 C516 1.395 1_545 S
C518 C521 1.403 1_554 S
C519 C516 1.403 . S
C519 C520 1.524 . S
C519 C523 1.400 1_554 S
C520 H505 0.960 . S
C520 H506 0.960 . S
C520 H507 0.960 . S
C520 C519 1.524 . S
C521 C518 1.403 1_556 S
C521 C522 1.392 . S
C521 C525 1.495 . S
C522 C521 1.392 . S
C522 C523 1.385 1_545 S
C522 C524 1.478 . S
C523 H517 0.930 . S
C523 C519 1.400 1_556 S
C523 C522 1.385 1_565 S
C524 C522 1.478 . S
C524 C526 1.381 . S
C524 C530 1.383 . S
C525 C521 1.495 . S
C525 H531 0.959 . S
C525 H532 0.961 . S
C525 H533 0.960 . S
C526 C524 1.381 . S
C526 C527 1.394 . S
C526 H534 0.930 . S
C527 C526 1.394 . S
C527 C528 1.383 . S
C527 H535 0.929 . S
C528 C527 1.383 . S
C528 C529 1.377 . S
C529 H513 0.930 1_545 S
C529 C528 1.377 . S
C529 C530 1.379 . S
C530 H514 0.931 1_545 S
C530 C524 1.383 . S
C530 C529 1.379 . S
H531 C525 0.959 . S
H532 C525 0.961 . S
H533 C525 0.960 . S
H534 C526 0.930 . S
H535 C527 0.929 . S
H536 C544 0.929 . S
H537 C546 0.930 . S
H538 C548 0.930 . S
H539 C551 0.929 . S
H540 C554 0.930 . S
H541 C556 0.960 . S
H542 C556 0.960 . S
H543 C556 0.960 . S
C544 H536 0.929 . S
C544 C545 1.377 . S
C544 C546 1.384 . S
C545 C544 1.377 . S
C545 C551 1.390 . S
C546 H537 0.930 . S
C546 C544 1.384 . S
C546 C547 1.372 . S
C547 C546 1.372 . S
C547 C548 1.400 . S
C547 C552 1.490 . S
C548 H538 0.930 . S
C548 C547 1.400 . S
C548 C551 1.386 . S
H549 C565 0.930 . S
H550 C566 0.931 . S
C551 H539 0.929 . S
C551 C545 1.390 . S
C551 C548 1.386 . S
C552 C547 1.490 . S
C552 C554 1.395 . S
C552 C555 1.403 . S
H553 C559 0.930 . S
C554 H540 0.930 . S
C554 C552 1.395 . S
C554 C557 1.403 . S
C555 C552 1.403 . S
C555 C556 1.524 . S
C555 C559 1.400 . S
C556 H541 0.960 . S
C556 H542 0.960 . S
C556 H543 0.960 . S
C556 C555 1.524 . S
C557 C554 1.403 . S
C557 C558 1.392 . S
C557 C561 1.495 . S
C558 C557 1.392 . S
C558 C559 1.385 . S
C558 C560 1.478 . S
C559 H553 0.930 . S
C559 C555 1.400 . S
C559 C558 1.385 . S
C560 C558 1.478 . S
C560 C562 1.381 . S
C560 C566 1.383 . S
C561 C557 1.495 . S
C561 H567 0.959 . S
C561 H568 0.961 . S
C561 H569 0.960 . S
C562 C560 1.381 . S
C562 C563 1.394 . S
C562 H570 0.930 . S
C563 C562 1.394 . S
C563 C564 1.383 . S
C563 H571 0.929 . S
C564 C563 1.383 . S
C564 C565 1.377 . S
C565 H549 0.930 . S
C565 C564 1.377 . S
C565 C566 1.379 . S
C566 H550 0.931 . S
C566 C560 1.383 . S
C566 C565 1.379 . S
H567 C561 0.959 . S
H568 C561 0.961 . S
H569 C561 0.960 . S
H570 C562 0.930 . S
H571 C563 0.929 . S
H572 C580 0.929 . S
H573 C582 0.930 . S
H574 C584 0.930 . S
H575 C587 0.929 . S
H576 C590 0.930 . S
H577 C592 0.960 1_655 S
H578 C592 0.960 . S
H579 C592 0.960 . S
C580 H572 0.929 . S
C580 C581 1.377 . S
C580 C582 1.384 . S
C581 C580 1.377 . S
C581 C587 1.390 . S
C582 H573 0.930 . S
C582 C580 1.384 . S
C582 C583 1.372 . S
C583 C582 1.372 . S
C583 C584 1.400 . S
C583 C588 1.490 . S
C584 H574 0.930 . S
C584 C583 1.400 . S
C584 C587 1.386 . S
H585 C601 0.930 . S
H586 C602 0.931 . S
C587 H575 0.929 . S
C587 C581 1.390 . S
C587 C584 1.386 . S
C588 C583 1.490 . S
C588 C590 1.395 . S
C588 C591 1.403 . S
H589 C595 0.930 . S
C590 H576 0.930 . S
C590 C588 1.395 . S
C590 C593 1.403 1_455 S
C591 C588 1.403 . S
C591 C592 1.524 . S
C591 C595 1.400 1_455 S
C592 H577 0.960 1_455 S
C592 H578 0.960 . S
C592 H579 0.960 . S
C592 C591 1.524 . S
C593 C590 1.403 1_655 S
C593 C594 1.392 . S
C593 C597 1.495 . S
C594 C593 1.392 . S
C594 C595 1.385 . S
C594 C596 1.478 . S
C595 H589 0.930 . S
C595 C591 1.400 1_655 S
C595 C594 1.385 . S
C596 C594 1.478 . S
C596 C598 1.381 . S
C596 C602 1.383 . S
C597 C593 1.495 . S
C597 H603 0.959 1_655 S
C597 H604 0.961 . S
C597 H605 0.960 . S
C598 C596 1.381 . S
C598 C599 1.394 . S
C598 H606 0.930 . S
C599 C598 1.394 . S
C599 C600 1.383 . S
C599 H607 0.929 . S
C600 C599 1.383 . S
C600 C601 1.377 . S
C601 H585 0.930 . S
C601 C600 1.377 . S
C601 C602 1.379 . S
C602 H586 0.931 . S
C602 C596 1.383 . S
C602 C601 1.379 . S
H603 C597 0.959 1_455 S
H604 C597 0.961 . S
H605 C597 0.960 . S
H606 C598 0.930 . S
H607 C599 0.929 . S
H608 C616 0.929 . S
H609 C618 0.930 . S
H610 C620 0.930 . S
H611 C623 0.929 . S
H612 C626 0.923 1_556 S
H613 C628 0.960 . S
H614 C628 0.960 . S
H615 C628 0.960 . S
C616 H608 0.929 . S
C616 C617 1.377 . S
C616 C618 1.384 . S
C617 C616 1.377 . S
C617 C623 1.390 . S
C618 H609 0.930 . S
C618 C616 1.384 . S
C618 C619 1.372 . S
C619 C618 1.372 . S
C619 C620 1.400 . S
C619 C624 1.490 . S
C620 H610 0.930 . S
C620 C619 1.400 . S
C620 C623 1.386 . S
H621 C637 0.930 . S
H622 C638 0.931 . S
C623 H611 0.929 . S
C623 C617 1.390 . S
C623 C620 1.386 . S
C624 C619 1.490 . S
C624 C626 1.384 1_556 S
C624 C627 1.403 . S
H625 C631 0.930 . S
C626 H612 0.923 1_554 S
C626 C624 1.384 1_554 S
C626 C629 1.421 . S
C627 C624 1.403 . S
C627 C628 1.524 . S
C627 C631 1.400 1_556 S
C628 H613 0.960 . S
C628 H614 0.960 . S
C628 H615 0.960 . S
C628 C627 1.524 . S
C629 C626 1.421 . S
C629 C630 1.392 . S
C629 C633 1.495 . S
C630 C629 1.392 . S
C630 C631 1.385 . S
C630 C632 1.478 . S
C631 H625 0.930 . S
C631 C627 1.400 1_554 S
C631 C630 1.385 . S
C632 C630 1.478 . S
C632 C634 1.381 . S
C632 C638 1.383 . S
C633 C629 1.495 . S
C633 H639 0.959 . S
C633 H640 0.961 . S
C633 H641 0.960 . S
C634 C632 1.381 . S
C634 C635 1.394 . S
C634 H642 0.930 . S
C635 C634 1.394 . S
C635 C636 1.383 . S
C635 H643 0.929 . S
C636 C635 1.383 . S
C636 C637 1.377 . S
C637 H621 0.930 . S
C637 C636 1.377 . S
C637 C638 1.379 . S
C638 H622 0.931 . S
C638 C632 1.383 . S
C638 C637 1.379 . S
H639 C633 0.959 . S
H640 C633 0.961 . S
H641 C633 0.960 . S
H642 C634 0.930 . S
H643 C635 0.929 . S
H644 C652 0.929 . S
H645 C654 0.930 . S
H646 C656 0.930 . S
H647 C659 0.929 . S
H648 C662 0.930 . S
H649 C664 0.960 . S
H650 C664 0.960 1_556 S
H651 C664 0.960 1_556 S
C652 H644 0.929 . S
C652 C653 1.377 . S
C652 C654 1.384 . S
C653 C652 1.377 . S
C653 C659 1.390 . S
C654 H645 0.930 . S
C654 C652 1.384 . S
C654 C655 1.372 . S
C655 C654 1.372 . S
C655 C656 1.400 . S
C655 C660 1.490 . S
C656 H646 0.930 . S
C656 C655 1.400 . S
C656 C659 1.386 . S
H657 C673 0.930 . S
H658 C674 0.931 . S
C659 H647 0.929 . S
C659 C653 1.390 . S
C659 C656 1.386 . S
C660 C655 1.490 . S
C660 C662 1.395 . S
C660 C663 1.390 1_556 S
H661 C667 0.930 . S
C662 H648 0.930 . S
C662 C660 1.395 . S
C662 C665 1.403 . S
C663 C660 1.390 1_554 S
C663 C664 1.520 . S
C663 C667 1.417 . S
C664 H649 0.960 . S
C664 H650 0.960 1_554 S
C664 H651 0.960 1_554 S
C664 C663 1.520 . S
C665 C662 1.403 . S
C665 C666 1.392 1_556 S
C665 C669 1.495 . S
C666 C665 1.392 1_554 S
C666 C667 1.385 . S
C666 C668 1.478 . S
C667 H661 0.930 . S
C667 C663 1.417 . S
C667 C666 1.385 . S
C668 C666 1.478 . S
C668 C670 1.381 . S
C668 C674 1.383 . S
C669 C665 1.495 . S
C669 H675 0.959 . S
C669 H676 0.961 1_556 S
C669 H677 0.960 1_556 S
C670 C668 1.381 . S
C670 C671 1.394 . S
C670 H678 0.930 . S
C671 C670 1.394 . S
C671 C672 1.383 . S
C671 H679 0.929 . S
C672 C671 1.383 . S
C672 C673 1.377 . S
C673 H657 0.930 . S
C673 C672 1.377 . S
C673 C674 1.379 . S
C674 H658 0.931 . S
C674 C668 1.383 . S
C674 C673 1.379 . S
H675 C669 0.959 . S
H676 C669 0.961 1_554 S
H677 C669 0.960 1_554 S
H678 C670 0.930 . S
H679 C671 0.929 . S
H680 C688 0.929 . S
H681 C690 0.930 . S
H682 C692 0.930 . S
H683 C695 0.929 . S
H684 C698 0.930 . S
H685 C700 0.960 . S
H686 C700 0.960 . S
H687 C700 0.960 . S
C688 H680 0.929 . S
C688 C689 1.377 . S
C688 C690 1.384 . S
C689 C688 1.377 . S
C689 C695 1.390 . S
C690 H681 0.930 . S
C690 C688 1.384 . S
C690 C691 1.372 . S
C691 C690 1.372 . S
C691 C692 1.400 . S
C691 C696 1.490 . S
C692 H682 0.930 . S
C692 C691 1.400 . S
C692 C695 1.386 . S
H693 C709 0.930 . S
H694 C710 0.931 . S
C695 H683 0.929 . S
C695 C689 1.390 . S
C695 C692 1.386 . S
C696 C691 1.490 . S
C696 C698 1.395 . S
C696 C699 1.403 . S
H697 C703 0.930 . S
C698 H684 0.930 . S
C698 C696 1.395 . S
C698 C701 1.403 . S
C699 C696 1.403 . S
C699 C700 1.524 . S
C699 C703 1.400 . S
C700 H685 0.960 . S
C700 H686 0.960 . S
C700 H687 0.960 . S
C700 C699 1.524 . S
C701 C698 1.403 . S
C701 C702 1.392 . S
C701 C705 1.495 . S
C702 C701 1.392 . S
C702 C703 1.385 . S
C702 C704 1.478 . S
C703 H697 0.930 . S
C703 C699 1.400 . S
C703 C702 1.385 . S
C704 C702 1.478 . S
C704 C706 1.381 . S
C704 C710 1.383 . S
C705 C701 1.495 . S
C705 H711 0.959 . S
C705 H712 0.961 . S
C705 H713 0.960 . S
C706 C704 1.381 . S
C706 C707 1.394 . S
C706 H714 0.930 . S
C707 C706 1.394 . S
C707 C708 1.383 . S
C707 H715 0.929 . S
C708 C707 1.383 . S
C708 C709 1.377 . S
C709 H693 0.930 . S
C709 C708 1.377 . S
C709 C710 1.379 . S
C710 H694 0.931 . S
C710 C704 1.383 . S
C710 C709 1.379 . S
H711 C705 0.959 . S
H712 C705 0.961 . S
H713 C705 0.960 . S
H714 C706 0.930 . S
H715 C707 0.929 . S
H716 C724 0.929 . S
H717 C726 0.930 . S
H718 C728 0.930 . S
H719 C731 0.929 . S
H720 C734 0.930 . S
H721 C736 0.960 . S
H722 C736 0.960 . S
H723 C736 0.960 . S
C724 H716 0.929 . S
C724 C725 1.377 . S
C724 C726 1.384 . S
C725 C724 1.377 . S
C725 C731 1.390 . S
C726 H717 0.930 . S
C726 C724 1.384 . S
C726 C727 1.372 . S
C727 C726 1.372 . S
C727 C728 1.400 . S
C727 C732 1.490 . S
C728 H718 0.930 . S
C728 C727 1.400 . S
C728 C731 1.386 . S
H729 C745 0.930 . S
H730 C746 0.931 . S
C731 H719 0.929 . S
C731 C725 1.390 . S
C731 C728 1.386 . S
C732 C727 1.490 . S
C732 C734 1.395 . S
C732 C735 1.403 . S
H733 C739 0.930 . S
C734 H720 0.930 . S
C734 C732 1.395 . S
C734 C737 1.403 . S
C735 C732 1.403 . S
C735 C736 1.524 . S
C735 C739 1.400 . S
C736 H721 0.960 . S
C736 H722 0.960 . S
C736 H723 0.960 . S
C736 C735 1.524 . S
C737 C734 1.403 . S
C737 C738 1.392 . S
C737 C741 1.495 . S
C738 C737 1.392 . S
C738 C739 1.385 . S
C738 C740 1.478 . S
C739 H733 0.930 . S
C739 C735 1.400 . S
C739 C738 1.385 . S
C740 C738 1.478 . S
C740 C742 1.381 . S
C740 C746 1.383 . S
C741 C737 1.495 . S
C741 H747 0.959 . S
C741 H748 0.961 . S
C741 H749 0.960 . S
C742 C740 1.381 . S
C742 C743 1.394 . S
C742 H750 0.930 . S
C743 C742 1.394 . S
C743 C744 1.383 . S
C743 H751 0.929 . S
C744 C743 1.383 . S
C744 C745 1.377 . S
C745 H729 0.930 . S
C745 C744 1.377 . S
C745 C746 1.379 . S
C746 H730 0.931 . S
C746 C740 1.383 . S
C746 C745 1.379 . S
H747 C741 0.959 . S
H748 C741 0.961 . S
H749 C741 0.960 . S
H750 C742 0.930 . S
H751 C743 0.929 . S
H752 C760 0.929 . S
H753 C762 0.930 . S
H754 C764 0.930 . S
H755 C767 0.929 . S
H756 C770 0.930 . S
H757 C772 0.960 . S
H758 C772 0.960 . S
H759 C772 0.960 . S
C760 H752 0.929 . S
C760 C761 1.377 . S
C760 C762 1.384 . S
C761 C760 1.377 . S
C761 C767 1.390 . S
C762 H753 0.930 . S
C762 C760 1.384 . S
C762 C763 1.372 . S
C763 C762 1.372 . S
C763 C764 1.400 . S
C763 C768 1.490 . S
C764 H754 0.930 . S
C764 C763 1.400 . S
C764 C767 1.386 . S
H765 C781 0.930 . S
H766 C782 0.931 . S
C767 H755 0.929 . S
C767 C761 1.390 . S
C767 C764 1.386 . S
C768 C763 1.490 . S
C768 C770 1.395 . S
C768 C771 1.403 . S
H769 C775 0.930 . S
C770 H756 0.930 . S
C770 C768 1.395 . S
C770 C773 1.403 . S
C771 C768 1.403 . S
C771 C772 1.524 . S
C771 C775 1.400 . S
C772 H757 0.960 . S
C772 H758 0.960 . S
C772 H759 0.960 . S
C772 C771 1.524 . S
C773 C770 1.403 . S
C773 C774 1.392 . S
C773 C777 1.495 . S
C774 C773 1.392 . S
C774 C775 1.385 . S
C774 C776 1.478 . S
C775 H769 0.930 . S
C775 C771 1.400 . S
C775 C774 1.385 . S
C776 C774 1.478 . S
C776 C778 1.381 . S
C776 C782 1.383 . S
C777 C773 1.495 . S
C777 H783 0.959 . S
C777 H784 0.961 . S
C777 H785 0.960 . S
C778 C776 1.381 . S
C778 C779 1.394 . S
C778 H786 0.930 . S
C779 C778 1.394 . S
C779 C780 1.383 . S
C779 H787 0.929 . S
C780 C779 1.383 . S
C780 C781 1.377 . S
C781 H765 0.930 . S
C781 C780 1.377 . S
C781 C782 1.379 . S
C782 H766 0.931 . S
C782 C776 1.383 . S
C782 C781 1.379 . S
H783 C777 0.959 . S
H784 C777 0.961 . S
H785 C777 0.960 . S
H786 C778 0.930 . S
H787 C779 0.929 . S
H788 C796 0.929 . S
H789 C798 0.930 . S
H790 C800 0.930 . S
H791 C803 0.929 . S
H792 C806 0.930 . S
H793 C808 0.960 . S
H794 C808 0.960 . S
H795 C808 0.960 . S
C796 H788 0.929 . S
C796 C797 1.377 . S
C796 C798 1.384 . S
C797 C796 1.377 . S
C797 C803 1.390 . S
C798 H789 0.930 . S
C798 C796 1.384 . S
C798 C799 1.372 . S
C799 C798 1.372 . S
C799 C800 1.400 . S
C799 C804 1.490 . S
C800 H790 0.930 . S
C800 C799 1.400 . S
C800 C803 1.386 . S
H801 C817 0.930 . S
H802 C818 0.931 . S
C803 H791 0.929 . S
C803 C797 1.390 . S
C803 C800 1.386 . S
C804 C799 1.490 . S
C804 C806 1.395 . S
C804 C807 1.403 . S
H805 C811 0.930 . S
C806 H792 0.930 . S
C806 C804 1.395 . S
C806 C809 1.403 . S
C807 C804 1.403 . S
C807 C808 1.524 . S
C807 C811 1.400 . S
C808 H793 0.960 . S
C808 H794 0.960 . S
C808 H795 0.960 . S
C808 C807 1.524 . S
C809 C806 1.403 . S
C809 C810 1.392 . S
C809 C813 1.495 . S
C810 C809 1.392 . S
C810 C811 1.385 . S
C810 C812 1.478 . S
C811 H805 0.930 . S
C811 C807 1.400 . S
C811 C810 1.385 . S
C812 C810 1.478 . S
C812 C814 1.381 . S
C812 C818 1.383 . S
C813 C809 1.495 . S
C813 H819 0.959 . S
C813 H820 0.961 . S
C813 H821 0.960 . S
C814 C812 1.381 . S
C814 C815 1.394 . S
C814 H822 0.930 . S
C815 C814 1.394 . S
C815 C816 1.383 . S
C815 H823 0.929 . S
C816 C815 1.383 . S
C816 C817 1.377 . S
C817 H801 0.930 . S
C817 C816 1.377 . S
C817 C818 1.379 . S
C818 H802 0.931 . S
C818 C812 1.383 . S
C818 C817 1.379 . S
H819 C813 0.959 . S
H820 C813 0.961 . S
H821 C813 0.960 . S
H822 C814 0.930 . S
H823 C815 0.929 . S
H824 C832 0.929 . S
H825 C834 0.930 . S
H826 C836 0.930 . S
H827 C839 0.929 . S
H828 C842 0.930 . S
H829 C844 0.960 1_554 S
H830 C844 0.960 . S
H831 C844 0.960 . S
C832 H824 0.929 . S
C832 C833 1.377 . S
C832 C834 1.384 . S
C833 C832 1.377 . S
C833 C839 1.390 . S
C834 H825 0.930 . S
C834 C832 1.384 . S
C834 C835 1.372 . S
C835 C834 1.372 . S
C835 C836 1.400 . S
C835 C840 1.490 . S
C836 H826 0.930 . S
C836 C835 1.400 . S
C836 C839 1.386 . S
H837 C853 0.930 . S
H838 C854 0.931 . S
C839 H827 0.929 . S
C839 C833 1.390 . S
C839 C836 1.386 . S
C840 C835 1.490 . S
C840 C842 1.395 . S
C840 C843 1.403 . S
H841 C847 0.930 . S
C842 H828 0.930 . S
C842 C840 1.395 . S
C842 C845 1.403 1_556 S
C843 C840 1.403 . S
C843 C844 1.524 . S
C843 C847 1.400 1_556 S
C844 H829 0.960 1_556 S
C844 H830 0.960 . S
C844 H831 0.960 . S
C844 C843 1.524 . S
C845 C842 1.403 1_554 S
C845 C846 1.392 . S
C845 C849 1.495 . S
C846 C845 1.392 . S
C846 C847 1.385 . S
C846 C848 1.478 . S
C847 H841 0.930 . S
C847 C843 1.400 1_554 S
C847 C846 1.385 . S
C848 C846 1.478 . S
C848 C850 1.381 . S
C848 C854 1.383 . S
C849 C845 1.495 . S
C849 H855 0.959 1_554 S
C849 H856 0.961 . S
C849 H857 0.960 . S
C850 C848 1.381 . S
C850 C851 1.394 . S
C850 H858 0.930 . S
C851 C850 1.394 . S
C851 C852 1.383 . S
C851 H859 0.929 . S
C852 C851 1.383 . S
C852 C853 1.377 . S
C853 H837 0.930 . S
C853 C852 1.377 . S
C853 C854 1.379 . S
C854 H838 0.931 . S
C854 C848 1.383 . S
C854 C853 1.379 . S
H855 C849 0.959 1_556 S
H856 C849 0.961 . S
H857 C849 0.960 . S
H858 C850 0.930 . S
H859 C851 0.929 . S
H860 C868 0.929 . S
H861 C870 0.930 . S
H862 C872 0.930 . S
H863 C875 0.929 . S
H864 C878 0.930 . S
H865 C880 0.960 . S
H866 C880 0.960 . S
H867 C880 0.960 . S
C868 H860 0.929 . S
C868 C869 1.377 . S
C868 C870 1.384 . S
C869 C868 1.377 . S
C869 C875 1.390 . S
C870 H861 0.930 . S
C870 C868 1.384 . S
C870 C871 1.372 . S
C871 C870 1.372 . S
C871 C872 1.400 . S
C871 C876 1.490 . S
C872 H862 0.930 . S
C872 C871 1.400 . S
C872 C875 1.386 . S
H873 C889 0.930 . S
H874 C890 0.931 . S
C875 H863 0.929 . S
C875 C869 1.390 . S
C875 C872 1.386 . S
C876 C871 1.490 . S
C876 C878 1.395 . S
C876 C879 1.403 . S
H877 C883 0.930 . S
C878 H864 0.930 . S
C878 C876 1.395 . S
C878 C881 1.403 1_556 S
C879 C876 1.403 . S
C879 C880 1.524 . S
C879 C883 1.400 1_556 S
C880 H865 0.960 . S
C880 H866 0.960 . S
C880 H867 0.960 . S
C880 C879 1.524 . S
C881 C878 1.403 1_554 S
C881 C882 1.392 . S
C881 C885 1.495 . S
C882 C881 1.392 . S
C882 C883 1.385 . S
C882 C884 1.478 . S
C883 H877 0.930 . S
C883 C879 1.400 1_554 S
C883 C882 1.385 . S
C884 C882 1.478 . S
C884 C886 1.381 . S
C884 C890 1.383 . S
C885 C881 1.495 . S
C885 H891 0.959 . S
C885 H892 0.961 . S
C885 H893 0.960 . S
C886 C884 1.381 . S
C886 C887 1.394 . S
C886 H894 0.930 . S
C887 C886 1.394 . S
C887 C888 1.383 . S
C887 H895 0.929 . S
C888 C887 1.383 . S
C888 C889 1.377 . S
C889 H873 0.930 . S
C889 C888 1.377 . S
C889 C890 1.379 . S
C890 H874 0.931 . S
C890 C884 1.383 . S
C890 C889 1.379 . S
H891 C885 0.959 . S
H892 C885 0.961 . S
H893 C885 0.960 . S
H894 C886 0.930 . S
H895 C887 0.929 . S
H896 C904 0.929 . S
H897 C906 0.930 . S
H898 C908 0.930 . S
H899 C911 0.929 . S
H900 C914 0.930 . S
H901 C916 0.960 . S
H902 C916 0.960 . S
H903 C916 0.960 . S
C904 H896 0.929 . S
C904 C905 1.377 . S
C904 C906 1.384 . S
C905 C904 1.377 . S
C905 C911 1.390 . S
C906 H897 0.930 . S
C906 C904 1.384 . S
C906 C907 1.372 . S
C907 C906 1.372 . S
C907 C908 1.400 . S
C907 C912 1.490 . S
C908 H898 0.930 . S
C908 C907 1.400 . S
C908 C911 1.386 . S
H909 C925 0.930 . S
H910 C926 0.931 . S
C911 H899 0.929 . S
C911 C905 1.390 . S
C911 C908 1.386 . S
C912 C907 1.490 . S
C912 C914 1.395 . S
C912 C915 1.403 . S
H913 C919 0.930 . S
C914 H900 0.930 . S
C914 C912 1.395 . S
C914 C917 1.403 . S
C915 C912 1.403 . S
C915 C916 1.524 . S
C915 C919 1.400 . S
C916 H901 0.960 . S
C916 H902 0.960 . S
C916 H903 0.960 . S
C916 C915 1.524 . S
C917 C914 1.403 . S
C917 C918 1.392 . S
C917 C921 1.495 . S
C918 C917 1.392 . S
C918 C919 1.385 . S
C918 C920 1.478 . S
C919 H913 0.930 . S
C919 C915 1.400 . S
C919 C918 1.385 . S
C920 C918 1.478 . S
C920 C922 1.381 . S
C920 C926 1.383 . S
C921 C917 1.495 . S
C921 H927 0.959 . S
C921 H928 0.961 . S
C921 H929 0.960 . S
C922 C920 1.381 . S
C922 C923 1.394 . S
C922 H930 0.930 . S
C923 C922 1.394 . S
C923 C924 1.383 . S
C923 H931 0.929 . S
C924 C923 1.383 . S
C924 C925 1.377 . S
C925 H909 0.930 . S
C925 C924 1.377 . S
C925 C926 1.379 . S
C926 H910 0.931 . S
C926 C920 1.383 . S
C926 C925 1.379 . S
H927 C921 0.959 . S
H928 C921 0.961 . S
H929 C921 0.960 . S
H930 C922 0.930 . S
H931 C923 0.929 . S
H932 C940 0.929 . S
H933 C942 0.930 . S
H934 C944 0.930 . S
H935 C947 0.929 . S
H936 C950 0.930 . S
H937 C952 0.960 . S
H938 C952 0.960 . S
H939 C952 0.960 . S
C940 H932 0.929 . S
C940 C941 1.377 . S
C940 C942 1.384 . S
C941 C940 1.377 . S
C941 C947 1.390 . S
C942 H933 0.930 . S
C942 C940 1.384 . S
C942 C943 1.372 . S
C943 C942 1.372 . S
C943 C944 1.400 . S
C943 C948 1.490 . S
C944 H934 0.930 . S
C944 C943 1.400 . S
C944 C947 1.386 . S
H945 C961 0.930 . S
H946 C962 0.931 . S
C947 H935 0.929 . S
C947 C941 1.390 . S
C947 C944 1.386 . S
C948 C943 1.490 . S
C948 C950 1.395 . S
C948 C951 1.403 . S
H949 C955 0.930 . S
C950 H936 0.930 . S
C950 C948 1.395 . S
C950 C953 1.403 . S
C951 C948 1.403 . S
C951 C952 1.524 . S
C951 C955 1.400 . S
C952 H937 0.960 . S
C952 H938 0.960 . S
C952 H939 0.960 . S
C952 C951 1.524 . S
C953 C950 1.403 . S
C953 C954 1.392 . S
C953 C957 1.495 . S
C954 C953 1.392 . S
C954 C955 1.385 . S
C954 C956 1.478 . S
C955 H949 0.930 . S
C955 C951 1.400 . S
C955 C954 1.385 . S
C956 C954 1.478 . S
C956 C958 1.381 . S
C956 C962 1.383 . S
C957 C953 1.495 . S
C957 H963 0.959 . S
C957 H964 0.961 . S
C957 H965 0.960 . S
C958 C956 1.381 . S
C958 C959 1.394 . S
C958 H966 0.930 . S
C959 C958 1.394 . S
C959 C960 1.383 . S
C959 H967 0.929 . S
C960 C959 1.383 . S
C960 C961 1.377 . S
C961 H945 0.930 . S
C961 C960 1.377 . S
C961 C962 1.379 . S
C962 H946 0.931 . S
C962 C956 1.383 . S
C962 C961 1.379 . S
H963 C957 0.959 . S
H964 C957 0.961 . S
H965 C957 0.960 . S
H966 C958 0.930 . S
H967 C959 0.929 . S
H968 C976 0.929 . S
H969 C978 0.930 . S
H970 C980 0.930 . S
H971 C983 0.929 . S
H972 C986 0.930 . S
H973 C988 0.960 . S
H974 C988 0.960 . S
H975 C988 0.960 . S
C976 H968 0.929 . S
C976 C977 1.377 . S
C976 C978 1.384 . S
C977 C976 1.377 . S
C977 C983 1.390 . S
C978 H969 0.930 . S
C978 C976 1.384 . S
C978 C979 1.372 . S
C979 C978 1.372 . S
C979 C980 1.400 . S
C979 C984 1.490 . S
C980 H970 0.930 . S
C980 C979 1.400 . S
C980 C983 1.386 . S
H981 C997 0.930 . S
H982 C998 0.931 . S
C983 H971 0.929 . S
C983 C977 1.390 . S
C983 C980 1.386 . S
C984 C979 1.490 . S
C984 C986 1.395 . S
C984 C987 1.403 . S
H985 C991 0.930 . S
C986 H972 0.930 . S
C986 C984 1.395 . S
C986 C989 1.403 . S
C987 C984 1.403 . S
C987 C988 1.524 . S
C987 C991 1.400 . S
C988 H973 0.960 . S
C988 H974 0.960 . S
C988 H975 0.960 . S
C988 C987 1.524 . S
C989 C986 1.403 . S
C989 C990 1.392 . S
C989 C993 1.495 . S
C990 C989 1.392 . S
C990 C991 1.385 . S
C990 C992 1.478 . S
C991 H985 0.930 . S
C991 C987 1.400 . S
C991 C990 1.385 . S
C992 C990 1.478 . S
C992 C994 1.381 . S
C992 C998 1.383 . S
C993 C989 1.495 . S
C993 H999 0.959 . S
C993 H1000 0.961 . S
C993 H1001 0.960 . S
C994 C992 1.381 . S
C994 C995 1.394 . S
C994 H1002 0.930 . S
C995 C994 1.394 . S
C995 C996 1.383 . S
C995 H1003 0.929 . S
C996 C995 1.383 . S
C996 C997 1.377 . S
C997 H981 0.930 . S
C997 C996 1.377 . S
C997 C998 1.379 . S
C998 H982 0.931 . S
C998 C992 1.383 . S
C998 C997 1.379 . S
H999 C993 0.959 . S
H1000 C993 0.961 . S
H1001 C993 0.960 . S
H1002 C994 0.930 . S
H1003 C995 0.929 . S
H1004 C1012 0.929 . S
H1005 C1014 0.930 . S
H1006 C1016 0.930 . S
H1007 C1019 0.929 . S
H1008 C1022 0.930 . S
H1009 C1024 0.960 . S
H1010 C1024 0.960 . S
H1011 C1024 0.960 . S
C1012 H1004 0.929 . S
C1012 C1013 1.377 . S
C1012 C1014 1.384 . S
C1013 C1012 1.377 . S
C1013 C1019 1.390 . S
C1014 H1005 0.930 . S
C1014 C1012 1.384 . S
C1014 C1015 1.372 . S
C1015 C1014 1.372 . S
C1015 C1016 1.400 . S
C1015 C1020 1.490 . S
C1016 H1006 0.930 . S
C1016 C1015 1.400 . S
C1016 C1019 1.386 . S
H1017 C1033 0.930 . S
H1018 C1034 0.931 . S
C1019 H1007 0.929 . S
C1019 C1013 1.390 . S
C1019 C1016 1.386 . S
C1020 C1015 1.490 . S
C1020 C1022 1.395 . S
C1020 C1023 1.403 . S
H1021 C1027 0.930 . S
C1022 H1008 0.930 . S
C1022 C1020 1.395 . S
C1022 C1025 1.403 . S
C1023 C1020 1.403 . S
C1023 C1024 1.524 . S
C1023 C1027 1.400 . S
C1024 H1009 0.960 . S
C1024 H1010 0.960 . S
C1024 H1011 0.960 . S
C1024 C1023 1.524 . S
C1025 C1022 1.403 . S
C1025 C1026 1.392 . S
C1025 C1029 1.495 . S
C1026 C1025 1.392 . S
C1026 C1027 1.385 . S
C1026 C1028 1.478 . S
C1027 H1021 0.930 . S
C1027 C1023 1.400 . S
C1027 C1026 1.385 . S
C1028 C1026 1.478 . S
C1028 C1030 1.381 . S
C1028 C1034 1.383 . S
C1029 C1025 1.495 . S
C1029 H1035 0.959 . S
C1029 H1036 0.961 . S
C1029 H1037 0.960 . S
C1030 C1028 1.381 . S
C1030 C1031 1.394 . S
C1030 H1038 0.930 . S
C1031 C1030 1.394 . S
C1031 C1032 1.383 . S
C1031 H1039 0.929 . S
C1032 C1031 1.383 . S
C1032 C1033 1.377 . S
C1033 H1017 0.930 . S
C1033 C1032 1.377 . S
C1033 C1034 1.379 . S
C1034 H1018 0.931 . S
C1034 C1028 1.383 . S
C1034 C1033 1.379 . S
H1035 C1029 0.959 . S
H1036 C1029 0.961 . S
H1037 C1029 0.960 . S
H1038 C1030 0.930 . S
H1039 C1031 0.929 . S
C185 C76 1.239 . S
C204 C21 1.301 . S
C221 C52 1.252 . S
C240 C37 1.279 . S
C257 C51 1.310 . S
C276 C30 1.294 . S
C293 C87 1.311 . S
C312 C18 1.291 . S
C329 C164 1.252 . S
C348 C103 1.278 . S
C365 C125 1.290 . S
C384 C140 1.276 . S
C401 C118 1.272 . S
C420 C139 1.311 . S
C437 C96 1.266 . S
C456 C175 1.316 . S
C473 C7 0.984 . S
C492 C65 0.946 . S
C509 C81 0.986 . S
C528 C43 0.958 . S
C545 C109 0.982 . S
C564 C153 0.954 . S
C581 C169 0.978 . S
C600 C131 0.959 . S
C617 C29 0.758 . S
C636 C15 0.781 . S
C653 C59 0.754 . S
C672 C73 0.751 . S
C689 C117 0.762 . S
C708 C95 0.743 . S
C725 C161 0.754 . S
C744 C147 0.754 . S
C761 C8 1.268 . S
C780 C32 1.277 . S
C797 C62 1.291 . S
C816 C74 1.296 . S
C833 C98 1.270 . S
C852 C120 1.281 . S
C869 C162 1.287 . S
C888 C150 1.273 . S
C905 C10 1.606 . S
C924 C142 1.595 . S
C941 C40 1.605 . S
C960 C172 1.608 . S
C977 C106 1.613 . S
C996 C54 1.608 . S
C1013 C128 1.607 . S
C1032 C84 1.595 . S
