# Generated by pormake.
# Topology flu-e, (6)-cn, num edge types: 1
# Building blocks:
#     Node 0, Type 0, BuildingBlock: OJICUG_clean_sbu_0, # of connection points: 6
#     Node 1, Type 0, BuildingBlock: OJICUG_clean_sbu_0, # of connection points: 6
#     Node 2, Type 0, BuildingBlock: OJICUG_clean_sbu_0, # of connection points: 6
#     Node 3, Type 0, BuildingBlock: OJICUG_clean_sbu_0, # of connection points: 6
#     Node 4, Type 0, BuildingBlock: OJICUG_clean_sbu_0, # of connection points: 6
#     Node 5, Type 0, BuildingBlock: OJICUG_clean_sbu_0, # of connection points: 6
#     Node 6, Type 0, BuildingBlock: OJICUG_clean_sbu_0, # of connection points: 6
#     Node 7, Type 0, BuildingBlock: OJICUG_clean_sbu_0, # of connection points: 6
#     Node 8, Type 0, BuildingBlock: OJICUG_clean_sbu_0, # of connection points: 6
#     Node 9, Type 0, BuildingBlock: OJICUG_clean_sbu_0, # of connection points: 6
#     Node 10, Type 0, BuildingBlock: OJICUG_clean_sbu_0, # of connection points: 6
#     Node 11, Type 0, BuildingBlock: OJICUG_clean_sbu_0, # of connection points: 6
#     Node 12, Type 0, BuildingBlock: OJICUG_clean_sbu_0, # of connection points: 6
#     Node 13, Type 0, BuildingBlock: OJICUG_clean_sbu_0, # of connection points: 6
#     Node 14, Type 0, BuildingBlock: OJICUG_clean_sbu_0, # of connection points: 6
#     Node 15, Type 0, BuildingBlock: OJICUG_clean_sbu_0, # of connection points: 6
#     Node 16, Type 0, BuildingBlock: OJICUG_clean_sbu_0, # of connection points: 6
#     Node 17, Type 0, BuildingBlock: OJICUG_clean_sbu_0, # of connection points: 6
#     Node 18, Type 0, BuildingBlock: OJICUG_clean_sbu_0, # of connection points: 6
#     Node 19, Type 0, BuildingBlock: OJICUG_clean_sbu_0, # of connection points: 6
#     Node 20, Type 0, BuildingBlock: OJICUG_clean_sbu_0, # of connection points: 6
#     Node 21, Type 0, BuildingBlock: OJICUG_clean_sbu_0, # of connection points: 6
#     Node 22, Type 0, BuildingBlock: OJICUG_clean_sbu_0, # of connection points: 6
#     Node 23, Type 0, BuildingBlock: OJICUG_clean_sbu_0, # of connection points: 6
#     Node 24, Type 0, BuildingBlock: OJICUG_clean_sbu_0, # of connection points: 6
#     Node 25, Type 0, BuildingBlock: OJICUG_clean_sbu_0, # of connection points: 6
#     Node 26, Type 0, BuildingBlock: OJICUG_clean_sbu_0, # of connection points: 6
#     Node 27, Type 0, BuildingBlock: OJICUG_clean_sbu_0, # of connection points: 6
#     Node 28, Type 0, BuildingBlock: OJICUG_clean_sbu_0, # of connection points: 6
#     Node 29, Type 0, BuildingBlock: OJICUG_clean_sbu_0, # of connection points: 6
#     Node 30, Type 0, BuildingBlock: OJICUG_clean_sbu_0, # of connection points: 6
#     Node 31, Type 0, BuildingBlock: OJICUG_clean_sbu_0, # of connection points: 6
#     Edge 32, Type (0, 0), BuildingBlock: KIFKEQ_clean_linker_1, # of connection points: 2
#     Edge 33, Type (0, 0), BuildingBlock: KIFKEQ_clean_linker_1, # of connection points: 2
#     Edge 34, Type (0, 0), BuildingBlock: KIFKEQ_clean_linker_1, # of connection points: 2
#     Edge 35, Type (0, 0), BuildingBlock: KIFKEQ_clean_linker_1, # of connection points: 2
#     Edge 36, Type (0, 0), BuildingBlock: KIFKEQ_clean_linker_1, # of connection points: 2
#     Edge 37, Type (0, 0), BuildingBlock: KIFKEQ_clean_linker_1, # of connection points: 2
#     Edge 38, Type (0, 0), BuildingBlock: KIFKEQ_clean_linker_1, # of connection points: 2
#     Edge 39, Type (0, 0), BuildingBlock: KIFKEQ_clean_linker_1, # of connection points: 2
#     Edge 40, Type (0, 0), BuildingBlock: KIFKEQ_clean_linker_1, # of connection points: 2
#     Edge 41, Type (0, 0), BuildingBlock: KIFKEQ_clean_linker_1, # of connection points: 2
#     Edge 42, Type (0, 0), BuildingBlock: KIFKEQ_clean_linker_1, # of connection points: 2
#     Edge 43, Type (0, 0), BuildingBlock: KIFKEQ_clean_linker_1, # of connection points: 2
#     Edge 44, Type (0, 0), BuildingBlock: KIFKEQ_clean_linker_1, # of connection points: 2
#     Edge 45, Type (0, 0), BuildingBlock: KIFKEQ_clean_linker_1, # of connection points: 2
#     Edge 46, Type (0, 0), BuildingBlock: KIFKEQ_clean_linker_1, # of connection points: 2
#     Edge 47, Type (0, 0), BuildingBlock: KIFKEQ_clean_linker_1, # of connection points: 2
#     Edge 48, Type (0, 0), BuildingBlock: KIFKEQ_clean_linker_1, # of connection points: 2
#     Edge 49, Type (0, 0), BuildingBlock: KIFKEQ_clean_linker_1, # of connection points: 2
#     Edge 50, Type (0, 0), BuildingBlock: KIFKEQ_clean_linker_1, # of connection points: 2
#     Edge 51, Type (0, 0), BuildingBlock: KIFKEQ_clean_linker_1, # of connection points: 2
#     Edge 52, Type (0, 0), BuildingBlock: KIFKEQ_clean_linker_1, # of connection points: 2
#     Edge 53, Type (0, 0), BuildingBlock: KIFKEQ_clean_linker_1, # of connection points: 2
#     Edge 54, Type (0, 0), BuildingBlock: KIFKEQ_clean_linker_1, # of connection points: 2
#     Edge 55, Type (0, 0), BuildingBlock: KIFKEQ_clean_linker_1, # of connection points: 2
#     Edge 56, Type (0, 0), BuildingBlock: KIFKEQ_clean_linker_1, # of connection points: 2
#     Edge 57, Type (0, 0), BuildingBlock: KIFKEQ_clean_linker_1, # of connection points: 2
#     Edge 58, Type (0, 0), BuildingBlock: KIFKEQ_clean_linker_1, # of connection points: 2
#     Edge 59, Type (0, 0), BuildingBlock: KIFKEQ_clean_linker_1, # of connection points: 2
#     Edge 60, Type (0, 0), BuildingBlock: KIFKEQ_clean_linker_1, # of connection points: 2
#     Edge 61, Type (0, 0), BuildingBlock: KIFKEQ_clean_linker_1, # of connection points: 2
#     Edge 62, Type (0, 0), BuildingBlock: KIFKEQ_clean_linker_1, # of connection points: 2
#     Edge 63, Type (0, 0), BuildingBlock: KIFKEQ_clean_linker_1, # of connection points: 2
#     Edge 64, Type (0, 0), BuildingBlock: KIFKEQ_clean_linker_1, # of connection points: 2
#     Edge 65, Type (0, 0), BuildingBlock: KIFKEQ_clean_linker_1, # of connection points: 2
#     Edge 66, Type (0, 0), BuildingBlock: KIFKEQ_clean_linker_1, # of connection points: 2
#     Edge 67, Type (0, 0), BuildingBlock: KIFKEQ_clean_linker_1, # of connection points: 2
#     Edge 68, Type (0, 0), BuildingBlock: KIFKEQ_clean_linker_1, # of connection points: 2
#     Edge 69, Type (0, 0), BuildingBlock: KIFKEQ_clean_linker_1, # of connection points: 2
#     Edge 70, Type (0, 0), BuildingBlock: KIFKEQ_clean_linker_1, # of connection points: 2
#     Edge 71, Type (0, 0), BuildingBlock: KIFKEQ_clean_linker_1, # of connection points: 2
#     Edge 72, Type (0, 0), BuildingBlock: KIFKEQ_clean_linker_1, # of connection points: 2
#     Edge 73, Type (0, 0), BuildingBlock: KIFKEQ_clean_linker_1, # of connection points: 2
#     Edge 74, Type (0, 0), BuildingBlock: KIFKEQ_clean_linker_1, # of connection points: 2
#     Edge 75, Type (0, 0), BuildingBlock: KIFKEQ_clean_linker_1, # of connection points: 2
#     Edge 76, Type (0, 0), BuildingBlock: KIFKEQ_clean_linker_1, # of connection points: 2
#     Edge 77, Type (0, 0), BuildingBlock: KIFKEQ_clean_linker_1, # of connection points: 2
#     Edge 78, Type (0, 0), BuildingBlock: KIFKEQ_clean_linker_1, # of connection points: 2
#     Edge 79, Type (0, 0), BuildingBlock: KIFKEQ_clean_linker_1, # of connection points: 2
#     Edge 80, Type (0, 0), BuildingBlock: KIFKEQ_clean_linker_1, # of connection points: 2
#     Edge 81, Type (0, 0), BuildingBlock: KIFKEQ_clean_linker_1, # of connection points: 2
#     Edge 82, Type (0, 0), BuildingBlock: KIFKEQ_clean_linker_1, # of connection points: 2
#     Edge 83, Type (0, 0), BuildingBlock: KIFKEQ_clean_linker_1, # of connection points: 2
#     Edge 84, Type (0, 0), BuildingBlock: KIFKEQ_clean_linker_1, # of connection points: 2
#     Edge 85, Type (0, 0), BuildingBlock: KIFKEQ_clean_linker_1, # of connection points: 2
#     Edge 86, Type (0, 0), BuildingBlock: KIFKEQ_clean_linker_1, # of connection points: 2
#     Edge 87, Type (0, 0), BuildingBlock: KIFKEQ_clean_linker_1, # of connection points: 2
#     Edge 88, Type (0, 0), BuildingBlock: KIFKEQ_clean_linker_1, # of connection points: 2
#     Edge 89, Type (0, 0), BuildingBlock: KIFKEQ_clean_linker_1, # of connection points: 2
#     Edge 90, Type (0, 0), BuildingBlock: KIFKEQ_clean_linker_1, # of connection points: 2
#     Edge 91, Type (0, 0), BuildingBlock: KIFKEQ_clean_linker_1, # of connection points: 2
#     Edge 92, Type (0, 0), BuildingBlock: KIFKEQ_clean_linker_1, # of connection points: 2
#     Edge 93, Type (0, 0), BuildingBlock: KIFKEQ_clean_linker_1, # of connection points: 2
#     Edge 94, Type (0, 0), BuildingBlock: KIFKEQ_clean_linker_1, # of connection points: 2
#     Edge 95, Type (0, 0), BuildingBlock: KIFKEQ_clean_linker_1, # of connection points: 2
#     Edge 96, Type (0, 0), BuildingBlock: KIFKEQ_clean_linker_1, # of connection points: 2
#     Edge 97, Type (0, 0), BuildingBlock: KIFKEQ_clean_linker_1, # of connection points: 2
#     Edge 98, Type (0, 0), BuildingBlock: KIFKEQ_clean_linker_1, # of connection points: 2
#     Edge 99, Type (0, 0), BuildingBlock: KIFKEQ_clean_linker_1, # of connection points: 2
#     Edge 100, Type (0, 0), BuildingBlock: KIFKEQ_clean_linker_1, # of connection points: 2
#     Edge 101, Type (0, 0), BuildingBlock: KIFKEQ_clean_linker_1, # of connection points: 2
#     Edge 102, Type (0, 0), BuildingBlock: KIFKEQ_clean_linker_1, # of connection points: 2
#     Edge 103, Type (0, 0), BuildingBlock: KIFKEQ_clean_linker_1, # of connection points: 2
#     Edge 104, Type (0, 0), BuildingBlock: KIFKEQ_clean_linker_1, # of connection points: 2
#     Edge 105, Type (0, 0), BuildingBlock: KIFKEQ_clean_linker_1, # of connection points: 2
#     Edge 106, Type (0, 0), BuildingBlock: KIFKEQ_clean_linker_1, # of connection points: 2
#     Edge 107, Type (0, 0), BuildingBlock: KIFKEQ_clean_linker_1, # of connection points: 2
#     Edge 108, Type (0, 0), BuildingBlock: KIFKEQ_clean_linker_1, # of connection points: 2
#     Edge 109, Type (0, 0), BuildingBlock: KIFKEQ_clean_linker_1, # of connection points: 2
#     Edge 110, Type (0, 0), BuildingBlock: KIFKEQ_clean_linker_1, # of connection points: 2
#     Edge 111, Type (0, 0), BuildingBlock: KIFKEQ_clean_linker_1, # of connection points: 2
#     Edge 112, Type (0, 0), BuildingBlock: KIFKEQ_clean_linker_1, # of connection points: 2
#     Edge 113, Type (0, 0), BuildingBlock: KIFKEQ_clean_linker_1, # of connection points: 2
#     Edge 114, Type (0, 0), BuildingBlock: KIFKEQ_clean_linker_1, # of connection points: 2
#     Edge 115, Type (0, 0), BuildingBlock: KIFKEQ_clean_linker_1, # of connection points: 2
#     Edge 116, Type (0, 0), BuildingBlock: KIFKEQ_clean_linker_1, # of connection points: 2
#     Edge 117, Type (0, 0), BuildingBlock: KIFKEQ_clean_linker_1, # of connection points: 2
#     Edge 118, Type (0, 0), BuildingBlock: KIFKEQ_clean_linker_1, # of connection points: 2
#     Edge 119, Type (0, 0), BuildingBlock: KIFKEQ_clean_linker_1, # of connection points: 2
#     Edge 120, Type (0, 0), BuildingBlock: KIFKEQ_clean_linker_1, # of connection points: 2
#     Edge 121, Type (0, 0), BuildingBlock: KIFKEQ_clean_linker_1, # of connection points: 2
#     Edge 122, Type (0, 0), BuildingBlock: KIFKEQ_clean_linker_1, # of connection points: 2
#     Edge 123, Type (0, 0), BuildingBlock: KIFKEQ_clean_linker_1, # of connection points: 2
#     Edge 124, Type (0, 0), BuildingBlock: KIFKEQ_clean_linker_1, # of connection points: 2
#     Edge 125, Type (0, 0), BuildingBlock: KIFKEQ_clean_linker_1, # of connection points: 2
#     Edge 126, Type (0, 0), BuildingBlock: KIFKEQ_clean_linker_1, # of connection points: 2
#     Edge 127, Type (0, 0), BuildingBlock: KIFKEQ_clean_linker_1, # of connection points: 2
# Relax obj value: 0.101
# Max RMSD: 0.123
# Mean RMSD: 0.123
data_MOF--net-flu-e--node1-OJICUG_clean_sbu_0--edge1-KIFKEQ_clean_linker_1
_symmetry_space_group_name_H-M    P1
_symmetry_Int_Tables_number       1
_symmetry_cell_setting            triclinic
loop_
_symmetry_equiv_pos_as_xyz
'x, y, z'
_cell_length_a     57.10576
_cell_length_b     57.111346
_cell_length_c     57.106953
_cell_angle_alpha  90.000437
_cell_angle_beta   89.985337
_cell_angle_gamma 89.986653
loop_
_atom_site_label
_atom_site_type_symbol
_atom_site_fract_x
_atom_site_fract_y
_atom_site_fract_z
_atom_type_partial_charge
Sc0 Sc 0.12365 0.16748 0.35786 0.0
Sc1 Sc 0.1231 0.123 0.31514 0.0
Sc2 Sc 0.16752 0.12394 0.35797 0.0
O3 O 0.13807 0.13811 0.34369 0.0
C4 C 0.17808 0.17882 0.36152 0.0
C5 C 0.11791 0.17724 0.30313 0.0
C6 C 0.17768 0.11878 0.30337 0.0
C7 C 0.07828 0.13766 0.34528 0.0
C8 C 0.13869 0.13853 0.40339 0.0
C9 C 0.13818 0.07821 0.34475 0.0
O10 O 0.1568 0.18506 0.35979 0.0
O11 O 0.11954 0.15588 0.29715 0.0
O12 O 0.18449 0.12055 0.32449 0.0
O13 O 0.08885 0.15325 0.35712 0.0
O14 O 0.15358 0.12574 0.39289 0.0
O15 O 0.12517 0.08838 0.32984 0.0
O16 O 0.12706 0.15452 0.39313 0.0
O17 O 0.08831 0.12552 0.32954 0.0
O18 O 0.15433 0.08872 0.35588 0.0
O19 O 0.11866 0.18396 0.32433 0.0
O20 O 0.18447 0.15749 0.36171 0.0
O21 O 0.15621 0.11905 0.29748 0.0
Sc22 Sc 0.81433 0.12449 0.35665 0.0
Sc23 Sc 0.85793 0.16818 0.35721 0.0
Sc24 Sc 0.85766 0.12527 0.31274 0.0
O25 O 0.84333 0.1393 0.34222 0.0
C26 C 0.84437 0.07967 0.34207 0.0
C27 C 0.84358 0.13839 0.4022 0.0
C28 C 0.90311 0.13906 0.34223 0.0
C29 C 0.80319 0.17899 0.36158 0.0
C30 C 0.80319 0.11989 0.30209 0.0
C31 C 0.86198 0.17997 0.30262 0.0
O32 O 0.82886 0.08973 0.35452 0.0
O33 O 0.85597 0.15379 0.39199 0.0
O34 O 0.89274 0.12766 0.32619 0.0
O35 O 0.79691 0.1577 0.36003 0.0
O36 O 0.82441 0.12119 0.29561 0.0
O37 O 0.86167 0.18597 0.32407 0.0
O38 O 0.79699 0.1208 0.32343 0.0
O39 O 0.82452 0.1854 0.36115 0.0
O40 O 0.86049 0.1588 0.29597 0.0
O41 O 0.82785 0.12666 0.39173 0.0
O42 O 0.85604 0.09023 0.32632 0.0
O43 O 0.89281 0.15409 0.35502 0.0
Sc44 Sc 0.85842 0.81577 0.35683 0.0
Sc45 Sc 0.85847 0.85924 0.31301 0.0
Sc46 Sc 0.81443 0.85915 0.35625 0.0
O47 O 0.84379 0.84474 0.34206 0.0
C48 C 0.80392 0.80442 0.36059 0.0
C49 C 0.86353 0.80474 0.30221 0.0
C50 C 0.80392 0.86378 0.30162 0.0
C51 C 0.90358 0.84541 0.34306 0.0
C52 C 0.84324 0.84499 0.40196 0.0
C53 C 0.84397 0.90447 0.34242 0.0
O54 O 0.82526 0.79815 0.35969 0.0
O55 O 0.86173 0.82595 0.29572 0.0
O56 O 0.79734 0.86262 0.32284 0.0
O57 O 0.89314 0.83031 0.35563 0.0
O58 O 0.82806 0.85738 0.39139 0.0
O59 O 0.85656 0.89415 0.32722 0.0
O60 O 0.85528 0.82931 0.39176 0.0
O61 O 0.89341 0.85683 0.32688 0.0
O62 O 0.82805 0.89412 0.35402 0.0
O63 O 0.86315 0.79857 0.32359 0.0
O64 O 0.79748 0.8257 0.35972 0.0
O65 O 0.8253 0.86298 0.29553 0.0
Sc66 Sc 0.12319 0.85732 0.3142 0.0
Sc67 Sc 0.16749 0.85793 0.35715 0.0
Sc68 Sc 0.12431 0.81375 0.35782 0.0
O69 O 0.13832 0.84301 0.34308 0.0
C70 C 0.07864 0.84319 0.34463 0.0
C71 C 0.13755 0.90286 0.34342 0.0
C72 C 0.13904 0.8431 0.40293 0.0
C73 C 0.17728 0.86243 0.30217 0.0
C74 C 0.11849 0.80259 0.30354 0.0
C75 C 0.1793 0.80354 0.36124 0.0
O76 O 0.08874 0.85583 0.32934 0.0
O77 O 0.15266 0.89254 0.35609 0.0
O78 O 0.12643 0.82794 0.39263 0.0
O79 O 0.15601 0.86013 0.2961 0.0
O80 O 0.12051 0.79621 0.32475 0.0
O81 O 0.18542 0.82489 0.35979 0.0
O82 O 0.11879 0.82393 0.29727 0.0
O83 O 0.18386 0.86263 0.32344 0.0
O84 O 0.158 0.79702 0.36106 0.0
O85 O 0.12609 0.8925 0.3274 0.0
O86 O 0.08911 0.82711 0.35592 0.0
O87 O 0.15473 0.85491 0.39247 0.0
Sc88 Sc 0.16619 0.85586 0.6237 0.0
Sc89 Sc 0.12295 0.81177 0.62383 0.0
Sc90 Sc 0.12223 0.85612 0.66691 0.0
O91 O 0.13709 0.84126 0.63812 0.0
C92 C 0.17681 0.86103 0.6782 0.0
C93 C 0.17757 0.80127 0.61952 0.0
C94 C 0.11812 0.80156 0.6786 0.0
C95 C 0.13715 0.84113 0.57839 0.0
C96 C 0.13643 0.90122 0.63737 0.0
C97 C 0.07733 0.84104 0.63715 0.0
O98 O 0.18333 0.85917 0.65701 0.0
O99 O 0.15638 0.79462 0.62082 0.0
O100 O 0.11928 0.82295 0.68468 0.0
O101 O 0.15212 0.85389 0.58881 0.0
O102 O 0.12373 0.89088 0.65243 0.0
O103 O 0.08789 0.82544 0.62529 0.0
O104 O 0.1525 0.89086 0.62596 0.0
O105 O 0.12559 0.82514 0.5887 0.0
O106 O 0.08741 0.85331 0.65274 0.0
O107 O 0.18358 0.82267 0.62006 0.0
O108 O 0.15541 0.86071 0.68435 0.0
O109 O 0.11889 0.79498 0.65735 0.0
Sc110 Sc 0.12481 0.16519 0.62342 0.0
Sc111 Sc 0.12405 0.12265 0.6681 0.0
Sc112 Sc 0.16785 0.12098 0.62472 0.0
O113 O 0.13887 0.13625 0.63872 0.0
C114 C 0.13893 0.13512 0.57885 0.0
C115 C 0.07903 0.13671 0.63842 0.0
C116 C 0.13762 0.07658 0.63922 0.0
C117 C 0.12019 0.17775 0.67747 0.0
C118 C 0.17983 0.17503 0.61927 0.0
C119 C 0.17822 0.11715 0.67965 0.0
O120 O 0.12578 0.14986 0.58908 0.0
O121 O 0.08931 0.12393 0.65348 0.0
O122 O 0.15243 0.08664 0.62597 0.0
O123 O 0.12228 0.18368 0.65613 0.0
O124 O 0.18604 0.15386 0.62229 0.0
O125 O 0.15709 0.12016 0.68594 0.0
O126 O 0.15851 0.18139 0.61838 0.0
O127 O 0.11995 0.15652 0.68417 0.0
O128 O 0.18441 0.11614 0.6583 0.0
O129 O 0.08953 0.15253 0.62681 0.0
O130 O 0.1552 0.12411 0.58932 0.0
O131 O 0.12677 0.08718 0.65554 0.0
Sc132 Sc 0.85877 0.16773 0.62331 0.0
Sc133 Sc 0.81505 0.12417 0.6223 0.0
Sc134 Sc 0.85734 0.12428 0.6672 0.0
O135 O 0.84375 0.1387 0.63757 0.0
C136 C 0.90347 0.13822 0.63865 0.0
C137 C 0.84519 0.13851 0.57761 0.0
C138 C 0.84431 0.07894 0.63747 0.0
C139 C 0.80438 0.17899 0.61791 0.0
C140 C 0.862 0.1787 0.67815 0.0
C141 C 0.80246 0.11933 0.67646 0.0
O142 O 0.89341 0.153 0.62538 0.0
O143 O 0.83003 0.12577 0.58776 0.0
O144 O 0.85622 0.08941 0.65309 0.0
O145 O 0.82562 0.1854 0.61982 0.0
O146 O 0.85957 0.15756 0.68462 0.0
O147 O 0.79663 0.12105 0.65506 0.0
O148 O 0.86271 0.18478 0.65675 0.0
O149 O 0.79813 0.15762 0.61806 0.0
O150 O 0.82361 0.11981 0.68329 0.0
O151 O 0.85654 0.15449 0.58813 0.0
O152 O 0.89278 0.12712 0.65472 0.0
O153 O 0.82882 0.08915 0.62515 0.0
Sc154 Sc 0.85698 0.81517 0.62215 0.0
Sc155 Sc 0.85684 0.85817 0.66636 0.0
Sc156 Sc 0.81245 0.85795 0.62334 0.0
O157 O 0.84211 0.8438 0.63726 0.0
C158 C 0.84156 0.84495 0.57746 0.0
C159 C 0.90206 0.84492 0.6364 0.0
C160 C 0.84155 0.90349 0.63742 0.0
C161 C 0.86223 0.80354 0.67659 0.0
C162 C 0.80249 0.80326 0.61818 0.0
C163 C 0.80229 0.86192 0.67811 0.0
O164 O 0.85438 0.82973 0.58745 0.0
O165 O 0.8917 0.85661 0.65224 0.0
O166 O 0.8258 0.89308 0.62563 0.0
O167 O 0.86098 0.79745 0.65521 0.0
O168 O 0.79569 0.82441 0.61962 0.0
O169 O 0.8237 0.86107 0.68413 0.0
O170 O 0.82394 0.79738 0.61871 0.0
O171 O 0.86117 0.82476 0.68322 0.0
O172 O 0.79566 0.86109 0.65689 0.0
O173 O 0.89178 0.82953 0.62405 0.0
O174 O 0.82568 0.85632 0.58814 0.0
O175 O 0.85415 0.89318 0.65261 0.0
Sc176 Sc 0.35846 0.16719 0.12527 0.0
Sc177 Sc 0.31445 0.12392 0.12407 0.0
Sc178 Sc 0.35742 0.12313 0.16834 0.0
O179 O 0.34346 0.13805 0.1392 0.0
C180 C 0.40321 0.13727 0.13929 0.0
C181 C 0.34426 0.13836 0.07939 0.0
C182 C 0.34335 0.07822 0.13856 0.0
C183 C 0.30431 0.17893 0.12015 0.0
C184 C 0.36276 0.17721 0.18019 0.0
C185 C 0.30241 0.11905 0.17823 0.0
O186 O 0.39293 0.15204 0.12619 0.0
O187 O 0.32962 0.12507 0.0896 0.0
O188 O 0.35627 0.08851 0.15347 0.0
O189 O 0.32546 0.1852 0.12314 0.0
O190 O 0.35986 0.15605 0.18639 0.0
O191 O 0.29621 0.12124 0.15696 0.0
O192 O 0.36352 0.18355 0.15887 0.0
O193 O 0.29804 0.15758 0.11921 0.0
O194 O 0.32372 0.11878 0.18466 0.0
O195 O 0.35518 0.15465 0.0899 0.0
O196 O 0.39279 0.12619 0.15556 0.0
O197 O 0.32728 0.08865 0.12723 0.0
Sc198 Sc 0.85753 0.3157 0.12338 0.0
Sc199 Sc 0.85678 0.35975 0.16664 0.0
Sc200 Sc 0.81271 0.35818 0.12354 0.0
O201 O 0.84237 0.34456 0.13782 0.0
C202 C 0.84209 0.3445 0.07805 0.0
C203 C 0.9024 0.34552 0.1375 0.0
C204 C 0.84201 0.40414 0.13643 0.0
C205 C 0.86189 0.30551 0.17834 0.0
C206 C 0.80316 0.30325 0.11943 0.0
C207 C 0.80214 0.36399 0.17789 0.0
O208 O 0.85466 0.32927 0.08832 0.0
O209 O 0.89196 0.35691 0.1535 0.0
O210 O 0.8257 0.39356 0.12555 0.0
O211 O 0.86208 0.29904 0.15701 0.0
O212 O 0.79637 0.32442 0.12031 0.0
O213 O 0.82356 0.36447 0.18385 0.0
O214 O 0.82463 0.2974 0.12027 0.0
O215 O 0.85963 0.32677 0.18455 0.0
O216 O 0.79555 0.36131 0.15683 0.0
O217 O 0.89213 0.3305 0.12472 0.0
O218 O 0.82635 0.35628 0.0885 0.0
O219 O 0.85514 0.39413 0.15137 0.0
Sc220 Sc 0.66701 0.85722 0.12271 0.0
Sc221 Sc 0.62369 0.81319 0.12394 0.0
Sc222 Sc 0.6238 0.85758 0.16678 0.0
O223 O 0.63815 0.84268 0.13779 0.0
C224 C 0.67867 0.86209 0.17704 0.0
C225 C 0.6781 0.8025 0.11847 0.0
C226 C 0.61938 0.80319 0.17872 0.0
C227 C 0.63699 0.8425 0.07814 0.0
C228 C 0.63776 0.90267 0.13706 0.0
C229 C 0.57839 0.84267 0.13774 0.0
O230 O 0.68494 0.86048 0.15572 0.0
O231 O 0.657 0.79593 0.12095 0.0
O232 O 0.6209 0.82455 0.18475 0.0
O233 O 0.65196 0.85553 0.08822 0.0
O234 O 0.6252 0.89236 0.15226 0.0
O235 O 0.58879 0.82712 0.12568 0.0
O236 O 0.65364 0.89229 0.12545 0.0
O237 O 0.62599 0.82627 0.08868 0.0
O238 O 0.58869 0.8549 0.15324 0.0
O239 O 0.68414 0.82392 0.11817 0.0
O240 O 0.65736 0.86167 0.18348 0.0
O241 O 0.61977 0.79657 0.15749 0.0
Sc242 Sc 0.12442 0.66571 0.12528 0.0
Sc243 Sc 0.12513 0.6222 0.16894 0.0
Sc244 Sc 0.16906 0.62296 0.12553 0.0
O245 O 0.13953 0.63694 0.13989 0.0
C246 C 0.13979 0.6366 0.08005 0.0
C247 C 0.07959 0.63582 0.13942 0.0
C248 C 0.13984 0.57728 0.13929 0.0
C249 C 0.11961 0.67652 0.18 0.0
C250 C 0.17882 0.67786 0.12107 0.0
C251 C 0.17981 0.6181 0.18002 0.0
O252 O 0.1275 0.65208 0.09028 0.0
O253 O 0.08998 0.62462 0.15559 0.0
O254 O 0.1559 0.58773 0.12794 0.0
O255 O 0.11953 0.68273 0.15862 0.0
O256 O 0.18553 0.65664 0.12156 0.0
O257 O 0.15842 0.61836 0.1861 0.0
O258 O 0.15742 0.68384 0.12254 0.0
O259 O 0.12196 0.65535 0.18645 0.0
O260 O 0.18639 0.6198 0.15883 0.0
O261 O 0.08986 0.65079 0.12655 0.0
O262 O 0.1553 0.62458 0.09054 0.0
O263 O 0.127 0.58749 0.15435 0.0
Sc264 Sc 0.31273 0.85875 0.8578 0.0
Sc265 Sc 0.35703 0.81577 0.85794 0.0
Sc266 Sc 0.35602 0.85899 0.81382 0.0
O267 O 0.34196 0.84452 0.84322 0.0
C268 C 0.30119 0.86353 0.80352 0.0
C269 C 0.30262 0.80407 0.86291 0.0
C270 C 0.36053 0.80442 0.80314 0.0
C271 C 0.34262 0.84544 0.90306 0.0
C272 C 0.34218 0.90414 0.84345 0.0
C273 C 0.40193 0.84498 0.84263 0.0
O274 O 0.29501 0.86154 0.82477 0.0
O275 O 0.324 0.79793 0.86185 0.0
O276 O 0.35841 0.82558 0.79654 0.0
O277 O 0.32686 0.85725 0.89268 0.0
O278 O 0.35481 0.89376 0.82832 0.0
O279 O 0.39169 0.83024 0.85577 0.0
O280 O 0.32614 0.89385 0.85499 0.0
O281 O 0.35486 0.82993 0.8928 0.0
O282 O 0.39141 0.85618 0.82655 0.0
O283 O 0.29605 0.82529 0.86182 0.0
O284 O 0.32249 0.86351 0.79709 0.0
O285 O 0.36092 0.7984 0.8246 0.0
Sc286 Sc 0.12316 0.35801 0.81355 0.0
Sc287 Sc 0.16561 0.35686 0.85832 0.0
Sc288 Sc 0.12202 0.31326 0.85607 0.0
O289 O 0.1369 0.34275 0.84267 0.0
C290 C 0.07719 0.3432 0.84204 0.0
C291 C 0.13669 0.40265 0.84398 0.0
C292 C 0.13533 0.34171 0.90247 0.0
C293 C 0.17821 0.3624 0.80422 0.0
C294 C 0.11831 0.30391 0.80104 0.0
C295 C 0.17622 0.30193 0.86175 0.0
O296 O 0.08773 0.3551 0.82642 0.0
O297 O 0.15235 0.39212 0.85579 0.0
O298 O 0.12447 0.32556 0.89167 0.0
O299 O 0.15698 0.36263 0.79749 0.0
O300 O 0.11785 0.29722 0.82225 0.0
O301 O 0.18238 0.3233 0.8628 0.0
O302 O 0.12067 0.32523 0.79514 0.0
O303 O 0.18409 0.35999 0.82556 0.0
O304 O 0.15512 0.29558 0.85868 0.0
O305 O 0.12442 0.39251 0.82844 0.0
O306 O 0.08738 0.32782 0.85448 0.0
O307 O 0.15016 0.35503 0.89259 0.0
Sc308 Sc 0.62389 0.16626 0.85731 0.0
Sc309 Sc 0.62369 0.12262 0.81367 0.0
Sc310 Sc 0.66803 0.12315 0.8567 0.0
O311 O 0.63851 0.13731 0.84258 0.0
C312 C 0.67835 0.17787 0.86166 0.0
C313 C 0.61868 0.17712 0.80267 0.0
C314 C 0.67832 0.11878 0.80205 0.0
C315 C 0.57859 0.1367 0.84355 0.0
C316 C 0.63885 0.13653 0.90231 0.0
C317 C 0.63879 0.07748 0.84269 0.0
O318 O 0.65701 0.18401 0.86028 0.0
O319 O 0.61999 0.15583 0.79629 0.0
O320 O 0.68498 0.12065 0.8232 0.0
O321 O 0.58906 0.15196 0.8559 0.0
O322 O 0.6543 0.12447 0.89174 0.0
O323 O 0.62575 0.08784 0.82793 0.0
O324 O 0.62669 0.15222 0.89221 0.0
O325 O 0.58879 0.12498 0.82762 0.0
O326 O 0.65492 0.08788 0.85397 0.0
O327 O 0.61964 0.18345 0.82399 0.0
O328 O 0.68485 0.1566 0.86098 0.0
O329 O 0.65687 0.11865 0.7961 0.0
Sc330 Sc 0.81467 0.62467 0.85726 0.0
Sc331 Sc 0.85845 0.66809 0.85667 0.0
Sc332 Sc 0.85776 0.62453 0.81291 0.0
O333 O 0.84364 0.63907 0.84229 0.0
C334 C 0.8438 0.57926 0.84245 0.0
C335 C 0.84466 0.63868 0.90218 0.0
C336 C 0.90343 0.63841 0.84194 0.0
C337 C 0.804 0.67931 0.86207 0.0
C338 C 0.80297 0.62005 0.80281 0.0
C339 C 0.86251 0.67906 0.80195 0.0
O340 O 0.82845 0.58964 0.8548 0.0
O341 O 0.85663 0.65426 0.89172 0.0
O342 O 0.89294 0.62666 0.82622 0.0
O343 O 0.7976 0.65801 0.86149 0.0
O344 O 0.8242 0.62076 0.79619 0.0
O345 O 0.86182 0.68534 0.82329 0.0
O346 O 0.79689 0.6214 0.82419 0.0
O347 O 0.82528 0.6856 0.86038 0.0
O348 O 0.86127 0.65779 0.79556 0.0
O349 O 0.82903 0.62657 0.89199 0.0
O350 O 0.85574 0.5896 0.82678 0.0
O351 O 0.89324 0.65379 0.85441 0.0
Sc352 Sc 0.1664 0.35686 0.12315 0.0
Sc353 Sc 0.1231 0.31276 0.1235 0.0
Sc354 Sc 0.12308 0.35639 0.1671 0.0
O355 O 0.13751 0.34202 0.13788 0.0
C356 C 0.17757 0.36136 0.17786 0.0
C357 C 0.17792 0.30238 0.11894 0.0
C358 C 0.11835 0.30174 0.17796 0.0
C359 C 0.13701 0.342 0.07798 0.0
C360 C 0.13695 0.40191 0.13766 0.0
C361 C 0.0778 0.34232 0.13762 0.0
O362 O 0.18367 0.36137 0.15644 0.0
O363 O 0.15663 0.29588 0.11979 0.0
O364 O 0.11908 0.32307 0.18419 0.0
O365 O 0.15273 0.35399 0.08817 0.0
O366 O 0.12568 0.39151 0.15378 0.0
O367 O 0.08806 0.32636 0.12597 0.0
O368 O 0.15184 0.3916 0.12471 0.0
O369 O 0.12474 0.32671 0.08851 0.0
O370 O 0.0882 0.35484 0.15282 0.0
O371 O 0.1841 0.32374 0.11999 0.0
O372 O 0.1564 0.35928 0.18439 0.0
O373 O 0.11971 0.29531 0.15671 0.0
Sc374 Sc 0.12423 0.66731 0.85893 0.0
Sc375 Sc 0.12405 0.62265 0.81623 0.0
Sc376 Sc 0.16791 0.62364 0.85954 0.0
O377 O 0.1387 0.63785 0.84493 0.0
C378 C 0.17869 0.67838 0.86351 0.0
C379 C 0.11965 0.677 0.80401 0.0
C380 C 0.17875 0.618 0.80519 0.0
C381 C 0.07881 0.63793 0.84542 0.0
C382 C 0.13848 0.63833 0.90461 0.0
C383 C 0.13841 0.57797 0.84628 0.0
O384 O 0.15745 0.68479 0.86194 0.0
O385 O 0.12124 0.6556 0.79805 0.0
O386 O 0.18526 0.62044 0.82632 0.0
O387 O 0.0893 0.65341 0.85747 0.0
O388 O 0.15357 0.62558 0.89433 0.0
O389 O 0.12544 0.58815 0.83133 0.0
O390 O 0.12689 0.65424 0.89418 0.0
O391 O 0.08904 0.62568 0.8299 0.0
O392 O 0.15465 0.58844 0.85732 0.0
O393 O 0.12008 0.68372 0.82524 0.0
O394 O 0.18494 0.65703 0.8632 0.0
O395 O 0.15735 0.61779 0.79908 0.0
Sc396 Sc 0.31459 0.12416 0.85833 0.0
Sc397 Sc 0.35749 0.1685 0.85898 0.0
Sc398 Sc 0.35853 0.12529 0.81502 0.0
O399 O 0.34355 0.1393 0.84413 0.0
C400 C 0.34436 0.07947 0.84394 0.0
C401 C 0.34353 0.13875 0.90396 0.0
C402 C 0.40325 0.13934 0.84497 0.0
C403 C 0.30248 0.17833 0.86312 0.0
C404 C 0.30438 0.12009 0.80333 0.0
C405 C 0.36286 0.18019 0.80488 0.0
O406 O 0.32976 0.08971 0.85724 0.0
O407 O 0.35637 0.15371 0.89363 0.0
O408 O 0.39298 0.12623 0.8302 0.0
O409 O 0.29636 0.15704 0.86097 0.0
O410 O 0.32551 0.12308 0.79701 0.0
O411 O 0.35994 0.18645 0.82602 0.0
O412 O 0.29815 0.11924 0.82471 0.0
O413 O 0.32377 0.18483 0.86335 0.0
O414 O 0.3636 0.15886 0.79859 0.0
O415 O 0.32748 0.12737 0.89357 0.0
O416 O 0.35526 0.08994 0.8276 0.0
O417 O 0.39286 0.15569 0.85597 0.0
Sc418 Sc 0.85724 0.31514 0.85673 0.0
Sc419 Sc 0.85545 0.35896 0.81348 0.0
Sc420 Sc 0.81287 0.35804 0.85813 0.0
O421 O 0.84187 0.34408 0.84281 0.0
C422 C 0.80319 0.30295 0.86217 0.0
C423 C 0.86097 0.30492 0.80175 0.0
C424 C 0.80034 0.36289 0.80414 0.0
C425 C 0.90165 0.3452 0.84204 0.0
C426 C 0.84309 0.34398 0.90264 0.0
C427 C 0.84153 0.40382 0.84339 0.0
O428 O 0.8244 0.29688 0.85915 0.0
O429 O 0.85774 0.32601 0.79548 0.0
O430 O 0.79435 0.36053 0.82544 0.0
O431 O 0.8916 0.33057 0.85548 0.0
O432 O 0.82825 0.35707 0.89247 0.0
O433 O 0.8544 0.39353 0.82842 0.0
O434 O 0.85412 0.32776 0.89212 0.0
O435 O 0.89099 0.356 0.82575 0.0
O436 O 0.82549 0.3934 0.85479 0.0
O437 O 0.86214 0.29871 0.82309 0.0
O438 O 0.79671 0.32424 0.86312 0.0
O439 O 0.82159 0.36334 0.79753 0.0
Sc440 Sc 0.62263 0.85575 0.81391 0.0
Sc441 Sc 0.66622 0.85702 0.85757 0.0
Sc442 Sc 0.62294 0.81305 0.85836 0.0
O443 O 0.63724 0.84196 0.84331 0.0
C444 C 0.57748 0.84231 0.84347 0.0
C445 C 0.637 0.90184 0.84237 0.0
C446 C 0.63661 0.84334 0.90305 0.0
C447 C 0.67697 0.86017 0.80266 0.0
C448 C 0.61813 0.80071 0.80437 0.0
C449 C 0.67782 0.80285 0.86329 0.0
O450 O 0.588 0.8552 0.82867 0.0
O451 O 0.65148 0.89159 0.85579 0.0
O452 O 0.62381 0.82829 0.89281 0.0
O453 O 0.65583 0.85749 0.79625 0.0
O454 O 0.62075 0.7947 0.82561 0.0
O455 O 0.68411 0.82406 0.86096 0.0
O456 O 0.61755 0.82197 0.7978 0.0
O457 O 0.6831 0.8612 0.82405 0.0
O458 O 0.65649 0.79648 0.86329 0.0
O459 O 0.62601 0.89129 0.82614 0.0
O460 O 0.58769 0.82607 0.8548 0.0
O461 O 0.65285 0.85448 0.89269 0.0
Sc462 Sc 0.85928 0.66873 0.12361 0.0
Sc463 Sc 0.81582 0.62496 0.12182 0.0
Sc464 Sc 0.8583 0.62437 0.16656 0.0
O465 O 0.84449 0.63933 0.13731 0.0
C466 C 0.90418 0.63896 0.13788 0.0
C467 C 0.8461 0.63978 0.07751 0.0
C468 C 0.84479 0.5794 0.13657 0.0
C469 C 0.80501 0.67977 0.11783 0.0
C470 C 0.86313 0.67866 0.17851 0.0
C471 C 0.80329 0.61984 0.17599 0.0
O472 O 0.89401 0.65436 0.12543 0.0
O473 O 0.8312 0.62661 0.08749 0.0
O474 O 0.85695 0.58968 0.15209 0.0
O475 O 0.82611 0.68624 0.12067 0.0
O476 O 0.86098 0.65737 0.1846 0.0
O477 O 0.79738 0.62192 0.15462 0.0
O478 O 0.86331 0.68517 0.15724 0.0
O479 O 0.79891 0.65838 0.11717 0.0
O480 O 0.82452 0.61994 0.18275 0.0
O481 O 0.85699 0.656 0.08817 0.0
O482 O 0.89364 0.62708 0.1535 0.0
O483 O 0.82921 0.58982 0.12455 0.0
Sc484 Sc 0.35826 0.81393 0.12393 0.0
Sc485 Sc 0.35728 0.85709 0.16794 0.0
Sc486 Sc 0.31464 0.85768 0.12331 0.0
O487 O 0.34342 0.84294 0.13836 0.0
C488 C 0.34433 0.84335 0.07839 0.0
C489 C 0.40305 0.8436 0.13866 0.0
C490 C 0.34392 0.90274 0.13869 0.0
C491 C 0.36251 0.80269 0.1786 0.0
C492 C 0.3038 0.80285 0.11905 0.0
C493 C 0.30249 0.86177 0.17769 0.0
O494 O 0.35558 0.8272 0.08875 0.0
O495 O 0.39254 0.8547 0.15485 0.0
O496 O 0.32857 0.89262 0.12615 0.0
O497 O 0.36277 0.79665 0.15719 0.0
O498 O 0.29755 0.82424 0.11888 0.0
O499 O 0.32367 0.8607 0.18438 0.0
O500 O 0.32503 0.79645 0.12113 0.0
O501 O 0.36016 0.8238 0.18512 0.0
O502 O 0.29651 0.86097 0.15627 0.0
O503 O 0.39289 0.8287 0.12558 0.0
O504 O 0.32938 0.85619 0.08871 0.0
O505 O 0.35567 0.89215 0.15435 0.0
Sc506 Sc 0.62432 0.16746 0.12316 0.0
Sc507 Sc 0.62405 0.12368 0.1668 0.0
Sc508 Sc 0.66711 0.12292 0.12263 0.0
O509 O 0.63846 0.138 0.1375 0.0
C510 C 0.63751 0.13781 0.07767 0.0
C511 C 0.57872 0.13865 0.13772 0.0
C512 C 0.63711 0.0781 0.13732 0.0
C513 C 0.62035 0.17837 0.17781 0.0
C514 C 0.67909 0.17736 0.11806 0.0
C515 C 0.67862 0.1182 0.17712 0.0
O516 O 0.62596 0.1537 0.08813 0.0
O517 O 0.58904 0.12627 0.15307 0.0
O518 O 0.65253 0.08818 0.12481 0.0
O519 O 0.62116 0.18474 0.1565 0.0
O520 O 0.68503 0.15593 0.11901 0.0
O521 O 0.65741 0.11948 0.18375 0.0
O522 O 0.6579 0.18411 0.1192 0.0
O523 O 0.62121 0.15704 0.18409 0.0
O524 O 0.68471 0.11913 0.15574 0.0
O525 O 0.58915 0.15418 0.12565 0.0
O526 O 0.65279 0.12523 0.08786 0.0
O527 O 0.62554 0.08867 0.15311 0.0
Sc528 Sc 0.35796 0.66629 0.62527 0.0
Sc529 Sc 0.31423 0.62276 0.62508 0.0
Sc530 Sc 0.35736 0.62284 0.66921 0.0
O531 O 0.34322 0.63727 0.63983 0.0
C532 C 0.40304 0.637 0.64017 0.0
C533 C 0.34373 0.63719 0.57982 0.0
C534 C 0.34401 0.57763 0.6392 0.0
C535 C 0.30332 0.67731 0.62072 0.0
C536 C 0.36167 0.67745 0.68003 0.0
C537 C 0.30276 0.61751 0.67952 0.0
O538 O 0.39278 0.6521 0.62746 0.0
O539 O 0.32798 0.62529 0.59009 0.0
O540 O 0.35576 0.58793 0.65508 0.0
O541 O 0.32465 0.68367 0.6214 0.0
O542 O 0.36006 0.65621 0.68651 0.0
O543 O 0.29666 0.61878 0.65817 0.0
O544 O 0.36157 0.68361 0.65863 0.0
O545 O 0.29698 0.65602 0.62195 0.0
O546 O 0.32398 0.61857 0.68607 0.0
O547 O 0.3561 0.65242 0.59029 0.0
O548 O 0.39259 0.62543 0.65606 0.0
O549 O 0.32856 0.58795 0.62692 0.0
Sc550 Sc 0.66631 0.35733 0.62456 0.0
Sc551 Sc 0.62372 0.31288 0.62284 0.0
Sc552 Sc 0.62148 0.35598 0.66677 0.0
O553 O 0.63715 0.34208 0.63804 0.0
C554 C 0.67507 0.3616 0.6798 0.0
C555 C 0.67896 0.30353 0.61958 0.0
C556 C 0.61775 0.30088 0.67667 0.0
C557 C 0.63808 0.34265 0.57836 0.0
C558 C 0.63611 0.40185 0.63793 0.0
C559 C 0.57747 0.34165 0.63633 0.0
O560 O 0.68167 0.36315 0.65858 0.0
O561 O 0.65771 0.29712 0.6177 0.0
O562 O 0.61581 0.32221 0.6828 0.0
O563 O 0.65457 0.35329 0.58889 0.0
O564 O 0.62537 0.39149 0.65447 0.0
O565 O 0.58804 0.32489 0.62615 0.0
O566 O 0.65059 0.39149 0.62458 0.0
O567 O 0.62444 0.32835 0.58857 0.0
O568 O 0.58755 0.35541 0.65062 0.0
O569 O 0.6849 0.32464 0.62335 0.0
O570 O 0.65395 0.35778 0.68565 0.0
O571 O 0.62185 0.29468 0.65569 0.0
Sc572 Sc 0.35716 0.31514 0.3578 0.0
Sc573 Sc 0.35769 0.35826 0.3137 0.0
Sc574 Sc 0.3135 0.35882 0.35684 0.0
O575 O 0.34281 0.3441 0.34281 0.0
C576 C 0.30234 0.30437 0.36134 0.0
C577 C 0.36254 0.3035 0.30351 0.0
C578 C 0.3034 0.36317 0.30192 0.0
C579 C 0.40265 0.3444 0.34382 0.0
C580 C 0.34208 0.3446 0.40274 0.0
C581 C 0.34338 0.40379 0.34292 0.0
O582 O 0.32372 0.29816 0.36129 0.0
O583 O 0.36187 0.32475 0.29698 0.0
O584 O 0.29693 0.36324 0.32322 0.0
O585 O 0.39219 0.32869 0.35561 0.0
O586 O 0.32624 0.35609 0.39215 0.0
O587 O 0.35491 0.39341 0.32694 0.0
O588 O 0.35499 0.3296 0.39256 0.0
O589 O 0.39244 0.35675 0.32836 0.0
O590 O 0.32817 0.39351 0.35553 0.0
O591 O 0.36099 0.29735 0.32483 0.0
O592 O 0.29587 0.32561 0.35967 0.0
O593 O 0.32468 0.36108 0.29578 0.0
Sc594 Sc 0.62572 0.6672 0.35777 0.0
Sc595 Sc 0.62494 0.62325 0.31437 0.0
Sc596 Sc 0.66969 0.62386 0.35685 0.0
O597 O 0.64009 0.63808 0.34302 0.0
C598 C 0.68037 0.67839 0.36126 0.0
C599 C 0.62044 0.67789 0.3032 0.0
C600 C 0.67934 0.61874 0.30206 0.0
C601 C 0.58013 0.63793 0.34442 0.0
C602 C 0.6409 0.63784 0.40274 0.0
C603 C 0.63985 0.57838 0.34402 0.0
O604 O 0.659 0.68456 0.36119 0.0
O605 O 0.62132 0.65653 0.29695 0.0
O606 O 0.68613 0.62028 0.32318 0.0
O607 O 0.59071 0.65362 0.35607 0.0
O608 O 0.6567 0.62621 0.39219 0.0
O609 O 0.62712 0.58855 0.32886 0.0
O610 O 0.62817 0.653 0.39255 0.0
O611 O 0.5902 0.62552 0.32893 0.0
O612 O 0.65597 0.5888 0.35529 0.0
O613 O 0.6217 0.68437 0.32446 0.0
O614 O 0.68684 0.65718 0.35964 0.0
O615 O 0.65785 0.6192 0.29625 0.0
Sc616 Sc 0.31583 0.6249 0.35937 0.0
Sc617 Sc 0.36002 0.66802 0.35823 0.0
Sc618 Sc 0.35916 0.62363 0.31548 0.0
O619 O 0.34502 0.63882 0.34439 0.0
C620 C 0.3448 0.57904 0.34559 0.0
C621 C 0.34529 0.63958 0.40422 0.0
C622 C 0.40478 0.63785 0.34469 0.0
C623 C 0.30579 0.67996 0.36263 0.0
C624 C 0.30429 0.61943 0.30517 0.0
C625 C 0.36462 0.67759 0.30321 0.0
O626 O 0.32867 0.58958 0.35673 0.0
O627 O 0.35648 0.65573 0.39374 0.0
O628 O 0.39437 0.62669 0.32849 0.0
O629 O 0.29942 0.65865 0.36361 0.0
O630 O 0.32564 0.61917 0.2989 0.0
O631 O 0.36526 0.68413 0.32448 0.0
O632 O 0.29791 0.62181 0.32636 0.0
O633 O 0.32701 0.68614 0.35999 0.0
O634 O 0.3618 0.65638 0.2972 0.0
O635 O 0.33062 0.62639 0.39394 0.0
O636 O 0.35781 0.58917 0.33063 0.0
O637 O 0.39453 0.6528 0.35763 0.0
Sc638 Sc 0.62392 0.3582 0.31363 0.0
Sc639 Sc 0.66664 0.35824 0.3581 0.0
Sc640 Sc 0.62321 0.31439 0.35717 0.0
O641 O 0.6379 0.34363 0.34299 0.0
C642 C 0.57813 0.34362 0.34236 0.0
C643 C 0.63678 0.40332 0.34375 0.0
C644 C 0.63695 0.34339 0.40293 0.0
C645 C 0.67865 0.36376 0.3039 0.0
C646 C 0.61977 0.30382 0.30226 0.0
C647 C 0.67777 0.30353 0.36212 0.0
O648 O 0.58861 0.35497 0.32634 0.0
O649 O 0.65249 0.39312 0.35578 0.0
O650 O 0.62548 0.32751 0.39239 0.0
O651 O 0.65744 0.36313 0.29726 0.0
O652 O 0.61928 0.29753 0.32361 0.0
O653 O 0.6839 0.32493 0.36181 0.0
O654 O 0.62189 0.32505 0.29596 0.0
O655 O 0.68469 0.3619 0.32522 0.0
O656 O 0.65654 0.29699 0.3605 0.0
O657 O 0.62484 0.39294 0.32809 0.0
O658 O 0.5884 0.32877 0.35539 0.0
O659 O 0.65207 0.35614 0.39276 0.0
Sc660 Sc 0.35708 0.31353 0.62367 0.0
Sc661 Sc 0.35717 0.35765 0.66689 0.0
Sc662 Sc 0.3129 0.35661 0.62389 0.0
O663 O 0.3424 0.34262 0.63813 0.0
C664 C 0.34201 0.34259 0.57835 0.0
C665 C 0.40227 0.34338 0.63706 0.0
C666 C 0.34213 0.4024 0.63728 0.0
C667 C 0.36233 0.30334 0.67846 0.0
C668 C 0.30275 0.30175 0.6196 0.0
C669 C 0.3025 0.36162 0.67849 0.0
O670 O 0.35398 0.32687 0.58861 0.0
O671 O 0.39208 0.35514 0.65297 0.0
O672 O 0.32593 0.39192 0.62617 0.0
O673 O 0.36149 0.29682 0.65719 0.0
O674 O 0.29619 0.323 0.62023 0.0
O675 O 0.32396 0.36183 0.68444 0.0
O676 O 0.32411 0.29566 0.62082 0.0
O677 O 0.36086 0.32466 0.68466 0.0
O678 O 0.29587 0.35949 0.65736 0.0
O679 O 0.39182 0.32803 0.62481 0.0
O680 O 0.3268 0.35503 0.58884 0.0
O681 O 0.35516 0.39222 0.65216 0.0
Sc682 Sc 0.62393 0.66662 0.62406 0.0
Sc683 Sc 0.62356 0.62206 0.66676 0.0
Sc684 Sc 0.66742 0.62289 0.62325 0.0
O685 O 0.63826 0.63715 0.638 0.0
C686 C 0.63806 0.63761 0.57827 0.0
C687 C 0.57845 0.63712 0.63736 0.0
C688 C 0.63807 0.57724 0.637 0.0
C689 C 0.61906 0.67638 0.6789 0.0
C690 C 0.67833 0.67764 0.61934 0.0
C691 C 0.67833 0.61785 0.67771 0.0
O692 O 0.62667 0.65364 0.58873 0.0
O693 O 0.58864 0.62478 0.65284 0.0
O694 O 0.65419 0.58766 0.62574 0.0
O695 O 0.61998 0.68304 0.65769 0.0
O696 O 0.68455 0.65628 0.61902 0.0
O697 O 0.65694 0.61768 0.68393 0.0
O698 O 0.65714 0.684 0.62148 0.0
O699 O 0.62015 0.65497 0.6849 0.0
O700 O 0.68477 0.61998 0.65651 0.0
O701 O 0.58895 0.65273 0.62547 0.0
O702 O 0.65296 0.62463 0.58854 0.0
O703 O 0.62523 0.5875 0.65199 0.0
H704 H 0.10494 0.25606 0.17278 0.0
H705 H 0.12751 0.30633 0.22465 0.0
H706 H 0.10261 0.226 0.20294 0.0
H707 H 0.12613 0.27613 0.25459 0.0
H708 H 0.12833 0.17255 0.25669 0.0
H709 H 0.12725 0.20261 0.22659 0.0
H710 H 0.10096 0.25238 0.27725 0.0
H711 H 0.10298 0.22251 0.30759 0.0
C712 C 0.1095 0.26067 0.19061 0.0
C713 C 0.1164 0.28358 0.19632 0.0
C714 C 0.10829 0.2434 0.20789 0.0
C715 C 0.11424 0.24858 0.23122 0.0
C716 C 0.121 0.27157 0.23691 0.0
C717 C 0.12192 0.28889 0.2197 0.0
C718 C 0.12218 0.18987 0.26138 0.0
C719 C 0.11583 0.19516 0.28456 0.0
C720 C 0.12143 0.20711 0.24406 0.0
C721 C 0.11406 0.22999 0.24945 0.0
C722 C 0.10717 0.23509 0.27255 0.0
C723 C 0.10819 0.21793 0.28993 0.0
H724 H 0.6738 0.1041 0.2226 0.0
H725 H 0.72513 0.12824 0.17248 0.0
H726 H 0.70395 0.10242 0.25267 0.0
H727 H 0.75506 0.1275 0.20273 0.0
H728 H 0.80841 0.10563 0.25671 0.0
H729 H 0.77836 0.10304 0.22659 0.0
H730 H 0.72669 0.12778 0.27613 0.0
H731 H 0.75654 0.12943 0.30644 0.0
C732 C 0.69152 0.10912 0.21803 0.0
C733 C 0.69707 0.11632 0.19516 0.0
C734 C 0.70879 0.10829 0.23531 0.0
C735 C 0.73195 0.11493 0.2302 0.0
C736 C 0.73752 0.12188 0.20723 0.0
C737 C 0.72031 0.12242 0.18988 0.0
C738 C 0.7906 0.11041 0.26118 0.0
C739 C 0.78485 0.11774 0.28395 0.0
C740 C 0.77338 0.10905 0.24388 0.0
C741 C 0.75008 0.11528 0.24887 0.0
C742 C 0.74435 0.12245 0.27173 0.0
C743 C 0.7615 0.12352 0.2891 0.0
H744 H 0.87684 0.75904 0.30786 0.0
H745 H 0.85421 0.80877 0.25546 0.0
H746 H 0.87863 0.72854 0.27811 0.0
H747 H 0.85517 0.77814 0.22595 0.0
H748 H 0.87836 0.72375 0.17369 0.0
H749 H 0.88044 0.75394 0.20365 0.0
H750 H 0.85341 0.70506 0.25476 0.0
H751 H 0.85217 0.67462 0.22496 0.0
C752 C 0.87219 0.76346 0.29001 0.0
C753 C 0.86539 0.78635 0.28404 0.0
C754 C 0.87308 0.74592 0.27297 0.0
C755 C 0.86698 0.75083 0.24962 0.0
C756 C 0.86038 0.77379 0.24365 0.0
C757 C 0.85972 0.79137 0.26063 0.0
C758 C 0.87295 0.71941 0.19135 0.0
C759 C 0.86505 0.69678 0.19692 0.0
C760 C 0.87403 0.73677 0.20852 0.0
C761 C 0.86697 0.73201 0.23162 0.0
C762 C 0.85932 0.70928 0.23724 0.0
C763 C 0.85848 0.69183 0.22012 0.0
H764 H 0.22226 0.87828 0.30634 0.0
H765 H 0.17292 0.85067 0.25602 0.0
H766 H 0.25214 0.88011 0.27599 0.0
H767 H 0.20303 0.85163 0.22592 0.0
H768 H 0.30666 0.85306 0.22447 0.0
H769 H 0.27621 0.8544 0.2541 0.0
H770 H 0.22614 0.87639 0.20175 0.0
H771 H 0.25652 0.87418 0.17185 0.0
C772 C 0.21782 0.87252 0.28882 0.0
C773 C 0.19524 0.86429 0.28361 0.0
C774 C 0.23499 0.87345 0.27143 0.0
C775 C 0.23006 0.86589 0.24851 0.0
C776 C 0.20736 0.85794 0.24327 0.0
C777 C 0.19011 0.85726 0.26058 0.0
C778 C 0.28918 0.85829 0.21926 0.0
C779 C 0.28402 0.86349 0.19577 0.0
C780 C 0.27172 0.8592 0.23632 0.0
C781 C 0.24871 0.86558 0.23036 0.0
C782 C 0.2436 0.87107 0.2069 0.0
C783 C 0.26104 0.86992 0.18976 0.0
H784 H 0.10527 0.75567 0.67373 0.0
H785 H 0.12749 0.80642 0.72528 0.0
H786 H 0.1038 0.72563 0.70392 0.0
H787 H 0.12693 0.77622 0.75528 0.0
H788 H 0.10466 0.72223 0.80849 0.0
H789 H 0.10237 0.7521 0.77819 0.0
H790 H 0.12893 0.70258 0.72744 0.0
H791 H 0.13031 0.67247 0.75755 0.0
C792 C 0.10992 0.76041 0.6915 0.0
C793 C 0.1165 0.78346 0.69708 0.0
C794 C 0.10922 0.74313 0.7088 0.0
C795 C 0.11533 0.74842 0.73207 0.0
C796 C 0.12172 0.77155 0.73766 0.0
C797 C 0.12216 0.78888 0.72041 0.0
C798 C 0.10993 0.7177 0.79083 0.0
C799 C 0.1177 0.69497 0.78544 0.0
C800 C 0.10874 0.73487 0.77347 0.0
C801 C 0.11557 0.72984 0.75034 0.0
C802 C 0.12316 0.70702 0.74494 0.0
C803 C 0.12408 0.68976 0.76225 0.0
H804 H 0.17412 0.12774 0.72617 0.0
H805 H 0.22383 0.10324 0.67457 0.0
H806 H 0.20468 0.12739 0.75578 0.0
H807 H 0.25424 0.10214 0.70442 0.0
H808 H 0.30817 0.13024 0.75666 0.0
H809 H 0.27766 0.12833 0.727 0.0
H810 H 0.22889 0.10246 0.77881 0.0
H811 H 0.25919 0.10512 0.80864 0.0
C812 C 0.19149 0.12196 0.7212 0.0
C813 C 0.19652 0.11558 0.69796 0.0
C814 C 0.20902 0.12165 0.73823 0.0
C815 C 0.23196 0.11476 0.73251 0.0
C816 C 0.23687 0.10793 0.70936 0.0
C817 C 0.21938 0.10843 0.69226 0.0
C818 C 0.29097 0.12404 0.76171 0.0
C819 C 0.28611 0.11793 0.78506 0.0
C820 C 0.27348 0.12282 0.74466 0.0
C821 C 0.25078 0.11526 0.75049 0.0
C822 C 0.24606 0.10875 0.77377 0.0
C823 C 0.26348 0.11017 0.79086 0.0
H824 H 0.87631 0.2598 0.80669 0.0
H825 H 0.84975 0.3087 0.75536 0.0
H826 H 0.87832 0.22952 0.77678 0.0
H827 H 0.85102 0.27821 0.72566 0.0
H828 H 0.87524 0.22444 0.67266 0.0
H829 H 0.87676 0.25489 0.70245 0.0
H830 H 0.85281 0.20529 0.75437 0.0
H831 H 0.85205 0.17469 0.72481 0.0
C832 C 0.87083 0.26408 0.78904 0.0
C833 C 0.86285 0.28668 0.78343 0.0
C834 C 0.87186 0.24667 0.77191 0.0
C835 C 0.86474 0.25138 0.74881 0.0
C836 C 0.85698 0.27405 0.74317 0.0
C837 C 0.85614 0.29153 0.76025 0.0
C838 C 0.87039 0.22001 0.69046 0.0
C839 C 0.86352 0.19711 0.69634 0.0
C840 C 0.87114 0.23751 0.70752 0.0
C841 C 0.86485 0.23258 0.73082 0.0
C842 C 0.85815 0.20963 0.7367 0.0
C843 C 0.85759 0.19209 0.71969 0.0
H844 H 0.75633 0.87431 0.67325 0.0
H845 H 0.80732 0.85263 0.72482 0.0
H846 H 0.72628 0.87546 0.70343 0.0
H847 H 0.77708 0.85292 0.75484 0.0
H848 H 0.72212 0.87546 0.80759 0.0
H849 H 0.75237 0.87752 0.7776 0.0
H850 H 0.70379 0.8495 0.72676 0.0
H851 H 0.67337 0.84826 0.75648 0.0
C852 C 0.76111 0.8697 0.69102 0.0
C853 C 0.78421 0.86334 0.69662 0.0
C854 C 0.74384 0.87022 0.70831 0.0
C855 C 0.74919 0.86415 0.73157 0.0
C856 C 0.77238 0.85804 0.7372 0.0
C857 C 0.78972 0.85776 0.71995 0.0
C858 C 0.71788 0.86981 0.78998 0.0
C859 C 0.69531 0.86174 0.78443 0.0
C860 C 0.73527 0.87088 0.77281 0.0
C861 C 0.73056 0.86366 0.74974 0.0
C862 C 0.70795 0.85561 0.74422 0.0
C863 C 0.69051 0.85478 0.76132 0.0
H864 H 0.25644 0.10667 0.17272 0.0
H865 H 0.3069 0.12793 0.22492 0.0
H866 H 0.22623 0.10461 0.20279 0.0
H867 H 0.27661 0.12692 0.25474 0.0
H868 H 0.22297 0.10406 0.30765 0.0
H869 H 0.25277 0.10216 0.27724 0.0
H870 H 0.20286 0.12866 0.22681 0.0
H871 H 0.17284 0.12951 0.25703 0.0
C872 C 0.26104 0.11102 0.1906 0.0
C873 C 0.28407 0.1174 0.19644 0.0
C874 C 0.2437 0.10998 0.20784 0.0
C875 C 0.24891 0.11562 0.23126 0.0
C876 C 0.27199 0.12198 0.23703 0.0
C877 C 0.28938 0.1227 0.21987 0.0
C878 C 0.21836 0.10936 0.29003 0.0
C879 C 0.19557 0.11695 0.28475 0.0
C880 C 0.23548 0.10841 0.2726 0.0
C881 C 0.23032 0.1154 0.24953 0.0
C882 C 0.20742 0.12277 0.24425 0.0
C883 C 0.1902 0.12338 0.26162 0.0
H884 H 0.87493 0.22582 0.30825 0.0
H885 H 0.85254 0.1759 0.25595 0.0
H886 H 0.87692 0.25618 0.27834 0.0
H887 H 0.85366 0.20635 0.22632 0.0
H888 H 0.87705 0.26031 0.17374 0.0
H889 H 0.87903 0.23029 0.20394 0.0
H890 H 0.85202 0.27958 0.25467 0.0
H891 H 0.8509 0.30979 0.22471 0.0
C892 C 0.87034 0.22134 0.2904 0.0
C893 C 0.8636 0.19842 0.2845 0.0
C894 C 0.87136 0.23878 0.27326 0.0
C895 C 0.86543 0.23376 0.24988 0.0
C896 C 0.85878 0.21079 0.24402 0.0
C897 C 0.858 0.19332 0.26108 0.0
C898 C 0.87164 0.26476 0.19137 0.0
C899 C 0.86378 0.28743 0.1968 0.0
C900 C 0.87266 0.24751 0.20868 0.0
C901 C 0.86557 0.25244 0.23175 0.0
C902 C 0.85796 0.27522 0.2372 0.0
C903 C 0.8572 0.29254 0.21996 0.0
H904 H 0.72437 0.87536 0.17153 0.0
H905 H 0.67442 0.85284 0.22373 0.0
H906 H 0.75461 0.87775 0.2015 0.0
H907 H 0.70479 0.85424 0.25348 0.0
H908 H 0.75842 0.87791 0.30623 0.0
H909 H 0.7284 0.87942 0.27601 0.0
H910 H 0.77836 0.85369 0.22522 0.0
H911 H 0.80856 0.85318 0.25522 0.0
C912 C 0.71988 0.87081 0.18939 0.0
C913 C 0.69699 0.86395 0.19525 0.0
C914 C 0.73725 0.87205 0.20657 0.0
C915 C 0.73221 0.86615 0.22996 0.0
C916 C 0.70926 0.85936 0.23577 0.0
C917 C 0.69183 0.85842 0.21866 0.0
C918 C 0.763 0.8727 0.28857 0.0
C919 C 0.78586 0.86542 0.28313 0.0
C920 C 0.74575 0.87342 0.27125 0.0
C921 C 0.75087 0.86655 0.24815 0.0
C922 C 0.77383 0.85948 0.2427 0.0
C923 C 0.79115 0.85907 0.25995 0.0
H924 H 0.12631 0.80717 0.25657 0.0
H925 H 0.10621 0.75669 0.30926 0.0
H926 H 0.12532 0.77666 0.22691 0.0
H927 H 0.1043 0.72632 0.27942 0.0
H928 H 0.13126 0.67313 0.22623 0.0
H929 H 0.12965 0.70365 0.25583 0.0
H930 H 0.10079 0.75161 0.20483 0.0
H931 H 0.10331 0.72127 0.17496 0.0
C932 C 0.12133 0.78962 0.26176 0.0
C933 C 0.11645 0.78434 0.28529 0.0
C934 C 0.12064 0.77212 0.24471 0.0
C935 C 0.11478 0.74897 0.25074 0.0
C936 C 0.10933 0.74384 0.27421 0.0
C937 C 0.11029 0.76129 0.29131 0.0
C938 C 0.12445 0.69015 0.22136 0.0
C939 C 0.11748 0.69479 0.19822 0.0
C940 C 0.1234 0.70765 0.23838 0.0
C941 C 0.11508 0.73014 0.23276 0.0
C942 C 0.10768 0.73462 0.2097 0.0
C943 C 0.10901 0.71719 0.19259 0.0
H944 H 0.17131 0.87512 0.72369 0.0
H945 H 0.2235 0.85155 0.67416 0.0
H946 H 0.20127 0.87782 0.75393 0.0
H947 H 0.25321 0.85339 0.70453 0.0
H948 H 0.30583 0.87784 0.75803 0.0
H949 H 0.27565 0.87926 0.72796 0.0
H950 H 0.22487 0.85332 0.77778 0.0
H951 H 0.2548 0.85278 0.80801 0.0
C952 C 0.18915 0.87043 0.71928 0.0
C953 C 0.195 0.86314 0.69651 0.0
C954 C 0.20632 0.87186 0.73665 0.0
C955 C 0.22968 0.86579 0.73171 0.0
C956 C 0.23551 0.85862 0.70888 0.0
C957 C 0.21841 0.85743 0.69147 0.0
C958 C 0.28819 0.87257 0.76258 0.0
C959 C 0.28274 0.86518 0.78541 0.0
C960 C 0.2709 0.87325 0.74531 0.0
C961 C 0.24781 0.8663 0.75038 0.0
C962 C 0.24234 0.85917 0.77331 0.0
C963 C 0.25956 0.85873 0.79064 0.0
H964 H 0.10144 0.25936 0.80487 0.0
H965 H 0.13166 0.30784 0.75524 0.0
H966 H 0.10014 0.22929 0.77473 0.0
H967 H 0.13127 0.27749 0.72532 0.0
H968 H 0.10945 0.22399 0.67091 0.0
H969 H 0.10714 0.25466 0.70046 0.0
H970 H 0.12579 0.20441 0.75394 0.0
H971 H 0.12718 0.17365 0.72458 0.0
C972 C 0.1079 0.26357 0.78753 0.0
C973 C 0.1167 0.28597 0.78245 0.0
C974 C 0.10728 0.24627 0.77027 0.0
C975 C 0.11576 0.25087 0.7476 0.0
C976 C 0.12428 0.2734 0.74247 0.0
C977 C 0.12461 0.2908 0.75966 0.0
C978 C 0.11296 0.21949 0.689 0.0
C979 C 0.11845 0.19637 0.6954 0.0
C980 C 0.11176 0.23711 0.70594 0.0
C981 C 0.11629 0.23205 0.72961 0.0
C982 C 0.12175 0.20889 0.73596 0.0
C983 C 0.12268 0.19124 0.71909 0.0
H984 H 0.756 0.13006 0.67187 0.0
H985 H 0.80684 0.104 0.7215 0.0
H986 H 0.72592 0.12889 0.70208 0.0
H987 H 0.77663 0.10199 0.75144 0.0
H988 H 0.72494 0.12859 0.80587 0.0
H989 H 0.75441 0.12766 0.77524 0.0
H990 H 0.70231 0.10393 0.72572 0.0
H991 H 0.67256 0.1057 0.75626 0.0
C992 C 0.76068 0.12376 0.68914 0.0
C993 C 0.78384 0.11726 0.69433 0.0
C994 C 0.7434 0.12299 0.70645 0.0
C995 C 0.74885 0.11545 0.72926 0.0
C996 C 0.7719 0.10835 0.73422 0.0
C997 C 0.78922 0.10939 0.71701 0.0
C998 C 0.71976 0.12306 0.78849 0.0
C999 C 0.69637 0.11724 0.78353 0.0
C1000 C 0.73672 0.1224 0.77092 0.0
C1001 C 0.73078 0.11565 0.74799 0.0
C1002 C 0.70743 0.10954 0.74309 0.0
C1003 C 0.6904 0.11044 0.76064 0.0
H1004 H 0.85302 0.72574 0.80632 0.0
H1005 H 0.87585 0.67377 0.75627 0.0
H1006 H 0.85407 0.75552 0.77592 0.0
H1007 H 0.87784 0.70374 0.72603 0.0
H1008 H 0.85206 0.75701 0.67217 0.0
H1009 H 0.85317 0.7271 0.70246 0.0
H1010 H 0.87894 0.77824 0.75199 0.0
H1011 H 0.87688 0.80835 0.7219 0.0
C1012 C 0.85859 0.72073 0.78889 0.0
C1013 C 0.86428 0.69737 0.7837 0.0
C1014 C 0.85932 0.73786 0.77145 0.0
C1015 C 0.86604 0.73209 0.74846 0.0
C1016 C 0.87217 0.70877 0.74341 0.0
C1017 C 0.87115 0.69158 0.76079 0.0
C1018 C 0.8581 0.76183 0.68949 0.0
C1019 C 0.86429 0.78508 0.69464 0.0
C1020 C 0.85885 0.74464 0.70686 0.0
C1021 C 0.8661 0.75022 0.72974 0.0
C1022 C 0.87282 0.77339 0.73471 0.0
C1023 C 0.87178 0.79064 0.71741 0.0
H1024 H 0.25958 0.17419 0.10376 0.0
H1025 H 0.30776 0.22511 0.13227 0.0
H1026 H 0.22928 0.20408 0.10156 0.0
H1027 H 0.27724 0.25477 0.13091 0.0
H1028 H 0.22397 0.30825 0.1071 0.0
H1029 H 0.2545 0.27854 0.10551 0.0
H1030 H 0.20428 0.22592 0.1265 0.0
H1031 H 0.17362 0.25544 0.12722 0.0
C1032 C 0.26368 0.19174 0.10965 0.0
C1033 C 0.28609 0.19725 0.11822 0.0
C1034 C 0.24626 0.20887 0.10851 0.0
C1035 C 0.25075 0.23184 0.11615 0.0
C1036 C 0.27324 0.23737 0.12452 0.0
C1037 C 0.29074 0.22031 0.12542 0.0
C1038 C 0.21942 0.29032 0.11126 0.0
C1039 C 0.19635 0.28423 0.11729 0.0
C1040 C 0.23697 0.27329 0.11049 0.0
C1041 C 0.23191 0.24982 0.11596 0.0
C1042 C 0.20876 0.24373 0.12179 0.0
C1043 C 0.19117 0.26071 0.12233 0.0
H1044 H 0.2253 0.67388 0.85388 0.0
H1045 H 0.1735 0.72399 0.87697 0.0
H1046 H 0.25515 0.70422 0.85483 0.0
H1047 H 0.20354 0.75416 0.87891 0.0
H1048 H 0.25616 0.80798 0.85264 0.0
H1049 H 0.22653 0.77752 0.85385 0.0
H1050 H 0.27813 0.72832 0.87939 0.0
H1051 H 0.30804 0.75866 0.87721 0.0
C1052 C 0.22036 0.69132 0.85948 0.0
C1053 C 0.19702 0.69656 0.86525 0.0
C1054 C 0.23751 0.70871 0.86017 0.0
C1055 C 0.23179 0.7317 0.86692 0.0
C1056 C 0.20851 0.73678 0.87318 0.0
C1057 C 0.19129 0.71945 0.8722 0.0
C1058 C 0.26117 0.79069 0.85864 0.0
C1059 C 0.28447 0.78572 0.86479 0.0
C1060 C 0.24412 0.77323 0.85947 0.0
C1061 C 0.24988 0.75042 0.86675 0.0
C1062 C 0.27313 0.74557 0.8733 0.0
C1063 C 0.29027 0.76299 0.87218 0.0
H1064 H 0.30707 0.22542 0.85616 0.0
H1065 H 0.25612 0.17224 0.8736 0.0
H1066 H 0.27648 0.25499 0.85684 0.0
H1067 H 0.22562 0.20199 0.8752 0.0
H1068 H 0.17307 0.25606 0.84861 0.0
H1069 H 0.20354 0.22636 0.85002 0.0
H1070 H 0.25089 0.27644 0.88135 0.0
H1071 H 0.22065 0.30641 0.87904 0.0
C1072 C 0.28938 0.22008 0.86047 0.0
C1073 C 0.28403 0.19645 0.86476 0.0
C1074 C 0.27183 0.23709 0.86099 0.0
C1075 C 0.24853 0.23093 0.86606 0.0
C1076 C 0.24328 0.20733 0.8708 0.0
C1077 C 0.2608 0.19027 0.87003 0.0
C1078 C 0.18996 0.26071 0.8559 0.0
C1079 C 0.19446 0.28363 0.86364 0.0
C1080 C 0.20741 0.24362 0.85684 0.0
C1081 C 0.22972 0.24896 0.8658 0.0
C1082 C 0.23407 0.2718 0.87394 0.0
C1083 C 0.21668 0.28897 0.87274 0.0
H1084 H 0.72426 0.17268 0.87432 0.0
H1085 H 0.67355 0.22475 0.85317 0.0
H1086 H 0.75432 0.2028 0.87641 0.0
H1087 H 0.70378 0.25471 0.85442 0.0
H1088 H 0.75812 0.30723 0.87789 0.0
H1089 H 0.72812 0.27699 0.87968 0.0
H1090 H 0.77719 0.22676 0.85136 0.0
H1091 H 0.80737 0.25674 0.8504 0.0
C1092 C 0.71954 0.19055 0.87003 0.0
C1093 C 0.69649 0.19629 0.86356 0.0
C1094 C 0.73682 0.20781 0.87111 0.0
C1095 C 0.73154 0.23121 0.8655 0.0
C1096 C 0.70843 0.23696 0.85923 0.0
C1097 C 0.69109 0.21974 0.85839 0.0
C1098 C 0.76253 0.2897 0.87216 0.0
C1099 C 0.78515 0.28442 0.86399 0.0
C1100 C 0.74528 0.27238 0.87306 0.0
C1101 C 0.75017 0.24942 0.86558 0.0
C1102 C 0.77287 0.24412 0.85762 0.0
C1103 C 0.79018 0.26138 0.85695 0.0
H1104 H 0.72373 0.80869 0.87556 0.0
H1105 H 0.67341 0.7559 0.85541 0.0
H1106 H 0.7542 0.77893 0.87748 0.0
H1107 H 0.704 0.72633 0.85634 0.0
H1108 H 0.75919 0.67432 0.87811 0.0
H1109 H 0.72892 0.70422 0.88071 0.0
H1110 H 0.77714 0.75533 0.85249 0.0
H1111 H 0.80764 0.72566 0.85087 0.0
C1112 C 0.71919 0.79074 0.87147 0.0
C1113 C 0.69615 0.78467 0.86532 0.0
C1114 C 0.73669 0.77368 0.87243 0.0
C1115 C 0.73164 0.75019 0.86696 0.0
C1116 C 0.7085 0.74413 0.86106 0.0
C1117 C 0.69094 0.76113 0.8604 0.0
C1118 C 0.76334 0.69198 0.87258 0.0
C1119 C 0.7858 0.69761 0.86426 0.0
C1120 C 0.74594 0.70911 0.87394 0.0
C1121 C 0.7505 0.73222 0.86671 0.0
C1122 C 0.77307 0.73785 0.8586 0.0
C1123 C 0.79055 0.72079 0.85753 0.0
H1124 H 0.7598 0.67436 0.10296 0.0
H1125 H 0.80863 0.72632 0.12836 0.0
H1126 H 0.72926 0.70404 0.10099 0.0
H1127 H 0.77792 0.75577 0.12718 0.0
H1128 H 0.72346 0.80825 0.10413 0.0
H1129 H 0.75403 0.77863 0.10181 0.0
H1130 H 0.70522 0.72639 0.12667 0.0
H1131 H 0.67448 0.75578 0.12819 0.0
C1132 C 0.76401 0.69209 0.10819 0.0
C1133 C 0.78665 0.69794 0.11586 0.0
C1134 C 0.74646 0.70909 0.10717 0.0
C1135 C 0.75108 0.73229 0.11402 0.0
C1136 C 0.77382 0.73818 0.12142 0.0
C1137 C 0.79142 0.72123 0.12222 0.0
C1138 C 0.71923 0.79042 0.109 0.0
C1139 C 0.69653 0.7844 0.11639 0.0
C1140 C 0.73679 0.77345 0.10778 0.0
C1141 C 0.73214 0.75012 0.11414 0.0
C1142 C 0.70936 0.74408 0.12128 0.0
C1143 C 0.69174 0.761 0.12228 0.0
H1144 H 0.17416 0.7245 0.13099 0.0
H1145 H 0.22421 0.67321 0.10662 0.0
H1146 H 0.20427 0.75462 0.12942 0.0
H1147 H 0.25407 0.70346 0.10417 0.0
H1148 H 0.30811 0.75636 0.1294 0.0
H1149 H 0.27778 0.72658 0.12892 0.0
H1150 H 0.2278 0.77779 0.10417 0.0
H1151 H 0.25803 0.80786 0.10551 0.0
C1152 C 0.19152 0.71971 0.12501 0.0
C1153 C 0.19681 0.69642 0.11906 0.0
C1154 C 0.20877 0.73702 0.12398 0.0
C1155 C 0.23167 0.7315 0.11672 0.0
C1156 C 0.23678 0.70828 0.11028 0.0
C1157 C 0.2196 0.69093 0.11157 0.0
C1158 C 0.29069 0.76128 0.12372 0.0
C1159 C 0.28551 0.78453 0.11753 0.0
C1160 C 0.27328 0.74413 0.12333 0.0
C1161 C 0.25029 0.74972 0.11649 0.0
C1162 C 0.24521 0.77292 0.10991 0.0
C1163 C 0.26258 0.79015 0.11054 0.0
H1164 H 0.67462 0.22276 0.1037 0.0
H1165 H 0.72556 0.17264 0.12854 0.0
H1166 H 0.70481 0.25276 0.10222 0.0
H1167 H 0.75559 0.20287 0.12802 0.0
H1168 H 0.80913 0.25747 0.1064 0.0
H1169 H 0.77941 0.22693 0.10413 0.0
H1170 H 0.72705 0.27629 0.12773 0.0
H1171 H 0.7565 0.30691 0.12906 0.0
C1172 C 0.69226 0.21817 0.10893 0.0
C1173 C 0.69767 0.19533 0.11628 0.0
C1174 C 0.70957 0.23542 0.10823 0.0
C1175 C 0.73266 0.23034 0.11518 0.0
C1176 C 0.73812 0.20737 0.12221 0.0
C1177 C 0.72085 0.19003 0.12263 0.0
C1178 C 0.79124 0.26179 0.11101 0.0
C1179 C 0.78518 0.28464 0.11784 0.0
C1180 C 0.77421 0.24424 0.10983 0.0
C1181 C 0.75077 0.24909 0.11573 0.0
C1182 C 0.74479 0.27198 0.12259 0.0
C1183 C 0.76174 0.28955 0.12349 0.0
H1184 H 0.67327 0.60407 0.72338 0.0
H1185 H 0.72479 0.62831 0.67348 0.0
H1186 H 0.7033 0.60265 0.75364 0.0
H1187 H 0.75452 0.62775 0.70385 0.0
H1188 H 0.80783 0.60553 0.75749 0.0
H1189 H 0.77764 0.60291 0.72756 0.0
H1190 H 0.72628 0.62807 0.77719 0.0
H1191 H 0.75631 0.62979 0.80736 0.0
C1192 C 0.69097 0.60916 0.71888 0.0
C1193 C 0.69662 0.61628 0.696 0.0
C1194 C 0.70818 0.60848 0.73627 0.0
C1195 C 0.73135 0.61513 0.73123 0.0
C1196 C 0.73698 0.62209 0.70829 0.0
C1197 C 0.71986 0.62253 0.69087 0.0
C1198 C 0.79007 0.61042 0.76203 0.0
C1199 C 0.78449 0.61793 0.78479 0.0
C1200 C 0.77277 0.60903 0.74483 0.0
C1201 C 0.74951 0.6154 0.74989 0.0
C1202 C 0.74391 0.62267 0.77274 0.0
C1203 C 0.76117 0.6238 0.79003 0.0
H1204 H 0.22463 0.35137 0.80872 0.0
H1205 H 0.17394 0.37772 0.75909 0.0
H1206 H 0.25467 0.35222 0.77849 0.0
H1207 H 0.20415 0.3794 0.7291 0.0
H1208 H 0.3083 0.37471 0.7243 0.0
H1209 H 0.27853 0.37684 0.7548 0.0
H1210 H 0.22623 0.35363 0.70526 0.0
H1211 H 0.25573 0.35231 0.67466 0.0
C1212 C 0.21996 0.35766 0.79145 0.0
C1213 C 0.19684 0.36434 0.78629 0.0
C1214 C 0.23724 0.35826 0.77412 0.0
C1215 C 0.23185 0.36579 0.75129 0.0
C1216 C 0.20884 0.37305 0.74634 0.0
C1217 C 0.19152 0.37221 0.76359 0.0
C1218 C 0.29042 0.37016 0.7199 0.0
C1219 C 0.28441 0.36338 0.69701 0.0
C1220 C 0.27336 0.37126 0.73743 0.0
C1221 C 0.24994 0.3654 0.73253 0.0
C1222 C 0.24397 0.35869 0.7096 0.0
C1223 C 0.26096 0.35781 0.69204 0.0
H1224 H 0.25856 0.60626 0.31044 0.0
H1225 H 0.30896 0.62837 0.25851 0.0
H1226 H 0.22854 0.6038 0.28025 0.0
H1227 H 0.27882 0.62697 0.22854 0.0
H1228 H 0.22529 0.60393 0.17545 0.0
H1229 H 0.25517 0.60214 0.20581 0.0
H1230 H 0.2051 0.62791 0.25647 0.0
H1231 H 0.17505 0.62864 0.22636 0.0
C1232 C 0.26318 0.61071 0.29259 0.0
C1233 C 0.28612 0.61749 0.28686 0.0
C1234 C 0.24595 0.60943 0.27528 0.0
C1235 C 0.25118 0.61525 0.25191 0.0
C1236 C 0.2742 0.62192 0.24623 0.0
C1237 C 0.29149 0.62287 0.26346 0.0
C1238 C 0.22067 0.60909 0.19311 0.0
C1239 C 0.19783 0.61643 0.19851 0.0
C1240 C 0.23783 0.6082 0.21051 0.0
C1241 C 0.23263 0.61498 0.23363 0.0
C1242 C 0.20968 0.62215 0.239 0.0
C1243 C 0.19245 0.62271 0.22168 0.0
H1244 H 0.67367 0.37865 0.25874 0.0
H1245 H 0.72533 0.35406 0.3083 0.0
H1246 H 0.70366 0.38092 0.22857 0.0
H1247 H 0.75517 0.3555 0.27789 0.0
H1248 H 0.80779 0.37855 0.22321 0.0
H1249 H 0.7781 0.38072 0.25377 0.0
H1250 H 0.72617 0.35509 0.20503 0.0
H1251 H 0.75559 0.35372 0.17434 0.0
C1252 C 0.69143 0.37367 0.26318 0.0
C1253 C 0.6971 0.3661 0.28589 0.0
C1254 C 0.7086 0.37485 0.24584 0.0
C1255 C 0.73181 0.36823 0.25074 0.0
C1256 C 0.73756 0.36105 0.27358 0.0
C1257 C 0.72042 0.3601 0.291 0.0
C1258 C 0.79 0.3735 0.219 0.0
C1259 C 0.78406 0.36598 0.19633 0.0
C1260 C 0.77301 0.37462 0.23656 0.0
C1261 C 0.74974 0.36805 0.23189 0.0
C1262 C 0.74381 0.3607 0.20916 0.0
C1263 C 0.76073 0.35979 0.19156 0.0
H1264 H 0.22521 0.62863 0.80887 0.0
H1265 H 0.17345 0.60295 0.75998 0.0
H1266 H 0.25481 0.62716 0.77837 0.0
H1267 H 0.20333 0.60064 0.72962 0.0
H1268 H 0.25601 0.62665 0.67492 0.0
H1269 H 0.22613 0.62547 0.70526 0.0
H1270 H 0.27781 0.60161 0.75519 0.0
H1271 H 0.30785 0.60367 0.72504 0.0
C1272 C 0.22021 0.62235 0.79169 0.0
C1273 C 0.19694 0.61596 0.78686 0.0
C1274 C 0.23724 0.62138 0.77419 0.0
C1275 C 0.2315 0.61375 0.7515 0.0
C1276 C 0.2083 0.60696 0.74678 0.0
C1277 C 0.19119 0.60817 0.76423 0.0
C1278 C 0.26096 0.62101 0.69234 0.0
C1279 C 0.28434 0.61537 0.69759 0.0
C1280 C 0.24379 0.62021 0.70973 0.0
C1281 C 0.24954 0.61351 0.73273 0.0
C1282 C 0.27283 0.6073 0.7378 0.0
C1283 C 0.29005 0.60835 0.72047 0.0
H1284 H 0.80502 0.357 0.75694 0.0
H1285 H 0.75375 0.37228 0.81051 0.0
H1286 H 0.77447 0.35785 0.7274 0.0
H1287 H 0.72323 0.37403 0.78076 0.0
H1288 H 0.67156 0.34752 0.72539 0.0
H1289 H 0.70164 0.34902 0.7555 0.0
H1290 H 0.74868 0.38285 0.70674 0.0
H1291 H 0.71888 0.38049 0.67639 0.0
C1292 C 0.78726 0.36087 0.76238 0.0
C1293 C 0.78183 0.36453 0.7861 0.0
C1294 C 0.76973 0.36149 0.74539 0.0
C1295 C 0.74635 0.36606 0.75165 0.0
C1296 C 0.74098 0.37009 0.77535 0.0
C1297 C 0.7585 0.36922 0.79241 0.0
C1298 C 0.68828 0.35539 0.72114 0.0
C1299 C 0.69288 0.36376 0.69846 0.0
C1300 C 0.70551 0.35638 0.73845 0.0
C1301 C 0.72765 0.366 0.73356 0.0
C1302 C 0.732 0.3749 0.71101 0.0
C1303 C 0.71487 0.37366 0.69362 0.0
H1304 H 0.25796 0.37757 0.30665 0.0
H1305 H 0.30778 0.35252 0.25545 0.0
H1306 H 0.2278 0.37906 0.27658 0.0
H1307 H 0.27743 0.35317 0.22559 0.0
H1308 H 0.22311 0.3753 0.17228 0.0
H1309 H 0.25348 0.37774 0.20211 0.0
H1310 H 0.20421 0.35332 0.25416 0.0
H1311 H 0.1737 0.35172 0.22457 0.0
C1312 C 0.26247 0.37231 0.28899 0.0
C1313 C 0.28528 0.36489 0.28347 0.0
C1314 C 0.24513 0.37304 0.27176 0.0
C1315 C 0.25011 0.36611 0.24865 0.0
C1316 C 0.27302 0.35897 0.24309 0.0
C1317 C 0.29042 0.35848 0.26027 0.0
C1318 C 0.21874 0.37055 0.19012 0.0
C1319 C 0.19596 0.36333 0.19603 0.0
C1320 C 0.2362 0.37183 0.20722 0.0
C1321 C 0.23135 0.36569 0.23058 0.0
C1322 C 0.20851 0.35859 0.23646 0.0
C1323 C 0.19101 0.35754 0.21943 0.0
H1324 H 0.67326 0.6065 0.25602 0.0
H1325 H 0.72616 0.62756 0.30588 0.0
H1326 H 0.70291 0.60479 0.22535 0.0
H1327 H 0.75552 0.62672 0.27517 0.0
H1328 H 0.80764 0.60389 0.22087 0.0
H1329 H 0.77747 0.60158 0.25083 0.0
H1330 H 0.72684 0.62955 0.20197 0.0
H1331 H 0.75687 0.63096 0.17172 0.0
C1332 C 0.69119 0.61083 0.26043 0.0
C1333 C 0.69732 0.6171 0.28343 0.0
C1334 C 0.70818 0.60999 0.24281 0.0
C1335 C 0.73166 0.61562 0.24774 0.0
C1336 C 0.73774 0.62182 0.27078 0.0
C1337 C 0.72083 0.62242 0.28841 0.0
C1338 C 0.79005 0.60945 0.21648 0.0
C1339 C 0.78469 0.61769 0.19393 0.0
C1340 C 0.77274 0.60825 0.23372 0.0
C1341 C 0.74971 0.61555 0.22893 0.0
C1342 C 0.74428 0.62347 0.20623 0.0
C1343 C 0.76155 0.6244 0.1889 0.0
H1344 H 0.25692 0.67281 0.63111 0.0
H1345 H 0.30813 0.72285 0.60661 0.0
H1346 H 0.22684 0.70284 0.62981 0.0
H1347 H 0.27778 0.75276 0.60437 0.0
H1348 H 0.22401 0.80641 0.62956 0.0
H1349 H 0.2543 0.7765 0.62889 0.0
H1350 H 0.20365 0.72581 0.60444 0.0
H1351 H 0.17314 0.75555 0.60606 0.0
C1352 C 0.2617 0.69017 0.62514 0.0
C1353 C 0.28493 0.69545 0.619 0.0
C1354 C 0.24439 0.70739 0.62425 0.0
C1355 C 0.24983 0.73025 0.61694 0.0
C1356 C 0.27303 0.73544 0.61046 0.0
C1357 C 0.29042 0.71827 0.61162 0.0
C1358 C 0.21936 0.7889 0.62392 0.0
C1359 C 0.19615 0.78332 0.61795 0.0
C1360 C 0.23678 0.77176 0.62341 0.0
C1361 C 0.23145 0.74869 0.61663 0.0
C1362 C 0.20831 0.74327 0.61018 0.0
C1363 C 0.19082 0.76035 0.61098 0.0
H1364 H 0.25623 0.30939 0.37333 0.0
H1365 H 0.30746 0.25766 0.3526 0.0
H1366 H 0.22633 0.27905 0.37508 0.0
H1367 H 0.27744 0.22754 0.3534 0.0
H1368 H 0.22338 0.17453 0.37651 0.0
H1369 H 0.25324 0.20494 0.3782 0.0
H1370 H 0.20377 0.25496 0.35019 0.0
H1371 H 0.17374 0.22484 0.34943 0.0
C1372 C 0.26108 0.29156 0.36903 0.0
C1373 C 0.28422 0.28594 0.36285 0.0
C1374 C 0.24391 0.27417 0.36991 0.0
C1375 C 0.24941 0.25081 0.36431 0.0
C1376 C 0.27261 0.24522 0.35823 0.0
C1377 C 0.28983 0.26255 0.35764 0.0
C1378 C 0.21889 0.19205 0.3708 0.0
C1379 C 0.19619 0.19727 0.36286 0.0
C1380 C 0.23603 0.20947 0.37164 0.0
C1381 C 0.23096 0.23244 0.36428 0.0
C1382 C 0.20822 0.23761 0.35641 0.0
C1383 C 0.19101 0.22028 0.35584 0.0
H1384 H 0.17504 0.7565 0.35347 0.0
H1385 H 0.22549 0.80964 0.37237 0.0
H1386 H 0.20571 0.72699 0.3545 0.0
H1387 H 0.25602 0.77997 0.37431 0.0
H1388 H 0.30943 0.72586 0.34952 0.0
H1389 H 0.27891 0.75557 0.34982 0.0
H1390 H 0.23057 0.7056 0.37981 0.0
H1391 H 0.26086 0.67565 0.37863 0.0
C1392 C 0.19263 0.76185 0.35813 0.0
C1393 C 0.19781 0.78545 0.36278 0.0
C1394 C 0.21023 0.74488 0.35885 0.0
C1395 C 0.2334 0.75105 0.36451 0.0
C1396 C 0.23849 0.77463 0.36949 0.0
C1397 C 0.22093 0.79164 0.36851 0.0
C1398 C 0.29232 0.72124 0.35628 0.0
C1399 C 0.28757 0.69835 0.36398 0.0
C1400 C 0.27482 0.73833 0.35657 0.0
C1401 C 0.25221 0.73302 0.36481 0.0
C1402 C 0.24763 0.71022 0.37292 0.0
C1403 C 0.26505 0.69306 0.37238 0.0
H1404 H 0.67523 0.72377 0.37564 0.0
H1405 H 0.72664 0.67451 0.34992 0.0
H1406 H 0.70513 0.75412 0.37719 0.0
H1407 H 0.75628 0.70502 0.35059 0.0
H1408 H 0.8094 0.75876 0.37385 0.0
H1409 H 0.77952 0.72843 0.37574 0.0
H1410 H 0.72762 0.77814 0.35186 0.0
H1411 H 0.7573 0.80863 0.35086 0.0
C1412 C 0.69289 0.71945 0.37022 0.0
C1413 C 0.69857 0.69673 0.36268 0.0
C1414 C 0.71001 0.73688 0.37098 0.0
C1415 C 0.73312 0.73206 0.36396 0.0
C1416 C 0.73878 0.70928 0.35652 0.0
C1417 C 0.72174 0.69179 0.35602 0.0
C1418 C 0.79158 0.76322 0.36909 0.0
C1419 C 0.78572 0.7861 0.36221 0.0
C1420 C 0.77447 0.7458 0.37006 0.0
C1421 C 0.75116 0.7508 0.36388 0.0
C1422 C 0.7453 0.77374 0.35713 0.0
C1423 C 0.76236 0.79122 0.35643 0.0
H1424 H 0.67287 0.25762 0.37483 0.0
H1425 H 0.72446 0.30852 0.35309 0.0
H1426 H 0.70319 0.22769 0.37665 0.0
H1427 H 0.75457 0.27846 0.35394 0.0
H1428 H 0.80782 0.22436 0.37634 0.0
H1429 H 0.77752 0.25432 0.37843 0.0
H1430 H 0.72685 0.2048 0.35173 0.0
H1431 H 0.75688 0.17469 0.3506 0.0
C1432 C 0.69067 0.26239 0.37034 0.0
C1433 C 0.69624 0.28545 0.36381 0.0
C1434 C 0.70805 0.2452 0.37125 0.0
C1435 C 0.73137 0.25058 0.36535 0.0
C1436 C 0.73692 0.27372 0.359 0.0
C1437 C 0.7196 0.29097 0.35838 0.0
C1438 C 0.79017 0.21987 0.37103 0.0
C1439 C 0.78476 0.19713 0.36333 0.0
C1440 C 0.77281 0.23708 0.37209 0.0
C1441 C 0.74969 0.23204 0.3652 0.0
C1442 C 0.74432 0.20924 0.3576 0.0
C1443 C 0.7616 0.19197 0.35682 0.0
H1444 H 0.75728 0.17372 0.62449 0.0
H1445 H 0.80987 0.22552 0.60777 0.0
H1446 H 0.72731 0.20392 0.62394 0.0
H1447 H 0.77972 0.25564 0.60636 0.0
H1448 H 0.67532 0.25923 0.60176 0.0
H1449 H 0.70573 0.22946 0.59941 0.0
H1450 H 0.75483 0.27712 0.63177 0.0
H1451 H 0.72468 0.30715 0.63328 0.0
C1452 C 0.76242 0.19151 0.62036 0.0
C1453 C 0.786 0.19721 0.61623 0.0
C1454 C 0.74518 0.20884 0.61993 0.0
C1455 C 0.75105 0.23227 0.61512 0.0
C1456 C 0.7746 0.23787 0.61053 0.0
C1457 C 0.79189 0.22057 0.6112 0.0
C1458 C 0.69263 0.26338 0.60829 0.0
C1459 C 0.69755 0.28557 0.61772 0.0
C1460 C 0.71006 0.24625 0.60706 0.0
C1461 C 0.73276 0.25082 0.61547 0.0
C1462 C 0.73769 0.27309 0.62475 0.0
C1463 C 0.72033 0.29029 0.62575 0.0
H1464 H 0.25573 0.30579 0.62758 0.0
H1465 H 0.30902 0.25576 0.60784 0.0
H1466 H 0.22638 0.27498 0.62644 0.0
H1467 H 0.2795 0.2251 0.60585 0.0
H1468 H 0.22589 0.17155 0.63178 0.0
H1469 H 0.25549 0.20216 0.63087 0.0
H1470 H 0.20506 0.25004 0.60094 0.0
H1471 H 0.17523 0.21967 0.60267 0.0
C1472 C 0.26114 0.28828 0.6227 0.0
C1473 C 0.28473 0.28323 0.61786 0.0
C1474 C 0.24427 0.27061 0.62192 0.0
C1475 C 0.25054 0.24753 0.61604 0.0
C1476 C 0.2741 0.24258 0.61083 0.0
C1477 C 0.29102 0.2602 0.61185 0.0
C1478 C 0.22116 0.18857 0.62487 0.0
C1479 C 0.19817 0.1932 0.61739 0.0
C1480 C 0.23817 0.20611 0.62424 0.0
C1481 C 0.23267 0.22862 0.61588 0.0
C1482 C 0.2098 0.23306 0.60791 0.0
C1483 C 0.19272 0.21559 0.60877 0.0
H1484 H 0.80791 0.75659 0.62721 0.0
H1485 H 0.75657 0.80778 0.60547 0.0
H1486 H 0.778 0.72629 0.62659 0.0
H1487 H 0.72683 0.7773 0.60393 0.0
H1488 H 0.67427 0.72384 0.63082 0.0
H1489 H 0.7044 0.7538 0.62955 0.0
H1490 H 0.75363 0.70319 0.60216 0.0
H1491 H 0.72363 0.67293 0.60432 0.0
C1492 C 0.7903 0.76131 0.62197 0.0
C1493 C 0.78459 0.78462 0.61649 0.0
C1494 C 0.77315 0.74389 0.62149 0.0
C1495 C 0.74995 0.74932 0.61527 0.0
C1496 C 0.7444 0.77256 0.60926 0.0
C1497 C 0.76149 0.79003 0.61001 0.0
C1498 C 0.69149 0.7191 0.62442 0.0
C1499 C 0.69655 0.69598 0.61769 0.0
C1500 C 0.70877 0.73634 0.62356 0.0
C1501 C 0.73148 0.73097 0.61568 0.0
C1502 C 0.73645 0.70788 0.60867 0.0
C1503 C 0.71922 0.69055 0.60979 0.0
H1504 H 0.62618 0.22419 0.80717 0.0
H1505 H 0.60639 0.17132 0.75676 0.0
H1506 H 0.62466 0.25386 0.77666 0.0
H1507 H 0.60406 0.20114 0.72641 0.0
H1508 H 0.63034 0.25484 0.67324 0.0
H1509 H 0.6293 0.22518 0.70373 0.0
H1510 H 0.59923 0.27546 0.75168 0.0
H1511 H 0.60104 0.3054 0.72138 0.0
C1512 C 0.6212 0.21894 0.78964 0.0
C1513 C 0.61652 0.19536 0.78439 0.0
C1514 C 0.6202 0.236 0.77214 0.0
C1515 C 0.61428 0.22991 0.74902 0.0
C1516 C 0.6091 0.20639 0.74391 0.0
C1517 C 0.61032 0.1893 0.76136 0.0
C1518 C 0.62338 0.25956 0.69024 0.0
C1519 C 0.61586 0.28253 0.69488 0.0
C1520 C 0.62266 0.24249 0.70772 0.0
C1521 C 0.61419 0.24791 0.73021 0.0
C1522 C 0.60623 0.27078 0.7347 0.0
C1523 C 0.60715 0.28792 0.71727 0.0
H1524 H 0.34983 0.80795 0.75662 0.0
H1525 H 0.37473 0.75897 0.80868 0.0
H1526 H 0.35093 0.77724 0.72717 0.0
H1527 H 0.37669 0.72844 0.779 0.0
H1528 H 0.35149 0.67348 0.72665 0.0
H1529 H 0.35198 0.70414 0.75618 0.0
H1530 H 0.37631 0.75366 0.70434 0.0
H1531 H 0.37495 0.72316 0.6746 0.0
C1532 C 0.35582 0.79069 0.76173 0.0
C1533 C 0.36214 0.78592 0.78504 0.0
C1534 C 0.35658 0.77308 0.74478 0.0
C1535 C 0.36391 0.75031 0.75065 0.0
C1536 C 0.37056 0.74564 0.77391 0.0
C1537 C 0.36957 0.7632 0.79092 0.0
C1538 C 0.35705 0.69088 0.72156 0.0
C1539 C 0.36311 0.69587 0.69823 0.0
C1540 C 0.35746 0.70847 0.73855 0.0
C1541 C 0.36416 0.73143 0.73269 0.0
C1542 C 0.37063 0.7363 0.70942 0.0
C1543 C 0.36999 0.71876 0.69237 0.0
H1544 H 0.60717 0.72357 0.30856 0.0
H1545 H 0.62941 0.67342 0.25641 0.0
H1546 H 0.60501 0.75379 0.27859 0.0
H1547 H 0.62817 0.70382 0.22663 0.0
H1548 H 0.60461 0.75792 0.17412 0.0
H1549 H 0.60296 0.72783 0.20422 0.0
H1550 H 0.62973 0.77721 0.25498 0.0
H1551 H 0.63047 0.80753 0.22507 0.0
C1552 C 0.61169 0.71902 0.29071 0.0
C1553 C 0.61847 0.69609 0.28488 0.0
C1554 C 0.61058 0.73639 0.27353 0.0
C1555 C 0.6165 0.73131 0.25017 0.0
C1556 C 0.6231 0.7083 0.24434 0.0
C1557 C 0.62393 0.69087 0.26146 0.0
C1558 C 0.61003 0.76238 0.19174 0.0
C1559 C 0.61768 0.78512 0.1972 0.0
C1560 C 0.60922 0.74507 0.20899 0.0
C1561 C 0.61632 0.75001 0.23205 0.0
C1562 C 0.62376 0.77285 0.23752 0.0
C1563 C 0.62431 0.79023 0.22033 0.0
H1564 H 0.37446 0.25751 0.30964 0.0
H1565 H 0.35499 0.30775 0.25647 0.0
H1566 H 0.37658 0.22696 0.27999 0.0
H1567 H 0.35624 0.27708 0.227 0.0
H1568 H 0.37949 0.22181 0.17562 0.0
H1569 H 0.3815 0.25208 0.20555 0.0
H1570 H 0.35148 0.20421 0.25594 0.0
H1571 H 0.35031 0.1737 0.22625 0.0
C1572 C 0.37056 0.26202 0.29164 0.0
C1573 C 0.36455 0.28507 0.28543 0.0
C1574 C 0.37165 0.24447 0.27464 0.0
C1575 C 0.3665 0.24951 0.25109 0.0
C1576 C 0.3607 0.27262 0.24489 0.0
C1577 C 0.35986 0.29021 0.26183 0.0
C1578 C 0.37343 0.21772 0.19312 0.0
C1579 C 0.36472 0.19536 0.19854 0.0
C1580 C 0.37446 0.23512 0.21026 0.0
C1581 C 0.36655 0.23065 0.23315 0.0
C1582 C 0.35808 0.20818 0.23861 0.0
C1583 C 0.35729 0.1907 0.22154 0.0
H1584 H 0.37953 0.1755 0.76025 0.0
H1585 H 0.35055 0.22629 0.80833 0.0
H1586 H 0.38157 0.20538 0.72992 0.0
H1587 H 0.35174 0.25591 0.77777 0.0
H1588 H 0.37457 0.30949 0.72435 0.0
H1589 H 0.37686 0.27986 0.75491 0.0
H1590 H 0.35625 0.22684 0.70495 0.0
H1591 H 0.35483 0.25628 0.67426 0.0
C1592 C 0.37352 0.19303 0.76432 0.0
C1593 C 0.36484 0.19851 0.78669 0.0
C1594 C 0.37457 0.21014 0.74689 0.0
C1595 C 0.36672 0.23305 0.75133 0.0
C1596 C 0.3583 0.23857 0.77381 0.0
C1597 C 0.35749 0.22153 0.79132 0.0
C1598 C 0.37064 0.29148 0.71987 0.0
C1599 C 0.36448 0.28526 0.69687 0.0
C1600 C 0.37183 0.2745 0.73743 0.0
C1601 C 0.36665 0.25095 0.73245 0.0
C1602 C 0.36074 0.24472 0.70936 0.0
C1603 C 0.35979 0.26165 0.69176 0.0
H1604 H 0.63034 0.75463 0.80856 0.0
H1605 H 0.60198 0.80479 0.75949 0.0
H1606 H 0.62947 0.72458 0.77839 0.0
H1607 H 0.60025 0.77452 0.72955 0.0
H1608 H 0.62718 0.72329 0.67468 0.0
H1609 H 0.62583 0.75286 0.70519 0.0
H1610 H 0.60484 0.70022 0.75539 0.0
H1611 H 0.60706 0.6704 0.72496 0.0
C1612 C 0.6236 0.75916 0.79142 0.0
C1613 C 0.61633 0.78214 0.7864 0.0
C1614 C 0.62298 0.74188 0.77413 0.0
C1615 C 0.61485 0.7471 0.75148 0.0
C1616 C 0.60705 0.76997 0.74666 0.0
C1617 C 0.60792 0.78732 0.76386 0.0
C1618 C 0.62215 0.71801 0.6922 0.0
C1619 C 0.61725 0.69445 0.69738 0.0
C1620 C 0.62125 0.73503 0.7097 0.0
C1621 C 0.61517 0.72898 0.73278 0.0
C1622 C 0.60994 0.70546 0.7379 0.0
C1623 C 0.61109 0.68836 0.72042 0.0
H1624 H 0.60508 0.25847 0.30697 0.0
H1625 H 0.63149 0.30786 0.25606 0.0
H1626 H 0.6036 0.22829 0.27689 0.0
H1627 H 0.63088 0.27752 0.22624 0.0
H1628 H 0.60767 0.22424 0.17256 0.0
H1629 H 0.60587 0.25441 0.2026 0.0
H1630 H 0.62876 0.20414 0.25438 0.0
H1631 H 0.62967 0.1738 0.22452 0.0
C1632 C 0.61067 0.26286 0.28938 0.0
C1633 C 0.61839 0.28558 0.28392 0.0
C1634 C 0.60995 0.24552 0.27215 0.0
C1635 C 0.61718 0.25041 0.24911 0.0
C1636 C 0.62479 0.27319 0.24367 0.0
C1637 C 0.62526 0.29059 0.26082 0.0
C1638 C 0.61224 0.21962 0.19038 0.0
C1639 C 0.61881 0.19662 0.19614 0.0
C1640 C 0.61133 0.23695 0.2076 0.0
C1641 C 0.61725 0.23177 0.23094 0.0
C1642 C 0.6237 0.2087 0.23669 0.0
C1643 C 0.62435 0.19131 0.21952 0.0
H1644 H 0.35305 0.8067 0.22531 0.0
H1645 H 0.37637 0.75711 0.17306 0.0
H1646 H 0.35488 0.77632 0.25501 0.0
H1647 H 0.379 0.72685 0.20302 0.0
H1648 H 0.35359 0.67301 0.25687 0.0
H1649 H 0.35427 0.70315 0.22682 0.0
H1650 H 0.38108 0.75284 0.27724 0.0
H1651 H 0.37961 0.72288 0.30752 0.0
C1652 C 0.35886 0.78938 0.2202 0.0
C1653 C 0.36452 0.78433 0.19678 0.0
C1654 C 0.36004 0.77196 0.23729 0.0
C1655 C 0.36713 0.74912 0.23145 0.0
C1656 C 0.37312 0.74416 0.20807 0.0
C1657 C 0.37173 0.76154 0.19091 0.0
C1658 C 0.35978 0.69033 0.26153 0.0
C1659 C 0.36644 0.69556 0.28464 0.0
C1660 C 0.36028 0.7076 0.24424 0.0
C1661 C 0.36767 0.73047 0.24959 0.0
C1662 C 0.37487 0.73554 0.27259 0.0
C1663 C 0.37415 0.71832 0.28994 0.0
H1664 H 0.15102 0.93 0.38057 0.0
H1665 H 0.11621 0.93336 0.31343 0.0
H1666 H 0.148 0.97239 0.3842 0.0
H1667 H 0.11404 0.97567 0.31661 0.0
H1668 H 0.10071 0.05094 0.33261 0.0
H1669 H 0.0974 0.00852 0.3356 0.0
H1670 H 0.16618 0.00549 0.36712 0.0
H1671 H 0.16905 0.04784 0.36499 0.0
C1672 C 0.14268 0.93977 0.36661 0.0
C1673 C 0.13403 0.92831 0.34662 0.0
C1674 C 0.14105 0.96409 0.36864 0.0
C1675 C 0.13096 0.97752 0.35062 0.0
C1676 C 0.12162 0.96593 0.33101 0.0
C1677 C 0.12301 0.94161 0.3291 0.0
C1678 C 0.115 0.04121 0.34041 0.0
C1679 C 0.13522 0.05275 0.34838 0.0
C1680 C 0.11316 0.01688 0.34203 0.0
C1681 C 0.13161 0.00352 0.3514 0.0
C1682 C 0.15147 0.01519 0.3601 0.0
C1683 C 0.15319 0.03952 0.35874 0.0
H1684 H 0.92986 0.15087 0.38018 0.0
H1685 H 0.9338 0.11885 0.31171 0.0
H1686 H 0.97215 0.14701 0.38437 0.0
H1687 H 0.97602 0.11589 0.31544 0.0
H1688 H 0.05078 0.10091 0.33153 0.0
H1689 H 0.0083 0.09795 0.3341 0.0
H1690 H 0.00581 0.16523 0.36875 0.0
H1691 H 0.04817 0.16769 0.36706 0.0
C1692 C 0.93976 0.14301 0.36603 0.0
C1693 C 0.92851 0.13534 0.34553 0.0
C1694 C 0.96401 0.14087 0.36839 0.0
C1695 C 0.97757 0.13129 0.35018 0.0
C1696 C 0.96617 0.123 0.32999 0.0
C1697 C 0.94192 0.12487 0.32776 0.0
C1698 C 0.04115 0.11491 0.33996 0.0
C1699 C 0.05283 0.13463 0.34889 0.0
C1700 C 0.01679 0.11328 0.34133 0.0
C1701 C 0.00356 0.13146 0.35139 0.0
C1702 C 0.01538 0.15073 0.36115 0.0
C1703 C 0.03973 0.15222 0.36005 0.0
H1704 H 0.86546 0.04953 0.31162 0.0
H1705 H 0.83173 0.05232 0.37933 0.0
H1706 H 0.86794 0.00723 0.3145 0.0
H1707 H 0.83513 0.00992 0.38271 0.0
H1708 H 0.81366 0.93481 0.3634 0.0
H1709 H 0.8167 0.97708 0.36579 0.0
H1710 H 0.88475 0.97411 0.33266 0.0
H1711 H 0.88121 0.93171 0.32937 0.0
C1712 C 0.85899 0.04114 0.32735 0.0
C1713 C 0.84814 0.05426 0.34512 0.0
C1714 C 0.86057 0.01684 0.32909 0.0
C1715 C 0.8516 0.00508 0.34878 0.0
C1716 C 0.84176 0.01835 0.36707 0.0
C1717 C 0.8399 0.04266 0.36519 0.0
C1718 C 0.8294 0.94312 0.35683 0.0
C1719 C 0.84708 0.92991 0.34596 0.0
C1720 C 0.83123 0.96741 0.35836 0.0
C1721 C 0.85093 0.97908 0.34933 0.0
C1722 C 0.86911 0.96575 0.33938 0.0
C1723 C 0.86714 0.94143 0.33758 0.0
H1724 H 0.93438 0.86684 0.31345 0.0
H1725 H 0.93032 0.83187 0.38046 0.0
H1726 H 0.97665 0.86881 0.31697 0.0
H1727 H 0.9727 0.83467 0.38445 0.0
H1728 H 0.05189 0.88114 0.33294 0.0
H1729 H 0.00954 0.88506 0.33617 0.0
H1730 H 0.0057 0.81619 0.36742 0.0
H1731 H 0.048 0.81273 0.36506 0.0
C1732 C 0.94247 0.85998 0.32917 0.0
C1733 C 0.92899 0.84894 0.34654 0.0
C1734 C 0.96677 0.86126 0.33128 0.0
C1735 C 0.97815 0.85177 0.35095 0.0
C1736 C 0.96455 0.84173 0.36885 0.0
C1737 C 0.94024 0.84021 0.36662 0.0
C1738 C 0.042 0.86696 0.34074 0.0
C1739 C 0.05327 0.84653 0.34853 0.0
C1740 C 0.01771 0.86916 0.34251 0.0
C1741 C 0.00414 0.85085 0.35183 0.0
C1742 C 0.01556 0.8308 0.36043 0.0
C1743 C 0.03986 0.82873 0.35894 0.0
H1744 H 0.11789 0.04626 0.67047 0.0
H1745 H 0.14848 0.04938 0.60131 0.0
H1746 H 0.11498 0.00397 0.66732 0.0
H1747 H 0.1447 0.00705 0.59774 0.0
H1748 H 0.16617 0.93144 0.6153 0.0
H1749 H 0.16356 0.97378 0.61355 0.0
H1750 H 0.09687 0.97126 0.64934 0.0
H1751 H 0.09995 0.92879 0.6519 0.0
C1752 C 0.12359 0.03796 0.65439 0.0
C1753 C 0.13367 0.05117 0.63625 0.0
C1754 C 0.12177 0.01366 0.65251 0.0
C1755 C 0.12973 0.00202 0.63232 0.0
C1756 C 0.13884 0.01538 0.61374 0.0
C1757 C 0.14093 0.03967 0.61574 0.0
C1758 C 0.1508 0.93986 0.62258 0.0
C1759 C 0.13339 0.92672 0.63398 0.0
C1760 C 0.14922 0.9642 0.62143 0.0
C1761 C 0.13006 0.97601 0.63142 0.0
C1762 C 0.1121 0.96278 0.64188 0.0
C1763 C 0.1138 0.93841 0.64325 0.0
H1764 H 0.93121 0.14984 0.60134 0.0
H1765 H 0.93342 0.11835 0.67013 0.0
H1766 H 0.97362 0.14621 0.59835 0.0
H1767 H 0.97575 0.11561 0.66759 0.0
H1768 H 0.05111 0.10041 0.65273 0.0
H1769 H 0.00863 0.09765 0.64985 0.0
H1770 H 0.00675 0.16472 0.61478 0.0
H1771 H 0.04909 0.16701 0.6168 0.0
C1772 C 0.94075 0.14213 0.61581 0.0
C1773 C 0.92896 0.13454 0.63604 0.0
C1774 C 0.96507 0.14014 0.61415 0.0
C1775 C 0.97817 0.13079 0.6328 0.0
C1776 C 0.96626 0.12257 0.65273 0.0
C1777 C 0.94194 0.1243 0.65426 0.0
C1778 C 0.04162 0.11444 0.64418 0.0
C1779 C 0.05349 0.134 0.63514 0.0
C1780 C 0.01725 0.11291 0.64263 0.0
C1781 C 0.0042 0.13104 0.63224 0.0
C1782 C 0.01619 0.15025 0.62258 0.0
C1783 C 0.04053 0.15164 0.62389 0.0
H1784 H 0.83048 0.05156 0.60065 0.0
H1785 H 0.86545 0.04858 0.6677 0.0
H1786 H 0.83287 0.00908 0.59756 0.0
H1787 H 0.86697 0.00621 0.6651 0.0
H1788 H 0.81095 0.93417 0.61726 0.0
H1789 H 0.81431 0.97647 0.61493 0.0
H1790 H 0.88293 0.97281 0.64675 0.0
H1791 H 0.87909 0.93045 0.64998 0.0
C1792 C 0.83873 0.04184 0.6147 0.0
C1793 C 0.84761 0.05343 0.6345 0.0
C1794 C 0.83999 0.01748 0.61299 0.0
C1795 C 0.84991 0.00414 0.63118 0.0
C1796 C 0.85951 0.01586 0.65059 0.0
C1797 C 0.85851 0.04021 0.65216 0.0
C1798 C 0.82686 0.94236 0.62357 0.0
C1799 C 0.84465 0.92897 0.63403 0.0
C1800 C 0.82887 0.96666 0.62208 0.0
C1801 C 0.84886 0.97814 0.63075 0.0
C1802 C 0.86708 0.96461 0.64033 0.0
C1803 C 0.86494 0.94031 0.6421 0.0
H1804 H 0.92935 0.83092 0.59952 0.0
H1805 H 0.93251 0.86631 0.66636 0.0
H1806 H 0.97185 0.83315 0.59637 0.0
H1807 H 0.97486 0.86766 0.6637 0.0
H1808 H 0.04662 0.8107 0.61665 0.0
H1809 H 0.00435 0.81448 0.61386 0.0
H1810 H 0.00838 0.88322 0.64538 0.0
H1811 H 0.05065 0.87895 0.64908 0.0
C1812 C 0.9391 0.83925 0.6135 0.0
C1813 C 0.92756 0.84827 0.63328 0.0
C1814 C 0.96348 0.84041 0.61176 0.0
C1815 C 0.97686 0.85037 0.62988 0.0
C1816 C 0.96518 0.86016 0.64923 0.0
C1817 C 0.94083 0.85925 0.65084 0.0
C1818 C 0.03851 0.82672 0.62278 0.0
C1819 C 0.05195 0.8444 0.63334 0.0
C1820 C 0.01424 0.82898 0.62103 0.0
C1821 C 0.00287 0.84912 0.62952 0.0
C1822 C 0.01648 0.86726 0.63911 0.0
C1823 C 0.04073 0.86486 0.64116 0.0
H1824 H 0.33208 0.1011 0.05178 0.0
H1825 H 0.36447 0.16946 0.04926 0.0
H1826 H 0.3352 0.09812 0.00934 0.0
H1827 H 0.36673 0.16691 0.00692 0.0
H1828 H 0.38052 0.1522 0.93135 0.0
H1829 H 0.38396 0.14896 0.97375 0.0
H1830 H 0.31633 0.11503 0.97655 0.0
H1831 H 0.31334 0.11743 0.93426 0.0
C1832 C 0.3399 0.11547 0.04218 0.0
C1833 C 0.34784 0.1356 0.05389 0.0
C1834 C 0.3416 0.11381 0.01784 0.0
C1835 C 0.35103 0.13235 0.00464 0.0
C1836 C 0.35968 0.15213 0.01648 0.0
C1837 C 0.35823 0.15367 0.04081 0.0
C1838 C 0.36651 0.14384 0.94102 0.0
C1839 C 0.34658 0.13524 0.92944 0.0
C1840 C 0.36843 0.14207 0.96535 0.0
C1841 C 0.35035 0.1319 0.97863 0.0
C1842 C 0.33077 0.12266 0.96692 0.0
C1843 C 0.32897 0.12419 0.94261 0.0
H1844 H 0.86345 0.31309 0.93291 0.0
H1845 H 0.83081 0.38134 0.93003 0.0
H1846 H 0.86559 0.31585 0.97526 0.0
H1847 H 0.83381 0.38453 0.97246 0.0
H1848 H 0.81186 0.36558 0.04762 0.0
H1849 H 0.81491 0.36774 0.00529 0.0
H1850 H 0.88264 0.334 0.00838 0.0
H1851 H 0.87912 0.33099 0.05079 0.0
C1852 C 0.85714 0.32891 0.94128 0.0
C1853 C 0.84671 0.34688 0.92811 0.0
C1854 C 0.85851 0.33056 0.96562 0.0
C1855 C 0.84974 0.35036 0.97734 0.0
C1856 C 0.8403 0.36882 0.96405 0.0
C1857 C 0.83867 0.36704 0.93971 0.0
C1858 C 0.82752 0.35882 0.03931 0.0
C1859 C 0.84513 0.34788 0.05256 0.0
C1860 C 0.82936 0.36021 0.01499 0.0
C1861 C 0.84898 0.35094 0.00335 0.0
C1862 C 0.86707 0.34089 0.01672 0.0
C1863 C 0.8651 0.33926 0.04104 0.0
H1864 H 0.66657 0.86502 0.93329 0.0
H1865 H 0.59947 0.83011 0.93036 0.0
H1866 H 0.66357 0.86735 0.97558 0.0
H1867 H 0.59601 0.83329 0.97278 0.0
H1868 H 0.61642 0.81177 0.04789 0.0
H1869 H 0.61355 0.81497 0.00561 0.0
H1870 H 0.64481 0.88386 0.00863 0.0
H1871 H 0.64855 0.88023 0.05097 0.0
C1872 C 0.65093 0.85825 0.94163 0.0
C1873 C 0.63339 0.84711 0.92847 0.0
C1874 C 0.64913 0.85974 0.96594 0.0
C1875 C 0.6296 0.85038 0.97765 0.0
C1876 C 0.61151 0.84026 0.96436 0.0
C1877 C 0.61344 0.83852 0.94004 0.0
C1878 C 0.62247 0.82772 0.03958 0.0
C1879 C 0.633 0.84562 0.05276 0.0
C1880 C 0.62066 0.82963 0.0153 0.0
C1881 C 0.62908 0.84962 0.00365 0.0
C1882 C 0.63859 0.86801 0.01698 0.0
C1883 C 0.64066 0.86598 0.04126 0.0
H1884 H 0.16999 0.61557 0.04955 0.0
H1885 H 0.10283 0.65032 0.05287 0.0
H1886 H 0.16705 0.61379 0.00719 0.0
H1887 H 0.0994 0.64768 0.01044 0.0
H1888 H 0.11843 0.6691 0.93519 0.0
H1889 H 0.11649 0.66608 0.97754 0.0
H1890 H 0.14827 0.59742 0.97414 0.0
H1891 H 0.15108 0.6009 0.93172 0.0
C1892 C 0.15437 0.62243 0.04127 0.0
C1893 C 0.13676 0.63332 0.05456 0.0
C1894 C 0.1526 0.62127 0.01693 0.0
C1895 C 0.13303 0.63072 0.00533 0.0
C1896 C 0.11494 0.64067 0.01875 0.0
C1897 C 0.11684 0.64209 0.04309 0.0
C1898 C 0.12479 0.65325 0.94344 0.0
C1899 C 0.13513 0.63535 0.9301 0.0
C1900 C 0.12354 0.65143 0.96777 0.0
C1901 C 0.13233 0.63154 0.97933 0.0
C1902 C 0.14176 0.61319 0.96587 0.0
C1903 C 0.14328 0.61513 0.94154 0.0
H1904 H 0.37983 0.8318 0.92999 0.0
H1905 H 0.31286 0.86689 0.93373 0.0
H1906 H 0.38359 0.83454 0.97239 0.0
H1907 H 0.31614 0.86877 0.97605 0.0
H1908 H 0.3321 0.88109 0.05152 0.0
H1909 H 0.33506 0.88488 0.00913 0.0
H1910 H 0.36658 0.81613 0.00532 0.0
H1911 H 0.3645 0.8128 0.04764 0.0
C1912 C 0.36594 0.84015 0.93986 0.0
C1913 C 0.34595 0.84894 0.9285 0.0
C1914 C 0.36804 0.84162 0.96418 0.0
C1915 C 0.35007 0.85166 0.97772 0.0
C1916 C 0.33049 0.86121 0.96623 0.0
C1917 C 0.32852 0.85999 0.94191 0.0
C1918 C 0.33989 0.8669 0.04162 0.0
C1919 C 0.34788 0.84656 0.05293 0.0
C1920 C 0.34149 0.86902 0.01731 0.0
C1921 C 0.35086 0.85073 0.00373 0.0
C1922 C 0.35957 0.83073 0.01518 0.0
C1923 C 0.35823 0.82874 0.03949 0.0
H1924 H 0.10055 0.3266 0.05088 0.0
H1925 H 0.16604 0.36438 0.04729 0.0
H1926 H 0.09671 0.32933 0.00848 0.0
H1927 H 0.16269 0.3663 0.005 0.0
H1928 H 0.14582 0.37945 0.93 0.0
H1929 H 0.14282 0.3823 0.97244 0.0
H1930 H 0.11429 0.31221 0.97503 0.0
H1931 H 0.1164 0.30978 0.93261 0.0
C1932 C 0.11411 0.33552 0.04106 0.0
C1933 C 0.13368 0.34513 0.05247 0.0
C1934 C 0.11196 0.33699 0.01673 0.0
C1935 C 0.12946 0.3479 0.00325 0.0
C1936 C 0.14867 0.35809 0.01478 0.0
C1937 C 0.15069 0.35685 0.0391 0.0
C1938 C 0.13867 0.36475 0.93963 0.0
C1939 C 0.13154 0.34431 0.92796 0.0
C1940 C 0.13705 0.36634 0.96398 0.0
C1941 C 0.12856 0.34739 0.97723 0.0
C1942 C 0.12064 0.32727 0.96543 0.0
C1943 C 0.12198 0.32581 0.94107 0.0
H1944 H 0.65024 0.1004 0.05056 0.0
H1945 H 0.61687 0.16825 0.04716 0.0
H1946 H 0.64732 0.09686 0.00815 0.0
H1947 H 0.61483 0.16519 0.00483 0.0
H1948 H 0.66902 0.11543 0.93277 0.0
H1949 H 0.66593 0.11336 0.97511 0.0
H1950 H 0.59806 0.14683 0.97184 0.0
H1951 H 0.60166 0.14977 0.92944 0.0
C1952 C 0.64224 0.11454 0.04076 0.0
C1953 C 0.63396 0.13468 0.05221 0.0
C1954 C 0.64067 0.11256 0.01644 0.0
C1955 C 0.63104 0.13082 0.00299 0.0
C1956 C 0.62205 0.15061 0.01458 0.0
C1957 C 0.62335 0.15245 0.0389 0.0
C1958 C 0.65332 0.12213 0.94105 0.0
C1959 C 0.63571 0.13301 0.92776 0.0
C1960 C 0.65146 0.1208 0.96538 0.0
C1961 C 0.6318 0.13006 0.97698 0.0
C1962 C 0.61368 0.13997 0.96355 0.0
C1963 C 0.61568 0.14157 0.93923 0.0
H1964 H 0.81581 0.6161 0.93287 0.0
H1965 H 0.88128 0.65391 0.92915 0.0
H1966 H 0.81923 0.61419 0.97514 0.0
H1967 H 0.8852 0.65117 0.97155 0.0
H1968 H 0.86524 0.67136 0.04716 0.0
H1969 H 0.86759 0.66851 0.0048 0.0
H1970 H 0.83891 0.5985 0.00791 0.0
H1971 H 0.83565 0.60179 0.05031 0.0
C1972 C 0.83119 0.62362 0.94104 0.0
C1973 C 0.84814 0.63538 0.92764 0.0
C1974 C 0.83324 0.62238 0.96534 0.0
C1975 C 0.85245 0.63263 0.97684 0.0
C1976 C 0.86995 0.6435 0.96333 0.0
C1977 C 0.86775 0.64497 0.939 0.0
C1978 C 0.85967 0.65525 0.03884 0.0
C1979 C 0.84999 0.63692 0.05207 0.0
C1980 C 0.86116 0.65355 0.01451 0.0
C1981 C 0.85328 0.63333 0.00286 0.0
C1982 C 0.84467 0.61453 0.01624 0.0
C1983 C 0.84289 0.61636 0.04056 0.0
H1984 H 0.04704 0.31233 0.11672 0.0
H1985 H 0.05097 0.37984 0.15069 0.0
H1986 H 0.00478 0.31594 0.11432 0.0
H1987 H 0.00863 0.38393 0.14743 0.0
H1988 H 0.93279 0.36606 0.16812 0.0
H1989 H 0.97516 0.36767 0.16549 0.0
H1990 H 0.97225 0.33496 0.09726 0.0
H1991 H 0.92977 0.33248 0.10036 0.0
C1992 C 0.03892 0.32816 0.12329 0.0
C1993 C 0.05236 0.34569 0.13413 0.0
C1994 C 0.01463 0.33032 0.12176 0.0
C1995 C 0.00321 0.35019 0.13078 0.0
C1996 C 0.01679 0.36818 0.14072 0.0
C1997 C 0.04108 0.36589 0.14251 0.0
C1998 C 0.94114 0.35944 0.15243 0.0
C1999 C 0.92791 0.34889 0.13457 0.0
C2000 C 0.9655 0.3605 0.15084 0.0
C2001 C 0.9772 0.3513 0.13122 0.0
C2002 C 0.96385 0.34176 0.11285 0.0
C2003 C 0.93949 0.34044 0.11456 0.0
H2004 H 0.05145 0.6012 0.83139 0.0
H2005 H 0.04841 0.66817 0.86651 0.0
H2006 H 0.00896 0.59815 0.83362 0.0
H2007 H 0.00602 0.66562 0.86787 0.0
H2008 H 0.93024 0.65064 0.87968 0.0
H2009 H 0.97257 0.64724 0.88368 0.0
H2010 H 0.97642 0.6156 0.81498 0.0
H2011 H 0.93412 0.6181 0.81146 0.0
C2012 C 0.04171 0.61524 0.83963 0.0
C2013 C 0.05329 0.63501 0.84861 0.0
C2014 C 0.01734 0.61356 0.84081 0.0
C2015 C 0.00399 0.63173 0.85072 0.0
C2016 C 0.01569 0.65111 0.86041 0.0
C2017 C 0.04005 0.65266 0.8595 0.0
C2018 C 0.94013 0.64275 0.86554 0.0
C2019 C 0.92885 0.6348 0.84517 0.0
C2020 C 0.96441 0.64089 0.86779 0.0
C2021 C 0.97799 0.63133 0.84958 0.0
C2022 C 0.96656 0.62274 0.82952 0.0
C2023 C 0.94227 0.62432 0.82742 0.0
H2024 H 0.37933 0.93118 0.82978 0.0
H2025 H 0.31244 0.93469 0.86508 0.0
H2026 H 0.38324 0.97353 0.83307 0.0
H2027 H 0.31589 0.97695 0.86754 0.0
H2028 H 0.3324 0.052 0.88136 0.0
H2029 H 0.33523 0.00953 0.88434 0.0
H2030 H 0.36618 0.00686 0.81527 0.0
H2031 H 0.36421 0.04922 0.81272 0.0
C2032 C 0.36548 0.94097 0.83827 0.0
C2033 C 0.34549 0.92957 0.847 0.0
C2034 C 0.36767 0.96527 0.84007 0.0
C2035 C 0.3498 0.97872 0.8504 0.0
C2036 C 0.33017 0.96718 0.85978 0.0
C2037 C 0.32811 0.9429 0.85822 0.0
C2038 C 0.34004 0.04233 0.86693 0.0
C2039 C 0.34789 0.05397 0.84672 0.0
C2040 C 0.34157 0.01798 0.86859 0.0
C2041 C 0.35073 0.00471 0.84996 0.0
C2042 C 0.35933 0.01648 0.83011 0.0
C2043 C 0.35805 0.04082 0.82857 0.0
H2044 H 0.04654 0.31441 0.86473 0.0
H2045 H 0.05006 0.37948 0.82621 0.0
H2046 H 0.00427 0.31781 0.86673 0.0
H2047 H 0.00766 0.3834 0.82905 0.0
H2048 H 0.9318 0.36379 0.80996 0.0
H2049 H 0.97419 0.36582 0.81229 0.0
H2050 H 0.97169 0.33768 0.88255 0.0
H2051 H 0.92923 0.33472 0.87979 0.0
C2052 C 0.03833 0.32969 0.85705 0.0
C2053 C 0.05168 0.34656 0.84511 0.0
C2054 C 0.01402 0.33174 0.85835 0.0
C2055 C 0.00247 0.35085 0.84799 0.0
C2056 C 0.01593 0.36822 0.83684 0.0
C2057 C 0.04026 0.36603 0.8353 0.0
C2058 C 0.94026 0.35827 0.82602 0.0
C2059 C 0.92716 0.34884 0.84459 0.0
C2060 C 0.96462 0.35957 0.82742 0.0
C2061 C 0.97645 0.35176 0.84755 0.0
C2062 C 0.96321 0.34337 0.86657 0.0
C2063 C 0.93885 0.34178 0.86505 0.0
H2064 H 0.61735 0.93219 0.81106 0.0
H2065 H 0.64942 0.92937 0.87956 0.0
H2066 H 0.61563 0.9746 0.81357 0.0
H2067 H 0.6469 0.97184 0.88246 0.0
H2068 H 0.60184 0.05018 0.82906 0.0
H2069 H 0.59843 0.00777 0.8318 0.0
H2070 H 0.6661 0.0046 0.8656 0.0
H2071 H 0.66909 0.04696 0.86365 0.0
C2072 C 0.62364 0.94059 0.82685 0.0
C2073 C 0.63375 0.9274 0.845 0.0
C2074 C 0.62253 0.96496 0.82836 0.0
C2075 C 0.63125 0.9767 0.84817 0.0
C2076 C 0.64045 0.96341 0.86675 0.0
C2077 C 0.64179 0.93904 0.86513 0.0
C2078 C 0.61588 0.04044 0.83728 0.0
C2079 C 0.63582 0.05196 0.84598 0.0
C2080 C 0.61398 0.0161 0.83875 0.0
C2081 C 0.63207 0.00271 0.84874 0.0
C2082 C 0.65166 0.01433 0.85808 0.0
C2083 C 0.65346 0.03867 0.85683 0.0
H2084 H 0.93089 0.60196 0.15254 0.0
H2085 H 0.93514 0.66828 0.11633 0.0
H2086 H 0.97326 0.59779 0.14983 0.0
H2087 H 0.97743 0.66463 0.11449 0.0
H2088 H 0.05254 0.64772 0.1017 0.0
H2089 H 0.01009 0.64514 0.09836 0.0
H2090 H 0.00663 0.61451 0.16754 0.0
H2091 H 0.04899 0.61618 0.17041 0.0
C2092 C 0.94087 0.61563 0.14399 0.0
C2093 C 0.92966 0.63552 0.1348 0.0
C2094 C 0.96517 0.6133 0.14252 0.0
C2095 C 0.97885 0.63094 0.13209 0.0
C2096 C 0.96751 0.6505 0.12231 0.0
C2097 C 0.94321 0.65268 0.12351 0.0
C2098 C 0.0427 0.64019 0.11607 0.0
C2099 C 0.05412 0.63233 0.1364 0.0
C2100 C 0.01835 0.63881 0.11421 0.0
C2101 C 0.00485 0.62984 0.13277 0.0
C2102 C 0.0164 0.62123 0.15274 0.0
C2103 C 0.04075 0.62232 0.15447 0.0
H2104 H 0.36488 0.9329 0.16925 0.0
H2105 H 0.33075 0.93028 0.10175 0.0
H2106 H 0.36703 0.97524 0.16659 0.0
H2107 H 0.33378 0.97272 0.0986 0.0
H2108 H 0.31269 0.04794 0.11794 0.0
H2109 H 0.3155 0.00563 0.1157 0.0
H2110 H 0.38379 0.00835 0.1483 0.0
H2111 H 0.38051 0.05078 0.15143 0.0
C2112 C 0.35824 0.94133 0.15361 0.0
C2113 C 0.34741 0.92823 0.13582 0.0
C2114 C 0.35962 0.96567 0.152 0.0
C2115 C 0.35047 0.97748 0.13243 0.0
C2116 C 0.34057 0.96425 0.11415 0.0
C2117 C 0.33892 0.93991 0.1159 0.0
C2118 C 0.32842 0.03957 0.12443 0.0
C2119 C 0.34627 0.05273 0.13509 0.0
C2120 C 0.33012 0.01524 0.12299 0.0
C2121 C 0.34983 0.00349 0.13191 0.0
C2122 C 0.36814 0.01677 0.14167 0.0
C2123 C 0.36632 0.04111 0.14337 0.0
H2124 H 0.66798 0.93303 0.11591 0.0
H2125 H 0.60068 0.93001 0.15043 0.0
H2126 H 0.66499 0.97532 0.11362 0.0
H2127 H 0.59718 0.97242 0.14725 0.0
H2128 H 0.61623 0.04794 0.16792 0.0
H2129 H 0.61394 0.00561 0.16518 0.0
H2130 H 0.64656 0.00822 0.09688 0.0
H2131 H 0.64976 0.05064 0.10011 0.0
C2132 C 0.6523 0.94136 0.12262 0.0
C2133 C 0.63467 0.92815 0.13358 0.0
C2134 C 0.6505 0.96567 0.12115 0.0
C2135 C 0.63088 0.97738 0.13034 0.0
C2136 C 0.61276 0.96404 0.14041 0.0
C2137 C 0.6147 0.93971 0.14214 0.0
C2138 C 0.62269 0.03953 0.15219 0.0
C2139 C 0.63342 0.05265 0.13434 0.0
C2140 C 0.62124 0.0152 0.15054 0.0
C2141 C 0.6302 0.00341 0.13086 0.0
C2142 C 0.63993 0.01666 0.11251 0.0
C2143 C 0.64167 0.041 0.1143 0.0
H2144 H 0.10037 0.55099 0.83534 0.0
H2145 H 0.16968 0.54739 0.86552 0.0
H2146 H 0.09689 0.50858 0.83836 0.0
H2147 H 0.16665 0.50506 0.86761 0.0
H2148 H 0.15187 0.42942 0.88075 0.0
H2149 H 0.1492 0.47181 0.88487 0.0
H2150 H 0.11249 0.47578 0.81876 0.0
H2151 H 0.11431 0.43351 0.81517 0.0
C2152 C 0.11484 0.54115 0.84266 0.0
C2153 C 0.13538 0.55254 0.85 0.0
C2154 C 0.1129 0.51682 0.8443 0.0
C2155 C 0.13158 0.50331 0.853 0.0
C2156 C 0.15177 0.51484 0.86111 0.0
C2157 C 0.15358 0.53917 0.85977 0.0
C2158 C 0.14301 0.43936 0.86723 0.0
C2159 C 0.13347 0.4281 0.84754 0.0
C2160 C 0.14157 0.46367 0.86954 0.0
C2161 C 0.1308 0.4773 0.85206 0.0
C2162 C 0.1206 0.4659 0.83276 0.0
C2163 C 0.12179 0.4416 0.83061 0.0
H2164 H 0.86507 0.5487 0.81249 0.0
H2165 H 0.82962 0.55208 0.8793 0.0
H2166 H 0.86669 0.50636 0.81542 0.0
H2167 H 0.8321 0.50963 0.88271 0.0
H2168 H 0.81069 0.43443 0.86329 0.0
H2169 H 0.81384 0.47676 0.86543 0.0
H2170 H 0.88277 0.47324 0.83426 0.0
H2171 H 0.87917 0.43085 0.83123 0.0
C2172 C 0.85802 0.54043 0.82804 0.0
C2173 C 0.84699 0.55376 0.84555 0.0
C2174 C 0.85909 0.51609 0.82981 0.0
C2175 C 0.84942 0.5045 0.84926 0.0
C2176 C 0.8393 0.51793 0.86726 0.0
C2177 C 0.83798 0.54228 0.86536 0.0
C2178 C 0.82663 0.44265 0.8571 0.0
C2179 C 0.84457 0.42929 0.84685 0.0
C2180 C 0.82851 0.46697 0.85848 0.0
C2181 C 0.84852 0.47849 0.8499 0.0
C2182 C 0.86691 0.465 0.84059 0.0
C2183 C 0.86489 0.44068 0.83895 0.0
H2184 H 0.15062 0.42955 0.10091 0.0
H2185 H 0.11587 0.4321 0.16813 0.0
H2186 H 0.14818 0.47206 0.0981 0.0
H2187 H 0.11429 0.47446 0.16578 0.0
H2188 H 0.10215 0.55028 0.15136 0.0
H2189 H 0.09822 0.50797 0.14761 0.0
H2190 H 0.16688 0.50451 0.11584 0.0
H2191 H 0.17036 0.54677 0.11872 0.0
C2192 C 0.1424 0.43917 0.11505 0.0
C2193 C 0.13362 0.42744 0.13483 0.0
C2194 C 0.1411 0.46354 0.1135 0.0
C2195 C 0.13123 0.47675 0.13181 0.0
C2196 C 0.12171 0.46491 0.15118 0.0
C2197 C 0.12277 0.44055 0.15261 0.0
C2198 C 0.1163 0.54048 0.14338 0.0
C2199 C 0.13665 0.55186 0.13552 0.0
C2200 C 0.11409 0.51621 0.1413 0.0
C2201 C 0.1323 0.50276 0.13159 0.0
C2202 C 0.15233 0.51428 0.12309 0.0
C2203 C 0.15442 0.53856 0.1249 0.0
H2204 H 0.88021 0.43102 0.14686 0.0
H2205 H 0.81074 0.43469 0.11708 0.0
H2206 H 0.88395 0.47335 0.14333 0.0
H2207 H 0.81405 0.477 0.11444 0.0
H2208 H 0.82958 0.5523 0.10006 0.0
H2209 H 0.83191 0.50984 0.09652 0.0
H2210 H 0.86852 0.50646 0.16272 0.0
H2211 H 0.86701 0.54879 0.16576 0.0
C2212 C 0.86575 0.44087 0.13952 0.0
C2213 C 0.8451 0.42953 0.13244 0.0
C2214 C 0.86785 0.46515 0.13759 0.0
C2215 C 0.84922 0.47866 0.12882 0.0
C2216 C 0.82889 0.46718 0.12098 0.0
C2217 C 0.82692 0.44288 0.12263 0.0
C2218 C 0.83836 0.54248 0.11372 0.0
C2219 C 0.84795 0.55391 0.13329 0.0
C2220 C 0.8396 0.51813 0.11175 0.0
C2221 C 0.85022 0.50466 0.12942 0.0
C2222 C 0.8605 0.51623 0.14858 0.0
C2223 C 0.8595 0.54056 0.15041 0.0
H2224 H 0.38038 0.652 0.5527 0.0
H2225 H 0.3141 0.61564 0.54911 0.0
H2226 H 0.38387 0.64979 0.51024 0.0
H2227 H 0.31711 0.61425 0.50675 0.0
H2228 H 0.33361 0.60187 0.43131 0.0
H2229 H 0.33641 0.59842 0.47372 0.0
H2230 H 0.36638 0.66786 0.47727 0.0
H2231 H 0.36445 0.67088 0.43488 0.0
C2232 C 0.36658 0.64349 0.54286 0.0
C2233 C 0.34688 0.63414 0.55429 0.0
C2234 C 0.36852 0.64233 0.5185 0.0
C2235 C 0.35069 0.63202 0.505 0.0
C2236 C 0.33136 0.62202 0.51654 0.0
C2237 C 0.32955 0.62295 0.54089 0.0
C2238 C 0.341 0.6163 0.44115 0.0
C2239 C 0.34864 0.63672 0.42974 0.0
C2240 C 0.34251 0.61437 0.46548 0.0
C2241 C 0.35142 0.63294 0.47899 0.0
C2242 C 0.35972 0.65306 0.46746 0.0
C2243 C 0.35848 0.65487 0.44312 0.0
H2244 H 0.86497 0.81534 0.43245 0.0
H2245 H 0.8281 0.88138 0.42935 0.0
H2246 H 0.86661 0.81815 0.47476 0.0
H2247 H 0.83061 0.88472 0.47182 0.0
H2248 H 0.87925 0.83373 0.55012 0.0
H2249 H 0.88254 0.83717 0.50773 0.0
H2250 H 0.81303 0.86711 0.50489 0.0
H2251 H 0.81021 0.8646 0.54724 0.0
C2252 C 0.85759 0.83071 0.44077 0.0
C2253 C 0.8462 0.84803 0.42752 0.0
C2254 C 0.85868 0.83241 0.4651 0.0
C2255 C 0.84868 0.85163 0.47679 0.0
C2256 C 0.83811 0.86945 0.46344 0.0
C2257 C 0.83677 0.8676 0.43908 0.0
C2258 C 0.86479 0.84127 0.54043 0.0
C2259 C 0.8444 0.84871 0.55201 0.0
C2260 C 0.86662 0.84314 0.51612 0.0
C2261 C 0.84797 0.8522 0.50281 0.0
C2262 C 0.8279 0.86035 0.51453 0.0
C2263 C 0.8262 0.85877 0.53886 0.0
H2264 H 0.66951 0.36212 0.54803 0.0
H2265 H 0.60042 0.33134 0.55101 0.0
H2266 H 0.66659 0.3647 0.5057 0.0
H2267 H 0.59711 0.33475 0.50863 0.0
H2268 H 0.61524 0.31326 0.43304 0.0
H2269 H 0.61336 0.31578 0.47542 0.0
H2270 H 0.64835 0.38287 0.47305 0.0
H2271 H 0.65101 0.37992 0.43058 0.0
C2272 C 0.65351 0.35629 0.53969 0.0
C2273 C 0.63531 0.34629 0.55288 0.0
C2274 C 0.65176 0.35791 0.51538 0.0
C2275 C 0.63165 0.34982 0.5037 0.0
C2276 C 0.61304 0.34072 0.51701 0.0
C2277 C 0.61489 0.33886 0.54132 0.0
C2278 C 0.62231 0.32868 0.44151 0.0
C2279 C 0.63351 0.34626 0.42844 0.0
C2280 C 0.6211 0.3302 0.46586 0.0
C2281 C 0.63084 0.34947 0.4777 0.0
C2282 C 0.6411 0.36756 0.46452 0.0
C2283 C 0.64253 0.36592 0.44017 0.0
H2284 H 0.10165 0.14764 0.55149 0.0
H2285 H 0.16994 0.11511 0.54843 0.0
H2286 H 0.09871 0.14539 0.50901 0.0
H2287 H 0.16741 0.11368 0.50602 0.0
H2288 H 0.15223 0.10121 0.43019 0.0
H2289 H 0.14928 0.09715 0.47254 0.0
H2290 H 0.1158 0.16494 0.4766 0.0
H2291 H 0.11794 0.16857 0.43429 0.0
C2292 C 0.116 0.13994 0.54176 0.0
C2293 C 0.13611 0.13174 0.55333 0.0
C2294 C 0.11437 0.13876 0.51739 0.0
C2295 C 0.13291 0.12958 0.50403 0.0
C2296 C 0.15265 0.12059 0.51571 0.0
C2297 C 0.15417 0.12153 0.54008 0.0
C2298 C 0.14405 0.11515 0.44013 0.0
C2299 C 0.13548 0.13529 0.42888 0.0
C2300 C 0.14245 0.11286 0.46442 0.0
C2301 C 0.13246 0.13078 0.47804 0.0
C2302 C 0.12329 0.15062 0.46669 0.0
C2303 C 0.12466 0.15279 0.44239 0.0
H2304 H 0.36332 0.31269 0.54777 0.0
H2305 H 0.32773 0.37942 0.55114 0.0
H2306 H 0.36538 0.31584 0.50547 0.0
H2307 H 0.33067 0.38307 0.50873 0.0
H2308 H 0.31076 0.36438 0.43293 0.0
H2309 H 0.31311 0.36617 0.47532 0.0
H2310 H 0.38204 0.3349 0.47283 0.0
H2311 H 0.37922 0.33219 0.43035 0.0
C2312 C 0.35631 0.32826 0.53951 0.0
C2313 C 0.34516 0.3457 0.55283 0.0
C2314 C 0.35764 0.33016 0.5152 0.0
C2315 C 0.34812 0.34968 0.5036 0.0
C2316 C 0.33778 0.36757 0.51703 0.0
C2317 C 0.33619 0.36554 0.54136 0.0
C2318 C 0.32653 0.3581 0.44139 0.0
C2319 C 0.3447 0.34791 0.42828 0.0
C2320 C 0.32795 0.35927 0.46575 0.0
C2321 C 0.34771 0.35055 0.47758 0.0
C2322 C 0.36634 0.34132 0.46435 0.0
C2323 C 0.36479 0.33987 0.43999 0.0
H2324 H 0.10175 0.83012 0.43002 0.0
H2325 H 0.1697 0.86325 0.43354 0.0
H2326 H 0.09827 0.83275 0.47245 0.0
H2327 H 0.16668 0.86502 0.47592 0.0
H2328 H 0.15058 0.87833 0.55134 0.0
H2329 H 0.14805 0.88186 0.50891 0.0
H2330 H 0.11489 0.81389 0.50536 0.0
H2331 H 0.11658 0.81081 0.54771 0.0
C2332 C 0.11593 0.83798 0.43985 0.0
C2333 C 0.13608 0.84631 0.42844 0.0
C2334 C 0.11399 0.8394 0.46418 0.0
C2335 C 0.13227 0.84891 0.47766 0.0
C2336 C 0.15209 0.85789 0.46613 0.0
C2337 C 0.1539 0.85674 0.44179 0.0
C2338 C 0.14253 0.86426 0.5415 0.0
C2339 C 0.13394 0.84421 0.55289 0.0
C2340 C 0.14118 0.86623 0.51716 0.0
C2341 C 0.13145 0.84808 0.50366 0.0
C2342 C 0.12219 0.82838 0.51517 0.0
C2343 C 0.1233 0.82653 0.5395 0.0
H2344 H 0.60354 0.65062 0.42982 0.0
H2345 H 0.67143 0.61731 0.4333 0.0
H2346 H 0.59984 0.64752 0.47219 0.0
H2347 H 0.66817 0.61505 0.47565 0.0
H2348 H 0.65142 0.60067 0.55079 0.0
H2349 H 0.64921 0.59776 0.5083 0.0
H2350 H 0.6163 0.6659 0.50547 0.0
H2351 H 0.61768 0.66838 0.54788 0.0
C2352 C 0.61767 0.64262 0.43963 0.0
C2353 C 0.63786 0.63437 0.42821 0.0
C2354 C 0.6156 0.64093 0.46393 0.0
C2355 C 0.63378 0.63122 0.4774 0.0
C2356 C 0.65365 0.62233 0.46586 0.0
C2357 C 0.6556 0.62376 0.44154 0.0
C2358 C 0.64348 0.61491 0.54109 0.0
C2359 C 0.63488 0.63483 0.55272 0.0
C2360 C 0.64232 0.6133 0.51672 0.0
C2361 C 0.63277 0.63168 0.5034 0.0
C2362 C 0.62348 0.65125 0.51513 0.0
C2363 C 0.6244 0.65274 0.5395 0.0
H2364 H 0.83261 0.10123 0.55023 0.0
H2365 H 0.86579 0.16919 0.5473 0.0
H2366 H 0.83551 0.09803 0.50779 0.0
H2367 H 0.8678 0.16646 0.50495 0.0
H2368 H 0.88078 0.15166 0.42933 0.0
H2369 H 0.8845 0.14845 0.4717 0.0
H2370 H 0.81675 0.11479 0.47498 0.0
H2371 H 0.81352 0.11713 0.43267 0.0
C2372 C 0.84057 0.11546 0.54053 0.0
C2373 C 0.84879 0.13554 0.55213 0.0
C2374 C 0.84213 0.11369 0.51619 0.0
C2375 C 0.85168 0.13208 0.50286 0.0
C2376 C 0.86064 0.15179 0.5146 0.0
C2377 C 0.85935 0.15343 0.53894 0.0
C2378 C 0.86681 0.14336 0.4391 0.0
C2379 C 0.84678 0.13482 0.42765 0.0
C2380 C 0.86888 0.14161 0.46341 0.0
C2381 C 0.85084 0.13155 0.47684 0.0
C2382 C 0.83117 0.12234 0.46525 0.0
C2383 C 0.82923 0.12382 0.44094 0.0
H2384 H 0.38192 0.55143 0.333 0.0
H2385 H 0.31389 0.54893 0.36612 0.0
H2386 H 0.38477 0.50895 0.3357 0.0
H2387 H 0.31629 0.50657 0.36796 0.0
H2388 H 0.33045 0.43074 0.38039 0.0
H2389 H 0.33412 0.47304 0.38446 0.0
H2390 H 0.36747 0.47655 0.31656 0.0
H2391 H 0.36467 0.43432 0.31295 0.0
C2392 C 0.36761 0.54183 0.34092 0.0
C2393 C 0.3476 0.55355 0.34915 0.0
C2394 C 0.36918 0.51747 0.34237 0.0
C2395 C 0.35066 0.50427 0.35183 0.0
C2396 C 0.33104 0.51612 0.36085 0.0
C2397 C 0.3296 0.54047 0.35966 0.0
C2398 C 0.33877 0.44055 0.36645 0.0
C2399 C 0.34709 0.42919 0.34627 0.0
C2400 C 0.34079 0.46481 0.36874 0.0
C2401 C 0.35092 0.47828 0.35077 0.0
C2402 C 0.35989 0.46677 0.33093 0.0
C2403 C 0.35812 0.44251 0.32877 0.0
H2404 H 0.60169 0.55178 0.33271 0.0
H2405 H 0.67044 0.54763 0.36408 0.0
H2406 H 0.59753 0.50948 0.33628 0.0
H2407 H 0.66673 0.50538 0.36675 0.0
H2408 H 0.65083 0.43033 0.38075 0.0
H2409 H 0.64827 0.47276 0.38435 0.0
H2410 H 0.61316 0.47618 0.31735 0.0
H2411 H 0.61487 0.43386 0.31425 0.0
C2412 C 0.6159 0.54183 0.3404 0.0
C2413 C 0.63648 0.55303 0.34792 0.0
C2414 C 0.61356 0.51758 0.34236 0.0
C2415 C 0.63188 0.50395 0.3516 0.0
C2416 C 0.65212 0.51529 0.35986 0.0
C2417 C 0.65432 0.53956 0.35818 0.0
C2418 C 0.64231 0.44015 0.36694 0.0
C2419 C 0.63324 0.42874 0.34711 0.0
C2420 C 0.64094 0.46448 0.36894 0.0
C2421 C 0.63073 0.47796 0.35104 0.0
C2422 C 0.62087 0.46641 0.33165 0.0
C2423 C 0.62198 0.44209 0.32979 0.0
H2424 H 0.32988 0.55079 0.60212 0.0
H2425 H 0.36587 0.54691 0.66859 0.0
H2426 H 0.33251 0.5084 0.59825 0.0
H2427 H 0.36769 0.50459 0.66519 0.0
H2428 H 0.38005 0.4293 0.64869 0.0
H2429 H 0.38368 0.47168 0.64572 0.0
H2430 H 0.3143 0.47541 0.61562 0.0
H2431 H 0.31109 0.43307 0.61773 0.0
C2432 C 0.33841 0.5409 0.61588 0.0
C2433 C 0.34749 0.55221 0.63576 0.0
C2434 C 0.33982 0.51658 0.61371 0.0
C2435 C 0.35012 0.50301 0.6315 0.0
C2436 C 0.35993 0.51445 0.65097 0.0
C2437 C 0.35876 0.53877 0.65301 0.0
C2438 C 0.36568 0.43917 0.64121 0.0
C2439 C 0.34519 0.42784 0.63364 0.0
C2440 C 0.36772 0.46348 0.6396 0.0
C2441 C 0.3492 0.47703 0.63065 0.0
C2442 C 0.32906 0.46557 0.62232 0.0
C2443 C 0.32714 0.44125 0.62366 0.0
H2444 H 0.64858 0.42901 0.60046 0.0
H2445 H 0.61585 0.43242 0.66864 0.0
H2446 H 0.64588 0.47143 0.59707 0.0
H2447 H 0.61396 0.47478 0.66565 0.0
H2448 H 0.6007 0.55022 0.64998 0.0
H2449 H 0.59701 0.50784 0.64706 0.0
H2450 H 0.66499 0.50429 0.61389 0.0
H2451 H 0.66827 0.54663 0.61601 0.0
C2452 C 0.64075 0.4388 0.6147 0.0
C2453 C 0.63262 0.42734 0.63491 0.0
C2454 C 0.63931 0.46314 0.6128 0.0
C2455 C 0.62991 0.47659 0.63117 0.0
C2456 C 0.62102 0.46501 0.65101 0.0
C2457 C 0.62225 0.44067 0.6528 0.0
C2458 C 0.61475 0.54039 0.64184 0.0
C2459 C 0.63488 0.55178 0.63342 0.0
C2460 C 0.61267 0.51608 0.64026 0.0
C2461 C 0.63079 0.50258 0.63044 0.0
C2462 C 0.65054 0.5141 0.62128 0.0
C2463 C 0.6525 0.53842 0.62263 0.0
H2464 H 0.4301 0.1013 0.83368 0.0
H2465 H 0.43398 0.17035 0.86442 0.0
H2466 H 0.47247 0.09754 0.8368 0.0
H2467 H 0.47631 0.16701 0.86666 0.0
H2468 H 0.55164 0.15127 0.88045 0.0
H2469 H 0.50921 0.14885 0.88418 0.0
H2470 H 0.50553 0.11326 0.81745 0.0
H2471 H 0.54785 0.11485 0.81419 0.0
C2472 C 0.43999 0.11566 0.84114 0.0
C2473 C 0.42869 0.1362 0.84862 0.0
C2474 C 0.4643 0.11355 0.84283 0.0
C2475 C 0.47788 0.13205 0.85177 0.0
C2476 C 0.46644 0.15226 0.85998 0.0
C2477 C 0.44213 0.15425 0.85856 0.0
C2478 C 0.54177 0.14269 0.86671 0.0
C2479 C 0.55312 0.13343 0.84693 0.0
C2480 C 0.51743 0.1414 0.86879 0.0
C2481 C 0.50388 0.13105 0.85103 0.0
C2482 C 0.51536 0.12106 0.83165 0.0
C2483 C 0.53968 0.12212 0.8297 0.0
H2484 H 0.54669 0.81237 0.86451 0.0
H2485 H 0.5505 0.87947 0.82968 0.0
H2486 H 0.50436 0.81572 0.86639 0.0
H2487 H 0.5081 0.88325 0.83236 0.0
H2488 H 0.42924 0.83264 0.87998 0.0
H2489 H 0.4717 0.8351 0.88308 0.0
H2490 H 0.47483 0.86631 0.81417 0.0
H2491 H 0.43242 0.86467 0.81148 0.0
C2492 C 0.53854 0.82806 0.85763 0.0
C2493 C 0.55198 0.84554 0.84673 0.0
C2494 C 0.51421 0.83005 0.85885 0.0
C2495 C 0.50275 0.84971 0.84942 0.0
C2496 C 0.5163 0.86766 0.83939 0.0
C2497 C 0.54063 0.86555 0.83795 0.0
C2498 C 0.439 0.84024 0.8656 0.0
C2499 C 0.42746 0.84828 0.8454 0.0
C2500 C 0.46335 0.84156 0.86733 0.0
C2501 C 0.47675 0.85069 0.84879 0.0
C2502 C 0.46511 0.85945 0.82893 0.0
C2503 C 0.44074 0.85838 0.82732 0.0
H2504 H 0.4304 0.14935 0.10172 0.0
H2505 H 0.43372 0.11745 0.17028 0.0
H2506 H 0.47284 0.14655 0.09839 0.0
H2507 H 0.47608 0.11553 0.16739 0.0
H2508 H 0.55153 0.10185 0.15189 0.0
H2509 H 0.50911 0.09834 0.14927 0.0
H2510 H 0.50578 0.16563 0.11472 0.0
H2511 H 0.54815 0.16867 0.1165 0.0
C2512 C 0.44018 0.1417 0.11606 0.0
C2513 C 0.4287 0.13379 0.13634 0.0
C2514 C 0.46453 0.1402 0.11421 0.0
C2515 C 0.47795 0.13101 0.1327 0.0
C2516 C 0.46634 0.1224 0.15264 0.0
C2517 C 0.442 0.12364 0.15438 0.0
C2518 C 0.54174 0.11578 0.14353 0.0
C2519 C 0.5532 0.13562 0.13456 0.0
C2520 C 0.5174 0.11382 0.14212 0.0
C2521 C 0.50396 0.13178 0.13196 0.0
C2522 C 0.51554 0.15128 0.12235 0.0
C2523 C 0.53988 0.15311 0.12352 0.0
H2524 H 0.55116 0.87941 0.15209 0.0
H2525 H 0.54797 0.81298 0.11596 0.0
H2526 H 0.50874 0.88299 0.14921 0.0
H2527 H 0.50565 0.81606 0.11392 0.0
H2528 H 0.43032 0.83207 0.10098 0.0
H2529 H 0.47274 0.83522 0.09769 0.0
H2530 H 0.47571 0.86552 0.16703 0.0
H2531 H 0.43337 0.86327 0.16987 0.0
C2532 C 0.54141 0.86559 0.14351 0.0
C2533 C 0.55292 0.84583 0.13442 0.0
C2534 C 0.51708 0.86759 0.14194 0.0
C2535 C 0.50371 0.84973 0.1315 0.0
C2536 C 0.51535 0.83033 0.12177 0.0
C2537 C 0.53967 0.82848 0.12308 0.0
C2538 C 0.44004 0.83963 0.1154 0.0
C2539 C 0.4285 0.84724 0.13575 0.0
C2540 C 0.46437 0.84135 0.11357 0.0
C2541 C 0.47771 0.85043 0.13218 0.0
C2542 C 0.46603 0.85875 0.1522 0.0
C2543 C 0.44171 0.85731 0.1539 0.0
H2544 H 0.42931 0.32797 0.60057 0.0
H2545 H 0.43287 0.36633 0.66574 0.0
H2546 H 0.47173 0.33054 0.59677 0.0
H2547 H 0.47517 0.36813 0.6624 0.0
H2548 H 0.55046 0.38001 0.6459 0.0
H2549 H 0.5081 0.38351 0.64239 0.0
H2550 H 0.50467 0.31297 0.61509 0.0
H2551 H 0.547 0.30984 0.61774 0.0
C2552 C 0.43912 0.33701 0.61404 0.0
C2553 C 0.42771 0.34676 0.63356 0.0
C2554 C 0.46345 0.33839 0.61192 0.0
C2555 C 0.47692 0.34935 0.62937 0.0
C2556 C 0.46539 0.35983 0.64844 0.0
C2557 C 0.44107 0.35866 0.65044 0.0
C2558 C 0.54066 0.36535 0.63891 0.0
C2559 C 0.55207 0.34456 0.63231 0.0
C2560 C 0.51637 0.36732 0.63699 0.0
C2561 C 0.50291 0.34845 0.62869 0.0
C2562 C 0.51445 0.32799 0.62128 0.0
C2563 C 0.53876 0.32612 0.62294 0.0
H2564 H 0.43226 0.65053 0.38192 0.0
H2565 H 0.43497 0.61694 0.31414 0.0
H2566 H 0.47468 0.64717 0.38519 0.0
H2567 H 0.47725 0.61448 0.31693 0.0
H2568 H 0.55004 0.66826 0.36578 0.0
H2569 H 0.50774 0.66541 0.36837 0.0
H2570 H 0.51026 0.59748 0.33499 0.0
H2571 H 0.55266 0.60083 0.3315 0.0
C2572 C 0.4419 0.64239 0.36774 0.0
C2573 C 0.43025 0.63417 0.34769 0.0
C2574 C 0.46623 0.64056 0.36956 0.0
C2575 C 0.47947 0.63073 0.35124 0.0
C2576 C 0.46767 0.62182 0.33156 0.0
C2577 C 0.44336 0.62339 0.32987 0.0
C2578 C 0.54161 0.65259 0.35921 0.0
C2579 C 0.55469 0.6349 0.34818 0.0
C2580 C 0.5173 0.65087 0.36085 0.0
C2581 C 0.5055 0.63126 0.35177 0.0
C2582 C 0.51872 0.61305 0.34173 0.0
C2583 C 0.54304 0.61492 0.33981 0.0
H2584 H 0.55083 0.33173 0.37992 0.0
H2585 H 0.54776 0.36342 0.31126 0.0
H2586 H 0.50845 0.3353 0.38343 0.0
H2587 H 0.50546 0.36607 0.3143 0.0
H2588 H 0.43275 0.31443 0.36568 0.0
H2589 H 0.47509 0.3169 0.36752 0.0
H2590 H 0.47278 0.38389 0.3323 0.0
H2591 H 0.4303 0.38092 0.32958 0.0
C2592 C 0.54111 0.33946 0.36558 0.0
C2593 C 0.55264 0.34714 0.34525 0.0
C2594 C 0.5168 0.34142 0.36754 0.0
C2595 C 0.50346 0.35081 0.34908 0.0
C2596 C 0.51513 0.35909 0.32903 0.0
C2597 C 0.53944 0.35741 0.32721 0.0
C2598 C 0.44122 0.32983 0.35854 0.0
C2599 C 0.42815 0.34736 0.34725 0.0
C2600 C 0.46557 0.33133 0.35974 0.0
C2601 C 0.47744 0.35054 0.34993 0.0
C2602 C 0.46426 0.36861 0.3396 0.0
C2603 C 0.43989 0.36697 0.33814 0.0
H2604 H 0.43371 0.6168 0.67076 0.0
H2605 H 0.42997 0.64938 0.60255 0.0
H2606 H 0.47603 0.61446 0.66737 0.0
H2607 H 0.47233 0.64616 0.5987 0.0
H2608 H 0.54805 0.66735 0.61625 0.0
H2609 H 0.50567 0.66467 0.61473 0.0
H2610 H 0.50867 0.59708 0.64873 0.0
H2611 H 0.55114 0.60024 0.65112 0.0
C2612 C 0.44189 0.62307 0.65484 0.0
C2613 C 0.4285 0.63351 0.63704 0.0
C2614 C 0.4662 0.62158 0.65281 0.0
C2615 C 0.47767 0.63023 0.6328 0.0
C2616 C 0.46414 0.63976 0.61456 0.0
C2617 C 0.43984 0.64152 0.61672 0.0
C2618 C 0.53971 0.65178 0.62317 0.0
C2619 C 0.55295 0.63413 0.63404 0.0
C2620 C 0.51535 0.65016 0.62217 0.0
C2621 C 0.50367 0.63071 0.63175 0.0
C2622 C 0.51704 0.61254 0.64163 0.0
C2623 C 0.5414 0.61429 0.6429 0.0
loop_
_geom_bond_atom_site_label_1
_geom_bond_atom_site_label_2
_geom_bond_distance
_geom_bond_site_symmetry_2
_ccdc_geom_bond_type
Sc0 O3 2.025 . S
Sc0 O10 2.105 . S
Sc0 O13 2.105 . S
Sc0 O16 2.105 . S
Sc0 O19 2.105 . S
Sc1 O3 2.025 . S
Sc1 O11 2.105 . S
Sc1 O15 2.105 . S
Sc1 O17 2.105 . S
Sc1 O21 2.105 . S
Sc2 O3 2.025 . S
Sc2 O12 2.105 . S
Sc2 O14 2.105 . S
Sc2 O18 2.105 . S
Sc2 O20 2.105 . S
O3 Sc0 2.025 . S
O3 Sc1 2.025 . S
O3 Sc2 2.025 . S
C4 O10 1.268 . S
C4 O20 1.268 . S
C5 O11 1.268 . S
C5 O19 1.268 . S
C6 O12 1.268 . S
C6 O21 1.268 . S
C7 O13 1.268 . S
C7 O17 1.268 . S
C8 O14 1.268 . S
C8 O16 1.268 . S
C9 O15 1.268 . S
C9 O18 1.268 . S
O10 Sc0 2.105 . S
O10 C4 1.268 . S
O11 Sc1 2.105 . S
O11 C5 1.268 . S
O12 Sc2 2.105 . S
O12 C6 1.268 . S
O13 Sc0 2.105 . S
O13 C7 1.268 . S
O14 Sc2 2.105 . S
O14 C8 1.268 . S
O15 Sc1 2.105 . S
O15 C9 1.268 . S
O16 Sc0 2.105 . S
O16 C8 1.268 . S
O17 Sc1 2.105 . S
O17 C7 1.268 . S
O18 Sc2 2.105 . S
O18 C9 1.268 . S
O19 Sc0 2.105 . S
O19 C5 1.268 . S
O20 Sc2 2.105 . S
O20 C4 1.268 . S
O21 Sc1 2.105 . S
O21 C6 1.268 . S
Sc22 O25 2.025 . S
Sc22 O32 2.105 . S
Sc22 O35 2.105 . S
Sc22 O38 2.105 . S
Sc22 O41 2.105 . S
Sc23 O25 2.025 . S
Sc23 O33 2.105 . S
Sc23 O37 2.105 . S
Sc23 O39 2.105 . S
Sc23 O43 2.105 . S
Sc24 O25 2.025 . S
Sc24 O34 2.105 . S
Sc24 O36 2.105 . S
Sc24 O40 2.105 . S
Sc24 O42 2.105 . S
O25 Sc22 2.025 . S
O25 Sc23 2.025 . S
O25 Sc24 2.025 . S
C26 O32 1.268 . S
C26 O42 1.268 . S
C27 O33 1.268 . S
C27 O41 1.268 . S
C28 O34 1.268 . S
C28 O43 1.268 . S
C29 O35 1.268 . S
C29 O39 1.268 . S
C30 O36 1.268 . S
C30 O38 1.268 . S
C31 O37 1.268 . S
C31 O40 1.268 . S
O32 Sc22 2.105 . S
O32 C26 1.268 . S
O33 Sc23 2.105 . S
O33 C27 1.268 . S
O34 Sc24 2.105 . S
O34 C28 1.268 . S
O35 Sc22 2.105 . S
O35 C29 1.268 . S
O36 Sc24 2.105 . S
O36 C30 1.268 . S
O37 Sc23 2.105 . S
O37 C31 1.268 . S
O38 Sc22 2.105 . S
O38 C30 1.268 . S
O39 Sc23 2.105 . S
O39 C29 1.268 . S
O40 Sc24 2.105 . S
O40 C31 1.268 . S
O41 Sc22 2.105 . S
O41 C27 1.268 . S
O42 Sc24 2.105 . S
O42 C26 1.268 . S
O43 Sc23 2.105 . S
O43 C28 1.268 . S
Sc44 O47 2.025 . S
Sc44 O54 2.105 . S
Sc44 O57 2.105 . S
Sc44 O60 2.105 . S
Sc44 O63 2.105 . S
Sc45 O47 2.025 . S
Sc45 O55 2.105 . S
Sc45 O59 2.105 . S
Sc45 O61 2.105 . S
Sc45 O65 2.105 . S
Sc46 O47 2.025 . S
Sc46 O56 2.105 . S
Sc46 O58 2.105 . S
Sc46 O62 2.105 . S
Sc46 O64 2.105 . S
O47 Sc44 2.025 . S
O47 Sc45 2.025 . S
O47 Sc46 2.025 . S
C48 O54 1.268 . S
C48 O64 1.268 . S
C49 O55 1.268 . S
C49 O63 1.268 . S
C50 O56 1.268 . S
C50 O65 1.268 . S
C51 O57 1.268 . S
C51 O61 1.268 . S
C52 O58 1.268 . S
C52 O60 1.268 . S
C53 O59 1.268 . S
C53 O62 1.268 . S
O54 Sc44 2.105 . S
O54 C48 1.268 . S
O55 Sc45 2.105 . S
O55 C49 1.268 . S
O56 Sc46 2.105 . S
O56 C50 1.268 . S
O57 Sc44 2.105 . S
O57 C51 1.268 . S
O58 Sc46 2.105 . S
O58 C52 1.268 . S
O59 Sc45 2.105 . S
O59 C53 1.268 . S
O60 Sc44 2.105 . S
O60 C52 1.268 . S
O61 Sc45 2.105 . S
O61 C51 1.268 . S
O62 Sc46 2.105 . S
O62 C53 1.268 . S
O63 Sc44 2.105 . S
O63 C49 1.268 . S
O64 Sc46 2.105 . S
O64 C48 1.268 . S
O65 Sc45 2.105 . S
O65 C50 1.268 . S
Sc66 O69 2.025 . S
Sc66 O76 2.105 . S
Sc66 O79 2.105 . S
Sc66 O82 2.105 . S
Sc66 O85 2.105 . S
Sc67 O69 2.025 . S
Sc67 O77 2.105 . S
Sc67 O81 2.105 . S
Sc67 O83 2.105 . S
Sc67 O87 2.105 . S
Sc68 O69 2.025 . S
Sc68 O78 2.105 . S
Sc68 O80 2.105 . S
Sc68 O84 2.105 . S
Sc68 O86 2.105 . S
O69 Sc66 2.025 . S
O69 Sc67 2.025 . S
O69 Sc68 2.025 . S
C70 O76 1.268 . S
C70 O86 1.268 . S
C71 O77 1.268 . S
C71 O85 1.268 . S
C72 O78 1.268 . S
C72 O87 1.268 . S
C73 O79 1.268 . S
C73 O83 1.268 . S
C74 O80 1.268 . S
C74 O82 1.268 . S
C75 O81 1.268 . S
C75 O84 1.268 . S
O76 Sc66 2.105 . S
O76 C70 1.268 . S
O77 Sc67 2.105 . S
O77 C71 1.268 . S
O78 Sc68 2.105 . S
O78 C72 1.268 . S
O79 Sc66 2.105 . S
O79 C73 1.268 . S
O80 Sc68 2.105 . S
O80 C74 1.268 . S
O81 Sc67 2.105 . S
O81 C75 1.268 . S
O82 Sc66 2.105 . S
O82 C74 1.268 . S
O83 Sc67 2.105 . S
O83 C73 1.268 . S
O84 Sc68 2.105 . S
O84 C75 1.268 . S
O85 Sc66 2.105 . S
O85 C71 1.268 . S
O86 Sc68 2.105 . S
O86 C70 1.268 . S
O87 Sc67 2.105 . S
O87 C72 1.268 . S
Sc88 O91 2.025 . S
Sc88 O98 2.105 . S
Sc88 O101 2.105 . S
Sc88 O104 2.105 . S
Sc88 O107 2.105 . S
Sc89 O91 2.025 . S
Sc89 O99 2.105 . S
Sc89 O103 2.105 . S
Sc89 O105 2.105 . S
Sc89 O109 2.105 . S
Sc90 O91 2.025 . S
Sc90 O100 2.105 . S
Sc90 O102 2.105 . S
Sc90 O106 2.105 . S
Sc90 O108 2.105 . S
O91 Sc88 2.025 . S
O91 Sc89 2.025 . S
O91 Sc90 2.025 . S
C92 O98 1.268 . S
C92 O108 1.268 . S
C93 O99 1.268 . S
C93 O107 1.268 . S
C94 O100 1.268 . S
C94 O109 1.268 . S
C95 O101 1.268 . S
C95 O105 1.268 . S
C96 O102 1.268 . S
C96 O104 1.268 . S
C97 O103 1.268 . S
C97 O106 1.268 . S
O98 Sc88 2.105 . S
O98 C92 1.268 . S
O99 Sc89 2.105 . S
O99 C93 1.268 . S
O100 Sc90 2.105 . S
O100 C94 1.268 . S
O101 Sc88 2.105 . S
O101 C95 1.268 . S
O102 Sc90 2.105 . S
O102 C96 1.268 . S
O103 Sc89 2.105 . S
O103 C97 1.268 . S
O104 Sc88 2.105 . S
O104 C96 1.268 . S
O105 Sc89 2.105 . S
O105 C95 1.268 . S
O106 Sc90 2.105 . S
O106 C97 1.268 . S
O107 Sc88 2.105 . S
O107 C93 1.268 . S
O108 Sc90 2.105 . S
O108 C92 1.268 . S
O109 Sc89 2.105 . S
O109 C94 1.268 . S
Sc110 O113 2.025 . S
Sc110 O120 2.105 . S
Sc110 O123 2.105 . S
Sc110 O126 2.105 . S
Sc110 O129 2.105 . S
Sc111 O113 2.025 . S
Sc111 O121 2.105 . S
Sc111 O125 2.105 . S
Sc111 O127 2.105 . S
Sc111 O131 2.105 . S
Sc112 O113 2.025 . S
Sc112 O122 2.105 . S
Sc112 O124 2.105 . S
Sc112 O128 2.105 . S
Sc112 O130 2.105 . S
O113 Sc110 2.025 . S
O113 Sc111 2.025 . S
O113 Sc112 2.025 . S
C114 O120 1.268 . S
C114 O130 1.268 . S
C115 O121 1.268 . S
C115 O129 1.268 . S
C116 O122 1.268 . S
C116 O131 1.268 . S
C117 O123 1.268 . S
C117 O127 1.268 . S
C118 O124 1.268 . S
C118 O126 1.268 . S
C119 O125 1.268 . S
C119 O128 1.268 . S
O120 Sc110 2.105 . S
O120 C114 1.268 . S
O121 Sc111 2.105 . S
O121 C115 1.268 . S
O122 Sc112 2.105 . S
O122 C116 1.268 . S
O123 Sc110 2.105 . S
O123 C117 1.268 . S
O124 Sc112 2.105 . S
O124 C118 1.268 . S
O125 Sc111 2.105 . S
O125 C119 1.268 . S
O126 Sc110 2.105 . S
O126 C118 1.268 . S
O127 Sc111 2.105 . S
O127 C117 1.268 . S
O128 Sc112 2.105 . S
O128 C119 1.268 . S
O129 Sc110 2.105 . S
O129 C115 1.268 . S
O130 Sc112 2.105 . S
O130 C114 1.268 . S
O131 Sc111 2.105 . S
O131 C116 1.268 . S
Sc132 O135 2.025 . S
Sc132 O142 2.105 . S
Sc132 O145 2.105 . S
Sc132 O148 2.105 . S
Sc132 O151 2.105 . S
Sc133 O135 2.025 . S
Sc133 O143 2.105 . S
Sc133 O147 2.105 . S
Sc133 O149 2.105 . S
Sc133 O153 2.105 . S
Sc134 O135 2.025 . S
Sc134 O144 2.105 . S
Sc134 O146 2.105 . S
Sc134 O150 2.105 . S
Sc134 O152 2.105 . S
O135 Sc132 2.025 . S
O135 Sc133 2.025 . S
O135 Sc134 2.025 . S
C136 O142 1.268 . S
C136 O152 1.268 . S
C137 O143 1.268 . S
C137 O151 1.268 . S
C138 O144 1.268 . S
C138 O153 1.268 . S
C139 O145 1.268 . S
C139 O149 1.268 . S
C140 O146 1.268 . S
C140 O148 1.268 . S
C141 O147 1.268 . S
C141 O150 1.268 . S
O142 Sc132 2.105 . S
O142 C136 1.268 . S
O143 Sc133 2.105 . S
O143 C137 1.268 . S
O144 Sc134 2.105 . S
O144 C138 1.268 . S
O145 Sc132 2.105 . S
O145 C139 1.268 . S
O146 Sc134 2.105 . S
O146 C140 1.268 . S
O147 Sc133 2.105 . S
O147 C141 1.268 . S
O148 Sc132 2.105 . S
O148 C140 1.268 . S
O149 Sc133 2.105 . S
O149 C139 1.268 . S
O150 Sc134 2.105 . S
O150 C141 1.268 . S
O151 Sc132 2.105 . S
O151 C137 1.268 . S
O152 Sc134 2.105 . S
O152 C136 1.268 . S
O153 Sc133 2.105 . S
O153 C138 1.268 . S
Sc154 O157 2.025 . S
Sc154 O164 2.105 . S
Sc154 O167 2.105 . S
Sc154 O170 2.105 . S
Sc154 O173 2.105 . S
Sc155 O157 2.025 . S
Sc155 O165 2.105 . S
Sc155 O169 2.105 . S
Sc155 O171 2.105 . S
Sc155 O175 2.105 . S
Sc156 O157 2.025 . S
Sc156 O166 2.105 . S
Sc156 O168 2.105 . S
Sc156 O172 2.105 . S
Sc156 O174 2.105 . S
O157 Sc154 2.025 . S
O157 Sc155 2.025 . S
O157 Sc156 2.025 . S
C158 O164 1.268 . S
C158 O174 1.268 . S
C159 O165 1.268 . S
C159 O173 1.268 . S
C160 O166 1.268 . S
C160 O175 1.268 . S
C161 O167 1.268 . S
C161 O171 1.268 . S
C162 O168 1.268 . S
C162 O170 1.268 . S
C163 O169 1.268 . S
C163 O172 1.268 . S
O164 Sc154 2.105 . S
O164 C158 1.268 . S
O165 Sc155 2.105 . S
O165 C159 1.268 . S
O166 Sc156 2.105 . S
O166 C160 1.268 . S
O167 Sc154 2.105 . S
O167 C161 1.268 . S
O168 Sc156 2.105 . S
O168 C162 1.268 . S
O169 Sc155 2.105 . S
O169 C163 1.268 . S
O170 Sc154 2.105 . S
O170 C162 1.268 . S
O171 Sc155 2.105 . S
O171 C161 1.268 . S
O172 Sc156 2.105 . S
O172 C163 1.268 . S
O173 Sc154 2.105 . S
O173 C159 1.268 . S
O174 Sc156 2.105 . S
O174 C158 1.268 . S
O175 Sc155 2.105 . S
O175 C160 1.268 . S
Sc176 O179 2.025 . S
Sc176 O186 2.105 . S
Sc176 O189 2.105 . S
Sc176 O192 2.105 . S
Sc176 O195 2.105 . S
Sc177 O179 2.025 . S
Sc177 O187 2.105 . S
Sc177 O191 2.105 . S
Sc177 O193 2.105 . S
Sc177 O197 2.105 . S
Sc178 O179 2.025 . S
Sc178 O188 2.105 . S
Sc178 O190 2.105 . S
Sc178 O194 2.105 . S
Sc178 O196 2.105 . S
O179 Sc176 2.025 . S
O179 Sc177 2.025 . S
O179 Sc178 2.025 . S
C180 O186 1.268 . S
C180 O196 1.268 . S
C181 O187 1.268 . S
C181 O195 1.268 . S
C182 O188 1.268 . S
C182 O197 1.268 . S
C183 O189 1.268 . S
C183 O193 1.268 . S
C184 O190 1.268 . S
C184 O192 1.268 . S
C185 O191 1.268 . S
C185 O194 1.268 . S
O186 Sc176 2.105 . S
O186 C180 1.268 . S
O187 Sc177 2.105 . S
O187 C181 1.268 . S
O188 Sc178 2.105 . S
O188 C182 1.268 . S
O189 Sc176 2.105 . S
O189 C183 1.268 . S
O190 Sc178 2.105 . S
O190 C184 1.268 . S
O191 Sc177 2.105 . S
O191 C185 1.268 . S
O192 Sc176 2.105 . S
O192 C184 1.268 . S
O193 Sc177 2.105 . S
O193 C183 1.268 . S
O194 Sc178 2.105 . S
O194 C185 1.268 . S
O195 Sc176 2.105 . S
O195 C181 1.268 . S
O196 Sc178 2.105 . S
O196 C180 1.268 . S
O197 Sc177 2.105 . S
O197 C182 1.268 . S
Sc198 O201 2.025 . S
Sc198 O208 2.105 . S
Sc198 O211 2.105 . S
Sc198 O214 2.105 . S
Sc198 O217 2.105 . S
Sc199 O201 2.025 . S
Sc199 O209 2.105 . S
Sc199 O213 2.105 . S
Sc199 O215 2.105 . S
Sc199 O219 2.105 . S
Sc200 O201 2.025 . S
Sc200 O210 2.105 . S
Sc200 O212 2.105 . S
Sc200 O216 2.105 . S
Sc200 O218 2.105 . S
O201 Sc198 2.025 . S
O201 Sc199 2.025 . S
O201 Sc200 2.025 . S
C202 O208 1.268 . S
C202 O218 1.268 . S
C203 O209 1.268 . S
C203 O217 1.268 . S
C204 O210 1.268 . S
C204 O219 1.268 . S
C205 O211 1.268 . S
C205 O215 1.268 . S
C206 O212 1.268 . S
C206 O214 1.268 . S
C207 O213 1.268 . S
C207 O216 1.268 . S
O208 Sc198 2.105 . S
O208 C202 1.268 . S
O209 Sc199 2.105 . S
O209 C203 1.268 . S
O210 Sc200 2.105 . S
O210 C204 1.268 . S
O211 Sc198 2.105 . S
O211 C205 1.268 . S
O212 Sc200 2.105 . S
O212 C206 1.268 . S
O213 Sc199 2.105 . S
O213 C207 1.268 . S
O214 Sc198 2.105 . S
O214 C206 1.268 . S
O215 Sc199 2.105 . S
O215 C205 1.268 . S
O216 Sc200 2.105 . S
O216 C207 1.268 . S
O217 Sc198 2.105 . S
O217 C203 1.268 . S
O218 Sc200 2.105 . S
O218 C202 1.268 . S
O219 Sc199 2.105 . S
O219 C204 1.268 . S
Sc220 O223 2.025 . S
Sc220 O230 2.105 . S
Sc220 O233 2.105 . S
Sc220 O236 2.105 . S
Sc220 O239 2.105 . S
Sc221 O223 2.025 . S
Sc221 O231 2.105 . S
Sc221 O235 2.105 . S
Sc221 O237 2.105 . S
Sc221 O241 2.105 . S
Sc222 O223 2.025 . S
Sc222 O232 2.105 . S
Sc222 O234 2.105 . S
Sc222 O238 2.105 . S
Sc222 O240 2.105 . S
O223 Sc220 2.025 . S
O223 Sc221 2.025 . S
O223 Sc222 2.025 . S
C224 O230 1.268 . S
C224 O240 1.268 . S
C225 O231 1.268 . S
C225 O239 1.268 . S
C226 O232 1.268 . S
C226 O241 1.268 . S
C227 O233 1.268 . S
C227 O237 1.268 . S
C228 O234 1.268 . S
C228 O236 1.268 . S
C229 O235 1.268 . S
C229 O238 1.268 . S
O230 Sc220 2.105 . S
O230 C224 1.268 . S
O231 Sc221 2.105 . S
O231 C225 1.268 . S
O232 Sc222 2.105 . S
O232 C226 1.268 . S
O233 Sc220 2.105 . S
O233 C227 1.268 . S
O234 Sc222 2.105 . S
O234 C228 1.268 . S
O235 Sc221 2.105 . S
O235 C229 1.268 . S
O236 Sc220 2.105 . S
O236 C228 1.268 . S
O237 Sc221 2.105 . S
O237 C227 1.268 . S
O238 Sc222 2.105 . S
O238 C229 1.268 . S
O239 Sc220 2.105 . S
O239 C225 1.268 . S
O240 Sc222 2.105 . S
O240 C224 1.268 . S
O241 Sc221 2.105 . S
O241 C226 1.268 . S
Sc242 O245 2.025 . S
Sc242 O252 2.105 . S
Sc242 O255 2.105 . S
Sc242 O258 2.105 . S
Sc242 O261 2.105 . S
Sc243 O245 2.025 . S
Sc243 O253 2.105 . S
Sc243 O257 2.105 . S
Sc243 O259 2.105 . S
Sc243 O263 2.105 . S
Sc244 O245 2.025 . S
Sc244 O254 2.105 . S
Sc244 O256 2.105 . S
Sc244 O260 2.105 . S
Sc244 O262 2.105 . S
O245 Sc242 2.025 . S
O245 Sc243 2.025 . S
O245 Sc244 2.025 . S
C246 O252 1.268 . S
C246 O262 1.268 . S
C247 O253 1.268 . S
C247 O261 1.268 . S
C248 O254 1.268 . S
C248 O263 1.268 . S
C249 O255 1.268 . S
C249 O259 1.268 . S
C250 O256 1.268 . S
C250 O258 1.268 . S
C251 O257 1.268 . S
C251 O260 1.268 . S
O252 Sc242 2.105 . S
O252 C246 1.268 . S
O253 Sc243 2.105 . S
O253 C247 1.268 . S
O254 Sc244 2.105 . S
O254 C248 1.268 . S
O255 Sc242 2.105 . S
O255 C249 1.268 . S
O256 Sc244 2.105 . S
O256 C250 1.268 . S
O257 Sc243 2.105 . S
O257 C251 1.268 . S
O258 Sc242 2.105 . S
O258 C250 1.268 . S
O259 Sc243 2.105 . S
O259 C249 1.268 . S
O260 Sc244 2.105 . S
O260 C251 1.268 . S
O261 Sc242 2.105 . S
O261 C247 1.268 . S
O262 Sc244 2.105 . S
O262 C246 1.268 . S
O263 Sc243 2.105 . S
O263 C248 1.268 . S
Sc264 O267 2.025 . S
Sc264 O274 2.105 . S
Sc264 O277 2.105 . S
Sc264 O280 2.105 . S
Sc264 O283 2.105 . S
Sc265 O267 2.025 . S
Sc265 O275 2.105 . S
Sc265 O279 2.105 . S
Sc265 O281 2.105 . S
Sc265 O285 2.105 . S
Sc266 O267 2.025 . S
Sc266 O276 2.105 . S
Sc266 O278 2.105 . S
Sc266 O282 2.105 . S
Sc266 O284 2.105 . S
O267 Sc264 2.025 . S
O267 Sc265 2.025 . S
O267 Sc266 2.025 . S
C268 O274 1.268 . S
C268 O284 1.268 . S
C269 O275 1.268 . S
C269 O283 1.268 . S
C270 O276 1.268 . S
C270 O285 1.268 . S
C271 O277 1.268 . S
C271 O281 1.268 . S
C272 O278 1.268 . S
C272 O280 1.268 . S
C273 O279 1.268 . S
C273 O282 1.268 . S
O274 Sc264 2.105 . S
O274 C268 1.268 . S
O275 Sc265 2.105 . S
O275 C269 1.268 . S
O276 Sc266 2.105 . S
O276 C270 1.268 . S
O277 Sc264 2.105 . S
O277 C271 1.268 . S
O278 Sc266 2.105 . S
O278 C272 1.268 . S
O279 Sc265 2.105 . S
O279 C273 1.268 . S
O280 Sc264 2.105 . S
O280 C272 1.268 . S
O281 Sc265 2.105 . S
O281 C271 1.268 . S
O282 Sc266 2.105 . S
O282 C273 1.268 . S
O283 Sc264 2.105 . S
O283 C269 1.268 . S
O284 Sc266 2.105 . S
O284 C268 1.268 . S
O285 Sc265 2.105 . S
O285 C270 1.268 . S
Sc286 O289 2.025 . S
Sc286 O296 2.105 . S
Sc286 O299 2.105 . S
Sc286 O302 2.105 . S
Sc286 O305 2.105 . S
Sc287 O289 2.025 . S
Sc287 O297 2.105 . S
Sc287 O301 2.105 . S
Sc287 O303 2.105 . S
Sc287 O307 2.105 . S
Sc288 O289 2.025 . S
Sc288 O298 2.105 . S
Sc288 O300 2.105 . S
Sc288 O304 2.105 . S
Sc288 O306 2.105 . S
O289 Sc286 2.025 . S
O289 Sc287 2.025 . S
O289 Sc288 2.025 . S
C290 O296 1.268 . S
C290 O306 1.268 . S
C291 O297 1.268 . S
C291 O305 1.268 . S
C292 O298 1.268 . S
C292 O307 1.268 . S
C293 O299 1.268 . S
C293 O303 1.268 . S
C294 O300 1.268 . S
C294 O302 1.268 . S
C295 O301 1.268 . S
C295 O304 1.268 . S
O296 Sc286 2.105 . S
O296 C290 1.268 . S
O297 Sc287 2.105 . S
O297 C291 1.268 . S
O298 Sc288 2.105 . S
O298 C292 1.268 . S
O299 Sc286 2.105 . S
O299 C293 1.268 . S
O300 Sc288 2.105 . S
O300 C294 1.268 . S
O301 Sc287 2.105 . S
O301 C295 1.268 . S
O302 Sc286 2.105 . S
O302 C294 1.268 . S
O303 Sc287 2.105 . S
O303 C293 1.268 . S
O304 Sc288 2.105 . S
O304 C295 1.268 . S
O305 Sc286 2.105 . S
O305 C291 1.268 . S
O306 Sc288 2.105 . S
O306 C290 1.268 . S
O307 Sc287 2.105 . S
O307 C292 1.268 . S
Sc308 O311 2.025 . S
Sc308 O318 2.105 . S
Sc308 O321 2.105 . S
Sc308 O324 2.105 . S
Sc308 O327 2.105 . S
Sc309 O311 2.025 . S
Sc309 O319 2.105 . S
Sc309 O323 2.105 . S
Sc309 O325 2.105 . S
Sc309 O329 2.105 . S
Sc310 O311 2.025 . S
Sc310 O320 2.105 . S
Sc310 O322 2.105 . S
Sc310 O326 2.105 . S
Sc310 O328 2.105 . S
O311 Sc308 2.025 . S
O311 Sc309 2.025 . S
O311 Sc310 2.025 . S
C312 O318 1.268 . S
C312 O328 1.268 . S
C313 O319 1.268 . S
C313 O327 1.268 . S
C314 O320 1.268 . S
C314 O329 1.268 . S
C315 O321 1.268 . S
C315 O325 1.268 . S
C316 O322 1.268 . S
C316 O324 1.268 . S
C317 O323 1.268 . S
C317 O326 1.268 . S
O318 Sc308 2.105 . S
O318 C312 1.268 . S
O319 Sc309 2.105 . S
O319 C313 1.268 . S
O320 Sc310 2.105 . S
O320 C314 1.268 . S
O321 Sc308 2.105 . S
O321 C315 1.268 . S
O322 Sc310 2.105 . S
O322 C316 1.268 . S
O323 Sc309 2.105 . S
O323 C317 1.268 . S
O324 Sc308 2.105 . S
O324 C316 1.268 . S
O325 Sc309 2.105 . S
O325 C315 1.268 . S
O326 Sc310 2.105 . S
O326 C317 1.268 . S
O327 Sc308 2.105 . S
O327 C313 1.268 . S
O328 Sc310 2.105 . S
O328 C312 1.268 . S
O329 Sc309 2.105 . S
O329 C314 1.268 . S
Sc330 O333 2.025 . S
Sc330 O340 2.105 . S
Sc330 O343 2.105 . S
Sc330 O346 2.105 . S
Sc330 O349 2.105 . S
Sc331 O333 2.025 . S
Sc331 O341 2.105 . S
Sc331 O345 2.105 . S
Sc331 O347 2.105 . S
Sc331 O351 2.105 . S
Sc332 O333 2.025 . S
Sc332 O342 2.105 . S
Sc332 O344 2.105 . S
Sc332 O348 2.105 . S
Sc332 O350 2.105 . S
O333 Sc330 2.025 . S
O333 Sc331 2.025 . S
O333 Sc332 2.025 . S
C334 O340 1.268 . S
C334 O350 1.268 . S
C335 O341 1.268 . S
C335 O349 1.268 . S
C336 O342 1.268 . S
C336 O351 1.268 . S
C337 O343 1.268 . S
C337 O347 1.268 . S
C338 O344 1.268 . S
C338 O346 1.268 . S
C339 O345 1.268 . S
C339 O348 1.268 . S
O340 Sc330 2.105 . S
O340 C334 1.268 . S
O341 Sc331 2.105 . S
O341 C335 1.268 . S
O342 Sc332 2.105 . S
O342 C336 1.268 . S
O343 Sc330 2.105 . S
O343 C337 1.268 . S
O344 Sc332 2.105 . S
O344 C338 1.268 . S
O345 Sc331 2.105 . S
O345 C339 1.268 . S
O346 Sc330 2.105 . S
O346 C338 1.268 . S
O347 Sc331 2.105 . S
O347 C337 1.268 . S
O348 Sc332 2.105 . S
O348 C339 1.268 . S
O349 Sc330 2.105 . S
O349 C335 1.268 . S
O350 Sc332 2.105 . S
O350 C334 1.268 . S
O351 Sc331 2.105 . S
O351 C336 1.268 . S
Sc352 O355 2.025 . S
Sc352 O362 2.105 . S
Sc352 O365 2.105 . S
Sc352 O368 2.105 . S
Sc352 O371 2.105 . S
Sc353 O355 2.025 . S
Sc353 O363 2.105 . S
Sc353 O367 2.105 . S
Sc353 O369 2.105 . S
Sc353 O373 2.105 . S
Sc354 O355 2.025 . S
Sc354 O364 2.105 . S
Sc354 O366 2.105 . S
Sc354 O370 2.105 . S
Sc354 O372 2.105 . S
O355 Sc352 2.025 . S
O355 Sc353 2.025 . S
O355 Sc354 2.025 . S
C356 O362 1.268 . S
C356 O372 1.268 . S
C357 O363 1.268 . S
C357 O371 1.268 . S
C358 O364 1.268 . S
C358 O373 1.268 . S
C359 O365 1.268 . S
C359 O369 1.268 . S
C360 O366 1.268 . S
C360 O368 1.268 . S
C361 O367 1.268 . S
C361 O370 1.268 . S
O362 Sc352 2.105 . S
O362 C356 1.268 . S
O363 Sc353 2.105 . S
O363 C357 1.268 . S
O364 Sc354 2.105 . S
O364 C358 1.268 . S
O365 Sc352 2.105 . S
O365 C359 1.268 . S
O366 Sc354 2.105 . S
O366 C360 1.268 . S
O367 Sc353 2.105 . S
O367 C361 1.268 . S
O368 Sc352 2.105 . S
O368 C360 1.268 . S
O369 Sc353 2.105 . S
O369 C359 1.268 . S
O370 Sc354 2.105 . S
O370 C361 1.268 . S
O371 Sc352 2.105 . S
O371 C357 1.268 . S
O372 Sc354 2.105 . S
O372 C356 1.268 . S
O373 Sc353 2.105 . S
O373 C358 1.268 . S
Sc374 O377 2.025 . S
Sc374 O384 2.105 . S
Sc374 O387 2.105 . S
Sc374 O390 2.105 . S
Sc374 O393 2.105 . S
Sc375 O377 2.025 . S
Sc375 O385 2.105 . S
Sc375 O389 2.105 . S
Sc375 O391 2.105 . S
Sc375 O395 2.105 . S
Sc376 O377 2.025 . S
Sc376 O386 2.105 . S
Sc376 O388 2.105 . S
Sc376 O392 2.105 . S
Sc376 O394 2.105 . S
O377 Sc374 2.025 . S
O377 Sc375 2.025 . S
O377 Sc376 2.025 . S
C378 O384 1.268 . S
C378 O394 1.268 . S
C379 O385 1.268 . S
C379 O393 1.268 . S
C380 O386 1.268 . S
C380 O395 1.268 . S
C381 O387 1.268 . S
C381 O391 1.268 . S
C382 O388 1.268 . S
C382 O390 1.268 . S
C383 O389 1.268 . S
C383 O392 1.268 . S
O384 Sc374 2.105 . S
O384 C378 1.268 . S
O385 Sc375 2.105 . S
O385 C379 1.268 . S
O386 Sc376 2.105 . S
O386 C380 1.268 . S
O387 Sc374 2.105 . S
O387 C381 1.268 . S
O388 Sc376 2.105 . S
O388 C382 1.268 . S
O389 Sc375 2.105 . S
O389 C383 1.268 . S
O390 Sc374 2.105 . S
O390 C382 1.268 . S
O391 Sc375 2.105 . S
O391 C381 1.268 . S
O392 Sc376 2.105 . S
O392 C383 1.268 . S
O393 Sc374 2.105 . S
O393 C379 1.268 . S
O394 Sc376 2.105 . S
O394 C378 1.268 . S
O395 Sc375 2.105 . S
O395 C380 1.268 . S
Sc396 O399 2.025 . S
Sc396 O406 2.105 . S
Sc396 O409 2.105 . S
Sc396 O412 2.105 . S
Sc396 O415 2.105 . S
Sc397 O399 2.025 . S
Sc397 O407 2.105 . S
Sc397 O411 2.105 . S
Sc397 O413 2.105 . S
Sc397 O417 2.105 . S
Sc398 O399 2.025 . S
Sc398 O408 2.105 . S
Sc398 O410 2.105 . S
Sc398 O414 2.105 . S
Sc398 O416 2.105 . S
O399 Sc396 2.025 . S
O399 Sc397 2.025 . S
O399 Sc398 2.025 . S
C400 O406 1.268 . S
C400 O416 1.268 . S
C401 O407 1.268 . S
C401 O415 1.268 . S
C402 O408 1.268 . S
C402 O417 1.268 . S
C403 O409 1.268 . S
C403 O413 1.268 . S
C404 O410 1.268 . S
C404 O412 1.268 . S
C405 O411 1.268 . S
C405 O414 1.268 . S
O406 Sc396 2.105 . S
O406 C400 1.268 . S
O407 Sc397 2.105 . S
O407 C401 1.268 . S
O408 Sc398 2.105 . S
O408 C402 1.268 . S
O409 Sc396 2.105 . S
O409 C403 1.268 . S
O410 Sc398 2.105 . S
O410 C404 1.268 . S
O411 Sc397 2.105 . S
O411 C405 1.268 . S
O412 Sc396 2.105 . S
O412 C404 1.268 . S
O413 Sc397 2.105 . S
O413 C403 1.268 . S
O414 Sc398 2.105 . S
O414 C405 1.268 . S
O415 Sc396 2.105 . S
O415 C401 1.268 . S
O416 Sc398 2.105 . S
O416 C400 1.268 . S
O417 Sc397 2.105 . S
O417 C402 1.268 . S
Sc418 O421 2.025 . S
Sc418 O428 2.105 . S
Sc418 O431 2.105 . S
Sc418 O434 2.105 . S
Sc418 O437 2.105 . S
Sc419 O421 2.025 . S
Sc419 O429 2.105 . S
Sc419 O433 2.105 . S
Sc419 O435 2.105 . S
Sc419 O439 2.105 . S
Sc420 O421 2.025 . S
Sc420 O430 2.105 . S
Sc420 O432 2.105 . S
Sc420 O436 2.105 . S
Sc420 O438 2.105 . S
O421 Sc418 2.025 . S
O421 Sc419 2.025 . S
O421 Sc420 2.025 . S
C422 O428 1.268 . S
C422 O438 1.268 . S
C423 O429 1.268 . S
C423 O437 1.268 . S
C424 O430 1.268 . S
C424 O439 1.268 . S
C425 O431 1.268 . S
C425 O435 1.268 . S
C426 O432 1.268 . S
C426 O434 1.268 . S
C427 O433 1.268 . S
C427 O436 1.268 . S
O428 Sc418 2.105 . S
O428 C422 1.268 . S
O429 Sc419 2.105 . S
O429 C423 1.268 . S
O430 Sc420 2.105 . S
O430 C424 1.268 . S
O431 Sc418 2.105 . S
O431 C425 1.268 . S
O432 Sc420 2.105 . S
O432 C426 1.268 . S
O433 Sc419 2.105 . S
O433 C427 1.268 . S
O434 Sc418 2.105 . S
O434 C426 1.268 . S
O435 Sc419 2.105 . S
O435 C425 1.268 . S
O436 Sc420 2.105 . S
O436 C427 1.268 . S
O437 Sc418 2.105 . S
O437 C423 1.268 . S
O438 Sc420 2.105 . S
O438 C422 1.268 . S
O439 Sc419 2.105 . S
O439 C424 1.268 . S
Sc440 O443 2.025 . S
Sc440 O450 2.105 . S
Sc440 O453 2.105 . S
Sc440 O456 2.105 . S
Sc440 O459 2.105 . S
Sc441 O443 2.025 . S
Sc441 O451 2.105 . S
Sc441 O455 2.105 . S
Sc441 O457 2.105 . S
Sc441 O461 2.105 . S
Sc442 O443 2.025 . S
Sc442 O452 2.105 . S
Sc442 O454 2.105 . S
Sc442 O458 2.105 . S
Sc442 O460 2.105 . S
O443 Sc440 2.025 . S
O443 Sc441 2.025 . S
O443 Sc442 2.025 . S
C444 O450 1.268 . S
C444 O460 1.268 . S
C445 O451 1.268 . S
C445 O459 1.268 . S
C446 O452 1.268 . S
C446 O461 1.268 . S
C447 O453 1.268 . S
C447 O457 1.268 . S
C448 O454 1.268 . S
C448 O456 1.268 . S
C449 O455 1.268 . S
C449 O458 1.268 . S
O450 Sc440 2.105 . S
O450 C444 1.268 . S
O451 Sc441 2.105 . S
O451 C445 1.268 . S
O452 Sc442 2.105 . S
O452 C446 1.268 . S
O453 Sc440 2.105 . S
O453 C447 1.268 . S
O454 Sc442 2.105 . S
O454 C448 1.268 . S
O455 Sc441 2.105 . S
O455 C449 1.268 . S
O456 Sc440 2.105 . S
O456 C448 1.268 . S
O457 Sc441 2.105 . S
O457 C447 1.268 . S
O458 Sc442 2.105 . S
O458 C449 1.268 . S
O459 Sc440 2.105 . S
O459 C445 1.268 . S
O460 Sc442 2.105 . S
O460 C444 1.268 . S
O461 Sc441 2.105 . S
O461 C446 1.268 . S
Sc462 O465 2.025 . S
Sc462 O472 2.105 . S
Sc462 O475 2.105 . S
Sc462 O478 2.105 . S
Sc462 O481 2.105 . S
Sc463 O465 2.025 . S
Sc463 O473 2.105 . S
Sc463 O477 2.105 . S
Sc463 O479 2.105 . S
Sc463 O483 2.105 . S
Sc464 O465 2.025 . S
Sc464 O474 2.105 . S
Sc464 O476 2.105 . S
Sc464 O480 2.105 . S
Sc464 O482 2.105 . S
O465 Sc462 2.025 . S
O465 Sc463 2.025 . S
O465 Sc464 2.025 . S
C466 O472 1.268 . S
C466 O482 1.268 . S
C467 O473 1.268 . S
C467 O481 1.268 . S
C468 O474 1.268 . S
C468 O483 1.268 . S
C469 O475 1.268 . S
C469 O479 1.268 . S
C470 O476 1.268 . S
C470 O478 1.268 . S
C471 O477 1.268 . S
C471 O480 1.268 . S
O472 Sc462 2.105 . S
O472 C466 1.268 . S
O473 Sc463 2.105 . S
O473 C467 1.268 . S
O474 Sc464 2.105 . S
O474 C468 1.268 . S
O475 Sc462 2.105 . S
O475 C469 1.268 . S
O476 Sc464 2.105 . S
O476 C470 1.268 . S
O477 Sc463 2.105 . S
O477 C471 1.268 . S
O478 Sc462 2.105 . S
O478 C470 1.268 . S
O479 Sc463 2.105 . S
O479 C469 1.268 . S
O480 Sc464 2.105 . S
O480 C471 1.268 . S
O481 Sc462 2.105 . S
O481 C467 1.268 . S
O482 Sc464 2.105 . S
O482 C466 1.268 . S
O483 Sc463 2.105 . S
O483 C468 1.268 . S
Sc484 O487 2.025 . S
Sc484 O494 2.105 . S
Sc484 O497 2.105 . S
Sc484 O500 2.105 . S
Sc484 O503 2.105 . S
Sc485 O487 2.025 . S
Sc485 O495 2.105 . S
Sc485 O499 2.105 . S
Sc485 O501 2.105 . S
Sc485 O505 2.105 . S
Sc486 O487 2.025 . S
Sc486 O496 2.105 . S
Sc486 O498 2.105 . S
Sc486 O502 2.105 . S
Sc486 O504 2.105 . S
O487 Sc484 2.025 . S
O487 Sc485 2.025 . S
O487 Sc486 2.025 . S
C488 O494 1.268 . S
C488 O504 1.268 . S
C489 O495 1.268 . S
C489 O503 1.268 . S
C490 O496 1.268 . S
C490 O505 1.268 . S
C491 O497 1.268 . S
C491 O501 1.268 . S
C492 O498 1.268 . S
C492 O500 1.268 . S
C493 O499 1.268 . S
C493 O502 1.268 . S
O494 Sc484 2.105 . S
O494 C488 1.268 . S
O495 Sc485 2.105 . S
O495 C489 1.268 . S
O496 Sc486 2.105 . S
O496 C490 1.268 . S
O497 Sc484 2.105 . S
O497 C491 1.268 . S
O498 Sc486 2.105 . S
O498 C492 1.268 . S
O499 Sc485 2.105 . S
O499 C493 1.268 . S
O500 Sc484 2.105 . S
O500 C492 1.268 . S
O501 Sc485 2.105 . S
O501 C491 1.268 . S
O502 Sc486 2.105 . S
O502 C493 1.268 . S
O503 Sc484 2.105 . S
O503 C489 1.268 . S
O504 Sc486 2.105 . S
O504 C488 1.268 . S
O505 Sc485 2.105 . S
O505 C490 1.268 . S
Sc506 O509 2.025 . S
Sc506 O516 2.105 . S
Sc506 O519 2.105 . S
Sc506 O522 2.105 . S
Sc506 O525 2.105 . S
Sc507 O509 2.025 . S
Sc507 O517 2.105 . S
Sc507 O521 2.105 . S
Sc507 O523 2.105 . S
Sc507 O527 2.105 . S
Sc508 O509 2.025 . S
Sc508 O518 2.105 . S
Sc508 O520 2.105 . S
Sc508 O524 2.105 . S
Sc508 O526 2.105 . S
O509 Sc506 2.025 . S
O509 Sc507 2.025 . S
O509 Sc508 2.025 . S
C510 O516 1.268 . S
C510 O526 1.268 . S
C511 O517 1.268 . S
C511 O525 1.268 . S
C512 O518 1.268 . S
C512 O527 1.268 . S
C513 O519 1.268 . S
C513 O523 1.268 . S
C514 O520 1.268 . S
C514 O522 1.268 . S
C515 O521 1.268 . S
C515 O524 1.268 . S
O516 Sc506 2.105 . S
O516 C510 1.268 . S
O517 Sc507 2.105 . S
O517 C511 1.268 . S
O518 Sc508 2.105 . S
O518 C512 1.268 . S
O519 Sc506 2.105 . S
O519 C513 1.268 . S
O520 Sc508 2.105 . S
O520 C514 1.268 . S
O521 Sc507 2.105 . S
O521 C515 1.268 . S
O522 Sc506 2.105 . S
O522 C514 1.268 . S
O523 Sc507 2.105 . S
O523 C513 1.268 . S
O524 Sc508 2.105 . S
O524 C515 1.268 . S
O525 Sc506 2.105 . S
O525 C511 1.268 . S
O526 Sc508 2.105 . S
O526 C510 1.268 . S
O527 Sc507 2.105 . S
O527 C512 1.268 . S
Sc528 O531 2.025 . S
Sc528 O538 2.105 . S
Sc528 O541 2.105 . S
Sc528 O544 2.105 . S
Sc528 O547 2.105 . S
Sc529 O531 2.025 . S
Sc529 O539 2.105 . S
Sc529 O543 2.105 . S
Sc529 O545 2.105 . S
Sc529 O549 2.105 . S
Sc530 O531 2.025 . S
Sc530 O540 2.105 . S
Sc530 O542 2.105 . S
Sc530 O546 2.105 . S
Sc530 O548 2.105 . S
O531 Sc528 2.025 . S
O531 Sc529 2.025 . S
O531 Sc530 2.025 . S
C532 O538 1.268 . S
C532 O548 1.268 . S
C533 O539 1.268 . S
C533 O547 1.268 . S
C534 O540 1.268 . S
C534 O549 1.268 . S
C535 O541 1.268 . S
C535 O545 1.268 . S
C536 O542 1.268 . S
C536 O544 1.268 . S
C537 O543 1.268 . S
C537 O546 1.268 . S
O538 Sc528 2.105 . S
O538 C532 1.268 . S
O539 Sc529 2.105 . S
O539 C533 1.268 . S
O540 Sc530 2.105 . S
O540 C534 1.268 . S
O541 Sc528 2.105 . S
O541 C535 1.268 . S
O542 Sc530 2.105 . S
O542 C536 1.268 . S
O543 Sc529 2.105 . S
O543 C537 1.268 . S
O544 Sc528 2.105 . S
O544 C536 1.268 . S
O545 Sc529 2.105 . S
O545 C535 1.268 . S
O546 Sc530 2.105 . S
O546 C537 1.268 . S
O547 Sc528 2.105 . S
O547 C533 1.268 . S
O548 Sc530 2.105 . S
O548 C532 1.268 . S
O549 Sc529 2.105 . S
O549 C534 1.268 . S
Sc550 O553 2.025 . S
Sc550 O560 2.105 . S
Sc550 O563 2.105 . S
Sc550 O566 2.105 . S
Sc550 O569 2.105 . S
Sc551 O553 2.025 . S
Sc551 O561 2.105 . S
Sc551 O565 2.105 . S
Sc551 O567 2.105 . S
Sc551 O571 2.105 . S
Sc552 O553 2.025 . S
Sc552 O562 2.105 . S
Sc552 O564 2.105 . S
Sc552 O568 2.105 . S
Sc552 O570 2.105 . S
O553 Sc550 2.025 . S
O553 Sc551 2.025 . S
O553 Sc552 2.025 . S
C554 O560 1.268 . S
C554 O570 1.268 . S
C555 O561 1.268 . S
C555 O569 1.268 . S
C556 O562 1.268 . S
C556 O571 1.268 . S
C557 O563 1.268 . S
C557 O567 1.268 . S
C558 O564 1.268 . S
C558 O566 1.268 . S
C559 O565 1.268 . S
C559 O568 1.268 . S
O560 Sc550 2.105 . S
O560 C554 1.268 . S
O561 Sc551 2.105 . S
O561 C555 1.268 . S
O562 Sc552 2.105 . S
O562 C556 1.268 . S
O563 Sc550 2.105 . S
O563 C557 1.268 . S
O564 Sc552 2.105 . S
O564 C558 1.268 . S
O565 Sc551 2.105 . S
O565 C559 1.268 . S
O566 Sc550 2.105 . S
O566 C558 1.268 . S
O567 Sc551 2.105 . S
O567 C557 1.268 . S
O568 Sc552 2.105 . S
O568 C559 1.268 . S
O569 Sc550 2.105 . S
O569 C555 1.268 . S
O570 Sc552 2.105 . S
O570 C554 1.268 . S
O571 Sc551 2.105 . S
O571 C556 1.268 . S
Sc572 O575 2.025 . S
Sc572 O582 2.105 . S
Sc572 O585 2.105 . S
Sc572 O588 2.105 . S
Sc572 O591 2.105 . S
Sc573 O575 2.025 . S
Sc573 O583 2.105 . S
Sc573 O587 2.105 . S
Sc573 O589 2.105 . S
Sc573 O593 2.105 . S
Sc574 O575 2.025 . S
Sc574 O584 2.105 . S
Sc574 O586 2.105 . S
Sc574 O590 2.105 . S
Sc574 O592 2.105 . S
O575 Sc572 2.025 . S
O575 Sc573 2.025 . S
O575 Sc574 2.025 . S
C576 O582 1.268 . S
C576 O592 1.268 . S
C577 O583 1.268 . S
C577 O591 1.268 . S
C578 O584 1.268 . S
C578 O593 1.268 . S
C579 O585 1.268 . S
C579 O589 1.268 . S
C580 O586 1.268 . S
C580 O588 1.268 . S
C581 O587 1.268 . S
C581 O590 1.268 . S
O582 Sc572 2.105 . S
O582 C576 1.268 . S
O583 Sc573 2.105 . S
O583 C577 1.268 . S
O584 Sc574 2.105 . S
O584 C578 1.268 . S
O585 Sc572 2.105 . S
O585 C579 1.268 . S
O586 Sc574 2.105 . S
O586 C580 1.268 . S
O587 Sc573 2.105 . S
O587 C581 1.268 . S
O588 Sc572 2.105 . S
O588 C580 1.268 . S
O589 Sc573 2.105 . S
O589 C579 1.268 . S
O590 Sc574 2.105 . S
O590 C581 1.268 . S
O591 Sc572 2.105 . S
O591 C577 1.268 . S
O592 Sc574 2.105 . S
O592 C576 1.268 . S
O593 Sc573 2.105 . S
O593 C578 1.268 . S
Sc594 O597 2.025 . S
Sc594 O604 2.105 . S
Sc594 O607 2.105 . S
Sc594 O610 2.105 . S
Sc594 O613 2.105 . S
Sc595 O597 2.025 . S
Sc595 O605 2.105 . S
Sc595 O609 2.105 . S
Sc595 O611 2.105 . S
Sc595 O615 2.105 . S
Sc596 O597 2.025 . S
Sc596 O606 2.105 . S
Sc596 O608 2.105 . S
Sc596 O612 2.105 . S
Sc596 O614 2.105 . S
O597 Sc594 2.025 . S
O597 Sc595 2.025 . S
O597 Sc596 2.025 . S
C598 O604 1.268 . S
C598 O614 1.268 . S
C599 O605 1.268 . S
C599 O613 1.268 . S
C600 O606 1.268 . S
C600 O615 1.268 . S
C601 O607 1.268 . S
C601 O611 1.268 . S
C602 O608 1.268 . S
C602 O610 1.268 . S
C603 O609 1.268 . S
C603 O612 1.268 . S
O604 Sc594 2.105 . S
O604 C598 1.268 . S
O605 Sc595 2.105 . S
O605 C599 1.268 . S
O606 Sc596 2.105 . S
O606 C600 1.268 . S
O607 Sc594 2.105 . S
O607 C601 1.268 . S
O608 Sc596 2.105 . S
O608 C602 1.268 . S
O609 Sc595 2.105 . S
O609 C603 1.268 . S
O610 Sc594 2.105 . S
O610 C602 1.268 . S
O611 Sc595 2.105 . S
O611 C601 1.268 . S
O612 Sc596 2.105 . S
O612 C603 1.268 . S
O613 Sc594 2.105 . S
O613 C599 1.268 . S
O614 Sc596 2.105 . S
O614 C598 1.268 . S
O615 Sc595 2.105 . S
O615 C600 1.268 . S
Sc616 O619 2.025 . S
Sc616 O626 2.105 . S
Sc616 O629 2.105 . S
Sc616 O632 2.105 . S
Sc616 O635 2.105 . S
Sc617 O619 2.025 . S
Sc617 O627 2.105 . S
Sc617 O631 2.105 . S
Sc617 O633 2.105 . S
Sc617 O637 2.105 . S
Sc618 O619 2.025 . S
Sc618 O628 2.105 . S
Sc618 O630 2.105 . S
Sc618 O634 2.105 . S
Sc618 O636 2.105 . S
O619 Sc616 2.025 . S
O619 Sc617 2.025 . S
O619 Sc618 2.025 . S
C620 O626 1.268 . S
C620 O636 1.268 . S
C621 O627 1.268 . S
C621 O635 1.268 . S
C622 O628 1.268 . S
C622 O637 1.268 . S
C623 O629 1.268 . S
C623 O633 1.268 . S
C624 O630 1.268 . S
C624 O632 1.268 . S
C625 O631 1.268 . S
C625 O634 1.268 . S
O626 Sc616 2.105 . S
O626 C620 1.268 . S
O627 Sc617 2.105 . S
O627 C621 1.268 . S
O628 Sc618 2.105 . S
O628 C622 1.268 . S
O629 Sc616 2.105 . S
O629 C623 1.268 . S
O630 Sc618 2.105 . S
O630 C624 1.268 . S
O631 Sc617 2.105 . S
O631 C625 1.268 . S
O632 Sc616 2.105 . S
O632 C624 1.268 . S
O633 Sc617 2.105 . S
O633 C623 1.268 . S
O634 Sc618 2.105 . S
O634 C625 1.268 . S
O635 Sc616 2.105 . S
O635 C621 1.268 . S
O636 Sc618 2.105 . S
O636 C620 1.268 . S
O637 Sc617 2.105 . S
O637 C622 1.268 . S
Sc638 O641 2.025 . S
Sc638 O648 2.105 . S
Sc638 O651 2.105 . S
Sc638 O654 2.105 . S
Sc638 O657 2.105 . S
Sc639 O641 2.025 . S
Sc639 O649 2.105 . S
Sc639 O653 2.105 . S
Sc639 O655 2.105 . S
Sc639 O659 2.105 . S
Sc640 O641 2.025 . S
Sc640 O650 2.105 . S
Sc640 O652 2.105 . S
Sc640 O656 2.105 . S
Sc640 O658 2.105 . S
O641 Sc638 2.025 . S
O641 Sc639 2.025 . S
O641 Sc640 2.025 . S
C642 O648 1.268 . S
C642 O658 1.268 . S
C643 O649 1.268 . S
C643 O657 1.268 . S
C644 O650 1.268 . S
C644 O659 1.268 . S
C645 O651 1.268 . S
C645 O655 1.268 . S
C646 O652 1.268 . S
C646 O654 1.268 . S
C647 O653 1.268 . S
C647 O656 1.268 . S
O648 Sc638 2.105 . S
O648 C642 1.268 . S
O649 Sc639 2.105 . S
O649 C643 1.268 . S
O650 Sc640 2.105 . S
O650 C644 1.268 . S
O651 Sc638 2.105 . S
O651 C645 1.268 . S
O652 Sc640 2.105 . S
O652 C646 1.268 . S
O653 Sc639 2.105 . S
O653 C647 1.268 . S
O654 Sc638 2.105 . S
O654 C646 1.268 . S
O655 Sc639 2.105 . S
O655 C645 1.268 . S
O656 Sc640 2.105 . S
O656 C647 1.268 . S
O657 Sc638 2.105 . S
O657 C643 1.268 . S
O658 Sc640 2.105 . S
O658 C642 1.268 . S
O659 Sc639 2.105 . S
O659 C644 1.268 . S
Sc660 O663 2.025 . S
Sc660 O670 2.105 . S
Sc660 O673 2.105 . S
Sc660 O676 2.105 . S
Sc660 O679 2.105 . S
Sc661 O663 2.025 . S
Sc661 O671 2.105 . S
Sc661 O675 2.105 . S
Sc661 O677 2.105 . S
Sc661 O681 2.105 . S
Sc662 O663 2.025 . S
Sc662 O672 2.105 . S
Sc662 O674 2.105 . S
Sc662 O678 2.105 . S
Sc662 O680 2.105 . S
O663 Sc660 2.025 . S
O663 Sc661 2.025 . S
O663 Sc662 2.025 . S
C664 O670 1.268 . S
C664 O680 1.268 . S
C665 O671 1.268 . S
C665 O679 1.268 . S
C666 O672 1.268 . S
C666 O681 1.268 . S
C667 O673 1.268 . S
C667 O677 1.268 . S
C668 O674 1.268 . S
C668 O676 1.268 . S
C669 O675 1.268 . S
C669 O678 1.268 . S
O670 Sc660 2.105 . S
O670 C664 1.268 . S
O671 Sc661 2.105 . S
O671 C665 1.268 . S
O672 Sc662 2.105 . S
O672 C666 1.268 . S
O673 Sc660 2.105 . S
O673 C667 1.268 . S
O674 Sc662 2.105 . S
O674 C668 1.268 . S
O675 Sc661 2.105 . S
O675 C669 1.268 . S
O676 Sc660 2.105 . S
O676 C668 1.268 . S
O677 Sc661 2.105 . S
O677 C667 1.268 . S
O678 Sc662 2.105 . S
O678 C669 1.268 . S
O679 Sc660 2.105 . S
O679 C665 1.268 . S
O680 Sc662 2.105 . S
O680 C664 1.268 . S
O681 Sc661 2.105 . S
O681 C666 1.268 . S
Sc682 O685 2.025 . S
Sc682 O692 2.105 . S
Sc682 O695 2.105 . S
Sc682 O698 2.105 . S
Sc682 O701 2.105 . S
Sc683 O685 2.025 . S
Sc683 O693 2.105 . S
Sc683 O697 2.105 . S
Sc683 O699 2.105 . S
Sc683 O703 2.105 . S
Sc684 O685 2.025 . S
Sc684 O694 2.105 . S
Sc684 O696 2.105 . S
Sc684 O700 2.105 . S
Sc684 O702 2.105 . S
O685 Sc682 2.025 . S
O685 Sc683 2.025 . S
O685 Sc684 2.025 . S
C686 O692 1.268 . S
C686 O702 1.268 . S
C687 O693 1.268 . S
C687 O701 1.268 . S
C688 O694 1.268 . S
C688 O703 1.268 . S
C689 O695 1.268 . S
C689 O699 1.268 . S
C690 O696 1.268 . S
C690 O698 1.268 . S
C691 O697 1.268 . S
C691 O700 1.268 . S
O692 Sc682 2.105 . S
O692 C686 1.268 . S
O693 Sc683 2.105 . S
O693 C687 1.268 . S
O694 Sc684 2.105 . S
O694 C688 1.268 . S
O695 Sc682 2.105 . S
O695 C689 1.268 . S
O696 Sc684 2.105 . S
O696 C690 1.268 . S
O697 Sc683 2.105 . S
O697 C691 1.268 . S
O698 Sc682 2.105 . S
O698 C690 1.268 . S
O699 Sc683 2.105 . S
O699 C689 1.268 . S
O700 Sc684 2.105 . S
O700 C691 1.268 . S
O701 Sc682 2.105 . S
O701 C687 1.268 . S
O702 Sc684 2.105 . S
O702 C686 1.268 . S
O703 Sc683 2.105 . S
O703 C688 1.268 . S
H704 C712 0.950 . S
H705 C717 0.950 . S
H706 C714 0.950 . S
H707 C716 0.950 . S
H708 C718 0.950 . S
H709 C720 0.950 . S
H710 C722 0.950 . S
H711 C723 0.950 . S
C712 H704 0.950 . S
C712 C713 1.386 . S
C712 C714 1.391 . S
C713 C712 1.386 . S
C713 C717 1.393 . S
C714 H706 0.950 . S
C714 C712 1.391 . S
C714 C715 1.400 . S
C715 C714 1.400 . S
C715 C716 1.398 . S
C715 C721 1.491 . S
C716 H707 0.950 . S
C716 C715 1.398 . S
C716 C717 1.391 . S
C717 H705 0.950 . S
C717 C713 1.393 . S
C717 C716 1.391 . S
C718 H708 0.950 . S
C718 C719 1.386 . S
C718 C720 1.391 . S
C719 C718 1.386 . S
C719 C723 1.393 . S
C720 H709 0.950 . S
C720 C718 1.391 . S
C720 C721 1.400 . S
C721 C715 1.491 . S
C721 C720 1.400 . S
C721 C722 1.398 . S
C722 H710 0.950 . S
C722 C721 1.398 . S
C722 C723 1.391 . S
C723 H711 0.950 . S
C723 C719 1.393 . S
C723 C722 1.391 . S
H724 C732 0.950 . S
H725 C737 0.950 . S
H726 C734 0.950 . S
H727 C736 0.950 . S
H728 C738 0.950 . S
H729 C740 0.950 . S
H730 C742 0.950 . S
H731 C743 0.950 . S
C732 H724 0.950 . S
C732 C733 1.386 . S
C732 C734 1.391 . S
C733 C732 1.386 . S
C733 C737 1.393 . S
C734 H726 0.950 . S
C734 C732 1.391 . S
C734 C735 1.400 . S
C735 C734 1.400 . S
C735 C736 1.398 . S
C735 C741 1.491 . S
C736 H727 0.950 . S
C736 C735 1.398 . S
C736 C737 1.391 . S
C737 H725 0.950 . S
C737 C733 1.393 . S
C737 C736 1.391 . S
C738 H728 0.950 . S
C738 C739 1.386 . S
C738 C740 1.391 . S
C739 C738 1.386 . S
C739 C743 1.393 . S
C740 H729 0.950 . S
C740 C738 1.391 . S
C740 C741 1.400 . S
C741 C735 1.491 . S
C741 C740 1.400 . S
C741 C742 1.398 . S
C742 H730 0.950 . S
C742 C741 1.398 . S
C742 C743 1.391 . S
C743 H731 0.950 . S
C743 C739 1.393 . S
C743 C742 1.391 . S
H744 C752 0.950 . S
H745 C757 0.950 . S
H746 C754 0.950 . S
H747 C756 0.950 . S
H748 C758 0.950 . S
H749 C760 0.950 . S
H750 C762 0.950 . S
H751 C763 0.950 . S
C752 H744 0.950 . S
C752 C753 1.386 . S
C752 C754 1.391 . S
C753 C752 1.386 . S
C753 C757 1.393 . S
C754 H746 0.950 . S
C754 C752 1.391 . S
C754 C755 1.400 . S
C755 C754 1.400 . S
C755 C756 1.398 . S
C755 C761 1.491 . S
C756 H747 0.950 . S
C756 C755 1.398 . S
C756 C757 1.391 . S
C757 H745 0.950 . S
C757 C753 1.393 . S
C757 C756 1.391 . S
C758 H748 0.950 . S
C758 C759 1.386 . S
C758 C760 1.391 . S
C759 C758 1.386 . S
C759 C763 1.393 . S
C760 H749 0.950 . S
C760 C758 1.391 . S
C760 C761 1.400 . S
C761 C755 1.491 . S
C761 C760 1.400 . S
C761 C762 1.398 . S
C762 H750 0.950 . S
C762 C761 1.398 . S
C762 C763 1.391 . S
C763 H751 0.950 . S
C763 C759 1.393 . S
C763 C762 1.391 . S
H764 C772 0.950 . S
H765 C777 0.950 . S
H766 C774 0.950 . S
H767 C776 0.950 . S
H768 C778 0.950 . S
H769 C780 0.950 . S
H770 C782 0.950 . S
H771 C783 0.950 . S
C772 H764 0.950 . S
C772 C773 1.386 . S
C772 C774 1.391 . S
C773 C772 1.386 . S
C773 C777 1.393 . S
C774 H766 0.950 . S
C774 C772 1.391 . S
C774 C775 1.400 . S
C775 C774 1.400 . S
C775 C776 1.398 . S
C775 C781 1.491 . S
C776 H767 0.950 . S
C776 C775 1.398 . S
C776 C777 1.391 . S
C777 H765 0.950 . S
C777 C773 1.393 . S
C777 C776 1.391 . S
C778 H768 0.950 . S
C778 C779 1.386 . S
C778 C780 1.391 . S
C779 C778 1.386 . S
C779 C783 1.393 . S
C780 H769 0.950 . S
C780 C778 1.391 . S
C780 C781 1.400 . S
C781 C775 1.491 . S
C781 C780 1.400 . S
C781 C782 1.398 . S
C782 H770 0.950 . S
C782 C781 1.398 . S
C782 C783 1.391 . S
C783 H771 0.950 . S
C783 C779 1.393 . S
C783 C782 1.391 . S
H784 C792 0.950 . S
H785 C797 0.950 . S
H786 C794 0.950 . S
H787 C796 0.950 . S
H788 C798 0.950 . S
H789 C800 0.950 . S
H790 C802 0.950 . S
H791 C803 0.950 . S
C792 H784 0.950 . S
C792 C793 1.386 . S
C792 C794 1.391 . S
C793 C792 1.386 . S
C793 C797 1.393 . S
C794 H786 0.950 . S
C794 C792 1.391 . S
C794 C795 1.400 . S
C795 C794 1.400 . S
C795 C796 1.398 . S
C795 C801 1.491 . S
C796 H787 0.950 . S
C796 C795 1.398 . S
C796 C797 1.391 . S
C797 H785 0.950 . S
C797 C793 1.393 . S
C797 C796 1.391 . S
C798 H788 0.950 . S
C798 C799 1.386 . S
C798 C800 1.391 . S
C799 C798 1.386 . S
C799 C803 1.393 . S
C800 H789 0.950 . S
C800 C798 1.391 . S
C800 C801 1.400 . S
C801 C795 1.491 . S
C801 C800 1.400 . S
C801 C802 1.398 . S
C802 H790 0.950 . S
C802 C801 1.398 . S
C802 C803 1.391 . S
C803 H791 0.950 . S
C803 C799 1.393 . S
C803 C802 1.391 . S
H804 C812 0.950 . S
H805 C817 0.950 . S
H806 C814 0.950 . S
H807 C816 0.950 . S
H808 C818 0.950 . S
H809 C820 0.950 . S
H810 C822 0.950 . S
H811 C823 0.950 . S
C812 H804 0.950 . S
C812 C813 1.386 . S
C812 C814 1.391 . S
C813 C812 1.386 . S
C813 C817 1.393 . S
C814 H806 0.950 . S
C814 C812 1.391 . S
C814 C815 1.400 . S
C815 C814 1.400 . S
C815 C816 1.398 . S
C815 C821 1.491 . S
C816 H807 0.950 . S
C816 C815 1.398 . S
C816 C817 1.391 . S
C817 H805 0.950 . S
C817 C813 1.393 . S
C817 C816 1.391 . S
C818 H808 0.950 . S
C818 C819 1.386 . S
C818 C820 1.391 . S
C819 C818 1.386 . S
C819 C823 1.393 . S
C820 H809 0.950 . S
C820 C818 1.391 . S
C820 C821 1.400 . S
C821 C815 1.491 . S
C821 C820 1.400 . S
C821 C822 1.398 . S
C822 H810 0.950 . S
C822 C821 1.398 . S
C822 C823 1.391 . S
C823 H811 0.950 . S
C823 C819 1.393 . S
C823 C822 1.391 . S
H824 C832 0.950 . S
H825 C837 0.950 . S
H826 C834 0.950 . S
H827 C836 0.950 . S
H828 C838 0.950 . S
H829 C840 0.950 . S
H830 C842 0.950 . S
H831 C843 0.950 . S
C832 H824 0.950 . S
C832 C833 1.386 . S
C832 C834 1.391 . S
C833 C832 1.386 . S
C833 C837 1.393 . S
C834 H826 0.950 . S
C834 C832 1.391 . S
C834 C835 1.400 . S
C835 C834 1.400 . S
C835 C836 1.398 . S
C835 C841 1.491 . S
C836 H827 0.950 . S
C836 C835 1.398 . S
C836 C837 1.391 . S
C837 H825 0.950 . S
C837 C833 1.393 . S
C837 C836 1.391 . S
C838 H828 0.950 . S
C838 C839 1.386 . S
C838 C840 1.391 . S
C839 C838 1.386 . S
C839 C843 1.393 . S
C840 H829 0.950 . S
C840 C838 1.391 . S
C840 C841 1.400 . S
C841 C835 1.491 . S
C841 C840 1.400 . S
C841 C842 1.398 . S
C842 H830 0.950 . S
C842 C841 1.398 . S
C842 C843 1.391 . S
C843 H831 0.950 . S
C843 C839 1.393 . S
C843 C842 1.391 . S
H844 C852 0.950 . S
H845 C857 0.950 . S
H846 C854 0.950 . S
H847 C856 0.950 . S
H848 C858 0.950 . S
H849 C860 0.950 . S
H850 C862 0.950 . S
H851 C863 0.950 . S
C852 H844 0.950 . S
C852 C853 1.386 . S
C852 C854 1.391 . S
C853 C852 1.386 . S
C853 C857 1.393 . S
C854 H846 0.950 . S
C854 C852 1.391 . S
C854 C855 1.400 . S
C855 C854 1.400 . S
C855 C856 1.398 . S
C855 C861 1.491 . S
C856 H847 0.950 . S
C856 C855 1.398 . S
C856 C857 1.391 . S
C857 H845 0.950 . S
C857 C853 1.393 . S
C857 C856 1.391 . S
C858 H848 0.950 . S
C858 C859 1.386 . S
C858 C860 1.391 . S
C859 C858 1.386 . S
C859 C863 1.393 . S
C860 H849 0.950 . S
C860 C858 1.391 . S
C860 C861 1.400 . S
C861 C855 1.491 . S
C861 C860 1.400 . S
C861 C862 1.398 . S
C862 H850 0.950 . S
C862 C861 1.398 . S
C862 C863 1.391 . S
C863 H851 0.950 . S
C863 C859 1.393 . S
C863 C862 1.391 . S
H864 C872 0.950 . S
H865 C877 0.950 . S
H866 C874 0.950 . S
H867 C876 0.950 . S
H868 C878 0.950 . S
H869 C880 0.950 . S
H870 C882 0.950 . S
H871 C883 0.950 . S
C872 H864 0.950 . S
C872 C873 1.386 . S
C872 C874 1.391 . S
C873 C872 1.386 . S
C873 C877 1.393 . S
C874 H866 0.950 . S
C874 C872 1.391 . S
C874 C875 1.400 . S
C875 C874 1.400 . S
C875 C876 1.398 . S
C875 C881 1.491 . S
C876 H867 0.950 . S
C876 C875 1.398 . S
C876 C877 1.391 . S
C877 H865 0.950 . S
C877 C873 1.393 . S
C877 C876 1.391 . S
C878 H868 0.950 . S
C878 C879 1.386 . S
C878 C880 1.391 . S
C879 C878 1.386 . S
C879 C883 1.393 . S
C880 H869 0.950 . S
C880 C878 1.391 . S
C880 C881 1.400 . S
C881 C875 1.491 . S
C881 C880 1.400 . S
C881 C882 1.398 . S
C882 H870 0.950 . S
C882 C881 1.398 . S
C882 C883 1.391 . S
C883 H871 0.950 . S
C883 C879 1.393 . S
C883 C882 1.391 . S
H884 C892 0.950 . S
H885 C897 0.950 . S
H886 C894 0.950 . S
H887 C896 0.950 . S
H888 C898 0.950 . S
H889 C900 0.950 . S
H890 C902 0.950 . S
H891 C903 0.950 . S
C892 H884 0.950 . S
C892 C893 1.386 . S
C892 C894 1.391 . S
C893 C892 1.386 . S
C893 C897 1.393 . S
C894 H886 0.950 . S
C894 C892 1.391 . S
C894 C895 1.400 . S
C895 C894 1.400 . S
C895 C896 1.398 . S
C895 C901 1.491 . S
C896 H887 0.950 . S
C896 C895 1.398 . S
C896 C897 1.391 . S
C897 H885 0.950 . S
C897 C893 1.393 . S
C897 C896 1.391 . S
C898 H888 0.950 . S
C898 C899 1.386 . S
C898 C900 1.391 . S
C899 C898 1.386 . S
C899 C903 1.393 . S
C900 H889 0.950 . S
C900 C898 1.391 . S
C900 C901 1.400 . S
C901 C895 1.491 . S
C901 C900 1.400 . S
C901 C902 1.398 . S
C902 H890 0.950 . S
C902 C901 1.398 . S
C902 C903 1.391 . S
C903 H891 0.950 . S
C903 C899 1.393 . S
C903 C902 1.391 . S
H904 C912 0.950 . S
H905 C917 0.950 . S
H906 C914 0.950 . S
H907 C916 0.950 . S
H908 C918 0.950 . S
H909 C920 0.950 . S
H910 C922 0.950 . S
H911 C923 0.950 . S
C912 H904 0.950 . S
C912 C913 1.386 . S
C912 C914 1.391 . S
C913 C912 1.386 . S
C913 C917 1.393 . S
C914 H906 0.950 . S
C914 C912 1.391 . S
C914 C915 1.400 . S
C915 C914 1.400 . S
C915 C916 1.398 . S
C915 C921 1.491 . S
C916 H907 0.950 . S
C916 C915 1.398 . S
C916 C917 1.391 . S
C917 H905 0.950 . S
C917 C913 1.393 . S
C917 C916 1.391 . S
C918 H908 0.950 . S
C918 C919 1.386 . S
C918 C920 1.391 . S
C919 C918 1.386 . S
C919 C923 1.393 . S
C920 H909 0.950 . S
C920 C918 1.391 . S
C920 C921 1.400 . S
C921 C915 1.491 . S
C921 C920 1.400 . S
C921 C922 1.398 . S
C922 H910 0.950 . S
C922 C921 1.398 . S
C922 C923 1.391 . S
C923 H911 0.950 . S
C923 C919 1.393 . S
C923 C922 1.391 . S
H924 C932 0.950 . S
H925 C937 0.950 . S
H926 C934 0.950 . S
H927 C936 0.950 . S
H928 C938 0.950 . S
H929 C940 0.950 . S
H930 C942 0.950 . S
H931 C943 0.950 . S
C932 H924 0.950 . S
C932 C933 1.386 . S
C932 C934 1.391 . S
C933 C932 1.386 . S
C933 C937 1.393 . S
C934 H926 0.950 . S
C934 C932 1.391 . S
C934 C935 1.400 . S
C935 C934 1.400 . S
C935 C936 1.398 . S
C935 C941 1.491 . S
C936 H927 0.950 . S
C936 C935 1.398 . S
C936 C937 1.391 . S
C937 H925 0.950 . S
C937 C933 1.393 . S
C937 C936 1.391 . S
C938 H928 0.950 . S
C938 C939 1.386 . S
C938 C940 1.391 . S
C939 C938 1.386 . S
C939 C943 1.393 . S
C940 H929 0.950 . S
C940 C938 1.391 . S
C940 C941 1.400 . S
C941 C935 1.491 . S
C941 C940 1.400 . S
C941 C942 1.398 . S
C942 H930 0.950 . S
C942 C941 1.398 . S
C942 C943 1.391 . S
C943 H931 0.950 . S
C943 C939 1.393 . S
C943 C942 1.391 . S
H944 C952 0.950 . S
H945 C957 0.950 . S
H946 C954 0.950 . S
H947 C956 0.950 . S
H948 C958 0.950 . S
H949 C960 0.950 . S
H950 C962 0.950 . S
H951 C963 0.950 . S
C952 H944 0.950 . S
C952 C953 1.386 . S
C952 C954 1.391 . S
C953 C952 1.386 . S
C953 C957 1.393 . S
C954 H946 0.950 . S
C954 C952 1.391 . S
C954 C955 1.400 . S
C955 C954 1.400 . S
C955 C956 1.398 . S
C955 C961 1.491 . S
C956 H947 0.950 . S
C956 C955 1.398 . S
C956 C957 1.391 . S
C957 H945 0.950 . S
C957 C953 1.393 . S
C957 C956 1.391 . S
C958 H948 0.950 . S
C958 C959 1.386 . S
C958 C960 1.391 . S
C959 C958 1.386 . S
C959 C963 1.393 . S
C960 H949 0.950 . S
C960 C958 1.391 . S
C960 C961 1.400 . S
C961 C955 1.491 . S
C961 C960 1.400 . S
C961 C962 1.398 . S
C962 H950 0.950 . S
C962 C961 1.398 . S
C962 C963 1.391 . S
C963 H951 0.950 . S
C963 C959 1.393 . S
C963 C962 1.391 . S
H964 C972 0.950 . S
H965 C977 0.950 . S
H966 C974 0.950 . S
H967 C976 0.950 . S
H968 C978 0.950 . S
H969 C980 0.950 . S
H970 C982 0.950 . S
H971 C983 0.950 . S
C972 H964 0.950 . S
C972 C973 1.386 . S
C972 C974 1.391 . S
C973 C972 1.386 . S
C973 C977 1.393 . S
C974 H966 0.950 . S
C974 C972 1.391 . S
C974 C975 1.400 . S
C975 C974 1.400 . S
C975 C976 1.398 . S
C975 C981 1.491 . S
C976 H967 0.950 . S
C976 C975 1.398 . S
C976 C977 1.391 . S
C977 H965 0.950 . S
C977 C973 1.393 . S
C977 C976 1.391 . S
C978 H968 0.950 . S
C978 C979 1.386 . S
C978 C980 1.391 . S
C979 C978 1.386 . S
C979 C983 1.393 . S
C980 H969 0.950 . S
C980 C978 1.391 . S
C980 C981 1.400 . S
C981 C975 1.491 . S
C981 C980 1.400 . S
C981 C982 1.398 . S
C982 H970 0.950 . S
C982 C981 1.398 . S
C982 C983 1.391 . S
C983 H971 0.950 . S
C983 C979 1.393 . S
C983 C982 1.391 . S
H984 C992 0.950 . S
H985 C997 0.950 . S
H986 C994 0.950 . S
H987 C996 0.950 . S
H988 C998 0.950 . S
H989 C1000 0.950 . S
H990 C1002 0.950 . S
H991 C1003 0.950 . S
C992 H984 0.950 . S
C992 C993 1.386 . S
C992 C994 1.391 . S
C993 C992 1.386 . S
C993 C997 1.393 . S
C994 H986 0.950 . S
C994 C992 1.391 . S
C994 C995 1.400 . S
C995 C994 1.400 . S
C995 C996 1.398 . S
C995 C1001 1.491 . S
C996 H987 0.950 . S
C996 C995 1.398 . S
C996 C997 1.391 . S
C997 H985 0.950 . S
C997 C993 1.393 . S
C997 C996 1.391 . S
C998 H988 0.950 . S
C998 C999 1.386 . S
C998 C1000 1.391 . S
C999 C998 1.386 . S
C999 C1003 1.393 . S
C1000 H989 0.950 . S
C1000 C998 1.391 . S
C1000 C1001 1.400 . S
C1001 C995 1.491 . S
C1001 C1000 1.400 . S
C1001 C1002 1.398 . S
C1002 H990 0.950 . S
C1002 C1001 1.398 . S
C1002 C1003 1.391 . S
C1003 H991 0.950 . S
C1003 C999 1.393 . S
C1003 C1002 1.391 . S
H1004 C1012 0.950 . S
H1005 C1017 0.950 . S
H1006 C1014 0.950 . S
H1007 C1016 0.950 . S
H1008 C1018 0.950 . S
H1009 C1020 0.950 . S
H1010 C1022 0.950 . S
H1011 C1023 0.950 . S
C1012 H1004 0.950 . S
C1012 C1013 1.386 . S
C1012 C1014 1.391 . S
C1013 C1012 1.386 . S
C1013 C1017 1.393 . S
C1014 H1006 0.950 . S
C1014 C1012 1.391 . S
C1014 C1015 1.400 . S
C1015 C1014 1.400 . S
C1015 C1016 1.398 . S
C1015 C1021 1.491 . S
C1016 H1007 0.950 . S
C1016 C1015 1.398 . S
C1016 C1017 1.391 . S
C1017 H1005 0.950 . S
C1017 C1013 1.393 . S
C1017 C1016 1.391 . S
C1018 H1008 0.950 . S
C1018 C1019 1.386 . S
C1018 C1020 1.391 . S
C1019 C1018 1.386 . S
C1019 C1023 1.393 . S
C1020 H1009 0.950 . S
C1020 C1018 1.391 . S
C1020 C1021 1.400 . S
C1021 C1015 1.491 . S
C1021 C1020 1.400 . S
C1021 C1022 1.398 . S
C1022 H1010 0.950 . S
C1022 C1021 1.398 . S
C1022 C1023 1.391 . S
C1023 H1011 0.950 . S
C1023 C1019 1.393 . S
C1023 C1022 1.391 . S
H1024 C1032 0.950 . S
H1025 C1037 0.950 . S
H1026 C1034 0.950 . S
H1027 C1036 0.950 . S
H1028 C1038 0.950 . S
H1029 C1040 0.950 . S
H1030 C1042 0.950 . S
H1031 C1043 0.950 . S
C1032 H1024 0.950 . S
C1032 C1033 1.386 . S
C1032 C1034 1.391 . S
C1033 C1032 1.386 . S
C1033 C1037 1.393 . S
C1034 H1026 0.950 . S
C1034 C1032 1.391 . S
C1034 C1035 1.400 . S
C1035 C1034 1.400 . S
C1035 C1036 1.398 . S
C1035 C1041 1.491 . S
C1036 H1027 0.950 . S
C1036 C1035 1.398 . S
C1036 C1037 1.391 . S
C1037 H1025 0.950 . S
C1037 C1033 1.393 . S
C1037 C1036 1.391 . S
C1038 H1028 0.950 . S
C1038 C1039 1.386 . S
C1038 C1040 1.391 . S
C1039 C1038 1.386 . S
C1039 C1043 1.393 . S
C1040 H1029 0.950 . S
C1040 C1038 1.391 . S
C1040 C1041 1.400 . S
C1041 C1035 1.491 . S
C1041 C1040 1.400 . S
C1041 C1042 1.398 . S
C1042 H1030 0.950 . S
C1042 C1041 1.398 . S
C1042 C1043 1.391 . S
C1043 H1031 0.950 . S
C1043 C1039 1.393 . S
C1043 C1042 1.391 . S
H1044 C1052 0.950 . S
H1045 C1057 0.950 . S
H1046 C1054 0.950 . S
H1047 C1056 0.950 . S
H1048 C1058 0.950 . S
H1049 C1060 0.950 . S
H1050 C1062 0.950 . S
H1051 C1063 0.950 . S
C1052 H1044 0.950 . S
C1052 C1053 1.386 . S
C1052 C1054 1.391 . S
C1053 C1052 1.386 . S
C1053 C1057 1.393 . S
C1054 H1046 0.950 . S
C1054 C1052 1.391 . S
C1054 C1055 1.400 . S
C1055 C1054 1.400 . S
C1055 C1056 1.398 . S
C1055 C1061 1.491 . S
C1056 H1047 0.950 . S
C1056 C1055 1.398 . S
C1056 C1057 1.391 . S
C1057 H1045 0.950 . S
C1057 C1053 1.393 . S
C1057 C1056 1.391 . S
C1058 H1048 0.950 . S
C1058 C1059 1.386 . S
C1058 C1060 1.391 . S
C1059 C1058 1.386 . S
C1059 C1063 1.393 . S
C1060 H1049 0.950 . S
C1060 C1058 1.391 . S
C1060 C1061 1.400 . S
C1061 C1055 1.491 . S
C1061 C1060 1.400 . S
C1061 C1062 1.398 . S
C1062 H1050 0.950 . S
C1062 C1061 1.398 . S
C1062 C1063 1.391 . S
C1063 H1051 0.950 . S
C1063 C1059 1.393 . S
C1063 C1062 1.391 . S
H1064 C1072 0.950 . S
H1065 C1077 0.950 . S
H1066 C1074 0.950 . S
H1067 C1076 0.950 . S
H1068 C1078 0.950 . S
H1069 C1080 0.950 . S
H1070 C1082 0.950 . S
H1071 C1083 0.950 . S
C1072 H1064 0.950 . S
C1072 C1073 1.386 . S
C1072 C1074 1.391 . S
C1073 C1072 1.386 . S
C1073 C1077 1.393 . S
C1074 H1066 0.950 . S
C1074 C1072 1.391 . S
C1074 C1075 1.400 . S
C1075 C1074 1.400 . S
C1075 C1076 1.398 . S
C1075 C1081 1.491 . S
C1076 H1067 0.950 . S
C1076 C1075 1.398 . S
C1076 C1077 1.391 . S
C1077 H1065 0.950 . S
C1077 C1073 1.393 . S
C1077 C1076 1.391 . S
C1078 H1068 0.950 . S
C1078 C1079 1.386 . S
C1078 C1080 1.391 . S
C1079 C1078 1.386 . S
C1079 C1083 1.393 . S
C1080 H1069 0.950 . S
C1080 C1078 1.391 . S
C1080 C1081 1.400 . S
C1081 C1075 1.491 . S
C1081 C1080 1.400 . S
C1081 C1082 1.398 . S
C1082 H1070 0.950 . S
C1082 C1081 1.398 . S
C1082 C1083 1.391 . S
C1083 H1071 0.950 . S
C1083 C1079 1.393 . S
C1083 C1082 1.391 . S
H1084 C1092 0.950 . S
H1085 C1097 0.950 . S
H1086 C1094 0.950 . S
H1087 C1096 0.950 . S
H1088 C1098 0.950 . S
H1089 C1100 0.950 . S
H1090 C1102 0.950 . S
H1091 C1103 0.950 . S
C1092 H1084 0.950 . S
C1092 C1093 1.386 . S
C1092 C1094 1.391 . S
C1093 C1092 1.386 . S
C1093 C1097 1.393 . S
C1094 H1086 0.950 . S
C1094 C1092 1.391 . S
C1094 C1095 1.400 . S
C1095 C1094 1.400 . S
C1095 C1096 1.398 . S
C1095 C1101 1.491 . S
C1096 H1087 0.950 . S
C1096 C1095 1.398 . S
C1096 C1097 1.391 . S
C1097 H1085 0.950 . S
C1097 C1093 1.393 . S
C1097 C1096 1.391 . S
C1098 H1088 0.950 . S
C1098 C1099 1.386 . S
C1098 C1100 1.391 . S
C1099 C1098 1.386 . S
C1099 C1103 1.393 . S
C1100 H1089 0.950 . S
C1100 C1098 1.391 . S
C1100 C1101 1.400 . S
C1101 C1095 1.491 . S
C1101 C1100 1.400 . S
C1101 C1102 1.398 . S
C1102 H1090 0.950 . S
C1102 C1101 1.398 . S
C1102 C1103 1.391 . S
C1103 H1091 0.950 . S
C1103 C1099 1.393 . S
C1103 C1102 1.391 . S
H1104 C1112 0.950 . S
H1105 C1117 0.950 . S
H1106 C1114 0.950 . S
H1107 C1116 0.950 . S
H1108 C1118 0.950 . S
H1109 C1120 0.950 . S
H1110 C1122 0.950 . S
H1111 C1123 0.950 . S
C1112 H1104 0.950 . S
C1112 C1113 1.386 . S
C1112 C1114 1.391 . S
C1113 C1112 1.386 . S
C1113 C1117 1.393 . S
C1114 H1106 0.950 . S
C1114 C1112 1.391 . S
C1114 C1115 1.400 . S
C1115 C1114 1.400 . S
C1115 C1116 1.398 . S
C1115 C1121 1.491 . S
C1116 H1107 0.950 . S
C1116 C1115 1.398 . S
C1116 C1117 1.391 . S
C1117 H1105 0.950 . S
C1117 C1113 1.393 . S
C1117 C1116 1.391 . S
C1118 H1108 0.950 . S
C1118 C1119 1.386 . S
C1118 C1120 1.391 . S
C1119 C1118 1.386 . S
C1119 C1123 1.393 . S
C1120 H1109 0.950 . S
C1120 C1118 1.391 . S
C1120 C1121 1.400 . S
C1121 C1115 1.491 . S
C1121 C1120 1.400 . S
C1121 C1122 1.398 . S
C1122 H1110 0.950 . S
C1122 C1121 1.398 . S
C1122 C1123 1.391 . S
C1123 H1111 0.950 . S
C1123 C1119 1.393 . S
C1123 C1122 1.391 . S
H1124 C1132 0.950 . S
H1125 C1137 0.950 . S
H1126 C1134 0.950 . S
H1127 C1136 0.950 . S
H1128 C1138 0.950 . S
H1129 C1140 0.950 . S
H1130 C1142 0.950 . S
H1131 C1143 0.950 . S
C1132 H1124 0.950 . S
C1132 C1133 1.386 . S
C1132 C1134 1.391 . S
C1133 C1132 1.386 . S
C1133 C1137 1.393 . S
C1134 H1126 0.950 . S
C1134 C1132 1.391 . S
C1134 C1135 1.400 . S
C1135 C1134 1.400 . S
C1135 C1136 1.398 . S
C1135 C1141 1.491 . S
C1136 H1127 0.950 . S
C1136 C1135 1.398 . S
C1136 C1137 1.391 . S
C1137 H1125 0.950 . S
C1137 C1133 1.393 . S
C1137 C1136 1.391 . S
C1138 H1128 0.950 . S
C1138 C1139 1.386 . S
C1138 C1140 1.391 . S
C1139 C1138 1.386 . S
C1139 C1143 1.393 . S
C1140 H1129 0.950 . S
C1140 C1138 1.391 . S
C1140 C1141 1.400 . S
C1141 C1135 1.491 . S
C1141 C1140 1.400 . S
C1141 C1142 1.398 . S
C1142 H1130 0.950 . S
C1142 C1141 1.398 . S
C1142 C1143 1.391 . S
C1143 H1131 0.950 . S
C1143 C1139 1.393 . S
C1143 C1142 1.391 . S
H1144 C1152 0.950 . S
H1145 C1157 0.950 . S
H1146 C1154 0.950 . S
H1147 C1156 0.950 . S
H1148 C1158 0.950 . S
H1149 C1160 0.950 . S
H1150 C1162 0.950 . S
H1151 C1163 0.950 . S
C1152 H1144 0.950 . S
C1152 C1153 1.386 . S
C1152 C1154 1.391 . S
C1153 C1152 1.386 . S
C1153 C1157 1.393 . S
C1154 H1146 0.950 . S
C1154 C1152 1.391 . S
C1154 C1155 1.400 . S
C1155 C1154 1.400 . S
C1155 C1156 1.398 . S
C1155 C1161 1.491 . S
C1156 H1147 0.950 . S
C1156 C1155 1.398 . S
C1156 C1157 1.391 . S
C1157 H1145 0.950 . S
C1157 C1153 1.393 . S
C1157 C1156 1.391 . S
C1158 H1148 0.950 . S
C1158 C1159 1.386 . S
C1158 C1160 1.391 . S
C1159 C1158 1.386 . S
C1159 C1163 1.393 . S
C1160 H1149 0.950 . S
C1160 C1158 1.391 . S
C1160 C1161 1.400 . S
C1161 C1155 1.491 . S
C1161 C1160 1.400 . S
C1161 C1162 1.398 . S
C1162 H1150 0.950 . S
C1162 C1161 1.398 . S
C1162 C1163 1.391 . S
C1163 H1151 0.950 . S
C1163 C1159 1.393 . S
C1163 C1162 1.391 . S
H1164 C1172 0.950 . S
H1165 C1177 0.950 . S
H1166 C1174 0.950 . S
H1167 C1176 0.950 . S
H1168 C1178 0.950 . S
H1169 C1180 0.950 . S
H1170 C1182 0.950 . S
H1171 C1183 0.950 . S
C1172 H1164 0.950 . S
C1172 C1173 1.386 . S
C1172 C1174 1.391 . S
C1173 C1172 1.386 . S
C1173 C1177 1.393 . S
C1174 H1166 0.950 . S
C1174 C1172 1.391 . S
C1174 C1175 1.400 . S
C1175 C1174 1.400 . S
C1175 C1176 1.398 . S
C1175 C1181 1.491 . S
C1176 H1167 0.950 . S
C1176 C1175 1.398 . S
C1176 C1177 1.391 . S
C1177 H1165 0.950 . S
C1177 C1173 1.393 . S
C1177 C1176 1.391 . S
C1178 H1168 0.950 . S
C1178 C1179 1.386 . S
C1178 C1180 1.391 . S
C1179 C1178 1.386 . S
C1179 C1183 1.393 . S
C1180 H1169 0.950 . S
C1180 C1178 1.391 . S
C1180 C1181 1.400 . S
C1181 C1175 1.491 . S
C1181 C1180 1.400 . S
C1181 C1182 1.398 . S
C1182 H1170 0.950 . S
C1182 C1181 1.398 . S
C1182 C1183 1.391 . S
C1183 H1171 0.950 . S
C1183 C1179 1.393 . S
C1183 C1182 1.391 . S
H1184 C1192 0.950 . S
H1185 C1197 0.950 . S
H1186 C1194 0.950 . S
H1187 C1196 0.950 . S
H1188 C1198 0.950 . S
H1189 C1200 0.950 . S
H1190 C1202 0.950 . S
H1191 C1203 0.950 . S
C1192 H1184 0.950 . S
C1192 C1193 1.386 . S
C1192 C1194 1.391 . S
C1193 C1192 1.386 . S
C1193 C1197 1.393 . S
C1194 H1186 0.950 . S
C1194 C1192 1.391 . S
C1194 C1195 1.400 . S
C1195 C1194 1.400 . S
C1195 C1196 1.398 . S
C1195 C1201 1.491 . S
C1196 H1187 0.950 . S
C1196 C1195 1.398 . S
C1196 C1197 1.391 . S
C1197 H1185 0.950 . S
C1197 C1193 1.393 . S
C1197 C1196 1.391 . S
C1198 H1188 0.950 . S
C1198 C1199 1.386 . S
C1198 C1200 1.391 . S
C1199 C1198 1.386 . S
C1199 C1203 1.393 . S
C1200 H1189 0.950 . S
C1200 C1198 1.391 . S
C1200 C1201 1.400 . S
C1201 C1195 1.491 . S
C1201 C1200 1.400 . S
C1201 C1202 1.398 . S
C1202 H1190 0.950 . S
C1202 C1201 1.398 . S
C1202 C1203 1.391 . S
C1203 H1191 0.950 . S
C1203 C1199 1.393 . S
C1203 C1202 1.391 . S
H1204 C1212 0.950 . S
H1205 C1217 0.950 . S
H1206 C1214 0.950 . S
H1207 C1216 0.950 . S
H1208 C1218 0.950 . S
H1209 C1220 0.950 . S
H1210 C1222 0.950 . S
H1211 C1223 0.950 . S
C1212 H1204 0.950 . S
C1212 C1213 1.386 . S
C1212 C1214 1.391 . S
C1213 C1212 1.386 . S
C1213 C1217 1.393 . S
C1214 H1206 0.950 . S
C1214 C1212 1.391 . S
C1214 C1215 1.400 . S
C1215 C1214 1.400 . S
C1215 C1216 1.398 . S
C1215 C1221 1.491 . S
C1216 H1207 0.950 . S
C1216 C1215 1.398 . S
C1216 C1217 1.391 . S
C1217 H1205 0.950 . S
C1217 C1213 1.393 . S
C1217 C1216 1.391 . S
C1218 H1208 0.950 . S
C1218 C1219 1.386 . S
C1218 C1220 1.391 . S
C1219 C1218 1.386 . S
C1219 C1223 1.393 . S
C1220 H1209 0.950 . S
C1220 C1218 1.391 . S
C1220 C1221 1.400 . S
C1221 C1215 1.491 . S
C1221 C1220 1.400 . S
C1221 C1222 1.398 . S
C1222 H1210 0.950 . S
C1222 C1221 1.398 . S
C1222 C1223 1.391 . S
C1223 H1211 0.950 . S
C1223 C1219 1.393 . S
C1223 C1222 1.391 . S
H1224 C1232 0.950 . S
H1225 C1237 0.950 . S
H1226 C1234 0.950 . S
H1227 C1236 0.950 . S
H1228 C1238 0.950 . S
H1229 C1240 0.950 . S
H1230 C1242 0.950 . S
H1231 C1243 0.950 . S
C1232 H1224 0.950 . S
C1232 C1233 1.386 . S
C1232 C1234 1.391 . S
C1233 C1232 1.386 . S
C1233 C1237 1.393 . S
C1234 H1226 0.950 . S
C1234 C1232 1.391 . S
C1234 C1235 1.400 . S
C1235 C1234 1.400 . S
C1235 C1236 1.398 . S
C1235 C1241 1.491 . S
C1236 H1227 0.950 . S
C1236 C1235 1.398 . S
C1236 C1237 1.391 . S
C1237 H1225 0.950 . S
C1237 C1233 1.393 . S
C1237 C1236 1.391 . S
C1238 H1228 0.950 . S
C1238 C1239 1.386 . S
C1238 C1240 1.391 . S
C1239 C1238 1.386 . S
C1239 C1243 1.393 . S
C1240 H1229 0.950 . S
C1240 C1238 1.391 . S
C1240 C1241 1.400 . S
C1241 C1235 1.491 . S
C1241 C1240 1.400 . S
C1241 C1242 1.398 . S
C1242 H1230 0.950 . S
C1242 C1241 1.398 . S
C1242 C1243 1.391 . S
C1243 H1231 0.950 . S
C1243 C1239 1.393 . S
C1243 C1242 1.391 . S
H1244 C1252 0.950 . S
H1245 C1257 0.950 . S
H1246 C1254 0.950 . S
H1247 C1256 0.950 . S
H1248 C1258 0.950 . S
H1249 C1260 0.950 . S
H1250 C1262 0.950 . S
H1251 C1263 0.950 . S
C1252 H1244 0.950 . S
C1252 C1253 1.386 . S
C1252 C1254 1.391 . S
C1253 C1252 1.386 . S
C1253 C1257 1.393 . S
C1254 H1246 0.950 . S
C1254 C1252 1.391 . S
C1254 C1255 1.400 . S
C1255 C1254 1.400 . S
C1255 C1256 1.398 . S
C1255 C1261 1.491 . S
C1256 H1247 0.950 . S
C1256 C1255 1.398 . S
C1256 C1257 1.391 . S
C1257 H1245 0.950 . S
C1257 C1253 1.393 . S
C1257 C1256 1.391 . S
C1258 H1248 0.950 . S
C1258 C1259 1.386 . S
C1258 C1260 1.391 . S
C1259 C1258 1.386 . S
C1259 C1263 1.393 . S
C1260 H1249 0.950 . S
C1260 C1258 1.391 . S
C1260 C1261 1.400 . S
C1261 C1255 1.491 . S
C1261 C1260 1.400 . S
C1261 C1262 1.398 . S
C1262 H1250 0.950 . S
C1262 C1261 1.398 . S
C1262 C1263 1.391 . S
C1263 H1251 0.950 . S
C1263 C1259 1.393 . S
C1263 C1262 1.391 . S
H1264 C1272 0.950 . S
H1265 C1277 0.950 . S
H1266 C1274 0.950 . S
H1267 C1276 0.950 . S
H1268 C1278 0.950 . S
H1269 C1280 0.950 . S
H1270 C1282 0.950 . S
H1271 C1283 0.950 . S
C1272 H1264 0.950 . S
C1272 C1273 1.386 . S
C1272 C1274 1.391 . S
C1273 C1272 1.386 . S
C1273 C1277 1.393 . S
C1274 H1266 0.950 . S
C1274 C1272 1.391 . S
C1274 C1275 1.400 . S
C1275 C1274 1.400 . S
C1275 C1276 1.398 . S
C1275 C1281 1.491 . S
C1276 H1267 0.950 . S
C1276 C1275 1.398 . S
C1276 C1277 1.391 . S
C1277 H1265 0.950 . S
C1277 C1273 1.393 . S
C1277 C1276 1.391 . S
C1278 H1268 0.950 . S
C1278 C1279 1.386 . S
C1278 C1280 1.391 . S
C1279 C1278 1.386 . S
C1279 C1283 1.393 . S
C1280 H1269 0.950 . S
C1280 C1278 1.391 . S
C1280 C1281 1.400 . S
C1281 C1275 1.491 . S
C1281 C1280 1.400 . S
C1281 C1282 1.398 . S
C1282 H1270 0.950 . S
C1282 C1281 1.398 . S
C1282 C1283 1.391 . S
C1283 H1271 0.950 . S
C1283 C1279 1.393 . S
C1283 C1282 1.391 . S
H1284 C1292 0.950 . S
H1285 C1297 0.950 . S
H1286 C1294 0.950 . S
H1287 C1296 0.950 . S
H1288 C1298 0.950 . S
H1289 C1300 0.950 . S
H1290 C1302 0.950 . S
H1291 C1303 0.950 . S
C1292 H1284 0.950 . S
C1292 C1293 1.386 . S
C1292 C1294 1.391 . S
C1293 C1292 1.386 . S
C1293 C1297 1.393 . S
C1294 H1286 0.950 . S
C1294 C1292 1.391 . S
C1294 C1295 1.400 . S
C1295 C1294 1.400 . S
C1295 C1296 1.398 . S
C1295 C1301 1.491 . S
C1296 H1287 0.950 . S
C1296 C1295 1.398 . S
C1296 C1297 1.391 . S
C1297 H1285 0.950 . S
C1297 C1293 1.393 . S
C1297 C1296 1.391 . S
C1298 H1288 0.950 . S
C1298 C1299 1.386 . S
C1298 C1300 1.391 . S
C1299 C1298 1.386 . S
C1299 C1303 1.393 . S
C1300 H1289 0.950 . S
C1300 C1298 1.391 . S
C1300 C1301 1.400 . S
C1301 C1295 1.491 . S
C1301 C1300 1.400 . S
C1301 C1302 1.398 . S
C1302 H1290 0.950 . S
C1302 C1301 1.398 . S
C1302 C1303 1.391 . S
C1303 H1291 0.950 . S
C1303 C1299 1.393 . S
C1303 C1302 1.391 . S
H1304 C1312 0.950 . S
H1305 C1317 0.950 . S
H1306 C1314 0.950 . S
H1307 C1316 0.950 . S
H1308 C1318 0.950 . S
H1309 C1320 0.950 . S
H1310 C1322 0.950 . S
H1311 C1323 0.950 . S
C1312 H1304 0.950 . S
C1312 C1313 1.386 . S
C1312 C1314 1.391 . S
C1313 C1312 1.386 . S
C1313 C1317 1.393 . S
C1314 H1306 0.950 . S
C1314 C1312 1.391 . S
C1314 C1315 1.400 . S
C1315 C1314 1.400 . S
C1315 C1316 1.398 . S
C1315 C1321 1.491 . S
C1316 H1307 0.950 . S
C1316 C1315 1.398 . S
C1316 C1317 1.391 . S
C1317 H1305 0.950 . S
C1317 C1313 1.393 . S
C1317 C1316 1.391 . S
C1318 H1308 0.950 . S
C1318 C1319 1.386 . S
C1318 C1320 1.391 . S
C1319 C1318 1.386 . S
C1319 C1323 1.393 . S
C1320 H1309 0.950 . S
C1320 C1318 1.391 . S
C1320 C1321 1.400 . S
C1321 C1315 1.491 . S
C1321 C1320 1.400 . S
C1321 C1322 1.398 . S
C1322 H1310 0.950 . S
C1322 C1321 1.398 . S
C1322 C1323 1.391 . S
C1323 H1311 0.950 . S
C1323 C1319 1.393 . S
C1323 C1322 1.391 . S
H1324 C1332 0.950 . S
H1325 C1337 0.950 . S
H1326 C1334 0.950 . S
H1327 C1336 0.950 . S
H1328 C1338 0.950 . S
H1329 C1340 0.950 . S
H1330 C1342 0.950 . S
H1331 C1343 0.950 . S
C1332 H1324 0.950 . S
C1332 C1333 1.386 . S
C1332 C1334 1.391 . S
C1333 C1332 1.386 . S
C1333 C1337 1.393 . S
C1334 H1326 0.950 . S
C1334 C1332 1.391 . S
C1334 C1335 1.400 . S
C1335 C1334 1.400 . S
C1335 C1336 1.398 . S
C1335 C1341 1.491 . S
C1336 H1327 0.950 . S
C1336 C1335 1.398 . S
C1336 C1337 1.391 . S
C1337 H1325 0.950 . S
C1337 C1333 1.393 . S
C1337 C1336 1.391 . S
C1338 H1328 0.950 . S
C1338 C1339 1.386 . S
C1338 C1340 1.391 . S
C1339 C1338 1.386 . S
C1339 C1343 1.393 . S
C1340 H1329 0.950 . S
C1340 C1338 1.391 . S
C1340 C1341 1.400 . S
C1341 C1335 1.491 . S
C1341 C1340 1.400 . S
C1341 C1342 1.398 . S
C1342 H1330 0.950 . S
C1342 C1341 1.398 . S
C1342 C1343 1.391 . S
C1343 H1331 0.950 . S
C1343 C1339 1.393 . S
C1343 C1342 1.391 . S
H1344 C1352 0.950 . S
H1345 C1357 0.950 . S
H1346 C1354 0.950 . S
H1347 C1356 0.950 . S
H1348 C1358 0.950 . S
H1349 C1360 0.950 . S
H1350 C1362 0.950 . S
H1351 C1363 0.950 . S
C1352 H1344 0.950 . S
C1352 C1353 1.386 . S
C1352 C1354 1.391 . S
C1353 C1352 1.386 . S
C1353 C1357 1.393 . S
C1354 H1346 0.950 . S
C1354 C1352 1.391 . S
C1354 C1355 1.400 . S
C1355 C1354 1.400 . S
C1355 C1356 1.398 . S
C1355 C1361 1.491 . S
C1356 H1347 0.950 . S
C1356 C1355 1.398 . S
C1356 C1357 1.391 . S
C1357 H1345 0.950 . S
C1357 C1353 1.393 . S
C1357 C1356 1.391 . S
C1358 H1348 0.950 . S
C1358 C1359 1.386 . S
C1358 C1360 1.391 . S
C1359 C1358 1.386 . S
C1359 C1363 1.393 . S
C1360 H1349 0.950 . S
C1360 C1358 1.391 . S
C1360 C1361 1.400 . S
C1361 C1355 1.491 . S
C1361 C1360 1.400 . S
C1361 C1362 1.398 . S
C1362 H1350 0.950 . S
C1362 C1361 1.398 . S
C1362 C1363 1.391 . S
C1363 H1351 0.950 . S
C1363 C1359 1.393 . S
C1363 C1362 1.391 . S
H1364 C1372 0.950 . S
H1365 C1377 0.950 . S
H1366 C1374 0.950 . S
H1367 C1376 0.950 . S
H1368 C1378 0.950 . S
H1369 C1380 0.950 . S
H1370 C1382 0.950 . S
H1371 C1383 0.950 . S
C1372 H1364 0.950 . S
C1372 C1373 1.386 . S
C1372 C1374 1.391 . S
C1373 C1372 1.386 . S
C1373 C1377 1.393 . S
C1374 H1366 0.950 . S
C1374 C1372 1.391 . S
C1374 C1375 1.400 . S
C1375 C1374 1.400 . S
C1375 C1376 1.398 . S
C1375 C1381 1.491 . S
C1376 H1367 0.950 . S
C1376 C1375 1.398 . S
C1376 C1377 1.391 . S
C1377 H1365 0.950 . S
C1377 C1373 1.393 . S
C1377 C1376 1.391 . S
C1378 H1368 0.950 . S
C1378 C1379 1.386 . S
C1378 C1380 1.391 . S
C1379 C1378 1.386 . S
C1379 C1383 1.393 . S
C1380 H1369 0.950 . S
C1380 C1378 1.391 . S
C1380 C1381 1.400 . S
C1381 C1375 1.491 . S
C1381 C1380 1.400 . S
C1381 C1382 1.398 . S
C1382 H1370 0.950 . S
C1382 C1381 1.398 . S
C1382 C1383 1.391 . S
C1383 H1371 0.950 . S
C1383 C1379 1.393 . S
C1383 C1382 1.391 . S
H1384 C1392 0.950 . S
H1385 C1397 0.950 . S
H1386 C1394 0.950 . S
H1387 C1396 0.950 . S
H1388 C1398 0.950 . S
H1389 C1400 0.950 . S
H1390 C1402 0.950 . S
H1391 C1403 0.950 . S
C1392 H1384 0.950 . S
C1392 C1393 1.386 . S
C1392 C1394 1.391 . S
C1393 C1392 1.386 . S
C1393 C1397 1.393 . S
C1394 H1386 0.950 . S
C1394 C1392 1.391 . S
C1394 C1395 1.400 . S
C1395 C1394 1.400 . S
C1395 C1396 1.398 . S
C1395 C1401 1.491 . S
C1396 H1387 0.950 . S
C1396 C1395 1.398 . S
C1396 C1397 1.391 . S
C1397 H1385 0.950 . S
C1397 C1393 1.393 . S
C1397 C1396 1.391 . S
C1398 H1388 0.950 . S
C1398 C1399 1.386 . S
C1398 C1400 1.391 . S
C1399 C1398 1.386 . S
C1399 C1403 1.393 . S
C1400 H1389 0.950 . S
C1400 C1398 1.391 . S
C1400 C1401 1.400 . S
C1401 C1395 1.491 . S
C1401 C1400 1.400 . S
C1401 C1402 1.398 . S
C1402 H1390 0.950 . S
C1402 C1401 1.398 . S
C1402 C1403 1.391 . S
C1403 H1391 0.950 . S
C1403 C1399 1.393 . S
C1403 C1402 1.391 . S
H1404 C1412 0.950 . S
H1405 C1417 0.950 . S
H1406 C1414 0.950 . S
H1407 C1416 0.950 . S
H1408 C1418 0.950 . S
H1409 C1420 0.950 . S
H1410 C1422 0.950 . S
H1411 C1423 0.950 . S
C1412 H1404 0.950 . S
C1412 C1413 1.386 . S
C1412 C1414 1.391 . S
C1413 C1412 1.386 . S
C1413 C1417 1.393 . S
C1414 H1406 0.950 . S
C1414 C1412 1.391 . S
C1414 C1415 1.400 . S
C1415 C1414 1.400 . S
C1415 C1416 1.398 . S
C1415 C1421 1.491 . S
C1416 H1407 0.950 . S
C1416 C1415 1.398 . S
C1416 C1417 1.391 . S
C1417 H1405 0.950 . S
C1417 C1413 1.393 . S
C1417 C1416 1.391 . S
C1418 H1408 0.950 . S
C1418 C1419 1.386 . S
C1418 C1420 1.391 . S
C1419 C1418 1.386 . S
C1419 C1423 1.393 . S
C1420 H1409 0.950 . S
C1420 C1418 1.391 . S
C1420 C1421 1.400 . S
C1421 C1415 1.491 . S
C1421 C1420 1.400 . S
C1421 C1422 1.398 . S
C1422 H1410 0.950 . S
C1422 C1421 1.398 . S
C1422 C1423 1.391 . S
C1423 H1411 0.950 . S
C1423 C1419 1.393 . S
C1423 C1422 1.391 . S
H1424 C1432 0.950 . S
H1425 C1437 0.950 . S
H1426 C1434 0.950 . S
H1427 C1436 0.950 . S
H1428 C1438 0.950 . S
H1429 C1440 0.950 . S
H1430 C1442 0.950 . S
H1431 C1443 0.950 . S
C1432 H1424 0.950 . S
C1432 C1433 1.386 . S
C1432 C1434 1.391 . S
C1433 C1432 1.386 . S
C1433 C1437 1.393 . S
C1434 H1426 0.950 . S
C1434 C1432 1.391 . S
C1434 C1435 1.400 . S
C1435 C1434 1.400 . S
C1435 C1436 1.398 . S
C1435 C1441 1.491 . S
C1436 H1427 0.950 . S
C1436 C1435 1.398 . S
C1436 C1437 1.391 . S
C1437 H1425 0.950 . S
C1437 C1433 1.393 . S
C1437 C1436 1.391 . S
C1438 H1428 0.950 . S
C1438 C1439 1.386 . S
C1438 C1440 1.391 . S
C1439 C1438 1.386 . S
C1439 C1443 1.393 . S
C1440 H1429 0.950 . S
C1440 C1438 1.391 . S
C1440 C1441 1.400 . S
C1441 C1435 1.491 . S
C1441 C1440 1.400 . S
C1441 C1442 1.398 . S
C1442 H1430 0.950 . S
C1442 C1441 1.398 . S
C1442 C1443 1.391 . S
C1443 H1431 0.950 . S
C1443 C1439 1.393 . S
C1443 C1442 1.391 . S
H1444 C1452 0.950 . S
H1445 C1457 0.950 . S
H1446 C1454 0.950 . S
H1447 C1456 0.950 . S
H1448 C1458 0.950 . S
H1449 C1460 0.950 . S
H1450 C1462 0.950 . S
H1451 C1463 0.950 . S
C1452 H1444 0.950 . S
C1452 C1453 1.386 . S
C1452 C1454 1.391 . S
C1453 C1452 1.386 . S
C1453 C1457 1.393 . S
C1454 H1446 0.950 . S
C1454 C1452 1.391 . S
C1454 C1455 1.400 . S
C1455 C1454 1.400 . S
C1455 C1456 1.398 . S
C1455 C1461 1.491 . S
C1456 H1447 0.950 . S
C1456 C1455 1.398 . S
C1456 C1457 1.391 . S
C1457 H1445 0.950 . S
C1457 C1453 1.393 . S
C1457 C1456 1.391 . S
C1458 H1448 0.950 . S
C1458 C1459 1.386 . S
C1458 C1460 1.391 . S
C1459 C1458 1.386 . S
C1459 C1463 1.393 . S
C1460 H1449 0.950 . S
C1460 C1458 1.391 . S
C1460 C1461 1.400 . S
C1461 C1455 1.491 . S
C1461 C1460 1.400 . S
C1461 C1462 1.398 . S
C1462 H1450 0.950 . S
C1462 C1461 1.398 . S
C1462 C1463 1.391 . S
C1463 H1451 0.950 . S
C1463 C1459 1.393 . S
C1463 C1462 1.391 . S
H1464 C1472 0.950 . S
H1465 C1477 0.950 . S
H1466 C1474 0.950 . S
H1467 C1476 0.950 . S
H1468 C1478 0.950 . S
H1469 C1480 0.950 . S
H1470 C1482 0.950 . S
H1471 C1483 0.950 . S
C1472 H1464 0.950 . S
C1472 C1473 1.386 . S
C1472 C1474 1.391 . S
C1473 C1472 1.386 . S
C1473 C1477 1.393 . S
C1474 H1466 0.950 . S
C1474 C1472 1.391 . S
C1474 C1475 1.400 . S
C1475 C1474 1.400 . S
C1475 C1476 1.398 . S
C1475 C1481 1.491 . S
C1476 H1467 0.950 . S
C1476 C1475 1.398 . S
C1476 C1477 1.391 . S
C1477 H1465 0.950 . S
C1477 C1473 1.393 . S
C1477 C1476 1.391 . S
C1478 H1468 0.950 . S
C1478 C1479 1.386 . S
C1478 C1480 1.391 . S
C1479 C1478 1.386 . S
C1479 C1483 1.393 . S
C1480 H1469 0.950 . S
C1480 C1478 1.391 . S
C1480 C1481 1.400 . S
C1481 C1475 1.491 . S
C1481 C1480 1.400 . S
C1481 C1482 1.398 . S
C1482 H1470 0.950 . S
C1482 C1481 1.398 . S
C1482 C1483 1.391 . S
C1483 H1471 0.950 . S
C1483 C1479 1.393 . S
C1483 C1482 1.391 . S
H1484 C1492 0.950 . S
H1485 C1497 0.950 . S
H1486 C1494 0.950 . S
H1487 C1496 0.950 . S
H1488 C1498 0.950 . S
H1489 C1500 0.950 . S
H1490 C1502 0.950 . S
H1491 C1503 0.950 . S
C1492 H1484 0.950 . S
C1492 C1493 1.386 . S
C1492 C1494 1.391 . S
C1493 C1492 1.386 . S
C1493 C1497 1.393 . S
C1494 H1486 0.950 . S
C1494 C1492 1.391 . S
C1494 C1495 1.400 . S
C1495 C1494 1.400 . S
C1495 C1496 1.398 . S
C1495 C1501 1.491 . S
C1496 H1487 0.950 . S
C1496 C1495 1.398 . S
C1496 C1497 1.391 . S
C1497 H1485 0.950 . S
C1497 C1493 1.393 . S
C1497 C1496 1.391 . S
C1498 H1488 0.950 . S
C1498 C1499 1.386 . S
C1498 C1500 1.391 . S
C1499 C1498 1.386 . S
C1499 C1503 1.393 . S
C1500 H1489 0.950 . S
C1500 C1498 1.391 . S
C1500 C1501 1.400 . S
C1501 C1495 1.491 . S
C1501 C1500 1.400 . S
C1501 C1502 1.398 . S
C1502 H1490 0.950 . S
C1502 C1501 1.398 . S
C1502 C1503 1.391 . S
C1503 H1491 0.950 . S
C1503 C1499 1.393 . S
C1503 C1502 1.391 . S
H1504 C1512 0.950 . S
H1505 C1517 0.950 . S
H1506 C1514 0.950 . S
H1507 C1516 0.950 . S
H1508 C1518 0.950 . S
H1509 C1520 0.950 . S
H1510 C1522 0.950 . S
H1511 C1523 0.950 . S
C1512 H1504 0.950 . S
C1512 C1513 1.386 . S
C1512 C1514 1.391 . S
C1513 C1512 1.386 . S
C1513 C1517 1.393 . S
C1514 H1506 0.950 . S
C1514 C1512 1.391 . S
C1514 C1515 1.400 . S
C1515 C1514 1.400 . S
C1515 C1516 1.398 . S
C1515 C1521 1.491 . S
C1516 H1507 0.950 . S
C1516 C1515 1.398 . S
C1516 C1517 1.391 . S
C1517 H1505 0.950 . S
C1517 C1513 1.393 . S
C1517 C1516 1.391 . S
C1518 H1508 0.950 . S
C1518 C1519 1.386 . S
C1518 C1520 1.391 . S
C1519 C1518 1.386 . S
C1519 C1523 1.393 . S
C1520 H1509 0.950 . S
C1520 C1518 1.391 . S
C1520 C1521 1.400 . S
C1521 C1515 1.491 . S
C1521 C1520 1.400 . S
C1521 C1522 1.398 . S
C1522 H1510 0.950 . S
C1522 C1521 1.398 . S
C1522 C1523 1.391 . S
C1523 H1511 0.950 . S
C1523 C1519 1.393 . S
C1523 C1522 1.391 . S
H1524 C1532 0.950 . S
H1525 C1537 0.950 . S
H1526 C1534 0.950 . S
H1527 C1536 0.950 . S
H1528 C1538 0.950 . S
H1529 C1540 0.950 . S
H1530 C1542 0.950 . S
H1531 C1543 0.950 . S
C1532 H1524 0.950 . S
C1532 C1533 1.386 . S
C1532 C1534 1.391 . S
C1533 C1532 1.386 . S
C1533 C1537 1.393 . S
C1534 H1526 0.950 . S
C1534 C1532 1.391 . S
C1534 C1535 1.400 . S
C1535 C1534 1.400 . S
C1535 C1536 1.398 . S
C1535 C1541 1.491 . S
C1536 H1527 0.950 . S
C1536 C1535 1.398 . S
C1536 C1537 1.391 . S
C1537 H1525 0.950 . S
C1537 C1533 1.393 . S
C1537 C1536 1.391 . S
C1538 H1528 0.950 . S
C1538 C1539 1.386 . S
C1538 C1540 1.391 . S
C1539 C1538 1.386 . S
C1539 C1543 1.393 . S
C1540 H1529 0.950 . S
C1540 C1538 1.391 . S
C1540 C1541 1.400 . S
C1541 C1535 1.491 . S
C1541 C1540 1.400 . S
C1541 C1542 1.398 . S
C1542 H1530 0.950 . S
C1542 C1541 1.398 . S
C1542 C1543 1.391 . S
C1543 H1531 0.950 . S
C1543 C1539 1.393 . S
C1543 C1542 1.391 . S
H1544 C1552 0.950 . S
H1545 C1557 0.950 . S
H1546 C1554 0.950 . S
H1547 C1556 0.950 . S
H1548 C1558 0.950 . S
H1549 C1560 0.950 . S
H1550 C1562 0.950 . S
H1551 C1563 0.950 . S
C1552 H1544 0.950 . S
C1552 C1553 1.386 . S
C1552 C1554 1.391 . S
C1553 C1552 1.386 . S
C1553 C1557 1.393 . S
C1554 H1546 0.950 . S
C1554 C1552 1.391 . S
C1554 C1555 1.400 . S
C1555 C1554 1.400 . S
C1555 C1556 1.398 . S
C1555 C1561 1.491 . S
C1556 H1547 0.950 . S
C1556 C1555 1.398 . S
C1556 C1557 1.391 . S
C1557 H1545 0.950 . S
C1557 C1553 1.393 . S
C1557 C1556 1.391 . S
C1558 H1548 0.950 . S
C1558 C1559 1.386 . S
C1558 C1560 1.391 . S
C1559 C1558 1.386 . S
C1559 C1563 1.393 . S
C1560 H1549 0.950 . S
C1560 C1558 1.391 . S
C1560 C1561 1.400 . S
C1561 C1555 1.491 . S
C1561 C1560 1.400 . S
C1561 C1562 1.398 . S
C1562 H1550 0.950 . S
C1562 C1561 1.398 . S
C1562 C1563 1.391 . S
C1563 H1551 0.950 . S
C1563 C1559 1.393 . S
C1563 C1562 1.391 . S
H1564 C1572 0.950 . S
H1565 C1577 0.950 . S
H1566 C1574 0.950 . S
H1567 C1576 0.950 . S
H1568 C1578 0.950 . S
H1569 C1580 0.950 . S
H1570 C1582 0.950 . S
H1571 C1583 0.950 . S
C1572 H1564 0.950 . S
C1572 C1573 1.386 . S
C1572 C1574 1.391 . S
C1573 C1572 1.386 . S
C1573 C1577 1.393 . S
C1574 H1566 0.950 . S
C1574 C1572 1.391 . S
C1574 C1575 1.400 . S
C1575 C1574 1.400 . S
C1575 C1576 1.398 . S
C1575 C1581 1.491 . S
C1576 H1567 0.950 . S
C1576 C1575 1.398 . S
C1576 C1577 1.391 . S
C1577 H1565 0.950 . S
C1577 C1573 1.393 . S
C1577 C1576 1.391 . S
C1578 H1568 0.950 . S
C1578 C1579 1.386 . S
C1578 C1580 1.391 . S
C1579 C1578 1.386 . S
C1579 C1583 1.393 . S
C1580 H1569 0.950 . S
C1580 C1578 1.391 . S
C1580 C1581 1.400 . S
C1581 C1575 1.491 . S
C1581 C1580 1.400 . S
C1581 C1582 1.398 . S
C1582 H1570 0.950 . S
C1582 C1581 1.398 . S
C1582 C1583 1.391 . S
C1583 H1571 0.950 . S
C1583 C1579 1.393 . S
C1583 C1582 1.391 . S
H1584 C1592 0.950 . S
H1585 C1597 0.950 . S
H1586 C1594 0.950 . S
H1587 C1596 0.950 . S
H1588 C1598 0.950 . S
H1589 C1600 0.950 . S
H1590 C1602 0.950 . S
H1591 C1603 0.950 . S
C1592 H1584 0.950 . S
C1592 C1593 1.386 . S
C1592 C1594 1.391 . S
C1593 C1592 1.386 . S
C1593 C1597 1.393 . S
C1594 H1586 0.950 . S
C1594 C1592 1.391 . S
C1594 C1595 1.400 . S
C1595 C1594 1.400 . S
C1595 C1596 1.398 . S
C1595 C1601 1.491 . S
C1596 H1587 0.950 . S
C1596 C1595 1.398 . S
C1596 C1597 1.391 . S
C1597 H1585 0.950 . S
C1597 C1593 1.393 . S
C1597 C1596 1.391 . S
C1598 H1588 0.950 . S
C1598 C1599 1.386 . S
C1598 C1600 1.391 . S
C1599 C1598 1.386 . S
C1599 C1603 1.393 . S
C1600 H1589 0.950 . S
C1600 C1598 1.391 . S
C1600 C1601 1.400 . S
C1601 C1595 1.491 . S
C1601 C1600 1.400 . S
C1601 C1602 1.398 . S
C1602 H1590 0.950 . S
C1602 C1601 1.398 . S
C1602 C1603 1.391 . S
C1603 H1591 0.950 . S
C1603 C1599 1.393 . S
C1603 C1602 1.391 . S
H1604 C1612 0.950 . S
H1605 C1617 0.950 . S
H1606 C1614 0.950 . S
H1607 C1616 0.950 . S
H1608 C1618 0.950 . S
H1609 C1620 0.950 . S
H1610 C1622 0.950 . S
H1611 C1623 0.950 . S
C1612 H1604 0.950 . S
C1612 C1613 1.386 . S
C1612 C1614 1.391 . S
C1613 C1612 1.386 . S
C1613 C1617 1.393 . S
C1614 H1606 0.950 . S
C1614 C1612 1.391 . S
C1614 C1615 1.400 . S
C1615 C1614 1.400 . S
C1615 C1616 1.398 . S
C1615 C1621 1.491 . S
C1616 H1607 0.950 . S
C1616 C1615 1.398 . S
C1616 C1617 1.391 . S
C1617 H1605 0.950 . S
C1617 C1613 1.393 . S
C1617 C1616 1.391 . S
C1618 H1608 0.950 . S
C1618 C1619 1.386 . S
C1618 C1620 1.391 . S
C1619 C1618 1.386 . S
C1619 C1623 1.393 . S
C1620 H1609 0.950 . S
C1620 C1618 1.391 . S
C1620 C1621 1.400 . S
C1621 C1615 1.491 . S
C1621 C1620 1.400 . S
C1621 C1622 1.398 . S
C1622 H1610 0.950 . S
C1622 C1621 1.398 . S
C1622 C1623 1.391 . S
C1623 H1611 0.950 . S
C1623 C1619 1.393 . S
C1623 C1622 1.391 . S
H1624 C1632 0.950 . S
H1625 C1637 0.950 . S
H1626 C1634 0.950 . S
H1627 C1636 0.950 . S
H1628 C1638 0.950 . S
H1629 C1640 0.950 . S
H1630 C1642 0.950 . S
H1631 C1643 0.950 . S
C1632 H1624 0.950 . S
C1632 C1633 1.386 . S
C1632 C1634 1.391 . S
C1633 C1632 1.386 . S
C1633 C1637 1.393 . S
C1634 H1626 0.950 . S
C1634 C1632 1.391 . S
C1634 C1635 1.400 . S
C1635 C1634 1.400 . S
C1635 C1636 1.398 . S
C1635 C1641 1.491 . S
C1636 H1627 0.950 . S
C1636 C1635 1.398 . S
C1636 C1637 1.391 . S
C1637 H1625 0.950 . S
C1637 C1633 1.393 . S
C1637 C1636 1.391 . S
C1638 H1628 0.950 . S
C1638 C1639 1.386 . S
C1638 C1640 1.391 . S
C1639 C1638 1.386 . S
C1639 C1643 1.393 . S
C1640 H1629 0.950 . S
C1640 C1638 1.391 . S
C1640 C1641 1.400 . S
C1641 C1635 1.491 . S
C1641 C1640 1.400 . S
C1641 C1642 1.398 . S
C1642 H1630 0.950 . S
C1642 C1641 1.398 . S
C1642 C1643 1.391 . S
C1643 H1631 0.950 . S
C1643 C1639 1.393 . S
C1643 C1642 1.391 . S
H1644 C1652 0.950 . S
H1645 C1657 0.950 . S
H1646 C1654 0.950 . S
H1647 C1656 0.950 . S
H1648 C1658 0.950 . S
H1649 C1660 0.950 . S
H1650 C1662 0.950 . S
H1651 C1663 0.950 . S
C1652 H1644 0.950 . S
C1652 C1653 1.386 . S
C1652 C1654 1.391 . S
C1653 C1652 1.386 . S
C1653 C1657 1.393 . S
C1654 H1646 0.950 . S
C1654 C1652 1.391 . S
C1654 C1655 1.400 . S
C1655 C1654 1.400 . S
C1655 C1656 1.398 . S
C1655 C1661 1.491 . S
C1656 H1647 0.950 . S
C1656 C1655 1.398 . S
C1656 C1657 1.391 . S
C1657 H1645 0.950 . S
C1657 C1653 1.393 . S
C1657 C1656 1.391 . S
C1658 H1648 0.950 . S
C1658 C1659 1.386 . S
C1658 C1660 1.391 . S
C1659 C1658 1.386 . S
C1659 C1663 1.393 . S
C1660 H1649 0.950 . S
C1660 C1658 1.391 . S
C1660 C1661 1.400 . S
C1661 C1655 1.491 . S
C1661 C1660 1.400 . S
C1661 C1662 1.398 . S
C1662 H1650 0.950 . S
C1662 C1661 1.398 . S
C1662 C1663 1.391 . S
C1663 H1651 0.950 . S
C1663 C1659 1.393 . S
C1663 C1662 1.391 . S
H1664 C1672 0.950 . S
H1665 C1677 0.950 . S
H1666 C1674 0.950 . S
H1667 C1676 0.950 . S
H1668 C1678 0.950 . S
H1669 C1680 0.950 . S
H1670 C1682 0.950 . S
H1671 C1683 0.950 . S
C1672 H1664 0.950 . S
C1672 C1673 1.386 . S
C1672 C1674 1.391 . S
C1673 C1672 1.386 . S
C1673 C1677 1.393 . S
C1674 H1666 0.950 . S
C1674 C1672 1.391 . S
C1674 C1675 1.400 . S
C1675 C1674 1.400 . S
C1675 C1676 1.398 . S
C1675 C1681 1.491 1_565 S
C1676 H1667 0.950 . S
C1676 C1675 1.398 . S
C1676 C1677 1.391 . S
C1677 H1665 0.950 . S
C1677 C1673 1.393 . S
C1677 C1676 1.391 . S
C1678 H1668 0.950 . S
C1678 C1679 1.386 . S
C1678 C1680 1.391 . S
C1679 C1678 1.386 . S
C1679 C1683 1.393 . S
C1680 H1669 0.950 . S
C1680 C1678 1.391 . S
C1680 C1681 1.400 . S
C1681 C1675 1.491 1_545 S
C1681 C1680 1.400 . S
C1681 C1682 1.398 . S
C1682 H1670 0.950 . S
C1682 C1681 1.398 . S
C1682 C1683 1.391 . S
C1683 H1671 0.950 . S
C1683 C1679 1.393 . S
C1683 C1682 1.391 . S
H1684 C1692 0.950 . S
H1685 C1697 0.950 . S
H1686 C1694 0.950 . S
H1687 C1696 0.950 . S
H1688 C1698 0.950 . S
H1689 C1700 0.950 . S
H1690 C1702 0.950 . S
H1691 C1703 0.950 . S
C1692 H1684 0.950 . S
C1692 C1693 1.386 . S
C1692 C1694 1.391 . S
C1693 C1692 1.386 . S
C1693 C1697 1.393 . S
C1694 H1686 0.950 . S
C1694 C1692 1.391 . S
C1694 C1695 1.400 . S
C1695 C1694 1.400 . S
C1695 C1696 1.398 . S
C1695 C1701 1.491 1_655 S
C1696 H1687 0.950 . S
C1696 C1695 1.398 . S
C1696 C1697 1.391 . S
C1697 H1685 0.950 . S
C1697 C1693 1.393 . S
C1697 C1696 1.391 . S
C1698 H1688 0.950 . S
C1698 C1699 1.386 . S
C1698 C1700 1.391 . S
C1699 C1698 1.386 . S
C1699 C1703 1.393 . S
C1700 H1689 0.950 . S
C1700 C1698 1.391 . S
C1700 C1701 1.400 . S
C1701 C1695 1.491 1_455 S
C1701 C1700 1.400 . S
C1701 C1702 1.398 . S
C1702 H1690 0.950 . S
C1702 C1701 1.398 . S
C1702 C1703 1.391 . S
C1703 H1691 0.950 . S
C1703 C1699 1.393 . S
C1703 C1702 1.391 . S
H1704 C1712 0.950 . S
H1705 C1717 0.950 . S
H1706 C1714 0.950 . S
H1707 C1716 0.950 . S
H1708 C1718 0.950 . S
H1709 C1720 0.950 . S
H1710 C1722 0.950 . S
H1711 C1723 0.950 . S
C1712 H1704 0.950 . S
C1712 C1713 1.386 . S
C1712 C1714 1.391 . S
C1713 C1712 1.386 . S
C1713 C1717 1.393 . S
C1714 H1706 0.950 . S
C1714 C1712 1.391 . S
C1714 C1715 1.400 . S
C1715 C1714 1.400 . S
C1715 C1716 1.398 . S
C1715 C1721 1.491 1_545 S
C1716 H1707 0.950 . S
C1716 C1715 1.398 . S
C1716 C1717 1.391 . S
C1717 H1705 0.950 . S
C1717 C1713 1.393 . S
C1717 C1716 1.391 . S
C1718 H1708 0.950 . S
C1718 C1719 1.386 . S
C1718 C1720 1.391 . S
C1719 C1718 1.386 . S
C1719 C1723 1.393 . S
C1720 H1709 0.950 . S
C1720 C1718 1.391 . S
C1720 C1721 1.400 . S
C1721 C1715 1.491 1_565 S
C1721 C1720 1.400 . S
C1721 C1722 1.398 . S
C1722 H1710 0.950 . S
C1722 C1721 1.398 . S
C1722 C1723 1.391 . S
C1723 H1711 0.950 . S
C1723 C1719 1.393 . S
C1723 C1722 1.391 . S
H1724 C1732 0.950 . S
H1725 C1737 0.950 . S
H1726 C1734 0.950 . S
H1727 C1736 0.950 . S
H1728 C1738 0.950 . S
H1729 C1740 0.950 . S
H1730 C1742 0.950 . S
H1731 C1743 0.950 . S
C1732 H1724 0.950 . S
C1732 C1733 1.386 . S
C1732 C1734 1.391 . S
C1733 C1732 1.386 . S
C1733 C1737 1.393 . S
C1734 H1726 0.950 . S
C1734 C1732 1.391 . S
C1734 C1735 1.400 . S
C1735 C1734 1.400 . S
C1735 C1736 1.398 . S
C1735 C1741 1.491 1_655 S
C1736 H1727 0.950 . S
C1736 C1735 1.398 . S
C1736 C1737 1.391 . S
C1737 H1725 0.950 . S
C1737 C1733 1.393 . S
C1737 C1736 1.391 . S
C1738 H1728 0.950 . S
C1738 C1739 1.386 . S
C1738 C1740 1.391 . S
C1739 C1738 1.386 . S
C1739 C1743 1.393 . S
C1740 H1729 0.950 . S
C1740 C1738 1.391 . S
C1740 C1741 1.400 . S
C1741 C1735 1.491 1_455 S
C1741 C1740 1.400 . S
C1741 C1742 1.398 . S
C1742 H1730 0.950 . S
C1742 C1741 1.398 . S
C1742 C1743 1.391 . S
C1743 H1731 0.950 . S
C1743 C1739 1.393 . S
C1743 C1742 1.391 . S
H1744 C1752 0.950 . S
H1745 C1757 0.950 . S
H1746 C1754 0.950 . S
H1747 C1756 0.950 . S
H1748 C1758 0.950 . S
H1749 C1760 0.950 . S
H1750 C1762 0.950 . S
H1751 C1763 0.950 . S
C1752 H1744 0.950 . S
C1752 C1753 1.386 . S
C1752 C1754 1.391 . S
C1753 C1752 1.386 . S
C1753 C1757 1.393 . S
C1754 H1746 0.950 . S
C1754 C1752 1.391 . S
C1754 C1755 1.400 . S
C1755 C1754 1.400 . S
C1755 C1756 1.398 . S
C1755 C1761 1.491 1_545 S
C1756 H1747 0.950 . S
C1756 C1755 1.398 . S
C1756 C1757 1.391 . S
C1757 H1745 0.950 . S
C1757 C1753 1.393 . S
C1757 C1756 1.391 . S
C1758 H1748 0.950 . S
C1758 C1759 1.386 . S
C1758 C1760 1.391 . S
C1759 C1758 1.386 . S
C1759 C1763 1.393 . S
C1760 H1749 0.950 . S
C1760 C1758 1.391 . S
C1760 C1761 1.400 . S
C1761 C1755 1.491 1_565 S
C1761 C1760 1.400 . S
C1761 C1762 1.398 . S
C1762 H1750 0.950 . S
C1762 C1761 1.398 . S
C1762 C1763 1.391 . S
C1763 H1751 0.950 . S
C1763 C1759 1.393 . S
C1763 C1762 1.391 . S
H1764 C1772 0.950 . S
H1765 C1777 0.950 . S
H1766 C1774 0.950 . S
H1767 C1776 0.950 . S
H1768 C1778 0.950 . S
H1769 C1780 0.950 . S
H1770 C1782 0.950 . S
H1771 C1783 0.950 . S
C1772 H1764 0.950 . S
C1772 C1773 1.386 . S
C1772 C1774 1.391 . S
C1773 C1772 1.386 . S
C1773 C1777 1.393 . S
C1774 H1766 0.950 . S
C1774 C1772 1.391 . S
C1774 C1775 1.400 . S
C1775 C1774 1.400 . S
C1775 C1776 1.398 . S
C1775 C1781 1.491 1_655 S
C1776 H1767 0.950 . S
C1776 C1775 1.398 . S
C1776 C1777 1.391 . S
C1777 H1765 0.950 . S
C1777 C1773 1.393 . S
C1777 C1776 1.391 . S
C1778 H1768 0.950 . S
C1778 C1779 1.386 . S
C1778 C1780 1.391 . S
C1779 C1778 1.386 . S
C1779 C1783 1.393 . S
C1780 H1769 0.950 . S
C1780 C1778 1.391 . S
C1780 C1781 1.400 . S
C1781 C1775 1.491 1_455 S
C1781 C1780 1.400 . S
C1781 C1782 1.398 . S
C1782 H1770 0.950 . S
C1782 C1781 1.398 . S
C1782 C1783 1.391 . S
C1783 H1771 0.950 . S
C1783 C1779 1.393 . S
C1783 C1782 1.391 . S
H1784 C1792 0.950 . S
H1785 C1797 0.950 . S
H1786 C1794 0.950 . S
H1787 C1796 0.950 . S
H1788 C1798 0.950 . S
H1789 C1800 0.950 . S
H1790 C1802 0.950 . S
H1791 C1803 0.950 . S
C1792 H1784 0.950 . S
C1792 C1793 1.386 . S
C1792 C1794 1.391 . S
C1793 C1792 1.386 . S
C1793 C1797 1.393 . S
C1794 H1786 0.950 . S
C1794 C1792 1.391 . S
C1794 C1795 1.400 . S
C1795 C1794 1.400 . S
C1795 C1796 1.398 . S
C1795 C1801 1.491 1_545 S
C1796 H1787 0.950 . S
C1796 C1795 1.398 . S
C1796 C1797 1.391 . S
C1797 H1785 0.950 . S
C1797 C1793 1.393 . S
C1797 C1796 1.391 . S
C1798 H1788 0.950 . S
C1798 C1799 1.386 . S
C1798 C1800 1.391 . S
C1799 C1798 1.386 . S
C1799 C1803 1.393 . S
C1800 H1789 0.950 . S
C1800 C1798 1.391 . S
C1800 C1801 1.400 . S
C1801 C1795 1.491 1_565 S
C1801 C1800 1.400 . S
C1801 C1802 1.398 . S
C1802 H1790 0.950 . S
C1802 C1801 1.398 . S
C1802 C1803 1.391 . S
C1803 H1791 0.950 . S
C1803 C1799 1.393 . S
C1803 C1802 1.391 . S
H1804 C1812 0.950 . S
H1805 C1817 0.950 . S
H1806 C1814 0.950 . S
H1807 C1816 0.950 . S
H1808 C1818 0.950 . S
H1809 C1820 0.950 . S
H1810 C1822 0.950 . S
H1811 C1823 0.950 . S
C1812 H1804 0.950 . S
C1812 C1813 1.386 . S
C1812 C1814 1.391 . S
C1813 C1812 1.386 . S
C1813 C1817 1.393 . S
C1814 H1806 0.950 . S
C1814 C1812 1.391 . S
C1814 C1815 1.400 . S
C1815 C1814 1.400 . S
C1815 C1816 1.398 . S
C1815 C1821 1.491 1_655 S
C1816 H1807 0.950 . S
C1816 C1815 1.398 . S
C1816 C1817 1.391 . S
C1817 H1805 0.950 . S
C1817 C1813 1.393 . S
C1817 C1816 1.391 . S
C1818 H1808 0.950 . S
C1818 C1819 1.386 . S
C1818 C1820 1.391 . S
C1819 C1818 1.386 . S
C1819 C1823 1.393 . S
C1820 H1809 0.950 . S
C1820 C1818 1.391 . S
C1820 C1821 1.400 . S
C1821 C1815 1.491 1_455 S
C1821 C1820 1.400 . S
C1821 C1822 1.398 . S
C1822 H1810 0.950 . S
C1822 C1821 1.398 . S
C1822 C1823 1.391 . S
C1823 H1811 0.950 . S
C1823 C1819 1.393 . S
C1823 C1822 1.391 . S
H1824 C1832 0.950 . S
H1825 C1837 0.950 . S
H1826 C1834 0.950 . S
H1827 C1836 0.950 . S
H1828 C1838 0.950 . S
H1829 C1840 0.950 . S
H1830 C1842 0.950 . S
H1831 C1843 0.950 . S
C1832 H1824 0.950 . S
C1832 C1833 1.386 . S
C1832 C1834 1.391 . S
C1833 C1832 1.386 . S
C1833 C1837 1.393 . S
C1834 H1826 0.950 . S
C1834 C1832 1.391 . S
C1834 C1835 1.400 . S
C1835 C1834 1.400 . S
C1835 C1836 1.398 . S
C1835 C1841 1.491 1_554 S
C1836 H1827 0.950 . S
C1836 C1835 1.398 . S
C1836 C1837 1.391 . S
C1837 H1825 0.950 . S
C1837 C1833 1.393 . S
C1837 C1836 1.391 . S
C1838 H1828 0.950 . S
C1838 C1839 1.386 . S
C1838 C1840 1.391 . S
C1839 C1838 1.386 . S
C1839 C1843 1.393 . S
C1840 H1829 0.950 . S
C1840 C1838 1.391 . S
C1840 C1841 1.400 . S
C1841 C1835 1.491 1_556 S
C1841 C1840 1.400 . S
C1841 C1842 1.398 . S
C1842 H1830 0.950 . S
C1842 C1841 1.398 . S
C1842 C1843 1.391 . S
C1843 H1831 0.950 . S
C1843 C1839 1.393 . S
C1843 C1842 1.391 . S
H1844 C1852 0.950 . S
H1845 C1857 0.950 . S
H1846 C1854 0.950 . S
H1847 C1856 0.950 . S
H1848 C1858 0.950 . S
H1849 C1860 0.950 . S
H1850 C1862 0.950 . S
H1851 C1863 0.950 . S
C1852 H1844 0.950 . S
C1852 C1853 1.386 . S
C1852 C1854 1.391 . S
C1853 C1852 1.386 . S
C1853 C1857 1.393 . S
C1854 H1846 0.950 . S
C1854 C1852 1.391 . S
C1854 C1855 1.400 . S
C1855 C1854 1.400 . S
C1855 C1856 1.398 . S
C1855 C1861 1.491 1_556 S
C1856 H1847 0.950 . S
C1856 C1855 1.398 . S
C1856 C1857 1.391 . S
C1857 H1845 0.950 . S
C1857 C1853 1.393 . S
C1857 C1856 1.391 . S
C1858 H1848 0.950 . S
C1858 C1859 1.386 . S
C1858 C1860 1.391 . S
C1859 C1858 1.386 . S
C1859 C1863 1.393 . S
C1860 H1849 0.950 . S
C1860 C1858 1.391 . S
C1860 C1861 1.400 . S
C1861 C1855 1.491 1_554 S
C1861 C1860 1.400 . S
C1861 C1862 1.398 . S
C1862 H1850 0.950 . S
C1862 C1861 1.398 . S
C1862 C1863 1.391 . S
C1863 H1851 0.950 . S
C1863 C1859 1.393 . S
C1863 C1862 1.391 . S
H1864 C1872 0.950 . S
H1865 C1877 0.950 . S
H1866 C1874 0.950 . S
H1867 C1876 0.950 . S
H1868 C1878 0.950 . S
H1869 C1880 0.950 . S
H1870 C1882 0.950 . S
H1871 C1883 0.950 . S
C1872 H1864 0.950 . S
C1872 C1873 1.386 . S
C1872 C1874 1.391 . S
C1873 C1872 1.386 . S
C1873 C1877 1.393 . S
C1874 H1866 0.950 . S
C1874 C1872 1.391 . S
C1874 C1875 1.400 . S
C1875 C1874 1.400 . S
C1875 C1876 1.398 . S
C1875 C1881 1.491 1_556 S
C1876 H1867 0.950 . S
C1876 C1875 1.398 . S
C1876 C1877 1.391 . S
C1877 H1865 0.950 . S
C1877 C1873 1.393 . S
C1877 C1876 1.391 . S
C1878 H1868 0.950 . S
C1878 C1879 1.386 . S
C1878 C1880 1.391 . S
C1879 C1878 1.386 . S
C1879 C1883 1.393 . S
C1880 H1869 0.950 . S
C1880 C1878 1.391 . S
C1880 C1881 1.400 . S
C1881 C1875 1.491 1_554 S
C1881 C1880 1.400 . S
C1881 C1882 1.398 . S
C1882 H1870 0.950 . S
C1882 C1881 1.398 . S
C1882 C1883 1.391 . S
C1883 H1871 0.950 . S
C1883 C1879 1.393 . S
C1883 C1882 1.391 . S
H1884 C1892 0.950 . S
H1885 C1897 0.950 . S
H1886 C1894 0.950 . S
H1887 C1896 0.950 . S
H1888 C1898 0.950 . S
H1889 C1900 0.950 . S
H1890 C1902 0.950 . S
H1891 C1903 0.950 . S
C1892 H1884 0.950 . S
C1892 C1893 1.386 . S
C1892 C1894 1.391 . S
C1893 C1892 1.386 . S
C1893 C1897 1.393 . S
C1894 H1886 0.950 . S
C1894 C1892 1.391 . S
C1894 C1895 1.400 . S
C1895 C1894 1.400 . S
C1895 C1896 1.398 . S
C1895 C1901 1.491 1_554 S
C1896 H1887 0.950 . S
C1896 C1895 1.398 . S
C1896 C1897 1.391 . S
C1897 H1885 0.950 . S
C1897 C1893 1.393 . S
C1897 C1896 1.391 . S
C1898 H1888 0.950 . S
C1898 C1899 1.386 . S
C1898 C1900 1.391 . S
C1899 C1898 1.386 . S
C1899 C1903 1.393 . S
C1900 H1889 0.950 . S
C1900 C1898 1.391 . S
C1900 C1901 1.400 . S
C1901 C1895 1.491 1_556 S
C1901 C1900 1.400 . S
C1901 C1902 1.398 . S
C1902 H1890 0.950 . S
C1902 C1901 1.398 . S
C1902 C1903 1.391 . S
C1903 H1891 0.950 . S
C1903 C1899 1.393 . S
C1903 C1902 1.391 . S
H1904 C1912 0.950 . S
H1905 C1917 0.950 . S
H1906 C1914 0.950 . S
H1907 C1916 0.950 . S
H1908 C1918 0.950 . S
H1909 C1920 0.950 . S
H1910 C1922 0.950 . S
H1911 C1923 0.950 . S
C1912 H1904 0.950 . S
C1912 C1913 1.386 . S
C1912 C1914 1.391 . S
C1913 C1912 1.386 . S
C1913 C1917 1.393 . S
C1914 H1906 0.950 . S
C1914 C1912 1.391 . S
C1914 C1915 1.400 . S
C1915 C1914 1.400 . S
C1915 C1916 1.398 . S
C1915 C1921 1.491 1_556 S
C1916 H1907 0.950 . S
C1916 C1915 1.398 . S
C1916 C1917 1.391 . S
C1917 H1905 0.950 . S
C1917 C1913 1.393 . S
C1917 C1916 1.391 . S
C1918 H1908 0.950 . S
C1918 C1919 1.386 . S
C1918 C1920 1.391 . S
C1919 C1918 1.386 . S
C1919 C1923 1.393 . S
C1920 H1909 0.950 . S
C1920 C1918 1.391 . S
C1920 C1921 1.400 . S
C1921 C1915 1.491 1_554 S
C1921 C1920 1.400 . S
C1921 C1922 1.398 . S
C1922 H1910 0.950 . S
C1922 C1921 1.398 . S
C1922 C1923 1.391 . S
C1923 H1911 0.950 . S
C1923 C1919 1.393 . S
C1923 C1922 1.391 . S
H1924 C1932 0.950 . S
H1925 C1937 0.950 . S
H1926 C1934 0.950 . S
H1927 C1936 0.950 . S
H1928 C1938 0.950 . S
H1929 C1940 0.950 . S
H1930 C1942 0.950 . S
H1931 C1943 0.950 . S
C1932 H1924 0.950 . S
C1932 C1933 1.386 . S
C1932 C1934 1.391 . S
C1933 C1932 1.386 . S
C1933 C1937 1.393 . S
C1934 H1926 0.950 . S
C1934 C1932 1.391 . S
C1934 C1935 1.400 . S
C1935 C1934 1.400 . S
C1935 C1936 1.398 . S
C1935 C1941 1.491 1_554 S
C1936 H1927 0.950 . S
C1936 C1935 1.398 . S
C1936 C1937 1.391 . S
C1937 H1925 0.950 . S
C1937 C1933 1.393 . S
C1937 C1936 1.391 . S
C1938 H1928 0.950 . S
C1938 C1939 1.386 . S
C1938 C1940 1.391 . S
C1939 C1938 1.386 . S
C1939 C1943 1.393 . S
C1940 H1929 0.950 . S
C1940 C1938 1.391 . S
C1940 C1941 1.400 . S
C1941 C1935 1.491 1_556 S
C1941 C1940 1.400 . S
C1941 C1942 1.398 . S
C1942 H1930 0.950 . S
C1942 C1941 1.398 . S
C1942 C1943 1.391 . S
C1943 H1931 0.950 . S
C1943 C1939 1.393 . S
C1943 C1942 1.391 . S
H1944 C1952 0.950 . S
H1945 C1957 0.950 . S
H1946 C1954 0.950 . S
H1947 C1956 0.950 . S
H1948 C1958 0.950 . S
H1949 C1960 0.950 . S
H1950 C1962 0.950 . S
H1951 C1963 0.950 . S
C1952 H1944 0.950 . S
C1952 C1953 1.386 . S
C1952 C1954 1.391 . S
C1953 C1952 1.386 . S
C1953 C1957 1.393 . S
C1954 H1946 0.950 . S
C1954 C1952 1.391 . S
C1954 C1955 1.400 . S
C1955 C1954 1.400 . S
C1955 C1956 1.398 . S
C1955 C1961 1.491 1_554 S
C1956 H1947 0.950 . S
C1956 C1955 1.398 . S
C1956 C1957 1.391 . S
C1957 H1945 0.950 . S
C1957 C1953 1.393 . S
C1957 C1956 1.391 . S
C1958 H1948 0.950 . S
C1958 C1959 1.386 . S
C1958 C1960 1.391 . S
C1959 C1958 1.386 . S
C1959 C1963 1.393 . S
C1960 H1949 0.950 . S
C1960 C1958 1.391 . S
C1960 C1961 1.400 . S
C1961 C1955 1.491 1_556 S
C1961 C1960 1.400 . S
C1961 C1962 1.398 . S
C1962 H1950 0.950 . S
C1962 C1961 1.398 . S
C1962 C1963 1.391 . S
C1963 H1951 0.950 . S
C1963 C1959 1.393 . S
C1963 C1962 1.391 . S
H1964 C1972 0.950 . S
H1965 C1977 0.950 . S
H1966 C1974 0.950 . S
H1967 C1976 0.950 . S
H1968 C1978 0.950 . S
H1969 C1980 0.950 . S
H1970 C1982 0.950 . S
H1971 C1983 0.950 . S
C1972 H1964 0.950 . S
C1972 C1973 1.386 . S
C1972 C1974 1.391 . S
C1973 C1972 1.386 . S
C1973 C1977 1.393 . S
C1974 H1966 0.950 . S
C1974 C1972 1.391 . S
C1974 C1975 1.400 . S
C1975 C1974 1.400 . S
C1975 C1976 1.398 . S
C1975 C1981 1.491 1_556 S
C1976 H1967 0.950 . S
C1976 C1975 1.398 . S
C1976 C1977 1.391 . S
C1977 H1965 0.950 . S
C1977 C1973 1.393 . S
C1977 C1976 1.391 . S
C1978 H1968 0.950 . S
C1978 C1979 1.386 . S
C1978 C1980 1.391 . S
C1979 C1978 1.386 . S
C1979 C1983 1.393 . S
C1980 H1969 0.950 . S
C1980 C1978 1.391 . S
C1980 C1981 1.400 . S
C1981 C1975 1.491 1_554 S
C1981 C1980 1.400 . S
C1981 C1982 1.398 . S
C1982 H1970 0.950 . S
C1982 C1981 1.398 . S
C1982 C1983 1.391 . S
C1983 H1971 0.950 . S
C1983 C1979 1.393 . S
C1983 C1982 1.391 . S
H1984 C1992 0.950 . S
H1985 C1997 0.950 . S
H1986 C1994 0.950 . S
H1987 C1996 0.950 . S
H1988 C1998 0.950 . S
H1989 C2000 0.950 . S
H1990 C2002 0.950 . S
H1991 C2003 0.950 . S
C1992 H1984 0.950 . S
C1992 C1993 1.386 . S
C1992 C1994 1.391 . S
C1993 C1992 1.386 . S
C1993 C1997 1.393 . S
C1994 H1986 0.950 . S
C1994 C1992 1.391 . S
C1994 C1995 1.400 . S
C1995 C1994 1.400 . S
C1995 C1996 1.398 . S
C1995 C2001 1.491 1_455 S
C1996 H1987 0.950 . S
C1996 C1995 1.398 . S
C1996 C1997 1.391 . S
C1997 H1985 0.950 . S
C1997 C1993 1.393 . S
C1997 C1996 1.391 . S
C1998 H1988 0.950 . S
C1998 C1999 1.386 . S
C1998 C2000 1.391 . S
C1999 C1998 1.386 . S
C1999 C2003 1.393 . S
C2000 H1989 0.950 . S
C2000 C1998 1.391 . S
C2000 C2001 1.400 . S
C2001 C1995 1.491 1_655 S
C2001 C2000 1.400 . S
C2001 C2002 1.398 . S
C2002 H1990 0.950 . S
C2002 C2001 1.398 . S
C2002 C2003 1.391 . S
C2003 H1991 0.950 . S
C2003 C1999 1.393 . S
C2003 C2002 1.391 . S
H2004 C2012 0.950 . S
H2005 C2017 0.950 . S
H2006 C2014 0.950 . S
H2007 C2016 0.950 . S
H2008 C2018 0.950 . S
H2009 C2020 0.950 . S
H2010 C2022 0.950 . S
H2011 C2023 0.950 . S
C2012 H2004 0.950 . S
C2012 C2013 1.386 . S
C2012 C2014 1.391 . S
C2013 C2012 1.386 . S
C2013 C2017 1.393 . S
C2014 H2006 0.950 . S
C2014 C2012 1.391 . S
C2014 C2015 1.400 . S
C2015 C2014 1.400 . S
C2015 C2016 1.398 . S
C2015 C2021 1.491 1_455 S
C2016 H2007 0.950 . S
C2016 C2015 1.398 . S
C2016 C2017 1.391 . S
C2017 H2005 0.950 . S
C2017 C2013 1.393 . S
C2017 C2016 1.391 . S
C2018 H2008 0.950 . S
C2018 C2019 1.386 . S
C2018 C2020 1.391 . S
C2019 C2018 1.386 . S
C2019 C2023 1.393 . S
C2020 H2009 0.950 . S
C2020 C2018 1.391 . S
C2020 C2021 1.400 . S
C2021 C2015 1.491 1_655 S
C2021 C2020 1.400 . S
C2021 C2022 1.398 . S
C2022 H2010 0.950 . S
C2022 C2021 1.398 . S
C2022 C2023 1.391 . S
C2023 H2011 0.950 . S
C2023 C2019 1.393 . S
C2023 C2022 1.391 . S
H2024 C2032 0.950 . S
H2025 C2037 0.950 . S
H2026 C2034 0.950 . S
H2027 C2036 0.950 . S
H2028 C2038 0.950 . S
H2029 C2040 0.950 . S
H2030 C2042 0.950 . S
H2031 C2043 0.950 . S
C2032 H2024 0.950 . S
C2032 C2033 1.386 . S
C2032 C2034 1.391 . S
C2033 C2032 1.386 . S
C2033 C2037 1.393 . S
C2034 H2026 0.950 . S
C2034 C2032 1.391 . S
C2034 C2035 1.400 . S
C2035 C2034 1.400 . S
C2035 C2036 1.398 . S
C2035 C2041 1.491 1_565 S
C2036 H2027 0.950 . S
C2036 C2035 1.398 . S
C2036 C2037 1.391 . S
C2037 H2025 0.950 . S
C2037 C2033 1.393 . S
C2037 C2036 1.391 . S
C2038 H2028 0.950 . S
C2038 C2039 1.386 . S
C2038 C2040 1.391 . S
C2039 C2038 1.386 . S
C2039 C2043 1.393 . S
C2040 H2029 0.950 . S
C2040 C2038 1.391 . S
C2040 C2041 1.400 . S
C2041 C2035 1.491 1_545 S
C2041 C2040 1.400 . S
C2041 C2042 1.398 . S
C2042 H2030 0.950 . S
C2042 C2041 1.398 . S
C2042 C2043 1.391 . S
C2043 H2031 0.950 . S
C2043 C2039 1.393 . S
C2043 C2042 1.391 . S
H2044 C2052 0.950 . S
H2045 C2057 0.950 . S
H2046 C2054 0.950 . S
H2047 C2056 0.950 . S
H2048 C2058 0.950 . S
H2049 C2060 0.950 . S
H2050 C2062 0.950 . S
H2051 C2063 0.950 . S
C2052 H2044 0.950 . S
C2052 C2053 1.386 . S
C2052 C2054 1.391 . S
C2053 C2052 1.386 . S
C2053 C2057 1.393 . S
C2054 H2046 0.950 . S
C2054 C2052 1.391 . S
C2054 C2055 1.400 . S
C2055 C2054 1.400 . S
C2055 C2056 1.398 . S
C2055 C2061 1.491 1_455 S
C2056 H2047 0.950 . S
C2056 C2055 1.398 . S
C2056 C2057 1.391 . S
C2057 H2045 0.950 . S
C2057 C2053 1.393 . S
C2057 C2056 1.391 . S
C2058 H2048 0.950 . S
C2058 C2059 1.386 . S
C2058 C2060 1.391 . S
C2059 C2058 1.386 . S
C2059 C2063 1.393 . S
C2060 H2049 0.950 . S
C2060 C2058 1.391 . S
C2060 C2061 1.400 . S
C2061 C2055 1.491 1_655 S
C2061 C2060 1.400 . S
C2061 C2062 1.398 . S
C2062 H2050 0.950 . S
C2062 C2061 1.398 . S
C2062 C2063 1.391 . S
C2063 H2051 0.950 . S
C2063 C2059 1.393 . S
C2063 C2062 1.391 . S
H2064 C2072 0.950 . S
H2065 C2077 0.950 . S
H2066 C2074 0.950 . S
H2067 C2076 0.950 . S
H2068 C2078 0.950 . S
H2069 C2080 0.950 . S
H2070 C2082 0.950 . S
H2071 C2083 0.950 . S
C2072 H2064 0.950 . S
C2072 C2073 1.386 . S
C2072 C2074 1.391 . S
C2073 C2072 1.386 . S
C2073 C2077 1.393 . S
C2074 H2066 0.950 . S
C2074 C2072 1.391 . S
C2074 C2075 1.400 . S
C2075 C2074 1.400 . S
C2075 C2076 1.398 . S
C2075 C2081 1.491 1_565 S
C2076 H2067 0.950 . S
C2076 C2075 1.398 . S
C2076 C2077 1.391 . S
C2077 H2065 0.950 . S
C2077 C2073 1.393 . S
C2077 C2076 1.391 . S
C2078 H2068 0.950 . S
C2078 C2079 1.386 . S
C2078 C2080 1.391 . S
C2079 C2078 1.386 . S
C2079 C2083 1.393 . S
C2080 H2069 0.950 . S
C2080 C2078 1.391 . S
C2080 C2081 1.400 . S
C2081 C2075 1.491 1_545 S
C2081 C2080 1.400 . S
C2081 C2082 1.398 . S
C2082 H2070 0.950 . S
C2082 C2081 1.398 . S
C2082 C2083 1.391 . S
C2083 H2071 0.950 . S
C2083 C2079 1.393 . S
C2083 C2082 1.391 . S
H2084 C2092 0.950 . S
H2085 C2097 0.950 . S
H2086 C2094 0.950 . S
H2087 C2096 0.950 . S
H2088 C2098 0.950 . S
H2089 C2100 0.950 . S
H2090 C2102 0.950 . S
H2091 C2103 0.950 . S
C2092 H2084 0.950 . S
C2092 C2093 1.386 . S
C2092 C2094 1.391 . S
C2093 C2092 1.386 . S
C2093 C2097 1.393 . S
C2094 H2086 0.950 . S
C2094 C2092 1.391 . S
C2094 C2095 1.400 . S
C2095 C2094 1.400 . S
C2095 C2096 1.398 . S
C2095 C2101 1.491 1_655 S
C2096 H2087 0.950 . S
C2096 C2095 1.398 . S
C2096 C2097 1.391 . S
C2097 H2085 0.950 . S
C2097 C2093 1.393 . S
C2097 C2096 1.391 . S
C2098 H2088 0.950 . S
C2098 C2099 1.386 . S
C2098 C2100 1.391 . S
C2099 C2098 1.386 . S
C2099 C2103 1.393 . S
C2100 H2089 0.950 . S
C2100 C2098 1.391 . S
C2100 C2101 1.400 . S
C2101 C2095 1.491 1_455 S
C2101 C2100 1.400 . S
C2101 C2102 1.398 . S
C2102 H2090 0.950 . S
C2102 C2101 1.398 . S
C2102 C2103 1.391 . S
C2103 H2091 0.950 . S
C2103 C2099 1.393 . S
C2103 C2102 1.391 . S
H2104 C2112 0.950 . S
H2105 C2117 0.950 . S
H2106 C2114 0.950 . S
H2107 C2116 0.950 . S
H2108 C2118 0.950 . S
H2109 C2120 0.950 . S
H2110 C2122 0.950 . S
H2111 C2123 0.950 . S
C2112 H2104 0.950 . S
C2112 C2113 1.386 . S
C2112 C2114 1.391 . S
C2113 C2112 1.386 . S
C2113 C2117 1.393 . S
C2114 H2106 0.950 . S
C2114 C2112 1.391 . S
C2114 C2115 1.400 . S
C2115 C2114 1.400 . S
C2115 C2116 1.398 . S
C2115 C2121 1.491 1_565 S
C2116 H2107 0.950 . S
C2116 C2115 1.398 . S
C2116 C2117 1.391 . S
C2117 H2105 0.950 . S
C2117 C2113 1.393 . S
C2117 C2116 1.391 . S
C2118 H2108 0.950 . S
C2118 C2119 1.386 . S
C2118 C2120 1.391 . S
C2119 C2118 1.386 . S
C2119 C2123 1.393 . S
C2120 H2109 0.950 . S
C2120 C2118 1.391 . S
C2120 C2121 1.400 . S
C2121 C2115 1.491 1_545 S
C2121 C2120 1.400 . S
C2121 C2122 1.398 . S
C2122 H2110 0.950 . S
C2122 C2121 1.398 . S
C2122 C2123 1.391 . S
C2123 H2111 0.950 . S
C2123 C2119 1.393 . S
C2123 C2122 1.391 . S
H2124 C2132 0.950 . S
H2125 C2137 0.950 . S
H2126 C2134 0.950 . S
H2127 C2136 0.950 . S
H2128 C2138 0.950 . S
H2129 C2140 0.950 . S
H2130 C2142 0.950 . S
H2131 C2143 0.950 . S
C2132 H2124 0.950 . S
C2132 C2133 1.386 . S
C2132 C2134 1.391 . S
C2133 C2132 1.386 . S
C2133 C2137 1.393 . S
C2134 H2126 0.950 . S
C2134 C2132 1.391 . S
C2134 C2135 1.400 . S
C2135 C2134 1.400 . S
C2135 C2136 1.398 . S
C2135 C2141 1.491 1_565 S
C2136 H2127 0.950 . S
C2136 C2135 1.398 . S
C2136 C2137 1.391 . S
C2137 H2125 0.950 . S
C2137 C2133 1.393 . S
C2137 C2136 1.391 . S
C2138 H2128 0.950 . S
C2138 C2139 1.386 . S
C2138 C2140 1.391 . S
C2139 C2138 1.386 . S
C2139 C2143 1.393 . S
C2140 H2129 0.950 . S
C2140 C2138 1.391 . S
C2140 C2141 1.400 . S
C2141 C2135 1.491 1_545 S
C2141 C2140 1.400 . S
C2141 C2142 1.398 . S
C2142 H2130 0.950 . S
C2142 C2141 1.398 . S
C2142 C2143 1.391 . S
C2143 H2131 0.950 . S
C2143 C2139 1.393 . S
C2143 C2142 1.391 . S
H2144 C2152 0.950 . S
H2145 C2157 0.950 . S
H2146 C2154 0.950 . S
H2147 C2156 0.950 . S
H2148 C2158 0.950 . S
H2149 C2160 0.950 . S
H2150 C2162 0.950 . S
H2151 C2163 0.950 . S
C2152 H2144 0.950 . S
C2152 C2153 1.386 . S
C2152 C2154 1.391 . S
C2153 C2152 1.386 . S
C2153 C2157 1.393 . S
C2154 H2146 0.950 . S
C2154 C2152 1.391 . S
C2154 C2155 1.400 . S
C2155 C2154 1.400 . S
C2155 C2156 1.398 . S
C2155 C2161 1.491 . S
C2156 H2147 0.950 . S
C2156 C2155 1.398 . S
C2156 C2157 1.391 . S
C2157 H2145 0.950 . S
C2157 C2153 1.393 . S
C2157 C2156 1.391 . S
C2158 H2148 0.950 . S
C2158 C2159 1.386 . S
C2158 C2160 1.391 . S
C2159 C2158 1.386 . S
C2159 C2163 1.393 . S
C2160 H2149 0.950 . S
C2160 C2158 1.391 . S
C2160 C2161 1.400 . S
C2161 C2155 1.491 . S
C2161 C2160 1.400 . S
C2161 C2162 1.398 . S
C2162 H2150 0.950 . S
C2162 C2161 1.398 . S
C2162 C2163 1.391 . S
C2163 H2151 0.950 . S
C2163 C2159 1.393 . S
C2163 C2162 1.391 . S
H2164 C2172 0.950 . S
H2165 C2177 0.950 . S
H2166 C2174 0.950 . S
H2167 C2176 0.950 . S
H2168 C2178 0.950 . S
H2169 C2180 0.950 . S
H2170 C2182 0.950 . S
H2171 C2183 0.950 . S
C2172 H2164 0.950 . S
C2172 C2173 1.386 . S
C2172 C2174 1.391 . S
C2173 C2172 1.386 . S
C2173 C2177 1.393 . S
C2174 H2166 0.950 . S
C2174 C2172 1.391 . S
C2174 C2175 1.400 . S
C2175 C2174 1.400 . S
C2175 C2176 1.398 . S
C2175 C2181 1.491 . S
C2176 H2167 0.950 . S
C2176 C2175 1.398 . S
C2176 C2177 1.391 . S
C2177 H2165 0.950 . S
C2177 C2173 1.393 . S
C2177 C2176 1.391 . S
C2178 H2168 0.950 . S
C2178 C2179 1.386 . S
C2178 C2180 1.391 . S
C2179 C2178 1.386 . S
C2179 C2183 1.393 . S
C2180 H2169 0.950 . S
C2180 C2178 1.391 . S
C2180 C2181 1.400 . S
C2181 C2175 1.491 . S
C2181 C2180 1.400 . S
C2181 C2182 1.398 . S
C2182 H2170 0.950 . S
C2182 C2181 1.398 . S
C2182 C2183 1.391 . S
C2183 H2171 0.950 . S
C2183 C2179 1.393 . S
C2183 C2182 1.391 . S
H2184 C2192 0.950 . S
H2185 C2197 0.950 . S
H2186 C2194 0.950 . S
H2187 C2196 0.950 . S
H2188 C2198 0.950 . S
H2189 C2200 0.950 . S
H2190 C2202 0.950 . S
H2191 C2203 0.950 . S
C2192 H2184 0.950 . S
C2192 C2193 1.386 . S
C2192 C2194 1.391 . S
C2193 C2192 1.386 . S
C2193 C2197 1.393 . S
C2194 H2186 0.950 . S
C2194 C2192 1.391 . S
C2194 C2195 1.400 . S
C2195 C2194 1.400 . S
C2195 C2196 1.398 . S
C2195 C2201 1.491 . S
C2196 H2187 0.950 . S
C2196 C2195 1.398 . S
C2196 C2197 1.391 . S
C2197 H2185 0.950 . S
C2197 C2193 1.393 . S
C2197 C2196 1.391 . S
C2198 H2188 0.950 . S
C2198 C2199 1.386 . S
C2198 C2200 1.391 . S
C2199 C2198 1.386 . S
C2199 C2203 1.393 . S
C2200 H2189 0.950 . S
C2200 C2198 1.391 . S
C2200 C2201 1.400 . S
C2201 C2195 1.491 . S
C2201 C2200 1.400 . S
C2201 C2202 1.398 . S
C2202 H2190 0.950 . S
C2202 C2201 1.398 . S
C2202 C2203 1.391 . S
C2203 H2191 0.950 . S
C2203 C2199 1.393 . S
C2203 C2202 1.391 . S
H2204 C2212 0.950 . S
H2205 C2217 0.950 . S
H2206 C2214 0.950 . S
H2207 C2216 0.950 . S
H2208 C2218 0.950 . S
H2209 C2220 0.950 . S
H2210 C2222 0.950 . S
H2211 C2223 0.950 . S
C2212 H2204 0.950 . S
C2212 C2213 1.386 . S
C2212 C2214 1.391 . S
C2213 C2212 1.386 . S
C2213 C2217 1.393 . S
C2214 H2206 0.950 . S
C2214 C2212 1.391 . S
C2214 C2215 1.400 . S
C2215 C2214 1.400 . S
C2215 C2216 1.398 . S
C2215 C2221 1.491 . S
C2216 H2207 0.950 . S
C2216 C2215 1.398 . S
C2216 C2217 1.391 . S
C2217 H2205 0.950 . S
C2217 C2213 1.393 . S
C2217 C2216 1.391 . S
C2218 H2208 0.950 . S
C2218 C2219 1.386 . S
C2218 C2220 1.391 . S
C2219 C2218 1.386 . S
C2219 C2223 1.393 . S
C2220 H2209 0.950 . S
C2220 C2218 1.391 . S
C2220 C2221 1.400 . S
C2221 C2215 1.491 . S
C2221 C2220 1.400 . S
C2221 C2222 1.398 . S
C2222 H2210 0.950 . S
C2222 C2221 1.398 . S
C2222 C2223 1.391 . S
C2223 H2211 0.950 . S
C2223 C2219 1.393 . S
C2223 C2222 1.391 . S
H2224 C2232 0.950 . S
H2225 C2237 0.950 . S
H2226 C2234 0.950 . S
H2227 C2236 0.950 . S
H2228 C2238 0.950 . S
H2229 C2240 0.950 . S
H2230 C2242 0.950 . S
H2231 C2243 0.950 . S
C2232 H2224 0.950 . S
C2232 C2233 1.386 . S
C2232 C2234 1.391 . S
C2233 C2232 1.386 . S
C2233 C2237 1.393 . S
C2234 H2226 0.950 . S
C2234 C2232 1.391 . S
C2234 C2235 1.400 . S
C2235 C2234 1.400 . S
C2235 C2236 1.398 . S
C2235 C2241 1.491 . S
C2236 H2227 0.950 . S
C2236 C2235 1.398 . S
C2236 C2237 1.391 . S
C2237 H2225 0.950 . S
C2237 C2233 1.393 . S
C2237 C2236 1.391 . S
C2238 H2228 0.950 . S
C2238 C2239 1.386 . S
C2238 C2240 1.391 . S
C2239 C2238 1.386 . S
C2239 C2243 1.393 . S
C2240 H2229 0.950 . S
C2240 C2238 1.391 . S
C2240 C2241 1.400 . S
C2241 C2235 1.491 . S
C2241 C2240 1.400 . S
C2241 C2242 1.398 . S
C2242 H2230 0.950 . S
C2242 C2241 1.398 . S
C2242 C2243 1.391 . S
C2243 H2231 0.950 . S
C2243 C2239 1.393 . S
C2243 C2242 1.391 . S
H2244 C2252 0.950 . S
H2245 C2257 0.950 . S
H2246 C2254 0.950 . S
H2247 C2256 0.950 . S
H2248 C2258 0.950 . S
H2249 C2260 0.950 . S
H2250 C2262 0.950 . S
H2251 C2263 0.950 . S
C2252 H2244 0.950 . S
C2252 C2253 1.386 . S
C2252 C2254 1.391 . S
C2253 C2252 1.386 . S
C2253 C2257 1.393 . S
C2254 H2246 0.950 . S
C2254 C2252 1.391 . S
C2254 C2255 1.400 . S
C2255 C2254 1.400 . S
C2255 C2256 1.398 . S
C2255 C2261 1.491 . S
C2256 H2247 0.950 . S
C2256 C2255 1.398 . S
C2256 C2257 1.391 . S
C2257 H2245 0.950 . S
C2257 C2253 1.393 . S
C2257 C2256 1.391 . S
C2258 H2248 0.950 . S
C2258 C2259 1.386 . S
C2258 C2260 1.391 . S
C2259 C2258 1.386 . S
C2259 C2263 1.393 . S
C2260 H2249 0.950 . S
C2260 C2258 1.391 . S
C2260 C2261 1.400 . S
C2261 C2255 1.491 . S
C2261 C2260 1.400 . S
C2261 C2262 1.398 . S
C2262 H2250 0.950 . S
C2262 C2261 1.398 . S
C2262 C2263 1.391 . S
C2263 H2251 0.950 . S
C2263 C2259 1.393 . S
C2263 C2262 1.391 . S
H2264 C2272 0.950 . S
H2265 C2277 0.950 . S
H2266 C2274 0.950 . S
H2267 C2276 0.950 . S
H2268 C2278 0.950 . S
H2269 C2280 0.950 . S
H2270 C2282 0.950 . S
H2271 C2283 0.950 . S
C2272 H2264 0.950 . S
C2272 C2273 1.386 . S
C2272 C2274 1.391 . S
C2273 C2272 1.386 . S
C2273 C2277 1.393 . S
C2274 H2266 0.950 . S
C2274 C2272 1.391 . S
C2274 C2275 1.400 . S
C2275 C2274 1.400 . S
C2275 C2276 1.398 . S
C2275 C2281 1.491 . S
C2276 H2267 0.950 . S
C2276 C2275 1.398 . S
C2276 C2277 1.391 . S
C2277 H2265 0.950 . S
C2277 C2273 1.393 . S
C2277 C2276 1.391 . S
C2278 H2268 0.950 . S
C2278 C2279 1.386 . S
C2278 C2280 1.391 . S
C2279 C2278 1.386 . S
C2279 C2283 1.393 . S
C2280 H2269 0.950 . S
C2280 C2278 1.391 . S
C2280 C2281 1.400 . S
C2281 C2275 1.491 . S
C2281 C2280 1.400 . S
C2281 C2282 1.398 . S
C2282 H2270 0.950 . S
C2282 C2281 1.398 . S
C2282 C2283 1.391 . S
C2283 H2271 0.950 . S
C2283 C2279 1.393 . S
C2283 C2282 1.391 . S
H2284 C2292 0.950 . S
H2285 C2297 0.950 . S
H2286 C2294 0.950 . S
H2287 C2296 0.950 . S
H2288 C2298 0.950 . S
H2289 C2300 0.950 . S
H2290 C2302 0.950 . S
H2291 C2303 0.950 . S
C2292 H2284 0.950 . S
C2292 C2293 1.386 . S
C2292 C2294 1.391 . S
C2293 C2292 1.386 . S
C2293 C2297 1.393 . S
C2294 H2286 0.950 . S
C2294 C2292 1.391 . S
C2294 C2295 1.400 . S
C2295 C2294 1.400 . S
C2295 C2296 1.398 . S
C2295 C2301 1.491 . S
C2296 H2287 0.950 . S
C2296 C2295 1.398 . S
C2296 C2297 1.391 . S
C2297 H2285 0.950 . S
C2297 C2293 1.393 . S
C2297 C2296 1.391 . S
C2298 H2288 0.950 . S
C2298 C2299 1.386 . S
C2298 C2300 1.391 . S
C2299 C2298 1.386 . S
C2299 C2303 1.393 . S
C2300 H2289 0.950 . S
C2300 C2298 1.391 . S
C2300 C2301 1.400 . S
C2301 C2295 1.491 . S
C2301 C2300 1.400 . S
C2301 C2302 1.398 . S
C2302 H2290 0.950 . S
C2302 C2301 1.398 . S
C2302 C2303 1.391 . S
C2303 H2291 0.950 . S
C2303 C2299 1.393 . S
C2303 C2302 1.391 . S
H2304 C2312 0.950 . S
H2305 C2317 0.950 . S
H2306 C2314 0.950 . S
H2307 C2316 0.950 . S
H2308 C2318 0.950 . S
H2309 C2320 0.950 . S
H2310 C2322 0.950 . S
H2311 C2323 0.950 . S
C2312 H2304 0.950 . S
C2312 C2313 1.386 . S
C2312 C2314 1.391 . S
C2313 C2312 1.386 . S
C2313 C2317 1.393 . S
C2314 H2306 0.950 . S
C2314 C2312 1.391 . S
C2314 C2315 1.400 . S
C2315 C2314 1.400 . S
C2315 C2316 1.398 . S
C2315 C2321 1.491 . S
C2316 H2307 0.950 . S
C2316 C2315 1.398 . S
C2316 C2317 1.391 . S
C2317 H2305 0.950 . S
C2317 C2313 1.393 . S
C2317 C2316 1.391 . S
C2318 H2308 0.950 . S
C2318 C2319 1.386 . S
C2318 C2320 1.391 . S
C2319 C2318 1.386 . S
C2319 C2323 1.393 . S
C2320 H2309 0.950 . S
C2320 C2318 1.391 . S
C2320 C2321 1.400 . S
C2321 C2315 1.491 . S
C2321 C2320 1.400 . S
C2321 C2322 1.398 . S
C2322 H2310 0.950 . S
C2322 C2321 1.398 . S
C2322 C2323 1.391 . S
C2323 H2311 0.950 . S
C2323 C2319 1.393 . S
C2323 C2322 1.391 . S
H2324 C2332 0.950 . S
H2325 C2337 0.950 . S
H2326 C2334 0.950 . S
H2327 C2336 0.950 . S
H2328 C2338 0.950 . S
H2329 C2340 0.950 . S
H2330 C2342 0.950 . S
H2331 C2343 0.950 . S
C2332 H2324 0.950 . S
C2332 C2333 1.386 . S
C2332 C2334 1.391 . S
C2333 C2332 1.386 . S
C2333 C2337 1.393 . S
C2334 H2326 0.950 . S
C2334 C2332 1.391 . S
C2334 C2335 1.400 . S
C2335 C2334 1.400 . S
C2335 C2336 1.398 . S
C2335 C2341 1.491 . S
C2336 H2327 0.950 . S
C2336 C2335 1.398 . S
C2336 C2337 1.391 . S
C2337 H2325 0.950 . S
C2337 C2333 1.393 . S
C2337 C2336 1.391 . S
C2338 H2328 0.950 . S
C2338 C2339 1.386 . S
C2338 C2340 1.391 . S
C2339 C2338 1.386 . S
C2339 C2343 1.393 . S
C2340 H2329 0.950 . S
C2340 C2338 1.391 . S
C2340 C2341 1.400 . S
C2341 C2335 1.491 . S
C2341 C2340 1.400 . S
C2341 C2342 1.398 . S
C2342 H2330 0.950 . S
C2342 C2341 1.398 . S
C2342 C2343 1.391 . S
C2343 H2331 0.950 . S
C2343 C2339 1.393 . S
C2343 C2342 1.391 . S
H2344 C2352 0.950 . S
H2345 C2357 0.950 . S
H2346 C2354 0.950 . S
H2347 C2356 0.950 . S
H2348 C2358 0.950 . S
H2349 C2360 0.950 . S
H2350 C2362 0.950 . S
H2351 C2363 0.950 . S
C2352 H2344 0.950 . S
C2352 C2353 1.386 . S
C2352 C2354 1.391 . S
C2353 C2352 1.386 . S
C2353 C2357 1.393 . S
C2354 H2346 0.950 . S
C2354 C2352 1.391 . S
C2354 C2355 1.400 . S
C2355 C2354 1.400 . S
C2355 C2356 1.398 . S
C2355 C2361 1.491 . S
C2356 H2347 0.950 . S
C2356 C2355 1.398 . S
C2356 C2357 1.391 . S
C2357 H2345 0.950 . S
C2357 C2353 1.393 . S
C2357 C2356 1.391 . S
C2358 H2348 0.950 . S
C2358 C2359 1.386 . S
C2358 C2360 1.391 . S
C2359 C2358 1.386 . S
C2359 C2363 1.393 . S
C2360 H2349 0.950 . S
C2360 C2358 1.391 . S
C2360 C2361 1.400 . S
C2361 C2355 1.491 . S
C2361 C2360 1.400 . S
C2361 C2362 1.398 . S
C2362 H2350 0.950 . S
C2362 C2361 1.398 . S
C2362 C2363 1.391 . S
C2363 H2351 0.950 . S
C2363 C2359 1.393 . S
C2363 C2362 1.391 . S
H2364 C2372 0.950 . S
H2365 C2377 0.950 . S
H2366 C2374 0.950 . S
H2367 C2376 0.950 . S
H2368 C2378 0.950 . S
H2369 C2380 0.950 . S
H2370 C2382 0.950 . S
H2371 C2383 0.950 . S
C2372 H2364 0.950 . S
C2372 C2373 1.386 . S
C2372 C2374 1.391 . S
C2373 C2372 1.386 . S
C2373 C2377 1.393 . S
C2374 H2366 0.950 . S
C2374 C2372 1.391 . S
C2374 C2375 1.400 . S
C2375 C2374 1.400 . S
C2375 C2376 1.398 . S
C2375 C2381 1.491 . S
C2376 H2367 0.950 . S
C2376 C2375 1.398 . S
C2376 C2377 1.391 . S
C2377 H2365 0.950 . S
C2377 C2373 1.393 . S
C2377 C2376 1.391 . S
C2378 H2368 0.950 . S
C2378 C2379 1.386 . S
C2378 C2380 1.391 . S
C2379 C2378 1.386 . S
C2379 C2383 1.393 . S
C2380 H2369 0.950 . S
C2380 C2378 1.391 . S
C2380 C2381 1.400 . S
C2381 C2375 1.491 . S
C2381 C2380 1.400 . S
C2381 C2382 1.398 . S
C2382 H2370 0.950 . S
C2382 C2381 1.398 . S
C2382 C2383 1.391 . S
C2383 H2371 0.950 . S
C2383 C2379 1.393 . S
C2383 C2382 1.391 . S
H2384 C2392 0.950 . S
H2385 C2397 0.950 . S
H2386 C2394 0.950 . S
H2387 C2396 0.950 . S
H2388 C2398 0.950 . S
H2389 C2400 0.950 . S
H2390 C2402 0.950 . S
H2391 C2403 0.950 . S
C2392 H2384 0.950 . S
C2392 C2393 1.386 . S
C2392 C2394 1.391 . S
C2393 C2392 1.386 . S
C2393 C2397 1.393 . S
C2394 H2386 0.950 . S
C2394 C2392 1.391 . S
C2394 C2395 1.400 . S
C2395 C2394 1.400 . S
C2395 C2396 1.398 . S
C2395 C2401 1.491 . S
C2396 H2387 0.950 . S
C2396 C2395 1.398 . S
C2396 C2397 1.391 . S
C2397 H2385 0.950 . S
C2397 C2393 1.393 . S
C2397 C2396 1.391 . S
C2398 H2388 0.950 . S
C2398 C2399 1.386 . S
C2398 C2400 1.391 . S
C2399 C2398 1.386 . S
C2399 C2403 1.393 . S
C2400 H2389 0.950 . S
C2400 C2398 1.391 . S
C2400 C2401 1.400 . S
C2401 C2395 1.491 . S
C2401 C2400 1.400 . S
C2401 C2402 1.398 . S
C2402 H2390 0.950 . S
C2402 C2401 1.398 . S
C2402 C2403 1.391 . S
C2403 H2391 0.950 . S
C2403 C2399 1.393 . S
C2403 C2402 1.391 . S
H2404 C2412 0.950 . S
H2405 C2417 0.950 . S
H2406 C2414 0.950 . S
H2407 C2416 0.950 . S
H2408 C2418 0.950 . S
H2409 C2420 0.950 . S
H2410 C2422 0.950 . S
H2411 C2423 0.950 . S
C2412 H2404 0.950 . S
C2412 C2413 1.386 . S
C2412 C2414 1.391 . S
C2413 C2412 1.386 . S
C2413 C2417 1.393 . S
C2414 H2406 0.950 . S
C2414 C2412 1.391 . S
C2414 C2415 1.400 . S
C2415 C2414 1.400 . S
C2415 C2416 1.398 . S
C2415 C2421 1.491 . S
C2416 H2407 0.950 . S
C2416 C2415 1.398 . S
C2416 C2417 1.391 . S
C2417 H2405 0.950 . S
C2417 C2413 1.393 . S
C2417 C2416 1.391 . S
C2418 H2408 0.950 . S
C2418 C2419 1.386 . S
C2418 C2420 1.391 . S
C2419 C2418 1.386 . S
C2419 C2423 1.393 . S
C2420 H2409 0.950 . S
C2420 C2418 1.391 . S
C2420 C2421 1.400 . S
C2421 C2415 1.491 . S
C2421 C2420 1.400 . S
C2421 C2422 1.398 . S
C2422 H2410 0.950 . S
C2422 C2421 1.398 . S
C2422 C2423 1.391 . S
C2423 H2411 0.950 . S
C2423 C2419 1.393 . S
C2423 C2422 1.391 . S
H2424 C2432 0.950 . S
H2425 C2437 0.950 . S
H2426 C2434 0.950 . S
H2427 C2436 0.950 . S
H2428 C2438 0.950 . S
H2429 C2440 0.950 . S
H2430 C2442 0.950 . S
H2431 C2443 0.950 . S
C2432 H2424 0.950 . S
C2432 C2433 1.386 . S
C2432 C2434 1.391 . S
C2433 C2432 1.386 . S
C2433 C2437 1.393 . S
C2434 H2426 0.950 . S
C2434 C2432 1.391 . S
C2434 C2435 1.400 . S
C2435 C2434 1.400 . S
C2435 C2436 1.398 . S
C2435 C2441 1.491 . S
C2436 H2427 0.950 . S
C2436 C2435 1.398 . S
C2436 C2437 1.391 . S
C2437 H2425 0.950 . S
C2437 C2433 1.393 . S
C2437 C2436 1.391 . S
C2438 H2428 0.950 . S
C2438 C2439 1.386 . S
C2438 C2440 1.391 . S
C2439 C2438 1.386 . S
C2439 C2443 1.393 . S
C2440 H2429 0.950 . S
C2440 C2438 1.391 . S
C2440 C2441 1.400 . S
C2441 C2435 1.491 . S
C2441 C2440 1.400 . S
C2441 C2442 1.398 . S
C2442 H2430 0.950 . S
C2442 C2441 1.398 . S
C2442 C2443 1.391 . S
C2443 H2431 0.950 . S
C2443 C2439 1.393 . S
C2443 C2442 1.391 . S
H2444 C2452 0.950 . S
H2445 C2457 0.950 . S
H2446 C2454 0.950 . S
H2447 C2456 0.950 . S
H2448 C2458 0.950 . S
H2449 C2460 0.950 . S
H2450 C2462 0.950 . S
H2451 C2463 0.950 . S
C2452 H2444 0.950 . S
C2452 C2453 1.386 . S
C2452 C2454 1.391 . S
C2453 C2452 1.386 . S
C2453 C2457 1.393 . S
C2454 H2446 0.950 . S
C2454 C2452 1.391 . S
C2454 C2455 1.400 . S
C2455 C2454 1.400 . S
C2455 C2456 1.398 . S
C2455 C2461 1.491 . S
C2456 H2447 0.950 . S
C2456 C2455 1.398 . S
C2456 C2457 1.391 . S
C2457 H2445 0.950 . S
C2457 C2453 1.393 . S
C2457 C2456 1.391 . S
C2458 H2448 0.950 . S
C2458 C2459 1.386 . S
C2458 C2460 1.391 . S
C2459 C2458 1.386 . S
C2459 C2463 1.393 . S
C2460 H2449 0.950 . S
C2460 C2458 1.391 . S
C2460 C2461 1.400 . S
C2461 C2455 1.491 . S
C2461 C2460 1.400 . S
C2461 C2462 1.398 . S
C2462 H2450 0.950 . S
C2462 C2461 1.398 . S
C2462 C2463 1.391 . S
C2463 H2451 0.950 . S
C2463 C2459 1.393 . S
C2463 C2462 1.391 . S
H2464 C2472 0.950 . S
H2465 C2477 0.950 . S
H2466 C2474 0.950 . S
H2467 C2476 0.950 . S
H2468 C2478 0.950 . S
H2469 C2480 0.950 . S
H2470 C2482 0.950 . S
H2471 C2483 0.950 . S
C2472 H2464 0.950 . S
C2472 C2473 1.386 . S
C2472 C2474 1.391 . S
C2473 C2472 1.386 . S
C2473 C2477 1.393 . S
C2474 H2466 0.950 . S
C2474 C2472 1.391 . S
C2474 C2475 1.400 . S
C2475 C2474 1.400 . S
C2475 C2476 1.398 . S
C2475 C2481 1.491 . S
C2476 H2467 0.950 . S
C2476 C2475 1.398 . S
C2476 C2477 1.391 . S
C2477 H2465 0.950 . S
C2477 C2473 1.393 . S
C2477 C2476 1.391 . S
C2478 H2468 0.950 . S
C2478 C2479 1.386 . S
C2478 C2480 1.391 . S
C2479 C2478 1.386 . S
C2479 C2483 1.393 . S
C2480 H2469 0.950 . S
C2480 C2478 1.391 . S
C2480 C2481 1.400 . S
C2481 C2475 1.491 . S
C2481 C2480 1.400 . S
C2481 C2482 1.398 . S
C2482 H2470 0.950 . S
C2482 C2481 1.398 . S
C2482 C2483 1.391 . S
C2483 H2471 0.950 . S
C2483 C2479 1.393 . S
C2483 C2482 1.391 . S
H2484 C2492 0.950 . S
H2485 C2497 0.950 . S
H2486 C2494 0.950 . S
H2487 C2496 0.950 . S
H2488 C2498 0.950 . S
H2489 C2500 0.950 . S
H2490 C2502 0.950 . S
H2491 C2503 0.950 . S
C2492 H2484 0.950 . S
C2492 C2493 1.386 . S
C2492 C2494 1.391 . S
C2493 C2492 1.386 . S
C2493 C2497 1.393 . S
C2494 H2486 0.950 . S
C2494 C2492 1.391 . S
C2494 C2495 1.400 . S
C2495 C2494 1.400 . S
C2495 C2496 1.398 . S
C2495 C2501 1.491 . S
C2496 H2487 0.950 . S
C2496 C2495 1.398 . S
C2496 C2497 1.391 . S
C2497 H2485 0.950 . S
C2497 C2493 1.393 . S
C2497 C2496 1.391 . S
C2498 H2488 0.950 . S
C2498 C2499 1.386 . S
C2498 C2500 1.391 . S
C2499 C2498 1.386 . S
C2499 C2503 1.393 . S
C2500 H2489 0.950 . S
C2500 C2498 1.391 . S
C2500 C2501 1.400 . S
C2501 C2495 1.491 . S
C2501 C2500 1.400 . S
C2501 C2502 1.398 . S
C2502 H2490 0.950 . S
C2502 C2501 1.398 . S
C2502 C2503 1.391 . S
C2503 H2491 0.950 . S
C2503 C2499 1.393 . S
C2503 C2502 1.391 . S
H2504 C2512 0.950 . S
H2505 C2517 0.950 . S
H2506 C2514 0.950 . S
H2507 C2516 0.950 . S
H2508 C2518 0.950 . S
H2509 C2520 0.950 . S
H2510 C2522 0.950 . S
H2511 C2523 0.950 . S
C2512 H2504 0.950 . S
C2512 C2513 1.386 . S
C2512 C2514 1.391 . S
C2513 C2512 1.386 . S
C2513 C2517 1.393 . S
C2514 H2506 0.950 . S
C2514 C2512 1.391 . S
C2514 C2515 1.400 . S
C2515 C2514 1.400 . S
C2515 C2516 1.398 . S
C2515 C2521 1.491 . S
C2516 H2507 0.950 . S
C2516 C2515 1.398 . S
C2516 C2517 1.391 . S
C2517 H2505 0.950 . S
C2517 C2513 1.393 . S
C2517 C2516 1.391 . S
C2518 H2508 0.950 . S
C2518 C2519 1.386 . S
C2518 C2520 1.391 . S
C2519 C2518 1.386 . S
C2519 C2523 1.393 . S
C2520 H2509 0.950 . S
C2520 C2518 1.391 . S
C2520 C2521 1.400 . S
C2521 C2515 1.491 . S
C2521 C2520 1.400 . S
C2521 C2522 1.398 . S
C2522 H2510 0.950 . S
C2522 C2521 1.398 . S
C2522 C2523 1.391 . S
C2523 H2511 0.950 . S
C2523 C2519 1.393 . S
C2523 C2522 1.391 . S
H2524 C2532 0.950 . S
H2525 C2537 0.950 . S
H2526 C2534 0.950 . S
H2527 C2536 0.950 . S
H2528 C2538 0.950 . S
H2529 C2540 0.950 . S
H2530 C2542 0.950 . S
H2531 C2543 0.950 . S
C2532 H2524 0.950 . S
C2532 C2533 1.386 . S
C2532 C2534 1.391 . S
C2533 C2532 1.386 . S
C2533 C2537 1.393 . S
C2534 H2526 0.950 . S
C2534 C2532 1.391 . S
C2534 C2535 1.400 . S
C2535 C2534 1.400 . S
C2535 C2536 1.398 . S
C2535 C2541 1.491 . S
C2536 H2527 0.950 . S
C2536 C2535 1.398 . S
C2536 C2537 1.391 . S
C2537 H2525 0.950 . S
C2537 C2533 1.393 . S
C2537 C2536 1.391 . S
C2538 H2528 0.950 . S
C2538 C2539 1.386 . S
C2538 C2540 1.391 . S
C2539 C2538 1.386 . S
C2539 C2543 1.393 . S
C2540 H2529 0.950 . S
C2540 C2538 1.391 . S
C2540 C2541 1.400 . S
C2541 C2535 1.491 . S
C2541 C2540 1.400 . S
C2541 C2542 1.398 . S
C2542 H2530 0.950 . S
C2542 C2541 1.398 . S
C2542 C2543 1.391 . S
C2543 H2531 0.950 . S
C2543 C2539 1.393 . S
C2543 C2542 1.391 . S
H2544 C2552 0.950 . S
H2545 C2557 0.950 . S
H2546 C2554 0.950 . S
H2547 C2556 0.950 . S
H2548 C2558 0.950 . S
H2549 C2560 0.950 . S
H2550 C2562 0.950 . S
H2551 C2563 0.950 . S
C2552 H2544 0.950 . S
C2552 C2553 1.386 . S
C2552 C2554 1.391 . S
C2553 C2552 1.386 . S
C2553 C2557 1.393 . S
C2554 H2546 0.950 . S
C2554 C2552 1.391 . S
C2554 C2555 1.400 . S
C2555 C2554 1.400 . S
C2555 C2556 1.398 . S
C2555 C2561 1.491 . S
C2556 H2547 0.950 . S
C2556 C2555 1.398 . S
C2556 C2557 1.391 . S
C2557 H2545 0.950 . S
C2557 C2553 1.393 . S
C2557 C2556 1.391 . S
C2558 H2548 0.950 . S
C2558 C2559 1.386 . S
C2558 C2560 1.391 . S
C2559 C2558 1.386 . S
C2559 C2563 1.393 . S
C2560 H2549 0.950 . S
C2560 C2558 1.391 . S
C2560 C2561 1.400 . S
C2561 C2555 1.491 . S
C2561 C2560 1.400 . S
C2561 C2562 1.398 . S
C2562 H2550 0.950 . S
C2562 C2561 1.398 . S
C2562 C2563 1.391 . S
C2563 H2551 0.950 . S
C2563 C2559 1.393 . S
C2563 C2562 1.391 . S
H2564 C2572 0.950 . S
H2565 C2577 0.950 . S
H2566 C2574 0.950 . S
H2567 C2576 0.950 . S
H2568 C2578 0.950 . S
H2569 C2580 0.950 . S
H2570 C2582 0.950 . S
H2571 C2583 0.950 . S
C2572 H2564 0.950 . S
C2572 C2573 1.386 . S
C2572 C2574 1.391 . S
C2573 C2572 1.386 . S
C2573 C2577 1.393 . S
C2574 H2566 0.950 . S
C2574 C2572 1.391 . S
C2574 C2575 1.400 . S
C2575 C2574 1.400 . S
C2575 C2576 1.398 . S
C2575 C2581 1.491 . S
C2576 H2567 0.950 . S
C2576 C2575 1.398 . S
C2576 C2577 1.391 . S
C2577 H2565 0.950 . S
C2577 C2573 1.393 . S
C2577 C2576 1.391 . S
C2578 H2568 0.950 . S
C2578 C2579 1.386 . S
C2578 C2580 1.391 . S
C2579 C2578 1.386 . S
C2579 C2583 1.393 . S
C2580 H2569 0.950 . S
C2580 C2578 1.391 . S
C2580 C2581 1.400 . S
C2581 C2575 1.491 . S
C2581 C2580 1.400 . S
C2581 C2582 1.398 . S
C2582 H2570 0.950 . S
C2582 C2581 1.398 . S
C2582 C2583 1.391 . S
C2583 H2571 0.950 . S
C2583 C2579 1.393 . S
C2583 C2582 1.391 . S
H2584 C2592 0.950 . S
H2585 C2597 0.950 . S
H2586 C2594 0.950 . S
H2587 C2596 0.950 . S
H2588 C2598 0.950 . S
H2589 C2600 0.950 . S
H2590 C2602 0.950 . S
H2591 C2603 0.950 . S
C2592 H2584 0.950 . S
C2592 C2593 1.386 . S
C2592 C2594 1.391 . S
C2593 C2592 1.386 . S
C2593 C2597 1.393 . S
C2594 H2586 0.950 . S
C2594 C2592 1.391 . S
C2594 C2595 1.400 . S
C2595 C2594 1.400 . S
C2595 C2596 1.398 . S
C2595 C2601 1.491 . S
C2596 H2587 0.950 . S
C2596 C2595 1.398 . S
C2596 C2597 1.391 . S
C2597 H2585 0.950 . S
C2597 C2593 1.393 . S
C2597 C2596 1.391 . S
C2598 H2588 0.950 . S
C2598 C2599 1.386 . S
C2598 C2600 1.391 . S
C2599 C2598 1.386 . S
C2599 C2603 1.393 . S
C2600 H2589 0.950 . S
C2600 C2598 1.391 . S
C2600 C2601 1.400 . S
C2601 C2595 1.491 . S
C2601 C2600 1.400 . S
C2601 C2602 1.398 . S
C2602 H2590 0.950 . S
C2602 C2601 1.398 . S
C2602 C2603 1.391 . S
C2603 H2591 0.950 . S
C2603 C2599 1.393 . S
C2603 C2602 1.391 . S
H2604 C2612 0.950 . S
H2605 C2617 0.950 . S
H2606 C2614 0.950 . S
H2607 C2616 0.950 . S
H2608 C2618 0.950 . S
H2609 C2620 0.950 . S
H2610 C2622 0.950 . S
H2611 C2623 0.950 . S
C2612 H2604 0.950 . S
C2612 C2613 1.386 . S
C2612 C2614 1.391 . S
C2613 C2612 1.386 . S
C2613 C2617 1.393 . S
C2614 H2606 0.950 . S
C2614 C2612 1.391 . S
C2614 C2615 1.400 . S
C2615 C2614 1.400 . S
C2615 C2616 1.398 . S
C2615 C2621 1.491 . S
C2616 H2607 0.950 . S
C2616 C2615 1.398 . S
C2616 C2617 1.391 . S
C2617 H2605 0.950 . S
C2617 C2613 1.393 . S
C2617 C2616 1.391 . S
C2618 H2608 0.950 . S
C2618 C2619 1.386 . S
C2618 C2620 1.391 . S
C2619 C2618 1.386 . S
C2619 C2623 1.393 . S
C2620 H2609 0.950 . S
C2620 C2618 1.391 . S
C2620 C2621 1.400 . S
C2621 C2615 1.491 . S
C2621 C2620 1.400 . S
C2621 C2622 1.398 . S
C2622 H2610 0.950 . S
C2622 C2621 1.398 . S
C2622 C2623 1.391 . S
C2623 H2611 0.950 . S
C2623 C2619 1.393 . S
C2623 C2622 1.391 . S
C713 C358 1.131 . S
C719 C5 1.131 . S
C733 C515 1.128 . S
C739 C30 1.134 . S
C753 C49 1.134 . S
C759 C470 1.128 . S
C773 C73 1.130 . S
C779 C493 1.132 . S
C793 C94 1.132 . S
C799 C379 1.130 . S
C813 C119 1.128 . S
C819 C404 1.134 . S
C833 C423 1.133 . S
C839 C140 1.129 . S
C853 C163 1.133 . S
C859 C447 1.129 . S
C873 C185 1.130 . S
C879 C6 1.133 . S
C893 C31 1.129 . S
C899 C205 1.133 . S
C913 C224 1.129 . S
C919 C50 1.133 . S
C933 C74 1.134 . S
C939 C249 1.128 . S
C953 C92 1.133 . S
C959 C268 1.129 . S
C973 C294 1.129 . S
C979 C117 1.134 . S
C993 C141 1.129 . S
C999 C314 1.134 . S
C1013 C339 1.128 . S
C1019 C161 1.134 . S
C1033 C183 1.132 . S
C1039 C357 1.130 . S
C1053 C378 1.134 . S
C1059 C269 1.128 . S
C1073 C403 1.134 . S
C1079 C295 1.128 . S
C1093 C312 1.134 . S
C1099 C422 1.129 . S
C1113 C449 1.129 . S
C1119 C337 1.134 . S
C1133 C469 1.132 . S
C1139 C225 1.130 . S
C1153 C250 1.134 . S
C1159 C492 1.128 . S
C1173 C514 1.132 . S
C1179 C206 1.130 . S
C1193 C691 1.129 . S
C1199 C338 1.134 . S
C1213 C293 1.132 . S
C1219 C669 1.131 . S
C1233 C624 1.134 . S
C1239 C251 1.128 . S
C1253 C645 1.130 . S
C1259 C207 1.132 . S
C1273 C380 1.128 . S
C1279 C537 1.134 . S
C1293 C424 1.132 . S
C1299 C554 1.130 . S
C1313 C578 1.129 . S
C1319 C356 1.133 . S
C1333 C600 1.133 . S
C1339 C471 1.129 . S
C1353 C535 1.133 . S
C1359 C93 1.129 . S
C1373 C576 1.134 . S
C1379 C4 1.128 . S
C1393 C75 1.134 . S
C1399 C623 1.128 . S
C1413 C598 1.129 . S
C1419 C48 1.133 . S
C1433 C647 1.134 . S
C1439 C29 1.128 . S
C1453 C139 1.132 . S
C1459 C555 1.130 . S
C1473 C668 1.128 . S
C1479 C118 1.134 . S
C1493 C162 1.134 . S
C1499 C690 1.128 . S
C1513 C313 1.134 . S
C1519 C556 1.128 . S
C1533 C270 1.128 . S
C1539 C536 1.134 . S
C1553 C599 1.133 . S
C1559 C226 1.129 . S
C1573 C577 1.133 . S
C1579 C184 1.129 . S
C1593 C405 1.134 . S
C1599 C667 1.128 . S
C1613 C448 1.129 . S
C1619 C689 1.133 . S
C1633 C646 1.129 . S
C1639 C513 1.133 . S
C1653 C491 1.134 . S
C1659 C625 1.129 . S
C1673 C71 1.592 . S
C1679 C9 1.611 . S
C1693 C28 1.611 . S
C1699 C7 1.592 . S
C1713 C26 1.609 . S
C1719 C53 1.594 . S
C1733 C51 1.599 . S
C1739 C70 1.604 . S
C1753 C116 1.608 . S
C1759 C96 1.595 . S
C1773 C136 1.594 . S
C1779 C115 1.608 . S
C1793 C138 1.603 . S
C1799 C160 1.599 . S
C1813 C159 1.603 . S
C1819 C97 1.600 . S
C1833 C181 1.592 . S
C1839 C401 1.611 . S
C1853 C426 1.609 . S
C1859 C202 1.594 . S
C1873 C446 1.611 . S
C1879 C227 1.592 . S
C1893 C246 1.600 . S
C1899 C382 1.602 . S
C1913 C271 1.611 . S
C1919 C488 1.592 . S
C1933 C359 1.608 . S
C1939 C292 1.594 . S
C1953 C510 1.599 . S
C1959 C316 1.604 . S
C1973 C335 1.605 . S
C1979 C467 1.598 . S
C1993 C361 1.593 . S
C1999 C203 1.610 . S
C2013 C381 1.611 . S
C2019 C336 1.592 . S
C2033 C272 1.592 . S
C2039 C400 1.611 . S
C2053 C290 1.601 . S
C2059 C425 1.602 . S
C2073 C445 1.602 . S
C2079 C317 1.600 . S
C2093 C466 1.611 . S
C2099 C247 1.592 . S
C2113 C490 1.608 . S
C2119 C182 1.595 . S
C2133 C228 1.605 . S
C2139 C512 1.598 . S
C2153 C383 1.596 . S
C2159 C291 1.606 . S
C2173 C334 1.610 . S
C2179 C427 1.593 . S
C2193 C360 1.611 . S
C2199 C248 1.592 . S
C2213 C204 1.610 . S
C2219 C468 1.592 . S
C2233 C533 1.608 . S
C2239 C621 1.595 . S
C2253 C52 1.603 . S
C2259 C158 1.600 . S
C2273 C557 1.595 . S
C2279 C644 1.608 . S
C2293 C114 1.598 . S
C2299 C8 1.605 . S
C2313 C664 1.598 . S
C2319 C580 1.605 . S
C2333 C72 1.592 . S
C2339 C95 1.610 . S
C2353 C602 1.607 . S
C2359 C686 1.596 . S
C2373 C137 1.593 . S
C2379 C27 1.610 . S
C2393 C620 1.609 . S
C2399 C581 1.594 . S
C2413 C603 1.594 . S
C2419 C643 1.609 . S
C2433 C534 1.604 . S
C2439 C666 1.598 . S
C2453 C558 1.609 . S
C2459 C688 1.593 . S
C2473 C402 1.597 . S
C2479 C315 1.606 . S
C2493 C444 1.603 . S
C2499 C273 1.600 . S
C2513 C180 1.598 . S
C2519 C511 1.605 . S
C2533 C229 1.609 . S
C2539 C489 1.594 . S
C2553 C665 1.604 . S
C2559 C559 1.599 . S
C2573 C622 1.602 . S
C2579 C601 1.601 . S
C2593 C642 1.598 . S
C2599 C579 1.605 . S
C2613 C532 1.610 . S
C2619 C687 1.593 . S
