# Generated by pormake.
# Topology xfz, (5)-cn, num edge types: 1
# Building blocks:
#     Node 0, Type 0, BuildingBlock: XOMCOT_clean_sbu_1, # of connection points: 5
#     Node 1, Type 0, BuildingBlock: XOMCOT_clean_sbu_1, # of connection points: 5
#     Node 2, Type 0, BuildingBlock: XOMCOT_clean_sbu_1, # of connection points: 5
#     Node 3, Type 0, BuildingBlock: XOMCOT_clean_sbu_1, # of connection points: 5
#     Node 4, Type 0, BuildingBlock: XOMCOT_clean_sbu_1, # of connection points: 5
#     Node 5, Type 0, BuildingBlock: XOMCOT_clean_sbu_1, # of connection points: 5
#     Node 6, Type 0, BuildingBlock: XOMCOT_clean_sbu_1, # of connection points: 5
#     Node 7, Type 0, BuildingBlock: XOMCOT_clean_sbu_1, # of connection points: 5
#     Node 8, Type 0, BuildingBlock: XOMCOT_clean_sbu_1, # of connection points: 5
#     Node 9, Type 0, BuildingBlock: XOMCOT_clean_sbu_1, # of connection points: 5
#     Node 10, Type 0, BuildingBlock: XOMCOT_clean_sbu_1, # of connection points: 5
#     Node 11, Type 0, BuildingBlock: XOMCOT_clean_sbu_1, # of connection points: 5
#     Node 12, Type 0, BuildingBlock: XOMCOT_clean_sbu_1, # of connection points: 5
#     Node 13, Type 0, BuildingBlock: XOMCOT_clean_sbu_1, # of connection points: 5
#     Node 14, Type 0, BuildingBlock: XOMCOT_clean_sbu_1, # of connection points: 5
#     Node 15, Type 0, BuildingBlock: XOMCOT_clean_sbu_1, # of connection points: 5
#     Edge 16, Type (0, 0), BuildingBlock: CIFDUS_clean_linker_0, # of connection points: 2
#     Edge 17, Type (0, 0), BuildingBlock: CIFDUS_clean_linker_0, # of connection points: 2
#     Edge 18, Type (0, 0), BuildingBlock: CIFDUS_clean_linker_0, # of connection points: 2
#     Edge 19, Type (0, 0), BuildingBlock: CIFDUS_clean_linker_0, # of connection points: 2
#     Edge 20, Type (0, 0), BuildingBlock: CIFDUS_clean_linker_0, # of connection points: 2
#     Edge 21, Type (0, 0), BuildingBlock: CIFDUS_clean_linker_0, # of connection points: 2
#     Edge 22, Type (0, 0), BuildingBlock: CIFDUS_clean_linker_0, # of connection points: 2
#     Edge 23, Type (0, 0), BuildingBlock: CIFDUS_clean_linker_0, # of connection points: 2
#     Edge 24, Type (0, 0), BuildingBlock: CIFDUS_clean_linker_0, # of connection points: 2
#     Edge 25, Type (0, 0), BuildingBlock: CIFDUS_clean_linker_0, # of connection points: 2
#     Edge 26, Type (0, 0), BuildingBlock: CIFDUS_clean_linker_0, # of connection points: 2
#     Edge 27, Type (0, 0), BuildingBlock: CIFDUS_clean_linker_0, # of connection points: 2
#     Edge 28, Type (0, 0), BuildingBlock: CIFDUS_clean_linker_0, # of connection points: 2
#     Edge 29, Type (0, 0), BuildingBlock: CIFDUS_clean_linker_0, # of connection points: 2
#     Edge 30, Type (0, 0), BuildingBlock: CIFDUS_clean_linker_0, # of connection points: 2
#     Edge 31, Type (0, 0), BuildingBlock: CIFDUS_clean_linker_0, # of connection points: 2
#     Edge 32, Type (0, 0), BuildingBlock: CIFDUS_clean_linker_0, # of connection points: 2
#     Edge 33, Type (0, 0), BuildingBlock: CIFDUS_clean_linker_0, # of connection points: 2
#     Edge 34, Type (0, 0), BuildingBlock: CIFDUS_clean_linker_0, # of connection points: 2
#     Edge 35, Type (0, 0), BuildingBlock: CIFDUS_clean_linker_0, # of connection points: 2
#     Edge 36, Type (0, 0), BuildingBlock: CIFDUS_clean_linker_0, # of connection points: 2
#     Edge 37, Type (0, 0), BuildingBlock: CIFDUS_clean_linker_0, # of connection points: 2
#     Edge 38, Type (0, 0), BuildingBlock: CIFDUS_clean_linker_0, # of connection points: 2
#     Edge 39, Type (0, 0), BuildingBlock: CIFDUS_clean_linker_0, # of connection points: 2
#     Edge 40, Type (0, 0), BuildingBlock: CIFDUS_clean_linker_0, # of connection points: 2
#     Edge 41, Type (0, 0), BuildingBlock: CIFDUS_clean_linker_0, # of connection points: 2
#     Edge 42, Type (0, 0), BuildingBlock: CIFDUS_clean_linker_0, # of connection points: 2
#     Edge 43, Type (0, 0), BuildingBlock: CIFDUS_clean_linker_0, # of connection points: 2
#     Edge 44, Type (0, 0), BuildingBlock: CIFDUS_clean_linker_0, # of connection points: 2
#     Edge 45, Type (0, 0), BuildingBlock: CIFDUS_clean_linker_0, # of connection points: 2
#     Edge 46, Type (0, 0), BuildingBlock: CIFDUS_clean_linker_0, # of connection points: 2
#     Edge 47, Type (0, 0), BuildingBlock: CIFDUS_clean_linker_0, # of connection points: 2
#     Edge 48, Type (0, 0), BuildingBlock: CIFDUS_clean_linker_0, # of connection points: 2
#     Edge 49, Type (0, 0), BuildingBlock: CIFDUS_clean_linker_0, # of connection points: 2
#     Edge 50, Type (0, 0), BuildingBlock: CIFDUS_clean_linker_0, # of connection points: 2
#     Edge 51, Type (0, 0), BuildingBlock: CIFDUS_clean_linker_0, # of connection points: 2
#     Edge 52, Type (0, 0), BuildingBlock: CIFDUS_clean_linker_0, # of connection points: 2
#     Edge 53, Type (0, 0), BuildingBlock: CIFDUS_clean_linker_0, # of connection points: 2
#     Edge 54, Type (0, 0), BuildingBlock: CIFDUS_clean_linker_0, # of connection points: 2
#     Edge 55, Type (0, 0), BuildingBlock: CIFDUS_clean_linker_0, # of connection points: 2
# Relax obj value: 0.588
# Max RMSD: 0.323
# Mean RMSD: 0.323
data_MOF--net-xfz--node1-XOMCOT_clean_sbu_1--edge1-CIFDUS_clean_linker_0
_symmetry_space_group_name_H-M    P1
_symmetry_Int_Tables_number       1
_symmetry_cell_setting            triclinic
loop_
_symmetry_equiv_pos_as_xyz
'x, y, z'
_cell_length_a     33.28342
_cell_length_b     33.343484
_cell_length_c     54.332797
_cell_angle_alpha  89.987084
_cell_angle_beta   90.047307
_cell_angle_gamma 89.849708
loop_
_atom_site_label
_atom_site_type_symbol
_atom_site_fract_x
_atom_site_fract_y
_atom_site_fract_z
_atom_type_partial_charge
C0 C 0.24016 0.36211 0.32388 0.0
C1 C 0.23621 0.33551 0.30473 0.0
N2 N 0.19674 0.3289 0.301 0.0
N3 N 0.20343 0.37221 0.33225 0.0
C4 C 0.17761 0.35114 0.31821 0.0
H5 H 0.26803 0.37446 0.33068 0.0
Co6 Co 0.19478 0.41005 0.35668 0.0
C7 C 0.10958 0.40419 0.37177 0.0
O8 O 0.11997 0.40065 0.395 0.0
N9 N 0.1872 0.44868 0.38161 0.0
C10 C 0.16365 0.50002 0.40364 0.0
C11 C 0.164 0.48204 0.3808 0.0
C12 C 0.20086 0.44748 0.405 0.0
N13 N 0.18665 0.47784 0.41883 0.0
O14 O 0.20018 0.36761 0.38022 0.0
H15 H 0.14692 0.49175 0.36493 0.0
H16 H 0.22022 0.42441 0.41222 0.0
O17 O 0.13666 0.40347 0.35513 0.0
C18 C 0.23706 0.36315 0.38584 0.0
O19 O 0.26293 0.39031 0.37845 0.0
N20 N 0.19212 0.45008 0.33244 0.0
C21 C 0.19601 0.50325 0.29303 0.0
C22 C 0.16534 0.47483 0.29442 0.0
C23 C 0.16394 0.44855 0.31417 0.0
C24 C 0.22209 0.47788 0.33163 0.0
C25 C 0.22429 0.50534 0.31213 0.0
H26 H 0.14097 0.42594 0.31401 0.0
H27 H 0.2448 0.47817 0.34588 0.0
H28 H 0.14533 0.35409 0.31952 0.0
H29 H 0.26053 0.32324 0.29386 0.0
H30 H 0.14635 0.52617 0.40892 0.0
H31 H 0.14273 0.4726 0.28012 0.0
H32 H 0.24845 0.52702 0.31158 0.0
C33 C 0.43206 0.8122 0.66605 0.0
C34 C 0.40423 0.82486 0.68295 0.0
N35 N 0.38859 0.85985 0.67512 0.0
N36 N 0.43528 0.83964 0.64785 0.0
C37 C 0.40654 0.867 0.65327 0.0
H38 H 0.44857 0.78445 0.66726 0.0
Co39 Co 0.46905 0.83715 0.61989 0.0
C40 C 0.47155 0.92585 0.63128 0.0
O41 O 0.4708 0.91881 0.65508 0.0
N42 N 0.50125 0.83354 0.59168 0.0
C43 C 0.53958 0.84946 0.5596 0.0
C44 C 0.52997 0.85883 0.58353 0.0
C45 C 0.49471 0.80862 0.57252 0.0
N46 N 0.51681 0.8182 0.55258 0.0
O47 O 0.42138 0.83299 0.59986 0.0
H48 H 0.54108 0.88456 0.59336 0.0
H49 H 0.47253 0.78514 0.57262 0.0
O50 O 0.46972 0.89638 0.61616 0.0
C51 C 0.40898 0.79689 0.60117 0.0
O52 O 0.43003 0.77087 0.61402 0.0
N53 N 0.51576 0.83735 0.64014 0.0
C54 C 0.56768 0.83429 0.68023 0.0
C55 C 0.56675 0.86809 0.66495 0.0
C56 C 0.54102 0.86877 0.64469 0.0
C57 C 0.522 0.80188 0.65204 0.0
C58 C 0.54672 0.79999 0.67282 0.0
H59 H 0.54054 0.89552 0.63369 0.0
H60 H 0.50534 0.77561 0.64648 0.0
H61 H 0.3996 0.8925 0.64171 0.0
H62 H 0.39777 0.81041 0.70034 0.0
H63 H 0.55915 0.86657 0.54767 0.0
H64 H 0.58368 0.89481 0.66947 0.0
H65 H 0.5482 0.77257 0.68349 0.0
C66 C 0.81026 0.57328 0.30404 0.0
C67 C 0.82181 0.60486 0.28957 0.0
N68 N 0.84874 0.62694 0.30217 0.0
N69 N 0.83052 0.57462 0.32552 0.0
C70 C 0.85231 0.60862 0.32426 0.0
H71 H 0.78918 0.55009 0.29895 0.0
Co72 Co 0.82353 0.53797 0.35109 0.0
C73 C 0.91707 0.54325 0.35293 0.0
O74 O 0.92338 0.56651 0.33387 0.0
N75 N 0.81533 0.50172 0.37674 0.0
C76 C 0.82754 0.45498 0.40494 0.0
C77 C 0.83656 0.46807 0.38156 0.0
C78 C 0.79288 0.50771 0.39704 0.0
N79 N 0.8005 0.48048 0.41478 0.0
O80 O 0.81567 0.58239 0.37318 0.0
H81 H 0.85957 0.45574 0.36969 0.0
H82 H 0.77318 0.53306 0.39951 0.0
O83 O 0.88128 0.53385 0.35914 0.0
C84 C 0.77992 0.59472 0.3693 0.0
O85 O 0.75726 0.57498 0.35366 0.0
N86 N 0.82806 0.49551 0.32857 0.0
C87 C 0.8243 0.44483 0.28815 0.0
C88 C 0.85886 0.46712 0.29281 0.0
C89 C 0.8601 0.4924 0.31302 0.0
C90 C 0.79466 0.47255 0.32493 0.0
C91 C 0.79223 0.44652 0.30475 0.0
H92 H 0.88544 0.51186 0.3146 0.0
H93 H 0.76895 0.47616 0.3369 0.0
H94 H 0.87109 0.61935 0.33911 0.0
H95 H 0.81309 0.6095 0.27058 0.0
H96 H 0.84252 0.4309 0.41469 0.0
H97 H 0.88404 0.46649 0.28017 0.0
H98 H 0.76501 0.42961 0.30147 0.0
C99 C 0.62459 0.25221 0.66297 0.0
C100 C 0.64648 0.23477 0.68173 0.0
N101 N 0.63013 0.19875 0.68674 0.0
N102 N 0.59475 0.22718 0.6563 0.0
C103 C 0.59847 0.19542 0.67141 0.0
H104 H 0.63113 0.28038 0.65398 0.0
Co105 Co 0.56117 0.23187 0.6292 0.0
C106 C 0.5715 0.14205 0.61608 0.0
O107 O 0.59978 0.14368 0.59927 0.0
N108 N 0.52831 0.23633 0.60164 0.0
C109 C 0.48281 0.25309 0.57345 0.0
C110 C 0.49588 0.25966 0.59727 0.0
C111 C 0.53459 0.21648 0.58046 0.0
N112 N 0.50731 0.22563 0.5631 0.0
O113 O 0.60844 0.23591 0.60891 0.0
H114 H 0.48283 0.28022 0.61044 0.0
H115 H 0.55989 0.19686 0.57741 0.0
O116 O 0.5589 0.17395 0.62641 0.0
C117 C 0.61334 0.26991 0.59862 0.0
O118 O 0.58425 0.29653 0.60004 0.0
N119 N 0.51579 0.22988 0.64968 0.0
C120 C 0.45498 0.22245 0.68452 0.0
C121 C 0.45532 0.19814 0.66349 0.0
C122 C 0.48596 0.20238 0.64623 0.0
C123 C 0.51429 0.25581 0.66907 0.0
C124 C 0.48439 0.25223 0.68695 0.0
H125 H 0.48622 0.18279 0.63038 0.0
H126 H 0.53736 0.27832 0.67122 0.0
H127 H 0.57873 0.16986 0.67086 0.0
H128 H 0.67339 0.24678 0.69011 0.0
H129 H 0.45734 0.26718 0.56455 0.0
H130 H 0.43312 0.17481 0.6609 0.0
H131 H 0.48469 0.27204 0.70275 0.0
C132 C 0.2136 0.65827 0.656 0.0
C133 C 0.19734 0.68021 0.67491 0.0
N134 N 0.15856 0.66947 0.67747 0.0
N135 N 0.18525 0.63396 0.6466 0.0
C136 C 0.15193 0.64158 0.65989 0.0
H137 H 0.24444 0.65926 0.64976 0.0
Co138 Co 0.19648 0.59753 0.62214 0.0
C139 C 0.11954 0.56295 0.60465 0.0
O140 O 0.13845 0.52845 0.60276 0.0
N141 N 0.21004 0.56146 0.59691 0.0
C142 C 0.23617 0.51325 0.57356 0.0
C143 C 0.2332 0.52812 0.59712 0.0
C144 C 0.19999 0.56652 0.573 0.0
N145 N 0.21526 0.53758 0.55845 0.0
O146 O 0.20485 0.64219 0.60023 0.0
H147 H 0.24774 0.51547 0.61308 0.0
H148 H 0.18116 0.59081 0.56649 0.0
O149 O 0.13871 0.59398 0.61242 0.0
C150 C 0.24125 0.64801 0.59391 0.0
O151 O 0.26812 0.62039 0.59923 0.0
N152 N 0.19138 0.55588 0.64557 0.0
C153 C 0.1924 0.50394 0.68581 0.0
C154 C 0.15606 0.51607 0.67533 0.0
C155 C 0.15611 0.54303 0.65579 0.0
C156 C 0.22708 0.54513 0.65611 0.0
C157 C 0.22835 0.51898 0.67626 0.0
H158 H 0.12752 0.55495 0.6502 0.0
H159 H 0.25472 0.55793 0.64923 0.0
H160 H 0.12392 0.62571 0.65745 0.0
H161 H 0.21315 0.7018 0.68617 0.0
H162 H 0.2531 0.48705 0.56796 0.0
H163 H 0.12767 0.50643 0.68307 0.0
H164 H 0.25695 0.51104 0.68446 0.0
C165 C 0.58508 0.75074 0.29525 0.0
C166 C 0.61186 0.76267 0.27745 0.0
N167 N 0.62311 0.80065 0.28239 0.0
N168 N 0.57923 0.78117 0.31113 0.0
C169 C 0.60289 0.81103 0.30299 0.0
H170 H 0.57119 0.72157 0.29682 0.0
Co171 Co 0.54914 0.77728 0.33934 0.0
C172 C 0.51923 0.85853 0.35158 0.0
O173 O 0.48604 0.84108 0.35903 0.0
N174 N 0.51991 0.77122 0.36881 0.0
C175 C 0.48341 0.74851 0.40017 0.0
C176 C 0.48903 0.74703 0.37507 0.0
C177 C 0.53237 0.78688 0.39046 0.0
N178 N 0.51108 0.77334 0.40982 0.0
O179 O 0.59869 0.77281 0.3574 0.0
H180 H 0.47279 0.72765 0.36276 0.0
H181 H 0.55758 0.80714 0.39197 0.0
O182 O 0.54858 0.83678 0.3438 0.0
C183 C 0.60779 0.73976 0.36779 0.0
O184 O 0.58081 0.71111 0.36872 0.0
N185 N 0.50207 0.7799 0.31959 0.0
C186 C 0.4399 0.78044 0.28509 0.0
C187 C 0.46334 0.81445 0.28885 0.0
C188 C 0.49502 0.81312 0.3054 0.0
C189 C 0.481 0.74555 0.31501 0.0
C190 C 0.44926 0.74522 0.29794 0.0
H191 H 0.5151 0.83838 0.30549 0.0
H192 H 0.49004 0.71777 0.32366 0.0
H193 H 0.60513 0.83983 0.31198 0.0
H194 H 0.62255 0.74453 0.26229 0.0
H195 H 0.46209 0.73089 0.41058 0.0
H196 H 0.45843 0.84142 0.2781 0.0
H197 H 0.43291 0.71777 0.29444 0.0
C198 C 0.79052 0.43006 0.6543 0.0
C199 C 0.8079 0.40792 0.67274 0.0
N200 N 0.84664 0.41921 0.67498 0.0
N201 N 0.81806 0.45506 0.64473 0.0
C202 C 0.852 0.44774 0.65755 0.0
H203 H 0.75961 0.42826 0.64827 0.0
Co204 Co 0.80599 0.49023 0.61961 0.0
C205 C 0.88258 0.52383 0.60097 0.0
O206 O 0.86352 0.55796 0.59762 0.0
N207 N 0.79167 0.52485 0.59367 0.0
C208 C 0.76047 0.5672 0.56826 0.0
C209 C 0.76706 0.55717 0.59257 0.0
C210 C 0.79968 0.51619 0.56991 0.0
N211 N 0.78063 0.54084 0.55415 0.0
O212 O 0.79726 0.44463 0.59853 0.0
H213 H 0.75284 0.57143 0.60811 0.0
H214 H 0.81825 0.49117 0.56424 0.0
O215 O 0.86341 0.49346 0.60959 0.0
C216 C 0.76007 0.43948 0.59404 0.0
O217 O 0.73399 0.46559 0.60264 0.0
N218 N 0.81128 0.5331 0.64195 0.0
C219 C 0.81041 0.5885 0.68021 0.0
C220 C 0.84676 0.57496 0.67049 0.0
C221 C 0.84662 0.54642 0.65185 0.0
C222 C 0.77558 0.5452 0.65185 0.0
C223 C 0.77437 0.57323 0.67099 0.0
H224 H 0.87513 0.53386 0.64665 0.0
H225 H 0.74787 0.53211 0.64526 0.0
H226 H 0.87972 0.46374 0.65451 0.0
H227 H 0.79282 0.3854 0.68364 0.0
H228 H 0.74057 0.59046 0.5615 0.0
H229 H 0.87514 0.58496 0.6781 0.0
H230 H 0.7458 0.58224 0.67878 0.0
C231 C 0.42827 0.22063 0.31265 0.0
C232 C 0.40327 0.21956 0.29248 0.0
N233 N 0.38922 0.18204 0.29031 0.0
N234 N 0.43152 0.18349 0.32252 0.0
C235 C 0.40612 0.16109 0.30887 0.0
H236 H 0.44097 0.24757 0.32038 0.0
Co237 Co 0.4557 0.16963 0.35265 0.0
C238 C 0.46177 0.08818 0.32811 0.0
O239 O 0.47626 0.10263 0.30744 0.0
N240 N 0.47796 0.15693 0.38308 0.0
C241 C 0.49187 0.12587 0.41816 0.0
C242 C 0.48199 0.12068 0.39389 0.0
C243 C 0.48644 0.18355 0.40101 0.0
N244 N 0.49416 0.16552 0.42277 0.0
O245 O 0.4031 0.16955 0.36684 0.0
H246 H 0.47573 0.09211 0.38539 0.0
H247 H 0.48512 0.21562 0.39835 0.0
O248 O 0.45137 0.11198 0.34546 0.0
C249 C 0.39431 0.20355 0.37603 0.0
O250 O 0.42154 0.23197 0.37561 0.0
N251 N 0.50786 0.1725 0.33893 0.0
C252 C 0.57465 0.17816 0.30853 0.0
C253 C 0.56761 0.14304 0.32213 0.0
C254 C 0.5345 0.1413 0.33792 0.0
C255 C 0.51882 0.20887 0.32975 0.0
C256 C 0.55159 0.21224 0.31394 0.0
H257 H 0.52891 0.11389 0.34792 0.0
H258 H 0.50123 0.23515 0.33387 0.0
H259 H 0.39889 0.13021 0.31282 0.0
H260 H 0.39479 0.24468 0.28094 0.0
H261 H 0.49409 0.10214 0.43167 0.0
H262 H 0.5856 0.11632 0.31935 0.0
H263 H 0.55763 0.24075 0.30514 0.0
C264 C 0.73358 0.90522 0.829 0.0
C265 C 0.72671 0.88321 0.80816 0.0
N266 N 0.68828 0.88891 0.80136 0.0
N267 N 0.69979 0.92501 0.83537 0.0
C268 C 0.67228 0.91395 0.81832 0.0
H269 H 0.76229 0.90885 0.83803 0.0
Co270 Co 0.70384 0.96404 0.85953 0.0
C271 C 0.62362 0.99686 0.87069 0.0
O272 O 0.64158 0.0319 0.87074 0.0
N273 N 0.71107 1.00286 0.88459 0.0
C274 C 0.73241 0.0527 0.90852 0.0
C275 C 0.73278 0.03711 0.88513 0.0
C276 C 0.69821 0.99834 0.90803 0.0
N277 N 0.71082 0.02811 0.92295 0.0
O278 O 0.71267 0.92152 0.88327 0.0
H279 H 0.74946 0.04972 0.87007 0.0
H280 H 0.6803 0.97316 0.91407 0.0
O281 O 0.64418 0.9648 0.86615 0.0
C282 C 0.74899 0.91934 0.89072 0.0
O283 O 0.77412 0.94776 0.88423 0.0
N284 N 0.69886 1.00372 0.83469 0.0
C285 C 0.69829 0.05886 0.7961 0.0
C286 C 0.66341 0.0381 0.80249 0.0
C287 C 0.66452 0.01012 0.82139 0.0
C288 C 0.73387 0.02118 0.82726 0.0
C289 C 0.73409 0.05 0.80851 0.0
H290 H 0.63757 0.99329 0.82476 0.0
H291 H 0.76188 0.01258 0.83591 0.0
H292 H 0.64229 0.92629 0.8171 0.0
H293 H 0.74891 0.86645 0.79781 0.0
H294 H 0.74851 0.07904 0.91465 0.0
H295 H 0.63535 0.04333 0.79286 0.0
H296 H 0.76199 0.06439 0.80337 0.0
C297 C 0.91102 0.25977 0.15471 0.0
C298 C 0.88415 0.26542 0.17351 0.0
N299 N 0.88399 0.30465 0.17934 0.0
N300 N 0.92777 0.29517 0.14872 0.0
C301 C 0.91045 0.32218 0.16385 0.0
H302 H 0.91869 0.23144 0.14622 0.0
Co303 Co 0.96726 0.29691 0.12513 0.0
C304 C 1.00036 0.37902 0.12197 0.0
O305 O 0.0354 0.36084 0.12132 0.0
N306 N 1.0068 0.29614 0.10018 0.0
C307 C 0.05887 0.28444 0.07541 0.0
C308 C 0.0432 0.27811 0.09851 0.0
C309 C 1.00126 0.31304 0.07783 0.0
N310 N 0.03219 0.30616 0.06243 0.0
O311 O 0.92506 0.2935 0.10082 0.0
H312 H 0.05763 0.26063 0.11264 0.0
H313 H 0.97462 0.32985 0.07283 0.0
O314 O 0.9681 0.35768 0.12389 0.0
C315 C 0.92242 0.25837 0.09162 0.0
O316 O 0.95212 0.23307 0.09542 0.0
N317 N 1.0057 0.29563 0.15056 0.0
C318 C 0.05114 0.28304 0.19285 0.0
C319 C 0.03203 0.31977 0.18889 0.0
C320 C 1.00883 0.32525 0.16788 0.0
C321 C 0.02247 0.2589 0.15493 0.0
C322 C 0.04644 0.25222 0.17569 0.0
H323 H 0.99183 0.35267 0.16645 0.0
H324 H 0.01616 0.23424 0.14259 0.0
H325 H 0.9185 0.3536 0.16434 0.0
H326 H 0.86679 0.24232 0.18256 0.0
H327 H 0.08686 0.27246 0.06838 0.0
H328 H 0.03414 0.34371 0.20231 0.0
H329 H 0.0599 0.22303 0.17875 0.0
C330 C 0.28167 0.12585 0.82111 0.0
C331 C 0.29422 0.15141 0.80283 0.0
N332 N 0.33468 0.15052 0.8021 0.0
N333 N 0.31401 0.10895 0.8319 0.0
C334 C 0.34589 0.12475 0.82003 0.0
H335 H 0.25085 0.11903 0.82573 0.0
Co336 Co 0.31112 0.06925 0.85573 0.0
C337 C 0.39331 0.06166 0.87872 0.0
O338 O 0.37878 0.05395 0.90064 0.0
N339 N 0.30718 0.02819 0.88002 0.0
C340 C 0.31656 0.97088 0.90049 0.0
C341 C 0.31938 0.98953 0.87802 0.0
C342 C 0.29669 0.0318 0.90401 0.0
N343 N 0.30279 0.99773 0.9169 0.0
O344 O 0.30069 0.11083 0.87962 0.0
H345 H 0.33232 0.97608 0.86176 0.0
H346 H 0.2876 0.0596 0.91252 0.0
O347 O 0.36976 0.07112 0.86099 0.0
C348 C 0.2626 0.11452 0.88156 0.0
O349 O 0.23966 0.08752 0.87097 0.0
N350 N 0.31736 0.03089 0.83091 0.0
C351 C 0.31724 0.98012 0.79031 0.0
C352 C 0.35235 1.00014 0.79735 0.0
C353 C 0.35185 0.02544 0.8177 0.0
C354 C 0.28289 0.01157 0.82439 0.0
C355 C 0.28229 0.98543 0.80427 0.0
H356 H 0.37901 0.04145 0.82212 0.0
H357 H 0.25561 0.01702 0.83468 0.0
H358 H 0.37665 0.11593 0.8235 0.0
H359 H 0.27499 0.16858 0.79067 0.0
H360 H 0.32709 0.94094 0.90482 0.0
H361 H 0.37998 0.9965 0.78704 0.0
H362 H 0.2546 0.97052 0.79925 0.0
C363 C 0.13561 0.72259 0.17186 0.0
C364 C 0.15902 0.71038 0.1913 0.0
N365 N 0.15445 0.6705 0.19402 0.0
N366 N 0.11632 0.69066 0.16239 0.0
C367 C 0.12865 0.65921 0.17609 0.0
H368 H 0.13195 0.75306 0.16541 0.0
Co369 Co 0.07923 0.69606 0.13737 0.0
C370 C 0.04283 0.61635 0.12775 0.0
O371 O 1.00842 0.63559 0.1262 0.0
N372 N 0.04239 0.70349 0.11128 0.0
C373 C 0.99561 0.72513 0.08511 0.0
C374 C 1.0088 0.72617 0.10907 0.0
C375 C 0.04867 0.689 0.08837 0.0
N376 N 0.02093 0.70186 0.07211 0.0
O377 O 0.12332 0.70094 0.11456 0.0
H378 H 0.99494 0.74366 0.12339 0.0
H379 H 0.07433 0.67067 0.08347 0.0
O380 O 0.07521 0.63627 0.13236 0.0
C381 C 0.12732 0.73792 0.10904 0.0
O382 O 0.10079 0.76373 0.11745 0.0
N383 N 0.03835 0.69594 0.16119 0.0
C384 C 0.98459 0.70526 0.19992 0.0
C385 C 1.00242 0.668 0.1953 0.0
C386 C 0.02973 0.66407 0.17609 0.0
C387 C 0.02363 0.73307 0.1668 0.0
C388 C 0.99544 0.73825 0.18558 0.0
H389 H 0.04474 0.63564 0.17394 0.0
H390 H 0.03416 0.75897 0.15673 0.0
H391 H 0.11743 0.62902 0.17377 0.0
H392 H 0.1773 0.72951 0.20283 0.0
H393 H 0.96987 0.74101 0.07775 0.0
H394 H 0.9954 0.64211 0.20655 0.0
H395 H 0.98308 0.76772 0.18925 0.0
C396 C 0.7569 0.09048 0.1713 0.0
C397 C 0.75572 0.10931 0.19383 0.0
N398 N 0.71761 0.1211 0.19808 0.0
N399 N 0.71968 0.0901 0.16155 0.0
C400 C 0.69653 0.10965 0.17804 0.0
H401 H 0.78271 0.07581 0.1632 0.0
Co402 Co 0.70588 0.06069 0.13382 0.0
C403 C 0.6186 0.0727 0.12479 0.0
O404 O 0.6255 0.08218 0.1017 0.0
N405 N 0.69263 0.03022 0.10571 0.0
C406 C 0.6643 0.98421 0.08159 0.0
C407 C 0.66758 0.9983 0.10523 0.0
C408 C 0.70405 0.03487 0.08202 0.0
N409 N 0.68716 1.0074 0.06703 0.0
O410 O 0.71069 0.1093 0.1148 0.0
H411 H 0.65178 0.98649 0.12103 0.0
H412 H 0.7242 0.05795 0.07566 0.0
O413 O 0.6482 0.06869 0.13958 0.0
C414 C 0.74692 0.11361 0.10757 0.0
O415 O 0.77212 0.08364 0.11077 0.0
N416 N 0.70454 0.01423 0.15327 0.0
C417 C 0.70503 0.94594 0.18259 0.0
C418 C 0.6796 0.97813 0.18807 0.0
C419 C 0.67978 0.01193 0.17324 0.0
C420 C 0.73057 0.98369 0.14803 0.0
C421 C 0.73073 0.94863 0.16225 0.0
H422 H 0.66014 0.03637 0.17813 0.0
H423 H 0.75081 0.98634 0.13255 0.0
H424 H 0.66423 0.11237 0.17646 0.0
H425 H 0.78051 0.11231 0.2066 0.0
H426 H 0.64558 0.95966 0.07547 0.0
H427 H 0.65913 0.97693 0.20356 0.0
H428 H 0.75079 0.92418 0.15758 0.0
C429 C 0.1172 0.30736 0.81844 0.0
C430 C 0.13775 0.31533 0.79709 0.0
N431 N 0.1365 0.35514 0.79321 0.0
N432 N 0.1029 0.34195 0.82788 0.0
C433 C 0.1153 0.37068 0.81211 0.0
H434 H 0.1112 0.27794 0.82593 0.0
Co435 Co 0.06752 0.34255 0.85415 0.0
C436 C 0.09309 0.4315 0.86206 0.0
O437 O 0.13207 0.4315 0.85831 0.0
N438 N 0.03109 0.34293 0.88096 0.0
C439 C 0.97714 0.35368 0.90443 0.0
C440 C 0.99209 0.35464 0.88091 0.0
C441 C 0.039 0.33574 0.905 0.0
N442 N 1.00676 0.34177 0.9196 0.0
O443 O 0.1124 0.32923 0.87525 0.0
H444 H 0.97531 0.36466 0.86504 0.0
H445 H 0.06797 0.32667 0.91193 0.0
O446 O 0.07331 0.39912 0.86005 0.0
C447 C 0.11472 0.29167 0.8797 0.0
O448 O 0.08402 0.2689 0.8738 0.0
N449 N 0.02563 0.3523 0.83185 0.0
C450 C 0.9701 0.3576 0.79371 0.0
C451 C 0.99111 0.39155 0.80151 0.0
C452 C 0.01877 0.38836 0.82057 0.0
C453 C 1.00489 0.319 0.8248 0.0
C454 C 0.97645 0.32107 0.80587 0.0
H455 H 0.03548 0.41483 0.8253 0.0
H456 H 0.01126 0.29054 0.83355 0.0
H457 H 0.10651 0.40186 0.81332 0.0
H458 H 0.15109 0.29348 0.78481 0.0
H459 H 0.94711 0.36231 0.90995 0.0
H460 H 0.9867 0.42032 0.7926 0.0
H461 H 0.96076 0.2942 0.80018 0.0
C462 C 0.27701 0.93284 0.1655 0.0
C463 C 0.27392 0.90881 0.18598 0.0
N464 N 0.30761 0.88647 0.18769 0.0
N465 N 0.31268 0.92611 0.15454 0.0
C466 C 0.33038 0.89725 0.16821 0.0
H467 H 0.25508 0.95455 0.15923 0.0
Co468 Co 0.32985 0.95299 0.12656 0.0
C469 C 0.42312 0.93605 0.13946 0.0
O470 O 0.43173 0.90592 0.15412 0.0
N471 N 0.34581 0.98013 0.09815 0.0
C472 C 0.37419 0.02429 0.07297 0.0
C473 C 0.37332 0.00969 0.09661 0.0
C474 C 0.3302 0.9775 0.07525 0.0
N475 N 0.34695 1.00399 0.05956 0.0
O476 O 0.32622 0.90304 0.10915 0.0
H477 H 0.39089 0.02075 0.11191 0.0
H478 H 0.30606 0.95755 0.07026 0.0
O479 O 0.3864 0.94331 0.13414 0.0
C480 C 0.29055 0.89551 0.10198 0.0
O481 O 0.26342 0.92409 0.10362 0.0
N482 N 0.33111 1.00097 0.14454 0.0
C483 C 0.32726 0.06899 0.17395 0.0
C484 C 0.3512 0.03633 0.18076 0.0
C485 C 0.35266 1.00262 0.16589 0.0
C486 C 0.30731 0.03244 0.13758 0.0
C487 C 0.30542 0.06734 0.15194 0.0
H488 H 0.37002 0.9772 0.17215 0.0
H489 H 0.28943 0.03028 0.12099 0.0
H490 H 0.35991 0.88532 0.16447 0.0
H491 H 0.24919 0.90846 0.19889 0.0
H492 H 0.39335 0.04805 0.06623 0.0
H493 H 0.36836 0.03671 0.19773 0.0
H494 H 0.28647 0.09216 0.14631 0.0
C495 C 0.89712 0.73779 0.82661 0.0
C496 C 0.87161 0.73021 0.80732 0.0
N497 N 0.86699 0.69018 0.8054 0.0
N498 N 0.9085 0.7028 0.83687 0.0
C499 C 0.8894 0.67428 0.82374 0.0
H500 H 0.9075 0.76696 0.83248 0.0
Co501 Co 0.94441 0.69998 0.86277 0.0
C502 C 0.94084 0.61578 0.88078 0.0
O503 O 0.92827 0.62708 0.90261 0.0
N504 N 0.98108 0.69788 0.88923 0.0
C505 C 0.03293 0.68072 0.91307 0.0
C506 C 0.01693 0.67865 0.88976 0.0
C507 C 0.97634 0.71167 0.91243 0.0
N508 N 1.00725 0.70164 0.9272 0.0
O509 O 0.89907 0.70548 0.88461 0.0
H510 H 0.03028 0.66304 0.87438 0.0
H511 H 0.94992 0.72698 0.91903 0.0
O512 O 0.94346 0.64148 0.86347 0.0
C513 C 0.89309 0.74282 0.88846 0.0
O514 O 0.92091 0.76831 0.88147 0.0
N515 N 0.98662 0.69806 0.84005 0.0
C516 C 0.04169 0.70365 0.80177 0.0
C517 C 0.01687 0.67009 0.80397 0.0
C518 C 0.98936 0.66798 0.82306 0.0
C519 C 0.01114 0.73068 0.83859 0.0
C520 C 0.03944 0.7339 0.81964 0.0
H521 H 0.96916 0.64277 0.82332 0.0
H522 H 1.00785 0.7548 0.85176 0.0
H523 H 0.89341 0.64245 0.82677 0.0
H524 H 0.85826 0.75245 0.79531 0.0
H525 H 0.06087 0.6674 0.91923 0.0
H526 H 0.01802 0.64596 0.79062 0.0
H527 H 0.05812 0.76037 0.81838 0.0
H528 H 0.96594 0.4995 0.32421 0.0
H529 H 0.94055 0.52635 0.40014 0.0
H530 H 0.99609 0.48234 0.41317 0.0
H531 H 0.05434 0.43931 0.40242 0.0
H532 H 0.07532 0.40905 0.32623 0.0
H533 H 0.01859 0.45073 0.31385 0.0
C534 C 0.97279 0.49584 0.34361 0.0
C535 C 0.95019 0.51694 0.36123 0.0
C536 C 1.00371 0.46963 0.35086 0.0
C537 C 0.9582 0.51093 0.38631 0.0
C538 C 0.98977 0.48566 0.3937 0.0
C539 C 0.04601 0.44109 0.38315 0.0
C540 C 0.06978 0.42163 0.36523 0.0
C541 C 0.01301 0.46512 0.3761 0.0
C542 C 0.05828 0.42433 0.34038 0.0
C543 C 0.0258 0.44823 0.33325 0.0
H544 H 0.56254 0.07564 0.58683 0.0
H545 H 0.53201 0.12338 0.65826 0.0
H546 H 0.49617 0.06227 0.6684 0.0
H547 H 0.47483 0.9945 0.65777 0.0
H548 H 0.50136 0.94675 0.58579 0.0
H549 H 0.5363 1.00873 0.57492 0.0
C550 C 0.54833 0.07244 0.60467 0.0
C551 C 0.55091 0.10381 0.62196 0.0
C552 C 0.52648 0.03735 0.61021 0.0
C553 C 0.5313 0.09961 0.64474 0.0
C554 C 0.51045 0.06467 0.65054 0.0
C555 C 0.48786 0.99772 0.63958 0.0
C556 C 0.48592 0.96568 0.62279 0.0
C557 C 0.50796 0.03332 0.63348 0.0
C558 C 0.50256 0.97073 0.59919 0.0
C559 C 0.52282 1.00613 0.593 0.0
H560 H 0.93156 0.58876 0.59881 0.0
H561 H 0.93392 0.45934 0.60114 0.0
H562 H 1.00751 0.46047 0.60126 0.0
H563 H 0.0706 0.49815 0.60204 0.0
H564 H 0.06832 0.62763 0.60236 0.0
H565 H 0.99479 0.62651 0.59983 0.0
C566 C 0.94806 0.56069 0.59911 0.0
C567 C 0.92714 0.5239 0.59976 0.0
C568 C 0.99025 0.56165 0.59976 0.0
C569 C 0.94918 0.48797 0.60053 0.0
C570 C 0.99124 0.48866 0.60064 0.0
C571 C 0.05418 0.52626 0.60137 0.0
C572 C 0.07508 0.56304 0.60223 0.0
C573 C 0.01203 0.52532 0.60044 0.0
C574 C 0.05308 0.59899 0.60166 0.0
C575 C 0.01105 0.59831 0.60023 0.0
H576 H 0.46467 0.91146 0.36916 0.0
H577 H 0.56915 0.90407 0.3224 0.0
H578 H 0.55915 0.97396 0.30986 0.0
H579 H 0.51915 0.03668 0.31127 0.0
H580 H 0.41577 0.04356 0.35892 0.0
H581 H 0.42638 0.97398 0.37162 0.0
C582 C 0.48555 0.92514 0.35637 0.0
C583 C 0.51762 0.90238 0.34672 0.0
C584 C 0.47928 0.96504 0.34903 0.0
C585 C 0.54442 0.92083 0.33028 0.0
C586 C 0.53844 0.96072 0.3229 0.0
C587 C 0.49862 0.02269 0.32414 0.0
C588 C 0.46622 0.04498 0.33382 0.0
C589 C 0.50558 0.98293 0.33187 0.0
C590 C 0.44057 0.02687 0.35102 0.0
C591 C 0.4468 0.9872 0.35839 0.0
H592 H 0.57478 0.0465 0.84591 0.0
H593 H 0.57327 0.95014 0.89871 0.0
H594 H 0.50135 0.96237 0.90625 0.0
H595 H 0.44026 1.00403 0.89972 0.0
H596 H 0.44219 0.09841 0.84542 0.0
H597 H 0.51284 0.08374 0.83666 0.0
C598 C 0.55848 0.02771 0.85878 0.0
C599 C 0.57917 0.99744 0.87178 0.0
C600 C 0.51752 0.03516 0.86303 0.0
C601 C 0.55784 0.97323 0.88831 0.0
C602 C 0.5169 0.98061 0.8928 0.0
C603 C 0.45627 0.02151 0.88607 0.0
C604 C 0.43626 0.05293 0.87359 0.0
C605 C 0.49668 0.01215 0.88068 0.0
C606 C 0.457 0.07448 0.85544 0.0
C607 C 0.49735 0.06599 0.85039 0.0
H608 H 0.06553 0.42776 0.12441 0.0
H609 H 0.93592 0.43163 0.12154 0.0
H610 H 0.93815 0.50522 0.12272 0.0
H611 H 0.97698 0.56805 0.1246 0.0
H612 H 0.10653 0.5635 0.12852 0.0
H613 H 0.10412 0.49011 0.12686 0.0
C614 C 0.03755 0.44446 0.12399 0.0
C615 C 1.00044 0.42384 0.12277 0.0
C616 C 0.03915 0.48661 0.12485 0.0
C617 C 0.9648 0.44644 0.12242 0.0
C618 C 0.96615 0.48856 0.12309 0.0
C619 C 1.00485 0.55116 0.12503 0.0
C620 C 0.04206 0.57159 0.12657 0.0
C621 C 1.00316 0.50893 0.12429 0.0
C622 C 0.07759 0.54884 0.12728 0.0
C623 C 0.07616 0.50683 0.12634 0.0
H624 H 0.47491 0.97348 0.17027 0.0
H625 H 0.44429 0.96146 0.09362 0.0
H626 H 0.49947 1.00648 0.08238 0.0
H627 H 0.55912 0.04577 0.09425 0.0
H628 H 0.59032 0.05684 0.17105 0.0
H629 H 0.5323 0.01611 0.18234 0.0
C630 C 0.48026 0.98103 0.15113 0.0
C631 C 0.4553 0.9647 0.13277 0.0
C632 C 0.51221 1.00676 0.14486 0.0
C633 C 0.4626 0.97439 0.10805 0.0
C634 C 0.49429 0.99994 0.10165 0.0
C635 C 0.55281 0.04006 0.11351 0.0
C636 C 0.57934 0.05443 0.13176 0.0
C637 C 0.51955 0.01606 0.11988 0.0
C638 C 0.57072 0.04611 0.15659 0.0
C639 C 0.53753 0.02265 0.16307 0.0
H640 H 0.00998 0.60188 0.85568 0.0
H641 H 0.92195 0.54301 0.9011 0.0
H642 H 0.96123 0.4806 0.89928 0.0
H643 H 0.0215 0.4433 0.88527 0.0
H644 H 0.11265 0.50518 0.8437 0.0
H645 H 0.07171 0.56627 0.84395 0.0
C646 C 0.99913 0.57538 0.86503 0.0
C647 C 0.96263 0.57698 0.87818 0.0
C648 C 0.02286 0.54037 0.86491 0.0
C649 C 0.94963 0.54246 0.89063 0.0
C650 C 0.97222 0.50688 0.8897 0.0
C651 C 0.03251 0.47028 0.87643 0.0
C652 C 0.07019 0.46967 0.8645 0.0
C653 C 1.00908 0.50558 0.87705 0.0
C654 C 0.08408 0.50491 0.85323 0.0
C655 C 0.06049 0.53976 0.85319 0.0
H656 H 0.23168 0.28945 0.36573 0.0
H657 H 0.28163 0.35473 0.42685 0.0
H658 H 0.33175 0.30215 0.43321 0.0
H659 H 0.37129 0.24848 0.41432 0.0
H660 H 0.32557 0.18612 0.35086 0.0
H661 H 0.26354 0.22581 0.35259 0.0
C662 C 0.25222 0.29089 0.38122 0.0
C663 C 0.25314 0.3256 0.39591 0.0
C664 C 0.2824 0.26155 0.38384 0.0
C665 C 0.28038 0.32798 0.41554 0.0
C666 C 0.30934 0.2982 0.41894 0.0
C667 C 0.34693 0.24251 0.40154 0.0
C668 C 0.35286 0.21492 0.38238 0.0
C669 C 0.31224 0.26638 0.40217 0.0
C670 C 0.3214 0.20715 0.36586 0.0
C671 C 0.28618 0.23022 0.36667 0.0
H672 H 0.29925 0.66625 0.5615 0.0
H673 H 0.21831 0.71948 0.614 0.0
H674 H 0.2612 0.77883 0.61669 0.0
H675 H 0.33008 0.80624 0.61203 0.0
H676 H 0.41166 0.74967 0.56124 0.0
H677 H 0.36005 0.70203 0.54921 0.0
C678 C 0.29015 0.6917 0.57265 0.0
C679 C 0.25616 0.6884 0.58777 0.0
C680 C 0.31552 0.72508 0.57459 0.0
C681 C 0.24441 0.7214 0.60216 0.0
C682 C 0.26925 0.75515 0.60395 0.0
C683 C 0.33563 0.78482 0.59739 0.0
C684 C 0.37436 0.78172 0.58725 0.0
C685 C 0.30614 0.75614 0.5914 0.0
C686 C 0.38182 0.75317 0.56884 0.0
C687 C 0.35245 0.72544 0.56226 0.0
H688 H 0.63549 0.68993 0.40325 0.0
H689 H 0.6745 0.76574 0.34365 0.0
H690 H 0.73992 0.73229 0.34339 0.0
H691 H 0.77803 0.67067 0.3531 0.0
H692 H 0.73779 0.59388 0.41174 0.0
H693 H 0.68167 0.63911 0.42009 0.0
C694 C 0.6589 0.70003 0.39083 0.0
C695 C 0.65007 0.72959 0.37319 0.0
C696 C 0.69619 0.68022 0.39055 0.0
C697 C 0.68061 0.7429 0.35736 0.0
C698 C 0.71793 0.72352 0.35706 0.0
C699 C 0.75825 0.66522 0.36861 0.0
C700 C 0.76193 0.62924 0.38187 0.0
C701 C 0.72511 0.69063 0.3726 0.0
C702 C 0.73575 0.62172 0.40155 0.0
C703 C 0.70324 0.64726 0.40603 0.0
H704 H 0.77118 0.36288 0.60915 0.0
H705 H 0.71137 0.43547 0.55466 0.0
H706 H 0.6641 0.38132 0.54627 0.0
H707 H 0.62995 0.32216 0.5625 0.0
H708 H 0.686 0.25136 0.61932 0.0
H709 H 0.74501 0.29499 0.61839 0.0
C710 C 0.74903 0.36586 0.5946 0.0
C711 C 0.74442 0.40289 0.58254 0.0
C712 C 0.72067 0.33521 0.59078 0.0
C713 C 0.71527 0.40705 0.56406 0.0
C714 C 0.68803 0.37626 0.55947 0.0
C715 C 0.65585 0.31538 0.57393 0.0
C716 C 0.65345 0.28426 0.59127 0.0
C717 C 0.68884 0.34143 0.5739 0.0
C718 C 0.68715 0.27532 0.60587 0.0
C719 C 0.72071 0.3006 0.60555 0.0
H720 H 0.87978 0.79949 0.92247 0.0
H721 H 0.81962 0.72601 0.86886 0.0
H722 H 0.76225 0.77233 0.86868 0.0
H723 H 0.73762 0.8416 0.87665 0.0
H724 H 0.80117 0.9159 0.9285 0.0
H725 H 0.848 0.86129 0.93713 0.0
C726 C 0.85323 0.79273 0.91163 0.0
C727 C 0.85377 0.75951 0.89575 0.0
C728 C 0.82117 0.82019 0.91105 0.0
C729 C 0.81956 0.75111 0.88153 0.0
C730 C 0.78704 0.778 0.88114 0.0
C731 C 0.76059 0.84504 0.89065 0.0
C732 C 0.76611 0.8827 0.90191 0.0
C733 C 0.78855 0.81381 0.8948 0.0
C734 C 0.79643 0.88716 0.91966 0.0
C735 C 0.82344 0.85604 0.92443 0.0
H736 H 0.7978 0.12701 0.07015 0.0
H737 H 0.73598 0.18666 0.12934 0.0
H738 H 0.78183 0.2439 0.12596 0.0
H739 H 0.84822 0.2692 0.11208 0.0
H740 H 0.91091 0.20663 0.05423 0.0
H741 H 0.85557 0.1592 0.05049 0.0
C742 C 0.79342 0.15332 0.08161 0.0
C743 C 0.76371 0.1527 0.09996 0.0
C744 C 0.82047 0.18549 0.07992 0.0
C745 C 0.75835 0.18671 0.11486 0.0
C746 C 0.78495 0.21921 0.11313 0.0
C747 C 0.84883 0.2463 0.0979 0.0
C748 C 0.88366 0.2413 0.08346 0.0
C749 C 0.81739 0.21799 0.09655 0.0
C750 C 0.8844 0.21106 0.06549 0.0
C751 C 0.85293 0.18366 0.06353 0.0
H752 H 0.12391 0.22818 0.90975 0.0
H753 H 0.19049 0.30905 0.86349 0.0
H754 H 0.24823 0.26318 0.86411 0.0
H755 H 0.27357 0.19369 0.87088 0.0
H756 H 0.20446 0.11275 0.91575 0.0
H757 H 0.15461 0.16509 0.92326 0.0
C758 C 0.15163 0.23638 0.90055 0.0
C759 C 0.15295 0.27175 0.88652 0.0
C760 C 0.18422 0.20949 0.9006 0.0
C761 C 0.18892 0.28213 0.87462 0.0
C762 C 0.22177 0.25562 0.87474 0.0
C763 C 0.24857 0.18829 0.88323 0.0
C764 C 0.2427 0.14954 0.8929 0.0
C765 C 0.21906 0.21831 0.88671 0.0
C766 C 0.20966 0.14246 0.90832 0.0
C767 C 0.18092 0.17226 0.91238 0.0
H768 H 0.23568 0.87055 0.06908 0.0
H769 H 0.3116 0.82856 0.12795 0.0
H770 H 0.27091 0.76775 0.13173 0.0
H771 H 0.2048 0.73537 0.12457 0.0
H772 H 0.12782 0.78042 0.06708 0.0
H773 H 0.17817 0.83023 0.05584 0.0
C774 C 0.2442 0.84725 0.08204 0.0
C775 C 0.27628 0.85403 0.0983 0.0
C776 C 0.22009 0.81298 0.08447 0.0
C777 C 0.28716 0.82383 0.11509 0.0
C778 C 0.26355 0.78926 0.11745 0.0
C779 C 0.20014 0.75476 0.10878 0.0
C780 C 0.16289 0.7542 0.0965 0.0
C781 C 0.22867 0.78459 0.10313 0.0
C782 C 0.15651 0.78014 0.07654 0.0
C783 C 0.18508 0.80897 0.07034 0.0
H784 H 0.1993 0.58454 0.29281 0.0
H785 H 0.19517 0.48151 0.24498 0.0
H786 H 0.18518 0.52498 0.20929 0.0
H787 H 0.17071 0.59161 0.19243 0.0
H788 H 0.17195 0.69458 0.24043 0.0
H789 H 0.19072 0.65212 0.27515 0.0
C790 C 0.19715 0.57184 0.27448 0.0
C791 C 0.1976 0.53007 0.27143 0.0
C792 C 0.1905 0.59697 0.25412 0.0
C793 C 0.1945 0.5137 0.24767 0.0
C794 C 0.18869 0.53848 0.22731 0.0
C795 C 0.17523 0.60472 0.21047 0.0
C796 C 0.16951 0.64607 0.21385 0.0
C797 C 0.18537 0.58004 0.23043 0.0
C798 C 0.17634 0.66284 0.23725 0.0
C799 C 0.18684 0.63854 0.25718 0.0
H800 H 0.64215 0.86238 0.6909 0.0
H801 H 0.53609 0.81249 0.7244 0.0
H802 H 0.56381 0.82523 0.76538 0.0
H803 H 0.61713 0.85433 0.79179 0.0
H804 H 0.72355 0.90219 0.75786 0.0
H805 H 0.69681 0.88709 0.71701 0.0
C806 C 0.62535 0.85398 0.7072 0.0
C807 C 0.58721 0.83659 0.70469 0.0
C808 C 0.64136 0.86153 0.73063 0.0
C809 C 0.56578 0.8255 0.72591 0.0
C810 C 0.58141 0.83315 0.74933 0.0
C811 C 0.63421 0.86127 0.77536 0.0
C812 C 0.67204 0.87934 0.77762 0.0
C813 C 0.6189 0.85179 0.75193 0.0
C814 C 0.69441 0.88803 0.75638 0.0
C815 C 0.67914 0.87946 0.73309 0.0
H816 H 0.82638 0.36448 0.28234 0.0
H817 H 0.81973 0.47595 0.2425 0.0
H818 H 0.8338 0.44105 0.20385 0.0
H819 H 0.85725 0.3804 0.18267 0.0
H820 H 0.86718 0.2694 0.22295 0.0
H821 H 0.84202 0.30209 0.26 0.0
C822 C 0.82676 0.38067 0.26502 0.0
C823 C 0.82202 0.42239 0.26497 0.0
C824 C 0.83611 0.36059 0.24306 0.0
C825 C 0.82313 0.44361 0.24267 0.0
C826 C 0.83151 0.42378 0.22069 0.0
C827 C 0.85354 0.36341 0.19953 0.0
C828 C 0.86451 0.32279 0.20016 0.0
C829 C 0.83964 0.38254 0.22085 0.0
C830 C 0.85883 0.30074 0.22195 0.0
C831 C 0.84465 0.31945 0.24321 0.0
H832 H 0.3155 0.16867 0.75523 0.0
H833 H 0.41205 0.17317 0.80815 0.0
H834 H 0.45739 0.19902 0.77657 0.0
H835 H 0.47055 0.21612 0.73332 0.0
H836 H 0.37422 0.21013 0.68031 0.0
H837 H 0.32754 0.18959 0.71265 0.0
C838 C 0.34622 0.17601 0.76 0.0
C839 C 0.36038 0.16888 0.78402 0.0
C840 C 0.37215 0.19047 0.74171 0.0
C841 C 0.40055 0.17791 0.78973 0.0
C842 C 0.42643 0.19283 0.77171 0.0
C843 C 0.43915 0.21108 0.72897 0.0
C844 C 0.42578 0.21461 0.7045 0.0
C845 C 0.4127 0.19864 0.74756 0.0
C846 C 0.3852 0.20732 0.69901 0.0
C847 C 0.35855 0.1956 0.71747 0.0
H848 H 0.16412 0.42858 0.68871 0.0
H849 H 0.21764 0.52256 0.73196 0.0
H850 H 0.20571 0.48404 0.76974 0.0
H851 H 0.17512 0.42546 0.79052 0.0
H852 H 0.12432 0.33063 0.74674 0.0
H853 H 0.14007 0.36732 0.709 0.0
C854 C 0.17378 0.44012 0.70642 0.0
C855 C 0.19168 0.47807 0.70778 0.0
C856 C 0.16691 0.41784 0.72787 0.0
C857 C 0.20413 0.49311 0.73066 0.0
C858 C 0.19701 0.47129 0.75219 0.0
C859 C 0.1679 0.41295 0.77264 0.0
C860 C 0.1485 0.3757 0.77123 0.0
C861 C 0.17764 0.43398 0.75105 0.0
C862 C 0.13949 0.35923 0.74811 0.0
C863 C 0.14834 0.38023 0.7266 0.0
H864 H 0.37002 0.82034 0.28774 0.0
H865 H 0.44245 0.74821 0.23926 0.0
H866 H 0.40348 0.77177 0.20374 0.0
H867 H 0.35667 0.82195 0.1863 0.0
H868 H 0.28655 0.8959 0.23534 0.0
H869 H 0.31595 0.86215 0.2708 0.0
C870 C 0.37603 0.80861 0.26947 0.0
C871 C 0.40863 0.78251 0.26595 0.0
C872 C 0.35442 0.8233 0.24922 0.0
C873 C 0.41695 0.76785 0.24229 0.0
C874 C 0.39508 0.7818 0.222 0.0
C875 C 0.34751 0.83024 0.20476 0.0
C876 C 0.31998 0.86186 0.20816 0.0
C877 C 0.36504 0.81102 0.22516 0.0
C878 C 0.30763 0.8717 0.23216 0.0
C879 C 0.32463 0.85256 0.25249 0.0
H880 H 0.80057 0.56856 0.72775 0.0
H881 H 0.8251 0.66816 0.67965 0.0
H882 H 0.84093 0.71057 0.71516 0.0
H883 H 0.85593 0.71618 0.759 0.0
H884 H 0.8349 0.61567 0.80727 0.0
H885 H 0.80969 0.57638 0.77256 0.0
C886 C 0.80829 0.5999 0.72527 0.0
C887 C 0.8113 0.61571 0.70142 0.0
C888 C 0.81869 0.62348 0.74567 0.0
C889 C 0.82219 0.65588 0.69803 0.0
C890 C 0.83152 0.67988 0.71826 0.0
C891 C 0.84494 0.68606 0.76212 0.0
C892 C 0.84761 0.66879 0.78568 0.0
C893 C 0.83106 0.6636 0.74207 0.0
C894 C 0.83379 0.62941 0.78923 0.0
C895 C 0.81923 0.60701 0.76942 0.0
H896 H 0.64898 0.14328 0.30439 0.0
H897 H 0.56069 0.21139 0.26368 0.0
H898 H 0.59955 0.20309 0.22612 0.0
H899 H 0.65484 0.17064 0.20387 0.0
H900 H 0.74238 0.10108 0.24396 0.0
H901 H 0.70797 0.116 0.2826 0.0
C902 C 0.6385 0.1566 0.28734 0.0
C903 C 0.60191 0.17779 0.2869 0.0
C904 C 0.66075 0.15124 0.2656 0.0
C905 C 0.58898 0.19535 0.26469 0.0
C906 C 0.61099 0.19031 0.24308 0.0
C907 C 0.66651 0.15914 0.22113 0.0
C908 C 0.70083 0.1346 0.22104 0.0
C909 C 0.64633 0.16746 0.2432 0.0
C910 C 0.71614 0.12031 0.24354 0.0
C911 C 0.69628 0.12855 0.26563 0.0
H912 H 0.67443 0.20936 0.72797 0.0
H913 H 0.62031 0.11864 0.68201 0.0
H914 H 0.64032 0.0669 0.71096 0.0
H915 H 0.6687 0.04766 0.75062 0.0
H916 H 0.72323 0.13684 0.79716 0.0
H917 H 0.70898 0.18879 0.76631 0.0
C918 C 0.66751 0.17824 0.72417 0.0
C919 C 0.64497 0.16816 0.70314 0.0
C920 C 0.67942 0.14832 0.7409 0.0
C921 C 0.63637 0.12757 0.69843 0.0
C922 C 0.64817 0.09779 0.71486 0.0
C923 C 0.67784 0.07844 0.75383 0.0
C924 C 0.69651 0.08872 0.77608 0.0
C925 C 0.66891 0.10792 0.73636 0.0
C926 C 0.70886 0.12842 0.78003 0.0
C927 C 0.70039 0.15808 0.76253 0.0
H928 H 0.12184 0.29878 0.29838 0.0
H929 H 0.23029 0.31554 0.25613 0.0
H930 H 0.19551 0.2949 0.2189 0.0
H931 H 0.13161 0.28332 0.19721 0.0
H932 H 0.02213 0.2729 0.23882 0.0
H933 H 0.05965 0.27988 0.27738 0.0
C934 C 0.13795 0.29768 0.28108 0.0
C935 C 0.1784 0.3096 0.28009 0.0
C936 C 0.11737 0.28721 0.25952 0.0
C937 C 0.19916 0.30668 0.25759 0.0
C938 C 0.17918 0.29517 0.23615 0.0
C939 C 0.1164 0.28137 0.21482 0.0
C940 C 0.07453 0.27746 0.21549 0.0
C941 C 0.13795 0.28694 0.23674 0.0
C942 C 0.05455 0.27562 0.23817 0.0
C943 C 0.07591 0.27989 0.2601 0.0
H944 H 0.33807 0.84296 0.71252 0.0
H945 H 0.39069 0.94101 0.67198 0.0
H946 H 0.36784 0.98811 0.70309 0.0
H947 H 0.34284 1.00001 0.74487 0.0
H948 H 0.29287 0.90228 0.78665 0.0
H949 H 0.30472 0.85647 0.75211 0.0
C950 C 0.34406 0.87469 0.71035 0.0
C951 C 0.36686 0.88814 0.69016 0.0
C952 C 0.33187 0.90161 0.72875 0.0
C953 C 0.37334 0.92957 0.68726 0.0
C954 C 0.36064 0.95661 0.70523 0.0
C955 C 0.33408 0.96875 0.74621 0.0
C956 C 0.31775 0.95418 0.76828 0.0
C957 C 0.34149 0.94271 0.72651 0.0
C958 C 0.30568 0.91396 0.7698 0.0
C959 C 0.31264 0.88781 0.75013 0.0
H960 H 0.99672 0.69233 0.24821 0.0
H961 H 0.90567 0.72434 0.19535 0.0
H962 H 0.85306 0.71079 0.22575 0.0
H963 H 0.83388 0.67649 0.26403 0.0
H964 H 0.92587 0.64157 0.31583 0.0
H965 H 0.97707 0.67118 0.28978 0.0
C966 C 0.96535 0.6975 0.24372 0.0
C967 C 0.95467 0.70863 0.21971 0.0
C968 C 0.93551 0.68878 0.26104 0.0
C969 C 0.91423 0.71565 0.21384 0.0
C970 C 0.88427 0.70762 0.23113 0.0
C971 C 0.86505 0.67612 0.26983 0.0
C972 C 0.8761 0.65532 0.29134 0.0
C973 C 0.89459 0.69208 0.25431 0.0
C974 C 0.91639 0.65654 0.29916 0.0
C975 C 0.94588 0.67323 0.28413 0.0
H976 H 0.71378 0.94121 0.2317 0.0
H977 H 0.6884 0.87001 0.16743 0.0
H978 H 0.66469 0.81505 0.19356 0.0
H979 H 0.64044 0.79306 0.23403 0.0
H980 H 0.66491 0.86539 0.29821 0.0
H981 H 0.69941 0.91443 0.27273 0.0
C982 C 0.70407 0.91314 0.22354 0.0
C983 C 0.70233 0.90951 0.19783 0.0
C984 C 0.68938 0.88247 0.23859 0.0
C985 C 0.69005 0.87319 0.18724 0.0
C986 C 0.67606 0.84206 0.20217 0.0
C987 C 0.65412 0.81898 0.24259 0.0
C988 C 0.64899 0.826 0.26795 0.0
C989 C 0.6739 0.84718 0.22779 0.0
C990 C 0.66711 0.85985 0.27865 0.0
C991 C 0.68717 0.8878 0.26411 0.0
H992 H 0.98783 0.38764 0.74901 0.0
H993 H 0.89163 0.33472 0.79087 0.0
H994 H 0.84476 0.3474 0.75689 0.0
H995 H 0.83065 0.37849 0.71709 0.0
H996 H 0.92778 0.4296 0.67468 0.0
H997 H 0.97478 0.41308 0.7074 0.0
C998 C 0.9566 0.37869 0.75055 0.0
C999 C 0.94286 0.36075 0.77236 0.0
C1000 C 0.93004 0.38618 0.73108 0.0
C1001 C 0.90267 0.34858 0.77416 0.0
C1002 C 0.87595 0.35603 0.75484 0.0
C1003 C 0.86209 0.38555 0.71461 0.0
C1004 C 0.87517 0.40604 0.69337 0.0
C1005 C 0.88919 0.37553 0.73341 0.0
C1006 C 0.91632 0.41484 0.69092 0.0
C1007 C 0.94343 0.40514 0.70961 0.0
H1008 H 0.29703 0.0701 0.21952 0.0
H1009 H 0.35681 0.14388 0.16592 0.0
H1010 H 0.37609 0.19144 0.19826 0.0
H1011 H 0.38814 0.20298 0.24255 0.0
H1012 H 0.33215 0.12562 0.29596 0.0
H1013 H 0.29885 0.08848 0.26308 0.0
C1014 C 0.31293 0.09748 0.21491 0.0
C1015 C 0.32579 0.10369 0.19064 0.0
C1016 C 0.32542 0.12333 0.23367 0.0
C1017 C 0.3465 0.13888 0.18458 0.0
C1018 C 0.35796 0.16567 0.20311 0.0
C1019 C 0.36769 0.17876 0.24694 0.0
C1020 C 0.36329 0.16631 0.27151 0.0
C1021 C 0.34951 0.15692 0.22786 0.0
C1022 C 0.33676 0.13493 0.27708 0.0
C1023 C 0.31764 0.11382 0.25832 0.0
H1024 H 0.02104 0.69363 0.75426 0.0
H1025 H 0.12198 0.7206 0.80113 0.0
H1026 H 0.16743 0.71572 0.76574 0.0
H1027 H 0.17864 0.69639 0.72272 0.0
H1028 H 0.07729 0.66871 0.67611 0.0
H1029 H 0.03161 0.68069 0.71041 0.0
C1030 C 0.053 0.69874 0.75664 0.0
C1031 C 0.06841 0.70688 0.78019 0.0
C1032 C 0.07874 0.6952 0.73642 0.0
C1033 C 0.10961 0.71428 0.7831 0.0
C1034 C 0.13552 0.7112 0.76294 0.0
C1035 C 0.14656 0.69379 0.71984 0.0
C1036 C 0.1315 0.68112 0.69689 0.0
C1037 C 0.12048 0.70064 0.73966 0.0
C1038 C 0.08976 0.67756 0.69368 0.0
C1039 C 0.0636 0.68461 0.71325 0.0
H1040 H 0.21442 0.46892 0.53271 0.0
H1041 H 0.20359 0.59725 0.52534 0.0
H1042 H 0.19283 0.59017 0.48107 0.0
H1043 H 0.18721 0.54721 0.44428 0.0
H1044 H 0.19782 0.41888 0.4523 0.0
H1045 H 0.2087 0.42629 0.49632 0.0
C1046 C 0.21014 0.49535 0.52138 0.0
C1047 C 0.20981 0.53348 0.5323 0.0
C1048 C 0.20408 0.49107 0.496 0.0
C1049 C 0.20349 0.56747 0.51743 0.0
C1050 C 0.19753 0.56347 0.49209 0.0
C1051 C 0.19165 0.52095 0.45573 0.0
C1052 C 0.19213 0.48266 0.44495 0.0
C1053 C 0.19768 0.52538 0.48118 0.0
C1054 C 0.19818 0.4488 0.45998 0.0
C1055 C 0.20413 0.45295 0.48523 0.0
H1056 H 0.45804 0.76959 0.44717 0.0
H1057 H 0.58243 0.79359 0.43052 0.0
H1058 H 0.59562 0.80812 0.47368 0.0
H1059 H 0.57155 0.81546 0.51622 0.0
H1060 H 0.44708 0.79213 0.53263 0.0
H1061 H 0.43461 0.77446 0.48985 0.0
C1062 C 0.48811 0.77759 0.45301 0.0
C1063 C 0.51897 0.78095 0.4355 0.0
C1064 C 0.49564 0.78558 0.47795 0.0
C1065 C 0.55777 0.79169 0.44341 0.0
C1066 C 0.56549 0.79967 0.46818 0.0
C1067 C 0.54178 0.80634 0.5104 0.0
C1068 C 0.51048 0.80469 0.52769 0.0
C1069 C 0.53459 0.79703 0.48558 0.0
C1070 C 0.47202 0.79263 0.51992 0.0
C1071 C 0.4647 0.78303 0.49533 0.0
H1072 H 0.78652 0.54926 0.43949 0.0
H1073 H 0.79401 0.4208 0.44819 0.0
H1074 H 0.78614 0.42821 0.49274 0.0
H1075 H 0.78137 0.47154 0.52908 0.0
H1076 H 0.77508 0.5999 0.52031 0.0
H1077 H 0.77697 0.59217 0.47547 0.0
C1078 C 0.78541 0.52272 0.45095 0.0
C1079 C 0.79083 0.48442 0.44049 0.0
C1080 C 0.78132 0.52729 0.47644 0.0
C1081 C 0.79024 0.45055 0.45584 0.0
C1082 C 0.78574 0.4548 0.48126 0.0
C1083 C 0.78066 0.49782 0.51734 0.0
C1084 C 0.77889 0.53632 0.52788 0.0
C1085 C 0.78216 0.49308 0.49176 0.0
C1086 C 0.77658 0.57006 0.51252 0.0
C1087 C 0.77783 0.56561 0.48697 0.0
H1088 H 0.52439 0.13256 0.46401 0.0
H1089 H 0.46876 0.24043 0.43593 0.0
H1090 H 0.46779 0.26887 0.47719 0.0
H1091 H 0.48087 0.2622 0.52177 0.0
H1092 H 0.53164 0.15184 0.54947 0.0
H1093 H 0.53529 0.12497 0.50795 0.0
C1094 C 0.5117 0.16215 0.46682 0.0
C1095 C 0.49659 0.18402 0.44673 0.0
C1096 C 0.50994 0.17782 0.49067 0.0
C1097 C 0.48118 0.22285 0.45084 0.0
C1098 C 0.48015 0.23907 0.47455 0.0
C1099 C 0.49227 0.23216 0.51868 0.0
C1100 C 0.50632 0.20926 0.53864 0.0
C1101 C 0.49401 0.21662 0.49467 0.0
C1102 C 0.52136 0.17042 0.53437 0.0
C1103 C 0.52336 0.15493 0.51064 0.0
H1104 H 0.70016 0.96707 0.95479 0.0
H1105 H 0.71066 0.09582 0.95035 0.0
H1106 H 0.7052 0.10077 -0.00494 0.0
H1107 H 0.69713 0.06846 0.03535 0.0
H1108 H 0.68541 0.93992 0.03966 0.0
H1109 H 0.69085 0.93492 -0.0051 0.0
C1110 C 0.70064 0.99627 0.96352 0.0
C1111 C 0.70577 0.03103 0.94921 0.0
C1112 C 0.69728 0.9989 0.98918 0.0
C1113 C 0.70718 0.06857 0.96095 0.0
C1114 C 0.70391 0.07144 0.9865 0.0
C1115 C 0.69618 0.03936 0.02648 0.0
C1116 C 0.69105 1.00459 0.04074 0.0
C1117 C 0.69915 0.03678 0.00079 0.0
C1118 C 0.68904 0.96711 0.02901 0.0
C1119 C 0.69228 0.96424 0.00346 0.0
H1120 H 0.06843 0.34474 0.95199 0.0
H1121 H 0.94016 0.3273 0.9468 0.0
H1122 H 0.93657 0.31686 -0.00889 0.0
H1123 H 0.97015 0.3095 0.03096 0.0
H1124 H 0.09855 0.3239 0.03608 0.0
H1125 H 0.102 0.33771 -0.00813 0.0
C1126 C 0.0397 0.33825 0.96041 0.0
C1127 C 1.00465 0.33666 0.94592 0.0
C1128 C 0.03793 0.33149 0.98585 0.0
C1129 C 0.96758 0.32917 0.95743 0.0
C1130 C 0.96551 0.32291 0.98278 0.0
C1131 C 0.99879 0.31626 0.02246 0.0
C1132 C 0.03404 0.31591 0.0367 0.0
C1133 C 1.00051 0.32373 -0.00289 0.0
C1134 C 0.07109 0.32379 0.02538 0.0
C1135 C 0.07302 0.33178 0.00018 0.0
H1136 H 0.31882 0.94861 0.02778 0.0
H1137 H 0.35291 0.07299 0.03367 0.0
H1138 H 0.33948 0.08268 0.98994 0.0
H1139 H 0.32174 0.05503 0.94976 0.0
H1140 H 0.28799 0.93073 0.94333 0.0
H1141 H 0.29718 0.92179 0.98773 0.0
C1142 C 0.32278 0.97795 0.01958 0.0
C1143 C 0.33718 0.00994 0.03397 0.0
C1144 C 0.31509 0.98328 -0.00563 0.0
C1145 C 0.3426 0.04768 0.02295 0.0
C1146 C 0.33467 0.05332 -0.00203 0.0
C1147 C 0.31548 0.02621 0.9581 0.0
C1148 C 0.30401 0.99359 0.94328 0.0
C1149 C 0.32138 0.02123 0.98346 0.0
C1150 C 0.29703 0.95619 0.95437 0.0
C1151 C 0.30229 0.9511 0.97971 0.0
H1152 H 0.03774 0.65177 0.96133 0.0
H1153 H 0.98092 0.76697 0.95145 0.0
H1154 H 0.97962 0.77714 -0.00403 0.0
H1155 H 0.99393 0.75288 0.03755 0.0
H1156 H 0.04952 0.63709 0.04776 0.0
H1157 H 0.05252 0.62761 0.00319 0.0
C1158 C 0.02564 0.67929 0.96897 0.0
C1159 C 1.00948 0.70861 0.95324 0.0
C1160 C 0.02461 0.68468 -0.00544 0.0
C1161 C 0.99322 0.74389 0.9633 0.0
C1162 C 0.9925 0.74971 0.9887 0.0
C1163 C 1.00622 0.72536 0.03005 0.0
C1164 C 0.02131 0.69567 0.04592 0.0
C1165 C 1.00773 0.72012 0.00449 0.0
C1166 C 0.03799 0.66053 0.03589 0.0
C1167 C 0.03963 0.65505 0.01043 0.0
loop_
_geom_bond_atom_site_label_1
_geom_bond_atom_site_label_2
_geom_bond_distance
_geom_bond_site_symmetry_2
_ccdc_geom_bond_type
C0 C1 1.351 . S
C0 N3 1.368 . S
C0 H5 0.931 . S
C1 C0 1.351 . S
C1 N2 1.373 . S
C1 H29 0.930 . S
N2 C1 1.373 . S
N2 C4 1.340 . S
N3 C0 1.368 . S
N3 C4 1.321 . S
N3 Co6 2.135 . S
C4 N2 1.340 . S
C4 N3 1.321 . S
C4 H28 0.930 . S
H5 C0 0.931 . S
Co6 N3 2.135 . S
Co6 N9 2.121 . S
Co6 O14 2.055 . S
Co6 O17 2.039 . S
Co6 N20 2.140 . S
C7 O8 1.227 . S
C7 O17 1.265 . S
O8 C7 1.227 . S
N9 Co6 2.121 . S
N9 C11 1.375 . S
N9 C12 1.313 . S
C10 C11 1.338 . S
C10 N13 1.377 . S
C10 H30 0.930 . S
C11 N9 1.375 . S
C11 C10 1.338 . S
C11 H15 0.931 . S
C12 N9 1.313 . S
C12 N13 1.344 . S
C12 H16 0.930 . S
N13 C10 1.377 . S
N13 C12 1.344 . S
O14 Co6 2.055 . S
O14 C18 1.253 . S
H15 C11 0.931 . S
H16 C12 0.930 . S
O17 Co6 2.039 . S
O17 C7 1.265 . S
C18 O14 1.253 . S
C18 O19 1.227 . S
O19 C18 1.227 . S
N20 Co6 2.140 . S
N20 C23 1.346 . S
N20 C24 1.345 . S
C21 C22 1.387 . S
C21 C25 1.391 . S
C22 C21 1.387 . S
C22 C23 1.369 . S
C22 H31 0.929 . S
C23 N20 1.346 . S
C23 C22 1.369 . S
C23 H26 0.928 . S
C24 N20 1.345 . S
C24 C25 1.371 . S
C24 H27 0.931 . S
C25 C21 1.391 . S
C25 C24 1.371 . S
C25 H32 0.930 . S
H26 C23 0.928 . S
H27 C24 0.931 . S
H28 C4 0.930 . S
H29 C1 0.930 . S
H30 C10 0.930 . S
H31 C22 0.929 . S
H32 C25 0.930 . S
C33 C34 1.351 . S
C33 N36 1.368 . S
C33 H38 0.931 . S
C34 C33 1.351 . S
C34 N35 1.373 . S
C34 H62 0.930 . S
N35 C34 1.373 . S
N35 C37 1.340 . S
N36 C33 1.368 . S
N36 C37 1.321 . S
N36 Co39 2.135 . S
C37 N35 1.340 . S
C37 N36 1.321 . S
C37 H61 0.930 . S
H38 C33 0.931 . S
Co39 N36 2.135 . S
Co39 N42 2.121 . S
Co39 O47 2.055 . S
Co39 O50 2.039 . S
Co39 N53 2.140 . S
C40 O41 1.227 . S
C40 O50 1.265 . S
O41 C40 1.227 . S
N42 Co39 2.121 . S
N42 C44 1.375 . S
N42 C45 1.313 . S
C43 C44 1.338 . S
C43 N46 1.377 . S
C43 H63 0.930 . S
C44 N42 1.375 . S
C44 C43 1.338 . S
C44 H48 0.931 . S
C45 N42 1.313 . S
C45 N46 1.344 . S
C45 H49 0.930 . S
N46 C43 1.377 . S
N46 C45 1.344 . S
O47 Co39 2.055 . S
O47 C51 1.253 . S
H48 C44 0.931 . S
H49 C45 0.930 . S
O50 Co39 2.039 . S
O50 C40 1.265 . S
C51 O47 1.253 . S
C51 O52 1.227 . S
O52 C51 1.227 . S
N53 Co39 2.140 . S
N53 C56 1.346 . S
N53 C57 1.345 . S
C54 C55 1.387 . S
C54 C58 1.391 . S
C55 C54 1.387 . S
C55 C56 1.369 . S
C55 H64 0.929 . S
C56 N53 1.346 . S
C56 C55 1.369 . S
C56 H59 0.928 . S
C57 N53 1.345 . S
C57 C58 1.371 . S
C57 H60 0.931 . S
C58 C54 1.391 . S
C58 C57 1.371 . S
C58 H65 0.930 . S
H59 C56 0.928 . S
H60 C57 0.931 . S
H61 C37 0.930 . S
H62 C34 0.930 . S
H63 C43 0.930 . S
H64 C55 0.929 . S
H65 C58 0.930 . S
C66 C67 1.351 . S
C66 N69 1.368 . S
C66 H71 0.931 . S
C67 C66 1.351 . S
C67 N68 1.373 . S
C67 H95 0.930 . S
N68 C67 1.373 . S
N68 C70 1.340 . S
N69 C66 1.368 . S
N69 C70 1.321 . S
N69 Co72 2.135 . S
C70 N68 1.340 . S
C70 N69 1.321 . S
C70 H94 0.930 . S
H71 C66 0.931 . S
Co72 N69 2.135 . S
Co72 N75 2.121 . S
Co72 O80 2.055 . S
Co72 O83 2.039 . S
Co72 N86 2.140 . S
C73 O74 1.227 . S
C73 O83 1.265 . S
O74 C73 1.227 . S
N75 Co72 2.121 . S
N75 C77 1.375 . S
N75 C78 1.313 . S
C76 C77 1.338 . S
C76 N79 1.377 . S
C76 H96 0.930 . S
C77 N75 1.375 . S
C77 C76 1.338 . S
C77 H81 0.931 . S
C78 N75 1.313 . S
C78 N79 1.344 . S
C78 H82 0.930 . S
N79 C76 1.377 . S
N79 C78 1.344 . S
O80 Co72 2.055 . S
O80 C84 1.253 . S
H81 C77 0.931 . S
H82 C78 0.930 . S
O83 Co72 2.039 . S
O83 C73 1.265 . S
C84 O80 1.253 . S
C84 O85 1.227 . S
O85 C84 1.227 . S
N86 Co72 2.140 . S
N86 C89 1.346 . S
N86 C90 1.345 . S
C87 C88 1.387 . S
C87 C91 1.391 . S
C88 C87 1.387 . S
C88 C89 1.369 . S
C88 H97 0.929 . S
C89 N86 1.346 . S
C89 C88 1.369 . S
C89 H92 0.928 . S
C90 N86 1.345 . S
C90 C91 1.371 . S
C90 H93 0.931 . S
C91 C87 1.391 . S
C91 C90 1.371 . S
C91 H98 0.930 . S
H92 C89 0.928 . S
H93 C90 0.931 . S
H94 C70 0.930 . S
H95 C67 0.930 . S
H96 C76 0.930 . S
H97 C88 0.929 . S
H98 C91 0.930 . S
C99 C100 1.351 . S
C99 N102 1.368 . S
C99 H104 0.931 . S
C100 C99 1.351 . S
C100 N101 1.373 . S
C100 H128 0.930 . S
N101 C100 1.373 . S
N101 C103 1.340 . S
N102 C99 1.368 . S
N102 C103 1.321 . S
N102 Co105 2.135 . S
C103 N101 1.340 . S
C103 N102 1.321 . S
C103 H127 0.930 . S
H104 C99 0.931 . S
Co105 N102 2.135 . S
Co105 N108 2.121 . S
Co105 O113 2.055 . S
Co105 O116 2.039 . S
Co105 N119 2.140 . S
C106 O107 1.227 . S
C106 O116 1.265 . S
O107 C106 1.227 . S
N108 Co105 2.121 . S
N108 C110 1.375 . S
N108 C111 1.313 . S
C109 C110 1.338 . S
C109 N112 1.377 . S
C109 H129 0.930 . S
C110 N108 1.375 . S
C110 C109 1.338 . S
C110 H114 0.931 . S
C111 N108 1.313 . S
C111 N112 1.344 . S
C111 H115 0.930 . S
N112 C109 1.377 . S
N112 C111 1.344 . S
O113 Co105 2.055 . S
O113 C117 1.253 . S
H114 C110 0.931 . S
H115 C111 0.930 . S
O116 Co105 2.039 . S
O116 C106 1.265 . S
C117 O113 1.253 . S
C117 O118 1.227 . S
O118 C117 1.227 . S
N119 Co105 2.140 . S
N119 C122 1.346 . S
N119 C123 1.345 . S
C120 C121 1.387 . S
C120 C124 1.391 . S
C121 C120 1.387 . S
C121 C122 1.369 . S
C121 H130 0.929 . S
C122 N119 1.346 . S
C122 C121 1.369 . S
C122 H125 0.928 . S
C123 N119 1.345 . S
C123 C124 1.371 . S
C123 H126 0.931 . S
C124 C120 1.391 . S
C124 C123 1.371 . S
C124 H131 0.930 . S
H125 C122 0.928 . S
H126 C123 0.931 . S
H127 C103 0.930 . S
H128 C100 0.930 . S
H129 C109 0.930 . S
H130 C121 0.929 . S
H131 C124 0.930 . S
C132 C133 1.351 . S
C132 N135 1.368 . S
C132 H137 0.931 . S
C133 C132 1.351 . S
C133 N134 1.373 . S
C133 H161 0.930 . S
N134 C133 1.373 . S
N134 C136 1.340 . S
N135 C132 1.368 . S
N135 C136 1.321 . S
N135 Co138 2.135 . S
C136 N134 1.340 . S
C136 N135 1.321 . S
C136 H160 0.930 . S
H137 C132 0.931 . S
Co138 N135 2.135 . S
Co138 N141 2.121 . S
Co138 O146 2.055 . S
Co138 O149 2.039 . S
Co138 N152 2.140 . S
C139 O140 1.227 . S
C139 O149 1.265 . S
O140 C139 1.227 . S
N141 Co138 2.121 . S
N141 C143 1.375 . S
N141 C144 1.313 . S
C142 C143 1.338 . S
C142 N145 1.377 . S
C142 H162 0.930 . S
C143 N141 1.375 . S
C143 C142 1.338 . S
C143 H147 0.931 . S
C144 N141 1.313 . S
C144 N145 1.344 . S
C144 H148 0.930 . S
N145 C142 1.377 . S
N145 C144 1.344 . S
O146 Co138 2.055 . S
O146 C150 1.253 . S
H147 C143 0.931 . S
H148 C144 0.930 . S
O149 Co138 2.039 . S
O149 C139 1.265 . S
C150 O146 1.253 . S
C150 O151 1.227 . S
O151 C150 1.227 . S
N152 Co138 2.140 . S
N152 C155 1.346 . S
N152 C156 1.345 . S
C153 C154 1.387 . S
C153 C157 1.391 . S
C154 C153 1.387 . S
C154 C155 1.369 . S
C154 H163 0.929 . S
C155 N152 1.346 . S
C155 C154 1.369 . S
C155 H158 0.928 . S
C156 N152 1.345 . S
C156 C157 1.371 . S
C156 H159 0.931 . S
C157 C153 1.391 . S
C157 C156 1.371 . S
C157 H164 0.930 . S
H158 C155 0.928 . S
H159 C156 0.931 . S
H160 C136 0.930 . S
H161 C133 0.930 . S
H162 C142 0.930 . S
H163 C154 0.929 . S
H164 C157 0.930 . S
C165 C166 1.351 . S
C165 N168 1.368 . S
C165 H170 0.931 . S
C166 C165 1.351 . S
C166 N167 1.373 . S
C166 H194 0.930 . S
N167 C166 1.373 . S
N167 C169 1.340 . S
N168 C165 1.368 . S
N168 C169 1.321 . S
N168 Co171 2.135 . S
C169 N167 1.340 . S
C169 N168 1.321 . S
C169 H193 0.930 . S
H170 C165 0.931 . S
Co171 N168 2.135 . S
Co171 N174 2.121 . S
Co171 O179 2.055 . S
Co171 O182 2.039 . S
Co171 N185 2.140 . S
C172 O173 1.227 . S
C172 O182 1.265 . S
O173 C172 1.227 . S
N174 Co171 2.121 . S
N174 C176 1.375 . S
N174 C177 1.313 . S
C175 C176 1.338 . S
C175 N178 1.377 . S
C175 H195 0.930 . S
C176 N174 1.375 . S
C176 C175 1.338 . S
C176 H180 0.931 . S
C177 N174 1.313 . S
C177 N178 1.344 . S
C177 H181 0.930 . S
N178 C175 1.377 . S
N178 C177 1.344 . S
O179 Co171 2.055 . S
O179 C183 1.253 . S
H180 C176 0.931 . S
H181 C177 0.930 . S
O182 Co171 2.039 . S
O182 C172 1.265 . S
C183 O179 1.253 . S
C183 O184 1.227 . S
O184 C183 1.227 . S
N185 Co171 2.140 . S
N185 C188 1.346 . S
N185 C189 1.345 . S
C186 C187 1.387 . S
C186 C190 1.391 . S
C187 C186 1.387 . S
C187 C188 1.369 . S
C187 H196 0.929 . S
C188 N185 1.346 . S
C188 C187 1.369 . S
C188 H191 0.928 . S
C189 N185 1.345 . S
C189 C190 1.371 . S
C189 H192 0.931 . S
C190 C186 1.391 . S
C190 C189 1.371 . S
C190 H197 0.930 . S
H191 C188 0.928 . S
H192 C189 0.931 . S
H193 C169 0.930 . S
H194 C166 0.930 . S
H195 C175 0.930 . S
H196 C187 0.929 . S
H197 C190 0.930 . S
C198 C199 1.351 . S
C198 N201 1.368 . S
C198 H203 0.931 . S
C199 C198 1.351 . S
C199 N200 1.373 . S
C199 H227 0.930 . S
N200 C199 1.373 . S
N200 C202 1.340 . S
N201 C198 1.368 . S
N201 C202 1.321 . S
N201 Co204 2.135 . S
C202 N200 1.340 . S
C202 N201 1.321 . S
C202 H226 0.930 . S
H203 C198 0.931 . S
Co204 N201 2.135 . S
Co204 N207 2.121 . S
Co204 O212 2.055 . S
Co204 O215 2.039 . S
Co204 N218 2.140 . S
C205 O206 1.227 . S
C205 O215 1.265 . S
O206 C205 1.227 . S
N207 Co204 2.121 . S
N207 C209 1.375 . S
N207 C210 1.313 . S
C208 C209 1.338 . S
C208 N211 1.377 . S
C208 H228 0.930 . S
C209 N207 1.375 . S
C209 C208 1.338 . S
C209 H213 0.931 . S
C210 N207 1.313 . S
C210 N211 1.344 . S
C210 H214 0.930 . S
N211 C208 1.377 . S
N211 C210 1.344 . S
O212 Co204 2.055 . S
O212 C216 1.253 . S
H213 C209 0.931 . S
H214 C210 0.930 . S
O215 Co204 2.039 . S
O215 C205 1.265 . S
C216 O212 1.253 . S
C216 O217 1.227 . S
O217 C216 1.227 . S
N218 Co204 2.140 . S
N218 C221 1.346 . S
N218 C222 1.345 . S
C219 C220 1.387 . S
C219 C223 1.391 . S
C220 C219 1.387 . S
C220 C221 1.369 . S
C220 H229 0.929 . S
C221 N218 1.346 . S
C221 C220 1.369 . S
C221 H224 0.928 . S
C222 N218 1.345 . S
C222 C223 1.371 . S
C222 H225 0.931 . S
C223 C219 1.391 . S
C223 C222 1.371 . S
C223 H230 0.930 . S
H224 C221 0.928 . S
H225 C222 0.931 . S
H226 C202 0.930 . S
H227 C199 0.930 . S
H228 C208 0.930 . S
H229 C220 0.929 . S
H230 C223 0.930 . S
C231 C232 1.351 . S
C231 N234 1.368 . S
C231 H236 0.931 . S
C232 C231 1.351 . S
C232 N233 1.373 . S
C232 H260 0.930 . S
N233 C232 1.373 . S
N233 C235 1.340 . S
N234 C231 1.368 . S
N234 C235 1.321 . S
N234 Co237 2.135 . S
C235 N233 1.340 . S
C235 N234 1.321 . S
C235 H259 0.930 . S
H236 C231 0.931 . S
Co237 N234 2.135 . S
Co237 N240 2.121 . S
Co237 O245 2.055 . S
Co237 O248 2.039 . S
Co237 N251 2.140 . S
C238 O239 1.227 . S
C238 O248 1.265 . S
O239 C238 1.227 . S
N240 Co237 2.121 . S
N240 C242 1.375 . S
N240 C243 1.313 . S
C241 C242 1.338 . S
C241 N244 1.377 . S
C241 H261 0.930 . S
C242 N240 1.375 . S
C242 C241 1.338 . S
C242 H246 0.931 . S
C243 N240 1.313 . S
C243 N244 1.344 . S
C243 H247 0.930 . S
N244 C241 1.377 . S
N244 C243 1.344 . S
O245 Co237 2.055 . S
O245 C249 1.253 . S
H246 C242 0.931 . S
H247 C243 0.930 . S
O248 Co237 2.039 . S
O248 C238 1.265 . S
C249 O245 1.253 . S
C249 O250 1.227 . S
O250 C249 1.227 . S
N251 Co237 2.140 . S
N251 C254 1.346 . S
N251 C255 1.345 . S
C252 C253 1.387 . S
C252 C256 1.391 . S
C253 C252 1.387 . S
C253 C254 1.369 . S
C253 H262 0.929 . S
C254 N251 1.346 . S
C254 C253 1.369 . S
C254 H257 0.928 . S
C255 N251 1.345 . S
C255 C256 1.371 . S
C255 H258 0.931 . S
C256 C252 1.391 . S
C256 C255 1.371 . S
C256 H263 0.930 . S
H257 C254 0.928 . S
H258 C255 0.931 . S
H259 C235 0.930 . S
H260 C232 0.930 . S
H261 C241 0.930 . S
H262 C253 0.929 . S
H263 C256 0.930 . S
C264 C265 1.351 . S
C264 N267 1.368 . S
C264 H269 0.931 . S
C265 C264 1.351 . S
C265 N266 1.373 . S
C265 H293 0.930 . S
N266 C265 1.373 . S
N266 C268 1.340 . S
N267 C264 1.368 . S
N267 C268 1.321 . S
N267 Co270 2.135 . S
C268 N266 1.340 . S
C268 N267 1.321 . S
C268 H292 0.930 . S
H269 C264 0.931 . S
Co270 N267 2.135 . S
Co270 N273 2.121 . S
Co270 O278 2.055 . S
Co270 O281 2.039 . S
Co270 N284 2.140 . S
C271 O272 1.227 . S
C271 O281 1.265 . S
O272 C271 1.227 . S
N273 Co270 2.121 . S
N273 C275 1.375 1_565 S
N273 C276 1.313 . S
C274 C275 1.338 . S
C274 N277 1.377 . S
C274 H294 0.930 . S
C275 N273 1.375 1_545 S
C275 C274 1.338 . S
C275 H279 0.931 . S
C276 N273 1.313 . S
C276 N277 1.344 1_565 S
C276 H280 0.930 . S
N277 C274 1.377 . S
N277 C276 1.344 1_545 S
O278 Co270 2.055 . S
O278 C282 1.253 . S
H279 C275 0.931 . S
H280 C276 0.930 . S
O281 Co270 2.039 . S
O281 C271 1.265 . S
C282 O278 1.253 . S
C282 O283 1.227 . S
O283 C282 1.227 . S
N284 Co270 2.140 . S
N284 C287 1.346 1_565 S
N284 C288 1.345 1_565 S
C285 C286 1.387 . S
C285 C289 1.391 . S
C286 C285 1.387 . S
C286 C287 1.369 . S
C286 H295 0.929 . S
C287 N284 1.346 1_545 S
C287 C286 1.369 . S
C287 H290 0.928 1_545 S
C288 N284 1.345 1_545 S
C288 C289 1.371 . S
C288 H291 0.931 . S
C289 C285 1.391 . S
C289 C288 1.371 . S
C289 H296 0.930 . S
H290 C287 0.928 1_565 S
H291 C288 0.931 . S
H292 C268 0.930 . S
H293 C265 0.930 . S
H294 C274 0.930 . S
H295 C286 0.929 . S
H296 C289 0.930 . S
C297 C298 1.351 . S
C297 N300 1.368 . S
C297 H302 0.931 . S
C298 C297 1.351 . S
C298 N299 1.373 . S
C298 H326 0.930 . S
N299 C298 1.373 . S
N299 C301 1.340 . S
N300 C297 1.368 . S
N300 C301 1.321 . S
N300 Co303 2.135 . S
C301 N299 1.340 . S
C301 N300 1.321 . S
C301 H325 0.930 . S
H302 C297 0.931 . S
Co303 N300 2.135 . S
Co303 N306 2.121 . S
Co303 O311 2.055 . S
Co303 O314 2.039 . S
Co303 N317 2.140 . S
C304 O305 1.227 . S
C304 O314 1.265 . S
O305 C304 1.227 . S
N306 Co303 2.121 . S
N306 C308 1.375 1_655 S
N306 C309 1.313 . S
C307 C308 1.338 . S
C307 N310 1.377 . S
C307 H327 0.930 . S
C308 N306 1.375 1_455 S
C308 C307 1.338 . S
C308 H312 0.931 . S
C309 N306 1.313 . S
C309 N310 1.344 1_655 S
C309 H313 0.930 . S
N310 C307 1.377 . S
N310 C309 1.344 1_455 S
O311 Co303 2.055 . S
O311 C315 1.253 . S
H312 C308 0.931 . S
H313 C309 0.930 . S
O314 Co303 2.039 . S
O314 C304 1.265 . S
C315 O311 1.253 . S
C315 O316 1.227 . S
O316 C315 1.227 . S
N317 Co303 2.140 . S
N317 C320 1.346 1_655 S
N317 C321 1.345 1_655 S
C318 C319 1.387 . S
C318 C322 1.391 . S
C319 C318 1.387 . S
C319 C320 1.369 . S
C319 H328 0.929 . S
C320 N317 1.346 1_455 S
C320 C319 1.369 . S
C320 H323 0.928 1_455 S
C321 N317 1.345 1_455 S
C321 C322 1.371 . S
C321 H324 0.931 . S
C322 C318 1.391 . S
C322 C321 1.371 . S
C322 H329 0.930 . S
H323 C320 0.928 1_655 S
H324 C321 0.931 . S
H325 C301 0.930 . S
H326 C298 0.930 . S
H327 C307 0.930 . S
H328 C319 0.929 . S
H329 C322 0.930 . S
C330 C331 1.351 . S
C330 N333 1.368 . S
C330 H335 0.931 . S
C331 C330 1.351 . S
C331 N332 1.373 . S
C331 H359 0.930 . S
N332 C331 1.373 . S
N332 C334 1.340 . S
N333 C330 1.368 . S
N333 C334 1.321 . S
N333 Co336 2.135 . S
C334 N332 1.340 . S
C334 N333 1.321 . S
C334 H358 0.930 . S
H335 C330 0.931 . S
Co336 N333 2.135 . S
Co336 N339 2.121 . S
Co336 O344 2.055 . S
Co336 O347 2.039 . S
Co336 N350 2.140 . S
C337 O338 1.227 . S
C337 O347 1.265 . S
O338 C337 1.227 . S
N339 Co336 2.121 . S
N339 C341 1.375 1_545 S
N339 C342 1.313 . S
C340 C341 1.338 . S
C340 N343 1.377 . S
C340 H360 0.930 . S
C341 N339 1.375 1_565 S
C341 C340 1.338 . S
C341 H345 0.931 . S
C342 N339 1.313 . S
C342 N343 1.344 1_545 S
C342 H346 0.930 . S
N343 C340 1.377 . S
N343 C342 1.344 1_565 S
O344 Co336 2.055 . S
O344 C348 1.253 . S
H345 C341 0.931 . S
H346 C342 0.930 . S
O347 Co336 2.039 . S
O347 C337 1.265 . S
C348 O344 1.253 . S
C348 O349 1.227 . S
O349 C348 1.227 . S
N350 Co336 2.140 . S
N350 C353 1.346 1_545 S
N350 C354 1.345 1_545 S
C351 C352 1.387 . S
C351 C355 1.391 . S
C352 C351 1.387 . S
C352 C353 1.369 . S
C352 H361 0.929 . S
C353 N350 1.346 1_565 S
C353 C352 1.369 . S
C353 H356 0.928 1_565 S
C354 N350 1.345 1_565 S
C354 C355 1.371 . S
C354 H357 0.931 . S
C355 C351 1.391 . S
C355 C354 1.371 . S
C355 H362 0.930 . S
H356 C353 0.928 1_545 S
H357 C354 0.931 . S
H358 C334 0.930 . S
H359 C331 0.930 . S
H360 C340 0.930 . S
H361 C352 0.929 . S
H362 C355 0.930 . S
C363 C364 1.351 . S
C363 N366 1.368 . S
C363 H368 0.931 . S
C364 C363 1.351 . S
C364 N365 1.373 . S
C364 H392 0.930 . S
N365 C364 1.373 . S
N365 C367 1.340 . S
N366 C363 1.368 . S
N366 C367 1.321 . S
N366 Co369 2.135 . S
C367 N365 1.340 . S
C367 N366 1.321 . S
C367 H391 0.930 . S
H368 C363 0.931 . S
Co369 N366 2.135 . S
Co369 N372 2.121 . S
Co369 O377 2.055 . S
Co369 O380 2.039 . S
Co369 N383 2.140 . S
C370 O371 1.227 . S
C370 O380 1.265 . S
O371 C370 1.227 . S
N372 Co369 2.121 . S
N372 C374 1.375 1_455 S
N372 C375 1.313 . S
C373 C374 1.338 . S
C373 N376 1.377 . S
C373 H393 0.930 . S
C374 N372 1.375 1_655 S
C374 C373 1.338 . S
C374 H378 0.931 . S
C375 N372 1.313 . S
C375 N376 1.344 1_455 S
C375 H379 0.930 . S
N376 C373 1.377 . S
N376 C375 1.344 1_655 S
O377 Co369 2.055 . S
O377 C381 1.253 . S
H378 C374 0.931 . S
H379 C375 0.930 . S
O380 Co369 2.039 . S
O380 C370 1.265 . S
C381 O377 1.253 . S
C381 O382 1.227 . S
O382 C381 1.227 . S
N383 Co369 2.140 . S
N383 C386 1.346 1_455 S
N383 C387 1.345 1_455 S
C384 C385 1.387 . S
C384 C388 1.391 . S
C385 C384 1.387 . S
C385 C386 1.369 . S
C385 H394 0.929 . S
C386 N383 1.346 1_655 S
C386 C385 1.369 . S
C386 H389 0.928 1_655 S
C387 N383 1.345 1_655 S
C387 C388 1.371 . S
C387 H390 0.931 . S
C388 C384 1.391 . S
C388 C387 1.371 . S
C388 H395 0.930 . S
H389 C386 0.928 1_455 S
H390 C387 0.931 . S
H391 C367 0.930 . S
H392 C364 0.930 . S
H393 C373 0.930 . S
H394 C385 0.929 . S
H395 C388 0.930 . S
C396 C397 1.351 . S
C396 N399 1.368 . S
C396 H401 0.931 . S
C397 C396 1.351 . S
C397 N398 1.373 . S
C397 H425 0.930 . S
N398 C397 1.373 . S
N398 C400 1.340 . S
N399 C396 1.368 . S
N399 C400 1.321 . S
N399 Co402 2.135 . S
C400 N398 1.340 . S
C400 N399 1.321 . S
C400 H424 0.930 . S
H401 C396 0.931 . S
Co402 N399 2.135 . S
Co402 N405 2.121 . S
Co402 O410 2.055 . S
Co402 O413 2.039 . S
Co402 N416 2.140 . S
C403 O404 1.227 . S
C403 O413 1.265 . S
O404 C403 1.227 . S
N405 Co402 2.121 . S
N405 C407 1.375 1_545 S
N405 C408 1.313 . S
C406 C407 1.338 . S
C406 N409 1.377 . S
C406 H426 0.930 . S
C407 N405 1.375 1_565 S
C407 C406 1.338 . S
C407 H411 0.931 . S
C408 N405 1.313 . S
C408 N409 1.344 1_545 S
C408 H412 0.930 . S
N409 C406 1.377 . S
N409 C408 1.344 1_565 S
O410 Co402 2.055 . S
O410 C414 1.253 . S
H411 C407 0.931 . S
H412 C408 0.930 . S
O413 Co402 2.039 . S
O413 C403 1.265 . S
C414 O410 1.253 . S
C414 O415 1.227 . S
O415 C414 1.227 . S
N416 Co402 2.140 . S
N416 C419 1.346 1_545 S
N416 C420 1.345 1_545 S
C417 C418 1.387 . S
C417 C421 1.391 . S
C418 C417 1.387 . S
C418 C419 1.369 . S
C418 H427 0.929 . S
C419 N416 1.346 1_565 S
C419 C418 1.369 . S
C419 H422 0.928 1_565 S
C420 N416 1.345 1_565 S
C420 C421 1.371 . S
C420 H423 0.931 . S
C421 C417 1.391 . S
C421 C420 1.371 . S
C421 H428 0.930 . S
H422 C419 0.928 1_545 S
H423 C420 0.931 . S
H424 C400 0.930 . S
H425 C397 0.930 . S
H426 C406 0.930 . S
H427 C418 0.929 . S
H428 C421 0.930 . S
C429 C430 1.351 . S
C429 N432 1.368 . S
C429 H434 0.931 . S
C430 C429 1.351 . S
C430 N431 1.373 . S
C430 H458 0.930 . S
N431 C430 1.373 . S
N431 C433 1.340 . S
N432 C429 1.368 . S
N432 C433 1.321 . S
N432 Co435 2.135 . S
C433 N431 1.340 . S
C433 N432 1.321 . S
C433 H457 0.930 . S
H434 C429 0.931 . S
Co435 N432 2.135 . S
Co435 N438 2.121 . S
Co435 O443 2.055 . S
Co435 O446 2.039 . S
Co435 N449 2.140 . S
C436 O437 1.227 . S
C436 O446 1.265 . S
O437 C436 1.227 . S
N438 Co435 2.121 . S
N438 C440 1.375 1_455 S
N438 C441 1.313 . S
C439 C440 1.338 . S
C439 N442 1.377 . S
C439 H459 0.930 . S
C440 N438 1.375 1_655 S
C440 C439 1.338 . S
C440 H444 0.931 . S
C441 N438 1.313 . S
C441 N442 1.344 1_455 S
C441 H445 0.930 . S
N442 C439 1.377 . S
N442 C441 1.344 1_655 S
O443 Co435 2.055 . S
O443 C447 1.253 . S
H444 C440 0.931 . S
H445 C441 0.930 . S
O446 Co435 2.039 . S
O446 C436 1.265 . S
C447 O443 1.253 . S
C447 O448 1.227 . S
O448 C447 1.227 . S
N449 Co435 2.140 . S
N449 C452 1.346 1_455 S
N449 C453 1.345 1_455 S
C450 C451 1.387 . S
C450 C454 1.391 . S
C451 C450 1.387 . S
C451 C452 1.369 . S
C451 H460 0.929 . S
C452 N449 1.346 1_655 S
C452 C451 1.369 . S
C452 H455 0.928 1_655 S
C453 N449 1.345 1_655 S
C453 C454 1.371 . S
C453 H456 0.931 . S
C454 C450 1.391 . S
C454 C453 1.371 . S
C454 H461 0.930 . S
H455 C452 0.928 1_455 S
H456 C453 0.931 . S
H457 C433 0.930 . S
H458 C430 0.930 . S
H459 C439 0.930 . S
H460 C451 0.929 . S
H461 C454 0.930 . S
C462 C463 1.351 . S
C462 N465 1.368 . S
C462 H467 0.931 . S
C463 C462 1.351 . S
C463 N464 1.373 . S
C463 H491 0.930 . S
N464 C463 1.373 . S
N464 C466 1.340 . S
N465 C462 1.368 . S
N465 C466 1.321 . S
N465 Co468 2.135 . S
C466 N464 1.340 . S
C466 N465 1.321 . S
C466 H490 0.930 . S
H467 C462 0.931 . S
Co468 N465 2.135 . S
Co468 N471 2.121 . S
Co468 O476 2.055 . S
Co468 O479 2.039 . S
Co468 N482 2.140 . S
C469 O470 1.227 . S
C469 O479 1.265 . S
O470 C469 1.227 . S
N471 Co468 2.121 . S
N471 C473 1.375 1_565 S
N471 C474 1.313 . S
C472 C473 1.338 . S
C472 N475 1.377 . S
C472 H492 0.930 . S
C473 N471 1.375 1_545 S
C473 C472 1.338 . S
C473 H477 0.931 . S
C474 N471 1.313 . S
C474 N475 1.344 1_565 S
C474 H478 0.930 . S
N475 C472 1.377 . S
N475 C474 1.344 1_545 S
O476 Co468 2.055 . S
O476 C480 1.253 . S
H477 C473 0.931 . S
H478 C474 0.930 . S
O479 Co468 2.039 . S
O479 C469 1.265 . S
C480 O476 1.253 . S
C480 O481 1.227 . S
O481 C480 1.227 . S
N482 Co468 2.140 . S
N482 C485 1.346 1_565 S
N482 C486 1.345 1_565 S
C483 C484 1.387 . S
C483 C487 1.391 . S
C484 C483 1.387 . S
C484 C485 1.369 . S
C484 H493 0.929 . S
C485 N482 1.346 1_545 S
C485 C484 1.369 . S
C485 H488 0.928 1_545 S
C486 N482 1.345 1_545 S
C486 C487 1.371 . S
C486 H489 0.931 . S
C487 C483 1.391 . S
C487 C486 1.371 . S
C487 H494 0.930 . S
H488 C485 0.928 1_565 S
H489 C486 0.931 . S
H490 C466 0.930 . S
H491 C463 0.930 . S
H492 C472 0.930 . S
H493 C484 0.929 . S
H494 C487 0.930 . S
C495 C496 1.351 . S
C495 N498 1.368 . S
C495 H500 0.931 . S
C496 C495 1.351 . S
C496 N497 1.373 . S
C496 H524 0.930 . S
N497 C496 1.373 . S
N497 C499 1.340 . S
N498 C495 1.368 . S
N498 C499 1.321 . S
N498 Co501 2.135 . S
C499 N497 1.340 . S
C499 N498 1.321 . S
C499 H523 0.930 . S
H500 C495 0.931 . S
Co501 N498 2.135 . S
Co501 N504 2.121 . S
Co501 O509 2.055 . S
Co501 O512 2.039 . S
Co501 N515 2.140 . S
C502 O503 1.227 . S
C502 O512 1.265 . S
O503 C502 1.227 . S
N504 Co501 2.121 . S
N504 C506 1.375 1_655 S
N504 C507 1.313 . S
C505 C506 1.338 . S
C505 N508 1.377 . S
C505 H525 0.930 . S
C506 N504 1.375 1_455 S
C506 C505 1.338 . S
C506 H510 0.931 . S
C507 N504 1.313 . S
C507 N508 1.344 1_655 S
C507 H511 0.930 . S
N508 C505 1.377 . S
N508 C507 1.344 1_455 S
O509 Co501 2.055 . S
O509 C513 1.253 . S
H510 C506 0.931 . S
H511 C507 0.930 . S
O512 Co501 2.039 . S
O512 C502 1.265 . S
C513 O509 1.253 . S
C513 O514 1.227 . S
O514 C513 1.227 . S
N515 Co501 2.140 . S
N515 C518 1.346 1_655 S
N515 C519 1.345 1_655 S
C516 C517 1.387 . S
C516 C520 1.391 . S
C517 C516 1.387 . S
C517 C518 1.369 . S
C517 H526 0.929 . S
C518 N515 1.346 1_455 S
C518 C517 1.369 . S
C518 H521 0.928 1_455 S
C519 N515 1.345 1_455 S
C519 C520 1.371 . S
C519 H522 0.931 . S
C520 C516 1.391 . S
C520 C519 1.371 . S
C520 H527 0.930 . S
H521 C518 0.928 1_655 S
H522 C519 0.931 . S
H523 C499 0.930 . S
H524 C496 0.930 . S
H525 C505 0.930 . S
H526 C517 0.929 . S
H527 C520 0.930 . S
H528 C534 0.930 . S
H529 C537 0.930 . S
H530 C538 0.930 . S
H531 C539 0.930 . S
H532 C542 0.930 . S
H533 C543 0.930 . S
C534 H528 0.930 . S
C534 C535 1.355 . S
C534 C536 1.415 1_655 S
C535 C534 1.355 . S
C535 C537 1.419 . S
C536 C534 1.415 1_455 S
C536 C541 1.425 1_455 S
C536 C543 1.409 . S
C537 H529 0.930 . S
C537 C535 1.419 . S
C537 C538 1.362 . S
C538 H530 0.930 . S
C538 C537 1.362 . S
C538 C541 1.409 . S
C539 H531 0.930 . S
C539 C540 1.355 . S
C539 C541 1.415 1_455 S
C540 C539 1.355 . S
C540 C542 1.419 . S
C541 C536 1.425 1_655 S
C541 C538 1.409 . S
C541 C539 1.415 1_655 S
C542 H532 0.930 . S
C542 C540 1.419 . S
C542 C543 1.362 . S
C543 H533 0.930 . S
C543 C536 1.409 . S
C543 C542 1.362 . S
H544 C550 0.930 . S
H545 C553 0.930 . S
H546 C554 0.930 . S
H547 C555 0.930 . S
H548 C558 0.930 . S
H549 C559 0.930 . S
C550 H544 0.930 . S
C550 C551 1.355 . S
C550 C552 1.415 . S
C551 C550 1.355 . S
C551 C553 1.419 . S
C552 C550 1.415 . S
C552 C557 1.425 1_545 S
C552 C559 1.409 . S
C553 H545 0.930 . S
C553 C551 1.419 . S
C553 C554 1.362 1_545 S
C554 H546 0.930 . S
C554 C553 1.362 1_565 S
C554 C557 1.409 . S
C555 H547 0.930 . S
C555 C556 1.355 . S
C555 C557 1.415 . S
C556 C555 1.355 . S
C556 C558 1.419 . S
C557 C552 1.425 1_565 S
C557 C554 1.409 . S
C557 C555 1.415 . S
C558 H548 0.930 . S
C558 C556 1.419 . S
C558 C559 1.362 1_565 S
C559 H549 0.930 . S
C559 C552 1.409 . S
C559 C558 1.362 1_545 S
H560 C566 0.930 . S
H561 C569 0.930 . S
H562 C570 0.930 . S
H563 C571 0.930 . S
H564 C574 0.930 . S
H565 C575 0.930 . S
C566 H560 0.930 . S
C566 C567 1.355 . S
C566 C568 1.415 . S
C567 C566 1.355 . S
C567 C569 1.419 . S
C568 C566 1.415 . S
C568 C573 1.425 1_655 S
C568 C575 1.409 1_655 S
C569 H561 0.930 . S
C569 C567 1.419 . S
C569 C570 1.362 . S
C570 H562 0.930 . S
C570 C569 1.362 . S
C570 C573 1.409 1_655 S
C571 H563 0.930 . S
C571 C572 1.355 . S
C571 C573 1.415 . S
C572 C571 1.355 . S
C572 C574 1.419 . S
C573 C568 1.425 1_455 S
C573 C570 1.409 1_455 S
C573 C571 1.415 . S
C574 H564 0.930 . S
C574 C572 1.419 . S
C574 C575 1.362 . S
C575 H565 0.930 . S
C575 C568 1.409 1_455 S
C575 C574 1.362 . S
H576 C582 0.930 . S
H577 C585 0.930 . S
H578 C586 0.930 . S
H579 C587 0.930 . S
H580 C590 0.930 . S
H581 C591 0.930 . S
C582 H576 0.930 . S
C582 C583 1.355 . S
C582 C584 1.415 . S
C583 C582 1.355 . S
C583 C585 1.419 . S
C584 C582 1.415 . S
C584 C589 1.425 1_565 S
C584 C591 1.409 . S
C585 H577 0.930 . S
C585 C583 1.419 . S
C585 C586 1.362 1_565 S
C586 H578 0.930 . S
C586 C585 1.362 1_545 S
C586 C589 1.409 . S
C587 H579 0.930 . S
C587 C588 1.355 . S
C587 C589 1.415 . S
C588 C587 1.355 . S
C588 C590 1.419 . S
C589 C584 1.425 1_545 S
C589 C586 1.409 . S
C589 C587 1.415 . S
C590 H580 0.930 . S
C590 C588 1.419 . S
C590 C591 1.362 1_545 S
C591 H581 0.930 . S
C591 C584 1.409 . S
C591 C590 1.362 1_565 S
H592 C598 0.930 1_545 S
H593 C601 0.930 . S
H594 C602 0.930 . S
H595 C603 0.930 1_565 S
H596 C606 0.930 . S
H597 C607 0.930 . S
C598 H592 0.930 1_565 S
C598 C599 1.355 . S
C598 C600 1.415 1_565 S
C599 C598 1.355 . S
C599 C601 1.419 . S
C600 C598 1.415 1_545 S
C600 C605 1.425 1_545 S
C600 C607 1.409 . S
C601 H593 0.930 . S
C601 C599 1.419 . S
C601 C602 1.362 . S
C602 H594 0.930 . S
C602 C601 1.362 . S
C602 C605 1.409 . S
C603 H595 0.930 1_545 S
C603 C604 1.355 . S
C603 C605 1.415 1_545 S
C604 C603 1.355 . S
C604 C606 1.419 . S
C605 C600 1.425 1_565 S
C605 C602 1.409 . S
C605 C603 1.415 1_565 S
C606 H596 0.930 . S
C606 C604 1.419 . S
C606 C607 1.362 . S
C607 H597 0.930 . S
C607 C600 1.409 . S
C607 C606 1.362 . S
H608 C614 0.930 . S
H609 C617 0.930 . S
H610 C618 0.929 1_455 S
H611 C619 0.930 . S
H612 C622 0.930 . S
H613 C623 0.929 1_655 S
C614 H608 0.930 . S
C614 C615 1.355 . S
C614 C616 1.415 . S
C615 C614 1.355 . S
C615 C617 1.419 . S
C616 C614 1.415 . S
C616 C621 1.425 1_655 S
C616 C623 1.409 1_655 S
C617 H609 0.930 . S
C617 C615 1.419 . S
C617 C618 1.364 . S
C618 H610 0.929 1_655 S
C618 C617 1.364 . S
C618 C621 1.409 1_655 S
C619 H611 0.930 . S
C619 C620 1.355 . S
C619 C621 1.415 . S
C620 C619 1.355 . S
C620 C622 1.419 . S
C621 C616 1.425 1_455 S
C621 C618 1.409 1_455 S
C621 C619 1.415 . S
C622 H612 0.930 . S
C622 C620 1.419 . S
C622 C623 1.364 . S
C623 H613 0.929 1_455 S
C623 C616 1.409 1_455 S
C623 C622 1.364 . S
H624 C630 0.930 1_545 S
H625 C633 0.930 . S
H626 C634 0.930 . S
H627 C635 0.930 1_565 S
H628 C638 0.930 . S
H629 C639 0.930 . S
C630 H624 0.930 1_565 S
C630 C631 1.355 . S
C630 C632 1.415 1_565 S
C631 C630 1.355 . S
C631 C633 1.419 . S
C632 C630 1.415 1_545 S
C632 C637 1.425 1_545 S
C632 C639 1.409 . S
C633 H625 0.930 . S
C633 C631 1.419 . S
C633 C634 1.362 . S
C634 H626 0.930 . S
C634 C633 1.362 . S
C634 C637 1.409 . S
C635 H627 0.930 1_545 S
C635 C636 1.355 . S
C635 C637 1.415 1_545 S
C636 C635 1.355 . S
C636 C638 1.419 . S
C637 C632 1.425 1_565 S
C637 C634 1.409 . S
C637 C635 1.415 1_565 S
C638 H628 0.930 . S
C638 C636 1.419 . S
C638 C639 1.362 . S
C639 H629 0.930 . S
C639 C632 1.409 . S
C639 C638 1.362 . S
H640 C646 0.911 1_455 S
H641 C649 0.930 . S
H642 C650 0.930 . S
H643 C651 0.911 1_655 S
H644 C654 0.930 . S
H645 C655 0.930 . S
C646 H640 0.911 1_655 S
C646 C647 1.384 . S
C646 C648 1.404 1_655 S
C647 C646 1.384 . S
C647 C649 1.419 . S
C648 C646 1.404 1_455 S
C648 C653 1.425 1_455 S
C648 C655 1.409 . S
C649 H641 0.930 . S
C649 C647 1.419 . S
C649 C650 1.362 . S
C650 H642 0.930 . S
C650 C649 1.362 . S
C650 C653 1.409 . S
C651 H643 0.911 1_455 S
C651 C652 1.384 . S
C651 C653 1.404 1_455 S
C652 C651 1.384 . S
C652 C654 1.419 . S
C653 C648 1.425 1_655 S
C653 C650 1.409 . S
C653 C651 1.404 1_655 S
C654 H644 0.930 . S
C654 C652 1.419 . S
C654 C655 1.362 . S
C655 H645 0.930 . S
C655 C648 1.409 . S
C655 C654 1.362 . S
H656 C662 0.930 . S
H657 C665 0.930 . S
H658 C666 0.930 . S
H659 C667 0.930 . S
H660 C670 0.930 . S
H661 C671 0.930 . S
C662 H656 0.930 . S
C662 C663 1.355 . S
C662 C664 1.415 . S
C663 C662 1.355 . S
C663 C665 1.419 . S
C664 C662 1.415 . S
C664 C669 1.425 . S
C664 C671 1.409 . S
C665 H657 0.930 . S
C665 C663 1.419 . S
C665 C666 1.362 . S
C666 H658 0.930 . S
C666 C665 1.362 . S
C666 C669 1.409 . S
C667 H659 0.930 . S
C667 C668 1.355 . S
C667 C669 1.415 . S
C668 C667 1.355 . S
C668 C670 1.419 . S
C669 C664 1.425 . S
C669 C666 1.409 . S
C669 C667 1.415 . S
C670 H660 0.930 . S
C670 C668 1.419 . S
C670 C671 1.362 . S
C671 H661 0.930 . S
C671 C664 1.409 . S
C671 C670 1.362 . S
H672 C678 0.930 . S
H673 C681 0.930 . S
H674 C682 0.930 . S
H675 C683 0.930 . S
H676 C686 0.930 . S
H677 C687 0.930 . S
C678 H672 0.930 . S
C678 C679 1.355 . S
C678 C680 1.415 . S
C679 C678 1.355 . S
C679 C681 1.419 . S
C680 C678 1.415 . S
C680 C685 1.425 . S
C680 C687 1.409 . S
C681 H673 0.930 . S
C681 C679 1.419 . S
C681 C682 1.362 . S
C682 H674 0.930 . S
C682 C681 1.362 . S
C682 C685 1.409 . S
C683 H675 0.930 . S
C683 C684 1.355 . S
C683 C685 1.415 . S
C684 C683 1.355 . S
C684 C686 1.419 . S
C685 C680 1.425 . S
C685 C682 1.409 . S
C685 C683 1.415 . S
C686 H676 0.930 . S
C686 C684 1.419 . S
C686 C687 1.362 . S
C687 H677 0.930 . S
C687 C680 1.409 . S
C687 C686 1.362 . S
H688 C694 0.930 . S
H689 C697 0.930 . S
H690 C698 0.930 . S
H691 C699 0.930 . S
H692 C702 0.930 . S
H693 C703 0.930 . S
C694 H688 0.930 . S
C694 C695 1.355 . S
C694 C696 1.415 . S
C695 C694 1.355 . S
C695 C697 1.419 . S
C696 C694 1.415 . S
C696 C701 1.425 . S
C696 C703 1.409 . S
C697 H689 0.930 . S
C697 C695 1.419 . S
C697 C698 1.362 . S
C698 H690 0.930 . S
C698 C697 1.362 . S
C698 C701 1.409 . S
C699 H691 0.930 . S
C699 C700 1.355 . S
C699 C701 1.415 . S
C700 C699 1.355 . S
C700 C702 1.419 . S
C701 C696 1.425 . S
C701 C698 1.409 . S
C701 C699 1.415 . S
C702 H692 0.930 . S
C702 C700 1.419 . S
C702 C703 1.362 . S
C703 H693 0.930 . S
C703 C696 1.409 . S
C703 C702 1.362 . S
H704 C710 0.930 . S
H705 C713 0.930 . S
H706 C714 0.930 . S
H707 C715 0.930 . S
H708 C718 0.930 . S
H709 C719 0.930 . S
C710 H704 0.930 . S
C710 C711 1.355 . S
C710 C712 1.415 . S
C711 C710 1.355 . S
C711 C713 1.419 . S
C712 C710 1.415 . S
C712 C717 1.425 . S
C712 C719 1.409 . S
C713 H705 0.930 . S
C713 C711 1.419 . S
C713 C714 1.362 . S
C714 H706 0.930 . S
C714 C713 1.362 . S
C714 C717 1.409 . S
C715 H707 0.930 . S
C715 C716 1.355 . S
C715 C717 1.415 . S
C716 C715 1.355 . S
C716 C718 1.419 . S
C717 C712 1.425 . S
C717 C714 1.409 . S
C717 C715 1.415 . S
C718 H708 0.930 . S
C718 C716 1.419 . S
C718 C719 1.362 . S
C719 H709 0.930 . S
C719 C712 1.409 . S
C719 C718 1.362 . S
H720 C726 0.930 . S
H721 C729 0.930 . S
H722 C730 0.930 . S
H723 C731 0.930 . S
H724 C734 0.930 . S
H725 C735 0.930 . S
C726 H720 0.930 . S
C726 C727 1.355 . S
C726 C728 1.415 . S
C727 C726 1.355 . S
C727 C729 1.419 . S
C728 C726 1.415 . S
C728 C733 1.425 . S
C728 C735 1.409 . S
C729 H721 0.930 . S
C729 C727 1.419 . S
C729 C730 1.362 . S
C730 H722 0.930 . S
C730 C729 1.362 . S
C730 C733 1.409 . S
C731 H723 0.930 . S
C731 C732 1.355 . S
C731 C733 1.415 . S
C732 C731 1.355 . S
C732 C734 1.419 . S
C733 C728 1.425 . S
C733 C730 1.409 . S
C733 C731 1.415 . S
C734 H724 0.930 . S
C734 C732 1.419 . S
C734 C735 1.362 . S
C735 H725 0.930 . S
C735 C728 1.409 . S
C735 C734 1.362 . S
H736 C742 0.930 . S
H737 C745 0.930 . S
H738 C746 0.930 . S
H739 C747 0.930 . S
H740 C750 0.930 . S
H741 C751 0.930 . S
C742 H736 0.930 . S
C742 C743 1.355 . S
C742 C744 1.415 . S
C743 C742 1.355 . S
C743 C745 1.419 . S
C744 C742 1.415 . S
C744 C749 1.425 . S
C744 C751 1.409 . S
C745 H737 0.930 . S
C745 C743 1.419 . S
C745 C746 1.362 . S
C746 H738 0.930 . S
C746 C745 1.362 . S
C746 C749 1.409 . S
C747 H739 0.930 . S
C747 C748 1.355 . S
C747 C749 1.415 . S
C748 C747 1.355 . S
C748 C750 1.419 . S
C749 C744 1.425 . S
C749 C746 1.409 . S
C749 C747 1.415 . S
C750 H740 0.930 . S
C750 C748 1.419 . S
C750 C751 1.362 . S
C751 H741 0.930 . S
C751 C744 1.409 . S
C751 C750 1.362 . S
H752 C758 0.930 . S
H753 C761 0.930 . S
H754 C762 0.930 . S
H755 C763 0.930 . S
H756 C766 0.930 . S
H757 C767 0.930 . S
C758 H752 0.930 . S
C758 C759 1.355 . S
C758 C760 1.415 . S
C759 C758 1.355 . S
C759 C761 1.419 . S
C760 C758 1.415 . S
C760 C765 1.425 . S
C760 C767 1.409 . S
C761 H753 0.930 . S
C761 C759 1.419 . S
C761 C762 1.362 . S
C762 H754 0.930 . S
C762 C761 1.362 . S
C762 C765 1.409 . S
C763 H755 0.930 . S
C763 C764 1.355 . S
C763 C765 1.415 . S
C764 C763 1.355 . S
C764 C766 1.419 . S
C765 C760 1.425 . S
C765 C762 1.409 . S
C765 C763 1.415 . S
C766 H756 0.930 . S
C766 C764 1.419 . S
C766 C767 1.362 . S
C767 H757 0.930 . S
C767 C760 1.409 . S
C767 C766 1.362 . S
H768 C774 0.930 . S
H769 C777 0.930 . S
H770 C778 0.930 . S
H771 C779 0.930 . S
H772 C782 0.930 . S
H773 C783 0.930 . S
C774 H768 0.930 . S
C774 C775 1.355 . S
C774 C776 1.415 . S
C775 C774 1.355 . S
C775 C777 1.419 . S
C776 C774 1.415 . S
C776 C781 1.425 . S
C776 C783 1.409 . S
C777 H769 0.930 . S
C777 C775 1.419 . S
C777 C778 1.362 . S
C778 H770 0.930 . S
C778 C777 1.362 . S
C778 C781 1.409 . S
C779 H771 0.930 . S
C779 C780 1.355 . S
C779 C781 1.415 . S
C780 C779 1.355 . S
C780 C782 1.419 . S
C781 C776 1.425 . S
C781 C778 1.409 . S
C781 C779 1.415 . S
C782 H772 0.930 . S
C782 C780 1.419 . S
C782 C783 1.362 . S
C783 H773 0.930 . S
C783 C776 1.409 . S
C783 C782 1.362 . S
H784 C790 0.930 . S
H785 C793 0.930 . S
H786 C794 0.930 . S
H787 C795 0.930 . S
H788 C798 0.930 . S
H789 C799 0.930 . S
C790 H784 0.930 . S
C790 C791 1.355 . S
C790 C792 1.415 . S
C791 C790 1.355 . S
C791 C793 1.419 . S
C792 C790 1.415 . S
C792 C797 1.425 . S
C792 C799 1.409 . S
C793 H785 0.930 . S
C793 C791 1.419 . S
C793 C794 1.362 . S
C794 H786 0.930 . S
C794 C793 1.362 . S
C794 C797 1.409 . S
C795 H787 0.930 . S
C795 C796 1.355 . S
C795 C797 1.415 . S
C796 C795 1.355 . S
C796 C798 1.419 . S
C797 C792 1.425 . S
C797 C794 1.409 . S
C797 C795 1.415 . S
C798 H788 0.930 . S
C798 C796 1.419 . S
C798 C799 1.362 . S
C799 H789 0.930 . S
C799 C792 1.409 . S
C799 C798 1.362 . S
H800 C806 0.930 . S
H801 C809 0.930 . S
H802 C810 0.930 . S
H803 C811 0.930 . S
H804 C814 0.930 . S
H805 C815 0.930 . S
C806 H800 0.930 . S
C806 C807 1.355 . S
C806 C808 1.415 . S
C807 C806 1.355 . S
C807 C809 1.419 . S
C808 C806 1.415 . S
C808 C813 1.425 . S
C808 C815 1.409 . S
C809 H801 0.930 . S
C809 C807 1.419 . S
C809 C810 1.362 . S
C810 H802 0.930 . S
C810 C809 1.362 . S
C810 C813 1.409 . S
C811 H803 0.930 . S
C811 C812 1.355 . S
C811 C813 1.415 . S
C812 C811 1.355 . S
C812 C814 1.419 . S
C813 C808 1.425 . S
C813 C810 1.409 . S
C813 C811 1.415 . S
C814 H804 0.930 . S
C814 C812 1.419 . S
C814 C815 1.362 . S
C815 H805 0.930 . S
C815 C808 1.409 . S
C815 C814 1.362 . S
H816 C822 0.930 . S
H817 C825 0.930 . S
H818 C826 0.930 . S
H819 C827 0.930 . S
H820 C830 0.930 . S
H821 C831 0.930 . S
C822 H816 0.930 . S
C822 C823 1.355 . S
C822 C824 1.415 . S
C823 C822 1.355 . S
C823 C825 1.419 . S
C824 C822 1.415 . S
C824 C829 1.425 . S
C824 C831 1.409 . S
C825 H817 0.930 . S
C825 C823 1.419 . S
C825 C826 1.362 . S
C826 H818 0.930 . S
C826 C825 1.362 . S
C826 C829 1.409 . S
C827 H819 0.930 . S
C827 C828 1.355 . S
C827 C829 1.415 . S
C828 C827 1.355 . S
C828 C830 1.419 . S
C829 C824 1.425 . S
C829 C826 1.409 . S
C829 C827 1.415 . S
C830 H820 0.930 . S
C830 C828 1.419 . S
C830 C831 1.362 . S
C831 H821 0.930 . S
C831 C824 1.409 . S
C831 C830 1.362 . S
H832 C838 0.930 . S
H833 C841 0.930 . S
H834 C842 0.930 . S
H835 C843 0.930 . S
H836 C846 0.930 . S
H837 C847 0.930 . S
C838 H832 0.930 . S
C838 C839 1.355 . S
C838 C840 1.415 . S
C839 C838 1.355 . S
C839 C841 1.419 . S
C840 C838 1.415 . S
C840 C845 1.425 . S
C840 C847 1.409 . S
C841 H833 0.930 . S
C841 C839 1.419 . S
C841 C842 1.362 . S
C842 H834 0.930 . S
C842 C841 1.362 . S
C842 C845 1.409 . S
C843 H835 0.930 . S
C843 C844 1.355 . S
C843 C845 1.415 . S
C844 C843 1.355 . S
C844 C846 1.419 . S
C845 C840 1.425 . S
C845 C842 1.409 . S
C845 C843 1.415 . S
C846 H836 0.930 . S
C846 C844 1.419 . S
C846 C847 1.362 . S
C847 H837 0.930 . S
C847 C840 1.409 . S
C847 C846 1.362 . S
H848 C854 0.930 . S
H849 C857 0.930 . S
H850 C858 0.930 . S
H851 C859 0.930 . S
H852 C862 0.930 . S
H853 C863 0.930 . S
C854 H848 0.930 . S
C854 C855 1.355 . S
C854 C856 1.415 . S
C855 C854 1.355 . S
C855 C857 1.419 . S
C856 C854 1.415 . S
C856 C861 1.425 . S
C856 C863 1.409 . S
C857 H849 0.930 . S
C857 C855 1.419 . S
C857 C858 1.362 . S
C858 H850 0.930 . S
C858 C857 1.362 . S
C858 C861 1.409 . S
C859 H851 0.930 . S
C859 C860 1.355 . S
C859 C861 1.415 . S
C860 C859 1.355 . S
C860 C862 1.419 . S
C861 C856 1.425 . S
C861 C858 1.409 . S
C861 C859 1.415 . S
C862 H852 0.930 . S
C862 C860 1.419 . S
C862 C863 1.362 . S
C863 H853 0.930 . S
C863 C856 1.409 . S
C863 C862 1.362 . S
H864 C870 0.930 . S
H865 C873 0.930 . S
H866 C874 0.930 . S
H867 C875 0.930 . S
H868 C878 0.930 . S
H869 C879 0.930 . S
C870 H864 0.930 . S
C870 C871 1.355 . S
C870 C872 1.415 . S
C871 C870 1.355 . S
C871 C873 1.419 . S
C872 C870 1.415 . S
C872 C877 1.425 . S
C872 C879 1.409 . S
C873 H865 0.930 . S
C873 C871 1.419 . S
C873 C874 1.362 . S
C874 H866 0.930 . S
C874 C873 1.362 . S
C874 C877 1.409 . S
C875 H867 0.930 . S
C875 C876 1.355 . S
C875 C877 1.415 . S
C876 C875 1.355 . S
C876 C878 1.419 . S
C877 C872 1.425 . S
C877 C874 1.409 . S
C877 C875 1.415 . S
C878 H868 0.930 . S
C878 C876 1.419 . S
C878 C879 1.362 . S
C879 H869 0.930 . S
C879 C872 1.409 . S
C879 C878 1.362 . S
H880 C886 0.930 . S
H881 C889 0.930 . S
H882 C890 0.930 . S
H883 C891 0.930 . S
H884 C894 0.930 . S
H885 C895 0.930 . S
C886 H880 0.930 . S
C886 C887 1.355 . S
C886 C888 1.415 . S
C887 C886 1.355 . S
C887 C889 1.419 . S
C888 C886 1.415 . S
C888 C893 1.425 . S
C888 C895 1.409 . S
C889 H881 0.930 . S
C889 C887 1.419 . S
C889 C890 1.362 . S
C890 H882 0.930 . S
C890 C889 1.362 . S
C890 C893 1.409 . S
C891 H883 0.930 . S
C891 C892 1.355 . S
C891 C893 1.415 . S
C892 C891 1.355 . S
C892 C894 1.419 . S
C893 C888 1.425 . S
C893 C890 1.409 . S
C893 C891 1.415 . S
C894 H884 0.930 . S
C894 C892 1.419 . S
C894 C895 1.362 . S
C895 H885 0.930 . S
C895 C888 1.409 . S
C895 C894 1.362 . S
H896 C902 0.930 . S
H897 C905 0.930 . S
H898 C906 0.930 . S
H899 C907 0.930 . S
H900 C910 0.930 . S
H901 C911 0.930 . S
C902 H896 0.930 . S
C902 C903 1.355 . S
C902 C904 1.415 . S
C903 C902 1.355 . S
C903 C905 1.419 . S
C904 C902 1.415 . S
C904 C909 1.425 . S
C904 C911 1.409 . S
C905 H897 0.930 . S
C905 C903 1.419 . S
C905 C906 1.362 . S
C906 H898 0.930 . S
C906 C905 1.362 . S
C906 C909 1.409 . S
C907 H899 0.930 . S
C907 C908 1.355 . S
C907 C909 1.415 . S
C908 C907 1.355 . S
C908 C910 1.419 . S
C909 C904 1.425 . S
C909 C906 1.409 . S
C909 C907 1.415 . S
C910 H900 0.930 . S
C910 C908 1.419 . S
C910 C911 1.362 . S
C911 H901 0.930 . S
C911 C904 1.409 . S
C911 C910 1.362 . S
H912 C918 0.930 . S
H913 C921 0.930 . S
H914 C922 0.930 . S
H915 C923 0.930 . S
H916 C926 0.930 . S
H917 C927 0.930 . S
C918 H912 0.930 . S
C918 C919 1.355 . S
C918 C920 1.415 . S
C919 C918 1.355 . S
C919 C921 1.419 . S
C920 C918 1.415 . S
C920 C925 1.425 . S
C920 C927 1.409 . S
C921 H913 0.930 . S
C921 C919 1.419 . S
C921 C922 1.362 . S
C922 H914 0.930 . S
C922 C921 1.362 . S
C922 C925 1.409 . S
C923 H915 0.930 . S
C923 C924 1.355 . S
C923 C925 1.415 . S
C924 C923 1.355 . S
C924 C926 1.419 . S
C925 C920 1.425 . S
C925 C922 1.409 . S
C925 C923 1.415 . S
C926 H916 0.930 . S
C926 C924 1.419 . S
C926 C927 1.362 . S
C927 H917 0.930 . S
C927 C920 1.409 . S
C927 C926 1.362 . S
H928 C934 0.930 . S
H929 C937 0.930 . S
H930 C938 0.930 . S
H931 C939 0.930 . S
H932 C942 0.930 . S
H933 C943 0.930 . S
C934 H928 0.930 . S
C934 C935 1.355 . S
C934 C936 1.415 . S
C935 C934 1.355 . S
C935 C937 1.419 . S
C936 C934 1.415 . S
C936 C941 1.425 . S
C936 C943 1.409 . S
C937 H929 0.930 . S
C937 C935 1.419 . S
C937 C938 1.362 . S
C938 H930 0.930 . S
C938 C937 1.362 . S
C938 C941 1.409 . S
C939 H931 0.930 . S
C939 C940 1.355 . S
C939 C941 1.415 . S
C940 C939 1.355 . S
C940 C942 1.419 . S
C941 C936 1.425 . S
C941 C938 1.409 . S
C941 C939 1.415 . S
C942 H932 0.930 . S
C942 C940 1.419 . S
C942 C943 1.362 . S
C943 H933 0.930 . S
C943 C936 1.409 . S
C943 C942 1.362 . S
H944 C950 0.930 . S
H945 C953 0.930 . S
H946 C954 0.930 . S
H947 C955 0.930 . S
H948 C958 0.930 . S
H949 C959 0.930 . S
C950 H944 0.930 . S
C950 C951 1.355 . S
C950 C952 1.415 . S
C951 C950 1.355 . S
C951 C953 1.419 . S
C952 C950 1.415 . S
C952 C957 1.425 . S
C952 C959 1.409 . S
C953 H945 0.930 . S
C953 C951 1.419 . S
C953 C954 1.362 . S
C954 H946 0.930 . S
C954 C953 1.362 . S
C954 C957 1.409 . S
C955 H947 0.930 . S
C955 C956 1.355 . S
C955 C957 1.415 . S
C956 C955 1.355 . S
C956 C958 1.419 . S
C957 C952 1.425 . S
C957 C954 1.409 . S
C957 C955 1.415 . S
C958 H948 0.930 . S
C958 C956 1.419 . S
C958 C959 1.362 . S
C959 H949 0.930 . S
C959 C952 1.409 . S
C959 C958 1.362 . S
H960 C966 0.930 . S
H961 C969 0.930 . S
H962 C970 0.930 . S
H963 C971 0.930 . S
H964 C974 0.930 . S
H965 C975 0.930 . S
C966 H960 0.930 . S
C966 C967 1.355 . S
C966 C968 1.415 . S
C967 C966 1.355 . S
C967 C969 1.419 . S
C968 C966 1.415 . S
C968 C973 1.425 . S
C968 C975 1.409 . S
C969 H961 0.930 . S
C969 C967 1.419 . S
C969 C970 1.362 . S
C970 H962 0.930 . S
C970 C969 1.362 . S
C970 C973 1.409 . S
C971 H963 0.930 . S
C971 C972 1.355 . S
C971 C973 1.415 . S
C972 C971 1.355 . S
C972 C974 1.419 . S
C973 C968 1.425 . S
C973 C970 1.409 . S
C973 C971 1.415 . S
C974 H964 0.930 . S
C974 C972 1.419 . S
C974 C975 1.362 . S
C975 H965 0.930 . S
C975 C968 1.409 . S
C975 C974 1.362 . S
H976 C982 0.930 . S
H977 C985 0.930 . S
H978 C986 0.930 . S
H979 C987 0.930 . S
H980 C990 0.930 . S
H981 C991 0.930 . S
C982 H976 0.930 . S
C982 C983 1.355 . S
C982 C984 1.415 . S
C983 C982 1.355 . S
C983 C985 1.419 . S
C984 C982 1.415 . S
C984 C989 1.425 . S
C984 C991 1.409 . S
C985 H977 0.930 . S
C985 C983 1.419 . S
C985 C986 1.362 . S
C986 H978 0.930 . S
C986 C985 1.362 . S
C986 C989 1.409 . S
C987 H979 0.930 . S
C987 C988 1.355 . S
C987 C989 1.415 . S
C988 C987 1.355 . S
C988 C990 1.419 . S
C989 C984 1.425 . S
C989 C986 1.409 . S
C989 C987 1.415 . S
C990 H980 0.930 . S
C990 C988 1.419 . S
C990 C991 1.362 . S
C991 H981 0.930 . S
C991 C984 1.409 . S
C991 C990 1.362 . S
H992 C998 0.930 . S
H993 C1001 0.930 . S
H994 C1002 0.930 . S
H995 C1003 0.930 . S
H996 C1006 0.930 . S
H997 C1007 0.930 . S
C998 H992 0.930 . S
C998 C999 1.355 . S
C998 C1000 1.415 . S
C999 C998 1.355 . S
C999 C1001 1.419 . S
C1000 C998 1.415 . S
C1000 C1005 1.425 . S
C1000 C1007 1.409 . S
C1001 H993 0.930 . S
C1001 C999 1.419 . S
C1001 C1002 1.362 . S
C1002 H994 0.930 . S
C1002 C1001 1.362 . S
C1002 C1005 1.409 . S
C1003 H995 0.930 . S
C1003 C1004 1.355 . S
C1003 C1005 1.415 . S
C1004 C1003 1.355 . S
C1004 C1006 1.419 . S
C1005 C1000 1.425 . S
C1005 C1002 1.409 . S
C1005 C1003 1.415 . S
C1006 H996 0.930 . S
C1006 C1004 1.419 . S
C1006 C1007 1.362 . S
C1007 H997 0.930 . S
C1007 C1000 1.409 . S
C1007 C1006 1.362 . S
H1008 C1014 0.930 . S
H1009 C1017 0.930 . S
H1010 C1018 0.930 . S
H1011 C1019 0.930 . S
H1012 C1022 0.930 . S
H1013 C1023 0.930 . S
C1014 H1008 0.930 . S
C1014 C1015 1.355 . S
C1014 C1016 1.415 . S
C1015 C1014 1.355 . S
C1015 C1017 1.419 . S
C1016 C1014 1.415 . S
C1016 C1021 1.425 . S
C1016 C1023 1.409 . S
C1017 H1009 0.930 . S
C1017 C1015 1.419 . S
C1017 C1018 1.362 . S
C1018 H1010 0.930 . S
C1018 C1017 1.362 . S
C1018 C1021 1.409 . S
C1019 H1011 0.930 . S
C1019 C1020 1.355 . S
C1019 C1021 1.415 . S
C1020 C1019 1.355 . S
C1020 C1022 1.419 . S
C1021 C1016 1.425 . S
C1021 C1018 1.409 . S
C1021 C1019 1.415 . S
C1022 H1012 0.930 . S
C1022 C1020 1.419 . S
C1022 C1023 1.362 . S
C1023 H1013 0.930 . S
C1023 C1016 1.409 . S
C1023 C1022 1.362 . S
H1024 C1030 0.930 . S
H1025 C1033 0.930 . S
H1026 C1034 0.930 . S
H1027 C1035 0.930 . S
H1028 C1038 0.930 . S
H1029 C1039 0.930 . S
C1030 H1024 0.930 . S
C1030 C1031 1.355 . S
C1030 C1032 1.415 . S
C1031 C1030 1.355 . S
C1031 C1033 1.419 . S
C1032 C1030 1.415 . S
C1032 C1037 1.425 . S
C1032 C1039 1.409 . S
C1033 H1025 0.930 . S
C1033 C1031 1.419 . S
C1033 C1034 1.362 . S
C1034 H1026 0.930 . S
C1034 C1033 1.362 . S
C1034 C1037 1.409 . S
C1035 H1027 0.930 . S
C1035 C1036 1.355 . S
C1035 C1037 1.415 . S
C1036 C1035 1.355 . S
C1036 C1038 1.419 . S
C1037 C1032 1.425 . S
C1037 C1034 1.409 . S
C1037 C1035 1.415 . S
C1038 H1028 0.930 . S
C1038 C1036 1.419 . S
C1038 C1039 1.362 . S
C1039 H1029 0.930 . S
C1039 C1032 1.409 . S
C1039 C1038 1.362 . S
H1040 C1046 0.930 . S
H1041 C1049 0.930 . S
H1042 C1050 0.930 . S
H1043 C1051 0.930 . S
H1044 C1054 0.930 . S
H1045 C1055 0.930 . S
C1046 H1040 0.930 . S
C1046 C1047 1.355 . S
C1046 C1048 1.415 . S
C1047 C1046 1.355 . S
C1047 C1049 1.419 . S
C1048 C1046 1.415 . S
C1048 C1053 1.425 . S
C1048 C1055 1.409 . S
C1049 H1041 0.930 . S
C1049 C1047 1.419 . S
C1049 C1050 1.362 . S
C1050 H1042 0.930 . S
C1050 C1049 1.362 . S
C1050 C1053 1.409 . S
C1051 H1043 0.930 . S
C1051 C1052 1.355 . S
C1051 C1053 1.415 . S
C1052 C1051 1.355 . S
C1052 C1054 1.419 . S
C1053 C1048 1.425 . S
C1053 C1050 1.409 . S
C1053 C1051 1.415 . S
C1054 H1044 0.930 . S
C1054 C1052 1.419 . S
C1054 C1055 1.362 . S
C1055 H1045 0.930 . S
C1055 C1048 1.409 . S
C1055 C1054 1.362 . S
H1056 C1062 0.930 . S
H1057 C1065 0.930 . S
H1058 C1066 0.930 . S
H1059 C1067 0.930 . S
H1060 C1070 0.930 . S
H1061 C1071 0.930 . S
C1062 H1056 0.930 . S
C1062 C1063 1.355 . S
C1062 C1064 1.415 . S
C1063 C1062 1.355 . S
C1063 C1065 1.419 . S
C1064 C1062 1.415 . S
C1064 C1069 1.425 . S
C1064 C1071 1.409 . S
C1065 H1057 0.930 . S
C1065 C1063 1.419 . S
C1065 C1066 1.362 . S
C1066 H1058 0.930 . S
C1066 C1065 1.362 . S
C1066 C1069 1.409 . S
C1067 H1059 0.930 . S
C1067 C1068 1.355 . S
C1067 C1069 1.415 . S
C1068 C1067 1.355 . S
C1068 C1070 1.419 . S
C1069 C1064 1.425 . S
C1069 C1066 1.409 . S
C1069 C1067 1.415 . S
C1070 H1060 0.930 . S
C1070 C1068 1.419 . S
C1070 C1071 1.362 . S
C1071 H1061 0.930 . S
C1071 C1064 1.409 . S
C1071 C1070 1.362 . S
H1072 C1078 0.930 . S
H1073 C1081 0.930 . S
H1074 C1082 0.930 . S
H1075 C1083 0.930 . S
H1076 C1086 0.930 . S
H1077 C1087 0.930 . S
C1078 H1072 0.930 . S
C1078 C1079 1.355 . S
C1078 C1080 1.415 . S
C1079 C1078 1.355 . S
C1079 C1081 1.419 . S
C1080 C1078 1.415 . S
C1080 C1085 1.425 . S
C1080 C1087 1.409 . S
C1081 H1073 0.930 . S
C1081 C1079 1.419 . S
C1081 C1082 1.362 . S
C1082 H1074 0.930 . S
C1082 C1081 1.362 . S
C1082 C1085 1.409 . S
C1083 H1075 0.930 . S
C1083 C1084 1.355 . S
C1083 C1085 1.415 . S
C1084 C1083 1.355 . S
C1084 C1086 1.419 . S
C1085 C1080 1.425 . S
C1085 C1082 1.409 . S
C1085 C1083 1.415 . S
C1086 H1076 0.930 . S
C1086 C1084 1.419 . S
C1086 C1087 1.362 . S
C1087 H1077 0.930 . S
C1087 C1080 1.409 . S
C1087 C1086 1.362 . S
H1088 C1094 0.930 . S
H1089 C1097 0.930 . S
H1090 C1098 0.930 . S
H1091 C1099 0.930 . S
H1092 C1102 0.930 . S
H1093 C1103 0.930 . S
C1094 H1088 0.930 . S
C1094 C1095 1.355 . S
C1094 C1096 1.415 . S
C1095 C1094 1.355 . S
C1095 C1097 1.419 . S
C1096 C1094 1.415 . S
C1096 C1101 1.425 . S
C1096 C1103 1.409 . S
C1097 H1089 0.930 . S
C1097 C1095 1.419 . S
C1097 C1098 1.362 . S
C1098 H1090 0.930 . S
C1098 C1097 1.362 . S
C1098 C1101 1.409 . S
C1099 H1091 0.930 . S
C1099 C1100 1.355 . S
C1099 C1101 1.415 . S
C1100 C1099 1.355 . S
C1100 C1102 1.419 . S
C1101 C1096 1.425 . S
C1101 C1098 1.409 . S
C1101 C1099 1.415 . S
C1102 H1092 0.930 . S
C1102 C1100 1.419 . S
C1102 C1103 1.362 . S
C1103 H1093 0.930 . S
C1103 C1096 1.409 . S
C1103 C1102 1.362 . S
H1104 C1110 0.930 . S
H1105 C1113 0.930 . S
H1106 C1114 0.930 . S
H1107 C1115 0.930 . S
H1108 C1118 0.930 . S
H1109 C1119 0.930 . S
C1110 H1104 0.930 . S
C1110 C1111 1.355 1_565 S
C1110 C1112 1.415 . S
C1111 C1110 1.355 1_545 S
C1111 C1113 1.419 . S
C1112 C1110 1.415 . S
C1112 C1117 1.425 1_566 S
C1112 C1119 1.409 1_556 S
C1113 H1105 0.930 . S
C1113 C1111 1.419 . S
C1113 C1114 1.362 . S
C1114 H1106 0.930 . S
C1114 C1113 1.362 . S
C1114 C1117 1.409 1_556 S
C1115 H1107 0.930 . S
C1115 C1116 1.355 1_545 S
C1115 C1117 1.415 . S
C1116 C1115 1.355 1_565 S
C1116 C1118 1.419 . S
C1117 C1112 1.425 1_544 S
C1117 C1114 1.409 1_554 S
C1117 C1115 1.415 . S
C1118 H1108 0.930 . S
C1118 C1116 1.419 . S
C1118 C1119 1.362 . S
C1119 H1109 0.930 . S
C1119 C1112 1.409 1_554 S
C1119 C1118 1.362 . S
H1120 C1126 0.930 . S
H1121 C1129 0.930 . S
H1122 C1130 0.930 . S
H1123 C1131 0.930 . S
H1124 C1134 0.930 . S
H1125 C1135 0.930 . S
C1126 H1120 0.930 . S
C1126 C1127 1.355 1_455 S
C1126 C1128 1.415 . S
C1127 C1126 1.355 1_655 S
C1127 C1129 1.419 . S
C1128 C1126 1.415 . S
C1128 C1133 1.425 1_456 S
C1128 C1135 1.409 1_556 S
C1129 H1121 0.930 . S
C1129 C1127 1.419 . S
C1129 C1130 1.362 . S
C1130 H1122 0.930 . S
C1130 C1129 1.362 . S
C1130 C1133 1.409 1_556 S
C1131 H1123 0.930 . S
C1131 C1132 1.355 1_655 S
C1131 C1133 1.415 . S
C1132 C1131 1.355 1_455 S
C1132 C1134 1.419 . S
C1133 C1128 1.425 1_654 S
C1133 C1130 1.409 1_554 S
C1133 C1131 1.415 . S
C1134 H1124 0.930 . S
C1134 C1132 1.419 . S
C1134 C1135 1.362 . S
C1135 H1125 0.930 . S
C1135 C1128 1.409 1_554 S
C1135 C1134 1.362 . S
H1136 C1142 0.930 . S
H1137 C1145 0.930 . S
H1138 C1146 0.930 . S
H1139 C1147 0.930 . S
H1140 C1150 0.930 . S
H1141 C1151 0.930 . S
C1142 H1136 0.930 . S
C1142 C1143 1.355 1_565 S
C1142 C1144 1.415 . S
C1143 C1142 1.355 1_545 S
C1143 C1145 1.419 . S
C1144 C1142 1.415 . S
C1144 C1149 1.425 1_564 S
C1144 C1151 1.409 1_554 S
C1145 H1137 0.930 . S
C1145 C1143 1.419 . S
C1145 C1146 1.362 . S
C1146 H1138 0.930 . S
C1146 C1145 1.362 . S
C1146 C1149 1.409 1_554 S
C1147 H1139 0.930 . S
C1147 C1148 1.355 1_545 S
C1147 C1149 1.415 . S
C1148 C1147 1.355 1_565 S
C1148 C1150 1.419 . S
C1149 C1144 1.425 1_546 S
C1149 C1146 1.409 1_556 S
C1149 C1147 1.415 . S
C1150 H1140 0.930 . S
C1150 C1148 1.419 . S
C1150 C1151 1.362 . S
C1151 H1141 0.930 . S
C1151 C1144 1.409 1_556 S
C1151 C1150 1.362 . S
H1152 C1158 0.930 . S
H1153 C1161 0.930 . S
H1154 C1162 0.930 . S
H1155 C1163 0.930 . S
H1156 C1166 0.930 . S
H1157 C1167 0.930 . S
C1158 H1152 0.930 . S
C1158 C1159 1.355 . S
C1158 C1160 1.415 . S
C1159 C1158 1.355 . S
C1159 C1161 1.419 1_455 S
C1160 C1158 1.415 . S
C1160 C1165 1.425 1_456 S
C1160 C1167 1.409 1_556 S
C1161 H1153 0.930 . S
C1161 C1159 1.419 1_655 S
C1161 C1162 1.362 . S
C1162 H1154 0.930 . S
C1162 C1161 1.362 . S
C1162 C1165 1.409 1_556 S
C1163 H1155 0.930 . S
C1163 C1164 1.355 . S
C1163 C1165 1.415 . S
C1164 C1163 1.355 . S
C1164 C1166 1.419 1_655 S
C1165 C1160 1.425 1_654 S
C1165 C1162 1.409 1_554 S
C1165 C1163 1.415 . S
C1166 H1156 0.930 . S
C1166 C1164 1.419 1_455 S
C1166 C1167 1.362 . S
C1167 H1157 0.930 . S
C1167 C1160 1.409 1_554 S
C1167 C1166 1.362 . S
C535 C73 1.209 . S
C540 C7 1.199 . S
C551 C106 1.264 . S
C556 C40 1.299 . S
C567 C205 1.260 . S
C572 C139 1.192 . S
C583 C172 1.242 . S
C588 C238 1.300 . S
C599 C271 1.300 . S
C604 C337 1.242 . S
C615 C304 1.191 . S
C620 C370 1.256 . S
C631 C469 1.298 . S
C636 C403 1.235 . S
C647 C502 1.267 . S
C652 C436 1.298 . S
C663 C18 1.278 . S
C668 C249 1.251 . S
C679 C150 1.256 . S
C684 C51 1.273 . S
C695 C183 1.274 . S
C700 C84 1.255 . S
C711 C216 1.263 . S
C716 C117 1.266 . S
C727 C513 1.250 . S
C732 C282 1.278 . S
C743 C414 1.251 . S
C748 C315 1.278 . S
C759 C447 1.268 . S
C764 C348 1.260 . S
C775 C480 1.257 . S
C780 C381 1.272 . S
C791 C21 0.842 . S
C796 N365 0.932 . S
C807 C54 0.910 . S
C812 N266 0.973 . S
C823 C87 0.881 . S
C828 N299 0.955 . S
C839 N332 0.949 . S
C844 C120 0.866 . S
C855 C153 0.927 . S
C860 N431 0.984 . S
C871 C186 0.903 . S
C876 N464 0.969 . S
C887 C219 0.978 . S
C892 N497 1.019 . S
C903 C252 0.837 . S
C908 N398 0.929 . S
C919 N101 0.928 . S
C924 C285 0.832 . S
C935 N2 0.960 . S
C940 C318 0.888 . S
C951 N35 0.916 . S
C956 C351 0.813 . S
C967 C384 0.974 . S
C972 N68 1.016 . S
C983 C417 0.997 . S
C988 N167 1.031 . S
C999 C450 0.980 . S
C1004 N200 1.020 . S
C1015 C483 0.878 . S
C1020 N233 0.956 . S
C1031 C516 0.979 . S
C1036 N134 1.019 . S
C1047 N145 1.713 . S
C1052 N13 1.652 . S
C1063 N178 1.682 . S
C1068 N46 1.675 . S
C1079 N79 1.717 . S
C1084 N211 1.691 . S
C1095 N244 1.689 . S
C1100 N112 1.668 . S
C1111 N277 1.680 . S
C1116 N409 1.725 . S
C1127 N442 1.707 . S
C1132 N310 1.702 . S
C1143 N475 1.683 . S
C1148 N343 1.723 . S
C1159 N508 1.681 . S
C1164 N376 1.676 . S
