# Generated by pormake.
# Topology umq, (4)-cn, num edge types: 1
# Building blocks:
#     Node 0, Type 0, BuildingBlock: KUFVIS_clean_sbu_0, # of connection points: 4
#     Node 1, Type 0, BuildingBlock: KUFVIS_clean_sbu_0, # of connection points: 4
#     Node 2, Type 0, BuildingBlock: KUFVIS_clean_sbu_0, # of connection points: 4
#     Node 3, Type 0, BuildingBlock: KUFVIS_clean_sbu_0, # of connection points: 4
#     Node 4, Type 0, BuildingBlock: KUFVIS_clean_sbu_0, # of connection points: 4
#     Node 5, Type 0, BuildingBlock: KUFVIS_clean_sbu_0, # of connection points: 4
#     Node 6, Type 0, BuildingBlock: KUFVIS_clean_sbu_0, # of connection points: 4
#     Node 7, Type 0, BuildingBlock: KUFVIS_clean_sbu_0, # of connection points: 4
#     Node 8, Type 0, BuildingBlock: KUFVIS_clean_sbu_0, # of connection points: 4
#     Node 9, Type 0, BuildingBlock: KUFVIS_clean_sbu_0, # of connection points: 4
#     Node 10, Type 0, BuildingBlock: KUFVIS_clean_sbu_0, # of connection points: 4
#     Node 11, Type 0, BuildingBlock: KUFVIS_clean_sbu_0, # of connection points: 4
#     Node 12, Type 0, BuildingBlock: KUFVIS_clean_sbu_0, # of connection points: 4
#     Node 13, Type 0, BuildingBlock: KUFVIS_clean_sbu_0, # of connection points: 4
#     Node 14, Type 0, BuildingBlock: KUFVIS_clean_sbu_0, # of connection points: 4
#     Node 15, Type 0, BuildingBlock: KUFVIS_clean_sbu_0, # of connection points: 4
#     Node 16, Type 0, BuildingBlock: KUFVIS_clean_sbu_0, # of connection points: 4
#     Node 17, Type 0, BuildingBlock: KUFVIS_clean_sbu_0, # of connection points: 4
#     Node 18, Type 0, BuildingBlock: KUFVIS_clean_sbu_0, # of connection points: 4
#     Node 19, Type 0, BuildingBlock: KUFVIS_clean_sbu_0, # of connection points: 4
#     Node 20, Type 0, BuildingBlock: KUFVIS_clean_sbu_0, # of connection points: 4
#     Node 21, Type 0, BuildingBlock: KUFVIS_clean_sbu_0, # of connection points: 4
#     Node 22, Type 0, BuildingBlock: KUFVIS_clean_sbu_0, # of connection points: 4
#     Node 23, Type 0, BuildingBlock: KUFVIS_clean_sbu_0, # of connection points: 4
#     Node 24, Type 0, BuildingBlock: KUFVIS_clean_sbu_0, # of connection points: 4
#     Node 25, Type 0, BuildingBlock: KUFVIS_clean_sbu_0, # of connection points: 4
#     Node 26, Type 0, BuildingBlock: KUFVIS_clean_sbu_0, # of connection points: 4
#     Node 27, Type 0, BuildingBlock: KUFVIS_clean_sbu_0, # of connection points: 4
#     Node 28, Type 0, BuildingBlock: KUFVIS_clean_sbu_0, # of connection points: 4
#     Node 29, Type 0, BuildingBlock: KUFVIS_clean_sbu_0, # of connection points: 4
#     Node 30, Type 0, BuildingBlock: KUFVIS_clean_sbu_0, # of connection points: 4
#     Node 31, Type 0, BuildingBlock: KUFVIS_clean_sbu_0, # of connection points: 4
#     Edge 32, Type (0, 0), BuildingBlock: AJUNOK_clean_linker_0, # of connection points: 2
#     Edge 33, Type (0, 0), BuildingBlock: AJUNOK_clean_linker_0, # of connection points: 2
#     Edge 34, Type (0, 0), BuildingBlock: AJUNOK_clean_linker_0, # of connection points: 2
#     Edge 35, Type (0, 0), BuildingBlock: AJUNOK_clean_linker_0, # of connection points: 2
#     Edge 36, Type (0, 0), BuildingBlock: AJUNOK_clean_linker_0, # of connection points: 2
#     Edge 37, Type (0, 0), BuildingBlock: AJUNOK_clean_linker_0, # of connection points: 2
#     Edge 38, Type (0, 0), BuildingBlock: AJUNOK_clean_linker_0, # of connection points: 2
#     Edge 39, Type (0, 0), BuildingBlock: AJUNOK_clean_linker_0, # of connection points: 2
#     Edge 40, Type (0, 0), BuildingBlock: AJUNOK_clean_linker_0, # of connection points: 2
#     Edge 41, Type (0, 0), BuildingBlock: AJUNOK_clean_linker_0, # of connection points: 2
#     Edge 42, Type (0, 0), BuildingBlock: AJUNOK_clean_linker_0, # of connection points: 2
#     Edge 43, Type (0, 0), BuildingBlock: AJUNOK_clean_linker_0, # of connection points: 2
#     Edge 44, Type (0, 0), BuildingBlock: AJUNOK_clean_linker_0, # of connection points: 2
#     Edge 45, Type (0, 0), BuildingBlock: AJUNOK_clean_linker_0, # of connection points: 2
#     Edge 46, Type (0, 0), BuildingBlock: AJUNOK_clean_linker_0, # of connection points: 2
#     Edge 47, Type (0, 0), BuildingBlock: AJUNOK_clean_linker_0, # of connection points: 2
#     Edge 48, Type (0, 0), BuildingBlock: AJUNOK_clean_linker_0, # of connection points: 2
#     Edge 49, Type (0, 0), BuildingBlock: AJUNOK_clean_linker_0, # of connection points: 2
#     Edge 50, Type (0, 0), BuildingBlock: AJUNOK_clean_linker_0, # of connection points: 2
#     Edge 51, Type (0, 0), BuildingBlock: AJUNOK_clean_linker_0, # of connection points: 2
#     Edge 52, Type (0, 0), BuildingBlock: AJUNOK_clean_linker_0, # of connection points: 2
#     Edge 53, Type (0, 0), BuildingBlock: AJUNOK_clean_linker_0, # of connection points: 2
#     Edge 54, Type (0, 0), BuildingBlock: AJUNOK_clean_linker_0, # of connection points: 2
#     Edge 55, Type (0, 0), BuildingBlock: AJUNOK_clean_linker_0, # of connection points: 2
#     Edge 56, Type (0, 0), BuildingBlock: AJUNOK_clean_linker_0, # of connection points: 2
#     Edge 57, Type (0, 0), BuildingBlock: AJUNOK_clean_linker_0, # of connection points: 2
#     Edge 58, Type (0, 0), BuildingBlock: AJUNOK_clean_linker_0, # of connection points: 2
#     Edge 59, Type (0, 0), BuildingBlock: AJUNOK_clean_linker_0, # of connection points: 2
#     Edge 60, Type (0, 0), BuildingBlock: AJUNOK_clean_linker_0, # of connection points: 2
#     Edge 61, Type (0, 0), BuildingBlock: AJUNOK_clean_linker_0, # of connection points: 2
#     Edge 62, Type (0, 0), BuildingBlock: AJUNOK_clean_linker_0, # of connection points: 2
#     Edge 63, Type (0, 0), BuildingBlock: AJUNOK_clean_linker_0, # of connection points: 2
#     Edge 64, Type (0, 0), BuildingBlock: AJUNOK_clean_linker_0, # of connection points: 2
#     Edge 65, Type (0, 0), BuildingBlock: AJUNOK_clean_linker_0, # of connection points: 2
#     Edge 66, Type (0, 0), BuildingBlock: AJUNOK_clean_linker_0, # of connection points: 2
#     Edge 67, Type (0, 0), BuildingBlock: AJUNOK_clean_linker_0, # of connection points: 2
#     Edge 68, Type (0, 0), BuildingBlock: AJUNOK_clean_linker_0, # of connection points: 2
#     Edge 69, Type (0, 0), BuildingBlock: AJUNOK_clean_linker_0, # of connection points: 2
#     Edge 70, Type (0, 0), BuildingBlock: AJUNOK_clean_linker_0, # of connection points: 2
#     Edge 71, Type (0, 0), BuildingBlock: AJUNOK_clean_linker_0, # of connection points: 2
#     Edge 72, Type (0, 0), BuildingBlock: AJUNOK_clean_linker_0, # of connection points: 2
#     Edge 73, Type (0, 0), BuildingBlock: AJUNOK_clean_linker_0, # of connection points: 2
#     Edge 74, Type (0, 0), BuildingBlock: AJUNOK_clean_linker_0, # of connection points: 2
#     Edge 75, Type (0, 0), BuildingBlock: AJUNOK_clean_linker_0, # of connection points: 2
#     Edge 76, Type (0, 0), BuildingBlock: AJUNOK_clean_linker_0, # of connection points: 2
#     Edge 77, Type (0, 0), BuildingBlock: AJUNOK_clean_linker_0, # of connection points: 2
#     Edge 78, Type (0, 0), BuildingBlock: AJUNOK_clean_linker_0, # of connection points: 2
#     Edge 79, Type (0, 0), BuildingBlock: AJUNOK_clean_linker_0, # of connection points: 2
#     Edge 80, Type (0, 0), BuildingBlock: AJUNOK_clean_linker_0, # of connection points: 2
#     Edge 81, Type (0, 0), BuildingBlock: AJUNOK_clean_linker_0, # of connection points: 2
#     Edge 82, Type (0, 0), BuildingBlock: AJUNOK_clean_linker_0, # of connection points: 2
#     Edge 83, Type (0, 0), BuildingBlock: AJUNOK_clean_linker_0, # of connection points: 2
#     Edge 84, Type (0, 0), BuildingBlock: AJUNOK_clean_linker_0, # of connection points: 2
#     Edge 85, Type (0, 0), BuildingBlock: AJUNOK_clean_linker_0, # of connection points: 2
#     Edge 86, Type (0, 0), BuildingBlock: AJUNOK_clean_linker_0, # of connection points: 2
#     Edge 87, Type (0, 0), BuildingBlock: AJUNOK_clean_linker_0, # of connection points: 2
#     Edge 88, Type (0, 0), BuildingBlock: AJUNOK_clean_linker_0, # of connection points: 2
#     Edge 89, Type (0, 0), BuildingBlock: AJUNOK_clean_linker_0, # of connection points: 2
#     Edge 90, Type (0, 0), BuildingBlock: AJUNOK_clean_linker_0, # of connection points: 2
#     Edge 91, Type (0, 0), BuildingBlock: AJUNOK_clean_linker_0, # of connection points: 2
#     Edge 92, Type (0, 0), BuildingBlock: AJUNOK_clean_linker_0, # of connection points: 2
#     Edge 93, Type (0, 0), BuildingBlock: AJUNOK_clean_linker_0, # of connection points: 2
#     Edge 94, Type (0, 0), BuildingBlock: AJUNOK_clean_linker_0, # of connection points: 2
#     Edge 95, Type (0, 0), BuildingBlock: AJUNOK_clean_linker_0, # of connection points: 2
# Relax obj value: 0.074
# Max RMSD: 0.055
# Mean RMSD: 0.055
data_MOF--net-umq--node1-KUFVIS_clean_sbu_0--edge1-AJUNOK_clean_linker_0
_symmetry_space_group_name_H-M    P1
_symmetry_Int_Tables_number       1
_symmetry_cell_setting            triclinic
loop_
_symmetry_equiv_pos_as_xyz
'x, y, z'
_cell_length_a     48.283606
_cell_length_b     48.286332
_cell_length_c     31.424296
_cell_angle_alpha  90.000741
_cell_angle_beta   90.001672
_cell_angle_gamma 90.007597
loop_
_atom_site_label
_atom_site_type_symbol
_atom_site_fract_x
_atom_site_fract_y
_atom_site_fract_z
_atom_type_partial_charge
Mn0 Mn 0.25223 0.11386 0.1973 0.0
Mn1 Mn 0.21612 0.15799 0.13464 0.0
C2 C 0.22288 0.14636 0.22813 0.0
C3 C 0.25487 0.06947 0.22825 0.0
C4 C 0.27729 0.1656 0.15585 0.0
O5 O 0.25723 0.09761 0.13762 0.0
O6 O 0.22751 0.12493 0.10179 0.0
C7 C 0.16715 0.12179 0.1239 0.0
N8 N 0.1782 0.14662 0.13548 0.0
C9 C 0.13347 0.16396 0.15622 0.0
C10 C 0.12157 0.13868 0.14407 0.0
C11 C 0.13851 0.11747 0.12799 0.0
C12 C 0.16218 0.16693 0.15186 0.0
H13 H 0.18014 0.10537 0.11197 0.0
C14 C 0.244 0.1043 0.10408 0.0
O15 O 0.27691 0.08436 0.22182 0.0
O16 O 0.23157 0.08034 0.21646 0.0
N17 N 0.20328 0.19146 0.16063 0.0
C18 C 0.21765 0.21543 0.16698 0.0
C19 C 0.20358 0.23921 0.18096 0.0
C20 C 0.1748 0.23831 0.18736 0.0
C21 C 0.16027 0.21379 0.17879 0.0
C22 C 0.17537 0.1909 0.16426 0.0
H23 H 0.23969 0.21643 0.16144 0.0
O24 O 0.24128 0.13368 0.25098 0.0
O25 O 0.22132 0.13867 0.18865 0.0
O26 O 0.27936 0.14525 0.18191 0.0
O27 O 0.25512 0.17111 0.13496 0.0
C28 C 0.13135 0.21132 0.18338 0.0
C29 C 0.11799 0.18631 0.17253 0.0
H30 H 0.09948 0.1353 0.14706 0.0
H31 H 0.12952 0.09782 0.11881 0.0
H32 H 0.2149 0.25819 0.1868 0.0
H33 H 0.16405 0.25663 0.19845 0.0
H34 H 0.11916 0.22854 0.19508 0.0
H35 H 0.09576 0.1846 0.17637 0.0
Mn36 Mn 0.91512 0.25105 0.19749 0.0
Mn37 Mn 0.86934 0.21679 0.13503 0.0
C38 C 0.88219 0.22212 0.22826 0.0
C39 C 0.9597 0.25214 0.228 0.0
C40 C 0.86317 0.27767 0.15876 0.0
O41 O 0.93117 0.25618 0.13773 0.0
O42 O 0.90202 0.22841 0.10163 0.0
C43 C 0.90493 0.16774 0.12093 0.0
N44 N 0.8804 0.17878 0.13392 0.0
C45 C 0.86311 0.13389 0.15392 0.0
C46 C 0.8881 0.12201 0.1404 0.0
C47 C 0.90914 0.13903 0.12397 0.0
C48 C 0.86026 0.16266 0.15061 0.0
H49 H 0.92124 0.18078 0.10865 0.0
C50 C 0.9234 0.2439 0.10389 0.0
O51 O 0.94546 0.27469 0.2223 0.0
O52 O 0.9481 0.22936 0.21554 0.0
N53 N 0.83612 0.20377 0.16156 0.0
C54 C 0.8123 0.21817 0.16895 0.0
C55 C 0.7886 0.20404 0.18318 0.0
C56 C 0.78944 0.17518 0.18875 0.0
C57 C 0.81378 0.16065 0.17905 0.0
C58 C 0.83657 0.17582 0.16429 0.0
H59 H 0.81136 0.24027 0.16407 0.0
O60 O 0.89543 0.24003 0.25126 0.0
O61 O 0.88948 0.22081 0.18858 0.0
O62 O 0.88432 0.27904 0.18336 0.0
O63 O 0.85666 0.2559 0.13752 0.0
C64 C 0.81615 0.13166 0.18266 0.0
C65 C 0.84091 0.11832 0.17054 0.0
H66 H 0.89138 0.09986 0.14254 0.0
H67 H 0.92855 0.13005 0.1137 0.0
H68 H 0.76976 0.21536 0.18988 0.0
H69 H 0.77121 0.16438 0.20005 0.0
H70 H 0.79901 0.11942 0.19453 0.0
H71 H 0.84253 0.09604 0.17357 0.0
Mn72 Mn 0.77635 0.91526 0.19766 0.0
Mn73 Mn 0.81094 0.87002 0.13456 0.0
C74 C 0.80578 0.88253 0.22786 0.0
C75 C 0.77384 0.95959 0.2287 0.0
C76 C 0.75014 0.86327 0.15836 0.0
O77 O 0.77106 0.93153 0.13802 0.0
O78 O 0.79908 0.90275 0.10165 0.0
C79 C 0.85978 0.90595 0.12055 0.0
N80 N 0.8489 0.88129 0.13333 0.0
C81 C 0.89396 0.86405 0.15247 0.0
C82 C 0.90568 0.88917 0.13916 0.0
C83 C 0.88849 0.91024 0.12327 0.0
C84 C 0.86518 0.86111 0.14951 0.0
H85 H 0.84661 0.92227 0.10867 0.0
C86 C 0.78345 0.92401 0.10412 0.0
O87 O 0.75184 0.94464 0.22248 0.0
O88 O 0.79715 0.94881 0.2166 0.0
N89 N 0.82422 0.83675 0.16063 0.0
C90 C 0.80996 0.81281 0.16782 0.0
C91 C 0.82426 0.78909 0.18153 0.0
C92 C 0.85314 0.79002 0.18676 0.0
C93 C 0.86752 0.81447 0.17724 0.0
C94 C 0.85218 0.83729 0.16301 0.0
H95 H 0.78783 0.8118 0.16319 0.0
O96 O 0.7877 0.89538 0.2511 0.0
O97 O 0.80697 0.89007 0.18829 0.0
O98 O 0.74876 0.88423 0.18323 0.0
O99 O 0.7719 0.857 0.13695 0.0
C100 C 0.89652 0.81694 0.18052 0.0
C101 C 0.90971 0.84182 0.16857 0.0
H102 H 0.92783 0.89252 0.14106 0.0
H103 H 0.89735 0.92975 0.11316 0.0
H104 H 0.81304 0.77016 0.18806 0.0
H105 H 0.86407 0.77176 0.19765 0.0
H106 H 0.90889 0.79978 0.19201 0.0
H107 H 0.932 0.84351 0.17134 0.0
Mn108 Mn 0.1126 0.7754 0.19792 0.0
Mn109 Mn 0.15689 0.81104 0.13479 0.0
C110 C 0.14508 0.80518 0.22836 0.0
C111 C 0.0682 0.77246 0.22883 0.0
C112 C 0.16407 0.7499 0.15665 0.0
O113 O 0.09646 0.77008 0.1381 0.0
O114 O 0.12371 0.79985 0.10219 0.0
C115 C 0.12118 0.8603 0.12355 0.0
N116 N 0.1459 0.84907 0.1352 0.0
C117 C 0.1638 0.89375 0.15503 0.0
C118 C 0.13863 0.90584 0.14282 0.0
C119 C 0.11718 0.88901 0.12716 0.0
C120 C 0.16643 0.86498 0.15119 0.0
H121 H 0.10459 0.84741 0.11191 0.0
C122 C 0.10311 0.78332 0.10451 0.0
O123 O 0.08331 0.75057 0.22259 0.0
O124 O 0.07887 0.79585 0.21688 0.0
N125 N 0.19051 0.82367 0.16057 0.0
C126 C 0.21432 0.80908 0.16707 0.0
C127 C 0.23831 0.82298 0.18066 0.0
C128 C 0.23777 0.85182 0.18646 0.0
C129 C 0.2134 0.86656 0.17776 0.0
C130 C 0.19028 0.85161 0.16368 0.0
H131 H 0.21505 0.78699 0.16194 0.0
O132 O 0.13243 0.78689 0.25149 0.0
O133 O 0.13744 0.80632 0.18883 0.0
O134 O 0.14393 0.7482 0.1831 0.0
O135 O 0.16964 0.77189 0.13534 0.0
C136 C 0.21127 0.89555 0.18179 0.0
C137 C 0.18639 0.9091 0.17087 0.0
H138 H 0.13551 0.92799 0.14542 0.0
H139 H 0.09762 0.89815 0.11792 0.0
H140 H 0.25716 0.8115 0.18661 0.0
H141 H 0.25624 0.86246 0.19724 0.0
H142 H 0.22869 0.90763 0.1931 0.0
H143 H 0.18496 0.93138 0.17427 0.0
Mn144 Mn 0.25081 0.91492 0.33765 0.0
Mn145 Mn 0.21599 0.86993 0.40085 0.0
C146 C 0.22111 0.88236 0.30738 0.0
C147 C 0.25375 0.95933 0.3069 0.0
C148 C 0.27673 0.86282 0.3769 0.0
O149 O 0.25638 0.93104 0.39738 0.0
O150 O 0.228 0.90268 0.4339 0.0
C151 C 0.16726 0.90603 0.41449 0.0
N152 N 0.17807 0.8813 0.40196 0.0
C153 C 0.13296 0.86418 0.38275 0.0
C154 C 0.12131 0.88936 0.39593 0.0
C155 C 0.13857 0.91042 0.41171 0.0
C156 C 0.16173 0.86116 0.38581 0.0
H157 H 0.18048 0.92234 0.42614 0.0
C158 C 0.24396 0.92371 0.43136 0.0
O159 O 0.27559 0.94414 0.31296 0.0
O160 O 0.23033 0.94873 0.31891 0.0
N161 N 0.20262 0.83667 0.37484 0.0
C162 C 0.2168 0.81268 0.36776 0.0
C163 C 0.20244 0.78898 0.35412 0.0
C164 C 0.17357 0.78998 0.34881 0.0
C165 C 0.15926 0.81449 0.35821 0.0
C166 C 0.17466 0.83728 0.37239 0.0
H167 H 0.23892 0.8116 0.37246 0.0
O168 O 0.23922 0.89519 0.28415 0.0
O169 O 0.22002 0.88988 0.34699 0.0
O170 O 0.27815 0.88368 0.35185 0.0
O171 O 0.255 0.85676 0.39854 0.0
C172 C 0.13027 0.81704 0.35487 0.0
C173 C 0.11716 0.84198 0.3667 0.0
H174 H 0.09918 0.89278 0.39396 0.0
H175 H 0.12978 0.92999 0.42167 0.0
H176 H 0.2136 0.77 0.34769 0.0
H177 H 0.16259 0.77174 0.33797 0.0
H178 H 0.11786 0.7999 0.34343 0.0
H179 H 0.09487 0.84373 0.36388 0.0
Mn180 Mn 0.11401 0.25177 0.33887 0.0
Mn181 Mn 0.1589 0.21713 0.40211 0.0
C182 C 0.14715 0.22287 0.30858 0.0
C183 C 0.06962 0.25265 0.30768 0.0
C184 C 0.16493 0.27834 0.38014 0.0
O185 O 0.09762 0.25682 0.39845 0.0
O186 O 0.12559 0.22789 0.43467 0.0
C187 C 0.12393 0.16738 0.41387 0.0
N188 N 0.14843 0.17895 0.40188 0.0
C189 C 0.16683 0.13454 0.38173 0.0
C190 C 0.14187 0.1221 0.39419 0.0
C191 C 0.12029 0.13862 0.4102 0.0
C192 C 0.16911 0.16333 0.38566 0.0
H193 H 0.10723 0.18003 0.4259 0.0
C194 C 0.10461 0.24392 0.43216 0.0
O195 O 0.08369 0.2753 0.31361 0.0
O196 O 0.08126 0.22996 0.32032 0.0
N197 N 0.19263 0.20496 0.37619 0.0
C198 C 0.21617 0.2199 0.36924 0.0
C199 C 0.24024 0.20634 0.35521 0.0
C200 C 0.24005 0.1775 0.34937 0.0
C201 C 0.21595 0.16241 0.35846 0.0
C202 C 0.19274 0.17703 0.37298 0.0
H203 H 0.21661 0.24201 0.37433 0.0
O204 O 0.13412 0.24083 0.28539 0.0
O205 O 0.13951 0.22154 0.34809 0.0
O206 O 0.14468 0.2798 0.3538 0.0
O207 O 0.17099 0.25642 0.40129 0.0
C208 C 0.21417 0.13341 0.35432 0.0
C209 C 0.18952 0.11951 0.36553 0.0
H210 H 0.13902 0.09992 0.39153 0.0
H211 H 0.10091 0.1292 0.41966 0.0
H212 H 0.25888 0.2181 0.34891 0.0
H213 H 0.25858 0.16713 0.33823 0.0
H214 H 0.23165 0.12158 0.34268 0.0
H215 H 0.18835 0.09723 0.36204 0.0
Mn216 Mn 0.7767 0.11362 0.33969 0.0
Mn217 Mn 0.81204 0.15834 0.4026 0.0
C218 C 0.80614 0.14614 0.30919 0.0
C219 C 0.77392 0.06931 0.30862 0.0
C220 C 0.75122 0.16588 0.3795 0.0
O221 O 0.77147 0.09731 0.39926 0.0
O222 O 0.79997 0.12559 0.43571 0.0
C223 C 0.86059 0.12185 0.4154 0.0
N224 N 0.84989 0.14667 0.40309 0.0
C225 C 0.89497 0.16337 0.38286 0.0
C226 C 0.90651 0.13809 0.39581 0.0
C227 C 0.88921 0.1172 0.41201 0.0
C228 C 0.86626 0.16667 0.38657 0.0
H229 H 0.84733 0.10566 0.42731 0.0
C230 C 0.78401 0.10454 0.43316 0.0
O231 O 0.75197 0.08431 0.31499 0.0
O232 O 0.79728 0.08001 0.32059 0.0
N233 N 0.8255 0.19152 0.37645 0.0
C234 C 0.81147 0.21562 0.36957 0.0
C235 C 0.82591 0.23917 0.35552 0.0
C236 C 0.85472 0.2379 0.34959 0.0
C237 C 0.8689 0.21328 0.35878 0.0
C238 C 0.85343 0.19065 0.3734 0.0
H239 H 0.7894 0.2169 0.37469 0.0
O240 O 0.78787 0.13341 0.28616 0.0
O241 O 0.80752 0.13855 0.34874 0.0
O242 O 0.74949 0.14493 0.35458 0.0
O243 O 0.77314 0.1718 0.40079 0.0
C244 C 0.89782 0.21046 0.35477 0.0
C245 C 0.91082 0.18541 0.36638 0.0
H246 H 0.92859 0.13447 0.39335 0.0
H247 H 0.89791 0.09755 0.42178 0.0
H248 H 0.81486 0.25823 0.34922 0.0
H249 H 0.86576 0.25602 0.33841 0.0
H250 H 0.91029 0.22746 0.34298 0.0
H251 H 0.93306 0.18344 0.36303 0.0
Mn252 Mn 0.91376 0.77609 0.33884 0.0
Mn253 Mn 0.87036 0.81377 0.40049 0.0
C254 C 0.88194 0.80599 0.30732 0.0
C255 C 0.95817 0.77256 0.30799 0.0
C256 C 0.86127 0.7525 0.38026 0.0
O257 O 0.92986 0.77124 0.39872 0.0
O258 O 0.90309 0.80186 0.43369 0.0
C259 C 0.9078 0.86188 0.41017 0.0
N260 N 0.88261 0.85141 0.39921 0.0
C261 C 0.8661 0.89653 0.37892 0.0
C262 C 0.89173 0.90786 0.39064 0.0
C263 C 0.91272 0.89042 0.40612 0.0
C264 C 0.86254 0.86789 0.38321 0.0
H265 H 0.92406 0.84849 0.42149 0.0
C266 C 0.92341 0.78496 0.43193 0.0
O267 O 0.94294 0.75078 0.31468 0.0
O268 O 0.94763 0.79605 0.31951 0.0
N269 N 0.83718 0.82731 0.37433 0.0
C270 C 0.81294 0.81345 0.36777 0.0
C271 C 0.78936 0.82805 0.35426 0.0
C272 C 0.79078 0.85684 0.34831 0.0
C273 C 0.81561 0.87083 0.3568 0.0
C274 C 0.83826 0.85522 0.37098 0.0
H275 H 0.81161 0.79138 0.37241 0.0
O276 O 0.89418 0.78711 0.28486 0.0
O277 O 0.88961 0.80765 0.34677 0.0
O278 O 0.88176 0.7496 0.35461 0.0
O279 O 0.85639 0.77508 0.40051 0.0
C280 C 0.81865 0.89971 0.35242 0.0
C281 C 0.84398 0.91252 0.36304 0.0
H282 H 0.89556 0.92988 0.38767 0.0
H283 H 0.93266 0.89895 0.41485 0.0
H284 H 0.77019 0.81712 0.34828 0.0
H285 H 0.77264 0.868 0.33751 0.0
H286 H 0.80161 0.91228 0.341 0.0
H287 H 0.84613 0.93472 0.35931 0.0
Mn288 Mn 0.77536 0.91372 0.83912 0.0
Mn289 Mn 0.81043 0.86897 0.90211 0.0
C290 C 0.80436 0.88068 0.80858 0.0
C291 C 0.77434 0.95831 0.80831 0.0
C292 C 0.74919 0.8625 0.88037 0.0
O293 O 0.77037 0.93004 0.89874 0.0
O294 O 0.79961 0.90226 0.93466 0.0
C295 C 0.86 0.9043 0.91321 0.0
N296 N 0.84854 0.87968 0.90153 0.0
C297 C 0.893 0.86153 0.88109 0.0
C298 C 0.90531 0.88662 0.89325 0.0
C299 C 0.88871 0.90813 0.90924 0.0
C300 C 0.86424 0.85907 0.88528 0.0
H301 H 0.84728 0.92096 0.9252 0.0
C302 C 0.7835 0.92318 0.93229 0.0
O303 O 0.75174 0.94413 0.81407 0.0
O304 O 0.79705 0.94659 0.82069 0.0
N305 N 0.82273 0.83526 0.87631 0.0
C306 C 0.80795 0.81155 0.86988 0.0
C307 C 0.82163 0.7875 0.85607 0.0
C308 C 0.85045 0.78787 0.84995 0.0
C309 C 0.86539 0.81213 0.85856 0.0
C310 C 0.85066 0.83531 0.87288 0.0
H311 H 0.78587 0.81096 0.87524 0.0
O312 O 0.78633 0.89371 0.7855 0.0
O313 O 0.8057 0.88828 0.84809 0.0
O314 O 0.74753 0.88281 0.85412 0.0
O315 O 0.77119 0.85664 0.9015 0.0
C316 C 0.89437 0.81409 0.85418 0.0
C317 C 0.90813 0.83889 0.86498 0.0
H318 H 0.92747 0.8896 0.89037 0.0
H319 H 0.89803 0.92761 0.91846 0.0
H320 H 0.80999 0.76873 0.85017 0.0
H321 H 0.86091 0.76935 0.83899 0.0
H322 H 0.90628 0.79662 0.84267 0.0
H323 H 0.9304 0.84019 0.8613 0.0
Mn324 Mn 0.11315 0.77758 0.83903 0.0
Mn325 Mn 0.15818 0.812 0.90271 0.0
C326 C 0.14687 0.80595 0.80905 0.0
C327 C 0.06899 0.77639 0.80702 0.0
C328 C 0.16526 0.7513 0.87856 0.0
O329 O 0.09606 0.77259 0.89813 0.0
O330 O 0.12571 0.79897 0.93551 0.0
C331 C 0.12081 0.85968 0.91707 0.0
N332 N 0.14577 0.84962 0.90422 0.0
C333 C 0.1613 0.8952 0.88444 0.0
C334 C 0.13587 0.90608 0.89799 0.0
C335 C 0.11549 0.88821 0.91425 0.0
C336 C 0.16525 0.86654 0.88756 0.0
H337 H 0.105 0.846 0.92899 0.0
C338 C 0.10405 0.78393 0.93258 0.0
O339 O 0.08311 0.75385 0.81347 0.0
O340 O 0.08048 0.79922 0.81947 0.0
N341 N 0.19121 0.82649 0.87746 0.0
C342 C 0.21602 0.81336 0.87282 0.0
C343 C 0.23939 0.82854 0.85992 0.0
C344 C 0.23716 0.85715 0.8527 0.0
C345 C 0.21191 0.87053 0.86049 0.0
C346 C 0.18954 0.85438 0.8743 0.0
H347 H 0.21799 0.79146 0.87899 0.0
O348 O 0.13373 0.78805 0.78589 0.0
O349 O 0.13883 0.80784 0.84839 0.0
O350 O 0.14375 0.74967 0.85469 0.0
O351 O 0.17202 0.77326 0.89925 0.0
C352 C 0.20836 0.89938 0.85667 0.0
C353 C 0.18296 0.91168 0.86823 0.0
H354 H 0.13176 0.9281 0.89606 0.0
H355 H 0.09572 0.8964 0.92451 0.0
H356 H 0.25905 0.81819 0.85542 0.0
H357 H 0.25515 0.86874 0.84233 0.0
H358 H 0.22516 0.91234 0.84543 0.0
H359 H 0.1805 0.9339 0.86535 0.0
Mn360 Mn 0.25125 0.11308 0.83879 0.0
Mn361 Mn 0.21557 0.15754 0.90194 0.0
C362 C 0.22235 0.14621 0.80841 0.0
C363 C 0.25431 0.06895 0.80708 0.0
C364 C 0.27633 0.1656 0.87887 0.0
O365 O 0.25613 0.09617 0.89804 0.0
O366 O 0.22866 0.12515 0.93481 0.0
C367 C 0.16818 0.11958 0.91506 0.0
N368 N 0.17807 0.14472 0.9027 0.0
C369 C 0.13243 0.15996 0.88273 0.0
C370 C 0.12172 0.13434 0.89582 0.0
C371 C 0.13971 0.11402 0.9119 0.0
C372 C 0.16105 0.16413 0.88614 0.0
H373 H 0.18197 0.10381 0.92681 0.0
C374 C 0.24416 0.10381 0.93217 0.0
O375 O 0.27619 0.08395 0.81405 0.0
O376 O 0.23084 0.07963 0.81861 0.0
N377 N 0.20092 0.19047 0.87662 0.0
C378 C 0.21385 0.21542 0.87234 0.0
C379 C 0.19851 0.23873 0.85963 0.0
C380 C 0.16995 0.2363 0.85224 0.0
C381 C 0.15676 0.2109 0.85963 0.0
C382 C 0.17305 0.1886 0.87326 0.0
H383 H 0.23572 0.21757 0.87869 0.0
O384 O 0.24065 0.13345 0.78549 0.0
O385 O 0.22037 0.13813 0.84771 0.0
O386 O 0.27833 0.14424 0.85485 0.0
O387 O 0.25418 0.17192 0.8994 0.0
C388 C 0.12794 0.20714 0.85558 0.0
C389 C 0.11582 0.18156 0.8667 0.0
H390 H 0.09974 0.13006 0.89365 0.0
H391 H 0.13166 0.09412 0.92179 0.0
H392 H 0.20872 0.25849 0.85542 0.0
H393 H 0.15823 0.25424 0.84203 0.0
H394 H 0.11488 0.22389 0.84448 0.0
H395 H 0.09363 0.17893 0.86362 0.0
Mn396 Mn 0.91423 0.2518 0.83885 0.0
Mn397 Mn 0.8705 0.21508 0.90165 0.0
C398 C 0.88109 0.22307 0.8081 0.0
C399 C 0.95835 0.25479 0.80702 0.0
C400 C 0.86222 0.27623 0.88097 0.0
O401 O 0.93131 0.25624 0.89809 0.0
O402 O 0.90311 0.22763 0.9342 0.0
C403 C 0.90851 0.16754 0.91276 0.0
N404 N 0.88332 0.17762 0.90091 0.0
C405 C 0.86785 0.13226 0.87988 0.0
C406 C 0.89354 0.12136 0.8922 0.0
C407 C 0.91399 0.1391 0.90859 0.0
C408 C 0.86375 0.16083 0.88421 0.0
H409 H 0.92436 0.18112 0.92504 0.0
C410 C 0.92415 0.24351 0.93183 0.0
O411 O 0.94352 0.27676 0.81429 0.0
O412 O 0.9475 0.23137 0.81824 0.0
N413 N 0.83736 0.20085 0.87646 0.0
C414 C 0.81241 0.21388 0.87296 0.0
C415 C 0.78898 0.19873 0.86026 0.0
C416 C 0.79129 0.17024 0.85207 0.0
C417 C 0.81672 0.15693 0.85858 0.0
C418 C 0.83917 0.17302 0.87223 0.0
H419 H 0.81038 0.23568 0.87995 0.0
O420 O 0.8937 0.24162 0.78545 0.0
O421 O 0.88934 0.22079 0.84727 0.0
O422 O 0.88304 0.27872 0.85586 0.0
O423 O 0.85624 0.25373 0.90081 0.0
C424 C 0.82042 0.12817 0.85359 0.0
C425 C 0.84607 0.11588 0.86379 0.0
H426 H 0.89777 0.09941 0.88929 0.0
H427 H 0.93392 0.13088 0.918 0.0
H428 H 0.7692 0.20902 0.8567 0.0
H429 H 0.77324 0.15868 0.84189 0.0
H430 H 0.80355 0.11526 0.84246 0.0
H431 H 0.84865 0.09373 0.85999 0.0
Mn432 Mn 0.77652 0.11301 0.69803 0.0
Mn433 Mn 0.81218 0.15711 0.63447 0.0
C434 C 0.80511 0.14652 0.72819 0.0
C435 C 0.77502 0.06877 0.72997 0.0
C436 C 0.7511 0.16468 0.65645 0.0
O437 O 0.77166 0.09595 0.63885 0.0
O438 O 0.79989 0.12423 0.60215 0.0
C439 C 0.86024 0.11978 0.62315 0.0
N440 N 0.84986 0.14489 0.63475 0.0
C441 C 0.89509 0.16109 0.65512 0.0
C442 C 0.90631 0.13552 0.64288 0.0
C443 C 0.88877 0.11473 0.62697 0.0
C444 C 0.86644 0.16476 0.65109 0.0
H445 H 0.8468 0.10367 0.61146 0.0
C446 C 0.7841 0.10311 0.60487 0.0
O447 O 0.75254 0.08301 0.72344 0.0
O448 O 0.7979 0.08024 0.71775 0.0
N449 N 0.82606 0.19051 0.65934 0.0
C450 C 0.81265 0.21524 0.66305 0.0
C451 C 0.8275 0.2389 0.67556 0.0
C452 C 0.85607 0.23705 0.68336 0.0
C453 C 0.86975 0.21184 0.67662 0.0
C454 C 0.85394 0.18914 0.66317 0.0
H455 H 0.79078 0.21692 0.65638 0.0
O456 O 0.787 0.13361 0.75125 0.0
O457 O 0.80707 0.13834 0.68896 0.0
O458 O 0.749 0.1439 0.68177 0.0
O459 O 0.77335 0.17075 0.636 0.0
C460 C 0.89859 0.2086 0.68126 0.0
C461 C 0.91122 0.18313 0.67093 0.0
H462 H 0.92833 0.13161 0.64557 0.0
H463 H 0.89722 0.09487 0.61772 0.0
H464 H 0.81692 0.25851 0.67929 0.0
H465 H 0.8674 0.25528 0.69342 0.0
H466 H 0.91129 0.22566 0.69222 0.0
H467 H 0.93342 0.18089 0.67449 0.0
Mn468 Mn 0.91409 0.77598 0.69787 0.0
Mn469 Mn 0.86837 0.80997 0.63521 0.0
C470 C 0.88099 0.80481 0.72861 0.0
C471 C 0.95886 0.77546 0.72787 0.0
C472 C 0.86312 0.7488 0.65804 0.0
O473 O 0.92986 0.77076 0.63781 0.0
O474 O 0.90174 0.79987 0.6022 0.0
C475 C 0.90235 0.86041 0.6235 0.0
N476 N 0.87805 0.84836 0.63536 0.0
C477 C 0.85878 0.89242 0.65543 0.0
C478 C 0.88349 0.90534 0.64294 0.0
C479 C 0.90541 0.88924 0.62707 0.0
C480 C 0.85708 0.86358 0.65159 0.0
H481 H 0.91931 0.84807 0.61176 0.0
C482 C 0.92273 0.78383 0.60429 0.0
O483 O 0.94479 0.75275 0.7226 0.0
O484 O 0.94697 0.79805 0.7153 0.0
N485 N 0.8345 0.82148 0.66147 0.0
C486 C 0.81127 0.80607 0.66856 0.0
C487 C 0.78694 0.81916 0.68257 0.0
C488 C 0.78651 0.84802 0.68818 0.0
C489 C 0.81028 0.86358 0.67893 0.0
C490 C 0.83378 0.84942 0.66447 0.0
H491 H 0.81127 0.78396 0.66358 0.0
O492 O 0.89447 0.78714 0.75174 0.0
O493 O 0.88821 0.80594 0.68892 0.0
O494 O 0.88342 0.74769 0.68431 0.0
O495 O 0.85699 0.77045 0.63627 0.0
C496 C 0.81145 0.89263 0.68286 0.0
C497 C 0.8358 0.90701 0.67158 0.0
H498 H 0.88589 0.92758 0.64554 0.0
H499 H 0.92463 0.89902 0.61767 0.0
H500 H 0.76855 0.80703 0.68898 0.0
H501 H 0.76778 0.85803 0.69929 0.0
H502 H 0.79371 0.90412 0.69443 0.0
H503 H 0.83651 0.92932 0.67498 0.0
Mn504 Mn 0.2519 0.91465 0.69667 0.0
Mn505 Mn 0.21517 0.87081 0.63413 0.0
C506 C 0.22312 0.88165 0.7277 0.0
C507 C 0.25487 0.95886 0.72822 0.0
C508 C 0.2763 0.86247 0.65502 0.0
O509 O 0.25648 0.93147 0.63727 0.0
O510 O 0.22774 0.90337 0.6012 0.0
C511 C 0.1676 0.90881 0.62322 0.0
N512 N 0.17769 0.88361 0.63495 0.0
C513 C 0.13238 0.86824 0.65641 0.0
C514 C 0.12146 0.89391 0.64405 0.0
C515 C 0.13918 0.91433 0.62752 0.0
C516 C 0.16093 0.8641 0.65188 0.0
H517 H 0.18119 0.92464 0.61106 0.0
C518 C 0.24379 0.92432 0.6035 0.0
O519 O 0.27684 0.94399 0.7211 0.0
O520 O 0.23145 0.94801 0.71691 0.0
N521 N 0.20095 0.83773 0.65955 0.0
C522 C 0.21397 0.81278 0.66305 0.0
C523 C 0.19884 0.78939 0.67599 0.0
C524 C 0.17039 0.79174 0.68445 0.0
C525 C 0.15707 0.81717 0.67789 0.0
C526 C 0.17314 0.83957 0.66397 0.0
H527 H 0.23574 0.8107 0.65587 0.0
O528 O 0.24165 0.89436 0.75025 0.0
O529 O 0.22088 0.88975 0.68843 0.0
O530 O 0.27878 0.88333 0.68006 0.0
O531 O 0.25383 0.85654 0.63504 0.0
C532 C 0.12833 0.8209 0.68308 0.0
C533 C 0.11603 0.84653 0.67278 0.0
H534 H 0.09952 0.89818 0.6471 0.0
H535 H 0.13097 0.93427 0.61816 0.0
H536 H 0.20912 0.7696 0.67954 0.0
H537 H 0.15885 0.77373 0.69484 0.0
H538 H 0.11544 0.80408 0.69443 0.0
H539 H 0.0939 0.84914 0.67674 0.0
Mn540 Mn 0.11291 0.25106 0.69751 0.0
Mn541 Mn 0.15737 0.21509 0.63472 0.0
C542 C 0.1459 0.22214 0.72816 0.0
C543 C 0.06872 0.25425 0.72903 0.0
C544 C 0.1659 0.27573 0.65798 0.0
O545 O 0.09602 0.2559 0.63826 0.0
O546 O 0.12547 0.22888 0.60168 0.0
C547 C 0.11858 0.16854 0.62027 0.0
N548 N 0.14379 0.17789 0.63339 0.0
C549 C 0.15791 0.13189 0.65333 0.0
C550 C 0.1322 0.12174 0.63965 0.0
C551 C 0.11242 0.14018 0.62317 0.0
C552 C 0.1627 0.16042 0.65023 0.0
H553 H 0.10321 0.18264 0.60799 0.0
C554 C 0.10403 0.24421 0.60412 0.0
O555 O 0.08376 0.2761 0.72208 0.0
O556 O 0.0794 0.23076 0.71766 0.0
N557 N 0.18989 0.19968 0.66018 0.0
C558 C 0.21515 0.21201 0.66439 0.0
C559 C 0.23807 0.19614 0.67719 0.0
C560 C 0.23496 0.16764 0.68463 0.0
C561 C 0.20927 0.15505 0.67715 0.0
C562 C 0.18736 0.17187 0.66348 0.0
H563 H 0.2178 0.23381 0.65795 0.0
O564 O 0.13317 0.24055 0.75092 0.0
O565 O 0.13786 0.22005 0.68884 0.0
O566 O 0.14423 0.27799 0.68134 0.0
O567 O 0.17238 0.25344 0.63792 0.0
C568 C 0.20485 0.12632 0.68104 0.0
C569 C 0.17907 0.11478 0.66955 0.0
H570 H 0.12745 0.09986 0.64157 0.0
H571 H 0.09246 0.13254 0.61274 0.0
H572 H 0.25807 0.20587 0.6814 0.0
H573 H 0.25262 0.15551 0.69485 0.0
H574 H 0.22127 0.11287 0.69219 0.0
H575 H 0.17595 0.09264 0.67242 0.0
Mn576 Mn 0.75162 0.61259 0.69954 0.0
Mn577 Mn 0.71622 0.65705 0.63611 0.0
C578 C 0.72267 0.64583 0.72978 0.0
C579 C 0.75436 0.56835 0.73096 0.0
C580 C 0.77722 0.66428 0.65879 0.0
O581 O 0.75669 0.59591 0.63997 0.0
O582 O 0.72829 0.62422 0.60361 0.0
C583 C 0.66786 0.62021 0.62412 0.0
N584 N 0.67843 0.64518 0.63597 0.0
C585 C 0.63325 0.66185 0.65563 0.0
C586 C 0.62183 0.63641 0.64313 0.0
C587 C 0.63925 0.61546 0.62746 0.0
C588 C 0.66196 0.6652 0.65212 0.0
H589 H 0.6812 0.60398 0.61258 0.0
C590 C 0.74415 0.60316 0.60607 0.0
O591 O 0.77631 0.58329 0.72431 0.0
O592 O 0.73097 0.57912 0.71924 0.0
N593 N 0.70257 0.69051 0.66109 0.0
C594 C 0.7162 0.71512 0.66488 0.0
C595 C 0.70151 0.73896 0.677 0.0
C596 C 0.67288 0.73742 0.68437 0.0
C597 C 0.65898 0.71233 0.67754 0.0
C598 C 0.67466 0.68944 0.66446 0.0
H599 H 0.73812 0.71659 0.6585 0.0
O600 O 0.74076 0.6329 0.7529 0.0
O601 O 0.72092 0.63781 0.69044 0.0
O602 O 0.77899 0.6436 0.6842 0.0
O603 O 0.75521 0.67043 0.63782 0.0
C604 C 0.63007 0.70941 0.68164 0.0
C605 C 0.61724 0.68407 0.67113 0.0
H606 H 0.59975 0.63275 0.64541 0.0
H607 H 0.63064 0.5957 0.618 0.0
H608 H 0.71227 0.75848 0.68077 0.0
H609 H 0.66167 0.75578 0.69413 0.0
H610 H 0.61747 0.72662 0.6923 0.0
H611 H 0.59499 0.68208 0.67427 0.0
Mn612 Mn 0.41377 0.75221 0.69674 0.0
Mn613 Mn 0.36931 0.716 0.63465 0.0
C614 C 0.38134 0.72282 0.72794 0.0
C615 C 0.45832 0.75508 0.7273 0.0
C616 C 0.36203 0.77727 0.65536 0.0
O617 O 0.42986 0.75692 0.63685 0.0
O618 O 0.40237 0.72698 0.60175 0.0
C619 C 0.40514 0.66676 0.624 0.0
N620 N 0.38042 0.67802 0.63567 0.0
C621 C 0.36264 0.63342 0.65618 0.0
C622 C 0.38782 0.62131 0.64404 0.0
C623 C 0.4092 0.63808 0.62804 0.0
C624 C 0.35995 0.66216 0.65197 0.0
H625 H 0.42168 0.67961 0.61196 0.0
C626 C 0.42308 0.74337 0.60363 0.0
O627 O 0.44333 0.77703 0.72082 0.0
O628 O 0.44744 0.7317 0.71587 0.0
N629 N 0.33579 0.70348 0.66084 0.0
C630 C 0.31195 0.71806 0.66723 0.0
C631 C 0.28802 0.70418 0.68109 0.0
C632 C 0.28862 0.67538 0.68726 0.0
C633 C 0.31301 0.66064 0.67868 0.0
C634 C 0.33608 0.67556 0.66435 0.0
H635 H 0.31117 0.74012 0.6618 0.0
O636 O 0.39406 0.74128 0.75065 0.0
O637 O 0.38889 0.72127 0.68843 0.0
O638 O 0.38237 0.77932 0.68143 0.0
O639 O 0.35644 0.75508 0.6346 0.0
C640 C 0.31519 0.63168 0.68306 0.0
C641 C 0.3401 0.61812 0.67227 0.0
H642 H 0.39098 0.59918 0.64694 0.0
H643 H 0.42875 0.62891 0.61883 0.0
H644 H 0.26915 0.71566 0.68696 0.0
H645 H 0.27019 0.66476 0.69823 0.0
H646 H 0.29781 0.61962 0.69454 0.0
H647 H 0.34157 0.59586 0.67595 0.0
Mn648 Mn 0.27696 0.41408 0.69769 0.0
Mn649 Mn 0.31229 0.36915 0.63505 0.0
C650 C 0.30652 0.38168 0.72837 0.0
C651 C 0.27409 0.45851 0.72843 0.0
C652 C 0.25153 0.36158 0.65842 0.0
O653 O 0.2717 0.43023 0.63801 0.0
O654 O 0.29995 0.40163 0.60177 0.0
C655 C 0.36054 0.40587 0.62112 0.0
N656 N 0.35004 0.38108 0.63404 0.0
C657 C 0.39532 0.36476 0.65395 0.0
C658 C 0.40664 0.39002 0.6405 0.0
C659 C 0.38916 0.4107 0.62415 0.0
C660 C 0.36661 0.36128 0.65065 0.0
H661 H 0.34715 0.4219 0.60888 0.0
C662 C 0.28411 0.42275 0.60413 0.0
O663 O 0.25218 0.44341 0.7222 0.0
O664 O 0.29747 0.44781 0.71658 0.0
N665 N 0.32605 0.33619 0.66142 0.0
C666 C 0.31221 0.312 0.66855 0.0
C667 C 0.32687 0.2886 0.68262 0.0
C668 C 0.35569 0.29009 0.6883 0.0
C669 C 0.36966 0.31479 0.67883 0.0
C670 C 0.35398 0.33727 0.6642 0.0
H671 H 0.29014 0.31055 0.6636 0.0
O672 O 0.28823 0.39443 0.75134 0.0
O673 O 0.30785 0.38916 0.68876 0.0
O674 O 0.24977 0.38268 0.68302 0.0
O675 O 0.27347 0.3555 0.63732 0.0
C676 C 0.39859 0.31781 0.68248 0.0
C677 C 0.41138 0.34289 0.67047 0.0
H678 H 0.42872 0.39379 0.64264 0.0
H679 H 0.39772 0.43032 0.61392 0.0
H680 H 0.31597 0.26947 0.68913 0.0
H681 H 0.3669 0.27208 0.69948 0.0
H682 H 0.41121 0.30092 0.69427 0.0
H683 H 0.43362 0.345 0.6735 0.0
Mn684 Mn 0.61399 0.27521 0.6992 0.0
Mn685 Mn 0.65814 0.31118 0.63636 0.0
C686 C 0.64643 0.30478 0.72987 0.0
C687 C 0.56961 0.27243 0.73019 0.0
C688 C 0.66562 0.25003 0.65777 0.0
O689 O 0.59777 0.27008 0.63947 0.0
O690 O 0.62506 0.29983 0.60358 0.0
C691 C 0.62213 0.36024 0.62526 0.0
N692 N 0.6469 0.34914 0.63697 0.0
C693 C 0.66445 0.39387 0.65725 0.0
C694 C 0.63922 0.40583 0.64497 0.0
C695 C 0.61793 0.38891 0.62906 0.0
C696 C 0.66729 0.36514 0.65318 0.0
H697 H 0.60565 0.34727 0.61343 0.0
C698 C 0.60445 0.2833 0.60589 0.0
O699 O 0.58459 0.25046 0.72381 0.0
O700 O 0.58038 0.29577 0.71831 0.0
N701 N 0.69163 0.32397 0.66236 0.0
C702 C 0.71551 0.30951 0.669 0.0
C703 C 0.73934 0.32352 0.68294 0.0
C704 C 0.73858 0.35234 0.68899 0.0
C705 C 0.71415 0.36694 0.68016 0.0
C706 C 0.6912 0.35189 0.66572 0.0
H707 H 0.7164 0.28743 0.66372 0.0
O708 O 0.63382 0.28639 0.75283 0.0
O709 O 0.63876 0.30616 0.69037 0.0
O710 O 0.64537 0.24807 0.68401 0.0
O711 O 0.67114 0.27215 0.63677 0.0
C712 C 0.71181 0.3959 0.68444 0.0
C713 C 0.68687 0.40932 0.67341 0.0
H714 H 0.63595 0.42795 0.64774 0.0
H715 H 0.59833 0.39795 0.61978 0.0
H716 H 0.75824 0.31214 0.68901 0.0
H717 H 0.75693 0.36305 0.70005 0.0
H718 H 0.72909 0.40805 0.69605 0.0
H719 H 0.68527 0.43157 0.677 0.0
Mn720 Mn 0.752 0.41379 0.84058 0.0
Mn721 Mn 0.71614 0.36965 0.90359 0.0
C722 C 0.72243 0.38131 0.81002 0.0
C723 C 0.75476 0.45819 0.80965 0.0
C724 C 0.77724 0.36213 0.88191 0.0
O725 O 0.7572 0.43003 0.90026 0.0
O726 O 0.72746 0.4028 0.93628 0.0
C727 C 0.66703 0.4056 0.91463 0.0
N728 N 0.67816 0.38083 0.903 0.0
C729 C 0.63345 0.36321 0.88275 0.0
C730 C 0.62146 0.38844 0.89496 0.0
C731 C 0.63835 0.40976 0.91082 0.0
C732 C 0.66218 0.36041 0.88683 0.0
H733 H 0.67998 0.42211 0.92639 0.0
C734 C 0.74397 0.42342 0.93387 0.0
O735 O 0.77672 0.44318 0.81594 0.0
O736 O 0.73142 0.44741 0.82154 0.0
N737 N 0.70338 0.33611 0.87771 0.0
C738 C 0.71787 0.31224 0.87115 0.0
C739 C 0.70388 0.28838 0.85727 0.0
C740 C 0.67506 0.2891 0.85118 0.0
C741 C 0.66043 0.31353 0.85995 0.0
C742 C 0.67546 0.3365 0.87435 0.0
H743 H 0.73994 0.31137 0.87644 0.0
O744 O 0.74077 0.39396 0.787 0.0
O745 O 0.72108 0.38899 0.84952 0.0
O746 O 0.77914 0.38238 0.85567 0.0
O747 O 0.75519 0.35667 0.90313 0.0
C748 C 0.63147 0.31584 0.85564 0.0
C749 C 0.61802 0.34077 0.86662 0.0
H750 H 0.59933 0.39169 0.89218 0.0
H751 H 0.62929 0.42937 0.92004 0.0
H752 H 0.71528 0.26948 0.85126 0.0
H753 H 0.66436 0.27074 0.84016 0.0
H754 H 0.61934 0.29854 0.84405 0.0
H755 H 0.59577 0.34234 0.86301 0.0
Mn756 Mn 0.6127 0.7516 0.83781 0.0
Mn757 Mn 0.65628 0.71541 0.90169 0.0
C758 C 0.64601 0.7226 0.80792 0.0
C759 C 0.5687 0.75466 0.80547 0.0
C760 C 0.66461 0.77636 0.87985 0.0
O761 O 0.59537 0.75647 0.89685 0.0
O762 O 0.62367 0.72837 0.93371 0.0
C763 C 0.61803 0.66812 0.91364 0.0
N764 N 0.64329 0.67799 0.90171 0.0
C765 C 0.6586 0.63238 0.88174 0.0
C766 C 0.63282 0.62171 0.89414 0.0
C767 C 0.61242 0.63968 0.91004 0.0
C768 C 0.66282 0.66097 0.88546 0.0
H769 H 0.60221 0.68188 0.92554 0.0
C770 C 0.60256 0.74412 0.93092 0.0
O771 O 0.58366 0.77654 0.81264 0.0
O772 O 0.57936 0.7312 0.81705 0.0
N773 N 0.68945 0.70079 0.87718 0.0
C774 C 0.71452 0.71362 0.87405 0.0
C775 C 0.73795 0.69823 0.86204 0.0
C776 C 0.73551 0.66971 0.8542 0.0
C777 C 0.70994 0.65661 0.86048 0.0
C778 C 0.68749 0.67294 0.87345 0.0
H779 H 0.71665 0.73544 0.88081 0.0
O780 O 0.63349 0.74097 0.78481 0.0
O781 O 0.63758 0.72062 0.84703 0.0
O782 O 0.64382 0.7786 0.85465 0.0
O783 O 0.67066 0.75403 0.90008 0.0
C784 C 0.70612 0.62783 0.85603 0.0
C785 C 0.68035 0.61576 0.86622 0.0
H786 H 0.6285 0.59975 0.8917 0.0
H787 H 0.59243 0.63163 0.91951 0.0
H788 H 0.75783 0.70836 0.85875 0.0
H789 H 0.75356 0.65796 0.84456 0.0
H790 H 0.72297 0.61473 0.84541 0.0
H791 H 0.67769 0.59359 0.86291 0.0
Mn792 Mn 0.27623 0.61312 0.8378 0.0
Mn793 Mn 0.31115 0.65802 0.90099 0.0
C794 C 0.30561 0.64588 0.80754 0.0
C795 C 0.27372 0.56873 0.80686 0.0
C796 C 0.25028 0.66502 0.8777 0.0
O797 O 0.27096 0.59683 0.89741 0.0
O798 O 0.29961 0.62499 0.9338 0.0
C799 C 0.36024 0.62221 0.91337 0.0
N800 N 0.34917 0.64694 0.90142 0.0
C801 C 0.39403 0.66454 0.88188 0.0
C802 C 0.40595 0.63938 0.89453 0.0
C803 C 0.38895 0.61808 0.91018 0.0
C804 C 0.36526 0.66732 0.88536 0.0
H805 H 0.34721 0.60571 0.92484 0.0
C806 C 0.28367 0.60394 0.93123 0.0
O807 O 0.2517 0.58367 0.81303 0.0
O808 O 0.29702 0.57957 0.81886 0.0
N809 N 0.3241 0.69149 0.87509 0.0
C810 C 0.30965 0.71535 0.86819 0.0
C811 C 0.32373 0.7392 0.85448 0.0
C812 C 0.35259 0.73849 0.84894 0.0
C813 C 0.36717 0.7141 0.85811 0.0
C814 C 0.35205 0.69114 0.87235 0.0
H815 H 0.28754 0.71621 0.87304 0.0
O816 O 0.28751 0.63302 0.78434 0.0
O817 O 0.30688 0.63826 0.84708 0.0
O818 O 0.24879 0.64426 0.85242 0.0
O819 O 0.27205 0.67093 0.89934 0.0
C820 C 0.39616 0.71182 0.85441 0.0
C821 C 0.40956 0.68695 0.86586 0.0
H822 H 0.4281 0.63615 0.89222 0.0
H823 H 0.39795 0.5985 0.91968 0.0
H824 H 0.31236 0.75807 0.84818 0.0
H825 H 0.36336 0.75684 0.83804 0.0
H826 H 0.40837 0.7291 0.84293 0.0
H827 H 0.43184 0.68539 0.86271 0.0
Mn828 Mn 0.41511 0.2761 0.83981 0.0
Mn829 Mn 0.37025 0.31155 0.90239 0.0
C830 C 0.3828 0.30574 0.80906 0.0
C831 C 0.45956 0.27306 0.80917 0.0
C832 C 0.36263 0.25078 0.87911 0.0
O833 O 0.43114 0.27077 0.89957 0.0
O834 O 0.40286 0.29943 0.93572 0.0
C835 C 0.40677 0.36004 0.91553 0.0
N836 N 0.38197 0.34938 0.90305 0.0
C837 C 0.36532 0.39452 0.88306 0.0
C838 C 0.39058 0.40602 0.8962 0.0
C839 C 0.41144 0.38867 0.91236 0.0
C840 C 0.36201 0.3658 0.88654 0.0
H841 H 0.42293 0.34674 0.92743 0.0
C842 C 0.42384 0.28337 0.93339 0.0
O843 O 0.44438 0.25121 0.81537 0.0
O844 O 0.44894 0.29648 0.82102 0.0
N845 N 0.33716 0.32507 0.87603 0.0
C846 C 0.31306 0.31107 0.86899 0.0
C847 C 0.28954 0.32555 0.85494 0.0
C848 C 0.29083 0.35437 0.8492 0.0
C849 C 0.31545 0.36852 0.85857 0.0
C850 C 0.33805 0.35301 0.87317 0.0
H851 H 0.31175 0.28899 0.87398 0.0
O852 O 0.39556 0.28745 0.7861 0.0
O853 O 0.39024 0.30703 0.84868 0.0
O854 O 0.38362 0.24902 0.85431 0.0
O855 O 0.35672 0.27267 0.90044 0.0
C856 C 0.31828 0.39746 0.8548 0.0
C857 C 0.34331 0.41042 0.86662 0.0
H858 H 0.39421 0.4281 0.89392 0.0
H859 H 0.43107 0.39734 0.92228 0.0
H860 H 0.27048 0.31453 0.84851 0.0
H861 H 0.27273 0.36546 0.83804 0.0
H862 H 0.30129 0.40996 0.84304 0.0
H863 H 0.34528 0.43267 0.86346 0.0
Mn864 Mn 0.27658 0.4144 0.33899 0.0
Mn865 Mn 0.31175 0.3699 0.40253 0.0
C866 C 0.3049 0.38066 0.30888 0.0
C867 C 0.27525 0.45848 0.30677 0.0
C868 C 0.25064 0.36301 0.38052 0.0
O869 O 0.27195 0.43159 0.39814 0.0
O870 O 0.29952 0.40269 0.43487 0.0
C871 C 0.35993 0.40694 0.41498 0.0
N872 N 0.34946 0.38199 0.40272 0.0
C873 C 0.39469 0.36572 0.38251 0.0
C874 C 0.40598 0.39116 0.39525 0.0
C875 C 0.38849 0.41189 0.41143 0.0
C876 C 0.36601 0.36215 0.38623 0.0
H877 H 0.34654 0.42301 0.42711 0.0
C878 C 0.28412 0.42406 0.43219 0.0
O879 O 0.25272 0.4444 0.31356 0.0
O880 O 0.29812 0.44699 0.319 0.0
N881 N 0.32557 0.33654 0.37751 0.0
C882 C 0.31208 0.31188 0.3735 0.0
C883 C 0.32688 0.28821 0.36089 0.0
C884 C 0.35548 0.29 0.35326 0.0
C885 C 0.36923 0.31515 0.36029 0.0
C886 C 0.35345 0.33785 0.37383 0.0
H887 H 0.29018 0.31025 0.38002 0.0
O888 O 0.28683 0.39364 0.28583 0.0
O889 O 0.30694 0.38886 0.34809 0.0
O890 O 0.24879 0.38386 0.35535 0.0
O891 O 0.27284 0.35647 0.40074 0.0
C892 C 0.39809 0.31831 0.35589 0.0
C893 C 0.41079 0.34369 0.36658 0.0
H894 H 0.42803 0.39498 0.39282 0.0
H895 H 0.39702 0.43163 0.42117 0.0
H896 H 0.31624 0.26865 0.35693 0.0
H897 H 0.36677 0.27178 0.34313 0.0
H898 H 0.41077 0.30125 0.34487 0.0
H899 H 0.43301 0.34586 0.36325 0.0
Mn900 Mn 0.6129 0.27661 0.34035 0.0
Mn901 Mn 0.65736 0.31258 0.40311 0.0
C902 C 0.64595 0.30544 0.3096 0.0
C903 C 0.5687 0.27343 0.30889 0.0
C904 C 0.66573 0.25186 0.38007 0.0
O905 O 0.59609 0.27176 0.39967 0.0
O906 O 0.62524 0.29913 0.43626 0.0
C907 C 0.61888 0.35951 0.41637 0.0
N908 N 0.64411 0.34992 0.40388 0.0
C909 C 0.65865 0.3957 0.38342 0.0
C910 C 0.63295 0.4061 0.39665 0.0
C911 C 0.61293 0.38789 0.41305 0.0
C912 C 0.66322 0.36715 0.387 0.0
H913 H 0.60334 0.34555 0.42835 0.0
C914 C 0.6039 0.28361 0.4338 0.0
O915 O 0.58373 0.25157 0.31586 0.0
O916 O 0.57939 0.29692 0.32025 0.0
N917 N 0.69009 0.32762 0.37766 0.0
C918 C 0.71525 0.31507 0.37377 0.0
C919 C 0.73835 0.3307 0.36099 0.0
C920 C 0.7355 0.35918 0.35319 0.0
C921 C 0.70989 0.37202 0.36032 0.0
C922 C 0.68781 0.35545 0.37406 0.0
H923 H 0.71771 0.29328 0.38047 0.0
O924 O 0.63313 0.28707 0.28687 0.0
O925 O 0.63793 0.30756 0.34893 0.0
O926 O 0.64419 0.24968 0.35644 0.0
O927 O 0.67212 0.2741 0.40036 0.0
C928 C 0.70572 0.40076 0.35602 0.0
C929 C 0.67999 0.41256 0.36713 0.0
H930 H 0.62836 0.42801 0.39436 0.0
H931 H 0.59295 0.3957 0.42304 0.0
H932 H 0.75829 0.32079 0.35706 0.0
H933 H 0.75329 0.37112 0.34295 0.0
H934 H 0.72228 0.41402 0.34481 0.0
H935 H 0.67705 0.4347 0.3639 0.0
Mn936 Mn 0.75114 0.61396 0.34039 0.0
Mn937 Mn 0.71412 0.65791 0.40186 0.0
C938 C 0.72161 0.646 0.30865 0.0
C939 C 0.7529 0.56926 0.31001 0.0
C940 C 0.77536 0.66653 0.38088 0.0
O941 O 0.75615 0.59804 0.40026 0.0
O942 O 0.72623 0.62538 0.43554 0.0
C943 C 0.66607 0.62053 0.41281 0.0
N944 N 0.67648 0.6456 0.40111 0.0
C945 C 0.63134 0.66164 0.37995 0.0
C946 C 0.62009 0.63611 0.39234 0.0
C947 C 0.63757 0.61542 0.40867 0.0
C948 C 0.65995 0.66539 0.3844 0.0
H949 H 0.67948 0.60448 0.42482 0.0
C950 C 0.7429 0.60487 0.4337 0.0
O951 O 0.77533 0.58371 0.31585 0.0
O952 O 0.73006 0.58073 0.32223 0.0
N953 N 0.70043 0.69087 0.37525 0.0
C954 C 0.71419 0.71512 0.36827 0.0
C955 C 0.69952 0.73847 0.35403 0.0
C956 C 0.67077 0.73682 0.34776 0.0
C957 C 0.65688 0.712 0.3567 0.0
C958 C 0.67255 0.6896 0.37166 0.0
H959 H 0.73623 0.71661 0.37313 0.0
O960 O 0.74023 0.63335 0.28624 0.0
O961 O 0.72001 0.63858 0.34824 0.0
O962 O 0.77818 0.64574 0.35565 0.0
O963 O 0.75281 0.67175 0.40102 0.0
C964 C 0.62803 0.70874 0.35206 0.0
C965 C 0.61531 0.68347 0.36325 0.0
H966 H 0.5981 0.63213 0.38928 0.0
H967 H 0.62909 0.59557 0.41797 0.0
H968 H 0.71037 0.75764 0.34771 0.0
H969 H 0.65955 0.75478 0.33637 0.0
H970 H 0.61543 0.72556 0.34002 0.0
H971 H 0.59314 0.68115 0.35933 0.0
Mn972 Mn 0.41397 0.75033 0.338 0.0
Mn973 Mn 0.36821 0.71618 0.40062 0.0
C974 C 0.3808 0.72163 0.30736 0.0
C975 C 0.45844 0.75125 0.3072 0.0
C976 C 0.36221 0.77712 0.37712 0.0
O977 O 0.43023 0.75531 0.39765 0.0
O978 O 0.40098 0.72771 0.43386 0.0
C979 C 0.40375 0.66706 0.41441 0.0
N980 N 0.3792 0.67815 0.4016 0.0
C981 C 0.36179 0.6333 0.38159 0.0
C982 C 0.3868 0.62137 0.39494 0.0
C983 C 0.4079 0.63834 0.41128 0.0
C984 C 0.359 0.66208 0.38499 0.0
H985 H 0.42012 0.68006 0.4266 0.0
C986 C 0.42245 0.74307 0.43152 0.0
O987 O 0.44433 0.77387 0.31308 0.0
O988 O 0.44677 0.72851 0.31964 0.0
N989 N 0.33491 0.70324 0.37426 0.0
C990 C 0.31108 0.71767 0.36706 0.0
C991 C 0.28733 0.70359 0.35295 0.0
C992 C 0.28811 0.67474 0.34731 0.0
C993 C 0.31244 0.66017 0.35681 0.0
C994 C 0.33529 0.67529 0.37147 0.0
H995 H 0.31019 0.73978 0.37199 0.0
O996 O 0.39406 0.73952 0.28434 0.0
O997 O 0.38822 0.7202 0.34697 0.0
O998 O 0.38335 0.77844 0.35248 0.0
O999 O 0.35561 0.75532 0.39824 0.0
C1000 C 0.31476 0.63118 0.35312 0.0
C1001 C 0.33954 0.61778 0.36506 0.0
H1002 H 0.39003 0.59922 0.39271 0.0
H1003 H 0.42733 0.62932 0.4214 0.0
H1004 H 0.26848 0.71495 0.34641 0.0
H1005 H 0.26983 0.66398 0.3361 0.0
H1006 H 0.29757 0.61897 0.34132 0.0
H1007 H 0.34111 0.5955 0.36194 0.0
Mn1008 Mn 0.27536 0.61294 0.19622 0.0
Mn1009 Mn 0.31019 0.65791 0.13335 0.0
C1010 C 0.30432 0.64595 0.22681 0.0
C1011 C 0.27448 0.56837 0.22689 0.0
C1012 C 0.24893 0.66406 0.15532 0.0
O1013 O 0.27029 0.59678 0.13648 0.0
O1014 O 0.29959 0.62455 0.10063 0.0
C1015 C 0.36003 0.62296 0.12246 0.0
N1016 N 0.34839 0.64752 0.13395 0.0
C1017 C 0.39271 0.66601 0.15446 0.0
C1018 C 0.40522 0.64102 0.14235 0.0
C1019 C 0.38878 0.61936 0.12644 0.0
C1020 C 0.36393 0.66825 0.15021 0.0
H1021 H 0.34743 0.60618 0.11073 0.0
C1022 C 0.28344 0.60365 0.10295 0.0
O1023 O 0.25184 0.5825 0.22122 0.0
O1024 O 0.29716 0.5801 0.21437 0.0
N1025 N 0.32223 0.69169 0.1593 0.0
C1026 C 0.30725 0.71525 0.1659 0.0
C1027 C 0.32074 0.73938 0.17984 0.0
C1028 C 0.34956 0.73926 0.18592 0.0
C1029 C 0.3647 0.71515 0.17714 0.0
C1030 C 0.35016 0.69187 0.16268 0.0
H1031 H 0.28517 0.71565 0.16058 0.0
O1032 O 0.28638 0.63282 0.24991 0.0
O1033 O 0.30561 0.63846 0.18725 0.0
O1034 O 0.24742 0.64376 0.1816 0.0
O1035 O 0.27085 0.66995 0.13401 0.0
C1036 C 0.39369 0.71342 0.18153 0.0
C1037 C 0.40766 0.68876 0.17065 0.0
H1038 H 0.42739 0.6382 0.14527 0.0
H1039 H 0.39823 0.59992 0.11733 0.0
H1040 H 0.30894 0.75803 0.18587 0.0
H1041 H 0.35987 0.75784 0.19699 0.0
H1042 H 0.40546 0.73097 0.19313 0.0
H1043 H 0.42993 0.68762 0.17438 0.0
Mn1044 Mn 0.41444 0.27579 0.19835 0.0
Mn1045 Mn 0.37097 0.31252 0.13521 0.0
C1046 C 0.38133 0.30461 0.22888 0.0
C1047 C 0.45852 0.27281 0.2303 0.0
C1048 C 0.36246 0.25142 0.15613 0.0
O1049 O 0.43152 0.27111 0.13917 0.0
O1050 O 0.40371 0.29995 0.10276 0.0
C1051 C 0.40904 0.36009 0.12479 0.0
N1052 N 0.38376 0.35001 0.13613 0.0
C1053 C 0.36823 0.39533 0.1572 0.0
C1054 C 0.39399 0.40625 0.14522 0.0
C1055 C 0.41452 0.38851 0.12909 0.0
C1056 C 0.36413 0.36677 0.15269 0.0
H1057 H 0.42496 0.34649 0.11294 0.0
C1058 C 0.42459 0.28385 0.10533 0.0
O1059 O 0.44366 0.25085 0.22313 0.0
O1060 O 0.44774 0.29622 0.21887 0.0
N1061 N 0.33774 0.32674 0.16016 0.0
C1062 C 0.31278 0.3137 0.16342 0.0
C1063 C 0.28931 0.32882 0.176 0.0
C1064 C 0.29159 0.3573 0.18432 0.0
C1065 C 0.31704 0.37063 0.17802 0.0
C1066 C 0.33953 0.35456 0.16446 0.0
H1067 H 0.31076 0.29191 0.15634 0.0
O1068 O 0.39391 0.28612 0.25166 0.0
O1069 O 0.38963 0.30681 0.18973 0.0
O1070 O 0.38317 0.24893 0.18144 0.0
O1071 O 0.35669 0.27387 0.136 0.0
C1072 C 0.32072 0.39938 0.18315 0.0
C1073 C 0.34641 0.41169 0.17318 0.0
H1074 H 0.39822 0.42819 0.14827 0.0
H1075 H 0.43453 0.39672 0.12003 0.0
H1076 H 0.26952 0.31853 0.17938 0.0
H1077 H 0.27351 0.36884 0.19442 0.0
H1078 H 0.30383 0.41227 0.19423 0.0
H1079 H 0.34898 0.43383 0.17712 0.0
Mn1080 Mn 0.75109 0.41483 0.19911 0.0
Mn1081 Mn 0.71644 0.36986 0.13554 0.0
C1082 C 0.72261 0.38114 0.22916 0.0
C1083 C 0.75242 0.45904 0.23096 0.0
C1084 C 0.77727 0.36289 0.15921 0.0
O1085 O 0.75601 0.43183 0.13991 0.0
O1086 O 0.72907 0.4025 0.10287 0.0
C1087 C 0.66844 0.40696 0.12209 0.0
N1088 N 0.67874 0.382 0.13453 0.0
C1089 C 0.63332 0.36598 0.15431 0.0
C1090 C 0.6222 0.3914 0.14117 0.0
C1091 C 0.63987 0.41203 0.12513 0.0
C1092 C 0.66201 0.3623 0.15102 0.0
H1093 H 0.68197 0.42296 0.11034 0.0
C1094 C 0.74427 0.42404 0.10566 0.0
O1095 O 0.77492 0.44486 0.22453 0.0
O1096 O 0.72956 0.44754 0.21862 0.0
N1097 N 0.70231 0.33664 0.1607 0.0
C1098 C 0.71566 0.31192 0.16499 0.0
C1099 C 0.7007 0.28835 0.17759 0.0
C1100 C 0.67208 0.29028 0.1849 0.0
C1101 C 0.65847 0.31546 0.17749 0.0
C1102 C 0.67441 0.33804 0.16394 0.0
H1103 H 0.73758 0.31017 0.15873 0.0
O1104 O 0.74054 0.39426 0.25231 0.0
O1105 O 0.72077 0.38917 0.18983 0.0
O1106 O 0.77891 0.38421 0.18343 0.0
O1107 O 0.7553 0.35626 0.13844 0.0
C1108 C 0.6296 0.31873 0.18144 0.0
C1109 C 0.61706 0.34409 0.17028 0.0
H1110 H 0.60015 0.39531 0.14325 0.0
H1111 H 0.6315 0.43178 0.11519 0.0
H1112 H 0.71123 0.26875 0.18178 0.0
H1113 H 0.66066 0.27214 0.19504 0.0
H1114 H 0.61679 0.30175 0.19247 0.0
H1115 H 0.59482 0.34634 0.17327 0.0
Mn1116 Mn 0.61271 0.75072 0.19641 0.0
Mn1117 Mn 0.65842 0.71691 0.1333 0.0
C1118 C 0.64576 0.72171 0.22665 0.0
C1119 C 0.56826 0.7515 0.2273 0.0
C1120 C 0.66456 0.77768 0.15776 0.0
O1121 O 0.59647 0.75611 0.13684 0.0
O1122 O 0.62574 0.72883 0.10009 0.0
C1123 C 0.62274 0.66801 0.11833 0.0
N1124 N 0.64727 0.67893 0.13161 0.0
C1125 C 0.66433 0.6339 0.15138 0.0
C1126 C 0.63934 0.62215 0.13757 0.0
C1127 C 0.61843 0.6393 0.12108 0.0
C1128 C 0.66731 0.66267 0.14829 0.0
H1129 H 0.60652 0.68115 0.10602 0.0
C1130 C 0.60429 0.74421 0.10271 0.0
O1131 O 0.58239 0.77414 0.22172 0.0
O1132 O 0.57987 0.72883 0.21443 0.0
N1133 N 0.69159 0.70365 0.15967 0.0
C1134 C 0.71544 0.71794 0.16734 0.0
C1135 C 0.73903 0.70367 0.18167 0.0
C1136 C 0.73804 0.67481 0.1871 0.0
C1137 C 0.71368 0.6604 0.17711 0.0
C1138 C 0.69102 0.6757 0.16221 0.0
H1139 H 0.71647 0.74006 0.16263 0.0
O1140 O 0.63256 0.73952 0.2499 0.0
O1141 O 0.63837 0.72057 0.18699 0.0
O1142 O 0.6434 0.77889 0.18237 0.0
O1143 O 0.67115 0.75598 0.13639 0.0
C1144 C 0.71116 0.63142 0.18057 0.0
C1145 C 0.68639 0.6182 0.16813 0.0
H1146 H 0.63597 0.60001 0.13953 0.0
H1147 H 0.59902 0.63042 0.11058 0.0
H1148 H 0.75789 0.71491 0.18859 0.0
H1149 H 0.75618 0.6639 0.19851 0.0
H1150 H 0.72819 0.61908 0.19257 0.0
H1151 H 0.68466 0.59592 0.17104 0.0
C1152 C 0.34159 0.20742 0.1845 0.0
C1153 C 0.34278 0.22771 0.15231 0.0
C1154 C 0.32114 0.18672 0.1844 0.0
C1155 C 0.30096 0.18535 0.15209 0.0
H1156 H 0.35589 0.20811 0.21104 0.0
H1157 H 0.32056 0.17236 0.21087 0.0
S1158 S 0.29728 0.23109 0.05708 0.0
N1159 N 0.32357 0.24335 0.08487 0.0
N1160 N 0.2853 0.20455 0.08459 0.0
C1161 C 0.30281 0.20463 0.11848 0.0
C1162 C 0.32362 0.22573 0.11862 0.0
C1163 C 0.82283 0.30237 0.12542 0.0
C1164 C 0.84376 0.30172 0.15669 0.0
C1165 C 0.80216 0.32277 0.12559 0.0
C1166 C 0.80139 0.34358 0.15699 0.0
H1167 H 0.82192 0.28655 0.10101 0.0
H1168 H 0.78627 0.32177 0.1013 0.0
S1169 S 0.85199 0.35211 0.24523 0.0
N1170 N 0.86294 0.32454 0.21918 0.0
N1171 N 0.8242 0.36281 0.21949 0.0
C1172 C 0.82279 0.34386 0.18756 0.0
C1173 C 0.8439 0.32302 0.1874 0.0
C1174 C 0.7047 0.80267 0.12438 0.0
C1175 C 0.68384 0.80185 0.15574 0.0
C1176 C 0.72527 0.82319 0.12454 0.0
C1177 C 0.72602 0.84393 0.15607 0.0
H1178 H 0.70565 0.78691 0.09989 0.0
H1179 H 0.74112 0.8223 0.10018 0.0
S1180 S 0.6754 0.85215 0.24435 0.0
N1181 N 0.66458 0.82452 0.21829 0.0
N1182 N 0.70313 0.86301 0.2186 0.0
C1183 C 0.70463 0.84407 0.18666 0.0
C1184 C 0.68362 0.82311 0.18649 0.0
C1185 C 0.20571 0.68553 0.18539 0.0
C1186 C 0.22499 0.68344 0.15189 0.0
C1187 C 0.18533 0.7063 0.18578 0.0
C1188 C 0.18334 0.7259 0.15269 0.0
H1189 H 0.20708 0.67179 0.21256 0.0
H1190 H 0.17181 0.70766 0.2132 0.0
S1191 S 0.22598 0.72689 0.05426 0.0
N1192 N 0.2387 0.70096 0.08237 0.0
N1193 N 0.20056 0.73987 0.08313 0.0
C1194 C 0.20145 0.72305 0.1178 0.0
C1195 C 0.22219 0.7019 0.11739 0.0
C1196 C 0.30121 0.82229 0.41015 0.0
C1197 C 0.30077 0.84337 0.37915 0.0
C1198 C 0.32177 0.80178 0.41026 0.0
C1199 C 0.34293 0.80128 0.37935 0.0
H1200 H 0.28514 0.82114 0.43414 0.0
H1201 H 0.32058 0.78575 0.43432 0.0
S1202 S 0.35226 0.85255 0.29227 0.0
N1203 N 0.32428 0.86312 0.31764 0.0
N1204 N 0.3628 0.82464 0.31785 0.0
C1205 C 0.34344 0.82287 0.34914 0.0
C1206 C 0.32245 0.84383 0.34903 0.0
C1207 C 0.20767 0.34156 0.34993 0.0
C1208 C 0.2265 0.34397 0.38397 0.0
C1209 C 0.1869 0.32118 0.34987 0.0
C1210 C 0.18409 0.30239 0.38388 0.0
H1211 H 0.20972 0.35467 0.32213 0.0
H1212 H 0.17381 0.31937 0.32202 0.0
S1213 S 0.22514 0.30296 0.48391 0.0
N1214 N 0.23886 0.32792 0.45483 0.0
N1215 N 0.1999 0.28977 0.45484 0.0
C1216 C 0.2017 0.30571 0.41929 0.0
C1217 C 0.22286 0.32642 0.4193 0.0
C1218 C 0.72783 0.20753 0.41158 0.0
C1219 C 0.72741 0.18564 0.38187 0.0
C1220 C 0.70739 0.2282 0.41165 0.0
C1221 C 0.68545 0.22801 0.38208 0.0
H1222 H 0.74447 0.20918 0.43456 0.0
H1223 H 0.70921 0.24479 0.43469 0.0
S1224 S 0.67388 0.17473 0.29844 0.0
N1225 N 0.70239 0.16462 0.32284 0.0
N1226 N 0.6641 0.2033 0.32299 0.0
C1227 C 0.6842 0.20573 0.35307 0.0
C1228 C 0.70507 0.18465 0.35297 0.0
C1229 C 0.82285 0.6843 0.36039 0.0
C1230 C 0.79859 0.68699 0.38506 0.0
C1231 C 0.84346 0.70495 0.36025 0.0
C1232 C 0.84082 0.72929 0.38476 0.0
H1233 H 0.82566 0.66648 0.33993 0.0
H1234 H 0.86123 0.70209 0.33968 0.0
S1235 S 0.78189 0.74617 0.45658 0.0
N1236 N 0.77395 0.71569 0.43644 0.0
N1237 N 0.81229 0.75409 0.43613 0.0
C1238 C 0.81717 0.73171 0.41093 0.0
C1239 C 0.79623 0.71074 0.41109 0.0
C1240 C 0.70624 0.84055 0.85027 0.0
C1241 C 0.72535 0.843 0.88393 0.0
C1242 C 0.68597 0.81967 0.85006 0.0
C1243 C 0.68395 0.8003 0.88347 0.0
H1244 H 0.70765 0.8541 0.82288 0.0
H1245 H 0.67255 0.81804 0.82255 0.0
S1246 S 0.7261 0.80029 0.98233 0.0
N1247 N 0.73883 0.82607 0.95392 0.0
N1248 N 0.70091 0.7869 0.95339 0.0
C1249 C 0.70191 0.80346 0.91844 0.0
C1250 C 0.72251 0.82476 0.91871 0.0
C1251 C 0.20585 0.72653 0.9112 0.0
C1252 C 0.18461 0.72717 0.88045 0.0
C1253 C 0.2262 0.7058 0.91105 0.0
C1254 C 0.22639 0.68466 0.88009 0.0
H1255 H 0.20721 0.74256 0.93524 0.0
H1256 H 0.24233 0.70681 0.93496 0.0
S1257 S 0.17479 0.67606 0.79323 0.0
N1258 N 0.16453 0.70405 0.81888 0.0
N1259 N 0.20267 0.6652 0.81858 0.0
C1260 C 0.2047 0.68444 0.85 0.0
C1261 C 0.1839 0.70561 0.85018 0.0
C1262 C 0.32083 0.22746 0.91089 0.0
C1263 C 0.34279 0.22702 0.88129 0.0
C1264 C 0.3001 0.20709 0.91077 0.0
C1265 C 0.30027 0.1852 0.8811 0.0
H1266 H 0.31919 0.24407 0.93392 0.0
H1267 H 0.28346 0.20893 0.93372 0.0
S1268 S 0.35373 0.17357 0.79776 0.0
N1269 N 0.36388 0.20201 0.82231 0.0
N1270 N 0.32507 0.16385 0.8221 0.0
C1271 C 0.32262 0.18392 0.85222 0.0
C1272 C 0.34378 0.20472 0.85232 0.0
C1273 C 0.84111 0.32 0.85229 0.0
C1274 C 0.84267 0.30001 0.88488 0.0
C1275 C 0.8207 0.34072 0.85256 0.0
C1276 C 0.80093 0.34241 0.88544 0.0
H1277 H 0.85506 0.31901 0.82534 0.0
H1278 H 0.81978 0.35482 0.82578 0.0
S1279 S 0.79853 0.29767 0.98164 0.0
N1280 N 0.82441 0.28509 0.9533 0.0
N1281 N 0.78618 0.32393 0.95388 0.0
C1282 C 0.80321 0.32348 0.91943 0.0
C1283 C 0.82399 0.30235 0.91912 0.0
C1284 C 0.68692 0.20627 0.68632 0.0
C1285 C 0.68518 0.22625 0.65374 0.0
C1286 C 0.70751 0.1857 0.68599 0.0
C1287 C 0.72727 0.1842 0.65307 0.0
H1288 H 0.67299 0.20713 0.7133 0.0
H1289 H 0.70858 0.1716 0.71274 0.0
S1290 S 0.72935 0.22898 0.55695 0.0
N1291 N 0.70334 0.24131 0.58527 0.0
N1292 N 0.74189 0.20281 0.5847 0.0
C1293 C 0.72484 0.20311 0.61912 0.0
C1294 C 0.70387 0.22404 0.61944 0.0
C1295 C 0.81941 0.68669 0.69049 0.0
C1296 C 0.80132 0.68337 0.65566 0.0
C1297 C 0.8403 0.70697 0.69024 0.0
C1298 C 0.84395 0.72473 0.65512 0.0
H1299 H 0.81668 0.67436 0.71898 0.0
H1300 H 0.85281 0.70955 0.71858 0.0
S1301 S 0.80513 0.7214 0.5534 0.0
N1302 N 0.79057 0.69741 0.58332 0.0
N1303 N 0.82978 0.73538 0.58273 0.0
C1304 C 0.82706 0.7205 0.61919 0.0
C1305 C 0.80578 0.69991 0.61949 0.0
C1306 C 0.32005 0.84145 0.68399 0.0
C1307 C 0.30003 0.84282 0.65141 0.0
C1308 C 0.34074 0.82099 0.68404 0.0
C1309 C 0.34237 0.801 0.65148 0.0
H1310 H 0.31912 0.85559 0.71072 0.0
H1311 H 0.35485 0.82023 0.7108 0.0
S1312 S 0.29754 0.79797 0.55541 0.0
N1313 N 0.28502 0.82407 0.58335 0.0
N1314 N 0.32382 0.7858 0.58332 0.0
C1315 C 0.32341 0.80307 0.61748 0.0
C1316 C 0.30231 0.82388 0.61749 0.0
C1317 C 0.20748 0.29941 0.62623 0.0
C1318 C 0.18563 0.29956 0.65597 0.0
C1319 C 0.22796 0.32004 0.62629 0.0
C1320 C 0.22768 0.34186 0.65613 0.0
H1321 H 0.20918 0.28288 0.60307 0.0
H1322 H 0.24452 0.31844 0.60316 0.0
S1323 S 0.17441 0.35265 0.73998 0.0
N1324 N 0.1645 0.32416 0.71534 0.0
N1325 N 0.20287 0.36278 0.71545 0.0
C1326 C 0.20542 0.34282 0.68518 0.0
C1327 C 0.1845 0.32178 0.68511 0.0
C1328 C 0.27347 0.09937 0.04051 0.0
C1329 C 0.25001 0.09058 0.06333 0.0
C1330 C 0.27357 0.09915 0.99579 0.0
C1331 C 0.25025 0.09007 0.97289 0.0
H1332 H 0.29021 0.10983 0.05693 0.0
H1333 H 0.29036 0.1095 0.97932 0.0
S1334 S 0.18687 0.0586 1.01816 0.0
N1335 N 0.20535 0.06774 0.06013 0.0
N1336 N 0.2057 0.06697 0.9762 0.0
C1337 C 0.22857 0.0775 0.99548 0.0
C1338 C 0.2284 0.07786 0.04084 0.0
C1339 C 0.94804 0.2264 0.99583 0.0
C1340 C 0.93794 0.24915 0.97264 0.0
C1341 C 0.9477 0.22645 0.04042 0.0
C1342 C 0.93731 0.24928 0.06309 0.0
H1343 H 0.95296 0.20723 0.97956 0.0
H1344 H 0.9524 0.20734 0.05697 0.0
S1345 S 0.9131 0.31559 1.01725 0.0
N1346 N 0.92119 0.29647 0.97545 0.0
N1347 N 0.92059 0.29658 0.05944 0.0
C1348 C 0.93077 0.27345 0.04041 0.0
C1349 C 0.93111 0.2734 0.99495 0.0
C1350 C 0.80092 0.9475 0.99576 0.0
C1351 C 0.77808 0.93725 0.97294 0.0
C1352 C 0.80083 0.94787 0.04034 0.0
C1353 C 0.77795 0.9379 0.06336 0.0
H1354 H 0.82012 0.95202 0.97932 0.0
H1355 H 0.81999 0.95265 0.05673 0.0
S1356 S 0.71145 0.91353 0.01834 0.0
N1357 N 0.73063 0.9209 0.97628 0.0
N1358 N 0.73052 0.92148 0.06026 0.0
C1359 C 0.75371 0.93125 0.04091 0.0
C1360 C 0.75378 0.93093 0.99545 0.0
C1361 C 0.09906 0.75428 0.99596 0.0
C1362 C 0.09014 0.7777 0.97315 0.0
C1363 C 0.09868 0.75406 0.04068 0.0
C1364 C 0.08951 0.77732 0.06364 0.0
H1365 H 0.10965 0.73763 0.97953 0.0
H1366 H 0.10904 0.73726 0.05712 0.0
S1367 S 0.05797 0.84068 0.0185 0.0
N1368 N 0.06693 0.82217 0.97648 0.0
N1369 N 0.06658 0.82193 0.06043 0.0
C1370 C 0.07699 0.79903 0.04108 0.0
C1371 C 0.07725 0.79919 0.99571 0.0
C1372 C 0.27331 0.92856 0.49512 0.0
C1373 C 0.24999 0.93749 0.4721 0.0
C1374 C 0.27327 0.92876 0.53985 0.0
C1375 C 0.24989 0.93786 0.5626 0.0
H1376 H 0.29007 0.91806 0.47882 0.0
H1377 H 0.29 0.91839 0.55643 0.0
S1378 S 0.18672 0.96945 0.51686 0.0
N1379 N 0.20541 0.9605 0.47503 0.0
N1380 N 0.20533 0.96087 0.55897 0.0
C1381 C 0.22829 0.95043 0.53985 0.0
C1382 C 0.22834 0.95024 0.49448 0.0
C1383 C 0.07965 0.22736 0.54039 0.0
C1384 C 0.09031 0.24998 0.5633 0.0
C1385 C 0.07996 0.22719 0.49579 0.0
C1386 C 0.09077 0.24971 0.47286 0.0
H1387 H 0.07428 0.2084 0.55686 0.0
H1388 H 0.07488 0.2081 0.47943 0.0
S1389 S 0.11662 0.31563 0.51795 0.0
N1390 N 0.10819 0.29686 0.55997 0.0
N1391 N 0.10855 0.29665 0.47599 0.0
C1392 C 0.09787 0.27383 0.49528 0.0
C1393 C 0.09768 0.27395 0.54073 0.0
C1394 C 0.75455 0.09853 0.54149 0.0
C1395 C 0.77795 0.08941 0.56417 0.0
C1396 C 0.75463 0.09913 0.49678 0.0
C1397 C 0.77808 0.09058 0.47375 0.0
H1398 H 0.73774 0.10869 0.55818 0.0
H1399 H 0.73783 0.10965 0.48059 0.0
S1400 S 0.84139 0.05853 0.51822 0.0
N1401 N 0.82263 0.06664 0.56038 0.0
N1402 N 0.82277 0.06775 0.47645 0.0
C1403 C 0.79974 0.07772 0.49597 0.0
C1404 C 0.79965 0.07711 0.54132 0.0
C1405 C 0.92865 0.75499 0.54012 0.0
C1406 C 0.93667 0.77853 0.56345 0.0
C1407 C 0.92882 0.7553 0.49537 0.0
C1408 C 0.93695 0.77917 0.47296 0.0
H1409 H 0.91884 0.73774 0.55621 0.0
H1410 H 0.91913 0.73826 0.47857 0.0
S1411 S 0.96604 0.84329 0.51955 0.0
N1412 N 0.95786 0.82402 0.56112 0.0
N1413 N 0.95818 0.8246 0.4772 0.0
C1414 C 0.94869 0.80112 0.49601 0.0
C1415 C 0.94853 0.8008 0.54136 0.0
C1416 C 0.77315 0.59888 0.54196 0.0
C1417 C 0.75002 0.58956 0.56513 0.0
C1418 C 0.77261 0.59973 0.49724 0.0
C1419 C 0.74893 0.5913 0.47464 0.0
H1420 H 0.79012 0.60896 0.55837 0.0
H1421 H 0.78928 0.61028 0.48078 0.0
S1422 S 0.68603 0.55907 0.52024 0.0
N1423 N 0.70528 0.56684 0.56204 0.0
N1424 N 0.70419 0.56861 0.47816 0.0
C1425 C 0.72745 0.57841 0.49724 0.0
C1426 C 0.72806 0.57744 0.54258 0.0
C1427 C 0.44637 0.72545 0.49518 0.0
C1428 C 0.43644 0.74838 0.47226 0.0
C1429 C 0.4466 0.72556 0.53976 0.0
C1430 C 0.43688 0.74858 0.56269 0.0
H1431 H 0.45075 0.7062 0.47881 0.0
H1432 H 0.45111 0.70636 0.55621 0.0
S1433 S 0.41347 0.81534 0.51738 0.0
N1434 N 0.42066 0.79602 0.4754 0.0
N1435 N 0.42109 0.79622 0.5594 0.0
C1436 C 0.43058 0.77288 0.54015 0.0
C1437 C 0.43034 0.77277 0.49469 0.0
C1438 C 0.30099 0.44813 0.49613 0.0
C1439 C 0.27832 0.43782 0.47296 0.0
C1440 C 0.30108 0.44752 0.54072 0.0
C1441 C 0.27847 0.43666 0.56341 0.0
H1442 H 0.32004 0.4534 0.4798 0.0
H1443 H 0.32017 0.45242 0.55722 0.0
S1444 S 0.21244 0.4116 0.51767 0.0
N1445 N 0.2313 0.42026 0.47586 0.0
N1446 N 0.23144 0.41918 0.55984 0.0
C1447 C 0.25434 0.42986 0.5408 0.0
C1448 C 0.25426 0.43047 0.49535 0.0
C1449 C 0.59977 0.254 0.54209 0.0
C1450 C 0.59075 0.27729 0.56511 0.0
C1451 C 0.59961 0.25407 0.49737 0.0
C1452 C 0.59035 0.27738 0.47464 0.0
H1453 H 0.61035 0.23729 0.55839 0.0
H1454 H 0.61009 0.23741 0.48078 0.0
S1455 S 0.55837 0.34035 0.5204 0.0
N1456 N 0.56759 0.32179 0.56223 0.0
N1457 N 0.56693 0.32174 0.47829 0.0
C1458 C 0.57761 0.29888 0.49739 0.0
C1459 C 0.57791 0.29889 0.54276 0.0
C1460 C 0.7735 0.42864 0.99734 0.0
C1461 C 0.74997 0.43725 0.97454 0.0
C1462 C 0.77364 0.42892 0.04207 0.0
C1463 C 0.75029 0.43788 0.065 0.0
H1464 H 0.79029 0.41827 0.98092 0.0
H1465 H 0.79051 0.41868 0.05852 0.0
S1466 S 0.68667 0.46887 0.01978 0.0
N1467 N 0.70518 0.45984 0.97779 0.0
N1468 N 0.70559 0.46066 0.06173 0.0
C1469 C 0.72852 0.45029 0.04242 0.0
C1470 C 0.72831 0.44988 0.99706 0.0
C1471 C 0.57918 0.72741 0.0395 0.0
C1472 C 0.59029 0.74993 0.06209 0.0
C1473 C 0.57838 0.72753 0.99491 0.0
C1474 C 0.58882 0.75011 0.97164 0.0
H1475 H 0.57419 0.70836 0.05604 0.0
H1476 H 0.5729 0.70853 0.97863 0.0
S1477 S 0.61575 0.81575 1.01619 0.0
N1478 N 0.60815 0.79681 0.0584 0.0
N1479 N 0.60679 0.79698 0.97444 0.0
C1480 C 0.59645 0.7741 0.99399 0.0
C1481 C 0.59721 0.774 0.03944 0.0
C1482 C 0.25415 0.59791 0.03935 0.0
C1483 C 0.27782 0.58974 0.06223 0.0
C1484 C 0.25421 0.598 0.99463 0.0
C1485 C 0.27793 0.58991 0.97183 0.0
H1486 H 0.23703 0.60772 0.0558 0.0
H1487 H 0.23714 0.60789 0.97818 0.0
S1488 S 0.34215 0.56025 1.01711 0.0
N1489 N 0.32318 0.56834 0.05906 0.0
N1490 N 0.32324 0.56838 0.97512 0.0
C1491 C 0.29993 0.5779 0.99438 0.0
C1492 C 0.29989 0.57785 0.03972 0.0
C1493 C 0.42882 0.25413 0.99724 0.0
C1494 C 0.43762 0.27747 0.97414 0.0
C1495 C 0.42916 0.25421 0.04196 0.0
C1496 C 0.43825 0.27764 0.06459 0.0
H1497 H 0.41832 0.23733 0.98103 0.0
H1498 H 0.41885 0.23747 0.05864 0.0
S1499 S 0.46965 0.34081 0.01856 0.0
N1500 N 0.46061 0.32208 0.97681 0.0
N1501 N 0.46119 0.32224 0.06075 0.0
C1502 C 0.45074 0.29923 0.04174 0.0
C1503 C 0.45042 0.29915 0.99638 0.0
C1504 C 0.23069 0.02788 0.25837 0.0
C1505 C 0.2557 0.04144 0.24834 0.0
C1506 C 0.2304 1.00155 0.2773 0.0
C1507 C 0.2551 0.98739 0.28698 0.0
H1508 H 0.21099 0.03769 0.25168 0.0
H1509 H 0.21051 0.99221 0.28423 0.0
S1510 S 0.32632 1.01357 0.26723 0.0
N1511 N 0.30597 0.03857 0.24968 0.0
N1512 N 0.30545 0.98906 0.28503 0.0
C1513 C 0.28033 1.00063 0.27711 0.0
C1514 C 0.28062 0.02761 0.25793 0.0
C1515 C 1.00125 0.27704 0.25857 0.0
C1516 C 0.98775 0.25206 0.24811 0.0
C1517 C 0.0277 0.27718 0.27761 0.0
C1518 C 0.04168 0.25233 0.28722 0.0
H1519 H 0.99136 0.29671 0.25195 0.0
H1520 H 0.03717 0.29693 0.28502 0.0
S1521 S 0.0155 0.18119 0.26618 0.0
N1522 N 0.99065 0.20173 0.24887 0.0
N1523 N 0.03989 0.20198 0.28436 0.0
C1524 C 0.02838 0.22721 0.27687 0.0
C1525 C 1.0016 0.22708 0.25743 0.0
C1526 C 0.7977 0.02754 0.27831 0.0
C1527 C 0.77284 0.04136 0.28831 0.0
C1528 C 0.79769 1.00132 0.25902 0.0
C1529 C 0.77282 0.98754 0.24898 0.0
H1530 H 0.8175 0.03708 0.28526 0.0
H1531 H 0.81748 0.99175 0.25211 0.0
S1532 S 0.70191 0.0145 0.26859 0.0
N1533 N 0.72253 0.03914 0.2866 0.0
N1534 N 0.7225 0.98984 0.25061 0.0
C1535 C 0.74775 1.00104 0.25886 0.0
C1536 C 0.74776 0.0279 0.27839 0.0
C1537 C 0.02629 0.79615 0.25869 0.0
C1538 C 0.04017 0.77131 0.24892 0.0
C1539 C 1.0 0.79616 0.27774 0.0
C1540 C 0.98617 0.77131 0.28782 0.0
H1541 H 0.03582 0.81595 0.25174 0.0
H1542 H 0.99044 0.81597 0.28446 0.0
S1543 S 1.01323 0.7004 0.26876 0.0
N1544 N 0.03794 0.72099 0.25086 0.0
N1545 N 0.98847 0.72101 0.28644 0.0
C1546 C 0.99971 0.74624 0.27817 0.0
C1547 C 0.02666 0.74623 0.25885 0.0
C1548 C 0.7498 1.00025 0.778 0.0
C1549 C 0.77463 0.98648 0.78848 0.0
C1550 C 0.74996 0.02686 0.75938 0.0
C1551 C 0.77496 0.04074 0.75026 0.0
H1552 H 0.73003 0.99046 0.78427 0.0
H1553 H 0.73031 0.03652 0.75189 0.0
S1554 S 0.8458 0.01386 0.77158 0.0
N1555 N 0.82499 0.98905 0.78825 0.0
N1556 N 0.82528 0.03853 0.75362 0.0
C1557 C 0.79991 0.02717 0.76067 0.0
C1558 C 0.79975 1.00023 0.77964 0.0
C1559 C 1.0007 0.75113 0.75862 0.0
C1560 C 0.98702 0.77592 0.74767 0.0
C1561 C 0.0272 0.75135 0.7775 0.0
C1562 C 0.04107 0.77637 0.78645 0.0
H1563 H 0.9909 0.73134 0.75256 0.0
H1564 H 0.03678 0.73173 0.78536 0.0
S1565 S 0.01447 0.84712 0.76377 0.0
N1566 N 0.98968 0.82626 0.74712 0.0
N1567 N 0.03901 0.82667 0.78233 0.0
C1568 C 0.02762 0.80129 0.77553 0.0
C1569 C 1.00077 0.80107 0.75625 0.0
C1570 C 0.23097 1.00059 0.75829 0.0
C1571 C 0.2559 0.98687 0.74835 0.0
C1572 C 0.23082 0.02692 0.77717 0.0
C1573 C 0.25559 0.04095 0.78694 0.0
H1574 H 0.21122 0.9909 0.75154 0.0
H1575 H 0.21097 0.03636 0.78404 0.0
S1576 S 0.32666 0.01436 0.76741 0.0
N1577 N 0.3062 0.98946 0.74982 0.0
N1578 N 0.30593 0.039 0.78514 0.0
C1579 C 0.28075 0.02756 0.77715 0.0
C1580 C 0.2809 1.00057 0.75798 0.0
C1581 C 1.00013 0.23093 0.77708 0.0
C1582 C 0.9864 0.25585 0.78699 0.0
C1583 C 0.02654 0.23079 0.75845 0.0
C1584 C 0.04064 0.25556 0.74892 0.0
H1585 H 0.99041 0.21117 0.78366 0.0
H1586 H 0.03598 0.21094 0.75159 0.0
S1587 S 0.01403 0.32662 0.76845 0.0
N1588 N 0.98904 0.30615 0.78574 0.0
N1589 N 0.03872 0.30589 0.75088 0.0
C1590 C 0.02723 0.28071 0.75866 0.0
C1591 C 1.00016 0.28086 0.77758 0.0
C1592 C 0.73073 0.52642 0.76109 0.0
C1593 C 0.75553 0.54032 0.75105 0.0
C1594 C 0.73084 0.50008 0.78 0.0
C1595 C 0.75575 0.48625 0.78965 0.0
H1596 H 0.7109 0.53597 0.75442 0.0
H1597 H 0.71108 0.49047 0.78695 0.0
S1598 S 0.82656 0.51339 0.76981 0.0
N1599 N 0.80586 0.53812 0.75232 0.0
N1600 N 0.80605 0.4886 0.78763 0.0
C1601 C 0.78077 0.49983 0.77975 0.0
C1602 C 0.78066 0.52682 0.76058 0.0
C1603 C 0.52679 0.73112 0.77518 0.0
C1604 C 0.54071 0.75591 0.78524 0.0
C1605 C 0.50039 0.73123 0.75646 0.0
C1606 C 0.48649 0.75613 0.74701 0.0
H1607 H 0.53635 0.71128 0.78174 0.0
H1608 H 0.49078 0.71146 0.74954 0.0
S1609 S 0.51366 0.82693 0.76684 0.0
N1610 N 0.53847 0.80623 0.78411 0.0
N1611 N 0.48883 0.80643 0.74914 0.0
C1612 C 0.5001 0.78115 0.75685 0.0
C1613 C 0.52716 0.78104 0.77584 0.0
C1614 C 0.29774 0.50052 0.75824 0.0
C1615 C 0.27292 0.48658 0.74837 0.0
C1616 C 0.29765 0.52687 0.77712 0.0
C1617 C 0.27275 0.54067 0.78688 0.0
H1618 H 0.31756 0.49098 0.75149 0.0
H1619 H 0.31741 0.53651 0.78396 0.0
S1620 S 0.20191 0.51342 0.76747 0.0
N1621 N 0.2226 0.48871 0.7499 0.0
N1622 N 0.22243 0.53825 0.78513 0.0
C1623 C 0.24771 0.52705 0.77713 0.0
C1624 C 0.2478 0.50006 0.75801 0.0
C1625 C 0.50162 0.29656 0.77934 0.0
C1626 C 0.4876 0.27179 0.78917 0.0
C1627 C 0.52792 0.2964 0.76032 0.0
C1628 C 0.5416 0.27146 0.75035 0.0
H1629 H 0.49218 0.31641 0.78622 0.0
H1630 H 0.53761 0.31614 0.75352 0.0
S1631 S 0.51414 0.20071 0.76962 0.0
N1632 N 0.48955 0.22146 0.78742 0.0
N1633 N 0.53901 0.22117 0.7519 0.0
C1634 C 0.52792 0.24647 0.76008 0.0
C1635 C 0.50097 0.24663 0.77936 0.0
C1636 C 0.25002 0.52668 0.25796 0.0
C1637 C 0.27483 0.54031 0.24698 0.0
C1638 C 0.2502 0.50022 0.27701 0.0
C1639 C 0.27522 0.48636 0.28609 0.0
H1640 H 0.23025 0.53647 0.25177 0.0
H1641 H 0.23057 0.49066 0.28488 0.0
S1642 S 0.34601 0.51289 0.26347 0.0
N1643 N 0.32519 0.53763 0.24662 0.0
N1644 N 0.32552 0.4884 0.2821 0.0
C1645 C 0.30016 0.49978 0.27516 0.0
C1646 C 0.29997 0.52657 0.25574 0.0
C1647 C 0.52659 0.29686 0.27921 0.0
C1648 C 0.54065 0.2721 0.2889 0.0
C1649 C 0.50024 0.2967 0.26041 0.0
C1650 C 0.48652 0.27177 0.25049 0.0
H1651 H 0.53603 0.31672 0.28605 0.0
H1652 H 0.49054 0.31646 0.25369 0.0
S1653 S 0.51405 0.20103 0.26947 0.0
N1654 N 0.5387 0.22177 0.28712 0.0
N1655 N 0.48911 0.22148 0.25196 0.0
C1656 C 0.50023 0.24678 0.26009 0.0
C1657 C 0.52725 0.24694 0.27918 0.0
C1658 C 0.77759 0.52743 0.27947 0.0
C1659 C 0.75274 0.54113 0.29004 0.0
C1660 C 0.77745 0.50089 0.26064 0.0
C1661 C 0.75245 0.48702 0.25138 0.0
H1662 H 0.79734 0.53724 0.28584 0.0
H1663 H 0.7971 0.49126 0.25309 0.0
S1664 S 0.68158 0.51372 0.27283 0.0
N1665 N 0.70237 0.53848 0.28972 0.0
N1666 N 0.70214 0.48914 0.25469 0.0
C1667 C 0.72749 0.50051 0.26186 0.0
C1668 C 0.72763 0.52737 0.28105 0.0
C1669 C 0.50005 0.77602 0.27667 0.0
C1670 C 0.48644 0.75107 0.28694 0.0
C1671 C 0.52647 0.77609 0.25757 0.0
C1672 C 0.54031 0.7512 0.2477 0.0
H1673 H 0.49028 0.79572 0.28351 0.0
H1674 H 0.53604 0.79582 0.25034 0.0
S1675 S 0.51378 0.68013 0.2681 0.0
N1676 N 0.48906 0.70073 0.28568 0.0
N1677 N 0.53826 0.70085 0.25005 0.0
C1678 C 0.52689 0.72612 0.25782 0.0
C1679 C 0.50013 0.72605 0.27733 0.0
C1680 C 0.2118 0.19262 0.25884 0.0
C1681 C 0.20331 0.16573 0.24803 0.0
C1682 C 0.19322 0.2114 0.27746 0.0
C1683 C 0.16639 0.20308 0.28892 0.0
H1684 H 0.23273 0.19936 0.25193 0.0
H1685 H 0.20004 0.23239 0.28374 0.0
S1686 S 0.13475 0.13441 0.26947 0.0
N1687 N 0.16644 0.13161 0.25008 0.0
N1688 N 0.13218 0.16626 0.2883 0.0
C1689 C 0.15789 0.17604 0.27922 0.0
C1690 C 0.17635 0.15736 0.25848 0.0
C1691 C 0.83615 0.21098 0.25971 0.0
C1692 C 0.86291 0.20249 0.24821 0.0
C1693 C 0.81747 0.19231 0.27841 0.0
C1694 C 0.82584 0.16542 0.28939 0.0
H1695 H 0.82943 0.23197 0.2533 0.0
H1696 H 0.79656 0.19914 0.28522 0.0
S1697 S 0.89425 0.13374 0.26809 0.0
N1698 N 0.89695 0.16552 0.24901 0.0
N1699 N 0.86256 0.13114 0.28758 0.0
C1700 C 0.85277 0.15691 0.27901 0.0
C1701 C 0.8713 0.17544 0.25809 0.0
C1702 C 0.83575 0.8175 0.27676 0.0
C1703 C 0.86278 0.8257 0.28727 0.0
C1704 C 0.81701 0.83634 0.25864 0.0
C1705 C 0.82551 0.86313 0.24731 0.0
H1706 H 0.82885 0.79663 0.28366 0.0
H1707 H 0.79594 0.82973 0.25257 0.0
S1708 S 0.89463 0.89402 0.26584 0.0
N1709 N 0.89724 0.86225 0.28498 0.0
N1710 N 0.86268 0.89696 0.24753 0.0
C1711 C 0.85271 0.87133 0.25659 0.0
C1712 C 0.87134 0.85262 0.27691 0.0
C1713 C 0.21 0.836 0.27679 0.0
C1714 C 0.20144 0.86283 0.28789 0.0
C1715 C 0.19134 0.81705 0.25867 0.0
C1716 C 0.16431 0.82512 0.2479 0.0
H1717 H 0.23106 0.82944 0.2831 0.0
H1718 H 0.19828 0.79614 0.25216 0.0
S1719 S 0.13237 0.89354 0.26829 0.0
N1720 N 0.16424 0.89659 0.28689 0.0
N1721 N 0.12985 0.86168 0.24946 0.0
C1722 C 0.15573 0.8521 0.25788 0.0
C1723 C 0.17428 0.87093 0.27819 0.0
C1724 C 0.83479 0.8158 0.75973 0.0
C1725 C 0.86155 0.82438 0.74834 0.0
C1726 C 0.81595 0.83444 0.77813 0.0
C1727 C 0.82413 0.86144 0.78885 0.0
H1728 H 0.82821 0.79473 0.75353 0.0
H1729 H 0.79507 0.82752 0.78488 0.0
S1730 S 0.89242 0.89342 0.76763 0.0
N1731 N 0.89536 0.86156 0.74894 0.0
N1732 N 0.86067 0.89592 0.78688 0.0
C1733 C 0.85104 0.87005 0.77854 0.0
C1734 C 0.86974 0.85153 0.75796 0.0
C1735 C 0.17715 0.87026 0.75866 0.0
C1736 C 0.2041 0.86183 0.74789 0.0
C1737 C 0.15891 0.85213 0.77946 0.0
C1738 C 0.16695 0.82491 0.78933 0.0
H1739 H 0.17024 0.89105 0.75125 0.0
H1740 H 0.1383 0.85931 0.78744 0.0
S1741 S 0.2352 0.79284 0.76749 0.0
N1742 N 0.23844 0.82511 0.75052 0.0
N1743 N 0.20304 0.78998 0.7851 0.0
C1744 C 0.19359 0.81606 0.7778 0.0
C1745 C 0.21261 0.83494 0.75864 0.0
C1746 C 0.15773 0.1761 0.75843 0.0
C1747 C 0.16589 0.2032 0.74807 0.0
C1748 C 0.17608 0.15789 0.77883 0.0
C1749 C 0.20325 0.16612 0.78865 0.0
H1750 H 0.13698 0.16905 0.75103 0.0
H1751 H 0.16909 0.13718 0.78661 0.0
S1752 S 0.23468 0.23477 0.76755 0.0
N1753 N 0.20234 0.23784 0.75085 0.0
N1754 N 0.23785 0.20255 0.78477 0.0
C1755 C 0.21183 0.19291 0.7775 0.0
C1756 C 0.19274 0.21188 0.75874 0.0
C1757 C 0.86955 0.17694 0.77792 0.0
C1758 C 0.86122 0.20401 0.78814 0.0
C1759 C 0.85131 0.15857 0.75764 0.0
C1760 C 0.8241 0.16662 0.74774 0.0
H1761 H 0.89033 0.17003 0.78538 0.0
H1762 H 0.85841 0.13787 0.75002 0.0
S1763 S 0.79228 0.23514 0.76838 0.0
N1764 N 0.82458 0.23843 0.78517 0.0
N1765 N 0.7893 0.20287 0.75132 0.0
C1766 C 0.81536 0.1934 0.7587 0.0
C1767 C 0.83433 0.21251 0.77742 0.0
C1768 C 0.67627 0.65793 0.75852 0.0
C1769 C 0.70359 0.66591 0.74923 0.0
C1770 C 0.65785 0.67637 0.77829 0.0
C1771 C 0.66608 0.70347 0.78855 0.0
H1772 H 0.6692 0.63724 0.75076 0.0
H1773 H 0.63698 0.66949 0.78527 0.0
S1774 S 0.73529 0.73446 0.77032 0.0
N1775 N 0.7384 0.70214 0.75351 0.0
N1776 N 0.70281 0.73782 0.78626 0.0
C1777 C 0.69311 0.71189 0.77844 0.0
C1778 C 0.71225 0.69271 0.7603 0.0
C1779 C 0.31662 0.69221 0.77699 0.0
C1780 C 0.32521 0.6654 0.78807 0.0
C1781 C 0.33523 0.71114 0.75876 0.0
C1782 C 0.36223 0.70302 0.74794 0.0
H1783 H 0.29556 0.69876 0.78334 0.0
H1784 H 0.32828 0.73202 0.75212 0.0
S1785 S 0.39425 0.63466 0.7684 0.0
N1786 N 0.3624 0.63162 0.78709 0.0
N1787 N 0.39673 0.6665 0.7495 0.0
C1788 C 0.37087 0.67608 0.75798 0.0
C1789 C 0.35236 0.65727 0.77837 0.0
C1790 C 0.33664 0.31694 0.77806 0.0
C1791 C 0.36348 0.3254 0.78922 0.0
C1792 C 0.31791 0.33559 0.75945 0.0
C1793 C 0.32626 0.36245 0.74823 0.0
H1794 H 0.3299 0.29598 0.78469 0.0
H1795 H 0.29697 0.32877 0.75287 0.0
S1796 S 0.39484 0.39406 0.76863 0.0
N1797 N 0.39757 0.36232 0.78784 0.0
N1798 N 0.36307 0.39667 0.74948 0.0
C1799 C 0.35326 0.37094 0.75828 0.0
C1800 C 0.37186 0.35242 0.77911 0.0
C1801 C 0.69257 0.31627 0.7608 0.0
C1802 C 0.66567 0.32456 0.74965 0.0
C1803 C 0.71122 0.33505 0.77932 0.0
C1804 C 0.70276 0.36191 0.79034 0.0
H1805 H 0.69941 0.29533 0.75426 0.0
H1806 H 0.73219 0.32833 0.78593 0.0
S1807 S 0.63403 0.39314 0.76982 0.0
N1808 N 0.63142 0.36132 0.75086 0.0
N1809 N 0.66581 0.39596 0.78888 0.0
C1810 C 0.67572 0.37024 0.78026 0.0
C1811 C 0.65718 0.35157 0.75961 0.0
C1812 C 0.36954 0.35063 0.25923 0.0
C1813 C 0.36131 0.32358 0.24867 0.0
C1814 C 0.35119 0.36886 0.27957 0.0
C1815 C 0.32397 0.3607 0.28919 0.0
H1816 H 0.39033 0.35762 0.25202 0.0
H1817 H 0.35822 0.38954 0.28747 0.0
S1818 S 0.29238 0.29218 0.26763 0.0
N1819 N 0.32475 0.28906 0.25107 0.0
N1820 N 0.28926 0.32438 0.28497 0.0
C1821 C 0.31533 0.33395 0.27788 0.0
C1822 C 0.3344 0.31497 0.25912 0.0
C1823 C 0.65787 0.35136 0.27895 0.0
C1824 C 0.666 0.3243 0.28961 0.0
C1825 C 0.67627 0.36949 0.25846 0.0
C1826 C 0.70345 0.36123 0.24883 0.0
H1827 H 0.63712 0.35845 0.28621 0.0
H1828 H 0.6693 0.39018 0.25049 0.0
S1829 S 0.73482 0.29265 0.27071 0.0
N1830 N 0.70243 0.28964 0.28723 0.0
N1831 N 0.73805 0.32481 0.25325 0.0
C1832 C 0.712 0.33447 0.26025 0.0
C1833 C 0.69286 0.31558 0.27908 0.0
C1834 C 0.71037 0.69201 0.27725 0.0
C1835 C 0.70202 0.66511 0.28822 0.0
C1836 C 0.69176 0.7106 0.25824 0.0
C1837 C 0.66508 0.70203 0.24639 0.0
H1838 H 0.7312 0.69894 0.28444 0.0
H1839 H 0.69844 0.73163 0.25198 0.0
S1840 S 0.6339 0.63313 0.26573 0.0
N1841 N 0.66546 0.63066 0.28572 0.0
N1842 N 0.6312 0.6649 0.24663 0.0
C1843 C 0.65675 0.67493 0.25609 0.0
C1844 C 0.67521 0.65647 0.27732 0.0
C1845 C 0.31586 0.69211 0.25751 0.0
C1846 C 0.32408 0.66516 0.24656 0.0
C1847 C 0.33466 0.7107 0.27609 0.0
C1848 C 0.36142 0.7021 0.28745 0.0
H1849 H 0.29496 0.699 0.25086 0.0
H1850 H 0.32804 0.73172 0.28255 0.0
S1851 S 0.39242 0.63322 0.26747 0.0
N1852 N 0.36067 0.63074 0.24819 0.0
N1853 N 0.3953 0.665 0.28648 0.0
C1854 C 0.36967 0.67502 0.27754 0.0
C1855 C 0.35101 0.65655 0.25677 0.0
loop_
_geom_bond_atom_site_label_1
_geom_bond_atom_site_label_2
_geom_bond_distance
_geom_bond_site_symmetry_2
_ccdc_geom_bond_type
Mn0 O5 2.095 . S
Mn0 O15 2.162 . S
Mn0 O16 2.297 . S
Mn0 O24 2.385 . S
Mn0 O25 2.209 . S
Mn0 O26 2.094 . S
Mn1 O6 2.121 . S
Mn1 N8 2.257 . S
Mn1 N17 2.282 . S
Mn1 O25 2.215 . S
Mn1 O27 2.117 . S
C2 O24 1.234 . S
C2 O25 1.283 . S
C3 O15 1.281 . S
C3 O16 1.236 . S
C4 O26 1.240 . S
C4 O27 1.264 . S
O5 Mn0 2.095 . S
O5 C14 1.250 . S
O6 Mn1 2.121 . S
O6 C14 1.258 . S
C7 N8 1.326 . S
C7 C11 1.460 . S
C7 H13 0.929 . S
N8 Mn1 2.257 . S
N8 C7 1.326 . S
N8 C12 1.362 . S
C9 C10 1.258 . S
C9 C12 1.431 . S
C9 C29 1.449 . S
C10 C9 1.258 . S
C10 C11 1.477 . S
C10 H30 0.931 . S
C11 C7 1.460 . S
C11 C10 1.477 . S
C11 H31 0.930 . S
C12 N8 1.362 . S
C12 C9 1.431 . S
C12 C22 1.476 . S
H13 C7 0.929 . S
C14 O5 1.250 . S
C14 O6 1.258 . S
O15 Mn0 2.162 . S
O15 C3 1.281 . S
O16 Mn0 2.297 . S
O16 C3 1.236 . S
N17 Mn1 2.282 . S
N17 C18 1.328 . S
N17 C22 1.318 . S
C18 N17 1.328 . S
C18 C19 1.457 . S
C18 H23 0.929 . S
C19 C18 1.457 . S
C19 C20 1.291 . S
C19 H32 0.931 . S
C20 C19 1.291 . S
C20 C21 1.373 . S
C20 H33 0.929 . S
C21 C20 1.373 . S
C21 C22 1.396 . S
C21 C28 1.403 . S
C22 C12 1.476 . S
C22 N17 1.318 . S
C22 C21 1.396 . S
H23 C18 0.929 . S
O24 Mn0 2.385 . S
O24 C2 1.234 . S
O25 Mn0 2.209 . S
O25 Mn1 2.215 . S
O25 C2 1.283 . S
O26 Mn0 2.094 . S
O26 C4 1.240 . S
O27 Mn1 2.117 . S
O27 C4 1.264 . S
C28 C21 1.403 . S
C28 C29 1.399 . S
C28 H34 0.929 . S
C29 C9 1.449 . S
C29 C28 1.399 . S
C29 H35 0.930 . S
H30 C10 0.931 . S
H31 C11 0.930 . S
H32 C19 0.931 . S
H33 C20 0.929 . S
H34 C28 0.929 . S
H35 C29 0.930 . S
Mn36 O41 2.095 . S
Mn36 O51 2.162 . S
Mn36 O52 2.297 . S
Mn36 O60 2.385 . S
Mn36 O61 2.209 . S
Mn36 O62 2.094 . S
Mn37 O42 2.121 . S
Mn37 N44 2.257 . S
Mn37 N53 2.282 . S
Mn37 O61 2.215 . S
Mn37 O63 2.117 . S
C38 O60 1.234 . S
C38 O61 1.283 . S
C39 O51 1.281 . S
C39 O52 1.236 . S
C40 O62 1.240 . S
C40 O63 1.264 . S
O41 Mn36 2.095 . S
O41 C50 1.250 . S
O42 Mn37 2.121 . S
O42 C50 1.258 . S
C43 N44 1.326 . S
C43 C47 1.460 . S
C43 H49 0.929 . S
N44 Mn37 2.257 . S
N44 C43 1.326 . S
N44 C48 1.362 . S
C45 C46 1.258 . S
C45 C48 1.431 . S
C45 C65 1.449 . S
C46 C45 1.258 . S
C46 C47 1.477 . S
C46 H66 0.931 . S
C47 C43 1.460 . S
C47 C46 1.477 . S
C47 H67 0.930 . S
C48 N44 1.362 . S
C48 C45 1.431 . S
C48 C58 1.476 . S
H49 C43 0.929 . S
C50 O41 1.250 . S
C50 O42 1.258 . S
O51 Mn36 2.162 . S
O51 C39 1.281 . S
O52 Mn36 2.297 . S
O52 C39 1.236 . S
N53 Mn37 2.282 . S
N53 C54 1.328 . S
N53 C58 1.318 . S
C54 N53 1.328 . S
C54 C55 1.457 . S
C54 H59 0.929 . S
C55 C54 1.457 . S
C55 C56 1.291 . S
C55 H68 0.931 . S
C56 C55 1.291 . S
C56 C57 1.373 . S
C56 H69 0.929 . S
C57 C56 1.373 . S
C57 C58 1.396 . S
C57 C64 1.403 . S
C58 C48 1.476 . S
C58 N53 1.318 . S
C58 C57 1.396 . S
H59 C54 0.929 . S
O60 Mn36 2.385 . S
O60 C38 1.234 . S
O61 Mn36 2.209 . S
O61 Mn37 2.215 . S
O61 C38 1.283 . S
O62 Mn36 2.094 . S
O62 C40 1.240 . S
O63 Mn37 2.117 . S
O63 C40 1.264 . S
C64 C57 1.403 . S
C64 C65 1.399 . S
C64 H70 0.929 . S
C65 C45 1.449 . S
C65 C64 1.399 . S
C65 H71 0.930 . S
H66 C46 0.931 . S
H67 C47 0.930 . S
H68 C55 0.931 . S
H69 C56 0.929 . S
H70 C64 0.929 . S
H71 C65 0.930 . S
Mn72 O77 2.095 . S
Mn72 O87 2.162 . S
Mn72 O88 2.297 . S
Mn72 O96 2.385 . S
Mn72 O97 2.209 . S
Mn72 O98 2.094 . S
Mn73 O78 2.121 . S
Mn73 N80 2.257 . S
Mn73 N89 2.282 . S
Mn73 O97 2.215 . S
Mn73 O99 2.117 . S
C74 O96 1.234 . S
C74 O97 1.283 . S
C75 O87 1.281 . S
C75 O88 1.236 . S
C76 O98 1.240 . S
C76 O99 1.264 . S
O77 Mn72 2.095 . S
O77 C86 1.250 . S
O78 Mn73 2.121 . S
O78 C86 1.258 . S
C79 N80 1.326 . S
C79 C83 1.460 . S
C79 H85 0.929 . S
N80 Mn73 2.257 . S
N80 C79 1.326 . S
N80 C84 1.362 . S
C81 C82 1.258 . S
C81 C84 1.431 . S
C81 C101 1.449 . S
C82 C81 1.258 . S
C82 C83 1.477 . S
C82 H102 0.931 . S
C83 C79 1.460 . S
C83 C82 1.477 . S
C83 H103 0.930 . S
C84 N80 1.362 . S
C84 C81 1.431 . S
C84 C94 1.476 . S
H85 C79 0.929 . S
C86 O77 1.250 . S
C86 O78 1.258 . S
O87 Mn72 2.162 . S
O87 C75 1.281 . S
O88 Mn72 2.297 . S
O88 C75 1.236 . S
N89 Mn73 2.282 . S
N89 C90 1.328 . S
N89 C94 1.318 . S
C90 N89 1.328 . S
C90 C91 1.457 . S
C90 H95 0.929 . S
C91 C90 1.457 . S
C91 C92 1.291 . S
C91 H104 0.931 . S
C92 C91 1.291 . S
C92 C93 1.373 . S
C92 H105 0.929 . S
C93 C92 1.373 . S
C93 C94 1.396 . S
C93 C100 1.403 . S
C94 C84 1.476 . S
C94 N89 1.318 . S
C94 C93 1.396 . S
H95 C90 0.929 . S
O96 Mn72 2.385 . S
O96 C74 1.234 . S
O97 Mn72 2.209 . S
O97 Mn73 2.215 . S
O97 C74 1.283 . S
O98 Mn72 2.094 . S
O98 C76 1.240 . S
O99 Mn73 2.117 . S
O99 C76 1.264 . S
C100 C93 1.403 . S
C100 C101 1.399 . S
C100 H106 0.929 . S
C101 C81 1.449 . S
C101 C100 1.399 . S
C101 H107 0.930 . S
H102 C82 0.931 . S
H103 C83 0.930 . S
H104 C91 0.931 . S
H105 C92 0.929 . S
H106 C100 0.929 . S
H107 C101 0.930 . S
Mn108 O113 2.095 . S
Mn108 O123 2.162 . S
Mn108 O124 2.297 . S
Mn108 O132 2.385 . S
Mn108 O133 2.209 . S
Mn108 O134 2.094 . S
Mn109 O114 2.121 . S
Mn109 N116 2.257 . S
Mn109 N125 2.282 . S
Mn109 O133 2.215 . S
Mn109 O135 2.117 . S
C110 O132 1.234 . S
C110 O133 1.283 . S
C111 O123 1.281 . S
C111 O124 1.236 . S
C112 O134 1.240 . S
C112 O135 1.264 . S
O113 Mn108 2.095 . S
O113 C122 1.250 . S
O114 Mn109 2.121 . S
O114 C122 1.258 . S
C115 N116 1.326 . S
C115 C119 1.460 . S
C115 H121 0.929 . S
N116 Mn109 2.257 . S
N116 C115 1.326 . S
N116 C120 1.362 . S
C117 C118 1.258 . S
C117 C120 1.431 . S
C117 C137 1.449 . S
C118 C117 1.258 . S
C118 C119 1.477 . S
C118 H138 0.931 . S
C119 C115 1.460 . S
C119 C118 1.477 . S
C119 H139 0.930 . S
C120 N116 1.362 . S
C120 C117 1.431 . S
C120 C130 1.476 . S
H121 C115 0.929 . S
C122 O113 1.250 . S
C122 O114 1.258 . S
O123 Mn108 2.162 . S
O123 C111 1.281 . S
O124 Mn108 2.297 . S
O124 C111 1.236 . S
N125 Mn109 2.282 . S
N125 C126 1.328 . S
N125 C130 1.318 . S
C126 N125 1.328 . S
C126 C127 1.457 . S
C126 H131 0.929 . S
C127 C126 1.457 . S
C127 C128 1.291 . S
C127 H140 0.931 . S
C128 C127 1.291 . S
C128 C129 1.373 . S
C128 H141 0.929 . S
C129 C128 1.373 . S
C129 C130 1.396 . S
C129 C136 1.403 . S
C130 C120 1.476 . S
C130 N125 1.318 . S
C130 C129 1.396 . S
H131 C126 0.929 . S
O132 Mn108 2.385 . S
O132 C110 1.234 . S
O133 Mn108 2.209 . S
O133 Mn109 2.215 . S
O133 C110 1.283 . S
O134 Mn108 2.094 . S
O134 C112 1.240 . S
O135 Mn109 2.117 . S
O135 C112 1.264 . S
C136 C129 1.403 . S
C136 C137 1.399 . S
C136 H142 0.929 . S
C137 C117 1.449 . S
C137 C136 1.399 . S
C137 H143 0.930 . S
H138 C118 0.931 . S
H139 C119 0.930 . S
H140 C127 0.931 . S
H141 C128 0.929 . S
H142 C136 0.929 . S
H143 C137 0.930 . S
Mn144 O149 2.095 . S
Mn144 O159 2.162 . S
Mn144 O160 2.297 . S
Mn144 O168 2.385 . S
Mn144 O169 2.209 . S
Mn144 O170 2.094 . S
Mn145 O150 2.121 . S
Mn145 N152 2.257 . S
Mn145 N161 2.282 . S
Mn145 O169 2.215 . S
Mn145 O171 2.117 . S
C146 O168 1.234 . S
C146 O169 1.283 . S
C147 O159 1.281 . S
C147 O160 1.236 . S
C148 O170 1.240 . S
C148 O171 1.264 . S
O149 Mn144 2.095 . S
O149 C158 1.250 . S
O150 Mn145 2.121 . S
O150 C158 1.258 . S
C151 N152 1.326 . S
C151 C155 1.460 . S
C151 H157 0.929 . S
N152 Mn145 2.257 . S
N152 C151 1.326 . S
N152 C156 1.362 . S
C153 C154 1.258 . S
C153 C156 1.431 . S
C153 C173 1.449 . S
C154 C153 1.258 . S
C154 C155 1.477 . S
C154 H174 0.931 . S
C155 C151 1.460 . S
C155 C154 1.477 . S
C155 H175 0.930 . S
C156 N152 1.362 . S
C156 C153 1.431 . S
C156 C166 1.476 . S
H157 C151 0.929 . S
C158 O149 1.250 . S
C158 O150 1.258 . S
O159 Mn144 2.162 . S
O159 C147 1.281 . S
O160 Mn144 2.297 . S
O160 C147 1.236 . S
N161 Mn145 2.282 . S
N161 C162 1.328 . S
N161 C166 1.318 . S
C162 N161 1.328 . S
C162 C163 1.457 . S
C162 H167 0.929 . S
C163 C162 1.457 . S
C163 C164 1.291 . S
C163 H176 0.931 . S
C164 C163 1.291 . S
C164 C165 1.373 . S
C164 H177 0.929 . S
C165 C164 1.373 . S
C165 C166 1.396 . S
C165 C172 1.403 . S
C166 C156 1.476 . S
C166 N161 1.318 . S
C166 C165 1.396 . S
H167 C162 0.929 . S
O168 Mn144 2.385 . S
O168 C146 1.234 . S
O169 Mn144 2.209 . S
O169 Mn145 2.215 . S
O169 C146 1.283 . S
O170 Mn144 2.094 . S
O170 C148 1.240 . S
O171 Mn145 2.117 . S
O171 C148 1.264 . S
C172 C165 1.403 . S
C172 C173 1.399 . S
C172 H178 0.929 . S
C173 C153 1.449 . S
C173 C172 1.399 . S
C173 H179 0.930 . S
H174 C154 0.931 . S
H175 C155 0.930 . S
H176 C163 0.931 . S
H177 C164 0.929 . S
H178 C172 0.929 . S
H179 C173 0.930 . S
Mn180 O185 2.095 . S
Mn180 O195 2.162 . S
Mn180 O196 2.297 . S
Mn180 O204 2.385 . S
Mn180 O205 2.209 . S
Mn180 O206 2.094 . S
Mn181 O186 2.121 . S
Mn181 N188 2.257 . S
Mn181 N197 2.282 . S
Mn181 O205 2.215 . S
Mn181 O207 2.117 . S
C182 O204 1.234 . S
C182 O205 1.283 . S
C183 O195 1.281 . S
C183 O196 1.236 . S
C184 O206 1.240 . S
C184 O207 1.264 . S
O185 Mn180 2.095 . S
O185 C194 1.250 . S
O186 Mn181 2.121 . S
O186 C194 1.258 . S
C187 N188 1.326 . S
C187 C191 1.460 . S
C187 H193 0.929 . S
N188 Mn181 2.257 . S
N188 C187 1.326 . S
N188 C192 1.362 . S
C189 C190 1.258 . S
C189 C192 1.431 . S
C189 C209 1.449 . S
C190 C189 1.258 . S
C190 C191 1.477 . S
C190 H210 0.931 . S
C191 C187 1.460 . S
C191 C190 1.477 . S
C191 H211 0.930 . S
C192 N188 1.362 . S
C192 C189 1.431 . S
C192 C202 1.476 . S
H193 C187 0.929 . S
C194 O185 1.250 . S
C194 O186 1.258 . S
O195 Mn180 2.162 . S
O195 C183 1.281 . S
O196 Mn180 2.297 . S
O196 C183 1.236 . S
N197 Mn181 2.282 . S
N197 C198 1.328 . S
N197 C202 1.318 . S
C198 N197 1.328 . S
C198 C199 1.457 . S
C198 H203 0.929 . S
C199 C198 1.457 . S
C199 C200 1.291 . S
C199 H212 0.931 . S
C200 C199 1.291 . S
C200 C201 1.373 . S
C200 H213 0.929 . S
C201 C200 1.373 . S
C201 C202 1.396 . S
C201 C208 1.403 . S
C202 C192 1.476 . S
C202 N197 1.318 . S
C202 C201 1.396 . S
H203 C198 0.929 . S
O204 Mn180 2.385 . S
O204 C182 1.234 . S
O205 Mn180 2.209 . S
O205 Mn181 2.215 . S
O205 C182 1.283 . S
O206 Mn180 2.094 . S
O206 C184 1.240 . S
O207 Mn181 2.117 . S
O207 C184 1.264 . S
C208 C201 1.403 . S
C208 C209 1.399 . S
C208 H214 0.929 . S
C209 C189 1.449 . S
C209 C208 1.399 . S
C209 H215 0.930 . S
H210 C190 0.931 . S
H211 C191 0.930 . S
H212 C199 0.931 . S
H213 C200 0.929 . S
H214 C208 0.929 . S
H215 C209 0.930 . S
Mn216 O221 2.095 . S
Mn216 O231 2.162 . S
Mn216 O232 2.297 . S
Mn216 O240 2.385 . S
Mn216 O241 2.209 . S
Mn216 O242 2.094 . S
Mn217 O222 2.121 . S
Mn217 N224 2.257 . S
Mn217 N233 2.282 . S
Mn217 O241 2.215 . S
Mn217 O243 2.117 . S
C218 O240 1.234 . S
C218 O241 1.283 . S
C219 O231 1.281 . S
C219 O232 1.236 . S
C220 O242 1.240 . S
C220 O243 1.264 . S
O221 Mn216 2.095 . S
O221 C230 1.250 . S
O222 Mn217 2.121 . S
O222 C230 1.258 . S
C223 N224 1.326 . S
C223 C227 1.460 . S
C223 H229 0.929 . S
N224 Mn217 2.257 . S
N224 C223 1.326 . S
N224 C228 1.362 . S
C225 C226 1.258 . S
C225 C228 1.431 . S
C225 C245 1.449 . S
C226 C225 1.258 . S
C226 C227 1.477 . S
C226 H246 0.931 . S
C227 C223 1.460 . S
C227 C226 1.477 . S
C227 H247 0.930 . S
C228 N224 1.362 . S
C228 C225 1.431 . S
C228 C238 1.476 . S
H229 C223 0.929 . S
C230 O221 1.250 . S
C230 O222 1.258 . S
O231 Mn216 2.162 . S
O231 C219 1.281 . S
O232 Mn216 2.297 . S
O232 C219 1.236 . S
N233 Mn217 2.282 . S
N233 C234 1.328 . S
N233 C238 1.318 . S
C234 N233 1.328 . S
C234 C235 1.457 . S
C234 H239 0.929 . S
C235 C234 1.457 . S
C235 C236 1.291 . S
C235 H248 0.931 . S
C236 C235 1.291 . S
C236 C237 1.373 . S
C236 H249 0.929 . S
C237 C236 1.373 . S
C237 C238 1.396 . S
C237 C244 1.403 . S
C238 C228 1.476 . S
C238 N233 1.318 . S
C238 C237 1.396 . S
H239 C234 0.929 . S
O240 Mn216 2.385 . S
O240 C218 1.234 . S
O241 Mn216 2.209 . S
O241 Mn217 2.215 . S
O241 C218 1.283 . S
O242 Mn216 2.094 . S
O242 C220 1.240 . S
O243 Mn217 2.117 . S
O243 C220 1.264 . S
C244 C237 1.403 . S
C244 C245 1.399 . S
C244 H250 0.929 . S
C245 C225 1.449 . S
C245 C244 1.399 . S
C245 H251 0.930 . S
H246 C226 0.931 . S
H247 C227 0.930 . S
H248 C235 0.931 . S
H249 C236 0.929 . S
H250 C244 0.929 . S
H251 C245 0.930 . S
Mn252 O257 2.095 . S
Mn252 O267 2.162 . S
Mn252 O268 2.297 . S
Mn252 O276 2.385 . S
Mn252 O277 2.209 . S
Mn252 O278 2.094 . S
Mn253 O258 2.121 . S
Mn253 N260 2.257 . S
Mn253 N269 2.282 . S
Mn253 O277 2.215 . S
Mn253 O279 2.117 . S
C254 O276 1.234 . S
C254 O277 1.283 . S
C255 O267 1.281 . S
C255 O268 1.236 . S
C256 O278 1.240 . S
C256 O279 1.264 . S
O257 Mn252 2.095 . S
O257 C266 1.250 . S
O258 Mn253 2.121 . S
O258 C266 1.258 . S
C259 N260 1.326 . S
C259 C263 1.460 . S
C259 H265 0.929 . S
N260 Mn253 2.257 . S
N260 C259 1.326 . S
N260 C264 1.362 . S
C261 C262 1.258 . S
C261 C264 1.431 . S
C261 C281 1.449 . S
C262 C261 1.258 . S
C262 C263 1.477 . S
C262 H282 0.931 . S
C263 C259 1.460 . S
C263 C262 1.477 . S
C263 H283 0.930 . S
C264 N260 1.362 . S
C264 C261 1.431 . S
C264 C274 1.476 . S
H265 C259 0.929 . S
C266 O257 1.250 . S
C266 O258 1.258 . S
O267 Mn252 2.162 . S
O267 C255 1.281 . S
O268 Mn252 2.297 . S
O268 C255 1.236 . S
N269 Mn253 2.282 . S
N269 C270 1.328 . S
N269 C274 1.318 . S
C270 N269 1.328 . S
C270 C271 1.457 . S
C270 H275 0.929 . S
C271 C270 1.457 . S
C271 C272 1.291 . S
C271 H284 0.931 . S
C272 C271 1.291 . S
C272 C273 1.373 . S
C272 H285 0.929 . S
C273 C272 1.373 . S
C273 C274 1.396 . S
C273 C280 1.403 . S
C274 C264 1.476 . S
C274 N269 1.318 . S
C274 C273 1.396 . S
H275 C270 0.929 . S
O276 Mn252 2.385 . S
O276 C254 1.234 . S
O277 Mn252 2.209 . S
O277 Mn253 2.215 . S
O277 C254 1.283 . S
O278 Mn252 2.094 . S
O278 C256 1.240 . S
O279 Mn253 2.117 . S
O279 C256 1.264 . S
C280 C273 1.403 . S
C280 C281 1.399 . S
C280 H286 0.929 . S
C281 C261 1.449 . S
C281 C280 1.399 . S
C281 H287 0.930 . S
H282 C262 0.931 . S
H283 C263 0.930 . S
H284 C271 0.931 . S
H285 C272 0.929 . S
H286 C280 0.929 . S
H287 C281 0.930 . S
Mn288 O293 2.095 . S
Mn288 O303 2.162 . S
Mn288 O304 2.297 . S
Mn288 O312 2.385 . S
Mn288 O313 2.209 . S
Mn288 O314 2.094 . S
Mn289 O294 2.121 . S
Mn289 N296 2.257 . S
Mn289 N305 2.282 . S
Mn289 O313 2.215 . S
Mn289 O315 2.117 . S
C290 O312 1.234 . S
C290 O313 1.283 . S
C291 O303 1.281 . S
C291 O304 1.236 . S
C292 O314 1.240 . S
C292 O315 1.264 . S
O293 Mn288 2.095 . S
O293 C302 1.250 . S
O294 Mn289 2.121 . S
O294 C302 1.258 . S
C295 N296 1.326 . S
C295 C299 1.460 . S
C295 H301 0.929 . S
N296 Mn289 2.257 . S
N296 C295 1.326 . S
N296 C300 1.362 . S
C297 C298 1.258 . S
C297 C300 1.431 . S
C297 C317 1.449 . S
C298 C297 1.258 . S
C298 C299 1.477 . S
C298 H318 0.931 . S
C299 C295 1.460 . S
C299 C298 1.477 . S
C299 H319 0.930 . S
C300 N296 1.362 . S
C300 C297 1.431 . S
C300 C310 1.476 . S
H301 C295 0.929 . S
C302 O293 1.250 . S
C302 O294 1.258 . S
O303 Mn288 2.162 . S
O303 C291 1.281 . S
O304 Mn288 2.297 . S
O304 C291 1.236 . S
N305 Mn289 2.282 . S
N305 C306 1.328 . S
N305 C310 1.318 . S
C306 N305 1.328 . S
C306 C307 1.457 . S
C306 H311 0.929 . S
C307 C306 1.457 . S
C307 C308 1.291 . S
C307 H320 0.931 . S
C308 C307 1.291 . S
C308 C309 1.373 . S
C308 H321 0.929 . S
C309 C308 1.373 . S
C309 C310 1.396 . S
C309 C316 1.403 . S
C310 C300 1.476 . S
C310 N305 1.318 . S
C310 C309 1.396 . S
H311 C306 0.929 . S
O312 Mn288 2.385 . S
O312 C290 1.234 . S
O313 Mn288 2.209 . S
O313 Mn289 2.215 . S
O313 C290 1.283 . S
O314 Mn288 2.094 . S
O314 C292 1.240 . S
O315 Mn289 2.117 . S
O315 C292 1.264 . S
C316 C309 1.403 . S
C316 C317 1.399 . S
C316 H322 0.929 . S
C317 C297 1.449 . S
C317 C316 1.399 . S
C317 H323 0.930 . S
H318 C298 0.931 . S
H319 C299 0.930 . S
H320 C307 0.931 . S
H321 C308 0.929 . S
H322 C316 0.929 . S
H323 C317 0.930 . S
Mn324 O329 2.095 . S
Mn324 O339 2.162 . S
Mn324 O340 2.297 . S
Mn324 O348 2.385 . S
Mn324 O349 2.209 . S
Mn324 O350 2.094 . S
Mn325 O330 2.121 . S
Mn325 N332 2.257 . S
Mn325 N341 2.282 . S
Mn325 O349 2.215 . S
Mn325 O351 2.117 . S
C326 O348 1.234 . S
C326 O349 1.283 . S
C327 O339 1.281 . S
C327 O340 1.236 . S
C328 O350 1.240 . S
C328 O351 1.264 . S
O329 Mn324 2.095 . S
O329 C338 1.250 . S
O330 Mn325 2.121 . S
O330 C338 1.258 . S
C331 N332 1.326 . S
C331 C335 1.460 . S
C331 H337 0.929 . S
N332 Mn325 2.257 . S
N332 C331 1.326 . S
N332 C336 1.362 . S
C333 C334 1.258 . S
C333 C336 1.431 . S
C333 C353 1.449 . S
C334 C333 1.258 . S
C334 C335 1.477 . S
C334 H354 0.931 . S
C335 C331 1.460 . S
C335 C334 1.477 . S
C335 H355 0.930 . S
C336 N332 1.362 . S
C336 C333 1.431 . S
C336 C346 1.476 . S
H337 C331 0.929 . S
C338 O329 1.250 . S
C338 O330 1.258 . S
O339 Mn324 2.162 . S
O339 C327 1.281 . S
O340 Mn324 2.297 . S
O340 C327 1.236 . S
N341 Mn325 2.282 . S
N341 C342 1.328 . S
N341 C346 1.318 . S
C342 N341 1.328 . S
C342 C343 1.457 . S
C342 H347 0.929 . S
C343 C342 1.457 . S
C343 C344 1.291 . S
C343 H356 0.931 . S
C344 C343 1.291 . S
C344 C345 1.373 . S
C344 H357 0.929 . S
C345 C344 1.373 . S
C345 C346 1.396 . S
C345 C352 1.403 . S
C346 C336 1.476 . S
C346 N341 1.318 . S
C346 C345 1.396 . S
H347 C342 0.929 . S
O348 Mn324 2.385 . S
O348 C326 1.234 . S
O349 Mn324 2.209 . S
O349 Mn325 2.215 . S
O349 C326 1.283 . S
O350 Mn324 2.094 . S
O350 C328 1.240 . S
O351 Mn325 2.117 . S
O351 C328 1.264 . S
C352 C345 1.403 . S
C352 C353 1.399 . S
C352 H358 0.929 . S
C353 C333 1.449 . S
C353 C352 1.399 . S
C353 H359 0.930 . S
H354 C334 0.931 . S
H355 C335 0.930 . S
H356 C343 0.931 . S
H357 C344 0.929 . S
H358 C352 0.929 . S
H359 C353 0.930 . S
Mn360 O365 2.095 . S
Mn360 O375 2.162 . S
Mn360 O376 2.297 . S
Mn360 O384 2.385 . S
Mn360 O385 2.209 . S
Mn360 O386 2.094 . S
Mn361 O366 2.121 . S
Mn361 N368 2.257 . S
Mn361 N377 2.282 . S
Mn361 O385 2.215 . S
Mn361 O387 2.117 . S
C362 O384 1.234 . S
C362 O385 1.283 . S
C363 O375 1.281 . S
C363 O376 1.236 . S
C364 O386 1.240 . S
C364 O387 1.264 . S
O365 Mn360 2.095 . S
O365 C374 1.250 . S
O366 Mn361 2.121 . S
O366 C374 1.258 . S
C367 N368 1.326 . S
C367 C371 1.460 . S
C367 H373 0.929 . S
N368 Mn361 2.257 . S
N368 C367 1.326 . S
N368 C372 1.362 . S
C369 C370 1.258 . S
C369 C372 1.431 . S
C369 C389 1.449 . S
C370 C369 1.258 . S
C370 C371 1.477 . S
C370 H390 0.931 . S
C371 C367 1.460 . S
C371 C370 1.477 . S
C371 H391 0.930 . S
C372 N368 1.362 . S
C372 C369 1.431 . S
C372 C382 1.476 . S
H373 C367 0.929 . S
C374 O365 1.250 . S
C374 O366 1.258 . S
O375 Mn360 2.162 . S
O375 C363 1.281 . S
O376 Mn360 2.297 . S
O376 C363 1.236 . S
N377 Mn361 2.282 . S
N377 C378 1.328 . S
N377 C382 1.318 . S
C378 N377 1.328 . S
C378 C379 1.457 . S
C378 H383 0.929 . S
C379 C378 1.457 . S
C379 C380 1.291 . S
C379 H392 0.931 . S
C380 C379 1.291 . S
C380 C381 1.373 . S
C380 H393 0.929 . S
C381 C380 1.373 . S
C381 C382 1.396 . S
C381 C388 1.403 . S
C382 C372 1.476 . S
C382 N377 1.318 . S
C382 C381 1.396 . S
H383 C378 0.929 . S
O384 Mn360 2.385 . S
O384 C362 1.234 . S
O385 Mn360 2.209 . S
O385 Mn361 2.215 . S
O385 C362 1.283 . S
O386 Mn360 2.094 . S
O386 C364 1.240 . S
O387 Mn361 2.117 . S
O387 C364 1.264 . S
C388 C381 1.403 . S
C388 C389 1.399 . S
C388 H394 0.929 . S
C389 C369 1.449 . S
C389 C388 1.399 . S
C389 H395 0.930 . S
H390 C370 0.931 . S
H391 C371 0.930 . S
H392 C379 0.931 . S
H393 C380 0.929 . S
H394 C388 0.929 . S
H395 C389 0.930 . S
Mn396 O401 2.095 . S
Mn396 O411 2.162 . S
Mn396 O412 2.297 . S
Mn396 O420 2.385 . S
Mn396 O421 2.209 . S
Mn396 O422 2.094 . S
Mn397 O402 2.121 . S
Mn397 N404 2.257 . S
Mn397 N413 2.282 . S
Mn397 O421 2.215 . S
Mn397 O423 2.117 . S
C398 O420 1.234 . S
C398 O421 1.283 . S
C399 O411 1.281 . S
C399 O412 1.236 . S
C400 O422 1.240 . S
C400 O423 1.264 . S
O401 Mn396 2.095 . S
O401 C410 1.250 . S
O402 Mn397 2.121 . S
O402 C410 1.258 . S
C403 N404 1.326 . S
C403 C407 1.460 . S
C403 H409 0.929 . S
N404 Mn397 2.257 . S
N404 C403 1.326 . S
N404 C408 1.362 . S
C405 C406 1.258 . S
C405 C408 1.431 . S
C405 C425 1.449 . S
C406 C405 1.258 . S
C406 C407 1.477 . S
C406 H426 0.931 . S
C407 C403 1.460 . S
C407 C406 1.477 . S
C407 H427 0.930 . S
C408 N404 1.362 . S
C408 C405 1.431 . S
C408 C418 1.476 . S
H409 C403 0.929 . S
C410 O401 1.250 . S
C410 O402 1.258 . S
O411 Mn396 2.162 . S
O411 C399 1.281 . S
O412 Mn396 2.297 . S
O412 C399 1.236 . S
N413 Mn397 2.282 . S
N413 C414 1.328 . S
N413 C418 1.318 . S
C414 N413 1.328 . S
C414 C415 1.457 . S
C414 H419 0.929 . S
C415 C414 1.457 . S
C415 C416 1.291 . S
C415 H428 0.931 . S
C416 C415 1.291 . S
C416 C417 1.373 . S
C416 H429 0.929 . S
C417 C416 1.373 . S
C417 C418 1.396 . S
C417 C424 1.403 . S
C418 C408 1.476 . S
C418 N413 1.318 . S
C418 C417 1.396 . S
H419 C414 0.929 . S
O420 Mn396 2.385 . S
O420 C398 1.234 . S
O421 Mn396 2.209 . S
O421 Mn397 2.215 . S
O421 C398 1.283 . S
O422 Mn396 2.094 . S
O422 C400 1.240 . S
O423 Mn397 2.117 . S
O423 C400 1.264 . S
C424 C417 1.403 . S
C424 C425 1.399 . S
C424 H430 0.929 . S
C425 C405 1.449 . S
C425 C424 1.399 . S
C425 H431 0.930 . S
H426 C406 0.931 . S
H427 C407 0.930 . S
H428 C415 0.931 . S
H429 C416 0.929 . S
H430 C424 0.929 . S
H431 C425 0.930 . S
Mn432 O437 2.095 . S
Mn432 O447 2.162 . S
Mn432 O448 2.297 . S
Mn432 O456 2.385 . S
Mn432 O457 2.209 . S
Mn432 O458 2.094 . S
Mn433 O438 2.121 . S
Mn433 N440 2.257 . S
Mn433 N449 2.282 . S
Mn433 O457 2.215 . S
Mn433 O459 2.117 . S
C434 O456 1.234 . S
C434 O457 1.283 . S
C435 O447 1.281 . S
C435 O448 1.236 . S
C436 O458 1.240 . S
C436 O459 1.264 . S
O437 Mn432 2.095 . S
O437 C446 1.250 . S
O438 Mn433 2.121 . S
O438 C446 1.258 . S
C439 N440 1.326 . S
C439 C443 1.460 . S
C439 H445 0.929 . S
N440 Mn433 2.257 . S
N440 C439 1.326 . S
N440 C444 1.362 . S
C441 C442 1.258 . S
C441 C444 1.431 . S
C441 C461 1.449 . S
C442 C441 1.258 . S
C442 C443 1.477 . S
C442 H462 0.931 . S
C443 C439 1.460 . S
C443 C442 1.477 . S
C443 H463 0.930 . S
C444 N440 1.362 . S
C444 C441 1.431 . S
C444 C454 1.476 . S
H445 C439 0.929 . S
C446 O437 1.250 . S
C446 O438 1.258 . S
O447 Mn432 2.162 . S
O447 C435 1.281 . S
O448 Mn432 2.297 . S
O448 C435 1.236 . S
N449 Mn433 2.282 . S
N449 C450 1.328 . S
N449 C454 1.318 . S
C450 N449 1.328 . S
C450 C451 1.457 . S
C450 H455 0.929 . S
C451 C450 1.457 . S
C451 C452 1.291 . S
C451 H464 0.931 . S
C452 C451 1.291 . S
C452 C453 1.373 . S
C452 H465 0.929 . S
C453 C452 1.373 . S
C453 C454 1.396 . S
C453 C460 1.403 . S
C454 C444 1.476 . S
C454 N449 1.318 . S
C454 C453 1.396 . S
H455 C450 0.929 . S
O456 Mn432 2.385 . S
O456 C434 1.234 . S
O457 Mn432 2.209 . S
O457 Mn433 2.215 . S
O457 C434 1.283 . S
O458 Mn432 2.094 . S
O458 C436 1.240 . S
O459 Mn433 2.117 . S
O459 C436 1.264 . S
C460 C453 1.403 . S
C460 C461 1.399 . S
C460 H466 0.929 . S
C461 C441 1.449 . S
C461 C460 1.399 . S
C461 H467 0.930 . S
H462 C442 0.931 . S
H463 C443 0.930 . S
H464 C451 0.931 . S
H465 C452 0.929 . S
H466 C460 0.929 . S
H467 C461 0.930 . S
Mn468 O473 2.095 . S
Mn468 O483 2.162 . S
Mn468 O484 2.297 . S
Mn468 O492 2.385 . S
Mn468 O493 2.209 . S
Mn468 O494 2.094 . S
Mn469 O474 2.121 . S
Mn469 N476 2.257 . S
Mn469 N485 2.282 . S
Mn469 O493 2.215 . S
Mn469 O495 2.117 . S
C470 O492 1.234 . S
C470 O493 1.283 . S
C471 O483 1.281 . S
C471 O484 1.236 . S
C472 O494 1.240 . S
C472 O495 1.264 . S
O473 Mn468 2.095 . S
O473 C482 1.250 . S
O474 Mn469 2.121 . S
O474 C482 1.258 . S
C475 N476 1.326 . S
C475 C479 1.460 . S
C475 H481 0.929 . S
N476 Mn469 2.257 . S
N476 C475 1.326 . S
N476 C480 1.362 . S
C477 C478 1.258 . S
C477 C480 1.431 . S
C477 C497 1.449 . S
C478 C477 1.258 . S
C478 C479 1.477 . S
C478 H498 0.931 . S
C479 C475 1.460 . S
C479 C478 1.477 . S
C479 H499 0.930 . S
C480 N476 1.362 . S
C480 C477 1.431 . S
C480 C490 1.476 . S
H481 C475 0.929 . S
C482 O473 1.250 . S
C482 O474 1.258 . S
O483 Mn468 2.162 . S
O483 C471 1.281 . S
O484 Mn468 2.297 . S
O484 C471 1.236 . S
N485 Mn469 2.282 . S
N485 C486 1.328 . S
N485 C490 1.318 . S
C486 N485 1.328 . S
C486 C487 1.457 . S
C486 H491 0.929 . S
C487 C486 1.457 . S
C487 C488 1.291 . S
C487 H500 0.931 . S
C488 C487 1.291 . S
C488 C489 1.373 . S
C488 H501 0.929 . S
C489 C488 1.373 . S
C489 C490 1.396 . S
C489 C496 1.403 . S
C490 C480 1.476 . S
C490 N485 1.318 . S
C490 C489 1.396 . S
H491 C486 0.929 . S
O492 Mn468 2.385 . S
O492 C470 1.234 . S
O493 Mn468 2.209 . S
O493 Mn469 2.215 . S
O493 C470 1.283 . S
O494 Mn468 2.094 . S
O494 C472 1.240 . S
O495 Mn469 2.117 . S
O495 C472 1.264 . S
C496 C489 1.403 . S
C496 C497 1.399 . S
C496 H502 0.929 . S
C497 C477 1.449 . S
C497 C496 1.399 . S
C497 H503 0.930 . S
H498 C478 0.931 . S
H499 C479 0.930 . S
H500 C487 0.931 . S
H501 C488 0.929 . S
H502 C496 0.929 . S
H503 C497 0.930 . S
Mn504 O509 2.095 . S
Mn504 O519 2.162 . S
Mn504 O520 2.297 . S
Mn504 O528 2.385 . S
Mn504 O529 2.209 . S
Mn504 O530 2.094 . S
Mn505 O510 2.121 . S
Mn505 N512 2.257 . S
Mn505 N521 2.282 . S
Mn505 O529 2.215 . S
Mn505 O531 2.117 . S
C506 O528 1.234 . S
C506 O529 1.283 . S
C507 O519 1.281 . S
C507 O520 1.236 . S
C508 O530 1.240 . S
C508 O531 1.264 . S
O509 Mn504 2.095 . S
O509 C518 1.250 . S
O510 Mn505 2.121 . S
O510 C518 1.258 . S
C511 N512 1.326 . S
C511 C515 1.460 . S
C511 H517 0.929 . S
N512 Mn505 2.257 . S
N512 C511 1.326 . S
N512 C516 1.362 . S
C513 C514 1.258 . S
C513 C516 1.431 . S
C513 C533 1.449 . S
C514 C513 1.258 . S
C514 C515 1.477 . S
C514 H534 0.931 . S
C515 C511 1.460 . S
C515 C514 1.477 . S
C515 H535 0.930 . S
C516 N512 1.362 . S
C516 C513 1.431 . S
C516 C526 1.476 . S
H517 C511 0.929 . S
C518 O509 1.250 . S
C518 O510 1.258 . S
O519 Mn504 2.162 . S
O519 C507 1.281 . S
O520 Mn504 2.297 . S
O520 C507 1.236 . S
N521 Mn505 2.282 . S
N521 C522 1.328 . S
N521 C526 1.318 . S
C522 N521 1.328 . S
C522 C523 1.457 . S
C522 H527 0.929 . S
C523 C522 1.457 . S
C523 C524 1.291 . S
C523 H536 0.931 . S
C524 C523 1.291 . S
C524 C525 1.373 . S
C524 H537 0.929 . S
C525 C524 1.373 . S
C525 C526 1.396 . S
C525 C532 1.403 . S
C526 C516 1.476 . S
C526 N521 1.318 . S
C526 C525 1.396 . S
H527 C522 0.929 . S
O528 Mn504 2.385 . S
O528 C506 1.234 . S
O529 Mn504 2.209 . S
O529 Mn505 2.215 . S
O529 C506 1.283 . S
O530 Mn504 2.094 . S
O530 C508 1.240 . S
O531 Mn505 2.117 . S
O531 C508 1.264 . S
C532 C525 1.403 . S
C532 C533 1.399 . S
C532 H538 0.929 . S
C533 C513 1.449 . S
C533 C532 1.399 . S
C533 H539 0.930 . S
H534 C514 0.931 . S
H535 C515 0.930 . S
H536 C523 0.931 . S
H537 C524 0.929 . S
H538 C532 0.929 . S
H539 C533 0.930 . S
Mn540 O545 2.095 . S
Mn540 O555 2.162 . S
Mn540 O556 2.297 . S
Mn540 O564 2.385 . S
Mn540 O565 2.209 . S
Mn540 O566 2.094 . S
Mn541 O546 2.121 . S
Mn541 N548 2.257 . S
Mn541 N557 2.282 . S
Mn541 O565 2.215 . S
Mn541 O567 2.117 . S
C542 O564 1.234 . S
C542 O565 1.283 . S
C543 O555 1.281 . S
C543 O556 1.236 . S
C544 O566 1.240 . S
C544 O567 1.264 . S
O545 Mn540 2.095 . S
O545 C554 1.250 . S
O546 Mn541 2.121 . S
O546 C554 1.258 . S
C547 N548 1.326 . S
C547 C551 1.460 . S
C547 H553 0.929 . S
N548 Mn541 2.257 . S
N548 C547 1.326 . S
N548 C552 1.362 . S
C549 C550 1.258 . S
C549 C552 1.431 . S
C549 C569 1.449 . S
C550 C549 1.258 . S
C550 C551 1.477 . S
C550 H570 0.931 . S
C551 C547 1.460 . S
C551 C550 1.477 . S
C551 H571 0.930 . S
C552 N548 1.362 . S
C552 C549 1.431 . S
C552 C562 1.476 . S
H553 C547 0.929 . S
C554 O545 1.250 . S
C554 O546 1.258 . S
O555 Mn540 2.162 . S
O555 C543 1.281 . S
O556 Mn540 2.297 . S
O556 C543 1.236 . S
N557 Mn541 2.282 . S
N557 C558 1.328 . S
N557 C562 1.318 . S
C558 N557 1.328 . S
C558 C559 1.457 . S
C558 H563 0.929 . S
C559 C558 1.457 . S
C559 C560 1.291 . S
C559 H572 0.931 . S
C560 C559 1.291 . S
C560 C561 1.373 . S
C560 H573 0.929 . S
C561 C560 1.373 . S
C561 C562 1.396 . S
C561 C568 1.403 . S
C562 C552 1.476 . S
C562 N557 1.318 . S
C562 C561 1.396 . S
H563 C558 0.929 . S
O564 Mn540 2.385 . S
O564 C542 1.234 . S
O565 Mn540 2.209 . S
O565 Mn541 2.215 . S
O565 C542 1.283 . S
O566 Mn540 2.094 . S
O566 C544 1.240 . S
O567 Mn541 2.117 . S
O567 C544 1.264 . S
C568 C561 1.403 . S
C568 C569 1.399 . S
C568 H574 0.929 . S
C569 C549 1.449 . S
C569 C568 1.399 . S
C569 H575 0.930 . S
H570 C550 0.931 . S
H571 C551 0.930 . S
H572 C559 0.931 . S
H573 C560 0.929 . S
H574 C568 0.929 . S
H575 C569 0.930 . S
Mn576 O581 2.095 . S
Mn576 O591 2.162 . S
Mn576 O592 2.297 . S
Mn576 O600 2.385 . S
Mn576 O601 2.209 . S
Mn576 O602 2.094 . S
Mn577 O582 2.121 . S
Mn577 N584 2.257 . S
Mn577 N593 2.282 . S
Mn577 O601 2.215 . S
Mn577 O603 2.117 . S
C578 O600 1.234 . S
C578 O601 1.283 . S
C579 O591 1.281 . S
C579 O592 1.236 . S
C580 O602 1.240 . S
C580 O603 1.264 . S
O581 Mn576 2.095 . S
O581 C590 1.250 . S
O582 Mn577 2.121 . S
O582 C590 1.258 . S
C583 N584 1.326 . S
C583 C587 1.460 . S
C583 H589 0.929 . S
N584 Mn577 2.257 . S
N584 C583 1.326 . S
N584 C588 1.362 . S
C585 C586 1.258 . S
C585 C588 1.431 . S
C585 C605 1.449 . S
C586 C585 1.258 . S
C586 C587 1.477 . S
C586 H606 0.931 . S
C587 C583 1.460 . S
C587 C586 1.477 . S
C587 H607 0.930 . S
C588 N584 1.362 . S
C588 C585 1.431 . S
C588 C598 1.476 . S
H589 C583 0.929 . S
C590 O581 1.250 . S
C590 O582 1.258 . S
O591 Mn576 2.162 . S
O591 C579 1.281 . S
O592 Mn576 2.297 . S
O592 C579 1.236 . S
N593 Mn577 2.282 . S
N593 C594 1.328 . S
N593 C598 1.318 . S
C594 N593 1.328 . S
C594 C595 1.457 . S
C594 H599 0.929 . S
C595 C594 1.457 . S
C595 C596 1.291 . S
C595 H608 0.931 . S
C596 C595 1.291 . S
C596 C597 1.373 . S
C596 H609 0.929 . S
C597 C596 1.373 . S
C597 C598 1.396 . S
C597 C604 1.403 . S
C598 C588 1.476 . S
C598 N593 1.318 . S
C598 C597 1.396 . S
H599 C594 0.929 . S
O600 Mn576 2.385 . S
O600 C578 1.234 . S
O601 Mn576 2.209 . S
O601 Mn577 2.215 . S
O601 C578 1.283 . S
O602 Mn576 2.094 . S
O602 C580 1.240 . S
O603 Mn577 2.117 . S
O603 C580 1.264 . S
C604 C597 1.403 . S
C604 C605 1.399 . S
C604 H610 0.929 . S
C605 C585 1.449 . S
C605 C604 1.399 . S
C605 H611 0.930 . S
H606 C586 0.931 . S
H607 C587 0.930 . S
H608 C595 0.931 . S
H609 C596 0.929 . S
H610 C604 0.929 . S
H611 C605 0.930 . S
Mn612 O617 2.095 . S
Mn612 O627 2.162 . S
Mn612 O628 2.297 . S
Mn612 O636 2.385 . S
Mn612 O637 2.209 . S
Mn612 O638 2.094 . S
Mn613 O618 2.121 . S
Mn613 N620 2.257 . S
Mn613 N629 2.282 . S
Mn613 O637 2.215 . S
Mn613 O639 2.117 . S
C614 O636 1.234 . S
C614 O637 1.283 . S
C615 O627 1.281 . S
C615 O628 1.236 . S
C616 O638 1.240 . S
C616 O639 1.264 . S
O617 Mn612 2.095 . S
O617 C626 1.250 . S
O618 Mn613 2.121 . S
O618 C626 1.258 . S
C619 N620 1.326 . S
C619 C623 1.460 . S
C619 H625 0.929 . S
N620 Mn613 2.257 . S
N620 C619 1.326 . S
N620 C624 1.362 . S
C621 C622 1.258 . S
C621 C624 1.431 . S
C621 C641 1.449 . S
C622 C621 1.258 . S
C622 C623 1.477 . S
C622 H642 0.931 . S
C623 C619 1.460 . S
C623 C622 1.477 . S
C623 H643 0.930 . S
C624 N620 1.362 . S
C624 C621 1.431 . S
C624 C634 1.476 . S
H625 C619 0.929 . S
C626 O617 1.250 . S
C626 O618 1.258 . S
O627 Mn612 2.162 . S
O627 C615 1.281 . S
O628 Mn612 2.297 . S
O628 C615 1.236 . S
N629 Mn613 2.282 . S
N629 C630 1.328 . S
N629 C634 1.318 . S
C630 N629 1.328 . S
C630 C631 1.457 . S
C630 H635 0.929 . S
C631 C630 1.457 . S
C631 C632 1.291 . S
C631 H644 0.931 . S
C632 C631 1.291 . S
C632 C633 1.373 . S
C632 H645 0.929 . S
C633 C632 1.373 . S
C633 C634 1.396 . S
C633 C640 1.403 . S
C634 C624 1.476 . S
C634 N629 1.318 . S
C634 C633 1.396 . S
H635 C630 0.929 . S
O636 Mn612 2.385 . S
O636 C614 1.234 . S
O637 Mn612 2.209 . S
O637 Mn613 2.215 . S
O637 C614 1.283 . S
O638 Mn612 2.094 . S
O638 C616 1.240 . S
O639 Mn613 2.117 . S
O639 C616 1.264 . S
C640 C633 1.403 . S
C640 C641 1.399 . S
C640 H646 0.929 . S
C641 C621 1.449 . S
C641 C640 1.399 . S
C641 H647 0.930 . S
H642 C622 0.931 . S
H643 C623 0.930 . S
H644 C631 0.931 . S
H645 C632 0.929 . S
H646 C640 0.929 . S
H647 C641 0.930 . S
Mn648 O653 2.095 . S
Mn648 O663 2.162 . S
Mn648 O664 2.297 . S
Mn648 O672 2.385 . S
Mn648 O673 2.209 . S
Mn648 O674 2.094 . S
Mn649 O654 2.121 . S
Mn649 N656 2.257 . S
Mn649 N665 2.282 . S
Mn649 O673 2.215 . S
Mn649 O675 2.117 . S
C650 O672 1.234 . S
C650 O673 1.283 . S
C651 O663 1.281 . S
C651 O664 1.236 . S
C652 O674 1.240 . S
C652 O675 1.264 . S
O653 Mn648 2.095 . S
O653 C662 1.250 . S
O654 Mn649 2.121 . S
O654 C662 1.258 . S
C655 N656 1.326 . S
C655 C659 1.460 . S
C655 H661 0.929 . S
N656 Mn649 2.257 . S
N656 C655 1.326 . S
N656 C660 1.362 . S
C657 C658 1.258 . S
C657 C660 1.431 . S
C657 C677 1.449 . S
C658 C657 1.258 . S
C658 C659 1.477 . S
C658 H678 0.931 . S
C659 C655 1.460 . S
C659 C658 1.477 . S
C659 H679 0.930 . S
C660 N656 1.362 . S
C660 C657 1.431 . S
C660 C670 1.476 . S
H661 C655 0.929 . S
C662 O653 1.250 . S
C662 O654 1.258 . S
O663 Mn648 2.162 . S
O663 C651 1.281 . S
O664 Mn648 2.297 . S
O664 C651 1.236 . S
N665 Mn649 2.282 . S
N665 C666 1.328 . S
N665 C670 1.318 . S
C666 N665 1.328 . S
C666 C667 1.457 . S
C666 H671 0.929 . S
C667 C666 1.457 . S
C667 C668 1.291 . S
C667 H680 0.931 . S
C668 C667 1.291 . S
C668 C669 1.373 . S
C668 H681 0.929 . S
C669 C668 1.373 . S
C669 C670 1.396 . S
C669 C676 1.403 . S
C670 C660 1.476 . S
C670 N665 1.318 . S
C670 C669 1.396 . S
H671 C666 0.929 . S
O672 Mn648 2.385 . S
O672 C650 1.234 . S
O673 Mn648 2.209 . S
O673 Mn649 2.215 . S
O673 C650 1.283 . S
O674 Mn648 2.094 . S
O674 C652 1.240 . S
O675 Mn649 2.117 . S
O675 C652 1.264 . S
C676 C669 1.403 . S
C676 C677 1.399 . S
C676 H682 0.929 . S
C677 C657 1.449 . S
C677 C676 1.399 . S
C677 H683 0.930 . S
H678 C658 0.931 . S
H679 C659 0.930 . S
H680 C667 0.931 . S
H681 C668 0.929 . S
H682 C676 0.929 . S
H683 C677 0.930 . S
Mn684 O689 2.095 . S
Mn684 O699 2.162 . S
Mn684 O700 2.297 . S
Mn684 O708 2.385 . S
Mn684 O709 2.209 . S
Mn684 O710 2.094 . S
Mn685 O690 2.121 . S
Mn685 N692 2.257 . S
Mn685 N701 2.282 . S
Mn685 O709 2.215 . S
Mn685 O711 2.117 . S
C686 O708 1.234 . S
C686 O709 1.283 . S
C687 O699 1.281 . S
C687 O700 1.236 . S
C688 O710 1.240 . S
C688 O711 1.264 . S
O689 Mn684 2.095 . S
O689 C698 1.250 . S
O690 Mn685 2.121 . S
O690 C698 1.258 . S
C691 N692 1.326 . S
C691 C695 1.460 . S
C691 H697 0.929 . S
N692 Mn685 2.257 . S
N692 C691 1.326 . S
N692 C696 1.362 . S
C693 C694 1.258 . S
C693 C696 1.431 . S
C693 C713 1.449 . S
C694 C693 1.258 . S
C694 C695 1.477 . S
C694 H714 0.931 . S
C695 C691 1.460 . S
C695 C694 1.477 . S
C695 H715 0.930 . S
C696 N692 1.362 . S
C696 C693 1.431 . S
C696 C706 1.476 . S
H697 C691 0.929 . S
C698 O689 1.250 . S
C698 O690 1.258 . S
O699 Mn684 2.162 . S
O699 C687 1.281 . S
O700 Mn684 2.297 . S
O700 C687 1.236 . S
N701 Mn685 2.282 . S
N701 C702 1.328 . S
N701 C706 1.318 . S
C702 N701 1.328 . S
C702 C703 1.457 . S
C702 H707 0.929 . S
C703 C702 1.457 . S
C703 C704 1.291 . S
C703 H716 0.931 . S
C704 C703 1.291 . S
C704 C705 1.373 . S
C704 H717 0.929 . S
C705 C704 1.373 . S
C705 C706 1.396 . S
C705 C712 1.403 . S
C706 C696 1.476 . S
C706 N701 1.318 . S
C706 C705 1.396 . S
H707 C702 0.929 . S
O708 Mn684 2.385 . S
O708 C686 1.234 . S
O709 Mn684 2.209 . S
O709 Mn685 2.215 . S
O709 C686 1.283 . S
O710 Mn684 2.094 . S
O710 C688 1.240 . S
O711 Mn685 2.117 . S
O711 C688 1.264 . S
C712 C705 1.403 . S
C712 C713 1.399 . S
C712 H718 0.929 . S
C713 C693 1.449 . S
C713 C712 1.399 . S
C713 H719 0.930 . S
H714 C694 0.931 . S
H715 C695 0.930 . S
H716 C703 0.931 . S
H717 C704 0.929 . S
H718 C712 0.929 . S
H719 C713 0.930 . S
Mn720 O725 2.095 . S
Mn720 O735 2.162 . S
Mn720 O736 2.297 . S
Mn720 O744 2.385 . S
Mn720 O745 2.209 . S
Mn720 O746 2.094 . S
Mn721 O726 2.121 . S
Mn721 N728 2.257 . S
Mn721 N737 2.282 . S
Mn721 O745 2.215 . S
Mn721 O747 2.117 . S
C722 O744 1.234 . S
C722 O745 1.283 . S
C723 O735 1.281 . S
C723 O736 1.236 . S
C724 O746 1.240 . S
C724 O747 1.264 . S
O725 Mn720 2.095 . S
O725 C734 1.250 . S
O726 Mn721 2.121 . S
O726 C734 1.258 . S
C727 N728 1.326 . S
C727 C731 1.460 . S
C727 H733 0.929 . S
N728 Mn721 2.257 . S
N728 C727 1.326 . S
N728 C732 1.362 . S
C729 C730 1.258 . S
C729 C732 1.431 . S
C729 C749 1.449 . S
C730 C729 1.258 . S
C730 C731 1.477 . S
C730 H750 0.931 . S
C731 C727 1.460 . S
C731 C730 1.477 . S
C731 H751 0.930 . S
C732 N728 1.362 . S
C732 C729 1.431 . S
C732 C742 1.476 . S
H733 C727 0.929 . S
C734 O725 1.250 . S
C734 O726 1.258 . S
O735 Mn720 2.162 . S
O735 C723 1.281 . S
O736 Mn720 2.297 . S
O736 C723 1.236 . S
N737 Mn721 2.282 . S
N737 C738 1.328 . S
N737 C742 1.318 . S
C738 N737 1.328 . S
C738 C739 1.457 . S
C738 H743 0.929 . S
C739 C738 1.457 . S
C739 C740 1.291 . S
C739 H752 0.931 . S
C740 C739 1.291 . S
C740 C741 1.373 . S
C740 H753 0.929 . S
C741 C740 1.373 . S
C741 C742 1.396 . S
C741 C748 1.403 . S
C742 C732 1.476 . S
C742 N737 1.318 . S
C742 C741 1.396 . S
H743 C738 0.929 . S
O744 Mn720 2.385 . S
O744 C722 1.234 . S
O745 Mn720 2.209 . S
O745 Mn721 2.215 . S
O745 C722 1.283 . S
O746 Mn720 2.094 . S
O746 C724 1.240 . S
O747 Mn721 2.117 . S
O747 C724 1.264 . S
C748 C741 1.403 . S
C748 C749 1.399 . S
C748 H754 0.929 . S
C749 C729 1.449 . S
C749 C748 1.399 . S
C749 H755 0.930 . S
H750 C730 0.931 . S
H751 C731 0.930 . S
H752 C739 0.931 . S
H753 C740 0.929 . S
H754 C748 0.929 . S
H755 C749 0.930 . S
Mn756 O761 2.095 . S
Mn756 O771 2.162 . S
Mn756 O772 2.297 . S
Mn756 O780 2.385 . S
Mn756 O781 2.209 . S
Mn756 O782 2.094 . S
Mn757 O762 2.121 . S
Mn757 N764 2.257 . S
Mn757 N773 2.282 . S
Mn757 O781 2.215 . S
Mn757 O783 2.117 . S
C758 O780 1.234 . S
C758 O781 1.283 . S
C759 O771 1.281 . S
C759 O772 1.236 . S
C760 O782 1.240 . S
C760 O783 1.264 . S
O761 Mn756 2.095 . S
O761 C770 1.250 . S
O762 Mn757 2.121 . S
O762 C770 1.258 . S
C763 N764 1.326 . S
C763 C767 1.460 . S
C763 H769 0.929 . S
N764 Mn757 2.257 . S
N764 C763 1.326 . S
N764 C768 1.362 . S
C765 C766 1.258 . S
C765 C768 1.431 . S
C765 C785 1.449 . S
C766 C765 1.258 . S
C766 C767 1.477 . S
C766 H786 0.931 . S
C767 C763 1.460 . S
C767 C766 1.477 . S
C767 H787 0.930 . S
C768 N764 1.362 . S
C768 C765 1.431 . S
C768 C778 1.476 . S
H769 C763 0.929 . S
C770 O761 1.250 . S
C770 O762 1.258 . S
O771 Mn756 2.162 . S
O771 C759 1.281 . S
O772 Mn756 2.297 . S
O772 C759 1.236 . S
N773 Mn757 2.282 . S
N773 C774 1.328 . S
N773 C778 1.318 . S
C774 N773 1.328 . S
C774 C775 1.457 . S
C774 H779 0.929 . S
C775 C774 1.457 . S
C775 C776 1.291 . S
C775 H788 0.931 . S
C776 C775 1.291 . S
C776 C777 1.373 . S
C776 H789 0.929 . S
C777 C776 1.373 . S
C777 C778 1.396 . S
C777 C784 1.403 . S
C778 C768 1.476 . S
C778 N773 1.318 . S
C778 C777 1.396 . S
H779 C774 0.929 . S
O780 Mn756 2.385 . S
O780 C758 1.234 . S
O781 Mn756 2.209 . S
O781 Mn757 2.215 . S
O781 C758 1.283 . S
O782 Mn756 2.094 . S
O782 C760 1.240 . S
O783 Mn757 2.117 . S
O783 C760 1.264 . S
C784 C777 1.403 . S
C784 C785 1.399 . S
C784 H790 0.929 . S
C785 C765 1.449 . S
C785 C784 1.399 . S
C785 H791 0.930 . S
H786 C766 0.931 . S
H787 C767 0.930 . S
H788 C775 0.931 . S
H789 C776 0.929 . S
H790 C784 0.929 . S
H791 C785 0.930 . S
Mn792 O797 2.095 . S
Mn792 O807 2.162 . S
Mn792 O808 2.297 . S
Mn792 O816 2.385 . S
Mn792 O817 2.209 . S
Mn792 O818 2.094 . S
Mn793 O798 2.121 . S
Mn793 N800 2.257 . S
Mn793 N809 2.282 . S
Mn793 O817 2.215 . S
Mn793 O819 2.117 . S
C794 O816 1.234 . S
C794 O817 1.283 . S
C795 O807 1.281 . S
C795 O808 1.236 . S
C796 O818 1.240 . S
C796 O819 1.264 . S
O797 Mn792 2.095 . S
O797 C806 1.250 . S
O798 Mn793 2.121 . S
O798 C806 1.258 . S
C799 N800 1.326 . S
C799 C803 1.460 . S
C799 H805 0.929 . S
N800 Mn793 2.257 . S
N800 C799 1.326 . S
N800 C804 1.362 . S
C801 C802 1.258 . S
C801 C804 1.431 . S
C801 C821 1.449 . S
C802 C801 1.258 . S
C802 C803 1.477 . S
C802 H822 0.931 . S
C803 C799 1.460 . S
C803 C802 1.477 . S
C803 H823 0.930 . S
C804 N800 1.362 . S
C804 C801 1.431 . S
C804 C814 1.476 . S
H805 C799 0.929 . S
C806 O797 1.250 . S
C806 O798 1.258 . S
O807 Mn792 2.162 . S
O807 C795 1.281 . S
O808 Mn792 2.297 . S
O808 C795 1.236 . S
N809 Mn793 2.282 . S
N809 C810 1.328 . S
N809 C814 1.318 . S
C810 N809 1.328 . S
C810 C811 1.457 . S
C810 H815 0.929 . S
C811 C810 1.457 . S
C811 C812 1.291 . S
C811 H824 0.931 . S
C812 C811 1.291 . S
C812 C813 1.373 . S
C812 H825 0.929 . S
C813 C812 1.373 . S
C813 C814 1.396 . S
C813 C820 1.403 . S
C814 C804 1.476 . S
C814 N809 1.318 . S
C814 C813 1.396 . S
H815 C810 0.929 . S
O816 Mn792 2.385 . S
O816 C794 1.234 . S
O817 Mn792 2.209 . S
O817 Mn793 2.215 . S
O817 C794 1.283 . S
O818 Mn792 2.094 . S
O818 C796 1.240 . S
O819 Mn793 2.117 . S
O819 C796 1.264 . S
C820 C813 1.403 . S
C820 C821 1.399 . S
C820 H826 0.929 . S
C821 C801 1.449 . S
C821 C820 1.399 . S
C821 H827 0.930 . S
H822 C802 0.931 . S
H823 C803 0.930 . S
H824 C811 0.931 . S
H825 C812 0.929 . S
H826 C820 0.929 . S
H827 C821 0.930 . S
Mn828 O833 2.095 . S
Mn828 O843 2.162 . S
Mn828 O844 2.297 . S
Mn828 O852 2.385 . S
Mn828 O853 2.209 . S
Mn828 O854 2.094 . S
Mn829 O834 2.121 . S
Mn829 N836 2.257 . S
Mn829 N845 2.282 . S
Mn829 O853 2.215 . S
Mn829 O855 2.117 . S
C830 O852 1.234 . S
C830 O853 1.283 . S
C831 O843 1.281 . S
C831 O844 1.236 . S
C832 O854 1.240 . S
C832 O855 1.264 . S
O833 Mn828 2.095 . S
O833 C842 1.250 . S
O834 Mn829 2.121 . S
O834 C842 1.258 . S
C835 N836 1.326 . S
C835 C839 1.460 . S
C835 H841 0.929 . S
N836 Mn829 2.257 . S
N836 C835 1.326 . S
N836 C840 1.362 . S
C837 C838 1.258 . S
C837 C840 1.431 . S
C837 C857 1.449 . S
C838 C837 1.258 . S
C838 C839 1.477 . S
C838 H858 0.931 . S
C839 C835 1.460 . S
C839 C838 1.477 . S
C839 H859 0.930 . S
C840 N836 1.362 . S
C840 C837 1.431 . S
C840 C850 1.476 . S
H841 C835 0.929 . S
C842 O833 1.250 . S
C842 O834 1.258 . S
O843 Mn828 2.162 . S
O843 C831 1.281 . S
O844 Mn828 2.297 . S
O844 C831 1.236 . S
N845 Mn829 2.282 . S
N845 C846 1.328 . S
N845 C850 1.318 . S
C846 N845 1.328 . S
C846 C847 1.457 . S
C846 H851 0.929 . S
C847 C846 1.457 . S
C847 C848 1.291 . S
C847 H860 0.931 . S
C848 C847 1.291 . S
C848 C849 1.373 . S
C848 H861 0.929 . S
C849 C848 1.373 . S
C849 C850 1.396 . S
C849 C856 1.403 . S
C850 C840 1.476 . S
C850 N845 1.318 . S
C850 C849 1.396 . S
H851 C846 0.929 . S
O852 Mn828 2.385 . S
O852 C830 1.234 . S
O853 Mn828 2.209 . S
O853 Mn829 2.215 . S
O853 C830 1.283 . S
O854 Mn828 2.094 . S
O854 C832 1.240 . S
O855 Mn829 2.117 . S
O855 C832 1.264 . S
C856 C849 1.403 . S
C856 C857 1.399 . S
C856 H862 0.929 . S
C857 C837 1.449 . S
C857 C856 1.399 . S
C857 H863 0.930 . S
H858 C838 0.931 . S
H859 C839 0.930 . S
H860 C847 0.931 . S
H861 C848 0.929 . S
H862 C856 0.929 . S
H863 C857 0.930 . S
Mn864 O869 2.095 . S
Mn864 O879 2.162 . S
Mn864 O880 2.297 . S
Mn864 O888 2.385 . S
Mn864 O889 2.209 . S
Mn864 O890 2.094 . S
Mn865 O870 2.121 . S
Mn865 N872 2.257 . S
Mn865 N881 2.282 . S
Mn865 O889 2.215 . S
Mn865 O891 2.117 . S
C866 O888 1.234 . S
C866 O889 1.283 . S
C867 O879 1.281 . S
C867 O880 1.236 . S
C868 O890 1.240 . S
C868 O891 1.264 . S
O869 Mn864 2.095 . S
O869 C878 1.250 . S
O870 Mn865 2.121 . S
O870 C878 1.258 . S
C871 N872 1.326 . S
C871 C875 1.460 . S
C871 H877 0.929 . S
N872 Mn865 2.257 . S
N872 C871 1.326 . S
N872 C876 1.362 . S
C873 C874 1.258 . S
C873 C876 1.431 . S
C873 C893 1.449 . S
C874 C873 1.258 . S
C874 C875 1.477 . S
C874 H894 0.931 . S
C875 C871 1.460 . S
C875 C874 1.477 . S
C875 H895 0.930 . S
C876 N872 1.362 . S
C876 C873 1.431 . S
C876 C886 1.476 . S
H877 C871 0.929 . S
C878 O869 1.250 . S
C878 O870 1.258 . S
O879 Mn864 2.162 . S
O879 C867 1.281 . S
O880 Mn864 2.297 . S
O880 C867 1.236 . S
N881 Mn865 2.282 . S
N881 C882 1.328 . S
N881 C886 1.318 . S
C882 N881 1.328 . S
C882 C883 1.457 . S
C882 H887 0.929 . S
C883 C882 1.457 . S
C883 C884 1.291 . S
C883 H896 0.931 . S
C884 C883 1.291 . S
C884 C885 1.373 . S
C884 H897 0.929 . S
C885 C884 1.373 . S
C885 C886 1.396 . S
C885 C892 1.403 . S
C886 C876 1.476 . S
C886 N881 1.318 . S
C886 C885 1.396 . S
H887 C882 0.929 . S
O888 Mn864 2.385 . S
O888 C866 1.234 . S
O889 Mn864 2.209 . S
O889 Mn865 2.215 . S
O889 C866 1.283 . S
O890 Mn864 2.094 . S
O890 C868 1.240 . S
O891 Mn865 2.117 . S
O891 C868 1.264 . S
C892 C885 1.403 . S
C892 C893 1.399 . S
C892 H898 0.929 . S
C893 C873 1.449 . S
C893 C892 1.399 . S
C893 H899 0.930 . S
H894 C874 0.931 . S
H895 C875 0.930 . S
H896 C883 0.931 . S
H897 C884 0.929 . S
H898 C892 0.929 . S
H899 C893 0.930 . S
Mn900 O905 2.095 . S
Mn900 O915 2.162 . S
Mn900 O916 2.297 . S
Mn900 O924 2.385 . S
Mn900 O925 2.209 . S
Mn900 O926 2.094 . S
Mn901 O906 2.121 . S
Mn901 N908 2.257 . S
Mn901 N917 2.282 . S
Mn901 O925 2.215 . S
Mn901 O927 2.117 . S
C902 O924 1.234 . S
C902 O925 1.283 . S
C903 O915 1.281 . S
C903 O916 1.236 . S
C904 O926 1.240 . S
C904 O927 1.264 . S
O905 Mn900 2.095 . S
O905 C914 1.250 . S
O906 Mn901 2.121 . S
O906 C914 1.258 . S
C907 N908 1.326 . S
C907 C911 1.460 . S
C907 H913 0.929 . S
N908 Mn901 2.257 . S
N908 C907 1.326 . S
N908 C912 1.362 . S
C909 C910 1.258 . S
C909 C912 1.431 . S
C909 C929 1.449 . S
C910 C909 1.258 . S
C910 C911 1.477 . S
C910 H930 0.931 . S
C911 C907 1.460 . S
C911 C910 1.477 . S
C911 H931 0.930 . S
C912 N908 1.362 . S
C912 C909 1.431 . S
C912 C922 1.476 . S
H913 C907 0.929 . S
C914 O905 1.250 . S
C914 O906 1.258 . S
O915 Mn900 2.162 . S
O915 C903 1.281 . S
O916 Mn900 2.297 . S
O916 C903 1.236 . S
N917 Mn901 2.282 . S
N917 C918 1.328 . S
N917 C922 1.318 . S
C918 N917 1.328 . S
C918 C919 1.457 . S
C918 H923 0.929 . S
C919 C918 1.457 . S
C919 C920 1.291 . S
C919 H932 0.931 . S
C920 C919 1.291 . S
C920 C921 1.373 . S
C920 H933 0.929 . S
C921 C920 1.373 . S
C921 C922 1.396 . S
C921 C928 1.403 . S
C922 C912 1.476 . S
C922 N917 1.318 . S
C922 C921 1.396 . S
H923 C918 0.929 . S
O924 Mn900 2.385 . S
O924 C902 1.234 . S
O925 Mn900 2.209 . S
O925 Mn901 2.215 . S
O925 C902 1.283 . S
O926 Mn900 2.094 . S
O926 C904 1.240 . S
O927 Mn901 2.117 . S
O927 C904 1.264 . S
C928 C921 1.403 . S
C928 C929 1.399 . S
C928 H934 0.929 . S
C929 C909 1.449 . S
C929 C928 1.399 . S
C929 H935 0.930 . S
H930 C910 0.931 . S
H931 C911 0.930 . S
H932 C919 0.931 . S
H933 C920 0.929 . S
H934 C928 0.929 . S
H935 C929 0.930 . S
Mn936 O941 2.095 . S
Mn936 O951 2.162 . S
Mn936 O952 2.297 . S
Mn936 O960 2.385 . S
Mn936 O961 2.209 . S
Mn936 O962 2.094 . S
Mn937 O942 2.121 . S
Mn937 N944 2.257 . S
Mn937 N953 2.282 . S
Mn937 O961 2.215 . S
Mn937 O963 2.117 . S
C938 O960 1.234 . S
C938 O961 1.283 . S
C939 O951 1.281 . S
C939 O952 1.236 . S
C940 O962 1.240 . S
C940 O963 1.264 . S
O941 Mn936 2.095 . S
O941 C950 1.250 . S
O942 Mn937 2.121 . S
O942 C950 1.258 . S
C943 N944 1.326 . S
C943 C947 1.460 . S
C943 H949 0.929 . S
N944 Mn937 2.257 . S
N944 C943 1.326 . S
N944 C948 1.362 . S
C945 C946 1.258 . S
C945 C948 1.431 . S
C945 C965 1.449 . S
C946 C945 1.258 . S
C946 C947 1.477 . S
C946 H966 0.931 . S
C947 C943 1.460 . S
C947 C946 1.477 . S
C947 H967 0.930 . S
C948 N944 1.362 . S
C948 C945 1.431 . S
C948 C958 1.476 . S
H949 C943 0.929 . S
C950 O941 1.250 . S
C950 O942 1.258 . S
O951 Mn936 2.162 . S
O951 C939 1.281 . S
O952 Mn936 2.297 . S
O952 C939 1.236 . S
N953 Mn937 2.282 . S
N953 C954 1.328 . S
N953 C958 1.318 . S
C954 N953 1.328 . S
C954 C955 1.457 . S
C954 H959 0.929 . S
C955 C954 1.457 . S
C955 C956 1.291 . S
C955 H968 0.931 . S
C956 C955 1.291 . S
C956 C957 1.373 . S
C956 H969 0.929 . S
C957 C956 1.373 . S
C957 C958 1.396 . S
C957 C964 1.403 . S
C958 C948 1.476 . S
C958 N953 1.318 . S
C958 C957 1.396 . S
H959 C954 0.929 . S
O960 Mn936 2.385 . S
O960 C938 1.234 . S
O961 Mn936 2.209 . S
O961 Mn937 2.215 . S
O961 C938 1.283 . S
O962 Mn936 2.094 . S
O962 C940 1.240 . S
O963 Mn937 2.117 . S
O963 C940 1.264 . S
C964 C957 1.403 . S
C964 C965 1.399 . S
C964 H970 0.929 . S
C965 C945 1.449 . S
C965 C964 1.399 . S
C965 H971 0.930 . S
H966 C946 0.931 . S
H967 C947 0.930 . S
H968 C955 0.931 . S
H969 C956 0.929 . S
H970 C964 0.929 . S
H971 C965 0.930 . S
Mn972 O977 2.095 . S
Mn972 O987 2.162 . S
Mn972 O988 2.297 . S
Mn972 O996 2.385 . S
Mn972 O997 2.209 . S
Mn972 O998 2.094 . S
Mn973 O978 2.121 . S
Mn973 N980 2.257 . S
Mn973 N989 2.282 . S
Mn973 O997 2.215 . S
Mn973 O999 2.117 . S
C974 O996 1.234 . S
C974 O997 1.283 . S
C975 O987 1.281 . S
C975 O988 1.236 . S
C976 O998 1.240 . S
C976 O999 1.264 . S
O977 Mn972 2.095 . S
O977 C986 1.250 . S
O978 Mn973 2.121 . S
O978 C986 1.258 . S
C979 N980 1.326 . S
C979 C983 1.460 . S
C979 H985 0.929 . S
N980 Mn973 2.257 . S
N980 C979 1.326 . S
N980 C984 1.362 . S
C981 C982 1.258 . S
C981 C984 1.431 . S
C981 C1001 1.449 . S
C982 C981 1.258 . S
C982 C983 1.477 . S
C982 H1002 0.931 . S
C983 C979 1.460 . S
C983 C982 1.477 . S
C983 H1003 0.930 . S
C984 N980 1.362 . S
C984 C981 1.431 . S
C984 C994 1.476 . S
H985 C979 0.929 . S
C986 O977 1.250 . S
C986 O978 1.258 . S
O987 Mn972 2.162 . S
O987 C975 1.281 . S
O988 Mn972 2.297 . S
O988 C975 1.236 . S
N989 Mn973 2.282 . S
N989 C990 1.328 . S
N989 C994 1.318 . S
C990 N989 1.328 . S
C990 C991 1.457 . S
C990 H995 0.929 . S
C991 C990 1.457 . S
C991 C992 1.291 . S
C991 H1004 0.931 . S
C992 C991 1.291 . S
C992 C993 1.373 . S
C992 H1005 0.929 . S
C993 C992 1.373 . S
C993 C994 1.396 . S
C993 C1000 1.403 . S
C994 C984 1.476 . S
C994 N989 1.318 . S
C994 C993 1.396 . S
H995 C990 0.929 . S
O996 Mn972 2.385 . S
O996 C974 1.234 . S
O997 Mn972 2.209 . S
O997 Mn973 2.215 . S
O997 C974 1.283 . S
O998 Mn972 2.094 . S
O998 C976 1.240 . S
O999 Mn973 2.117 . S
O999 C976 1.264 . S
C1000 C993 1.403 . S
C1000 C1001 1.399 . S
C1000 H1006 0.929 . S
C1001 C981 1.449 . S
C1001 C1000 1.399 . S
C1001 H1007 0.930 . S
H1002 C982 0.931 . S
H1003 C983 0.930 . S
H1004 C991 0.931 . S
H1005 C992 0.929 . S
H1006 C1000 0.929 . S
H1007 C1001 0.930 . S
Mn1008 O1013 2.095 . S
Mn1008 O1023 2.162 . S
Mn1008 O1024 2.297 . S
Mn1008 O1032 2.385 . S
Mn1008 O1033 2.209 . S
Mn1008 O1034 2.094 . S
Mn1009 O1014 2.121 . S
Mn1009 N1016 2.257 . S
Mn1009 N1025 2.282 . S
Mn1009 O1033 2.215 . S
Mn1009 O1035 2.117 . S
C1010 O1032 1.234 . S
C1010 O1033 1.283 . S
C1011 O1023 1.281 . S
C1011 O1024 1.236 . S
C1012 O1034 1.240 . S
C1012 O1035 1.264 . S
O1013 Mn1008 2.095 . S
O1013 C1022 1.250 . S
O1014 Mn1009 2.121 . S
O1014 C1022 1.258 . S
C1015 N1016 1.326 . S
C1015 C1019 1.460 . S
C1015 H1021 0.929 . S
N1016 Mn1009 2.257 . S
N1016 C1015 1.326 . S
N1016 C1020 1.362 . S
C1017 C1018 1.258 . S
C1017 C1020 1.431 . S
C1017 C1037 1.449 . S
C1018 C1017 1.258 . S
C1018 C1019 1.477 . S
C1018 H1038 0.931 . S
C1019 C1015 1.460 . S
C1019 C1018 1.477 . S
C1019 H1039 0.930 . S
C1020 N1016 1.362 . S
C1020 C1017 1.431 . S
C1020 C1030 1.476 . S
H1021 C1015 0.929 . S
C1022 O1013 1.250 . S
C1022 O1014 1.258 . S
O1023 Mn1008 2.162 . S
O1023 C1011 1.281 . S
O1024 Mn1008 2.297 . S
O1024 C1011 1.236 . S
N1025 Mn1009 2.282 . S
N1025 C1026 1.328 . S
N1025 C1030 1.318 . S
C1026 N1025 1.328 . S
C1026 C1027 1.457 . S
C1026 H1031 0.929 . S
C1027 C1026 1.457 . S
C1027 C1028 1.291 . S
C1027 H1040 0.931 . S
C1028 C1027 1.291 . S
C1028 C1029 1.373 . S
C1028 H1041 0.929 . S
C1029 C1028 1.373 . S
C1029 C1030 1.396 . S
C1029 C1036 1.403 . S
C1030 C1020 1.476 . S
C1030 N1025 1.318 . S
C1030 C1029 1.396 . S
H1031 C1026 0.929 . S
O1032 Mn1008 2.385 . S
O1032 C1010 1.234 . S
O1033 Mn1008 2.209 . S
O1033 Mn1009 2.215 . S
O1033 C1010 1.283 . S
O1034 Mn1008 2.094 . S
O1034 C1012 1.240 . S
O1035 Mn1009 2.117 . S
O1035 C1012 1.264 . S
C1036 C1029 1.403 . S
C1036 C1037 1.399 . S
C1036 H1042 0.929 . S
C1037 C1017 1.449 . S
C1037 C1036 1.399 . S
C1037 H1043 0.930 . S
H1038 C1018 0.931 . S
H1039 C1019 0.930 . S
H1040 C1027 0.931 . S
H1041 C1028 0.929 . S
H1042 C1036 0.929 . S
H1043 C1037 0.930 . S
Mn1044 O1049 2.095 . S
Mn1044 O1059 2.162 . S
Mn1044 O1060 2.297 . S
Mn1044 O1068 2.385 . S
Mn1044 O1069 2.209 . S
Mn1044 O1070 2.094 . S
Mn1045 O1050 2.121 . S
Mn1045 N1052 2.257 . S
Mn1045 N1061 2.282 . S
Mn1045 O1069 2.215 . S
Mn1045 O1071 2.117 . S
C1046 O1068 1.234 . S
C1046 O1069 1.283 . S
C1047 O1059 1.281 . S
C1047 O1060 1.236 . S
C1048 O1070 1.240 . S
C1048 O1071 1.264 . S
O1049 Mn1044 2.095 . S
O1049 C1058 1.250 . S
O1050 Mn1045 2.121 . S
O1050 C1058 1.258 . S
C1051 N1052 1.326 . S
C1051 C1055 1.460 . S
C1051 H1057 0.929 . S
N1052 Mn1045 2.257 . S
N1052 C1051 1.326 . S
N1052 C1056 1.362 . S
C1053 C1054 1.258 . S
C1053 C1056 1.431 . S
C1053 C1073 1.449 . S
C1054 C1053 1.258 . S
C1054 C1055 1.477 . S
C1054 H1074 0.931 . S
C1055 C1051 1.460 . S
C1055 C1054 1.477 . S
C1055 H1075 0.930 . S
C1056 N1052 1.362 . S
C1056 C1053 1.431 . S
C1056 C1066 1.476 . S
H1057 C1051 0.929 . S
C1058 O1049 1.250 . S
C1058 O1050 1.258 . S
O1059 Mn1044 2.162 . S
O1059 C1047 1.281 . S
O1060 Mn1044 2.297 . S
O1060 C1047 1.236 . S
N1061 Mn1045 2.282 . S
N1061 C1062 1.328 . S
N1061 C1066 1.318 . S
C1062 N1061 1.328 . S
C1062 C1063 1.457 . S
C1062 H1067 0.929 . S
C1063 C1062 1.457 . S
C1063 C1064 1.291 . S
C1063 H1076 0.931 . S
C1064 C1063 1.291 . S
C1064 C1065 1.373 . S
C1064 H1077 0.929 . S
C1065 C1064 1.373 . S
C1065 C1066 1.396 . S
C1065 C1072 1.403 . S
C1066 C1056 1.476 . S
C1066 N1061 1.318 . S
C1066 C1065 1.396 . S
H1067 C1062 0.929 . S
O1068 Mn1044 2.385 . S
O1068 C1046 1.234 . S
O1069 Mn1044 2.209 . S
O1069 Mn1045 2.215 . S
O1069 C1046 1.283 . S
O1070 Mn1044 2.094 . S
O1070 C1048 1.240 . S
O1071 Mn1045 2.117 . S
O1071 C1048 1.264 . S
C1072 C1065 1.403 . S
C1072 C1073 1.399 . S
C1072 H1078 0.929 . S
C1073 C1053 1.449 . S
C1073 C1072 1.399 . S
C1073 H1079 0.930 . S
H1074 C1054 0.931 . S
H1075 C1055 0.930 . S
H1076 C1063 0.931 . S
H1077 C1064 0.929 . S
H1078 C1072 0.929 . S
H1079 C1073 0.930 . S
Mn1080 O1085 2.095 . S
Mn1080 O1095 2.162 . S
Mn1080 O1096 2.297 . S
Mn1080 O1104 2.385 . S
Mn1080 O1105 2.209 . S
Mn1080 O1106 2.094 . S
Mn1081 O1086 2.121 . S
Mn1081 N1088 2.257 . S
Mn1081 N1097 2.282 . S
Mn1081 O1105 2.215 . S
Mn1081 O1107 2.117 . S
C1082 O1104 1.234 . S
C1082 O1105 1.283 . S
C1083 O1095 1.281 . S
C1083 O1096 1.236 . S
C1084 O1106 1.240 . S
C1084 O1107 1.264 . S
O1085 Mn1080 2.095 . S
O1085 C1094 1.250 . S
O1086 Mn1081 2.121 . S
O1086 C1094 1.258 . S
C1087 N1088 1.326 . S
C1087 C1091 1.460 . S
C1087 H1093 0.929 . S
N1088 Mn1081 2.257 . S
N1088 C1087 1.326 . S
N1088 C1092 1.362 . S
C1089 C1090 1.258 . S
C1089 C1092 1.431 . S
C1089 C1109 1.449 . S
C1090 C1089 1.258 . S
C1090 C1091 1.477 . S
C1090 H1110 0.931 . S
C1091 C1087 1.460 . S
C1091 C1090 1.477 . S
C1091 H1111 0.930 . S
C1092 N1088 1.362 . S
C1092 C1089 1.431 . S
C1092 C1102 1.476 . S
H1093 C1087 0.929 . S
C1094 O1085 1.250 . S
C1094 O1086 1.258 . S
O1095 Mn1080 2.162 . S
O1095 C1083 1.281 . S
O1096 Mn1080 2.297 . S
O1096 C1083 1.236 . S
N1097 Mn1081 2.282 . S
N1097 C1098 1.328 . S
N1097 C1102 1.318 . S
C1098 N1097 1.328 . S
C1098 C1099 1.457 . S
C1098 H1103 0.929 . S
C1099 C1098 1.457 . S
C1099 C1100 1.291 . S
C1099 H1112 0.931 . S
C1100 C1099 1.291 . S
C1100 C1101 1.373 . S
C1100 H1113 0.929 . S
C1101 C1100 1.373 . S
C1101 C1102 1.396 . S
C1101 C1108 1.403 . S
C1102 C1092 1.476 . S
C1102 N1097 1.318 . S
C1102 C1101 1.396 . S
H1103 C1098 0.929 . S
O1104 Mn1080 2.385 . S
O1104 C1082 1.234 . S
O1105 Mn1080 2.209 . S
O1105 Mn1081 2.215 . S
O1105 C1082 1.283 . S
O1106 Mn1080 2.094 . S
O1106 C1084 1.240 . S
O1107 Mn1081 2.117 . S
O1107 C1084 1.264 . S
C1108 C1101 1.403 . S
C1108 C1109 1.399 . S
C1108 H1114 0.929 . S
C1109 C1089 1.449 . S
C1109 C1108 1.399 . S
C1109 H1115 0.930 . S
H1110 C1090 0.931 . S
H1111 C1091 0.930 . S
H1112 C1099 0.931 . S
H1113 C1100 0.929 . S
H1114 C1108 0.929 . S
H1115 C1109 0.930 . S
Mn1116 O1121 2.095 . S
Mn1116 O1131 2.162 . S
Mn1116 O1132 2.297 . S
Mn1116 O1140 2.385 . S
Mn1116 O1141 2.209 . S
Mn1116 O1142 2.094 . S
Mn1117 O1122 2.121 . S
Mn1117 N1124 2.257 . S
Mn1117 N1133 2.282 . S
Mn1117 O1141 2.215 . S
Mn1117 O1143 2.117 . S
C1118 O1140 1.234 . S
C1118 O1141 1.283 . S
C1119 O1131 1.281 . S
C1119 O1132 1.236 . S
C1120 O1142 1.240 . S
C1120 O1143 1.264 . S
O1121 Mn1116 2.095 . S
O1121 C1130 1.250 . S
O1122 Mn1117 2.121 . S
O1122 C1130 1.258 . S
C1123 N1124 1.326 . S
C1123 C1127 1.460 . S
C1123 H1129 0.929 . S
N1124 Mn1117 2.257 . S
N1124 C1123 1.326 . S
N1124 C1128 1.362 . S
C1125 C1126 1.258 . S
C1125 C1128 1.431 . S
C1125 C1145 1.449 . S
C1126 C1125 1.258 . S
C1126 C1127 1.477 . S
C1126 H1146 0.931 . S
C1127 C1123 1.460 . S
C1127 C1126 1.477 . S
C1127 H1147 0.930 . S
C1128 N1124 1.362 . S
C1128 C1125 1.431 . S
C1128 C1138 1.476 . S
H1129 C1123 0.929 . S
C1130 O1121 1.250 . S
C1130 O1122 1.258 . S
O1131 Mn1116 2.162 . S
O1131 C1119 1.281 . S
O1132 Mn1116 2.297 . S
O1132 C1119 1.236 . S
N1133 Mn1117 2.282 . S
N1133 C1134 1.328 . S
N1133 C1138 1.318 . S
C1134 N1133 1.328 . S
C1134 C1135 1.457 . S
C1134 H1139 0.929 . S
C1135 C1134 1.457 . S
C1135 C1136 1.291 . S
C1135 H1148 0.931 . S
C1136 C1135 1.291 . S
C1136 C1137 1.373 . S
C1136 H1149 0.929 . S
C1137 C1136 1.373 . S
C1137 C1138 1.396 . S
C1137 C1144 1.403 . S
C1138 C1128 1.476 . S
C1138 N1133 1.318 . S
C1138 C1137 1.396 . S
H1139 C1134 0.929 . S
O1140 Mn1116 2.385 . S
O1140 C1118 1.234 . S
O1141 Mn1116 2.209 . S
O1141 Mn1117 2.215 . S
O1141 C1118 1.283 . S
O1142 Mn1116 2.094 . S
O1142 C1120 1.240 . S
O1143 Mn1117 2.117 . S
O1143 C1120 1.264 . S
C1144 C1137 1.403 . S
C1144 C1145 1.399 . S
C1144 H1150 0.929 . S
C1145 C1125 1.449 . S
C1145 C1144 1.399 . S
C1145 H1151 0.930 . S
H1146 C1126 0.931 . S
H1147 C1127 0.930 . S
H1148 C1135 0.931 . S
H1149 C1136 0.929 . S
H1150 C1144 0.929 . S
H1151 C1145 0.930 . S
C1152 C1153 1.369 . S
C1152 C1154 1.419 . S
C1152 H1156 0.930 . S
C1153 C1152 1.369 . S
C1153 C1162 1.429 . S
C1154 C1152 1.419 . S
C1154 C1155 1.363 . S
C1154 H1157 0.929 . S
C1155 C1154 1.363 . S
C1155 C1161 1.428 . S
H1156 C1152 0.930 . S
H1157 C1154 0.929 . S
S1158 N1159 1.613 . S
S1158 N1160 1.610 . S
N1159 S1158 1.613 . S
N1159 C1162 1.350 . S
N1160 S1158 1.610 . S
N1160 C1161 1.351 . S
C1161 C1155 1.428 . S
C1161 N1160 1.351 . S
C1161 C1162 1.434 . S
C1162 C1153 1.429 . S
C1162 N1159 1.350 . S
C1162 C1161 1.434 . S
C1163 C1164 1.369 . S
C1163 C1165 1.419 . S
C1163 H1167 0.930 . S
C1164 C1163 1.369 . S
C1164 C1173 1.429 . S
C1165 C1163 1.419 . S
C1165 C1166 1.363 . S
C1165 H1168 0.929 . S
C1166 C1165 1.363 . S
C1166 C1172 1.428 . S
H1167 C1163 0.930 . S
H1168 C1165 0.929 . S
S1169 N1170 1.613 . S
S1169 N1171 1.610 . S
N1170 S1169 1.613 . S
N1170 C1173 1.350 . S
N1171 S1169 1.610 . S
N1171 C1172 1.351 . S
C1172 C1166 1.428 . S
C1172 N1171 1.351 . S
C1172 C1173 1.434 . S
C1173 C1164 1.429 . S
C1173 N1170 1.350 . S
C1173 C1172 1.434 . S
C1174 C1175 1.369 . S
C1174 C1176 1.419 . S
C1174 H1178 0.930 . S
C1175 C1174 1.369 . S
C1175 C1184 1.429 . S
C1176 C1174 1.419 . S
C1176 C1177 1.363 . S
C1176 H1179 0.929 . S
C1177 C1176 1.363 . S
C1177 C1183 1.428 . S
H1178 C1174 0.930 . S
H1179 C1176 0.929 . S
S1180 N1181 1.613 . S
S1180 N1182 1.610 . S
N1181 S1180 1.613 . S
N1181 C1184 1.350 . S
N1182 S1180 1.610 . S
N1182 C1183 1.351 . S
C1183 C1177 1.428 . S
C1183 N1182 1.351 . S
C1183 C1184 1.434 . S
C1184 C1175 1.429 . S
C1184 N1181 1.350 . S
C1184 C1183 1.434 . S
C1185 C1186 1.369 . S
C1185 C1187 1.419 . S
C1185 H1189 0.930 . S
C1186 C1185 1.369 . S
C1186 C1195 1.429 . S
C1187 C1185 1.419 . S
C1187 C1188 1.363 . S
C1187 H1190 0.929 . S
C1188 C1187 1.363 . S
C1188 C1194 1.428 . S
H1189 C1185 0.930 . S
H1190 C1187 0.929 . S
S1191 N1192 1.613 . S
S1191 N1193 1.610 . S
N1192 S1191 1.613 . S
N1192 C1195 1.350 . S
N1193 S1191 1.610 . S
N1193 C1194 1.351 . S
C1194 C1188 1.428 . S
C1194 N1193 1.351 . S
C1194 C1195 1.434 . S
C1195 C1186 1.429 . S
C1195 N1192 1.350 . S
C1195 C1194 1.434 . S
C1196 C1197 1.369 . S
C1196 C1198 1.419 . S
C1196 H1200 0.930 . S
C1197 C1196 1.369 . S
C1197 C1206 1.429 . S
C1198 C1196 1.419 . S
C1198 C1199 1.363 . S
C1198 H1201 0.929 . S
C1199 C1198 1.363 . S
C1199 C1205 1.428 . S
H1200 C1196 0.930 . S
H1201 C1198 0.929 . S
S1202 N1203 1.613 . S
S1202 N1204 1.610 . S
N1203 S1202 1.613 . S
N1203 C1206 1.350 . S
N1204 S1202 1.610 . S
N1204 C1205 1.351 . S
C1205 C1199 1.428 . S
C1205 N1204 1.351 . S
C1205 C1206 1.434 . S
C1206 C1197 1.429 . S
C1206 N1203 1.350 . S
C1206 C1205 1.434 . S
C1207 C1208 1.369 . S
C1207 C1209 1.419 . S
C1207 H1211 0.930 . S
C1208 C1207 1.369 . S
C1208 C1217 1.429 . S
C1209 C1207 1.419 . S
C1209 C1210 1.363 . S
C1209 H1212 0.929 . S
C1210 C1209 1.363 . S
C1210 C1216 1.428 . S
H1211 C1207 0.930 . S
H1212 C1209 0.929 . S
S1213 N1214 1.613 . S
S1213 N1215 1.610 . S
N1214 S1213 1.613 . S
N1214 C1217 1.350 . S
N1215 S1213 1.610 . S
N1215 C1216 1.351 . S
C1216 C1210 1.428 . S
C1216 N1215 1.351 . S
C1216 C1217 1.434 . S
C1217 C1208 1.429 . S
C1217 N1214 1.350 . S
C1217 C1216 1.434 . S
C1218 C1219 1.369 . S
C1218 C1220 1.419 . S
C1218 H1222 0.930 . S
C1219 C1218 1.369 . S
C1219 C1228 1.429 . S
C1220 C1218 1.419 . S
C1220 C1221 1.363 . S
C1220 H1223 0.929 . S
C1221 C1220 1.363 . S
C1221 C1227 1.428 . S
H1222 C1218 0.930 . S
H1223 C1220 0.929 . S
S1224 N1225 1.613 . S
S1224 N1226 1.610 . S
N1225 S1224 1.613 . S
N1225 C1228 1.350 . S
N1226 S1224 1.610 . S
N1226 C1227 1.351 . S
C1227 C1221 1.428 . S
C1227 N1226 1.351 . S
C1227 C1228 1.434 . S
C1228 C1219 1.429 . S
C1228 N1225 1.350 . S
C1228 C1227 1.434 . S
C1229 C1230 1.369 . S
C1229 C1231 1.419 . S
C1229 H1233 0.930 . S
C1230 C1229 1.369 . S
C1230 C1239 1.429 . S
C1231 C1229 1.419 . S
C1231 C1232 1.363 . S
C1231 H1234 0.929 . S
C1232 C1231 1.363 . S
C1232 C1238 1.428 . S
H1233 C1229 0.930 . S
H1234 C1231 0.929 . S
S1235 N1236 1.613 . S
S1235 N1237 1.610 . S
N1236 S1235 1.613 . S
N1236 C1239 1.350 . S
N1237 S1235 1.610 . S
N1237 C1238 1.351 . S
C1238 C1232 1.428 . S
C1238 N1237 1.351 . S
C1238 C1239 1.434 . S
C1239 C1230 1.429 . S
C1239 N1236 1.350 . S
C1239 C1238 1.434 . S
C1240 C1241 1.369 . S
C1240 C1242 1.419 . S
C1240 H1244 0.930 . S
C1241 C1240 1.369 . S
C1241 C1250 1.429 . S
C1242 C1240 1.419 . S
C1242 C1243 1.363 . S
C1242 H1245 0.929 . S
C1243 C1242 1.363 . S
C1243 C1249 1.428 . S
H1244 C1240 0.930 . S
H1245 C1242 0.929 . S
S1246 N1247 1.613 . S
S1246 N1248 1.610 . S
N1247 S1246 1.613 . S
N1247 C1250 1.350 . S
N1248 S1246 1.610 . S
N1248 C1249 1.351 . S
C1249 C1243 1.428 . S
C1249 N1248 1.351 . S
C1249 C1250 1.434 . S
C1250 C1241 1.429 . S
C1250 N1247 1.350 . S
C1250 C1249 1.434 . S
C1251 C1252 1.369 . S
C1251 C1253 1.419 . S
C1251 H1255 0.930 . S
C1252 C1251 1.369 . S
C1252 C1261 1.429 . S
C1253 C1251 1.419 . S
C1253 C1254 1.363 . S
C1253 H1256 0.929 . S
C1254 C1253 1.363 . S
C1254 C1260 1.428 . S
H1255 C1251 0.930 . S
H1256 C1253 0.929 . S
S1257 N1258 1.613 . S
S1257 N1259 1.610 . S
N1258 S1257 1.613 . S
N1258 C1261 1.350 . S
N1259 S1257 1.610 . S
N1259 C1260 1.351 . S
C1260 C1254 1.428 . S
C1260 N1259 1.351 . S
C1260 C1261 1.434 . S
C1261 C1252 1.429 . S
C1261 N1258 1.350 . S
C1261 C1260 1.434 . S
C1262 C1263 1.369 . S
C1262 C1264 1.419 . S
C1262 H1266 0.930 . S
C1263 C1262 1.369 . S
C1263 C1272 1.429 . S
C1264 C1262 1.419 . S
C1264 C1265 1.363 . S
C1264 H1267 0.929 . S
C1265 C1264 1.363 . S
C1265 C1271 1.428 . S
H1266 C1262 0.930 . S
H1267 C1264 0.929 . S
S1268 N1269 1.613 . S
S1268 N1270 1.610 . S
N1269 S1268 1.613 . S
N1269 C1272 1.350 . S
N1270 S1268 1.610 . S
N1270 C1271 1.351 . S
C1271 C1265 1.428 . S
C1271 N1270 1.351 . S
C1271 C1272 1.434 . S
C1272 C1263 1.429 . S
C1272 N1269 1.350 . S
C1272 C1271 1.434 . S
C1273 C1274 1.369 . S
C1273 C1275 1.419 . S
C1273 H1277 0.930 . S
C1274 C1273 1.369 . S
C1274 C1283 1.429 . S
C1275 C1273 1.419 . S
C1275 C1276 1.363 . S
C1275 H1278 0.929 . S
C1276 C1275 1.363 . S
C1276 C1282 1.428 . S
H1277 C1273 0.930 . S
H1278 C1275 0.929 . S
S1279 N1280 1.613 . S
S1279 N1281 1.610 . S
N1280 S1279 1.613 . S
N1280 C1283 1.350 . S
N1281 S1279 1.610 . S
N1281 C1282 1.351 . S
C1282 C1276 1.428 . S
C1282 N1281 1.351 . S
C1282 C1283 1.434 . S
C1283 C1274 1.429 . S
C1283 N1280 1.350 . S
C1283 C1282 1.434 . S
C1284 C1285 1.369 . S
C1284 C1286 1.419 . S
C1284 H1288 0.930 . S
C1285 C1284 1.369 . S
C1285 C1294 1.429 . S
C1286 C1284 1.419 . S
C1286 C1287 1.363 . S
C1286 H1289 0.929 . S
C1287 C1286 1.363 . S
C1287 C1293 1.428 . S
H1288 C1284 0.930 . S
H1289 C1286 0.929 . S
S1290 N1291 1.613 . S
S1290 N1292 1.610 . S
N1291 S1290 1.613 . S
N1291 C1294 1.350 . S
N1292 S1290 1.610 . S
N1292 C1293 1.351 . S
C1293 C1287 1.428 . S
C1293 N1292 1.351 . S
C1293 C1294 1.434 . S
C1294 C1285 1.429 . S
C1294 N1291 1.350 . S
C1294 C1293 1.434 . S
C1295 C1296 1.369 . S
C1295 C1297 1.419 . S
C1295 H1299 0.930 . S
C1296 C1295 1.369 . S
C1296 C1305 1.429 . S
C1297 C1295 1.419 . S
C1297 C1298 1.363 . S
C1297 H1300 0.929 . S
C1298 C1297 1.363 . S
C1298 C1304 1.428 . S
H1299 C1295 0.930 . S
H1300 C1297 0.929 . S
S1301 N1302 1.613 . S
S1301 N1303 1.610 . S
N1302 S1301 1.613 . S
N1302 C1305 1.350 . S
N1303 S1301 1.610 . S
N1303 C1304 1.351 . S
C1304 C1298 1.428 . S
C1304 N1303 1.351 . S
C1304 C1305 1.434 . S
C1305 C1296 1.429 . S
C1305 N1302 1.350 . S
C1305 C1304 1.434 . S
C1306 C1307 1.369 . S
C1306 C1308 1.419 . S
C1306 H1310 0.930 . S
C1307 C1306 1.369 . S
C1307 C1316 1.429 . S
C1308 C1306 1.419 . S
C1308 C1309 1.363 . S
C1308 H1311 0.929 . S
C1309 C1308 1.363 . S
C1309 C1315 1.428 . S
H1310 C1306 0.930 . S
H1311 C1308 0.929 . S
S1312 N1313 1.613 . S
S1312 N1314 1.610 . S
N1313 S1312 1.613 . S
N1313 C1316 1.350 . S
N1314 S1312 1.610 . S
N1314 C1315 1.351 . S
C1315 C1309 1.428 . S
C1315 N1314 1.351 . S
C1315 C1316 1.434 . S
C1316 C1307 1.429 . S
C1316 N1313 1.350 . S
C1316 C1315 1.434 . S
C1317 C1318 1.369 . S
C1317 C1319 1.419 . S
C1317 H1321 0.930 . S
C1318 C1317 1.369 . S
C1318 C1327 1.429 . S
C1319 C1317 1.419 . S
C1319 C1320 1.363 . S
C1319 H1322 0.929 . S
C1320 C1319 1.363 . S
C1320 C1326 1.428 . S
H1321 C1317 0.930 . S
H1322 C1319 0.929 . S
S1323 N1324 1.613 . S
S1323 N1325 1.610 . S
N1324 S1323 1.613 . S
N1324 C1327 1.350 . S
N1325 S1323 1.610 . S
N1325 C1326 1.351 . S
C1326 C1320 1.428 . S
C1326 N1325 1.351 . S
C1326 C1327 1.434 . S
C1327 C1318 1.429 . S
C1327 N1324 1.350 . S
C1327 C1326 1.434 . S
C1328 C1329 1.369 . S
C1328 C1330 1.419 1_554 S
C1328 H1332 0.930 . S
C1329 C1328 1.369 . S
C1329 C1338 1.429 . S
C1330 C1328 1.419 1_556 S
C1330 C1331 1.363 . S
C1330 H1333 0.929 . S
C1331 C1330 1.363 . S
C1331 C1337 1.428 . S
H1332 C1328 0.930 . S
H1333 C1330 0.929 . S
S1334 N1335 1.615 1_556 S
S1334 N1336 1.609 . S
N1335 S1334 1.615 1_554 S
N1335 C1338 1.350 . S
N1336 S1334 1.609 . S
N1336 C1337 1.351 . S
C1337 C1331 1.428 . S
C1337 N1336 1.351 . S
C1337 C1338 1.434 1_556 S
C1338 C1329 1.429 . S
C1338 N1335 1.350 . S
C1338 C1337 1.434 1_554 S
C1339 C1340 1.369 . S
C1339 C1341 1.419 1_556 S
C1339 H1343 0.930 . S
C1340 C1339 1.369 . S
C1340 C1349 1.429 . S
C1341 C1339 1.419 1_554 S
C1341 C1342 1.363 . S
C1341 H1344 0.929 . S
C1342 C1341 1.363 . S
C1342 C1348 1.428 . S
H1343 C1339 0.930 . S
H1344 C1341 0.929 . S
S1345 N1346 1.615 1_554 S
S1345 N1347 1.609 . S
N1346 S1345 1.615 1_556 S
N1346 C1349 1.350 . S
N1347 S1345 1.609 . S
N1347 C1348 1.351 . S
C1348 C1342 1.428 . S
C1348 N1347 1.351 . S
C1348 C1349 1.434 1_554 S
C1349 C1340 1.429 . S
C1349 N1346 1.350 . S
C1349 C1348 1.434 1_556 S
C1350 C1351 1.369 . S
C1350 C1352 1.419 1_556 S
C1350 H1354 0.930 . S
C1351 C1350 1.369 . S
C1351 C1360 1.429 . S
C1352 C1350 1.419 1_554 S
C1352 C1353 1.363 . S
C1352 H1355 0.929 . S
C1353 C1352 1.363 . S
C1353 C1359 1.428 . S
H1354 C1350 0.930 . S
H1355 C1352 0.929 . S
S1356 N1357 1.615 1_554 S
S1356 N1358 1.609 . S
N1357 S1356 1.615 1_556 S
N1357 C1360 1.350 . S
N1358 S1356 1.609 . S
N1358 C1359 1.351 . S
C1359 C1353 1.428 . S
C1359 N1358 1.351 . S
C1359 C1360 1.434 1_554 S
C1360 C1351 1.429 . S
C1360 N1357 1.350 . S
C1360 C1359 1.434 1_556 S
C1361 C1362 1.369 . S
C1361 C1363 1.419 1_556 S
C1361 H1365 0.930 . S
C1362 C1361 1.369 . S
C1362 C1371 1.429 . S
C1363 C1361 1.419 1_554 S
C1363 C1364 1.363 . S
C1363 H1366 0.929 . S
C1364 C1363 1.363 . S
C1364 C1370 1.428 . S
H1365 C1361 0.930 . S
H1366 C1363 0.929 . S
S1367 N1368 1.615 1_554 S
S1367 N1369 1.609 . S
N1368 S1367 1.615 1_556 S
N1368 C1371 1.350 . S
N1369 S1367 1.609 . S
N1369 C1370 1.351 . S
C1370 C1364 1.428 . S
C1370 N1369 1.351 . S
C1370 C1371 1.434 1_554 S
C1371 C1362 1.429 . S
C1371 N1368 1.350 . S
C1371 C1370 1.434 1_556 S
C1372 C1373 1.369 . S
C1372 C1374 1.419 . S
C1372 H1376 0.930 . S
C1373 C1372 1.369 . S
C1373 C1382 1.429 . S
C1374 C1372 1.419 . S
C1374 C1375 1.363 . S
C1374 H1377 0.929 . S
C1375 C1374 1.363 . S
C1375 C1381 1.428 . S
H1376 C1372 0.930 . S
H1377 C1374 0.929 . S
S1378 N1379 1.613 . S
S1378 N1380 1.610 . S
N1379 S1378 1.613 . S
N1379 C1382 1.350 . S
N1380 S1378 1.610 . S
N1380 C1381 1.351 . S
C1381 C1375 1.428 . S
C1381 N1380 1.351 . S
C1381 C1382 1.434 . S
C1382 C1373 1.429 . S
C1382 N1379 1.350 . S
C1382 C1381 1.434 . S
C1383 C1384 1.369 . S
C1383 C1385 1.419 . S
C1383 H1387 0.930 . S
C1384 C1383 1.369 . S
C1384 C1393 1.429 . S
C1385 C1383 1.419 . S
C1385 C1386 1.363 . S
C1385 H1388 0.929 . S
C1386 C1385 1.363 . S
C1386 C1392 1.428 . S
H1387 C1383 0.930 . S
H1388 C1385 0.929 . S
S1389 N1390 1.613 . S
S1389 N1391 1.610 . S
N1390 S1389 1.613 . S
N1390 C1393 1.350 . S
N1391 S1389 1.610 . S
N1391 C1392 1.351 . S
C1392 C1386 1.428 . S
C1392 N1391 1.351 . S
C1392 C1393 1.434 . S
C1393 C1384 1.429 . S
C1393 N1390 1.350 . S
C1393 C1392 1.434 . S
C1394 C1395 1.369 . S
C1394 C1396 1.419 . S
C1394 H1398 0.930 . S
C1395 C1394 1.369 . S
C1395 C1404 1.429 . S
C1396 C1394 1.419 . S
C1396 C1397 1.363 . S
C1396 H1399 0.929 . S
C1397 C1396 1.363 . S
C1397 C1403 1.428 . S
H1398 C1394 0.930 . S
H1399 C1396 0.929 . S
S1400 N1401 1.613 . S
S1400 N1402 1.610 . S
N1401 S1400 1.613 . S
N1401 C1404 1.350 . S
N1402 S1400 1.610 . S
N1402 C1403 1.351 . S
C1403 C1397 1.428 . S
C1403 N1402 1.351 . S
C1403 C1404 1.434 . S
C1404 C1395 1.429 . S
C1404 N1401 1.350 . S
C1404 C1403 1.434 . S
C1405 C1406 1.369 . S
C1405 C1407 1.419 . S
C1405 H1409 0.930 . S
C1406 C1405 1.369 . S
C1406 C1415 1.429 . S
C1407 C1405 1.419 . S
C1407 C1408 1.363 . S
C1407 H1410 0.929 . S
C1408 C1407 1.363 . S
C1408 C1414 1.428 . S
H1409 C1405 0.930 . S
H1410 C1407 0.929 . S
S1411 N1412 1.613 . S
S1411 N1413 1.610 . S
N1412 S1411 1.613 . S
N1412 C1415 1.350 . S
N1413 S1411 1.610 . S
N1413 C1414 1.351 . S
C1414 C1408 1.428 . S
C1414 N1413 1.351 . S
C1414 C1415 1.434 . S
C1415 C1406 1.429 . S
C1415 N1412 1.350 . S
C1415 C1414 1.434 . S
C1416 C1417 1.369 . S
C1416 C1418 1.419 . S
C1416 H1420 0.930 . S
C1417 C1416 1.369 . S
C1417 C1426 1.429 . S
C1418 C1416 1.419 . S
C1418 C1419 1.363 . S
C1418 H1421 0.929 . S
C1419 C1418 1.363 . S
C1419 C1425 1.428 . S
H1420 C1416 0.930 . S
H1421 C1418 0.929 . S
S1422 N1423 1.613 . S
S1422 N1424 1.610 . S
N1423 S1422 1.613 . S
N1423 C1426 1.350 . S
N1424 S1422 1.610 . S
N1424 C1425 1.351 . S
C1425 C1419 1.428 . S
C1425 N1424 1.351 . S
C1425 C1426 1.434 . S
C1426 C1417 1.429 . S
C1426 N1423 1.350 . S
C1426 C1425 1.434 . S
C1427 C1428 1.369 . S
C1427 C1429 1.419 . S
C1427 H1431 0.930 . S
C1428 C1427 1.369 . S
C1428 C1437 1.429 . S
C1429 C1427 1.419 . S
C1429 C1430 1.363 . S
C1429 H1432 0.929 . S
C1430 C1429 1.363 . S
C1430 C1436 1.428 . S
H1431 C1427 0.930 . S
H1432 C1429 0.929 . S
S1433 N1434 1.613 . S
S1433 N1435 1.610 . S
N1434 S1433 1.613 . S
N1434 C1437 1.350 . S
N1435 S1433 1.610 . S
N1435 C1436 1.351 . S
C1436 C1430 1.428 . S
C1436 N1435 1.351 . S
C1436 C1437 1.434 . S
C1437 C1428 1.429 . S
C1437 N1434 1.350 . S
C1437 C1436 1.434 . S
C1438 C1439 1.369 . S
C1438 C1440 1.419 . S
C1438 H1442 0.930 . S
C1439 C1438 1.369 . S
C1439 C1448 1.429 . S
C1440 C1438 1.419 . S
C1440 C1441 1.363 . S
C1440 H1443 0.929 . S
C1441 C1440 1.363 . S
C1441 C1447 1.428 . S
H1442 C1438 0.930 . S
H1443 C1440 0.929 . S
S1444 N1445 1.613 . S
S1444 N1446 1.610 . S
N1445 S1444 1.613 . S
N1445 C1448 1.350 . S
N1446 S1444 1.610 . S
N1446 C1447 1.351 . S
C1447 C1441 1.428 . S
C1447 N1446 1.351 . S
C1447 C1448 1.434 . S
C1448 C1439 1.429 . S
C1448 N1445 1.350 . S
C1448 C1447 1.434 . S
C1449 C1450 1.369 . S
C1449 C1451 1.419 . S
C1449 H1453 0.930 . S
C1450 C1449 1.369 . S
C1450 C1459 1.429 . S
C1451 C1449 1.419 . S
C1451 C1452 1.363 . S
C1451 H1454 0.929 . S
C1452 C1451 1.363 . S
C1452 C1458 1.428 . S
H1453 C1449 0.930 . S
H1454 C1451 0.929 . S
S1455 N1456 1.613 . S
S1455 N1457 1.610 . S
N1456 S1455 1.613 . S
N1456 C1459 1.350 . S
N1457 S1455 1.610 . S
N1457 C1458 1.351 . S
C1458 C1452 1.428 . S
C1458 N1457 1.351 . S
C1458 C1459 1.434 . S
C1459 C1450 1.429 . S
C1459 N1456 1.350 . S
C1459 C1458 1.434 . S
C1460 C1461 1.369 . S
C1460 C1462 1.419 1_556 S
C1460 H1464 0.930 . S
C1461 C1460 1.369 . S
C1461 C1470 1.429 . S
C1462 C1460 1.419 1_554 S
C1462 C1463 1.363 . S
C1462 H1465 0.929 . S
C1463 C1462 1.363 . S
C1463 C1469 1.428 . S
H1464 C1460 0.930 . S
H1465 C1462 0.929 . S
S1466 N1467 1.615 1_554 S
S1466 N1468 1.609 . S
N1467 S1466 1.615 1_556 S
N1467 C1470 1.350 . S
N1468 S1466 1.609 . S
N1468 C1469 1.351 . S
C1469 C1463 1.428 . S
C1469 N1468 1.351 . S
C1469 C1470 1.434 1_554 S
C1470 C1461 1.429 . S
C1470 N1467 1.350 . S
C1470 C1469 1.434 1_556 S
C1471 C1472 1.369 . S
C1471 C1473 1.419 1_554 S
C1471 H1475 0.930 . S
C1472 C1471 1.369 . S
C1472 C1481 1.429 . S
C1473 C1471 1.419 1_556 S
C1473 C1474 1.363 . S
C1473 H1476 0.929 . S
C1474 C1473 1.363 . S
C1474 C1480 1.428 . S
H1475 C1471 0.930 . S
H1476 C1473 0.929 . S
S1477 N1478 1.615 1_556 S
S1477 N1479 1.609 . S
N1478 S1477 1.615 1_554 S
N1478 C1481 1.350 . S
N1479 S1477 1.609 . S
N1479 C1480 1.351 . S
C1480 C1474 1.428 . S
C1480 N1479 1.351 . S
C1480 C1481 1.434 1_556 S
C1481 C1472 1.429 . S
C1481 N1478 1.350 . S
C1481 C1480 1.434 1_554 S
C1482 C1483 1.369 . S
C1482 C1484 1.419 1_554 S
C1482 H1486 0.930 . S
C1483 C1482 1.369 . S
C1483 C1492 1.429 . S
C1484 C1482 1.419 1_556 S
C1484 C1485 1.363 . S
C1484 H1487 0.929 . S
C1485 C1484 1.363 . S
C1485 C1491 1.428 . S
H1486 C1482 0.930 . S
H1487 C1484 0.929 . S
S1488 N1489 1.615 1_556 S
S1488 N1490 1.609 . S
N1489 S1488 1.615 1_554 S
N1489 C1492 1.350 . S
N1490 S1488 1.609 . S
N1490 C1491 1.351 . S
C1491 C1485 1.428 . S
C1491 N1490 1.351 . S
C1491 C1492 1.434 1_556 S
C1492 C1483 1.429 . S
C1492 N1489 1.350 . S
C1492 C1491 1.434 1_554 S
C1493 C1494 1.369 . S
C1493 C1495 1.419 1_556 S
C1493 H1497 0.930 . S
C1494 C1493 1.369 . S
C1494 C1503 1.429 . S
C1495 C1493 1.419 1_554 S
C1495 C1496 1.363 . S
C1495 H1498 0.929 . S
C1496 C1495 1.363 . S
C1496 C1502 1.428 . S
H1497 C1493 0.930 . S
H1498 C1495 0.929 . S
S1499 N1500 1.615 1_554 S
S1499 N1501 1.609 . S
N1500 S1499 1.615 1_556 S
N1500 C1503 1.350 . S
N1501 S1499 1.609 . S
N1501 C1502 1.351 . S
C1502 C1496 1.428 . S
C1502 N1501 1.351 . S
C1502 C1503 1.434 1_554 S
C1503 C1494 1.429 . S
C1503 N1500 1.350 . S
C1503 C1502 1.434 1_556 S
C1504 C1505 1.369 . S
C1504 C1506 1.419 . S
C1504 H1508 0.930 . S
C1505 C1504 1.369 . S
C1505 C1514 1.429 1_545 S
C1506 C1504 1.419 . S
C1506 C1507 1.363 1_545 S
C1506 H1509 0.929 . S
C1507 C1506 1.363 1_565 S
C1507 C1513 1.428 . S
H1508 C1504 0.930 . S
H1509 C1506 0.929 . S
S1510 N1511 1.613 . S
S1510 N1512 1.610 . S
N1511 S1510 1.613 . S
N1511 C1514 1.350 . S
N1512 S1510 1.610 . S
N1512 C1513 1.351 . S
C1513 C1507 1.428 . S
C1513 N1512 1.351 . S
C1513 C1514 1.434 . S
C1514 C1505 1.429 1_565 S
C1514 N1511 1.350 . S
C1514 C1513 1.434 . S
C1515 C1516 1.369 . S
C1515 C1517 1.419 . S
C1515 H1519 0.930 . S
C1516 C1515 1.369 . S
C1516 C1525 1.429 1_655 S
C1517 C1515 1.419 . S
C1517 C1518 1.363 1_655 S
C1517 H1520 0.929 . S
C1518 C1517 1.363 1_455 S
C1518 C1524 1.428 . S
H1519 C1515 0.930 . S
H1520 C1517 0.929 . S
S1521 N1522 1.613 . S
S1521 N1523 1.610 . S
N1522 S1521 1.613 . S
N1522 C1525 1.350 . S
N1523 S1521 1.610 . S
N1523 C1524 1.351 . S
C1524 C1518 1.428 . S
C1524 N1523 1.351 . S
C1524 C1525 1.434 . S
C1525 C1516 1.429 1_455 S
C1525 N1522 1.350 . S
C1525 C1524 1.434 . S
C1526 C1527 1.369 . S
C1526 C1528 1.419 1_545 S
C1526 H1530 0.930 . S
C1527 C1526 1.369 . S
C1527 C1536 1.429 . S
C1528 C1526 1.419 1_565 S
C1528 C1529 1.363 . S
C1528 H1531 0.929 . S
C1529 C1528 1.363 . S
C1529 C1535 1.428 . S
H1530 C1526 0.930 . S
H1531 C1528 0.929 . S
S1532 N1533 1.652 . S
S1532 N1534 1.610 . S
N1533 S1532 1.652 . S
N1533 C1536 1.347 1_565 S
N1534 S1532 1.610 . S
N1534 C1535 1.351 . S
C1535 C1529 1.428 . S
C1535 N1534 1.351 . S
C1535 C1536 1.434 1_565 S
C1536 C1527 1.429 . S
C1536 N1533 1.347 1_545 S
C1536 C1535 1.434 1_545 S
C1537 C1538 1.369 . S
C1537 C1539 1.419 1_455 S
C1537 H1541 0.930 . S
C1538 C1537 1.369 . S
C1538 C1547 1.429 . S
C1539 C1537 1.419 1_655 S
C1539 C1540 1.363 . S
C1539 H1542 0.929 . S
C1540 C1539 1.363 . S
C1540 C1546 1.428 . S
H1541 C1537 0.930 . S
H1542 C1539 0.929 . S
S1543 N1544 1.613 1_655 S
S1543 N1545 1.610 . S
N1544 S1543 1.613 1_455 S
N1544 C1547 1.350 . S
N1545 S1543 1.610 . S
N1545 C1546 1.351 . S
C1546 C1540 1.428 . S
C1546 N1545 1.351 . S
C1546 C1547 1.434 1_655 S
C1547 C1538 1.429 . S
C1547 N1544 1.350 . S
C1547 C1546 1.434 1_455 S
C1548 C1549 1.369 1_545 S
C1548 C1550 1.419 . S
C1548 H1552 0.930 . S
C1549 C1548 1.369 1_565 S
C1549 C1558 1.429 . S
C1550 C1548 1.419 . S
C1550 C1551 1.363 . S
C1550 H1553 0.929 . S
C1551 C1550 1.363 . S
C1551 C1557 1.428 1_545 S
H1552 C1548 0.930 . S
H1553 C1550 0.929 . S
S1554 N1555 1.613 . S
S1554 N1556 1.610 . S
N1555 S1554 1.613 . S
N1555 C1558 1.350 . S
N1556 S1554 1.610 . S
N1556 C1557 1.351 . S
C1557 C1551 1.428 1_565 S
C1557 N1556 1.351 . S
C1557 C1558 1.434 . S
C1558 C1549 1.429 . S
C1558 N1555 1.350 . S
C1558 C1557 1.434 . S
C1559 C1560 1.369 . S
C1559 C1561 1.419 1_655 S
C1559 H1563 0.930 . S
C1560 C1559 1.369 . S
C1560 C1569 1.429 . S
C1561 C1559 1.419 1_455 S
C1561 C1562 1.363 . S
C1561 H1564 0.929 . S
C1562 C1561 1.363 . S
C1562 C1568 1.428 . S
H1563 C1559 0.930 . S
H1564 C1561 0.929 . S
S1565 N1566 1.613 1_455 S
S1565 N1567 1.610 . S
N1566 S1565 1.613 1_655 S
N1566 C1569 1.350 . S
N1567 S1565 1.610 . S
N1567 C1568 1.351 . S
C1568 C1562 1.428 . S
C1568 N1567 1.351 . S
C1568 C1569 1.434 1_455 S
C1569 C1560 1.429 . S
C1569 N1566 1.350 . S
C1569 C1568 1.434 1_655 S
C1570 C1571 1.369 1_545 S
C1570 C1572 1.419 . S
C1570 H1574 0.930 . S
C1571 C1570 1.369 1_565 S
C1571 C1580 1.429 . S
C1572 C1570 1.419 . S
C1572 C1573 1.363 . S
C1572 H1575 0.929 . S
C1573 C1572 1.363 . S
C1573 C1579 1.428 1_545 S
H1574 C1570 0.930 . S
H1575 C1572 0.929 . S
S1576 N1577 1.613 . S
S1576 N1578 1.610 . S
N1577 S1576 1.613 . S
N1577 C1580 1.350 . S
N1578 S1576 1.610 . S
N1578 C1579 1.351 . S
C1579 C1573 1.428 1_565 S
C1579 N1578 1.351 . S
C1579 C1580 1.434 . S
C1580 C1571 1.429 . S
C1580 N1577 1.350 . S
C1580 C1579 1.434 . S
C1581 C1582 1.379 . S
C1581 C1583 1.409 1_655 S
C1581 H1585 0.929 1_655 S
C1582 C1581 1.379 . S
C1582 C1591 1.429 . S
C1583 C1581 1.409 1_455 S
C1583 C1584 1.363 . S
C1583 H1586 0.929 . S
C1584 C1583 1.363 . S
C1584 C1590 1.403 1_455 S
H1585 C1581 0.929 1_455 S
H1586 C1583 0.929 . S
S1587 N1588 1.613 . S
S1587 N1589 1.610 . S
N1588 S1587 1.613 . S
N1588 C1591 1.350 . S
N1589 S1587 1.610 . S
N1589 C1590 1.356 . S
C1590 C1584 1.403 1_655 S
C1590 N1589 1.356 . S
C1590 C1591 1.458 . S
C1591 C1582 1.429 . S
C1591 N1588 1.350 . S
C1591 C1590 1.458 . S
C1592 C1593 1.369 . S
C1592 C1594 1.419 . S
C1592 H1596 0.930 . S
C1593 C1592 1.369 . S
C1593 C1602 1.429 . S
C1594 C1592 1.419 . S
C1594 C1595 1.363 . S
C1594 H1597 0.929 . S
C1595 C1594 1.363 . S
C1595 C1601 1.428 . S
H1596 C1592 0.930 . S
H1597 C1594 0.929 . S
S1598 N1599 1.613 . S
S1598 N1600 1.610 . S
N1599 S1598 1.613 . S
N1599 C1602 1.350 . S
N1600 S1598 1.610 . S
N1600 C1601 1.351 . S
C1601 C1595 1.428 . S
C1601 N1600 1.351 . S
C1601 C1602 1.434 . S
C1602 C1593 1.429 . S
C1602 N1599 1.350 . S
C1602 C1601 1.434 . S
C1603 C1604 1.369 . S
C1603 C1605 1.419 . S
C1603 H1607 0.930 . S
C1604 C1603 1.369 . S
C1604 C1613 1.429 . S
C1605 C1603 1.419 . S
C1605 C1606 1.363 . S
C1605 H1608 0.929 . S
C1606 C1605 1.363 . S
C1606 C1612 1.428 . S
H1607 C1603 0.930 . S
H1608 C1605 0.929 . S
S1609 N1610 1.613 . S
S1609 N1611 1.610 . S
N1610 S1609 1.613 . S
N1610 C1613 1.350 . S
N1611 S1609 1.610 . S
N1611 C1612 1.351 . S
C1612 C1606 1.428 . S
C1612 N1611 1.351 . S
C1612 C1613 1.434 . S
C1613 C1604 1.429 . S
C1613 N1610 1.350 . S
C1613 C1612 1.434 . S
C1614 C1615 1.369 . S
C1614 C1616 1.419 . S
C1614 H1618 0.930 . S
C1615 C1614 1.369 . S
C1615 C1624 1.429 . S
C1616 C1614 1.419 . S
C1616 C1617 1.363 . S
C1616 H1619 0.929 . S
C1617 C1616 1.363 . S
C1617 C1623 1.428 . S
H1618 C1614 0.930 . S
H1619 C1616 0.929 . S
S1620 N1621 1.613 . S
S1620 N1622 1.610 . S
N1621 S1620 1.613 . S
N1621 C1624 1.350 . S
N1622 S1620 1.610 . S
N1622 C1623 1.351 . S
C1623 C1617 1.428 . S
C1623 N1622 1.351 . S
C1623 C1624 1.434 . S
C1624 C1615 1.429 . S
C1624 N1621 1.350 . S
C1624 C1623 1.434 . S
C1625 C1626 1.369 . S
C1625 C1627 1.419 . S
C1625 H1629 0.930 . S
C1626 C1625 1.369 . S
C1626 C1635 1.429 . S
C1627 C1625 1.419 . S
C1627 C1628 1.363 . S
C1627 H1630 0.929 . S
C1628 C1627 1.363 . S
C1628 C1634 1.428 . S
H1629 C1625 0.930 . S
H1630 C1627 0.929 . S
S1631 N1632 1.613 . S
S1631 N1633 1.610 . S
N1632 S1631 1.613 . S
N1632 C1635 1.350 . S
N1633 S1631 1.610 . S
N1633 C1634 1.351 . S
C1634 C1628 1.428 . S
C1634 N1633 1.351 . S
C1634 C1635 1.434 . S
C1635 C1626 1.429 . S
C1635 N1632 1.350 . S
C1635 C1634 1.434 . S
C1636 C1637 1.369 . S
C1636 C1638 1.419 . S
C1636 H1640 0.930 . S
C1637 C1636 1.369 . S
C1637 C1646 1.429 . S
C1638 C1636 1.419 . S
C1638 C1639 1.363 . S
C1638 H1641 0.929 . S
C1639 C1638 1.363 . S
C1639 C1645 1.428 . S
H1640 C1636 0.930 . S
H1641 C1638 0.929 . S
S1642 N1643 1.613 . S
S1642 N1644 1.610 . S
N1643 S1642 1.613 . S
N1643 C1646 1.350 . S
N1644 S1642 1.610 . S
N1644 C1645 1.351 . S
C1645 C1639 1.428 . S
C1645 N1644 1.351 . S
C1645 C1646 1.434 . S
C1646 C1637 1.429 . S
C1646 N1643 1.350 . S
C1646 C1645 1.434 . S
C1647 C1648 1.369 . S
C1647 C1649 1.419 . S
C1647 H1651 0.930 . S
C1648 C1647 1.369 . S
C1648 C1657 1.429 . S
C1649 C1647 1.419 . S
C1649 C1650 1.363 . S
C1649 H1652 0.929 . S
C1650 C1649 1.363 . S
C1650 C1656 1.428 . S
H1651 C1647 0.930 . S
H1652 C1649 0.929 . S
S1653 N1654 1.613 . S
S1653 N1655 1.610 . S
N1654 S1653 1.613 . S
N1654 C1657 1.350 . S
N1655 S1653 1.610 . S
N1655 C1656 1.351 . S
C1656 C1650 1.428 . S
C1656 N1655 1.351 . S
C1656 C1657 1.434 . S
C1657 C1648 1.429 . S
C1657 N1654 1.350 . S
C1657 C1656 1.434 . S
C1658 C1659 1.369 . S
C1658 C1660 1.419 . S
C1658 H1662 0.930 . S
C1659 C1658 1.369 . S
C1659 C1668 1.429 . S
C1660 C1658 1.419 . S
C1660 C1661 1.363 . S
C1660 H1663 0.929 . S
C1661 C1660 1.363 . S
C1661 C1667 1.428 . S
H1662 C1658 0.930 . S
H1663 C1660 0.929 . S
S1664 N1665 1.613 . S
S1664 N1666 1.610 . S
N1665 S1664 1.613 . S
N1665 C1668 1.350 . S
N1666 S1664 1.610 . S
N1666 C1667 1.351 . S
C1667 C1661 1.428 . S
C1667 N1666 1.351 . S
C1667 C1668 1.434 . S
C1668 C1659 1.429 . S
C1668 N1665 1.350 . S
C1668 C1667 1.434 . S
C1669 C1670 1.369 . S
C1669 C1671 1.419 . S
C1669 H1673 0.930 . S
C1670 C1669 1.369 . S
C1670 C1679 1.429 . S
C1671 C1669 1.419 . S
C1671 C1672 1.363 . S
C1671 H1674 0.929 . S
C1672 C1671 1.363 . S
C1672 C1678 1.428 . S
H1673 C1669 0.930 . S
H1674 C1671 0.929 . S
S1675 N1676 1.613 . S
S1675 N1677 1.610 . S
N1676 S1675 1.613 . S
N1676 C1679 1.350 . S
N1677 S1675 1.610 . S
N1677 C1678 1.351 . S
C1678 C1672 1.428 . S
C1678 N1677 1.351 . S
C1678 C1679 1.434 . S
C1679 C1670 1.429 . S
C1679 N1676 1.350 . S
C1679 C1678 1.434 . S
C1680 C1681 1.369 . S
C1680 C1682 1.419 . S
C1680 H1684 0.930 . S
C1681 C1680 1.369 . S
C1681 C1690 1.429 . S
C1682 C1680 1.419 . S
C1682 C1683 1.363 . S
C1682 H1685 0.929 . S
C1683 C1682 1.363 . S
C1683 C1689 1.428 . S
H1684 C1680 0.930 . S
H1685 C1682 0.929 . S
S1686 N1687 1.613 . S
S1686 N1688 1.610 . S
N1687 S1686 1.613 . S
N1687 C1690 1.350 . S
N1688 S1686 1.610 . S
N1688 C1689 1.351 . S
C1689 C1683 1.428 . S
C1689 N1688 1.351 . S
C1689 C1690 1.434 . S
C1690 C1681 1.429 . S
C1690 N1687 1.350 . S
C1690 C1689 1.434 . S
C1691 C1692 1.369 . S
C1691 C1693 1.419 . S
C1691 H1695 0.930 . S
C1692 C1691 1.369 . S
C1692 C1701 1.429 . S
C1693 C1691 1.419 . S
C1693 C1694 1.363 . S
C1693 H1696 0.929 . S
C1694 C1693 1.363 . S
C1694 C1700 1.428 . S
H1695 C1691 0.930 . S
H1696 C1693 0.929 . S
S1697 N1698 1.613 . S
S1697 N1699 1.610 . S
N1698 S1697 1.613 . S
N1698 C1701 1.350 . S
N1699 S1697 1.610 . S
N1699 C1700 1.351 . S
C1700 C1694 1.428 . S
C1700 N1699 1.351 . S
C1700 C1701 1.434 . S
C1701 C1692 1.429 . S
C1701 N1698 1.350 . S
C1701 C1700 1.434 . S
C1702 C1703 1.369 . S
C1702 C1704 1.419 . S
C1702 H1706 0.930 . S
C1703 C1702 1.369 . S
C1703 C1712 1.429 . S
C1704 C1702 1.419 . S
C1704 C1705 1.363 . S
C1704 H1707 0.929 . S
C1705 C1704 1.363 . S
C1705 C1711 1.428 . S
H1706 C1702 0.930 . S
H1707 C1704 0.929 . S
S1708 N1709 1.613 . S
S1708 N1710 1.610 . S
N1709 S1708 1.613 . S
N1709 C1712 1.350 . S
N1710 S1708 1.610 . S
N1710 C1711 1.351 . S
C1711 C1705 1.428 . S
C1711 N1710 1.351 . S
C1711 C1712 1.434 . S
C1712 C1703 1.429 . S
C1712 N1709 1.350 . S
C1712 C1711 1.434 . S
C1713 C1714 1.369 . S
C1713 C1715 1.419 . S
C1713 H1717 0.930 . S
C1714 C1713 1.369 . S
C1714 C1723 1.429 . S
C1715 C1713 1.419 . S
C1715 C1716 1.363 . S
C1715 H1718 0.929 . S
C1716 C1715 1.363 . S
C1716 C1722 1.428 . S
H1717 C1713 0.930 . S
H1718 C1715 0.929 . S
S1719 N1720 1.613 . S
S1719 N1721 1.610 . S
N1720 S1719 1.613 . S
N1720 C1723 1.350 . S
N1721 S1719 1.610 . S
N1721 C1722 1.351 . S
C1722 C1716 1.428 . S
C1722 N1721 1.351 . S
C1722 C1723 1.434 . S
C1723 C1714 1.429 . S
C1723 N1720 1.350 . S
C1723 C1722 1.434 . S
C1724 C1725 1.369 . S
C1724 C1726 1.419 . S
C1724 H1728 0.930 . S
C1725 C1724 1.369 . S
C1725 C1734 1.429 . S
C1726 C1724 1.419 . S
C1726 C1727 1.363 . S
C1726 H1729 0.929 . S
C1727 C1726 1.363 . S
C1727 C1733 1.428 . S
H1728 C1724 0.930 . S
H1729 C1726 0.929 . S
S1730 N1731 1.613 . S
S1730 N1732 1.610 . S
N1731 S1730 1.613 . S
N1731 C1734 1.350 . S
N1732 S1730 1.610 . S
N1732 C1733 1.351 . S
C1733 C1727 1.428 . S
C1733 N1732 1.351 . S
C1733 C1734 1.434 . S
C1734 C1725 1.429 . S
C1734 N1731 1.350 . S
C1734 C1733 1.434 . S
C1735 C1736 1.369 . S
C1735 C1737 1.419 . S
C1735 H1739 0.930 . S
C1736 C1735 1.369 . S
C1736 C1745 1.429 . S
C1737 C1735 1.419 . S
C1737 C1738 1.363 . S
C1737 H1740 0.929 . S
C1738 C1737 1.363 . S
C1738 C1744 1.428 . S
H1739 C1735 0.930 . S
H1740 C1737 0.929 . S
S1741 N1742 1.613 . S
S1741 N1743 1.610 . S
N1742 S1741 1.613 . S
N1742 C1745 1.350 . S
N1743 S1741 1.610 . S
N1743 C1744 1.351 . S
C1744 C1738 1.428 . S
C1744 N1743 1.351 . S
C1744 C1745 1.434 . S
C1745 C1736 1.429 . S
C1745 N1742 1.350 . S
C1745 C1744 1.434 . S
C1746 C1747 1.369 . S
C1746 C1748 1.419 . S
C1746 H1750 0.930 . S
C1747 C1746 1.369 . S
C1747 C1756 1.429 . S
C1748 C1746 1.419 . S
C1748 C1749 1.363 . S
C1748 H1751 0.929 . S
C1749 C1748 1.363 . S
C1749 C1755 1.428 . S
H1750 C1746 0.930 . S
H1751 C1748 0.929 . S
S1752 N1753 1.613 . S
S1752 N1754 1.610 . S
N1753 S1752 1.613 . S
N1753 C1756 1.350 . S
N1754 S1752 1.610 . S
N1754 C1755 1.351 . S
C1755 C1749 1.428 . S
C1755 N1754 1.351 . S
C1755 C1756 1.434 . S
C1756 C1747 1.429 . S
C1756 N1753 1.350 . S
C1756 C1755 1.434 . S
C1757 C1758 1.369 . S
C1757 C1759 1.419 . S
C1757 H1761 0.930 . S
C1758 C1757 1.369 . S
C1758 C1767 1.429 . S
C1759 C1757 1.419 . S
C1759 C1760 1.363 . S
C1759 H1762 0.929 . S
C1760 C1759 1.363 . S
C1760 C1766 1.428 . S
H1761 C1757 0.930 . S
H1762 C1759 0.929 . S
S1763 N1764 1.613 . S
S1763 N1765 1.610 . S
N1764 S1763 1.613 . S
N1764 C1767 1.350 . S
N1765 S1763 1.610 . S
N1765 C1766 1.351 . S
C1766 C1760 1.428 . S
C1766 N1765 1.351 . S
C1766 C1767 1.434 . S
C1767 C1758 1.429 . S
C1767 N1764 1.350 . S
C1767 C1766 1.434 . S
C1768 C1769 1.369 . S
C1768 C1770 1.419 . S
C1768 H1772 0.930 . S
C1769 C1768 1.369 . S
C1769 C1778 1.429 . S
C1770 C1768 1.419 . S
C1770 C1771 1.363 . S
C1770 H1773 0.929 . S
C1771 C1770 1.363 . S
C1771 C1777 1.428 . S
H1772 C1768 0.930 . S
H1773 C1770 0.929 . S
S1774 N1775 1.613 . S
S1774 N1776 1.610 . S
N1775 S1774 1.613 . S
N1775 C1778 1.350 . S
N1776 S1774 1.610 . S
N1776 C1777 1.351 . S
C1777 C1771 1.428 . S
C1777 N1776 1.351 . S
C1777 C1778 1.434 . S
C1778 C1769 1.429 . S
C1778 N1775 1.350 . S
C1778 C1777 1.434 . S
C1779 C1780 1.369 . S
C1779 C1781 1.419 . S
C1779 H1783 0.930 . S
C1780 C1779 1.369 . S
C1780 C1789 1.429 . S
C1781 C1779 1.419 . S
C1781 C1782 1.363 . S
C1781 H1784 0.929 . S
C1782 C1781 1.363 . S
C1782 C1788 1.428 . S
H1783 C1779 0.930 . S
H1784 C1781 0.929 . S
S1785 N1786 1.613 . S
S1785 N1787 1.610 . S
N1786 S1785 1.613 . S
N1786 C1789 1.350 . S
N1787 S1785 1.610 . S
N1787 C1788 1.351 . S
C1788 C1782 1.428 . S
C1788 N1787 1.351 . S
C1788 C1789 1.434 . S
C1789 C1780 1.429 . S
C1789 N1786 1.350 . S
C1789 C1788 1.434 . S
C1790 C1791 1.369 . S
C1790 C1792 1.419 . S
C1790 H1794 0.930 . S
C1791 C1790 1.369 . S
C1791 C1800 1.429 . S
C1792 C1790 1.419 . S
C1792 C1793 1.363 . S
C1792 H1795 0.929 . S
C1793 C1792 1.363 . S
C1793 C1799 1.428 . S
H1794 C1790 0.930 . S
H1795 C1792 0.929 . S
S1796 N1797 1.613 . S
S1796 N1798 1.610 . S
N1797 S1796 1.613 . S
N1797 C1800 1.350 . S
N1798 S1796 1.610 . S
N1798 C1799 1.351 . S
C1799 C1793 1.428 . S
C1799 N1798 1.351 . S
C1799 C1800 1.434 . S
C1800 C1791 1.429 . S
C1800 N1797 1.350 . S
C1800 C1799 1.434 . S
C1801 C1802 1.369 . S
C1801 C1803 1.419 . S
C1801 H1805 0.930 . S
C1802 C1801 1.369 . S
C1802 C1811 1.429 . S
C1803 C1801 1.419 . S
C1803 C1804 1.363 . S
C1803 H1806 0.929 . S
C1804 C1803 1.363 . S
C1804 C1810 1.428 . S
H1805 C1801 0.930 . S
H1806 C1803 0.929 . S
S1807 N1808 1.613 . S
S1807 N1809 1.610 . S
N1808 S1807 1.613 . S
N1808 C1811 1.350 . S
N1809 S1807 1.610 . S
N1809 C1810 1.351 . S
C1810 C1804 1.428 . S
C1810 N1809 1.351 . S
C1810 C1811 1.434 . S
C1811 C1802 1.429 . S
C1811 N1808 1.350 . S
C1811 C1810 1.434 . S
C1812 C1813 1.369 . S
C1812 C1814 1.419 . S
C1812 H1816 0.930 . S
C1813 C1812 1.369 . S
C1813 C1822 1.429 . S
C1814 C1812 1.419 . S
C1814 C1815 1.363 . S
C1814 H1817 0.929 . S
C1815 C1814 1.363 . S
C1815 C1821 1.428 . S
H1816 C1812 0.930 . S
H1817 C1814 0.929 . S
S1818 N1819 1.613 . S
S1818 N1820 1.610 . S
N1819 S1818 1.613 . S
N1819 C1822 1.350 . S
N1820 S1818 1.610 . S
N1820 C1821 1.351 . S
C1821 C1815 1.428 . S
C1821 N1820 1.351 . S
C1821 C1822 1.434 . S
C1822 C1813 1.429 . S
C1822 N1819 1.350 . S
C1822 C1821 1.434 . S
C1823 C1824 1.369 . S
C1823 C1825 1.419 . S
C1823 H1827 0.930 . S
C1824 C1823 1.369 . S
C1824 C1833 1.429 . S
C1825 C1823 1.419 . S
C1825 C1826 1.363 . S
C1825 H1828 0.929 . S
C1826 C1825 1.363 . S
C1826 C1832 1.428 . S
H1827 C1823 0.930 . S
H1828 C1825 0.929 . S
S1829 N1830 1.613 . S
S1829 N1831 1.610 . S
N1830 S1829 1.613 . S
N1830 C1833 1.350 . S
N1831 S1829 1.610 . S
N1831 C1832 1.351 . S
C1832 C1826 1.428 . S
C1832 N1831 1.351 . S
C1832 C1833 1.434 . S
C1833 C1824 1.429 . S
C1833 N1830 1.350 . S
C1833 C1832 1.434 . S
C1834 C1835 1.369 . S
C1834 C1836 1.419 . S
C1834 H1838 0.930 . S
C1835 C1834 1.369 . S
C1835 C1844 1.429 . S
C1836 C1834 1.419 . S
C1836 C1837 1.363 . S
C1836 H1839 0.929 . S
C1837 C1836 1.363 . S
C1837 C1843 1.428 . S
H1838 C1834 0.930 . S
H1839 C1836 0.929 . S
S1840 N1841 1.613 . S
S1840 N1842 1.610 . S
N1841 S1840 1.613 . S
N1841 C1844 1.350 . S
N1842 S1840 1.610 . S
N1842 C1843 1.351 . S
C1843 C1837 1.428 . S
C1843 N1842 1.351 . S
C1843 C1844 1.434 . S
C1844 C1835 1.429 . S
C1844 N1841 1.350 . S
C1844 C1843 1.434 . S
C1845 C1846 1.369 . S
C1845 C1847 1.419 . S
C1845 H1849 0.930 . S
C1846 C1845 1.369 . S
C1846 C1855 1.429 . S
C1847 C1845 1.419 . S
C1847 C1848 1.363 . S
C1847 H1850 0.929 . S
C1848 C1847 1.363 . S
C1848 C1854 1.428 . S
H1849 C1845 0.930 . S
H1850 C1847 0.929 . S
S1851 N1852 1.613 . S
S1851 N1853 1.610 . S
N1852 S1851 1.613 . S
N1852 C1855 1.350 . S
N1853 S1851 1.610 . S
N1853 C1854 1.351 . S
C1854 C1848 1.428 . S
C1854 N1853 1.351 . S
C1854 C1855 1.434 . S
C1855 C1846 1.429 . S
C1855 N1852 1.350 . S
C1855 C1854 1.434 . S
C1153 C1048 1.516 . S
C1155 C4 1.516 . S
C1164 C40 1.513 . S
C1166 C1084 1.513 . S
C1175 C1120 1.517 . S
C1177 C76 1.516 . S
C1186 C1012 1.514 . S
C1188 C112 1.514 . S
C1197 C148 1.517 . S
C1199 C976 1.517 . S
C1208 C868 1.515 . S
C1210 C184 1.515 . S
C1219 C220 1.517 . S
C1221 C904 1.516 . S
C1230 C940 1.513 . S
C1232 C256 1.513 . S
C1241 C292 1.516 . S
C1243 C760 1.516 . S
C1252 C328 1.514 . S
C1254 C796 1.514 . S
C1263 C832 1.517 . S
C1265 C364 1.517 . S
C1274 C400 1.516 . S
C1276 C724 1.516 . S
C1285 C688 1.513 . S
C1287 C436 1.513 . S
C1296 C580 1.513 . S
C1298 C472 1.514 . S
C1307 C508 1.516 . S
C1309 C616 1.516 . S
C1318 C544 1.516 . S
C1320 C652 1.516 . S
C1329 C14 1.345 . S
C1331 C374 1.345 . S
C1340 C410 1.346 . S
C1342 C50 1.346 . S
C1351 C302 1.344 . S
C1353 C86 1.344 . S
C1362 C338 1.350 . S
C1364 C122 1.350 . S
C1373 C158 1.352 . S
C1375 C518 1.351 . S
C1384 C554 1.344 . S
C1386 C194 1.344 . S
C1395 C446 1.342 . S
C1397 C230 1.344 . S
C1406 C482 1.348 . S
C1408 C266 1.348 . S
C1417 C590 1.352 . S
C1419 C950 1.350 . S
C1428 C986 1.345 . S
C1430 C626 1.345 . S
C1439 C878 1.346 . S
C1441 C662 1.346 . S
C1450 C698 1.345 . S
C1452 C914 1.345 . S
C1461 C734 1.351 . S
C1463 C1094 1.350 . S
C1472 C1130 1.343 . S
C1474 C770 1.344 . S
C1483 C1022 1.350 . S
C1485 C806 1.349 . S
C1494 C842 1.347 . S
C1496 C1058 1.346 . S
C1505 C3 1.464 . S
C1507 C147 1.461 . S
C1516 C39 1.464 . S
C1518 C183 1.462 . S
C1527 C219 1.463 . S
C1529 C75 1.461 . S
C1538 C111 1.462 . S
C1540 C255 1.461 . S
C1549 C291 1.461 . S
C1551 C435 1.464 . S
C1560 C471 1.464 . S
C1562 C327 1.462 . S
C1571 C507 1.461 . S
C1573 C363 1.464 . S
C1582 C399 1.461 . S
C1584 C543 1.463 . S
C1593 C579 1.464 . S
C1595 C723 1.461 . S
C1604 C759 1.461 . S
C1606 C615 1.462 . S
C1615 C651 1.461 . S
C1617 C795 1.463 . S
C1626 C831 1.461 . S
C1628 C687 1.462 . S
C1637 C1011 1.464 . S
C1639 C867 1.462 . S
C1648 C903 1.463 . S
C1650 C1047 1.461 . S
C1659 C939 1.463 . S
C1661 C1083 1.461 . S
C1670 C975 1.464 . S
C1672 C1119 1.462 . S
C1681 C2 1.402 . S
C1683 C182 1.400 . S
C1692 C38 1.401 . S
C1694 C218 1.400 . S
C1703 C254 1.403 . S
C1705 C74 1.401 . S
C1714 C146 1.404 . S
C1716 C110 1.402 . S
C1725 C470 1.399 . S
C1727 C290 1.402 . S
C1736 C506 1.401 . S
C1738 C326 1.400 . S
C1747 C542 1.399 . S
C1749 C362 1.400 . S
C1758 C398 1.402 . S
C1760 C434 1.400 . S
C1769 C578 1.400 . S
C1771 C758 1.400 . S
C1780 C794 1.403 . S
C1782 C614 1.401 . S
C1791 C830 1.401 . S
C1793 C650 1.400 . S
C1802 C686 1.402 . S
C1804 C722 1.404 . S
C1813 C1046 1.401 . S
C1815 C866 1.400 . S
C1824 C902 1.400 . S
C1826 C1082 1.400 . S
C1835 C938 1.404 . S
C1837 C1118 1.403 . S
C1846 C1010 1.403 . S
C1848 C974 1.404 . S
