# Generated by pormake.
# Topology gsi, (4)-cn, num edge types: 1
# Building blocks:
#     Node 0, Type 0, BuildingBlock: QUQFOY_clean_sbu_3, # of connection points: 4
#     Node 1, Type 0, BuildingBlock: QUQFOY_clean_sbu_3, # of connection points: 4
#     Node 2, Type 0, BuildingBlock: QUQFOY_clean_sbu_3, # of connection points: 4
#     Node 3, Type 0, BuildingBlock: QUQFOY_clean_sbu_3, # of connection points: 4
#     Node 4, Type 0, BuildingBlock: QUQFOY_clean_sbu_3, # of connection points: 4
#     Node 5, Type 0, BuildingBlock: QUQFOY_clean_sbu_3, # of connection points: 4
#     Node 6, Type 0, BuildingBlock: QUQFOY_clean_sbu_3, # of connection points: 4
#     Node 7, Type 0, BuildingBlock: QUQFOY_clean_sbu_3, # of connection points: 4
#     Node 8, Type 0, BuildingBlock: QUQFOY_clean_sbu_3, # of connection points: 4
#     Node 9, Type 0, BuildingBlock: QUQFOY_clean_sbu_3, # of connection points: 4
#     Node 10, Type 0, BuildingBlock: QUQFOY_clean_sbu_3, # of connection points: 4
#     Node 11, Type 0, BuildingBlock: QUQFOY_clean_sbu_3, # of connection points: 4
#     Node 12, Type 0, BuildingBlock: QUQFOY_clean_sbu_3, # of connection points: 4
#     Node 13, Type 0, BuildingBlock: QUQFOY_clean_sbu_3, # of connection points: 4
#     Node 14, Type 0, BuildingBlock: QUQFOY_clean_sbu_3, # of connection points: 4
#     Node 15, Type 0, BuildingBlock: QUQFOY_clean_sbu_3, # of connection points: 4
#     Edge 16, Type (0, 0), BuildingBlock: ZUJKAS_clean_linker_0, # of connection points: 2
#     Edge 17, Type (0, 0), BuildingBlock: ZUJKAS_clean_linker_0, # of connection points: 2
#     Edge 18, Type (0, 0), BuildingBlock: ZUJKAS_clean_linker_0, # of connection points: 2
#     Edge 19, Type (0, 0), BuildingBlock: ZUJKAS_clean_linker_0, # of connection points: 2
#     Edge 20, Type (0, 0), BuildingBlock: ZUJKAS_clean_linker_0, # of connection points: 2
#     Edge 21, Type (0, 0), BuildingBlock: ZUJKAS_clean_linker_0, # of connection points: 2
#     Edge 22, Type (0, 0), BuildingBlock: ZUJKAS_clean_linker_0, # of connection points: 2
#     Edge 23, Type (0, 0), BuildingBlock: ZUJKAS_clean_linker_0, # of connection points: 2
#     Edge 24, Type (0, 0), BuildingBlock: ZUJKAS_clean_linker_0, # of connection points: 2
#     Edge 25, Type (0, 0), BuildingBlock: ZUJKAS_clean_linker_0, # of connection points: 2
#     Edge 26, Type (0, 0), BuildingBlock: ZUJKAS_clean_linker_0, # of connection points: 2
#     Edge 27, Type (0, 0), BuildingBlock: ZUJKAS_clean_linker_0, # of connection points: 2
#     Edge 28, Type (0, 0), BuildingBlock: ZUJKAS_clean_linker_0, # of connection points: 2
#     Edge 29, Type (0, 0), BuildingBlock: ZUJKAS_clean_linker_0, # of connection points: 2
#     Edge 30, Type (0, 0), BuildingBlock: ZUJKAS_clean_linker_0, # of connection points: 2
#     Edge 31, Type (0, 0), BuildingBlock: ZUJKAS_clean_linker_0, # of connection points: 2
#     Edge 32, Type (0, 0), BuildingBlock: ZUJKAS_clean_linker_0, # of connection points: 2
#     Edge 33, Type (0, 0), BuildingBlock: ZUJKAS_clean_linker_0, # of connection points: 2
#     Edge 34, Type (0, 0), BuildingBlock: ZUJKAS_clean_linker_0, # of connection points: 2
#     Edge 35, Type (0, 0), BuildingBlock: ZUJKAS_clean_linker_0, # of connection points: 2
#     Edge 36, Type (0, 0), BuildingBlock: ZUJKAS_clean_linker_0, # of connection points: 2
#     Edge 37, Type (0, 0), BuildingBlock: ZUJKAS_clean_linker_0, # of connection points: 2
#     Edge 38, Type (0, 0), BuildingBlock: ZUJKAS_clean_linker_0, # of connection points: 2
#     Edge 39, Type (0, 0), BuildingBlock: ZUJKAS_clean_linker_0, # of connection points: 2
#     Edge 40, Type (0, 0), BuildingBlock: ZUJKAS_clean_linker_0, # of connection points: 2
#     Edge 41, Type (0, 0), BuildingBlock: ZUJKAS_clean_linker_0, # of connection points: 2
#     Edge 42, Type (0, 0), BuildingBlock: ZUJKAS_clean_linker_0, # of connection points: 2
#     Edge 43, Type (0, 0), BuildingBlock: ZUJKAS_clean_linker_0, # of connection points: 2
#     Edge 44, Type (0, 0), BuildingBlock: ZUJKAS_clean_linker_0, # of connection points: 2
#     Edge 45, Type (0, 0), BuildingBlock: ZUJKAS_clean_linker_0, # of connection points: 2
#     Edge 46, Type (0, 0), BuildingBlock: ZUJKAS_clean_linker_0, # of connection points: 2
#     Edge 47, Type (0, 0), BuildingBlock: ZUJKAS_clean_linker_0, # of connection points: 2
# Relax obj value: 0.141
# Max RMSD: 0.123
# Mean RMSD: 0.120
data_MOF--net-gsi--node1-QUQFOY_clean_sbu_3--edge1-ZUJKAS_clean_linker_0
_symmetry_space_group_name_H-M    P1
_symmetry_Int_Tables_number       1
_symmetry_cell_setting            triclinic
loop_
_symmetry_equiv_pos_as_xyz
'x, y, z'
_cell_length_a     59.4061
_cell_length_b     48.316909
_cell_length_c     58.531198
_cell_angle_alpha  89.99443
_cell_angle_beta   90.05658
_cell_angle_gamma 90.011269
loop_
_atom_site_label
_atom_site_type_symbol
_atom_site_fract_x
_atom_site_fract_y
_atom_site_fract_z
_atom_type_partial_charge
C0 C 0.09242 0.17814 0.12847 0.0
O1 O 0.0949 0.18685 0.14876 0.0
Cd2 Cd 0.12781 0.18143 0.17145 0.0
O3 O 0.10781 0.16405 0.11875 0.0
Cd4 Cd 0.14509 0.14553 0.1315 0.0
C5 C 0.12617 0.11145 0.17802 0.0
O6 O 0.15973 0.18896 0.14725 0.0
O7 O 0.17799 0.15206 0.15621 0.0
O8 O 0.15646 0.14968 0.09158 0.0
C9 C 0.17708 0.17823 0.15612 0.0
O10 O 0.126 0.13514 0.18751 0.0
C11 C 0.16746 0.12718 0.09098 0.0
O12 O 0.13042 0.10913 0.15676 0.0
O13 O 0.16725 0.1125 0.10896 0.0
C14 C 0.89962 0.31129 0.12831 0.0
O15 O 0.89744 0.30436 0.14912 0.0
Cd16 Cd 0.8649 0.31032 0.17252 0.0
O17 O 0.88396 0.32418 0.11786 0.0
Cd18 Cd 0.84662 0.34332 0.12927 0.0
C19 C 0.86435 0.38069 0.17537 0.0
O20 O 0.83326 0.30143 0.14845 0.0
O21 O 0.81189 0.33726 0.15109 0.0
O22 O 0.83325 0.33527 0.09045 0.0
C23 C 0.81479 0.31175 0.15504 0.0
O24 O 0.86575 0.35773 0.18592 0.0
C25 C 0.82517 0.35934 0.08761 0.0
O26 O 0.85956 0.38135 0.15413 0.0
O27 O 0.828 0.37648 0.1038 0.0
C28 C 0.10008 0.7956 0.36361 0.0
O29 O 0.10607 0.7873 0.34395 0.0
Cd30 Cd 0.13899 0.79954 0.3233 0.0
O31 O 0.11218 0.8128 0.37474 0.0
Cd32 Cd 0.14889 0.8369 0.36748 0.0
C33 C 0.13127 0.86974 0.31931 0.0
O34 O 0.16808 0.79733 0.35103 0.0
O35 O 0.18573 0.83585 0.34786 0.0
O36 O 0.1589 0.83171 0.40767 0.0
C37 C 0.18565 0.80992 0.34475 0.0
O38 O 0.13334 0.8465 0.30928 0.0
C39 C 0.16507 0.85665 0.41045 0.0
O40 O 0.13423 0.87178 0.34083 0.0
O41 O 0.16255 0.87282 0.39354 0.0
C42 C 0.88555 0.69486 0.36095 0.0
O43 O 0.87939 0.70427 0.34167 0.0
Cd44 Cd 0.84588 0.69355 0.32136 0.0
O45 O 0.87337 0.67737 0.37165 0.0
Cd46 Cd 0.83629 0.65401 0.36461 0.0
C47 C 0.85298 0.6233 0.31525 0.0
O48 O 0.81762 0.69505 0.34995 0.0
O49 O 0.79876 0.65744 0.3466 0.0
O50 O 0.8307 0.65697 0.40587 0.0
C51 C 0.79951 0.68342 0.34394 0.0
O52 O 0.85101 0.64709 0.3061 0.0
C53 C 0.8215 0.63337 0.40778 0.0
O54 O 0.85023 0.62012 0.3367 0.0
O55 O 0.82022 0.61875 0.3898 0.0
C56 C 0.39878 0.81216 0.62598 0.0
O57 O 0.3972 0.80421 0.6466 0.0
Cd58 Cd 0.36552 0.80881 0.67131 0.0
O59 O 0.38281 0.82545 0.61639 0.0
Cd60 Cd 0.3457 0.84384 0.62948 0.0
C61 C 0.36518 0.87914 0.67599 0.0
O62 O 0.33326 0.80106 0.64792 0.0
O63 O 0.31169 0.83646 0.65221 0.0
O64 O 0.33168 0.83775 0.59062 0.0
C65 C 0.31498 0.81088 0.6555 0.0
O66 O 0.36696 0.85574 0.68578 0.0
C67 C 0.32294 0.86165 0.58904 0.0
O68 O 0.35954 0.88076 0.655 0.0
O69 O 0.32567 0.8778 0.60593 0.0
C70 C 0.88381 0.79762 0.87144 0.0
O71 O 0.869 0.77879 0.86999 0.0
Cd72 Cd 0.8313 0.78745 0.85872 0.0
O73 O 0.87897 0.82258 0.86623 0.0
Cd74 Cd 0.84527 0.84794 0.85113 0.0
C75 C 0.81508 0.83606 0.89845 0.0
O76 O 0.8335 0.81296 0.82369 0.0
O77 O 0.80836 0.8434 0.8321 0.0
O78 O 0.8713 0.8729 0.82624 0.0
C79 C 0.81473 0.82398 0.81911 0.0
O80 O 0.81332 0.81166 0.89043 0.0
C81 C 0.86211 0.89638 0.82875 0.0
O82 O 0.82712 0.85408 0.88833 0.0
O83 O 0.84581 0.89771 0.84272 0.0
C84 C 0.10939 0.70195 0.87445 0.0
O85 O 0.12566 0.71898 0.87436 0.0
Cd86 Cd 0.16253 0.70947 0.86035 0.0
O87 O 0.11207 0.67731 0.86706 0.0
Cd88 Cd 0.14355 0.64955 0.85042 0.0
C89 C 0.17858 0.65643 0.89574 0.0
O90 O 0.15673 0.68602 0.82505 0.0
O91 O 0.17828 0.65031 0.82747 0.0
O92 O 0.11711 0.62774 0.82399 0.0
C93 C 0.17375 0.67305 0.81772 0.0
O94 O 0.18162 0.681 0.88853 0.0
C95 C 0.1234 0.60311 0.82793 0.0
O96 O 0.16418 0.64063 0.88622 0.0
O97 O 0.13812 0.59988 0.84347 0.0
C98 C 0.87536 0.20445 0.616 0.0
O99 O 0.86006 0.2227 0.61756 0.0
Cd100 Cd 0.82307 0.21383 0.63174 0.0
O101 O 0.87154 0.17956 0.62217 0.0
Cd102 Cd 0.83963 0.15287 0.63884 0.0
C103 C 0.80466 0.16407 0.5943 0.0
O104 O 0.82823 0.18832 0.66631 0.0
O105 O 0.80558 0.1538 0.66244 0.0
O106 O 0.86765 0.12841 0.66186 0.0
C107 C 0.81101 0.17545 0.67333 0.0
O108 O 0.8026 0.18834 0.6025 0.0
C109 C 0.85907 0.10459 0.65909 0.0
O110 O 0.81849 0.14695 0.60308 0.0
O111 O 0.84229 0.10298 0.64569 0.0
C112 C 0.10218 0.29384 0.61356 0.0
O113 O 0.11734 0.27535 0.61407 0.0
Cd114 Cd 0.15408 0.28247 0.62915 0.0
O115 O 0.1063 0.31817 0.62094 0.0
Cd116 Cd 0.13946 0.3424 0.63804 0.0
C117 C 0.17412 0.3326 0.59329 0.0
O118 O 0.14939 0.30593 0.66483 0.0
O119 O 0.17508 0.33671 0.65935 0.0
O120 O 0.11441 0.36651 0.66439 0.0
C121 C 0.16781 0.31661 0.67113 0.0
O122 O 0.17584 0.30806 0.60099 0.0
C123 C 0.12219 0.39052 0.66066 0.0
O124 O 0.16035 0.34961 0.60227 0.0
O125 O 0.13729 0.39249 0.6454 0.0
C126 C 0.60344 0.20175 0.37115 0.0
O127 O 0.61853 0.22031 0.37026 0.0
Cd128 Cd 0.65591 0.21337 0.35657 0.0
O129 O 0.60767 0.17709 0.36459 0.0
Cd130 Cd 0.64055 0.15164 0.34828 0.0
C131 C 0.67453 0.16328 0.39364 0.0
O132 O 0.65176 0.18818 0.32181 0.0
O133 O 0.67519 0.1545 0.3255 0.0
O134 O 0.61395 0.12625 0.32414 0.0
C135 C 0.66955 0.17637 0.31504 0.0
O136 O 0.67633 0.18772 0.38573 0.0
C137 C 0.62301 0.10275 0.32715 0.0
O138 O 0.66112 0.14594 0.38447 0.0
O139 O 0.63937 0.10171 0.34111 0.0
C140 C 0.58953 0.68156 0.62626 0.0
O141 O 0.59095 0.6901 0.64671 0.0
Cd142 Cd 0.62268 0.68525 0.67121 0.0
O143 O 0.60556 0.66792 0.61718 0.0
Cd144 Cd 0.64245 0.65011 0.63163 0.0
C145 C 0.62214 0.61507 0.67698 0.0
O146 O 0.65596 0.69318 0.64919 0.0
O147 O 0.67363 0.65593 0.65844 0.0
O148 O 0.65649 0.65565 0.59272 0.0
C149 C 0.67264 0.68208 0.65907 0.0
O150 O 0.62112 0.63865 0.68659 0.0
C151 C 0.66721 0.63294 0.59222 0.0
O152 O 0.62722 0.61305 0.65588 0.0
O153 O 0.66567 0.61757 0.60972 0.0
C154 C 0.59056 0.30883 0.86743 0.0
O155 O 0.59351 0.30025 0.84714 0.0
Cd156 Cd 0.62686 0.30322 0.8246 0.0
O157 O 0.606 0.32198 0.878 0.0
Cd158 Cd 0.64423 0.33904 0.86736 0.0
C159 C 0.62818 0.37341 0.81903 0.0
O160 O 0.65713 0.29569 0.85051 0.0
O161 O 0.67945 0.33047 0.84682 0.0
O162 O 0.65613 0.33342 0.90693 0.0
C163 C 0.67596 0.30487 0.84384 0.0
O164 O 0.62709 0.34986 0.80935 0.0
C165 C 0.66485 0.35731 0.90876 0.0
O166 O 0.63223 0.37535 0.84037 0.0
O167 O 0.66296 0.3733 0.89165 0.0
C168 C 0.38638 0.19559 0.86284 0.0
O169 O 0.38094 0.2044 0.84316 0.0
Cd170 Cd 0.34912 0.19082 0.82141 0.0
O171 O 0.37437 0.17741 0.8729 0.0
Cd172 Cd 0.33872 0.15205 0.86346 0.0
C173 C 0.35951 0.12107 0.81645 0.0
O174 O 0.31859 0.19167 0.84772 0.0
O175 O 0.30421 0.15191 0.84019 0.0
O176 O 0.32993 0.15564 0.90406 0.0
C177 C 0.3024 0.17799 0.8394 0.0
O178 O 0.35668 0.14442 0.80676 0.0
C179 C 0.32124 0.13174 0.90574 0.0
O180 O 0.35621 0.1183 0.83784 0.0
O181 O 0.3215 0.11671 0.88796 0.0
C182 C 0.37769 0.29556 0.3731 0.0
O183 O 0.36209 0.27774 0.37152 0.0
Cd184 Cd 0.32589 0.28777 0.35631 0.0
O185 O 0.37427 0.32051 0.36685 0.0
Cd186 Cd 0.34178 0.34695 0.35048 0.0
C187 C 0.30675 0.33577 0.39448 0.0
O188 O 0.33188 0.31287 0.32148 0.0
O189 O 0.30638 0.34338 0.32843 0.0
O190 O 0.36929 0.37282 0.32784 0.0
C191 C 0.31374 0.32444 0.31549 0.0
O192 O 0.30429 0.31199 0.38547 0.0
C193 C 0.35991 0.39619 0.33034 0.0
O194 O 0.32117 0.3527 0.3865 0.0
O195 O 0.34286 0.39698 0.34338 0.0
C196 C 0.38128 0.69793 0.10887 0.0
O197 O 0.36596 0.71607 0.1068 0.0
Cd198 Cd 0.32957 0.71207 0.12392 0.0
O199 O 0.37743 0.6752 0.11923 0.0
Cd200 Cd 0.34426 0.65281 0.13744 0.0
C201 C 0.30802 0.65885 0.09294 0.0
O202 O 0.33502 0.69292 0.1613 0.0
O203 O 0.31123 0.65927 0.16181 0.0
O204 O 0.37099 0.62868 0.16246 0.0
C205 C 0.31778 0.68202 0.17025 0.0
O206 O 0.30639 0.68407 0.09891 0.0
C207 C 0.36129 0.60534 0.16111 0.0
O208 O 0.3222 0.64293 0.10263 0.0
O209 O 0.3445 0.60375 0.14775 0.0
C210 C 0.60286 0.79694 0.10978 0.0
O211 O 0.61751 0.77787 0.10887 0.0
Cd212 Cd 0.65393 0.78103 0.12595 0.0
O213 O 0.60736 0.82013 0.11914 0.0
Cd214 Cd 0.64097 0.84211 0.13709 0.0
C215 C 0.67674 0.83177 0.09276 0.0
O216 O 0.64929 0.80294 0.16236 0.0
O217 O 0.67387 0.83573 0.16165 0.0
O218 O 0.61447 0.86778 0.16113 0.0
C219 C 0.66688 0.81362 0.17084 0.0
O220 O 0.67714 0.80675 0.09949 0.0
C221 C 0.62458 0.89082 0.15947 0.0
O222 O 0.66361 0.84924 0.10217 0.0
O223 O 0.64157 0.89158 0.14633 0.0
H224 H 0.18968 0.23153 0.14802 0.0
H225 H 0.21617 0.25957 0.17032 0.0
H226 H 0.22548 0.19133 0.21704 0.0
H227 H 0.20042 0.16283 0.1939 0.0
H228 H 0.21459 0.27858 0.21031 0.0
H229 H 0.28891 0.2107 0.20837 0.0
H230 H 0.26467 0.20426 0.19062 0.0
H231 H 0.26562 0.19164 0.21965 0.0
C232 C 0.19773 0.22249 0.16287 0.0
C233 C 0.19329 0.195 0.16914 0.0
C234 C 0.21281 0.23849 0.17562 0.0
C235 C 0.22331 0.2274 0.19511 0.0
C236 C 0.21841 0.20006 0.20159 0.0
H237 H 0.26827 0.31893 0.31239 0.0
H238 H 0.24699 0.29761 0.28126 0.0
C239 C 0.2039 0.18383 0.18848 0.0
C240 C 0.23831 0.24479 0.20949 0.0
H241 H 0.28716 0.24292 0.24002 0.0
C242 C 0.23067 0.27098 0.21647 0.0
C243 C 0.25961 0.23539 0.2171 0.0
C244 C 0.27025 0.2091 0.20828 0.0
C245 C 0.2432 0.28737 0.23163 0.0
C246 C 0.26338 0.27667 0.24105 0.0
C247 C 0.2715 0.25105 0.23324 0.0
C248 C 0.27604 0.29106 0.25947 0.0
C249 C 0.23471 0.31606 0.23707 0.0
C250 C 0.29958 0.2936 0.25813 0.0
C251 C 0.3118 0.30462 0.27636 0.0
C252 C 0.30067 0.31397 0.29601 0.0
C253 C 0.27714 0.31219 0.29722 0.0
C254 C 0.26498 0.30029 0.2793 0.0
H255 H 0.22512 0.32481 0.22244 0.0
H256 H 0.22304 0.31498 0.25183 0.0
H257 H 0.2487 0.33043 0.24128 0.0
H258 H 0.30857 0.28664 0.24309 0.0
H259 H 0.32997 0.30588 0.27509 0.0
H260 H 0.8193 0.25877 0.17073 0.0
H261 H 0.79379 0.23376 0.19621 0.0
H262 H 0.74854 0.30357 0.19641 0.0
H263 H 0.7741 0.32889 0.17124 0.0
H264 H 0.75937 0.28454 0.23968 0.0
H265 H 0.73273 0.1977 0.18365 0.0
H266 H 0.76267 0.20199 0.18607 0.0
H267 H 0.74608 0.22854 0.17268 0.0
C268 C 0.80379 0.26867 0.176 0.0
C269 C 0.79871 0.29581 0.16904 0.0
C270 C 0.78918 0.25429 0.19043 0.0
C271 C 0.76917 0.26671 0.19794 0.0
C272 C 0.76388 0.29361 0.1907 0.0
H273 H 0.66256 0.22473 0.29213 0.0
H274 H 0.68685 0.24605 0.2634 0.0
C275 C 0.77849 0.30803 0.17633 0.0
C276 C 0.75448 0.25249 0.21459 0.0
H277 H 0.72216 0.19489 0.22274 0.0
C278 C 0.75114 0.26501 0.23594 0.0
C279 C 0.74391 0.22694 0.20967 0.0
C280 C 0.74633 0.21307 0.18671 0.0
C281 C 0.73763 0.25256 0.25263 0.0
C282 C 0.72696 0.22711 0.24768 0.0
C283 C 0.73041 0.21443 0.22641 0.0
C284 C 0.71192 0.2136 0.26435 0.0
C285 C 0.73515 0.26649 0.27558 0.0
C286 C 0.71776 0.18798 0.2739 0.0
C287 C 0.70391 0.1757 0.29031 0.0
C288 C 0.68394 0.18883 0.29726 0.0
C289 C 0.67791 0.21421 0.28723 0.0
C290 C 0.69178 0.22646 0.27089 0.0
H291 H 0.74851 0.28219 0.27852 0.0
H292 H 0.71862 0.27713 0.27632 0.0
H293 H 0.73575 0.25106 0.28963 0.0
H294 H 0.73322 0.17773 0.26894 0.0
H295 H 0.70892 0.15607 0.29765 0.0
H296 H 0.32664 0.73221 0.18975 0.0
H297 H 0.3064 0.75436 0.22121 0.0
H298 H 0.26168 0.68419 0.22534 0.0
H299 H 0.28157 0.6621 0.19367 0.0
H300 H 0.23959 0.73459 0.22465 0.0
H301 H 0.30825 0.73486 0.28919 0.0
H302 H 0.31551 0.75041 0.26231 0.0
H303 H 0.30933 0.71403 0.2636 0.0
C304 C 0.31254 0.72146 0.19741 0.0
C305 C 0.30568 0.69541 0.18927 0.0
C306 C 0.30112 0.73405 0.21549 0.0
C307 C 0.28281 0.72068 0.22581 0.0
C308 C 0.27588 0.69474 0.21766 0.0
H309 H 0.18658 0.75581 0.33177 0.0
H310 H 0.21153 0.73438 0.30372 0.0
C311 C 0.28723 0.68218 0.19956 0.0
C312 C 0.27015 0.7342 0.24445 0.0
H313 H 0.27484 0.75921 0.29883 0.0
C314 C 0.24727 0.73989 0.24089 0.0
C315 C 0.28031 0.74118 0.26556 0.0
C316 C 0.30465 0.73462 0.27055 0.0
C317 C 0.23423 0.75249 0.25787 0.0
C318 C 0.24432 0.75925 0.27902 0.0
C319 C 0.26725 0.75391 0.28255 0.0
C320 C 0.23102 0.77148 0.29772 0.0
C321 C 0.20979 0.75873 0.25302 0.0
C322 C 0.23436 0.79913 0.30414 0.0
C323 C 0.22013 0.81147 0.32018 0.0
C324 C 0.20245 0.79624 0.33003 0.0
C325 C 0.19995 0.76814 0.32436 0.0
C326 C 0.21412 0.75587 0.30833 0.0
H327 H 0.20589 0.75768 0.23447 0.0
H328 H 0.19908 0.74335 0.26197 0.0
H329 H 0.20521 0.77962 0.25944 0.0
H330 H 0.24743 0.81139 0.29614 0.0
H331 H 0.22253 0.83313 0.3243 0.0
H332 H 0.7612 0.66237 0.32464 0.0
H333 H 0.73632 0.68546 0.29719 0.0
H334 H 0.77511 0.76047 0.30378 0.0
H335 H 0.80009 0.73765 0.33113 0.0
H336 H 0.71074 0.73864 0.30025 0.0
H337 H 0.77836 0.73705 0.23456 0.0
H338 H 0.779 0.71526 0.25962 0.0
H339 H 0.78607 0.75129 0.26185 0.0
C340 C 0.76425 0.68389 0.32048 0.0
C341 C 0.78274 0.69812 0.32982 0.0
C342 C 0.75002 0.69702 0.30484 0.0
C343 C 0.75416 0.72446 0.29831 0.0
C344 C 0.77188 0.73914 0.30847 0.0
H345 H 0.70379 0.83333 0.19329 0.0
H346 H 0.72381 0.81177 0.22516 0.0
C347 C 0.78607 0.72608 0.32411 0.0
C348 C 0.74084 0.73729 0.27986 0.0
H349 H 0.74495 0.76093 0.22513 0.0
C350 C 0.71812 0.74348 0.28378 0.0
C351 C 0.75063 0.74343 0.25846 0.0
C352 C 0.77481 0.73626 0.25318 0.0
C353 C 0.70498 0.75636 0.2669 0.0
C354 C 0.71482 0.76261 0.2455 0.0
C355 C 0.73751 0.75618 0.24159 0.0
C356 C 0.70199 0.77595 0.22686 0.0
C357 C 0.68089 0.76377 0.27229 0.0
C358 C 0.68323 0.7628 0.21717 0.0
C359 C 0.67172 0.77508 0.19898 0.0
C360 C 0.67896 0.8006 0.19007 0.0
C361 C 0.69783 0.81365 0.19977 0.0
C362 C 0.70926 0.80139 0.21798 0.0
H363 H 0.67775 0.76419 0.291 0.0
H364 H 0.67642 0.78428 0.26501 0.0
H365 H 0.66955 0.74805 0.26463 0.0
H366 H 0.67767 0.74285 0.22344 0.0
H367 H 0.65729 0.76449 0.19179 0.0
H368 H 0.27501 0.827 0.67407 0.0
H369 H 0.25127 0.80094 0.70051 0.0
H370 H 0.297 0.73179 0.69682 0.0
H371 H 0.32077 0.75759 0.67007 0.0
H372 H 0.25078 0.71697 0.69476 0.0
H373 H 0.26924 0.78724 0.76742 0.0
H374 H 0.25888 0.80461 0.74242 0.0
H375 H 0.28563 0.78725 0.74147 0.0
C376 C 0.27997 0.8062 0.67878 0.0
C377 C 0.29986 0.79443 0.67018 0.0
C378 C 0.26644 0.7914 0.69395 0.0
C379 C 0.27266 0.7647 0.70091 0.0
C380 C 0.29205 0.75247 0.69174 0.0
H381 H 0.21178 0.65051 0.79899 0.0
H382 H 0.23629 0.67125 0.76997 0.0
C383 C 0.30559 0.76724 0.6765 0.0
C384 C 0.2591 0.74982 0.71814 0.0
H385 H 0.23998 0.7544 0.77294 0.0
C386 C 0.24851 0.72498 0.71192 0.0
C387 C 0.25636 0.76033 0.74051 0.0
C388 C 0.26829 0.78618 0.74848 0.0
C389 C 0.23456 0.7108 0.72733 0.0
C390 C 0.23144 0.72169 0.74952 0.0
C391 C 0.24236 0.74624 0.75584 0.0
C392 C 0.21636 0.70847 0.76632 0.0
C393 C 0.22273 0.6848 0.71961 0.0
C394 C 0.19727 0.72274 0.77401 0.0
C395 C 0.18336 0.71107 0.79058 0.0
C396 C 0.18837 0.68497 0.79988 0.0
C397 C 0.20749 0.67064 0.7921 0.0
C398 C 0.22141 0.68235 0.77546 0.0
H399 H 0.22337 0.68223 0.70075 0.0
H400 H 0.23099 0.66659 0.72755 0.0
H401 H 0.20484 0.68496 0.72511 0.0
H402 H 0.19319 0.74298 0.7672 0.0
H403 H 0.16875 0.72262 0.79621 0.0
H404 H 0.69106 0.66498 0.69901 0.0
H405 H 0.71429 0.69178 0.72532 0.0
H406 H 0.71208 0.76136 0.67901 0.0
H407 H 0.68732 0.73508 0.65344 0.0
H408 H 0.75335 0.71118 0.7222 0.0
H409 H 0.69685 0.80073 0.73571 0.0
H410 H 0.6879 0.7702 0.72055 0.0
H411 H 0.70397 0.79664 0.70617 0.0
C412 C 0.69545 0.68606 0.69454 0.0
C413 C 0.68739 0.6981 0.67431 0.0
C414 C 0.70873 0.70139 0.70957 0.0
C415 C 0.71466 0.72885 0.70443 0.0
C416 C 0.70712 0.74061 0.68382 0.0
H417 H 0.82749 0.80229 0.77847 0.0
H418 H 0.80341 0.78132 0.74932 0.0
C419 C 0.6932 0.72552 0.66909 0.0
C420 C 0.72933 0.74454 0.72041 0.0
H421 H 0.73432 0.80534 0.74969 0.0
C422 C 0.74906 0.7317 0.72832 0.0
C423 C 0.72365 0.77119 0.72869 0.0
C424 C 0.70182 0.78535 0.72253 0.0
C425 C 0.76311 0.7445 0.74439 0.0
C426 C 0.75804 0.7717 0.7518 0.0
C427 C 0.73838 0.78465 0.7438 0.0
C428 C 0.77248 0.78668 0.76843 0.0
C429 C 0.78267 0.72812 0.75386 0.0
C430 C 0.76298 0.79842 0.78818 0.0
C431 C 0.77664 0.81144 0.80439 0.0
C432 C 0.80004 0.81238 0.80131 0.0
C433 C 0.80949 0.80134 0.78134 0.0
C434 C 0.79577 0.78914 0.76481 0.0
H435 H 0.7797 0.70548 0.75239 0.0
H436 H 0.79806 0.73301 0.74392 0.0
H437 H 0.78579 0.73309 0.7721 0.0
H438 H 0.74505 0.79698 0.79131 0.0
H439 H 0.76901 0.81987 0.81968 0.0
H440 H 0.66959 0.25168 0.82946 0.0
H441 H 0.69358 0.22499 0.80359 0.0
H442 H 0.74062 0.29289 0.80062 0.0
H443 H 0.71687 0.31965 0.82657 0.0
H444 H 0.70467 0.24268 0.75907 0.0
H445 H 0.78118 0.22499 0.8115 0.0
H446 H 0.7544 0.23451 0.82381 0.0
H447 H 0.77197 0.26038 0.81082 0.0
C448 C 0.68522 0.26077 0.82358 0.0
C449 C 0.69134 0.28779 0.82998 0.0
C450 C 0.69887 0.2455 0.80881 0.0
C451 C 0.71894 0.25689 0.80044 0.0
C452 C 0.72538 0.28357 0.80726 0.0
H453 H 0.81723 0.22318 0.69737 0.0
H454 H 0.79433 0.24088 0.72882 0.0
C455 C 0.71172 0.29888 0.82196 0.0
C456 C 0.73218 0.24195 0.78303 0.0
H457 H 0.78459 0.21682 0.77141 0.0
C458 C 0.72206 0.23667 0.76181 0.0
C459 C 0.75485 0.23431 0.78674 0.0
C460 C 0.76622 0.23858 0.80952 0.0
C461 C 0.73429 0.22485 0.74383 0.0
C462 C 0.75711 0.21768 0.74738 0.0
C463 C 0.76709 0.2224 0.76877 0.0
C464 C 0.77115 0.20633 0.7288 0.0
C465 C 0.72296 0.22118 0.72093 0.0
C466 C 0.76581 0.18088 0.7186 0.0
C467 C 0.77878 0.17079 0.70054 0.0
C468 C 0.79739 0.18591 0.69253 0.0
C469 C 0.80294 0.21112 0.7031 0.0
C470 C 0.78993 0.22122 0.7211 0.0
H471 H 0.70721 0.23348 0.7196 0.0
H472 H 0.73439 0.22736 0.70682 0.0
H473 H 0.71856 0.19905 0.71855 0.0
H474 H 0.75161 0.16885 0.72461 0.0
H475 H 0.77422 0.15117 0.69287 0.0
H476 H 0.21345 0.31221 0.67389 0.0
H477 H 0.23519 0.28811 0.70339 0.0
H478 H 0.1738 0.27076 0.74018 0.0
H479 H 0.15201 0.29297 0.70984 0.0
H480 H 0.24252 0.29573 0.74555 0.0
H481 H 0.1984 0.19538 0.73864 0.0
H482 H 0.19352 0.22316 0.71874 0.0
H483 H 0.17911 0.22245 0.74585 0.0
C484 C 0.20468 0.30312 0.68827 0.0
C485 C 0.18112 0.30404 0.68956 0.0
C486 C 0.21706 0.28938 0.70512 0.0
C487 C 0.2061 0.2769 0.72375 0.0
C488 C 0.1826 0.27915 0.72555 0.0
H489 H 0.2833 0.22867 0.84472 0.0
H490 H 0.25844 0.25268 0.81783 0.0
C491 C 0.17018 0.29208 0.70836 0.0
C492 C 0.2193 0.26184 0.74137 0.0
H493 H 0.22194 0.2013 0.77128 0.0
C494 C 0.23812 0.27498 0.75103 0.0
C495 C 0.21384 0.23455 0.74828 0.0
C496 C 0.19527 0.21798 0.73713 0.0
C497 C 0.2516 0.26169 0.76737 0.0
C498 C 0.24536 0.23503 0.77524 0.0
C499 C 0.22655 0.22189 0.76556 0.0
C500 C 0.25868 0.21978 0.79265 0.0
C501 C 0.2728 0.27606 0.77527 0.0
C502 C 0.26579 0.19256 0.78824 0.0
C503 C 0.27911 0.17842 0.80403 0.0
C504 C 0.28596 0.19147 0.82429 0.0
C505 C 0.27836 0.21834 0.82907 0.0
C506 C 0.26442 0.23217 0.81358 0.0
H507 H 0.27877 0.29136 0.76245 0.0
H508 H 0.26927 0.2875 0.7913 0.0
H509 H 0.28657 0.26104 0.7785 0.0
H510 H 0.26151 0.18245 0.77229 0.0
H511 H 0.28489 0.15774 0.79991 0.0
H512 H 0.12727 0.87331 0.27289 0.0
H513 H 0.12289 0.91499 0.2498 0.0
H514 H 0.11983 0.96455 0.31098 0.0
H515 H 0.1247 0.92295 0.33434 0.0
H516 H 0.08982 0.95529 0.24779 0.0
H517 H 0.17164 -0.00036 0.27574 0.0
H518 H 0.16381 0.96423 0.28145 0.0
H519 H 0.15261 0.9918 0.29866 0.0
C520 C 0.12556 0.89302 0.28151 0.0
C521 C 0.1266 0.8948 0.3055 0.0
C522 C 0.12301 0.91683 0.26825 0.0
C523 C 0.12145 0.94288 0.27866 0.0
C524 C 0.12151 0.94467 0.3026 0.0
H525 H 0.11801 0.10934 0.22388 0.0
H526 H 0.11474 0.06835 0.24797 0.0
C527 C 0.12417 0.92086 0.31592 0.0
C528 C 0.12049 0.96814 0.26434 0.0
H529 H 0.14906 0.02751 0.25178 0.0
C530 C 0.10275 0.97111 0.24865 0.0
C531 C 0.13748 0.98863 0.26541 0.0
C532 C 0.15759 0.9859 0.28105 0.0
C533 C 0.10142 0.99423 0.23417 0.0
C534 C 0.11839 0.01467 0.23529 0.0
C535 C 0.13604 0.01179 0.25105 0.0
C536 C 0.1184 0.03922 0.22019 0.0
C537 C 0.08176 0.99682 0.21797 0.0
C538 C 0.12144 0.03637 0.19653 0.0
C539 C 0.12339 0.05981 0.18263 0.0
C540 C 0.12242 0.08648 0.19222 0.0
C541 C 0.11886 0.08915 0.21589 0.0
C542 C 0.11698 0.06575 0.22973 0.0
H543 H 0.06771 0.98279 0.22275 0.0
H544 H 0.0754 0.01843 0.21758 0.0
H545 H 0.08734 0.99132 0.20047 0.0
H546 H 0.12294 0.01602 0.18891 0.0
H547 H 0.12617 0.05701 0.16449 0.0
H548 H 0.86208 0.4341 0.15942 0.0
H549 H 0.86433 0.47681 0.18187 0.0
H550 H 0.87452 0.42887 0.24317 0.0
H551 H 0.87278 0.38632 0.22098 0.0
H552 H 0.83597 0.4918 0.21639 0.0
H553 H 0.92331 0.48677 0.2493 0.0
H554 H 0.91358 0.46541 0.22598 0.0
H555 H 0.9076 0.45584 0.25507 0.0
C556 C 0.86514 0.43267 0.17763 0.0
C557 C 0.86727 0.40676 0.18837 0.0
C558 C 0.8664 0.45708 0.19043 0.0
C559 C 0.86995 0.45603 0.21414 0.0
C560 C 0.87236 0.43023 0.22483 0.0
H561 H 0.85799 0.56891 0.32798 0.0
H562 H 0.86316 0.52884 0.30284 0.0
C563 C 0.87117 0.40588 0.21209 0.0
C564 C 0.86935 0.48165 0.22804 0.0
H565 H 0.8985 0.51849 0.26817 0.0
C566 C 0.84975 0.49784 0.22749 0.0
C567 C 0.88732 0.48938 0.24262 0.0
C568 C 0.90922 0.47358 0.24315 0.0
C569 C 0.84736 0.52112 0.24158 0.0
C570 C 0.86515 0.52854 0.25643 0.0
C571 C 0.88487 0.5126 0.25683 0.0
C572 C 0.86346 0.55285 0.27166 0.0
C573 C 0.82559 0.5372 0.24096 0.0
C574 C 0.86244 0.57956 0.26241 0.0
C575 C 0.85953 0.60245 0.27665 0.0
C576 C 0.85761 0.59906 0.30047 0.0
C577 C 0.85932 0.57226 0.30973 0.0
C578 C 0.8623 0.54935 0.29542 0.0
H579 H 0.81196 0.52557 0.23218 0.0
H580 H 0.81994 0.54239 0.25853 0.0
H581 H 0.82829 0.5569 0.2316 0.0
H582 H 0.86362 0.58267 0.24412 0.0
H583 H 0.85842 0.62276 0.2689 0.0
H584 H 0.32817 0.15022 0.94914 0.0
H585 H 0.30447 0.14168 0.98253 0.0
H586 H 0.26227 0.08772 0.94221 0.0
H587 H 0.2867 0.09495 0.90923 0.0
H588 H 0.26386 0.15745 0.9861 0.0
H589 H 0.26324 0.04434 -0.00054 0.0
H590 H 0.28328 0.061 0.98085 0.0
H591 H 0.25542 0.05268 0.9707 0.0
C592 C 0.31421 0.1359 0.94763 0.0
C593 C 0.30926 0.12322 0.92665 0.0
C594 C 0.30063 0.13107 0.96669 0.0
C595 C 0.2816 0.11388 0.96502 0.0
C596 C 0.27715 0.10042 0.94422 0.0
H597 H 0.16348 0.146 0.04726 0.0
H598 H 0.19042 0.13991 0.0161 0.0
C599 C 0.29105 0.10473 0.9253 0.0
C600 C 0.26503 0.11292 0.98403 0.0
H601 H 0.23241 0.06969 0.01625 0.0
C602 C 0.25724 0.13819 0.99285 0.0
C603 C 0.25644 0.08786 0.99306 0.0
C604 C 0.26523 0.05997 0.98568 0.0
C605 C 0.24095 0.13918 0.0101 0.0
C606 C 0.23132 0.1142 0.01811 0.0
C607 C 0.23943 0.08885 0.00974 0.0
C608 C 0.21326 0.11418 0.03562 0.0
C609 C 0.23462 0.16706 0.01984 0.0
C610 C 0.21629 0.10003 0.05635 0.0
C611 C 0.20058 0.10285 0.07397 0.0
C612 C 0.18172 0.12012 0.07119 0.0
C613 C 0.17802 0.13287 0.04996 0.0
C614 C 0.19349 0.12958 0.03222 0.0
H615 H 0.24817 0.18257 0.01712 0.0
H616 H 0.21928 0.17478 0.01108 0.0
H617 H 0.23113 0.16572 0.03844 0.0
H618 H 0.23132 0.08782 0.05929 0.0
H619 H 0.20385 0.09277 0.09016 0.0
H620 H 0.80218 0.40734 0.07892 0.0
H621 H 0.77517 0.41575 0.04801 0.0
H622 H 0.78925 0.33495 0.02022 0.0
H623 H 0.81639 0.32646 0.0508 0.0
H624 H 0.78527 0.37745 0.98693 0.0
H625 H 0.71346 0.37599 0.048 0.0
H626 H 0.73555 0.40043 0.05385 0.0
H627 H 0.74122 0.364 0.05573 0.0
C628 C 0.79978 0.39153 0.06602 0.0
C629 C 0.81127 0.36613 0.0674 0.0
C630 C 0.78424 0.39632 0.04848 0.0
C631 C 0.77996 0.37577 0.03211 0.0
C632 C 0.79227 0.35101 0.03277 0.0
H633 H 0.67186 0.32689 0.94737 0.0
H634 H 0.69901 0.33613 0.97779 0.0
C635 C 0.80775 0.3462 0.05027 0.0
C636 C 0.76188 0.37915 0.01492 0.0
H637 H 0.70469 0.38064 0.00904 0.0
C638 C 0.76765 0.37854 0.9917 0.0
C639 C 0.73893 0.38027 0.02132 0.0
C640 C 0.73178 0.38002 0.04605 0.0
C641 C 0.75104 0.37827 0.97464 0.0
C642 C 0.72808 0.37899 0.98104 0.0
C643 C 0.72232 0.38034 0.00425 0.0
C644 C 0.70988 0.37547 0.964 0.0
C645 C 0.75815 0.37584 0.94997 0.0
C646 C 0.70644 0.39503 0.94663 0.0
C647 C 0.69091 0.38981 0.92918 0.0
C648 C 0.67856 0.36496 0.9289 0.0
C649 C 0.68117 0.34617 0.94704 0.0
C650 C 0.69667 0.35142 0.96445 0.0
H651 H 0.77627 0.37058 0.94825 0.0
H652 H 0.74806 0.35976 0.94107 0.0
H653 H 0.75519 0.39587 0.9412 0.0
H654 H 0.71623 0.41394 0.94622 0.0
H655 H 0.68921 0.40474 0.91548 0.0
H656 H 0.31619 0.83232 0.54982 0.0
H657 H 0.28885 0.84187 0.51967 0.0
H658 H 0.2694 0.91728 0.55372 0.0
H659 H 0.29674 0.90785 0.58412 0.0
H660 H 0.23319 0.88205 0.54295 0.0
H661 H 0.28786 0.89904 0.46768 0.0
H662 H 0.2949 0.86817 0.48318 0.0
H663 H 0.29819 0.90139 0.49666 0.0
C664 C 0.30641 0.85121 0.55071 0.0
C665 C 0.30862 0.86932 0.56936 0.0
C666 C 0.29086 0.8567 0.5334 0.0
C667 C 0.27727 0.88042 0.53436 0.0
C668 C 0.27984 0.89896 0.55262 0.0
H669 H 0.18607 0.90609 0.41846 0.0
H670 H 0.21117 0.91737 0.45035 0.0
C671 C 0.29551 0.89356 0.56992 0.0
C672 C 0.25913 0.88436 0.51732 0.0
H673 H 0.24942 0.88651 0.45992 0.0
C674 C 0.2367 0.88354 0.52481 0.0
C675 C 0.26375 0.88667 0.49372 0.0
C676 C 0.28749 0.88916 0.48481 0.0
C677 C 0.21877 0.88327 0.50918 0.0
C678 C 0.22347 0.88353 0.48551 0.0
C679 C 0.24584 0.88607 0.47809 0.0
C680 C 0.20577 0.87869 0.46814 0.0
C681 C 0.19498 0.88212 0.51812 0.0
C682 C 0.19412 0.85342 0.46781 0.0
C683 C 0.17983 0.8469 0.44964 0.0
C684 C 0.177 0.8655 0.4314 0.0
C685 C 0.18784 0.89136 0.4323 0.0
C686 C 0.20223 0.89782 0.45046 0.0
H687 H 0.19386 0.8908 0.53566 0.0
H688 H 0.18326 0.89366 0.50681 0.0
H689 H 0.1894 0.86022 0.51884 0.0
H690 H 0.19693 0.83814 0.48105 0.0
H691 H 0.17178 0.82678 0.44942 0.0
H692 H 0.70297 0.5975 0.59253 0.0
H693 H 0.73161 0.59217 0.56279 0.0
H694 H 0.69399 0.64696 0.5188 0.0
H695 H 0.66593 0.65339 0.54885 0.0
H696 H 0.7336 0.5745 0.51992 0.0
H697 H 0.75307 0.68638 0.52157 0.0
H698 H 0.73481 0.67038 0.54229 0.0
H699 H 0.72409 0.68038 0.51468 0.0
C700 C 0.70071 0.60816 0.57641 0.0
C701 C 0.68241 0.62618 0.57309 0.0
C702 C 0.71709 0.60513 0.55945 0.0
C703 C 0.7153 0.61982 0.53883 0.0
C704 C 0.69614 0.63619 0.53488 0.0
H705 H 0.78661 0.59739 0.41259 0.0
H706 H 0.76316 0.59097 0.44633 0.0
C707 C 0.68001 0.63967 0.55198 0.0
C708 C 0.73383 0.61903 0.52185 0.0
H709 H 0.76787 0.66083 0.49013 0.0
C710 C 0.74127 0.59335 0.51353 0.0
C711 C 0.74436 0.64355 0.51403 0.0
C712 C 0.73885 0.67168 0.5238 0.0
C713 C 0.75831 0.59161 0.49695 0.0
C714 C 0.76762 0.61627 0.4879 0.0
C715 C 0.76068 0.64186 0.49684 0.0
C716 C 0.78376 0.61651 0.46849 0.0
C717 C 0.76629 0.56334 0.48959 0.0
C718 C 0.8032 0.63307 0.46951 0.0
C719 C 0.81625 0.63747 0.44999 0.0
C720 C 0.81032 0.62497 0.42918 0.0
C721 C 0.79174 0.60701 0.42849 0.0
C722 C 0.77838 0.60316 0.44787 0.0
H723 H 0.76422 0.54798 0.50356 0.0
H724 H 0.75596 0.5562 0.47492 0.0
H725 H 0.78424 0.56364 0.48435 0.0
H726 H 0.80775 0.64359 0.48519 0.0
H727 H 0.83051 0.65139 0.45099 0.0
H728 H 0.94145 0.30676 0.14615 0.0
H729 H 0.97446 0.28596 0.1284 0.0
H730 H 0.93735 0.27443 0.06575 0.0
H731 H 0.90407 0.29598 0.08345 0.0
H732 H 0.95711 0.2249 0.0866 0.0
H733 H 0.01957 0.30885 0.07712 0.0
H734 H 0.00482 0.31079 0.10383 0.0
H735 H 0.98953 0.3151 0.07749 0.0
C736 C 0.94046 0.30044 0.12841 0.0
C737 C 0.92024 0.30288 0.11617 0.0
C738 C 0.95937 0.28874 0.11824 0.0
C739 C 0.9584 0.27896 0.0957 0.0
C740 C 0.93847 0.28221 0.08307 0.0
H741 H 0.08786 0.19263 0.08344 0.0
H742 H 0.05439 0.21367 0.06557 0.0
C743 C 0.91955 0.29451 0.09317 0.0
C744 C 0.97728 0.26197 0.08716 0.0
H745 H 0.03461 0.2631 0.08643 0.0
C746 C 0.97403 0.23327 0.08562 0.0
C747 C -0.00072 0.27291 0.08556 0.0
C748 C 0.00352 0.30366 0.08585 0.0
C749 C 0.99244 0.21509 0.08549 0.0
C750 C 0.01445 0.22602 0.08699 0.0
C751 C 0.01769 0.25473 0.08551 0.0
C752 C 0.03337 0.20903 0.09549 0.0
C753 C 0.98821 0.18434 0.08571 0.0
C754 C 0.03246 0.19932 0.11805 0.0
C755 C 0.05147 0.18795 0.12832 0.0
C756 C 0.07171 0.18573 0.11613 0.0
C757 C 0.07234 0.19391 0.09309 0.0
C758 C 0.05332 0.20592 0.0829 0.0
H759 H 0.97212 0.17919 0.077 0.0
H760 H 0.00215 0.17293 0.0773 0.0
H761 H 0.98698 0.17715 0.10368 0.0
H762 H 0.01737 0.20201 0.12819 0.0
H763 H 0.05057 0.18179 0.1461 0.0
H764 H 0.91577 0.72946 0.34102 0.0
H765 H 0.95126 0.746 0.35628 0.0
H766 H 0.93991 0.70047 0.4186 0.0
H767 H 0.90404 0.68319 0.40317 0.0
H768 H 0.96013 0.77672 0.39626 0.0
H769 H 0.00219 0.67349 0.39674 0.0
H770 H 0.97611 0.67904 0.3816 0.0
H771 H 0.97627 0.67776 0.41223 0.0
C772 C 0.92067 0.72286 0.358 0.0
C773 C 0.90706 0.70482 0.37081 0.0
C774 C 0.94097 0.7325 0.36675 0.0
C775 C 0.94825 0.72444 0.38853 0.0
C776 C 0.93467 0.70673 0.40165 0.0
H777 H 0.08049 0.80758 0.40524 0.0
H778 H 0.04447 0.78985 0.41992 0.0
C779 C 0.91421 0.69691 0.39281 0.0
C780 C 0.97059 0.7341 0.39643 0.0
H781 H 0.02522 0.71263 0.39848 0.0
C782 C 0.97438 0.76276 0.39748 0.0
C783 C 0.98903 0.71574 0.39813 0.0
C784 C 0.9859 0.68477 0.39707 0.0
C785 C -0.00372 0.77363 0.39771 0.0
C786 C 0.01479 0.75524 0.39729 0.0
C787 C 0.01094 0.72661 0.39874 0.0
C788 C 0.03742 0.76471 0.39016 0.0
C789 C -0.00055 0.80456 0.39614 0.0
C790 C 0.04552 0.75602 0.36886 0.0
C791 C 0.06589 0.76593 0.36054 0.0
C792 C 0.07876 0.78485 0.3733 0.0
C793 C 0.0709 0.79317 0.39493 0.0
C794 C 0.05035 0.78311 0.40333 0.0
H795 H 0.98319 0.8158 0.39477 0.0
H796 H 0.00837 0.81208 0.41159 0.0
H797 H 0.00992 0.80983 0.38104 0.0
H798 H 0.03576 0.74196 0.35836 0.0
H799 H 0.07138 0.75892 0.34387 0.0
H800 H 0.54686 0.68359 0.64186 0.0
H801 H 0.51422 0.70353 0.62277 0.0
H802 H 0.55388 0.71763 0.56217 0.0
H803 H 0.5868 0.6969 0.58127 0.0
H804 H 0.53314 0.76584 0.58198 0.0
H805 H 0.47081 0.68241 0.57023 0.0
H806 H 0.48443 0.67983 0.59753 0.0
H807 H 0.50078 0.67589 0.57183 0.0
C808 C 0.54846 0.69019 0.62424 0.0
C809 C 0.56928 0.6888 0.61302 0.0
C810 C 0.52977 0.70138 0.61327 0.0
C811 C 0.53156 0.71173 0.59096 0.0
C812 C 0.55211 0.70936 0.57928 0.0
H813 H 0.40216 0.79779 0.58079 0.0
H814 H 0.43521 0.77713 0.56195 0.0
C815 C 0.57083 0.69754 0.59016 0.0
C816 C 0.51288 0.72882 0.58198 0.0
H817 H 0.45556 0.72793 0.58096 0.0
C818 C 0.51621 0.75753 0.58076 0.0
C819 C 0.49087 0.71802 0.58001 0.0
C820 C 0.48653 0.68729 0.57972 0.0
C821 C 0.49785 0.77578 0.58083 0.0
C822 C 0.47581 0.76491 0.58223 0.0
C823 C 0.4725 0.73626 0.5802 0.0
C824 C 0.45704 0.7817 0.59132 0.0
C825 C 0.50219 0.8065 0.58144 0.0
C826 C 0.45851 0.79124 0.6139 0.0
C827 C 0.43975 0.80242 0.62472 0.0
C828 C 0.41916 0.80459 0.61309 0.0
C829 C 0.41794 0.79654 0.59003 0.0
C830 C 0.43673 0.78475 0.57929 0.0
H831 H 0.51805 0.81175 0.57236 0.0
H832 H 0.48806 0.81821 0.5736 0.0
H833 H 0.50401 0.81325 0.59947 0.0
H834 H 0.47388 0.78855 0.62365 0.0
H835 H 0.44113 0.80849 0.64249 0.0
H836 H 0.83743 0.0553 0.66462 0.0
H837 H 0.84526 0.01998 0.69334 0.0
H838 H 0.90498 0.06423 0.71401 0.0
H839 H 0.89674 0.10031 0.68582 0.0
H840 H 0.87867 0.98493 0.703 0.0
H841 H 0.87056 0.06183 0.77309 0.0
H842 H 0.86366 0.06996 0.74387 0.0
H843 H 0.89257 0.06928 0.75304 0.0
C844 C 0.85243 0.05733 0.67502 0.0
C845 C 0.8663 0.08078 0.67317 0.0
C846 C 0.85688 0.03712 0.69147 0.0
C847 C 0.87537 0.03984 0.70627 0.0
C848 C 0.89023 0.06215 0.70327 0.0
H849 H 0.89921 0.90163 0.80145 0.0
H850 H 0.90629 0.93759 0.77287 0.0
C851 C 0.88562 0.0826 0.68701 0.0
C852 C 0.87811 0.0201 0.72552 0.0
H853 H 0.87814 0.01588 0.7838 0.0
C854 C 0.87874 0.99167 0.72068 0.0
C855 C 0.87791 0.02897 0.7486 0.0
C856 C 0.87593 0.05913 0.75505 0.0
C857 C 0.87852 0.97182 0.7382 0.0
C858 C 0.87841 0.9807 0.76128 0.0
C859 C 0.87843 0.00914 0.76612 0.0
C860 C 0.8761 0.96088 0.78053 0.0
C861 C 0.87721 0.94161 0.73175 0.0
C862 C 0.85759 0.96301 0.79535 0.0
C863 C 0.85379 0.94286 0.81202 0.0
C864 C 0.86834 0.92008 0.81407 0.0
C865 C 0.88757 0.91881 0.80011 0.0
C866 C 0.89153 0.9392 0.78363 0.0
H867 H 0.8719 0.93874 0.71369 0.0
H868 H 0.89406 0.93203 0.73379 0.0
H869 H 0.86518 0.93037 0.7429 0.0
H870 H 0.84553 0.97967 0.7934 0.0
H871 H 0.83883 0.94444 0.82251 0.0
H872 H 0.13402 0.54825 0.8322 0.0
H873 H 0.12811 0.51187 0.80373 0.0
H874 H 0.09166 0.56933 0.76116 0.0
H875 H 0.09703 0.60564 0.78973 0.0
H876 H 0.07359 0.51593 0.76 0.0
H877 H 0.1659 0.51533 0.74542 0.0
H878 H 0.15799 0.50818 0.77442 0.0
H879 H 0.15211 0.54159 0.76224 0.0
C880 C 0.12434 0.553 0.817 0.0
C881 C 0.11625 0.57992 0.81308 0.0
C882 C 0.1211 0.53224 0.80069 0.0
C883 C 0.10996 0.53813 0.78009 0.0
C884 C 0.10047 0.56442 0.77687 0.0
H885 H 0.13504 0.44462 0.65607 0.0
H886 H 0.12908 0.48218 0.68344 0.0
C887 C 0.10356 0.58515 0.79323 0.0
C888 C 0.10979 0.5177 0.76118 0.0
H889 H 0.14466 0.48121 0.72606 0.0
C890 C 0.0891 0.50833 0.75252 0.0
C891 C 0.13004 0.50836 0.75109 0.0
C892 C 0.15277 0.51905 0.75858 0.0
C893 C 0.08815 0.48931 0.73436 0.0
C894 C 0.10846 0.47911 0.72491 0.0
C895 C 0.1291 0.48894 0.73333 0.0
C896 C 0.10899 0.45768 0.70674 0.0
C897 C 0.06545 0.48067 0.72525 0.0
C898 C 0.09927 0.4316 0.71046 0.0
C899 C 0.10247 0.41019 0.69474 0.0
C900 C 0.11576 0.41434 0.67515 0.0
C901 C 0.12473 0.44077 0.67099 0.0
C902 C 0.12136 0.46223 0.68664 0.0
H903 H 0.05236 0.49644 0.72905 0.0
H904 H 0.066 0.47724 0.70651 0.0
H905 H 0.0603 0.46104 0.73359 0.0
H906 H 0.0901 0.42736 0.72606 0.0
H907 H 0.09544 0.39003 0.69854 0.0
H908 H 0.68259 0.88358 0.07381 0.0
H909 H 0.70798 0.89624 0.04235 0.0
H910 H 0.72994 0.81139 0.03742 0.0
H911 H 0.70515 0.79868 0.06867 0.0
H912 H 0.76538 0.85023 0.03763 0.0
H913 H 0.69866 0.87658 0.97413 0.0
H914 H 0.69805 0.89385 0.00137 0.0
H915 H 0.69249 0.8574 -0.00016 0.0
C916 C 0.69283 0.86766 0.06598 0.0
C917 C 0.69177 0.8401 0.07375 0.0
C918 C 0.70725 0.87491 0.04798 0.0
C919 C 0.72072 0.85469 0.03749 0.0
C920 C 0.71973 0.82732 0.04532 0.0
H921 H 0.79528 0.80047 0.92835 0.0
H922 H 0.77415 0.81164 0.96282 0.0
C923 C 0.70546 0.82009 0.0632 0.0
C924 C 0.73591 0.8613 0.01819 0.0
H925 H 0.73577 0.87339 0.96069 0.0
C926 C 0.75899 0.85594 0.02091 0.0
C927 C 0.72752 0.86879 -0.00358 0.0
C928 C 0.70283 0.87439 0.99255 0.0
C929 C 0.77365 0.85615 0.00215 0.0
C930 C 0.76498 0.86182 0.9802 0.0
C931 C 0.74227 0.86912 0.97765 0.0
C932 C 0.77835 0.8559 0.95952 0.0
C933 C 0.79808 0.84882 0.00565 0.0
C934 C 0.78766 0.87722 0.94631 0.0
C935 C 0.79999 0.8709 0.92657 0.0
C936 C 0.80283 0.84319 0.91968 0.0
C937 C 0.79339 0.82201 0.93308 0.0
C938 C 0.78134 0.82833 0.95282 0.0
H939 H 0.80315 0.85065 0.02386 0.0
H940 H 0.8009 0.82712 0.00012 0.0
H941 H 0.80905 0.86238 0.99513 0.0
H942 H 0.78541 0.89864 0.95126 0.0
H943 H 0.80698 0.88767 0.91656 0.0
H944 H 0.21467 0.68196 0.91511 0.0
H945 H 0.23616 0.66754 0.94837 0.0
H946 H 0.19498 0.59445 0.95471 0.0
H947 H 0.17304 0.60887 0.92111 0.0
H948 H 0.19982 0.62439 0.9955 0.0
H949 H 0.28293 0.60614 0.95624 0.0
H950 H 0.2714 0.63872 0.94736 0.0
H951 H 0.25721 0.60708 0.93972 0.0
C952 C 0.2102 0.66267 0.92337 0.0
C953 C 0.19208 0.64659 0.91543 0.0
C954 C 0.22269 0.65431 0.9423 0.0
C955 C 0.21746 0.62966 0.95373 0.0
C956 C 0.19944 0.61339 0.94591 0.0
H957 H 0.31026 0.60895 0.07029 0.0
H958 H 0.28683 0.59373 0.03802 0.0
C959 C 0.18694 0.62167 0.92676 0.0
C960 C 0.22984 0.62263 0.97493 0.0
H961 H 0.28327 0.62024 -0.00379 0.0
C962 C 0.21802 0.62269 0.99567 0.0
C963 C 0.25354 0.61984 0.97515 0.0
C964 C 0.26697 0.61763 0.95338 0.0
C965 C 0.22949 0.62276 0.01665 0.0
C966 C 0.2533 0.62319 0.01678 0.0
C967 C 0.26501 0.62035 -0.00389 0.0
C968 C 0.26622 0.63065 0.03755 0.0
C969 C 0.216 0.62363 0.03845 0.0
C970 C 0.2625 0.65647 0.04779 0.0
C971 C 0.27584 0.66525 0.06598 0.0
C972 C 0.29334 0.64846 0.07433 0.0
C973 C 0.29688 0.62234 0.06429 0.0
C974 C 0.28351 0.6136 0.0459 0.0
H975 H 0.19943 0.6133 0.03621 0.0
H976 H 0.22514 0.61352 0.05275 0.0
H977 H 0.21276 0.64552 0.04314 0.0
H978 H 0.24965 0.67028 0.04125 0.0
H979 H 0.2726 0.68547 0.07326 0.0
H980 H 0.70864 0.19272 0.41305 0.0
H981 H 0.73084 0.18087 0.4466 0.0
H982 H 0.69425 0.10427 0.45358 0.0
H983 H 0.67168 0.11601 0.41975 0.0
H984 H 0.69749 0.1359 0.49428 0.0
H985 H 0.781 0.12286 0.45403 0.0
H986 H 0.76744 0.15433 0.4453 0.0
H987 H 0.75504 0.12152 0.43793 0.0
C988 C 0.70533 0.17323 0.42155 0.0
C989 C 0.68834 0.15531 0.41369 0.0
C990 C 0.71821 0.16639 0.44064 0.0
C991 C 0.71447 0.14148 0.45231 0.0
C992 C 0.69754 0.12346 0.44462 0.0
H993 H 0.80693 0.1164 0.56866 0.0
H994 H 0.78405 0.10443 0.53511 0.0
C995 C 0.68467 0.13021 0.42532 0.0
C996 C 0.72735 0.13565 0.47343 0.0
H997 H 0.78103 0.13475 0.4942 0.0
C998 C 0.71574 0.13498 0.49427 0.0
C999 C 0.75112 0.13401 0.47337 0.0
C1000 C 0.76437 0.13292 0.45142 0.0
C1001 C 0.72739 0.13495 0.51514 0.0
C1002 C 0.75119 0.13595 0.51506 0.0
C1003 C 0.76277 0.13433 0.49423 0.0
C1004 C 0.76421 0.14195 0.53607 0.0
C1005 C 0.71411 0.13483 0.53709 0.0
C1006 C 0.76079 0.16711 0.54746 0.0
C1007 C 0.77383 0.17406 0.56642 0.0
C1008 C 0.79068 0.15603 0.57439 0.0
C1009 C 0.79405 0.13071 0.563 0.0
C1010 C 0.781 0.12382 0.54387 0.0
H1011 H 0.69736 0.125 0.53469 0.0
H1012 H 0.72328 0.12372 0.55085 0.0
H1013 H 0.71129 0.15649 0.54271 0.0
H1014 H 0.74829 0.1817 0.5414 0.0
H1015 H 0.77076 0.19374 0.57471 0.0
H1016 H 0.20854 0.30351 0.57413 0.0
H1017 H 0.23133 0.31601 0.54121 0.0
H1018 H 0.19513 0.39296 0.53474 0.0
H1019 H 0.17193 0.38052 0.56792 0.0
H1020 H 0.19881 0.3629 0.49372 0.0
H1021 H 0.28195 0.37328 0.53531 0.0
H1022 H 0.26815 0.34164 0.54314 0.0
H1023 H 0.25585 0.37428 0.55113 0.0
C1024 C 0.20544 0.32322 0.56589 0.0
C1025 C 0.18836 0.34101 0.57369 0.0
C1026 C 0.21867 0.33044 0.54716 0.0
C1027 C 0.21521 0.35563 0.5358 0.0
C1028 C 0.19821 0.37355 0.54346 0.0
H1029 H 0.30957 0.38232 0.42144 0.0
H1030 H 0.28647 0.39365 0.45493 0.0
C1031 C 0.18498 0.3664 0.56239 0.0
C1032 C 0.22842 0.36185 0.51498 0.0
H1033 H 0.28234 0.36231 0.49492 0.0
C1034 C 0.21706 0.36343 0.49399 0.0
C1035 C 0.25221 0.36303 0.51537 0.0
C1036 C 0.26525 0.36327 0.53749 0.0
C1037 C 0.22894 0.3639 0.47328 0.0
C1038 C 0.25272 0.36237 0.47364 0.0
C1039 C 0.26409 0.36309 0.49465 0.0
C1040 C 0.2659 0.3568 0.45266 0.0
C1041 C 0.2159 0.36509 0.45118 0.0
C1042 C 0.26214 0.33221 0.44052 0.0
C1043 C 0.2753 0.32562 0.42158 0.0
C1044 C 0.29263 0.34344 0.41437 0.0
C1045 C 0.29633 0.36818 0.4265 0.0
C1046 C 0.28316 0.37471 0.4456 0.0
H1047 H 0.19933 0.37532 0.4536 0.0
H1048 H 0.22542 0.37638 0.43777 0.0
H1049 H 0.21273 0.3437 0.44506 0.0
H1050 H 0.24929 0.31776 0.44599 0.0
H1051 H 0.27197 0.30638 0.41271 0.0
H1052 H 0.09764 0.75379 0.88874 0.0
H1053 H 0.0598 0.77176 0.89515 0.0
H1054 H 0.03194 0.69095 0.88191 0.0
H1055 H 0.06981 0.67262 0.87539 0.0
H1056 H 0.02644 0.76862 0.85947 0.0
H1057 H -0.00198 0.71908 0.94011 0.0
H1058 H 0.02741 0.7227 0.93269 0.0
H1059 H 0.01061 0.69626 0.91948 0.0
C1060 C 0.08355 0.73963 0.88757 0.0
C1061 C 0.08677 0.71176 0.88137 0.0
C1062 C 0.06193 0.74999 0.89127 0.0
C1063 C 0.04316 0.73265 0.88914 0.0
C1064 C 0.0463 0.70456 0.88396 0.0
H1065 H 0.90072 0.74566 0.8774 0.0
H1066 H 0.93973 0.73242 0.88399 0.0
C1067 C 0.06794 0.69416 0.88013 0.0
C1068 C 0.02026 0.74459 0.88977 0.0
H1069 H 0.97004 0.74182 0.91786 0.0
C1070 C 0.01414 0.76307 0.87237 0.0
C1071 C 0.00436 0.73711 0.90657 0.0
C1072 C 0.01038 0.71786 0.92591 0.0
C1073 C 0.99218 0.7735 0.87076 0.0
C1074 C 0.9761 0.76581 0.88743 0.0
C1075 C 0.98242 0.7478 0.90517 0.0
C1076 C 0.95222 0.77444 0.88564 0.0
C1077 C 0.98617 0.79154 0.85059 0.0
C1078 C 0.94616 0.80253 0.885 0.0
C1079 C 0.92381 0.81024 0.88092 0.0
C1080 C 0.90712 0.78994 0.87777 0.0
C1081 C 0.91313 0.76186 0.87963 0.0
C1082 C 0.93544 0.75421 0.88347 0.0
H1083 H -0.00119 0.78993 0.83667 0.0
H1084 H 0.96943 0.78588 0.84356 0.0
H1085 H 0.98553 0.81347 0.85616 0.0
H1086 H 0.95878 0.81848 0.8872 0.0
H1087 H 0.9197 0.83204 0.87985 0.0
H1088 H 0.06379 0.32539 0.61527 0.0
H1089 H 0.02509 0.30963 0.60875 0.0
H1090 H 0.0497 0.22912 0.58928 0.0
H1091 H 0.08833 0.2445 0.59568 0.0
H1092 H 0.00291 0.27942 0.56761 0.0
H1093 H 0.00907 0.22017 0.64904 0.0
H1094 H 0.02772 0.24857 0.64241 0.0
H1095 H 0.03147 0.21569 0.6287 0.0
C1096 C 0.06101 0.30449 0.60918 0.0
C1097 C 0.07914 0.28609 0.6063 0.0
C1098 C 0.03891 0.29557 0.60543 0.0
C1099 C 0.03466 0.26818 0.59878 0.0
C1100 C 0.05273 0.25029 0.59457 0.0
H1101 H 0.91187 0.17108 0.60827 0.0
H1102 H 0.95049 0.18561 0.60018 0.0
C1103 C 0.07478 0.25915 0.59828 0.0
C1104 C 0.0114 0.25746 0.59841 0.0
H1105 H 0.97527 0.21656 0.62849 0.0
C1106 C -0.0032 0.26561 0.58083 0.0
C1107 C 0.00366 0.23937 0.61566 0.0
C1108 C 0.01867 0.23047 0.63515 0.0
C1109 C 0.97448 0.25599 0.58004 0.0
C1110 C 0.96658 0.23832 0.59759 0.0
C1111 C 0.98137 0.22997 0.61498 0.0
C1112 C 0.94277 0.22938 0.5992 0.0
C1113 C 0.95972 0.26458 0.5603 0.0
C1114 C 0.92557 0.24912 0.60105 0.0
C1115 C 0.90348 0.24089 0.60552 0.0
C1116 C 0.89821 0.21274 0.60859 0.0
C1117 C 0.91536 0.19292 0.60606 0.0
C1118 C 0.93743 0.20119 0.60142 0.0
H1119 H 0.9699 0.27 0.54502 0.0
H1120 H 0.9477 0.24793 0.55558 0.0
H1121 H 0.94994 0.28321 0.56523 0.0
H1122 H 0.92935 0.27101 0.60001 0.0
H1123 H 0.89073 0.25673 0.60747 0.0
H1124 H 0.58791 0.2533 0.38193 0.0
H1125 H 0.5492 0.26716 0.38921 0.0
H1126 H 0.52782 0.18206 0.38411 0.0
H1127 H 0.56661 0.16797 0.37617 0.0
H1128 H 0.50355 0.21527 0.35711 0.0
H1129 H 0.50768 0.26223 0.4432 0.0
H1130 H 0.52814 0.27686 0.42423 0.0
H1131 H 0.52998 0.24084 0.43194 0.0
C1132 C 0.57508 0.23739 0.38273 0.0
C1133 C 0.58038 0.2095 0.37834 0.0
C1134 C 0.55294 0.24537 0.38712 0.0
C1135 C 0.53564 0.22562 0.38757 0.0
C1136 C 0.54095 0.19763 0.38398 0.0
H1137 H 0.39007 0.24445 0.38855 0.0
H1138 H 0.42819 0.22725 0.39494 0.0
C1139 C 0.56312 0.18961 0.37943 0.0
C1140 C 0.51184 0.23463 0.38919 0.0
H1141 H 0.47542 0.27438 0.42027 0.0
C1142 C 0.49733 0.22782 0.37111 0.0
C1143 C 0.50376 0.25116 0.40741 0.0
C1144 C 0.51816 0.25796 0.42789 0.0
C1145 C 0.4752 0.2378 0.37037 0.0
C1146 C 0.46734 0.25489 0.38825 0.0
C1147 C 0.48163 0.26137 0.40655 0.0
C1148 C 0.44432 0.26639 0.38778 0.0
C1149 C 0.46052 0.23067 0.35014 0.0
C1150 C 0.44084 0.29436 0.38244 0.0
C1151 C 0.41903 0.30434 0.37871 0.0
C1152 C 0.40042 0.28643 0.3803 0.0
C1153 C 0.40401 0.25878 0.38697 0.0
C1154 C 0.42577 0.24887 0.39066 0.0
H1155 H 0.47026 0.22098 0.33605 0.0
H1156 H 0.44726 0.2159 0.35559 0.0
H1157 H 0.45204 0.2495 0.34348 0.0
H1158 H 0.45505 0.30815 0.38017 0.0
H1159 H 0.41687 0.32575 0.37368 0.0
H1160 H 0.62349 0.56072 0.66319 0.0
H1161 H 0.62137 0.51949 0.68749 0.0
H1162 H 0.61151 0.57115 0.74668 0.0
H1163 H 0.61356 0.61236 0.72273 0.0
H1164 H 0.64799 0.53098 0.74927 0.0
H1165 H 0.56633 0.48487 0.72237 0.0
H1166 H 0.58524 0.49504 0.69988 0.0
H1167 H 0.57302 0.52097 0.71797 0.0
C1168 C 0.62056 0.56331 0.68133 0.0
C1169 C 0.61877 0.58987 0.691 0.0
C1170 C 0.61927 0.53973 0.69516 0.0
C1171 C 0.61615 0.54236 0.71882 0.0
C1172 C 0.61385 0.56875 0.72843 0.0
H1173 H 0.6253 0.42734 0.83353 0.0
H1174 H 0.62141 0.46882 0.80982 0.0
C1175 C 0.61502 0.59227 0.71467 0.0
C1176 C 0.61688 0.5178 0.73385 0.0
H1177 H 0.58887 0.45848 0.74762 0.0
C1178 C 0.63504 0.51515 0.74903 0.0
C1179 C 0.59999 0.49726 0.73333 0.0
C1180 C 0.57992 0.49961 0.71765 0.0
C1181 C 0.63701 0.49211 0.76347 0.0
C1182 C 0.62003 0.47157 0.7631 0.0
C1183 C 0.60181 0.47432 0.74795 0.0
C1184 C 0.6213 0.44657 0.77771 0.0
C1185 C 0.65762 0.48959 0.77843 0.0
C1186 C 0.62173 0.42029 0.76758 0.0
C1187 C 0.62367 0.39659 0.78106 0.0
C1188 C 0.62524 0.39867 0.80499 0.0
C1189 C 0.62434 0.42503 0.81515 0.0
C1190 C 0.62224 0.44876 0.80162 0.0
H1191 H 0.67158 0.50299 0.77231 0.0
H1192 H 0.65332 0.49614 0.79606 0.0
H1193 H 0.66371 0.46788 0.77908 0.0
H1194 H 0.62095 0.41813 0.74917 0.0
H1195 H 0.62427 0.37665 0.77263 0.0
H1196 H 0.36695 0.06774 0.83067 0.0
H1197 H 0.37277 0.02687 0.8067 0.0
H1198 H 0.36987 0.07798 0.74636 0.0
H1199 H 0.36454 0.1189 0.77007 0.0
H1200 H 0.34283 0.00775 0.77526 0.0
H1201 H 0.42415 0.03016 0.73278 0.0
H1202 H 0.41466 0.04887 0.75767 0.0
H1203 H 0.40406 0.05765 0.72979 0.0
C1204 C 0.36794 0.07036 0.81232 0.0
C1205 C 0.36525 0.09662 0.80231 0.0
C1206 C 0.37126 0.04698 0.79865 0.0
C1207 C 0.37204 0.04942 0.77476 0.0
C1208 C 0.36987 0.07567 0.76476 0.0
H1209 H 0.36128 0.93331 0.66213 0.0
H1210 H 0.36421 0.97487 0.68603 0.0
C1211 C 0.36665 0.09905 0.77839 0.0
C1212 C 0.37303 0.02434 0.76022 0.0
H1213 H 0.40202 0.99365 0.71664 0.0
C1214 C 0.35591 0.00454 0.76261 0.0
C1215 C 0.39002 0.02031 0.7436 0.0
C1216 C 0.40939 0.04025 0.74092 0.0
C1217 C 0.35506 0.98107 0.74857 0.0
C1218 C 0.37191 0.97717 0.73186 0.0
C1219 C 0.38909 0.99685 0.72944 0.0
C1220 C 0.37199 0.95243 0.71702 0.0
C1221 C 0.3359 0.96084 0.75141 0.0
C1222 C 0.37594 0.92626 0.7265 0.0
C1223 C 0.37431 0.90258 0.71298 0.0
C1224 C 0.3687 0.9046 0.68966 0.0
C1225 C 0.36554 0.931 0.68002 0.0
C1226 C 0.36723 0.95475 0.69362 0.0
H1227 H 0.32192 0.96967 0.76169 0.0
H1228 H 0.32918 0.95441 0.73451 0.0
H1229 H 0.34215 0.94204 0.76027 0.0
H1230 H 0.37989 0.92414 0.74449 0.0
H1231 H 0.37701 0.88263 0.72097 0.0
H1232 H 0.41538 0.23324 0.84496 0.0
H1233 H 0.44842 0.25348 0.86264 0.0
H1234 H 0.43672 0.20581 0.92378 0.0
H1235 H 0.40322 0.18491 0.90597 0.0
H1236 H 0.45085 0.28429 0.9053 0.0
H1237 H 0.50319 0.18835 0.90438 0.0
H1238 H 0.47834 0.19096 0.88675 0.0
H1239 H 0.4756 0.18799 0.91715 0.0
C1240 C 0.41968 0.22691 0.86218 0.0
C1241 C 0.40663 0.20734 0.87401 0.0
C1242 C 0.43857 0.23866 0.8723 0.0
C1243 C 0.44496 0.23119 0.8945 0.0
C1244 C 0.43207 0.21174 0.90657 0.0
H1245 H 0.58278 0.29605 0.91242 0.0
H1246 H 0.54703 0.27951 0.92895 0.0
C1247 C 0.41298 0.19984 0.89637 0.0
C1248 C 0.4657 0.24365 0.90398 0.0
H1249 H 0.52213 0.23094 0.90548 0.0
C1250 C 0.4664 0.27256 0.90627 0.0
C1251 C 0.48589 0.22827 0.90544 0.0
C1252 C 0.48595 0.19716 0.90332 0.0
C1253 C 0.48697 0.28669 0.90722 0.0
C1254 C 0.50719 0.27148 0.90583 0.0
C1255 C 0.5065 0.24247 0.90649 0.0
C1256 C 0.52808 0.28471 0.89768 0.0
C1257 C 0.48701 0.31788 0.90752 0.0
C1258 C 0.52905 0.29313 0.87478 0.0
C1259 C 0.54928 0.30193 0.8653 0.0
C1260 C 0.56891 0.30285 0.87862 0.0
C1261 C 0.56778 0.29569 0.90189 0.0
C1262 C 0.54748 0.28624 0.91131 0.0
H1263 H 0.47133 0.32615 0.9153 0.0
H1264 H 0.50176 0.32595 0.91711 0.0
H1265 H 0.48803 0.32566 0.88971 0.0
H1266 H 0.51428 0.29174 0.86394 0.0
H1267 H 0.54969 0.3074 0.84735 0.0
H1268 H 0.33849 0.55704 0.16768 0.0
H1269 H 0.34542 0.52217 0.19699 0.0
H1270 H 0.40539 0.56566 0.21801 0.0
H1271 H 0.3981 0.60128 0.18915 0.0
H1272 H 0.37876 0.48678 0.20651 0.0
H1273 H 0.3706 0.56313 0.27702 0.0
H1274 H 0.36384 0.57152 0.24781 0.0
H1275 H 0.39271 0.57053 0.25705 0.0
C1276 C 0.35331 0.55905 0.17834 0.0
C1277 C 0.36761 0.58209 0.17627 0.0
C1278 C 0.35725 0.53909 0.19512 0.0
C1279 C 0.37562 0.54164 0.21008 0.0
C1280 C 0.39075 0.56368 0.20711 0.0
H1281 H 0.39782 0.40207 0.30426 0.0
H1282 H 0.40566 0.43869 0.27646 0.0
C1283 C 0.38667 0.58388 0.19047 0.0
C1284 C 0.37815 0.52174 0.22926 0.0
H1285 H 0.37768 0.51694 0.2875 0.0
C1286 C 0.37873 0.49335 0.22423 0.0
C1287 C 0.37783 0.53039 0.25238 0.0
C1288 C 0.37601 0.56051 0.25898 0.0
C1289 C 0.3783 0.47334 0.24161 0.0
C1290 C 0.37802 0.48198 0.26474 0.0
C1291 C 0.37811 0.51038 0.26979 0.0
C1292 C 0.37538 0.46195 0.28381 0.0
C1293 C 0.37694 0.44319 0.23494 0.0
C1294 C 0.35658 0.46384 0.29824 0.0
C1295 C 0.35232 0.4433 0.31446 0.0
C1296 C 0.36672 0.42035 0.31644 0.0
C1297 C 0.3863 0.41937 0.30297 0.0
C1298 C 0.3907 0.44014 0.28694 0.0
H1299 H 0.37191 0.44052 0.21678 0.0
H1300 H 0.39371 0.43346 0.23721 0.0
H1301 H 0.36467 0.43195 0.24583 0.0
H1302 H 0.3446 0.48059 0.29626 0.0
H1303 H 0.33711 0.44468 0.32459 0.0
H1304 H 0.64556 0.05386 0.32288 0.0
H1305 H 0.63915 0.01782 0.29439 0.0
H1306 H 0.57975 0.0606 0.2709 0.0
H1307 H 0.58654 0.09735 0.29888 0.0
H1308 H 0.6062 0.98199 0.28425 0.0
H1309 H 0.61632 0.05707 0.2131 0.0
H1310 H 0.62221 0.066 0.24239 0.0
H1311 H 0.59363 0.06495 0.23224 0.0
C1312 C 0.63094 0.05543 0.31189 0.0
C1313 C 0.61672 0.07864 0.31293 0.0
C1314 C 0.6273 0.03481 0.29557 0.0
C1315 C 0.60931 0.03687 0.28009 0.0
C1316 C 0.59413 0.059 0.2822 0.0
H1317 H 0.58719 0.8968 0.18632 0.0
H1318 H 0.58002 0.93317 0.21453 0.0
C1319 C 0.59792 0.07985 0.29834 0.0
C1320 C 0.60735 0.01658 0.26113 0.0
H1321 H 0.60891 0.01083 0.20296 0.0
C1322 C 0.60662 0.98828 0.26646 0.0
C1323 C 0.60821 0.02484 0.23791 0.0
C1324 C 0.61035 0.05483 0.23099 0.0
C1325 C 0.60727 0.96797 0.24931 0.0
C1326 C 0.60797 0.97624 0.22609 0.0
C1327 C 0.60815 0.00455 0.22074 0.0
C1328 C 0.61058 0.95592 0.20723 0.0
C1329 C 0.60833 0.93792 0.25631 0.0
C1330 C 0.6294 0.95753 0.19279 0.0
C1331 C 0.63328 0.93713 0.17635 0.0
C1332 C 0.61848 0.9146 0.17413 0.0
C1333 C 0.59901 0.91378 0.18777 0.0
C1334 C 0.595 0.9344 0.20405 0.0
H1335 H 0.61319 0.93549 0.27453 0.0
H1336 H 0.59149 0.92837 0.25401 0.0
H1337 H 0.62057 0.92636 0.24564 0.0
H1338 H 0.64158 0.97404 0.19482 0.0
H1339 H 0.64843 0.93838 0.16612 0.0
H1340 H 0.5905 0.76434 0.07397 0.0
H1341 H 0.55239 0.74963 0.06373 0.0
H1342 H 0.5257 0.79906 0.11889 0.0
H1343 H 0.56354 0.81523 0.12801 0.0
H1344 H 0.5265 0.71952 0.08613 0.0
H1345 H 0.47973 0.81636 0.07322 0.0
H1346 H 0.51002 0.8159 0.07514 0.0
H1347 H 0.49298 0.81779 0.10064 0.0
C1348 C 0.57637 0.77263 0.08344 0.0
C1349 C 0.57987 0.79102 0.10167 0.0
C1350 C 0.55461 0.76417 0.07764 0.0
C1351 C 0.53599 0.77347 0.0903 0.0
C1352 C 0.53955 0.7923 0.10827 0.0
H1353 H 0.42075 0.68052 0.12744 0.0
H1354 H 0.45843 0.69736 0.11865 0.0
C1355 C 0.56124 0.8014 0.11362 0.0
C1356 C 0.51334 0.76117 0.08651 0.0
H1357 H 0.45742 0.77698 0.08632 0.0
C1358 C 0.51143 0.73218 0.08565 0.0
C1359 C 0.49357 0.77745 0.08523 0.0
C1360 C 0.49425 0.80859 0.08332 0.0
C1361 C 0.49037 0.71909 0.08499 0.0
C1362 C 0.47061 0.73535 0.08639 0.0
C1363 C 0.4725 0.76435 0.08576 0.0
C1364 C 0.44799 0.72296 0.0901 0.0
C1365 C 0.48969 0.68798 0.08283 0.0
C1366 C 0.42934 0.73209 0.07738 0.0
C1367 C 0.40765 0.72318 0.08294 0.0
C1368 C 0.40425 0.70457 0.10106 0.0
C1369 C 0.42294 0.6945 0.11314 0.0
C1370 C 0.44455 0.70399 0.10799 0.0
H1371 H 0.50422 0.68032 0.07269 0.0
H1372 H 0.49094 0.67856 0.10007 0.0
H1373 H 0.47392 0.68077 0.07454 0.0
H1374 H 0.43149 0.74674 0.06354 0.0
H1375 H 0.39348 0.73126 0.07337 0.0
loop_
_geom_bond_atom_site_label_1
_geom_bond_atom_site_label_2
_geom_bond_distance
_geom_bond_site_symmetry_2
_ccdc_geom_bond_type
C0 O1 1.306 . S
C0 O3 1.160 . S
O1 C0 1.306 . S
O1 Cd2 2.228 . S
Cd2 O1 2.228 . S
Cd2 O6 2.273 . S
Cd2 O10 2.277 . S
O3 C0 1.160 . S
O3 Cd4 2.203 . S
Cd4 O3 2.203 . S
Cd4 O6 2.411 . S
Cd4 O7 2.333 . S
Cd4 O8 2.352 . S
Cd4 O12 2.277 . S
Cd4 O13 2.356 . S
C5 O10 1.209 . S
C5 O12 1.226 . S
O6 Cd2 2.273 . S
O6 Cd4 2.411 . S
O6 C9 1.320 . S
O7 Cd4 2.333 . S
O7 C9 1.214 . S
O8 Cd4 2.352 . S
O8 C11 1.258 . S
C9 O6 1.320 . S
C9 O7 1.214 . S
O10 Cd2 2.277 . S
O10 C5 1.209 . S
C11 O8 1.258 . S
C11 O13 1.282 . S
O12 Cd4 2.277 . S
O12 C5 1.226 . S
O13 Cd4 2.356 . S
O13 C11 1.282 . S
C14 O15 1.306 . S
C14 O17 1.160 . S
O15 C14 1.306 . S
O15 Cd16 2.228 . S
Cd16 O15 2.228 . S
Cd16 O20 2.273 . S
Cd16 O24 2.277 . S
O17 C14 1.160 . S
O17 Cd18 2.203 . S
Cd18 O17 2.203 . S
Cd18 O20 2.411 . S
Cd18 O21 2.333 . S
Cd18 O22 2.352 . S
Cd18 O26 2.277 . S
Cd18 O27 2.356 . S
C19 O24 1.209 . S
C19 O26 1.226 . S
O20 Cd16 2.273 . S
O20 Cd18 2.411 . S
O20 C23 1.320 . S
O21 Cd18 2.333 . S
O21 C23 1.214 . S
O22 Cd18 2.352 . S
O22 C25 1.258 . S
C23 O20 1.320 . S
C23 O21 1.214 . S
O24 Cd16 2.277 . S
O24 C19 1.209 . S
C25 O22 1.258 . S
C25 O27 1.282 . S
O26 Cd18 2.277 . S
O26 C19 1.226 . S
O27 Cd18 2.356 . S
O27 C25 1.282 . S
C28 O29 1.306 . S
C28 O31 1.160 . S
O29 C28 1.306 . S
O29 Cd30 2.228 . S
Cd30 O29 2.228 . S
Cd30 O34 2.273 . S
Cd30 O38 2.277 . S
O31 C28 1.160 . S
O31 Cd32 2.203 . S
Cd32 O31 2.203 . S
Cd32 O34 2.411 . S
Cd32 O35 2.333 . S
Cd32 O36 2.352 . S
Cd32 O40 2.277 . S
Cd32 O41 2.356 . S
C33 O38 1.209 . S
C33 O40 1.226 . S
O34 Cd30 2.273 . S
O34 Cd32 2.411 . S
O34 C37 1.320 . S
O35 Cd32 2.333 . S
O35 C37 1.214 . S
O36 Cd32 2.352 . S
O36 C39 1.258 . S
C37 O34 1.320 . S
C37 O35 1.214 . S
O38 Cd30 2.277 . S
O38 C33 1.209 . S
C39 O36 1.258 . S
C39 O41 1.282 . S
O40 Cd32 2.277 . S
O40 C33 1.226 . S
O41 Cd32 2.356 . S
O41 C39 1.282 . S
C42 O43 1.306 . S
C42 O45 1.160 . S
O43 C42 1.306 . S
O43 Cd44 2.228 . S
Cd44 O43 2.228 . S
Cd44 O48 2.273 . S
Cd44 O52 2.277 . S
O45 C42 1.160 . S
O45 Cd46 2.203 . S
Cd46 O45 2.203 . S
Cd46 O48 2.411 . S
Cd46 O49 2.333 . S
Cd46 O50 2.352 . S
Cd46 O54 2.277 . S
Cd46 O55 2.356 . S
C47 O52 1.209 . S
C47 O54 1.226 . S
O48 Cd44 2.273 . S
O48 Cd46 2.411 . S
O48 C51 1.320 . S
O49 Cd46 2.333 . S
O49 C51 1.214 . S
O50 Cd46 2.352 . S
O50 C53 1.258 . S
C51 O48 1.320 . S
C51 O49 1.214 . S
O52 Cd44 2.277 . S
O52 C47 1.209 . S
C53 O50 1.258 . S
C53 O55 1.282 . S
O54 Cd46 2.277 . S
O54 C47 1.226 . S
O55 Cd46 2.356 . S
O55 C53 1.282 . S
C56 O57 1.306 . S
C56 O59 1.160 . S
O57 C56 1.306 . S
O57 Cd58 2.228 . S
Cd58 O57 2.228 . S
Cd58 O62 2.273 . S
Cd58 O66 2.277 . S
O59 C56 1.160 . S
O59 Cd60 2.203 . S
Cd60 O59 2.203 . S
Cd60 O62 2.411 . S
Cd60 O63 2.333 . S
Cd60 O64 2.352 . S
Cd60 O68 2.277 . S
Cd60 O69 2.356 . S
C61 O66 1.209 . S
C61 O68 1.226 . S
O62 Cd58 2.273 . S
O62 Cd60 2.411 . S
O62 C65 1.320 . S
O63 Cd60 2.333 . S
O63 C65 1.214 . S
O64 Cd60 2.352 . S
O64 C67 1.258 . S
C65 O62 1.320 . S
C65 O63 1.214 . S
O66 Cd58 2.277 . S
O66 C61 1.209 . S
C67 O64 1.258 . S
C67 O69 1.282 . S
O68 Cd60 2.277 . S
O68 C61 1.226 . S
O69 Cd60 2.356 . S
O69 C67 1.282 . S
C70 O71 1.306 . S
C70 O73 1.160 . S
O71 C70 1.306 . S
O71 Cd72 2.228 . S
Cd72 O71 2.228 . S
Cd72 O76 2.273 . S
Cd72 O80 2.277 . S
O73 C70 1.160 . S
O73 Cd74 2.203 . S
Cd74 O73 2.203 . S
Cd74 O76 2.411 . S
Cd74 O77 2.333 . S
Cd74 O78 2.352 . S
Cd74 O82 2.277 . S
Cd74 O83 2.356 . S
C75 O80 1.209 . S
C75 O82 1.226 . S
O76 Cd72 2.273 . S
O76 Cd74 2.411 . S
O76 C79 1.320 . S
O77 Cd74 2.333 . S
O77 C79 1.214 . S
O78 Cd74 2.352 . S
O78 C81 1.258 . S
C79 O76 1.320 . S
C79 O77 1.214 . S
O80 Cd72 2.277 . S
O80 C75 1.209 . S
C81 O78 1.258 . S
C81 O83 1.282 . S
O82 Cd74 2.277 . S
O82 C75 1.226 . S
O83 Cd74 2.356 . S
O83 C81 1.282 . S
C84 O85 1.306 . S
C84 O87 1.160 . S
O85 C84 1.306 . S
O85 Cd86 2.228 . S
Cd86 O85 2.228 . S
Cd86 O90 2.273 . S
Cd86 O94 2.277 . S
O87 C84 1.160 . S
O87 Cd88 2.203 . S
Cd88 O87 2.203 . S
Cd88 O90 2.411 . S
Cd88 O91 2.333 . S
Cd88 O92 2.352 . S
Cd88 O96 2.277 . S
Cd88 O97 2.356 . S
C89 O94 1.209 . S
C89 O96 1.226 . S
O90 Cd86 2.273 . S
O90 Cd88 2.411 . S
O90 C93 1.320 . S
O91 Cd88 2.333 . S
O91 C93 1.214 . S
O92 Cd88 2.352 . S
O92 C95 1.258 . S
C93 O90 1.320 . S
C93 O91 1.214 . S
O94 Cd86 2.277 . S
O94 C89 1.209 . S
C95 O92 1.258 . S
C95 O97 1.282 . S
O96 Cd88 2.277 . S
O96 C89 1.226 . S
O97 Cd88 2.356 . S
O97 C95 1.282 . S
C98 O99 1.306 . S
C98 O101 1.160 . S
O99 C98 1.306 . S
O99 Cd100 2.228 . S
Cd100 O99 2.228 . S
Cd100 O104 2.273 . S
Cd100 O108 2.277 . S
O101 C98 1.160 . S
O101 Cd102 2.203 . S
Cd102 O101 2.203 . S
Cd102 O104 2.411 . S
Cd102 O105 2.333 . S
Cd102 O106 2.352 . S
Cd102 O110 2.277 . S
Cd102 O111 2.356 . S
C103 O108 1.209 . S
C103 O110 1.226 . S
O104 Cd100 2.273 . S
O104 Cd102 2.411 . S
O104 C107 1.320 . S
O105 Cd102 2.333 . S
O105 C107 1.214 . S
O106 Cd102 2.352 . S
O106 C109 1.258 . S
C107 O104 1.320 . S
C107 O105 1.214 . S
O108 Cd100 2.277 . S
O108 C103 1.209 . S
C109 O106 1.258 . S
C109 O111 1.282 . S
O110 Cd102 2.277 . S
O110 C103 1.226 . S
O111 Cd102 2.356 . S
O111 C109 1.282 . S
C112 O113 1.306 . S
C112 O115 1.160 . S
O113 C112 1.306 . S
O113 Cd114 2.228 . S
Cd114 O113 2.228 . S
Cd114 O118 2.273 . S
Cd114 O122 2.277 . S
O115 C112 1.160 . S
O115 Cd116 2.203 . S
Cd116 O115 2.203 . S
Cd116 O118 2.411 . S
Cd116 O119 2.333 . S
Cd116 O120 2.352 . S
Cd116 O124 2.277 . S
Cd116 O125 2.356 . S
C117 O122 1.209 . S
C117 O124 1.226 . S
O118 Cd114 2.273 . S
O118 Cd116 2.411 . S
O118 C121 1.320 . S
O119 Cd116 2.333 . S
O119 C121 1.214 . S
O120 Cd116 2.352 . S
O120 C123 1.258 . S
C121 O118 1.320 . S
C121 O119 1.214 . S
O122 Cd114 2.277 . S
O122 C117 1.209 . S
C123 O120 1.258 . S
C123 O125 1.282 . S
O124 Cd116 2.277 . S
O124 C117 1.226 . S
O125 Cd116 2.356 . S
O125 C123 1.282 . S
C126 O127 1.306 . S
C126 O129 1.160 . S
O127 C126 1.306 . S
O127 Cd128 2.228 . S
Cd128 O127 2.228 . S
Cd128 O132 2.273 . S
Cd128 O136 2.277 . S
O129 C126 1.160 . S
O129 Cd130 2.203 . S
Cd130 O129 2.203 . S
Cd130 O132 2.411 . S
Cd130 O133 2.333 . S
Cd130 O134 2.352 . S
Cd130 O138 2.277 . S
Cd130 O139 2.356 . S
C131 O136 1.209 . S
C131 O138 1.226 . S
O132 Cd128 2.273 . S
O132 Cd130 2.411 . S
O132 C135 1.320 . S
O133 Cd130 2.333 . S
O133 C135 1.214 . S
O134 Cd130 2.352 . S
O134 C137 1.258 . S
C135 O132 1.320 . S
C135 O133 1.214 . S
O136 Cd128 2.277 . S
O136 C131 1.209 . S
C137 O134 1.258 . S
C137 O139 1.282 . S
O138 Cd130 2.277 . S
O138 C131 1.226 . S
O139 Cd130 2.356 . S
O139 C137 1.282 . S
C140 O141 1.306 . S
C140 O143 1.160 . S
O141 C140 1.306 . S
O141 Cd142 2.228 . S
Cd142 O141 2.228 . S
Cd142 O146 2.273 . S
Cd142 O150 2.277 . S
O143 C140 1.160 . S
O143 Cd144 2.203 . S
Cd144 O143 2.203 . S
Cd144 O146 2.411 . S
Cd144 O147 2.333 . S
Cd144 O148 2.352 . S
Cd144 O152 2.277 . S
Cd144 O153 2.356 . S
C145 O150 1.209 . S
C145 O152 1.226 . S
O146 Cd142 2.273 . S
O146 Cd144 2.411 . S
O146 C149 1.320 . S
O147 Cd144 2.333 . S
O147 C149 1.214 . S
O148 Cd144 2.352 . S
O148 C151 1.258 . S
C149 O146 1.320 . S
C149 O147 1.214 . S
O150 Cd142 2.277 . S
O150 C145 1.209 . S
C151 O148 1.258 . S
C151 O153 1.282 . S
O152 Cd144 2.277 . S
O152 C145 1.226 . S
O153 Cd144 2.356 . S
O153 C151 1.282 . S
C154 O155 1.306 . S
C154 O157 1.160 . S
O155 C154 1.306 . S
O155 Cd156 2.228 . S
Cd156 O155 2.228 . S
Cd156 O160 2.273 . S
Cd156 O164 2.277 . S
O157 C154 1.160 . S
O157 Cd158 2.203 . S
Cd158 O157 2.203 . S
Cd158 O160 2.411 . S
Cd158 O161 2.333 . S
Cd158 O162 2.352 . S
Cd158 O166 2.277 . S
Cd158 O167 2.356 . S
C159 O164 1.209 . S
C159 O166 1.226 . S
O160 Cd156 2.273 . S
O160 Cd158 2.411 . S
O160 C163 1.320 . S
O161 Cd158 2.333 . S
O161 C163 1.214 . S
O162 Cd158 2.352 . S
O162 C165 1.258 . S
C163 O160 1.320 . S
C163 O161 1.214 . S
O164 Cd156 2.277 . S
O164 C159 1.209 . S
C165 O162 1.258 . S
C165 O167 1.282 . S
O166 Cd158 2.277 . S
O166 C159 1.226 . S
O167 Cd158 2.356 . S
O167 C165 1.282 . S
C168 O169 1.306 . S
C168 O171 1.160 . S
O169 C168 1.306 . S
O169 Cd170 2.228 . S
Cd170 O169 2.228 . S
Cd170 O174 2.273 . S
Cd170 O178 2.277 . S
O171 C168 1.160 . S
O171 Cd172 2.203 . S
Cd172 O171 2.203 . S
Cd172 O174 2.411 . S
Cd172 O175 2.333 . S
Cd172 O176 2.352 . S
Cd172 O180 2.277 . S
Cd172 O181 2.356 . S
C173 O178 1.209 . S
C173 O180 1.226 . S
O174 Cd170 2.273 . S
O174 Cd172 2.411 . S
O174 C177 1.320 . S
O175 Cd172 2.333 . S
O175 C177 1.214 . S
O176 Cd172 2.352 . S
O176 C179 1.258 . S
C177 O174 1.320 . S
C177 O175 1.214 . S
O178 Cd170 2.277 . S
O178 C173 1.209 . S
C179 O176 1.258 . S
C179 O181 1.282 . S
O180 Cd172 2.277 . S
O180 C173 1.226 . S
O181 Cd172 2.356 . S
O181 C179 1.282 . S
C182 O183 1.306 . S
C182 O185 1.160 . S
O183 C182 1.306 . S
O183 Cd184 2.228 . S
Cd184 O183 2.228 . S
Cd184 O188 2.273 . S
Cd184 O192 2.277 . S
O185 C182 1.160 . S
O185 Cd186 2.203 . S
Cd186 O185 2.203 . S
Cd186 O188 2.411 . S
Cd186 O189 2.333 . S
Cd186 O190 2.352 . S
Cd186 O194 2.277 . S
Cd186 O195 2.356 . S
C187 O192 1.209 . S
C187 O194 1.226 . S
O188 Cd184 2.273 . S
O188 Cd186 2.411 . S
O188 C191 1.320 . S
O189 Cd186 2.333 . S
O189 C191 1.214 . S
O190 Cd186 2.352 . S
O190 C193 1.258 . S
C191 O188 1.320 . S
C191 O189 1.214 . S
O192 Cd184 2.277 . S
O192 C187 1.209 . S
C193 O190 1.258 . S
C193 O195 1.282 . S
O194 Cd186 2.277 . S
O194 C187 1.226 . S
O195 Cd186 2.356 . S
O195 C193 1.282 . S
C196 O197 1.306 . S
C196 O199 1.160 . S
O197 C196 1.306 . S
O197 Cd198 2.228 . S
Cd198 O197 2.228 . S
Cd198 O202 2.273 . S
Cd198 O206 2.277 . S
O199 C196 1.160 . S
O199 Cd200 2.203 . S
Cd200 O199 2.203 . S
Cd200 O202 2.411 . S
Cd200 O203 2.333 . S
Cd200 O204 2.352 . S
Cd200 O208 2.277 . S
Cd200 O209 2.356 . S
C201 O206 1.209 . S
C201 O208 1.226 . S
O202 Cd198 2.273 . S
O202 Cd200 2.411 . S
O202 C205 1.320 . S
O203 Cd200 2.333 . S
O203 C205 1.214 . S
O204 Cd200 2.352 . S
O204 C207 1.258 . S
C205 O202 1.320 . S
C205 O203 1.214 . S
O206 Cd198 2.277 . S
O206 C201 1.209 . S
C207 O204 1.258 . S
C207 O209 1.282 . S
O208 Cd200 2.277 . S
O208 C201 1.226 . S
O209 Cd200 2.356 . S
O209 C207 1.282 . S
C210 O211 1.306 . S
C210 O213 1.160 . S
O211 C210 1.306 . S
O211 Cd212 2.228 . S
Cd212 O211 2.228 . S
Cd212 O216 2.273 . S
Cd212 O220 2.277 . S
O213 C210 1.160 . S
O213 Cd214 2.203 . S
Cd214 O213 2.203 . S
Cd214 O216 2.411 . S
Cd214 O217 2.333 . S
Cd214 O218 2.352 . S
Cd214 O222 2.277 . S
Cd214 O223 2.356 . S
C215 O220 1.209 . S
C215 O222 1.226 . S
O216 Cd212 2.273 . S
O216 Cd214 2.411 . S
O216 C219 1.320 . S
O217 Cd214 2.333 . S
O217 C219 1.214 . S
O218 Cd214 2.352 . S
O218 C221 1.258 . S
C219 O216 1.320 . S
C219 O217 1.214 . S
O220 Cd212 2.277 . S
O220 C215 1.209 . S
C221 O218 1.258 . S
C221 O223 1.282 . S
O222 Cd214 2.277 . S
O222 C215 1.226 . S
O223 Cd214 2.356 . S
O223 C221 1.282 . S
H224 C232 0.929 . S
H225 C234 0.930 . S
H226 C236 0.930 . S
H227 C239 0.929 . S
H228 C242 0.930 . S
H229 C244 0.960 . S
H230 C244 0.960 . S
H231 C244 0.960 . S
C232 H224 0.929 . S
C232 C233 1.377 . S
C232 C234 1.384 . S
C233 C232 1.377 . S
C233 C239 1.390 . S
C234 H225 0.930 . S
C234 C232 1.384 . S
C234 C235 1.372 . S
C235 C234 1.372 . S
C235 C236 1.400 . S
C235 C240 1.490 . S
C236 H226 0.930 . S
C236 C235 1.400 . S
C236 C239 1.386 . S
H237 C253 0.930 . S
H238 C254 0.931 . S
C239 H227 0.929 . S
C239 C233 1.390 . S
C239 C236 1.386 . S
C240 C235 1.490 . S
C240 C242 1.395 . S
C240 C243 1.403 . S
H241 C247 0.930 . S
C242 H228 0.930 . S
C242 C240 1.395 . S
C242 C245 1.403 . S
C243 C240 1.403 . S
C243 C244 1.524 . S
C243 C247 1.400 . S
C244 H229 0.960 . S
C244 H230 0.960 . S
C244 H231 0.960 . S
C244 C243 1.524 . S
C245 C242 1.403 . S
C245 C246 1.392 . S
C245 C249 1.495 . S
C246 C245 1.392 . S
C246 C247 1.385 . S
C246 C248 1.478 . S
C247 H241 0.930 . S
C247 C243 1.400 . S
C247 C246 1.385 . S
C248 C246 1.478 . S
C248 C250 1.381 . S
C248 C254 1.383 . S
C249 C245 1.495 . S
C249 H255 0.959 . S
C249 H256 0.961 . S
C249 H257 0.960 . S
C250 C248 1.381 . S
C250 C251 1.394 . S
C250 H258 0.930 . S
C251 C250 1.394 . S
C251 C252 1.383 . S
C251 H259 0.929 . S
C252 C251 1.383 . S
C252 C253 1.377 . S
C253 H237 0.930 . S
C253 C252 1.377 . S
C253 C254 1.379 . S
C254 H238 0.931 . S
C254 C248 1.383 . S
C254 C253 1.379 . S
H255 C249 0.959 . S
H256 C249 0.961 . S
H257 C249 0.960 . S
H258 C250 0.930 . S
H259 C251 0.929 . S
H260 C268 0.929 . S
H261 C270 0.930 . S
H262 C272 0.930 . S
H263 C275 0.929 . S
H264 C278 0.930 . S
H265 C280 0.960 . S
H266 C280 0.960 . S
H267 C280 0.960 . S
C268 H260 0.929 . S
C268 C269 1.377 . S
C268 C270 1.384 . S
C269 C268 1.377 . S
C269 C275 1.390 . S
C270 H261 0.930 . S
C270 C268 1.384 . S
C270 C271 1.372 . S
C271 C270 1.372 . S
C271 C272 1.400 . S
C271 C276 1.490 . S
C272 H262 0.930 . S
C272 C271 1.400 . S
C272 C275 1.386 . S
H273 C289 0.930 . S
H274 C290 0.931 . S
C275 H263 0.929 . S
C275 C269 1.390 . S
C275 C272 1.386 . S
C276 C271 1.490 . S
C276 C278 1.395 . S
C276 C279 1.403 . S
H277 C283 0.930 . S
C278 H264 0.930 . S
C278 C276 1.395 . S
C278 C281 1.403 . S
C279 C276 1.403 . S
C279 C280 1.524 . S
C279 C283 1.400 . S
C280 H265 0.960 . S
C280 H266 0.960 . S
C280 H267 0.960 . S
C280 C279 1.524 . S
C281 C278 1.403 . S
C281 C282 1.392 . S
C281 C285 1.495 . S
C282 C281 1.392 . S
C282 C283 1.385 . S
C282 C284 1.478 . S
C283 H277 0.930 . S
C283 C279 1.400 . S
C283 C282 1.385 . S
C284 C282 1.478 . S
C284 C286 1.381 . S
C284 C290 1.383 . S
C285 C281 1.495 . S
C285 H291 0.959 . S
C285 H292 0.961 . S
C285 H293 0.960 . S
C286 C284 1.381 . S
C286 C287 1.394 . S
C286 H294 0.930 . S
C287 C286 1.394 . S
C287 C288 1.383 . S
C287 H295 0.929 . S
C288 C287 1.383 . S
C288 C289 1.377 . S
C289 H273 0.930 . S
C289 C288 1.377 . S
C289 C290 1.379 . S
C290 H274 0.931 . S
C290 C284 1.383 . S
C290 C289 1.379 . S
H291 C285 0.959 . S
H292 C285 0.961 . S
H293 C285 0.960 . S
H294 C286 0.930 . S
H295 C287 0.929 . S
H296 C304 0.929 . S
H297 C306 0.930 . S
H298 C308 0.930 . S
H299 C311 0.929 . S
H300 C314 0.930 . S
H301 C316 0.960 . S
H302 C316 0.960 . S
H303 C316 0.960 . S
C304 H296 0.929 . S
C304 C305 1.377 . S
C304 C306 1.384 . S
C305 C304 1.377 . S
C305 C311 1.390 . S
C306 H297 0.930 . S
C306 C304 1.384 . S
C306 C307 1.372 . S
C307 C306 1.372 . S
C307 C308 1.400 . S
C307 C312 1.490 . S
C308 H298 0.930 . S
C308 C307 1.400 . S
C308 C311 1.386 . S
H309 C325 0.930 . S
H310 C326 0.931 . S
C311 H299 0.929 . S
C311 C305 1.390 . S
C311 C308 1.386 . S
C312 C307 1.490 . S
C312 C314 1.395 . S
C312 C315 1.403 . S
H313 C319 0.930 . S
C314 H300 0.930 . S
C314 C312 1.395 . S
C314 C317 1.403 . S
C315 C312 1.403 . S
C315 C316 1.524 . S
C315 C319 1.400 . S
C316 H301 0.960 . S
C316 H302 0.960 . S
C316 H303 0.960 . S
C316 C315 1.524 . S
C317 C314 1.403 . S
C317 C318 1.392 . S
C317 C321 1.495 . S
C318 C317 1.392 . S
C318 C319 1.385 . S
C318 C320 1.478 . S
C319 H313 0.930 . S
C319 C315 1.400 . S
C319 C318 1.385 . S
C320 C318 1.478 . S
C320 C322 1.381 . S
C320 C326 1.383 . S
C321 C317 1.495 . S
C321 H327 0.959 . S
C321 H328 0.961 . S
C321 H329 0.960 . S
C322 C320 1.381 . S
C322 C323 1.394 . S
C322 H330 0.930 . S
C323 C322 1.394 . S
C323 C324 1.383 . S
C323 H331 0.929 . S
C324 C323 1.383 . S
C324 C325 1.377 . S
C325 H309 0.930 . S
C325 C324 1.377 . S
C325 C326 1.379 . S
C326 H310 0.931 . S
C326 C320 1.383 . S
C326 C325 1.379 . S
H327 C321 0.959 . S
H328 C321 0.961 . S
H329 C321 0.960 . S
H330 C322 0.930 . S
H331 C323 0.929 . S
H332 C340 0.929 . S
H333 C342 0.930 . S
H334 C344 0.930 . S
H335 C347 0.929 . S
H336 C350 0.930 . S
H337 C352 0.960 . S
H338 C352 0.960 . S
H339 C352 0.960 . S
C340 H332 0.929 . S
C340 C341 1.377 . S
C340 C342 1.384 . S
C341 C340 1.377 . S
C341 C347 1.390 . S
C342 H333 0.930 . S
C342 C340 1.384 . S
C342 C343 1.372 . S
C343 C342 1.372 . S
C343 C344 1.400 . S
C343 C348 1.490 . S
C344 H334 0.930 . S
C344 C343 1.400 . S
C344 C347 1.386 . S
H345 C361 0.930 . S
H346 C362 0.931 . S
C347 H335 0.929 . S
C347 C341 1.390 . S
C347 C344 1.386 . S
C348 C343 1.490 . S
C348 C350 1.395 . S
C348 C351 1.403 . S
H349 C355 0.930 . S
C350 H336 0.930 . S
C350 C348 1.395 . S
C350 C353 1.403 . S
C351 C348 1.403 . S
C351 C352 1.524 . S
C351 C355 1.400 . S
C352 H337 0.960 . S
C352 H338 0.960 . S
C352 H339 0.960 . S
C352 C351 1.524 . S
C353 C350 1.403 . S
C353 C354 1.392 . S
C353 C357 1.495 . S
C354 C353 1.392 . S
C354 C355 1.385 . S
C354 C356 1.478 . S
C355 H349 0.930 . S
C355 C351 1.400 . S
C355 C354 1.385 . S
C356 C354 1.478 . S
C356 C358 1.381 . S
C356 C362 1.383 . S
C357 C353 1.495 . S
C357 H363 0.959 . S
C357 H364 0.961 . S
C357 H365 0.960 . S
C358 C356 1.381 . S
C358 C359 1.394 . S
C358 H366 0.930 . S
C359 C358 1.394 . S
C359 C360 1.383 . S
C359 H367 0.929 . S
C360 C359 1.383 . S
C360 C361 1.377 . S
C361 H345 0.930 . S
C361 C360 1.377 . S
C361 C362 1.379 . S
C362 H346 0.931 . S
C362 C356 1.383 . S
C362 C361 1.379 . S
H363 C357 0.959 . S
H364 C357 0.961 . S
H365 C357 0.960 . S
H366 C358 0.930 . S
H367 C359 0.929 . S
H368 C376 0.929 . S
H369 C378 0.930 . S
H370 C380 0.930 . S
H371 C383 0.929 . S
H372 C386 0.930 . S
H373 C388 0.960 . S
H374 C388 0.960 . S
H375 C388 0.960 . S
C376 H368 0.929 . S
C376 C377 1.377 . S
C376 C378 1.384 . S
C377 C376 1.377 . S
C377 C383 1.390 . S
C378 H369 0.930 . S
C378 C376 1.384 . S
C378 C379 1.372 . S
C379 C378 1.372 . S
C379 C380 1.400 . S
C379 C384 1.490 . S
C380 H370 0.930 . S
C380 C379 1.400 . S
C380 C383 1.386 . S
H381 C397 0.930 . S
H382 C398 0.931 . S
C383 H371 0.929 . S
C383 C377 1.390 . S
C383 C380 1.386 . S
C384 C379 1.490 . S
C384 C386 1.395 . S
C384 C387 1.403 . S
H385 C391 0.930 . S
C386 H372 0.930 . S
C386 C384 1.395 . S
C386 C389 1.403 . S
C387 C384 1.403 . S
C387 C388 1.524 . S
C387 C391 1.400 . S
C388 H373 0.960 . S
C388 H374 0.960 . S
C388 H375 0.960 . S
C388 C387 1.524 . S
C389 C386 1.403 . S
C389 C390 1.392 . S
C389 C393 1.495 . S
C390 C389 1.392 . S
C390 C391 1.385 . S
C390 C392 1.478 . S
C391 H385 0.930 . S
C391 C387 1.400 . S
C391 C390 1.385 . S
C392 C390 1.478 . S
C392 C394 1.381 . S
C392 C398 1.383 . S
C393 C389 1.495 . S
C393 H399 0.959 . S
C393 H400 0.961 . S
C393 H401 0.960 . S
C394 C392 1.381 . S
C394 C395 1.394 . S
C394 H402 0.930 . S
C395 C394 1.394 . S
C395 C396 1.383 . S
C395 H403 0.929 . S
C396 C395 1.383 . S
C396 C397 1.377 . S
C397 H381 0.930 . S
C397 C396 1.377 . S
C397 C398 1.379 . S
C398 H382 0.931 . S
C398 C392 1.383 . S
C398 C397 1.379 . S
H399 C393 0.959 . S
H400 C393 0.961 . S
H401 C393 0.960 . S
H402 C394 0.930 . S
H403 C395 0.929 . S
H404 C412 0.929 . S
H405 C414 0.930 . S
H406 C416 0.930 . S
H407 C419 0.929 . S
H408 C422 0.930 . S
H409 C424 0.960 . S
H410 C424 0.960 . S
H411 C424 0.960 . S
C412 H404 0.929 . S
C412 C413 1.377 . S
C412 C414 1.384 . S
C413 C412 1.377 . S
C413 C419 1.390 . S
C414 H405 0.930 . S
C414 C412 1.384 . S
C414 C415 1.372 . S
C415 C414 1.372 . S
C415 C416 1.400 . S
C415 C420 1.490 . S
C416 H406 0.930 . S
C416 C415 1.400 . S
C416 C419 1.386 . S
H417 C433 0.930 . S
H418 C434 0.931 . S
C419 H407 0.929 . S
C419 C413 1.390 . S
C419 C416 1.386 . S
C420 C415 1.490 . S
C420 C422 1.395 . S
C420 C423 1.403 . S
H421 C427 0.930 . S
C422 H408 0.930 . S
C422 C420 1.395 . S
C422 C425 1.403 . S
C423 C420 1.403 . S
C423 C424 1.524 . S
C423 C427 1.400 . S
C424 H409 0.960 . S
C424 H410 0.960 . S
C424 H411 0.960 . S
C424 C423 1.524 . S
C425 C422 1.403 . S
C425 C426 1.392 . S
C425 C429 1.495 . S
C426 C425 1.392 . S
C426 C427 1.385 . S
C426 C428 1.478 . S
C427 H421 0.930 . S
C427 C423 1.400 . S
C427 C426 1.385 . S
C428 C426 1.478 . S
C428 C430 1.381 . S
C428 C434 1.383 . S
C429 C425 1.495 . S
C429 H435 0.959 . S
C429 H436 0.961 . S
C429 H437 0.960 . S
C430 C428 1.381 . S
C430 C431 1.394 . S
C430 H438 0.930 . S
C431 C430 1.394 . S
C431 C432 1.383 . S
C431 H439 0.929 . S
C432 C431 1.383 . S
C432 C433 1.377 . S
C433 H417 0.930 . S
C433 C432 1.377 . S
C433 C434 1.379 . S
C434 H418 0.931 . S
C434 C428 1.383 . S
C434 C433 1.379 . S
H435 C429 0.959 . S
H436 C429 0.961 . S
H437 C429 0.960 . S
H438 C430 0.930 . S
H439 C431 0.929 . S
H440 C448 0.929 . S
H441 C450 0.930 . S
H442 C452 0.930 . S
H443 C455 0.929 . S
H444 C458 0.930 . S
H445 C460 0.960 . S
H446 C460 0.960 . S
H447 C460 0.960 . S
C448 H440 0.929 . S
C448 C449 1.377 . S
C448 C450 1.384 . S
C449 C448 1.377 . S
C449 C455 1.390 . S
C450 H441 0.930 . S
C450 C448 1.384 . S
C450 C451 1.372 . S
C451 C450 1.372 . S
C451 C452 1.400 . S
C451 C456 1.490 . S
C452 H442 0.930 . S
C452 C451 1.400 . S
C452 C455 1.386 . S
H453 C469 0.930 . S
H454 C470 0.931 . S
C455 H443 0.929 . S
C455 C449 1.390 . S
C455 C452 1.386 . S
C456 C451 1.490 . S
C456 C458 1.395 . S
C456 C459 1.403 . S
H457 C463 0.930 . S
C458 H444 0.930 . S
C458 C456 1.395 . S
C458 C461 1.403 . S
C459 C456 1.403 . S
C459 C460 1.524 . S
C459 C463 1.400 . S
C460 H445 0.960 . S
C460 H446 0.960 . S
C460 H447 0.960 . S
C460 C459 1.524 . S
C461 C458 1.403 . S
C461 C462 1.392 . S
C461 C465 1.495 . S
C462 C461 1.392 . S
C462 C463 1.385 . S
C462 C464 1.478 . S
C463 H457 0.930 . S
C463 C459 1.400 . S
C463 C462 1.385 . S
C464 C462 1.478 . S
C464 C466 1.381 . S
C464 C470 1.383 . S
C465 C461 1.495 . S
C465 H471 0.959 . S
C465 H472 0.961 . S
C465 H473 0.960 . S
C466 C464 1.381 . S
C466 C467 1.394 . S
C466 H474 0.930 . S
C467 C466 1.394 . S
C467 C468 1.383 . S
C467 H475 0.929 . S
C468 C467 1.383 . S
C468 C469 1.377 . S
C469 H453 0.930 . S
C469 C468 1.377 . S
C469 C470 1.379 . S
C470 H454 0.931 . S
C470 C464 1.383 . S
C470 C469 1.379 . S
H471 C465 0.959 . S
H472 C465 0.961 . S
H473 C465 0.960 . S
H474 C466 0.930 . S
H475 C467 0.929 . S
H476 C484 0.929 . S
H477 C486 0.930 . S
H478 C488 0.930 . S
H479 C491 0.929 . S
H480 C494 0.930 . S
H481 C496 0.960 . S
H482 C496 0.960 . S
H483 C496 0.960 . S
C484 H476 0.929 . S
C484 C485 1.377 . S
C484 C486 1.384 . S
C485 C484 1.377 . S
C485 C491 1.390 . S
C486 H477 0.930 . S
C486 C484 1.384 . S
C486 C487 1.372 . S
C487 C486 1.372 . S
C487 C488 1.400 . S
C487 C492 1.490 . S
C488 H478 0.930 . S
C488 C487 1.400 . S
C488 C491 1.386 . S
H489 C505 0.930 . S
H490 C506 0.931 . S
C491 H479 0.929 . S
C491 C485 1.390 . S
C491 C488 1.386 . S
C492 C487 1.490 . S
C492 C494 1.395 . S
C492 C495 1.403 . S
H493 C499 0.930 . S
C494 H480 0.930 . S
C494 C492 1.395 . S
C494 C497 1.403 . S
C495 C492 1.403 . S
C495 C496 1.524 . S
C495 C499 1.400 . S
C496 H481 0.960 . S
C496 H482 0.960 . S
C496 H483 0.960 . S
C496 C495 1.524 . S
C497 C494 1.403 . S
C497 C498 1.392 . S
C497 C501 1.495 . S
C498 C497 1.392 . S
C498 C499 1.385 . S
C498 C500 1.478 . S
C499 H493 0.930 . S
C499 C495 1.400 . S
C499 C498 1.385 . S
C500 C498 1.478 . S
C500 C502 1.381 . S
C500 C506 1.383 . S
C501 C497 1.495 . S
C501 H507 0.959 . S
C501 H508 0.961 . S
C501 H509 0.960 . S
C502 C500 1.381 . S
C502 C503 1.394 . S
C502 H510 0.930 . S
C503 C502 1.394 . S
C503 C504 1.383 . S
C503 H511 0.929 . S
C504 C503 1.383 . S
C504 C505 1.377 . S
C505 H489 0.930 . S
C505 C504 1.377 . S
C505 C506 1.379 . S
C506 H490 0.931 . S
C506 C500 1.383 . S
C506 C505 1.379 . S
H507 C501 0.959 . S
H508 C501 0.961 . S
H509 C501 0.960 . S
H510 C502 0.930 . S
H511 C503 0.929 . S
H512 C520 0.929 . S
H513 C522 0.930 . S
H514 C524 0.930 . S
H515 C527 0.929 . S
H516 C530 0.930 . S
H517 C532 0.960 . S
H518 C532 0.960 . S
H519 C532 0.960 . S
C520 H512 0.929 . S
C520 C521 1.377 . S
C520 C522 1.384 . S
C521 C520 1.377 . S
C521 C527 1.390 . S
C522 H513 0.930 . S
C522 C520 1.384 . S
C522 C523 1.372 . S
C523 C522 1.372 . S
C523 C524 1.400 . S
C523 C528 1.490 . S
C524 H514 0.930 . S
C524 C523 1.400 . S
C524 C527 1.386 . S
H525 C541 0.930 . S
H526 C542 0.931 . S
C527 H515 0.929 . S
C527 C521 1.390 . S
C527 C524 1.386 . S
C528 C523 1.490 . S
C528 C530 1.395 . S
C528 C531 1.403 . S
H529 C535 0.930 . S
C530 H516 0.930 . S
C530 C528 1.395 . S
C530 C533 1.403 1_565 S
C531 C528 1.403 . S
C531 C532 1.524 . S
C531 C535 1.400 1_565 S
C532 H517 0.960 . S
C532 H518 0.960 . S
C532 H519 0.960 . S
C532 C531 1.524 . S
C533 C530 1.403 1_545 S
C533 C534 1.392 . S
C533 C537 1.495 . S
C534 C533 1.392 . S
C534 C535 1.385 . S
C534 C536 1.478 . S
C535 H529 0.930 . S
C535 C531 1.400 1_545 S
C535 C534 1.385 . S
C536 C534 1.478 . S
C536 C538 1.381 . S
C536 C542 1.383 . S
C537 C533 1.495 . S
C537 H543 0.959 . S
C537 H544 0.961 . S
C537 H545 0.960 . S
C538 C536 1.381 . S
C538 C539 1.394 . S
C538 H546 0.930 . S
C539 C538 1.394 . S
C539 C540 1.383 . S
C539 H547 0.929 . S
C540 C539 1.383 . S
C540 C541 1.377 . S
C541 H525 0.930 . S
C541 C540 1.377 . S
C541 C542 1.379 . S
C542 H526 0.931 . S
C542 C536 1.383 . S
C542 C541 1.379 . S
H543 C537 0.959 . S
H544 C537 0.961 . S
H545 C537 0.960 . S
H546 C538 0.930 . S
H547 C539 0.929 . S
H548 C556 0.929 . S
H549 C558 0.930 . S
H550 C560 0.930 . S
H551 C563 0.929 . S
H552 C566 0.930 . S
H553 C568 0.960 . S
H554 C568 0.960 . S
H555 C568 0.960 . S
C556 H548 0.929 . S
C556 C557 1.377 . S
C556 C558 1.384 . S
C557 C556 1.377 . S
C557 C563 1.390 . S
C558 H549 0.930 . S
C558 C556 1.384 . S
C558 C559 1.372 . S
C559 C558 1.372 . S
C559 C560 1.400 . S
C559 C564 1.490 . S
C560 H550 0.930 . S
C560 C559 1.400 . S
C560 C563 1.386 . S
H561 C577 0.930 . S
H562 C578 0.931 . S
C563 H551 0.929 . S
C563 C557 1.390 . S
C563 C560 1.386 . S
C564 C559 1.490 . S
C564 C566 1.395 . S
C564 C567 1.403 . S
H565 C571 0.930 . S
C566 H552 0.930 . S
C566 C564 1.395 . S
C566 C569 1.403 . S
C567 C564 1.403 . S
C567 C568 1.524 . S
C567 C571 1.400 . S
C568 H553 0.960 . S
C568 H554 0.960 . S
C568 H555 0.960 . S
C568 C567 1.524 . S
C569 C566 1.403 . S
C569 C570 1.392 . S
C569 C573 1.495 . S
C570 C569 1.392 . S
C570 C571 1.385 . S
C570 C572 1.478 . S
C571 H565 0.930 . S
C571 C567 1.400 . S
C571 C570 1.385 . S
C572 C570 1.478 . S
C572 C574 1.381 . S
C572 C578 1.383 . S
C573 C569 1.495 . S
C573 H579 0.959 . S
C573 H580 0.961 . S
C573 H581 0.960 . S
C574 C572 1.381 . S
C574 C575 1.394 . S
C574 H582 0.930 . S
C575 C574 1.394 . S
C575 C576 1.383 . S
C575 H583 0.929 . S
C576 C575 1.383 . S
C576 C577 1.377 . S
C577 H561 0.930 . S
C577 C576 1.377 . S
C577 C578 1.379 . S
C578 H562 0.931 . S
C578 C572 1.383 . S
C578 C577 1.379 . S
H579 C573 0.959 . S
H580 C573 0.961 . S
H581 C573 0.960 . S
H582 C574 0.930 . S
H583 C575 0.929 . S
H584 C592 0.929 . S
H585 C594 0.930 . S
H586 C596 0.930 . S
H587 C599 0.929 . S
H588 C602 0.930 . S
H589 C604 0.960 . S
H590 C604 0.960 . S
H591 C604 0.960 . S
C592 H584 0.929 . S
C592 C593 1.377 . S
C592 C594 1.384 . S
C593 C592 1.377 . S
C593 C599 1.390 . S
C594 H585 0.930 . S
C594 C592 1.384 . S
C594 C595 1.372 . S
C595 C594 1.372 . S
C595 C596 1.400 . S
C595 C600 1.490 . S
C596 H586 0.930 . S
C596 C595 1.400 . S
C596 C599 1.386 . S
H597 C613 0.930 . S
H598 C614 0.931 . S
C599 H587 0.929 . S
C599 C593 1.390 . S
C599 C596 1.386 . S
C600 C595 1.490 . S
C600 C602 1.395 . S
C600 C603 1.403 . S
H601 C607 0.930 . S
C602 H588 0.930 . S
C602 C600 1.395 . S
C602 C605 1.403 1_556 S
C603 C600 1.403 . S
C603 C604 1.524 . S
C603 C607 1.400 1_556 S
C604 H589 0.960 . S
C604 H590 0.960 . S
C604 H591 0.960 . S
C604 C603 1.524 . S
C605 C602 1.403 1_554 S
C605 C606 1.392 . S
C605 C609 1.495 . S
C606 C605 1.392 . S
C606 C607 1.385 . S
C606 C608 1.478 . S
C607 H601 0.930 . S
C607 C603 1.400 1_554 S
C607 C606 1.385 . S
C608 C606 1.478 . S
C608 C610 1.381 . S
C608 C614 1.383 . S
C609 C605 1.495 . S
C609 H615 0.959 . S
C609 H616 0.961 . S
C609 H617 0.960 . S
C610 C608 1.381 . S
C610 C611 1.394 . S
C610 H618 0.930 . S
C611 C610 1.394 . S
C611 C612 1.383 . S
C611 H619 0.929 . S
C612 C611 1.383 . S
C612 C613 1.377 . S
C613 H597 0.930 . S
C613 C612 1.377 . S
C613 C614 1.379 . S
C614 H598 0.931 . S
C614 C608 1.383 . S
C614 C613 1.379 . S
H615 C609 0.959 . S
H616 C609 0.961 . S
H617 C609 0.960 . S
H618 C610 0.930 . S
H619 C611 0.929 . S
H620 C628 0.929 . S
H621 C630 0.930 . S
H622 C632 0.930 . S
H623 C635 0.929 . S
H624 C638 0.930 . S
H625 C640 0.960 . S
H626 C640 0.960 . S
H627 C640 0.960 . S
C628 H620 0.929 . S
C628 C629 1.377 . S
C628 C630 1.384 . S
C629 C628 1.377 . S
C629 C635 1.390 . S
C630 H621 0.930 . S
C630 C628 1.384 . S
C630 C631 1.372 . S
C631 C630 1.372 . S
C631 C632 1.400 . S
C631 C636 1.490 . S
C632 H622 0.930 . S
C632 C631 1.400 . S
C632 C635 1.386 . S
H633 C649 0.930 . S
H634 C650 0.931 . S
C635 H623 0.929 . S
C635 C629 1.390 . S
C635 C632 1.386 . S
C636 C631 1.490 . S
C636 C638 1.395 1_554 S
C636 C639 1.403 . S
H637 C643 0.931 . S
C638 H624 0.930 . S
C638 C636 1.395 1_556 S
C638 C641 1.403 . S
C639 C636 1.403 . S
C639 C640 1.524 . S
C639 C643 1.400 1_554 S
C640 H625 0.960 . S
C640 H626 0.960 . S
C640 H627 0.960 . S
C640 C639 1.524 . S
C641 C638 1.403 . S
C641 C642 1.392 . S
C641 C645 1.495 . S
C642 C641 1.392 . S
C642 C643 1.385 . S
C642 C644 1.478 . S
C643 H637 0.931 . S
C643 C639 1.400 1_556 S
C643 C642 1.385 . S
C644 C642 1.478 . S
C644 C646 1.381 . S
C644 C650 1.383 . S
C645 C641 1.495 . S
C645 H651 0.959 . S
C645 H652 0.961 . S
C645 H653 0.960 . S
C646 C644 1.381 . S
C646 C647 1.394 . S
C646 H654 0.930 . S
C647 C646 1.394 . S
C647 C648 1.383 . S
C647 H655 0.929 . S
C648 C647 1.383 . S
C648 C649 1.377 . S
C649 H633 0.930 . S
C649 C648 1.377 . S
C649 C650 1.379 . S
C650 H634 0.931 . S
C650 C644 1.383 . S
C650 C649 1.379 . S
H651 C645 0.959 . S
H652 C645 0.961 . S
H653 C645 0.960 . S
H654 C646 0.930 . S
H655 C647 0.929 . S
H656 C664 0.929 . S
H657 C666 0.930 . S
H658 C668 0.930 . S
H659 C671 0.929 . S
H660 C674 0.930 . S
H661 C676 0.960 . S
H662 C676 0.960 . S
H663 C676 0.960 . S
C664 H656 0.929 . S
C664 C665 1.377 . S
C664 C666 1.384 . S
C665 C664 1.377 . S
C665 C671 1.390 . S
C666 H657 0.930 . S
C666 C664 1.384 . S
C666 C667 1.372 . S
C667 C666 1.372 . S
C667 C668 1.400 . S
C667 C672 1.490 . S
C668 H658 0.930 . S
C668 C667 1.400 . S
C668 C671 1.386 . S
H669 C685 0.930 . S
H670 C686 0.931 . S
C671 H659 0.929 . S
C671 C665 1.390 . S
C671 C668 1.386 . S
C672 C667 1.490 . S
C672 C674 1.395 . S
C672 C675 1.403 . S
H673 C679 0.930 . S
C674 H660 0.930 . S
C674 C672 1.395 . S
C674 C677 1.403 . S
C675 C672 1.403 . S
C675 C676 1.524 . S
C675 C679 1.400 . S
C676 H661 0.960 . S
C676 H662 0.960 . S
C676 H663 0.960 . S
C676 C675 1.524 . S
C677 C674 1.403 . S
C677 C678 1.392 . S
C677 C681 1.495 . S
C678 C677 1.392 . S
C678 C679 1.385 . S
C678 C680 1.478 . S
C679 H673 0.930 . S
C679 C675 1.400 . S
C679 C678 1.385 . S
C680 C678 1.478 . S
C680 C682 1.381 . S
C680 C686 1.383 . S
C681 C677 1.495 . S
C681 H687 0.959 . S
C681 H688 0.961 . S
C681 H689 0.960 . S
C682 C680 1.381 . S
C682 C683 1.394 . S
C682 H690 0.930 . S
C683 C682 1.394 . S
C683 C684 1.383 . S
C683 H691 0.929 . S
C684 C683 1.383 . S
C684 C685 1.377 . S
C685 H669 0.930 . S
C685 C684 1.377 . S
C685 C686 1.379 . S
C686 H670 0.931 . S
C686 C680 1.383 . S
C686 C685 1.379 . S
H687 C681 0.959 . S
H688 C681 0.961 . S
H689 C681 0.960 . S
H690 C682 0.930 . S
H691 C683 0.929 . S
H692 C700 0.929 . S
H693 C702 0.930 . S
H694 C704 0.930 . S
H695 C707 0.929 . S
H696 C710 0.930 . S
H697 C712 0.960 . S
H698 C712 0.960 . S
H699 C712 0.960 . S
C700 H692 0.929 . S
C700 C701 1.377 . S
C700 C702 1.384 . S
C701 C700 1.377 . S
C701 C707 1.390 . S
C702 H693 0.930 . S
C702 C700 1.384 . S
C702 C703 1.372 . S
C703 C702 1.372 . S
C703 C704 1.400 . S
C703 C708 1.490 . S
C704 H694 0.930 . S
C704 C703 1.400 . S
C704 C707 1.386 . S
H705 C721 0.930 . S
H706 C722 0.931 . S
C707 H695 0.929 . S
C707 C701 1.390 . S
C707 C704 1.386 . S
C708 C703 1.490 . S
C708 C710 1.395 . S
C708 C711 1.403 . S
H709 C715 0.930 . S
C710 H696 0.930 . S
C710 C708 1.395 . S
C710 C713 1.403 . S
C711 C708 1.403 . S
C711 C712 1.524 . S
C711 C715 1.400 . S
C712 H697 0.960 . S
C712 H698 0.960 . S
C712 H699 0.960 . S
C712 C711 1.524 . S
C713 C710 1.403 . S
C713 C714 1.392 . S
C713 C717 1.495 . S
C714 C713 1.392 . S
C714 C715 1.385 . S
C714 C716 1.478 . S
C715 H709 0.930 . S
C715 C711 1.400 . S
C715 C714 1.385 . S
C716 C714 1.478 . S
C716 C718 1.381 . S
C716 C722 1.383 . S
C717 C713 1.495 . S
C717 H723 0.959 . S
C717 H724 0.961 . S
C717 H725 0.960 . S
C718 C716 1.381 . S
C718 C719 1.394 . S
C718 H726 0.930 . S
C719 C718 1.394 . S
C719 C720 1.383 . S
C719 H727 0.929 . S
C720 C719 1.383 . S
C720 C721 1.377 . S
C721 H705 0.930 . S
C721 C720 1.377 . S
C721 C722 1.379 . S
C722 H706 0.931 . S
C722 C716 1.383 . S
C722 C721 1.379 . S
H723 C717 0.959 . S
H724 C717 0.961 . S
H725 C717 0.960 . S
H726 C718 0.930 . S
H727 C719 0.929 . S
H728 C736 0.929 . S
H729 C738 0.930 . S
H730 C740 0.930 . S
H731 C743 0.929 . S
H732 C746 0.930 . S
H733 C748 0.999 . S
H734 C748 0.948 1_655 S
H735 C748 0.937 1_655 S
C736 H728 0.929 . S
C736 C737 1.377 . S
C736 C738 1.384 . S
C737 C736 1.377 . S
C737 C743 1.390 . S
C738 H729 0.930 . S
C738 C736 1.384 . S
C738 C739 1.372 . S
C739 C738 1.372 . S
C739 C740 1.400 . S
C739 C744 1.490 . S
C740 H730 0.930 . S
C740 C739 1.400 . S
C740 C743 1.386 . S
H741 C757 0.930 . S
H742 C758 0.931 . S
C743 H731 0.929 . S
C743 C737 1.390 . S
C743 C740 1.386 . S
C744 C739 1.490 . S
C744 C746 1.395 . S
C744 C747 1.435 . S
H745 C751 0.930 . S
C746 H732 0.930 . S
C746 C744 1.395 . S
C746 C749 1.445 . S
C747 C744 1.435 . S
C747 C748 1.521 1_655 S
C747 C751 1.369 1_655 S
C748 H733 0.999 . S
C748 H734 0.948 1_455 S
C748 H735 0.937 1_455 S
C748 C747 1.521 1_455 S
C749 C746 1.445 . S
C749 C750 1.351 1_655 S
C749 C753 1.498 . S
C750 C749 1.351 1_455 S
C750 C751 1.385 . S
C750 C752 1.478 . S
C751 H745 0.930 . S
C751 C747 1.369 1_455 S
C751 C750 1.385 . S
C752 C750 1.478 . S
C752 C754 1.381 . S
C752 C758 1.383 . S
C753 C749 1.498 . S
C753 H759 0.959 . S
C753 H760 0.961 1_655 S
C753 H761 0.960 1_655 S
C754 C752 1.381 . S
C754 C755 1.394 . S
C754 H762 0.930 . S
C755 C754 1.394 . S
C755 C756 1.383 . S
C755 H763 0.929 . S
C756 C755 1.383 . S
C756 C757 1.377 . S
C757 H741 0.930 . S
C757 C756 1.377 . S
C757 C758 1.379 . S
C758 H742 0.931 . S
C758 C752 1.383 . S
C758 C757 1.379 . S
H759 C753 0.959 . S
H760 C753 0.961 1_455 S
H761 C753 0.960 1_455 S
H762 C754 0.930 . S
H763 C755 0.929 . S
H764 C772 0.929 . S
H765 C774 0.930 . S
H766 C776 0.930 . S
H767 C779 0.929 . S
H768 C782 0.930 . S
H769 C784 0.960 1_455 S
H770 C784 0.960 . S
H771 C784 0.960 . S
C772 H764 0.929 . S
C772 C773 1.377 . S
C772 C774 1.384 . S
C773 C772 1.377 . S
C773 C779 1.390 . S
C774 H765 0.930 . S
C774 C772 1.384 . S
C774 C775 1.372 . S
C775 C774 1.372 . S
C775 C776 1.400 . S
C775 C780 1.490 . S
C776 H766 0.930 . S
C776 C775 1.400 . S
C776 C779 1.386 . S
H777 C793 0.930 . S
H778 C794 0.931 . S
C779 H767 0.929 . S
C779 C773 1.390 . S
C779 C776 1.386 . S
C780 C775 1.490 . S
C780 C782 1.395 . S
C780 C783 1.403 . S
H781 C787 0.930 . S
C782 H768 0.930 . S
C782 C780 1.395 . S
C782 C785 1.403 1_655 S
C783 C780 1.403 . S
C783 C784 1.524 . S
C783 C787 1.400 1_655 S
C784 H769 0.960 1_655 S
C784 H770 0.960 . S
C784 H771 0.960 . S
C784 C783 1.524 . S
C785 C782 1.403 1_455 S
C785 C786 1.392 . S
C785 C789 1.495 . S
C786 C785 1.392 . S
C786 C787 1.385 . S
C786 C788 1.478 . S
C787 H781 0.930 . S
C787 C783 1.400 1_455 S
C787 C786 1.385 . S
C788 C786 1.478 . S
C788 C790 1.381 . S
C788 C794 1.383 . S
C789 C785 1.495 . S
C789 H795 0.959 1_455 S
C789 H796 0.961 . S
C789 H797 0.960 . S
C790 C788 1.381 . S
C790 C791 1.394 . S
C790 H798 0.930 . S
C791 C790 1.394 . S
C791 C792 1.383 . S
C791 H799 0.929 . S
C792 C791 1.383 . S
C792 C793 1.377 . S
C793 H777 0.930 . S
C793 C792 1.377 . S
C793 C794 1.379 . S
C794 H778 0.931 . S
C794 C788 1.383 . S
C794 C793 1.379 . S
H795 C789 0.959 1_655 S
H796 C789 0.961 . S
H797 C789 0.960 . S
H798 C790 0.930 . S
H799 C791 0.929 . S
H800 C808 0.929 . S
H801 C810 0.930 . S
H802 C812 0.930 . S
H803 C815 0.929 . S
H804 C818 0.930 . S
H805 C820 0.960 . S
H806 C820 0.960 . S
H807 C820 0.960 . S
C808 H800 0.929 . S
C808 C809 1.377 . S
C808 C810 1.384 . S
C809 C808 1.377 . S
C809 C815 1.390 . S
C810 H801 0.930 . S
C810 C808 1.384 . S
C810 C811 1.372 . S
C811 C810 1.372 . S
C811 C812 1.400 . S
C811 C816 1.490 . S
C812 H802 0.930 . S
C812 C811 1.400 . S
C812 C815 1.386 . S
H813 C829 0.930 . S
H814 C830 0.931 . S
C815 H803 0.929 . S
C815 C809 1.390 . S
C815 C812 1.386 . S
C816 C811 1.490 . S
C816 C818 1.395 . S
C816 C819 1.403 . S
H817 C823 0.930 . S
C818 H804 0.930 . S
C818 C816 1.395 . S
C818 C821 1.403 . S
C819 C816 1.403 . S
C819 C820 1.524 . S
C819 C823 1.400 . S
C820 H805 0.960 . S
C820 H806 0.960 . S
C820 H807 0.960 . S
C820 C819 1.524 . S
C821 C818 1.403 . S
C821 C822 1.392 . S
C821 C825 1.495 . S
C822 C821 1.392 . S
C822 C823 1.385 . S
C822 C824 1.478 . S
C823 H817 0.930 . S
C823 C819 1.400 . S
C823 C822 1.385 . S
C824 C822 1.478 . S
C824 C826 1.381 . S
C824 C830 1.383 . S
C825 C821 1.495 . S
C825 H831 0.959 . S
C825 H832 0.961 . S
C825 H833 0.960 . S
C826 C824 1.381 . S
C826 C827 1.394 . S
C826 H834 0.930 . S
C827 C826 1.394 . S
C827 C828 1.383 . S
C827 H835 0.929 . S
C828 C827 1.383 . S
C828 C829 1.377 . S
C829 H813 0.930 . S
C829 C828 1.377 . S
C829 C830 1.379 . S
C830 H814 0.931 . S
C830 C824 1.383 . S
C830 C829 1.379 . S
H831 C825 0.959 . S
H832 C825 0.961 . S
H833 C825 0.960 . S
H834 C826 0.930 . S
H835 C827 0.929 . S
H836 C844 0.929 . S
H837 C846 0.930 . S
H838 C848 0.930 . S
H839 C851 0.929 . S
H840 C854 0.930 . S
H841 C856 0.960 . S
H842 C856 0.960 . S
H843 C856 0.960 . S
C844 H836 0.929 . S
C844 C845 1.377 . S
C844 C846 1.384 . S
C845 C844 1.377 . S
C845 C851 1.390 . S
C846 H837 0.930 . S
C846 C844 1.384 . S
C846 C847 1.372 . S
C847 C846 1.372 . S
C847 C848 1.400 . S
C847 C852 1.490 . S
C848 H838 0.930 . S
C848 C847 1.400 . S
C848 C851 1.386 . S
H849 C865 0.930 . S
H850 C866 0.931 . S
C851 H839 0.929 . S
C851 C845 1.390 . S
C851 C848 1.386 . S
C852 C847 1.490 . S
C852 C854 1.395 . S
C852 C855 1.403 . S
H853 C859 0.930 . S
C854 H840 0.930 . S
C854 C852 1.395 . S
C854 C857 1.403 1_545 S
C855 C852 1.403 . S
C855 C856 1.524 . S
C855 C859 1.400 1_545 S
C856 H841 0.960 . S
C856 H842 0.960 . S
C856 H843 0.960 . S
C856 C855 1.524 . S
C857 C854 1.403 1_565 S
C857 C858 1.392 . S
C857 C861 1.495 . S
C858 C857 1.392 . S
C858 C859 1.385 . S
C858 C860 1.478 . S
C859 H853 0.930 . S
C859 C855 1.400 1_565 S
C859 C858 1.385 . S
C860 C858 1.478 . S
C860 C862 1.381 . S
C860 C866 1.383 . S
C861 C857 1.495 . S
C861 H867 0.959 . S
C861 H868 0.961 . S
C861 H869 0.960 . S
C862 C860 1.381 . S
C862 C863 1.394 . S
C862 H870 0.930 . S
C863 C862 1.394 . S
C863 C864 1.383 . S
C863 H871 0.929 . S
C864 C863 1.383 . S
C864 C865 1.377 . S
C865 H849 0.930 . S
C865 C864 1.377 . S
C865 C866 1.379 . S
C866 H850 0.931 . S
C866 C860 1.383 . S
C866 C865 1.379 . S
H867 C861 0.959 . S
H868 C861 0.961 . S
H869 C861 0.960 . S
H870 C862 0.930 . S
H871 C863 0.929 . S
H872 C880 0.929 . S
H873 C882 0.930 . S
H874 C884 0.930 . S
H875 C887 0.929 . S
H876 C890 0.930 . S
H877 C892 0.960 . S
H878 C892 0.960 . S
H879 C892 0.960 . S
C880 H872 0.929 . S
C880 C881 1.377 . S
C880 C882 1.384 . S
C881 C880 1.377 . S
C881 C887 1.390 . S
C882 H873 0.930 . S
C882 C880 1.384 . S
C882 C883 1.372 . S
C883 C882 1.372 . S
C883 C884 1.400 . S
C883 C888 1.490 . S
C884 H874 0.930 . S
C884 C883 1.400 . S
C884 C887 1.386 . S
H885 C901 0.930 . S
H886 C902 0.931 . S
C887 H875 0.929 . S
C887 C881 1.390 . S
C887 C884 1.386 . S
C888 C883 1.490 . S
C888 C890 1.395 . S
C888 C891 1.403 . S
H889 C895 0.930 . S
C890 H876 0.930 . S
C890 C888 1.395 . S
C890 C893 1.403 . S
C891 C888 1.403 . S
C891 C892 1.524 . S
C891 C895 1.400 . S
C892 H877 0.960 . S
C892 H878 0.960 . S
C892 H879 0.960 . S
C892 C891 1.524 . S
C893 C890 1.403 . S
C893 C894 1.392 . S
C893 C897 1.495 . S
C894 C893 1.392 . S
C894 C895 1.385 . S
C894 C896 1.478 . S
C895 H889 0.930 . S
C895 C891 1.400 . S
C895 C894 1.385 . S
C896 C894 1.478 . S
C896 C898 1.381 . S
C896 C902 1.383 . S
C897 C893 1.495 . S
C897 H903 0.959 . S
C897 H904 0.961 . S
C897 H905 0.960 . S
C898 C896 1.381 . S
C898 C899 1.394 . S
C898 H906 0.930 . S
C899 C898 1.394 . S
C899 C900 1.383 . S
C899 H907 0.929 . S
C900 C899 1.383 . S
C900 C901 1.377 . S
C901 H885 0.930 . S
C901 C900 1.377 . S
C901 C902 1.379 . S
C902 H886 0.931 . S
C902 C896 1.383 . S
C902 C901 1.379 . S
H903 C897 0.959 . S
H904 C897 0.961 . S
H905 C897 0.960 . S
H906 C898 0.930 . S
H907 C899 0.929 . S
H908 C916 0.929 . S
H909 C918 0.930 . S
H910 C920 0.930 . S
H911 C923 0.929 . S
H912 C926 0.930 . S
H913 C928 0.960 . S
H914 C928 0.960 1_554 S
H915 C928 0.960 . S
C916 H908 0.929 . S
C916 C917 1.377 . S
C916 C918 1.384 . S
C917 C916 1.377 . S
C917 C923 1.390 . S
C918 H909 0.930 . S
C918 C916 1.384 . S
C918 C919 1.372 . S
C919 C918 1.372 . S
C919 C920 1.400 . S
C919 C924 1.490 . S
C920 H910 0.930 . S
C920 C919 1.400 . S
C920 C923 1.386 . S
H921 C937 0.930 . S
H922 C938 0.931 . S
C923 H911 0.929 . S
C923 C917 1.390 . S
C923 C920 1.386 . S
C924 C919 1.490 . S
C924 C926 1.395 . S
C924 C927 1.403 1_554 S
H925 C931 0.930 . S
C926 H912 0.930 . S
C926 C924 1.395 . S
C926 C929 1.403 . S
C927 C924 1.403 1_556 S
C927 C928 1.524 . S
C927 C931 1.400 . S
C928 H913 0.960 . S
C928 H914 0.960 1_556 S
C928 H915 0.960 . S
C928 C927 1.524 . S
C929 C926 1.403 . S
C929 C930 1.392 1_554 S
C929 C933 1.495 . S
C930 C929 1.392 1_556 S
C930 C931 1.385 . S
C930 C932 1.478 . S
C931 H925 0.930 . S
C931 C927 1.400 . S
C931 C930 1.385 . S
C932 C930 1.478 . S
C932 C934 1.381 . S
C932 C938 1.383 . S
C933 C929 1.495 . S
C933 H939 0.959 . S
C933 H940 0.961 1_554 S
C933 H941 0.960 . S
C934 C932 1.381 . S
C934 C935 1.394 . S
C934 H942 0.930 . S
C935 C934 1.394 . S
C935 C936 1.383 . S
C935 H943 0.929 . S
C936 C935 1.383 . S
C936 C937 1.377 . S
C937 H921 0.930 . S
C937 C936 1.377 . S
C937 C938 1.379 . S
C938 H922 0.931 . S
C938 C932 1.383 . S
C938 C937 1.379 . S
H939 C933 0.959 . S
H940 C933 0.961 1_556 S
H941 C933 0.960 . S
H942 C934 0.930 . S
H943 C935 0.929 . S
H944 C952 0.929 . S
H945 C954 0.930 . S
H946 C956 0.930 . S
H947 C959 0.929 . S
H948 C962 0.930 . S
H949 C964 0.960 . S
H950 C964 0.960 . S
H951 C964 0.960 . S
C952 H944 0.929 . S
C952 C953 1.377 . S
C952 C954 1.384 . S
C953 C952 1.377 . S
C953 C959 1.390 . S
C954 H945 0.930 . S
C954 C952 1.384 . S
C954 C955 1.372 . S
C955 C954 1.372 . S
C955 C956 1.400 . S
C955 C960 1.490 . S
C956 H946 0.930 . S
C956 C955 1.400 . S
C956 C959 1.386 . S
H957 C973 0.930 . S
H958 C974 0.931 . S
C959 H947 0.929 . S
C959 C953 1.390 . S
C959 C956 1.386 . S
C960 C955 1.490 . S
C960 C962 1.362 1_556 S
C960 C963 1.403 . S
H961 C967 0.930 . S
C962 H948 0.930 . S
C962 C960 1.362 1_554 S
C962 C965 1.438 . S
C963 C960 1.403 . S
C963 C964 1.524 . S
C963 C967 1.400 1_556 S
C964 H949 0.960 . S
C964 H950 0.960 . S
C964 H951 0.960 . S
C964 C963 1.524 . S
C965 C962 1.438 . S
C965 C966 1.392 . S
C965 C969 1.495 . S
C966 C965 1.392 . S
C966 C967 1.385 . S
C966 C968 1.478 . S
C967 H961 0.930 . S
C967 C963 1.400 1_554 S
C967 C966 1.385 . S
C968 C966 1.478 . S
C968 C970 1.381 . S
C968 C974 1.383 . S
C969 C965 1.495 . S
C969 H975 0.959 . S
C969 H976 0.961 . S
C969 H977 0.960 . S
C970 C968 1.381 . S
C970 C971 1.394 . S
C970 H978 0.930 . S
C971 C970 1.394 . S
C971 C972 1.383 . S
C971 H979 0.929 . S
C972 C971 1.383 . S
C972 C973 1.377 . S
C973 H957 0.930 . S
C973 C972 1.377 . S
C973 C974 1.379 . S
C974 H958 0.931 . S
C974 C968 1.383 . S
C974 C973 1.379 . S
H975 C969 0.959 . S
H976 C969 0.961 . S
H977 C969 0.960 . S
H978 C970 0.930 . S
H979 C971 0.929 . S
H980 C988 0.929 . S
H981 C990 0.930 . S
H982 C992 0.930 . S
H983 C995 0.929 . S
H984 C998 0.930 . S
H985 C1000 0.960 . S
H986 C1000 0.960 . S
H987 C1000 0.960 . S
C988 H980 0.929 . S
C988 C989 1.377 . S
C988 C990 1.384 . S
C989 C988 1.377 . S
C989 C995 1.390 . S
C990 H981 0.930 . S
C990 C988 1.384 . S
C990 C991 1.372 . S
C991 C990 1.372 . S
C991 C992 1.400 . S
C991 C996 1.490 . S
C992 H982 0.930 . S
C992 C991 1.400 . S
C992 C995 1.386 . S
H993 C1009 0.930 . S
H994 C1010 0.931 . S
C995 H983 0.929 . S
C995 C989 1.390 . S
C995 C992 1.386 . S
C996 C991 1.490 . S
C996 C998 1.395 . S
C996 C999 1.403 . S
H997 C1003 0.930 . S
C998 H984 0.930 . S
C998 C996 1.395 . S
C998 C1001 1.403 . S
C999 C996 1.403 . S
C999 C1000 1.524 . S
C999 C1003 1.400 . S
C1000 H985 0.960 . S
C1000 H986 0.960 . S
C1000 H987 0.960 . S
C1000 C999 1.524 . S
C1001 C998 1.403 . S
C1001 C1002 1.392 . S
C1001 C1005 1.495 . S
C1002 C1001 1.392 . S
C1002 C1003 1.385 . S
C1002 C1004 1.478 . S
C1003 H997 0.930 . S
C1003 C999 1.400 . S
C1003 C1002 1.385 . S
C1004 C1002 1.478 . S
C1004 C1006 1.381 . S
C1004 C1010 1.383 . S
C1005 C1001 1.495 . S
C1005 H1011 0.959 . S
C1005 H1012 0.961 . S
C1005 H1013 0.960 . S
C1006 C1004 1.381 . S
C1006 C1007 1.394 . S
C1006 H1014 0.930 . S
C1007 C1006 1.394 . S
C1007 C1008 1.383 . S
C1007 H1015 0.929 . S
C1008 C1007 1.383 . S
C1008 C1009 1.377 . S
C1009 H993 0.930 . S
C1009 C1008 1.377 . S
C1009 C1010 1.379 . S
C1010 H994 0.931 . S
C1010 C1004 1.383 . S
C1010 C1009 1.379 . S
H1011 C1005 0.959 . S
H1012 C1005 0.961 . S
H1013 C1005 0.960 . S
H1014 C1006 0.930 . S
H1015 C1007 0.929 . S
H1016 C1024 0.929 . S
H1017 C1026 0.930 . S
H1018 C1028 0.930 . S
H1019 C1031 0.929 . S
H1020 C1034 0.930 . S
H1021 C1036 0.960 . S
H1022 C1036 0.960 . S
H1023 C1036 0.960 . S
C1024 H1016 0.929 . S
C1024 C1025 1.377 . S
C1024 C1026 1.384 . S
C1025 C1024 1.377 . S
C1025 C1031 1.390 . S
C1026 H1017 0.930 . S
C1026 C1024 1.384 . S
C1026 C1027 1.372 . S
C1027 C1026 1.372 . S
C1027 C1028 1.400 . S
C1027 C1032 1.490 . S
C1028 H1018 0.930 . S
C1028 C1027 1.400 . S
C1028 C1031 1.386 . S
H1029 C1045 0.930 . S
H1030 C1046 0.931 . S
C1031 H1019 0.929 . S
C1031 C1025 1.390 . S
C1031 C1028 1.386 . S
C1032 C1027 1.490 . S
C1032 C1034 1.395 . S
C1032 C1035 1.403 . S
H1033 C1039 0.930 . S
C1034 H1020 0.930 . S
C1034 C1032 1.395 . S
C1034 C1037 1.403 . S
C1035 C1032 1.403 . S
C1035 C1036 1.524 . S
C1035 C1039 1.400 . S
C1036 H1021 0.960 . S
C1036 H1022 0.960 . S
C1036 H1023 0.960 . S
C1036 C1035 1.524 . S
C1037 C1034 1.403 . S
C1037 C1038 1.392 . S
C1037 C1041 1.495 . S
C1038 C1037 1.392 . S
C1038 C1039 1.385 . S
C1038 C1040 1.478 . S
C1039 H1033 0.930 . S
C1039 C1035 1.400 . S
C1039 C1038 1.385 . S
C1040 C1038 1.478 . S
C1040 C1042 1.381 . S
C1040 C1046 1.383 . S
C1041 C1037 1.495 . S
C1041 H1047 0.959 . S
C1041 H1048 0.961 . S
C1041 H1049 0.960 . S
C1042 C1040 1.381 . S
C1042 C1043 1.394 . S
C1042 H1050 0.930 . S
C1043 C1042 1.394 . S
C1043 C1044 1.383 . S
C1043 H1051 0.929 . S
C1044 C1043 1.383 . S
C1044 C1045 1.377 . S
C1045 H1029 0.930 . S
C1045 C1044 1.377 . S
C1045 C1046 1.379 . S
C1046 H1030 0.931 . S
C1046 C1040 1.383 . S
C1046 C1045 1.379 . S
H1047 C1041 0.959 . S
H1048 C1041 0.961 . S
H1049 C1041 0.960 . S
H1050 C1042 0.930 . S
H1051 C1043 0.929 . S
H1052 C1060 0.929 . S
H1053 C1062 0.930 . S
H1054 C1064 0.930 . S
H1055 C1067 0.929 . S
H1056 C1070 0.930 . S
H1057 C1072 0.960 1_655 S
H1058 C1072 0.960 . S
H1059 C1072 0.960 . S
C1060 H1052 0.929 . S
C1060 C1061 1.377 . S
C1060 C1062 1.384 . S
C1061 C1060 1.377 . S
C1061 C1067 1.390 . S
C1062 H1053 0.930 . S
C1062 C1060 1.384 . S
C1062 C1063 1.372 . S
C1063 C1062 1.372 . S
C1063 C1064 1.400 . S
C1063 C1068 1.490 . S
C1064 H1054 0.930 . S
C1064 C1063 1.400 . S
C1064 C1067 1.386 . S
H1065 C1081 0.930 . S
H1066 C1082 0.931 . S
C1067 H1055 0.929 . S
C1067 C1061 1.390 . S
C1067 C1064 1.386 . S
C1068 C1063 1.490 . S
C1068 C1070 1.395 . S
C1068 C1071 1.403 . S
H1069 C1075 0.930 . S
C1070 H1056 0.930 . S
C1070 C1068 1.395 . S
C1070 C1073 1.365 1_455 S
C1071 C1068 1.403 . S
C1071 C1072 1.524 . S
C1071 C1075 1.400 1_455 S
C1072 H1057 0.960 1_455 S
C1072 H1058 0.960 . S
C1072 H1059 0.960 . S
C1072 C1071 1.524 . S
C1073 C1070 1.365 1_655 S
C1073 C1074 1.428 . S
C1073 C1077 1.498 . S
C1074 C1073 1.428 . S
C1074 C1075 1.385 . S
C1074 C1076 1.478 . S
C1075 H1069 0.930 . S
C1075 C1071 1.400 1_655 S
C1075 C1074 1.385 . S
C1076 C1074 1.478 . S
C1076 C1078 1.381 . S
C1076 C1082 1.383 . S
C1077 C1073 1.498 . S
C1077 H1083 0.959 1_655 S
C1077 H1084 0.961 . S
C1077 H1085 0.960 . S
C1078 C1076 1.381 . S
C1078 C1079 1.394 . S
C1078 H1086 0.930 . S
C1079 C1078 1.394 . S
C1079 C1080 1.383 . S
C1079 H1087 0.929 . S
C1080 C1079 1.383 . S
C1080 C1081 1.377 . S
C1081 H1065 0.930 . S
C1081 C1080 1.377 . S
C1081 C1082 1.379 . S
C1082 H1066 0.931 . S
C1082 C1076 1.383 . S
C1082 C1081 1.379 . S
H1083 C1077 0.959 1_455 S
H1084 C1077 0.961 . S
H1085 C1077 0.960 . S
H1086 C1078 0.930 . S
H1087 C1079 0.929 . S
H1088 C1096 0.929 . S
H1089 C1098 0.930 . S
H1090 C1100 0.930 . S
H1091 C1103 0.929 . S
H1092 C1106 0.930 . S
H1093 C1108 0.960 . S
H1094 C1108 0.960 . S
H1095 C1108 0.960 . S
C1096 H1088 0.929 . S
C1096 C1097 1.377 . S
C1096 C1098 1.384 . S
C1097 C1096 1.377 . S
C1097 C1103 1.390 . S
C1098 H1089 0.930 . S
C1098 C1096 1.384 . S
C1098 C1099 1.372 . S
C1099 C1098 1.372 . S
C1099 C1100 1.400 . S
C1099 C1104 1.490 . S
C1100 H1090 0.930 . S
C1100 C1099 1.400 . S
C1100 C1103 1.386 . S
H1101 C1117 0.930 . S
H1102 C1118 0.931 . S
C1103 H1091 0.929 . S
C1103 C1097 1.390 . S
C1103 C1100 1.386 . S
C1104 C1099 1.490 . S
C1104 C1106 1.395 . S
C1104 C1107 1.403 . S
H1105 C1111 0.930 . S
C1106 H1092 0.930 . S
C1106 C1104 1.395 . S
C1106 C1109 1.403 1_455 S
C1107 C1104 1.403 . S
C1107 C1108 1.524 . S
C1107 C1111 1.400 1_455 S
C1108 H1093 0.960 . S
C1108 H1094 0.960 . S
C1108 H1095 0.960 . S
C1108 C1107 1.524 . S
C1109 C1106 1.403 1_655 S
C1109 C1110 1.392 . S
C1109 C1113 1.495 . S
C1110 C1109 1.392 . S
C1110 C1111 1.385 . S
C1110 C1112 1.478 . S
C1111 H1105 0.930 . S
C1111 C1107 1.400 1_655 S
C1111 C1110 1.385 . S
C1112 C1110 1.478 . S
C1112 C1114 1.381 . S
C1112 C1118 1.383 . S
C1113 C1109 1.495 . S
C1113 H1119 0.959 . S
C1113 H1120 0.961 . S
C1113 H1121 0.960 . S
C1114 C1112 1.381 . S
C1114 C1115 1.394 . S
C1114 H1122 0.930 . S
C1115 C1114 1.394 . S
C1115 C1116 1.383 . S
C1115 H1123 0.929 . S
C1116 C1115 1.383 . S
C1116 C1117 1.377 . S
C1117 H1101 0.930 . S
C1117 C1116 1.377 . S
C1117 C1118 1.379 . S
C1118 H1102 0.931 . S
C1118 C1112 1.383 . S
C1118 C1117 1.379 . S
H1119 C1113 0.959 . S
H1120 C1113 0.961 . S
H1121 C1113 0.960 . S
H1122 C1114 0.930 . S
H1123 C1115 0.929 . S
H1124 C1132 0.929 . S
H1125 C1134 0.930 . S
H1126 C1136 0.930 . S
H1127 C1139 0.929 . S
H1128 C1142 0.930 . S
H1129 C1144 0.960 . S
H1130 C1144 0.960 . S
H1131 C1144 0.960 . S
C1132 H1124 0.929 . S
C1132 C1133 1.377 . S
C1132 C1134 1.384 . S
C1133 C1132 1.377 . S
C1133 C1139 1.390 . S
C1134 H1125 0.930 . S
C1134 C1132 1.384 . S
C1134 C1135 1.372 . S
C1135 C1134 1.372 . S
C1135 C1136 1.400 . S
C1135 C1140 1.490 . S
C1136 H1126 0.930 . S
C1136 C1135 1.400 . S
C1136 C1139 1.386 . S
H1137 C1153 0.930 . S
H1138 C1154 0.931 . S
C1139 H1127 0.929 . S
C1139 C1133 1.390 . S
C1139 C1136 1.386 . S
C1140 C1135 1.490 . S
C1140 C1142 1.395 . S
C1140 C1143 1.403 . S
H1141 C1147 0.930 . S
C1142 H1128 0.930 . S
C1142 C1140 1.395 . S
C1142 C1145 1.403 . S
C1143 C1140 1.403 . S
C1143 C1144 1.524 . S
C1143 C1147 1.400 . S
C1144 H1129 0.960 . S
C1144 H1130 0.960 . S
C1144 H1131 0.960 . S
C1144 C1143 1.524 . S
C1145 C1142 1.403 . S
C1145 C1146 1.392 . S
C1145 C1149 1.495 . S
C1146 C1145 1.392 . S
C1146 C1147 1.385 . S
C1146 C1148 1.478 . S
C1147 H1141 0.930 . S
C1147 C1143 1.400 . S
C1147 C1146 1.385 . S
C1148 C1146 1.478 . S
C1148 C1150 1.381 . S
C1148 C1154 1.383 . S
C1149 C1145 1.495 . S
C1149 H1155 0.959 . S
C1149 H1156 0.961 . S
C1149 H1157 0.960 . S
C1150 C1148 1.381 . S
C1150 C1151 1.394 . S
C1150 H1158 0.930 . S
C1151 C1150 1.394 . S
C1151 C1152 1.383 . S
C1151 H1159 0.929 . S
C1152 C1151 1.383 . S
C1152 C1153 1.377 . S
C1153 H1137 0.930 . S
C1153 C1152 1.377 . S
C1153 C1154 1.379 . S
C1154 H1138 0.931 . S
C1154 C1148 1.383 . S
C1154 C1153 1.379 . S
H1155 C1149 0.959 . S
H1156 C1149 0.961 . S
H1157 C1149 0.960 . S
H1158 C1150 0.930 . S
H1159 C1151 0.929 . S
H1160 C1168 0.929 . S
H1161 C1170 0.930 . S
H1162 C1172 0.930 . S
H1163 C1175 0.929 . S
H1164 C1178 0.930 . S
H1165 C1180 0.960 . S
H1166 C1180 0.960 . S
H1167 C1180 0.960 . S
C1168 H1160 0.929 . S
C1168 C1169 1.377 . S
C1168 C1170 1.384 . S
C1169 C1168 1.377 . S
C1169 C1175 1.390 . S
C1170 H1161 0.930 . S
C1170 C1168 1.384 . S
C1170 C1171 1.372 . S
C1171 C1170 1.372 . S
C1171 C1172 1.400 . S
C1171 C1176 1.490 . S
C1172 H1162 0.930 . S
C1172 C1171 1.400 . S
C1172 C1175 1.386 . S
H1173 C1189 0.930 . S
H1174 C1190 0.931 . S
C1175 H1163 0.929 . S
C1175 C1169 1.390 . S
C1175 C1172 1.386 . S
C1176 C1171 1.490 . S
C1176 C1178 1.395 . S
C1176 C1179 1.403 . S
H1177 C1183 0.930 . S
C1178 H1164 0.930 . S
C1178 C1176 1.395 . S
C1178 C1181 1.403 . S
C1179 C1176 1.403 . S
C1179 C1180 1.524 . S
C1179 C1183 1.400 . S
C1180 H1165 0.960 . S
C1180 H1166 0.960 . S
C1180 H1167 0.960 . S
C1180 C1179 1.524 . S
C1181 C1178 1.403 . S
C1181 C1182 1.392 . S
C1181 C1185 1.495 . S
C1182 C1181 1.392 . S
C1182 C1183 1.385 . S
C1182 C1184 1.478 . S
C1183 H1177 0.930 . S
C1183 C1179 1.400 . S
C1183 C1182 1.385 . S
C1184 C1182 1.478 . S
C1184 C1186 1.381 . S
C1184 C1190 1.383 . S
C1185 C1181 1.495 . S
C1185 H1191 0.959 . S
C1185 H1192 0.961 . S
C1185 H1193 0.960 . S
C1186 C1184 1.381 . S
C1186 C1187 1.394 . S
C1186 H1194 0.930 . S
C1187 C1186 1.394 . S
C1187 C1188 1.383 . S
C1187 H1195 0.929 . S
C1188 C1187 1.383 . S
C1188 C1189 1.377 . S
C1189 H1173 0.930 . S
C1189 C1188 1.377 . S
C1189 C1190 1.379 . S
C1190 H1174 0.931 . S
C1190 C1184 1.383 . S
C1190 C1189 1.379 . S
H1191 C1185 0.959 . S
H1192 C1185 0.961 . S
H1193 C1185 0.960 . S
H1194 C1186 0.930 . S
H1195 C1187 0.929 . S
H1196 C1204 0.929 . S
H1197 C1206 0.930 . S
H1198 C1208 0.930 . S
H1199 C1211 0.929 . S
H1200 C1214 0.930 . S
H1201 C1216 0.960 . S
H1202 C1216 0.960 . S
H1203 C1216 0.960 . S
C1204 H1196 0.929 . S
C1204 C1205 1.377 . S
C1204 C1206 1.384 . S
C1205 C1204 1.377 . S
C1205 C1211 1.390 . S
C1206 H1197 0.930 . S
C1206 C1204 1.384 . S
C1206 C1207 1.372 . S
C1207 C1206 1.372 . S
C1207 C1208 1.400 . S
C1207 C1212 1.490 . S
C1208 H1198 0.930 . S
C1208 C1207 1.400 . S
C1208 C1211 1.386 . S
H1209 C1225 0.930 . S
H1210 C1226 0.931 . S
C1211 H1199 0.929 . S
C1211 C1205 1.390 . S
C1211 C1208 1.386 . S
C1212 C1207 1.490 . S
C1212 C1214 1.395 1_545 S
C1212 C1215 1.403 . S
H1213 C1219 0.930 . S
C1214 H1200 0.930 . S
C1214 C1212 1.395 1_565 S
C1214 C1217 1.403 . S
C1215 C1212 1.403 . S
C1215 C1216 1.524 . S
C1215 C1219 1.400 1_545 S
C1216 H1201 0.960 . S
C1216 H1202 0.960 . S
C1216 H1203 0.960 . S
C1216 C1215 1.524 . S
C1217 C1214 1.403 . S
C1217 C1218 1.392 . S
C1217 C1221 1.495 . S
C1218 C1217 1.392 . S
C1218 C1219 1.385 . S
C1218 C1220 1.478 . S
C1219 H1213 0.930 . S
C1219 C1215 1.400 1_565 S
C1219 C1218 1.385 . S
C1220 C1218 1.478 . S
C1220 C1222 1.381 . S
C1220 C1226 1.383 . S
C1221 C1217 1.495 . S
C1221 H1227 0.959 . S
C1221 H1228 0.961 . S
C1221 H1229 0.960 . S
C1222 C1220 1.381 . S
C1222 C1223 1.394 . S
C1222 H1230 0.930 . S
C1223 C1222 1.394 . S
C1223 C1224 1.383 . S
C1223 H1231 0.929 . S
C1224 C1223 1.383 . S
C1224 C1225 1.377 . S
C1225 H1209 0.930 . S
C1225 C1224 1.377 . S
C1225 C1226 1.379 . S
C1226 H1210 0.931 . S
C1226 C1220 1.383 . S
C1226 C1225 1.379 . S
H1227 C1221 0.959 . S
H1228 C1221 0.961 . S
H1229 C1221 0.960 . S
H1230 C1222 0.930 . S
H1231 C1223 0.929 . S
H1232 C1240 0.929 . S
H1233 C1242 0.930 . S
H1234 C1244 0.930 . S
H1235 C1247 0.929 . S
H1236 C1250 0.930 . S
H1237 C1252 0.960 . S
H1238 C1252 0.960 . S
H1239 C1252 0.960 . S
C1240 H1232 0.929 . S
C1240 C1241 1.377 . S
C1240 C1242 1.384 . S
C1241 C1240 1.377 . S
C1241 C1247 1.390 . S
C1242 H1233 0.930 . S
C1242 C1240 1.384 . S
C1242 C1243 1.372 . S
C1243 C1242 1.372 . S
C1243 C1244 1.400 . S
C1243 C1248 1.490 . S
C1244 H1234 0.930 . S
C1244 C1243 1.400 . S
C1244 C1247 1.386 . S
H1245 C1261 0.930 . S
H1246 C1262 0.931 . S
C1247 H1235 0.929 . S
C1247 C1241 1.390 . S
C1247 C1244 1.386 . S
C1248 C1243 1.490 . S
C1248 C1250 1.395 . S
C1248 C1251 1.403 . S
H1249 C1255 0.930 . S
C1250 H1236 0.930 . S
C1250 C1248 1.395 . S
C1250 C1253 1.403 . S
C1251 C1248 1.403 . S
C1251 C1252 1.524 . S
C1251 C1255 1.400 . S
C1252 H1237 0.960 . S
C1252 H1238 0.960 . S
C1252 H1239 0.960 . S
C1252 C1251 1.524 . S
C1253 C1250 1.403 . S
C1253 C1254 1.392 . S
C1253 C1257 1.495 . S
C1254 C1253 1.392 . S
C1254 C1255 1.385 . S
C1254 C1256 1.478 . S
C1255 H1249 0.930 . S
C1255 C1251 1.400 . S
C1255 C1254 1.385 . S
C1256 C1254 1.478 . S
C1256 C1258 1.381 . S
C1256 C1262 1.383 . S
C1257 C1253 1.495 . S
C1257 H1263 0.959 . S
C1257 H1264 0.961 . S
C1257 H1265 0.960 . S
C1258 C1256 1.381 . S
C1258 C1259 1.394 . S
C1258 H1266 0.930 . S
C1259 C1258 1.394 . S
C1259 C1260 1.383 . S
C1259 H1267 0.929 . S
C1260 C1259 1.383 . S
C1260 C1261 1.377 . S
C1261 H1245 0.930 . S
C1261 C1260 1.377 . S
C1261 C1262 1.379 . S
C1262 H1246 0.931 . S
C1262 C1256 1.383 . S
C1262 C1261 1.379 . S
H1263 C1257 0.959 . S
H1264 C1257 0.961 . S
H1265 C1257 0.960 . S
H1266 C1258 0.930 . S
H1267 C1259 0.929 . S
H1268 C1276 0.929 . S
H1269 C1278 0.930 . S
H1270 C1280 0.930 . S
H1271 C1283 0.929 . S
H1272 C1286 0.930 . S
H1273 C1288 0.960 . S
H1274 C1288 0.960 . S
H1275 C1288 0.960 . S
C1276 H1268 0.929 . S
C1276 C1277 1.377 . S
C1276 C1278 1.384 . S
C1277 C1276 1.377 . S
C1277 C1283 1.390 . S
C1278 H1269 0.930 . S
C1278 C1276 1.384 . S
C1278 C1279 1.372 . S
C1279 C1278 1.372 . S
C1279 C1280 1.400 . S
C1279 C1284 1.490 . S
C1280 H1270 0.930 . S
C1280 C1279 1.400 . S
C1280 C1283 1.386 . S
H1281 C1297 0.930 . S
H1282 C1298 0.931 . S
C1283 H1271 0.929 . S
C1283 C1277 1.390 . S
C1283 C1280 1.386 . S
C1284 C1279 1.490 . S
C1284 C1286 1.395 . S
C1284 C1287 1.403 . S
H1285 C1291 0.930 . S
C1286 H1272 0.930 . S
C1286 C1284 1.395 . S
C1286 C1289 1.403 . S
C1287 C1284 1.403 . S
C1287 C1288 1.524 . S
C1287 C1291 1.400 . S
C1288 H1273 0.960 . S
C1288 H1274 0.960 . S
C1288 H1275 0.960 . S
C1288 C1287 1.524 . S
C1289 C1286 1.403 . S
C1289 C1290 1.392 . S
C1289 C1293 1.495 . S
C1290 C1289 1.392 . S
C1290 C1291 1.385 . S
C1290 C1292 1.478 . S
C1291 H1285 0.930 . S
C1291 C1287 1.400 . S
C1291 C1290 1.385 . S
C1292 C1290 1.478 . S
C1292 C1294 1.381 . S
C1292 C1298 1.383 . S
C1293 C1289 1.495 . S
C1293 H1299 0.959 . S
C1293 H1300 0.961 . S
C1293 H1301 0.960 . S
C1294 C1292 1.381 . S
C1294 C1295 1.394 . S
C1294 H1302 0.930 . S
C1295 C1294 1.394 . S
C1295 C1296 1.383 . S
C1295 H1303 0.929 . S
C1296 C1295 1.383 . S
C1296 C1297 1.377 . S
C1297 H1281 0.930 . S
C1297 C1296 1.377 . S
C1297 C1298 1.379 . S
C1298 H1282 0.931 . S
C1298 C1292 1.383 . S
C1298 C1297 1.379 . S
H1299 C1293 0.959 . S
H1300 C1293 0.961 . S
H1301 C1293 0.960 . S
H1302 C1294 0.930 . S
H1303 C1295 0.929 . S
H1304 C1312 0.929 . S
H1305 C1314 0.930 . S
H1306 C1316 0.930 . S
H1307 C1319 0.929 . S
H1308 C1322 0.930 . S
H1309 C1324 0.960 . S
H1310 C1324 0.960 . S
H1311 C1324 0.960 . S
C1312 H1304 0.929 . S
C1312 C1313 1.377 . S
C1312 C1314 1.384 . S
C1313 C1312 1.377 . S
C1313 C1319 1.390 . S
C1314 H1305 0.930 . S
C1314 C1312 1.384 . S
C1314 C1315 1.372 . S
C1315 C1314 1.372 . S
C1315 C1316 1.400 . S
C1315 C1320 1.490 . S
C1316 H1306 0.930 . S
C1316 C1315 1.400 . S
C1316 C1319 1.386 . S
H1317 C1333 0.930 . S
H1318 C1334 0.931 . S
C1319 H1307 0.929 . S
C1319 C1313 1.390 . S
C1319 C1316 1.386 . S
C1320 C1315 1.490 . S
C1320 C1322 1.395 1_545 S
C1320 C1323 1.403 . S
H1321 C1327 0.929 1_545 S
C1322 H1308 0.930 . S
C1322 C1320 1.395 1_565 S
C1322 C1325 1.403 . S
C1323 C1320 1.403 . S
C1323 C1324 1.524 . S
C1323 C1327 1.383 1_545 S
C1324 H1309 0.960 . S
C1324 H1310 0.960 . S
C1324 H1311 0.960 . S
C1324 C1323 1.524 . S
C1325 C1322 1.403 . S
C1325 C1326 1.392 . S
C1325 C1329 1.495 . S
C1326 C1325 1.392 . S
C1326 C1327 1.403 . S
C1326 C1328 1.478 . S
C1327 H1321 0.929 1_565 S
C1327 C1323 1.383 1_565 S
C1327 C1326 1.403 . S
C1328 C1326 1.478 . S
C1328 C1330 1.381 . S
C1328 C1334 1.383 . S
C1329 C1325 1.495 . S
C1329 H1335 0.959 . S
C1329 H1336 0.961 . S
C1329 H1337 0.960 . S
C1330 C1328 1.381 . S
C1330 C1331 1.394 . S
C1330 H1338 0.930 . S
C1331 C1330 1.394 . S
C1331 C1332 1.383 . S
C1331 H1339 0.929 . S
C1332 C1331 1.383 . S
C1332 C1333 1.377 . S
C1333 H1317 0.930 . S
C1333 C1332 1.377 . S
C1333 C1334 1.379 . S
C1334 H1318 0.931 . S
C1334 C1328 1.383 . S
C1334 C1333 1.379 . S
H1335 C1329 0.959 . S
H1336 C1329 0.961 . S
H1337 C1329 0.960 . S
H1338 C1330 0.930 . S
H1339 C1331 0.929 . S
H1340 C1348 0.929 . S
H1341 C1350 0.930 . S
H1342 C1352 0.930 . S
H1343 C1355 0.929 . S
H1344 C1358 0.930 . S
H1345 C1360 0.960 . S
H1346 C1360 0.960 . S
H1347 C1360 0.960 . S
C1348 H1340 0.929 . S
C1348 C1349 1.377 . S
C1348 C1350 1.384 . S
C1349 C1348 1.377 . S
C1349 C1355 1.390 . S
C1350 H1341 0.930 . S
C1350 C1348 1.384 . S
C1350 C1351 1.372 . S
C1351 C1350 1.372 . S
C1351 C1352 1.400 . S
C1351 C1356 1.490 . S
C1352 H1342 0.930 . S
C1352 C1351 1.400 . S
C1352 C1355 1.386 . S
H1353 C1369 0.930 . S
H1354 C1370 0.931 . S
C1355 H1343 0.929 . S
C1355 C1349 1.390 . S
C1355 C1352 1.386 . S
C1356 C1351 1.490 . S
C1356 C1358 1.395 . S
C1356 C1359 1.403 . S
H1357 C1363 0.930 . S
C1358 H1344 0.930 . S
C1358 C1356 1.395 . S
C1358 C1361 1.403 . S
C1359 C1356 1.403 . S
C1359 C1360 1.524 . S
C1359 C1363 1.400 . S
C1360 H1345 0.960 . S
C1360 H1346 0.960 . S
C1360 H1347 0.960 . S
C1360 C1359 1.524 . S
C1361 C1358 1.403 . S
C1361 C1362 1.392 . S
C1361 C1365 1.495 . S
C1362 C1361 1.392 . S
C1362 C1363 1.385 . S
C1362 C1364 1.478 . S
C1363 H1357 0.930 . S
C1363 C1359 1.400 . S
C1363 C1362 1.385 . S
C1364 C1362 1.478 . S
C1364 C1366 1.381 . S
C1364 C1370 1.383 . S
C1365 C1361 1.495 . S
C1365 H1371 0.959 . S
C1365 H1372 0.961 . S
C1365 H1373 0.960 . S
C1366 C1364 1.381 . S
C1366 C1367 1.394 . S
C1366 H1374 0.930 . S
C1367 C1366 1.394 . S
C1367 C1368 1.383 . S
C1367 H1375 0.929 . S
C1368 C1367 1.383 . S
C1368 C1369 1.377 . S
C1369 H1353 0.930 . S
C1369 C1368 1.377 . S
C1369 C1370 1.379 . S
C1370 H1354 0.931 . S
C1370 C1364 1.383 . S
C1370 C1369 1.379 . S
H1371 C1365 0.959 . S
H1372 C1365 0.961 . S
H1373 C1365 0.960 . S
H1374 C1366 0.930 . S
H1375 C1367 0.929 . S
C233 C9 0.916 . S
C252 C191 0.893 . S
C269 C23 0.918 . S
C288 C135 0.933 . S
C305 C205 0.914 . S
C324 C37 0.915 . S
C341 C51 0.915 . S
C360 C219 0.897 . S
C377 C65 0.915 . S
C396 C93 0.888 . S
C413 C149 0.916 . S
C432 C79 0.924 . S
C449 C163 0.918 . S
C468 C107 0.927 . S
C485 C121 0.915 . S
C504 C177 0.919 . S
C521 C33 1.675 . S
C540 C5 1.681 . S
C557 C19 1.678 . S
C576 C47 1.667 . S
C593 C179 1.809 . S
C612 C11 1.810 . S
C629 C25 1.807 . S
C648 C165 1.797 . S
C665 C67 1.811 . S
C684 C39 1.817 . S
C701 C151 1.808 . S
C720 C53 1.803 . S
C737 C14 1.365 . S
C756 C0 1.370 . S
C773 C42 1.368 . S
C792 C28 1.356 . S
C809 C140 1.366 . S
C828 C56 1.367 . S
C845 C109 1.592 . S
C864 C81 1.581 . S
C881 C95 1.591 . S
C900 C123 1.595 . S
C917 C215 1.865 . S
C936 C75 1.873 . S
C953 C89 1.864 . S
C972 C201 1.855 . S
C989 C131 1.865 . S
C1008 C103 1.853 . S
C1025 C117 1.865 . S
C1044 C187 1.852 . S
C1061 C84 1.448 . S
C1080 C70 1.452 . S
C1097 C112 1.445 . S
C1116 C98 1.430 . S
C1133 C126 1.444 . S
C1152 C182 1.428 . S
C1169 C145 1.676 . S
C1188 C159 1.669 . S
C1205 C173 1.678 . S
C1224 C61 1.666 . S
C1241 C168 1.364 . S
C1260 C154 1.378 . S
C1277 C207 1.592 . S
C1296 C193 1.581 . S
C1313 C137 1.591 . S
C1332 C221 1.591 . S
C1349 C210 1.451 . S
C1368 C196 1.461 . S
