# Generated by pormake.
# Topology noo, (5)-cn, num edge types: 1
# Building blocks:
#     Node 0, Type 0, BuildingBlock: XOMCOT_clean_sbu_0, # of connection points: 5
#     Node 1, Type 0, BuildingBlock: XOMCOT_clean_sbu_0, # of connection points: 5
#     Node 2, Type 0, BuildingBlock: XOMCOT_clean_sbu_0, # of connection points: 5
#     Node 3, Type 0, BuildingBlock: XOMCOT_clean_sbu_0, # of connection points: 5
#     Node 4, Type 0, BuildingBlock: XOMCOT_clean_sbu_0, # of connection points: 5
#     Node 5, Type 0, BuildingBlock: XOMCOT_clean_sbu_0, # of connection points: 5
#     Node 6, Type 0, BuildingBlock: XOMCOT_clean_sbu_0, # of connection points: 5
#     Node 7, Type 0, BuildingBlock: XOMCOT_clean_sbu_0, # of connection points: 5
#     Edge 8, Type (0, 0), BuildingBlock: XIVTED_clean_linker_0, # of connection points: 2
#     Edge 9, Type (0, 0), BuildingBlock: XIVTED_clean_linker_0, # of connection points: 2
#     Edge 10, Type (0, 0), BuildingBlock: XIVTED_clean_linker_0, # of connection points: 2
#     Edge 11, Type (0, 0), BuildingBlock: XIVTED_clean_linker_0, # of connection points: 2
#     Edge 12, Type (0, 0), BuildingBlock: XIVTED_clean_linker_0, # of connection points: 2
#     Edge 13, Type (0, 0), BuildingBlock: XIVTED_clean_linker_0, # of connection points: 2
#     Edge 14, Type (0, 0), BuildingBlock: XIVTED_clean_linker_0, # of connection points: 2
#     Edge 15, Type (0, 0), BuildingBlock: XIVTED_clean_linker_0, # of connection points: 2
#     Edge 16, Type (0, 0), BuildingBlock: XIVTED_clean_linker_0, # of connection points: 2
#     Edge 17, Type (0, 0), BuildingBlock: XIVTED_clean_linker_0, # of connection points: 2
#     Edge 18, Type (0, 0), BuildingBlock: XIVTED_clean_linker_0, # of connection points: 2
#     Edge 19, Type (0, 0), BuildingBlock: XIVTED_clean_linker_0, # of connection points: 2
#     Edge 20, Type (0, 0), BuildingBlock: XIVTED_clean_linker_0, # of connection points: 2
#     Edge 21, Type (0, 0), BuildingBlock: XIVTED_clean_linker_0, # of connection points: 2
#     Edge 22, Type (0, 0), BuildingBlock: XIVTED_clean_linker_0, # of connection points: 2
#     Edge 23, Type (0, 0), BuildingBlock: XIVTED_clean_linker_0, # of connection points: 2
#     Edge 24, Type (0, 0), BuildingBlock: XIVTED_clean_linker_0, # of connection points: 2
#     Edge 25, Type (0, 0), BuildingBlock: XIVTED_clean_linker_0, # of connection points: 2
#     Edge 26, Type (0, 0), BuildingBlock: XIVTED_clean_linker_0, # of connection points: 2
#     Edge 27, Type (0, 0), BuildingBlock: XIVTED_clean_linker_0, # of connection points: 2
# Relax obj value: 0.061
# Max RMSD: 0.110
# Mean RMSD: 0.110
data_MOF--net-noo--node1-XOMCOT_clean_sbu_0--edge1-XIVTED_clean_linker_0
_symmetry_space_group_name_H-M    P1
_symmetry_Int_Tables_number       1
_symmetry_cell_setting            triclinic
loop_
_symmetry_equiv_pos_as_xyz
'x, y, z'
_cell_length_a     39.237705
_cell_length_b     39.092268
_cell_length_c     30.182609
_cell_angle_alpha  89.83957
_cell_angle_beta   89.83444
_cell_angle_gamma 90.090959
loop_
_atom_site_label
_atom_site_type_symbol
_atom_site_fract_x
_atom_site_fract_y
_atom_site_fract_z
_atom_type_partial_charge
Co0 Co 0.4342 0.22804 0.04382 0.0
C1 C 0.4619 0.1581 0.05905 0.0
C2 C 0.49047 0.19678 0.09306 0.0
C3 C 0.50557 0.16556 0.10078 0.0
N4 N 0.46334 0.19215 0.06654 0.0
N5 N 0.48764 0.14126 0.07932 0.0
H6 H 0.44285 0.14593 0.03866 0.0
H7 H 0.49872 0.2212 0.1059 0.0
C8 C 0.48372 0.28305 0.01039 0.0
O9 O 0.46209 0.29477 0.98093 0.0
N10 N 0.4048 0.26429 0.02138 0.0
C11 C 0.38317 0.26245 0.98676 0.0
C12 C 0.3686 0.29389 0.98004 0.0
C13 C 0.40214 0.29692 0.0361 0.0
N14 N 0.38063 0.31564 0.01077 0.0
C15 C 0.41059 0.18376 0.97506 0.0
C16 C 0.45949 0.19887 0.9121 0.0
C17 C 0.4323 0.17734 0.90055 0.0
C18 C 0.4082 0.16917 0.93313 0.0
C19 C 0.46116 0.21272 0.95484 0.0
N20 N 0.43591 0.20652 0.98519 0.0
H21 H 0.39094 0.17764 0.99877 0.0
H22 H 0.48286 0.22826 0.96283 0.0
H23 H 0.3781 0.24014 0.96703 0.0
H24 H 0.41675 0.3071 0.06344 0.0
O25 O 0.39473 0.20467 0.06805 0.0
O26 O 0.42553 0.24289 0.104 0.0
O27 O 0.47649 0.25668 0.0338 0.0
C28 C 0.40026 0.22135 0.1045 0.0
H29 H 0.52786 0.1611 0.12102 0.0
H30 H 0.35041 0.30029 0.95443 0.0
H31 H 0.47928 0.20504 0.88829 0.0
H32 H 0.3867 0.15273 0.92587 0.0
Co33 Co 0.80418 0.43914 0.05684 0.0
C34 C 0.87271 0.47018 0.05678 0.0
C35 C 0.83542 0.50437 0.08408 0.0
C36 C 0.86693 0.51996 0.08578 0.0
N37 N 0.83914 0.47327 0.06572 0.0
N38 N 0.8904 0.49841 0.06867 0.0
H39 H 0.88381 0.44765 0.04185 0.0
H40 H 0.81161 0.51474 0.09612 0.0
C41 C 0.7503 0.48346 0.0126 0.0
O42 O 0.74755 0.46199 0.97936 0.0
N43 N 0.76902 0.40396 0.04884 0.0
C44 C 0.77483 0.36986 0.04931 0.0
C45 C 0.74449 0.35263 0.04812 0.0
C46 C 0.7345 0.40669 0.04871 0.0
N47 N 0.71912 0.37567 0.04768 0.0
C48 C 0.83131 0.40443 0.98189 0.0
C49 C 0.83493 0.45977 0.92498 0.0
C50 C 0.84728 0.42794 0.91088 0.0
C51 C 0.84538 0.40018 0.93998 0.0
C52 C 0.82143 0.46305 0.96785 0.0
N53 N 0.81864 0.43522 0.99523 0.0
H54 H 0.8321 0.38304 0.00418 0.0
H55 H 0.81411 0.48813 0.97936 0.0
H56 H 0.79933 0.35768 0.05274 0.0
H57 H 0.7207 0.43043 0.0519 0.0
O58 O 0.83429 0.40541 0.08211 0.0
O59 O 0.79714 0.43639 0.12018 0.0
O60 O 0.77076 0.47723 0.04442 0.0
C61 C 0.82069 0.41294 0.12015 0.0
H62 H 0.87219 0.54486 0.09976 0.0
H63 H 0.74126 0.32512 0.04852 0.0
H64 H 0.8367 0.48203 0.90365 0.0
H65 H 0.85492 0.37523 0.93054 0.0
Co66 Co 0.59758 0.80568 0.04061 0.0
C67 C 0.5696 0.87572 0.05749 0.0
C68 C 0.54024 0.8361 0.08876 0.0
C69 C 0.52484 0.86704 0.09718 0.0
N70 N 0.56805 0.84143 0.06337 0.0
N71 N 0.54328 0.89194 0.07741 0.0
H72 H 0.58914 0.8887 0.03869 0.0
H73 H 0.53175 0.81134 0.10045 0.0
C74 C 0.54806 0.75035 0.00763 0.0
O75 O 0.57096 0.73536 0.9826 0.0
N76 N 0.62734 0.76971 0.01833 0.0
C77 C 0.64877 0.77206 0.98338 0.0
C78 C 0.66415 0.74099 0.97681 0.0
C79 C 0.63107 0.73727 0.03357 0.0
N80 N 0.6529 0.71903 0.00806 0.0
C81 C 0.62137 0.85407 0.97662 0.0
C82 C 0.58355 0.83238 0.90508 0.0
C83 C 0.6085 0.85771 0.89847 0.0
C84 C 0.62662 0.86922 0.93541 0.0
C85 C 0.57862 0.81816 0.94739 0.0
N86 N 0.5982 0.82826 0.98244 0.0
H87 H 0.63685 0.86287 1.0037 0.0
H88 H 0.55964 0.79856 0.95097 0.0
H89 H 0.65305 0.79456 0.96338 0.0
H90 H 0.61689 0.72679 0.06128 0.0
O91 O 0.63668 0.82786 0.06683 0.0
O92 O 0.60432 0.7896 0.10086 0.0
O93 O 0.55493 0.77821 0.02792 0.0
C94 C 0.62989 0.81076 0.10271 0.0
H95 H 0.50201 0.8709 0.11672 0.0
H96 H 0.68228 0.73496 0.95089 0.0
H97 H 0.56874 0.82268 0.87761 0.0
H98 H 0.64535 0.88948 0.93256 0.0
Co99 Co 0.22882 0.59345 0.06473 0.0
C100 C 0.16042 0.56224 0.05977 0.0
C101 C 0.19757 0.52627 0.08325 0.0
C102 C 0.16608 0.51059 0.08305 0.0
N103 N 0.19394 0.55856 0.06845 0.0
N104 N 0.14268 0.53326 0.06837 0.0
H105 H 0.14936 0.58578 0.0476 0.0
H106 H 0.22125 0.51514 0.09443 0.0
C107 C 0.28285 0.55066 0.01768 0.0
O108 O 0.28496 0.57239 0.98449 0.0
N109 N 0.26391 0.62936 0.06218 0.0
C110 C 0.25809 0.66294 0.06988 0.0
C111 C 0.28816 0.68059 0.06847 0.0
C112 C 0.2983 0.62728 0.05736 0.0
N113 N 0.31351 0.65831 0.06063 0.0
C114 C 0.20699 0.63374 0.9915 0.0
C115 C 0.19926 0.58132 0.93117 0.0
C116 C 0.18971 0.61463 0.91898 0.0
C117 C 0.19399 0.64095 0.94972 0.0
C118 C 0.21209 0.57514 0.97378 0.0
N119 N 0.21653 0.60141 1.00307 0.0
H120 H 0.20784 0.65418 0.01514 0.0
H121 H 0.21755 0.54912 0.98362 0.0
H122 H 0.23364 0.67437 0.07691 0.0
H123 H 0.31233 0.60377 0.0536 0.0
O124 O 0.19742 0.6251 0.09171 0.0
O125 O 0.23359 0.59202 0.12843 0.0
O126 O 0.26303 0.55654 0.05039 0.0
C127 C 0.20973 0.61514 0.12956 0.0
H128 H 0.16074 0.48483 0.09432 0.0
H129 H 0.29113 0.70791 0.07288 0.0
H130 H 0.19572 0.56011 0.90862 0.0
H131 H 0.18689 0.66703 0.94183 0.0
Co132 Co 0.93857 0.30615 0.46596 0.0
C133 C 0.96434 0.37641 0.44772 0.0
C134 C 1.0013 0.33835 0.43088 0.0
C135 C 1.01526 0.37018 0.42291 0.0
N136 N 0.96953 0.34229 0.44724 0.0
N137 N 0.99202 0.39411 0.43386 0.0
H138 H 0.94065 0.38824 0.45715 0.0
H139 H 1.01367 0.31406 0.42523 0.0
C140 C 0.98631 0.24817 0.4962 0.0
O141 O 0.96175 0.229 0.51227 0.0
N142 N 0.90691 0.27038 0.48403 0.0
C143 C 0.88112 0.27426 0.51327 0.0
C144 C 0.86178 0.24498 0.51406 0.0
C145 C 0.90219 0.23889 0.46641 0.0
N146 N 0.87516 0.22271 0.48492 0.0
C147 C 0.91568 0.35451 0.52994 0.0
C148 C 0.94469 0.32547 0.60415 0.0
C149 C 0.92333 0.35402 0.60929 0.0
C150 C 0.90963 0.36898 0.57118 0.0
C151 C 0.95073 0.31205 0.56176 0.0
N152 N 0.93593 0.32635 0.52516 0.0
H153 H 0.90263 0.36551 0.50207 0.0
H154 H 0.9662 0.2895 0.55917 0.0
H155 H 0.87594 0.29707 0.53219 0.0
H156 H 0.91809 0.22811 0.44063 0.0
O157 O 0.90094 0.32984 0.43913 0.0
O158 O 0.93397 0.29264 0.40442 0.0
O159 O 0.98032 0.27808 0.4809 0.0
C160 C 0.90869 0.31416 0.40268 0.0
H161 H 0.04084 0.37522 0.41107 0.0
H162 H 0.83965 0.24027 0.53472 0.0
H163 H 0.95561 0.31275 0.63267 0.0
H164 H 0.89354 0.39141 0.57305 0.0
Co165 Co 0.72462 0.93753 0.44806 0.0
C166 C 0.65588 0.96691 0.43494 0.0
C167 C 0.6941 0.99335 0.39693 0.0
C168 C 0.66284 1.00766 0.3877 0.0
N169 N 0.68964 0.96785 0.42649 0.0
N170 N 0.63896 0.99105 0.41176 0.0
H171 H 0.64373 0.94842 0.45651 0.0
H172 H 0.71835 1.00068 0.38263 0.0
C173 C 0.77895 0.98636 0.48439 0.0
O174 O 0.79014 0.96409 0.51353 0.0
N175 N 0.75977 0.90658 0.46902 0.0
C176 C 0.75455 0.87766 0.49263 0.0
C177 C 0.78487 0.86061 0.49707 0.0
C178 C 0.79333 0.90617 0.45842 0.0
N179 N 0.8092 0.87862 0.47586 0.0
C180 C 0.68122 0.91194 0.51702 0.0
C181 C 0.69477 0.96088 0.58023 0.0
C182 C 0.67398 0.93297 0.5916 0.0
C183 C 0.66658 0.90884 0.55892 0.0
C184 C 0.70858 0.9633 0.53742 0.0
N185 N 0.70326 0.93799 0.50697 0.0
H186 H 0.67528 0.89252 0.49299 0.0
H187 H 0.7232 0.98573 0.52939 0.0
H188 H 0.7303 0.86847 0.50451 0.0
H189 H 0.80568 0.92517 0.4377 0.0
O190 O 0.70063 0.89903 0.42259 0.0
O191 O 0.73952 0.92993 0.38757 0.0
O192 O 0.75352 0.97937 0.45963 0.0
C193 C 0.71767 0.9049 0.38641 0.0
H194 H 0.65803 0.02873 0.36524 0.0
H195 H 0.78874 0.83658 0.51426 0.0
H196 H 0.70027 0.98071 0.60418 0.0
H197 H 0.65057 0.8869 0.56606 0.0
Co198 Co 0.09067 0.73069 0.4737 0.0
C199 C 0.05804 0.66428 0.44787 0.0
C200 C 0.02252 0.69907 0.47734 0.0
C201 C 1.00626 0.66854 0.47033 0.0
N202 N 0.05506 0.69675 0.4631 0.0
N203 N 0.02865 0.64639 0.45243 0.0
H204 H 0.08179 0.65311 0.43688 0.0
H205 H 1.01154 0.72048 0.49469 0.0
C206 C 0.04847 0.79521 0.49991 0.0
O207 O 0.07328 0.81281 0.51801 0.0
N208 N 0.12645 0.76387 0.48464 0.0
C209 C 0.15467 0.75766 0.50869 0.0
C210 C 0.17516 0.78618 0.50777 0.0
C211 C 0.13068 0.7958 0.46814 0.0
N212 N 0.15997 0.81024 0.48262 0.0
C213 C 0.10197 0.68166 0.54102 0.0
C214 C 0.09682 0.72445 0.61334 0.0
C215 C 0.10724 0.69043 0.61987 0.0
C216 C 0.1088 0.6688 0.58305 0.0
C217 C 0.08984 0.73629 0.57041 0.0
N218 N 0.0931 0.71506 0.53482 0.0
H219 H 0.10511 0.66484 0.51307 0.0
H220 H 0.08358 0.76279 0.56587 0.0
H221 H 0.16003 0.73393 0.52579 0.0
H222 H 0.1127 0.80825 0.44629 0.0
O223 O 0.12477 0.70084 0.44871 0.0
O224 O 0.09458 0.73882 0.4108 0.0
O225 O 0.05319 0.76487 0.48551 0.0
C226 C 0.11763 0.71489 0.41074 0.0
H227 H 0.98024 0.66278 0.47972 0.0
H228 H 0.19902 0.7893 0.52523 0.0
H229 H 0.09553 0.74218 0.64079 0.0
H230 H 0.11603 0.6422 0.58642 0.0
Co231 Co 0.30722 0.09845 0.4537 0.0
C232 C 0.37555 0.06752 0.43615 0.0
C233 C 0.33532 0.04254 0.40076 0.0
C234 C 0.36569 0.027 0.38986 0.0
N235 N 0.34149 0.06792 0.42982 0.0
N236 N 0.39082 0.04268 0.41238 0.0
H237 H 0.38933 0.08531 0.45657 0.0
H238 H 0.3104 0.03592 0.38814 0.0
C239 C 0.25065 0.04943 0.48539 0.0
O240 O 0.2335 0.07332 0.50614 0.0
N241 N 0.27287 0.12949 0.47681 0.0
C242 C 0.2779 0.1535 0.50818 0.0
C243 C 0.24875 0.17244 0.51301 0.0
C244 C 0.24077 0.13494 0.46205 0.0
N245 N 0.22536 0.16068 0.48426 0.0
C246 C 0.35714 0.11971 0.51672 0.0
C247 C 0.33214 0.08484 0.5895 0.0
C248 C 0.35929 0.10782 0.59535 0.0
C249 C 0.37231 0.12453 0.55787 0.0
C250 C 0.31789 0.08032 0.54733 0.0
N251 N 0.32996 0.09818 0.51152 0.0
H252 H 0.36697 0.13427 0.48914 0.0
H253 H 0.29647 0.06338 0.54451 0.0
H254 H 0.30125 0.15768 0.52613 0.0
H255 H 0.22896 0.12037 0.43578 0.0
O256 O 0.33016 0.13725 0.42715 0.0
O257 O 0.29078 0.10613 0.39386 0.0
O258 O 0.27944 0.05596 0.46728 0.0
C259 C 0.3125 0.13127 0.39169 0.0
H260 H 0.36901 1.00562 0.36755 0.0
H261 H 0.24489 0.19307 0.53633 0.0
H262 H 0.32101 0.07145 0.61747 0.0
H263 H 0.39375 0.1419 0.56027 0.0
H264 H 0.58824 0.94475 0.07085 0.0
H265 H 0.44284 0.08871 0.06907 0.0
H266 H 0.48099 0.92194 0.08228 0.0
H267 H 0.5497 0.11104 0.08577 0.0
H268 H 0.45634 0.02754 0.06747 0.0
H269 H 0.57468 1.00587 0.06998 0.0
C270 C 0.56184 0.95256 0.07297 0.0
C271 C 0.53575 0.92811 0.07678 0.0
C272 C 0.47682 0.04585 0.07152 0.0
C273 C 0.51997 0.99813 0.07587 0.0
C274 C 0.46914 0.08079 0.07217 0.0
C275 C 0.49514 0.1051 0.07775 0.0
C276 C 0.51082 0.03508 0.07601 0.0
C277 C 0.52877 0.09325 0.08204 0.0
C278 C 0.55411 0.98748 0.07273 0.0
C279 C 0.50197 0.93983 0.0799 0.0
N280 N 0.53564 0.05917 0.08097 0.0
N281 N 0.49507 0.97393 0.07923 0.0
H282 H 0.92405 0.55936 0.06632 0.0
H283 H 0.10896 0.47277 0.05951 0.0
H284 H 0.94044 0.45022 0.06388 0.0
H285 H 0.09269 0.58164 0.06971 0.0
H286 H 0.04737 0.4642 0.05738 0.0
H287 H 0.98563 0.56814 0.06395 0.0
C288 C 0.9405 0.5372 0.06543 0.0
C289 C 0.9268 0.50396 0.06556 0.0
C290 C 0.05727 0.48998 0.05998 0.0
C291 C 0.99767 0.51391 0.06239 0.0
C292 C 0.09253 0.49491 0.06142 0.0
C293 C 0.10627 0.528 0.06507 0.0
C294 C 0.03538 0.51832 0.06221 0.0
C295 C 0.08348 0.5557 0.06651 0.0
C296 C 0.97575 0.54226 0.06384 0.0
C297 C 0.94961 0.47631 0.06346 0.0
N298 N 0.04924 0.55022 0.06525 0.0
N299 N 0.98384 0.48191 0.06212 0.0
H300 H 0.95765 0.44021 0.48403 0.0
H301 H 0.06319 0.60301 0.39757 0.0
H302 H 0.03701 0.43228 0.38521 0.0
H303 H 0.98259 0.6061 0.49515 0.0
H304 H 0.05431 0.54099 0.39073 0.0
H305 H 0.96615 0.50162 0.48598 0.0
C306 C 0.97664 0.45134 0.46228 0.0
C307 C 0.99648 0.43081 0.43419 0.0
C308 C 0.03852 0.55542 0.41343 0.0
C309 C 1.00691 0.50176 0.43693 0.0
C310 C 0.04365 0.59078 0.41747 0.0
C311 C 0.02348 0.61005 0.44674 0.0
C312 C 1.01313 0.53926 0.439 0.0
C313 C 0.99837 0.59276 0.47147 0.0
C314 C 0.9817 0.48658 0.46368 0.0
C315 C 0.0213 0.44697 0.40764 0.0
N316 N 0.99402 0.55854 0.46706 0.0
N317 N 0.02584 0.4815 0.40968 0.0
H318 H 0.59627 0.98671 0.48211 0.0
H319 H 0.42815 0.02182 0.3419 0.0
H320 H 0.59954 1.01012 0.34254 0.0
H321 H 0.43479 0.04487 0.48117 0.0
H322 H 0.48926 1.00835 0.34142 0.0
H323 H 0.5349 0.99883 0.48246 0.0
C324 C 0.58397 0.9942 0.45154 0.0
C325 C 0.60289 0.99754 0.41226 0.0
C326 C 0.47729 1.01639 0.37204 0.0
C327 C 0.53297 1.01115 0.4123 0.0
C328 C 0.44249 0.02386 0.37237 0.0
C329 C 0.42656 0.03455 0.4116 0.0
C330 C 0.49606 0.01896 0.41144 0.0
C331 C 0.44627 0.03706 0.45018 0.0
C332 C 0.5491 1.00131 0.45179 0.0
C333 C 0.58586 1.00761 0.37355 0.0
N334 N 0.47998 0.02909 0.44923 0.0
N335 N 0.55179 1.01386 0.37445 0.0
H336 H 0.3176 0.52141 0.94824 0.0
H337 H 0.37252 0.35387 0.08518 0.0
H338 H 0.2933 0.50608 0.08645 0.0
H339 H 0.37026 0.35926 0.94262 0.0
H340 H 0.353 0.41366 0.0883 0.0
H341 H 0.34638 0.46583 0.94766 0.0
C342 C 0.31858 0.50656 0.97855 0.0
C343 C 0.30275 0.51837 0.01733 0.0
C344 C 0.35702 0.40177 0.05635 0.0
C345 C 0.33574 0.45473 0.01695 0.0
C346 C 0.36834 0.3678 0.05463 0.0
C347 C 0.37259 0.35155 0.01363 0.0
C348 C 0.35042 0.41966 0.01675 0.0
C349 C 0.3667 0.37066 0.97492 0.0
C350 C 0.33492 0.47477 0.97817 0.0
C351 C 0.30487 0.49791 0.05565 0.0
N352 N 0.35587 0.40359 0.97741 0.0
N353 N 0.32094 0.46712 0.05447 0.0
H354 H 0.50977 0.34067 0.96892 0.0
H355 H 0.68868 0.32583 0.09492 0.0
H356 H 0.53489 0.26349 0.066 0.0
H357 H 0.66834 0.40598 1.00052 0.0
H358 H 0.63027 0.30572 0.08748 0.0
H359 H 0.56581 0.36724 0.98122 0.0
C360 C 0.52697 0.32928 0.99273 0.0
C361 C 0.51752 0.29965 0.01631 0.0
C362 C 0.63826 0.32787 0.06847 0.0
C363 C 0.58145 0.33007 0.03075 0.0
C364 C 0.67165 0.33936 0.07283 0.0
C365 C 0.68334 0.3674 0.04804 0.0
C366 C 0.61617 0.34423 0.03865 0.0
C367 C 0.66015 0.38432 0.02028 0.0
C368 C 0.55889 0.34455 0.99984 0.0
C369 C 0.54085 0.28619 0.04691 0.0
N370 N 0.62767 0.37223 0.01588 0.0
N371 N 0.57155 0.30142 0.0531 0.0
H372 H 0.66226 0.68067 0.08238 0.0
H373 H 0.71472 0.51325 0.94437 0.0
H374 H 0.66312 0.67572 0.93979 0.0
H375 H 0.74169 0.52816 0.0815 0.0
H376 H 0.68646 0.56908 0.94458 0.0
H377 H 0.68209 0.62093 0.08512 0.0
C378 C 0.66624 0.66687 0.05176 0.0
C379 C 0.66147 0.68322 0.01083 0.0
C380 C 0.69841 0.56002 0.9747 0.0
C381 C 0.68392 0.61516 0.01354 0.0
C382 C 0.71446 0.52808 0.97462 0.0
C383 C 0.73086 0.51604 0.01284 0.0
C384 C 0.69845 0.58 0.01338 0.0
C385 C 0.72965 0.53649 0.05112 0.0
C386 C 0.67772 0.63292 0.05327 0.0
C387 C 0.66709 0.66425 0.97202 0.0
N388 N 0.71382 0.56744 0.05039 0.0
N389 N 0.67803 0.63134 0.97432 0.0
H390 H 0.34655 0.70755 0.1058 0.0
H391 H 0.52316 0.68945 0.97423 0.0
H392 H 0.36166 0.62971 0.00686 0.0
H393 H 0.49434 0.77588 0.05471 0.0
H394 H 0.46698 0.66369 0.98885 0.0
H395 H 0.40408 0.72831 0.09258 0.0
C396 C 0.36211 0.69474 0.08128 0.0
C397 C 0.3491 0.66719 0.05693 0.0
C398 C 0.47309 0.68831 1.00319 0.0
C399 C 0.41547 0.69098 0.04133 0.0
C400 C 0.50508 0.7031 0.99476 0.0
C401 C 0.51367 0.73491 0.01337 0.0
C402 C 0.44969 0.70536 0.03065 0.0
C403 C 0.48918 0.7513 0.0398 0.0
C404 C 0.39504 0.70663 0.07368 0.0
C405 C 0.37077 0.65103 0.02632 0.0
N406 N 0.45855 0.73632 0.04769 0.0
N407 N 0.40289 0.66337 0.01906 0.0
H408 H 0.75014 0.04402 0.44993 0.0
H409 H 0.91294 0.16487 0.47915 0.0
H410 H 0.84226 1.00783 0.51212 0.0
H411 H 0.80995 0.2026 0.47566 0.0
H412 H 0.89067 0.10582 0.47668 0.0
H413 H 0.77496 0.1012 0.44518 0.0
C414 C 0.77567 0.04805 0.4625 0.0
C415 C 0.79408 0.02109 0.48174 0.0
C416 C 0.87304 0.1271 0.47608 0.0
C417 C 0.82281 0.08661 0.4758 0.0
C418 C 0.88572 0.16063 0.47701 0.0
C419 C 0.86315 0.18842 0.47758 0.0
C420 C 0.83764 0.12156 0.47481 0.0
C421 C 0.82808 0.18177 0.47544 0.0
C422 C 0.78977 0.08075 0.45982 0.0
C423 C 0.82706 0.02795 0.49745 0.0
N424 N 0.8164 0.14907 0.47405 0.0
N425 N 0.84047 0.06005 0.49398 0.0
H426 H 0.02367 0.85672 0.53192 0.0
H427 H 0.83364 0.81621 0.45744 0.0
H428 H 0.99514 0.76941 0.45284 0.0
H429 H 0.86464 0.91904 0.48859 0.0
H430 H 0.89303 0.79796 0.46077 0.0
H431 H 0.9659 0.87996 0.52163 0.0
C432 C 1.00537 0.84238 0.51259 0.0
C433 C 1.01416 0.8106 0.49416 0.0
C434 C 0.88706 0.82463 0.46647 0.0
C435 C 0.94837 0.837 0.48227 0.0
C436 C 0.85319 0.83496 0.46457 0.0
C437 C 0.84446 0.86908 0.47264 0.0
C438 C 0.91251 0.84844 0.4774 0.0
C439 C 0.87061 0.89254 0.48177 0.0
C440 C 0.97251 0.85574 0.50659 0.0
C441 C 0.98948 0.79342 0.46892 0.0
N442 N 0.90358 0.88171 0.48449 0.0
N443 N 0.95781 0.80667 0.46409 0.0
H444 H 0.28443 0.99126 0.46082 0.0
H445 H 0.12163 0.86796 0.47851 0.0
H446 H 0.18587 0.02677 0.50475 0.0
H447 H 0.22521 0.83159 0.47439 0.0
H448 H 0.14307 0.92712 0.47727 0.0
H449 H 0.26157 0.9333 0.45589 0.0
C450 C 0.25796 0.98691 0.4695 0.0
C451 C 0.2371 1.01399 0.48351 0.0
C452 C 0.16106 0.90615 0.47637 0.0
C453 C 0.21063 0.94748 0.4774 0.0
C454 C 0.14883 0.87246 0.47663 0.0
C455 C 0.17172 0.84491 0.47669 0.0
C456 C 0.19639 0.91224 0.47556 0.0
C457 C 0.20675 0.85212 0.47482 0.0
C458 C 0.24493 0.95374 0.46667 0.0
C459 C 0.20296 1.00666 0.49418 0.0
N460 N 0.21799 0.88501 0.47433 0.0
N461 N 0.19076 0.97413 0.49077 0.0
H462 H 0.04506 0.28529 0.48854 0.0
H463 H 0.16842 0.12292 0.46898 0.0
H464 H 1.00834 0.18155 0.50062 0.0
H465 H 0.20355 0.22579 0.49226 0.0
H466 H 0.10925 0.14371 0.47124 0.0
H467 H 0.10309 0.26368 0.48195 0.0
C468 C 0.04919 0.25793 0.48983 0.0
C469 C 0.02175 0.2352 0.49511 0.0
C470 C 0.12996 0.1617 0.47565 0.0
C471 C 0.08836 0.21018 0.4873 0.0
C472 C 0.16364 0.14991 0.47391 0.0
C473 C 0.1908 0.17269 0.4806 0.0
C474 C 0.12358 0.19655 0.48357 0.0
C475 C 0.18331 0.20736 0.48743 0.0
C476 C 0.08239 0.24559 0.48613 0.0
C477 C 0.02877 0.19999 0.49689 0.0
N478 N 0.15048 0.2182 0.48873 0.0
N479 N 0.06139 0.18852 0.49276 0.0
H480 H 0.34735 0.17635 0.11552 0.0
H481 H 0.35377 0.18685 0.37966 0.0
H482 H 0.41 0.24796 0.18733 0.0
H483 H 0.28743 0.11818 0.30865 0.0
H484 H 0.37038 0.21333 0.30949 0.0
H485 H 0.32092 0.15858 0.18538 0.0
C486 C 0.35525 0.18866 0.14592 0.0
C487 C 0.3811 0.21353 0.14561 0.0
C488 C 0.35192 0.19271 0.3092 0.0
C489 C 0.35116 0.19306 0.22582 0.0
C490 C 0.34238 0.17758 0.34931 0.0
C491 C 0.31934 0.1501 0.34999 0.0
C492 C 0.33855 0.18012 0.2693 0.0
C493 C 0.30534 0.13925 0.30965 0.0
C494 C 0.34018 0.17845 0.18584 0.0
C495 C 0.39027 0.2286 0.18601 0.0
N496 N 0.31543 0.15406 0.27089 0.0
N497 N 0.37555 0.21791 0.22448 0.0
H498 H 0.86879 0.36297 0.12864 0.0
H499 H 0.85266 0.35429 0.39246 0.0
H500 H 0.79713 0.42265 0.20466 0.0
H501 H 0.926 0.29559 0.31788 0.0
H502 H 0.82876 0.3756 0.32332 0.0
H503 H 0.8873 0.3348 0.19676 0.0
C504 C 0.85688 0.37011 0.15968 0.0
C505 C 0.8315 0.39535 0.16107 0.0
C506 C 0.84989 0.35784 0.32194 0.0
C507 C 0.85253 0.36312 0.23914 0.0
C508 C 0.86352 0.34557 0.36145 0.0
C509 C 0.89151 0.32329 0.36089 0.0
C510 C 0.86444 0.34795 0.28145 0.0
C511 C 0.90443 0.31276 0.31977 0.0
C512 C 0.86744 0.35395 0.19855 0.0
C513 C 0.81688 0.40345 0.20213 0.0
N514 N 0.89096 0.32543 0.28163 0.0
N515 N 0.8277 0.38747 0.23956 0.0
H516 H 0.74563 0.91469 0.30407 0.0
H517 H 0.61635 0.78535 0.18572 0.0
H518 H 0.67281 0.85209 0.37476 0.0
H519 H 0.68433 0.85328 0.11511 0.0
H520 H 0.64204 0.80374 0.25556 0.0
H521 H 0.72876 0.88691 0.23499 0.0
C522 C 0.72636 0.89484 0.30514 0.0
C523 C 0.71043 0.88588 0.34519 0.0
C524 C 0.65158 0.81436 0.22475 0.0
C525 C 0.69081 0.85409 0.26619 0.0
C526 C 0.637 0.80376 0.18485 0.0
C527 C 0.64805 0.81798 0.14456 0.0
C528 C 0.67737 0.83938 0.22434 0.0
C529 C 0.67487 0.84178 0.14543 0.0
C530 C 0.71667 0.87902 0.26566 0.0
C531 C 0.68563 0.85994 0.34459 0.0
N532 N 0.68841 0.85192 0.18466 0.0
N533 N 0.67641 0.84515 0.3057 0.0
H534 H 0.10535 0.73688 0.32618 0.0
H535 H 0.22891 0.59858 0.21418 0.0
H536 H 0.16522 0.66449 0.40091 0.0
H537 H 0.16301 0.66604 0.14035 0.0
H538 H 0.20822 0.62426 0.28306 0.0
H539 H 0.12893 0.71346 0.25768 0.0
C540 C 0.12363 0.71621 0.32818 0.0
C541 C 0.13331 0.70257 0.36927 0.0
C542 C 0.19831 0.63345 0.25177 0.0
C543 C 0.16026 0.67549 0.29103 0.0
C544 C 0.2101 0.61878 0.21247 0.0
C545 C 0.19758 0.63013 0.17153 0.0
C546 C 0.17391 0.6597 0.25004 0.0
C547 C 0.17328 0.65643 0.17121 0.0
C548 C 0.13702 0.70277 0.28906 0.0
C549 C 0.15705 0.67576 0.36991 0.0
N550 N 0.16224 0.6703 0.20985 0.0
N551 N 0.16965 0.66302 0.33137 0.0
H552 H 0.67145 0.87487 0.86572 0.0
H553 H 0.61021 0.91292 0.61923 0.0
H554 H 0.56544 0.87076 0.82792 0.0
H555 H 0.70972 0.93982 0.6687 0.0
H556 H 0.59285 0.89684 0.6945 0.0
H557 H 0.6856 0.89755 0.79298 0.0
C558 C 0.65098 0.8791 0.84237 0.0
C559 C 0.61704 0.87118 0.85347 0.0
C560 C 0.61835 0.9066 0.68895 0.0
C561 C 0.63344 0.89658 0.76903 0.0
C562 C 0.62831 0.91572 0.64602 0.0
C563 C 0.66155 0.92758 0.63764 0.0
C564 C 0.64193 0.90894 0.72371 0.0
C565 C 0.6838 0.93104 0.67364 0.0
C566 C 0.65919 0.89194 0.8006 0.0
C567 C 0.59196 0.87623 0.82093 0.0
N568 N 0.67372 0.92141 0.71496 0.0
N569 N 0.60068 0.88852 0.78015 0.0
H570 H 0.16079 0.64803 0.63873 0.0
H571 H 0.1343 0.65457 0.9011 0.0
H572 H 0.07936 0.704 0.70189 0.0
H573 H 0.21063 0.59251 0.83704 0.0
H574 H 0.11289 0.67178 0.82854 0.0
H575 H 0.17855 0.62664 0.71086 0.0
C576 C 0.14637 0.6556 0.66773 0.0
C577 C 0.11828 0.67769 0.66406 0.0
C578 C 0.1342 0.65427 0.83026 0.0
C579 C 0.13902 0.65359 0.74722 0.0
C580 C 0.14652 0.64451 0.87168 0.0
C581 C 0.17456 0.62236 0.87508 0.0
C582 C 0.15008 0.64194 0.79179 0.0
C583 C 0.18894 0.60957 0.83591 0.0
C584 C 0.15669 0.64346 0.70901 0.0
C585 C 0.10127 0.68725 0.70308 0.0
N586 N 0.17672 0.61978 0.79587 0.0
N587 N 0.11192 0.67515 0.74302 0.0
H588 H 0.36861 0.06462 0.66697 0.0
H589 H 0.44095 0.21332 0.82341 0.0
H590 H 0.38068 0.17003 0.62655 0.0
H591 H 0.41209 0.11359 0.87247 0.0
H592 H 0.42635 0.19503 0.74851 0.0
H593 H 0.39016 0.07978 0.74051 0.0
C594 C 0.37574 0.0909 0.67343 0.0
C595 C 0.37291 0.11599 0.6402 0.0
C596 C 0.42341 0.17704 0.7756 0.0
C597 C 0.39805 0.13339 0.72416 0.0
C598 C 0.43208 0.18738 0.81835 0.0
C599 C 0.42756 0.16505 0.85437 0.0
C600 C 0.41019 0.14405 0.76864 0.0
C601 C 0.41549 0.13183 0.84578 0.0
C602 C 0.38823 0.09949 0.71536 0.0
C603 C 0.383 0.14957 0.65056 0.0
N604 N 0.40708 0.12239 0.80385 0.0
N605 N 0.39505 0.15722 0.69147 0.0
H606 H 0.86136 0.37922 0.63562 0.0
H607 H 0.90777 0.39755 0.88997 0.0
H608 H 0.96255 0.35873 0.68499 0.0
H609 H 0.8205 0.44625 0.83071 0.0
H610 H 0.92835 0.38209 0.81605 0.0
H611 H 0.84564 0.40214 0.70751 0.0
C612 C 0.88052 0.3799 0.66135 0.0
C613 C 0.9136 0.36733 0.65378 0.0
C614 C 0.90492 0.39651 0.81915 0.0
C615 C 0.89519 0.39294 0.73708 0.0
C616 C 0.89316 0.40529 0.86125 0.0
C617 C 0.86229 0.42299 0.86631 0.0
C618 C 0.88541 0.40505 0.78186 0.0
C619 C 0.84446 0.43269 0.82816 0.0
C620 C 0.87138 0.39291 0.70257 0.0
C621 C 0.93674 0.36787 0.68921 0.0
N622 N 0.85605 0.42319 0.78752 0.0
N623 N 0.92705 0.38036 0.72939 0.0
loop_
_geom_bond_atom_site_label_1
_geom_bond_atom_site_label_2
_geom_bond_distance
_geom_bond_site_symmetry_2
_ccdc_geom_bond_type
Co0 N4 2.148 . S
Co0 N10 2.128 . S
Co0 N20 2.194 1_554 S
Co0 O25 2.351 . S
Co0 O26 2.155 . S
Co0 O27 2.096 . S
C1 N4 1.301 . S
C1 N5 1.328 . S
C1 H6 0.930 . S
C2 C3 1.333 . S
C2 N4 1.317 . S
C2 H7 0.930 . S
C3 C2 1.333 . S
C3 N5 1.350 . S
C3 H29 0.931 . S
N4 Co0 2.148 . S
N4 C1 1.301 . S
N4 C2 1.317 . S
N5 C1 1.328 . S
N5 C3 1.350 . S
H6 C1 0.930 . S
H7 C2 0.930 . S
C8 O9 1.224 1_554 S
C8 O27 1.247 . S
O9 C8 1.224 1_556 S
N10 Co0 2.128 . S
N10 C11 1.355 . S
N10 C13 1.311 . S
C11 N10 1.355 . S
C11 C12 1.363 . S
C11 H23 0.929 . S
C12 C11 1.363 . S
C12 N14 1.375 . S
C12 H30 0.931 . S
C13 N10 1.311 . S
C13 N14 1.347 . S
C13 H24 0.929 . S
N14 C12 1.375 . S
N14 C13 1.347 . S
C15 C18 1.365 . S
C15 N20 1.328 . S
C15 H21 0.929 1_556 S
C16 C17 1.362 . S
C16 C19 1.378 . S
C16 H31 0.929 . S
C17 C16 1.362 . S
C17 C18 1.366 . S
C18 C15 1.365 . S
C18 C17 1.366 . S
C18 H32 0.930 . S
C19 C16 1.378 . S
C19 N20 1.315 . S
C19 H22 0.930 . S
N20 Co0 2.194 1_556 S
N20 C15 1.328 . S
N20 C19 1.315 . S
H21 C15 0.929 1_554 S
H22 C19 0.930 . S
H23 C11 0.929 . S
H24 C13 0.929 . S
O25 Co0 2.351 . S
O25 C28 1.244 . S
O26 Co0 2.155 . S
O26 C28 1.240 . S
O27 Co0 2.096 . S
O27 C8 1.247 . S
C28 O25 1.244 . S
C28 O26 1.240 . S
H29 C3 0.931 . S
H30 C12 0.931 . S
H31 C16 0.929 . S
H32 C18 0.930 . S
Co33 N37 2.148 . S
Co33 N43 2.128 . S
Co33 N53 2.194 1_554 S
Co33 O58 2.351 . S
Co33 O59 2.155 . S
Co33 O60 2.096 . S
C34 N37 1.301 . S
C34 N38 1.328 . S
C34 H39 0.930 . S
C35 C36 1.333 . S
C35 N37 1.317 . S
C35 H40 0.930 . S
C36 C35 1.333 . S
C36 N38 1.350 . S
C36 H62 0.931 . S
N37 Co33 2.148 . S
N37 C34 1.301 . S
N37 C35 1.317 . S
N38 C34 1.328 . S
N38 C36 1.350 . S
H39 C34 0.930 . S
H40 C35 0.930 . S
C41 O42 1.224 1_554 S
C41 O60 1.247 . S
O42 C41 1.224 1_556 S
N43 Co33 2.128 . S
N43 C44 1.355 . S
N43 C46 1.311 . S
C44 N43 1.355 . S
C44 C45 1.363 . S
C44 H56 0.929 . S
C45 C44 1.363 . S
C45 N47 1.375 . S
C45 H63 0.931 . S
C46 N43 1.311 . S
C46 N47 1.347 . S
C46 H57 0.929 . S
N47 C45 1.375 . S
N47 C46 1.347 . S
C48 C51 1.365 . S
C48 N53 1.328 . S
C48 H54 0.929 1_556 S
C49 C50 1.362 . S
C49 C52 1.378 . S
C49 H64 0.929 . S
C50 C49 1.362 . S
C50 C51 1.366 . S
C51 C48 1.365 . S
C51 C50 1.366 . S
C51 H65 0.930 . S
C52 C49 1.378 . S
C52 N53 1.315 . S
C52 H55 0.930 . S
N53 Co33 2.194 1_556 S
N53 C48 1.328 . S
N53 C52 1.315 . S
H54 C48 0.929 1_554 S
H55 C52 0.930 . S
H56 C44 0.929 . S
H57 C46 0.929 . S
O58 Co33 2.351 . S
O58 C61 1.244 . S
O59 Co33 2.155 . S
O59 C61 1.240 . S
O60 Co33 2.096 . S
O60 C41 1.247 . S
C61 O58 1.244 . S
C61 O59 1.240 . S
H62 C36 0.931 . S
H63 C45 0.931 . S
H64 C49 0.929 . S
H65 C51 0.930 . S
Co66 N70 2.148 . S
Co66 N76 2.128 . S
Co66 N86 2.194 1_554 S
Co66 O91 2.351 . S
Co66 O92 2.155 . S
Co66 O93 2.096 . S
C67 N70 1.301 . S
C67 N71 1.328 . S
C67 H72 0.930 . S
C68 C69 1.333 . S
C68 N70 1.317 . S
C68 H73 0.930 . S
C69 C68 1.333 . S
C69 N71 1.350 . S
C69 H95 0.931 . S
N70 Co66 2.148 . S
N70 C67 1.301 . S
N70 C68 1.317 . S
N71 C67 1.328 . S
N71 C69 1.350 . S
H72 C67 0.930 . S
H73 C68 0.930 . S
C74 O75 1.224 1_554 S
C74 O93 1.247 . S
O75 C74 1.224 1_556 S
N76 Co66 2.128 . S
N76 C77 1.355 . S
N76 C79 1.311 . S
C77 N76 1.355 . S
C77 C78 1.363 . S
C77 H89 0.929 . S
C78 C77 1.363 . S
C78 N80 1.375 . S
C78 H96 0.931 . S
C79 N76 1.311 . S
C79 N80 1.347 . S
C79 H90 0.929 . S
N80 C78 1.375 . S
N80 C79 1.347 . S
C81 C84 1.365 . S
C81 N86 1.328 . S
C81 H87 0.929 1_556 S
C82 C83 1.362 . S
C82 C85 1.378 . S
C82 H97 0.929 . S
C83 C82 1.362 . S
C83 C84 1.366 . S
C84 C81 1.365 . S
C84 C83 1.366 . S
C84 H98 0.930 . S
C85 C82 1.378 . S
C85 N86 1.315 . S
C85 H88 0.930 . S
N86 Co66 2.194 1_556 S
N86 C81 1.328 . S
N86 C85 1.315 . S
H87 C81 0.929 1_554 S
H88 C85 0.930 . S
H89 C77 0.929 . S
H90 C79 0.929 . S
O91 Co66 2.351 . S
O91 C94 1.244 . S
O92 Co66 2.155 . S
O92 C94 1.240 . S
O93 Co66 2.096 . S
O93 C74 1.247 . S
C94 O91 1.244 . S
C94 O92 1.240 . S
H95 C69 0.931 . S
H96 C78 0.931 . S
H97 C82 0.929 . S
H98 C84 0.930 . S
Co99 N103 2.148 . S
Co99 N109 2.128 . S
Co99 N119 2.194 1_554 S
Co99 O124 2.351 . S
Co99 O125 2.155 . S
Co99 O126 2.096 . S
C100 N103 1.301 . S
C100 N104 1.328 . S
C100 H105 0.930 . S
C101 C102 1.333 . S
C101 N103 1.317 . S
C101 H106 0.930 . S
C102 C101 1.333 . S
C102 N104 1.350 . S
C102 H128 0.931 . S
N103 Co99 2.148 . S
N103 C100 1.301 . S
N103 C101 1.317 . S
N104 C100 1.328 . S
N104 C102 1.350 . S
H105 C100 0.930 . S
H106 C101 0.930 . S
C107 O108 1.224 1_554 S
C107 O126 1.247 . S
O108 C107 1.224 1_556 S
N109 Co99 2.128 . S
N109 C110 1.355 . S
N109 C112 1.311 . S
C110 N109 1.355 . S
C110 C111 1.363 . S
C110 H122 0.929 . S
C111 C110 1.363 . S
C111 N113 1.375 . S
C111 H129 0.931 . S
C112 N109 1.311 . S
C112 N113 1.347 . S
C112 H123 0.929 . S
N113 C111 1.375 . S
N113 C112 1.347 . S
C114 C117 1.365 . S
C114 N119 1.328 . S
C114 H120 0.929 1_556 S
C115 C116 1.362 . S
C115 C118 1.378 . S
C115 H130 0.929 . S
C116 C115 1.362 . S
C116 C117 1.366 . S
C117 C114 1.365 . S
C117 C116 1.366 . S
C117 H131 0.930 . S
C118 C115 1.378 . S
C118 N119 1.315 . S
C118 H121 0.930 . S
N119 Co99 2.194 1_556 S
N119 C114 1.328 . S
N119 C118 1.315 . S
H120 C114 0.929 1_554 S
H121 C118 0.930 . S
H122 C110 0.929 . S
H123 C112 0.929 . S
O124 Co99 2.351 . S
O124 C127 1.244 . S
O125 Co99 2.155 . S
O125 C127 1.240 . S
O126 Co99 2.096 . S
O126 C107 1.247 . S
C127 O124 1.244 . S
C127 O125 1.240 . S
H128 C102 0.931 . S
H129 C111 0.931 . S
H130 C115 0.929 . S
H131 C117 0.930 . S
Co132 N136 2.148 . S
Co132 N142 2.128 . S
Co132 N152 2.194 . S
Co132 O157 2.351 . S
Co132 O158 2.155 . S
Co132 O159 2.096 . S
C133 N136 1.301 . S
C133 N137 1.328 . S
C133 H138 0.930 . S
C134 C135 1.325 1_655 S
C134 N136 1.317 . S
C134 H139 0.930 1_655 S
C135 C134 1.325 1_455 S
C135 N137 1.331 1_455 S
C135 H161 0.955 . S
N136 Co132 2.148 . S
N136 C133 1.301 . S
N136 C134 1.317 . S
N137 C133 1.328 . S
N137 C135 1.331 1_655 S
H138 C133 0.930 . S
H139 C134 0.930 1_455 S
C140 O141 1.224 . S
C140 O159 1.247 . S
O141 C140 1.224 . S
N142 Co132 2.128 . S
N142 C143 1.355 . S
N142 C145 1.311 . S
C143 N142 1.355 . S
C143 C144 1.363 . S
C143 H155 0.929 . S
C144 C143 1.363 . S
C144 N146 1.375 . S
C144 H162 0.931 . S
C145 N142 1.311 . S
C145 N146 1.347 . S
C145 H156 0.929 . S
N146 C144 1.375 . S
N146 C145 1.347 . S
C147 C150 1.365 . S
C147 N152 1.328 . S
C147 H153 0.929 . S
C148 C149 1.362 . S
C148 C151 1.378 . S
C148 H163 0.929 . S
C149 C148 1.362 . S
C149 C150 1.366 . S
C150 C147 1.365 . S
C150 C149 1.366 . S
C150 H164 0.930 . S
C151 C148 1.378 . S
C151 N152 1.315 . S
C151 H154 0.930 . S
N152 Co132 2.194 . S
N152 C147 1.328 . S
N152 C151 1.315 . S
H153 C147 0.929 . S
H154 C151 0.930 . S
H155 C143 0.929 . S
H156 C145 0.929 . S
O157 Co132 2.351 . S
O157 C160 1.244 . S
O158 Co132 2.155 . S
O158 C160 1.240 . S
O159 Co132 2.096 . S
O159 C140 1.247 . S
C160 O157 1.244 . S
C160 O158 1.240 . S
H161 C135 0.955 . S
H162 C144 0.931 . S
H163 C148 0.929 . S
H164 C150 0.930 . S
Co165 N169 2.148 . S
Co165 N175 2.128 . S
Co165 N185 2.194 . S
Co165 O190 2.351 . S
Co165 O191 2.155 . S
Co165 O192 2.096 . S
C166 N169 1.301 . S
C166 N170 1.328 . S
C166 H171 0.930 . S
C167 C168 1.325 1_565 S
C167 N169 1.317 . S
C167 H172 0.930 1_565 S
C168 C167 1.325 1_545 S
C168 N170 1.331 1_545 S
C168 H194 0.955 . S
N169 Co165 2.148 . S
N169 C166 1.301 . S
N169 C167 1.317 . S
N170 C166 1.328 . S
N170 C168 1.331 1_565 S
H171 C166 0.930 . S
H172 C167 0.930 1_545 S
C173 O174 1.224 . S
C173 O192 1.247 . S
O174 C173 1.224 . S
N175 Co165 2.128 . S
N175 C176 1.355 . S
N175 C178 1.311 . S
C176 N175 1.355 . S
C176 C177 1.363 . S
C176 H188 0.929 . S
C177 C176 1.363 . S
C177 N179 1.375 . S
C177 H195 0.931 . S
C178 N175 1.311 . S
C178 N179 1.347 . S
C178 H189 0.929 . S
N179 C177 1.375 . S
N179 C178 1.347 . S
C180 C183 1.365 . S
C180 N185 1.328 . S
C180 H186 0.929 . S
C181 C182 1.362 . S
C181 C184 1.378 . S
C181 H196 0.929 . S
C182 C181 1.362 . S
C182 C183 1.366 . S
C183 C180 1.365 . S
C183 C182 1.366 . S
C183 H197 0.930 . S
C184 C181 1.378 . S
C184 N185 1.315 . S
C184 H187 0.930 . S
N185 Co165 2.194 . S
N185 C180 1.328 . S
N185 C184 1.315 . S
H186 C180 0.929 . S
H187 C184 0.930 . S
H188 C176 0.929 . S
H189 C178 0.929 . S
O190 Co165 2.351 . S
O190 C193 1.244 . S
O191 Co165 2.155 . S
O191 C193 1.240 . S
O192 Co165 2.096 . S
O192 C173 1.247 . S
C193 O190 1.244 . S
C193 O191 1.240 . S
H194 C168 0.955 . S
H195 C177 0.931 . S
H196 C181 0.929 . S
H197 C183 0.930 . S
Co198 N202 2.148 . S
Co198 N208 2.128 . S
Co198 N218 2.194 . S
Co198 O223 2.351 . S
Co198 O224 2.155 . S
Co198 O225 2.096 . S
C199 N202 1.301 . S
C199 N203 1.328 . S
C199 H204 0.930 . S
C200 C201 1.325 1_455 S
C200 N202 1.317 . S
C200 H205 0.930 1_455 S
C201 C200 1.325 1_655 S
C201 N203 1.331 1_655 S
C201 H227 0.955 . S
N202 Co198 2.148 . S
N202 C199 1.301 . S
N202 C200 1.317 . S
N203 C199 1.328 . S
N203 C201 1.331 1_455 S
H204 C199 0.930 . S
H205 C200 0.930 1_655 S
C206 O207 1.224 . S
C206 O225 1.247 . S
O207 C206 1.224 . S
N208 Co198 2.128 . S
N208 C209 1.355 . S
N208 C211 1.311 . S
C209 N208 1.355 . S
C209 C210 1.363 . S
C209 H221 0.929 . S
C210 C209 1.363 . S
C210 N212 1.375 . S
C210 H228 0.931 . S
C211 N208 1.311 . S
C211 N212 1.347 . S
C211 H222 0.929 . S
N212 C210 1.375 . S
N212 C211 1.347 . S
C213 C216 1.365 . S
C213 N218 1.328 . S
C213 H219 0.929 . S
C214 C215 1.362 . S
C214 C217 1.378 . S
C214 H229 0.929 . S
C215 C214 1.362 . S
C215 C216 1.366 . S
C216 C213 1.365 . S
C216 C215 1.366 . S
C216 H230 0.930 . S
C217 C214 1.378 . S
C217 N218 1.315 . S
C217 H220 0.930 . S
N218 Co198 2.194 . S
N218 C213 1.328 . S
N218 C217 1.315 . S
H219 C213 0.929 . S
H220 C217 0.930 . S
H221 C209 0.929 . S
H222 C211 0.929 . S
O223 Co198 2.351 . S
O223 C226 1.244 . S
O224 Co198 2.155 . S
O224 C226 1.240 . S
O225 Co198 2.096 . S
O225 C206 1.247 . S
C226 O223 1.244 . S
C226 O224 1.240 . S
H227 C201 0.955 . S
H228 C210 0.931 . S
H229 C214 0.929 . S
H230 C216 0.930 . S
Co231 N235 2.148 . S
Co231 N241 2.128 . S
Co231 N251 2.194 . S
Co231 O256 2.351 . S
Co231 O257 2.155 . S
Co231 O258 2.096 . S
C232 N235 1.301 . S
C232 N236 1.328 . S
C232 H237 0.930 . S
C233 C234 1.325 1_545 S
C233 N235 1.317 . S
C233 H238 0.930 1_545 S
C234 C233 1.325 1_565 S
C234 N236 1.331 1_565 S
C234 H260 0.955 . S
N235 Co231 2.148 . S
N235 C232 1.301 . S
N235 C233 1.317 . S
N236 C232 1.328 . S
N236 C234 1.331 1_545 S
H237 C232 0.930 . S
H238 C233 0.930 1_565 S
C239 O240 1.224 . S
C239 O258 1.247 . S
O240 C239 1.224 . S
N241 Co231 2.128 . S
N241 C242 1.355 . S
N241 C244 1.311 . S
C242 N241 1.355 . S
C242 C243 1.363 . S
C242 H254 0.929 . S
C243 C242 1.363 . S
C243 N245 1.375 . S
C243 H261 0.931 . S
C244 N241 1.311 . S
C244 N245 1.347 . S
C244 H255 0.929 . S
N245 C243 1.375 . S
N245 C244 1.347 . S
C246 C249 1.365 . S
C246 N251 1.328 . S
C246 H252 0.929 . S
C247 C248 1.362 . S
C247 C250 1.378 . S
C247 H262 0.929 . S
C248 C247 1.362 . S
C248 C249 1.366 . S
C249 C246 1.365 . S
C249 C248 1.366 . S
C249 H263 0.930 . S
C250 C247 1.378 . S
C250 N251 1.315 . S
C250 H253 0.930 . S
N251 Co231 2.194 . S
N251 C246 1.328 . S
N251 C250 1.315 . S
H252 C246 0.929 . S
H253 C250 0.930 . S
H254 C242 0.929 . S
H255 C244 0.929 . S
O256 Co231 2.351 . S
O256 C259 1.244 . S
O257 Co231 2.155 . S
O257 C259 1.240 . S
O258 Co231 2.096 . S
O258 C239 1.247 . S
C259 O256 1.244 . S
C259 O257 1.240 . S
H260 C234 0.955 . S
H261 C243 0.931 . S
H262 C247 0.929 . S
H263 C249 0.930 . S
H264 C270 0.930 . S
H265 C274 0.930 1_556 S
H266 C279 0.929 1_556 S
H267 C277 0.929 . S
H268 C272 0.929 1_556 S
H269 C278 0.929 . S
C270 H264 0.930 . S
C270 C271 1.367 . S
C270 C278 1.378 . S
C271 C270 1.367 . S
C271 C279 1.433 . S
C272 H268 0.929 1_554 S
C272 C274 1.378 . S
C272 C276 1.350 . S
C273 C276 1.463 1_565 S
C273 C278 1.350 . S
C273 N281 1.427 . S
C274 H265 0.930 1_554 S
C274 C272 1.378 . S
C274 C275 1.367 . S
C275 C274 1.367 . S
C275 C277 1.433 . S
C276 C272 1.350 . S
C276 C273 1.463 1_545 S
C276 N280 1.427 . S
C277 H267 0.929 . S
C277 C275 1.433 . S
C277 N280 1.384 . S
C278 H269 0.929 . S
C278 C270 1.378 . S
C278 C273 1.350 . S
C279 H266 0.929 1_554 S
C279 C271 1.433 . S
C279 N281 1.384 . S
N280 C276 1.427 . S
N280 C277 1.384 . S
N281 C273 1.427 . S
N281 C279 1.384 . S
H282 C288 0.930 1_556 S
H283 C292 0.930 . S
H284 C297 0.929 . S
H285 C295 0.929 1_556 S
H286 C290 0.929 . S
H287 C296 0.929 1_556 S
C288 H282 0.930 1_554 S
C288 C289 1.367 . S
C288 C296 1.378 . S
C289 C288 1.367 . S
C289 C297 1.433 . S
C290 H286 0.929 . S
C290 C292 1.378 . S
C290 C294 1.350 . S
C291 C294 1.463 1_655 S
C291 C296 1.350 . S
C291 N299 1.427 . S
C292 H283 0.930 . S
C292 C290 1.378 . S
C292 C293 1.367 . S
C293 C292 1.367 . S
C293 C295 1.433 . S
C294 C290 1.350 . S
C294 C291 1.463 1_455 S
C294 N298 1.427 . S
C295 H285 0.929 1_554 S
C295 C293 1.433 . S
C295 N298 1.384 . S
C296 H287 0.929 1_554 S
C296 C288 1.378 . S
C296 C291 1.350 . S
C297 H284 0.929 . S
C297 C289 1.433 . S
C297 N299 1.384 . S
N298 C294 1.427 . S
N298 C295 1.384 . S
N299 C291 1.427 . S
N299 C297 1.384 . S
H300 C306 0.930 . S
H301 C310 0.930 . S
H302 C315 0.929 . S
H303 C313 0.929 . S
H304 C308 0.929 . S
H305 C314 0.929 . S
C306 H300 0.930 . S
C306 C307 1.367 . S
C306 C314 1.378 . S
C307 C306 1.367 . S
C307 C315 1.433 . S
C308 H304 0.929 . S
C308 C310 1.378 . S
C308 C312 1.350 . S
C309 C312 1.463 1_655 S
C309 C314 1.350 . S
C309 N317 1.427 . S
C310 H301 0.930 . S
C310 C308 1.378 . S
C310 C311 1.367 . S
C311 C310 1.367 . S
C311 C313 1.433 . S
C312 C308 1.350 . S
C312 C309 1.463 1_455 S
C312 N316 1.427 . S
C313 H303 0.929 . S
C313 C311 1.433 . S
C313 N316 1.384 . S
C314 H305 0.929 . S
C314 C306 1.378 . S
C314 C309 1.350 . S
C315 H302 0.929 . S
C315 C307 1.433 . S
C315 N317 1.384 . S
N316 C312 1.427 . S
N316 C313 1.384 . S
N317 C309 1.427 . S
N317 C315 1.384 . S
H318 C324 0.930 . S
H319 C328 0.930 . S
H320 C333 0.929 . S
H321 C331 0.929 . S
H322 C326 0.929 . S
H323 C332 0.929 . S
C324 H318 0.930 . S
C324 C325 1.367 . S
C324 C332 1.378 . S
C325 C324 1.367 . S
C325 C333 1.433 . S
C326 H322 0.929 . S
C326 C328 1.378 . S
C326 C330 1.350 . S
C327 C330 1.463 1_565 S
C327 C332 1.350 . S
C327 N335 1.427 . S
C328 H319 0.930 . S
C328 C326 1.378 . S
C328 C329 1.367 . S
C329 C328 1.367 . S
C329 C331 1.433 . S
C330 C326 1.350 . S
C330 C327 1.463 1_545 S
C330 N334 1.427 . S
C331 H321 0.929 . S
C331 C329 1.433 . S
C331 N334 1.384 . S
C332 H323 0.929 . S
C332 C324 1.378 . S
C332 C327 1.350 . S
C333 H320 0.929 . S
C333 C325 1.433 . S
C333 N335 1.384 . S
N334 C330 1.427 . S
N334 C331 1.384 . S
N335 C327 1.427 . S
N335 C333 1.384 . S
H336 C342 0.930 . S
H337 C346 0.930 . S
H338 C351 0.929 . S
H339 C349 0.929 . S
H340 C344 0.929 . S
H341 C350 0.929 . S
C342 H336 0.930 . S
C342 C343 1.367 1_556 S
C342 C350 1.378 . S
C343 C342 1.367 1_554 S
C343 C351 1.433 . S
C344 H340 0.929 . S
C344 C346 1.378 . S
C344 C348 1.350 . S
C345 C348 1.463 . S
C345 C350 1.350 1_554 S
C345 N353 1.427 . S
C346 H337 0.930 . S
C346 C344 1.378 . S
C346 C347 1.367 . S
C347 C346 1.367 . S
C347 C349 1.433 1_554 S
C348 C344 1.350 . S
C348 C345 1.463 . S
C348 N352 1.427 1_554 S
C349 H339 0.929 . S
C349 C347 1.433 1_556 S
C349 N352 1.384 . S
C350 H341 0.929 . S
C350 C342 1.378 . S
C350 C345 1.350 1_556 S
C351 H338 0.929 . S
C351 C343 1.433 . S
C351 N353 1.384 . S
N352 C348 1.427 1_556 S
N352 C349 1.384 . S
N353 C345 1.427 . S
N353 C351 1.384 . S
H354 C360 0.930 . S
H355 C364 0.930 . S
H356 C369 0.929 . S
H357 C367 0.929 . S
H358 C362 0.929 . S
H359 C368 0.929 . S
C360 H354 0.930 . S
C360 C361 1.367 1_556 S
C360 C368 1.378 . S
C361 C360 1.367 1_554 S
C361 C369 1.433 . S
C362 H358 0.929 . S
C362 C364 1.378 . S
C362 C366 1.350 . S
C363 C366 1.463 . S
C363 C368 1.350 1_554 S
C363 N371 1.427 . S
C364 H355 0.930 . S
C364 C362 1.378 . S
C364 C365 1.367 . S
C365 C364 1.367 . S
C365 C367 1.433 1_554 S
C366 C362 1.350 . S
C366 C363 1.463 . S
C366 N370 1.427 1_554 S
C367 H357 0.929 . S
C367 C365 1.433 1_556 S
C367 N370 1.384 . S
C368 H359 0.929 . S
C368 C360 1.378 . S
C368 C363 1.350 1_556 S
C369 H356 0.929 . S
C369 C361 1.433 . S
C369 N371 1.384 . S
N370 C366 1.427 1_556 S
N370 C367 1.384 . S
N371 C363 1.427 . S
N371 C369 1.384 . S
H372 C378 0.930 . S
H373 C382 0.930 . S
H374 C387 0.929 . S
H375 C385 0.929 . S
H376 C380 0.929 . S
H377 C386 0.929 . S
C378 H372 0.930 . S
C378 C379 1.367 . S
C378 C386 1.378 . S
C379 C378 1.367 . S
C379 C387 1.433 1_554 S
C380 H376 0.929 . S
C380 C382 1.378 . S
C380 C384 1.350 1_556 S
C381 C384 1.463 . S
C381 C386 1.350 . S
C381 N389 1.427 1_554 S
C382 H373 0.930 . S
C382 C380 1.378 . S
C382 C383 1.367 1_556 S
C383 C382 1.367 1_554 S
C383 C385 1.433 . S
C384 C380 1.350 1_554 S
C384 C381 1.463 . S
C384 N388 1.427 . S
C385 H375 0.929 . S
C385 C383 1.433 . S
C385 N388 1.384 . S
C386 H377 0.929 . S
C386 C378 1.378 . S
C386 C381 1.350 . S
C387 H374 0.929 . S
C387 C379 1.433 1_556 S
C387 N389 1.384 . S
N388 C384 1.427 . S
N388 C385 1.384 . S
N389 C381 1.427 1_556 S
N389 C387 1.384 . S
H390 C396 0.930 . S
H391 C400 0.930 . S
H392 C405 0.929 . S
H393 C403 0.929 . S
H394 C398 0.929 . S
H395 C404 0.929 . S
C396 H390 0.930 . S
C396 C397 1.367 . S
C396 C404 1.378 . S
C397 C396 1.367 . S
C397 C405 1.433 . S
C398 H394 0.929 . S
C398 C400 1.378 . S
C398 C402 1.350 . S
C399 C402 1.463 . S
C399 C404 1.350 . S
C399 N407 1.427 . S
C400 H391 0.930 . S
C400 C398 1.378 . S
C400 C401 1.367 . S
C401 C400 1.367 . S
C401 C403 1.433 . S
C402 C398 1.350 . S
C402 C399 1.463 . S
C402 N406 1.427 . S
C403 H393 0.929 . S
C403 C401 1.433 . S
C403 N406 1.384 . S
C404 H395 0.929 . S
C404 C396 1.378 . S
C404 C399 1.350 . S
C405 H392 0.929 . S
C405 C397 1.433 . S
C405 N407 1.384 . S
N406 C402 1.427 . S
N406 C403 1.384 . S
N407 C399 1.427 . S
N407 C405 1.384 . S
H408 C414 0.930 . S
H409 C418 0.930 . S
H410 C423 0.929 1_565 S
H411 C421 0.929 . S
H412 C416 0.929 . S
H413 C422 0.929 . S
C414 H408 0.930 . S
C414 C415 1.367 . S
C414 C422 1.378 . S
C415 C414 1.367 . S
C415 C423 1.433 . S
C416 H412 0.929 . S
C416 C418 1.378 . S
C416 C420 1.350 . S
C417 C420 1.463 . S
C417 C422 1.350 . S
C417 N425 1.427 . S
C418 H409 0.930 . S
C418 C416 1.378 . S
C418 C419 1.367 . S
C419 C418 1.367 . S
C419 C421 1.433 . S
C420 C416 1.350 . S
C420 C417 1.463 . S
C420 N424 1.427 . S
C421 H411 0.929 . S
C421 C419 1.433 . S
C421 N424 1.384 . S
C422 H413 0.929 . S
C422 C414 1.378 . S
C422 C417 1.350 . S
C423 H410 0.929 1_545 S
C423 C415 1.433 . S
C423 N425 1.384 . S
N424 C420 1.427 . S
N424 C421 1.384 . S
N425 C417 1.427 . S
N425 C423 1.384 . S
H426 C432 0.930 1_455 S
H427 C436 0.930 . S
H428 C441 0.929 . S
H429 C439 0.929 . S
H430 C434 0.929 . S
H431 C440 0.929 . S
C432 H426 0.930 1_655 S
C432 C433 1.367 . S
C432 C440 1.378 . S
C433 C432 1.367 . S
C433 C441 1.433 . S
C434 H430 0.929 . S
C434 C436 1.378 . S
C434 C438 1.350 . S
C435 C438 1.463 . S
C435 C440 1.350 . S
C435 N443 1.427 . S
C436 H427 0.930 . S
C436 C434 1.378 . S
C436 C437 1.367 . S
C437 C436 1.367 . S
C437 C439 1.433 . S
C438 C434 1.350 . S
C438 C435 1.463 . S
C438 N442 1.427 . S
C439 H429 0.929 . S
C439 C437 1.433 . S
C439 N442 1.384 . S
C440 H431 0.929 . S
C440 C432 1.378 . S
C440 C435 1.350 . S
C441 H428 0.929 . S
C441 C433 1.433 . S
C441 N443 1.384 . S
N442 C438 1.427 . S
N442 C439 1.384 . S
N443 C435 1.427 . S
N443 C441 1.384 . S
H444 C450 0.930 . S
H445 C454 0.930 . S
H446 C459 0.929 1_545 S
H447 C457 0.929 . S
H448 C452 0.929 . S
H449 C458 0.929 . S
C450 H444 0.930 . S
C450 C451 1.367 . S
C450 C458 1.378 . S
C451 C450 1.367 . S
C451 C459 1.433 . S
C452 H448 0.929 . S
C452 C454 1.378 . S
C452 C456 1.350 . S
C453 C456 1.463 . S
C453 C458 1.350 . S
C453 N461 1.427 . S
C454 H445 0.930 . S
C454 C452 1.378 . S
C454 C455 1.367 . S
C455 C454 1.367 . S
C455 C457 1.433 . S
C456 C452 1.350 . S
C456 C453 1.463 . S
C456 N460 1.427 . S
C457 H447 0.929 . S
C457 C455 1.433 . S
C457 N460 1.384 . S
C458 H449 0.929 . S
C458 C450 1.378 . S
C458 C453 1.350 . S
C459 H446 0.929 1_565 S
C459 C451 1.433 . S
C459 N461 1.384 . S
N460 C456 1.427 . S
N460 C457 1.384 . S
N461 C453 1.427 . S
N461 C459 1.384 . S
H462 C468 0.930 . S
H463 C472 0.930 . S
H464 C477 0.929 . S
H465 C475 0.929 . S
H466 C470 0.929 . S
H467 C476 0.929 . S
C468 H462 0.930 . S
C468 C469 1.367 . S
C468 C476 1.378 . S
C469 C468 1.367 . S
C469 C477 1.433 . S
C470 H466 0.929 . S
C470 C472 1.378 . S
C470 C474 1.350 . S
C471 C474 1.463 . S
C471 C476 1.350 . S
C471 N479 1.427 . S
C472 H463 0.930 . S
C472 C470 1.378 . S
C472 C473 1.367 . S
C473 C472 1.367 . S
C473 C475 1.433 . S
C474 C470 1.350 . S
C474 C471 1.463 . S
C474 N478 1.427 . S
C475 H465 0.929 . S
C475 C473 1.433 . S
C475 N478 1.384 . S
C476 H467 0.929 . S
C476 C468 1.378 . S
C476 C471 1.350 . S
C477 H464 0.929 . S
C477 C469 1.433 . S
C477 N479 1.384 . S
N478 C474 1.427 . S
N478 C475 1.384 . S
N479 C471 1.427 . S
N479 C477 1.384 . S
H480 C486 0.930 . S
H481 C490 0.930 . S
H482 C495 0.929 . S
H483 C493 0.929 . S
H484 C488 0.929 . S
H485 C494 0.929 . S
C486 H480 0.930 . S
C486 C487 1.367 . S
C486 C494 1.378 . S
C487 C486 1.367 . S
C487 C495 1.433 . S
C488 H484 0.929 . S
C488 C490 1.378 . S
C488 C492 1.350 . S
C489 C492 1.463 . S
C489 C494 1.350 . S
C489 N497 1.427 . S
C490 H481 0.930 . S
C490 C488 1.378 . S
C490 C491 1.367 . S
C491 C490 1.367 . S
C491 C493 1.433 . S
C492 C488 1.350 . S
C492 C489 1.463 . S
C492 N496 1.427 . S
C493 H483 0.929 . S
C493 C491 1.433 . S
C493 N496 1.384 . S
C494 H485 0.929 . S
C494 C486 1.378 . S
C494 C489 1.350 . S
C495 H482 0.929 . S
C495 C487 1.433 . S
C495 N497 1.384 . S
N496 C492 1.427 . S
N496 C493 1.384 . S
N497 C489 1.427 . S
N497 C495 1.384 . S
H498 C504 0.930 . S
H499 C508 0.930 . S
H500 C513 0.929 . S
H501 C511 0.929 . S
H502 C506 0.929 . S
H503 C512 0.929 . S
C504 H498 0.930 . S
C504 C505 1.367 . S
C504 C512 1.378 . S
C505 C504 1.367 . S
C505 C513 1.433 . S
C506 H502 0.929 . S
C506 C508 1.378 . S
C506 C510 1.350 . S
C507 C510 1.463 . S
C507 C512 1.350 . S
C507 N515 1.427 . S
C508 H499 0.930 . S
C508 C506 1.378 . S
C508 C509 1.367 . S
C509 C508 1.367 . S
C509 C511 1.433 . S
C510 C506 1.350 . S
C510 C507 1.463 . S
C510 N514 1.427 . S
C511 H501 0.929 . S
C511 C509 1.433 . S
C511 N514 1.384 . S
C512 H503 0.929 . S
C512 C504 1.378 . S
C512 C507 1.350 . S
C513 H500 0.929 . S
C513 C505 1.433 . S
C513 N515 1.384 . S
N514 C510 1.427 . S
N514 C511 1.384 . S
N515 C507 1.427 . S
N515 C513 1.384 . S
H516 C522 0.930 . S
H517 C526 0.930 . S
H518 C531 0.929 . S
H519 C529 0.929 . S
H520 C524 0.929 . S
H521 C530 0.929 . S
C522 H516 0.930 . S
C522 C523 1.367 . S
C522 C530 1.378 . S
C523 C522 1.367 . S
C523 C531 1.433 . S
C524 H520 0.929 . S
C524 C526 1.378 . S
C524 C528 1.350 . S
C525 C528 1.463 . S
C525 C530 1.350 . S
C525 N533 1.427 . S
C526 H517 0.930 . S
C526 C524 1.378 . S
C526 C527 1.367 . S
C527 C526 1.367 . S
C527 C529 1.433 . S
C528 C524 1.350 . S
C528 C525 1.463 . S
C528 N532 1.427 . S
C529 H519 0.929 . S
C529 C527 1.433 . S
C529 N532 1.384 . S
C530 H521 0.929 . S
C530 C522 1.378 . S
C530 C525 1.350 . S
C531 H518 0.929 . S
C531 C523 1.433 . S
C531 N533 1.384 . S
N532 C528 1.427 . S
N532 C529 1.384 . S
N533 C525 1.427 . S
N533 C531 1.384 . S
H534 C540 0.930 . S
H535 C544 0.930 . S
H536 C549 0.929 . S
H537 C547 0.929 . S
H538 C542 0.929 . S
H539 C548 0.929 . S
C540 H534 0.930 . S
C540 C541 1.367 . S
C540 C548 1.378 . S
C541 C540 1.367 . S
C541 C549 1.433 . S
C542 H538 0.929 . S
C542 C544 1.378 . S
C542 C546 1.350 . S
C543 C546 1.463 . S
C543 C548 1.350 . S
C543 N551 1.427 . S
C544 H535 0.930 . S
C544 C542 1.378 . S
C544 C545 1.367 . S
C545 C544 1.367 . S
C545 C547 1.433 . S
C546 C542 1.350 . S
C546 C543 1.463 . S
C546 N550 1.427 . S
C547 H537 0.929 . S
C547 C545 1.433 . S
C547 N550 1.384 . S
C548 H539 0.929 . S
C548 C540 1.378 . S
C548 C543 1.350 . S
C549 H536 0.929 . S
C549 C541 1.433 . S
C549 N551 1.384 . S
N550 C546 1.427 . S
N550 C547 1.384 . S
N551 C543 1.427 . S
N551 C549 1.384 . S
H552 C558 0.930 . S
H553 C562 0.930 . S
H554 C567 0.929 . S
H555 C565 0.929 . S
H556 C560 0.929 . S
H557 C566 0.929 . S
C558 H552 0.930 . S
C558 C559 1.367 . S
C558 C566 1.378 . S
C559 C558 1.367 . S
C559 C567 1.433 . S
C560 H556 0.929 . S
C560 C562 1.378 . S
C560 C564 1.350 . S
C561 C564 1.463 . S
C561 C566 1.350 . S
C561 N569 1.427 . S
C562 H553 0.930 . S
C562 C560 1.378 . S
C562 C563 1.367 . S
C563 C562 1.367 . S
C563 C565 1.433 . S
C564 C560 1.350 . S
C564 C561 1.463 . S
C564 N568 1.427 . S
C565 H555 0.929 . S
C565 C563 1.433 . S
C565 N568 1.384 . S
C566 H557 0.929 . S
C566 C558 1.378 . S
C566 C561 1.350 . S
C567 H554 0.929 . S
C567 C559 1.433 . S
C567 N569 1.384 . S
N568 C564 1.427 . S
N568 C565 1.384 . S
N569 C561 1.427 . S
N569 C567 1.384 . S
H570 C576 0.930 . S
H571 C580 0.930 . S
H572 C585 0.929 . S
H573 C583 0.929 . S
H574 C578 0.929 . S
H575 C584 0.929 . S
C576 H570 0.930 . S
C576 C577 1.367 . S
C576 C584 1.378 . S
C577 C576 1.367 . S
C577 C585 1.433 . S
C578 H574 0.929 . S
C578 C580 1.378 . S
C578 C582 1.350 . S
C579 C582 1.463 . S
C579 C584 1.350 . S
C579 N587 1.427 . S
C580 H571 0.930 . S
C580 C578 1.378 . S
C580 C581 1.367 . S
C581 C580 1.367 . S
C581 C583 1.433 . S
C582 C578 1.350 . S
C582 C579 1.463 . S
C582 N586 1.427 . S
C583 H573 0.929 . S
C583 C581 1.433 . S
C583 N586 1.384 . S
C584 H575 0.929 . S
C584 C576 1.378 . S
C584 C579 1.350 . S
C585 H572 0.929 . S
C585 C577 1.433 . S
C585 N587 1.384 . S
N586 C582 1.427 . S
N586 C583 1.384 . S
N587 C579 1.427 . S
N587 C585 1.384 . S
H588 C594 0.930 . S
H589 C598 0.930 . S
H590 C603 0.929 . S
H591 C601 0.929 . S
H592 C596 0.929 . S
H593 C602 0.929 . S
C594 H588 0.930 . S
C594 C595 1.367 . S
C594 C602 1.378 . S
C595 C594 1.367 . S
C595 C603 1.433 . S
C596 H592 0.929 . S
C596 C598 1.378 . S
C596 C600 1.350 . S
C597 C600 1.463 . S
C597 C602 1.350 . S
C597 N605 1.427 . S
C598 H589 0.930 . S
C598 C596 1.378 . S
C598 C599 1.367 . S
C599 C598 1.367 . S
C599 C601 1.433 . S
C600 C596 1.350 . S
C600 C597 1.463 . S
C600 N604 1.427 . S
C601 H591 0.929 . S
C601 C599 1.433 . S
C601 N604 1.384 . S
C602 H593 0.929 . S
C602 C594 1.378 . S
C602 C597 1.350 . S
C603 H590 0.929 . S
C603 C595 1.433 . S
C603 N605 1.384 . S
N604 C600 1.427 . S
N604 C601 1.384 . S
N605 C597 1.427 . S
N605 C603 1.384 . S
H606 C612 0.930 . S
H607 C616 0.930 . S
H608 C621 0.929 . S
H609 C619 0.929 . S
H610 C614 0.929 . S
H611 C620 0.929 . S
C612 H606 0.930 . S
C612 C613 1.367 . S
C612 C620 1.378 . S
C613 C612 1.367 . S
C613 C621 1.433 . S
C614 H610 0.929 . S
C614 C616 1.378 . S
C614 C618 1.350 . S
C615 C618 1.463 . S
C615 C620 1.350 . S
C615 N623 1.427 . S
C616 H607 0.930 . S
C616 C614 1.378 . S
C616 C617 1.367 . S
C617 C616 1.367 . S
C617 C619 1.433 . S
C618 C614 1.350 . S
C618 C615 1.463 . S
C618 N622 1.427 . S
C619 H609 0.929 . S
C619 C617 1.433 . S
C619 N622 1.384 . S
C620 H611 0.929 . S
C620 C612 1.378 . S
C620 C615 1.350 . S
C621 H608 0.929 . S
C621 C613 1.433 . S
C621 N623 1.384 . S
N622 C618 1.427 . S
N622 C619 1.384 . S
N623 C615 1.427 . S
N623 C621 1.384 . S
C271 N71 1.541 . S
C275 N5 1.540 . S
C289 N38 1.537 . S
C293 N104 1.538 . S
C307 N137 1.539 . S
C311 N203 1.540 . S
C325 N170 1.538 . S
C329 N236 1.540 . S
C343 C107 1.599 . S
C347 N14 1.539 . S
C361 C8 1.599 . S
C365 N47 1.538 . S
C379 N80 1.540 . S
C383 C41 1.599 . S
C397 N113 1.532 . S
C401 C74 1.601 . S
C415 C173 1.599 1_545 S
C419 N146 1.545 . S
C433 C206 1.600 1_655 S
C437 N179 1.532 . S
C451 C239 1.600 1_565 S
C455 N212 1.546 . S
C469 C140 1.601 1_455 S
C473 N245 1.542 . S
C487 C28 1.366 . S
C491 C259 1.366 . S
C505 C61 1.366 . S
C509 C160 1.366 . S
C523 C193 1.362 . S
C527 C94 1.362 . S
C541 C226 1.362 . S
C545 C127 1.362 . S
C559 C83 1.457 . S
C563 C182 1.453 . S
C577 C215 1.456 . S
C581 C116 1.454 . S
C595 C248 1.451 . S
C599 C17 1.457 . S
C613 C149 1.456 . S
C617 C50 1.454 . S
