# Generated by pormake.
# Topology qtz-x, (6)-cn, num edge types: 1
# Building blocks:
#     Node 0, Type 0, BuildingBlock: LEVNOQ01_clean_sbu_1, # of connection points: 6
#     Node 1, Type 0, BuildingBlock: LEVNOQ01_clean_sbu_1, # of connection points: 6
#     Node 2, Type 0, BuildingBlock: LEVNOQ01_clean_sbu_1, # of connection points: 6
#     Edge 3, Type (0, 0), BuildingBlock: FUNLAD_clean_linker_1, # of connection points: 2
#     Edge 4, Type (0, 0), BuildingBlock: FUNLAD_clean_linker_1, # of connection points: 2
#     Edge 5, Type (0, 0), BuildingBlock: FUNLAD_clean_linker_1, # of connection points: 2
#     Edge 6, Type (0, 0), BuildingBlock: FUNLAD_clean_linker_1, # of connection points: 2
#     Edge 7, Type (0, 0), BuildingBlock: FUNLAD_clean_linker_1, # of connection points: 2
#     Edge 8, Type (0, 0), BuildingBlock: FUNLAD_clean_linker_1, # of connection points: 2
#     Edge 9, Type (0, 0), BuildingBlock: FUNLAD_clean_linker_1, # of connection points: 2
#     Edge 10, Type (0, 0), BuildingBlock: FUNLAD_clean_linker_1, # of connection points: 2
#     Edge 11, Type (0, 0), BuildingBlock: FUNLAD_clean_linker_1, # of connection points: 2
# Relax obj value: 0.267
# Max RMSD: 0.266
# Mean RMSD: 0.263
data_MOF--net-qtz-x--node1-LEVNOQ01_clean_sbu_1--edge1-FUNLAD_clean_linker_1
_symmetry_space_group_name_H-M    P1
_symmetry_Int_Tables_number       1
_symmetry_cell_setting            triclinic
loop_
_symmetry_equiv_pos_as_xyz
'x, y, z'
_cell_length_a     16.564515
_cell_length_b     16.379638
_cell_length_c     41.838983
_cell_angle_alpha  94.237223
_cell_angle_beta   94.217256
_cell_angle_gamma 120.10954
loop_
_atom_site_label
_atom_site_type_symbol
_atom_site_fract_x
_atom_site_fract_y
_atom_site_fract_z
_atom_type_partial_charge
O0 O 0.76608 0.2536 0.06622 0.0
Mg1 Mg 0.9024 0.2844 0.07829 0.0
O2 O 0.82085 0.38848 0.09758 0.0
Mg3 Mg 0.94689 0.41591 0.13652 0.0
O4 O 0.94448 0.2733 0.12379 0.0
O5 O 0.91245 0.16822 0.08011 0.0
O6 O 0.06954 0.45961 0.17668 0.0
O7 O 0.84674 0.3267 0.17394 0.0
Mg8 Mg 0.90822 0.52657 0.19601 0.0
O9 O 0.95605 0.55589 0.15236 0.0
O10 O 0.03204 0.52844 0.21682 0.0
O11 O 0.78158 0.39937 0.19705 0.0
O12 O 0.87888 0.61849 0.17263 0.0
C13 C 0.06183 0.4768 0.07125 0.0
C14 C 0.76138 0.3263 0.07476 0.0
C15 C 0.93736 0.19493 0.11081 0.0
C16 C 0.085 0.50001 0.20568 0.0
C17 C 0.78926 0.32682 0.19261 0.0
C18 C 0.91823 0.60702 0.1488 0.0
O19 O 0.00646 0.39384 0.05679 0.0
O20 O 0.05586 0.4997 0.10052 0.0
O21 O 0.52297 0.16033 0.41999 0.0
Mg22 Mg 0.44733 0.01732 0.42782 0.0
O23 O 0.60999 0.09825 0.43004 0.0
Mg24 Mg 0.52934 0.00157 0.47224 0.0
O25 O 0.37199 -0.01524 0.46606 0.0
O26 O 0.31193 0.97294 0.41476 0.0
O27 O 0.46957 0.91021 0.5139 0.0
O28 O 0.57295 0.13963 0.50833 0.0
Mg29 Mg 0.695 0.05925 0.52796 0.0
O30 O 0.67168 0.00659 0.48081 0.0
O31 O 0.59112 0.95105 0.55107 0.0
O32 O 0.71214 0.19431 0.53652 0.0
O33 O 0.80248 0.04549 0.51329 0.0
C34 C 0.47156 0.85595 0.40925 0.0
C35 C 0.59603 0.15753 0.4159 0.0
C36 C 0.30203 0.96897 0.44485 0.0
C37 C 0.50377 0.90084 0.54082 0.0
C38 C 0.64067 0.20146 0.5293 0.0
C39 C 0.75143 0.0093 0.48555 0.0
O40 O 0.46799 0.92214 0.39693 0.0
O41 O 0.48031 0.85956 0.4397 0.0
O42 O 0.39851 0.69233 0.85502 0.0
Mg43 Mg 0.49518 0.64628 0.85249 0.0
O44 O 0.32771 0.53994 0.84015 0.0
Mg45 Mg 0.41996 0.52035 0.80219 0.0
O46 O 0.56892 0.66465 0.8143 0.0
O47 O 0.62351 0.76081 0.86183 0.0
O48 O 0.49284 0.48216 0.76204 0.0
O49 O 0.38104 0.60192 0.76599 0.0
Mg50 Mg 0.26228 0.38951 0.74045 0.0
O51 O 0.28483 0.38136 0.78776 0.0
O52 O 0.37894 0.39488 0.72115 0.0
O53 O 0.2448 0.50665 0.73554 0.0
O54 O 0.16034 0.26652 0.756 0.0
C55 C 0.47955 0.46577 0.86911 0.0
C56 C 0.32743 0.61107 0.8546 0.0
C57 C 0.63482 0.74017 0.83278 0.0
C58 C 0.46456 0.43528 0.7336 0.0
C59 C 0.31468 0.58923 0.74486 0.0
C60 C 0.20898 0.29936 0.78419 0.0
O61 O 0.48584 0.54211 0.88138 0.0
O62 O 0.46334 0.44321 0.83851 0.0
H63 H 0.90778 0.68476 0.11031 0.0
C64 C 0.95682 0.68524 0.12918 0.0
H65 H 0.07298 0.76999 0.16461 0.0
H66 H 0.04262 0.08176 0.07738 0.0
H67 H 0.1375 0.05148 0.04223 0.0
H68 H 0.18074 0.93072 0.05216 0.0
H69 H 0.12963 0.83997 0.09766 0.0
C70 C 0.02895 0.76911 0.1438 0.0
C71 C 0.0232 0.85595 0.14163 0.0
C72 C 0.05335 0.90751 0.11513 0.0
C73 C 0.02781 -0.02374 0.10934 0.0
C74 C 0.05909 0.02767 0.08269 0.0
C75 C 0.11383 0.01121 0.06239 0.0
C76 C 0.13815 0.9432 0.06799 0.0
C77 C 0.10821 0.89147 0.09401 0.0
H78 H 0.00985 0.16934 0.1522 0.0
C79 C -0.03997 0.13641 0.1303 0.0
H80 H 0.87692 0.01326 0.09676 0.0
H81 H -0.02161 0.78958 0.19994 0.0
H82 H 0.88255 0.81842 0.23506 0.0
H83 H 0.82508 0.92659 0.22214 0.0
H84 H 0.86511 0.008 0.17435 0.0
C85 C 0.92664 0.04513 0.11874 0.0
C86 C -0.02963 -0.0089 0.12968 0.0
C87 C 0.9463 0.94494 0.15763 0.0
C88 C -0.02426 0.87947 0.16424 0.0
C89 C 0.95356 0.83609 0.19288 0.0
C90 C 0.8996 0.85301 0.21343 0.0
C91 C 0.86751 0.91414 0.20621 0.0
C92 C 0.89085 0.96028 0.17873 0.0
H93 H 0.15252 0.91421 0.43358 0.0
C94 C 0.20978 0.94925 0.45339 0.0
H95 H 0.25425 0.02998 0.49933 0.0
H96 H -0.02929 0.17942 0.47428 0.0
H97 H 0.11715 0.32176 0.49485 0.0
H98 H 0.2615 0.3163 0.50842 0.0
H99 H 0.25902 0.16706 0.50211 0.0
C100 C 0.19599 -0.01159 0.48028 0.0
C101 C 0.10638 -0.00922 0.48011 0.0
C102 C 0.10946 0.07916 0.48309 0.0
C103 C 0.02663 0.08265 0.47384 0.0
C104 C 0.03127 0.17168 0.47904 0.0
C105 C 0.11522 0.25462 0.49127 0.0
C106 C 0.19642 0.25151 0.49896 0.0
C107 C 0.194 0.16511 0.49504 0.0
H108 H 0.76381 0.89035 0.47289 0.0
C109 C 0.77733 0.9554 0.46349 0.0
H110 H 0.86578 0.06668 0.43949 0.0
H111 H 0.06696 0.81006 0.48472 0.0
H112 H 0.92102 0.66411 0.46282 0.0
H113 H 0.78903 0.67121 0.43441 0.0
H114 H 0.79931 0.82309 0.42999 0.0
C115 C 0.85588 0.00364 0.44962 0.0
C116 C 0.94191 -0.00181 0.45974 0.0
C117 C 0.93886 0.9096 0.45796 0.0
C118 C 0.01866 0.90579 0.47076 0.0
C119 C 0.00977 0.81605 0.47318 0.0
C120 C 0.9267 0.73228 0.46085 0.0
C121 C 0.85218 0.73628 0.44508 0.0
C122 C 0.85835 0.82383 0.44318 0.0
H123 H 0.74673 0.77372 0.80163 0.0
C124 C 0.72462 0.80245 0.82113 0.0
H125 H 0.75583 0.92117 0.85415 0.0
H126 H 0.19228 0.15128 0.86613 0.0
H127 H 0.16304 0.12257 0.92143 0.0
H128 H 0.00317 0.01254 0.93383 0.0
H129 H 0.87114 0.93335 0.89138 0.0
C130 C 0.77935 0.89321 0.83488 0.0
C131 C 0.87572 0.95589 0.82689 0.0
C132 C 0.95262 -0.00145 0.85204 0.0
C133 C 0.04514 0.06025 0.84492 0.0
C134 C 0.12052 0.10421 0.87041 0.0
C135 C 0.10488 0.08769 0.90217 0.0
C136 C 0.01479 0.02598 0.90915 0.0
C137 C 0.93941 -0.0187 0.88449 0.0
H138 H 0.1447 0.26415 0.82849 0.0
C139 C 0.17673 0.24202 0.81064 0.0
H140 H 0.18532 0.13019 0.78679 0.0
H141 H 0.74282 0.90509 0.77418 0.0
H142 H 0.77252 0.93158 0.71905 0.0
H143 H 0.93492 0.01815 0.7055 0.0
H144 H 0.06769 0.08132 0.74713 0.0
C145 C 0.15352 0.1507 0.80521 0.0
C146 C 0.06075 0.07639 0.81265 0.0
C147 C -0.01557 0.03079 0.78732 0.0
C148 C 0.89123 -0.02523 0.79469 0.0
C149 C 0.81537 0.9419 0.76964 0.0
C150 C 0.83135 0.95776 0.73788 0.0
C151 C 0.92267 0.00691 0.73029 0.0
C152 C -0.00153 0.04337 0.75458 0.0
H153 H 0.19534 0.56796 0.87616 0.0
C154 C 0.27045 0.59571 0.88124 0.0
H155 H 0.38714 0.63467 0.91561 0.0
H156 H 0.24483 0.72583 0.04022 0.0
H157 H 0.38722 0.87562 0.03703 0.0
H158 H 0.47285 0.89844 -0.0104 0.0
H159 H 0.41667 0.77231 0.94507 0.0
C160 C 0.31209 0.60895 0.91162 0.0
C161 C 0.26166 0.59283 0.94068 0.0
C162 C 0.29543 0.66784 0.96658 0.0
C163 C 0.24647 0.65453 -0.00587 0.0
C164 C 0.28039 0.73136 0.01914 0.0
C165 C 0.36177 0.81794 0.01752 0.0
C166 C 0.40997 0.83083 -0.00919 0.0
C167 C 0.37704 0.75739 0.96544 0.0
H168 H 0.20718 0.56944 0.06085 0.0
C169 C 0.13369 0.54434 0.05288 0.0
H170 H 0.03127 0.52364 0.01558 0.0
H171 H 0.19419 0.42628 0.89999 0.0
H172 H 0.05845 0.27367 0.90477 0.0
H173 H -0.03173 0.25261 0.95089 0.0
H174 H 0.01461 0.3832 -0.00732 0.0
C175 C 0.10594 0.55157 0.02268 0.0
C176 C 0.16422 0.56603 -0.00422 0.0
C177 C 0.13387 0.48926 0.97073 0.0
C178 C 0.18374 0.50211 0.94352 0.0
C179 C 0.15592 0.4223 0.92021 0.0
C180 C 0.07868 0.33365 0.92286 0.0
C181 C 0.02811 0.32173 0.94885 0.0
C182 C 0.05536 0.39795 -0.02736 0.0
H183 H 0.62991 0.25306 0.37864 0.0
C184 C 0.64669 0.20329 0.38878 0.0
H185 H 0.70745 0.11859 0.38132 0.0
H186 H 0.6318 0.08569 0.229 0.0
H187 H 0.56854 0.92204 0.239 0.0
H188 H 0.57483 0.88248 0.29444 0.0
H189 H 0.63979 0.0055 0.34035 0.0
C190 C 0.695 0.17219 0.37223 0.0
C191 C 0.71604 0.19743 0.33878 0.0
C192 C 0.67995 0.12436 0.31203 0.0
C193 C 0.68012 0.14744 0.27977 0.0
C194 C 0.63715 0.07265 0.25379 0.0
C195 C 0.59995 -0.02175 0.25919 0.0
C196 C 0.60313 0.95595 0.29044 0.0
C197 C 0.64094 0.02756 0.31664 0.0
H198 H 0.79076 0.21673 0.21984 0.0
C199 C 0.75906 0.26053 0.21743 0.0
H200 H 0.68364 0.31694 0.23899 0.0
H201 H 0.8165 0.35484 0.38371 0.0
H202 H 0.89445 0.51964 0.37357 0.0
H203 H 0.89554 0.56019 0.31793 0.0
H204 H 0.81915 0.43661 0.2722 0.0
C205 C 0.71254 0.27061 0.24119 0.0
C206 C 0.72045 0.24377 0.27422 0.0
C207 C 0.76576 0.31713 0.30085 0.0
C208 C 0.76411 0.29397 0.33303 0.0
C209 C 0.81227 0.36867 0.35894 0.0
C210 C 0.85831 0.46354 0.35343 0.0
C211 C 0.85899 0.48635 0.32211 0.0
C212 C 0.81405 0.41446 0.29606 0.0
H213 H 0.40213 0.72876 0.72856 0.0
C214 C 0.33261 0.66507 0.7245 0.0
H215 H 0.20986 0.5798 0.6914 0.0
H216 H 0.43428 0.94995 0.61103 0.0
H217 H 0.38027 0.02995 0.64701 0.0
H218 H 0.30082 0.9562 0.6934 0.0
H219 H 0.27274 0.80018 0.70355 0.0
C220 C 0.27792 0.64514 0.69626 0.0
C221 C 0.32099 0.68891 0.66762 0.0
C222 C 0.33703 0.7798 0.66221 0.0
C223 C 0.38297 0.82228 0.63551 0.0
C224 C 0.39895 0.91371 0.63073 0.0
C225 C 0.36857 0.96066 0.65129 0.0
C226 C 0.32374 0.91907 0.6774 0.0
C227 C 0.30819 0.82974 0.68298 0.0
H228 H 0.3644 0.80139 0.55502 0.0
C229 C 0.43997 0.83538 0.56173 0.0
H230 H 0.54939 0.85661 0.59699 0.0
H231 H 0.2964 0.51056 0.67016 0.0
H232 H 0.34067 0.42615 0.63196 0.0
H233 H 0.41628 0.4985 0.58481 0.0
H234 H 0.45115 0.65765 0.57628 0.0
C235 C 0.47406 0.82394 0.59011 0.0
C236 C 0.41259 0.77345 0.61443 0.0
C237 C 0.39247 0.68064 0.61892 0.0
C238 C 0.34682 0.63825 0.64563 0.0
C239 C 0.32959 0.54602 0.65002 0.0
C240 C 0.35466 0.4966 0.62826 0.0
C241 C 0.3975 0.53747 0.60177 0.0
C242 C 0.41721 0.62878 0.59719 0.0
H243 H 0.51198 0.35384 0.8802 0.0
C244 C 0.50045 0.40932 0.89064 0.0
H245 H 0.50509 0.49021 0.93322 0.0
H246 H 0.52359 0.16626 0.00994 0.0
H247 H 0.3655 0.05607 -0.0165 0.0
H248 H 0.29406 0.10143 0.9397 0.0
H249 H 0.38026 0.25791 0.92209 0.0
C250 C 0.51452 0.43313 0.92291 0.0
C251 C 0.5602 0.39847 0.94557 0.0
C252 C 0.5082 0.30732 0.95565 0.0
C253 C 0.54936 0.28115 -0.01907 0.0
C254 C 0.49601 0.18971 -0.00929 0.0
C255 C 0.40503 0.12584 -0.02419 0.0
C256 C 0.36474 0.15154 0.95118 0.0
C257 C 0.41508 0.2414 0.94126 0.0
H258 H 0.69143 0.40651 0.06093 0.0
C259 C 0.70544 0.35091 0.05265 0.0
H260 H 0.70204 0.26193 0.01253 0.0
H261 H 0.68216 0.57452 0.9293 0.0
H262 H 0.84414 0.68041 0.9531 0.0
H263 H 0.91623 0.63442 -0.00342 0.0
H264 H 0.82643 0.48259 0.0167 0.0
C265 C 0.68542 0.3154 0.0211 0.0
C266 C 0.64191 0.34632 -0.00386 0.0
C267 C 0.6957 0.43578 -0.01507 0.0
C268 C 0.6545 0.46197 0.95968 0.0
C269 C 0.70968 0.55137 0.94865 0.0
C270 C 0.80295 0.61269 0.96198 0.0
C271 C 0.8435 0.58678 -0.01354 0.0
C272 C 0.79095 0.49947 -0.00213 0.0
H273 H 0.23384 0.5381 0.21558 0.0
C274 C 0.17109 0.52299 0.22655 0.0
H275 H 0.11239 0.5248 0.26938 0.0
H276 H 0.49045 0.62657 0.35826 0.0
H277 H 0.44324 0.46013 0.34449 0.0
H278 H 0.3144 0.35802 0.30072 0.0
H279 H 0.23183 0.42161 0.27039 0.0
C280 C 0.17558 0.53989 0.25868 0.0
C281 C 0.26571 0.60321 0.27946 0.0
C282 C 0.31318 0.56517 0.29666 0.0
C283 C 0.38716 0.62394 0.32192 0.0
C284 C 0.43325 0.5844 0.33902 0.0
C285 C 0.40699 0.4893 0.3313 0.0
C286 C 0.33439 0.43175 0.30664 0.0
C287 C 0.28748 0.46883 0.28949 0.0
H288 H 0.38942 0.70327 0.39221 0.0
C289 C 0.44922 0.77014 0.38785 0.0
H290 H 0.53978 0.84734 0.3552 0.0
H291 H 0.19663 0.70073 0.24782 0.0
H292 H 0.24739 0.86759 0.25981 0.0
H293 H 0.37469 0.96973 0.30394 0.0
H294 H 0.45152 0.90578 0.33589 0.0
C295 C 0.47975 0.77971 0.35877 0.0
C296 C 0.41298 0.7203 0.32967 0.0
C297 C 0.36979 0.75999 0.31077 0.0
C298 C 0.29613 0.70125 0.28559 0.0
C299 C 0.25267 0.74192 0.26743 0.0
C300 C 0.28115 0.83778 0.27401 0.0
C301 C 0.35266 0.89519 0.29882 0.0
C302 C 0.39623 0.85712 0.31711 0.0
H303 H 0.6053 0.46026 0.72393 0.0
C304 C 0.53191 0.4278 0.7139 0.0
H305 H 0.42944 0.35116 0.67314 0.0
H306 H 0.69471 0.45979 0.56627 0.0
H307 H 0.67991 0.60027 0.56964 0.0
H308 H 0.61301 0.63877 0.61516 0.0
H309 H 0.55917 0.53621 0.65741 0.0
C310 C 0.50238 0.38206 0.68349 0.0
C311 C 0.56488 0.37365 0.66151 0.0
C312 C 0.59493 0.43343 0.63685 0.0
C313 C 0.63349 0.41124 0.61062 0.0
C314 C 0.66374 0.47271 0.58649 0.0
C315 C 0.65603 0.55376 0.58822 0.0
C316 C 0.61832 0.57541 0.61385 0.0
C317 C 0.58741 0.51587 0.63785 0.0
H318 H 0.55899 0.26448 0.54731 0.0
C319 C 0.62429 0.26416 0.55184 0.0
H320 H 0.73981 0.29715 0.58631 0.0
H321 H 0.52564 0.25223 0.70712 0.0
H322 H 0.54989 0.11757 0.70589 0.0
H323 H 0.61475 0.07708 0.66016 0.0
H324 H 0.65595 0.1707 0.61548 0.0
C325 C 0.67709 0.30172 0.58101 0.0
C326 C 0.64169 0.32912 0.60912 0.0
C327 C 0.61785 0.27303 0.63506 0.0
C328 C 0.57952 0.29558 0.66131 0.0
C329 C 0.55487 0.2379 0.68662 0.0
C330 C 0.56869 0.16067 0.68626 0.0
C331 C 0.60533 0.13795 0.66053 0.0
C332 C 0.62899 0.19263 0.63505 0.0
loop_
_geom_bond_atom_site_label_1
_geom_bond_atom_site_label_2
_geom_bond_distance
_geom_bond_site_symmetry_2
_ccdc_geom_bond_type
O0 Mg1 1.997 . S
O0 C14 1.253 . S
Mg1 O0 1.997 . S
Mg1 O4 2.180 1_655 S
Mg1 O5 2.117 . S
Mg1 O19 2.029 1_655 S
O2 Mg3 2.072 1_655 S
O2 C14 1.260 . S
Mg3 O2 2.072 1_455 S
Mg3 O4 2.099 . S
Mg3 O6 2.079 . S
Mg3 O7 2.072 1_455 S
Mg3 O9 2.099 . S
Mg3 O20 2.079 . S
O4 Mg1 2.180 1_455 S
O4 Mg3 2.099 . S
O4 C15 1.279 1_455 S
O5 Mg1 2.117 . S
O5 C15 1.250 . S
O6 Mg3 2.079 . S
O6 C16 1.264 . S
O7 Mg3 2.072 1_655 S
O7 C17 1.260 . S
Mg8 O9 2.180 . S
Mg8 O10 2.030 . S
Mg8 O11 1.990 1_455 S
Mg8 O12 2.117 1_455 S
O9 Mg3 2.099 . S
O9 Mg8 2.180 . S
O9 C18 1.279 1_455 S
O10 Mg8 2.030 . S
O10 C16 1.248 . S
O11 Mg8 1.990 1_655 S
O11 C17 1.253 . S
O12 Mg8 2.117 1_655 S
O12 C18 1.250 . S
C13 O19 1.248 . S
C13 O20 1.264 . S
C14 O0 1.253 . S
C14 O2 1.260 . S
C15 O4 1.279 1_655 S
C15 O5 1.250 . S
C16 O6 1.264 . S
C16 O10 1.248 . S
C17 O7 1.260 . S
C17 O11 1.253 . S
C18 O9 1.279 1_655 S
C18 O12 1.250 . S
O19 Mg1 2.029 1_455 S
O19 C13 1.248 . S
O20 Mg3 2.079 . S
O20 C13 1.264 . S
O21 Mg22 1.990 . S
O21 C35 1.253 . S
Mg22 O21 1.990 . S
Mg22 O25 2.180 1_545 S
Mg22 O26 2.117 . S
Mg22 O40 2.030 1_545 S
O23 Mg24 2.066 1_545 S
O23 C35 1.260 . S
Mg24 O23 2.066 1_565 S
Mg24 O25 2.093 . S
Mg24 O27 2.086 . S
Mg24 O28 2.064 1_565 S
Mg24 O30 2.098 . S
Mg24 O41 2.087 . S
O25 Mg22 2.180 1_565 S
O25 Mg24 2.093 . S
O25 C36 1.279 1_565 S
O26 Mg22 2.117 . S
O26 C36 1.250 . S
O27 Mg24 2.086 . S
O27 C37 1.264 . S
O28 Mg24 2.064 1_545 S
O28 C38 1.260 . S
Mg29 O30 2.181 1_545 S
Mg29 O31 2.030 1_545 S
Mg29 O32 1.990 . S
Mg29 O33 2.117 . S
O30 Mg24 2.098 . S
O30 Mg29 2.181 1_565 S
O30 C39 1.280 1_565 S
O31 Mg29 2.030 1_565 S
O31 C37 1.248 . S
O32 Mg29 1.990 . S
O32 C38 1.253 . S
O33 Mg29 2.117 . S
O33 C39 1.250 . S
C34 O40 1.248 . S
C34 O41 1.264 . S
C35 O21 1.253 . S
C35 O23 1.260 . S
C36 O25 1.279 1_545 S
C36 O26 1.250 . S
C37 O27 1.264 . S
C37 O31 1.248 . S
C38 O28 1.260 . S
C38 O32 1.253 . S
C39 O30 1.280 1_545 S
C39 O33 1.250 . S
O40 Mg22 2.030 1_565 S
O40 C34 1.248 . S
O41 Mg24 2.087 . S
O41 C34 1.264 . S
O42 Mg43 1.990 . S
O42 C56 1.253 . S
Mg43 O42 1.990 . S
Mg43 O46 2.180 . S
Mg43 O47 2.117 . S
Mg43 O61 2.030 . S
O44 Mg45 2.072 . S
O44 C56 1.260 . S
Mg45 O44 2.072 . S
Mg45 O46 2.099 . S
Mg45 O48 2.079 . S
Mg45 O49 2.072 . S
Mg45 O51 2.099 . S
Mg45 O62 2.079 . S
O46 Mg43 2.180 . S
O46 Mg45 2.099 . S
O46 C57 1.279 . S
O47 Mg43 2.117 . S
O47 C57 1.250 . S
O48 Mg45 2.079 . S
O48 C58 1.264 . S
O49 Mg45 2.072 . S
O49 C59 1.260 . S
Mg50 O51 2.180 . S
Mg50 O52 2.030 . S
Mg50 O53 1.990 . S
Mg50 O54 2.117 . S
O51 Mg45 2.099 . S
O51 Mg50 2.180 . S
O51 C60 1.279 . S
O52 Mg50 2.030 . S
O52 C58 1.248 . S
O53 Mg50 1.990 . S
O53 C59 1.253 . S
O54 Mg50 2.117 . S
O54 C60 1.250 . S
C55 O61 1.248 . S
C55 O62 1.264 . S
C56 O42 1.253 . S
C56 O44 1.260 . S
C57 O46 1.279 . S
C57 O47 1.250 . S
C58 O48 1.264 . S
C58 O52 1.248 . S
C59 O49 1.260 . S
C59 O53 1.253 . S
C60 O51 1.279 . S
C60 O54 1.250 . S
O61 Mg43 2.030 . S
O61 C55 1.248 . S
O62 Mg45 2.079 . S
O62 C55 1.264 . S
H63 C64 0.951 . S
C64 H63 0.951 . S
C64 C70 1.265 1_655 S
H65 C70 0.950 . S
H66 C74 0.949 . S
H67 C75 0.950 . S
H68 C76 0.951 . S
H69 C77 0.951 . S
C70 C64 1.265 1_455 S
C70 H65 0.950 . S
C70 C71 1.478 . S
C71 C70 1.478 . S
C71 C72 1.397 . S
C71 C88 1.394 1_455 S
C72 C71 1.397 . S
C72 C73 1.438 1_565 S
C72 C77 1.429 . S
C73 C72 1.438 1_545 S
C73 C74 1.428 . S
C73 C86 1.394 1_455 S
C74 H66 0.949 . S
C74 C73 1.428 . S
C74 C75 1.345 . S
C75 H67 0.950 . S
C75 C74 1.345 . S
C75 C76 1.424 . S
C76 H68 0.951 . S
C76 C75 1.424 . S
C76 C77 1.347 1_545 S
C77 H69 0.951 . S
C77 C72 1.429 . S
C77 C76 1.347 1_565 S
H78 C79 0.956 . S
C79 H78 0.956 . S
C79 C85 1.264 1_455 S
H80 C85 0.950 . S
H81 C89 0.949 . S
H82 C90 0.950 . S
H83 C91 0.951 . S
H84 C92 0.951 1_545 S
C85 C79 1.264 1_655 S
C85 H80 0.950 . S
C85 C86 1.478 . S
C86 C73 1.394 1_655 S
C86 C85 1.478 . S
C86 C87 1.397 1_545 S
C87 C86 1.397 1_565 S
C87 C88 1.438 . S
C87 C92 1.429 . S
C88 C71 1.394 1_655 S
C88 C87 1.438 . S
C88 C89 1.428 . S
C89 H81 0.949 . S
C89 C88 1.428 . S
C89 C90 1.345 . S
C90 H82 0.950 . S
C90 C89 1.345 . S
C90 C91 1.424 . S
C91 H83 0.951 . S
C91 C90 1.424 . S
C91 C92 1.347 . S
C92 H84 0.951 1_565 S
C92 C87 1.429 . S
C92 C91 1.347 . S
H93 C94 0.951 . S
C94 H93 0.951 . S
C94 C100 1.265 . S
H95 C100 0.950 . S
H96 C104 0.949 1_655 S
H97 C105 0.950 . S
H98 C106 0.951 . S
H99 C107 0.951 . S
C100 C94 1.265 . S
C100 H95 0.950 . S
C100 C101 1.478 . S
C101 C100 1.478 . S
C101 C102 1.397 . S
C101 C118 1.394 1_545 S
C102 C101 1.397 . S
C102 C103 1.438 . S
C102 C107 1.429 . S
C103 C102 1.438 . S
C103 C104 1.428 . S
C103 C116 1.394 1_455 S
C104 H96 0.949 1_455 S
C104 C103 1.428 . S
C104 C105 1.345 . S
C105 H97 0.950 . S
C105 C104 1.345 . S
C105 C106 1.424 . S
C106 H98 0.951 . S
C106 C105 1.424 . S
C106 C107 1.347 . S
C107 H99 0.951 . S
C107 C102 1.429 . S
C107 C106 1.347 . S
H108 C109 0.951 . S
C109 H108 0.951 . S
C109 C115 1.265 . S
H110 C115 0.950 1_565 S
H111 C119 0.949 . S
H112 C120 0.950 . S
H113 C121 0.951 . S
H114 C122 0.951 . S
C115 C109 1.265 . S
C115 H110 0.950 1_545 S
C115 C116 1.478 . S
C116 C103 1.394 1_655 S
C116 C115 1.478 . S
C116 C117 1.397 1_545 S
C117 C116 1.397 1_565 S
C117 C118 1.438 1_655 S
C117 C122 1.429 . S
C118 C101 1.394 1_565 S
C118 C117 1.438 1_455 S
C118 C119 1.428 . S
C119 H111 0.949 . S
C119 C118 1.428 . S
C119 C120 1.345 . S
C120 H112 0.950 . S
C120 C119 1.345 . S
C120 C121 1.424 1_455 S
C121 H113 0.951 . S
C121 C120 1.424 1_655 S
C121 C122 1.347 . S
C122 H114 0.951 . S
C122 C117 1.429 . S
C122 C121 1.347 . S
H123 C124 0.951 . S
C124 H123 0.951 . S
C124 C130 1.265 . S
H125 C130 0.950 . S
H126 C134 0.949 . S
H127 C135 0.950 . S
H128 C136 0.951 1_565 S
H129 C137 0.951 . S
C130 C124 1.265 . S
C130 H125 0.950 . S
C130 C131 1.478 . S
C131 C130 1.478 . S
C131 C132 1.397 1_565 S
C131 C148 1.394 1_565 S
C132 C131 1.397 1_545 S
C132 C133 1.438 1_655 S
C132 C137 1.429 1_545 S
C133 C132 1.438 1_455 S
C133 C134 1.428 . S
C133 C146 1.394 . S
C134 H126 0.949 . S
C134 C133 1.428 . S
C134 C135 1.345 . S
C135 H127 0.950 . S
C135 C134 1.345 . S
C135 C136 1.424 . S
C136 H128 0.951 1_545 S
C136 C135 1.424 . S
C136 C137 1.347 1_445 S
C137 H129 0.951 . S
C137 C132 1.429 1_565 S
C137 C136 1.347 1_665 S
H138 C139 0.951 . S
C139 H138 0.951 . S
C139 C145 1.265 . S
H140 C145 0.950 . S
H141 C149 0.949 . S
H142 C150 0.950 1_565 S
H143 C151 0.951 . S
H144 C152 0.951 . S
C145 C139 1.265 . S
C145 H140 0.950 . S
C145 C146 1.478 . S
C146 C133 1.394 . S
C146 C145 1.478 . S
C146 C147 1.397 1_455 S
C147 C146 1.397 1_655 S
C147 C148 1.438 . S
C147 C152 1.429 1_655 S
C148 C131 1.394 1_545 S
C148 C147 1.438 . S
C148 C149 1.428 1_545 S
C149 H141 0.949 . S
C149 C148 1.428 1_565 S
C149 C150 1.345 1_565 S
C150 H142 0.950 1_545 S
C150 C149 1.345 1_545 S
C150 C151 1.424 . S
C151 H143 0.951 . S
C151 C150 1.424 . S
C151 C152 1.347 1_655 S
C152 H144 0.951 . S
C152 C147 1.429 1_455 S
C152 C151 1.347 1_455 S
H153 C154 0.951 . S
C154 H153 0.951 . S
C154 C160 1.265 . S
H155 C160 0.950 . S
H156 C164 0.949 . S
H157 C165 0.950 . S
H158 C166 0.951 . S
H159 C167 0.951 . S
C160 C154 1.265 . S
C160 H155 0.950 . S
C160 C161 1.478 . S
C161 C160 1.478 . S
C161 C162 1.397 . S
C161 C178 1.394 . S
C162 C161 1.397 . S
C162 C163 1.438 1_556 S
C162 C167 1.429 . S
C163 C162 1.438 1_554 S
C163 C164 1.428 . S
C163 C176 1.394 . S
C164 H156 0.949 . S
C164 C163 1.428 . S
C164 C165 1.345 . S
C165 H157 0.950 . S
C165 C164 1.345 . S
C165 C166 1.424 . S
C166 H158 0.951 . S
C166 C165 1.424 . S
C166 C167 1.347 1_554 S
C167 H159 0.951 . S
C167 C162 1.429 . S
C167 C166 1.347 1_556 S
H168 C169 0.951 . S
C169 H168 0.951 . S
C169 C175 1.265 . S
H170 C175 0.950 . S
H171 C179 0.949 . S
H172 C180 0.950 . S
H173 C181 0.951 . S
H174 C182 0.964 . S
C175 C169 1.265 . S
C175 H170 0.950 . S
C175 C176 1.478 . S
C176 C163 1.394 . S
C176 C175 1.478 . S
C176 C177 1.399 . S
C177 C176 1.399 . S
C177 C178 1.435 1_554 S
C177 C182 1.427 . S
C178 C161 1.394 . S
C178 C177 1.435 1_556 S
C178 C179 1.428 . S
C179 H171 0.949 . S
C179 C178 1.428 . S
C179 C180 1.345 . S
C180 H172 0.950 . S
C180 C179 1.345 . S
C180 C181 1.424 . S
C181 H173 0.951 . S
C181 C180 1.424 . S
C181 C182 1.336 1_556 S
C182 H174 0.964 . S
C182 C177 1.427 . S
C182 C181 1.336 1_554 S
H183 C184 0.951 . S
C184 H183 0.951 . S
C184 C190 1.265 . S
H185 C190 0.950 . S
H186 C194 0.949 . S
H187 C195 0.950 . S
H188 C196 0.951 1_565 S
H189 C197 0.951 . S
C190 C184 1.265 . S
C190 H185 0.950 . S
C190 C191 1.478 . S
C191 C190 1.478 . S
C191 C192 1.397 . S
C191 C208 1.394 . S
C192 C191 1.397 . S
C192 C193 1.438 . S
C192 C197 1.429 . S
C193 C192 1.438 . S
C193 C194 1.428 . S
C193 C206 1.394 . S
C194 H186 0.949 . S
C194 C193 1.428 . S
C194 C195 1.345 . S
C195 H187 0.950 . S
C195 C194 1.345 . S
C195 C196 1.424 . S
C196 H188 0.951 1_545 S
C196 C195 1.424 . S
C196 C197 1.347 . S
C197 H189 0.951 . S
C197 C192 1.429 . S
C197 C196 1.347 . S
H198 C199 0.951 . S
C199 H198 0.951 . S
C199 C205 1.265 . S
H200 C205 0.950 . S
H201 C209 0.949 . S
H202 C210 0.950 . S
H203 C211 0.951 . S
H204 C212 0.951 . S
C205 C199 1.265 . S
C205 H200 0.950 . S
C205 C206 1.478 . S
C206 C193 1.394 . S
C206 C205 1.478 . S
C206 C207 1.397 . S
C207 C206 1.397 . S
C207 C208 1.438 . S
C207 C212 1.429 . S
C208 C191 1.394 . S
C208 C207 1.438 . S
C208 C209 1.428 . S
C209 H201 0.949 . S
C209 C208 1.428 . S
C209 C210 1.345 . S
C210 H202 0.950 . S
C210 C209 1.345 . S
C210 C211 1.424 . S
C211 H203 0.951 . S
C211 C210 1.424 . S
C211 C212 1.347 . S
C212 H204 0.951 . S
C212 C207 1.429 . S
C212 C211 1.347 . S
H213 C214 0.951 . S
C214 H213 0.951 . S
C214 C220 1.265 . S
H215 C220 0.950 . S
H216 C224 0.949 . S
H217 C225 0.950 1_545 S
H218 C226 0.951 . S
H219 C227 0.951 . S
C220 C214 1.265 . S
C220 H215 0.950 . S
C220 C221 1.478 . S
C221 C220 1.478 . S
C221 C222 1.397 . S
C221 C238 1.394 . S
C222 C221 1.397 . S
C222 C223 1.438 . S
C222 C227 1.429 . S
C223 C222 1.438 . S
C223 C224 1.428 . S
C223 C236 1.394 . S
C224 H216 0.949 . S
C224 C223 1.428 . S
C224 C225 1.345 . S
C225 H217 0.950 1_565 S
C225 C224 1.345 . S
C225 C226 1.424 . S
C226 H218 0.951 . S
C226 C225 1.424 . S
C226 C227 1.347 . S
C227 H219 0.951 . S
C227 C222 1.429 . S
C227 C226 1.347 . S
H228 C229 0.951 . S
C229 H228 0.951 . S
C229 C235 1.265 . S
H230 C235 0.950 . S
H231 C239 0.949 . S
H232 C240 0.950 . S
H233 C241 0.951 . S
H234 C242 0.951 . S
C235 C229 1.265 . S
C235 H230 0.950 . S
C235 C236 1.478 . S
C236 C223 1.394 . S
C236 C235 1.478 . S
C236 C237 1.397 . S
C237 C236 1.397 . S
C237 C238 1.438 . S
C237 C242 1.429 . S
C238 C221 1.394 . S
C238 C237 1.438 . S
C238 C239 1.428 . S
C239 H231 0.949 . S
C239 C238 1.428 . S
C239 C240 1.345 . S
C240 H232 0.950 . S
C240 C239 1.345 . S
C240 C241 1.424 . S
C241 H233 0.951 . S
C241 C240 1.424 . S
C241 C242 1.347 . S
C242 H234 0.951 . S
C242 C237 1.429 . S
C242 C241 1.347 . S
H243 C244 0.951 . S
C244 H243 0.951 . S
C244 C250 1.265 . S
H245 C250 0.950 . S
H246 C254 0.949 . S
H247 C255 0.950 . S
H248 C256 0.951 . S
H249 C257 0.951 . S
C250 C244 1.265 . S
C250 H245 0.950 . S
C250 C251 1.478 . S
C251 C250 1.478 . S
C251 C252 1.397 . S
C251 C268 1.394 . S
C252 C251 1.397 . S
C252 C253 1.438 1_556 S
C252 C257 1.429 . S
C253 C252 1.438 1_554 S
C253 C254 1.428 . S
C253 C266 1.394 . S
C254 H246 0.949 . S
C254 C253 1.428 . S
C254 C255 1.345 . S
C255 H247 0.950 . S
C255 C254 1.345 . S
C255 C256 1.424 1_554 S
C256 H248 0.951 . S
C256 C255 1.424 1_556 S
C256 C257 1.347 . S
C257 H249 0.951 . S
C257 C252 1.429 . S
C257 C256 1.347 . S
H258 C259 0.951 . S
C259 H258 0.951 . S
C259 C265 1.265 . S
H260 C265 0.950 . S
H261 C269 0.949 . S
H262 C270 0.950 . S
H263 C271 0.951 . S
H264 C272 0.951 . S
C265 C259 1.265 . S
C265 H260 0.950 . S
C265 C266 1.478 . S
C266 C253 1.394 . S
C266 C265 1.478 . S
C266 C267 1.397 . S
C267 C266 1.397 . S
C267 C268 1.438 1_554 S
C267 C272 1.429 . S
C268 C251 1.394 . S
C268 C267 1.438 1_556 S
C268 C269 1.428 . S
C269 H261 0.949 . S
C269 C268 1.428 . S
C269 C270 1.345 . S
C270 H262 0.950 . S
C270 C269 1.345 . S
C270 C271 1.424 1_556 S
C271 H263 0.951 . S
C271 C270 1.424 1_554 S
C271 C272 1.347 . S
C272 H264 0.951 . S
C272 C267 1.429 . S
C272 C271 1.347 . S
H273 C274 0.951 . S
C274 H273 0.951 . S
C274 C280 1.265 . S
H275 C280 0.950 . S
H276 C284 0.949 . S
H277 C285 0.950 . S
H278 C286 0.951 . S
H279 C287 0.951 . S
C280 C274 1.265 . S
C280 H275 0.950 . S
C280 C281 1.478 . S
C281 C280 1.478 . S
C281 C282 1.397 . S
C281 C298 1.394 . S
C282 C281 1.397 . S
C282 C283 1.438 . S
C282 C287 1.429 . S
C283 C282 1.438 . S
C283 C284 1.428 . S
C283 C296 1.394 . S
C284 H276 0.949 . S
C284 C283 1.428 . S
C284 C285 1.345 . S
C285 H277 0.950 . S
C285 C284 1.345 . S
C285 C286 1.424 . S
C286 H278 0.951 . S
C286 C285 1.424 . S
C286 C287 1.347 . S
C287 H279 0.951 . S
C287 C282 1.429 . S
C287 C286 1.347 . S
H288 C289 0.951 . S
C289 H288 0.951 . S
C289 C295 1.265 . S
H290 C295 0.950 . S
H291 C299 0.949 . S
H292 C300 0.950 . S
H293 C301 0.951 . S
H294 C302 0.951 . S
C295 C289 1.265 . S
C295 H290 0.950 . S
C295 C296 1.478 . S
C296 C283 1.394 . S
C296 C295 1.478 . S
C296 C297 1.397 . S
C297 C296 1.397 . S
C297 C298 1.438 . S
C297 C302 1.429 . S
C298 C281 1.394 . S
C298 C297 1.438 . S
C298 C299 1.428 . S
C299 H291 0.949 . S
C299 C298 1.428 . S
C299 C300 1.345 . S
C300 H292 0.950 . S
C300 C299 1.345 . S
C300 C301 1.424 . S
C301 H293 0.951 . S
C301 C300 1.424 . S
C301 C302 1.347 . S
C302 H294 0.951 . S
C302 C297 1.429 . S
C302 C301 1.347 . S
H303 C304 0.951 . S
C304 H303 0.951 . S
C304 C310 1.265 . S
H305 C310 0.950 . S
H306 C314 0.949 . S
H307 C315 0.950 . S
H308 C316 0.951 . S
H309 C317 0.951 . S
C310 C304 1.265 . S
C310 H305 0.950 . S
C310 C311 1.478 . S
C311 C310 1.478 . S
C311 C312 1.397 . S
C311 C328 1.394 . S
C312 C311 1.397 . S
C312 C313 1.438 . S
C312 C317 1.429 . S
C313 C312 1.438 . S
C313 C314 1.428 . S
C313 C326 1.394 . S
C314 H306 0.949 . S
C314 C313 1.428 . S
C314 C315 1.345 . S
C315 H307 0.950 . S
C315 C314 1.345 . S
C315 C316 1.424 . S
C316 H308 0.951 . S
C316 C315 1.424 . S
C316 C317 1.347 . S
C317 H309 0.951 . S
C317 C312 1.429 . S
C317 C316 1.347 . S
H318 C319 0.951 . S
C319 H318 0.951 . S
C319 C325 1.265 . S
H320 C325 0.950 . S
H321 C329 0.949 . S
H322 C330 0.950 . S
H323 C331 0.951 . S
H324 C332 0.951 . S
C325 C319 1.265 . S
C325 H320 0.950 . S
C325 C326 1.478 . S
C326 C313 1.394 . S
C326 C325 1.478 . S
C326 C327 1.397 . S
C327 C326 1.397 . S
C327 C328 1.438 . S
C327 C332 1.429 . S
C328 C311 1.394 . S
C328 C327 1.438 . S
C328 C329 1.428 . S
C329 H321 0.949 . S
C329 C328 1.428 . S
C329 C330 1.345 . S
C330 H322 0.950 . S
C330 C329 1.345 . S
C330 C331 1.424 . S
C331 H323 0.951 . S
C331 C330 1.424 . S
C331 C332 1.347 . S
C332 H324 0.951 . S
C332 C327 1.429 . S
C332 C331 1.347 . S
C64 C18 1.217 . S
C79 C15 1.214 1_455 S
C94 C36 1.091 . S
C109 C39 1.091 . S
C124 C57 1.269 . S
C139 C60 1.270 . S
C154 C56 1.167 . S
C169 C13 1.091 . S
C184 C35 1.399 . S
C199 C17 1.432 . S
C214 C59 1.101 . S
C229 C37 1.141 . S
C244 C55 1.083 . S
C259 C14 1.167 . S
C274 C16 0.809 . S
C289 C34 0.830 . S
C304 C58 1.149 . S
C319 C38 1.148 . S
