# Generated by pormake.
# Topology unf, (4)-cn, num edge types: 1
# Building blocks:
#     Node 0, Type 0, BuildingBlock: ICAMEG_clean_sbu_1, # of connection points: 4
#     Node 1, Type 0, BuildingBlock: ICAMEG_clean_sbu_1, # of connection points: 4
#     Node 2, Type 0, BuildingBlock: ICAMEG_clean_sbu_1, # of connection points: 4
#     Node 3, Type 0, BuildingBlock: ICAMEG_clean_sbu_1, # of connection points: 4
#     Node 4, Type 0, BuildingBlock: ICAMEG_clean_sbu_1, # of connection points: 4
#     Node 5, Type 0, BuildingBlock: ICAMEG_clean_sbu_1, # of connection points: 4
#     Node 6, Type 0, BuildingBlock: ICAMEG_clean_sbu_1, # of connection points: 4
#     Node 7, Type 0, BuildingBlock: ICAMEG_clean_sbu_1, # of connection points: 4
#     Node 8, Type 0, BuildingBlock: ICAMEG_clean_sbu_1, # of connection points: 4
#     Node 9, Type 0, BuildingBlock: ICAMEG_clean_sbu_1, # of connection points: 4
#     Node 10, Type 0, BuildingBlock: ICAMEG_clean_sbu_1, # of connection points: 4
#     Node 11, Type 0, BuildingBlock: ICAMEG_clean_sbu_1, # of connection points: 4
#     Edge 12, Type (0, 0), BuildingBlock: OJICUG_clean_linker_0, # of connection points: 2
#     Edge 13, Type (0, 0), BuildingBlock: OJICUG_clean_linker_0, # of connection points: 2
#     Edge 14, Type (0, 0), BuildingBlock: OJICUG_clean_linker_0, # of connection points: 2
#     Edge 15, Type (0, 0), BuildingBlock: OJICUG_clean_linker_0, # of connection points: 2
#     Edge 16, Type (0, 0), BuildingBlock: OJICUG_clean_linker_0, # of connection points: 2
#     Edge 17, Type (0, 0), BuildingBlock: OJICUG_clean_linker_0, # of connection points: 2
#     Edge 18, Type (0, 0), BuildingBlock: OJICUG_clean_linker_0, # of connection points: 2
#     Edge 19, Type (0, 0), BuildingBlock: OJICUG_clean_linker_0, # of connection points: 2
#     Edge 20, Type (0, 0), BuildingBlock: OJICUG_clean_linker_0, # of connection points: 2
#     Edge 21, Type (0, 0), BuildingBlock: OJICUG_clean_linker_0, # of connection points: 2
#     Edge 22, Type (0, 0), BuildingBlock: OJICUG_clean_linker_0, # of connection points: 2
#     Edge 23, Type (0, 0), BuildingBlock: OJICUG_clean_linker_0, # of connection points: 2
#     Edge 24, Type (0, 0), BuildingBlock: OJICUG_clean_linker_0, # of connection points: 2
#     Edge 25, Type (0, 0), BuildingBlock: OJICUG_clean_linker_0, # of connection points: 2
#     Edge 26, Type (0, 0), BuildingBlock: OJICUG_clean_linker_0, # of connection points: 2
#     Edge 27, Type (0, 0), BuildingBlock: OJICUG_clean_linker_0, # of connection points: 2
#     Edge 28, Type (0, 0), BuildingBlock: OJICUG_clean_linker_0, # of connection points: 2
#     Edge 29, Type (0, 0), BuildingBlock: OJICUG_clean_linker_0, # of connection points: 2
#     Edge 30, Type (0, 0), BuildingBlock: OJICUG_clean_linker_0, # of connection points: 2
#     Edge 31, Type (0, 0), BuildingBlock: OJICUG_clean_linker_0, # of connection points: 2
#     Edge 32, Type (0, 0), BuildingBlock: OJICUG_clean_linker_0, # of connection points: 2
#     Edge 33, Type (0, 0), BuildingBlock: OJICUG_clean_linker_0, # of connection points: 2
#     Edge 34, Type (0, 0), BuildingBlock: OJICUG_clean_linker_0, # of connection points: 2
#     Edge 35, Type (0, 0), BuildingBlock: OJICUG_clean_linker_0, # of connection points: 2
# Relax obj value: 0.240
# Max RMSD: 0.196
# Mean RMSD: 0.196
data_MOF--net-unf--node1-ICAMEG_clean_sbu_1--edge1-OJICUG_clean_linker_0
_symmetry_space_group_name_H-M    P1
_symmetry_Int_Tables_number       1
_symmetry_cell_setting            triclinic
loop_
_symmetry_equiv_pos_as_xyz
'x, y, z'
_cell_length_a     29.340339
_cell_length_b     29.163486
_cell_length_c     28.950253
_cell_angle_alpha  89.821833
_cell_angle_beta   90.117823
_cell_angle_gamma 120.65922
loop_
_atom_site_label
_atom_site_type_symbol
_atom_site_fract_x
_atom_site_fract_y
_atom_site_fract_z
_atom_type_partial_charge
Co0 Co 0.11249 0.41051 1.03794 0.0
Co1 Co 0.07855 0.41079 0.15104 0.0
O2 O 0.13168 0.42378 0.10358 0.0
C3 C 0.16592 0.34952 0.0502 0.0
O4 O 0.13391 0.32435 0.08485 0.0
C5 C 0.18517 0.49207 0.19273 0.0
O6 O 0.21033 0.49623 0.15406 0.0
O7 O 0.06119 0.46119 0.11744 0.0
O8 O 0.05995 0.43334 0.04493 0.0
H9 H 0.90043 0.37456 0.2056 0.0
H10 H 0.22662 0.4794 0.06086 0.0
O11 O 0.16412 0.38687 1.02926 0.0
H12 H 0.18303 0.58654 0.95754 0.0
H13 H 0.14968 0.40848 0.86832 0.0
H14 H 0.01105 0.36144 0.98568 0.0
H15 H 0.11395 0.49713 0.98263 0.0
H16 H 0.17334 0.4284 0.95055 0.0
O17 O 0.13446 0.46913 0.1927 0.0
H18 H 0.96783 0.3885 0.14775 0.0
H19 H 0.07601 0.40847 0.25454 0.0
H20 H -0.01428 0.34112 0.90383 0.0
H21 H 0.29734 0.56835 1.03589 0.0
H22 H 0.05531 0.36443 0.84449 0.0
H23 H 0.27556 0.62187 0.9822 0.0
O24 O 0.0569 0.33657 0.05193 0.0
H25 H 0.19144 0.33559 0.20601 0.0
H26 H 0.01025 0.30429 0.19414 0.0
H27 H 0.02475 0.23692 0.23138 0.0
H28 H 0.11593 0.25232 0.23764 0.0
H29 H 0.17523 0.40093 0.16807 0.0
H30 H 0.0099 0.39526 0.31348 0.0
H31 H 0.92125 0.37786 0.28918 0.0
O32 O 0.02152 0.35096 0.11446 0.0
C33 C 0.04675 0.45636 0.07474 0.0
C34 C 0.93893 0.38212 0.21663 0.0
C35 C 0.0004 0.39386 0.27717 0.0
N36 N 0.026 0.39948 0.19759 0.0
C37 C 0.97731 0.39003 0.184 0.0
C38 C 0.03783 0.40168 0.24357 0.0
C39 C 0.95064 0.38403 0.26351 0.0
C40 C 0.21695 0.50296 1.03847 0.0
N41 N 0.16629 0.4831 1.02323 0.0
C42 C 0.25715 0.5533 1.02428 0.0
C43 C 0.24499 0.58332 0.99453 0.0
C44 C 0.19293 0.56347 0.98042 0.0
C45 C 0.15387 0.513 0.99519 0.0
C46 C 0.11901 0.39805 0.89386 0.0
C47 C 0.04162 0.37202 0.9601 0.0
C48 C 0.13214 0.40905 0.94052 0.0
N49 N 0.09365 0.39615 0.973 0.0
C50 C 0.02701 0.36034 0.91377 0.0
C51 C 0.06604 0.37343 0.8805 0.0
C52 C 0.01943 0.32197 0.08071 0.0
C53 C 0.15163 0.32888 0.2043 0.0
C54 C 0.05027 0.31209 0.19742 0.0
C55 C 0.05814 0.27346 0.21837 0.0
C56 C 0.10926 0.28212 0.22195 0.0
N57 N 0.09215 0.35873 0.18115 0.0
C58 C 0.14222 0.36656 0.18351 0.0
Co59 Co 0.56268 0.70516 0.06908 0.0
Co60 Co 0.5582 0.65875 0.17822 0.0
O61 O 0.54853 0.70527 0.13507 0.0
C62 C 0.62348 0.82136 0.08588 0.0
O63 O 0.64946 0.81467 0.11969 0.0
C64 C 0.47729 0.68181 0.22211 0.0
O65 O 0.47311 0.70327 0.18363 0.0
O66 O 0.50643 0.59373 0.14059 0.0
O67 O 0.5388 0.62837 0.07076 0.0
H68 H 0.58384 0.50569 0.21975 0.0
H69 H 0.49571 0.74839 0.09854 0.0
O70 O 0.58664 0.78172 0.06473 0.0
H71 H 0.38943 0.60856 0.98451 0.0
H72 H 0.56636 0.75658 0.90203 0.0
H73 H 0.61268 0.65778 1.01248 0.0
H74 H 0.47687 0.62489 1.00887 0.0
H75 H 0.54528 0.75381 0.98472 0.0
O76 O 0.50124 0.65522 0.22185 0.0
H77 H 0.57448 0.56679 0.1669 0.0
H78 H 0.55964 0.64937 0.28116 0.0
H79 H 0.63404 0.65907 0.93011 0.0
H80 H 0.40815 0.73297 0.07569 0.0
H81 H 0.61087 0.70875 0.87416 0.0
H82 H 0.3562 0.66455 1.01612 0.0
O83 O 0.63544 0.72275 0.0833 0.0
H84 H 0.63825 0.84306 0.2475 0.0
H85 H 0.66347 0.69099 0.21881 0.0
H86 H 0.73269 0.76978 0.25966 0.0
H87 H 0.72046 0.84666 0.27416 0.0
H88 H 0.57083 0.76445 0.20593 0.0
H89 H 0.56846 0.58888 0.33517 0.0
H90 H 0.58087 0.51653 0.30459 0.0
O91 O 0.61679 0.66292 0.13932 0.0
C92 C 0.51312 0.58844 0.09726 0.0
C93 C 0.57846 0.53708 0.23351 0.0
C94 C 0.56972 0.5837 0.29828 0.0
N95 N 0.5664 0.61165 0.22078 0.0
C96 C 0.57316 0.57187 0.20372 0.0
C97 C 0.56445 0.61766 0.26746 0.0
C98 C 0.57674 0.54314 0.2811 0.0
C99 C 0.47219 0.71728 0.07401 0.0
N100 N 0.49129 0.68765 0.05501 0.0
C101 C 0.42283 0.70892 0.06095 0.0
C102 C 0.39338 0.67018 1.02802 0.0
C103 C 0.41229 0.63892 1.00992 0.0
C104 C 0.46158 0.64806 1.02415 0.0
C105 C 0.57683 0.73494 0.92608 0.0
C106 C 0.60259 0.67966 0.9885 0.0
C107 C 0.56532 0.73355 0.97303 0.0
N108 N 0.57816 0.7061 1.00364 0.0
C109 C 0.61473 0.68017 0.94181 0.0
C110 C 0.60175 0.70806 0.91046 0.0
C111 C 0.64719 0.69396 0.10759 0.0
C112 C 0.64372 0.80948 0.24194 0.0
C113 C 0.65717 0.72375 0.22565 0.0
C114 C 0.69676 0.76845 0.24866 0.0
C115 C 0.68984 0.81152 0.25688 0.0
N116 N 0.61141 0.72143 0.21175 0.0
C117 C 0.60503 0.76416 0.21894 0.0
Co118 Co 0.26061 0.84469 0.05267 0.0
Co119 Co 0.29973 0.89942 0.1609 0.0
O120 O 0.25452 0.83955 0.12008 0.0
C121 C 0.14594 0.80112 0.06384 0.0
O122 O 0.15634 0.83808 0.09473 0.0
C123 C 0.27706 0.79799 0.21156 0.0
O124 O 0.26024 0.77068 0.17317 0.0
O125 O 0.36602 0.90943 0.12988 0.0
O126 O 0.33848 0.89443 0.05625 0.0
H127 H 0.44991 0.08423 0.19621 0.0
H128 H 0.20131 0.73687 0.09341 0.0
O129 O 0.183 0.79661 0.04605 0.0
H130 H 0.35533 0.74646 1.01616 0.0
H131 H 0.22038 0.7718 0.89068 0.0
H132 H 0.3183 0.9335 0.98584 0.0
H133 H 0.34026 0.82181 1.01183 0.0
H134 H 0.2139 0.76617 0.97565 0.0
O135 O 0.29952 0.84894 0.21041 0.0
H136 H 0.39133 0.00875 0.14597 0.0
H137 H 0.30423 0.91815 0.26286 0.0
H138 H 0.32629 0.94085 0.90101 0.0
H139 H 0.21504 0.6605 0.09906 0.0
H140 H 0.27714 0.85961 0.85281 0.0
H141 H 0.29345 0.66571 0.06246 0.0
O142 O 0.25066 0.90674 0.05302 0.0
H143 H 0.1158 0.7996 0.22933 0.0
H144 H 0.26594 0.97626 0.18681 0.0
H145 H 0.18677 0.96958 0.22282 0.0
H146 H 0.11119 0.88081 0.2449 0.0
H147 H 0.19488 0.80787 0.19236 0.0
H148 H 0.36218 -0.0074 0.31434 0.0
H149 H 0.43573 0.07638 0.28108 0.0
O150 O 0.29969 0.95083 0.11504 0.0
C151 C 0.37536 0.91516 0.08616 0.0
C152 C 0.41811 0.04786 0.21113 0.0
C153 C 0.36894 -0.0036 0.27743 0.0
N154 N 0.34462 0.95877 0.20136 0.0
C155 C 0.38477 0.00491 0.18283 0.0
C156 C 0.33643 0.95423 0.24807 0.0
C157 C 0.41012 0.04344 0.25875 0.0
C158 C 0.23494 0.73893 0.07618 0.0
N159 N 0.2704 0.78399 0.05291 0.0
C160 C 0.24261 0.69566 0.07971 0.0
C161 C 0.28663 0.69858 0.05879 0.0
C162 C 0.32154 0.74391 1.03352 0.0
C163 C 0.31288 0.78662 1.03114 0.0
C164 C 0.24209 0.80748 0.91131 0.0
C165 C 0.29693 0.8979 0.96516 0.0
C166 C 0.23849 0.80455 0.95945 0.0
N167 N 0.266 0.84939 0.98576 0.0
C168 C 0.30154 0.90235 0.91711 0.0
C169 C 0.27393 0.85675 0.89008 0.0
C170 C 0.27522 0.94829 0.07779 0.0
C171 C 0.14878 0.83858 0.22047 0.0
C172 C 0.23334 0.93743 0.19636 0.0
C173 C 0.18854 0.93392 0.21671 0.0
C174 C 0.14614 0.88413 0.22907 0.0
N175 N 0.23624 0.89268 0.18893 0.0
C176 C 0.19418 0.84362 0.19996 0.0
Co177 Co 0.55204 0.85026 0.55401 0.0
Co178 Co 0.55195 0.88549 0.44051 0.0
O179 O 0.54078 0.83231 0.48805 0.0
C180 C 0.62043 0.80528 0.54003 0.0
O181 O 0.64278 0.83875 0.50557 0.0
C182 C 0.47393 0.7768 0.39862 0.0
O183 O 0.47057 0.75206 0.43755 0.0
O184 O 0.49957 0.90025 0.47324 0.0
O185 O 0.52293 0.89824 0.54705 0.0
H186 H 0.58266 0.06267 0.38462 0.0
H187 H 0.49359 0.73635 0.5287 0.0
O188 O 0.58223 0.80352 0.56219 0.0
H189 H 0.37973 0.75992 0.63954 0.0
H190 H 0.55641 0.81212 0.72347 0.0
H191 H 0.59144 0.9504 0.60742 0.0
H192 H 0.46095 0.83761 0.60934 0.0
H193 H 0.54006 0.78924 0.64083 0.0
O194 O 0.49591 0.8278 0.39817 0.0
H195 H 0.5706 -0.00427 0.44296 0.0
H196 H 0.55526 0.88818 0.33707 0.0
H197 H 0.60778 0.97484 0.68971 0.0
H198 H 0.41318 0.65782 0.55764 0.0
H199 H 0.59023 0.90544 0.74843 0.0
H200 H 0.3571 0.66915 0.61636 0.0
O201 O 0.62339 0.91025 0.54153 0.0
H202 H 0.63472 0.77908 0.38683 0.0
H203 H 0.65822 0.95824 0.40033 0.0
H204 H 0.72881 0.94799 0.36542 0.0
H205 H 0.71746 0.85793 0.35855 0.0
H206 H 0.5661 0.79107 0.4226 0.0
H207 H 0.56673 0.95385 0.27764 0.0
H208 H 0.58082 0.04196 0.30122 0.0
O209 O 0.6092 0.94432 0.47775 0.0
C210 C 0.50157 0.91264 0.51632 0.0
C211 C 0.57643 0.02437 0.37388 0.0
C212 C 0.56738 0.96327 0.31386 0.0
N213 N 0.56167 0.93775 0.39362 0.0
C214 C 0.56949 0.98621 0.40681 0.0
C215 C 0.5605 0.92605 0.34774 0.0
C216 C 0.57535 0.01272 0.32711 0.0
C217 C 0.46829 0.74166 0.55245 0.0
N218 N 0.48215 0.79127 0.56774 0.0
C219 C 0.42288 0.69693 0.5692 0.0
C220 C 0.39154 0.70337 0.60172 0.0
C221 C 0.40428 0.75441 0.61496 0.0
C222 C 0.44987 0.79827 0.59721 0.0
C223 C 0.56414 0.8427 0.69822 0.0
C224 C 0.58337 0.91985 0.63271 0.0
C225 C 0.55515 0.83002 0.65132 0.0
N226 N 0.56442 0.86834 0.61923 0.0
C227 C 0.59286 0.93399 0.67929 0.0
C228 C 0.58307 0.89506 0.71221 0.0
C229 C 0.63692 0.9479 0.51295 0.0
C230 C 0.63975 0.81846 0.3889 0.0
C231 C 0.6522 0.91866 0.3967 0.0
C232 C 0.69261 0.9132 0.37707 0.0
C233 C 0.6862 0.86269 0.37311 0.0
N234 N 0.60609 0.87501 0.41144 0.0
C235 C 0.60023 0.82547 0.40843 0.0
Co236 Co 0.12261 0.71089 0.54323 0.0
Co237 Co 0.07588 0.66994 0.43253 0.0
O238 O 0.1313 0.71725 0.47593 0.0
C239 C 0.15817 0.82375 0.52766 0.0
O240 O 0.12417 0.81028 0.49357 0.0
C241 C 0.18134 0.69948 0.38763 0.0
O242 O 0.20656 0.72 0.42643 0.0
O243 O 0.06677 0.6046 0.466 0.0
O244 O 0.07975 0.63242 0.5396 0.0
H245 H 0.89779 0.51372 0.39011 0.0
H246 H 0.23066 0.77846 0.50637 0.0
O247 O 0.16365 0.78905 0.54941 0.0
H248 H 0.23511 0.63469 0.59226 0.0
H249 H 0.18517 0.75821 0.70778 0.0
H250 H 0.03278 0.64612 0.60686 0.0
H251 H 0.15326 0.63855 0.58904 0.0
H252 H 0.19499 0.76473 0.62303 0.0
O253 O 0.13056 0.67219 0.38729 0.0
H254 H 0.96852 0.57458 0.44327 0.0
H255 H 0.06438 0.66398 0.32952 0.0
H256 H 0.02135 0.63801 0.69142 0.0
H257 H 0.31322 0.77593 0.50834 0.0
H258 H 0.0979 0.69425 0.74251 0.0
H259 H 0.31541 0.70318 0.55001 0.0
O260 O 0.05684 0.71359 0.53913 0.0
H261 H 0.17318 0.85547 0.36393 0.0
H262 H -0.00185 0.69824 0.39678 0.0
H263 H 0.00359 0.77534 0.35656 0.0
H264 H 0.09162 0.85447 0.33919 0.0
H265 H 0.16602 0.77846 0.40503 0.0
H266 H -0.00524 0.60386 0.27519 0.0
H267 H 0.91065 0.5282 0.30537 0.0
O268 O 0.02043 0.66822 0.47373 0.0
C269 C 0.06172 0.59543 0.50978 0.0
C270 C 0.9343 0.54653 0.37652 0.0
C271 C -0.01123 0.59704 0.31204 0.0
N272 N 0.02075 0.62271 0.38966 0.0
C273 C 0.97454 0.58116 0.40648 0.0
C274 C 0.0282 0.63078 0.34303 0.0
C275 C 0.94155 0.55464 0.32899 0.0
C276 C 0.23152 0.74697 0.52539 0.0
N277 N 0.18709 0.70838 0.54716 0.0
C278 C 0.27834 0.7457 0.52623 0.0
C279 C 0.27956 0.70481 0.54994 0.0
C280 C 0.23445 0.66622 0.57307 0.0
C281 C 0.18815 0.66851 0.57109 0.0
C282 C 0.15155 0.73335 0.68588 0.0
C283 C 0.06639 0.67056 0.62882 0.0
C284 C 0.15685 0.73691 0.63785 0.0
N285 N 0.11465 0.70544 0.60996 0.0
C286 C 0.05962 0.66587 0.6767 0.0
C287 C 0.10258 0.69747 0.70535 0.0
C288 C 0.01808 0.68966 0.51136 0.0
C289 C 0.13459 0.82086 0.37057 0.0
C290 C 0.03668 0.73236 0.38939 0.0
C291 C 0.03947 0.776 0.36659 0.0
C292 C 0.08884 0.82038 0.35687 0.0
N293 N 0.08175 0.73238 0.40169 0.0
C294 C 0.13025 0.77651 0.39337 0.0
Co295 Co 0.25771 0.40334 0.52529 0.0
Co296 Co 0.29813 0.40213 0.41447 0.0
O297 O 0.25373 0.41302 0.45864 0.0
C298 C 0.14228 0.33548 0.51321 0.0
O299 O 0.14962 0.30992 0.47949 0.0
C300 C 0.27544 0.48378 0.37001 0.0
O301 O 0.2544 0.48826 0.40841 0.0
O302 O 0.36454 0.45521 0.44929 0.0
O303 O 0.33459 0.43021 0.52158 0.0
H304 H 0.44738 0.37346 0.36984 0.0
H305 H 0.20895 0.46448 0.49206 0.0
O306 O 0.18109 0.37583 0.53189 0.0
H307 H 0.35137 0.58365 0.59862 0.0
H308 H 0.21489 0.40985 0.69294 0.0
H309 H 0.31058 0.35987 0.58342 0.0
H310 H 0.33637 0.49483 0.58129 0.0
H311 H 0.21189 0.42427 0.6093 0.0
O312 O 0.30061 0.45846 0.37016 0.0
H313 H 0.3891 0.38477 0.4239 0.0
H314 H 0.30309 0.39776 0.31138 0.0
H315 H 0.31512 0.34531 0.66675 0.0
H316 H 0.22531 0.55524 0.5056 0.0
H317 H 0.26705 0.37037 0.72222 0.0
H318 H 0.29729 0.6154 0.55868 0.0
O319 O 0.24308 0.33037 0.51513 0.0
H320 H 0.11254 0.32163 0.35009 0.0
H321 H 0.26323 0.29461 0.37626 0.0
H322 H 0.18284 0.22434 0.33816 0.0
H323 H 0.10669 0.23756 0.32479 0.0
H324 H 0.19279 0.3901 0.38891 0.0
H325 H 0.36071 0.38693 0.25616 0.0
H326 H 0.43342 0.37457 0.28527 0.0
O327 O 0.29532 0.34436 0.45411 0.0
C328 C 0.37243 0.45242 0.4928 0.0
C329 C 0.41585 0.37886 0.35672 0.0
C330 C 0.36729 0.38654 0.29293 0.0
N331 N 0.34277 0.39215 0.37095 0.0
C332 C 0.38267 0.38528 0.38719 0.0
C333 C 0.33495 0.39294 0.32442 0.0
C334 C 0.40803 0.37953 0.30928 0.0
C335 C 0.24096 0.49113 0.5146 0.0
N336 N 0.27216 0.47486 0.53538 0.0
C337 C 0.24979 0.54219 0.52233 0.0
C338 C 0.29014 0.57598 0.55231 0.0
C339 C 0.321 0.55858 0.57413 0.0
C340 C 0.31216 0.50803 0.5644 0.0
C341 C 0.23594 0.39868 0.66913 0.0
C342 C 0.28951 0.3709 0.60724 0.0
C343 C 0.23413 0.40646 0.62168 0.0
N344 N 0.26085 0.39276 0.59136 0.0
C345 C 0.29224 0.36254 0.65445 0.0
C346 C 0.26524 0.37657 0.68554 0.0
C347 C 0.26812 0.31637 0.48853 0.0
C348 C 0.14574 0.31569 0.35517 0.0
C349 C 0.2307 0.30122 0.37005 0.0
C350 C 0.18511 0.26106 0.34858 0.0
C351 C 0.14243 0.2685 0.34105 0.0
N352 N 0.23422 0.34798 0.38315 0.0
C353 C 0.19193 0.35493 0.37662 0.0
Co354 Co 0.83681 0.56739 1.04044 0.0
Co355 Co 0.87327 0.56559 0.92827 0.0
O356 O 0.81925 0.55631 0.97414 0.0
C357 C 0.79321 0.63898 1.03193 0.0
O358 O 0.82669 0.66551 0.99849 0.0
C359 C 0.7662 0.48966 0.88195 0.0
O360 O 0.73959 0.48803 0.91895 0.0
O361 O 0.88256 0.50984 0.96182 0.0
O362 O 0.88382 0.53754 1.03434 0.0
H363 H 0.04667 0.58467 0.87931 0.0
H364 H 0.72265 0.50814 1.01545 0.0
O365 O 0.7904 0.59754 0.04916 0.0
H366 H 0.7475 0.39471 0.12724 0.0
H367 H 0.79961 0.56946 0.21034 0.0
H368 H 0.93689 0.60846 0.09361 0.0
H369 H 0.82422 0.47579 0.09601 0.0
H370 H 0.77623 0.55262 0.12785 0.0
O371 O 0.81677 0.51148 0.88401 0.0
H372 H -0.02056 0.57625 0.93499 0.0
H373 H 0.88125 0.57199 0.82501 0.0
H374 H 0.96187 0.62521 0.17574 0.0
H375 H 0.64443 0.42706 0.04597 0.0
H376 H 0.89301 0.60567 0.23484 0.0
H377 H 0.65709 0.37167 0.10462 0.0
O378 O 0.89704 0.63934 1.02752 0.0
H379 H 0.77711 0.65665 0.86836 0.0
H380 H 0.95102 0.67208 0.88991 0.0
H381 H 0.94607 0.74529 0.8526 0.0
H382 H 0.85865 0.73783 0.84132 0.0
H383 H 0.78384 0.58515 0.90633 0.0
H384 H 0.94731 0.57996 0.76817 0.0
H385 H 0.03085 0.5866 0.79517 0.0
O386 O 0.93204 0.62105 0.96719 0.0
C387 C 0.89512 0.51265 1.00486 0.0
C388 C 0.01039 0.58176 0.86709 0.0
C389 C 0.95459 0.579 0.80473 0.0
N390 N 0.92615 0.57325 0.88344 0.0
C391 C 0.97209 0.57694 0.8985 0.0
C392 C 0.91714 0.57413 0.83714 0.0
C393 C 0.00148 0.58278 0.8199 0.0
C394 C 0.7282 0.48291 1.03943 0.0
N395 N 0.77781 0.49699 0.05437 0.0
C396 C 0.68382 0.43736 0.05691 0.0
C397 C 0.69079 0.40626 0.08963 0.0
C398 C 0.74169 0.41917 0.10249 0.0
C399 C 0.78503 0.46467 0.08405 0.0
C400 C 0.83002 0.57827 0.18492 0.0
C401 C 0.9066 0.59985 0.11899 0.0
C402 C 0.81706 0.56919 0.13807 0.0
N403 N 0.85512 0.5798 0.10572 0.0
C404 C 0.92104 0.60945 0.16552 0.0
C405 C 0.8824 0.59853 0.19865 0.0
C406 C 0.93573 0.65051 1.0011 0.0
C407 C 0.81539 0.65999 0.87236 0.0
C408 C 0.91261 0.66792 0.88464 0.0
C409 C 0.91015 0.70978 0.86363 0.0
C410 C 0.86112 0.70558 0.85729 0.0
N411 N 0.86746 0.62253 0.89834 0.0
C412 C 0.8194 0.61897 0.89331 0.0
Co413 Co 0.39145 0.26749 1.02084 0.0
Co414 Co 0.40801 0.32986 0.9171 0.0
O415 O 0.40781 0.27416 0.955 0.0
C416 C 0.31211 0.15291 1.02542 0.0
O417 O 0.27729 0.16563 1.03892 0.0
C418 C 0.48653 0.30337 0.87479 0.0
O419 O 0.4899 0.28232 0.91375 0.0
O420 O 0.46145 0.38597 0.96047 0.0
O421 O 0.42359 0.34607 1.02767 0.0
H422 H 0.40128 0.49696 0.89136 0.0
H423 H 0.44949 0.21579 0.98586 0.0
O424 O 0.35911 0.18898 1.01489 0.0
H425 H 0.56886 0.35143 0.09766 0.0
H426 H 0.37518 0.1914 0.1806 0.0
H427 H 0.34822 0.31559 0.08464 0.0
H428 H 0.4788 0.33421 0.08571 0.0
H429 H 0.39727 0.20199 0.09763 0.0
O430 O 0.46396 0.33116 0.8741 0.0
H431 H 0.40152 0.42613 0.9377 0.0
H432 H 0.41685 0.35425 0.81584 0.0
H433 H 0.32591 0.30648 0.16747 0.0
H434 H 0.5399 0.23175 0.99679 0.0
H435 H 0.33939 0.24405 0.21609 0.0
H436 H 0.60085 0.30212 0.05105 0.0
O437 O 0.32303 0.26148 1.00647 0.0
H438 H 0.31693 0.15623 0.82916 0.0
H439 H 0.30872 0.3145 0.87489 0.0
H440 H 0.23744 0.2455 0.8271 0.0
H441 H 0.24104 0.16561 0.80414 0.0
H442 H 0.38674 0.22545 0.87771 0.0
H443 H 0.41742 0.42475 0.76827 0.0
H444 H 0.40847 0.49614 0.80595 0.0
O445 O 0.35079 0.32831 0.95566 0.0
C446 C 0.45349 0.38777 1.0041 0.0
C447 C 0.40496 0.46591 0.87453 0.0
C448 C 0.4141 0.42543 0.80547 0.0
N449 N 0.40938 0.38605 0.87966 0.0
C450 C 0.40518 0.42566 0.90061 0.0
C451 C 0.41418 0.38582 0.83267 0.0
C452 C 0.40918 0.46553 0.82662 0.0
C453 C 0.47552 0.24527 1.01061 0.0
N454 N 0.4594 0.27491 1.03432 0.0
C455 C 0.52662 0.25423 1.01652 0.0
C456 C 0.56077 0.29337 0.04732 0.0
C457 C 0.54313 0.3216 0.07299 0.0
C458 C 0.49201 0.31176 0.06599 0.0
C459 C 0.3691 0.21873 0.15978 0.0
C460 C 0.35415 0.28829 0.10549 0.0
C461 C 0.38142 0.2248 0.11275 0.0
N462 N 0.37394 0.2593 0.08623 0.0
C463 C 0.34145 0.28331 0.15241 0.0
C464 C 0.34902 0.24827 0.17967 0.0
C465 C 0.317 0.29585 0.98469 0.0
C466 C 0.31517 0.19117 0.83867 0.0
C467 C 0.3112 0.28028 0.86452 0.0
C468 C 0.27052 0.2412 0.83754 0.0
C469 C 0.27263 0.19642 0.82456 0.0
N470 N 0.35329 0.27536 0.87784 0.0
C471 C 0.35509 0.23101 0.86577 0.0
Co472 Co 0.69743 0.13297 1.0438 0.0
Co473 Co 0.65658 0.08284 0.93409 0.0
O474 O 0.70377 0.1398 0.97644 0.0
C475 C 0.80913 0.16589 1.03023 0.0
O476 O 0.79483 0.12982 0.99771 0.0
C477 C 0.68685 0.18819 0.88619 0.0
O478 O 0.70605 0.21419 0.92491 0.0
O479 O 0.59174 0.07556 0.96605 0.0
O480 O 0.61899 0.08967 1.03992 0.0
H481 H 0.49987 0.90369 0.89382 0.0
H482 H 0.76444 0.24024 1.00418 0.0
O483 O 0.77537 0.17406 0.05009 0.0
H484 H 0.62414 0.24827 0.09042 0.0
H485 H 0.74535 0.19977 0.20722 0.0
H486 H 0.63266 0.04437 0.10902 0.0
H487 H 0.6268 0.1654 0.08841 0.0
H488 H 0.7515 0.20761 0.12231 0.0
O489 O 0.6604 0.13704 0.8865 0.0
H490 H 0.56068 0.9757 0.9461 0.0
H491 H 0.6518 0.06821 0.83155 0.0
H492 H 0.62488 0.03493 0.19375 0.0
H493 H 0.76225 0.32354 1.00374 0.0
H494 H 0.68144 0.113 0.24348 0.0
H495 H 0.69095 0.32727 0.04528 0.0
O496 O 0.69989 0.06697 1.04193 0.0
H497 H 0.84124 0.176 0.86664 0.0
H498 H 0.68384 0.00231 0.90416 0.0
H499 H 0.76057 0.00511 0.86686 0.0
H500 H 0.83981 0.09241 0.84731 0.0
H501 H 0.76451 0.17152 0.90487 0.0
H502 H 0.59169 -0.0026 0.77807 0.0
H503 H 0.51518 0.91428 0.80908 0.0
O504 O 0.65319 0.02782 0.9778 0.0
C505 C 0.58226 0.07074 1.00979 0.0
C506 C 0.53304 0.93974 0.87986 0.0
C507 C 0.58451 -0.00763 0.8149 0.0
N508 N 0.6096 0.02639 0.89203 0.0
C509 C 0.56763 0.98071 0.90932 0.0
C510 C 0.61824 0.03251 0.84541 0.0
C511 C 0.54162 0.94572 0.83233 0.0
C512 C 0.73352 0.24188 1.02297 0.0
N513 N 0.69531 0.19795 0.04571 0.0
C514 C 0.7325 0.28909 1.02255 0.0
C515 C 0.69251 0.29124 0.04629 0.0
C516 C 0.65467 0.24678 0.0708 0.0
C517 C 0.65636 0.19992 0.06966 0.0
C518 C 0.72035 0.16551 0.18592 0.0
C519 C 0.65719 0.07866 0.13037 0.0
C520 C 0.7237 0.16968 0.13781 0.0
N521 N 0.69204 0.12666 0.11066 0.0
C522 C 0.65271 0.07301 0.17836 0.0
C523 C 0.6845 0.11682 0.20624 0.0
C524 C 0.67468 0.02673 1.01591 0.0
C525 C 0.80662 0.13769 0.87434 0.0
C526 C 0.71802 0.04054 0.89568 0.0
C527 C 0.76143 0.04183 0.87459 0.0
C528 C 0.80587 0.0908 0.86363 0.0
N529 N 0.7184 0.08668 0.90514 0.0
C530 C 0.7625 0.13485 0.8955 0.0
Co531 Co 0.40592 0.13645 0.54551 0.0
Co532 Co 0.39661 0.09276 0.65804 0.0
O533 O 0.40799 0.14741 0.61242 0.0
C534 C 0.32747 0.1701 0.55466 0.0
O535 O 0.30476 0.13576 0.58851 0.0
C536 C 0.47709 0.19969 0.7009 0.0
O537 O 0.48252 0.22431 0.66154 0.0
O538 O 0.45109 0.08015 0.62689 0.0
O539 O 0.43991 0.09301 0.55214 0.0
H540 H 0.36521 0.91366 0.70838 0.0
H541 H 0.44758 0.24543 0.57964 0.0
O542 O 0.3699 0.17744 0.53621 0.0
H543 H 0.5951 0.25109 0.49366 0.0
H544 H 0.4232 0.19375 0.37897 0.0
H545 H 0.37808 0.04378 0.48489 0.0
H546 H 0.50981 0.16664 0.50159 0.0
H547 H 0.42766 0.20682 0.46333 0.0
O548 O 0.45077 0.1486 0.70243 0.0
H549 H 0.37906 0.98323 0.65213 0.0
H550 H 0.38919 0.08521 0.76119 0.0
H551 H 0.37354 0.02909 0.4008 0.0
H552 H 0.53196 0.33036 0.57284 0.0
H553 H 0.396 0.10437 0.34719 0.0
H554 H 0.60584 0.33351 0.53003 0.0
O555 O 0.3362 0.07077 0.54999 0.0
H556 H 0.31205 0.19668 0.71273 0.0
H557 H 0.28837 0.01802 0.69331 0.0
H558 H 0.21533 0.02665 0.72476 0.0
H559 H 0.22655 0.11632 0.7341 0.0
H560 H 0.38353 0.18635 0.68053 0.0
H561 H 0.37586 0.01686 0.81858 0.0
H562 H 0.36355 0.93026 0.79232 0.0
O563 O 0.34125 0.03629 0.61788 0.0
C564 C 0.4558 0.07378 0.5835 0.0
C565 C 0.3706 0.95126 0.72027 0.0
C566 C 0.37668 0.00922 0.78211 0.0
N567 N 0.38532 0.03846 0.70324 0.0
C568 C 0.37848 -0.00914 0.68856 0.0
C569 C 0.38455 0.04792 0.74941 0.0
C570 C 0.36971 0.96061 0.76735 0.0
C571 C 0.47982 0.24647 0.56076 0.0
N572 N 0.47395 0.20125 0.54106 0.0
C573 C 0.52745 0.29464 0.55713 0.0
C574 C 0.56909 0.29631 0.53293 0.0
C575 C 0.563 0.25006 0.51287 0.0
C576 C 0.5148 0.20237 0.51759 0.0
C577 C 0.41345 0.16067 0.40197 0.0
C578 C 0.38846 0.0769 0.46183 0.0
C579 C 0.41588 0.16782 0.44979 0.0
N580 N 0.40374 0.12626 0.47908 0.0
C581 C 0.38562 0.06827 0.41421 0.0
C582 C 0.39822 0.11051 0.38415 0.0
C583 C 0.3186 0.03319 0.57939 0.0
C584 C 0.3068 0.15733 0.70909 0.0
C585 C 0.29418 0.05737 0.69801 0.0
C586 C 0.25248 0.06196 0.71574 0.0
C587 C 0.25888 0.11231 0.72113 0.0
N588 N 0.34131 0.10166 0.6863 0.0
C589 C 0.34764 0.1512 0.6914 0.0
Co590 Co 0.84229 0.27247 0.55405 0.0
Co591 Co 0.88842 0.31135 0.66441 0.0
O592 O 0.83119 0.26739 0.62103 0.0
C593 C 0.79331 0.1579 0.5691 0.0
O594 O 0.82749 0.16807 0.6025 0.0
C595 C 0.78495 0.28731 0.71044 0.0
O596 O 0.75883 0.26809 0.67175 0.0
O597 O 0.90205 0.37841 0.63097 0.0
O598 O 0.89398 0.34989 0.55788 0.0
H599 H 0.07058 0.46059 0.70695 0.0
H600 H 0.73211 0.22198 0.58904 0.0
O601 O 0.79187 0.19536 0.54806 0.0
H602 H 0.75974 0.37332 0.49225 0.0
H603 H 0.78507 0.22923 0.38783 0.0
H604 H 0.93672 0.32792 0.4931 0.0
H605 H 0.83034 0.35297 0.50176 0.0
H606 H 0.77145 0.22505 0.47213 0.0
O607 O 0.8358 0.31278 0.71018 0.0
H608 H -0.00123 0.40188 0.65371 0.0
H609 H 0.90002 0.3165 0.76739 0.0
H610 H 0.95202 0.33365 0.40908 0.0
H611 H 0.66029 0.24238 0.58215 0.0
H612 H 0.87588 0.28413 0.35577 0.0
H613 H 0.67492 0.31962 0.53468 0.0
O614 O 0.90038 0.25815 0.56132 0.0
H615 H 0.78175 0.12579 0.73197 0.0
H616 H 0.96114 0.27633 0.69955 0.0
H617 H 0.95057 0.19687 0.73955 0.0
H618 H 0.86036 0.12111 0.75666 0.0
H619 H 0.79397 0.20503 0.69113 0.0
H620 H 0.97041 0.37492 0.82176 0.0
H621 H 0.05659 0.44744 0.7917 0.0
O622 O 0.94188 0.30915 0.62273 0.0
C623 C 0.9113 0.38725 0.58738 0.0
C624 C 0.03321 0.42914 0.7205 0.0
C625 C 0.97698 0.38111 0.78493 0.0
N626 N 0.94501 0.3559 0.70727 0.0
C627 C -0.00763 0.39567 0.69049 0.0
C628 C 0.93709 0.34835 0.75389 0.0
C629 C 0.02533 0.42178 0.76803 0.0
C630 C 0.73826 0.25553 0.56829 0.0
N631 N 0.78557 0.28699 0.54665 0.0
C632 C 0.69755 0.26677 0.56441 0.0
C633 C 0.70555 0.30993 0.53751 0.0
C634 C 0.75331 0.34058 0.51426 0.0
C635 C 0.7933 0.32883 0.5197 0.0
C636 C 0.81858 0.25103 0.4107 0.0
C637 C 0.90331 0.30633 0.4702 0.0
C638 C 0.81114 0.24863 0.45849 0.0
N639 N 0.85321 0.2763 0.4876 0.0
C640 C 0.91226 0.30968 0.42261 0.0
C641 C 0.86952 0.28184 0.39273 0.0
C642 C 0.94077 0.28286 0.58705 0.0
C643 C 0.82129 0.15895 0.72549 0.0
C644 C 0.92167 0.24376 0.707 0.0
C645 C 0.91597 0.19874 0.7296 0.0
C646 C 0.86538 0.15625 0.73917 0.0
N647 N 0.87826 0.24694 0.69482 0.0
C648 C 0.82853 0.20459 0.70288 0.0
Co649 Co 0.69478 0.5712 0.54465 0.0
Co650 Co 0.64703 0.55725 0.65502 0.0
O651 O 0.69593 0.55377 0.6103 0.0
C652 C 0.80934 0.63926 0.56518 0.0
O653 O 0.79842 0.65877 0.60149 0.0
C654 C 0.67869 0.48184 0.69871 0.0
O655 O 0.70537 0.48313 0.66186 0.0
O656 O 0.58457 0.50415 0.61629 0.0
O657 O 0.61664 0.53914 0.54627 0.0
H658 H 0.48848 0.57057 0.6996 0.0
H659 H 0.74822 0.5119 0.56981 0.0
O660 O 0.77259 0.6035 0.5406 0.0
H661 H 0.62078 0.40692 0.44702 0.0
H662 H 0.74942 0.59154 0.37718 0.0
H663 H 0.63807 0.61422 0.49137 0.0
H664 H 0.62168 0.48471 0.48079 0.0
H665 H 0.75024 0.56815 0.45895 0.0
O666 O 0.64701 0.49993 0.69636 0.0
H667 H 0.55146 0.56713 0.64564 0.0
H668 H 0.63656 0.55267 0.75813 0.0
H669 H 0.63557 0.63744 0.4099 0.0
H670 H 0.74895 0.43468 0.53714 0.0
H671 H 0.69138 0.62599 0.35207 0.0
H672 H 0.68644 0.38316 0.47301 0.0
O673 O 0.70483 0.64102 0.56183 0.0
H674 H 0.8307 0.6465 0.72565 0.0
H675 H 0.67096 0.65844 0.70064 0.0
H676 H 0.74538 0.72837 0.74501 0.0
H677 H 0.82589 0.72253 0.7582 0.0
H678 H 0.75646 0.57858 0.68048 0.0
H679 H 0.57403 0.5552 0.81321 0.0
H680 H 0.50004 0.56536 0.78409 0.0
O681 O 0.64626 0.61551 0.61924 0.0
C682 C 0.578 0.51074 0.57317 0.0
C683 C 0.52071 0.5663 0.71271 0.0
C684 C 0.56865 0.55756 0.77646 0.0
N685 N 0.59756 0.55927 0.69852 0.0
C686 C 0.55652 0.56427 0.68229 0.0
C687 C 0.60367 0.55565 0.74502 0.0
C688 C 0.52705 0.56315 0.7601 0.0
C689 C 0.71981 0.48854 0.54332 0.0
N690 N 0.68543 0.50311 0.52683 0.0
C691 C 0.72065 0.44504 0.52455 0.0
C692 C 0.68573 0.41631 0.48883 0.0
C693 C 0.6487 0.42956 0.47413 0.0
C694 C 0.64885 0.47315 0.4939 0.0
C695 C 0.72491 0.59671 0.40205 0.0
C696 C 0.66251 0.60907 0.46652 0.0
C697 C 0.72546 0.58385 0.4485 0.0
N698 N 0.69424 0.58977 0.48008 0.0
C699 C 0.66095 0.62236 0.42038 0.0
C700 C 0.69232 0.616 0.38797 0.0
C701 C 0.67518 0.64884 0.58836 0.0
C702 C 0.79536 0.6489 0.721 0.0
C703 C 0.70539 0.65489 0.70665 0.0
C704 C 0.74761 0.69493 0.7317 0.0
C705 C 0.79274 0.69164 0.73912 0.0
N706 N 0.70735 0.612 0.69005 0.0
C707 C 0.75239 0.60967 0.69603 0.0
C708 C 0.20688 0.29257 0.05455 0.0
C709 C 0.20232 0.33308 1.03277 0.0
H710 H 0.24632 0.24796 0.05578 0.0
C711 C 0.23241 0.35776 0.99301 0.0
H712 H 0.18374 0.27256 0.08499 0.0
C713 C 0.26765 0.34353 0.97613 0.0
C714 C 0.27392 0.30454 0.99879 0.0
H715 H 0.22939 0.38871 0.97501 0.0
H716 H 0.29101 0.3643 0.94599 0.0
C717 C 0.2424 0.27829 1.03759 0.0
C718 C 0.67479 0.92111 0.09223 0.0
C719 C 0.63879 0.87472 0.06846 0.0
H720 H 0.71483 0.00632 0.09407 0.0
C721 C 0.61726 0.87913 1.0264 0.0
H722 H 0.69215 0.91883 0.12459 0.0
C723 C 0.63065 0.92858 1.00866 0.0
C724 C 0.66542 0.97506 1.03279 0.0
H725 H 0.58968 0.84433 1.00687 0.0
H726 H 0.6126 0.93005 0.97644 0.0
C727 C 0.68785 0.97104 0.07461 0.0
C728 C 0.04746 0.75961 0.07101 0.0
C729 C 0.09167 0.76602 0.04674 0.0
H730 H 0.96284 0.71808 0.07536 0.0
C731 C 0.08401 0.73814 1.00522 0.0
H732 H 0.05231 0.78099 0.1029 0.0
C733 C 0.03326 0.70288 0.98919 0.0
C734 C -0.01118 0.69417 1.01452 0.0
H735 H 0.1173 0.74298 0.98515 0.0
H736 H 0.02908 0.68118 0.95764 0.0
C737 C -0.00366 0.7238 0.05509 0.0
C738 C 0.63438 0.70291 0.60747 0.0
C739 C 0.66756 0.69403 0.57874 0.0
H740 H 0.59352 0.74485 0.61764 0.0
C741 C 0.68874 0.72523 0.53866 0.0
H742 H 0.6178 0.67999 0.63883 0.0
C743 C 0.67454 0.76259 0.52633 0.0
C744 C 0.6391 0.76923 0.55397 0.0
H745 H 0.7146 0.71942 0.51589 0.0
H746 H 0.68996 0.78495 0.49455 0.0
C747 C 0.62023 0.73999 0.59517 0.0
C748 C 0.21067 0.88989 0.58725 0.0
C749 C 0.19203 0.87929 0.54161 0.0
H750 H 0.26487 0.94676 0.63502 0.0
C751 C 0.21047 0.92103 0.50951 0.0
H752 H 0.19625 0.85837 0.61287 0.0
C753 C 0.25024 0.97224 0.52226 0.0
C754 C 0.27158 0.98192 0.56724 0.0
H755 H 0.19645 0.91353 0.47413 0.0
H756 H 0.26586 0.00348 0.49636 0.0
C757 C 0.25 0.94064 0.59996 0.0
C758 C -0.00596 0.26909 0.52705 0.0
C759 C -0.00923 0.28837 0.5708 0.0
H760 H 0.04516 0.26936 0.47398 0.0
C761 C 0.03705 0.31847 0.59666 0.0
H762 H 0.95889 0.24536 0.50637 0.0
C763 C 0.08587 0.33228 0.57799 0.0
C764 C 0.08962 0.31611 0.53316 0.0
H765 H 0.03596 0.3333 0.63066 0.0
H766 H 0.12082 0.35666 0.59859 0.0
C767 C 0.04327 0.28287 0.50835 0.0
C768 C 0.70001 0.64972 0.11402 0.0
C769 C 0.69138 0.68752 0.09211 0.0
H770 H 0.73781 0.60437 0.11178 0.0
C771 C 0.72033 0.71319 0.05191 0.0
H772 H 0.67894 0.62955 0.14525 0.0
C773 C 0.75457 0.69849 1.03237 0.0
C774 C 0.76022 0.65803 0.05284 0.0
H775 H 0.71478 0.74284 1.03435 0.0
H776 H 0.77513 0.71747 1.00063 0.0
C777 C 0.73369 0.63495 0.09448 0.0
C778 C 0.3438 0.08971 1.03816 0.0
C779 C 0.30116 0.09831 1.03235 0.0
H780 H 0.36824 0.03487 0.05809 0.0
C781 C 0.24903 0.05552 1.03802 0.0
H782 H 0.38444 0.12186 1.03421 0.0
C783 C 0.23991 0.00531 0.05098 0.0
C784 C 0.28292 -0.00182 0.05936 0.0
H785 H 0.21557 0.06121 1.03364 0.0
H786 H 0.19968 0.97287 0.05642 0.0
C787 C 0.33472 0.04018 0.05212 0.0
C788 C 0.95812 0.24855 1.02737 0.0
C789 C 0.96816 0.27389 0.07065 0.0
H790 H 0.89882 0.19384 0.98019 0.0
C791 C 0.92655 0.25718 0.10237 0.0
H792 H -0.01043 0.26018 1.00237 0.0
C793 C 0.87521 0.21972 0.08963 0.0
C794 C 0.86442 0.19794 0.04504 0.0
H795 H 0.93301 0.27505 0.13629 0.0
H796 H 0.84359 0.20942 0.11421 0.0
C797 C 0.90634 0.21065 1.01461 0.0
C798 C 0.27139 0.21153 0.56282 0.0
C799 C 0.3041 0.20023 0.53595 0.0
H800 H 0.23322 0.25715 0.56841 0.0
C801 C 0.31748 0.22071 0.49087 0.0
H802 H 0.2601 0.19562 0.59748 0.0
C803 C 0.30218 0.25545 0.47418 0.0
C804 C 0.2734 0.27071 0.50236 0.0
H805 H 0.34144 0.21134 0.46886 0.0
H806 H 0.31532 0.27237 0.44004 0.0
C807 C 0.25605 0.24665 0.54608 0.0
C808 C 0.7333 0.09493 0.50998 0.0
C809 C 0.75759 0.1033 0.55346 0.0
H810 H 0.67711 0.03907 0.46252 0.0
C811 C 0.74653 0.05954 0.5814 0.0
H812 H 0.74206 0.12794 0.48718 0.0
C813 C 0.70912 0.0082 0.56711 0.0
C814 C 0.68255 0.00021 0.52466 0.0
H815 H 0.76521 0.06507 0.61486 0.0
H816 H 0.69956 0.97516 0.59015 0.0
C817 C 0.6963 0.0439 0.49564 0.0
C818 C 0.92439 0.65997 0.49291 0.0
C819 C 0.96648 0.68291 0.52449 0.0
H820 H 0.84244 0.62916 0.48094 0.0
C821 C 0.9575 0.69571 0.56917 0.0
H822 H 0.9298 0.65002 0.45813 0.0
C823 C 0.90662 0.68338 0.58247 0.0
C824 C 0.86428 0.65801 0.55129 0.0
H825 H -0.01075 0.71354 0.5943 0.0
H826 H 0.90011 0.69185 0.61745 0.0
C827 C 0.87403 0.64774 0.50613 0.0
C828 C 0.2823 0.4954 0.28284 0.0
C829 C 0.25813 0.49551 0.32476 0.0
H830 H 0.27936 0.49569 0.20877 0.0
C831 C 0.2128 0.50055 0.32255 0.0
H832 H 0.31708 0.49147 0.28293 0.0
C833 C 0.19057 0.50216 0.27987 0.0
C834 C 0.21349 0.49985 0.23794 0.0
H835 H 0.19263 0.50042 0.35388 0.0
H836 H 0.15432 0.50345 0.27976 0.0
C837 C 0.26063 0.49804 0.24014 0.0
C838 C 0.46332 0.74683 0.26903 0.0
C839 C 0.46727 0.70057 0.26734 0.0
H840 H 0.46233 0.80704 0.31102 0.0
C841 C 0.46782 0.67685 0.30962 0.0
H842 H 0.46317 0.76675 0.23745 0.0
C843 C 0.46647 0.69973 0.35206 0.0
C844 C 0.46553 0.74766 0.35368 0.0
H845 H 0.47095 0.64142 0.31 0.0
H846 H 0.46894 0.68116 0.38367 0.0
C847 C 0.46297 0.77023 0.31143 0.0
C848 C 0.28078 0.79473 0.29882 0.0
C849 C 0.25781 0.76934 0.25678 0.0
H850 H 0.27578 0.79204 0.37276 0.0
C851 C 0.21207 0.71807 0.2585 0.0
H852 H 0.31572 0.83423 0.29894 0.0
C853 C 0.18835 0.69424 0.30089 0.0
C854 C 0.21043 0.72033 0.3429 0.0
H855 H 0.1928 0.69736 0.22693 0.0
H856 H 0.15182 0.656 0.30071 0.0
C857 C 0.25782 0.7703 0.34125 0.0
C858 C 0.76647 0.47812 0.79497 0.0
C859 C 0.73947 0.47759 0.83536 0.0
H860 H 0.7684 0.47879 0.72087 0.0
C861 C 0.68891 0.47172 0.83003 0.0
H862 H 0.80523 0.48227 0.79731 0.0
C863 C 0.66767 0.4699 0.78587 0.0
C864 C 0.69604 0.47346 0.74548 0.0
H865 H 0.66663 0.47114 0.86003 0.0
H866 H 0.62972 0.46759 0.78346 0.0
C867 C 0.74504 0.47585 0.75085 0.0
C868 C 0.49601 0.30637 0.78767 0.0
C869 C 0.49439 0.28217 0.83024 0.0
H870 H 0.49334 0.30027 0.71378 0.0
C871 C 0.49315 0.23316 0.82948 0.0
H872 H 0.49687 0.34394 0.78674 0.0
C873 C 0.49012 0.2075 0.78757 0.0
C874 C 0.4894 0.23058 0.74505 0.0
H875 H 0.49143 0.21291 0.86142 0.0
H876 H 0.48648 0.16864 0.78857 0.0
C877 C 0.49411 0.28122 0.74571 0.0
C878 C 0.68313 0.19395 0.79899 0.0
C879 C 0.7074 0.21741 0.84126 0.0
H880 H 0.68749 0.19817 0.72504 0.0
C881 C 0.75528 0.267 0.83991 0.0
H882 H 0.64653 0.15578 0.7985 0.0
C883 C 0.77953 0.29094 0.79766 0.0
C884 C 0.75601 0.26671 0.75538 0.0
H885 H 0.77561 0.28622 0.87163 0.0
H886 H 0.81748 0.32774 0.79813 0.0
C887 C 0.70672 0.21853 0.75674 0.0
C888 C -0.00287 0.46911 1.00967 0.0
C889 C 0.00881 0.4724 0.05756 0.0
H890 H 0.95178 0.47752 0.95551 0.0
C891 C -0.01966 0.48597 0.08766 0.0
H892 H 0.01767 0.45827 0.98501 0.0
C893 C 0.94179 0.49634 0.07039 0.0
C894 C 0.93068 0.49378 1.02243 0.0
H895 H -0.01266 0.48805 0.12455 0.0
H896 H 0.9212 0.50722 0.09497 0.0
C897 C 0.95865 0.47951 0.99242 0.0
C898 C 0.47677 0.48811 0.09975 0.0
C899 C 0.49618 0.53576 0.07483 0.0
H900 H 0.44935 0.40461 0.09734 0.0
C901 C 0.50391 0.53432 1.02657 0.0
H902 H 0.47098 0.48744 0.13673 0.0
C903 C 0.49271 0.48736 1.00401 0.0
C904 C 0.47255 0.4396 1.02859 0.0
H905 H 0.51893 0.56984 1.00554 0.0
H906 H 0.49869 0.4884 0.96703 0.0
C907 C 0.46501 0.44069 0.07693 0.0
C908 C 0.43812 0.95824 1.01905 0.0
C909 C 0.42947 0.95348 0.06742 0.0
H910 H 0.49116 -0.00048 0.96277 0.0
C911 C 0.47065 -0.0099 0.09592 0.0
H912 H 0.40748 0.93116 0.99554 0.0
C913 C 0.5187 0.02996 0.07674 0.0
C914 C 0.52757 0.03434 1.02839 0.0
H915 H 0.46566 0.98854 0.13304 0.0
H916 H 0.54941 0.05697 0.10024 0.0
C917 C 0.48616 -0.00193 0.99988 0.0
C918 C 0.48403 0.95976 0.58067 0.0
C919 C 0.48599 0.95149 0.53266 0.0
H920 H 0.47487 0.00499 0.63446 0.0
C921 C 0.4806 0.98578 0.50209 0.0
H922 H 0.48841 0.93462 0.6057 0.0
C923 C 0.47411 0.02723 0.51893 0.0
C924 C 0.4718 0.03529 0.56695 0.0
H925 H 0.48248 0.98143 0.46514 0.0
H926 H 0.47019 0.05265 0.4939 0.0
C927 C 0.47705 0.00088 0.5975 0.0
C928 C 0.95305 0.44977 0.51996 0.0
C929 C 0.9485 0.44162 0.56843 0.0
H930 H -0.00729 0.5031 0.46332 0.0
C931 C -0.016 0.48365 0.59677 0.0
H932 H 0.92687 0.41835 0.49659 0.0
C933 C 0.02268 0.53219 0.57726 0.0
C934 C 0.0267 0.54057 0.5288 0.0
H935 H -0.01745 0.4789 0.63394 0.0
H936 H 0.04901 0.56362 0.60057 0.0
C937 C -0.0085 0.49835 0.50048 0.0
C938 C 0.43176 0.46571 0.56084 0.0
C939 C 0.42608 0.46944 0.5125 0.0
H940 H 0.48235 0.47343 0.61767 0.0
C941 C 0.47039 0.48422 0.48455 0.0
H942 H 0.39879 0.45441 0.58401 0.0
C943 C 0.51872 0.49527 0.50436 0.0
C944 C 0.52431 0.49161 0.55273 0.0
H945 H 0.46772 0.48686 0.44741 0.0
H946 H 0.55208 0.50741 0.48144 0.0
C947 C 0.47983 0.47617 0.58054 0.0
loop_
_geom_bond_atom_site_label_1
_geom_bond_atom_site_label_2
_geom_bond_distance
_geom_bond_site_symmetry_2
_ccdc_geom_bond_type
Co0 O2 2.143 . S
Co0 O8 2.074 . S
Co0 O11 2.093 1_554 S
Co0 O24 2.097 . S
Co0 N41 2.151 . S
Co0 N49 2.214 1_554 S
Co1 O2 2.160 . S
Co1 O7 2.058 . S
Co1 O17 2.057 . S
Co1 O32 2.037 . S
Co1 N36 2.145 . S
Co1 N57 2.257 . S
O2 Co0 2.143 . S
O2 Co1 2.160 . S
C3 O4 1.278 . S
C3 O11 1.224 1_554 S
O4 C3 1.278 . S
C5 O6 1.245 . S
C5 O17 1.232 . S
O6 C5 1.245 . S
O7 Co1 2.058 . S
O7 C33 1.269 . S
O8 Co0 2.074 . S
O8 C33 1.257 . S
H9 C34 0.930 . S
H10 C40 0.930 . S
O11 Co0 2.093 1_556 S
O11 C3 1.224 1_556 S
H12 C44 0.929 . S
H13 C46 0.930 . S
H14 C47 0.930 . S
H15 C45 0.929 . S
H16 C48 0.928 . S
O17 Co1 2.057 . S
O17 C5 1.232 . S
H18 C37 0.929 . S
H19 C38 0.929 . S
H20 C50 0.931 . S
H21 C42 0.929 . S
H22 C51 0.930 . S
H23 C43 0.931 . S
O24 Co0 2.097 . S
O24 C52 1.215 . S
H25 C53 0.929 . S
H26 C54 0.929 1_655 S
H27 C55 0.930 1_655 S
H28 C56 0.929 . S
H29 C58 0.930 . S
H30 C35 0.930 . S
H31 C39 0.930 . S
O32 Co1 2.037 . S
O32 C52 1.234 . S
C33 O7 1.269 . S
C33 O8 1.257 . S
C34 H9 0.930 . S
C34 C37 1.388 . S
C34 C39 1.418 . S
C35 H30 0.930 . S
C35 C38 1.404 1_655 S
C35 C39 1.353 . S
N36 Co1 2.145 . S
N36 C37 1.397 1_455 S
N36 C38 1.334 . S
C37 H18 0.929 . S
C37 C34 1.388 . S
C37 N36 1.397 1_655 S
C38 H19 0.929 . S
C38 C35 1.404 1_455 S
C38 N36 1.334 . S
C39 H31 0.930 . S
C39 C34 1.418 . S
C39 C35 1.353 . S
C40 H10 0.930 . S
C40 N41 1.330 . S
C40 C42 1.446 . S
N41 Co0 2.151 . S
N41 C40 1.330 . S
N41 C45 1.418 1_554 S
C42 H21 0.929 . S
C42 C40 1.446 . S
C42 C43 1.332 1_554 S
C43 H23 0.931 . S
C43 C42 1.332 1_556 S
C43 C44 1.267 . S
C44 H12 0.929 . S
C44 C43 1.267 . S
C44 C45 1.251 . S
C45 H15 0.929 . S
C45 N41 1.418 1_556 S
C45 C44 1.251 . S
C46 H13 0.930 . S
C46 C48 1.406 . S
C46 C51 1.261 . S
C47 H14 0.930 . S
C47 N49 1.325 . S
C47 C50 1.357 . S
C48 H16 0.928 . S
C48 C46 1.406 . S
C48 N49 1.261 . S
N49 Co0 2.214 1_556 S
N49 C47 1.325 . S
N49 C48 1.261 . S
C50 H20 0.931 . S
C50 C47 1.357 . S
C50 C51 1.312 . S
C51 H22 0.930 . S
C51 C46 1.261 . S
C51 C50 1.312 . S
C52 O24 1.215 . S
C52 O32 1.234 . S
C53 H25 0.929 . S
C53 C56 1.391 . S
C53 C58 1.391 . S
C54 H26 0.929 1_455 S
C54 C55 1.390 . S
C54 N57 1.391 . S
C55 H27 0.930 1_455 S
C55 C54 1.390 . S
C55 C56 1.392 . S
C56 H28 0.929 . S
C56 C53 1.391 . S
C56 C55 1.392 . S
N57 Co1 2.257 . S
N57 C54 1.391 . S
N57 C58 1.388 . S
C58 H29 0.930 . S
C58 C53 1.391 . S
C58 N57 1.388 . S
Co59 O61 2.143 . S
Co59 O67 2.074 . S
Co59 O70 2.093 1_554 S
Co59 O83 2.097 . S
Co59 N100 2.151 . S
Co59 N108 2.214 1_554 S
Co60 O61 2.160 . S
Co60 O66 2.058 . S
Co60 O76 2.057 . S
Co60 O91 2.037 . S
Co60 N95 2.145 . S
Co60 N116 2.257 . S
O61 Co59 2.143 . S
O61 Co60 2.160 . S
C62 O63 1.278 . S
C62 O70 1.224 1_554 S
O63 C62 1.278 . S
C64 O65 1.245 . S
C64 O76 1.232 . S
O65 C64 1.245 . S
O66 Co60 2.058 . S
O66 C92 1.269 . S
O67 Co59 2.074 . S
O67 C92 1.257 . S
H68 C93 0.930 . S
H69 C99 0.930 . S
O70 Co59 2.093 1_556 S
O70 C62 1.224 1_556 S
H71 C103 0.929 . S
H72 C105 0.930 . S
H73 C106 0.930 . S
H74 C104 0.929 . S
H75 C107 0.928 . S
O76 Co60 2.057 . S
O76 C64 1.232 . S
H77 C96 0.929 . S
H78 C97 0.929 . S
H79 C109 0.931 . S
H80 C101 0.929 . S
H81 C110 0.930 . S
H82 C102 0.931 . S
O83 Co59 2.097 . S
O83 C111 1.215 . S
H84 C112 0.929 . S
H85 C113 0.929 . S
H86 C114 0.930 . S
H87 C115 0.929 . S
H88 C117 0.930 . S
H89 C94 0.930 . S
H90 C98 0.930 . S
O91 Co60 2.037 . S
O91 C111 1.234 . S
C92 O66 1.269 . S
C92 O67 1.257 . S
C93 H68 0.930 . S
C93 C96 1.388 . S
C93 C98 1.418 . S
C94 H89 0.930 . S
C94 C97 1.404 . S
C94 C98 1.353 . S
N95 Co60 2.145 . S
N95 C96 1.397 . S
N95 C97 1.334 . S
C96 H77 0.929 . S
C96 C93 1.388 . S
C96 N95 1.397 . S
C97 H78 0.929 . S
C97 C94 1.404 . S
C97 N95 1.334 . S
C98 H90 0.930 . S
C98 C93 1.418 . S
C98 C94 1.353 . S
C99 H69 0.930 . S
C99 N100 1.330 . S
C99 C101 1.446 . S
N100 Co59 2.151 . S
N100 C99 1.330 . S
N100 C104 1.418 1_554 S
C101 H80 0.929 . S
C101 C99 1.446 . S
C101 C102 1.332 1_554 S
C102 H82 0.931 . S
C102 C101 1.332 1_556 S
C102 C103 1.267 . S
C103 H71 0.929 . S
C103 C102 1.267 . S
C103 C104 1.251 . S
C104 H74 0.929 . S
C104 N100 1.418 1_556 S
C104 C103 1.251 . S
C105 H72 0.930 . S
C105 C107 1.406 . S
C105 C110 1.261 . S
C106 H73 0.930 . S
C106 N108 1.325 . S
C106 C109 1.357 . S
C107 H75 0.928 . S
C107 C105 1.406 . S
C107 N108 1.261 . S
N108 Co59 2.214 1_556 S
N108 C106 1.325 . S
N108 C107 1.261 . S
C109 H79 0.931 . S
C109 C106 1.357 . S
C109 C110 1.312 . S
C110 H81 0.930 . S
C110 C105 1.261 . S
C110 C109 1.312 . S
C111 O83 1.215 . S
C111 O91 1.234 . S
C112 H84 0.929 . S
C112 C115 1.391 . S
C112 C117 1.391 . S
C113 H85 0.929 . S
C113 C114 1.390 . S
C113 N116 1.391 . S
C114 H86 0.930 . S
C114 C113 1.390 . S
C114 C115 1.392 . S
C115 H87 0.929 . S
C115 C112 1.391 . S
C115 C114 1.392 . S
N116 Co60 2.257 . S
N116 C113 1.391 . S
N116 C117 1.388 . S
C117 H88 0.930 . S
C117 C112 1.391 . S
C117 N116 1.388 . S
Co118 O120 2.143 . S
Co118 O126 2.074 . S
Co118 O129 2.093 1_554 S
Co118 O142 2.097 . S
Co118 N159 2.151 . S
Co118 N167 2.214 1_554 S
Co119 O120 2.160 . S
Co119 O125 2.058 . S
Co119 O135 2.057 . S
Co119 O150 2.037 . S
Co119 N154 2.145 . S
Co119 N175 2.257 . S
O120 Co118 2.143 . S
O120 Co119 2.160 . S
C121 O122 1.278 . S
C121 O129 1.224 1_554 S
O122 C121 1.278 . S
C123 O124 1.245 . S
C123 O135 1.232 . S
O124 C123 1.245 . S
O125 Co119 2.058 . S
O125 C151 1.269 . S
O126 Co118 2.074 . S
O126 C151 1.257 . S
H127 C152 0.930 . S
H128 C158 0.930 . S
O129 Co118 2.093 1_556 S
O129 C121 1.224 1_556 S
H130 C162 0.929 . S
H131 C164 0.930 . S
H132 C165 0.930 . S
H133 C163 0.929 . S
H134 C166 0.928 . S
O135 Co119 2.057 . S
O135 C123 1.232 . S
H136 C155 0.929 . S
H137 C156 0.929 . S
H138 C168 0.931 . S
H139 C160 0.929 . S
H140 C169 0.930 . S
H141 C161 0.931 . S
O142 Co118 2.097 . S
O142 C170 1.215 . S
H143 C171 0.929 . S
H144 C172 0.929 1_545 S
H145 C173 0.930 1_545 S
H146 C174 0.929 . S
H147 C176 0.930 . S
H148 C153 0.930 . S
H149 C157 0.930 . S
O150 Co119 2.037 . S
O150 C170 1.234 . S
C151 O125 1.269 . S
C151 O126 1.257 . S
C152 H127 0.930 . S
C152 C155 1.388 . S
C152 C157 1.418 . S
C153 H148 0.930 . S
C153 C156 1.404 1_545 S
C153 C157 1.353 . S
N154 Co119 2.145 . S
N154 C155 1.397 1_565 S
N154 C156 1.334 . S
C155 H136 0.929 . S
C155 C152 1.388 . S
C155 N154 1.397 1_545 S
C156 H137 0.929 . S
C156 C153 1.404 1_565 S
C156 N154 1.334 . S
C157 H149 0.930 . S
C157 C152 1.418 . S
C157 C153 1.353 . S
C158 H128 0.930 . S
C158 N159 1.330 . S
C158 C160 1.446 . S
N159 Co118 2.151 . S
N159 C158 1.330 . S
N159 C163 1.418 1_554 S
C160 H139 0.929 . S
C160 C158 1.446 . S
C160 C161 1.332 1_554 S
C161 H141 0.931 . S
C161 C160 1.332 1_556 S
C161 C162 1.267 . S
C162 H130 0.929 . S
C162 C161 1.267 . S
C162 C163 1.251 . S
C163 H133 0.929 . S
C163 N159 1.418 1_556 S
C163 C162 1.251 . S
C164 H131 0.930 . S
C164 C166 1.406 . S
C164 C169 1.261 . S
C165 H132 0.930 . S
C165 N167 1.325 . S
C165 C168 1.357 . S
C166 H134 0.928 . S
C166 C164 1.406 . S
C166 N167 1.261 . S
N167 Co118 2.214 1_556 S
N167 C165 1.325 . S
N167 C166 1.261 . S
C168 H138 0.931 . S
C168 C165 1.357 . S
C168 C169 1.312 . S
C169 H140 0.930 . S
C169 C164 1.261 . S
C169 C168 1.312 . S
C170 O142 1.215 . S
C170 O150 1.234 . S
C171 H143 0.929 . S
C171 C174 1.391 . S
C171 C176 1.391 . S
C172 H144 0.929 1_565 S
C172 C173 1.390 . S
C172 N175 1.391 . S
C173 H145 0.930 1_565 S
C173 C172 1.390 . S
C173 C174 1.392 . S
C174 H146 0.929 . S
C174 C171 1.391 . S
C174 C173 1.392 . S
N175 Co119 2.257 . S
N175 C172 1.391 . S
N175 C176 1.388 . S
C176 H147 0.930 . S
C176 C171 1.391 . S
C176 N175 1.388 . S
Co177 O179 2.143 . S
Co177 O185 2.074 . S
Co177 O188 2.093 . S
Co177 O201 2.097 . S
Co177 N218 2.151 . S
Co177 N226 2.214 . S
Co178 O179 2.160 . S
Co178 O184 2.058 . S
Co178 O194 2.057 . S
Co178 O209 2.037 . S
Co178 N213 2.145 . S
Co178 N234 2.257 . S
O179 Co177 2.143 . S
O179 Co178 2.160 . S
C180 O181 1.278 . S
C180 O188 1.224 . S
O181 C180 1.278 . S
C182 O183 1.245 . S
C182 O194 1.232 . S
O183 C182 1.245 . S
O184 Co178 2.058 . S
O184 C210 1.269 . S
O185 Co177 2.074 . S
O185 C210 1.257 . S
H186 C211 0.930 . S
H187 C217 0.930 . S
O188 Co177 2.093 . S
O188 C180 1.224 . S
H189 C221 0.929 . S
H190 C223 0.930 . S
H191 C224 0.930 . S
H192 C222 0.929 . S
H193 C225 0.928 . S
O194 Co178 2.057 . S
O194 C182 1.232 . S
H195 C214 0.929 . S
H196 C215 0.929 . S
H197 C227 0.931 . S
H198 C219 0.929 . S
H199 C228 0.930 . S
H200 C220 0.931 . S
O201 Co177 2.097 . S
O201 C229 1.214 . S
H202 C230 0.929 . S
H203 C231 0.929 1_545 S
H204 C232 0.930 1_545 S
H205 C233 0.929 . S
H206 C235 0.930 . S
H207 C212 0.930 . S
H208 C216 0.930 . S
O209 Co178 2.037 . S
O209 C229 1.234 . S
C210 O184 1.269 . S
C210 O185 1.257 . S
C211 H186 0.930 . S
C211 C214 1.388 . S
C211 C216 1.418 . S
C212 H207 0.930 . S
C212 C215 1.404 1_545 S
C212 C216 1.353 . S
N213 Co178 2.145 . S
N213 C214 1.397 1_565 S
N213 C215 1.334 . S
C214 H195 0.929 . S
C214 C211 1.388 . S
C214 N213 1.397 1_545 S
C215 H196 0.929 . S
C215 C212 1.404 1_565 S
C215 N213 1.334 . S
C216 H208 0.930 . S
C216 C211 1.418 . S
C216 C212 1.353 . S
C217 H187 0.930 . S
C217 N218 1.330 . S
C217 C219 1.446 . S
N218 Co177 2.151 . S
N218 C217 1.330 . S
N218 C222 1.418 . S
C219 H198 0.929 . S
C219 C217 1.446 . S
C219 C220 1.332 . S
C220 H200 0.931 . S
C220 C219 1.332 . S
C220 C221 1.267 . S
C221 H189 0.929 . S
C221 C220 1.267 . S
C221 C222 1.251 . S
C222 H192 0.929 . S
C222 N218 1.418 . S
C222 C221 1.251 . S
C223 H190 0.930 . S
C223 C225 1.406 . S
C223 C228 1.261 . S
C224 H191 0.930 . S
C224 N226 1.325 . S
C224 C227 1.357 . S
C225 H193 0.928 . S
C225 C223 1.406 . S
C225 N226 1.261 . S
N226 Co177 2.214 . S
N226 C224 1.325 . S
N226 C225 1.261 . S
C227 H197 0.931 . S
C227 C224 1.357 . S
C227 C228 1.312 . S
C228 H199 0.930 . S
C228 C223 1.261 . S
C228 C227 1.312 . S
C229 O201 1.214 . S
C229 O209 1.234 . S
C230 H202 0.929 . S
C230 C233 1.391 . S
C230 C235 1.391 . S
C231 H203 0.929 1_565 S
C231 C232 1.390 . S
C231 N234 1.391 . S
C232 H204 0.930 1_565 S
C232 C231 1.390 . S
C232 C233 1.392 . S
C233 H205 0.929 . S
C233 C230 1.391 . S
C233 C232 1.392 . S
N234 Co178 2.257 . S
N234 C231 1.391 . S
N234 C235 1.388 . S
C235 H206 0.930 . S
C235 C230 1.391 . S
C235 N234 1.388 . S
Co236 O238 2.143 . S
Co236 O244 2.074 . S
Co236 O247 2.093 . S
Co236 O260 2.097 . S
Co236 N277 2.151 . S
Co236 N285 2.214 . S
Co237 O238 2.160 . S
Co237 O243 2.058 . S
Co237 O253 2.057 . S
Co237 O268 2.037 . S
Co237 N272 2.145 . S
Co237 N293 2.257 . S
O238 Co236 2.143 . S
O238 Co237 2.160 . S
C239 O240 1.278 . S
C239 O247 1.224 . S
O240 C239 1.278 . S
C241 O242 1.245 . S
C241 O253 1.232 . S
O242 C241 1.245 . S
O243 Co237 2.058 . S
O243 C269 1.269 . S
O244 Co236 2.074 . S
O244 C269 1.257 . S
H245 C270 0.930 . S
H246 C276 0.930 . S
O247 Co236 2.093 . S
O247 C239 1.224 . S
H248 C280 0.929 . S
H249 C282 0.930 . S
H250 C283 0.930 . S
H251 C281 0.929 . S
H252 C284 0.928 . S
O253 Co237 2.057 . S
O253 C241 1.232 . S
H254 C273 0.929 . S
H255 C274 0.929 . S
H256 C286 0.931 . S
H257 C278 0.929 . S
H258 C287 0.930 . S
H259 C279 0.931 . S
O260 Co236 2.097 . S
O260 C288 1.214 . S
H261 C289 0.929 . S
H262 C290 0.929 1_655 S
H263 C291 0.930 1_655 S
H264 C292 0.929 . S
H265 C294 0.930 . S
H266 C271 0.930 . S
H267 C275 0.930 . S
O268 Co237 2.037 . S
O268 C288 1.234 . S
C269 O243 1.269 . S
C269 O244 1.257 . S
C270 H245 0.930 . S
C270 C273 1.388 . S
C270 C275 1.418 . S
C271 H266 0.930 . S
C271 C274 1.404 1_655 S
C271 C275 1.353 . S
N272 Co237 2.145 . S
N272 C273 1.397 1_455 S
N272 C274 1.334 . S
C273 H254 0.929 . S
C273 C270 1.388 . S
C273 N272 1.397 1_655 S
C274 H255 0.929 . S
C274 C271 1.404 1_455 S
C274 N272 1.334 . S
C275 H267 0.930 . S
C275 C270 1.418 . S
C275 C271 1.353 . S
C276 H246 0.930 . S
C276 N277 1.330 . S
C276 C278 1.446 . S
N277 Co236 2.151 . S
N277 C276 1.330 . S
N277 C281 1.418 . S
C278 H257 0.929 . S
C278 C276 1.446 . S
C278 C279 1.332 . S
C279 H259 0.931 . S
C279 C278 1.332 . S
C279 C280 1.267 . S
C280 H248 0.929 . S
C280 C279 1.267 . S
C280 C281 1.251 . S
C281 H251 0.929 . S
C281 N277 1.418 . S
C281 C280 1.251 . S
C282 H249 0.930 . S
C282 C284 1.406 . S
C282 C287 1.261 . S
C283 H250 0.930 . S
C283 N285 1.325 . S
C283 C286 1.357 . S
C284 H252 0.928 . S
C284 C282 1.406 . S
C284 N285 1.261 . S
N285 Co236 2.214 . S
N285 C283 1.325 . S
N285 C284 1.261 . S
C286 H256 0.931 . S
C286 C283 1.357 . S
C286 C287 1.312 . S
C287 H258 0.930 . S
C287 C282 1.261 . S
C287 C286 1.312 . S
C288 O260 1.214 . S
C288 O268 1.234 . S
C289 H261 0.929 . S
C289 C292 1.391 . S
C289 C294 1.391 . S
C290 H262 0.929 1_455 S
C290 C291 1.390 . S
C290 N293 1.391 . S
C291 H263 0.930 1_455 S
C291 C290 1.390 . S
C291 C292 1.392 . S
C292 H264 0.929 . S
C292 C289 1.391 . S
C292 C291 1.392 . S
N293 Co237 2.257 . S
N293 C290 1.391 . S
N293 C294 1.388 . S
C294 H265 0.930 . S
C294 C289 1.391 . S
C294 N293 1.388 . S
Co295 O297 2.143 . S
Co295 O303 2.074 . S
Co295 O306 2.093 . S
Co295 O319 2.097 . S
Co295 N336 2.151 . S
Co295 N344 2.214 . S
Co296 O297 2.160 . S
Co296 O302 2.058 . S
Co296 O312 2.057 . S
Co296 O327 2.037 . S
Co296 N331 2.145 . S
Co296 N352 2.257 . S
O297 Co295 2.143 . S
O297 Co296 2.160 . S
C298 O299 1.278 . S
C298 O306 1.224 . S
O299 C298 1.278 . S
C300 O301 1.245 . S
C300 O312 1.232 . S
O301 C300 1.245 . S
O302 Co296 2.058 . S
O302 C328 1.269 . S
O303 Co295 2.074 . S
O303 C328 1.257 . S
H304 C329 0.930 . S
H305 C335 0.930 . S
O306 Co295 2.093 . S
O306 C298 1.224 . S
H307 C339 0.929 . S
H308 C341 0.930 . S
H309 C342 0.930 . S
H310 C340 0.929 . S
H311 C343 0.928 . S
O312 Co296 2.057 . S
O312 C300 1.232 . S
H313 C332 0.929 . S
H314 C333 0.929 . S
H315 C345 0.931 . S
H316 C337 0.929 . S
H317 C346 0.930 . S
H318 C338 0.931 . S
O319 Co295 2.097 . S
O319 C347 1.214 . S
H320 C348 0.929 . S
H321 C349 0.929 . S
H322 C350 0.930 . S
H323 C351 0.929 . S
H324 C353 0.930 . S
H325 C330 0.930 . S
H326 C334 0.930 . S
O327 Co296 2.037 . S
O327 C347 1.234 . S
C328 O302 1.269 . S
C328 O303 1.257 . S
C329 H304 0.930 . S
C329 C332 1.388 . S
C329 C334 1.418 . S
C330 H325 0.930 . S
C330 C333 1.404 . S
C330 C334 1.353 . S
N331 Co296 2.145 . S
N331 C332 1.397 . S
N331 C333 1.334 . S
C332 H313 0.929 . S
C332 C329 1.388 . S
C332 N331 1.397 . S
C333 H314 0.929 . S
C333 C330 1.404 . S
C333 N331 1.334 . S
C334 H326 0.930 . S
C334 C329 1.418 . S
C334 C330 1.353 . S
C335 H305 0.930 . S
C335 N336 1.330 . S
C335 C337 1.446 . S
N336 Co295 2.151 . S
N336 C335 1.330 . S
N336 C340 1.418 . S
C337 H316 0.929 . S
C337 C335 1.446 . S
C337 C338 1.332 . S
C338 H318 0.931 . S
C338 C337 1.332 . S
C338 C339 1.267 . S
C339 H307 0.929 . S
C339 C338 1.267 . S
C339 C340 1.251 . S
C340 H310 0.929 . S
C340 N336 1.418 . S
C340 C339 1.251 . S
C341 H308 0.930 . S
C341 C343 1.406 . S
C341 C346 1.261 . S
C342 H309 0.930 . S
C342 N344 1.325 . S
C342 C345 1.357 . S
C343 H311 0.928 . S
C343 C341 1.406 . S
C343 N344 1.261 . S
N344 Co295 2.214 . S
N344 C342 1.325 . S
N344 C343 1.261 . S
C345 H315 0.931 . S
C345 C342 1.357 . S
C345 C346 1.312 . S
C346 H317 0.930 . S
C346 C341 1.261 . S
C346 C345 1.312 . S
C347 O319 1.214 . S
C347 O327 1.234 . S
C348 H320 0.929 . S
C348 C351 1.391 . S
C348 C353 1.391 . S
C349 H321 0.929 . S
C349 C350 1.390 . S
C349 N352 1.391 . S
C350 H322 0.930 . S
C350 C349 1.390 . S
C350 C351 1.392 . S
C351 H323 0.929 . S
C351 C348 1.391 . S
C351 C350 1.392 . S
N352 Co296 2.257 . S
N352 C349 1.391 . S
N352 C353 1.388 . S
C353 H324 0.930 . S
C353 C348 1.391 . S
C353 N352 1.388 . S
Co354 O356 2.143 . S
Co354 O362 2.074 . S
Co354 O365 2.093 1_556 S
Co354 O378 2.097 . S
Co354 N395 2.151 . S
Co354 N403 2.214 1_556 S
Co355 O356 2.160 . S
Co355 O361 2.058 . S
Co355 O371 2.057 . S
Co355 O386 2.037 . S
Co355 N390 2.145 . S
Co355 N411 2.257 . S
O356 Co354 2.143 . S
O356 Co355 2.160 . S
C357 O358 1.278 . S
C357 O365 1.224 1_556 S
O358 C357 1.278 . S
C359 O360 1.245 . S
C359 O371 1.232 . S
O360 C359 1.245 . S
O361 Co355 2.058 . S
O361 C387 1.269 . S
O362 Co354 2.074 . S
O362 C387 1.257 . S
H363 C388 0.930 . S
H364 C394 0.930 . S
O365 Co354 2.093 1_554 S
O365 C357 1.224 1_554 S
H366 C398 0.929 . S
H367 C400 0.930 . S
H368 C401 0.930 . S
H369 C399 0.929 . S
H370 C402 0.928 . S
O371 Co355 2.057 . S
O371 C359 1.232 . S
H372 C391 0.929 . S
H373 C392 0.929 . S
H374 C404 0.931 . S
H375 C396 0.929 . S
H376 C405 0.930 . S
H377 C397 0.931 . S
O378 Co354 2.097 . S
O378 C406 1.215 . S
H379 C407 0.929 . S
H380 C408 0.929 1_455 S
H381 C409 0.930 1_455 S
H382 C410 0.929 . S
H383 C412 0.930 . S
H384 C389 0.930 . S
H385 C393 0.930 . S
O386 Co355 2.037 . S
O386 C406 1.234 . S
C387 O361 1.269 . S
C387 O362 1.257 . S
C388 H363 0.930 . S
C388 C391 1.388 . S
C388 C393 1.418 . S
C389 H384 0.930 . S
C389 C392 1.404 1_455 S
C389 C393 1.353 . S
N390 Co355 2.145 . S
N390 C391 1.397 1_655 S
N390 C392 1.334 . S
C391 H372 0.929 . S
C391 C388 1.388 . S
C391 N390 1.397 1_455 S
C392 H373 0.929 . S
C392 C389 1.404 1_655 S
C392 N390 1.334 . S
C393 H385 0.930 . S
C393 C388 1.418 . S
C393 C389 1.353 . S
C394 H364 0.930 . S
C394 N395 1.330 . S
C394 C396 1.446 . S
N395 Co354 2.151 . S
N395 C394 1.330 . S
N395 C399 1.418 1_556 S
C396 H375 0.929 . S
C396 C394 1.446 . S
C396 C397 1.332 1_556 S
C397 H377 0.931 . S
C397 C396 1.332 1_554 S
C397 C398 1.267 . S
C398 H366 0.929 . S
C398 C397 1.267 . S
C398 C399 1.251 . S
C399 H369 0.929 . S
C399 N395 1.418 1_554 S
C399 C398 1.251 . S
C400 H367 0.930 . S
C400 C402 1.406 . S
C400 C405 1.261 . S
C401 H368 0.930 . S
C401 N403 1.325 . S
C401 C404 1.357 . S
C402 H370 0.928 . S
C402 C400 1.406 . S
C402 N403 1.261 . S
N403 Co354 2.214 1_554 S
N403 C401 1.325 . S
N403 C402 1.261 . S
C404 H374 0.931 . S
C404 C401 1.357 . S
C404 C405 1.312 . S
C405 H376 0.930 . S
C405 C400 1.261 . S
C405 C404 1.312 . S
C406 O378 1.215 . S
C406 O386 1.234 . S
C407 H379 0.929 . S
C407 C410 1.391 . S
C407 C412 1.391 . S
C408 H380 0.929 1_655 S
C408 C409 1.390 . S
C408 N411 1.391 . S
C409 H381 0.930 1_655 S
C409 C408 1.390 . S
C409 C410 1.392 . S
C410 H382 0.929 . S
C410 C407 1.391 . S
C410 C409 1.392 . S
N411 Co355 2.257 . S
N411 C408 1.391 . S
N411 C412 1.388 . S
C412 H383 0.930 . S
C412 C407 1.391 . S
C412 N411 1.388 . S
Co413 O415 2.143 . S
Co413 O421 2.074 . S
Co413 O424 2.093 1_556 S
Co413 O437 2.097 . S
Co413 N454 2.151 . S
Co413 N462 2.214 1_556 S
Co414 O415 2.160 . S
Co414 O420 2.058 . S
Co414 O430 2.057 . S
Co414 O445 2.037 . S
Co414 N449 2.145 . S
Co414 N470 2.257 . S
O415 Co413 2.143 . S
O415 Co414 2.160 . S
C416 O417 1.278 . S
C416 O424 1.224 1_556 S
O417 C416 1.278 . S
C418 O419 1.245 . S
C418 O430 1.232 . S
O419 C418 1.245 . S
O420 Co414 2.058 . S
O420 C446 1.269 . S
O421 Co413 2.074 . S
O421 C446 1.257 . S
H422 C447 0.930 . S
H423 C453 0.930 . S
O424 Co413 2.093 1_554 S
O424 C416 1.224 1_554 S
H425 C457 0.929 . S
H426 C459 0.930 . S
H427 C460 0.930 . S
H428 C458 0.929 . S
H429 C461 0.928 . S
O430 Co414 2.057 . S
O430 C418 1.232 . S
H431 C450 0.929 . S
H432 C451 0.929 . S
H433 C463 0.931 . S
H434 C455 0.929 . S
H435 C464 0.930 . S
H436 C456 0.931 . S
O437 Co413 2.097 . S
O437 C465 1.215 . S
H438 C466 0.929 . S
H439 C467 0.929 . S
H440 C468 0.930 . S
H441 C469 0.929 . S
H442 C471 0.930 . S
H443 C448 0.930 . S
H444 C452 0.930 . S
O445 Co414 2.037 . S
O445 C465 1.234 . S
C446 O420 1.269 . S
C446 O421 1.257 . S
C447 H422 0.930 . S
C447 C450 1.388 . S
C447 C452 1.418 . S
C448 H443 0.930 . S
C448 C451 1.404 . S
C448 C452 1.353 . S
N449 Co414 2.145 . S
N449 C450 1.397 . S
N449 C451 1.334 . S
C450 H431 0.929 . S
C450 C447 1.388 . S
C450 N449 1.397 . S
C451 H432 0.929 . S
C451 C448 1.404 . S
C451 N449 1.334 . S
C452 H444 0.930 . S
C452 C447 1.418 . S
C452 C448 1.353 . S
C453 H423 0.930 . S
C453 N454 1.330 . S
C453 C455 1.446 . S
N454 Co413 2.151 . S
N454 C453 1.330 . S
N454 C458 1.418 1_556 S
C455 H434 0.929 . S
C455 C453 1.446 . S
C455 C456 1.332 1_556 S
C456 H436 0.931 . S
C456 C455 1.332 1_554 S
C456 C457 1.267 . S
C457 H425 0.929 . S
C457 C456 1.267 . S
C457 C458 1.251 . S
C458 H428 0.929 . S
C458 N454 1.418 1_554 S
C458 C457 1.251 . S
C459 H426 0.930 . S
C459 C461 1.406 . S
C459 C464 1.261 . S
C460 H427 0.930 . S
C460 N462 1.325 . S
C460 C463 1.357 . S
C461 H429 0.928 . S
C461 C459 1.406 . S
C461 N462 1.261 . S
N462 Co413 2.214 1_554 S
N462 C460 1.325 . S
N462 C461 1.261 . S
C463 H433 0.931 . S
C463 C460 1.357 . S
C463 C464 1.312 . S
C464 H435 0.930 . S
C464 C459 1.261 . S
C464 C463 1.312 . S
C465 O437 1.215 . S
C465 O445 1.234 . S
C466 H438 0.929 . S
C466 C469 1.391 . S
C466 C471 1.391 . S
C467 H439 0.929 . S
C467 C468 1.390 . S
C467 N470 1.391 . S
C468 H440 0.930 . S
C468 C467 1.390 . S
C468 C469 1.392 . S
C469 H441 0.929 . S
C469 C466 1.391 . S
C469 C468 1.392 . S
N470 Co414 2.257 . S
N470 C467 1.391 . S
N470 C471 1.388 . S
C471 H442 0.930 . S
C471 C466 1.391 . S
C471 N470 1.388 . S
Co472 O474 2.143 . S
Co472 O480 2.074 . S
Co472 O483 2.093 1_556 S
Co472 O496 2.097 . S
Co472 N513 2.151 . S
Co472 N521 2.214 1_556 S
Co473 O474 2.160 . S
Co473 O479 2.058 . S
Co473 O489 2.057 . S
Co473 O504 2.037 . S
Co473 N508 2.145 . S
Co473 N529 2.257 . S
O474 Co472 2.143 . S
O474 Co473 2.160 . S
C475 O476 1.278 . S
C475 O483 1.224 1_556 S
O476 C475 1.278 . S
C477 O478 1.245 . S
C477 O489 1.232 . S
O478 C477 1.245 . S
O479 Co473 2.058 . S
O479 C505 1.269 . S
O480 Co472 2.074 . S
O480 C505 1.257 . S
H481 C506 0.930 . S
H482 C512 0.930 . S
O483 Co472 2.093 1_554 S
O483 C475 1.224 1_554 S
H484 C516 0.929 . S
H485 C518 0.930 . S
H486 C519 0.930 . S
H487 C517 0.929 . S
H488 C520 0.928 . S
O489 Co473 2.057 . S
O489 C477 1.232 . S
H490 C509 0.929 . S
H491 C510 0.929 . S
H492 C522 0.931 . S
H493 C514 0.929 . S
H494 C523 0.930 . S
H495 C515 0.931 . S
O496 Co472 2.097 . S
O496 C524 1.215 . S
H497 C525 0.929 . S
H498 C526 0.929 1_565 S
H499 C527 0.930 1_565 S
H500 C528 0.929 . S
H501 C530 0.930 . S
H502 C507 0.930 . S
H503 C511 0.930 . S
O504 Co473 2.037 . S
O504 C524 1.234 . S
C505 O479 1.269 . S
C505 O480 1.257 . S
C506 H481 0.930 . S
C506 C509 1.388 . S
C506 C511 1.418 . S
C507 H502 0.930 . S
C507 C510 1.404 1_565 S
C507 C511 1.353 . S
N508 Co473 2.145 . S
N508 C509 1.397 1_545 S
N508 C510 1.334 . S
C509 H490 0.929 . S
C509 C506 1.388 . S
C509 N508 1.397 1_565 S
C510 H491 0.929 . S
C510 C507 1.404 1_545 S
C510 N508 1.334 . S
C511 H503 0.930 . S
C511 C506 1.418 . S
C511 C507 1.353 . S
C512 H482 0.930 . S
C512 N513 1.330 . S
C512 C514 1.446 . S
N513 Co472 2.151 . S
N513 C512 1.330 . S
N513 C517 1.418 1_556 S
C514 H493 0.929 . S
C514 C512 1.446 . S
C514 C515 1.332 1_556 S
C515 H495 0.931 . S
C515 C514 1.332 1_554 S
C515 C516 1.267 . S
C516 H484 0.929 . S
C516 C515 1.267 . S
C516 C517 1.251 . S
C517 H487 0.929 . S
C517 N513 1.418 1_554 S
C517 C516 1.251 . S
C518 H485 0.930 . S
C518 C520 1.406 . S
C518 C523 1.261 . S
C519 H486 0.930 . S
C519 N521 1.325 . S
C519 C522 1.357 . S
C520 H488 0.928 . S
C520 C518 1.406 . S
C520 N521 1.261 . S
N521 Co472 2.214 1_554 S
N521 C519 1.325 . S
N521 C520 1.261 . S
C522 H492 0.931 . S
C522 C519 1.357 . S
C522 C523 1.312 . S
C523 H494 0.930 . S
C523 C518 1.261 . S
C523 C522 1.312 . S
C524 O496 1.215 . S
C524 O504 1.234 . S
C525 H497 0.929 . S
C525 C528 1.391 . S
C525 C530 1.391 . S
C526 H498 0.929 1_545 S
C526 C527 1.390 . S
C526 N529 1.391 . S
C527 H499 0.930 1_545 S
C527 C526 1.390 . S
C527 C528 1.392 . S
C528 H500 0.929 . S
C528 C525 1.391 . S
C528 C527 1.392 . S
N529 Co473 2.257 . S
N529 C526 1.391 . S
N529 C530 1.388 . S
C530 H501 0.930 . S
C530 C525 1.391 . S
C530 N529 1.388 . S
Co531 O533 2.143 . S
Co531 O539 2.074 . S
Co531 O542 2.093 . S
Co531 O555 2.097 . S
Co531 N572 2.151 . S
Co531 N580 2.214 . S
Co532 O533 2.160 . S
Co532 O538 2.058 . S
Co532 O548 2.057 . S
Co532 O563 2.037 . S
Co532 N567 2.145 . S
Co532 N588 2.257 . S
O533 Co531 2.143 . S
O533 Co532 2.160 . S
C534 O535 1.278 . S
C534 O542 1.224 . S
O535 C534 1.278 . S
C536 O537 1.245 . S
C536 O548 1.232 . S
O537 C536 1.245 . S
O538 Co532 2.058 . S
O538 C564 1.269 . S
O539 Co531 2.074 . S
O539 C564 1.257 . S
H540 C565 0.930 . S
H541 C571 0.930 . S
O542 Co531 2.093 . S
O542 C534 1.224 . S
H543 C575 0.929 . S
H544 C577 0.930 . S
H545 C578 0.930 . S
H546 C576 0.929 . S
H547 C579 0.928 . S
O548 Co532 2.057 . S
O548 C536 1.232 . S
H549 C568 0.929 . S
H550 C569 0.929 . S
H551 C581 0.931 . S
H552 C573 0.929 . S
H553 C582 0.930 . S
H554 C574 0.931 . S
O555 Co531 2.097 . S
O555 C583 1.214 . S
H556 C584 0.929 . S
H557 C585 0.929 1_565 S
H558 C586 0.930 1_565 S
H559 C587 0.929 . S
H560 C589 0.930 . S
H561 C566 0.930 . S
H562 C570 0.930 . S
O563 Co532 2.037 . S
O563 C583 1.234 . S
C564 O538 1.269 . S
C564 O539 1.257 . S
C565 H540 0.930 . S
C565 C568 1.388 . S
C565 C570 1.418 . S
C566 H561 0.930 . S
C566 C569 1.404 1_565 S
C566 C570 1.353 . S
N567 Co532 2.145 . S
N567 C568 1.397 1_545 S
N567 C569 1.334 . S
C568 H549 0.929 . S
C568 C565 1.388 . S
C568 N567 1.397 1_565 S
C569 H550 0.929 . S
C569 C566 1.404 1_545 S
C569 N567 1.334 . S
C570 H562 0.930 . S
C570 C565 1.418 . S
C570 C566 1.353 . S
C571 H541 0.930 . S
C571 N572 1.330 . S
C571 C573 1.446 . S
N572 Co531 2.151 . S
N572 C571 1.330 . S
N572 C576 1.418 . S
C573 H552 0.929 . S
C573 C571 1.446 . S
C573 C574 1.332 . S
C574 H554 0.931 . S
C574 C573 1.332 . S
C574 C575 1.267 . S
C575 H543 0.929 . S
C575 C574 1.267 . S
C575 C576 1.251 . S
C576 H546 0.929 . S
C576 N572 1.418 . S
C576 C575 1.251 . S
C577 H544 0.930 . S
C577 C579 1.406 . S
C577 C582 1.261 . S
C578 H545 0.930 . S
C578 N580 1.325 . S
C578 C581 1.357 . S
C579 H547 0.928 . S
C579 C577 1.406 . S
C579 N580 1.261 . S
N580 Co531 2.214 . S
N580 C578 1.325 . S
N580 C579 1.261 . S
C581 H551 0.931 . S
C581 C578 1.357 . S
C581 C582 1.312 . S
C582 H553 0.930 . S
C582 C577 1.261 . S
C582 C581 1.312 . S
C583 O555 1.214 . S
C583 O563 1.234 . S
C584 H556 0.929 . S
C584 C587 1.391 . S
C584 C589 1.391 . S
C585 H557 0.929 1_545 S
C585 C586 1.390 . S
C585 N588 1.391 . S
C586 H558 0.930 1_545 S
C586 C585 1.390 . S
C586 C587 1.392 . S
C587 H559 0.929 . S
C587 C584 1.391 . S
C587 C586 1.392 . S
N588 Co532 2.257 . S
N588 C585 1.391 . S
N588 C589 1.388 . S
C589 H560 0.930 . S
C589 C584 1.391 . S
C589 N588 1.388 . S
Co590 O592 2.143 . S
Co590 O598 2.074 . S
Co590 O601 2.093 . S
Co590 O614 2.097 . S
Co590 N631 2.151 . S
Co590 N639 2.214 . S
Co591 O592 2.160 . S
Co591 O597 2.058 . S
Co591 O607 2.057 . S
Co591 O622 2.037 . S
Co591 N626 2.145 . S
Co591 N647 2.257 . S
O592 Co590 2.143 . S
O592 Co591 2.160 . S
C593 O594 1.278 . S
C593 O601 1.224 . S
O594 C593 1.278 . S
C595 O596 1.245 . S
C595 O607 1.232 . S
O596 C595 1.245 . S
O597 Co591 2.058 . S
O597 C623 1.269 . S
O598 Co590 2.074 . S
O598 C623 1.257 . S
H599 C624 0.930 . S
H600 C630 0.930 . S
O601 Co590 2.093 . S
O601 C593 1.224 . S
H602 C634 0.929 . S
H603 C636 0.930 . S
H604 C637 0.930 . S
H605 C635 0.929 . S
H606 C638 0.928 . S
O607 Co591 2.057 . S
O607 C595 1.232 . S
H608 C627 0.929 . S
H609 C628 0.929 . S
H610 C640 0.931 . S
H611 C632 0.929 . S
H612 C641 0.930 . S
H613 C633 0.931 . S
O614 Co590 2.097 . S
O614 C642 1.214 . S
H615 C643 0.929 . S
H616 C644 0.929 1_455 S
H617 C645 0.930 1_455 S
H618 C646 0.929 . S
H619 C648 0.930 . S
H620 C625 0.930 . S
H621 C629 0.930 . S
O622 Co591 2.037 . S
O622 C642 1.234 . S
C623 O597 1.269 . S
C623 O598 1.257 . S
C624 H599 0.930 . S
C624 C627 1.388 . S
C624 C629 1.418 . S
C625 H620 0.930 . S
C625 C628 1.404 1_455 S
C625 C629 1.353 . S
N626 Co591 2.145 . S
N626 C627 1.397 1_655 S
N626 C628 1.334 . S
C627 H608 0.929 . S
C627 C624 1.388 . S
C627 N626 1.397 1_455 S
C628 H609 0.929 . S
C628 C625 1.404 1_655 S
C628 N626 1.334 . S
C629 H621 0.930 . S
C629 C624 1.418 . S
C629 C625 1.353 . S
C630 H600 0.930 . S
C630 N631 1.330 . S
C630 C632 1.446 . S
N631 Co590 2.151 . S
N631 C630 1.330 . S
N631 C635 1.418 . S
C632 H611 0.929 . S
C632 C630 1.446 . S
C632 C633 1.332 . S
C633 H613 0.931 . S
C633 C632 1.332 . S
C633 C634 1.267 . S
C634 H602 0.929 . S
C634 C633 1.267 . S
C634 C635 1.251 . S
C635 H605 0.929 . S
C635 N631 1.418 . S
C635 C634 1.251 . S
C636 H603 0.930 . S
C636 C638 1.406 . S
C636 C641 1.261 . S
C637 H604 0.930 . S
C637 N639 1.325 . S
C637 C640 1.357 . S
C638 H606 0.928 . S
C638 C636 1.406 . S
C638 N639 1.261 . S
N639 Co590 2.214 . S
N639 C637 1.325 . S
N639 C638 1.261 . S
C640 H610 0.931 . S
C640 C637 1.357 . S
C640 C641 1.312 . S
C641 H612 0.930 . S
C641 C636 1.261 . S
C641 C640 1.312 . S
C642 O614 1.214 . S
C642 O622 1.234 . S
C643 H615 0.929 . S
C643 C646 1.391 . S
C643 C648 1.391 . S
C644 H616 0.929 1_655 S
C644 C645 1.390 . S
C644 N647 1.391 . S
C645 H617 0.930 1_655 S
C645 C644 1.390 . S
C645 C646 1.392 . S
C646 H618 0.929 . S
C646 C643 1.391 . S
C646 C645 1.392 . S
N647 Co591 2.257 . S
N647 C644 1.391 . S
N647 C648 1.388 . S
C648 H619 0.930 . S
C648 C643 1.391 . S
C648 N647 1.388 . S
Co649 O651 2.143 . S
Co649 O657 2.074 . S
Co649 O660 2.093 . S
Co649 O673 2.097 . S
Co649 N690 2.151 . S
Co649 N698 2.214 . S
Co650 O651 2.160 . S
Co650 O656 2.058 . S
Co650 O666 2.057 . S
Co650 O681 2.037 . S
Co650 N685 2.145 . S
Co650 N706 2.257 . S
O651 Co649 2.143 . S
O651 Co650 2.160 . S
C652 O653 1.278 . S
C652 O660 1.224 . S
O653 C652 1.278 . S
C654 O655 1.245 . S
C654 O666 1.232 . S
O655 C654 1.245 . S
O656 Co650 2.058 . S
O656 C682 1.269 . S
O657 Co649 2.074 . S
O657 C682 1.257 . S
H658 C683 0.930 . S
H659 C689 0.930 . S
O660 Co649 2.093 . S
O660 C652 1.224 . S
H661 C693 0.929 . S
H662 C695 0.930 . S
H663 C696 0.930 . S
H664 C694 0.929 . S
H665 C697 0.928 . S
O666 Co650 2.057 . S
O666 C654 1.232 . S
H667 C686 0.929 . S
H668 C687 0.929 . S
H669 C699 0.931 . S
H670 C691 0.929 . S
H671 C700 0.930 . S
H672 C692 0.931 . S
O673 Co649 2.097 . S
O673 C701 1.214 . S
H674 C702 0.929 . S
H675 C703 0.929 . S
H676 C704 0.930 . S
H677 C705 0.929 . S
H678 C707 0.930 . S
H679 C684 0.930 . S
H680 C688 0.930 . S
O681 Co650 2.037 . S
O681 C701 1.234 . S
C682 O656 1.269 . S
C682 O657 1.257 . S
C683 H658 0.930 . S
C683 C686 1.388 . S
C683 C688 1.418 . S
C684 H679 0.930 . S
C684 C687 1.404 . S
C684 C688 1.353 . S
N685 Co650 2.145 . S
N685 C686 1.397 . S
N685 C687 1.334 . S
C686 H667 0.929 . S
C686 C683 1.388 . S
C686 N685 1.397 . S
C687 H668 0.929 . S
C687 C684 1.404 . S
C687 N685 1.334 . S
C688 H680 0.930 . S
C688 C683 1.418 . S
C688 C684 1.353 . S
C689 H659 0.930 . S
C689 N690 1.330 . S
C689 C691 1.446 . S
N690 Co649 2.151 . S
N690 C689 1.330 . S
N690 C694 1.418 . S
C691 H670 0.929 . S
C691 C689 1.446 . S
C691 C692 1.332 . S
C692 H672 0.931 . S
C692 C691 1.332 . S
C692 C693 1.267 . S
C693 H661 0.929 . S
C693 C692 1.267 . S
C693 C694 1.251 . S
C694 H664 0.929 . S
C694 N690 1.418 . S
C694 C693 1.251 . S
C695 H662 0.930 . S
C695 C697 1.406 . S
C695 C700 1.261 . S
C696 H663 0.930 . S
C696 N698 1.325 . S
C696 C699 1.357 . S
C697 H665 0.928 . S
C697 C695 1.406 . S
C697 N698 1.261 . S
N698 Co649 2.214 . S
N698 C696 1.325 . S
N698 C697 1.261 . S
C699 H669 0.931 . S
C699 C696 1.357 . S
C699 C700 1.312 . S
C700 H671 0.930 . S
C700 C695 1.261 . S
C700 C699 1.312 . S
C701 O673 1.214 . S
C701 O681 1.234 . S
C702 H674 0.929 . S
C702 C705 1.391 . S
C702 C707 1.391 . S
C703 H675 0.929 . S
C703 C704 1.390 . S
C703 N706 1.391 . S
C704 H676 0.930 . S
C704 C703 1.390 . S
C704 C705 1.392 . S
C705 H677 0.929 . S
C705 C702 1.391 . S
C705 C704 1.392 . S
N706 Co650 2.257 . S
N706 C703 1.391 . S
N706 C707 1.388 . S
C707 H678 0.930 . S
C707 C702 1.391 . S
C707 N706 1.388 . S
C708 C709 1.387 . S
C708 H712 0.950 . S
C708 C717 1.390 . S
C709 C708 1.387 . S
C709 C711 1.387 1_554 S
H710 C717 0.950 . S
C711 C709 1.387 1_556 S
C711 C713 1.390 . S
C711 H715 0.950 . S
H712 C708 0.950 . S
C713 C711 1.390 . S
C713 C714 1.387 . S
C713 H716 0.950 . S
C714 C713 1.387 . S
C714 C717 1.387 1_556 S
H715 C711 0.950 . S
H716 C713 0.950 . S
C717 C708 1.390 . S
C717 H710 0.950 . S
C717 C714 1.387 1_554 S
C718 C719 1.387 . S
C718 H722 0.950 . S
C718 C727 1.390 . S
C719 C718 1.387 . S
C719 C721 1.387 1_554 S
H720 C727 0.950 . S
C721 C719 1.387 1_556 S
C721 C723 1.390 . S
C721 H725 0.950 . S
H722 C718 0.950 . S
C723 C721 1.390 . S
C723 C724 1.387 . S
C723 H726 0.950 . S
C724 C723 1.387 . S
C724 C727 1.387 1_556 S
H725 C721 0.950 . S
H726 C723 0.950 . S
C727 C718 1.390 . S
C727 H720 0.950 . S
C727 C724 1.387 1_554 S
C728 C729 1.387 . S
C728 H732 0.950 . S
C728 C737 1.390 . S
C729 C728 1.387 . S
C729 C731 1.387 1_554 S
H730 C737 0.950 . S
C731 C729 1.387 1_556 S
C731 C733 1.390 . S
C731 H735 0.950 . S
H732 C728 0.950 . S
C733 C731 1.390 . S
C733 C734 1.387 . S
C733 H736 0.950 . S
C734 C733 1.387 . S
C734 C737 1.387 1_556 S
H735 C731 0.950 . S
H736 C733 0.950 . S
C737 C728 1.390 . S
C737 H730 0.950 . S
C737 C734 1.387 1_554 S
C738 C739 1.387 . S
C738 H742 0.950 . S
C738 C747 1.390 . S
C739 C738 1.387 . S
C739 C741 1.387 . S
H740 C747 0.950 . S
C741 C739 1.387 . S
C741 C743 1.390 . S
C741 H745 0.950 . S
H742 C738 0.950 . S
C743 C741 1.390 . S
C743 C744 1.387 . S
C743 H746 0.950 . S
C744 C743 1.387 . S
C744 C747 1.387 . S
H745 C741 0.950 . S
H746 C743 0.950 . S
C747 C738 1.390 . S
C747 H740 0.950 . S
C747 C744 1.387 . S
C748 C749 1.387 . S
C748 H752 0.950 . S
C748 C757 1.390 . S
C749 C748 1.387 . S
C749 C751 1.387 . S
H750 C757 0.950 . S
C751 C749 1.387 . S
C751 C753 1.390 . S
C751 H755 0.950 . S
H752 C748 0.950 . S
C753 C751 1.390 . S
C753 C754 1.387 . S
C753 H756 0.950 . S
C754 C753 1.387 . S
C754 C757 1.387 . S
H755 C751 0.950 . S
H756 C753 0.950 . S
C757 C748 1.390 . S
C757 H750 0.950 . S
C757 C754 1.387 . S
C758 C759 1.387 . S
C758 H762 0.950 . S
C758 C767 1.390 . S
C759 C758 1.387 . S
C759 C761 1.387 . S
H760 C767 0.950 . S
C761 C759 1.387 . S
C761 C763 1.390 . S
C761 H765 0.950 . S
H762 C758 0.950 . S
C763 C761 1.390 . S
C763 C764 1.387 . S
C763 H766 0.950 . S
C764 C763 1.387 . S
C764 C767 1.387 . S
H765 C761 0.950 . S
H766 C763 0.950 . S
C767 C758 1.390 . S
C767 H760 0.950 . S
C767 C764 1.387 . S
C768 C769 1.387 . S
C768 H772 0.950 . S
C768 C777 1.390 . S
C769 C768 1.387 . S
C769 C771 1.387 1_554 S
H770 C777 0.950 . S
C771 C769 1.387 1_556 S
C771 C773 1.390 . S
C771 H775 0.950 . S
H772 C768 0.950 . S
C773 C771 1.390 . S
C773 C774 1.387 . S
C773 H776 0.950 . S
C774 C773 1.387 . S
C774 C777 1.387 1_556 S
H775 C771 0.950 . S
H776 C773 0.950 . S
C777 C768 1.390 . S
C777 H770 0.950 . S
C777 C774 1.387 1_554 S
C778 C779 1.387 1_554 S
C778 H782 0.950 . S
C778 C787 1.390 . S
C779 C778 1.387 1_556 S
C779 C781 1.387 . S
H780 C787 0.950 . S
C781 C779 1.387 . S
C781 C783 1.390 . S
C781 H785 0.950 . S
H782 C778 0.950 . S
C783 C781 1.390 . S
C783 C784 1.387 1_556 S
C783 H786 0.950 . S
C784 C783 1.387 1_554 S
C784 C787 1.387 . S
H785 C781 0.950 . S
H786 C783 0.950 . S
C787 C778 1.390 . S
C787 H780 0.950 . S
C787 C784 1.387 . S
C788 C789 1.387 1_556 S
C788 H792 0.950 . S
C788 C797 1.390 . S
C789 C788 1.387 1_554 S
C789 C791 1.387 . S
H790 C797 0.950 . S
C791 C789 1.387 . S
C791 C793 1.390 . S
C791 H795 0.950 . S
H792 C788 0.950 . S
C793 C791 1.390 . S
C793 C794 1.387 1_554 S
C793 H796 0.950 . S
C794 C793 1.387 1_556 S
C794 C797 1.387 . S
H795 C791 0.950 . S
H796 C793 0.950 . S
C797 C788 1.390 . S
C797 H790 0.950 . S
C797 C794 1.387 . S
C798 C799 1.387 . S
C798 H802 0.950 . S
C798 C807 1.390 . S
C799 C798 1.387 . S
C799 C801 1.387 . S
H800 C807 0.950 . S
C801 C799 1.387 . S
C801 C803 1.390 . S
C801 H805 0.950 . S
H802 C798 0.950 . S
C803 C801 1.390 . S
C803 C804 1.387 . S
C803 H806 0.950 . S
C804 C803 1.387 . S
C804 C807 1.387 . S
H805 C801 0.950 . S
H806 C803 0.950 . S
C807 C798 1.390 . S
C807 H800 0.950 . S
C807 C804 1.387 . S
C808 C809 1.387 . S
C808 H812 0.950 . S
C808 C817 1.390 . S
C809 C808 1.387 . S
C809 C811 1.387 . S
H810 C817 0.950 . S
C811 C809 1.387 . S
C811 C813 1.390 . S
C811 H815 0.950 . S
H812 C808 0.950 . S
C813 C811 1.390 . S
C813 C814 1.387 . S
C813 H816 0.950 . S
C814 C813 1.387 . S
C814 C817 1.387 . S
H815 C811 0.950 . S
H816 C813 0.950 . S
C817 C808 1.390 . S
C817 H810 0.950 . S
C817 C814 1.387 . S
C818 C819 1.387 . S
C818 H822 0.950 . S
C818 C827 1.390 . S
C819 C818 1.387 . S
C819 C821 1.387 . S
H820 C827 0.950 . S
C821 C819 1.387 . S
C821 C823 1.390 . S
C821 H825 0.950 . S
H822 C818 0.950 . S
C823 C821 1.390 . S
C823 C824 1.387 . S
C823 H826 0.950 . S
C824 C823 1.387 . S
C824 C827 1.387 . S
H825 C821 0.950 . S
H826 C823 0.950 . S
C827 C818 1.390 . S
C827 H820 0.950 . S
C827 C824 1.387 . S
C828 C829 1.387 . S
C828 H832 0.950 . S
C828 C837 1.390 . S
C829 C828 1.387 . S
C829 C831 1.387 . S
H830 C837 0.950 . S
C831 C829 1.387 . S
C831 C833 1.390 . S
C831 H835 0.950 . S
H832 C828 0.950 . S
C833 C831 1.390 . S
C833 C834 1.387 . S
C833 H836 0.950 . S
C834 C833 1.387 . S
C834 C837 1.387 . S
H835 C831 0.950 . S
H836 C833 0.950 . S
C837 C828 1.390 . S
C837 H830 0.950 . S
C837 C834 1.387 . S
C838 C839 1.387 . S
C838 H842 0.950 . S
C838 C847 1.390 . S
C839 C838 1.387 . S
C839 C841 1.387 . S
H840 C847 0.950 . S
C841 C839 1.387 . S
C841 C843 1.390 . S
C841 H845 0.950 . S
H842 C838 0.950 . S
C843 C841 1.390 . S
C843 C844 1.387 . S
C843 H846 0.950 . S
C844 C843 1.387 . S
C844 C847 1.387 . S
H845 C841 0.950 . S
H846 C843 0.950 . S
C847 C838 1.390 . S
C847 H840 0.950 . S
C847 C844 1.387 . S
C848 C849 1.387 . S
C848 H852 0.950 . S
C848 C857 1.390 . S
C849 C848 1.387 . S
C849 C851 1.387 . S
H850 C857 0.950 . S
C851 C849 1.387 . S
C851 C853 1.390 . S
C851 H855 0.950 . S
H852 C848 0.950 . S
C853 C851 1.390 . S
C853 C854 1.387 . S
C853 H856 0.950 . S
C854 C853 1.387 . S
C854 C857 1.387 . S
H855 C851 0.950 . S
H856 C853 0.950 . S
C857 C848 1.390 . S
C857 H850 0.950 . S
C857 C854 1.387 . S
C858 C859 1.387 . S
C858 H862 0.950 . S
C858 C867 1.390 . S
C859 C858 1.387 . S
C859 C861 1.387 . S
H860 C867 0.950 . S
C861 C859 1.387 . S
C861 C863 1.390 . S
C861 H865 0.950 . S
H862 C858 0.950 . S
C863 C861 1.390 . S
C863 C864 1.387 . S
C863 H866 0.950 . S
C864 C863 1.387 . S
C864 C867 1.387 . S
H865 C861 0.950 . S
H866 C863 0.950 . S
C867 C858 1.390 . S
C867 H860 0.950 . S
C867 C864 1.387 . S
C868 C869 1.387 . S
C868 H872 0.950 . S
C868 C877 1.390 . S
C869 C868 1.387 . S
C869 C871 1.387 . S
H870 C877 0.950 . S
C871 C869 1.387 . S
C871 C873 1.390 . S
C871 H875 0.950 . S
H872 C868 0.950 . S
C873 C871 1.390 . S
C873 C874 1.387 . S
C873 H876 0.950 . S
C874 C873 1.387 . S
C874 C877 1.387 . S
H875 C871 0.950 . S
H876 C873 0.950 . S
C877 C868 1.390 . S
C877 H870 0.950 . S
C877 C874 1.387 . S
C878 C879 1.387 . S
C878 H882 0.950 . S
C878 C887 1.390 . S
C879 C878 1.387 . S
C879 C881 1.387 . S
H880 C887 0.950 . S
C881 C879 1.387 . S
C881 C883 1.390 . S
C881 H885 0.950 . S
H882 C878 0.950 . S
C883 C881 1.390 . S
C883 C884 1.387 . S
C883 H886 0.950 . S
C884 C883 1.387 . S
C884 C887 1.387 . S
H885 C881 0.950 . S
H886 C883 0.950 . S
C887 C878 1.390 . S
C887 H880 0.950 . S
C887 C884 1.387 . S
C888 C889 1.387 1_655 S
C888 H892 0.950 . S
C888 C897 1.390 1_554 S
C889 C888 1.387 1_455 S
C889 C891 1.387 . S
H890 C897 0.950 . S
C891 C889 1.387 . S
C891 C893 1.390 1_554 S
C891 H895 0.950 . S
H892 C888 0.950 . S
C893 C891 1.390 1_556 S
C893 C894 1.387 1_455 S
C893 H896 0.950 . S
C894 C893 1.387 1_655 S
C894 C897 1.387 . S
H895 C891 0.950 . S
H896 C893 0.950 . S
C897 C888 1.390 1_556 S
C897 H890 0.950 . S
C897 C894 1.387 . S
C898 C899 1.387 1_556 S
C898 H902 0.950 . S
C898 C907 1.390 . S
C899 C898 1.387 1_554 S
C899 C901 1.387 . S
H900 C907 0.950 . S
C901 C899 1.387 . S
C901 C903 1.390 . S
C901 H905 0.950 . S
H902 C898 0.950 . S
C903 C901 1.390 . S
C903 C904 1.387 1_554 S
C903 H906 0.950 . S
C904 C903 1.387 1_556 S
C904 C907 1.387 . S
H905 C901 0.950 . S
H906 C903 0.950 . S
C907 C898 1.390 . S
C907 H900 0.950 . S
C907 C904 1.387 . S
C908 C909 1.387 1_556 S
C908 H912 0.950 . S
C908 C917 1.390 . S
C909 C908 1.387 1_554 S
C909 C911 1.387 1_565 S
H910 C917 0.950 . S
C911 C909 1.387 1_545 S
C911 C913 1.390 . S
C911 H915 0.950 . S
H912 C908 0.950 . S
C913 C911 1.390 . S
C913 C914 1.387 1_554 S
C913 H916 0.950 . S
C914 C913 1.387 1_556 S
C914 C917 1.387 1_545 S
H915 C911 0.950 . S
H916 C913 0.950 . S
C917 C908 1.390 . S
C917 H910 0.950 . S
C917 C914 1.387 1_565 S
C918 C919 1.387 . S
C918 H922 0.950 . S
C918 C927 1.390 . S
C919 C918 1.387 . S
C919 C921 1.387 1_565 S
H920 C927 0.950 . S
C921 C919 1.387 1_545 S
C921 C923 1.390 . S
C921 H925 0.950 . S
H922 C918 0.950 . S
C923 C921 1.390 . S
C923 C924 1.387 . S
C923 H926 0.950 . S
C924 C923 1.387 . S
C924 C927 1.387 1_545 S
H925 C921 0.950 . S
H926 C923 0.950 . S
C927 C918 1.390 . S
C927 H920 0.950 . S
C927 C924 1.387 1_565 S
C928 C929 1.387 . S
C928 H932 0.950 . S
C928 C937 1.390 . S
C929 C928 1.387 . S
C929 C931 1.387 1_655 S
H930 C937 0.950 . S
C931 C929 1.387 1_455 S
C931 C933 1.390 . S
C931 H935 0.950 . S
H932 C928 0.950 . S
C933 C931 1.390 . S
C933 C934 1.387 . S
C933 H936 0.950 . S
C934 C933 1.387 . S
C934 C937 1.387 1_455 S
H935 C931 0.950 . S
H936 C933 0.950 . S
C937 C928 1.390 . S
C937 H930 0.950 . S
C937 C934 1.387 1_655 S
C938 C939 1.387 . S
C938 H942 0.950 . S
C938 C947 1.390 . S
C939 C938 1.387 . S
C939 C941 1.387 . S
H940 C947 0.950 . S
C941 C939 1.387 . S
C941 C943 1.390 . S
C941 H945 0.950 . S
H942 C938 0.950 . S
C943 C941 1.390 . S
C943 C944 1.387 . S
C943 H946 0.950 . S
C944 C943 1.387 . S
C944 C947 1.387 . S
H945 C941 0.950 . S
H946 C943 0.950 . S
C947 C938 1.390 . S
C947 H940 0.950 . S
C947 C944 1.387 . S
C709 C3 1.066 . S
C714 C465 1.061 . S
C719 C62 1.066 . S
C724 C524 1.061 1_565 S
C729 C121 1.066 . S
C734 C406 1.062 1_455 S
C739 C701 1.063 . S
C744 C180 1.065 . S
C749 C239 1.064 . S
C754 C583 1.061 1_565 S
C759 C642 1.062 1_455 S
C764 C298 1.066 . S
C769 C111 1.062 . S
C774 C357 1.066 . S
C779 C416 1.066 . S
C784 C170 1.061 1_545 S
C789 C52 1.061 1_655 S
C794 C475 1.064 . S
C799 C534 1.064 . S
C804 C347 1.061 . S
C809 C593 1.066 . S
C814 C229 1.061 1_545 S
C819 C288 1.062 1_655 S
C824 C652 1.066 . S
C829 C300 1.684 . S
C834 C5 1.684 . S
C839 C64 1.685 . S
C844 C182 1.686 . S
C849 C123 1.686 . S
C854 C241 1.685 . S
C859 C359 1.684 . S
C864 C654 1.684 . S
C869 C418 1.685 . S
C874 C536 1.686 . S
C879 C477 1.685 . S
C884 C595 1.686 . S
C889 C33 1.827 . S
C894 C387 1.827 . S
C899 C92 1.829 . S
C904 C446 1.829 . S
C909 C151 1.830 . S
C914 C505 1.830 . S
C919 C210 1.829 . S
C924 C564 1.829 . S
C929 C623 1.827 . S
C934 C269 1.827 . S
C939 C328 1.827 . S
C944 C682 1.827 . S
