# Generated by pormake.
# Topology bcg, (8)-cn, num edge types: 1
# Building blocks:
#     Node 0, Type 0, BuildingBlock: HISSIN_clean_sbu_1, # of connection points: 8
#     Node 1, Type 0, BuildingBlock: HISSIN_clean_sbu_1, # of connection points: 8
#     Node 2, Type 0, BuildingBlock: HISSIN_clean_sbu_1, # of connection points: 8
#     Node 3, Type 0, BuildingBlock: HISSIN_clean_sbu_1, # of connection points: 8
#     Edge 4, Type (0, 0), BuildingBlock: UVAHIK_clean_linker_0, # of connection points: 2
#     Edge 5, Type (0, 0), BuildingBlock: UVAHIK_clean_linker_0, # of connection points: 2
#     Edge 6, Type (0, 0), BuildingBlock: UVAHIK_clean_linker_0, # of connection points: 2
#     Edge 7, Type (0, 0), BuildingBlock: UVAHIK_clean_linker_0, # of connection points: 2
#     Edge 8, Type (0, 0), BuildingBlock: UVAHIK_clean_linker_0, # of connection points: 2
#     Edge 9, Type (0, 0), BuildingBlock: UVAHIK_clean_linker_0, # of connection points: 2
#     Edge 10, Type (0, 0), BuildingBlock: UVAHIK_clean_linker_0, # of connection points: 2
#     Edge 11, Type (0, 0), BuildingBlock: UVAHIK_clean_linker_0, # of connection points: 2
#     Edge 12, Type (0, 0), BuildingBlock: UVAHIK_clean_linker_0, # of connection points: 2
#     Edge 13, Type (0, 0), BuildingBlock: UVAHIK_clean_linker_0, # of connection points: 2
#     Edge 14, Type (0, 0), BuildingBlock: UVAHIK_clean_linker_0, # of connection points: 2
#     Edge 15, Type (0, 0), BuildingBlock: UVAHIK_clean_linker_0, # of connection points: 2
#     Edge 16, Type (0, 0), BuildingBlock: UVAHIK_clean_linker_0, # of connection points: 2
#     Edge 17, Type (0, 0), BuildingBlock: UVAHIK_clean_linker_0, # of connection points: 2
#     Edge 18, Type (0, 0), BuildingBlock: UVAHIK_clean_linker_0, # of connection points: 2
#     Edge 19, Type (0, 0), BuildingBlock: UVAHIK_clean_linker_0, # of connection points: 2
# Relax obj value: 0.149
# Max RMSD: 0.214
# Mean RMSD: 0.214
data_MOF--net-bcg--node1-HISSIN_clean_sbu_1--edge1-UVAHIK_clean_linker_0
_symmetry_space_group_name_H-M    P1
_symmetry_Int_Tables_number       1
_symmetry_cell_setting            triclinic
loop_
_symmetry_equiv_pos_as_xyz
'x, y, z'
_cell_length_a     26.999424
_cell_length_b     25.85138
_cell_length_c     40.955086
_cell_angle_alpha  81.125919
_cell_angle_beta   89.971372
_cell_angle_gamma 89.958149
loop_
_atom_site_label
_atom_site_type_symbol
_atom_site_fract_x
_atom_site_fract_y
_atom_site_fract_z
_atom_type_partial_charge
Eu0 Eu 0.32257 0.21767 0.01958 0.0
C1 C 0.28963 0.33592 -0.00539 0.0
O2 O 0.36771 0.22483 0.06491 0.0
C3 C 0.08855 0.28208 0.0439 0.0
C4 C 1.00368 0.23593 0.07447 0.0
C5 C 0.04987 0.26689 0.02459 0.0
C6 C 1.00694 0.24421 0.03986 0.0
C7 C 0.08467 0.27398 0.07846 0.0
C8 C 0.04202 0.25115 0.094 0.0
Eu9 Eu 0.18781 0.30275 0.9769 0.0
O10 O 0.25581 0.16475 0.02284 0.0
O11 O 0.14568 0.29646 0.93016 0.0
O12 O 0.25388 0.35639 0.97495 0.0
O13 O 0.23071 0.22711 0.9823 0.0
C14 C 0.11411 0.33233 0.91682 0.0
O15 O 0.10674 0.37411 0.93082 0.0
O16 O 0.17097 0.27388 0.02822 0.0
C17 C 0.13367 0.30609 0.02873 0.0
C18 C 0.40028 0.18943 0.07741 0.0
O19 O 0.40706 0.14767 0.06328 0.0
O20 O 0.12899 0.33991 0.00137 0.0
O21 O 0.27868 0.29261 0.01465 0.0
C22 C 0.37381 0.21336 0.96666 0.0
O23 O 0.33942 0.24848 0.96858 0.0
C24 C 0.42006 0.23432 0.95153 0.0
C25 C 0.50641 0.27692 0.92111 0.0
C26 C 0.4603 0.24552 0.97093 0.0
C27 C 0.50386 0.26653 0.95569 0.0
C28 C 0.42324 0.24431 0.91695 0.0
C29 C 0.46658 0.26548 0.90149 0.0
C30 C 0.21981 0.1847 0.00321 0.0
O31 O 0.37693 0.17756 0.9932 0.0
H32 H 0.96932 0.22142 0.08616 0.0
H33 H 0.05263 0.2738 -0.00214 0.0
H34 H 0.11465 0.28609 0.09318 0.0
H35 H 0.54108 0.29034 0.90937 0.0
H36 H 0.45807 0.23718 -0.00233 0.0
H37 H 0.39209 0.23523 0.90211 0.0
Eu38 Eu 0.79765 0.73358 0.01536 0.0
C39 C 0.79734 0.85665 -0.00076 0.0
O40 O 0.84285 0.72045 0.06181 0.0
C41 C 0.59019 0.80975 0.03409 0.0
C42 C 0.50528 0.78224 0.07246 0.0
C43 C 0.54448 0.80188 0.01861 0.0
C44 C 0.50181 0.78757 0.03791 0.0
C45 C 0.59217 0.80461 0.06873 0.0
C46 C 0.54992 0.79123 0.08806 0.0
Eu47 Eu 0.70223 0.80365 0.97423 0.0
O48 O 0.72869 0.68362 0.02163 0.0
O49 O 0.67702 0.8226 0.92172 0.0
O50 O 0.7704 0.85483 0.97269 0.0
O51 O 0.69872 0.71754 0.9708 0.0
C52 C 0.69997 0.79941 0.89972 0.0
O53 O 0.73895 0.77034 0.90893 0.0
O54 O 0.67731 0.80244 0.02484 0.0
C55 C 0.63589 0.82741 0.01542 0.0
C56 C 0.86639 0.67685 0.07306 0.0
O57 O 0.86145 0.63564 0.05817 0.0
O58 O 0.63291 0.84239 0.98329 0.0
O59 O 0.79651 0.81747 0.02376 0.0
C60 C 0.85273 0.71969 0.96541 0.0
O61 O 0.81816 0.75602 0.96342 0.0
C62 C 0.90097 0.73384 0.94935 0.0
C63 C 0.99304 0.75056 0.91786 0.0
C64 C 0.94277 0.74715 0.96722 0.0
C65 C 0.98897 0.75627 0.95121 0.0
C66 C 0.90612 0.72877 0.91583 0.0
C67 C 0.95236 0.73586 0.90026 0.0
C68 C 0.69939 0.68016 -0.00357 0.0
O69 O 0.85393 0.68893 0.9941 0.0
H70 H 0.47218 0.77357 0.0873 0.0
H71 H 0.54199 0.8069 0.99191 0.0
H72 H 0.62674 0.81186 0.08072 0.0
H73 H 0.02884 0.7557 0.90573 0.0
H74 H 0.9395 0.74982 0.99329 0.0
H75 H 0.87474 0.71661 0.90233 0.0
Eu76 Eu 0.32778 0.80092 0.47436 0.0
C77 C 0.2836 0.6869 0.49584 0.0
O78 O 0.36966 0.79677 0.42734 0.0
C79 C 0.09275 0.71667 0.43384 0.0
C80 C 0.01008 0.70785 0.39416 0.0
C81 C 0.04539 0.71092 0.44828 0.0
C82 C 1.00367 0.70558 0.42839 0.0
C83 C 0.0985 0.71679 0.39984 0.0
C84 C 0.05721 0.7128 0.37994 0.0
Eu85 Eu 0.17893 0.72344 0.50986 0.0
O86 O 0.26538 0.8586 0.47522 0.0
O87 O 0.12816 0.71482 0.55389 0.0
O88 O 0.24533 0.66913 0.51413 0.0
O89 O 0.23194 0.79115 0.50868 0.0
C90 C 0.14056 0.68273 0.58068 0.0
O91 O 0.18101 0.65454 0.58025 0.0
O92 O 0.14348 0.765 0.46582 0.0
C93 C 0.13754 0.72163 0.45316 0.0
C94 C 0.40475 0.83012 0.41631 0.0
O95 O 0.41553 0.86857 0.43263 0.0
O96 O 0.15372 0.67925 0.47211 0.0
O97 O 0.27733 0.7311 0.47569 0.0
C98 C 0.38306 0.796 0.5264 0.0
O99 O 0.34695 0.76313 0.52372 0.0
C100 C 0.42903 0.77254 0.54062 0.0
C101 C 0.515 0.72764 0.57033 0.0
C102 C 0.46502 0.7522 0.52125 0.0
C103 C 0.50833 0.72937 0.53618 0.0
C104 C 0.43613 0.76995 0.5747 0.0
C105 C 0.47929 0.7478 0.58978 0.0
C106 C 0.22642 0.83832 0.49177 0.0
O107 O 0.38663 0.83391 0.50108 0.0
H108 H 0.97826 0.70508 0.37837 0.0
H109 H 0.04131 0.70957 0.47473 0.0
H110 H 0.13511 0.72045 0.38877 0.0
H111 H 0.54964 0.71307 0.58157 0.0
H112 H 0.45942 0.75432 0.49487 0.0
H113 H 0.40799 0.78547 0.58944 0.0
Eu114 Eu 0.80196 0.30079 0.47578 0.0
C115 C 0.80687 0.17877 0.49731 0.0
O116 O 0.83325 0.31766 0.42455 0.0
C117 C 0.60201 0.22437 0.45533 0.0
C118 C 0.51628 0.2511 0.41769 0.0
C119 C 0.55692 0.23369 0.47112 0.0
C120 C 0.51382 0.24748 0.4522 0.0
C121 C 0.60304 0.22764 0.42074 0.0
C122 C 0.5603 0.2407 0.40176 0.0
Eu123 Eu 0.70883 0.22885 0.51911 0.0
O124 O 0.73298 0.35079 0.47313 0.0
O125 O 0.67555 0.21101 0.56967 0.0
O126 O 0.77898 0.18069 0.52337 0.0
O127 O 0.70586 0.31414 0.52426 0.0
C128 C 0.69659 0.23213 0.59331 0.0
O129 O 0.73809 0.25827 0.58687 0.0
O130 O 0.68758 0.23748 0.4672 0.0
C131 C 0.6481 0.20772 0.47379 0.0
C132 C 0.81189 0.29541 0.40149 0.0
O133 O 0.77086 0.26875 0.40871 0.0
O134 O 0.64437 0.18677 0.50509 0.0
O135 O 0.8029 0.21523 0.47141 0.0
C136 C 0.86543 0.32066 0.51986 0.0
O137 O 0.82501 0.29276 0.52731 0.0
C138 C 0.91154 0.30231 0.53778 0.0
C139 C 0.99762 0.27276 0.57444 0.0
C140 C 0.95597 0.29228 0.52144 0.0
C141 C 0.99923 0.27707 0.53987 0.0
C142 C 0.91138 0.29825 0.57242 0.0
C143 C 0.9543 0.28385 0.59091 0.0
C144 C 0.70481 0.35238 0.49917 0.0
O145 O 0.86862 0.34075 0.48839 0.0
H146 H 0.48282 0.25951 0.4032 0.0
H147 H 0.55526 0.23019 0.4978 0.0
H148 H 0.63718 0.21935 0.40856 0.0
H149 H 0.0313 0.2634 0.58854 0.0
H150 H 0.95702 0.29641 0.49472 0.0
H151 H 0.87779 0.30709 0.58501 0.0
C152 C 0.58065 0.31417 0.96679 0.0
C153 C 0.54974 0.27038 0.97469 0.0
C154 C 0.63035 0.31132 0.97608 0.0
C155 C 0.7262 0.21063 0.99055 0.0
H156 H 0.80833 0.32481 0.01013 0.0
C157 C 0.9314 0.19336 0.02991 0.0
C158 C 0.96182 0.23725 0.02063 0.0
C159 C 0.88194 0.19436 0.02008 0.0
C160 C 0.78589 0.29288 0.00409 0.0
H161 H 0.5446 0.19157 0.00164 0.0
H162 H 0.63125 0.18707 0.01879 0.0
H163 H 0.7186 0.3349 0.00869 0.0
H164 H 0.96628 0.31396 0.99072 0.0
H165 H 0.87997 0.31538 0.97309 0.0
H166 H 0.79367 0.16848 0.9863 0.0
C167 C 0.61747 0.22301 0.00458 0.0
C168 C 0.73452 0.29852 0.00356 0.0
C169 C 0.56773 0.22587 -0.00476 0.0
C170 C 0.94366 0.27958 -0.00177 0.0
C171 C 0.89411 0.2807 0.98851 0.0
C172 C 0.77762 0.20492 0.99122 0.0
C173 C 0.64981 0.26465 0.99354 0.0
C174 C 0.70412 0.25751 -0.00326 0.0
C175 C 0.86221 0.23938 0.00091 0.0
C176 C 0.80794 0.24609 -0.00215 0.0
H177 H 0.56735 0.34906 0.95115 0.0
H178 H 0.65421 0.34419 0.96728 0.0
H179 H 0.70383 0.17871 0.98446 0.0
H180 H 0.94466 0.16023 0.04712 0.0
H181 H 0.85829 0.16182 0.02989 0.0
C182 C 0.06386 0.81136 0.9557 0.0
C183 C 0.03518 0.76753 0.96855 0.0
C184 C 0.11338 0.81529 0.96511 0.0
C185 C 0.2184 0.7294 -0.00543 0.0
H186 H 0.28502 0.85957 0.00271 0.0
C187 C 0.42291 0.73727 0.03589 0.0
C188 C 0.45211 0.78082 0.02325 0.0
C189 C 0.37269 0.73525 0.02782 0.0
C190 C 0.2672 0.82297 -2e-05 0.0
H191 H 0.0351 0.69474 0.00259 0.0
H192 H 0.12161 0.70185 0.01963 0.0
H193 H 0.19531 0.85872 -0.00445 0.0
H194 H 0.45191 0.85537 0.99091 0.0
H195 H 0.36412 0.85151 0.97606 0.0
H196 H 0.29015 0.69368 -0.00132 0.0
C197 C 0.10592 0.73301 0.00195 0.0
C198 C 0.21558 0.82243 -0.00391 0.0
C199 C 0.05613 0.72929 0.99266 0.0
C200 C 0.43049 0.8211 0.00081 0.0
C201 C 0.37998 0.81919 0.99276 0.0
C202 C 0.26997 0.72996 -0.00164 0.0
C203 C 0.13569 0.77521 0.98743 0.0
C204 C 0.1904 0.77561 0.99337 0.0
C205 C 0.35006 0.7768 0.00684 0.0
C206 C 0.29521 0.77673 0.00118 0.0
H207 H 0.04877 0.84106 0.93674 0.0
H208 H 0.13498 0.84819 0.95324 0.0
H209 H 0.20058 0.69281 0.9918 0.0
H210 H 0.43851 0.70564 0.05329 0.0
H211 H 0.35111 0.70214 0.03939 0.0
C212 C 0.57649 0.66652 0.52958 0.0
C213 C 0.54962 0.71169 0.51671 0.0
C214 C 0.62311 0.65722 0.5171 0.0
C215 C 0.7134 0.69482 0.45066 0.0
H216 H 0.80906 0.68059 0.52233 0.0
C217 C 0.92101 0.66173 0.43032 0.0
C218 C 0.95311 0.6972 0.44245 0.0
C219 C 0.87134 0.65859 0.43961 0.0
C220 C 0.78275 0.68452 0.50213 0.0
H221 H 0.54825 0.77965 0.47843 0.0
H222 H 0.62993 0.76305 0.45627 0.0
H223 H 0.72049 0.68098 0.53472 0.0
H224 H 0.95887 0.75486 0.47547 0.0
H225 H 0.87172 0.74824 0.49254 0.0
H226 H 0.77586 0.69866 0.41807 0.0
C227 C 0.61483 0.73506 0.47619 0.0
C228 C 0.73215 0.68422 0.50917 0.0
C229 C 0.56801 0.74445 0.48877 0.0
C230 C 0.9351 0.72709 0.46579 0.0
C231 C 0.88527 0.72347 0.47542 0.0
C232 C 0.76406 0.69431 0.44363 0.0
C233 C 0.64373 0.69284 0.49141 0.0
C234 C 0.69702 0.68965 0.48351 0.0
C235 C 0.85274 0.69018 0.46168 0.0
C236 C 0.79916 0.68954 0.46931 0.0
H237 H 0.56299 0.64031 0.55091 0.0
H238 H 0.64423 0.62376 0.52877 0.0
H239 H 0.68705 0.69925 0.43048 0.0
H240 H 0.93407 0.63713 0.41295 0.0
H241 H 0.84726 0.63182 0.42922 0.0
C242 C 0.07677 0.22486 0.53632 0.0
C243 C 0.04788 0.26894 0.52415 0.0
C244 C 0.1266 0.22192 0.52735 0.0
C245 C 0.23204 0.3086 0.49856 0.0
H246 H 0.29775 0.17837 0.48906 0.0
C247 C 0.43551 0.29883 0.45462 0.0
C248 C 0.46465 0.25522 0.46733 0.0
C249 C 0.38554 0.30153 0.46327 0.0
C250 C 0.28018 0.21497 0.49215 0.0
H251 H 0.04805 0.3433 0.49162 0.0
H252 H 0.13505 0.33788 0.47529 0.0
H253 H 0.20823 0.17963 0.49685 0.0
H254 H 0.46465 0.18129 0.50031 0.0
H255 H 0.37728 0.18623 0.51601 0.0
H256 H 0.30398 0.34394 0.49383 0.0
C257 C 0.11931 0.30586 0.49228 0.0
C258 C 0.22866 0.21576 0.49647 0.0
C259 C 0.06922 0.30867 0.50119 0.0
C260 C 0.44328 0.2156 0.49036 0.0
C261 C 0.39302 0.21813 0.49892 0.0
C262 C 0.28354 0.30782 0.49422 0.0
C263 C 0.14908 0.26309 0.50599 0.0
C264 C 0.20378 0.26259 0.49975 0.0
C265 C 0.36313 0.26053 0.48482 0.0
C266 C 0.30842 0.26099 0.49096 0.0
H267 H 0.06134 0.19364 0.5541 0.0
H268 H 0.1481 0.1885 0.5386 0.0
H269 H 0.21452 0.34521 0.50169 0.0
H270 H 0.45094 0.32992 0.43674 0.0
H271 H 0.3639 0.33464 0.45171 0.0
C272 C 0.66211 0.59497 0.02394 0.0
C273 C 0.66666 0.63406 -0.00385 0.0
C274 C 0.62857 0.55356 0.02382 0.0
C275 C 0.55043 0.4862 0.96789 0.0
H276 H 0.46682 0.45275 0.04518 0.0
C277 C 0.35564 0.39385 0.96528 0.0
C278 C 0.34022 0.35827 0.99283 0.0
C279 C 0.40181 0.41854 0.96526 0.0
C280 C 0.49036 0.46083 0.02358 0.0
H281 H 0.6403 0.65931 0.94612 0.0
H282 H 0.58198 0.58807 0.94612 0.0
H283 H 0.53639 0.51218 0.04651 0.0
H284 H 0.36104 0.32059 0.04174 0.0
H285 H 0.44187 0.36261 0.04154 0.0
H286 H 0.50313 0.43604 0.94465 0.0
C287 C 0.6046 0.58873 0.96789 0.0
C288 C 0.53037 0.49494 0.02436 0.0
C289 C 0.63789 0.63 0.96802 0.0
C290 C 0.37241 0.3468 0.01989 0.0
C291 C 0.41843 0.37152 0.01995 0.0
C292 C 0.51026 0.45219 0.96707 0.0
C293 C 0.59902 0.55025 -0.00413 0.0
C294 C 0.5603 0.50899 -0.0037 0.0
C295 C 0.43327 0.40855 0.99293 0.0
C296 C 0.47916 0.43992 -0.00529 0.0
H297 H 0.68374 0.59683 0.04599 0.0
H298 H 0.62556 0.52431 0.04571 0.0
H299 H 0.57328 0.49533 0.94602 0.0
H300 H 0.33159 0.40351 0.94406 0.0
H301 H 0.41188 0.44722 0.94415 0.0
C302 C 0.63781 0.39495 0.5277 0.0
C303 C 0.67013 0.3965 0.50062 0.0
C304 C 0.60216 0.4338 0.52846 0.0
C305 C 0.53091 0.53172 0.47256 0.0
H306 H 0.48591 0.57274 0.55483 0.0
C307 C 0.36879 0.67472 0.47489 0.0
C308 C 0.33272 0.66113 0.4994 0.0
C309 C 0.41443 0.6492 0.47656 0.0
C310 C 0.49787 0.56139 0.5317 0.0
H311 H 0.69149 0.44147 0.45362 0.0
H312 H 0.62963 0.51022 0.45523 0.0
H313 H 0.55958 0.51807 0.55451 0.0
H314 H 0.31641 0.6103 0.54529 0.0
H315 H 0.39608 0.56447 0.54798 0.0
H316 H 0.46916 0.5747 0.44979 0.0
C317 C 0.63135 0.47818 0.47562 0.0
C318 C 0.54012 0.53007 0.53147 0.0
C319 C 0.66701 0.43895 0.47476 0.0
C320 C 0.34354 0.62171 0.52604 0.0
C321 C 0.38933 0.59583 0.5277 0.0
C322 C 0.489 0.56337 0.47276 0.0
C323 C 0.59794 0.4756 0.50227 0.0
C324 C 0.55664 0.51397 0.50199 0.0
C325 C 0.42497 0.60873 0.50263 0.0
C326 C 0.47154 0.578 0.50239 0.0
H327 H 0.63897 0.36284 0.54809 0.0
H328 H 0.57668 0.42985 0.54913 0.0
H329 H 0.54186 0.51943 0.4495 0.0
H330 H 0.36116 0.70399 0.45372 0.0
H331 H 0.4412 0.66065 0.45708 0.0
C332 C 0.13482 0.17711 0.98029 0.0
C333 C 0.16895 0.16292 0.00596 0.0
C334 C 0.08829 0.15339 0.98099 0.0
C335 C 0.99951 0.06904 0.03448 0.0
H336 H 0.96266 0.02242 0.95225 0.0
C337 C 0.86216 0.9004 0.02906 0.0
C338 C 0.8315 0.90104 0.00123 0.0
C339 C 0.89744 0.93953 0.03026 0.0
C340 C 0.97163 0.03599 0.97527 0.0
H341 H 0.18051 0.11359 0.05311 0.0
H342 H 0.09948 0.07123 0.05417 0.0
H343 H 0.03467 0.0783 0.95384 0.0
H344 H 0.81288 0.94461 0.95326 0.0
H345 H 0.87415 0.01358 0.95553 0.0
H346 H 0.93671 0.02608 0.05599 0.0
C347 C 0.10838 0.10147 0.03365 0.0
C348 C 0.01311 0.06807 0.9762 0.0
C349 C 0.15499 0.12542 0.03294 0.0
C350 C 0.83598 0.94281 0.97501 0.0
C351 C 0.87133 0.98218 0.97625 0.0
C352 C 0.95776 0.03724 0.0335 0.0
C353 C 0.07489 0.11434 0.00729 0.0
C354 C 0.02807 0.0843 0.00593 0.0
C355 C 0.90302 0.9806 0.00371 0.0
C356 C 0.94386 0.01938 0.00402 0.0
H357 H 0.14485 0.20491 0.9589 0.0
H358 H 0.06324 0.16476 0.96048 0.0
H359 H 1.00955 0.08152 0.05765 0.0
H360 H 0.85994 0.86882 0.04973 0.0
H361 H 0.92159 0.93639 0.05157 0.0
C362 C 0.87747 0.14029 0.46992 0.0
C363 C 0.84493 0.13752 0.49697 0.0
C364 C 0.91608 0.1045 0.47004 0.0
C365 C 0.96077 0.97457 0.50556 0.0
H366 H 0.08965 0.03435 0.48085 0.0
C367 C 0.14242 0.8522 0.51477 0.0
C368 C 0.17872 0.8666 0.49049 0.0
C369 C 0.09949 0.88232 0.51564 0.0
C370 C 0.05386 0.01682 0.4873 0.0
H371 H 0.82666 0.09377 0.54498 0.0
H372 H 0.8944 0.03033 0.54495 0.0
H373 H 0.01875 0.09174 0.48293 0.0
H374 H 0.19777 0.92246 0.44728 0.0
H375 H 0.12249 0.97418 0.44815 0.0
H376 H 0.99585 0.89946 0.5094 0.0
C377 C 0.88971 0.06061 0.52374 0.0
C378 C 0.01327 0.04981 0.48867 0.0
C379 C 0.85108 0.09695 0.52378 0.0
C380 C 0.17057 0.9106 0.46642 0.0
C381 C 0.12756 0.94046 0.46711 0.0
C382 C 1.00145 0.94137 0.50392 0.0
C383 C 0.92307 0.06472 0.49708 0.0
C384 C 0.96622 0.02908 0.49749 0.0
C385 C 0.09196 0.92742 0.49216 0.0
C386 C 0.04844 0.96214 0.49445 0.0
H387 H 0.87388 0.17087 0.44876 0.0
H388 H 0.94077 0.10815 0.44895 0.0
H389 H 0.92482 0.95759 0.51226 0.0
H390 H 0.14803 0.81881 0.53387 0.0
H391 H 0.07317 0.87134 0.53545 0.0
C392 C 0.53521 0.27958 0.34425 0.0
C393 C 0.55988 0.24001 0.36555 0.0
C394 C 0.52849 0.27539 0.31095 0.0
C395 C 0.51711 0.1752 0.25711 0.0
H396 H 0.51753 0.29475 0.18713 0.0
C397 C 0.45959 0.15683 0.12329 0.0
C398 C 0.42765 0.19611 0.10784 0.0
C399 C 0.48351 0.16249 0.15286 0.0
C400 C 0.51701 0.261 0.20643 0.0
H401 H 0.5987 0.16606 0.36829 0.0
H402 H 0.58743 0.15896 0.3099 0.0
H403 H 0.54712 0.30477 0.2421 0.0
H404 H 0.39686 0.27279 0.11091 0.0
H405 H 0.43789 0.28228 0.16248 0.0
H406 H 0.48572 0.13175 0.22178 0.0
C407 C 0.57286 0.193 0.3191 0.0
C408 C 0.53406 0.26674 0.23791 0.0
C409 C 0.57979 0.19734 0.35244 0.0
C410 C 0.42108 0.24166 0.12218 0.0
C411 C 0.44499 0.24732 0.15167 0.0
C412 C 0.49999 0.16947 0.22565 0.0
C413 C 0.54617 0.23143 0.29814 0.0
C414 C 0.53346 0.22414 0.26379 0.0
C415 C 0.47613 0.20762 0.16757 0.0
C416 C 0.49885 0.21254 0.20007 0.0
H417 H 0.51979 0.31312 0.35361 0.0
H418 H 0.50744 0.30551 0.29561 0.0
H419 H 0.51547 0.14174 0.27658 0.0
H420 H 0.46566 0.12137 0.1128 0.0
H421 H 0.5077 0.13143 0.16425 0.0
C422 C 0.57305 0.83127 0.13798 0.0
C423 C 0.55088 0.79025 0.12439 0.0
C424 C 0.56827 0.83394 0.17168 0.0
C425 C 0.5311 0.75762 0.25239 0.0
H426 H 0.48907 0.89277 0.27238 0.0
C427 C 0.42164 0.78093 0.36954 0.0
C428 C 0.43106 0.82444 0.38536 0.0
C429 C 0.44485 0.77604 0.33972 0.0
C430 C 0.50164 0.85497 0.26739 0.0
H431 H 0.50887 0.71831 0.13572 0.0
H432 H 0.49994 0.72325 0.19435 0.0
H433 H 0.51582 0.88475 0.21659 0.0
H434 H 0.47327 0.89633 0.38268 0.0
H435 H 0.51393 0.88772 0.33044 0.0
H436 H 0.51552 0.7276 0.30303 0.0
C437 C 0.52126 0.75325 0.17911 0.0
C438 C 0.51703 0.85036 0.23539 0.0
C439 C 0.52594 0.75065 0.14545 0.0
C440 C 0.46503 0.86247 0.37102 0.0
C441 C 0.48819 0.85764 0.34105 0.0
C442 C 0.5157 0.76223 0.28439 0.0
C443 C 0.54138 0.79555 0.19248 0.0
C444 C 0.53095 0.80142 0.22735 0.0
C445 C 0.47804 0.81454 0.32495 0.0
C446 C 0.49977 0.81074 0.29207 0.0
H447 H 0.59222 0.86256 0.12234 0.0
H448 H 0.58469 0.8667 0.18131 0.0
H449 H 0.54238 0.71955 0.24712 0.0
H450 H 0.39581 0.75078 0.37996 0.0
H451 H 0.43565 0.74273 0.32776 0.0
C452 C 0.51441 0.70719 0.64433 0.0
C453 C 0.48964 0.74919 0.62519 0.0
C454 C 0.53233 0.71207 0.6756 0.0
C455 C 0.52522 0.78369 0.74522 0.0
H456 H 0.66739 0.76223 0.7505 0.0
C457 C 0.6394 0.8335 0.85536 0.0
C458 C 0.6778 0.79882 0.86692 0.0
C459 C 0.61541 0.82935 0.82566 0.0
C460 C 0.62761 0.76763 0.74975 0.0
H461 H 0.46105 0.82778 0.62493 0.0
H462 H 0.49127 0.8355 0.68019 0.0
H463 H 0.62295 0.74694 0.70126 0.0
H464 H 0.72155 0.73291 0.85641 0.0
H465 H 0.67893 0.72451 0.80544 0.0
H466 H 0.52945 0.8029 0.79409 0.0
C467 C 0.4971 0.79915 0.67064 0.0
C468 C 0.60226 0.75898 0.72149 0.0
C469 C 0.47969 0.79458 0.6391 0.0
C470 C 0.69241 0.76059 0.84798 0.0
C471 C 0.66801 0.75593 0.81862 0.0
C472 C 0.55048 0.79151 0.77383 0.0
C473 C 0.5251 0.75865 0.68855 0.0
C474 C 0.55091 0.7668 0.71903 0.0
C475 C 0.62896 0.78998 0.80717 0.0
C476 C 0.60203 0.78345 0.77645 0.0
H477 H 0.52162 0.67126 0.63459 0.0
H478 H 0.55326 0.68005 0.68927 0.0
H479 H 0.48555 0.78995 0.74374 0.0
H480 H 0.62751 0.86348 0.86945 0.0
H481 H 0.58615 0.85688 0.81728 0.0
C482 C 0.46047 0.22879 0.84848 0.0
C483 C 0.47341 0.27037 0.86524 0.0
C484 C 0.47726 0.22796 0.81627 0.0
C485 C 0.58603 0.26786 0.7691 0.0
H486 H 0.51585 0.23393 0.69263 0.0
C487 C 0.68476 0.26983 0.64514 0.0
C488 C 0.67058 0.23338 0.62483 0.0
C489 C 0.65786 0.27463 0.67355 0.0
C490 C 0.53609 0.24263 0.71394 0.0
H491 H 0.50931 0.3462 0.86031 0.0
H492 H 0.5394 0.34416 0.80431 0.0
H493 H 0.46964 0.24474 0.7426 0.0
H494 H 0.61787 0.17243 0.61867 0.0
H495 H 0.57197 0.17915 0.66924 0.0
H496 H 0.65255 0.26372 0.7416 0.0
C497 C 0.51679 0.31208 0.81622 0.0
C498 C 0.50953 0.24924 0.74235 0.0
C499 C 0.49964 0.31317 0.84821 0.0
C500 C 0.62957 0.20093 0.63388 0.0
C501 C 0.60301 0.20518 0.66267 0.0
C502 C 0.61259 0.26043 0.74105 0.0
C503 C 0.50743 0.26851 0.80055 0.0
C504 C 0.53434 0.26246 0.76999 0.0
C505 C 0.6166 0.24244 0.68271 0.0
C506 C 0.588 0.24824 0.71296 0.0
H507 H 0.44056 0.19511 0.86102 0.0
H508 H 0.46971 0.19391 0.80462 0.0
H509 H 0.60609 0.27684 0.79044 0.0
H510 H 0.71581 0.29589 0.6386 0.0
H511 H 0.66888 0.30452 0.68791 0.0
C512 C 0.03888 0.75037 0.32174 0.0
C513 C 0.06248 0.71197 0.3443 0.0
C514 C 0.03621 0.74506 0.28846 0.0
C515 C 0.02235 0.64305 0.23928 0.0
H516 H 0.02723 0.75831 0.16656 0.0
C517 C 0.92961 0.63216 0.11289 0.0
C518 C 0.9005 0.67629 0.10129 0.0
C519 C 0.96268 0.63323 0.13912 0.0
C520 C 0.02585 0.72563 0.18658 0.0
H521 H 0.10361 0.63925 0.3502 0.0
H522 H 0.098 0.62918 0.29162 0.0
H523 H 0.0651 0.76805 0.21937 0.0
H524 H 0.88329 0.75605 0.10809 0.0
H525 H 0.93968 0.75745 0.15378 0.0
H526 H 0.9801 0.6019 0.20734 0.0
C527 C 0.08217 0.66362 0.29967 0.0
C528 C 0.04774 0.73117 0.21668 0.0
C529 C 0.08556 0.66943 0.33298 0.0
C530 C 0.90517 0.72135 0.11631 0.0
C531 C 0.93804 0.72241 0.14233 0.0
C532 C 1.00008 0.63764 0.20922 0.0
C533 C 0.0564 0.70078 0.27732 0.0
C534 C 0.04442 0.6907 0.24367 0.0
C535 C 0.96728 0.67851 0.15401 0.0
C536 C 0.99975 0.67975 0.18306 0.0
H537 H 0.02069 0.78329 0.33017 0.0
H538 H 0.01555 0.77393 0.27185 0.0
H539 H 0.01893 0.61138 0.25982 0.0
H540 H 0.92699 0.59696 0.10169 0.0
H541 H 0.98475 0.5988 0.14763 0.0
C542 C 0.87744 0.32658 0.35978 0.0
C543 C 0.83725 0.29347 0.3698 0.0
C544 C 0.90355 0.32167 0.33091 0.0
C545 C 0.8942 0.26179 0.25408 0.0
H546 H 0.03664 0.28182 0.25098 0.0
C547 C 1.00867 0.20602 0.14801 0.0
C548 C 0.03402 0.2487 0.13005 0.0
C549 C 0.99097 0.20868 0.17969 0.0
C550 C 0.99688 0.27611 0.25165 0.0
H551 H 0.79296 0.22911 0.35763 0.0
H552 H 0.83918 0.2193 0.30824 0.0
H553 H 0.99076 0.29394 0.30081 0.0
H554 H 0.0644 0.32575 0.13241 0.0
H555 H 0.0345 0.32961 0.18829 0.0
H556 H 0.9006 0.24276 0.20527 0.0
C557 C 0.84987 0.25022 0.32186 0.0
C558 C 0.97049 0.28347 0.27999 0.0
C559 C 0.82339 0.2557 0.35034 0.0
C560 C 0.04529 0.29207 0.14565 0.0
C561 C 0.02803 0.29443 0.17757 0.0
C562 C 0.92064 0.25359 0.22612 0.0
C563 C 0.89038 0.28302 0.31176 0.0
C564 C 0.91875 0.27635 0.28154 0.0
C565 C 0.99896 0.2537 0.1942 0.0
C566 C 0.97214 0.26059 0.22466 0.0
H567 H 0.88889 0.35612 0.37431 0.0
H568 H 0.93396 0.34823 0.32361 0.0
H569 H 0.85434 0.25723 0.25394 0.0
H570 H 1.00031 0.17163 0.13689 0.0
H571 H 0.96922 0.17645 0.19232 0.0
C572 C 0.05644 0.36516 0.87002 0.0
C573 C 0.08816 0.32593 0.8858 0.0
C574 C 0.03347 0.35961 0.84012 0.0
C575 C 1.00163 0.26127 0.78612 0.0
H576 H 1.00251 0.38113 0.71638 0.0
C577 C 0.98069 0.24419 0.64806 0.0
C578 C 0.95578 0.28411 0.62718 0.0
C579 C 0.98832 0.24797 0.68135 0.0
C580 C 1.00109 0.34749 0.73572 0.0
H581 H 0.11974 0.24957 0.88283 0.0
H582 H 0.08033 0.24026 0.83066 0.0
H583 H 0.03234 0.3907 0.77123 0.0
H584 H 0.91753 0.35827 0.62521 0.0
H585 H 0.93024 0.36455 0.68355 0.0
H586 H 0.97149 0.21778 0.7503 0.0
C587 C 0.07266 0.27508 0.8415 0.0
C588 C 0.01825 0.35297 0.76721 0.0
C589 C 0.09562 0.28063 0.87134 0.0
C590 C 0.93658 0.32671 0.64071 0.0
C591 C 0.94438 0.3306 0.67403 0.0
C592 C 0.98451 0.25577 0.75461 0.0
C593 C 0.0416 0.31465 0.82536 0.0
C594 C 0.01949 0.30974 0.79267 0.0
C595 C 0.9713 0.29183 0.69456 0.0
C596 C 0.98475 0.29863 0.72889 0.0
H597 H 0.04968 0.40043 0.88058 0.0
H598 H 1.0093 0.39056 0.82856 0.0
H599 H 1.00122 0.22738 0.80531 0.0
H600 H 0.99554 0.21066 0.6384 0.0
H601 H 1.0095 0.21757 0.69636 0.0
C602 C 0.12743 0.64915 0.64063 0.0
C603 C 0.11249 0.68212 0.6118 0.0
C604 C 0.10429 0.65191 0.67079 0.0
C605 C 0.99346 0.69891 0.71036 0.0
H606 H 0.08386 0.70199 0.78355 0.0
C607 C 0.9357 0.75072 0.83911 0.0
C608 C 0.96048 0.72341 0.86662 0.0
C609 C 0.94926 0.74327 0.80708 0.0
C610 C 0.05794 0.70042 0.76355 0.0
H611 H 0.06004 0.74241 0.59179 0.0
H612 H 0.01967 0.74732 0.6447 0.0
H613 H 0.11647 0.6929 0.72951 0.0
H614 H 0.01584 0.6644 0.88276 0.0
H615 H 0.03854 0.65029 0.8273 0.0
H616 H 0.93485 0.70656 0.74477 0.0
C617 C 0.04921 0.71919 0.64384 0.0
C618 C 0.0767 0.69526 0.73252 0.0
C619 C 0.07248 0.7165 0.61358 0.0
C620 C 0.99675 0.68645 0.86183 0.0
C621 C 0.00992 0.67868 0.83007 0.0
C622 C 0.97455 0.70391 0.74162 0.0
C623 C 0.06563 0.6877 0.67289 0.0
C624 C 0.04475 0.69393 0.70562 0.0
C625 C 0.98756 0.70817 0.80225 0.0
C626 C 1.00664 0.70415 0.76865 0.0
H627 H 0.15784 0.62193 0.64012 0.0
H628 H 0.11719 0.62645 0.69264 0.0
H629 H 0.96793 0.69792 0.69008 0.0
H630 H 0.90763 0.77947 0.84233 0.0
H631 H 0.93135 0.76663 0.78617 0.0
loop_
_geom_bond_atom_site_label_1
_geom_bond_atom_site_label_2
_geom_bond_distance
_geom_bond_site_symmetry_2
_ccdc_geom_bond_type
Eu0 O2 2.323 . S
Eu0 O10 2.328 . S
Eu0 O21 2.316 . S
Eu0 C22 2.837 1_554 S
Eu0 O23 2.488 1_554 S
Eu0 O31 2.461 . S
C1 O12 1.251 1_554 S
C1 O21 1.237 . S
O2 Eu0 2.323 . S
O2 C18 1.279 . S
C3 C5 1.383 . S
C3 C7 1.388 . S
C3 C17 1.491 . S
C4 C6 1.403 . S
C4 C8 1.385 . S
C4 H32 0.931 1_455 S
C5 C3 1.383 . S
C5 C6 1.393 . S
C5 H33 0.930 . S
C6 C4 1.403 . S
C6 C5 1.393 . S
C7 C3 1.388 . S
C7 C8 1.394 . S
C7 H34 0.930 . S
C8 C4 1.385 . S
C8 C7 1.394 . S
Eu9 O11 2.323 . S
Eu9 O12 2.328 . S
Eu9 O13 2.316 . S
Eu9 O16 2.488 1_556 S
Eu9 C17 2.837 1_556 S
Eu9 O20 2.461 . S
O10 Eu0 2.328 . S
O10 C30 1.251 1_554 S
O11 Eu9 2.323 . S
O11 C14 1.279 . S
O12 C1 1.251 1_556 S
O12 Eu9 2.328 . S
O13 Eu9 2.316 . S
O13 C30 1.237 . S
C14 O11 1.279 . S
C14 O15 1.244 . S
O15 C14 1.244 . S
O16 Eu9 2.488 1_554 S
O16 C17 1.271 . S
C17 C3 1.491 . S
C17 Eu9 2.837 1_554 S
C17 O16 1.271 . S
C17 O20 1.261 1_554 S
C18 O2 1.279 . S
C18 O19 1.244 . S
O19 C18 1.244 . S
O20 Eu9 2.461 . S
O20 C17 1.261 1_556 S
O21 Eu0 2.316 . S
O21 C1 1.237 . S
C22 Eu0 2.837 1_556 S
C22 O23 1.271 . S
C22 C24 1.491 . S
C22 O31 1.261 1_556 S
O23 Eu0 2.488 1_556 S
O23 C22 1.271 . S
C24 C22 1.491 . S
C24 C26 1.383 . S
C24 C28 1.388 . S
C25 C27 1.403 . S
C25 C29 1.385 . S
C25 H35 0.931 . S
C26 C24 1.383 . S
C26 C27 1.393 . S
C26 H36 0.930 . S
C27 C25 1.403 . S
C27 C26 1.393 . S
C28 C24 1.388 . S
C28 C29 1.394 . S
C28 H37 0.930 . S
C29 C25 1.385 . S
C29 C28 1.394 . S
C30 O10 1.251 1_556 S
C30 O13 1.237 . S
O31 Eu0 2.461 . S
O31 C22 1.261 1_554 S
H32 C4 0.931 1_655 S
H33 C5 0.930 . S
H34 C7 0.930 . S
H35 C25 0.931 . S
H36 C26 0.930 . S
H37 C28 0.930 . S
Eu38 O40 2.323 . S
Eu38 O48 2.328 . S
Eu38 O59 2.316 . S
Eu38 C60 2.837 1_554 S
Eu38 O61 2.488 1_554 S
Eu38 O69 2.461 . S
C39 O50 1.251 1_554 S
C39 O59 1.237 . S
O40 Eu38 2.323 . S
O40 C56 1.279 . S
C41 C43 1.383 . S
C41 C45 1.388 . S
C41 C55 1.491 . S
C42 C44 1.403 . S
C42 C46 1.385 . S
C42 H70 0.931 . S
C43 C41 1.383 . S
C43 C44 1.393 . S
C43 H71 0.930 . S
C44 C42 1.403 . S
C44 C43 1.393 . S
C45 C41 1.388 . S
C45 C46 1.394 . S
C45 H72 0.930 . S
C46 C42 1.385 . S
C46 C45 1.394 . S
Eu47 O49 2.323 . S
Eu47 O50 2.328 . S
Eu47 O51 2.316 . S
Eu47 O54 2.488 1_556 S
Eu47 C55 2.837 1_556 S
Eu47 O58 2.461 . S
O48 Eu38 2.328 . S
O48 C68 1.251 1_554 S
O49 Eu47 2.323 . S
O49 C52 1.279 . S
O50 C39 1.251 1_556 S
O50 Eu47 2.328 . S
O51 Eu47 2.316 . S
O51 C68 1.237 . S
C52 O49 1.279 . S
C52 O53 1.244 . S
O53 C52 1.244 . S
O54 Eu47 2.488 1_554 S
O54 C55 1.271 . S
C55 C41 1.491 . S
C55 Eu47 2.837 1_554 S
C55 O54 1.271 . S
C55 O58 1.261 1_554 S
C56 O40 1.279 . S
C56 O57 1.244 . S
O57 C56 1.244 . S
O58 Eu47 2.461 . S
O58 C55 1.261 1_556 S
O59 Eu38 2.316 . S
O59 C39 1.237 . S
C60 Eu38 2.837 1_556 S
C60 O61 1.271 . S
C60 C62 1.491 . S
C60 O69 1.261 1_556 S
O61 Eu38 2.488 1_556 S
O61 C60 1.271 . S
C62 C60 1.491 . S
C62 C64 1.383 . S
C62 C66 1.388 . S
C63 C65 1.403 . S
C63 C67 1.385 . S
C63 H73 0.931 1_655 S
C64 C62 1.383 . S
C64 C65 1.393 . S
C64 H74 0.930 . S
C65 C63 1.403 . S
C65 C64 1.393 . S
C66 C62 1.388 . S
C66 C67 1.394 . S
C66 H75 0.930 . S
C67 C63 1.385 . S
C67 C66 1.394 . S
C68 O48 1.251 1_556 S
C68 O51 1.237 . S
O69 Eu38 2.461 . S
O69 C60 1.261 1_554 S
H70 C42 0.931 . S
H71 C43 0.930 . S
H72 C45 0.930 . S
H73 C63 0.931 1_455 S
H74 C64 0.930 . S
H75 C66 0.930 . S
Eu76 O78 2.323 . S
Eu76 O86 2.328 . S
Eu76 O97 2.316 . S
Eu76 C98 2.837 . S
Eu76 O99 2.488 . S
Eu76 O107 2.461 . S
C77 O88 1.251 . S
C77 O97 1.237 . S
O78 Eu76 2.323 . S
O78 C94 1.279 . S
C79 C81 1.383 . S
C79 C83 1.388 . S
C79 C93 1.491 . S
C80 C82 1.403 . S
C80 C84 1.385 . S
C80 H108 0.931 1_455 S
C81 C79 1.383 . S
C81 C82 1.393 . S
C81 H109 0.930 . S
C82 C80 1.403 . S
C82 C81 1.393 . S
C83 C79 1.388 . S
C83 C84 1.394 . S
C83 H110 0.930 . S
C84 C80 1.385 . S
C84 C83 1.394 . S
Eu85 O87 2.323 . S
Eu85 O88 2.328 . S
Eu85 O89 2.316 . S
Eu85 O92 2.488 . S
Eu85 C93 2.837 . S
Eu85 O96 2.461 . S
O86 Eu76 2.328 . S
O86 C106 1.251 . S
O87 Eu85 2.323 . S
O87 C90 1.279 . S
O88 C77 1.251 . S
O88 Eu85 2.328 . S
O89 Eu85 2.316 . S
O89 C106 1.237 . S
C90 O87 1.279 . S
C90 O91 1.244 . S
O91 C90 1.244 . S
O92 Eu85 2.488 . S
O92 C93 1.271 . S
C93 C79 1.491 . S
C93 Eu85 2.837 . S
C93 O92 1.271 . S
C93 O96 1.261 . S
C94 O78 1.279 . S
C94 O95 1.244 . S
O95 C94 1.244 . S
O96 Eu85 2.461 . S
O96 C93 1.261 . S
O97 Eu76 2.316 . S
O97 C77 1.237 . S
C98 Eu76 2.837 . S
C98 O99 1.271 . S
C98 C100 1.491 . S
C98 O107 1.261 . S
O99 Eu76 2.488 . S
O99 C98 1.271 . S
C100 C98 1.491 . S
C100 C102 1.383 . S
C100 C104 1.388 . S
C101 C103 1.403 . S
C101 C105 1.385 . S
C101 H111 0.931 . S
C102 C100 1.383 . S
C102 C103 1.393 . S
C102 H112 0.930 . S
C103 C101 1.403 . S
C103 C102 1.393 . S
C104 C100 1.388 . S
C104 C105 1.394 . S
C104 H113 0.930 . S
C105 C101 1.385 . S
C105 C104 1.394 . S
C106 O86 1.251 . S
C106 O89 1.237 . S
O107 Eu76 2.461 . S
O107 C98 1.261 . S
H108 C80 0.931 1_655 S
H109 C81 0.930 . S
H110 C83 0.930 . S
H111 C101 0.931 . S
H112 C102 0.930 . S
H113 C104 0.930 . S
Eu114 O116 2.323 . S
Eu114 O124 2.328 . S
Eu114 O135 2.316 . S
Eu114 C136 2.837 . S
Eu114 O137 2.488 . S
Eu114 O145 2.461 . S
C115 O126 1.251 . S
C115 O135 1.237 . S
O116 Eu114 2.323 . S
O116 C132 1.279 . S
C117 C119 1.383 . S
C117 C121 1.388 . S
C117 C131 1.491 . S
C118 C120 1.403 . S
C118 C122 1.385 . S
C118 H146 0.931 . S
C119 C117 1.383 . S
C119 C120 1.393 . S
C119 H147 0.930 . S
C120 C118 1.403 . S
C120 C119 1.393 . S
C121 C117 1.388 . S
C121 C122 1.394 . S
C121 H148 0.930 . S
C122 C118 1.385 . S
C122 C121 1.394 . S
Eu123 O125 2.323 . S
Eu123 O126 2.328 . S
Eu123 O127 2.316 . S
Eu123 O130 2.488 . S
Eu123 C131 2.837 . S
Eu123 O134 2.461 . S
O124 Eu114 2.328 . S
O124 C144 1.251 . S
O125 Eu123 2.323 . S
O125 C128 1.279 . S
O126 C115 1.251 . S
O126 Eu123 2.328 . S
O127 Eu123 2.316 . S
O127 C144 1.237 . S
C128 O125 1.279 . S
C128 O129 1.244 . S
O129 C128 1.244 . S
O130 Eu123 2.488 . S
O130 C131 1.271 . S
C131 C117 1.491 . S
C131 Eu123 2.837 . S
C131 O130 1.271 . S
C131 O134 1.261 . S
C132 O116 1.279 . S
C132 O133 1.244 . S
O133 C132 1.244 . S
O134 Eu123 2.461 . S
O134 C131 1.261 . S
O135 Eu114 2.316 . S
O135 C115 1.237 . S
C136 Eu114 2.837 . S
C136 O137 1.271 . S
C136 C138 1.491 . S
C136 O145 1.261 . S
O137 Eu114 2.488 . S
O137 C136 1.271 . S
C138 C136 1.491 . S
C138 C140 1.383 . S
C138 C142 1.388 . S
C139 C141 1.403 . S
C139 C143 1.385 . S
C139 H149 0.931 1_655 S
C140 C138 1.383 . S
C140 C141 1.393 . S
C140 H150 0.930 . S
C141 C139 1.403 . S
C141 C140 1.393 . S
C142 C138 1.388 . S
C142 C143 1.394 . S
C142 H151 0.930 . S
C143 C139 1.385 . S
C143 C142 1.394 . S
C144 O124 1.251 . S
C144 O127 1.237 . S
O145 Eu114 2.461 . S
O145 C136 1.261 . S
H146 C118 0.931 . S
H147 C119 0.930 . S
H148 C121 0.930 . S
H149 C139 0.931 1_455 S
H150 C140 0.930 . S
H151 C142 0.930 . S
C152 C153 1.349 . S
C152 C154 1.327 . S
C152 H177 0.950 . S
C153 C152 1.349 . S
C153 C169 1.349 . S
C154 C152 1.327 . S
C154 C173 1.429 . S
C154 H178 0.950 . S
C155 C172 1.574 . S
C155 C174 1.368 1_554 S
C155 H179 0.949 . S
H156 C160 0.949 . S
C157 C158 1.349 . S
C157 C159 1.327 . S
C157 H180 0.950 . S
C158 C157 1.349 . S
C158 C170 1.349 . S
C159 C157 1.327 . S
C159 C175 1.429 . S
C159 H181 0.950 . S
C160 H156 0.949 . S
C160 C168 1.574 . S
C160 C176 1.368 1_556 S
H161 C169 0.950 . S
H162 C167 0.950 . S
H163 C168 0.949 . S
H164 C170 0.950 . S
H165 C171 0.950 . S
H166 C172 0.949 . S
C167 H162 0.950 . S
C167 C169 1.327 . S
C167 C173 1.429 . S
C168 C160 1.574 . S
C168 H163 0.949 . S
C168 C174 1.368 . S
C169 C153 1.349 . S
C169 H161 0.950 . S
C169 C167 1.327 . S
C170 C158 1.349 . S
C170 H164 0.950 . S
C170 C171 1.327 . S
C171 H165 0.950 . S
C171 C170 1.327 . S
C171 C175 1.429 . S
C172 C155 1.574 . S
C172 H166 0.949 . S
C172 C176 1.368 . S
C173 C154 1.429 . S
C173 C167 1.429 . S
C173 C174 1.523 . S
C174 C155 1.368 1_556 S
C174 C168 1.368 . S
C174 C173 1.523 . S
C175 C159 1.429 . S
C175 C171 1.429 . S
C175 C176 1.523 . S
C176 C160 1.368 1_554 S
C176 C172 1.368 . S
C176 C175 1.523 . S
H177 C152 0.950 . S
H178 C154 0.950 . S
H179 C155 0.949 . S
H180 C157 0.950 . S
H181 C159 0.950 . S
C182 C183 1.349 . S
C182 C184 1.327 . S
C182 H207 0.950 . S
C183 C182 1.349 . S
C183 C199 1.349 . S
C184 C182 1.327 . S
C184 C203 1.429 . S
C184 H208 0.950 . S
C185 C202 1.574 1_556 S
C185 C204 1.368 . S
C185 H209 0.949 . S
H186 C190 0.949 . S
C187 C188 1.349 . S
C187 C189 1.327 . S
C187 H210 0.950 . S
C188 C187 1.349 . S
C188 C200 1.349 . S
C189 C187 1.327 . S
C189 C205 1.429 . S
C189 H211 0.950 . S
C190 H186 0.949 . S
C190 C198 1.574 1_554 S
C190 C206 1.368 . S
H191 C199 0.950 . S
H192 C197 0.950 . S
H193 C198 0.949 . S
H194 C200 0.950 . S
H195 C201 0.950 . S
H196 C202 0.949 . S
C197 H192 0.950 . S
C197 C199 1.327 . S
C197 C203 1.429 . S
C198 C190 1.574 1_556 S
C198 H193 0.949 . S
C198 C204 1.368 . S
C199 C183 1.349 . S
C199 H191 0.950 . S
C199 C197 1.327 . S
C200 C188 1.349 . S
C200 H194 0.950 . S
C200 C201 1.327 . S
C201 H195 0.950 . S
C201 C200 1.327 . S
C201 C205 1.429 . S
C202 C185 1.574 1_554 S
C202 H196 0.949 . S
C202 C206 1.368 . S
C203 C184 1.429 . S
C203 C197 1.429 . S
C203 C204 1.523 . S
C204 C185 1.368 . S
C204 C198 1.368 . S
C204 C203 1.523 . S
C205 C189 1.429 . S
C205 C201 1.429 . S
C205 C206 1.523 . S
C206 C190 1.368 . S
C206 C202 1.368 . S
C206 C205 1.523 . S
H207 C182 0.950 . S
H208 C184 0.950 . S
H209 C185 0.949 . S
H210 C187 0.950 . S
H211 C189 0.950 . S
C212 C213 1.349 . S
C212 C214 1.327 . S
C212 H237 0.950 . S
C213 C212 1.349 . S
C213 C229 1.349 . S
C214 C212 1.327 . S
C214 C233 1.429 . S
C214 H238 0.950 . S
C215 C232 1.574 . S
C215 C234 1.368 . S
C215 H239 0.949 . S
H216 C220 0.949 . S
C217 C218 1.349 . S
C217 C219 1.327 . S
C217 H240 0.950 . S
C218 C217 1.349 . S
C218 C230 1.349 . S
C219 C217 1.327 . S
C219 C235 1.429 . S
C219 H241 0.950 . S
C220 H216 0.949 . S
C220 C228 1.574 . S
C220 C236 1.368 . S
H221 C229 0.950 . S
H222 C227 0.950 . S
H223 C228 0.949 . S
H224 C230 0.950 . S
H225 C231 0.950 . S
H226 C232 0.949 . S
C227 H222 0.950 . S
C227 C229 1.327 . S
C227 C233 1.429 . S
C228 C220 1.574 . S
C228 H223 0.949 . S
C228 C234 1.368 . S
C229 C213 1.349 . S
C229 H221 0.950 . S
C229 C227 1.327 . S
C230 C218 1.349 . S
C230 H224 0.950 . S
C230 C231 1.327 . S
C231 H225 0.950 . S
C231 C230 1.327 . S
C231 C235 1.429 . S
C232 C215 1.574 . S
C232 H226 0.949 . S
C232 C236 1.368 . S
C233 C214 1.429 . S
C233 C227 1.429 . S
C233 C234 1.523 . S
C234 C215 1.368 . S
C234 C228 1.368 . S
C234 C233 1.523 . S
C235 C219 1.429 . S
C235 C231 1.429 . S
C235 C236 1.523 . S
C236 C220 1.368 . S
C236 C232 1.368 . S
C236 C235 1.523 . S
H237 C212 0.950 . S
H238 C214 0.950 . S
H239 C215 0.949 . S
H240 C217 0.950 . S
H241 C219 0.950 . S
C242 C243 1.349 . S
C242 C244 1.327 . S
C242 H267 0.950 . S
C243 C242 1.349 . S
C243 C259 1.349 . S
C244 C242 1.327 . S
C244 C263 1.429 . S
C244 H268 0.950 . S
C245 C262 1.574 . S
C245 C264 1.368 . S
C245 H269 0.949 . S
H246 C250 0.949 . S
C247 C248 1.349 . S
C247 C249 1.327 . S
C247 H270 0.950 . S
C248 C247 1.349 . S
C248 C260 1.349 . S
C249 C247 1.327 . S
C249 C265 1.429 . S
C249 H271 0.950 . S
C250 H246 0.949 . S
C250 C258 1.574 . S
C250 C266 1.368 . S
H251 C259 0.950 . S
H252 C257 0.950 . S
H253 C258 0.949 . S
H254 C260 0.950 . S
H255 C261 0.950 . S
H256 C262 0.949 . S
C257 H252 0.950 . S
C257 C259 1.327 . S
C257 C263 1.429 . S
C258 C250 1.574 . S
C258 H253 0.949 . S
C258 C264 1.368 . S
C259 C243 1.349 . S
C259 H251 0.950 . S
C259 C257 1.327 . S
C260 C248 1.349 . S
C260 H254 0.950 . S
C260 C261 1.327 . S
C261 H255 0.950 . S
C261 C260 1.327 . S
C261 C265 1.429 . S
C262 C245 1.574 . S
C262 H256 0.949 . S
C262 C266 1.368 . S
C263 C244 1.429 . S
C263 C257 1.429 . S
C263 C264 1.523 . S
C264 C245 1.368 . S
C264 C258 1.368 . S
C264 C263 1.523 . S
C265 C249 1.429 . S
C265 C261 1.429 . S
C265 C266 1.523 . S
C266 C250 1.368 . S
C266 C262 1.368 . S
C266 C265 1.523 . S
H267 C242 0.950 . S
H268 C244 0.950 . S
H269 C245 0.949 . S
H270 C247 0.950 . S
H271 C249 0.950 . S
C272 C273 1.349 1_554 S
C272 C274 1.327 . S
C272 H297 0.950 . S
C273 C272 1.349 1_556 S
C273 C289 1.349 . S
C274 C272 1.327 . S
C274 C293 1.429 1_554 S
C274 H298 0.950 . S
C275 C292 1.574 . S
C275 C294 1.380 . S
C275 H299 0.949 . S
H276 C280 0.949 . S
C277 C278 1.349 1_556 S
C277 C279 1.327 . S
C277 H300 0.950 . S
C278 C277 1.349 1_554 S
C278 C290 1.349 . S
C279 C277 1.327 . S
C279 C295 1.429 1_556 S
C279 H301 0.950 . S
C280 H276 0.949 . S
C280 C288 1.574 . S
C280 C296 1.387 . S
H281 C289 0.950 . S
H282 C287 0.950 . S
H283 C288 0.949 . S
H284 C290 0.950 . S
H285 C291 0.950 . S
H286 C292 0.949 . S
C287 H282 0.950 . S
C287 C289 1.327 . S
C287 C293 1.429 . S
C288 C280 1.574 . S
C288 H283 0.949 . S
C288 C294 1.358 1_554 S
C289 C273 1.349 . S
C289 H281 0.950 . S
C289 C287 1.327 . S
C290 C278 1.349 . S
C290 H284 0.950 . S
C290 C291 1.327 . S
C291 H285 0.950 . S
C291 C290 1.327 . S
C291 C295 1.429 . S
C292 C275 1.574 . S
C292 H286 0.949 . S
C292 C296 1.352 1_556 S
C293 C274 1.429 1_556 S
C293 C287 1.429 . S
C293 C294 1.522 . S
C294 C275 1.380 . S
C294 C288 1.358 1_556 S
C294 C293 1.522 . S
C295 C279 1.429 1_554 S
C295 C291 1.429 . S
C295 C296 1.521 . S
C296 C280 1.387 . S
C296 C292 1.352 1_554 S
C296 C295 1.521 . S
H297 C272 0.950 . S
H298 C274 0.950 . S
H299 C275 0.949 . S
H300 C277 0.950 . S
H301 C279 0.950 . S
C302 C303 1.349 . S
C302 C304 1.327 . S
C302 H327 0.950 . S
C303 C302 1.349 . S
C303 C319 1.349 . S
C304 C302 1.327 . S
C304 C323 1.429 . S
C304 H328 0.950 . S
C305 C322 1.574 . S
C305 C324 1.368 . S
C305 H329 0.949 . S
H306 C310 0.949 . S
C307 C308 1.349 . S
C307 C309 1.327 . S
C307 H330 0.950 . S
C308 C307 1.349 . S
C308 C320 1.349 . S
C309 C307 1.327 . S
C309 C325 1.429 . S
C309 H331 0.950 . S
C310 H306 0.949 . S
C310 C318 1.574 . S
C310 C326 1.368 . S
H311 C319 0.950 . S
H312 C317 0.950 . S
H313 C318 0.949 . S
H314 C320 0.950 . S
H315 C321 0.950 . S
H316 C322 0.949 . S
C317 H312 0.950 . S
C317 C319 1.327 . S
C317 C323 1.429 . S
C318 C310 1.574 . S
C318 H313 0.949 . S
C318 C324 1.368 . S
C319 C303 1.349 . S
C319 H311 0.950 . S
C319 C317 1.327 . S
C320 C308 1.349 . S
C320 H314 0.950 . S
C320 C321 1.327 . S
C321 H315 0.950 . S
C321 C320 1.327 . S
C321 C325 1.429 . S
C322 C305 1.574 . S
C322 H316 0.949 . S
C322 C326 1.368 . S
C323 C304 1.429 . S
C323 C317 1.429 . S
C323 C324 1.523 . S
C324 C305 1.368 . S
C324 C318 1.368 . S
C324 C323 1.523 . S
C325 C309 1.429 . S
C325 C321 1.429 . S
C325 C326 1.523 . S
C326 C310 1.368 . S
C326 C322 1.368 . S
C326 C325 1.523 . S
H327 C302 0.950 . S
H328 C304 0.950 . S
H329 C305 0.949 . S
H330 C307 0.950 . S
H331 C309 0.950 . S
C332 C333 1.349 . S
C332 C334 1.327 . S
C332 H357 0.950 . S
C333 C332 1.349 . S
C333 C349 1.349 1_556 S
C334 C332 1.327 . S
C334 C353 1.429 . S
C334 H358 0.950 . S
C335 C352 1.574 1_445 S
C335 C354 1.357 1_554 S
C335 H359 0.949 . S
H336 C340 0.949 . S
C337 C338 1.349 . S
C337 C339 1.327 . S
C337 H360 0.950 . S
C338 C337 1.349 . S
C338 C350 1.349 1_554 S
C339 C337 1.327 . S
C339 C355 1.429 . S
C339 H361 0.950 . S
C340 H336 0.949 . S
C340 C348 1.574 1_665 S
C340 C356 1.350 1_556 S
H341 C349 0.950 . S
H342 C347 0.950 . S
H343 C348 0.949 . S
H344 C350 0.950 . S
H345 C351 0.950 . S
H346 C352 0.949 . S
C347 H342 0.950 . S
C347 C349 1.327 . S
C347 C353 1.429 1_554 S
C348 C340 1.574 1_445 S
C348 H343 0.949 . S
C348 C354 1.381 . S
C349 C333 1.349 1_554 S
C349 H341 0.950 . S
C349 C347 1.327 . S
C350 C338 1.349 1_556 S
C350 H344 0.950 . S
C350 C351 1.327 . S
C351 H345 0.950 . S
C351 C350 1.327 . S
C351 C355 1.429 1_556 S
C352 C335 1.574 1_665 S
C352 H346 0.949 . S
C352 C356 1.388 . S
C353 C334 1.429 . S
C353 C347 1.429 1_556 S
C353 C354 1.522 . S
C354 C335 1.357 1_556 S
C354 C348 1.381 . S
C354 C353 1.522 . S
C355 C339 1.429 . S
C355 C351 1.429 1_554 S
C355 C356 1.521 . S
C356 C340 1.350 1_554 S
C356 C352 1.388 . S
C356 C355 1.521 . S
H357 C332 0.950 . S
H358 C334 0.950 . S
H359 C335 0.949 . S
H360 C337 0.950 . S
H361 C339 0.950 . S
C362 C363 1.349 . S
C362 C364 1.327 . S
C362 H387 0.950 . S
C363 C362 1.349 . S
C363 C379 1.349 . S
C364 C362 1.327 . S
C364 C383 1.429 . S
C364 H388 0.950 . S
C365 C382 1.574 1_655 S
C365 C384 1.368 1_565 S
C365 H389 0.949 . S
H366 C370 0.949 . S
C367 C368 1.349 . S
C367 C369 1.327 . S
C367 H390 0.950 . S
C368 C367 1.349 . S
C368 C380 1.349 . S
C369 C367 1.327 . S
C369 C385 1.429 . S
C369 H391 0.950 . S
C370 H366 0.949 . S
C370 C378 1.574 1_455 S
C370 C386 1.368 1_545 S
H371 C379 0.950 . S
H372 C377 0.950 . S
H373 C378 0.949 . S
H374 C380 0.950 . S
H375 C381 0.950 . S
H376 C382 0.949 . S
C377 H372 0.950 . S
C377 C379 1.327 . S
C377 C383 1.429 . S
C378 C370 1.574 1_655 S
C378 H373 0.949 . S
C378 C384 1.368 . S
C379 C363 1.349 . S
C379 H371 0.950 . S
C379 C377 1.327 . S
C380 C368 1.349 . S
C380 H374 0.950 . S
C380 C381 1.327 . S
C381 H375 0.950 . S
C381 C380 1.327 . S
C381 C385 1.429 . S
C382 C365 1.574 1_455 S
C382 H376 0.949 . S
C382 C386 1.368 . S
C383 C364 1.429 . S
C383 C377 1.429 . S
C383 C384 1.523 . S
C384 C365 1.368 1_545 S
C384 C378 1.368 . S
C384 C383 1.523 . S
C385 C369 1.429 . S
C385 C381 1.429 . S
C385 C386 1.523 . S
C386 C370 1.368 1_565 S
C386 C382 1.368 . S
C386 C385 1.523 . S
H387 C362 0.950 . S
H388 C364 0.950 . S
H389 C365 0.949 . S
H390 C367 0.950 . S
H391 C369 0.950 . S
C392 C393 1.349 . S
C392 C394 1.327 . S
C392 H417 0.950 . S
C393 C392 1.349 . S
C393 C409 1.349 . S
C394 C392 1.327 . S
C394 C413 1.429 . S
C394 H418 0.950 . S
C395 C412 1.574 . S
C395 C414 1.368 . S
C395 H419 0.949 . S
H396 C400 0.949 . S
C397 C398 1.349 . S
C397 C399 1.327 . S
C397 H420 0.950 . S
C398 C397 1.349 . S
C398 C410 1.349 . S
C399 C397 1.327 . S
C399 C415 1.429 . S
C399 H421 0.950 . S
C400 H396 0.949 . S
C400 C408 1.574 . S
C400 C416 1.368 . S
H401 C409 0.950 . S
H402 C407 0.950 . S
H403 C408 0.949 . S
H404 C410 0.950 . S
H405 C411 0.950 . S
H406 C412 0.949 . S
C407 H402 0.950 . S
C407 C409 1.327 . S
C407 C413 1.429 . S
C408 C400 1.574 . S
C408 H403 0.949 . S
C408 C414 1.368 . S
C409 C393 1.349 . S
C409 H401 0.950 . S
C409 C407 1.327 . S
C410 C398 1.349 . S
C410 H404 0.950 . S
C410 C411 1.327 . S
C411 H405 0.950 . S
C411 C410 1.327 . S
C411 C415 1.429 . S
C412 C395 1.574 . S
C412 H406 0.949 . S
C412 C416 1.368 . S
C413 C394 1.429 . S
C413 C407 1.429 . S
C413 C414 1.523 . S
C414 C395 1.368 . S
C414 C408 1.368 . S
C414 C413 1.523 . S
C415 C399 1.429 . S
C415 C411 1.429 . S
C415 C416 1.523 . S
C416 C400 1.368 . S
C416 C412 1.368 . S
C416 C415 1.523 . S
H417 C392 0.950 . S
H418 C394 0.950 . S
H419 C395 0.949 . S
H420 C397 0.950 . S
H421 C399 0.950 . S
C422 C423 1.349 . S
C422 C424 1.327 . S
C422 H447 0.950 . S
C423 C422 1.349 . S
C423 C439 1.349 . S
C424 C422 1.327 . S
C424 C443 1.429 . S
C424 H448 0.950 . S
C425 C442 1.574 . S
C425 C444 1.368 . S
C425 H449 0.949 . S
H426 C430 0.949 . S
C427 C428 1.349 . S
C427 C429 1.327 . S
C427 H450 0.950 . S
C428 C427 1.349 . S
C428 C440 1.349 . S
C429 C427 1.327 . S
C429 C445 1.429 . S
C429 H451 0.950 . S
C430 H426 0.949 . S
C430 C438 1.574 . S
C430 C446 1.368 . S
H431 C439 0.950 . S
H432 C437 0.950 . S
H433 C438 0.949 . S
H434 C440 0.950 . S
H435 C441 0.950 . S
H436 C442 0.949 . S
C437 H432 0.950 . S
C437 C439 1.327 . S
C437 C443 1.429 . S
C438 C430 1.574 . S
C438 H433 0.949 . S
C438 C444 1.368 . S
C439 C423 1.349 . S
C439 H431 0.950 . S
C439 C437 1.327 . S
C440 C428 1.349 . S
C440 H434 0.950 . S
C440 C441 1.327 . S
C441 H435 0.950 . S
C441 C440 1.327 . S
C441 C445 1.429 . S
C442 C425 1.574 . S
C442 H436 0.949 . S
C442 C446 1.368 . S
C443 C424 1.429 . S
C443 C437 1.429 . S
C443 C444 1.523 . S
C444 C425 1.368 . S
C444 C438 1.368 . S
C444 C443 1.523 . S
C445 C429 1.429 . S
C445 C441 1.429 . S
C445 C446 1.523 . S
C446 C430 1.368 . S
C446 C442 1.368 . S
C446 C445 1.523 . S
H447 C422 0.950 . S
H448 C424 0.950 . S
H449 C425 0.949 . S
H450 C427 0.950 . S
H451 C429 0.950 . S
C452 C453 1.349 . S
C452 C454 1.327 . S
C452 H477 0.950 . S
C453 C452 1.349 . S
C453 C469 1.349 . S
C454 C452 1.327 . S
C454 C473 1.429 . S
C454 H478 0.950 . S
C455 C472 1.574 . S
C455 C474 1.368 . S
C455 H479 0.949 . S
H456 C460 0.949 . S
C457 C458 1.349 . S
C457 C459 1.327 . S
C457 H480 0.950 . S
C458 C457 1.349 . S
C458 C470 1.349 . S
C459 C457 1.327 . S
C459 C475 1.429 . S
C459 H481 0.950 . S
C460 H456 0.949 . S
C460 C468 1.574 . S
C460 C476 1.368 . S
H461 C469 0.950 . S
H462 C467 0.950 . S
H463 C468 0.949 . S
H464 C470 0.950 . S
H465 C471 0.950 . S
H466 C472 0.949 . S
C467 H462 0.950 . S
C467 C469 1.327 . S
C467 C473 1.429 . S
C468 C460 1.574 . S
C468 H463 0.949 . S
C468 C474 1.368 . S
C469 C453 1.349 . S
C469 H461 0.950 . S
C469 C467 1.327 . S
C470 C458 1.349 . S
C470 H464 0.950 . S
C470 C471 1.327 . S
C471 H465 0.950 . S
C471 C470 1.327 . S
C471 C475 1.429 . S
C472 C455 1.574 . S
C472 H466 0.949 . S
C472 C476 1.368 . S
C473 C454 1.429 . S
C473 C467 1.429 . S
C473 C474 1.523 . S
C474 C455 1.368 . S
C474 C468 1.368 . S
C474 C473 1.523 . S
C475 C459 1.429 . S
C475 C471 1.429 . S
C475 C476 1.523 . S
C476 C460 1.368 . S
C476 C472 1.368 . S
C476 C475 1.523 . S
H477 C452 0.950 . S
H478 C454 0.950 . S
H479 C455 0.949 . S
H480 C457 0.950 . S
H481 C459 0.950 . S
C482 C483 1.349 . S
C482 C484 1.327 . S
C482 H507 0.950 . S
C483 C482 1.349 . S
C483 C499 1.349 . S
C484 C482 1.327 . S
C484 C503 1.429 . S
C484 H508 0.950 . S
C485 C502 1.574 . S
C485 C504 1.368 . S
C485 H509 0.949 . S
H486 C490 0.949 . S
C487 C488 1.349 . S
C487 C489 1.327 . S
C487 H510 0.950 . S
C488 C487 1.349 . S
C488 C500 1.349 . S
C489 C487 1.327 . S
C489 C505 1.429 . S
C489 H511 0.950 . S
C490 H486 0.949 . S
C490 C498 1.574 . S
C490 C506 1.368 . S
H491 C499 0.950 . S
H492 C497 0.950 . S
H493 C498 0.949 . S
H494 C500 0.950 . S
H495 C501 0.950 . S
H496 C502 0.949 . S
C497 H492 0.950 . S
C497 C499 1.327 . S
C497 C503 1.429 . S
C498 C490 1.574 . S
C498 H493 0.949 . S
C498 C504 1.368 . S
C499 C483 1.349 . S
C499 H491 0.950 . S
C499 C497 1.327 . S
C500 C488 1.349 . S
C500 H494 0.950 . S
C500 C501 1.327 . S
C501 H495 0.950 . S
C501 C500 1.327 . S
C501 C505 1.429 . S
C502 C485 1.574 . S
C502 H496 0.949 . S
C502 C506 1.368 . S
C503 C484 1.429 . S
C503 C497 1.429 . S
C503 C504 1.523 . S
C504 C485 1.368 . S
C504 C498 1.368 . S
C504 C503 1.523 . S
C505 C489 1.429 . S
C505 C501 1.429 . S
C505 C506 1.523 . S
C506 C490 1.368 . S
C506 C502 1.368 . S
C506 C505 1.523 . S
H507 C482 0.950 . S
H508 C484 0.950 . S
H509 C485 0.949 . S
H510 C487 0.950 . S
H511 C489 0.950 . S
C512 C513 1.349 . S
C512 C514 1.327 . S
C512 H537 0.950 . S
C513 C512 1.349 . S
C513 C529 1.349 . S
C514 C512 1.327 . S
C514 C533 1.429 . S
C514 H538 0.950 . S
C515 C532 1.574 . S
C515 C534 1.368 . S
C515 H539 0.949 . S
H516 C520 0.949 . S
C517 C518 1.349 . S
C517 C519 1.327 . S
C517 H540 0.950 . S
C518 C517 1.349 . S
C518 C530 1.349 . S
C519 C517 1.327 . S
C519 C535 1.429 . S
C519 H541 0.950 . S
C520 H516 0.949 . S
C520 C528 1.574 1_655 S
C520 C536 1.368 . S
H521 C529 0.950 . S
H522 C527 0.950 1_655 S
H523 C528 0.949 . S
H524 C530 0.950 . S
H525 C531 0.950 . S
H526 C532 0.949 . S
C527 H522 0.950 1_455 S
C527 C529 1.327 . S
C527 C533 1.429 . S
C528 C520 1.574 1_455 S
C528 H523 0.949 . S
C528 C534 1.368 1_455 S
C529 C513 1.349 . S
C529 H521 0.950 . S
C529 C527 1.327 . S
C530 C518 1.349 . S
C530 H524 0.950 . S
C530 C531 1.327 . S
C531 H525 0.950 . S
C531 C530 1.327 . S
C531 C535 1.429 . S
C532 C515 1.574 . S
C532 H526 0.949 . S
C532 C536 1.368 . S
C533 C514 1.429 . S
C533 C527 1.429 . S
C533 C534 1.523 1_455 S
C534 C515 1.368 . S
C534 C528 1.368 1_655 S
C534 C533 1.523 1_655 S
C535 C519 1.429 . S
C535 C531 1.429 . S
C535 C536 1.523 . S
C536 C520 1.368 . S
C536 C532 1.368 . S
C536 C535 1.523 . S
H537 C512 0.950 . S
H538 C514 0.950 . S
H539 C515 0.949 . S
H540 C517 0.950 . S
H541 C519 0.950 . S
C542 C543 1.349 . S
C542 C544 1.327 . S
C542 H567 0.950 . S
C543 C542 1.349 . S
C543 C559 1.349 . S
C544 C542 1.327 . S
C544 C563 1.429 . S
C544 H568 0.950 . S
C545 C562 1.574 . S
C545 C564 1.368 . S
C545 H569 0.949 . S
H546 C550 0.949 . S
C547 C548 1.349 . S
C547 C549 1.327 . S
C547 H570 0.950 . S
C548 C547 1.349 . S
C548 C560 1.349 . S
C549 C547 1.327 . S
C549 C565 1.429 . S
C549 H571 0.950 1_455 S
C550 H546 0.949 . S
C550 C558 1.574 1_455 S
C550 C566 1.368 1_455 S
H551 C559 0.950 . S
H552 C557 0.950 . S
H553 C558 0.949 . S
H554 C560 0.950 . S
H555 C561 0.950 . S
H556 C562 0.949 . S
C557 H552 0.950 . S
C557 C559 1.327 . S
C557 C563 1.429 . S
C558 C550 1.574 1_655 S
C558 H553 0.949 . S
C558 C564 1.368 . S
C559 C543 1.349 . S
C559 H551 0.950 . S
C559 C557 1.327 . S
C560 C548 1.349 . S
C560 H554 0.950 . S
C560 C561 1.327 . S
C561 H555 0.950 . S
C561 C560 1.327 . S
C561 C565 1.429 . S
C562 C545 1.574 . S
C562 H556 0.949 . S
C562 C566 1.368 . S
C563 C544 1.429 . S
C563 C557 1.429 . S
C563 C564 1.523 . S
C564 C545 1.368 . S
C564 C558 1.368 . S
C564 C563 1.523 . S
C565 C549 1.429 . S
C565 C561 1.429 . S
C565 C566 1.523 1_455 S
C566 C550 1.368 1_655 S
C566 C562 1.368 . S
C566 C565 1.523 1_655 S
H567 C542 0.950 . S
H568 C544 0.950 . S
H569 C545 0.949 . S
H570 C547 0.950 . S
H571 C549 0.950 1_655 S
C572 C573 1.349 . S
C572 C574 1.327 . S
C572 H597 0.950 . S
C573 C572 1.349 . S
C573 C589 1.349 . S
C574 C572 1.327 . S
C574 C593 1.429 . S
C574 H598 0.950 . S
C575 C592 1.574 1_455 S
C575 C594 1.368 . S
C575 H599 0.949 . S
H576 C580 0.949 . S
C577 C578 1.349 . S
C577 C579 1.327 . S
C577 H600 0.950 . S
C578 C577 1.349 . S
C578 C590 1.349 . S
C579 C577 1.327 . S
C579 C595 1.429 . S
C579 H601 0.950 . S
C580 H576 0.949 . S
C580 C588 1.574 . S
C580 C596 1.368 . S
H581 C589 0.950 . S
H582 C587 0.950 . S
H583 C588 0.949 . S
H584 C590 0.950 . S
H585 C591 0.950 1_455 S
H586 C592 0.949 . S
C587 H582 0.950 . S
C587 C589 1.327 . S
C587 C593 1.429 . S
C588 C580 1.574 . S
C588 H583 0.949 . S
C588 C594 1.368 . S
C589 C573 1.349 . S
C589 H581 0.950 . S
C589 C587 1.327 . S
C590 C578 1.349 . S
C590 H584 0.950 . S
C590 C591 1.327 . S
C591 H585 0.950 1_655 S
C591 C590 1.327 . S
C591 C595 1.429 . S
C592 C575 1.574 1_655 S
C592 H586 0.949 . S
C592 C596 1.368 1_655 S
C593 C574 1.429 . S
C593 C587 1.429 . S
C593 C594 1.523 . S
C594 C575 1.368 . S
C594 C588 1.368 . S
C594 C593 1.523 . S
C595 C579 1.429 . S
C595 C591 1.429 . S
C595 C596 1.523 1_655 S
C596 C580 1.368 . S
C596 C592 1.368 1_455 S
C596 C595 1.523 1_455 S
H597 C572 0.950 . S
H598 C574 0.950 . S
H599 C575 0.949 . S
H600 C577 0.950 . S
H601 C579 0.950 . S
C602 C603 1.349 . S
C602 C604 1.327 . S
C602 H627 0.950 . S
C603 C602 1.349 . S
C603 C619 1.349 . S
C604 C602 1.327 . S
C604 C623 1.429 . S
C604 H628 0.950 . S
C605 C622 1.574 1_455 S
C605 C624 1.368 . S
C605 H629 0.949 1_455 S
H606 C610 0.949 . S
C607 C608 1.349 . S
C607 C609 1.327 . S
C607 H630 0.950 . S
C608 C607 1.349 . S
C608 C620 1.349 . S
C609 C607 1.327 . S
C609 C625 1.429 . S
C609 H631 0.950 . S
C610 H606 0.949 . S
C610 C618 1.574 . S
C610 C626 1.368 . S
H611 C619 0.950 . S
H612 C617 0.950 . S
H613 C618 0.949 . S
H614 C620 0.950 . S
H615 C621 0.950 . S
H616 C622 0.949 . S
C617 H612 0.950 . S
C617 C619 1.327 . S
C617 C623 1.429 . S
C618 C610 1.574 . S
C618 H613 0.949 . S
C618 C624 1.368 . S
C619 C603 1.349 . S
C619 H611 0.950 . S
C619 C617 1.327 . S
C620 C608 1.349 . S
C620 H614 0.950 . S
C620 C621 1.327 1_655 S
C621 H615 0.950 . S
C621 C620 1.327 1_455 S
C621 C625 1.429 1_455 S
C622 C605 1.574 1_655 S
C622 H616 0.949 . S
C622 C626 1.368 1_655 S
C623 C604 1.429 . S
C623 C617 1.429 . S
C623 C624 1.523 . S
C624 C605 1.368 . S
C624 C618 1.368 . S
C624 C623 1.523 . S
C625 C609 1.429 . S
C625 C621 1.429 1_655 S
C625 C626 1.523 1_655 S
C626 C610 1.368 . S
C626 C622 1.368 1_455 S
C626 C625 1.523 1_455 S
H627 C602 0.950 . S
H628 C604 0.950 . S
H629 C605 0.949 1_655 S
H630 C607 0.950 . S
H631 C609 0.950 . S
C153 C27 1.862 . S
C158 C6 1.862 1_655 S
C183 C65 1.862 1_455 S
C188 C44 1.862 . S
C213 C103 1.862 . S
C218 C82 1.862 1_655 S
C243 C141 1.862 1_455 S
C248 C120 1.862 . S
C273 C68 1.583 . S
C278 C1 1.583 . S
C303 C144 1.583 . S
C308 C77 1.583 . S
C333 C30 1.583 . S
C338 C39 1.583 . S
C363 C115 1.583 . S
C368 C106 1.583 . S
C393 C122 1.082 . S
C398 C18 1.115 . S
C423 C46 1.082 . S
C428 C94 1.115 . S
C453 C105 1.082 . S
C458 C52 1.121 . S
C483 C29 1.082 . S
C488 C128 1.121 . S
C513 C84 1.082 . S
C518 C56 1.115 . S
C543 C132 1.118 . S
C548 C8 1.078 . S
C573 C14 1.118 . S
C578 C143 1.086 . S
C603 C90 1.118 . S
C608 C67 1.086 . S
