# Generated by pormake.
# Topology wkd, (5)-cn, num edge types: 1
# Building blocks:
#     Node 0, Type 0, BuildingBlock: XOMCOT_clean_sbu_0, # of connection points: 5
#     Node 1, Type 0, BuildingBlock: XOMCOT_clean_sbu_0, # of connection points: 5
#     Node 2, Type 0, BuildingBlock: XOMCOT_clean_sbu_0, # of connection points: 5
#     Node 3, Type 0, BuildingBlock: XOMCOT_clean_sbu_0, # of connection points: 5
#     Node 4, Type 0, BuildingBlock: XOMCOT_clean_sbu_0, # of connection points: 5
#     Node 5, Type 0, BuildingBlock: XOMCOT_clean_sbu_0, # of connection points: 5
#     Node 6, Type 0, BuildingBlock: XOMCOT_clean_sbu_0, # of connection points: 5
#     Node 7, Type 0, BuildingBlock: XOMCOT_clean_sbu_0, # of connection points: 5
#     Node 8, Type 0, BuildingBlock: XOMCOT_clean_sbu_0, # of connection points: 5
#     Node 9, Type 0, BuildingBlock: XOMCOT_clean_sbu_0, # of connection points: 5
#     Node 10, Type 0, BuildingBlock: XOMCOT_clean_sbu_0, # of connection points: 5
#     Node 11, Type 0, BuildingBlock: XOMCOT_clean_sbu_0, # of connection points: 5
#     Edge 12, Type (0, 0), BuildingBlock: UVAHIK_clean_linker_0, # of connection points: 2
#     Edge 13, Type (0, 0), BuildingBlock: UVAHIK_clean_linker_0, # of connection points: 2
#     Edge 14, Type (0, 0), BuildingBlock: UVAHIK_clean_linker_0, # of connection points: 2
#     Edge 15, Type (0, 0), BuildingBlock: UVAHIK_clean_linker_0, # of connection points: 2
#     Edge 16, Type (0, 0), BuildingBlock: UVAHIK_clean_linker_0, # of connection points: 2
#     Edge 17, Type (0, 0), BuildingBlock: UVAHIK_clean_linker_0, # of connection points: 2
#     Edge 18, Type (0, 0), BuildingBlock: UVAHIK_clean_linker_0, # of connection points: 2
#     Edge 19, Type (0, 0), BuildingBlock: UVAHIK_clean_linker_0, # of connection points: 2
#     Edge 20, Type (0, 0), BuildingBlock: UVAHIK_clean_linker_0, # of connection points: 2
#     Edge 21, Type (0, 0), BuildingBlock: UVAHIK_clean_linker_0, # of connection points: 2
#     Edge 22, Type (0, 0), BuildingBlock: UVAHIK_clean_linker_0, # of connection points: 2
#     Edge 23, Type (0, 0), BuildingBlock: UVAHIK_clean_linker_0, # of connection points: 2
#     Edge 24, Type (0, 0), BuildingBlock: UVAHIK_clean_linker_0, # of connection points: 2
#     Edge 25, Type (0, 0), BuildingBlock: UVAHIK_clean_linker_0, # of connection points: 2
#     Edge 26, Type (0, 0), BuildingBlock: UVAHIK_clean_linker_0, # of connection points: 2
#     Edge 27, Type (0, 0), BuildingBlock: UVAHIK_clean_linker_0, # of connection points: 2
#     Edge 28, Type (0, 0), BuildingBlock: UVAHIK_clean_linker_0, # of connection points: 2
#     Edge 29, Type (0, 0), BuildingBlock: UVAHIK_clean_linker_0, # of connection points: 2
#     Edge 30, Type (0, 0), BuildingBlock: UVAHIK_clean_linker_0, # of connection points: 2
#     Edge 31, Type (0, 0), BuildingBlock: UVAHIK_clean_linker_0, # of connection points: 2
#     Edge 32, Type (0, 0), BuildingBlock: UVAHIK_clean_linker_0, # of connection points: 2
#     Edge 33, Type (0, 0), BuildingBlock: UVAHIK_clean_linker_0, # of connection points: 2
#     Edge 34, Type (0, 0), BuildingBlock: UVAHIK_clean_linker_0, # of connection points: 2
#     Edge 35, Type (0, 0), BuildingBlock: UVAHIK_clean_linker_0, # of connection points: 2
#     Edge 36, Type (0, 0), BuildingBlock: UVAHIK_clean_linker_0, # of connection points: 2
#     Edge 37, Type (0, 0), BuildingBlock: UVAHIK_clean_linker_0, # of connection points: 2
#     Edge 38, Type (0, 0), BuildingBlock: UVAHIK_clean_linker_0, # of connection points: 2
#     Edge 39, Type (0, 0), BuildingBlock: UVAHIK_clean_linker_0, # of connection points: 2
#     Edge 40, Type (0, 0), BuildingBlock: UVAHIK_clean_linker_0, # of connection points: 2
#     Edge 41, Type (0, 0), BuildingBlock: UVAHIK_clean_linker_0, # of connection points: 2
# Relax obj value: 0.120
# Max RMSD: 0.193
# Mean RMSD: 0.193
data_MOF--net-wkd--node1-XOMCOT_clean_sbu_0--edge1-UVAHIK_clean_linker_0
_symmetry_space_group_name_H-M    P1
_symmetry_Int_Tables_number       1
_symmetry_cell_setting            triclinic
loop_
_symmetry_equiv_pos_as_xyz
'x, y, z'
_cell_length_a     32.464573
_cell_length_b     32.49103
_cell_length_c     137.91746
_cell_angle_alpha  90.036646
_cell_angle_beta   90.010977
_cell_angle_gamma 119.96563
loop_
_atom_site_label
_atom_site_type_symbol
_atom_site_fract_x
_atom_site_fract_y
_atom_site_fract_z
_atom_type_partial_charge
Co0 Co 0.02453 0.29633 0.04142 0.0
C1 C 0.99797 0.35837 0.03024 0.0
C2 C 0.9838 0.29598 0.02225 0.0
C3 C 0.97138 0.32282 0.01659 0.0
N4 N 1.00068 0.31817 0.03083 0.0
N5 N 0.9802 0.36191 0.02162 0.0
H6 H 0.00924 0.38493 0.03588 0.0
H7 H 0.9807 0.26261 0.02013 0.0
C8 C 0.00744 0.20068 0.0349 0.0
O9 O 0.04923 0.21165 0.03847 0.0
N10 N 0.04768 0.27429 0.05214 0.0
C11 C 0.0899 0.2979 0.05674 0.0
C12 C 0.09207 0.26903 0.06374 0.0
C13 C 0.02394 0.23202 0.05678 0.0
N14 N 0.05076 0.22732 0.06373 0.0
C15 C 0.12269 0.35867 0.03689 0.0
C16 C 0.12841 0.3125 0.02059 0.0
C17 C 0.16971 0.35247 0.02399 0.0
C18 C 0.16603 0.37618 0.03213 0.0
C19 C 0.08549 0.29615 0.02561 0.0
N20 N 0.08344 0.3175 0.03403 0.0
H21 H 0.12111 0.37894 0.04291 0.0
H22 H 0.05421 0.26671 0.02253 0.0
H23 H 0.11765 0.33362 0.05525 0.0
H24 H 0.98813 0.2049 0.05492 0.0
O25 O 0.04323 0.35399 0.0485 0.0
O26 O 0.97248 0.28935 0.04967 0.0
O27 O 0.99256 0.23044 0.03544 0.0
C28 C 1.00143 0.33286 0.05245 0.0
H29 H 0.95626 0.31387 0.00938 0.0
H30 H 0.1226 0.27783 0.06827 0.0
H31 H 0.12916 0.29385 0.01414 0.0
H32 H 0.1963 0.40871 0.03473 0.0
Co33 Co 0.73572 0.02546 0.20867 0.0
C34 C 0.64082 0.98267 0.19871 0.0
C35 C 0.69673 0.98908 0.18942 0.0
C36 C 0.65578 0.97171 0.18405 0.0
N37 N 0.68757 0.99594 0.19862 0.0
N38 N 0.62068 0.96783 0.18987 0.0
H39 H 0.62218 0.98562 0.20492 0.0
H40 H 0.73138 0.998 0.18667 0.0
C41 C 0.80692 0.99143 0.20418 0.0
O42 O 0.83793 0.02044 0.21052 0.0
N43 N 0.78344 0.05542 0.21876 0.0
C44 C 0.81018 0.10242 0.22043 0.0
C45 C 0.84031 0.10955 0.22805 0.0
C46 C 0.79561 0.03452 0.22579 0.0
N47 N 0.83175 0.06686 0.23135 0.0
C48 C 0.74693 0.10172 0.19691 0.0
C49 C 0.84053 0.13678 0.19146 0.0
C50 C 0.81616 0.15944 0.18808 0.0
C51 C 0.76874 0.14132 0.19089 0.0
C52 C 0.81712 0.09678 0.19744 0.0
N53 N 0.77083 0.07971 0.2001 0.0
H54 H 0.71045 0.08857 0.19905 0.0
H55 H 0.83691 0.08081 0.20009 0.0
H56 H 0.80875 0.12987 0.21627 0.0
H57 H 0.78014 0.99642 0.22644 0.0
O58 O 0.69897 0.04818 0.21529 0.0
O59 O 0.69321 0.97824 0.218 0.0
O60 O 0.76733 0.99039 0.20286 0.0
C61 C 0.67939 0.00863 0.22013 0.0
H62 H 0.65231 0.9632 0.1764 0.0
H63 H 0.8681 0.14375 0.23061 0.0
H64 H 0.87728 0.14977 0.18948 0.0
H65 H 0.74876 0.15817 0.18863 0.0
Co66 Co 0.71036 0.72706 0.37688 0.0
C67 C 0.64852 0.63805 0.36506 0.0
C68 C 0.71917 0.65145 0.36779 0.0
C69 C 0.69551 0.61026 0.36256 0.0
N70 N 0.69057 0.67008 0.36911 0.0
N71 N 0.65122 0.6019 0.36085 0.0
H72 H 0.61633 0.63989 0.36527 0.0
H73 H 0.75499 0.66668 0.37058 0.0
C74 C 0.78125 0.7554 0.36122 0.0
O75 O 0.74439 0.73391 0.3554 0.0
N76 N 0.73175 0.78261 0.38493 0.0
C77 C 0.70685 0.80373 0.38759 0.0
C78 C 0.7364 0.84412 0.3928 0.0
C79 C 0.77569 0.80975 0.38865 0.0
N80 N 0.77959 0.84777 0.39346 0.0
C81 C 0.63973 0.73469 0.36578 0.0
C82 C 0.69978 0.82254 0.35768 0.0
C83 C 0.65128 0.7995 0.35538 0.0
C84 C 0.62112 0.75522 0.35959 0.0
C85 C 0.71705 0.80034 0.36383 0.0
N86 N 0.68741 0.75588 0.36747 0.0
H87 H 0.61526 0.70277 0.36956 0.0
H88 H 0.75414 0.81958 0.36586 0.0
H89 H 0.67012 0.79116 0.3857 0.0
H90 H 0.80456 0.80258 0.38761 0.0
O91 O 0.6536 0.69431 0.38447 0.0
O92 O 0.72013 0.69345 0.38756 0.0
O93 O 0.775 0.75723 0.37035 0.0
C94 C 0.67578 0.67858 0.38977 0.0
H95 H 0.70926 0.58734 0.36042 0.0
H96 H 0.72687 0.86892 0.39587 0.0
H97 H 0.72407 0.85743 0.3548 0.0
H98 H 0.58305 0.73734 0.35841 0.0
Co99 Co 0.98432 0.71213 0.54258 0.0
C100 C 1.00381 0.65197 0.52924 0.0
C101 C 0.05349 0.72628 0.52735 0.0
C102 C 0.06632 0.70098 0.5213 0.0
N103 N 0.01395 0.69568 0.53224 0.0
N104 N 0.03532 0.65438 0.52255 0.0
H105 H 0.97509 0.61914 0.53211 0.0
H106 H 0.0734 0.76419 0.52849 0.0
C107 C 0.99342 0.80261 0.53491 0.0
O108 O 0.94859 0.78636 0.53718 0.0
N109 N 0.95652 0.72956 0.55333 0.0
C110 C 0.92342 0.70014 0.55975 0.0
C111 C 0.91582 0.72661 0.56655 0.0
C112 C 0.97089 0.77368 0.55685 0.0
N113 N 0.94548 0.77295 0.56467 0.0
C114 C 0.88455 0.65766 0.53799 0.0
C115 C 0.89194 0.68769 0.519 0.0
C116 C 0.84697 0.65559 0.52273 0.0
C117 C 0.84363 0.64045 0.53233 0.0
C118 C 0.932 0.70467 0.52499 0.0
N119 N 0.92787 0.69083 0.53448 0.0
H120 H 0.88127 0.64266 0.54506 0.0
H121 H 0.96648 0.72872 0.52194 0.0
H122 H 0.90706 0.66192 0.55984 0.0
H123 H 0.99972 0.80587 0.55384 0.0
O124 O 0.96664 0.65256 0.54872 0.0
O125 O 0.03472 0.7194 0.55131 0.0
O126 O 0.01374 0.77866 0.53702 0.0
C127 C 0.00771 0.67405 0.553 0.0
H128 H 0.09786 0.71552 0.51681 0.0
H129 H 0.8913 0.71273 0.57258 0.0
H130 H 0.89613 0.69949 0.51154 0.0
H131 H 0.80982 0.61403 0.53535 0.0
Co132 Co 0.28525 0.99087 0.70956 0.0
C133 C 0.36805 0.01425 0.69676 0.0
C134 C 0.34374 0.06463 0.69558 0.0
C135 C 0.38202 0.07868 0.68954 0.0
N136 N 0.3346 0.02403 0.70002 0.0
N137 N 0.39734 0.04714 0.69029 0.0
H138 H 0.37104 0.98405 0.6991 0.0
H139 H 0.32468 0.08354 0.69679 0.0
C140 C 0.20494 0.99681 0.70045 0.0
O141 O 0.17796 0.95099 0.70202 0.0
N142 N 0.23612 0.95983 0.71949 0.0
C143 C 0.23032 0.92557 0.72582 0.0
C144 C 0.19412 0.91699 0.73215 0.0
C145 C 0.20524 0.97362 0.72258 0.0
N146 N 0.17826 0.94715 0.73007 0.0
C147 C 0.24542 0.89239 0.70432 0.0
C148 C 0.22682 0.90166 0.68514 0.0
C149 C 0.21306 0.85631 0.68877 0.0
C150 C 0.22342 0.85215 0.69845 0.0
C151 C 0.24852 0.94105 0.69132 0.0
N152 N 0.25537 0.93582 0.70094 0.0
H153 H 0.25557 0.88851 0.71151 0.0
H154 H 0.25925 0.97579 0.68838 0.0
H155 H 0.25234 0.90943 0.72627 0.0
H156 H 0.20294 1.00303 0.71954 0.0
O157 O 0.32582 0.97396 0.71651 0.0
O158 O 0.32339 0.0403 0.71891 0.0
O159 O 0.24799 0.01886 0.70346 0.0
C160 C 0.34156 0.01368 0.7212 0.0
H161 H 0.39848 0.1107 0.6852 0.0
H162 H 0.1817 0.89174 0.73807 0.0
H163 H 0.22047 0.90663 0.67764 0.0
H164 H 0.2157 0.81816 0.70141 0.0
Co165 Co 0.29826 0.28325 0.87557 0.0
C166 C 0.36358 0.37279 0.86528 0.0
C167 C 0.29628 0.33447 0.85803 0.0
C168 C 0.3249 0.37495 0.85282 0.0
N169 N 0.32054 0.33293 0.86584 0.0
N170 N 0.367 0.39899 0.85742 0.0
H171 H 0.39213 0.38236 0.87042 0.0
H172 H 0.2603 0.30816 0.85613 0.0
C173 C 0.21014 0.20264 0.86708 0.0
O174 O 0.22525 0.17425 0.87019 0.0
N175 N 0.27517 0.2339 0.88547 0.0
C176 C 0.29816 0.21431 0.88994 0.0
C177 C 0.26784 0.18088 0.89645 0.0
C178 C 0.23161 0.2131 0.88962 0.0
N179 N 0.22577 0.17983 0.89623 0.0
C180 C 0.36714 0.25535 0.87121 0.0
C181 C 0.33374 0.21744 0.85306 0.0
C182 C 0.374 0.21742 0.8567 0.0
C183 C 0.39077 0.23704 0.86588 0.0
C184 C 0.31124 0.2365 0.85864 0.0
N185 N 0.32636 0.25284 0.86786 0.0
H186 H 0.38277 0.27269 0.87798 0.0
H187 H 0.28262 0.2393 0.85536 0.0
H188 H 0.33441 0.22323 0.88877 0.0
H189 H 0.20468 0.22203 0.88774 0.0
O190 O 0.3523 0.32219 0.88363 0.0
O191 O 0.2841 0.32216 0.88422 0.0
O192 O 0.23498 0.24738 0.86863 0.0
C193 C 0.32721 0.3388 0.8875 0.0
H194 H 0.31523 0.3863 0.84625 0.0
H195 H 0.2762 0.15843 0.90083 0.0
H196 H 0.32077 0.20443 0.84582 0.0
H197 H 0.42229 0.23865 0.86893 0.0
Co198 Co 0.71684 0.98668 0.79555 0.0
C199 C 0.6619 0.02073 0.80715 0.0
C200 C 0.73207 0.04637 0.81282 0.0
C201 C 0.71017 0.06535 0.81822 0.0
N202 N 0.70202 0.01837 0.80583 0.0
N203 N 0.66622 0.04965 0.81462 0.0
H204 H 0.63079 1.00318 0.80257 0.0
H205 H 0.76789 0.05342 0.81397 0.0
C206 C 0.80932 0.99666 0.80217 0.0
O207 O 0.79221 0.95164 0.79996 0.0
N208 N 0.7328 0.9566 0.78506 0.0
C209 C 0.70429 0.91581 0.78026 0.0
C210 C 0.73092 0.90771 0.77358 0.0
C211 C 0.77573 0.97406 0.78072 0.0
N212 N 0.77598 0.94415 0.77395 0.0
C213 C 0.65473 0.89041 0.80142 0.0
C214 C 0.6985 0.89327 0.81876 0.0
C215 C 0.65986 0.85001 0.81569 0.0
C216 C 0.63721 0.84942 0.80701 0.0
C217 C 0.71483 0.9337 0.81291 0.0
N218 N 0.695 0.93122 0.80401 0.0
H219 H 0.6347 0.88929 0.79512 0.0
H220 H 0.74349 0.96683 0.81561 0.0
H221 H 0.66658 0.89347 0.78127 0.0
H222 H 0.80673 0.00732 0.78271 0.0
O223 O 0.65732 0.96839 0.78936 0.0
O224 O 0.72375 0.03583 0.78643 0.0
O225 O 0.78442 0.01653 0.80059 0.0
C226 C 0.67855 0.00815 0.78464 0.0
H227 H 0.72569 0.08921 0.82432 0.0
H228 H 0.71803 0.87729 0.7688 0.0
H229 H 0.71625 0.89588 0.82557 0.0
H230 H 0.60542 0.81767 0.80462 0.0
Co231 Co 0.7292 0.71138 0.96107 0.0
C232 C 0.64916 0.64534 0.97364 0.0
C233 C 0.67227 0.71841 0.97685 0.0
C234 C 0.63513 0.69029 0.9829 0.0
N235 N 0.68151 0.69031 0.97113 0.0
N236 N 0.62064 0.64456 0.98083 0.0
H237 H 0.64615 0.61394 0.97022 0.0
H238 H 0.68998 0.75665 0.97645 0.0
C239 C 0.80837 0.80371 0.96871 0.0
O240 O 0.83865 0.791 0.96559 0.0
N241 N 0.77659 0.73358 0.95075 0.0
C242 C 0.79622 0.71062 0.94624 0.0
C243 C 0.83077 0.74143 0.93996 0.0
C244 C 0.79774 0.77729 0.94666 0.0
N245 N 0.8319 0.78337 0.9403 0.0
C246 C 0.76484 0.64915 0.96585 0.0
C247 C 0.80432 0.6883 0.9836 0.0
C248 C 0.80972 0.65092 0.97998 0.0
C249 C 0.78846 0.63062 0.97109 0.0
C250 C 0.78034 0.70594 0.97805 0.0
N251 N 0.76378 0.68849 0.96896 0.0
H252 H 0.74635 0.63071 0.95937 0.0
H253 H 0.77451 0.73302 0.98118 0.0
H254 H 0.78692 0.67423 0.94731 0.0
H255 H 0.79034 0.80507 0.94874 0.0
O256 O 0.69039 0.65408 0.95396 0.0
O257 O 0.68622 0.71962 0.95238 0.0
O258 O 0.76367 0.77649 0.96737 0.0
C259 C 0.67016 0.67538 0.94991 0.0
H260 H 0.61859 0.70238 0.98812 0.0
H261 H 0.85397 0.73389 0.93561 0.0
H262 H 0.81852 0.70384 0.99063 0.0
H263 H 0.78904 0.59976 0.96829 0.0
Co264 Co 0.02457 0.72941 0.12784 0.0
C265 C 1.00115 0.64232 0.13905 0.0
C266 C 0.94727 0.66218 0.14005 0.0
C267 C 0.93074 0.61908 0.14452 0.0
N268 N 0.99128 0.67677 0.13662 0.0
N269 N 0.96445 0.60659 0.14385 0.0
H270 H 0.03279 0.64177 0.13678 0.0
H271 H 0.92718 0.68004 0.13884 0.0
C272 C 0.01199 0.80677 0.13657 0.0
O273 O 0.05651 0.83671 0.13432 0.0
N274 N 0.05569 0.78209 0.11874 0.0
C275 C 0.10124 0.80632 0.11566 0.0
C276 C 0.107 0.8432 0.10983 0.0
C277 C 0.0341 0.80351 0.11434 0.0
N278 N 0.06483 0.84149 0.10906 0.0
C279 C 0.11889 0.75681 0.13399 0.0
C280 C 0.11548 0.79025 0.1522 0.0
C281 C 0.15854 0.79506 0.1489 0.0
C282 C 0.15932 0.7766 0.13978 0.0
C283 C 0.07557 0.77023 0.14607 0.0
N284 N 0.07865 0.75695 0.13679 0.0
H285 H 0.1204 0.74145 0.12716 0.0
H286 H 0.0423 0.76516 0.14886 0.0
H287 H 0.12911 0.79893 0.11745 0.0
H288 H 0.99716 0.79315 0.11547 0.0
O289 O 0.04381 0.69275 0.12018 0.0
O290 O 0.97661 0.69324 0.11795 0.0
O291 O 0.9936 0.76269 0.13447 0.0
C292 C 1.00449 0.67693 0.11538 0.0
H293 H 0.89573 0.59741 0.14763 0.0
H294 H 0.13988 0.86972 0.10652 0.0
H295 H 0.11281 0.80231 0.15937 0.0
H296 H 0.191 0.77706 0.13715 0.0
Co297 Co 0.29486 0.01758 0.29496 0.0
C298 C 0.36097 0.98887 0.30454 0.0
C299 C 0.28871 0.93283 0.30309 0.0
C300 C 0.31487 0.91373 0.30662 0.0
N301 N 0.31702 0.98016 0.30194 0.0
N302 N 0.36026 0.94885 0.30751 0.0
H303 H 0.39335 0.02231 0.30368 0.0
H304 H 0.2516 0.91298 0.30106 0.0
C305 C 0.22877 0.97506 0.3114 0.0
O306 O 0.26722 0.98972 0.31672 0.0
N307 N 0.27081 0.05176 0.28767 0.0
C308 C 0.29462 0.09768 0.28495 0.0
C309 C 0.2634 0.10809 0.28026 0.0
C310 C 0.22584 0.03463 0.28451 0.0
N311 N 0.22023 0.06839 0.27999 0.0
C312 C 0.3688 0.09543 0.30547 0.0
C313 C 0.3123 0.12665 0.31402 0.0
C314 C 0.36177 0.15382 0.31512 0.0
C315 C 0.3899 0.13706 0.31092 0.0
C316 C 0.29251 0.08475 0.30854 0.0
N317 N 0.32066 0.06908 0.30445 0.0
H318 H 0.39174 0.08648 0.30151 0.0
H319 H 0.25473 0.06646 0.30715 0.0
H320 H 0.33184 0.12199 0.2864 0.0
H321 H 0.1976 0.99849 0.2857 0.0
O322 O 0.34916 0.04212 0.28662 0.0
O323 O 0.28204 0.97463 0.28401 0.0
O324 O 0.23242 0.98313 0.30226 0.0
C325 C 0.32551 0.00455 0.2813 0.0
H326 H 0.30172 0.87658 0.3082 0.0
H327 H 0.27189 0.14217 0.27724 0.0
H328 H 0.28925 0.13888 0.3169 0.0
H329 H 0.42829 0.15687 0.31153 0.0
Co330 Co 0.27616 0.29717 0.46274 0.0
C331 C 0.36334 0.35656 0.47422 0.0
C332 C 0.3421 0.28241 0.47448 0.0
C333 C 0.3857 0.30752 0.4789 0.0
N334 N 0.32817 0.31309 0.47153 0.0
N335 N 0.39892 0.35395 0.47871 0.0
H336 H 0.36457 0.38945 0.47229 0.0
H337 H 0.32345 0.24474 0.47294 0.0
C338 C 0.19542 0.20625 0.47052 0.0
O339 O 0.16596 0.22084 0.46787 0.0
N340 N 0.22429 0.27978 0.45361 0.0
C341 C 0.2026 0.30409 0.45088 0.0
C342 C 0.16736 0.27719 0.44432 0.0
C343 C 0.20283 0.23911 0.4484 0.0
N344 N 0.16722 0.23608 0.44278 0.0
C345 C 0.25611 0.36836 0.46966 0.0
C346 C 0.21345 0.32565 0.48697 0.0
C347 C 0.2161 0.36855 0.48438 0.0
C348 C 0.23877 0.39046 0.47573 0.0
C349 C 0.23247 0.30522 0.48075 0.0
N350 N 0.25056 0.32489 0.47188 0.0
H351 H 0.27361 0.38643 0.46307 0.0
H352 H 0.23318 0.27415 0.48323 0.0
H353 H 0.21099 0.3388 0.45337 0.0
H354 H 0.21278 0.21198 0.44888 0.0
O355 O 0.31529 0.35318 0.45525 0.0
O356 O 0.31051 0.28358 0.45278 0.0
O357 O 0.24012 0.23235 0.46904 0.0
C358 C 0.32883 0.32809 0.45033 0.0
H359 H 0.40719 0.29314 0.48163 0.0
H360 H 0.14296 0.28692 0.44114 0.0
H361 H 0.19781 0.30869 0.49381 0.0
H362 H 0.24236 0.42418 0.47358 0.0
Co363 Co 0.99532 0.28444 0.62858 0.0
C364 C 0.02664 0.37403 0.64028 0.0
C365 C 0.08032 0.35468 0.63851 0.0
C366 C 0.1001 0.39738 0.64325 0.0
N367 N 0.03386 0.33907 0.63685 0.0
N368 N 0.06644 0.40967 0.64437 0.0
H369 H 0.99415 0.37495 0.63947 0.0
H370 H 0.09919 0.33706 0.63604 0.0
C371 C 0.03037 0.24859 0.64435 0.0
O372 O 0.01683 0.27148 0.65021 0.0
N373 N 0.95982 0.23107 0.62004 0.0
C374 C 0.91524 0.2141 0.61671 0.0
C375 C 0.9031 0.17421 0.61119 0.0
C376 C 0.97445 0.20191 0.61645 0.0
N377 N 0.9404 0.16664 0.61104 0.0
C378 C 0.91637 0.28097 0.63866 0.0
C379 C 0.87942 0.19006 0.64597 0.0
C380 C 0.85409 0.21408 0.64734 0.0
C381 C 0.87344 0.26033 0.64371 0.0
C382 C 0.92235 0.21206 0.64083 0.0
N383 N 0.94112 0.25757 0.63745 0.0
H384 H 0.92784 0.31462 0.63521 0.0
H385 H 0.93906 0.19133 0.63916 0.0
H386 H 0.89295 0.22926 0.61831 0.0
H387 H 0.00892 0.2058 0.61798 0.0
O388 O 0.97785 0.32282 0.62097 0.0
O389 O 0.04202 0.31667 0.61836 0.0
O390 O 0.02378 0.24865 0.63519 0.0
C391 C 0.01649 0.33601 0.61606 0.0
H392 H 0.13718 0.41896 0.64523 0.0
H393 H 0.86945 0.15256 0.60756 0.0
H394 H 0.86499 0.1537 0.64837 0.0
H395 H 0.85478 0.27999 0.64447 0.0
C396 C 0.87305 0.88366 0.97411 0.0
C397 C 0.82579 0.84655 0.97486 0.0
C398 C 0.89067 0.92252 0.98043 0.0
C399 C 0.92867 0.98492 0.99817 0.0
H400 H 0.84764 0.03013 0.00863 0.0
C401 C 0.99433 0.1219 0.02916 0.0
C402 C 0.98126 0.15709 0.02895 0.0
C403 C 0.97296 0.08292 0.02289 0.0
C404 C 0.87104 0.01841 0.00572 0.0
H405 H 0.75998 0.82107 0.98282 0.0
H406 H 0.7908 0.88765 0.99401 0.0
H407 H 0.81643 0.96783 0.99644 0.0
H408 H 0.934 0.17784 0.02223 0.0
H409 H 0.89828 0.11126 0.01102 0.0
H410 H 0.98396 0.03702 0.00707 0.0
C411 C 0.8141 0.88783 0.98838 0.0
C412 C 0.85284 0.98202 0.9988 0.0
C413 C 0.79632 0.84941 0.98195 0.0
C414 C 0.94517 0.15158 0.02255 0.0
C415 C 0.92434 0.11301 0.01615 0.0
C416 C 0.94704 0.02173 0.00497 0.0
C417 C 0.86169 0.92478 0.98777 0.0
C418 C 0.88134 0.96459 0.99495 0.0
C419 C 0.93845 0.07847 0.01613 0.0
C420 C 0.91846 0.03888 0.0089 0.0
H421 H 0.89653 0.88257 0.96867 0.0
H422 H 0.92714 0.95069 0.97956 0.0
H423 H 0.95163 0.9721 0.99553 0.0
H424 H 0.02156 0.1247 0.0341 0.0
H425 H 0.98387 0.05646 0.02331 0.0
C426 C 0.94371 0.79073 0.1475 0.0
C427 C 0.98515 0.82331 0.14254 0.0
C428 C 0.92095 0.80669 0.15383 0.0
C429 C 0.86743 0.84956 0.16391 0.0
H430 H 0.94945 0.95984 0.17953 0.0
C431 C 0.79616 0.94408 0.18898 0.0
C432 C 0.8212 0.96459 0.19761 0.0
C433 C 0.8133 0.92375 0.1823 0.0
C434 C 0.92592 0.92866 0.17532 0.0
H435 H 0.03382 0.89818 0.13998 0.0
H436 H 0.99358 0.92599 0.15078 0.0
H437 H 0.98427 0.93096 0.1677 0.0
H438 H 0.88214 0.97687 0.20626 0.0
H439 H 0.91109 0.94035 0.1948 0.0
H440 H 0.80913 0.84654 0.17181 0.0
C441 C 0.97933 0.88808 0.15003 0.0
C442 C 0.94593 0.91252 0.1684 0.0
C443 C 1.00228 0.87214 0.14377 0.0
C444 C 0.86233 0.96208 0.19962 0.0
C445 C 0.87916 0.9414 0.193 0.0
C446 C 0.84737 0.8656 0.1709 0.0
C447 C 0.93893 0.85561 0.1553 0.0
C448 C 0.91702 0.87283 0.16258 0.0
C449 C 0.85561 0.92307 0.18414 0.0
C450 C 0.87641 0.90533 0.17672 0.0
H451 H 0.92968 0.75286 0.14675 0.0
H452 H 0.89023 0.78063 0.15783 0.0
H453 H 0.84401 0.81913 0.15951 0.0
H454 H 0.76423 0.94514 0.18722 0.0
H455 H 0.7943 0.91018 0.17553 0.0
C456 C 0.83609 0.75755 0.34843 0.0
C457 C 0.82926 0.7769 0.35698 0.0
C458 C 0.88038 0.77875 0.34392 0.0
C459 C 0.986 0.89122 0.33978 0.0
H460 H 0.0447 0.8165 0.33283 0.0
C461 C 0.14277 0.95236 0.31246 0.0
C462 C 0.18196 0.95035 0.31621 0.0
C463 C 0.09963 0.93148 0.31754 0.0
C464 C 0.02863 0.83771 0.33473 0.0
H465 H 0.86323 0.83344 0.36756 0.0
H466 H 0.94117 0.87165 0.35944 0.0
H467 H 0.97046 0.77982 0.3421 0.0
H468 H 0.20656 0.92395 0.328 0.0
H469 H 0.13098 0.88637 0.33667 0.0
H470 H 0.04375 0.94884 0.33219 0.0
C471 C 0.91205 0.83967 0.35634 0.0
C472 C 0.98631 0.8168 0.34001 0.0
C473 C 0.86775 0.81774 0.36101 0.0
C474 C 0.17697 0.92617 0.32496 0.0
C475 C 0.13375 0.90456 0.32991 0.0
C476 C 0.02794 0.91193 0.33432 0.0
C477 C 0.91858 0.82029 0.34775 0.0
C478 C 0.96469 0.84338 0.3426 0.0
C479 C 0.09486 0.90742 0.3263 0.0
C480 C 0.04963 0.88533 0.33177 0.0
H481 H 0.80703 0.72597 0.3452 0.0
H482 H 0.8845 0.7633 0.33728 0.0
H483 H 0.96966 0.91224 0.34162 0.0
H484 H 0.14583 0.97105 0.30576 0.0
H485 H 0.06994 0.93387 0.3146 0.0
C486 C 0.12961 0.12726 0.476 0.0
C487 C 0.17749 0.16306 0.47655 0.0
C488 C 0.11162 0.08811 0.48222 0.0
C489 C 0.07381 0.02454 0.49974 0.0
H490 H 0.1527 0.97502 0.5093 0.0
C491 C 1.00571 0.88168 0.52966 0.0
C492 C 0.01894 0.8467 0.52914 0.0
C493 C 0.0273 0.92165 0.52365 0.0
C494 C 0.12985 0.98792 0.50664 0.0
H495 H 0.24427 0.18595 0.484 0.0
H496 H 0.2127 0.1189 0.49511 0.0
H497 H 0.18468 0.0386 0.49744 0.0
H498 H 0.06493 0.826 0.52188 0.0
H499 H 0.10125 0.89433 0.51117 0.0
H500 H 0.01814 0.97214 0.50849 0.0
C501 C 0.1891 0.11994 0.48969 0.0
C502 C 0.14854 0.02511 0.49991 0.0
C503 C 0.20728 0.15861 0.48333 0.0
C504 C 0.05456 0.85273 0.52258 0.0
C505 C 0.07551 0.89217 0.51643 0.0
C506 C 0.05487 0.98684 0.50632 0.0
C507 C 0.14085 0.08429 0.4893 0.0
C508 C 0.12083 0.04406 0.49637 0.0
C509 C 0.06193 0.92708 0.51681 0.0
C510 C 0.08261 0.96799 0.5099 0.0
H511 H 0.10595 0.12958 0.47077 0.0
H512 H 0.07466 0.06092 0.48148 0.0
H513 H 0.05146 0.03856 0.49736 0.0
H514 H 0.97851 0.87808 0.5347 0.0
H515 H 0.01658 0.94816 0.52435 0.0
C516 C 0.20833 0.07149 0.69469 0.0
C517 C 0.18697 0.02183 0.69437 0.0
C518 C 0.1926 0.09512 0.68857 0.0
C519 C 0.09157 0.0741 0.67235 0.0
H520 H 0.18201 0.2007 0.66331 0.0
C521 C 0.04608 0.18042 0.64453 0.0
C522 C 0.05319 0.22325 0.64853 0.0
C523 C 0.06447 0.15474 0.6492 0.0
C524 C 0.15652 0.16523 0.66575 0.0
H525 H 0.13294 0.95794 0.68729 0.0
H526 H 0.1068 0.999 0.67636 0.0
H527 H 0.2095 0.15746 0.67336 0.0
H528 H 0.08665 0.27401 0.66021 0.0
H529 H 0.12004 0.23005 0.66813 0.0
H530 H 0.0389 0.08204 0.6645 0.0
C531 C 0.13453 0.01988 0.68155 0.0
C532 C 0.17205 0.14058 0.6716 0.0
C533 C 0.14964 0.99624 0.6878 0.0
C534 C 0.08048 0.24093 0.65701 0.0
C535 C 0.09976 0.21598 0.66151 0.0
C536 C 0.07628 0.09844 0.66633 0.0
C537 C 0.15579 0.0697 0.68183 0.0
C538 C 0.13965 0.09498 0.67515 0.0
C539 C 0.09127 0.17232 0.65775 0.0
C540 C 0.10848 0.14448 0.66312 0.0
H541 H 0.23708 0.0921 0.69971 0.0
H542 H 0.20919 0.13334 0.68919 0.0
H543 H 0.0653 0.03949 0.67503 0.0
H544 H 0.02494 0.16602 0.63802 0.0
H545 H 0.05755 0.12108 0.64618 0.0
C546 C 0.87806 0.99827 0.81074 0.0
C547 C 0.8545 0.02233 0.80766 0.0
C548 C 0.91819 0.02083 0.81668 0.0
C549 C 0.97806 0.12049 0.83402 0.0
H550 H 0.08112 0.0934 0.83147 0.0
C551 C 0.15118 0.21308 0.8571 0.0
C552 C 0.16787 0.18353 0.86068 0.0
C553 C 0.11329 0.19548 0.85052 0.0
C554 C 0.05243 0.10104 0.83232 0.0
H555 H 0.85579 0.08971 0.80813 0.0
H556 H 0.9264 0.12939 0.81837 0.0
H557 H 0.01629 0.06043 0.81975 0.0
H558 H 0.15691 0.11194 0.86032 0.0
H559 H 0.09101 0.08143 0.84889 0.0
H560 H 0.01457 0.16128 0.8466 0.0
C561 C 0.91322 0.09269 0.81635 0.0
C562 C 0.01523 0.08212 0.8256 0.0
C563 C 0.87291 0.07003 0.81042 0.0
C564 C 0.14515 0.13579 0.85769 0.0
C565 C 0.10757 0.11834 0.85108 0.0
C566 C 0.01549 0.13967 0.84071 0.0
C567 C 0.93601 0.06817 0.81966 0.0
C568 C 0.97722 0.09105 0.82643 0.0
C569 C 0.09154 0.14808 0.84733 0.0
C570 C 0.05275 0.12962 0.84001 0.0
H571 H 0.8648 0.96146 0.8088 0.0
H572 H 0.93435 1.00058 0.81919 0.0
H573 H 0.9491 0.12763 0.83496 0.0
H574 H 0.16782 0.25002 0.85927 0.0
H575 H 0.10184 0.21931 0.84773 0.0
C576 C 0.00704 0.13963 0.06591 0.0
C577 C 0.04057 0.18533 0.06922 0.0
C578 C 1.00111 0.09901 0.07072 0.0
C579 C 0.03377 0.05955 0.09362 0.0
H580 H 0.01705 0.95382 0.07771 0.0
C581 C 0.09033 0.92512 0.10546 0.0
C582 C 0.05619 0.8767 0.10469 0.0
C583 C 0.08183 0.95969 0.10148 0.0
C584 C 0.02116 0.98288 0.08224 0.0
H585 H 0.0922 0.22361 0.08054 0.0
H586 H 0.08368 0.1537 0.08856 0.0
H587 H 0.01349 0.02009 0.07022 0.0
H588 H 0.98663 0.82636 0.09908 0.0
H589 H 0.97227 0.88718 0.09176 0.0
H590 H 0.04419 0.02326 0.10552 0.0
C591 C 0.06114 0.14877 0.08237 0.0
C592 C 0.0189 0.02083 0.07798 0.0
C593 C 0.06664 0.18921 0.07765 0.0
C594 C 0.01342 0.86348 0.09977 0.0
C595 C 1.00532 0.89813 0.09558 0.0
C596 C 0.0369 0.02208 0.09783 0.0
C597 C 0.02878 0.10301 0.07891 0.0
C598 C 0.02606 0.06019 0.08358 0.0
C599 C 0.03936 0.94657 0.09648 0.0
C600 C 0.03136 0.98377 0.09215 0.0
H601 H 0.98643 0.13505 0.05942 0.0
H602 H 0.97523 0.06448 0.06791 0.0
H603 H 0.03816 0.08839 0.09825 0.0
H604 H 0.12332 0.93629 0.10931 0.0
H605 H 0.10875 0.99678 0.10222 0.0
C606 C 0.8654 0.01771 0.23733 0.0
C607 C 0.86139 0.05879 0.23802 0.0
C608 C 0.89912 0.01318 0.24286 0.0
C609 C 0.98381 0.06696 0.26366 0.0
H610 H 0.0531 0.01527 0.25032 0.0
C611 C 0.16887 0.1021 0.27594 0.0
C612 C 0.177 0.06347 0.27594 0.0
C613 C 0.12708 0.0975 0.27199 0.0
C614 C 0.03373 0.02929 0.25419 0.0
H615 H 0.88793 0.12587 0.24558 0.0
H616 H 0.94741 0.11882 0.25493 0.0
H617 H 0.98507 0.01359 0.24245 0.0
H618 H 0.14772 0.98981 0.27174 0.0
H619 H 0.07479 0.98187 0.26474 0.0
H620 H 0.03385 0.0842 0.27525 0.0
C621 C 0.9243 0.08973 0.2502 0.0
C622 C 0.99451 0.02816 0.2497 0.0
C623 C 0.89042 0.09409 0.24473 0.0
C624 C 0.14233 0.02009 0.27191 0.0
C625 C 0.10076 0.01566 0.26784 0.0
C626 C 0.02334 0.06853 0.2681 0.0
C627 C 0.92986 0.04968 0.2492 0.0
C628 C 0.96928 0.04746 0.25432 0.0
C629 C 0.09266 0.05432 0.26785 0.0
C630 C 0.04904 0.05017 0.26338 0.0
H631 H 0.84397 0.98983 0.23222 0.0
H632 H 0.90165 0.98138 0.24202 0.0
H633 H 0.96481 0.08131 0.26755 0.0
H634 H 0.19465 0.13581 0.27908 0.0
H635 H 0.12208 0.12806 0.27203 0.0
C636 C 0.12609 0.15017 0.43858 0.0
C637 C 0.13361 0.19622 0.43697 0.0
C638 C 0.09141 0.1113 0.43334 0.0
C639 C 0.01275 0.08003 0.41151 0.0
H640 H 0.93721 0.96094 0.42511 0.0
C641 C 0.82985 0.9323 0.3979 0.0
C642 C 0.82156 0.88552 0.39798 0.0
C643 C 0.87058 0.96906 0.40224 0.0
C644 C 0.95835 0.99383 0.42119 0.0
H645 H 0.11111 0.2371 0.42825 0.0
H646 H 0.04984 0.16969 0.4195 0.0
H647 H 1.0037 0.02723 0.43339 0.0
H648 H 0.84918 0.84048 0.40274 0.0
H649 H 0.92022 0.90481 0.41051 0.0
H650 H 0.96598 0.0469 0.39945 0.0
C651 C 0.07122 0.16347 0.42468 0.0
C652 C 0.99665 0.03186 0.42591 0.0
C653 C 0.10612 0.20231 0.42984 0.0
C654 C 0.85484 0.87625 0.40253 0.0
C655 C 0.89526 0.91294 0.40702 0.0
C656 C 0.9741 0.04223 0.40685 0.0
C657 C 0.06306 0.11731 0.42639 0.0
C658 C 0.02412 0.07572 0.42117 0.0
C659 C 0.90361 0.95976 0.40688 0.0
C660 C 0.94622 0.9989 0.41167 0.0
H661 H 0.14611 0.14374 0.44403 0.0
H662 H 0.08677 0.07647 0.43477 0.0
H663 H 0.03363 0.11272 0.40752 0.0
H664 H 0.8051 0.94058 0.39437 0.0
H665 H 0.8759 0.00473 0.40209 0.0
C666 C 0.98645 0.13378 0.60317 0.0
C667 C 0.94276 0.12799 0.6064 0.0
C668 C 0.98872 0.09611 0.59876 0.0
C669 C 0.92434 0.96542 0.59705 0.0
H670 H 0.99735 0.98564 0.57352 0.0
C671 C 0.90714 0.80867 0.57433 0.0
C672 C 0.94774 0.81303 0.56972 0.0
C673 C 0.90846 0.84756 0.57897 0.0
C674 C 0.97738 0.97943 0.58017 0.0
H675 H 0.86732 0.07779 0.60761 0.0
H676 H 0.87123 0.01218 0.59992 0.0
H677 H 0.99621 0.05263 0.58128 0.0
H678 H 0.02195 0.86185 0.56654 0.0
H679 H 0.02458 0.92967 0.57477 0.0
H680 H 0.90578 0.89249 0.59605 0.0
C681 C 0.90377 0.04586 0.60081 0.0
C682 C 0.97664 0.01787 0.5846 0.0
C683 C 0.90144 0.08362 0.60512 0.0
C684 C 0.98989 0.85735 0.56992 0.0
C685 C 0.99133 0.89629 0.57463 0.0
C686 C 0.92535 0.9271 0.59267 0.0
C687 C 0.94743 0.05162 0.59758 0.0
C688 C 0.9497 0.01121 0.59304 0.0
C689 C 0.95056 0.89194 0.57921 0.0
C690 C 0.95145 0.93341 0.58411 0.0
H691 H 0.01886 0.1676 0.60396 0.0
H692 H 0.02294 0.10162 0.59641 0.0
H693 H 0.90392 0.95925 0.60364 0.0
H694 H 0.87383 0.77539 0.57416 0.0
H695 H 0.87605 0.84295 0.58222 0.0
C696 C 0.13976 0.99299 0.73527 0.0
C697 C 0.13998 0.94987 0.73478 0.0
C698 C 0.10202 0.99511 0.7397 0.0
C699 C 0.99956 0.92737 0.75642 0.0
H700 H 0.95327 0.00651 0.74541 0.0
C701 C 0.81829 0.90583 0.76685 0.0
C702 C 0.81686 0.94732 0.76909 0.0
C703 C 0.85888 0.90854 0.76274 0.0
C704 C 0.96611 0.9846 0.74861 0.0
H705 H 0.10022 0.87504 0.73837 0.0
H706 H 0.03421 0.87833 0.74589 0.0
H707 H 0.022 0.00662 0.73817 0.0
H708 H 0.85663 0.02422 0.76852 0.0
H709 H 0.9277 0.02898 0.7612 0.0
H710 H 0.94288 0.90448 0.7667 0.0
C711 C 0.06371 0.91094 0.74313 0.0
C712 C 1.00562 0.98472 0.74449 0.0
C713 C 0.10157 0.90896 0.73879 0.0
C714 C 0.85676 0.99166 0.76693 0.0
C715 C 0.89728 0.99437 0.76269 0.0
C716 C 0.95987 0.9269 0.76046 0.0
C717 C 0.06338 0.95404 0.74367 0.0
C718 C 0.02263 0.95574 0.74829 0.0
C719 C 0.89895 0.9528 0.76067 0.0
C720 C 0.94242 0.95515 0.75656 0.0
H721 H 0.16907 0.02527 0.73236 0.0
H722 H 0.10346 0.02908 0.7401 0.0
H723 H 0.01221 0.90547 0.75971 0.0
H724 H 0.78848 0.87116 0.76853 0.0
H725 H 0.85891 0.87588 0.76117 0.0
C726 C 0.91543 0.83868 0.9361 0.0
C727 C 0.86764 0.82735 0.93609 0.0
C728 C 0.95072 0.88174 0.93229 0.0
C729 C 0.97593 0.96992 0.91423 0.0
H730 H 0.08463 0.05238 0.93022 0.0
C731 C 0.13793 0.13805 0.89833 0.0
C732 C 0.18309 0.14748 0.90149 0.0
C733 C 0.09658 0.10402 0.90304 0.0
C734 C 0.05487 0.02962 0.9256 0.0
H735 H 0.81908 0.8518 0.93204 0.0
H736 H 0.88118 0.92712 0.92495 0.0
H737 H 0.01759 0.98229 0.93734 0.0
H738 H 0.21956 0.12942 0.91242 0.0
H739 H 0.14834 0.06916 0.92023 0.0
H740 H 0.01409 0.01518 0.90233 0.0
C741 C 0.89105 0.90266 0.92807 0.0
C742 C 0.01631 0.98971 0.92972 0.0
C743 C 0.85572 0.85986 0.93212 0.0
C744 C 0.18567 0.12284 0.90963 0.0
C745 C 0.14449 0.08855 0.91425 0.0
C746 C 0.01496 0.00941 0.91004 0.0
C747 C 0.93888 0.91403 0.9282 0.0
C748 C 0.97689 0.9591 0.92405 0.0
C749 C 0.09925 0.07825 0.91099 0.0
C750 C 0.05545 0.03929 0.91563 0.0
H751 H 0.92558 0.81449 0.93923 0.0
H752 H 0.98733 0.88965 0.93243 0.0
H753 H 0.94598 0.94657 0.9097 0.0
H754 H 0.13423 0.15596 0.89207 0.0
H755 H 0.06252 0.0977 0.90039 0.0
C756 C 0.57316 0.60132 0.99497 0.0
C757 C 0.57977 0.60433 0.98492 0.0
C758 C 0.53029 0.56677 0.99898 0.0
C759 C 0.41378 0.45805 0.99348 0.0
H760 H 0.37292 0.50515 0.01513 0.0
C761 C 0.21993 0.37305 0.00886 0.0
C762 C 0.21634 0.37082 0.01904 0.0
C763 C 0.26462 0.39539 0.00437 0.0
C764 C 0.384 0.4913 0.00915 0.0
H765 H 0.54804 0.57304 0.97111 0.0
H766 H 0.47183 0.51338 0.97805 0.0
H767 H 0.45038 0.55546 0.00797 0.0
H768 H 0.25672 0.38685 0.03242 0.0
H769 H 0.33426 0.42651 0.02459 0.0
H770 H 0.34566 0.39431 0.99455 0.0
C771 C 0.50011 0.53679 0.98291 0.0
C772 C 0.42864 0.52003 0.00506 0.0
C773 C 0.54362 0.57088 0.97891 0.0
C774 C 0.25822 0.38906 0.02458 0.0
C775 C 0.30263 0.41158 0.02011 0.0
C776 C 0.36856 0.42941 0.99752 0.0
C777 C 0.49244 0.53525 0.99299 0.0
C778 C 0.44451 0.50371 0.99724 0.0
C779 C 0.30632 0.41604 0.00998 0.0
C780 C 0.35356 0.4457 0.00546 0.0
H781 H 0.60091 0.62665 0.99971 0.0
H782 H 0.52641 0.56575 0.00679 0.0
H783 H 0.42481 0.44418 0.9875 0.0
H784 H 0.18839 0.35952 0.00439 0.0
H785 H 0.26657 0.39855 0.99654 0.0
C786 C 0.99238 0.55713 0.15195 0.0
C787 C 0.95817 0.56102 0.14643 0.0
C788 C 0.98252 0.51279 0.1556 0.0
C789 C 0.87778 0.39735 0.16185 0.0
H790 H 0.9679 0.35288 0.16479 0.0
C791 C 0.81499 0.20793 0.17412 0.0
C792 C 0.83978 0.20258 0.18191 0.0
C793 C 0.83416 0.25074 0.16907 0.0
C794 C 0.94251 0.36507 0.16404 0.0
H795 H 0.88904 0.52201 0.13966 0.0
H796 H 0.87234 0.44478 0.14566 0.0
H797 H 0.99326 0.4301 0.15712 0.0
H798 H 0.90541 0.23709 0.19016 0.0
H799 H 0.9391 0.31228 0.18126 0.0
H800 H 0.82708 0.33282 0.1687 0.0
C801 C 0.90593 0.47573 0.14756 0.0
C802 C 0.957 0.40924 0.15968 0.0
C803 C 0.9155 0.51983 0.14407 0.0
C804 C 0.88553 0.24011 0.18417 0.0
C805 C 0.90482 0.28312 0.17908 0.0
C806 C 0.86334 0.35341 0.16611 0.0
C807 C 0.93848 0.4718 0.15366 0.0
C808 C 0.92455 0.4256 0.15844 0.0
C809 C 0.87862 0.28927 0.17168 0.0
C810 C 0.89529 0.33649 0.16718 0.0
H811 H 0.02551 0.58863 0.15384 0.0
H812 H 0.00836 0.51101 0.16028 0.0
H813 H 0.85219 0.40938 0.1613 0.0
H814 H 0.78014 0.17931 0.17207 0.0
H815 H 0.81359 0.2541 0.16325 0.0
C816 C 0.39967 0.9011 0.30804 0.0
C817 C 0.39941 0.94289 0.31049 0.0
C818 C 0.43324 0.89131 0.31203 0.0
C819 C 0.54679 0.93983 0.32525 0.0
H820 H 0.48851 0.81111 0.33517 0.0
C821 C 0.64248 0.86925 0.35046 0.0
C822 C 0.63118 0.82189 0.34903 0.0
C823 C 0.61897 0.88818 0.34517 0.0
C824 C 0.50561 0.84695 0.33232 0.0
H825 H 0.43585 0.00873 0.31855 0.0
H826 H 0.49501 0.99143 0.32569 0.0
H827 H 0.43984 0.83747 0.32692 0.0
H828 H 0.58907 0.75836 0.3405 0.0
H829 H 0.54878 0.79143 0.33116 0.0
H830 H 0.61279 0.94901 0.33074 0.0
C831 C 0.46913 0.96635 0.32062 0.0
C832 C 0.47763 0.86211 0.32761 0.0
C833 C 0.4354 0.97628 0.31656 0.0
C834 C 0.59784 0.79469 0.34187 0.0
C835 C 0.57468 0.81362 0.33656 0.0
C836 C 0.57502 0.92451 0.32998 0.0
C837 C 0.46729 0.92297 0.31863 0.0
C838 C 0.49789 0.90846 0.3239 0.0
C839 C 0.58391 0.86011 0.33833 0.0
C840 C 0.55474 0.87764 0.33346 0.0
H841 H 0.37302 0.8753 0.30319 0.0
H842 H 0.43169 0.85819 0.31015 0.0
H843 H 0.56333 0.97576 0.32247 0.0
H844 H 0.66789 0.89093 0.35598 0.0
H845 H 0.62676 0.92403 0.34674 0.0
C846 C 0.80343 0.61557 0.50747 0.0
C847 C 0.80383 0.63531 0.51655 0.0
C848 C 0.76114 0.59122 0.50218 0.0
C849 C 0.64014 0.57197 0.49922 0.0
H850 H 0.60789 0.44389 0.49212 0.0
C851 C 0.4496 0.42822 0.48766 0.0
C852 C 0.44494 0.3924 0.48133 0.0
C853 C 0.49462 0.46246 0.49104 0.0
C854 C 0.61649 0.47985 0.49382 0.0
H855 H 0.76117 0.64742 0.527 0.0
H856 H 0.6873 0.6054 0.51768 0.0
H857 H 0.68486 0.49681 0.4993 0.0
H858 H 0.4829 0.36572 0.47297 0.0
H859 H 0.5615 0.42652 0.47837 0.0
H860 H 0.57193 0.55527 0.49365 0.0
C861 C 0.71959 0.60855 0.51468 0.0
C862 C 0.6607 0.51012 0.49799 0.0
C863 C 0.76171 0.63227 0.52003 0.0
C864 C 0.48586 0.39272 0.47799 0.0
C865 C 0.53077 0.42736 0.48116 0.0
C866 C 0.59603 0.54186 0.4949 0.0
C867 C 0.71866 0.58679 0.50582 0.0
C868 C 0.67286 0.55632 0.5008 0.0
C869 C 0.5358 0.46189 0.48797 0.0
C870 C 0.58345 0.4952 0.4922 0.0
H871 H 0.83532 0.61713 0.50464 0.0
H872 H 0.7614 0.57496 0.49534 0.0
H873 H 0.64877 0.60755 0.5013 0.0
H874 H 0.41827 0.42832 0.49032 0.0
H875 H 0.49684 0.48811 0.49633 0.0
C876 C 0.11023 0.4785 0.6552 0.0
C877 C 0.07383 0.45388 0.64838 0.0
C878 C 0.1207 0.52319 0.65853 0.0
C879 C 0.0739 0.60348 0.66194 0.0
H880 H 0.20761 0.69948 0.66274 0.0
C881 C 0.20734 0.81384 0.67316 0.0
C882 C 0.18982 0.81349 0.6825 0.0
C883 C 0.18858 0.77197 0.66772 0.0
C884 C 0.17007 0.67339 0.66244 0.0
H885 H 0.01874 0.45653 0.63996 0.0
H886 H 0.0366 0.53474 0.64598 0.0
H887 H 0.18355 0.6217 0.65583 0.0
H888 H 0.13698 0.76983 0.69318 0.0
H889 H 0.10451 0.69676 0.68372 0.0
H890 H 0.06065 0.65509 0.66877 0.0
C891 C 0.0571 0.51916 0.64867 0.0
C892 C 0.15635 0.62867 0.65857 0.0
C893 C 0.04678 0.47433 0.64526 0.0
C894 C 0.1516 0.77102 0.68606 0.0
C895 C 0.13265 0.72928 0.6806 0.0
C896 C 0.0877 0.64824 0.66589 0.0
C897 C 0.09483 0.54437 0.65519 0.0
C898 C 0.10827 0.59297 0.65846 0.0
C899 C 0.15169 0.72904 0.67146 0.0
C900 C 0.13604 0.68341 0.66632 0.0
H901 H 0.13096 0.46333 0.65794 0.0
H902 H 0.14924 0.5413 0.66373 0.0
H903 H 0.03659 0.57657 0.66194 0.0
H904 H 0.23686 0.84598 0.67024 0.0
H905 H 0.20368 0.77294 0.66066 0.0
C906 C 0.44982 0.22418 0.85069 0.0
C907 C 0.39989 0.19892 0.85092 0.0
C908 C 0.47482 0.20524 0.84607 0.0
C909 C 0.46671 0.11644 0.82837 0.0
H910 H 0.57504 0.12941 0.84284 0.0
C911 C 0.58348 0.03382 0.81661 0.0
C912 C 0.63279 0.06385 0.81779 0.0
C913 C 0.55145 0.04729 0.82018 0.0
C914 C 0.54511 0.12576 0.83867 0.0
H915 H 0.33695 0.13489 0.8461 0.0
H916 H 0.38096 0.10154 0.83797 0.0
H917 H 0.52581 0.15878 0.84976 0.0
H918 H 0.68698 0.13281 0.82308 0.0
H919 H 0.63166 0.15593 0.8293 0.0
H920 H 0.48668 0.08353 0.81722 0.0
C921 C 0.4006 0.1361 0.84138 0.0
C922 C 0.51692 0.14266 0.84263 0.0
C923 C 0.37544 0.15517 0.84602 0.0
C924 C 0.64931 0.10816 0.8223 0.0
C925 C 0.61753 0.1215 0.82585 0.0
C926 C 0.49512 0.09942 0.82437 0.0
C927 C 0.4506 0.16051 0.84156 0.0
C928 C 0.478 0.13915 0.83746 0.0
C929 C 0.56825 0.09097 0.825 0.0
C930 C 0.53523 0.10487 0.82941 0.0
H931 H 0.46969 0.25852 0.85418 0.0
H932 H 0.51332 0.22553 0.84611 0.0
H933 H 0.43693 0.11323 0.82422 0.0
H934 H 0.56964 0.99945 0.81318 0.0
H935 H 0.51363 0.02301 0.81943 0.0
C936 C 0.62635 0.76207 0.81673 0.0
C937 C 0.64201 0.8057 0.82147 0.0
C938 C 0.60568 0.71963 0.82193 0.0
C939 C 0.54214 0.66756 0.8448 0.0
H940 H 0.55182 0.55946 0.83587 0.0
C941 C 0.43313 0.47892 0.86154 0.0
C942 C 0.40654 0.44401 0.85457 0.0
C943 C 0.46905 0.52405 0.85865 0.0
C944 C 0.54898 0.58942 0.83847 0.0
H945 H 0.64984 0.83901 0.8355 0.0
H946 H 0.61477 0.76473 0.84466 0.0
H947 H 0.60374 0.6378 0.82895 0.0
H948 H 0.39773 0.42797 0.83923 0.0
H949 H 0.46099 0.5064 0.83418 0.0
H950 H 0.48697 0.61868 0.85427 0.0
C951 C 0.61771 0.76339 0.83686 0.0
C952 C 0.5785 0.63426 0.83448 0.0
C953 C 0.6383 0.80602 0.83162 0.0
C954 C 0.41755 0.45442 0.84472 0.0
C955 C 0.45393 0.4991 0.84185 0.0
C956 C 0.51299 0.62273 0.84888 0.0
C957 C 0.60046 0.71957 0.83205 0.0
C958 C 0.57441 0.67364 0.83736 0.0
C959 C 0.47957 0.53459 0.84877 0.0
C960 C 0.5152 0.58302 0.84554 0.0
H961 H 0.62937 0.76057 0.80893 0.0
H962 H 0.59231 0.6867 0.81793 0.0
H963 H 0.53758 0.69685 0.84714 0.0
H964 H 0.425 0.47178 0.86918 0.0
H965 H 0.48836 0.55082 0.86413 0.0
C966 C 0.97629 0.4114 0.00856 0.0
C967 C 0.97103 0.3987 0.01839 0.0
C968 C 0.96332 0.44373 0.00516 0.0
C969 C 0.93171 0.53459 0.01258 0.0
H970 H 0.86742 0.50163 0.9877 0.0
C971 C 0.82879 0.62229 0.99544 0.0
C972 C 0.83566 0.6314 0.98542 0.0
C973 C 0.84893 0.59836 1.00018 0.0
C974 C 0.8857 0.5116 0.99461 0.0
H975 H 0.94956 0.41101 0.03246 0.0
H976 H 0.92571 0.46706 0.02648 0.0
H977 H 0.89526 0.45129 0.99463 0.0
H978 H 0.8721 0.62607 0.97272 0.0
H979 H 0.90675 0.58428 0.98094 0.0
H980 H 0.92082 0.59466 0.01254 0.0
C981 C 0.94059 0.45252 0.02142 0.0
C982 C 0.90186 0.48282 0.99859 0.0
C983 C 0.95416 0.42041 0.02485 0.0
C984 C 0.8652 0.61856 0.98039 0.0
C985 C 0.88508 0.59466 0.98509 0.0
C986 C 0.91509 0.56335 0.00861 0.0
C987 C 0.94406 0.46374 0.01148 0.0
C988 C 0.92574 0.49423 0.00755 0.0
C989 C 0.87612 0.58312 0.99497 0.0
C990 C 0.89254 0.55243 0.99952 0.0
H991 H 0.99013 0.39593 0.00348 0.0
H992 H 0.96786 0.45257 0.99752 0.0
H993 H 0.95008 0.54451 0.01948 0.0
H994 H 0.80608 0.63161 0.99951 0.0
H995 H 0.84142 0.58985 0.0078 0.0
C996 C 0.53444 0.93011 0.1935 0.0
C997 C 0.57263 0.95344 0.18699 0.0
C998 C 0.48758 0.91371 0.1904 0.0
C999 C 0.41683 0.88017 0.1678 0.0
H1000 H 0.32161 0.89015 0.18299 0.0
C1001 C 0.24594 0.85029 0.15017 0.0
C1002 C 0.20291 0.81855 0.15474 0.0
C1003 C 0.28903 0.86777 0.15506 0.0
C1004 C 0.34779 0.88678 0.17872 0.0
H1005 H 0.5918 0.98057 0.17235 0.0
H1006 H 0.51087 0.95262 0.167 0.0
H1007 H 0.4013 0.91856 0.18978 0.0
H1008 H 0.17104 0.78258 0.16823 0.0
H1009 H 0.24712 0.81361 0.17688 0.0
H1010 H 0.36408 0.84911 0.15672 0.0
C1011 C 0.51665 0.94552 0.1744 0.0
C1012 C 0.39333 0.90295 0.1826 0.0
C1013 C 0.56316 0.9616 0.17747 0.0
C1014 C 0.20369 0.80701 0.16454 0.0
C1015 C 0.24715 0.82468 0.16947 0.0
C1016 C 0.37172 0.86435 0.16394 0.0
C1017 C 0.47815 0.92051 0.18075 0.0
C1018 C 0.42864 0.90064 0.17709 0.0
C1019 C 0.29031 0.85406 0.16466 0.0
C1020 C 0.33695 0.86827 0.16925 0.0
H1021 H 0.54065 0.92324 0.20088 0.0
H1022 H 0.45872 0.89448 0.19547 0.0
H1023 H 0.44263 0.87652 0.16346 0.0
H1024 H 0.24638 0.86066 0.14269 0.0
H1025 H 0.3216 0.89129 0.15124 0.0
C1026 C 0.56877 0.5348 0.35956 0.0
C1027 C 0.61495 0.56135 0.35578 0.0
C1028 C 0.53611 0.49121 0.35532 0.0
C1029 C 0.53747 0.39751 0.34041 0.0
H1030 H 0.40229 0.34878 0.33703 0.0
C1031 C 0.42633 0.23888 0.31602 0.0
C1032 C 0.38462 0.20107 0.31996 0.0
C1033 C 0.44997 0.28258 0.32073 0.0
C1034 C 0.43993 0.36191 0.33803 0.0
H1035 H 0.6622 0.56573 0.34429 0.0
H1036 H 0.60524 0.49097 0.3367 0.0
H1037 H 0.45199 0.4273 0.34445 0.0
H1038 H 0.33375 0.18051 0.33172 0.0
H1039 H 0.37525 0.25788 0.33995 0.0
H1040 H 0.52594 0.33301 0.33386 0.0
C1041 C 0.59445 0.50242 0.34312 0.0
C1042 C 0.46833 0.40673 0.34227 0.0
C1043 C 0.62699 0.54535 0.34739 0.0
C1044 C 0.36585 0.20888 0.32851 0.0
C1045 C 0.38951 0.25306 0.33322 0.0
C1046 C 0.50935 0.35323 0.33614 0.0
C1047 C 0.54922 0.47392 0.34722 0.0
C1048 C 0.51765 0.42539 0.34331 0.0
C1049 C 0.43236 0.2899 0.32946 0.0
C1050 C 0.46051 0.33532 0.33474 0.0
H1051 H 0.55891 0.54651 0.36606 0.0
H1052 H 0.50154 0.47012 0.35866 0.0
H1053 H 0.57501 0.41003 0.34138 0.0
H1054 H 0.44097 0.23471 0.30928 0.0
H1055 H 0.48241 0.31073 0.31757 0.0
C1056 C 0.03783 0.58029 0.52479 0.0
C1057 C 0.04087 0.61632 0.5187 0.0
C1058 C 0.05165 0.5483 0.52143 0.0
C1059 C 0.12895 0.54169 0.50246 0.0
H1060 H 0.07659 0.41195 0.51139 0.0
C1061 C 0.22375 0.4385 0.49341 0.0
C1062 C 0.19546 0.39104 0.4905 0.0
C1063 C 0.20321 0.46256 0.49782 0.0
C1064 C 0.09143 0.44801 0.50877 0.0
H1065 H 0.05711 0.64521 0.50421 0.0
H1066 H 0.07904 0.58824 0.49814 0.0
H1067 H 0.03957 0.45812 0.51639 0.0
H1068 H 0.12403 0.33074 0.49024 0.0
H1069 H 0.08754 0.37313 0.49772 0.0
H1070 H 0.17955 0.53146 0.49457 0.0
C1071 C 0.06794 0.58558 0.50562 0.0
C1072 C 0.07047 0.47467 0.51172 0.0
C1073 C 0.05496 0.61795 0.50904 0.0
C1074 C 0.14655 0.36729 0.4925 0.0
C1075 C 0.12576 0.39162 0.49679 0.0
C1076 C 0.14952 0.51505 0.49947 0.0
C1077 C 0.06821 0.55144 0.51187 0.0
C1078 C 0.08901 0.52192 0.50859 0.0
C1079 C 0.1537 0.44002 0.49925 0.0
C1080 C 0.13135 0.46796 0.50262 0.0
H1081 H 0.02759 0.57871 0.5323 0.0
H1082 H 0.05166 0.5228 0.52648 0.0
H1083 H 0.14498 0.57818 0.50004 0.0
H1084 H 0.26165 0.45738 0.49201 0.0
H1085 H 0.2261 0.49933 0.49988 0.0
C1086 C 0.46973 0.03973 0.69047 0.0
C1087 C 0.43886 0.05132 0.68559 0.0
C1088 C 0.51386 0.05135 0.68641 0.0
C1089 C 0.60097 0.13944 0.66967 0.0
H1090 H 0.66055 0.06157 0.66947 0.0
C1091 C 0.76928 0.19484 0.64761 0.0
C1092 C 0.80608 0.19014 0.65184 0.0
C1093 C 0.7245 0.1742 0.65192 0.0
C1094 C 0.64454 0.08389 0.66958 0.0
H1095 H 0.42791 0.08008 0.67231 0.0
H1096 H 0.50421 0.09986 0.6652 0.0
H1097 H 0.58115 0.03034 0.67659 0.0
H1098 H 0.82426 0.15868 0.66375 0.0
H1099 H 0.74561 0.12278 0.67139 0.0
H1100 H 0.6638 0.19305 0.66278 0.0
C1101 C 0.4952 0.08312 0.67227 0.0
C1102 C 0.59911 0.06597 0.67364 0.0
C1103 C 0.45147 0.07171 0.67632 0.0
C1104 C 0.79656 0.16293 0.66034 0.0
C1105 C 0.75155 0.1423 0.66469 0.0
C1106 C 0.64611 0.15728 0.66567 0.0
C1107 C 0.52762 0.07463 0.67739 0.0
C1108 C 0.57656 0.09335 0.67356 0.0
C1109 C 0.71524 0.1484 0.6606 0.0
C1110 C 0.6682 0.12953 0.66542 0.0
H1111 H 0.4609 0.02417 0.69764 0.0
H1112 H 0.53811 0.04435 0.69052 0.0
H1113 H 0.58515 0.16195 0.66974 0.0
H1114 H 0.77504 0.21444 0.64092 0.0
H1115 H 0.69702 0.17853 0.64842 0.0
C1116 C 0.02888 0.6329 0.10432 0.0
C1117 C 0.99234 0.63986 0.10791 0.0
C1118 C 0.01857 0.59382 0.09854 0.0
C1119 C 0.93586 0.50268 0.08224 0.0
H1120 H 1.00196 0.43777 0.09109 0.0
C1121 C 0.9416 0.34715 0.06133 0.0
C1122 C 0.98885 0.35844 0.05967 0.0
C1123 C 0.93169 0.37478 0.06775 0.0
C1124 C 0.98288 0.45517 0.08857 0.0
H1125 H 0.9163 0.61264 0.10779 0.0
H1126 H 0.89809 0.54354 0.09744 0.0
H1127 H 1.00321 0.50047 0.10099 0.0
H1128 H 0.06244 0.40649 0.06354 0.0
H1129 H 0.04523 0.45343 0.07477 0.0
H1130 H 0.91746 0.45833 0.06955 0.0
C1131 C 0.93476 0.56867 0.09922 0.0
C1132 C 0.98365 0.49109 0.09422 0.0
C1133 C 0.94517 0.60818 0.1051 0.0
C1134 C 0.02567 0.39688 0.06466 0.0
C1135 C 0.01581 0.42369 0.07113 0.0
C1136 C 0.93507 0.46642 0.07654 0.0
C1137 C 0.97141 0.56045 0.09617 0.0
C1138 C 0.96186 0.51656 0.09095 0.0
C1139 C 0.96885 0.41322 0.07273 0.0
C1140 C 0.96023 0.44371 0.07949 0.0
H1141 H 0.06567 0.65695 0.10623 0.0
H1142 H 0.04764 0.58902 0.09611 0.0
H1143 H 0.91874 0.52175 0.07957 0.0
H1144 H 0.91261 0.3179 0.05751 0.0
H1145 H 0.89518 0.36604 0.06886 0.0
C1146 C 0.63822 0.03734 0.23102 0.0
C1147 C 0.64161 0.99898 0.22726 0.0
C1148 C 0.60112 0.02966 0.2372 0.0
C1149 C 0.4785 0.94498 0.2436 0.0
H1150 H 0.50775 0.02952 0.26561 0.0
C1151 C 0.34043 0.94918 0.27104 0.0
C1152 C 0.35026 0.9954 0.27333 0.0
C1153 C 0.37193 0.94236 0.26516 0.0
C1154 C 0.49893 0.00567 0.25948 0.0
H1155 H 0.60872 0.92228 0.22703 0.0
H1156 H 0.5428 0.90865 0.23789 0.0
H1157 H 0.57211 0.02985 0.25652 0.0
H1158 H 0.3981 0.0703 0.27067 0.0
H1159 H 0.45206 0.05848 0.26038 0.0
H1160 H 0.40494 0.92173 0.24653 0.0
C1161 C 0.56933 0.94472 0.23603 0.0
C1162 C 0.53581 0.00578 0.25429 0.0
C1163 C 0.60715 0.9525 0.2299 0.0
C1164 C 0.38985 0.03428 0.2691 0.0
C1165 C 0.42097 0.02753 0.26326 0.0
C1166 C 0.4413 0.94481 0.24885 0.0
C1167 C 0.56605 0.98336 0.23974 0.0
C1168 C 0.52619 0.97664 0.24611 0.0
C1169 C 0.41352 0.98171 0.26155 0.0
C1170 C 0.45137 0.9764 0.25664 0.0
H1171 H 0.66413 0.07357 0.22911 0.0
H1172 H 0.5993 0.06017 0.23981 0.0
H1173 H 0.47005 0.92219 0.23731 0.0
H1174 H 0.31036 0.91862 0.2743 0.0
H1175 H 0.36527 0.90663 0.26391 0.0
C1176 C 0.36359 0.38714 0.43714 0.0
C1177 C 0.36411 0.35082 0.44253 0.0
C1178 C 0.40007 0.41423 0.43066 0.0
C1179 C 0.52588 0.46206 0.42673 0.0
H1180 H 0.49708 0.50004 0.40216 0.0
C1181 C 0.6642 0.61011 0.40031 0.0
C1182 C 0.64893 0.64138 0.39709 0.0
C1183 C 0.63359 0.56976 0.40579 0.0
C1184 C 0.50577 0.48968 0.40899 0.0
H1185 H 0.40276 0.31374 0.44533 0.0
H1186 H 0.46793 0.36231 0.43398 0.0
H1187 H 0.43398 0.43429 0.41116 0.0
H1188 H 0.5912 0.65681 0.39765 0.0
H1189 H 0.53859 0.58733 0.40715 0.0
H1190 H 0.59762 0.51913 0.42465 0.0
C1191 C 0.43869 0.36917 0.43474 0.0
C1192 C 0.46969 0.45197 0.41412 0.0
C1193 C 0.40135 0.34119 0.44114 0.0
C1194 C 0.6039 0.63317 0.39992 0.0
C1195 C 0.57356 0.59315 0.40532 0.0
C1196 C 0.56226 0.50003 0.42155 0.0
C1197 C 0.43849 0.40624 0.4295 0.0
C1198 C 0.47888 0.43891 0.42322 0.0
C1199 C 0.58736 0.56018 0.40805 0.0
C1200 C 0.55199 0.51532 0.41282 0.0
H1201 H 0.33538 0.39541 0.43812 0.0
H1202 H 0.39914 0.44288 0.42684 0.0
H1203 H 0.53392 0.45285 0.43375 0.0
H1204 H 0.69866 0.61547 0.39819 0.0
H1205 H 0.64517 0.54499 0.40787 0.0
C1206 C 0.0149 0.60232 0.55498 0.0
C1207 C 0.02361 0.64613 0.55867 0.0
C1208 C 0.02545 0.57269 0.56044 0.0
C1209 C 0.08249 0.56512 0.58363 0.0
H1210 H 0.99459 0.43047 0.58005 0.0
C1211 C 0.03291 0.41704 0.61216 0.0
C1212 C 0.03264 0.3756 0.60917 0.0
C1213 C 0.04254 0.45324 0.60555 0.0
C1214 C 0.01992 0.46791 0.58102 0.0
H1215 H 0.05082 0.69409 0.57089 0.0
H1216 H 0.06637 0.64089 0.58084 0.0
H1217 H 0.98918 0.48746 0.56958 0.0
H1218 H 0.04317 0.33948 0.59707 0.0
H1219 H 0.05811 0.40247 0.58528 0.0
H1220 H 0.11029 0.54455 0.59567 0.0
C1221 C 0.05323 0.62996 0.57354 0.0
C1222 C 0.0171 0.50088 0.57498 0.0
C1223 C 0.04411 0.66048 0.56788 0.0
C1224 C 0.04355 0.37136 0.59952 0.0
C1225 C 0.05193 0.40719 0.59281 0.0
C1226 C 0.08449 0.53199 0.58984 0.0
C1227 C 0.04316 0.5851 0.56995 0.0
C1228 C 0.04818 0.55011 0.5762 0.0
C1229 C 0.05086 0.44814 0.59577 0.0
C1230 C 0.05304 0.48312 0.5886 0.0
H1231 H 0.99939 0.59069 0.54785 0.0
H1232 H 0.01881 0.53957 0.5572 0.0
H1233 H 0.10765 0.60243 0.58474 0.0
H1234 H 0.0246 0.42095 0.6196 0.0
H1235 H 0.04102 0.48416 0.60799 0.0
C1236 C 0.413 0.07375 0.73061 0.0
C1237 C 0.37782 0.0264 0.72882 0.0
C1238 C 0.44962 0.08403 0.73729 0.0
C1239 C 0.47726 0.03668 0.7587 0.0
H1240 H 0.60703 0.0908 0.74949 0.0
C1241 C 0.60334 0.98614 0.77599 0.0
C1242 C 0.65061 0.02074 0.77802 0.0
C1243 C 0.57429 0.99717 0.77048 0.0
C1244 C 0.57122 0.07665 0.75224 0.0
H1245 H 0.35223 0.953 0.73276 0.0
H1246 H 0.41468 0.97095 0.74459 0.0
H1247 H 0.54656 0.09291 0.7391 0.0
H1248 H 0.705 0.09395 0.77556 0.0
H1249 H 0.65354 0.11341 0.76573 0.0
H1250 H 0.50086 0.01881 0.77165 0.0
C1251 C 0.41456 1.00007 0.74078 0.0
C1252 C 0.5367 0.07789 0.74631 0.0
C1253 C 0.37893 0.98981 0.734 0.0
C1254 C 0.66869 0.06657 0.77412 0.0
C1255 C 0.6393 0.07769 0.76852 0.0
C1256 C 0.51158 0.03574 0.76462 0.0
C1257 C 0.45053 0.04712 0.74243 0.0
C1258 C 0.48906 0.05616 0.74936 0.0
C1259 C 0.59144 0.0432 0.76683 0.0
C1260 C 0.55844 0.05374 0.7613 0.0
H1261 H 0.41306 0.10251 0.72663 0.0
H1262 H 0.47708 0.12058 0.73845 0.0
H1263 H 0.44086 0.0201 0.76124 0.0
H1264 H 0.58829 0.95029 0.77876 0.0
H1265 H 0.53806 0.96939 0.76909 0.0
C1266 C 0.61373 0.60008 0.94164 0.0
C1267 C 0.62884 0.64817 0.94341 0.0
C1268 C 0.57294 0.57188 0.93625 0.0
C1269 C 0.49411 0.57006 0.91753 0.0
H1270 H 0.41217 0.44378 0.92791 0.0
C1271 C 0.34016 0.41367 0.89568 0.0
C1272 C 0.34818 0.37502 0.8952 0.0
C1273 C 0.36593 0.4509 0.90227 0.0
C1274 C 0.43429 0.47907 0.92496 0.0
H1275 H 0.6135 0.70478 0.9406 0.0
H1276 H 0.54157 0.65488 0.93088 0.0
H1277 H 0.47475 0.50422 0.93803 0.0
H1278 H 0.38763 0.34385 0.90138 0.0
H1279 H 0.43101 0.40742 0.91303 0.0
H1280 H 0.45467 0.54369 0.90426 0.0
C1281 C 0.56164 0.63936 0.93383 0.0
C1282 C 0.47016 0.51363 0.93073 0.0
C1283 C 0.60271 0.66783 0.93936 0.0
C1284 C 0.38069 0.37318 0.90163 0.0
C1285 C 0.4054 0.40951 0.90831 0.0
C1286 C 0.45788 0.53529 0.91173 0.0
C1287 C 0.54593 0.59081 0.9324 0.0
C1288 C 0.50183 0.55879 0.92695 0.0
C1289 C 0.39894 0.44912 0.90862 0.0
C1290 C 0.42902 0.48889 0.91527 0.0
H1291 H 0.63301 0.58365 0.94457 0.0
H1292 H 0.56243 0.53492 0.9351 0.0
H1293 H 0.51803 0.60456 0.91444 0.0
H1294 H 0.31566 0.41607 0.89069 0.0
H1295 H 0.36043 0.48115 0.90236 0.0
loop_
_geom_bond_atom_site_label_1
_geom_bond_atom_site_label_2
_geom_bond_distance
_geom_bond_site_symmetry_2
_ccdc_geom_bond_type
Co0 N4 2.148 . S
Co0 N10 2.128 1_655 S
Co0 N20 2.194 1_655 S
Co0 O25 2.351 1_655 S
Co0 O26 2.155 . S
Co0 O27 2.096 . S
C1 N4 1.301 . S
C1 N5 1.328 . S
C1 H6 0.930 . S
C2 C3 1.333 . S
C2 N4 1.317 . S
C2 H7 0.930 . S
C3 C2 1.333 . S
C3 N5 1.350 . S
C3 H29 0.931 . S
N4 Co0 2.148 . S
N4 C1 1.301 . S
N4 C2 1.317 . S
N5 C1 1.328 . S
N5 C3 1.350 . S
H6 C1 0.930 . S
H7 C2 0.930 . S
C8 O9 1.224 . S
C8 O27 1.247 . S
O9 C8 1.224 . S
N10 Co0 2.128 1_455 S
N10 C11 1.355 . S
N10 C13 1.307 . S
C11 N10 1.355 . S
C11 C12 1.363 . S
C11 H23 0.929 . S
C12 C11 1.363 . S
C12 N14 1.375 . S
C12 H30 0.931 . S
C13 N10 1.307 . S
C13 N14 1.368 . S
C13 H24 0.914 1_455 S
N14 C12 1.375 . S
N14 C13 1.368 . S
C15 C18 1.365 . S
C15 N20 1.328 . S
C15 H21 0.929 . S
C16 C17 1.362 . S
C16 C19 1.378 . S
C16 H31 0.929 . S
C17 C16 1.362 . S
C17 C18 1.366 . S
C18 C15 1.365 . S
C18 C17 1.366 . S
C18 H32 0.930 . S
C19 C16 1.378 . S
C19 N20 1.315 . S
C19 H22 0.930 . S
N20 Co0 2.194 1_455 S
N20 C15 1.328 . S
N20 C19 1.315 . S
H21 C15 0.929 . S
H22 C19 0.930 . S
H23 C11 0.929 . S
H24 C13 0.914 1_655 S
O25 Co0 2.351 1_455 S
O25 C28 1.244 1_455 S
O26 Co0 2.155 . S
O26 C28 1.240 . S
O27 Co0 2.096 . S
O27 C8 1.247 . S
C28 O25 1.244 1_655 S
C28 O26 1.240 . S
H29 C3 0.931 . S
H30 C12 0.931 . S
H31 C16 0.929 . S
H32 C18 0.930 . S
Co33 N37 2.148 . S
Co33 N43 2.128 1_565 S
Co33 N53 2.194 1_565 S
Co33 O58 2.351 1_565 S
Co33 O59 2.155 . S
Co33 O60 2.096 . S
C34 N37 1.301 . S
C34 N38 1.328 . S
C34 H39 0.930 . S
C35 C36 1.333 . S
C35 N37 1.317 . S
C35 H40 0.930 . S
C36 C35 1.333 . S
C36 N38 1.350 . S
C36 H62 0.931 . S
N37 Co33 2.148 . S
N37 C34 1.301 . S
N37 C35 1.317 . S
N38 C34 1.328 . S
N38 C36 1.350 . S
H39 C34 0.930 . S
H40 C35 0.930 . S
C41 O42 1.224 . S
C41 O60 1.247 . S
O42 C41 1.224 . S
N43 Co33 2.128 1_545 S
N43 C44 1.355 . S
N43 C46 1.311 . S
C44 N43 1.355 . S
C44 C45 1.363 . S
C44 H56 0.929 . S
C45 C44 1.363 . S
C45 N47 1.375 . S
C45 H63 0.931 . S
C46 N43 1.311 . S
C46 N47 1.347 . S
C46 H57 0.929 1_545 S
N47 C45 1.375 . S
N47 C46 1.347 . S
C48 C51 1.365 . S
C48 N53 1.328 . S
C48 H54 0.929 . S
C49 C50 1.362 . S
C49 C52 1.378 . S
C49 H64 0.929 . S
C50 C49 1.362 . S
C50 C51 1.366 . S
C51 C48 1.365 . S
C51 C50 1.366 . S
C51 H65 0.930 . S
C52 C49 1.378 . S
C52 N53 1.315 . S
C52 H55 0.930 . S
N53 Co33 2.194 1_545 S
N53 C48 1.328 . S
N53 C52 1.315 . S
H54 C48 0.929 . S
H55 C52 0.930 . S
H56 C44 0.929 . S
H57 C46 0.929 1_565 S
O58 Co33 2.351 1_545 S
O58 C61 1.244 1_545 S
O59 Co33 2.155 . S
O59 C61 1.240 . S
O60 Co33 2.096 . S
O60 C41 1.247 . S
C61 O58 1.244 1_565 S
C61 O59 1.240 . S
H62 C36 0.931 . S
H63 C45 0.931 . S
H64 C49 0.929 . S
H65 C51 0.930 . S
Co66 N70 2.148 . S
Co66 N76 2.128 . S
Co66 N86 2.194 . S
Co66 O91 2.351 . S
Co66 O92 2.155 . S
Co66 O93 2.096 . S
C67 N70 1.301 . S
C67 N71 1.328 . S
C67 H72 0.930 . S
C68 C69 1.333 . S
C68 N70 1.317 . S
C68 H73 0.930 . S
C69 C68 1.333 . S
C69 N71 1.350 . S
C69 H95 0.931 . S
N70 Co66 2.148 . S
N70 C67 1.301 . S
N70 C68 1.317 . S
N71 C67 1.328 . S
N71 C69 1.350 . S
H72 C67 0.930 . S
H73 C68 0.930 . S
C74 O75 1.224 . S
C74 O93 1.247 . S
O75 C74 1.224 . S
N76 Co66 2.128 . S
N76 C77 1.355 . S
N76 C79 1.311 . S
C77 N76 1.355 . S
C77 C78 1.363 . S
C77 H89 0.929 . S
C78 C77 1.363 . S
C78 N80 1.375 . S
C78 H96 0.931 . S
C79 N76 1.311 . S
C79 N80 1.347 . S
C79 H90 0.929 . S
N80 C78 1.375 . S
N80 C79 1.347 . S
C81 C84 1.365 . S
C81 N86 1.328 . S
C81 H87 0.929 . S
C82 C83 1.362 . S
C82 C85 1.378 . S
C82 H97 0.929 . S
C83 C82 1.362 . S
C83 C84 1.366 . S
C84 C81 1.365 . S
C84 C83 1.366 . S
C84 H98 0.930 . S
C85 C82 1.378 . S
C85 N86 1.315 . S
C85 H88 0.930 . S
N86 Co66 2.194 . S
N86 C81 1.328 . S
N86 C85 1.315 . S
H87 C81 0.929 . S
H88 C85 0.930 . S
H89 C77 0.929 . S
H90 C79 0.929 . S
O91 Co66 2.351 . S
O91 C94 1.244 . S
O92 Co66 2.155 . S
O92 C94 1.240 . S
O93 Co66 2.096 . S
O93 C74 1.247 . S
C94 O91 1.244 . S
C94 O92 1.240 . S
H95 C69 0.931 . S
H96 C78 0.931 . S
H97 C82 0.929 . S
H98 C84 0.930 . S
Co99 N103 2.148 . S
Co99 N109 2.128 1_455 S
Co99 N119 2.194 1_455 S
Co99 O124 2.351 1_455 S
Co99 O125 2.155 . S
Co99 O126 2.096 . S
C100 N103 1.301 . S
C100 N104 1.328 . S
C100 H105 0.930 . S
C101 C102 1.333 . S
C101 N103 1.317 . S
C101 H106 0.930 . S
C102 C101 1.333 . S
C102 N104 1.350 . S
C102 H128 0.931 . S
N103 Co99 2.148 . S
N103 C100 1.301 . S
N103 C101 1.317 . S
N104 C100 1.328 . S
N104 C102 1.350 . S
H105 C100 0.930 . S
H106 C101 0.930 . S
C107 O108 1.224 . S
C107 O126 1.247 . S
O108 C107 1.224 . S
N109 Co99 2.128 1_655 S
N109 C110 1.355 . S
N109 C112 1.308 . S
C110 N109 1.355 . S
C110 C111 1.363 . S
C110 H122 0.929 . S
C111 C110 1.363 . S
C111 N113 1.375 . S
C111 H129 0.931 . S
C112 N109 1.308 . S
C112 N113 1.363 . S
C112 H123 0.918 1_655 S
N113 C111 1.375 . S
N113 C112 1.363 . S
C114 C117 1.365 . S
C114 N119 1.328 . S
C114 H120 0.929 . S
C115 C116 1.362 . S
C115 C118 1.378 . S
C115 H130 0.929 . S
C116 C115 1.362 . S
C116 C117 1.366 . S
C117 C114 1.365 . S
C117 C116 1.366 . S
C117 H131 0.930 . S
C118 C115 1.378 . S
C118 N119 1.315 . S
C118 H121 0.930 . S
N119 Co99 2.194 1_655 S
N119 C114 1.328 . S
N119 C118 1.315 . S
H120 C114 0.929 . S
H121 C118 0.930 . S
H122 C110 0.929 . S
H123 C112 0.918 1_455 S
O124 Co99 2.351 1_655 S
O124 C127 1.244 1_655 S
O125 Co99 2.155 . S
O125 C127 1.240 . S
O126 Co99 2.096 . S
O126 C107 1.247 . S
C127 O124 1.244 1_455 S
C127 O125 1.240 . S
H128 C102 0.931 . S
H129 C111 0.931 . S
H130 C115 0.929 . S
H131 C117 0.930 . S
Co132 N136 2.148 . S
Co132 N142 2.128 1_545 S
Co132 N152 2.194 1_545 S
Co132 O157 2.351 1_545 S
Co132 O158 2.155 . S
Co132 O159 2.096 . S
C133 N136 1.301 . S
C133 N137 1.328 . S
C133 H138 0.930 . S
C134 C135 1.333 . S
C134 N136 1.317 . S
C134 H139 0.930 . S
C135 C134 1.333 . S
C135 N137 1.350 . S
C135 H161 0.931 . S
N136 Co132 2.148 . S
N136 C133 1.301 . S
N136 C134 1.317 . S
N137 C133 1.328 . S
N137 C135 1.350 . S
H138 C133 0.930 . S
H139 C134 0.930 . S
C140 O141 1.224 . S
C140 O159 1.247 . S
O141 C140 1.224 . S
N142 Co132 2.128 1_565 S
N142 C143 1.355 . S
N142 C145 1.316 . S
C143 N142 1.355 . S
C143 C144 1.363 . S
C143 H155 0.929 . S
C144 C143 1.363 . S
C144 N146 1.375 . S
C144 H162 0.931 . S
C145 N142 1.316 . S
C145 N146 1.350 . S
C145 H156 0.922 1_565 S
N146 C144 1.375 . S
N146 C145 1.350 . S
C147 C150 1.365 . S
C147 N152 1.328 . S
C147 H153 0.929 . S
C148 C149 1.362 . S
C148 C151 1.378 . S
C148 H163 0.929 . S
C149 C148 1.362 . S
C149 C150 1.366 . S
C150 C147 1.365 . S
C150 C149 1.366 . S
C150 H164 0.930 . S
C151 C148 1.378 . S
C151 N152 1.315 . S
C151 H154 0.930 . S
N152 Co132 2.194 1_565 S
N152 C147 1.328 . S
N152 C151 1.315 . S
H153 C147 0.929 . S
H154 C151 0.930 . S
H155 C143 0.929 . S
H156 C145 0.922 1_545 S
O157 Co132 2.351 1_565 S
O157 C160 1.244 1_565 S
O158 Co132 2.155 . S
O158 C160 1.240 . S
O159 Co132 2.096 . S
O159 C140 1.247 . S
C160 O157 1.244 1_545 S
C160 O158 1.240 . S
H161 C135 0.931 . S
H162 C144 0.931 . S
H163 C148 0.929 . S
H164 C150 0.930 . S
Co165 N169 2.148 . S
Co165 N175 2.128 . S
Co165 N185 2.194 . S
Co165 O190 2.351 . S
Co165 O191 2.155 . S
Co165 O192 2.096 . S
C166 N169 1.301 . S
C166 N170 1.328 . S
C166 H171 0.930 . S
C167 C168 1.333 . S
C167 N169 1.317 . S
C167 H172 0.930 . S
C168 C167 1.333 . S
C168 N170 1.350 . S
C168 H194 0.931 . S
N169 Co165 2.148 . S
N169 C166 1.301 . S
N169 C167 1.317 . S
N170 C166 1.328 . S
N170 C168 1.350 . S
H171 C166 0.930 . S
H172 C167 0.930 . S
C173 O174 1.224 . S
C173 O192 1.247 . S
O174 C173 1.224 . S
N175 Co165 2.128 . S
N175 C176 1.355 . S
N175 C178 1.311 . S
C176 N175 1.355 . S
C176 C177 1.363 . S
C176 H188 0.929 . S
C177 C176 1.363 . S
C177 N179 1.375 . S
C177 H195 0.931 . S
C178 N175 1.311 . S
C178 N179 1.347 . S
C178 H189 0.929 . S
N179 C177 1.375 . S
N179 C178 1.347 . S
C180 C183 1.365 . S
C180 N185 1.328 . S
C180 H186 0.929 . S
C181 C182 1.362 . S
C181 C184 1.378 . S
C181 H196 0.929 . S
C182 C181 1.362 . S
C182 C183 1.366 . S
C183 C180 1.365 . S
C183 C182 1.366 . S
C183 H197 0.930 . S
C184 C181 1.378 . S
C184 N185 1.315 . S
C184 H187 0.930 . S
N185 Co165 2.194 . S
N185 C180 1.328 . S
N185 C184 1.315 . S
H186 C180 0.929 . S
H187 C184 0.930 . S
H188 C176 0.929 . S
H189 C178 0.929 . S
O190 Co165 2.351 . S
O190 C193 1.244 . S
O191 Co165 2.155 . S
O191 C193 1.240 . S
O192 Co165 2.096 . S
O192 C173 1.247 . S
C193 O190 1.244 . S
C193 O191 1.240 . S
H194 C168 0.931 . S
H195 C177 0.931 . S
H196 C181 0.929 . S
H197 C183 0.930 . S
Co198 N202 2.148 . S
Co198 N208 2.128 1_545 S
Co198 N218 2.194 1_545 S
Co198 O223 2.351 1_545 S
Co198 O224 2.155 . S
Co198 O225 2.096 . S
C199 N202 1.301 . S
C199 N203 1.328 . S
C199 H204 0.930 . S
C200 C201 1.333 . S
C200 N202 1.317 . S
C200 H205 0.930 . S
C201 C200 1.333 . S
C201 N203 1.350 . S
C201 H227 0.931 . S
N202 Co198 2.148 . S
N202 C199 1.301 . S
N202 C200 1.317 . S
N203 C199 1.328 . S
N203 C201 1.350 . S
H204 C199 0.930 . S
H205 C200 0.930 . S
C206 O207 1.224 . S
C206 O225 1.247 . S
O207 C206 1.224 . S
N208 Co198 2.128 1_565 S
N208 C209 1.355 . S
N208 C211 1.309 . S
C209 N208 1.355 . S
C209 C210 1.363 . S
C209 H221 0.929 . S
C210 C209 1.363 . S
C210 N212 1.375 . S
C210 H228 0.931 . S
C211 N208 1.309 . S
C211 N212 1.356 . S
C211 H222 0.923 1_565 S
N212 C210 1.375 . S
N212 C211 1.356 . S
C213 C216 1.365 . S
C213 N218 1.328 . S
C213 H219 0.929 . S
C214 C215 1.362 . S
C214 C217 1.378 . S
C214 H229 0.929 . S
C215 C214 1.362 . S
C215 C216 1.366 . S
C216 C213 1.365 . S
C216 C215 1.366 . S
C216 H230 0.930 . S
C217 C214 1.378 . S
C217 N218 1.315 . S
C217 H220 0.930 . S
N218 Co198 2.194 1_565 S
N218 C213 1.328 . S
N218 C217 1.315 . S
H219 C213 0.929 . S
H220 C217 0.930 . S
H221 C209 0.929 . S
H222 C211 0.923 1_545 S
O223 Co198 2.351 1_565 S
O223 C226 1.244 1_565 S
O224 Co198 2.155 . S
O224 C226 1.240 . S
O225 Co198 2.096 . S
O225 C206 1.247 . S
C226 O223 1.244 1_545 S
C226 O224 1.240 . S
H227 C201 0.931 . S
H228 C210 0.931 . S
H229 C214 0.929 . S
H230 C216 0.930 . S
Co231 N235 2.148 . S
Co231 N241 2.128 . S
Co231 N251 2.194 . S
Co231 O256 2.351 . S
Co231 O257 2.155 . S
Co231 O258 2.096 . S
C232 N235 1.301 . S
C232 N236 1.328 . S
C232 H237 0.930 . S
C233 C234 1.333 . S
C233 N235 1.317 . S
C233 H238 0.930 . S
C234 C233 1.333 . S
C234 N236 1.350 . S
C234 H260 0.931 . S
N235 Co231 2.148 . S
N235 C232 1.301 . S
N235 C233 1.317 . S
N236 C232 1.328 . S
N236 C234 1.350 . S
H237 C232 0.930 . S
H238 C233 0.930 . S
C239 O240 1.224 . S
C239 O258 1.247 . S
O240 C239 1.224 . S
N241 Co231 2.128 . S
N241 C242 1.355 . S
N241 C244 1.311 . S
C242 N241 1.355 . S
C242 C243 1.363 . S
C242 H254 0.929 . S
C243 C242 1.363 . S
C243 N245 1.375 . S
C243 H261 0.931 . S
C244 N241 1.311 . S
C244 N245 1.347 . S
C244 H255 0.929 . S
N245 C243 1.375 . S
N245 C244 1.347 . S
C246 C249 1.365 . S
C246 N251 1.328 . S
C246 H252 0.929 . S
C247 C248 1.362 . S
C247 C250 1.378 . S
C247 H262 0.929 . S
C248 C247 1.362 . S
C248 C249 1.366 . S
C249 C246 1.365 . S
C249 C248 1.366 . S
C249 H263 0.930 . S
C250 C247 1.378 . S
C250 N251 1.315 . S
C250 H253 0.930 . S
N251 Co231 2.194 . S
N251 C246 1.328 . S
N251 C250 1.315 . S
H252 C246 0.929 . S
H253 C250 0.930 . S
H254 C242 0.929 . S
H255 C244 0.929 . S
O256 Co231 2.351 . S
O256 C259 1.244 . S
O257 Co231 2.155 . S
O257 C259 1.240 . S
O258 Co231 2.096 . S
O258 C239 1.247 . S
C259 O256 1.244 . S
C259 O257 1.240 . S
H260 C234 0.931 . S
H261 C243 0.931 . S
H262 C247 0.929 . S
H263 C249 0.930 . S
Co264 N268 2.148 . S
Co264 N274 2.128 1_655 S
Co264 N284 2.194 1_655 S
Co264 O289 2.351 1_655 S
Co264 O290 2.155 . S
Co264 O291 2.096 . S
C265 N268 1.301 . S
C265 N269 1.328 . S
C265 H270 0.930 . S
C266 C267 1.333 . S
C266 N268 1.317 . S
C266 H271 0.930 . S
C267 C266 1.333 . S
C267 N269 1.350 . S
C267 H293 0.931 . S
N268 Co264 2.148 . S
N268 C265 1.301 . S
N268 C266 1.317 . S
N269 C265 1.328 . S
N269 C267 1.350 . S
H270 C265 0.930 . S
H271 C266 0.930 . S
C272 O273 1.224 . S
C272 O291 1.247 . S
O273 C272 1.224 . S
N274 Co264 2.128 1_455 S
N274 C275 1.355 . S
N274 C277 1.327 . S
C275 N274 1.355 . S
C275 C276 1.363 . S
C275 H287 0.929 . S
C276 C275 1.363 . S
C276 N278 1.375 . S
C276 H294 0.931 . S
C277 N274 1.327 . S
C277 N278 1.354 . S
C277 H288 0.908 1_455 S
N278 C276 1.375 . S
N278 C277 1.354 . S
C279 C282 1.365 . S
C279 N284 1.328 . S
C279 H285 0.929 . S
C280 C281 1.362 . S
C280 C283 1.378 . S
C280 H295 0.929 . S
C281 C280 1.362 . S
C281 C282 1.366 . S
C282 C279 1.365 . S
C282 C281 1.366 . S
C282 H296 0.930 . S
C283 C280 1.378 . S
C283 N284 1.315 . S
C283 H286 0.930 . S
N284 Co264 2.194 1_455 S
N284 C279 1.328 . S
N284 C283 1.315 . S
H285 C279 0.929 . S
H286 C283 0.930 . S
H287 C275 0.929 . S
H288 C277 0.908 1_655 S
O289 Co264 2.351 1_455 S
O289 C292 1.244 1_455 S
O290 Co264 2.155 . S
O290 C292 1.240 . S
O291 Co264 2.096 . S
O291 C272 1.247 . S
C292 O289 1.244 1_655 S
C292 O290 1.240 . S
H293 C267 0.931 . S
H294 C276 0.931 . S
H295 C280 0.929 . S
H296 C282 0.930 . S
Co297 N301 2.148 . S
Co297 N307 2.128 1_565 S
Co297 N317 2.194 1_565 S
Co297 O322 2.351 1_565 S
Co297 O323 2.155 . S
Co297 O324 2.096 . S
C298 N301 1.301 . S
C298 N302 1.328 . S
C298 H303 0.930 . S
C299 C300 1.333 . S
C299 N301 1.317 . S
C299 H304 0.930 . S
C300 C299 1.333 . S
C300 N302 1.350 . S
C300 H326 0.931 . S
N301 Co297 2.148 . S
N301 C298 1.301 . S
N301 C299 1.317 . S
N302 C298 1.328 . S
N302 C300 1.350 . S
H303 C298 0.930 . S
H304 C299 0.930 . S
C305 O306 1.224 . S
C305 O324 1.247 . S
O306 C305 1.224 . S
N307 Co297 2.128 1_545 S
N307 C308 1.355 . S
N307 C310 1.311 . S
C308 N307 1.355 . S
C308 C309 1.363 . S
C308 H320 0.929 . S
C309 C308 1.363 . S
C309 N311 1.375 . S
C309 H327 0.931 . S
C310 N307 1.311 . S
C310 N311 1.347 . S
C310 H321 0.929 1_545 S
N311 C309 1.375 . S
N311 C310 1.347 . S
C312 C315 1.365 . S
C312 N317 1.328 . S
C312 H318 0.929 . S
C313 C314 1.362 . S
C313 C316 1.378 . S
C313 H328 0.929 . S
C314 C313 1.362 . S
C314 C315 1.366 . S
C315 C312 1.365 . S
C315 C314 1.366 . S
C315 H329 0.930 . S
C316 C313 1.378 . S
C316 N317 1.315 . S
C316 H319 0.930 . S
N317 Co297 2.194 1_545 S
N317 C312 1.328 . S
N317 C316 1.315 . S
H318 C312 0.929 . S
H319 C316 0.930 . S
H320 C308 0.929 . S
H321 C310 0.929 1_565 S
O322 Co297 2.351 1_545 S
O322 C325 1.244 1_545 S
O323 Co297 2.155 . S
O323 C325 1.240 . S
O324 Co297 2.096 . S
O324 C305 1.247 . S
C325 O322 1.244 1_565 S
C325 O323 1.240 . S
H326 C300 0.931 . S
H327 C309 0.931 . S
H328 C313 0.929 . S
H329 C315 0.930 . S
Co330 N334 2.148 . S
Co330 N340 2.128 . S
Co330 N350 2.194 . S
Co330 O355 2.351 . S
Co330 O356 2.155 . S
Co330 O357 2.096 . S
C331 N334 1.301 . S
C331 N335 1.328 . S
C331 H336 0.930 . S
C332 C333 1.333 . S
C332 N334 1.317 . S
C332 H337 0.930 . S
C333 C332 1.333 . S
C333 N335 1.350 . S
C333 H359 0.931 . S
N334 Co330 2.148 . S
N334 C331 1.301 . S
N334 C332 1.317 . S
N335 C331 1.328 . S
N335 C333 1.350 . S
H336 C331 0.930 . S
H337 C332 0.930 . S
C338 O339 1.224 . S
C338 O357 1.247 . S
O339 C338 1.224 . S
N340 Co330 2.128 . S
N340 C341 1.355 . S
N340 C343 1.311 . S
C341 N340 1.355 . S
C341 C342 1.363 . S
C341 H353 0.929 . S
C342 C341 1.363 . S
C342 N344 1.375 . S
C342 H360 0.931 . S
C343 N340 1.311 . S
C343 N344 1.347 . S
C343 H354 0.929 . S
N344 C342 1.375 . S
N344 C343 1.347 . S
C345 C348 1.365 . S
C345 N350 1.328 . S
C345 H351 0.929 . S
C346 C347 1.362 . S
C346 C349 1.378 . S
C346 H361 0.929 . S
C347 C346 1.362 . S
C347 C348 1.366 . S
C348 C345 1.365 . S
C348 C347 1.366 . S
C348 H362 0.930 . S
C349 C346 1.378 . S
C349 N350 1.315 . S
C349 H352 0.930 . S
N350 Co330 2.194 . S
N350 C345 1.328 . S
N350 C349 1.315 . S
H351 C345 0.929 . S
H352 C349 0.930 . S
H353 C341 0.929 . S
H354 C343 0.929 . S
O355 Co330 2.351 . S
O355 C358 1.244 . S
O356 Co330 2.155 . S
O356 C358 1.240 . S
O357 Co330 2.096 . S
O357 C338 1.247 . S
C358 O355 1.244 . S
C358 O356 1.240 . S
H359 C333 0.931 . S
H360 C342 0.931 . S
H361 C346 0.929 . S
H362 C348 0.930 . S
Co363 N367 2.148 . S
Co363 N373 2.128 1_455 S
Co363 N383 2.194 1_455 S
Co363 O388 2.351 1_455 S
Co363 O389 2.155 . S
Co363 O390 2.096 . S
C364 N367 1.301 . S
C364 N368 1.328 . S
C364 H369 0.930 . S
C365 C366 1.333 . S
C365 N367 1.317 . S
C365 H370 0.930 . S
C366 C365 1.333 . S
C366 N368 1.350 . S
C366 H392 0.931 . S
N367 Co363 2.148 . S
N367 C364 1.301 . S
N367 C365 1.317 . S
N368 C364 1.328 . S
N368 C366 1.350 . S
H369 C364 0.930 . S
H370 C365 0.930 . S
C371 O372 1.224 . S
C371 O390 1.247 . S
O372 C371 1.224 . S
N373 Co363 2.128 1_655 S
N373 C374 1.355 . S
N373 C376 1.323 . S
C374 N373 1.355 . S
C374 C375 1.363 . S
C374 H386 0.929 . S
C375 C374 1.363 . S
C375 N377 1.375 . S
C375 H393 0.931 . S
C376 N373 1.323 . S
C376 N377 1.352 . S
C376 H387 0.914 1_655 S
N377 C375 1.375 . S
N377 C376 1.352 . S
C378 C381 1.365 . S
C378 N383 1.328 . S
C378 H384 0.929 . S
C379 C380 1.362 . S
C379 C382 1.378 . S
C379 H394 0.929 . S
C380 C379 1.362 . S
C380 C381 1.366 . S
C381 C378 1.365 . S
C381 C380 1.366 . S
C381 H395 0.930 . S
C382 C379 1.378 . S
C382 N383 1.315 . S
C382 H385 0.930 . S
N383 Co363 2.194 1_655 S
N383 C378 1.328 . S
N383 C382 1.315 . S
H384 C378 0.929 . S
H385 C382 0.930 . S
H386 C374 0.929 . S
H387 C376 0.914 1_455 S
O388 Co363 2.351 1_655 S
O388 C391 1.244 1_655 S
O389 Co363 2.155 . S
O389 C391 1.240 . S
O390 Co363 2.096 . S
O390 C371 1.247 . S
C391 O388 1.244 1_455 S
C391 O389 1.240 . S
H392 C366 0.931 . S
H393 C375 0.931 . S
H394 C379 0.929 . S
H395 C381 0.930 . S
C396 C397 1.349 . S
C396 C398 1.327 . S
C396 H421 0.950 . S
C397 C396 1.349 . S
C397 C413 1.349 . S
C398 C396 1.327 . S
C398 C417 1.429 . S
C398 H422 0.950 . S
C399 C416 1.574 1_565 S
C399 C418 1.368 1_554 S
C399 H423 0.949 . S
H400 C404 0.949 . S
C401 C402 1.349 . S
C401 C403 1.327 . S
C401 H424 0.950 . S
C402 C401 1.349 . S
C402 C414 1.349 . S
C403 C401 1.327 . S
C403 C419 1.429 . S
C403 H425 0.950 . S
C404 H400 0.949 . S
C404 C412 1.574 1_545 S
C404 C420 1.368 1_556 S
H405 C413 0.950 . S
H406 C411 0.950 . S
H407 C412 0.949 . S
H408 C414 0.950 . S
H409 C415 0.950 . S
H410 C416 0.949 . S
C411 H406 0.950 . S
C411 C413 1.327 . S
C411 C417 1.429 . S
C412 C404 1.574 1_565 S
C412 H407 0.949 . S
C412 C418 1.368 . S
C413 C397 1.349 . S
C413 H405 0.950 . S
C413 C411 1.327 . S
C414 C402 1.349 . S
C414 H408 0.950 . S
C414 C415 1.327 . S
C415 H409 0.950 . S
C415 C414 1.327 . S
C415 C419 1.429 . S
C416 C399 1.574 1_545 S
C416 H410 0.949 . S
C416 C420 1.368 . S
C417 C398 1.429 . S
C417 C411 1.429 . S
C417 C418 1.523 . S
C418 C399 1.368 1_556 S
C418 C412 1.368 . S
C418 C417 1.523 . S
C419 C403 1.429 . S
C419 C415 1.429 . S
C419 C420 1.523 . S
C420 C404 1.368 1_554 S
C420 C416 1.368 . S
C420 C419 1.523 . S
H421 C396 0.950 . S
H422 C398 0.950 . S
H423 C399 0.949 . S
H424 C401 0.950 . S
H425 C403 0.950 . S
C426 C427 1.349 . S
C426 C428 1.327 . S
C426 H451 0.950 . S
C427 C426 1.349 . S
C427 C443 1.349 . S
C428 C426 1.327 . S
C428 C447 1.429 . S
C428 H452 0.950 . S
C429 C446 1.574 . S
C429 C448 1.368 . S
C429 H453 0.949 . S
H430 C434 0.949 . S
C431 C432 1.349 . S
C431 C433 1.327 . S
C431 H454 0.950 . S
C432 C431 1.349 . S
C432 C444 1.349 . S
C433 C431 1.327 . S
C433 C449 1.429 . S
C433 H455 0.950 . S
C434 H430 0.949 . S
C434 C442 1.574 . S
C434 C450 1.368 . S
H435 C443 0.950 . S
H436 C441 0.950 . S
H437 C442 0.949 . S
H438 C444 0.950 . S
H439 C445 0.950 . S
H440 C446 0.949 . S
C441 H436 0.950 . S
C441 C443 1.327 . S
C441 C447 1.429 . S
C442 C434 1.574 . S
C442 H437 0.949 . S
C442 C448 1.368 . S
C443 C427 1.349 . S
C443 H435 0.950 . S
C443 C441 1.327 . S
C444 C432 1.349 . S
C444 H438 0.950 . S
C444 C445 1.327 . S
C445 H439 0.950 . S
C445 C444 1.327 . S
C445 C449 1.429 . S
C446 C429 1.574 . S
C446 H440 0.949 . S
C446 C450 1.368 . S
C447 C428 1.429 . S
C447 C441 1.429 . S
C447 C448 1.523 . S
C448 C429 1.368 . S
C448 C442 1.368 . S
C448 C447 1.523 . S
C449 C433 1.429 . S
C449 C445 1.429 . S
C449 C450 1.523 . S
C450 C434 1.368 . S
C450 C446 1.368 . S
C450 C449 1.523 . S
H451 C426 0.950 . S
H452 C428 0.950 . S
H453 C429 0.949 . S
H454 C431 0.950 . S
H455 C433 0.950 . S
C456 C457 1.349 . S
C456 C458 1.327 . S
C456 H481 0.950 . S
C457 C456 1.349 . S
C457 C473 1.349 . S
C458 C456 1.327 . S
C458 C477 1.429 . S
C458 H482 0.950 . S
C459 C476 1.574 1_655 S
C459 C478 1.368 . S
C459 H483 0.949 . S
H460 C464 0.949 . S
C461 C462 1.349 . S
C461 C463 1.327 . S
C461 H484 0.950 . S
C462 C461 1.349 . S
C462 C474 1.349 . S
C463 C461 1.327 . S
C463 C479 1.429 . S
C463 H485 0.950 . S
C464 H460 0.949 . S
C464 C472 1.574 1_455 S
C464 C480 1.368 . S
H465 C473 0.950 . S
H466 C471 0.950 . S
H467 C472 0.949 . S
H468 C474 0.950 . S
H469 C475 0.950 . S
H470 C476 0.949 . S
C471 H466 0.950 . S
C471 C473 1.327 . S
C471 C477 1.429 . S
C472 C464 1.574 1_655 S
C472 H467 0.949 . S
C472 C478 1.368 . S
C473 C457 1.349 . S
C473 H465 0.950 . S
C473 C471 1.327 . S
C474 C462 1.349 . S
C474 H468 0.950 . S
C474 C475 1.327 . S
C475 H469 0.950 . S
C475 C474 1.327 . S
C475 C479 1.429 . S
C476 C459 1.574 1_455 S
C476 H470 0.949 . S
C476 C480 1.368 . S
C477 C458 1.429 . S
C477 C471 1.429 . S
C477 C478 1.523 . S
C478 C459 1.368 . S
C478 C472 1.368 . S
C478 C477 1.523 . S
C479 C463 1.429 . S
C479 C475 1.429 . S
C479 C480 1.523 . S
C480 C464 1.368 . S
C480 C476 1.368 . S
C480 C479 1.523 . S
H481 C456 0.950 . S
H482 C458 0.950 . S
H483 C459 0.949 . S
H484 C461 0.950 . S
H485 C463 0.950 . S
C486 C487 1.349 . S
C486 C488 1.327 . S
C486 H511 0.950 . S
C487 C486 1.349 . S
C487 C503 1.349 . S
C488 C486 1.327 . S
C488 C507 1.429 . S
C488 H512 0.950 . S
C489 C506 1.574 1_545 S
C489 C508 1.368 . S
C489 H513 0.949 . S
H490 C494 0.949 . S
C491 C492 1.349 . S
C491 C493 1.327 . S
C491 H514 0.950 . S
C492 C491 1.349 . S
C492 C504 1.349 . S
C493 C491 1.327 . S
C493 C509 1.429 . S
C493 H515 0.950 . S
C494 H490 0.949 . S
C494 C502 1.574 1_565 S
C494 C510 1.368 . S
H495 C503 0.950 . S
H496 C501 0.950 . S
H497 C502 0.949 . S
H498 C504 0.950 . S
H499 C505 0.950 . S
H500 C506 0.949 . S
C501 H496 0.950 . S
C501 C503 1.327 . S
C501 C507 1.429 . S
C502 C494 1.574 1_545 S
C502 H497 0.949 . S
C502 C508 1.368 . S
C503 C487 1.349 . S
C503 H495 0.950 . S
C503 C501 1.327 . S
C504 C492 1.349 . S
C504 H498 0.950 . S
C504 C505 1.327 . S
C505 H499 0.950 . S
C505 C504 1.327 . S
C505 C509 1.429 . S
C506 C489 1.574 1_565 S
C506 H500 0.949 . S
C506 C510 1.368 . S
C507 C488 1.429 . S
C507 C501 1.429 . S
C507 C508 1.523 . S
C508 C489 1.368 . S
C508 C502 1.368 . S
C508 C507 1.523 . S
C509 C493 1.429 . S
C509 C505 1.429 . S
C509 C510 1.523 . S
C510 C494 1.368 . S
C510 C506 1.368 . S
C510 C509 1.523 . S
H511 C486 0.950 . S
H512 C488 0.950 . S
H513 C489 0.949 . S
H514 C491 0.950 . S
H515 C493 0.950 . S
C516 C517 1.349 . S
C516 C518 1.327 . S
C516 H541 0.950 . S
C517 C516 1.349 . S
C517 C533 1.349 . S
C518 C516 1.327 . S
C518 C537 1.429 . S
C518 H542 0.950 . S
C519 C536 1.574 . S
C519 C538 1.368 . S
C519 H543 0.949 . S
H520 C524 0.949 . S
C521 C522 1.349 . S
C521 C523 1.327 . S
C521 H544 0.950 . S
C522 C521 1.349 . S
C522 C534 1.349 . S
C523 C521 1.327 . S
C523 C539 1.429 . S
C523 H545 0.950 . S
C524 H520 0.949 . S
C524 C532 1.574 . S
C524 C540 1.368 . S
H525 C533 0.950 . S
H526 C531 0.950 . S
H527 C532 0.949 . S
H528 C534 0.950 . S
H529 C535 0.950 . S
H530 C536 0.949 . S
C531 H526 0.950 . S
C531 C533 1.327 . S
C531 C537 1.429 . S
C532 C524 1.574 . S
C532 H527 0.949 . S
C532 C538 1.368 . S
C533 C517 1.349 . S
C533 H525 0.950 . S
C533 C531 1.327 . S
C534 C522 1.349 . S
C534 H528 0.950 . S
C534 C535 1.327 . S
C535 H529 0.950 . S
C535 C534 1.327 . S
C535 C539 1.429 . S
C536 C519 1.574 . S
C536 H530 0.949 . S
C536 C540 1.368 . S
C537 C518 1.429 . S
C537 C531 1.429 . S
C537 C538 1.523 . S
C538 C519 1.368 . S
C538 C532 1.368 . S
C538 C537 1.523 . S
C539 C523 1.429 . S
C539 C535 1.429 . S
C539 C540 1.523 . S
C540 C524 1.368 . S
C540 C536 1.368 . S
C540 C539 1.523 . S
H541 C516 0.950 . S
H542 C518 0.950 . S
H543 C519 0.949 . S
H544 C521 0.950 . S
H545 C523 0.950 . S
C546 C547 1.349 . S
C546 C548 1.327 . S
C546 H571 0.950 . S
C547 C546 1.349 . S
C547 C563 1.349 . S
C548 C546 1.327 . S
C548 C567 1.429 . S
C548 H572 0.950 . S
C549 C566 1.574 1_655 S
C549 C568 1.368 . S
C549 H573 0.949 . S
H550 C554 0.949 . S
C551 C552 1.349 . S
C551 C553 1.327 . S
C551 H574 0.950 . S
C552 C551 1.349 . S
C552 C564 1.349 . S
C553 C551 1.327 . S
C553 C569 1.429 . S
C553 H575 0.950 . S
C554 H550 0.949 . S
C554 C562 1.574 1_455 S
C554 C570 1.368 . S
H555 C563 0.950 . S
H556 C561 0.950 . S
H557 C562 0.949 . S
H558 C564 0.950 . S
H559 C565 0.950 . S
H560 C566 0.949 . S
C561 H556 0.950 . S
C561 C563 1.327 . S
C561 C567 1.429 . S
C562 C554 1.574 1_655 S
C562 H557 0.949 . S
C562 C568 1.368 . S
C563 C547 1.349 . S
C563 H555 0.950 . S
C563 C561 1.327 . S
C564 C552 1.349 . S
C564 H558 0.950 . S
C564 C565 1.327 . S
C565 H559 0.950 . S
C565 C564 1.327 . S
C565 C569 1.429 . S
C566 C549 1.574 1_455 S
C566 H560 0.949 . S
C566 C570 1.368 . S
C567 C548 1.429 . S
C567 C561 1.429 . S
C567 C568 1.523 . S
C568 C549 1.368 . S
C568 C562 1.368 . S
C568 C567 1.523 . S
C569 C553 1.429 . S
C569 C565 1.429 . S
C569 C570 1.523 . S
C570 C554 1.368 . S
C570 C566 1.368 . S
C570 C569 1.523 . S
H571 C546 0.950 . S
H572 C548 0.950 . S
H573 C549 0.949 . S
H574 C551 0.950 . S
H575 C553 0.950 . S
C576 C577 1.349 1_655 S
C576 C578 1.327 . S
C576 H601 0.950 . S
C577 C576 1.349 1_455 S
C577 C593 1.349 . S
C578 C576 1.327 . S
C578 C597 1.429 1_655 S
C578 H602 0.950 . S
C579 C596 1.574 . S
C579 C598 1.368 . S
C579 H603 0.949 . S
H580 C584 0.949 . S
C581 C582 1.349 . S
C581 C583 1.327 . S
C581 H604 0.950 . S
C582 C581 1.349 . S
C582 C594 1.349 1_455 S
C583 C581 1.327 . S
C583 C599 1.429 . S
C583 H605 0.950 . S
C584 H580 0.949 . S
C584 C592 1.574 1_565 S
C584 C600 1.368 1_655 S
H585 C593 0.950 . S
H586 C591 0.950 . S
H587 C592 0.949 1_565 S
H588 C594 0.950 . S
H589 C595 0.950 . S
H590 C596 0.949 . S
C591 H586 0.950 . S
C591 C593 1.327 . S
C591 C597 1.429 . S
C592 C584 1.574 1_545 S
C592 H587 0.949 1_545 S
C592 C598 1.368 1_655 S
C593 C577 1.349 . S
C593 H585 0.950 . S
C593 C591 1.327 . S
C594 C582 1.349 1_655 S
C594 H588 0.950 . S
C594 C595 1.327 . S
C595 H589 0.950 . S
C595 C594 1.327 . S
C595 C599 1.429 1_655 S
C596 C579 1.574 . S
C596 H590 0.949 . S
C596 C600 1.368 1_545 S
C597 C578 1.429 1_455 S
C597 C591 1.429 . S
C597 C598 1.523 . S
C598 C579 1.368 . S
C598 C592 1.368 1_455 S
C598 C597 1.523 . S
C599 C583 1.429 . S
C599 C595 1.429 1_455 S
C599 C600 1.523 . S
C600 C584 1.368 1_455 S
C600 C596 1.368 1_565 S
C600 C599 1.523 . S
H601 C576 0.950 . S
H602 C578 0.950 . S
H603 C579 0.949 . S
H604 C581 0.950 . S
H605 C583 0.950 . S
C606 C607 1.349 1_565 S
C606 C608 1.327 . S
C606 H631 0.950 . S
C607 C606 1.349 1_545 S
C607 C623 1.349 . S
C608 C606 1.327 . S
C608 C627 1.429 1_565 S
C608 H632 0.950 . S
C609 C626 1.578 . S
C609 C628 1.368 1_455 S
C609 H633 0.945 1_455 S
H610 C614 0.949 . S
C611 C612 1.349 . S
C611 C613 1.327 . S
C611 H634 0.950 . S
C612 C611 1.349 . S
C612 C624 1.349 1_545 S
C613 C611 1.327 . S
C613 C629 1.429 . S
C613 H635 0.950 . S
C614 H610 0.949 . S
C614 C622 1.574 1_455 S
C614 C630 1.368 1_565 S
H615 C623 0.950 . S
H616 C621 0.950 . S
H617 C622 0.949 . S
H618 C624 0.950 . S
H619 C625 0.950 . S
H620 C626 0.949 . S
C621 H616 0.950 . S
C621 C623 1.327 . S
C621 C627 1.429 . S
C622 C614 1.574 1_655 S
C622 H617 0.949 . S
C622 C628 1.368 1_565 S
C623 C607 1.349 . S
C623 H615 0.950 . S
C623 C621 1.327 . S
C624 C612 1.349 1_565 S
C624 H618 0.950 . S
C624 C625 1.327 . S
C625 H619 0.950 . S
C625 C624 1.327 . S
C625 C629 1.429 1_565 S
C626 C609 1.578 . S
C626 H620 0.949 . S
C626 C630 1.368 . S
C627 C608 1.429 1_545 S
C627 C621 1.429 . S
C627 C628 1.523 . S
C628 C609 1.368 1_655 S
C628 C622 1.368 1_545 S
C628 C627 1.523 . S
C629 C613 1.429 . S
C629 C625 1.429 1_545 S
C629 C630 1.523 . S
C630 C614 1.368 1_545 S
C630 C626 1.368 . S
C630 C629 1.523 . S
H631 C606 0.950 . S
H632 C608 0.950 . S
H633 C609 0.945 1_655 S
H634 C611 0.950 . S
H635 C613 0.950 . S
C636 C637 1.349 . S
C636 C638 1.327 . S
C636 H661 0.950 . S
C637 C636 1.349 . S
C637 C653 1.349 . S
C638 C636 1.327 . S
C638 C657 1.429 . S
C638 H662 0.950 . S
C639 C656 1.574 1_455 S
C639 C658 1.368 . S
C639 H663 0.949 . S
H640 C644 0.949 . S
C641 C642 1.349 . S
C641 C643 1.327 . S
C641 H664 0.950 . S
C642 C641 1.349 . S
C642 C654 1.349 . S
C643 C641 1.327 . S
C643 C659 1.429 . S
C643 H665 0.950 . S
C644 H640 0.949 . S
C644 C652 1.574 1_565 S
C644 C660 1.368 . S
H645 C653 0.950 . S
H646 C651 0.950 . S
H647 C652 0.949 1_565 S
H648 C654 0.950 . S
H649 C655 0.950 . S
H650 C656 0.949 . S
C651 H646 0.950 . S
C651 C653 1.327 . S
C651 C657 1.429 . S
C652 C644 1.574 1_545 S
C652 H647 0.949 1_545 S
C652 C658 1.368 1_655 S
C653 C637 1.349 . S
C653 H645 0.950 . S
C653 C651 1.327 . S
C654 C642 1.349 . S
C654 H648 0.950 . S
C654 C655 1.327 . S
C655 H649 0.950 . S
C655 C654 1.327 . S
C655 C659 1.429 . S
C656 C639 1.574 1_655 S
C656 H650 0.949 . S
C656 C660 1.368 1_545 S
C657 C638 1.429 . S
C657 C651 1.429 . S
C657 C658 1.523 . S
C658 C639 1.368 . S
C658 C652 1.368 1_455 S
C658 C657 1.523 . S
C659 C643 1.429 . S
C659 C655 1.429 . S
C659 C660 1.523 . S
C660 C644 1.368 . S
C660 C656 1.368 1_565 S
C660 C659 1.523 . S
H661 C636 0.950 . S
H662 C638 0.950 . S
H663 C639 0.949 . S
H664 C641 0.950 . S
H665 C643 0.950 . S
C666 C667 1.349 1_455 S
C666 C668 1.327 . S
C666 H691 0.950 . S
C667 C666 1.349 1_655 S
C667 C683 1.349 . S
C668 C666 1.327 . S
C668 C687 1.429 1_455 S
C668 H692 0.950 . S
C669 C686 1.574 . S
C669 C688 1.368 1_565 S
C669 H693 0.949 . S
H670 C674 0.949 . S
C671 C672 1.349 . S
C671 C673 1.327 . S
C671 H694 0.950 . S
C672 C671 1.349 . S
C672 C684 1.349 1_655 S
C673 C671 1.327 . S
C673 C689 1.429 . S
C673 H695 0.950 . S
C674 H670 0.949 . S
C674 C682 1.574 1_565 S
C674 C690 1.368 1_455 S
H675 C683 0.950 . S
H676 C681 0.950 . S
H677 C682 0.949 . S
H678 C684 0.950 . S
H679 C685 0.950 . S
H680 C686 0.949 . S
C681 H676 0.950 . S
C681 C683 1.327 . S
C681 C687 1.429 . S
C682 C674 1.574 1_545 S
C682 H677 0.949 . S
C682 C688 1.368 1_455 S
C683 C667 1.349 . S
C683 H675 0.950 . S
C683 C681 1.327 . S
C684 C672 1.349 1_455 S
C684 H678 0.950 . S
C684 C685 1.327 . S
C685 H679 0.950 . S
C685 C684 1.327 . S
C685 C689 1.429 1_455 S
C686 C669 1.574 . S
C686 H680 0.949 . S
C686 C690 1.368 . S
C687 C668 1.429 1_655 S
C687 C681 1.429 . S
C687 C688 1.523 . S
C688 C669 1.368 1_545 S
C688 C682 1.368 1_655 S
C688 C687 1.523 . S
C689 C673 1.429 . S
C689 C685 1.429 1_655 S
C689 C690 1.523 . S
C690 C674 1.368 1_655 S
C690 C686 1.368 . S
C690 C689 1.523 . S
H691 C666 0.950 . S
H692 C668 0.950 . S
H693 C669 0.949 . S
H694 C671 0.950 . S
H695 C673 0.950 . S
C696 C697 1.349 1_545 S
C696 C698 1.327 . S
C696 H721 0.950 . S
C697 C696 1.349 1_565 S
C697 C713 1.349 . S
C698 C696 1.327 . S
C698 C717 1.429 1_545 S
C698 H722 0.950 . S
C699 C716 1.574 . S
C699 C718 1.368 1_655 S
C699 H723 0.949 1_655 S
H700 C704 0.949 . S
C701 C702 1.349 . S
C701 C703 1.327 . S
C701 H724 0.950 . S
C702 C701 1.349 . S
C702 C714 1.349 1_565 S
C703 C701 1.327 . S
C703 C719 1.429 . S
C703 H725 0.950 . S
C704 H700 0.949 . S
C704 C712 1.574 1_655 S
C704 C720 1.368 1_545 S
H705 C713 0.950 . S
H706 C711 0.950 . S
H707 C712 0.949 . S
H708 C714 0.950 . S
H709 C715 0.950 . S
H710 C716 0.949 . S
C711 H706 0.950 . S
C711 C713 1.327 . S
C711 C717 1.429 . S
C712 C704 1.574 1_455 S
C712 H707 0.949 . S
C712 C718 1.368 1_545 S
C713 C697 1.349 . S
C713 H705 0.950 . S
C713 C711 1.327 . S
C714 C702 1.349 1_545 S
C714 H708 0.950 . S
C714 C715 1.327 . S
C715 H709 0.950 . S
C715 C714 1.327 . S
C715 C719 1.429 1_545 S
C716 C699 1.574 . S
C716 H710 0.949 . S
C716 C720 1.368 . S
C717 C698 1.429 1_565 S
C717 C711 1.429 . S
C717 C718 1.523 . S
C718 C699 1.368 1_455 S
C718 C712 1.368 1_565 S
C718 C717 1.523 . S
C719 C703 1.429 . S
C719 C715 1.429 1_565 S
C719 C720 1.523 . S
C720 C704 1.368 1_565 S
C720 C716 1.368 . S
C720 C719 1.523 . S
H721 C696 0.950 . S
H722 C698 0.950 . S
H723 C699 0.949 1_455 S
H724 C701 0.950 . S
H725 C703 0.950 . S
C726 C727 1.349 . S
C726 C728 1.327 . S
C726 H751 0.950 . S
C727 C726 1.349 . S
C727 C743 1.349 . S
C728 C726 1.327 . S
C728 C747 1.429 . S
C728 H752 0.950 . S
C729 C746 1.574 1_655 S
C729 C748 1.368 . S
C729 H753 0.949 . S
H730 C734 0.949 . S
C731 C732 1.349 . S
C731 C733 1.327 . S
C731 H754 0.950 . S
C732 C731 1.349 . S
C732 C744 1.349 . S
C733 C731 1.327 . S
C733 C749 1.429 . S
C733 H755 0.950 . S
C734 H730 0.949 . S
C734 C742 1.574 1_545 S
C734 C750 1.368 . S
H735 C743 0.950 . S
H736 C741 0.950 . S
H737 C742 0.949 . S
H738 C744 0.950 . S
H739 C745 0.950 . S
H740 C746 0.942 1_645 S
C741 H736 0.950 . S
C741 C743 1.327 . S
C741 C747 1.429 . S
C742 C734 1.574 1_565 S
C742 H737 0.949 . S
C742 C748 1.368 1_455 S
C743 C727 1.349 . S
C743 H735 0.950 . S
C743 C741 1.327 . S
C744 C732 1.349 . S
C744 H738 0.950 . S
C744 C745 1.327 . S
C745 H739 0.950 . S
C745 C744 1.327 . S
C745 C749 1.429 . S
C746 C729 1.574 1_455 S
C746 H740 0.942 1_465 S
C746 C750 1.368 1_565 S
C747 C728 1.429 . S
C747 C741 1.429 . S
C747 C748 1.523 . S
C748 C729 1.368 . S
C748 C742 1.368 1_655 S
C748 C747 1.523 . S
C749 C733 1.429 . S
C749 C745 1.429 . S
C749 C750 1.523 . S
C750 C734 1.368 . S
C750 C746 1.368 1_545 S
C750 C749 1.523 . S
H751 C726 0.950 . S
H752 C728 0.950 . S
H753 C729 0.949 . S
H754 C731 0.950 . S
H755 C733 0.950 . S
C756 C757 1.349 . S
C756 C758 1.327 . S
C756 H781 0.950 . S
C757 C756 1.349 . S
C757 C773 1.349 . S
C758 C756 1.327 . S
C758 C777 1.429 . S
C758 H782 0.950 1_556 S
C759 C776 1.574 . S
C759 C778 1.368 . S
C759 H783 0.949 . S
H760 C764 0.949 . S
C761 C762 1.349 . S
C761 C763 1.327 . S
C761 H784 0.950 . S
C762 C761 1.349 . S
C762 C774 1.349 . S
C763 C761 1.327 . S
C763 C779 1.429 . S
C763 H785 0.950 1_554 S
C764 H760 0.949 . S
C764 C772 1.574 . S
C764 C780 1.368 . S
H765 C773 0.950 . S
H766 C771 0.950 . S
H767 C772 0.949 . S
H768 C774 0.950 . S
H769 C775 0.950 . S
H770 C776 0.949 . S
C771 H766 0.950 . S
C771 C773 1.327 . S
C771 C777 1.429 . S
C772 C764 1.574 . S
C772 H767 0.949 . S
C772 C778 1.368 1_554 S
C773 C757 1.349 . S
C773 H765 0.950 . S
C773 C771 1.327 . S
C774 C762 1.349 . S
C774 H768 0.950 . S
C774 C775 1.327 . S
C775 H769 0.950 . S
C775 C774 1.327 . S
C775 C779 1.429 . S
C776 C759 1.574 . S
C776 H770 0.949 . S
C776 C780 1.368 1_556 S
C777 C758 1.429 . S
C777 C771 1.429 . S
C777 C778 1.523 . S
C778 C759 1.368 . S
C778 C772 1.368 1_556 S
C778 C777 1.523 . S
C779 C763 1.429 . S
C779 C775 1.429 . S
C779 C780 1.523 . S
C780 C764 1.368 . S
C780 C776 1.368 1_554 S
C780 C779 1.523 . S
H781 C756 0.950 . S
H782 C758 0.950 1_554 S
H783 C759 0.949 . S
H784 C761 0.950 . S
H785 C763 0.950 1_556 S
C786 C787 1.349 . S
C786 C788 1.327 . S
C786 H811 0.950 1_655 S
C787 C786 1.349 . S
C787 C803 1.349 . S
C788 C786 1.327 . S
C788 C807 1.429 . S
C788 H812 0.950 . S
C789 C806 1.574 . S
C789 C808 1.368 . S
C789 H813 0.949 . S
H790 C794 0.949 . S
C791 C792 1.349 . S
C791 C793 1.327 . S
C791 H814 0.950 . S
C792 C791 1.349 . S
C792 C804 1.349 . S
C793 C791 1.327 . S
C793 C809 1.429 . S
C793 H815 0.950 . S
C794 H790 0.949 . S
C794 C802 1.574 . S
C794 C810 1.368 . S
H795 C803 0.950 . S
H796 C801 0.950 . S
H797 C802 0.949 . S
H798 C804 0.950 . S
H799 C805 0.950 . S
H800 C806 0.949 . S
C801 H796 0.950 . S
C801 C803 1.327 . S
C801 C807 1.429 . S
C802 C794 1.574 . S
C802 H797 0.949 . S
C802 C808 1.368 . S
C803 C787 1.349 . S
C803 H795 0.950 . S
C803 C801 1.327 . S
C804 C792 1.349 . S
C804 H798 0.950 . S
C804 C805 1.327 . S
C805 H799 0.950 . S
C805 C804 1.327 . S
C805 C809 1.429 . S
C806 C789 1.574 . S
C806 H800 0.949 . S
C806 C810 1.368 . S
C807 C788 1.429 . S
C807 C801 1.429 . S
C807 C808 1.523 . S
C808 C789 1.368 . S
C808 C802 1.368 . S
C808 C807 1.523 . S
C809 C793 1.429 . S
C809 C805 1.429 . S
C809 C810 1.523 . S
C810 C794 1.368 . S
C810 C806 1.368 . S
C810 C809 1.523 . S
H811 C786 0.950 1_455 S
H812 C788 0.950 . S
H813 C789 0.949 . S
H814 C791 0.950 . S
H815 C793 0.950 . S
C816 C817 1.349 . S
C816 C818 1.327 . S
C816 H841 0.950 . S
C817 C816 1.349 . S
C817 C833 1.349 . S
C818 C816 1.327 . S
C818 C837 1.429 . S
C818 H842 0.950 . S
C819 C836 1.574 . S
C819 C838 1.368 . S
C819 H843 0.949 . S
H820 C824 0.949 . S
C821 C822 1.349 . S
C821 C823 1.327 . S
C821 H844 0.950 . S
C822 C821 1.349 . S
C822 C834 1.349 . S
C823 C821 1.327 . S
C823 C839 1.429 . S
C823 H845 0.950 . S
C824 H820 0.949 . S
C824 C832 1.574 . S
C824 C840 1.368 . S
H825 C833 0.950 . S
H826 C831 0.950 . S
H827 C832 0.949 . S
H828 C834 0.950 . S
H829 C835 0.950 . S
H830 C836 0.949 . S
C831 H826 0.950 . S
C831 C833 1.327 . S
C831 C837 1.429 . S
C832 C824 1.574 . S
C832 H827 0.949 . S
C832 C838 1.368 . S
C833 C817 1.349 . S
C833 H825 0.950 . S
C833 C831 1.327 . S
C834 C822 1.349 . S
C834 H828 0.950 . S
C834 C835 1.327 . S
C835 H829 0.950 . S
C835 C834 1.327 . S
C835 C839 1.429 . S
C836 C819 1.574 . S
C836 H830 0.949 . S
C836 C840 1.368 . S
C837 C818 1.429 . S
C837 C831 1.429 . S
C837 C838 1.523 . S
C838 C819 1.368 . S
C838 C832 1.368 . S
C838 C837 1.523 . S
C839 C823 1.429 . S
C839 C835 1.429 . S
C839 C840 1.523 . S
C840 C824 1.368 . S
C840 C836 1.368 . S
C840 C839 1.523 . S
H841 C816 0.950 . S
H842 C818 0.950 . S
H843 C819 0.949 . S
H844 C821 0.950 . S
H845 C823 0.950 . S
C846 C847 1.349 . S
C846 C848 1.327 . S
C846 H871 0.950 . S
C847 C846 1.349 . S
C847 C863 1.349 . S
C848 C846 1.327 . S
C848 C867 1.429 . S
C848 H872 0.950 . S
C849 C866 1.574 . S
C849 C868 1.368 . S
C849 H873 0.949 . S
H850 C854 0.949 . S
C851 C852 1.349 . S
C851 C853 1.327 . S
C851 H874 0.950 . S
C852 C851 1.349 . S
C852 C864 1.349 . S
C853 C851 1.327 . S
C853 C869 1.429 . S
C853 H875 0.950 . S
C854 H850 0.949 . S
C854 C862 1.574 . S
C854 C870 1.368 . S
H855 C863 0.950 . S
H856 C861 0.950 . S
H857 C862 0.949 . S
H858 C864 0.950 . S
H859 C865 0.950 . S
H860 C866 0.949 . S
C861 H856 0.950 . S
C861 C863 1.327 . S
C861 C867 1.429 . S
C862 C854 1.574 . S
C862 H857 0.949 . S
C862 C868 1.368 . S
C863 C847 1.349 . S
C863 H855 0.950 . S
C863 C861 1.327 . S
C864 C852 1.349 . S
C864 H858 0.950 . S
C864 C865 1.327 . S
C865 H859 0.950 . S
C865 C864 1.327 . S
C865 C869 1.429 . S
C866 C849 1.574 . S
C866 H860 0.949 . S
C866 C870 1.368 . S
C867 C848 1.429 . S
C867 C861 1.429 . S
C867 C868 1.523 . S
C868 C849 1.368 . S
C868 C862 1.368 . S
C868 C867 1.523 . S
C869 C853 1.429 . S
C869 C865 1.429 . S
C869 C870 1.523 . S
C870 C854 1.368 . S
C870 C866 1.368 . S
C870 C869 1.523 . S
H871 C846 0.950 . S
H872 C848 0.950 . S
H873 C849 0.949 . S
H874 C851 0.950 . S
H875 C853 0.950 . S
C876 C877 1.349 . S
C876 C878 1.327 . S
C876 H901 0.950 . S
C877 C876 1.349 . S
C877 C893 1.349 . S
C878 C876 1.327 . S
C878 C897 1.429 . S
C878 H902 0.950 . S
C879 C896 1.574 . S
C879 C898 1.368 . S
C879 H903 0.949 . S
H880 C884 0.949 . S
C881 C882 1.349 . S
C881 C883 1.327 . S
C881 H904 0.950 . S
C882 C881 1.349 . S
C882 C894 1.349 . S
C883 C881 1.327 . S
C883 C899 1.429 . S
C883 H905 0.950 . S
C884 H880 0.949 . S
C884 C892 1.574 . S
C884 C900 1.368 . S
H885 C893 0.950 . S
H886 C891 0.950 . S
H887 C892 0.949 . S
H888 C894 0.950 . S
H889 C895 0.950 . S
H890 C896 0.949 . S
C891 H886 0.950 . S
C891 C893 1.327 . S
C891 C897 1.429 . S
C892 C884 1.574 . S
C892 H887 0.949 . S
C892 C898 1.368 . S
C893 C877 1.349 . S
C893 H885 0.950 . S
C893 C891 1.327 . S
C894 C882 1.349 . S
C894 H888 0.950 . S
C894 C895 1.327 . S
C895 H889 0.950 . S
C895 C894 1.327 . S
C895 C899 1.429 . S
C896 C879 1.574 . S
C896 H890 0.949 . S
C896 C900 1.368 . S
C897 C878 1.429 . S
C897 C891 1.429 . S
C897 C898 1.523 . S
C898 C879 1.368 . S
C898 C892 1.368 . S
C898 C897 1.523 . S
C899 C883 1.429 . S
C899 C895 1.429 . S
C899 C900 1.523 . S
C900 C884 1.368 . S
C900 C896 1.368 . S
C900 C899 1.523 . S
H901 C876 0.950 . S
H902 C878 0.950 . S
H903 C879 0.949 . S
H904 C881 0.950 . S
H905 C883 0.950 . S
C906 C907 1.349 . S
C906 C908 1.327 . S
C906 H931 0.950 . S
C907 C906 1.349 . S
C907 C923 1.349 . S
C908 C906 1.327 . S
C908 C927 1.429 . S
C908 H932 0.950 . S
C909 C926 1.574 . S
C909 C928 1.368 . S
C909 H933 0.949 . S
H910 C914 0.949 . S
C911 C912 1.349 . S
C911 C913 1.327 . S
C911 H934 0.950 . S
C912 C911 1.349 . S
C912 C924 1.349 . S
C913 C911 1.327 . S
C913 C929 1.429 . S
C913 H935 0.950 . S
C914 H910 0.949 . S
C914 C922 1.574 . S
C914 C930 1.368 . S
H915 C923 0.950 . S
H916 C921 0.950 . S
H917 C922 0.949 . S
H918 C924 0.950 . S
H919 C925 0.950 . S
H920 C926 0.949 . S
C921 H916 0.950 . S
C921 C923 1.327 . S
C921 C927 1.429 . S
C922 C914 1.574 . S
C922 H917 0.949 . S
C922 C928 1.368 . S
C923 C907 1.349 . S
C923 H915 0.950 . S
C923 C921 1.327 . S
C924 C912 1.349 . S
C924 H918 0.950 . S
C924 C925 1.327 . S
C925 H919 0.950 . S
C925 C924 1.327 . S
C925 C929 1.429 . S
C926 C909 1.574 . S
C926 H920 0.949 . S
C926 C930 1.368 . S
C927 C908 1.429 . S
C927 C921 1.429 . S
C927 C928 1.523 . S
C928 C909 1.368 . S
C928 C922 1.368 . S
C928 C927 1.523 . S
C929 C913 1.429 . S
C929 C925 1.429 . S
C929 C930 1.523 . S
C930 C914 1.368 . S
C930 C926 1.368 . S
C930 C929 1.523 . S
H931 C906 0.950 . S
H932 C908 0.950 . S
H933 C909 0.949 . S
H934 C911 0.950 . S
H935 C913 0.950 . S
C936 C937 1.349 . S
C936 C938 1.327 . S
C936 H961 0.950 . S
C937 C936 1.349 . S
C937 C953 1.349 . S
C938 C936 1.327 . S
C938 C957 1.429 . S
C938 H962 0.950 . S
C939 C956 1.574 . S
C939 C958 1.368 . S
C939 H963 0.949 . S
H940 C944 0.949 . S
C941 C942 1.349 . S
C941 C943 1.327 . S
C941 H964 0.950 . S
C942 C941 1.349 . S
C942 C954 1.349 . S
C943 C941 1.327 . S
C943 C959 1.429 . S
C943 H965 0.950 . S
C944 H940 0.949 . S
C944 C952 1.574 . S
C944 C960 1.368 . S
H945 C953 0.950 . S
H946 C951 0.950 . S
H947 C952 0.949 . S
H948 C954 0.950 . S
H949 C955 0.950 . S
H950 C956 0.949 . S
C951 H946 0.950 . S
C951 C953 1.327 . S
C951 C957 1.429 . S
C952 C944 1.574 . S
C952 H947 0.949 . S
C952 C958 1.368 . S
C953 C937 1.349 . S
C953 H945 0.950 . S
C953 C951 1.327 . S
C954 C942 1.349 . S
C954 H948 0.950 . S
C954 C955 1.327 . S
C955 H949 0.950 . S
C955 C954 1.327 . S
C955 C959 1.429 . S
C956 C939 1.574 . S
C956 H950 0.949 . S
C956 C960 1.368 . S
C957 C938 1.429 . S
C957 C951 1.429 . S
C957 C958 1.523 . S
C958 C939 1.368 . S
C958 C952 1.368 . S
C958 C957 1.523 . S
C959 C943 1.429 . S
C959 C955 1.429 . S
C959 C960 1.523 . S
C960 C944 1.368 . S
C960 C956 1.368 . S
C960 C959 1.523 . S
H961 C936 0.950 . S
H962 C938 0.950 . S
H963 C939 0.949 . S
H964 C941 0.950 . S
H965 C943 0.950 . S
C966 C967 1.349 . S
C966 C968 1.327 . S
C966 H991 0.950 . S
C967 C966 1.349 . S
C967 C983 1.349 . S
C968 C966 1.327 . S
C968 C987 1.429 . S
C968 H992 0.950 1_554 S
C969 C986 1.574 . S
C969 C988 1.368 . S
C969 H993 0.949 . S
H970 C974 0.949 . S
C971 C972 1.349 . S
C971 C973 1.327 . S
C971 H994 0.950 . S
C972 C971 1.349 . S
C972 C984 1.349 . S
C973 C971 1.327 . S
C973 C989 1.429 . S
C973 H995 0.950 1_556 S
C974 H970 0.949 . S
C974 C982 1.574 . S
C974 C990 1.368 . S
H975 C983 0.950 . S
H976 C981 0.950 . S
H977 C982 0.949 . S
H978 C984 0.950 . S
H979 C985 0.950 . S
H980 C986 0.949 . S
C981 H976 0.950 . S
C981 C983 1.327 . S
C981 C987 1.429 . S
C982 C974 1.574 . S
C982 H977 0.949 . S
C982 C988 1.368 1_556 S
C983 C967 1.349 . S
C983 H975 0.950 . S
C983 C981 1.327 . S
C984 C972 1.349 . S
C984 H978 0.950 . S
C984 C985 1.327 . S
C985 H979 0.950 . S
C985 C984 1.327 . S
C985 C989 1.429 . S
C986 C969 1.574 . S
C986 H980 0.949 . S
C986 C990 1.368 1_554 S
C987 C968 1.429 . S
C987 C981 1.429 . S
C987 C988 1.523 . S
C988 C969 1.368 . S
C988 C982 1.368 1_554 S
C988 C987 1.523 . S
C989 C973 1.429 . S
C989 C985 1.429 . S
C989 C990 1.523 . S
C990 C974 1.368 . S
C990 C986 1.368 1_556 S
C990 C989 1.523 . S
H991 C966 0.950 . S
H992 C968 0.950 1_556 S
H993 C969 0.949 . S
H994 C971 0.950 . S
H995 C973 0.950 1_554 S
C996 C997 1.349 . S
C996 C998 1.327 . S
C996 H1021 0.950 . S
C997 C996 1.349 . S
C997 C1013 1.349 . S
C998 C996 1.327 . S
C998 C1017 1.429 . S
C998 H1022 0.950 . S
C999 C1016 1.574 . S
C999 C1018 1.368 . S
C999 H1023 0.949 . S
H1000 C1004 0.949 . S
C1001 C1002 1.349 . S
C1001 C1003 1.327 . S
C1001 H1024 0.950 . S
C1002 C1001 1.349 . S
C1002 C1014 1.349 . S
C1003 C1001 1.327 . S
C1003 C1019 1.429 . S
C1003 H1025 0.950 . S
C1004 H1000 0.949 . S
C1004 C1012 1.574 . S
C1004 C1020 1.368 . S
H1005 C1013 0.950 . S
H1006 C1011 0.950 . S
H1007 C1012 0.949 . S
H1008 C1014 0.950 . S
H1009 C1015 0.950 . S
H1010 C1016 0.949 . S
C1011 H1006 0.950 . S
C1011 C1013 1.327 . S
C1011 C1017 1.429 . S
C1012 C1004 1.574 . S
C1012 H1007 0.949 . S
C1012 C1018 1.368 . S
C1013 C997 1.349 . S
C1013 H1005 0.950 . S
C1013 C1011 1.327 . S
C1014 C1002 1.349 . S
C1014 H1008 0.950 . S
C1014 C1015 1.327 . S
C1015 H1009 0.950 . S
C1015 C1014 1.327 . S
C1015 C1019 1.429 . S
C1016 C999 1.574 . S
C1016 H1010 0.949 . S
C1016 C1020 1.368 . S
C1017 C998 1.429 . S
C1017 C1011 1.429 . S
C1017 C1018 1.523 . S
C1018 C999 1.368 . S
C1018 C1012 1.368 . S
C1018 C1017 1.523 . S
C1019 C1003 1.429 . S
C1019 C1015 1.429 . S
C1019 C1020 1.523 . S
C1020 C1004 1.368 . S
C1020 C1016 1.368 . S
C1020 C1019 1.523 . S
H1021 C996 0.950 . S
H1022 C998 0.950 . S
H1023 C999 0.949 . S
H1024 C1001 0.950 . S
H1025 C1003 0.950 . S
C1026 C1027 1.349 . S
C1026 C1028 1.327 . S
C1026 H1051 0.950 . S
C1027 C1026 1.349 . S
C1027 C1043 1.349 . S
C1028 C1026 1.327 . S
C1028 C1047 1.429 . S
C1028 H1052 0.950 . S
C1029 C1046 1.574 . S
C1029 C1048 1.368 . S
C1029 H1053 0.949 . S
H1030 C1034 0.949 . S
C1031 C1032 1.349 . S
C1031 C1033 1.327 . S
C1031 H1054 0.950 . S
C1032 C1031 1.349 . S
C1032 C1044 1.349 . S
C1033 C1031 1.327 . S
C1033 C1049 1.429 . S
C1033 H1055 0.950 . S
C1034 H1030 0.949 . S
C1034 C1042 1.574 . S
C1034 C1050 1.368 . S
H1035 C1043 0.950 . S
H1036 C1041 0.950 . S
H1037 C1042 0.949 . S
H1038 C1044 0.950 . S
H1039 C1045 0.950 . S
H1040 C1046 0.949 . S
C1041 H1036 0.950 . S
C1041 C1043 1.327 . S
C1041 C1047 1.429 . S
C1042 C1034 1.574 . S
C1042 H1037 0.949 . S
C1042 C1048 1.368 . S
C1043 C1027 1.349 . S
C1043 H1035 0.950 . S
C1043 C1041 1.327 . S
C1044 C1032 1.349 . S
C1044 H1038 0.950 . S
C1044 C1045 1.327 . S
C1045 H1039 0.950 . S
C1045 C1044 1.327 . S
C1045 C1049 1.429 . S
C1046 C1029 1.574 . S
C1046 H1040 0.949 . S
C1046 C1050 1.368 . S
C1047 C1028 1.429 . S
C1047 C1041 1.429 . S
C1047 C1048 1.523 . S
C1048 C1029 1.368 . S
C1048 C1042 1.368 . S
C1048 C1047 1.523 . S
C1049 C1033 1.429 . S
C1049 C1045 1.429 . S
C1049 C1050 1.523 . S
C1050 C1034 1.368 . S
C1050 C1046 1.368 . S
C1050 C1049 1.523 . S
H1051 C1026 0.950 . S
H1052 C1028 0.950 . S
H1053 C1029 0.949 . S
H1054 C1031 0.950 . S
H1055 C1033 0.950 . S
C1056 C1057 1.349 . S
C1056 C1058 1.327 . S
C1056 H1081 0.950 . S
C1057 C1056 1.349 . S
C1057 C1073 1.349 . S
C1058 C1056 1.327 . S
C1058 C1077 1.429 . S
C1058 H1082 0.950 . S
C1059 C1076 1.574 . S
C1059 C1078 1.368 . S
C1059 H1083 0.949 . S
H1060 C1064 0.949 . S
C1061 C1062 1.349 . S
C1061 C1063 1.327 . S
C1061 H1084 0.950 . S
C1062 C1061 1.349 . S
C1062 C1074 1.349 . S
C1063 C1061 1.327 . S
C1063 C1079 1.429 . S
C1063 H1085 0.950 . S
C1064 H1060 0.949 . S
C1064 C1072 1.574 . S
C1064 C1080 1.368 . S
H1065 C1073 0.950 . S
H1066 C1071 0.950 . S
H1067 C1072 0.949 . S
H1068 C1074 0.950 . S
H1069 C1075 0.950 . S
H1070 C1076 0.949 . S
C1071 H1066 0.950 . S
C1071 C1073 1.327 . S
C1071 C1077 1.429 . S
C1072 C1064 1.574 . S
C1072 H1067 0.949 . S
C1072 C1078 1.368 . S
C1073 C1057 1.349 . S
C1073 H1065 0.950 . S
C1073 C1071 1.327 . S
C1074 C1062 1.349 . S
C1074 H1068 0.950 . S
C1074 C1075 1.327 . S
C1075 H1069 0.950 . S
C1075 C1074 1.327 . S
C1075 C1079 1.429 . S
C1076 C1059 1.574 . S
C1076 H1070 0.949 . S
C1076 C1080 1.368 . S
C1077 C1058 1.429 . S
C1077 C1071 1.429 . S
C1077 C1078 1.523 . S
C1078 C1059 1.368 . S
C1078 C1072 1.368 . S
C1078 C1077 1.523 . S
C1079 C1063 1.429 . S
C1079 C1075 1.429 . S
C1079 C1080 1.523 . S
C1080 C1064 1.368 . S
C1080 C1076 1.368 . S
C1080 C1079 1.523 . S
H1081 C1056 0.950 . S
H1082 C1058 0.950 . S
H1083 C1059 0.949 . S
H1084 C1061 0.950 . S
H1085 C1063 0.950 . S
C1086 C1087 1.349 . S
C1086 C1088 1.327 . S
C1086 H1111 0.950 . S
C1087 C1086 1.349 . S
C1087 C1103 1.349 . S
C1088 C1086 1.327 . S
C1088 C1107 1.429 . S
C1088 H1112 0.950 . S
C1089 C1106 1.574 . S
C1089 C1108 1.368 . S
C1089 H1113 0.949 . S
H1090 C1094 0.949 . S
C1091 C1092 1.349 . S
C1091 C1093 1.327 . S
C1091 H1114 0.950 . S
C1092 C1091 1.349 . S
C1092 C1104 1.349 . S
C1093 C1091 1.327 . S
C1093 C1109 1.429 . S
C1093 H1115 0.950 . S
C1094 H1090 0.949 . S
C1094 C1102 1.574 . S
C1094 C1110 1.368 . S
H1095 C1103 0.950 . S
H1096 C1101 0.950 . S
H1097 C1102 0.949 . S
H1098 C1104 0.950 . S
H1099 C1105 0.950 . S
H1100 C1106 0.949 . S
C1101 H1096 0.950 . S
C1101 C1103 1.327 . S
C1101 C1107 1.429 . S
C1102 C1094 1.574 . S
C1102 H1097 0.949 . S
C1102 C1108 1.368 . S
C1103 C1087 1.349 . S
C1103 H1095 0.950 . S
C1103 C1101 1.327 . S
C1104 C1092 1.349 . S
C1104 H1098 0.950 . S
C1104 C1105 1.327 . S
C1105 H1099 0.950 . S
C1105 C1104 1.327 . S
C1105 C1109 1.429 . S
C1106 C1089 1.574 . S
C1106 H1100 0.949 . S
C1106 C1110 1.368 . S
C1107 C1088 1.429 . S
C1107 C1101 1.429 . S
C1107 C1108 1.523 . S
C1108 C1089 1.368 . S
C1108 C1102 1.368 . S
C1108 C1107 1.523 . S
C1109 C1093 1.429 . S
C1109 C1105 1.429 . S
C1109 C1110 1.523 . S
C1110 C1094 1.368 . S
C1110 C1106 1.368 . S
C1110 C1109 1.523 . S
H1111 C1086 0.950 . S
H1112 C1088 0.950 . S
H1113 C1089 0.949 . S
H1114 C1091 0.950 . S
H1115 C1093 0.950 . S
C1116 C1117 1.349 . S
C1116 C1118 1.327 . S
C1116 H1141 0.950 1_655 S
C1117 C1116 1.349 . S
C1117 C1133 1.349 . S
C1118 C1116 1.327 . S
C1118 C1137 1.429 . S
C1118 H1142 0.950 1_655 S
C1119 C1136 1.574 . S
C1119 C1138 1.368 . S
C1119 H1143 0.949 . S
H1120 C1124 0.949 1_455 S
C1121 C1122 1.349 . S
C1121 C1123 1.327 . S
C1121 H1144 0.950 . S
C1122 C1121 1.349 . S
C1122 C1134 1.349 . S
C1123 C1121 1.327 . S
C1123 C1139 1.429 . S
C1123 H1145 0.950 . S
C1124 H1120 0.949 1_655 S
C1124 C1132 1.574 . S
C1124 C1140 1.368 . S
H1125 C1133 0.950 . S
H1126 C1131 0.950 . S
H1127 C1132 0.949 1_455 S
H1128 C1134 0.950 1_455 S
H1129 C1135 0.950 1_455 S
H1130 C1136 0.949 . S
C1131 H1126 0.950 . S
C1131 C1133 1.327 . S
C1131 C1137 1.429 . S
C1132 C1124 1.574 . S
C1132 H1127 0.949 1_655 S
C1132 C1138 1.368 . S
C1133 C1117 1.349 . S
C1133 H1125 0.950 . S
C1133 C1131 1.327 . S
C1134 C1122 1.349 . S
C1134 H1128 0.950 1_655 S
C1134 C1135 1.327 . S
C1135 H1129 0.950 1_655 S
C1135 C1134 1.327 . S
C1135 C1139 1.429 . S
C1136 C1119 1.574 . S
C1136 H1130 0.949 . S
C1136 C1140 1.368 . S
C1137 C1118 1.429 . S
C1137 C1131 1.429 . S
C1137 C1138 1.523 . S
C1138 C1119 1.368 . S
C1138 C1132 1.368 . S
C1138 C1137 1.523 . S
C1139 C1123 1.429 . S
C1139 C1135 1.429 . S
C1139 C1140 1.523 . S
C1140 C1124 1.368 . S
C1140 C1136 1.368 . S
C1140 C1139 1.523 . S
H1141 C1116 0.950 1_455 S
H1142 C1118 0.950 1_455 S
H1143 C1119 0.949 . S
H1144 C1121 0.950 . S
H1145 C1123 0.950 . S
C1146 C1147 1.349 1_545 S
C1146 C1148 1.327 . S
C1146 H1171 0.950 . S
C1147 C1146 1.349 1_565 S
C1147 C1163 1.349 . S
C1148 C1146 1.327 . S
C1148 C1167 1.429 1_545 S
C1148 H1172 0.950 . S
C1149 C1166 1.574 . S
C1149 C1168 1.368 . S
C1149 H1173 0.949 . S
H1150 C1154 0.949 . S
C1151 C1152 1.349 . S
C1151 C1153 1.327 . S
C1151 H1174 0.950 . S
C1152 C1151 1.349 . S
C1152 C1164 1.349 1_565 S
C1153 C1151 1.327 . S
C1153 C1169 1.429 . S
C1153 H1175 0.950 . S
C1154 H1150 0.949 . S
C1154 C1162 1.574 . S
C1154 C1170 1.368 1_545 S
H1155 C1163 0.950 . S
H1156 C1161 0.950 . S
H1157 C1162 0.949 . S
H1158 C1164 0.950 . S
H1159 C1165 0.950 . S
H1160 C1166 0.949 . S
C1161 H1156 0.950 . S
C1161 C1163 1.327 . S
C1161 C1167 1.429 . S
C1162 C1154 1.574 . S
C1162 H1157 0.949 . S
C1162 C1168 1.368 1_545 S
C1163 C1147 1.349 . S
C1163 H1155 0.950 . S
C1163 C1161 1.327 . S
C1164 C1152 1.349 1_545 S
C1164 H1158 0.950 . S
C1164 C1165 1.327 . S
C1165 H1159 0.950 . S
C1165 C1164 1.327 . S
C1165 C1169 1.429 1_545 S
C1166 C1149 1.574 . S
C1166 H1160 0.949 . S
C1166 C1170 1.368 . S
C1167 C1148 1.429 1_565 S
C1167 C1161 1.429 . S
C1167 C1168 1.523 . S
C1168 C1149 1.368 . S
C1168 C1162 1.368 1_565 S
C1168 C1167 1.523 . S
C1169 C1153 1.429 . S
C1169 C1165 1.429 1_565 S
C1169 C1170 1.523 . S
C1170 C1154 1.368 1_565 S
C1170 C1166 1.368 . S
C1170 C1169 1.523 . S
H1171 C1146 0.950 . S
H1172 C1148 0.950 . S
H1173 C1149 0.949 . S
H1174 C1151 0.950 . S
H1175 C1153 0.950 . S
C1176 C1177 1.349 . S
C1176 C1178 1.327 . S
C1176 H1201 0.950 . S
C1177 C1176 1.349 . S
C1177 C1193 1.349 . S
C1178 C1176 1.327 . S
C1178 C1197 1.429 . S
C1178 H1202 0.950 . S
C1179 C1196 1.574 . S
C1179 C1198 1.368 . S
C1179 H1203 0.949 . S
H1180 C1184 0.949 . S
C1181 C1182 1.349 . S
C1181 C1183 1.327 . S
C1181 H1204 0.950 . S
C1182 C1181 1.349 . S
C1182 C1194 1.349 . S
C1183 C1181 1.327 . S
C1183 C1199 1.429 . S
C1183 H1205 0.950 . S
C1184 H1180 0.949 . S
C1184 C1192 1.574 . S
C1184 C1200 1.368 . S
H1185 C1193 0.950 . S
H1186 C1191 0.950 . S
H1187 C1192 0.949 . S
H1188 C1194 0.950 . S
H1189 C1195 0.950 . S
H1190 C1196 0.949 . S
C1191 H1186 0.950 . S
C1191 C1193 1.327 . S
C1191 C1197 1.429 . S
C1192 C1184 1.574 . S
C1192 H1187 0.949 . S
C1192 C1198 1.368 . S
C1193 C1177 1.349 . S
C1193 H1185 0.950 . S
C1193 C1191 1.327 . S
C1194 C1182 1.349 . S
C1194 H1188 0.950 . S
C1194 C1195 1.327 . S
C1195 H1189 0.950 . S
C1195 C1194 1.327 . S
C1195 C1199 1.429 . S
C1196 C1179 1.574 . S
C1196 H1190 0.949 . S
C1196 C1200 1.368 . S
C1197 C1178 1.429 . S
C1197 C1191 1.429 . S
C1197 C1198 1.523 . S
C1198 C1179 1.368 . S
C1198 C1192 1.368 . S
C1198 C1197 1.523 . S
C1199 C1183 1.429 . S
C1199 C1195 1.429 . S
C1199 C1200 1.523 . S
C1200 C1184 1.368 . S
C1200 C1196 1.368 . S
C1200 C1199 1.523 . S
H1201 C1176 0.950 . S
H1202 C1178 0.950 . S
H1203 C1179 0.949 . S
H1204 C1181 0.950 . S
H1205 C1183 0.950 . S
C1206 C1207 1.349 . S
C1206 C1208 1.327 . S
C1206 H1231 0.950 . S
C1207 C1206 1.349 . S
C1207 C1223 1.349 . S
C1208 C1206 1.327 . S
C1208 C1227 1.429 . S
C1208 H1232 0.950 . S
C1209 C1226 1.574 . S
C1209 C1228 1.368 . S
C1209 H1233 0.949 . S
H1210 C1214 0.949 . S
C1211 C1212 1.349 . S
C1211 C1213 1.327 . S
C1211 H1234 0.950 . S
C1212 C1211 1.349 . S
C1212 C1224 1.349 . S
C1213 C1211 1.327 . S
C1213 C1229 1.429 . S
C1213 H1235 0.950 . S
C1214 H1210 0.949 . S
C1214 C1222 1.574 . S
C1214 C1230 1.368 . S
H1215 C1223 0.950 . S
H1216 C1221 0.950 . S
H1217 C1222 0.949 . S
H1218 C1224 0.950 . S
H1219 C1225 0.950 . S
H1220 C1226 0.949 . S
C1221 H1216 0.950 . S
C1221 C1223 1.327 . S
C1221 C1227 1.429 . S
C1222 C1214 1.574 . S
C1222 H1217 0.949 . S
C1222 C1228 1.368 . S
C1223 C1207 1.349 . S
C1223 H1215 0.950 . S
C1223 C1221 1.327 . S
C1224 C1212 1.349 . S
C1224 H1218 0.950 . S
C1224 C1225 1.327 . S
C1225 H1219 0.950 . S
C1225 C1224 1.327 . S
C1225 C1229 1.429 . S
C1226 C1209 1.574 . S
C1226 H1220 0.949 . S
C1226 C1230 1.368 . S
C1227 C1208 1.429 . S
C1227 C1221 1.429 . S
C1227 C1228 1.523 . S
C1228 C1209 1.368 . S
C1228 C1222 1.368 . S
C1228 C1227 1.523 . S
C1229 C1213 1.429 . S
C1229 C1225 1.429 . S
C1229 C1230 1.523 . S
C1230 C1214 1.368 . S
C1230 C1226 1.368 . S
C1230 C1229 1.523 . S
H1231 C1206 0.950 . S
H1232 C1208 0.950 . S
H1233 C1209 0.949 . S
H1234 C1211 0.950 . S
H1235 C1213 0.950 . S
C1236 C1237 1.349 . S
C1236 C1238 1.327 . S
C1236 H1261 0.950 . S
C1237 C1236 1.349 . S
C1237 C1253 1.349 1_545 S
C1238 C1236 1.327 . S
C1238 C1257 1.429 . S
C1238 H1262 0.950 . S
C1239 C1256 1.574 . S
C1239 C1258 1.368 1_565 S
C1239 H1263 0.949 . S
H1240 C1244 0.949 . S
C1241 C1242 1.349 1_565 S
C1241 C1243 1.327 . S
C1241 H1264 0.950 . S
C1242 C1241 1.349 1_545 S
C1242 C1254 1.349 . S
C1243 C1241 1.327 . S
C1243 C1259 1.429 1_565 S
C1243 H1265 0.950 . S
C1244 H1240 0.949 . S
C1244 C1252 1.574 . S
C1244 C1260 1.368 . S
H1245 C1253 0.950 . S
H1246 C1251 0.950 . S
H1247 C1252 0.949 . S
H1248 C1254 0.950 . S
H1249 C1255 0.950 . S
H1250 C1256 0.949 . S
C1251 H1246 0.950 . S
C1251 C1253 1.327 . S
C1251 C1257 1.429 1_565 S
C1252 C1244 1.574 . S
C1252 H1247 0.949 . S
C1252 C1258 1.368 . S
C1253 C1237 1.349 1_565 S
C1253 H1245 0.950 . S
C1253 C1251 1.327 . S
C1254 C1242 1.349 . S
C1254 H1248 0.950 . S
C1254 C1255 1.327 . S
C1255 H1249 0.950 . S
C1255 C1254 1.327 . S
C1255 C1259 1.429 . S
C1256 C1239 1.574 . S
C1256 H1250 0.949 . S
C1256 C1260 1.368 1_565 S
C1257 C1238 1.429 . S
C1257 C1251 1.429 1_545 S
C1257 C1258 1.523 . S
C1258 C1239 1.368 1_545 S
C1258 C1252 1.368 . S
C1258 C1257 1.523 . S
C1259 C1243 1.429 1_545 S
C1259 C1255 1.429 . S
C1259 C1260 1.523 . S
C1260 C1244 1.368 . S
C1260 C1256 1.368 1_545 S
C1260 C1259 1.523 . S
H1261 C1236 0.950 . S
H1262 C1238 0.950 . S
H1263 C1239 0.949 . S
H1264 C1241 0.950 . S
H1265 C1243 0.950 . S
C1266 C1267 1.349 . S
C1266 C1268 1.327 . S
C1266 H1291 0.950 . S
C1267 C1266 1.349 . S
C1267 C1283 1.349 . S
C1268 C1266 1.327 . S
C1268 C1287 1.429 . S
C1268 H1292 0.950 . S
C1269 C1286 1.574 . S
C1269 C1288 1.368 . S
C1269 H1293 0.949 . S
H1270 C1274 0.949 . S
C1271 C1272 1.349 . S
C1271 C1273 1.327 . S
C1271 H1294 0.950 . S
C1272 C1271 1.349 . S
C1272 C1284 1.349 . S
C1273 C1271 1.327 . S
C1273 C1289 1.429 . S
C1273 H1295 0.950 . S
C1274 H1270 0.949 . S
C1274 C1282 1.574 . S
C1274 C1290 1.368 . S
H1275 C1283 0.950 . S
H1276 C1281 0.950 . S
H1277 C1282 0.949 . S
H1278 C1284 0.950 . S
H1279 C1285 0.950 . S
H1280 C1286 0.949 . S
C1281 H1276 0.950 . S
C1281 C1283 1.327 . S
C1281 C1287 1.429 . S
C1282 C1274 1.574 . S
C1282 H1277 0.949 . S
C1282 C1288 1.368 . S
C1283 C1267 1.349 . S
C1283 H1275 0.950 . S
C1283 C1281 1.327 . S
C1284 C1272 1.349 . S
C1284 H1278 0.950 . S
C1284 C1285 1.327 . S
C1285 H1279 0.950 . S
C1285 C1284 1.327 . S
C1285 C1289 1.429 . S
C1286 C1269 1.574 . S
C1286 H1280 0.949 . S
C1286 C1290 1.368 . S
C1287 C1268 1.429 . S
C1287 C1281 1.429 . S
C1287 C1288 1.523 . S
C1288 C1269 1.368 . S
C1288 C1282 1.368 . S
C1288 C1287 1.523 . S
C1289 C1273 1.429 . S
C1289 C1285 1.429 . S
C1289 C1290 1.523 . S
C1290 C1274 1.368 . S
C1290 C1286 1.368 . S
C1290 C1289 1.523 . S
H1291 C1266 0.950 . S
H1292 C1268 0.950 . S
H1293 C1269 0.949 . S
H1294 C1271 0.950 . S
H1295 C1273 0.950 . S
C397 C239 1.207 . S
C402 C8 1.207 . S
C427 C272 1.208 . S
C432 C41 1.208 . S
C457 C74 1.206 . S
C462 C305 1.206 . S
C487 C338 1.206 . S
C492 C107 1.206 . S
C517 C140 1.208 . S
C522 C371 1.208 . S
C547 C206 1.207 . S
C552 C173 1.207 . S
C577 N14 2.012 . S
C582 N278 2.012 . S
C607 N47 2.012 . S
C612 N311 2.012 . S
C637 N344 2.012 . S
C642 N80 2.012 . S
C667 N377 2.012 . S
C672 N113 2.012 . S
C697 N146 2.012 . S
C702 N212 2.012 . S
C727 N245 2.012 . S
C732 N179 2.012 . S
C757 N236 1.126 . S
C762 C17 1.150 . S
C787 N269 1.125 . S
C792 C50 1.149 . S
C817 N302 1.125 . S
C822 C83 1.149 . S
C847 C116 1.150 . S
C852 N335 1.126 . S
C877 N368 1.125 . S
C882 C149 1.149 . S
C907 C182 1.149 . S
C912 N203 1.125 . S
C937 C215 1.150 . S
C942 N170 1.125 . S
C967 N5 1.125 . S
C972 C248 1.149 . S
C997 N38 1.125 . S
C1002 C281 1.149 . S
C1027 N71 1.126 . S
C1032 C314 1.150 . S
C1057 N104 1.125 . S
C1062 C347 1.149 . S
C1087 N137 1.125 . S
C1092 C380 1.149 . S
C1117 C292 1.250 . S
C1122 C28 1.250 . S
C1147 C61 1.250 . S
C1152 C325 1.250 . S
C1177 C358 1.249 . S
C1182 C94 1.249 . S
C1207 C127 1.250 . S
C1212 C391 1.250 . S
C1237 C160 1.250 . S
C1242 C226 1.250 . S
C1267 C259 1.249 . S
C1272 C193 1.249 . S
