# Generated by pormake.
# Topology nfa, (4)-cn, num edge types: 1
# Building blocks:
#     Node 0, Type 0, BuildingBlock: ESEHIV_clean_sbu_0, # of connection points: 4
#     Node 1, Type 0, BuildingBlock: ESEHIV_clean_sbu_0, # of connection points: 4
#     Node 2, Type 0, BuildingBlock: ESEHIV_clean_sbu_0, # of connection points: 4
#     Node 3, Type 0, BuildingBlock: ESEHIV_clean_sbu_0, # of connection points: 4
#     Node 4, Type 0, BuildingBlock: ESEHIV_clean_sbu_0, # of connection points: 4
#     Node 5, Type 0, BuildingBlock: ESEHIV_clean_sbu_0, # of connection points: 4
#     Node 6, Type 0, BuildingBlock: ESEHIV_clean_sbu_0, # of connection points: 4
#     Node 7, Type 0, BuildingBlock: ESEHIV_clean_sbu_0, # of connection points: 4
#     Node 8, Type 0, BuildingBlock: ESEHIV_clean_sbu_0, # of connection points: 4
#     Node 9, Type 0, BuildingBlock: ESEHIV_clean_sbu_0, # of connection points: 4
#     Node 10, Type 0, BuildingBlock: ESEHIV_clean_sbu_0, # of connection points: 4
#     Node 11, Type 0, BuildingBlock: ESEHIV_clean_sbu_0, # of connection points: 4
#     Node 12, Type 0, BuildingBlock: ESEHIV_clean_sbu_0, # of connection points: 4
#     Node 13, Type 0, BuildingBlock: ESEHIV_clean_sbu_0, # of connection points: 4
#     Node 14, Type 0, BuildingBlock: ESEHIV_clean_sbu_0, # of connection points: 4
#     Node 15, Type 0, BuildingBlock: ESEHIV_clean_sbu_0, # of connection points: 4
#     Node 16, Type 0, BuildingBlock: ESEHIV_clean_sbu_0, # of connection points: 4
#     Node 17, Type 0, BuildingBlock: ESEHIV_clean_sbu_0, # of connection points: 4
#     Node 18, Type 0, BuildingBlock: ESEHIV_clean_sbu_0, # of connection points: 4
#     Node 19, Type 0, BuildingBlock: ESEHIV_clean_sbu_0, # of connection points: 4
#     Node 20, Type 0, BuildingBlock: ESEHIV_clean_sbu_0, # of connection points: 4
#     Node 21, Type 0, BuildingBlock: ESEHIV_clean_sbu_0, # of connection points: 4
#     Node 22, Type 0, BuildingBlock: ESEHIV_clean_sbu_0, # of connection points: 4
#     Node 23, Type 0, BuildingBlock: ESEHIV_clean_sbu_0, # of connection points: 4
#     Edge 24, Type (0, 0), BuildingBlock: TEMPAE_clean_linker_10, # of connection points: 2
#     Edge 25, Type (0, 0), BuildingBlock: TEMPAE_clean_linker_10, # of connection points: 2
#     Edge 26, Type (0, 0), BuildingBlock: TEMPAE_clean_linker_10, # of connection points: 2
#     Edge 27, Type (0, 0), BuildingBlock: TEMPAE_clean_linker_10, # of connection points: 2
#     Edge 28, Type (0, 0), BuildingBlock: TEMPAE_clean_linker_10, # of connection points: 2
#     Edge 29, Type (0, 0), BuildingBlock: TEMPAE_clean_linker_10, # of connection points: 2
#     Edge 30, Type (0, 0), BuildingBlock: TEMPAE_clean_linker_10, # of connection points: 2
#     Edge 31, Type (0, 0), BuildingBlock: TEMPAE_clean_linker_10, # of connection points: 2
#     Edge 32, Type (0, 0), BuildingBlock: TEMPAE_clean_linker_10, # of connection points: 2
#     Edge 33, Type (0, 0), BuildingBlock: TEMPAE_clean_linker_10, # of connection points: 2
#     Edge 34, Type (0, 0), BuildingBlock: TEMPAE_clean_linker_10, # of connection points: 2
#     Edge 35, Type (0, 0), BuildingBlock: TEMPAE_clean_linker_10, # of connection points: 2
#     Edge 36, Type (0, 0), BuildingBlock: TEMPAE_clean_linker_10, # of connection points: 2
#     Edge 37, Type (0, 0), BuildingBlock: TEMPAE_clean_linker_10, # of connection points: 2
#     Edge 38, Type (0, 0), BuildingBlock: TEMPAE_clean_linker_10, # of connection points: 2
#     Edge 39, Type (0, 0), BuildingBlock: TEMPAE_clean_linker_10, # of connection points: 2
#     Edge 40, Type (0, 0), BuildingBlock: TEMPAE_clean_linker_10, # of connection points: 2
#     Edge 41, Type (0, 0), BuildingBlock: TEMPAE_clean_linker_10, # of connection points: 2
#     Edge 42, Type (0, 0), BuildingBlock: TEMPAE_clean_linker_10, # of connection points: 2
#     Edge 43, Type (0, 0), BuildingBlock: TEMPAE_clean_linker_10, # of connection points: 2
#     Edge 44, Type (0, 0), BuildingBlock: TEMPAE_clean_linker_10, # of connection points: 2
#     Edge 45, Type (0, 0), BuildingBlock: TEMPAE_clean_linker_10, # of connection points: 2
#     Edge 46, Type (0, 0), BuildingBlock: TEMPAE_clean_linker_10, # of connection points: 2
#     Edge 47, Type (0, 0), BuildingBlock: TEMPAE_clean_linker_10, # of connection points: 2
#     Edge 48, Type (0, 0), BuildingBlock: TEMPAE_clean_linker_10, # of connection points: 2
#     Edge 49, Type (0, 0), BuildingBlock: TEMPAE_clean_linker_10, # of connection points: 2
#     Edge 50, Type (0, 0), BuildingBlock: TEMPAE_clean_linker_10, # of connection points: 2
#     Edge 51, Type (0, 0), BuildingBlock: TEMPAE_clean_linker_10, # of connection points: 2
#     Edge 52, Type (0, 0), BuildingBlock: TEMPAE_clean_linker_10, # of connection points: 2
#     Edge 53, Type (0, 0), BuildingBlock: TEMPAE_clean_linker_10, # of connection points: 2
#     Edge 54, Type (0, 0), BuildingBlock: TEMPAE_clean_linker_10, # of connection points: 2
#     Edge 55, Type (0, 0), BuildingBlock: TEMPAE_clean_linker_10, # of connection points: 2
#     Edge 56, Type (0, 0), BuildingBlock: TEMPAE_clean_linker_10, # of connection points: 2
#     Edge 57, Type (0, 0), BuildingBlock: TEMPAE_clean_linker_10, # of connection points: 2
#     Edge 58, Type (0, 0), BuildingBlock: TEMPAE_clean_linker_10, # of connection points: 2
#     Edge 59, Type (0, 0), BuildingBlock: TEMPAE_clean_linker_10, # of connection points: 2
#     Edge 60, Type (0, 0), BuildingBlock: TEMPAE_clean_linker_10, # of connection points: 2
#     Edge 61, Type (0, 0), BuildingBlock: TEMPAE_clean_linker_10, # of connection points: 2
#     Edge 62, Type (0, 0), BuildingBlock: TEMPAE_clean_linker_10, # of connection points: 2
#     Edge 63, Type (0, 0), BuildingBlock: TEMPAE_clean_linker_10, # of connection points: 2
#     Edge 64, Type (0, 0), BuildingBlock: TEMPAE_clean_linker_10, # of connection points: 2
#     Edge 65, Type (0, 0), BuildingBlock: TEMPAE_clean_linker_10, # of connection points: 2
#     Edge 66, Type (0, 0), BuildingBlock: TEMPAE_clean_linker_10, # of connection points: 2
#     Edge 67, Type (0, 0), BuildingBlock: TEMPAE_clean_linker_10, # of connection points: 2
#     Edge 68, Type (0, 0), BuildingBlock: TEMPAE_clean_linker_10, # of connection points: 2
#     Edge 69, Type (0, 0), BuildingBlock: TEMPAE_clean_linker_10, # of connection points: 2
#     Edge 70, Type (0, 0), BuildingBlock: TEMPAE_clean_linker_10, # of connection points: 2
#     Edge 71, Type (0, 0), BuildingBlock: TEMPAE_clean_linker_10, # of connection points: 2
# Relax obj value: 0.075
# Max RMSD: 0.184
# Mean RMSD: 0.160
data_MOF--net-nfa--node1-ESEHIV_clean_sbu_0--edge1-TEMPAE_clean_linker_10
_symmetry_space_group_name_H-M    P1
_symmetry_Int_Tables_number       1
_symmetry_cell_setting            triclinic
loop_
_symmetry_equiv_pos_as_xyz
'x, y, z'
_cell_length_a     42.055445
_cell_length_b     46.996757
_cell_length_c     44.701872
_cell_angle_alpha  89.054449
_cell_angle_beta   89.075547
_cell_angle_gamma 91.398549
loop_
_atom_site_label
_atom_site_type_symbol
_atom_site_fract_x
_atom_site_fract_y
_atom_site_fract_z
_atom_type_partial_charge
Cu0 Cu 0.08862 0.39181 0.37775 0.0
N1 N 0.04828 0.37444 0.37997 0.0
N2 N 0.01517 0.33645 0.38136 0.0
C3 C 0.04506 0.34629 0.37584 0.0
C4 C 0.99855 0.3596 0.38885 0.0
C5 C 0.01916 0.38309 0.38815 0.0
O6 O 0.11481 0.36182 0.39488 0.0
C7 C 0.07869 0.42497 0.32835 0.0
O8 O 0.05486 0.43093 0.34637 0.0
H9 H 0.06467 0.33321 0.3691 0.0
H10 H 0.01339 0.40465 0.39378 0.0
N11 N 0.09359 0.42474 0.40018 0.0
N12 N 0.11637 0.46686 0.41025 0.0
C13 C 0.11953 0.44175 0.39656 0.0
C14 C 0.07312 0.43945 0.41705 0.0
C15 C 0.08716 0.46559 0.42326 0.0
C16 C 0.10959 0.35768 0.42289 0.0
O17 O 0.09226 0.37613 0.43718 0.0
H18 H 0.13942 0.43653 0.38216 0.0
H19 H 0.04922 0.43238 0.42316 0.0
O20 O 0.09748 0.40544 0.33659 0.0
H21 H 0.97359 0.35948 0.39514 0.0
H22 H 0.07634 0.48262 0.43552 0.0
Cu23 Cu 0.90053 0.90271 0.65942 0.0
N24 N 0.89668 0.9076 0.61785 0.0
N25 N 0.86985 0.91545 0.57572 0.0
C26 C 0.86802 0.90779 0.60492 0.0
C27 C 0.90122 0.9196 0.56976 0.0
C28 C 0.91772 0.91483 0.59581 0.0
O29 O 0.85907 0.91793 0.67417 0.0
C30 C 0.9419 0.85691 0.65583 0.0
O31 O 0.95568 0.87629 0.6382 0.0
H32 H 0.84605 0.90299 0.61709 0.0
H33 H 0.9431 0.91731 0.59843 0.0
N34 N 0.93231 0.92611 0.67568 0.0
N35 N 0.96446 0.94268 0.71101 0.0
C36 C 0.93754 0.92777 0.70525 0.0
C37 C 0.95666 0.9408 0.66228 0.0
C38 C 0.97671 0.95084 0.68408 0.0
C39 C 0.85605 0.94437 0.66703 0.0
O40 O 0.88053 0.95751 0.65383 0.0
H41 H 0.92301 0.91665 0.72213 0.0
H42 H 0.96047 0.94304 0.63843 0.0
O43 O 0.91511 0.86302 0.66819 0.0
H44 H 0.91146 0.92667 0.54846 0.0
H45 H 0.99909 0.96236 0.68044 0.0
Cu46 Cu 0.3686 0.64387 0.89123 0.0
N47 N 0.37689 0.6405 0.85009 0.0
N48 N 0.39186 0.61803 0.80846 0.0
C49 C 0.38856 0.61656 0.83856 0.0
C50 C 0.38172 0.64422 0.80078 0.0
C51 C 0.37251 0.65804 0.82653 0.0
O52 O 0.3475 0.60712 0.90252 0.0
C53 C 0.41776 0.68089 0.90016 0.0
O54 O 0.40012 0.69387 0.88044 0.0
H55 H 0.3935 0.59803 0.85222 0.0
H56 H 0.36302 0.67917 0.8279 0.0
N57 N 0.34124 0.6732 0.90206 0.0
N58 N 0.32438 0.70919 0.93007 0.0
C59 C 0.34442 0.68731 0.92789 0.0
C60 C 0.31798 0.68642 0.88734 0.0
C61 C 0.30738 0.70857 0.90469 0.0
C62 C 0.32371 0.60152 0.88587 0.0
O63 O 0.31544 0.62101 0.86628 0.0
H64 H 0.36178 0.68193 0.94454 0.0
H65 H 0.30999 0.68096 0.86523 0.0
O66 O 0.40946 0.65563 0.90881 0.0
H67 H 0.38094 0.65288 0.77824 0.0
H68 H 0.28953 0.72372 0.89856 0.0
Cu69 Cu 0.68089 0.15717 0.11341 0.0
N70 N 0.65645 0.16961 0.0818 0.0
N71 N 0.62167 0.19533 0.05677 0.0
C72 C 0.64029 0.19385 0.08092 0.0
C73 C 0.62608 0.17102 0.04185 0.0
C74 C 0.64782 0.15519 0.05732 0.0
O75 O 0.65704 0.16363 0.1504 0.0
C76 C 0.7337 0.18909 0.08867 0.0
O77 O 0.71256 0.20415 0.07454 0.0
H78 H 0.64083 0.2094 0.0985 0.0
H79 H 0.65572 0.13415 0.05183 0.0
N80 N 0.68599 0.11847 0.109 0.0
N81 N 0.70991 0.07919 0.09437 0.0
C82 C 0.70749 0.10747 0.09023 0.0
C83 C 0.674 0.09645 0.12552 0.0
C84 C 0.68885 0.07206 0.11654 0.0
C85 C 0.65328 0.18765 0.16259 0.0
O86 O 0.66953 0.21003 0.15223 0.0
H87 H 0.72256 0.12032 0.0752 0.0
H88 H 0.65693 0.09825 0.14371 0.0
O89 O 0.72437 0.17248 0.11005 0.0
H90 H 0.6138 0.16483 0.02178 0.0
H91 H 0.6853 0.05096 0.12629 0.0
Cu92 Cu 0.11348 0.59369 0.10083 0.0
N93 N 0.14044 0.56965 0.08029 0.0
N94 N 0.18669 0.54987 0.0689 0.0
C95 C 0.17194 0.57015 0.0845 0.0
C96 C 0.16329 0.53588 0.05435 0.0
C97 C 0.1347 0.54814 0.06148 0.0
O98 O 0.10972 0.57738 0.14149 0.0
C99 C 0.1404 0.63916 0.06921 0.0
O100 O 0.1393 0.61947 0.04874 0.0
H101 H 0.18347 0.58436 0.09999 0.0
H102 H 0.11141 0.54109 0.05438 0.0
N103 N 0.07357 0.59641 0.08376 0.0
N104 N 0.03235 0.62323 0.07184 0.0
C105 C 0.053 0.61592 0.09322 0.0
C106 C 0.06534 0.59078 0.05544 0.0
C107 C 0.03985 0.60728 0.04805 0.0
C108 C 0.09801 0.55203 0.14277 0.0
O109 O 0.08742 0.54092 0.11794 0.0
H110 H 0.05633 0.6277 0.1136 0.0
H111 H 0.07933 0.57873 0.03989 0.0
O112 O 0.13125 0.63259 0.09592 0.0
H113 H 0.1664 0.51766 0.04021 0.0
H114 H 0.02994 0.60967 0.02597 0.0
Cu115 Cu 0.64632 0.89793 0.3652 0.0
N116 N 0.62445 0.92188 0.3395 0.0
N117 N 0.5908 0.9342 0.30353 0.0
C118 C 0.60346 0.9126 0.3193 0.0
C119 C 0.60473 0.95809 0.3143 0.0
C120 C 0.62553 0.9504 0.33644 0.0
O121 O 0.62099 0.86284 0.36841 0.0
C122 C 0.70155 0.90857 0.33025 0.0
O123 O 0.68307 0.91771 0.30892 0.0
H124 H 0.59802 0.89026 0.31615 0.0
H125 H 0.64042 0.96457 0.34931 0.0
N126 N 0.65279 0.9146 0.40223 0.0
N127 N 0.68197 0.92654 0.4416 0.0
C128 C 0.67665 0.90721 0.42021 0.0
C129 C 0.64231 0.93941 0.41277 0.0
C130 C 0.6604 0.9469 0.4371 0.0
C131 C 0.59981 0.85929 0.38888 0.0
O132 O 0.59789 0.87794 0.41034 0.0
H133 H 0.69162 0.88922 0.41608 0.0
H134 H 0.62427 0.95209 0.40242 0.0
O135 O 0.68942 0.89252 0.35078 0.0
H136 H 0.59996 0.97964 0.30715 0.0
H137 H 0.6587 0.9663 0.44968 0.0
Cu138 Cu 0.4079 0.3722 0.65679 0.0
N139 N 0.41436 0.36625 0.61573 0.0
N140 N 0.42599 0.34433 0.57282 0.0
C141 C 0.42769 0.34347 0.603 0.0
C142 C 0.41146 0.36899 0.56638 0.0
C143 C 0.40434 0.3824 0.59282 0.0
O144 O 0.42434 0.33749 0.67704 0.0
C145 C 0.35363 0.39674 0.68719 0.0
O146 O 0.37089 0.39419 0.71129 0.0
H147 H 0.43742 0.32606 0.61565 0.0
H148 H 0.39197 0.40216 0.59524 0.0
N149 N 0.43289 0.40371 0.66829 0.0
N150 N 0.44323 0.44659 0.6876 0.0
C151 C 0.42171 0.42978 0.67387 0.0
C152 C 0.46298 0.4043 0.67813 0.0
C153 C 0.46947 0.43081 0.68999 0.0
C154 C 0.41589 0.31174 0.6715 0.0
O155 O 0.39024 0.30715 0.65572 0.0
H156 H 0.39765 0.43598 0.66936 0.0
H157 H 0.47834 0.38618 0.67852 0.0
O158 O 0.36335 0.38498 0.66314 0.0
H159 H 0.4059 0.37672 0.54419 0.0
H160 H 0.49086 0.43717 0.70154 0.0
Cu161 Cu 0.91099 0.1088 0.87922 0.0
N162 N 0.87801 0.08453 0.86562 0.0
N163 N 0.84065 0.04944 0.86726 0.0
C164 C 0.86504 0.06237 0.88155 0.0
C165 C 0.83834 0.06412 0.84114 0.0
C166 C 0.86127 0.08575 0.84025 0.0
O167 O 0.90109 0.11626 0.92141 0.0
C168 C 0.95706 0.07994 0.84542 0.0
O169 O 0.93211 0.06748 0.83354 0.0
H170 H 0.87347 0.05596 0.90333 0.0
H171 H 0.86521 0.10142 0.82251 0.0
N172 N 0.91434 0.14458 0.86044 0.0
N173 N 0.94009 0.18552 0.84799 0.0
C174 C 0.9413 0.16032 0.86274 0.0
C175 C 0.89491 0.16036 0.84367 0.0
C176 C 0.91076 0.18578 0.83604 0.0
C177 C 0.87275 0.12472 0.92561 0.0
O178 O 0.85447 0.12769 0.90226 0.0
H179 H 0.96123 0.15352 0.87584 0.0
H180 H 0.871 0.15403 0.83763 0.0
O181 O 0.95313 0.09412 0.86929 0.0
H182 H 0.8209 0.05998 0.82411 0.0
H183 H 0.9014 0.203 0.82274 0.0
Cu184 Cu 0.41601 0.1733 0.37719 0.0
N185 N 0.43448 0.19435 0.34505 0.0
N186 N 0.46945 0.20626 0.30836 0.0
C187 C 0.46047 0.18661 0.32942 0.0
C188 C 0.4481 0.22711 0.3107 0.0
C189 C 0.42665 0.2198 0.33345 0.0
O190 O 0.41 0.13413 0.36335 0.0
C191 C 0.46076 0.19961 0.41559 0.0
O192 O 0.47239 0.2118 0.39102 0.0
H193 H 0.47267 0.16696 0.33364 0.0
H194 H 0.40723 0.23246 0.34138 0.0
N195 N 0.37613 0.18614 0.38943 0.0
N196 N 0.33492 0.19154 0.4211 0.0
C197 C 0.36406 0.18066 0.41707 0.0
C198 C 0.35386 0.20113 0.37525 0.0
C199 C 0.32834 0.20441 0.39473 0.0
C200 C 0.391 0.13186 0.34146 0.0
O201 O 0.37791 0.15508 0.33119 0.0
H202 H 0.37624 0.16812 0.43363 0.0
H203 H 0.35575 0.20876 0.35233 0.0
O204 O 0.44082 0.17886 0.41345 0.0
H205 H 0.44849 0.24662 0.29756 0.0
H206 H 0.30666 0.21535 0.38976 0.0
Cu207 Cu 0.12775 0.13173 0.61807 0.0
N208 N 0.10442 0.14975 0.58788 0.0
N209 N 0.09644 0.17982 0.54924 0.0
C210 C 0.11591 0.17232 0.57167 0.0
C211 C 0.07145 0.16122 0.55165 0.0
C212 C 0.07652 0.14264 0.57534 0.0
O213 O 0.17171 0.14183 0.60682 0.0
C214 C 0.08488 0.13856 0.66539 0.0
O215 O 0.06474 0.13416 0.64371 0.0
H216 H 0.13842 0.18288 0.57621 0.0
H217 H 0.06125 0.12486 0.5824 0.0
N218 N 0.12279 0.09209 0.61941 0.0
N219 N 0.12388 0.04898 0.6413 0.0
C220 C 0.13444 0.07628 0.64188 0.0
C221 C 0.10418 0.07418 0.60381 0.0
C222 C 0.10479 0.0475 0.61733 0.0
C223 C 0.18258 0.12901 0.58403 0.0
O224 O 0.16563 0.10789 0.57309 0.0
H225 H 0.14879 0.08518 0.65948 0.0
H226 H 0.09018 0.08025 0.58479 0.0
O227 O 0.1144 0.14177 0.65872 0.0
H228 H 0.05133 0.1605 0.53687 0.0
H229 H 0.09162 0.0287 0.61049 0.0
Cu230 Cu 0.13993 0.88631 0.89729 0.0
N231 N 0.15564 0.89316 0.85815 0.0
N232 N 0.16016 0.9128 0.81215 0.0
C233 C 0.14392 0.91207 0.83843 0.0
C234 C 0.18297 0.89329 0.8153 0.0
C235 C 0.18015 0.88125 0.84373 0.0
O236 O 0.09671 0.8998 0.89746 0.0
C237 C 0.18739 0.92432 0.92072 0.0
O238 O 0.18859 0.93616 0.89389 0.0
H239 H 0.12363 0.92496 0.84304 0.0
H240 H 0.19505 0.86512 0.85328 0.0
N241 N 0.13855 0.84733 0.90663 0.0
N242 N 0.13826 0.8064 0.9331 0.0
C243 C 0.14266 0.83499 0.93376 0.0
C244 C 0.13151 0.82588 0.88816 0.0
C245 C 0.13131 0.80065 0.90437 0.0
C246 C 0.0905 0.92603 0.89423 0.0
O247 O 0.11327 0.94507 0.89863 0.0
H248 H 0.1479 0.84686 0.95371 0.0
H249 H 0.12651 0.82849 0.86463 0.0
O250 O 0.16714 0.90433 0.92648 0.0
H251 H 0.20082 0.88845 0.79856 0.0
H252 H 0.12649 0.77967 0.89562 0.0
Cu253 Cu 0.3553 0.92154 0.13562 0.0
N254 N 0.33992 0.88446 0.12799 0.0
N255 N 0.32716 0.84594 0.10112 0.0
C256 C 0.34193 0.87181 0.10117 0.0
C257 C 0.31557 0.84206 0.12932 0.0
C258 C 0.3234 0.86584 0.14578 0.0
O259 O 0.34216 0.94465 0.10201 0.0
C260 C 0.40835 0.90821 0.16561 0.0
O261 O 0.38616 0.89336 0.18035 0.0
H262 H 0.35416 0.8814 0.08201 0.0
H263 H 0.31709 0.86941 0.16893 0.0
N264 N 0.33891 0.93742 0.17073 0.0
N265 N 0.33891 0.96495 0.21134 0.0
C266 C 0.35489 0.95728 0.18637 0.0
C267 C 0.31158 0.93232 0.18613 0.0
C268 C 0.31152 0.94924 0.21119 0.0
C269 C 0.3545 0.9429 0.07598 0.0
O270 O 0.38139 0.92955 0.07266 0.0
H271 H 0.37821 0.9655 0.17965 0.0
H272 H 0.29303 0.91744 0.17963 0.0
O273 O 0.40083 0.9215 0.14183 0.0
H274 H 0.3018 0.82369 0.13741 0.0
H275 H 0.29249 0.95014 0.22769 0.0
Cu276 Cu 0.39905 0.38314 0.13038 0.0
N277 N 0.42657 0.37091 0.10047 0.0
N278 N 0.46015 0.34336 0.07575 0.0
C279 C 0.44021 0.3454 0.09957 0.0
C280 C 0.45874 0.36862 0.06106 0.0
C281 C 0.43801 0.38554 0.07634 0.0
O282 O 0.41158 0.36525 0.16828 0.0
C283 C 0.34767 0.38892 0.09315 0.0
O284 O 0.36963 0.40501 0.0796 0.0
H285 H 0.43571 0.32885 0.11631 0.0
H286 H 0.43227 0.40721 0.07055 0.0
N287 N 0.4038 0.42254 0.13358 0.0
N288 N 0.38717 0.46708 0.12961 0.0
C289 C 0.37918 0.4399 0.13692 0.0
C290 C 0.42864 0.43948 0.12481 0.0
C291 C 0.41833 0.46702 0.12208 0.0
C292 C 0.43936 0.37215 0.17726 0.0
O293 O 0.45694 0.39003 0.16084 0.0
H294 H 0.35495 0.43218 0.14074 0.0
H295 H 0.45171 0.43201 0.11795 0.0
O296 O 0.35511 0.37573 0.11721 0.0
H297 H 0.47256 0.37491 0.04131 0.0
H298 H 0.43185 0.48503 0.11271 0.0
Cu299 Cu 0.89759 0.88445 0.08467 0.0
N300 N 0.90404 0.91713 0.0613 0.0
N301 N 0.88616 0.95673 0.03996 0.0
C302 C 0.87871 0.93053 0.05086 0.0
C303 C 0.91793 0.95983 0.0434 0.0
C304 C 0.92899 0.9352 0.05658 0.0
O305 O 0.88111 0.89836 0.12246 0.0
C306 C 0.87739 0.85731 0.03549 0.0
O307 O 0.90403 0.87004 0.02629 0.0
H308 H 0.85466 0.92228 0.05444 0.0
H309 H 0.95282 0.93182 0.06433 0.0
N310 N 0.93368 0.8627 0.08911 0.0
N311 N 0.96143 0.82279 0.08838 0.0
C312 C 0.93231 0.83412 0.08858 0.0
C313 C 0.96483 0.86991 0.0895 0.0
C314 C 0.98205 0.84525 0.08921 0.0
C315 C 0.90047 0.91364 0.13729 0.0
O316 O 0.93044 0.9151 0.12854 0.0
H317 H 0.91018 0.82195 0.08764 0.0
H318 H 0.97443 0.89145 0.089 0.0
O319 O 0.86817 0.86058 0.0625 0.0
H320 H 0.93177 0.97918 0.03886 0.0
H321 H 1.00771 0.84405 0.08837 0.0
Cu322 Cu 0.14026 0.62189 0.67034 0.0
N323 N 0.17647 0.60396 0.68698 0.0
N324 N 0.21412 0.57071 0.69245 0.0
C325 C 0.18483 0.57665 0.68197 0.0
C326 C 0.22443 0.59532 0.70467 0.0
C327 C 0.20141 0.61562 0.70123 0.0
O328 O 0.15218 0.62525 0.62793 0.0
C329 C 0.10117 0.59341 0.71009 0.0
O330 O 0.12589 0.60011 0.72638 0.0
H331 H 0.17032 0.56185 0.66947 0.0
H332 H 0.20346 0.63767 0.70753 0.0
N333 N 0.12887 0.65885 0.68365 0.0
N334 N 0.09878 0.69792 0.68928 0.0
C335 C 0.10312 0.6733 0.67429 0.0
C336 C 0.14111 0.67479 0.70558 0.0
C337 C 0.12291 0.69873 0.70895 0.0
C338 C 0.17568 0.64266 0.62362 0.0
O339 O 0.18566 0.65743 0.6465 0.0
H340 H 0.08765 0.66562 0.65692 0.0
H341 H 0.16127 0.66909 0.71889 0.0
O342 O 0.10265 0.599 0.68203 0.0
H343 H 0.2473 0.59866 0.71496 0.0
H344 H 0.12674 0.71501 0.72542 0.0
Cu345 Cu 0.66533 0.83626 0.90732 0.0
N346 N 0.66993 0.84911 0.86785 0.0
N347 N 0.67386 0.88736 0.83739 0.0
C348 C 0.65825 0.87466 0.86076 0.0
C349 C 0.69571 0.86847 0.82866 0.0
C350 C 0.69348 0.84499 0.84774 0.0
O351 O 0.68597 0.86811 0.92788 0.0
C352 C 0.60774 0.81021 0.8977 0.0
O353 O 0.62426 0.80347 0.87377 0.0
H354 H 0.64096 0.88501 0.87479 0.0
H355 H 0.71029 0.82802 0.84896 0.0
N356 N 0.68395 0.8016 0.91674 0.0
N357 N 0.68636 0.76012 0.94166 0.0
C358 C 0.67165 0.7851 0.93909 0.0
C359 C 0.7075 0.78644 0.90451 0.0
C360 C 0.70926 0.76082 0.92017 0.0
C361 C 0.71606 0.8703 0.92355 0.0
O362 O 0.73074 0.84829 0.9127 0.0
H363 H 0.65204 0.7914 0.9533 0.0
H364 H 0.72219 0.79327 0.88556 0.0
O365 O 0.62024 0.82768 0.91598 0.0
H366 H 0.71413 0.87257 0.81184 0.0
H367 H 0.72569 0.74393 0.91584 0.0
Cu368 Cu 0.874 0.11471 0.34809 0.0
N369 N 0.85329 0.14642 0.36287 0.0
N370 N 0.85085 0.18665 0.38892 0.0
C371 C 0.86488 0.16132 0.3859 0.0
C372 C 0.82911 0.18755 0.367 0.0
C373 C 0.8307 0.16269 0.35092 0.0
O374 O 0.91836 0.12591 0.3518 0.0
C375 C 0.83385 0.07539 0.37759 0.0
O376 O 0.81369 0.09613 0.37464 0.0
H377 H 0.88483 0.15444 0.39888 0.0
H378 H 0.8175 0.15759 0.33109 0.0
N379 N 0.86359 0.10577 0.30873 0.0
N380 N 0.85561 0.07789 0.26928 0.0
C381 C 0.86468 0.07919 0.29806 0.0
C382 C 0.85331 0.12202 0.28596 0.0
C383 C 0.84854 0.10488 0.2615 0.0
C384 C 0.93047 0.14352 0.33266 0.0
O385 O 0.91688 0.14615 0.30656 0.0
H386 H 0.87262 0.06121 0.31114 0.0
H387 H 0.84981 0.14471 0.28692 0.0
O388 O 0.86297 0.08034 0.37083 0.0
H389 H 0.81381 0.20521 0.36232 0.0
H390 H 0.8404 0.11177 0.23977 0.0
Cu391 Cu 0.63358 0.12635 0.68914 0.0
N392 N 0.65458 0.15911 0.67385 0.0
N393 N 0.65691 0.20032 0.64817 0.0
C394 C 0.63957 0.17667 0.65506 0.0
C395 C 0.68455 0.19751 0.66271 0.0
C396 C 0.68294 0.17201 0.67886 0.0
O397 O 0.58807 0.13668 0.68413 0.0
C398 C 0.68106 0.08699 0.68006 0.0
O399 O 0.69556 0.10703 0.69519 0.0
H400 H 0.61597 0.1723 0.64671 0.0
H401 H 0.70081 0.16397 0.69369 0.0
N402 N 0.64022 0.11969 0.72979 0.0
N403 N 0.64952 0.08901 0.76718 0.0
C404 C 0.63379 0.09371 0.74163 0.0
C405 C 0.66028 0.13243 0.74886 0.0
C406 C 0.66609 0.11345 0.77204 0.0
C407 C 0.57857 0.15649 0.70141 0.0
O408 O 0.59756 0.16475 0.7228 0.0
H409 H 0.62112 0.0773 0.72957 0.0
H410 H 0.67236 0.15271 0.74468 0.0
O411 O 0.65248 0.09141 0.67155 0.0
H412 H 0.70391 0.21311 0.66248 0.0
H413 H 0.68295 0.11667 0.78977 0.0
Cu414 Cu 0.1168 0.39777 0.89314 0.0
N415 N 0.07926 0.41236 0.87697 0.0
N416 N 0.03811 0.41348 0.84547 0.0
C417 C 0.06554 0.40089 0.85272 0.0
C418 C 0.03451 0.43405 0.86595 0.0
C419 C 0.05981 0.43319 0.88547 0.0
O420 O 0.11327 0.35787 0.88139 0.0
C421 C 0.15457 0.446 0.89009 0.0
O422 O 0.12934 0.45404 0.90514 0.0
H423 H 0.0757 0.38354 0.84048 0.0
H424 H 0.06345 0.44656 0.90463 0.0
N425 N 0.11991 0.39812 0.93506 0.0
N426 N 0.14446 0.39373 0.97905 0.0
C427 C 0.1461 0.38952 0.94924 0.0
C428 C 0.10075 0.40824 0.9566 0.0
C429 C 0.11586 0.40557 0.98378 0.0
C430 C 0.0905 0.34468 0.89544 0.0
O431 O 0.07609 0.35776 0.91737 0.0
H432 H 0.16665 0.38152 0.93751 0.0
H433 H 0.07785 0.41749 0.95276 0.0
O434 O 0.15426 0.4208 0.87968 0.0
H435 H 0.01473 0.44831 0.86714 0.0
H436 H 0.10661 0.41219 1.00522 0.0
Cu437 Cu 0.35997 0.65788 0.39405 0.0
N438 N 0.32574 0.64399 0.37198 0.0
N439 N 0.28009 0.61956 0.36611 0.0
C440 C 0.30595 0.62344 0.38309 0.0
C441 C 0.28403 0.63807 0.34286 0.0
C442 C 0.3122 0.65335 0.34667 0.0
O443 O 0.3442 0.6542 0.43542 0.0
C444 C 0.40573 0.63914 0.35575 0.0
O445 O 0.38521 0.65054 0.33753 0.0
H446 H 0.31001 0.6122 0.40396 0.0
H447 H 0.32139 0.67077 0.3327 0.0
N448 N 0.371 0.69579 0.38503 0.0
N449 N 0.40451 0.73298 0.3772 0.0
C450 C 0.40068 0.70632 0.38855 0.0
C451 C 0.35512 0.71654 0.37111 0.0
C452 C 0.37573 0.73962 0.36637 0.0
C453 C 0.31832 0.66727 0.43997 0.0
O454 O 0.30824 0.68415 0.41859 0.0
H455 H 0.41927 0.69423 0.39884 0.0
H456 H 0.33069 0.71473 0.36406 0.0
O457 O 0.39856 0.63761 0.3836 0.0
H458 H 0.2671 0.64127 0.32521 0.0
H459 H 0.37021 0.75929 0.3549 0.0
Cu460 Cu 0.8604 0.62068 0.87451 0.0
N461 N 0.83295 0.6011 0.84935 0.0
N462 N 0.8224 0.57713 0.80774 0.0
C463 C 0.83997 0.59805 0.8202 0.0
C464 C 0.80237 0.56755 0.82985 0.0
C465 C 0.80893 0.58242 0.85554 0.0
O466 O 0.90309 0.61575 0.85794 0.0
C467 C 0.84779 0.58668 0.92963 0.0
O468 O 0.8447 0.56344 0.91391 0.0
H469 H 0.85949 0.60958 0.80912 0.0
H470 H 0.79865 0.57831 0.87755 0.0
N471 N 0.85061 0.65896 0.87385 0.0
N472 N 0.84177 0.70156 0.89323 0.0
C473 C 0.85565 0.67623 0.89702 0.0
C474 C 0.8329 0.67376 0.85453 0.0
C475 C 0.82744 0.70019 0.86645 0.0
C476 C 0.91127 0.59143 0.84866 0.0
O477 O 0.8927 0.56914 0.85484 0.0
H478 H 0.86777 0.66964 0.91706 0.0
H479 H 0.82351 0.66549 0.83394 0.0
O480 O 0.85553 0.61014 0.91662 0.0
H481 H 0.78607 0.54947 0.82842 0.0
H482 H 0.8136 0.71685 0.85644 0.0
Cu483 Cu 0.65312 0.60553 0.16994 0.0
N484 N 0.69656 0.60511 0.1606 0.0
N485 N 0.73893 0.60315 0.12985 0.0
C486 C 0.7071 0.59984 0.13273 0.0
C487 C 0.74897 0.61057 0.15728 0.0
C488 C 0.72266 0.61197 0.17622 0.0
O489 O 0.63563 0.62395 0.13483 0.0
C490 C 0.65317 0.55054 0.19302 0.0
O491 O 0.68279 0.55806 0.19837 0.0
H492 H 0.69139 0.5941 0.11474 0.0
H493 H 0.7225 0.61824 0.1994 0.0
N494 N 0.64264 0.62468 0.20508 0.0
N495 N 0.61402 0.63417 0.24626 0.0
C496 C 0.61722 0.61717 0.22243 0.0
C497 C 0.65631 0.64719 0.21852 0.0
C498 C 0.63848 0.65327 0.24383 0.0
C499 C 0.64486 0.64969 0.13027 0.0
O500 O 0.66037 0.66276 0.15151 0.0
H501 H 0.60083 0.59991 0.21719 0.0
H502 H 0.67751 0.65852 0.21043 0.0
O503 O 0.63643 0.56717 0.17737 0.0
H504 H 0.77335 0.61563 0.16297 0.0
H505 H 0.64314 0.67035 0.25923 0.0
Cu506 Cu 0.58643 0.35454 0.41058 0.0
N507 N 0.58158 0.39234 0.39807 0.0
N508 N 0.58059 0.42906 0.36564 0.0
C509 C 0.58545 0.40096 0.36937 0.0
C510 C 0.57337 0.43853 0.39323 0.0
C511 C 0.57387 0.41581 0.41318 0.0
O512 O 0.56792 0.33263 0.37802 0.0
C513 C 0.64254 0.36541 0.43909 0.0
O514 O 0.62519 0.38678 0.44754 0.0
H515 H 0.59251 0.38686 0.35168 0.0
H516 H 0.56948 0.41658 0.43703 0.0
N517 N 0.566 0.3456 0.44697 0.0
N518 N 0.56588 0.32662 0.49301 0.0
C519 C 0.57671 0.32467 0.46468 0.0
C520 C 0.5471 0.36113 0.46463 0.0
C521 C 0.54716 0.3495 0.49326 0.0
C522 C 0.53788 0.33485 0.37557 0.0
O523 O 0.52222 0.347 0.39738 0.0
H524 H 0.59474 0.31003 0.45763 0.0
H525 H 0.53596 0.38063 0.45786 0.0
O526 O 0.63116 0.3482 0.41993 0.0
H527 H 0.56819 0.4603 0.39869 0.0
H528 H 0.53579 0.358 0.51297 0.0
Cu529 Cu 0.88012 0.3754 0.60889 0.0
N530 N 0.90627 0.36113 0.57863 0.0
N531 N 0.91322 0.33431 0.53823 0.0
C532 C 0.89838 0.33672 0.56501 0.0
C533 C 0.93229 0.35778 0.53539 0.0
C534 C 0.92781 0.37441 0.56031 0.0
O535 O 0.83714 0.36274 0.59725 0.0
C536 C 0.92442 0.37408 0.65307 0.0
O537 O 0.94019 0.38593 0.63032 0.0
H538 H 0.87983 0.32227 0.57351 0.0
H539 H 0.93731 0.39572 0.56343 0.0
N540 N 0.88025 0.415 0.6102 0.0
N541 N 0.87513 0.45673 0.63271 0.0
C542 C 0.87263 0.42821 0.6356 0.0
C543 C 0.88769 0.43589 0.59012 0.0
C544 C 0.88437 0.46181 0.60401 0.0
C545 C 0.83109 0.37042 0.57037 0.0
O546 O 0.85179 0.38719 0.55597 0.0
H547 H 0.86522 0.41689 0.65591 0.0
H548 H 0.89517 0.43259 0.56721 0.0
O549 O 0.8961 0.3647 0.6486 0.0
H550 H 0.94624 0.36376 0.51562 0.0
H551 H 0.88902 0.48265 0.59397 0.0
C552 C 0.11962 0.30482 0.42321 0.0
C553 C 0.11651 0.33041 0.43863 0.0
C554 C 0.11942 0.2784 0.43881 0.0
C555 C 0.11595 0.27762 0.47046 0.0
C556 C 0.11461 0.30353 0.48607 0.0
C557 C 0.11501 0.32946 0.47004 0.0
C558 C 0.12184 0.25129 0.42144 0.0
C559 C 0.11115 0.30389 0.51976 0.0
C560 C 0.07581 0.21534 0.51314 0.0
C561 C 0.1016 0.2027 0.52735 0.0
C562 C 0.08035 0.23874 0.4933 0.0
C563 C 0.11148 0.25003 0.48751 0.0
C564 C 0.13772 0.23667 0.50078 0.0
C565 C 0.1325 0.21318 0.52037 0.0
C566 C 0.05164 0.25216 0.47953 0.0
C567 C 0.17132 0.24758 0.49484 0.0
H568 H 0.12059 0.30531 0.39897 0.0
H569 H 0.11279 0.3491 0.48219 0.0
H570 H 0.14307 0.23957 0.42858 0.0
H571 H 0.10077 0.23721 0.4263 0.0
H572 H 0.12367 0.25538 0.39692 0.0
H573 H 0.11211 0.32582 0.52864 0.0
H574 H 0.08808 0.29365 0.52671 0.0
H575 H 0.13027 0.29149 0.53023 0.0
H576 H 0.05186 0.20758 0.51827 0.0
H577 H 0.15273 0.20314 0.53038 0.0
H578 H 0.05502 0.25451 0.45493 0.0
H579 H 0.0487 0.2738 0.48857 0.0
H580 H 0.0294 0.23949 0.48416 0.0
H581 H 0.17751 0.2452 0.47082 0.0
H582 H 0.18891 0.23599 0.50837 0.0
H583 H 0.17345 0.27057 0.4999 0.0
C584 C 0.01127 0.93724 0.74251 0.0
C585 C 0.9795 0.9448 0.73954 0.0
C586 C 0.02558 0.93667 0.77063 0.0
C587 C 1.00789 0.94465 0.79631 0.0
C588 C 0.97603 0.95317 0.79326 0.0
C589 C 0.96204 0.95272 0.7649 0.0
C590 C 0.05943 0.92693 0.77299 0.0
C591 C 0.95658 0.96221 0.81997 0.0
C592 C 0.04131 0.91222 0.86675 0.0
C593 C 0.06315 0.93355 0.87523 0.0
C594 C 0.02121 0.91636 0.84239 0.0
C595 C 0.02274 0.94256 0.82628 0.0
C596 C 0.04232 0.96516 0.83659 0.0
C597 C 0.06229 0.96041 0.86102 0.0
C598 C 1.00068 0.89168 0.83217 0.0
C599 C 0.04391 0.99365 0.82043 0.0
H600 H 0.02449 0.93067 0.72291 0.0
H601 H 0.93744 0.95855 0.76241 0.0
H602 H 0.07459 0.9445 0.78153 0.0
H603 H 0.0607 0.90886 0.78918 0.0
H604 H 0.06941 0.9201 0.75119 0.0
H605 H 0.93277 0.96976 0.81355 0.0
H606 H 0.95332 0.94408 0.83602 0.0
H607 H 0.9693 0.9795 0.83185 0.0
H608 H 0.0415 0.8915 0.87775 0.0
H609 H 0.07883 0.97715 0.86751 0.0
H610 H 0.01115 0.88296 0.8114 0.0
H611 H 0.97642 0.89875 0.82687 0.0
H612 H 0.99877 0.87428 0.84928 0.0
H613 H 0.05333 0.99103 0.79735 0.0
H614 H 0.05928 1.00943 0.83196 0.0
H615 H 0.0197 1.00228 0.81849 0.0
C616 C 0.32751 0.83732 0.04643 0.0
C617 C 0.32433 0.82686 0.07603 0.0
C618 C 0.32642 0.81896 0.02189 0.0
C619 C 0.32143 0.78933 0.02682 0.0
C620 C 0.31724 0.77869 0.05652 0.0
C621 C 0.31887 0.7975 0.08069 0.0
C622 C 0.33087 0.83135 0.99068 0.0
C623 C 0.31165 0.74729 0.06282 0.0
C624 C 0.29491 0.74255 0.96211 0.0
C625 C 0.3235 0.72992 0.95363 0.0
C626 C 0.29384 0.76202 0.98575 0.0
C627 C 0.32207 0.76928 1.00111 0.0
C628 C 0.3511 0.75707 0.99212 0.0
C629 C 0.35142 0.73752 0.96868 0.0
C630 C 0.26244 0.7745 0.9946 0.0
C631 C 0.38193 0.76465 0.00729 0.0
H632 H 0.33086 0.85996 0.0423 0.0
H633 H 0.31654 0.78904 0.1033 0.0
H634 H 0.34938 0.81975 0.9782 0.0
H635 H 0.30837 0.82894 0.97828 0.0
H636 H 0.33786 0.85428 0.99083 0.0
H637 H 0.30721 0.74254 0.08697 0.0
H638 H 0.29096 0.7393 0.05004 0.0
H639 H 0.33267 0.73535 0.0553 0.0
H640 H 0.27325 0.7367 0.95068 0.0
H641 H 0.37373 0.72836 0.96188 0.0
H642 H 0.26381 0.79801 0.9921 0.0
H643 H 0.25712 0.76953 0.01853 0.0
H644 H 0.24249 0.76629 0.98094 0.0
H645 H 0.38635 0.78802 1.00607 0.0
H646 H 0.40263 0.75401 0.99701 0.0
H647 H 0.38027 0.75842 0.03132 0.0
C648 C 0.49557 0.21737 0.25939 0.0
C649 C 0.49672 0.20544 0.28831 0.0
C650 C 0.52155 0.21567 0.23928 0.0
C651 C 0.54958 0.20205 0.24846 0.0
C652 C 0.55119 0.19077 0.27797 0.0
C653 C 0.52471 0.1924 0.2974 0.0
C654 C 0.51862 0.22772 0.20795 0.0
C655 C 0.58081 0.17669 0.28894 0.0
C656 C 0.60389 0.16974 0.18972 0.0
C657 C 0.62781 0.1909 0.18574 0.0
C658 C 0.57825 0.17327 0.20978 0.0
C659 C 0.57665 0.19834 0.22684 0.0
C660 C 0.60101 0.21958 0.22338 0.0
C661 C 0.62611 0.21574 0.20268 0.0
C662 C 0.55257 0.15029 0.21236 0.0
C663 C 0.6005 0.24641 0.24149 0.0
H664 H 0.47395 0.2273 0.25218 0.0
H665 H 0.52597 0.18363 0.3199 0.0
H666 H 0.53849 0.24305 0.2028 0.0
H667 H 0.52023 0.2103 0.19157 0.0
H668 H 0.4958 0.2387 0.20472 0.0
H669 H 0.57899 0.1706 0.31304 0.0
H670 H 0.5852 0.15726 0.27589 0.0
H671 H 0.60179 0.19122 0.28544 0.0
H672 H 0.60473 0.1506 0.17655 0.0
H673 H 0.64443 0.23222 0.19977 0.0
H674 H 0.52915 0.15935 0.2071 0.0
H675 H 0.55098 0.1418 0.23565 0.0
H676 H 0.55695 0.13233 0.1971 0.0
H677 H 0.57892 0.25854 0.23631 0.0
H678 H 0.62176 0.26041 0.237 0.0
H679 H 0.59935 0.24092 0.26573 0.0
C680 C 0.16022 0.79075 0.98179 0.0
C681 C 0.13968 0.78613 0.95776 0.0
C682 C 0.16294 0.77023 1.00495 0.0
C683 C 0.14451 0.74461 1.0042 0.0
C684 C 0.12275 0.74048 0.98069 0.0
C685 C 0.12076 0.76113 0.95778 0.0
C686 C 0.18559 0.77588 0.03011 0.0
C687 C 0.10209 0.71381 0.97929 0.0
C688 C 0.16928 0.67325 0.03502 0.0
C689 C 0.1477 0.66879 0.05898 0.0
C690 C 0.17057 0.69902 0.0187 0.0
C691 C 0.14944 0.72087 0.02625 0.0
C692 C 0.12986 0.71754 0.05228 0.0
C693 C 0.12911 0.69143 0.06837 0.0
C694 C 0.19275 0.70193 0.99187 0.0
C695 C 0.10758 0.74043 0.0618 0.0
H696 H 0.17483 0.81004 0.98206 0.0
H697 H 0.10427 0.75767 0.93977 0.0
H698 H 0.17185 0.77864 0.0512 0.0
H699 H 0.20119 0.75745 0.0336 0.0
H700 H 0.20067 0.79532 0.02588 0.0
H701 H 0.08431 0.71499 0.96122 0.0
H702 H 0.11724 0.69521 0.97526 0.0
H703 H 0.0893 0.70996 1.00094 0.0
H704 H 0.1839 0.65585 0.02784 0.0
H705 H 0.1122 0.68808 0.08673 0.0
H706 H 0.20565 0.7228 0.99188 0.0
H707 H 0.17872 0.701 0.97107 0.0
H708 H 0.21045 0.68477 0.9913 0.0
H709 H 0.11668 0.76201 0.05523 0.0
H710 H 0.1036 0.73963 0.08641 0.0
H711 H 0.08436 0.73686 0.0509 0.0
C712 C 0.56186 0.95462 0.26055 0.0
C713 C 0.56689 0.93196 0.2807 0.0
C714 C 0.53792 0.9529 0.239 0.0
C715 C 0.51877 0.92781 0.2373 0.0
C716 C 0.52422 0.90462 0.25699 0.0
C717 C 0.54793 0.90707 0.27853 0.0
C718 C 0.53251 0.97821 0.21864 0.0
C719 C 0.50435 0.87743 0.25594 0.0
C720 C 0.43419 0.9281 0.20999 0.0
C721 C 0.43737 0.91627 0.1816 0.0
C722 C 0.4608 0.93366 0.22754 0.0
C723 C 0.49131 0.92637 0.21675 0.0
C724 C 0.49478 0.91531 0.18755 0.0
C725 C 0.46763 0.91066 0.17008 0.0
C726 C 0.456 0.94613 0.25817 0.0
C727 C 0.52688 0.90701 0.17545 0.0
H728 H 0.57651 0.97381 0.26161 0.0
H729 H 0.55096 0.88954 0.29412 0.0
H730 H 0.53293 0.97167 0.19492 0.0
H731 H 0.50864 0.98683 0.22335 0.0
H732 H 0.55063 0.9955 0.22154 0.0
H733 H 0.5133 0.86057 0.27111 0.0
H734 H 0.47941 0.88176 0.26255 0.0
H735 H 0.50405 0.86923 0.23281 0.0
H736 H 0.41066 0.9326 0.21872 0.0
H737 H 0.4699 0.90143 0.1481 0.0
H738 H 0.473 0.96417 0.26152 0.0
H739 H 0.46064 0.92974 0.2756 0.0
H740 H 0.43143 0.95379 0.26163 0.0
H741 H 0.54459 0.92462 0.17815 0.0
H742 H 0.52604 0.90136 0.15143 0.0
H743 H 0.53536 0.8884 0.18837 0.0
C744 C 0.42012 0.31996 0.52441 0.0
C745 C 0.43489 0.32223 0.55224 0.0
C746 C 0.42747 0.29805 0.50464 0.0
C747 C 0.45009 0.27758 0.51279 0.0
C748 C 0.46538 0.27977 0.5407 0.0
C749 C 0.45766 0.30206 0.56002 0.0
C750 C 0.41079 0.29673 0.47499 0.0
C751 C 0.48987 0.25859 0.55016 0.0
C752 C 0.44164 0.20979 0.46787 0.0
C753 C 0.46327 0.21539 0.44412 0.0
C754 C 0.43863 0.2289 0.49164 0.0
C755 C 0.45766 0.25423 0.49166 0.0
C756 C 0.48129 0.25876 0.46905 0.0
C757 C 0.48384 0.23931 0.44565 0.0
C758 C 0.41338 0.22297 0.51545 0.0
C759 C 0.50217 0.28534 0.46807 0.0
H760 H 0.40223 0.33502 0.51819 0.0
H761 H 0.46964 0.30373 0.5812 0.0
H762 H 0.42857 0.29765 0.45637 0.0
H763 H 0.39728 0.27626 0.47337 0.0
H764 H 0.39406 0.31443 0.47184 0.0
H765 H 0.49867 0.26256 0.57306 0.0
H766 H 0.47957 0.23665 0.54953 0.0
H767 H 0.51044 0.25961 0.5343 0.0
H768 H 0.4256 0.19142 0.46702 0.0
H769 H 0.50081 0.2438 0.42757 0.0
H770 H 0.39294 0.23697 0.51152 0.0
H771 H 0.42265 0.22769 0.53798 0.0
H772 H 0.40457 0.2005 0.51528 0.0
H773 H 0.48821 0.30352 0.45981 0.0
H774 H 0.52314 0.28309 0.45294 0.0
H775 H 0.51056 0.29065 0.49072 0.0
C776 C 0.09164 0.11894 0.71766 0.0
C777 C 0.0734 0.13376 0.69676 0.0
C778 C 0.07819 0.10914 0.74523 0.0
C779 C 0.0459 0.11461 0.75221 0.0
C780 C 0.02808 0.13098 0.73184 0.0
C781 C 0.0419 0.14005 0.70437 0.0
C782 C 0.0981 0.09193 0.76631 0.0
C783 C 0.99384 0.13796 0.73851 0.0
C784 C 0.99084 0.06758 0.80107 0.0
C785 C 0.98604 0.08474 0.82609 0.0
C786 C 0.01246 0.07583 0.77799 0.0
C787 C 0.02968 0.10206 0.77973 0.0
C788 C 0.02729 0.11802 0.8063 0.0
C789 C 1.00553 0.10918 0.82915 0.0
C790 C 0.01481 0.05756 0.75062 0.0
C791 C 0.04563 0.14569 0.8098 0.0
H792 H 0.11585 0.11358 0.71175 0.0
H793 H 0.02767 0.15143 0.68832 0.0
H794 H 0.09667 0.10065 0.7892 0.0
H795 H 0.08871 0.06967 0.76763 0.0
H796 H 0.12346 0.09165 0.75898 0.0
H797 H 0.98376 0.15208 0.72109 0.0
H798 H 0.97916 0.11802 0.74001 0.0
H799 H 0.99192 0.14856 0.76044 0.0
H800 H 0.97627 0.04843 0.79863 0.0
H801 H 1.00228 0.12259 0.84839 0.0
H802 H 0.04 0.05521 0.74356 0.0
H803 H 1.00235 0.06798 0.73184 0.0
H804 H 1.0039 0.03602 0.75455 0.0
H805 H 0.05062 0.14951 0.83371 0.0
H806 H 0.03113 0.16345 0.80135 0.0
H807 H 0.06851 0.14609 0.7971 0.0
C808 C 0.24216 0.56294 0.08087 0.0
C809 C 0.21963 0.54256 0.07144 0.0
C810 C 0.27294 0.55516 0.08861 0.0
C811 C 0.28153 0.52641 0.08636 0.0
C812 C 0.25987 0.50621 0.07446 0.0
C813 C 0.22908 0.51449 0.0673 0.0
C814 C 0.29551 0.57733 0.10097 0.0
C815 C 0.26842 0.47539 0.07117 0.0
C816 C 0.36566 0.50044 0.09273 0.0
C817 C 0.36443 0.48792 0.12141 0.0
C818 C 0.3394 0.51471 0.08143 0.0
C819 C 0.31158 0.51658 0.09945 0.0
C820 C 0.3113 0.50599 0.12929 0.0
C821 C 0.33774 0.49164 0.13985 0.0
C822 C 0.34048 0.52551 0.04943 0.0
C823 C 0.2822 0.50788 0.14935 0.0
H824 H 0.2354 0.58488 0.08322 0.0
H825 H 0.212 0.49857 0.06001 0.0
H826 H 0.29828 0.57338 0.12532 0.0
H827 H 0.31941 0.57593 0.09032 0.0
H828 H 0.28682 0.59927 0.09762 0.0
H829 H 0.25139 0.46389 0.05675 0.0
H830 H 0.29268 0.4735 0.06142 0.0
H831 H 0.26809 0.46476 0.09353 0.0
H832 H 0.38613 0.49713 0.0783 0.0
H833 H 0.33697 0.48183 0.16197 0.0
H834 H 0.32985 0.54682 0.04755 0.0
H835 H 0.32629 0.51082 0.0354 0.0
H836 H 0.36518 0.52681 0.04022 0.0
H837 H 0.2732 0.52988 0.14909 0.0
H838 H 0.28711 0.50153 0.17284 0.0
H839 H 0.263 0.49366 0.14094 0.0
C840 C 0.80552 1.00735 0.85761 0.0
C841 C 0.82111 0.0253 0.87785 0.0
C842 C 0.78737 0.98332 0.86762 0.0
C843 C 0.78446 0.97698 0.89869 0.0
C844 C 0.79971 0.99523 0.91922 0.0
C845 C 0.81763 0.01913 0.90862 0.0
C846 C 0.77204 0.9642 0.84485 0.0
C847 C 0.79703 0.98963 0.95247 0.0
C848 C 0.71724 0.92415 0.92157 0.0
C849 C 0.73342 0.89839 0.92296 0.0
C850 C 0.7337 0.95013 0.91502 0.0
C851 C 0.76701 0.95037 0.90938 0.0
C852 C 0.78359 0.92464 0.91237 0.0
C853 C 0.76669 0.89913 0.91923 0.0
C854 C 0.71528 0.97717 0.91288 0.0
C855 C 0.8191 0.92378 0.907 0.0
H856 H 0.80812 0.01164 0.83382 0.0
H857 H 0.8288 0.0331 0.92457 0.0
H858 H 0.78161 0.94247 0.84687 0.0
H859 H 0.74601 0.96235 0.84918 0.0
H860 H 0.77625 0.97214 0.82155 0.0
H861 H 0.81377 1.00333 0.96515 0.0
H862 H 0.77241 0.99384 0.96012 0.0
H863 H 0.8018 0.96705 0.95797 0.0
H864 H 0.69157 0.92389 0.92422 0.0
H865 H 0.77954 0.87944 0.92044 0.0
H866 H 0.71542 0.9849 0.88932 0.0
H867 H 0.72675 0.99405 0.92635 0.0
H868 H 0.69023 0.97404 0.92073 0.0
H869 H 0.8248 0.92984 0.88338 0.0
H870 H 0.82871 0.90236 0.91162 0.0
H871 H 0.8315 0.93941 0.92135 0.0
C872 C 0.78934 0.04047 0.38796 0.0
C873 C 0.82133 0.04567 0.37991 0.0
C874 C 0.77455 0.01395 0.38296 0.0
C875 C 0.79215 0.99215 0.36942 0.0
C876 C 0.82518 0.99637 0.36392 0.0
C877 C 0.83947 0.0231 0.36938 0.0
C878 C 0.73942 1.01008 0.38993 0.0
C879 C 0.84494 0.97327 0.35054 0.0
C880 C 0.74565 0.92214 0.36485 0.0
C881 C 0.73073 0.92552 0.33713 0.0
C882 C 0.76745 0.94278 0.37509 0.0
C883 C 0.77477 0.96713 0.35701 0.0
C884 C 0.76208 0.96925 0.32789 0.0
C885 C 0.74033 0.94839 0.31829 0.0
C886 C 0.7813 0.93928 0.40583 0.0
C887 C 0.76914 0.99487 0.3078 0.0
H888 H 0.7753 0.05766 0.39655 0.0
H889 H 0.86432 0.02684 0.36339 0.0
H890 H 0.7261 1.00933 0.36871 0.0
H891 H 0.73459 0.98965 0.40214 0.0
H892 H 0.73011 0.02767 0.40359 0.0
H893 H 0.8698 0.9806 0.34553 0.0
H894 H 0.84541 0.95486 0.36635 0.0
H895 H 0.83413 0.9656 0.3296 0.0
H896 H 0.73886 0.90427 0.37941 0.0
H897 H 0.72927 0.95109 0.29672 0.0
H898 H 0.77715 0.95846 0.41935 0.0
H899 H 0.80741 0.93695 0.4037 0.0
H900 H 0.7711 0.92037 0.41815 0.0
H901 H 0.75546 0.01316 0.316 0.0
H902 H 0.76246 0.99092 0.28426 0.0
H903 H 0.79472 1.0011 0.30823 0.0
C904 C 0.7482 0.04065 0.09848 0.0
C905 C 0.73393 0.0618 0.08127 0.0
C906 C 0.7737 0.02537 0.08698 0.0
C907 C 0.78495 0.0312 0.0574 0.0
C908 C 0.7701 0.05199 0.0396 0.0
C909 C 0.7449 0.06725 0.05187 0.0
C910 C 0.78917 1.00354 0.10681 0.0
C911 C 0.78119 0.05856 0.00791 0.0
C912 C 0.86893 1.00603 0.04605 0.0
C913 C 0.86304 0.97846 0.03575 0.0
C914 C 0.84381 0.02454 0.05105 0.0
C915 C 0.81221 0.01517 0.04549 0.0
C916 C 0.80658 0.9885 0.03216 0.0
C917 C 0.83219 0.97067 0.02696 0.0
C918 C 0.85109 0.05352 0.06359 0.0
C919 C 0.77326 0.97758 0.0261 0.0
H920 H 0.74018 0.03677 0.12136 0.0
H921 H 0.7338 0.08356 0.03851 0.0
H922 H 0.78971 0.98267 0.0956 0.0
H923 H 0.81418 1.01029 0.11095 0.0
H924 H 0.77656 1.00064 0.12871 0.0
H925 H 0.76344 0.07086 0.99532 0.0
H926 H 0.80383 0.07117 0.00827 0.0
H927 H 0.78584 0.03874 0.99567 0.0
H928 H 0.89274 0.01238 0.05249 0.0
H929 H 0.8277 0.94962 0.01817 0.0
H930 H 0.87572 0.05535 0.07209 0.0
H931 H 0.83427 0.0586 0.08201 0.0
H932 H 0.8486 0.06962 0.04544 0.0
H933 H 0.7613 0.97135 0.04761 0.0
H934 H 0.77321 0.95872 0.01144 0.0
H935 H 0.75898 0.99443 0.01554 0.0
C936 C 0.21625 0.51768 0.68935 0.0
C937 C 0.23182 0.54451 0.68958 0.0
C938 C 0.23348 0.49216 0.68774 0.0
C939 C 0.26727 0.49321 0.68595 0.0
C940 C 0.28298 0.5203 0.68535 0.0
C941 C 0.26524 0.54537 0.68731 0.0
C942 C 0.21549 0.46399 0.68844 0.0
C943 C 0.31873 0.52289 0.68252 0.0
C944 C 0.3175 0.43102 0.71341 0.0
C945 C 0.32797 0.41865 0.68663 0.0
C946 C 0.29697 0.4544 0.71347 0.0
C947 C 0.28642 0.46624 0.68607 0.0
C948 C 0.296 0.4533 0.65897 0.0
C949 C 0.31648 0.42977 0.65956 0.0
C950 C 0.2873 0.46704 0.74299 0.0
C951 C 0.28556 0.46497 0.62917 0.0
H952 H 0.19053 0.51659 0.69115 0.0
H953 H 0.27765 0.56583 0.68677 0.0
H954 H 0.22247 0.45119 0.66887 0.0
H955 H 0.2217 0.45168 0.70882 0.0
H956 H 0.18932 0.46663 0.68833 0.0
H957 H 0.32753 0.54517 0.68507 0.0
H958 H 0.33006 0.50922 0.69951 0.0
H959 H 0.32648 0.51539 0.66023 0.0
H960 H 0.32607 0.42286 0.73454 0.0
H961 H 0.32448 0.42079 0.63865 0.0
H962 H 0.26101 0.46626 0.74552 0.0
H963 H 0.29503 0.48978 0.74356 0.0
H964 H 0.29765 0.45569 0.76239 0.0
H965 H 0.25942 0.46767 0.62926 0.0
H966 H 0.29216 0.45098 0.61038 0.0
H967 H 0.29683 0.48629 0.62506 0.0
C968 C 0.17098 0.48629 0.40419 0.0
C969 C 0.13829 0.49086 0.40742 0.0
C970 C 0.19257 0.50892 0.39816 0.0
C971 C 0.18125 0.53693 0.39533 0.0
C972 C 0.14839 0.54188 0.39948 0.0
C973 C 0.12726 0.51875 0.40553 0.0
C974 C 0.22746 0.50274 0.39426 0.0
C975 C 0.13546 0.57146 0.39667 0.0
C976 C 0.24453 0.59506 0.40314 0.0
C977 C 0.25316 0.60095 0.37316 0.0
C978 C 0.22024 0.57515 0.41068 0.0
C979 C 0.20403 0.56079 0.38766 0.0
C980 C 0.2116 0.56759 0.35731 0.0
C981 C 0.23607 0.58768 0.35042 0.0
C982 C 0.21272 0.56878 0.4433 0.0
C983 C 0.19479 0.55277 0.33212 0.0
H984 H 0.17964 0.46483 0.40606 0.0
H985 H 0.102 0.52237 0.40769 0.0
H986 H 0.2357 0.50922 0.37139 0.0
H987 H 0.24169 0.51531 0.41029 0.0
H988 H 0.23245 0.47983 0.39778 0.0
H989 H 0.13935 0.57969 0.37346 0.0
H990 H 0.10962 0.57195 0.40216 0.0
H991 H 0.14833 0.58616 0.4117 0.0
H992 H 0.25705 0.60587 0.42081 0.0
H993 H 0.24267 0.59219 0.32727 0.0
H994 H 0.21789 0.54624 0.44865 0.0
H995 H 0.18705 0.57172 0.44803 0.0
H996 H 0.22674 0.5826 0.45841 0.0
H997 H 0.20082 0.52991 0.33231 0.0
H998 H 0.20151 0.56215 0.30987 0.0
H999 H 0.16863 0.5539 0.33523 0.0
C1000 C 0.28876 0.56598 0.86083 0.0
C1001 C 0.30565 0.57377 0.88644 0.0
C1002 C 0.26793 0.5422 0.8609 0.0
C1003 C 0.26351 0.5255 0.88732 0.0
C1004 C 0.28198 0.53211 0.91279 0.0
C1005 C 0.30294 0.55616 0.91204 0.0
C1006 C 0.24904 0.53616 0.83313 0.0
C1007 C 0.27828 0.51472 0.94135 0.0
C1008 C 0.17975 0.49401 0.89736 0.0
C1009 C 0.18298 0.46572 0.88826 0.0
C1010 C 0.20586 0.51316 0.89793 0.0
C1011 C 0.23643 0.50407 0.88922 0.0
C1012 C 0.24009 0.4755 0.8801 0.0
C1013 C 0.21331 0.45666 0.87963 0.0
C1014 C 0.2005 0.5434 0.90745 0.0
C1015 C 0.27225 0.4649 0.87071 0.0
H1016 H 0.29109 0.57908 0.84068 0.0
H1017 H 0.31598 0.56189 0.93186 0.0
H1018 H 0.25014 0.51333 0.82742 0.0
H1019 H 0.22367 0.54098 0.83736 0.0
H1020 H 0.25772 0.54911 0.81351 0.0
H1021 H 0.29742 0.51971 0.95742 0.0
H1022 H 0.25504 0.51918 0.95217 0.0
H1023 H 0.2784 0.49164 0.93653 0.0
H1024 H 0.15654 0.50139 0.90411 0.0
H1025 H 0.2162 0.43482 0.87289 0.0
H1026 H 0.20645 0.55833 0.88857 0.0
H1027 H 0.21639 0.54896 0.92615 0.0
H1028 H 0.17552 0.54682 0.91472 0.0
H1029 H 0.28083 0.47656 0.85025 0.0
H1030 H 0.27162 0.44174 0.86609 0.0
H1031 H 0.2898 0.46914 0.88846 0.0
C1032 C 0.64686 0.73255 0.97199 0.0
C1033 C 0.67871 0.73812 0.96357 0.0
C1034 C 0.63885 0.71461 0.99646 0.0
C1035 C 0.66335 0.70227 0.01329 0.0
C1036 C 0.6955 0.70628 1.00364 0.0
C1037 C 0.7028 0.72411 0.97875 0.0
C1038 C 0.60424 0.71063 1.0054 0.0
C1039 C 0.72237 0.6934 0.02082 0.0
C1040 C 0.64981 0.69253 0.09697 0.0
C1041 C 0.64476 0.66303 0.10001 0.0
C1042 C 0.65521 0.70549 0.06882 0.0
C1043 C 0.65576 0.68854 0.04294 0.0
C1044 C 0.6496 0.65882 0.04568 0.0
C1045 C 0.64399 0.64639 0.07423 0.0
C1046 C 0.66128 0.73729 0.06692 0.0
C1047 C 0.64949 0.64016 0.01854 0.0
H1048 H 0.62817 0.74302 0.95991 0.0
H1049 H 0.7274 0.72847 0.97227 0.0
H1050 H 0.599 0.68876 0.01411 0.0
H1051 H 0.59845 0.72572 0.02341 0.0
H1052 H 0.58842 0.71491 0.98627 0.0
H1053 H 0.74514 0.69441 0.00784 0.0
H1054 H 0.72575 0.70518 0.0419 0.0
H1055 H 0.71668 0.67088 0.027 0.0
H1056 H 0.65039 0.7055 0.1168 0.0
H1057 H 0.6404 0.62353 0.07645 0.0
H1058 H 0.64397 0.74722 0.05173 0.0
H1059 H 0.68543 0.74191 0.05739 0.0
H1060 H 0.65943 0.74749 0.0891 0.0
H1061 H 0.62938 0.64586 1.00403 0.0
H1062 H 0.64715 0.61718 0.02463 0.0
H1063 H 0.67169 0.64377 1.00511 0.0
C1064 C 0.48943 0.33735 0.3441 0.0
C1065 C 0.5216 0.33036 0.34656 0.0
C1066 C 0.47483 0.33943 0.31616 0.0
C1067 C 0.49251 0.33378 0.28981 0.0
C1068 C 0.52404 0.32399 0.2923 0.0
C1069 C 0.53837 0.32269 0.32062 0.0
C1070 C 0.44124 0.34999 0.31476 0.0
C1071 C 0.5433 0.31659 0.26488 0.0
C1072 C 0.44547 0.33403 0.21709 0.0
C1073 C 0.45206 0.3617 0.20612 0.0
C1074 C 0.45958 0.32402 0.2436 0.0
C1075 C 0.4797 0.34249 0.26004 0.0
C1076 C 0.48613 0.37051 0.249 0.0
C1077 C 0.47264 0.37956 0.22208 0.0
C1078 C 0.45277 0.29379 0.25404 0.0
C1079 C 0.50676 0.39127 0.26599 0.0
H1080 H 0.47598 0.34294 0.36394 0.0
H1081 H 0.56309 0.31693 0.32222 0.0
H1082 H 0.44156 0.37174 0.30468 0.0
H1083 H 0.42652 0.33615 0.30034 0.0
H1084 H 0.42967 0.35075 0.33724 0.0
H1085 H 0.56528 0.30525 0.27073 0.0
H1086 H 0.52894 0.30305 0.24981 0.0
H1087 H 0.5502 0.33637 0.25226 0.0
H1088 H 0.42997 0.32 0.20458 0.0
H1089 H 0.47779 0.401 0.21373 0.0
H1090 H 0.43572 0.29376 0.27322 0.0
H1091 H 0.47483 0.28373 0.2618 0.0
H1092 H 0.44229 0.28062 0.23611 0.0
H1093 H 0.49547 0.39552 0.28803 0.0
H1094 H 0.51058 0.41186 0.25375 0.0
H1095 H 0.53026 0.382 0.27036 0.0
C1096 C 0.87418 0.30223 0.51422 0.0
C1097 C 0.90505 0.31426 0.51524 0.0
C1098 C 0.86563 0.28273 0.49219 0.0
C1099 C 0.88852 0.27473 0.47055 0.0
C1100 C 0.91954 0.28732 0.47092 0.0
C1101 C 0.92742 0.30689 0.49329 0.0
C1102 C 0.8321 0.2704 0.49236 0.0
C1103 C 0.94484 0.2797 0.44837 0.0
C1104 C 0.87429 0.20198 0.43656 0.0
C1105 C 0.86004 0.20889 0.40929 0.0
C1106 C 0.88437 0.22321 0.45626 0.0
C1107 C 0.88009 0.25221 0.44868 0.0
C1108 C 0.86606 0.25943 0.42106 0.0
C1109 C 0.85608 0.23771 0.40177 0.0
C1110 C 0.89958 0.2146 0.48529 0.0
C1111 C 0.86174 0.29012 0.4119 0.0
H1112 H 0.85641 0.30824 0.53053 0.0
H1113 H 0.95129 0.31604 0.49393 0.0
H1114 H 0.82104 0.27415 0.47033 0.0
H1115 H 0.8326 0.24702 0.4962 0.0
H1116 H 0.81678 0.27975 0.50995 0.0
H1117 H 0.96332 0.2969 0.44569 0.0
H1118 H 0.95671 0.2602 0.45624 0.0
H1119 H 0.9345 0.27542 0.42622 0.0
H1120 H 0.8773 0.17985 0.44272 0.0
H1121 H 0.84577 0.24335 0.38051 0.0
H1122 H 0.88529 0.2223 0.50448 0.0
H1123 H 0.92366 0.22464 0.48661 0.0
H1124 H 0.90175 0.19116 0.48766 0.0
H1125 H 0.84551 0.30041 0.42802 0.0
H1126 H 0.85183 0.29229 0.38911 0.0
H1127 H 0.88493 0.30189 0.41241 0.0
C1128 C 0.95927 0.61204 0.82118 0.0
C1129 C 0.93836 0.58888 0.82715 0.0
C1130 C 0.98399 0.61024 0.79978 0.0
C1131 C 0.98786 0.58473 0.78376 0.0
C1132 C 0.96651 0.56142 0.78931 0.0
C1133 C 0.94219 0.56371 0.81104 0.0
C1134 C 1.00611 0.63567 0.7944 0.0
C1135 C 0.96956 0.53394 0.7726 0.0
C1136 C 0.04145 0.59255 0.71421 0.0
C1137 C 0.07096 0.58537 0.72594 0.0
C1138 C 0.01369 0.59121 0.73234 0.0
C1139 C 0.01554 0.58212 0.7627 0.0
C1140 C 0.04491 0.57288 0.77384 0.0
C1141 C 0.07217 0.57462 0.75537 0.0
C1142 C 0.98265 0.60029 0.71916 0.0
C1143 C 0.04808 0.56291 0.80594 0.0
H1144 H 0.95635 0.63164 0.83325 0.0
H1145 H 0.92588 0.5458 0.8151 0.0
H1146 H 0.03085 0.6299 0.7997 0.0
H1147 H 1.00585 0.64221 0.77043 0.0
H1148 H 0.9995 0.65416 0.80816 0.0
H1149 H 0.94855 0.51945 0.77634 0.0
H1150 H 0.97252 0.53827 0.74823 0.0
H1151 H 0.99105 0.5228 0.78012 0.0
H1152 H 0.04034 0.60082 0.69148 0.0
H1153 H 0.09488 0.5688 0.76451 0.0
H1154 H 0.96958 0.61424 0.73464 0.0
H1155 H 0.96746 0.5811 0.71546 0.0
H1156 H 0.98622 0.61169 0.69736 0.0
H1157 H 0.04414 0.581 0.82109 0.0
H1158 H 0.07191 0.55424 0.81041 0.0
H1159 H 0.02976 0.54623 0.81162 0.0
C1160 C 0.5894 0.3248 0.54309 0.0
C1161 C 0.57763 0.31074 0.51804 0.0
C1162 C 0.60452 0.30967 0.56599 0.0
C1163 C 0.60725 0.27978 0.56394 0.0
C1164 C 0.59478 0.26551 0.53887 0.0
C1165 C 0.58043 0.28124 0.51609 0.0
C1166 C 0.61812 0.32568 0.59204 0.0
C1167 C 0.59663 0.23362 0.53606 0.0
C1168 C 0.66638 0.23656 0.60816 0.0
C1169 C 0.64631 0.22369 0.62999 0.0
C1170 C 0.65443 0.25613 0.58724 0.0
C1171 C 0.62178 0.26299 0.58849 0.0
C1172 C 0.60207 0.25149 0.61181 0.0
C1173 C 0.61453 0.23189 0.63216 0.0
C1174 C 0.67629 0.26796 0.56276 0.0
C1175 C 0.56736 0.25865 0.61426 0.0
H1176 H 0.58782 0.34774 0.54415 0.0
H1177 H 0.57139 0.27055 0.49656 0.0
H1178 H 0.60751 0.31724 0.61337 0.0
H1179 H 0.64415 0.32249 0.593 0.0
H1180 H 0.61382 0.34887 0.5904 0.0
H1181 H 0.58594 0.22586 0.51505 0.0
H1182 H 0.62183 0.22718 0.5366 0.0
H1183 H 0.58405 0.2229 0.5553 0.0
H1184 H 0.69091 0.23014 0.60645 0.0
H1185 H 0.59913 0.22228 0.6494 0.0
H1186 H 0.67137 0.2906 0.55781 0.0
H1187 H 0.6722 0.25589 0.54199 0.0
H1188 H 0.70172 0.26615 0.56871 0.0
H1189 H 0.56439 0.28203 0.61338 0.0
H1190 H 0.55624 0.25013 0.6353 0.0
H1191 H 0.55441 0.24955 0.59507 0.0
C1192 C 0.9996 0.42695 0.80639 0.0
C1193 C 0.01747 0.40614 0.8209 0.0
C1194 C 0.98154 0.42042 0.78095 0.0
C1195 C 0.98111 0.39233 0.76972 0.0
C1196 C 0.998 0.371 0.78509 0.0
C1197 C 0.01587 0.37813 0.81038 0.0
C1198 C 0.96415 0.44394 0.76526 0.0
C1199 C 0.99794 0.34074 0.77429 0.0
C1200 C 0.92043 0.37191 0.70985 0.0
C1201 C 0.93868 0.37573 0.68343 0.0
C1202 C 0.93384 0.37689 0.73818 0.0
C1203 C 0.96619 0.38601 0.74016 0.0
C1204 C 0.98475 0.38924 0.71357 0.0
C1205 C 0.97088 0.38401 0.68577 0.0
C1206 C 0.91324 0.37303 0.76595 0.0
C1207 C 0.01931 0.39874 0.71439 0.0
H1208 H 1.00071 0.44863 0.81421 0.0
H1209 H 0.02889 0.36171 0.82183 0.0
H1210 H 0.97581 0.44878 0.74326 0.0
H1211 H 0.93923 0.43713 0.76091 0.0
H1212 H 0.96395 0.46377 0.77844 0.0
H1213 H 0.01284 0.32684 0.7883 0.0
H1214 H 0.97325 0.33184 0.77455 0.0
H1215 H 1.00698 0.34017 0.75086 0.0
H1216 H 0.8955 0.36579 0.70836 0.0
H1217 H 0.98536 0.38697 0.66563 0.0
H1218 H 0.91057 0.39383 0.77699 0.0
H1219 H 0.92471 0.35857 0.78217 0.0
H1220 H 0.88921 0.36422 0.76091 0.0
H1221 H 0.02142 0.41993 0.72487 0.0
H1222 H 0.03054 0.40016 0.69174 0.0
H1223 H 0.03289 0.38365 0.72828 0.0
C1224 C 0.81555 0.74268 0.91613 0.0
C1225 C 0.84135 0.72437 0.9144 0.0
C1226 C 0.81526 0.76502 0.93666 0.0
C1227 C 0.84124 0.76889 0.95606 0.0
C1228 C 0.86704 0.75011 0.95476 0.0
C1229 C 0.86677 0.72817 0.93395 0.0
C1230 C 0.78699 0.78419 0.9375 0.0
C1231 C 0.89557 0.75381 0.9746 0.0
C1232 C 0.86737 0.84064 0.98426 0.0
C1233 C 0.86136 0.83745 0.01508 0.0
C1234 C 0.85868 0.81925 0.96443 0.0
C1235 C 0.84353 0.79402 0.9757 0.0
C1236 C 0.8346 0.79182 1.00636 0.0
C1237 C 0.84377 0.81363 0.02588 0.0
C1238 C 0.86765 0.82285 0.9317 0.0
C1239 C 0.8171 0.76571 0.01876 0.0
H1240 H 0.79548 0.73948 0.90157 0.0
H1241 H 0.88693 0.71433 0.93251 0.0
H1242 H 0.76934 0.77545 0.95416 0.0
H1243 H 0.79349 0.8062 0.94405 0.0
H1244 H 0.77545 0.78516 0.91537 0.0
H1245 H 0.91282 0.73646 0.97197 0.0
H1246 H 0.90797 0.77441 0.96914 0.0
H1247 H 0.88787 0.75439 0.99843 0.0
H1248 H 0.88034 0.85937 0.97575 0.0
H1249 H 0.83885 0.81123 0.04968 0.0
H1250 H 0.84664 0.81853 0.91762 0.0
H1251 H 0.886 0.80726 0.92568 0.0
H1252 H 0.87718 0.8446 0.92619 0.0
H1253 H 0.79669 0.76011 1.00435 0.0
H1254 H 0.80818 0.76882 0.04197 0.0
H1255 H 0.83327 0.7474 0.01882 0.0
C1256 C 0.46444 0.63131 0.3625 0.0
C1257 C 0.43799 0.63293 0.34385 0.0
C1258 C 0.49551 0.62978 0.35029 0.0
C1259 C 0.50015 0.63003 0.31877 0.0
C1260 C 0.47338 0.6305 0.30001 0.0
C1261 C 0.44278 0.63183 0.31274 0.0
C1262 C 0.5234 0.62874 0.37103 0.0
C1263 C 0.47706 0.63063 0.26632 0.0
C1264 C 0.57556 0.65811 0.27921 0.0
C1265 C 0.58829 0.63302 0.26809 0.0
C1266 C 0.54786 0.65737 0.29733 0.0
C1267 C 0.53275 0.63084 0.30488 0.0
C1268 C 0.54686 0.60535 0.29546 0.0
C1269 C 0.5742 0.60676 0.27693 0.0
C1270 C 0.53361 0.6851 0.3067 0.0
C1271 C 0.53215 0.57655 0.30341 0.0
H1272 H 0.461 0.63231 0.38654 0.0
H1273 H 0.42253 0.63287 0.29811 0.0
H1274 H 0.53923 0.61117 0.3648 0.0
H1275 H 0.53762 0.64889 0.36887 0.0
H1276 H 0.51575 0.62574 0.3948 0.0
H1277 H 0.4538 0.63068 0.25489 0.0
H1278 H 0.49118 0.64974 0.25872 0.0
H1279 H 0.49018 0.61166 0.25913 0.0
H1280 H 0.58626 0.67844 0.27237 0.0
H1281 H 0.58426 0.58725 0.26884 0.0
H1282 H 0.52733 0.68443 0.33089 0.0
H1283 H 0.51131 0.68845 0.29431 0.0
H1284 H 0.55001 0.7036 0.30214 0.0
H1285 H 0.52154 0.57619 0.32629 0.0
H1286 H 0.54994 0.55954 0.30201 0.0
H1287 H 0.51294 0.57155 0.28746 0.0
C1288 C 0.79579 0.94814 0.67627 0.0
C1289 C 0.82595 0.96089 0.67071 0.0
C1290 C 0.76791 0.9647 0.67728 0.0
C1291 C 0.77002 0.99473 0.67234 0.0
C1292 C 0.80043 1.00748 0.66672 0.0
C1293 C 0.82763 0.99062 0.66611 0.0
C1294 C 0.73618 0.94982 0.68293 0.0
C1295 C 0.80443 0.03922 0.66143 0.0
C1296 C 0.70216 0.04469 0.6513 0.0
C1297 C 0.69724 0.05893 0.67829 0.0
C1298 C 0.72404 0.02215 0.64939 0.0
C1299 C 0.74141 0.01363 0.67499 0.0
C1300 C 0.73453 0.02664 0.70265 0.0
C1301 C 0.71281 0.04897 0.70389 0.0
C1302 C 0.73009 1.00865 0.61955 0.0
C1303 C 0.75194 0.01848 0.73066 0.0
H1304 H 0.79386 0.92524 0.67936 0.0
H1305 H 0.85055 1.00104 0.66178 0.0
H1306 H 0.72007 0.96301 0.69647 0.0
H1307 H 0.72467 0.94599 0.66115 0.0
H1308 H 0.73888 0.92892 0.69448 0.0
H1309 H 0.82947 0.04578 0.65611 0.0
H1310 H 0.78931 0.04611 0.64267 0.0
H1311 H 0.79656 0.0507 0.68163 0.0
H1312 H 0.69052 0.05226 0.63135 0.0
H1313 H 0.70911 0.05969 0.72493 0.0
H1314 H 0.72932 0.98511 0.62202 0.0
H1315 H 0.75424 0.01501 0.61113 0.0
H1316 H 0.71247 0.01509 0.60263 0.0
H1317 H 0.75241 0.99498 0.73337 0.0
H1318 H 0.74092 0.02757 0.75099 0.0
H1319 H 0.77696 0.02644 0.72887 0.0
C1320 C 0.1118 0.54333 0.19716 0.0
C1321 C 0.09766 0.53408 0.17067 0.0
C1322 C 0.11179 0.52562 0.22303 0.0
C1323 C 0.09724 0.49804 0.22244 0.0
C1324 C 0.08333 0.48857 0.19565 0.0
C1325 C 0.08371 0.50659 0.17028 0.0
C1326 C 0.12691 0.53655 0.25113 0.0
C1327 C 0.06732 0.45952 0.19392 0.0
C1328 C 0.11147 0.44081 0.2826 0.0
C1329 C 0.08416 0.44295 0.30081 0.0
C1330 C 0.11659 0.45905 0.25742 0.0
C1331 C 0.09389 0.4799 0.25028 0.0
C1332 C 0.06648 0.48219 0.26875 0.0
C1333 C 0.06197 0.46379 0.29357 0.0
C1334 C 0.14613 0.45589 0.23829 0.0
C1335 C 0.04152 0.5039 0.26207 0.0
H1336 H 0.12287 0.56438 0.19769 0.0
H1337 H 0.07278 0.49903 0.15001 0.0
H1338 H 0.10845 0.53858 0.26892 0.0
H1339 H 0.14446 0.52119 0.25949 0.0
H1340 H 0.13907 0.5576 0.24748 0.0
H1341 H 0.05918 0.45469 0.171 0.0
H1342 H 0.08386 0.44281 0.20112 0.0
H1343 H 0.0464 0.45829 0.20938 0.0
H1344 H 0.1289 0.42502 0.28809 0.0
H1345 H 0.04078 0.46584 0.30741 0.0
H1346 H 0.15939 0.47656 0.23634 0.0
H1347 H 0.13939 0.44972 0.21535 0.0
H1348 H 0.16219 0.43962 0.2475 0.0
H1349 H 0.05258 0.52556 0.26061 0.0
H1350 H 0.02223 0.50381 0.27935 0.0
H1351 H 0.03075 0.4995 0.24008 0.0
C1352 C 0.84718 0.91727 0.52494 0.0
C1353 C 0.84346 0.91991 0.556 0.0
C1354 C 0.82123 0.9203 0.50578 0.0
C1355 C 0.7908 0.9261 0.51798 0.0
C1356 C 0.78709 0.92965 0.5492 0.0
C1357 C 0.81343 0.92665 0.56776 0.0
C1358 C 0.82633 0.91704 0.47253 0.0
C1359 C 0.75511 0.93592 0.56316 0.0
C1360 C 0.72501 0.95234 0.46757 0.0
C1361 C 0.70829 0.9269 0.4618 0.0
C1362 C 0.75219 0.95245 0.4855 0.0
C1363 C 0.76242 0.92658 0.49843 0.0
C1364 C 0.74525 0.90093 0.493 0.0
C1365 C 0.71859 0.90139 0.47455 0.0
C1366 C 0.77026 0.98012 0.49012 0.0
C1367 C 0.75512 0.87294 0.50659 0.0
H1368 H 0.87023 0.91216 0.51563 0.0
H1369 H 0.81039 0.9296 0.59159 0.0
H1370 H 0.80966 0.90061 0.46382 0.0
H1371 H 0.82127 0.93741 0.4609 0.0
H1372 H 0.85104 0.91107 0.46674 0.0
H1373 H 0.75649 0.9392 0.58767 0.0
H1374 H 0.74523 0.95524 0.55262 0.0
H1375 H 0.73814 0.91799 0.55913 0.0
H1376 H 0.71743 0.972 0.45724 0.0
H1377 H 0.70558 0.88176 0.47015 0.0
H1378 H 0.79496 0.97845 0.48135 0.0
H1379 H 0.77179 0.98457 0.51436 0.0
H1380 H 0.75901 0.99841 0.47874 0.0
H1381 H 0.77958 0.86805 0.49894 0.0
H1382 H 0.73891 0.85499 0.50055 0.0
H1383 H 0.75547 0.87441 0.53134 0.0
C1384 C 0.41999 0.5729 0.80064 0.0
C1385 C 0.40237 0.59551 0.78907 0.0
C1386 C 0.42824 0.5497 0.78293 0.0
C1387 C 0.41916 0.54908 0.7526 0.0
C1388 C 0.40249 0.57228 0.74036 0.0
C1389 C 0.39429 0.59516 0.75869 0.0
C1390 C 0.44587 0.52541 0.797 0.0
C1391 C 0.39306 0.57283 0.70793 0.0
C1392 C 0.45986 0.495 0.7029 0.0
C1393 C 0.4369 0.47289 0.70254 0.0
C1394 C 0.45413 0.52033 0.71833 0.0
C1395 C 0.42512 0.52323 0.73447 0.0
C1396 C 0.40196 0.50084 0.73423 0.0
C1397 C 0.40795 0.47617 0.71798 0.0
C1398 C 0.4792 0.54386 0.7176 0.0
C1399 C 0.37117 0.5026 0.75187 0.0
H1400 H 0.42723 0.57311 0.82374 0.0
H1401 H 0.38079 0.61237 0.74933 0.0
H1402 H 0.43089 0.50565 0.79661 0.0
H1403 H 0.46792 0.52137 0.78398 0.0
H1404 H 0.45232 0.52962 0.82055 0.0
H1405 H 0.41467 0.57624 0.69363 0.0
H1406 H 0.38201 0.55217 0.70165 0.0
H1407 H 0.37622 0.59006 0.70291 0.0
H1408 H 0.48219 0.49248 0.69091 0.0
H1409 H 0.39036 0.45894 0.71819 0.0
H1410 H 0.48764 0.54786 0.74057 0.0
H1411 H 0.46886 0.5639 0.70918 0.0
H1412 H 0.49997 0.53873 0.70318 0.0
H1413 H 0.37627 0.50398 0.77608 0.0
H1414 H 0.35522 0.48381 0.74845 0.0
H1415 H 0.3585 0.52215 0.74543 0.0
C1416 C 0.87776 0.14437 0.9777 0.0
C1417 C 0.85937 0.1315 0.95553 0.0
C1418 C 0.86327 0.1549 1.00391 0.0
C1419 C 0.82978 0.15215 0.00802 0.0
C1420 C 0.81156 0.13771 0.98636 0.0
C1421 C 0.82651 0.12773 0.96048 0.0
C1422 C 0.88353 0.17029 0.0263 0.0
C1423 C 0.77587 0.13398 0.98977 0.0
C1424 C 0.7814 0.15916 0.07971 0.0
C1425 C 0.76479 0.18409 0.0735 0.0
C1426 C 0.8051 0.1497 0.05996 0.0
C1427 C 0.8128 0.16571 0.0336 0.0
C1428 C 0.79886 0.19259 0.02922 0.0
C1429 C 0.77487 0.20135 0.04907 0.0
C1430 C 0.81917 0.12102 0.06575 0.0
C1431 C 0.80698 0.21087 1.00196 0.0
H1432 H 0.90313 0.14752 0.97388 0.0
H1433 H 0.8122 0.11753 0.94357 0.0
H1434 H 0.87924 0.19345 0.02462 0.0
H1435 H 0.87706 0.16324 0.04946 0.0
H1436 H 0.9093 0.16688 0.02236 0.0
H1437 H 0.76553 0.12036 0.97215 0.0
H1438 H 0.76956 0.12438 0.01199 0.0
H1439 H 0.76462 0.15506 0.98847 0.0
H1440 H 0.77409 0.14569 0.09864 0.0
H1441 H 0.76258 0.22088 0.0443 0.0
H1442 H 0.84478 0.12114 0.05946 0.0
H1443 H 0.80672 0.1051 0.05184 0.0
H1444 H 0.81633 0.11418 0.08957 0.0
H1445 H 0.83302 0.21149 0.99752 0.0
H1446 H 0.79876 0.233 1.0045 0.0
H1447 H 0.79535 0.20162 0.98212 0.0
C1448 C 0.3278 0.18305 0.47568 0.0
C1449 C 0.31459 0.18799 0.44742 0.0
C1450 C 0.30845 0.17638 0.50089 0.0
C1451 C 0.27501 0.17471 0.49794 0.0
C1452 C 0.26143 0.18136 0.46993 0.0
C1453 C 0.28136 0.18784 0.44503 0.0
C1454 C 0.3239 0.16983 0.53038 0.0
C1455 C 0.22585 0.18023 0.46585 0.0
C1456 C 0.22551 0.1225 0.54604 0.0
C1457 C 0.21015 0.14045 0.56611 0.0
C1458 C 0.24756 0.13333 0.52464 0.0
C1459 C 0.25437 0.16298 0.52298 0.0
C1460 C 0.23997 0.18114 0.54402 0.0
C1461 C 0.21818 0.16961 0.56554 0.0
C1462 C 0.26245 0.11311 0.50287 0.0
C1463 C 0.24686 0.21281 0.54326 0.0
H1464 H 0.35339 0.18389 0.47801 0.0
H1465 H 0.27084 0.19157 0.42342 0.0
H1466 H 0.31299 0.1824 0.54846 0.0
H1467 H 0.31985 0.14699 0.53634 0.0
H1468 H 0.34993 0.17444 0.52966 0.0
H1469 H 0.21888 0.18956 0.44399 0.0
H1470 H 0.21716 0.15775 0.4671 0.0
H1471 H 0.21368 0.19178 0.48402 0.0
H1472 H 0.21945 0.09994 0.54641 0.0
H1473 H 0.20619 0.18363 0.58083 0.0
H1474 H 0.28873 0.11583 0.50274 0.0
H1475 H 0.25432 0.11799 0.47989 0.0
H1476 H 0.25621 0.09049 0.50834 0.0
H1477 H 0.27161 0.21702 0.55049 0.0
H1478 H 0.23049 0.22443 0.5582 0.0
H1479 H 0.24495 0.22153 0.52016 0.0
C1480 C 0.15813 0.02715 0.6792 0.0
C1481 C 0.12936 0.02728 0.66376 0.0
C1482 C 0.16316 1.0075 0.70257 0.0
C1483 C 0.13874 0.98751 0.71092 0.0
C1484 C 0.10981 0.98722 0.69507 0.0
C1485 C 0.10551 1.00702 0.67163 0.0
C1486 C 0.19443 1.00851 0.7187 0.0
C1487 C 0.08294 0.96666 0.70351 0.0
C1488 C 0.16237 0.92289 0.75754 0.0
C1489 C 0.15449 0.93127 0.78666 0.0
C1490 C 0.15687 0.94072 0.73264 0.0
C1491 C 0.14324 0.96767 0.7369 0.0
C1492 C 0.13505 0.97619 0.76621 0.0
C1493 C 0.14081 0.95796 0.79066 0.0
C1494 C 0.16583 0.93082 0.70175 0.0
C1495 C 0.12044 1.00471 0.7718 0.0
H1496 H 0.17675 0.04256 0.67301 0.0
H1497 H 0.08305 1.00728 0.66012 0.0
H1498 H 0.19026 0.01365 0.74256 0.0
H1499 H 0.20557 0.98737 0.71812 0.0
H1500 H 0.21142 0.02464 0.70876 0.0
H1501 H 0.0633 0.9672 0.68721 0.0
H1502 H 0.09171 0.94463 0.70507 0.0
H1503 H 0.07322 0.97218 0.72583 0.0
H1504 H 0.17257 0.90223 0.75418 0.0
H1505 H 0.13494 0.96484 0.81303 0.0
H1506 H 0.18383 0.94575 0.6914 0.0
H1507 H 0.14468 0.93085 0.68723 0.0
H1508 H 0.17566 0.90909 0.70211 0.0
H1509 H 0.13697 0.0221 0.7639 0.0
H1510 H 0.11483 1.00791 0.79586 0.0
H1511 H 0.09823 1.00664 0.75894 0.0
C1512 C 0.30611 0.96358 0.05322 0.0
C1513 C 0.33416 0.9483 0.04981 0.0
C1514 C 0.283 0.96358 0.03091 0.0
C1515 C 0.28795 0.94774 1.00465 0.0
C1516 C 0.31716 0.93392 1.00018 0.0
C1517 C 0.34001 0.9345 0.02275 0.0
C1518 C 0.25234 0.97887 0.0364 0.0
C1519 C 0.32336 0.91683 0.97247 0.0
C1520 C 0.21538 0.91427 0.96853 0.0
C1521 C 0.21177 0.93173 0.9431 0.0
C1522 C 0.23997 0.9194 0.98871 0.0
C1523 C 0.2613 0.94284 0.98365 0.0
C1524 C 0.25737 0.96099 0.95846 0.0
C1525 C 0.23275 0.95513 0.93837 0.0
C1526 C 0.24355 0.89929 0.01512 0.0
C1527 C 0.27946 0.98632 0.95249 0.0
H1528 H 0.30148 0.97444 0.074 0.0
H1529 H 0.36154 0.92254 0.01992 0.0
H1530 H 0.24589 0.99151 0.01632 0.0
H1531 H 0.23279 0.96301 0.04088 0.0
H1532 H 0.2539 0.99327 0.05581 0.0
H1533 H 0.3481 0.90909 0.97134 0.0
H1534 H 0.3067 0.89815 0.9722 0.0
H1535 H 0.31896 0.92982 0.95209 0.0
H1536 H 0.19946 0.89602 0.97231 0.0
H1537 H 0.23012 0.96874 0.9188 0.0
H1538 H 0.24268 0.91126 0.03629 0.0
H1539 H 0.26704 0.88908 0.01385 0.0
H1540 H 0.2247 0.88231 0.0161 0.0
H1541 H 0.28004 1.00021 0.97231 0.0
H1542 H 0.27226 0.99916 0.93276 0.0
H1543 H 0.30403 0.979 0.94855 0.0
C1544 C 0.4024 0.08025 0.33077 0.0
C1545 C 0.38381 0.10435 0.32656 0.0
C1546 C 0.39657 0.05523 0.3144 0.0
C1547 C 0.37149 0.05429 0.29352 0.0
C1548 C 0.35212 0.07828 0.29001 0.0
C1549 C 0.35852 0.10286 0.30645 0.0
C1550 C 0.41775 0.0301 0.3188 0.0
C1551 C 0.32505 0.07833 0.26817 0.0
C1552 C 0.37191 1.00711 0.22515 0.0
C1553 C 0.34888 0.98597 0.23295 0.0
C1554 C 0.38073 0.02849 0.24525 0.0
C1555 C 0.36613 0.02907 0.274 0.0
C1556 C 0.34378 1.00725 0.28251 0.0
C1557 C 0.33545 0.98602 0.26195 0.0
C1558 C 0.40466 0.05128 0.23513 0.0
C1559 C 0.32775 1.00693 0.31297 0.0
H1560 H 0.422 0.08118 0.3462 0.0
H1561 H 0.34376 0.1212 0.30316 0.0
H1562 H 0.40316 1.01054 0.32369 0.0
H1563 H 0.43149 0.0264 0.29789 0.0
H1564 H 0.43473 0.03337 0.33728 0.0
H1565 H 0.31137 0.09823 0.26901 0.0
H1566 H 0.33451 0.07592 0.24506 0.0
H1567 H 0.3085 0.06002 0.27297 0.0
H1568 H 0.3824 1.00766 0.20289 0.0
H1569 H 0.31817 0.96958 0.2686 0.0
H1570 H 0.42338 0.05406 0.25211 0.0
H1571 H 0.39261 0.07191 0.23269 0.0
H1572 H 0.41622 0.04628 0.21338 0.0
H1573 H 0.3457 1.0093 0.33073 0.0
H1574 H 0.31354 0.98702 0.31738 0.0
H1575 H 0.31169 0.02524 0.31461 0.0
C1576 C 0.5676 0.20883 0.04316 0.0
C1577 C 0.59855 0.21665 0.05139 0.0
C1578 C 0.54338 0.22883 0.04321 0.0
C1579 C 0.55061 0.25722 0.05136 0.0
C1580 C 0.58234 0.26557 0.05761 0.0
C1581 C 0.6059 0.24508 0.05772 0.0
C1582 C 0.50978 0.21915 0.03662 0.0
C1583 C 0.59108 0.29574 0.06596 0.0
C1584 C 0.49305 0.31703 0.03979 0.0
C1585 C 0.48073 0.32019 0.0689 0.0
C1586 C 0.5151 0.29598 0.0334 0.0
C1587 C 0.52478 0.2775 0.05662 0.0
C1588 C 0.51148 0.27976 0.08574 0.0
C1589 C 0.48978 0.30117 0.09155 0.0
C1590 C 0.5289 0.29417 1.00211 0.0
C1591 C 0.52112 0.26028 0.1111 0.0
H1592 H 0.56195 0.18674 0.03853 0.0
H1593 H 0.62999 0.25103 0.06376 0.0
H1594 H 0.49541 0.21863 0.05767 0.0
H1595 H 0.4985 0.23429 0.02098 0.0
H1596 H 0.50884 0.19757 0.02683 0.0
H1597 H 0.61724 0.29938 0.06696 0.0
H1598 H 0.58128 0.31107 0.04959 0.0
H1599 H 0.58054 0.30041 0.0882 0.0
H1600 H 0.48576 0.33124 0.02202 0.0
H1601 H 0.48081 0.30353 0.11416 0.0
H1602 H 0.52672 0.27206 0.99395 0.0
H1603 H 0.55463 0.29995 1.00231 0.0
H1604 H 0.51704 0.3086 0.98608 0.0
H1605 H 0.51858 0.2377 0.10447 0.0
H1606 H 0.50669 0.26335 0.13178 0.0
H1607 H 0.54652 0.26434 0.1163 0.0
C1608 C 0.95709 0.23646 0.84484 0.0
C1609 C 0.96471 0.20764 0.84741 0.0
C1610 C 0.98047 0.25809 0.84832 0.0
C1611 C 0.01222 0.25075 0.85466 0.0
C1612 C 0.0204 0.22174 0.85544 0.0
C1613 C 0.99666 0.20063 0.85159 0.0
C1614 C 0.97074 0.28878 0.84711 0.0
C1615 C 0.05403 0.21289 0.86139 0.0
C1616 C 0.07587 0.3105 0.85461 0.0
C1617 C 0.07563 0.31777 0.88493 0.0
C1618 C 0.05591 0.28826 0.84429 0.0
C1619 C 0.03546 0.27304 0.8648 0.0
C1620 C 0.03652 0.27945 0.89559 0.0
C1621 C 0.05654 0.3016 0.9052 0.0
C1622 C 0.05638 0.28135 0.81146 0.0
C1623 C 0.01573 0.26344 0.91841 0.0
H1624 H 0.93259 0.24219 0.84158 0.0
H1625 H 1.00303 0.17848 0.85267 0.0
H1626 H 0.97026 0.29732 0.87011 0.0
H1627 H 0.98824 0.3019 0.83374 0.0
H1628 H 0.94682 0.2912 0.83734 0.0
H1629 H 0.05547 0.18971 0.86614 0.0
H1630 H 0.06924 0.21829 0.8415 0.0
H1631 H 0.06404 0.22444 0.88067 0.0
H1632 H 0.09041 0.32302 0.8388 0.0
H1633 H 0.05639 0.30698 0.9287 0.0
H1634 H 0.03184 0.27859 0.80303 0.0
H1635 H 0.06856 0.26092 0.80828 0.0
H1636 H 0.06912 0.2981 0.79777 0.0
H1637 H 0.9903 0.26639 0.91322 0.0
H1638 H 0.01992 0.27064 0.9416 0.0
H1639 H 0.02027 0.24031 0.91744 0.0
C1640 C 0.9977 0.65711 0.09692 0.0
C1641 C 0.01521 0.64932 0.07157 0.0
C1642 C 0.98533 0.68448 0.09918 0.0
C1643 C 0.99131 0.70467 0.07578 0.0
C1644 C 1.00792 0.69653 0.04959 0.0
C1645 C 0.01945 0.66885 0.04771 0.0
C1646 C 0.96712 0.69214 0.12715 0.0
C1647 C 0.0152 0.71757 0.02436 0.0
C1648 C 0.94732 0.77425 0.07167 0.0
C1649 C 0.96867 0.79309 0.08562 0.0
C1650 C 0.95397 0.74528 0.06891 0.0
C1651 C 0.98298 0.73497 0.07981 0.0
C1652 C 1.00454 0.75382 0.09405 0.0
C1653 C 0.99705 0.78259 0.09687 0.0
C1654 C 0.92996 0.72583 0.05424 0.0
C1655 C 0.03527 0.74373 0.1071 0.0
H1656 H 0.99458 0.64197 0.11534 0.0
H1657 H 0.03353 0.66302 0.02835 0.0
H1658 H 0.98192 0.70675 0.14069 0.0
H1659 H 0.94513 0.70344 0.12132 0.0
H1660 H 0.96054 0.67308 0.14114 0.0
H1661 H 0.02825 0.70782 1.00547 0.0
H1662 H 0.99285 0.72639 0.01578 0.0
H1663 H 0.02972 0.7357 0.03274 0.0
H1664 H 0.92551 0.78216 0.06249 0.0
H1665 H 0.01331 0.79683 0.10821 0.0
H1666 H 0.9261 0.70596 0.06772 0.0
H1667 H 0.93907 0.71973 0.03189 0.0
H1668 H 0.90669 0.73612 0.05131 0.0
H1669 H 0.03046 0.73522 0.13006 0.0
H1670 H 0.0531 0.76146 0.10866 0.0
H1671 H 0.04573 0.72648 0.09381 0.0
C1672 C 0.46333 0.73693 0.37731 0.0
C1673 C 0.43364 0.74999 0.37608 0.0
C1674 C 0.49179 0.75313 0.37806 0.0
C1675 C 0.49071 0.78319 0.3771 0.0
C1676 C 0.46098 0.79654 0.3747 0.0
C1677 C 0.43283 0.7798 0.37436 0.0
C1678 C 0.52297 0.73803 0.38047 0.0
C1679 C 0.45885 0.82856 0.3732 0.0
C1680 C 0.55663 0.82804 0.41142 0.0
C1681 C 0.57434 0.83723 0.3861 0.0
C1682 C 0.53002 0.80967 0.40884 0.0
C1683 C 0.52045 0.80076 0.38016 0.0
C1684 C 0.53865 0.80949 0.35454 0.0
C1685 C 0.56559 0.82741 0.35785 0.0
C1686 C 0.51167 0.80037 0.43678 0.0
C1687 C 0.52892 0.80092 0.32353 0.0
H1688 H 0.46443 0.71395 0.37776 0.0
H1689 H 0.41013 0.79012 0.37348 0.0
H1690 H 0.53867 0.7439 0.36104 0.0
H1691 H 0.53548 0.74483 0.40092 0.0
H1692 H 0.51969 0.7145 0.38133 0.0
H1693 H 0.4342 0.83557 0.3693 0.0
H1694 H 0.4672 0.83776 0.39446 0.0
H1695 H 0.47457 0.83741 0.35498 0.0
H1696 H 0.56335 0.83555 0.43329 0.0
H1697 H 0.57894 0.83477 0.33814 0.0
H1698 H 0.50924 0.77681 0.43786 0.0
H1699 H 0.48732 0.8089 0.43618 0.0
H1700 H 0.52331 0.80777 0.45748 0.0
H1701 H 0.52587 0.77746 0.3224 0.0
H1702 H 0.54656 0.80819 0.3061 0.0
H1703 H 0.50562 0.81023 0.31826 0.0
C1704 C 0.04433 0.71146 0.67275 0.0
C1705 C 0.07363 0.71873 0.68582 0.0
C1706 C 0.02004 0.73164 0.66917 0.0
C1707 C 0.0248 0.76011 0.67871 0.0
C1708 C 0.0541 0.76744 0.6923 0.0
C1709 C 0.0779 0.74689 0.69565 0.0
C1710 C 0.98939 0.72256 0.65464 0.0
C1711 C 0.06074 0.79737 0.70267 0.0
C1712 C 0.98275 0.82185 0.64 0.0
C1713 C 0.95937 0.82961 0.66106 0.0
C1714 C 1.00314 0.79894 0.64509 0.0
C1715 C 1.00067 0.78287 0.67215 0.0
C1716 C 0.97634 0.78981 0.69319 0.0
C1717 C 0.95598 0.81297 0.68741 0.0
C1718 C 0.02823 0.79262 0.62173 0.0
C1719 C 0.97258 0.7734 0.72233 0.0
H1720 H 0.04019 0.68989 0.66538 0.0
H1721 H 0.10027 0.75322 0.70546 0.0
H1722 H 0.96878 0.72808 0.66903 0.0
H1723 H 0.98697 0.73419 0.63303 0.0
H1724 H 0.98824 0.69934 0.65037 0.0
H1725 H 0.08368 0.79939 0.71454 0.0
H1726 H 0.0615 0.81226 0.68313 0.0
H1727 H 0.04134 0.80417 0.71786 0.0
H1728 H 0.98569 0.83424 0.61942 0.0
H1729 H 0.93833 0.81872 0.70402 0.0
H1730 H 0.0266 0.76989 0.61549 0.0
H1731 H 0.05223 0.79651 0.63101 0.0
H1732 H 0.02601 0.80595 0.60115 0.0
H1733 H 0.97114 0.7502 0.71814 0.0
H1734 H 0.95103 0.77952 0.73516 0.0
H1735 H 0.99375 0.77738 0.73629 0.0
C1736 C 0.97277 0.30038 0.37207 0.0
C1737 C 1.00428 0.30717 0.37948 0.0
C1738 C 0.963 0.27203 0.36723 0.0
C1739 C 0.98533 0.25001 0.36954 0.0
C1740 C 0.01682 0.25662 0.37813 0.0
C1741 C 0.02574 0.28501 0.38345 0.0
C1742 C 0.92897 0.26573 0.35878 0.0
C1743 C 0.0414 0.23391 0.3813 0.0
C1744 C 0.95197 0.17408 0.37335 0.0
C1745 C 0.95111 0.16731 0.34289 0.0
C1746 C 0.96397 0.20061 0.3826 0.0
C1747 C 0.97616 0.22048 0.36094 0.0
C1748 C 0.97807 0.21267 0.33052 0.0
C1749 C 0.96524 0.1863 0.32182 0.0
C1750 C 0.96121 0.20811 0.41519 0.0
C1751 C 0.99236 0.23272 0.30694 0.0
H1752 H 0.95602 0.31729 0.36911 0.0
H1753 H 0.04982 0.28987 0.39029 0.0
H1754 H 0.92819 0.25901 0.33512 0.0
H1755 H 0.91886 0.24789 0.37275 0.0
H1756 H 0.91372 0.28451 0.36141 0.0
H1757 H 0.06594 0.24316 0.38062 0.0
H1758 H 0.03766 0.22257 0.40308 0.0
H1759 H 0.03939 0.21798 0.36334 0.0
H1760 H 0.94133 0.1595 0.38986 0.0
H1761 H 0.965 0.18108 0.29828 0.0
H1762 H 0.94174 0.22335 0.41794 0.0
H1763 H 0.98341 0.21862 0.42295 0.0
H1764 H 0.95569 0.18915 0.42969 0.0
H1765 H 0.97725 0.25162 0.30452 0.0
H1766 H 0.99459 0.22252 0.28479 0.0
H1767 H 0.01628 0.24039 0.31382 0.0
C1768 C 0.47562 0.68636 0.91344 0.0
C1769 C 0.44499 0.69733 0.91242 0.0
C1770 C 0.5024 0.70467 0.91706 0.0
C1771 C 0.49828 0.73447 0.91972 0.0
C1772 C 0.46709 0.745 0.92166 0.0
C1773 C 0.44096 0.72636 0.91783 0.0
C1774 C 0.5352 0.69246 0.91556 0.0
C1775 C 0.46124 0.77638 0.92485 0.0
C1776 C 0.56888 0.78558 0.9338 0.0
C1777 C 0.57768 0.79392 0.90446 0.0
C1778 C 0.54332 0.766 0.93934 0.0
C1779 C 0.52588 0.75496 0.915 0.0
C1780 C 0.53424 0.76408 0.88548 0.0
C1781 C 0.56004 0.78319 0.88062 0.0
C1782 C 0.53522 0.75696 0.97114 0.0
C1783 C 0.5162 0.75333 0.8588 0.0
H1784 H 0.47886 0.66397 0.90914 0.0
H1785 H 0.41723 0.73489 0.9173 0.0
H1786 H 0.5464 0.69789 0.89348 0.0
H1787 H 0.55055 0.70181 0.93301 0.0
H1788 H 0.53448 0.66892 0.91843 0.0
H1789 H 0.43613 0.78046 0.93122 0.0
H1790 H 0.47701 0.78582 0.94188 0.0
H1791 H 0.4667 0.78749 0.90321 0.0
H1792 H 0.58278 0.79338 0.9523 0.0
H1793 H 0.5668 0.78945 0.8579 0.0
H1794 H 0.53209 0.73348 0.97296 0.0
H1795 H 0.51235 0.76633 0.97804 0.0
H1796 H 0.55381 0.76394 0.987 0.0
H1797 H 0.5176 0.72983 0.85776 0.0
H1798 H 0.52557 0.76267 0.83733 0.0
H1799 H 0.49069 0.75854 0.8611 0.0
C1800 C 0.68001 0.9257 0.79901 0.0
C1801 C 0.6722 0.91695 0.82838 0.0
C1802 C 0.67782 0.95437 0.78993 0.0
C1803 C 0.66741 0.97477 0.81071 0.0
C1804 C 0.66008 0.96617 0.84053 0.0
C1805 C 0.66284 0.93749 0.84906 0.0
C1806 C 0.68554 0.96252 0.7578 0.0
C1807 C 0.64851 0.98715 0.86325 0.0
C1808 C 0.68261 0.05353 0.79286 0.0
C1809 C 0.6533 0.06139 0.78108 0.0
C1810 C 0.68753 0.02546 0.80283 0.0
C1811 C 0.66255 1.00481 0.80097 0.0
C1812 C 0.63272 0.01282 0.78982 0.0
C1813 C 0.62845 0.04098 0.78016 0.0
C1814 C 0.71964 0.01772 0.81468 0.0
C1815 C 0.60544 0.9915 0.78751 0.0
H1816 H 0.68719 0.90999 0.78294 0.0
H1817 H 0.65769 0.93125 0.87206 0.0
H1818 H 0.66308 0.96529 0.74552 0.0
H1819 H 0.69909 0.98302 0.75632 0.0
H1820 H 0.69947 0.94594 0.74645 0.0
H1821 H 0.64424 0.97715 0.88568 0.0
H1822 H 0.66612 1.00495 0.86528 0.0
H1823 H 0.62598 0.99651 0.8557 0.0
H1824 H 0.7021 0.069 0.79321 0.0
H1825 H 0.60569 0.04701 0.77135 0.0
H1826 H 0.72939 0.99993 0.80166 0.0
H1827 H 0.7171 1.01027 0.83828 0.0
H1828 H 0.737 0.03592 0.81358 0.0
H1829 H 0.61222 0.97423 0.77222 0.0
H1830 H 0.58351 1.00134 0.77903 0.0
H1831 H 0.6 0.98153 0.80973 0.0
C1832 C 0.17209 0.40535 0.02621 0.0
C1833 C 0.16955 0.38898 1.00032 0.0
C1834 C 0.19849 0.40323 0.04504 0.0
C1835 C 0.22308 0.38418 0.03791 0.0
C1836 C 0.21943 0.36612 0.01307 0.0
C1837 C 0.19288 0.36879 0.99461 0.0
C1838 C 0.19975 0.42219 0.07195 0.0
C1839 C 0.24425 0.34467 1.00525 0.0
C1840 C 0.30898 0.40416 0.05463 0.0
C1841 C 0.31517 0.38758 0.08026 0.0
C1842 C 0.2791 0.40354 0.04117 0.0
C1843 C 0.25439 0.38576 0.05339 0.0
C1844 C 0.26011 0.36927 0.07956 0.0
C1845 C 0.29045 0.37037 0.09273 0.0
C1846 C 0.27439 0.42155 0.01331 0.0
C1847 C 0.23418 0.35046 0.09349 0.0
H1848 H 0.15416 0.42081 0.0312 0.0
H1849 H 0.1907 0.35531 0.9753 0.0
H1850 H 0.18023 0.41564 0.08781 0.0
H1851 H 0.22251 0.4215 0.08405 0.0
H1852 H 0.19538 0.44453 0.06501 0.0
H1853 H 0.23587 0.32957 0.98803 0.0
H1854 H 0.26604 0.35592 0.9965 0.0
H1855 H 0.25092 0.33235 0.02549 0.0
H1856 H 0.32767 0.41773 0.04474 0.0
H1857 H 0.29485 0.35764 0.11261 0.0
H1858 H 0.25112 0.43216 0.01408 0.0
H1859 H 0.27453 0.40771 0.99345 0.0
H1860 H 0.29349 0.43813 0.01013 0.0
H1861 H 0.21377 0.36364 0.10013 0.0
H1862 H 0.2424 0.3386 0.11351 0.0
H1863 H 0.22541 0.33496 0.07687 0.0
C1864 C 0.86112 0.05566 0.21972 0.0
C1865 C 0.85549 0.05302 0.25066 0.0
C1866 C 0.86436 0.03149 0.20189 0.0
C1867 C 0.86185 1.00395 0.21529 0.0
C1868 C 0.85432 1.00114 0.24622 0.0
C1869 C 0.85136 0.02566 0.26349 0.0
C1870 C 0.87207 0.03548 0.16895 0.0
C1871 C 0.85055 0.97252 0.26189 0.0
C1872 C 0.85715 0.94105 0.1625 0.0
C1873 C 0.88924 0.93368 0.16028 0.0
C1874 C 0.84759 0.96339 0.18099 0.0
C1875 C 0.87065 0.97862 0.19755 0.0
C1876 C 0.90271 0.97021 0.19656 0.0
C1877 C 0.9116 0.94795 0.17794 0.0
C1878 C 0.81298 0.97098 0.18261 0.0
C1879 C 0.92784 0.98524 0.21467 0.0
H1880 H 0.86441 0.07663 0.20959 0.0
H1881 H 0.84628 0.02331 0.28725 0.0
H1882 H 0.89656 0.02824 0.16425 0.0
H1883 H 0.85561 0.02231 0.15545 0.0
H1884 H 0.87051 0.05805 0.16145 0.0
H1885 H 0.86981 0.97019 0.27839 0.0
H1886 H 0.82764 0.97148 0.27457 0.0
H1887 H 0.85104 0.95424 0.24656 0.0
H1888 H 0.83969 0.93011 0.14898 0.0
H1889 H 0.93639 0.94221 0.17664 0.0
H1890 H 0.81021 0.99367 0.17617 0.0
H1891 H 0.80405 0.96827 0.20602 0.0
H1892 H 0.79803 0.95759 0.16785 0.0
H1893 H 0.92964 1.00805 0.20786 0.0
H1894 H 0.95164 0.97578 0.21186 0.0
H1895 H 0.92101 0.98425 0.23876 0.0
C1896 C 0.19016 0.62516 0.57197 0.0
C1897 C 0.19432 0.64475 0.59502 0.0
C1898 C 0.21004 0.62631 0.54617 0.0
C1899 C 0.2346 0.64752 0.54345 0.0
C1900 C 0.23862 0.6674 0.56657 0.0
C1901 C 0.2185 0.66581 0.59187 0.0
C1902 C 0.20489 0.60484 0.52189 0.0
C1903 C 0.26421 0.69054 0.5646 0.0
C1904 C 0.30582 0.64261 0.48969 0.0
C1905 C 0.29728 0.66135 0.46659 0.0
C1906 C 0.28515 0.63696 0.51438 0.0
C1907 C 0.25522 0.65024 0.51592 0.0
C1908 C 0.24625 0.66857 0.49228 0.0
C1909 C 0.26732 0.67393 0.46809 0.0
C1910 C 0.29561 0.61731 0.53916 0.0
C1911 C 0.21466 0.68321 0.49287 0.0
H1912 H 0.17175 0.60869 0.57427 0.0
H1913 H 0.222 0.68114 0.60944 0.0
H1914 H 0.19957 0.61594 0.50052 0.0
H1915 H 0.22692 0.5928 0.51814 0.0
H1916 H 0.18506 0.58951 0.52745 0.0
H1917 H 0.26478 0.70387 0.58488 0.0
H1918 H 0.28788 0.68098 0.5615 0.0
H1919 H 0.26025 0.70457 0.54487 0.0
H1920 H 0.32871 0.63254 0.4886 0.0
H1921 H 0.26017 0.6882 0.45028 0.0
H1922 H 0.27713 0.6005 0.54379 0.0
H1923 H 0.2986 0.62949 0.56003 0.0
H1924 H 0.31843 0.60702 0.53367 0.0
H1925 H 0.19496 0.66739 0.49678 0.0
H1926 H 0.21022 0.69511 0.47173 0.0
H1927 H 0.21401 0.69837 0.51162 0.0
C1928 C 0.78917 0.59215 0.10317 0.0
C1929 C 0.75748 0.60077 0.10255 0.0
C1930 C 0.80688 0.58883 0.07649 0.0
C1931 C 0.79257 0.59432 0.04856 0.0
C1932 C 0.76073 0.60341 0.04787 0.0
C1933 C 0.74369 0.60661 0.07478 0.0
C1934 C 0.84081 0.57925 0.07815 0.0
C1935 C 0.7446 0.60988 0.01866 0.0
C1936 C 0.84069 0.61239 0.97785 0.0
C1937 C 0.83775 0.58706 0.9617 0.0
C1938 C 0.82738 0.61464 1.00669 0.0
C1939 C 0.81071 0.59098 0.01989 0.0
C1940 C 0.80904 0.56492 1.0044 0.0
C1941 C 0.82259 0.56326 0.97549 0.0
C1942 C 0.82979 0.64282 0.02237 0.0
C1943 C 0.79147 0.53921 0.0177 0.0
H1944 H 0.79992 0.58749 0.12449 0.0
H1945 H 0.71951 0.61398 0.07406 0.0
H1946 H 0.84339 0.55897 0.0661 0.0
H1947 H 0.857 0.59524 0.06694 0.0
H1948 H 0.84857 0.57609 0.10159 0.0
H1949 H 0.71913 0.61489 0.02193 0.0
H1950 H 0.75682 0.62832 0.00724 0.0
H1951 H 0.74621 0.59148 1.00353 0.0
H1952 H 0.85251 0.63091 0.96755 0.0
H1953 H 0.82018 0.54361 0.96328 0.0
H1954 H 0.83813 0.63972 0.04559 0.0
H1955 H 0.80593 0.65233 0.0238 0.0
H1956 H 0.84625 0.65821 0.01049 0.0
H1957 H 0.79957 0.53487 0.04078 0.0
H1958 H 0.79484 0.51987 1.00416 0.0
H1959 H 0.76566 0.54348 0.01912 0.0
C1960 C 0.58126 0.43263 0.31034 0.0
C1961 C 0.58494 0.44553 0.33826 0.0
C1962 C 0.58875 0.44756 0.28356 0.0
C1963 C 0.59978 0.4762 0.2847 0.0
C1964 C 0.60199 0.48977 0.31269 0.0
C1965 C 0.59462 0.47426 0.3391 0.0
C1966 C 0.58557 0.43249 0.25416 0.0
C1967 C 0.61378 0.52027 0.31493 0.0
C1968 C 0.65724 0.50814 0.22667 0.0
C1969 C 0.63801 0.52734 0.21142 0.0
C1970 C 0.6446 0.49016 0.24942 0.0
C1971 C 0.61191 0.49139 0.25717 0.0
C1972 C 0.59188 0.50924 0.24045 0.0
C1973 C 0.60517 0.52697 0.21761 0.0
C1974 C 0.6667 0.47111 0.2664 0.0
C1975 C 0.55679 0.51065 0.24767 0.0
H1976 H 0.57296 0.41067 0.30944 0.0
H1977 H 0.59775 0.48437 0.36047 0.0
H1978 H 0.56589 0.44183 0.24135 0.0
H1979 H 0.60762 0.4354 0.24036 0.0
H1980 H 0.58055 0.40932 0.25731 0.0
H1981 H 0.60997 0.52884 0.33769 0.0
H1982 H 0.63962 0.52153 0.30949 0.0
H1983 H 0.60166 0.5341 0.29855 0.0
H1984 H 0.68258 0.50813 0.2218 0.0
H1985 H 0.59014 0.54173 0.2059 0.0
H1986 H 0.65687 0.44898 0.26755 0.0
H1987 H 0.66889 0.4786 0.2897 0.0
H1988 H 0.69086 0.47086 0.25599 0.0
H1989 H 0.54522 0.48957 0.24394 0.0
H1990 H 0.54481 0.52687 0.23377 0.0
H1991 H 0.55303 0.51569 0.2716 0.0
C1992 C 0.80805 0.35405 0.5228 0.0
C1993 C 0.80358 0.35928 0.5534 0.0
C1994 C 0.78224 0.34903 0.50399 0.0
C1995 C 0.7509 0.34992 0.51583 0.0
C1996 C 0.74628 0.35275 0.54722 0.0
C1997 C 0.77277 0.35731 0.56574 0.0
C1998 C 0.78857 0.34517 0.47098 0.0
C1999 C 0.71331 0.3532 0.56095 0.0
C2000 C 0.68981 0.38392 0.46571 0.0
C2001 C 0.67249 0.36038 0.45521 0.0
C2002 C 0.71535 0.3806 0.48514 0.0
C2003 C 0.72367 0.35298 0.49493 0.0
C2004 C 0.70651 0.32896 0.48414 0.0
C2005 C 0.68129 0.33294 0.46408 0.0
C2006 C 0.73315 0.40684 0.49557 0.0
C2007 C 0.71447 0.29913 0.49387 0.0
H2008 H 0.8319 0.35515 0.51319 0.0
H2009 H 0.76919 0.36127 0.58936 0.0
H2010 H 0.77368 0.32741 0.46239 0.0
H2011 H 0.78221 0.36482 0.45857 0.0
H2012 H 0.81396 0.34075 0.4661 0.0
H2013 H 0.71353 0.34814 0.58531 0.0
H2014 H 0.70357 0.37477 0.55786 0.0
H2015 H 0.69705 0.33787 0.54988 0.0
H2016 H 0.68298 0.40517 0.45904 0.0
H2017 H 0.6676 0.31468 0.45648 0.0
H2018 H 0.75877 0.40552 0.48956 0.0
H2019 H 0.73126 0.40818 0.52029 0.0
H2020 H 0.72393 0.42676 0.48559 0.0
H2021 H 0.7352 0.29199 0.48056 0.0
H2022 H 0.6943 0.28391 0.49032 0.0
H2023 H 0.72101 0.29826 0.51781 0.0
C2024 C 0.80593 0.54614 0.7662 0.0
C2025 C 0.82899 0.56362 0.77955 0.0
C2026 C 0.8132 0.53062 0.74047 0.0
C2027 C 0.84419 0.53284 0.72761 0.0
C2028 C 0.86717 0.55129 0.74021 0.0
C2029 C 0.8594 0.56627 0.76605 0.0
C2030 C 0.78812 0.51092 0.72781 0.0
C2031 C 0.90041 0.55445 0.72707 0.0
C2032 C 0.87412 0.46895 0.68605 0.0
C2033 C 0.86929 0.47682 0.65607 0.0
C2034 C 0.86622 0.48706 0.70943 0.0
C2035 C 0.85344 0.51395 0.70273 0.0
C2036 C 0.84952 0.52253 0.67251 0.0
C2037 C 0.85747 0.50381 0.64948 0.0
C2038 C 0.87125 0.47721 0.74133 0.0
C2039 C 0.83646 0.55126 0.66456 0.0
H2040 H 0.78234 0.54417 0.77618 0.0
H2041 H 0.87776 0.57919 0.77619 0.0
H2042 H 0.78545 0.51527 0.70353 0.0
H2043 H 0.79561 0.48854 0.73039 0.0
H2044 H 0.76461 0.51305 0.73913 0.0
H2045 H 0.91508 0.57045 0.73903 0.0
H2046 H 0.91244 0.53373 0.72813 0.0
H2047 H 0.8994 0.56091 0.70313 0.0
H2048 H 0.88407 0.44845 0.69129 0.0
H2049 H 0.85364 0.50995 0.62638 0.0
H2050 H 0.84842 0.47741 0.75411 0.0
H2051 H 0.88808 0.49199 0.75248 0.0
H2052 H 0.88082 0.4554 0.74268 0.0
H2053 H 0.81185 0.55276 0.67361 0.0
H2054 H 0.83612 0.5552 0.63999 0.0
H2055 H 0.85094 0.56837 0.67494 0.0
C2056 C 0.53862 0.18027 0.66735 0.0
C2057 C 0.54943 0.17369 0.69617 0.0
C2058 C 0.51555 0.20142 0.66268 0.0
C2059 C 0.50249 0.21618 0.68747 0.0
C2060 C 0.51204 0.20822 0.71664 0.0
C2061 C 0.53539 0.18751 0.72054 0.0
C2062 C 0.50575 0.20804 0.63104 0.0
C2063 C 0.49836 0.22232 0.7439 0.0
C2064 C 0.47044 0.29229 0.68177 0.0
C2065 C 0.43773 0.28745 0.67761 0.0
C2066 C 0.49174 0.26955 0.68434 0.0
C2067 C 0.48022 0.24082 0.68335 0.0
C2068 C 0.44703 0.23587 0.67997 0.0
C2069 C 0.42644 0.25906 0.67664 0.0
C2070 C 0.52651 0.27711 0.68823 0.0
C2071 C 0.43305 0.206 0.68014 0.0
H2072 H 0.54935 0.17001 0.64829 0.0
H2073 H 0.5434 0.18266 0.74295 0.0
H2074 H 0.48467 0.19459 0.62564 0.0
H2075 H 0.49937 0.23066 0.62796 0.0
H2076 H 0.52494 0.20308 0.6147 0.0
H2077 H 0.50469 0.21114 0.765 0.0
H2078 H 0.50761 0.24459 0.7448 0.0
H2079 H 0.47205 0.22298 0.7426 0.0
H2080 H 0.47976 0.31399 0.68221 0.0
H2081 H 0.40129 0.25488 0.67338 0.0
H2082 H 0.54227 0.25858 0.68766 0.0
H2083 H 0.52956 0.28788 0.70995 0.0
H2084 H 0.53451 0.29257 0.67044 0.0
H2085 H 0.44012 0.19529 0.65924 0.0
H2086 H 0.40665 0.20571 0.68173 0.0
H2087 H 0.44231 0.19341 0.6992 0.0
loop_
_geom_bond_atom_site_label_1
_geom_bond_atom_site_label_2
_geom_bond_distance
_geom_bond_site_symmetry_2
_ccdc_geom_bond_type
Cu0 N1 1.999 . S
Cu0 O6 1.974 . S
Cu0 N11 1.985 . S
Cu0 O20 1.959 . S
N1 Cu0 1.999 . S
N1 C3 1.263 . S
N1 C5 1.389 . S
N2 C3 1.358 . S
N2 C4 1.400 . S
C3 N1 1.263 . S
C3 N2 1.358 . S
C3 H9 0.930 . S
C4 N2 1.400 . S
C4 C5 1.351 . S
C4 H21 0.930 . S
C5 N1 1.389 . S
C5 C4 1.351 . S
C5 H10 0.930 . S
O6 Cu0 1.974 . S
O6 C16 1.282 . S
C7 O8 1.261 . S
C7 O20 1.251 . S
O8 C7 1.261 . S
H9 C3 0.930 . S
H10 C5 0.930 . S
N11 Cu0 1.985 . S
N11 C13 1.335 . S
N11 C14 1.390 . S
N12 C13 1.345 . S
N12 C15 1.336 . S
C13 N11 1.335 . S
C13 N12 1.345 . S
C13 H18 0.930 . S
C14 N11 1.390 . S
C14 C15 1.346 . S
C14 H19 0.930 . S
C15 N12 1.336 . S
C15 C14 1.346 . S
C15 H22 0.929 . S
C16 O6 1.282 . S
C16 O17 1.216 . S
O17 C16 1.216 . S
H18 C13 0.930 . S
H19 C14 0.930 . S
O20 Cu0 1.959 . S
O20 C7 1.251 . S
H21 C4 0.930 . S
H22 C15 0.929 . S
Cu23 N24 1.999 . S
Cu23 O29 1.974 . S
Cu23 N34 1.985 . S
Cu23 O43 1.959 . S
N24 Cu23 1.999 . S
N24 C26 1.263 . S
N24 C28 1.389 . S
N25 C26 1.358 . S
N25 C27 1.400 . S
C26 N24 1.263 . S
C26 N25 1.358 . S
C26 H32 0.930 . S
C27 N25 1.400 . S
C27 C28 1.351 . S
C27 H44 0.930 . S
C28 N24 1.389 . S
C28 C27 1.351 . S
C28 H33 0.930 . S
O29 Cu23 1.974 . S
O29 C39 1.282 . S
C30 O31 1.261 . S
C30 O43 1.251 . S
O31 C30 1.261 . S
H32 C26 0.930 . S
H33 C28 0.930 . S
N34 Cu23 1.985 . S
N34 C36 1.335 . S
N34 C37 1.390 . S
N35 C36 1.345 . S
N35 C38 1.336 . S
C36 N34 1.335 . S
C36 N35 1.345 . S
C36 H41 0.930 . S
C37 N34 1.390 . S
C37 C38 1.346 . S
C37 H42 0.930 . S
C38 N35 1.336 . S
C38 C37 1.346 . S
C38 H45 0.929 . S
C39 O29 1.282 . S
C39 O40 1.216 . S
O40 C39 1.216 . S
H41 C36 0.930 . S
H42 C37 0.930 . S
O43 Cu23 1.959 . S
O43 C30 1.251 . S
H44 C27 0.930 . S
H45 C38 0.929 . S
Cu46 N47 1.999 . S
Cu46 O52 1.974 . S
Cu46 N57 1.985 . S
Cu46 O66 1.959 . S
N47 Cu46 1.999 . S
N47 C49 1.263 . S
N47 C51 1.389 . S
N48 C49 1.358 . S
N48 C50 1.400 . S
C49 N47 1.263 . S
C49 N48 1.358 . S
C49 H55 0.930 . S
C50 N48 1.400 . S
C50 C51 1.351 . S
C50 H67 0.930 . S
C51 N47 1.389 . S
C51 C50 1.351 . S
C51 H56 0.930 . S
O52 Cu46 1.974 . S
O52 C62 1.282 . S
C53 O54 1.261 . S
C53 O66 1.251 . S
O54 C53 1.261 . S
H55 C49 0.930 . S
H56 C51 0.930 . S
N57 Cu46 1.985 . S
N57 C59 1.335 . S
N57 C60 1.390 . S
N58 C59 1.345 . S
N58 C61 1.336 . S
C59 N57 1.335 . S
C59 N58 1.345 . S
C59 H64 0.930 . S
C60 N57 1.390 . S
C60 C61 1.346 . S
C60 H65 0.930 . S
C61 N58 1.336 . S
C61 C60 1.346 . S
C61 H68 0.929 . S
C62 O52 1.282 . S
C62 O63 1.216 . S
O63 C62 1.216 . S
H64 C59 0.930 . S
H65 C60 0.930 . S
O66 Cu46 1.959 . S
O66 C53 1.251 . S
H67 C50 0.930 . S
H68 C61 0.929 . S
Cu69 N70 1.999 . S
Cu69 O75 1.974 . S
Cu69 N80 1.985 . S
Cu69 O89 1.959 . S
N70 Cu69 1.999 . S
N70 C72 1.263 . S
N70 C74 1.389 . S
N71 C72 1.358 . S
N71 C73 1.400 . S
C72 N70 1.263 . S
C72 N71 1.358 . S
C72 H78 0.930 . S
C73 N71 1.400 . S
C73 C74 1.351 . S
C73 H90 0.930 . S
C74 N70 1.389 . S
C74 C73 1.351 . S
C74 H79 0.930 . S
O75 Cu69 1.974 . S
O75 C85 1.282 . S
C76 O77 1.261 . S
C76 O89 1.251 . S
O77 C76 1.261 . S
H78 C72 0.930 . S
H79 C74 0.930 . S
N80 Cu69 1.985 . S
N80 C82 1.335 . S
N80 C83 1.390 . S
N81 C82 1.345 . S
N81 C84 1.336 . S
C82 N80 1.335 . S
C82 N81 1.345 . S
C82 H87 0.930 . S
C83 N80 1.390 . S
C83 C84 1.346 . S
C83 H88 0.930 . S
C84 N81 1.336 . S
C84 C83 1.346 . S
C84 H91 0.929 . S
C85 O75 1.282 . S
C85 O86 1.216 . S
O86 C85 1.216 . S
H87 C82 0.930 . S
H88 C83 0.930 . S
O89 Cu69 1.959 . S
O89 C76 1.251 . S
H90 C73 0.930 . S
H91 C84 0.929 . S
Cu92 N93 1.999 . S
Cu92 O98 1.974 . S
Cu92 N103 1.985 . S
Cu92 O112 1.959 . S
N93 Cu92 1.999 . S
N93 C95 1.263 . S
N93 C97 1.389 . S
N94 C95 1.358 . S
N94 C96 1.400 . S
C95 N93 1.263 . S
C95 N94 1.358 . S
C95 H101 0.930 . S
C96 N94 1.400 . S
C96 C97 1.351 . S
C96 H113 0.930 . S
C97 N93 1.389 . S
C97 C96 1.351 . S
C97 H102 0.930 . S
O98 Cu92 1.974 . S
O98 C108 1.282 . S
C99 O100 1.261 . S
C99 O112 1.251 . S
O100 C99 1.261 . S
H101 C95 0.930 . S
H102 C97 0.930 . S
N103 Cu92 1.985 . S
N103 C105 1.335 . S
N103 C106 1.390 . S
N104 C105 1.345 . S
N104 C107 1.336 . S
C105 N103 1.335 . S
C105 N104 1.345 . S
C105 H110 0.930 . S
C106 N103 1.390 . S
C106 C107 1.346 . S
C106 H111 0.930 . S
C107 N104 1.336 . S
C107 C106 1.346 . S
C107 H114 0.929 1_455 S
C108 O98 1.282 . S
C108 O109 1.216 . S
O109 C108 1.216 . S
H110 C105 0.930 . S
H111 C106 0.930 . S
O112 Cu92 1.959 . S
O112 C99 1.251 . S
H113 C96 0.930 . S
H114 C107 0.929 1_655 S
Cu115 N116 1.999 . S
Cu115 O121 1.974 . S
Cu115 N126 1.985 . S
Cu115 O135 1.959 . S
N116 Cu115 1.999 . S
N116 C118 1.263 . S
N116 C120 1.389 . S
N117 C118 1.358 . S
N117 C119 1.400 . S
C118 N116 1.263 . S
C118 N117 1.358 . S
C118 H124 0.930 . S
C119 N117 1.400 . S
C119 C120 1.351 . S
C119 H136 0.930 . S
C120 N116 1.389 . S
C120 C119 1.351 . S
C120 H125 0.930 . S
O121 Cu115 1.974 . S
O121 C131 1.282 . S
C122 O123 1.261 . S
C122 O135 1.251 . S
O123 C122 1.261 . S
H124 C118 0.930 . S
H125 C120 0.930 . S
N126 Cu115 1.985 . S
N126 C128 1.335 . S
N126 C129 1.390 . S
N127 C128 1.345 . S
N127 C130 1.336 . S
C128 N126 1.335 . S
C128 N127 1.345 . S
C128 H133 0.930 . S
C129 N126 1.390 . S
C129 C130 1.346 . S
C129 H134 0.930 . S
C130 N127 1.336 . S
C130 C129 1.346 . S
C130 H137 0.929 . S
C131 O121 1.282 . S
C131 O132 1.216 . S
O132 C131 1.216 . S
H133 C128 0.930 . S
H134 C129 0.930 . S
O135 Cu115 1.959 . S
O135 C122 1.251 . S
H136 C119 0.930 . S
H137 C130 0.929 . S
Cu138 N139 1.999 . S
Cu138 O144 1.974 . S
Cu138 N149 1.985 . S
Cu138 O158 1.959 . S
N139 Cu138 1.999 . S
N139 C141 1.263 . S
N139 C143 1.389 . S
N140 C141 1.358 . S
N140 C142 1.400 . S
C141 N139 1.263 . S
C141 N140 1.358 . S
C141 H147 0.930 . S
C142 N140 1.400 . S
C142 C143 1.351 . S
C142 H159 0.930 . S
C143 N139 1.389 . S
C143 C142 1.351 . S
C143 H148 0.930 . S
O144 Cu138 1.974 . S
O144 C154 1.282 . S
C145 O146 1.261 . S
C145 O158 1.251 . S
O146 C145 1.261 . S
H147 C141 0.930 . S
H148 C143 0.930 . S
N149 Cu138 1.985 . S
N149 C151 1.335 . S
N149 C152 1.390 . S
N150 C151 1.345 . S
N150 C153 1.336 . S
C151 N149 1.335 . S
C151 N150 1.345 . S
C151 H156 0.930 . S
C152 N149 1.390 . S
C152 C153 1.346 . S
C152 H157 0.930 . S
C153 N150 1.336 . S
C153 C152 1.346 . S
C153 H160 0.929 . S
C154 O144 1.282 . S
C154 O155 1.216 . S
O155 C154 1.216 . S
H156 C151 0.930 . S
H157 C152 0.930 . S
O158 Cu138 1.959 . S
O158 C145 1.251 . S
H159 C142 0.930 . S
H160 C153 0.929 . S
Cu161 N162 1.999 . S
Cu161 O167 1.974 . S
Cu161 N172 1.985 . S
Cu161 O181 1.959 . S
N162 Cu161 1.999 . S
N162 C164 1.263 . S
N162 C166 1.389 . S
N163 C164 1.358 . S
N163 C165 1.400 . S
C164 N162 1.263 . S
C164 N163 1.358 . S
C164 H170 0.930 . S
C165 N163 1.400 . S
C165 C166 1.351 . S
C165 H182 0.930 . S
C166 N162 1.389 . S
C166 C165 1.351 . S
C166 H171 0.930 . S
O167 Cu161 1.974 . S
O167 C177 1.282 . S
C168 O169 1.261 . S
C168 O181 1.251 . S
O169 C168 1.261 . S
H170 C164 0.930 . S
H171 C166 0.930 . S
N172 Cu161 1.985 . S
N172 C174 1.335 . S
N172 C175 1.390 . S
N173 C174 1.345 . S
N173 C176 1.336 . S
C174 N172 1.335 . S
C174 N173 1.345 . S
C174 H179 0.930 . S
C175 N172 1.390 . S
C175 C176 1.346 . S
C175 H180 0.930 . S
C176 N173 1.336 . S
C176 C175 1.346 . S
C176 H183 0.929 . S
C177 O167 1.282 . S
C177 O178 1.216 . S
O178 C177 1.216 . S
H179 C174 0.930 . S
H180 C175 0.930 . S
O181 Cu161 1.959 . S
O181 C168 1.251 . S
H182 C165 0.930 . S
H183 C176 0.929 . S
Cu184 N185 1.999 . S
Cu184 O190 1.974 . S
Cu184 N195 1.985 . S
Cu184 O204 1.959 . S
N185 Cu184 1.999 . S
N185 C187 1.263 . S
N185 C189 1.389 . S
N186 C187 1.358 . S
N186 C188 1.400 . S
C187 N185 1.263 . S
C187 N186 1.358 . S
C187 H193 0.930 . S
C188 N186 1.400 . S
C188 C189 1.351 . S
C188 H205 0.930 . S
C189 N185 1.389 . S
C189 C188 1.351 . S
C189 H194 0.930 . S
O190 Cu184 1.974 . S
O190 C200 1.282 . S
C191 O192 1.261 . S
C191 O204 1.251 . S
O192 C191 1.261 . S
H193 C187 0.930 . S
H194 C189 0.930 . S
N195 Cu184 1.985 . S
N195 C197 1.335 . S
N195 C198 1.390 . S
N196 C197 1.345 . S
N196 C199 1.336 . S
C197 N195 1.335 . S
C197 N196 1.345 . S
C197 H202 0.930 . S
C198 N195 1.390 . S
C198 C199 1.346 . S
C198 H203 0.930 . S
C199 N196 1.336 . S
C199 C198 1.346 . S
C199 H206 0.929 . S
C200 O190 1.282 . S
C200 O201 1.216 . S
O201 C200 1.216 . S
H202 C197 0.930 . S
H203 C198 0.930 . S
O204 Cu184 1.959 . S
O204 C191 1.251 . S
H205 C188 0.930 . S
H206 C199 0.929 . S
Cu207 N208 1.999 . S
Cu207 O213 1.974 . S
Cu207 N218 1.985 . S
Cu207 O227 1.959 . S
N208 Cu207 1.999 . S
N208 C210 1.263 . S
N208 C212 1.389 . S
N209 C210 1.358 . S
N209 C211 1.400 . S
C210 N208 1.263 . S
C210 N209 1.358 . S
C210 H216 0.930 . S
C211 N209 1.400 . S
C211 C212 1.351 . S
C211 H228 0.930 . S
C212 N208 1.389 . S
C212 C211 1.351 . S
C212 H217 0.930 . S
O213 Cu207 1.974 . S
O213 C223 1.282 . S
C214 O215 1.261 . S
C214 O227 1.251 . S
O215 C214 1.261 . S
H216 C210 0.930 . S
H217 C212 0.930 . S
N218 Cu207 1.985 . S
N218 C220 1.335 . S
N218 C221 1.390 . S
N219 C220 1.345 . S
N219 C222 1.336 . S
C220 N218 1.335 . S
C220 N219 1.345 . S
C220 H225 0.930 . S
C221 N218 1.390 . S
C221 C222 1.346 . S
C221 H226 0.930 . S
C222 N219 1.336 . S
C222 C221 1.346 . S
C222 H229 0.929 . S
C223 O213 1.282 . S
C223 O224 1.216 . S
O224 C223 1.216 . S
H225 C220 0.930 . S
H226 C221 0.930 . S
O227 Cu207 1.959 . S
O227 C214 1.251 . S
H228 C211 0.930 . S
H229 C222 0.929 . S
Cu230 N231 1.999 . S
Cu230 O236 1.974 . S
Cu230 N241 1.985 . S
Cu230 O250 1.959 . S
N231 Cu230 1.999 . S
N231 C233 1.263 . S
N231 C235 1.389 . S
N232 C233 1.358 . S
N232 C234 1.400 . S
C233 N231 1.263 . S
C233 N232 1.358 . S
C233 H239 0.930 . S
C234 N232 1.400 . S
C234 C235 1.351 . S
C234 H251 0.930 . S
C235 N231 1.389 . S
C235 C234 1.351 . S
C235 H240 0.930 . S
O236 Cu230 1.974 . S
O236 C246 1.282 . S
C237 O238 1.261 . S
C237 O250 1.251 . S
O238 C237 1.261 . S
H239 C233 0.930 . S
H240 C235 0.930 . S
N241 Cu230 1.985 . S
N241 C243 1.335 . S
N241 C244 1.390 . S
N242 C243 1.345 . S
N242 C245 1.336 . S
C243 N241 1.335 . S
C243 N242 1.345 . S
C243 H248 0.930 . S
C244 N241 1.390 . S
C244 C245 1.346 . S
C244 H249 0.930 . S
C245 N242 1.336 . S
C245 C244 1.346 . S
C245 H252 0.929 . S
C246 O236 1.282 . S
C246 O247 1.216 . S
O247 C246 1.216 . S
H248 C243 0.930 . S
H249 C244 0.930 . S
O250 Cu230 1.959 . S
O250 C237 1.251 . S
H251 C234 0.930 . S
H252 C245 0.929 . S
Cu253 N254 1.999 . S
Cu253 O259 1.974 . S
Cu253 N264 1.985 . S
Cu253 O273 1.959 . S
N254 Cu253 1.999 . S
N254 C256 1.263 . S
N254 C258 1.389 . S
N255 C256 1.358 . S
N255 C257 1.400 . S
C256 N254 1.263 . S
C256 N255 1.358 . S
C256 H262 0.930 . S
C257 N255 1.400 . S
C257 C258 1.351 . S
C257 H274 0.930 . S
C258 N254 1.389 . S
C258 C257 1.351 . S
C258 H263 0.930 . S
O259 Cu253 1.974 . S
O259 C269 1.282 . S
C260 O261 1.261 . S
C260 O273 1.251 . S
O261 C260 1.261 . S
H262 C256 0.930 . S
H263 C258 0.930 . S
N264 Cu253 1.985 . S
N264 C266 1.335 . S
N264 C267 1.390 . S
N265 C266 1.345 . S
N265 C268 1.336 . S
C266 N264 1.335 . S
C266 N265 1.345 . S
C266 H271 0.930 . S
C267 N264 1.390 . S
C267 C268 1.346 . S
C267 H272 0.930 . S
C268 N265 1.336 . S
C268 C267 1.346 . S
C268 H275 0.929 . S
C269 O259 1.282 . S
C269 O270 1.216 . S
O270 C269 1.216 . S
H271 C266 0.930 . S
H272 C267 0.930 . S
O273 Cu253 1.959 . S
O273 C260 1.251 . S
H274 C257 0.930 . S
H275 C268 0.929 . S
Cu276 N277 1.999 . S
Cu276 O282 1.974 . S
Cu276 N287 1.985 . S
Cu276 O296 1.959 . S
N277 Cu276 1.999 . S
N277 C279 1.263 . S
N277 C281 1.389 . S
N278 C279 1.358 . S
N278 C280 1.400 . S
C279 N277 1.263 . S
C279 N278 1.358 . S
C279 H285 0.930 . S
C280 N278 1.400 . S
C280 C281 1.351 . S
C280 H297 0.930 . S
C281 N277 1.389 . S
C281 C280 1.351 . S
C281 H286 0.930 . S
O282 Cu276 1.974 . S
O282 C292 1.282 . S
C283 O284 1.261 . S
C283 O296 1.251 . S
O284 C283 1.261 . S
H285 C279 0.930 . S
H286 C281 0.930 . S
N287 Cu276 1.985 . S
N287 C289 1.335 . S
N287 C290 1.390 . S
N288 C289 1.345 . S
N288 C291 1.336 . S
C289 N287 1.335 . S
C289 N288 1.345 . S
C289 H294 0.930 . S
C290 N287 1.390 . S
C290 C291 1.346 . S
C290 H295 0.930 . S
C291 N288 1.336 . S
C291 C290 1.346 . S
C291 H298 0.929 . S
C292 O282 1.282 . S
C292 O293 1.216 . S
O293 C292 1.216 . S
H294 C289 0.930 . S
H295 C290 0.930 . S
O296 Cu276 1.959 . S
O296 C283 1.251 . S
H297 C280 0.930 . S
H298 C291 0.929 . S
Cu299 N300 1.999 . S
Cu299 O305 1.974 . S
Cu299 N310 1.985 . S
Cu299 O319 1.959 . S
N300 Cu299 1.999 . S
N300 C302 1.263 . S
N300 C304 1.389 . S
N301 C302 1.358 . S
N301 C303 1.400 . S
C302 N300 1.263 . S
C302 N301 1.358 . S
C302 H308 0.930 . S
C303 N301 1.400 . S
C303 C304 1.351 . S
C303 H320 0.930 . S
C304 N300 1.389 . S
C304 C303 1.351 . S
C304 H309 0.930 . S
O305 Cu299 1.974 . S
O305 C315 1.282 . S
C306 O307 1.261 . S
C306 O319 1.251 . S
O307 C306 1.261 . S
H308 C302 0.930 . S
H309 C304 0.930 . S
N310 Cu299 1.985 . S
N310 C312 1.335 . S
N310 C313 1.390 . S
N311 C312 1.345 . S
N311 C314 1.336 . S
C312 N310 1.335 . S
C312 N311 1.345 . S
C312 H317 0.930 . S
C313 N310 1.390 . S
C313 C314 1.346 . S
C313 H318 0.930 . S
C314 N311 1.336 . S
C314 C313 1.346 . S
C314 H321 0.929 . S
C315 O305 1.282 . S
C315 O316 1.216 . S
O316 C315 1.216 . S
H317 C312 0.930 . S
H318 C313 0.930 . S
O319 Cu299 1.959 . S
O319 C306 1.251 . S
H320 C303 0.930 . S
H321 C314 0.929 . S
Cu322 N323 1.999 . S
Cu322 O328 1.974 . S
Cu322 N333 1.985 . S
Cu322 O342 1.959 . S
N323 Cu322 1.999 . S
N323 C325 1.263 . S
N323 C327 1.389 . S
N324 C325 1.358 . S
N324 C326 1.400 . S
C325 N323 1.263 . S
C325 N324 1.358 . S
C325 H331 0.930 . S
C326 N324 1.400 . S
C326 C327 1.351 . S
C326 H343 0.930 . S
C327 N323 1.389 . S
C327 C326 1.351 . S
C327 H332 0.930 . S
O328 Cu322 1.974 . S
O328 C338 1.282 . S
C329 O330 1.261 . S
C329 O342 1.251 . S
O330 C329 1.261 . S
H331 C325 0.930 . S
H332 C327 0.930 . S
N333 Cu322 1.985 . S
N333 C335 1.335 . S
N333 C336 1.390 . S
N334 C335 1.345 . S
N334 C337 1.336 . S
C335 N333 1.335 . S
C335 N334 1.345 . S
C335 H340 0.930 . S
C336 N333 1.390 . S
C336 C337 1.346 . S
C336 H341 0.930 . S
C337 N334 1.336 . S
C337 C336 1.346 . S
C337 H344 0.929 . S
C338 O328 1.282 . S
C338 O339 1.216 . S
O339 C338 1.216 . S
H340 C335 0.930 . S
H341 C336 0.930 . S
O342 Cu322 1.959 . S
O342 C329 1.251 . S
H343 C326 0.930 . S
H344 C337 0.929 . S
Cu345 N346 1.999 . S
Cu345 O351 1.974 . S
Cu345 N356 1.985 . S
Cu345 O365 1.959 . S
N346 Cu345 1.999 . S
N346 C348 1.263 . S
N346 C350 1.389 . S
N347 C348 1.358 . S
N347 C349 1.400 . S
C348 N346 1.263 . S
C348 N347 1.358 . S
C348 H354 0.930 . S
C349 N347 1.400 . S
C349 C350 1.351 . S
C349 H366 0.930 . S
C350 N346 1.389 . S
C350 C349 1.351 . S
C350 H355 0.930 . S
O351 Cu345 1.974 . S
O351 C361 1.282 . S
C352 O353 1.261 . S
C352 O365 1.251 . S
O353 C352 1.261 . S
H354 C348 0.930 . S
H355 C350 0.930 . S
N356 Cu345 1.985 . S
N356 C358 1.335 . S
N356 C359 1.390 . S
N357 C358 1.345 . S
N357 C360 1.336 . S
C358 N356 1.335 . S
C358 N357 1.345 . S
C358 H363 0.930 . S
C359 N356 1.390 . S
C359 C360 1.346 . S
C359 H364 0.930 . S
C360 N357 1.336 . S
C360 C359 1.346 . S
C360 H367 0.929 . S
C361 O351 1.282 . S
C361 O362 1.216 . S
O362 C361 1.216 . S
H363 C358 0.930 . S
H364 C359 0.930 . S
O365 Cu345 1.959 . S
O365 C352 1.251 . S
H366 C349 0.930 . S
H367 C360 0.929 . S
Cu368 N369 1.999 . S
Cu368 O374 1.974 . S
Cu368 N379 1.985 . S
Cu368 O388 1.959 . S
N369 Cu368 1.999 . S
N369 C371 1.263 . S
N369 C373 1.389 . S
N370 C371 1.358 . S
N370 C372 1.400 . S
C371 N369 1.263 . S
C371 N370 1.358 . S
C371 H377 0.930 . S
C372 N370 1.400 . S
C372 C373 1.351 . S
C372 H389 0.930 . S
C373 N369 1.389 . S
C373 C372 1.351 . S
C373 H378 0.930 . S
O374 Cu368 1.974 . S
O374 C384 1.282 . S
C375 O376 1.261 . S
C375 O388 1.251 . S
O376 C375 1.261 . S
H377 C371 0.930 . S
H378 C373 0.930 . S
N379 Cu368 1.985 . S
N379 C381 1.335 . S
N379 C382 1.390 . S
N380 C381 1.345 . S
N380 C383 1.336 . S
C381 N379 1.335 . S
C381 N380 1.345 . S
C381 H386 0.930 . S
C382 N379 1.390 . S
C382 C383 1.346 . S
C382 H387 0.930 . S
C383 N380 1.336 . S
C383 C382 1.346 . S
C383 H390 0.929 . S
C384 O374 1.282 . S
C384 O385 1.216 . S
O385 C384 1.216 . S
H386 C381 0.930 . S
H387 C382 0.930 . S
O388 Cu368 1.959 . S
O388 C375 1.251 . S
H389 C372 0.930 . S
H390 C383 0.929 . S
Cu391 N392 1.999 . S
Cu391 O397 1.974 . S
Cu391 N402 1.985 . S
Cu391 O411 1.959 . S
N392 Cu391 1.999 . S
N392 C394 1.263 . S
N392 C396 1.389 . S
N393 C394 1.358 . S
N393 C395 1.400 . S
C394 N392 1.263 . S
C394 N393 1.358 . S
C394 H400 0.930 . S
C395 N393 1.400 . S
C395 C396 1.351 . S
C395 H412 0.930 . S
C396 N392 1.389 . S
C396 C395 1.351 . S
C396 H401 0.930 . S
O397 Cu391 1.974 . S
O397 C407 1.282 . S
C398 O399 1.261 . S
C398 O411 1.251 . S
O399 C398 1.261 . S
H400 C394 0.930 . S
H401 C396 0.930 . S
N402 Cu391 1.985 . S
N402 C404 1.335 . S
N402 C405 1.390 . S
N403 C404 1.345 . S
N403 C406 1.336 . S
C404 N402 1.335 . S
C404 N403 1.345 . S
C404 H409 0.930 . S
C405 N402 1.390 . S
C405 C406 1.346 . S
C405 H410 0.930 . S
C406 N403 1.336 . S
C406 C405 1.346 . S
C406 H413 0.929 . S
C407 O397 1.282 . S
C407 O408 1.216 . S
O408 C407 1.216 . S
H409 C404 0.930 . S
H410 C405 0.930 . S
O411 Cu391 1.959 . S
O411 C398 1.251 . S
H412 C395 0.930 . S
H413 C406 0.929 . S
Cu414 N415 1.999 . S
Cu414 O420 1.974 . S
Cu414 N425 1.985 . S
Cu414 O434 1.959 . S
N415 Cu414 1.999 . S
N415 C417 1.263 . S
N415 C419 1.389 . S
N416 C417 1.358 . S
N416 C418 1.400 . S
C417 N415 1.263 . S
C417 N416 1.358 . S
C417 H423 0.930 . S
C418 N416 1.400 . S
C418 C419 1.351 . S
C418 H435 0.930 . S
C419 N415 1.389 . S
C419 C418 1.351 . S
C419 H424 0.930 . S
O420 Cu414 1.974 . S
O420 C430 1.282 . S
C421 O422 1.261 . S
C421 O434 1.251 . S
O422 C421 1.261 . S
H423 C417 0.930 . S
H424 C419 0.930 . S
N425 Cu414 1.985 . S
N425 C427 1.335 . S
N425 C428 1.390 . S
N426 C427 1.345 . S
N426 C429 1.336 . S
C427 N425 1.335 . S
C427 N426 1.345 . S
C427 H432 0.930 . S
C428 N425 1.390 . S
C428 C429 1.346 . S
C428 H433 0.930 . S
C429 N426 1.336 . S
C429 C428 1.346 . S
C429 H436 0.929 . S
C430 O420 1.282 . S
C430 O431 1.216 . S
O431 C430 1.216 . S
H432 C427 0.930 . S
H433 C428 0.930 . S
O434 Cu414 1.959 . S
O434 C421 1.251 . S
H435 C418 0.930 . S
H436 C429 0.929 . S
Cu437 N438 1.999 . S
Cu437 O443 1.974 . S
Cu437 N448 1.985 . S
Cu437 O457 1.959 . S
N438 Cu437 1.999 . S
N438 C440 1.263 . S
N438 C442 1.389 . S
N439 C440 1.358 . S
N439 C441 1.400 . S
C440 N438 1.263 . S
C440 N439 1.358 . S
C440 H446 0.930 . S
C441 N439 1.400 . S
C441 C442 1.351 . S
C441 H458 0.930 . S
C442 N438 1.389 . S
C442 C441 1.351 . S
C442 H447 0.930 . S
O443 Cu437 1.974 . S
O443 C453 1.282 . S
C444 O445 1.261 . S
C444 O457 1.251 . S
O445 C444 1.261 . S
H446 C440 0.930 . S
H447 C442 0.930 . S
N448 Cu437 1.985 . S
N448 C450 1.335 . S
N448 C451 1.390 . S
N449 C450 1.345 . S
N449 C452 1.336 . S
C450 N448 1.335 . S
C450 N449 1.345 . S
C450 H455 0.930 . S
C451 N448 1.390 . S
C451 C452 1.346 . S
C451 H456 0.930 . S
C452 N449 1.336 . S
C452 C451 1.346 . S
C452 H459 0.929 . S
C453 O443 1.282 . S
C453 O454 1.216 . S
O454 C453 1.216 . S
H455 C450 0.930 . S
H456 C451 0.930 . S
O457 Cu437 1.959 . S
O457 C444 1.251 . S
H458 C441 0.930 . S
H459 C452 0.929 . S
Cu460 N461 1.999 . S
Cu460 O466 1.974 . S
Cu460 N471 1.985 . S
Cu460 O480 1.959 . S
N461 Cu460 1.999 . S
N461 C463 1.263 . S
N461 C465 1.389 . S
N462 C463 1.358 . S
N462 C464 1.400 . S
C463 N461 1.263 . S
C463 N462 1.358 . S
C463 H469 0.930 . S
C464 N462 1.400 . S
C464 C465 1.351 . S
C464 H481 0.930 . S
C465 N461 1.389 . S
C465 C464 1.351 . S
C465 H470 0.930 . S
O466 Cu460 1.974 . S
O466 C476 1.282 . S
C467 O468 1.261 . S
C467 O480 1.251 . S
O468 C467 1.261 . S
H469 C463 0.930 . S
H470 C465 0.930 . S
N471 Cu460 1.985 . S
N471 C473 1.335 . S
N471 C474 1.390 . S
N472 C473 1.345 . S
N472 C475 1.336 . S
C473 N471 1.335 . S
C473 N472 1.345 . S
C473 H478 0.930 . S
C474 N471 1.390 . S
C474 C475 1.346 . S
C474 H479 0.930 . S
C475 N472 1.336 . S
C475 C474 1.346 . S
C475 H482 0.929 . S
C476 O466 1.282 . S
C476 O477 1.216 . S
O477 C476 1.216 . S
H478 C473 0.930 . S
H479 C474 0.930 . S
O480 Cu460 1.959 . S
O480 C467 1.251 . S
H481 C464 0.930 . S
H482 C475 0.929 . S
Cu483 N484 1.999 . S
Cu483 O489 1.974 . S
Cu483 N494 1.985 . S
Cu483 O503 1.959 . S
N484 Cu483 1.999 . S
N484 C486 1.263 . S
N484 C488 1.389 . S
N485 C486 1.358 . S
N485 C487 1.400 . S
C486 N484 1.263 . S
C486 N485 1.358 . S
C486 H492 0.930 . S
C487 N485 1.400 . S
C487 C488 1.351 . S
C487 H504 0.930 . S
C488 N484 1.389 . S
C488 C487 1.351 . S
C488 H493 0.930 . S
O489 Cu483 1.974 . S
O489 C499 1.282 . S
C490 O491 1.261 . S
C490 O503 1.251 . S
O491 C490 1.261 . S
H492 C486 0.930 . S
H493 C488 0.930 . S
N494 Cu483 1.985 . S
N494 C496 1.335 . S
N494 C497 1.390 . S
N495 C496 1.345 . S
N495 C498 1.336 . S
C496 N494 1.335 . S
C496 N495 1.345 . S
C496 H501 0.930 . S
C497 N494 1.390 . S
C497 C498 1.346 . S
C497 H502 0.930 . S
C498 N495 1.336 . S
C498 C497 1.346 . S
C498 H505 0.929 . S
C499 O489 1.282 . S
C499 O500 1.216 . S
O500 C499 1.216 . S
H501 C496 0.930 . S
H502 C497 0.930 . S
O503 Cu483 1.959 . S
O503 C490 1.251 . S
H504 C487 0.930 . S
H505 C498 0.929 . S
Cu506 N507 1.999 . S
Cu506 O512 1.974 . S
Cu506 N517 1.985 . S
Cu506 O526 1.959 . S
N507 Cu506 1.999 . S
N507 C509 1.263 . S
N507 C511 1.389 . S
N508 C509 1.358 . S
N508 C510 1.400 . S
C509 N507 1.263 . S
C509 N508 1.358 . S
C509 H515 0.930 . S
C510 N508 1.400 . S
C510 C511 1.351 . S
C510 H527 0.930 . S
C511 N507 1.389 . S
C511 C510 1.351 . S
C511 H516 0.930 . S
O512 Cu506 1.974 . S
O512 C522 1.282 . S
C513 O514 1.261 . S
C513 O526 1.251 . S
O514 C513 1.261 . S
H515 C509 0.930 . S
H516 C511 0.930 . S
N517 Cu506 1.985 . S
N517 C519 1.335 . S
N517 C520 1.390 . S
N518 C519 1.345 . S
N518 C521 1.336 . S
C519 N517 1.335 . S
C519 N518 1.345 . S
C519 H524 0.930 . S
C520 N517 1.390 . S
C520 C521 1.346 . S
C520 H525 0.930 . S
C521 N518 1.336 . S
C521 C520 1.346 . S
C521 H528 0.929 . S
C522 O512 1.282 . S
C522 O523 1.216 . S
O523 C522 1.216 . S
H524 C519 0.930 . S
H525 C520 0.930 . S
O526 Cu506 1.959 . S
O526 C513 1.251 . S
H527 C510 0.930 . S
H528 C521 0.929 . S
Cu529 N530 1.999 . S
Cu529 O535 1.974 . S
Cu529 N540 1.985 . S
Cu529 O549 1.959 . S
N530 Cu529 1.999 . S
N530 C532 1.263 . S
N530 C534 1.389 . S
N531 C532 1.358 . S
N531 C533 1.400 . S
C532 N530 1.263 . S
C532 N531 1.358 . S
C532 H538 0.930 . S
C533 N531 1.400 . S
C533 C534 1.351 . S
C533 H550 0.930 . S
C534 N530 1.389 . S
C534 C533 1.351 . S
C534 H539 0.930 . S
O535 Cu529 1.974 . S
O535 C545 1.282 . S
C536 O537 1.261 . S
C536 O549 1.251 . S
O537 C536 1.261 . S
H538 C532 0.930 . S
H539 C534 0.930 . S
N540 Cu529 1.985 . S
N540 C542 1.335 . S
N540 C543 1.390 . S
N541 C542 1.345 . S
N541 C544 1.336 . S
C542 N540 1.335 . S
C542 N541 1.345 . S
C542 H547 0.930 . S
C543 N540 1.390 . S
C543 C544 1.346 . S
C543 H548 0.930 . S
C544 N541 1.336 . S
C544 C543 1.346 . S
C544 H551 0.929 . S
C545 O535 1.282 . S
C545 O546 1.216 . S
O546 C545 1.216 . S
H547 C542 0.930 . S
H548 C543 0.930 . S
O549 Cu529 1.959 . S
O549 C536 1.251 . S
H550 C533 0.930 . S
H551 C544 0.929 . S
C552 C553 1.391 . S
C552 C554 1.394 . S
C552 H568 0.931 . S
C553 C552 1.391 . S
C553 C557 1.376 . S
C554 C552 1.394 . S
C554 C555 1.369 . S
C554 C558 1.531 . S
C555 C554 1.369 . S
C555 C556 1.410 . S
C555 C563 1.503 . S
C556 C555 1.410 . S
C556 C557 1.392 . S
C556 C559 1.511 . S
C557 C553 1.376 . S
C557 C556 1.392 . S
C557 H569 0.929 . S
C558 C554 1.531 . S
C558 H570 0.960 . S
C558 H571 0.962 . S
C558 H572 0.960 . S
C559 C556 1.511 . S
C559 H573 0.961 . S
C559 H574 0.961 . S
C559 H575 0.961 . S
C560 C561 1.370 . S
C560 C562 1.363 . S
C560 H576 0.931 . S
C561 C560 1.370 . S
C561 C565 1.408 . S
C562 C560 1.363 . S
C562 C563 1.370 . S
C562 C566 1.524 . S
C563 C555 1.503 . S
C563 C562 1.370 . S
C563 C564 1.403 . S
C564 C563 1.403 . S
C564 C565 1.404 . S
C564 C567 1.539 . S
C565 C561 1.408 . S
C565 C564 1.404 . S
C565 H577 0.930 . S
C566 C562 1.524 . S
C566 H578 0.956 . S
C566 H579 0.961 . S
C566 H580 0.961 . S
C567 C564 1.539 . S
C567 H581 0.958 . S
C567 H582 0.961 . S
C567 H583 0.960 . S
H568 C552 0.931 . S
H569 C557 0.929 . S
H570 C558 0.960 . S
H571 C558 0.962 . S
H572 C558 0.960 . S
H573 C559 0.961 . S
H574 C559 0.961 . S
H575 C559 0.961 . S
H576 C560 0.931 . S
H577 C565 0.930 . S
H578 C566 0.956 . S
H579 C566 0.961 . S
H580 C566 0.961 . S
H581 C567 0.958 . S
H582 C567 0.961 . S
H583 C567 0.960 . S
C584 C585 1.391 . S
C584 C586 1.394 1_655 S
C584 H600 0.931 1_655 S
C585 C584 1.391 . S
C585 C589 1.376 . S
C586 C584 1.394 1_455 S
C586 C587 1.369 . S
C586 C590 1.531 . S
C587 C586 1.369 . S
C587 C588 1.410 1_455 S
C587 C595 1.503 . S
C588 C587 1.410 1_655 S
C588 C589 1.392 . S
C588 C591 1.511 . S
C589 C585 1.376 . S
C589 C588 1.392 . S
C589 H601 0.929 . S
C590 C586 1.531 . S
C590 H602 0.960 . S
C590 H603 0.962 . S
C590 H604 0.960 . S
C591 C588 1.511 . S
C591 H605 0.961 . S
C591 H606 0.961 . S
C591 H607 0.961 . S
C592 C593 1.370 . S
C592 C594 1.363 . S
C592 H608 0.931 . S
C593 C592 1.370 . S
C593 C597 1.408 . S
C594 C592 1.363 . S
C594 C595 1.370 . S
C594 C598 1.524 . S
C595 C587 1.503 . S
C595 C594 1.370 . S
C595 C596 1.403 . S
C596 C595 1.403 . S
C596 C597 1.404 . S
C596 C599 1.539 . S
C597 C593 1.408 . S
C597 C596 1.404 . S
C597 H609 0.930 . S
C598 C594 1.524 . S
C598 H610 0.956 . S
C598 H611 0.961 . S
C598 H612 0.961 . S
C599 C596 1.539 . S
C599 H613 0.958 . S
C599 H614 0.961 . S
C599 H615 0.960 . S
H600 C584 0.931 1_455 S
H601 C589 0.929 . S
H602 C590 0.960 . S
H603 C590 0.962 . S
H604 C590 0.960 . S
H605 C591 0.961 . S
H606 C591 0.961 . S
H607 C591 0.961 . S
H608 C592 0.931 . S
H609 C597 0.930 . S
H610 C598 0.956 . S
H611 C598 0.961 . S
H612 C598 0.961 . S
H613 C599 0.958 . S
H614 C599 0.961 . S
H615 C599 0.960 . S
C616 C617 1.391 . S
C616 C618 1.394 . S
C616 H632 0.931 . S
C617 C616 1.391 . S
C617 C621 1.376 . S
C618 C616 1.394 . S
C618 C619 1.369 . S
C618 C622 1.531 1_554 S
C619 C618 1.369 . S
C619 C620 1.410 . S
C619 C627 1.503 . S
C620 C619 1.410 . S
C620 C621 1.392 . S
C620 C623 1.511 . S
C621 C617 1.376 . S
C621 C620 1.392 . S
C621 H633 0.929 . S
C622 C618 1.531 1_556 S
C622 H634 0.960 . S
C622 H635 0.962 . S
C622 H636 0.960 . S
C623 C620 1.511 . S
C623 H637 0.961 . S
C623 H638 0.961 . S
C623 H639 0.961 . S
C624 C625 1.370 . S
C624 C626 1.363 1_556 S
C624 H640 0.931 . S
C625 C624 1.370 . S
C625 C629 1.408 . S
C626 C624 1.363 1_554 S
C626 C627 1.370 . S
C626 C630 1.524 . S
C627 C619 1.503 . S
C627 C626 1.370 . S
C627 C628 1.403 1_554 S
C628 C627 1.403 1_556 S
C628 C629 1.404 . S
C628 C631 1.539 . S
C629 C625 1.408 . S
C629 C628 1.404 . S
C629 H641 0.930 . S
C630 C626 1.524 . S
C630 H642 0.956 . S
C630 H643 0.961 . S
C630 H644 0.961 . S
C631 C628 1.539 . S
C631 H645 0.958 . S
C631 H646 0.961 . S
C631 H647 0.960 1_556 S
H632 C616 0.931 . S
H633 C621 0.929 . S
H634 C622 0.960 . S
H635 C622 0.962 . S
H636 C622 0.960 . S
H637 C623 0.961 . S
H638 C623 0.961 . S
H639 C623 0.961 . S
H640 C624 0.931 . S
H641 C629 0.930 . S
H642 C630 0.956 . S
H643 C630 0.961 . S
H644 C630 0.961 . S
H645 C631 0.958 . S
H646 C631 0.961 . S
H647 C631 0.960 1_554 S
C648 C649 1.391 . S
C648 C650 1.394 . S
C648 H664 0.931 . S
C649 C648 1.391 . S
C649 C653 1.376 . S
C650 C648 1.394 . S
C650 C651 1.369 . S
C650 C654 1.531 . S
C651 C650 1.369 . S
C651 C652 1.410 . S
C651 C659 1.503 . S
C652 C651 1.410 . S
C652 C653 1.392 . S
C652 C655 1.511 . S
C653 C649 1.376 . S
C653 C652 1.392 . S
C653 H665 0.929 . S
C654 C650 1.531 . S
C654 H666 0.960 . S
C654 H667 0.962 . S
C654 H668 0.960 . S
C655 C652 1.511 . S
C655 H669 0.961 . S
C655 H670 0.961 . S
C655 H671 0.961 . S
C656 C657 1.370 . S
C656 C658 1.363 . S
C656 H672 0.931 . S
C657 C656 1.370 . S
C657 C661 1.408 . S
C658 C656 1.363 . S
C658 C659 1.370 . S
C658 C662 1.524 . S
C659 C651 1.503 . S
C659 C658 1.370 . S
C659 C660 1.403 . S
C660 C659 1.403 . S
C660 C661 1.404 . S
C660 C663 1.539 . S
C661 C657 1.408 . S
C661 C660 1.404 . S
C661 H673 0.930 . S
C662 C658 1.524 . S
C662 H674 0.956 . S
C662 H675 0.961 . S
C662 H676 0.961 . S
C663 C660 1.539 . S
C663 H677 0.958 . S
C663 H678 0.961 . S
C663 H679 0.960 . S
H664 C648 0.931 . S
H665 C653 0.929 . S
H666 C654 0.960 . S
H667 C654 0.962 . S
H668 C654 0.960 . S
H669 C655 0.961 . S
H670 C655 0.961 . S
H671 C655 0.961 . S
H672 C656 0.931 . S
H673 C661 0.930 . S
H674 C662 0.956 . S
H675 C662 0.961 . S
H676 C662 0.961 . S
H677 C663 0.958 . S
H678 C663 0.961 . S
H679 C663 0.960 . S
C680 C681 1.391 . S
C680 C682 1.394 1_556 S
C680 H696 0.931 . S
C681 C680 1.391 . S
C681 C685 1.376 . S
C682 C680 1.394 1_554 S
C682 C683 1.369 . S
C682 C686 1.531 . S
C683 C682 1.369 . S
C683 C684 1.389 1_554 S
C683 C691 1.503 . S
C684 C683 1.389 1_556 S
C684 C685 1.417 . S
C684 C687 1.509 1_556 S
C685 C681 1.376 . S
C685 C684 1.417 . S
C685 H697 0.929 . S
C686 C682 1.531 . S
C686 H698 0.960 . S
C686 H699 0.962 . S
C686 H700 0.960 . S
C687 C684 1.509 1_554 S
C687 H701 0.961 1_554 S
C687 H702 0.961 . S
C687 H703 0.961 . S
C688 C689 1.370 . S
C688 C690 1.363 . S
C688 H704 0.931 . S
C689 C688 1.370 . S
C689 C693 1.408 . S
C690 C688 1.363 . S
C690 C691 1.370 . S
C690 C694 1.524 1_554 S
C691 C683 1.503 . S
C691 C690 1.370 . S
C691 C692 1.403 . S
C692 C691 1.403 . S
C692 C693 1.404 . S
C692 C695 1.539 . S
C693 C689 1.408 . S
C693 C692 1.404 . S
C693 H705 0.930 . S
C694 C690 1.524 1_556 S
C694 H706 0.956 . S
C694 H707 0.961 . S
C694 H708 0.961 . S
C695 C692 1.539 . S
C695 H709 0.958 . S
C695 H710 0.961 . S
C695 H711 0.960 . S
H696 C680 0.931 . S
H697 C685 0.929 . S
H698 C686 0.960 . S
H699 C686 0.962 . S
H700 C686 0.960 . S
H701 C687 0.961 1_556 S
H702 C687 0.961 . S
H703 C687 0.961 . S
H704 C688 0.931 . S
H705 C693 0.930 . S
H706 C694 0.956 . S
H707 C694 0.961 . S
H708 C694 0.961 . S
H709 C695 0.958 . S
H710 C695 0.961 . S
H711 C695 0.960 . S
C712 C713 1.391 . S
C712 C714 1.394 . S
C712 H728 0.931 . S
C713 C712 1.391 . S
C713 C717 1.376 . S
C714 C712 1.394 . S
C714 C715 1.369 . S
C714 C718 1.531 . S
C715 C714 1.369 . S
C715 C716 1.410 . S
C715 C723 1.503 . S
C716 C715 1.410 . S
C716 C717 1.392 . S
C716 C719 1.511 . S
C717 C713 1.376 . S
C717 C716 1.392 . S
C717 H729 0.929 . S
C718 C714 1.531 . S
C718 H730 0.960 . S
C718 H731 0.962 . S
C718 H732 0.960 . S
C719 C716 1.511 . S
C719 H733 0.961 . S
C719 H734 0.961 . S
C719 H735 0.961 . S
C720 C721 1.370 . S
C720 C722 1.363 . S
C720 H736 0.931 . S
C721 C720 1.370 . S
C721 C725 1.408 . S
C722 C720 1.363 . S
C722 C723 1.370 . S
C722 C726 1.524 . S
C723 C715 1.503 . S
C723 C722 1.370 . S
C723 C724 1.403 . S
C724 C723 1.403 . S
C724 C725 1.404 . S
C724 C727 1.539 . S
C725 C721 1.408 . S
C725 C724 1.404 . S
C725 H737 0.930 . S
C726 C722 1.524 . S
C726 H738 0.956 . S
C726 H739 0.961 . S
C726 H740 0.961 . S
C727 C724 1.539 . S
C727 H741 0.958 . S
C727 H742 0.961 . S
C727 H743 0.960 . S
H728 C712 0.931 . S
H729 C717 0.929 . S
H730 C718 0.960 . S
H731 C718 0.962 . S
H732 C718 0.960 . S
H733 C719 0.961 . S
H734 C719 0.961 . S
H735 C719 0.961 . S
H736 C720 0.931 . S
H737 C725 0.930 . S
H738 C726 0.956 . S
H739 C726 0.961 . S
H740 C726 0.961 . S
H741 C727 0.958 . S
H742 C727 0.961 . S
H743 C727 0.960 . S
C744 C745 1.391 . S
C744 C746 1.394 . S
C744 H760 0.931 . S
C745 C744 1.391 . S
C745 C749 1.376 . S
C746 C744 1.394 . S
C746 C747 1.369 . S
C746 C750 1.531 . S
C747 C746 1.369 . S
C747 C748 1.410 . S
C747 C755 1.503 . S
C748 C747 1.410 . S
C748 C749 1.392 . S
C748 C751 1.511 . S
C749 C745 1.376 . S
C749 C748 1.392 . S
C749 H761 0.929 . S
C750 C746 1.531 . S
C750 H762 0.960 . S
C750 H763 0.962 . S
C750 H764 0.960 . S
C751 C748 1.511 . S
C751 H765 0.961 . S
C751 H766 0.961 . S
C751 H767 0.961 . S
C752 C753 1.370 . S
C752 C754 1.363 . S
C752 H768 0.931 . S
C753 C752 1.370 . S
C753 C757 1.408 . S
C754 C752 1.363 . S
C754 C755 1.370 . S
C754 C758 1.524 . S
C755 C747 1.503 . S
C755 C754 1.370 . S
C755 C756 1.403 . S
C756 C755 1.403 . S
C756 C757 1.404 . S
C756 C759 1.539 . S
C757 C753 1.408 . S
C757 C756 1.404 . S
C757 H769 0.930 . S
C758 C754 1.524 . S
C758 H770 0.956 . S
C758 H771 0.961 . S
C758 H772 0.961 . S
C759 C756 1.539 . S
C759 H773 0.958 . S
C759 H774 0.961 . S
C759 H775 0.960 . S
H760 C744 0.931 . S
H761 C749 0.929 . S
H762 C750 0.960 . S
H763 C750 0.962 . S
H764 C750 0.960 . S
H765 C751 0.961 . S
H766 C751 0.961 . S
H767 C751 0.961 . S
H768 C752 0.931 . S
H769 C757 0.930 . S
H770 C758 0.956 . S
H771 C758 0.961 . S
H772 C758 0.961 . S
H773 C759 0.958 . S
H774 C759 0.961 . S
H775 C759 0.960 . S
C776 C777 1.391 . S
C776 C778 1.394 . S
C776 H792 0.931 . S
C777 C776 1.391 . S
C777 C781 1.376 . S
C778 C776 1.394 . S
C778 C779 1.369 . S
C778 C782 1.531 . S
C779 C778 1.369 . S
C779 C780 1.410 1_455 S
C779 C787 1.503 1_455 S
C780 C779 1.410 1_655 S
C780 C781 1.392 1_655 S
C780 C783 1.511 . S
C781 C777 1.376 . S
C781 C780 1.392 1_455 S
C781 H793 0.929 . S
C782 C778 1.531 . S
C782 H794 0.960 . S
C782 H795 0.962 . S
C782 H796 0.960 . S
C783 C780 1.511 . S
C783 H797 0.961 . S
C783 H798 0.961 . S
C783 H799 0.961 . S
C784 C785 1.370 . S
C784 C786 1.363 . S
C784 H800 0.931 . S
C785 C784 1.370 . S
C785 C789 1.408 . S
C786 C784 1.363 . S
C786 C787 1.370 . S
C786 C790 1.524 1_655 S
C787 C779 1.503 1_655 S
C787 C786 1.370 . S
C787 C788 1.403 . S
C788 C787 1.403 . S
C788 C789 1.404 . S
C788 C791 1.539 . S
C789 C785 1.408 . S
C789 C788 1.404 . S
C789 H801 0.930 . S
C790 C786 1.524 1_455 S
C790 H802 0.956 . S
C790 H803 0.961 . S
C790 H804 0.955 1_455 S
C791 C788 1.539 . S
C791 H805 0.958 . S
C791 H806 0.961 . S
C791 H807 0.960 . S
H792 C776 0.931 . S
H793 C781 0.929 . S
H794 C782 0.960 . S
H795 C782 0.962 . S
H796 C782 0.960 . S
H797 C783 0.961 . S
H798 C783 0.961 . S
H799 C783 0.961 . S
H800 C784 0.931 . S
H801 C789 0.930 . S
H802 C790 0.956 . S
H803 C790 0.961 . S
H804 C790 0.955 1_655 S
H805 C791 0.958 . S
H806 C791 0.961 . S
H807 C791 0.960 . S
C808 C809 1.391 . S
C808 C810 1.394 . S
C808 H824 0.931 . S
C809 C808 1.391 . S
C809 C813 1.376 . S
C810 C808 1.394 . S
C810 C811 1.369 . S
C810 C814 1.531 . S
C811 C810 1.369 . S
C811 C812 1.410 . S
C811 C819 1.503 . S
C812 C811 1.410 . S
C812 C813 1.392 . S
C812 C815 1.511 . S
C813 C809 1.376 . S
C813 C812 1.392 . S
C813 H825 0.929 . S
C814 C810 1.531 . S
C814 H826 0.960 . S
C814 H827 0.962 . S
C814 H828 0.960 . S
C815 C812 1.511 . S
C815 H829 0.961 . S
C815 H830 0.961 . S
C815 H831 0.961 . S
C816 C817 1.370 . S
C816 C818 1.363 . S
C816 H832 0.931 . S
C817 C816 1.370 . S
C817 C821 1.408 . S
C818 C816 1.363 . S
C818 C819 1.370 . S
C818 C822 1.524 . S
C819 C811 1.503 . S
C819 C818 1.370 . S
C819 C820 1.403 . S
C820 C819 1.403 . S
C820 C821 1.404 . S
C820 C823 1.539 . S
C821 C817 1.408 . S
C821 C820 1.404 . S
C821 H833 0.930 . S
C822 C818 1.524 . S
C822 H834 0.956 . S
C822 H835 0.961 . S
C822 H836 0.961 . S
C823 C820 1.539 . S
C823 H837 0.958 . S
C823 H838 0.961 . S
C823 H839 0.960 . S
H824 C808 0.931 . S
H825 C813 0.929 . S
H826 C814 0.960 . S
H827 C814 0.962 . S
H828 C814 0.960 . S
H829 C815 0.961 . S
H830 C815 0.961 . S
H831 C815 0.961 . S
H832 C816 0.931 . S
H833 C821 0.930 . S
H834 C822 0.956 . S
H835 C822 0.961 . S
H836 C822 0.961 . S
H837 C823 0.958 . S
H838 C823 0.961 . S
H839 C823 0.960 . S
C840 C841 1.391 . S
C840 C842 1.394 1_545 S
C840 H856 0.931 . S
C841 C840 1.391 . S
C841 C845 1.376 . S
C842 C840 1.394 1_565 S
C842 C843 1.369 . S
C842 C846 1.531 . S
C843 C842 1.369 . S
C843 C844 1.410 1_565 S
C843 C851 1.503 . S
C844 C843 1.410 1_545 S
C844 C845 1.392 . S
C844 C847 1.511 . S
C845 C841 1.376 . S
C845 C844 1.392 . S
C845 H857 0.929 . S
C846 C842 1.531 . S
C846 H858 0.960 . S
C846 H859 0.962 . S
C846 H860 0.960 . S
C847 C844 1.511 . S
C847 H861 0.961 . S
C847 H862 0.961 1_545 S
C847 H863 0.961 1_545 S
C848 C849 1.370 . S
C848 C850 1.363 . S
C848 H864 0.931 . S
C849 C848 1.370 . S
C849 C853 1.408 . S
C850 C848 1.363 . S
C850 C851 1.370 . S
C850 C854 1.524 . S
C851 C843 1.503 . S
C851 C850 1.370 . S
C851 C852 1.403 . S
C852 C851 1.403 . S
C852 C853 1.404 . S
C852 C855 1.539 . S
C853 C849 1.408 . S
C853 C852 1.404 . S
C853 H865 0.930 . S
C854 C850 1.524 . S
C854 H866 0.956 . S
C854 H867 0.961 1_565 S
C854 H868 0.961 . S
C855 C852 1.539 . S
C855 H869 0.958 . S
C855 H870 0.961 . S
C855 H871 0.960 . S
H856 C840 0.931 . S
H857 C845 0.929 . S
H858 C846 0.960 . S
H859 C846 0.962 . S
H860 C846 0.960 . S
H861 C847 0.961 . S
H862 C847 0.961 1_565 S
H863 C847 0.961 1_565 S
H864 C848 0.931 . S
H865 C853 0.930 . S
H866 C854 0.956 . S
H867 C854 0.961 1_545 S
H868 C854 0.961 . S
H869 C855 0.958 . S
H870 C855 0.961 . S
H871 C855 0.960 . S
C872 C873 1.391 . S
C872 C874 1.394 . S
C872 H888 0.931 . S
C873 C872 1.391 . S
C873 C877 1.376 . S
C874 C872 1.394 . S
C874 C875 1.369 . S
C874 C878 1.531 . S
C875 C874 1.369 . S
C875 C876 1.410 . S
C875 C883 1.503 1_545 S
C876 C875 1.410 . S
C876 C877 1.392 . S
C876 C879 1.511 1_545 S
C877 C873 1.376 . S
C877 C876 1.392 . S
C877 H889 0.929 . S
C878 C874 1.531 . S
C878 H890 0.960 . S
C878 H891 0.962 . S
C878 H892 0.960 . S
C879 C876 1.511 1_565 S
C879 H893 0.961 . S
C879 H894 0.961 . S
C879 H895 0.961 . S
C880 C881 1.370 . S
C880 C882 1.363 . S
C880 H896 0.931 . S
C881 C880 1.370 . S
C881 C885 1.408 . S
C882 C880 1.363 . S
C882 C883 1.370 . S
C882 C886 1.524 . S
C883 C875 1.503 1_565 S
C883 C882 1.370 . S
C883 C884 1.403 . S
C884 C883 1.403 . S
C884 C885 1.404 . S
C884 C887 1.539 . S
C885 C881 1.408 . S
C885 C884 1.404 . S
C885 H897 0.930 . S
C886 C882 1.524 . S
C886 H898 0.956 1_565 S
C886 H899 0.961 . S
C886 H900 0.961 . S
C887 C884 1.539 . S
C887 H901 0.958 1_565 S
C887 H902 0.961 . S
C887 H903 0.960 . S
H888 C872 0.931 . S
H889 C877 0.929 . S
H890 C878 0.960 . S
H891 C878 0.962 . S
H892 C878 0.960 . S
H893 C879 0.961 . S
H894 C879 0.961 . S
H895 C879 0.961 . S
H896 C880 0.931 . S
H897 C885 0.930 . S
H898 C886 0.956 1_545 S
H899 C886 0.961 . S
H900 C886 0.961 . S
H901 C887 0.958 1_545 S
H902 C887 0.961 . S
H903 C887 0.960 . S
C904 C905 1.391 . S
C904 C906 1.394 . S
C904 H920 0.931 . S
C905 C904 1.391 . S
C905 C909 1.376 . S
C906 C904 1.394 . S
C906 C907 1.369 1_545 S
C906 C910 1.531 1_545 S
C907 C906 1.369 1_565 S
C907 C908 1.410 1_565 S
C907 C915 1.503 . S
C908 C907 1.410 1_545 S
C908 C909 1.392 . S
C908 C911 1.511 1_545 S
C909 C905 1.376 . S
C909 C908 1.392 . S
C909 H921 0.929 . S
C910 C906 1.531 1_565 S
C910 H922 0.960 . S
C910 H923 0.962 . S
C910 H924 0.960 . S
C911 C908 1.511 1_565 S
C911 H925 0.961 1_565 S
C911 H926 0.961 . S
C911 H927 0.961 . S
C912 C913 1.370 . S
C912 C914 1.363 . S
C912 H928 0.931 . S
C913 C912 1.370 . S
C913 C917 1.408 . S
C914 C912 1.363 . S
C914 C915 1.370 . S
C914 C918 1.524 1_565 S
C915 C907 1.503 . S
C915 C914 1.370 . S
C915 C916 1.403 . S
C916 C915 1.403 . S
C916 C917 1.404 . S
C916 C919 1.539 . S
C917 C913 1.408 . S
C917 C916 1.404 . S
C917 H929 0.930 . S
C918 C914 1.524 1_545 S
C918 H930 0.956 . S
C918 H931 0.961 . S
C918 H932 0.961 . S
C919 C916 1.539 . S
C919 H933 0.958 . S
C919 H934 0.961 . S
C919 H935 0.960 . S
H920 C904 0.931 . S
H921 C909 0.929 . S
H922 C910 0.960 . S
H923 C910 0.962 . S
H924 C910 0.960 . S
H925 C911 0.961 1_545 S
H926 C911 0.961 . S
H927 C911 0.961 . S
H928 C912 0.931 . S
H929 C917 0.930 . S
H930 C918 0.956 . S
H931 C918 0.961 . S
H932 C918 0.961 . S
H933 C919 0.958 . S
H934 C919 0.961 . S
H935 C919 0.960 . S
C936 C937 1.391 . S
C936 C938 1.394 . S
C936 H952 0.931 . S
C937 C936 1.391 . S
C937 C941 1.376 . S
C938 C936 1.394 . S
C938 C939 1.369 . S
C938 C942 1.531 . S
C939 C938 1.369 . S
C939 C940 1.410 . S
C939 C947 1.503 . S
C940 C939 1.410 . S
C940 C941 1.392 . S
C940 C943 1.511 . S
C941 C937 1.376 . S
C941 C940 1.392 . S
C941 H953 0.929 . S
C942 C938 1.531 . S
C942 H954 0.960 . S
C942 H955 0.962 . S
C942 H956 0.960 . S
C943 C940 1.511 . S
C943 H957 0.961 . S
C943 H958 0.961 . S
C943 H959 0.961 . S
C944 C945 1.370 . S
C944 C946 1.363 . S
C944 H960 0.931 . S
C945 C944 1.370 . S
C945 C949 1.408 . S
C946 C944 1.363 . S
C946 C947 1.370 . S
C946 C950 1.524 . S
C947 C939 1.503 . S
C947 C946 1.370 . S
C947 C948 1.403 . S
C948 C947 1.403 . S
C948 C949 1.404 . S
C948 C951 1.539 . S
C949 C945 1.408 . S
C949 C948 1.404 . S
C949 H961 0.930 . S
C950 C946 1.524 . S
C950 H962 0.956 . S
C950 H963 0.961 . S
C950 H964 0.961 . S
C951 C948 1.539 . S
C951 H965 0.958 . S
C951 H966 0.961 . S
C951 H967 0.960 . S
H952 C936 0.931 . S
H953 C941 0.929 . S
H954 C942 0.960 . S
H955 C942 0.962 . S
H956 C942 0.960 . S
H957 C943 0.961 . S
H958 C943 0.961 . S
H959 C943 0.961 . S
H960 C944 0.931 . S
H961 C949 0.930 . S
H962 C950 0.956 . S
H963 C950 0.961 . S
H964 C950 0.961 . S
H965 C951 0.958 . S
H966 C951 0.961 . S
H967 C951 0.960 . S
C968 C969 1.391 . S
C968 C970 1.394 . S
C968 H984 0.931 . S
C969 C968 1.391 . S
C969 C973 1.376 . S
C970 C968 1.394 . S
C970 C971 1.369 . S
C970 C974 1.531 . S
C971 C970 1.369 . S
C971 C972 1.410 . S
C971 C979 1.503 . S
C972 C971 1.410 . S
C972 C973 1.392 . S
C972 C975 1.511 . S
C973 C969 1.376 . S
C973 C972 1.392 . S
C973 H985 0.929 . S
C974 C970 1.531 . S
C974 H986 0.960 . S
C974 H987 0.962 . S
C974 H988 0.960 . S
C975 C972 1.511 . S
C975 H989 0.961 . S
C975 H990 0.961 . S
C975 H991 0.961 . S
C976 C977 1.370 . S
C976 C978 1.363 . S
C976 H992 0.931 . S
C977 C976 1.370 . S
C977 C981 1.408 . S
C978 C976 1.363 . S
C978 C979 1.370 . S
C978 C982 1.524 . S
C979 C971 1.503 . S
C979 C978 1.370 . S
C979 C980 1.403 . S
C980 C979 1.403 . S
C980 C981 1.404 . S
C980 C983 1.539 . S
C981 C977 1.408 . S
C981 C980 1.404 . S
C981 H993 0.930 . S
C982 C978 1.524 . S
C982 H994 0.956 . S
C982 H995 0.961 . S
C982 H996 0.961 . S
C983 C980 1.539 . S
C983 H997 0.958 . S
C983 H998 0.961 . S
C983 H999 0.960 . S
H984 C968 0.931 . S
H985 C973 0.929 . S
H986 C974 0.960 . S
H987 C974 0.962 . S
H988 C974 0.960 . S
H989 C975 0.961 . S
H990 C975 0.961 . S
H991 C975 0.961 . S
H992 C976 0.931 . S
H993 C981 0.930 . S
H994 C982 0.956 . S
H995 C982 0.961 . S
H996 C982 0.961 . S
H997 C983 0.958 . S
H998 C983 0.961 . S
H999 C983 0.960 . S
C1000 C1001 1.391 . S
C1000 C1002 1.394 . S
C1000 H1016 0.931 . S
C1001 C1000 1.391 . S
C1001 C1005 1.376 . S
C1002 C1000 1.394 . S
C1002 C1003 1.369 . S
C1002 C1006 1.531 . S
C1003 C1002 1.369 . S
C1003 C1004 1.410 . S
C1003 C1011 1.503 . S
C1004 C1003 1.410 . S
C1004 C1005 1.392 . S
C1004 C1007 1.511 . S
C1005 C1001 1.376 . S
C1005 C1004 1.392 . S
C1005 H1017 0.929 . S
C1006 C1002 1.531 . S
C1006 H1018 0.960 . S
C1006 H1019 0.962 . S
C1006 H1020 0.960 . S
C1007 C1004 1.511 . S
C1007 H1021 0.961 . S
C1007 H1022 0.961 . S
C1007 H1023 0.961 . S
C1008 C1009 1.370 . S
C1008 C1010 1.363 . S
C1008 H1024 0.931 . S
C1009 C1008 1.370 . S
C1009 C1013 1.408 . S
C1010 C1008 1.363 . S
C1010 C1011 1.370 . S
C1010 C1014 1.524 . S
C1011 C1003 1.503 . S
C1011 C1010 1.370 . S
C1011 C1012 1.403 . S
C1012 C1011 1.403 . S
C1012 C1013 1.404 . S
C1012 C1015 1.539 . S
C1013 C1009 1.408 . S
C1013 C1012 1.404 . S
C1013 H1025 0.930 . S
C1014 C1010 1.524 . S
C1014 H1026 0.956 . S
C1014 H1027 0.961 . S
C1014 H1028 0.961 . S
C1015 C1012 1.539 . S
C1015 H1029 0.958 . S
C1015 H1030 0.961 . S
C1015 H1031 0.960 . S
H1016 C1000 0.931 . S
H1017 C1005 0.929 . S
H1018 C1006 0.960 . S
H1019 C1006 0.962 . S
H1020 C1006 0.960 . S
H1021 C1007 0.961 . S
H1022 C1007 0.961 . S
H1023 C1007 0.961 . S
H1024 C1008 0.931 . S
H1025 C1013 0.930 . S
H1026 C1014 0.956 . S
H1027 C1014 0.961 . S
H1028 C1014 0.961 . S
H1029 C1015 0.958 . S
H1030 C1015 0.961 . S
H1031 C1015 0.960 . S
C1032 C1033 1.391 . S
C1032 C1034 1.394 1_556 S
C1032 H1048 0.931 . S
C1033 C1032 1.391 . S
C1033 C1037 1.376 . S
C1034 C1032 1.394 1_554 S
C1034 C1035 1.369 . S
C1034 C1038 1.531 . S
C1035 C1034 1.369 . S
C1035 C1036 1.410 1_554 S
C1035 C1043 1.503 . S
C1036 C1035 1.410 1_556 S
C1036 C1037 1.392 . S
C1036 C1039 1.511 . S
C1037 C1033 1.376 . S
C1037 C1036 1.392 . S
C1037 H1049 0.929 . S
C1038 C1034 1.531 . S
C1038 H1050 0.960 . S
C1038 H1051 0.962 . S
C1038 H1052 0.960 . S
C1039 C1036 1.511 . S
C1039 H1053 0.961 . S
C1039 H1054 0.961 . S
C1039 H1055 0.961 . S
C1040 C1041 1.370 . S
C1040 C1042 1.363 . S
C1040 H1056 0.931 . S
C1041 C1040 1.370 . S
C1041 C1045 1.408 . S
C1042 C1040 1.363 . S
C1042 C1043 1.370 . S
C1042 C1046 1.524 . S
C1043 C1035 1.503 . S
C1043 C1042 1.370 . S
C1043 C1044 1.403 . S
C1044 C1043 1.403 . S
C1044 C1045 1.404 . S
C1044 C1047 1.539 . S
C1045 C1041 1.408 . S
C1045 C1044 1.404 . S
C1045 H1057 0.930 . S
C1046 C1042 1.524 . S
C1046 H1058 0.956 . S
C1046 H1059 0.961 . S
C1046 H1060 0.961 . S
C1047 C1044 1.539 . S
C1047 H1061 0.958 . S
C1047 H1062 0.961 . S
C1047 H1063 0.947 1_554 S
H1048 C1032 0.931 . S
H1049 C1037 0.929 . S
H1050 C1038 0.960 . S
H1051 C1038 0.962 . S
H1052 C1038 0.960 . S
H1053 C1039 0.961 . S
H1054 C1039 0.961 . S
H1055 C1039 0.961 . S
H1056 C1040 0.931 . S
H1057 C1045 0.930 . S
H1058 C1046 0.956 . S
H1059 C1046 0.961 . S
H1060 C1046 0.961 . S
H1061 C1047 0.958 . S
H1062 C1047 0.961 . S
H1063 C1047 0.947 1_556 S
C1064 C1065 1.391 . S
C1064 C1066 1.394 . S
C1064 H1080 0.931 . S
C1065 C1064 1.391 . S
C1065 C1069 1.376 . S
C1066 C1064 1.394 . S
C1066 C1067 1.369 . S
C1066 C1070 1.531 . S
C1067 C1066 1.369 . S
C1067 C1068 1.410 . S
C1067 C1075 1.503 . S
C1068 C1067 1.410 . S
C1068 C1069 1.392 . S
C1068 C1071 1.511 . S
C1069 C1065 1.376 . S
C1069 C1068 1.392 . S
C1069 H1081 0.929 . S
C1070 C1066 1.531 . S
C1070 H1082 0.960 . S
C1070 H1083 0.962 . S
C1070 H1084 0.960 . S
C1071 C1068 1.511 . S
C1071 H1085 0.961 . S
C1071 H1086 0.961 . S
C1071 H1087 0.961 . S
C1072 C1073 1.370 . S
C1072 C1074 1.363 . S
C1072 H1088 0.931 . S
C1073 C1072 1.370 . S
C1073 C1077 1.408 . S
C1074 C1072 1.363 . S
C1074 C1075 1.370 . S
C1074 C1078 1.524 . S
C1075 C1067 1.503 . S
C1075 C1074 1.370 . S
C1075 C1076 1.403 . S
C1076 C1075 1.403 . S
C1076 C1077 1.404 . S
C1076 C1079 1.539 . S
C1077 C1073 1.408 . S
C1077 C1076 1.404 . S
C1077 H1089 0.930 . S
C1078 C1074 1.524 . S
C1078 H1090 0.956 . S
C1078 H1091 0.961 . S
C1078 H1092 0.961 . S
C1079 C1076 1.539 . S
C1079 H1093 0.958 . S
C1079 H1094 0.961 . S
C1079 H1095 0.960 . S
H1080 C1064 0.931 . S
H1081 C1069 0.929 . S
H1082 C1070 0.960 . S
H1083 C1070 0.962 . S
H1084 C1070 0.960 . S
H1085 C1071 0.961 . S
H1086 C1071 0.961 . S
H1087 C1071 0.961 . S
H1088 C1072 0.931 . S
H1089 C1077 0.930 . S
H1090 C1078 0.956 . S
H1091 C1078 0.961 . S
H1092 C1078 0.961 . S
H1093 C1079 0.958 . S
H1094 C1079 0.961 . S
H1095 C1079 0.960 . S
C1096 C1097 1.391 . S
C1096 C1098 1.394 . S
C1096 H1112 0.931 . S
C1097 C1096 1.391 . S
C1097 C1101 1.376 . S
C1098 C1096 1.394 . S
C1098 C1099 1.369 . S
C1098 C1102 1.531 . S
C1099 C1098 1.369 . S
C1099 C1100 1.410 . S
C1099 C1107 1.503 . S
C1100 C1099 1.410 . S
C1100 C1101 1.392 . S
C1100 C1103 1.511 . S
C1101 C1097 1.376 . S
C1101 C1100 1.392 . S
C1101 H1113 0.929 . S
C1102 C1098 1.531 . S
C1102 H1114 0.960 . S
C1102 H1115 0.962 . S
C1102 H1116 0.960 . S
C1103 C1100 1.511 . S
C1103 H1117 0.961 . S
C1103 H1118 0.961 . S
C1103 H1119 0.961 . S
C1104 C1105 1.370 . S
C1104 C1106 1.363 . S
C1104 H1120 0.931 . S
C1105 C1104 1.370 . S
C1105 C1109 1.408 . S
C1106 C1104 1.363 . S
C1106 C1107 1.370 . S
C1106 C1110 1.524 . S
C1107 C1099 1.503 . S
C1107 C1106 1.370 . S
C1107 C1108 1.403 . S
C1108 C1107 1.403 . S
C1108 C1109 1.404 . S
C1108 C1111 1.539 . S
C1109 C1105 1.408 . S
C1109 C1108 1.404 . S
C1109 H1121 0.930 . S
C1110 C1106 1.524 . S
C1110 H1122 0.956 . S
C1110 H1123 0.961 . S
C1110 H1124 0.961 . S
C1111 C1108 1.539 . S
C1111 H1125 0.958 . S
C1111 H1126 0.961 . S
C1111 H1127 0.960 . S
H1112 C1096 0.931 . S
H1113 C1101 0.929 . S
H1114 C1102 0.960 . S
H1115 C1102 0.962 . S
H1116 C1102 0.960 . S
H1117 C1103 0.961 . S
H1118 C1103 0.961 . S
H1119 C1103 0.961 . S
H1120 C1104 0.931 . S
H1121 C1109 0.930 . S
H1122 C1110 0.956 . S
H1123 C1110 0.961 . S
H1124 C1110 0.961 . S
H1125 C1111 0.958 . S
H1126 C1111 0.961 . S
H1127 C1111 0.960 . S
C1128 C1129 1.391 . S
C1128 C1130 1.394 . S
C1128 H1144 0.931 . S
C1129 C1128 1.391 . S
C1129 C1133 1.376 . S
C1130 C1128 1.394 . S
C1130 C1131 1.369 1_655 S
C1130 C1134 1.531 . S
C1131 C1130 1.369 1_455 S
C1131 C1132 1.412 . S
C1131 C1139 1.503 . S
C1132 C1131 1.412 . S
C1132 C1133 1.378 1_455 S
C1132 C1135 1.522 . S
C1133 C1129 1.376 . S
C1133 C1132 1.378 1_655 S
C1133 H1145 0.929 . S
C1134 C1130 1.531 . S
C1134 H1146 0.960 1_655 S
C1134 H1147 0.962 . S
C1134 H1148 0.960 . S
C1135 C1132 1.522 . S
C1135 H1149 0.961 . S
C1135 H1150 0.961 . S
C1135 H1151 0.961 . S
C1136 C1137 1.370 . S
C1136 C1138 1.363 . S
C1136 H1152 0.931 . S
C1137 C1136 1.370 . S
C1137 C1141 1.408 . S
C1138 C1136 1.363 . S
C1138 C1139 1.370 . S
C1138 C1142 1.524 1_455 S
C1139 C1131 1.503 . S
C1139 C1138 1.370 . S
C1139 C1140 1.403 . S
C1140 C1139 1.403 . S
C1140 C1141 1.404 . S
C1140 C1143 1.539 . S
C1141 C1137 1.408 . S
C1141 C1140 1.404 . S
C1141 H1153 0.930 . S
C1142 C1138 1.524 1_655 S
C1142 H1154 0.956 . S
C1142 H1155 0.961 . S
C1142 H1156 0.961 . S
C1143 C1140 1.539 . S
C1143 H1157 0.958 . S
C1143 H1158 0.961 . S
C1143 H1159 0.960 . S
H1144 C1128 0.931 . S
H1145 C1133 0.929 . S
H1146 C1134 0.960 1_455 S
H1147 C1134 0.962 . S
H1148 C1134 0.960 . S
H1149 C1135 0.961 . S
H1150 C1135 0.961 . S
H1151 C1135 0.961 . S
H1152 C1136 0.931 . S
H1153 C1141 0.930 . S
H1154 C1142 0.956 . S
H1155 C1142 0.961 . S
H1156 C1142 0.961 . S
H1157 C1143 0.958 . S
H1158 C1143 0.961 . S
H1159 C1143 0.960 . S
C1160 C1161 1.391 . S
C1160 C1162 1.394 . S
C1160 H1176 0.931 . S
C1161 C1160 1.391 . S
C1161 C1165 1.376 . S
C1162 C1160 1.394 . S
C1162 C1163 1.369 . S
C1162 C1166 1.531 . S
C1163 C1162 1.369 . S
C1163 C1164 1.410 . S
C1163 C1171 1.503 . S
C1164 C1163 1.410 . S
C1164 C1165 1.392 . S
C1164 C1167 1.511 . S
C1165 C1161 1.376 . S
C1165 C1164 1.392 . S
C1165 H1177 0.929 . S
C1166 C1162 1.531 . S
C1166 H1178 0.960 . S
C1166 H1179 0.962 . S
C1166 H1180 0.960 . S
C1167 C1164 1.511 . S
C1167 H1181 0.961 . S
C1167 H1182 0.961 . S
C1167 H1183 0.961 . S
C1168 C1169 1.370 . S
C1168 C1170 1.363 . S
C1168 H1184 0.931 . S
C1169 C1168 1.370 . S
C1169 C1173 1.408 . S
C1170 C1168 1.363 . S
C1170 C1171 1.370 . S
C1170 C1174 1.524 . S
C1171 C1163 1.503 . S
C1171 C1170 1.370 . S
C1171 C1172 1.403 . S
C1172 C1171 1.403 . S
C1172 C1173 1.404 . S
C1172 C1175 1.539 . S
C1173 C1169 1.408 . S
C1173 C1172 1.404 . S
C1173 H1185 0.930 . S
C1174 C1170 1.524 . S
C1174 H1186 0.956 . S
C1174 H1187 0.961 . S
C1174 H1188 0.961 . S
C1175 C1172 1.539 . S
C1175 H1189 0.958 . S
C1175 H1190 0.961 . S
C1175 H1191 0.960 . S
H1176 C1160 0.931 . S
H1177 C1165 0.929 . S
H1178 C1166 0.960 . S
H1179 C1166 0.962 . S
H1180 C1166 0.960 . S
H1181 C1167 0.961 . S
H1182 C1167 0.961 . S
H1183 C1167 0.961 . S
H1184 C1168 0.931 . S
H1185 C1173 0.930 . S
H1186 C1174 0.956 . S
H1187 C1174 0.961 . S
H1188 C1174 0.961 . S
H1189 C1175 0.958 . S
H1190 C1175 0.961 . S
H1191 C1175 0.960 . S
C1192 C1193 1.391 . S
C1192 C1194 1.394 . S
C1192 H1208 0.931 . S
C1193 C1192 1.391 . S
C1193 C1197 1.376 . S
C1194 C1192 1.394 . S
C1194 C1195 1.369 . S
C1194 C1198 1.531 1_455 S
C1195 C1194 1.369 . S
C1195 C1196 1.410 . S
C1195 C1203 1.503 1_455 S
C1196 C1195 1.410 . S
C1196 C1197 1.392 . S
C1196 C1199 1.511 . S
C1197 C1193 1.376 . S
C1197 C1196 1.392 . S
C1197 H1209 0.929 . S
C1198 C1194 1.531 1_655 S
C1198 H1210 0.960 . S
C1198 H1211 0.962 . S
C1198 H1212 0.960 . S
C1199 C1196 1.511 . S
C1199 H1213 0.961 . S
C1199 H1214 0.961 . S
C1199 H1215 0.961 . S
C1200 C1201 1.370 . S
C1200 C1202 1.363 . S
C1200 H1216 0.931 . S
C1201 C1200 1.370 . S
C1201 C1205 1.408 . S
C1202 C1200 1.363 . S
C1202 C1203 1.370 . S
C1202 C1206 1.524 . S
C1203 C1195 1.503 1_655 S
C1203 C1202 1.370 . S
C1203 C1204 1.403 . S
C1204 C1203 1.403 . S
C1204 C1205 1.404 . S
C1204 C1207 1.539 1_655 S
C1205 C1201 1.408 . S
C1205 C1204 1.404 . S
C1205 H1217 0.930 . S
C1206 C1202 1.524 . S
C1206 H1218 0.956 . S
C1206 H1219 0.961 . S
C1206 H1220 0.961 . S
C1207 C1204 1.539 1_455 S
C1207 H1221 0.958 . S
C1207 H1222 0.961 . S
C1207 H1223 0.960 . S
H1208 C1192 0.931 . S
H1209 C1197 0.929 . S
H1210 C1198 0.960 . S
H1211 C1198 0.962 . S
H1212 C1198 0.960 . S
H1213 C1199 0.961 . S
H1214 C1199 0.961 . S
H1215 C1199 0.961 . S
H1216 C1200 0.931 . S
H1217 C1205 0.930 . S
H1218 C1206 0.956 . S
H1219 C1206 0.961 . S
H1220 C1206 0.961 . S
H1221 C1207 0.958 . S
H1222 C1207 0.961 . S
H1223 C1207 0.960 . S
C1224 C1225 1.391 . S
C1224 C1226 1.394 . S
C1224 H1240 0.931 . S
C1225 C1224 1.391 . S
C1225 C1229 1.376 . S
C1226 C1224 1.394 . S
C1226 C1227 1.369 . S
C1226 C1230 1.531 . S
C1227 C1226 1.369 . S
C1227 C1228 1.410 . S
C1227 C1235 1.503 1_556 S
C1228 C1227 1.410 . S
C1228 C1229 1.392 . S
C1228 C1231 1.511 1_556 S
C1229 C1225 1.376 . S
C1229 C1228 1.392 . S
C1229 H1241 0.929 . S
C1230 C1226 1.531 . S
C1230 H1242 0.960 . S
C1230 H1243 0.962 . S
C1230 H1244 0.960 . S
C1231 C1228 1.511 1_554 S
C1231 H1245 0.961 1_554 S
C1231 H1246 0.961 . S
C1231 H1247 0.961 . S
C1232 C1233 1.370 . S
C1232 C1234 1.363 . S
C1232 H1248 0.931 . S
C1233 C1232 1.370 . S
C1233 C1237 1.408 . S
C1234 C1232 1.363 . S
C1234 C1235 1.370 . S
C1234 C1238 1.524 1_554 S
C1235 C1227 1.503 1_554 S
C1235 C1234 1.370 . S
C1235 C1236 1.403 . S
C1236 C1235 1.403 . S
C1236 C1237 1.404 . S
C1236 C1239 1.539 . S
C1237 C1233 1.408 . S
C1237 C1236 1.404 . S
C1237 H1249 0.930 . S
C1238 C1234 1.524 1_556 S
C1238 H1250 0.956 . S
C1238 H1251 0.961 . S
C1238 H1252 0.961 . S
C1239 C1236 1.539 . S
C1239 H1253 0.958 . S
C1239 H1254 0.961 . S
C1239 H1255 0.960 . S
H1240 C1224 0.931 . S
H1241 C1229 0.929 . S
H1242 C1230 0.960 . S
H1243 C1230 0.962 . S
H1244 C1230 0.960 . S
H1245 C1231 0.961 1_556 S
H1246 C1231 0.961 . S
H1247 C1231 0.961 . S
H1248 C1232 0.931 . S
H1249 C1237 0.930 . S
H1250 C1238 0.956 . S
H1251 C1238 0.961 . S
H1252 C1238 0.961 . S
H1253 C1239 0.958 . S
H1254 C1239 0.961 . S
H1255 C1239 0.960 . S
C1256 C1257 1.391 . S
C1256 C1258 1.394 . S
C1256 H1272 0.931 . S
C1257 C1256 1.391 . S
C1257 C1261 1.376 . S
C1258 C1256 1.394 . S
C1258 C1259 1.369 . S
C1258 C1262 1.531 . S
C1259 C1258 1.369 . S
C1259 C1260 1.410 . S
C1259 C1267 1.503 . S
C1260 C1259 1.410 . S
C1260 C1261 1.392 . S
C1260 C1263 1.511 . S
C1261 C1257 1.376 . S
C1261 C1260 1.392 . S
C1261 H1273 0.929 . S
C1262 C1258 1.531 . S
C1262 H1274 0.960 . S
C1262 H1275 0.962 . S
C1262 H1276 0.960 . S
C1263 C1260 1.511 . S
C1263 H1277 0.961 . S
C1263 H1278 0.961 . S
C1263 H1279 0.961 . S
C1264 C1265 1.370 . S
C1264 C1266 1.363 . S
C1264 H1280 0.931 . S
C1265 C1264 1.370 . S
C1265 C1269 1.408 . S
C1266 C1264 1.363 . S
C1266 C1267 1.370 . S
C1266 C1270 1.524 . S
C1267 C1259 1.503 . S
C1267 C1266 1.370 . S
C1267 C1268 1.403 . S
C1268 C1267 1.403 . S
C1268 C1269 1.404 . S
C1268 C1271 1.539 . S
C1269 C1265 1.408 . S
C1269 C1268 1.404 . S
C1269 H1281 0.930 . S
C1270 C1266 1.524 . S
C1270 H1282 0.956 . S
C1270 H1283 0.961 . S
C1270 H1284 0.961 . S
C1271 C1268 1.539 . S
C1271 H1285 0.958 . S
C1271 H1286 0.961 . S
C1271 H1287 0.960 . S
H1272 C1256 0.931 . S
H1273 C1261 0.929 . S
H1274 C1262 0.960 . S
H1275 C1262 0.962 . S
H1276 C1262 0.960 . S
H1277 C1263 0.961 . S
H1278 C1263 0.961 . S
H1279 C1263 0.961 . S
H1280 C1264 0.931 . S
H1281 C1269 0.930 . S
H1282 C1270 0.956 . S
H1283 C1270 0.961 . S
H1284 C1270 0.961 . S
H1285 C1271 0.958 . S
H1286 C1271 0.961 . S
H1287 C1271 0.960 . S
C1288 C1289 1.391 . S
C1288 C1290 1.394 . S
C1288 H1304 0.931 . S
C1289 C1288 1.391 . S
C1289 C1293 1.400 . S
C1290 C1288 1.394 . S
C1290 C1291 1.369 1_565 S
C1290 C1294 1.531 . S
C1291 C1290 1.369 1_545 S
C1291 C1292 1.410 . S
C1291 C1299 1.503 . S
C1292 C1291 1.410 . S
C1292 C1293 1.375 1_545 S
C1292 C1295 1.511 . S
C1293 C1289 1.400 . S
C1293 C1292 1.375 1_565 S
C1293 H1305 0.923 1_565 S
C1294 C1290 1.531 . S
C1294 H1306 0.960 . S
C1294 H1307 0.962 . S
C1294 H1308 0.960 . S
C1295 C1292 1.511 . S
C1295 H1309 0.961 . S
C1295 H1310 0.961 . S
C1295 H1311 0.961 . S
C1296 C1297 1.370 . S
C1296 C1298 1.363 . S
C1296 H1312 0.931 . S
C1297 C1296 1.370 . S
C1297 C1301 1.408 . S
C1298 C1296 1.363 . S
C1298 C1299 1.370 . S
C1298 C1302 1.524 . S
C1299 C1291 1.503 . S
C1299 C1298 1.370 . S
C1299 C1300 1.403 . S
C1300 C1299 1.403 . S
C1300 C1301 1.404 . S
C1300 C1303 1.539 . S
C1301 C1297 1.408 . S
C1301 C1300 1.404 . S
C1301 H1313 0.930 . S
C1302 C1298 1.524 . S
C1302 H1314 0.967 . S
C1302 H1315 0.961 . S
C1302 H1316 0.961 . S
C1303 C1300 1.539 . S
C1303 H1317 0.958 . S
C1303 H1318 0.961 . S
C1303 H1319 0.960 . S
H1304 C1288 0.931 . S
H1305 C1293 0.923 1_545 S
H1306 C1294 0.960 . S
H1307 C1294 0.962 . S
H1308 C1294 0.960 . S
H1309 C1295 0.961 . S
H1310 C1295 0.961 . S
H1311 C1295 0.961 . S
H1312 C1296 0.931 . S
H1313 C1301 0.930 . S
H1314 C1302 0.967 . S
H1315 C1302 0.961 . S
H1316 C1302 0.961 . S
H1317 C1303 0.958 . S
H1318 C1303 0.961 . S
H1319 C1303 0.960 . S
C1320 C1321 1.391 . S
C1320 C1322 1.394 . S
C1320 H1336 0.931 . S
C1321 C1320 1.391 . S
C1321 C1325 1.376 . S
C1322 C1320 1.394 . S
C1322 C1323 1.369 . S
C1322 C1326 1.531 . S
C1323 C1322 1.369 . S
C1323 C1324 1.410 . S
C1323 C1331 1.503 . S
C1324 C1323 1.410 . S
C1324 C1325 1.392 . S
C1324 C1327 1.511 . S
C1325 C1321 1.376 . S
C1325 C1324 1.392 . S
C1325 H1337 0.929 . S
C1326 C1322 1.531 . S
C1326 H1338 0.960 . S
C1326 H1339 0.962 . S
C1326 H1340 0.960 . S
C1327 C1324 1.511 . S
C1327 H1341 0.961 . S
C1327 H1342 0.961 . S
C1327 H1343 0.961 . S
C1328 C1329 1.370 . S
C1328 C1330 1.363 . S
C1328 H1344 0.931 . S
C1329 C1328 1.370 . S
C1329 C1333 1.408 . S
C1330 C1328 1.363 . S
C1330 C1331 1.370 . S
C1330 C1334 1.524 . S
C1331 C1323 1.503 . S
C1331 C1330 1.370 . S
C1331 C1332 1.403 . S
C1332 C1331 1.403 . S
C1332 C1333 1.404 . S
C1332 C1335 1.539 . S
C1333 C1329 1.408 . S
C1333 C1332 1.404 . S
C1333 H1345 0.930 . S
C1334 C1330 1.524 . S
C1334 H1346 0.956 . S
C1334 H1347 0.961 . S
C1334 H1348 0.961 . S
C1335 C1332 1.539 . S
C1335 H1349 0.958 . S
C1335 H1350 0.961 . S
C1335 H1351 0.960 . S
H1336 C1320 0.931 . S
H1337 C1325 0.929 . S
H1338 C1326 0.960 . S
H1339 C1326 0.962 . S
H1340 C1326 0.960 . S
H1341 C1327 0.961 . S
H1342 C1327 0.961 . S
H1343 C1327 0.961 . S
H1344 C1328 0.931 . S
H1345 C1333 0.930 . S
H1346 C1334 0.956 . S
H1347 C1334 0.961 . S
H1348 C1334 0.961 . S
H1349 C1335 0.958 . S
H1350 C1335 0.961 . S
H1351 C1335 0.960 . S
C1352 C1353 1.391 . S
C1352 C1354 1.394 . S
C1352 H1368 0.931 . S
C1353 C1352 1.391 . S
C1353 C1357 1.376 . S
C1354 C1352 1.394 . S
C1354 C1355 1.369 . S
C1354 C1358 1.531 . S
C1355 C1354 1.369 . S
C1355 C1356 1.410 . S
C1355 C1363 1.503 . S
C1356 C1355 1.410 . S
C1356 C1357 1.392 . S
C1356 C1359 1.511 . S
C1357 C1353 1.376 . S
C1357 C1356 1.392 . S
C1357 H1369 0.929 . S
C1358 C1354 1.531 . S
C1358 H1370 0.960 . S
C1358 H1371 0.962 . S
C1358 H1372 0.960 . S
C1359 C1356 1.511 . S
C1359 H1373 0.961 . S
C1359 H1374 0.961 . S
C1359 H1375 0.961 . S
C1360 C1361 1.370 . S
C1360 C1362 1.363 . S
C1360 H1376 0.931 . S
C1361 C1360 1.370 . S
C1361 C1365 1.408 . S
C1362 C1360 1.363 . S
C1362 C1363 1.370 . S
C1362 C1366 1.524 . S
C1363 C1355 1.503 . S
C1363 C1362 1.370 . S
C1363 C1364 1.403 . S
C1364 C1363 1.403 . S
C1364 C1365 1.404 . S
C1364 C1367 1.539 . S
C1365 C1361 1.408 . S
C1365 C1364 1.404 . S
C1365 H1377 0.930 . S
C1366 C1362 1.524 . S
C1366 H1378 0.956 . S
C1366 H1379 0.961 . S
C1366 H1380 0.961 . S
C1367 C1364 1.539 . S
C1367 H1381 0.958 . S
C1367 H1382 0.961 . S
C1367 H1383 0.960 . S
H1368 C1352 0.931 . S
H1369 C1357 0.929 . S
H1370 C1358 0.960 . S
H1371 C1358 0.962 . S
H1372 C1358 0.960 . S
H1373 C1359 0.961 . S
H1374 C1359 0.961 . S
H1375 C1359 0.961 . S
H1376 C1360 0.931 . S
H1377 C1365 0.930 . S
H1378 C1366 0.956 . S
H1379 C1366 0.961 . S
H1380 C1366 0.961 . S
H1381 C1367 0.958 . S
H1382 C1367 0.961 . S
H1383 C1367 0.960 . S
C1384 C1385 1.391 . S
C1384 C1386 1.394 . S
C1384 H1400 0.931 . S
C1385 C1384 1.391 . S
C1385 C1389 1.376 . S
C1386 C1384 1.394 . S
C1386 C1387 1.369 . S
C1386 C1390 1.531 . S
C1387 C1386 1.369 . S
C1387 C1388 1.410 . S
C1387 C1395 1.503 . S
C1388 C1387 1.410 . S
C1388 C1389 1.392 . S
C1388 C1391 1.511 . S
C1389 C1385 1.376 . S
C1389 C1388 1.392 . S
C1389 H1401 0.929 . S
C1390 C1386 1.531 . S
C1390 H1402 0.960 . S
C1390 H1403 0.962 . S
C1390 H1404 0.960 . S
C1391 C1388 1.511 . S
C1391 H1405 0.961 . S
C1391 H1406 0.961 . S
C1391 H1407 0.961 . S
C1392 C1393 1.370 . S
C1392 C1394 1.363 . S
C1392 H1408 0.931 . S
C1393 C1392 1.370 . S
C1393 C1397 1.408 . S
C1394 C1392 1.363 . S
C1394 C1395 1.370 . S
C1394 C1398 1.524 . S
C1395 C1387 1.503 . S
C1395 C1394 1.370 . S
C1395 C1396 1.403 . S
C1396 C1395 1.403 . S
C1396 C1397 1.404 . S
C1396 C1399 1.539 . S
C1397 C1393 1.408 . S
C1397 C1396 1.404 . S
C1397 H1409 0.930 . S
C1398 C1394 1.524 . S
C1398 H1410 0.956 . S
C1398 H1411 0.961 . S
C1398 H1412 0.961 . S
C1399 C1396 1.539 . S
C1399 H1413 0.958 . S
C1399 H1414 0.961 . S
C1399 H1415 0.960 . S
H1400 C1384 0.931 . S
H1401 C1389 0.929 . S
H1402 C1390 0.960 . S
H1403 C1390 0.962 . S
H1404 C1390 0.960 . S
H1405 C1391 0.961 . S
H1406 C1391 0.961 . S
H1407 C1391 0.961 . S
H1408 C1392 0.931 . S
H1409 C1397 0.930 . S
H1410 C1398 0.956 . S
H1411 C1398 0.961 . S
H1412 C1398 0.961 . S
H1413 C1399 0.958 . S
H1414 C1399 0.961 . S
H1415 C1399 0.960 . S
C1416 C1417 1.391 . S
C1416 C1418 1.394 . S
C1416 H1432 0.931 . S
C1417 C1416 1.391 . S
C1417 C1421 1.376 . S
C1418 C1416 1.394 . S
C1418 C1419 1.369 . S
C1418 C1422 1.531 1_556 S
C1419 C1418 1.369 . S
C1419 C1420 1.410 . S
C1419 C1427 1.503 1_556 S
C1420 C1419 1.410 . S
C1420 C1421 1.392 . S
C1420 C1423 1.511 . S
C1421 C1417 1.376 . S
C1421 C1420 1.392 . S
C1421 H1433 0.929 . S
C1422 C1418 1.531 1_554 S
C1422 H1434 0.960 . S
C1422 H1435 0.962 . S
C1422 H1436 0.960 . S
C1423 C1420 1.511 . S
C1423 H1437 0.961 . S
C1423 H1438 0.961 . S
C1423 H1439 0.961 . S
C1424 C1425 1.370 . S
C1424 C1426 1.363 . S
C1424 H1440 0.931 . S
C1425 C1424 1.370 . S
C1425 C1429 1.408 . S
C1426 C1424 1.363 . S
C1426 C1427 1.370 . S
C1426 C1430 1.524 1_554 S
C1427 C1419 1.503 1_554 S
C1427 C1426 1.370 . S
C1427 C1428 1.403 . S
C1428 C1427 1.403 . S
C1428 C1429 1.404 . S
C1428 C1431 1.539 . S
C1429 C1425 1.408 . S
C1429 C1428 1.404 . S
C1429 H1441 0.930 . S
C1430 C1426 1.524 1_556 S
C1430 H1442 0.956 . S
C1430 H1443 0.961 . S
C1430 H1444 0.961 . S
C1431 C1428 1.539 . S
C1431 H1445 0.958 . S
C1431 H1446 0.961 . S
C1431 H1447 0.960 . S
H1432 C1416 0.931 . S
H1433 C1421 0.929 . S
H1434 C1422 0.960 . S
H1435 C1422 0.962 . S
H1436 C1422 0.960 . S
H1437 C1423 0.961 . S
H1438 C1423 0.961 . S
H1439 C1423 0.961 . S
H1440 C1424 0.931 . S
H1441 C1429 0.930 . S
H1442 C1430 0.956 . S
H1443 C1430 0.961 . S
H1444 C1430 0.961 . S
H1445 C1431 0.958 . S
H1446 C1431 0.961 . S
H1447 C1431 0.960 . S
C1448 C1449 1.391 . S
C1448 C1450 1.394 . S
C1448 H1464 0.931 . S
C1449 C1448 1.391 . S
C1449 C1453 1.376 . S
C1450 C1448 1.394 . S
C1450 C1451 1.369 . S
C1450 C1454 1.531 . S
C1451 C1450 1.369 . S
C1451 C1452 1.410 . S
C1451 C1459 1.503 . S
C1452 C1451 1.410 . S
C1452 C1453 1.392 . S
C1452 C1455 1.511 . S
C1453 C1449 1.376 . S
C1453 C1452 1.392 . S
C1453 H1465 0.929 . S
C1454 C1450 1.531 . S
C1454 H1466 0.960 . S
C1454 H1467 0.962 . S
C1454 H1468 0.960 . S
C1455 C1452 1.511 . S
C1455 H1469 0.961 . S
C1455 H1470 0.961 . S
C1455 H1471 0.961 . S
C1456 C1457 1.370 . S
C1456 C1458 1.363 . S
C1456 H1472 0.931 . S
C1457 C1456 1.370 . S
C1457 C1461 1.408 . S
C1458 C1456 1.363 . S
C1458 C1459 1.370 . S
C1458 C1462 1.524 . S
C1459 C1451 1.503 . S
C1459 C1458 1.370 . S
C1459 C1460 1.403 . S
C1460 C1459 1.403 . S
C1460 C1461 1.404 . S
C1460 C1463 1.539 . S
C1461 C1457 1.408 . S
C1461 C1460 1.404 . S
C1461 H1473 0.930 . S
C1462 C1458 1.524 . S
C1462 H1474 0.956 . S
C1462 H1475 0.961 . S
C1462 H1476 0.961 . S
C1463 C1460 1.539 . S
C1463 H1477 0.958 . S
C1463 H1478 0.961 . S
C1463 H1479 0.960 . S
H1464 C1448 0.931 . S
H1465 C1453 0.929 . S
H1466 C1454 0.960 . S
H1467 C1454 0.962 . S
H1468 C1454 0.960 . S
H1469 C1455 0.961 . S
H1470 C1455 0.961 . S
H1471 C1455 0.961 . S
H1472 C1456 0.931 . S
H1473 C1461 0.930 . S
H1474 C1462 0.956 . S
H1475 C1462 0.961 . S
H1476 C1462 0.961 . S
H1477 C1463 0.958 . S
H1478 C1463 0.961 . S
H1479 C1463 0.960 . S
C1480 C1481 1.391 . S
C1480 C1482 1.394 . S
C1480 H1496 0.931 . S
C1481 C1480 1.391 . S
C1481 C1485 1.376 . S
C1482 C1480 1.394 . S
C1482 C1483 1.369 . S
C1482 C1486 1.531 . S
C1483 C1482 1.369 . S
C1483 C1484 1.410 . S
C1483 C1491 1.503 1_545 S
C1484 C1483 1.410 . S
C1484 C1485 1.392 . S
C1484 C1487 1.511 1_545 S
C1485 C1481 1.376 . S
C1485 C1484 1.392 . S
C1485 H1497 0.929 . S
C1486 C1482 1.531 . S
C1486 H1498 0.960 . S
C1486 H1499 0.962 . S
C1486 H1500 0.960 . S
C1487 C1484 1.511 1_565 S
C1487 H1501 0.961 . S
C1487 H1502 0.961 . S
C1487 H1503 0.961 . S
C1488 C1489 1.370 . S
C1488 C1490 1.363 . S
C1488 H1504 0.931 . S
C1489 C1488 1.370 . S
C1489 C1493 1.408 . S
C1490 C1488 1.363 . S
C1490 C1491 1.370 . S
C1490 C1494 1.524 . S
C1491 C1483 1.503 1_565 S
C1491 C1490 1.370 . S
C1491 C1492 1.403 . S
C1492 C1491 1.403 . S
C1492 C1493 1.404 . S
C1492 C1495 1.539 1_565 S
C1493 C1489 1.408 . S
C1493 C1492 1.404 . S
C1493 H1505 0.930 . S
C1494 C1490 1.524 . S
C1494 H1506 0.956 . S
C1494 H1507 0.961 . S
C1494 H1508 0.961 . S
C1495 C1492 1.539 1_545 S
C1495 H1509 0.958 . S
C1495 H1510 0.961 . S
C1495 H1511 0.960 . S
H1496 C1480 0.931 . S
H1497 C1485 0.929 . S
H1498 C1486 0.960 . S
H1499 C1486 0.962 . S
H1500 C1486 0.960 . S
H1501 C1487 0.961 . S
H1502 C1487 0.961 . S
H1503 C1487 0.961 . S
H1504 C1488 0.931 . S
H1505 C1493 0.930 . S
H1506 C1494 0.956 . S
H1507 C1494 0.961 . S
H1508 C1494 0.961 . S
H1509 C1495 0.958 . S
H1510 C1495 0.961 . S
H1511 C1495 0.960 . S
C1512 C1513 1.391 . S
C1512 C1514 1.394 . S
C1512 H1528 0.931 . S
C1513 C1512 1.391 . S
C1513 C1517 1.376 . S
C1514 C1512 1.394 . S
C1514 C1515 1.369 . S
C1514 C1518 1.531 . S
C1515 C1514 1.369 . S
C1515 C1516 1.410 . S
C1515 C1523 1.503 . S
C1516 C1515 1.410 . S
C1516 C1517 1.392 . S
C1516 C1519 1.511 . S
C1517 C1513 1.376 . S
C1517 C1516 1.392 . S
C1517 H1529 0.929 . S
C1518 C1514 1.531 . S
C1518 H1530 0.960 . S
C1518 H1531 0.962 . S
C1518 H1532 0.960 . S
C1519 C1516 1.511 . S
C1519 H1533 0.961 . S
C1519 H1534 0.961 1_554 S
C1519 H1535 0.961 1_554 S
C1520 C1521 1.370 . S
C1520 C1522 1.363 1_556 S
C1520 H1536 0.931 . S
C1521 C1520 1.370 . S
C1521 C1525 1.408 . S
C1522 C1520 1.363 1_554 S
C1522 C1523 1.370 . S
C1522 C1526 1.524 . S
C1523 C1515 1.503 . S
C1523 C1522 1.370 . S
C1523 C1524 1.403 1_554 S
C1524 C1523 1.403 1_556 S
C1524 C1525 1.404 . S
C1524 C1527 1.539 . S
C1525 C1521 1.408 . S
C1525 C1524 1.404 . S
C1525 H1537 0.930 . S
C1526 C1522 1.524 . S
C1526 H1538 0.956 . S
C1526 H1539 0.961 . S
C1526 H1540 0.961 . S
C1527 C1524 1.539 . S
C1527 H1541 0.958 . S
C1527 H1542 0.961 . S
C1527 H1543 0.960 . S
H1528 C1512 0.931 . S
H1529 C1517 0.929 . S
H1530 C1518 0.960 . S
H1531 C1518 0.962 . S
H1532 C1518 0.960 . S
H1533 C1519 0.961 . S
H1534 C1519 0.961 1_556 S
H1535 C1519 0.961 1_556 S
H1536 C1520 0.931 . S
H1537 C1525 0.930 . S
H1538 C1526 0.956 . S
H1539 C1526 0.961 . S
H1540 C1526 0.961 . S
H1541 C1527 0.958 . S
H1542 C1527 0.961 . S
H1543 C1527 0.960 . S
C1544 C1545 1.391 . S
C1544 C1546 1.394 . S
C1544 H1560 0.931 . S
C1545 C1544 1.391 . S
C1545 C1549 1.376 . S
C1546 C1544 1.394 . S
C1546 C1547 1.369 . S
C1546 C1550 1.531 1_545 S
C1547 C1546 1.369 . S
C1547 C1548 1.410 . S
C1547 C1555 1.513 . S
C1548 C1547 1.410 . S
C1548 C1549 1.392 . S
C1548 C1551 1.511 . S
C1549 C1545 1.376 . S
C1549 C1548 1.392 . S
C1549 H1561 0.929 . S
C1550 C1546 1.531 1_565 S
C1550 H1562 0.960 . S
C1550 H1563 0.961 1_565 S
C1550 H1564 0.960 . S
C1551 C1548 1.511 . S
C1551 H1565 0.961 . S
C1551 H1566 0.961 . S
C1551 H1567 0.961 . S
C1552 C1553 1.370 . S
C1552 C1554 1.363 1_565 S
C1552 H1568 0.931 . S
C1553 C1552 1.370 . S
C1553 C1557 1.408 . S
C1554 C1552 1.363 1_545 S
C1554 C1555 1.371 . S
C1554 C1558 1.524 . S
C1555 C1547 1.513 . S
C1555 C1554 1.371 . S
C1555 C1556 1.392 1_545 S
C1556 C1555 1.392 1_565 S
C1556 C1557 1.404 . S
C1556 C1559 1.539 . S
C1557 C1553 1.408 . S
C1557 C1556 1.404 . S
C1557 H1569 0.930 . S
C1558 C1554 1.524 . S
C1558 H1570 0.956 . S
C1558 H1571 0.961 . S
C1558 H1572 0.961 . S
C1559 C1556 1.539 . S
C1559 H1573 0.958 . S
C1559 H1574 0.961 . S
C1559 H1575 0.960 . S
H1560 C1544 0.931 . S
H1561 C1549 0.929 . S
H1562 C1550 0.960 . S
H1563 C1550 0.961 1_545 S
H1564 C1550 0.960 . S
H1565 C1551 0.961 . S
H1566 C1551 0.961 . S
H1567 C1551 0.961 . S
H1568 C1552 0.931 . S
H1569 C1557 0.930 . S
H1570 C1558 0.956 . S
H1571 C1558 0.961 . S
H1572 C1558 0.961 . S
H1573 C1559 0.958 . S
H1574 C1559 0.961 . S
H1575 C1559 0.960 . S
C1576 C1577 1.391 . S
C1576 C1578 1.394 . S
C1576 H1592 0.931 . S
C1577 C1576 1.391 . S
C1577 C1581 1.376 . S
C1578 C1576 1.394 . S
C1578 C1579 1.369 . S
C1578 C1582 1.531 . S
C1579 C1578 1.369 . S
C1579 C1580 1.410 . S
C1579 C1587 1.503 . S
C1580 C1579 1.410 . S
C1580 C1581 1.392 . S
C1580 C1583 1.511 . S
C1581 C1577 1.376 . S
C1581 C1580 1.392 . S
C1581 H1593 0.929 . S
C1582 C1578 1.531 . S
C1582 H1594 0.960 . S
C1582 H1595 0.962 . S
C1582 H1596 0.960 . S
C1583 C1580 1.511 . S
C1583 H1597 0.961 . S
C1583 H1598 0.961 . S
C1583 H1599 0.961 . S
C1584 C1585 1.370 . S
C1584 C1586 1.363 . S
C1584 H1600 0.931 . S
C1585 C1584 1.370 . S
C1585 C1589 1.408 . S
C1586 C1584 1.363 . S
C1586 C1587 1.370 . S
C1586 C1590 1.524 . S
C1587 C1579 1.503 . S
C1587 C1586 1.370 . S
C1587 C1588 1.403 . S
C1588 C1587 1.403 . S
C1588 C1589 1.404 . S
C1588 C1591 1.539 . S
C1589 C1585 1.408 . S
C1589 C1588 1.404 . S
C1589 H1601 0.930 . S
C1590 C1586 1.524 . S
C1590 H1602 0.956 . S
C1590 H1603 0.961 . S
C1590 H1604 0.961 . S
C1591 C1588 1.539 . S
C1591 H1605 0.958 . S
C1591 H1606 0.961 . S
C1591 H1607 0.960 . S
H1592 C1576 0.931 . S
H1593 C1581 0.929 . S
H1594 C1582 0.960 . S
H1595 C1582 0.962 . S
H1596 C1582 0.960 . S
H1597 C1583 0.961 . S
H1598 C1583 0.961 . S
H1599 C1583 0.961 . S
H1600 C1584 0.931 . S
H1601 C1589 0.930 . S
H1602 C1590 0.956 . S
H1603 C1590 0.961 . S
H1604 C1590 0.961 . S
H1605 C1591 0.958 . S
H1606 C1591 0.961 . S
H1607 C1591 0.960 . S
C1608 C1609 1.391 . S
C1608 C1610 1.394 . S
C1608 H1624 0.931 . S
C1609 C1608 1.391 . S
C1609 C1613 1.376 . S
C1610 C1608 1.394 . S
C1610 C1611 1.369 1_655 S
C1610 C1614 1.531 . S
C1611 C1610 1.369 1_455 S
C1611 C1612 1.410 . S
C1611 C1619 1.503 . S
C1612 C1611 1.410 . S
C1612 C1613 1.392 1_455 S
C1612 C1615 1.511 . S
C1613 C1609 1.376 . S
C1613 C1612 1.392 1_655 S
C1613 H1625 0.929 . S
C1614 C1610 1.531 . S
C1614 H1626 0.960 . S
C1614 H1627 0.962 . S
C1614 H1628 0.960 . S
C1615 C1612 1.511 . S
C1615 H1629 0.961 . S
C1615 H1630 0.961 . S
C1615 H1631 0.961 . S
C1616 C1617 1.370 . S
C1616 C1618 1.363 . S
C1616 H1632 0.931 . S
C1617 C1616 1.370 . S
C1617 C1621 1.408 . S
C1618 C1616 1.363 . S
C1618 C1619 1.370 . S
C1618 C1622 1.524 . S
C1619 C1611 1.503 . S
C1619 C1618 1.370 . S
C1619 C1620 1.403 . S
C1620 C1619 1.403 . S
C1620 C1621 1.404 . S
C1620 C1623 1.539 . S
C1621 C1617 1.408 . S
C1621 C1620 1.404 . S
C1621 H1633 0.930 . S
C1622 C1618 1.524 . S
C1622 H1634 0.956 1_455 S
C1622 H1635 0.961 . S
C1622 H1636 0.961 . S
C1623 C1620 1.539 . S
C1623 H1637 0.958 . S
C1623 H1638 0.961 . S
C1623 H1639 0.960 . S
H1624 C1608 0.931 . S
H1625 C1613 0.929 . S
H1626 C1614 0.960 . S
H1627 C1614 0.962 . S
H1628 C1614 0.960 . S
H1629 C1615 0.961 . S
H1630 C1615 0.961 . S
H1631 C1615 0.961 . S
H1632 C1616 0.931 . S
H1633 C1621 0.930 . S
H1634 C1622 0.956 1_655 S
H1635 C1622 0.961 . S
H1636 C1622 0.961 . S
H1637 C1623 0.958 . S
H1638 C1623 0.961 . S
H1639 C1623 0.960 . S
C1640 C1641 1.391 . S
C1640 C1642 1.394 1_455 S
C1640 H1656 0.931 . S
C1641 C1640 1.391 . S
C1641 C1645 1.376 . S
C1642 C1640 1.394 1_655 S
C1642 C1643 1.369 1_655 S
C1642 C1646 1.531 . S
C1643 C1642 1.369 1_455 S
C1643 C1644 1.410 . S
C1643 C1651 1.503 1_455 S
C1644 C1643 1.410 . S
C1644 C1645 1.392 . S
C1644 C1647 1.511 . S
C1645 C1641 1.376 . S
C1645 C1644 1.392 . S
C1645 H1657 0.929 . S
C1646 C1642 1.531 . S
C1646 H1658 0.960 . S
C1646 H1659 0.962 . S
C1646 H1660 0.960 . S
C1647 C1644 1.511 . S
C1647 H1661 0.961 . S
C1647 H1662 0.961 . S
C1647 H1663 0.961 . S
C1648 C1649 1.370 . S
C1648 C1650 1.363 . S
C1648 H1664 0.931 . S
C1649 C1648 1.370 . S
C1649 C1653 1.408 . S
C1650 C1648 1.363 . S
C1650 C1651 1.370 . S
C1650 C1654 1.524 . S
C1651 C1643 1.503 1_655 S
C1651 C1650 1.370 . S
C1651 C1652 1.403 1_655 S
C1652 C1651 1.403 1_455 S
C1652 C1653 1.404 1_455 S
C1652 C1655 1.539 . S
C1653 C1649 1.408 . S
C1653 C1652 1.404 1_655 S
C1653 H1665 0.930 1_655 S
C1654 C1650 1.524 . S
C1654 H1666 0.956 . S
C1654 H1667 0.961 . S
C1654 H1668 0.961 . S
C1655 C1652 1.539 . S
C1655 H1669 0.958 . S
C1655 H1670 0.961 . S
C1655 H1671 0.960 . S
H1656 C1640 0.931 . S
H1657 C1645 0.929 . S
H1658 C1646 0.960 . S
H1659 C1646 0.962 . S
H1660 C1646 0.960 . S
H1661 C1647 0.961 . S
H1662 C1647 0.961 . S
H1663 C1647 0.961 . S
H1664 C1648 0.931 . S
H1665 C1653 0.930 1_455 S
H1666 C1654 0.956 . S
H1667 C1654 0.961 . S
H1668 C1654 0.961 . S
H1669 C1655 0.958 . S
H1670 C1655 0.961 . S
H1671 C1655 0.960 . S
C1672 C1673 1.391 . S
C1672 C1674 1.394 . S
C1672 H1688 0.931 . S
C1673 C1672 1.391 . S
C1673 C1677 1.376 . S
C1674 C1672 1.394 . S
C1674 C1675 1.369 . S
C1674 C1678 1.531 . S
C1675 C1674 1.369 . S
C1675 C1676 1.410 . S
C1675 C1683 1.503 . S
C1676 C1675 1.410 . S
C1676 C1677 1.392 . S
C1676 C1679 1.511 . S
C1677 C1673 1.376 . S
C1677 C1676 1.392 . S
C1677 H1689 0.929 . S
C1678 C1674 1.531 . S
C1678 H1690 0.960 . S
C1678 H1691 0.962 . S
C1678 H1692 0.960 . S
C1679 C1676 1.511 . S
C1679 H1693 0.961 . S
C1679 H1694 0.961 . S
C1679 H1695 0.961 . S
C1680 C1681 1.370 . S
C1680 C1682 1.363 . S
C1680 H1696 0.931 . S
C1681 C1680 1.370 . S
C1681 C1685 1.408 . S
C1682 C1680 1.363 . S
C1682 C1683 1.370 . S
C1682 C1686 1.524 . S
C1683 C1675 1.503 . S
C1683 C1682 1.370 . S
C1683 C1684 1.403 . S
C1684 C1683 1.403 . S
C1684 C1685 1.404 . S
C1684 C1687 1.539 . S
C1685 C1681 1.408 . S
C1685 C1684 1.404 . S
C1685 H1697 0.930 . S
C1686 C1682 1.524 . S
C1686 H1698 0.956 . S
C1686 H1699 0.961 . S
C1686 H1700 0.961 . S
C1687 C1684 1.539 . S
C1687 H1701 0.958 . S
C1687 H1702 0.961 . S
C1687 H1703 0.960 . S
H1688 C1672 0.931 . S
H1689 C1677 0.929 . S
H1690 C1678 0.960 . S
H1691 C1678 0.962 . S
H1692 C1678 0.960 . S
H1693 C1679 0.961 . S
H1694 C1679 0.961 . S
H1695 C1679 0.961 . S
H1696 C1680 0.931 . S
H1697 C1685 0.930 . S
H1698 C1686 0.956 . S
H1699 C1686 0.961 . S
H1700 C1686 0.961 . S
H1701 C1687 0.958 . S
H1702 C1687 0.961 . S
H1703 C1687 0.960 . S
C1704 C1705 1.391 . S
C1704 C1706 1.394 1_455 S
C1704 H1720 0.931 . S
C1705 C1704 1.391 . S
C1705 C1709 1.376 . S
C1706 C1704 1.394 1_655 S
C1706 C1707 1.369 1_655 S
C1706 C1710 1.531 . S
C1707 C1706 1.369 1_455 S
C1707 C1708 1.410 . S
C1707 C1715 1.503 1_455 S
C1708 C1707 1.410 . S
C1708 C1709 1.392 . S
C1708 C1711 1.511 . S
C1709 C1705 1.376 . S
C1709 C1708 1.392 . S
C1709 H1721 0.929 . S
C1710 C1706 1.531 . S
C1710 H1722 0.960 . S
C1710 H1723 0.962 . S
C1710 H1724 0.960 . S
C1711 C1708 1.511 . S
C1711 H1725 0.961 . S
C1711 H1726 0.961 . S
C1711 H1727 0.961 . S
C1712 C1713 1.370 . S
C1712 C1714 1.363 . S
C1712 H1728 0.931 . S
C1713 C1712 1.370 . S
C1713 C1717 1.408 . S
C1714 C1712 1.363 . S
C1714 C1715 1.370 . S
C1714 C1718 1.524 1_655 S
C1715 C1707 1.503 1_655 S
C1715 C1714 1.370 . S
C1715 C1716 1.403 . S
C1716 C1715 1.403 . S
C1716 C1717 1.404 . S
C1716 C1719 1.539 . S
C1717 C1713 1.408 . S
C1717 C1716 1.404 . S
C1717 H1729 0.930 . S
C1718 C1714 1.524 1_455 S
C1718 H1730 0.958 . S
C1718 H1731 0.961 . S
C1718 H1732 0.961 . S
C1719 C1716 1.539 . S
C1719 H1733 0.958 . S
C1719 H1734 0.961 . S
C1719 H1735 0.960 . S
H1720 C1704 0.931 . S
H1721 C1709 0.929 . S
H1722 C1710 0.960 . S
H1723 C1710 0.962 . S
H1724 C1710 0.960 . S
H1725 C1711 0.961 . S
H1726 C1711 0.961 . S
H1727 C1711 0.961 . S
H1728 C1712 0.931 . S
H1729 C1717 0.930 . S
H1730 C1718 0.958 . S
H1731 C1718 0.961 . S
H1732 C1718 0.961 . S
H1733 C1719 0.958 . S
H1734 C1719 0.961 . S
H1735 C1719 0.960 . S
C1736 C1737 1.391 1_655 S
C1736 C1738 1.394 . S
C1736 H1752 0.931 . S
C1737 C1736 1.391 1_455 S
C1737 C1741 1.376 . S
C1738 C1736 1.394 . S
C1738 C1739 1.369 . S
C1738 C1742 1.531 . S
C1739 C1738 1.369 . S
C1739 C1740 1.410 1_655 S
C1739 C1747 1.503 . S
C1740 C1739 1.410 1_455 S
C1740 C1741 1.392 . S
C1740 C1743 1.511 . S
C1741 C1737 1.376 . S
C1741 C1740 1.392 . S
C1741 H1753 0.929 . S
C1742 C1738 1.531 . S
C1742 H1754 0.960 . S
C1742 H1755 0.962 . S
C1742 H1756 0.960 . S
C1743 C1740 1.511 . S
C1743 H1757 0.961 . S
C1743 H1758 0.961 . S
C1743 H1759 0.961 . S
C1744 C1745 1.370 . S
C1744 C1746 1.363 . S
C1744 H1760 0.931 . S
C1745 C1744 1.370 . S
C1745 C1749 1.408 . S
C1746 C1744 1.363 . S
C1746 C1747 1.370 . S
C1746 C1750 1.524 . S
C1747 C1739 1.503 . S
C1747 C1746 1.370 . S
C1747 C1748 1.403 . S
C1748 C1747 1.403 . S
C1748 C1749 1.404 . S
C1748 C1751 1.539 . S
C1749 C1745 1.408 . S
C1749 C1748 1.404 . S
C1749 H1761 0.930 . S
C1750 C1746 1.524 . S
C1750 H1762 0.956 . S
C1750 H1763 0.961 . S
C1750 H1764 0.961 . S
C1751 C1748 1.539 . S
C1751 H1765 0.958 . S
C1751 H1766 0.961 . S
C1751 H1767 0.960 1_655 S
H1752 C1736 0.931 . S
H1753 C1741 0.929 . S
H1754 C1742 0.960 . S
H1755 C1742 0.962 . S
H1756 C1742 0.960 . S
H1757 C1743 0.961 . S
H1758 C1743 0.961 . S
H1759 C1743 0.961 . S
H1760 C1744 0.931 . S
H1761 C1749 0.930 . S
H1762 C1750 0.956 . S
H1763 C1750 0.961 . S
H1764 C1750 0.961 . S
H1765 C1751 0.958 . S
H1766 C1751 0.961 . S
H1767 C1751 0.960 1_455 S
C1768 C1769 1.391 . S
C1768 C1770 1.394 . S
C1768 H1784 0.931 . S
C1769 C1768 1.391 . S
C1769 C1773 1.376 . S
C1770 C1768 1.394 . S
C1770 C1771 1.369 . S
C1770 C1774 1.531 . S
C1771 C1770 1.369 . S
C1771 C1772 1.410 . S
C1771 C1779 1.503 . S
C1772 C1771 1.410 . S
C1772 C1773 1.392 . S
C1772 C1775 1.511 . S
C1773 C1769 1.376 . S
C1773 C1772 1.392 . S
C1773 H1785 0.929 . S
C1774 C1770 1.531 . S
C1774 H1786 0.960 . S
C1774 H1787 0.962 . S
C1774 H1788 0.960 . S
C1775 C1772 1.511 . S
C1775 H1789 0.961 . S
C1775 H1790 0.961 . S
C1775 H1791 0.961 . S
C1776 C1777 1.370 . S
C1776 C1778 1.363 . S
C1776 H1792 0.931 . S
C1777 C1776 1.370 . S
C1777 C1781 1.408 . S
C1778 C1776 1.363 . S
C1778 C1779 1.370 . S
C1778 C1782 1.524 . S
C1779 C1771 1.503 . S
C1779 C1778 1.370 . S
C1779 C1780 1.403 . S
C1780 C1779 1.403 . S
C1780 C1781 1.404 . S
C1780 C1783 1.539 . S
C1781 C1777 1.408 . S
C1781 C1780 1.404 . S
C1781 H1793 0.930 . S
C1782 C1778 1.524 . S
C1782 H1794 0.956 . S
C1782 H1795 0.961 . S
C1782 H1796 0.961 . S
C1783 C1780 1.539 . S
C1783 H1797 0.958 . S
C1783 H1798 0.961 . S
C1783 H1799 0.960 . S
H1784 C1768 0.931 . S
H1785 C1773 0.929 . S
H1786 C1774 0.960 . S
H1787 C1774 0.962 . S
H1788 C1774 0.960 . S
H1789 C1775 0.961 . S
H1790 C1775 0.961 . S
H1791 C1775 0.961 . S
H1792 C1776 0.931 . S
H1793 C1781 0.930 . S
H1794 C1782 0.956 . S
H1795 C1782 0.961 . S
H1796 C1782 0.961 . S
H1797 C1783 0.958 . S
H1798 C1783 0.961 . S
H1799 C1783 0.960 . S
C1800 C1801 1.391 . S
C1800 C1802 1.394 . S
C1800 H1816 0.931 . S
C1801 C1800 1.391 . S
C1801 C1805 1.376 . S
C1802 C1800 1.394 . S
C1802 C1803 1.369 . S
C1802 C1806 1.531 . S
C1803 C1802 1.369 . S
C1803 C1804 1.410 . S
C1803 C1811 1.503 1_565 S
C1804 C1803 1.410 . S
C1804 C1805 1.392 . S
C1804 C1807 1.511 1_565 S
C1805 C1801 1.376 . S
C1805 C1804 1.392 . S
C1805 H1817 0.929 . S
C1806 C1802 1.531 . S
C1806 H1818 0.960 . S
C1806 H1819 0.962 . S
C1806 H1820 0.960 . S
C1807 C1804 1.511 1_545 S
C1807 H1821 0.961 . S
C1807 H1822 0.961 . S
C1807 H1823 0.964 . S
C1808 C1809 1.370 . S
C1808 C1810 1.363 . S
C1808 H1824 0.931 . S
C1809 C1808 1.370 . S
C1809 C1813 1.408 . S
C1810 C1808 1.363 . S
C1810 C1811 1.370 . S
C1810 C1814 1.524 . S
C1811 C1803 1.503 1_545 S
C1811 C1810 1.370 . S
C1811 C1812 1.403 . S
C1812 C1811 1.403 . S
C1812 C1813 1.404 . S
C1812 C1815 1.539 1_545 S
C1813 C1809 1.408 . S
C1813 C1812 1.404 . S
C1813 H1825 0.930 . S
C1814 C1810 1.524 . S
C1814 H1826 0.970 . S
C1814 H1827 0.961 . S
C1814 H1828 0.961 . S
C1815 C1812 1.539 1_565 S
C1815 H1829 0.958 . S
C1815 H1830 0.961 . S
C1815 H1831 0.960 . S
H1816 C1800 0.931 . S
H1817 C1805 0.929 . S
H1818 C1806 0.960 . S
H1819 C1806 0.962 . S
H1820 C1806 0.960 . S
H1821 C1807 0.961 . S
H1822 C1807 0.961 . S
H1823 C1807 0.964 . S
H1824 C1808 0.931 . S
H1825 C1813 0.930 . S
H1826 C1814 0.970 . S
H1827 C1814 0.961 . S
H1828 C1814 0.961 . S
H1829 C1815 0.958 . S
H1830 C1815 0.961 . S
H1831 C1815 0.960 . S
C1832 C1833 1.391 . S
C1832 C1834 1.394 1_556 S
C1832 H1848 0.931 . S
C1833 C1832 1.391 . S
C1833 C1837 1.376 . S
C1834 C1832 1.394 1_554 S
C1834 C1835 1.369 1_554 S
C1834 C1838 1.531 . S
C1835 C1834 1.369 1_556 S
C1835 C1836 1.410 . S
C1835 C1843 1.503 1_556 S
C1836 C1835 1.410 . S
C1836 C1837 1.392 . S
C1836 C1839 1.511 . S
C1837 C1833 1.376 . S
C1837 C1836 1.392 . S
C1837 H1849 0.929 . S
C1838 C1834 1.531 . S
C1838 H1850 0.960 . S
C1838 H1851 0.962 . S
C1838 H1852 0.960 . S
C1839 C1836 1.511 . S
C1839 H1853 0.961 . S
C1839 H1854 0.961 . S
C1839 H1855 0.961 . S
C1840 C1841 1.370 . S
C1840 C1842 1.363 . S
C1840 H1856 0.931 . S
C1841 C1840 1.370 . S
C1841 C1845 1.408 . S
C1842 C1840 1.363 . S
C1842 C1843 1.370 . S
C1842 C1846 1.524 1_554 S
C1843 C1835 1.503 1_554 S
C1843 C1842 1.370 . S
C1843 C1844 1.403 . S
C1844 C1843 1.403 . S
C1844 C1845 1.404 . S
C1844 C1847 1.539 . S
C1845 C1841 1.408 . S
C1845 C1844 1.404 . S
C1845 H1857 0.930 . S
C1846 C1842 1.524 1_556 S
C1846 H1858 0.956 . S
C1846 H1859 0.961 . S
C1846 H1860 0.961 . S
C1847 C1844 1.539 . S
C1847 H1861 0.958 . S
C1847 H1862 0.961 . S
C1847 H1863 0.960 . S
H1848 C1832 0.931 . S
H1849 C1837 0.929 . S
H1850 C1838 0.960 . S
H1851 C1838 0.962 . S
H1852 C1838 0.960 . S
H1853 C1839 0.961 . S
H1854 C1839 0.961 . S
H1855 C1839 0.961 . S
H1856 C1840 0.931 . S
H1857 C1845 0.930 . S
H1858 C1846 0.956 . S
H1859 C1846 0.961 . S
H1860 C1846 0.961 . S
H1861 C1847 0.958 . S
H1862 C1847 0.961 . S
H1863 C1847 0.960 . S
C1864 C1865 1.391 . S
C1864 C1866 1.394 . S
C1864 H1880 0.931 . S
C1865 C1864 1.391 . S
C1865 C1869 1.376 . S
C1866 C1864 1.394 . S
C1866 C1867 1.369 1_545 S
C1866 C1870 1.531 . S
C1867 C1866 1.369 1_565 S
C1867 C1868 1.410 . S
C1867 C1875 1.503 . S
C1868 C1867 1.410 . S
C1868 C1869 1.392 1_565 S
C1868 C1871 1.511 . S
C1869 C1865 1.376 . S
C1869 C1868 1.392 1_545 S
C1869 H1881 0.929 . S
C1870 C1866 1.531 . S
C1870 H1882 0.960 1_545 S
C1870 H1883 0.962 1_545 S
C1870 H1884 0.960 . S
C1871 C1868 1.511 . S
C1871 H1885 0.961 . S
C1871 H1886 0.961 . S
C1871 H1887 0.961 . S
C1872 C1873 1.370 . S
C1872 C1874 1.363 . S
C1872 H1888 0.931 . S
C1873 C1872 1.370 . S
C1873 C1877 1.408 . S
C1874 C1872 1.363 . S
C1874 C1875 1.370 . S
C1874 C1878 1.524 . S
C1875 C1867 1.503 . S
C1875 C1874 1.370 . S
C1875 C1876 1.403 . S
C1876 C1875 1.403 . S
C1876 C1877 1.404 . S
C1876 C1879 1.539 1_565 S
C1877 C1873 1.408 . S
C1877 C1876 1.404 . S
C1877 H1889 0.930 . S
C1878 C1874 1.524 . S
C1878 H1890 0.956 . S
C1878 H1891 0.961 . S
C1878 H1892 0.961 . S
C1879 C1876 1.539 1_545 S
C1879 H1893 0.958 . S
C1879 H1894 0.958 1_545 S
C1879 H1895 0.960 . S
H1880 C1864 0.931 . S
H1881 C1869 0.929 . S
H1882 C1870 0.960 1_565 S
H1883 C1870 0.962 1_565 S
H1884 C1870 0.960 . S
H1885 C1871 0.961 . S
H1886 C1871 0.961 . S
H1887 C1871 0.961 . S
H1888 C1872 0.931 . S
H1889 C1877 0.930 . S
H1890 C1878 0.956 . S
H1891 C1878 0.961 . S
H1892 C1878 0.961 . S
H1893 C1879 0.958 . S
H1894 C1879 0.958 1_565 S
H1895 C1879 0.960 . S
C1896 C1897 1.391 . S
C1896 C1898 1.394 . S
C1896 H1912 0.931 . S
C1897 C1896 1.391 . S
C1897 C1901 1.376 . S
C1898 C1896 1.394 . S
C1898 C1899 1.369 . S
C1898 C1902 1.531 . S
C1899 C1898 1.369 . S
C1899 C1900 1.410 . S
C1899 C1907 1.503 . S
C1900 C1899 1.410 . S
C1900 C1901 1.392 . S
C1900 C1903 1.511 . S
C1901 C1897 1.376 . S
C1901 C1900 1.392 . S
C1901 H1913 0.929 . S
C1902 C1898 1.531 . S
C1902 H1914 0.960 . S
C1902 H1915 0.962 . S
C1902 H1916 0.960 . S
C1903 C1900 1.511 . S
C1903 H1917 0.961 . S
C1903 H1918 0.961 . S
C1903 H1919 0.961 . S
C1904 C1905 1.370 . S
C1904 C1906 1.363 . S
C1904 H1920 0.931 . S
C1905 C1904 1.370 . S
C1905 C1909 1.408 . S
C1906 C1904 1.363 . S
C1906 C1907 1.370 . S
C1906 C1910 1.524 . S
C1907 C1899 1.503 . S
C1907 C1906 1.370 . S
C1907 C1908 1.403 . S
C1908 C1907 1.403 . S
C1908 C1909 1.404 . S
C1908 C1911 1.539 . S
C1909 C1905 1.408 . S
C1909 C1908 1.404 . S
C1909 H1921 0.930 . S
C1910 C1906 1.524 . S
C1910 H1922 0.956 . S
C1910 H1923 0.961 . S
C1910 H1924 0.961 . S
C1911 C1908 1.539 . S
C1911 H1925 0.958 . S
C1911 H1926 0.961 . S
C1911 H1927 0.960 . S
H1912 C1896 0.931 . S
H1913 C1901 0.929 . S
H1914 C1902 0.960 . S
H1915 C1902 0.962 . S
H1916 C1902 0.960 . S
H1917 C1903 0.961 . S
H1918 C1903 0.961 . S
H1919 C1903 0.961 . S
H1920 C1904 0.931 . S
H1921 C1909 0.930 . S
H1922 C1910 0.956 . S
H1923 C1910 0.961 . S
H1924 C1910 0.961 . S
H1925 C1911 0.958 . S
H1926 C1911 0.961 . S
H1927 C1911 0.960 . S
C1928 C1929 1.391 . S
C1928 C1930 1.394 . S
C1928 H1944 0.931 . S
C1929 C1928 1.391 . S
C1929 C1933 1.376 . S
C1930 C1928 1.394 . S
C1930 C1931 1.369 1_554 S
C1930 C1934 1.531 . S
C1931 C1930 1.369 1_556 S
C1931 C1932 1.410 . S
C1931 C1939 1.503 . S
C1932 C1931 1.410 . S
C1932 C1933 1.392 1_556 S
C1932 C1935 1.511 . S
C1933 C1929 1.376 . S
C1933 C1932 1.392 1_554 S
C1933 H1945 0.929 . S
C1934 C1930 1.531 . S
C1934 H1946 0.960 . S
C1934 H1947 0.962 . S
C1934 H1948 0.960 . S
C1935 C1932 1.511 . S
C1935 H1949 0.961 . S
C1935 H1950 0.961 . S
C1935 H1951 0.961 . S
C1936 C1937 1.370 . S
C1936 C1938 1.363 . S
C1936 H1952 0.931 . S
C1937 C1936 1.370 . S
C1937 C1941 1.408 . S
C1938 C1936 1.363 . S
C1938 C1939 1.370 . S
C1938 C1942 1.524 . S
C1939 C1931 1.503 . S
C1939 C1938 1.370 . S
C1939 C1940 1.403 . S
C1940 C1939 1.403 . S
C1940 C1941 1.404 . S
C1940 C1943 1.539 . S
C1941 C1937 1.408 . S
C1941 C1940 1.404 . S
C1941 H1953 0.930 . S
C1942 C1938 1.524 . S
C1942 H1954 0.956 . S
C1942 H1955 0.961 . S
C1942 H1956 0.961 . S
C1943 C1940 1.539 . S
C1943 H1957 0.958 . S
C1943 H1958 0.961 . S
C1943 H1959 0.960 . S
H1944 C1928 0.931 . S
H1945 C1933 0.929 . S
H1946 C1934 0.960 . S
H1947 C1934 0.962 . S
H1948 C1934 0.960 . S
H1949 C1935 0.961 . S
H1950 C1935 0.961 . S
H1951 C1935 0.961 . S
H1952 C1936 0.931 . S
H1953 C1941 0.930 . S
H1954 C1942 0.956 . S
H1955 C1942 0.961 . S
H1956 C1942 0.961 . S
H1957 C1943 0.958 . S
H1958 C1943 0.961 . S
H1959 C1943 0.960 . S
C1960 C1961 1.391 . S
C1960 C1962 1.394 . S
C1960 H1976 0.931 . S
C1961 C1960 1.391 . S
C1961 C1965 1.376 . S
C1962 C1960 1.394 . S
C1962 C1963 1.369 . S
C1962 C1966 1.531 . S
C1963 C1962 1.369 . S
C1963 C1964 1.410 . S
C1963 C1971 1.503 . S
C1964 C1963 1.410 . S
C1964 C1965 1.392 . S
C1964 C1967 1.511 . S
C1965 C1961 1.376 . S
C1965 C1964 1.392 . S
C1965 H1977 0.929 . S
C1966 C1962 1.531 . S
C1966 H1978 0.960 . S
C1966 H1979 0.962 . S
C1966 H1980 0.960 . S
C1967 C1964 1.511 . S
C1967 H1981 0.961 . S
C1967 H1982 0.961 . S
C1967 H1983 0.961 . S
C1968 C1969 1.370 . S
C1968 C1970 1.363 . S
C1968 H1984 0.931 . S
C1969 C1968 1.370 . S
C1969 C1973 1.408 . S
C1970 C1968 1.363 . S
C1970 C1971 1.370 . S
C1970 C1974 1.524 . S
C1971 C1963 1.503 . S
C1971 C1970 1.370 . S
C1971 C1972 1.403 . S
C1972 C1971 1.403 . S
C1972 C1973 1.404 . S
C1972 C1975 1.539 . S
C1973 C1969 1.408 . S
C1973 C1972 1.404 . S
C1973 H1985 0.930 . S
C1974 C1970 1.524 . S
C1974 H1986 0.956 . S
C1974 H1987 0.961 . S
C1974 H1988 0.961 . S
C1975 C1972 1.539 . S
C1975 H1989 0.958 . S
C1975 H1990 0.961 . S
C1975 H1991 0.960 . S
H1976 C1960 0.931 . S
H1977 C1965 0.929 . S
H1978 C1966 0.960 . S
H1979 C1966 0.962 . S
H1980 C1966 0.960 . S
H1981 C1967 0.961 . S
H1982 C1967 0.961 . S
H1983 C1967 0.961 . S
H1984 C1968 0.931 . S
H1985 C1973 0.930 . S
H1986 C1974 0.956 . S
H1987 C1974 0.961 . S
H1988 C1974 0.961 . S
H1989 C1975 0.958 . S
H1990 C1975 0.961 . S
H1991 C1975 0.960 . S
C1992 C1993 1.391 . S
C1992 C1994 1.394 . S
C1992 H2008 0.931 . S
C1993 C1992 1.391 . S
C1993 C1997 1.376 . S
C1994 C1992 1.394 . S
C1994 C1995 1.369 . S
C1994 C1998 1.531 . S
C1995 C1994 1.369 . S
C1995 C1996 1.410 . S
C1995 C2003 1.503 . S
C1996 C1995 1.410 . S
C1996 C1997 1.392 . S
C1996 C1999 1.511 . S
C1997 C1993 1.376 . S
C1997 C1996 1.392 . S
C1997 H2009 0.929 . S
C1998 C1994 1.531 . S
C1998 H2010 0.960 . S
C1998 H2011 0.962 . S
C1998 H2012 0.960 . S
C1999 C1996 1.511 . S
C1999 H2013 0.961 . S
C1999 H2014 0.961 . S
C1999 H2015 0.961 . S
C2000 C2001 1.370 . S
C2000 C2002 1.363 . S
C2000 H2016 0.931 . S
C2001 C2000 1.370 . S
C2001 C2005 1.408 . S
C2002 C2000 1.363 . S
C2002 C2003 1.370 . S
C2002 C2006 1.524 . S
C2003 C1995 1.503 . S
C2003 C2002 1.370 . S
C2003 C2004 1.403 . S
C2004 C2003 1.403 . S
C2004 C2005 1.404 . S
C2004 C2007 1.539 . S
C2005 C2001 1.408 . S
C2005 C2004 1.404 . S
C2005 H2017 0.930 . S
C2006 C2002 1.524 . S
C2006 H2018 0.956 . S
C2006 H2019 0.961 . S
C2006 H2020 0.961 . S
C2007 C2004 1.539 . S
C2007 H2021 0.958 . S
C2007 H2022 0.961 . S
C2007 H2023 0.960 . S
H2008 C1992 0.931 . S
H2009 C1997 0.929 . S
H2010 C1998 0.960 . S
H2011 C1998 0.962 . S
H2012 C1998 0.960 . S
H2013 C1999 0.961 . S
H2014 C1999 0.961 . S
H2015 C1999 0.961 . S
H2016 C2000 0.931 . S
H2017 C2005 0.930 . S
H2018 C2006 0.956 . S
H2019 C2006 0.961 . S
H2020 C2006 0.961 . S
H2021 C2007 0.958 . S
H2022 C2007 0.961 . S
H2023 C2007 0.960 . S
C2024 C2025 1.391 . S
C2024 C2026 1.394 . S
C2024 H2040 0.931 . S
C2025 C2024 1.391 . S
C2025 C2029 1.376 . S
C2026 C2024 1.394 . S
C2026 C2027 1.369 . S
C2026 C2030 1.531 . S
C2027 C2026 1.369 . S
C2027 C2028 1.410 . S
C2027 C2035 1.503 . S
C2028 C2027 1.410 . S
C2028 C2029 1.392 . S
C2028 C2031 1.511 . S
C2029 C2025 1.376 . S
C2029 C2028 1.392 . S
C2029 H2041 0.929 . S
C2030 C2026 1.531 . S
C2030 H2042 0.960 . S
C2030 H2043 0.962 . S
C2030 H2044 0.960 . S
C2031 C2028 1.511 . S
C2031 H2045 0.961 . S
C2031 H2046 0.961 . S
C2031 H2047 0.961 . S
C2032 C2033 1.370 . S
C2032 C2034 1.363 . S
C2032 H2048 0.931 . S
C2033 C2032 1.370 . S
C2033 C2037 1.408 . S
C2034 C2032 1.363 . S
C2034 C2035 1.370 . S
C2034 C2038 1.524 . S
C2035 C2027 1.503 . S
C2035 C2034 1.370 . S
C2035 C2036 1.403 . S
C2036 C2035 1.403 . S
C2036 C2037 1.404 . S
C2036 C2039 1.539 . S
C2037 C2033 1.408 . S
C2037 C2036 1.404 . S
C2037 H2049 0.930 . S
C2038 C2034 1.524 . S
C2038 H2050 0.956 . S
C2038 H2051 0.961 . S
C2038 H2052 0.961 . S
C2039 C2036 1.539 . S
C2039 H2053 0.958 . S
C2039 H2054 0.961 . S
C2039 H2055 0.960 . S
H2040 C2024 0.931 . S
H2041 C2029 0.929 . S
H2042 C2030 0.960 . S
H2043 C2030 0.962 . S
H2044 C2030 0.960 . S
H2045 C2031 0.961 . S
H2046 C2031 0.961 . S
H2047 C2031 0.961 . S
H2048 C2032 0.931 . S
H2049 C2037 0.930 . S
H2050 C2038 0.956 . S
H2051 C2038 0.961 . S
H2052 C2038 0.961 . S
H2053 C2039 0.958 . S
H2054 C2039 0.961 . S
H2055 C2039 0.960 . S
C2056 C2057 1.391 . S
C2056 C2058 1.394 . S
C2056 H2072 0.931 . S
C2057 C2056 1.391 . S
C2057 C2061 1.376 . S
C2058 C2056 1.394 . S
C2058 C2059 1.369 . S
C2058 C2062 1.531 . S
C2059 C2058 1.369 . S
C2059 C2060 1.410 . S
C2059 C2067 1.503 . S
C2060 C2059 1.410 . S
C2060 C2061 1.392 . S
C2060 C2063 1.511 . S
C2061 C2057 1.376 . S
C2061 C2060 1.392 . S
C2061 H2073 0.929 . S
C2062 C2058 1.531 . S
C2062 H2074 0.960 . S
C2062 H2075 0.962 . S
C2062 H2076 0.960 . S
C2063 C2060 1.511 . S
C2063 H2077 0.961 . S
C2063 H2078 0.961 . S
C2063 H2079 0.961 . S
C2064 C2065 1.370 . S
C2064 C2066 1.363 . S
C2064 H2080 0.931 . S
C2065 C2064 1.370 . S
C2065 C2069 1.408 . S
C2066 C2064 1.363 . S
C2066 C2067 1.370 . S
C2066 C2070 1.524 . S
C2067 C2059 1.503 . S
C2067 C2066 1.370 . S
C2067 C2068 1.403 . S
C2068 C2067 1.403 . S
C2068 C2069 1.404 . S
C2068 C2071 1.539 . S
C2069 C2065 1.408 . S
C2069 C2068 1.404 . S
C2069 H2081 0.930 . S
C2070 C2066 1.524 . S
C2070 H2082 0.956 . S
C2070 H2083 0.961 . S
C2070 H2084 0.961 . S
C2071 C2068 1.539 . S
C2071 H2085 0.958 . S
C2071 H2086 0.961 . S
C2071 H2087 0.960 . S
H2072 C2056 0.931 . S
H2073 C2061 0.929 . S
H2074 C2062 0.960 . S
H2075 C2062 0.962 . S
H2076 C2062 0.960 . S
H2077 C2063 0.961 . S
H2078 C2063 0.961 . S
H2079 C2063 0.961 . S
H2080 C2064 0.931 . S
H2081 C2069 0.930 . S
H2082 C2070 0.956 . S
H2083 C2070 0.961 . S
H2084 C2070 0.961 . S
H2085 C2071 0.958 . S
H2086 C2071 0.961 . S
H2087 C2071 0.960 . S
C553 C16 1.596 . S
C561 N209 1.600 . S
C585 N35 1.272 . S
C593 C246 1.266 . S
C617 N255 1.401 . S
C625 N58 1.403 . S
C649 N186 1.491 . S
C657 C85 1.536 . S
C681 N242 1.587 . S
C689 C99 1.615 . S
C713 N117 1.316 . S
C721 C260 1.339 . S
C745 N140 1.395 . S
C753 C191 1.442 . S
C777 C214 1.461 . S
C785 C168 1.459 . S
C809 N94 1.058 . S
C817 N288 1.035 . S
C841 N163 1.562 . S
C849 C361 1.597 . S
C873 C375 1.348 . S
C881 C122 1.354 . S
C905 N81 0.952 . S
C913 N301 0.915 . S
C937 N324 1.910 . S
C945 C145 1.937 . S
C969 N12 1.281 . S
C977 N439 1.286 . S
C1001 C62 1.629 . S
C1009 C421 1.643 . S
C1033 N357 1.223 . S
C1041 C499 1.224 . S
C1065 C522 1.618 . S
C1073 C292 1.651 . S
C1097 N531 1.329 . S
C1105 N370 1.355 . S
C1129 C476 1.510 . S
C1137 C329 1.527 . S
C1161 N518 1.238 . S
C1169 N393 1.246 . S
C1193 N416 1.623 . S
C1201 C536 1.655 . S
C1225 N472 1.426 . S
C1233 C306 1.435 . S
C1257 C444 1.485 . S
C1265 N495 1.470 . S
C1289 C39 1.988 . S
C1297 C398 1.991 . S
C1321 C108 1.333 . S
C1329 C7 1.326 . S
C1353 N25 0.811 . S
C1361 N127 0.852 . S
C1385 N48 0.990 . S
C1393 N150 1.000 . S
C1417 C177 1.036 . S
C1425 C76 1.047 . S
C1449 N196 1.088 . S
C1457 C223 1.083 . S
C1481 N219 1.176 . S
C1489 N232 1.168 . S
C1513 C269 0.871 . S
C1521 C237 0.901 . S
C1545 C200 1.077 . S
C1553 N265 1.079 . S
C1577 N71 0.629 . S
C1585 N278 0.617 . S
C1609 N173 1.213 . S
C1617 C430 1.212 . S
C1641 N104 0.620 . S
C1649 N311 0.628 . S
C1673 N449 0.940 . S
C1681 C131 0.972 . S
C1705 N334 1.506 . S
C1713 C30 1.523 . S
C1737 N2 0.921 . S
C1745 C384 0.973 . S
C1769 C53 1.345 . S
C1777 C352 1.347 . S
C1801 N347 0.892 . S
C1809 N403 0.899 . S
C1833 N426 1.174 . S
C1841 C283 1.217 . S
C1865 N380 1.005 . S
C1873 C315 1.031 . S
C1897 C338 1.005 . S
C1905 C453 1.018 . S
C1929 N485 1.113 . S
C1937 C467 1.146 . S
C1961 N508 0.957 . S
C1969 C490 0.965 . S
C1993 C545 1.177 . S
C2001 C513 1.177 . S
C2025 N462 0.972 . S
C2033 N541 0.975 . S
C2057 C407 1.603 . S
C2065 C154 1.592 . S
