# Generated by pormake.
# Topology sra, (4)-cn, num edge types: 1
# Building blocks:
#     Node 0, Type 0, BuildingBlock: NAHDIM_clean_sbu_0, # of connection points: 4
#     Node 1, Type 0, BuildingBlock: NAHDIM_clean_sbu_0, # of connection points: 4
#     Node 2, Type 0, BuildingBlock: NAHDIM_clean_sbu_0, # of connection points: 4
#     Node 3, Type 0, BuildingBlock: NAHDIM_clean_sbu_0, # of connection points: 4
#     Node 4, Type 0, BuildingBlock: NAHDIM_clean_sbu_0, # of connection points: 4
#     Node 5, Type 0, BuildingBlock: NAHDIM_clean_sbu_0, # of connection points: 4
#     Node 6, Type 0, BuildingBlock: NAHDIM_clean_sbu_0, # of connection points: 4
#     Node 7, Type 0, BuildingBlock: NAHDIM_clean_sbu_0, # of connection points: 4
#     Edge 8, Type (0, 0), BuildingBlock: AJUNOK_clean_linker_0, # of connection points: 2
#     Edge 9, Type (0, 0), BuildingBlock: AJUNOK_clean_linker_0, # of connection points: 2
#     Edge 10, Type (0, 0), BuildingBlock: AJUNOK_clean_linker_0, # of connection points: 2
#     Edge 11, Type (0, 0), BuildingBlock: AJUNOK_clean_linker_0, # of connection points: 2
#     Edge 12, Type (0, 0), BuildingBlock: AJUNOK_clean_linker_0, # of connection points: 2
#     Edge 13, Type (0, 0), BuildingBlock: AJUNOK_clean_linker_0, # of connection points: 2
#     Edge 14, Type (0, 0), BuildingBlock: AJUNOK_clean_linker_0, # of connection points: 2
#     Edge 15, Type (0, 0), BuildingBlock: AJUNOK_clean_linker_0, # of connection points: 2
#     Edge 16, Type (0, 0), BuildingBlock: AJUNOK_clean_linker_0, # of connection points: 2
#     Edge 17, Type (0, 0), BuildingBlock: AJUNOK_clean_linker_0, # of connection points: 2
#     Edge 18, Type (0, 0), BuildingBlock: AJUNOK_clean_linker_0, # of connection points: 2
#     Edge 19, Type (0, 0), BuildingBlock: AJUNOK_clean_linker_0, # of connection points: 2
#     Edge 20, Type (0, 0), BuildingBlock: AJUNOK_clean_linker_0, # of connection points: 2
#     Edge 21, Type (0, 0), BuildingBlock: AJUNOK_clean_linker_0, # of connection points: 2
#     Edge 22, Type (0, 0), BuildingBlock: AJUNOK_clean_linker_0, # of connection points: 2
#     Edge 23, Type (0, 0), BuildingBlock: AJUNOK_clean_linker_0, # of connection points: 2
# Relax obj value: 0.090
# Max RMSD: 0.091
# Mean RMSD: 0.091
data_MOF--net-sra--node1-NAHDIM_clean_sbu_0--edge1-AJUNOK_clean_linker_0
_symmetry_space_group_name_H-M    P1
_symmetry_Int_Tables_number       1
_symmetry_cell_setting            triclinic
loop_
_symmetry_equiv_pos_as_xyz
'x, y, z'
_cell_length_a     18.370764
_cell_length_b     36.101351
_cell_length_c     30.827027
_cell_angle_alpha  90.360653
_cell_angle_beta   89.693909
_cell_angle_gamma 89.797402
loop_
_atom_site_label
_atom_site_type_symbol
_atom_site_fract_x
_atom_site_fract_y
_atom_site_fract_z
_atom_type_partial_charge
C0 C 0.00801 0.03867 0.06696 0.0
O1 O 0.00112 0.01783 0.10153 0.0
O2 O 0.91928 0.07821 0.1621 0.0
Zn3 Zn 0.01218 0.09491 0.13221 0.0
O4 O 0.10526 0.07974 0.16233 0.0
C5 C 0.97884 0.17056 0.15613 0.0
O6 O 0.94269 0.15417 0.18743 0.0
O7 O 0.01378 0.07348 0.07199 0.0
C8 C 0.12556 0.09547 0.19721 0.0
O9 O 0.08278 0.12013 0.21583 0.0
C10 C 0.91263 0.06841 0.20145 0.0
O11 O 0.97046 0.06716 0.22623 0.0
O12 O 0.01201 0.15072 0.12808 0.0
C13 C 0.03707 0.46498 0.07596 0.0
O14 O 0.05013 0.48384 0.11164 0.0
O15 O 0.12279 0.41996 0.16716 0.0
Zn16 Zn 0.02974 0.40624 0.13694 0.0
O17 O 0.94156 0.42209 0.17142 0.0
C18 C 0.00254 0.33152 0.16152 0.0
O19 O 0.98265 0.34863 0.19742 0.0
O20 O 0.02668 0.4303 0.0786 0.0
C21 C 0.88001 0.41436 0.15515 0.0
O22 O 0.87816 0.39882 0.1165 0.0
C23 C 0.12793 0.41984 0.20824 0.0
O24 O 0.0701 0.41191 0.23157 0.0
O25 O 0.02596 0.35068 0.12995 0.0
C26 C 0.01588 0.96722 0.89669 0.0
O27 O 0.02099 0.98588 0.86036 0.0
O28 O 0.92494 0.91384 0.80479 0.0
Zn29 Zn 0.01934 0.90596 0.83726 0.0
O30 O 0.10941 0.92251 0.80537 0.0
C31 C 0.98446 0.82775 0.85001 0.0
O32 O 0.9164 0.83877 0.84732 0.0
O33 O 0.01386 0.93208 0.89483 0.0
C34 C 0.12646 0.90778 0.76916 0.0
O35 O 0.08073 0.88487 0.75048 0.0
C36 C 0.91665 0.93061 0.769 0.0
O37 O 0.97325 0.94559 0.74984 0.0
O38 O 0.03485 0.8516 0.84731 0.0
C39 C 0.00847 0.53548 0.90731 0.0
O40 O 0.97927 0.51639 0.87546 0.0
O41 O 0.09606 0.58394 0.8032 0.0
Zn42 Zn 0.00945 0.59223 0.84267 0.0
O43 O 0.91589 0.57318 0.81757 0.0
C44 C 0.04788 0.6694 0.85397 0.0
O45 O 0.11455 0.65612 0.85363 0.0
O46 O 0.02669 0.56887 0.90065 0.0
C47 C 0.90593 0.56645 0.77756 0.0
O48 O 0.96077 0.56991 0.7504 0.0
C49 C 0.11881 0.5526 0.78973 0.0
O50 O 0.08357 0.52257 0.80112 0.0
O51 O 0.99497 0.64704 0.8506 0.0
C52 C 0.5197 0.53234 0.57574 0.0
O53 O 0.54907 0.51297 0.60709 0.0
O54 O 0.41945 0.57903 0.68073 0.0
Zn55 Zn 0.5096 0.58578 0.64422 0.0
O56 O 0.59797 0.56324 0.67158 0.0
C57 C 0.49078 0.66428 0.62402 0.0
O58 O 0.4313 0.65358 0.60412 0.0
O59 O 0.49699 0.56492 0.58405 0.0
C60 C 0.61153 0.56919 0.71132 0.0
O61 O 0.56301 0.58706 0.73502 0.0
C62 C 0.38232 0.54946 0.68304 0.0
O63 O 0.40351 0.52022 0.66072 0.0
O64 O 0.5309 0.64013 0.64181 0.0
C65 C 0.52753 0.95898 0.56487 0.0
O66 O 0.53376 0.97897 0.60043 0.0
O67 O 0.61852 0.91252 0.65618 0.0
Zn68 Zn 0.52304 0.90015 0.62661 0.0
O69 O 0.43284 0.91619 0.65951 0.0
C70 C 0.55013 0.82224 0.64131 0.0
O71 O 0.59326 0.83516 0.67164 0.0
O72 O 0.52213 0.92407 0.56814 0.0
C73 C 0.41715 0.9028 0.6964 0.0
O74 O 0.46273 0.87969 0.7148 0.0
C75 C 0.62721 0.92736 0.6933 0.0
O76 O 0.56999 0.93697 0.71651 0.0
O77 O 0.51546 0.84498 0.61778 0.0
C78 C 0.50972 0.46632 0.40277 0.0
O79 O 0.47608 0.48194 0.37011 0.0
O80 O 0.43463 0.41456 0.31439 0.0
Zn81 Zn 0.53499 0.40864 0.33955 0.0
O82 O 0.61366 0.42633 0.29915 0.0
C83 C 0.50221 0.33272 0.36036 0.0
O84 O 0.43755 0.34676 0.36874 0.0
O85 O 0.53997 0.43495 0.39695 0.0
C86 C 0.62016 0.40945 0.26305 0.0
O87 O 0.57236 0.3838 0.2531 0.0
C88 C 0.4175 0.43419 0.28193 0.0
O89 O 0.46813 0.45318 0.26177 0.0
O90 O 0.55289 0.35427 0.3484 0.0
C91 C 0.52011 0.03406 0.39796 0.0
O92 O 0.51856 0.01611 0.36078 0.0
O93 O 0.61091 0.08705 0.30862 0.0
Zn94 Zn 0.51641 0.09613 0.34099 0.0
O95 O 0.42647 0.08092 0.30831 0.0
C96 C 0.55678 0.17367 0.35264 0.0
O97 O 0.6232 0.16161 0.34495 0.0
O98 O 0.51957 0.06924 0.39764 0.0
C99 C 0.41607 0.08911 0.2688 0.0
O100 O 0.46794 0.10576 0.24694 0.0
C101 C 0.62273 0.06443 0.27758 0.0
O102 O 0.56948 0.04363 0.26313 0.0
O103 O 0.50467 0.15065 0.35299 0.0
C104 C 0.96334 0.27092 0.19227 0.0
C105 C 0.99661 0.29059 0.15829 0.0
C106 C 0.95711 0.23233 0.19084 0.0
C107 C 0.98421 0.21158 0.15546 0.0
H108 H 0.94178 0.28538 0.22046 0.0
H109 H 0.93143 0.2187 0.21809 0.0
S110 S 0.075 0.2496 0.05749 0.0
N111 N 0.05611 0.28636 0.08767 0.0
N112 N 0.04466 0.21371 0.08504 0.0
C113 C 0.01718 0.23084 0.12098 0.0
C114 C 0.02327 0.27031 0.12237 0.0
C115 C 0.94639 0.76132 0.85364 0.0
C116 C 0.0025 0.78773 0.85361 0.0
C117 C 0.9617 0.7233 0.8546 0.0
C118 C 0.03384 0.70996 0.85558 0.0
H119 H 0.88993 0.76996 0.85227 0.0
H120 H 0.91632 0.70424 0.85395 0.0
S121 S 0.20096 0.76757 0.858 0.0
N122 N 0.1335 0.79781 0.85621 0.0
N123 N 0.16213 0.72642 0.85801 0.0
C124 C 0.09058 0.73605 0.85658 0.0
C125 C 0.07499 0.77486 0.85559 0.0
C126 C 0.4667 0.73076 0.60599 0.0
C127 C 0.50931 0.70422 0.62751 0.0
C128 C 0.48116 0.76872 0.61005 0.0
C129 C 0.53858 0.78178 0.63602 0.0
H130 H 0.42129 0.72228 0.58604 0.0
H131 H 0.44609 0.78797 0.59318 0.0
S132 S 0.66853 0.72376 0.69796 0.0
N133 N 0.61314 0.69376 0.67485 0.0
N134 N 0.63994 0.76497 0.68251 0.0
C135 C 0.58244 0.75555 0.6572 0.0
C136 C 0.56795 0.71685 0.65292 0.0
C137 C 0.58481 0.27783 0.35171 0.0
C138 C 0.51521 0.29209 0.36172 0.0
C139 C 0.598 0.23961 0.3499 0.0
C140 C 0.54213 0.21395 0.35786 0.0
H141 H 0.62956 0.29629 0.34449 0.0
H142 H 0.65227 0.23021 0.34128 0.0
S143 S 0.35097 0.23671 0.38816 0.0
N144 N 0.39031 0.27734 0.38173 0.0
N145 N 0.41501 0.20558 0.37826 0.0
C146 C 0.47264 0.22777 0.36908 0.0
C147 C 0.45924 0.26677 0.37104 0.0
C148 C 0.28094 0.09021 0.27712 0.0
C149 C 0.34238 0.08575 0.2501 0.0
C150 C 0.21071 0.09224 0.25976 0.0
C151 C 0.19911 0.08889 0.21488 0.0
H152 H 0.2873 0.09391 0.3118 0.0
H153 H 0.16524 0.09714 0.28161 0.0
S154 S 0.34122 0.07372 0.13058 0.0
N155 N 0.38689 0.07618 0.17651 0.0
N156 N 0.25453 0.07878 0.14393 0.0
C157 C 0.25969 0.08251 0.1877 0.0
C158 C 0.33144 0.08131 0.2053 0.0
C159 C 0.6859 0.39904 0.19296 0.0
C160 C 0.68423 0.41546 0.23446 0.0
C161 C 0.74844 0.40031 0.1669 0.0
C162 C 0.8123 0.4178 0.18135 0.0
H163 H 0.63905 0.3842 0.18076 0.0
H164 H 0.74724 0.38624 0.13578 0.0
S165 S 0.83458 0.46819 0.28579 0.0
N166 N 0.75048 0.45227 0.28754 0.0
N167 N 0.8683 0.45442 0.23861 0.0
C168 C 0.81049 0.43585 0.22196 0.0
C169 C 0.74643 0.43477 0.24847 0.0
C170 C 0.21222 0.91112 0.70625 0.0
C171 C 0.20084 0.91173 0.75138 0.0
C172 C 0.28278 0.91037 0.68864 0.0
C173 C 0.34428 0.90902 0.71561 0.0
H174 H 0.16622 0.91052 0.68441 0.0
H175 H 0.28906 0.909 0.6537 0.0
S176 S 0.34405 0.91147 0.83582 0.0
N177 N 0.25705 0.91277 0.82265 0.0
N178 N 0.38954 0.90995 0.78948 0.0
C179 C 0.33373 0.91054 0.76072 0.0
C180 C 0.262 0.91229 0.77865 0.0
C181 C 0.69999 0.56999 0.77255 0.0
C182 C 0.68539 0.562 0.72875 0.0
C183 C 0.77115 0.56933 0.78855 0.0
C184 C 0.83084 0.56093 0.76133 0.0
H185 H 0.65649 0.57824 0.79446 0.0
H186 H 0.77947 0.57719 0.82212 0.0
S187 S 0.82133 0.53255 0.64558 0.0
N188 N 0.73604 0.54122 0.65949 0.0
N189 N 0.86984 0.54034 0.6896 0.0
C190 C 0.81669 0.55049 0.71817 0.0
C191 C 0.744 0.5509 0.70189 0.0
C192 C 0.71103 0.92921 0.7569 0.0
C193 C 0.70126 0.93073 0.71172 0.0
C194 C 0.78085 0.92949 0.77507 0.0
C195 C 0.84359 0.93212 0.74886 0.0
H196 H 0.6645 0.92669 0.7784 0.0
H197 H 0.78566 0.92752 0.81 0.0
S198 S 0.84744 0.93873 0.62877 0.0
N199 N 0.76008 0.936 0.64118 0.0
N200 N 0.8912 0.93739 0.67539 0.0
C201 C 0.83451 0.93478 0.7037 0.0
C202 C 0.76342 0.93381 0.68513 0.0
C203 C 0.29109 0.58161 0.73069 0.0
C204 C 0.31501 0.54883 0.71004 0.0
C205 C 0.22771 0.58242 0.75605 0.0
C206 C 0.18535 0.55045 0.76218 0.0
H207 H 0.32138 0.60712 0.72722 0.0
H208 H 0.21217 0.60847 0.77117 0.0
S209 S 0.22346 0.45735 0.71515 0.0
N210 N 0.29082 0.48341 0.69734 0.0
N211 N 0.17168 0.48492 0.74519 0.0
C212 C 0.20846 0.51738 0.7418 0.0
C213 C 0.27315 0.51658 0.71572 0.0
C214 C 0.75747 0.0717 0.28291 0.0
C215 C 0.69634 0.06232 0.25786 0.0
C216 C 0.82756 0.07203 0.26477 0.0
C217 C 0.83913 0.06377 0.22062 0.0
H218 H 0.75111 0.07913 0.31683 0.0
H219 H 0.87263 0.08012 0.28523 0.0
S220 S 0.69776 0.0362 0.14127 0.0
N221 N 0.65229 0.04314 0.18699 0.0
N222 N 0.78393 0.04461 0.15258 0.0
C223 C 0.77871 0.05366 0.19535 0.0
C224 C 0.70738 0.05266 0.21406 0.0
C225 C 0.2585 0.43926 0.20409 0.0
C226 C 0.19964 0.42608 0.229 0.0
C227 C 0.32819 0.44296 0.22186 0.0
C228 C 0.34207 0.43323 0.26514 0.0
H229 H 0.25109 0.44632 0.17029 0.0
H230 H 0.3719 0.45247 0.20105 0.0
S231 S 0.20608 0.39978 0.34525 0.0
N232 N 0.15938 0.40521 0.30013 0.0
N233 N 0.29034 0.41189 0.33333 0.0
C234 C 0.28337 0.42108 0.29085 0.0
C235 C 0.21221 0.41761 0.27286 0.0
C236 C 0.00433 0.98289 0.01852 0.0
C237 C 0.00954 0.0216 0.02299 0.0
C238 C 0.0062 0.96574 0.97766 0.0
C239 C 0.01329 0.98653 0.93939 0.0
H240 H 0.99893 0.96547 0.04683 0.0
H241 H 0.00214 0.93583 0.97624 0.0
S242 S 0.02843 0.08896 0.933 0.0
N243 N 0.02171 0.08039 0.98538 0.0
N244 N 0.02518 0.04817 0.90862 0.0
C245 C 0.01825 0.02533 0.94328 0.0
C246 C 0.0164 0.04284 0.985 0.0
C247 C 0.00266 0.48055 0.95612 0.0
C248 C 0.01829 0.51835 0.95053 0.0
C249 C 0.00964 0.4636 -0.0034 0.0
C250 C 0.03228 0.48373 0.03335 0.0
H251 H 0.98457 0.46375 0.92904 0.0
H252 H 0.99642 0.43446 -0.00095 0.0
S253 S 0.08145 0.58344 0.03615 0.0
N254 N 0.05871 0.57541 0.98525 0.0
N255 N 0.07167 0.54356 0.06134 0.0
C256 C 0.04878 0.52152 0.02824 0.0
C257 C 0.04188 0.5388 0.98688 0.0
C258 C 0.54356 0.46556 0.48118 0.0
C259 C 0.51121 0.48424 0.44624 0.0
C260 C 0.54548 0.4813 0.52274 0.0
C261 C 0.51532 0.5165 0.53128 0.0
H262 H 0.56765 0.43838 0.47658 0.0
H263 H 0.57123 0.46564 0.54832 0.0
S264 S 0.42393 0.57719 0.45118 0.0
N265 N 0.44802 0.54005 0.42302 0.0
N266 N 0.45175 0.56968 0.50119 0.0
C267 C 0.48267 0.53559 0.4967 0.0
C268 C 0.4806 0.51948 0.45424 0.0
C269 C 0.52911 0.01592 0.51907 0.0
C270 C 0.52608 0.97707 0.52174 0.0
C271 C 0.52722 0.03394 0.479 0.0
C272 C 0.52234 0.01391 0.43979 0.0
H273 H 0.53278 0.03275 0.54818 0.0
H274 H 0.52961 0.06391 0.47892 0.0
S275 S 0.51335 0.91149 0.42868 0.0
N276 N 0.51828 0.91898 0.48144 0.0
N277 N 0.51478 0.95284 0.40619 0.0
C278 C 0.51952 0.97498 0.44189 0.0
C279 C 0.52136 0.95659 0.48279 0.0
loop_
_geom_bond_atom_site_label_1
_geom_bond_atom_site_label_2
_geom_bond_distance
_geom_bond_site_symmetry_2
_ccdc_geom_bond_type
C0 O1 1.160 1_455 S
C0 O7 1.185 . S
O1 C0 1.160 1_655 S
O2 Zn3 1.899 1_655 S
O2 C10 1.284 . S
Zn3 O2 1.899 1_455 S
Zn3 O4 2.032 . S
Zn3 O7 2.086 . S
Zn3 O12 1.977 . S
O4 Zn3 2.032 . S
O4 C8 1.278 . S
C5 O6 1.203 1_455 S
C5 O12 1.267 . S
O6 C5 1.203 1_655 S
O7 C0 1.185 . S
O7 Zn3 2.086 . S
C8 O4 1.278 . S
C8 O9 1.211 . S
O9 C8 1.211 . S
C10 O2 1.284 . S
C10 O11 1.273 . S
O11 C10 1.273 . S
O12 Zn3 1.977 . S
O12 C5 1.267 . S
C13 O14 1.160 . S
C13 O20 1.185 . S
O14 C13 1.160 . S
O15 Zn16 1.899 . S
O15 C23 1.284 . S
Zn16 O15 1.899 . S
Zn16 O17 2.032 1_455 S
Zn16 O20 2.086 . S
Zn16 O25 1.977 . S
O17 Zn16 2.032 1_655 S
O17 C21 1.278 . S
C18 O19 1.203 . S
C18 O25 1.267 . S
O19 C18 1.203 . S
O20 C13 1.185 . S
O20 Zn16 2.086 . S
C21 O17 1.278 . S
C21 O22 1.211 . S
O22 C21 1.211 . S
C23 O15 1.284 . S
C23 O24 1.273 . S
O24 C23 1.273 . S
O25 Zn16 1.977 . S
O25 C18 1.267 . S
C26 O27 1.160 1_455 S
C26 O33 1.185 . S
O27 C26 1.160 1_655 S
O28 Zn29 1.899 1_655 S
O28 C36 1.284 . S
Zn29 O28 1.899 1_455 S
Zn29 O30 2.032 . S
Zn29 O33 2.086 . S
Zn29 O38 1.977 . S
O30 Zn29 2.032 . S
O30 C34 1.278 . S
C31 O32 1.203 1_455 S
C31 O38 1.267 . S
O32 C31 1.203 1_655 S
O33 C26 1.185 . S
O33 Zn29 2.086 . S
C34 O30 1.278 . S
C34 O35 1.211 . S
O35 C34 1.211 . S
C36 O28 1.284 . S
C36 O37 1.273 . S
O37 C36 1.273 . S
O38 Zn29 1.977 . S
O38 C31 1.267 . S
C39 O40 1.160 . S
C39 O46 1.185 . S
O40 C39 1.160 . S
O41 Zn42 1.899 . S
O41 C49 1.284 . S
Zn42 O41 1.899 . S
Zn42 O43 2.032 1_455 S
Zn42 O46 2.086 . S
Zn42 O51 1.977 . S
O43 Zn42 2.032 1_655 S
O43 C47 1.278 . S
C44 O45 1.203 . S
C44 O51 1.267 . S
O45 C44 1.203 . S
O46 C39 1.185 . S
O46 Zn42 2.086 . S
C47 O43 1.278 . S
C47 O48 1.211 . S
O48 C47 1.211 . S
C49 O41 1.284 . S
C49 O50 1.273 . S
O50 C49 1.273 . S
O51 Zn42 1.977 . S
O51 C44 1.267 . S
C52 O53 1.160 . S
C52 O59 1.185 . S
O53 C52 1.160 . S
O54 Zn55 1.899 . S
O54 C62 1.284 . S
Zn55 O54 1.899 . S
Zn55 O56 2.032 . S
Zn55 O59 2.086 . S
Zn55 O64 1.977 . S
O56 Zn55 2.032 . S
O56 C60 1.278 . S
C57 O58 1.203 . S
C57 O64 1.267 . S
O58 C57 1.203 . S
O59 C52 1.185 . S
O59 Zn55 2.086 . S
C60 O56 1.278 . S
C60 O61 1.211 . S
O61 C60 1.211 . S
C62 O54 1.284 . S
C62 O63 1.273 . S
O63 C62 1.273 . S
O64 Zn55 1.977 . S
O64 C57 1.267 . S
C65 O66 1.160 . S
C65 O72 1.185 . S
O66 C65 1.160 . S
O67 Zn68 1.899 . S
O67 C75 1.284 . S
Zn68 O67 1.899 . S
Zn68 O69 2.032 . S
Zn68 O72 2.086 . S
Zn68 O77 1.977 . S
O69 Zn68 2.032 . S
O69 C73 1.278 . S
C70 O71 1.203 . S
C70 O77 1.267 . S
O71 C70 1.203 . S
O72 C65 1.185 . S
O72 Zn68 2.086 . S
C73 O69 1.278 . S
C73 O74 1.211 . S
O74 C73 1.211 . S
C75 O67 1.284 . S
C75 O76 1.273 . S
O76 C75 1.273 . S
O77 Zn68 1.977 . S
O77 C70 1.267 . S
C78 O79 1.160 . S
C78 O85 1.185 . S
O79 C78 1.160 . S
O80 Zn81 1.899 . S
O80 C88 1.284 . S
Zn81 O80 1.899 . S
Zn81 O82 2.032 . S
Zn81 O85 2.086 . S
Zn81 O90 1.977 . S
O82 Zn81 2.032 . S
O82 C86 1.278 . S
C83 O84 1.203 . S
C83 O90 1.267 . S
O84 C83 1.203 . S
O85 C78 1.185 . S
O85 Zn81 2.086 . S
C86 O82 1.278 . S
C86 O87 1.211 . S
O87 C86 1.211 . S
C88 O80 1.284 . S
C88 O89 1.273 . S
O89 C88 1.273 . S
O90 Zn81 1.977 . S
O90 C83 1.267 . S
C91 O92 1.160 . S
C91 O98 1.185 . S
O92 C91 1.160 . S
O93 Zn94 1.899 . S
O93 C101 1.284 . S
Zn94 O93 1.899 . S
Zn94 O95 2.032 . S
Zn94 O98 2.086 . S
Zn94 O103 1.977 . S
O95 Zn94 2.032 . S
O95 C99 1.278 . S
C96 O97 1.203 . S
C96 O103 1.267 . S
O97 C96 1.203 . S
O98 C91 1.185 . S
O98 Zn94 2.086 . S
C99 O95 1.278 . S
C99 O100 1.211 . S
O100 C99 1.211 . S
C101 O93 1.284 . S
C101 O102 1.273 . S
O102 C101 1.273 . S
O103 Zn94 1.977 . S
O103 C96 1.267 . S
C104 C105 1.369 1_655 S
C104 C106 1.419 . S
C104 H108 0.930 . S
C105 C104 1.369 1_455 S
C105 C114 1.429 . S
C106 C104 1.419 . S
C106 C107 1.363 1_655 S
C106 H109 0.929 . S
C107 C106 1.363 1_455 S
C107 C113 1.428 . S
H108 C104 0.930 . S
H109 C106 0.929 . S
S110 N111 1.613 . S
S110 N112 1.610 . S
N111 S110 1.613 . S
N111 C114 1.350 . S
N112 S110 1.610 . S
N112 C113 1.351 . S
C113 C107 1.428 . S
C113 N112 1.351 . S
C113 C114 1.434 . S
C114 C105 1.429 . S
C114 N111 1.350 . S
C114 C113 1.434 . S
C115 C116 1.369 1_655 S
C115 C117 1.419 . S
C115 H119 0.930 . S
C116 C115 1.369 1_455 S
C116 C125 1.429 . S
C117 C115 1.419 . S
C117 C118 1.363 1_655 S
C117 H120 0.929 . S
C118 C117 1.363 1_455 S
C118 C124 1.428 . S
H119 C115 0.930 . S
H120 C117 0.929 . S
S121 N122 1.613 . S
S121 N123 1.610 . S
N122 S121 1.613 . S
N122 C125 1.350 . S
N123 S121 1.610 . S
N123 C124 1.351 . S
C124 C118 1.428 . S
C124 N123 1.351 . S
C124 C125 1.434 . S
C125 C116 1.429 . S
C125 N122 1.350 . S
C125 C124 1.434 . S
C126 C127 1.369 . S
C126 C128 1.419 . S
C126 H130 0.930 . S
C127 C126 1.369 . S
C127 C136 1.429 . S
C128 C126 1.419 . S
C128 C129 1.363 . S
C128 H131 0.929 . S
C129 C128 1.363 . S
C129 C135 1.428 . S
H130 C126 0.930 . S
H131 C128 0.929 . S
S132 N133 1.613 . S
S132 N134 1.610 . S
N133 S132 1.613 . S
N133 C136 1.350 . S
N134 S132 1.610 . S
N134 C135 1.351 . S
C135 C129 1.428 . S
C135 N134 1.351 . S
C135 C136 1.434 . S
C136 C127 1.429 . S
C136 N133 1.350 . S
C136 C135 1.434 . S
C137 C138 1.369 . S
C137 C139 1.419 . S
C137 H141 0.930 . S
C138 C137 1.369 . S
C138 C147 1.429 . S
C139 C137 1.419 . S
C139 C140 1.363 . S
C139 H142 0.929 . S
C140 C139 1.363 . S
C140 C146 1.428 . S
H141 C137 0.930 . S
H142 C139 0.929 . S
S143 N144 1.613 . S
S143 N145 1.610 . S
N144 S143 1.613 . S
N144 C147 1.350 . S
N145 S143 1.610 . S
N145 C146 1.351 . S
C146 C140 1.428 . S
C146 N145 1.351 . S
C146 C147 1.434 . S
C147 C138 1.429 . S
C147 N144 1.350 . S
C147 C146 1.434 . S
C148 C149 1.369 . S
C148 C150 1.419 . S
C148 H152 0.930 . S
C149 C148 1.369 . S
C149 C158 1.429 . S
C150 C148 1.419 . S
C150 C151 1.363 . S
C150 H153 0.929 . S
C151 C150 1.363 . S
C151 C157 1.428 . S
H152 C148 0.930 . S
H153 C150 0.929 . S
S154 N155 1.613 . S
S154 N156 1.610 . S
N155 S154 1.613 . S
N155 C158 1.350 . S
N156 S154 1.610 . S
N156 C157 1.351 . S
C157 C151 1.428 . S
C157 N156 1.351 . S
C157 C158 1.434 . S
C158 C149 1.429 . S
C158 N155 1.350 . S
C158 C157 1.434 . S
C159 C160 1.369 . S
C159 C161 1.419 . S
C159 H163 0.930 . S
C160 C159 1.369 . S
C160 C169 1.429 . S
C161 C159 1.419 . S
C161 C162 1.363 . S
C161 H164 0.929 . S
C162 C161 1.363 . S
C162 C168 1.428 . S
H163 C159 0.930 . S
H164 C161 0.929 . S
S165 N166 1.613 . S
S165 N167 1.610 . S
N166 S165 1.613 . S
N166 C169 1.350 . S
N167 S165 1.610 . S
N167 C168 1.351 . S
C168 C162 1.428 . S
C168 N167 1.351 . S
C168 C169 1.434 . S
C169 C160 1.429 . S
C169 N166 1.350 . S
C169 C168 1.434 . S
C170 C171 1.369 . S
C170 C172 1.419 . S
C170 H174 0.930 . S
C171 C170 1.369 . S
C171 C180 1.429 . S
C172 C170 1.419 . S
C172 C173 1.363 . S
C172 H175 0.929 . S
C173 C172 1.363 . S
C173 C179 1.428 . S
H174 C170 0.930 . S
H175 C172 0.929 . S
S176 N177 1.613 . S
S176 N178 1.610 . S
N177 S176 1.613 . S
N177 C180 1.350 . S
N178 S176 1.610 . S
N178 C179 1.351 . S
C179 C173 1.428 . S
C179 N178 1.351 . S
C179 C180 1.434 . S
C180 C171 1.429 . S
C180 N177 1.350 . S
C180 C179 1.434 . S
C181 C182 1.369 . S
C181 C183 1.419 . S
C181 H185 0.930 . S
C182 C181 1.369 . S
C182 C191 1.429 . S
C183 C181 1.419 . S
C183 C184 1.363 . S
C183 H186 0.929 . S
C184 C183 1.363 . S
C184 C190 1.428 . S
H185 C181 0.930 . S
H186 C183 0.929 . S
S187 N188 1.613 . S
S187 N189 1.610 . S
N188 S187 1.613 . S
N188 C191 1.350 . S
N189 S187 1.610 . S
N189 C190 1.351 . S
C190 C184 1.428 . S
C190 N189 1.351 . S
C190 C191 1.434 . S
C191 C182 1.429 . S
C191 N188 1.350 . S
C191 C190 1.434 . S
C192 C193 1.369 . S
C192 C194 1.419 . S
C192 H196 0.930 . S
C193 C192 1.369 . S
C193 C202 1.429 . S
C194 C192 1.419 . S
C194 C195 1.363 . S
C194 H197 0.929 . S
C195 C194 1.363 . S
C195 C201 1.428 . S
H196 C192 0.930 . S
H197 C194 0.929 . S
S198 N199 1.613 . S
S198 N200 1.610 . S
N199 S198 1.613 . S
N199 C202 1.350 . S
N200 S198 1.610 . S
N200 C201 1.351 . S
C201 C195 1.428 . S
C201 N200 1.351 . S
C201 C202 1.434 . S
C202 C193 1.429 . S
C202 N199 1.350 . S
C202 C201 1.434 . S
C203 C204 1.369 . S
C203 C205 1.419 . S
C203 H207 0.930 . S
C204 C203 1.369 . S
C204 C213 1.429 . S
C205 C203 1.419 . S
C205 C206 1.363 . S
C205 H208 0.929 . S
C206 C205 1.363 . S
C206 C212 1.428 . S
H207 C203 0.930 . S
H208 C205 0.929 . S
S209 N210 1.613 . S
S209 N211 1.610 . S
N210 S209 1.613 . S
N210 C213 1.350 . S
N211 S209 1.610 . S
N211 C212 1.351 . S
C212 C206 1.428 . S
C212 N211 1.351 . S
C212 C213 1.434 . S
C213 C204 1.429 . S
C213 N210 1.350 . S
C213 C212 1.434 . S
C214 C215 1.369 . S
C214 C216 1.419 . S
C214 H218 0.930 . S
C215 C214 1.369 . S
C215 C224 1.429 . S
C216 C214 1.419 . S
C216 C217 1.363 . S
C216 H219 0.929 . S
C217 C216 1.363 . S
C217 C223 1.428 . S
H218 C214 0.930 . S
H219 C216 0.929 . S
S220 N221 1.613 . S
S220 N222 1.610 . S
N221 S220 1.613 . S
N221 C224 1.350 . S
N222 S220 1.610 . S
N222 C223 1.351 . S
C223 C217 1.428 . S
C223 N222 1.351 . S
C223 C224 1.434 . S
C224 C215 1.429 . S
C224 N221 1.350 . S
C224 C223 1.434 . S
C225 C226 1.369 . S
C225 C227 1.419 . S
C225 H229 0.930 . S
C226 C225 1.369 . S
C226 C235 1.429 . S
C227 C225 1.419 . S
C227 C228 1.363 . S
C227 H230 0.929 . S
C228 C227 1.363 . S
C228 C234 1.428 . S
H229 C225 0.930 . S
H230 C227 0.929 . S
S231 N232 1.613 . S
S231 N233 1.610 . S
N232 S231 1.613 . S
N232 C235 1.350 . S
N233 S231 1.610 . S
N233 C234 1.351 . S
C234 C228 1.428 . S
C234 N233 1.351 . S
C234 C235 1.434 . S
C235 C226 1.429 . S
C235 N232 1.350 . S
C235 C234 1.434 . S
C236 C237 1.369 1_665 S
C236 C238 1.419 1_554 S
C236 H240 0.930 . S
C237 C236 1.369 1_445 S
C237 C246 1.429 . S
C238 C236 1.419 1_556 S
C238 C239 1.363 1_655 S
C238 H241 0.929 . S
C239 C238 1.363 1_455 S
C239 C245 1.428 1_565 S
H240 C236 0.930 . S
H241 C238 0.929 . S
S242 N243 1.613 1_556 S
S242 N244 1.610 . S
N243 S242 1.613 1_554 S
N243 C246 1.350 . S
N244 S242 1.610 . S
N244 C245 1.351 . S
C245 C239 1.428 1_545 S
C245 N244 1.351 . S
C245 C246 1.434 1_556 S
C246 C237 1.429 . S
C246 N243 1.350 . S
C246 C245 1.434 1_554 S
C247 C248 1.369 . S
C247 C249 1.419 1_556 S
C247 H251 0.930 . S
C248 C247 1.369 . S
C248 C257 1.429 1_455 S
C249 C247 1.419 1_554 S
C249 C250 1.363 . S
C249 H252 0.929 . S
C250 C249 1.363 . S
C250 C256 1.428 1_455 S
H251 C247 0.930 . S
H252 C249 0.929 . S
S253 N254 1.613 1_554 S
S253 N255 1.610 . S
N254 S253 1.613 1_556 S
N254 C257 1.350 . S
N255 S253 1.610 . S
N255 C256 1.351 . S
C256 C250 1.428 1_655 S
C256 N255 1.351 . S
C256 C257 1.434 1_554 S
C257 C248 1.429 1_655 S
C257 N254 1.350 . S
C257 C256 1.434 1_556 S
C258 C259 1.369 . S
C258 C260 1.419 . S
C258 H262 0.930 . S
C259 C258 1.369 . S
C259 C268 1.429 . S
C260 C258 1.419 . S
C260 C261 1.363 . S
C260 H263 0.929 . S
C261 C260 1.363 . S
C261 C267 1.428 . S
H262 C258 0.930 . S
H263 C260 0.929 . S
S264 N265 1.613 . S
S264 N266 1.610 . S
N265 S264 1.613 . S
N265 C268 1.350 . S
N266 S264 1.610 . S
N266 C267 1.351 . S
C267 C261 1.428 . S
C267 N266 1.351 . S
C267 C268 1.434 . S
C268 C259 1.429 . S
C268 N265 1.350 . S
C268 C267 1.434 . S
C269 C270 1.369 1_545 S
C269 C271 1.419 . S
C269 H273 0.930 . S
C270 C269 1.369 1_565 S
C270 C279 1.429 . S
C271 C269 1.419 . S
C271 C272 1.363 . S
C271 H274 0.929 . S
C272 C271 1.363 . S
C272 C278 1.428 1_545 S
H273 C269 0.930 . S
H274 C271 0.929 . S
S275 N276 1.613 . S
S275 N277 1.610 . S
N276 S275 1.613 . S
N276 C279 1.350 . S
N277 S275 1.610 . S
N277 C278 1.351 . S
C278 C272 1.428 1_565 S
C278 N277 1.351 . S
C278 C279 1.434 . S
C279 C270 1.429 . S
C279 N276 1.350 . S
C279 C278 1.434 . S
C105 C18 1.441 . S
C107 C5 1.441 . S
C116 C31 1.436 . S
C118 C44 1.435 . S
C127 C57 1.435 . S
C129 C70 1.434 . S
C138 C83 1.441 . S
C140 C96 1.441 . S
C149 C99 1.357 . S
C151 C8 1.358 . S
C160 C86 1.362 . S
C162 C21 1.361 . S
C171 C34 1.362 . S
C173 C73 1.361 . S
C182 C60 1.360 . S
C184 C47 1.359 . S
C193 C75 1.464 . S
C195 C36 1.462 . S
C204 C62 1.464 . S
C206 C49 1.463 . S
C215 C101 1.462 . S
C217 C10 1.464 . S
C226 C23 1.463 . S
C228 C88 1.464 . S
C237 C0 1.336 . S
C239 C26 1.335 . S
C248 C39 1.337 . S
C250 C13 1.335 . S
C259 C78 1.335 . S
C261 C52 1.335 . S
C270 C65 1.335 . S
C272 C91 1.334 . S
