# Generated by pormake.
# Topology oof, (8)-cn, num edge types: 1
# Building blocks:
#     Node 0, Type 0, BuildingBlock: TAGTUT_clean_sbu_3, # of connection points: 8
#     Node 1, Type 0, BuildingBlock: TAGTUT_clean_sbu_3, # of connection points: 8
#     Node 2, Type 0, BuildingBlock: TAGTUT_clean_sbu_3, # of connection points: 8
#     Node 3, Type 0, BuildingBlock: TAGTUT_clean_sbu_3, # of connection points: 8
#     Edge 4, Type (0, 0), BuildingBlock: MIFKUJ_clean_linker_0, # of connection points: 2
#     Edge 5, Type (0, 0), BuildingBlock: MIFKUJ_clean_linker_0, # of connection points: 2
#     Edge 6, Type (0, 0), BuildingBlock: MIFKUJ_clean_linker_0, # of connection points: 2
#     Edge 7, Type (0, 0), BuildingBlock: MIFKUJ_clean_linker_0, # of connection points: 2
#     Edge 8, Type (0, 0), BuildingBlock: MIFKUJ_clean_linker_0, # of connection points: 2
#     Edge 9, Type (0, 0), BuildingBlock: MIFKUJ_clean_linker_0, # of connection points: 2
#     Edge 10, Type (0, 0), BuildingBlock: MIFKUJ_clean_linker_0, # of connection points: 2
#     Edge 11, Type (0, 0), BuildingBlock: MIFKUJ_clean_linker_0, # of connection points: 2
#     Edge 12, Type (0, 0), BuildingBlock: MIFKUJ_clean_linker_0, # of connection points: 2
#     Edge 13, Type (0, 0), BuildingBlock: MIFKUJ_clean_linker_0, # of connection points: 2
#     Edge 14, Type (0, 0), BuildingBlock: MIFKUJ_clean_linker_0, # of connection points: 2
#     Edge 15, Type (0, 0), BuildingBlock: MIFKUJ_clean_linker_0, # of connection points: 2
#     Edge 16, Type (0, 0), BuildingBlock: MIFKUJ_clean_linker_0, # of connection points: 2
#     Edge 17, Type (0, 0), BuildingBlock: MIFKUJ_clean_linker_0, # of connection points: 2
#     Edge 18, Type (0, 0), BuildingBlock: MIFKUJ_clean_linker_0, # of connection points: 2
#     Edge 19, Type (0, 0), BuildingBlock: MIFKUJ_clean_linker_0, # of connection points: 2
# Relax obj value: 0.063
# Max RMSD: 0.155
# Mean RMSD: 0.155
data_MOF--net-oof--node1-TAGTUT_clean_sbu_3--edge1-MIFKUJ_clean_linker_0
_symmetry_space_group_name_H-M    P1
_symmetry_Int_Tables_number       1
_symmetry_cell_setting            triclinic
loop_
_symmetry_equiv_pos_as_xyz
'x, y, z'
_cell_length_a     19.794423
_cell_length_b     79.604398
_cell_length_c     19.405616
_cell_angle_alpha  90.104564
_cell_angle_beta   86.459566
_cell_angle_gamma 90.088721
loop_
_atom_site_label
_atom_site_type_symbol
_atom_site_fract_x
_atom_site_fract_y
_atom_site_fract_z
_atom_type_partial_charge
C0 C 0.12783 0.15365 0.24994 0.0
C1 C -0.00561 0.20902 0.26884 0.0
C2 C 0.85669 0.18371 0.13171 0.0
Mg3 Mg 0.08763 0.11476 0.21926 0.0
Mg4 Mg 0.93569 0.10053 0.26051 0.0
O5 O 0.98697 0.11707 0.21537 0.0
Mg6 Mg 0.97547 0.14189 0.2368 0.0
O7 O 0.97185 0.1669 0.25245 0.0
Mg8 Mg 0.02015 0.17492 0.16509 0.0
Mg9 Mg 0.89344 0.17869 0.28237 0.0
C10 C 0.82309 0.12738 0.22966 0.0
O11 O 0.937 0.13942 0.35084 0.0
O12 O 0.07883 0.08695 0.17776 0.0
O13 O 0.86983 0.16218 0.37071 0.0
O14 O 0.08136 0.10333 0.33063 0.0
O15 O 0.97105 0.07893 0.20196 0.0
O16 O 0.97294 0.09787 0.36038 0.0
O17 O 0.01198 0.1471 0.12615 0.0
O18 O 0.08754 0.12632 0.10999 0.0
C19 C 0.05523 0.13895 0.0872 0.0
C20 C 0.03112 0.07592 0.17644 0.0
O21 O 0.86558 0.13925 0.21545 0.0
O22 O 0.02565 0.20148 0.21751 0.0
O23 O 0.83962 0.11269 0.25016 0.0
O24 O 0.92021 0.1823 0.11579 0.0
O25 O 0.94271 0.20247 0.30179 0.0
O26 O 0.8326 0.18147 0.19368 0.0
O27 O 0.08355 0.14217 0.26056 0.0
O28 O 0.11518 0.16708 0.21701 0.0
C29 C 0.03493 0.0982 0.37462 0.0
C30 C 0.89586 0.14827 0.39014 0.0
C31 C 0.06073 0.87595 0.59248 0.0
C32 C 0.02317 0.93953 0.67957 0.0
C33 C 0.03914 0.91827 0.87601 0.0
Mg34 Mg 0.0374 0.84027 0.6738 0.0
Mg35 Mg 0.91902 0.83579 0.79962 0.0
O36 O -0.00737 0.8484 0.76317 0.0
Mg37 Mg 0.98788 0.87315 0.74413 0.0
O38 O 0.99097 0.89783 0.71913 0.0
Mg39 Mg 0.09127 0.90186 0.72023 0.0
Mg40 Mg 0.93653 0.91352 0.76627 0.0
C41 C 0.91385 0.86784 0.899 0.0
O42 O 0.87562 0.87329 0.7284 0.0
O43 O 0.05319 0.81438 0.72993 0.0
O44 O 0.84312 0.89946 0.76226 0.0
O45 O 0.93623 0.83042 0.63255 0.0
O46 O 0.97647 0.81354 0.82035 0.0
O47 O 0.85464 0.83003 0.717 0.0
O48 O 0.09775 0.87491 0.76314 0.0
O49 O 0.13371 0.85065 0.71517 0.0
C50 C 0.14463 0.86446 0.74637 0.0
C51 C 0.0272 0.80724 0.78501 0.0
O52 O 0.95327 0.87652 0.85754 0.0
O53 O 0.07349 0.92925 0.67853 0.0
O54 O 0.89118 0.85322 0.88359 0.0
O55 O 0.08535 0.91369 0.83069 0.0
O56 O 0.96465 0.93561 0.70704 0.0
O57 O 0.97659 0.91738 0.86424 0.0
O58 O 0.02042 0.86755 0.63362 0.0
O59 O 0.09063 0.88933 0.61243 0.0
C60 C 0.87469 0.82765 0.65396 0.0
C61 C 0.83 0.8843 0.74436 0.0
C62 C 0.57319 0.63698 0.09812 0.0
C63 C 0.56284 0.57366 0.18686 0.0
C64 C 0.56581 0.59586 0.38474 0.0
Mg65 Mg 0.5324 0.6724 0.17736 0.0
Mg66 Mg 0.4089 0.67502 0.29871 0.0
O67 O 0.48636 0.66358 0.26448 0.0
Mg68 Mg 0.49468 0.63868 0.24829 0.0
O69 O 0.51201 0.61416 0.22645 0.0
Mg70 Mg 0.6131 0.61305 0.22883 0.0
Mg71 Mg 0.46487 0.59727 0.27345 0.0
C72 C 0.41297 0.64385 0.40213 0.0
O73 O 0.38507 0.63418 0.22356 0.0
O74 O 0.53637 0.69876 0.23156 0.0
O75 O 0.36642 0.60731 0.25776 0.0
O76 O 0.4303 0.67939 0.13159 0.0
O77 O 0.45811 0.6986 0.32042 0.0
O78 O 0.3458 0.67874 0.21324 0.0
O79 O 0.60443 0.64036 0.27181 0.0
O80 O 0.62979 0.66526 0.22451 0.0
C81 C 0.64665 0.65217 0.25731 0.0
C82 C 0.50733 0.7057 0.28554 0.0
O83 O 0.45581 0.6355 0.36265 0.0
O84 O 0.60875 0.5852 0.18533 0.0
O85 O 0.38605 0.65774 0.38387 0.0
O86 O 0.61059 0.60114 0.33929 0.0
O87 O 0.50375 0.57603 0.21588 0.0
O88 O 0.50321 0.59553 0.37291 0.0
O89 O 0.52871 0.64455 0.13768 0.0
O90 O 0.6088 0.62487 0.12041 0.0
C91 C 0.36751 0.68105 0.15056 0.0
C92 C 0.34615 0.62139 0.23431 0.0
C93 C 0.56215 0.37538 0.58754 0.0
C94 C 0.55246 0.43771 0.68503 0.0
C95 C 0.56564 0.41538 0.87837 0.0
Mg96 Mg 0.52243 0.33938 0.66137 0.0
Mg97 Mg 0.40219 0.33607 0.78479 0.0
O98 O 0.48098 0.34738 0.75189 0.0
Mg99 Mg 0.48917 0.37241 0.73924 0.0
O100 O 0.50485 0.39713 0.72158 0.0
Mg101 Mg 0.60604 0.39841 0.71956 0.0
Mg102 Mg 0.45836 0.41353 0.77299 0.0
C103 C 0.41029 0.36641 0.89217 0.0
O104 O 0.37942 0.37697 0.71976 0.0
O105 O 0.52776 0.31272 0.71171 0.0
O106 O 0.35881 0.40325 0.76093 0.0
O107 O 0.41833 0.33277 0.61864 0.0
O108 O 0.44961 0.31197 0.80071 0.0
O109 O 0.33532 0.33356 0.70141 0.0
O110 O 0.60061 0.37069 0.75653 0.0
O111 O 0.62255 0.3463 0.70255 0.0
C112 C 0.64223 0.35948 0.73326 0.0
C113 C 0.49872 0.30523 0.76434 0.0
O114 O 0.45393 0.37476 0.85381 0.0
O115 O 0.59886 0.42636 0.68131 0.0
O116 O 0.3821 0.35277 0.87255 0.0
O117 O 0.60795 0.40982 0.831 0.0
O118 O 0.49395 0.43507 0.71506 0.0
O119 O 0.50225 0.41567 0.87009 0.0
O120 O 0.51838 0.36756 0.62696 0.0
O121 O 0.59806 0.38742 0.61026 0.0
C122 C 0.35564 0.33135 0.63831 0.0
C123 C 0.33955 0.38933 0.73477 0.0
H124 H 0.00681 0.16594 0.01865 0.0
H125 H 0.9804 0.16672 0.89745 0.0
H126 H 0.0738 0.11819 0.86462 0.0
H127 H 0.1022 0.11753 0.98503 0.0
H128 H 0.09046 0.13663 0.75068 0.0
H129 H 0.90588 0.12043 0.90568 0.0
H130 H 0.83226 0.1238 0.012 0.0
H131 H 0.75793 0.17043 0.9365 0.0
H132 H 0.83183 0.1675 0.82979 0.0
H133 H 0.92689 0.1187 0.45224 0.0
H134 H 0.94636 0.11483 0.57432 0.0
H135 H 0.87012 0.16468 0.61815 0.0
H136 H 0.8491 0.16845 0.49685 0.0
H137 H 0.84339 0.14338 0.72742 0.0
H138 H 0.03891 0.15846 0.57129 0.0
H139 H 0.11564 0.15323 0.4683 0.0
H140 H 0.16803 0.10512 0.5491 0.0
H141 H 0.09097 0.10998 0.65212 0.0
C142 C 0.02336 0.15565 0.98522 0.0
C143 C 0.0553 0.14152 0.01181 0.0
C144 C 0.00799 0.15607 0.91603 0.0
C145 C 0.02321 0.14225 0.87273 0.0
C146 C 0.06097 0.1289 0.89736 0.0
C147 C 0.07718 0.12856 0.96634 0.0
C148 C -0.00641 0.14091 0.80467 0.0
C149 C 0.03643 0.13794 0.74567 0.0
C150 C 0.9229 0.14243 0.79831 0.0
C151 C 0.87481 0.1438 0.85996 0.0
C152 C 0.87374 0.1314 0.91165 0.0
C153 C 0.83207 0.13325 0.97199 0.0
C154 C 0.79066 0.14736 0.981 0.0
C155 C 0.7901 0.15953 0.92925 0.0
C156 C 0.83182 0.15778 0.86878 0.0
C157 C 0.91248 0.12861 0.48814 0.0
C158 C 0.88832 0.144 0.46442 0.0
C159 C 0.92368 0.12641 0.55786 0.0
C160 C 0.91178 0.13969 0.60467 0.0
C161 C 0.88038 0.15434 0.58265 0.0
C162 C 0.86844 0.15646 0.51307 0.0
C163 C 0.94043 0.13938 0.67332 0.0
C164 C 0.89737 0.14201 0.73252 0.0
C165 C 0.01081 0.13719 0.68001 0.0
C166 C 0.05898 0.13455 0.61922 0.0
C167 C 0.06679 0.14677 0.56703 0.0
C168 C 0.11024 0.14386 0.50861 0.0
C169 C 0.1466 0.12884 0.50211 0.0
C170 C 0.13983 0.11674 0.55418 0.0
C171 C 0.09634 0.11957 0.61262 0.0
H172 H 0.18008 0.1266 0.45679 0.0
H173 H 0.7592 0.14887 0.02819 0.0
H174 H 0.12447 0.89352 0.48613 0.0
H175 H 0.09616 0.89258 0.36556 0.0
H176 H 0.96471 0.85016 0.40991 0.0
H177 H -0.00628 0.85072 0.52986 0.0
H178 H 0.02599 0.84817 0.28222 0.0
H179 H 0.90422 0.88981 0.42213 0.0
H180 H 0.89464 0.91436 0.49982 0.0
H181 H -0.00127 0.94491 0.34494 0.0
H182 H 0.01014 0.92045 0.2668 0.0
H183 H 0.83086 0.85408 0.00219 0.0
H184 H 0.84428 0.8575 0.12562 0.0
H185 H 0.98795 0.89749 0.08298 0.0
H186 H 0.97568 0.89405 0.96026 0.0
H187 H 0.91595 0.90092 0.21122 0.0
H188 H 0.04649 0.85969 0.07635 0.0
H189 H 0.05944 0.83558 0.99665 0.0
H190 H 0.94206 0.80477 0.14081 0.0
H191 H 0.9274 0.82883 0.22085 0.0
C192 C 0.0911 0.88368 0.46988 0.0
C193 C 0.05981 0.87249 0.51795 0.0
C194 C 0.07468 0.88324 0.4011 0.0
C195 C 0.0266 0.87169 0.37983 0.0
C196 C 0.00117 0.85934 0.42581 0.0
C197 C 0.01783 0.8597 0.49442 0.0
C198 C -0.0022 0.8734 0.31203 0.0
C199 C 0.00124 0.85962 0.26704 0.0
C200 C 0.96628 0.88847 0.29221 0.0
C201 C 0.95868 0.90324 0.33889 0.0
C202 C 0.92553 0.90173 0.40483 0.0
C203 C 0.91976 0.91563 0.44895 0.0
C204 C 0.94626 0.93117 0.42742 0.0
C205 C 0.97839 0.93286 0.36163 0.0
C206 C 0.98454 0.91898 0.31741 0.0
C207 C 0.86353 0.864 0.01912 0.0
C208 C 0.90373 0.87351 0.97126 0.0
C209 C 0.87091 0.86596 0.08965 0.0
C210 C 0.91848 0.87741 0.11272 0.0
C211 C 0.95137 0.88849 0.06587 0.0
C212 C 0.94418 0.88651 0.99547 0.0
C213 C 0.94388 0.87566 0.18195 0.0
C214 C 0.94015 0.88944 0.22692 0.0
C215 C 0.97555 0.86064 0.20173 0.0
C216 C 0.98519 0.8461 0.15419 0.0
C217 C 0.02302 0.84781 0.09081 0.0
C218 C 0.0307 0.83416 0.04559 0.0
C219 C 0.00144 0.81866 0.06357 0.0
C220 C 0.96458 0.81679 0.12689 0.0
C221 C 0.95655 0.83043 0.17219 0.0
H222 H 0.00748 0.8081 0.02853 0.0
H223 H 0.94175 0.94192 0.46166 0.0
H224 H 0.51769 0.66297 0.02899 0.0
H225 H 0.48579 0.6625 0.90935 0.0
H226 H 0.58353 0.61436 0.87927 0.0
H227 H 0.61841 0.61515 0.99718 0.0
H228 H 0.59729 0.63054 0.76696 0.0
H229 H 0.41032 0.61957 0.92839 0.0
H230 H 0.33004 0.62526 0.02795 0.0
H231 H 0.25552 0.66848 0.92484 0.0
H232 H 0.33712 0.66347 0.8258 0.0
H233 H 0.44174 0.61379 0.46247 0.0
H234 H 0.4573 0.60926 0.58519 0.0
H235 H 0.38071 0.65901 0.6306 0.0
H236 H 0.36297 0.66334 0.50925 0.0
H237 H 0.35242 0.63889 0.73705 0.0
H238 H 0.55297 0.65068 0.58247 0.0
H239 H 0.6335 0.64398 0.48405 0.0
H240 H 0.67887 0.59677 0.57739 0.0
H241 H 0.59716 0.603 0.67523 0.0
C242 C 0.53396 0.65252 0.99624 0.0
C243 C 0.56949 0.63896 0.02288 0.0
C244 C 0.51506 0.65216 0.92813 0.0
C245 C 0.52992 0.63807 0.88627 0.0
C246 C 0.57061 0.62526 0.9109 0.0
C247 C 0.59072 0.62576 0.97845 0.0
C248 C 0.50031 0.63617 0.81836 0.0
C249 C 0.54358 0.63215 0.76075 0.0
C250 C 0.43005 0.63823 0.81018 0.0
C251 C 0.3805 0.64123 0.86978 0.0
C252 C 0.37735 0.6304 0.92718 0.0
C253 C 0.33168 0.63353 0.98364 0.0
C254 C 0.28797 0.64728 0.98288 0.0
C255 C 0.28971 0.6579 0.92556 0.0
C256 C 0.33582 0.65495 0.86933 0.0
C257 C 0.4267 0.62355 0.49885 0.0
C258 C 0.40359 0.6391 0.47575 0.0
C259 C 0.43556 0.62097 0.5689 0.0
C260 C 0.42273 0.63406 0.61646 0.0
C261 C 0.39195 0.64882 0.59465 0.0
C262 C 0.382 0.65128 0.52493 0.0
C263 C 0.44965 0.63357 0.68594 0.0
C264 C 0.40594 0.63712 0.7438 0.0
C265 C 0.51934 0.63087 0.69471 0.0
C266 C 0.56875 0.62726 0.63592 0.0
C267 C 0.5799 0.63884 0.58176 0.0
C268 C 0.62562 0.63511 0.52601 0.0
C269 C 0.66127 0.61996 0.52444 0.0
C270 C 0.65125 0.6085 0.57861 0.0
C271 C 0.60512 0.6121 0.6341 0.0
H272 H 0.69661 0.6171 0.48122 0.0
H273 H 0.2526 0.64968 0.02657 0.0
H274 H 0.43455 0.39679 0.95215 0.0
H275 H 0.44815 0.40169 0.07496 0.0
H276 H 0.37773 0.35134 0.12012 0.0
H277 H 0.36283 0.34653 -0.00159 0.0
H278 H 0.34494 0.37203 0.22558 0.0
H279 H 0.54588 0.35976 0.07399 0.0
H280 H 0.62703 0.36584 0.97543 0.0
H281 H 0.67256 0.41364 0.06471 0.0
H282 H 0.59 0.40799 0.16246 0.0
H283 H 0.51064 0.3489 0.51789 0.0
H284 H 0.4801 0.34898 0.39776 0.0
H285 H 0.5709 0.39803 0.36941 0.0
H286 H 0.60417 0.39771 0.48789 0.0
H287 H 0.58928 0.38115 0.25701 0.0
H288 H 0.3991 0.39145 0.41781 0.0
H289 H 0.31835 0.38507 0.51623 0.0
H290 H 0.25008 0.34138 0.4106 0.0
H291 H 0.33219 0.34709 0.31276 0.0
C292 C 0.42054 0.38696 0.98848 0.0
C293 C 0.40007 0.37112 0.96547 0.0
C294 C 0.42804 0.38977 0.05853 0.0
C295 C 0.41612 0.37666 0.10595 0.0
C296 C 0.38791 0.36156 0.0841 0.0
C297 C 0.37961 0.35882 0.01431 0.0
C298 C 0.44237 0.37749 0.17529 0.0
C299 C 0.39831 0.374 0.23274 0.0
C300 C 0.51195 0.38028 0.18418 0.0
C301 C 0.56165 0.38353 0.1253 0.0
C302 C 0.57293 0.3716 0.0723 0.0
C303 C 0.61903 0.37498 0.01649 0.0
C304 C 0.65491 0.39012 0.01373 0.0
C305 C 0.64477 0.40192 0.0668 0.0
C306 C 0.59821 0.39866 0.12227 0.0
C307 C 0.52563 0.35949 0.48541 0.0
C308 C 0.55876 0.37341 0.51249 0.0
C309 C 0.50763 0.3596 0.41709 0.0
C310 C 0.52103 0.3738 0.37567 0.0
C311 C 0.55928 0.38705 0.40084 0.0
C312 C 0.57846 0.3868 0.46862 0.0
C313 C 0.49205 0.37539 0.30769 0.0
C314 C 0.5357 0.37936 0.2504 0.0
C315 C 0.42205 0.37302 0.29913 0.0
C316 C 0.37243 0.36962 0.35814 0.0
C317 C 0.36743 0.38038 0.41586 0.0
C318 C 0.32151 0.37684 0.47166 0.0
C319 C 0.27952 0.36275 0.46984 0.0
C320 C 0.28309 0.3522 0.41216 0.0
C321 C 0.32943 0.35556 0.35662 0.0
H322 H 0.24407 0.35999 0.51296 0.0
H323 H 0.69053 0.39273 0.97047 0.0
H324 H 0.71937 0.10631 0.20675 0.0
H325 H 0.5987 0.11239 0.22732 0.0
H326 H 0.64582 0.16339 0.28332 0.0
H327 H 0.76656 0.1574 0.2632 0.0
H328 H 0.54738 0.14439 0.37826 0.0
H329 H 0.5885 0.1631 0.14437 0.0
H330 H 0.64222 0.16016 0.02711 0.0
H331 H 0.53383 0.11409 -0.00053 0.0
H332 H 0.47944 0.11677 0.11701 0.0
H333 H 0.2191 0.17786 0.27577 0.0
H334 H 0.33812 0.17366 0.2976 0.0
H335 H 0.30794 0.11999 0.29791 0.0
H336 H 0.18852 0.12401 0.2783 0.0
H337 H 0.39903 0.14189 0.18121 0.0
H338 H 0.35274 0.12552 0.42126 0.0
H339 H 0.30322 0.13034 0.53926 0.0
H340 H 0.42347 0.17496 0.55533 0.0
H341 H 0.47269 0.17059 0.43669 0.0
C342 C 0.70377 0.11884 0.22264 0.0
C343 C 0.75151 0.13149 0.2324 0.0
C344 C 0.6354 0.12224 0.23484 0.0
C345 C 0.61458 0.13825 0.25734 0.0
C346 C 0.66188 0.15096 0.26646 0.0
C347 C 0.73029 0.14761 0.2536 0.0
C348 C 0.54263 0.14174 0.268 0.0
C349 C 0.51465 0.14407 0.33544 0.0
C350 C 0.50123 0.14125 0.21165 0.0
C351 C 0.53039 0.14006 0.13955 0.0
C352 C 0.57623 0.15232 0.11331 0.0
C353 C 0.60695 0.15068 0.04692 0.0
C354 C 0.59213 0.13682 0.00615 0.0
C355 C 0.54555 0.12476 0.03129 0.0
C356 C 0.51455 0.12636 0.09772 0.0
C357 C 0.23756 0.16518 0.2821 0.0
C358 C 0.19558 0.15121 0.27342 0.0
C359 C 0.30494 0.16285 0.29542 0.0
C360 C 0.33055 0.14656 0.29944 0.0
C361 C 0.28791 0.13262 0.29567 0.0
C362 C 0.22016 0.13495 0.28378 0.0
C363 C 0.40325 0.14417 0.29173 0.0
C364 C 0.43152 0.1422 0.22428 0.0
C365 C 0.44456 0.14534 0.34806 0.0
C366 C 0.4157 0.14785 0.4197 0.0
C367 C 0.368 0.13648 0.44956 0.0
C368 C 0.34011 0.1391 0.51666 0.0
C369 C 0.35999 0.15299 0.55468 0.0
C370 C 0.408 0.16423 0.52575 0.0
C371 C 0.43593 0.16168 0.45859 0.0
H372 H 0.33836 0.155 0.60663 0.0
H373 H 0.61635 0.13551 0.95488 0.0
H374 H 0.7172 0.90291 0.73016 0.0
H375 H 0.60099 0.89466 0.76312 0.0
H376 H 0.66907 0.84509 0.81625 0.0
H377 H 0.78552 0.85328 0.78269 0.0
H378 H 0.55765 0.84329 0.74959 0.0
H379 H 0.62056 0.87057 0.94589 0.0
H380 H 0.67521 0.89154 0.0177 0.0
H381 H 0.54225 0.92976 0.94909 0.0
H382 H 0.48758 0.90913 0.87578 0.0
H383 H 0.18703 0.86724 0.8752 0.0
H384 H 0.3054 0.86592 0.90643 0.0
H385 H 0.37157 0.86818 0.69019 0.0
H386 H 0.25381 0.86848 0.6593 0.0
H387 H 0.41642 0.8838 0.88969 0.0
H388 H 0.49248 0.83996 0.64984 0.0
H389 H 0.43646 0.81834 0.5827 0.0
H390 H 0.28987 0.81018 0.75163 0.0
H391 H 0.34706 0.83105 0.82153 0.0
C392 C 0.70715 0.8902 0.74797 0.0
C393 C 0.75982 0.87866 0.75325 0.0
C394 C 0.64116 0.88556 0.76761 0.0
C395 C 0.62722 0.86943 0.79402 0.0
C396 C 0.67928 0.85764 0.79669 0.0
C397 C 0.74539 0.86225 0.7765 0.0
C398 C 0.55719 0.86501 0.81581 0.0
C399 C 0.52652 0.8519 0.78107 0.0
C400 C 0.51786 0.87566 0.86063 0.0
C401 C 0.54978 0.88823 0.9053 0.0
C402 C 0.60309 0.88346 0.94583 0.0
C403 C 0.63412 0.8953 0.98682 0.0
C404 C 0.61216 0.91197 0.98802 0.0
C405 C 0.55909 0.91683 0.94824 0.0
C406 C 0.52793 0.90505 0.90705 0.0
C407 C 0.22738 0.86781 0.83489 0.0
C408 C 0.21281 0.86786 0.76515 0.0
C409 C 0.29444 0.86698 0.85261 0.0
C410 C 0.34656 0.86636 0.80041 0.0
C411 C 0.33161 0.86804 0.73096 0.0
C412 C 0.26486 0.86842 0.71332 0.0
C413 C 0.41684 0.86335 0.81685 0.0
C414 C 0.4474 0.87481 0.86003 0.0
C415 C 0.45603 0.85079 0.78148 0.0
C416 C 0.4242 0.83724 0.74115 0.0
C417 C 0.44916 0.83336 0.67345 0.0
C418 C 0.41712 0.8212 0.63479 0.0
C419 C 0.35964 0.8129 0.6629 0.0
C420 C 0.33444 0.81662 0.72994 0.0
C421 C 0.36694 0.82854 0.76928 0.0
H422 H 0.33445 0.80362 0.63276 0.0
H423 H 0.63628 0.92112 0.01976 0.0
H424 H 0.75134 0.67173 0.20891 0.0
H425 H 0.87103 0.66524 0.20967 0.0
H426 H 0.82532 0.62106 0.33232 0.0
H427 H 0.70409 0.62731 0.33141 0.0
H428 H 0.95017 0.64304 0.36178 0.0
H429 H 0.83914 0.61188 0.18993 0.0
H430 H 0.76016 0.60886 0.09745 0.0
H431 H 0.8812 0.64273 0.96959 0.0
H432 H 0.96023 0.64619 0.06195 0.0
H433 H 0.24622 0.59937 0.27314 0.0
H434 H 0.12516 0.60379 0.26984 0.0
H435 H 0.16094 0.651 0.16503 0.0
H436 H 0.28334 0.64684 0.16834 0.0
H437 H 0.03996 0.62581 0.12718 0.0
H438 H 0.14168 0.6592 0.30702 0.0
H439 H 0.22115 0.66163 0.3996 0.0
H440 H 0.1178 0.62164 0.51089 0.0
H441 H 0.03859 0.61875 0.41809 0.0
C442 C 0.76642 0.66077 0.23715 0.0
C443 C 0.7184 0.64972 0.26848 0.0
C444 C 0.83477 0.65716 0.23767 0.0
C445 C 0.85588 0.6426 0.27003 0.0
C446 C 0.80899 0.63232 0.30682 0.0
C447 C 0.74013 0.63582 0.30571 0.0
C448 C 0.92598 0.63729 0.2576 0.0
C449 C 0.96977 0.63905 0.31091 0.0
C450 C 0.95065 0.63229 0.19068 0.0
C451 C 0.90475 0.62966 0.13373 0.0
C452 C 0.84845 0.61889 0.14254 0.0
C453 C 0.80375 0.61703 0.09 0.0
C454 C 0.81535 0.6257 0.02786 0.0
C455 C 0.87202 0.63611 0.01793 0.0
C456 C 0.91674 0.63804 0.07044 0.0
C457 C 0.22874 0.61057 0.24809 0.0
C458 C 0.27411 0.623 0.22255 0.0
C459 C 0.15964 0.61297 0.24591 0.0
C460 C 0.13521 0.62772 0.21776 0.0
C461 C 0.17984 0.63954 0.18687 0.0
C462 C 0.24935 0.63723 0.18957 0.0
C463 C 0.06396 0.63183 0.23104 0.0
C464 C 0.0201 0.62977 0.17798 0.0
C465 C 0.03904 0.63644 0.29819 0.0
C466 C 0.08469 0.63865 0.35538 0.0
C467 C 0.13621 0.65085 0.35103 0.0
C468 C 0.18119 0.65232 0.40352 0.0
C469 C 0.17465 0.64177 0.46101 0.0
C470 C 0.12286 0.62979 0.46628 0.0
C471 C 0.0779 0.62824 0.41377 0.0
H472 H 0.20963 0.64289 0.50151 0.0
H473 H 0.78062 0.62427 0.98727 0.0
H474 H 0.7302 0.34784 0.63246 0.0
H475 H 0.84831 0.3554 0.61127 0.0
H476 H 0.83492 0.38843 0.78826 0.0
H477 H 0.71455 0.38131 0.80888 0.0
H478 H 0.90979 0.40162 0.67295 0.0
H479 H 0.8907 0.34888 0.8017 0.0
H480 H 0.85207 0.31965 0.8172 0.0
H481 H 0.96164 0.30544 0.62832 0.0
H482 H -0.00035 0.33474 0.61071 0.0
H483 H 0.23273 0.40672 0.7925 0.0
H484 H 0.11443 0.40364 0.76756 0.0
H485 H 0.16901 0.36589 0.61399 0.0
H486 H 0.28755 0.36847 0.64047 0.0
H487 H 0.07375 0.35506 0.69366 0.0
H488 H 0.10759 0.40526 0.56881 0.0
H489 H 0.14624 0.43417 0.54351 0.0
H490 H 0.01309 0.45288 0.70906 0.0
H491 H 0.97435 0.42406 0.73617 0.0
C492 C 0.75228 0.35663 0.66738 0.0
C493 C 0.71395 0.36372 0.72351 0.0
C494 C 0.81951 0.36103 0.65465 0.0
C495 C 0.8499 0.37222 0.69882 0.0
C496 C 0.81167 0.37972 0.75387 0.0
C497 C 0.74359 0.37553 0.76601 0.0
C498 C 0.92281 0.37515 0.6902 0.0
C499 C 0.94605 0.39155 0.67793 0.0
C500 C 0.96916 0.36172 0.69307 0.0
C501 C 0.94736 0.34404 0.70453 0.0
C502 C 0.90618 0.33955 0.76323 0.0
C503 C 0.88442 0.32296 0.77242 0.0
C504 C 0.9043 0.31067 0.72384 0.0
C505 C 0.94616 0.31496 0.66591 0.0
C506 C 0.96777 0.33157 0.65624 0.0
C507 C 0.21953 0.39788 0.75297 0.0
C508 C 0.2688 0.38774 0.71873 0.0
C509 C 0.15216 0.39629 0.73813 0.0
C510 C 0.13351 0.38482 0.68776 0.0
C511 C 0.1829 0.37493 0.65244 0.0
C512 C 0.25021 0.37631 0.66807 0.0
C513 C 0.0616 0.38172 0.6786 0.0
C514 C 0.03814 0.36521 0.68727 0.0
C515 C 0.01538 0.39501 0.67087 0.0
C516 C 0.03828 0.41244 0.65476 0.0
C517 C 0.08686 0.41552 0.60018 0.0
C518 C 0.10875 0.4319 0.58546 0.0
C519 C 0.08219 0.44535 0.6247 0.0
C520 C 0.0336 0.44244 0.67869 0.0
C521 C 0.01156 0.42608 0.69369 0.0
H522 H 0.09922 0.45802 0.61322 0.0
H523 H 0.88734 0.29783 0.73116 0.0
H524 H 0.22215 0.32234 0.6636 0.0
H525 H 0.15388 0.30506 0.59006 0.0
H526 H 0.31254 0.3071 0.42769 0.0
H527 H 0.38147 0.32413 0.50101 0.0
H528 H 0.10025 0.30575 0.46652 0.0
H529 H 0.33281 0.26886 0.35348 0.0
H530 H 0.44872 0.26186 0.38384 0.0
H531 H 0.38849 0.2669 0.59927 0.0
H532 H 0.27208 0.27367 0.57023 0.0
H533 H 0.10563 0.22674 0.21703 0.0
H534 H 0.15854 0.25118 0.26809 0.0
H535 H 0.00211 0.25169 0.43293 0.0
H536 H 0.94819 0.22753 0.38161 0.0
H537 H 0.2131 0.25291 0.38766 0.0
H538 H 0.98443 0.29113 0.5036 0.0
H539 H 0.86701 0.2978 0.47794 0.0
H540 H 0.91562 0.28913 0.26209 0.0
H541 H 0.03361 0.28267 0.28629 0.0
C542 C 0.24211 0.3194 0.61178 0.0
C543 C 0.3081 0.32435 0.58898 0.0
C544 C 0.20287 0.30949 0.56967 0.0
C545 C 0.22877 0.30433 0.50398 0.0
C546 C 0.29213 0.3105 0.4789 0.0
C547 C 0.33143 0.32034 0.52092 0.0
C548 C 0.19241 0.29141 0.46432 0.0
C549 C 0.1247 0.29414 0.44966 0.0
C550 C 0.2244 0.27631 0.44146 0.0
C551 C 0.29398 0.27196 0.45957 0.0
C552 C 0.34429 0.26841 0.40731 0.0
C553 C 0.41006 0.26449 0.4243 0.0
C554 C 0.42601 0.264 0.49342 0.0
C555 C 0.37613 0.26735 0.54574 0.0
C556 C 0.31027 0.27123 0.52904 0.0
C557 C 0.08169 0.23221 0.26347 0.0
C558 C 0.02248 0.22507 0.29503 0.0
C559 C 0.11223 0.24619 0.29282 0.0
C560 C 0.08431 0.25343 0.3543 0.0
C561 C 0.02421 0.2466 0.38489 0.0
C562 C -0.00649 0.23267 0.35548 0.0
C563 C 0.12075 0.26722 0.38912 0.0
C564 C 0.18861 0.26459 0.40351 0.0
C565 C 0.0885 0.2823 0.41225 0.0
C566 C 0.01774 0.28624 0.39692 0.0
C567 C 0.97014 0.2907 0.45063 0.0
C568 C 0.90346 0.29444 0.43633 0.0
C569 C 0.8838 0.29383 0.36845 0.0
C570 C 0.93085 0.28953 0.31468 0.0
C571 C -0.00237 0.2858 0.32868 0.0
H572 H 0.83214 0.29672 0.35749 0.0
H573 H 0.47697 0.26099 0.50645 0.0
H574 H 0.44399 0.28357 0.8627 0.0
H575 H 0.49877 0.25942 0.91359 0.0
H576 H 0.67393 0.26649 0.77332 0.0
H577 H 0.61965 0.29059 0.72193 0.0
H578 H 0.553 0.229 0.8647 0.0
H579 H 0.81504 0.26172 0.8688 0.0
H580 H 0.86315 0.29021 0.87721 0.0
H581 H 0.67656 0.30782 0.97641 0.0
H582 H 0.62786 0.2794 0.96982 0.0
H583 H 0.89432 0.19509 0.00201 0.0
H584 H 0.82632 0.21133 0.92564 0.0
H585 H 0.64998 0.20381 0.06389 0.0
H586 H 0.71795 0.18757 0.14139 0.0
H587 H 0.76972 0.24086 0.97068 0.0
H588 H 0.50922 0.20836 0.97124 0.0
H589 H 0.45837 0.18018 0.96151 0.0
H590 H 0.64086 0.16222 0.85511 0.0
H591 H 0.69251 0.19032 0.86383 0.0
C592 C 0.49376 0.27985 0.84186 0.0
C593 C 0.52749 0.28915 0.7884 0.0
C594 C 0.52494 0.266 0.87097 0.0
C595 C 0.59079 0.26127 0.84792 0.0
C596 C 0.62335 0.27002 0.79247 0.0
C597 C 0.59202 0.28377 0.76289 0.0
C598 C 0.62713 0.24793 0.88457 0.0
C599 C 0.60007 0.23161 0.8885 0.0
C600 C 0.68903 0.25125 0.91482 0.0
C601 C 0.71755 0.26847 0.91795 0.0
C602 C 0.78431 0.27168 0.89238 0.0
C603 C 0.8117 0.28781 0.89694 0.0
C604 C 0.77285 0.30083 0.92717 0.0
C605 C 0.7065 0.29775 0.95279 0.0
C606 C 0.67896 0.28163 0.94856 0.0
C607 C 0.84079 0.19656 0.01582 0.0
C608 C 0.81206 0.1903 0.07887 0.0
C609 C 0.80191 0.20588 0.97186 0.0
C610 C 0.73314 0.20897 0.98918 0.0
C611 C 0.70289 0.20158 0.04921 0.0
C612 C 0.74198 0.19235 0.09372 0.0
C613 C 0.69631 0.22179 0.95007 0.0
C614 C 0.72302 0.23814 0.94633 0.0
C615 C 0.63401 0.21849 0.92057 0.0
C616 C 0.6049 0.20137 0.91886 0.0
C617 C 0.53854 0.19836 0.94607 0.0
C618 C 0.50951 0.18244 0.94053 0.0
C619 C 0.54619 0.16946 0.9073 0.0
C620 C 0.6124 0.17231 0.88058 0.0
C621 C 0.64172 0.1882 0.88619 0.0
H622 H 0.52335 0.15719 0.90245 0.0
H623 H 0.79419 0.31329 0.93106 0.0
H624 H 0.47238 0.72165 0.40788 0.0
H625 H 0.52812 0.74554 0.45874 0.0
H626 H 0.66265 0.74995 0.27615 0.0
H627 H 0.60826 0.72564 0.2255 0.0
H628 H 0.73285 0.75114 0.38481 0.0
H629 H 0.53323 0.77979 0.32141 0.0
H630 H 0.41052 0.7843 0.3151 0.0
H631 H 0.38639 0.78649 0.53629 0.0
H632 H 0.50886 0.78195 0.54404 0.0
H633 H 0.89432 0.82262 0.51403 0.0
H634 H 0.8251 0.80566 0.44028 0.0
H635 H 0.68137 0.79689 0.61274 0.0
H636 H 0.74906 0.81423 0.68618 0.0
H637 H 0.61597 0.79968 0.49955 0.0
H638 H 0.81079 0.76829 0.56378 0.0
H639 H 0.93276 0.76314 0.57291 0.0
H640 H 0.96451 0.76528 0.35218 0.0
H641 H 0.84278 0.77066 0.34182 0.0
C642 C 0.51311 0.72782 0.37783 0.0
C643 C 0.5357 0.72163 0.31238 0.0
C644 C 0.54486 0.74161 0.40704 0.0
C645 C 0.59934 0.74977 0.37119 0.0
C646 C 0.62075 0.74392 0.30498 0.0
C647 C 0.58936 0.73002 0.27591 0.0
C648 C 0.63694 0.76353 0.40486 0.0
C649 C 0.7073 0.76193 0.40853 0.0
C650 C 0.60379 0.77744 0.43772 0.0
C651 C 0.5302 0.7804 0.43326 0.0
C652 C 0.5017 0.78116 0.36872 0.0
C653 C 0.4322 0.78377 0.36491 0.0
C654 C 0.39068 0.78569 0.42528 0.0
C655 C 0.41862 0.78506 0.4896 0.0
C656 C 0.48811 0.78251 0.49373 0.0
C657 C 0.84744 0.81731 0.53609 0.0
C658 C 0.82789 0.81963 0.60645 0.0
C659 C 0.80802 0.80751 0.49386 0.0
C660 C 0.74876 0.79958 0.52124 0.0
C661 C 0.72703 0.80274 0.59033 0.0
C662 C 0.766 0.81268 0.63241 0.0
C663 C 0.71163 0.7872 0.47957 0.0
C664 C 0.64147 0.78901 0.47479 0.0
C665 C 0.74481 0.77341 0.44595 0.0
C666 C 0.81787 0.77005 0.45208 0.0
C667 C 0.84388 0.76777 0.51723 0.0
C668 C 0.91294 0.76479 0.52262 0.0
C669 C 0.95639 0.76393 0.46317 0.0
C670 C 0.93082 0.76598 0.39819 0.0
C671 C 0.8618 0.76898 0.39252 0.0
H672 H 0.00984 0.76163 0.46745 0.0
H673 H 0.33687 0.78767 0.42224 0.0
H674 H 0.24308 0.69522 0.17925 0.0
H675 H 0.18049 0.71295 0.1036 0.0
H676 H 0.32431 0.7016 0.93373 0.0
H677 H 0.38897 0.68435 0.01021 0.0
H678 H 0.3092 0.73361 0.94259 0.0
H679 H 0.14956 0.68793 0.94583 0.0
H680 H 0.0753 0.66656 0.00323 0.0
H681 H 0.95853 0.7054 0.10771 0.0
H682 H 0.0327 0.72697 0.05205 0.0
H683 H 0.1303 0.78795 0.72373 0.0
H684 H 0.18383 0.76318 0.77165 0.0
H685 H 0.05116 0.7672 0.95588 0.0
H686 H -0.00363 0.79141 0.90779 0.0
H687 H 0.0608 0.73618 0.92484 0.0
H688 H 0.22484 0.78063 0.94367 0.0
H689 H 0.30816 0.8026 0.9089 0.0
H690 H 0.4184 0.76731 0.77781 0.0
H691 H 0.33543 0.74517 0.81128 0.0
C692 C 0.26062 0.69613 0.1254 0.0
C693 C 0.32151 0.68845 0.10109 0.0
C694 C 0.22444 0.70627 0.08187 0.0
C695 C 0.24718 0.70863 0.01246 0.0
C696 C 0.30574 0.70011 0.98706 0.0
C697 C 0.34256 0.69016 0.03085 0.0
C698 C 0.2142 0.72129 0.96879 0.0
C699 C 0.25497 0.73391 0.93723 0.0
C700 C 0.14319 0.72207 0.96358 0.0
C701 C 0.09698 0.70908 0.99493 0.0
C702 C 0.10816 0.69191 0.98118 0.0
C703 C 0.0661 0.67976 0.01348 0.0
C704 C 0.01233 0.68464 0.05918 0.0
C705 C 0.00021 0.70165 0.07231 0.0
C706 C 0.04218 0.71384 0.04033 0.0
C707 C 0.11222 0.78348 0.77423 0.0
C708 C 0.05878 0.79173 0.81166 0.0
C709 C 0.14325 0.76936 0.80187 0.0
C710 C 0.1222 0.76332 0.86793 0.0
C711 C 0.06837 0.77146 0.90477 0.0
C712 C 0.03703 0.78541 0.87706 0.0
C713 C 0.15582 0.74867 0.89964 0.0
C714 C 0.11517 0.73567 0.92887 0.0
C715 C 0.22693 0.74766 0.90379 0.0
C716 C 0.27351 0.7613 0.87939 0.0
C717 C 0.26625 0.77762 0.90661 0.0
C718 C 0.31365 0.79007 0.88748 0.0
C719 C 0.36872 0.7863 0.84153 0.0
C720 C 0.37586 0.77018 0.8136 0.0
C721 C 0.32866 0.75769 0.83257 0.0
H722 H 0.40601 0.79586 0.82765 0.0
H723 H 0.98002 0.67526 0.08457 0.0
H724 H 0.94192 0.05007 0.16251 0.0
H725 H 0.96642 0.02104 0.13103 0.0
H726 H 0.17867 0.03291 0.10018 0.0
H727 H 0.15461 0.06227 0.13215 0.0
H728 H 0.13391 0.01292 0.99578 0.0
H729 H 0.12786 0.00809 0.24661 0.0
H730 H 0.08332 0.01058 0.3679 0.0
H731 H 0.89598 0.988 0.31589 0.0
H732 H 0.94011 0.98495 0.19482 0.0
H733 H 0.1659 0.92825 0.91083 0.0
H734 H 0.18976 0.95176 0.98688 0.0
H735 H 0.97772 0.95502 0.05132 0.0
H736 H 0.95413 0.931 0.97935 0.0
H737 H 0.04995 0.9667 0.15 0.0
H738 H 0.04005 0.979 0.90072 0.0
H739 H 0.07756 0.97092 0.78191 0.0
H740 H 0.28512 0.97704 0.82992 0.0
H741 H 0.24839 0.98544 0.94911 0.0
C742 C -0.00604 0.04663 0.14882 0.0
C743 C 0.04631 0.05862 0.15025 0.0
C744 C 0.00796 0.02991 0.13146 0.0
C745 C 0.07461 0.02465 0.11483 0.0
C746 C 0.12691 0.03663 0.11365 0.0
C747 C 0.11299 0.05344 0.13158 0.0
C748 C 0.08825 0.00673 0.09643 0.0
C749 C 0.11725 1.00284 0.03038 0.0
C750 C 0.06537 0.99344 0.1405 0.0
C751 C 0.03708 0.99641 0.21181 0.0
C752 C 0.07695 1.00382 0.26101 0.0
C753 C 0.05197 1.0052 0.32976 0.0
C754 C 0.98677 0.9995 0.3494 0.0
C755 C 0.94643 0.9924 0.30052 0.0
C756 C 0.97155 0.99074 0.23202 0.0
C757 C 0.12475 0.93353 0.94326 0.0
C758 C 0.0577 0.92811 0.93706 0.0
C759 C 0.13839 0.94711 0.98622 0.0
C760 C 0.08505 0.95569 0.02219 0.0
C761 C 0.01965 0.94885 0.02311 0.0
C762 C 0.00618 0.9351 0.98144 0.0
C763 C 0.09411 0.97299 0.04942 0.0
C764 C 0.06882 0.9768 0.11655 0.0
C765 C 0.11939 0.98618 0.00617 0.0
C766 C 0.14158 0.98294 0.93327 0.0
C767 C 0.09363 0.97883 0.8855 0.0
C768 C 0.11477 0.97411 0.81825 0.0
C769 C 0.18376 0.97341 0.79827 0.0
C770 C 0.23172 0.97756 0.84549 0.0
C771 C 0.21078 0.98247 0.9127 0.0
H772 H 0.20008 0.96972 0.74619 0.0
H773 H 0.96742 1.00051 0.40248 0.0
H774 H 0.15724 0.08386 0.39851 0.0
H775 H 0.17107 0.05905 0.47048 0.0
H776 H 0.96779 0.06524 0.55957 0.0
H777 H 0.95316 0.0898 0.48776 0.0
H778 H 0.1446 0.04615 0.61436 0.0
H779 H 0.88573 0.02755 0.51402 0.0
H780 H 0.8128 0.03517 0.42035 0.0
H781 H 0.98701 0.05168 0.29587 0.0
H782 H 0.06094 0.04365 0.38731 0.0
H783 H 0.92806 0.96417 0.67187 0.0
H784 H 0.94481 0.99346 0.64001 0.0
H785 H 0.15854 0.98465 0.60019 0.0
H786 H 0.14229 0.95506 0.63277 0.0
H787 H 0.98472 1.00534 0.51981 0.0
H788 H 0.24302 0.01762 0.62338 0.0
H789 H 0.30839 0.01629 0.72766 0.0
H790 H 0.12355 0.01613 0.85573 0.0
H791 H 0.05731 0.01686 0.75208 0.0
C792 C 0.11658 0.08045 0.43578 0.0
C793 C 0.05339 0.08855 0.43596 0.0
C794 C 0.12463 0.06622 0.47693 0.0
C795 C 0.06969 0.06006 0.51862 0.0
C796 C 0.0104 0.06966 0.52676 0.0
C797 C 0.00223 0.08378 0.48567 0.0
C798 C 0.06851 0.04229 0.54163 0.0
C799 C 0.11065 0.0371 0.59282 0.0
C800 C 0.02302 0.03063 0.51446 0.0
C801 C 0.97885 0.03523 0.45821 0.0
C802 C 0.90848 0.03274 0.46651 0.0
C803 C 0.86694 0.03709 0.41361 0.0
C804 C 0.89518 0.04396 0.35215 0.0
C805 C 0.96503 0.04641 0.34338 0.0
C806 C 0.00678 0.042 0.39584 0.0
C807 C 0.97879 0.96834 0.65618 0.0
C808 C 0.0337 0.95709 0.6544 0.0
C809 C 0.98835 0.9852 0.63841 0.0
C810 C 0.05305 0.9914 0.61847 0.0
C811 C 0.10826 0.98028 0.61654 0.0
C812 C 0.09868 0.96328 0.63411 0.0
C813 C 0.06059 0.00902 0.59318 0.0
C814 C 0.01958 0.01423 0.54074 0.0
C815 C 0.10659 0.02068 0.61959 0.0
C816 C 0.14545 0.01704 0.68023 0.0
C817 C 0.2165 0.01688 0.67381 0.0
C818 C 0.25363 0.0163 0.73274 0.0
C819 C 0.22012 0.01623 0.79826 0.0
C820 C 0.14941 0.01618 0.80494 0.0
C821 C 0.11206 0.01642 0.74614 0.0
H822 H 0.24895 0.01613 0.84386 0.0
H823 H 0.86299 0.04734 0.31128 0.0
H824 H 0.6796 0.56223 0.11562 0.0
H825 H 0.70357 0.53346 0.07457 0.0
H826 H 0.50541 0.51772 0.15428 0.0
H827 H 0.48112 0.54604 0.1949 0.0
H828 H 0.59991 0.49537 0.18825 0.0
H829 H 0.53804 0.525 0.98506 0.0
H830 H 0.54698 0.54679 0.89481 0.0
H831 H 0.74825 0.53033 0.83349 0.0
H832 H 0.74097 0.50859 0.92435 0.0
H833 H 0.49459 0.42614 0.9954 0.0
H834 H 0.52024 0.45094 0.06241 0.0
H835 H 0.71709 0.45429 0.95488 0.0
H836 H 0.6913 0.4295 0.88671 0.0
H837 H 0.64839 0.48247 0.94009 0.0
H838 H 0.70348 0.45034 0.13688 0.0
H839 H 0.68818 0.42769 0.22307 0.0
H840 H 0.4938 0.44763 0.29039 0.0
H841 H 0.50856 0.47064 0.20569 0.0
C842 C 0.6411 0.55265 0.12409 0.0
C843 C 0.57833 0.55657 0.15843 0.0
C844 C 0.65489 0.5362 0.10069 0.0
C845 C 0.60631 0.52338 0.11152 0.0
C846 C 0.54393 0.52731 0.14574 0.0
C847 C 0.52999 0.54364 0.16855 0.0
C848 C 0.61876 0.50586 0.0865 0.0
C849 C 0.61068 0.49256 0.13396 0.0
C850 C 0.63436 0.50211 0.01597 0.0
C851 C 0.63941 0.51537 0.9623 0.0
C852 C 0.58456 0.52617 0.95298 0.0
C853 C 0.58925 0.53847 0.90161 0.0
C854 C 0.64826 0.53998 0.85876 0.0
C855 C 0.7027 0.52917 0.867 0.0
C856 C 0.69835 0.51687 0.91847 0.0
C857 C 0.54439 0.43173 0.98773 0.0
C858 C 0.59037 0.42595 0.93479 0.0
C859 C 0.55916 0.44597 0.02637 0.0
C860 C 0.62048 0.45466 0.0134 0.0
C861 C 0.66925 0.44789 0.96553 0.0
C862 C 0.65459 0.43359 0.92694 0.0
C863 C 0.62853 0.47195 0.04162 0.0
C864 C 0.6399 0.48525 0.9947 0.0
C865 C 0.61562 0.47569 0.11249 0.0
C866 C 0.60714 0.46219 0.16488 0.0
C867 C 0.65759 0.44993 0.17027 0.0
C868 C 0.64919 0.4371 0.21915 0.0
C869 C 0.59017 0.43628 0.26239 0.0
C870 C 0.53967 0.44837 0.25719 0.0
C871 C 0.54827 0.46139 0.20917 0.0
H872 H 0.58345 0.42624 0.29972 0.0
H873 H 0.65166 0.5495 0.81909 0.0
H874 H 0.46207 0.46292 0.66811 0.0
H875 H 0.48463 0.49153 0.62972 0.0
H876 H 0.69781 0.48055 0.60238 0.0
H877 H 0.67574 0.45158 0.64167 0.0
H878 H 0.66843 0.51257 0.66705 0.0
H879 H 0.61685 0.48211 0.46551 0.0
H880 H 0.55304 0.46255 0.39559 0.0
H881 H 0.37775 0.49422 0.4204 0.0
H882 H 0.44012 0.5138 0.49205 0.0
H883 H 0.69006 0.58187 0.4031 0.0
H884 H 0.70874 0.557 0.47349 0.0
H885 H 0.50689 0.56152 0.568 0.0
H886 H 0.4877 0.58626 0.49858 0.0
H887 H 0.54769 0.53239 0.466 0.0
H888 H 0.6063 0.56358 0.66735 0.0
H889 H 0.67618 0.58294 0.73192 0.0
H890 H 0.84646 0.5499 0.70073 0.0
H891 H 0.77829 0.53054 0.63394 0.0
C892 C 0.51391 0.46646 0.65389 0.0
C893 C 0.56705 0.45484 0.65754 0.0
C894 C 0.52669 0.4829 0.63209 0.0
C895 C 0.59284 0.48817 0.61306 0.0
C896 C 0.64639 0.47673 0.61709 0.0
C897 C 0.63358 0.46015 0.6388 0.0
C898 C 0.60422 0.50545 0.58607 0.0
C899 C 0.64307 0.51689 0.6224 0.0
C900 C 0.57082 0.51106 0.52804 0.0
C901 C 0.53306 0.49936 0.48467 0.0
C902 C 0.56452 0.48484 0.45657 0.0
C903 C 0.52861 0.47376 0.41649 0.0
C904 C 0.46134 0.47714 0.40347 0.0
C905 C 0.42986 0.49162 0.43053 0.0
C906 C 0.46548 0.50271 0.47091 0.0
C907 C 0.65078 0.57808 0.44127 0.0
C908 C 0.58679 0.58587 0.44413 0.0
C909 C 0.66161 0.56383 0.48142 0.0
C910 C 0.60887 0.55736 0.52517 0.0
C911 C 0.54817 0.56635 0.53441 0.0
C912 C 0.53736 0.58055 0.49465 0.0
C913 C 0.61019 0.53965 0.54796 0.0
C914 C 0.57371 0.52808 0.5103 0.0
C915 C 0.64652 0.53403 0.60398 0.0
C916 C 0.68737 0.54571 0.64434 0.0
C917 C 0.65898 0.56057 0.67289 0.0
C918 C 0.69829 0.57155 0.71007 0.0
C919 C 0.76581 0.56771 0.72002 0.0
C920 C 0.79419 0.55288 0.6928 0.0
C921 C 0.75526 0.54191 0.65516 0.0
H922 H 0.79604 0.57618 0.74914 0.0
H923 H 0.43356 0.46855 0.37243 0.0
loop_
_geom_bond_atom_site_label_1
_geom_bond_atom_site_label_2
_geom_bond_distance
_geom_bond_site_symmetry_2
_ccdc_geom_bond_type
C0 O27 1.312 . S
C0 O28 1.208 . S
C1 O22 1.331 . S
C1 O25 1.244 . S
C2 O24 1.264 . S
C2 O26 1.273 . S
Mg3 O5 1.936 1_455 S
Mg3 O12 2.081 . S
Mg3 O14 2.023 . S
Mg3 O18 2.031 . S
Mg3 O27 2.291 . S
Mg4 O5 1.963 . S
Mg4 O15 1.942 . S
Mg4 O16 1.955 . S
Mg4 O23 1.986 . S
O5 Mg3 1.936 1_655 S
O5 Mg4 1.963 . S
O5 Mg6 1.915 . S
Mg6 O5 1.915 . S
Mg6 O7 1.915 1_655 S
Mg6 O11 2.013 . S
Mg6 O17 2.114 1_655 S
Mg6 O21 2.013 . S
Mg6 O27 2.114 1_655 S
O7 Mg6 1.915 1_455 S
O7 Mg8 1.936 . S
O7 Mg9 1.963 1_455 S
Mg8 O7 1.936 . S
Mg8 O17 2.291 . S
Mg8 O22 2.081 . S
Mg8 O24 2.023 1_455 S
Mg8 O28 2.031 . S
Mg9 O7 1.963 1_655 S
Mg9 O13 1.986 . S
Mg9 O25 1.942 1_655 S
Mg9 O26 1.955 . S
C10 O21 1.191 . S
C10 O23 1.307 . S
O11 Mg6 2.013 . S
O11 C30 1.191 . S
O12 Mg3 2.081 . S
O12 C20 1.331 1_455 S
O13 Mg9 1.986 . S
O13 C30 1.307 . S
O14 Mg3 2.023 . S
O14 C29 1.264 . S
O15 Mg4 1.942 . S
O15 C20 1.244 . S
O16 Mg4 1.955 . S
O16 C29 1.273 1_655 S
O17 Mg6 2.114 1_455 S
O17 Mg8 2.291 . S
O17 C19 1.312 . S
O18 Mg3 2.031 . S
O18 C19 1.208 . S
C19 O17 1.312 . S
C19 O18 1.208 . S
C20 O12 1.331 1_655 S
C20 O15 1.244 . S
O21 Mg6 2.013 . S
O21 C10 1.191 . S
O22 C1 1.331 . S
O22 Mg8 2.081 . S
O23 Mg4 1.986 . S
O23 C10 1.307 . S
O24 C2 1.264 . S
O24 Mg8 2.023 1_655 S
O25 C1 1.244 . S
O25 Mg9 1.942 1_455 S
O26 C2 1.273 . S
O26 Mg9 1.955 . S
O27 C0 1.312 . S
O27 Mg3 2.291 . S
O27 Mg6 2.114 1_455 S
O28 C0 1.208 . S
O28 Mg8 2.031 . S
C29 O14 1.264 . S
C29 O16 1.273 1_455 S
C30 O11 1.191 . S
C30 O13 1.307 . S
C31 O58 1.312 . S
C31 O59 1.208 . S
C32 O53 1.331 1_655 S
C32 O56 1.244 . S
C33 O55 1.264 . S
C33 O57 1.273 1_455 S
Mg34 O36 1.936 . S
Mg34 O43 2.081 . S
Mg34 O45 2.023 1_455 S
Mg34 O49 2.031 . S
Mg34 O58 2.291 . S
Mg35 O36 1.963 1_655 S
Mg35 O46 1.942 1_655 S
Mg35 O47 1.955 . S
Mg35 O54 1.986 . S
O36 Mg34 1.936 . S
O36 Mg35 1.963 1_455 S
O36 Mg37 1.915 1_455 S
Mg37 O36 1.915 1_655 S
Mg37 O38 1.915 . S
Mg37 O42 2.013 . S
Mg37 O48 2.114 1_655 S
Mg37 O52 2.013 . S
Mg37 O58 2.114 1_655 S
O38 Mg37 1.915 . S
O38 Mg39 1.936 1_655 S
O38 Mg40 1.963 . S
Mg39 O38 1.936 1_455 S
Mg39 O48 2.291 . S
Mg39 O53 2.081 . S
Mg39 O55 2.023 . S
Mg39 O59 2.031 . S
Mg40 O38 1.963 . S
Mg40 O44 1.986 . S
Mg40 O56 1.942 . S
Mg40 O57 1.955 . S
C41 O52 1.191 . S
C41 O54 1.307 . S
O42 Mg37 2.013 . S
O42 C61 1.191 . S
O43 Mg34 2.081 . S
O43 C51 1.331 . S
O44 Mg40 1.986 . S
O44 C61 1.307 . S
O45 Mg34 2.023 1_655 S
O45 C60 1.264 . S
O46 Mg35 1.942 1_455 S
O46 C51 1.244 . S
O47 Mg35 1.955 . S
O47 C60 1.273 . S
O48 Mg37 2.114 1_455 S
O48 Mg39 2.291 . S
O48 C50 1.312 . S
O49 Mg34 2.031 . S
O49 C50 1.208 . S
C50 O48 1.312 . S
C50 O49 1.208 . S
C51 O43 1.331 . S
C51 O46 1.244 . S
O52 Mg37 2.013 . S
O52 C41 1.191 . S
O53 C32 1.331 1_455 S
O53 Mg39 2.081 . S
O54 Mg35 1.986 . S
O54 C41 1.307 . S
O55 C33 1.264 . S
O55 Mg39 2.023 . S
O56 C32 1.244 . S
O56 Mg40 1.942 . S
O57 C33 1.273 1_655 S
O57 Mg40 1.955 . S
O58 C31 1.312 . S
O58 Mg34 2.291 . S
O58 Mg37 2.114 1_455 S
O59 C31 1.208 . S
O59 Mg39 2.031 . S
C60 O45 1.264 . S
C60 O47 1.273 . S
C61 O42 1.191 . S
C61 O44 1.307 . S
C62 O89 1.312 . S
C62 O90 1.208 . S
C63 O84 1.331 . S
C63 O87 1.244 . S
C64 O86 1.264 . S
C64 O88 1.273 . S
Mg65 O67 1.936 . S
Mg65 O74 2.081 . S
Mg65 O76 2.023 . S
Mg65 O80 2.031 . S
Mg65 O89 2.291 . S
Mg66 O67 1.963 . S
Mg66 O77 1.942 . S
Mg66 O78 1.955 . S
Mg66 O85 1.986 . S
O67 Mg65 1.936 . S
O67 Mg66 1.963 . S
O67 Mg68 1.915 . S
Mg68 O67 1.915 . S
Mg68 O69 1.915 . S
Mg68 O73 2.013 . S
Mg68 O79 2.114 . S
Mg68 O83 2.013 . S
Mg68 O89 2.114 . S
O69 Mg68 1.915 . S
O69 Mg70 1.936 . S
O69 Mg71 1.963 . S
Mg70 O69 1.936 . S
Mg70 O79 2.291 . S
Mg70 O84 2.081 . S
Mg70 O86 2.023 . S
Mg70 O90 2.031 . S
Mg71 O69 1.963 . S
Mg71 O75 1.986 . S
Mg71 O87 1.942 . S
Mg71 O88 1.955 . S
C72 O83 1.191 . S
C72 O85 1.307 . S
O73 Mg68 2.013 . S
O73 C92 1.191 . S
O74 Mg65 2.081 . S
O74 C82 1.331 . S
O75 Mg71 1.986 . S
O75 C92 1.307 . S
O76 Mg65 2.023 . S
O76 C91 1.264 . S
O77 Mg66 1.942 . S
O77 C82 1.244 . S
O78 Mg66 1.955 . S
O78 C91 1.273 . S
O79 Mg68 2.114 . S
O79 Mg70 2.291 . S
O79 C81 1.312 . S
O80 Mg65 2.031 . S
O80 C81 1.208 . S
C81 O79 1.312 . S
C81 O80 1.208 . S
C82 O74 1.331 . S
C82 O77 1.244 . S
O83 Mg68 2.013 . S
O83 C72 1.191 . S
O84 C63 1.331 . S
O84 Mg70 2.081 . S
O85 Mg66 1.986 . S
O85 C72 1.307 . S
O86 C64 1.264 . S
O86 Mg70 2.023 . S
O87 C63 1.244 . S
O87 Mg71 1.942 . S
O88 C64 1.273 . S
O88 Mg71 1.955 . S
O89 C62 1.312 . S
O89 Mg65 2.291 . S
O89 Mg68 2.114 . S
O90 C62 1.208 . S
O90 Mg70 2.031 . S
C91 O76 1.264 . S
C91 O78 1.273 . S
C92 O73 1.191 . S
C92 O75 1.307 . S
C93 O120 1.312 . S
C93 O121 1.208 . S
C94 O115 1.331 . S
C94 O118 1.244 . S
C95 O117 1.264 . S
C95 O119 1.273 . S
Mg96 O98 1.936 . S
Mg96 O105 2.081 . S
Mg96 O107 2.023 . S
Mg96 O111 2.031 . S
Mg96 O120 2.291 . S
Mg97 O98 1.963 . S
Mg97 O108 1.942 . S
Mg97 O109 1.955 . S
Mg97 O116 1.986 . S
O98 Mg96 1.936 . S
O98 Mg97 1.963 . S
O98 Mg99 1.915 . S
Mg99 O98 1.915 . S
Mg99 O100 1.915 . S
Mg99 O104 2.013 . S
Mg99 O110 2.114 . S
Mg99 O114 2.013 . S
Mg99 O120 2.114 . S
O100 Mg99 1.915 . S
O100 Mg101 1.936 . S
O100 Mg102 1.963 . S
Mg101 O100 1.936 . S
Mg101 O110 2.291 . S
Mg101 O115 2.081 . S
Mg101 O117 2.023 . S
Mg101 O121 2.031 . S
Mg102 O100 1.963 . S
Mg102 O106 1.986 . S
Mg102 O118 1.942 . S
Mg102 O119 1.955 . S
C103 O114 1.191 . S
C103 O116 1.307 . S
O104 Mg99 2.013 . S
O104 C123 1.191 . S
O105 Mg96 2.081 . S
O105 C113 1.331 . S
O106 Mg102 1.986 . S
O106 C123 1.307 . S
O107 Mg96 2.023 . S
O107 C122 1.264 . S
O108 Mg97 1.942 . S
O108 C113 1.244 . S
O109 Mg97 1.955 . S
O109 C122 1.273 . S
O110 Mg99 2.114 . S
O110 Mg101 2.291 . S
O110 C112 1.312 . S
O111 Mg96 2.031 . S
O111 C112 1.208 . S
C112 O110 1.312 . S
C112 O111 1.208 . S
C113 O105 1.331 . S
C113 O108 1.244 . S
O114 Mg99 2.013 . S
O114 C103 1.191 . S
O115 C94 1.331 . S
O115 Mg101 2.081 . S
O116 Mg97 1.986 . S
O116 C103 1.307 . S
O117 C95 1.264 . S
O117 Mg101 2.023 . S
O118 C94 1.244 . S
O118 Mg102 1.942 . S
O119 C95 1.273 . S
O119 Mg102 1.955 . S
O120 C93 1.312 . S
O120 Mg96 2.291 . S
O120 Mg99 2.114 . S
O121 C93 1.208 . S
O121 Mg101 2.031 . S
C122 O107 1.264 . S
C122 O109 1.273 . S
C123 O104 1.191 . S
C123 O106 1.307 . S
H124 C142 0.951 . S
H125 C144 0.951 . S
H126 C146 0.950 . S
H127 C147 0.950 1_655 S
H128 C149 0.950 . S
H129 C152 0.950 . S
H130 C153 0.950 . S
H131 C155 0.950 . S
H132 C156 0.950 . S
H133 C157 0.951 . S
H134 C159 0.951 . S
H135 C161 0.950 . S
H136 C162 0.950 1_455 S
H137 C164 0.950 . S
H138 C167 0.950 . S
H139 C168 0.950 . S
H140 C170 0.950 . S
H141 C171 0.950 . S
C142 H124 0.951 . S
C142 C143 1.366 . S
C142 C144 1.388 1_554 S
C143 C142 1.366 . S
C143 C147 1.385 . S
C144 H125 0.951 . S
C144 C142 1.388 1_556 S
C144 C145 1.366 . S
C145 C144 1.366 . S
C145 C146 1.414 1_455 S
C145 C148 1.497 1_455 S
C146 H126 0.950 . S
C146 C145 1.414 1_655 S
C146 C147 1.374 1_656 S
C147 H127 0.950 1_455 S
C147 C143 1.385 . S
C147 C146 1.374 1_454 S
C148 C145 1.497 1_655 S
C148 C149 1.366 1_655 S
C148 C150 1.397 . S
C149 H128 0.950 . S
C149 C148 1.366 1_455 S
C149 C165 1.377 . S
C150 C148 1.397 . S
C150 C151 1.524 . S
C150 C164 1.377 . S
C151 C150 1.524 . S
C151 C152 1.397 . S
C151 C156 1.363 . S
C152 H129 0.950 . S
C152 C151 1.397 . S
C152 C153 1.334 . S
C153 H130 0.950 . S
C153 C152 1.334 . S
C153 C154 1.287 . S
C154 C153 1.287 . S
C154 C155 1.524 . S
C154 H173 0.913 . S
C155 H131 0.950 . S
C155 C154 1.524 . S
C155 C156 1.415 . S
C156 H132 0.950 . S
C156 C151 1.363 . S
C156 C155 1.415 . S
C157 H133 0.951 . S
C157 C158 1.366 . S
C157 C159 1.388 . S
C158 C157 1.366 . S
C158 C162 1.385 . S
C159 H134 0.951 . S
C159 C157 1.388 . S
C159 C160 1.366 . S
C160 C159 1.366 . S
C160 C161 1.414 1_655 S
C160 C163 1.499 . S
C161 H135 0.950 . S
C161 C160 1.414 1_455 S
C161 C162 1.374 1_455 S
C162 H136 0.950 1_655 S
C162 C158 1.385 . S
C162 C161 1.374 1_655 S
C163 C160 1.499 . S
C163 C164 1.374 . S
C163 C165 1.389 1_655 S
C164 H137 0.950 . S
C164 C150 1.377 . S
C164 C163 1.374 . S
C165 C149 1.377 . S
C165 C163 1.389 1_455 S
C165 C166 1.524 . S
C166 C165 1.524 . S
C166 C167 1.397 . S
C166 C171 1.363 . S
C167 H138 0.950 . S
C167 C166 1.397 . S
C167 C168 1.334 . S
C168 H139 0.950 . S
C168 C167 1.334 . S
C168 C169 1.287 . S
C169 C168 1.287 . S
C169 C170 1.524 . S
C169 H172 0.999 . S
C170 H140 0.950 . S
C170 C169 1.524 . S
C170 C171 1.415 . S
C171 H141 0.950 . S
C171 C166 1.363 . S
C171 C170 1.415 . S
H172 C169 0.999 . S
H173 C154 0.913 . S
H174 C192 0.951 . S
H175 C194 0.951 . S
H176 C196 0.950 . S
H177 C197 0.950 . S
H178 C199 0.950 . S
H179 C202 0.950 . S
H180 C203 0.950 . S
H181 C205 0.950 . S
H182 C206 0.950 . S
H183 C207 0.951 1_556 S
H184 C209 0.951 . S
H185 C211 0.950 . S
H186 C212 0.950 . S
H187 C214 0.950 . S
H188 C217 0.950 . S
H189 C218 0.950 . S
H190 C220 0.950 . S
H191 C221 0.950 . S
C192 H174 0.951 . S
C192 C193 1.366 . S
C192 C194 1.388 . S
C193 C192 1.366 . S
C193 C197 1.385 1_455 S
C194 H175 0.951 . S
C194 C192 1.388 . S
C194 C195 1.366 . S
C195 C194 1.366 . S
C195 C196 1.414 1_455 S
C195 C198 1.499 . S
C196 H176 0.950 . S
C196 C195 1.414 1_655 S
C196 C197 1.374 . S
C197 H177 0.950 . S
C197 C193 1.385 1_655 S
C197 C196 1.374 . S
C198 C195 1.499 . S
C198 C199 1.373 1_455 S
C198 C200 1.389 . S
C199 H178 0.950 . S
C199 C198 1.373 1_655 S
C199 C215 1.377 . S
C200 C198 1.389 . S
C200 C201 1.524 . S
C200 C214 1.377 . S
C201 C200 1.524 . S
C201 C202 1.397 . S
C201 C206 1.363 . S
C202 H179 0.950 . S
C202 C201 1.397 . S
C202 C203 1.334 . S
C203 H180 0.950 . S
C203 C202 1.334 . S
C203 C204 1.287 . S
C204 C203 1.287 . S
C204 C205 1.524 . S
C204 H223 0.913 . S
C205 H181 0.950 . S
C205 C204 1.524 . S
C205 C206 1.415 . S
C206 H182 0.950 . S
C206 C201 1.363 . S
C206 C205 1.415 . S
C207 H183 0.951 1_554 S
C207 C208 1.366 1_554 S
C207 C209 1.388 . S
C208 C207 1.366 1_556 S
C208 C212 1.385 1_655 S
C209 H184 0.951 . S
C209 C207 1.388 . S
C209 C210 1.366 . S
C210 C209 1.366 . S
C210 C211 1.414 1_655 S
C210 C213 1.499 . S
C211 H185 0.950 . S
C211 C210 1.414 1_455 S
C211 C212 1.374 1_554 S
C212 H186 0.950 . S
C212 C208 1.385 1_455 S
C212 C211 1.374 1_556 S
C213 C210 1.499 . S
C213 C214 1.373 1_655 S
C213 C215 1.389 . S
C214 H187 0.950 . S
C214 C200 1.377 . S
C214 C213 1.373 1_455 S
C215 C199 1.377 . S
C215 C213 1.389 . S
C215 C216 1.524 . S
C216 C215 1.524 . S
C216 C217 1.397 . S
C216 C221 1.363 . S
C217 H188 0.950 . S
C217 C216 1.397 . S
C217 C218 1.334 . S
C218 H189 0.950 . S
C218 C217 1.334 . S
C218 C219 1.287 . S
C219 C218 1.287 . S
C219 C220 1.524 . S
C219 H222 0.999 . S
C220 H190 0.950 . S
C220 C219 1.524 . S
C220 C221 1.415 . S
C221 H191 0.950 . S
C221 C216 1.363 . S
C221 C220 1.415 . S
H222 C219 0.999 . S
H223 C204 0.913 . S
H224 C242 0.951 . S
H225 C244 0.951 . S
H226 C246 0.950 . S
H227 C247 0.950 . S
H228 C249 0.950 . S
H229 C252 0.950 . S
H230 C253 0.950 . S
H231 C255 0.950 . S
H232 C256 0.950 . S
H233 C257 0.951 . S
H234 C259 0.951 . S
H235 C261 0.950 . S
H236 C262 0.950 . S
H237 C264 0.950 . S
H238 C267 0.950 . S
H239 C268 0.950 . S
H240 C270 0.950 . S
H241 C271 0.950 . S
C242 H224 0.951 . S
C242 C243 1.366 . S
C242 C244 1.388 1_554 S
C243 C242 1.366 . S
C243 C247 1.385 . S
C244 H225 0.951 . S
C244 C242 1.388 1_556 S
C244 C245 1.366 . S
C245 C244 1.366 . S
C245 C246 1.414 . S
C245 C248 1.499 . S
C246 H226 0.950 . S
C246 C245 1.414 . S
C246 C247 1.374 1_556 S
C247 H227 0.950 . S
C247 C243 1.385 . S
C247 C246 1.374 1_554 S
C248 C245 1.499 . S
C248 C249 1.373 . S
C248 C250 1.389 . S
C249 H228 0.950 . S
C249 C248 1.373 . S
C249 C265 1.377 . S
C250 C248 1.389 . S
C250 C251 1.524 . S
C250 C264 1.377 . S
C251 C250 1.524 . S
C251 C252 1.397 . S
C251 C256 1.363 . S
C252 H229 0.950 . S
C252 C251 1.397 . S
C252 C253 1.334 . S
C253 H230 0.950 . S
C253 C252 1.334 . S
C253 C254 1.287 . S
C254 C253 1.287 . S
C254 C255 1.524 . S
C254 H273 0.913 . S
C255 H231 0.950 . S
C255 C254 1.524 . S
C255 C256 1.415 . S
C256 H232 0.950 . S
C256 C251 1.363 . S
C256 C255 1.415 . S
C257 H233 0.951 . S
C257 C258 1.366 . S
C257 C259 1.388 . S
C258 C257 1.366 . S
C258 C262 1.385 . S
C259 H234 0.951 . S
C259 C257 1.388 . S
C259 C260 1.366 . S
C260 C259 1.366 . S
C260 C261 1.414 . S
C260 C263 1.499 . S
C261 H235 0.950 . S
C261 C260 1.414 . S
C261 C262 1.374 . S
C262 H236 0.950 . S
C262 C258 1.385 . S
C262 C261 1.374 . S
C263 C260 1.499 . S
C263 C264 1.373 . S
C263 C265 1.389 . S
C264 H237 0.950 . S
C264 C250 1.377 . S
C264 C263 1.373 . S
C265 C249 1.377 . S
C265 C263 1.389 . S
C265 C266 1.524 . S
C266 C265 1.524 . S
C266 C267 1.397 . S
C266 C271 1.363 . S
C267 H238 0.950 . S
C267 C266 1.397 . S
C267 C268 1.334 . S
C268 H239 0.950 . S
C268 C267 1.334 . S
C268 C269 1.287 . S
C269 C268 1.287 . S
C269 C270 1.524 . S
C269 H272 0.999 . S
C270 H240 0.950 . S
C270 C269 1.524 . S
C270 C271 1.415 . S
C271 H241 0.950 . S
C271 C266 1.363 . S
C271 C270 1.415 . S
H272 C269 0.999 . S
H273 C254 0.913 . S
H274 C292 0.951 . S
H275 C294 0.951 . S
H276 C296 0.950 . S
H277 C297 0.950 . S
H278 C299 0.950 . S
H279 C302 0.950 . S
H280 C303 0.950 . S
H281 C305 0.950 . S
H282 C306 0.950 . S
H283 C307 0.951 . S
H284 C309 0.951 . S
H285 C311 0.950 . S
H286 C312 0.950 . S
H287 C314 0.950 . S
H288 C317 0.950 . S
H289 C318 0.950 . S
H290 C320 0.950 . S
H291 C321 0.950 . S
C292 H274 0.951 . S
C292 C293 1.366 . S
C292 C294 1.388 1_556 S
C293 C292 1.366 . S
C293 C297 1.385 . S
C294 H275 0.951 . S
C294 C292 1.388 1_554 S
C294 C295 1.366 . S
C295 C294 1.366 . S
C295 C296 1.414 . S
C295 C298 1.499 . S
C296 H276 0.950 . S
C296 C295 1.414 . S
C296 C297 1.374 1_554 S
C297 H277 0.950 . S
C297 C293 1.385 . S
C297 C296 1.374 1_556 S
C298 C295 1.499 . S
C298 C299 1.373 . S
C298 C300 1.389 . S
C299 H278 0.950 . S
C299 C298 1.373 . S
C299 C315 1.377 . S
C300 C298 1.389 . S
C300 C301 1.524 . S
C300 C314 1.377 . S
C301 C300 1.524 . S
C301 C302 1.397 . S
C301 C306 1.363 . S
C302 H279 0.950 . S
C302 C301 1.397 . S
C302 C303 1.334 . S
C303 H280 0.950 . S
C303 C302 1.334 . S
C303 C304 1.287 . S
C304 C303 1.287 . S
C304 C305 1.524 . S
C304 H323 0.913 . S
C305 H281 0.950 . S
C305 C304 1.524 . S
C305 C306 1.415 . S
C306 H282 0.950 . S
C306 C301 1.363 . S
C306 C305 1.415 . S
C307 H283 0.951 . S
C307 C308 1.366 . S
C307 C309 1.388 . S
C308 C307 1.366 . S
C308 C312 1.385 . S
C309 H284 0.951 . S
C309 C307 1.388 . S
C309 C310 1.366 . S
C310 C309 1.366 . S
C310 C311 1.414 . S
C310 C313 1.499 . S
C311 H285 0.950 . S
C311 C310 1.414 . S
C311 C312 1.374 . S
C312 H286 0.950 . S
C312 C308 1.385 . S
C312 C311 1.374 . S
C313 C310 1.499 . S
C313 C314 1.373 . S
C313 C315 1.389 . S
C314 H287 0.950 . S
C314 C300 1.377 . S
C314 C313 1.373 . S
C315 C299 1.377 . S
C315 C313 1.389 . S
C315 C316 1.524 . S
C316 C315 1.524 . S
C316 C317 1.397 . S
C316 C321 1.363 . S
C317 H288 0.950 . S
C317 C316 1.397 . S
C317 C318 1.334 . S
C318 H289 0.950 . S
C318 C317 1.334 . S
C318 C319 1.287 . S
C319 C318 1.287 . S
C319 C320 1.524 . S
C319 H322 0.999 . S
C320 H290 0.950 . S
C320 C319 1.524 . S
C320 C321 1.415 . S
C321 H291 0.950 . S
C321 C316 1.363 . S
C321 C320 1.415 . S
H322 C319 0.999 . S
H323 C304 0.913 . S
H324 C342 0.951 . S
H325 C344 0.951 . S
H326 C346 0.950 . S
H327 C347 0.950 . S
H328 C349 0.950 . S
H329 C352 0.950 . S
H330 C353 0.950 . S
H331 C355 0.950 . S
H332 C356 0.950 . S
H333 C357 0.951 . S
H334 C359 0.951 . S
H335 C361 0.950 . S
H336 C362 0.950 . S
H337 C364 0.950 . S
H338 C367 0.950 . S
H339 C368 0.950 . S
H340 C370 0.950 . S
H341 C371 0.950 . S
C342 H324 0.951 . S
C342 C343 1.366 . S
C342 C344 1.388 . S
C343 C342 1.366 . S
C343 C347 1.385 . S
C344 H325 0.951 . S
C344 C342 1.388 . S
C344 C345 1.366 . S
C345 C344 1.366 . S
C345 C346 1.414 . S
C345 C348 1.499 . S
C346 H326 0.950 . S
C346 C345 1.414 . S
C346 C347 1.374 . S
C347 H327 0.950 . S
C347 C343 1.385 . S
C347 C346 1.374 . S
C348 C345 1.499 . S
C348 C349 1.373 . S
C348 C350 1.389 . S
C349 H328 0.950 . S
C349 C348 1.373 . S
C349 C365 1.377 . S
C350 C348 1.389 . S
C350 C351 1.524 . S
C350 C364 1.377 . S
C351 C350 1.524 . S
C351 C352 1.397 . S
C351 C356 1.363 . S
C352 H329 0.950 . S
C352 C351 1.397 . S
C352 C353 1.334 . S
C353 H330 0.950 . S
C353 C352 1.334 . S
C353 C354 1.287 1_554 S
C354 C353 1.287 1_556 S
C354 C355 1.524 . S
C354 H373 0.913 . S
C355 H331 0.950 . S
C355 C354 1.524 . S
C355 C356 1.415 1_556 S
C356 H332 0.950 . S
C356 C351 1.363 . S
C356 C355 1.415 1_554 S
C357 H333 0.951 . S
C357 C358 1.366 . S
C357 C359 1.388 . S
C358 C357 1.366 . S
C358 C362 1.385 . S
C359 H334 0.951 . S
C359 C357 1.388 . S
C359 C360 1.366 . S
C360 C359 1.366 . S
C360 C361 1.414 . S
C360 C363 1.499 . S
C361 H335 0.950 . S
C361 C360 1.414 . S
C361 C362 1.374 . S
C362 H336 0.950 . S
C362 C358 1.385 . S
C362 C361 1.374 . S
C363 C360 1.499 . S
C363 C364 1.373 . S
C363 C365 1.389 . S
C364 H337 0.950 . S
C364 C350 1.377 . S
C364 C363 1.373 . S
C365 C349 1.377 . S
C365 C363 1.389 . S
C365 C366 1.524 . S
C366 C365 1.524 . S
C366 C367 1.397 . S
C366 C371 1.363 . S
C367 H338 0.950 . S
C367 C366 1.397 . S
C367 C368 1.334 . S
C368 H339 0.950 . S
C368 C367 1.334 . S
C368 C369 1.287 . S
C369 C368 1.287 . S
C369 C370 1.524 . S
C369 H372 0.999 . S
C370 H340 0.950 . S
C370 C369 1.524 . S
C370 C371 1.415 . S
C371 H341 0.950 . S
C371 C366 1.363 . S
C371 C370 1.415 . S
H372 C369 0.999 . S
H373 C354 0.913 . S
H374 C392 0.951 . S
H375 C394 0.951 . S
H376 C396 0.950 . S
H377 C397 0.950 . S
H378 C399 0.950 . S
H379 C402 0.950 . S
H380 C403 0.950 . S
H381 C405 0.950 . S
H382 C406 0.950 . S
H383 C407 0.951 . S
H384 C409 0.951 . S
H385 C411 0.950 . S
H386 C412 0.950 . S
H387 C414 0.950 . S
H388 C417 0.950 . S
H389 C418 0.950 . S
H390 C420 0.950 . S
H391 C421 0.950 . S
C392 H374 0.951 . S
C392 C393 1.366 . S
C392 C394 1.388 . S
C393 C392 1.366 . S
C393 C397 1.385 . S
C394 H375 0.951 . S
C394 C392 1.388 . S
C394 C395 1.366 . S
C395 C394 1.366 . S
C395 C396 1.414 . S
C395 C398 1.499 . S
C396 H376 0.950 . S
C396 C395 1.414 . S
C396 C397 1.374 . S
C397 H377 0.950 . S
C397 C393 1.385 . S
C397 C396 1.374 . S
C398 C395 1.499 . S
C398 C399 1.373 . S
C398 C400 1.389 . S
C399 H378 0.950 . S
C399 C398 1.373 . S
C399 C415 1.377 . S
C400 C398 1.389 . S
C400 C401 1.524 . S
C400 C414 1.377 . S
C401 C400 1.524 . S
C401 C402 1.397 . S
C401 C406 1.363 . S
C402 H379 0.950 . S
C402 C401 1.397 . S
C402 C403 1.334 . S
C403 H380 0.950 . S
C403 C402 1.334 . S
C403 C404 1.287 . S
C404 C403 1.287 . S
C404 C405 1.524 . S
C404 H423 0.913 . S
C405 H381 0.950 . S
C405 C404 1.524 . S
C405 C406 1.415 . S
C406 H382 0.950 . S
C406 C401 1.363 . S
C406 C405 1.415 . S
C407 H383 0.951 . S
C407 C408 1.366 . S
C407 C409 1.388 . S
C408 C407 1.366 . S
C408 C412 1.385 . S
C409 H384 0.951 . S
C409 C407 1.388 . S
C409 C410 1.366 . S
C410 C409 1.366 . S
C410 C411 1.414 . S
C410 C413 1.499 . S
C411 H385 0.950 . S
C411 C410 1.414 . S
C411 C412 1.374 . S
C412 H386 0.950 . S
C412 C408 1.385 . S
C412 C411 1.374 . S
C413 C410 1.499 . S
C413 C414 1.373 . S
C413 C415 1.389 . S
C414 H387 0.950 . S
C414 C400 1.377 . S
C414 C413 1.373 . S
C415 C399 1.377 . S
C415 C413 1.389 . S
C415 C416 1.524 . S
C416 C415 1.524 . S
C416 C417 1.397 . S
C416 C421 1.363 . S
C417 H388 0.950 . S
C417 C416 1.397 . S
C417 C418 1.334 . S
C418 H389 0.950 . S
C418 C417 1.334 . S
C418 C419 1.287 . S
C419 C418 1.287 . S
C419 C420 1.524 . S
C419 H422 0.999 . S
C420 H390 0.950 . S
C420 C419 1.524 . S
C420 C421 1.415 . S
C421 H391 0.950 . S
C421 C416 1.363 . S
C421 C420 1.415 . S
H422 C419 0.999 . S
H423 C404 0.913 . S
H424 C442 0.951 . S
H425 C444 0.951 . S
H426 C446 0.950 . S
H427 C447 0.950 . S
H428 C449 0.950 . S
H429 C452 0.950 . S
H430 C453 0.950 . S
H431 C455 0.950 1_556 S
H432 C456 0.950 . S
H433 C457 0.951 . S
H434 C459 0.951 . S
H435 C461 0.950 . S
H436 C462 0.950 . S
H437 C464 0.950 . S
H438 C467 0.950 . S
H439 C468 0.950 . S
H440 C470 0.950 . S
H441 C471 0.950 . S
C442 H424 0.951 . S
C442 C443 1.366 . S
C442 C444 1.388 . S
C443 C442 1.366 . S
C443 C447 1.385 . S
C444 H425 0.951 . S
C444 C442 1.388 . S
C444 C445 1.366 . S
C445 C444 1.366 . S
C445 C446 1.414 . S
C445 C448 1.499 . S
C446 H426 0.950 . S
C446 C445 1.414 . S
C446 C447 1.374 . S
C447 H427 0.950 . S
C447 C443 1.385 . S
C447 C446 1.374 . S
C448 C445 1.499 . S
C448 C449 1.373 . S
C448 C450 1.389 . S
C449 H428 0.950 . S
C449 C448 1.373 . S
C449 C465 1.377 1_655 S
C450 C448 1.389 . S
C450 C451 1.524 . S
C450 C464 1.377 1_655 S
C451 C450 1.524 . S
C451 C452 1.397 . S
C451 C456 1.363 . S
C452 H429 0.950 . S
C452 C451 1.397 . S
C452 C453 1.334 . S
C453 H430 0.950 . S
C453 C452 1.334 . S
C453 C454 1.287 . S
C454 C453 1.287 . S
C454 C455 1.524 . S
C454 H473 0.913 1_554 S
C455 H431 0.950 1_554 S
C455 C454 1.524 . S
C455 C456 1.415 . S
C456 H432 0.950 . S
C456 C451 1.363 . S
C456 C455 1.415 . S
C457 H433 0.951 . S
C457 C458 1.366 . S
C457 C459 1.388 . S
C458 C457 1.366 . S
C458 C462 1.385 . S
C459 H434 0.951 . S
C459 C457 1.388 . S
C459 C460 1.366 . S
C460 C459 1.366 . S
C460 C461 1.414 . S
C460 C463 1.499 . S
C461 H435 0.950 . S
C461 C460 1.414 . S
C461 C462 1.374 . S
C462 H436 0.950 . S
C462 C458 1.385 . S
C462 C461 1.374 . S
C463 C460 1.499 . S
C463 C464 1.373 . S
C463 C465 1.389 . S
C464 H437 0.950 . S
C464 C450 1.377 1_455 S
C464 C463 1.373 . S
C465 C449 1.377 1_455 S
C465 C463 1.389 . S
C465 C466 1.524 . S
C466 C465 1.524 . S
C466 C467 1.397 . S
C466 C471 1.363 . S
C467 H438 0.950 . S
C467 C466 1.397 . S
C467 C468 1.334 . S
C468 H439 0.950 . S
C468 C467 1.334 . S
C468 C469 1.287 . S
C469 C468 1.287 . S
C469 C470 1.524 . S
C469 H472 0.999 . S
C470 H440 0.950 . S
C470 C469 1.524 . S
C470 C471 1.415 . S
C471 H441 0.950 . S
C471 C466 1.363 . S
C471 C470 1.415 . S
H472 C469 0.999 . S
H473 C454 0.913 1_556 S
H474 C492 0.951 . S
H475 C494 0.951 . S
H476 C496 0.950 . S
H477 C497 0.950 . S
H478 C499 0.950 . S
H479 C502 0.950 . S
H480 C503 0.950 . S
H481 C505 0.950 . S
H482 C506 0.950 . S
H483 C507 0.951 . S
H484 C509 0.951 . S
H485 C511 0.950 . S
H486 C512 0.950 . S
H487 C514 0.950 . S
H488 C517 0.950 . S
H489 C518 0.950 . S
H490 C520 0.950 . S
H491 C521 0.950 . S
C492 H474 0.951 . S
C492 C493 1.366 . S
C492 C494 1.388 . S
C493 C492 1.366 . S
C493 C497 1.385 . S
C494 H475 0.951 . S
C494 C492 1.388 . S
C494 C495 1.366 . S
C495 C494 1.366 . S
C495 C496 1.414 . S
C495 C498 1.499 . S
C496 H476 0.950 . S
C496 C495 1.414 . S
C496 C497 1.374 . S
C497 H477 0.950 . S
C497 C493 1.385 . S
C497 C496 1.374 . S
C498 C495 1.499 . S
C498 C499 1.373 . S
C498 C500 1.389 . S
C499 H478 0.950 . S
C499 C498 1.373 . S
C499 C515 1.377 1_655 S
C500 C498 1.389 . S
C500 C501 1.524 . S
C500 C514 1.377 1_655 S
C501 C500 1.524 . S
C501 C502 1.397 . S
C501 C506 1.363 . S
C502 H479 0.950 . S
C502 C501 1.397 . S
C502 C503 1.334 . S
C503 H480 0.950 . S
C503 C502 1.334 . S
C503 C504 1.287 . S
C504 C503 1.287 . S
C504 C505 1.524 . S
C504 H523 0.913 . S
C505 H481 0.950 . S
C505 C504 1.524 . S
C505 C506 1.415 . S
C506 H482 0.950 . S
C506 C501 1.363 . S
C506 C505 1.415 . S
C507 H483 0.951 . S
C507 C508 1.366 . S
C507 C509 1.388 . S
C508 C507 1.366 . S
C508 C512 1.385 . S
C509 H484 0.951 . S
C509 C507 1.388 . S
C509 C510 1.366 . S
C510 C509 1.366 . S
C510 C511 1.414 . S
C510 C513 1.499 . S
C511 H485 0.950 . S
C511 C510 1.414 . S
C511 C512 1.374 . S
C512 H486 0.950 . S
C512 C508 1.385 . S
C512 C511 1.374 . S
C513 C510 1.499 . S
C513 C514 1.373 . S
C513 C515 1.389 . S
C514 H487 0.950 . S
C514 C500 1.377 1_455 S
C514 C513 1.373 . S
C515 C499 1.377 1_455 S
C515 C513 1.389 . S
C515 C516 1.524 . S
C516 C515 1.524 . S
C516 C517 1.397 . S
C516 C521 1.363 . S
C517 H488 0.950 . S
C517 C516 1.397 . S
C517 C518 1.334 . S
C518 H489 0.950 . S
C518 C517 1.334 . S
C518 C519 1.287 . S
C519 C518 1.287 . S
C519 C520 1.524 . S
C519 H522 0.999 . S
C520 H490 0.950 . S
C520 C519 1.524 . S
C520 C521 1.415 . S
C521 H491 0.950 . S
C521 C516 1.363 . S
C521 C520 1.415 . S
H522 C519 0.999 . S
H523 C504 0.913 . S
H524 C542 0.951 . S
H525 C544 0.951 . S
H526 C546 0.950 . S
H527 C547 0.950 . S
H528 C549 0.950 . S
H529 C552 0.950 . S
H530 C553 0.950 . S
H531 C555 0.950 . S
H532 C556 0.950 . S
H533 C557 0.951 . S
H534 C559 0.951 . S
H535 C561 0.950 . S
H536 C562 0.950 . S
H537 C564 0.950 . S
H538 C567 0.950 . S
H539 C568 0.950 1_655 S
H540 C570 0.950 1_655 S
H541 C571 0.950 . S
C542 H524 0.951 . S
C542 C543 1.366 . S
C542 C544 1.388 . S
C543 C542 1.366 . S
C543 C547 1.385 . S
C544 H525 0.951 . S
C544 C542 1.388 . S
C544 C545 1.366 . S
C545 C544 1.366 . S
C545 C546 1.414 . S
C545 C548 1.499 . S
C546 H526 0.950 . S
C546 C545 1.414 . S
C546 C547 1.374 . S
C547 H527 0.950 . S
C547 C543 1.385 . S
C547 C546 1.374 . S
C548 C545 1.499 . S
C548 C549 1.373 . S
C548 C550 1.389 . S
C549 H528 0.950 . S
C549 C548 1.373 . S
C549 C565 1.377 . S
C550 C548 1.389 . S
C550 C551 1.524 . S
C550 C564 1.377 . S
C551 C550 1.524 . S
C551 C552 1.397 . S
C551 C556 1.363 . S
C552 H529 0.950 . S
C552 C551 1.397 . S
C552 C553 1.334 . S
C553 H530 0.950 . S
C553 C552 1.334 . S
C553 C554 1.287 . S
C554 C553 1.287 . S
C554 C555 1.524 . S
C554 H573 0.913 . S
C555 H531 0.950 . S
C555 C554 1.524 . S
C555 C556 1.415 . S
C556 H532 0.950 . S
C556 C551 1.363 . S
C556 C555 1.415 . S
C557 H533 0.951 . S
C557 C558 1.366 . S
C557 C559 1.388 . S
C558 C557 1.366 . S
C558 C562 1.385 . S
C559 H534 0.951 . S
C559 C557 1.388 . S
C559 C560 1.366 . S
C560 C559 1.366 . S
C560 C561 1.414 . S
C560 C563 1.499 . S
C561 H535 0.950 . S
C561 C560 1.414 . S
C561 C562 1.374 . S
C562 H536 0.950 . S
C562 C558 1.385 . S
C562 C561 1.374 . S
C563 C560 1.499 . S
C563 C564 1.373 . S
C563 C565 1.389 . S
C564 H537 0.950 . S
C564 C550 1.377 . S
C564 C563 1.373 . S
C565 C549 1.377 . S
C565 C563 1.389 . S
C565 C566 1.524 . S
C566 C565 1.524 . S
C566 C567 1.397 . S
C566 C571 1.363 . S
C567 H538 0.950 . S
C567 C566 1.397 . S
C567 C568 1.334 . S
C568 H539 0.950 1_455 S
C568 C567 1.334 . S
C568 C569 1.287 1_455 S
C569 C568 1.287 1_655 S
C569 C570 1.524 1_655 S
C569 H572 0.999 . S
C570 H540 0.950 1_455 S
C570 C569 1.524 1_455 S
C570 C571 1.415 . S
C571 H541 0.950 . S
C571 C566 1.363 . S
C571 C570 1.415 . S
H572 C569 0.999 . S
H573 C554 0.913 . S
H574 C592 0.951 . S
H575 C594 0.951 1_554 S
H576 C596 0.950 . S
H577 C597 0.950 . S
H578 C599 0.950 . S
H579 C602 0.950 . S
H580 C603 0.950 . S
H581 C605 0.950 . S
H582 C606 0.950 . S
H583 C607 0.951 . S
H584 C609 0.951 1_556 S
H585 C611 0.950 . S
H586 C612 0.950 . S
H587 C614 0.950 . S
H588 C617 0.950 . S
H589 C618 0.950 . S
H590 C620 0.950 . S
H591 C621 0.950 . S
C592 H574 0.951 . S
C592 C593 1.366 . S
C592 C594 1.388 . S
C593 C592 1.366 . S
C593 C597 1.385 . S
C594 H575 0.951 1_556 S
C594 C592 1.388 . S
C594 C595 1.366 . S
C595 C594 1.366 . S
C595 C596 1.414 . S
C595 C598 1.499 . S
C596 H576 0.950 . S
C596 C595 1.414 . S
C596 C597 1.374 . S
C597 H577 0.950 . S
C597 C593 1.385 . S
C597 C596 1.374 . S
C598 C595 1.499 . S
C598 C599 1.373 . S
C598 C600 1.389 1_556 S
C599 H578 0.950 . S
C599 C598 1.373 . S
C599 C615 1.377 1_556 S
C600 C598 1.389 1_554 S
C600 C601 1.524 . S
C600 C614 1.377 . S
C601 C600 1.524 . S
C601 C602 1.397 1_554 S
C601 C606 1.363 . S
C602 H579 0.950 . S
C602 C601 1.397 1_556 S
C602 C603 1.334 . S
C603 H580 0.950 . S
C603 C602 1.334 . S
C603 C604 1.287 . S
C604 C603 1.287 . S
C604 C605 1.524 1_556 S
C604 H623 0.913 . S
C605 H581 0.950 . S
C605 C604 1.524 1_554 S
C605 C606 1.415 . S
C606 H582 0.950 . S
C606 C601 1.363 . S
C606 C605 1.415 . S
C607 H583 0.951 . S
C607 C608 1.366 . S
C607 C609 1.388 . S
C608 C607 1.366 . S
C608 C612 1.385 . S
C609 H584 0.951 1_554 S
C609 C607 1.388 . S
C609 C610 1.366 . S
C610 C609 1.366 . S
C610 C611 1.414 . S
C610 C613 1.499 . S
C611 H585 0.950 . S
C611 C610 1.414 . S
C611 C612 1.374 . S
C612 H586 0.950 . S
C612 C608 1.385 . S
C612 C611 1.374 . S
C613 C610 1.499 . S
C613 C614 1.373 . S
C613 C615 1.389 . S
C614 H587 0.950 . S
C614 C600 1.377 . S
C614 C613 1.373 . S
C615 C599 1.377 1_554 S
C615 C613 1.389 . S
C615 C616 1.524 . S
C616 C615 1.524 . S
C616 C617 1.396 . S
C616 C621 1.363 1_554 S
C617 H588 0.950 . S
C617 C616 1.396 . S
C617 C618 1.334 . S
C618 H589 0.950 . S
C618 C617 1.334 . S
C618 C619 1.287 . S
C619 C618 1.287 . S
C619 C620 1.524 1_554 S
C619 H622 0.999 . S
C620 H590 0.950 . S
C620 C619 1.524 1_556 S
C620 C621 1.415 . S
C621 H591 0.950 . S
C621 C616 1.363 1_556 S
C621 C620 1.415 . S
H622 C619 0.999 . S
H623 C604 0.913 . S
H624 C642 0.951 . S
H625 C644 0.951 . S
H626 C646 0.950 . S
H627 C647 0.950 . S
H628 C649 0.950 . S
H629 C652 0.950 . S
H630 C653 0.950 . S
H631 C655 0.950 . S
H632 C656 0.950 . S
H633 C657 0.951 . S
H634 C659 0.951 . S
H635 C661 0.950 . S
H636 C662 0.950 . S
H637 C664 0.950 . S
H638 C667 0.950 . S
H639 C668 0.950 1_455 S
H640 C670 0.950 . S
H641 C671 0.950 . S
C642 H624 0.951 . S
C642 C643 1.366 . S
C642 C644 1.388 . S
C643 C642 1.366 . S
C643 C647 1.385 . S
C644 H625 0.951 . S
C644 C642 1.388 . S
C644 C645 1.366 . S
C645 C644 1.366 . S
C645 C646 1.414 . S
C645 C648 1.499 . S
C646 H626 0.950 . S
C646 C645 1.414 . S
C646 C647 1.374 . S
C647 H627 0.950 . S
C647 C643 1.385 . S
C647 C646 1.374 . S
C648 C645 1.499 . S
C648 C649 1.373 . S
C648 C650 1.389 . S
C649 H628 0.950 . S
C649 C648 1.373 . S
C649 C665 1.377 . S
C650 C648 1.389 . S
C650 C651 1.524 . S
C650 C664 1.377 . S
C651 C650 1.524 . S
C651 C652 1.397 . S
C651 C656 1.363 . S
C652 H629 0.950 . S
C652 C651 1.397 . S
C652 C653 1.334 . S
C653 H630 0.950 . S
C653 C652 1.334 . S
C653 C654 1.287 . S
C654 C653 1.287 . S
C654 C655 1.524 . S
C654 H673 0.913 . S
C655 H631 0.950 . S
C655 C654 1.524 . S
C655 C656 1.415 . S
C656 H632 0.950 . S
C656 C651 1.363 . S
C656 C655 1.415 . S
C657 H633 0.951 . S
C657 C658 1.366 . S
C657 C659 1.388 . S
C658 C657 1.366 . S
C658 C662 1.385 . S
C659 H634 0.951 . S
C659 C657 1.388 . S
C659 C660 1.366 . S
C660 C659 1.366 . S
C660 C661 1.414 . S
C660 C663 1.499 . S
C661 H635 0.950 . S
C661 C660 1.414 . S
C661 C662 1.374 . S
C662 H636 0.950 . S
C662 C658 1.385 . S
C662 C661 1.374 . S
C663 C660 1.499 . S
C663 C664 1.373 . S
C663 C665 1.389 . S
C664 H637 0.950 . S
C664 C650 1.377 . S
C664 C663 1.373 . S
C665 C649 1.377 . S
C665 C663 1.389 . S
C665 C666 1.524 . S
C666 C665 1.524 . S
C666 C667 1.397 . S
C666 C671 1.363 . S
C667 H638 0.950 . S
C667 C666 1.397 . S
C667 C668 1.334 . S
C668 H639 0.950 1_655 S
C668 C667 1.334 . S
C668 C669 1.287 . S
C669 C668 1.287 . S
C669 C670 1.524 . S
C669 H672 0.999 1_655 S
C670 H640 0.950 . S
C670 C669 1.524 . S
C670 C671 1.415 . S
C671 H641 0.950 . S
C671 C666 1.363 . S
C671 C670 1.415 . S
H672 C669 0.999 1_455 S
H673 C654 0.913 . S
H674 C692 0.951 . S
H675 C694 0.951 . S
H676 C696 0.950 . S
H677 C697 0.950 . S
H678 C699 0.950 . S
H679 C702 0.950 . S
H680 C703 0.950 . S
H681 C705 0.950 . S
H682 C706 0.950 . S
H683 C707 0.951 . S
H684 C709 0.951 . S
H685 C711 0.950 . S
H686 C712 0.950 . S
H687 C714 0.950 . S
H688 C717 0.950 . S
H689 C718 0.950 . S
H690 C720 0.950 . S
H691 C721 0.950 . S
C692 H674 0.951 . S
C692 C693 1.366 . S
C692 C694 1.388 . S
C693 C692 1.366 . S
C693 C697 1.385 . S
C694 H675 0.951 . S
C694 C692 1.388 . S
C694 C695 1.366 . S
C695 C694 1.366 . S
C695 C696 1.414 . S
C695 C698 1.499 . S
C696 H676 0.950 . S
C696 C695 1.414 . S
C696 C697 1.374 . S
C697 H677 0.950 . S
C697 C693 1.385 . S
C697 C696 1.374 . S
C698 C695 1.499 . S
C698 C699 1.373 1_554 S
C698 C700 1.389 . S
C699 H678 0.950 . S
C699 C698 1.373 1_556 S
C699 C715 1.377 . S
C700 C698 1.389 . S
C700 C701 1.524 . S
C700 C714 1.377 . S
C701 C700 1.524 . S
C701 C702 1.397 . S
C701 C706 1.363 . S
C702 H679 0.950 . S
C702 C701 1.397 . S
C702 C703 1.334 . S
C703 H680 0.950 . S
C703 C702 1.334 . S
C703 C704 1.287 . S
C704 C703 1.287 . S
C704 C705 1.524 . S
C704 H723 0.913 . S
C705 H681 0.950 . S
C705 C704 1.524 . S
C705 C706 1.415 . S
C706 H682 0.950 . S
C706 C701 1.363 . S
C706 C705 1.415 . S
C707 H683 0.951 . S
C707 C708 1.366 . S
C707 C709 1.388 . S
C708 C707 1.366 . S
C708 C712 1.385 . S
C709 H684 0.951 . S
C709 C707 1.388 . S
C709 C710 1.366 . S
C710 C709 1.366 . S
C710 C711 1.414 . S
C710 C713 1.499 . S
C711 H685 0.950 . S
C711 C710 1.414 . S
C711 C712 1.374 . S
C712 H686 0.950 . S
C712 C708 1.385 . S
C712 C711 1.374 . S
C713 C710 1.499 . S
C713 C714 1.373 1_556 S
C713 C715 1.389 . S
C714 H687 0.950 . S
C714 C700 1.377 . S
C714 C713 1.373 1_554 S
C715 C699 1.377 . S
C715 C713 1.389 . S
C715 C716 1.524 . S
C716 C715 1.524 . S
C716 C717 1.397 . S
C716 C721 1.363 . S
C717 H688 0.950 . S
C717 C716 1.397 . S
C717 C718 1.334 . S
C718 H689 0.950 . S
C718 C717 1.334 . S
C718 C719 1.287 . S
C719 C718 1.287 . S
C719 C720 1.524 . S
C719 H722 0.999 . S
C720 H690 0.950 . S
C720 C719 1.524 . S
C720 C721 1.415 . S
C721 H691 0.950 . S
C721 C716 1.363 . S
C721 C720 1.415 . S
H722 C719 0.999 . S
H723 C704 0.913 . S
H724 C742 0.951 . S
H725 C744 0.951 1_556 S
H726 C746 0.950 1_455 S
H727 C747 0.950 1_455 S
H728 C749 0.950 . S
H729 C752 0.950 . S
H730 C753 0.950 . S
H731 C755 0.950 . S
H732 C756 0.941 1_565 S
H733 C757 0.951 . S
H734 C759 0.951 . S
H735 C761 0.956 . S
H736 C762 0.950 1_655 S
H737 C764 0.950 . S
H738 C767 0.950 . S
H739 C768 0.950 . S
H740 C770 0.950 1_554 S
H741 C771 0.950 . S
C742 H724 0.951 . S
C742 C743 1.366 . S
C742 C744 1.388 . S
C743 C742 1.366 . S
C743 C747 1.385 . S
C744 H725 0.951 1_554 S
C744 C742 1.388 . S
C744 C745 1.366 . S
C745 C744 1.366 . S
C745 C746 1.414 . S
C745 C748 1.499 . S
C746 H726 0.950 1_655 S
C746 C745 1.414 . S
C746 C747 1.374 . S
C747 H727 0.950 1_655 S
C747 C743 1.385 . S
C747 C746 1.374 . S
C748 C745 1.499 . S
C748 C749 1.373 1_655 S
C748 C750 1.432 . S
C749 H728 0.950 . S
C749 C748 1.373 1_455 S
C749 C765 1.377 1_544 S
C750 C748 1.432 . S
C750 C751 1.535 . S
C750 C764 1.321 1_544 S
C751 C750 1.535 . S
C751 C752 1.397 . S
C751 C756 1.363 1_554 S
C752 H729 0.950 . S
C752 C751 1.397 . S
C752 C753 1.334 . S
C753 H730 0.950 . S
C753 C752 1.334 . S
C753 C754 1.287 . S
C754 C753 1.287 . S
C754 C755 1.524 1_554 S
C754 H773 0.913 . S
C755 H731 0.950 . S
C755 C754 1.524 1_556 S
C755 C756 1.415 . S
C756 H732 0.941 1_545 S
C756 C751 1.363 1_556 S
C756 C755 1.415 . S
C757 H733 0.951 . S
C757 C758 1.366 . S
C757 C759 1.388 . S
C758 C757 1.366 . S
C758 C762 1.385 . S
C759 H734 0.951 . S
C759 C757 1.388 . S
C759 C760 1.366 . S
C760 C759 1.366 . S
C760 C761 1.410 1_455 S
C760 C763 1.499 . S
C761 H735 0.956 . S
C761 C760 1.410 1_655 S
C761 C762 1.372 1_655 S
C762 H736 0.950 1_455 S
C762 C758 1.385 . S
C762 C761 1.372 1_455 S
C763 C760 1.499 . S
C763 C764 1.373 1_455 S
C763 C765 1.389 . S
C764 H737 0.950 . S
C764 C750 1.321 1_566 S
C764 C763 1.373 1_655 S
C765 C749 1.377 1_566 S
C765 C763 1.389 . S
C765 C766 1.524 . S
C766 C765 1.524 . S
C766 C767 1.397 . S
C766 C771 1.363 1_556 S
C767 H738 0.950 . S
C767 C766 1.397 . S
C767 C768 1.334 . S
C768 H739 0.950 . S
C768 C767 1.334 . S
C768 C769 1.287 . S
C769 C768 1.287 . S
C769 C770 1.524 . S
C769 H772 0.999 . S
C770 H740 0.950 1_556 S
C770 C769 1.524 . S
C770 C771 1.415 1_556 S
C771 H741 0.950 . S
C771 C766 1.363 1_554 S
C771 C770 1.415 1_554 S
H772 C769 0.999 . S
H773 C754 0.913 . S
H774 C792 0.951 . S
H775 C794 0.951 1_655 S
H776 C796 0.950 . S
H777 C797 0.950 . S
H778 C799 0.950 . S
H779 C802 0.950 . S
H780 C803 0.950 . S
H781 C805 0.950 . S
H782 C806 0.950 . S
H783 C807 0.951 . S
H784 C809 0.951 1_455 S
H785 C811 0.950 . S
H786 C812 0.950 . S
H787 C814 0.950 . S
H788 C817 0.950 . S
H789 C818 0.950 . S
H790 C820 0.950 . S
H791 C821 0.955 1_545 S
C792 H774 0.951 . S
C792 C793 1.366 . S
C792 C794 1.388 . S
C793 C792 1.366 . S
C793 C797 1.385 . S
C794 H775 0.951 1_455 S
C794 C792 1.388 . S
C794 C795 1.366 . S
C795 C794 1.366 . S
C795 C796 1.414 . S
C795 C798 1.499 . S
C796 H776 0.950 . S
C796 C795 1.414 . S
C796 C797 1.374 . S
C797 H777 0.950 . S
C797 C793 1.385 . S
C797 C796 1.374 . S
C798 C795 1.499 . S
C798 C799 1.373 . S
C798 C800 1.389 1_455 S
C799 H778 0.950 . S
C799 C798 1.373 . S
C799 C815 1.377 1_545 S
C800 C798 1.389 1_655 S
C800 C801 1.524 . S
C800 C814 1.377 1_545 S
C801 C800 1.524 . S
C801 C802 1.397 . S
C801 C806 1.363 . S
C802 H779 0.950 . S
C802 C801 1.397 . S
C802 C803 1.334 . S
C803 H780 0.950 . S
C803 C802 1.334 . S
C803 C804 1.287 . S
C804 C803 1.287 . S
C804 C805 1.524 . S
C804 H823 0.913 . S
C805 H781 0.950 . S
C805 C804 1.524 . S
C805 C806 1.415 . S
C806 H782 0.950 . S
C806 C801 1.363 . S
C806 C805 1.415 . S
C807 H783 0.951 . S
C807 C808 1.366 . S
C807 C809 1.388 . S
C808 C807 1.366 . S
C808 C812 1.385 . S
C809 H784 0.951 1_655 S
C809 C807 1.388 . S
C809 C810 1.366 . S
C810 C809 1.366 . S
C810 C811 1.414 . S
C810 C813 1.499 . S
C811 H785 0.950 . S
C811 C810 1.414 . S
C811 C812 1.374 . S
C812 H786 0.950 . S
C812 C808 1.385 . S
C812 C811 1.374 . S
C813 C810 1.499 . S
C813 C814 1.373 . S
C813 C815 1.389 1_655 S
C814 H787 0.950 . S
C814 C800 1.377 1_565 S
C814 C813 1.373 . S
C815 C799 1.377 1_565 S
C815 C813 1.389 1_455 S
C815 C816 1.524 . S
C816 C815 1.524 . S
C816 C817 1.397 . S
C816 C821 1.363 . S
C817 H788 0.950 . S
C817 C816 1.397 . S
C817 C818 1.334 . S
C818 H789 0.950 . S
C818 C817 1.334 . S
C818 C819 1.287 . S
C819 C818 1.287 . S
C819 C820 1.524 . S
C819 H822 0.999 . S
C820 H790 0.950 . S
C820 C819 1.524 . S
C820 C821 1.415 . S
C821 H791 0.955 1_565 S
C821 C816 1.363 . S
C821 C820 1.415 . S
H822 C819 0.999 . S
H823 C804 0.913 . S
H824 C842 0.951 . S
H825 C844 0.951 1_556 S
H826 C846 0.950 . S
H827 C847 0.950 . S
H828 C849 0.950 . S
H829 C852 0.950 . S
H830 C853 0.950 . S
H831 C855 0.950 . S
H832 C856 0.950 . S
H833 C857 0.951 . S
H834 C859 0.950 . S
H835 C861 0.950 . S
H836 C862 0.950 . S
H837 C864 0.950 . S
H838 C867 0.950 . S
H839 C868 0.950 . S
H840 C870 0.950 . S
H841 C871 0.950 . S
C842 H824 0.951 . S
C842 C843 1.366 . S
C842 C844 1.388 . S
C843 C842 1.366 . S
C843 C847 1.385 . S
C844 H825 0.951 1_554 S
C844 C842 1.388 . S
C844 C845 1.366 . S
C845 C844 1.366 . S
C845 C846 1.414 . S
C845 C848 1.499 . S
C846 H826 0.950 . S
C846 C845 1.414 . S
C846 C847 1.374 . S
C847 H827 0.950 . S
C847 C843 1.385 . S
C847 C846 1.374 . S
C848 C845 1.499 . S
C848 C849 1.373 . S
C848 C850 1.389 1_554 S
C849 H828 0.950 . S
C849 C848 1.373 . S
C849 C865 1.377 . S
C850 C848 1.389 1_556 S
C850 C851 1.524 . S
C850 C864 1.377 . S
C851 C850 1.524 . S
C851 C852 1.397 . S
C851 C856 1.363 . S
C852 H829 0.950 . S
C852 C851 1.397 . S
C852 C853 1.334 . S
C853 H830 0.950 . S
C853 C852 1.334 . S
C853 C854 1.287 . S
C854 C853 1.287 . S
C854 C855 1.524 . S
C854 H873 0.913 . S
C855 H831 0.950 . S
C855 C854 1.524 . S
C855 C856 1.415 . S
C856 H832 0.950 . S
C856 C851 1.363 . S
C856 C855 1.415 . S
C857 H833 0.951 . S
C857 C858 1.366 . S
C857 C859 1.388 . S
C858 C857 1.366 . S
C858 C862 1.385 . S
C859 H834 0.950 . S
C859 C857 1.388 . S
C859 C860 1.366 . S
C860 C859 1.366 . S
C860 C861 1.414 . S
C860 C863 1.499 . S
C861 H835 0.950 . S
C861 C860 1.414 . S
C861 C862 1.374 . S
C862 H836 0.950 . S
C862 C858 1.385 . S
C862 C861 1.374 . S
C863 C860 1.499 . S
C863 C864 1.373 . S
C863 C865 1.389 1_556 S
C864 H837 0.950 . S
C864 C850 1.377 . S
C864 C863 1.373 . S
C865 C849 1.377 . S
C865 C863 1.389 1_554 S
C865 C866 1.524 . S
C866 C865 1.524 . S
C866 C867 1.397 . S
C866 C871 1.363 . S
C867 H838 0.950 . S
C867 C866 1.397 . S
C867 C868 1.334 . S
C868 H839 0.950 . S
C868 C867 1.334 . S
C868 C869 1.287 . S
C869 C868 1.287 . S
C869 C870 1.524 . S
C869 H872 0.999 . S
C870 H840 0.950 . S
C870 C869 1.524 . S
C870 C871 1.415 . S
C871 H841 0.950 . S
C871 C866 1.363 . S
C871 C870 1.415 . S
H872 C869 0.999 . S
H873 C854 0.913 . S
H874 C892 0.951 . S
H875 C894 0.951 . S
H876 C896 0.950 . S
H877 C897 0.950 . S
H878 C899 0.950 . S
H879 C902 0.950 . S
H880 C903 0.950 . S
H881 C905 0.950 . S
H882 C906 0.950 . S
H883 C907 0.951 . S
H884 C909 0.951 . S
H885 C911 0.950 . S
H886 C912 0.950 . S
H887 C914 0.950 . S
H888 C917 0.950 . S
H889 C918 0.950 . S
H890 C920 0.950 . S
H891 C921 0.950 . S
C892 H874 0.951 . S
C892 C893 1.366 . S
C892 C894 1.388 . S
C893 C892 1.366 . S
C893 C897 1.385 . S
C894 H875 0.951 . S
C894 C892 1.388 . S
C894 C895 1.366 . S
C895 C894 1.366 . S
C895 C896 1.414 . S
C895 C898 1.499 . S
C896 H876 0.950 . S
C896 C895 1.414 . S
C896 C897 1.374 . S
C897 H877 0.950 . S
C897 C893 1.385 . S
C897 C896 1.374 . S
C898 C895 1.499 . S
C898 C899 1.373 . S
C898 C900 1.389 . S
C899 H878 0.950 . S
C899 C898 1.373 . S
C899 C915 1.377 . S
C900 C898 1.389 . S
C900 C901 1.524 . S
C900 C914 1.377 . S
C901 C900 1.524 . S
C901 C902 1.397 . S
C901 C906 1.363 . S
C902 H879 0.950 . S
C902 C901 1.397 . S
C902 C903 1.334 . S
C903 H880 0.950 . S
C903 C902 1.334 . S
C903 C904 1.287 . S
C904 C903 1.287 . S
C904 C905 1.524 . S
C904 H923 0.913 . S
C905 H881 0.950 . S
C905 C904 1.524 . S
C905 C906 1.415 . S
C906 H882 0.950 . S
C906 C901 1.363 . S
C906 C905 1.415 . S
C907 H883 0.951 . S
C907 C908 1.366 . S
C907 C909 1.388 . S
C908 C907 1.366 . S
C908 C912 1.385 . S
C909 H884 0.951 . S
C909 C907 1.388 . S
C909 C910 1.366 . S
C910 C909 1.366 . S
C910 C911 1.414 . S
C910 C913 1.499 . S
C911 H885 0.950 . S
C911 C910 1.414 . S
C911 C912 1.374 . S
C912 H886 0.950 . S
C912 C908 1.385 . S
C912 C911 1.374 . S
C913 C910 1.499 . S
C913 C914 1.373 . S
C913 C915 1.389 . S
C914 H887 0.950 . S
C914 C900 1.377 . S
C914 C913 1.373 . S
C915 C899 1.377 . S
C915 C913 1.389 . S
C915 C916 1.524 . S
C916 C915 1.524 . S
C916 C917 1.397 . S
C916 C921 1.363 . S
C917 H888 0.950 . S
C917 C916 1.397 . S
C917 C918 1.334 . S
C918 H889 0.950 . S
C918 C917 1.334 . S
C918 C919 1.287 . S
C919 C918 1.287 . S
C919 C920 1.524 . S
C919 H922 0.999 . S
C920 H890 0.950 . S
C920 C919 1.524 . S
C920 C921 1.415 . S
C921 H891 0.950 . S
C921 C916 1.363 . S
C921 C920 1.415 . S
H922 C919 0.999 . S
H923 C904 0.913 . S
C143 C19 1.140 . S
C158 C30 1.147 . S
C193 C31 1.141 . S
C208 C41 1.148 . S
C243 C62 1.141 . S
C258 C72 1.148 . S
C293 C103 1.147 . S
C308 C93 1.140 . S
C343 C10 1.174 . S
C358 C0 1.159 . S
C393 C61 1.175 . S
C408 C50 1.160 . S
C443 C81 1.159 . S
C458 C92 1.175 . S
C493 C112 1.160 . S
C508 C123 1.176 . S
C543 C122 1.961 . S
C558 C1 1.960 . S
C593 C113 1.961 . S
C608 C2 1.962 . S
C643 C82 1.961 . S
C658 C60 1.962 . S
C693 C91 1.961 . S
C708 C51 1.960 . S
C743 C20 1.416 . S
C758 C33 1.399 . S
C793 C29 1.400 . S
C808 C32 1.417 . S
C843 C63 1.416 . S
C858 C95 1.399 . S
C893 C94 1.416 . S
C908 C64 1.399 . S
