# Generated by pormake.
# Topology vbm, (6)-cn, num edge types: 1
# Building blocks:
#     Node 0, Type 0, BuildingBlock: KUMBUR_clean_sbu_0, # of connection points: 6
#     Node 1, Type 0, BuildingBlock: KUMBUR_clean_sbu_0, # of connection points: 6
#     Node 2, Type 0, BuildingBlock: KUMBUR_clean_sbu_0, # of connection points: 6
#     Node 3, Type 0, BuildingBlock: KUMBUR_clean_sbu_0, # of connection points: 6
#     Node 4, Type 0, BuildingBlock: KUMBUR_clean_sbu_0, # of connection points: 6
#     Node 5, Type 0, BuildingBlock: KUMBUR_clean_sbu_0, # of connection points: 6
#     Node 6, Type 0, BuildingBlock: KUMBUR_clean_sbu_0, # of connection points: 6
#     Node 7, Type 0, BuildingBlock: KUMBUR_clean_sbu_0, # of connection points: 6
#     Node 8, Type 0, BuildingBlock: KUMBUR_clean_sbu_0, # of connection points: 6
#     Node 9, Type 0, BuildingBlock: KUMBUR_clean_sbu_0, # of connection points: 6
#     Node 10, Type 0, BuildingBlock: KUMBUR_clean_sbu_0, # of connection points: 6
#     Node 11, Type 0, BuildingBlock: KUMBUR_clean_sbu_0, # of connection points: 6
#     Node 12, Type 0, BuildingBlock: KUMBUR_clean_sbu_0, # of connection points: 6
#     Node 13, Type 0, BuildingBlock: KUMBUR_clean_sbu_0, # of connection points: 6
#     Node 14, Type 0, BuildingBlock: KUMBUR_clean_sbu_0, # of connection points: 6
#     Node 15, Type 0, BuildingBlock: KUMBUR_clean_sbu_0, # of connection points: 6
#     Edge 16, Type (0, 0), BuildingBlock: CIFDUS_clean_linker_0, # of connection points: 2
#     Edge 17, Type (0, 0), BuildingBlock: CIFDUS_clean_linker_0, # of connection points: 2
#     Edge 18, Type (0, 0), BuildingBlock: CIFDUS_clean_linker_0, # of connection points: 2
#     Edge 19, Type (0, 0), BuildingBlock: CIFDUS_clean_linker_0, # of connection points: 2
#     Edge 20, Type (0, 0), BuildingBlock: CIFDUS_clean_linker_0, # of connection points: 2
#     Edge 21, Type (0, 0), BuildingBlock: CIFDUS_clean_linker_0, # of connection points: 2
#     Edge 22, Type (0, 0), BuildingBlock: CIFDUS_clean_linker_0, # of connection points: 2
#     Edge 23, Type (0, 0), BuildingBlock: CIFDUS_clean_linker_0, # of connection points: 2
#     Edge 24, Type (0, 0), BuildingBlock: CIFDUS_clean_linker_0, # of connection points: 2
#     Edge 25, Type (0, 0), BuildingBlock: CIFDUS_clean_linker_0, # of connection points: 2
#     Edge 26, Type (0, 0), BuildingBlock: CIFDUS_clean_linker_0, # of connection points: 2
#     Edge 27, Type (0, 0), BuildingBlock: CIFDUS_clean_linker_0, # of connection points: 2
#     Edge 28, Type (0, 0), BuildingBlock: CIFDUS_clean_linker_0, # of connection points: 2
#     Edge 29, Type (0, 0), BuildingBlock: CIFDUS_clean_linker_0, # of connection points: 2
#     Edge 30, Type (0, 0), BuildingBlock: CIFDUS_clean_linker_0, # of connection points: 2
#     Edge 31, Type (0, 0), BuildingBlock: CIFDUS_clean_linker_0, # of connection points: 2
#     Edge 32, Type (0, 0), BuildingBlock: CIFDUS_clean_linker_0, # of connection points: 2
#     Edge 33, Type (0, 0), BuildingBlock: CIFDUS_clean_linker_0, # of connection points: 2
#     Edge 34, Type (0, 0), BuildingBlock: CIFDUS_clean_linker_0, # of connection points: 2
#     Edge 35, Type (0, 0), BuildingBlock: CIFDUS_clean_linker_0, # of connection points: 2
#     Edge 36, Type (0, 0), BuildingBlock: CIFDUS_clean_linker_0, # of connection points: 2
#     Edge 37, Type (0, 0), BuildingBlock: CIFDUS_clean_linker_0, # of connection points: 2
#     Edge 38, Type (0, 0), BuildingBlock: CIFDUS_clean_linker_0, # of connection points: 2
#     Edge 39, Type (0, 0), BuildingBlock: CIFDUS_clean_linker_0, # of connection points: 2
#     Edge 40, Type (0, 0), BuildingBlock: CIFDUS_clean_linker_0, # of connection points: 2
#     Edge 41, Type (0, 0), BuildingBlock: CIFDUS_clean_linker_0, # of connection points: 2
#     Edge 42, Type (0, 0), BuildingBlock: CIFDUS_clean_linker_0, # of connection points: 2
#     Edge 43, Type (0, 0), BuildingBlock: CIFDUS_clean_linker_0, # of connection points: 2
#     Edge 44, Type (0, 0), BuildingBlock: CIFDUS_clean_linker_0, # of connection points: 2
#     Edge 45, Type (0, 0), BuildingBlock: CIFDUS_clean_linker_0, # of connection points: 2
#     Edge 46, Type (0, 0), BuildingBlock: CIFDUS_clean_linker_0, # of connection points: 2
#     Edge 47, Type (0, 0), BuildingBlock: CIFDUS_clean_linker_0, # of connection points: 2
#     Edge 48, Type (0, 0), BuildingBlock: CIFDUS_clean_linker_0, # of connection points: 2
#     Edge 49, Type (0, 0), BuildingBlock: CIFDUS_clean_linker_0, # of connection points: 2
#     Edge 50, Type (0, 0), BuildingBlock: CIFDUS_clean_linker_0, # of connection points: 2
#     Edge 51, Type (0, 0), BuildingBlock: CIFDUS_clean_linker_0, # of connection points: 2
#     Edge 52, Type (0, 0), BuildingBlock: CIFDUS_clean_linker_0, # of connection points: 2
#     Edge 53, Type (0, 0), BuildingBlock: CIFDUS_clean_linker_0, # of connection points: 2
#     Edge 54, Type (0, 0), BuildingBlock: CIFDUS_clean_linker_0, # of connection points: 2
#     Edge 55, Type (0, 0), BuildingBlock: CIFDUS_clean_linker_0, # of connection points: 2
#     Edge 56, Type (0, 0), BuildingBlock: CIFDUS_clean_linker_0, # of connection points: 2
#     Edge 57, Type (0, 0), BuildingBlock: CIFDUS_clean_linker_0, # of connection points: 2
#     Edge 58, Type (0, 0), BuildingBlock: CIFDUS_clean_linker_0, # of connection points: 2
#     Edge 59, Type (0, 0), BuildingBlock: CIFDUS_clean_linker_0, # of connection points: 2
#     Edge 60, Type (0, 0), BuildingBlock: CIFDUS_clean_linker_0, # of connection points: 2
#     Edge 61, Type (0, 0), BuildingBlock: CIFDUS_clean_linker_0, # of connection points: 2
#     Edge 62, Type (0, 0), BuildingBlock: CIFDUS_clean_linker_0, # of connection points: 2
#     Edge 63, Type (0, 0), BuildingBlock: CIFDUS_clean_linker_0, # of connection points: 2
# Relax obj value: 0.078
# Max RMSD: 0.145
# Mean RMSD: 0.145
data_MOF--net-vbm--node1-KUMBUR_clean_sbu_0--edge1-CIFDUS_clean_linker_0
_symmetry_space_group_name_H-M    P1
_symmetry_Int_Tables_number       1
_symmetry_cell_setting            triclinic
loop_
_symmetry_equiv_pos_as_xyz
'x, y, z'
_cell_length_a     44.098965
_cell_length_b     22.535287
_cell_length_c     50.840339
_cell_angle_alpha  90.153989
_cell_angle_beta   90.09374
_cell_angle_gamma 90.045795
loop_
_atom_site_label
_atom_site_type_symbol
_atom_site_fract_x
_atom_site_fract_y
_atom_site_fract_z
_atom_type_partial_charge
Tb0 Tb 0.16372 0.07088 0.12633 0.0
C1 C 0.06789 0.22251 0.17658 0.0
C2 C 0.02581 0.2038 0.14718 0.0
C3 C 1.01631 0.22688 0.19316 0.0
C4 C 0.05725 0.20759 0.15197 0.0
C5 C 0.04759 0.23428 0.1973 0.0
C6 C 1.00543 0.21163 0.1681 0.0
C7 C 0.09026 0.26731 0.22339 0.0
N8 N 0.09812 0.23031 0.17955 0.0
C9 C 0.10938 0.25567 0.20208 0.0
C10 C 0.05925 0.25558 0.22115 0.0
Tb11 Tb 0.12783 0.20614 0.14422 0.0
N12 N 0.0777 0.20093 0.13231 0.0
C13 C 0.06794 0.19571 0.10683 0.0
C14 C 1.01583 0.19443 0.12138 0.0
C15 C 0.03699 0.19164 0.10105 0.0
H16 H 0.13339 0.2644 0.204 0.0
H17 H 0.02952 0.18585 0.08092 0.0
H18 H 0.9812 0.20803 0.16491 0.0
H19 H 0.09943 0.28535 0.24148 0.0
H20 H 0.08373 0.19316 0.09081 0.0
H21 H 0.24636 0.0372 0.2045 0.0
H22 H 0.99187 0.19108 0.11686 0.0
H23 H 0.17915 0.06199 0.06061 0.0
H24 H 0.19698 0.02822 0.18372 0.0
H25 H 0.22046 0.09093 0.03147 0.0
H26 H 1.00032 0.23491 0.20892 0.0
H27 H 0.28993 0.0771 0.1797 0.0
H28 H 0.31079 0.11407 0.13694 0.0
H29 H 0.04442 0.26509 0.2376 0.0
H30 H 0.30332 0.13144 0.08965 0.0
N31 N 0.21025 0.06959 0.14747 0.0
C32 C 0.21477 0.04895 0.17256 0.0
C33 C 0.26784 0.07455 0.17041 0.0
C34 C 0.26384 0.09068 0.14413 0.0
C35 C 0.24329 0.05236 0.18449 0.0
C36 C 0.23455 0.08652 0.13297 0.0
H37 H 0.26976 0.12245 0.05 0.0
N38 N 0.20249 0.0859 0.09624 0.0
C39 C 0.22343 0.09419 0.05257 0.0
C40 C 0.23036 0.09639 0.10652 0.0
C41 C 0.19967 0.07922 0.06943 0.0
C42 C 0.25119 0.1118 0.06309 0.0
C43 C 0.25534 0.11057 0.09034 0.0
O44 O 0.1707 0.99304 0.10451 0.0
O45 O 0.12134 0.11212 0.13746 0.0
O46 O 0.12614 0.15391 0.18052 0.0
O47 O 0.15323 0.06899 0.16864 0.0
O48 O 0.1194 0.048 0.10922 0.0
O49 O 0.15762 0.98893 0.14527 0.0
O50 O 0.14616 0.28907 0.15489 0.0
O51 O 0.1712 0.16554 0.13344 0.0
O52 O 0.1471 0.10833 0.08998 0.0
O53 O 0.13706 0.20605 0.10158 0.0
O54 O 0.16877 0.21672 0.16719 0.0
O55 O 0.11758 0.27968 0.12068 0.0
C56 C 0.10285 0.08267 0.12331 0.0
C57 C 0.18613 0.90934 0.12861 0.0
C58 C 0.19234 0.80439 0.13796 0.0
C59 C 0.17371 0.85426 0.13506 0.0
C60 C 0.22379 0.81024 0.13433 0.0
C61 C 0.21757 0.91517 0.12537 0.0
C62 C 0.23631 0.86558 0.12825 0.0
C63 C 0.13917 0.10261 0.18621 0.0
C64 C 0.16533 0.95886 0.1245 0.0
C65 C 0.28402 0.11949 0.10169 0.0
C66 C 0.28829 0.10937 0.12858 0.0
C67 C 0.18697 0.18813 0.15207 0.0
C68 C 0.11775 0.37213 0.14227 0.0
C69 C 0.13466 0.42442 0.14038 0.0
C70 C 0.12103 0.47981 0.14485 0.0
C71 C 0.09017 0.48161 0.152 0.0
C72 C 0.08713 0.37452 0.14952 0.0
C73 C 0.07349 0.4292 0.15452 0.0
C74 C 0.14116 0.16367 0.08397 0.0
C75 C 0.13261 0.31619 0.1357 0.0
H76 H 0.14931 0.84995 0.1372 0.0
H77 H 0.23861 0.77226 0.13644 0.0
H78 H 0.22752 0.95757 0.12034 0.0
H79 H 0.26056 0.86995 0.12561 0.0
H80 H 0.1585 0.42166 0.1353 0.0
H81 H 0.07867 0.52345 0.15512 0.0
H82 H 0.07374 0.33446 0.15096 0.0
H83 H 0.04978 0.43107 0.15994 0.0
Tb84 Tb 0.86792 0.98739 0.12419 0.0
C85 C 0.96373 0.83694 0.17616 0.0
C86 C 1.00976 0.85324 0.15145 0.0
C87 C 1.01252 0.83166 0.19824 0.0
C88 C 0.97788 0.85078 0.15281 0.0
C89 C 0.98081 0.82614 0.19908 0.0
C90 C 0.02698 0.84517 0.17444 0.0
C91 C 0.93411 0.80105 0.22126 0.0
N92 N 0.9331 0.832 0.17609 0.0
C93 C 0.91818 0.81199 0.19796 0.0
C94 C 0.96553 0.80886 0.22193 0.0
Tb95 Tb 0.9091 0.85475 0.1374 0.0
N96 N 0.96044 0.8576 0.13105 0.0
C97 C 0.97368 0.86156 0.10681 0.0
C98 C 0.02336 0.86142 0.12689 0.0
C99 C 1.00523 0.8643 0.10441 0.0
H100 H 0.89388 0.80636 0.19779 0.0
H101 H 1.01552 0.8691 0.08522 0.0
H102 H 0.05151 0.84759 0.17387 0.0
H103 H 0.92213 0.78672 0.2387 0.0
H104 H 0.9601 0.86429 0.08921 0.0
H105 H 0.76402 0.94501 0.17767 0.0
H106 H 0.0478 0.86366 0.12498 0.0
H107 H 0.87959 0.0507 0.06645 0.0
H108 H 0.81885 0.95639 0.17268 0.0
H109 H 0.84902 0.08417 0.02877 0.0
H110 H 0.02609 0.8241 0.2157 0.0
H111 H 0.72992 0.96185 0.13978 0.0
H112 H 0.72374 0.99423 0.09281 0.0
H113 H 0.97782 0.80024 0.23999 0.0
H114 H 0.74685 0.0332 0.0523 0.0
N115 N 0.81685 0.97699 0.13167 0.0
C116 C 0.80467 0.96368 0.15572 0.0
C117 C 0.75421 0.96637 0.13731 0.0
C118 C 0.76658 0.98362 0.1132 0.0
C119 C 0.77336 0.95709 0.15875 0.0
C120 C 0.79835 0.98862 0.11102 0.0
H121 H 0.79334 0.06962 0.02884 0.0
N122 N 0.84178 1.01625 0.08757 0.0
C123 C 0.83814 0.06264 0.04524 0.0
C124 C 0.81126 1.00968 0.08824 0.0
C125 C 0.85539 0.04372 0.06671 0.0
C126 C 0.80676 0.05414 0.04531 0.0
C127 C 0.79292 0.0275 0.06699 0.0
O128 O 0.88504 0.07407 0.12058 0.0
O129 O 0.91218 0.94878 0.13111 0.0
O130 O 0.91556 0.91534 0.17097 0.0
O131 O 0.87126 0.96887 0.16647 0.0
O132 O 0.90954 1.01366 0.1035 0.0
O133 O 0.85346 0.05195 0.15134 0.0
O134 O 0.89234 0.76895 0.14421 0.0
O135 O 0.86521 0.89235 0.1286 0.0
O136 O 0.86442 0.93418 0.0887 0.0
O137 O 0.90602 0.87105 0.09404 0.0
O138 O 0.86647 0.83096 0.15736 0.0
O139 O 0.92196 0.78655 0.11138 0.0
C140 C 0.92807 0.97874 0.11522 0.0
C141 C 0.85169 0.149 0.13373 0.0
C142 C 0.85284 0.25621 0.12734 0.0
C143 C 0.86746 0.20296 0.13415 0.0
C144 C 0.82197 0.25447 0.12027 0.0
C145 C 0.82091 0.14813 0.12673 0.0
C146 C 0.80616 0.20075 0.12007 0.0
C147 C 0.8949 0.95206 0.18053 0.0
C148 C 0.8683 0.09425 0.1396 0.0
C149 C 0.76134 1.02032 0.06854 0.0
C150 C 0.74819 0.99814 0.09159 0.0
C151 C 0.84817 0.86246 0.1436 0.0
C152 C 0.92366 0.69115 0.13076 0.0
C153 C 0.90757 0.63756 0.12984 0.0
C154 C 0.92166 0.58395 0.13684 0.0
C155 C 0.9523 0.5849 0.14464 0.0
C156 C 0.95417 0.69134 0.13855 0.0
C157 C 0.9684 0.6383 0.14541 0.0
C158 C 0.88466 0.89641 0.07924 0.0
C159 C 0.90749 0.74619 0.12474 0.0
H160 H 0.89116 0.20328 0.13989 0.0
H161 H 0.81011 0.29445 0.11451 0.0
H162 H 0.8083 0.10701 0.12636 0.0
H163 H 0.78245 0.19985 0.11454 0.0
H164 H 0.88404 0.63781 0.12359 0.0
H165 H 0.96373 0.54456 0.15056 0.0
H166 H 0.96692 0.73224 0.13944 0.0
H167 H 0.99191 0.63861 0.15155 0.0
Tb168 Tb 0.16785 0.96719 0.38232 0.0
C169 C 0.07463 0.80835 0.32738 0.0
C170 C 0.02787 0.83031 0.35009 0.0
C171 C 0.0265 0.79723 0.30456 0.0
C172 C 0.05979 0.82735 0.34964 0.0
C173 C 0.05822 0.79158 0.30475 0.0
C174 C 1.01133 0.81656 0.32723 0.0
C175 C 0.10532 0.75892 0.28541 0.0
N176 N 0.10518 0.80294 0.32853 0.0
C177 C 0.12053 0.7759 0.3084 0.0
C178 C 0.07407 0.76773 0.28338 0.0
Tb179 Tb 0.12835 0.83379 0.36656 0.0
N180 N 0.07663 0.83969 0.37131 0.0
C181 C 0.06254 0.85114 0.39478 0.0
C182 C 1.01352 0.84544 0.37368 0.0
C183 C 0.03095 0.85513 0.3962 0.0
H184 H 0.14469 0.76897 0.30962 0.0
H185 H 0.02009 0.86587 0.41468 0.0
H186 H 0.9868 0.8192 0.3271 0.0
H187 H 0.11773 0.73916 0.26926 0.0
H188 H 0.07535 0.85908 0.4125 0.0
H189 H 0.27258 0.93428 0.329 0.0
H190 H 0.98904 0.84845 0.37485 0.0
H191 H 0.15488 1.02144 0.44196 0.0
H192 H 0.21747 0.94571 0.33353 0.0
H193 H 0.18448 0.04225 0.48229 0.0
H194 H 1.01346 0.7852 0.28727 0.0
H195 H 0.30571 0.94213 0.36816 0.0
H196 H 0.311 0.96554 0.4163 0.0
H197 H 0.06232 0.75437 0.2656 0.0
H198 H 0.28707 0.99518 0.45809 0.0
N199 N 0.21888 0.95875 0.37513 0.0
C200 C 0.23146 0.94983 0.35084 0.0
C201 C 0.28146 0.94764 0.37025 0.0
C202 C 0.26864 0.96076 0.39473 0.0
C203 C 0.26283 0.9432 0.34813 0.0
C204 C 0.2369 0.96627 0.39651 0.0
H205 H 0.23989 0.02452 0.48284 0.0
N206 N 0.19304 0.99021 0.42034 0.0
C207 C 0.19573 0.02537 0.46491 0.0
C208 C 0.22352 0.98282 0.41994 0.0
C209 C 0.17907 1.01377 0.44204 0.0
C210 C 0.22698 1.0151 0.46517 0.0
C211 C 0.24135 0.99453 0.44236 0.0
O212 O 0.15285 0.054 0.39001 0.0
O213 O 0.12467 0.92855 0.37188 0.0
O214 O 0.12625 0.88657 0.33048 0.0
O215 O 0.16401 0.95699 0.33921 0.0
O216 O 0.12426 0.99153 0.40047 0.0
O217 O 0.18232 0.03506 0.35708 0.0
O218 O 0.14693 0.74817 0.36311 0.0
O219 O 0.17194 0.87243 0.37677 0.0
O220 O 0.17049 0.91094 0.41701 0.0
O221 O 0.12825 0.85158 0.40952 0.0
O222 O 0.17124 0.81246 0.34702 0.0
O223 O 0.1139 0.76809 0.39298 0.0
C224 C 0.10693 0.95845 0.38631 0.0
C225 C 0.18577 0.12997 0.37664 0.0
C226 C 0.18731 0.23793 0.37794 0.0
C227 C 0.17164 0.18483 0.37288 0.0
C228 C 0.21729 0.2352 0.38741 0.0
C229 C 0.2157 0.12787 0.38591 0.0
C230 C 0.23129 0.18038 0.39142 0.0
C231 C 0.14467 0.92997 0.32311 0.0
C232 C 0.16853 0.07604 0.37069 0.0
C233 C 0.27293 0.98686 0.44102 0.0
C234 C 0.28655 0.96995 0.41724 0.0
C235 C 0.18913 0.84427 0.36112 0.0
C236 C 0.1144 0.67115 0.37533 0.0
C237 C 0.13016 0.61778 0.37853 0.0
C238 C 0.11615 0.5633 0.37267 0.0
C239 C 0.08618 0.56327 0.36307 0.0
C240 C 0.08455 0.67036 0.36579 0.0
C241 C 0.0706 0.61657 0.35957 0.0
C242 C 0.14911 0.87472 0.42529 0.0
C243 C 0.12992 0.72688 0.38162 0.0
H244 H 0.14831 0.186 0.36609 0.0
H245 H 0.23009 0.27533 0.39127 0.0
H246 H 0.22706 0.08599 0.38873 0.0
H247 H 0.25439 0.17861 0.39861 0.0
H248 H 0.15344 0.61888 0.38543 0.0
H249 H 0.07456 0.52206 0.35869 0.0
H250 H 0.07198 0.71103 0.36329 0.0
H251 H 0.04753 0.61613 0.35227 0.0
Tb252 Tb 0.87291 0.06008 0.37739 0.0
C253 C 0.98416 0.20296 0.37428 0.0
C254 C 0.99386 0.2595 0.41385 0.0
C255 C 0.03598 0.21688 0.38953 0.0
C256 C 0.97357 0.23436 0.39552 0.0
C257 C 1.0156 0.19494 0.37061 0.0
C258 C 0.02512 0.24918 0.41115 0.0
C259 C 1.00448 0.14811 0.32905 0.0
N260 N 0.96366 0.1824 0.35661 0.0
C261 C 0.97355 0.15659 0.33371 0.0
C262 C 0.02561 0.1664 0.34779 0.0
Tb263 Tb 0.91325 0.19633 0.36679 0.0
N264 N 0.94331 0.24327 0.39732 0.0
C265 C 0.93208 0.2831 0.41527 0.0
C266 C 0.98219 0.29591 0.43374 0.0
C267 C 0.9512 0.30867 0.43414 0.0
H268 H 0.95815 0.14148 0.31874 0.0
H269 H 0.94203 0.3382 0.44894 0.0
H270 H 0.04111 0.26743 0.4252 0.0
H271 H 1.01195 0.12678 0.31109 0.0
H272 H 0.90811 0.29289 0.41576 0.0
H273 H 0.75824 0.10372 0.34582 0.0
H274 H 0.997 0.31599 0.44827 0.0
H275 H 0.89838 0.99272 0.43214 0.0
H276 H 0.81304 0.08884 0.34012 0.0
H277 H 0.87893 0.96769 0.47583 0.0
H278 H 0.06018 0.21048 0.38725 0.0
H279 H 0.73491 0.09112 0.38969 0.0
H280 H 0.74102 0.06147 0.43713 0.0
H281 H 0.04955 0.15929 0.34423 0.0
H282 H 0.77396 1.02397 0.4726 0.0
N283 N 0.82136 0.07076 0.3806 0.0
C284 C 0.80341 0.08381 0.35946 0.0
C285 C 0.7591 0.08488 0.38732 0.0
C286 C 0.77727 0.06756 0.40852 0.0
C287 C 0.77217 0.09195 0.36255 0.0
C288 C 0.80862 0.06021 0.40435 0.0
H289 H 0.82547 0.98844 0.48718 0.0
N290 N 0.85665 0.03007 0.41847 0.0
C291 C 0.86405 0.9879 0.46147 0.0
C292 C 0.82686 0.03843 0.424 0.0
C293 C 0.875 1.00229 0.43647 0.0
C294 C 0.83388 0.9997 0.46781 0.0
C295 C 0.8147 1.02427 0.44881 0.0
O296 O 0.89236 0.97508 0.37228 0.0
O297 O 0.91619 0.10151 0.36765 0.0
O298 O 0.90803 0.14785 0.32904 0.0
O299 O 0.8674 0.0848 0.33628 0.0
O300 O 0.91698 0.02987 0.39216 0.0
O301 O 0.84992 0.99617 0.35449 0.0
O302 O 0.92272 0.24464 0.33235 0.0
O303 O 0.86875 0.15316 0.36581 0.0
O304 O 0.87427 0.1109 0.41379 0.0
O305 O 0.91694 0.17122 0.40886 0.0
O306 O 0.87277 0.23116 0.38603 0.0
O307 O 0.8949 0.28238 0.36233 0.0
C308 C 0.93378 0.06837 0.38091 0.0
C309 C 0.85721 0.89706 0.36854 0.0
C310 C 0.86085 0.78854 0.37059 0.0
C311 C 0.87197 0.8438 0.36169 0.0
C312 C 0.83474 0.78782 0.38647 0.0
C313 C 0.83129 0.89492 0.38448 0.0
C314 C 0.82015 0.84059 0.39332 0.0
C315 C 0.88713 0.11019 0.32054 0.0
C316 C 0.86936 0.95442 0.35933 0.0
C317 C 0.78375 0.03409 0.4536 0.0
C318 C 0.76502 0.05558 0.43344 0.0
C319 C 0.85345 0.19232 0.37822 0.0
C320 C 0.92396 0.35005 0.33731 0.0
C321 C 0.90863 0.40304 0.34399 0.0
C322 C 0.92174 0.45924 0.33891 0.0
C323 C 0.9506 0.4608 0.32702 0.0
C324 C 0.953 0.35354 0.32617 0.0
C325 C 0.96613 0.40856 0.32109 0.0
C326 C 0.89559 0.14594 0.42346 0.0
C327 C 0.90857 0.29193 0.34027 0.0
H328 H 0.89194 0.84551 0.34931 0.0
H329 H 0.82585 0.7465 0.39409 0.0
H330 H 0.8196 0.93517 0.3901 0.0
H331 H 0.80018 0.83937 0.40566 0.0
H332 H 0.88645 0.4001 0.35302 0.0
H333 H 0.9612 0.50238 0.32172 0.0
H334 H 0.96541 0.31382 0.32087 0.0
H335 H 0.98829 0.41077 0.31203 0.0
Tb336 Tb 0.91207 0.84927 0.86209 0.0
C337 C 0.8246 0.98884 0.92935 0.0
C338 C 0.77584 0.97067 0.90901 0.0
C339 C 0.77907 0.98871 0.95611 0.0
C340 C 0.80761 0.97589 0.90728 0.0
C341 C 0.8106 0.99619 0.95396 0.0
C342 C 0.7617 0.97612 0.93364 0.0
C343 C 0.85964 1.02178 0.97207 0.0
N344 N 0.85495 0.9957 0.92648 0.0
C345 C 0.87245 1.01448 0.94715 0.0
C346 C 0.82866 1.01166 0.97553 0.0
Tb347 Tb 0.87393 0.97798 0.88545 0.0
N348 N 0.82216 0.97099 0.88392 0.0
C349 C 0.8059 0.96479 0.86112 0.0
C350 C 0.75923 0.96138 0.88589 0.0
C351 C 0.77433 0.95914 0.8618 0.0
H352 H 0.89649 1.02154 0.94472 0.0
H353 H 0.76169 0.9529 0.84374 0.0
H354 H 0.73733 0.97172 0.93544 0.0
H355 H 0.87372 0.03449 0.98861 0.0
H356 H 0.81706 0.96272 0.8423 0.0
H357 H 0.02433 0.8622 0.9049 0.0
H358 H 0.73477 0.95709 0.88635 0.0
H359 H 0.88972 0.80682 0.80229 0.0
H360 H 0.9689 0.85919 0.90562 0.0
H361 H 0.91291 0.78864 0.75911 0.0
H362 H 0.76787 0.99374 0.97494 0.0
H363 H 0.05184 0.85409 0.8627 0.0
H364 H 0.04976 0.83874 0.8137 0.0
H365 H 0.8188 1.01633 0.99481 0.0
H366 H 1.01941 0.81896 0.77392 0.0
N367 N 0.96408 0.85085 0.86396 0.0
C368 C 0.98016 0.85531 0.88694 0.0
C369 C 0.02728 0.85266 0.86284 0.0
C370 C 1.01084 0.84502 0.83954 0.0
C371 C 1.01185 0.85711 0.88669 0.0
C372 C 0.97891 0.84383 0.84083 0.0
H373 H 0.96834 0.7995 0.7534 0.0
N374 N 0.93148 0.82931 0.82117 0.0
C375 C 0.927 0.80127 0.77566 0.0
C376 C 0.96199 0.83276 0.8186 0.0
C377 C 0.91394 0.81158 0.8003 0.0
C378 C 0.95827 0.80758 0.7725 0.0
C379 C 0.97625 0.82257 0.79422 0.0
O380 O 0.8937 0.76468 0.85486 0.0
O381 O 0.86932 0.88443 0.87643 0.0
O382 O 0.87312 0.91405 0.9171 0.0
O383 O 0.91565 0.85924 0.90587 0.0
O384 O 0.86791 0.83198 0.84407 0.0
O385 O 0.92654 0.77834 0.88572 0.0
O386 O 0.89056 0.06396 0.89275 0.0
O387 O 0.91609 0.94161 0.87141 0.0
O388 O 0.91248 0.91399 0.82947 0.0
O389 O 0.87102 0.97034 0.84242 0.0
O390 O 0.9193 1.00016 0.90141 0.0
O391 O 0.85615 0.04818 0.86329 0.0
C392 C 0.85101 0.85922 0.86066 0.0
C393 C 0.92458 0.68399 0.86565 0.0
C394 C 0.92307 0.57597 0.86516 0.0
C395 C 0.90998 0.63072 0.87193 0.0
C396 C 0.95093 0.57556 0.85168 0.0
C397 C 0.95227 0.68291 0.85219 0.0
C398 C 0.96533 0.62877 0.8452 0.0
C399 C 0.89559 0.87841 0.92349 0.0
C400 C 0.91002 0.73983 0.87302 0.0
C401 C 1.00799 0.82614 0.79251 0.0
C402 C 0.02526 0.83735 0.81515 0.0
C403 C 0.93522 0.96841 0.88564 0.0
C404 C 0.85682 0.14197 0.88395 0.0
C405 C 0.86973 0.19672 0.87747 0.0
C406 C 0.85536 0.25005 0.88456 0.0
C407 C 0.828 0.24753 0.89875 0.0
C408 C 0.82957 0.14013 0.89806 0.0
C409 C 0.81532 0.19283 0.9055 0.0
C410 C 0.89147 0.95486 0.82466 0.0
C411 C 0.87239 0.08781 0.87559 0.0
H412 H 0.88824 0.6321 0.88187 0.0
H413 H 0.96187 0.53416 0.8465 0.0
H414 H 0.96378 0.72363 0.84718 0.0
H415 H 0.98677 0.62802 0.83487 0.0
H416 H 0.89112 0.19759 0.86698 0.0
H417 H 0.81612 0.28772 0.90423 0.0
H418 H 0.81925 0.09828 0.90315 0.0
H419 H 0.79421 0.1913 0.91631 0.0
Tb420 Tb 0.13413 0.19543 0.86921 0.0
C421 C 0.21039 0.04074 0.93523 0.0
C422 C 0.26182 0.07023 0.92541 0.0
C423 C 0.24898 0.03479 0.96918 0.0
C424 C 0.23128 0.06342 0.91786 0.0
C425 C 0.219 0.02463 0.96089 0.0
C426 C 0.27039 0.05751 0.95143 0.0
C427 C 0.1688 0.98346 0.96679 0.0
N428 N 0.1817 0.03193 0.92636 0.0
C429 C 0.16148 1.00004 0.94103 0.0
C430 C 0.19749 0.99696 0.97697 0.0
Tb431 Tb 0.17147 0.0625 0.88432 0.0
N432 N 0.22212 0.07367 0.89284 0.0
C433 C 0.24302 0.08501 0.8737 0.0
C434 C 0.28295 0.0869 0.90627 0.0
C435 C 0.27358 0.09314 0.88017 0.0
H436 H 0.13931 0.98974 0.9331 0.0
H437 H 0.28987 0.10384 0.865 0.0
H438 H 0.2937 0.06313 0.95775 0.0
H439 H 0.15232 0.96041 0.97877 0.0
H440 H 0.23612 0.08854 0.85339 0.0
H441 H 1.01698 0.18542 0.89991 0.0
H442 H 0.30668 0.09262 0.9112 0.0
H443 H 0.16507 0.2407 0.81284 0.0
H444 H 0.07201 0.19112 0.9068 0.0
H445 H 0.14752 0.26068 0.7674 0.0
H446 H 0.25606 1.02343 0.98895 0.0
H447 H 0.99588 0.1877 0.85483 0.0
H448 H 1.00486 0.20147 0.80643 0.0
H449 H 0.20313 0.98402 0.9969 0.0
H450 H 0.04032 0.22356 0.77044 0.0
N451 N 0.08257 0.19263 0.86588 0.0
C452 C 0.06338 0.19118 0.88696 0.0
C453 C 0.02021 0.18954 0.85769 0.0
C454 C 0.03986 0.19604 0.8363 0.0
C455 C 0.03201 0.1884 0.88316 0.0
C456 C 0.07134 0.19792 0.84109 0.0
H457 H 0.09346 0.24676 0.75575 0.0
N458 N 0.12136 0.21441 0.82636 0.0
C459 C 0.13154 0.24618 0.78218 0.0
C460 C 0.09127 0.21023 0.82073 0.0
C461 C 0.14136 0.2352 0.80788 0.0
C462 C 0.10099 0.23816 0.77567 0.0
C463 C 0.08035 0.22096 0.79514 0.0
O464 O 0.15358 0.2781 0.86031 0.0
O465 O 0.17879 0.15197 0.86921 0.0
O466 O 0.16369 0.11035 0.92171 0.0
O467 O 0.12524 0.17695 0.91118 0.0
O468 O 0.17463 0.229 0.88913 0.0
O469 O 0.11405 0.27124 0.88564 0.0
O470 O 0.15512 0.97496 0.8827 0.0
O471 O 0.1276 0.10778 0.88393 0.0
O472 O 0.1367 0.13547 0.83393 0.0
O473 O 0.18094 0.08883 0.84424 0.0
O474 O 0.12774 1.02323 0.87194 0.0
O475 O 0.19751 0.99857 0.86442 0.0
C476 C 0.19405 0.19076 0.8817 0.0
C477 C 0.12132 0.36107 0.86236 0.0
C478 C 0.12627 0.46787 0.85634 0.0
C479 C 0.13689 0.41428 0.86696 0.0
C480 C 0.09981 0.46722 0.84083 0.0
C481 C 0.09486 0.36117 0.84707 0.0
C482 C 0.08426 0.41412 0.83627 0.0
C483 C 0.14306 0.15016 0.92858 0.0
C484 C 0.13334 0.30671 0.87409 0.0
C485 C 0.04915 0.21599 0.79002 0.0
C486 C 0.02896 0.20337 0.81054 0.0
C487 C 0.11037 0.06803 0.8747 0.0
C488 C 0.19234 0.90114 0.88121 0.0
C489 C 0.17745 0.84725 0.87644 0.0
C490 C 0.18874 0.79395 0.88687 0.0
C491 C 0.21544 0.79547 0.90206 0.0
C492 C 0.2189 0.90193 0.89643 0.0
C493 C 0.23037 0.84918 0.90675 0.0
C494 C 0.15906 0.09911 0.82734 0.0
C495 C 0.17907 0.95564 0.87054 0.0
H496 H 0.15702 0.41396 0.87926 0.0
H497 H 0.09125 0.50763 0.83207 0.0
H498 H 0.08231 0.32075 0.84363 0.0
H499 H 0.06389 0.41406 0.82436 0.0
H500 H 0.15713 0.84697 0.8644 0.0
H501 H 0.22456 0.75532 0.91064 0.0
H502 H 0.23075 0.94304 0.90032 0.0
H503 H 0.25083 0.84995 0.91854 0.0
Tb504 Tb 0.90837 0.19907 0.63903 0.0
C505 C 0.80195 0.08653 0.61196 0.0
C506 C 0.77663 0.0749 0.65369 0.0
C507 C 0.74824 0.10929 0.61575 0.0
C508 C 0.80324 0.07297 0.6383 0.0
C509 C 0.77411 0.10185 0.60005 0.0
C510 C 0.74953 0.09605 0.64261 0.0
C511 C 0.79842 0.09221 0.55784 0.0
N512 N 0.82742 0.0793 0.59755 0.0
C513 C 0.82528 0.07646 0.57066 0.0
C514 C 0.77291 0.10685 0.57266 0.0
Tb515 Tb 0.8718 0.06463 0.62054 0.0
N516 N 0.82979 0.05167 0.648 0.0
C517 C 0.82895 1.02019 0.67119 0.0
C518 C 0.77753 0.0518 0.67913 0.0
C519 C 0.80351 1.02227 0.68752 0.0
H520 H 0.84451 0.06342 0.55881 0.0
H521 H 0.80376 0.99986 0.70632 0.0
H522 H 0.72905 0.09906 0.65428 0.0
H523 H 0.7974 0.09261 0.53657 0.0
H524 H 0.84769 0.99285 0.67756 0.0
H525 H 0.0217 0.19163 0.5966 0.0
H526 H 0.75764 0.05247 0.6916 0.0
H527 H 0.88955 0.25615 0.69848 0.0
H528 H 0.96723 0.20742 0.59538 0.0
H529 H 0.91353 0.26671 0.74178 0.0
H530 H 0.72683 0.12259 0.6071 0.0
H531 H 0.04801 0.17755 0.63904 0.0
H532 H 0.0455 0.18023 0.68831 0.0
H533 H 0.75203 0.11878 0.56275 0.0
H534 H 1.01594 0.20218 0.72814 0.0
N535 N 0.96062 0.19516 0.63682 0.0
C536 C 0.97738 0.19859 0.61417 0.0
C537 C 0.02361 0.18316 0.63868 0.0
C538 C 1.00696 0.18688 0.66198 0.0
C539 C 1.00884 0.19102 0.61471 0.0
C540 C 0.9752 0.19411 0.66038 0.0
H541 H 0.96695 0.23665 0.74818 0.0
N542 N 0.92872 0.21892 0.68 0.0
C543 C 0.92645 0.24943 0.72539 0.0
C544 C 0.95875 0.20704 0.68275 0.0
C545 C 0.913 0.24389 0.70058 0.0
C546 C 0.95656 0.23216 0.72895 0.0
C547 C 0.97334 0.21216 0.70735 0.0
O548 O 0.88443 0.2664 0.61887 0.0
O549 O 0.86513 0.15908 0.62734 0.0
O550 O 0.87739 0.12177 0.58585 0.0
O551 O 0.91772 0.18176 0.59713 0.0
O552 O 0.86608 0.2073 0.66111 0.0
O553 O 0.92477 0.2872 0.6397 0.0
O554 O 0.88692 1.01461 0.58795 0.0
O555 O 0.91508 0.11158 0.62286 0.0
O556 O 0.90597 0.14449 0.67489 0.0
O557 O 0.88361 0.05538 0.66189 0.0
O558 O 0.91489 0.02523 0.63397 0.0
O559 O 0.85944 0.97408 0.61876 0.0
C560 C 0.84805 0.18127 0.64491 0.0
C561 C 0.88691 0.36103 0.63852 0.0
C562 C 0.87779 0.46834 0.63872 0.0
C563 C 0.89098 0.41731 0.62721 0.0
C564 C 0.86065 0.46152 0.66188 0.0
C565 C 0.86863 0.35555 0.66092 0.0
C566 C 0.85577 0.40548 0.67258 0.0
C567 C 0.89917 0.15902 0.57933 0.0
C568 C 0.90194 0.30868 0.62687 0.0
C569 C 1.00443 0.19965 0.70935 0.0
C570 C 0.02124 0.18701 0.68667 0.0
C571 C 0.93224 0.07072 0.63124 0.0
C572 C 0.87564 0.90922 0.58297 0.0
C573 C 0.87146 0.85531 0.59653 0.0
C574 C 0.87543 0.80072 0.58341 0.0
C575 C 0.88282 0.80072 0.55653 0.0
C576 C 0.8829 0.90799 0.55611 0.0
C577 C 0.88629 0.85401 0.54299 0.0
C578 C 0.89597 0.0904 0.67966 0.0
C579 C 0.87421 0.96663 0.59688 0.0
H580 H 0.90419 0.42089 0.60934 0.0
H581 H 0.85092 0.4994 0.67188 0.0
H582 H 0.86422 0.31298 0.66954 0.0
H583 H 0.84203 0.40075 0.69007 0.0
H584 H 0.8662 0.85575 0.61736 0.0
H585 H 0.88567 0.75933 0.54594 0.0
H586 H 0.88612 0.94883 0.54526 0.0
H587 H 0.89187 0.85348 0.52227 0.0
Tb588 Tb 0.13623 0.85721 0.64097 0.0
C589 C 0.23411 0.96956 0.60355 0.0
C590 C 0.26691 0.9692 0.64184 0.0
C591 C 0.2879 0.94762 0.59879 0.0
C592 C 0.23786 0.97524 0.63043 0.0
C593 C 0.25934 0.95723 0.58735 0.0
C594 C 0.2917 0.95381 0.62598 0.0
C595 C 0.22749 0.97353 0.54956 0.0
N596 N 0.20615 0.97936 0.59319 0.0
C597 C 0.20342 0.98663 0.5664 0.0
C598 C 0.25542 0.95724 0.56007 0.0
Tb599 Tb 0.16766 0.99451 0.62365 0.0
N600 N 0.21318 0.98787 0.64536 0.0
C601 C 0.21692 1.00274 0.67128 0.0
C602 C 0.27022 0.97932 0.66883 0.0
C603 C 0.24519 0.99731 0.6835 0.0
H604 H 0.18282 1.00334 0.55757 0.0
H605 H 0.2477 1.00796 0.70417 0.0
H606 H 0.31402 0.94778 0.63447 0.0
H607 H 0.22462 0.97727 0.52848 0.0
H608 H 0.19869 1.02089 0.68268 0.0
H609 H 0.04455 0.82409 0.56953 0.0
H610 H 0.29213 0.97517 0.67832 0.0
H611 H 0.13159 0.84014 0.70692 0.0
H612 H 0.0961 0.81474 0.5851 0.0
H613 H 0.09287 0.84842 0.74099 0.0
H614 H 0.3074 0.93729 0.58668 0.0
H615 H 1.00357 0.85216 0.6001 0.0
H616 H 0.98725 0.87088 0.64641 0.0
H617 H 0.27419 0.94787 0.54699 0.0
H618 H 1.00027 0.87591 0.69339 0.0
N619 N 0.08724 0.84893 0.62401 0.0
C620 C 0.07976 0.83228 0.59875 0.0
C621 C 0.0268 0.85064 0.60706 0.0
C622 C 0.03374 0.85962 0.63355 0.0
C623 C 0.04986 0.83522 0.58975 0.0
C624 C 0.06445 0.85776 0.64156 0.0
H625 H 0.03942 0.86668 0.72883 0.0
N626 N 0.10128 0.85749 0.67487 0.0
C627 C 0.08656 0.85313 0.72051 0.0
C628 C 0.07172 0.8616 0.66788 0.0
C629 C 0.10855 0.84874 0.70087 0.0
C630 C 0.05649 0.86338 0.71359 0.0
C631 C 0.04858 0.8661 0.687 0.0
O632 O 0.1597 0.79738 0.66515 0.0
O633 O 0.17903 0.90564 0.63818 0.0
O634 O 0.15118 0.95726 0.58693 0.0
O635 O 0.13907 0.85939 0.59741 0.0
O636 O 0.17406 0.82898 0.61661 0.0
O637 O 0.12668 0.76582 0.63694 0.0
O638 O 0.16348 0.07708 0.64311 0.0
O639 O 0.12619 0.94991 0.63527 0.0
O640 O 0.15124 0.90778 0.67663 0.0
O641 O 0.14943 1.00533 0.66306 0.0
O642 O 0.12276 1.01008 0.60568 0.0
O643 O 0.18063 0.07194 0.60387 0.0
C644 C 0.19371 0.86705 0.62476 0.0
C645 C 0.14115 0.69881 0.67112 0.0
C646 C 0.14064 0.59031 0.6733 0.0
C647 C 0.13969 0.64326 0.65864 0.0
C648 C 0.1415 0.59439 0.70096 0.0
C649 C 0.1421 0.7016 0.69867 0.0
C650 C 0.14174 0.6496 0.71345 0.0
C651 C 0.14308 0.90309 0.58034 0.0
C652 C 0.14665 0.75128 0.65465 0.0
C653 C 1.01824 0.87125 0.67902 0.0
C654 C 1.01084 0.86834 0.6523 0.0
C655 C 0.10699 0.97505 0.6204 0.0
C656 C 0.15128 0.15548 0.61439 0.0
C657 C 0.1516 0.20899 0.62854 0.0
C658 C 0.13405 0.25713 0.62 0.0
C659 C 0.11575 0.25128 0.59755 0.0
C660 C 0.13256 0.14997 0.59208 0.0
C661 C 0.11482 0.19766 0.58382 0.0
C662 C 0.14819 0.96526 0.68178 0.0
C663 C 0.17143 0.10689 0.62247 0.0
H664 H 0.13885 0.64169 0.63735 0.0
H665 H 0.14299 0.55516 0.7131 0.0
H666 H 0.14427 0.74344 0.70884 0.0
H667 H 0.14281 0.65205 0.7347 0.0
H668 H 0.16601 0.21366 0.64574 0.0
H669 H 0.10208 0.28814 0.59077 0.0
H670 H 0.13198 0.10927 0.58074 0.0
H671 H 0.10058 0.19326 0.56657 0.0
Tb672 Tb 0.66123 0.56785 0.12761 0.0
C673 C 0.56238 0.68443 0.16746 0.0
C674 C 0.52581 0.7005 0.13284 0.0
C675 C 0.50881 0.66593 0.17551 0.0
C676 C 0.55607 0.69946 0.14192 0.0
C677 C 0.53864 0.67026 0.18499 0.0
C678 C 0.50238 0.6811 0.1494 0.0
C679 C 0.57439 0.67801 0.22059 0.0
N680 N 0.59134 0.69073 0.17583 0.0
C681 C 0.59689 0.69296 0.20244 0.0
C682 C 0.54528 0.66469 0.21174 0.0
Tb683 Tb 0.62775 0.70419 0.14336 0.0
N684 N 0.57937 0.71789 0.12664 0.0
C685 C 0.57308 0.74701 0.1036 0.0
C686 C 0.51992 0.72333 0.10783 0.0
C687 C 0.54359 0.74827 0.09346 0.0
H688 H 0.61864 0.70622 0.21023 0.0
H689 H 0.53913 0.76902 0.07468 0.0
H690 H 0.4791 0.68016 0.14258 0.0
H691 H 0.57945 0.67777 0.24144 0.0
H692 H 0.59079 0.76884 0.09257 0.0
H693 H 0.75848 0.59183 0.19142 0.0
H694 H 0.49704 0.72465 0.10005 0.0
H695 H 0.65741 0.51032 0.06742 0.0
H696 H 0.70429 0.58037 0.18104 0.0
H697 H 0.69211 0.49511 0.02989 0.0
H698 H 0.49038 0.65383 0.18851 0.0
H699 H 0.79628 0.59438 0.15549 0.0
H700 H 0.80743 0.5836 0.10718 0.0
H701 H 0.52773 0.65405 0.22586 0.0
H702 H 0.78916 0.55784 0.06278 0.0
N703 N 0.71089 0.57824 0.13961 0.0
C704 C 0.72036 0.58186 0.16517 0.0
C705 C 0.77242 0.5896 0.15082 0.0
C706 C 0.76271 0.58226 0.12479 0.0
C707 C 0.75118 0.58793 0.17115 0.0
C708 C 0.73143 0.5758 0.11983 0.0
H709 H 0.74618 0.52357 0.03381 0.0
N710 N 0.69129 0.54959 0.09182 0.0
C711 C 0.70054 0.51435 0.04796 0.0
C712 C 0.72123 0.56124 0.09497 0.0
C713 C 0.68102 0.52265 0.06928 0.0
C714 C 0.73101 0.53067 0.05024 0.0
C715 C 0.74191 0.55275 0.07422 0.0
O716 O 0.64586 0.48226 0.11789 0.0
O717 O 0.61848 0.61077 0.13741 0.0
O718 O 0.64984 0.66397 0.17828 0.0
O719 O 0.64461 0.56566 0.16783 0.0
O720 O 0.61944 0.5536 0.10551 0.0
O721 O 0.67552 0.49631 0.15095 0.0
O722 O 0.63681 0.76875 0.17232 0.0
O723 O 0.67108 0.65768 0.14176 0.0
O724 O 0.66208 0.62006 0.09144 0.0
O725 O 0.62537 0.69127 0.10005 0.0
O726 O 0.66724 0.73609 0.12185 0.0
O727 O 0.62866 0.79354 0.13213 0.0
C728 C 0.60211 0.58663 0.11967 0.0
C729 C 0.67745 0.40335 0.12988 0.0
C730 C 0.67744 0.29555 0.12832 0.0
C731 C 0.66317 0.3492 0.13476 0.0
C732 C 0.70656 0.29697 0.11703 0.0
C733 C 0.70646 0.40441 0.11869 0.0
C734 C 0.72094 0.35122 0.1123 0.0
C735 C 0.64726 0.60777 0.18546 0.0
C736 C 0.66114 0.45751 0.13672 0.0
C737 C 0.77291 0.5634 0.07855 0.0
C738 C 0.78332 0.57806 0.10384 0.0
C739 C 0.68636 0.69647 0.12905 0.0
C740 C 0.61822 0.86519 0.16408 0.0
C741 C 0.63222 0.91976 0.15955 0.0
C742 C 0.61792 0.97286 0.16665 0.0
C743 C 0.58896 0.97051 0.17819 0.0
C744 C 0.58937 0.86298 0.17551 0.0
C745 C 0.57482 0.91577 0.18257 0.0
C746 C 0.64295 0.6613 0.08358 0.0
C747 C 0.63444 0.81216 0.15574 0.0
H748 H 0.64097 0.34903 0.14395 0.0
H749 H 0.71808 0.25632 0.11163 0.0
H750 H 0.7179 0.44597 0.11502 0.0
H751 H 0.74333 0.35199 0.10361 0.0
H752 H 0.65421 0.92072 0.15 0.0
H753 H 0.5774 1.01081 0.18405 0.0
H754 H 0.57818 0.82087 0.17883 0.0
H755 H 0.55255 0.9143 0.19146 0.0
Tb756 Tb 0.36849 0.48118 0.12835 0.0
C757 C 0.46595 0.32074 0.17388 0.0
C758 C 0.51053 0.34659 0.14881 0.0
C759 C 0.5159 0.31001 0.1935 0.0
C760 C 0.47876 0.34218 0.15115 0.0
C761 C 0.48432 0.30277 0.1951 0.0
C762 C 0.529 0.33194 0.17037 0.0
C763 C 0.43927 0.26567 0.21644 0.0
N764 N 0.43547 0.31389 0.17447 0.0
C765 C 0.42206 0.28412 0.19482 0.0
C766 C 0.47049 0.27604 0.21681 0.0
Tb767 Tb 0.40899 0.34696 0.13865 0.0
N768 N 0.46011 0.35506 0.13073 0.0
C769 C 0.47214 0.36824 0.10661 0.0
C770 C 0.52278 0.36377 0.12465 0.0
C771 C 0.50349 0.37371 0.10335 0.0
H772 H 0.39792 0.27621 0.19486 0.0
H773 H 0.51273 0.38587 0.0844 0.0
H774 H 0.55344 0.33568 0.16906 0.0
H775 H 0.42841 0.24371 0.23282 0.0
H776 H 0.45786 0.37657 0.08985 0.0
H777 H 0.2652 0.43923 0.18251 0.0
H778 H 0.54707 0.36794 0.12205 0.0
H779 H 0.38013 0.54448 0.07051 0.0
H780 H 0.32016 0.44978 0.17709 0.0
H781 H 0.34943 0.57566 0.03238 0.0
H782 H 0.53043 0.29712 0.20971 0.0
H783 H 0.23079 0.45722 0.14488 0.0
H784 H 0.22432 0.48956 0.09791 0.0
H785 H 0.48379 0.26161 0.23354 0.0
H786 H 0.24718 0.52737 0.05708 0.0
N787 N 0.31764 0.47144 0.13627 0.0
C788 C 0.30572 0.45774 0.16035 0.0
C789 C 0.25507 0.46161 0.14228 0.0
C790 C 0.26727 0.47903 0.11812 0.0
C791 C 0.2744 0.45163 0.16358 0.0
C792 C 0.29901 0.48381 0.11577 0.0
H793 H 0.29372 0.56078 0.0327 0.0
N794 N 0.34234 0.511 0.09192 0.0
C795 C 0.33856 0.55538 0.04917 0.0
C796 C 0.31179 0.50481 0.09284 0.0
C797 C 0.35588 0.5379 0.07086 0.0
C798 C 0.30718 0.54676 0.04939 0.0
C799 C 0.29336 0.52184 0.07153 0.0
O800 O 0.38418 0.56867 0.12367 0.0
O801 O 0.41228 0.44199 0.13602 0.0
O802 O 0.41263 0.396 0.17613 0.0
O803 O 0.37312 0.46388 0.17072 0.0
O804 O 0.41093 0.50747 0.10878 0.0
O805 O 0.35448 0.54533 0.15577 0.0
O806 O 0.39103 0.26076 0.14195 0.0
O807 O 0.36481 0.38566 0.13127 0.0
O808 O 0.36313 0.4294 0.09265 0.0
O809 O 0.40533 0.36828 0.09581 0.0
O810 O 0.36759 0.32304 0.15975 0.0
O811 O 0.4218 0.28292 0.11066 0.0
C812 C 0.42905 0.4731 0.12135 0.0
C813 C 0.35107 0.64274 0.13873 0.0
C814 C 0.35049 0.75082 0.13616 0.0
C815 C 0.36622 0.69732 0.1402 0.0
C816 C 0.31934 0.74861 0.13012 0.0
C817 C 0.32002 0.6414 0.13275 0.0
C818 C 0.30432 0.69417 0.12833 0.0
C819 C 0.39379 0.43702 0.1854 0.0
C820 C 0.36833 0.58815 0.14344 0.0
C821 C 0.26177 0.51498 0.07333 0.0
C822 C 0.24875 0.49347 0.09657 0.0
C823 C 0.34871 0.35537 0.14698 0.0
C824 C 0.42311 0.18506 0.12733 0.0
C825 C 0.40694 0.13152 0.12637 0.0
C826 C 0.42165 0.07719 0.13108 0.0
C827 C 0.45281 0.0776 0.13718 0.0
C828 C 0.45411 0.18457 0.13352 0.0
C829 C 0.46881 0.13101 0.13851 0.0
C830 C 0.3835 0.39411 0.08186 0.0
C831 C 0.40689 0.24071 0.12238 0.0
H832 H 0.39034 0.69791 0.14438 0.0
H833 H 0.30643 0.78892 0.12725 0.0
H834 H 0.30786 0.59987 0.13169 0.0
H835 H 0.28034 0.69291 0.12378 0.0
H836 H 0.38283 0.13243 0.12215 0.0
H837 H 0.465 0.03661 0.14049 0.0
H838 H 0.46698 0.22534 0.13438 0.0
H839 H 0.49276 0.13081 0.14318 0.0
Tb840 Tb 0.67375 0.49078 0.38174 0.0
C841 C 0.57931 0.33341 0.33263 0.0
C842 C 0.53317 0.35607 0.35615 0.0
C843 C 0.53072 0.32463 0.31041 0.0
C844 C 0.56503 0.3524 0.35516 0.0
C845 C 0.56237 0.31746 0.3102 0.0
C846 C 0.51613 0.34401 0.33337 0.0
C847 C 0.60877 0.28225 0.29041 0.0
N848 N 0.60984 0.32679 0.33343 0.0
C849 C 0.62458 0.299 0.31314 0.0
C850 C 0.5776 0.29256 0.28872 0.0
Tb851 Tb 0.63369 0.35497 0.37165 0.0
N852 N 0.5823 0.36218 0.37678 0.0
C853 C 0.56889 0.37067 0.40072 0.0
C854 C 0.5194 0.36887 0.38027 0.0
C855 C 0.53733 0.37481 0.40278 0.0
H856 H 0.64862 0.29067 0.31409 0.0
H857 H 0.52691 0.3831 0.42169 0.0
H858 H 0.49163 0.34733 0.33361 0.0
H859 H 0.62067 0.26161 0.27418 0.0
H860 H 0.58243 0.3759 0.41826 0.0
H861 H 0.77608 0.4467 0.3257 0.0
H862 H 0.49497 0.37215 0.3819 0.0
H863 H 0.66572 0.55795 0.4408 0.0
H864 H 0.72206 0.46536 0.33085 0.0
H865 H 0.6982 0.57856 0.47931 0.0
H866 H 0.51727 0.31336 0.29325 0.0
H867 H 0.81023 0.45041 0.3642 0.0
H868 H 0.81741 0.47206 0.41204 0.0
H869 H 0.5654 0.27952 0.27111 0.0
H870 H 0.79624 0.50755 0.4539 0.0
N871 N 0.72418 0.47752 0.37269 0.0
C872 C 0.73605 0.46709 0.34819 0.0
C873 C 0.78621 0.45851 0.36678 0.0
C874 C 0.77439 0.47319 0.39145 0.0
C875 C 0.76703 0.4565 0.345 0.0
C876 C 0.7429 0.48297 0.39385 0.0
H877 H 0.75209 0.54852 0.47894 0.0
N878 N 0.70076 0.51453 0.41903 0.0
C879 C 0.7076 0.55671 0.46219 0.0
C880 C 0.73087 0.50214 0.41768 0.0
C881 C 0.68939 0.54543 0.44024 0.0
C882 C 0.73797 0.53942 0.46195 0.0
C883 C 0.75015 0.5132 0.43932 0.0
O884 O 0.65859 0.57558 0.39245 0.0
O885 O 0.62996 0.4455 0.38538 0.0
O886 O 0.62882 0.40953 0.33581 0.0
O887 O 0.67117 0.47031 0.33988 0.0
O888 O 0.62961 0.52881 0.37099 0.0
O889 O 0.69153 0.56282 0.36089 0.0
O890 O 0.65331 0.26989 0.36962 0.0
O891 O 0.67753 0.39546 0.37889 0.0
O892 O 0.67114 0.44767 0.42005 0.0
O893 O 0.63727 0.36891 0.41475 0.0
O894 O 0.67573 0.33191 0.35092 0.0
O895 O 0.61712 0.288 0.39652 0.0
C896 C 0.6124 0.48525 0.37648 0.0
C897 C 0.69289 0.65351 0.38465 0.0
C898 C 0.69198 0.75969 0.39361 0.0
C899 C 0.6775 0.70771 0.38489 0.0
C900 C 0.72227 0.75647 0.40223 0.0
C901 C 0.72318 0.65099 0.393 0.0
C902 C 0.73771 0.70235 0.40189 0.0
C903 C 0.64813 0.44914 0.32619 0.0
C904 C 0.67649 0.601 0.37534 0.0
C905 C 0.78118 0.50022 0.43735 0.0
C906 C 0.79325 0.48012 0.41349 0.0
C907 C 0.69424 0.36501 0.36375 0.0
C908 C 0.62032 0.19163 0.37871 0.0
C909 C 0.6367 0.13899 0.38188 0.0
C910 C 0.6242 0.08447 0.37402 0.0
C911 C 0.59497 0.08339 0.36289 0.0
C912 C 0.59119 0.18996 0.3676 0.0
C913 C 0.57862 0.13593 0.35972 0.0
C914 C 0.65514 0.40294 0.42945 0.0
C915 C 0.6346 0.24759 0.38653 0.0
H916 H 0.65433 0.70942 0.37773 0.0
H917 H 0.73397 0.79563 0.40933 0.0
H918 H 0.73564 0.6098 0.39246 0.0
H919 H 0.76106 0.70028 0.40843 0.0
H920 H 0.65911 0.14058 0.39069 0.0
H921 H 0.5849 0.04206 0.35633 0.0
H922 H 0.57818 0.23015 0.36504 0.0
H923 H 0.55618 0.13479 0.35107 0.0
Tb924 Tb 0.37745 0.57831 0.38666 0.0
C925 C 0.46783 0.7156 0.32403 0.0
C926 C 0.51437 0.69806 0.34802 0.0
C927 C 0.51567 0.70842 0.30051 0.0
C928 C 0.48254 0.70482 0.34757 0.0
C929 C 0.48439 0.71971 0.30038 0.0
C930 C 0.53065 0.69759 0.32431 0.0
C931 C 0.43879 0.75355 0.27886 0.0
N932 N 0.43764 0.72675 0.32464 0.0
C933 C 0.4234 0.74917 0.30278 0.0
C934 C 0.46927 0.73748 0.27751 0.0
Tb935 Tb 0.41415 0.70915 0.3642 0.0
N936 N 0.46605 0.70567 0.37017 0.0
C937 C 0.4809 0.70828 0.39387 0.0
C938 C 0.52907 0.69428 0.37231 0.0
C939 C 0.51234 0.70113 0.3953 0.0
H940 H 0.39971 0.76036 0.30319 0.0
H941 H 0.52365 0.70121 0.41422 0.0
H942 H 0.555 0.69125 0.32429 0.0
H943 H 0.42705 0.76893 0.26146 0.0
H944 H 0.4693 0.71592 0.41204 0.0
H945 H 0.27119 0.58282 0.33348 0.0
H946 H 0.55344 0.68883 0.3735 0.0
H947 H 0.3907 0.54323 0.44897 0.0
H948 H 0.32641 0.57227 0.33811 0.0
H949 H 0.36198 0.54092 0.49062 0.0
H950 H 0.52868 0.71029 0.28246 0.0
H951 H 0.23931 0.59964 0.3728 0.0
H952 H 0.23559 0.60522 0.42216 0.0
H953 H 0.48119 0.74104 0.25895 0.0
H954 H 0.26041 0.59345 0.46529 0.0
N955 N 0.32627 0.58425 0.37975 0.0
C956 C 0.31293 0.57907 0.35554 0.0
C957 C 0.26363 0.59504 0.37499 0.0
C958 C 0.2772 0.59605 0.39989 0.0
C959 C 0.28152 0.58518 0.35278 0.0
C960 C 0.30894 0.59007 0.40162 0.0
H961 H 0.3075 0.56788 0.491 0.0
N962 N 0.35306 0.57302 0.42626 0.0
C963 C 0.35066 0.55308 0.47256 0.0
C964 C 0.32282 0.58418 0.42582 0.0
C965 C 0.36686 0.5544 0.44896 0.0
C966 C 0.31999 0.56872 0.4727 0.0
C967 C 0.3055 0.58308 0.44904 0.0
O968 O 0.39146 0.49529 0.40119 0.0
O969 O 0.41979 0.61624 0.37315 0.0
O970 O 0.41025 0.65206 0.32928 0.0
O971 O 0.38097 0.57168 0.34348 0.0
O972 O 0.4224 0.56015 0.40417 0.0
O973 O 0.36254 0.5008 0.36721 0.0
O974 O 0.39037 0.77826 0.38346 0.0
O975 O 0.37053 0.67059 0.37505 0.0
O976 O 0.37602 0.64608 0.41735 0.0
O977 O 0.41935 0.69856 0.40731 0.0
O978 O 0.37326 0.71623 0.3405 0.0
O979 O 0.42861 0.79782 0.35953 0.0
C980 C 0.43856 0.59105 0.38825 0.0
C981 C 0.35689 0.41663 0.3945 0.0
C982 C 0.34369 0.31147 0.39642 0.0
C983 C 0.36208 0.35755 0.38655 0.0
C984 C 0.32093 0.32482 0.41481 0.0
C985 C 0.33357 0.42854 0.41245 0.0
C986 C 0.31595 0.38302 0.42274 0.0
C987 C 0.39546 0.60177 0.325 0.0
C988 C 0.3756 0.46548 0.38402 0.0
C989 C 0.27411 0.5932 0.44762 0.0
C990 C 0.25998 0.59983 0.42306 0.0
C991 C 0.35465 0.6902 0.35604 0.0
C992 C 0.38934 0.86892 0.36019 0.0
C993 C 0.39046 0.92694 0.37059 0.0
C994 C 0.37452 0.97344 0.35812 0.0
C995 C 0.3581 0.96115 0.33497 0.0
C996 C 0.37207 0.85825 0.33745 0.0
C997 C 0.35669 0.90392 0.32494 0.0
C998 C 0.39888 0.68011 0.42449 0.0
C999 C 0.40634 0.82012 0.37288 0.0
H1000 H 0.37964 0.34773 0.37229 0.0
H1001 H 0.30671 0.29008 0.42282 0.0
H1002 H 0.3287 0.47283 0.41856 0.0
H1003 H 0.29815 0.39302 0.43669 0.0
H1004 H 0.4033 0.93559 0.38839 0.0
H1005 H 0.34625 0.99594 0.3245 0.0
H1006 H 0.37035 0.81504 0.32895 0.0
H1007 H 0.34369 0.89491 0.30729 0.0
Tb1008 Tb 0.41468 0.35377 0.86471 0.0
C1009 C 0.32602 0.50468 0.92735 0.0
C1010 C 0.27735 0.48324 0.9075 0.0
C1011 C 0.2802 0.51135 0.95363 0.0
C1012 C 0.30917 0.48755 0.90579 0.0
C1013 C 0.31179 0.5176 0.95146 0.0
C1014 C 0.263 0.49425 0.93167 0.0
C1015 C 0.36077 0.54539 0.96892 0.0
N1016 N 0.35642 0.51022 0.92441 0.0
C1017 C 0.37381 0.53238 0.94453 0.0
C1018 C 0.32966 0.53745 0.97246 0.0
Tb1019 Tb 0.37573 0.48496 0.88409 0.0
N1020 N 0.3239 0.47767 0.88282 0.0
C1021 C 0.30776 0.46705 0.86027 0.0
C1022 C 0.26091 0.46931 0.88476 0.0
C1023 C 0.27618 0.46189 0.86098 0.0
H1024 H 0.39791 0.53847 0.94218 0.0
H1025 H 0.26366 0.45211 0.84316 0.0
H1026 H 0.23858 0.49075 0.93343 0.0
H1027 H 0.37473 0.56147 0.98496 0.0
H1028 H 0.319 0.46104 0.84166 0.0
H1029 H 0.52649 0.37031 0.90791 0.0
H1030 H 0.23644 0.46538 0.88526 0.0
H1031 H 0.3928 0.30696 0.80545 0.0
H1032 H 0.47094 0.36527 0.90846 0.0
H1033 H 0.41628 0.28844 0.76235 0.0
H1034 H 0.26883 0.52069 0.97206 0.0
H1035 H 0.55419 0.3636 0.86574 0.0
H1036 H 0.55238 0.34774 0.81669 0.0
H1037 H 0.31956 0.54779 0.99127 0.0
H1038 H 0.52228 0.32559 0.77699 0.0
N1039 N 0.46654 0.357 0.86681 0.0
C1040 C 0.48244 0.36188 0.88985 0.0
C1041 C 0.52966 0.3612 0.86583 0.0
C1042 C 0.51337 0.35274 0.84248 0.0
C1043 C 0.51412 0.36481 0.88966 0.0
C1044 C 0.48147 0.35019 0.84372 0.0
H1045 H 0.47147 0.30186 0.75666 0.0
N1046 N 0.43427 0.33217 0.8241 0.0
C1047 C 0.43016 0.30239 0.77882 0.0
C1048 C 0.46474 0.33711 0.82155 0.0
C1049 C 0.41696 0.31272 0.80338 0.0
C1050 C 0.46134 0.31018 0.77566 0.0
C1051 C 0.47914 0.3269 0.79727 0.0
O1052 O 0.39709 0.26813 0.8587 0.0
O1053 O 0.37187 0.39042 0.87765 0.0
O1054 O 0.37507 0.42671 0.91797 0.0
O1055 O 0.41685 0.36756 0.90831 0.0
O1056 O 0.37033 0.33164 0.84757 0.0
O1057 O 0.43036 0.28484 0.88897 0.0
O1058 O 0.39316 0.5714 0.88777 0.0
O1059 O 0.41857 0.44726 0.87191 0.0
O1060 O 0.41585 0.41541 0.83114 0.0
O1061 O 0.37269 0.46949 0.84134 0.0
O1062 O 0.4202 0.50876 0.90096 0.0
O1063 O 0.35813 0.55135 0.85945 0.0
C1064 C 0.35347 0.36206 0.86309 0.0
C1065 C 0.42949 0.18968 0.86923 0.0
C1066 C 0.42698 0.08216 0.86435 0.0
C1067 C 0.41382 0.13607 0.87228 0.0
C1068 C 0.45629 0.08285 0.85342 0.0
C1069 C 0.45865 0.18965 0.85831 0.0
C1070 C 0.47198 0.13631 0.8505 0.0
C1071 C 0.39688 0.39011 0.92526 0.0
C1072 C 0.41426 0.24488 0.87672 0.0
C1073 C 0.5108 0.33239 0.79555 0.0
C1074 C 0.52791 0.34517 0.81814 0.0
C1075 C 0.43686 0.47527 0.88658 0.0
C1076 C 0.35888 0.64752 0.87824 0.0
C1077 C 0.37438 0.7015 0.87587 0.0
C1078 C 0.36082 0.75491 0.884 0.0
C1079 C 0.33127 0.75335 0.89442 0.0
C1080 C 0.32945 0.64675 0.88864 0.0
C1081 C 0.31574 0.69956 0.89665 0.0
C1082 C 0.39349 0.45151 0.82439 0.0
C1083 C 0.37444 0.59279 0.87046 0.0
H1084 H 0.39137 0.13651 0.88097 0.0
H1085 H 0.46693 0.04224 0.84674 0.0
H1086 H 0.47105 0.23059 0.85576 0.0
H1087 H 0.49445 0.13643 0.84197 0.0
H1088 H 0.39699 0.70174 0.86751 0.0
H1089 H 0.3203 0.79353 0.90121 0.0
H1090 H 0.31709 0.60559 0.89058 0.0
H1091 H 0.29305 0.69879 0.90475 0.0
Tb1092 Tb 0.63049 0.69563 0.86937 0.0
C1093 C 0.72739 0.54594 0.92298 0.0
C1094 C 0.77365 0.56649 0.89925 0.0
C1095 C 0.77592 0.539 0.94541 0.0
C1096 C 0.74177 0.56292 0.90019 0.0
C1097 C 0.74423 0.53286 0.9458 0.0
C1098 C 0.79063 0.55573 0.92214 0.0
C1099 C 0.69742 0.50449 0.96691 0.0
N1100 N 0.6968 0.54022 0.92243 0.0
C1101 C 0.68173 0.51796 0.94379 0.0
C1102 C 0.72877 0.5126 0.96805 0.0
Tb1103 Tb 0.67314 0.56514 0.88381 0.0
N1104 N 0.72457 0.57169 0.87843 0.0
C1105 C 0.73814 0.57927 0.85451 0.0
C1106 C 0.78752 0.57845 0.87511 0.0
C1107 C 0.76968 0.58386 0.85256 0.0
H1108 H 0.65752 0.51166 0.94346 0.0
H1109 H 0.78017 0.59151 0.83364 0.0
H1110 H 0.81516 0.55866 0.92187 0.0
H1111 H 0.68524 0.48773 0.98376 0.0
H1112 H 0.72481 0.58312 0.83681 0.0
H1113 H 0.5269 0.68456 0.92601 0.0
H1114 H 0.81197 0.58162 0.87353 0.0
H1115 H 0.64148 0.74277 0.80798 0.0
H1116 H 0.58189 0.69044 0.9197 0.0
H1117 H 0.61098 0.75727 0.76797 0.0
H1118 H 0.7893 0.52954 0.96279 0.0
H1119 H 0.4925 0.68431 0.88752 0.0
H1120 H 0.48608 0.6942 0.83852 0.0
H1121 H 0.74088 0.50185 0.98596 0.0
H1122 H 0.50903 0.71453 0.79531 0.0
N1123 N 0.57942 0.69244 0.87777 0.0
C1124 C 0.56747 0.69079 0.90259 0.0
C1125 C 0.51678 0.68712 0.88458 0.0
C1126 C 0.529 0.6928 0.85935 0.0
C1127 C 0.5361 0.68745 0.90633 0.0
C1128 C 0.56075 0.69621 0.85665 0.0
H1129 H 0.55561 0.73939 0.76887 0.0
N1130 N 0.60396 0.71521 0.83149 0.0
C1131 C 0.60015 0.74316 0.78599 0.0
C1132 C 0.5735 0.70816 0.83258 0.0
C1133 C 0.61736 0.73512 0.80883 0.0
C1134 C 0.56893 0.73285 0.78655 0.0
C1135 C 0.55512 0.71622 0.81018 0.0
O1136 O 0.64708 0.78102 0.86124 0.0
O1137 O 0.6756 0.66008 0.87688 0.0
O1138 O 0.67902 0.62474 0.91692 0.0
O1139 O 0.63496 0.68046 0.91282 0.0
O1140 O 0.67078 0.71907 0.84683 0.0
O1141 O 0.61929 0.76524 0.89529 0.0
O1142 O 0.6564 0.47851 0.88849 0.0
O1143 O 0.62857 0.60221 0.87648 0.0
O1144 O 0.6258 0.63373 0.83575 0.0
O1145 O 0.67068 0.5813 0.84132 0.0
O1146 O 0.63149 0.53909 0.90464 0.0
O1147 O 0.68774 0.49919 0.85734 0.0
C1148 C 0.69039 0.68859 0.85956 0.0
C1149 C 0.61712 0.86002 0.87545 0.0
C1150 C 0.61913 0.96746 0.8701 0.0
C1151 C 0.63311 0.91366 0.87701 0.0
C1152 C 0.58864 0.96658 0.86183 0.0
C1153 C 0.58681 0.85988 0.86714 0.0
C1154 C 0.57264 0.91311 0.86046 0.0
C1155 C 0.65787 0.65917 0.92711 0.0
C1156 C 0.63327 0.80482 0.88116 0.0
C1157 C 0.52357 0.70921 0.81234 0.0
C1158 C 0.51051 0.69756 0.83692 0.0
C1159 C 0.61276 0.57274 0.89254 0.0
C1160 C 0.6893 0.40263 0.87561 0.0
C1161 C 0.67354 0.34867 0.87451 0.0
C1162 C 0.68785 0.29526 0.88157 0.0
C1163 C 0.71844 0.29683 0.88953 0.0
C1164 C 0.71976 0.40337 0.88358 0.0
C1165 C 0.73423 0.35057 0.89044 0.0
C1166 C 0.64765 0.59883 0.82665 0.0
C1167 C 0.6729 0.45748 0.86949 0.0
H1168 H 0.65651 0.91327 0.88361 0.0
H1169 H 0.57728 1.00703 0.85596 0.0
H1170 H 0.57421 0.81884 0.86564 0.0
H1171 H 0.54927 0.91288 0.85393 0.0
H1172 H 0.65008 0.34848 0.86808 0.0
H1173 H 0.73005 0.25674 0.8955 0.0
H1174 H 0.73229 0.44453 0.88459 0.0
H1175 H 0.7577 0.35133 0.8967 0.0
Tb1176 Tb 0.41282 0.69765 0.63875 0.0
C1177 C 0.31627 0.54492 0.58678 0.0
C1178 C 0.27094 0.5717 0.6107 0.0
C1179 C 0.26715 0.53819 0.56532 0.0
C1180 C 0.30268 0.56532 0.60943 0.0
C1181 C 0.29869 0.5297 0.56463 0.0
C1182 C 0.25329 0.55929 0.58833 0.0
C1183 C 0.3444 0.49426 0.54374 0.0
N1184 N 0.34674 0.53728 0.58697 0.0
C1185 C 0.3609 0.51049 0.56613 0.0
C1186 C 0.31321 0.5046 0.54283 0.0
Tb1187 Tb 0.37168 0.56515 0.62454 0.0
N1188 N 0.3205 0.5758 0.63068 0.0
C1189 C 0.30764 0.58899 0.65448 0.0
C1190 C 0.25785 0.5887 0.63461 0.0
C1191 C 0.27629 0.59664 0.65668 0.0
H1192 H 0.38498 0.5023 0.5665 0.0
H1193 H 0.26638 0.60865 0.67541 0.0
H1194 H 0.22887 0.56433 0.58884 0.0
H1195 H 0.35574 0.47335 0.5273 0.0
H1196 H 0.32142 0.59536 0.67179 0.0
H1197 H 0.51999 0.68447 0.58771 0.0
H1198 H 0.23354 0.59432 0.6364 0.0
H1199 H 0.39668 0.7447 0.69933 0.0
H1200 H 0.4645 0.68912 0.59112 0.0
H1201 H 0.42431 0.7636 0.74066 0.0
H1202 H 0.25322 0.52728 0.54841 0.0
H1203 H 0.5517 0.68963 0.62784 0.0
H1204 H 0.5547 0.70515 0.67685 0.0
H1205 H 0.30045 0.49151 0.52554 0.0
H1206 H 0.52864 0.72764 0.71854 0.0
N1207 N 0.46425 0.69526 0.63298 0.0
C1208 C 0.47784 0.69165 0.60888 0.0
C1209 C 0.52723 0.69174 0.6295 0.0
C1210 C 0.51328 0.69957 0.65395 0.0
C1211 C 0.50943 0.68901 0.60681 0.0
C1212 C 0.48138 0.70187 0.65497 0.0
H1213 H 0.48 0.75051 0.74247 0.0
N1214 N 0.43624 0.71993 0.67785 0.0
C1215 C 0.43656 0.74979 0.72325 0.0
C1216 C 0.46688 0.71523 0.67823 0.0
C1217 C 0.42098 0.73927 0.69971 0.0
C1218 C 0.46798 0.74224 0.72421 0.0
C1219 C 0.48361 0.72564 0.70141 0.0
O1220 O 0.3959 0.78324 0.64579 0.0
O1221 O 0.36897 0.66012 0.62953 0.0
O1222 O 0.36857 0.61924 0.58932 0.0
O1223 O 0.41022 0.6821 0.5953 0.0
O1224 O 0.37004 0.72111 0.65855 0.0
O1225 O 0.42594 0.76621 0.61315 0.0
O1226 O 0.3889 0.47857 0.62106 0.0
O1227 O 0.41588 0.60377 0.6318 0.0
O1228 O 0.41913 0.63641 0.67188 0.0
O1229 O 0.37492 0.58214 0.66727 0.0
O1230 O 0.41336 0.53896 0.60399 0.0
O1231 O 0.35586 0.50016 0.65077 0.0
C1232 C 0.35179 0.69004 0.64445 0.0
C1233 C 0.42692 0.86171 0.63269 0.0
C1234 C 0.42445 0.96912 0.63801 0.0
C1235 C 0.4108 0.91508 0.63083 0.0
C1236 C 0.45468 0.96882 0.64695 0.0
C1237 C 0.457 0.86214 0.64162 0.0
C1238 C 0.4708 0.91562 0.64866 0.0
C1239 C 0.38886 0.65729 0.58025 0.0
C1240 C 0.41112 0.80627 0.62646 0.0
C1241 C 0.51534 0.72036 0.70088 0.0
C1242 C 0.53016 0.7074 0.67717 0.0
C1243 C 0.43183 0.57407 0.61577 0.0
C1244 C 0.35487 0.40348 0.63246 0.0
C1245 C 0.3705 0.34943 0.63328 0.0
C1246 C 0.3562 0.29638 0.62554 0.0
C1247 C 0.32581 0.29835 0.6171 0.0
C1248 C 0.32457 0.40462 0.62405 0.0
C1249 C 0.31015 0.35218 0.61644 0.0
C1250 C 0.39851 0.59965 0.68142 0.0
C1251 C 0.37122 0.45806 0.63932 0.0
H1252 H 0.38759 0.91432 0.62373 0.0
H1253 H 0.46575 1.00952 0.65305 0.0
H1254 H 0.46972 0.82138 0.64329 0.0
H1255 H 0.49398 0.91581 0.65568 0.0
H1256 H 0.39383 0.34889 0.64006 0.0
H1257 H 0.31425 0.25849 0.61062 0.0
H1258 H 0.31209 0.44582 0.6233 0.0
H1259 H 0.28682 0.3533 0.60982 0.0
Tb1260 Tb 0.62483 0.33749 0.64466 0.0
C1261 C 0.71971 0.48448 0.58914 0.0
C1262 C 0.76595 0.46187 0.61261 0.0
C1263 C 0.76799 0.48813 0.5663 0.0
C1264 C 0.73415 0.46724 0.61191 0.0
C1265 C 0.73642 0.49644 0.56617 0.0
C1266 C 0.78275 0.47086 0.58951 0.0
C1267 C 0.68987 0.52888 0.5456 0.0
N1268 N 0.68929 0.49245 0.58998 0.0
C1269 C 0.67433 0.5166 0.56893 0.0
C1270 C 0.721 0.51802 0.54409 0.0
Tb1271 Tb 0.66581 0.46824 0.62865 0.0
N1272 N 0.71717 0.46036 0.63388 0.0
C1273 C 0.73095 0.45353 0.6578 0.0
C1274 C 0.77995 0.45006 0.63672 0.0
C1275 C 0.76244 0.4471 0.65952 0.0
H1276 H 0.65024 0.52468 0.56976 0.0
H1277 H 0.77313 0.4396 0.67839 0.0
H1278 H 0.80722 0.46643 0.58961 0.0
H1279 H 0.67781 0.54642 0.52878 0.0
H1280 H 0.71774 0.45092 0.6756 0.0
H1281 H 0.51723 0.36217 0.59456 0.0
H1282 H 0.80428 0.4451 0.63801 0.0
H1283 H 0.64081 0.28714 0.70498 0.0
H1284 H 0.57247 0.3555 0.59765 0.0
H1285 H 0.61329 0.26559 0.74566 0.0
H1286 H 0.78127 0.49655 0.54879 0.0
H1287 H 0.48572 0.35142 0.63445 0.0
H1288 H 0.48292 0.3299 0.68291 0.0
H1289 H 0.73299 0.52763 0.52602 0.0
H1290 H 0.50915 0.303 0.72397 0.0
N1291 N 0.57321 0.34218 0.63918 0.0
C1292 C 0.55942 0.3502 0.61532 0.0
C1293 C 0.51017 0.34834 0.63598 0.0
C1294 C 0.52424 0.33688 0.6601 0.0
C1295 C 0.52786 0.3542 0.61342 0.0
C1296 C 0.55615 0.33359 0.66099 0.0
H1297 H 0.55767 0.27777 0.74745 0.0
N1298 N 0.60133 0.31347 0.68349 0.0
C1299 C 0.60103 0.28068 0.72847 0.0
C1300 C 0.57072 0.31837 0.68396 0.0
C1301 C 0.61657 0.29296 0.70517 0.0
C1302 C 0.56965 0.28784 0.72944 0.0
C1303 C 0.55404 0.30628 0.70693 0.0
O1304 O 0.64223 0.25168 0.65051 0.0
O1305 O 0.66972 0.37333 0.63537 0.0
O1306 O 0.66851 0.41051 0.59434 0.0
O1307 O 0.62569 0.35283 0.60149 0.0
O1308 O 0.66602 0.31694 0.66639 0.0
O1309 O 0.61124 0.26962 0.61874 0.0
O1310 O 0.64986 0.55512 0.62289 0.0
O1311 O 0.62206 0.43101 0.63771 0.0
O1312 O 0.61969 0.39838 0.67812 0.0
O1313 O 0.6629 0.4555 0.67177 0.0
O1314 O 0.62282 0.49331 0.60931 0.0
O1315 O 0.6809 0.53507 0.65446 0.0
C1316 C 0.68519 0.34633 0.65278 0.0
C1317 C 0.61073 0.17357 0.63728 0.0
C1318 C 0.61212 0.06553 0.63953 0.0
C1319 C 0.62632 0.11993 0.63395 0.0
C1320 C 0.58207 0.06592 0.64886 0.0
C1321 C 0.58088 0.17316 0.64668 0.0
C1322 C 0.56667 0.11945 0.65249 0.0
C1323 C 0.64669 0.37533 0.58569 0.0
C1324 C 0.62648 0.22917 0.63134 0.0
C1325 C 0.52234 0.31175 0.7065 0.0
C1326 C 0.50744 0.32708 0.68312 0.0
C1327 C 0.60487 0.46007 0.62256 0.0
C1328 C 0.68285 0.63113 0.63601 0.0
C1329 C 0.66822 0.68563 0.63975 0.0
C1330 C 0.68326 0.73927 0.63436 0.0
C1331 C 0.71316 0.73725 0.62473 0.0
C1332 C 0.71261 0.62989 0.62639 0.0
C1333 C 0.72763 0.68285 0.62072 0.0
C1334 C 0.64006 0.43721 0.68669 0.0
C1335 C 0.66624 0.57651 0.64196 0.0
H1336 H 0.64965 0.1208 0.62723 0.0
H1337 H 0.57025 0.02486 0.65297 0.0
H1338 H 0.56854 0.21409 0.64943 0.0
H1339 H 0.54357 0.11926 0.65964 0.0
H1340 H 0.64497 0.68604 0.64667 0.0
H1341 H 0.72558 0.77768 0.62071 0.0
H1342 H 0.72425 0.58826 0.62338 0.0
H1343 H 0.75066 0.68176 0.6134 0.0
H1344 H 0.22014 0.24508 0.11225 0.0
H1345 H 0.22504 0.18433 0.19247 0.0
H1346 H 0.2742 0.23187 0.19794 0.0
H1347 H 0.31513 0.2937 0.18125 0.0
H1348 H 0.31239 0.35824 0.10169 0.0
H1349 H 0.26325 0.30829 0.09483 0.0
C1350 C 0.23243 0.24107 0.13064 0.0
C1351 C 0.21928 0.20881 0.1517 0.0
C1352 C 0.2608 0.27082 0.13402 0.0
C1353 C 0.23493 0.20691 0.17576 0.0
C1354 C 0.26298 0.23477 0.179 0.0
C1355 C 0.30375 0.29727 0.16238 0.0
C1356 C 0.31736 0.33094 0.14226 0.0
C1357 C 0.27595 0.26748 0.1585 0.0
C1358 C 0.30229 0.3341 0.11784 0.0
C1359 C 0.27425 0.30478 0.11383 0.0
H1360 H 0.80904 0.80353 0.1757 0.0
H1361 H 0.81845 0.86242 0.09561 0.0
H1362 H 0.77095 0.81267 0.08387 0.0
H1363 H 0.72645 0.75057 0.09623 0.0
H1364 H 0.71458 0.70069 0.1772 0.0
H1365 H 0.76325 0.74644 0.18853 0.0
C1366 C 0.80058 0.80584 0.15569 0.0
C1367 C 0.81744 0.83753 0.13667 0.0
C1368 C 0.77303 0.7769 0.14907 0.0
C1369 C 0.80604 0.83952 0.11082 0.0
C1370 C 0.77886 0.81042 0.10403 0.0
C1371 C 0.7349 0.7486 0.11625 0.0
C1372 C 0.71776 0.71803 0.13547 0.0
C1373 C 0.76225 0.77839 0.12292 0.0
C1374 C 0.72819 0.71957 0.16161 0.0
C1375 C 0.7558 0.74711 0.16821 0.0
H1376 H 0.31809 0.73726 0.39676 0.0
H1377 H 0.31924 0.69516 0.31395 0.0
H1378 H 0.26968 0.74052 0.30834 0.0
H1379 H 0.22622 0.79405 0.32585 0.0
H1380 H 0.22253 0.8394 0.40802 0.0
H1381 H 0.27245 0.79262 0.4149 0.0
C1382 C 0.30713 0.73704 0.37767 0.0
C1383 C 0.32226 0.71102 0.35585 0.0
C1384 C 0.2783 0.76513 0.37431 0.0
C1385 C 0.30804 0.71347 0.33112 0.0
C1386 C 0.27969 0.7399 0.32782 0.0
C1387 C 0.23638 0.79416 0.3453 0.0
C1388 C 0.22074 0.82158 0.3662 0.0
C1389 C 0.26472 0.76636 0.3491 0.0
C1390 C 0.23423 0.82021 0.39134 0.0
C1391 C 0.26274 0.79272 0.39531 0.0
H1392 H 0.81431 0.2485 0.41099 0.0
H1393 H 0.8247 0.19416 0.33027 0.0
H1394 H 0.77707 0.24395 0.31882 0.0
H1395 H 0.73272 0.3052 0.33154 0.0
H1396 H 0.72338 0.36355 0.41188 0.0
H1397 H 0.77046 0.31199 0.42354 0.0
C1398 C 0.80574 0.24648 0.391 0.0
C1399 C 0.82229 0.21449 0.37181 0.0
C1400 C 0.77886 0.27756 0.38437 0.0
C1401 C 0.8117 0.21533 0.34571 0.0
C1402 C 0.78467 0.2448 0.33909 0.0
C1403 C 0.74118 0.30713 0.35157 0.0
C1404 C 0.72474 0.33963 0.37064 0.0
C1405 C 0.76812 0.27641 0.3582 0.0
C1406 C 0.73581 0.34053 0.3966 0.0
C1407 C 0.76263 0.3103 0.40334 0.0
H1408 H 0.72773 0.73459 0.89976 0.0
H1409 H 0.72441 0.69428 0.81684 0.0
H1410 H 0.77232 0.74517 0.8101 0.0
H1411 H 0.81398 0.80535 0.82644 0.0
H1412 H 0.82024 0.84843 0.90878 0.0
H1413 H 0.77241 0.79481 0.91692 0.0
C1414 C 0.73807 0.73548 0.88043 0.0
C1415 C 0.72284 0.70829 0.85891 0.0
C1416 C 0.76574 0.76731 0.8764 0.0
C1417 C 0.73593 0.71285 0.83382 0.0
C1418 C 0.76324 0.74273 0.82986 0.0
C1419 C 0.80489 0.80341 0.84624 0.0
C1420 C 0.82053 0.8324 0.86678 0.0
C1421 C 0.77805 0.77101 0.8508 0.0
C1422 C 0.80843 0.82828 0.89236 0.0
C1423 C 0.78119 0.79671 0.89706 0.0
H1424 H 0.31425 0.30005 0.83235 0.0
H1425 H 0.32526 0.36332 0.91185 0.0
H1426 H 0.27787 0.31445 0.92447 0.0
H1427 H 0.23326 0.25156 0.91307 0.0
H1428 H 0.22251 0.18832 0.83358 0.0
H1429 H 0.26997 0.23734 0.82102 0.0
C1430 C 0.30617 0.30358 0.85243 0.0
C1431 C 0.32317 0.33697 0.87092 0.0
C1432 C 0.27918 0.2738 0.8597 0.0
C1433 C 0.31248 0.33982 0.89695 0.0
C1434 C 0.28544 0.31105 0.90425 0.0
C1435 C 0.24161 0.24774 0.89309 0.0
C1436 C 0.22481 0.21412 0.87455 0.0
C1437 C 0.26869 0.27747 0.88587 0.0
C1438 C 0.23543 0.21166 0.8485 0.0
C1439 C 0.26243 0.24043 0.84125 0.0
H1440 H 0.72514 0.3158 0.61096 0.0
H1441 H 0.71765 0.32482 0.69548 0.0
H1442 H 0.76555 0.27303 0.70036 0.0
H1443 H 0.80886 0.2207 0.68159 0.0
H1444 H 0.82017 0.21302 0.59767 0.0
H1445 H 0.77215 0.26717 0.59162 0.0
C1446 C 0.7344 0.30762 0.63037 0.0
C1447 C 0.71764 0.32533 0.65291 0.0
C1448 C 0.76253 0.27644 0.63323 0.0
C1449 C 0.72994 0.31262 0.67782 0.0
C1450 C 0.75737 0.28243 0.6807 0.0
C1451 C 0.80072 0.23033 0.66192 0.0
C1452 C 0.81769 0.21036 0.64018 0.0
C1453 C 0.77362 0.2631 0.65867 0.0
C1454 C 0.80716 0.22556 0.61486 0.0
C1455 C 0.77975 0.25731 0.61141 0.0
H1456 H 0.23182 0.80169 0.59411 0.0
H1457 H 0.22261 0.87049 0.67278 0.0
H1458 H 0.26995 0.82156 0.68565 0.0
H1459 H 0.31393 0.75717 0.67481 0.0
H1460 H 0.32213 0.68584 0.59649 0.0
H1461 H 0.27533 0.73577 0.5835 0.0
C1462 C 0.24043 0.80659 0.61399 0.0
C1463 C 0.22417 0.84208 0.63213 0.0
C1464 C 0.26733 0.77652 0.62149 0.0
C1465 C 0.23515 0.84587 0.65807 0.0
C1466 C 0.2621 0.81707 0.66554 0.0
C1467 C 0.30535 0.75213 0.65493 0.0
C1468 C 0.32157 0.71636 0.63684 0.0
C1469 C 0.27837 0.78199 0.64747 0.0
C1470 C 0.31013 0.71149 0.61107 0.0
C1471 C 0.28334 0.74074 0.60354 0.0
H1472 H 0.14413 0.04486 0.30777 0.0
H1473 H 0.14023 0.86627 0.27756 0.0
H1474 H 0.13692 0.90393 0.23264 0.0
H1475 H 0.13682 0.98783 0.20182 0.0
H1476 H 0.13923 0.16685 0.23188 0.0
H1477 H 0.14122 0.1292 0.27693 0.0
C1478 C 0.14259 1.0143 0.2913 0.0
C1479 C 0.14239 0.95274 0.29594 0.0
C1480 C 0.14036 0.03649 0.26552 0.0
C1481 C 0.13995 0.91363 0.27453 0.0
C1482 C 0.13828 0.93525 0.24882 0.0
C1483 C 0.13761 1.0186 0.21826 0.0
C1484 C 0.13778 0.08011 0.21352 0.0
C1485 C 0.13862 0.99657 0.24408 0.0
C1486 C 0.13858 0.11941 0.23499 0.0
C1487 C 0.14001 0.09785 0.26076 0.0
H1488 H 0.93108 0.05577 0.29234 0.0
H1489 H 0.83952 0.12137 0.28762 0.0
H1490 H 0.83389 0.07817 0.24364 0.0
H1491 H 0.85402 1.01783 0.20776 0.0
H1492 H 0.94467 0.94655 0.21296 0.0
H1493 H 0.95152 0.99478 0.25575 0.0
C1494 C 0.91024 0.06169 0.28128 0.0
C1495 C 0.88596 0.09289 0.29268 0.0
C1496 C 0.9068 0.03457 0.25646 0.0
C1497 C 0.85861 0.09852 0.27883 0.0
C1498 C 0.85533 0.07338 0.25386 0.0
C1499 C 0.87534 1.01272 0.21817 0.0
C1500 C 0.89877 0.97835 0.20712 0.0
C1501 C 0.87909 0.04053 0.24269 0.0
C1502 C 0.92614 0.97222 0.22106 0.0
C1503 C 0.93016 1.00019 0.24546 0.0
H1504 H 0.87212 0.12341 0.72646 0.0
H1505 H 0.93135 0.99565 0.69018 0.0
H1506 H 0.93687 0.94305 0.73207 0.0
H1507 H 0.92278 0.93108 0.77887 0.0
H1508 H 0.85894 0.05419 0.8131 0.0
H1509 H 0.85753 0.11052 0.77273 0.0
C1510 C 0.88656 0.08461 0.72797 0.0
C1511 C 0.90166 0.06374 0.7056 0.0
C1512 C 0.88859 0.05324 0.75182 0.0
C1513 C 0.9198 1.01267 0.70741 0.0
C1514 C 0.92282 0.98246 0.73129 0.0
C1515 C 0.90842 0.96989 0.77745 0.0
C1516 C 0.8909 0.98759 0.79922 0.0
C1517 C 0.90692 1.00177 0.75361 0.0
C1518 C 0.87267 0.03872 0.7969 0.0
C1519 C 0.8718 0.07143 0.77368 0.0
H1520 H 0.12119 0.1125 0.78479 0.0
H1521 H 0.19838 1.01241 0.81213 0.0
H1522 H 0.19932 0.95632 0.77129 0.0
H1523 H 0.17995 0.93814 0.72635 0.0
H1524 H 0.10728 0.04727 0.69707 0.0
H1525 H 0.10261 0.09616 0.73966 0.0
C1526 C 0.13835 0.07885 0.78175 0.0
C1527 C 0.15973 0.06737 0.80162 0.0
C1528 C 0.13938 0.04743 0.75773 0.0
C1529 C 0.18161 1.02279 0.79729 0.0
C1530 C 0.18219 0.99029 0.77385 0.0
C1531 C 0.16271 0.97168 0.72959 0.0
C1532 C 0.14343 0.98781 0.70883 0.0
C1533 C 0.16131 1.00233 0.75381 0.0
C1534 C 0.12186 0.03287 0.71294 0.0
C1535 C 0.1194 0.06146 0.73725 0.0
H1536 H 0.67393 0.54774 0.3046 0.0
H1537 H 0.61117 0.40612 0.28703 0.0
H1538 H 0.60551 0.44277 0.24224 0.0
H1539 H 0.61918 0.51402 0.20767 0.0
H1540 H 0.67838 0.6608 0.22592 0.0
H1541 H 0.68416 0.62406 0.27108 0.0
C1542 C 0.6591 0.52457 0.29098 0.0
C1543 C 0.64382 0.47257 0.29906 0.0
C1544 C 0.65509 0.54739 0.26545 0.0
C1545 C 0.62398 0.44469 0.28127 0.0
C1546 C 0.62053 0.46609 0.25564 0.0
C1547 C 0.63329 0.53808 0.22158 0.0
C1548 C 0.64864 0.58969 0.21345 0.0
C1549 C 0.63615 0.51709 0.24747 0.0
C1550 C 0.66636 0.62103 0.23175 0.0
C1551 C 0.66977 0.5998 0.25749 0.0
H1552 H 0.40453 0.48847 0.30792 0.0
H1553 H 0.38319 0.66471 0.28097 0.0
H1554 H 0.38143 0.62944 0.23553 0.0
H1555 H 0.38527 0.54844 0.2035 0.0
H1556 H 0.40832 0.37244 0.22954 0.0
H1557 H 0.41038 0.4073 0.27514 0.0
C1558 C 0.39946 0.51891 0.29202 0.0
C1559 C 0.39421 0.57921 0.29769 0.0
C1560 C 0.39885 0.4983 0.26581 0.0
C1561 C 0.38789 0.61843 0.27701 0.0
C1562 C 0.38666 0.59816 0.25105 0.0
C1563 C 0.39067 0.51757 0.21914 0.0
C1564 C 0.3965 0.45765 0.21307 0.0
C1565 C 0.39206 0.53821 0.24522 0.0
C1566 C 0.40402 0.41867 0.23356 0.0
C1567 C 0.40497 0.43863 0.2597 0.0
H1568 H 0.43749 0.49837 0.79297 0.0
H1569 H 0.34262 0.45279 0.79478 0.0
H1570 H 0.33572 0.49365 0.75067 0.0
H1571 H 0.35624 0.54482 0.712 0.0
H1572 H 0.45025 0.59804 0.71123 0.0
H1573 H 0.45781 0.55288 0.75443 0.0
C1574 C 0.41546 0.49691 0.78348 0.0
C1575 C 0.39064 0.47209 0.7969 0.0
C1576 C 0.41141 0.52265 0.75842 0.0
C1577 C 0.36203 0.4715 0.78473 0.0
C1578 C 0.35807 0.49501 0.75955 0.0
C1579 C 0.3784 0.54662 0.72126 0.0
C1580 C 0.40262 0.57482 0.70828 0.0
C1581 C 0.38251 0.52123 0.74629 0.0
C1582 C 0.43111 0.57702 0.72077 0.0
C1583 C 0.43552 0.55085 0.74545 0.0
H1584 H 0.6047 0.53576 0.79985 0.0
H1585 H 0.69265 0.61699 0.792 0.0
H1586 H 0.6981 0.5748 0.74792 0.0
H1587 H 0.67913 0.51095 0.71251 0.0
H1588 H 0.59226 0.4246 0.72075 0.0
H1589 H 0.58537 0.47143 0.76372 0.0
C1590 C 0.6247 0.54502 0.78816 0.0
C1591 C 0.64804 0.58023 0.79882 0.0
C1592 C 0.62816 0.51864 0.76311 0.0
C1593 C 0.67427 0.59065 0.78394 0.0
C1594 C 0.67749 0.56617 0.75884 0.0
C1595 C 0.65865 0.50226 0.72364 0.0
C1596 C 0.63636 0.46389 0.71332 0.0
C1597 C 0.65481 0.52932 0.74838 0.0
C1598 C 0.61 0.45336 0.7282 0.0
C1599 C 0.60591 0.48051 0.75277 0.0
H1600 H 0.15776 0.23536 0.96484 0.0
H1601 H 0.11183 0.06789 0.95534 0.0
H1602 H 0.10523 0.05963 1.0025 0.0
H1603 H 0.11625 0.09513 0.0467 0.0
H1604 H 0.16165 0.2625 0.05813 0.0
H1605 H 0.1644 0.27651 0.01022 0.0
C1606 C 0.14572 0.19795 0.97322 0.0
C1607 C 0.13513 0.15231 0.95666 0.0
C1608 C 0.14214 0.19333 1.00073 0.0
C1609 C 0.11991 0.1037 0.9676 0.0
C1610 C 0.11627 0.09875 0.99466 0.0
C1611 C 0.1264 0.13507 0.03868 0.0
C1612 C 0.13893 0.17754 0.05572 0.0
C1613 C 0.12786 0.14256 0.0114 0.0
C1614 C 0.15174 0.22938 0.04524 0.0
C1615 C 0.15348 0.23712 0.0179 0.0
H1616 H 0.85116 0.87693 0.95951 0.0
H1617 H 0.9476 0.85219 0.95161 0.0
H1618 H 0.95285 0.84986 0.99975 0.0
H1619 H 0.93009 0.86587 0.04432 0.0
H1620 H 0.83374 0.89785 0.04988 0.0
H1621 H 0.82853 0.88709 1.00263 0.0
C1622 C 0.87337 0.87039 0.96825 0.0
C1623 C 0.89898 0.86528 0.95196 0.0
C1624 C 0.87626 0.87125 0.99569 0.0
C1625 C 0.92748 0.856 0.96366 0.0
C1626 C 0.93049 0.85529 0.99122 0.0
C1627 C 0.90795 0.86941 0.03516 0.0
C1628 C 0.88236 0.88275 0.05072 0.0
C1629 C 0.90509 0.86447 0.00749 0.0
C1630 C 0.85386 0.88792 0.03849 0.0
C1631 C 0.85079 0.88171 0.01139 0.0
H1632 H 0.11368 0.93148 0.46015 0.0
H1633 H 0.1821 0.79628 0.45381 0.0
H1634 H 0.18393 0.78708 0.50194 0.0
H1635 H 0.16901 0.82443 0.54612 0.0
H1636 H 0.10317 0.96498 0.55163 0.0
H1637 H 0.09705 0.96515 0.50387 0.0
C1638 C 0.12847 0.89922 0.46943 0.0
C1639 C 0.14738 0.86387 0.45376 0.0
C1640 C 0.12991 0.89549 0.49702 0.0
C1641 C 0.16709 0.82325 0.46572 0.0
C1642 C 0.16821 0.81825 0.49317 0.0
C1643 C 0.15277 0.85376 0.53677 0.0
C1644 C 0.13618 0.89401 0.55223 0.0
C1645 C 0.15008 0.85487 0.5091 0.0
C1646 C 0.11587 0.93321 0.54 0.0
C1647 C 0.11249 0.93356 0.51272 0.0
H1648 H 0.85696 0.16775 0.54158 0.0
H1649 H 0.95363 0.17093 0.55349 0.0
H1650 H 0.96169 0.17359 0.50578 0.0
H1651 H 0.94073 0.16505 0.46022 0.0
H1652 H 0.84354 0.15816 0.45014 0.0
H1653 H 0.83626 0.16619 0.49729 0.0
C1654 C 0.8798 0.16919 0.53373 0.0
C1655 C 0.9046 0.16877 0.55098 0.0
C1656 C 0.88417 0.16946 0.50646 0.0
C1657 C 0.93409 0.17194 0.54061 0.0
C1658 C 0.93871 0.17287 0.51329 0.0
C1659 C 0.91806 0.16637 0.46843 0.0
C1660 C 0.89275 0.16006 0.45175 0.0
C1661 C 0.91389 0.17038 0.49594 0.0
C1662 C 0.86344 0.16185 0.46259 0.0
C1663 C 0.85917 0.1666 0.48958 0.0
H1664 H 0.68824 0.65461 0.04808 0.0
H1665 H 0.59275 0.69172 0.05458 0.0
H1666 H 0.58875 0.6992 0.00659 0.0
H1667 H 0.61215 0.68741 0.96223 0.0
H1668 H 0.70831 0.6531 0.95725 0.0
H1669 H 0.71215 0.65191 1.00484 0.0
C1670 C 0.66658 0.66479 0.039 0.0
C1671 C 0.64083 0.67244 0.05488 0.0
C1672 C 0.66451 0.66911 0.01149 0.0
C1673 C 0.613 0.68624 0.04285 0.0
C1674 C 0.61067 0.69011 0.01535 0.0
C1675 C 0.63401 0.68102 0.97158 0.0
C1676 C 0.6598 0.66953 0.956 0.0
C1677 C 0.63624 0.68079 0.99936 0.0
C1678 C 0.68794 0.66113 0.96859 0.0
C1679 C 0.69025 0.6605 0.99591 0.0
H1680 H 0.35225 0.39896 0.96121 0.0
H1681 H 0.44683 0.35375 0.95386 0.0
H1682 H 0.45102 0.34642 1.00195 0.0
H1683 H 0.42821 0.3611 0.04653 0.0
H1684 H 0.33344 0.40806 0.05182 0.0
H1685 H 0.32919 0.4074 1.00429 0.0
C1686 C 0.37384 0.38722 0.97002 0.0
C1687 C 0.39927 0.37757 0.9539 0.0
C1688 C 0.37613 0.38406 0.99749 0.0
C1689 C 0.42686 0.36136 0.96576 0.0
C1690 C 0.42929 0.35755 0.9933 0.0
C1691 C 0.40657 0.3702 0.03724 0.0
C1692 C 0.38129 0.38534 0.0529 0.0
C1693 C 0.40415 0.3699 0.00946 0.0
C1694 C 0.35342 0.39715 0.04043 0.0
C1695 C 0.35087 0.39662 0.01315 0.0
H1696 H 0.61245 0.36141 0.46454 0.0
H1697 H 0.70574 0.41741 0.45845 0.0
H1698 H 0.71189 0.40976 0.50581 0.0
H1699 H 0.69053 0.39224 0.54921 0.0
H1700 H 0.59714 0.33839 0.55682 0.0
H1701 H 0.5916 0.33796 0.50892 0.0
C1702 C 0.63416 0.37115 0.47363 0.0
C1703 C 0.65843 0.39118 0.458 0.0
C1704 C 0.6376 0.36679 0.50123 0.0
C1705 C 0.68646 0.40351 0.47006 0.0
C1706 C 0.6901 0.39873 0.49718 0.0
C1707 C 0.6689 0.38041 0.54047 0.0
C1708 C 0.64416 0.36658 0.55674 0.0
C1709 C 0.66573 0.38146 0.513 0.0
C1710 C 0.61658 0.3497 0.5449 0.0
C1711 C 0.61334 0.34973 0.51743 0.0
H1712 H 0.43471 0.68178 0.54517 0.0
H1713 H 0.33752 0.66458 0.5515 0.0
H1714 H 0.33205 0.67965 0.50445 0.0
H1715 H 0.35464 0.68841 0.46088 0.0
H1716 H 0.4518 0.69436 0.45284 0.0
H1717 H 0.45751 0.69475 0.5007 0.0
C1718 C 0.41238 0.68233 0.53622 0.0
C1719 C 0.38656 0.6724 0.55193 0.0
C1720 C 0.40936 0.68888 0.50867 0.0
C1721 C 0.35778 0.6722 0.53997 0.0
C1722 C 0.35458 0.68072 0.51298 0.0
C1723 C 0.3771 0.69047 0.46958 0.0
C1724 C 0.40272 0.6913 0.45317 0.0
C1725 C 0.3802 0.68776 0.49706 0.0
C1726 C 0.43162 0.69455 0.46483 0.0
C1727 C 0.4349 0.69392 0.49231 0.0
H1728 H 0.96858 1.00282 0.15647 0.0
H1729 H 0.96183 0.98741 0.07211 0.0
H1730 H 1.01449 1.01834 0.06746 0.0
H1731 H 0.0624 0.05134 0.08661 0.0
H1732 H 0.07019 0.07695 0.17021 0.0
H1733 H 1.01768 0.04141 0.17601 0.0
C1734 C 0.97893 1.0052 0.13718 0.0
C1735 C 0.96147 0.99046 0.11461 0.0
C1736 C 1.00935 0.02593 0.13449 0.0
C1737 C 0.97486 0.99681 0.08973 0.0
C1738 C 1.00498 1.01492 0.08704 0.0
C1739 C 0.05252 0.04969 0.10613 0.0
C1740 C 0.07007 0.06808 0.12784 0.0
C1741 C 0.02238 0.02997 0.10916 0.0
C1742 C 0.05703 0.06464 0.15304 0.0
C1743 C 0.02702 0.04373 0.15634 0.0
H1744 H 0.97366 1.02136 0.34517 0.0
H1745 H 0.9686 0.09927 0.42243 0.0
H1746 H 0.02131 0.07144 0.43099 0.0
H1747 H 0.068 1.01893 0.41777 0.0
H1748 H 0.07519 0.94764 0.33938 0.0
H1749 H 0.02294 0.97826 0.32999 0.0
C1750 C 0.9845 0.03405 0.3635 0.0
C1751 C 0.9675 0.065 0.3827 0.0
C1752 C 1.01506 1.01744 0.36834 0.0
C1753 C 0.98143 0.07792 0.40692 0.0
C1754 C 1.01153 0.06127 0.41193 0.0
C1755 C 0.05816 1.01007 0.3986 0.0
C1756 C 0.07519 0.97813 0.37979 0.0
C1757 C 0.02842 0.03003 0.39301 0.0
C1758 C 0.06231 0.96928 0.35473 0.0
C1759 C 0.03244 0.98758 0.34924 0.0
H1760 H 0.06613 0.03314 0.84023 0.0
H1761 H 0.08087 0.07836 0.9214 0.0
H1762 H 0.02882 0.04976 0.9321 0.0
H1763 H 0.97895 1.00986 0.91849 0.0
H1764 H 0.96282 0.96971 0.8368 0.0
H1765 H 1.01491 0.99822 0.82609 0.0
C1766 C 0.05772 0.03756 0.86017 0.0
C1767 C 0.07737 0.05891 0.88003 0.0
C1768 C 0.0274 1.0213 0.86606 0.0
C1769 C 0.0663 0.0627 0.90584 0.0
C1770 C 0.03645 0.04627 0.91191 0.0
C1771 C 0.98687 1.00718 0.89834 0.0
C1772 C 0.96714 0.9853 0.87868 0.0
C1773 C 1.0168 0.02506 0.89223 0.0
C1774 C 0.97763 0.98398 0.85255 0.0
C1775 C 1.00746 1.00097 0.84636 0.0
H1776 H 0.97747 0.04517 0.66579 0.0
H1777 H 0.95949 0.07189 0.58342 0.0
H1778 H 1.01155 0.04229 0.57268 0.0
H1779 H 0.06206 1.00607 0.58669 0.0
H1780 H 0.08091 0.98447 0.66913 0.0
H1781 H 0.02919 1.01539 0.68003 0.0
C1782 C 0.98521 0.04547 0.64556 0.0
C1783 C 0.96495 0.0623 0.62546 0.0
C1784 C 1.0153 0.02862 0.63958 0.0
C1785 C 0.97495 0.06092 0.59925 0.0
C1786 C 1.00464 0.04342 0.59312 0.0
C1787 C 0.05468 1.0076 0.60702 0.0
C1788 C 0.07501 0.99056 0.62706 0.0
C1789 C 0.02496 0.02661 0.61308 0.0
C1790 C 0.06549 0.99532 0.65333 0.0
C1791 C 0.03592 1.0134 0.65955 0.0
H1792 H 0.46708 0.52761 0.0876 0.0
H1793 H 0.46276 0.46472 0.16737 0.0
H1794 H 0.5151 0.49812 0.17501 0.0
H1795 H 0.56348 0.54301 0.15809 0.0
H1796 H 0.56632 0.60463 0.078 0.0
H1797 H 0.51356 0.57511 0.07154 0.0
C1798 C 0.4776 0.52112 0.10668 0.0
C1799 C 0.46117 0.49198 0.12659 0.0
C1800 C 0.50758 0.54106 0.11096 0.0
C1801 C 0.47504 0.48522 0.15138 0.0
C1802 C 0.50499 0.50485 0.15581 0.0
C1803 C 0.5522 0.55126 0.13949 0.0
C1804 C 0.56859 0.57806 0.11875 0.0
C1805 C 0.52167 0.53263 0.13567 0.0
C1806 C 0.55403 0.58586 0.09443 0.0
C1807 C 0.52389 0.56842 0.09066 0.0
H1808 H 0.48408 0.56144 0.42188 0.0
H1809 H 0.46369 0.57569 0.33927 0.0
H1810 H 0.51477 0.54051 0.32835 0.0
H1811 H 0.5661 0.50708 0.34238 0.0
H1812 H 0.58693 0.49662 0.42498 0.0
H1813 H 0.53528 0.52876 0.43585 0.0
C1814 C 0.49092 0.55707 0.40149 0.0
C1815 C 0.47024 0.57266 0.38144 0.0
C1816 C 0.52048 0.53686 0.39537 0.0
C1817 C 0.47929 0.56557 0.35511 0.0
C1818 C 0.5085 0.54498 0.34885 0.0
C1819 C 0.55904 0.51072 0.36274 0.0
C1820 C 0.57992 0.49663 0.38289 0.0
C1821 C 0.52937 0.53056 0.36881 0.0
C1822 C 0.57096 0.50467 0.40917 0.0
C1823 C 0.54148 0.52361 0.41536 0.0
H1824 H 0.47845 0.50327 0.92313 0.0
H1825 H 0.46815 0.4851 0.83933 0.0
H1826 H 0.52082 0.51858 0.83297 0.0
H1827 H 0.57092 0.55255 0.85195 0.0
H1828 H 0.5802 0.56202 0.93629 0.0
H1829 H 0.52736 0.53296 0.9417 0.0
C1830 C 0.4878 0.50625 0.90344 0.0
C1831 C 0.46947 0.49056 0.88182 0.0
C1832 C 0.51812 0.52475 0.90005 0.0
C1833 C 0.48187 0.49549 0.85641 0.0
C1834 C 0.51201 0.51514 0.85278 0.0
C1835 C 0.56111 0.54924 0.87142 0.0
C1836 C 0.57935 0.56165 0.89376 0.0
C1837 C 0.5305 0.53006 0.87451 0.0
C1838 C 0.56658 0.55426 0.91884 0.0
C1839 C 0.53634 0.5373 0.92197 0.0
H1840 H 0.47204 0.54685 0.65656 0.0
H1841 H 0.46564 0.56861 0.57253 0.0
H1842 H 0.51793 0.53568 0.56737 0.0
H1843 H 0.56528 0.49772 0.58601 0.0
H1844 H 0.57216 0.46691 0.66929 0.0
H1845 H 0.52044 0.50499 0.67549 0.0
C1846 C 0.48243 0.5456 0.63726 0.0
C1847 C 0.4652 0.56258 0.61496 0.0
C1848 C 0.51256 0.52368 0.63423 0.0
C1849 C 0.47857 0.55755 0.59 0.0
C1850 C 0.50846 0.53823 0.587 0.0
C1851 C 0.5554 0.49902 0.60553 0.0
C1852 C 0.57255 0.47834 0.62702 0.0
C1853 C 0.5256 0.5206 0.60886 0.0
C1854 C 0.55942 0.48107 0.65224 0.0
C1855 C 0.52981 0.5035 0.65581 0.0
H1856 H 0.20222 0.69954 0.11325 0.0
H1857 H 0.15086 0.78023 0.17598 0.0
H1858 H 0.12522 0.68607 0.18438 0.0
H1859 H 0.11682 0.58185 0.1734 0.0
H1860 H 0.16535 0.50298 0.10835 0.0
H1861 H 0.19357 0.59471 0.10211 0.0
C1862 C 0.18574 0.6961 0.12899 0.0
C1863 C 0.17851 0.74637 0.14408 0.0
C1864 C 0.17074 0.64217 0.13342 0.0
C1865 C 0.15669 0.74193 0.1641 0.0
C1866 C 0.14207 0.68821 0.16892 0.0
C1867 C 0.13326 0.58477 0.15763 0.0
C1868 C 0.13876 0.53537 0.1414 0.0
C1869 C 0.14872 0.63824 0.15353 0.0
C1870 C 0.16085 0.53979 0.12149 0.0
C1871 C 0.17686 0.59249 0.1177 0.0
H1872 H 0.83281 0.36464 0.14344 0.0
H1873 H 0.91128 0.27586 0.11131 0.0
H1874 H 0.93935 0.36905 0.11169 0.0
H1875 H 0.94136 0.47593 0.12023 0.0
H1876 H 0.86282 0.56499 0.15202 0.0
H1877 H 0.8346 0.4719 0.15145 0.0
C1878 C 0.85592 0.36573 0.13619 0.0
C1879 C 0.86984 0.31317 0.12739 0.0
C1880 C 0.87182 0.41964 0.13607 0.0
C1881 C 0.90006 0.31535 0.11858 0.0
C1882 C 0.9161 0.36875 0.11858 0.0
C1883 C 0.91819 0.4749 0.12734 0.0
C1884 C 0.90435 0.52738 0.13627 0.0
C1885 C 0.9022 0.42112 0.12727 0.0
C1886 C 0.87401 0.52544 0.1448 0.0
C1887 C 0.8579 0.4721 0.14467 0.0
H1888 H 0.19 0.33749 0.40822 0.0
H1889 H 0.15106 0.26815 0.33646 0.0
H1890 H 0.12592 0.36268 0.32847 0.0
H1891 H 0.11546 0.46515 0.3415 0.0
H1892 H 0.1539 0.53443 0.41348 0.0
H1893 H 0.17989 0.44055 0.42106 0.0
C1894 C 0.17632 0.34329 0.39067 0.0
C1895 C 0.17243 0.2958 0.37301 0.0
C1896 C 0.16213 0.39791 0.38604 0.0
C1897 C 0.15413 0.30371 0.35059 0.0
C1898 C 0.13991 0.35788 0.34588 0.0
C1899 C 0.12925 0.45956 0.359 0.0
C1900 C 0.13256 0.5067 0.37693 0.0
C1901 C 0.14371 0.4052 0.3635 0.0
C1902 C 0.15117 0.49912 0.39918 0.0
C1903 C 0.16586 0.44528 0.40367 0.0
H1904 H 0.94631 0.56711 0.35271 0.0
H1905 H 0.85995 0.48108 0.33924 0.0
H1906 H 0.83391 0.57418 0.34812 0.0
H1907 H 0.83552 0.68123 0.35794 0.0
H1908 H 0.92207 0.76777 0.36878 0.0
H1909 H 0.94807 0.67395 0.36076 0.0
C1910 C 0.92182 0.56841 0.3511 0.0
C1911 C 0.90542 0.51616 0.34511 0.0
C1912 C 0.90692 0.62279 0.35518 0.0
C1913 C 0.8735 0.51955 0.34421 0.0
C1914 C 0.85848 0.57325 0.34895 0.0
C1915 C 0.86008 0.67959 0.35873 0.0
C1916 C 0.87672 0.73178 0.36413 0.0
C1917 C 0.87496 0.62525 0.35427 0.0
C1918 C 0.90858 0.72875 0.36445 0.0
C1919 C 0.92351 0.67488 0.36011 0.0
H1920 H 0.85787 0.35194 0.91346 0.0
H1921 H 0.88302 0.27819 0.83809 0.0
H1922 H 0.90592 0.37231 0.82554 0.0
H1923 H 0.91842 0.47561 0.83568 0.0
H1924 H 0.89321 0.54977 0.91092 0.0
H1925 H 0.86938 0.4562 0.92322 0.0
C1926 C 0.86798 0.35663 0.89415 0.0
C1927 C 0.86876 0.30789 0.87683 0.0
C1928 C 0.88079 0.41114 0.88687 0.0
C1929 C 0.8825 0.31458 0.85204 0.0
C1930 C 0.89542 0.36855 0.84473 0.0
C1931 C 0.90802 0.47116 0.85489 0.0
C1932 C 0.90786 0.51955 0.87239 0.0
C1933 C 0.89476 0.41703 0.86201 0.0
C1934 C 0.89351 0.51344 0.89694 0.0
C1935 C 0.88006 0.45978 0.9041 0.0
H1936 H 0.10176 0.57531 0.8679 0.0
H1937 H 0.18762 0.48675 0.85713 0.0
H1938 H 0.21447 0.57934 0.86625 0.0
H1939 H 0.21347 0.68607 0.87588 0.0
H1940 H 0.12749 0.77432 0.88676 0.0
H1941 H 0.10077 0.68159 0.87797 0.0
C1942 C 0.12633 0.5764 0.86722 0.0
C1943 C 0.14261 0.52424 0.86171 0.0
C1944 C 0.14161 0.62985 0.87221 0.0
C1945 C 0.17451 0.52614 0.86155 0.0
C1946 C 0.18989 0.57914 0.86659 0.0
C1947 C 0.18891 0.6849 0.87665 0.0
C1948 C 0.17257 0.73716 0.88195 0.0
C1949 C 0.17365 0.6313 0.87185 0.0
C1950 C 0.14068 0.735 0.88238 0.0
C1951 C 0.12535 0.6819 0.87753 0.0
H1952 H 0.91547 0.70984 0.58413 0.0
H1953 H 0.82807 0.76314 0.61372 0.0
H1954 H 0.82059 0.66429 0.6327 0.0
H1955 H 0.8379 0.56177 0.63866 0.0
H1956 H 0.92749 0.51159 0.61226 0.0
H1957 H 0.93446 0.6095 0.59319 0.0
C1958 C 0.89485 0.69975 0.59485 0.0
C1959 C 0.87222 0.74333 0.59735 0.0
C1960 C 0.89085 0.64317 0.60579 0.0
C1961 C 0.84581 0.73025 0.61162 0.0
C1962 C 0.84147 0.67369 0.62228 0.0
C1963 C 0.85928 0.57225 0.62927 0.0
C1964 C 0.88206 0.52854 0.62699 0.0
C1965 C 0.86372 0.62962 0.61922 0.0
C1966 C 0.90917 0.54329 0.61394 0.0
C1967 C 0.91339 0.59973 0.60326 0.0
H1968 H 0.15659 0.36068 0.60235 0.0
H1969 H 0.11336 0.27977 0.66917 0.0
H1970 H 0.11066 0.37641 0.69135 0.0
H1971 H 0.11829 0.48378 0.69046 0.0
H1972 H 0.16725 0.5628 0.62569 0.0
H1973 H 0.16892 0.46732 0.60351 0.0
C1974 C 0.14678 0.36453 0.62184 0.0
C1975 C 0.13492 0.31403 0.63418 0.0
C1976 C 0.14578 0.41981 0.63453 0.0
C1977 C 0.12254 0.31857 0.65947 0.0
C1978 C 0.1209 0.37367 0.67202 0.0
C1979 C 0.12991 0.48038 0.67177 0.0
C1980 C 0.14218 0.53138 0.65982 0.0
C1981 C 0.13216 0.42467 0.65958 0.0
C1982 C 0.15659 0.52532 0.6352 0.0
C1983 C 0.15799 0.47034 0.62255 0.0
H1984 H 0.59288 0.07405 0.14753 0.0
H1985 H 0.67784 0.99959 0.1738 0.0
H1986 H 0.70385 0.09203 0.16341 0.0
H1987 H 0.70229 0.19464 0.14784 0.0
H1988 H 0.61744 0.26897 0.12119 0.0
H1989 H 0.59139 0.1766 0.13169 0.0
C1990 C 0.61698 0.07838 0.15136 0.0
C1991 C 0.63331 0.03012 0.16151 0.0
C1992 C 0.6318 0.13174 0.14549 0.0
C1993 C 0.66473 0.03596 0.1658 0.0
C1994 C 0.67963 0.08886 0.15998 0.0
C1995 C 0.67819 0.19036 0.14397 0.0
C1996 C 0.6619 0.23859 0.13373 0.0
C1997 C 0.66338 0.13701 0.14981 0.0
C1998 C 0.63051 0.23273 0.12935 0.0
C1999 C 0.61559 0.17984 0.13522 0.0
H2000 H 0.34313 0.84941 0.1059 0.0
H2001 H 0.3938 0.7824 0.17223 0.0
H2002 H 0.41991 0.87728 0.17658 0.0
H2003 H 0.42771 0.97965 0.16216 0.0
H2004 H 0.37729 0.04663 0.09567 0.0
H2005 H 0.35063 0.95225 0.09172 0.0
C2006 C 0.35961 0.85571 0.12152 0.0
C2007 C 0.36643 0.80869 0.13868 0.0
C2008 C 0.37429 0.91065 0.12415 0.0
C2009 C 0.38835 0.81741 0.15847 0.0
C2010 C 0.40315 0.87186 0.16113 0.0
C2011 C 0.41115 0.97349 0.14659 0.0
C2012 C 0.40472 1.02025 0.12918 0.0
C2013 C 0.39628 0.91876 0.14409 0.0
C2014 C 0.38255 1.01179 0.10957 0.0
C2015 C 0.36744 0.95759 0.10712 0.0
H2016 H 0.60331 0.9789 0.39176 0.0
H2017 H 0.6844 0.06589 0.36412 0.0
H2018 H 0.71291 0.97372 0.36902 0.0
H2019 H 0.71402 0.86728 0.3789 0.0
H2020 H 0.63281 0.78067 0.40673 0.0
H2021 H 0.60485 0.87354 0.4031 0.0
C2022 C 0.62715 0.97752 0.38658 0.0
C2023 C 0.64165 0.02893 0.37741 0.0
C2024 C 0.64328 0.92437 0.38917 0.0
C2025 C 0.67275 0.02693 0.37139 0.0
C2026 C 0.68902 0.9742 0.37403 0.0
C2027 C 0.69035 0.86891 0.3846 0.0
C2028 C 0.67555 0.81704 0.39299 0.0
C2029 C 0.67443 0.92254 0.38268 0.0
C2030 C 0.64468 0.81974 0.39984 0.0
C2031 C 0.62868 0.87288 0.39792 0.0
H2032 H 0.32645 0.04698 0.36127 0.0
H2033 H 0.42208 0.03835 0.37868 0.0
H2034 H 0.42172 0.14364 0.39124 0.0
H2035 H 0.39384 0.23948 0.39588 0.0
H2036 H 0.29872 0.2451 0.37601 0.0
H2037 H 0.29951 0.14001 0.36479 0.0
C2038 C 0.34735 0.06803 0.36762 0.0
C2039 C 0.37432 0.035 0.36869 0.0
C2040 C 0.34712 0.1284 0.37392 0.0
C2041 C 0.40095 0.06272 0.37776 0.0
C2042 C 0.40082 0.12307 0.38465 0.0
C2043 C 0.37351 0.21759 0.38874 0.0
C2044 C 0.34622 0.24968 0.38682 0.0
C2045 C 0.37407 0.15664 0.38243 0.0
C2046 C 0.31989 0.22102 0.37777 0.0
C2047 C 0.32029 0.161 0.37146 0.0
H2048 H 0.3384 0.8622 0.86912 0.0
H2049 H 0.42102 0.77564 0.89371 0.0
H2050 H 0.44862 0.86892 0.8896 0.0
H2051 H 0.44917 0.97529 0.87987 0.0
H2052 H 0.36655 0.06196 0.8554 0.0
H2053 H 0.33884 0.96883 0.85979 0.0
C2054 C 0.36235 0.86383 0.87391 0.0
C2055 C 0.37754 0.8119 0.88171 0.0
C2056 C 0.37805 0.91775 0.87183 0.0
C2057 C 0.40878 0.81468 0.88731 0.0
C2058 C 0.42458 0.86812 0.88516 0.0
C2059 C 0.42518 0.9737 0.8752 0.0
C2060 C 0.41006 0.02555 0.86722 0.0
C2061 C 0.40944 0.91989 0.87744 0.0
C2062 C 0.37876 1.02293 0.86185 0.0
C2063 C 0.3629 0.96957 0.86416 0.0
H2064 H 0.70828 0.18683 0.86575 0.0
H2065 H 0.62887 0.27564 0.89607 0.0
H2066 H 0.60078 0.18249 0.89497 0.0
H2067 H 0.599 0.07559 0.88639 0.0
H2068 H 0.6784 0.9866 0.85619 0.0
H2069 H 0.70662 0.07963 0.8575 0.0
C2070 C 0.68495 0.18576 0.87243 0.0
C2071 C 0.67079 0.23833 0.88096 0.0
C2072 C 0.669 0.13187 0.87212 0.0
C2073 C 0.64029 0.23616 0.88903 0.0
C2074 C 0.62423 0.18278 0.88862 0.0
C2075 C 0.62236 0.0766 0.87978 0.0
C2076 C 0.63643 1.02409 0.87113 0.0
C2077 C 0.63837 0.13039 0.88022 0.0
C2078 C 0.66701 0.0261 0.86324 0.0
C2079 C 0.68314 0.07942 0.86377 0.0
H2080 H 0.44478 0.07669 0.6216 0.0
H2081 H 0.36494 0.9881 0.651 0.0
H2082 H 0.33663 0.08094 0.64901 0.0
H2083 H 0.33522 0.1881 0.64071 0.0
H2084 H 0.41525 0.27656 0.61152 0.0
H2085 H 0.4432 0.18335 0.61283 0.0
C2086 C 0.4213 0.07777 0.62786 0.0
C2087 C 0.4071 0.02548 0.6365 0.0
C2088 C 0.4053 0.13146 0.62711 0.0
C2089 C 0.37638 0.02748 0.64395 0.0
C2090 C 0.36023 0.08069 0.64304 0.0
C2091 C 0.35865 0.1869 0.63431 0.0
C2092 C 0.37306 0.23936 0.62606 0.0
C2093 C 0.37453 0.13301 0.63481 0.0
C2094 C 0.40367 0.23711 0.61833 0.0
C2095 C 0.41963 0.18372 0.61887 0.0
H2096 H 0.68593 0.83892 0.6042 0.0
H2097 H 0.64586 0.76945 0.67521 0.0
H2098 H 0.62054 0.86394 0.683 0.0
H2099 H 0.61053 0.96673 0.67021 0.0
H2100 H 0.65053 0.03631 0.5992 0.0
H2101 H 0.6763 0.94214 0.59163 0.0
C2102 C 0.67199 0.8446 0.62157 0.0
C2103 C 0.66788 0.797 0.63906 0.0
C2104 C 0.65779 0.89933 0.62616 0.0
C2105 C 0.64915 0.80494 0.66118 0.0
C2106 C 0.63482 0.85915 0.66579 0.0
C2107 C 0.6246 0.96118 0.65291 0.0
C2108 C 0.6284 1.00858 0.63527 0.0
C2109 C 0.639 0.90663 0.64843 0.0
C2110 C 0.64739 1.0009 0.6133 0.0
C2111 C 0.66197 0.94686 0.60881 0.0
loop_
_geom_bond_atom_site_label_1
_geom_bond_atom_site_label_2
_geom_bond_distance
_geom_bond_site_symmetry_2
_ccdc_geom_bond_type
Tb0 N31 2.660 . S
Tb0 N38 2.600 . S
Tb0 O44 2.546 1_545 S
Tb0 O45 2.610 . S
Tb0 O47 2.320 . S
Tb0 O48 2.552 . S
Tb0 O49 2.413 1_545 S
Tb0 O51 2.362 . S
Tb0 O52 2.421 . S
Tb0 C64 2.833 1_545 S
C1 C4 1.432 . S
C1 C5 1.414 . S
C1 N8 1.359 . S
C2 C4 1.417 . S
C2 C6 1.432 1_455 S
C2 C14 1.410 1_455 S
C3 C5 1.444 1_655 S
C3 C6 1.317 . S
C3 H26 0.929 . S
C4 C1 1.432 . S
C4 C2 1.417 . S
C4 N12 1.360 . S
C5 C1 1.414 . S
C5 C3 1.444 1_455 S
C5 C10 1.385 . S
C6 C2 1.432 1_655 S
C6 C3 1.317 . S
C6 H18 0.930 . S
C7 C9 1.392 . S
C7 C10 1.370 . S
C7 H19 0.931 . S
N8 C1 1.359 . S
N8 C9 1.327 . S
N8 Tb11 2.600 . S
C9 C7 1.392 . S
C9 N8 1.327 . S
C9 H16 0.930 . S
C10 C5 1.385 . S
C10 C7 1.370 . S
C10 H29 0.930 . S
Tb11 N8 2.600 . S
Tb11 N12 2.660 . S
Tb11 O45 2.362 . S
Tb11 O46 2.421 . S
Tb11 O50 2.546 . S
Tb11 O51 2.610 . S
Tb11 O53 2.320 . S
Tb11 O54 2.552 . S
Tb11 O55 2.413 . S
Tb11 C75 2.833 . S
N12 C4 1.360 . S
N12 Tb11 2.660 . S
N12 C13 1.305 . S
C13 N12 1.305 . S
C13 C15 1.407 . S
C13 H20 0.930 . S
C14 C2 1.410 1_655 S
C14 C15 1.345 1_655 S
C14 H22 0.930 . S
C15 C13 1.407 . S
C15 C14 1.345 1_455 S
C15 H17 0.930 . S
H16 C9 0.930 . S
H17 C15 0.930 . S
H18 C6 0.930 . S
H19 C7 0.931 . S
H20 C13 0.930 . S
H21 C35 0.930 . S
H22 C14 0.930 . S
H23 C41 0.930 . S
H24 C32 0.930 . S
H25 C39 0.931 . S
H26 C3 0.929 . S
H27 C33 0.930 . S
H28 C66 0.930 . S
H29 C10 0.930 . S
H30 C65 0.929 . S
N31 Tb0 2.660 . S
N31 C32 1.305 . S
N31 C36 1.360 . S
C32 H24 0.930 . S
C32 N31 1.305 . S
C32 C35 1.407 . S
C33 H27 0.930 . S
C33 C34 1.410 . S
C33 C35 1.345 . S
C34 C33 1.410 . S
C34 C36 1.417 . S
C34 C66 1.432 . S
C35 H21 0.930 . S
C35 C32 1.407 . S
C35 C33 1.345 . S
C36 N31 1.360 . S
C36 C34 1.417 . S
C36 C40 1.432 . S
H37 C42 0.925 1_565 S
N38 Tb0 2.600 . S
N38 C40 1.359 . S
N38 C41 1.327 . S
C39 H25 0.931 . S
C39 C41 1.392 . S
C39 C42 1.370 . S
C40 C36 1.432 . S
C40 N38 1.359 . S
C40 C43 1.414 . S
C41 H23 0.930 . S
C41 N38 1.327 . S
C41 C39 1.392 . S
C42 H37 0.925 1_545 S
C42 C39 1.370 . S
C42 C43 1.385 . S
C43 C40 1.414 . S
C43 C42 1.385 . S
C43 C65 1.444 . S
O44 Tb0 2.546 1_565 S
O44 C64 1.251 . S
O45 Tb0 2.610 . S
O45 Tb11 2.362 . S
O45 C56 1.283 . S
O46 Tb11 2.421 . S
O46 C63 1.262 . S
O47 Tb0 2.320 . S
O47 C63 1.260 . S
O48 Tb0 2.552 . S
O48 C56 1.243 . S
O49 Tb0 2.413 1_565 S
O49 C64 1.256 . S
O50 Tb11 2.546 . S
O50 C75 1.251 . S
O51 Tb0 2.362 . S
O51 Tb11 2.610 . S
O51 C67 1.283 . S
O52 Tb0 2.421 . S
O52 C74 1.262 . S
O53 Tb11 2.320 . S
O53 C74 1.260 . S
O54 Tb11 2.552 . S
O54 C67 1.243 . S
O55 Tb11 2.413 . S
O55 C75 1.256 . S
C56 O45 1.283 . S
C56 O48 1.243 . S
C57 C59 1.382 . S
C57 C61 1.393 . S
C57 C64 1.500 . S
C58 C59 1.400 . S
C58 C60 1.384 . S
C59 C57 1.382 . S
C59 C58 1.400 . S
C59 H76 0.930 . S
C60 C58 1.384 . S
C60 C62 1.392 . S
C60 H77 0.931 . S
C61 C57 1.393 . S
C61 C62 1.401 . S
C61 H78 0.930 . S
C62 C60 1.392 . S
C62 C61 1.401 . S
C62 H79 0.930 . S
C63 O46 1.262 . S
C63 O47 1.260 . S
C64 Tb0 2.833 1_565 S
C64 O44 1.251 . S
C64 O49 1.256 . S
C64 C57 1.500 . S
C65 H30 0.929 . S
C65 C43 1.444 . S
C65 C66 1.317 . S
C66 H28 0.930 . S
C66 C34 1.432 . S
C66 C65 1.317 . S
C67 O51 1.283 . S
C67 O54 1.243 . S
C68 C69 1.382 . S
C68 C72 1.393 . S
C68 C75 1.500 . S
C69 C68 1.382 . S
C69 C70 1.400 . S
C69 H80 0.930 . S
C70 C69 1.400 . S
C70 C71 1.384 . S
C71 C70 1.384 . S
C71 C73 1.392 . S
C71 H81 0.931 . S
C72 C68 1.393 . S
C72 C73 1.401 . S
C72 H82 0.930 . S
C73 C71 1.392 . S
C73 C72 1.401 . S
C73 H83 0.930 . S
C74 O52 1.262 . S
C74 O53 1.260 . S
C75 Tb11 2.833 . S
C75 O50 1.251 . S
C75 O55 1.256 . S
C75 C68 1.500 . S
H76 C59 0.930 . S
H77 C60 0.931 . S
H78 C61 0.930 . S
H79 C62 0.930 . S
H80 C69 0.930 . S
H81 C71 0.931 . S
H82 C72 0.930 . S
H83 C73 0.930 . S
Tb84 N115 2.660 . S
Tb84 N122 2.600 . S
Tb84 O128 2.546 1_565 S
Tb84 O129 2.610 . S
Tb84 O131 2.320 . S
Tb84 O132 2.552 . S
Tb84 O133 2.413 1_565 S
Tb84 O135 2.362 . S
Tb84 O136 2.421 . S
Tb84 C148 2.833 1_565 S
C85 C88 1.432 . S
C85 C89 1.414 . S
C85 N92 1.359 . S
C86 C88 1.417 . S
C86 C90 1.432 1_655 S
C86 C98 1.410 1_655 S
C87 C89 1.444 1_455 S
C87 C90 1.317 . S
C87 H110 0.929 . S
C88 C85 1.432 . S
C88 C86 1.417 . S
C88 N96 1.360 . S
C89 C85 1.414 . S
C89 C87 1.444 1_655 S
C89 C94 1.385 . S
C90 C86 1.432 1_455 S
C90 C87 1.317 . S
C90 H102 0.930 . S
C91 C93 1.392 . S
C91 C94 1.370 . S
C91 H103 0.931 . S
N92 C85 1.359 . S
N92 C93 1.327 . S
N92 Tb95 2.600 . S
C93 C91 1.392 . S
C93 N92 1.327 . S
C93 H100 0.930 . S
C94 C89 1.385 . S
C94 C91 1.370 . S
C94 H113 0.930 . S
Tb95 N92 2.600 . S
Tb95 N96 2.660 . S
Tb95 O129 2.362 . S
Tb95 O130 2.421 . S
Tb95 O134 2.546 . S
Tb95 O135 2.610 . S
Tb95 O137 2.320 . S
Tb95 O138 2.552 . S
Tb95 O139 2.413 . S
Tb95 C159 2.833 . S
N96 C88 1.360 . S
N96 Tb95 2.660 . S
N96 C97 1.305 . S
C97 N96 1.305 . S
C97 C99 1.407 . S
C97 H104 0.930 . S
C98 C86 1.410 1_455 S
C98 C99 1.345 1_455 S
C98 H106 0.930 . S
C99 C97 1.407 . S
C99 C98 1.345 1_655 S
C99 H101 0.930 . S
H100 C93 0.930 . S
H101 C99 0.930 . S
H102 C90 0.930 . S
H103 C91 0.931 . S
H104 C97 0.930 . S
H105 C119 0.930 . S
H106 C98 0.930 . S
H107 C125 0.930 . S
H108 C116 0.930 . S
H109 C123 0.931 . S
H110 C87 0.929 . S
H111 C117 0.930 . S
H112 C150 0.930 . S
H113 C94 0.930 . S
H114 C149 0.929 . S
N115 Tb84 2.660 . S
N115 C116 1.305 . S
N115 C120 1.360 . S
C116 H108 0.930 . S
C116 N115 1.305 . S
C116 C119 1.407 . S
C117 H111 0.930 . S
C117 C118 1.410 . S
C117 C119 1.345 . S
C118 C117 1.410 . S
C118 C120 1.417 . S
C118 C150 1.432 . S
C119 H105 0.930 . S
C119 C116 1.407 . S
C119 C117 1.345 . S
C120 N115 1.360 . S
C120 C118 1.417 . S
C120 C124 1.432 . S
H121 C126 0.925 1_545 S
N122 Tb84 2.600 . S
N122 C124 1.359 . S
N122 C125 1.327 . S
C123 H109 0.931 . S
C123 C125 1.392 . S
C123 C126 1.370 . S
C124 C120 1.432 . S
C124 N122 1.359 . S
C124 C127 1.414 . S
C125 H107 0.930 . S
C125 N122 1.327 . S
C125 C123 1.392 . S
C126 H121 0.925 1_565 S
C126 C123 1.370 . S
C126 C127 1.385 . S
C127 C124 1.414 . S
C127 C126 1.385 . S
C127 C149 1.444 . S
O128 Tb84 2.546 1_545 S
O128 C148 1.251 . S
O129 Tb84 2.610 . S
O129 Tb95 2.362 . S
O129 C140 1.283 . S
O130 Tb95 2.421 . S
O130 C147 1.262 . S
O131 Tb84 2.320 . S
O131 C147 1.260 . S
O132 Tb84 2.552 . S
O132 C140 1.243 . S
O133 Tb84 2.413 1_545 S
O133 C148 1.256 . S
O134 Tb95 2.546 . S
O134 C159 1.251 . S
O135 Tb84 2.362 . S
O135 Tb95 2.610 . S
O135 C151 1.283 . S
O136 Tb84 2.421 . S
O136 C158 1.262 . S
O137 Tb95 2.320 . S
O137 C158 1.260 . S
O138 Tb95 2.552 . S
O138 C151 1.243 . S
O139 Tb95 2.413 . S
O139 C159 1.256 . S
C140 O129 1.283 . S
C140 O132 1.243 . S
C141 C143 1.382 . S
C141 C145 1.393 . S
C141 C148 1.500 . S
C142 C143 1.400 . S
C142 C144 1.384 . S
C143 C141 1.382 . S
C143 C142 1.400 . S
C143 H160 0.930 . S
C144 C142 1.384 . S
C144 C146 1.392 . S
C144 H161 0.931 . S
C145 C141 1.393 . S
C145 C146 1.401 . S
C145 H162 0.930 . S
C146 C144 1.392 . S
C146 C145 1.401 . S
C146 H163 0.930 . S
C147 O130 1.262 . S
C147 O131 1.260 . S
C148 Tb84 2.833 1_545 S
C148 O128 1.251 . S
C148 O133 1.256 . S
C148 C141 1.500 . S
C149 H114 0.929 . S
C149 C127 1.444 . S
C149 C150 1.317 . S
C150 H112 0.930 . S
C150 C118 1.432 . S
C150 C149 1.317 . S
C151 O135 1.283 . S
C151 O138 1.243 . S
C152 C153 1.382 . S
C152 C156 1.393 . S
C152 C159 1.500 . S
C153 C152 1.382 . S
C153 C154 1.400 . S
C153 H164 0.930 . S
C154 C153 1.400 . S
C154 C155 1.384 . S
C155 C154 1.384 . S
C155 C157 1.392 . S
C155 H165 0.931 . S
C156 C152 1.393 . S
C156 C157 1.401 . S
C156 H166 0.930 . S
C157 C155 1.392 . S
C157 C156 1.401 . S
C157 H167 0.930 . S
C158 O136 1.262 . S
C158 O137 1.260 . S
C159 Tb95 2.833 . S
C159 O134 1.251 . S
C159 O139 1.256 . S
C159 C152 1.500 . S
H160 C143 0.930 . S
H161 C144 0.931 . S
H162 C145 0.930 . S
H163 C146 0.930 . S
H164 C153 0.930 . S
H165 C155 0.931 . S
H166 C156 0.930 . S
H167 C157 0.930 . S
Tb168 N199 2.660 . S
Tb168 N206 2.600 . S
Tb168 O212 2.546 1_565 S
Tb168 O213 2.610 . S
Tb168 O215 2.320 . S
Tb168 O216 2.552 . S
Tb168 O217 2.413 1_565 S
Tb168 O219 2.362 . S
Tb168 O220 2.421 . S
Tb168 C232 2.833 1_565 S
C169 C172 1.432 . S
C169 C173 1.414 . S
C169 N176 1.359 . S
C170 C172 1.417 . S
C170 C174 1.432 1_455 S
C170 C182 1.410 1_455 S
C171 C173 1.444 1_655 S
C171 C174 1.317 . S
C171 H194 0.929 . S
C172 C169 1.432 . S
C172 C170 1.417 . S
C172 N180 1.360 . S
C173 C169 1.414 . S
C173 C171 1.444 1_455 S
C173 C178 1.385 . S
C174 C170 1.432 1_655 S
C174 C171 1.317 . S
C174 H186 0.930 . S
C175 C177 1.392 . S
C175 C178 1.370 . S
C175 H187 0.931 . S
N176 C169 1.359 . S
N176 C177 1.327 . S
N176 Tb179 2.600 . S
C177 C175 1.392 . S
C177 N176 1.327 . S
C177 H184 0.930 . S
C178 C173 1.385 . S
C178 C175 1.370 . S
C178 H197 0.930 . S
Tb179 N176 2.600 . S
Tb179 N180 2.660 . S
Tb179 O213 2.362 . S
Tb179 O214 2.421 . S
Tb179 O218 2.546 . S
Tb179 O219 2.610 . S
Tb179 O221 2.320 . S
Tb179 O222 2.552 . S
Tb179 O223 2.413 . S
Tb179 C243 2.833 . S
N180 C172 1.360 . S
N180 Tb179 2.660 . S
N180 C181 1.305 . S
C181 N180 1.305 . S
C181 C183 1.407 . S
C181 H188 0.930 . S
C182 C170 1.410 1_655 S
C182 C183 1.345 1_655 S
C182 H190 0.930 . S
C183 C181 1.407 . S
C183 C182 1.345 1_455 S
C183 H185 0.930 . S
H184 C177 0.930 . S
H185 C183 0.930 . S
H186 C174 0.930 . S
H187 C175 0.931 . S
H188 C181 0.930 . S
H189 C203 0.930 . S
H190 C182 0.930 . S
H191 C209 0.930 . S
H192 C200 0.930 . S
H193 C207 0.931 . S
H194 C171 0.929 . S
H195 C201 0.930 . S
H196 C234 0.930 . S
H197 C178 0.930 . S
H198 C233 0.929 . S
N199 Tb168 2.660 . S
N199 C200 1.305 . S
N199 C204 1.360 . S
C200 H192 0.930 . S
C200 N199 1.305 . S
C200 C203 1.407 . S
C201 H195 0.930 . S
C201 C202 1.410 . S
C201 C203 1.345 . S
C202 C201 1.410 . S
C202 C204 1.417 . S
C202 C234 1.432 . S
C203 H189 0.930 . S
C203 C200 1.407 . S
C203 C201 1.345 . S
C204 N199 1.360 . S
C204 C202 1.417 . S
C204 C208 1.432 . S
H205 C210 0.925 1_545 S
N206 Tb168 2.600 . S
N206 C208 1.359 . S
N206 C209 1.327 . S
C207 H193 0.931 . S
C207 C209 1.392 . S
C207 C210 1.370 . S
C208 C204 1.432 . S
C208 N206 1.359 . S
C208 C211 1.414 . S
C209 H191 0.930 . S
C209 N206 1.327 . S
C209 C207 1.392 . S
C210 H205 0.925 1_565 S
C210 C207 1.370 . S
C210 C211 1.385 . S
C211 C208 1.414 . S
C211 C210 1.385 . S
C211 C233 1.444 . S
O212 Tb168 2.546 1_545 S
O212 C232 1.251 . S
O213 Tb168 2.610 . S
O213 Tb179 2.362 . S
O213 C224 1.283 . S
O214 Tb179 2.421 . S
O214 C231 1.262 . S
O215 Tb168 2.320 . S
O215 C231 1.260 . S
O216 Tb168 2.552 . S
O216 C224 1.243 . S
O217 Tb168 2.413 1_545 S
O217 C232 1.256 . S
O218 Tb179 2.546 . S
O218 C243 1.251 . S
O219 Tb168 2.362 . S
O219 Tb179 2.610 . S
O219 C235 1.283 . S
O220 Tb168 2.421 . S
O220 C242 1.262 . S
O221 Tb179 2.320 . S
O221 C242 1.260 . S
O222 Tb179 2.552 . S
O222 C235 1.243 . S
O223 Tb179 2.413 . S
O223 C243 1.256 . S
C224 O213 1.283 . S
C224 O216 1.243 . S
C225 C227 1.382 . S
C225 C229 1.393 . S
C225 C232 1.500 . S
C226 C227 1.400 . S
C226 C228 1.384 . S
C227 C225 1.382 . S
C227 C226 1.400 . S
C227 H244 0.930 . S
C228 C226 1.384 . S
C228 C230 1.392 . S
C228 H245 0.931 . S
C229 C225 1.393 . S
C229 C230 1.401 . S
C229 H246 0.930 . S
C230 C228 1.392 . S
C230 C229 1.401 . S
C230 H247 0.930 . S
C231 O214 1.262 . S
C231 O215 1.260 . S
C232 Tb168 2.833 1_545 S
C232 O212 1.251 . S
C232 O217 1.256 . S
C232 C225 1.500 . S
C233 H198 0.929 . S
C233 C211 1.444 . S
C233 C234 1.317 . S
C234 H196 0.930 . S
C234 C202 1.432 . S
C234 C233 1.317 . S
C235 O219 1.283 . S
C235 O222 1.243 . S
C236 C237 1.382 . S
C236 C240 1.393 . S
C236 C243 1.500 . S
C237 C236 1.382 . S
C237 C238 1.400 . S
C237 H248 0.930 . S
C238 C237 1.400 . S
C238 C239 1.384 . S
C239 C238 1.384 . S
C239 C241 1.392 . S
C239 H249 0.931 . S
C240 C236 1.393 . S
C240 C241 1.401 . S
C240 H250 0.930 . S
C241 C239 1.392 . S
C241 C240 1.401 . S
C241 H251 0.930 . S
C242 O220 1.262 . S
C242 O221 1.260 . S
C243 Tb179 2.833 . S
C243 O218 1.251 . S
C243 O223 1.256 . S
C243 C236 1.500 . S
H244 C227 0.930 . S
H245 C228 0.931 . S
H246 C229 0.930 . S
H247 C230 0.930 . S
H248 C237 0.930 . S
H249 C239 0.931 . S
H250 C240 0.930 . S
H251 C241 0.930 . S
Tb252 N283 2.660 . S
Tb252 N290 2.600 . S
Tb252 O296 2.546 1_545 S
Tb252 O297 2.610 . S
Tb252 O299 2.320 . S
Tb252 O300 2.552 . S
Tb252 O301 2.413 1_545 S
Tb252 O303 2.362 . S
Tb252 O304 2.421 . S
Tb252 C316 2.833 1_545 S
C253 C256 1.432 . S
C253 C257 1.414 . S
C253 N260 1.359 . S
C254 C256 1.417 . S
C254 C258 1.432 1_655 S
C254 C266 1.410 1_655 S
C255 C257 1.444 1_455 S
C255 C258 1.317 . S
C255 H278 0.929 . S
C256 C253 1.432 . S
C256 C254 1.417 . S
C256 N264 1.360 . S
C257 C253 1.414 . S
C257 C255 1.444 1_655 S
C257 C262 1.385 . S
C258 C254 1.432 1_455 S
C258 C255 1.317 . S
C258 H270 0.930 . S
C259 C261 1.392 . S
C259 C262 1.370 . S
C259 H271 0.931 . S
N260 C253 1.359 . S
N260 C261 1.327 . S
N260 Tb263 2.600 . S
C261 C259 1.392 . S
C261 N260 1.327 . S
C261 H268 0.930 . S
C262 C257 1.385 . S
C262 C259 1.370 . S
C262 H281 0.930 . S
Tb263 N260 2.600 . S
Tb263 N264 2.660 . S
Tb263 O297 2.362 . S
Tb263 O298 2.421 . S
Tb263 O302 2.546 . S
Tb263 O303 2.610 . S
Tb263 O305 2.320 . S
Tb263 O306 2.552 . S
Tb263 O307 2.413 . S
Tb263 C327 2.833 . S
N264 C256 1.360 . S
N264 Tb263 2.660 . S
N264 C265 1.305 . S
C265 N264 1.305 . S
C265 C267 1.407 . S
C265 H272 0.930 . S
C266 C254 1.410 1_455 S
C266 C267 1.345 1_455 S
C266 H274 0.930 . S
C267 C265 1.407 . S
C267 C266 1.345 1_655 S
C267 H269 0.930 . S
H268 C261 0.930 . S
H269 C267 0.930 . S
H270 C258 0.930 . S
H271 C259 0.931 . S
H272 C265 0.930 . S
H273 C287 0.930 . S
H274 C266 0.930 . S
H275 C293 0.930 . S
H276 C284 0.930 . S
H277 C291 0.931 . S
H278 C255 0.929 . S
H279 C285 0.930 . S
H280 C318 0.930 . S
H281 C262 0.930 . S
H282 C317 0.929 . S
N283 Tb252 2.660 . S
N283 C284 1.305 . S
N283 C288 1.360 . S
C284 H276 0.930 . S
C284 N283 1.305 . S
C284 C287 1.407 . S
C285 H279 0.930 . S
C285 C286 1.410 . S
C285 C287 1.345 . S
C286 C285 1.410 . S
C286 C288 1.417 . S
C286 C318 1.432 . S
C287 H273 0.930 . S
C287 C284 1.407 . S
C287 C285 1.345 . S
C288 N283 1.360 . S
C288 C286 1.417 . S
C288 C292 1.432 . S
H289 C294 0.925 1_565 S
N290 Tb252 2.600 . S
N290 C292 1.359 . S
N290 C293 1.327 . S
C291 H277 0.931 . S
C291 C293 1.392 . S
C291 C294 1.370 . S
C292 C288 1.432 . S
C292 N290 1.359 . S
C292 C295 1.414 . S
C293 H275 0.930 . S
C293 N290 1.327 . S
C293 C291 1.392 . S
C294 H289 0.925 1_545 S
C294 C291 1.370 . S
C294 C295 1.385 . S
C295 C292 1.414 . S
C295 C294 1.385 . S
C295 C317 1.444 . S
O296 Tb252 2.546 1_565 S
O296 C316 1.251 . S
O297 Tb252 2.610 . S
O297 Tb263 2.362 . S
O297 C308 1.283 . S
O298 Tb263 2.421 . S
O298 C315 1.262 . S
O299 Tb252 2.320 . S
O299 C315 1.260 . S
O300 Tb252 2.552 . S
O300 C308 1.243 . S
O301 Tb252 2.413 1_565 S
O301 C316 1.256 . S
O302 Tb263 2.546 . S
O302 C327 1.251 . S
O303 Tb252 2.362 . S
O303 Tb263 2.610 . S
O303 C319 1.283 . S
O304 Tb252 2.421 . S
O304 C326 1.262 . S
O305 Tb263 2.320 . S
O305 C326 1.260 . S
O306 Tb263 2.552 . S
O306 C319 1.243 . S
O307 Tb263 2.413 . S
O307 C327 1.256 . S
C308 O297 1.283 . S
C308 O300 1.243 . S
C309 C311 1.382 . S
C309 C313 1.393 . S
C309 C316 1.500 . S
C310 C311 1.400 . S
C310 C312 1.384 . S
C311 C309 1.382 . S
C311 C310 1.400 . S
C311 H328 0.930 . S
C312 C310 1.384 . S
C312 C314 1.392 . S
C312 H329 0.931 . S
C313 C309 1.393 . S
C313 C314 1.401 . S
C313 H330 0.930 . S
C314 C312 1.392 . S
C314 C313 1.401 . S
C314 H331 0.930 . S
C315 O298 1.262 . S
C315 O299 1.260 . S
C316 Tb252 2.833 1_565 S
C316 O296 1.251 . S
C316 O301 1.256 . S
C316 C309 1.500 . S
C317 H282 0.929 . S
C317 C295 1.444 . S
C317 C318 1.317 . S
C318 H280 0.930 . S
C318 C286 1.432 . S
C318 C317 1.317 . S
C319 O303 1.283 . S
C319 O306 1.243 . S
C320 C321 1.382 . S
C320 C324 1.393 . S
C320 C327 1.500 . S
C321 C320 1.382 . S
C321 C322 1.400 . S
C321 H332 0.930 . S
C322 C321 1.400 . S
C322 C323 1.384 . S
C323 C322 1.384 . S
C323 C325 1.392 . S
C323 H333 0.931 . S
C324 C320 1.393 . S
C324 C325 1.401 . S
C324 H334 0.930 . S
C325 C323 1.392 . S
C325 C324 1.401 . S
C325 H335 0.930 . S
C326 O304 1.262 . S
C326 O305 1.260 . S
C327 Tb263 2.833 . S
C327 O302 1.251 . S
C327 O307 1.256 . S
C327 C320 1.500 . S
H328 C311 0.930 . S
H329 C312 0.931 . S
H330 C313 0.930 . S
H331 C314 0.930 . S
H332 C321 0.930 . S
H333 C323 0.931 . S
H334 C324 0.930 . S
H335 C325 0.930 . S
Tb336 N367 2.660 . S
Tb336 N374 2.600 . S
Tb336 O380 2.546 . S
Tb336 O381 2.610 . S
Tb336 O383 2.320 . S
Tb336 O384 2.552 . S
Tb336 O385 2.413 . S
Tb336 O387 2.362 . S
Tb336 O388 2.421 . S
Tb336 C400 2.833 . S
C337 C340 1.432 . S
C337 C341 1.414 . S
C337 N344 1.359 . S
C338 C340 1.417 . S
C338 C342 1.432 . S
C338 C350 1.410 . S
C339 C341 1.444 . S
C339 C342 1.317 . S
C339 H362 0.929 . S
C340 C337 1.432 . S
C340 C338 1.417 . S
C340 N348 1.360 . S
C341 C337 1.414 . S
C341 C339 1.444 . S
C341 C346 1.385 . S
C342 C338 1.432 . S
C342 C339 1.317 . S
C342 H354 0.930 . S
C343 C345 1.392 . S
C343 C346 1.370 . S
C343 H355 0.931 . S
N344 C337 1.359 . S
N344 C345 1.327 . S
N344 Tb347 2.600 . S
C345 C343 1.392 . S
C345 N344 1.327 . S
C345 H352 0.930 . S
C346 C341 1.385 . S
C346 C343 1.370 . S
C346 H365 0.925 1_565 S
Tb347 N344 2.600 . S
Tb347 N348 2.660 . S
Tb347 O381 2.362 . S
Tb347 O382 2.421 . S
Tb347 O386 2.546 1_565 S
Tb347 O387 2.610 . S
Tb347 O389 2.320 . S
Tb347 O390 2.552 . S
Tb347 O391 2.413 1_565 S
Tb347 C411 2.833 1_565 S
N348 C340 1.360 . S
N348 Tb347 2.660 . S
N348 C349 1.305 . S
C349 N348 1.305 . S
C349 C351 1.407 . S
C349 H356 0.930 . S
C350 C338 1.410 . S
C350 C351 1.345 . S
C350 H358 0.930 . S
C351 C349 1.407 . S
C351 C350 1.345 . S
C351 H353 0.930 . S
H352 C345 0.930 . S
H353 C351 0.930 . S
H354 C342 0.930 . S
H355 C343 0.931 . S
H356 C349 0.930 . S
H357 C371 0.930 . S
H358 C350 0.930 . S
H359 C377 0.930 . S
H360 C368 0.930 . S
H361 C375 0.931 . S
H362 C339 0.929 . S
H363 C369 0.930 . S
H364 C402 0.930 . S
H365 C346 0.925 1_545 S
H366 C401 0.929 . S
N367 Tb336 2.660 . S
N367 C368 1.305 . S
N367 C372 1.360 . S
C368 H360 0.930 . S
C368 N367 1.305 . S
C368 C371 1.407 . S
C369 H363 0.930 . S
C369 C370 1.410 1_455 S
C369 C371 1.345 1_455 S
C370 C369 1.410 1_655 S
C370 C372 1.417 . S
C370 C402 1.432 1_655 S
C371 H357 0.930 . S
C371 C368 1.407 . S
C371 C369 1.345 1_655 S
C372 N367 1.360 . S
C372 C370 1.417 . S
C372 C376 1.432 . S
H373 C378 0.930 . S
N374 Tb336 2.600 . S
N374 C376 1.359 . S
N374 C377 1.327 . S
C375 H361 0.931 . S
C375 C377 1.392 . S
C375 C378 1.370 . S
C376 C372 1.432 . S
C376 N374 1.359 . S
C376 C379 1.414 . S
C377 H359 0.930 . S
C377 N374 1.327 . S
C377 C375 1.392 . S
C378 H373 0.930 . S
C378 C375 1.370 . S
C378 C379 1.385 . S
C379 C376 1.414 . S
C379 C378 1.385 . S
C379 C401 1.444 1_655 S
O380 Tb336 2.546 . S
O380 C400 1.251 . S
O381 Tb336 2.610 . S
O381 Tb347 2.362 . S
O381 C392 1.283 . S
O382 Tb347 2.421 . S
O382 C399 1.262 . S
O383 Tb336 2.320 . S
O383 C399 1.260 . S
O384 Tb336 2.552 . S
O384 C392 1.243 . S
O385 Tb336 2.413 . S
O385 C400 1.256 . S
O386 Tb347 2.546 1_545 S
O386 C411 1.251 . S
O387 Tb336 2.362 . S
O387 Tb347 2.610 . S
O387 C403 1.283 . S
O388 Tb336 2.421 . S
O388 C410 1.262 . S
O389 Tb347 2.320 . S
O389 C410 1.260 . S
O390 Tb347 2.552 . S
O390 C403 1.243 . S
O391 Tb347 2.413 1_545 S
O391 C411 1.256 . S
C392 O381 1.283 . S
C392 O384 1.243 . S
C393 C395 1.382 . S
C393 C397 1.393 . S
C393 C400 1.500 . S
C394 C395 1.400 . S
C394 C396 1.384 . S
C395 C393 1.382 . S
C395 C394 1.400 . S
C395 H412 0.930 . S
C396 C394 1.384 . S
C396 C398 1.392 . S
C396 H413 0.931 . S
C397 C393 1.393 . S
C397 C398 1.401 . S
C397 H414 0.930 . S
C398 C396 1.392 . S
C398 C397 1.401 . S
C398 H415 0.930 . S
C399 O382 1.262 . S
C399 O383 1.260 . S
C400 Tb336 2.833 . S
C400 O380 1.251 . S
C400 O385 1.256 . S
C400 C393 1.500 . S
C401 H366 0.929 . S
C401 C379 1.444 1_455 S
C401 C402 1.317 . S
C402 H364 0.930 . S
C402 C370 1.432 1_455 S
C402 C401 1.317 . S
C403 O387 1.283 . S
C403 O390 1.243 . S
C404 C405 1.382 . S
C404 C408 1.393 . S
C404 C411 1.500 . S
C405 C404 1.382 . S
C405 C406 1.400 . S
C405 H416 0.930 . S
C406 C405 1.400 . S
C406 C407 1.384 . S
C407 C406 1.384 . S
C407 C409 1.392 . S
C407 H417 0.931 . S
C408 C404 1.393 . S
C408 C409 1.401 . S
C408 H418 0.930 . S
C409 C407 1.392 . S
C409 C408 1.401 . S
C409 H419 0.930 . S
C410 O388 1.262 . S
C410 O389 1.260 . S
C411 Tb347 2.833 1_545 S
C411 O386 1.251 . S
C411 O391 1.256 . S
C411 C404 1.500 . S
H412 C395 0.930 . S
H413 C396 0.931 . S
H414 C397 0.930 . S
H415 C398 0.930 . S
H416 C405 0.930 . S
H417 C407 0.931 . S
H418 C408 0.930 . S
H419 C409 0.930 . S
Tb420 N451 2.660 . S
Tb420 N458 2.600 . S
Tb420 O464 2.546 . S
Tb420 O465 2.610 . S
Tb420 O467 2.320 . S
Tb420 O468 2.552 . S
Tb420 O469 2.413 . S
Tb420 O471 2.362 . S
Tb420 O472 2.421 . S
Tb420 C484 2.833 . S
C421 C424 1.432 . S
C421 C425 1.414 . S
C421 N428 1.359 . S
C422 C424 1.417 . S
C422 C426 1.432 . S
C422 C434 1.410 . S
C423 C425 1.444 . S
C423 C426 1.317 . S
C423 H446 0.929 . S
C424 C421 1.432 . S
C424 C422 1.417 . S
C424 N432 1.360 . S
C425 C421 1.414 . S
C425 C423 1.444 . S
C425 C430 1.385 . S
C426 C422 1.432 . S
C426 C423 1.317 . S
C426 H438 0.930 . S
C427 C429 1.392 . S
C427 C430 1.370 . S
C427 H439 0.931 . S
N428 C421 1.359 . S
N428 C429 1.327 . S
N428 Tb431 2.600 . S
C429 C427 1.392 . S
C429 N428 1.327 . S
C429 H436 0.930 . S
C430 C425 1.385 . S
C430 C427 1.370 . S
C430 H449 0.925 1_545 S
Tb431 N428 2.600 . S
Tb431 N432 2.660 . S
Tb431 O465 2.362 . S
Tb431 O466 2.421 . S
Tb431 O470 2.546 1_545 S
Tb431 O471 2.610 . S
Tb431 O473 2.320 . S
Tb431 O474 2.552 . S
Tb431 O475 2.413 1_545 S
Tb431 C495 2.833 1_545 S
N432 C424 1.360 . S
N432 Tb431 2.660 . S
N432 C433 1.305 . S
C433 N432 1.305 . S
C433 C435 1.407 . S
C433 H440 0.930 . S
C434 C422 1.410 . S
C434 C435 1.345 . S
C434 H442 0.930 . S
C435 C433 1.407 . S
C435 C434 1.345 . S
C435 H437 0.930 . S
H436 C429 0.930 . S
H437 C435 0.930 . S
H438 C426 0.930 . S
H439 C427 0.931 . S
H440 C433 0.930 . S
H441 C455 0.930 . S
H442 C434 0.930 . S
H443 C461 0.930 . S
H444 C452 0.930 . S
H445 C459 0.931 . S
H446 C423 0.929 . S
H447 C453 0.930 . S
H448 C486 0.930 . S
H449 C430 0.925 1_565 S
H450 C485 0.929 . S
N451 Tb420 2.660 . S
N451 C452 1.305 . S
N451 C456 1.360 . S
C452 H444 0.930 . S
C452 N451 1.305 . S
C452 C455 1.407 . S
C453 H447 0.930 . S
C453 C454 1.410 1_655 S
C453 C455 1.345 1_655 S
C454 C453 1.410 1_455 S
C454 C456 1.417 . S
C454 C486 1.432 1_455 S
C455 H441 0.930 . S
C455 C452 1.407 . S
C455 C453 1.345 1_455 S
C456 N451 1.360 . S
C456 C454 1.417 . S
C456 C460 1.432 . S
H457 C462 0.930 . S
N458 Tb420 2.600 . S
N458 C460 1.359 . S
N458 C461 1.327 . S
C459 H445 0.931 . S
C459 C461 1.392 . S
C459 C462 1.370 . S
C460 C456 1.432 . S
C460 N458 1.359 . S
C460 C463 1.414 . S
C461 H443 0.930 . S
C461 N458 1.327 . S
C461 C459 1.392 . S
C462 H457 0.930 . S
C462 C459 1.370 . S
C462 C463 1.385 . S
C463 C460 1.414 . S
C463 C462 1.385 . S
C463 C485 1.444 1_455 S
O464 Tb420 2.546 . S
O464 C484 1.251 . S
O465 Tb420 2.610 . S
O465 Tb431 2.362 . S
O465 C476 1.283 . S
O466 Tb431 2.421 . S
O466 C483 1.262 . S
O467 Tb420 2.320 . S
O467 C483 1.260 . S
O468 Tb420 2.552 . S
O468 C476 1.243 . S
O469 Tb420 2.413 . S
O469 C484 1.256 . S
O470 Tb431 2.546 1_565 S
O470 C495 1.251 . S
O471 Tb420 2.362 . S
O471 Tb431 2.610 . S
O471 C487 1.283 . S
O472 Tb420 2.421 . S
O472 C494 1.262 . S
O473 Tb431 2.320 . S
O473 C494 1.260 . S
O474 Tb431 2.552 . S
O474 C487 1.243 . S
O475 Tb431 2.413 1_565 S
O475 C495 1.256 . S
C476 O465 1.283 . S
C476 O468 1.243 . S
C477 C479 1.382 . S
C477 C481 1.393 . S
C477 C484 1.500 . S
C478 C479 1.400 . S
C478 C480 1.384 . S
C479 C477 1.382 . S
C479 C478 1.400 . S
C479 H496 0.930 . S
C480 C478 1.384 . S
C480 C482 1.392 . S
C480 H497 0.931 . S
C481 C477 1.393 . S
C481 C482 1.401 . S
C481 H498 0.930 . S
C482 C480 1.392 . S
C482 C481 1.401 . S
C482 H499 0.930 . S
C483 O466 1.262 . S
C483 O467 1.260 . S
C484 Tb420 2.833 . S
C484 O464 1.251 . S
C484 O469 1.256 . S
C484 C477 1.500 . S
C485 H450 0.929 . S
C485 C463 1.444 1_655 S
C485 C486 1.317 . S
C486 H448 0.930 . S
C486 C454 1.432 1_655 S
C486 C485 1.317 . S
C487 O471 1.283 . S
C487 O474 1.243 . S
C488 C489 1.382 . S
C488 C492 1.393 . S
C488 C495 1.500 . S
C489 C488 1.382 . S
C489 C490 1.400 . S
C489 H500 0.930 . S
C490 C489 1.400 . S
C490 C491 1.384 . S
C491 C490 1.384 . S
C491 C493 1.392 . S
C491 H501 0.931 . S
C492 C488 1.393 . S
C492 C493 1.401 . S
C492 H502 0.930 . S
C493 C491 1.392 . S
C493 C492 1.401 . S
C493 H503 0.930 . S
C494 O472 1.262 . S
C494 O473 1.260 . S
C495 Tb431 2.833 1_565 S
C495 O470 1.251 . S
C495 O475 1.256 . S
C495 C488 1.500 . S
H496 C479 0.930 . S
H497 C480 0.931 . S
H498 C481 0.930 . S
H499 C482 0.930 . S
H500 C489 0.930 . S
H501 C491 0.931 . S
H502 C492 0.930 . S
H503 C493 0.930 . S
Tb504 N535 2.660 . S
Tb504 N542 2.600 . S
Tb504 O548 2.546 . S
Tb504 O549 2.610 . S
Tb504 O551 2.320 . S
Tb504 O552 2.552 . S
Tb504 O553 2.413 . S
Tb504 O555 2.362 . S
Tb504 O556 2.421 . S
Tb504 C568 2.833 . S
C505 C508 1.432 . S
C505 C509 1.414 . S
C505 N512 1.359 . S
C506 C508 1.417 . S
C506 C510 1.432 . S
C506 C518 1.410 . S
C507 C509 1.444 . S
C507 C510 1.317 . S
C507 H530 0.929 . S
C508 C505 1.432 . S
C508 C506 1.417 . S
C508 N516 1.360 . S
C509 C505 1.414 . S
C509 C507 1.444 . S
C509 C514 1.385 . S
C510 C506 1.432 . S
C510 C507 1.317 . S
C510 H522 0.930 . S
C511 C513 1.392 . S
C511 C514 1.370 . S
C511 H523 0.931 . S
N512 C505 1.359 . S
N512 C513 1.327 . S
N512 Tb515 2.600 . S
C513 C511 1.392 . S
C513 N512 1.327 . S
C513 H520 0.930 . S
C514 C509 1.385 . S
C514 C511 1.370 . S
C514 H533 0.925 1_545 S
Tb515 N512 2.600 . S
Tb515 N516 2.660 . S
Tb515 O549 2.362 . S
Tb515 O550 2.421 . S
Tb515 O554 2.546 1_545 S
Tb515 O555 2.610 . S
Tb515 O557 2.320 . S
Tb515 O558 2.552 . S
Tb515 O559 2.413 1_545 S
Tb515 C579 2.833 1_545 S
N516 C508 1.360 . S
N516 Tb515 2.660 . S
N516 C517 1.305 . S
C517 N516 1.305 . S
C517 C519 1.407 . S
C517 H524 0.930 . S
C518 C506 1.410 . S
C518 C519 1.345 . S
C518 H526 0.930 . S
C519 C517 1.407 . S
C519 C518 1.345 . S
C519 H521 0.930 . S
H520 C513 0.930 . S
H521 C519 0.930 . S
H522 C510 0.930 . S
H523 C511 0.931 . S
H524 C517 0.930 . S
H525 C539 0.930 . S
H526 C518 0.930 . S
H527 C545 0.930 . S
H528 C536 0.930 . S
H529 C543 0.931 . S
H530 C507 0.929 . S
H531 C537 0.930 . S
H532 C570 0.930 . S
H533 C514 0.925 1_565 S
H534 C569 0.929 . S
N535 Tb504 2.660 . S
N535 C536 1.305 . S
N535 C540 1.360 . S
C536 H528 0.930 . S
C536 N535 1.305 . S
C536 C539 1.407 . S
C537 H531 0.930 . S
C537 C538 1.410 1_455 S
C537 C539 1.345 1_455 S
C538 C537 1.410 1_655 S
C538 C540 1.417 . S
C538 C570 1.432 1_655 S
C539 H525 0.930 . S
C539 C536 1.407 . S
C539 C537 1.345 1_655 S
C540 N535 1.360 . S
C540 C538 1.417 . S
C540 C544 1.432 . S
H541 C546 0.930 . S
N542 Tb504 2.600 . S
N542 C544 1.359 . S
N542 C545 1.327 . S
C543 H529 0.931 . S
C543 C545 1.392 . S
C543 C546 1.370 . S
C544 C540 1.432 . S
C544 N542 1.359 . S
C544 C547 1.414 . S
C545 H527 0.930 . S
C545 N542 1.327 . S
C545 C543 1.392 . S
C546 H541 0.930 . S
C546 C543 1.370 . S
C546 C547 1.385 . S
C547 C544 1.414 . S
C547 C546 1.385 . S
C547 C569 1.444 1_655 S
O548 Tb504 2.546 . S
O548 C568 1.251 . S
O549 Tb504 2.610 . S
O549 Tb515 2.362 . S
O549 C560 1.283 . S
O550 Tb515 2.421 . S
O550 C567 1.262 . S
O551 Tb504 2.320 . S
O551 C567 1.260 . S
O552 Tb504 2.552 . S
O552 C560 1.243 . S
O553 Tb504 2.413 . S
O553 C568 1.256 . S
O554 Tb515 2.546 1_565 S
O554 C579 1.251 . S
O555 Tb504 2.362 . S
O555 Tb515 2.610 . S
O555 C571 1.283 . S
O556 Tb504 2.421 . S
O556 C578 1.262 . S
O557 Tb515 2.320 . S
O557 C578 1.260 . S
O558 Tb515 2.552 . S
O558 C571 1.243 . S
O559 Tb515 2.413 1_565 S
O559 C579 1.256 . S
C560 O549 1.283 . S
C560 O552 1.243 . S
C561 C563 1.382 . S
C561 C565 1.393 . S
C561 C568 1.500 . S
C562 C563 1.400 . S
C562 C564 1.384 . S
C563 C561 1.382 . S
C563 C562 1.400 . S
C563 H580 0.930 . S
C564 C562 1.384 . S
C564 C566 1.392 . S
C564 H581 0.931 . S
C565 C561 1.393 . S
C565 C566 1.401 . S
C565 H582 0.930 . S
C566 C564 1.392 . S
C566 C565 1.401 . S
C566 H583 0.930 . S
C567 O550 1.262 . S
C567 O551 1.260 . S
C568 Tb504 2.833 . S
C568 O548 1.251 . S
C568 O553 1.256 . S
C568 C561 1.500 . S
C569 H534 0.929 . S
C569 C547 1.444 1_455 S
C569 C570 1.317 . S
C570 H532 0.930 . S
C570 C538 1.432 1_455 S
C570 C569 1.317 . S
C571 O555 1.283 . S
C571 O558 1.243 . S
C572 C573 1.382 . S
C572 C576 1.393 . S
C572 C579 1.500 . S
C573 C572 1.382 . S
C573 C574 1.400 . S
C573 H584 0.930 . S
C574 C573 1.400 . S
C574 C575 1.384 . S
C575 C574 1.384 . S
C575 C577 1.392 . S
C575 H585 0.931 . S
C576 C572 1.393 . S
C576 C577 1.401 . S
C576 H586 0.930 . S
C577 C575 1.392 . S
C577 C576 1.401 . S
C577 H587 0.930 . S
C578 O556 1.262 . S
C578 O557 1.260 . S
C579 Tb515 2.833 1_565 S
C579 O554 1.251 . S
C579 O559 1.256 . S
C579 C572 1.500 . S
H580 C563 0.930 . S
H581 C564 0.931 . S
H582 C565 0.930 . S
H583 C566 0.930 . S
H584 C573 0.930 . S
H585 C575 0.931 . S
H586 C576 0.930 . S
H587 C577 0.930 . S
Tb588 N619 2.660 . S
Tb588 N626 2.600 . S
Tb588 O632 2.546 . S
Tb588 O633 2.610 . S
Tb588 O635 2.320 . S
Tb588 O636 2.552 . S
Tb588 O637 2.413 . S
Tb588 O639 2.362 . S
Tb588 O640 2.421 . S
Tb588 C652 2.833 . S
C589 C592 1.432 . S
C589 C593 1.414 . S
C589 N596 1.359 . S
C590 C592 1.417 . S
C590 C594 1.432 . S
C590 C602 1.410 . S
C591 C593 1.444 . S
C591 C594 1.317 . S
C591 H614 0.929 . S
C592 C589 1.432 . S
C592 C590 1.417 . S
C592 N600 1.360 . S
C593 C589 1.414 . S
C593 C591 1.444 . S
C593 C598 1.385 . S
C594 C590 1.432 . S
C594 C591 1.317 . S
C594 H606 0.930 . S
C595 C597 1.392 . S
C595 C598 1.370 . S
C595 H607 0.931 . S
N596 C589 1.359 . S
N596 C597 1.327 . S
N596 Tb599 2.600 . S
C597 C595 1.392 . S
C597 N596 1.327 . S
C597 H604 0.930 . S
C598 C593 1.385 . S
C598 C595 1.370 . S
C598 H617 0.925 1_565 S
Tb599 N596 2.600 . S
Tb599 N600 2.660 . S
Tb599 O633 2.362 . S
Tb599 O634 2.421 . S
Tb599 O638 2.546 1_565 S
Tb599 O639 2.610 . S
Tb599 O641 2.320 . S
Tb599 O642 2.552 . S
Tb599 O643 2.413 1_565 S
Tb599 C663 2.833 1_565 S
N600 C592 1.360 . S
N600 Tb599 2.660 . S
N600 C601 1.305 . S
C601 N600 1.305 . S
C601 C603 1.407 . S
C601 H608 0.930 . S
C602 C590 1.410 . S
C602 C603 1.345 . S
C602 H610 0.930 . S
C603 C601 1.407 . S
C603 C602 1.345 . S
C603 H605 0.930 . S
H604 C597 0.930 . S
H605 C603 0.930 . S
H606 C594 0.930 . S
H607 C595 0.931 . S
H608 C601 0.930 . S
H609 C623 0.930 . S
H610 C602 0.930 . S
H611 C629 0.930 . S
H612 C620 0.930 . S
H613 C627 0.931 . S
H614 C591 0.929 . S
H615 C621 0.930 . S
H616 C654 0.930 . S
H617 C598 0.925 1_545 S
H618 C653 0.929 . S
N619 Tb588 2.660 . S
N619 C620 1.305 . S
N619 C624 1.360 . S
C620 H612 0.930 . S
C620 N619 1.305 . S
C620 C623 1.407 . S
C621 H615 0.930 . S
C621 C622 1.410 1_655 S
C621 C623 1.345 1_655 S
C622 C621 1.410 1_455 S
C622 C624 1.417 . S
C622 C654 1.432 1_455 S
C623 H609 0.930 . S
C623 C620 1.407 . S
C623 C621 1.345 1_455 S
C624 N619 1.360 . S
C624 C622 1.417 . S
C624 C628 1.432 . S
H625 C630 0.930 . S
N626 Tb588 2.600 . S
N626 C628 1.359 . S
N626 C629 1.327 . S
C627 H613 0.931 . S
C627 C629 1.392 . S
C627 C630 1.370 . S
C628 C624 1.432 . S
C628 N626 1.359 . S
C628 C631 1.414 . S
C629 H611 0.930 . S
C629 N626 1.327 . S
C629 C627 1.392 . S
C630 H625 0.930 . S
C630 C627 1.370 . S
C630 C631 1.385 . S
C631 C628 1.414 . S
C631 C630 1.385 . S
C631 C653 1.444 1_455 S
O632 Tb588 2.546 . S
O632 C652 1.251 . S
O633 Tb588 2.610 . S
O633 Tb599 2.362 . S
O633 C644 1.283 . S
O634 Tb599 2.421 . S
O634 C651 1.262 . S
O635 Tb588 2.320 . S
O635 C651 1.260 . S
O636 Tb588 2.552 . S
O636 C644 1.243 . S
O637 Tb588 2.413 . S
O637 C652 1.256 . S
O638 Tb599 2.546 1_545 S
O638 C663 1.251 . S
O639 Tb588 2.362 . S
O639 Tb599 2.610 . S
O639 C655 1.283 . S
O640 Tb588 2.421 . S
O640 C662 1.262 . S
O641 Tb599 2.320 . S
O641 C662 1.260 . S
O642 Tb599 2.552 . S
O642 C655 1.243 . S
O643 Tb599 2.413 1_545 S
O643 C663 1.256 . S
C644 O633 1.283 . S
C644 O636 1.243 . S
C645 C647 1.382 . S
C645 C649 1.393 . S
C645 C652 1.500 . S
C646 C647 1.400 . S
C646 C648 1.384 . S
C647 C645 1.382 . S
C647 C646 1.400 . S
C647 H664 0.930 . S
C648 C646 1.384 . S
C648 C650 1.392 . S
C648 H665 0.931 . S
C649 C645 1.393 . S
C649 C650 1.401 . S
C649 H666 0.930 . S
C650 C648 1.392 . S
C650 C649 1.401 . S
C650 H667 0.930 . S
C651 O634 1.262 . S
C651 O635 1.260 . S
C652 Tb588 2.833 . S
C652 O632 1.251 . S
C652 O637 1.256 . S
C652 C645 1.500 . S
C653 H618 0.929 . S
C653 C631 1.444 1_655 S
C653 C654 1.317 . S
C654 H616 0.930 . S
C654 C622 1.432 1_655 S
C654 C653 1.317 . S
C655 O639 1.283 . S
C655 O642 1.243 . S
C656 C657 1.382 . S
C656 C660 1.393 . S
C656 C663 1.500 . S
C657 C656 1.382 . S
C657 C658 1.400 . S
C657 H668 0.930 . S
C658 C657 1.400 . S
C658 C659 1.384 . S
C659 C658 1.384 . S
C659 C661 1.392 . S
C659 H669 0.931 . S
C660 C656 1.393 . S
C660 C661 1.401 . S
C660 H670 0.930 . S
C661 C659 1.392 . S
C661 C660 1.401 . S
C661 H671 0.930 . S
C662 O640 1.262 . S
C662 O641 1.260 . S
C663 Tb599 2.833 1_545 S
C663 O638 1.251 . S
C663 O643 1.256 . S
C663 C656 1.500 . S
H664 C647 0.930 . S
H665 C648 0.931 . S
H666 C649 0.930 . S
H667 C650 0.930 . S
H668 C657 0.930 . S
H669 C659 0.931 . S
H670 C660 0.930 . S
H671 C661 0.930 . S
Tb672 N703 2.660 . S
Tb672 N710 2.600 . S
Tb672 O716 2.546 . S
Tb672 O717 2.610 . S
Tb672 O719 2.320 . S
Tb672 O720 2.552 . S
Tb672 O721 2.413 . S
Tb672 O723 2.362 . S
Tb672 O724 2.421 . S
Tb672 C736 2.833 . S
C673 C676 1.432 . S
C673 C677 1.414 . S
C673 N680 1.359 . S
C674 C676 1.417 . S
C674 C678 1.432 . S
C674 C686 1.410 . S
C675 C677 1.444 . S
C675 C678 1.317 . S
C675 H698 0.929 . S
C676 C673 1.432 . S
C676 C674 1.417 . S
C676 N684 1.360 . S
C677 C673 1.414 . S
C677 C675 1.444 . S
C677 C682 1.385 . S
C678 C674 1.432 . S
C678 C675 1.317 . S
C678 H690 0.930 . S
C679 C681 1.392 . S
C679 C682 1.370 . S
C679 H691 0.931 . S
N680 C673 1.359 . S
N680 C681 1.327 . S
N680 Tb683 2.600 . S
C681 C679 1.392 . S
C681 N680 1.327 . S
C681 H688 0.930 . S
C682 C677 1.385 . S
C682 C679 1.370 . S
C682 H701 0.930 . S
Tb683 N680 2.600 . S
Tb683 N684 2.660 . S
Tb683 O717 2.362 . S
Tb683 O718 2.421 . S
Tb683 O722 2.546 . S
Tb683 O723 2.610 . S
Tb683 O725 2.320 . S
Tb683 O726 2.552 . S
Tb683 O727 2.413 . S
Tb683 C747 2.833 . S
N684 C676 1.360 . S
N684 Tb683 2.660 . S
N684 C685 1.305 . S
C685 N684 1.305 . S
C685 C687 1.407 . S
C685 H692 0.930 . S
C686 C674 1.410 . S
C686 C687 1.345 . S
C686 H694 0.930 . S
C687 C685 1.407 . S
C687 C686 1.345 . S
C687 H689 0.930 . S
H688 C681 0.930 . S
H689 C687 0.930 . S
H690 C678 0.930 . S
H691 C679 0.931 . S
H692 C685 0.930 . S
H693 C707 0.930 . S
H694 C686 0.930 . S
H695 C713 0.930 . S
H696 C704 0.930 . S
H697 C711 0.931 . S
H698 C675 0.929 . S
H699 C705 0.930 . S
H700 C738 0.930 . S
H701 C682 0.930 . S
H702 C737 0.929 . S
N703 Tb672 2.660 . S
N703 C704 1.305 . S
N703 C708 1.360 . S
C704 H696 0.930 . S
C704 N703 1.305 . S
C704 C707 1.407 . S
C705 H699 0.930 . S
C705 C706 1.410 . S
C705 C707 1.345 . S
C706 C705 1.410 . S
C706 C708 1.417 . S
C706 C738 1.432 . S
C707 H693 0.930 . S
C707 C704 1.407 . S
C707 C705 1.345 . S
C708 N703 1.360 . S
C708 C706 1.417 . S
C708 C712 1.432 . S
H709 C714 0.930 . S
N710 Tb672 2.600 . S
N710 C712 1.359 . S
N710 C713 1.327 . S
C711 H697 0.931 . S
C711 C713 1.392 . S
C711 C714 1.370 . S
C712 C708 1.432 . S
C712 N710 1.359 . S
C712 C715 1.414 . S
C713 H695 0.930 . S
C713 N710 1.327 . S
C713 C711 1.392 . S
C714 H709 0.930 . S
C714 C711 1.370 . S
C714 C715 1.385 . S
C715 C712 1.414 . S
C715 C714 1.385 . S
C715 C737 1.444 . S
O716 Tb672 2.546 . S
O716 C736 1.251 . S
O717 Tb672 2.610 . S
O717 Tb683 2.362 . S
O717 C728 1.283 . S
O718 Tb683 2.421 . S
O718 C735 1.262 . S
O719 Tb672 2.320 . S
O719 C735 1.260 . S
O720 Tb672 2.552 . S
O720 C728 1.243 . S
O721 Tb672 2.413 . S
O721 C736 1.256 . S
O722 Tb683 2.546 . S
O722 C747 1.251 . S
O723 Tb672 2.362 . S
O723 Tb683 2.610 . S
O723 C739 1.283 . S
O724 Tb672 2.421 . S
O724 C746 1.262 . S
O725 Tb683 2.320 . S
O725 C746 1.260 . S
O726 Tb683 2.552 . S
O726 C739 1.243 . S
O727 Tb683 2.413 . S
O727 C747 1.256 . S
C728 O717 1.283 . S
C728 O720 1.243 . S
C729 C731 1.382 . S
C729 C733 1.393 . S
C729 C736 1.500 . S
C730 C731 1.400 . S
C730 C732 1.384 . S
C731 C729 1.382 . S
C731 C730 1.400 . S
C731 H748 0.930 . S
C732 C730 1.384 . S
C732 C734 1.392 . S
C732 H749 0.931 . S
C733 C729 1.393 . S
C733 C734 1.401 . S
C733 H750 0.930 . S
C734 C732 1.392 . S
C734 C733 1.401 . S
C734 H751 0.930 . S
C735 O718 1.262 . S
C735 O719 1.260 . S
C736 Tb672 2.833 . S
C736 O716 1.251 . S
C736 O721 1.256 . S
C736 C729 1.500 . S
C737 H702 0.929 . S
C737 C715 1.444 . S
C737 C738 1.317 . S
C738 H700 0.930 . S
C738 C706 1.432 . S
C738 C737 1.317 . S
C739 O723 1.283 . S
C739 O726 1.243 . S
C740 C741 1.382 . S
C740 C744 1.393 . S
C740 C747 1.500 . S
C741 C740 1.382 . S
C741 C742 1.400 . S
C741 H752 0.930 . S
C742 C741 1.400 . S
C742 C743 1.384 . S
C743 C742 1.384 . S
C743 C745 1.392 . S
C743 H753 0.931 1_565 S
C744 C740 1.393 . S
C744 C745 1.401 . S
C744 H754 0.930 . S
C745 C743 1.392 . S
C745 C744 1.401 . S
C745 H755 0.930 . S
C746 O724 1.262 . S
C746 O725 1.260 . S
C747 Tb683 2.833 . S
C747 O722 1.251 . S
C747 O727 1.256 . S
C747 C740 1.500 . S
H748 C731 0.930 . S
H749 C732 0.931 . S
H750 C733 0.930 . S
H751 C734 0.930 . S
H752 C741 0.930 . S
H753 C743 0.931 1_545 S
H754 C744 0.930 . S
H755 C745 0.930 . S
Tb756 N787 2.660 . S
Tb756 N794 2.600 . S
Tb756 O800 2.546 . S
Tb756 O801 2.610 . S
Tb756 O803 2.320 . S
Tb756 O804 2.552 . S
Tb756 O805 2.413 . S
Tb756 O807 2.362 . S
Tb756 O808 2.421 . S
Tb756 C820 2.833 . S
C757 C760 1.432 . S
C757 C761 1.414 . S
C757 N764 1.359 . S
C758 C760 1.417 . S
C758 C762 1.432 . S
C758 C770 1.410 . S
C759 C761 1.444 . S
C759 C762 1.317 . S
C759 H782 0.929 . S
C760 C757 1.432 . S
C760 C758 1.417 . S
C760 N768 1.360 . S
C761 C757 1.414 . S
C761 C759 1.444 . S
C761 C766 1.385 . S
C762 C758 1.432 . S
C762 C759 1.317 . S
C762 H774 0.930 . S
C763 C765 1.392 . S
C763 C766 1.370 . S
C763 H775 0.931 . S
N764 C757 1.359 . S
N764 C765 1.327 . S
N764 Tb767 2.600 . S
C765 C763 1.392 . S
C765 N764 1.327 . S
C765 H772 0.930 . S
C766 C761 1.385 . S
C766 C763 1.370 . S
C766 H785 0.930 . S
Tb767 N764 2.600 . S
Tb767 N768 2.660 . S
Tb767 O801 2.362 . S
Tb767 O802 2.421 . S
Tb767 O806 2.546 . S
Tb767 O807 2.610 . S
Tb767 O809 2.320 . S
Tb767 O810 2.552 . S
Tb767 O811 2.413 . S
Tb767 C831 2.833 . S
N768 C760 1.360 . S
N768 Tb767 2.660 . S
N768 C769 1.305 . S
C769 N768 1.305 . S
C769 C771 1.407 . S
C769 H776 0.930 . S
C770 C758 1.410 . S
C770 C771 1.345 . S
C770 H778 0.930 . S
C771 C769 1.407 . S
C771 C770 1.345 . S
C771 H773 0.930 . S
H772 C765 0.930 . S
H773 C771 0.930 . S
H774 C762 0.930 . S
H775 C763 0.931 . S
H776 C769 0.930 . S
H777 C791 0.930 . S
H778 C770 0.930 . S
H779 C797 0.930 . S
H780 C788 0.930 . S
H781 C795 0.931 . S
H782 C759 0.929 . S
H783 C789 0.930 . S
H784 C822 0.930 . S
H785 C766 0.930 . S
H786 C821 0.929 . S
N787 Tb756 2.660 . S
N787 C788 1.305 . S
N787 C792 1.360 . S
C788 H780 0.930 . S
C788 N787 1.305 . S
C788 C791 1.407 . S
C789 H783 0.930 . S
C789 C790 1.410 . S
C789 C791 1.345 . S
C790 C789 1.410 . S
C790 C792 1.417 . S
C790 C822 1.432 . S
C791 H777 0.930 . S
C791 C788 1.407 . S
C791 C789 1.345 . S
C792 N787 1.360 . S
C792 C790 1.417 . S
C792 C796 1.432 . S
H793 C798 0.930 . S
N794 Tb756 2.600 . S
N794 C796 1.359 . S
N794 C797 1.327 . S
C795 H781 0.931 . S
C795 C797 1.392 . S
C795 C798 1.370 . S
C796 C792 1.432 . S
C796 N794 1.359 . S
C796 C799 1.414 . S
C797 H779 0.930 . S
C797 N794 1.327 . S
C797 C795 1.392 . S
C798 H793 0.930 . S
C798 C795 1.370 . S
C798 C799 1.385 . S
C799 C796 1.414 . S
C799 C798 1.385 . S
C799 C821 1.444 . S
O800 Tb756 2.546 . S
O800 C820 1.251 . S
O801 Tb756 2.610 . S
O801 Tb767 2.362 . S
O801 C812 1.283 . S
O802 Tb767 2.421 . S
O802 C819 1.262 . S
O803 Tb756 2.320 . S
O803 C819 1.260 . S
O804 Tb756 2.552 . S
O804 C812 1.243 . S
O805 Tb756 2.413 . S
O805 C820 1.256 . S
O806 Tb767 2.546 . S
O806 C831 1.251 . S
O807 Tb756 2.362 . S
O807 Tb767 2.610 . S
O807 C823 1.283 . S
O808 Tb756 2.421 . S
O808 C830 1.262 . S
O809 Tb767 2.320 . S
O809 C830 1.260 . S
O810 Tb767 2.552 . S
O810 C823 1.243 . S
O811 Tb767 2.413 . S
O811 C831 1.256 . S
C812 O801 1.283 . S
C812 O804 1.243 . S
C813 C815 1.382 . S
C813 C817 1.393 . S
C813 C820 1.500 . S
C814 C815 1.400 . S
C814 C816 1.384 . S
C815 C813 1.382 . S
C815 C814 1.400 . S
C815 H832 0.930 . S
C816 C814 1.384 . S
C816 C818 1.392 . S
C816 H833 0.931 . S
C817 C813 1.393 . S
C817 C818 1.401 . S
C817 H834 0.930 . S
C818 C816 1.392 . S
C818 C817 1.401 . S
C818 H835 0.930 . S
C819 O802 1.262 . S
C819 O803 1.260 . S
C820 Tb756 2.833 . S
C820 O800 1.251 . S
C820 O805 1.256 . S
C820 C813 1.500 . S
C821 H786 0.929 . S
C821 C799 1.444 . S
C821 C822 1.317 . S
C822 H784 0.930 . S
C822 C790 1.432 . S
C822 C821 1.317 . S
C823 O807 1.283 . S
C823 O810 1.243 . S
C824 C825 1.382 . S
C824 C828 1.393 . S
C824 C831 1.500 . S
C825 C824 1.382 . S
C825 C826 1.400 . S
C825 H836 0.930 . S
C826 C825 1.400 . S
C826 C827 1.384 . S
C827 C826 1.384 . S
C827 C829 1.392 . S
C827 H837 0.931 1_545 S
C828 C824 1.393 . S
C828 C829 1.401 . S
C828 H838 0.930 . S
C829 C827 1.392 . S
C829 C828 1.401 . S
C829 H839 0.930 . S
C830 O808 1.262 . S
C830 O809 1.260 . S
C831 Tb767 2.833 . S
C831 O806 1.251 . S
C831 O811 1.256 . S
C831 C824 1.500 . S
H832 C815 0.930 . S
H833 C816 0.931 . S
H834 C817 0.930 . S
H835 C818 0.930 . S
H836 C825 0.930 . S
H837 C827 0.931 1_565 S
H838 C828 0.930 . S
H839 C829 0.930 . S
Tb840 N871 2.660 . S
Tb840 N878 2.600 . S
Tb840 O884 2.546 . S
Tb840 O885 2.610 . S
Tb840 O887 2.320 . S
Tb840 O888 2.552 . S
Tb840 O889 2.413 . S
Tb840 O891 2.362 . S
Tb840 O892 2.421 . S
Tb840 C904 2.833 . S
C841 C844 1.432 . S
C841 C845 1.414 . S
C841 N848 1.359 . S
C842 C844 1.417 . S
C842 C846 1.432 . S
C842 C854 1.410 . S
C843 C845 1.444 . S
C843 C846 1.317 . S
C843 H866 0.929 . S
C844 C841 1.432 . S
C844 C842 1.417 . S
C844 N852 1.360 . S
C845 C841 1.414 . S
C845 C843 1.444 . S
C845 C850 1.385 . S
C846 C842 1.432 . S
C846 C843 1.317 . S
C846 H858 0.930 . S
C847 C849 1.392 . S
C847 C850 1.370 . S
C847 H859 0.931 . S
N848 C841 1.359 . S
N848 C849 1.327 . S
N848 Tb851 2.600 . S
C849 C847 1.392 . S
C849 N848 1.327 . S
C849 H856 0.930 . S
C850 C845 1.385 . S
C850 C847 1.370 . S
C850 H869 0.930 . S
Tb851 N848 2.600 . S
Tb851 N852 2.660 . S
Tb851 O885 2.362 . S
Tb851 O886 2.421 . S
Tb851 O890 2.546 . S
Tb851 O891 2.610 . S
Tb851 O893 2.320 . S
Tb851 O894 2.552 . S
Tb851 O895 2.413 . S
Tb851 C915 2.833 . S
N852 C844 1.360 . S
N852 Tb851 2.660 . S
N852 C853 1.305 . S
C853 N852 1.305 . S
C853 C855 1.407 . S
C853 H860 0.930 . S
C854 C842 1.410 . S
C854 C855 1.345 . S
C854 H862 0.930 . S
C855 C853 1.407 . S
C855 C854 1.345 . S
C855 H857 0.930 . S
H856 C849 0.930 . S
H857 C855 0.930 . S
H858 C846 0.930 . S
H859 C847 0.931 . S
H860 C853 0.930 . S
H861 C875 0.930 . S
H862 C854 0.930 . S
H863 C881 0.930 . S
H864 C872 0.930 . S
H865 C879 0.931 . S
H866 C843 0.929 . S
H867 C873 0.930 . S
H868 C906 0.930 . S
H869 C850 0.930 . S
H870 C905 0.929 . S
N871 Tb840 2.660 . S
N871 C872 1.305 . S
N871 C876 1.360 . S
C872 H864 0.930 . S
C872 N871 1.305 . S
C872 C875 1.407 . S
C873 H867 0.930 . S
C873 C874 1.410 . S
C873 C875 1.345 . S
C874 C873 1.410 . S
C874 C876 1.417 . S
C874 C906 1.432 . S
C875 H861 0.930 . S
C875 C872 1.407 . S
C875 C873 1.345 . S
C876 N871 1.360 . S
C876 C874 1.417 . S
C876 C880 1.432 . S
H877 C882 0.930 . S
N878 Tb840 2.600 . S
N878 C880 1.359 . S
N878 C881 1.327 . S
C879 H865 0.931 . S
C879 C881 1.392 . S
C879 C882 1.370 . S
C880 C876 1.432 . S
C880 N878 1.359 . S
C880 C883 1.414 . S
C881 H863 0.930 . S
C881 N878 1.327 . S
C881 C879 1.392 . S
C882 H877 0.930 . S
C882 C879 1.370 . S
C882 C883 1.385 . S
C883 C880 1.414 . S
C883 C882 1.385 . S
C883 C905 1.444 . S
O884 Tb840 2.546 . S
O884 C904 1.251 . S
O885 Tb840 2.610 . S
O885 Tb851 2.362 . S
O885 C896 1.283 . S
O886 Tb851 2.421 . S
O886 C903 1.262 . S
O887 Tb840 2.320 . S
O887 C903 1.260 . S
O888 Tb840 2.552 . S
O888 C896 1.243 . S
O889 Tb840 2.413 . S
O889 C904 1.256 . S
O890 Tb851 2.546 . S
O890 C915 1.251 . S
O891 Tb840 2.362 . S
O891 Tb851 2.610 . S
O891 C907 1.283 . S
O892 Tb840 2.421 . S
O892 C914 1.262 . S
O893 Tb851 2.320 . S
O893 C914 1.260 . S
O894 Tb851 2.552 . S
O894 C907 1.243 . S
O895 Tb851 2.413 . S
O895 C915 1.256 . S
C896 O885 1.283 . S
C896 O888 1.243 . S
C897 C899 1.382 . S
C897 C901 1.393 . S
C897 C904 1.500 . S
C898 C899 1.400 . S
C898 C900 1.384 . S
C899 C897 1.382 . S
C899 C898 1.400 . S
C899 H916 0.930 . S
C900 C898 1.384 . S
C900 C902 1.392 . S
C900 H917 0.931 . S
C901 C897 1.393 . S
C901 C902 1.401 . S
C901 H918 0.930 . S
C902 C900 1.392 . S
C902 C901 1.401 . S
C902 H919 0.930 . S
C903 O886 1.262 . S
C903 O887 1.260 . S
C904 Tb840 2.833 . S
C904 O884 1.251 . S
C904 O889 1.256 . S
C904 C897 1.500 . S
C905 H870 0.929 . S
C905 C883 1.444 . S
C905 C906 1.317 . S
C906 H868 0.930 . S
C906 C874 1.432 . S
C906 C905 1.317 . S
C907 O891 1.283 . S
C907 O894 1.243 . S
C908 C909 1.382 . S
C908 C912 1.393 . S
C908 C915 1.500 . S
C909 C908 1.382 . S
C909 C910 1.400 . S
C909 H920 0.930 . S
C910 C909 1.400 . S
C910 C911 1.384 . S
C911 C910 1.384 . S
C911 C913 1.392 . S
C911 H921 0.931 1_545 S
C912 C908 1.393 . S
C912 C913 1.401 . S
C912 H922 0.930 . S
C913 C911 1.392 . S
C913 C912 1.401 . S
C913 H923 0.930 . S
C914 O892 1.262 . S
C914 O893 1.260 . S
C915 Tb851 2.833 . S
C915 O890 1.251 . S
C915 O895 1.256 . S
C915 C908 1.500 . S
H916 C899 0.930 . S
H917 C900 0.931 . S
H918 C901 0.930 . S
H919 C902 0.930 . S
H920 C909 0.930 . S
H921 C911 0.931 1_565 S
H922 C912 0.930 . S
H923 C913 0.930 . S
Tb924 N955 2.660 . S
Tb924 N962 2.600 . S
Tb924 O968 2.546 . S
Tb924 O969 2.610 . S
Tb924 O971 2.320 . S
Tb924 O972 2.552 . S
Tb924 O973 2.413 . S
Tb924 O975 2.362 . S
Tb924 O976 2.421 . S
Tb924 C988 2.833 . S
C925 C928 1.432 . S
C925 C929 1.414 . S
C925 N932 1.359 . S
C926 C928 1.417 . S
C926 C930 1.432 . S
C926 C938 1.410 . S
C927 C929 1.444 . S
C927 C930 1.317 . S
C927 H950 0.929 . S
C928 C925 1.432 . S
C928 C926 1.417 . S
C928 N936 1.360 . S
C929 C925 1.414 . S
C929 C927 1.444 . S
C929 C934 1.385 . S
C930 C926 1.432 . S
C930 C927 1.317 . S
C930 H942 0.930 . S
C931 C933 1.392 . S
C931 C934 1.370 . S
C931 H943 0.931 . S
N932 C925 1.359 . S
N932 C933 1.327 . S
N932 Tb935 2.600 . S
C933 C931 1.392 . S
C933 N932 1.327 . S
C933 H940 0.930 . S
C934 C929 1.385 . S
C934 C931 1.370 . S
C934 H953 0.930 . S
Tb935 N932 2.600 . S
Tb935 N936 2.660 . S
Tb935 O969 2.362 . S
Tb935 O970 2.421 . S
Tb935 O974 2.546 . S
Tb935 O975 2.610 . S
Tb935 O977 2.320 . S
Tb935 O978 2.552 . S
Tb935 O979 2.413 . S
Tb935 C999 2.833 . S
N936 C928 1.360 . S
N936 Tb935 2.660 . S
N936 C937 1.305 . S
C937 N936 1.305 . S
C937 C939 1.407 . S
C937 H944 0.930 . S
C938 C926 1.410 . S
C938 C939 1.345 . S
C938 H946 0.930 . S
C939 C937 1.407 . S
C939 C938 1.345 . S
C939 H941 0.930 . S
H940 C933 0.930 . S
H941 C939 0.930 . S
H942 C930 0.930 . S
H943 C931 0.931 . S
H944 C937 0.930 . S
H945 C959 0.930 . S
H946 C938 0.930 . S
H947 C965 0.930 . S
H948 C956 0.930 . S
H949 C963 0.931 . S
H950 C927 0.929 . S
H951 C957 0.930 . S
H952 C990 0.930 . S
H953 C934 0.930 . S
H954 C989 0.929 . S
N955 Tb924 2.660 . S
N955 C956 1.305 . S
N955 C960 1.360 . S
C956 H948 0.930 . S
C956 N955 1.305 . S
C956 C959 1.407 . S
C957 H951 0.930 . S
C957 C958 1.410 . S
C957 C959 1.345 . S
C958 C957 1.410 . S
C958 C960 1.417 . S
C958 C990 1.432 . S
C959 H945 0.930 . S
C959 C956 1.407 . S
C959 C957 1.345 . S
C960 N955 1.360 . S
C960 C958 1.417 . S
C960 C964 1.432 . S
H961 C966 0.930 . S
N962 Tb924 2.600 . S
N962 C964 1.359 . S
N962 C965 1.327 . S
C963 H949 0.931 . S
C963 C965 1.392 . S
C963 C966 1.370 . S
C964 C960 1.432 . S
C964 N962 1.359 . S
C964 C967 1.414 . S
C965 H947 0.930 . S
C965 N962 1.327 . S
C965 C963 1.392 . S
C966 H961 0.930 . S
C966 C963 1.370 . S
C966 C967 1.385 . S
C967 C964 1.414 . S
C967 C966 1.385 . S
C967 C989 1.444 . S
O968 Tb924 2.546 . S
O968 C988 1.251 . S
O969 Tb924 2.610 . S
O969 Tb935 2.362 . S
O969 C980 1.283 . S
O970 Tb935 2.421 . S
O970 C987 1.262 . S
O971 Tb924 2.320 . S
O971 C987 1.260 . S
O972 Tb924 2.552 . S
O972 C980 1.243 . S
O973 Tb924 2.413 . S
O973 C988 1.256 . S
O974 Tb935 2.546 . S
O974 C999 1.251 . S
O975 Tb924 2.362 . S
O975 Tb935 2.610 . S
O975 C991 1.283 . S
O976 Tb924 2.421 . S
O976 C998 1.262 . S
O977 Tb935 2.320 . S
O977 C998 1.260 . S
O978 Tb935 2.552 . S
O978 C991 1.243 . S
O979 Tb935 2.413 . S
O979 C999 1.256 . S
C980 O969 1.283 . S
C980 O972 1.243 . S
C981 C983 1.382 . S
C981 C985 1.393 . S
C981 C988 1.500 . S
C982 C983 1.400 . S
C982 C984 1.384 . S
C983 C981 1.382 . S
C983 C982 1.400 . S
C983 H1000 0.930 . S
C984 C982 1.384 . S
C984 C986 1.392 . S
C984 H1001 0.931 . S
C985 C981 1.393 . S
C985 C986 1.401 . S
C985 H1002 0.930 . S
C986 C984 1.392 . S
C986 C985 1.401 . S
C986 H1003 0.930 . S
C987 O970 1.262 . S
C987 O971 1.260 . S
C988 Tb924 2.833 . S
C988 O968 1.251 . S
C988 O973 1.256 . S
C988 C981 1.500 . S
C989 H954 0.929 . S
C989 C967 1.444 . S
C989 C990 1.317 . S
C990 H952 0.930 . S
C990 C958 1.432 . S
C990 C989 1.317 . S
C991 O975 1.283 . S
C991 O978 1.243 . S
C992 C993 1.382 . S
C992 C996 1.393 . S
C992 C999 1.500 . S
C993 C992 1.382 . S
C993 C994 1.400 . S
C993 H1004 0.930 . S
C994 C993 1.400 . S
C994 C995 1.384 . S
C995 C994 1.384 . S
C995 C997 1.392 . S
C995 H1005 0.931 1_565 S
C996 C992 1.393 . S
C996 C997 1.401 . S
C996 H1006 0.930 . S
C997 C995 1.392 . S
C997 C996 1.401 . S
C997 H1007 0.930 . S
C998 O976 1.262 . S
C998 O977 1.260 . S
C999 Tb935 2.833 . S
C999 O974 1.251 . S
C999 O979 1.256 . S
C999 C992 1.500 . S
H1000 C983 0.930 . S
H1001 C984 0.931 . S
H1002 C985 0.930 . S
H1003 C986 0.930 . S
H1004 C993 0.930 . S
H1005 C995 0.931 1_545 S
H1006 C996 0.930 . S
H1007 C997 0.930 . S
Tb1008 N1039 2.660 . S
Tb1008 N1046 2.600 . S
Tb1008 O1052 2.546 . S
Tb1008 O1053 2.610 . S
Tb1008 O1055 2.320 . S
Tb1008 O1056 2.552 . S
Tb1008 O1057 2.413 . S
Tb1008 O1059 2.362 . S
Tb1008 O1060 2.421 . S
Tb1008 C1072 2.833 . S
C1009 C1012 1.432 . S
C1009 C1013 1.414 . S
C1009 N1016 1.359 . S
C1010 C1012 1.417 . S
C1010 C1014 1.432 . S
C1010 C1022 1.410 . S
C1011 C1013 1.444 . S
C1011 C1014 1.317 . S
C1011 H1034 0.929 . S
C1012 C1009 1.432 . S
C1012 C1010 1.417 . S
C1012 N1020 1.360 . S
C1013 C1009 1.414 . S
C1013 C1011 1.444 . S
C1013 C1018 1.385 . S
C1014 C1010 1.432 . S
C1014 C1011 1.317 . S
C1014 H1026 0.930 . S
C1015 C1017 1.392 . S
C1015 C1018 1.370 . S
C1015 H1027 0.931 . S
N1016 C1009 1.359 . S
N1016 C1017 1.327 . S
N1016 Tb1019 2.600 . S
C1017 C1015 1.392 . S
C1017 N1016 1.327 . S
C1017 H1024 0.930 . S
C1018 C1013 1.385 . S
C1018 C1015 1.370 . S
C1018 H1037 0.930 . S
Tb1019 N1016 2.600 . S
Tb1019 N1020 2.660 . S
Tb1019 O1053 2.362 . S
Tb1019 O1054 2.421 . S
Tb1019 O1058 2.546 . S
Tb1019 O1059 2.610 . S
Tb1019 O1061 2.320 . S
Tb1019 O1062 2.552 . S
Tb1019 O1063 2.413 . S
Tb1019 C1083 2.833 . S
N1020 C1012 1.360 . S
N1020 Tb1019 2.660 . S
N1020 C1021 1.305 . S
C1021 N1020 1.305 . S
C1021 C1023 1.407 . S
C1021 H1028 0.930 . S
C1022 C1010 1.410 . S
C1022 C1023 1.345 . S
C1022 H1030 0.930 . S
C1023 C1021 1.407 . S
C1023 C1022 1.345 . S
C1023 H1025 0.930 . S
H1024 C1017 0.930 . S
H1025 C1023 0.930 . S
H1026 C1014 0.930 . S
H1027 C1015 0.931 . S
H1028 C1021 0.930 . S
H1029 C1043 0.930 . S
H1030 C1022 0.930 . S
H1031 C1049 0.930 . S
H1032 C1040 0.930 . S
H1033 C1047 0.931 . S
H1034 C1011 0.929 . S
H1035 C1041 0.930 . S
H1036 C1074 0.930 . S
H1037 C1018 0.930 . S
H1038 C1073 0.929 . S
N1039 Tb1008 2.660 . S
N1039 C1040 1.305 . S
N1039 C1044 1.360 . S
C1040 H1032 0.930 . S
C1040 N1039 1.305 . S
C1040 C1043 1.407 . S
C1041 H1035 0.930 . S
C1041 C1042 1.410 . S
C1041 C1043 1.345 . S
C1042 C1041 1.410 . S
C1042 C1044 1.417 . S
C1042 C1074 1.432 . S
C1043 H1029 0.930 . S
C1043 C1040 1.407 . S
C1043 C1041 1.345 . S
C1044 N1039 1.360 . S
C1044 C1042 1.417 . S
C1044 C1048 1.432 . S
H1045 C1050 0.930 . S
N1046 Tb1008 2.600 . S
N1046 C1048 1.359 . S
N1046 C1049 1.327 . S
C1047 H1033 0.931 . S
C1047 C1049 1.392 . S
C1047 C1050 1.370 . S
C1048 C1044 1.432 . S
C1048 N1046 1.359 . S
C1048 C1051 1.414 . S
C1049 H1031 0.930 . S
C1049 N1046 1.327 . S
C1049 C1047 1.392 . S
C1050 H1045 0.930 . S
C1050 C1047 1.370 . S
C1050 C1051 1.385 . S
C1051 C1048 1.414 . S
C1051 C1050 1.385 . S
C1051 C1073 1.444 . S
O1052 Tb1008 2.546 . S
O1052 C1072 1.251 . S
O1053 Tb1008 2.610 . S
O1053 Tb1019 2.362 . S
O1053 C1064 1.283 . S
O1054 Tb1019 2.421 . S
O1054 C1071 1.262 . S
O1055 Tb1008 2.320 . S
O1055 C1071 1.260 . S
O1056 Tb1008 2.552 . S
O1056 C1064 1.243 . S
O1057 Tb1008 2.413 . S
O1057 C1072 1.256 . S
O1058 Tb1019 2.546 . S
O1058 C1083 1.251 . S
O1059 Tb1008 2.362 . S
O1059 Tb1019 2.610 . S
O1059 C1075 1.283 . S
O1060 Tb1008 2.421 . S
O1060 C1082 1.262 . S
O1061 Tb1019 2.320 . S
O1061 C1082 1.260 . S
O1062 Tb1019 2.552 . S
O1062 C1075 1.243 . S
O1063 Tb1019 2.413 . S
O1063 C1083 1.256 . S
C1064 O1053 1.283 . S
C1064 O1056 1.243 . S
C1065 C1067 1.382 . S
C1065 C1069 1.393 . S
C1065 C1072 1.500 . S
C1066 C1067 1.400 . S
C1066 C1068 1.384 . S
C1067 C1065 1.382 . S
C1067 C1066 1.400 . S
C1067 H1084 0.930 . S
C1068 C1066 1.384 . S
C1068 C1070 1.392 . S
C1068 H1085 0.931 1_545 S
C1069 C1065 1.393 . S
C1069 C1070 1.401 . S
C1069 H1086 0.930 . S
C1070 C1068 1.392 . S
C1070 C1069 1.401 . S
C1070 H1087 0.930 . S
C1071 O1054 1.262 . S
C1071 O1055 1.260 . S
C1072 Tb1008 2.833 . S
C1072 O1052 1.251 . S
C1072 O1057 1.256 . S
C1072 C1065 1.500 . S
C1073 H1038 0.929 . S
C1073 C1051 1.444 . S
C1073 C1074 1.317 . S
C1074 H1036 0.930 . S
C1074 C1042 1.432 . S
C1074 C1073 1.317 . S
C1075 O1059 1.283 . S
C1075 O1062 1.243 . S
C1076 C1077 1.382 . S
C1076 C1080 1.393 . S
C1076 C1083 1.500 . S
C1077 C1076 1.382 . S
C1077 C1078 1.400 . S
C1077 H1088 0.930 . S
C1078 C1077 1.400 . S
C1078 C1079 1.384 . S
C1079 C1078 1.384 . S
C1079 C1081 1.392 . S
C1079 H1089 0.931 . S
C1080 C1076 1.393 . S
C1080 C1081 1.401 . S
C1080 H1090 0.930 . S
C1081 C1079 1.392 . S
C1081 C1080 1.401 . S
C1081 H1091 0.930 . S
C1082 O1060 1.262 . S
C1082 O1061 1.260 . S
C1083 Tb1019 2.833 . S
C1083 O1058 1.251 . S
C1083 O1063 1.256 . S
C1083 C1076 1.500 . S
H1084 C1067 0.930 . S
H1085 C1068 0.931 1_565 S
H1086 C1069 0.930 . S
H1087 C1070 0.930 . S
H1088 C1077 0.930 . S
H1089 C1079 0.931 . S
H1090 C1080 0.930 . S
H1091 C1081 0.930 . S
Tb1092 N1123 2.660 . S
Tb1092 N1130 2.600 . S
Tb1092 O1136 2.546 . S
Tb1092 O1137 2.610 . S
Tb1092 O1139 2.320 . S
Tb1092 O1140 2.552 . S
Tb1092 O1141 2.413 . S
Tb1092 O1143 2.362 . S
Tb1092 O1144 2.421 . S
Tb1092 C1156 2.833 . S
C1093 C1096 1.432 . S
C1093 C1097 1.414 . S
C1093 N1100 1.359 . S
C1094 C1096 1.417 . S
C1094 C1098 1.432 . S
C1094 C1106 1.410 . S
C1095 C1097 1.444 . S
C1095 C1098 1.317 . S
C1095 H1118 0.929 . S
C1096 C1093 1.432 . S
C1096 C1094 1.417 . S
C1096 N1104 1.360 . S
C1097 C1093 1.414 . S
C1097 C1095 1.444 . S
C1097 C1102 1.385 . S
C1098 C1094 1.432 . S
C1098 C1095 1.317 . S
C1098 H1110 0.930 . S
C1099 C1101 1.392 . S
C1099 C1102 1.370 . S
C1099 H1111 0.931 . S
N1100 C1093 1.359 . S
N1100 C1101 1.327 . S
N1100 Tb1103 2.600 . S
C1101 C1099 1.392 . S
C1101 N1100 1.327 . S
C1101 H1108 0.930 . S
C1102 C1097 1.385 . S
C1102 C1099 1.370 . S
C1102 H1121 0.930 . S
Tb1103 N1100 2.600 . S
Tb1103 N1104 2.660 . S
Tb1103 O1137 2.362 . S
Tb1103 O1138 2.421 . S
Tb1103 O1142 2.546 . S
Tb1103 O1143 2.610 . S
Tb1103 O1145 2.320 . S
Tb1103 O1146 2.552 . S
Tb1103 O1147 2.413 . S
Tb1103 C1167 2.833 . S
N1104 C1096 1.360 . S
N1104 Tb1103 2.660 . S
N1104 C1105 1.305 . S
C1105 N1104 1.305 . S
C1105 C1107 1.407 . S
C1105 H1112 0.930 . S
C1106 C1094 1.410 . S
C1106 C1107 1.345 . S
C1106 H1114 0.930 . S
C1107 C1105 1.407 . S
C1107 C1106 1.345 . S
C1107 H1109 0.930 . S
H1108 C1101 0.930 . S
H1109 C1107 0.930 . S
H1110 C1098 0.930 . S
H1111 C1099 0.931 . S
H1112 C1105 0.930 . S
H1113 C1127 0.930 . S
H1114 C1106 0.930 . S
H1115 C1133 0.930 . S
H1116 C1124 0.930 . S
H1117 C1131 0.931 . S
H1118 C1095 0.929 . S
H1119 C1125 0.930 . S
H1120 C1158 0.930 . S
H1121 C1102 0.930 . S
H1122 C1157 0.929 . S
N1123 Tb1092 2.660 . S
N1123 C1124 1.305 . S
N1123 C1128 1.360 . S
C1124 H1116 0.930 . S
C1124 N1123 1.305 . S
C1124 C1127 1.407 . S
C1125 H1119 0.930 . S
C1125 C1126 1.410 . S
C1125 C1127 1.345 . S
C1126 C1125 1.410 . S
C1126 C1128 1.417 . S
C1126 C1158 1.432 . S
C1127 H1113 0.930 . S
C1127 C1124 1.407 . S
C1127 C1125 1.345 . S
C1128 N1123 1.360 . S
C1128 C1126 1.417 . S
C1128 C1132 1.432 . S
H1129 C1134 0.930 . S
N1130 Tb1092 2.600 . S
N1130 C1132 1.359 . S
N1130 C1133 1.327 . S
C1131 H1117 0.931 . S
C1131 C1133 1.392 . S
C1131 C1134 1.370 . S
C1132 C1128 1.432 . S
C1132 N1130 1.359 . S
C1132 C1135 1.414 . S
C1133 H1115 0.930 . S
C1133 N1130 1.327 . S
C1133 C1131 1.392 . S
C1134 H1129 0.930 . S
C1134 C1131 1.370 . S
C1134 C1135 1.385 . S
C1135 C1132 1.414 . S
C1135 C1134 1.385 . S
C1135 C1157 1.444 . S
O1136 Tb1092 2.546 . S
O1136 C1156 1.251 . S
O1137 Tb1092 2.610 . S
O1137 Tb1103 2.362 . S
O1137 C1148 1.283 . S
O1138 Tb1103 2.421 . S
O1138 C1155 1.262 . S
O1139 Tb1092 2.320 . S
O1139 C1155 1.260 . S
O1140 Tb1092 2.552 . S
O1140 C1148 1.243 . S
O1141 Tb1092 2.413 . S
O1141 C1156 1.256 . S
O1142 Tb1103 2.546 . S
O1142 C1167 1.251 . S
O1143 Tb1092 2.362 . S
O1143 Tb1103 2.610 . S
O1143 C1159 1.283 . S
O1144 Tb1092 2.421 . S
O1144 C1166 1.262 . S
O1145 Tb1103 2.320 . S
O1145 C1166 1.260 . S
O1146 Tb1103 2.552 . S
O1146 C1159 1.243 . S
O1147 Tb1103 2.413 . S
O1147 C1167 1.256 . S
C1148 O1137 1.283 . S
C1148 O1140 1.243 . S
C1149 C1151 1.382 . S
C1149 C1153 1.393 . S
C1149 C1156 1.500 . S
C1150 C1151 1.400 . S
C1150 C1152 1.384 . S
C1151 C1149 1.382 . S
C1151 C1150 1.400 . S
C1151 H1168 0.930 . S
C1152 C1150 1.384 . S
C1152 C1154 1.392 . S
C1152 H1169 0.931 1_565 S
C1153 C1149 1.393 . S
C1153 C1154 1.401 . S
C1153 H1170 0.930 . S
C1154 C1152 1.392 . S
C1154 C1153 1.401 . S
C1154 H1171 0.930 . S
C1155 O1138 1.262 . S
C1155 O1139 1.260 . S
C1156 Tb1092 2.833 . S
C1156 O1136 1.251 . S
C1156 O1141 1.256 . S
C1156 C1149 1.500 . S
C1157 H1122 0.929 . S
C1157 C1135 1.444 . S
C1157 C1158 1.317 . S
C1158 H1120 0.930 . S
C1158 C1126 1.432 . S
C1158 C1157 1.317 . S
C1159 O1143 1.283 . S
C1159 O1146 1.243 . S
C1160 C1161 1.382 . S
C1160 C1164 1.393 . S
C1160 C1167 1.500 . S
C1161 C1160 1.382 . S
C1161 C1162 1.400 . S
C1161 H1172 0.930 . S
C1162 C1161 1.400 . S
C1162 C1163 1.384 . S
C1163 C1162 1.384 . S
C1163 C1165 1.392 . S
C1163 H1173 0.931 . S
C1164 C1160 1.393 . S
C1164 C1165 1.401 . S
C1164 H1174 0.930 . S
C1165 C1163 1.392 . S
C1165 C1164 1.401 . S
C1165 H1175 0.930 . S
C1166 O1144 1.262 . S
C1166 O1145 1.260 . S
C1167 Tb1103 2.833 . S
C1167 O1142 1.251 . S
C1167 O1147 1.256 . S
C1167 C1160 1.500 . S
H1168 C1151 0.930 . S
H1169 C1152 0.931 1_545 S
H1170 C1153 0.930 . S
H1171 C1154 0.930 . S
H1172 C1161 0.930 . S
H1173 C1163 0.931 . S
H1174 C1164 0.930 . S
H1175 C1165 0.930 . S
Tb1176 N1207 2.660 . S
Tb1176 N1214 2.600 . S
Tb1176 O1220 2.546 . S
Tb1176 O1221 2.610 . S
Tb1176 O1223 2.320 . S
Tb1176 O1224 2.552 . S
Tb1176 O1225 2.413 . S
Tb1176 O1227 2.362 . S
Tb1176 O1228 2.421 . S
Tb1176 C1240 2.833 . S
C1177 C1180 1.432 . S
C1177 C1181 1.414 . S
C1177 N1184 1.359 . S
C1178 C1180 1.417 . S
C1178 C1182 1.432 . S
C1178 C1190 1.410 . S
C1179 C1181 1.444 . S
C1179 C1182 1.317 . S
C1179 H1202 0.929 . S
C1180 C1177 1.432 . S
C1180 C1178 1.417 . S
C1180 N1188 1.360 . S
C1181 C1177 1.414 . S
C1181 C1179 1.444 . S
C1181 C1186 1.385 . S
C1182 C1178 1.432 . S
C1182 C1179 1.317 . S
C1182 H1194 0.930 . S
C1183 C1185 1.392 . S
C1183 C1186 1.370 . S
C1183 H1195 0.931 . S
N1184 C1177 1.359 . S
N1184 C1185 1.327 . S
N1184 Tb1187 2.600 . S
C1185 C1183 1.392 . S
C1185 N1184 1.327 . S
C1185 H1192 0.930 . S
C1186 C1181 1.385 . S
C1186 C1183 1.370 . S
C1186 H1205 0.930 . S
Tb1187 N1184 2.600 . S
Tb1187 N1188 2.660 . S
Tb1187 O1221 2.362 . S
Tb1187 O1222 2.421 . S
Tb1187 O1226 2.546 . S
Tb1187 O1227 2.610 . S
Tb1187 O1229 2.320 . S
Tb1187 O1230 2.552 . S
Tb1187 O1231 2.413 . S
Tb1187 C1251 2.833 . S
N1188 C1180 1.360 . S
N1188 Tb1187 2.660 . S
N1188 C1189 1.305 . S
C1189 N1188 1.305 . S
C1189 C1191 1.407 . S
C1189 H1196 0.930 . S
C1190 C1178 1.410 . S
C1190 C1191 1.345 . S
C1190 H1198 0.930 . S
C1191 C1189 1.407 . S
C1191 C1190 1.345 . S
C1191 H1193 0.930 . S
H1192 C1185 0.930 . S
H1193 C1191 0.930 . S
H1194 C1182 0.930 . S
H1195 C1183 0.931 . S
H1196 C1189 0.930 . S
H1197 C1211 0.930 . S
H1198 C1190 0.930 . S
H1199 C1217 0.930 . S
H1200 C1208 0.930 . S
H1201 C1215 0.931 . S
H1202 C1179 0.929 . S
H1203 C1209 0.930 . S
H1204 C1242 0.930 . S
H1205 C1186 0.930 . S
H1206 C1241 0.929 . S
N1207 Tb1176 2.660 . S
N1207 C1208 1.305 . S
N1207 C1212 1.360 . S
C1208 H1200 0.930 . S
C1208 N1207 1.305 . S
C1208 C1211 1.407 . S
C1209 H1203 0.930 . S
C1209 C1210 1.410 . S
C1209 C1211 1.345 . S
C1210 C1209 1.410 . S
C1210 C1212 1.417 . S
C1210 C1242 1.432 . S
C1211 H1197 0.930 . S
C1211 C1208 1.407 . S
C1211 C1209 1.345 . S
C1212 N1207 1.360 . S
C1212 C1210 1.417 . S
C1212 C1216 1.432 . S
H1213 C1218 0.930 . S
N1214 Tb1176 2.600 . S
N1214 C1216 1.359 . S
N1214 C1217 1.327 . S
C1215 H1201 0.931 . S
C1215 C1217 1.392 . S
C1215 C1218 1.370 . S
C1216 C1212 1.432 . S
C1216 N1214 1.359 . S
C1216 C1219 1.414 . S
C1217 H1199 0.930 . S
C1217 N1214 1.327 . S
C1217 C1215 1.392 . S
C1218 H1213 0.930 . S
C1218 C1215 1.370 . S
C1218 C1219 1.385 . S
C1219 C1216 1.414 . S
C1219 C1218 1.385 . S
C1219 C1241 1.444 . S
O1220 Tb1176 2.546 . S
O1220 C1240 1.251 . S
O1221 Tb1176 2.610 . S
O1221 Tb1187 2.362 . S
O1221 C1232 1.283 . S
O1222 Tb1187 2.421 . S
O1222 C1239 1.262 . S
O1223 Tb1176 2.320 . S
O1223 C1239 1.260 . S
O1224 Tb1176 2.552 . S
O1224 C1232 1.243 . S
O1225 Tb1176 2.413 . S
O1225 C1240 1.256 . S
O1226 Tb1187 2.546 . S
O1226 C1251 1.251 . S
O1227 Tb1176 2.362 . S
O1227 Tb1187 2.610 . S
O1227 C1243 1.283 . S
O1228 Tb1176 2.421 . S
O1228 C1250 1.262 . S
O1229 Tb1187 2.320 . S
O1229 C1250 1.260 . S
O1230 Tb1187 2.552 . S
O1230 C1243 1.243 . S
O1231 Tb1187 2.413 . S
O1231 C1251 1.256 . S
C1232 O1221 1.283 . S
C1232 O1224 1.243 . S
C1233 C1235 1.382 . S
C1233 C1237 1.393 . S
C1233 C1240 1.500 . S
C1234 C1235 1.400 . S
C1234 C1236 1.384 . S
C1235 C1233 1.382 . S
C1235 C1234 1.400 . S
C1235 H1252 0.930 . S
C1236 C1234 1.384 . S
C1236 C1238 1.392 . S
C1236 H1253 0.931 1_565 S
C1237 C1233 1.393 . S
C1237 C1238 1.401 . S
C1237 H1254 0.930 . S
C1238 C1236 1.392 . S
C1238 C1237 1.401 . S
C1238 H1255 0.930 . S
C1239 O1222 1.262 . S
C1239 O1223 1.260 . S
C1240 Tb1176 2.833 . S
C1240 O1220 1.251 . S
C1240 O1225 1.256 . S
C1240 C1233 1.500 . S
C1241 H1206 0.929 . S
C1241 C1219 1.444 . S
C1241 C1242 1.317 . S
C1242 H1204 0.930 . S
C1242 C1210 1.432 . S
C1242 C1241 1.317 . S
C1243 O1227 1.283 . S
C1243 O1230 1.243 . S
C1244 C1245 1.382 . S
C1244 C1248 1.393 . S
C1244 C1251 1.500 . S
C1245 C1244 1.382 . S
C1245 C1246 1.400 . S
C1245 H1256 0.930 . S
C1246 C1245 1.400 . S
C1246 C1247 1.384 . S
C1247 C1246 1.384 . S
C1247 C1249 1.392 . S
C1247 H1257 0.931 . S
C1248 C1244 1.393 . S
C1248 C1249 1.401 . S
C1248 H1258 0.930 . S
C1249 C1247 1.392 . S
C1249 C1248 1.401 . S
C1249 H1259 0.930 . S
C1250 O1228 1.262 . S
C1250 O1229 1.260 . S
C1251 Tb1187 2.833 . S
C1251 O1226 1.251 . S
C1251 O1231 1.256 . S
C1251 C1244 1.500 . S
H1252 C1235 0.930 . S
H1253 C1236 0.931 1_545 S
H1254 C1237 0.930 . S
H1255 C1238 0.930 . S
H1256 C1245 0.930 . S
H1257 C1247 0.931 . S
H1258 C1248 0.930 . S
H1259 C1249 0.930 . S
Tb1260 N1291 2.660 . S
Tb1260 N1298 2.600 . S
Tb1260 O1304 2.546 . S
Tb1260 O1305 2.610 . S
Tb1260 O1307 2.320 . S
Tb1260 O1308 2.552 . S
Tb1260 O1309 2.413 . S
Tb1260 O1311 2.362 . S
Tb1260 O1312 2.421 . S
Tb1260 C1324 2.833 . S
C1261 C1264 1.432 . S
C1261 C1265 1.414 . S
C1261 N1268 1.359 . S
C1262 C1264 1.417 . S
C1262 C1266 1.432 . S
C1262 C1274 1.410 . S
C1263 C1265 1.444 . S
C1263 C1266 1.317 . S
C1263 H1286 0.929 . S
C1264 C1261 1.432 . S
C1264 C1262 1.417 . S
C1264 N1272 1.360 . S
C1265 C1261 1.414 . S
C1265 C1263 1.444 . S
C1265 C1270 1.385 . S
C1266 C1262 1.432 . S
C1266 C1263 1.317 . S
C1266 H1278 0.930 . S
C1267 C1269 1.392 . S
C1267 C1270 1.370 . S
C1267 H1279 0.931 . S
N1268 C1261 1.359 . S
N1268 C1269 1.327 . S
N1268 Tb1271 2.600 . S
C1269 C1267 1.392 . S
C1269 N1268 1.327 . S
C1269 H1276 0.930 . S
C1270 C1265 1.385 . S
C1270 C1267 1.370 . S
C1270 H1289 0.930 . S
Tb1271 N1268 2.600 . S
Tb1271 N1272 2.660 . S
Tb1271 O1305 2.362 . S
Tb1271 O1306 2.421 . S
Tb1271 O1310 2.546 . S
Tb1271 O1311 2.610 . S
Tb1271 O1313 2.320 . S
Tb1271 O1314 2.552 . S
Tb1271 O1315 2.413 . S
Tb1271 C1335 2.833 . S
N1272 C1264 1.360 . S
N1272 Tb1271 2.660 . S
N1272 C1273 1.305 . S
C1273 N1272 1.305 . S
C1273 C1275 1.407 . S
C1273 H1280 0.930 . S
C1274 C1262 1.410 . S
C1274 C1275 1.345 . S
C1274 H1282 0.930 . S
C1275 C1273 1.407 . S
C1275 C1274 1.345 . S
C1275 H1277 0.930 . S
H1276 C1269 0.930 . S
H1277 C1275 0.930 . S
H1278 C1266 0.930 . S
H1279 C1267 0.931 . S
H1280 C1273 0.930 . S
H1281 C1295 0.930 . S
H1282 C1274 0.930 . S
H1283 C1301 0.930 . S
H1284 C1292 0.930 . S
H1285 C1299 0.931 . S
H1286 C1263 0.929 . S
H1287 C1293 0.930 . S
H1288 C1326 0.930 . S
H1289 C1270 0.930 . S
H1290 C1325 0.929 . S
N1291 Tb1260 2.660 . S
N1291 C1292 1.305 . S
N1291 C1296 1.360 . S
C1292 H1284 0.930 . S
C1292 N1291 1.305 . S
C1292 C1295 1.407 . S
C1293 H1287 0.930 . S
C1293 C1294 1.410 . S
C1293 C1295 1.345 . S
C1294 C1293 1.410 . S
C1294 C1296 1.417 . S
C1294 C1326 1.432 . S
C1295 H1281 0.930 . S
C1295 C1292 1.407 . S
C1295 C1293 1.345 . S
C1296 N1291 1.360 . S
C1296 C1294 1.417 . S
C1296 C1300 1.432 . S
H1297 C1302 0.930 . S
N1298 Tb1260 2.600 . S
N1298 C1300 1.359 . S
N1298 C1301 1.327 . S
C1299 H1285 0.931 . S
C1299 C1301 1.392 . S
C1299 C1302 1.370 . S
C1300 C1296 1.432 . S
C1300 N1298 1.359 . S
C1300 C1303 1.414 . S
C1301 H1283 0.930 . S
C1301 N1298 1.327 . S
C1301 C1299 1.392 . S
C1302 H1297 0.930 . S
C1302 C1299 1.370 . S
C1302 C1303 1.385 . S
C1303 C1300 1.414 . S
C1303 C1302 1.385 . S
C1303 C1325 1.444 . S
O1304 Tb1260 2.546 . S
O1304 C1324 1.251 . S
O1305 Tb1260 2.610 . S
O1305 Tb1271 2.362 . S
O1305 C1316 1.283 . S
O1306 Tb1271 2.421 . S
O1306 C1323 1.262 . S
O1307 Tb1260 2.320 . S
O1307 C1323 1.260 . S
O1308 Tb1260 2.552 . S
O1308 C1316 1.243 . S
O1309 Tb1260 2.413 . S
O1309 C1324 1.256 . S
O1310 Tb1271 2.546 . S
O1310 C1335 1.251 . S
O1311 Tb1260 2.362 . S
O1311 Tb1271 2.610 . S
O1311 C1327 1.283 . S
O1312 Tb1260 2.421 . S
O1312 C1334 1.262 . S
O1313 Tb1271 2.320 . S
O1313 C1334 1.260 . S
O1314 Tb1271 2.552 . S
O1314 C1327 1.243 . S
O1315 Tb1271 2.413 . S
O1315 C1335 1.256 . S
C1316 O1305 1.283 . S
C1316 O1308 1.243 . S
C1317 C1319 1.382 . S
C1317 C1321 1.393 . S
C1317 C1324 1.500 . S
C1318 C1319 1.400 . S
C1318 C1320 1.384 . S
C1319 C1317 1.382 . S
C1319 C1318 1.400 . S
C1319 H1336 0.930 . S
C1320 C1318 1.384 . S
C1320 C1322 1.392 . S
C1320 H1337 0.931 1_545 S
C1321 C1317 1.393 . S
C1321 C1322 1.401 . S
C1321 H1338 0.930 . S
C1322 C1320 1.392 . S
C1322 C1321 1.401 . S
C1322 H1339 0.930 . S
C1323 O1306 1.262 . S
C1323 O1307 1.260 . S
C1324 Tb1260 2.833 . S
C1324 O1304 1.251 . S
C1324 O1309 1.256 . S
C1324 C1317 1.500 . S
C1325 H1290 0.929 . S
C1325 C1303 1.444 . S
C1325 C1326 1.317 . S
C1326 H1288 0.930 . S
C1326 C1294 1.432 . S
C1326 C1325 1.317 . S
C1327 O1311 1.283 . S
C1327 O1314 1.243 . S
C1328 C1329 1.382 . S
C1328 C1332 1.393 . S
C1328 C1335 1.500 . S
C1329 C1328 1.382 . S
C1329 C1330 1.400 . S
C1329 H1340 0.930 . S
C1330 C1329 1.400 . S
C1330 C1331 1.384 . S
C1331 C1330 1.384 . S
C1331 C1333 1.392 . S
C1331 H1341 0.931 . S
C1332 C1328 1.393 . S
C1332 C1333 1.401 . S
C1332 H1342 0.930 . S
C1333 C1331 1.392 . S
C1333 C1332 1.401 . S
C1333 H1343 0.930 . S
C1334 O1312 1.262 . S
C1334 O1313 1.260 . S
C1335 Tb1271 2.833 . S
C1335 O1310 1.251 . S
C1335 O1315 1.256 . S
C1335 C1328 1.500 . S
H1336 C1319 0.930 . S
H1337 C1320 0.931 1_565 S
H1338 C1321 0.930 . S
H1339 C1322 0.930 . S
H1340 C1329 0.930 . S
H1341 C1331 0.931 . S
H1342 C1332 0.930 . S
H1343 C1333 0.930 . S
H1344 C1350 0.930 . S
H1345 C1353 0.930 . S
H1346 C1354 0.930 . S
H1347 C1355 0.930 . S
H1348 C1358 0.930 . S
H1349 C1359 0.930 . S
C1350 H1344 0.930 . S
C1350 C1351 1.355 . S
C1350 C1352 1.415 . S
C1351 C1350 1.355 . S
C1351 C1353 1.419 . S
C1352 C1350 1.415 . S
C1352 C1357 1.425 . S
C1352 C1359 1.409 . S
C1353 H1345 0.930 . S
C1353 C1351 1.419 . S
C1353 C1354 1.362 . S
C1354 H1346 0.930 . S
C1354 C1353 1.362 . S
C1354 C1357 1.409 . S
C1355 H1347 0.930 . S
C1355 C1356 1.355 . S
C1355 C1357 1.415 . S
C1356 C1355 1.355 . S
C1356 C1358 1.419 . S
C1357 C1352 1.425 . S
C1357 C1354 1.409 . S
C1357 C1355 1.415 . S
C1358 H1348 0.930 . S
C1358 C1356 1.419 . S
C1358 C1359 1.362 . S
C1359 H1349 0.930 . S
C1359 C1352 1.409 . S
C1359 C1358 1.362 . S
H1360 C1366 0.930 . S
H1361 C1369 0.930 . S
H1362 C1370 0.930 . S
H1363 C1371 0.930 . S
H1364 C1374 0.930 . S
H1365 C1375 0.930 . S
C1366 H1360 0.930 . S
C1366 C1367 1.355 . S
C1366 C1368 1.415 . S
C1367 C1366 1.355 . S
C1367 C1369 1.419 . S
C1368 C1366 1.415 . S
C1368 C1373 1.425 . S
C1368 C1375 1.409 . S
C1369 H1361 0.930 . S
C1369 C1367 1.419 . S
C1369 C1370 1.362 . S
C1370 H1362 0.930 . S
C1370 C1369 1.362 . S
C1370 C1373 1.409 . S
C1371 H1363 0.930 . S
C1371 C1372 1.355 . S
C1371 C1373 1.415 . S
C1372 C1371 1.355 . S
C1372 C1374 1.419 . S
C1373 C1368 1.425 . S
C1373 C1370 1.409 . S
C1373 C1371 1.415 . S
C1374 H1364 0.930 . S
C1374 C1372 1.419 . S
C1374 C1375 1.362 . S
C1375 H1365 0.930 . S
C1375 C1368 1.409 . S
C1375 C1374 1.362 . S
H1376 C1382 0.930 . S
H1377 C1385 0.930 . S
H1378 C1386 0.930 . S
H1379 C1387 0.930 . S
H1380 C1390 0.930 . S
H1381 C1391 0.930 . S
C1382 H1376 0.930 . S
C1382 C1383 1.355 . S
C1382 C1384 1.415 . S
C1383 C1382 1.355 . S
C1383 C1385 1.419 . S
C1384 C1382 1.415 . S
C1384 C1389 1.425 . S
C1384 C1391 1.409 . S
C1385 H1377 0.930 . S
C1385 C1383 1.419 . S
C1385 C1386 1.362 . S
C1386 H1378 0.930 . S
C1386 C1385 1.362 . S
C1386 C1389 1.409 . S
C1387 H1379 0.930 . S
C1387 C1388 1.355 . S
C1387 C1389 1.415 . S
C1388 C1387 1.355 . S
C1388 C1390 1.419 . S
C1389 C1384 1.425 . S
C1389 C1386 1.409 . S
C1389 C1387 1.415 . S
C1390 H1380 0.930 . S
C1390 C1388 1.419 . S
C1390 C1391 1.362 . S
C1391 H1381 0.930 . S
C1391 C1384 1.409 . S
C1391 C1390 1.362 . S
H1392 C1398 0.930 . S
H1393 C1401 0.930 . S
H1394 C1402 0.930 . S
H1395 C1403 0.930 . S
H1396 C1406 0.930 . S
H1397 C1407 0.930 . S
C1398 H1392 0.930 . S
C1398 C1399 1.355 . S
C1398 C1400 1.415 . S
C1399 C1398 1.355 . S
C1399 C1401 1.419 . S
C1400 C1398 1.415 . S
C1400 C1405 1.425 . S
C1400 C1407 1.409 . S
C1401 H1393 0.930 . S
C1401 C1399 1.419 . S
C1401 C1402 1.362 . S
C1402 H1394 0.930 . S
C1402 C1401 1.362 . S
C1402 C1405 1.409 . S
C1403 H1395 0.930 . S
C1403 C1404 1.355 . S
C1403 C1405 1.415 . S
C1404 C1403 1.355 . S
C1404 C1406 1.419 . S
C1405 C1400 1.425 . S
C1405 C1402 1.409 . S
C1405 C1403 1.415 . S
C1406 H1396 0.930 . S
C1406 C1404 1.419 . S
C1406 C1407 1.362 . S
C1407 H1397 0.930 . S
C1407 C1400 1.409 . S
C1407 C1406 1.362 . S
H1408 C1414 0.930 . S
H1409 C1417 0.930 . S
H1410 C1418 0.930 . S
H1411 C1419 0.930 . S
H1412 C1422 0.930 . S
H1413 C1423 0.930 . S
C1414 H1408 0.930 . S
C1414 C1415 1.355 . S
C1414 C1416 1.415 . S
C1415 C1414 1.355 . S
C1415 C1417 1.419 . S
C1416 C1414 1.415 . S
C1416 C1421 1.425 . S
C1416 C1423 1.409 . S
C1417 H1409 0.930 . S
C1417 C1415 1.419 . S
C1417 C1418 1.362 . S
C1418 H1410 0.930 . S
C1418 C1417 1.362 . S
C1418 C1421 1.409 . S
C1419 H1411 0.930 . S
C1419 C1420 1.355 . S
C1419 C1421 1.415 . S
C1420 C1419 1.355 . S
C1420 C1422 1.419 . S
C1421 C1416 1.425 . S
C1421 C1418 1.409 . S
C1421 C1419 1.415 . S
C1422 H1412 0.930 . S
C1422 C1420 1.419 . S
C1422 C1423 1.362 . S
C1423 H1413 0.930 . S
C1423 C1416 1.409 . S
C1423 C1422 1.362 . S
H1424 C1430 0.930 . S
H1425 C1433 0.930 . S
H1426 C1434 0.930 . S
H1427 C1435 0.930 . S
H1428 C1438 0.930 . S
H1429 C1439 0.930 . S
C1430 H1424 0.930 . S
C1430 C1431 1.355 . S
C1430 C1432 1.415 . S
C1431 C1430 1.355 . S
C1431 C1433 1.419 . S
C1432 C1430 1.415 . S
C1432 C1437 1.425 . S
C1432 C1439 1.409 . S
C1433 H1425 0.930 . S
C1433 C1431 1.419 . S
C1433 C1434 1.362 . S
C1434 H1426 0.930 . S
C1434 C1433 1.362 . S
C1434 C1437 1.409 . S
C1435 H1427 0.930 . S
C1435 C1436 1.355 . S
C1435 C1437 1.415 . S
C1436 C1435 1.355 . S
C1436 C1438 1.419 . S
C1437 C1432 1.425 . S
C1437 C1434 1.409 . S
C1437 C1435 1.415 . S
C1438 H1428 0.930 . S
C1438 C1436 1.419 . S
C1438 C1439 1.362 . S
C1439 H1429 0.930 . S
C1439 C1432 1.409 . S
C1439 C1438 1.362 . S
H1440 C1446 0.930 . S
H1441 C1449 0.930 . S
H1442 C1450 0.930 . S
H1443 C1451 0.930 . S
H1444 C1454 0.930 . S
H1445 C1455 0.930 . S
C1446 H1440 0.930 . S
C1446 C1447 1.355 . S
C1446 C1448 1.415 . S
C1447 C1446 1.355 . S
C1447 C1449 1.419 . S
C1448 C1446 1.415 . S
C1448 C1453 1.425 . S
C1448 C1455 1.409 . S
C1449 H1441 0.930 . S
C1449 C1447 1.419 . S
C1449 C1450 1.362 . S
C1450 H1442 0.930 . S
C1450 C1449 1.362 . S
C1450 C1453 1.409 . S
C1451 H1443 0.930 . S
C1451 C1452 1.355 . S
C1451 C1453 1.415 . S
C1452 C1451 1.355 . S
C1452 C1454 1.419 . S
C1453 C1448 1.425 . S
C1453 C1450 1.409 . S
C1453 C1451 1.415 . S
C1454 H1444 0.930 . S
C1454 C1452 1.419 . S
C1454 C1455 1.362 . S
C1455 H1445 0.930 . S
C1455 C1448 1.409 . S
C1455 C1454 1.362 . S
H1456 C1462 0.930 . S
H1457 C1465 0.930 . S
H1458 C1466 0.930 . S
H1459 C1467 0.930 . S
H1460 C1470 0.930 . S
H1461 C1471 0.930 . S
C1462 H1456 0.930 . S
C1462 C1463 1.355 . S
C1462 C1464 1.415 . S
C1463 C1462 1.355 . S
C1463 C1465 1.419 . S
C1464 C1462 1.415 . S
C1464 C1469 1.425 . S
C1464 C1471 1.409 . S
C1465 H1457 0.930 . S
C1465 C1463 1.419 . S
C1465 C1466 1.362 . S
C1466 H1458 0.930 . S
C1466 C1465 1.362 . S
C1466 C1469 1.409 . S
C1467 H1459 0.930 . S
C1467 C1468 1.355 . S
C1467 C1469 1.415 . S
C1468 C1467 1.355 . S
C1468 C1470 1.419 . S
C1469 C1464 1.425 . S
C1469 C1466 1.409 . S
C1469 C1467 1.415 . S
C1470 H1460 0.930 . S
C1470 C1468 1.419 . S
C1470 C1471 1.362 . S
C1471 H1461 0.930 . S
C1471 C1464 1.409 . S
C1471 C1470 1.362 . S
H1472 C1478 0.930 1_545 S
H1473 C1481 0.930 . S
H1474 C1482 0.930 . S
H1475 C1483 0.930 1_565 S
H1476 C1486 0.930 . S
H1477 C1487 0.930 . S
C1478 H1472 0.930 1_565 S
C1478 C1479 1.355 . S
C1478 C1480 1.415 1_565 S
C1479 C1478 1.355 . S
C1479 C1481 1.419 . S
C1480 C1478 1.415 1_545 S
C1480 C1485 1.425 1_545 S
C1480 C1487 1.409 . S
C1481 H1473 0.930 . S
C1481 C1479 1.419 . S
C1481 C1482 1.362 . S
C1482 H1474 0.930 . S
C1482 C1481 1.362 . S
C1482 C1485 1.409 . S
C1483 H1475 0.930 1_545 S
C1483 C1484 1.355 . S
C1483 C1485 1.415 1_545 S
C1484 C1483 1.355 . S
C1484 C1486 1.419 . S
C1485 C1480 1.425 1_565 S
C1485 C1482 1.409 . S
C1485 C1483 1.415 1_565 S
C1486 H1476 0.930 . S
C1486 C1484 1.419 . S
C1486 C1487 1.362 . S
C1487 H1477 0.930 . S
C1487 C1480 1.409 . S
C1487 C1486 1.362 . S
H1488 C1494 0.930 . S
H1489 C1497 0.930 . S
H1490 C1498 0.930 . S
H1491 C1499 0.930 . S
H1492 C1502 0.930 . S
H1493 C1503 0.930 . S
C1494 H1488 0.930 . S
C1494 C1495 1.355 . S
C1494 C1496 1.415 . S
C1495 C1494 1.355 . S
C1495 C1497 1.419 . S
C1496 C1494 1.415 . S
C1496 C1501 1.425 1_545 S
C1496 C1503 1.409 . S
C1497 H1489 0.930 . S
C1497 C1495 1.419 . S
C1497 C1498 1.362 1_545 S
C1498 H1490 0.930 . S
C1498 C1497 1.362 1_565 S
C1498 C1501 1.409 . S
C1499 H1491 0.930 . S
C1499 C1500 1.355 . S
C1499 C1501 1.415 . S
C1500 C1499 1.355 . S
C1500 C1502 1.419 . S
C1501 C1496 1.425 1_565 S
C1501 C1498 1.409 . S
C1501 C1499 1.415 . S
C1502 H1492 0.930 . S
C1502 C1500 1.419 . S
C1502 C1503 1.362 1_565 S
C1503 H1493 0.930 . S
C1503 C1496 1.409 . S
C1503 C1502 1.362 1_545 S
H1504 C1510 0.930 . S
H1505 C1513 0.930 . S
H1506 C1514 0.930 . S
H1507 C1515 0.930 . S
H1508 C1518 0.930 . S
H1509 C1519 0.930 . S
C1510 H1504 0.930 . S
C1510 C1511 1.355 . S
C1510 C1512 1.415 . S
C1511 C1510 1.355 . S
C1511 C1513 1.419 1_545 S
C1512 C1510 1.415 . S
C1512 C1517 1.425 1_545 S
C1512 C1519 1.409 . S
C1513 H1505 0.930 . S
C1513 C1511 1.419 1_565 S
C1513 C1514 1.362 . S
C1514 H1506 0.930 . S
C1514 C1513 1.362 . S
C1514 C1517 1.409 . S
C1515 H1507 0.930 . S
C1515 C1516 1.355 . S
C1515 C1517 1.415 . S
C1516 C1515 1.355 . S
C1516 C1518 1.419 1_565 S
C1517 C1512 1.425 1_565 S
C1517 C1514 1.409 . S
C1517 C1515 1.415 . S
C1518 H1508 0.930 . S
C1518 C1516 1.419 1_545 S
C1518 C1519 1.362 . S
C1519 H1509 0.930 . S
C1519 C1512 1.409 . S
C1519 C1518 1.362 . S
H1520 C1526 0.930 . S
H1521 C1529 0.930 . S
H1522 C1530 0.930 . S
H1523 C1531 0.930 . S
H1524 C1534 0.930 . S
H1525 C1535 0.930 . S
C1526 H1520 0.930 . S
C1526 C1527 1.355 . S
C1526 C1528 1.415 . S
C1527 C1526 1.355 . S
C1527 C1529 1.419 1_545 S
C1528 C1526 1.415 . S
C1528 C1533 1.425 1_545 S
C1528 C1535 1.409 . S
C1529 H1521 0.930 . S
C1529 C1527 1.419 1_565 S
C1529 C1530 1.362 . S
C1530 H1522 0.930 . S
C1530 C1529 1.362 . S
C1530 C1533 1.409 . S
C1531 H1523 0.930 . S
C1531 C1532 1.355 . S
C1531 C1533 1.415 . S
C1532 C1531 1.355 . S
C1532 C1534 1.419 1_565 S
C1533 C1528 1.425 1_565 S
C1533 C1530 1.409 . S
C1533 C1531 1.415 . S
C1534 H1524 0.930 . S
C1534 C1532 1.419 1_545 S
C1534 C1535 1.362 . S
C1535 H1525 0.930 . S
C1535 C1528 1.409 . S
C1535 C1534 1.362 . S
H1536 C1542 0.930 . S
H1537 C1545 0.930 . S
H1538 C1546 0.930 . S
H1539 C1547 0.930 . S
H1540 C1550 0.930 . S
H1541 C1551 0.930 . S
C1542 H1536 0.930 . S
C1542 C1543 1.355 . S
C1542 C1544 1.415 . S
C1543 C1542 1.355 . S
C1543 C1545 1.419 . S
C1544 C1542 1.415 . S
C1544 C1549 1.425 . S
C1544 C1551 1.409 . S
C1545 H1537 0.930 . S
C1545 C1543 1.419 . S
C1545 C1546 1.362 . S
C1546 H1538 0.930 . S
C1546 C1545 1.362 . S
C1546 C1549 1.409 . S
C1547 H1539 0.930 . S
C1547 C1548 1.355 . S
C1547 C1549 1.415 . S
C1548 C1547 1.355 . S
C1548 C1550 1.419 . S
C1549 C1544 1.425 . S
C1549 C1546 1.409 . S
C1549 C1547 1.415 . S
C1550 H1540 0.930 . S
C1550 C1548 1.419 . S
C1550 C1551 1.362 . S
C1551 H1541 0.930 . S
C1551 C1544 1.409 . S
C1551 C1550 1.362 . S
H1552 C1558 0.930 . S
H1553 C1561 0.930 . S
H1554 C1562 0.930 . S
H1555 C1563 0.930 . S
H1556 C1566 0.930 . S
H1557 C1567 0.930 . S
C1558 H1552 0.930 . S
C1558 C1559 1.355 . S
C1558 C1560 1.415 . S
C1559 C1558 1.355 . S
C1559 C1561 1.419 . S
C1560 C1558 1.415 . S
C1560 C1565 1.425 . S
C1560 C1567 1.409 . S
C1561 H1553 0.930 . S
C1561 C1559 1.419 . S
C1561 C1562 1.362 . S
C1562 H1554 0.930 . S
C1562 C1561 1.362 . S
C1562 C1565 1.409 . S
C1563 H1555 0.930 . S
C1563 C1564 1.355 . S
C1563 C1565 1.415 . S
C1564 C1563 1.355 . S
C1564 C1566 1.419 . S
C1565 C1560 1.425 . S
C1565 C1562 1.409 . S
C1565 C1563 1.415 . S
C1566 H1556 0.930 . S
C1566 C1564 1.419 . S
C1566 C1567 1.362 . S
C1567 H1557 0.930 . S
C1567 C1560 1.409 . S
C1567 C1566 1.362 . S
H1568 C1574 0.930 . S
H1569 C1577 0.930 . S
H1570 C1578 0.930 . S
H1571 C1579 0.930 . S
H1572 C1582 0.930 . S
H1573 C1583 0.930 . S
C1574 H1568 0.930 . S
C1574 C1575 1.355 . S
C1574 C1576 1.415 . S
C1575 C1574 1.355 . S
C1575 C1577 1.419 . S
C1576 C1574 1.415 . S
C1576 C1581 1.425 . S
C1576 C1583 1.409 . S
C1577 H1569 0.930 . S
C1577 C1575 1.419 . S
C1577 C1578 1.362 . S
C1578 H1570 0.930 . S
C1578 C1577 1.362 . S
C1578 C1581 1.409 . S
C1579 H1571 0.930 . S
C1579 C1580 1.355 . S
C1579 C1581 1.415 . S
C1580 C1579 1.355 . S
C1580 C1582 1.419 . S
C1581 C1576 1.425 . S
C1581 C1578 1.409 . S
C1581 C1579 1.415 . S
C1582 H1572 0.930 . S
C1582 C1580 1.419 . S
C1582 C1583 1.362 . S
C1583 H1573 0.930 . S
C1583 C1576 1.409 . S
C1583 C1582 1.362 . S
H1584 C1590 0.930 . S
H1585 C1593 0.930 . S
H1586 C1594 0.930 . S
H1587 C1595 0.930 . S
H1588 C1598 0.930 . S
H1589 C1599 0.930 . S
C1590 H1584 0.930 . S
C1590 C1591 1.355 . S
C1590 C1592 1.415 . S
C1591 C1590 1.355 . S
C1591 C1593 1.419 . S
C1592 C1590 1.415 . S
C1592 C1597 1.425 . S
C1592 C1599 1.409 . S
C1593 H1585 0.930 . S
C1593 C1591 1.419 . S
C1593 C1594 1.362 . S
C1594 H1586 0.930 . S
C1594 C1593 1.362 . S
C1594 C1597 1.409 . S
C1595 H1587 0.930 . S
C1595 C1596 1.355 . S
C1595 C1597 1.415 . S
C1596 C1595 1.355 . S
C1596 C1598 1.419 . S
C1597 C1592 1.425 . S
C1597 C1594 1.409 . S
C1597 C1595 1.415 . S
C1598 H1588 0.930 . S
C1598 C1596 1.419 . S
C1598 C1599 1.362 . S
C1599 H1589 0.930 . S
C1599 C1592 1.409 . S
C1599 C1598 1.362 . S
H1600 C1606 0.930 . S
H1601 C1609 0.930 . S
H1602 C1610 0.930 . S
H1603 C1611 0.930 . S
H1604 C1614 0.930 . S
H1605 C1615 0.930 . S
C1606 H1600 0.930 . S
C1606 C1607 1.355 . S
C1606 C1608 1.415 . S
C1607 C1606 1.355 . S
C1607 C1609 1.419 . S
C1608 C1606 1.415 . S
C1608 C1613 1.425 1_556 S
C1608 C1615 1.409 1_556 S
C1609 H1601 0.930 . S
C1609 C1607 1.419 . S
C1609 C1610 1.362 . S
C1610 H1602 0.930 . S
C1610 C1609 1.362 . S
C1610 C1613 1.409 1_556 S
C1611 H1603 0.930 . S
C1611 C1612 1.355 . S
C1611 C1613 1.415 . S
C1612 C1611 1.355 . S
C1612 C1614 1.419 . S
C1613 C1608 1.425 1_554 S
C1613 C1610 1.409 1_554 S
C1613 C1611 1.415 . S
C1614 H1604 0.930 . S
C1614 C1612 1.419 . S
C1614 C1615 1.362 . S
C1615 H1605 0.930 . S
C1615 C1608 1.409 1_554 S
C1615 C1614 1.362 . S
H1616 C1622 0.930 . S
H1617 C1625 0.930 . S
H1618 C1626 0.930 . S
H1619 C1627 0.930 . S
H1620 C1630 0.930 . S
H1621 C1631 0.930 . S
C1622 H1616 0.930 . S
C1622 C1623 1.355 . S
C1622 C1624 1.415 . S
C1623 C1622 1.355 . S
C1623 C1625 1.419 . S
C1624 C1622 1.415 . S
C1624 C1629 1.425 1_556 S
C1624 C1631 1.409 1_556 S
C1625 H1617 0.930 . S
C1625 C1623 1.419 . S
C1625 C1626 1.362 . S
C1626 H1618 0.930 . S
C1626 C1625 1.362 . S
C1626 C1629 1.409 1_556 S
C1627 H1619 0.930 . S
C1627 C1628 1.355 . S
C1627 C1629 1.415 . S
C1628 C1627 1.355 . S
C1628 C1630 1.419 . S
C1629 C1624 1.425 1_554 S
C1629 C1626 1.409 1_554 S
C1629 C1627 1.415 . S
C1630 H1620 0.930 . S
C1630 C1628 1.419 . S
C1630 C1631 1.362 . S
C1631 H1621 0.930 . S
C1631 C1624 1.409 1_554 S
C1631 C1630 1.362 . S
H1632 C1638 0.930 . S
H1633 C1641 0.930 . S
H1634 C1642 0.930 . S
H1635 C1643 0.930 . S
H1636 C1646 0.930 . S
H1637 C1647 0.930 . S
C1638 H1632 0.930 . S
C1638 C1639 1.355 . S
C1638 C1640 1.415 . S
C1639 C1638 1.355 . S
C1639 C1641 1.419 . S
C1640 C1638 1.415 . S
C1640 C1645 1.425 . S
C1640 C1647 1.409 . S
C1641 H1633 0.930 . S
C1641 C1639 1.419 . S
C1641 C1642 1.362 . S
C1642 H1634 0.930 . S
C1642 C1641 1.362 . S
C1642 C1645 1.409 . S
C1643 H1635 0.930 . S
C1643 C1644 1.355 . S
C1643 C1645 1.415 . S
C1644 C1643 1.355 . S
C1644 C1646 1.419 . S
C1645 C1640 1.425 . S
C1645 C1642 1.409 . S
C1645 C1643 1.415 . S
C1646 H1636 0.930 . S
C1646 C1644 1.419 . S
C1646 C1647 1.362 . S
C1647 H1637 0.930 . S
C1647 C1640 1.409 . S
C1647 C1646 1.362 . S
H1648 C1654 0.930 . S
H1649 C1657 0.930 . S
H1650 C1658 0.930 . S
H1651 C1659 0.930 . S
H1652 C1662 0.930 . S
H1653 C1663 0.930 . S
C1654 H1648 0.930 . S
C1654 C1655 1.355 . S
C1654 C1656 1.415 . S
C1655 C1654 1.355 . S
C1655 C1657 1.419 . S
C1656 C1654 1.415 . S
C1656 C1661 1.425 . S
C1656 C1663 1.409 . S
C1657 H1649 0.930 . S
C1657 C1655 1.419 . S
C1657 C1658 1.362 . S
C1658 H1650 0.930 . S
C1658 C1657 1.362 . S
C1658 C1661 1.409 . S
C1659 H1651 0.930 . S
C1659 C1660 1.355 . S
C1659 C1661 1.415 . S
C1660 C1659 1.355 . S
C1660 C1662 1.419 . S
C1661 C1656 1.425 . S
C1661 C1658 1.409 . S
C1661 C1659 1.415 . S
C1662 H1652 0.930 . S
C1662 C1660 1.419 . S
C1662 C1663 1.362 . S
C1663 H1653 0.930 . S
C1663 C1656 1.409 . S
C1663 C1662 1.362 . S
H1664 C1670 0.930 . S
H1665 C1673 0.930 . S
H1666 C1674 0.930 . S
H1667 C1675 0.930 . S
H1668 C1678 0.930 . S
H1669 C1679 0.930 . S
C1670 H1664 0.930 . S
C1670 C1671 1.355 . S
C1670 C1672 1.415 . S
C1671 C1670 1.355 . S
C1671 C1673 1.419 . S
C1672 C1670 1.415 . S
C1672 C1677 1.425 1_554 S
C1672 C1679 1.409 1_554 S
C1673 H1665 0.930 . S
C1673 C1671 1.419 . S
C1673 C1674 1.362 . S
C1674 H1666 0.930 . S
C1674 C1673 1.362 . S
C1674 C1677 1.409 1_554 S
C1675 H1667 0.930 . S
C1675 C1676 1.355 . S
C1675 C1677 1.415 . S
C1676 C1675 1.355 . S
C1676 C1678 1.419 . S
C1677 C1672 1.425 1_556 S
C1677 C1674 1.409 1_556 S
C1677 C1675 1.415 . S
C1678 H1668 0.930 . S
C1678 C1676 1.419 . S
C1678 C1679 1.362 . S
C1679 H1669 0.930 . S
C1679 C1672 1.409 1_556 S
C1679 C1678 1.362 . S
H1680 C1686 0.930 . S
H1681 C1689 0.930 . S
H1682 C1690 0.930 . S
H1683 C1691 0.930 . S
H1684 C1694 0.930 . S
H1685 C1695 0.930 . S
C1686 H1680 0.930 . S
C1686 C1687 1.355 . S
C1686 C1688 1.415 . S
C1687 C1686 1.355 . S
C1687 C1689 1.419 . S
C1688 C1686 1.415 . S
C1688 C1693 1.425 1_556 S
C1688 C1695 1.409 1_556 S
C1689 H1681 0.930 . S
C1689 C1687 1.419 . S
C1689 C1690 1.362 . S
C1690 H1682 0.930 . S
C1690 C1689 1.362 . S
C1690 C1693 1.409 1_556 S
C1691 H1683 0.930 . S
C1691 C1692 1.355 . S
C1691 C1693 1.415 . S
C1692 C1691 1.355 . S
C1692 C1694 1.419 . S
C1693 C1688 1.425 1_554 S
C1693 C1690 1.409 1_554 S
C1693 C1691 1.415 . S
C1694 H1684 0.930 . S
C1694 C1692 1.419 . S
C1694 C1695 1.362 . S
C1695 H1685 0.930 . S
C1695 C1688 1.409 1_554 S
C1695 C1694 1.362 . S
H1696 C1702 0.930 . S
H1697 C1705 0.930 . S
H1698 C1706 0.930 . S
H1699 C1707 0.930 . S
H1700 C1710 0.930 . S
H1701 C1711 0.930 . S
C1702 H1696 0.930 . S
C1702 C1703 1.355 . S
C1702 C1704 1.415 . S
C1703 C1702 1.355 . S
C1703 C1705 1.419 . S
C1704 C1702 1.415 . S
C1704 C1709 1.425 . S
C1704 C1711 1.409 . S
C1705 H1697 0.930 . S
C1705 C1703 1.419 . S
C1705 C1706 1.362 . S
C1706 H1698 0.930 . S
C1706 C1705 1.362 . S
C1706 C1709 1.409 . S
C1707 H1699 0.930 . S
C1707 C1708 1.355 . S
C1707 C1709 1.415 . S
C1708 C1707 1.355 . S
C1708 C1710 1.419 . S
C1709 C1704 1.425 . S
C1709 C1706 1.409 . S
C1709 C1707 1.415 . S
C1710 H1700 0.930 . S
C1710 C1708 1.419 . S
C1710 C1711 1.362 . S
C1711 H1701 0.930 . S
C1711 C1704 1.409 . S
C1711 C1710 1.362 . S
H1712 C1718 0.930 . S
H1713 C1721 0.930 . S
H1714 C1722 0.930 . S
H1715 C1723 0.930 . S
H1716 C1726 0.930 . S
H1717 C1727 0.930 . S
C1718 H1712 0.930 . S
C1718 C1719 1.355 . S
C1718 C1720 1.415 . S
C1719 C1718 1.355 . S
C1719 C1721 1.419 . S
C1720 C1718 1.415 . S
C1720 C1725 1.425 . S
C1720 C1727 1.409 . S
C1721 H1713 0.930 . S
C1721 C1719 1.419 . S
C1721 C1722 1.362 . S
C1722 H1714 0.930 . S
C1722 C1721 1.362 . S
C1722 C1725 1.409 . S
C1723 H1715 0.930 . S
C1723 C1724 1.355 . S
C1723 C1725 1.415 . S
C1724 C1723 1.355 . S
C1724 C1726 1.419 . S
C1725 C1720 1.425 . S
C1725 C1722 1.409 . S
C1725 C1723 1.415 . S
C1726 H1716 0.930 . S
C1726 C1724 1.419 . S
C1726 C1727 1.362 . S
C1727 H1717 0.930 . S
C1727 C1720 1.409 . S
C1727 C1726 1.362 . S
H1728 C1734 0.930 . S
H1729 C1737 0.930 . S
H1730 C1738 0.930 . S
H1731 C1739 0.930 . S
H1732 C1742 0.930 . S
H1733 C1743 0.930 . S
C1734 H1728 0.930 . S
C1734 C1735 1.355 . S
C1734 C1736 1.415 1_655 S
C1735 C1734 1.355 . S
C1735 C1737 1.419 1_565 S
C1736 C1734 1.415 1_455 S
C1736 C1741 1.425 1_465 S
C1736 C1743 1.409 . S
C1737 H1729 0.930 . S
C1737 C1735 1.419 1_545 S
C1737 C1738 1.362 . S
C1738 H1730 0.930 . S
C1738 C1737 1.362 . S
C1738 C1741 1.409 . S
C1739 H1731 0.930 . S
C1739 C1740 1.355 . S
C1739 C1741 1.415 1_455 S
C1740 C1739 1.355 . S
C1740 C1742 1.419 1_545 S
C1741 C1736 1.425 1_645 S
C1741 C1738 1.409 . S
C1741 C1739 1.415 1_655 S
C1742 H1732 0.930 . S
C1742 C1740 1.419 1_565 S
C1742 C1743 1.362 . S
C1743 H1733 0.930 . S
C1743 C1736 1.409 . S
C1743 C1742 1.362 . S
H1744 C1750 0.930 . S
H1745 C1753 0.930 . S
H1746 C1754 0.930 . S
H1747 C1755 0.930 . S
H1748 C1758 0.930 . S
H1749 C1759 0.930 . S
C1750 H1744 0.930 . S
C1750 C1751 1.355 1_565 S
C1750 C1752 1.415 . S
C1751 C1750 1.355 1_545 S
C1751 C1753 1.419 . S
C1752 C1750 1.415 . S
C1752 C1757 1.425 1_665 S
C1752 C1759 1.409 . S
C1753 H1745 0.930 . S
C1753 C1751 1.419 . S
C1753 C1754 1.362 1_655 S
C1754 H1746 0.930 . S
C1754 C1753 1.362 1_455 S
C1754 C1757 1.409 . S
C1755 H1747 0.930 . S
C1755 C1756 1.355 1_545 S
C1755 C1757 1.415 . S
C1756 C1755 1.355 1_565 S
C1756 C1758 1.419 . S
C1757 C1752 1.425 1_445 S
C1757 C1754 1.409 . S
C1757 C1755 1.415 . S
C1758 H1748 0.930 . S
C1758 C1756 1.419 . S
C1758 C1759 1.362 1_455 S
C1759 H1749 0.930 . S
C1759 C1752 1.409 . S
C1759 C1758 1.362 1_655 S
H1760 C1766 0.930 . S
H1761 C1769 0.930 . S
H1762 C1770 0.930 . S
H1763 C1771 0.930 . S
H1764 C1774 0.930 . S
H1765 C1775 0.930 . S
C1766 H1760 0.930 . S
C1766 C1767 1.355 . S
C1766 C1768 1.415 . S
C1767 C1766 1.355 . S
C1767 C1769 1.419 . S
C1768 C1766 1.415 . S
C1768 C1773 1.425 1_445 S
C1768 C1775 1.409 1_445 S
C1769 H1761 0.930 . S
C1769 C1767 1.419 . S
C1769 C1770 1.362 . S
C1770 H1762 0.930 . S
C1770 C1769 1.362 . S
C1770 C1773 1.409 1_445 S
C1771 H1763 0.930 . S
C1771 C1772 1.355 . S
C1771 C1773 1.415 . S
C1772 C1771 1.355 . S
C1772 C1774 1.419 . S
C1773 C1768 1.425 1_665 S
C1773 C1770 1.409 1_665 S
C1773 C1771 1.415 . S
C1774 H1764 0.930 . S
C1774 C1772 1.419 . S
C1774 C1775 1.362 . S
C1775 H1765 0.930 . S
C1775 C1768 1.409 1_665 S
C1775 C1774 1.362 . S
H1776 C1782 0.930 1_565 S
H1777 C1785 0.930 . S
H1778 C1786 0.944 . S
H1779 C1787 0.930 1_545 S
H1780 C1790 0.930 . S
H1781 C1791 0.944 . S
C1782 H1776 0.930 1_545 S
C1782 C1783 1.355 . S
C1782 C1784 1.415 1_545 S
C1783 C1782 1.355 . S
C1783 C1785 1.419 . S
C1784 C1782 1.415 1_565 S
C1784 C1789 1.425 1_665 S
C1784 C1791 1.416 . S
C1785 H1777 0.930 . S
C1785 C1783 1.419 . S
C1785 C1786 1.342 1_655 S
C1786 H1778 0.944 . S
C1786 C1785 1.342 1_455 S
C1786 C1789 1.416 . S
C1787 H1779 0.930 1_565 S
C1787 C1788 1.355 . S
C1787 C1789 1.415 1_565 S
C1788 C1787 1.355 . S
C1788 C1790 1.419 . S
C1789 C1784 1.425 1_445 S
C1789 C1786 1.416 . S
C1789 C1787 1.415 1_545 S
C1790 H1780 0.930 . S
C1790 C1788 1.419 . S
C1790 C1791 1.342 1_455 S
C1791 H1781 0.944 . S
C1791 C1784 1.416 . S
C1791 C1790 1.342 1_655 S
H1792 C1798 0.930 . S
H1793 C1801 0.930 . S
H1794 C1802 0.930 . S
H1795 C1803 0.930 . S
H1796 C1806 0.930 . S
H1797 C1807 0.930 . S
C1798 H1792 0.930 . S
C1798 C1799 1.355 . S
C1798 C1800 1.415 . S
C1799 C1798 1.355 . S
C1799 C1801 1.419 . S
C1800 C1798 1.415 . S
C1800 C1805 1.425 . S
C1800 C1807 1.409 . S
C1801 H1793 0.930 . S
C1801 C1799 1.419 . S
C1801 C1802 1.362 . S
C1802 H1794 0.930 . S
C1802 C1801 1.362 . S
C1802 C1805 1.409 . S
C1803 H1795 0.930 . S
C1803 C1804 1.355 . S
C1803 C1805 1.415 . S
C1804 C1803 1.355 . S
C1804 C1806 1.419 . S
C1805 C1800 1.425 . S
C1805 C1802 1.409 . S
C1805 C1803 1.415 . S
C1806 H1796 0.930 . S
C1806 C1804 1.419 . S
C1806 C1807 1.362 . S
C1807 H1797 0.930 . S
C1807 C1800 1.409 . S
C1807 C1806 1.362 . S
H1808 C1814 0.930 . S
H1809 C1817 0.930 . S
H1810 C1818 0.930 . S
H1811 C1819 0.930 . S
H1812 C1822 0.930 . S
H1813 C1823 0.930 . S
C1814 H1808 0.930 . S
C1814 C1815 1.355 . S
C1814 C1816 1.415 . S
C1815 C1814 1.355 . S
C1815 C1817 1.419 . S
C1816 C1814 1.415 . S
C1816 C1821 1.425 . S
C1816 C1823 1.409 . S
C1817 H1809 0.930 . S
C1817 C1815 1.419 . S
C1817 C1818 1.362 . S
C1818 H1810 0.930 . S
C1818 C1817 1.362 . S
C1818 C1821 1.409 . S
C1819 H1811 0.930 . S
C1819 C1820 1.355 . S
C1819 C1821 1.415 . S
C1820 C1819 1.355 . S
C1820 C1822 1.419 . S
C1821 C1816 1.425 . S
C1821 C1818 1.409 . S
C1821 C1819 1.415 . S
C1822 H1812 0.930 . S
C1822 C1820 1.419 . S
C1822 C1823 1.362 . S
C1823 H1813 0.930 . S
C1823 C1816 1.409 . S
C1823 C1822 1.362 . S
H1824 C1830 0.930 . S
H1825 C1833 0.930 . S
H1826 C1834 0.930 . S
H1827 C1835 0.930 . S
H1828 C1838 0.930 . S
H1829 C1839 0.930 . S
C1830 H1824 0.930 . S
C1830 C1831 1.355 . S
C1830 C1832 1.415 . S
C1831 C1830 1.355 . S
C1831 C1833 1.419 . S
C1832 C1830 1.415 . S
C1832 C1837 1.425 . S
C1832 C1839 1.409 . S
C1833 H1825 0.930 . S
C1833 C1831 1.419 . S
C1833 C1834 1.362 . S
C1834 H1826 0.930 . S
C1834 C1833 1.362 . S
C1834 C1837 1.409 . S
C1835 H1827 0.930 . S
C1835 C1836 1.355 . S
C1835 C1837 1.415 . S
C1836 C1835 1.355 . S
C1836 C1838 1.419 . S
C1837 C1832 1.425 . S
C1837 C1834 1.409 . S
C1837 C1835 1.415 . S
C1838 H1828 0.930 . S
C1838 C1836 1.419 . S
C1838 C1839 1.362 . S
C1839 H1829 0.930 . S
C1839 C1832 1.409 . S
C1839 C1838 1.362 . S
H1840 C1846 0.930 . S
H1841 C1849 0.930 . S
H1842 C1850 0.930 . S
H1843 C1851 0.930 . S
H1844 C1854 0.930 . S
H1845 C1855 0.930 . S
C1846 H1840 0.930 . S
C1846 C1847 1.355 . S
C1846 C1848 1.415 . S
C1847 C1846 1.355 . S
C1847 C1849 1.419 . S
C1848 C1846 1.415 . S
C1848 C1853 1.425 . S
C1848 C1855 1.409 . S
C1849 H1841 0.930 . S
C1849 C1847 1.419 . S
C1849 C1850 1.362 . S
C1850 H1842 0.930 . S
C1850 C1849 1.362 . S
C1850 C1853 1.409 . S
C1851 H1843 0.930 . S
C1851 C1852 1.355 . S
C1851 C1853 1.415 . S
C1852 C1851 1.355 . S
C1852 C1854 1.419 . S
C1853 C1848 1.425 . S
C1853 C1850 1.409 . S
C1853 C1851 1.415 . S
C1854 H1844 0.930 . S
C1854 C1852 1.419 . S
C1854 C1855 1.362 . S
C1855 H1845 0.930 . S
C1855 C1848 1.409 . S
C1855 C1854 1.362 . S
H1856 C1862 0.930 . S
H1857 C1865 0.930 . S
H1858 C1866 0.930 . S
H1859 C1867 0.930 . S
H1860 C1870 0.930 . S
H1861 C1871 0.930 . S
C1862 H1856 0.930 . S
C1862 C1863 1.355 . S
C1862 C1864 1.415 . S
C1863 C1862 1.355 . S
C1863 C1865 1.419 . S
C1864 C1862 1.415 . S
C1864 C1869 1.425 . S
C1864 C1871 1.409 . S
C1865 H1857 0.930 . S
C1865 C1863 1.419 . S
C1865 C1866 1.362 . S
C1866 H1858 0.930 . S
C1866 C1865 1.362 . S
C1866 C1869 1.409 . S
C1867 H1859 0.930 . S
C1867 C1868 1.355 . S
C1867 C1869 1.415 . S
C1868 C1867 1.355 . S
C1868 C1870 1.419 . S
C1869 C1864 1.425 . S
C1869 C1866 1.409 . S
C1869 C1867 1.415 . S
C1870 H1860 0.930 . S
C1870 C1868 1.419 . S
C1870 C1871 1.362 . S
C1871 H1861 0.930 . S
C1871 C1864 1.409 . S
C1871 C1870 1.362 . S
H1872 C1878 0.930 . S
H1873 C1881 0.930 . S
H1874 C1882 0.930 . S
H1875 C1883 0.930 . S
H1876 C1886 0.930 . S
H1877 C1887 0.930 . S
C1878 H1872 0.930 . S
C1878 C1879 1.355 . S
C1878 C1880 1.415 . S
C1879 C1878 1.355 . S
C1879 C1881 1.419 . S
C1880 C1878 1.415 . S
C1880 C1885 1.425 . S
C1880 C1887 1.409 . S
C1881 H1873 0.930 . S
C1881 C1879 1.419 . S
C1881 C1882 1.362 . S
C1882 H1874 0.930 . S
C1882 C1881 1.362 . S
C1882 C1885 1.409 . S
C1883 H1875 0.930 . S
C1883 C1884 1.355 . S
C1883 C1885 1.415 . S
C1884 C1883 1.355 . S
C1884 C1886 1.419 . S
C1885 C1880 1.425 . S
C1885 C1882 1.409 . S
C1885 C1883 1.415 . S
C1886 H1876 0.930 . S
C1886 C1884 1.419 . S
C1886 C1887 1.362 . S
C1887 H1877 0.930 . S
C1887 C1880 1.409 . S
C1887 C1886 1.362 . S
H1888 C1894 0.930 . S
H1889 C1897 0.930 . S
H1890 C1898 0.930 . S
H1891 C1899 0.930 . S
H1892 C1902 0.930 . S
H1893 C1903 0.930 . S
C1894 H1888 0.930 . S
C1894 C1895 1.355 . S
C1894 C1896 1.415 . S
C1895 C1894 1.355 . S
C1895 C1897 1.419 . S
C1896 C1894 1.415 . S
C1896 C1901 1.425 . S
C1896 C1903 1.409 . S
C1897 H1889 0.930 . S
C1897 C1895 1.419 . S
C1897 C1898 1.362 . S
C1898 H1890 0.930 . S
C1898 C1897 1.362 . S
C1898 C1901 1.409 . S
C1899 H1891 0.930 . S
C1899 C1900 1.355 . S
C1899 C1901 1.415 . S
C1900 C1899 1.355 . S
C1900 C1902 1.419 . S
C1901 C1896 1.425 . S
C1901 C1898 1.409 . S
C1901 C1899 1.415 . S
C1902 H1892 0.930 . S
C1902 C1900 1.419 . S
C1902 C1903 1.362 . S
C1903 H1893 0.930 . S
C1903 C1896 1.409 . S
C1903 C1902 1.362 . S
H1904 C1910 0.930 . S
H1905 C1913 0.930 . S
H1906 C1914 0.930 . S
H1907 C1915 0.930 . S
H1908 C1918 0.930 . S
H1909 C1919 0.930 . S
C1910 H1904 0.930 . S
C1910 C1911 1.355 . S
C1910 C1912 1.415 . S
C1911 C1910 1.355 . S
C1911 C1913 1.419 . S
C1912 C1910 1.415 . S
C1912 C1917 1.425 . S
C1912 C1919 1.409 . S
C1913 H1905 0.930 . S
C1913 C1911 1.419 . S
C1913 C1914 1.362 . S
C1914 H1906 0.930 . S
C1914 C1913 1.362 . S
C1914 C1917 1.409 . S
C1915 H1907 0.930 . S
C1915 C1916 1.355 . S
C1915 C1917 1.415 . S
C1916 C1915 1.355 . S
C1916 C1918 1.419 . S
C1917 C1912 1.425 . S
C1917 C1914 1.409 . S
C1917 C1915 1.415 . S
C1918 H1908 0.930 . S
C1918 C1916 1.419 . S
C1918 C1919 1.362 . S
C1919 H1909 0.930 . S
C1919 C1912 1.409 . S
C1919 C1918 1.362 . S
H1920 C1926 0.930 . S
H1921 C1929 0.930 . S
H1922 C1930 0.930 . S
H1923 C1931 0.930 . S
H1924 C1934 0.930 . S
H1925 C1935 0.930 . S
C1926 H1920 0.930 . S
C1926 C1927 1.355 . S
C1926 C1928 1.415 . S
C1927 C1926 1.355 . S
C1927 C1929 1.419 . S
C1928 C1926 1.415 . S
C1928 C1933 1.425 . S
C1928 C1935 1.409 . S
C1929 H1921 0.930 . S
C1929 C1927 1.419 . S
C1929 C1930 1.362 . S
C1930 H1922 0.930 . S
C1930 C1929 1.362 . S
C1930 C1933 1.409 . S
C1931 H1923 0.930 . S
C1931 C1932 1.355 . S
C1931 C1933 1.415 . S
C1932 C1931 1.355 . S
C1932 C1934 1.419 . S
C1933 C1928 1.425 . S
C1933 C1930 1.409 . S
C1933 C1931 1.415 . S
C1934 H1924 0.930 . S
C1934 C1932 1.419 . S
C1934 C1935 1.362 . S
C1935 H1925 0.930 . S
C1935 C1928 1.409 . S
C1935 C1934 1.362 . S
H1936 C1942 0.930 . S
H1937 C1945 0.930 . S
H1938 C1946 0.930 . S
H1939 C1947 0.930 . S
H1940 C1950 0.930 . S
H1941 C1951 0.930 . S
C1942 H1936 0.930 . S
C1942 C1943 1.355 . S
C1942 C1944 1.415 . S
C1943 C1942 1.355 . S
C1943 C1945 1.419 . S
C1944 C1942 1.415 . S
C1944 C1949 1.425 . S
C1944 C1951 1.409 . S
C1945 H1937 0.930 . S
C1945 C1943 1.419 . S
C1945 C1946 1.362 . S
C1946 H1938 0.930 . S
C1946 C1945 1.362 . S
C1946 C1949 1.409 . S
C1947 H1939 0.930 . S
C1947 C1948 1.355 . S
C1947 C1949 1.415 . S
C1948 C1947 1.355 . S
C1948 C1950 1.419 . S
C1949 C1944 1.425 . S
C1949 C1946 1.409 . S
C1949 C1947 1.415 . S
C1950 H1940 0.930 . S
C1950 C1948 1.419 . S
C1950 C1951 1.362 . S
C1951 H1941 0.930 . S
C1951 C1944 1.409 . S
C1951 C1950 1.362 . S
H1952 C1958 0.930 . S
H1953 C1961 0.930 . S
H1954 C1962 0.930 . S
H1955 C1963 0.930 . S
H1956 C1966 0.930 . S
H1957 C1967 0.930 . S
C1958 H1952 0.930 . S
C1958 C1959 1.355 . S
C1958 C1960 1.415 . S
C1959 C1958 1.355 . S
C1959 C1961 1.419 . S
C1960 C1958 1.415 . S
C1960 C1965 1.425 . S
C1960 C1967 1.409 . S
C1961 H1953 0.930 . S
C1961 C1959 1.419 . S
C1961 C1962 1.362 . S
C1962 H1954 0.930 . S
C1962 C1961 1.362 . S
C1962 C1965 1.409 . S
C1963 H1955 0.930 . S
C1963 C1964 1.355 . S
C1963 C1965 1.415 . S
C1964 C1963 1.355 . S
C1964 C1966 1.419 . S
C1965 C1960 1.425 . S
C1965 C1962 1.409 . S
C1965 C1963 1.415 . S
C1966 H1956 0.930 . S
C1966 C1964 1.419 . S
C1966 C1967 1.362 . S
C1967 H1957 0.930 . S
C1967 C1960 1.409 . S
C1967 C1966 1.362 . S
H1968 C1974 0.930 . S
H1969 C1977 0.930 . S
H1970 C1978 0.930 . S
H1971 C1979 0.930 . S
H1972 C1982 0.930 . S
H1973 C1983 0.930 . S
C1974 H1968 0.930 . S
C1974 C1975 1.355 . S
C1974 C1976 1.415 . S
C1975 C1974 1.355 . S
C1975 C1977 1.419 . S
C1976 C1974 1.415 . S
C1976 C1981 1.425 . S
C1976 C1983 1.409 . S
C1977 H1969 0.930 . S
C1977 C1975 1.419 . S
C1977 C1978 1.362 . S
C1978 H1970 0.930 . S
C1978 C1977 1.362 . S
C1978 C1981 1.409 . S
C1979 H1971 0.930 . S
C1979 C1980 1.355 . S
C1979 C1981 1.415 . S
C1980 C1979 1.355 . S
C1980 C1982 1.419 . S
C1981 C1976 1.425 . S
C1981 C1978 1.409 . S
C1981 C1979 1.415 . S
C1982 H1972 0.930 . S
C1982 C1980 1.419 . S
C1982 C1983 1.362 . S
C1983 H1973 0.930 . S
C1983 C1976 1.409 . S
C1983 C1982 1.362 . S
H1984 C1990 0.930 . S
H1985 C1993 0.930 . S
H1986 C1994 0.930 . S
H1987 C1995 0.930 . S
H1988 C1998 0.930 . S
H1989 C1999 0.930 . S
C1990 H1984 0.930 . S
C1990 C1991 1.355 . S
C1990 C1992 1.415 . S
C1991 C1990 1.355 . S
C1991 C1993 1.419 . S
C1992 C1990 1.415 . S
C1992 C1997 1.425 . S
C1992 C1999 1.409 . S
C1993 H1985 0.930 . S
C1993 C1991 1.419 . S
C1993 C1994 1.362 . S
C1994 H1986 0.930 . S
C1994 C1993 1.362 . S
C1994 C1997 1.409 . S
C1995 H1987 0.930 . S
C1995 C1996 1.355 . S
C1995 C1997 1.415 . S
C1996 C1995 1.355 . S
C1996 C1998 1.419 . S
C1997 C1992 1.425 . S
C1997 C1994 1.409 . S
C1997 C1995 1.415 . S
C1998 H1988 0.930 . S
C1998 C1996 1.419 . S
C1998 C1999 1.362 . S
C1999 H1989 0.930 . S
C1999 C1992 1.409 . S
C1999 C1998 1.362 . S
H2000 C2006 0.930 . S
H2001 C2009 0.930 . S
H2002 C2010 0.930 . S
H2003 C2011 0.930 . S
H2004 C2014 0.930 . S
H2005 C2015 0.930 . S
C2006 H2000 0.930 . S
C2006 C2007 1.355 . S
C2006 C2008 1.415 . S
C2007 C2006 1.355 . S
C2007 C2009 1.419 . S
C2008 C2006 1.415 . S
C2008 C2013 1.425 . S
C2008 C2015 1.409 . S
C2009 H2001 0.930 . S
C2009 C2007 1.419 . S
C2009 C2010 1.362 . S
C2010 H2002 0.930 . S
C2010 C2009 1.362 . S
C2010 C2013 1.409 . S
C2011 H2003 0.930 . S
C2011 C2012 1.355 . S
C2011 C2013 1.415 . S
C2012 C2011 1.355 . S
C2012 C2014 1.419 . S
C2013 C2008 1.425 . S
C2013 C2010 1.409 . S
C2013 C2011 1.415 . S
C2014 H2004 0.930 . S
C2014 C2012 1.419 . S
C2014 C2015 1.362 . S
C2015 H2005 0.930 . S
C2015 C2008 1.409 . S
C2015 C2014 1.362 . S
H2016 C2022 0.930 . S
H2017 C2025 0.930 . S
H2018 C2026 0.930 . S
H2019 C2027 0.930 . S
H2020 C2030 0.930 . S
H2021 C2031 0.930 . S
C2022 H2016 0.930 . S
C2022 C2023 1.355 . S
C2022 C2024 1.415 . S
C2023 C2022 1.355 . S
C2023 C2025 1.419 . S
C2024 C2022 1.415 . S
C2024 C2029 1.425 . S
C2024 C2031 1.409 . S
C2025 H2017 0.930 . S
C2025 C2023 1.419 . S
C2025 C2026 1.362 . S
C2026 H2018 0.930 . S
C2026 C2025 1.362 . S
C2026 C2029 1.409 . S
C2027 H2019 0.930 . S
C2027 C2028 1.355 . S
C2027 C2029 1.415 . S
C2028 C2027 1.355 . S
C2028 C2030 1.419 . S
C2029 C2024 1.425 . S
C2029 C2026 1.409 . S
C2029 C2027 1.415 . S
C2030 H2020 0.930 . S
C2030 C2028 1.419 . S
C2030 C2031 1.362 . S
C2031 H2021 0.930 . S
C2031 C2024 1.409 . S
C2031 C2030 1.362 . S
H2032 C2038 0.930 . S
H2033 C2041 0.930 1_565 S
H2034 C2042 0.930 . S
H2035 C2043 0.930 . S
H2036 C2046 0.930 . S
H2037 C2047 0.930 . S
C2038 H2032 0.930 . S
C2038 C2039 1.355 . S
C2038 C2040 1.415 . S
C2039 C2038 1.355 . S
C2039 C2041 1.419 . S
C2040 C2038 1.415 . S
C2040 C2045 1.425 . S
C2040 C2047 1.409 . S
C2041 H2033 0.930 1_545 S
C2041 C2039 1.419 . S
C2041 C2042 1.362 . S
C2042 H2034 0.930 . S
C2042 C2041 1.362 . S
C2042 C2045 1.409 . S
C2043 H2035 0.930 . S
C2043 C2044 1.355 . S
C2043 C2045 1.415 . S
C2044 C2043 1.355 . S
C2044 C2046 1.419 . S
C2045 C2040 1.425 . S
C2045 C2042 1.409 . S
C2045 C2043 1.415 . S
C2046 H2036 0.930 . S
C2046 C2044 1.419 . S
C2046 C2047 1.362 . S
C2047 H2037 0.930 . S
C2047 C2040 1.409 . S
C2047 C2046 1.362 . S
H2048 C2054 0.930 . S
H2049 C2057 0.930 . S
H2050 C2058 0.930 . S
H2051 C2059 0.930 . S
H2052 C2062 0.930 . S
H2053 C2063 0.930 . S
C2054 H2048 0.930 . S
C2054 C2055 1.355 . S
C2054 C2056 1.415 . S
C2055 C2054 1.355 . S
C2055 C2057 1.419 . S
C2056 C2054 1.415 . S
C2056 C2061 1.425 . S
C2056 C2063 1.409 . S
C2057 H2049 0.930 . S
C2057 C2055 1.419 . S
C2057 C2058 1.362 . S
C2058 H2050 0.930 . S
C2058 C2057 1.362 . S
C2058 C2061 1.409 . S
C2059 H2051 0.930 . S
C2059 C2060 1.355 . S
C2059 C2061 1.415 . S
C2060 C2059 1.355 . S
C2060 C2062 1.419 . S
C2061 C2056 1.425 . S
C2061 C2058 1.409 . S
C2061 C2059 1.415 . S
C2062 H2052 0.930 . S
C2062 C2060 1.419 . S
C2062 C2063 1.362 . S
C2063 H2053 0.930 . S
C2063 C2056 1.409 . S
C2063 C2062 1.362 . S
H2064 C2070 0.930 . S
H2065 C2073 0.930 . S
H2066 C2074 0.930 . S
H2067 C2075 0.930 . S
H2068 C2078 0.930 . S
H2069 C2079 0.930 . S
C2070 H2064 0.930 . S
C2070 C2071 1.355 . S
C2070 C2072 1.415 . S
C2071 C2070 1.355 . S
C2071 C2073 1.419 . S
C2072 C2070 1.415 . S
C2072 C2077 1.425 . S
C2072 C2079 1.409 . S
C2073 H2065 0.930 . S
C2073 C2071 1.419 . S
C2073 C2074 1.362 . S
C2074 H2066 0.930 . S
C2074 C2073 1.362 . S
C2074 C2077 1.409 . S
C2075 H2067 0.930 . S
C2075 C2076 1.355 . S
C2075 C2077 1.415 . S
C2076 C2075 1.355 . S
C2076 C2078 1.419 . S
C2077 C2072 1.425 . S
C2077 C2074 1.409 . S
C2077 C2075 1.415 . S
C2078 H2068 0.930 . S
C2078 C2076 1.419 . S
C2078 C2079 1.362 . S
C2079 H2069 0.930 . S
C2079 C2072 1.409 . S
C2079 C2078 1.362 . S
H2080 C2086 0.930 . S
H2081 C2089 0.930 . S
H2082 C2090 0.930 . S
H2083 C2091 0.930 . S
H2084 C2094 0.930 . S
H2085 C2095 0.930 . S
C2086 H2080 0.930 . S
C2086 C2087 1.355 . S
C2086 C2088 1.415 . S
C2087 C2086 1.355 . S
C2087 C2089 1.419 . S
C2088 C2086 1.415 . S
C2088 C2093 1.425 . S
C2088 C2095 1.409 . S
C2089 H2081 0.930 . S
C2089 C2087 1.419 . S
C2089 C2090 1.362 . S
C2090 H2082 0.930 . S
C2090 C2089 1.362 . S
C2090 C2093 1.409 . S
C2091 H2083 0.930 . S
C2091 C2092 1.355 . S
C2091 C2093 1.415 . S
C2092 C2091 1.355 . S
C2092 C2094 1.419 . S
C2093 C2088 1.425 . S
C2093 C2090 1.409 . S
C2093 C2091 1.415 . S
C2094 H2084 0.930 . S
C2094 C2092 1.419 . S
C2094 C2095 1.362 . S
C2095 H2085 0.930 . S
C2095 C2088 1.409 . S
C2095 C2094 1.362 . S
H2096 C2102 0.930 . S
H2097 C2105 0.930 . S
H2098 C2106 0.930 . S
H2099 C2107 0.930 . S
H2100 C2110 0.930 . S
H2101 C2111 0.930 . S
C2102 H2096 0.930 . S
C2102 C2103 1.355 . S
C2102 C2104 1.415 . S
C2103 C2102 1.355 . S
C2103 C2105 1.419 . S
C2104 C2102 1.415 . S
C2104 C2109 1.425 . S
C2104 C2111 1.409 . S
C2105 H2097 0.930 . S
C2105 C2103 1.419 . S
C2105 C2106 1.362 . S
C2106 H2098 0.930 . S
C2106 C2105 1.362 . S
C2106 C2109 1.409 . S
C2107 H2099 0.930 . S
C2107 C2108 1.355 . S
C2107 C2109 1.415 . S
C2108 C2107 1.355 . S
C2108 C2110 1.419 . S
C2109 C2104 1.425 . S
C2109 C2106 1.409 . S
C2109 C2107 1.415 . S
C2110 H2100 0.930 . S
C2110 C2108 1.419 . S
C2110 C2111 1.362 . S
C2111 H2101 0.930 . S
C2111 C2104 1.409 . S
C2111 C2110 1.362 . S
C1351 C67 1.477 . S
C1356 C823 1.465 . S
C1367 C151 1.478 . S
C1372 C739 1.461 . S
C1383 C991 1.401 . S
C1388 C235 1.428 . S
C1399 C319 1.415 . S
C1404 C907 1.459 . S
C1415 C1148 1.409 . S
C1420 C392 1.406 . S
C1431 C1064 1.467 . S
C1436 C476 1.424 . S
C1447 C1316 1.411 . S
C1452 C560 1.405 . S
C1463 C644 1.402 . S
C1468 C1232 1.419 . S
C1479 C231 1.645 . S
C1484 C63 1.607 . S
C1495 C315 1.604 . S
C1500 C147 1.650 . S
C1511 C578 1.640 . S
C1516 C410 1.619 . S
C1527 C494 1.635 . S
C1532 C662 1.625 . S
C1543 C903 1.650 . S
C1548 C735 1.607 . S
C1559 C987 1.640 . S
C1564 C819 1.610 . S
C1575 C1082 1.618 . S
C1580 C1250 1.642 . S
C1591 C1166 1.613 . S
C1596 C1334 1.646 . S
C1607 C483 1.693 . S
C1612 C74 1.722 . S
C1623 C399 1.695 . S
C1628 C158 1.719 . S
C1639 C242 1.741 . S
C1644 C651 1.673 . S
C1655 C567 1.670 . S
C1660 C326 1.744 . S
C1671 C746 1.678 . S
C1676 C1155 1.737 . S
C1687 C1071 1.697 . S
C1692 C830 1.718 . S
C1703 C914 1.682 . S
C1708 C1323 1.733 . S
C1719 C1239 1.721 . S
C1724 C998 1.694 . S
C1735 C140 1.421 . S
C1740 C56 1.405 . S
C1751 C308 1.464 . S
C1756 C224 1.480 . S
C1767 C487 1.430 . S
C1772 C403 1.472 . S
C1783 C571 1.471 . S
C1788 C655 1.477 . S
C1799 C812 1.433 . S
C1804 C728 1.404 . S
C1815 C980 1.472 . S
C1820 C896 1.476 . S
C1831 C1075 1.418 . S
C1836 C1159 1.407 . S
C1847 C1243 1.468 . S
C1852 C1327 1.478 . S
C1863 C58 1.392 . S
C1868 C70 1.392 . S
C1879 C142 1.365 . S
C1884 C154 1.365 . S
C1895 C226 1.320 . S
C1900 C238 1.320 . S
C1911 C322 1.386 . S
C1916 C310 1.386 . S
C1927 C406 1.257 . S
C1932 C394 1.257 . S
C1943 C478 1.277 . S
C1948 C490 1.277 . S
C1959 C574 1.258 . S
C1964 C562 1.258 . S
C1975 C658 1.400 . S
C1980 C646 1.400 . S
C1991 C742 1.392 1_545 S
C1996 C730 1.392 . S
C2007 C814 1.404 . S
C2012 C826 1.404 1_565 S
C2023 C910 1.366 1_565 S
C2028 C898 1.366 . S
C2039 C994 1.256 1_545 S
C2044 C982 1.256 . S
C2055 C1078 1.355 . S
C2060 C1066 1.355 1_565 S
C2071 C1162 1.403 . S
C2076 C1150 1.403 1_545 S
C2087 C1234 1.315 1_545 S
C2092 C1246 1.315 . S
C2103 C1330 1.312 . S
C2108 C1318 1.312 1_565 S
