# Generated by pormake.
# Topology crs, (6)-cn, num edge types: 1
# Building blocks:
#     Node 0, Type 0, BuildingBlock: MAKGUD_clean_sbu_1, # of connection points: 6
#     Node 1, Type 0, BuildingBlock: MAKGUD_clean_sbu_1, # of connection points: 6
#     Node 2, Type 0, BuildingBlock: MAKGUD_clean_sbu_1, # of connection points: 6
#     Node 3, Type 0, BuildingBlock: MAKGUD_clean_sbu_1, # of connection points: 6
#     Node 4, Type 0, BuildingBlock: MAKGUD_clean_sbu_1, # of connection points: 6
#     Node 5, Type 0, BuildingBlock: MAKGUD_clean_sbu_1, # of connection points: 6
#     Node 6, Type 0, BuildingBlock: MAKGUD_clean_sbu_1, # of connection points: 6
#     Node 7, Type 0, BuildingBlock: MAKGUD_clean_sbu_1, # of connection points: 6
#     Node 8, Type 0, BuildingBlock: MAKGUD_clean_sbu_1, # of connection points: 6
#     Node 9, Type 0, BuildingBlock: MAKGUD_clean_sbu_1, # of connection points: 6
#     Node 10, Type 0, BuildingBlock: MAKGUD_clean_sbu_1, # of connection points: 6
#     Node 11, Type 0, BuildingBlock: MAKGUD_clean_sbu_1, # of connection points: 6
#     Node 12, Type 0, BuildingBlock: MAKGUD_clean_sbu_1, # of connection points: 6
#     Node 13, Type 0, BuildingBlock: MAKGUD_clean_sbu_1, # of connection points: 6
#     Node 14, Type 0, BuildingBlock: MAKGUD_clean_sbu_1, # of connection points: 6
#     Node 15, Type 0, BuildingBlock: MAKGUD_clean_sbu_1, # of connection points: 6
#     Edge 16, Type (0, 0), BuildingBlock: EZIPEK_clean_linker_0, # of connection points: 2
#     Edge 17, Type (0, 0), BuildingBlock: EZIPEK_clean_linker_0, # of connection points: 2
#     Edge 18, Type (0, 0), BuildingBlock: EZIPEK_clean_linker_0, # of connection points: 2
#     Edge 19, Type (0, 0), BuildingBlock: EZIPEK_clean_linker_0, # of connection points: 2
#     Edge 20, Type (0, 0), BuildingBlock: EZIPEK_clean_linker_0, # of connection points: 2
#     Edge 21, Type (0, 0), BuildingBlock: EZIPEK_clean_linker_0, # of connection points: 2
#     Edge 22, Type (0, 0), BuildingBlock: EZIPEK_clean_linker_0, # of connection points: 2
#     Edge 23, Type (0, 0), BuildingBlock: EZIPEK_clean_linker_0, # of connection points: 2
#     Edge 24, Type (0, 0), BuildingBlock: EZIPEK_clean_linker_0, # of connection points: 2
#     Edge 25, Type (0, 0), BuildingBlock: EZIPEK_clean_linker_0, # of connection points: 2
#     Edge 26, Type (0, 0), BuildingBlock: EZIPEK_clean_linker_0, # of connection points: 2
#     Edge 27, Type (0, 0), BuildingBlock: EZIPEK_clean_linker_0, # of connection points: 2
#     Edge 28, Type (0, 0), BuildingBlock: EZIPEK_clean_linker_0, # of connection points: 2
#     Edge 29, Type (0, 0), BuildingBlock: EZIPEK_clean_linker_0, # of connection points: 2
#     Edge 30, Type (0, 0), BuildingBlock: EZIPEK_clean_linker_0, # of connection points: 2
#     Edge 31, Type (0, 0), BuildingBlock: EZIPEK_clean_linker_0, # of connection points: 2
#     Edge 32, Type (0, 0), BuildingBlock: EZIPEK_clean_linker_0, # of connection points: 2
#     Edge 33, Type (0, 0), BuildingBlock: EZIPEK_clean_linker_0, # of connection points: 2
#     Edge 34, Type (0, 0), BuildingBlock: EZIPEK_clean_linker_0, # of connection points: 2
#     Edge 35, Type (0, 0), BuildingBlock: EZIPEK_clean_linker_0, # of connection points: 2
#     Edge 36, Type (0, 0), BuildingBlock: EZIPEK_clean_linker_0, # of connection points: 2
#     Edge 37, Type (0, 0), BuildingBlock: EZIPEK_clean_linker_0, # of connection points: 2
#     Edge 38, Type (0, 0), BuildingBlock: EZIPEK_clean_linker_0, # of connection points: 2
#     Edge 39, Type (0, 0), BuildingBlock: EZIPEK_clean_linker_0, # of connection points: 2
#     Edge 40, Type (0, 0), BuildingBlock: EZIPEK_clean_linker_0, # of connection points: 2
#     Edge 41, Type (0, 0), BuildingBlock: EZIPEK_clean_linker_0, # of connection points: 2
#     Edge 42, Type (0, 0), BuildingBlock: EZIPEK_clean_linker_0, # of connection points: 2
#     Edge 43, Type (0, 0), BuildingBlock: EZIPEK_clean_linker_0, # of connection points: 2
#     Edge 44, Type (0, 0), BuildingBlock: EZIPEK_clean_linker_0, # of connection points: 2
#     Edge 45, Type (0, 0), BuildingBlock: EZIPEK_clean_linker_0, # of connection points: 2
#     Edge 46, Type (0, 0), BuildingBlock: EZIPEK_clean_linker_0, # of connection points: 2
#     Edge 47, Type (0, 0), BuildingBlock: EZIPEK_clean_linker_0, # of connection points: 2
#     Edge 48, Type (0, 0), BuildingBlock: EZIPEK_clean_linker_0, # of connection points: 2
#     Edge 49, Type (0, 0), BuildingBlock: EZIPEK_clean_linker_0, # of connection points: 2
#     Edge 50, Type (0, 0), BuildingBlock: EZIPEK_clean_linker_0, # of connection points: 2
#     Edge 51, Type (0, 0), BuildingBlock: EZIPEK_clean_linker_0, # of connection points: 2
#     Edge 52, Type (0, 0), BuildingBlock: EZIPEK_clean_linker_0, # of connection points: 2
#     Edge 53, Type (0, 0), BuildingBlock: EZIPEK_clean_linker_0, # of connection points: 2
#     Edge 54, Type (0, 0), BuildingBlock: EZIPEK_clean_linker_0, # of connection points: 2
#     Edge 55, Type (0, 0), BuildingBlock: EZIPEK_clean_linker_0, # of connection points: 2
#     Edge 56, Type (0, 0), BuildingBlock: EZIPEK_clean_linker_0, # of connection points: 2
#     Edge 57, Type (0, 0), BuildingBlock: EZIPEK_clean_linker_0, # of connection points: 2
#     Edge 58, Type (0, 0), BuildingBlock: EZIPEK_clean_linker_0, # of connection points: 2
#     Edge 59, Type (0, 0), BuildingBlock: EZIPEK_clean_linker_0, # of connection points: 2
#     Edge 60, Type (0, 0), BuildingBlock: EZIPEK_clean_linker_0, # of connection points: 2
#     Edge 61, Type (0, 0), BuildingBlock: EZIPEK_clean_linker_0, # of connection points: 2
#     Edge 62, Type (0, 0), BuildingBlock: EZIPEK_clean_linker_0, # of connection points: 2
#     Edge 63, Type (0, 0), BuildingBlock: EZIPEK_clean_linker_0, # of connection points: 2
# Relax obj value: 0.079
# Max RMSD: 0.254
# Mean RMSD: 0.241
data_MOF--net-crs--node1-MAKGUD_clean_sbu_1--edge1-EZIPEK_clean_linker_0
_symmetry_space_group_name_H-M    P1
_symmetry_Int_Tables_number       1
_symmetry_cell_setting            triclinic
loop_
_symmetry_equiv_pos_as_xyz
'x, y, z'
_cell_length_a     29.97859
_cell_length_b     40.508057
_cell_length_c     38.657637
_cell_angle_alpha  90.259071
_cell_angle_beta   89.873058
_cell_angle_gamma 72.241431
loop_
_atom_site_label
_atom_site_type_symbol
_atom_site_fract_x
_atom_site_fract_y
_atom_site_fract_z
_atom_type_partial_charge
O0 O 0.03199 0.14696 1.04382 0.0
Tb1 Tb 0.00333 0.11085 0.0712 0.0
C2 C 0.06111 1.03406 0.091 0.0
O3 O 0.00139 0.05399 1.02717 0.0
Tb4 Tb 0.02437 0.99796 1.03097 0.0
C5 C 0.05743 0.96484 0.9717 0.0
O6 O 0.95768 0.1087 1.02772 0.0
O7 O 0.97928 0.96965 0.0514 0.0
C8 C 0.93415 0.98386 0.05569 0.0
O9 O 0.91633 1.01763 0.05406 0.0
O10 O 0.01866 0.05668 0.08877 0.0
O11 O 0.07114 1.00482 0.07258 0.0
O12 O 0.97015 0.14775 0.1116 0.0
C13 C 0.9653 0.07772 1.01426 0.0
C14 C 0.07575 0.13109 0.05031 0.0
O15 O 0.01897 0.9906 0.97547 0.0
O16 O 0.07829 0.95895 1.00172 0.0
C17 C 0.97616 0.14048 0.14462 0.0
O18 O -0.00616 0.10812 0.15428 0.0
O19 O 0.07872 0.10285 0.06722 0.0
O20 O 0.01781 0.27509 0.20329 0.0
Tb21 Tb 0.02479 0.30712 0.24702 0.0
C22 C 0.06506 0.25926 0.30858 0.0
O23 O 0.93469 0.34126 0.29877 0.0
Tb24 Tb 0.97782 0.3169 0.34214 0.0
C25 C 0.92164 0.30825 0.39337 0.0
O26 O 0.97846 0.3586 0.2582 0.0
O27 O 0.00433 0.35916 0.35872 0.0
C28 C 0.0385 0.35373 0.38147 0.0
O29 O 0.06225 0.32168 0.38939 0.0
O30 O 0.07344 0.2822 0.28744 0.0
O31 O 0.02917 0.26696 0.33024 0.0
O32 O 0.06747 0.32232 0.20768 0.0
C33 C 0.94337 0.36572 0.28026 0.0
C34 C 0.98839 0.26148 0.21741 0.0
O35 O 0.91591 0.30348 0.36057 0.0
O36 O 0.95911 0.31756 0.39706 0.0
C37 C 0.1028 0.29944 0.19199 0.0
O38 O 0.11572 0.267 0.20214 0.0
O39 O 0.97826 0.27425 0.24848 0.0
O40 O 0.72111 0.21949 0.51357 0.0
Tb41 Tb 0.74311 0.2548 0.54788 0.0
C42 C 0.69739 0.33342 0.57604 0.0
O43 O 0.79442 0.30946 0.53463 0.0
Tb44 Tb 0.76057 0.36563 0.5366 0.0
C45 C 0.73783 0.39968 0.47673 0.0
O46 O 0.79253 0.26025 0.50793 0.0
O47 O 0.80299 0.39305 0.56198 0.0
C48 C 0.84838 0.38294 0.55676 0.0
O49 O 0.86886 0.35137 0.54526 0.0
O50 O 0.71497 0.31118 0.55095 0.0
O51 O 0.70526 0.36356 0.57319 0.0
O52 O 0.78116 0.22271 0.58984 0.0
C53 C 0.80417 0.28919 0.50709 0.0
C54 C 0.68021 0.22452 0.52798 0.0
O55 O 0.77641 0.37527 0.48329 0.0
O56 O 0.71068 0.40367 0.50385 0.0
C57 C 0.77516 0.2326 0.62232 0.0
O58 O 0.75592 0.26548 0.62948 0.0
O59 O 0.6748 0.24702 0.55291 0.0
O60 O 0.80058 0.07912 0.90108 0.0
Tb61 Tb 0.78205 0.05182 0.85734 0.0
C62 C 0.80992 1.01974 0.78281 0.0
O63 O 0.71418 0.07941 0.79823 0.0
Tb64 Tb 0.73299 0.07388 0.74354 0.0
C65 C 0.75815 0.12551 0.71559 0.0
O66 O 0.72771 0.10148 0.84881 0.0
O67 O 0.67947 0.06228 0.71205 0.0
C68 C 0.66886 0.07709 0.68162 0.0
O69 O 0.68874 0.10019 0.67168 0.0
O70 O 0.80436 0.0469 0.80328 0.0
O71 O 0.78933 1.02534 0.75236 0.0
O72 O 0.74846 1.01377 0.87329 0.0
C73 C 0.70678 0.10688 0.81854 0.0
C74 C 0.84376 0.05949 0.90379 0.0
O75 O 0.72925 0.12845 0.74139 0.0
O76 O 0.77459 0.09301 0.70656 0.0
C77 C 0.76716 0.99194 0.89816 0.0
O78 O 0.80616 0.9931 0.91269 0.0
O79 O 0.85263 1.03564 0.87973 0.0
O80 O 0.47441 0.79671 0.21436 0.0
Tb81 Tb 0.51667 0.80571 0.25719 0.0
C82 C 0.55673 0.7553 0.31736 0.0
O83 O 0.4246 0.83838 0.30869 0.0
Tb84 Tb 0.47039 0.81105 0.35014 0.0
C85 C 0.41609 0.80187 0.40251 0.0
O86 O 0.47266 0.85714 0.27286 0.0
O87 O 0.50842 0.844 0.37394 0.0
C88 C 0.5072 0.87569 0.365 0.0
O89 O 0.49204 0.88769 0.33444 0.0
O90 O 0.56418 0.77985 0.29803 0.0
O91 O 0.51917 0.761 0.33693 0.0
O92 O 0.57099 0.80526 0.21929 0.0
C93 C 0.43315 0.86289 0.2903 0.0
C94 C 0.47395 0.76607 0.22377 0.0
O95 O 0.41 0.79639 0.36995 0.0
O96 O 0.45288 0.81201 0.40536 0.0
C97 C 0.58361 0.83247 0.21071 0.0
O98 O 0.56534 0.86214 0.22683 0.0
O99 O 0.4944 0.75906 0.25367 0.0
O100 O 0.23948 0.70993 0.54883 0.0
Tb101 Tb 0.26537 0.74865 0.5743 0.0
C102 C 0.20799 0.82512 0.59746 0.0
O103 O 0.2575 0.80622 0.52651 0.0
Tb104 Tb 0.24221 0.861 0.53805 0.0
C105 C 0.20712 0.90538 0.48728 0.0
O106 O 0.30819 0.75328 0.52979 0.0
O107 O 0.29587 0.88044 0.56007 0.0
C108 C 0.33157 0.88101 0.54058 0.0
O109 O 0.33995 0.86248 0.51199 0.0
O110 O 0.24995 0.80269 0.59206 0.0
O111 O 0.19746 0.85513 0.58106 0.0
O112 O 0.29883 0.71357 0.61557 0.0
C113 C 0.29653 0.78397 0.51519 0.0
C114 C 0.19538 0.72522 0.55502 0.0
O115 O 0.18762 0.90578 0.51758 0.0
O116 O 0.24391 0.8782 0.48493 0.0
C117 C 0.29417 0.72281 0.6483 0.0
O118 O 0.27984 0.75582 0.65658 0.0
O119 O 0.19066 0.75464 0.57063 0.0
O120 O 0.30696 0.55779 0.89901 0.0
Tb121 Tb 0.28428 0.56069 0.84476 0.0
C122 C 0.31439 0.50492 0.78531 0.0
O123 O 0.18355 0.59727 0.79615 0.0
Tb124 Tb 0.23278 0.56729 0.75788 0.0
C125 C 0.27744 0.60795 0.72856 0.0
O126 O 0.23318 0.61179 0.83484 0.0
O127 O 0.17804 0.56422 0.72155 0.0
C128 C 0.18855 0.54756 0.69174 0.0
O129 O 0.2325 0.53046 0.68486 0.0
O130 O 0.32734 0.52749 0.80444 0.0
O131 O 0.27432 0.51393 0.76847 0.0
O132 O 0.25219 0.52368 0.86667 0.0
C133 C 0.19344 0.61968 0.81732 0.0
C134 C 0.34314 0.56856 0.89447 0.0
O135 O 0.27657 0.6019 0.7616 0.0
O136 O 0.25398 0.59054 0.71241 0.0
C137 C 0.27998 0.49199 0.87225 0.0
O138 O 0.32316 0.48379 0.86053 0.0
O139 O 0.34586 0.57534 0.86174 0.0
O140 O 0.0249 0.6528 0.53482 0.0
Tb141 Tb -0.0048 0.6222 0.56928 0.0
C142 C 0.05532 0.5443 0.58319 0.0
O143 O 0.00161 0.56836 0.51416 0.0
Tb144 Tb 0.01786 0.51294 0.52255 0.0
C145 C 0.04484 0.47007 0.46851 0.0
O146 O 0.94926 0.61975 0.52572 0.0
O147 O 0.96812 0.49278 0.54917 0.0
C148 C 0.92816 0.49444 0.53435 0.0
O149 O 0.91393 0.51523 0.50795 0.0
O150 O 0.01302 0.56649 0.57939 0.0
O151 O 0.06605 0.51564 0.56425 0.0
O152 O 0.96098 0.65704 0.61117 0.0
C153 C 0.96056 0.59073 0.50746 0.0
C154 C 0.06512 0.64587 0.55033 0.0
O155 O 0.0063 0.49585 0.47062 0.0
O156 O 0.06999 0.47018 0.4961 0.0
C157 C 0.97569 0.64994 0.64316 0.0
O158 O 0.00072 0.6181 0.65068 0.0
O159 O 0.0661 0.62492 0.5759 0.0
O160 O 0.23895 0.21065 1.0209 0.0
Tb161 Tb 0.25549 0.25041 0.05245 0.0
C162 C 0.19653 0.33033 0.0697 0.0
O163 O 0.30089 0.30908 1.03351 0.0
Tb164 Tb 0.2565 0.36342 1.02908 0.0
C165 C 0.24044 0.39333 0.96659 0.0
O166 O 0.3058 0.25547 1.01296 0.0
O167 O 0.29785 0.39225 0.05358 0.0
C168 C 0.33959 0.38864 1.04079 0.0
O169 O 0.35869 0.36244 1.02 0.0
O170 O 0.2224 0.30603 0.04921 0.0
O171 O 0.1982 0.36166 0.0628 0.0
O172 O 0.29222 0.22406 0.09778 0.0
C173 C 0.31386 0.28558 1.00857 0.0
C174 C 0.19831 0.21434 1.03528 0.0
O175 O 0.26436 0.36128 0.97272 0.0
O176 O 0.22211 0.40734 0.99568 0.0
C177 C 0.27481 0.23279 0.12888 0.0
O178 O 0.24512 0.26369 0.13382 0.0
O179 O 0.18995 0.23868 0.05861 0.0
O180 O 0.27587 0.07019 0.40335 0.0
Tb181 Tb 0.2586 0.05828 0.35093 0.0
C182 C 0.30919 1.00476 0.29219 0.0
O183 O 0.18973 0.09575 0.28345 0.0
Tb184 Tb 0.2501 0.07007 0.25122 0.0
C185 C 0.27734 0.11798 0.2175 0.0
O186 O 0.22146 0.11 0.33307 0.0
O187 O 0.21136 0.04739 0.21506 0.0
C188 C 0.17534 0.06792 0.1982 0.0
O189 O 0.16222 0.10135 0.2047 0.0
O190 O 0.27867 1.01204 0.31783 0.0
O191 O 0.31016 1.02745 0.26812 0.0
O192 O 0.21498 1.03327 0.37923 0.0
C193 C 0.1918 0.11843 0.30736 0.0
C194 C 0.32032 0.06529 0.39836 0.0
O195 O 0.27621 0.11509 0.25096 0.0
O196 O 0.26315 0.09391 0.20324 0.0
C197 C 0.23716 1.0037 0.39429 0.0
O198 O 0.28289 0.99154 0.39125 0.0
O199 O 0.32985 0.05671 0.36599 0.0
O200 O 0.51551 0.2764 0.70598 0.0
Tb201 Tb 0.52874 0.30257 0.75235 0.0
C202 C 0.57647 0.24778 0.80696 0.0
O203 O 0.4423 0.34651 0.81194 0.0
Tb204 Tb 0.49179 0.30668 0.84292 0.0
C205 C 0.43767 0.29651 0.89508 0.0
O206 O 0.48416 0.35499 0.764 0.0
O207 O 0.5344 0.33761 0.86352 0.0
C208 C 0.51305 0.36743 0.87905 0.0
O209 O 0.46706 0.37879 0.87924 0.0
O210 O 0.58392 0.27064 0.7853 0.0
O211 O 0.53833 0.25532 0.82658 0.0
O212 O 0.57011 0.31946 0.71334 0.0
C213 C 0.44934 0.36585 0.78631 0.0
C214 C 0.4869 0.26179 0.71975 0.0
O215 O 0.43353 0.28945 0.86257 0.0
O216 O 0.47317 0.30836 0.89809 0.0
C217 C 0.60397 0.29719 0.69577 0.0
O218 O 0.61571 0.2641 0.70334 0.0
O219 O 0.481 0.27056 0.75236 0.0
O220 O -0.00237 0.78792 0.71527 0.0
Tb221 Tb 0.01162 0.81208 0.76301 0.0
C222 C 0.058 0.75955 0.81908 0.0
O223 O 0.93579 0.8638 0.83103 0.0
Tb224 Tb 0.97751 0.81688 0.85801 0.0
C225 C 0.92268 0.80435 0.90828 0.0
O226 O 0.96225 0.86362 0.77356 0.0
O227 O 0.01983 0.84338 0.886 0.0
C228 C 0.03714 0.86611 0.87152 0.0
O229 O 0.0357 0.86956 0.83777 0.0
O230 O 0.06562 0.78307 0.79844 0.0
O231 O 0.01868 0.76631 0.83696 0.0
O232 O 0.05984 0.82514 0.72652 0.0
C233 C 0.9359 0.8784 0.8004 0.0
C234 C 0.97659 0.76759 0.72909 0.0
O235 O 0.91004 0.81223 0.87634 0.0
O236 O 0.96637 0.80293 0.91136 0.0
C237 C 0.09269 0.80075 0.7101 0.0
O238 O 0.0986 0.76806 0.71726 0.0
O239 O 0.97424 0.77286 0.76245 0.0
O240 O 0.79756 0.5648 0.40154 0.0
Tb241 Tb 0.78111 0.56152 0.34656 0.0
C242 C 0.81356 0.50462 0.28868 0.0
O243 O 0.68459 0.59588 0.29326 0.0
Tb244 Tb 0.73434 0.56513 0.25617 0.0
C245 C 0.78103 0.60091 0.22127 0.0
O246 O 0.73318 0.61181 0.33193 0.0
O247 O 0.69246 0.54834 0.21732 0.0
C248 C 0.65779 0.57096 0.20098 0.0
O249 O 0.64564 0.60379 0.21009 0.0
O250 O 0.82571 0.52705 0.30844 0.0
O251 O 0.77465 0.51308 0.27056 0.0
O252 O 0.74638 0.52616 0.36868 0.0
C253 C 0.69392 0.61859 0.31417 0.0
C254 C 0.8362 0.57251 0.39746 0.0
O255 O 0.79406 0.58603 0.25104 0.0
O256 O 0.74248 0.59543 0.21179 0.0
C257 C 0.77204 0.49453 0.37704 0.0
O258 O 0.81645 0.48409 0.36807 0.0
O259 O 0.84349 0.57454 0.36442 0.0
O260 O 0.74551 0.71478 0.05111 0.0
Tb261 Tb 0.7692 0.75177 0.08172 0.0
C262 C 0.70852 0.82967 0.09466 0.0
O263 O 0.7645 0.80306 1.02785 0.0
Tb264 Tb 0.7461 0.85881 1.03261 0.0
C265 C 0.71714 0.89073 0.97279 0.0
O266 O 0.81766 0.75263 1.03927 0.0
O267 O 0.79824 0.8808 0.05328 0.0
C268 C 0.82554 0.89019 1.03127 0.0
O269 O 0.82467 0.88161 0.99856 0.0
O270 O 0.75108 0.80768 0.09154 0.0
O271 O 0.69732 0.85717 0.07435 0.0
O272 O 0.79851 0.72241 0.12741 0.0
C273 C 0.80584 0.78129 1.02103 0.0
C274 C 0.70211 0.72551 0.06135 0.0
O275 O 0.75021 0.86148 0.97667 0.0
O276 O 0.6989 0.90111 1.00319 0.0
C277 C 0.82808 0.6911 0.12412 0.0
O278 O 0.8498 0.6818 0.09442 0.0
O279 O 0.69622 0.7519 0.08218 0.0
O280 O 0.50729 0.16346 0.53807 0.0
Tb281 Tb 0.48052 0.1242 0.56143 0.0
C282 C 0.54153 0.0484 0.58209 0.0
O283 O 0.47507 0.06659 0.52238 0.0
Tb284 Tb 0.4996 1.01096 0.52669 0.0
C285 C 0.52393 0.97647 0.46726 0.0
O286 O 0.4332 0.12125 0.51903 0.0
O287 O 0.46076 0.98254 0.55499 0.0
C288 C 0.41498 0.9919 0.55403 0.0
O289 O 0.39202 1.02334 0.54409 0.0
O290 O 0.49877 0.07086 0.5823 0.0
O291 O 0.55036 1.0192 0.5638 0.0
O292 O 0.45151 0.16 0.60389 0.0
C293 C 0.44043 0.08962 0.50737 0.0
C294 C 0.55128 0.14554 0.5389 0.0
O295 O 0.48447 1.00049 0.47348 0.0
O296 O 0.55075 0.97297 0.4945 0.0
C297 C 0.45912 0.1511 0.63649 0.0
O298 O 0.47492 0.11817 0.6445 0.0
O299 O 0.55522 0.11489 0.551 0.0
O300 O 0.53287 0.6544 1.03852 0.0
Tb301 Tb 0.50123 0.61872 0.06398 0.0
C302 C 0.55789 0.54119 0.08162 0.0
O303 O 0.51458 0.56254 1.00803 0.0
Tb304 Tb 0.52723 0.50797 1.01986 0.0
C305 C 0.56172 0.4618 0.96889 0.0
O306 O 0.46233 0.61496 1.01682 0.0
O307 O 0.46642 0.49685 1.04049 0.0
C308 C 0.44077 0.48511 1.01917 0.0
O309 O 0.44756 0.48625 0.9857 0.0
O310 O 0.51705 0.56321 0.07331 0.0
O311 O 0.57119 0.51171 0.06409 0.0
O312 O 0.45697 0.65089 0.10362 0.0
C313 C 0.47424 0.58519 0.9998 0.0
C314 C 0.57252 0.64437 0.05502 0.0
O315 O 0.57062 0.45684 1.00181 0.0
O316 O 0.53458 0.49354 0.96508 0.0
C317 C 0.47564 0.65215 0.13413 0.0
O318 O 0.5149 0.62827 0.1418 0.0
O319 O 0.57277 0.61864 0.07518 0.0
C320 C 0.93553 0.19594 0.17646 0.0
C321 C 0.97735 0.169 0.16849 0.0
C322 C 0.02306 0.19958 0.20081 0.0
C323 C 0.9824 0.22854 0.20467 0.0
N324 N 0.89994 0.25551 0.19588 0.0
N325 N 0.06207 0.14774 0.16854 0.0
C326 C 0.9384 0.22694 0.19282 0.0
C327 C 0.02138 0.17123 0.17985 0.0
N328 N 0.89324 0.19163 0.16857 0.0
N329 N 0.06348 0.19897 0.2175 0.0
H330 H 0.06324 0.12647 0.15295 0.0
H331 H 0.09484 0.15116 0.17193 0.0
H332 H 0.06664 0.2195 0.23264 0.0
H333 H 0.09221 0.17673 0.21932 0.0
H334 H 0.86119 0.20881 0.17618 0.0
H335 H 0.89035 0.16926 0.15655 0.0
H336 H 0.86781 0.25763 0.18445 0.0
H337 H 0.90093 0.27805 0.20861 0.0
C338 C 0.88286 0.28597 0.4823 0.0
C339 C 0.83354 0.29544 0.47825 0.0
C340 C 0.84138 0.3162 0.41962 0.0
C341 C 0.89103 0.30342 0.4223 0.0
N342 N 0.9585 0.26875 0.45386 0.0
N343 N 0.76623 0.31385 0.44101 0.0
C344 C 0.9117 0.28647 0.4531 0.0
C345 C 0.81298 0.30851 0.44614 0.0
N346 N 0.90238 0.27613 0.51401 0.0
N347 N 0.82115 0.33746 0.39291 0.0
H348 H 0.744 0.31007 0.46037 0.0
H349 H 0.75029 0.31977 0.41695 0.0
H350 H 0.84041 0.3453 0.37392 0.0
H351 H 0.78535 0.35031 0.39161 0.0
H352 H 0.93746 0.27296 0.51944 0.0
H353 H 0.88283 0.27386 0.53572 0.0
H354 H 0.97454 0.25304 0.47437 0.0
H355 H 0.98053 0.26636 0.4325 0.0
C356 C 0.72184 0.1788 0.68012 0.0
C357 C 0.76273 0.15478 0.69427 0.0
C358 C 0.81201 0.18431 0.66389 0.0
C359 C 0.77142 0.20655 0.64808 0.0
N360 N 0.68875 0.22132 0.63607 0.0
N361 N 0.84694 0.13274 0.69814 0.0
C362 C 0.72661 0.203 0.65506 0.0
C363 C 0.80793 0.15696 0.68566 0.0
N364 N 0.67812 0.17847 0.69002 0.0
N365 N 0.85423 0.18992 0.65861 0.0
H366 H 0.8454 0.11404 0.71618 0.0
H367 H 0.88083 0.1301 0.68968 0.0
H368 H 0.85816 0.2094 0.64243 0.0
H369 H 0.88472 0.17699 0.6718 0.0
H370 H 0.64763 0.19822 0.68425 0.0
H371 H 0.67142 0.15959 0.70541 0.0
H372 H 0.65681 0.21615 0.63586 0.0
H373 H 0.6902 0.23984 0.61792 0.0
C374 C 0.95263 0.06664 0.9516 0.0
C375 C 0.93523 0.07135 0.98614 0.0
C376 C 0.85955 0.06697 0.96655 0.0
C377 C 0.87621 0.06256 0.93189 0.0
N378 N 0.93638 0.06207 0.89021 0.0
N379 N 0.86823 0.08256 1.02494 0.0
C380 C 0.9224 0.0632 0.92405 0.0
C381 C 0.88785 0.07382 0.99305 0.0
N382 N -0.00265 0.0672 0.94519 0.0
N383 N 0.81676 0.06366 0.9749 0.0
H384 H 0.88582 0.08825 0.04635 0.0
H385 H 0.88582 0.08825 0.04635 0.0
H386 H 0.79597 0.05534 0.95742 0.0
H387 H 0.80358 0.06682 1.00012 0.0
H388 H 0.01297 0.06473 0.92094 0.0
H389 H 0.01991 0.07024 0.9646 0.0
H390 H 0.96896 0.06293 0.88191 0.0
H391 H 0.91444 0.0616 0.86948 0.0
C392 C 0.1391 1.03995 0.11084 0.0
C393 C 0.09356 1.03823 0.11888 0.0
C394 C 0.10382 0.05261 0.17962 0.0
C395 C 0.14933 0.05423 0.17179 0.0
N396 N 0.21377 0.04417 0.13172 0.0
N397 N 0.03924 1.03197 0.16257 0.0
C398 C 0.16819 0.04596 0.13795 0.0
C399 C 0.0779 0.04134 0.15379 0.0
N400 N 0.15364 1.03754 0.07712 0.0
N401 N 0.08478 0.0626 0.2116 0.0
H402 H 0.02019 1.02251 0.1446 0.0
H403 H 0.02876 1.03031 0.18803 0.0
H404 H 0.10342 0.06927 0.23183 0.0
H405 H 0.04961 0.06639 0.21739 0.0
H406 H 0.18389 0.04264 0.0688 0.0
H407 H 0.13361 1.03276 0.05679 0.0
H408 H 0.23135 1.03505 0.10869 0.0
H409 H 0.23538 0.04957 0.1506 0.0
C410 C 0.05303 0.44096 0.40976 0.0
C411 C 0.04882 0.43903 0.44627 0.0
C412 C 0.0351 0.38242 0.43983 0.0
C413 C 0.04298 0.383 0.40356 0.0
N414 N 0.06545 0.41061 0.35438 0.0
N415 N 0.04113 0.40576 0.49663 0.0
C416 C 0.05349 0.41175 0.3886 0.0
C417 C 0.04213 0.40893 0.46143 0.0
N418 N 0.05607 0.47092 0.39529 0.0
N419 N 0.01713 0.35805 0.45355 0.0
H420 H 0.04053 0.4256 0.51396 0.0
H421 H 0.04345 0.38247 0.50893 0.0
H422 H 0.0104 0.33843 0.43905 0.0
H423 H 0.0043 0.3592 0.47872 0.0
H424 H 0.05352 0.47578 0.36884 0.0
H425 H 0.0585 0.49193 0.41006 0.0
H426 H 0.07785 0.42907 0.34242 0.0
H427 H 0.06649 0.38958 0.33838 0.0
C428 C 0.63323 0.31306 0.60218 0.0
C429 C 0.67234 0.32537 0.60687 0.0
C430 C 0.65979 0.32601 0.67003 0.0
C431 C 0.62566 0.30871 0.66523 0.0
N432 N 0.58223 0.28295 0.62668 0.0
N433 N 0.72602 0.3406 0.64586 0.0
C434 C 0.61306 0.30143 0.63128 0.0
C435 C 0.68598 0.33168 0.64098 0.0
N436 N 0.61347 0.31435 0.57018 0.0
N437 N 0.66743 0.33685 0.7024 0.0
H438 H 0.74788 0.34297 0.62566 0.0
H439 H 0.7405 0.34198 0.67007 0.0
H440 H 0.65035 0.33187 0.72439 0.0
H441 H 0.68781 0.35308 0.70714 0.0
H442 H 0.58192 0.30925 0.56583 0.0
H443 H 0.62634 0.32354 0.54836 0.0
H444 H 0.57647 0.27302 0.60276 0.0
H445 H 0.56492 0.27531 0.6471 0.0
C446 C 0.76926 0.92988 0.90306 0.0
C447 C 0.74549 0.96547 0.9095 0.0
C448 C 0.68747 0.94936 0.94505 0.0
C449 C 0.71581 0.91439 0.94306 0.0
N450 N 0.76702 0.87063 0.90683 0.0
N451 N 0.68071 1.00987 0.93504 0.0
C452 C 0.75146 0.90436 0.91765 0.0
C453 C 0.70339 0.9755 0.92929 0.0
N454 N 0.81006 0.92044 0.88444 0.0
N455 N 0.64492 0.95708 0.96115 0.0
H456 H 0.69116 1.02965 0.9237 0.0
H457 H 0.65296 1.019 0.9523 0.0
H458 H 0.63188 0.93766 0.97044 0.0
H459 H 0.62067 0.98171 0.96196 0.0
H460 H 0.83193 0.89499 0.88252 0.0
H461 H 0.82361 0.93838 0.87255 0.0
H462 H 0.79093 0.86187 0.88671 0.0
H463 H 0.75124 0.85236 0.91515 0.0
C464 C 0.18217 0.33394 0.13433 0.0
C465 C 0.17136 0.32346 0.10095 0.0
C466 C 0.11536 0.29755 0.12737 0.0
C467 C 0.12474 0.30921 0.16054 0.0
N468 N 0.16069 0.34372 0.19502 0.0
N469 N 0.11875 0.30388 0.06514 0.0
C470 C 0.15589 0.32929 0.16376 0.0
C471 C 0.13546 0.30763 0.09731 0.0
N472 N 0.21985 0.34594 0.13833 0.0
N473 N 0.08765 0.27642 0.12447 0.0
H474 H 0.13225 0.31125 1.04257 0.0
H475 H 0.08913 0.29608 0.06098 0.0
H476 H 0.07017 0.26985 0.14541 0.0
H477 H 0.08463 0.26346 0.10167 0.0
H478 H 0.23277 0.35034 0.16231 0.0
H479 H 0.24131 0.34831 0.11785 0.0
H480 H 0.17859 0.36186 0.19825 0.0
H481 H 0.14374 0.33957 0.21742 0.0
C482 C 0.72554 0.45476 0.39504 0.0
C483 C 0.75572 0.47452 0.40387 0.0
C484 C 0.76084 0.4523 0.46315 0.0
C485 C 0.73758 0.42824 0.45268 0.0
N486 N 0.69892 0.40518 0.40859 0.0
N487 N 0.80571 0.48991 0.44598 0.0
C488 C 0.7199 0.42921 0.41861 0.0
C489 C 0.77416 0.47282 0.4379 0.0
N490 N 0.70208 0.46063 0.36435 0.0
N491 N 0.76983 0.45586 0.4974 0.0
H492 H 0.81538 0.50631 0.42892 0.0
H493 H 0.82494 0.48593 0.46882 0.0
H494 H 0.7606 0.4414 0.5168 0.0
H495 H 0.78231 0.47542 0.50702 0.0
H496 H 0.67686 0.44898 0.35739 0.0
H497 H 0.70471 0.47977 0.34723 0.0
H498 H 0.68997 0.40187 0.38308 0.0
H499 H 0.69289 0.38715 0.42572 0.0
C500 C 0.56422 0.05477 0.64358 0.0
C501 C 0.57632 0.05204 0.60795 0.0
C502 C 0.65378 0.05641 0.62276 0.0
C503 C 0.638 0.06598 0.65716 0.0
N504 N 0.57527 0.07842 0.69927 0.0
N505 N 0.63272 0.05097 0.56298 0.0
C506 C 0.5926 0.06592 0.66748 0.0
C507 C 0.62135 0.05272 0.59735 0.0
N508 N 0.52653 0.04548 0.65486 0.0
N509 N 0.70018 0.04945 0.61468 0.0
H510 H 0.61038 0.0475 0.54362 0.0
H511 H 0.66265 0.05579 0.55347 0.0
H512 H 0.72541 0.05023 0.63293 0.0
H513 H 0.7145 1.03926 0.59094 0.0
H514 H 0.5189 0.04376 0.68098 0.0
H515 H 0.50571 1.03612 0.63827 0.0
H516 H 0.54045 0.08248 0.7064 0.0
H517 H 0.59411 0.08802 0.71725 0.0
C518 C 0.09367 0.90523 0.94321 0.0
C519 C 0.06643 0.94077 0.94091 0.0
C520 C 0.02473 0.92755 0.89102 0.0
C521 C 0.05005 0.89184 0.89382 0.0
N522 N 0.1156 0.84743 0.91732 0.0
N523 N 0.02519 0.98607 0.90234 0.0
C524 C 0.08673 0.88086 0.91841 0.0
C525 C 0.03826 0.95198 0.91136 0.0
N526 N 0.12607 0.89475 0.96882 0.0
N527 N 0.98548 0.93816 0.87101 0.0
H528 H 0.03819 1.00375 0.91538 0.0
H529 H 0.00744 0.99532 0.8795 0.0
H530 H 0.97192 0.92095 0.85774 0.0
H531 H 0.96352 0.96369 0.8708 0.0
H532 H 0.14138 0.86895 0.97567 0.0
H533 H 0.13879 0.91205 0.98267 0.0
H534 H 0.14551 0.83816 0.93236 0.0
H535 H 0.11151 0.82932 0.8993 0.0
C536 C 0.11468 0.16362 1.01173 0.0
C537 C 0.11441 0.14613 1.04352 0.0
C538 C 0.18028 0.16504 0.06363 0.0
C539 C 0.174 0.18768 1.03503 0.0
N540 N 0.13512 0.20965 0.98181 0.0
N541 N 0.14499 0.13328 0.10181 0.0
C542 C 0.14149 0.18707 1.00882 0.0
C543 C 0.14722 0.14706 0.06987 0.0
N544 N 0.09025 0.1571 0.98408 0.0
N545 N 0.21806 0.16068 0.08486 0.0
H546 H 0.12152 0.12013 0.10852 0.0
H547 H 0.16407 0.13746 0.12299 0.0
H548 H 0.24298 0.17354 0.08106 0.0
H549 H 0.22722 0.14185 0.10405 0.0
H550 H 0.09217 0.1668 0.95941 0.0
H551 H 0.07191 0.13897 0.98495 0.0
H552 H 0.10806 0.21335 0.96398 0.0
H553 H 0.15546 0.22622 0.97845 0.0
C554 C 0.61104 0.65709 0.3211 0.0
C555 C 0.65923 0.65365 0.31692 0.0
C556 C 0.64056 0.71687 0.31952 0.0
C557 C 0.59204 0.72032 0.31798 0.0
N558 N 0.53209 0.69219 0.30901 0.0
N559 N 0.71828 0.68134 0.30367 0.0
C560 C 0.57742 0.69003 0.31651 0.0
C561 C 0.67369 0.68382 0.31381 0.0
N562 N 0.5972 0.62925 0.33061 0.0
N563 N 0.65532 0.74466 0.3278 0.0
H564 H 0.74311 0.65791 0.29726 0.0
H565 H 0.72883 0.70295 0.29784 0.0
H566 H 0.63237 0.76886 0.3345 0.0
H567 H 0.69042 0.7425 0.3321 0.0
H568 H 0.56265 0.63134 0.33702 0.0
H569 H 0.62083 0.605 0.33598 0.0
H570 H 0.5214 0.67042 0.30416 0.0
H571 H 0.50621 0.71538 0.30382 0.0
C572 C 0.37575 0.91322 0.57603 0.0
C573 C 0.35232 0.90968 0.54501 0.0
C574 C 0.37304 0.95831 0.51961 0.0
C575 C 0.39233 0.9642 0.55168 0.0
N576 N 0.40761 0.95009 0.61182 0.0
N577 N 0.31813 0.93498 0.49085 0.0
C578 C 0.39246 0.94242 0.58035 0.0
C579 C 0.34793 0.93396 0.51782 0.0
N580 N 0.38345 0.88812 0.60075 0.0
N581 N 0.38065 0.97456 0.49022 0.0
H582 H 0.29747 0.9186 0.48884 0.0
H583 H 0.30995 0.95468 0.4725 0.0
H584 H 0.40033 0.99176 0.48966 0.0
H585 H 0.37183 0.96803 0.46561 0.0
H586 H 0.40446 0.88728 0.62233 0.0
H587 H 0.37174 0.86647 0.59831 0.0
H588 H 0.40428 0.93737 0.63456 0.0
H589 H 0.42027 0.97114 0.61566 0.0
C590 C 0.07757 0.69363 0.81816 0.0
C591 C 0.09276 0.72369 0.82009 0.0
C592 C 0.17451 0.68564 0.81812 0.0
C593 C 0.1592 0.65564 0.82028 0.0
N594 N 0.0952 0.63275 0.83182 0.0
N595 N 0.15674 0.74686 0.83103 0.0
C596 C 0.11043 0.66016 0.82312 0.0
C597 C 0.14155 0.71926 0.82275 0.0
N598 N 0.03232 0.69649 0.80972 0.0
N599 N 0.21992 0.68256 0.80978 0.0
H600 H 0.13399 0.77153 0.83631 0.0
H601 H 0.19163 0.74433 0.83655 0.0
H602 H 0.24501 0.65898 0.80426 0.0
H603 H 0.2313 0.70384 0.80426 0.0
H604 H 0.02106 0.67507 0.80443 0.0
H605 H 0.00738 0.71995 0.80388 0.0
H606 H 0.06024 0.63539 0.83739 0.0
H607 H 0.11799 0.60827 0.83749 0.0
C608 C 0.87613 0.43126 0.58005 0.0
C609 C 0.87132 0.41019 0.55176 0.0
C610 C 0.90691 0.44275 0.51298 0.0
C611 C 0.90764 0.46598 0.54048 0.0
N612 N 0.88818 0.48512 0.59923 0.0
N613 N 0.8732 0.4005 0.48976 0.0
C614 C 0.89109 0.46093 0.57385 0.0
C615 C 0.88432 0.41713 0.51782 0.0
N616 N 0.86746 0.42236 0.61288 0.0
N617 N 0.92958 0.44401 0.4825 0.0
H618 H 0.85722 0.38113 0.49149 0.0
H619 H 0.87577 0.40821 0.46435 0.0
H620 H 0.94762 0.4617 0.4776 0.0
H621 H 0.93463 0.4252 0.46318 0.0
H622 H 0.87474 0.43449 0.63501 0.0
H623 H 0.85639 0.40084 0.61816 0.0
H624 H 0.872 0.48492 0.62304 0.0
H625 H 0.89873 0.50712 0.59546 0.0
C626 C 0.36481 0.95298 0.3204 0.0
C627 C 0.34183 0.96861 0.28996 0.0
C628 C 0.37979 0.91435 0.25843 0.0
C629 C 0.39822 0.89811 0.29011 0.0
N630 N 0.39327 0.90064 0.35294 0.0
N631 N 0.3194 0.96092 0.23115 0.0
C632 C 0.38561 0.91679 0.32161 0.0
C633 C 0.34722 0.94851 0.25908 0.0
N634 N 0.36991 0.97293 0.34766 0.0
N635 N 0.39227 0.89697 0.22782 0.0
H636 H 0.29355 0.9849 0.23111 0.0
H637 H 0.31865 0.94601 0.20926 0.0
H638 H 0.41219 0.87093 0.22641 0.0
H639 H 0.38456 0.90892 0.20382 0.0
H640 H 0.39015 0.96291 0.36931 0.0
H641 H 0.35941 0.99971 0.34617 0.0
H642 H 0.37967 0.91349 0.37589 0.0
H643 H 0.40902 0.87423 0.35613 0.0
C644 C 0.39492 0.46423 0.77141 0.0
C645 C 0.34764 0.46893 0.78101 0.0
C646 C 0.36563 0.40549 0.78467 0.0
C647 C 0.41438 0.40125 0.78153 0.0
N648 N 0.47567 0.42839 0.77476 0.0
N649 N 0.28895 0.4434 0.8006 0.0
C650 C 0.42912 0.43107 0.77533 0.0
C651 C 0.33314 0.43937 0.78844 0.0
N652 N 0.40699 0.49127 0.75742 0.0
N653 N 0.3499 0.37724 0.78243 0.0
H654 H 0.26375 0.46746 0.80371 0.0
H655 H 0.27864 0.423 0.81059 0.0
H656 H 0.37205 0.3523 0.77739 0.0
H657 H 0.3145 0.37909 0.78132 0.0
H658 H 0.43972 0.48861 0.74654 0.0
H659 H 0.38269 0.51552 0.75312 0.0
H660 H 0.48793 0.44984 0.77439 0.0
H661 H 0.50237 0.40527 0.77834 0.0
C662 C 0.13373 0.8149 0.61907 0.0
C663 C 0.17732 0.82037 0.62638 0.0
C664 C 0.16115 0.81908 0.68898 0.0
C665 C 0.12041 0.80955 0.68142 0.0
N666 N 0.06961 0.79525 0.63955 0.0
N667 N 0.23205 0.82986 0.66797 0.0
C668 C 0.10711 0.8067 0.64653 0.0
C669 C 0.19084 0.82314 0.66132 0.0
N670 N 0.11717 0.81835 0.58593 0.0
N671 N 0.17098 0.82461 0.72266 0.0
H672 H 0.25299 0.83531 0.64861 0.0
H673 H 0.24691 0.8287 0.69238 0.0
H674 H 0.15052 0.8211 0.74336 0.0
H675 H 0.19757 0.83451 0.73037 0.0
H676 H 0.08342 0.81857 0.57937 0.0
H677 H 0.1361 0.82346 0.56505 0.0
H678 H 0.06149 0.78849 0.61487 0.0
H679 H 0.04824 0.79016 0.65878 0.0
C680 C 0.20103 0.99395 0.44996 0.0
C681 C 0.2129 0.98378 0.41528 0.0
C682 C 0.2007 0.92764 0.42687 0.0
C683 C 0.19855 0.93504 0.46283 0.0
N684 N 0.20072 0.97533 0.50912 0.0
N685 N 0.2238 0.9413 0.36979 0.0
C686 C 0.19847 0.96854 0.4746 0.0
C687 C 0.21198 0.95086 0.40334 0.0
N688 N 0.19379 1.02767 0.45961 0.0
N689 N 0.19187 0.89831 0.41536 0.0
H690 H 0.22966 0.95844 0.35152 0.0
H691 H 0.22985 0.91613 0.36051 0.0
H692 H 0.18278 0.88125 0.43213 0.0
H693 H 0.1892 0.89261 0.3893 0.0
H694 H 0.18055 1.03752 0.48374 0.0
H695 H 0.19665 0.0466 0.4423 0.0
H696 H 0.20773 0.99734 0.51859 0.0
H697 H 0.19936 0.95817 0.52865 0.0
C698 C 0.01541 0.70769 0.70697 0.0
C699 C 0.97366 0.73561 0.71141 0.0
C700 C 0.93132 0.70463 0.6757 0.0
C701 C 0.97437 0.67888 0.6677 0.0
N702 N 0.05926 0.6607 0.67011 0.0
N703 N 0.89243 0.7626 0.69802 0.0
C704 C 0.01693 0.68146 0.68207 0.0
C705 C 0.93165 0.73458 0.6953 0.0
N706 N 0.05388 0.7062 0.72656 0.0
N707 N 0.89007 0.69999 0.6654 0.0
H708 H 0.89122 0.7842 0.71325 0.0
H709 H 0.86217 0.76531 0.68369 0.0
H710 H 0.88858 0.67824 0.65147 0.0
H711 H 0.85733 0.71607 0.67315 0.0
H712 H 0.08363 0.68459 0.72721 0.0
H713 H 0.05432 0.72512 0.74482 0.0
H714 H 0.0911 0.66419 0.677 0.0
H715 H 0.06287 0.64272 0.65014 0.0
C716 C 0.37551 0.78305 0.49216 0.0
C717 C 0.32632 0.79207 0.48749 0.0
C718 C 0.33578 0.81276 0.42906 0.0
C719 C 0.38518 0.79869 0.43184 0.0
N720 N 0.45178 0.76473 0.46473 0.0
N721 N 0.26057 0.80929 0.44821 0.0
C722 C 0.40506 0.7824 0.46311 0.0
C723 C 0.3066 0.80536 0.45508 0.0
N724 N 0.39401 0.77621 0.52457 0.0
N725 N 0.3165 0.83442 0.4024 0.0
H726 H 0.23791 0.80342 0.46592 0.0
H727 H 0.24603 0.81536 0.42371 0.0
H728 H 0.33648 0.84186 0.38363 0.0
H729 H 0.28092 0.84803 0.40117 0.0
H730 H 0.42916 0.77283 0.52997 0.0
H731 H 0.37329 0.77784 0.54662 0.0
H732 H 0.46703 0.74953 0.4858 0.0
H733 H 0.47447 0.76211 0.44373 0.0
C734 C 0.32105 0.15325 0.18648 0.0
C735 C 0.27837 0.14961 0.19905 0.0
C736 C 0.23398 0.19926 0.16493 0.0
C737 C 0.27651 0.20486 0.15414 0.0
N738 N 0.36042 0.19045 0.15869 0.0
N739 N 0.19511 0.17422 0.20763 0.0
C740 C 0.32013 0.18277 0.16612 0.0
C741 C 0.23518 0.17438 0.19077 0.0
N742 N 0.3622 0.12809 0.19327 0.0
N743 N 0.19273 0.21551 0.14863 0.0
H744 H 0.19451 0.15633 0.22682 0.0
H745 H 0.16359 0.19404 0.20511 0.0
H746 H 0.19028 0.23194 0.12764 0.0
H747 H 0.16191 0.20933 0.15308 0.0
H748 H 0.39399 0.12711 0.18172 0.0
H749 H 0.36397 0.10695 0.20913 0.0
H750 H 0.39282 0.17731 0.1693 0.0
H751 H 0.36077 0.21191 0.14398 0.0
C752 C 0.82649 0.77958 0.95786 0.0
C753 C 0.83573 0.78743 0.99243 0.0
C754 C 0.89738 0.8106 0.97131 0.0
C755 C 0.8921 0.7989 0.93714 0.0
N756 N 0.85792 0.76476 0.9002 0.0
N757 N 0.8852 0.80496 1.03284 0.0
C758 C 0.85815 0.78152 0.93094 0.0
C759 C 0.87306 0.80099 0.9994 0.0
N760 N 0.78743 0.77017 0.95059 0.0
N761 N 0.92294 0.83289 0.97683 0.0
H762 H 0.86694 0.79952 0.05398 0.0
H763 H 0.91541 0.81109 1.03947 0.0
H764 H 0.93766 0.84336 0.95689 0.0
H765 H 0.92462 0.84448 1.00071 0.0
H766 H 0.77599 0.7682 0.92545 0.0
H767 H 0.76432 0.76705 0.96961 0.0
H768 H 0.83699 0.74886 0.89569 0.0
H769 H 0.88232 0.76325 0.88058 0.0
C770 C 0.32842 0.63788 0.69797 0.0
C771 C 0.28502 0.63939 0.71355 0.0
C772 C 0.24872 0.6972 0.68933 0.0
C773 C 0.29243 0.69615 0.67414 0.0
N774 N 0.37551 0.66876 0.66869 0.0
N775 N 0.20627 0.67241 0.72987 0.0
C776 C 0.33286 0.66743 0.67998 0.0
C777 C 0.24612 0.66983 0.71129 0.0
N778 N 0.36478 0.60778 0.69938 0.0
N779 N 0.20877 0.72287 0.68069 0.0
H780 H 0.20194 0.65231 0.74491 0.0
H781 H 0.17894 0.69541 0.73281 0.0
H782 H 0.20819 0.74342 0.66448 0.0
H783 H 0.17527 0.7223 0.68702 0.0
H784 H 0.39572 0.60337 0.68534 0.0
H785 H 0.36297 0.58629 0.71347 0.0
H786 H 0.40709 0.65016 0.67456 0.0
H787 H 0.37966 0.69015 0.65565 0.0
C788 C 0.34179 0.06688 0.46133 0.0
C789 C 0.35382 0.06889 0.42588 0.0
C790 C 0.42788 0.07734 0.44501 0.0
C791 C 0.41138 0.08132 0.47964 0.0
N792 N 0.3463 0.08902 0.51889 0.0
N793 N 0.40556 0.08465 0.38495 0.0
C794 C 0.36622 0.07923 0.48719 0.0
C795 C 0.39635 0.07619 0.4178 0.0
N796 N 0.30936 0.05113 0.47086 0.0
N797 N 0.47327 0.07539 0.4379 0.0
H798 H 0.38214 0.08773 0.36457 0.0
H799 H 0.43417 0.09307 0.37884 0.0
H800 H 0.49691 0.07731 0.45699 0.0
H801 H 0.48835 0.06877 0.41351 0.0
H802 H 0.30215 0.04731 0.49668 0.0
H803 H 0.29527 1.03722 0.45358 0.0
H804 H 0.3115 0.09084 0.52423 0.0
H805 H 0.36352 0.09749 0.53888 0.0
C806 C 0.88199 0.90986 0.06893 0.0
C807 C 0.84968 0.91587 1.04109 0.0
C808 C 0.8742 0.9653 1.02262 0.0
C809 C 0.90345 0.96147 0.05204 0.0
N810 N 0.92996 0.9335 0.10634 0.0
N811 N 0.80472 0.95612 0.99871 0.0
C812 C 0.90571 0.93476 0.07625 0.0
C813 C 0.84253 0.94574 1.02023 0.0
N814 N 0.89171 0.87979 0.08732 0.0
N815 N 0.87879 0.9857 0.99563 0.0
H816 H 0.77903 0.94364 0.99752 0.0
H817 H 0.79602 0.97949 0.9853 0.0
H818 H 0.904 0.9986 0.99496 0.0
H819 H 0.86139 0.9864 0.97221 0.0
H820 H 0.91871 0.87224 0.10528 0.0
H821 H 0.87506 0.86106 0.08282 0.0
H822 H 0.92918 0.91676 0.12654 0.0
H823 H 0.94771 0.95131 0.11228 0.0
C824 C 0.61747 0.20338 0.50128 0.0
C825 C 0.65302 0.19969 0.52625 0.0
C826 C 0.62556 0.15742 0.55793 0.0
C827 C 0.59015 0.16043 0.53258 0.0
N828 N 0.56001 0.17944 0.47587 0.0
N829 N 0.69944 0.16658 0.57238 0.0
C830 C 0.5885 0.18134 0.50287 0.0
C831 C 0.65993 0.17439 0.55251 0.0
N832 N 0.61045 0.22866 0.4768 0.0
N833 N 0.62457 0.14081 0.58849 0.0
H834 H 0.72532 0.17868 0.5693 0.0
H835 H 0.70875 0.14588 0.58957 0.0
H836 H 0.59978 0.12859 0.59451 0.0
H837 H 0.6459 0.14185 0.60944 0.0
H838 H 0.58167 0.23543 0.46034 0.0
H839 H 0.63224 0.2443 0.47433 0.0
H840 H 0.56017 0.1917 0.45228 0.0
H841 H 0.53948 0.16276 0.47583 0.0
C842 C 0.89519 0.46404 0.28061 0.0
C843 C 0.84653 0.46905 0.28488 0.0
C844 C 0.86106 0.40639 0.27957 0.0
C845 C 0.90998 0.40123 0.28104 0.0
N846 N 0.97306 0.42577 0.29113 0.0
N847 N 0.7847 0.44349 0.29632 0.0
C848 C 0.927 0.43022 0.28386 0.0
C849 C 0.82977 0.43982 0.28655 0.0
N850 N 0.91111 0.49113 0.27192 0.0
N851 N 0.84422 0.37991 0.27009 0.0
H852 H 0.76083 0.46724 0.30304 0.0
H853 H 0.77265 0.42241 0.30136 0.0
H854 H 0.86586 0.35555 0.26249 0.0
H855 H 0.80876 0.38344 0.26577 0.0
H856 H 0.94605 0.48794 0.26572 0.0
H857 H 0.88882 0.51591 0.26676 0.0
H858 H 0.9858 0.44642 0.29681 0.0
H859 H -0.00258 0.40154 0.29523 0.0
C860 C 0.12694 0.66658 0.52123 0.0
C861 C 0.09521 0.66869 0.54891 0.0
C862 C 0.12858 0.70782 0.58041 0.0
C863 C 0.15851 0.70789 0.55185 0.0
N864 N 0.17926 0.69297 0.49216 0.0
N865 N 0.0558 0.69988 0.59918 0.0
C866 C 0.15567 0.68889 0.52131 0.0
C867 C 0.0928 0.69208 0.57665 0.0
N868 N 0.13044 0.64276 0.49544 0.0
N869 N 0.1362 0.72021 0.61207 0.0
H870 H 0.02817 0.68944 0.59691 0.0
H871 H 0.05016 0.71949 0.61776 0.0
H872 H 0.16383 0.72989 0.61728 0.0
H873 H 0.11816 0.71715 0.63432 0.0
H874 H 0.15648 0.63731 0.47651 0.0
H875 H 0.10903 0.62672 0.49439 0.0
H876 H 0.17529 0.68223 0.46828 0.0
H877 H 0.19939 0.70989 0.49102 0.0
C878 C 0.69128 0.1715 0.81126 0.0
C879 C 0.67426 0.14236 0.81007 0.0
C880 C 0.59412 0.18219 0.80213 0.0
C881 C 0.61043 0.21143 0.80752 0.0
N882 N 0.67452 0.23321 0.82203 0.0
N883 N 0.60812 0.12029 0.80877 0.0
C884 C 0.65913 0.20588 0.81304 0.0
C885 C 0.62535 0.1478 0.80637 0.0
N886 N 0.7385 0.16627 0.80998 0.0
N887 N 0.54898 0.18709 0.7918 0.0
H888 H 0.62938 0.09475 0.81135 0.0
H889 H 0.57256 0.12296 0.8109 0.0
H890 H 0.52506 0.21149 0.78784 0.0
H891 H 0.53657 0.16702 0.78353 0.0
H892 H 0.75333 0.18622 0.80693 0.0
H893 H 0.76282 0.14159 0.80843 0.0
H894 H 0.70859 0.23044 0.83007 0.0
H895 H 0.65225 0.25848 0.82469 0.0
C896 C 0.80799 0.6106 0.16286 0.0
C897 C 0.80662 0.6186 0.19855 0.0
C898 C 0.83322 0.66883 0.18526 0.0
C899 C 0.82528 0.66438 0.14954 0.0
N900 N 0.7949 0.63417 0.1055 0.0
N901 N 0.81871 0.65526 0.24457 0.0
C902 C 0.81054 0.63586 0.13847 0.0
C903 C 0.82022 0.64741 0.21015 0.0
N904 N 0.80671 0.57869 0.15224 0.0
N905 N 0.85353 0.69328 0.19526 0.0
H906 H 0.81237 0.63902 0.26348 0.0
H907 H 0.82198 0.67842 0.25428 0.0
H908 H 0.86351 0.70915 0.17759 0.0
H909 H 0.86412 0.69581 0.2205 0.0
H910 H 0.81136 0.5705 0.12651 0.0
H911 H 0.80654 0.55915 0.16972 0.0
H912 H 0.77909 0.61574 0.09771 0.0
H913 H 0.79237 0.65324 0.087 0.0
C914 C 0.94716 0.57147 0.44685 0.0
C915 C 0.92889 0.58441 0.47993 0.0
C916 C 0.84931 0.59338 0.45757 0.0
C917 C 0.86801 0.57644 0.42603 0.0
N918 N 0.93627 0.54033 0.39572 0.0
N919 N 0.86244 0.59944 0.51874 0.0
C920 C 0.91738 0.56282 0.42211 0.0
C921 C 0.87988 0.59302 0.48588 0.0
N922 N -0.00774 0.56896 0.43807 0.0
N923 N 0.80276 0.61133 0.46024 0.0
H924 H 0.88379 0.59757 0.54037 0.0
H925 H 0.82752 0.60254 0.52485 0.0
H926 H 0.77944 0.61413 0.43973 0.0
H927 H 0.78845 0.62676 0.48159 0.0
H928 H 0.0055 0.5627 0.41312 0.0
H929 H 0.01483 0.57684 0.45429 0.0
H930 H 0.91612 0.53128 0.37833 0.0
H931 H 0.97202 0.52741 0.39373 0.0
C932 C 0.15889 0.56019 0.63068 0.0
C933 C 0.15191 0.54971 0.66483 0.0
C934 C 0.07721 0.54186 0.64632 0.0
C935 C 0.08729 0.54822 0.61142 0.0
N936 N 0.14142 0.55825 0.56961 0.0
N937 N 0.10735 0.52586 0.70412 0.0
C938 C 0.12934 0.55571 0.60338 0.0
C939 C 0.11155 0.53965 0.6725 0.0
N940 N 0.19237 0.57603 0.62456 0.0
N941 N 0.03499 0.53745 0.65446 0.0
H942 H 0.13203 0.52304 0.72371 0.0
H943 H 0.08162 0.51435 0.71002 0.0
H944 H 0.00996 0.53687 0.63599 0.0
H945 H 0.02326 0.53696 0.67977 0.0
H946 H 0.19583 0.58746 0.60102 0.0
H947 H 0.21336 0.58117 0.64405 0.0
H948 H 0.17411 0.55976 0.56204 0.0
H949 H 0.11978 0.55667 0.54897 0.0
C950 C 0.66384 0.8269 0.18717 0.0
C951 C 0.61619 0.82997 0.18101 0.0
C952 C 0.6311 0.82708 0.11822 0.0
C953 C 0.67753 0.82771 0.12437 0.0
N954 N 0.73553 0.83453 0.16488 0.0
N955 N 0.5527 0.83581 0.14105 0.0
C956 C 0.69341 0.82901 0.15891 0.0
C957 C 0.59937 0.83067 0.1466 0.0
N958 N 0.68115 0.82128 0.22004 0.0
N959 N 0.61778 0.82207 0.0853 0.0
H960 H 0.52865 0.83784 0.16111 0.0
H961 H 0.53708 0.84046 0.11681 0.0
H962 H 0.64003 0.81946 0.06399 0.0
H963 H 0.58631 0.81753 0.07935 0.0
H964 H 0.71673 0.81474 0.22571 0.0
H965 H 0.66035 0.82014 0.24141 0.0
H966 H 0.74651 0.83957 0.18934 0.0
H967 H 0.75783 0.83745 0.14522 0.0
C968 C 0.65711 0.55254 0.13851 0.0
C969 C 0.63385 0.56031 0.17104 0.0
C970 C 0.56343 0.55115 0.1456 0.0
C971 C 0.58474 0.54722 0.1123 0.0
N972 N 0.6503 0.54713 0.07618 0.0
N973 N 0.56335 0.57072 0.20501 0.0
C974 C 0.63141 0.54831 0.10857 0.0
C975 C 0.58656 0.56069 0.17438 0.0
N976 N 0.70374 0.54938 0.13621 0.0
N977 N 0.52182 0.54434 0.15008 0.0
H978 H 0.57969 0.57584 0.2273 0.0
H979 H 0.52725 0.57616 0.20774 0.0
H980 H 0.5041 0.53659 0.12996 0.0
H981 H 0.50694 0.54316 0.17422 0.0
H982 H 0.7241 0.54014 0.11433 0.0
H983 H 0.72316 0.55374 0.15709 0.0
H984 H 0.68197 0.55174 0.07109 0.0
H985 H 0.63243 0.54429 0.05379 0.0
C986 C 0.4351 0.43061 0.04661 0.0
C987 C 0.41252 0.4637 1.0322 0.0
C988 C 0.3388 0.44993 1.02872 0.0
C989 C 0.36123 0.41687 1.04351 0.0
N990 N 0.42635 0.37949 0.07469 0.0
N991 N 0.34158 0.50808 1.01717 0.0
C992 C 0.40799 0.40856 0.05525 0.0
C993 C 0.36382 0.47442 1.02592 0.0
N994 N 0.48279 0.41918 0.04982 0.0
N995 N 0.29494 0.45718 1.01499 0.0
H996 H 0.35932 0.52642 1.01455 0.0
H997 H 0.30531 0.51854 1.01566 0.0
H998 H 0.27461 0.44063 1.0168 0.0
H999 H 0.27976 0.47869 0.9996 0.0
H1000 H 0.50148 0.39375 0.0561 0.0
H1001 H 0.50433 0.43419 1.04358 0.0
H1002 H 0.45879 0.37366 0.08683 0.0
H1003 H 0.407 0.36299 0.0815 0.0
C1004 C 0.14618 0.2171 0.31261 0.0
C1005 C 0.0974 0.22316 0.30848 0.0
C1006 C 0.11 0.16023 0.30639 0.0
C1007 C 0.15911 0.15438 0.30664 0.0
N1008 N 0.2243 0.1778 0.3046 0.0
N1009 N 0.03327 0.20044 0.2957 0.0
C1010 C 0.17729 0.18298 0.30818 0.0
C1011 C 0.07936 0.19471 0.30388 0.0
N1012 N 0.16276 0.24356 0.32272 0.0
N1013 N 0.09236 0.13305 0.31033 0.0
H1014 H 0.0094 0.22507 0.29321 0.0
H1015 H 0.0197 0.18081 0.28787 0.0
H1016 H 0.1134 0.10746 0.31311 0.0
H1017 H 0.05693 0.1362 0.31431 0.0
H1018 H 0.19743 0.23988 0.32982 0.0
H1019 H 0.14104 0.26865 0.32763 0.0
H1020 H 0.23867 0.19792 0.30093 0.0
H1021 H 0.24879 0.15336 0.30243 0.0
C1022 C 0.21366 0.43632 0.91773 0.0
C1023 C 0.25057 0.41447 0.93776 0.0
C1024 C 0.30121 0.4485 0.91982 0.0
C1025 C 0.26703 0.46733 0.89603 0.0
N1026 N 0.19253 0.47467 0.86825 0.0
N1027 N 0.33446 0.39374 0.94773 0.0
C1028 C 0.22355 0.4601 0.8938 0.0
C1029 C 0.29596 0.41843 0.93541 0.0
N1030 N 0.16924 0.4344 0.92153 0.0
N1031 N 0.33755 0.46033 0.92933 0.0
H1032 H 0.33362 0.36995 0.95699 0.0
H1033 H 0.36841 0.39499 0.94416 0.0
H1034 H 0.34037 0.48419 0.92136 0.0
H1035 H 0.36113 0.44877 0.94877 0.0
H1036 H 0.14004 0.45218 0.91054 0.0
H1037 H 0.16148 0.41601 0.93729 0.0
H1038 H 0.16243 0.46768 0.86342 0.0
H1039 H 0.19888 0.4915 0.84992 0.0
C1040 C 0.39318 0.28483 0.98599 0.0
C1041 C 0.34503 0.28938 0.97966 0.0
C1042 C 0.35659 0.30169 0.91872 0.0
C1043 C 0.40576 0.29341 0.92406 0.0
N1044 N 0.47153 0.26883 0.96189 0.0
N1045 N 0.28345 0.29413 0.93818 0.0
C1046 C 0.42428 0.28289 0.95753 0.0
C1047 C 0.32769 0.29495 0.94539 0.0
N1048 N 0.40955 0.28187 1.01916 0.0
N1049 N 0.33662 0.31834 0.88934 0.0
H1050 H 0.26055 0.29065 0.95719 0.0
H1051 H 0.27091 0.29446 0.91301 0.0
H1052 H 0.30048 0.32799 0.88596 0.0
H1053 H 0.35548 0.32642 0.87026 0.0
H1054 H 0.44293 0.28272 1.02555 0.0
H1055 H 0.38867 0.2813 1.04062 0.0
H1056 H 0.48662 0.25767 0.98496 0.0
H1057 H 0.49547 0.26446 0.94152 0.0
C1058 C 0.39346 0.58457 0.98204 0.0
C1059 C 0.44167 0.57755 0.97379 0.0
C1060 C 0.42604 0.55898 0.91554 0.0
C1061 C 0.37703 0.5711 0.92209 0.0
N1062 N 0.31395 0.60135 0.96056 0.0
N1063 N 0.50215 0.56417 0.92984 0.0
C1064 C 0.36065 0.58535 0.95515 0.0
C1065 C 0.45759 0.56628 0.93979 0.0
N1066 N 0.37907 0.58956 1.01575 0.0
N1067 N 0.44286 0.53919 0.88689 0.0
H1068 H 0.52626 0.57 0.94625 0.0
H1069 H 0.51377 0.55975 0.90431 0.0
H1070 H 0.42143 0.53144 0.8695 0.0
H1071 H 0.47841 0.52723 0.88247 0.0
H1072 H 0.34505 0.59173 1.02367 0.0
H1073 H 0.40231 0.58754 1.03625 0.0
H1074 H 0.30072 0.6152 0.98304 0.0
H1075 H 0.28881 0.60412 0.94133 0.0
C1076 C 0.65719 0.69021 0.08976 0.0
C1077 C 0.66974 0.70424 0.05905 0.0
C1078 C 0.62455 0.67421 1.02504 0.0
C1079 C 0.60719 0.66405 0.05619 0.0
N1080 N 0.59922 0.67004 0.11851 0.0
N1081 N 0.66241 0.71249 0.99745 0.0
C1082 C 0.62148 0.67401 0.08866 0.0
C1083 C 0.6527 0.69697 1.02661 0.0
N1084 N 0.68063 0.69102 0.11993 0.0
N1085 N 0.61566 0.66108 0.99409 0.0
H1086 H 0.68331 0.72891 0.99773 0.0
H1087 H 0.64697 0.71125 0.97358 0.0
H1088 H 0.59611 0.64382 0.99205 0.0
H1089 H 0.6311 0.66472 0.97085 0.0
H1090 H 0.67628 0.67767 0.14204 0.0
H1091 H 0.70813 0.70165 0.1219 0.0
H1092 H 0.605 0.68044 0.14218 0.0
H1093 H 0.57114 0.66011 0.11918 0.0
C1094 C 0.85429 0.92191 0.79982 0.0
C1095 C 0.90361 0.91487 0.79611 0.0
C1096 C 0.89141 0.97718 0.78526 0.0
C1097 C 0.8425 0.98439 0.79095 0.0
N1098 N 0.77742 0.96467 0.80688 0.0
N1099 N 0.96972 0.93638 0.78853 0.0
C1100 C 0.82403 0.95698 0.79919 0.0
C1101 C 0.92226 0.94269 0.7896 0.0
N1102 N 0.83616 0.89483 0.80229 0.0
N1103 N 0.90824 1.00314 0.77416 0.0
H1104 H -0.00648 0.91162 0.79015 0.0
H1105 H 0.98587 0.95576 0.7886 0.0
H1106 H 0.88732 1.02885 0.77192 0.0
H1107 H 0.94218 0.99909 0.76504 0.0
H1108 H 0.80053 0.89757 0.80176 0.0
H1109 H 0.85695 0.86897 0.8022 0.0
H1110 H 0.76203 0.94685 0.81668 0.0
H1111 H 0.75442 0.98986 0.80599 0.0
C1112 C 0.51543 0.20164 0.69649 0.0
C1113 C 0.47704 0.2315 0.70354 0.0
C1114 C 0.42482 0.20544 0.6721 0.0
C1115 C 0.46436 0.17766 0.66154 0.0
N1116 N 0.54858 0.15262 0.65883 0.0
N1117 N 0.39549 0.26331 0.69728 0.0
C1118 C 0.50996 0.17638 0.67277 0.0
C1119 C 0.43161 0.2337 0.69144 0.0
N1120 N 0.55734 0.19724 0.71267 0.0
N1121 N 0.38089 0.20448 0.66399 0.0
H1122 H 0.39927 0.28381 0.71223 0.0
H1123 H 0.36263 0.2684 0.68598 0.0
H1124 H 0.37507 0.18425 0.64974 0.0
H1125 H 0.3503 0.22219 0.67341 0.0
H1126 H 0.58433 0.17384 0.71232 0.0
H1127 H 0.5635 0.21564 0.72938 0.0
H1128 H 0.5827 0.15308 0.66302 0.0
H1129 H 0.54667 0.13427 0.64043 0.0
C1130 C 0.56079 0.37594 0.93024 0.0
C1131 C 0.53927 0.38785 0.89797 0.0
C1132 C 0.55389 0.44377 0.90745 0.0
C1133 C 0.56748 0.43398 0.94186 0.0
N1134 N 0.60595 0.38633 0.97897 0.0
N1135 N 0.51582 0.43294 0.8553 0.0
C1136 C 0.57782 0.39861 0.95121 0.0
C1137 C 0.53676 0.42155 0.88617 0.0
N1138 N 0.56203 0.3439 0.94197 0.0
N1139 N 0.5598 0.47354 0.8947 0.0
H1140 H 0.50475 0.41679 0.83861 0.0
H1141 H 0.50719 0.45858 0.84715 0.0
H1142 H 0.57549 0.48874 0.90922 0.0
H1143 H 0.55467 0.48086 0.86888 0.0
H1144 H 0.57132 0.33549 0.96711 0.0
H1145 H 0.55096 0.3263 0.92719 0.0
H1146 H 0.61752 0.36031 0.98592 0.0
H1147 H 0.6232 0.40138 0.99208 0.0
C1148 C 0.54541 0.92047 0.38508 0.0
C1149 C 0.51538 0.8999 0.39184 0.0
C1150 C 0.50127 0.92438 0.45037 0.0
C1151 C 0.52647 0.94787 0.44242 0.0
N1152 N 0.56923 0.97081 0.4012 0.0
N1153 N 0.45861 0.88707 0.43023 0.0
C1154 C 0.54781 0.94658 0.40949 0.0
C1155 C 0.4919 0.90311 0.42424 0.0
N1156 N 0.57288 0.91419 0.35609 0.0
N1157 N 0.48427 0.92222 0.48268 0.0
H1158 H 0.44562 0.87462 0.41097 0.0
H1159 H 0.44099 0.8889 0.4538 0.0
H1160 H 0.49016 0.93612 0.50417 0.0
H1161 H 0.49016 0.93612 0.50417 0.0
H1162 H 0.59866 0.92598 0.35127 0.0
H1163 H 0.5729 0.89477 0.33822 0.0
H1164 H 0.58081 0.97388 0.37641 0.0
H1165 H 0.57283 0.98934 0.41898 0.0
C1166 C 0.44763 0.6855 0.18916 0.0
C1167 C 0.46323 0.68493 0.1544 0.0
C1168 C 0.48678 0.73663 0.16552 0.0
C1169 C 0.46751 0.73927 0.19948 0.0
N1170 N 0.42213 0.71943 0.24157 0.0
N1171 N 0.4855 0.71582 0.10718 0.0
C1172 C 0.44551 0.71468 0.21068 0.0
C1173 C 0.47794 0.71274 0.14173 0.0
N1174 N 0.43595 0.65778 0.20179 0.0
N1175 N 0.51777 0.75401 0.15673 0.0
H1176 H 0.48086 0.69862 0.08853 0.0
H1177 H 0.49191 0.73762 0.0967 0.0
H1178 H 0.53056 0.76855 0.17412 0.0
H1179 H 0.5362 0.74997 0.1334 0.0
H1180 H 0.42976 0.65467 0.22791 0.0
H1181 H 0.43484 0.63695 0.18618 0.0
H1182 H 0.40197 0.70405 0.24976 0.0
H1183 H 0.41951 0.74069 0.25766 0.0
loop_
_geom_bond_atom_site_label_1
_geom_bond_atom_site_label_2
_geom_bond_distance
_geom_bond_site_symmetry_2
_ccdc_geom_bond_type
O0 Tb1 2.506 1_556 S
O0 C14 1.265 1_556 S
Tb1 O0 2.506 1_554 S
Tb1 O6 2.312 1_454 S
Tb1 O10 2.271 . S
Tb1 O12 2.338 1_455 S
Tb1 O19 2.441 . S
C2 O10 1.252 . S
C2 O11 1.253 1_545 S
O3 Tb4 2.271 1_656 S
O3 C13 1.252 1_565 S
Tb4 O3 2.271 1_454 S
Tb4 O7 2.338 1_455 S
Tb4 O11 2.312 . S
Tb4 O15 2.441 1_554 S
Tb4 O16 2.506 1_554 S
C5 O15 1.244 . S
C5 O16 1.265 . S
O6 Tb1 2.312 1_656 S
O6 C13 1.253 . S
O7 Tb4 2.338 1_655 S
O7 C8 1.258 1_554 S
C8 O7 1.258 1_556 S
C8 O9 1.251 1_556 S
O9 C8 1.251 1_554 S
O10 Tb1 2.271 . S
O10 C2 1.252 . S
O11 C2 1.253 1_565 S
O11 Tb4 2.312 . S
O12 Tb1 2.338 1_655 S
O12 C17 1.258 . S
C13 O3 1.252 1_545 S
C13 O6 1.253 . S
C14 O0 1.265 1_554 S
C14 O19 1.244 . S
O15 Tb4 2.441 1_556 S
O15 C5 1.244 . S
O16 Tb4 2.506 1_556 S
O16 C5 1.265 . S
C17 O12 1.258 . S
C17 O18 1.251 . S
O18 C17 1.251 . S
O19 Tb1 2.441 . S
O19 C14 1.244 . S
O20 Tb21 2.506 . S
O20 C34 1.265 . S
Tb21 O20 2.506 . S
Tb21 O26 2.312 1_455 S
Tb21 O30 2.271 . S
Tb21 O32 2.338 . S
Tb21 O39 2.441 . S
C22 O30 1.252 . S
C22 O31 1.253 . S
O23 Tb24 2.271 1_655 S
O23 C33 1.252 . S
Tb24 O23 2.271 1_455 S
Tb24 O27 2.338 . S
Tb24 O31 2.312 . S
Tb24 O35 2.441 1_455 S
Tb24 O36 2.500 1_455 S
C25 O35 1.244 . S
C25 O36 1.284 . S
O26 Tb21 2.312 1_655 S
O26 C33 1.253 . S
O27 Tb24 2.338 . S
O27 C28 1.258 . S
C28 O27 1.258 . S
C28 O29 1.251 . S
O29 C28 1.251 . S
O30 Tb21 2.271 . S
O30 C22 1.252 . S
O31 C22 1.253 . S
O31 Tb24 2.312 . S
O32 Tb21 2.338 . S
O32 C37 1.258 . S
C33 O23 1.252 . S
C33 O26 1.253 . S
C34 O20 1.265 . S
C34 O39 1.244 . S
O35 Tb24 2.441 1_655 S
O35 C25 1.244 . S
O36 Tb24 2.500 1_655 S
O36 C25 1.284 . S
C37 O32 1.258 . S
C37 O38 1.251 . S
O38 C37 1.251 . S
O39 Tb21 2.441 . S
O39 C34 1.244 . S
O40 Tb41 2.506 . S
O40 C54 1.265 . S
Tb41 O40 2.506 . S
Tb41 O46 2.312 . S
Tb41 O50 2.271 . S
Tb41 O52 2.338 . S
Tb41 O59 2.441 . S
C42 O50 1.252 . S
C42 O51 1.253 . S
O43 Tb44 2.271 . S
O43 C53 1.252 . S
Tb44 O43 2.271 . S
Tb44 O47 2.338 . S
Tb44 O51 2.312 . S
Tb44 O55 2.441 . S
Tb44 O56 2.506 . S
C45 O55 1.244 . S
C45 O56 1.265 . S
O46 Tb41 2.312 . S
O46 C53 1.253 . S
O47 Tb44 2.338 . S
O47 C48 1.258 . S
C48 O47 1.258 . S
C48 O49 1.251 . S
O49 C48 1.251 . S
O50 Tb41 2.271 . S
O50 C42 1.252 . S
O51 C42 1.253 . S
O51 Tb44 2.312 . S
O52 Tb41 2.338 . S
O52 C57 1.258 . S
C53 O43 1.252 . S
C53 O46 1.253 . S
C54 O40 1.265 . S
C54 O59 1.244 . S
O55 Tb44 2.441 . S
O55 C45 1.244 . S
O56 Tb44 2.506 . S
O56 C45 1.265 . S
C57 O52 1.258 . S
C57 O58 1.251 . S
O58 C57 1.251 . S
O59 Tb41 2.441 . S
O59 C54 1.244 . S
O60 Tb61 2.506 . S
O60 C74 1.265 . S
Tb61 O60 2.506 . S
Tb61 O66 2.312 . S
Tb61 O70 2.271 1_545 S
Tb61 O72 2.338 1_545 S
Tb61 O79 2.441 1_545 S
C62 O70 1.252 . S
C62 O71 1.253 . S
O63 Tb64 2.271 . S
O63 C73 1.252 . S
Tb64 O63 2.271 . S
Tb64 O67 2.338 . S
Tb64 O71 2.312 1_545 S
Tb64 O75 2.441 . S
Tb64 O76 2.506 . S
C65 O75 1.244 . S
C65 O76 1.265 . S
O66 Tb61 2.312 . S
O66 C73 1.253 . S
O67 Tb64 2.338 . S
O67 C68 1.258 . S
C68 O67 1.258 . S
C68 O69 1.251 . S
O69 C68 1.251 . S
O70 Tb61 2.271 1_565 S
O70 C62 1.252 . S
O71 C62 1.253 . S
O71 Tb64 2.312 1_565 S
O72 Tb61 2.338 1_565 S
O72 C77 1.258 . S
C73 O63 1.252 . S
C73 O66 1.253 . S
C74 O60 1.265 . S
C74 O79 1.244 1_545 S
O75 Tb64 2.441 . S
O75 C65 1.244 . S
O76 Tb64 2.506 . S
O76 C65 1.265 . S
C77 O72 1.258 . S
C77 O78 1.251 . S
O78 C77 1.251 . S
O79 Tb61 2.441 1_565 S
O79 C74 1.244 1_565 S
O80 Tb81 2.506 . S
O80 C94 1.265 . S
Tb81 O80 2.506 . S
Tb81 O86 2.312 . S
Tb81 O90 2.271 . S
Tb81 O92 2.338 . S
Tb81 O99 2.441 . S
C82 O90 1.252 . S
C82 O91 1.253 . S
O83 Tb84 2.271 . S
O83 C93 1.252 . S
Tb84 O83 2.271 . S
Tb84 O87 2.338 . S
Tb84 O91 2.312 . S
Tb84 O95 2.441 . S
Tb84 O96 2.506 . S
C85 O95 1.244 . S
C85 O96 1.265 . S
O86 Tb81 2.312 . S
O86 C93 1.253 . S
O87 Tb84 2.338 . S
O87 C88 1.258 . S
C88 O87 1.258 . S
C88 O89 1.251 . S
O89 C88 1.251 . S
O90 Tb81 2.271 . S
O90 C82 1.252 . S
O91 C82 1.253 . S
O91 Tb84 2.312 . S
O92 Tb81 2.338 . S
O92 C97 1.258 . S
C93 O83 1.252 . S
C93 O86 1.253 . S
C94 O80 1.265 . S
C94 O99 1.244 . S
O95 Tb84 2.441 . S
O95 C85 1.244 . S
O96 Tb84 2.506 . S
O96 C85 1.265 . S
C97 O92 1.258 . S
C97 O98 1.251 . S
O98 C97 1.251 . S
O99 Tb81 2.441 . S
O99 C94 1.244 . S
O100 Tb101 2.506 . S
O100 C114 1.265 . S
Tb101 O100 2.506 . S
Tb101 O106 2.312 . S
Tb101 O110 2.271 . S
Tb101 O112 2.338 . S
Tb101 O119 2.441 . S
C102 O110 1.252 . S
C102 O111 1.253 . S
O103 Tb104 2.271 . S
O103 C113 1.252 . S
Tb104 O103 2.271 . S
Tb104 O107 2.338 . S
Tb104 O111 2.312 . S
Tb104 O115 2.441 . S
Tb104 O116 2.506 . S
C105 O115 1.244 . S
C105 O116 1.265 . S
O106 Tb101 2.312 . S
O106 C113 1.253 . S
O107 Tb104 2.338 . S
O107 C108 1.258 . S
C108 O107 1.258 . S
C108 O109 1.251 . S
O109 C108 1.251 . S
O110 Tb101 2.271 . S
O110 C102 1.252 . S
O111 C102 1.253 . S
O111 Tb104 2.312 . S
O112 Tb101 2.338 . S
O112 C117 1.258 . S
C113 O103 1.252 . S
C113 O106 1.253 . S
C114 O100 1.265 . S
C114 O119 1.244 . S
O115 Tb104 2.441 . S
O115 C105 1.244 . S
O116 Tb104 2.506 . S
O116 C105 1.265 . S
C117 O112 1.258 . S
C117 O118 1.251 . S
O118 C117 1.251 . S
O119 Tb101 2.441 . S
O119 C114 1.244 . S
O120 Tb121 2.506 . S
O120 C134 1.265 . S
Tb121 O120 2.506 . S
Tb121 O126 2.312 . S
Tb121 O130 2.271 . S
Tb121 O132 2.338 . S
Tb121 O139 2.441 . S
C122 O130 1.252 . S
C122 O131 1.253 . S
O123 Tb124 2.271 . S
O123 C133 1.252 . S
Tb124 O123 2.271 . S
Tb124 O127 2.338 . S
Tb124 O131 2.312 . S
Tb124 O135 2.441 . S
Tb124 O136 2.506 . S
C125 O135 1.244 . S
C125 O136 1.265 . S
O126 Tb121 2.312 . S
O126 C133 1.253 . S
O127 Tb124 2.338 . S
O127 C128 1.258 . S
C128 O127 1.258 . S
C128 O129 1.251 . S
O129 C128 1.251 . S
O130 Tb121 2.271 . S
O130 C122 1.252 . S
O131 C122 1.253 . S
O131 Tb124 2.312 . S
O132 Tb121 2.338 . S
O132 C137 1.258 . S
C133 O123 1.252 . S
C133 O126 1.253 . S
C134 O120 1.265 . S
C134 O139 1.244 . S
O135 Tb124 2.441 . S
O135 C125 1.244 . S
O136 Tb124 2.506 . S
O136 C125 1.265 . S
C137 O132 1.258 . S
C137 O138 1.251 . S
O138 C137 1.251 . S
O139 Tb121 2.441 . S
O139 C134 1.244 . S
O140 Tb141 2.506 . S
O140 C154 1.265 . S
Tb141 O140 2.506 . S
Tb141 O146 2.312 1_455 S
Tb141 O150 2.271 . S
Tb141 O152 2.338 1_455 S
Tb141 O159 2.441 . S
C142 O150 1.252 . S
C142 O151 1.253 . S
O143 Tb144 2.271 1_655 S
O143 C153 1.252 . S
Tb144 O143 2.271 1_455 S
Tb144 O147 2.338 1_455 S
Tb144 O151 2.312 . S
Tb144 O155 2.441 . S
Tb144 O156 2.506 . S
C145 O155 1.244 . S
C145 O156 1.265 . S
O146 Tb141 2.312 1_655 S
O146 C153 1.253 . S
O147 Tb144 2.338 1_655 S
O147 C148 1.258 . S
C148 O147 1.258 . S
C148 O149 1.251 . S
O149 C148 1.251 . S
O150 Tb141 2.271 . S
O150 C142 1.252 . S
O151 C142 1.253 . S
O151 Tb144 2.312 . S
O152 Tb141 2.338 1_655 S
O152 C157 1.258 . S
C153 O143 1.252 . S
C153 O146 1.253 . S
C154 O140 1.265 . S
C154 O159 1.244 . S
O155 Tb144 2.441 . S
O155 C145 1.244 . S
O156 Tb144 2.506 . S
O156 C145 1.265 . S
C157 O152 1.258 . S
C157 O158 1.251 . S
O158 C157 1.251 . S
O159 Tb141 2.441 . S
O159 C154 1.244 . S
O160 Tb161 2.506 1_556 S
O160 C174 1.265 1_556 S
Tb161 O160 2.506 1_554 S
Tb161 O166 2.312 1_554 S
Tb161 O170 2.271 . S
Tb161 O172 2.338 . S
Tb161 O179 2.441 . S
C162 O170 1.252 . S
C162 O171 1.253 . S
O163 Tb164 2.271 1_556 S
O163 C173 1.252 . S
Tb164 O163 2.271 1_554 S
Tb164 O167 2.338 . S
Tb164 O171 2.312 . S
Tb164 O175 2.441 1_554 S
Tb164 O176 2.506 1_554 S
C165 O175 1.244 . S
C165 O176 1.265 . S
O166 Tb161 2.312 1_556 S
O166 C173 1.253 . S
O167 Tb164 2.338 . S
O167 C168 1.258 1_554 S
C168 O167 1.258 1_556 S
C168 O169 1.251 1_556 S
O169 C168 1.251 1_554 S
O170 Tb161 2.271 . S
O170 C162 1.252 . S
O171 C162 1.253 . S
O171 Tb164 2.312 . S
O172 Tb161 2.338 . S
O172 C177 1.258 . S
C173 O163 1.252 . S
C173 O166 1.253 . S
C174 O160 1.265 1_554 S
C174 O179 1.244 . S
O175 Tb164 2.441 1_556 S
O175 C165 1.244 . S
O176 Tb164 2.506 1_556 S
O176 C165 1.265 . S
C177 O172 1.258 . S
C177 O178 1.251 . S
O178 C177 1.251 . S
O179 Tb161 2.441 . S
O179 C174 1.244 . S
O180 Tb181 2.506 . S
O180 C194 1.265 . S
Tb181 O180 2.506 . S
Tb181 O186 2.312 . S
Tb181 O190 2.271 1_545 S
Tb181 O192 2.338 1_545 S
Tb181 O199 2.441 1_545 S
C182 O190 1.252 . S
C182 O191 1.253 . S
O183 Tb184 2.271 . S
O183 C193 1.252 . S
Tb184 O183 2.271 . S
Tb184 O187 2.338 . S
Tb184 O191 2.312 1_545 S
Tb184 O195 2.441 . S
Tb184 O196 2.506 . S
C185 O195 1.244 . S
C185 O196 1.265 . S
O186 Tb181 2.312 . S
O186 C193 1.253 . S
O187 Tb184 2.338 . S
O187 C188 1.258 . S
C188 O187 1.258 . S
C188 O189 1.251 . S
O189 C188 1.251 . S
O190 Tb181 2.271 1_565 S
O190 C182 1.252 . S
O191 C182 1.253 . S
O191 Tb184 2.312 1_565 S
O192 Tb181 2.338 1_565 S
O192 C197 1.258 . S
C193 O183 1.252 . S
C193 O186 1.253 . S
C194 O180 1.265 . S
C194 O199 1.244 1_545 S
O195 Tb184 2.441 . S
O195 C185 1.244 . S
O196 Tb184 2.506 . S
O196 C185 1.265 . S
C197 O192 1.258 . S
C197 O198 1.251 . S
O198 C197 1.251 . S
O199 Tb181 2.441 1_565 S
O199 C194 1.244 1_565 S
O200 Tb201 2.506 . S
O200 C214 1.265 . S
Tb201 O200 2.506 . S
Tb201 O206 2.312 . S
Tb201 O210 2.271 . S
Tb201 O212 2.338 . S
Tb201 O219 2.441 . S
C202 O210 1.252 . S
C202 O211 1.253 . S
O203 Tb204 2.271 . S
O203 C213 1.252 . S
Tb204 O203 2.271 . S
Tb204 O207 2.338 . S
Tb204 O211 2.312 . S
Tb204 O215 2.441 . S
Tb204 O216 2.506 . S
C205 O215 1.244 . S
C205 O216 1.265 . S
O206 Tb201 2.312 . S
O206 C213 1.253 . S
O207 Tb204 2.338 . S
O207 C208 1.258 . S
C208 O207 1.258 . S
C208 O209 1.251 . S
O209 C208 1.251 . S
O210 Tb201 2.271 . S
O210 C202 1.252 . S
O211 C202 1.253 . S
O211 Tb204 2.312 . S
O212 Tb201 2.338 . S
O212 C217 1.258 . S
C213 O203 1.252 . S
C213 O206 1.253 . S
C214 O200 1.265 . S
C214 O219 1.244 . S
O215 Tb204 2.441 . S
O215 C205 1.244 . S
O216 Tb204 2.506 . S
O216 C205 1.265 . S
C217 O212 1.258 . S
C217 O218 1.251 . S
O218 C217 1.251 . S
O219 Tb201 2.441 . S
O219 C214 1.244 . S
O220 Tb221 2.506 . S
O220 C234 1.265 . S
Tb221 O220 2.506 . S
Tb221 O226 2.312 1_455 S
Tb221 O230 2.271 . S
Tb221 O232 2.338 . S
Tb221 O239 2.441 . S
C222 O230 1.252 . S
C222 O231 1.253 . S
O223 Tb224 2.271 1_655 S
O223 C233 1.252 . S
Tb224 O223 2.271 1_455 S
Tb224 O227 2.338 . S
Tb224 O231 2.312 . S
Tb224 O235 2.441 1_455 S
Tb224 O236 2.500 1_455 S
C225 O235 1.244 . S
C225 O236 1.284 . S
O226 Tb221 2.312 1_655 S
O226 C233 1.253 . S
O227 Tb224 2.338 . S
O227 C228 1.258 . S
C228 O227 1.258 . S
C228 O229 1.251 . S
O229 C228 1.251 . S
O230 Tb221 2.271 . S
O230 C222 1.252 . S
O231 C222 1.253 . S
O231 Tb224 2.312 . S
O232 Tb221 2.338 . S
O232 C237 1.258 . S
C233 O223 1.252 . S
C233 O226 1.253 . S
C234 O220 1.265 . S
C234 O239 1.244 . S
O235 Tb224 2.441 1_655 S
O235 C225 1.244 . S
O236 Tb224 2.500 1_655 S
O236 C225 1.284 . S
C237 O232 1.258 . S
C237 O238 1.251 . S
O238 C237 1.251 . S
O239 Tb221 2.441 . S
O239 C234 1.244 . S
O240 Tb241 2.506 . S
O240 C254 1.265 . S
Tb241 O240 2.506 . S
Tb241 O246 2.312 . S
Tb241 O250 2.271 . S
Tb241 O252 2.338 . S
Tb241 O259 2.441 . S
C242 O250 1.252 . S
C242 O251 1.253 . S
O243 Tb244 2.271 . S
O243 C253 1.252 . S
Tb244 O243 2.271 . S
Tb244 O247 2.338 . S
Tb244 O251 2.312 . S
Tb244 O255 2.441 . S
Tb244 O256 2.506 . S
C245 O255 1.244 . S
C245 O256 1.265 . S
O246 Tb241 2.312 . S
O246 C253 1.253 . S
O247 Tb244 2.338 . S
O247 C248 1.258 . S
C248 O247 1.258 . S
C248 O249 1.251 . S
O249 C248 1.251 . S
O250 Tb241 2.271 . S
O250 C242 1.252 . S
O251 C242 1.253 . S
O251 Tb244 2.312 . S
O252 Tb241 2.338 . S
O252 C257 1.258 . S
C253 O243 1.252 . S
C253 O246 1.253 . S
C254 O240 1.265 . S
C254 O259 1.244 . S
O255 Tb244 2.441 . S
O255 C245 1.244 . S
O256 Tb244 2.506 . S
O256 C245 1.265 . S
C257 O252 1.258 . S
C257 O258 1.251 . S
O258 C257 1.251 . S
O259 Tb241 2.441 . S
O259 C254 1.244 . S
O260 Tb261 2.506 1_556 S
O260 C274 1.265 1_556 S
Tb261 O260 2.506 1_554 S
Tb261 O266 2.312 1_554 S
Tb261 O270 2.271 . S
Tb261 O272 2.338 . S
Tb261 O279 2.441 . S
C262 O270 1.252 . S
C262 O271 1.253 . S
O263 Tb264 2.271 1_556 S
O263 C273 1.252 . S
Tb264 O263 2.271 1_554 S
Tb264 O267 2.338 . S
Tb264 O271 2.312 . S
Tb264 O275 2.441 1_554 S
Tb264 O276 2.506 1_554 S
C265 O275 1.244 . S
C265 O276 1.265 . S
O266 Tb261 2.312 1_556 S
O266 C273 1.253 . S
O267 Tb264 2.338 . S
O267 C268 1.258 1_554 S
C268 O267 1.258 1_556 S
C268 O269 1.251 1_556 S
O269 C268 1.251 1_554 S
O270 Tb261 2.271 . S
O270 C262 1.252 . S
O271 C262 1.253 . S
O271 Tb264 2.312 . S
O272 Tb261 2.338 . S
O272 C277 1.258 . S
C273 O263 1.252 . S
C273 O266 1.253 . S
C274 O260 1.265 1_554 S
C274 O279 1.244 . S
O275 Tb264 2.441 1_556 S
O275 C265 1.244 . S
O276 Tb264 2.506 1_556 S
O276 C265 1.265 . S
C277 O272 1.258 . S
C277 O278 1.251 . S
O278 C277 1.251 . S
O279 Tb261 2.441 . S
O279 C274 1.244 . S
O280 Tb281 2.506 . S
O280 C294 1.265 . S
Tb281 O280 2.506 . S
Tb281 O286 2.312 . S
Tb281 O290 2.271 . S
Tb281 O292 2.338 . S
Tb281 O299 2.441 . S
C282 O290 1.252 . S
C282 O291 1.253 1_545 S
O283 Tb284 2.271 . S
O283 C293 1.252 1_565 S
Tb284 O283 2.271 . S
Tb284 O287 2.338 . S
Tb284 O291 2.312 . S
Tb284 O295 2.441 . S
Tb284 O296 2.506 . S
C285 O295 1.244 . S
C285 O296 1.265 . S
O286 Tb281 2.312 . S
O286 C293 1.253 . S
O287 Tb284 2.338 . S
O287 C288 1.258 . S
C288 O287 1.258 . S
C288 O289 1.251 . S
O289 C288 1.251 . S
O290 Tb281 2.271 . S
O290 C282 1.252 . S
O291 C282 1.253 1_565 S
O291 Tb284 2.312 . S
O292 Tb281 2.338 . S
O292 C297 1.258 . S
C293 O283 1.252 1_545 S
C293 O286 1.253 . S
C294 O280 1.265 . S
C294 O299 1.244 . S
O295 Tb284 2.441 . S
O295 C285 1.244 . S
O296 Tb284 2.506 . S
O296 C285 1.265 . S
C297 O292 1.258 . S
C297 O298 1.251 . S
O298 C297 1.251 . S
O299 Tb281 2.441 . S
O299 C294 1.244 . S
O300 Tb301 2.506 1_556 S
O300 C314 1.265 1_556 S
Tb301 O300 2.506 1_554 S
Tb301 O306 2.312 1_554 S
Tb301 O310 2.271 . S
Tb301 O312 2.338 . S
Tb301 O319 2.441 . S
C302 O310 1.252 . S
C302 O311 1.253 . S
O303 Tb304 2.271 1_556 S
O303 C313 1.252 . S
Tb304 O303 2.271 1_554 S
Tb304 O307 2.338 . S
Tb304 O311 2.312 . S
Tb304 O315 2.441 1_554 S
Tb304 O316 2.506 1_554 S
C305 O315 1.244 . S
C305 O316 1.265 . S
O306 Tb301 2.312 1_556 S
O306 C313 1.253 . S
O307 Tb304 2.338 . S
O307 C308 1.258 1_554 S
C308 O307 1.258 1_556 S
C308 O309 1.251 1_556 S
O309 C308 1.251 1_554 S
O310 Tb301 2.271 . S
O310 C302 1.252 . S
O311 C302 1.253 . S
O311 Tb304 2.312 . S
O312 Tb301 2.338 . S
O312 C317 1.258 . S
C313 O303 1.252 . S
C313 O306 1.253 . S
C314 O300 1.265 1_554 S
C314 O319 1.244 . S
O315 Tb304 2.441 1_556 S
O315 C305 1.244 . S
O316 Tb304 2.506 1_556 S
O316 C305 1.265 . S
C317 O312 1.258 . S
C317 O318 1.251 . S
O318 C317 1.251 . S
O319 Tb301 2.441 . S
O319 C314 1.244 . S
C320 C321 1.363 1_655 S
C320 C326 1.378 1_655 S
C320 N328 1.356 . S
C321 C320 1.363 1_455 S
C321 C327 1.363 . S
C322 C323 1.363 . S
C322 C327 1.379 . S
C322 N329 1.356 . S
C323 C322 1.363 . S
C323 C326 1.363 . S
N324 C326 1.356 1_655 S
N324 H336 0.984 . S
N324 H337 0.985 . S
N325 C327 1.356 . S
N325 H330 0.984 . S
N325 H331 0.985 . S
C326 C320 1.378 1_455 S
C326 C323 1.363 . S
C326 N324 1.356 1_455 S
C327 C321 1.363 . S
C327 C322 1.379 . S
C327 N325 1.356 . S
N328 C320 1.356 . S
N328 H334 0.984 . S
N328 H335 0.984 . S
N329 C322 1.356 . S
N329 H332 0.984 . S
N329 H333 0.985 . S
H330 N325 0.984 . S
H331 N325 0.985 . S
H332 N329 0.984 . S
H333 N329 0.985 . S
H334 N328 0.984 . S
H335 N328 0.984 . S
H336 N324 0.984 . S
H337 N324 0.985 . S
C338 C339 1.363 . S
C338 C344 1.379 . S
C338 N346 1.356 . S
C339 C338 1.363 . S
C339 C345 1.363 . S
C340 C341 1.363 . S
C340 C345 1.379 . S
C340 N347 1.356 . S
C341 C340 1.363 . S
C341 C344 1.363 . S
N342 C344 1.356 . S
N342 H354 0.984 . S
N342 H355 0.985 . S
N343 C345 1.356 . S
N343 H348 0.984 . S
N343 H349 0.985 . S
C344 C338 1.379 . S
C344 C341 1.363 . S
C344 N342 1.356 . S
C345 C339 1.363 . S
C345 C340 1.379 . S
C345 N343 1.356 . S
N346 C338 1.356 . S
N346 H352 0.984 . S
N346 H353 0.984 . S
N347 C340 1.356 . S
N347 H350 0.984 . S
N347 H351 0.985 . S
H348 N343 0.984 . S
H349 N343 0.985 . S
H350 N347 0.984 . S
H351 N347 0.985 . S
H352 N346 0.984 . S
H353 N346 0.984 . S
H354 N342 0.984 . S
H355 N342 0.985 . S
C356 C357 1.363 . S
C356 C362 1.379 . S
C356 N364 1.356 . S
C357 C356 1.363 . S
C357 C363 1.363 . S
C358 C359 1.363 . S
C358 C363 1.379 . S
C358 N365 1.356 . S
C359 C358 1.363 . S
C359 C362 1.363 . S
N360 C362 1.356 . S
N360 H372 0.984 . S
N360 H373 0.985 . S
N361 C363 1.356 . S
N361 H366 0.984 . S
N361 H367 0.985 . S
C362 C356 1.379 . S
C362 C359 1.363 . S
C362 N360 1.356 . S
C363 C357 1.363 . S
C363 C358 1.379 . S
C363 N361 1.356 . S
N364 C356 1.356 . S
N364 H370 0.984 . S
N364 H371 0.984 . S
N365 C358 1.356 . S
N365 H368 0.984 . S
N365 H369 0.985 . S
H366 N361 0.984 . S
H367 N361 0.985 . S
H368 N365 0.984 . S
H369 N365 0.985 . S
H370 N364 0.984 . S
H371 N364 0.984 . S
H372 N360 0.984 . S
H373 N360 0.985 . S
C374 C375 1.363 . S
C374 C380 1.379 . S
C374 N382 1.356 . S
C375 C374 1.363 . S
C375 C381 1.363 1_545 S
C376 C377 1.363 1_565 S
C376 C381 1.379 . S
C376 N383 1.356 . S
C377 C376 1.363 1_545 S
C377 C380 1.363 . S
N378 C380 1.356 . S
N378 H390 0.984 . S
N378 H391 0.985 . S
N379 C381 1.356 . S
N379 H384 0.984 . S
N379 H385 0.985 . S
C380 C374 1.379 . S
C380 C377 1.363 . S
C380 N378 1.356 . S
C381 C375 1.363 1_565 S
C381 C376 1.379 . S
C381 N379 1.356 . S
N382 C374 1.356 . S
N382 H388 0.984 . S
N382 H389 0.984 . S
N383 C376 1.356 . S
N383 H386 0.984 . S
N383 H387 0.985 . S
H384 N379 0.984 . S
H385 N379 0.985 . S
H386 N383 0.984 . S
H387 N383 0.985 . S
H388 N382 0.984 . S
H389 N382 0.984 . S
H390 N378 0.984 . S
H391 N378 0.985 . S
C392 C393 1.363 . S
C392 C398 1.379 . S
C392 N400 1.356 . S
C393 C392 1.363 . S
C393 C399 1.363 . S
C394 C395 1.363 . S
C394 C399 1.379 . S
C394 N401 1.356 . S
C395 C394 1.363 . S
C395 C398 1.363 . S
N396 C398 1.356 . S
N396 H408 0.984 . S
N396 H409 0.985 . S
N397 C399 1.356 . S
N397 H402 0.984 . S
N397 H403 0.985 . S
C398 C392 1.379 . S
C398 C395 1.363 . S
C398 N396 1.356 . S
C399 C393 1.363 . S
C399 C394 1.379 . S
C399 N397 1.356 . S
N400 C392 1.356 . S
N400 H406 0.984 . S
N400 H407 0.984 . S
N401 C394 1.356 . S
N401 H404 0.984 . S
N401 H405 0.985 . S
H402 N397 0.984 . S
H403 N397 0.985 . S
H404 N401 0.984 . S
H405 N401 0.985 . S
H406 N400 0.984 . S
H407 N400 0.984 . S
H408 N396 0.984 . S
H409 N396 0.985 . S
C410 C411 1.363 . S
C410 C416 1.379 1_455 S
C410 N418 1.356 1_455 S
C411 C410 1.363 . S
C411 C417 1.363 . S
C412 C413 1.363 . S
C412 C417 1.379 . S
C412 N419 1.356 . S
C413 C412 1.363 . S
C413 C416 1.363 1_455 S
N414 C416 1.356 . S
N414 H426 0.984 . S
N414 H427 0.985 . S
N415 C417 1.356 . S
N415 H420 0.984 . S
N415 H421 0.985 . S
C416 C410 1.379 1_655 S
C416 C413 1.363 1_655 S
C416 N414 1.356 . S
C417 C411 1.363 . S
C417 C412 1.379 . S
C417 N415 1.356 . S
N418 C410 1.356 1_655 S
N418 H424 0.984 . S
N418 H425 0.978 1_655 S
N419 C412 1.356 . S
N419 H422 0.984 . S
N419 H423 0.985 . S
H420 N415 0.984 . S
H421 N415 0.985 . S
H422 N419 0.984 . S
H423 N419 0.985 . S
H424 N418 0.984 . S
H425 N418 0.978 1_455 S
H426 N414 0.984 . S
H427 N414 0.985 . S
C428 C429 1.363 . S
C428 C434 1.379 . S
C428 N436 1.356 . S
C429 C428 1.363 . S
C429 C435 1.363 . S
C430 C431 1.363 . S
C430 C435 1.379 . S
C430 N437 1.356 . S
C431 C430 1.363 . S
C431 C434 1.363 . S
N432 C434 1.356 . S
N432 H444 0.984 . S
N432 H445 0.985 . S
N433 C435 1.356 . S
N433 H438 0.984 . S
N433 H439 0.985 . S
C434 C428 1.379 . S
C434 C431 1.363 . S
C434 N432 1.356 . S
C435 C429 1.363 . S
C435 C430 1.379 . S
C435 N433 1.356 . S
N436 C428 1.356 . S
N436 H442 0.984 . S
N436 H443 0.984 . S
N437 C430 1.356 . S
N437 H440 0.984 . S
N437 H441 0.985 . S
H438 N433 0.984 . S
H439 N433 0.985 . S
H440 N437 0.984 . S
H441 N437 0.985 . S
H442 N436 0.984 . S
H443 N436 0.984 . S
H444 N432 0.984 . S
H445 N432 0.985 . S
C446 C447 1.363 . S
C446 C452 1.379 . S
C446 N454 1.356 . S
C447 C446 1.363 . S
C447 C453 1.363 . S
C448 C449 1.363 . S
C448 C453 1.379 . S
C448 N455 1.356 . S
C449 C448 1.363 . S
C449 C452 1.363 . S
N450 C452 1.356 . S
N450 H462 0.984 . S
N450 H463 0.985 . S
N451 C453 1.356 . S
N451 H456 0.984 . S
N451 H457 0.985 . S
C452 C446 1.379 . S
C452 C449 1.363 . S
C452 N450 1.356 . S
C453 C447 1.363 . S
C453 C448 1.379 . S
C453 N451 1.356 . S
N454 C446 1.356 . S
N454 H460 0.984 . S
N454 H461 0.984 . S
N455 C448 1.356 . S
N455 H458 0.984 . S
N455 H459 0.985 . S
H456 N451 0.984 . S
H457 N451 0.985 . S
H458 N455 0.984 . S
H459 N455 0.985 . S
H460 N454 0.984 . S
H461 N454 0.984 . S
H462 N450 0.984 . S
H463 N450 0.985 . S
C464 C465 1.363 . S
C464 C470 1.379 . S
C464 N472 1.356 . S
C465 C464 1.363 . S
C465 C471 1.363 . S
C466 C467 1.363 . S
C466 C471 1.379 . S
C466 N473 1.356 . S
C467 C466 1.363 . S
C467 C470 1.363 . S
N468 C470 1.356 . S
N468 H480 0.984 . S
N468 H481 0.985 . S
N469 C471 1.356 . S
N469 H474 0.984 . S
N469 H475 0.985 . S
C470 C464 1.379 . S
C470 C467 1.363 . S
C470 N468 1.356 . S
C471 C465 1.363 . S
C471 C466 1.379 . S
C471 N469 1.356 . S
N472 C464 1.356 . S
N472 H478 0.984 . S
N472 H479 0.984 . S
N473 C466 1.356 . S
N473 H476 0.984 . S
N473 H477 0.985 . S
H474 N469 0.984 . S
H475 N469 0.985 . S
H476 N473 0.984 . S
H477 N473 0.985 . S
H478 N472 0.984 . S
H479 N472 0.984 . S
H480 N468 0.984 . S
H481 N468 0.985 . S
C482 C483 1.363 . S
C482 C488 1.379 . S
C482 N490 1.356 . S
C483 C482 1.363 . S
C483 C489 1.363 . S
C484 C485 1.363 . S
C484 C489 1.379 . S
C484 N491 1.356 . S
C485 C484 1.363 . S
C485 C488 1.363 . S
N486 C488 1.356 . S
N486 H498 0.984 . S
N486 H499 0.985 . S
N487 C489 1.356 . S
N487 H492 0.984 . S
N487 H493 0.985 . S
C488 C482 1.379 . S
C488 C485 1.363 . S
C488 N486 1.356 . S
C489 C483 1.363 . S
C489 C484 1.379 . S
C489 N487 1.356 . S
N490 C482 1.356 . S
N490 H496 0.984 . S
N490 H497 0.984 . S
N491 C484 1.356 . S
N491 H494 0.984 . S
N491 H495 0.985 . S
H492 N487 0.984 . S
H493 N487 0.985 . S
H494 N491 0.984 . S
H495 N491 0.985 . S
H496 N490 0.984 . S
H497 N490 0.984 . S
H498 N486 0.984 . S
H499 N486 0.985 . S
C500 C501 1.363 . S
C500 C506 1.379 . S
C500 N508 1.356 1_545 S
C501 C500 1.363 . S
C501 C507 1.363 . S
C502 C503 1.363 . S
C502 C507 1.379 . S
C502 N509 1.356 . S
C503 C502 1.363 . S
C503 C506 1.363 . S
N504 C506 1.356 . S
N504 H516 0.984 . S
N504 H517 0.985 . S
N505 C507 1.356 . S
N505 H510 0.984 . S
N505 H511 0.985 . S
C506 C500 1.379 . S
C506 C503 1.363 . S
C506 N504 1.356 . S
C507 C501 1.363 . S
C507 C502 1.379 . S
C507 N505 1.356 . S
N508 C500 1.356 1_565 S
N508 H514 0.984 . S
N508 H515 0.984 . S
N509 C502 1.356 . S
N509 H512 0.984 . S
N509 H513 0.985 . S
H510 N505 0.984 . S
H511 N505 0.985 . S
H512 N509 0.984 . S
H513 N509 0.985 . S
H514 N508 0.984 . S
H515 N508 0.984 . S
H516 N504 0.984 . S
H517 N504 0.985 . S
C518 C519 1.363 . S
C518 C524 1.379 . S
C518 N526 1.356 . S
C519 C518 1.363 . S
C519 C525 1.363 . S
C520 C521 1.363 1_655 S
C520 C525 1.379 1_655 S
C520 N527 1.356 . S
C521 C520 1.363 1_455 S
C521 C524 1.363 . S
N522 C524 1.356 . S
N522 H534 0.984 . S
N522 H535 0.985 . S
N523 C525 1.358 1_655 S
N523 H528 0.978 1_655 S
N523 H529 0.989 . S
C524 C518 1.379 . S
C524 C521 1.363 . S
C524 N522 1.356 . S
C525 C519 1.363 . S
C525 C520 1.379 1_455 S
C525 N523 1.358 1_455 S
N526 C518 1.356 . S
N526 H532 0.984 . S
N526 H533 0.984 . S
N527 C520 1.356 . S
N527 H530 0.984 . S
N527 H531 0.985 . S
H528 N523 0.978 1_455 S
H529 N523 0.989 . S
H530 N527 0.984 . S
H531 N527 0.985 . S
H532 N526 0.984 . S
H533 N526 0.984 . S
H534 N522 0.984 . S
H535 N522 0.985 . S
C536 C537 1.363 1_556 S
C536 C542 1.379 . S
C536 N544 1.356 . S
C537 C536 1.363 1_554 S
C537 C543 1.363 . S
C538 C539 1.363 . S
C538 C543 1.379 . S
C538 N545 1.356 . S
C539 C538 1.363 . S
C539 C542 1.363 1_554 S
N540 C542 1.356 . S
N540 H552 0.984 . S
N540 H553 0.985 . S
N541 C543 1.356 . S
N541 H546 0.984 . S
N541 H547 0.985 . S
C542 C536 1.379 . S
C542 C539 1.363 1_556 S
C542 N540 1.356 . S
C543 C537 1.363 . S
C543 C538 1.379 . S
C543 N541 1.356 . S
N544 C536 1.356 . S
N544 H550 0.984 . S
N544 H551 0.984 . S
N545 C538 1.356 . S
N545 H548 0.984 . S
N545 H549 0.985 . S
H546 N541 0.984 . S
H547 N541 0.985 . S
H548 N545 0.984 . S
H549 N545 0.985 . S
H550 N544 0.984 . S
H551 N544 0.984 . S
H552 N540 0.984 . S
H553 N540 0.985 . S
C554 C555 1.363 . S
C554 C560 1.379 . S
C554 N562 1.356 . S
C555 C554 1.363 . S
C555 C561 1.363 . S
C556 C557 1.363 . S
C556 C561 1.379 . S
C556 N563 1.356 . S
C557 C556 1.363 . S
C557 C560 1.363 . S
N558 C560 1.356 . S
N558 H570 0.984 . S
N558 H571 0.985 . S
N559 C561 1.356 . S
N559 H564 0.984 . S
N559 H565 0.985 . S
C560 C554 1.379 . S
C560 C557 1.363 . S
C560 N558 1.356 . S
C561 C555 1.363 . S
C561 C556 1.379 . S
C561 N559 1.356 . S
N562 C554 1.356 . S
N562 H568 0.984 . S
N562 H569 0.984 . S
N563 C556 1.356 . S
N563 H566 0.984 . S
N563 H567 0.985 . S
H564 N559 0.984 . S
H565 N559 0.985 . S
H566 N563 0.984 . S
H567 N563 0.985 . S
H568 N562 0.984 . S
H569 N562 0.984 . S
H570 N558 0.984 . S
H571 N558 0.985 . S
C572 C573 1.363 . S
C572 C578 1.379 . S
C572 N580 1.356 . S
C573 C572 1.363 . S
C573 C579 1.363 . S
C574 C575 1.363 . S
C574 C579 1.379 . S
C574 N581 1.356 . S
C575 C574 1.363 . S
C575 C578 1.363 . S
N576 C578 1.356 . S
N576 H588 0.984 . S
N576 H589 0.985 . S
N577 C579 1.356 . S
N577 H582 0.984 . S
N577 H583 0.985 . S
C578 C572 1.379 . S
C578 C575 1.363 . S
C578 N576 1.356 . S
C579 C573 1.363 . S
C579 C574 1.379 . S
C579 N577 1.356 . S
N580 C572 1.356 . S
N580 H586 0.984 . S
N580 H587 0.984 . S
N581 C574 1.356 . S
N581 H584 0.984 . S
N581 H585 0.985 . S
H582 N577 0.984 . S
H583 N577 0.985 . S
H584 N581 0.984 . S
H585 N581 0.985 . S
H586 N580 0.984 . S
H587 N580 0.984 . S
H588 N576 0.984 . S
H589 N576 0.985 . S
C590 C591 1.363 . S
C590 C596 1.379 . S
C590 N598 1.356 . S
C591 C590 1.363 . S
C591 C597 1.363 . S
C592 C593 1.363 . S
C592 C597 1.379 . S
C592 N599 1.356 . S
C593 C592 1.363 . S
C593 C596 1.363 . S
N594 C596 1.356 . S
N594 H606 0.984 . S
N594 H607 0.985 . S
N595 C597 1.356 . S
N595 H600 0.984 . S
N595 H601 0.985 . S
C596 C590 1.379 . S
C596 C593 1.363 . S
C596 N594 1.356 . S
C597 C591 1.363 . S
C597 C592 1.379 . S
C597 N595 1.356 . S
N598 C590 1.356 . S
N598 H604 0.984 . S
N598 H605 0.984 . S
N599 C592 1.356 . S
N599 H602 0.984 . S
N599 H603 0.985 . S
H600 N595 0.984 . S
H601 N595 0.985 . S
H602 N599 0.984 . S
H603 N599 0.985 . S
H604 N598 0.984 . S
H605 N598 0.984 . S
H606 N594 0.984 . S
H607 N594 0.985 . S
C608 C609 1.363 . S
C608 C614 1.379 . S
C608 N616 1.356 . S
C609 C608 1.363 . S
C609 C615 1.363 . S
C610 C611 1.363 . S
C610 C615 1.379 . S
C610 N617 1.356 . S
C611 C610 1.363 . S
C611 C614 1.363 . S
N612 C614 1.356 . S
N612 H624 0.984 . S
N612 H625 0.985 . S
N613 C615 1.356 . S
N613 H618 0.984 . S
N613 H619 0.985 . S
C614 C608 1.379 . S
C614 C611 1.363 . S
C614 N612 1.356 . S
C615 C609 1.363 . S
C615 C610 1.379 . S
C615 N613 1.356 . S
N616 C608 1.356 . S
N616 H622 0.984 . S
N616 H623 0.984 . S
N617 C610 1.356 . S
N617 H620 0.984 . S
N617 H621 0.985 . S
H618 N613 0.984 . S
H619 N613 0.985 . S
H620 N617 0.984 . S
H621 N617 0.985 . S
H622 N616 0.984 . S
H623 N616 0.984 . S
H624 N612 0.984 . S
H625 N612 0.985 . S
C626 C627 1.363 . S
C626 C632 1.379 . S
C626 N634 1.356 . S
C627 C626 1.363 . S
C627 C633 1.363 . S
C628 C629 1.363 . S
C628 C633 1.379 . S
C628 N635 1.356 . S
C629 C628 1.363 . S
C629 C632 1.363 . S
N630 C632 1.356 . S
N630 H642 0.984 . S
N630 H643 0.985 . S
N631 C633 1.356 . S
N631 H636 0.984 . S
N631 H637 0.985 . S
C632 C626 1.379 . S
C632 C629 1.363 . S
C632 N630 1.356 . S
C633 C627 1.363 . S
C633 C628 1.379 . S
C633 N631 1.356 . S
N634 C626 1.356 . S
N634 H640 0.984 . S
N634 H641 0.984 . S
N635 C628 1.356 . S
N635 H638 0.984 . S
N635 H639 0.985 . S
H636 N631 0.984 . S
H637 N631 0.985 . S
H638 N635 0.984 . S
H639 N635 0.985 . S
H640 N634 0.984 . S
H641 N634 0.984 . S
H642 N630 0.984 . S
H643 N630 0.985 . S
C644 C645 1.363 . S
C644 C650 1.379 . S
C644 N652 1.356 . S
C645 C644 1.363 . S
C645 C651 1.363 . S
C646 C647 1.363 . S
C646 C651 1.379 . S
C646 N653 1.356 . S
C647 C646 1.363 . S
C647 C650 1.363 . S
N648 C650 1.356 . S
N648 H660 0.984 . S
N648 H661 0.985 . S
N649 C651 1.356 . S
N649 H654 0.984 . S
N649 H655 0.985 . S
C650 C644 1.379 . S
C650 C647 1.363 . S
C650 N648 1.356 . S
C651 C645 1.363 . S
C651 C646 1.379 . S
C651 N649 1.356 . S
N652 C644 1.356 . S
N652 H658 0.984 . S
N652 H659 0.984 . S
N653 C646 1.356 . S
N653 H656 0.984 . S
N653 H657 0.985 . S
H654 N649 0.984 . S
H655 N649 0.985 . S
H656 N653 0.984 . S
H657 N653 0.985 . S
H658 N652 0.984 . S
H659 N652 0.984 . S
H660 N648 0.984 . S
H661 N648 0.985 . S
C662 C663 1.363 . S
C662 C668 1.379 . S
C662 N670 1.356 . S
C663 C662 1.363 . S
C663 C669 1.363 . S
C664 C665 1.363 . S
C664 C669 1.379 . S
C664 N671 1.356 . S
C665 C664 1.363 . S
C665 C668 1.363 . S
N666 C668 1.356 . S
N666 H678 0.984 . S
N666 H679 0.985 . S
N667 C669 1.356 . S
N667 H672 0.984 . S
N667 H673 0.985 . S
C668 C662 1.379 . S
C668 C665 1.363 . S
C668 N666 1.356 . S
C669 C663 1.363 . S
C669 C664 1.379 . S
C669 N667 1.356 . S
N670 C662 1.356 . S
N670 H676 0.984 . S
N670 H677 0.984 . S
N671 C664 1.356 . S
N671 H674 0.984 . S
N671 H675 0.985 . S
H672 N667 0.984 . S
H673 N667 0.985 . S
H674 N671 0.984 . S
H675 N671 0.985 . S
H676 N670 0.984 . S
H677 N670 0.984 . S
H678 N666 0.984 . S
H679 N666 0.985 . S
C680 C681 1.363 . S
C680 C686 1.379 . S
C680 N688 1.356 . S
C681 C680 1.363 . S
C681 C687 1.363 . S
C682 C683 1.363 . S
C682 C687 1.379 . S
C682 N689 1.356 . S
C683 C682 1.363 . S
C683 C686 1.363 . S
N684 C686 1.356 . S
N684 H696 0.984 . S
N684 H697 0.985 . S
N685 C687 1.356 . S
N685 H690 0.984 . S
N685 H691 0.985 . S
C686 C680 1.379 . S
C686 C683 1.363 . S
C686 N684 1.356 . S
C687 C681 1.363 . S
C687 C682 1.379 . S
C687 N685 1.356 . S
N688 C680 1.356 . S
N688 H694 0.984 . S
N688 H695 0.984 . S
N689 C682 1.356 . S
N689 H692 0.984 . S
N689 H693 0.985 . S
H690 N685 0.984 . S
H691 N685 0.985 . S
H692 N689 0.984 . S
H693 N689 0.985 . S
H694 N688 0.984 . S
H695 N688 0.984 . S
H696 N684 0.984 . S
H697 N684 0.985 . S
C698 C699 1.363 . S
C698 C704 1.379 . S
C698 N706 1.356 . S
C699 C698 1.363 . S
C699 C705 1.363 1_455 S
C700 C701 1.363 1_655 S
C700 C705 1.379 . S
C700 N707 1.356 . S
C701 C700 1.363 1_455 S
C701 C704 1.363 . S
N702 C704 1.356 . S
N702 H714 0.984 . S
N702 H715 0.985 . S
N703 C705 1.356 . S
N703 H708 0.984 . S
N703 H709 0.985 . S
C704 C698 1.379 . S
C704 C701 1.363 . S
C704 N702 1.356 . S
C705 C699 1.363 1_655 S
C705 C700 1.379 . S
C705 N703 1.356 . S
N706 C698 1.356 . S
N706 H712 0.984 . S
N706 H713 0.984 . S
N707 C700 1.356 . S
N707 H710 0.984 . S
N707 H711 0.985 . S
H708 N703 0.984 . S
H709 N703 0.985 . S
H710 N707 0.984 . S
H711 N707 0.985 . S
H712 N706 0.984 . S
H713 N706 0.984 . S
H714 N702 0.984 . S
H715 N702 0.985 . S
C716 C717 1.363 . S
C716 C722 1.379 . S
C716 N724 1.356 . S
C717 C716 1.363 . S
C717 C723 1.363 . S
C718 C719 1.363 . S
C718 C723 1.379 . S
C718 N725 1.356 . S
C719 C718 1.363 . S
C719 C722 1.363 . S
N720 C722 1.356 . S
N720 H732 0.984 . S
N720 H733 0.985 . S
N721 C723 1.356 . S
N721 H726 0.984 . S
N721 H727 0.985 . S
C722 C716 1.379 . S
C722 C719 1.363 . S
C722 N720 1.356 . S
C723 C717 1.363 . S
C723 C718 1.379 . S
C723 N721 1.356 . S
N724 C716 1.356 . S
N724 H730 0.984 . S
N724 H731 0.984 . S
N725 C718 1.356 . S
N725 H728 0.984 . S
N725 H729 0.985 . S
H726 N721 0.984 . S
H727 N721 0.985 . S
H728 N725 0.984 . S
H729 N725 0.985 . S
H730 N724 0.984 . S
H731 N724 0.984 . S
H732 N720 0.984 . S
H733 N720 0.985 . S
C734 C735 1.363 . S
C734 C740 1.379 . S
C734 N742 1.356 . S
C735 C734 1.363 . S
C735 C741 1.363 . S
C736 C737 1.363 . S
C736 C741 1.379 . S
C736 N743 1.356 . S
C737 C736 1.363 . S
C737 C740 1.363 . S
N738 C740 1.356 . S
N738 H750 0.984 . S
N738 H751 0.985 . S
N739 C741 1.356 . S
N739 H744 0.984 . S
N739 H745 0.985 . S
C740 C734 1.379 . S
C740 C737 1.363 . S
C740 N738 1.356 . S
C741 C735 1.363 . S
C741 C736 1.379 . S
C741 N739 1.356 . S
N742 C734 1.356 . S
N742 H748 0.984 . S
N742 H749 0.984 . S
N743 C736 1.356 . S
N743 H746 0.984 . S
N743 H747 0.985 . S
H744 N739 0.984 . S
H745 N739 0.985 . S
H746 N743 0.984 . S
H747 N743 0.985 . S
H748 N742 0.984 . S
H749 N742 0.984 . S
H750 N738 0.984 . S
H751 N738 0.985 . S
C752 C753 1.363 . S
C752 C758 1.379 . S
C752 N760 1.356 . S
C753 C752 1.363 . S
C753 C759 1.363 . S
C754 C755 1.363 . S
C754 C759 1.379 . S
C754 N761 1.356 . S
C755 C754 1.363 . S
C755 C758 1.363 . S
N756 C758 1.356 . S
N756 H768 0.984 . S
N756 H769 0.985 . S
N757 C759 1.356 . S
N757 H762 0.984 . S
N757 H763 0.985 . S
C758 C752 1.379 . S
C758 C755 1.363 . S
C758 N756 1.356 . S
C759 C753 1.363 . S
C759 C754 1.379 . S
C759 N757 1.356 . S
N760 C752 1.356 . S
N760 H766 0.984 . S
N760 H767 0.984 . S
N761 C754 1.356 . S
N761 H764 0.984 . S
N761 H765 0.985 . S
H762 N757 0.984 . S
H763 N757 0.985 . S
H764 N761 0.984 . S
H765 N761 0.985 . S
H766 N760 0.984 . S
H767 N760 0.984 . S
H768 N756 0.984 . S
H769 N756 0.985 . S
C770 C771 1.363 . S
C770 C776 1.379 . S
C770 N778 1.356 . S
C771 C770 1.363 . S
C771 C777 1.363 . S
C772 C773 1.363 . S
C772 C777 1.379 . S
C772 N779 1.356 . S
C773 C772 1.363 . S
C773 C776 1.363 . S
N774 C776 1.356 . S
N774 H786 0.984 . S
N774 H787 0.985 . S
N775 C777 1.356 . S
N775 H780 0.984 . S
N775 H781 0.985 . S
C776 C770 1.379 . S
C776 C773 1.363 . S
C776 N774 1.356 . S
C777 C771 1.363 . S
C777 C772 1.379 . S
C777 N775 1.356 . S
N778 C770 1.356 . S
N778 H784 0.984 . S
N778 H785 0.984 . S
N779 C772 1.356 . S
N779 H782 0.984 . S
N779 H783 0.985 . S
H780 N775 0.984 . S
H781 N775 0.985 . S
H782 N779 0.984 . S
H783 N779 0.985 . S
H784 N778 0.984 . S
H785 N778 0.984 . S
H786 N774 0.984 . S
H787 N774 0.985 . S
C788 C789 1.363 1_565 S
C788 C794 1.379 . S
C788 N796 1.356 . S
C789 C788 1.363 1_545 S
C789 C795 1.363 . S
C790 C791 1.363 . S
C790 C795 1.379 . S
C790 N797 1.356 . S
C791 C790 1.363 . S
C791 C794 1.363 1_545 S
N792 C794 1.356 . S
N792 H804 0.984 . S
N792 H805 0.985 . S
N793 C795 1.356 . S
N793 H798 0.984 . S
N793 H799 0.985 . S
C794 C788 1.379 . S
C794 C791 1.363 1_565 S
C794 N792 1.356 . S
C795 C789 1.363 . S
C795 C790 1.379 . S
C795 N793 1.356 . S
N796 C788 1.356 . S
N796 H802 0.984 . S
N796 H803 0.984 . S
N797 C790 1.356 . S
N797 H800 0.984 . S
N797 H801 0.985 . S
H798 N793 0.984 . S
H799 N793 0.985 . S
H800 N797 0.984 . S
H801 N797 0.985 . S
H802 N796 0.984 . S
H803 N796 0.984 . S
H804 N792 0.984 . S
H805 N792 0.985 . S
C806 C807 1.363 1_554 S
C806 C812 1.379 . S
C806 N814 1.356 . S
C807 C806 1.363 1_556 S
C807 C813 1.363 . S
C808 C809 1.363 . S
C808 C813 1.379 . S
C808 N815 1.356 . S
C809 C808 1.363 . S
C809 C812 1.363 1_556 S
N810 C812 1.356 . S
N810 H822 0.984 . S
N810 H823 0.985 . S
N811 C813 1.356 . S
N811 H816 0.984 . S
N811 H817 0.985 . S
C812 C806 1.379 . S
C812 C809 1.363 1_554 S
C812 N810 1.356 . S
C813 C807 1.363 . S
C813 C808 1.379 . S
C813 N811 1.356 . S
N814 C806 1.356 . S
N814 H820 0.984 . S
N814 H821 0.984 . S
N815 C808 1.356 . S
N815 H818 0.984 . S
N815 H819 0.985 . S
H816 N811 0.984 . S
H817 N811 0.985 . S
H818 N815 0.984 . S
H819 N815 0.985 . S
H820 N814 0.984 . S
H821 N814 0.984 . S
H822 N810 0.984 . S
H823 N810 0.985 . S
C824 C825 1.363 . S
C824 C830 1.379 . S
C824 N832 1.356 . S
C825 C824 1.363 . S
C825 C831 1.363 . S
C826 C827 1.363 . S
C826 C831 1.379 . S
C826 N833 1.356 . S
C827 C826 1.363 . S
C827 C830 1.363 . S
N828 C830 1.356 . S
N828 H840 0.984 . S
N828 H841 0.985 . S
N829 C831 1.356 . S
N829 H834 0.984 . S
N829 H835 0.985 . S
C830 C824 1.379 . S
C830 C827 1.363 . S
C830 N828 1.356 . S
C831 C825 1.363 . S
C831 C826 1.379 . S
C831 N829 1.356 . S
N832 C824 1.356 . S
N832 H838 0.984 . S
N832 H839 0.984 . S
N833 C826 1.356 . S
N833 H836 0.984 . S
N833 H837 0.985 . S
H834 N829 0.984 . S
H835 N829 0.985 . S
H836 N833 0.984 . S
H837 N833 0.985 . S
H838 N832 0.984 . S
H839 N832 0.984 . S
H840 N828 0.984 . S
H841 N828 0.985 . S
C842 C843 1.363 . S
C842 C848 1.379 . S
C842 N850 1.356 . S
C843 C842 1.363 . S
C843 C849 1.363 . S
C844 C845 1.363 . S
C844 C849 1.379 . S
C844 N851 1.356 . S
C845 C844 1.363 . S
C845 C848 1.363 . S
N846 C848 1.356 . S
N846 H858 0.984 . S
N846 H859 0.985 . S
N847 C849 1.356 . S
N847 H852 0.984 . S
N847 H853 0.985 . S
C848 C842 1.379 . S
C848 C845 1.363 . S
C848 N846 1.356 . S
C849 C843 1.363 . S
C849 C844 1.379 . S
C849 N847 1.356 . S
N850 C842 1.356 . S
N850 H856 0.984 . S
N850 H857 0.984 . S
N851 C844 1.356 . S
N851 H854 0.984 . S
N851 H855 0.985 . S
H852 N847 0.984 . S
H853 N847 0.985 . S
H854 N851 0.984 . S
H855 N851 0.985 . S
H856 N850 0.984 . S
H857 N850 0.984 . S
H858 N846 0.984 . S
H859 N846 0.985 . S
C860 C861 1.363 . S
C860 C866 1.379 . S
C860 N868 1.356 . S
C861 C860 1.363 . S
C861 C867 1.363 . S
C862 C863 1.363 . S
C862 C867 1.379 . S
C862 N869 1.356 . S
C863 C862 1.363 . S
C863 C866 1.363 . S
N864 C866 1.356 . S
N864 H876 0.984 . S
N864 H877 0.985 . S
N865 C867 1.356 . S
N865 H870 0.984 . S
N865 H871 0.985 . S
C866 C860 1.379 . S
C866 C863 1.363 . S
C866 N864 1.356 . S
C867 C861 1.363 . S
C867 C862 1.379 . S
C867 N865 1.356 . S
N868 C860 1.356 . S
N868 H874 0.984 . S
N868 H875 0.984 . S
N869 C862 1.356 . S
N869 H872 0.984 . S
N869 H873 0.985 . S
H870 N865 0.984 . S
H871 N865 0.985 . S
H872 N869 0.984 . S
H873 N869 0.985 . S
H874 N868 0.984 . S
H875 N868 0.984 . S
H876 N864 0.984 . S
H877 N864 0.985 . S
C878 C879 1.363 . S
C878 C884 1.379 . S
C878 N886 1.356 . S
C879 C878 1.363 . S
C879 C885 1.363 . S
C880 C881 1.363 . S
C880 C885 1.379 . S
C880 N887 1.356 . S
C881 C880 1.363 . S
C881 C884 1.363 . S
N882 C884 1.356 . S
N882 H894 0.984 . S
N882 H895 0.985 . S
N883 C885 1.356 . S
N883 H888 0.984 . S
N883 H889 0.985 . S
C884 C878 1.379 . S
C884 C881 1.363 . S
C884 N882 1.356 . S
C885 C879 1.363 . S
C885 C880 1.379 . S
C885 N883 1.356 . S
N886 C878 1.356 . S
N886 H892 0.984 . S
N886 H893 0.984 . S
N887 C880 1.356 . S
N887 H890 0.984 . S
N887 H891 0.985 . S
H888 N883 0.984 . S
H889 N883 0.985 . S
H890 N887 0.984 . S
H891 N887 0.985 . S
H892 N886 0.984 . S
H893 N886 0.984 . S
H894 N882 0.984 . S
H895 N882 0.985 . S
C896 C897 1.363 . S
C896 C902 1.379 . S
C896 N904 1.356 . S
C897 C896 1.363 . S
C897 C903 1.363 . S
C898 C899 1.363 . S
C898 C903 1.379 . S
C898 N905 1.356 . S
C899 C898 1.363 . S
C899 C902 1.363 . S
N900 C902 1.356 . S
N900 H912 0.984 . S
N900 H913 0.985 . S
N901 C903 1.356 . S
N901 H906 0.984 . S
N901 H907 0.985 . S
C902 C896 1.379 . S
C902 C899 1.363 . S
C902 N900 1.356 . S
C903 C897 1.363 . S
C903 C898 1.379 . S
C903 N901 1.356 . S
N904 C896 1.356 . S
N904 H910 0.984 . S
N904 H911 0.984 . S
N905 C898 1.356 . S
N905 H908 0.984 . S
N905 H909 0.985 . S
H906 N901 0.984 . S
H907 N901 0.985 . S
H908 N905 0.984 . S
H909 N905 0.985 . S
H910 N904 0.984 . S
H911 N904 0.984 . S
H912 N900 0.984 . S
H913 N900 0.985 . S
C914 C915 1.363 . S
C914 C920 1.379 . S
C914 N922 1.356 . S
C915 C914 1.363 . S
C915 C921 1.363 . S
C916 C917 1.363 . S
C916 C921 1.379 . S
C916 N923 1.356 . S
C917 C916 1.363 . S
C917 C920 1.363 . S
N918 C920 1.356 . S
N918 H930 0.984 . S
N918 H931 0.985 . S
N919 C921 1.356 . S
N919 H924 0.984 . S
N919 H925 0.985 . S
C920 C914 1.379 . S
C920 C917 1.363 . S
C920 N918 1.356 . S
C921 C915 1.363 . S
C921 C916 1.379 . S
C921 N919 1.356 . S
N922 C914 1.356 . S
N922 H928 0.991 . S
N922 H929 0.981 1_655 S
N923 C916 1.356 . S
N923 H926 0.984 . S
N923 H927 0.985 . S
H924 N919 0.984 . S
H925 N919 0.985 . S
H926 N923 0.984 . S
H927 N923 0.985 . S
H928 N922 0.991 . S
H929 N922 0.981 1_455 S
H930 N918 0.984 . S
H931 N918 0.985 . S
C932 C933 1.363 . S
C932 C938 1.379 . S
C932 N940 1.356 . S
C933 C932 1.363 . S
C933 C939 1.363 . S
C934 C935 1.363 . S
C934 C939 1.379 . S
C934 N941 1.356 . S
C935 C934 1.363 . S
C935 C938 1.363 . S
N936 C938 1.356 . S
N936 H948 0.984 . S
N936 H949 0.985 . S
N937 C939 1.356 . S
N937 H942 0.984 . S
N937 H943 0.985 . S
C938 C932 1.379 . S
C938 C935 1.363 . S
C938 N936 1.356 . S
C939 C933 1.363 . S
C939 C934 1.379 . S
C939 N937 1.356 . S
N940 C932 1.356 . S
N940 H946 0.984 . S
N940 H947 0.984 . S
N941 C934 1.356 . S
N941 H944 0.984 . S
N941 H945 0.985 . S
H942 N937 0.984 . S
H943 N937 0.985 . S
H944 N941 0.984 . S
H945 N941 0.985 . S
H946 N940 0.984 . S
H947 N940 0.984 . S
H948 N936 0.984 . S
H949 N936 0.985 . S
C950 C951 1.363 . S
C950 C956 1.379 . S
C950 N958 1.356 . S
C951 C950 1.363 . S
C951 C957 1.363 . S
C952 C953 1.363 . S
C952 C957 1.379 . S
C952 N959 1.356 . S
C953 C952 1.363 . S
C953 C956 1.363 . S
N954 C956 1.356 . S
N954 H966 0.984 . S
N954 H967 0.985 . S
N955 C957 1.356 . S
N955 H960 0.984 . S
N955 H961 0.985 . S
C956 C950 1.379 . S
C956 C953 1.363 . S
C956 N954 1.356 . S
C957 C951 1.363 . S
C957 C952 1.379 . S
C957 N955 1.356 . S
N958 C950 1.356 . S
N958 H964 0.984 . S
N958 H965 0.984 . S
N959 C952 1.356 . S
N959 H962 0.984 . S
N959 H963 0.985 . S
H960 N955 0.984 . S
H961 N955 0.985 . S
H962 N959 0.984 . S
H963 N959 0.985 . S
H964 N958 0.984 . S
H965 N958 0.984 . S
H966 N954 0.984 . S
H967 N954 0.985 . S
C968 C969 1.363 . S
C968 C974 1.379 . S
C968 N976 1.356 . S
C969 C968 1.363 . S
C969 C975 1.363 . S
C970 C971 1.363 . S
C970 C975 1.379 . S
C970 N977 1.356 . S
C971 C970 1.363 . S
C971 C974 1.363 . S
N972 C974 1.356 . S
N972 H984 0.984 . S
N972 H985 0.985 . S
N973 C975 1.356 . S
N973 H978 0.984 . S
N973 H979 0.985 . S
C974 C968 1.379 . S
C974 C971 1.363 . S
C974 N972 1.356 . S
C975 C969 1.363 . S
C975 C970 1.379 . S
C975 N973 1.356 . S
N976 C968 1.356 . S
N976 H982 0.984 . S
N976 H983 0.984 . S
N977 C970 1.356 . S
N977 H980 0.984 . S
N977 H981 0.985 . S
H978 N973 0.984 . S
H979 N973 0.985 . S
H980 N977 0.984 . S
H981 N977 0.985 . S
H982 N976 0.984 . S
H983 N976 0.984 . S
H984 N972 0.984 . S
H985 N972 0.985 . S
C986 C987 1.363 1_554 S
C986 C992 1.379 . S
C986 N994 1.356 . S
C987 C986 1.363 1_556 S
C987 C993 1.363 . S
C988 C989 1.363 . S
C988 C993 1.379 . S
C988 N995 1.356 . S
C989 C988 1.363 . S
C989 C992 1.363 1_556 S
N990 C992 1.356 . S
N990 H1002 0.984 . S
N990 H1003 0.985 . S
N991 C993 1.356 . S
N991 H996 0.984 . S
N991 H997 0.985 . S
C992 C986 1.379 . S
C992 C989 1.363 1_554 S
C992 N990 1.356 . S
C993 C987 1.363 . S
C993 C988 1.379 . S
C993 N991 1.356 . S
N994 C986 1.356 . S
N994 H1000 0.984 . S
N994 H1001 0.984 . S
N995 C988 1.356 . S
N995 H998 0.984 . S
N995 H999 0.985 . S
H996 N991 0.984 . S
H997 N991 0.985 . S
H998 N995 0.984 . S
H999 N995 0.985 . S
H1000 N994 0.984 . S
H1001 N994 0.984 . S
H1002 N990 0.984 . S
H1003 N990 0.985 . S
C1004 C1005 1.363 . S
C1004 C1010 1.379 . S
C1004 N1012 1.356 . S
C1005 C1004 1.363 . S
C1005 C1011 1.363 . S
C1006 C1007 1.363 . S
C1006 C1011 1.379 . S
C1006 N1013 1.356 . S
C1007 C1006 1.363 . S
C1007 C1010 1.363 . S
N1008 C1010 1.356 . S
N1008 H1020 0.984 . S
N1008 H1021 0.985 . S
N1009 C1011 1.356 . S
N1009 H1014 0.984 . S
N1009 H1015 0.985 . S
C1010 C1004 1.379 . S
C1010 C1007 1.363 . S
C1010 N1008 1.356 . S
C1011 C1005 1.363 . S
C1011 C1006 1.379 . S
C1011 N1009 1.356 . S
N1012 C1004 1.356 . S
N1012 H1018 0.984 . S
N1012 H1019 0.984 . S
N1013 C1006 1.356 . S
N1013 H1016 0.984 . S
N1013 H1017 0.985 . S
H1014 N1009 0.984 . S
H1015 N1009 0.985 . S
H1016 N1013 0.984 . S
H1017 N1013 0.985 . S
H1018 N1012 0.984 . S
H1019 N1012 0.984 . S
H1020 N1008 0.984 . S
H1021 N1008 0.985 . S
C1022 C1023 1.363 . S
C1022 C1028 1.379 . S
C1022 N1030 1.356 . S
C1023 C1022 1.363 . S
C1023 C1029 1.363 . S
C1024 C1025 1.363 . S
C1024 C1029 1.379 . S
C1024 N1031 1.356 . S
C1025 C1024 1.363 . S
C1025 C1028 1.363 . S
N1026 C1028 1.356 . S
N1026 H1038 0.984 . S
N1026 H1039 0.985 . S
N1027 C1029 1.356 . S
N1027 H1032 0.984 . S
N1027 H1033 0.985 . S
C1028 C1022 1.379 . S
C1028 C1025 1.363 . S
C1028 N1026 1.356 . S
C1029 C1023 1.363 . S
C1029 C1024 1.379 . S
C1029 N1027 1.356 . S
N1030 C1022 1.356 . S
N1030 H1036 0.984 . S
N1030 H1037 0.984 . S
N1031 C1024 1.356 . S
N1031 H1034 0.984 . S
N1031 H1035 0.985 . S
H1032 N1027 0.984 . S
H1033 N1027 0.985 . S
H1034 N1031 0.984 . S
H1035 N1031 0.985 . S
H1036 N1030 0.984 . S
H1037 N1030 0.984 . S
H1038 N1026 0.984 . S
H1039 N1026 0.985 . S
C1040 C1041 1.363 . S
C1040 C1046 1.379 . S
C1040 N1048 1.356 . S
C1041 C1040 1.363 . S
C1041 C1047 1.363 . S
C1042 C1043 1.363 . S
C1042 C1047 1.379 . S
C1042 N1049 1.356 . S
C1043 C1042 1.363 . S
C1043 C1046 1.363 . S
N1044 C1046 1.356 . S
N1044 H1056 0.984 . S
N1044 H1057 0.985 . S
N1045 C1047 1.356 . S
N1045 H1050 0.984 . S
N1045 H1051 0.985 . S
C1046 C1040 1.379 . S
C1046 C1043 1.363 . S
C1046 N1044 1.356 . S
C1047 C1041 1.363 . S
C1047 C1042 1.379 . S
C1047 N1045 1.356 . S
N1048 C1040 1.356 . S
N1048 H1054 0.984 . S
N1048 H1055 0.984 . S
N1049 C1042 1.356 . S
N1049 H1052 0.984 . S
N1049 H1053 0.985 . S
H1050 N1045 0.984 . S
H1051 N1045 0.985 . S
H1052 N1049 0.984 . S
H1053 N1049 0.985 . S
H1054 N1048 0.984 . S
H1055 N1048 0.984 . S
H1056 N1044 0.984 . S
H1057 N1044 0.985 . S
C1058 C1059 1.363 . S
C1058 C1064 1.379 . S
C1058 N1066 1.356 . S
C1059 C1058 1.363 . S
C1059 C1065 1.363 . S
C1060 C1061 1.363 . S
C1060 C1065 1.379 . S
C1060 N1067 1.356 . S
C1061 C1060 1.363 . S
C1061 C1064 1.363 . S
N1062 C1064 1.356 . S
N1062 H1074 0.984 . S
N1062 H1075 0.985 . S
N1063 C1065 1.356 . S
N1063 H1068 0.984 . S
N1063 H1069 0.985 . S
C1064 C1058 1.379 . S
C1064 C1061 1.363 . S
C1064 N1062 1.356 . S
C1065 C1059 1.363 . S
C1065 C1060 1.379 . S
C1065 N1063 1.356 . S
N1066 C1058 1.356 . S
N1066 H1072 0.984 . S
N1066 H1073 0.984 . S
N1067 C1060 1.356 . S
N1067 H1070 0.984 . S
N1067 H1071 0.985 . S
H1068 N1063 0.984 . S
H1069 N1063 0.985 . S
H1070 N1067 0.984 . S
H1071 N1067 0.985 . S
H1072 N1066 0.984 . S
H1073 N1066 0.984 . S
H1074 N1062 0.984 . S
H1075 N1062 0.985 . S
C1076 C1077 1.363 . S
C1076 C1082 1.379 . S
C1076 N1084 1.356 . S
C1077 C1076 1.363 . S
C1077 C1083 1.363 1_554 S
C1078 C1079 1.363 1_556 S
C1078 C1083 1.379 . S
C1078 N1085 1.356 . S
C1079 C1078 1.363 1_554 S
C1079 C1082 1.363 . S
N1080 C1082 1.356 . S
N1080 H1092 0.984 . S
N1080 H1093 0.985 . S
N1081 C1083 1.356 . S
N1081 H1086 0.984 . S
N1081 H1087 0.985 . S
C1082 C1076 1.379 . S
C1082 C1079 1.363 . S
C1082 N1080 1.356 . S
C1083 C1077 1.363 1_556 S
C1083 C1078 1.379 . S
C1083 N1081 1.356 . S
N1084 C1076 1.356 . S
N1084 H1090 0.984 . S
N1084 H1091 0.984 . S
N1085 C1078 1.356 . S
N1085 H1088 0.984 . S
N1085 H1089 0.985 . S
H1086 N1081 0.984 . S
H1087 N1081 0.985 . S
H1088 N1085 0.984 . S
H1089 N1085 0.985 . S
H1090 N1084 0.984 . S
H1091 N1084 0.984 . S
H1092 N1080 0.984 . S
H1093 N1080 0.985 . S
C1094 C1095 1.363 . S
C1094 C1100 1.379 . S
C1094 N1102 1.356 . S
C1095 C1094 1.363 . S
C1095 C1101 1.363 . S
C1096 C1097 1.363 . S
C1096 C1101 1.379 . S
C1096 N1103 1.356 . S
C1097 C1096 1.363 . S
C1097 C1100 1.363 . S
N1098 C1100 1.356 . S
N1098 H1110 0.984 . S
N1098 H1111 0.985 . S
N1099 C1101 1.356 . S
N1099 H1104 0.984 . S
N1099 H1105 0.985 . S
C1100 C1094 1.379 . S
C1100 C1097 1.363 . S
C1100 N1098 1.356 . S
C1101 C1095 1.363 . S
C1101 C1096 1.379 . S
C1101 N1099 1.356 . S
N1102 C1094 1.356 . S
N1102 H1108 0.984 . S
N1102 H1109 0.984 . S
N1103 C1096 1.356 . S
N1103 H1106 0.984 . S
N1103 H1107 0.985 . S
H1104 N1099 0.984 . S
H1105 N1099 0.985 . S
H1106 N1103 0.984 . S
H1107 N1103 0.985 . S
H1108 N1102 0.984 . S
H1109 N1102 0.984 . S
H1110 N1098 0.984 . S
H1111 N1098 0.985 . S
C1112 C1113 1.363 . S
C1112 C1118 1.379 . S
C1112 N1120 1.356 . S
C1113 C1112 1.363 . S
C1113 C1119 1.363 . S
C1114 C1115 1.363 . S
C1114 C1119 1.379 . S
C1114 N1121 1.356 . S
C1115 C1114 1.363 . S
C1115 C1118 1.363 . S
N1116 C1118 1.356 . S
N1116 H1128 0.984 . S
N1116 H1129 0.985 . S
N1117 C1119 1.356 . S
N1117 H1122 0.984 . S
N1117 H1123 0.985 . S
C1118 C1112 1.379 . S
C1118 C1115 1.363 . S
C1118 N1116 1.356 . S
C1119 C1113 1.363 . S
C1119 C1114 1.379 . S
C1119 N1117 1.356 . S
N1120 C1112 1.356 . S
N1120 H1126 0.984 . S
N1120 H1127 0.984 . S
N1121 C1114 1.356 . S
N1121 H1124 0.984 . S
N1121 H1125 0.985 . S
H1122 N1117 0.984 . S
H1123 N1117 0.985 . S
H1124 N1121 0.984 . S
H1125 N1121 0.985 . S
H1126 N1120 0.984 . S
H1127 N1120 0.984 . S
H1128 N1116 0.984 . S
H1129 N1116 0.985 . S
C1130 C1131 1.363 . S
C1130 C1136 1.379 . S
C1130 N1138 1.356 . S
C1131 C1130 1.363 . S
C1131 C1137 1.363 . S
C1132 C1133 1.363 . S
C1132 C1137 1.379 . S
C1132 N1139 1.356 . S
C1133 C1132 1.363 . S
C1133 C1136 1.363 . S
N1134 C1136 1.356 . S
N1134 H1146 0.984 . S
N1134 H1147 0.985 . S
N1135 C1137 1.356 . S
N1135 H1140 0.984 . S
N1135 H1141 0.985 . S
C1136 C1130 1.379 . S
C1136 C1133 1.363 . S
C1136 N1134 1.356 . S
C1137 C1131 1.363 . S
C1137 C1132 1.379 . S
C1137 N1135 1.356 . S
N1138 C1130 1.356 . S
N1138 H1144 0.984 . S
N1138 H1145 0.984 . S
N1139 C1132 1.356 . S
N1139 H1142 0.984 . S
N1139 H1143 0.985 . S
H1140 N1135 0.984 . S
H1141 N1135 0.985 . S
H1142 N1139 0.984 . S
H1143 N1139 0.985 . S
H1144 N1138 0.984 . S
H1145 N1138 0.984 . S
H1146 N1134 0.984 . S
H1147 N1134 0.985 . S
C1148 C1149 1.363 . S
C1148 C1154 1.379 . S
C1148 N1156 1.356 . S
C1149 C1148 1.363 . S
C1149 C1155 1.363 . S
C1150 C1151 1.363 . S
C1150 C1155 1.379 . S
C1150 N1157 1.356 . S
C1151 C1150 1.363 . S
C1151 C1154 1.363 . S
N1152 C1154 1.356 . S
N1152 H1164 0.984 . S
N1152 H1165 0.985 . S
N1153 C1155 1.356 . S
N1153 H1158 0.984 . S
N1153 H1159 0.985 . S
C1154 C1148 1.379 . S
C1154 C1151 1.363 . S
C1154 N1152 1.356 . S
C1155 C1149 1.363 . S
C1155 C1150 1.379 . S
C1155 N1153 1.356 . S
N1156 C1148 1.356 . S
N1156 H1162 0.984 . S
N1156 H1163 0.984 . S
N1157 C1150 1.356 . S
N1157 H1160 0.984 . S
N1157 H1161 0.985 . S
H1158 N1153 0.984 . S
H1159 N1153 0.985 . S
H1160 N1157 0.984 . S
H1161 N1157 0.985 . S
H1162 N1156 0.984 . S
H1163 N1156 0.984 . S
H1164 N1152 0.984 . S
H1165 N1152 0.985 . S
C1166 C1167 1.363 . S
C1166 C1172 1.379 . S
C1166 N1174 1.356 . S
C1167 C1166 1.363 . S
C1167 C1173 1.363 . S
C1168 C1169 1.363 . S
C1168 C1173 1.379 . S
C1168 N1175 1.356 . S
C1169 C1168 1.363 . S
C1169 C1172 1.363 . S
N1170 C1172 1.356 . S
N1170 H1182 0.984 . S
N1170 H1183 0.985 . S
N1171 C1173 1.356 . S
N1171 H1176 0.984 . S
N1171 H1177 0.985 . S
C1172 C1166 1.379 . S
C1172 C1169 1.363 . S
C1172 N1170 1.356 . S
C1173 C1167 1.363 . S
C1173 C1168 1.379 . S
C1173 N1171 1.356 . S
N1174 C1166 1.356 . S
N1174 H1180 0.984 . S
N1174 H1181 0.984 . S
N1175 C1168 1.356 . S
N1175 H1178 0.984 . S
N1175 H1179 0.985 . S
H1176 N1171 0.984 . S
H1177 N1171 0.985 . S
H1178 N1175 0.984 . S
H1179 N1175 0.985 . S
H1180 N1174 0.984 . S
H1181 N1174 0.984 . S
H1182 N1170 0.984 . S
H1183 N1170 0.985 . S
C321 C17 1.832 1_455 S
C323 C34 1.846 . S
C339 C53 1.749 . S
C341 C25 1.667 . S
C357 C65 1.846 . S
C359 C57 1.832 . S
C375 C13 1.749 . S
C377 C74 1.667 . S
C393 C2 2.161 . S
C395 C188 1.825 . S
C411 C145 1.807 . S
C413 C28 1.681 . S
C429 C42 2.161 . S
C431 C217 1.825 . S
C447 C77 1.681 . S
C449 C265 1.807 . S
C465 C162 2.161 . S
C467 C37 1.825 . S
C483 C257 1.682 . S
C485 C45 1.807 . S
C501 C282 2.161 . S
C503 C68 1.825 . S
C519 C5 1.807 . S
C521 C228 1.681 . S
C537 C14 1.462 . S
C539 C174 1.462 . S
C555 C253 1.978 . S
C557 C82 1.978 . S
C573 C108 1.542 . S
C575 C288 1.542 . S
C591 C222 1.978 . S
C593 C133 1.978 . S
C609 C48 1.542 . S
C611 C148 1.542 . S
C627 C182 2.354 . S
C629 C93 2.354 . S
C645 C122 2.354 . S
C647 C213 2.354 . S
C663 C102 2.161 . S
C665 C237 1.825 . S
C681 C197 1.682 . S
C683 C105 1.807 . S
C699 C234 1.846 . S
C701 C157 1.832 1_455 S
C717 C113 1.749 . S
C719 C85 1.667 . S
C735 C185 1.846 . S
C737 C177 1.832 . S
C753 C273 1.750 . S
C755 C225 1.667 . S
C771 C125 1.846 . S
C773 C117 1.832 . S
C789 C194 1.667 . S
C791 C293 1.749 . S
C807 C268 1.542 . S
C809 C8 1.542 . S
C825 C54 1.462 . S
C827 C294 1.462 . S
C843 C242 2.354 . S
C845 C33 2.354 . S
C861 C154 1.463 . S
C863 C114 1.463 . S
C879 C73 1.978 . S
C881 C202 1.978 . S
C897 C245 1.846 . S
C899 C277 1.832 . S
C915 C153 1.749 . S
C917 C254 1.667 . S
C933 C128 1.825 . S
C935 C142 2.161 . S
C951 C97 1.824 . S
C953 C262 2.161 . S
C969 C248 1.825 . S
C971 C302 2.161 . S
C987 C308 1.542 . S
C989 C168 1.542 . S
C1005 C22 1.978 . S
C1007 C193 1.978 . S
C1023 C165 1.807 . S
C1025 C137 1.681 . S
C1041 C173 1.749 . S
C1043 C205 1.667 . S
C1059 C313 1.749 . S
C1061 C134 1.667 . S
C1077 C274 1.462 . S
C1079 C314 1.462 . S
C1095 C233 2.354 . S
C1097 C62 2.354 . S
C1113 C214 1.846 . S
C1115 C297 1.832 . S
C1131 C208 1.682 . S
C1133 C305 1.807 . S
C1149 C88 1.681 . S
C1151 C285 1.807 . S
C1167 C317 1.832 . S
C1169 C94 1.846 . S
