# Generated by pormake.
# Topology uks, (4)-cn, num edge types: 1
# Building blocks:
#     Node 0, Type 0, BuildingBlock: KOZSID_clean_sbu_0, # of connection points: 4
#     Node 1, Type 0, BuildingBlock: KOZSID_clean_sbu_0, # of connection points: 4
#     Node 2, Type 0, BuildingBlock: KOZSID_clean_sbu_0, # of connection points: 4
#     Node 3, Type 0, BuildingBlock: KOZSID_clean_sbu_0, # of connection points: 4
#     Node 4, Type 0, BuildingBlock: KOZSID_clean_sbu_0, # of connection points: 4
#     Node 5, Type 0, BuildingBlock: KOZSID_clean_sbu_0, # of connection points: 4
#     Node 6, Type 0, BuildingBlock: KOZSID_clean_sbu_0, # of connection points: 4
#     Node 7, Type 0, BuildingBlock: KOZSID_clean_sbu_0, # of connection points: 4
#     Node 8, Type 0, BuildingBlock: KOZSID_clean_sbu_0, # of connection points: 4
#     Node 9, Type 0, BuildingBlock: KOZSID_clean_sbu_0, # of connection points: 4
#     Node 10, Type 0, BuildingBlock: KOZSID_clean_sbu_0, # of connection points: 4
#     Node 11, Type 0, BuildingBlock: KOZSID_clean_sbu_0, # of connection points: 4
#     Node 12, Type 0, BuildingBlock: KOZSID_clean_sbu_0, # of connection points: 4
#     Node 13, Type 0, BuildingBlock: KOZSID_clean_sbu_0, # of connection points: 4
#     Node 14, Type 0, BuildingBlock: KOZSID_clean_sbu_0, # of connection points: 4
#     Node 15, Type 0, BuildingBlock: KOZSID_clean_sbu_0, # of connection points: 4
#     Node 16, Type 0, BuildingBlock: KOZSID_clean_sbu_0, # of connection points: 4
#     Node 17, Type 0, BuildingBlock: KOZSID_clean_sbu_0, # of connection points: 4
#     Node 18, Type 0, BuildingBlock: KOZSID_clean_sbu_0, # of connection points: 4
#     Node 19, Type 0, BuildingBlock: KOZSID_clean_sbu_0, # of connection points: 4
#     Node 20, Type 0, BuildingBlock: KOZSID_clean_sbu_0, # of connection points: 4
#     Node 21, Type 0, BuildingBlock: KOZSID_clean_sbu_0, # of connection points: 4
#     Node 22, Type 0, BuildingBlock: KOZSID_clean_sbu_0, # of connection points: 4
#     Node 23, Type 0, BuildingBlock: KOZSID_clean_sbu_0, # of connection points: 4
#     Edge 24, Type (0, 0), BuildingBlock: CIFDUS_clean_linker_0, # of connection points: 2
#     Edge 25, Type (0, 0), BuildingBlock: CIFDUS_clean_linker_0, # of connection points: 2
#     Edge 26, Type (0, 0), BuildingBlock: CIFDUS_clean_linker_0, # of connection points: 2
#     Edge 27, Type (0, 0), BuildingBlock: CIFDUS_clean_linker_0, # of connection points: 2
#     Edge 28, Type (0, 0), BuildingBlock: CIFDUS_clean_linker_0, # of connection points: 2
#     Edge 29, Type (0, 0), BuildingBlock: CIFDUS_clean_linker_0, # of connection points: 2
#     Edge 30, Type (0, 0), BuildingBlock: CIFDUS_clean_linker_0, # of connection points: 2
#     Edge 31, Type (0, 0), BuildingBlock: CIFDUS_clean_linker_0, # of connection points: 2
#     Edge 32, Type (0, 0), BuildingBlock: CIFDUS_clean_linker_0, # of connection points: 2
#     Edge 33, Type (0, 0), BuildingBlock: CIFDUS_clean_linker_0, # of connection points: 2
#     Edge 34, Type (0, 0), BuildingBlock: CIFDUS_clean_linker_0, # of connection points: 2
#     Edge 35, Type (0, 0), BuildingBlock: CIFDUS_clean_linker_0, # of connection points: 2
#     Edge 36, Type (0, 0), BuildingBlock: CIFDUS_clean_linker_0, # of connection points: 2
#     Edge 37, Type (0, 0), BuildingBlock: CIFDUS_clean_linker_0, # of connection points: 2
#     Edge 38, Type (0, 0), BuildingBlock: CIFDUS_clean_linker_0, # of connection points: 2
#     Edge 39, Type (0, 0), BuildingBlock: CIFDUS_clean_linker_0, # of connection points: 2
#     Edge 40, Type (0, 0), BuildingBlock: CIFDUS_clean_linker_0, # of connection points: 2
#     Edge 41, Type (0, 0), BuildingBlock: CIFDUS_clean_linker_0, # of connection points: 2
#     Edge 42, Type (0, 0), BuildingBlock: CIFDUS_clean_linker_0, # of connection points: 2
#     Edge 43, Type (0, 0), BuildingBlock: CIFDUS_clean_linker_0, # of connection points: 2
#     Edge 44, Type (0, 0), BuildingBlock: CIFDUS_clean_linker_0, # of connection points: 2
#     Edge 45, Type (0, 0), BuildingBlock: CIFDUS_clean_linker_0, # of connection points: 2
#     Edge 46, Type (0, 0), BuildingBlock: CIFDUS_clean_linker_0, # of connection points: 2
#     Edge 47, Type (0, 0), BuildingBlock: CIFDUS_clean_linker_0, # of connection points: 2
#     Edge 48, Type (0, 0), BuildingBlock: CIFDUS_clean_linker_0, # of connection points: 2
#     Edge 49, Type (0, 0), BuildingBlock: CIFDUS_clean_linker_0, # of connection points: 2
#     Edge 50, Type (0, 0), BuildingBlock: CIFDUS_clean_linker_0, # of connection points: 2
#     Edge 51, Type (0, 0), BuildingBlock: CIFDUS_clean_linker_0, # of connection points: 2
#     Edge 52, Type (0, 0), BuildingBlock: CIFDUS_clean_linker_0, # of connection points: 2
#     Edge 53, Type (0, 0), BuildingBlock: CIFDUS_clean_linker_0, # of connection points: 2
#     Edge 54, Type (0, 0), BuildingBlock: CIFDUS_clean_linker_0, # of connection points: 2
#     Edge 55, Type (0, 0), BuildingBlock: CIFDUS_clean_linker_0, # of connection points: 2
#     Edge 56, Type (0, 0), BuildingBlock: CIFDUS_clean_linker_0, # of connection points: 2
#     Edge 57, Type (0, 0), BuildingBlock: CIFDUS_clean_linker_0, # of connection points: 2
#     Edge 58, Type (0, 0), BuildingBlock: CIFDUS_clean_linker_0, # of connection points: 2
#     Edge 59, Type (0, 0), BuildingBlock: CIFDUS_clean_linker_0, # of connection points: 2
#     Edge 60, Type (0, 0), BuildingBlock: CIFDUS_clean_linker_0, # of connection points: 2
#     Edge 61, Type (0, 0), BuildingBlock: CIFDUS_clean_linker_0, # of connection points: 2
#     Edge 62, Type (0, 0), BuildingBlock: CIFDUS_clean_linker_0, # of connection points: 2
#     Edge 63, Type (0, 0), BuildingBlock: CIFDUS_clean_linker_0, # of connection points: 2
#     Edge 64, Type (0, 0), BuildingBlock: CIFDUS_clean_linker_0, # of connection points: 2
#     Edge 65, Type (0, 0), BuildingBlock: CIFDUS_clean_linker_0, # of connection points: 2
#     Edge 66, Type (0, 0), BuildingBlock: CIFDUS_clean_linker_0, # of connection points: 2
#     Edge 67, Type (0, 0), BuildingBlock: CIFDUS_clean_linker_0, # of connection points: 2
#     Edge 68, Type (0, 0), BuildingBlock: CIFDUS_clean_linker_0, # of connection points: 2
#     Edge 69, Type (0, 0), BuildingBlock: CIFDUS_clean_linker_0, # of connection points: 2
#     Edge 70, Type (0, 0), BuildingBlock: CIFDUS_clean_linker_0, # of connection points: 2
#     Edge 71, Type (0, 0), BuildingBlock: CIFDUS_clean_linker_0, # of connection points: 2
# Relax obj value: 0.065
# Max RMSD: 0.074
# Mean RMSD: 0.059
data_MOF--net-uks--node1-KOZSID_clean_sbu_0--edge1-CIFDUS_clean_linker_0
_symmetry_space_group_name_H-M    P1
_symmetry_Int_Tables_number       1
_symmetry_cell_setting            triclinic
loop_
_symmetry_equiv_pos_as_xyz
'x, y, z'
_cell_length_a     54.851034
_cell_length_b     65.623617
_cell_length_c     57.46091
_cell_angle_alpha  89.224428
_cell_angle_beta   91.074682
_cell_angle_gamma 90.072873
loop_
_atom_site_label
_atom_site_type_symbol
_atom_site_fract_x
_atom_site_fract_y
_atom_site_fract_z
_atom_type_partial_charge
C0 C 0.07419 0.38539 0.69182 0.0
C1 C 0.05511 0.39318 0.70446 0.0
C2 C 0.06534 0.4055 0.72115 0.0
C3 C 0.09006 0.40467 0.71778 0.0
N4 N 0.09598 0.39257 0.70005 0.0
Co5 Co 0.12972 0.38722 0.68964 0.0
N6 N 0.14474 0.39667 0.71947 0.0
C7 C 0.13341 0.40819 0.73517 0.0
C8 C 0.14797 0.41248 0.75418 0.0
C9 C 0.16992 0.40329 0.75007 0.0
C10 C 0.16766 0.39397 0.7286 0.0
N11 N 0.16343 0.38162 0.67921 0.0
C12 C 0.18481 0.38003 0.69156 0.0
C13 C 0.20407 0.37651 0.67681 0.0
C14 C 0.19442 0.37593 0.65462 0.0
C15 C 0.16986 0.37919 0.65694 0.0
N16 N 0.1146 0.37796 0.65979 0.0
C17 C 0.12647 0.37591 0.63968 0.0
C18 C 0.1118 0.36848 0.62211 0.0
C19 C 0.08929 0.36578 0.63173 0.0
C20 C 0.09131 0.37191 0.65471 0.0
N21 N 0.13196 0.4152 0.67701 0.0
C22 C 0.13459 0.45612 0.66237 0.0
C23 C 0.15441 0.44671 0.67369 0.0
C24 C 0.15278 0.42632 0.68078 0.0
C25 C 0.11358 0.44456 0.65793 0.0
C26 C 0.11266 0.42408 0.66531 0.0
N27 N 0.12762 0.35961 0.70235 0.0
C28 C 0.13248 0.32348 0.69803 0.0
C29 C 0.12477 0.32017 0.72084 0.0
C30 C 0.11848 0.33693 0.73422 0.0
C31 C 0.1198 0.3565 0.72457 0.0
C32 C 0.13401 0.34335 0.68919 0.0
H33 H 0.11446 0.36912 0.73512 0.0
H34 H 0.14039 0.34554 0.67172 0.0
H35 H 0.16827 0.41974 0.68985 0.0
H36 H 0.09614 0.41556 0.66202 0.0
C37 C 0.10824 0.41188 0.73309 0.0
C38 C 0.07077 0.37261 0.67101 0.0
C39 C 0.18799 0.38391 0.71671 0.0
C40 C 0.15198 0.37721 0.63934 0.0
H41 H 0.03582 0.39034 0.7018 0.0
H42 H 0.05592 0.41345 0.73468 0.0
H43 H 0.14298 0.42069 0.76959 0.0
H44 H 0.18573 0.40355 0.76159 0.0
H45 H 0.22317 0.37491 0.68155 0.0
H46 H 0.2041 0.37299 0.63877 0.0
H47 H 0.11713 0.36444 0.60473 0.0
H48 H 0.07341 0.35973 0.62279 0.0
H49 H 0.17088 0.45524 0.67756 0.0
H50 H 0.09781 0.45143 0.64935 0.0
H51 H 0.13763 0.31084 0.68724 0.0
H52 H 0.11224 0.33489 0.75188 0.0
C53 C 0.59313 0.62148 0.15738 0.0
C54 C 0.58801 0.62788 0.13463 0.0
C55 C 0.60914 0.63555 0.12593 0.0
C56 C 0.62597 0.63339 0.14366 0.0
N57 N 0.61702 0.62442 0.16296 0.0
Co58 Co 0.63555 0.61867 0.19256 0.0
N59 N 0.66721 0.62449 0.17751 0.0
C60 C 0.67045 0.63381 0.15677 0.0
C61 C 0.69443 0.63523 0.15063 0.0
C62 C 0.7072 0.62633 0.16869 0.0
C63 C 0.69017 0.62011 0.18492 0.0
N64 N 0.65397 0.61301 0.22207 0.0
C65 C 0.6781 0.60985 0.22573 0.0
C66 C 0.68342 0.60665 0.24926 0.0
C67 C 0.66183 0.60787 0.26064 0.0
C68 C 0.64463 0.61177 0.24356 0.0
N69 N 0.60377 0.61278 0.20759 0.0
C70 C 0.60005 0.61056 0.23061 0.0
C71 C 0.57628 0.60641 0.23594 0.0
C72 C 0.56404 0.60642 0.21501 0.0
C73 C 0.5811 0.61075 0.19809 0.0
N74 N 0.63847 0.58954 0.18412 0.0
C75 C 0.64528 0.54795 0.17291 0.0
C76 C 0.63892 0.55378 0.19541 0.0
C77 C 0.63539 0.57446 0.20055 0.0
C78 C 0.64786 0.56353 0.1561 0.0
C79 C 0.64459 0.58407 0.16205 0.0
N80 N 0.63305 0.6478 0.20135 0.0
C81 C 0.60861 0.67815 0.2058 0.0
C82 C 0.62822 0.68888 0.216 0.0
C83 C 0.65052 0.67834 0.21832 0.0
C84 C 0.65252 0.65799 0.21101 0.0
C85 C 0.61153 0.65802 0.19842 0.0
H86 H 0.66991 0.65052 0.21325 0.0
H87 H 0.59624 0.65067 0.1904 0.0
H88 H 0.63038 0.57818 0.218 0.0
H89 H 0.64733 0.59552 0.14877 0.0
C90 C 0.65065 0.63798 0.14203 0.0
C91 C 0.57409 0.61651 0.17417 0.0
C92 C 0.69668 0.61167 0.20786 0.0
C93 C 0.6195 0.61101 0.24654 0.0
H94 H 0.57067 0.62785 0.12542 0.0
H95 H 0.61189 0.64193 0.1087 0.0
H96 H 0.7017 0.64128 0.13457 0.0
H97 H 0.72682 0.62471 0.16985 0.0
H98 H 0.70107 0.6039 0.25741 0.0
H99 H 0.65893 0.60549 0.27906 0.0
H100 H 0.56873 0.60378 0.25299 0.0
H101 H 0.54456 0.60451 0.2125 0.0
H102 H 0.63638 0.5424 0.20898 0.0
H103 H 0.65293 0.55993 0.1385 0.0
H104 H 0.59078 0.68503 0.20372 0.0
H105 H 0.66655 0.68574 0.22553 0.0
C106 C 0.44223 0.13893 0.71708 0.0
C107 C 0.46196 0.13306 0.73106 0.0
C108 C 0.45262 0.12322 0.75015 0.0
C109 C 0.42776 0.12356 0.74682 0.0
N110 N 0.42085 0.13307 0.72688 0.0
Co111 Co 0.38648 0.13658 0.71569 0.0
N112 N 0.37298 0.13085 0.74712 0.0
C113 C 0.38535 0.12202 0.76501 0.0
C114 C 0.37169 0.12001 0.78468 0.0
C115 C 0.34921 0.12785 0.77875 0.0
C116 C 0.35029 0.1341 0.75562 0.0
N117 N 0.35216 0.13988 0.70434 0.0
C118 C 0.33111 0.14217 0.71623 0.0
C119 C 0.31117 0.1431 0.70101 0.0
C120 C 0.32004 0.1413 0.67897 0.0
C121 C 0.34482 0.13928 0.68187 0.0
N122 N 0.40008 0.14254 0.68441 0.0
C123 C 0.38738 0.14195 0.66417 0.0
C124 C 0.40129 0.14684 0.64526 0.0
C125 C 0.42423 0.15062 0.65413 0.0
C126 C 0.42313 0.14773 0.67807 0.0
N127 N 0.38458 0.10735 0.70847 0.0
C128 C 0.38047 0.06572 0.69816 0.0
C129 C 0.40067 0.07707 0.69084 0.0
C130 C 0.40253 0.09782 0.69643 0.0
C131 C 0.36244 0.07561 0.7106 0.0
C132 C 0.36467 0.09634 0.71531 0.0
N133 N 0.38798 0.16555 0.72292 0.0
C134 C 0.37625 0.20008 0.71377 0.0
C135 C 0.38613 0.20657 0.73502 0.0
C136 C 0.39765 0.19232 0.74978 0.0
C137 C 0.39817 0.17183 0.74351 0.0
C138 C 0.37769 0.17956 0.7079 0.0
H139 H 0.40632 0.16102 0.75558 0.0
H140 H 0.36996 0.17496 0.69142 0.0
H141 H 0.41847 0.10614 0.691 0.0
H142 H 0.35009 0.10341 0.72449 0.0
C143 C 0.41046 0.11843 0.76356 0.0
C144 C 0.44466 0.14861 0.69391 0.0
C145 C 0.32901 0.1415 0.7418 0.0
C146 C 0.36196 0.13978 0.66407 0.0
H147 H 0.4811 0.13554 0.72776 0.0
H148 H 0.46274 0.11725 0.76508 0.0
H149 H 0.37755 0.11409 0.80154 0.0
H150 H 0.33377 0.12865 0.79014 0.0
H151 H 0.29216 0.14458 0.70538 0.0
H152 H 0.30968 0.1419 0.66276 0.0
H153 H 0.3953 0.14819 0.62725 0.0
H154 H 0.43997 0.1549 0.6441 0.0
H155 H 0.41506 0.06989 0.68125 0.0
H156 H 0.34647 0.06741 0.71641 0.0
H157 H 0.36736 0.21079 0.70188 0.0
H158 H 0.4054 0.19685 0.7664 0.0
C159 C 0.91324 0.88689 0.18129 0.0
C160 C 0.91906 0.87976 0.15942 0.0
C161 C 0.89865 0.87037 0.15072 0.0
C162 C 0.88155 0.8723 0.16764 0.0
N163 N 0.88973 0.88259 0.18638 0.0
Co164 Co 0.87086 0.88852 0.21479 0.0
N165 N 0.83955 0.88144 0.1989 0.0
C166 C 0.83691 0.87112 0.1789 0.0
C167 C 0.81304 0.8687 0.17197 0.0
C168 C 0.79975 0.87791 0.18876 0.0
C169 C 0.81637 0.8853 0.20513 0.0
N170 N 0.85207 0.89455 0.24313 0.0
C171 C 0.82782 0.89732 0.24561 0.0
C172 C 0.82228 0.90095 0.2687 0.0
C173 C 0.84382 0.90031 0.28105 0.0
C174 C 0.86122 0.89631 0.26492 0.0
N175 N 0.90225 0.89542 0.23073 0.0
C176 C 0.90588 0.89744 0.25385 0.0
C177 C 0.92945 0.9023 0.2599 0.0
C178 C 0.94159 0.90313 0.23936 0.0
C179 C 0.92467 0.89859 0.22188 0.0
N180 N 0.86701 0.91719 0.20432 0.0
C181 C 0.85935 0.95806 0.18946 0.0
C182 C 0.86661 0.95331 0.21248 0.0
C183 C 0.87041 0.93291 0.21949 0.0
C184 C 0.85611 0.94173 0.17413 0.0
C185 C 0.86 0.9216 0.18183 0.0
N186 N 0.87433 0.85975 0.22528 0.0
C187 C 0.8979 0.82864 0.22874 0.0
C188 C 0.87834 0.81832 0.23899 0.0
C189 C 0.85682 0.82927 0.2424 0.0
C190 C 0.85508 0.84975 0.23519 0.0
C191 C 0.89565 0.84932 0.22235 0.0
H192 H 0.83794 0.85737 0.23748 0.0
H193 H 0.91114 0.85679 0.21483 0.0
H194 H 0.87599 0.9299 0.23728 0.0
H195 H 0.85708 0.90957 0.16953 0.0
C196 C 0.85707 0.8668 0.16541 0.0
C197 C 0.9315 0.89477 0.1978 0.0
C198 C 0.80936 0.89428 0.22722 0.0
C199 C 0.88632 0.89707 0.26898 0.0
H200 H 0.93649 0.88071 0.15094 0.0
H201 H 0.89646 0.86323 0.13394 0.0
H202 H 0.80613 0.86172 0.15621 0.0
H203 H 0.78006 0.87888 0.18903 0.0
H204 H 0.80449 0.90343 0.27598 0.0
H205 H 0.84652 0.90296 0.29947 0.0
H206 H 0.93685 0.90522 0.27713 0.0
H207 H 0.96087 0.90615 0.23747 0.0
H208 H 0.86969 0.96528 0.22499 0.0
H209 H 0.85019 0.94438 0.15627 0.0
H210 H 0.91494 0.82082 0.22585 0.0
H211 H 0.84115 0.82189 0.25004 0.0
C212 C 0.07666 0.14864 0.80318 0.0
C213 C 0.06101 0.14999 0.78388 0.0
C214 C 0.07234 0.14091 0.76586 0.0
C215 C 0.09478 0.1354 0.77449 0.0
N216 N 0.09853 0.14034 0.79707 0.0
Co217 Co 0.13149 0.14266 0.8128 0.0
N218 N 0.14935 0.13383 0.78437 0.0
C219 C 0.1389 0.1268 0.76458 0.0
C220 C 0.15534 0.12137 0.7481 0.0
C221 C 0.17771 0.12511 0.75796 0.0
C222 C 0.17363 0.13272 0.77997 0.0
N223 N 0.16442 0.14654 0.82811 0.0
C224 C 0.18734 0.14547 0.81931 0.0
C225 C 0.2049 0.1507 0.83585 0.0
C226 C 0.19276 0.15534 0.85566 0.0
C227 C 0.16852 0.15277 0.85015 0.0
N228 N 0.11356 0.15047 0.8415 0.0
C229 C 0.12388 0.15309 0.86277 0.0
C230 C 0.10727 0.15495 0.88009 0.0
C231 C 0.085 0.15399 0.86912 0.0
C232 C 0.08919 0.15249 0.84541 0.0
N233 N 0.13074 0.11344 0.82334 0.0
C234 C 0.13551 0.07155 0.83619 0.0
C235 C 0.14287 0.08709 0.85124 0.0
C236 C 0.14063 0.10756 0.84447 0.0
C237 C 0.1244 0.0776 0.81499 0.0
C238 C 0.12184 0.09838 0.80919 0.0
N239 N 0.13254 0.17147 0.80227 0.0
C240 C 0.13391 0.20746 0.81063 0.0
C241 C 0.13287 0.21242 0.78685 0.0
C242 C 0.13209 0.19642 0.77104 0.0
C243 C 0.13168 0.17631 0.77902 0.0
C244 C 0.13396 0.18703 0.81791 0.0
H245 H 0.13065 0.16495 0.76598 0.0
H246 H 0.13503 0.18413 0.83627 0.0
H247 H 0.14748 0.11825 0.85662 0.0
H248 H 0.11301 0.10186 0.79293 0.0
C249 C 0.1138 0.12852 0.76081 0.0
C250 C 0.06987 0.15481 0.82711 0.0
C251 C 0.19345 0.13922 0.79567 0.0
C252 C 0.14921 0.15504 0.86552 0.0
H253 H 0.0436 0.15754 0.78224 0.0
H254 H 0.06567 0.13987 0.74806 0.0
H255 H 0.15151 0.11614 0.73062 0.0
H256 H 0.19505 0.12296 0.74966 0.0
H257 H 0.22448 0.15103 0.8338 0.0
H258 H 0.20069 0.15991 0.87218 0.0
H259 H 0.1109 0.15706 0.89848 0.0
H260 H 0.06769 0.15474 0.87775 0.0
H261 H 0.15059 0.08365 0.8683 0.0
H262 H 0.11817 0.06646 0.80251 0.0
H263 H 0.13438 0.21923 0.82366 0.0
H264 H 0.13198 0.19928 0.75243 0.0
C265 C 0.89071 0.64803 0.35679 0.0
C266 C 0.88567 0.6529 0.37962 0.0
C267 C 0.86188 0.64715 0.38325 0.0
C268 C 0.85367 0.63929 0.36247 0.0
N269 N 0.87093 0.63974 0.34619 0.0
Co270 Co 0.8668 0.63255 0.31308 0.0
N271 N 0.83119 0.63611 0.31436 0.0
C272 C 0.8178 0.63564 0.33378 0.0
C273 C 0.79333 0.63797 0.32911 0.0
C274 C 0.79131 0.63977 0.30533 0.0
C275 C 0.8148 0.6385 0.29674 0.0
N276 N 0.86315 0.62546 0.27994 0.0
C277 C 0.84426 0.62904 0.26508 0.0
C278 C 0.84923 0.62169 0.2431 0.0
C279 C 0.87185 0.61281 0.2446 0.0
C280 C 0.8795 0.61533 0.26726 0.0
N281 N 0.90228 0.62863 0.31214 0.0
C282 C 0.91459 0.61745 0.29688 0.0
C283 C 0.93934 0.61776 0.30121 0.0
C284 C 0.94254 0.62998 0.3203 0.0
C285 C 0.91949 0.63641 0.32641 0.0
N286 N 0.86262 0.60355 0.32179 0.0
C287 C 0.85517 0.56227 0.33443 0.0
C288 C 0.84049 0.57192 0.31737 0.0
C289 C 0.84454 0.59235 0.31128 0.0
C290 C 0.8739 0.57383 0.34489 0.0
C291 C 0.87723 0.5944 0.33843 0.0
N292 N 0.87047 0.66159 0.3043 0.0
C293 C 0.88804 0.68853 0.28073 0.0
C294 C 0.87401 0.70343 0.29177 0.0
C295 C 0.85816 0.69657 0.30917 0.0
C296 C 0.85691 0.67589 0.3153 0.0
C297 C 0.88589 0.66779 0.28712 0.0
H298 H 0.84469 0.67148 0.32894 0.0
H299 H 0.89677 0.65675 0.27821 0.0
H300 H 0.83284 0.59907 0.29803 0.0
H301 H 0.89156 0.60295 0.34699 0.0
C302 C 0.82914 0.63651 0.35588 0.0
C303 C 0.91423 0.65038 0.34526 0.0
C304 C 0.82062 0.6373 0.27192 0.0
C305 C 0.90299 0.61115 0.27625 0.0
H306 H 0.89744 0.66015 0.39229 0.0
H307 H 0.85136 0.64981 0.39866 0.0
H308 H 0.77876 0.63888 0.3415 0.0
H309 H 0.77442 0.64149 0.29546 0.0
H310 H 0.83757 0.62235 0.22771 0.0
H311 H 0.88176 0.60587 0.23066 0.0
H312 H 0.95347 0.61108 0.29087 0.0
H313 H 0.95977 0.63416 0.32841 0.0
H314 H 0.82607 0.56366 0.30846 0.0
H315 H 0.88567 0.56715 0.35827 0.0
H316 H 0.90083 0.69278 0.2674 0.0
H317 H 0.84632 0.70701 0.31798 0.0
C318 C 0.4383 0.39023 0.80247 0.0
C319 C 0.45725 0.39839 0.78969 0.0
C320 C 0.44675 0.40958 0.77183 0.0
C321 C 0.42204 0.40771 0.7747 0.0
N322 N 0.41628 0.396 0.79319 0.0
Co323 Co 0.38248 0.3895 0.80323 0.0
N324 N 0.36772 0.39784 0.77256 0.0
C325 C 0.37912 0.40894 0.75613 0.0
C326 C 0.36475 0.41279 0.73678 0.0
C327 C 0.34276 0.40384 0.74138 0.0
C328 C 0.34481 0.3951 0.76348 0.0
N329 N 0.34866 0.38293 0.81337 0.0
C330 C 0.32728 0.38135 0.80096 0.0
C331 C 0.30802 0.37723 0.81565 0.0
C332 C 0.31755 0.37647 0.83787 0.0
C333 C 0.34203 0.38016 0.83564 0.0
N334 N 0.39741 0.38126 0.83387 0.0
C335 C 0.38522 0.37879 0.8538 0.0
C336 C 0.40001 0.37282 0.8722 0.0
C337 C 0.423 0.37151 0.86334 0.0
C338 C 0.42102 0.37686 0.83995 0.0
N339 N 0.37859 0.41754 0.81435 0.0
C340 C 0.3727 0.45773 0.82943 0.0
C341 C 0.35356 0.44746 0.81828 0.0
C342 C 0.35695 0.42757 0.81065 0.0
C343 C 0.39488 0.44751 0.83302 0.0
C344 C 0.39734 0.42732 0.82565 0.0
N345 N 0.38624 0.36169 0.79218 0.0
C346 C 0.38093 0.32558 0.79788 0.0
C347 C 0.39214 0.32185 0.77672 0.0
C348 C 0.40032 0.33838 0.76339 0.0
C349 C 0.39692 0.35819 0.77129 0.0
C350 C 0.37842 0.34558 0.80543 0.0
H351 H 0.40299 0.37066 0.7605 0.0
H352 H 0.37022 0.34798 0.82204 0.0
H353 H 0.34198 0.42045 0.80156 0.0
H354 H 0.41448 0.4197 0.82897 0.0
C355 C 0.40398 0.41356 0.75844 0.0
C356 C 0.44198 0.37846 0.82428 0.0
C357 C 0.32387 0.38621 0.77593 0.0
C358 C 0.35967 0.37894 0.85357 0.0
H359 H 0.47661 0.39653 0.79302 0.0
H360 H 0.45606 0.41747 0.75791 0.0
H361 H 0.36976 0.42085 0.72102 0.0
H362 H 0.32686 0.40409 0.72995 0.0
H363 H 0.28896 0.37551 0.81087 0.0
H364 H 0.3078 0.37335 0.85373 0.0
H365 H 0.39459 0.36903 0.88975 0.0
H366 H 0.4393 0.36707 0.87299 0.0
H367 H 0.33623 0.45496 0.81494 0.0
H368 H 0.41012 0.45501 0.84158 0.0
H369 H 0.37451 0.31309 0.80868 0.0
H370 H 0.40895 0.336 0.74684 0.0
C371 C 0.58587 0.85641 0.33723 0.0
C372 C 0.58457 0.85172 0.36082 0.0
C373 C 0.60732 0.85523 0.37023 0.0
C374 C 0.62122 0.8617 0.35193 0.0
N375 N 0.60867 0.86231 0.33158 0.0
Co376 Co 0.6217 0.87062 0.30088 0.0
N377 N 0.65574 0.86653 0.31201 0.0
C378 C 0.66339 0.86548 0.3344 0.0
C379 C 0.68816 0.86308 0.33677 0.0
C380 C 0.69661 0.86279 0.31449 0.0
C381 C 0.6764 0.865 0.2997 0.0
N382 N 0.63454 0.87917 0.27026 0.0
C383 C 0.65687 0.87626 0.26133 0.0
C384 C 0.65804 0.8843 0.23887 0.0
C385 C 0.63582 0.89299 0.23392 0.0
C386 C 0.62229 0.88963 0.25344 0.0
N387 N 0.58761 0.87479 0.28986 0.0
C388 C 0.5803 0.88601 0.27123 0.0
C389 C 0.55542 0.88642 0.26823 0.0
C390 C 0.54652 0.87481 0.28618 0.0
C391 C 0.5666 0.86793 0.29909 0.0
N392 N 0.62334 0.89924 0.31129 0.0
C393 C 0.62745 0.93962 0.32795 0.0
C394 C 0.64576 0.93091 0.31451 0.0
C395 C 0.64343 0.91088 0.30652 0.0
C396 C 0.60678 0.92753 0.33246 0.0
C397 C 0.60503 0.90758 0.32393 0.0
N398 N 0.62064 0.84196 0.2905 0.0
C399 C 0.61551 0.81712 0.25993 0.0
C400 C 0.62453 0.80128 0.27449 0.0
C401 C 0.63052 0.80646 0.29762 0.0
C402 C 0.62873 0.82668 0.3051 0.0
C403 C 0.61348 0.83714 0.26828 0.0
H404 H 0.6344 0.82997 0.32271 0.0
H405 H 0.60671 0.84884 0.2565 0.0
H406 H 0.65812 0.90481 0.29656 0.0
H407 H 0.58895 0.8988 0.32784 0.0
C408 C 0.6466 0.86388 0.35237 0.0
C409 C 0.56499 0.85631 0.32092 0.0
C410 C 0.67781 0.86775 0.27438 0.0
C411 C 0.59723 0.89302 0.25511 0.0
H412 H 0.5689 0.84635 0.37028 0.0
H413 H 0.61323 0.85256 0.38809 0.0
H414 H 0.69876 0.86125 0.35274 0.0
H415 H 0.71553 0.86146 0.30971 0.0
H416 H 0.67341 0.88412 0.22734 0.0
H417 H 0.62999 0.90022 0.21772 0.0
H418 H 0.54501 0.89369 0.25426 0.0
H419 H 0.52747 0.87189 0.2895 0.0
H420 H 0.66186 0.9395 0.30991 0.0
H421 H 0.59213 0.93323 0.34291 0.0
H422 H 0.61065 0.81435 0.24192 0.0
H423 H 0.63677 0.79505 0.31009 0.0
C424 C 0.63878 0.12683 0.41859 0.0
C425 C 0.61532 0.13479 0.41776 0.0
C426 C 0.612 0.14335 0.39606 0.0
C427 C 0.63348 0.14006 0.38485 0.0
N428 N 0.65 0.12975 0.39804 0.0
Co429 Co 0.68327 0.12199 0.38862 0.0
N430 N 0.67484 0.12641 0.35534 0.0
C431 C 0.65599 0.13742 0.34665 0.0
C432 C 0.6548 0.13754 0.32278 0.0
C433 C 0.67416 0.12596 0.3161 0.0
C434 C 0.68611 0.1194 0.33639 0.0
N435 N 0.71644 0.11416 0.37929 0.0
C436 C 0.72414 0.10787 0.35843 0.0
C437 C 0.74886 0.10316 0.35941 0.0
C438 C 0.75682 0.10699 0.38166 0.0
C439 C 0.73661 0.11366 0.393 0.0
N440 N 0.69179 0.11769 0.42196 0.0
C441 C 0.71453 0.11686 0.43126 0.0
C442 C 0.71488 0.11389 0.45491 0.0
C443 C 0.6909 0.11303 0.46093 0.0
C444 C 0.67713 0.1156 0.4405 0.0
N445 N 0.67297 0.09323 0.38599 0.0
C446 C 0.66342 0.05197 0.3751 0.0
C447 C 0.6829 0.05748 0.39005 0.0
C448 C 0.6874 0.07802 0.39512 0.0
C449 C 0.64793 0.06772 0.36704 0.0
C450 C 0.65287 0.08809 0.37284 0.0
N451 N 0.69396 0.15079 0.39061 0.0
C452 C 0.69514 0.1833 0.41006 0.0
C453 C 0.70973 0.19196 0.39257 0.0
C454 C 0.71615 0.17931 0.37415 0.0
C455 C 0.70814 0.159 0.37348 0.0
C456 C 0.68752 0.16283 0.40877 0.0
H457 H 0.71359 0.14991 0.35899 0.0
H458 H 0.67636 0.15676 0.42249 0.0
H459 H 0.70317 0.08161 0.40576 0.0
H460 H 0.64095 0.09977 0.36578 0.0
C461 C 0.63752 0.1439 0.36124 0.0
C462 C 0.65063 0.11896 0.43999 0.0
C463 C 0.70926 0.10823 0.33699 0.0
C464 C 0.73483 0.11572 0.41704 0.0
H465 H 0.6022 0.13482 0.4316 0.0
H466 H 0.59569 0.15066 0.38915 0.0
H467 H 0.64095 0.14445 0.31159 0.0
H468 H 0.679 0.12281 0.29833 0.0
H469 H 0.76 0.09772 0.34545 0.0
H470 H 0.77491 0.10434 0.38892 0.0
H471 H 0.73065 0.11203 0.46634 0.0
H472 H 0.68439 0.11127 0.4785 0.0
H473 H 0.69504 0.04607 0.39752 0.0
H474 H 0.63264 0.06456 0.35548 0.0
H475 H 0.68933 0.19231 0.42458 0.0
H476 H 0.7277 0.18488 0.36038 0.0
C477 C 0.93853 0.22441 0.88619 0.0
C478 C 0.95715 0.23716 0.89398 0.0
C479 C 0.94759 0.24943 0.91055 0.0
C480 C 0.92336 0.24449 0.91126 0.0
N481 N 0.91696 0.23013 0.89574 0.0
Co482 Co 0.88271 0.22376 0.8858 0.0
N483 N 0.86875 0.24783 0.90184 0.0
C484 C 0.88062 0.25895 0.91798 0.0
C485 C 0.86711 0.27495 0.92581 0.0
C486 C 0.84519 0.27375 0.91411 0.0
C487 C 0.84637 0.25689 0.89982 0.0
N488 N 0.84849 0.21751 0.87543 0.0
C489 C 0.82773 0.22901 0.8754 0.0
C490 C 0.8079 0.21783 0.86727 0.0
C491 C 0.81639 0.19876 0.86236 0.0
C492 C 0.84086 0.19928 0.86771 0.0
N493 N 0.89648 0.19943 0.87006 0.0
C494 C 0.88313 0.18291 0.86441 0.0
C495 C 0.89696 0.16654 0.85836 0.0
C496 C 0.92059 0.17303 0.86036 0.0
C497 C 0.92006 0.19339 0.86685 0.0
N498 N 0.87829 0.20716 0.91374 0.0
C499 C 0.86881 0.17891 0.94907 0.0
C500 C 0.8916 0.17943 0.93856 0.0
C501 C 0.89605 0.19381 0.92107 0.0
C502 C 0.85142 0.1936 0.94251 0.0
C503 C 0.85654 0.20759 0.9249 0.0
N504 N 0.88706 0.24018 0.85805 0.0
C505 C 0.88184 0.24452 0.81693 0.0
C506 C 0.89201 0.26399 0.81839 0.0
C507 C 0.89998 0.27134 0.8398 0.0
C508 C 0.89709 0.25922 0.85954 0.0
C509 C 0.8797 0.23275 0.83702 0.0
H510 H 0.90283 0.2654 0.87594 0.0
H511 H 0.87193 0.21772 0.83561 0.0
H512 H 0.9136 0.19364 0.91301 0.0
H513 H 0.84258 0.21839 0.91992 0.0
C514 C 0.90566 0.25646 0.92169 0.0
C515 C 0.94229 0.20578 0.87189 0.0
C516 C 0.82534 0.24937 0.88581 0.0
C517 C 0.85764 0.18371 0.8639 0.0
H518 H 0.9757 0.23806 0.88809 0.0
H519 H 0.95685 0.26166 0.91959 0.0
H520 H 0.8729 0.2867 0.93774 0.0
H521 H 0.83014 0.28422 0.91585 0.0
H522 H 0.78909 0.2227 0.86578 0.0
H523 H 0.80596 0.18608 0.85556 0.0
H524 H 0.89064 0.15154 0.85347 0.0
H525 H 0.93626 0.16333 0.85827 0.0
H526 H 0.90569 0.16852 0.94335 0.0
H527 H 0.8339 0.19426 0.95084 0.0
H528 H 0.87572 0.23844 0.80037 0.0
H529 H 0.90791 0.28641 0.84129 0.0
C530 C 0.83492 0.36797 0.39286 0.0
C531 C 0.85669 0.35881 0.38675 0.0
C532 C 0.8539 0.3528 0.36417 0.0
C533 C 0.83072 0.35858 0.35775 0.0
N534 N 0.81878 0.36814 0.37473 0.0
Co535 Co 0.78461 0.37821 0.37271 0.0
N536 N 0.78421 0.37676 0.33829 0.0
C537 C 0.79987 0.36627 0.32524 0.0
C538 C 0.79531 0.36842 0.30181 0.0
C539 C 0.77546 0.38096 0.29998 0.0
C540 C 0.76892 0.38575 0.32256 0.0
N541 N 0.7504 0.38811 0.37064 0.0
C542 C 0.7376 0.39569 0.35214 0.0
C543 C 0.71404 0.40079 0.35826 0.0
C544 C 0.71203 0.39606 0.38143 0.0
C545 C 0.73439 0.38839 0.38811 0.0
N546 N 0.78508 0.37987 0.40714 0.0
C547 C 0.76553 0.38193 0.42078 0.0
C548 C 0.7716 0.38382 0.44391 0.0
C549 C 0.79649 0.38258 0.44495 0.0
C550 C 0.80424 0.37972 0.42233 0.0
N551 N 0.7964 0.40659 0.37052 0.0
C552 C 0.80946 0.44788 0.36383 0.0
C553 C 0.79129 0.44216 0.37951 0.0
C554 C 0.78517 0.42158 0.38268 0.0
C555 C 0.82167 0.43228 0.3523 0.0
C556 C 0.81483 0.41182 0.35582 0.0
N557 N 0.7725 0.34976 0.37462 0.0
C558 C 0.77384 0.31565 0.39141 0.0
C559 C 0.75536 0.30895 0.37602 0.0
C560 C 0.74545 0.32342 0.36027 0.0
C561 C 0.75419 0.34351 0.35985 0.0
C562 C 0.78213 0.33598 0.39039 0.0
H563 H 0.74609 0.35399 0.34735 0.0
H564 H 0.79654 0.34047 0.40225 0.0
H565 H 0.77085 0.4179 0.39459 0.0
H566 H 0.82403 0.40029 0.34611 0.0
C567 C 0.82079 0.35758 0.33527 0.0
C568 C 0.8292 0.3735 0.41677 0.0
C569 C 0.74643 0.39666 0.32827 0.0
C570 C 0.74228 0.38498 0.41105 0.0
H571 H 0.87272 0.35619 0.39762 0.0
H572 H 0.86731 0.34539 0.35361 0.0
H573 H 0.80567 0.36222 0.28771 0.0
H574 H 0.76659 0.38571 0.28383 0.0
H575 H 0.69979 0.40717 0.34711 0.0
H576 H 0.69647 0.3987 0.39228 0.0
H577 H 0.75946 0.38629 0.45823 0.0
H578 H 0.80765 0.38297 0.46068 0.0
H579 H 0.78159 0.45355 0.38916 0.0
H580 H 0.83576 0.43587 0.33995 0.0
H581 H 0.78231 0.30517 0.40381 0.0
H582 H 0.73085 0.31933 0.34828 0.0
C583 C 0.58174 0.33449 0.88882 0.0
C584 C 0.56252 0.32463 0.89958 0.0
C585 C 0.57257 0.30949 0.91341 0.0
C586 C 0.59732 0.31094 0.91045 0.0
N587 N 0.60344 0.32608 0.89567 0.0
Co588 Co 0.63724 0.33294 0.88631 0.0
N589 N 0.65026 0.3057 0.89632 0.0
C590 C 0.63858 0.29237 0.91023 0.0
C591 C 0.65146 0.2747 0.91416 0.0
C592 C 0.67277 0.27716 0.90232 0.0
C593 C 0.67194 0.29638 0.89195 0.0
N594 N 0.67114 0.34003 0.87724 0.0
C595 C 0.69141 0.32821 0.87515 0.0
C596 C 0.71155 0.34019 0.87002 0.0
C597 C 0.70368 0.36001 0.86898 0.0
C598 C 0.67925 0.35918 0.87362 0.0
N599 N 0.62397 0.35984 0.87585 0.0
C600 C 0.63729 0.37671 0.872 0.0
C601 C 0.6234 0.39287 0.86409 0.0
C602 C 0.59986 0.38569 0.86295 0.0
C603 C 0.60061 0.36548 0.87036 0.0
N604 N 0.64428 0.34371 0.91733 0.0
C605 C 0.65708 0.36064 0.9607 0.0
C606 C 0.63598 0.36701 0.94827 0.0
C607 C 0.62962 0.35801 0.92701 0.0
C608 C 0.67101 0.34512 0.95083 0.0
C609 C 0.66481 0.33746 0.92912 0.0
N610 N 0.6304 0.32251 0.85558 0.0
C611 C 0.63317 0.32618 0.81421 0.0
C612 C 0.62056 0.30788 0.81142 0.0
C613 C 0.61248 0.29719 0.83097 0.0
C614 C 0.61778 0.30471 0.85299 0.0
C615 C 0.63778 0.33332 0.83649 0.0
H616 H 0.61196 0.296 0.8679 0.0
H617 H 0.64753 0.34747 0.83827 0.0
H618 H 0.61303 0.3629 0.91823 0.0
H619 H 0.67695 0.32647 0.92193 0.0
C620 C 0.61451 0.296 0.91689 0.0
C621 C 0.57881 0.35241 0.87324 0.0
C622 C 0.69295 0.30606 0.88025 0.0
C623 C 0.66283 0.37557 0.87193 0.0
H624 H 0.54327 0.32792 0.89749 0.0
H625 H 0.56286 0.29808 0.92339 0.0
H626 H 0.64582 0.26141 0.92404 0.0
H627 H 0.68736 0.26612 0.90177 0.0
H628 H 0.73015 0.33522 0.86781 0.0
H629 H 0.71445 0.3734 0.86496 0.0
H630 H 0.62972 0.4078 0.85871 0.0
H631 H 0.58403 0.39434 0.85721 0.0
H632 H 0.62434 0.37892 0.95457 0.0
H633 H 0.68673 0.33846 0.95958 0.0
H634 H 0.6398 0.33467 0.7993 0.0
H635 H 0.60307 0.28274 0.82928 0.0
C636 C 0.68224 0.35755 0.10135 0.0
C637 C 0.66354 0.3481 0.08875 0.0
C638 C 0.64914 0.33826 0.10451 0.0
C639 C 0.65992 0.34185 0.12574 0.0
N640 N 0.68014 0.35346 0.12434 0.0
Co641 Co 0.70316 0.35883 0.15039 0.0
N642 N 0.67782 0.35283 0.17358 0.0
C643 C 0.657 0.34244 0.16986 0.0
C644 C 0.64228 0.34206 0.18892 0.0
C645 C 0.65476 0.35278 0.20567 0.0
C646 C 0.67664 0.35883 0.19593 0.0
N647 N 0.72616 0.36364 0.17652 0.0
C648 C 0.72138 0.36761 0.19895 0.0
C649 C 0.74294 0.36917 0.21195 0.0
C650 C 0.76169 0.36635 0.19684 0.0
C651 C 0.75063 0.36304 0.1756 0.0
N652 N 0.72839 0.36508 0.12713 0.0
C653 C 0.75261 0.36595 0.13132 0.0
C654 C 0.76525 0.37299 0.11247 0.0
C655 C 0.74796 0.37644 0.09533 0.0
C656 C 0.72562 0.37074 0.10446 0.0
N657 N 0.69381 0.38799 0.15056 0.0
C658 C 0.68134 0.42929 0.15746 0.0
C659 C 0.70571 0.42291 0.15758 0.0
C660 C 0.71153 0.40244 0.15383 0.0
C661 C 0.66331 0.4146 0.15267 0.0
C662 C 0.6699 0.39403 0.14944 0.0
N663 N 0.71296 0.32973 0.1507 0.0
C664 C 0.72676 0.29955 0.13094 0.0
C665 C 0.72891 0.28857 0.15209 0.0
C666 C 0.72276 0.29887 0.17245 0.0
C667 C 0.71488 0.31922 0.1714 0.0
C668 C 0.71875 0.31995 0.13062 0.0
H669 H 0.71063 0.32653 0.18752 0.0
H670 H 0.71738 0.32784 0.11405 0.0
H671 H 0.7305 0.39824 0.15443 0.0
H672 H 0.65563 0.38291 0.14678 0.0
C673 C 0.65005 0.33681 0.14734 0.0
C674 C 0.70264 0.36885 0.09083 0.0
C675 C 0.69674 0.36889 0.20849 0.0
C676 C 0.76211 0.36384 0.15405 0.0
H677 H 0.66072 0.34779 0.0701 0.0
H678 H 0.63262 0.32973 0.10091 0.0
H679 H 0.62413 0.33569 0.19014 0.0
H680 H 0.64836 0.35577 0.22298 0.0
H681 H 0.74499 0.37211 0.23037 0.0
H682 H 0.78102 0.3676 0.2007 0.0
H683 H 0.78457 0.37624 0.11162 0.0
H684 H 0.75156 0.38243 0.07812 0.0
H685 H 0.7203 0.43368 0.16093 0.0
H686 H 0.64421 0.41879 0.15242 0.0
H687 H 0.73094 0.29239 0.11463 0.0
H688 H 0.7244 0.29141 0.18933 0.0
C689 C 0.58264 0.20085 0.63519 0.0
C690 C 0.56344 0.2093 0.62232 0.0
C691 C 0.57355 0.22031 0.60445 0.0
C692 C 0.59831 0.218 0.60732 0.0
N693 N 0.60444 0.20639 0.62599 0.0
Co694 Co 0.63847 0.19895 0.63551 0.0
N695 N 0.65294 0.22149 0.61669 0.0
C696 C 0.64145 0.23108 0.59876 0.0
C697 C 0.65606 0.24487 0.58751 0.0
C698 C 0.67818 0.24385 0.59898 0.0
C699 C 0.67588 0.22958 0.61691 0.0
N700 N 0.67261 0.19164 0.64506 0.0
C701 C 0.6936 0.2029 0.64454 0.0
C702 C 0.71243 0.19241 0.65591 0.0
C703 C 0.70333 0.17378 0.66248 0.0
C704 C 0.67932 0.17394 0.65543 0.0
N705 N 0.62391 0.17635 0.65424 0.0
C706 C 0.63622 0.16014 0.66288 0.0
C707 C 0.62175 0.1469 0.67515 0.0
C708 C 0.59881 0.15519 0.67402 0.0
C709 C 0.60049 0.17307 0.66098 0.0
N710 N 0.64036 0.18109 0.60878 0.0
C711 C 0.6389 0.16394 0.56483 0.0
C712 C 0.61946 0.16106 0.57989 0.0
C713 C 0.62059 0.16976 0.60193 0.0
C714 C 0.66001 0.17366 0.573 0.0
C715 C 0.66047 0.18193 0.59513 0.0
N716 N 0.63653 0.21692 0.66175 0.0
C717 C 0.64602 0.22419 0.70159 0.0
C718 C 0.63706 0.24392 0.69826 0.0
C719 C 0.62725 0.24985 0.67669 0.0
C720 C 0.62735 0.23612 0.65852 0.0
C721 C 0.64531 0.21078 0.6831 0.0
H722 H 0.62037 0.24113 0.64178 0.0
H723 H 0.65221 0.1956 0.68597 0.0
H724 H 0.60484 0.16841 0.61278 0.0
H725 H 0.67653 0.19021 0.60052 0.0
C726 C 0.61631 0.2285 0.59495 0.0
C727 C 0.57935 0.18593 0.65431 0.0
C728 C 0.69651 0.22283 0.63222 0.0
C729 C 0.66172 0.15977 0.66248 0.0
H730 H 0.54414 0.20733 0.62524 0.0
H731 H 0.56397 0.22928 0.59124 0.0
H732 H 0.65114 0.25474 0.57294 0.0
H733 H 0.69429 0.25235 0.59424 0.0
H734 H 0.73074 0.1976 0.65969 0.0
H735 H 0.71276 0.16205 0.67253 0.0
H736 H 0.62737 0.13327 0.68461 0.0
H737 H 0.58274 0.14878 0.68194 0.0
H738 H 0.60296 0.15338 0.57415 0.0
H739 H 0.67561 0.17571 0.56191 0.0
H740 H 0.6534 0.21921 0.71833 0.0
H741 H 0.62008 0.26508 0.67381 0.0
C742 C 0.8051 0.07992 0.14587 0.0
C743 C 0.79028 0.06481 0.13658 0.0
C744 C 0.77375 0.07442 0.12195 0.0
C745 C 0.77934 0.0948 0.12313 0.0
N746 N 0.79827 0.0986 0.13766 0.0
Co747 Co 0.81226 0.12595 0.14416 0.0
N748 N 0.78246 0.14022 0.13211 0.0
C749 C 0.76515 0.13186 0.1183 0.0
C750 C 0.74691 0.14529 0.11214 0.0
C751 C 0.75325 0.1633 0.12249 0.0
C752 C 0.77509 0.15987 0.13451 0.0
N753 N 0.82633 0.15335 0.15052 0.0
C754 C 0.81543 0.17194 0.1514 0.0
C755 C 0.83249 0.18697 0.15651 0.0
C756 C 0.85476 0.17753 0.15828 0.0
C757 C 0.85016 0.1573 0.15437 0.0
N758 N 0.84195 0.11167 0.15624 0.0
C759 C 0.86412 0.12015 0.15916 0.0
C760 C 0.88122 0.10656 0.16769 0.0
C761 C 0.86906 0.08838 0.17015 0.0
C762 C 0.84512 0.09191 0.16299 0.0
N763 N 0.82599 0.1268 0.11321 0.0
C764 C 0.84652 0.12883 0.06947 0.0
C765 C 0.84862 0.11102 0.08285 0.0
C766 C 0.83799 0.11026 0.10473 0.0
C767 C 0.83401 0.1455 0.07813 0.0
C768 C 0.82397 0.14422 0.10006 0.0
N769 N 0.79875 0.12504 0.17496 0.0
C770 C 0.80374 0.12953 0.21605 0.0
C771 C 0.77968 0.12324 0.21929 0.0
C772 C 0.76532 0.11787 0.19996 0.0
C773 C 0.77523 0.11889 0.17791 0.0
C774 C 0.81293 0.13032 0.19371 0.0
H775 H 0.76387 0.11472 0.16324 0.0
H776 H 0.83153 0.13514 0.19163 0.0
H777 H 0.83961 0.09635 0.11482 0.0
H778 H 0.8147 0.15742 0.10639 0.0
C779 C 0.76503 0.11085 0.11417 0.0
C780 C 0.8264 0.07592 0.16117 0.0
C781 C 0.78955 0.17619 0.14557 0.0
C782 C 0.86695 0.14134 0.1575 0.0
H783 H 0.79137 0.04857 0.13993 0.0
H784 H 0.75886 0.06744 0.11233 0.0
H785 H 0.73067 0.14227 0.10176 0.0
H786 H 0.7432 0.17745 0.12093 0.0
H787 H 0.82928 0.2031 0.15851 0.0
H788 H 0.8721 0.18454 0.16261 0.0
H789 H 0.90006 0.10965 0.17237 0.0
H790 H 0.8769 0.07414 0.17635 0.0
H791 H 0.8582 0.09788 0.07642 0.0
H792 H 0.83221 0.15952 0.06804 0.0
H793 H 0.81542 0.13364 0.23067 0.0
H794 H 0.7465 0.11319 0.20182 0.0
C795 C 0.94179 0.306 0.61845 0.0
C796 C 0.96374 0.2957 0.61632 0.0
C797 C 0.95828 0.27694 0.60737 0.0
C798 C 0.9334 0.27675 0.60446 0.0
N799 N 0.92281 0.29412 0.61117 0.0
Co800 Co 0.8873 0.29986 0.6082 0.0
N801 N 0.87858 0.27037 0.60679 0.0
C802 C 0.89402 0.256 0.59939 0.0
C803 C 0.88256 0.23822 0.59359 0.0
C804 C 0.85838 0.24155 0.5977 0.0
C805 C 0.85632 0.26089 0.60725 0.0
N806 N 0.85183 0.3056 0.60437 0.0
C807 C 0.83206 0.29293 0.60504 0.0
C808 C 0.81183 0.30274 0.59517 0.0
C809 C 0.81872 0.32236 0.58994 0.0
C810 C 0.84299 0.32337 0.59585 0.0
N811 N 0.89613 0.32924 0.61056 0.0
C812 C 0.88153 0.34478 0.60389 0.0
C813 C 0.89182 0.36348 0.60813 0.0
C814 C 0.91443 0.35942 0.61782 0.0
C815 C 0.91696 0.33836 0.61869 0.0
N816 N 0.88996 0.30131 0.57409 0.0
C817 C 0.88158 0.31107 0.52695 0.0
C818 C 0.89887 0.32193 0.54032 0.0
C819 C 0.90357 0.31617 0.56355 0.0
C820 C 0.87219 0.29315 0.53686 0.0
C821 C 0.87536 0.28928 0.56047 0.0
N822 N 0.88421 0.29888 0.6415 0.0
C823 C 0.86848 0.31349 0.67609 0.0
C824 C 0.88097 0.29886 0.68942 0.0
C825 C 0.89486 0.28406 0.67845 0.0
C826 C 0.89609 0.28424 0.65434 0.0
C827 C 0.87047 0.3133 0.65207 0.0
H828 H 0.90664 0.27264 0.64603 0.0
H829 H 0.86102 0.32492 0.64206 0.0
H830 H 0.91679 0.32487 0.57336 0.0
H831 H 0.86438 0.27734 0.56754 0.0
C832 C 0.91909 0.25992 0.59823 0.0
C833 C 0.94006 0.32762 0.6251 0.0
C834 C 0.83267 0.27107 0.61249 0.0
C835 C 0.85755 0.34101 0.59603 0.0
H836 H 0.98189 0.30129 0.62029 0.0
H837 H 0.97093 0.26477 0.60383 0.0
H838 H 0.89059 0.22481 0.58613 0.0
H839 H 0.84395 0.23141 0.59216 0.0
H840 H 0.79412 0.29634 0.59111 0.0
H841 H 0.80737 0.33438 0.58259 0.0
H842 H 0.88369 0.37831 0.60503 0.0
H843 H 0.92762 0.37074 0.62325 0.0
H844 H 0.90776 0.33545 0.5337 0.0
H845 H 0.8607 0.28279 0.52713 0.0
H846 H 0.8575 0.32504 0.68418 0.0
H847 H 0.90434 0.27227 0.68841 0.0
C848 C 0.36838 0.70026 0.06697 0.0
C849 C 0.37564 0.7131 0.049 0.0
C850 C 0.38773 0.7291 0.05909 0.0
C851 C 0.38735 0.72517 0.08261 0.0
N852 N 0.37577 0.70771 0.08805 0.0
Co853 Co 0.37149 0.6968 0.12037 0.0
N854 N 0.37956 0.72355 0.13517 0.0
C855 C 0.39015 0.73937 0.12407 0.0
C856 C 0.3944 0.75577 0.13812 0.0
C857 C 0.38641 0.74991 0.15962 0.0
C858 C 0.37781 0.7301 0.15761 0.0
N859 N 0.36708 0.68594 0.15284 0.0
C860 C 0.36647 0.69549 0.17393 0.0
C861 C 0.3646 0.6813 0.19192 0.0
C862 C 0.36444 0.66241 0.18196 0.0
C863 C 0.36623 0.66596 0.15845 0.0
N864 N 0.36358 0.67017 0.10535 0.0
C865 C 0.36339 0.65206 0.11657 0.0
C866 C 0.35677 0.63628 0.10229 0.0
C867 C 0.35267 0.64497 0.08068 0.0
C868 C 0.35714 0.66567 0.08283 0.0
N869 N 0.40581 0.68902 0.12217 0.0
C870 C 0.45069 0.66943 0.12918 0.0
C871 C 0.43874 0.66911 0.10736 0.0
C872 C 0.41627 0.67891 0.10427 0.0
C873 C 0.44043 0.68118 0.14671 0.0
C874 C 0.41847 0.6912 0.14265 0.0
N875 N 0.33729 0.70387 0.11857 0.0
C876 C 0.29567 0.69288 0.12043 0.0
C877 C 0.28794 0.71153 0.11099 0.0
C878 C 0.30544 0.72652 0.10599 0.0
C879 C 0.33005 0.72233 0.10982 0.0
C880 C 0.32036 0.68948 0.12436 0.0
H881 H 0.34322 0.73387 0.10539 0.0
H882 H 0.3257 0.67494 0.13157 0.0
H883 H 0.40685 0.67745 0.08774 0.0
H884 H 0.4111 0.69964 0.15676 0.0
C885 C 0.39389 0.73889 0.10005 0.0
C886 C 0.35618 0.68046 0.06304 0.0
C887 C 0.37081 0.71753 0.17804 0.0
C888 C 0.36525 0.65117 0.14098 0.0
H889 H 0.37264 0.71105 0.03051 0.0
H890 H 0.39513 0.74238 0.05034 0.0
H891 H 0.40221 0.77035 0.13328 0.0
H892 H 0.38744 0.75901 0.17517 0.0
H893 H 0.36418 0.68429 0.21039 0.0
H894 H 0.36314 0.64781 0.19085 0.0
H895 H 0.35415 0.62046 0.1072 0.0
H896 H 0.34692 0.63694 0.06521 0.0
H897 H 0.44623 0.6609 0.09294 0.0
H898 H 0.44844 0.68195 0.16401 0.0
H899 H 0.2828 0.6809 0.1246 0.0
H900 H 0.30023 0.74146 0.0994 0.0
C901 C 0.41277 0.83596 0.3656 0.0
C902 C 0.41051 0.85293 0.35102 0.0
C903 C 0.3867 0.8536 0.3435 0.0
C904 C 0.37581 0.83708 0.35385 0.0
N905 N 0.39113 0.82617 0.36774 0.0
Co906 Co 0.38296 0.80044 0.38463 0.0
N907 N 0.3476 0.80547 0.38062 0.0
C908 C 0.3369 0.8187 0.36552 0.0
C909 C 0.31201 0.81917 0.36727 0.0
C910 C 0.30674 0.80529 0.38447 0.0
C911 C 0.32885 0.79707 0.39223 0.0
N912 N 0.37508 0.77466 0.40127 0.0
C913 C 0.35405 0.76881 0.41114 0.0
C914 C 0.35639 0.74981 0.42192 0.0
C915 C 0.37976 0.7435 0.41844 0.0
C916 C 0.39031 0.75897 0.40587 0.0
N917 N 0.41852 0.79541 0.38878 0.0
C918 C 0.42914 0.77767 0.39533 0.0
C919 C 0.45404 0.77882 0.39719 0.0
C920 C 0.45961 0.79843 0.3911 0.0
C921 C 0.43768 0.8081 0.38556 0.0
N922 N 0.3818 0.81527 0.41511 0.0
C923 C 0.37128 0.83366 0.45914 0.0
C924 C 0.38444 0.81524 0.45771 0.0
C925 C 0.38965 0.80649 0.43579 0.0
C926 C 0.36427 0.84272 0.43762 0.0
C927 C 0.36962 0.83347 0.41622 0.0
N928 N 0.38263 0.7855 0.35413 0.0
C929 C 0.39717 0.77977 0.31471 0.0
C930 C 0.3774 0.76674 0.3092 0.0
C931 C 0.36106 0.76288 0.32739 0.0
C932 C 0.36394 0.7722 0.34929 0.0
C933 C 0.39941 0.78894 0.33703 0.0
H934 H 0.35049 0.76887 0.36221 0.0
H935 H 0.41451 0.79916 0.34019 0.0
H936 H 0.39949 0.79227 0.4357 0.0
H937 H 0.36295 0.84084 0.40049 0.0
C938 C 0.35091 0.83263 0.35296 0.0
C939 C 0.43622 0.82843 0.37478 0.0
C940 C 0.33095 0.77968 0.40848 0.0
C941 C 0.41519 0.76102 0.40227 0.0
H942 H 0.42471 0.86344 0.34588 0.0
H943 H 0.3783 0.86492 0.33208 0.0
H944 H 0.29928 0.82893 0.3578 0.0
H945 H 0.28867 0.80144 0.39037 0.0
H946 H 0.34257 0.74134 0.43116 0.0
H947 H 0.38833 0.72974 0.42519 0.0
H948 H 0.46661 0.76695 0.40277 0.0
H949 H 0.47782 0.80474 0.39027 0.0
H950 H 0.39082 0.80755 0.47344 0.0
H951 H 0.35386 0.85672 0.43713 0.0
H952 H 0.4105 0.78346 0.30164 0.0
H953 H 0.34576 0.75267 0.32482 0.0
C954 C 0.2049 0.88789 0.94375 0.0
C955 C 0.22086 0.89341 0.96159 0.0
C956 C 0.2414 0.90082 0.95135 0.0
C957 C 0.23688 0.89968 0.92785 0.0
N958 N 0.21455 0.89224 0.92242 0.0
Co959 Co 0.20123 0.88831 0.88992 0.0
N960 N 0.23347 0.89456 0.87497 0.0
C961 C 0.25429 0.8995 0.88654 0.0
C962 C 0.27385 0.90235 0.87235 0.0
C963 C 0.26508 0.89894 0.85033 0.0
C964 C 0.24048 0.89436 0.85223 0.0
N965 N 0.18779 0.8848 0.85735 0.0
C966 C 0.19865 0.886 0.83606 0.0
C967 C 0.18175 0.88319 0.81815 0.0
C968 C 0.15966 0.88009 0.8283 0.0
C969 C 0.16415 0.88126 0.85182 0.0
N970 N 0.16943 0.8809 0.90512 0.0
C971 C 0.14845 0.87638 0.89359 0.0
C972 C 0.13016 0.86995 0.90788 0.0
C973 C 0.14011 0.86998 0.92988 0.0
C974 C 0.16401 0.87667 0.92793 0.0
N975 N 0.19182 0.91789 0.88793 0.0
C976 C 0.17945 0.95957 0.87969 0.0
C977 C 0.1615 0.94441 0.88066 0.0
C978 C 0.16799 0.92394 0.88474 0.0
C979 C 0.20361 0.95341 0.88372 0.0
C980 C 0.20924 0.93292 0.8881 0.0
N981 N 0.21047 0.85926 0.89152 0.0
C982 C 0.20115 0.82398 0.88395 0.0
C983 C 0.22384 0.81811 0.89295 0.0
C984 C 0.2397 0.83295 0.90146 0.0
C985 C 0.23258 0.85336 0.90081 0.0
C986 C 0.19491 0.84458 0.88324 0.0
H987 H 0.24524 0.86414 0.90778 0.0
H988 H 0.17751 0.84834 0.87577 0.0
H989 H 0.15328 0.91338 0.88503 0.0
H990 H 0.22799 0.92974 0.89121 0.0
C991 C 0.25444 0.90229 0.91068 0.0
C992 C 0.18103 0.8782 0.94814 0.0
C993 C 0.22466 0.89024 0.83178 0.0
C994 C 0.14709 0.87736 0.8692 0.0
H995 H 0.21818 0.89178 0.98013 0.0
H996 H 0.2581 0.90556 0.96003 0.0
H997 H 0.29226 0.90657 0.87739 0.0
H998 H 0.27559 0.89987 0.8346 0.0
H999 H 0.18507 0.88332 0.79964 0.0
H1000 H 0.14242 0.87699 0.81956 0.0
H1001 H 0.11195 0.86516 0.90283 0.0
H1002 H 0.13089 0.86517 0.94549 0.0
H1003 H 0.1424 0.9482 0.87837 0.0
H1004 H 0.21848 0.96425 0.88304 0.0
H1005 H 0.1885 0.81277 0.87708 0.0
H1006 H 0.25747 0.82881 0.90858 0.0
C1007 C 0.12679 0.72225 0.4336 0.0
C1008 C 0.12283 0.73419 0.45291 0.0
C1009 C 0.11272 0.7521 0.44486 0.0
C1010 C 0.11092 0.7502 0.42113 0.0
N1011 N 0.11943 0.73228 0.4136 0.0
Co1012 Co 0.11917 0.72391 0.38019 0.0
N1013 N 0.11362 0.75231 0.36794 0.0
C1014 C 0.10628 0.76798 0.38098 0.0
C1015 C 0.1045 0.78598 0.36865 0.0
C1016 C 0.11072 0.78138 0.34634 0.0
C1017 C 0.1157 0.76064 0.34604 0.0
N1018 N 0.11889 0.71555 0.34677 0.0
C1019 C 0.11996 0.72669 0.32644 0.0
C1020 C 0.11816 0.714 0.30735 0.0
C1021 C 0.11587 0.69449 0.31587 0.0
C1022 C 0.11628 0.6962 0.33965 0.0
N1023 N 0.12498 0.69554 0.39243 0.0
C1024 C 0.122 0.67857 0.3798 0.0
C1025 C 0.12759 0.66108 0.39211 0.0
C1026 C 0.13426 0.66734 0.414 0.0
C1027 C 0.1322 0.68842 0.41403 0.0
N1028 N 0.08398 0.71948 0.38145 0.0
C1029 C 0.03397 0.7101 0.38188 0.0
C1030 C 0.04997 0.703 0.39957 0.0
C1031 C 0.07455 0.70826 0.39933 0.0
C1032 C 0.04371 0.72306 0.36466 0.0
C1033 C 0.0687 0.72709 0.36443 0.0
N1034 N 0.15395 0.72811 0.37925 0.0
C1035 C 0.19399 0.71442 0.37454 0.0
C1036 C 0.20399 0.73155 0.38532 0.0
C1037 C 0.18858 0.74747 0.39156 0.0
C1038 C 0.16364 0.74538 0.38852 0.0
C1039 C 0.16883 0.7131 0.37144 0.0
H1040 H 0.1522 0.75748 0.39441 0.0
H1041 H 0.16142 0.69962 0.36355 0.0
H1042 H 0.08601 0.70262 0.41337 0.0
H1043 H 0.07564 0.73609 0.35021 0.0
C1044 C 0.10472 0.76579 0.4052 0.0
C1045 C 0.1353 0.70082 0.43538 0.0
C1046 C 0.12025 0.74927 0.32427 0.0
C1047 C 0.11735 0.67997 0.35576 0.0
H1048 H 0.12654 0.73027 0.47098 0.0
H1049 H 0.10785 0.76517 0.45508 0.0
H1050 H 0.09998 0.80085 0.37525 0.0
H1051 H 0.11133 0.79213 0.33194 0.0
H1052 H 0.11809 0.71839 0.28914 0.0
H1053 H 0.11456 0.68066 0.30587 0.0
H1054 H 0.12758 0.64563 0.38575 0.0
H1055 H 0.13983 0.65745 0.42833 0.0
H1056 H 0.04413 0.69275 0.41324 0.0
H1057 H 0.03244 0.72984 0.35103 0.0
H1058 H 0.20537 0.70193 0.36915 0.0
H1059 H 0.19567 0.76139 0.39904 0.0
C1060 C 0.29708 0.63792 0.92367 0.0
C1061 C 0.28154 0.63075 0.94071 0.0
C1062 C 0.26293 0.62068 0.92947 0.0
C1063 C 0.26804 0.62214 0.90621 0.0
N1064 N 0.28864 0.6326 0.90199 0.0
Co1065 Co 0.30213 0.63771 0.8703 0.0
N1066 N 0.27095 0.63026 0.85381 0.0
C1067 C 0.25245 0.62006 0.86372 0.0
C1068 C 0.23326 0.61662 0.84859 0.0
C1069 C 0.24016 0.62495 0.82771 0.0
C1070 C 0.26335 0.63295 0.83115 0.0
N1071 N 0.31557 0.64317 0.83867 0.0
C1072 C 0.30431 0.64519 0.8173 0.0
C1073 C 0.32136 0.64835 0.80008 0.0
C1074 C 0.34387 0.64819 0.81089 0.0
C1075 C 0.33946 0.6449 0.83408 0.0
N1076 N 0.33334 0.64487 0.88683 0.0
C1077 C 0.35515 0.64634 0.87657 0.0
C1078 C 0.37361 0.6518 0.89169 0.0
C1079 C 0.36287 0.65371 0.9129 0.0
C1080 C 0.33832 0.64911 0.9097 0.0
N1081 N 0.31283 0.60915 0.86867 0.0
C1082 C 0.32854 0.5686 0.86552 0.0
C1083 C 0.33041 0.57895 0.88663 0.0
C1084 C 0.32275 0.5993 0.88777 0.0
C1085 C 0.31861 0.57885 0.84612 0.0
C1086 C 0.3106 0.59893 0.84812 0.0
N1087 N 0.29162 0.666 0.87171 0.0
C1088 C 0.30056 0.70167 0.86723 0.0
C1089 C 0.27669 0.70672 0.87321 0.0
C1090 C 0.26048 0.69085 0.87854 0.0
C1091 C 0.26835 0.67064 0.87782 0.0
C1092 C 0.30757 0.6813 0.86643 0.0
H1093 H 0.25554 0.65879 0.8821 0.0
H1094 H 0.32595 0.67797 0.86154 0.0
H1095 H 0.32487 0.60704 0.90411 0.0
H1096 H 0.30256 0.60611 0.8329 0.0
C1097 C 0.2525 0.61639 0.8878 0.0
C1098 C 0.32079 0.64781 0.92906 0.0
C1099 C 0.27807 0.64181 0.81216 0.0
C1100 C 0.35678 0.64572 0.85227 0.0
H1101 H 0.28362 0.63237 0.95936 0.0
H1102 H 0.24722 0.61357 0.93733 0.0
H1103 H 0.21601 0.60941 0.85242 0.0
H1104 H 0.22935 0.62497 0.81177 0.0
H1105 H 0.31793 0.65008 0.78155 0.0
H1106 H 0.36134 0.65052 0.80282 0.0
H1107 H 0.39247 0.65483 0.88763 0.0
H1108 H 0.37213 0.65803 0.92886 0.0
H1109 H 0.33797 0.57144 0.90204 0.0
H1110 H 0.31659 0.57123 0.82958 0.0
H1111 H 0.31391 0.71335 0.86338 0.0
H1112 H 0.24175 0.69392 0.88294 0.0
C1113 C 0.11525 0.8354 0.08712 0.0
C1114 C 0.09603 0.83147 0.07179 0.0
C1115 C 0.07768 0.823 0.08468 0.0
C1116 C 0.08659 0.82208 0.10717 0.0
N1117 N 0.10943 0.82935 0.10927 0.0
Co1118 Co 0.12887 0.82993 0.1391 0.0
N1119 N 0.10682 0.81037 0.1557 0.0
C1120 C 0.08424 0.8054 0.14807 0.0
C1121 C 0.07263 0.79197 0.16265 0.0
C1122 C 0.08866 0.78848 0.18087 0.0
C1123 C 0.10925 0.80017 0.17663 0.0
N1124 N 0.14883 0.83026 0.16868 0.0
C1125 C 0.14818 0.81829 0.18843 0.0
C1126 C 0.16483 0.82529 0.205 0.0
C1127 C 0.17601 0.84207 0.19555 0.0
C1128 C 0.16565 0.84456 0.17379 0.0
N1129 N 0.1506 0.84973 0.12268 0.0
C1130 C 0.16679 0.86202 0.13339 0.0
C1131 C 0.17948 0.87412 0.11813 0.0
C1132 C 0.17072 0.8692 0.09641 0.0
C1133 C 0.15314 0.85425 0.09954 0.0
N1134 N 0.10895 0.85247 0.15006 0.0
C1135 C 0.06989 0.87671 0.16313 0.0
C1136 C 0.08263 0.86476 0.17963 0.0
C1137 C 0.10183 0.8526 0.17272 0.0
C1138 C 0.07932 0.87847 0.14068 0.0
C1139 C 0.09921 0.86643 0.13462 0.0
N1140 N 0.14804 0.80752 0.12789 0.0
C1141 C 0.18658 0.79454 0.11632 0.0
C1142 C 0.1749 0.77779 0.10631 0.0
C1143 C 0.14975 0.77569 0.10788 0.0
C1144 C 0.13657 0.79088 0.11861 0.0
C1145 C 0.1728 0.80916 0.12732 0.0
H1146 H 0.11709 0.7893 0.119 0.0
H1147 H 0.18211 0.82193 0.13501 0.0
H1148 H 0.10949 0.84221 0.18545 0.0
H1149 H 0.10544 0.86731 0.11694 0.0
C1150 C 0.07587 0.81168 0.12587 0.0
C1151 C 0.13808 0.84596 0.08021 0.0
C1152 C 0.1299 0.80218 0.19361 0.0
C1153 C 0.17251 0.85909 0.15705 0.0
H1154 H 0.09532 0.83437 0.05321 0.0
H1155 H 0.06028 0.81743 0.07823 0.0
H1156 H 0.05485 0.78511 0.16008 0.0
H1157 H 0.08537 0.77853 0.19562 0.0
H1158 H 0.16792 0.81943 0.22248 0.0
H1159 H 0.19003 0.85135 0.20364 0.0
H1160 H 0.19408 0.88467 0.12221 0.0
H1161 H 0.17656 0.8759 0.08012 0.0
H1162 H 0.07662 0.86356 0.19746 0.0
H1163 H 0.07035 0.88781 0.12742 0.0
H1164 H 0.20625 0.79609 0.11603 0.0
H1165 H 0.14043 0.76252 0.10081 0.0
C1166 C 0.1984 0.64263 0.5684 0.0
C1167 C 0.21207 0.63506 0.55039 0.0
C1168 C 0.2294 0.62243 0.56038 0.0
C1169 C 0.22537 0.62284 0.5839 0.0
N1170 N 0.20663 0.63496 0.58935 0.0
Co1171 Co 0.19526 0.63962 0.62165 0.0
N1172 N 0.22627 0.62957 0.6365 0.0
C1173 C 0.24311 0.6185 0.62556 0.0
C1174 C 0.2626 0.61328 0.63974 0.0
C1175 C 0.25761 0.62134 0.66105 0.0
C1176 C 0.23518 0.63101 0.65883 0.0
N1177 N 0.18372 0.64431 0.65396 0.0
C1178 C 0.19599 0.64464 0.6749 0.0
C1179 C 0.17997 0.6479 0.69288 0.0
C1180 C 0.15708 0.64949 0.68297 0.0
C1181 C 0.16024 0.64708 0.65951 0.0
N1182 N 0.16441 0.64986 0.60661 0.0
C1183 C 0.14323 0.65222 0.61767 0.0
C1184 C 0.12514 0.66026 0.6035 0.0
C1185 C 0.13552 0.66309 0.58213 0.0
C1186 C 0.15946 0.65645 0.58429 0.0
N1187 N 0.18195 0.61173 0.62305 0.0
C1188 C 0.16494 0.57123 0.62568 0.0
C1189 C 0.16135 0.5831 0.60535 0.0
C1190 C 0.16984 0.60334 0.60445 0.0
C1191 C 0.17708 0.58022 0.64457 0.0
C1192 C 0.1854 0.60026 0.6429 0.0
N1193 N 0.20869 0.66702 0.62061 0.0
C1194 C 0.20667 0.70201 0.63187 0.0
C1195 C 0.22993 0.70573 0.62289 0.0
C1196 C 0.24185 0.68963 0.61202 0.0
C1197 C 0.23116 0.67038 0.61148 0.0
C1198 C 0.19621 0.68275 0.63006 0.0
H1199 H 0.24129 0.65817 0.60396 0.0
H1200 H 0.17828 0.68049 0.63693 0.0
H1201 H 0.16679 0.61214 0.58865 0.0
H1202 H 0.19496 0.60631 0.65778 0.0
C1203 C 0.24125 0.61539 0.60146 0.0
C1204 C 0.17669 0.65578 0.56466 0.0
C1205 C 0.22211 0.63965 0.67884 0.0
C1206 C 0.1424 0.65016 0.64199 0.0
H1207 H 0.20971 0.63828 0.53197 0.0
H1208 H 0.24384 0.61459 0.55158 0.0
H1209 H 0.27877 0.60495 0.63506 0.0
H1210 H 0.26902 0.61994 0.67655 0.0
H1211 H 0.18431 0.64867 0.7113 0.0
H1212 H 0.14023 0.65251 0.69179 0.0
H1213 H 0.10688 0.66451 0.60837 0.0
H1214 H 0.12645 0.66949 0.56686 0.0
H1215 H 0.15196 0.57686 0.59031 0.0
H1216 H 0.18074 0.57165 0.66049 0.0
H1217 H 0.19667 0.71363 0.64083 0.0
H1218 H 0.25945 0.69166 0.60413 0.0
C1219 C 0.31039 0.88492 0.5918 0.0
C1220 C 0.29564 0.89078 0.57302 0.0
C1221 C 0.27652 0.90141 0.58181 0.0
C1222 C 0.28042 0.90138 0.60545 0.0
N1223 N 0.30114 0.89171 0.61233 0.0
Co1224 Co 0.31166 0.88633 0.64576 0.0
N1225 N 0.28118 0.89838 0.65887 0.0
C1226 C 0.26378 0.90838 0.64635 0.0
C1227 C 0.24471 0.91478 0.65955 0.0
C1228 C 0.25022 0.90843 0.68182 0.0
C1229 C 0.27245 0.89846 0.68109 0.0
N1230 N 0.3217 0.87987 0.679 0.0
C1231 C 0.30918 0.88107 0.69931 0.0
C1232 C 0.32325 0.87415 0.71812 0.0
C1233 C 0.34509 0.86809 0.70948 0.0
C1234 C 0.34325 0.87162 0.68595 0.0
N1235 N 0.34217 0.8744 0.63271 0.0
C1236 C 0.36187 0.86823 0.64537 0.0
C1237 C 0.38005 0.86035 0.63213 0.0
C1238 C 0.37135 0.86127 0.60969 0.0
C1239 C 0.34814 0.86957 0.6104 0.0
N1240 N 0.32774 0.9139 0.64766 0.0
C1241 C 0.34708 0.95375 0.6538 0.0
C1242 C 0.35717 0.93694 0.66561 0.0
C1243 C 0.34753 0.91737 0.66212 0.0
C1244 C 0.32776 0.95015 0.63824 0.0
C1245 C 0.31851 0.93041 0.63548 0.0
N1246 N 0.29571 0.85952 0.64404 0.0
C1247 C 0.29635 0.82318 0.65056 0.0
C1248 C 0.27312 0.82122 0.64023 0.0
C1249 C 0.2614 0.83895 0.63219 0.0
C1250 C 0.27271 0.85778 0.63468 0.0
C1251 C 0.30739 0.8423 0.65191 0.0
H1252 H 0.26262 0.87075 0.6287 0.0
H1253 H 0.32539 0.84287 0.65932 0.0
H1254 H 0.35644 0.90544 0.67158 0.0
H1255 H 0.30364 0.9292 0.62354 0.0
C1256 C 0.26434 0.90908 0.62193 0.0
C1257 C 0.33256 0.87236 0.58933 0.0
C1258 C 0.28417 0.88884 0.70186 0.0
C1259 C 0.36114 0.86709 0.6697 0.0
H1260 H 0.29806 0.88734 0.55486 0.0
H1261 H 0.26114 0.90778 0.57215 0.0
H1262 H 0.22825 0.92243 0.65354 0.0
H1263 H 0.23889 0.91052 0.69681 0.0
H1264 H 0.31822 0.87352 0.73624 0.0
H1265 H 0.3604 0.86165 0.71919 0.0
H1266 H 0.39717 0.85379 0.63819 0.0
H1267 H 0.38082 0.85603 0.59454 0.0
H1268 H 0.37254 0.93883 0.6775 0.0
H1269 H 0.31923 0.96264 0.62864 0.0
H1270 H 0.30611 0.81012 0.65765 0.0
H1271 H 0.24368 0.83846 0.62363 0.0
H1272 H 0.10862 0.22822 0.74887 0.0
H1273 H 0.15673 0.24538 0.80572 0.0
H1274 H 0.15729 0.28041 0.791 0.0
H1275 H 0.14557 0.30594 0.76097 0.0
H1276 H 0.10057 0.28786 0.70249 0.0
H1277 H 0.09795 0.25319 0.7185 0.0
C1278 C 0.11957 0.23947 0.75793 0.0
C1279 C 0.1327 0.23399 0.77838 0.0
C1280 C 0.12053 0.25941 0.74895 0.0
C1281 C 0.14614 0.24909 0.79015 0.0
C1282 C 0.14668 0.26914 0.78163 0.0
C1283 C 0.13513 0.29436 0.75186 0.0
C1284 C 0.12324 0.29931 0.73066 0.0
C1285 C 0.13411 0.27442 0.76094 0.0
C1286 C 0.10996 0.28426 0.71878 0.0
C1287 C 0.10841 0.26452 0.72796 0.0
H1288 H 0.72242 0.64569 0.21551 0.0
H1289 H 0.72722 0.58021 0.21866 0.0
H1290 H 0.76796 0.5825 0.23691 0.0
H1291 H 0.79997 0.60334 0.25531 0.0
H1292 H 0.79468 0.66881 0.25303 0.0
H1293 H 0.7562 0.66656 0.23068 0.0
C1294 C 0.73276 0.632 0.21976 0.0
C1295 C 0.72234 0.61282 0.21577 0.0
C1296 C 0.75579 0.63352 0.23036 0.0
C1297 C 0.73531 0.59505 0.22155 0.0
C1298 C 0.75841 0.5964 0.232 0.0
C1299 C 0.79061 0.61705 0.24929 0.0
C1300 C 0.79993 0.63621 0.2553 0.0
C1301 C 0.76854 0.61555 0.23691 0.0
C1302 C 0.7877 0.65399 0.24814 0.0
C1303 C 0.76577 0.65266 0.23557 0.0
H1304 H 0.35661 0.29446 0.76747 0.0
H1305 H 0.43457 0.3024 0.76772 0.0
H1306 H 0.43984 0.26712 0.7552 0.0
H1307 H 0.42202 0.23383 0.74449 0.0
H1308 H 0.34393 0.22683 0.74162 0.0
H1309 H 0.33877 0.26188 0.7548 0.0
C1310 C 0.3747 0.28837 0.76475 0.0
C1311 C 0.3952 0.30078 0.76859 0.0
C1312 C 0.37749 0.2683 0.75709 0.0
C1313 C 0.41859 0.29299 0.7648 0.0
C1314 C 0.42158 0.27287 0.75771 0.0
C1315 C 0.40394 0.2401 0.74676 0.0
C1316 C 0.38336 0.22793 0.74225 0.0
C1317 C 0.40116 0.26036 0.75385 0.0
C1318 C 0.35996 0.23607 0.74497 0.0
C1319 C 0.35703 0.25604 0.75254 0.0
H1320 H 0.70221 0.902 0.26332 0.0
H1321 H 0.70781 0.83654 0.26343 0.0
H1322 H 0.74925 0.83901 0.24813 0.0
H1323 H 0.78402 0.86003 0.23582 0.0
H1324 H 0.77808 0.92546 0.23493 0.0
H1325 H 0.73628 0.92298 0.24934 0.0
C1326 C 0.7125 0.88834 0.25963 0.0
C1327 C 0.70221 0.86912 0.26403 0.0
C1328 C 0.73601 0.88995 0.25077 0.0
C1329 C 0.71556 0.85142 0.25981 0.0
C1330 C 0.73911 0.85286 0.25115 0.0
C1331 C 0.7733 0.87366 0.23849 0.0
C1332 C 0.78361 0.89289 0.23415 0.0
C1333 C 0.74951 0.87204 0.24665 0.0
C1334 C 0.7701 0.91058 0.23799 0.0
C1335 C 0.74639 0.90913 0.24626 0.0
H1336 H 0.75259 0.09313 0.2384 0.0
H1337 H 0.78386 0.15222 0.25238 0.0
H1338 H 0.76557 0.15208 0.29075 0.0
H1339 H 0.73922 0.13594 0.31935 0.0
H1340 H 0.70696 0.07737 0.30572 0.0
H1341 H 0.7269 0.07646 0.26773 0.0
C1342 C 0.75528 0.10596 0.24988 0.0
C1343 C 0.7694 0.12268 0.24271 0.0
C1344 C 0.74454 0.10586 0.27173 0.0
C1345 C 0.77319 0.13913 0.25772 0.0
C1346 C 0.76266 0.13911 0.27954 0.0
C1347 C 0.73689 0.12293 0.30804 0.0
C1348 C 0.72208 0.10665 0.31492 0.0
C1349 C 0.74817 0.12266 0.28656 0.0
C1350 C 0.71859 0.08989 0.30045 0.0
C1351 C 0.72989 0.08944 0.27889 0.0
H1352 H 0.91764 0.29866 0.72099 0.0
H1353 H 0.83926 0.29769 0.71385 0.0
H1354 H 0.83566 0.2899 0.75537 0.0
H1355 H 0.85518 0.27773 0.79162 0.0
H1356 H 0.93351 0.27747 0.79856 0.0
H1357 H 0.93702 0.29174 0.75911 0.0
C1358 C 0.89984 0.29709 0.72876 0.0
C1359 C 0.87876 0.29829 0.7147 0.0
C1360 C 0.89799 0.29228 0.75237 0.0
C1361 C 0.85566 0.29668 0.72461 0.0
C1362 C 0.85362 0.29213 0.74821 0.0
C1363 C 0.87292 0.28129 0.78453 0.0
C1364 C 0.89407 0.27644 0.79735 0.0
C1365 C 0.87469 0.28905 0.76195 0.0
C1366 C 0.91709 0.28115 0.78859 0.0
C1367 C 0.91906 0.28914 0.76613 0.0
H1368 H 0.7131 0.36955 0.31517 0.0
H1369 H 0.74159 0.42884 0.29788 0.0
H1370 H 0.72233 0.42718 0.25903 0.0
H1371 H 0.70595 0.40532 0.22784 0.0
H1372 H 0.68516 0.34351 0.24437 0.0
H1373 H 0.69202 0.34963 0.28564 0.0
C1374 C 0.71408 0.38242 0.30315 0.0
C1375 C 0.72846 0.39929 0.30904 0.0
C1376 C 0.70456 0.38065 0.28057 0.0
C1377 C 0.7303 0.41583 0.2935 0.0
C1378 C 0.71959 0.41473 0.27128 0.0
C1379 C 0.7021 0.39354 0.2407 0.0
C1380 C 0.69458 0.37419 0.23329 0.0
C1381 C 0.70792 0.39671 0.26423 0.0
C1382 C 0.69021 0.35871 0.24979 0.0
C1383 C 0.6945 0.36212 0.27336 0.0
H1384 H 0.59868 0.25896 0.72045 0.0
H1385 H 0.67716 0.26009 0.71866 0.0
H1386 H 0.67868 0.2823 0.75259 0.0
H1387 H 0.65771 0.29901 0.78418 0.0
H1388 H 0.57946 0.29542 0.78838 0.0
H1389 H 0.5775 0.27654 0.7518 0.0
C1390 C 0.61599 0.26435 0.72747 0.0
C1391 C 0.63778 0.25819 0.71745 0.0
C1392 C 0.61666 0.2765 0.74724 0.0
C1393 C 0.66027 0.26483 0.72644 0.0
C1394 C 0.66111 0.27744 0.7457 0.0
C1395 C 0.64025 0.29438 0.77676 0.0
C1396 C 0.61874 0.29858 0.78849 0.0
C1397 C 0.63944 0.28306 0.75642 0.0
C1398 C 0.59616 0.29226 0.77931 0.0
C1399 C 0.59508 0.2815 0.75856 0.0
H1400 H 0.26611 0.73265 0.07554 0.0
H1401 H 0.25087 0.70032 0.13962 0.0
H1402 H 0.20978 0.71408 0.13923 0.0
H1403 H 0.18273 0.74168 0.12642 0.0
H1404 H 0.20106 0.77857 0.06674 0.0
H1405 H 0.23617 0.75671 0.05935 0.0
C1406 C 0.25368 0.72848 0.08927 0.0
C1407 C 0.26173 0.71602 0.10791 0.0
C1408 C 0.23065 0.73746 0.08977 0.0
C1409 C 0.2452 0.71 0.12512 0.0
C1410 C 0.22173 0.718 0.12504 0.0
C1411 C 0.19392 0.7443 0.11128 0.0
C1412 C 0.18976 0.76147 0.09713 0.0
C1413 C 0.21486 0.73266 0.10826 0.0
C1414 C 0.20424 0.76523 0.0777 0.0
C1415 C 0.22434 0.75291 0.07368 0.0
H1416 H 0.31438 0.75149 0.37966 0.0
H1417 H 0.29861 0.78141 0.44387 0.0
H1418 H 0.25836 0.76492 0.44466 0.0
H1419 H 0.22625 0.74635 0.4238 0.0
H1420 H 0.24074 0.72082 0.35656 0.0
H1421 H 0.28356 0.73038 0.3606 0.0
C1422 C 0.3022 0.75396 0.39401 0.0
C1423 C 0.30883 0.76753 0.41161 0.0
C1424 C 0.27911 0.74523 0.39371 0.0
C1425 C 0.29339 0.77095 0.43023 0.0
C1426 C 0.27056 0.76161 0.43059 0.0
C1427 C 0.23885 0.74281 0.41009 0.0
C1428 C 0.23037 0.73342 0.38966 0.0
C1429 C 0.26294 0.74942 0.4119 0.0
C1430 C 0.24689 0.72813 0.3724 0.0
C1431 C 0.27127 0.73377 0.37459 0.0
H1432 H 0.25497 0.80112 0.86344 0.0
H1433 H 0.20899 0.78748 0.92152 0.0
H1434 H 0.22151 0.75158 0.92083 0.0
H1435 H 0.24591 0.72441 0.9038 0.0
H1436 H 0.2897 0.73786 0.84376 0.0
H1437 H 0.27797 0.77358 0.84529 0.0
C1438 C 0.24781 0.79018 0.8759 0.0
C1439 C 0.23132 0.79665 0.89259 0.0
C1440 C 0.25476 0.76966 0.87509 0.0
C1441 C 0.22181 0.78259 0.90861 0.0
C1442 C 0.22895 0.76217 0.90818 0.0
C1443 C 0.25265 0.73506 0.89083 0.0
C1444 C 0.26883 0.72838 0.8738 0.0
C1445 C 0.24541 0.75554 0.89147 0.0
C1446 C 0.27764 0.74257 0.85739 0.0
C1447 C 0.2708 0.76301 0.85811 0.0
H1448 H 0.20803 0.74316 0.62516 0.0
H1449 H 0.27904 0.71442 0.62662 0.0
H1450 H 0.29836 0.74749 0.63052 0.0
H1451 H 0.29525 0.78439 0.63397 0.0
H1452 H 0.22414 0.812 0.64037 0.0
H1453 H 0.20487 0.77932 0.63325 0.0
C1454 C 0.22771 0.74386 0.62685 0.0
C1455 C 0.24185 0.72604 0.62537 0.0
C1456 C 0.2388 0.76279 0.6305 0.0
C1457 C 0.26745 0.72773 0.62695 0.0
C1458 C 0.27863 0.74668 0.62953 0.0
C1459 C 0.27555 0.78334 0.63438 0.0
C1460 C 0.26134 0.80093 0.63743 0.0
C1461 C 0.26447 0.76429 0.63143 0.0
C1462 C 0.23574 0.79902 0.63735 0.0
C1463 C 0.22461 0.78024 0.63351 0.0
H1464 H 0.86966 0.8003 0.28117 0.0
H1465 H 0.89082 0.78656 0.21133 0.0
H1466 H 0.89161 0.75007 0.22112 0.0
H1467 H 0.88474 0.72185 0.24929 0.0
H1468 H 0.86752 0.73638 0.32028 0.0
H1469 H 0.86645 0.77237 0.31017 0.0
C1470 C 0.8745 0.78929 0.26813 0.0
C1471 C 0.88001 0.79618 0.24549 0.0
C1472 C 0.87541 0.76832 0.27404 0.0
C1473 C 0.88655 0.78171 0.22888 0.0
C1474 C 0.88693 0.76081 0.23448 0.0
C1475 C 0.8811 0.73279 0.26274 0.0
C1476 C 0.87558 0.72587 0.2855 0.0
C1477 C 0.88125 0.75387 0.257 0.0
C1478 C 0.87091 0.74073 0.3024 0.0
C1479 C 0.87054 0.76154 0.29671 0.0
H1480 H 0.22012 0.41304 0.73321 0.0
H1481 H 0.21212 0.3482 0.72567 0.0
H1482 H 0.25278 0.34283 0.74328 0.0
H1483 H 0.29132 0.3567 0.76078 0.0
H1484 H 0.29883 0.42159 0.76844 0.0
H1485 H 0.25804 0.4268 0.75131 0.0
C1486 C 0.22715 0.39772 0.73572 0.0
C1487 C 0.21277 0.381 0.72843 0.0
C1488 C 0.25069 0.39476 0.74592 0.0
C1489 C 0.22258 0.36131 0.73131 0.0
C1490 C 0.2459 0.35825 0.74138 0.0
C1491 C 0.28396 0.37195 0.75871 0.0
C1492 C 0.29833 0.38876 0.76573 0.0
C1493 C 0.26024 0.37485 0.74876 0.0
C1494 C 0.28835 0.40841 0.76303 0.0
C1495 C 0.26495 0.41139 0.75322 0.0
H1496 H 0.59986 0.78079 0.239 0.0
H1497 H 0.65843 0.77261 0.28964 0.0
H1498 H 0.66407 0.73786 0.27692 0.0
H1499 H 0.65257 0.70923 0.25165 0.0
H1500 H 0.59721 0.71868 0.19809 0.0
H1501 H 0.59056 0.75306 0.21171 0.0
C1502 C 0.61412 0.77166 0.24719 0.0
C1503 C 0.62829 0.77977 0.26576 0.0
C1504 C 0.61795 0.75155 0.23926 0.0
C1505 C 0.64647 0.76708 0.27594 0.0
C1506 C 0.65 0.74705 0.26845 0.0
C1507 C 0.63925 0.71876 0.24261 0.0
C1508 C 0.62523 0.71071 0.22392 0.0
C1509 C 0.63583 0.73904 0.25015 0.0
C1510 C 0.60792 0.72375 0.21292 0.0
C1511 C 0.6042 0.7437 0.22058 0.0
H1512 H 0.29947 0.11316 0.7633 0.0
H1513 H 0.30271 0.17665 0.74374 0.0
H1514 H 0.26181 0.18196 0.75917 0.0
H1515 H 0.22422 0.16829 0.77751 0.0
H1516 H 0.2211 0.10478 0.79691 0.0
H1517 H 0.26256 0.09976 0.78272 0.0
C1518 C 0.29135 0.12822 0.76276 0.0
C1519 C 0.3044 0.14458 0.75267 0.0
C1520 C 0.26768 0.13114 0.77169 0.0
C1521 C 0.29326 0.16387 0.75161 0.0
C1522 C 0.26981 0.16689 0.76041 0.0
C1523 C 0.23279 0.15343 0.77882 0.0
C1524 C 0.21962 0.13693 0.78842 0.0
C1525 C 0.25673 0.15064 0.77043 0.0
C1526 C 0.23088 0.11771 0.78977 0.0
C1527 C 0.25458 0.11484 0.78157 0.0
H1528 H 0.27036 0.91814 0.73389 0.0
H1529 H 0.26899 0.85344 0.72264 0.0
H1530 H 0.25011 0.84793 0.76057 0.0
H1531 H 0.23467 0.86134 0.79813 0.0
H1532 H 0.23697 0.92596 0.80979 0.0
H1533 H 0.25433 0.9316 0.77118 0.0
C1534 C 0.26569 0.90285 0.73963 0.0
C1535 C 0.27103 0.88623 0.72501 0.0
C1536 C 0.25492 0.89974 0.76189 0.0
C1537 C 0.26506 0.86654 0.7332 0.0
C1538 C 0.25425 0.86338 0.75505 0.0
C1539 C 0.23881 0.87667 0.79215 0.0
C1540 C 0.23432 0.89322 0.80712 0.0
C1541 C 0.24917 0.87981 0.76972 0.0
C1542 C 0.24008 0.91292 0.79886 0.0
C1543 C 0.2501 0.91615 0.77668 0.0
H1544 H 0.15377 0.75054 0.28801 0.0
H1545 H 0.08203 0.77145 0.30525 0.0
H1546 H 0.07853 0.7894 0.26773 0.0
H1547 H 0.09599 0.80017 0.22964 0.0
H1548 H 0.16671 0.77778 0.2112 0.0
H1549 H 0.17041 0.75991 0.24887 0.0
C1550 C 0.13735 0.75902 0.28359 0.0
C1551 C 0.11844 0.75988 0.30018 0.0
C1552 C 0.13522 0.76923 0.26141 0.0
C1553 C 0.09722 0.77079 0.29351 0.0
C1554 C 0.09513 0.78105 0.27181 0.0
C1555 C 0.11208 0.79111 0.23362 0.0
C1556 C 0.13096 0.79034 0.21699 0.0
C1557 C 0.11402 0.78053 0.25554 0.0
C1558 C 0.1518 0.77876 0.22322 0.0
C1559 C 0.15393 0.76847 0.24494 0.0
H1560 H 0.26144 0.61264 0.78083 0.0
H1561 H 0.27194 0.67734 0.7872 0.0
H1562 H 0.25585 0.68271 0.74743 0.0
H1563 H 0.23839 0.66901 0.71015 0.0
H1564 H 0.22846 0.60423 0.70383 0.0
H1565 H 0.2443 0.59897 0.74364 0.0
C1566 C 0.26005 0.62794 0.77358 0.0
C1567 C 0.26772 0.64461 0.78741 0.0
C1568 C 0.2508 0.63091 0.75039 0.0
C1569 C 0.26609 0.66424 0.77728 0.0
C1570 C 0.25685 0.6673 0.75441 0.0
C1571 C 0.23975 0.65374 0.71748 0.0
C1572 C 0.23232 0.63701 0.70365 0.0
C1573 C 0.24908 0.65079 0.74068 0.0
C1574 C 0.23417 0.61738 0.71375 0.0
C1575 C 0.24323 0.61437 0.73666 0.0
H1576 H 0.41054 0.75294 0.2759 0.0
H1577 H 0.33341 0.76045 0.28645 0.0
H1578 H 0.32454 0.74566 0.24863 0.0
H1579 H 0.33811 0.73054 0.21138 0.0
H1580 H 0.41492 0.72313 0.20027 0.0
H1581 H 0.42416 0.73763 0.23859 0.0
C1582 C 0.39176 0.75147 0.27 0.0
C1583 C 0.37279 0.75785 0.28485 0.0
C1584 C 0.38655 0.74275 0.24768 0.0
C1585 C 0.34863 0.75548 0.27625 0.0
C1586 C 0.34342 0.74704 0.25427 0.0
C1587 C 0.35687 0.73196 0.21741 0.0
C1588 C 0.37576 0.72556 0.20266 0.0
C1589 C 0.36214 0.74051 0.23974 0.0
C1590 C 0.39994 0.72777 0.21102 0.0
C1591 C 0.40526 0.73618 0.23305 0.0
H1592 H 0.72319 0.28837 0.91404 0.0
H1593 H 0.71766 0.29942 0.84011 0.0
H1594 H 0.75748 0.28323 0.83495 0.0
H1595 H 0.7947 0.26605 0.85161 0.0
H1596 H 0.79889 0.25364 0.92536 0.0
H1597 H 0.75916 0.26977 0.93035 0.0
C1598 C 0.73048 0.28692 0.89674 0.0
C1599 C 0.71703 0.29493 0.87743 0.0
C1600 C 0.75346 0.27736 0.89387 0.0
C1601 C 0.72732 0.2933 0.85526 0.0
C1602 C 0.7502 0.28404 0.85231 0.0
C1603 C 0.78688 0.26689 0.86875 0.0
C1604 C 0.80026 0.25898 0.88817 0.0
C1605 C 0.76357 0.27603 0.87149 0.0
C1606 C 0.78946 0.25995 0.91018 0.0
C1607 C 0.76659 0.26914 0.91304 0.0
H1608 H 0.78624 0.2853 0.62714 0.0
H1609 H 0.82628 0.22927 0.62507 0.0
H1610 H 0.789 0.21001 0.62605 0.0
H1611 H 0.74377 0.20873 0.62436 0.0
H1612 H 0.70419 0.26382 0.63823 0.0
H1613 H 0.74182 0.28366 0.63427 0.0
C1614 C 0.78697 0.26897 0.62524 0.0
C1615 C 0.80954 0.25924 0.6203 0.0
C1616 C 0.76501 0.25764 0.62827 0.0
C1617 C 0.8096 0.2378 0.62346 0.0
C1618 C 0.78794 0.22649 0.62524 0.0
C1619 C 0.74326 0.22494 0.62755 0.0
C1620 C 0.72068 0.23451 0.63187 0.0
C1621 C 0.76534 0.23625 0.62675 0.0
C1622 C 0.72098 0.25584 0.63478 0.0
C1623 C 0.74264 0.26725 0.6326 0.0
H1624 H 0.76378 0.26959 0.1258 0.0
H1625 H 0.71286 0.2576 0.1807 0.0
H1626 H 0.72701 0.22245 0.18378 0.0
H1627 H 0.75416 0.19459 0.17111 0.0
H1628 H 0.80423 0.20626 0.1157 0.0
H1629 H 0.79004 0.2416 0.11244 0.0
C1630 C 0.75555 0.25929 0.1383 0.0
C1631 C 0.73729 0.26662 0.15311 0.0
C1632 C 0.76374 0.23883 0.13996 0.0
C1633 C 0.72722 0.2528 0.16933 0.0
C1634 C 0.73522 0.23252 0.17103 0.0
C1635 C 0.76196 0.20494 0.1584 0.0
C1636 C 0.78055 0.19788 0.14395 0.0
C1637 C 0.75357 0.22533 0.15655 0.0
C1638 C 0.79022 0.2114 0.12729 0.0
C1639 C 0.78203 0.23161 0.12538 0.0
H1640 H 0.74859 0.28205 0.41299 0.0
H1641 H 0.74301 0.28605 0.33803 0.0
H1642 H 0.72813 0.25113 0.33661 0.0
H1643 H 0.71631 0.21924 0.3563 0.0
H1644 H 0.72301 0.21438 0.43112 0.0
H1645 H 0.73747 0.24955 0.43278 0.0
C1646 C 0.74432 0.27527 0.39631 0.0
C1647 C 0.74683 0.28705 0.37567 0.0
C1648 C 0.73575 0.25487 0.39552 0.0
C1649 C 0.74089 0.27778 0.3543 0.0
C1650 C 0.73248 0.25763 0.35342 0.0
C1651 C 0.72115 0.22569 0.37302 0.0
C1652 C 0.71842 0.21382 0.39355 0.0
C1653 C 0.72975 0.24601 0.37389 0.0
C1654 C 0.72444 0.22296 0.41498 0.0
C1655 C 0.73296 0.24315 0.41596 0.0
H1656 H 0.14339 0.55187 0.66224 0.0
H1657 H 0.16888 0.54142 0.59287 0.0
H1658 H 0.16011 0.50499 0.59729 0.0
H1659 H 0.14816 0.47548 0.62226 0.0
H1660 H 0.12369 0.48629 0.69177 0.0
H1661 H 0.12921 0.52305 0.68606 0.0
C1662 C 0.147 0.54165 0.64804 0.0
C1663 C 0.15701 0.54943 0.62731 0.0
C1664 C 0.14219 0.52069 0.65082 0.0
C1665 C 0.16106 0.53594 0.60896 0.0
C1666 C 0.15621 0.51505 0.61155 0.0
C1667 C 0.14372 0.486 0.63593 0.0
C1668 C 0.13541 0.47833 0.65737 0.0
C1669 C 0.14718 0.50716 0.63256 0.0
C1670 C 0.12994 0.49197 0.67512 0.0
C1671 C 0.13318 0.51294 0.67187 0.0
H1672 H 0.48794 0.67777 0.15974 0.0
H1673 H 0.46381 0.63259 0.11029 0.0
H1674 H 0.49923 0.61164 0.12039 0.0
H1675 H 0.53726 0.60607 0.14378 0.0
H1676 H 0.55669 0.64945 0.19674 0.0
H1677 H 0.52193 0.67044 0.1858 0.0
C1678 C 0.48982 0.66314 0.15147 0.0
C1679 C 0.47292 0.65694 0.13427 0.0
C1680 C 0.50931 0.6506 0.15828 0.0
C1681 C 0.47665 0.63815 0.12325 0.0
C1682 C 0.49675 0.62593 0.12927 0.0
C1683 C 0.53358 0.61999 0.15303 0.0
C1684 C 0.55003 0.6266 0.17039 0.0
C1685 C 0.51315 0.63196 0.14688 0.0
C1686 C 0.54491 0.64441 0.18268 0.0
C1687 C 0.52496 0.65644 0.17648 0.0
H1688 H 0.35824 0.97129 0.69545 0.0
H1689 H 0.35577 0.98397 0.62162 0.0
H1690 H 0.3678 0.01931 0.62859 0.0
H1691 H 0.37697 0.04729 0.65595 0.0
H1692 H 0.37721 0.03482 0.72973 0.0
H1693 H 0.3686 0.9988 0.72259 0.0
C1694 C 0.36069 0.9817 0.68086 0.0
C1695 C 0.35607 0.97492 0.65804 0.0
C1696 C 0.36725 1.00212 0.68503 0.0
C1697 C 0.35896 0.98878 0.63938 0.0
C1698 C 0.36593 1.009 0.64335 0.0
C1699 C 0.3755 0.03656 0.67038 0.0
C1700 C 0.37788 0.04361 0.69333 0.0
C1701 C 0.36984 0.01594 0.66612 0.0
C1702 C 0.37552 0.02968 0.71193 0.0
C1703 C 0.37052 1.00912 0.70785 0.0
H1704 H 0.03539 0.85687 0.18717 0.0
H1705 H 0.04846 0.9134 0.15025 0.0
H1706 H 0.00655 0.92431 0.15775 0.0
H1707 H 0.96574 0.91719 0.17464 0.0
H1708 H 0.95454 0.86053 0.21174 0.0
H1709 H 0.99643 0.85035 0.20472 0.0
C1710 C 0.02939 0.87182 0.1812 0.0
C1711 C 0.04521 0.88444 0.16851 0.0
C1712 C 0.00555 0.87791 0.18558 0.0
C1713 C 0.03666 0.90341 0.16012 0.0
C1714 C 0.01274 0.90965 0.16444 0.0
C1715 C 0.97271 0.90272 0.1812 0.0
C1716 C 0.95734 0.88957 0.19368 0.0
C1717 C 0.99696 0.89696 0.17708 0.0
C1718 C 0.96621 0.8708 0.2021 0.0
C1719 C 0.9901 0.865 0.19811 0.0
H1720 H 0.14226 0.97536 0.85177 0.0
H1721 H 0.2026 0.99384 0.89617 0.0
H1722 H 0.19505 0.02927 0.88583 0.0
H1723 H 0.17229 0.0551 0.86368 0.0
H1724 H 0.10879 0.03757 0.82296 0.0
H1725 H 0.11691 1.00186 0.83229 0.0
C1726 C 0.15358 0.98707 0.85955 0.0
C1727 C 0.17334 0.98154 0.87449 0.0
C1728 C 0.14873 1.00774 0.85404 0.0
C1729 C 0.18777 0.99724 0.88407 0.0
C1730 C 0.18333 0.01768 0.87832 0.0
C1731 C 0.15974 0.04368 0.85716 0.0
C1732 C 0.13989 0.04946 0.84249 0.0
C1733 C 0.16398 0.02311 0.86322 0.0
C1734 C 0.12453 0.03393 0.83386 0.0
C1735 C 0.12902 0.01336 0.83939 0.0
H1736 H 0.93752 0.65862 0.38676 0.0
H1737 H 0.93221 0.67768 0.31473 0.0
H1738 H 0.96808 0.69925 0.31981 0.0
H1739 H 0.00347 0.70847 0.34321 0.0
H1740 H 0.00483 0.69472 0.41719 0.0
H1741 H 0.9674 0.67543 0.41274 0.0
C1742 C 0.94324 0.66837 0.37253 0.0
C1743 C 0.93204 0.66674 0.35047 0.0
C1744 C 0.96349 0.68121 0.37571 0.0
C1745 C 0.94061 0.67872 0.33189 0.0
C1746 C 0.96114 0.69099 0.33476 0.0
C1747 C 0.99552 0.70204 0.35875 0.0
C1748 C 0.00817 0.70249 0.38035 0.0
C1749 C 0.97319 0.6918 0.35643 0.0
C1750 C 0.99674 0.69377 0.39994 0.0
C1751 C 0.97497 0.68289 0.39755 0.0
H1752 H 0.36481 0.55329 0.83944 0.0
H1753 H 0.30863 0.53563 0.88706 0.0
H1754 H 0.31772 0.49956 0.88073 0.0
H1755 H 0.34014 0.47302 0.85969 0.0
H1756 H 0.39802 0.49068 0.81395 0.0
H1757 H 0.39006 0.52672 0.82153 0.0
C1758 C 0.35482 0.54148 0.8486 0.0
C1759 C 0.33604 0.54698 0.86362 0.0
C1760 C 0.36042 0.52082 0.84512 0.0
C1761 C 0.32322 0.53166 0.8755 0.0
C1762 C 0.32835 0.51108 0.8718 0.0
C1763 C 0.35114 0.48481 0.85164 0.0
C1764 C 0.36956 0.4793 0.83622 0.0
C1765 C 0.34667 0.50546 0.85638 0.0
C1766 C 0.38383 0.49462 0.82595 0.0
C1767 C 0.37919 0.5152 0.8302 0.0
H1768 H 0.46372 0.81445 0.34017 0.0
H1769 H 0.45946 0.86269 0.38996 0.0
H1770 H 0.49908 0.87601 0.37738 0.0
H1771 H 0.5356 0.87289 0.35304 0.0
H1772 H 0.5403 0.82368 0.3045 0.0
H1773 H 0.49981 0.81154 0.31569 0.0
C1774 C 0.47153 0.82794 0.3481 0.0
C1775 C 0.45905 0.83762 0.36598 0.0
C1776 C 0.49439 0.83509 0.34117 0.0
C1777 C 0.46898 0.8551 0.37619 0.0
C1778 C 0.49158 0.8626 0.36907 0.0
C1779 C 0.52773 0.8594 0.34518 0.0
C1780 C 0.54086 0.84882 0.32841 0.0
C1781 C 0.5046 0.85253 0.35182 0.0
C1782 C 0.53049 0.83173 0.31774 0.0
C1783 C 0.5074 0.82489 0.32406 0.0
H1784 H 0.62789 0.12715 0.54578 0.0
H1785 H 0.64454 0.18974 0.52857 0.0
H1786 H 0.64509 0.18168 0.48729 0.0
H1787 H 0.64616 0.15624 0.45694 0.0
H1788 H 0.63276 0.09311 0.47342 0.0
H1789 H 0.625 0.10183 0.51412 0.0
C1790 C 0.63125 0.13897 0.53286 0.0
C1791 C 0.63657 0.15889 0.54001 0.0
C1792 C 0.63207 0.13411 0.50914 0.0
C1793 C 0.64086 0.17422 0.52331 0.0
C1794 C 0.64108 0.16965 0.49977 0.0
C1795 C 0.64074 0.14454 0.46935 0.0
C1796 C 0.63974 0.12417 0.46248 0.0
C1797 C 0.63742 0.14958 0.49259 0.0
C1798 C 0.63325 0.10893 0.47854 0.0
C1799 C 0.62912 0.11391 0.50175 0.0
H1800 H 0.82244 0.12722 0.02875 0.0
H1801 H 0.89377 0.13604 0.05946 0.0
H1802 H 0.90853 0.15014 0.02257 0.0
H1803 H 0.89849 0.16576 0.98456 0.0
H1804 H 0.8265 0.15771 0.95439 0.0
H1805 H 0.81449 0.13742 0.98815 0.0
C1806 C 0.84143 0.13154 0.02694 0.0
C1807 C 0.85714 0.1307 0.0464 0.0
C1808 C 0.84939 0.14021 1.00608 0.0
C1809 C 0.88161 0.13647 0.04438 0.0
C1810 C 0.88989 0.14473 0.02346 0.0
C1811 C 0.88041 0.15909 0.98506 0.0
C1812 C 0.8632 0.16366 0.96735 0.0
C1813 C 0.87358 0.14757 1.00458 0.0
C1814 C 0.83982 0.1549 0.96822 0.0
C1815 C 0.83298 0.14321 0.98741 0.0
H1816 H 0.9002 0.34038 0.4964 0.0
H1817 H 0.83689 0.30172 0.50681 0.0
H1818 H 0.81779 0.31579 0.47268 0.0
H1819 H 0.81645 0.3407 0.44148 0.0
H1820 H 0.87475 0.38405 0.43376 0.0
H1821 H 0.89791 0.36697 0.4656 0.0
C1822 C 0.88219 0.33501 0.49154 0.0
C1823 C 0.87079 0.31933 0.50454 0.0
C1824 C 0.86997 0.34434 0.47244 0.0
C1825 C 0.84732 0.31281 0.49716 0.0
C1826 C 0.83581 0.32121 0.47763 0.0
C1827 C 0.83419 0.34646 0.44689 0.0
C1828 C 0.84385 0.36366 0.43573 0.0
C1829 C 0.84673 0.33716 0.46546 0.0
C1830 C 0.86697 0.3709 0.44247 0.0
C1831 C 0.88012 0.36113 0.46056 0.0
H1832 H 0.70232 0.36006 0.98268 0.0
H1833 H 0.6286 0.38164 0.99229 0.0
H1834 H 0.63953 0.39151 0.03158 0.0
H1835 H 0.66752 0.38857 0.06553 0.0
H1836 H 0.73416 0.35458 0.05826 0.0
H1837 H 0.72868 0.35493 0.0163 0.0
C1838 C 0.68807 0.36625 0.99322 0.0
C1839 C 0.66424 0.36919 0.98405 0.0
C1840 C 0.69353 0.3699 0.01668 0.0
C1841 C 0.64713 0.37893 0.99821 0.0
C1842 C 0.65328 0.38448 0.02103 0.0
C1843 C 0.68106 0.38164 0.05462 0.0
C1844 C 0.70172 0.37233 0.06509 0.0
C1845 C 0.67611 0.37927 0.03073 0.0
C1846 C 0.7188 0.36288 0.05083 0.0
C1847 C 0.71533 0.36259 0.02675 0.0
H1848 H 0.81159 0.54281 0.34083 0.0
H1849 H 0.88916 0.53216 0.34279 0.0
H1850 H 0.88217 0.49611 0.35195 0.0
H1851 H 0.85381 0.4672 0.35882 0.0
H1852 H 0.7763 0.47842 0.35701 0.0
H1853 H 0.7835 0.51437 0.34832 0.0
C1854 C 0.82701 0.53262 0.34313 0.0
C1855 C 0.8509 0.54033 0.34097 0.0
C1856 C 0.82285 0.51185 0.34844 0.0
C1857 C 0.87059 0.52682 0.3445 0.0
C1858 C 0.86658 0.50611 0.34962 0.0
C1859 C 0.8385 0.4775 0.35645 0.0
C1860 C 0.8145 0.46996 0.35869 0.0
C1861 C 0.84277 0.49839 0.35153 0.0
C1862 C 0.79495 0.4837 0.35575 0.0
C1863 C 0.79905 0.50432 0.35064 0.0
H1864 H 0.47356 0.39325 0.85819 0.0
H1865 H 0.46754 0.34719 0.80579 0.0
H1866 H 0.50875 0.33502 0.81589 0.0
H1867 H 0.54707 0.33742 0.83982 0.0
H1868 H 0.55316 0.38379 0.89188 0.0
H1869 H 0.51187 0.39575 0.88197 0.0
C1870 C 0.48122 0.38044 0.84914 0.0
C1871 C 0.4672 0.37095 0.83143 0.0
C1872 C 0.5052 0.37362 0.85497 0.0
C1873 C 0.47772 0.35464 0.8196 0.0
C1874 C 0.50137 0.3477 0.82537 0.0
C1875 C 0.53936 0.35021 0.84889 0.0
C1876 C 0.55349 0.35989 0.86638 0.0
C1877 C 0.51538 0.35705 0.84302 0.0
C1878 C 0.54298 0.37627 0.87813 0.0
C1879 C 0.51925 0.38307 0.8725 0.0
H1880 H 0.62081 0.03111 0.36382 0.0
H1881 H 0.69903 0.02344 0.36764 0.0
H1882 H 0.69474 0.98853 0.35469 0.0
H1883 H 0.66922 0.95996 0.34176 0.0
H1884 H 0.5913 0.96811 0.33478 0.0
H1885 H 0.59525 1.0027 0.34941 0.0
C1886 C 0.63701 0.02195 0.36167 0.0
C1887 C 0.66024 0.03024 0.36715 0.0
C1888 C 0.63453 1.00173 0.35359 0.0
C1889 C 0.68081 0.01768 0.36433 0.0
C1890 C 0.67843 0.99761 0.35662 0.0
C1891 C 0.65302 0.96927 0.34308 0.0
C1892 C 0.62994 0.96104 0.33704 0.0
C1893 C 0.65542 0.98945 0.35113 0.0
C1894 C 0.60931 0.97358 0.33956 0.0
C1895 C 0.61155 0.99356 0.3478 0.0
H1896 H 0.05554 0.18457 0.85889 0.0
H1897 H 0.02412 0.14145 0.81074 0.0
H1898 H 0.98438 0.15732 0.81495 0.0
H1899 H 0.95813 0.18374 0.83331 0.0
H1900 H 0.98545 0.20632 0.89906 0.0
H1901 H 0.02677 0.19861 0.88779 0.0
C1902 C 0.04018 0.17778 0.8498 0.0
C1903 C 0.04412 0.16259 0.83285 0.0
C1904 C 0.01628 0.18401 0.85565 0.0
C1905 C 0.02296 0.15454 0.82187 0.0
C1906 C 0.99977 0.16321 0.82488 0.0
C1907 C 0.97272 0.18653 0.84581 0.0
C1908 C 0.96797 0.19776 0.86626 0.0
C1909 C 0.99616 0.17814 0.84175 0.0
C1910 C 0.98799 0.20036 0.88186 0.0
C1911 C 0.01189 0.19512 0.87583 0.0
H1912 H 0.84807 0.04465 0.13859 0.0
H1913 H 0.81609 0.05997 0.20386 0.0
H1914 H 0.82368 0.02523 0.21875 0.0
H1915 H 0.8388 0.99012 0.21283 0.0
H1916 H 0.87124 0.97519 0.14736 0.0
H1917 H 0.86397 0.0098 0.13298 0.0
C1918 C 0.84285 0.0403 0.15608 0.0
C1919 C 0.83152 0.05478 0.17015 0.0
C1920 C 0.84726 0.02027 0.16446 0.0
C1921 C 0.82482 0.04905 0.19276 0.0
C1922 C 0.82916 0.02919 0.20124 0.0
C1923 C 0.84452 0.99444 0.1955 0.0
C1924 C 0.85544 0.97975 0.18123 0.0
C1925 C 0.84033 0.0146 0.18724 0.0
C1926 C 0.86241 0.98584 0.15869 0.0
C1927 C 0.85838 1.00576 0.15044 0.0
H1928 H 0.03845 0.38003 0.63401 0.0
H1929 H 0.04711 0.3436 0.6965 0.0
H1930 H 0.00756 0.32727 0.68882 0.0
H1931 H 0.97049 0.32251 0.66361 0.0
H1932 H 0.96318 0.35766 0.60003 0.0
H1933 H 1.00177 0.375 0.60865 0.0
C1934 C 0.03187 0.3683 0.64578 0.0
C1935 C 0.04621 0.3628 0.66563 0.0
C1936 C 0.00903 0.35876 0.64108 0.0
C1937 C 0.03676 0.34803 0.681 0.0
C1938 C 0.01405 0.33866 0.67659 0.0
C1939 C 0.97723 0.33414 0.65178 0.0
C1940 C 0.96331 0.33914 0.63148 0.0
C1941 C 0.99999 0.3438 0.65661 0.0
C1942 C 0.97284 0.35392 0.61613 0.0
C1943 C 0.99515 0.36373 0.62096 0.0
H1944 H 0.65325 0.45765 0.13316 0.0
H1945 H 0.69606 0.44946 0.19624 0.0
H1946 H 0.68827 0.48475 0.20695 0.0
H1947 H 0.67021 0.51849 0.19812 0.0
H1948 H 0.62908 0.52752 0.13417 0.0
H1949 H 0.63536 0.4918 0.12412 0.0
C1950 C 0.6607 0.46358 0.14931 0.0
C1951 C 0.67522 0.45079 0.16388 0.0
C1952 C 0.65658 0.48423 0.15519 0.0
C1953 C 0.68494 0.45889 0.18463 0.0
C1954 C 0.68047 0.47913 0.1908 0.0
C1955 C 0.66245 0.51264 0.18205 0.0
C1956 C 0.64912 0.52588 0.16699 0.0
C1957 C 0.66646 0.49203 0.17618 0.0
C1958 C 0.63958 0.5179 0.14607 0.0
C1959 C 0.64309 0.49736 0.14033 0.0
H1960 H 0.47426 0.18212 0.70108 0.0
H1961 H 0.47179 0.12462 0.66592 0.0
H1962 H 0.51269 0.1307 0.65075 0.0
H1963 H 0.54959 0.15251 0.64723 0.0
H1964 H 0.55213 0.21018 0.68196 0.0
H1965 H 0.51122 0.20412 0.69728 0.0
C1966 C 0.4827 0.17098 0.69003 0.0
C1967 C 0.46978 0.15298 0.68448 0.0
C1968 C 0.50642 0.17465 0.68127 0.0
C1969 C 0.48114 0.13865 0.67028 0.0
C1970 C 0.5046 0.14213 0.66163 0.0
C1971 C 0.54122 0.16367 0.65828 0.0
C1972 C 0.55417 0.1817 0.6637 0.0
C1973 C 0.5175 0.16007 0.66697 0.0
C1974 C 0.54276 0.19614 0.67769 0.0
C1975 C 0.5193 0.19265 0.68645 0.0
H1976 H 0.36007 0.81584 0.50255 0.0
H1977 H 0.36834 0.87467 0.46912 0.0
H1978 H 0.35684 0.89141 0.50481 0.0
H1979 H 0.34435 0.89005 0.54635 0.0
H1980 H 0.33653 0.83159 0.58024 0.0
H1981 H 0.34799 0.8145 0.54435 0.0
C1982 C 0.35958 0.83234 0.50298 0.0
C1983 C 0.36502 0.84368 0.48238 0.0
C1984 C 0.35288 0.84219 0.52405 0.0
C1985 C 0.3639 0.86515 0.48397 0.0
C1986 C 0.3574 0.87491 0.50468 0.0
C1987 C 0.34493 0.87356 0.54587 0.0
C1988 C 0.3392 0.86224 0.56631 0.0
C1989 C 0.35169 0.86368 0.52489 0.0
C1990 C 0.34062 0.84083 0.56505 0.0
C1991 C 0.34725 0.83099 0.54437 0.0
H1992 H 0.17472 0.83527 0.04968 0.0
H1993 H 0.11152 0.87374 0.05402 0.0
H1994 H 0.11846 0.88682 0.0145 0.0
H1995 H 0.14314 0.88814 0.97828 0.0
H1996 H 0.20587 0.84911 0.97365 0.0
H1997 H 0.19867 0.83581 0.01298 0.0
C1998 C 0.16233 0.8464 0.04192 0.0
C1999 C 0.14229 0.85319 0.05506 0.0
C2000 C 0.16647 0.85394 0.01882 0.0
C2001 C 0.12679 0.86788 0.0445 0.0
C2002 C 0.13086 0.87548 0.02177 0.0
C2003 C 0.15507 0.87651 0.9857 0.0
C2004 C 0.17506 0.86963 0.97247 0.0
C2005 C 0.15067 0.8687 0.00864 0.0
C2006 C 0.19039 0.85479 0.98302 0.0
C2007 C 0.18624 0.84713 1.00569 0.0
H2008 H 0.13809 0.65028 0.53252 0.0
H2009 H 0.20446 0.68443 0.54243 0.0
H2010 H 0.19815 0.70117 0.50437 0.0
H2011 H 0.17359 0.70647 0.46751 0.0
H2012 H 0.10696 0.67259 0.45804 0.0
H2013 H 0.1133 0.65592 0.49608 0.0
C2014 C 0.15102 0.66162 0.52658 0.0
C2015 C 0.17162 0.66623 0.54096 0.0
C2016 C 0.14722 0.67133 0.50434 0.0
C2017 C 0.18837 0.68058 0.53218 0.0
C2018 C 0.18474 0.69022 0.51025 0.0
C2019 C 0.16047 0.69541 0.47373 0.0
C2020 C 0.13991 0.69068 0.45935 0.0
C2021 C 0.16422 0.68578 0.49605 0.0
C2022 C 0.12312 0.6764 0.46821 0.0
C2023 C 0.12672 0.66685 0.49016 0.0
H2024 H 0.37043 0.65066 0.03155 0.0
H2025 H 0.31908 0.69958 0.03912 0.0
H2026 H 0.30345 0.69412 0.99944 0.0
H2027 H 0.3047 0.67581 0.9615 0.0
H2028 H 0.35562 0.62653 0.95428 0.0
H2029 H 0.37061 0.63153 0.99424 0.0
C2030 C 0.3555 0.65989 0.02472 0.0
C2031 C 0.34575 0.67538 0.03886 0.0
C2032 C 0.34652 0.65666 1.00153 0.0
C2033 C 0.32686 0.68745 0.02905 0.0
C2034 C 0.31791 0.68434 1.00618 0.0
C2035 C 0.31906 0.66614 0.96868 0.0
C2036 C 0.32923 0.65098 0.95438 0.0
C2037 C 0.32763 0.66907 0.99207 0.0
C2038 C 0.34765 0.63854 0.96442 0.0
C2039 C 0.35623 0.64137 0.98745 0.0
loop_
_geom_bond_atom_site_label_1
_geom_bond_atom_site_label_2
_geom_bond_distance
_geom_bond_site_symmetry_2
_ccdc_geom_bond_type
C0 C1 1.443 . S
C0 N4 1.376 . S
C0 C38 1.389 . S
C1 C0 1.443 . S
C1 C2 1.340 . S
C1 H41 0.951 . S
C2 C1 1.340 . S
C2 C3 1.439 . S
C2 H42 0.950 . S
C3 C2 1.439 . S
C3 N4 1.374 . S
C3 C37 1.395 . S
N4 C0 1.376 . S
N4 C3 1.374 . S
N4 Co5 2.008 . S
Co5 N4 2.008 . S
Co5 N6 1.995 . S
Co5 N11 2.008 . S
Co5 N16 1.995 . S
Co5 N21 2.282 . S
Co5 N27 2.282 . S
N6 Co5 1.995 . S
N6 C7 1.376 . S
N6 C10 1.383 . S
C7 N6 1.376 . S
C7 C8 1.446 . S
C7 C37 1.391 . S
C8 C7 1.446 . S
C8 C9 1.339 . S
C8 H43 0.949 . S
C9 C8 1.339 . S
C9 C10 1.439 . S
C9 H44 0.950 . S
C10 N6 1.383 . S
C10 C9 1.439 . S
C10 C39 1.392 . S
N11 Co5 2.008 . S
N11 C12 1.376 . S
N11 C15 1.374 . S
C12 N11 1.376 . S
C12 C13 1.443 . S
C12 C39 1.389 . S
C13 C12 1.443 . S
C13 C14 1.340 . S
C13 H45 0.951 . S
C14 C13 1.340 . S
C14 C15 1.439 . S
C14 H46 0.950 . S
C15 N11 1.374 . S
C15 C14 1.439 . S
C15 C40 1.395 . S
N16 Co5 1.995 . S
N16 C17 1.376 . S
N16 C20 1.383 . S
C17 N16 1.376 . S
C17 C18 1.446 . S
C17 C40 1.391 . S
C18 C17 1.446 . S
C18 C19 1.339 . S
C18 H47 0.949 . S
C19 C18 1.339 . S
C19 C20 1.439 . S
C19 H48 0.950 . S
C20 N16 1.383 . S
C20 C19 1.439 . S
C20 C38 1.392 . S
N21 Co5 2.282 . S
N21 C24 1.332 . S
N21 C26 1.332 . S
C22 C23 1.386 . S
C22 C25 1.388 . S
C23 C22 1.386 . S
C23 C24 1.382 . S
C23 H49 0.950 . S
C24 N21 1.332 . S
C24 C23 1.382 . S
C24 H35 0.952 . S
C25 C22 1.388 . S
C25 C26 1.382 . S
C25 H50 0.950 . S
C26 N21 1.332 . S
C26 C25 1.382 . S
C26 H36 0.948 . S
N27 Co5 2.282 . S
N27 C31 1.332 . S
N27 C32 1.332 . S
C28 C29 1.388 . S
C28 C32 1.382 . S
C28 H51 0.950 . S
C29 C28 1.388 . S
C29 C30 1.386 . S
C30 C29 1.386 . S
C30 C31 1.382 . S
C30 H52 0.950 . S
C31 N27 1.332 . S
C31 C30 1.382 . S
C31 H33 0.952 . S
C32 N27 1.332 . S
C32 C28 1.382 . S
C32 H34 0.948 . S
H33 C31 0.952 . S
H34 C32 0.948 . S
H35 C24 0.952 . S
H36 C26 0.948 . S
C37 C3 1.395 . S
C37 C7 1.391 . S
C38 C0 1.389 . S
C38 C20 1.392 . S
C39 C10 1.392 . S
C39 C12 1.389 . S
C40 C15 1.395 . S
C40 C17 1.391 . S
H41 C1 0.951 . S
H42 C2 0.950 . S
H43 C8 0.949 . S
H44 C9 0.950 . S
H45 C13 0.951 . S
H46 C14 0.950 . S
H47 C18 0.949 . S
H48 C19 0.950 . S
H49 C23 0.950 . S
H50 C25 0.950 . S
H51 C28 0.950 . S
H52 C30 0.950 . S
C53 C54 1.443 . S
C53 N57 1.376 . S
C53 C91 1.389 . S
C54 C53 1.443 . S
C54 C55 1.340 . S
C54 H94 0.951 . S
C55 C54 1.340 . S
C55 C56 1.439 . S
C55 H95 0.950 . S
C56 C55 1.439 . S
C56 N57 1.374 . S
C56 C90 1.395 . S
N57 C53 1.376 . S
N57 C56 1.374 . S
N57 Co58 2.008 . S
Co58 N57 2.008 . S
Co58 N59 1.995 . S
Co58 N64 2.008 . S
Co58 N69 1.995 . S
Co58 N74 2.282 . S
Co58 N80 2.282 . S
N59 Co58 1.995 . S
N59 C60 1.376 . S
N59 C63 1.383 . S
C60 N59 1.376 . S
C60 C61 1.446 . S
C60 C90 1.391 . S
C61 C60 1.446 . S
C61 C62 1.339 . S
C61 H96 0.949 . S
C62 C61 1.339 . S
C62 C63 1.439 . S
C62 H97 0.950 . S
C63 N59 1.383 . S
C63 C62 1.439 . S
C63 C92 1.392 . S
N64 Co58 2.008 . S
N64 C65 1.376 . S
N64 C68 1.374 . S
C65 N64 1.376 . S
C65 C66 1.443 . S
C65 C92 1.389 . S
C66 C65 1.443 . S
C66 C67 1.340 . S
C66 H98 0.951 . S
C67 C66 1.340 . S
C67 C68 1.439 . S
C67 H99 0.950 . S
C68 N64 1.374 . S
C68 C67 1.439 . S
C68 C93 1.395 . S
N69 Co58 1.995 . S
N69 C70 1.376 . S
N69 C73 1.383 . S
C70 N69 1.376 . S
C70 C71 1.446 . S
C70 C93 1.391 . S
C71 C70 1.446 . S
C71 C72 1.339 . S
C71 H100 0.949 . S
C72 C71 1.339 . S
C72 C73 1.439 . S
C72 H101 0.950 . S
C73 N69 1.383 . S
C73 C72 1.439 . S
C73 C91 1.392 . S
N74 Co58 2.282 . S
N74 C77 1.332 . S
N74 C79 1.332 . S
C75 C76 1.386 . S
C75 C78 1.388 . S
C76 C75 1.386 . S
C76 C77 1.382 . S
C76 H102 0.950 . S
C77 N74 1.332 . S
C77 C76 1.382 . S
C77 H88 0.952 . S
C78 C75 1.388 . S
C78 C79 1.382 . S
C78 H103 0.950 . S
C79 N74 1.332 . S
C79 C78 1.382 . S
C79 H89 0.948 . S
N80 Co58 2.282 . S
N80 C84 1.332 . S
N80 C85 1.332 . S
C81 C82 1.388 . S
C81 C85 1.382 . S
C81 H104 0.950 . S
C82 C81 1.388 . S
C82 C83 1.386 . S
C83 C82 1.386 . S
C83 C84 1.382 . S
C83 H105 0.950 . S
C84 N80 1.332 . S
C84 C83 1.382 . S
C84 H86 0.952 . S
C85 N80 1.332 . S
C85 C81 1.382 . S
C85 H87 0.948 . S
H86 C84 0.952 . S
H87 C85 0.948 . S
H88 C77 0.952 . S
H89 C79 0.948 . S
C90 C56 1.395 . S
C90 C60 1.391 . S
C91 C53 1.389 . S
C91 C73 1.392 . S
C92 C63 1.392 . S
C92 C65 1.389 . S
C93 C68 1.395 . S
C93 C70 1.391 . S
H94 C54 0.951 . S
H95 C55 0.950 . S
H96 C61 0.949 . S
H97 C62 0.950 . S
H98 C66 0.951 . S
H99 C67 0.950 . S
H100 C71 0.949 . S
H101 C72 0.950 . S
H102 C76 0.950 . S
H103 C78 0.950 . S
H104 C81 0.950 . S
H105 C83 0.950 . S
C106 C107 1.443 . S
C106 N110 1.376 . S
C106 C144 1.389 . S
C107 C106 1.443 . S
C107 C108 1.340 . S
C107 H147 0.951 . S
C108 C107 1.340 . S
C108 C109 1.439 . S
C108 H148 0.950 . S
C109 C108 1.439 . S
C109 N110 1.374 . S
C109 C143 1.395 . S
N110 C106 1.376 . S
N110 C109 1.374 . S
N110 Co111 2.008 . S
Co111 N110 2.008 . S
Co111 N112 1.995 . S
Co111 N117 2.008 . S
Co111 N122 1.995 . S
Co111 N127 2.282 . S
Co111 N133 2.282 . S
N112 Co111 1.995 . S
N112 C113 1.376 . S
N112 C116 1.383 . S
C113 N112 1.376 . S
C113 C114 1.446 . S
C113 C143 1.391 . S
C114 C113 1.446 . S
C114 C115 1.339 . S
C114 H149 0.949 . S
C115 C114 1.339 . S
C115 C116 1.439 . S
C115 H150 0.950 . S
C116 N112 1.383 . S
C116 C115 1.439 . S
C116 C145 1.392 . S
N117 Co111 2.008 . S
N117 C118 1.376 . S
N117 C121 1.374 . S
C118 N117 1.376 . S
C118 C119 1.443 . S
C118 C145 1.389 . S
C119 C118 1.443 . S
C119 C120 1.340 . S
C119 H151 0.951 . S
C120 C119 1.340 . S
C120 C121 1.439 . S
C120 H152 0.950 . S
C121 N117 1.374 . S
C121 C120 1.439 . S
C121 C146 1.395 . S
N122 Co111 1.995 . S
N122 C123 1.376 . S
N122 C126 1.383 . S
C123 N122 1.376 . S
C123 C124 1.446 . S
C123 C146 1.391 . S
C124 C123 1.446 . S
C124 C125 1.339 . S
C124 H153 0.949 . S
C125 C124 1.339 . S
C125 C126 1.439 . S
C125 H154 0.950 . S
C126 N122 1.383 . S
C126 C125 1.439 . S
C126 C144 1.392 . S
N127 Co111 2.282 . S
N127 C130 1.332 . S
N127 C132 1.332 . S
C128 C129 1.386 . S
C128 C131 1.388 . S
C129 C128 1.386 . S
C129 C130 1.382 . S
C129 H155 0.950 . S
C130 N127 1.332 . S
C130 C129 1.382 . S
C130 H141 0.952 . S
C131 C128 1.388 . S
C131 C132 1.382 . S
C131 H156 0.950 . S
C132 N127 1.332 . S
C132 C131 1.382 . S
C132 H142 0.948 . S
N133 Co111 2.282 . S
N133 C137 1.332 . S
N133 C138 1.332 . S
C134 C135 1.388 . S
C134 C138 1.382 . S
C134 H157 0.950 . S
C135 C134 1.388 . S
C135 C136 1.386 . S
C136 C135 1.386 . S
C136 C137 1.382 . S
C136 H158 0.950 . S
C137 N133 1.332 . S
C137 C136 1.382 . S
C137 H139 0.952 . S
C138 N133 1.332 . S
C138 C134 1.382 . S
C138 H140 0.948 . S
H139 C137 0.952 . S
H140 C138 0.948 . S
H141 C130 0.952 . S
H142 C132 0.948 . S
C143 C109 1.395 . S
C143 C113 1.391 . S
C144 C106 1.389 . S
C144 C126 1.392 . S
C145 C116 1.392 . S
C145 C118 1.389 . S
C146 C121 1.395 . S
C146 C123 1.391 . S
H147 C107 0.951 . S
H148 C108 0.950 . S
H149 C114 0.949 . S
H150 C115 0.950 . S
H151 C119 0.951 . S
H152 C120 0.950 . S
H153 C124 0.949 . S
H154 C125 0.950 . S
H155 C129 0.950 . S
H156 C131 0.950 . S
H157 C134 0.950 . S
H158 C136 0.950 . S
C159 C160 1.443 . S
C159 N163 1.376 . S
C159 C197 1.389 . S
C160 C159 1.443 . S
C160 C161 1.340 . S
C160 H200 0.951 . S
C161 C160 1.340 . S
C161 C162 1.439 . S
C161 H201 0.950 . S
C162 C161 1.439 . S
C162 N163 1.374 . S
C162 C196 1.395 . S
N163 C159 1.376 . S
N163 C162 1.374 . S
N163 Co164 2.008 . S
Co164 N163 2.008 . S
Co164 N165 1.995 . S
Co164 N170 2.008 . S
Co164 N175 1.995 . S
Co164 N180 2.282 . S
Co164 N186 2.282 . S
N165 Co164 1.995 . S
N165 C166 1.376 . S
N165 C169 1.383 . S
C166 N165 1.376 . S
C166 C167 1.446 . S
C166 C196 1.391 . S
C167 C166 1.446 . S
C167 C168 1.339 . S
C167 H202 0.949 . S
C168 C167 1.339 . S
C168 C169 1.439 . S
C168 H203 0.950 . S
C169 N165 1.383 . S
C169 C168 1.439 . S
C169 C198 1.392 . S
N170 Co164 2.008 . S
N170 C171 1.376 . S
N170 C174 1.374 . S
C171 N170 1.376 . S
C171 C172 1.443 . S
C171 C198 1.389 . S
C172 C171 1.443 . S
C172 C173 1.340 . S
C172 H204 0.951 . S
C173 C172 1.340 . S
C173 C174 1.439 . S
C173 H205 0.950 . S
C174 N170 1.374 . S
C174 C173 1.439 . S
C174 C199 1.395 . S
N175 Co164 1.995 . S
N175 C176 1.376 . S
N175 C179 1.383 . S
C176 N175 1.376 . S
C176 C177 1.446 . S
C176 C199 1.391 . S
C177 C176 1.446 . S
C177 C178 1.339 . S
C177 H206 0.949 . S
C178 C177 1.339 . S
C178 C179 1.439 . S
C178 H207 0.950 . S
C179 N175 1.383 . S
C179 C178 1.439 . S
C179 C197 1.392 . S
N180 Co164 2.282 . S
N180 C183 1.332 . S
N180 C185 1.332 . S
C181 C182 1.386 . S
C181 C184 1.388 . S
C182 C181 1.386 . S
C182 C183 1.382 . S
C182 H208 0.950 . S
C183 N180 1.332 . S
C183 C182 1.382 . S
C183 H194 0.952 . S
C184 C181 1.388 . S
C184 C185 1.382 . S
C184 H209 0.950 . S
C185 N180 1.332 . S
C185 C184 1.382 . S
C185 H195 0.948 . S
N186 Co164 2.282 . S
N186 C190 1.332 . S
N186 C191 1.332 . S
C187 C188 1.388 . S
C187 C191 1.382 . S
C187 H210 0.950 . S
C188 C187 1.388 . S
C188 C189 1.386 . S
C189 C188 1.386 . S
C189 C190 1.382 . S
C189 H211 0.950 . S
C190 N186 1.332 . S
C190 C189 1.382 . S
C190 H192 0.952 . S
C191 N186 1.332 . S
C191 C187 1.382 . S
C191 H193 0.948 . S
H192 C190 0.952 . S
H193 C191 0.948 . S
H194 C183 0.952 . S
H195 C185 0.948 . S
C196 C162 1.395 . S
C196 C166 1.391 . S
C197 C159 1.389 . S
C197 C179 1.392 . S
C198 C169 1.392 . S
C198 C171 1.389 . S
C199 C174 1.395 . S
C199 C176 1.391 . S
H200 C160 0.951 . S
H201 C161 0.950 . S
H202 C167 0.949 . S
H203 C168 0.950 . S
H204 C172 0.951 . S
H205 C173 0.950 . S
H206 C177 0.949 . S
H207 C178 0.950 . S
H208 C182 0.950 . S
H209 C184 0.950 . S
H210 C187 0.950 . S
H211 C189 0.950 . S
C212 C213 1.443 . S
C212 N216 1.376 . S
C212 C250 1.389 . S
C213 C212 1.443 . S
C213 C214 1.340 . S
C213 H253 0.951 . S
C214 C213 1.340 . S
C214 C215 1.439 . S
C214 H254 0.950 . S
C215 C214 1.439 . S
C215 N216 1.374 . S
C215 C249 1.395 . S
N216 C212 1.376 . S
N216 C215 1.374 . S
N216 Co217 2.008 . S
Co217 N216 2.008 . S
Co217 N218 1.995 . S
Co217 N223 2.008 . S
Co217 N228 1.995 . S
Co217 N233 2.282 . S
Co217 N239 2.282 . S
N218 Co217 1.995 . S
N218 C219 1.376 . S
N218 C222 1.383 . S
C219 N218 1.376 . S
C219 C220 1.446 . S
C219 C249 1.391 . S
C220 C219 1.446 . S
C220 C221 1.339 . S
C220 H255 0.949 . S
C221 C220 1.339 . S
C221 C222 1.439 . S
C221 H256 0.950 . S
C222 N218 1.383 . S
C222 C221 1.439 . S
C222 C251 1.392 . S
N223 Co217 2.008 . S
N223 C224 1.376 . S
N223 C227 1.374 . S
C224 N223 1.376 . S
C224 C225 1.443 . S
C224 C251 1.389 . S
C225 C224 1.443 . S
C225 C226 1.340 . S
C225 H257 0.951 . S
C226 C225 1.340 . S
C226 C227 1.439 . S
C226 H258 0.950 . S
C227 N223 1.374 . S
C227 C226 1.439 . S
C227 C252 1.395 . S
N228 Co217 1.995 . S
N228 C229 1.376 . S
N228 C232 1.383 . S
C229 N228 1.376 . S
C229 C230 1.446 . S
C229 C252 1.391 . S
C230 C229 1.446 . S
C230 C231 1.339 . S
C230 H259 0.949 . S
C231 C230 1.339 . S
C231 C232 1.439 . S
C231 H260 0.950 . S
C232 N228 1.383 . S
C232 C231 1.439 . S
C232 C250 1.392 . S
N233 Co217 2.282 . S
N233 C236 1.332 . S
N233 C238 1.332 . S
C234 C235 1.386 . S
C234 C237 1.388 . S
C235 C234 1.386 . S
C235 C236 1.382 . S
C235 H261 0.950 . S
C236 N233 1.332 . S
C236 C235 1.382 . S
C236 H247 0.952 . S
C237 C234 1.388 . S
C237 C238 1.382 . S
C237 H262 0.950 . S
C238 N233 1.332 . S
C238 C237 1.382 . S
C238 H248 0.948 . S
N239 Co217 2.282 . S
N239 C243 1.332 . S
N239 C244 1.332 . S
C240 C241 1.388 . S
C240 C244 1.382 . S
C240 H263 0.950 . S
C241 C240 1.388 . S
C241 C242 1.386 . S
C242 C241 1.386 . S
C242 C243 1.382 . S
C242 H264 0.950 . S
C243 N239 1.332 . S
C243 C242 1.382 . S
C243 H245 0.952 . S
C244 N239 1.332 . S
C244 C240 1.382 . S
C244 H246 0.948 . S
H245 C243 0.952 . S
H246 C244 0.948 . S
H247 C236 0.952 . S
H248 C238 0.948 . S
C249 C215 1.395 . S
C249 C219 1.391 . S
C250 C212 1.389 . S
C250 C232 1.392 . S
C251 C222 1.392 . S
C251 C224 1.389 . S
C252 C227 1.395 . S
C252 C229 1.391 . S
H253 C213 0.951 . S
H254 C214 0.950 . S
H255 C220 0.949 . S
H256 C221 0.950 . S
H257 C225 0.951 . S
H258 C226 0.950 . S
H259 C230 0.949 . S
H260 C231 0.950 . S
H261 C235 0.950 . S
H262 C237 0.950 . S
H263 C240 0.950 . S
H264 C242 0.950 . S
C265 C266 1.443 . S
C265 N269 1.376 . S
C265 C303 1.389 . S
C266 C265 1.443 . S
C266 C267 1.340 . S
C266 H306 0.951 . S
C267 C266 1.340 . S
C267 C268 1.439 . S
C267 H307 0.950 . S
C268 C267 1.439 . S
C268 N269 1.374 . S
C268 C302 1.395 . S
N269 C265 1.376 . S
N269 C268 1.374 . S
N269 Co270 2.008 . S
Co270 N269 2.008 . S
Co270 N271 1.995 . S
Co270 N276 2.008 . S
Co270 N281 1.995 . S
Co270 N286 2.282 . S
Co270 N292 2.282 . S
N271 Co270 1.995 . S
N271 C272 1.376 . S
N271 C275 1.383 . S
C272 N271 1.376 . S
C272 C273 1.446 . S
C272 C302 1.391 . S
C273 C272 1.446 . S
C273 C274 1.339 . S
C273 H308 0.949 . S
C274 C273 1.339 . S
C274 C275 1.439 . S
C274 H309 0.950 . S
C275 N271 1.383 . S
C275 C274 1.439 . S
C275 C304 1.392 . S
N276 Co270 2.008 . S
N276 C277 1.376 . S
N276 C280 1.374 . S
C277 N276 1.376 . S
C277 C278 1.443 . S
C277 C304 1.389 . S
C278 C277 1.443 . S
C278 C279 1.340 . S
C278 H310 0.951 . S
C279 C278 1.340 . S
C279 C280 1.439 . S
C279 H311 0.950 . S
C280 N276 1.374 . S
C280 C279 1.439 . S
C280 C305 1.395 . S
N281 Co270 1.995 . S
N281 C282 1.376 . S
N281 C285 1.383 . S
C282 N281 1.376 . S
C282 C283 1.446 . S
C282 C305 1.391 . S
C283 C282 1.446 . S
C283 C284 1.339 . S
C283 H312 0.949 . S
C284 C283 1.339 . S
C284 C285 1.439 . S
C284 H313 0.950 . S
C285 N281 1.383 . S
C285 C284 1.439 . S
C285 C303 1.392 . S
N286 Co270 2.282 . S
N286 C289 1.332 . S
N286 C291 1.332 . S
C287 C288 1.386 . S
C287 C290 1.388 . S
C288 C287 1.386 . S
C288 C289 1.382 . S
C288 H314 0.950 . S
C289 N286 1.332 . S
C289 C288 1.382 . S
C289 H300 0.952 . S
C290 C287 1.388 . S
C290 C291 1.382 . S
C290 H315 0.950 . S
C291 N286 1.332 . S
C291 C290 1.382 . S
C291 H301 0.948 . S
N292 Co270 2.282 . S
N292 C296 1.332 . S
N292 C297 1.332 . S
C293 C294 1.388 . S
C293 C297 1.382 . S
C293 H316 0.950 . S
C294 C293 1.388 . S
C294 C295 1.386 . S
C295 C294 1.386 . S
C295 C296 1.382 . S
C295 H317 0.950 . S
C296 N292 1.332 . S
C296 C295 1.382 . S
C296 H298 0.952 . S
C297 N292 1.332 . S
C297 C293 1.382 . S
C297 H299 0.948 . S
H298 C296 0.952 . S
H299 C297 0.948 . S
H300 C289 0.952 . S
H301 C291 0.948 . S
C302 C268 1.395 . S
C302 C272 1.391 . S
C303 C265 1.389 . S
C303 C285 1.392 . S
C304 C275 1.392 . S
C304 C277 1.389 . S
C305 C280 1.395 . S
C305 C282 1.391 . S
H306 C266 0.951 . S
H307 C267 0.950 . S
H308 C273 0.949 . S
H309 C274 0.950 . S
H310 C278 0.951 . S
H311 C279 0.950 . S
H312 C283 0.949 . S
H313 C284 0.950 . S
H314 C288 0.950 . S
H315 C290 0.950 . S
H316 C293 0.950 . S
H317 C295 0.950 . S
C318 C319 1.443 . S
C318 N322 1.376 . S
C318 C356 1.389 . S
C319 C318 1.443 . S
C319 C320 1.340 . S
C319 H359 0.951 . S
C320 C319 1.340 . S
C320 C321 1.439 . S
C320 H360 0.950 . S
C321 C320 1.439 . S
C321 N322 1.374 . S
C321 C355 1.395 . S
N322 C318 1.376 . S
N322 C321 1.374 . S
N322 Co323 2.008 . S
Co323 N322 2.008 . S
Co323 N324 1.995 . S
Co323 N329 2.008 . S
Co323 N334 1.995 . S
Co323 N339 2.282 . S
Co323 N345 2.282 . S
N324 Co323 1.995 . S
N324 C325 1.376 . S
N324 C328 1.383 . S
C325 N324 1.376 . S
C325 C326 1.446 . S
C325 C355 1.391 . S
C326 C325 1.446 . S
C326 C327 1.339 . S
C326 H361 0.949 . S
C327 C326 1.339 . S
C327 C328 1.439 . S
C327 H362 0.950 . S
C328 N324 1.383 . S
C328 C327 1.439 . S
C328 C357 1.392 . S
N329 Co323 2.008 . S
N329 C330 1.376 . S
N329 C333 1.374 . S
C330 N329 1.376 . S
C330 C331 1.443 . S
C330 C357 1.389 . S
C331 C330 1.443 . S
C331 C332 1.340 . S
C331 H363 0.951 . S
C332 C331 1.340 . S
C332 C333 1.439 . S
C332 H364 0.950 . S
C333 N329 1.374 . S
C333 C332 1.439 . S
C333 C358 1.395 . S
N334 Co323 1.995 . S
N334 C335 1.376 . S
N334 C338 1.383 . S
C335 N334 1.376 . S
C335 C336 1.446 . S
C335 C358 1.391 . S
C336 C335 1.446 . S
C336 C337 1.339 . S
C336 H365 0.949 . S
C337 C336 1.339 . S
C337 C338 1.439 . S
C337 H366 0.950 . S
C338 N334 1.383 . S
C338 C337 1.439 . S
C338 C356 1.392 . S
N339 Co323 2.282 . S
N339 C342 1.332 . S
N339 C344 1.332 . S
C340 C341 1.386 . S
C340 C343 1.388 . S
C341 C340 1.386 . S
C341 C342 1.382 . S
C341 H367 0.950 . S
C342 N339 1.332 . S
C342 C341 1.382 . S
C342 H353 0.952 . S
C343 C340 1.388 . S
C343 C344 1.382 . S
C343 H368 0.950 . S
C344 N339 1.332 . S
C344 C343 1.382 . S
C344 H354 0.948 . S
N345 Co323 2.282 . S
N345 C349 1.332 . S
N345 C350 1.332 . S
C346 C347 1.388 . S
C346 C350 1.382 . S
C346 H369 0.950 . S
C347 C346 1.388 . S
C347 C348 1.386 . S
C348 C347 1.386 . S
C348 C349 1.382 . S
C348 H370 0.950 . S
C349 N345 1.332 . S
C349 C348 1.382 . S
C349 H351 0.952 . S
C350 N345 1.332 . S
C350 C346 1.382 . S
C350 H352 0.948 . S
H351 C349 0.952 . S
H352 C350 0.948 . S
H353 C342 0.952 . S
H354 C344 0.948 . S
C355 C321 1.395 . S
C355 C325 1.391 . S
C356 C318 1.389 . S
C356 C338 1.392 . S
C357 C328 1.392 . S
C357 C330 1.389 . S
C358 C333 1.395 . S
C358 C335 1.391 . S
H359 C319 0.951 . S
H360 C320 0.950 . S
H361 C326 0.949 . S
H362 C327 0.950 . S
H363 C331 0.951 . S
H364 C332 0.950 . S
H365 C336 0.949 . S
H366 C337 0.950 . S
H367 C341 0.950 . S
H368 C343 0.950 . S
H369 C346 0.950 . S
H370 C348 0.950 . S
C371 C372 1.443 . S
C371 N375 1.376 . S
C371 C409 1.389 . S
C372 C371 1.443 . S
C372 C373 1.340 . S
C372 H412 0.951 . S
C373 C372 1.340 . S
C373 C374 1.439 . S
C373 H413 0.950 . S
C374 C373 1.439 . S
C374 N375 1.374 . S
C374 C408 1.395 . S
N375 C371 1.376 . S
N375 C374 1.374 . S
N375 Co376 2.008 . S
Co376 N375 2.008 . S
Co376 N377 1.995 . S
Co376 N382 2.008 . S
Co376 N387 1.995 . S
Co376 N392 2.282 . S
Co376 N398 2.282 . S
N377 Co376 1.995 . S
N377 C378 1.376 . S
N377 C381 1.383 . S
C378 N377 1.376 . S
C378 C379 1.446 . S
C378 C408 1.391 . S
C379 C378 1.446 . S
C379 C380 1.339 . S
C379 H414 0.949 . S
C380 C379 1.339 . S
C380 C381 1.439 . S
C380 H415 0.950 . S
C381 N377 1.383 . S
C381 C380 1.439 . S
C381 C410 1.392 . S
N382 Co376 2.008 . S
N382 C383 1.376 . S
N382 C386 1.374 . S
C383 N382 1.376 . S
C383 C384 1.443 . S
C383 C410 1.389 . S
C384 C383 1.443 . S
C384 C385 1.340 . S
C384 H416 0.951 . S
C385 C384 1.340 . S
C385 C386 1.439 . S
C385 H417 0.950 . S
C386 N382 1.374 . S
C386 C385 1.439 . S
C386 C411 1.395 . S
N387 Co376 1.995 . S
N387 C388 1.376 . S
N387 C391 1.383 . S
C388 N387 1.376 . S
C388 C389 1.446 . S
C388 C411 1.391 . S
C389 C388 1.446 . S
C389 C390 1.339 . S
C389 H418 0.949 . S
C390 C389 1.339 . S
C390 C391 1.439 . S
C390 H419 0.950 . S
C391 N387 1.383 . S
C391 C390 1.439 . S
C391 C409 1.392 . S
N392 Co376 2.282 . S
N392 C395 1.332 . S
N392 C397 1.332 . S
C393 C394 1.386 . S
C393 C396 1.388 . S
C394 C393 1.386 . S
C394 C395 1.382 . S
C394 H420 0.950 . S
C395 N392 1.332 . S
C395 C394 1.382 . S
C395 H406 0.952 . S
C396 C393 1.388 . S
C396 C397 1.382 . S
C396 H421 0.950 . S
C397 N392 1.332 . S
C397 C396 1.382 . S
C397 H407 0.948 . S
N398 Co376 2.282 . S
N398 C402 1.332 . S
N398 C403 1.332 . S
C399 C400 1.388 . S
C399 C403 1.382 . S
C399 H422 0.950 . S
C400 C399 1.388 . S
C400 C401 1.386 . S
C401 C400 1.386 . S
C401 C402 1.382 . S
C401 H423 0.950 . S
C402 N398 1.332 . S
C402 C401 1.382 . S
C402 H404 0.952 . S
C403 N398 1.332 . S
C403 C399 1.382 . S
C403 H405 0.948 . S
H404 C402 0.952 . S
H405 C403 0.948 . S
H406 C395 0.952 . S
H407 C397 0.948 . S
C408 C374 1.395 . S
C408 C378 1.391 . S
C409 C371 1.389 . S
C409 C391 1.392 . S
C410 C381 1.392 . S
C410 C383 1.389 . S
C411 C386 1.395 . S
C411 C388 1.391 . S
H412 C372 0.951 . S
H413 C373 0.950 . S
H414 C379 0.949 . S
H415 C380 0.950 . S
H416 C384 0.951 . S
H417 C385 0.950 . S
H418 C389 0.949 . S
H419 C390 0.950 . S
H420 C394 0.950 . S
H421 C396 0.950 . S
H422 C399 0.950 . S
H423 C401 0.950 . S
C424 C425 1.443 . S
C424 N428 1.376 . S
C424 C462 1.389 . S
C425 C424 1.443 . S
C425 C426 1.340 . S
C425 H465 0.951 . S
C426 C425 1.340 . S
C426 C427 1.439 . S
C426 H466 0.950 . S
C427 C426 1.439 . S
C427 N428 1.374 . S
C427 C461 1.395 . S
N428 C424 1.376 . S
N428 C427 1.374 . S
N428 Co429 2.008 . S
Co429 N428 2.008 . S
Co429 N430 1.995 . S
Co429 N435 2.008 . S
Co429 N440 1.995 . S
Co429 N445 2.282 . S
Co429 N451 2.282 . S
N430 Co429 1.995 . S
N430 C431 1.376 . S
N430 C434 1.383 . S
C431 N430 1.376 . S
C431 C432 1.446 . S
C431 C461 1.391 . S
C432 C431 1.446 . S
C432 C433 1.339 . S
C432 H467 0.949 . S
C433 C432 1.339 . S
C433 C434 1.439 . S
C433 H468 0.950 . S
C434 N430 1.383 . S
C434 C433 1.439 . S
C434 C463 1.392 . S
N435 Co429 2.008 . S
N435 C436 1.376 . S
N435 C439 1.374 . S
C436 N435 1.376 . S
C436 C437 1.443 . S
C436 C463 1.389 . S
C437 C436 1.443 . S
C437 C438 1.340 . S
C437 H469 0.951 . S
C438 C437 1.340 . S
C438 C439 1.439 . S
C438 H470 0.950 . S
C439 N435 1.374 . S
C439 C438 1.439 . S
C439 C464 1.395 . S
N440 Co429 1.995 . S
N440 C441 1.376 . S
N440 C444 1.383 . S
C441 N440 1.376 . S
C441 C442 1.446 . S
C441 C464 1.391 . S
C442 C441 1.446 . S
C442 C443 1.339 . S
C442 H471 0.949 . S
C443 C442 1.339 . S
C443 C444 1.439 . S
C443 H472 0.950 . S
C444 N440 1.383 . S
C444 C443 1.439 . S
C444 C462 1.392 . S
N445 Co429 2.282 . S
N445 C448 1.332 . S
N445 C450 1.332 . S
C446 C447 1.386 . S
C446 C449 1.388 . S
C447 C446 1.386 . S
C447 C448 1.382 . S
C447 H473 0.950 . S
C448 N445 1.332 . S
C448 C447 1.382 . S
C448 H459 0.952 . S
C449 C446 1.388 . S
C449 C450 1.382 . S
C449 H474 0.950 . S
C450 N445 1.332 . S
C450 C449 1.382 . S
C450 H460 0.948 . S
N451 Co429 2.282 . S
N451 C455 1.332 . S
N451 C456 1.332 . S
C452 C453 1.388 . S
C452 C456 1.382 . S
C452 H475 0.950 . S
C453 C452 1.388 . S
C453 C454 1.386 . S
C454 C453 1.386 . S
C454 C455 1.382 . S
C454 H476 0.950 . S
C455 N451 1.332 . S
C455 C454 1.382 . S
C455 H457 0.952 . S
C456 N451 1.332 . S
C456 C452 1.382 . S
C456 H458 0.948 . S
H457 C455 0.952 . S
H458 C456 0.948 . S
H459 C448 0.952 . S
H460 C450 0.948 . S
C461 C427 1.395 . S
C461 C431 1.391 . S
C462 C424 1.389 . S
C462 C444 1.392 . S
C463 C434 1.392 . S
C463 C436 1.389 . S
C464 C439 1.395 . S
C464 C441 1.391 . S
H465 C425 0.951 . S
H466 C426 0.950 . S
H467 C432 0.949 . S
H468 C433 0.950 . S
H469 C437 0.951 . S
H470 C438 0.950 . S
H471 C442 0.949 . S
H472 C443 0.950 . S
H473 C447 0.950 . S
H474 C449 0.950 . S
H475 C452 0.950 . S
H476 C454 0.950 . S
C477 C478 1.443 . S
C477 N481 1.376 . S
C477 C515 1.389 . S
C478 C477 1.443 . S
C478 C479 1.340 . S
C478 H518 0.951 . S
C479 C478 1.340 . S
C479 C480 1.439 . S
C479 H519 0.950 . S
C480 C479 1.439 . S
C480 N481 1.374 . S
C480 C514 1.395 . S
N481 C477 1.376 . S
N481 C480 1.374 . S
N481 Co482 2.008 . S
Co482 N481 2.008 . S
Co482 N483 1.995 . S
Co482 N488 2.008 . S
Co482 N493 1.995 . S
Co482 N498 2.282 . S
Co482 N504 2.282 . S
N483 Co482 1.995 . S
N483 C484 1.376 . S
N483 C487 1.383 . S
C484 N483 1.376 . S
C484 C485 1.446 . S
C484 C514 1.391 . S
C485 C484 1.446 . S
C485 C486 1.339 . S
C485 H520 0.949 . S
C486 C485 1.339 . S
C486 C487 1.439 . S
C486 H521 0.950 . S
C487 N483 1.383 . S
C487 C486 1.439 . S
C487 C516 1.392 . S
N488 Co482 2.008 . S
N488 C489 1.376 . S
N488 C492 1.374 . S
C489 N488 1.376 . S
C489 C490 1.443 . S
C489 C516 1.389 . S
C490 C489 1.443 . S
C490 C491 1.340 . S
C490 H522 0.951 . S
C491 C490 1.340 . S
C491 C492 1.439 . S
C491 H523 0.950 . S
C492 N488 1.374 . S
C492 C491 1.439 . S
C492 C517 1.395 . S
N493 Co482 1.995 . S
N493 C494 1.376 . S
N493 C497 1.383 . S
C494 N493 1.376 . S
C494 C495 1.446 . S
C494 C517 1.391 . S
C495 C494 1.446 . S
C495 C496 1.339 . S
C495 H524 0.949 . S
C496 C495 1.339 . S
C496 C497 1.439 . S
C496 H525 0.950 . S
C497 N493 1.383 . S
C497 C496 1.439 . S
C497 C515 1.392 . S
N498 Co482 2.282 . S
N498 C501 1.332 . S
N498 C503 1.332 . S
C499 C500 1.386 . S
C499 C502 1.388 . S
C500 C499 1.386 . S
C500 C501 1.382 . S
C500 H526 0.950 . S
C501 N498 1.332 . S
C501 C500 1.382 . S
C501 H512 0.952 . S
C502 C499 1.388 . S
C502 C503 1.382 . S
C502 H527 0.950 . S
C503 N498 1.332 . S
C503 C502 1.382 . S
C503 H513 0.948 . S
N504 Co482 2.282 . S
N504 C508 1.332 . S
N504 C509 1.332 . S
C505 C506 1.388 . S
C505 C509 1.382 . S
C505 H528 0.950 . S
C506 C505 1.388 . S
C506 C507 1.386 . S
C507 C506 1.386 . S
C507 C508 1.382 . S
C507 H529 0.950 . S
C508 N504 1.332 . S
C508 C507 1.382 . S
C508 H510 0.952 . S
C509 N504 1.332 . S
C509 C505 1.382 . S
C509 H511 0.948 . S
H510 C508 0.952 . S
H511 C509 0.948 . S
H512 C501 0.952 . S
H513 C503 0.948 . S
C514 C480 1.395 . S
C514 C484 1.391 . S
C515 C477 1.389 . S
C515 C497 1.392 . S
C516 C487 1.392 . S
C516 C489 1.389 . S
C517 C492 1.395 . S
C517 C494 1.391 . S
H518 C478 0.951 . S
H519 C479 0.950 . S
H520 C485 0.949 . S
H521 C486 0.950 . S
H522 C490 0.951 . S
H523 C491 0.950 . S
H524 C495 0.949 . S
H525 C496 0.950 . S
H526 C500 0.950 . S
H527 C502 0.950 . S
H528 C505 0.950 . S
H529 C507 0.950 . S
C530 C531 1.443 . S
C530 N534 1.376 . S
C530 C568 1.389 . S
C531 C530 1.443 . S
C531 C532 1.340 . S
C531 H571 0.951 . S
C532 C531 1.340 . S
C532 C533 1.439 . S
C532 H572 0.950 . S
C533 C532 1.439 . S
C533 N534 1.374 . S
C533 C567 1.395 . S
N534 C530 1.376 . S
N534 C533 1.374 . S
N534 Co535 2.008 . S
Co535 N534 2.008 . S
Co535 N536 1.995 . S
Co535 N541 2.008 . S
Co535 N546 1.995 . S
Co535 N551 2.282 . S
Co535 N557 2.282 . S
N536 Co535 1.995 . S
N536 C537 1.376 . S
N536 C540 1.383 . S
C537 N536 1.376 . S
C537 C538 1.446 . S
C537 C567 1.391 . S
C538 C537 1.446 . S
C538 C539 1.339 . S
C538 H573 0.949 . S
C539 C538 1.339 . S
C539 C540 1.439 . S
C539 H574 0.950 . S
C540 N536 1.383 . S
C540 C539 1.439 . S
C540 C569 1.392 . S
N541 Co535 2.008 . S
N541 C542 1.376 . S
N541 C545 1.374 . S
C542 N541 1.376 . S
C542 C543 1.443 . S
C542 C569 1.389 . S
C543 C542 1.443 . S
C543 C544 1.340 . S
C543 H575 0.951 . S
C544 C543 1.340 . S
C544 C545 1.439 . S
C544 H576 0.950 . S
C545 N541 1.374 . S
C545 C544 1.439 . S
C545 C570 1.395 . S
N546 Co535 1.995 . S
N546 C547 1.376 . S
N546 C550 1.383 . S
C547 N546 1.376 . S
C547 C548 1.446 . S
C547 C570 1.391 . S
C548 C547 1.446 . S
C548 C549 1.339 . S
C548 H577 0.949 . S
C549 C548 1.339 . S
C549 C550 1.439 . S
C549 H578 0.950 . S
C550 N546 1.383 . S
C550 C549 1.439 . S
C550 C568 1.392 . S
N551 Co535 2.282 . S
N551 C554 1.332 . S
N551 C556 1.332 . S
C552 C553 1.386 . S
C552 C555 1.388 . S
C553 C552 1.386 . S
C553 C554 1.382 . S
C553 H579 0.950 . S
C554 N551 1.332 . S
C554 C553 1.382 . S
C554 H565 0.952 . S
C555 C552 1.388 . S
C555 C556 1.382 . S
C555 H580 0.950 . S
C556 N551 1.332 . S
C556 C555 1.382 . S
C556 H566 0.948 . S
N557 Co535 2.282 . S
N557 C561 1.332 . S
N557 C562 1.332 . S
C558 C559 1.388 . S
C558 C562 1.382 . S
C558 H581 0.950 . S
C559 C558 1.388 . S
C559 C560 1.386 . S
C560 C559 1.386 . S
C560 C561 1.382 . S
C560 H582 0.950 . S
C561 N557 1.332 . S
C561 C560 1.382 . S
C561 H563 0.952 . S
C562 N557 1.332 . S
C562 C558 1.382 . S
C562 H564 0.948 . S
H563 C561 0.952 . S
H564 C562 0.948 . S
H565 C554 0.952 . S
H566 C556 0.948 . S
C567 C533 1.395 . S
C567 C537 1.391 . S
C568 C530 1.389 . S
C568 C550 1.392 . S
C569 C540 1.392 . S
C569 C542 1.389 . S
C570 C545 1.395 . S
C570 C547 1.391 . S
H571 C531 0.951 . S
H572 C532 0.950 . S
H573 C538 0.949 . S
H574 C539 0.950 . S
H575 C543 0.951 . S
H576 C544 0.950 . S
H577 C548 0.949 . S
H578 C549 0.950 . S
H579 C553 0.950 . S
H580 C555 0.950 . S
H581 C558 0.950 . S
H582 C560 0.950 . S
C583 C584 1.443 . S
C583 N587 1.376 . S
C583 C621 1.389 . S
C584 C583 1.443 . S
C584 C585 1.340 . S
C584 H624 0.951 . S
C585 C584 1.340 . S
C585 C586 1.439 . S
C585 H625 0.950 . S
C586 C585 1.439 . S
C586 N587 1.374 . S
C586 C620 1.395 . S
N587 C583 1.376 . S
N587 C586 1.374 . S
N587 Co588 2.008 . S
Co588 N587 2.008 . S
Co588 N589 1.995 . S
Co588 N594 2.008 . S
Co588 N599 1.995 . S
Co588 N604 2.282 . S
Co588 N610 2.282 . S
N589 Co588 1.995 . S
N589 C590 1.376 . S
N589 C593 1.383 . S
C590 N589 1.376 . S
C590 C591 1.446 . S
C590 C620 1.391 . S
C591 C590 1.446 . S
C591 C592 1.339 . S
C591 H626 0.949 . S
C592 C591 1.339 . S
C592 C593 1.439 . S
C592 H627 0.950 . S
C593 N589 1.383 . S
C593 C592 1.439 . S
C593 C622 1.392 . S
N594 Co588 2.008 . S
N594 C595 1.376 . S
N594 C598 1.374 . S
C595 N594 1.376 . S
C595 C596 1.443 . S
C595 C622 1.389 . S
C596 C595 1.443 . S
C596 C597 1.340 . S
C596 H628 0.951 . S
C597 C596 1.340 . S
C597 C598 1.439 . S
C597 H629 0.950 . S
C598 N594 1.374 . S
C598 C597 1.439 . S
C598 C623 1.395 . S
N599 Co588 1.995 . S
N599 C600 1.376 . S
N599 C603 1.383 . S
C600 N599 1.376 . S
C600 C601 1.446 . S
C600 C623 1.391 . S
C601 C600 1.446 . S
C601 C602 1.339 . S
C601 H630 0.949 . S
C602 C601 1.339 . S
C602 C603 1.439 . S
C602 H631 0.950 . S
C603 N599 1.383 . S
C603 C602 1.439 . S
C603 C621 1.392 . S
N604 Co588 2.282 . S
N604 C607 1.332 . S
N604 C609 1.332 . S
C605 C606 1.386 . S
C605 C608 1.388 . S
C606 C605 1.386 . S
C606 C607 1.382 . S
C606 H632 0.950 . S
C607 N604 1.332 . S
C607 C606 1.382 . S
C607 H618 0.952 . S
C608 C605 1.388 . S
C608 C609 1.382 . S
C608 H633 0.950 . S
C609 N604 1.332 . S
C609 C608 1.382 . S
C609 H619 0.948 . S
N610 Co588 2.282 . S
N610 C614 1.332 . S
N610 C615 1.332 . S
C611 C612 1.388 . S
C611 C615 1.382 . S
C611 H634 0.950 . S
C612 C611 1.388 . S
C612 C613 1.386 . S
C613 C612 1.386 . S
C613 C614 1.382 . S
C613 H635 0.950 . S
C614 N610 1.332 . S
C614 C613 1.382 . S
C614 H616 0.952 . S
C615 N610 1.332 . S
C615 C611 1.382 . S
C615 H617 0.948 . S
H616 C614 0.952 . S
H617 C615 0.948 . S
H618 C607 0.952 . S
H619 C609 0.948 . S
C620 C586 1.395 . S
C620 C590 1.391 . S
C621 C583 1.389 . S
C621 C603 1.392 . S
C622 C593 1.392 . S
C622 C595 1.389 . S
C623 C598 1.395 . S
C623 C600 1.391 . S
H624 C584 0.951 . S
H625 C585 0.950 . S
H626 C591 0.949 . S
H627 C592 0.950 . S
H628 C596 0.951 . S
H629 C597 0.950 . S
H630 C601 0.949 . S
H631 C602 0.950 . S
H632 C606 0.950 . S
H633 C608 0.950 . S
H634 C611 0.950 . S
H635 C613 0.950 . S
C636 C637 1.443 . S
C636 N640 1.376 . S
C636 C674 1.389 . S
C637 C636 1.443 . S
C637 C638 1.340 . S
C637 H677 0.951 . S
C638 C637 1.340 . S
C638 C639 1.439 . S
C638 H678 0.950 . S
C639 C638 1.439 . S
C639 N640 1.374 . S
C639 C673 1.395 . S
N640 C636 1.376 . S
N640 C639 1.374 . S
N640 Co641 2.008 . S
Co641 N640 2.008 . S
Co641 N642 1.995 . S
Co641 N647 2.008 . S
Co641 N652 1.995 . S
Co641 N657 2.282 . S
Co641 N663 2.282 . S
N642 Co641 1.995 . S
N642 C643 1.376 . S
N642 C646 1.383 . S
C643 N642 1.376 . S
C643 C644 1.446 . S
C643 C673 1.391 . S
C644 C643 1.446 . S
C644 C645 1.339 . S
C644 H679 0.949 . S
C645 C644 1.339 . S
C645 C646 1.439 . S
C645 H680 0.950 . S
C646 N642 1.383 . S
C646 C645 1.439 . S
C646 C675 1.392 . S
N647 Co641 2.008 . S
N647 C648 1.376 . S
N647 C651 1.374 . S
C648 N647 1.376 . S
C648 C649 1.443 . S
C648 C675 1.389 . S
C649 C648 1.443 . S
C649 C650 1.340 . S
C649 H681 0.951 . S
C650 C649 1.340 . S
C650 C651 1.439 . S
C650 H682 0.950 . S
C651 N647 1.374 . S
C651 C650 1.439 . S
C651 C676 1.395 . S
N652 Co641 1.995 . S
N652 C653 1.376 . S
N652 C656 1.383 . S
C653 N652 1.376 . S
C653 C654 1.446 . S
C653 C676 1.391 . S
C654 C653 1.446 . S
C654 C655 1.339 . S
C654 H683 0.949 . S
C655 C654 1.339 . S
C655 C656 1.439 . S
C655 H684 0.950 . S
C656 N652 1.383 . S
C656 C655 1.439 . S
C656 C674 1.392 . S
N657 Co641 2.282 . S
N657 C660 1.332 . S
N657 C662 1.332 . S
C658 C659 1.386 . S
C658 C661 1.388 . S
C659 C658 1.386 . S
C659 C660 1.382 . S
C659 H685 0.950 . S
C660 N657 1.332 . S
C660 C659 1.382 . S
C660 H671 0.952 . S
C661 C658 1.388 . S
C661 C662 1.382 . S
C661 H686 0.950 . S
C662 N657 1.332 . S
C662 C661 1.382 . S
C662 H672 0.948 . S
N663 Co641 2.282 . S
N663 C667 1.332 . S
N663 C668 1.332 . S
C664 C665 1.388 . S
C664 C668 1.382 . S
C664 H687 0.950 . S
C665 C664 1.388 . S
C665 C666 1.386 . S
C666 C665 1.386 . S
C666 C667 1.382 . S
C666 H688 0.950 . S
C667 N663 1.332 . S
C667 C666 1.382 . S
C667 H669 0.952 . S
C668 N663 1.332 . S
C668 C664 1.382 . S
C668 H670 0.948 . S
H669 C667 0.952 . S
H670 C668 0.948 . S
H671 C660 0.952 . S
H672 C662 0.948 . S
C673 C639 1.395 . S
C673 C643 1.391 . S
C674 C636 1.389 . S
C674 C656 1.392 . S
C675 C646 1.392 . S
C675 C648 1.389 . S
C676 C651 1.395 . S
C676 C653 1.391 . S
H677 C637 0.951 . S
H678 C638 0.950 . S
H679 C644 0.949 . S
H680 C645 0.950 . S
H681 C649 0.951 . S
H682 C650 0.950 . S
H683 C654 0.949 . S
H684 C655 0.950 . S
H685 C659 0.950 . S
H686 C661 0.950 . S
H687 C664 0.950 . S
H688 C666 0.950 . S
C689 C690 1.443 . S
C689 N693 1.376 . S
C689 C727 1.389 . S
C690 C689 1.443 . S
C690 C691 1.340 . S
C690 H730 0.951 . S
C691 C690 1.340 . S
C691 C692 1.439 . S
C691 H731 0.950 . S
C692 C691 1.439 . S
C692 N693 1.374 . S
C692 C726 1.395 . S
N693 C689 1.376 . S
N693 C692 1.374 . S
N693 Co694 2.008 . S
Co694 N693 2.008 . S
Co694 N695 1.995 . S
Co694 N700 2.008 . S
Co694 N705 1.995 . S
Co694 N710 2.282 . S
Co694 N716 2.282 . S
N695 Co694 1.995 . S
N695 C696 1.376 . S
N695 C699 1.383 . S
C696 N695 1.376 . S
C696 C697 1.446 . S
C696 C726 1.391 . S
C697 C696 1.446 . S
C697 C698 1.339 . S
C697 H732 0.949 . S
C698 C697 1.339 . S
C698 C699 1.439 . S
C698 H733 0.950 . S
C699 N695 1.383 . S
C699 C698 1.439 . S
C699 C728 1.392 . S
N700 Co694 2.008 . S
N700 C701 1.376 . S
N700 C704 1.374 . S
C701 N700 1.376 . S
C701 C702 1.443 . S
C701 C728 1.389 . S
C702 C701 1.443 . S
C702 C703 1.340 . S
C702 H734 0.951 . S
C703 C702 1.340 . S
C703 C704 1.439 . S
C703 H735 0.950 . S
C704 N700 1.374 . S
C704 C703 1.439 . S
C704 C729 1.395 . S
N705 Co694 1.995 . S
N705 C706 1.376 . S
N705 C709 1.383 . S
C706 N705 1.376 . S
C706 C707 1.446 . S
C706 C729 1.391 . S
C707 C706 1.446 . S
C707 C708 1.339 . S
C707 H736 0.949 . S
C708 C707 1.339 . S
C708 C709 1.439 . S
C708 H737 0.950 . S
C709 N705 1.383 . S
C709 C708 1.439 . S
C709 C727 1.392 . S
N710 Co694 2.282 . S
N710 C713 1.332 . S
N710 C715 1.332 . S
C711 C712 1.386 . S
C711 C714 1.388 . S
C712 C711 1.386 . S
C712 C713 1.382 . S
C712 H738 0.950 . S
C713 N710 1.332 . S
C713 C712 1.382 . S
C713 H724 0.952 . S
C714 C711 1.388 . S
C714 C715 1.382 . S
C714 H739 0.950 . S
C715 N710 1.332 . S
C715 C714 1.382 . S
C715 H725 0.948 . S
N716 Co694 2.282 . S
N716 C720 1.332 . S
N716 C721 1.332 . S
C717 C718 1.388 . S
C717 C721 1.382 . S
C717 H740 0.950 . S
C718 C717 1.388 . S
C718 C719 1.386 . S
C719 C718 1.386 . S
C719 C720 1.382 . S
C719 H741 0.950 . S
C720 N716 1.332 . S
C720 C719 1.382 . S
C720 H722 0.952 . S
C721 N716 1.332 . S
C721 C717 1.382 . S
C721 H723 0.948 . S
H722 C720 0.952 . S
H723 C721 0.948 . S
H724 C713 0.952 . S
H725 C715 0.948 . S
C726 C692 1.395 . S
C726 C696 1.391 . S
C727 C689 1.389 . S
C727 C709 1.392 . S
C728 C699 1.392 . S
C728 C701 1.389 . S
C729 C704 1.395 . S
C729 C706 1.391 . S
H730 C690 0.951 . S
H731 C691 0.950 . S
H732 C697 0.949 . S
H733 C698 0.950 . S
H734 C702 0.951 . S
H735 C703 0.950 . S
H736 C707 0.949 . S
H737 C708 0.950 . S
H738 C712 0.950 . S
H739 C714 0.950 . S
H740 C717 0.950 . S
H741 C719 0.950 . S
C742 C743 1.443 . S
C742 N746 1.376 . S
C742 C780 1.389 . S
C743 C742 1.443 . S
C743 C744 1.340 . S
C743 H783 0.951 . S
C744 C743 1.340 . S
C744 C745 1.439 . S
C744 H784 0.950 . S
C745 C744 1.439 . S
C745 N746 1.374 . S
C745 C779 1.395 . S
N746 C742 1.376 . S
N746 C745 1.374 . S
N746 Co747 2.008 . S
Co747 N746 2.008 . S
Co747 N748 1.995 . S
Co747 N753 2.008 . S
Co747 N758 1.995 . S
Co747 N763 2.282 . S
Co747 N769 2.282 . S
N748 Co747 1.995 . S
N748 C749 1.376 . S
N748 C752 1.383 . S
C749 N748 1.376 . S
C749 C750 1.446 . S
C749 C779 1.391 . S
C750 C749 1.446 . S
C750 C751 1.339 . S
C750 H785 0.949 . S
C751 C750 1.339 . S
C751 C752 1.439 . S
C751 H786 0.950 . S
C752 N748 1.383 . S
C752 C751 1.439 . S
C752 C781 1.392 . S
N753 Co747 2.008 . S
N753 C754 1.376 . S
N753 C757 1.374 . S
C754 N753 1.376 . S
C754 C755 1.443 . S
C754 C781 1.389 . S
C755 C754 1.443 . S
C755 C756 1.340 . S
C755 H787 0.951 . S
C756 C755 1.340 . S
C756 C757 1.439 . S
C756 H788 0.950 . S
C757 N753 1.374 . S
C757 C756 1.439 . S
C757 C782 1.395 . S
N758 Co747 1.995 . S
N758 C759 1.376 . S
N758 C762 1.383 . S
C759 N758 1.376 . S
C759 C760 1.446 . S
C759 C782 1.391 . S
C760 C759 1.446 . S
C760 C761 1.339 . S
C760 H789 0.949 . S
C761 C760 1.339 . S
C761 C762 1.439 . S
C761 H790 0.950 . S
C762 N758 1.383 . S
C762 C761 1.439 . S
C762 C780 1.392 . S
N763 Co747 2.282 . S
N763 C766 1.332 . S
N763 C768 1.332 . S
C764 C765 1.386 . S
C764 C767 1.388 . S
C765 C764 1.386 . S
C765 C766 1.382 . S
C765 H791 0.950 . S
C766 N763 1.332 . S
C766 C765 1.382 . S
C766 H777 0.952 . S
C767 C764 1.388 . S
C767 C768 1.382 . S
C767 H792 0.950 . S
C768 N763 1.332 . S
C768 C767 1.382 . S
C768 H778 0.948 . S
N769 Co747 2.282 . S
N769 C773 1.332 . S
N769 C774 1.332 . S
C770 C771 1.388 . S
C770 C774 1.382 . S
C770 H793 0.950 . S
C771 C770 1.388 . S
C771 C772 1.386 . S
C772 C771 1.386 . S
C772 C773 1.382 . S
C772 H794 0.950 . S
C773 N769 1.332 . S
C773 C772 1.382 . S
C773 H775 0.952 . S
C774 N769 1.332 . S
C774 C770 1.382 . S
C774 H776 0.948 . S
H775 C773 0.952 . S
H776 C774 0.948 . S
H777 C766 0.952 . S
H778 C768 0.948 . S
C779 C745 1.395 . S
C779 C749 1.391 . S
C780 C742 1.389 . S
C780 C762 1.392 . S
C781 C752 1.392 . S
C781 C754 1.389 . S
C782 C757 1.395 . S
C782 C759 1.391 . S
H783 C743 0.951 . S
H784 C744 0.950 . S
H785 C750 0.949 . S
H786 C751 0.950 . S
H787 C755 0.951 . S
H788 C756 0.950 . S
H789 C760 0.949 . S
H790 C761 0.950 . S
H791 C765 0.950 . S
H792 C767 0.950 . S
H793 C770 0.950 . S
H794 C772 0.950 . S
C795 C796 1.443 . S
C795 N799 1.376 . S
C795 C833 1.389 . S
C796 C795 1.443 . S
C796 C797 1.340 . S
C796 H836 0.951 . S
C797 C796 1.340 . S
C797 C798 1.439 . S
C797 H837 0.950 . S
C798 C797 1.439 . S
C798 N799 1.374 . S
C798 C832 1.395 . S
N799 C795 1.376 . S
N799 C798 1.374 . S
N799 Co800 2.008 . S
Co800 N799 2.008 . S
Co800 N801 1.995 . S
Co800 N806 2.008 . S
Co800 N811 1.995 . S
Co800 N816 2.282 . S
Co800 N822 2.282 . S
N801 Co800 1.995 . S
N801 C802 1.376 . S
N801 C805 1.383 . S
C802 N801 1.376 . S
C802 C803 1.446 . S
C802 C832 1.391 . S
C803 C802 1.446 . S
C803 C804 1.339 . S
C803 H838 0.949 . S
C804 C803 1.339 . S
C804 C805 1.439 . S
C804 H839 0.950 . S
C805 N801 1.383 . S
C805 C804 1.439 . S
C805 C834 1.392 . S
N806 Co800 2.008 . S
N806 C807 1.376 . S
N806 C810 1.374 . S
C807 N806 1.376 . S
C807 C808 1.443 . S
C807 C834 1.389 . S
C808 C807 1.443 . S
C808 C809 1.340 . S
C808 H840 0.951 . S
C809 C808 1.340 . S
C809 C810 1.439 . S
C809 H841 0.950 . S
C810 N806 1.374 . S
C810 C809 1.439 . S
C810 C835 1.395 . S
N811 Co800 1.995 . S
N811 C812 1.376 . S
N811 C815 1.383 . S
C812 N811 1.376 . S
C812 C813 1.446 . S
C812 C835 1.391 . S
C813 C812 1.446 . S
C813 C814 1.339 . S
C813 H842 0.949 . S
C814 C813 1.339 . S
C814 C815 1.439 . S
C814 H843 0.950 . S
C815 N811 1.383 . S
C815 C814 1.439 . S
C815 C833 1.392 . S
N816 Co800 2.282 . S
N816 C819 1.332 . S
N816 C821 1.332 . S
C817 C818 1.386 . S
C817 C820 1.388 . S
C818 C817 1.386 . S
C818 C819 1.382 . S
C818 H844 0.950 . S
C819 N816 1.332 . S
C819 C818 1.382 . S
C819 H830 0.952 . S
C820 C817 1.388 . S
C820 C821 1.382 . S
C820 H845 0.950 . S
C821 N816 1.332 . S
C821 C820 1.382 . S
C821 H831 0.948 . S
N822 Co800 2.282 . S
N822 C826 1.332 . S
N822 C827 1.332 . S
C823 C824 1.388 . S
C823 C827 1.382 . S
C823 H846 0.950 . S
C824 C823 1.388 . S
C824 C825 1.386 . S
C825 C824 1.386 . S
C825 C826 1.382 . S
C825 H847 0.950 . S
C826 N822 1.332 . S
C826 C825 1.382 . S
C826 H828 0.952 . S
C827 N822 1.332 . S
C827 C823 1.382 . S
C827 H829 0.948 . S
H828 C826 0.952 . S
H829 C827 0.948 . S
H830 C819 0.952 . S
H831 C821 0.948 . S
C832 C798 1.395 . S
C832 C802 1.391 . S
C833 C795 1.389 . S
C833 C815 1.392 . S
C834 C805 1.392 . S
C834 C807 1.389 . S
C835 C810 1.395 . S
C835 C812 1.391 . S
H836 C796 0.951 . S
H837 C797 0.950 . S
H838 C803 0.949 . S
H839 C804 0.950 . S
H840 C808 0.951 . S
H841 C809 0.950 . S
H842 C813 0.949 . S
H843 C814 0.950 . S
H844 C818 0.950 . S
H845 C820 0.950 . S
H846 C823 0.950 . S
H847 C825 0.950 . S
C848 C849 1.443 . S
C848 N852 1.376 . S
C848 C886 1.389 . S
C849 C848 1.443 . S
C849 C850 1.340 . S
C849 H889 0.951 . S
C850 C849 1.340 . S
C850 C851 1.439 . S
C850 H890 0.950 . S
C851 C850 1.439 . S
C851 N852 1.374 . S
C851 C885 1.395 . S
N852 C848 1.376 . S
N852 C851 1.374 . S
N852 Co853 2.008 . S
Co853 N852 2.008 . S
Co853 N854 1.995 . S
Co853 N859 2.008 . S
Co853 N864 1.995 . S
Co853 N869 2.282 . S
Co853 N875 2.282 . S
N854 Co853 1.995 . S
N854 C855 1.376 . S
N854 C858 1.383 . S
C855 N854 1.376 . S
C855 C856 1.446 . S
C855 C885 1.391 . S
C856 C855 1.446 . S
C856 C857 1.339 . S
C856 H891 0.949 . S
C857 C856 1.339 . S
C857 C858 1.439 . S
C857 H892 0.950 . S
C858 N854 1.383 . S
C858 C857 1.439 . S
C858 C887 1.392 . S
N859 Co853 2.008 . S
N859 C860 1.376 . S
N859 C863 1.374 . S
C860 N859 1.376 . S
C860 C861 1.443 . S
C860 C887 1.389 . S
C861 C860 1.443 . S
C861 C862 1.340 . S
C861 H893 0.951 . S
C862 C861 1.340 . S
C862 C863 1.439 . S
C862 H894 0.950 . S
C863 N859 1.374 . S
C863 C862 1.439 . S
C863 C888 1.395 . S
N864 Co853 1.995 . S
N864 C865 1.376 . S
N864 C868 1.383 . S
C865 N864 1.376 . S
C865 C866 1.446 . S
C865 C888 1.391 . S
C866 C865 1.446 . S
C866 C867 1.339 . S
C866 H895 0.949 . S
C867 C866 1.339 . S
C867 C868 1.439 . S
C867 H896 0.950 . S
C868 N864 1.383 . S
C868 C867 1.439 . S
C868 C886 1.392 . S
N869 Co853 2.282 . S
N869 C872 1.332 . S
N869 C874 1.332 . S
C870 C871 1.386 . S
C870 C873 1.388 . S
C871 C870 1.386 . S
C871 C872 1.382 . S
C871 H897 0.950 . S
C872 N869 1.332 . S
C872 C871 1.382 . S
C872 H883 0.952 . S
C873 C870 1.388 . S
C873 C874 1.382 . S
C873 H898 0.950 . S
C874 N869 1.332 . S
C874 C873 1.382 . S
C874 H884 0.948 . S
N875 Co853 2.282 . S
N875 C879 1.332 . S
N875 C880 1.332 . S
C876 C877 1.388 . S
C876 C880 1.382 . S
C876 H899 0.950 . S
C877 C876 1.388 . S
C877 C878 1.386 . S
C878 C877 1.386 . S
C878 C879 1.382 . S
C878 H900 0.950 . S
C879 N875 1.332 . S
C879 C878 1.382 . S
C879 H881 0.952 . S
C880 N875 1.332 . S
C880 C876 1.382 . S
C880 H882 0.948 . S
H881 C879 0.952 . S
H882 C880 0.948 . S
H883 C872 0.952 . S
H884 C874 0.948 . S
C885 C851 1.395 . S
C885 C855 1.391 . S
C886 C848 1.389 . S
C886 C868 1.392 . S
C887 C858 1.392 . S
C887 C860 1.389 . S
C888 C863 1.395 . S
C888 C865 1.391 . S
H889 C849 0.951 . S
H890 C850 0.950 . S
H891 C856 0.949 . S
H892 C857 0.950 . S
H893 C861 0.951 . S
H894 C862 0.950 . S
H895 C866 0.949 . S
H896 C867 0.950 . S
H897 C871 0.950 . S
H898 C873 0.950 . S
H899 C876 0.950 . S
H900 C878 0.950 . S
C901 C902 1.443 . S
C901 N905 1.376 . S
C901 C939 1.389 . S
C902 C901 1.443 . S
C902 C903 1.340 . S
C902 H942 0.951 . S
C903 C902 1.340 . S
C903 C904 1.439 . S
C903 H943 0.950 . S
C904 C903 1.439 . S
C904 N905 1.374 . S
C904 C938 1.395 . S
N905 C901 1.376 . S
N905 C904 1.374 . S
N905 Co906 2.008 . S
Co906 N905 2.008 . S
Co906 N907 1.995 . S
Co906 N912 2.008 . S
Co906 N917 1.995 . S
Co906 N922 2.282 . S
Co906 N928 2.282 . S
N907 Co906 1.995 . S
N907 C908 1.376 . S
N907 C911 1.383 . S
C908 N907 1.376 . S
C908 C909 1.446 . S
C908 C938 1.391 . S
C909 C908 1.446 . S
C909 C910 1.339 . S
C909 H944 0.949 . S
C910 C909 1.339 . S
C910 C911 1.439 . S
C910 H945 0.950 . S
C911 N907 1.383 . S
C911 C910 1.439 . S
C911 C940 1.392 . S
N912 Co906 2.008 . S
N912 C913 1.376 . S
N912 C916 1.374 . S
C913 N912 1.376 . S
C913 C914 1.443 . S
C913 C940 1.389 . S
C914 C913 1.443 . S
C914 C915 1.340 . S
C914 H946 0.951 . S
C915 C914 1.340 . S
C915 C916 1.439 . S
C915 H947 0.950 . S
C916 N912 1.374 . S
C916 C915 1.439 . S
C916 C941 1.395 . S
N917 Co906 1.995 . S
N917 C918 1.376 . S
N917 C921 1.383 . S
C918 N917 1.376 . S
C918 C919 1.446 . S
C918 C941 1.391 . S
C919 C918 1.446 . S
C919 C920 1.339 . S
C919 H948 0.949 . S
C920 C919 1.339 . S
C920 C921 1.439 . S
C920 H949 0.950 . S
C921 N917 1.383 . S
C921 C920 1.439 . S
C921 C939 1.392 . S
N922 Co906 2.282 . S
N922 C925 1.332 . S
N922 C927 1.332 . S
C923 C924 1.386 . S
C923 C926 1.388 . S
C924 C923 1.386 . S
C924 C925 1.382 . S
C924 H950 0.950 . S
C925 N922 1.332 . S
C925 C924 1.382 . S
C925 H936 0.952 . S
C926 C923 1.388 . S
C926 C927 1.382 . S
C926 H951 0.950 . S
C927 N922 1.332 . S
C927 C926 1.382 . S
C927 H937 0.948 . S
N928 Co906 2.282 . S
N928 C932 1.332 . S
N928 C933 1.332 . S
C929 C930 1.388 . S
C929 C933 1.382 . S
C929 H952 0.950 . S
C930 C929 1.388 . S
C930 C931 1.386 . S
C931 C930 1.386 . S
C931 C932 1.382 . S
C931 H953 0.950 . S
C932 N928 1.332 . S
C932 C931 1.382 . S
C932 H934 0.952 . S
C933 N928 1.332 . S
C933 C929 1.382 . S
C933 H935 0.948 . S
H934 C932 0.952 . S
H935 C933 0.948 . S
H936 C925 0.952 . S
H937 C927 0.948 . S
C938 C904 1.395 . S
C938 C908 1.391 . S
C939 C901 1.389 . S
C939 C921 1.392 . S
C940 C911 1.392 . S
C940 C913 1.389 . S
C941 C916 1.395 . S
C941 C918 1.391 . S
H942 C902 0.951 . S
H943 C903 0.950 . S
H944 C909 0.949 . S
H945 C910 0.950 . S
H946 C914 0.951 . S
H947 C915 0.950 . S
H948 C919 0.949 . S
H949 C920 0.950 . S
H950 C924 0.950 . S
H951 C926 0.950 . S
H952 C929 0.950 . S
H953 C931 0.950 . S
C954 C955 1.443 . S
C954 N958 1.376 . S
C954 C992 1.389 . S
C955 C954 1.443 . S
C955 C956 1.340 . S
C955 H995 0.951 . S
C956 C955 1.340 . S
C956 C957 1.439 . S
C956 H996 0.950 . S
C957 C956 1.439 . S
C957 N958 1.374 . S
C957 C991 1.395 . S
N958 C954 1.376 . S
N958 C957 1.374 . S
N958 Co959 2.008 . S
Co959 N958 2.008 . S
Co959 N960 1.995 . S
Co959 N965 2.008 . S
Co959 N970 1.995 . S
Co959 N975 2.282 . S
Co959 N981 2.282 . S
N960 Co959 1.995 . S
N960 C961 1.376 . S
N960 C964 1.383 . S
C961 N960 1.376 . S
C961 C962 1.446 . S
C961 C991 1.391 . S
C962 C961 1.446 . S
C962 C963 1.339 . S
C962 H997 0.949 . S
C963 C962 1.339 . S
C963 C964 1.439 . S
C963 H998 0.950 . S
C964 N960 1.383 . S
C964 C963 1.439 . S
C964 C993 1.392 . S
N965 Co959 2.008 . S
N965 C966 1.376 . S
N965 C969 1.374 . S
C966 N965 1.376 . S
C966 C967 1.443 . S
C966 C993 1.389 . S
C967 C966 1.443 . S
C967 C968 1.340 . S
C967 H999 0.951 . S
C968 C967 1.340 . S
C968 C969 1.439 . S
C968 H1000 0.950 . S
C969 N965 1.374 . S
C969 C968 1.439 . S
C969 C994 1.395 . S
N970 Co959 1.995 . S
N970 C971 1.376 . S
N970 C974 1.383 . S
C971 N970 1.376 . S
C971 C972 1.446 . S
C971 C994 1.391 . S
C972 C971 1.446 . S
C972 C973 1.339 . S
C972 H1001 0.949 . S
C973 C972 1.339 . S
C973 C974 1.439 . S
C973 H1002 0.950 . S
C974 N970 1.383 . S
C974 C973 1.439 . S
C974 C992 1.392 . S
N975 Co959 2.282 . S
N975 C978 1.332 . S
N975 C980 1.332 . S
C976 C977 1.386 . S
C976 C979 1.388 . S
C977 C976 1.386 . S
C977 C978 1.382 . S
C977 H1003 0.950 . S
C978 N975 1.332 . S
C978 C977 1.382 . S
C978 H989 0.952 . S
C979 C976 1.388 . S
C979 C980 1.382 . S
C979 H1004 0.950 . S
C980 N975 1.332 . S
C980 C979 1.382 . S
C980 H990 0.948 . S
N981 Co959 2.282 . S
N981 C985 1.332 . S
N981 C986 1.332 . S
C982 C983 1.388 . S
C982 C986 1.382 . S
C982 H1005 0.950 . S
C983 C982 1.388 . S
C983 C984 1.386 . S
C984 C983 1.386 . S
C984 C985 1.382 . S
C984 H1006 0.950 . S
C985 N981 1.332 . S
C985 C984 1.382 . S
C985 H987 0.952 . S
C986 N981 1.332 . S
C986 C982 1.382 . S
C986 H988 0.948 . S
H987 C985 0.952 . S
H988 C986 0.948 . S
H989 C978 0.952 . S
H990 C980 0.948 . S
C991 C957 1.395 . S
C991 C961 1.391 . S
C992 C954 1.389 . S
C992 C974 1.392 . S
C993 C964 1.392 . S
C993 C966 1.389 . S
C994 C969 1.395 . S
C994 C971 1.391 . S
H995 C955 0.951 . S
H996 C956 0.950 . S
H997 C962 0.949 . S
H998 C963 0.950 . S
H999 C967 0.951 . S
H1000 C968 0.950 . S
H1001 C972 0.949 . S
H1002 C973 0.950 . S
H1003 C977 0.950 . S
H1004 C979 0.950 . S
H1005 C982 0.950 . S
H1006 C984 0.950 . S
C1007 C1008 1.443 . S
C1007 N1011 1.376 . S
C1007 C1045 1.389 . S
C1008 C1007 1.443 . S
C1008 C1009 1.340 . S
C1008 H1048 0.951 . S
C1009 C1008 1.340 . S
C1009 C1010 1.439 . S
C1009 H1049 0.950 . S
C1010 C1009 1.439 . S
C1010 N1011 1.374 . S
C1010 C1044 1.395 . S
N1011 C1007 1.376 . S
N1011 C1010 1.374 . S
N1011 Co1012 2.008 . S
Co1012 N1011 2.008 . S
Co1012 N1013 1.995 . S
Co1012 N1018 2.008 . S
Co1012 N1023 1.995 . S
Co1012 N1028 2.282 . S
Co1012 N1034 2.282 . S
N1013 Co1012 1.995 . S
N1013 C1014 1.376 . S
N1013 C1017 1.383 . S
C1014 N1013 1.376 . S
C1014 C1015 1.446 . S
C1014 C1044 1.391 . S
C1015 C1014 1.446 . S
C1015 C1016 1.339 . S
C1015 H1050 0.949 . S
C1016 C1015 1.339 . S
C1016 C1017 1.439 . S
C1016 H1051 0.950 . S
C1017 N1013 1.383 . S
C1017 C1016 1.439 . S
C1017 C1046 1.392 . S
N1018 Co1012 2.008 . S
N1018 C1019 1.376 . S
N1018 C1022 1.374 . S
C1019 N1018 1.376 . S
C1019 C1020 1.443 . S
C1019 C1046 1.389 . S
C1020 C1019 1.443 . S
C1020 C1021 1.340 . S
C1020 H1052 0.951 . S
C1021 C1020 1.340 . S
C1021 C1022 1.439 . S
C1021 H1053 0.950 . S
C1022 N1018 1.374 . S
C1022 C1021 1.439 . S
C1022 C1047 1.395 . S
N1023 Co1012 1.995 . S
N1023 C1024 1.376 . S
N1023 C1027 1.383 . S
C1024 N1023 1.376 . S
C1024 C1025 1.446 . S
C1024 C1047 1.391 . S
C1025 C1024 1.446 . S
C1025 C1026 1.339 . S
C1025 H1054 0.949 . S
C1026 C1025 1.339 . S
C1026 C1027 1.439 . S
C1026 H1055 0.950 . S
C1027 N1023 1.383 . S
C1027 C1026 1.439 . S
C1027 C1045 1.392 . S
N1028 Co1012 2.282 . S
N1028 C1031 1.332 . S
N1028 C1033 1.332 . S
C1029 C1030 1.386 . S
C1029 C1032 1.388 . S
C1030 C1029 1.386 . S
C1030 C1031 1.382 . S
C1030 H1056 0.950 . S
C1031 N1028 1.332 . S
C1031 C1030 1.382 . S
C1031 H1042 0.952 . S
C1032 C1029 1.388 . S
C1032 C1033 1.382 . S
C1032 H1057 0.950 . S
C1033 N1028 1.332 . S
C1033 C1032 1.382 . S
C1033 H1043 0.948 . S
N1034 Co1012 2.282 . S
N1034 C1038 1.332 . S
N1034 C1039 1.332 . S
C1035 C1036 1.388 . S
C1035 C1039 1.382 . S
C1035 H1058 0.950 . S
C1036 C1035 1.388 . S
C1036 C1037 1.386 . S
C1037 C1036 1.386 . S
C1037 C1038 1.382 . S
C1037 H1059 0.950 . S
C1038 N1034 1.332 . S
C1038 C1037 1.382 . S
C1038 H1040 0.952 . S
C1039 N1034 1.332 . S
C1039 C1035 1.382 . S
C1039 H1041 0.948 . S
H1040 C1038 0.952 . S
H1041 C1039 0.948 . S
H1042 C1031 0.952 . S
H1043 C1033 0.948 . S
C1044 C1010 1.395 . S
C1044 C1014 1.391 . S
C1045 C1007 1.389 . S
C1045 C1027 1.392 . S
C1046 C1017 1.392 . S
C1046 C1019 1.389 . S
C1047 C1022 1.395 . S
C1047 C1024 1.391 . S
H1048 C1008 0.951 . S
H1049 C1009 0.950 . S
H1050 C1015 0.949 . S
H1051 C1016 0.950 . S
H1052 C1020 0.951 . S
H1053 C1021 0.950 . S
H1054 C1025 0.949 . S
H1055 C1026 0.950 . S
H1056 C1030 0.950 . S
H1057 C1032 0.950 . S
H1058 C1035 0.950 . S
H1059 C1037 0.950 . S
C1060 C1061 1.443 . S
C1060 N1064 1.376 . S
C1060 C1098 1.389 . S
C1061 C1060 1.443 . S
C1061 C1062 1.340 . S
C1061 H1101 0.951 . S
C1062 C1061 1.340 . S
C1062 C1063 1.439 . S
C1062 H1102 0.950 . S
C1063 C1062 1.439 . S
C1063 N1064 1.374 . S
C1063 C1097 1.395 . S
N1064 C1060 1.376 . S
N1064 C1063 1.374 . S
N1064 Co1065 2.008 . S
Co1065 N1064 2.008 . S
Co1065 N1066 1.995 . S
Co1065 N1071 2.008 . S
Co1065 N1076 1.995 . S
Co1065 N1081 2.282 . S
Co1065 N1087 2.282 . S
N1066 Co1065 1.995 . S
N1066 C1067 1.376 . S
N1066 C1070 1.383 . S
C1067 N1066 1.376 . S
C1067 C1068 1.446 . S
C1067 C1097 1.391 . S
C1068 C1067 1.446 . S
C1068 C1069 1.339 . S
C1068 H1103 0.949 . S
C1069 C1068 1.339 . S
C1069 C1070 1.439 . S
C1069 H1104 0.950 . S
C1070 N1066 1.383 . S
C1070 C1069 1.439 . S
C1070 C1099 1.392 . S
N1071 Co1065 2.008 . S
N1071 C1072 1.376 . S
N1071 C1075 1.374 . S
C1072 N1071 1.376 . S
C1072 C1073 1.443 . S
C1072 C1099 1.389 . S
C1073 C1072 1.443 . S
C1073 C1074 1.340 . S
C1073 H1105 0.951 . S
C1074 C1073 1.340 . S
C1074 C1075 1.439 . S
C1074 H1106 0.950 . S
C1075 N1071 1.374 . S
C1075 C1074 1.439 . S
C1075 C1100 1.395 . S
N1076 Co1065 1.995 . S
N1076 C1077 1.376 . S
N1076 C1080 1.383 . S
C1077 N1076 1.376 . S
C1077 C1078 1.446 . S
C1077 C1100 1.391 . S
C1078 C1077 1.446 . S
C1078 C1079 1.339 . S
C1078 H1107 0.949 . S
C1079 C1078 1.339 . S
C1079 C1080 1.439 . S
C1079 H1108 0.950 . S
C1080 N1076 1.383 . S
C1080 C1079 1.439 . S
C1080 C1098 1.392 . S
N1081 Co1065 2.282 . S
N1081 C1084 1.332 . S
N1081 C1086 1.332 . S
C1082 C1083 1.386 . S
C1082 C1085 1.388 . S
C1083 C1082 1.386 . S
C1083 C1084 1.382 . S
C1083 H1109 0.950 . S
C1084 N1081 1.332 . S
C1084 C1083 1.382 . S
C1084 H1095 0.952 . S
C1085 C1082 1.388 . S
C1085 C1086 1.382 . S
C1085 H1110 0.950 . S
C1086 N1081 1.332 . S
C1086 C1085 1.382 . S
C1086 H1096 0.948 . S
N1087 Co1065 2.282 . S
N1087 C1091 1.332 . S
N1087 C1092 1.332 . S
C1088 C1089 1.388 . S
C1088 C1092 1.382 . S
C1088 H1111 0.950 . S
C1089 C1088 1.388 . S
C1089 C1090 1.386 . S
C1090 C1089 1.386 . S
C1090 C1091 1.382 . S
C1090 H1112 0.950 . S
C1091 N1087 1.332 . S
C1091 C1090 1.382 . S
C1091 H1093 0.952 . S
C1092 N1087 1.332 . S
C1092 C1088 1.382 . S
C1092 H1094 0.948 . S
H1093 C1091 0.952 . S
H1094 C1092 0.948 . S
H1095 C1084 0.952 . S
H1096 C1086 0.948 . S
C1097 C1063 1.395 . S
C1097 C1067 1.391 . S
C1098 C1060 1.389 . S
C1098 C1080 1.392 . S
C1099 C1070 1.392 . S
C1099 C1072 1.389 . S
C1100 C1075 1.395 . S
C1100 C1077 1.391 . S
H1101 C1061 0.951 . S
H1102 C1062 0.950 . S
H1103 C1068 0.949 . S
H1104 C1069 0.950 . S
H1105 C1073 0.951 . S
H1106 C1074 0.950 . S
H1107 C1078 0.949 . S
H1108 C1079 0.950 . S
H1109 C1083 0.950 . S
H1110 C1085 0.950 . S
H1111 C1088 0.950 . S
H1112 C1090 0.950 . S
C1113 C1114 1.443 . S
C1113 N1117 1.376 . S
C1113 C1151 1.389 . S
C1114 C1113 1.443 . S
C1114 C1115 1.340 . S
C1114 H1154 0.951 . S
C1115 C1114 1.340 . S
C1115 C1116 1.439 . S
C1115 H1155 0.950 . S
C1116 C1115 1.439 . S
C1116 N1117 1.374 . S
C1116 C1150 1.395 . S
N1117 C1113 1.376 . S
N1117 C1116 1.374 . S
N1117 Co1118 2.008 . S
Co1118 N1117 2.008 . S
Co1118 N1119 1.995 . S
Co1118 N1124 2.008 . S
Co1118 N1129 1.995 . S
Co1118 N1134 2.282 . S
Co1118 N1140 2.282 . S
N1119 Co1118 1.995 . S
N1119 C1120 1.376 . S
N1119 C1123 1.383 . S
C1120 N1119 1.376 . S
C1120 C1121 1.446 . S
C1120 C1150 1.391 . S
C1121 C1120 1.446 . S
C1121 C1122 1.339 . S
C1121 H1156 0.949 . S
C1122 C1121 1.339 . S
C1122 C1123 1.439 . S
C1122 H1157 0.950 . S
C1123 N1119 1.383 . S
C1123 C1122 1.439 . S
C1123 C1152 1.392 . S
N1124 Co1118 2.008 . S
N1124 C1125 1.376 . S
N1124 C1128 1.374 . S
C1125 N1124 1.376 . S
C1125 C1126 1.443 . S
C1125 C1152 1.389 . S
C1126 C1125 1.443 . S
C1126 C1127 1.340 . S
C1126 H1158 0.951 . S
C1127 C1126 1.340 . S
C1127 C1128 1.439 . S
C1127 H1159 0.950 . S
C1128 N1124 1.374 . S
C1128 C1127 1.439 . S
C1128 C1153 1.395 . S
N1129 Co1118 1.995 . S
N1129 C1130 1.376 . S
N1129 C1133 1.383 . S
C1130 N1129 1.376 . S
C1130 C1131 1.446 . S
C1130 C1153 1.391 . S
C1131 C1130 1.446 . S
C1131 C1132 1.339 . S
C1131 H1160 0.949 . S
C1132 C1131 1.339 . S
C1132 C1133 1.439 . S
C1132 H1161 0.950 . S
C1133 N1129 1.383 . S
C1133 C1132 1.439 . S
C1133 C1151 1.392 . S
N1134 Co1118 2.282 . S
N1134 C1137 1.332 . S
N1134 C1139 1.332 . S
C1135 C1136 1.386 . S
C1135 C1138 1.388 . S
C1136 C1135 1.386 . S
C1136 C1137 1.382 . S
C1136 H1162 0.950 . S
C1137 N1134 1.332 . S
C1137 C1136 1.382 . S
C1137 H1148 0.952 . S
C1138 C1135 1.388 . S
C1138 C1139 1.382 . S
C1138 H1163 0.950 . S
C1139 N1134 1.332 . S
C1139 C1138 1.382 . S
C1139 H1149 0.948 . S
N1140 Co1118 2.282 . S
N1140 C1144 1.332 . S
N1140 C1145 1.332 . S
C1141 C1142 1.388 . S
C1141 C1145 1.382 . S
C1141 H1164 0.950 . S
C1142 C1141 1.388 . S
C1142 C1143 1.386 . S
C1143 C1142 1.386 . S
C1143 C1144 1.382 . S
C1143 H1165 0.950 . S
C1144 N1140 1.332 . S
C1144 C1143 1.382 . S
C1144 H1146 0.952 . S
C1145 N1140 1.332 . S
C1145 C1141 1.382 . S
C1145 H1147 0.948 . S
H1146 C1144 0.952 . S
H1147 C1145 0.948 . S
H1148 C1137 0.952 . S
H1149 C1139 0.948 . S
C1150 C1116 1.395 . S
C1150 C1120 1.391 . S
C1151 C1113 1.389 . S
C1151 C1133 1.392 . S
C1152 C1123 1.392 . S
C1152 C1125 1.389 . S
C1153 C1128 1.395 . S
C1153 C1130 1.391 . S
H1154 C1114 0.951 . S
H1155 C1115 0.950 . S
H1156 C1121 0.949 . S
H1157 C1122 0.950 . S
H1158 C1126 0.951 . S
H1159 C1127 0.950 . S
H1160 C1131 0.949 . S
H1161 C1132 0.950 . S
H1162 C1136 0.950 . S
H1163 C1138 0.950 . S
H1164 C1141 0.950 . S
H1165 C1143 0.950 . S
C1166 C1167 1.443 . S
C1166 N1170 1.376 . S
C1166 C1204 1.389 . S
C1167 C1166 1.443 . S
C1167 C1168 1.340 . S
C1167 H1207 0.951 . S
C1168 C1167 1.340 . S
C1168 C1169 1.439 . S
C1168 H1208 0.950 . S
C1169 C1168 1.439 . S
C1169 N1170 1.374 . S
C1169 C1203 1.395 . S
N1170 C1166 1.376 . S
N1170 C1169 1.374 . S
N1170 Co1171 2.008 . S
Co1171 N1170 2.008 . S
Co1171 N1172 1.995 . S
Co1171 N1177 2.008 . S
Co1171 N1182 1.995 . S
Co1171 N1187 2.282 . S
Co1171 N1193 2.282 . S
N1172 Co1171 1.995 . S
N1172 C1173 1.376 . S
N1172 C1176 1.383 . S
C1173 N1172 1.376 . S
C1173 C1174 1.446 . S
C1173 C1203 1.391 . S
C1174 C1173 1.446 . S
C1174 C1175 1.339 . S
C1174 H1209 0.949 . S
C1175 C1174 1.339 . S
C1175 C1176 1.439 . S
C1175 H1210 0.950 . S
C1176 N1172 1.383 . S
C1176 C1175 1.439 . S
C1176 C1205 1.392 . S
N1177 Co1171 2.008 . S
N1177 C1178 1.376 . S
N1177 C1181 1.374 . S
C1178 N1177 1.376 . S
C1178 C1179 1.443 . S
C1178 C1205 1.389 . S
C1179 C1178 1.443 . S
C1179 C1180 1.340 . S
C1179 H1211 0.951 . S
C1180 C1179 1.340 . S
C1180 C1181 1.439 . S
C1180 H1212 0.950 . S
C1181 N1177 1.374 . S
C1181 C1180 1.439 . S
C1181 C1206 1.395 . S
N1182 Co1171 1.995 . S
N1182 C1183 1.376 . S
N1182 C1186 1.383 . S
C1183 N1182 1.376 . S
C1183 C1184 1.446 . S
C1183 C1206 1.391 . S
C1184 C1183 1.446 . S
C1184 C1185 1.339 . S
C1184 H1213 0.949 . S
C1185 C1184 1.339 . S
C1185 C1186 1.439 . S
C1185 H1214 0.950 . S
C1186 N1182 1.383 . S
C1186 C1185 1.439 . S
C1186 C1204 1.392 . S
N1187 Co1171 2.282 . S
N1187 C1190 1.332 . S
N1187 C1192 1.332 . S
C1188 C1189 1.386 . S
C1188 C1191 1.388 . S
C1189 C1188 1.386 . S
C1189 C1190 1.382 . S
C1189 H1215 0.950 . S
C1190 N1187 1.332 . S
C1190 C1189 1.382 . S
C1190 H1201 0.952 . S
C1191 C1188 1.388 . S
C1191 C1192 1.382 . S
C1191 H1216 0.950 . S
C1192 N1187 1.332 . S
C1192 C1191 1.382 . S
C1192 H1202 0.948 . S
N1193 Co1171 2.282 . S
N1193 C1197 1.332 . S
N1193 C1198 1.332 . S
C1194 C1195 1.388 . S
C1194 C1198 1.382 . S
C1194 H1217 0.950 . S
C1195 C1194 1.388 . S
C1195 C1196 1.386 . S
C1196 C1195 1.386 . S
C1196 C1197 1.382 . S
C1196 H1218 0.950 . S
C1197 N1193 1.332 . S
C1197 C1196 1.382 . S
C1197 H1199 0.952 . S
C1198 N1193 1.332 . S
C1198 C1194 1.382 . S
C1198 H1200 0.948 . S
H1199 C1197 0.952 . S
H1200 C1198 0.948 . S
H1201 C1190 0.952 . S
H1202 C1192 0.948 . S
C1203 C1169 1.395 . S
C1203 C1173 1.391 . S
C1204 C1166 1.389 . S
C1204 C1186 1.392 . S
C1205 C1176 1.392 . S
C1205 C1178 1.389 . S
C1206 C1181 1.395 . S
C1206 C1183 1.391 . S
H1207 C1167 0.951 . S
H1208 C1168 0.950 . S
H1209 C1174 0.949 . S
H1210 C1175 0.950 . S
H1211 C1179 0.951 . S
H1212 C1180 0.950 . S
H1213 C1184 0.949 . S
H1214 C1185 0.950 . S
H1215 C1189 0.950 . S
H1216 C1191 0.950 . S
H1217 C1194 0.950 . S
H1218 C1196 0.950 . S
C1219 C1220 1.443 . S
C1219 N1223 1.376 . S
C1219 C1257 1.389 . S
C1220 C1219 1.443 . S
C1220 C1221 1.340 . S
C1220 H1260 0.951 . S
C1221 C1220 1.340 . S
C1221 C1222 1.439 . S
C1221 H1261 0.950 . S
C1222 C1221 1.439 . S
C1222 N1223 1.374 . S
C1222 C1256 1.395 . S
N1223 C1219 1.376 . S
N1223 C1222 1.374 . S
N1223 Co1224 2.008 . S
Co1224 N1223 2.008 . S
Co1224 N1225 1.995 . S
Co1224 N1230 2.008 . S
Co1224 N1235 1.995 . S
Co1224 N1240 2.282 . S
Co1224 N1246 2.282 . S
N1225 Co1224 1.995 . S
N1225 C1226 1.376 . S
N1225 C1229 1.383 . S
C1226 N1225 1.376 . S
C1226 C1227 1.446 . S
C1226 C1256 1.391 . S
C1227 C1226 1.446 . S
C1227 C1228 1.339 . S
C1227 H1262 0.949 . S
C1228 C1227 1.339 . S
C1228 C1229 1.439 . S
C1228 H1263 0.950 . S
C1229 N1225 1.383 . S
C1229 C1228 1.439 . S
C1229 C1258 1.392 . S
N1230 Co1224 2.008 . S
N1230 C1231 1.376 . S
N1230 C1234 1.374 . S
C1231 N1230 1.376 . S
C1231 C1232 1.443 . S
C1231 C1258 1.389 . S
C1232 C1231 1.443 . S
C1232 C1233 1.340 . S
C1232 H1264 0.951 . S
C1233 C1232 1.340 . S
C1233 C1234 1.439 . S
C1233 H1265 0.950 . S
C1234 N1230 1.374 . S
C1234 C1233 1.439 . S
C1234 C1259 1.395 . S
N1235 Co1224 1.995 . S
N1235 C1236 1.376 . S
N1235 C1239 1.383 . S
C1236 N1235 1.376 . S
C1236 C1237 1.446 . S
C1236 C1259 1.391 . S
C1237 C1236 1.446 . S
C1237 C1238 1.339 . S
C1237 H1266 0.949 . S
C1238 C1237 1.339 . S
C1238 C1239 1.439 . S
C1238 H1267 0.950 . S
C1239 N1235 1.383 . S
C1239 C1238 1.439 . S
C1239 C1257 1.392 . S
N1240 Co1224 2.282 . S
N1240 C1243 1.332 . S
N1240 C1245 1.332 . S
C1241 C1242 1.386 . S
C1241 C1244 1.388 . S
C1242 C1241 1.386 . S
C1242 C1243 1.382 . S
C1242 H1268 0.950 . S
C1243 N1240 1.332 . S
C1243 C1242 1.382 . S
C1243 H1254 0.952 . S
C1244 C1241 1.388 . S
C1244 C1245 1.382 . S
C1244 H1269 0.950 . S
C1245 N1240 1.332 . S
C1245 C1244 1.382 . S
C1245 H1255 0.948 . S
N1246 Co1224 2.282 . S
N1246 C1250 1.332 . S
N1246 C1251 1.332 . S
C1247 C1248 1.388 . S
C1247 C1251 1.382 . S
C1247 H1270 0.950 . S
C1248 C1247 1.388 . S
C1248 C1249 1.386 . S
C1249 C1248 1.386 . S
C1249 C1250 1.382 . S
C1249 H1271 0.950 . S
C1250 N1246 1.332 . S
C1250 C1249 1.382 . S
C1250 H1252 0.952 . S
C1251 N1246 1.332 . S
C1251 C1247 1.382 . S
C1251 H1253 0.948 . S
H1252 C1250 0.952 . S
H1253 C1251 0.948 . S
H1254 C1243 0.952 . S
H1255 C1245 0.948 . S
C1256 C1222 1.395 . S
C1256 C1226 1.391 . S
C1257 C1219 1.389 . S
C1257 C1239 1.392 . S
C1258 C1229 1.392 . S
C1258 C1231 1.389 . S
C1259 C1234 1.395 . S
C1259 C1236 1.391 . S
H1260 C1220 0.951 . S
H1261 C1221 0.950 . S
H1262 C1227 0.949 . S
H1263 C1228 0.950 . S
H1264 C1232 0.951 . S
H1265 C1233 0.950 . S
H1266 C1237 0.949 . S
H1267 C1238 0.950 . S
H1268 C1242 0.950 . S
H1269 C1244 0.950 . S
H1270 C1247 0.950 . S
H1271 C1249 0.950 . S
H1272 C1278 0.930 . S
H1273 C1281 0.930 . S
H1274 C1282 0.930 . S
H1275 C1283 0.930 . S
H1276 C1286 0.930 . S
H1277 C1287 0.930 . S
C1278 H1272 0.930 . S
C1278 C1279 1.355 . S
C1278 C1280 1.415 . S
C1279 C1278 1.355 . S
C1279 C1281 1.419 . S
C1280 C1278 1.415 . S
C1280 C1285 1.425 . S
C1280 C1287 1.409 . S
C1281 H1273 0.930 . S
C1281 C1279 1.419 . S
C1281 C1282 1.362 . S
C1282 H1274 0.930 . S
C1282 C1281 1.362 . S
C1282 C1285 1.409 . S
C1283 H1275 0.930 . S
C1283 C1284 1.355 . S
C1283 C1285 1.415 . S
C1284 C1283 1.355 . S
C1284 C1286 1.419 . S
C1285 C1280 1.425 . S
C1285 C1282 1.409 . S
C1285 C1283 1.415 . S
C1286 H1276 0.930 . S
C1286 C1284 1.419 . S
C1286 C1287 1.362 . S
C1287 H1277 0.930 . S
C1287 C1280 1.409 . S
C1287 C1286 1.362 . S
H1288 C1294 0.930 . S
H1289 C1297 0.930 . S
H1290 C1298 0.930 . S
H1291 C1299 0.930 . S
H1292 C1302 0.930 . S
H1293 C1303 0.930 . S
C1294 H1288 0.930 . S
C1294 C1295 1.355 . S
C1294 C1296 1.415 . S
C1295 C1294 1.355 . S
C1295 C1297 1.419 . S
C1296 C1294 1.415 . S
C1296 C1301 1.425 . S
C1296 C1303 1.409 . S
C1297 H1289 0.930 . S
C1297 C1295 1.419 . S
C1297 C1298 1.362 . S
C1298 H1290 0.930 . S
C1298 C1297 1.362 . S
C1298 C1301 1.409 . S
C1299 H1291 0.930 . S
C1299 C1300 1.355 . S
C1299 C1301 1.415 . S
C1300 C1299 1.355 . S
C1300 C1302 1.419 . S
C1301 C1296 1.425 . S
C1301 C1298 1.409 . S
C1301 C1299 1.415 . S
C1302 H1292 0.930 . S
C1302 C1300 1.419 . S
C1302 C1303 1.362 . S
C1303 H1293 0.930 . S
C1303 C1296 1.409 . S
C1303 C1302 1.362 . S
H1304 C1310 0.930 . S
H1305 C1313 0.930 . S
H1306 C1314 0.930 . S
H1307 C1315 0.930 . S
H1308 C1318 0.930 . S
H1309 C1319 0.930 . S
C1310 H1304 0.930 . S
C1310 C1311 1.355 . S
C1310 C1312 1.415 . S
C1311 C1310 1.355 . S
C1311 C1313 1.419 . S
C1312 C1310 1.415 . S
C1312 C1317 1.425 . S
C1312 C1319 1.409 . S
C1313 H1305 0.930 . S
C1313 C1311 1.419 . S
C1313 C1314 1.362 . S
C1314 H1306 0.930 . S
C1314 C1313 1.362 . S
C1314 C1317 1.409 . S
C1315 H1307 0.930 . S
C1315 C1316 1.355 . S
C1315 C1317 1.415 . S
C1316 C1315 1.355 . S
C1316 C1318 1.419 . S
C1317 C1312 1.425 . S
C1317 C1314 1.409 . S
C1317 C1315 1.415 . S
C1318 H1308 0.930 . S
C1318 C1316 1.419 . S
C1318 C1319 1.362 . S
C1319 H1309 0.930 . S
C1319 C1312 1.409 . S
C1319 C1318 1.362 . S
H1320 C1326 0.930 . S
H1321 C1329 0.930 . S
H1322 C1330 0.930 . S
H1323 C1331 0.930 . S
H1324 C1334 0.930 . S
H1325 C1335 0.930 . S
C1326 H1320 0.930 . S
C1326 C1327 1.355 . S
C1326 C1328 1.415 . S
C1327 C1326 1.355 . S
C1327 C1329 1.419 . S
C1328 C1326 1.415 . S
C1328 C1333 1.425 . S
C1328 C1335 1.409 . S
C1329 H1321 0.930 . S
C1329 C1327 1.419 . S
C1329 C1330 1.362 . S
C1330 H1322 0.930 . S
C1330 C1329 1.362 . S
C1330 C1333 1.409 . S
C1331 H1323 0.930 . S
C1331 C1332 1.355 . S
C1331 C1333 1.415 . S
C1332 C1331 1.355 . S
C1332 C1334 1.419 . S
C1333 C1328 1.425 . S
C1333 C1330 1.409 . S
C1333 C1331 1.415 . S
C1334 H1324 0.930 . S
C1334 C1332 1.419 . S
C1334 C1335 1.362 . S
C1335 H1325 0.930 . S
C1335 C1328 1.409 . S
C1335 C1334 1.362 . S
H1336 C1342 0.930 . S
H1337 C1345 0.930 . S
H1338 C1346 0.930 . S
H1339 C1347 0.930 . S
H1340 C1350 0.930 . S
H1341 C1351 0.930 . S
C1342 H1336 0.930 . S
C1342 C1343 1.355 . S
C1342 C1344 1.415 . S
C1343 C1342 1.355 . S
C1343 C1345 1.419 . S
C1344 C1342 1.415 . S
C1344 C1349 1.425 . S
C1344 C1351 1.409 . S
C1345 H1337 0.930 . S
C1345 C1343 1.419 . S
C1345 C1346 1.362 . S
C1346 H1338 0.930 . S
C1346 C1345 1.362 . S
C1346 C1349 1.409 . S
C1347 H1339 0.930 . S
C1347 C1348 1.355 . S
C1347 C1349 1.415 . S
C1348 C1347 1.355 . S
C1348 C1350 1.419 . S
C1349 C1344 1.425 . S
C1349 C1346 1.409 . S
C1349 C1347 1.415 . S
C1350 H1340 0.930 . S
C1350 C1348 1.419 . S
C1350 C1351 1.362 . S
C1351 H1341 0.930 . S
C1351 C1344 1.409 . S
C1351 C1350 1.362 . S
H1352 C1358 0.930 . S
H1353 C1361 0.930 . S
H1354 C1362 0.930 . S
H1355 C1363 0.930 . S
H1356 C1366 0.930 . S
H1357 C1367 0.930 . S
C1358 H1352 0.930 . S
C1358 C1359 1.355 . S
C1358 C1360 1.415 . S
C1359 C1358 1.355 . S
C1359 C1361 1.419 . S
C1360 C1358 1.415 . S
C1360 C1365 1.425 . S
C1360 C1367 1.409 . S
C1361 H1353 0.930 . S
C1361 C1359 1.419 . S
C1361 C1362 1.362 . S
C1362 H1354 0.930 . S
C1362 C1361 1.362 . S
C1362 C1365 1.409 . S
C1363 H1355 0.930 . S
C1363 C1364 1.355 . S
C1363 C1365 1.415 . S
C1364 C1363 1.355 . S
C1364 C1366 1.419 . S
C1365 C1360 1.425 . S
C1365 C1362 1.409 . S
C1365 C1363 1.415 . S
C1366 H1356 0.930 . S
C1366 C1364 1.419 . S
C1366 C1367 1.362 . S
C1367 H1357 0.930 . S
C1367 C1360 1.409 . S
C1367 C1366 1.362 . S
H1368 C1374 0.930 . S
H1369 C1377 0.930 . S
H1370 C1378 0.930 . S
H1371 C1379 0.930 . S
H1372 C1382 0.930 . S
H1373 C1383 0.930 . S
C1374 H1368 0.930 . S
C1374 C1375 1.355 . S
C1374 C1376 1.415 . S
C1375 C1374 1.355 . S
C1375 C1377 1.419 . S
C1376 C1374 1.415 . S
C1376 C1381 1.425 . S
C1376 C1383 1.409 . S
C1377 H1369 0.930 . S
C1377 C1375 1.419 . S
C1377 C1378 1.362 . S
C1378 H1370 0.930 . S
C1378 C1377 1.362 . S
C1378 C1381 1.409 . S
C1379 H1371 0.930 . S
C1379 C1380 1.355 . S
C1379 C1381 1.415 . S
C1380 C1379 1.355 . S
C1380 C1382 1.419 . S
C1381 C1376 1.425 . S
C1381 C1378 1.409 . S
C1381 C1379 1.415 . S
C1382 H1372 0.930 . S
C1382 C1380 1.419 . S
C1382 C1383 1.362 . S
C1383 H1373 0.930 . S
C1383 C1376 1.409 . S
C1383 C1382 1.362 . S
H1384 C1390 0.930 . S
H1385 C1393 0.930 . S
H1386 C1394 0.930 . S
H1387 C1395 0.930 . S
H1388 C1398 0.930 . S
H1389 C1399 0.930 . S
C1390 H1384 0.930 . S
C1390 C1391 1.355 . S
C1390 C1392 1.415 . S
C1391 C1390 1.355 . S
C1391 C1393 1.419 . S
C1392 C1390 1.415 . S
C1392 C1397 1.425 . S
C1392 C1399 1.409 . S
C1393 H1385 0.930 . S
C1393 C1391 1.419 . S
C1393 C1394 1.362 . S
C1394 H1386 0.930 . S
C1394 C1393 1.362 . S
C1394 C1397 1.409 . S
C1395 H1387 0.930 . S
C1395 C1396 1.355 . S
C1395 C1397 1.415 . S
C1396 C1395 1.355 . S
C1396 C1398 1.419 . S
C1397 C1392 1.425 . S
C1397 C1394 1.409 . S
C1397 C1395 1.415 . S
C1398 H1388 0.930 . S
C1398 C1396 1.419 . S
C1398 C1399 1.362 . S
C1399 H1389 0.930 . S
C1399 C1392 1.409 . S
C1399 C1398 1.362 . S
H1400 C1406 0.930 . S
H1401 C1409 0.930 . S
H1402 C1410 0.930 . S
H1403 C1411 0.930 . S
H1404 C1414 0.930 . S
H1405 C1415 0.930 . S
C1406 H1400 0.930 . S
C1406 C1407 1.355 . S
C1406 C1408 1.415 . S
C1407 C1406 1.355 . S
C1407 C1409 1.419 . S
C1408 C1406 1.415 . S
C1408 C1413 1.425 . S
C1408 C1415 1.409 . S
C1409 H1401 0.930 . S
C1409 C1407 1.419 . S
C1409 C1410 1.362 . S
C1410 H1402 0.930 . S
C1410 C1409 1.362 . S
C1410 C1413 1.409 . S
C1411 H1403 0.930 . S
C1411 C1412 1.355 . S
C1411 C1413 1.415 . S
C1412 C1411 1.355 . S
C1412 C1414 1.419 . S
C1413 C1408 1.425 . S
C1413 C1410 1.409 . S
C1413 C1411 1.415 . S
C1414 H1404 0.930 . S
C1414 C1412 1.419 . S
C1414 C1415 1.362 . S
C1415 H1405 0.930 . S
C1415 C1408 1.409 . S
C1415 C1414 1.362 . S
H1416 C1422 0.930 . S
H1417 C1425 0.930 . S
H1418 C1426 0.930 . S
H1419 C1427 0.930 . S
H1420 C1430 0.930 . S
H1421 C1431 0.930 . S
C1422 H1416 0.930 . S
C1422 C1423 1.355 . S
C1422 C1424 1.415 . S
C1423 C1422 1.355 . S
C1423 C1425 1.419 . S
C1424 C1422 1.415 . S
C1424 C1429 1.425 . S
C1424 C1431 1.409 . S
C1425 H1417 0.930 . S
C1425 C1423 1.419 . S
C1425 C1426 1.362 . S
C1426 H1418 0.930 . S
C1426 C1425 1.362 . S
C1426 C1429 1.409 . S
C1427 H1419 0.930 . S
C1427 C1428 1.355 . S
C1427 C1429 1.415 . S
C1428 C1427 1.355 . S
C1428 C1430 1.419 . S
C1429 C1424 1.425 . S
C1429 C1426 1.409 . S
C1429 C1427 1.415 . S
C1430 H1420 0.930 . S
C1430 C1428 1.419 . S
C1430 C1431 1.362 . S
C1431 H1421 0.930 . S
C1431 C1424 1.409 . S
C1431 C1430 1.362 . S
H1432 C1438 0.930 . S
H1433 C1441 0.930 . S
H1434 C1442 0.930 . S
H1435 C1443 0.930 . S
H1436 C1446 0.930 . S
H1437 C1447 0.930 . S
C1438 H1432 0.930 . S
C1438 C1439 1.355 . S
C1438 C1440 1.415 . S
C1439 C1438 1.355 . S
C1439 C1441 1.419 . S
C1440 C1438 1.415 . S
C1440 C1445 1.425 . S
C1440 C1447 1.409 . S
C1441 H1433 0.930 . S
C1441 C1439 1.419 . S
C1441 C1442 1.362 . S
C1442 H1434 0.930 . S
C1442 C1441 1.362 . S
C1442 C1445 1.409 . S
C1443 H1435 0.930 . S
C1443 C1444 1.355 . S
C1443 C1445 1.415 . S
C1444 C1443 1.355 . S
C1444 C1446 1.419 . S
C1445 C1440 1.425 . S
C1445 C1442 1.409 . S
C1445 C1443 1.415 . S
C1446 H1436 0.930 . S
C1446 C1444 1.419 . S
C1446 C1447 1.362 . S
C1447 H1437 0.930 . S
C1447 C1440 1.409 . S
C1447 C1446 1.362 . S
H1448 C1454 0.930 . S
H1449 C1457 0.930 . S
H1450 C1458 0.930 . S
H1451 C1459 0.930 . S
H1452 C1462 0.930 . S
H1453 C1463 0.930 . S
C1454 H1448 0.930 . S
C1454 C1455 1.355 . S
C1454 C1456 1.415 . S
C1455 C1454 1.355 . S
C1455 C1457 1.419 . S
C1456 C1454 1.415 . S
C1456 C1461 1.425 . S
C1456 C1463 1.409 . S
C1457 H1449 0.930 . S
C1457 C1455 1.419 . S
C1457 C1458 1.362 . S
C1458 H1450 0.930 . S
C1458 C1457 1.362 . S
C1458 C1461 1.409 . S
C1459 H1451 0.930 . S
C1459 C1460 1.355 . S
C1459 C1461 1.415 . S
C1460 C1459 1.355 . S
C1460 C1462 1.419 . S
C1461 C1456 1.425 . S
C1461 C1458 1.409 . S
C1461 C1459 1.415 . S
C1462 H1452 0.930 . S
C1462 C1460 1.419 . S
C1462 C1463 1.362 . S
C1463 H1453 0.930 . S
C1463 C1456 1.409 . S
C1463 C1462 1.362 . S
H1464 C1470 0.930 . S
H1465 C1473 0.930 . S
H1466 C1474 0.930 . S
H1467 C1475 0.930 . S
H1468 C1478 0.930 . S
H1469 C1479 0.930 . S
C1470 H1464 0.930 . S
C1470 C1471 1.355 . S
C1470 C1472 1.415 . S
C1471 C1470 1.355 . S
C1471 C1473 1.419 . S
C1472 C1470 1.415 . S
C1472 C1477 1.425 . S
C1472 C1479 1.409 . S
C1473 H1465 0.930 . S
C1473 C1471 1.419 . S
C1473 C1474 1.362 . S
C1474 H1466 0.930 . S
C1474 C1473 1.362 . S
C1474 C1477 1.409 . S
C1475 H1467 0.930 . S
C1475 C1476 1.355 . S
C1475 C1477 1.415 . S
C1476 C1475 1.355 . S
C1476 C1478 1.419 . S
C1477 C1472 1.425 . S
C1477 C1474 1.409 . S
C1477 C1475 1.415 . S
C1478 H1468 0.930 . S
C1478 C1476 1.419 . S
C1478 C1479 1.362 . S
C1479 H1469 0.930 . S
C1479 C1472 1.409 . S
C1479 C1478 1.362 . S
H1480 C1486 0.930 . S
H1481 C1489 0.930 . S
H1482 C1490 0.930 . S
H1483 C1491 0.930 . S
H1484 C1494 0.930 . S
H1485 C1495 0.930 . S
C1486 H1480 0.930 . S
C1486 C1487 1.355 . S
C1486 C1488 1.415 . S
C1487 C1486 1.355 . S
C1487 C1489 1.419 . S
C1488 C1486 1.415 . S
C1488 C1493 1.425 . S
C1488 C1495 1.409 . S
C1489 H1481 0.930 . S
C1489 C1487 1.419 . S
C1489 C1490 1.362 . S
C1490 H1482 0.930 . S
C1490 C1489 1.362 . S
C1490 C1493 1.409 . S
C1491 H1483 0.930 . S
C1491 C1492 1.355 . S
C1491 C1493 1.415 . S
C1492 C1491 1.355 . S
C1492 C1494 1.419 . S
C1493 C1488 1.425 . S
C1493 C1490 1.409 . S
C1493 C1491 1.415 . S
C1494 H1484 0.930 . S
C1494 C1492 1.419 . S
C1494 C1495 1.362 . S
C1495 H1485 0.930 . S
C1495 C1488 1.409 . S
C1495 C1494 1.362 . S
H1496 C1502 0.930 . S
H1497 C1505 0.930 . S
H1498 C1506 0.930 . S
H1499 C1507 0.930 . S
H1500 C1510 0.930 . S
H1501 C1511 0.930 . S
C1502 H1496 0.930 . S
C1502 C1503 1.355 . S
C1502 C1504 1.415 . S
C1503 C1502 1.355 . S
C1503 C1505 1.419 . S
C1504 C1502 1.415 . S
C1504 C1509 1.425 . S
C1504 C1511 1.409 . S
C1505 H1497 0.930 . S
C1505 C1503 1.419 . S
C1505 C1506 1.362 . S
C1506 H1498 0.930 . S
C1506 C1505 1.362 . S
C1506 C1509 1.409 . S
C1507 H1499 0.930 . S
C1507 C1508 1.355 . S
C1507 C1509 1.415 . S
C1508 C1507 1.355 . S
C1508 C1510 1.419 . S
C1509 C1504 1.425 . S
C1509 C1506 1.409 . S
C1509 C1507 1.415 . S
C1510 H1500 0.930 . S
C1510 C1508 1.419 . S
C1510 C1511 1.362 . S
C1511 H1501 0.930 . S
C1511 C1504 1.409 . S
C1511 C1510 1.362 . S
H1512 C1518 0.930 . S
H1513 C1521 0.930 . S
H1514 C1522 0.930 . S
H1515 C1523 0.930 . S
H1516 C1526 0.930 . S
H1517 C1527 0.930 . S
C1518 H1512 0.930 . S
C1518 C1519 1.355 . S
C1518 C1520 1.415 . S
C1519 C1518 1.355 . S
C1519 C1521 1.419 . S
C1520 C1518 1.415 . S
C1520 C1525 1.425 . S
C1520 C1527 1.409 . S
C1521 H1513 0.930 . S
C1521 C1519 1.419 . S
C1521 C1522 1.362 . S
C1522 H1514 0.930 . S
C1522 C1521 1.362 . S
C1522 C1525 1.409 . S
C1523 H1515 0.930 . S
C1523 C1524 1.355 . S
C1523 C1525 1.415 . S
C1524 C1523 1.355 . S
C1524 C1526 1.419 . S
C1525 C1520 1.425 . S
C1525 C1522 1.409 . S
C1525 C1523 1.415 . S
C1526 H1516 0.930 . S
C1526 C1524 1.419 . S
C1526 C1527 1.362 . S
C1527 H1517 0.930 . S
C1527 C1520 1.409 . S
C1527 C1526 1.362 . S
H1528 C1534 0.930 . S
H1529 C1537 0.930 . S
H1530 C1538 0.930 . S
H1531 C1539 0.930 . S
H1532 C1542 0.930 . S
H1533 C1543 0.930 . S
C1534 H1528 0.930 . S
C1534 C1535 1.355 . S
C1534 C1536 1.415 . S
C1535 C1534 1.355 . S
C1535 C1537 1.419 . S
C1536 C1534 1.415 . S
C1536 C1541 1.425 . S
C1536 C1543 1.409 . S
C1537 H1529 0.930 . S
C1537 C1535 1.419 . S
C1537 C1538 1.362 . S
C1538 H1530 0.930 . S
C1538 C1537 1.362 . S
C1538 C1541 1.409 . S
C1539 H1531 0.930 . S
C1539 C1540 1.355 . S
C1539 C1541 1.415 . S
C1540 C1539 1.355 . S
C1540 C1542 1.419 . S
C1541 C1536 1.425 . S
C1541 C1538 1.409 . S
C1541 C1539 1.415 . S
C1542 H1532 0.930 . S
C1542 C1540 1.419 . S
C1542 C1543 1.362 . S
C1543 H1533 0.930 . S
C1543 C1536 1.409 . S
C1543 C1542 1.362 . S
H1544 C1550 0.930 . S
H1545 C1553 0.930 . S
H1546 C1554 0.930 . S
H1547 C1555 0.930 . S
H1548 C1558 0.930 . S
H1549 C1559 0.930 . S
C1550 H1544 0.930 . S
C1550 C1551 1.355 . S
C1550 C1552 1.415 . S
C1551 C1550 1.355 . S
C1551 C1553 1.419 . S
C1552 C1550 1.415 . S
C1552 C1557 1.425 . S
C1552 C1559 1.409 . S
C1553 H1545 0.930 . S
C1553 C1551 1.419 . S
C1553 C1554 1.362 . S
C1554 H1546 0.930 . S
C1554 C1553 1.362 . S
C1554 C1557 1.409 . S
C1555 H1547 0.930 . S
C1555 C1556 1.355 . S
C1555 C1557 1.415 . S
C1556 C1555 1.355 . S
C1556 C1558 1.419 . S
C1557 C1552 1.425 . S
C1557 C1554 1.409 . S
C1557 C1555 1.415 . S
C1558 H1548 0.930 . S
C1558 C1556 1.419 . S
C1558 C1559 1.362 . S
C1559 H1549 0.930 . S
C1559 C1552 1.409 . S
C1559 C1558 1.362 . S
H1560 C1566 0.930 . S
H1561 C1569 0.930 . S
H1562 C1570 0.930 . S
H1563 C1571 0.930 . S
H1564 C1574 0.930 . S
H1565 C1575 0.930 . S
C1566 H1560 0.930 . S
C1566 C1567 1.355 . S
C1566 C1568 1.415 . S
C1567 C1566 1.355 . S
C1567 C1569 1.419 . S
C1568 C1566 1.415 . S
C1568 C1573 1.425 . S
C1568 C1575 1.409 . S
C1569 H1561 0.930 . S
C1569 C1567 1.419 . S
C1569 C1570 1.362 . S
C1570 H1562 0.930 . S
C1570 C1569 1.362 . S
C1570 C1573 1.409 . S
C1571 H1563 0.930 . S
C1571 C1572 1.355 . S
C1571 C1573 1.415 . S
C1572 C1571 1.355 . S
C1572 C1574 1.419 . S
C1573 C1568 1.425 . S
C1573 C1570 1.409 . S
C1573 C1571 1.415 . S
C1574 H1564 0.930 . S
C1574 C1572 1.419 . S
C1574 C1575 1.362 . S
C1575 H1565 0.930 . S
C1575 C1568 1.409 . S
C1575 C1574 1.362 . S
H1576 C1582 0.930 . S
H1577 C1585 0.930 . S
H1578 C1586 0.930 . S
H1579 C1587 0.930 . S
H1580 C1590 0.930 . S
H1581 C1591 0.930 . S
C1582 H1576 0.930 . S
C1582 C1583 1.355 . S
C1582 C1584 1.415 . S
C1583 C1582 1.355 . S
C1583 C1585 1.419 . S
C1584 C1582 1.415 . S
C1584 C1589 1.425 . S
C1584 C1591 1.409 . S
C1585 H1577 0.930 . S
C1585 C1583 1.419 . S
C1585 C1586 1.362 . S
C1586 H1578 0.930 . S
C1586 C1585 1.362 . S
C1586 C1589 1.409 . S
C1587 H1579 0.930 . S
C1587 C1588 1.355 . S
C1587 C1589 1.415 . S
C1588 C1587 1.355 . S
C1588 C1590 1.419 . S
C1589 C1584 1.425 . S
C1589 C1586 1.409 . S
C1589 C1587 1.415 . S
C1590 H1580 0.930 . S
C1590 C1588 1.419 . S
C1590 C1591 1.362 . S
C1591 H1581 0.930 . S
C1591 C1584 1.409 . S
C1591 C1590 1.362 . S
H1592 C1598 0.930 . S
H1593 C1601 0.930 . S
H1594 C1602 0.930 . S
H1595 C1603 0.930 . S
H1596 C1606 0.930 . S
H1597 C1607 0.930 . S
C1598 H1592 0.930 . S
C1598 C1599 1.355 . S
C1598 C1600 1.415 . S
C1599 C1598 1.355 . S
C1599 C1601 1.419 . S
C1600 C1598 1.415 . S
C1600 C1605 1.425 . S
C1600 C1607 1.409 . S
C1601 H1593 0.930 . S
C1601 C1599 1.419 . S
C1601 C1602 1.362 . S
C1602 H1594 0.930 . S
C1602 C1601 1.362 . S
C1602 C1605 1.409 . S
C1603 H1595 0.930 . S
C1603 C1604 1.355 . S
C1603 C1605 1.415 . S
C1604 C1603 1.355 . S
C1604 C1606 1.419 . S
C1605 C1600 1.425 . S
C1605 C1602 1.409 . S
C1605 C1603 1.415 . S
C1606 H1596 0.930 . S
C1606 C1604 1.419 . S
C1606 C1607 1.362 . S
C1607 H1597 0.930 . S
C1607 C1600 1.409 . S
C1607 C1606 1.362 . S
H1608 C1614 0.930 . S
H1609 C1617 0.930 . S
H1610 C1618 0.930 . S
H1611 C1619 0.930 . S
H1612 C1622 0.930 . S
H1613 C1623 0.930 . S
C1614 H1608 0.930 . S
C1614 C1615 1.355 . S
C1614 C1616 1.415 . S
C1615 C1614 1.355 . S
C1615 C1617 1.419 . S
C1616 C1614 1.415 . S
C1616 C1621 1.425 . S
C1616 C1623 1.409 . S
C1617 H1609 0.930 . S
C1617 C1615 1.419 . S
C1617 C1618 1.362 . S
C1618 H1610 0.930 . S
C1618 C1617 1.362 . S
C1618 C1621 1.409 . S
C1619 H1611 0.930 . S
C1619 C1620 1.355 . S
C1619 C1621 1.415 . S
C1620 C1619 1.355 . S
C1620 C1622 1.419 . S
C1621 C1616 1.425 . S
C1621 C1618 1.409 . S
C1621 C1619 1.415 . S
C1622 H1612 0.930 . S
C1622 C1620 1.419 . S
C1622 C1623 1.362 . S
C1623 H1613 0.930 . S
C1623 C1616 1.409 . S
C1623 C1622 1.362 . S
H1624 C1630 0.930 . S
H1625 C1633 0.930 . S
H1626 C1634 0.930 . S
H1627 C1635 0.930 . S
H1628 C1638 0.930 . S
H1629 C1639 0.930 . S
C1630 H1624 0.930 . S
C1630 C1631 1.355 . S
C1630 C1632 1.415 . S
C1631 C1630 1.355 . S
C1631 C1633 1.419 . S
C1632 C1630 1.415 . S
C1632 C1637 1.425 . S
C1632 C1639 1.409 . S
C1633 H1625 0.930 . S
C1633 C1631 1.419 . S
C1633 C1634 1.362 . S
C1634 H1626 0.930 . S
C1634 C1633 1.362 . S
C1634 C1637 1.409 . S
C1635 H1627 0.930 . S
C1635 C1636 1.355 . S
C1635 C1637 1.415 . S
C1636 C1635 1.355 . S
C1636 C1638 1.419 . S
C1637 C1632 1.425 . S
C1637 C1634 1.409 . S
C1637 C1635 1.415 . S
C1638 H1628 0.930 . S
C1638 C1636 1.419 . S
C1638 C1639 1.362 . S
C1639 H1629 0.930 . S
C1639 C1632 1.409 . S
C1639 C1638 1.362 . S
H1640 C1646 0.930 . S
H1641 C1649 0.930 . S
H1642 C1650 0.930 . S
H1643 C1651 0.930 . S
H1644 C1654 0.930 . S
H1645 C1655 0.930 . S
C1646 H1640 0.930 . S
C1646 C1647 1.355 . S
C1646 C1648 1.415 . S
C1647 C1646 1.355 . S
C1647 C1649 1.419 . S
C1648 C1646 1.415 . S
C1648 C1653 1.425 . S
C1648 C1655 1.409 . S
C1649 H1641 0.930 . S
C1649 C1647 1.419 . S
C1649 C1650 1.362 . S
C1650 H1642 0.930 . S
C1650 C1649 1.362 . S
C1650 C1653 1.409 . S
C1651 H1643 0.930 . S
C1651 C1652 1.355 . S
C1651 C1653 1.415 . S
C1652 C1651 1.355 . S
C1652 C1654 1.419 . S
C1653 C1648 1.425 . S
C1653 C1650 1.409 . S
C1653 C1651 1.415 . S
C1654 H1644 0.930 . S
C1654 C1652 1.419 . S
C1654 C1655 1.362 . S
C1655 H1645 0.930 . S
C1655 C1648 1.409 . S
C1655 C1654 1.362 . S
H1656 C1662 0.930 . S
H1657 C1665 0.930 . S
H1658 C1666 0.930 . S
H1659 C1667 0.930 . S
H1660 C1670 0.930 . S
H1661 C1671 0.930 . S
C1662 H1656 0.930 . S
C1662 C1663 1.355 . S
C1662 C1664 1.415 . S
C1663 C1662 1.355 . S
C1663 C1665 1.419 . S
C1664 C1662 1.415 . S
C1664 C1669 1.425 . S
C1664 C1671 1.409 . S
C1665 H1657 0.930 . S
C1665 C1663 1.419 . S
C1665 C1666 1.362 . S
C1666 H1658 0.930 . S
C1666 C1665 1.362 . S
C1666 C1669 1.409 . S
C1667 H1659 0.930 . S
C1667 C1668 1.355 . S
C1667 C1669 1.415 . S
C1668 C1667 1.355 . S
C1668 C1670 1.419 . S
C1669 C1664 1.425 . S
C1669 C1666 1.409 . S
C1669 C1667 1.415 . S
C1670 H1660 0.930 . S
C1670 C1668 1.419 . S
C1670 C1671 1.362 . S
C1671 H1661 0.930 . S
C1671 C1664 1.409 . S
C1671 C1670 1.362 . S
H1672 C1678 0.930 . S
H1673 C1681 0.930 . S
H1674 C1682 0.930 . S
H1675 C1683 0.930 . S
H1676 C1686 0.930 . S
H1677 C1687 0.930 . S
C1678 H1672 0.930 . S
C1678 C1679 1.355 . S
C1678 C1680 1.415 . S
C1679 C1678 1.355 . S
C1679 C1681 1.419 . S
C1680 C1678 1.415 . S
C1680 C1685 1.425 . S
C1680 C1687 1.409 . S
C1681 H1673 0.930 . S
C1681 C1679 1.419 . S
C1681 C1682 1.362 . S
C1682 H1674 0.930 . S
C1682 C1681 1.362 . S
C1682 C1685 1.409 . S
C1683 H1675 0.930 . S
C1683 C1684 1.355 . S
C1683 C1685 1.415 . S
C1684 C1683 1.355 . S
C1684 C1686 1.419 . S
C1685 C1680 1.425 . S
C1685 C1682 1.409 . S
C1685 C1683 1.415 . S
C1686 H1676 0.930 . S
C1686 C1684 1.419 . S
C1686 C1687 1.362 . S
C1687 H1677 0.930 . S
C1687 C1680 1.409 . S
C1687 C1686 1.362 . S
H1688 C1694 0.930 . S
H1689 C1697 0.930 . S
H1690 C1698 0.930 . S
H1691 C1699 0.930 . S
H1692 C1702 0.930 . S
H1693 C1703 0.930 . S
C1694 H1688 0.930 . S
C1694 C1695 1.355 . S
C1694 C1696 1.415 . S
C1695 C1694 1.355 . S
C1695 C1697 1.419 . S
C1696 C1694 1.415 . S
C1696 C1701 1.425 1_565 S
C1696 C1703 1.409 . S
C1697 H1689 0.930 . S
C1697 C1695 1.419 . S
C1697 C1698 1.362 1_565 S
C1698 H1690 0.930 . S
C1698 C1697 1.362 1_545 S
C1698 C1701 1.409 . S
C1699 H1691 0.930 . S
C1699 C1700 1.355 . S
C1699 C1701 1.415 . S
C1700 C1699 1.355 . S
C1700 C1702 1.419 . S
C1701 C1696 1.425 1_545 S
C1701 C1698 1.409 . S
C1701 C1699 1.415 . S
C1702 H1692 0.930 . S
C1702 C1700 1.419 . S
C1702 C1703 1.362 1_545 S
C1703 H1693 0.930 . S
C1703 C1696 1.409 . S
C1703 C1702 1.362 1_565 S
H1704 C1710 0.893 1_455 S
H1705 C1713 0.930 . S
H1706 C1714 0.930 . S
H1707 C1715 0.930 . S
H1708 C1718 0.930 . S
H1709 C1719 0.911 1_455 S
C1710 H1704 0.893 1_655 S
C1710 C1711 1.362 . S
C1710 C1712 1.445 . S
C1711 C1710 1.362 . S
C1711 C1713 1.419 . S
C1712 C1710 1.445 . S
C1712 C1717 1.425 . S
C1712 C1719 1.409 . S
C1713 H1705 0.930 . S
C1713 C1711 1.419 . S
C1713 C1714 1.362 . S
C1714 H1706 0.930 . S
C1714 C1713 1.362 . S
C1714 C1717 1.409 . S
C1715 H1707 0.930 . S
C1715 C1716 1.355 . S
C1715 C1717 1.415 . S
C1716 C1715 1.355 . S
C1716 C1718 1.419 . S
C1717 C1712 1.425 . S
C1717 C1714 1.409 . S
C1717 C1715 1.415 . S
C1718 H1708 0.930 . S
C1718 C1716 1.419 . S
C1718 C1719 1.362 . S
C1719 H1709 0.911 1_655 S
C1719 C1712 1.409 . S
C1719 C1718 1.362 . S
H1720 C1726 0.930 . S
H1721 C1729 0.930 . S
H1722 C1730 0.930 . S
H1723 C1731 0.930 . S
H1724 C1734 0.930 . S
H1725 C1735 0.930 . S
C1726 H1720 0.930 . S
C1726 C1727 1.355 . S
C1726 C1728 1.415 . S
C1727 C1726 1.355 . S
C1727 C1729 1.419 . S
C1728 C1726 1.415 . S
C1728 C1733 1.425 1_565 S
C1728 C1735 1.409 . S
C1729 H1721 0.930 . S
C1729 C1727 1.419 . S
C1729 C1730 1.362 1_565 S
C1730 H1722 0.930 . S
C1730 C1729 1.362 1_545 S
C1730 C1733 1.409 . S
C1731 H1723 0.930 . S
C1731 C1732 1.355 . S
C1731 C1733 1.415 . S
C1732 C1731 1.355 . S
C1732 C1734 1.419 . S
C1733 C1728 1.425 1_545 S
C1733 C1730 1.409 . S
C1733 C1731 1.415 . S
C1734 H1724 0.930 . S
C1734 C1732 1.419 . S
C1734 C1735 1.362 1_545 S
C1735 H1725 0.930 . S
C1735 C1728 1.409 . S
C1735 C1734 1.362 1_565 S
H1736 C1742 0.930 . S
H1737 C1745 0.930 . S
H1738 C1746 0.929 1_455 S
H1739 C1747 0.930 . S
H1740 C1750 0.930 . S
H1741 C1751 0.930 . S
C1742 H1736 0.930 . S
C1742 C1743 1.355 . S
C1742 C1744 1.415 . S
C1743 C1742 1.355 . S
C1743 C1745 1.419 . S
C1744 C1742 1.415 . S
C1744 C1749 1.425 . S
C1744 C1751 1.409 . S
C1745 H1737 0.930 . S
C1745 C1743 1.419 . S
C1745 C1746 1.363 . S
C1746 H1738 0.929 1_655 S
C1746 C1745 1.363 . S
C1746 C1749 1.409 . S
C1747 H1739 0.930 . S
C1747 C1748 1.355 . S
C1747 C1749 1.415 1_455 S
C1748 C1747 1.355 . S
C1748 C1750 1.419 1_455 S
C1749 C1744 1.425 . S
C1749 C1746 1.409 . S
C1749 C1747 1.415 1_655 S
C1750 H1740 0.930 . S
C1750 C1748 1.419 1_655 S
C1750 C1751 1.362 . S
C1751 H1741 0.930 . S
C1751 C1744 1.409 . S
C1751 C1750 1.362 . S
H1752 C1758 0.930 . S
H1753 C1761 0.930 . S
H1754 C1762 0.930 . S
H1755 C1763 0.930 . S
H1756 C1766 0.930 . S
H1757 C1767 0.930 . S
C1758 H1752 0.930 . S
C1758 C1759 1.355 . S
C1758 C1760 1.415 . S
C1759 C1758 1.355 . S
C1759 C1761 1.419 . S
C1760 C1758 1.415 . S
C1760 C1765 1.425 . S
C1760 C1767 1.409 . S
C1761 H1753 0.930 . S
C1761 C1759 1.419 . S
C1761 C1762 1.362 . S
C1762 H1754 0.930 . S
C1762 C1761 1.362 . S
C1762 C1765 1.409 . S
C1763 H1755 0.930 . S
C1763 C1764 1.355 . S
C1763 C1765 1.415 . S
C1764 C1763 1.355 . S
C1764 C1766 1.419 . S
C1765 C1760 1.425 . S
C1765 C1762 1.409 . S
C1765 C1763 1.415 . S
C1766 H1756 0.930 . S
C1766 C1764 1.419 . S
C1766 C1767 1.362 . S
C1767 H1757 0.930 . S
C1767 C1760 1.409 . S
C1767 C1766 1.362 . S
H1768 C1774 0.930 . S
H1769 C1777 0.930 . S
H1770 C1778 0.930 . S
H1771 C1779 0.930 . S
H1772 C1782 0.930 . S
H1773 C1783 0.930 . S
C1774 H1768 0.930 . S
C1774 C1775 1.355 . S
C1774 C1776 1.415 . S
C1775 C1774 1.355 . S
C1775 C1777 1.419 . S
C1776 C1774 1.415 . S
C1776 C1781 1.425 . S
C1776 C1783 1.409 . S
C1777 H1769 0.930 . S
C1777 C1775 1.419 . S
C1777 C1778 1.362 . S
C1778 H1770 0.930 . S
C1778 C1777 1.362 . S
C1778 C1781 1.409 . S
C1779 H1771 0.930 . S
C1779 C1780 1.355 . S
C1779 C1781 1.415 . S
C1780 C1779 1.355 . S
C1780 C1782 1.419 . S
C1781 C1776 1.425 . S
C1781 C1778 1.409 . S
C1781 C1779 1.415 . S
C1782 H1772 0.930 . S
C1782 C1780 1.419 . S
C1782 C1783 1.362 . S
C1783 H1773 0.930 . S
C1783 C1776 1.409 . S
C1783 C1782 1.362 . S
H1784 C1790 0.930 . S
H1785 C1793 0.930 . S
H1786 C1794 0.930 . S
H1787 C1795 0.930 . S
H1788 C1798 0.930 . S
H1789 C1799 0.930 . S
C1790 H1784 0.930 . S
C1790 C1791 1.355 . S
C1790 C1792 1.415 . S
C1791 C1790 1.355 . S
C1791 C1793 1.419 . S
C1792 C1790 1.415 . S
C1792 C1797 1.425 . S
C1792 C1799 1.409 . S
C1793 H1785 0.930 . S
C1793 C1791 1.419 . S
C1793 C1794 1.362 . S
C1794 H1786 0.930 . S
C1794 C1793 1.362 . S
C1794 C1797 1.409 . S
C1795 H1787 0.930 . S
C1795 C1796 1.355 . S
C1795 C1797 1.415 . S
C1796 C1795 1.355 . S
C1796 C1798 1.419 . S
C1797 C1792 1.425 . S
C1797 C1794 1.409 . S
C1797 C1795 1.415 . S
C1798 H1788 0.930 . S
C1798 C1796 1.419 . S
C1798 C1799 1.362 . S
C1799 H1789 0.930 . S
C1799 C1792 1.409 . S
C1799 C1798 1.362 . S
H1800 C1806 0.930 . S
H1801 C1809 0.930 . S
H1802 C1810 0.930 . S
H1803 C1811 0.930 . S
H1804 C1814 0.930 . S
H1805 C1815 0.930 . S
C1806 H1800 0.930 . S
C1806 C1807 1.355 . S
C1806 C1808 1.415 . S
C1807 C1806 1.355 . S
C1807 C1809 1.419 . S
C1808 C1806 1.415 . S
C1808 C1813 1.425 . S
C1808 C1815 1.409 1_554 S
C1809 H1801 0.930 . S
C1809 C1807 1.419 . S
C1809 C1810 1.362 . S
C1810 H1802 0.930 . S
C1810 C1809 1.362 . S
C1810 C1813 1.409 . S
C1811 H1803 0.930 . S
C1811 C1812 1.355 1_554 S
C1811 C1813 1.415 . S
C1812 C1811 1.355 1_556 S
C1812 C1814 1.419 . S
C1813 C1808 1.425 . S
C1813 C1810 1.409 . S
C1813 C1811 1.415 . S
C1814 H1804 0.930 . S
C1814 C1812 1.419 . S
C1814 C1815 1.362 . S
C1815 H1805 0.930 . S
C1815 C1808 1.409 1_556 S
C1815 C1814 1.362 . S
H1816 C1822 0.930 . S
H1817 C1825 0.930 . S
H1818 C1826 0.930 . S
H1819 C1827 0.930 . S
H1820 C1830 0.930 . S
H1821 C1831 0.930 . S
C1822 H1816 0.930 . S
C1822 C1823 1.355 . S
C1822 C1824 1.415 . S
C1823 C1822 1.355 . S
C1823 C1825 1.419 . S
C1824 C1822 1.415 . S
C1824 C1829 1.425 . S
C1824 C1831 1.409 . S
C1825 H1817 0.930 . S
C1825 C1823 1.419 . S
C1825 C1826 1.362 . S
C1826 H1818 0.930 . S
C1826 C1825 1.362 . S
C1826 C1829 1.409 . S
C1827 H1819 0.930 . S
C1827 C1828 1.355 . S
C1827 C1829 1.415 . S
C1828 C1827 1.355 . S
C1828 C1830 1.419 . S
C1829 C1824 1.425 . S
C1829 C1826 1.409 . S
C1829 C1827 1.415 . S
C1830 H1820 0.930 . S
C1830 C1828 1.419 . S
C1830 C1831 1.362 . S
C1831 H1821 0.930 . S
C1831 C1824 1.409 . S
C1831 C1830 1.362 . S
H1832 C1838 0.930 . S
H1833 C1841 0.930 . S
H1834 C1842 0.930 . S
H1835 C1843 0.930 . S
H1836 C1846 0.930 . S
H1837 C1847 0.930 1_556 S
C1838 H1832 0.930 . S
C1838 C1839 1.355 . S
C1838 C1840 1.415 1_556 S
C1839 C1838 1.355 . S
C1839 C1841 1.419 1_556 S
C1840 C1838 1.415 1_554 S
C1840 C1845 1.425 . S
C1840 C1847 1.409 . S
C1841 H1833 0.930 . S
C1841 C1839 1.419 1_554 S
C1841 C1842 1.362 . S
C1842 H1834 0.930 . S
C1842 C1841 1.362 . S
C1842 C1845 1.409 . S
C1843 H1835 0.930 . S
C1843 C1844 1.355 . S
C1843 C1845 1.415 . S
C1844 C1843 1.355 . S
C1844 C1846 1.419 . S
C1845 C1840 1.425 . S
C1845 C1842 1.409 . S
C1845 C1843 1.415 . S
C1846 H1836 0.930 . S
C1846 C1844 1.419 . S
C1846 C1847 1.362 . S
C1847 H1837 0.930 1_554 S
C1847 C1840 1.409 . S
C1847 C1846 1.362 . S
H1848 C1854 0.930 . S
H1849 C1857 0.930 . S
H1850 C1858 0.930 . S
H1851 C1859 0.930 . S
H1852 C1862 0.930 . S
H1853 C1863 0.930 . S
C1854 H1848 0.930 . S
C1854 C1855 1.355 . S
C1854 C1856 1.415 . S
C1855 C1854 1.355 . S
C1855 C1857 1.419 . S
C1856 C1854 1.415 . S
C1856 C1861 1.425 . S
C1856 C1863 1.409 . S
C1857 H1849 0.930 . S
C1857 C1855 1.419 . S
C1857 C1858 1.362 . S
C1858 H1850 0.930 . S
C1858 C1857 1.362 . S
C1858 C1861 1.409 . S
C1859 H1851 0.930 . S
C1859 C1860 1.355 . S
C1859 C1861 1.415 . S
C1860 C1859 1.355 . S
C1860 C1862 1.419 . S
C1861 C1856 1.425 . S
C1861 C1858 1.409 . S
C1861 C1859 1.415 . S
C1862 H1852 0.930 . S
C1862 C1860 1.419 . S
C1862 C1863 1.362 . S
C1863 H1853 0.930 . S
C1863 C1856 1.409 . S
C1863 C1862 1.362 . S
H1864 C1870 0.930 . S
H1865 C1873 0.930 . S
H1866 C1874 0.930 . S
H1867 C1875 0.930 . S
H1868 C1878 0.930 . S
H1869 C1879 0.930 . S
C1870 H1864 0.930 . S
C1870 C1871 1.355 . S
C1870 C1872 1.415 . S
C1871 C1870 1.355 . S
C1871 C1873 1.419 . S
C1872 C1870 1.415 . S
C1872 C1877 1.425 . S
C1872 C1879 1.409 . S
C1873 H1865 0.930 . S
C1873 C1871 1.419 . S
C1873 C1874 1.362 . S
C1874 H1866 0.930 . S
C1874 C1873 1.362 . S
C1874 C1877 1.409 . S
C1875 H1867 0.930 . S
C1875 C1876 1.355 . S
C1875 C1877 1.415 . S
C1876 C1875 1.355 . S
C1876 C1878 1.419 . S
C1877 C1872 1.425 . S
C1877 C1874 1.409 . S
C1877 C1875 1.415 . S
C1878 H1868 0.930 . S
C1878 C1876 1.419 . S
C1878 C1879 1.362 . S
C1879 H1869 0.930 . S
C1879 C1872 1.409 . S
C1879 C1878 1.362 . S
H1880 C1886 0.930 . S
H1881 C1889 0.930 . S
H1882 C1890 0.930 . S
H1883 C1891 0.930 . S
H1884 C1894 0.930 . S
H1885 C1895 0.930 . S
C1886 H1880 0.930 . S
C1886 C1887 1.355 . S
C1886 C1888 1.415 1_545 S
C1887 C1886 1.355 . S
C1887 C1889 1.419 . S
C1888 C1886 1.415 1_565 S
C1888 C1893 1.425 . S
C1888 C1895 1.409 . S
C1889 H1881 0.930 . S
C1889 C1887 1.419 . S
C1889 C1890 1.362 1_545 S
C1890 H1882 0.930 . S
C1890 C1889 1.362 1_565 S
C1890 C1893 1.409 . S
C1891 H1883 0.930 . S
C1891 C1892 1.355 . S
C1891 C1893 1.415 . S
C1892 C1891 1.355 . S
C1892 C1894 1.419 . S
C1893 C1888 1.425 . S
C1893 C1890 1.409 . S
C1893 C1891 1.415 . S
C1894 H1884 0.930 . S
C1894 C1892 1.419 . S
C1894 C1895 1.362 . S
C1895 H1885 0.930 . S
C1895 C1888 1.409 . S
C1895 C1894 1.362 . S
H1896 C1902 0.930 . S
H1897 C1905 0.930 . S
H1898 C1906 0.930 . S
H1899 C1907 0.930 . S
H1900 C1910 0.930 . S
H1901 C1911 0.930 . S
C1902 H1896 0.930 . S
C1902 C1903 1.355 . S
C1902 C1904 1.415 . S
C1903 C1902 1.355 . S
C1903 C1905 1.419 . S
C1904 C1902 1.415 . S
C1904 C1909 1.425 1_455 S
C1904 C1911 1.409 . S
C1905 H1897 0.930 . S
C1905 C1903 1.419 . S
C1905 C1906 1.362 1_455 S
C1906 H1898 0.930 . S
C1906 C1905 1.362 1_655 S
C1906 C1909 1.409 . S
C1907 H1899 0.930 . S
C1907 C1908 1.355 . S
C1907 C1909 1.415 . S
C1908 C1907 1.355 . S
C1908 C1910 1.419 1_655 S
C1909 C1904 1.425 1_655 S
C1909 C1906 1.409 . S
C1909 C1907 1.415 . S
C1910 H1900 0.930 . S
C1910 C1908 1.419 1_455 S
C1910 C1911 1.362 . S
C1911 H1901 0.930 . S
C1911 C1904 1.409 . S
C1911 C1910 1.362 . S
H1912 C1918 0.930 . S
H1913 C1921 0.930 . S
H1914 C1922 0.930 1_565 S
H1915 C1923 0.930 . S
H1916 C1926 0.930 . S
H1917 C1927 0.930 . S
C1918 H1912 0.930 . S
C1918 C1919 1.355 . S
C1918 C1920 1.415 . S
C1919 C1918 1.355 . S
C1919 C1921 1.419 . S
C1920 C1918 1.415 . S
C1920 C1925 1.425 . S
C1920 C1927 1.409 . S
C1921 H1913 0.930 . S
C1921 C1919 1.419 . S
C1921 C1922 1.362 . S
C1922 H1914 0.930 1_545 S
C1922 C1921 1.362 . S
C1922 C1925 1.409 . S
C1923 H1915 0.930 . S
C1923 C1924 1.355 . S
C1923 C1925 1.415 1_565 S
C1924 C1923 1.355 . S
C1924 C1926 1.419 . S
C1925 C1920 1.425 . S
C1925 C1922 1.409 . S
C1925 C1923 1.415 1_545 S
C1926 H1916 0.930 . S
C1926 C1924 1.419 . S
C1926 C1927 1.362 1_565 S
C1927 H1917 0.930 . S
C1927 C1920 1.409 . S
C1927 C1926 1.362 1_545 S
H1928 C1934 0.930 . S
H1929 C1937 0.930 . S
H1930 C1938 0.930 . S
H1931 C1939 0.930 . S
H1932 C1942 0.930 . S
H1933 C1943 0.930 . S
C1934 H1928 0.930 . S
C1934 C1935 1.355 . S
C1934 C1936 1.415 . S
C1935 C1934 1.355 . S
C1935 C1937 1.419 . S
C1936 C1934 1.415 . S
C1936 C1941 1.425 1_455 S
C1936 C1943 1.409 . S
C1937 H1929 0.930 . S
C1937 C1935 1.419 . S
C1937 C1938 1.362 1_455 S
C1938 H1930 0.930 . S
C1938 C1937 1.362 1_655 S
C1938 C1941 1.409 . S
C1939 H1931 0.930 . S
C1939 C1940 1.355 . S
C1939 C1941 1.415 . S
C1940 C1939 1.355 . S
C1940 C1942 1.419 . S
C1941 C1936 1.425 1_655 S
C1941 C1938 1.409 . S
C1941 C1939 1.415 . S
C1942 H1932 0.930 . S
C1942 C1940 1.419 . S
C1942 C1943 1.362 1_655 S
C1943 H1933 0.930 . S
C1943 C1936 1.409 . S
C1943 C1942 1.362 1_455 S
H1944 C1950 0.930 . S
H1945 C1953 0.930 . S
H1946 C1954 0.930 . S
H1947 C1955 0.930 . S
H1948 C1958 0.930 . S
H1949 C1959 0.930 . S
C1950 H1944 0.930 . S
C1950 C1951 1.355 . S
C1950 C1952 1.415 . S
C1951 C1950 1.355 . S
C1951 C1953 1.419 . S
C1952 C1950 1.415 . S
C1952 C1957 1.425 . S
C1952 C1959 1.409 . S
C1953 H1945 0.930 . S
C1953 C1951 1.419 . S
C1953 C1954 1.362 . S
C1954 H1946 0.930 . S
C1954 C1953 1.362 . S
C1954 C1957 1.409 . S
C1955 H1947 0.930 . S
C1955 C1956 1.355 . S
C1955 C1957 1.415 . S
C1956 C1955 1.355 . S
C1956 C1958 1.419 . S
C1957 C1952 1.425 . S
C1957 C1954 1.409 . S
C1957 C1955 1.415 . S
C1958 H1948 0.930 . S
C1958 C1956 1.419 . S
C1958 C1959 1.362 . S
C1959 H1949 0.930 . S
C1959 C1952 1.409 . S
C1959 C1958 1.362 . S
H1960 C1966 0.930 . S
H1961 C1969 0.930 . S
H1962 C1970 0.930 . S
H1963 C1971 0.930 . S
H1964 C1974 0.930 . S
H1965 C1975 0.930 . S
C1966 H1960 0.930 . S
C1966 C1967 1.355 . S
C1966 C1968 1.415 . S
C1967 C1966 1.355 . S
C1967 C1969 1.419 . S
C1968 C1966 1.415 . S
C1968 C1973 1.425 . S
C1968 C1975 1.409 . S
C1969 H1961 0.930 . S
C1969 C1967 1.419 . S
C1969 C1970 1.362 . S
C1970 H1962 0.930 . S
C1970 C1969 1.362 . S
C1970 C1973 1.409 . S
C1971 H1963 0.930 . S
C1971 C1972 1.355 . S
C1971 C1973 1.415 . S
C1972 C1971 1.355 . S
C1972 C1974 1.419 . S
C1973 C1968 1.425 . S
C1973 C1970 1.409 . S
C1973 C1971 1.415 . S
C1974 H1964 0.930 . S
C1974 C1972 1.419 . S
C1974 C1975 1.362 . S
C1975 H1965 0.930 . S
C1975 C1968 1.409 . S
C1975 C1974 1.362 . S
H1976 C1982 0.930 . S
H1977 C1985 0.930 . S
H1978 C1986 0.930 . S
H1979 C1987 0.930 . S
H1980 C1990 0.930 . S
H1981 C1991 0.930 . S
C1982 H1976 0.930 . S
C1982 C1983 1.355 . S
C1982 C1984 1.415 . S
C1983 C1982 1.355 . S
C1983 C1985 1.419 . S
C1984 C1982 1.415 . S
C1984 C1989 1.425 . S
C1984 C1991 1.409 . S
C1985 H1977 0.930 . S
C1985 C1983 1.419 . S
C1985 C1986 1.362 . S
C1986 H1978 0.930 . S
C1986 C1985 1.362 . S
C1986 C1989 1.409 . S
C1987 H1979 0.930 . S
C1987 C1988 1.355 . S
C1987 C1989 1.415 . S
C1988 C1987 1.355 . S
C1988 C1990 1.419 . S
C1989 C1984 1.425 . S
C1989 C1986 1.409 . S
C1989 C1987 1.415 . S
C1990 H1980 0.930 . S
C1990 C1988 1.419 . S
C1990 C1991 1.362 . S
C1991 H1981 0.930 . S
C1991 C1984 1.409 . S
C1991 C1990 1.362 . S
H1992 C1998 0.930 . S
H1993 C2001 0.930 . S
H1994 C2002 0.927 1_556 S
H1995 C2003 0.930 . S
H1996 C2006 0.930 . S
H1997 C2007 0.930 . S
C1998 H1992 0.930 . S
C1998 C1999 1.355 . S
C1998 C2000 1.415 . S
C1999 C1998 1.355 . S
C1999 C2001 1.419 . S
C2000 C1998 1.415 . S
C2000 C2005 1.425 1_554 S
C2000 C2007 1.409 1_554 S
C2001 H1993 0.930 . S
C2001 C1999 1.419 . S
C2001 C2002 1.362 . S
C2002 H1994 0.927 1_554 S
C2002 C2001 1.362 . S
C2002 C2005 1.409 1_554 S
C2003 H1995 0.930 . S
C2003 C2004 1.355 . S
C2003 C2005 1.415 . S
C2004 C2003 1.355 . S
C2004 C2006 1.419 . S
C2005 C2000 1.425 1_556 S
C2005 C2002 1.409 1_556 S
C2005 C2003 1.415 . S
C2006 H1996 0.930 . S
C2006 C2004 1.419 . S
C2006 C2007 1.362 . S
C2007 H1997 0.930 . S
C2007 C2000 1.409 1_556 S
C2007 C2006 1.362 . S
H2008 C2014 0.930 . S
H2009 C2017 0.930 . S
H2010 C2018 0.930 . S
H2011 C2019 0.930 . S
H2012 C2022 0.930 . S
H2013 C2023 0.930 . S
C2014 H2008 0.930 . S
C2014 C2015 1.355 . S
C2014 C2016 1.415 . S
C2015 C2014 1.355 . S
C2015 C2017 1.419 . S
C2016 C2014 1.415 . S
C2016 C2021 1.425 . S
C2016 C2023 1.409 . S
C2017 H2009 0.930 . S
C2017 C2015 1.419 . S
C2017 C2018 1.362 . S
C2018 H2010 0.930 . S
C2018 C2017 1.362 . S
C2018 C2021 1.409 . S
C2019 H2011 0.930 . S
C2019 C2020 1.355 . S
C2019 C2021 1.415 . S
C2020 C2019 1.355 . S
C2020 C2022 1.419 . S
C2021 C2016 1.425 . S
C2021 C2018 1.409 . S
C2021 C2019 1.415 . S
C2022 H2012 0.930 . S
C2022 C2020 1.419 . S
C2022 C2023 1.362 . S
C2023 H2013 0.930 . S
C2023 C2016 1.409 . S
C2023 C2022 1.362 . S
H2024 C2030 0.930 . S
H2025 C2033 0.930 . S
H2026 C2034 0.930 . S
H2027 C2035 0.930 . S
H2028 C2038 0.930 . S
H2029 C2039 0.930 1_554 S
C2030 H2024 0.930 . S
C2030 C2031 1.355 . S
C2030 C2032 1.409 1_554 S
C2031 C2030 1.355 . S
C2031 C2033 1.419 . S
C2032 C2030 1.409 1_556 S
C2032 C2037 1.430 . S
C2032 C2039 1.411 . S
C2033 H2025 0.930 . S
C2033 C2031 1.419 . S
C2033 C2034 1.362 1_554 S
C2034 H2026 0.930 . S
C2034 C2033 1.362 1_556 S
C2034 C2037 1.409 . S
C2035 H2027 0.930 . S
C2035 C2036 1.355 . S
C2035 C2037 1.415 . S
C2036 C2035 1.355 . S
C2036 C2038 1.419 . S
C2037 C2032 1.430 . S
C2037 C2034 1.409 . S
C2037 C2035 1.415 . S
C2038 H2028 0.930 . S
C2038 C2036 1.419 . S
C2038 C2039 1.362 . S
C2039 H2029 0.930 1_556 S
C2039 C2032 1.411 . S
C2039 C2038 1.362 . S
C1279 C241 1.397 . S
C1284 C29 1.418 . S
C1295 C92 1.504 . S
C1300 C304 1.480 . S
C1311 C347 1.538 . S
C1316 C135 1.515 . S
C1327 C410 1.560 . S
C1332 C198 1.582 . S
C1343 C771 1.282 . S
C1348 C463 1.340 . S
C1359 C824 1.286 . S
C1364 C506 1.307 . S
C1375 C569 1.482 . S
C1380 C675 1.473 . S
C1391 C718 1.287 . S
C1396 C612 1.337 . S
C1407 C877 1.224 . S
C1412 C1142 1.282 . S
C1423 C940 1.579 . S
C1428 C1036 1.557 . S
C1439 C983 1.475 . S
C1444 C1089 1.467 . S
C1455 C1195 1.417 . S
C1460 C1248 1.412 . S
C1471 C188 1.711 . S
C1476 C294 1.700 . S
C1487 C39 2.037 . S
C1492 C357 2.058 . S
C1503 C400 1.705 . S
C1508 C82 1.736 . S
C1519 C145 2.066 . S
C1524 C251 2.073 . S
C1535 C1258 2.128 . S
C1540 C993 2.158 . S
C1551 C1046 2.360 . S
C1556 C1152 2.320 . S
C1567 C1099 2.138 . S
C1572 C1205 2.167 . S
C1583 C930 2.000 . S
C1588 C887 2.016 . S
C1599 C622 2.111 . S
C1604 C516 2.122 . S
C1615 C834 2.205 . S
C1620 C728 2.212 . S
C1631 C665 1.967 . S
C1636 C781 1.969 . S
C1647 C559 1.621 . S
C1652 C453 1.626 . S
C1663 C1188 1.648 . S
C1668 C22 1.649 . S
C1679 C870 1.485 . S
C1684 C91 1.462 . S
C1695 C1241 1.725 . S
C1700 C128 1.725 . S
C1711 C1135 1.552 1_655 S
C1716 C197 1.542 . S
C1727 C976 1.651 . S
C1732 C234 1.653 . S
C1743 C303 1.579 . S
C1748 C1029 1.586 . S
C1759 C1082 1.751 . S
C1764 C340 1.746 . S
C1775 C939 1.527 . S
C1780 C409 1.532 . S
C1791 C711 1.527 . S
C1796 C462 1.517 . S
C1807 C764 1.508 . S
C1812 C499 1.506 . S
C1823 C817 1.305 . S
C1828 C568 1.290 . S
C1839 C605 1.418 . S
C1844 C674 1.415 . S
C1855 C287 1.720 . S
C1860 C552 1.735 . S
C1871 C356 2.008 . S
C1876 C621 2.012 . S
C1887 C446 1.801 . S
C1892 C393 1.808 . S
C1903 C250 1.986 . S
C1908 C515 1.988 . S
C1919 C780 1.817 . S
C1924 C181 1.813 . S
C1935 C38 1.975 . S
C1940 C833 1.976 . S
C1951 C658 1.725 . S
C1956 C75 1.734 . S
C1967 C144 1.997 . S
C1972 C727 2.004 . S
C1983 C923 2.055 . S
C1988 C1257 2.057 . S
C1999 C1151 2.101 . S
C2004 C992 2.102 . S
C2015 C1204 2.148 . S
C2020 C1045 2.153 . S
C2031 C886 2.112 . S
C2036 C1098 2.109 . S
