# Generated by pormake.
# Topology vcr, (7)-cn, num edge types: 1
# Building blocks:
#     Node 0, Type 0, BuildingBlock: HICVOG_clean_sbu_0, # of connection points: 7
#     Node 1, Type 0, BuildingBlock: HICVOG_clean_sbu_0, # of connection points: 7
#     Node 2, Type 0, BuildingBlock: HICVOG_clean_sbu_0, # of connection points: 7
#     Node 3, Type 0, BuildingBlock: HICVOG_clean_sbu_0, # of connection points: 7
#     Node 4, Type 0, BuildingBlock: HICVOG_clean_sbu_0, # of connection points: 7
#     Node 5, Type 0, BuildingBlock: HICVOG_clean_sbu_0, # of connection points: 7
#     Node 6, Type 0, BuildingBlock: HICVOG_clean_sbu_0, # of connection points: 7
#     Node 7, Type 0, BuildingBlock: HICVOG_clean_sbu_0, # of connection points: 7
#     Edge 8, Type (0, 0), BuildingBlock: EZIPEK_clean_linker_0, # of connection points: 2
#     Edge 9, Type (0, 0), BuildingBlock: EZIPEK_clean_linker_0, # of connection points: 2
#     Edge 10, Type (0, 0), BuildingBlock: EZIPEK_clean_linker_0, # of connection points: 2
#     Edge 11, Type (0, 0), BuildingBlock: EZIPEK_clean_linker_0, # of connection points: 2
#     Edge 12, Type (0, 0), BuildingBlock: EZIPEK_clean_linker_0, # of connection points: 2
#     Edge 13, Type (0, 0), BuildingBlock: EZIPEK_clean_linker_0, # of connection points: 2
#     Edge 14, Type (0, 0), BuildingBlock: EZIPEK_clean_linker_0, # of connection points: 2
#     Edge 15, Type (0, 0), BuildingBlock: EZIPEK_clean_linker_0, # of connection points: 2
#     Edge 16, Type (0, 0), BuildingBlock: EZIPEK_clean_linker_0, # of connection points: 2
#     Edge 17, Type (0, 0), BuildingBlock: EZIPEK_clean_linker_0, # of connection points: 2
#     Edge 18, Type (0, 0), BuildingBlock: EZIPEK_clean_linker_0, # of connection points: 2
#     Edge 19, Type (0, 0), BuildingBlock: EZIPEK_clean_linker_0, # of connection points: 2
#     Edge 20, Type (0, 0), BuildingBlock: EZIPEK_clean_linker_0, # of connection points: 2
#     Edge 21, Type (0, 0), BuildingBlock: EZIPEK_clean_linker_0, # of connection points: 2
#     Edge 22, Type (0, 0), BuildingBlock: EZIPEK_clean_linker_0, # of connection points: 2
#     Edge 23, Type (0, 0), BuildingBlock: EZIPEK_clean_linker_0, # of connection points: 2
#     Edge 24, Type (0, 0), BuildingBlock: EZIPEK_clean_linker_0, # of connection points: 2
#     Edge 25, Type (0, 0), BuildingBlock: EZIPEK_clean_linker_0, # of connection points: 2
#     Edge 26, Type (0, 0), BuildingBlock: EZIPEK_clean_linker_0, # of connection points: 2
#     Edge 27, Type (0, 0), BuildingBlock: EZIPEK_clean_linker_0, # of connection points: 2
#     Edge 28, Type (0, 0), BuildingBlock: EZIPEK_clean_linker_0, # of connection points: 2
#     Edge 29, Type (0, 0), BuildingBlock: EZIPEK_clean_linker_0, # of connection points: 2
#     Edge 30, Type (0, 0), BuildingBlock: EZIPEK_clean_linker_0, # of connection points: 2
#     Edge 31, Type (0, 0), BuildingBlock: EZIPEK_clean_linker_0, # of connection points: 2
#     Edge 32, Type (0, 0), BuildingBlock: EZIPEK_clean_linker_0, # of connection points: 2
#     Edge 33, Type (0, 0), BuildingBlock: EZIPEK_clean_linker_0, # of connection points: 2
#     Edge 34, Type (0, 0), BuildingBlock: EZIPEK_clean_linker_0, # of connection points: 2
#     Edge 35, Type (0, 0), BuildingBlock: EZIPEK_clean_linker_0, # of connection points: 2
# Relax obj value: 0.332
# Max RMSD: 0.280
# Mean RMSD: 0.280
data_MOF--net-vcr--node1-HICVOG_clean_sbu_0--edge1-EZIPEK_clean_linker_0
_symmetry_space_group_name_H-M    P1
_symmetry_Int_Tables_number       1
_symmetry_cell_setting            triclinic
loop_
_symmetry_equiv_pos_as_xyz
'x, y, z'
_cell_length_a     26.691595
_cell_length_b     35.579198
_cell_length_c     15.769736
_cell_angle_alpha  89.783818
_cell_angle_beta   89.959185
_cell_angle_gamma 90.170136
loop_
_atom_site_label
_atom_site_type_symbol
_atom_site_fract_x
_atom_site_fract_y
_atom_site_fract_z
_atom_type_partial_charge
Zn0 Zn 0.17903 0.13107 0.20387 0.0
C1 C 0.09005 0.06426 0.07206 0.0
N2 N 0.12353 0.03819 0.0953 0.0
C3 C 0.15993 0.05887 0.13038 0.0
N4 N 0.14901 0.09583 0.12786 0.0
N5 N 0.10538 0.09953 0.08937 0.0
C6 C 0.98692 0.16262 0.94735 0.0
O7 O 1.00259 0.19763 0.94918 0.0
O8 O 0.25592 0.12616 0.18577 0.0
Zn9 Zn 0.08417 0.14571 0.03479 0.0
N10 N 0.15387 0.11609 0.31529 0.0
C11 C 0.08481 0.08825 0.3889 0.0
C12 C 0.10881 0.0979 0.31375 0.0
C13 C 0.17438 0.12708 0.39033 0.0
N14 N 0.10518 0.09903 0.4634 0.0
C15 C 0.14892 0.11857 0.46631 0.0
O16 O 0.08373 0.19166 0.11356 0.0
C17 C 0.11501 0.20393 0.16846 0.0
O18 O 0.15104 0.18377 0.19606 0.0
H19 H 0.09124 0.09079 0.25467 0.0
H20 H 0.20871 0.14334 0.39073 0.0
C21 C 0.13178 0.15146 0.86742 0.0
C22 C 0.17337 0.15802 0.81454 0.0
C23 C 0.22141 0.17631 0.93329 0.0
C24 C 0.18072 0.16875 0.98597 0.0
N25 N 0.13652 0.15684 0.95241 0.0
N26 N 0.21704 0.17041 0.84883 0.0
H27 H 0.09676 0.14115 0.84174 0.0
C28 C 0.28579 0.15223 0.162 0.0
O29 O 0.26959 0.18695 0.15854 0.0
O30 O 0.01504 0.13686 0.97742 0.0
H31 H 0.18479 0.17163 0.0534 0.0
H32 H 0.04956 0.07318 0.388 0.0
H33 H 0.25661 0.18589 0.95959 0.0
Zn34 Zn 0.43523 0.90438 0.04124 0.0
C35 C 0.35609 0.99378 0.1243 0.0
N36 N 0.39109 1.01375 0.08347 0.0
C37 C 0.4243 0.98727 0.06203 0.0
N38 N 0.41013 0.95236 0.08587 0.0
N39 N 0.36735 0.95685 0.12704 0.0
C40 C 0.24455 0.9162 0.12524 0.0
O41 O 0.27534 0.91618 0.06033 0.0
O42 O 0.50339 0.91134 0.97852 0.0
Zn43 Zn 0.34014 0.92366 0.21233 0.0
N44 N 0.3871 0.88763 0.95636 0.0
C45 C 0.3176 0.84831 0.92165 0.0
C46 C 0.35215 0.8618 0.98046 0.0
C47 C 0.38876 0.90051 0.87499 0.0
N48 N 0.31905 0.86128 0.84075 0.0
C49 C 0.35363 0.88716 0.81586 0.0
O50 O 0.37334 0.87343 0.21396 0.0
C51 C 0.4076 0.85141 0.18851 0.0
O52 O 0.4372 0.86077 0.12808 0.0
H53 H 0.35097 0.85167 0.04479 0.0
H54 H 0.41738 0.92048 0.85627 0.0
C55 C 0.34443 0.93053 0.39715 0.0
C56 C 0.36937 0.94076 0.47244 0.0
C57 C 0.4258 0.97832 0.3931 0.0
C58 C 0.40297 0.96657 0.31855 0.0
N59 N 0.3619 0.94378 0.32143 0.0
N60 N 0.40892 0.96482 0.46819 0.0
H61 H 0.31383 0.9105 0.3984 0.0
C62 C 0.54646 0.90223 0.007 0.0
O63 O 0.5501 0.88875 0.08439 0.0
O64 O 0.26312 0.91824 0.19968 0.0
H65 H 0.41864 0.97534 0.25875 0.0
H66 H 0.28997 0.82754 0.94003 0.0
H67 H 0.4579 0.99694 0.39116 0.0
Zn68 Zn 0.18209 0.42559 0.29205 0.0
C69 C 0.09308 0.49056 0.42949 0.0
N70 N 0.12624 0.51716 0.40653 0.0
C71 C 0.16199 0.49701 0.36833 0.0
N72 N 0.15109 0.46001 0.36886 0.0
N73 N 0.10809 0.45559 0.40907 0.0
C74 C 0.99034 0.38901 0.54446 0.0
O75 O 1.00558 0.35425 0.53422 0.0
O76 O 0.25877 0.42947 0.31427 0.0
Zn77 Zn 0.08732 0.4086 0.46142 0.0
N78 N 0.15974 0.44217 0.17994 0.0
C79 C 0.09377 0.47264 0.10424 0.0
C80 C 0.11665 0.46268 0.18005 0.0
C81 C 0.1791 0.42917 0.10564 0.0
N82 N 0.11301 0.45986 0.03055 0.0
C83 C 0.15455 0.43794 0.029 0.0
O84 O 0.08645 0.36368 0.38 0.0
C85 C 0.11698 0.35232 0.32305 0.0
O86 O 0.15281 0.37299 0.29586 0.0
H87 H 0.09951 0.47125 0.23849 0.0
H88 H 0.21158 0.41103 0.10641 0.0
C89 C 0.13458 0.40244 0.6285 0.0
C90 C 0.17535 0.39448 0.68209 0.0
C91 C 0.22246 0.37395 0.5641 0.0
C92 C 0.1826 0.38276 0.51078 0.0
N93 N 0.13924 0.39647 0.54365 0.0
N94 N 0.21818 0.38036 0.64842 0.0
H95 H 0.10028 0.41418 0.65356 0.0
C96 C 0.28902 0.40245 0.32851 0.0
O97 O 0.27334 0.36775 0.31922 0.0
O98 O 0.01869 0.41594 0.52037 0.0
H99 H 0.18663 0.3793 0.4434 0.0
H100 H 0.06012 0.48952 0.10405 0.0
H101 H 0.25702 0.36298 0.53837 0.0
Zn102 Zn 0.43238 0.64332 0.47859 0.0
C103 C 0.36133 0.55754 0.36953 0.0
N104 N 0.3974 0.53603 0.40294 0.0
C105 C 0.43023 0.56161 0.43171 0.0
N106 N 0.41466 0.59732 0.41903 0.0
N107 N 0.37173 0.59435 0.37792 0.0
C108 C 0.23486 0.6543 0.34192 0.0
O109 O 0.25375 0.68821 0.34909 0.0
O110 O 0.49799 0.6376 0.54746 0.0
Zn111 Zn 0.3408 0.6313 0.30565 0.0
N112 N 0.37658 0.65255 0.55544 0.0
C113 C 0.29001 0.66791 0.56887 0.0
C114 C 0.33218 0.66175 0.51874 0.0
C115 C 0.38022 0.64865 0.64109 0.0
N116 N 0.29336 0.66346 0.65406 0.0
C117 C 0.33734 0.65383 0.69148 0.0
O118 O 0.36908 0.68387 0.31671 0.0
C119 C 0.40525 0.70327 0.34651 0.0
O120 O 0.43543 0.69012 0.40208 0.0
H121 H 0.3293 0.66379 0.45093 0.0
H122 H 0.41556 0.64062 0.66936 0.0
C123 C 0.34185 0.62766 0.11865 0.0
C124 C 0.36702 0.62071 0.04176 0.0
C125 C 0.43558 0.59523 0.11716 0.0
C126 C 0.4117 0.6034 0.19307 0.0
N127 N 0.36483 0.61845 0.19297 0.0
N128 N 0.41287 0.60427 0.0433 0.0
H129 H 0.30569 0.64133 0.1194 0.0
C130 C 0.54079 0.64583 0.51634 0.0
O131 O 0.54361 0.65694 0.43695 0.0
O132 O 0.26341 0.6273 0.31994 0.0
H133 H 0.43102 0.59827 0.25175 0.0
H134 H 0.25466 0.67554 0.54019 0.0
H135 H 0.47249 0.58275 0.11688 0.0
Zn136 Zn 0.84199 0.92168 0.78285 0.0
C137 C 0.93044 0.98961 0.91692 0.0
N138 N 0.89685 1.01531 0.89213 0.0
C139 C 0.86121 0.99413 0.85676 0.0
N140 N 0.87259 0.95726 0.85991 0.0
N141 N 0.91585 0.95402 0.89993 0.0
C142 C 0.04433 0.91592 0.98658 0.0
O143 O 0.04701 0.92311 0.90497 0.0
O144 O 0.7653 0.92479 0.80514 0.0
Zn145 Zn 0.93492 0.90673 0.95273 0.0
N146 N 0.86447 0.93862 0.66971 0.0
C147 C 0.9279 0.97334 0.59614 0.0
C148 C 0.90672 0.96025 0.67109 0.0
C149 C 0.84539 0.9266 0.59416 0.0
N150 N 0.90857 0.96197 0.52136 0.0
C151 C 0.86845 0.93846 0.51789 0.0
O152 O 0.93782 0.86315 0.86908 0.0
C153 C 0.90697 0.8497 0.81509 0.0
O154 O 0.86937 0.86831 0.78799 0.0
H155 H 0.92405 0.96786 0.72996 0.0
H156 H 0.81419 0.90711 0.59339 0.0
C157 C 0.88456 0.90235 0.11607 0.0
C158 C 0.84391 0.89425 0.17006 0.0
C159 C 0.79871 0.86972 0.05375 0.0
C160 C 0.83865 0.87842 9e-05 0.0
N161 N 0.88097 0.89437 0.03195 0.0
N162 N 0.80208 0.87796 0.13741 0.0
H163 H 0.91842 0.9151 0.1406 0.0
C164 C 0.73719 0.89738 0.8276 0.0
O165 O 0.75539 0.86315 0.82734 0.0
O166 O 1.00164 0.90895 0.01954 0.0
H167 H 0.83556 0.87277 0.93344 0.0
H168 H 0.96051 0.99147 0.59734 0.0
H169 H 0.76496 0.85699 0.02881 0.0
Zn170 Zn 0.58566 0.13819 0.94636 0.0
C171 C 0.66154 0.05218 0.85277 0.0
N172 N 0.62558 0.03086 0.88762 0.0
C173 C 0.5913 0.05648 0.90966 0.0
N174 N 0.6059 0.09199 0.89196 0.0
N175 N 0.64982 0.08901 0.85401 0.0
C176 C 0.78309 0.15296 0.81882 0.0
O177 O 0.76174 0.18608 0.82328 0.0
O178 O 0.51959 0.13195 0.01479 0.0
Zn179 Zn 0.6797 0.12496 0.77593 0.0
N180 N 0.63989 0.1504 0.02467 0.0
C181 C 0.72313 0.17367 0.04233 0.0
C182 C 0.68252 0.16495 0.99044 0.0
C183 C 0.63669 0.14356 0.10948 0.0
N184 N 0.72005 0.16681 0.12678 0.0
C185 C 0.67799 0.1517 0.16186 0.0
O186 O 0.6491 0.1774 0.77986 0.0
C187 C 0.61182 0.19599 0.80811 0.0
O188 O 0.58174 0.18262 0.86387 0.0
H189 H 0.68519 0.16948 0.92323 0.0
H190 H 0.60271 0.13158 0.13575 0.0
C191 C 0.67738 0.12071 0.58765 0.0
C192 C 0.65574 0.10825 0.51097 0.0
C193 C 0.59884 0.07026 0.58796 0.0
C194 C 0.61872 0.08369 0.66334 0.0
N195 N 0.65896 0.10736 0.66278 0.0
N196 N 0.61752 0.08301 0.51358 0.0
H197 H 0.707 0.14155 0.58753 0.0
C198 C 0.47663 0.14145 0.98657 0.0
O199 O 0.473 0.15432 0.90866 0.0
O200 O 0.75699 0.12457 0.79599 0.0
H201 H 0.60196 0.07479 0.72186 0.0
H202 H 0.75709 0.18541 0.01555 0.0
H203 H 0.56777 0.05066 0.58852 0.0
Zn204 Zn 0.8405 0.62712 0.72185 0.0
C205 C 0.92785 0.55779 0.5906 0.0
N206 N 0.89461 0.53213 0.61799 0.0
C207 C 0.85959 0.55351 0.65476 0.0
N208 N 0.87086 0.59035 0.6491 0.0
N209 N 0.9135 0.5933 0.60721 0.0
C210 C 0.02969 0.65681 0.46277 0.0
O211 O 0.01362 0.69157 0.46827 0.0
O212 O 0.76367 0.62457 0.70169 0.0
Zn213 Zn 0.93414 0.63884 0.55066 0.0
N214 N 0.86269 0.61167 0.83437 0.0
C215 C 0.93158 0.58511 0.9099 0.0
C216 C 0.90876 0.59521 0.83419 0.0
C217 C 0.83967 0.62036 0.90887 0.0
N218 N 0.909 0.59392 0.98387 0.0
C219 C 0.86411 0.61178 0.98573 0.0
O220 O 0.93778 0.68414 0.62981 0.0
C221 C 0.90774 0.69797 0.68457 0.0
O222 O 0.87029 0.67972 0.71402 0.0
H223 H 0.92827 0.59017 0.77568 0.0
H224 H 0.8044 0.63529 0.90839 0.0
C225 C 0.88299 0.64182 0.38656 0.0
C226 C 0.8412 0.64922 0.33483 0.0
C227 C 0.79761 0.67352 0.45288 0.0
C228 C 0.83855 0.66548 0.50442 0.0
N229 N 0.88067 0.65014 0.47061 0.0
N230 N 0.79967 0.66498 0.36937 0.0
H231 H 0.91648 0.62916 0.36064 0.0
C232 C 0.73558 0.65216 0.68125 0.0
O233 O 0.7544 0.6863 0.68047 0.0
O234 O 1.00204 0.63019 0.49064 0.0
H235 H 0.83627 0.67099 0.57119 0.0
H236 H 0.96773 0.57145 0.91001 0.0
H237 H 0.76409 0.68584 0.47937 0.0
Zn238 Zn 0.68173 0.41673 0.71432 0.0
C239 C 0.59241 0.48944 0.59637 0.0
N240 N 0.62554 0.51413 0.62775 0.0
C241 C 0.66157 0.49175 0.65808 0.0
N242 N 0.65091 0.45523 0.64552 0.0
N243 N 0.60778 0.45342 0.60471 0.0
C244 C 0.4812 0.40834 0.50181 0.0
O245 O 0.47708 0.39709 0.58094 0.0
O246 O 0.75921 0.41957 0.69866 0.0
Zn247 Zn 0.58958 0.4085 0.54222 0.0
N248 N 0.65823 0.42896 0.82767 0.0
C249 C 0.58609 0.44972 0.90341 0.0
C250 C 0.61017 0.44181 0.82758 0.0
C251 C 0.68253 0.422 0.90205 0.0
N252 N 0.60998 0.44272 0.9773 0.0
C253 C 0.6572 0.4286 0.97905 0.0
O254 O 0.58448 0.36193 0.61852 0.0
C255 C 0.61453 0.34693 0.6719 0.0
O256 O 0.6524 0.36433 0.70182 0.0
H257 H 0.58998 0.44523 0.76898 0.0
H258 H 0.71988 0.41026 0.9014 0.0
C259 C 0.64287 0.40343 0.38022 0.0
C260 C 0.68621 0.39868 0.33068 0.0
C261 C 0.73235 0.38342 0.4538 0.0
C262 C 0.68978 0.38927 0.50313 0.0
N263 N 0.64576 0.39898 0.46585 0.0
N264 N 0.72981 0.38864 0.36879 0.0
H265 H 0.60776 0.41158 0.3513 0.0
C266 C 0.78645 0.3924 0.67305 0.0
O267 O 0.76607 0.35906 0.66326 0.0
O268 O 0.52463 0.41573 0.47224 0.0
H269 H 0.69203 0.38669 0.57082 0.0
H270 H 0.54817 0.46036 0.90368 0.0
H271 H 0.7674 0.37538 0.4829 0.0
C272 C 0.38853 0.1179 0.01085 0.0
C273 C 0.43036 0.13885 0.04051 0.0
C274 C 0.37989 0.15955 0.16285 0.0
C275 C 0.33639 0.14339 0.12599 0.0
N276 N 0.29842 0.11019 0.00917 0.0
N277 N 0.46486 0.18238 0.14224 0.0
C278 C 0.34058 0.12286 0.04911 0.0
C279 C 0.42603 0.16 0.11662 0.0
N280 N 0.39477 0.09274 0.94651 0.0
N281 N 0.37714 0.17406 0.24282 0.0
H282 H 0.49907 0.18379 0.11051 0.0
H283 H 0.46199 0.20176 0.19129 0.0
H284 H 0.34403 0.17395 0.27808 0.0
H285 H 0.40833 0.18285 0.27713 0.0
H286 H 0.36739 0.0734 0.92872 0.0
H287 H 0.42905 0.08879 0.91622 0.0
H288 H 0.29846 0.09944 0.94783 0.0
H289 H 0.26255 0.11318 0.03421 0.0
C290 C 0.15291 0.93655 0.13966 0.0
C291 C 0.18949 0.91095 0.10869 0.0
C292 C 0.12726 0.88396 0.011 0.0
C293 C 0.09178 0.91141 0.03656 0.0
N294 N 0.06611 0.95795 0.13812 0.0
N295 N 0.20565 0.85201 0.04025 0.0
C296 C 0.103 0.93561 0.10577 0.0
C297 C 0.17479 0.88218 0.05179 0.0
N298 N 0.16622 0.96243 0.19934 0.0
N299 N 0.11561 0.85957 0.94712 0.0
H300 H 0.23934 0.84897 0.07309 0.0
H301 H 0.19572 0.8282 0.00594 0.0
H302 H 0.0797 0.85714 0.92166 0.0
H303 H 0.14193 0.84265 0.91711 0.0
H304 H 0.14302 0.98368 0.22112 0.0
H305 H 0.20147 0.96327 0.22721 0.0
H306 H 0.06978 0.97443 0.19204 0.0
H307 H 0.02987 0.95834 0.11396 0.0
C308 C 0.42919 0.39147 0.37187 0.0
C309 C 0.43487 0.412 0.44861 0.0
C310 C 0.34543 0.42834 0.44406 0.0
C311 C 0.34004 0.40936 0.36537 0.0
N312 N 0.37969 0.38058 0.24493 0.0
N313 N 0.40151 0.45866 0.54335 0.0
C314 C 0.38295 0.39341 0.32629 0.0
C315 C 0.39395 0.43325 0.47989 0.0
N316 N 0.46663 0.36828 0.34486 0.0
N317 N 0.30406 0.43924 0.48841 0.0
H318 H 0.43656 0.46319 0.5707 0.0
H319 H 0.37432 0.47786 0.5623 0.0
H320 H 0.26767 0.43527 0.46651 0.0
H321 H 0.30575 0.44881 0.55072 0.0
H322 H 0.46236 0.3494 0.29507 0.0
H323 H 0.50072 0.36551 0.37635 0.0
H324 H 0.41067 0.37206 0.20978 0.0
H325 H 0.34666 0.38201 0.20969 0.0
C326 C 0.09181 0.66329 0.34315 0.0
C327 C 0.08043 0.6494 0.42555 0.0
C328 C 0.16812 0.62874 0.44092 0.0
C329 C 0.18092 0.64796 0.36462 0.0
N330 N 0.15527 0.68384 0.24246 0.0
N331 N 0.10857 0.62078 0.55608 0.0
C332 C 0.14272 0.66514 0.31536 0.0
C333 C 0.11857 0.63188 0.47465 0.0
N334 N 0.05358 0.67358 0.29036 0.0
N335 N 0.20365 0.60819 0.48247 0.0
H336 H 0.07338 0.62315 0.58409 0.0
H337 H 0.13587 0.61186 0.59865 0.0
H338 H 0.24098 0.60758 0.46357 0.0
H339 H 0.19559 0.58974 0.53206 0.0
H340 H 0.05856 0.68058 0.22676 0.0
H341 H 0.01596 0.67159 0.30797 0.0
H342 H 0.13063 0.70108 0.20925 0.0
H343 H 0.19137 0.6835 0.21702 0.0
C344 C 0.64339 0.88723 0.82912 0.0
C345 C 0.6865 0.90402 0.8659 0.0
C346 C 0.63415 0.92711 0.98339 0.0
C347 C 0.59282 0.90573 0.95331 0.0
N348 N 0.55951 0.86227 0.8503 0.0
N349 N 0.72395 0.93623 0.9845 0.0
C350 C 0.59757 0.88531 0.87622 0.0
C351 C 0.68202 0.92342 0.94418 0.0
N352 N 0.6461 0.8736 0.74836 0.0
N353 N 0.62752 0.95159 0.04891 0.0
H354 H 0.75978 0.93414 0.95883 0.0
H355 H 0.72378 0.946 0.04667 0.0
H356 H 0.59339 0.95453 0.08012 0.0
H357 H 0.65432 0.97137 0.06686 0.0
H358 H 0.615 0.86448 0.71426 0.0
H359 H 0.67893 0.87475 0.71244 0.0
H360 H 0.56286 0.8434 0.80033 0.0
H361 H 0.52564 0.85972 0.88272 0.0
C362 C 0.84896 0.13215 0.92461 0.0
C363 C 0.83684 0.14907 0.84533 0.0
C364 C 0.92587 0.16569 0.82544 0.0
C365 C 0.93656 0.1538 0.90964 0.0
N366 N 0.90754 0.12737 0.04208 0.0
N367 N 0.86329 0.1829 0.72051 0.0
C368 C 0.89812 0.13677 0.95944 0.0
C369 C 0.8753 0.16596 0.79571 0.0
N370 N 0.81311 0.11228 0.96757 0.0
N371 N 0.96453 0.17549 0.77278 0.0
H372 H 0.82752 0.1815 0.69403 0.0
H373 H 0.88796 0.19991 0.68641 0.0
H374 H 1.00196 0.17459 0.79173 0.0
H375 H 0.96019 0.18094 0.70831 0.0
H376 H 0.82058 0.09545 0.02015 0.0
H377 H 0.77609 0.11054 0.94716 0.0
H378 H 0.88 0.11897 0.08492 0.0
H379 H 0.94255 0.13047 0.07039 0.0
C380 C 0.67676 0.62485 0.57129 0.0
C381 C 0.68382 0.64577 0.647 0.0
C382 C 0.59511 0.665 0.64164 0.0
C383 C 0.58788 0.64282 0.56768 0.0
N384 N 0.61878 0.59414 0.47586 0.0
N385 N 0.6472 0.67906 0.76409 0.0
C386 C 0.62778 0.62035 0.53711 0.0
C387 C 0.64209 0.66372 0.68526 0.0
N388 N 0.71721 0.61154 0.528 0.0
N389 N 0.55825 0.68892 0.66766 0.0
H390 H 0.68089 0.67837 0.79761 0.0
H391 H 0.6172 0.68924 0.79937 0.0
H392 H 0.52353 0.69085 0.63778 0.0
H393 H 0.56335 0.70895 0.71485 0.0
H394 H 0.71479 0.60064 0.46691 0.0
H395 H 0.75382 0.6147 0.54943 0.0
H396 H 0.64486 0.57385 0.45826 0.0
H397 H 0.58359 0.59038 0.44862 0.0
C398 C 0.87837 0.37812 0.69362 0.0
C399 C 0.84043 0.39798 0.64907 0.0
C400 C 0.9024 0.41632 0.53995 0.0
C401 C 0.9402 0.39614 0.58435 0.0
N402 N 0.96732 0.36682 0.71416 0.0
N403 N 0.81846 0.44237 0.53938 0.0
C404 C 0.92903 0.37971 0.66446 0.0
C405 C 0.85338 0.41951 0.57592 0.0
N406 N 0.86582 0.35725 0.76346 0.0
N407 N 0.91208 0.4301 0.46048 0.0
H408 H 0.78133 0.44312 0.55926 0.0
H409 H 0.82693 0.46237 0.49316 0.0
H410 H 0.94686 0.42794 0.43095 0.0
H411 H 0.88479 0.44122 0.42061 0.0
H412 H 0.88998 0.33819 0.79233 0.0
H413 H 0.83014 0.3577 0.79051 0.0
H414 H 0.96264 0.35779 0.77653 0.0
H415 H 1.00484 0.36864 0.6959 0.0
C416 C 0.15791 0.29363 0.27105 0.0
C417 C 0.11301 0.31345 0.28755 0.0
C418 C 0.06608 0.25958 0.22987 0.0
C419 C 0.11176 0.24325 0.20141 0.0
N420 N 0.19923 0.25406 0.16994 0.0
N421 N 0.02346 0.31763 0.26431 0.0
C422 C 0.15709 0.26319 0.2142 0.0
C423 C 0.06661 0.29717 0.26186 0.0
N424 N 0.20112 0.30253 0.3126 0.0
N425 N 0.02272 0.23915 0.23019 0.0
H426 H 0.02227 0.34559 0.28347 0.0
H427 H 0.98982 0.30792 0.23885 0.0
H428 H 0.02077 0.21126 0.21068 0.0
H429 H 0.98977 0.24886 0.25792 0.0
H430 H 0.23393 0.28697 0.30569 0.0
H431 H 0.20193 0.32188 0.36209 0.0
H432 H 0.23232 0.26963 0.17422 0.0
H433 H 0.19873 0.23436 0.12113 0.0
C434 C 0.45529 0.75768 0.2817 0.0
C435 C 0.40989 0.74284 0.31553 0.0
C436 C 0.36416 0.79539 0.25329 0.0
C437 C 0.4098 0.81318 0.22874 0.0
N438 N 0.50029 0.81415 0.24068 0.0
N439 N 0.32497 0.75576 0.35837 0.0
C440 C 0.45598 0.79522 0.2489 0.0
C441 C 0.36561 0.76439 0.30935 0.0
N442 N 0.49716 0.73583 0.2774 0.0
N443 N 0.3193 0.80643 0.21984 0.0
H444 H 0.32593 0.73469 0.40455 0.0
H445 H 0.29301 0.77254 0.3602 0.0
H446 H 0.31618 0.8264 0.17171 0.0
H447 H 0.28593 0.79205 0.23197 0.0
H448 H 0.52951 0.74425 0.24542 0.0
H449 H 0.49814 0.70812 0.29886 0.0
H450 H 0.53428 0.80321 0.26175 0.0
H451 H 0.50252 0.84219 0.22189 0.0
C452 C 0.91828 0.7797 0.83753 0.0
C453 C 0.9145 0.81097 0.78156 0.0
C454 C 0.90988 0.76798 0.66007 0.0
C455 C 0.91565 0.73691 0.71573 0.0
N456 N 0.93892 0.71371 0.85374 0.0
N457 N 0.92113 0.83482 0.6387 0.0
C458 C 0.92421 0.74298 0.80338 0.0
C459 C 0.91466 0.80507 0.69253 0.0
N460 N 0.9131 0.78457 0.923 0.0
N461 N 0.89746 0.76228 0.577 0.0
H462 H 0.92626 0.86233 0.65981 0.0
H463 H 0.92708 0.83143 0.57398 0.0
H464 H 0.89411 0.73566 0.55022 0.0
H465 H 0.88665 0.78391 0.53627 0.0
H466 H 0.91053 0.76229 0.9657 0.0
H467 H 0.9068 0.81059 0.95104 0.0
H468 H 0.95131 0.71722 0.91585 0.0
H469 H 0.94361 0.68648 0.8307 0.0
C470 C 0.60095 0.24014 0.68474 0.0
C471 C 0.60397 0.23464 0.77385 0.0
C472 C 0.5986 0.30292 0.79355 0.0
C473 C 0.60473 0.30837 0.70487 0.0
N474 N 0.61672 0.28181 0.56578 0.0
N475 N 0.61106 0.26152 0.91385 0.0
C476 C 0.60667 0.2769 0.65012 0.0
C477 C 0.60362 0.26621 0.82872 0.0
N478 N 0.59111 0.21032 0.63312 0.0
N479 N 0.58711 0.33284 0.84397 0.0
H480 H 0.61615 0.23537 0.94245 0.0
H481 H 0.61645 0.28386 0.95529 0.0
H482 H 0.58236 0.35996 0.81994 0.0
H483 H 0.5771 0.3301 0.90756 0.0
H484 H 0.58245 0.21363 0.5692 0.0
H485 H 0.58591 0.18303 0.65604 0.0
H486 H 0.62453 0.2596 0.525 0.0
H487 H 0.62121 0.30818 0.53772 0.0
C488 C 0.28768 0.02583 0.2059 0.0
C489 C 0.30507 1.0086 0.13076 0.0
C490 C 0.23321 0.0333 0.05448 0.0
C491 C 0.21146 0.04428 0.13247 0.0
N492 N 0.21349 0.04139 0.28525 0.0
N493 N 0.29032 0.99139 0.98448 0.0
C494 C 0.23735 0.03799 0.20941 0.0
C495 C 0.27633 1.01064 0.05545 0.0
N496 N 0.31932 0.03224 0.27203 0.0
N497 N 0.2142 0.04608 0.97937 0.0
H498 H 0.32188 0.97428 0.98208 0.0
H499 H 0.2676 0.98925 0.93101 0.0
H500 H 0.18573 0.06593 0.97673 0.0
H501 H 0.23123 0.04129 0.92096 0.0
H502 H 0.30854 0.047 0.32602 0.0
H503 H 0.35761 0.02723 0.26748 0.0
H504 H 0.23045 0.03471 0.34291 0.0
H505 H 0.17504 0.0456 0.28866 0.0
C506 C 0.23547 0.52374 0.28751 0.0
C507 C 0.21356 0.51144 0.36458 0.0
C508 C 0.28458 0.5364 0.4431 0.0
C509 C 0.30977 0.54332 0.36548 0.0
N510 N 0.31339 0.53588 0.21374 0.0
N511 N 0.22153 0.49993 0.51518 0.0
C512 C 0.28659 0.53466 0.28732 0.0
C513 C 0.23947 0.51586 0.44222 0.0
N514 N 0.20714 0.52691 0.21604 0.0
N515 N 0.30279 0.55044 0.51758 0.0
H516 H 0.19012 0.48258 0.51669 0.0
H517 H 0.24132 0.49999 0.57202 0.0
H518 H 0.33465 0.5672 0.52092 0.0
H519 H 0.2829 0.5495 0.57438 0.0
H520 H 0.2208 0.53825 0.1595 0.0
H521 H 0.16856 0.52265 0.217 0.0
H522 H 0.29888 0.52702 0.15579 0.0
H523 H 0.35159 0.54198 0.21277 0.0
C524 C 0.73564 0.02668 0.77436 0.0
C525 C 0.71317 0.03855 0.85078 0.0
C526 C 0.78436 1.01471 0.93051 0.0
C527 C 0.80971 1.00812 0.85293 0.0
N528 N 0.81476 1.02029 0.70262 0.0
N529 N 0.7201 0.05024 0.00143 0.0
C530 C 0.78706 1.0177 0.77492 0.0
C531 C 0.73879 0.03459 0.92897 0.0
N532 N 0.70786 1.02219 0.70272 0.0
N533 N 0.80319 1.00136 0.00537 0.0
H534 H 0.68763 0.06633 0.00254 0.0
H535 H 0.73972 0.05091 0.05843 0.0
H536 H 0.83511 0.98474 0.00869 0.0
H537 H 0.78401 1.00284 0.06279 0.0
H538 H 0.72274 1.01144 0.64669 0.0
H539 H 0.66898 1.0242 0.70362 0.0
H540 H 0.79977 0.02929 0.64498 0.0
H541 H 0.85367 1.01873 0.70392 0.0
C542 C 0.73637 0.51493 0.73925 0.0
C543 C 0.71312 0.50573 0.66141 0.0
C544 C 0.78167 0.53467 0.58323 0.0
C545 C 0.80788 0.53971 0.66038 0.0
N546 N 0.81536 0.52648 0.80987 0.0
N547 N 0.71852 0.4995 0.50878 0.0
C548 C 0.78685 0.5275 0.73821 0.0
C549 C 0.7373 0.5133 0.58318 0.0
N550 N 0.71009 0.5127 0.81331 0.0
N551 N 0.79854 0.55104 0.51002 0.0
H552 H 0.68645 0.48294 0.50538 0.0
H553 H 0.73794 0.50065 0.45154 0.0
H554 H 0.8283 0.56994 0.50876 0.0
H555 H 0.77889 0.55026 0.45308 0.0
H556 H 0.72422 0.52213 0.87104 0.0
H557 H 0.67248 0.50479 0.8152 0.0
H558 H 0.80278 0.515 0.86696 0.0
H559 H 0.85325 0.53351 0.80942 0.0
C560 C 0.05102 0.04025 0.94206 0.0
C561 C 0.04492 0.05327 0.02599 0.0
C562 C 0.96997 1.01496 0.04442 0.0
C563 C 0.97583 1.00177 0.96056 0.0
N564 N 0.02064 1.00024 0.82843 0.0
N565 N 0.99473 0.06045 0.15088 0.0
C566 C 0.01638 1.0138 0.90913 0.0
C567 C 1.00295 0.04294 0.07523 0.0
N568 N 0.08999 0.05374 0.89467 0.0
N569 N 0.9335 0.9997 0.09471 0.0
H570 H 0.01781 0.08216 0.17216 0.0
H571 H 0.963 0.0563 0.18815 0.0
H572 H 0.91076 0.97781 0.07359 0.0
H573 H 0.92886 1.00586 0.15866 0.0
H574 H 0.09981 0.04427 0.83468 0.0
H575 H 0.11183 0.07615 0.91565 0.0
H576 H 0.04728 1.009 0.78449 0.0
H577 H 0.99748 0.97889 0.80577 0.0
C578 C 0.50457 0.03347 0.89864 0.0
C579 C 0.54483 0.04478 0.95116 0.0
C580 C 0.51172 1.00766 0.06903 0.0
C581 C 0.47028 0.99777 0.01788 0.0
N582 N 0.42431 1.00176 0.88711 0.0
N583 N 0.58431 0.04806 0.08759 0.0
C584 C 0.46614 1.01053 0.93308 0.0
C585 C 0.54758 0.03348 0.03704 0.0
N586 N 0.5037 0.04446 0.81552 0.0
N587 N 0.51638 0.99213 0.14809 0.0
H588 H 0.60977 0.068 0.06519 0.0
H589 H 0.58723 0.04316 0.15244 0.0
H590 H 0.49155 0.9718 0.17089 0.0
H591 H 0.54683 0.99648 0.188 0.0
H592 H 0.4793 0.03358 0.77035 0.0
H593 H 0.52831 0.06461 0.79144 0.0
H594 H 0.41553 1.01355 0.82855 0.0
H595 H 0.39717 0.98308 0.90943 0.0
C596 C 1.00391 0.50819 0.4261 0.0
C597 C 0.04725 0.50061 0.47475 0.0
C598 C 0.01667 0.5398 0.59016 0.0
C599 C 0.97244 0.54633 0.54328 0.0
N600 N 0.92296 0.53883 0.41728 0.0
N601 N 0.09113 0.50172 0.60737 0.0
C602 C 0.96582 0.53108 0.46115 0.0
C603 C 0.05249 0.51427 0.55826 0.0
N604 N 1.00024 0.49422 0.34567 0.0
N605 N 0.02443 0.55849 0.66458 0.0
H606 H 0.11593 0.4813 0.58587 0.0
H607 H 0.09554 0.50822 0.67122 0.0
H608 H 0.99913 0.57822 0.68777 0.0
H609 H 0.05773 0.55739 0.69877 0.0
H610 H 0.97234 0.50139 0.30265 0.0
H611 H 0.02585 0.47493 0.32161 0.0
H612 H 0.91219 0.52565 0.36143 0.0
H613 H 0.89806 0.5594 0.43739 0.0
C614 C 0.5139 0.53327 0.42641 0.0
C615 C 0.47552 0.54942 0.4763 0.0
C616 C 0.5105 0.52103 0.60441 0.0
C617 C 0.54717 0.50302 0.55366 0.0
N618 N 0.58275 0.48917 0.4172 0.0
N619 N 0.4344 0.55791 0.61048 0.0
C620 C 0.54837 0.50817 0.46466 0.0
C621 C 0.47325 0.54334 0.56491 0.0
N622 N 0.51797 0.54312 0.34276 0.0
N623 N 0.51217 0.51729 0.69076 0.0
H624 H 0.40922 0.57693 0.58425 0.0
H625 H 0.42621 0.55063 0.67293 0.0
H626 H 0.53651 0.4988 0.72139 0.0
H627 H 0.49088 0.53327 0.73245 0.0
H628 H 0.54717 0.53498 0.30327 0.0
H629 H 0.49403 0.56251 0.31431 0.0
H630 H 0.58343 0.4889 0.35128 0.0
H631 H 0.60882 0.4711 0.44422 0.0
C632 C 0.15515 0.17741 0.66522 0.0
C633 C 0.17169 0.14955 0.72313 0.0
C634 C 0.18854 0.10639 0.60595 0.0
C635 C 0.16568 0.13224 0.54973 0.0
N636 N 0.12504 0.19161 0.52365 0.0
N637 N 0.20256 0.08712 0.75176 0.0
C638 C 0.14897 0.16782 0.57849 0.0
C639 C 0.18844 0.11398 0.69431 0.0
N640 N 0.14589 0.21307 0.69317 0.0
N641 N 0.21047 0.07472 0.57422 0.0
H642 H 0.20392 0.092 0.81689 0.0
H643 H 0.20992 0.05931 0.73593 0.0
H644 H 0.21109 0.06874 0.50947 0.0
H645 H 0.23166 0.05612 0.6104 0.0
H646 H 0.13887 0.23571 0.65295 0.0
H647 H 0.14884 0.22076 0.75677 0.0
H648 H 0.10635 0.2158 0.54261 0.0
H649 H 0.12164 0.18619 0.45894 0.0
C650 C 0.37771 0.88865 0.57815 0.0
C651 C 0.35706 0.92411 0.55608 0.0
C652 C 0.32905 0.93323 0.70284 0.0
C653 C 0.35438 0.89979 0.72638 0.0
N654 N 0.40556 0.84655 0.69004 0.0
N655 N 0.31485 0.98118 0.59552 0.0
C656 C 0.37906 0.87752 0.66484 0.0
C657 C 0.3329 0.9466 0.61791 0.0
N658 N 0.39623 0.86574 0.51615 0.0
N659 N 0.3006 0.95172 0.76149 0.0
H660 H 0.3143 0.99077 0.5329 0.0
H661 H 0.3024 1.00105 0.63889 0.0
H662 H 0.29767 0.9429 0.82446 0.0
H663 H 0.27718 0.97417 0.74704 0.0
H664 H 0.40672 0.83795 0.52638 0.0
H665 H 0.39781 0.87346 0.4524 0.0
H666 H 0.42921 0.83145 0.65039 0.0
H667 H 0.40669 0.83717 0.75278 0.0
C668 C 0.15305 0.38715 0.91973 0.0
C669 C 0.17038 0.42302 0.94606 0.0
C670 C 0.19126 0.43981 0.79966 0.0
C671 C 0.17421 0.40391 0.77321 0.0
N672 N 0.14839 0.3407 0.80752 0.0
N673 N 0.21557 0.48009 0.91665 0.0
C674 C 0.15825 0.37663 0.83325 0.0
C675 C 0.19272 0.44822 0.88754 0.0
N676 N 0.12936 0.36401 0.97652 0.0
N677 N 0.20446 0.46621 0.74044 0.0
H678 H 0.21741 0.48668 0.98104 0.0
H679 H 0.23646 0.49815 0.87842 0.0
H680 H 0.20482 0.46067 0.67563 0.0
H681 H 0.2118 0.49424 0.75458 0.0
H682 H 0.11038 0.33959 0.95943 0.0
H683 H 0.12642 0.37021 0.04091 0.0
H684 H 0.14175 0.31848 0.84921 0.0
H685 H 0.15037 0.33241 0.74421 0.0
C686 C 0.35039 0.67679 0.83964 0.0
C687 C 0.33847 0.64693 0.78382 0.0
C688 C 0.32801 0.60401 0.90437 0.0
C689 C 0.34713 0.63225 0.95845 0.0
N690 N 0.37816 0.69519 0.97998 0.0
N691 N 0.31683 0.58194 0.7602 0.0
C692 C 0.35804 0.6688 0.92705 0.0
C693 C 0.32696 0.61052 0.81546 0.0
N694 N 0.35416 0.71269 0.80896 0.0
N695 N 0.31091 0.57105 0.93871 0.0
H696 H 0.3147 0.58594 0.69477 0.0
H697 H 0.31349 0.55387 0.77816 0.0
H698 H 0.31104 0.5659 0.00394 0.0
H699 H 0.29273 0.55029 0.90408 0.0
H700 H 0.35767 0.73626 0.84742 0.0
H701 H 0.35001 0.71929 0.74482 0.0
H702 H 0.39284 0.72075 0.95921 0.0
H703 H 0.38247 0.69076 0.04499 0.0
C704 C 0.8792 0.88252 0.3145 0.0
C705 C 0.84603 0.90294 0.26177 0.0
C706 C 0.81749 0.9394 0.38457 0.0
C707 C 0.85558 0.92252 0.43417 0.0
N708 N 0.92784 0.88197 0.44351 0.0
N709 N 0.78646 0.95319 0.24317 0.0
C710 C 0.88767 0.89498 0.39852 0.0
C711 C 0.81542 0.93179 0.29599 0.0
N712 N 0.9018 0.85071 0.2849 0.0
N713 N 0.78387 0.96303 0.42202 0.0
H714 H 0.78433 0.94865 0.17798 0.0
H715 H 0.76752 0.97722 0.26251 0.0
H716 H 0.78531 0.96975 0.48632 0.0
H717 H 0.75237 0.97358 0.39131 0.0
H718 H 0.92222 0.83251 0.32342 0.0
H719 H 0.89614 0.8405 0.2237 0.0
H720 H 0.95592 0.86545 0.41706 0.0
H721 H 0.93524 0.88995 0.5058 0.0
C722 C 0.70723 0.10885 0.37844 0.0
C723 C 0.66829 0.12479 0.42745 0.0
C724 C 0.64274 0.16363 0.30638 0.0
C725 C 0.67667 0.14374 0.25417 0.0
N726 N 0.73856 0.09491 0.23766 0.0
N727 N 0.59453 0.16371 0.43608 0.0
C728 C 0.70876 0.11596 0.28956 0.0
C729 C 0.63502 0.15141 0.39105 0.0
N730 N 0.74218 0.08653 0.41679 0.0
N731 N 0.61872 0.19472 0.27563 0.0
H732 H 0.58779 0.15583 0.49879 0.0
H733 H 0.56569 0.17948 0.40942 0.0
H734 H 0.62402 0.20484 0.21409 0.0
H735 H 0.59743 0.21253 0.31346 0.0
H736 H 0.77425 0.07685 0.38639 0.0
H737 H 0.74123 0.08023 0.48145 0.0
H738 H 0.75851 0.07148 0.25815 0.0
H739 H 0.74045 0.09898 0.17225 0.0
C740 C 0.85567 0.66105 0.09706 0.0
C741 C 0.84545 0.62393 0.06933 0.0
C742 C 0.83068 0.60352 0.21567 0.0
C743 C 0.84142 0.64059 0.24338 0.0
N744 N 0.85374 0.70635 0.21143 0.0
N745 N 0.813 0.56207 0.09702 0.0
C746 C 0.85031 0.66996 0.18422 0.0
C747 C 0.82946 0.59589 0.12729 0.0
N748 N 0.87361 0.68719 0.041 0.0
N749 N 0.82288 0.57558 0.27401 0.0
H750 H 0.81122 0.55627 0.03223 0.0
H751 H 0.79727 0.54109 0.13474 0.0
H752 H 0.82202 0.58056 0.33905 0.0
H753 H 0.82008 0.54722 0.25885 0.0
H754 H 0.8889 0.7128 0.05947 0.0
H755 H 0.87579 0.68246 0.97597 0.0
H756 H 0.85416 0.72942 0.17063 0.0
H757 H 0.8527 0.71385 0.27528 0.0
C758 C 0.68152 0.37478 0.18196 0.0
C759 C 0.68579 0.40558 0.23829 0.0
C760 C 0.6904 0.44924 0.11802 0.0
C761 C 0.67837 0.41921 0.06295 0.0
N762 N 0.66097 0.35348 0.04039 0.0
N763 N 0.69461 0.47216 0.26266 0.0
C764 C 0.67445 0.38184 0.09404 0.0
C765 C 0.69081 0.44287 0.20704 0.0
N766 N 0.68405 0.33882 0.21267 0.0
N767 N 0.70151 0.48375 0.08436 0.0
H768 H 0.69679 0.46838 0.32815 0.0
H769 H 0.69293 0.50031 0.2448 0.0
H770 H 0.70207 0.48869 0.01906 0.0
H771 H 0.71421 0.50646 0.11976 0.0
H772 H 0.68679 0.31521 0.17419 0.0
H773 H 0.68705 0.33258 0.27715 0.0
H774 H 0.65085 0.32669 0.06087 0.0
H775 H 0.65749 0.35721 0.9751 0.0
loop_
_geom_bond_atom_site_label_1
_geom_bond_atom_site_label_2
_geom_bond_distance
_geom_bond_site_symmetry_2
_ccdc_geom_bond_type
Zn0 N4 2.020 . S
Zn0 O8 2.019 . S
Zn0 N10 2.119 . S
Zn0 O18 1.975 . S
C1 N2 1.334 . S
C1 N5 1.336 . S
N2 C1 1.334 . S
N2 C3 1.334 . S
C3 N2 1.334 . S
C3 N4 1.336 . S
N4 Zn0 2.020 . S
N4 C3 1.336 . S
N4 N5 1.354 . S
N5 C1 1.336 . S
N5 N4 1.354 . S
N5 Zn9 2.020 . S
C6 O7 1.244 . S
C6 O30 1.257 1_554 S
O7 C6 1.244 . S
O8 Zn0 2.019 . S
O8 C28 1.257 . S
Zn9 N5 2.020 . S
Zn9 O16 1.975 . S
Zn9 N25 2.119 1_554 S
Zn9 O30 2.019 1_454 S
N10 Zn0 2.119 . S
N10 C12 1.334 . S
N10 C13 1.328 . S
C11 C12 1.391 . S
C11 N14 1.329 . S
C11 H32 0.930 . S
C12 N10 1.334 . S
C12 C11 1.391 . S
C12 H19 0.930 . S
C13 N10 1.328 . S
C13 C15 1.392 . S
C13 H20 0.930 . S
N14 C11 1.329 . S
N14 C15 1.331 . S
C15 C13 1.392 . S
C15 N14 1.331 . S
O16 Zn9 1.975 . S
O16 C17 1.252 . S
C17 O16 1.252 . S
C17 O18 1.252 . S
O18 Zn0 1.975 . S
O18 C17 1.252 . S
H19 C12 0.930 . S
H20 C13 0.930 . S
C21 C22 1.392 . S
C21 N25 1.328 . S
C21 H27 0.930 . S
C22 C21 1.392 . S
C22 N26 1.331 . S
C23 C24 1.391 . S
C23 N26 1.329 . S
C23 H33 0.930 . S
C24 C23 1.391 . S
C24 N25 1.334 . S
C24 H31 0.930 . S
N25 Zn9 2.119 1_556 S
N25 C21 1.328 . S
N25 C24 1.334 . S
N26 C22 1.331 . S
N26 C23 1.329 . S
H27 C21 0.930 . S
C28 O8 1.257 . S
C28 O29 1.244 . S
O29 C28 1.244 . S
O30 C6 1.257 1_556 S
O30 Zn9 2.019 1_656 S
H31 C24 0.930 . S
H32 C11 0.930 . S
H33 C23 0.930 . S
Zn34 N38 2.020 . S
Zn34 O42 2.019 1_554 S
Zn34 N44 2.119 1_554 S
Zn34 O52 1.975 . S
C35 N36 1.334 . S
C35 N39 1.336 . S
N36 C35 1.334 . S
N36 C37 1.334 . S
C37 N36 1.334 . S
C37 N38 1.336 . S
N38 Zn34 2.020 . S
N38 C37 1.336 . S
N38 N39 1.354 . S
N39 C35 1.336 . S
N39 N38 1.354 . S
N39 Zn43 2.020 . S
C40 O41 1.244 . S
C40 O64 1.257 . S
O41 C40 1.244 . S
O42 Zn34 2.019 1_556 S
O42 C62 1.257 1_556 S
Zn43 N39 2.020 . S
Zn43 O50 1.975 . S
Zn43 N59 2.119 . S
Zn43 O64 2.019 . S
N44 Zn34 2.119 1_556 S
N44 C46 1.334 . S
N44 C47 1.328 . S
C45 C46 1.391 . S
C45 N48 1.329 . S
C45 H66 0.930 . S
C46 N44 1.334 . S
C46 C45 1.391 . S
C46 H53 0.930 . S
C47 N44 1.328 . S
C47 C49 1.392 . S
C47 H54 0.930 . S
N48 C45 1.329 . S
N48 C49 1.331 . S
C49 C47 1.392 . S
C49 N48 1.331 . S
O50 Zn43 1.975 . S
O50 C51 1.252 . S
C51 O50 1.252 . S
C51 O52 1.252 . S
O52 Zn34 1.975 . S
O52 C51 1.252 . S
H53 C46 0.930 . S
H54 C47 0.930 . S
C55 C56 1.392 . S
C55 N59 1.328 . S
C55 H61 0.930 . S
C56 C55 1.392 . S
C56 N60 1.331 . S
C57 C58 1.391 . S
C57 N60 1.329 . S
C57 H67 0.930 . S
C58 C57 1.391 . S
C58 N59 1.334 . S
C58 H65 0.930 . S
N59 Zn43 2.119 . S
N59 C55 1.328 . S
N59 C58 1.334 . S
N60 C56 1.331 . S
N60 C57 1.329 . S
H61 C55 0.930 . S
C62 O42 1.257 1_554 S
C62 O63 1.244 . S
O63 C62 1.244 . S
O64 C40 1.257 . S
O64 Zn43 2.019 . S
H65 C58 0.930 . S
H66 C45 0.930 . S
H67 C57 0.930 . S
Zn68 N72 2.020 . S
Zn68 O76 2.019 . S
Zn68 N78 2.119 . S
Zn68 O86 1.975 . S
C69 N70 1.334 . S
C69 N73 1.336 . S
N70 C69 1.334 . S
N70 C71 1.334 . S
C71 N70 1.334 . S
C71 N72 1.336 . S
N72 Zn68 2.020 . S
N72 C71 1.336 . S
N72 N73 1.354 . S
N73 C69 1.336 . S
N73 N72 1.354 . S
N73 Zn77 2.020 . S
C74 O75 1.244 . S
C74 O98 1.257 . S
O75 C74 1.244 . S
O76 Zn68 2.019 . S
O76 C96 1.257 . S
Zn77 N73 2.020 . S
Zn77 O84 1.975 . S
Zn77 N93 2.119 . S
Zn77 O98 2.019 1_455 S
N78 Zn68 2.119 . S
N78 C80 1.334 . S
N78 C81 1.328 . S
C79 C80 1.391 . S
C79 N82 1.329 . S
C79 H100 0.930 . S
C80 N78 1.334 . S
C80 C79 1.391 . S
C80 H87 0.930 . S
C81 N78 1.328 . S
C81 C83 1.392 . S
C81 H88 0.930 . S
N82 C79 1.329 . S
N82 C83 1.331 . S
C83 C81 1.392 . S
C83 N82 1.331 . S
O84 Zn77 1.975 . S
O84 C85 1.252 . S
C85 O84 1.252 . S
C85 O86 1.252 . S
O86 Zn68 1.975 . S
O86 C85 1.252 . S
H87 C80 0.930 . S
H88 C81 0.930 . S
C89 C90 1.392 . S
C89 N93 1.328 . S
C89 H95 0.930 . S
C90 C89 1.392 . S
C90 N94 1.331 . S
C91 C92 1.391 . S
C91 N94 1.329 . S
C91 H101 0.930 . S
C92 C91 1.391 . S
C92 N93 1.334 . S
C92 H99 0.930 . S
N93 Zn77 2.119 . S
N93 C89 1.328 . S
N93 C92 1.334 . S
N94 C90 1.331 . S
N94 C91 1.329 . S
H95 C89 0.930 . S
C96 O76 1.257 . S
C96 O97 1.244 . S
O97 C96 1.244 . S
O98 C74 1.257 . S
O98 Zn77 2.019 1_655 S
H99 C92 0.930 . S
H100 C79 0.930 . S
H101 C91 0.930 . S
Zn102 N106 2.020 . S
Zn102 O110 2.019 . S
Zn102 N112 2.119 . S
Zn102 O120 1.975 . S
C103 N104 1.334 . S
C103 N107 1.336 . S
N104 C103 1.334 . S
N104 C105 1.334 . S
C105 N104 1.334 . S
C105 N106 1.336 . S
N106 Zn102 2.020 . S
N106 C105 1.336 . S
N106 N107 1.354 . S
N107 C103 1.336 . S
N107 N106 1.354 . S
N107 Zn111 2.020 . S
C108 O109 1.244 . S
C108 O132 1.257 . S
O109 C108 1.244 . S
O110 Zn102 2.019 . S
O110 C130 1.257 . S
Zn111 N107 2.020 . S
Zn111 O118 1.975 . S
Zn111 N127 2.119 . S
Zn111 O132 2.019 . S
N112 Zn102 2.119 . S
N112 C114 1.334 . S
N112 C115 1.328 . S
C113 C114 1.391 . S
C113 N116 1.329 . S
C113 H134 0.930 . S
C114 N112 1.334 . S
C114 C113 1.391 . S
C114 H121 0.930 . S
C115 N112 1.328 . S
C115 C117 1.392 . S
C115 H122 0.930 . S
N116 C113 1.329 . S
N116 C117 1.331 . S
C117 C115 1.392 . S
C117 N116 1.331 . S
O118 Zn111 1.975 . S
O118 C119 1.252 . S
C119 O118 1.252 . S
C119 O120 1.252 . S
O120 Zn102 1.975 . S
O120 C119 1.252 . S
H121 C114 0.930 . S
H122 C115 0.930 . S
C123 C124 1.392 . S
C123 N127 1.328 . S
C123 H129 0.930 . S
C124 C123 1.392 . S
C124 N128 1.331 . S
C125 C126 1.391 . S
C125 N128 1.329 . S
C125 H135 0.930 . S
C126 C125 1.391 . S
C126 N127 1.334 . S
C126 H133 0.930 . S
N127 Zn111 2.119 . S
N127 C123 1.328 . S
N127 C126 1.334 . S
N128 C124 1.331 . S
N128 C125 1.329 . S
H129 C123 0.930 . S
C130 O110 1.257 . S
C130 O131 1.244 . S
O131 C130 1.244 . S
O132 C108 1.257 . S
O132 Zn111 2.019 . S
H133 C126 0.930 . S
H134 C113 0.930 . S
H135 C125 0.930 . S
Zn136 N140 2.020 . S
Zn136 O144 2.019 . S
Zn136 N146 2.119 . S
Zn136 O154 1.975 . S
C137 N138 1.334 . S
C137 N141 1.336 . S
N138 C137 1.334 . S
N138 C139 1.334 . S
C139 N138 1.334 . S
C139 N140 1.336 . S
N140 Zn136 2.020 . S
N140 C139 1.336 . S
N140 N141 1.354 . S
N141 C137 1.336 . S
N141 N140 1.354 . S
N141 Zn145 2.020 . S
C142 O143 1.244 . S
C142 O166 1.257 1_556 S
O143 C142 1.244 . S
O144 Zn136 2.019 . S
O144 C164 1.257 . S
Zn145 N141 2.020 . S
Zn145 O152 1.975 . S
Zn145 N161 2.119 1_556 S
Zn145 O166 2.019 1_656 S
N146 Zn136 2.119 . S
N146 C148 1.334 . S
N146 C149 1.328 . S
C147 C148 1.391 . S
C147 N150 1.329 . S
C147 H168 0.930 . S
C148 N146 1.334 . S
C148 C147 1.391 . S
C148 H155 0.930 . S
C149 N146 1.328 . S
C149 C151 1.392 . S
C149 H156 0.930 . S
N150 C147 1.329 . S
N150 C151 1.331 . S
C151 C149 1.392 . S
C151 N150 1.331 . S
O152 Zn145 1.975 . S
O152 C153 1.252 . S
C153 O152 1.252 . S
C153 O154 1.252 . S
O154 Zn136 1.975 . S
O154 C153 1.252 . S
H155 C148 0.930 . S
H156 C149 0.930 . S
C157 C158 1.392 . S
C157 N161 1.328 . S
C157 H163 0.930 . S
C158 C157 1.392 . S
C158 N162 1.331 . S
C159 C160 1.391 . S
C159 N162 1.329 . S
C159 H169 0.930 . S
C160 C159 1.391 . S
C160 N161 1.334 . S
C160 H167 0.930 . S
N161 Zn145 2.119 1_554 S
N161 C157 1.328 . S
N161 C160 1.334 . S
N162 C158 1.331 . S
N162 C159 1.329 . S
H163 C157 0.930 . S
C164 O144 1.257 . S
C164 O165 1.244 . S
O165 C164 1.244 . S
O166 C142 1.257 1_554 S
O166 Zn145 2.019 1_454 S
H167 C160 0.930 . S
H168 C147 0.930 . S
H169 C159 0.930 . S
Zn170 N174 2.020 . S
Zn170 O178 2.019 1_556 S
Zn170 N180 2.119 1_556 S
Zn170 O188 1.975 . S
C171 N172 1.334 . S
C171 N175 1.336 . S
N172 C171 1.334 . S
N172 C173 1.334 . S
C173 N172 1.334 . S
C173 N174 1.336 . S
N174 Zn170 2.020 . S
N174 C173 1.336 . S
N174 N175 1.354 . S
N175 C171 1.336 . S
N175 N174 1.354 . S
N175 Zn179 2.020 . S
C176 O177 1.244 . S
C176 O200 1.257 . S
O177 C176 1.244 . S
O178 Zn170 2.019 1_554 S
O178 C198 1.257 1_554 S
Zn179 N175 2.020 . S
Zn179 O186 1.975 . S
Zn179 N195 2.119 . S
Zn179 O200 2.019 . S
N180 Zn170 2.119 1_554 S
N180 C182 1.334 . S
N180 C183 1.328 . S
C181 C182 1.391 . S
C181 N184 1.329 . S
C181 H202 0.930 . S
C182 N180 1.334 . S
C182 C181 1.391 . S
C182 H189 0.930 . S
C183 N180 1.328 . S
C183 C185 1.392 . S
C183 H190 0.930 . S
N184 C181 1.329 . S
N184 C185 1.331 . S
C185 C183 1.392 . S
C185 N184 1.331 . S
O186 Zn179 1.975 . S
O186 C187 1.252 . S
C187 O186 1.252 . S
C187 O188 1.252 . S
O188 Zn170 1.975 . S
O188 C187 1.252 . S
H189 C182 0.930 . S
H190 C183 0.930 . S
C191 C192 1.392 . S
C191 N195 1.328 . S
C191 H197 0.930 . S
C192 C191 1.392 . S
C192 N196 1.331 . S
C193 C194 1.391 . S
C193 N196 1.329 . S
C193 H203 0.930 . S
C194 C193 1.391 . S
C194 N195 1.334 . S
C194 H201 0.930 . S
N195 Zn179 2.119 . S
N195 C191 1.328 . S
N195 C194 1.334 . S
N196 C192 1.331 . S
N196 C193 1.329 . S
H197 C191 0.930 . S
C198 O178 1.257 1_556 S
C198 O199 1.244 . S
O199 C198 1.244 . S
O200 C176 1.257 . S
O200 Zn179 2.019 . S
H201 C194 0.930 . S
H202 C181 0.930 . S
H203 C193 0.930 . S
Zn204 N208 2.020 . S
Zn204 O212 2.019 . S
Zn204 N214 2.119 . S
Zn204 O222 1.975 . S
C205 N206 1.334 . S
C205 N209 1.336 . S
N206 C205 1.334 . S
N206 C207 1.334 . S
C207 N206 1.334 . S
C207 N208 1.336 . S
N208 Zn204 2.020 . S
N208 C207 1.336 . S
N208 N209 1.354 . S
N209 C205 1.336 . S
N209 N208 1.354 . S
N209 Zn213 2.020 . S
C210 O211 1.244 . S
C210 O234 1.257 . S
O211 C210 1.244 . S
O212 Zn204 2.019 . S
O212 C232 1.257 . S
Zn213 N209 2.020 . S
Zn213 O220 1.975 . S
Zn213 N229 2.119 . S
Zn213 O234 2.019 1_655 S
N214 Zn204 2.119 . S
N214 C216 1.334 . S
N214 C217 1.328 . S
C215 C216 1.391 . S
C215 N218 1.329 . S
C215 H236 0.930 . S
C216 N214 1.334 . S
C216 C215 1.391 . S
C216 H223 0.930 . S
C217 N214 1.328 . S
C217 C219 1.392 . S
C217 H224 0.930 . S
N218 C215 1.329 . S
N218 C219 1.331 . S
C219 C217 1.392 . S
C219 N218 1.331 . S
O220 Zn213 1.975 . S
O220 C221 1.252 . S
C221 O220 1.252 . S
C221 O222 1.252 . S
O222 Zn204 1.975 . S
O222 C221 1.252 . S
H223 C216 0.930 . S
H224 C217 0.930 . S
C225 C226 1.392 . S
C225 N229 1.328 . S
C225 H231 0.930 . S
C226 C225 1.392 . S
C226 N230 1.331 . S
C227 C228 1.391 . S
C227 N230 1.329 . S
C227 H237 0.930 . S
C228 C227 1.391 . S
C228 N229 1.334 . S
C228 H235 0.930 . S
N229 Zn213 2.119 . S
N229 C225 1.328 . S
N229 C228 1.334 . S
N230 C226 1.331 . S
N230 C227 1.329 . S
H231 C225 0.930 . S
C232 O212 1.257 . S
C232 O233 1.244 . S
O233 C232 1.244 . S
O234 C210 1.257 . S
O234 Zn213 2.019 1_455 S
H235 C228 0.930 . S
H236 C215 0.930 . S
H237 C227 0.930 . S
Zn238 N242 2.020 . S
Zn238 O246 2.019 . S
Zn238 N248 2.119 . S
Zn238 O256 1.975 . S
C239 N240 1.334 . S
C239 N243 1.336 . S
N240 C239 1.334 . S
N240 C241 1.334 . S
C241 N240 1.334 . S
C241 N242 1.336 . S
N242 Zn238 2.020 . S
N242 C241 1.336 . S
N242 N243 1.354 . S
N243 C239 1.336 . S
N243 N242 1.354 . S
N243 Zn247 2.020 . S
C244 O245 1.244 . S
C244 O268 1.257 . S
O245 C244 1.244 . S
O246 Zn238 2.019 . S
O246 C266 1.257 . S
Zn247 N243 2.020 . S
Zn247 O254 1.975 . S
Zn247 N263 2.119 . S
Zn247 O268 2.019 . S
N248 Zn238 2.119 . S
N248 C250 1.334 . S
N248 C251 1.328 . S
C249 C250 1.391 . S
C249 N252 1.329 . S
C249 H270 0.930 . S
C250 N248 1.334 . S
C250 C249 1.391 . S
C250 H257 0.930 . S
C251 N248 1.328 . S
C251 C253 1.392 . S
C251 H258 0.930 . S
N252 C249 1.329 . S
N252 C253 1.331 . S
C253 C251 1.392 . S
C253 N252 1.331 . S
O254 Zn247 1.975 . S
O254 C255 1.252 . S
C255 O254 1.252 . S
C255 O256 1.252 . S
O256 Zn238 1.975 . S
O256 C255 1.252 . S
H257 C250 0.930 . S
H258 C251 0.930 . S
C259 C260 1.392 . S
C259 N263 1.328 . S
C259 H265 0.930 . S
C260 C259 1.392 . S
C260 N264 1.331 . S
C261 C262 1.391 . S
C261 N264 1.329 . S
C261 H271 0.930 . S
C262 C261 1.391 . S
C262 N263 1.334 . S
C262 H269 0.930 . S
N263 Zn247 2.119 . S
N263 C259 1.328 . S
N263 C262 1.334 . S
N264 C260 1.331 . S
N264 C261 1.329 . S
H265 C259 0.930 . S
C266 O246 1.257 . S
C266 O267 1.244 . S
O267 C266 1.244 . S
O268 C244 1.257 . S
O268 Zn247 2.019 . S
H269 C262 0.930 . S
H270 C249 0.930 . S
H271 C261 0.930 . S
C272 C273 1.363 . S
C272 C278 1.379 1_556 S
C272 N280 1.356 . S
C273 C272 1.363 . S
C273 C279 1.363 1_556 S
C274 C275 1.363 . S
C274 C279 1.379 . S
C274 N281 1.356 . S
C275 C274 1.363 . S
C275 C278 1.363 . S
N276 C278 1.356 . S
N276 H288 0.984 1_554 S
N276 H289 0.985 . S
N277 C279 1.356 . S
N277 H282 0.984 . S
N277 H283 0.985 . S
C278 C272 1.379 1_554 S
C278 C275 1.363 . S
C278 N276 1.356 . S
C279 C273 1.363 1_554 S
C279 C274 1.379 . S
C279 N277 1.356 . S
N280 C272 1.356 . S
N280 H286 0.984 . S
N280 H287 0.984 . S
N281 C274 1.356 . S
N281 H284 0.984 . S
N281 H285 0.985 . S
H282 N277 0.984 . S
H283 N277 0.985 . S
H284 N281 0.984 . S
H285 N281 0.985 . S
H286 N280 0.984 . S
H287 N280 0.984 . S
H288 N276 0.984 1_556 S
H289 N276 0.985 . S
C290 C291 1.363 . S
C290 C296 1.379 . S
C290 N298 1.356 . S
C291 C290 1.363 . S
C291 C297 1.363 . S
C292 C293 1.363 . S
C292 C297 1.379 1_556 S
C292 N299 1.356 . S
C293 C292 1.363 . S
C293 C296 1.363 1_556 S
N294 C296 1.356 . S
N294 H306 0.984 . S
N294 H307 0.985 1_554 S
N295 C297 1.356 . S
N295 H300 0.984 . S
N295 H301 0.985 . S
C296 C290 1.379 . S
C296 C293 1.363 1_554 S
C296 N294 1.356 . S
C297 C291 1.363 . S
C297 C292 1.379 1_554 S
C297 N295 1.356 . S
N298 C290 1.356 . S
N298 H304 0.984 . S
N298 H305 0.984 . S
N299 C292 1.356 . S
N299 H302 0.984 . S
N299 H303 0.985 . S
H300 N295 0.984 . S
H301 N295 0.985 . S
H302 N299 0.984 . S
H303 N299 0.985 . S
H304 N298 0.984 . S
H305 N298 0.984 . S
H306 N294 0.984 . S
H307 N294 0.985 1_556 S
C308 C309 1.363 . S
C308 C314 1.379 . S
C308 N316 1.356 . S
C309 C308 1.363 . S
C309 C315 1.363 . S
C310 C311 1.363 . S
C310 C315 1.379 . S
C310 N317 1.356 . S
C311 C310 1.363 . S
C311 C314 1.363 . S
N312 C314 1.356 . S
N312 H324 0.984 . S
N312 H325 0.985 . S
N313 C315 1.356 . S
N313 H318 0.984 . S
N313 H319 0.985 . S
C314 C308 1.379 . S
C314 C311 1.363 . S
C314 N312 1.356 . S
C315 C309 1.363 . S
C315 C310 1.379 . S
C315 N313 1.356 . S
N316 C308 1.356 . S
N316 H322 0.984 . S
N316 H323 0.984 . S
N317 C310 1.356 . S
N317 H320 0.984 . S
N317 H321 0.985 . S
H318 N313 0.984 . S
H319 N313 0.985 . S
H320 N317 0.984 . S
H321 N317 0.985 . S
H322 N316 0.984 . S
H323 N316 0.984 . S
H324 N312 0.984 . S
H325 N312 0.985 . S
C326 C327 1.363 . S
C326 C332 1.379 . S
C326 N334 1.356 . S
C327 C326 1.363 . S
C327 C333 1.363 . S
C328 C329 1.363 . S
C328 C333 1.379 . S
C328 N335 1.356 . S
C329 C328 1.363 . S
C329 C332 1.363 . S
N330 C332 1.356 . S
N330 H342 0.984 . S
N330 H343 0.985 . S
N331 C333 1.356 . S
N331 H336 0.984 . S
N331 H337 0.985 . S
C332 C326 1.379 . S
C332 C329 1.363 . S
C332 N330 1.356 . S
C333 C327 1.363 . S
C333 C328 1.379 . S
C333 N331 1.356 . S
N334 C326 1.356 . S
N334 H340 0.984 . S
N334 H341 0.984 . S
N335 C328 1.356 . S
N335 H338 0.984 . S
N335 H339 0.985 . S
H336 N331 0.984 . S
H337 N331 0.985 . S
H338 N335 0.984 . S
H339 N335 0.985 . S
H340 N334 0.984 . S
H341 N334 0.984 . S
H342 N330 0.984 . S
H343 N330 0.985 . S
C344 C345 1.363 . S
C344 C350 1.379 . S
C344 N352 1.356 . S
C345 C344 1.363 . S
C345 C351 1.363 . S
C346 C347 1.363 . S
C346 C351 1.379 1_554 S
C346 N353 1.356 . S
C347 C346 1.363 . S
C347 C350 1.363 1_554 S
N348 C350 1.356 . S
N348 H360 0.984 . S
N348 H361 0.985 1_556 S
N349 C351 1.356 . S
N349 H354 0.984 . S
N349 H355 0.985 . S
C350 C344 1.379 . S
C350 C347 1.363 1_556 S
C350 N348 1.356 . S
C351 C345 1.363 . S
C351 C346 1.379 1_556 S
C351 N349 1.356 . S
N352 C344 1.356 . S
N352 H358 0.984 . S
N352 H359 0.984 . S
N353 C346 1.356 . S
N353 H356 0.984 . S
N353 H357 0.985 . S
H354 N349 0.984 . S
H355 N349 0.985 . S
H356 N353 0.984 . S
H357 N353 0.985 . S
H358 N352 0.984 . S
H359 N352 0.984 . S
H360 N348 0.984 . S
H361 N348 0.985 1_554 S
C362 C363 1.363 . S
C362 C368 1.379 1_556 S
C362 N370 1.356 . S
C363 C362 1.363 . S
C363 C369 1.363 . S
C364 C365 1.363 1_556 S
C364 C369 1.379 . S
C364 N371 1.356 . S
C365 C364 1.363 1_554 S
C365 C368 1.363 . S
N366 C368 1.356 . S
N366 H378 0.984 . S
N366 H379 0.985 . S
N367 C369 1.356 . S
N367 H372 0.984 . S
N367 H373 0.985 . S
C368 C362 1.379 1_554 S
C368 C365 1.363 . S
C368 N366 1.356 . S
C369 C363 1.363 . S
C369 C364 1.379 . S
C369 N367 1.356 . S
N370 C362 1.356 . S
N370 H376 0.984 . S
N370 H377 0.984 . S
N371 C364 1.356 . S
N371 H374 0.984 1_556 S
N371 H375 0.985 . S
H372 N367 0.984 . S
H373 N367 0.985 . S
H374 N371 0.984 1_554 S
H375 N371 0.985 . S
H376 N370 0.984 . S
H377 N370 0.984 . S
H378 N366 0.984 . S
H379 N366 0.985 . S
C380 C381 1.363 . S
C380 C386 1.379 . S
C380 N388 1.356 . S
C381 C380 1.363 . S
C381 C387 1.363 . S
C382 C383 1.363 . S
C382 C387 1.379 . S
C382 N389 1.356 . S
C383 C382 1.363 . S
C383 C386 1.363 . S
N384 C386 1.356 . S
N384 H396 0.984 . S
N384 H397 0.985 . S
N385 C387 1.356 . S
N385 H390 0.984 . S
N385 H391 0.985 . S
C386 C380 1.379 . S
C386 C383 1.363 . S
C386 N384 1.356 . S
C387 C381 1.363 . S
C387 C382 1.379 . S
C387 N385 1.356 . S
N388 C380 1.356 . S
N388 H394 0.984 . S
N388 H395 0.984 . S
N389 C382 1.356 . S
N389 H392 0.984 . S
N389 H393 0.985 . S
H390 N385 0.984 . S
H391 N385 0.985 . S
H392 N389 0.984 . S
H393 N389 0.985 . S
H394 N388 0.984 . S
H395 N388 0.984 . S
H396 N384 0.984 . S
H397 N384 0.985 . S
C398 C399 1.363 . S
C398 C404 1.379 . S
C398 N406 1.356 . S
C399 C398 1.363 . S
C399 C405 1.363 . S
C400 C401 1.363 . S
C400 C405 1.379 . S
C400 N407 1.356 . S
C401 C400 1.363 . S
C401 C404 1.363 . S
N402 C404 1.356 . S
N402 H414 0.984 . S
N402 H415 0.985 . S
N403 C405 1.356 . S
N403 H408 0.984 . S
N403 H409 0.985 . S
C404 C398 1.379 . S
C404 C401 1.363 . S
C404 N402 1.356 . S
C405 C399 1.363 . S
C405 C400 1.379 . S
C405 N403 1.356 . S
N406 C398 1.356 . S
N406 H412 0.984 . S
N406 H413 0.984 . S
N407 C400 1.356 . S
N407 H410 0.984 . S
N407 H411 0.985 . S
H408 N403 0.984 . S
H409 N403 0.985 . S
H410 N407 0.984 . S
H411 N407 0.985 . S
H412 N406 0.984 . S
H413 N406 0.984 . S
H414 N402 0.984 . S
H415 N402 0.985 . S
C416 C417 1.363 . S
C416 C422 1.379 . S
C416 N424 1.356 . S
C417 C416 1.363 . S
C417 C423 1.363 . S
C418 C419 1.363 . S
C418 C423 1.379 . S
C418 N425 1.356 . S
C419 C418 1.363 . S
C419 C422 1.363 . S
N420 C422 1.356 . S
N420 H432 0.984 . S
N420 H433 0.985 . S
N421 C423 1.356 . S
N421 H426 0.984 . S
N421 H427 0.985 . S
C422 C416 1.379 . S
C422 C419 1.363 . S
C422 N420 1.356 . S
C423 C417 1.363 . S
C423 C418 1.379 . S
C423 N421 1.356 . S
N424 C416 1.356 . S
N424 H430 0.984 . S
N424 H431 0.984 . S
N425 C418 1.356 . S
N425 H428 0.984 . S
N425 H429 0.985 . S
H426 N421 0.984 . S
H427 N421 0.985 . S
H428 N425 0.984 . S
H429 N425 0.985 . S
H430 N424 0.984 . S
H431 N424 0.984 . S
H432 N420 0.984 . S
H433 N420 0.985 . S
C434 C435 1.363 . S
C434 C440 1.379 . S
C434 N442 1.356 . S
C435 C434 1.363 . S
C435 C441 1.363 . S
C436 C437 1.363 . S
C436 C441 1.379 . S
C436 N443 1.356 . S
C437 C436 1.363 . S
C437 C440 1.363 . S
N438 C440 1.356 . S
N438 H450 0.984 . S
N438 H451 0.985 . S
N439 C441 1.356 . S
N439 H444 0.984 . S
N439 H445 0.985 . S
C440 C434 1.379 . S
C440 C437 1.363 . S
C440 N438 1.356 . S
C441 C435 1.363 . S
C441 C436 1.379 . S
C441 N439 1.356 . S
N442 C434 1.356 . S
N442 H448 0.984 . S
N442 H449 0.984 . S
N443 C436 1.356 . S
N443 H446 0.984 . S
N443 H447 0.985 . S
H444 N439 0.984 . S
H445 N439 0.985 . S
H446 N443 0.984 . S
H447 N443 0.985 . S
H448 N442 0.984 . S
H449 N442 0.984 . S
H450 N438 0.984 . S
H451 N438 0.985 . S
C452 C453 1.363 . S
C452 C458 1.379 . S
C452 N460 1.356 . S
C453 C452 1.363 . S
C453 C459 1.363 . S
C454 C455 1.363 . S
C454 C459 1.379 . S
C454 N461 1.356 . S
C455 C454 1.363 . S
C455 C458 1.363 . S
N456 C458 1.356 . S
N456 H468 0.984 . S
N456 H469 0.985 . S
N457 C459 1.356 . S
N457 H462 0.984 . S
N457 H463 0.985 . S
C458 C452 1.379 . S
C458 C455 1.363 . S
C458 N456 1.356 . S
C459 C453 1.363 . S
C459 C454 1.379 . S
C459 N457 1.356 . S
N460 C452 1.356 . S
N460 H466 0.984 . S
N460 H467 0.984 . S
N461 C454 1.356 . S
N461 H464 0.984 . S
N461 H465 0.985 . S
H462 N457 0.984 . S
H463 N457 0.985 . S
H464 N461 0.984 . S
H465 N461 0.985 . S
H466 N460 0.984 . S
H467 N460 0.984 . S
H468 N456 0.984 . S
H469 N456 0.985 . S
C470 C471 1.363 . S
C470 C476 1.379 . S
C470 N478 1.356 . S
C471 C470 1.363 . S
C471 C477 1.363 . S
C472 C473 1.363 . S
C472 C477 1.379 . S
C472 N479 1.356 . S
C473 C472 1.363 . S
C473 C476 1.363 . S
N474 C476 1.356 . S
N474 H486 0.984 . S
N474 H487 0.985 . S
N475 C477 1.356 . S
N475 H480 0.984 . S
N475 H481 0.985 . S
C476 C470 1.379 . S
C476 C473 1.363 . S
C476 N474 1.356 . S
C477 C471 1.363 . S
C477 C472 1.379 . S
C477 N475 1.356 . S
N478 C470 1.356 . S
N478 H484 0.984 . S
N478 H485 0.984 . S
N479 C472 1.356 . S
N479 H482 0.984 . S
N479 H483 0.985 . S
H480 N475 0.984 . S
H481 N475 0.985 . S
H482 N479 0.984 . S
H483 N479 0.985 . S
H484 N478 0.984 . S
H485 N478 0.984 . S
H486 N474 0.984 . S
H487 N474 0.985 . S
C488 C489 1.363 . S
C488 C494 1.379 . S
C488 N496 1.356 . S
C489 C488 1.363 . S
C489 C495 1.363 1_565 S
C490 C491 1.363 . S
C490 C495 1.379 . S
C490 N497 1.356 . S
C491 C490 1.363 . S
C491 C494 1.363 1_545 S
N492 C494 1.356 1_545 S
N492 H504 0.984 1_545 S
N492 H505 0.985 . S
N493 C495 1.356 1_565 S
N493 H498 0.984 . S
N493 H499 0.985 1_564 S
C494 C488 1.379 . S
C494 C491 1.363 1_565 S
C494 N492 1.356 1_565 S
C495 C489 1.363 1_545 S
C495 C490 1.379 . S
C495 N493 1.356 1_545 S
N496 C488 1.356 . S
N496 H502 0.984 . S
N496 H503 0.984 . S
N497 C490 1.356 . S
N497 H500 0.984 . S
N497 H501 0.985 1_554 S
H498 N493 0.984 . S
H499 N493 0.985 1_546 S
H500 N497 0.984 . S
H501 N497 0.985 1_556 S
H502 N496 0.984 . S
H503 N496 0.984 . S
H504 N492 0.984 1_565 S
H505 N492 0.985 . S
C506 C507 1.363 . S
C506 C512 1.379 . S
C506 N514 1.356 . S
C507 C506 1.363 . S
C507 C513 1.363 . S
C508 C509 1.363 . S
C508 C513 1.379 . S
C508 N515 1.356 . S
C509 C508 1.363 . S
C509 C512 1.363 . S
N510 C512 1.356 . S
N510 H522 0.984 . S
N510 H523 0.985 . S
N511 C513 1.356 . S
N511 H516 0.984 . S
N511 H517 0.985 . S
C512 C506 1.379 . S
C512 C509 1.363 . S
C512 N510 1.356 . S
C513 C507 1.363 . S
C513 C508 1.379 . S
C513 N511 1.356 . S
N514 C506 1.356 . S
N514 H520 0.984 . S
N514 H521 0.984 . S
N515 C508 1.356 . S
N515 H518 0.984 . S
N515 H519 0.985 . S
H516 N511 0.984 . S
H517 N511 0.985 . S
H518 N515 0.984 . S
H519 N515 0.985 . S
H520 N514 0.984 . S
H521 N514 0.984 . S
H522 N510 0.984 . S
H523 N510 0.985 . S
C524 C525 1.363 1_565 S
C524 C530 1.379 . S
C524 N532 1.356 1_565 S
C525 C524 1.363 1_545 S
C525 C531 1.363 . S
C526 C527 1.363 1_545 S
C526 C531 1.379 . S
C526 N533 1.356 1_545 S
C527 C526 1.363 1_565 S
C527 C530 1.363 . S
N528 C530 1.356 . S
N528 H540 0.984 . S
N528 H541 0.985 . S
N529 C531 1.356 . S
N529 H534 0.984 . S
N529 H535 0.985 1_556 S
C530 C524 1.379 . S
C530 C527 1.363 . S
C530 N528 1.356 . S
C531 C525 1.363 . S
C531 C526 1.379 . S
C531 N529 1.356 . S
N532 C524 1.356 1_545 S
N532 H538 0.984 1_545 S
N532 H539 0.984 . S
N533 C526 1.356 1_565 S
N533 H536 0.984 . S
N533 H537 0.985 1_566 S
H534 N529 0.984 . S
H535 N529 0.985 1_554 S
H536 N533 0.984 . S
H537 N533 0.985 1_544 S
H538 N532 0.984 1_565 S
H539 N532 0.984 . S
H540 N528 0.984 . S
H541 N528 0.985 . S
C542 C543 1.363 . S
C542 C548 1.379 . S
C542 N550 1.356 . S
C543 C542 1.363 . S
C543 C549 1.363 . S
C544 C545 1.363 . S
C544 C549 1.379 . S
C544 N551 1.356 . S
C545 C544 1.363 . S
C545 C548 1.363 . S
N546 C548 1.356 . S
N546 H558 0.984 . S
N546 H559 0.985 . S
N547 C549 1.356 . S
N547 H552 0.984 . S
N547 H553 0.985 . S
C548 C542 1.379 . S
C548 C545 1.363 . S
C548 N546 1.356 . S
C549 C543 1.363 . S
C549 C544 1.379 . S
C549 N547 1.356 . S
N550 C542 1.356 . S
N550 H556 0.984 . S
N550 H557 0.984 . S
N551 C544 1.356 . S
N551 H554 0.984 . S
N551 H555 0.985 . S
H552 N547 0.984 . S
H553 N547 0.985 . S
H554 N551 0.984 . S
H555 N551 0.985 . S
H556 N550 0.984 . S
H557 N550 0.984 . S
H558 N546 0.984 . S
H559 N546 0.985 . S
C560 C561 1.363 1_556 S
C560 C566 1.379 1_455 S
C560 N568 1.356 . S
C561 C560 1.363 1_554 S
C561 C567 1.363 1_545 S
C562 C563 1.363 1_554 S
C562 C567 1.379 1_655 S
C562 N569 1.356 . S
C563 C562 1.363 1_556 S
C563 C566 1.363 1_565 S
N564 C566 1.356 1_565 S
N564 H576 0.984 1_565 S
N564 H577 0.985 . S
N565 C567 1.356 1_545 S
N565 H570 0.984 . S
N565 H571 0.985 1_545 S
C566 C560 1.379 1_655 S
C566 C563 1.363 1_545 S
C566 N564 1.356 1_545 S
C567 C561 1.363 1_565 S
C567 C562 1.379 1_455 S
C567 N565 1.356 1_565 S
N568 C560 1.356 . S
N568 H574 0.984 1_455 S
N568 H575 0.984 . S
N569 C562 1.356 . S
N569 H572 0.984 . S
N569 H573 0.985 1_655 S
H570 N565 0.984 . S
H571 N565 0.985 1_565 S
H572 N569 0.984 . S
H573 N569 0.985 1_455 S
H574 N568 0.984 1_655 S
H575 N568 0.984 . S
H576 N564 0.984 1_545 S
H577 N564 0.985 . S
C578 C579 1.363 . S
C578 C584 1.379 1_545 S
C578 N586 1.356 . S
C579 C578 1.363 . S
C579 C585 1.363 1_556 S
C580 C581 1.363 . S
C580 C585 1.379 1_565 S
C580 N587 1.356 . S
C581 C580 1.363 . S
C581 C584 1.363 1_554 S
N582 C584 1.356 . S
N582 H594 0.984 . S
N582 H595 0.985 . S
N583 C585 1.356 . S
N583 H588 0.984 . S
N583 H589 0.985 . S
C584 C578 1.379 1_565 S
C584 C581 1.363 1_556 S
C584 N582 1.356 . S
C585 C579 1.363 1_554 S
C585 C580 1.379 1_545 S
C585 N583 1.356 . S
N586 C578 1.356 . S
N586 H592 0.984 . S
N586 H593 0.984 . S
N587 C580 1.356 . S
N587 H590 0.984 . S
N587 H591 0.985 . S
H588 N583 0.984 . S
H589 N583 0.985 . S
H590 N587 0.984 . S
H591 N587 0.985 . S
H592 N586 0.984 . S
H593 N586 0.984 . S
H594 N582 0.984 . S
H595 N582 0.985 . S
C596 C597 1.363 . S
C596 C602 1.376 1_455 S
C596 N604 1.356 . S
C597 C596 1.363 . S
C597 C603 1.366 . S
C598 C599 1.363 . S
C598 C603 1.376 1_655 S
C598 N605 1.356 . S
C599 C598 1.363 . S
C599 C602 1.366 . S
N600 C602 1.357 . S
N600 H612 0.984 1_655 S
N600 H613 0.985 . S
N601 C603 1.357 . S
N601 H606 0.984 . S
N601 H607 0.985 1_455 S
C602 C596 1.376 1_655 S
C602 C599 1.366 . S
C602 N600 1.357 . S
C603 C597 1.366 . S
C603 C598 1.376 1_455 S
C603 N601 1.357 . S
N604 C596 1.356 . S
N604 H610 0.984 . S
N604 H611 0.984 . S
N605 C598 1.356 . S
N605 H608 0.984 . S
N605 H609 0.985 . S
H606 N601 0.984 . S
H607 N601 0.985 1_655 S
H608 N605 0.984 . S
H609 N605 0.985 . S
H610 N604 0.984 . S
H611 N604 0.984 . S
H612 N600 0.984 1_455 S
H613 N600 0.985 . S
C614 C615 1.363 . S
C614 C620 1.379 . S
C614 N622 1.356 . S
C615 C614 1.363 . S
C615 C621 1.363 . S
C616 C617 1.363 . S
C616 C621 1.379 . S
C616 N623 1.356 . S
C617 C616 1.363 . S
C617 C620 1.363 . S
N618 C620 1.356 . S
N618 H630 0.984 . S
N618 H631 0.985 . S
N619 C621 1.356 . S
N619 H624 0.984 . S
N619 H625 0.985 . S
C620 C614 1.379 . S
C620 C617 1.363 . S
C620 N618 1.356 . S
C621 C615 1.363 . S
C621 C616 1.379 . S
C621 N619 1.356 . S
N622 C614 1.356 . S
N622 H628 0.984 . S
N622 H629 0.984 . S
N623 C616 1.356 . S
N623 H626 0.984 . S
N623 H627 0.985 . S
H624 N619 0.984 . S
H625 N619 0.985 . S
H626 N623 0.984 . S
H627 N623 0.985 . S
H628 N622 0.984 . S
H629 N622 0.984 . S
H630 N618 0.984 . S
H631 N618 0.985 . S
C632 C633 1.363 . S
C632 C638 1.379 . S
C632 N640 1.356 . S
C633 C632 1.363 . S
C633 C639 1.363 . S
C634 C635 1.363 . S
C634 C639 1.379 . S
C634 N641 1.356 . S
C635 C634 1.363 . S
C635 C638 1.363 . S
N636 C638 1.356 . S
N636 H648 0.984 . S
N636 H649 0.985 . S
N637 C639 1.356 . S
N637 H642 0.984 . S
N637 H643 0.985 . S
C638 C632 1.379 . S
C638 C635 1.363 . S
C638 N636 1.356 . S
C639 C633 1.363 . S
C639 C634 1.379 . S
C639 N637 1.356 . S
N640 C632 1.356 . S
N640 H646 0.984 . S
N640 H647 0.984 . S
N641 C634 1.356 . S
N641 H644 0.984 . S
N641 H645 0.985 . S
H642 N637 0.984 . S
H643 N637 0.985 . S
H644 N641 0.984 . S
H645 N641 0.985 . S
H646 N640 0.984 . S
H647 N640 0.984 . S
H648 N636 0.984 . S
H649 N636 0.985 . S
C650 C651 1.363 . S
C650 C656 1.379 . S
C650 N658 1.356 . S
C651 C650 1.363 . S
C651 C657 1.363 . S
C652 C653 1.363 . S
C652 C657 1.379 . S
C652 N659 1.356 . S
C653 C652 1.363 . S
C653 C656 1.363 . S
N654 C656 1.356 . S
N654 H666 0.984 . S
N654 H667 0.985 . S
N655 C657 1.356 . S
N655 H660 0.984 . S
N655 H661 0.985 . S
C656 C650 1.379 . S
C656 C653 1.363 . S
C656 N654 1.356 . S
C657 C651 1.363 . S
C657 C652 1.379 . S
C657 N655 1.356 . S
N658 C650 1.356 . S
N658 H664 0.984 . S
N658 H665 0.984 . S
N659 C652 1.356 . S
N659 H662 0.984 . S
N659 H663 0.985 . S
H660 N655 0.984 . S
H661 N655 0.985 . S
H662 N659 0.984 . S
H663 N659 0.985 . S
H664 N658 0.984 . S
H665 N658 0.984 . S
H666 N654 0.984 . S
H667 N654 0.985 . S
C668 C669 1.363 . S
C668 C674 1.379 . S
C668 N676 1.356 . S
C669 C668 1.363 . S
C669 C675 1.363 . S
C670 C671 1.363 . S
C670 C675 1.379 . S
C670 N677 1.356 . S
C671 C670 1.363 . S
C671 C674 1.363 . S
N672 C674 1.356 . S
N672 H684 0.984 . S
N672 H685 0.985 . S
N673 C675 1.356 1_554 S
N673 H678 0.984 . S
N673 H679 0.985 . S
C674 C668 1.379 . S
C674 C671 1.363 . S
C674 N672 1.356 . S
C675 C669 1.363 . S
C675 C670 1.379 . S
C675 N673 1.356 1_556 S
N676 C668 1.356 . S
N676 H682 0.984 . S
N676 H683 0.990 . S
N677 C670 1.356 . S
N677 H680 0.984 . S
N677 H681 0.985 . S
H678 N673 0.984 . S
H679 N673 0.985 . S
H680 N677 0.984 . S
H681 N677 0.985 . S
H682 N676 0.984 . S
H683 N676 0.990 . S
H684 N672 0.984 . S
H685 N672 0.985 . S
C686 C687 1.363 . S
C686 C692 1.379 . S
C686 N694 1.356 . S
C687 C686 1.363 . S
C687 C693 1.363 . S
C688 C689 1.363 . S
C688 C693 1.379 . S
C688 N695 1.356 . S
C689 C688 1.363 . S
C689 C692 1.363 . S
N690 C692 1.356 1_554 S
N690 H702 0.984 . S
N690 H703 0.985 . S
N691 C693 1.356 . S
N691 H696 0.984 . S
N691 H697 0.985 . S
C692 C686 1.379 . S
C692 C689 1.363 . S
C692 N690 1.356 1_556 S
C693 C687 1.363 . S
C693 C688 1.379 . S
C693 N691 1.356 . S
N694 C686 1.356 . S
N694 H700 0.984 . S
N694 H701 0.984 . S
N695 C688 1.356 . S
N695 H698 0.984 . S
N695 H699 0.985 . S
H696 N691 0.984 . S
H697 N691 0.985 . S
H698 N695 0.984 . S
H699 N695 0.985 . S
H700 N694 0.984 . S
H701 N694 0.984 . S
H702 N690 0.984 . S
H703 N690 0.985 . S
C704 C705 1.363 . S
C704 C710 1.379 . S
C704 N712 1.356 . S
C705 C704 1.363 . S
C705 C711 1.363 . S
C706 C707 1.363 . S
C706 C711 1.379 . S
C706 N713 1.356 . S
C707 C706 1.363 . S
C707 C710 1.363 . S
N708 C710 1.356 . S
N708 H720 0.984 . S
N708 H721 0.985 . S
N709 C711 1.356 . S
N709 H714 0.984 . S
N709 H715 0.985 . S
C710 C704 1.379 . S
C710 C707 1.363 . S
C710 N708 1.356 . S
C711 C705 1.363 . S
C711 C706 1.379 . S
C711 N709 1.356 . S
N712 C704 1.356 . S
N712 H718 0.984 . S
N712 H719 0.984 . S
N713 C706 1.356 . S
N713 H716 0.984 . S
N713 H717 0.985 . S
H714 N709 0.984 . S
H715 N709 0.985 . S
H716 N713 0.984 . S
H717 N713 0.985 . S
H718 N712 0.984 . S
H719 N712 0.984 . S
H720 N708 0.984 . S
H721 N708 0.985 . S
C722 C723 1.363 . S
C722 C728 1.379 . S
C722 N730 1.356 . S
C723 C722 1.363 . S
C723 C729 1.363 . S
C724 C725 1.363 . S
C724 C729 1.379 . S
C724 N731 1.356 . S
C725 C724 1.363 . S
C725 C728 1.363 . S
N726 C728 1.356 . S
N726 H738 0.984 . S
N726 H739 0.985 . S
N727 C729 1.356 . S
N727 H732 0.984 . S
N727 H733 0.985 . S
C728 C722 1.379 . S
C728 C725 1.363 . S
C728 N726 1.356 . S
C729 C723 1.363 . S
C729 C724 1.379 . S
C729 N727 1.356 . S
N730 C722 1.356 . S
N730 H736 0.984 . S
N730 H737 0.984 . S
N731 C724 1.356 . S
N731 H734 0.984 . S
N731 H735 0.985 . S
H732 N727 0.984 . S
H733 N727 0.985 . S
H734 N731 0.984 . S
H735 N731 0.985 . S
H736 N730 0.984 . S
H737 N730 0.984 . S
H738 N726 0.984 . S
H739 N726 0.985 . S
C740 C741 1.363 . S
C740 C746 1.379 . S
C740 N748 1.356 . S
C741 C740 1.363 . S
C741 C747 1.363 . S
C742 C743 1.363 . S
C742 C747 1.379 . S
C742 N749 1.356 . S
C743 C742 1.363 . S
C743 C746 1.363 . S
N744 C746 1.356 . S
N744 H756 0.984 . S
N744 H757 0.985 . S
N745 C747 1.356 1_556 S
N745 H750 0.984 . S
N745 H751 0.985 . S
C746 C740 1.379 . S
C746 C743 1.363 . S
C746 N744 1.356 . S
C747 C741 1.363 . S
C747 C742 1.379 . S
C747 N745 1.356 1_554 S
N748 C740 1.356 . S
N748 H754 0.984 . S
N748 H755 0.984 . S
N749 C742 1.356 . S
N749 H752 0.984 . S
N749 H753 0.985 . S
H750 N745 0.984 . S
H751 N745 0.985 . S
H752 N749 0.984 . S
H753 N749 0.985 . S
H754 N748 0.984 . S
H755 N748 0.984 . S
H756 N744 0.984 . S
H757 N744 0.985 . S
C758 C759 1.363 . S
C758 C764 1.379 . S
C758 N766 1.356 . S
C759 C758 1.363 . S
C759 C765 1.363 . S
C760 C761 1.363 . S
C760 C765 1.379 . S
C760 N767 1.356 . S
C761 C760 1.363 . S
C761 C764 1.363 . S
N762 C764 1.356 1_556 S
N762 H774 0.984 . S
N762 H775 0.985 . S
N763 C765 1.356 . S
N763 H768 0.984 . S
N763 H769 0.985 . S
C764 C758 1.379 . S
C764 C761 1.363 . S
C764 N762 1.356 1_554 S
C765 C759 1.363 . S
C765 C760 1.379 . S
C765 N763 1.356 . S
N766 C758 1.356 . S
N766 H772 0.984 . S
N766 H773 0.984 . S
N767 C760 1.356 . S
N767 H770 0.984 . S
N767 H771 0.985 . S
H768 N763 0.984 . S
H769 N763 0.985 . S
H770 N767 0.984 . S
H771 N767 0.985 . S
H772 N766 0.984 . S
H773 N766 0.984 . S
H774 N762 0.984 . S
H775 N762 0.985 . S
C273 C198 1.678 . S
C275 C28 1.644 . S
C291 C40 1.644 . S
C293 C142 1.678 . S
C309 C244 1.678 . S
C311 C96 1.644 . S
C327 C210 1.678 . S
C329 C108 1.644 . S
C345 C164 1.644 . S
C347 C62 1.678 . S
C363 C176 1.644 . S
C365 C6 1.678 . S
C381 C232 1.644 . S
C383 C130 1.678 . S
C399 C266 1.644 . S
C401 C74 1.678 . S
C417 C85 1.885 . S
C419 C17 1.885 . S
C435 C119 1.885 . S
C437 C51 1.885 . S
C453 C153 1.885 . S
C455 C221 1.885 . S
C471 C187 1.885 . S
C473 C255 1.885 . S
C489 C35 1.773 . S
C491 C3 1.773 . S
C507 C71 1.773 . S
C509 C103 1.773 . S
C525 C171 1.773 . S
C527 C139 1.773 . S
C543 C241 1.773 . S
C545 C207 1.773 . S
C561 C1 1.885 . S
C563 C137 1.885 . S
C579 C173 1.885 . S
C581 C37 1.885 . S
C597 C69 1.885 . S
C599 C205 1.885 . S
C615 C105 1.885 . S
C617 C239 1.885 . S
C633 C22 1.613 . S
C635 C15 1.628 . S
C651 C56 1.628 . S
C653 C49 1.613 . S
C669 C83 1.628 1_556 S
C671 C90 1.613 . S
C687 C117 1.613 . S
C689 C124 1.628 1_556 S
C705 C158 1.613 . S
C707 C151 1.628 . S
C723 C192 1.628 . S
C725 C185 1.613 . S
C741 C219 1.628 1_554 S
C743 C226 1.613 . S
C759 C260 1.613 . S
C761 C253 1.628 1_554 S
