# Generated by pormake.
# Topology whk, (6)-cn, num edge types: 1
# Building blocks:
#     Node 0, Type 0, BuildingBlock: PAMTUU_clean_sbu_0, # of connection points: 6
#     Node 1, Type 0, BuildingBlock: PAMTUU_clean_sbu_0, # of connection points: 6
#     Node 2, Type 0, BuildingBlock: PAMTUU_clean_sbu_0, # of connection points: 6
#     Node 3, Type 0, BuildingBlock: PAMTUU_clean_sbu_0, # of connection points: 6
#     Node 4, Type 0, BuildingBlock: PAMTUU_clean_sbu_0, # of connection points: 6
#     Node 5, Type 0, BuildingBlock: PAMTUU_clean_sbu_0, # of connection points: 6
#     Node 6, Type 0, BuildingBlock: PAMTUU_clean_sbu_0, # of connection points: 6
#     Node 7, Type 0, BuildingBlock: PAMTUU_clean_sbu_0, # of connection points: 6
#     Node 8, Type 0, BuildingBlock: PAMTUU_clean_sbu_0, # of connection points: 6
#     Node 9, Type 0, BuildingBlock: PAMTUU_clean_sbu_0, # of connection points: 6
#     Node 10, Type 0, BuildingBlock: PAMTUU_clean_sbu_0, # of connection points: 6
#     Node 11, Type 0, BuildingBlock: PAMTUU_clean_sbu_0, # of connection points: 6
#     Node 12, Type 0, BuildingBlock: PAMTUU_clean_sbu_0, # of connection points: 6
#     Node 13, Type 0, BuildingBlock: PAMTUU_clean_sbu_0, # of connection points: 6
#     Node 14, Type 0, BuildingBlock: PAMTUU_clean_sbu_0, # of connection points: 6
#     Node 15, Type 0, BuildingBlock: PAMTUU_clean_sbu_0, # of connection points: 6
#     Edge 16, Type (0, 0), BuildingBlock: ZUJKAS_clean_linker_0, # of connection points: 2
#     Edge 17, Type (0, 0), BuildingBlock: ZUJKAS_clean_linker_0, # of connection points: 2
#     Edge 18, Type (0, 0), BuildingBlock: ZUJKAS_clean_linker_0, # of connection points: 2
#     Edge 19, Type (0, 0), BuildingBlock: ZUJKAS_clean_linker_0, # of connection points: 2
#     Edge 20, Type (0, 0), BuildingBlock: ZUJKAS_clean_linker_0, # of connection points: 2
#     Edge 21, Type (0, 0), BuildingBlock: ZUJKAS_clean_linker_0, # of connection points: 2
#     Edge 22, Type (0, 0), BuildingBlock: ZUJKAS_clean_linker_0, # of connection points: 2
#     Edge 23, Type (0, 0), BuildingBlock: ZUJKAS_clean_linker_0, # of connection points: 2
#     Edge 24, Type (0, 0), BuildingBlock: ZUJKAS_clean_linker_0, # of connection points: 2
#     Edge 25, Type (0, 0), BuildingBlock: ZUJKAS_clean_linker_0, # of connection points: 2
#     Edge 26, Type (0, 0), BuildingBlock: ZUJKAS_clean_linker_0, # of connection points: 2
#     Edge 27, Type (0, 0), BuildingBlock: ZUJKAS_clean_linker_0, # of connection points: 2
#     Edge 28, Type (0, 0), BuildingBlock: ZUJKAS_clean_linker_0, # of connection points: 2
#     Edge 29, Type (0, 0), BuildingBlock: ZUJKAS_clean_linker_0, # of connection points: 2
#     Edge 30, Type (0, 0), BuildingBlock: ZUJKAS_clean_linker_0, # of connection points: 2
#     Edge 31, Type (0, 0), BuildingBlock: ZUJKAS_clean_linker_0, # of connection points: 2
#     Edge 32, Type (0, 0), BuildingBlock: ZUJKAS_clean_linker_0, # of connection points: 2
#     Edge 33, Type (0, 0), BuildingBlock: ZUJKAS_clean_linker_0, # of connection points: 2
#     Edge 34, Type (0, 0), BuildingBlock: ZUJKAS_clean_linker_0, # of connection points: 2
#     Edge 35, Type (0, 0), BuildingBlock: ZUJKAS_clean_linker_0, # of connection points: 2
#     Edge 36, Type (0, 0), BuildingBlock: ZUJKAS_clean_linker_0, # of connection points: 2
#     Edge 37, Type (0, 0), BuildingBlock: ZUJKAS_clean_linker_0, # of connection points: 2
#     Edge 38, Type (0, 0), BuildingBlock: ZUJKAS_clean_linker_0, # of connection points: 2
#     Edge 39, Type (0, 0), BuildingBlock: ZUJKAS_clean_linker_0, # of connection points: 2
#     Edge 40, Type (0, 0), BuildingBlock: ZUJKAS_clean_linker_0, # of connection points: 2
#     Edge 41, Type (0, 0), BuildingBlock: ZUJKAS_clean_linker_0, # of connection points: 2
#     Edge 42, Type (0, 0), BuildingBlock: ZUJKAS_clean_linker_0, # of connection points: 2
#     Edge 43, Type (0, 0), BuildingBlock: ZUJKAS_clean_linker_0, # of connection points: 2
#     Edge 44, Type (0, 0), BuildingBlock: ZUJKAS_clean_linker_0, # of connection points: 2
#     Edge 45, Type (0, 0), BuildingBlock: ZUJKAS_clean_linker_0, # of connection points: 2
#     Edge 46, Type (0, 0), BuildingBlock: ZUJKAS_clean_linker_0, # of connection points: 2
#     Edge 47, Type (0, 0), BuildingBlock: ZUJKAS_clean_linker_0, # of connection points: 2
#     Edge 48, Type (0, 0), BuildingBlock: ZUJKAS_clean_linker_0, # of connection points: 2
#     Edge 49, Type (0, 0), BuildingBlock: ZUJKAS_clean_linker_0, # of connection points: 2
#     Edge 50, Type (0, 0), BuildingBlock: ZUJKAS_clean_linker_0, # of connection points: 2
#     Edge 51, Type (0, 0), BuildingBlock: ZUJKAS_clean_linker_0, # of connection points: 2
#     Edge 52, Type (0, 0), BuildingBlock: ZUJKAS_clean_linker_0, # of connection points: 2
#     Edge 53, Type (0, 0), BuildingBlock: ZUJKAS_clean_linker_0, # of connection points: 2
#     Edge 54, Type (0, 0), BuildingBlock: ZUJKAS_clean_linker_0, # of connection points: 2
#     Edge 55, Type (0, 0), BuildingBlock: ZUJKAS_clean_linker_0, # of connection points: 2
#     Edge 56, Type (0, 0), BuildingBlock: ZUJKAS_clean_linker_0, # of connection points: 2
#     Edge 57, Type (0, 0), BuildingBlock: ZUJKAS_clean_linker_0, # of connection points: 2
#     Edge 58, Type (0, 0), BuildingBlock: ZUJKAS_clean_linker_0, # of connection points: 2
#     Edge 59, Type (0, 0), BuildingBlock: ZUJKAS_clean_linker_0, # of connection points: 2
#     Edge 60, Type (0, 0), BuildingBlock: ZUJKAS_clean_linker_0, # of connection points: 2
#     Edge 61, Type (0, 0), BuildingBlock: ZUJKAS_clean_linker_0, # of connection points: 2
#     Edge 62, Type (0, 0), BuildingBlock: ZUJKAS_clean_linker_0, # of connection points: 2
#     Edge 63, Type (0, 0), BuildingBlock: ZUJKAS_clean_linker_0, # of connection points: 2
# Relax obj value: 0.520
# Max RMSD: 0.303
# Mean RMSD: 0.303
data_MOF--net-whk--node1-PAMTUU_clean_sbu_0--edge1-ZUJKAS_clean_linker_0
_symmetry_space_group_name_H-M    P1
_symmetry_Int_Tables_number       1
_symmetry_cell_setting            triclinic
loop_
_symmetry_equiv_pos_as_xyz
'x, y, z'
_cell_length_a     56.153476
_cell_length_b     56.144164
_cell_length_c     53.743767
_cell_angle_alpha  90.024161
_cell_angle_beta   89.738244
_cell_angle_gamma 90.083574
loop_
_atom_site_label
_atom_site_type_symbol
_atom_site_fract_x
_atom_site_fract_y
_atom_site_fract_z
_atom_type_partial_charge
Tb0 Tb 0.56749 0.20675 0.42122 0.0
Tb1 Tb 0.61516 0.23793 0.40775 0.0
C2 C 0.59103 0.24079 0.45907 0.0
C3 C 0.50916 0.16626 0.4247 0.0
C4 C 0.46732 0.13805 0.42217 0.0
C5 C 0.47409 0.14901 0.44467 0.0
C6 C 0.4949 0.1629 0.44595 0.0
C7 C 0.50249 0.15514 0.40235 0.0
C8 C 0.4819 0.14122 0.40111 0.0
C9 C 0.53048 0.18184 0.42506 0.0
O10 O 0.55388 0.23998 0.40567 0.0
O11 O 0.58707 0.26427 0.40553 0.0
O12 O 0.60032 0.22683 0.37247 0.0
O13 O 0.5857 0.1923 0.38843 0.0
O14 O 0.63656 0.26758 0.41603 0.0
O15 O 0.6477 0.24169 0.38863 0.0
O16 O 0.62683 0.20171 0.41507 0.0
O17 O 0.59661 0.18836 0.4404 0.0
O18 O 0.57035 0.23477 0.44953 0.0
O19 O 0.61079 0.23493 0.44771 0.0
C20 C 0.56395 0.26113 0.40379 0.0
O21 O 0.5382 0.19119 0.40435 0.0
O22 O 0.54362 0.18671 0.44448 0.0
C23 C 0.59377 0.20463 0.36938 0.0
C24 C 0.67538 0.25335 0.41932 0.0
C25 C 0.70779 0.24231 0.45755 0.0
C26 C 0.6974 0.22411 0.44332 0.0
C27 C 0.68147 0.22956 0.42439 0.0
C28 C 0.68626 0.27164 0.43297 0.0
C29 C 0.70239 0.26618 0.45188 0.0
C30 C 0.6545 0.25857 0.40378 0.0
C31 C 0.61884 0.18728 0.43243 0.0
H32 H 0.46335 0.14679 0.4613 0.0
H33 H 0.49962 0.17129 0.4634 0.0
H34 H 0.51313 0.15734 0.38563 0.0
H35 H 0.47713 0.13337 0.3834 0.0
H36 H 0.70097 0.20554 0.44727 0.0
H37 H 0.67315 0.21501 0.41449 0.0
H38 H 0.68153 0.29007 0.42967 0.0
H39 H 0.71046 0.28065 0.46219 0.0
Tb40 Tb 0.34892 0.57139 0.42052 0.0
Tb41 Tb 0.3169 0.61768 0.40457 0.0
C42 C 0.30881 0.59151 0.45594 0.0
C43 C 0.389 0.51292 0.42581 0.0
C44 C 0.41672 0.47071 0.42533 0.0
C45 C 0.41039 0.48172 0.448 0.0
C46 C 0.39662 0.50263 0.44824 0.0
C47 C 0.39563 0.50206 0.40325 0.0
C48 C 0.40928 0.48133 0.40301 0.0
C49 C 0.37406 0.53472 0.42526 0.0
O50 O 0.3177 0.55779 0.40055 0.0
O51 O 0.29162 0.58864 0.40619 0.0
O52 O 0.33568 0.60583 0.37133 0.0
O53 O 0.36791 0.59078 0.39117 0.0
O54 O 0.29348 0.63319 0.37897 0.0
O55 O 0.30611 0.65294 0.41085 0.0
O56 O 0.35133 0.63173 0.41552 0.0
O57 O 0.36438 0.60145 0.44094 0.0
O58 O 0.32005 0.57224 0.44818 0.0
O59 O 0.30979 0.61181 0.44384 0.0
C60 C 0.29583 0.56617 0.40138 0.0
O61 O 0.36558 0.54234 0.40419 0.0
O62 O 0.36826 0.54787 0.44447 0.0
C63 C 0.35823 0.59998 0.37121 0.0
C64 C 0.26595 0.65872 0.39865 0.0
C65 C 0.21891 0.67371 0.40834 0.0
C66 C 0.22575 0.66641 0.38433 0.0
C67 C 0.24905 0.65911 0.37953 0.0
C68 C 0.25888 0.66491 0.42296 0.0
C69 C 0.2356 0.67244 0.42771 0.0
C70 C 0.29076 0.65213 0.39272 0.0
C71 C 0.36479 0.62395 0.43376 0.0
H72 H 0.41574 0.47397 0.46555 0.0
H73 H 0.39179 0.5106 0.4659 0.0
H74 H 0.39029 0.50957 0.38558 0.0
H75 H 0.41423 0.47374 0.38519 0.0
H76 H 0.21349 0.66767 0.36888 0.0
H77 H 0.25403 0.65438 0.36067 0.0
H78 H 0.27143 0.66453 0.4382 0.0
H79 H 0.23084 0.67805 0.44633 0.0
Tb80 Tb 0.98712 0.34815 0.41714 0.0
Tb81 Tb 0.94218 0.31366 0.40232 0.0
C82 C 0.9645 0.31271 0.45552 0.0
C83 C 0.04325 0.3914 0.42401 0.0
C84 C 0.08448 0.42066 0.42379 0.0
C85 C 0.0788 0.4065 0.44465 0.0
C86 C 0.05827 0.39214 0.44482 0.0
C87 C 0.04877 0.40574 0.40334 0.0
C88 C 0.06902 0.42026 0.40328 0.0
C89 C 1.02275 0.37478 0.42284 0.0
O90 O 1.00228 0.3164 0.39941 0.0
O91 O 0.97232 0.29036 0.40854 0.0
O92 O 0.95397 0.32972 0.36763 0.0
O93 O 0.96873 0.36368 0.38514 0.0
O94 O 0.93011 0.28285 0.38395 0.0
O95 O 0.90608 0.30439 0.4057 0.0
O96 O 0.92668 0.34864 0.40868 0.0
O97 O 0.95547 0.36456 0.43423 0.0
O98 O 0.98479 0.32158 0.44718 0.0
O99 O 0.94492 0.31423 0.44246 0.0
C100 C 0.99455 0.2945 0.40256 0.0
O101 O 1.0161 0.36599 0.40153 0.0
O102 O 1.00918 0.36861 0.44161 0.0
C103 C 0.95997 0.35225 0.36586 0.0
C104 C 0.90359 0.26335 0.41121 0.0
C105 C 0.88934 0.23183 0.44934 0.0
C106 C 0.87348 0.23816 0.43015 0.0
C107 C 0.88055 0.25386 0.41129 0.0
C108 C 0.91993 0.25584 0.4293 0.0
C109 C 0.91288 0.24022 0.44814 0.0
C110 C 0.90952 0.28376 0.39522 0.0
C111 C 0.93331 0.36387 0.42598 0.0
H112 H 0.09024 0.40652 0.46082 0.0
H113 H 0.05448 0.38117 0.46094 0.0
H114 H 0.03753 0.40552 0.38701 0.0
H115 H 0.07294 0.43072 0.38683 0.0
H116 H 0.85505 0.23247 0.43067 0.0
H117 H 0.86761 0.25969 0.39771 0.0
H118 H 0.93778 0.26316 0.42977 0.0
H119 H 0.92545 0.23577 0.46254 0.0
Tb120 Tb 0.20485 0.9887 0.4327 0.0
Tb121 Tb 0.2369 0.94764 0.40564 0.0
C122 C 0.25296 0.96856 0.45609 0.0
C123 C 0.16544 0.04254 0.44446 0.0
C124 C 0.14046 0.0849 0.43252 0.0
C125 C 0.16264 0.0798 0.42132 0.0
C126 C 0.17499 0.05878 0.42716 0.0
C127 C 0.14343 0.04761 0.45564 0.0
C128 C 0.13109 0.06847 0.44978 0.0
C129 C 0.17783 1.02028 0.45143 0.0
O130 O 0.2355 1.00807 0.41887 0.0
O131 O 0.25072 0.98114 0.39072 0.0
O132 O 0.20007 0.94618 0.39508 0.0
O133 O 0.19419 0.9855 0.39334 0.0
O134 O 0.25878 0.9174 0.4029 0.0
O135 O 0.24406 0.93406 0.37 0.0
O136 O 0.21961 0.92861 0.43609 0.0
O137 O 0.18941 0.95495 0.44525 0.0
O138 O 0.2307 0.97536 0.46053 0.0
O139 O 0.26 0.9614 0.43401 0.0
C140 C 0.25085 1.00224 0.40144 0.0
O141 O 0.17025 1.0008 0.44097 0.0
O142 O 0.201 1.02073 0.45273 0.0
C143 C 0.18989 0.96417 0.38442 0.0
C144 C 0.23919 0.89305 0.37351 0.0
C145 C 0.20375 0.8597 0.36099 0.0
C146 C 0.21925 0.86855 0.34256 0.0
C147 C 0.23671 0.8854 0.34875 0.0
C148 C 0.22437 0.88318 0.39193 0.0
C149 C 0.20679 0.86683 0.38574 0.0
C150 C 0.25299 0.91461 0.37948 0.0
C151 C 0.19913 0.93365 0.44685 0.0
H152 H 0.17032 0.09191 0.4078 0.0
H153 H 0.19192 0.05521 0.41818 0.0
H154 H 0.13576 0.03539 0.46908 0.0
H155 H 0.11431 0.0719 0.45912 0.0
H156 H 0.21736 0.86296 0.32337 0.0
H157 H 0.2476 0.89315 0.33415 0.0
H158 H 0.22566 0.88881 0.41109 0.0
H159 H 0.19548 0.85977 0.4004 0.0
Tb160 Tb 0.06645 0.84974 0.11546 0.0
Tb161 Tb 0.11177 0.81778 0.13361 0.0
C162 C 0.09049 0.81226 0.07989 0.0
C163 C 1.00681 0.8867 0.10466 0.0
C164 C 0.96386 0.91303 0.10267 0.0
C165 C 0.98288 0.91827 0.08635 0.0
C166 C 1.00413 0.90512 0.08725 0.0
C167 C 0.98769 0.8812 0.12061 0.0
C168 C 0.96648 0.89413 0.11958 0.0
C169 C 0.02972 0.87399 0.10752 0.0
O170 O 0.0523 0.81838 0.13491 0.0
O171 O 0.083 0.79272 0.12794 0.0
O172 O 0.09783 0.83609 0.1662 0.0
O173 O 0.08358 0.86867 0.14618 0.0
O174 O 0.1242 0.793 0.15974 0.0
O175 O 0.14716 0.80623 0.13043 0.0
O176 O 0.12684 0.85243 0.12454 0.0
O177 O 0.09783 0.86598 0.09783 0.0
O178 O 0.07013 0.82187 0.08698 0.0
O179 O 0.10976 0.81348 0.09356 0.0
C180 C 0.06052 0.79655 0.13289 0.0
O181 O 0.03537 0.86506 0.12907 0.0
O182 O 0.04506 0.86947 0.08975 0.0
C183 C 0.092 0.85866 0.16635 0.0
C184 C 0.14991 0.76543 0.14091 0.0
C185 C 0.16254 0.71838 0.12854 0.0
C186 C 0.16256 0.72597 0.15347 0.0
C187 C 0.15637 0.74933 0.15958 0.0
C188 C 0.14851 0.75752 0.11611 0.0
C189 C 0.15499 0.73421 0.10997 0.0
C190 C 0.14418 0.79016 0.1477 0.0
C191 C 0.11991 0.86641 0.10627 0.0
H192 H 0.98137 0.93259 0.07296 0.0
H193 H 1.01863 0.90974 0.07478 0.0
H194 H 0.98923 0.86706 0.13421 0.0
H195 H 0.95237 0.88976 0.13262 0.0
H196 H 0.16872 0.71427 0.16811 0.0
H197 H 0.15721 0.755 0.17883 0.0
H198 H 0.143 0.76948 0.10142 0.0
H199 H 0.15491 0.72872 0.09067 0.0
Tb200 Tb 0.70571 0.06982 0.1035 0.0
Tb201 Tb 0.7332 0.1115 0.13476 0.0
C202 C 0.74715 0.10096 0.07827 0.0
C203 C 0.67067 1.0135 0.09177 0.0
C204 C 0.64611 0.97117 0.10533 0.0
C205 C 0.65758 0.97318 0.08206 0.0
C206 C 0.66967 0.99408 0.07539 0.0
C207 C 0.6595 1.01159 0.11515 0.0
C208 C 0.64729 0.99067 0.12183 0.0
C209 C 0.683 0.03558 0.08377 0.0
O210 O 0.73379 0.05345 0.12606 0.0
O211 O 0.76009 0.08463 0.12871 0.0
O212 O 0.71654 0.0867 0.16016 0.0
O213 O 0.68456 0.07911 0.13657 0.0
O214 O 0.74651 0.14631 0.13764 0.0
O215 O 0.74518 0.12331 0.16972 0.0
O216 O 0.69857 0.12474 0.12306 0.0
O217 O 0.69499 0.10367 0.08699 0.0
O218 O 0.73333 0.08187 0.07722 0.0
O219 O 0.74794 0.11523 0.09769 0.0
C220 C 0.75576 0.06165 0.12806 0.0
O221 O 0.67341 0.05573 0.09038 0.0
O222 O 0.70605 0.03607 0.08625 0.0
C223 C 0.69377 0.08279 0.15858 0.0
C224 C 0.7306 0.16244 0.1737 0.0
C225 C 0.69519 0.19725 0.18067 0.0
C226 C 0.68936 0.17298 0.18214 0.0
C227 C 0.7069 0.15574 0.1786 0.0
C228 C 0.73686 0.18653 0.17435 0.0
C229 C 0.71931 0.20383 0.17786 0.0
C230 C 0.74669 0.14523 0.16183 0.0
C231 C 0.69028 0.12276 0.10036 0.0
H232 H 0.65682 0.95875 0.06872 0.0
H233 H 0.67808 0.99517 0.05724 0.0
H234 H 0.66013 0.02629 0.1282 0.0
H235 H 0.63893 0.98971 0.14 0.0
H236 H 0.67105 0.16731 0.1846 0.0
H237 H 0.70158 0.13722 0.17785 0.0
H238 H 0.75492 0.19207 0.1701 0.0
H239 H 0.72446 0.22236 0.17624 0.0
Tb240 Tb 0.49351 0.71059 0.10552 0.0
Tb241 Tb 0.45157 0.74324 0.13048 0.0
C242 C 0.47318 0.75713 0.07959 0.0
C243 C 0.54943 0.67375 0.09443 0.0
C244 C 0.59321 0.65033 0.10401 0.0
C245 C 0.58875 0.66085 0.08071 0.0
C246 C 0.56713 0.67235 0.076 0.0
C247 C 0.55401 0.66395 0.11801 0.0
C248 C 0.57567 0.65238 0.12275 0.0
C249 C 0.52593 0.68391 0.08789 0.0
O250 O 0.51252 0.74165 0.11907 0.0
O251 O 0.48449 0.7586 0.14502 0.0
O252 O 0.45037 0.70739 0.14446 0.0
O253 O 0.48989 0.70102 0.14522 0.0
O254 O 0.42018 0.76357 0.12976 0.0
O255 O 0.43736 0.75471 0.16458 0.0
O256 O 0.43332 0.72382 0.10109 0.0
O257 O 0.46019 0.69356 0.09421 0.0
O258 O 0.47977 0.7347 0.07626 0.0
O259 O 0.46615 0.76503 0.10136 0.0
C260 C 0.50605 0.75797 0.13526 0.0
O261 O 0.50745 0.67626 0.10029 0.0
O262 O 0.52483 0.70677 0.08398 0.0
C263 C 0.46859 0.69703 0.15456 0.0
C264 C 0.39595 0.74829 0.16165 0.0
C265 C 0.35651 0.71743 0.16556 0.0
C266 C 0.37846 0.71098 0.17588 0.0
C267 C 0.39796 0.72626 0.174 0.0
C268 C 0.37366 0.75537 0.15267 0.0
C269 C 0.35408 0.74008 0.15463 0.0
C270 C 0.41757 0.76128 0.15383 0.0
C271 C 0.43876 0.7028 0.09187 0.0
H272 H 0.60194 0.66008 0.06597 0.0
H273 H 0.56404 0.67978 0.05769 0.0
H274 H 0.54066 0.66474 0.1326 0.0
H275 H 0.57834 0.64438 0.14085 0.0
H276 H 0.38074 0.6938 0.18473 0.0
H277 H 0.41491 0.72016 0.18109 0.0
H278 H 0.37174 0.77208 0.1428 0.0
H279 H 0.3374 0.74547 0.14634 0.0
Tb280 Tb 0.84801 0.48965 0.10041 0.0
Tb281 Tb 0.81609 0.44543 0.12222 0.0
C282 C 0.80827 0.46394 0.06778 0.0
C283 C 0.88554 0.54615 0.09444 0.0
C284 C 0.91087 0.58852 0.1063 0.0
C285 C 0.88734 0.5895 0.09744 0.0
C286 C 0.8749 0.56863 0.09152 0.0
C287 C 0.90888 0.54509 0.10383 0.0
C288 C 0.92133 0.56599 0.10977 0.0
C289 C 0.87322 0.52438 0.08522 0.0
O290 O 0.82059 0.50462 0.1248 0.0
O291 O 0.79285 0.4759 0.11728 0.0
O292 O 0.83329 0.46088 0.15433 0.0
O293 O 0.86556 0.47724 0.13456 0.0
O294 O 0.7894 0.43363 0.14686 0.0
O295 O 0.80798 0.40899 0.12273 0.0
O296 O 0.85171 0.43227 0.11372 0.0
O297 O 0.85882 0.45717 0.08098 0.0
O298 O 0.82005 0.48377 0.07253 0.0
O299 O 0.8083 0.44561 0.08286 0.0
C300 C 0.79818 0.49788 0.12336 0.0
O301 O 0.8818 0.50367 0.09146 0.0
O302 O 0.85002 0.5243 0.08563 0.0
C303 C 0.85534 0.46845 0.15467 0.0
C304 C 0.76664 0.40268 0.12909 0.0
C305 C 0.72282 0.38245 0.11472 0.0
C306 C 0.72534 0.39307 0.13825 0.0
C307 C 0.74708 0.40297 0.14541 0.0
C308 C 0.76383 0.39311 0.10508 0.0
C309 C 0.74217 0.38293 0.09805 0.0
C310 C 0.78976 0.41221 0.1375 0.0
C311 C 0.86247 0.43686 0.09251 0.0
H312 H 0.87855 0.60647 0.09484 0.0
H313 H 0.85707 0.57016 0.08407 0.0
H314 H 0.91781 0.52813 0.10598 0.0
H315 H 0.9395 0.56449 0.11624 0.0
H316 H 0.7109 0.39256 0.15168 0.0
H317 H 0.74879 0.41035 0.16395 0.0
H318 H 0.77847 0.39294 0.09189 0.0
H319 H 0.74075 0.37481 0.07983 0.0
Tb320 Tb 0.44319 0.81397 0.62328 0.0
Tb321 Tb 0.49015 0.84668 0.61134 0.0
C322 C 0.46117 0.84976 0.6621 0.0
C323 C 0.39957 0.771 0.60491 0.0
C324 C 0.38678 0.74211 0.56398 0.0
C325 C 0.39445 0.73177 0.58643 0.0
C326 C 0.4007 0.74609 0.60671 0.0
C327 C 0.39246 0.78131 0.58228 0.0
C328 C 0.38607 0.76706 0.56214 0.0
C329 C 0.40832 0.78613 0.62546 0.0
O330 O 0.42986 0.84989 0.61794 0.0
O331 O 0.46012 0.86526 0.59377 0.0
O332 O 0.48817 0.8194 0.58188 0.0
O333 O 0.44776 0.81691 0.58342 0.0
O334 O 0.51941 0.86279 0.62813 0.0
O335 O 0.51389 0.86661 0.58802 0.0
O336 O 0.50325 0.8145 0.62969 0.0
O337 O 0.47284 0.78944 0.61941 0.0
O338 O 0.45409 0.82763 0.65921 0.0
O339 O 0.47126 0.86148 0.64361 0.0
C340 C 0.43773 0.86542 0.60152 0.0
O341 O 0.42925 0.78064 0.63403 0.0
O342 O 0.40613 0.80904 0.62248 0.0
C343 C 0.46786 0.81237 0.57208 0.0
C344 C 0.54908 0.88662 0.60668 0.0
C345 C 0.5922 0.91321 0.60693 0.0
C346 C 0.58169 0.90607 0.58433 0.0
C347 C 0.56035 0.89291 0.58421 0.0
C348 C 0.55937 0.89413 0.62917 0.0
C349 C 0.58053 0.90725 0.62929 0.0
C350 C 0.52717 0.87173 0.60724 0.0
C351 C 0.4949 0.79287 0.62638 0.0
H352 H 0.3955 0.71261 0.58839 0.0
H353 H 0.40667 0.73771 0.62373 0.0
H354 H 0.39185 0.80046 0.57998 0.0
H355 H 0.37988 0.77571 0.54537 0.0
H356 H 0.5902 0.91019 0.56673 0.0
H357 H 0.5529 0.88734 0.56659 0.0
H358 H 0.55109 0.8898 0.64684 0.0
H359 H 0.58768 0.91286 0.64704 0.0
Tb360 Tb 0.73745 0.44522 0.63492 0.0
Tb361 Tb 0.70488 0.48503 0.60651 0.0
C362 C 0.68985 0.46233 0.65623 0.0
C363 C 0.74288 0.39168 0.66903 0.0
C364 C 0.71154 0.35265 0.6668 0.0
C365 C 0.70404 0.37411 0.67757 0.0
C366 C 0.71962 0.39343 0.67884 0.0
C367 C 0.75113 0.36945 0.66086 0.0
C368 C 0.73558 0.35004 0.65978 0.0
C369 C 0.75558 0.41346 0.66121 0.0
O370 O 0.71798 0.42412 0.60767 0.0
O371 O 0.68944 0.45106 0.59503 0.0
O372 O 0.72935 0.4698 0.57823 0.0
O373 O 0.75929 0.45685 0.60416 0.0
O374 O 0.67034 0.49729 0.59881 0.0
O375 O 0.70105 0.51634 0.58527 0.0
O376 O 0.73629 0.50455 0.61789 0.0
O377 O 0.75135 0.47949 0.64771 0.0
O378 O 0.70109 0.44382 0.64775 0.0
O379 O 0.69409 0.48316 0.64602 0.0
C380 C 0.6982 0.42931 0.59577 0.0
O381 O 0.75935 0.41501 0.63722 0.0
O382 O 0.74747 0.43344 0.67044 0.0
C383 C 0.75155 0.4626 0.58195 0.0
C384 C 0.66631 0.53942 0.59505 0.0
C385 C 0.64233 0.58304 0.60489 0.0
C386 C 0.66639 0.58287 0.59736 0.0
C387 C 0.67821 0.56136 0.59245 0.0
C388 C 0.64234 0.53958 0.60279 0.0
C389 C 0.63056 0.56105 0.60773 0.0
C390 C 0.67796 0.51657 0.58786 0.0
C391 C 0.75167 0.49981 0.63549 0.0
H392 H 0.6857 0.37646 0.68341 0.0
H393 H 0.71269 0.41027 0.68546 0.0
H394 H 0.76888 0.36768 0.65309 0.0
H395 H 0.74183 0.33369 0.65129 0.0
H396 H 0.67613 0.59941 0.59519 0.0
H397 H 0.69659 0.56198 0.58628 0.0
H398 H 0.63247 0.52307 0.60457 0.0
H399 H 0.61195 0.5604 0.61307 0.0
Tb400 Tb 0.11925 0.73546 0.61772 0.0
Tb401 Tb 0.06923 0.70573 0.61194 0.0
C402 C 0.10002 0.70662 0.66125 0.0
C403 C 0.17837 0.74385 0.59654 0.0
C404 C 0.2064 0.72162 0.55934 0.0
C405 C 0.20105 0.70969 0.58164 0.0
C406 C 0.18724 0.72065 0.60001 0.0
C407 C 0.1842 0.75602 0.5745 0.0
C408 C 0.19804 0.74503 0.55608 0.0
C409 C 0.1597 0.75341 0.61334 0.0
O410 O 0.1287 0.6981 0.6147 0.0
O411 O 0.09647 0.68383 0.59325 0.0
O412 O 0.07101 0.73256 0.5821 0.0
O413 O 0.11049 0.7273 0.5796 0.0
O414 O 0.04029 0.69185 0.63168 0.0
O415 O 0.04333 0.68602 0.59145 0.0
O416 O 0.05879 0.74015 0.62765 0.0
O417 O 0.0924 0.76319 0.62123 0.0
O418 O 0.10766 0.728 0.65541 0.0
O419 O 0.08903 0.69337 0.64461 0.0
C420 C 0.11902 0.68226 0.59991 0.0
O421 O 0.14106 0.762 0.60204 0.0
O422 O 0.15364 0.74005 0.63226 0.0
C423 C 0.09114 0.73609 0.57011 0.0
C424 C 1.00865 0.66817 0.61343 0.0
C425 C 0.9663 0.64067 0.61746 0.0
C426 C 0.97542 0.6473 0.59397 0.0
C427 C 0.99644 0.66081 0.59198 0.0
C428 C 0.9994 0.66174 0.63684 0.0
C429 C 0.97857 0.64817 0.63883 0.0
C430 C 0.0311 0.68216 0.61185 0.0
C431 C 0.06959 0.76103 0.6266 0.0
H432 H 0.20717 0.69166 0.58475 0.0
H433 H 0.18286 0.71053 0.61656 0.0
H434 H 0.17735 0.77376 0.57113 0.0
H435 H 0.20229 0.75493 0.53935 0.0
H436 H 0.96653 0.6417 0.57711 0.0
H437 H 1.00314 0.66545 0.57368 0.0
H438 H 1.00833 0.66709 0.65377 0.0
H439 H 0.97194 0.64376 0.65721 0.0
Tb440 Tb 0.82459 0.11144 0.61812 0.0
Tb441 Tb 0.85468 0.06592 0.59741 0.0
C442 C 0.86074 0.08656 0.6523 0.0
C443 C 0.78118 0.15958 0.6188 0.0
C444 C 0.74584 0.18508 0.59337 0.0
C445 C 0.75791 0.19532 0.61367 0.0
C446 C 0.77544 0.18269 0.62622 0.0
C447 C 0.76913 0.14908 0.59868 0.0
C448 C 0.75138 0.16171 0.58614 0.0
C449 C 0.80085 0.14729 0.63104 0.0
O450 O 0.86136 0.12203 0.61166 0.0
O451 O 0.86713 0.09803 0.57818 0.0
O452 O 0.82668 0.07221 0.56957 0.0
O453 O 0.81907 0.11157 0.57832 0.0
O454 O 0.88793 0.05192 0.58684 0.0
O455 O 0.8563 0.03028 0.58506 0.0
O456 O 0.82566 0.05194 0.62045 0.0
O457 O 0.79963 0.0823 0.61314 0.0
O458 O 0.83907 0.09499 0.65104 0.0
O459 O 0.87134 0.07737 0.63255 0.0
C460 C 0.87191 0.11776 0.59034 0.0
O461 O 0.7964 0.12581 0.63902 0.0
O462 O 0.82109 0.14856 0.61922 0.0
C463 C 0.81673 0.09281 0.56406 0.0
C464 C 0.89289 1.00991 0.59221 0.0
C465 C 0.92095 0.96983 0.60547 0.0
C466 C 0.90062 0.96719 0.59048 0.0
C467 C 0.88685 0.98697 0.5839 0.0
C468 C 0.91286 1.01258 0.60771 0.0
C469 C 0.92672 0.99277 0.61423 0.0
C470 C 0.87938 0.03071 0.58267 0.0
C471 C 0.80368 0.05993 0.61875 0.0
H472 H 0.75362 0.21311 0.62006 0.0
H473 H 0.78467 0.19105 0.64159 0.0
H474 H 0.77361 0.13123 0.59256 0.0
H475 H 0.74226 0.1534 0.57069 0.0
H476 H 0.89576 0.94992 0.58308 0.0
H477 H 0.87173 0.98441 0.57171 0.0
H478 H 0.91806 0.03 0.61443 0.0
H479 H 0.94205 0.99546 0.62606 0.0
Tb480 Tb 0.94028 0.24402 0.90095 0.0
Tb481 Tb 0.98553 0.21121 0.91626 0.0
C482 C 0.95966 0.20694 0.86429 0.0
C483 C 0.89881 0.28996 0.91404 0.0
C484 C 0.88625 0.32264 0.9517 0.0
C485 C 0.88999 0.29859 0.95745 0.0
C486 C 0.89623 0.28245 0.93887 0.0
C487 C 0.89593 0.31413 0.90832 0.0
C488 C 0.88966 0.33037 0.927 0.0
C489 C 0.90702 0.27299 0.89493 0.0
O490 O 0.9253 0.20881 0.90746 0.0
O491 O 0.95458 0.19295 0.93235 0.0
O492 O 0.98141 0.23695 0.947 0.0
O493 O 0.94145 0.24216 0.94115 0.0
O494 O 1.01563 0.19563 0.90067 0.0
O495 O 1.00735 0.19005 0.94014 0.0
O496 O 1.00013 0.2437 0.8996 0.0
O497 O 0.9693 0.2683 0.90912 0.0
O498 O 0.95339 0.22935 0.86612 0.0
O499 O 0.96796 0.19555 0.88377 0.0
C500 C 0.93244 0.19325 0.92416 0.0
O501 O 0.92848 0.27679 0.8865 0.0
O502 O 0.90349 0.25054 0.89991 0.0
C503 C 0.96049 0.24466 0.95487 0.0
C504 C 0.04339 0.17051 0.92263 0.0
C505 C 0.08349 0.13998 0.92274 0.0
C506 C 0.07022 0.14382 0.94469 0.0
C507 C 0.05027 0.1589 0.94461 0.0
C508 C 0.05704 0.16707 0.90094 0.0
C509 C 0.07678 0.15205 0.901 0.0
C510 C 1.02169 0.18548 0.92149 0.0
C511 C 0.99176 0.26519 0.90354 0.0
H512 H 0.88734 0.29211 0.97622 0.0
H513 H 0.89882 0.264 0.94403 0.0
H514 H 0.89836 0.3204 0.88941 0.0
H515 H 0.88643 0.34874 0.92189 0.0
H516 H 0.07491 0.13473 0.96174 0.0
H517 H 0.04008 0.1612 0.96159 0.0
H518 H 0.05235 0.17581 0.88368 0.0
H519 H 0.08686 0.14992 0.88391 0.0
Tb520 Tb 0.31845 0.94272 0.90199 0.0
Tb521 Tb 0.34557 0.9899 0.92447 0.0
C522 C 0.35407 0.97014 0.87126 0.0
C523 C 0.31205 0.88023 0.89579 0.0
C524 C 0.33879 0.84488 0.92032 0.0
C525 C 0.3434 0.85035 0.89525 0.0
C526 C 0.33007 0.86776 0.88305 0.0
C527 C 0.30614 0.87326 0.9202 0.0
C528 C 0.31939 0.85581 0.93232 0.0
C529 C 0.30388 0.90349 0.88613 0.0
O530 O 0.35313 0.93075 0.91456 0.0
O531 O 0.36425 0.96022 0.94206 0.0
O532 O 0.31677 0.98108 0.95086 0.0
O533 O 0.31549 0.94114 0.94213 0.0
O534 O 0.35202 0.02579 0.91704 0.0
O535 O 0.36661 1.00961 0.95005 0.0
O536 O 0.31311 1.0021 0.90604 0.0
O537 O 0.28987 0.9684 0.90371 0.0
O538 O 0.33135 0.96516 0.87212 0.0
O539 O 0.36485 0.97645 0.89186 0.0
C540 C 0.36598 0.93836 0.93331 0.0
O541 O 0.2915 0.91668 0.90148 0.0
O542 O 0.32031 0.91594 0.87478 0.0
C543 C 0.30968 0.95925 0.95632 0.0
C544 C 0.38639 0.04436 0.93339 0.0
C545 C 0.4192 0.08203 0.92498 0.0
C546 C 0.40888 0.07845 0.94863 0.0
C547 C 0.39266 0.05988 0.95273 0.0
C548 C 0.39774 0.04691 0.91014 0.0
C549 C 0.41401 0.06552 0.906 0.0
C550 C 0.36517 0.02893 0.93664 0.0
C551 C 0.29223 0.99165 0.90364 0.0
H552 H 0.35785 0.84176 0.88531 0.0
H553 H 0.33499 0.87266 0.86422 0.0
H554 H 0.29242 0.88245 0.93067 0.0
H555 H 0.31536 0.85206 0.95165 0.0
H556 H 0.4128 0.09048 0.96384 0.0
H557 H 0.38406 0.0584 0.97076 0.0
H558 H 0.39311 0.0353 0.89479 0.0
H559 H 0.42151 0.06772 0.88754 0.0
Tb560 Tb 0.60828 0.31209 0.90089 0.0
Tb561 Tb 0.56549 0.34605 0.92232 0.0
C562 C 0.59067 0.35687 0.87227 0.0
C563 C 0.66864 0.30491 0.88917 0.0
C564 C 0.70455 0.33133 0.91343 0.0
C565 C 0.70604 0.30626 0.91159 0.0
C566 C 0.68802 0.29316 0.89991 0.0
C567 C 0.66867 0.32992 0.88842 0.0
C568 C 0.68609 0.34294 0.90071 0.0
C569 C 0.64568 0.29255 0.88642 0.0
O570 O 0.62429 0.33326 0.93029 0.0
O571 O 0.59855 0.36482 0.93105 0.0
O572 O 0.57921 0.32428 0.95343 0.0
O573 O 0.59043 0.29232 0.92983 0.0
O574 O 0.55235 0.38036 0.92922 0.0
O575 O 0.53221 0.34951 0.94048 0.0
O576 O 0.54803 0.31392 0.90844 0.0
O577 O 0.57686 0.29691 0.88338 0.0
O578 O 0.60897 0.34624 0.88223 0.0
O579 O 0.56952 0.35481 0.88268 0.0
C580 C 0.61938 0.35539 0.93609 0.0
O581 O 0.63567 0.28758 0.90773 0.0
O582 O 0.63054 0.30217 0.87095 0.0
C583 C 0.5849 0.30152 0.95146 0.0
C584 C 0.5101 0.38465 0.93055 0.0
C585 C 0.4683 0.41139 0.92102 0.0
C586 C 0.46763 0.39151 0.93694 0.0
C587 C 0.48831 0.37839 0.94174 0.0
C588 C 0.51062 0.40401 0.91393 0.0
C589 C 0.48997 0.41721 0.90925 0.0
C590 C 0.53235 0.37265 0.93857 0.0
C591 C 0.555 0.29754 0.89238 0.0
H592 H 0.72047 0.29658 0.9202 0.0
H593 H 0.6883 0.27389 0.90096 0.0
H594 H 0.65392 0.33958 0.88047 0.0
H595 H 0.68384 0.36205 0.90168 0.0
H596 H 0.45132 0.38665 0.94651 0.0
H597 H 0.48742 0.36377 0.95486 0.0
H598 H 0.52709 0.40943 0.90502 0.0
H599 H 0.49106 0.43221 0.89662 0.0
Tb600 Tb 0.24504 0.61948 0.91871 0.0
Tb601 Tb 0.21084 0.57325 0.92922 0.0
C602 C 0.2089 0.60275 0.87904 0.0
C603 C 0.29508 0.65816 0.93206 0.0
C604 C 0.33398 0.66864 0.9633 0.0
C605 C 0.33675 0.66851 0.93724 0.0
C606 C 0.31745 0.66337 0.92178 0.0
C607 C 0.29253 0.65721 0.95811 0.0
C608 C 0.31172 0.66263 0.97355 0.0
C609 C 0.27478 0.65279 0.91563 0.0
O610 O 0.20933 0.63391 0.9222 0.0
O611 O 0.19225 0.60396 0.94561 0.0
O612 O 0.23714 0.57452 0.95964 0.0
O613 O 0.24059 0.61484 0.95835 0.0
O614 O 0.19605 0.54329 0.91241 0.0
O615 O 0.18894 0.55058 0.95178 0.0
O616 O 0.24288 0.56041 0.91031 0.0
O617 O 0.26851 0.58914 0.92353 0.0
O618 O 0.231 0.60962 0.88253 0.0
O619 O 0.19665 0.59228 0.89692 0.0
C620 C 0.19285 0.62631 0.93783 0.0
O621 O 0.27651 0.6332 0.90274 0.0
O622 O 0.25366 0.65525 0.92544 0.0
C623 C 0.24419 0.59469 0.96983 0.0
C624 C 0.17132 0.51403 0.93323 0.0
C625 C 0.14363 0.47168 0.93215 0.0
C626 C 0.14107 0.48821 0.95174 0.0
C627 C 0.15487 0.50912 0.95234 0.0
C628 C 0.17392 0.49746 0.91378 0.0
C629 C 0.16033 0.4766 0.91327 0.0
C630 C 0.18547 0.53642 0.9328 0.0
C631 C 0.26464 0.56767 0.91494 0.0
H632 H 0.35354 0.67352 0.92873 0.0
H633 H 0.31989 0.66386 0.90177 0.0
H634 H 0.2756 0.65269 0.96659 0.0
H635 H 0.30908 0.66251 0.99353 0.0
H636 H 0.12851 0.48491 0.9667 0.0
H637 H 0.15247 0.52155 0.96755 0.0
H638 H 0.18644 0.50066 0.89875 0.0
H639 H 0.16257 0.46453 0.89771 0.0
H640 H 0.61194 0.22363 0.32613 0.0
H641 H 0.62462 0.20223 0.28866 0.0
H642 H 0.60222 0.13588 0.32176 0.0
H643 H 0.58897 0.15713 0.35891 0.0
H644 H 0.65878 0.16953 0.28505 0.0
H645 H 0.57444 0.12884 0.25337 0.0
H646 H 0.57529 0.15215 0.27649 0.0
H647 H 0.58092 0.12171 0.28515 0.0
C648 C 0.60931 0.20453 0.32528 0.0
C649 C 0.59936 0.19216 0.3456 0.0
C650 C 0.61663 0.19229 0.30383 0.0
C651 C 0.61413 0.16742 0.30214 0.0
C652 C 0.60382 0.1551 0.32223 0.0
H653 H 0.70426 0.07898 0.20781 0.0
H654 H 0.68378 0.09831 0.24263 0.0
C655 C 0.59638 0.16732 0.34361 0.0
C656 C 0.62394 0.1542 0.28027 0.0
H657 H 0.61026 0.11288 0.23573 0.0
C658 C 0.64808 0.1573 0.27415 0.0
C659 C 0.61002 0.13837 0.26581 0.0
C660 C 0.58368 0.13523 0.27035 0.0
C661 C 0.6588 0.14474 0.25445 0.0
C662 C 0.64517 0.12804 0.24069 0.0
C663 C 0.62086 0.12536 0.24641 0.0
C664 C 0.65578 0.11353 0.22012 0.0
C665 C 0.68462 0.14985 0.24856 0.0
C666 C 0.64595 0.11407 0.1961 0.0
C667 C 0.65725 0.10233 0.17625 0.0
C668 C 0.67872 0.09 0.18003 0.0
C669 C 0.68775 0.08834 0.20432 0.0
C670 C 0.67622 0.09968 0.22419 0.0
H671 H 0.68965 0.16824 0.25411 0.0
H672 H 0.69599 0.13734 0.25917 0.0
H673 H 0.68856 0.14764 0.22849 0.0
H674 H 0.63012 0.12447 0.19244 0.0
H675 H 0.65003 0.10424 0.1577 0.0
H676 H 0.49787 0.68436 0.19404 0.0
H677 H 0.48564 0.6626 0.23201 0.0
H678 H 0.41527 0.65339 0.20165 0.0
H679 H 0.4273 0.67416 0.16419 0.0
H680 H 0.45008 0.67529 0.26535 0.0
H681 H 0.42811 0.58718 0.22627 0.0
H682 H 0.44563 0.60879 0.20931 0.0
H683 H 0.41357 0.6103 0.20916 0.0
C684 C 0.48004 0.67707 0.19529 0.0
C685 C 0.46364 0.68096 0.17602 0.0
C686 C 0.47299 0.66481 0.21704 0.0
C687 C 0.44957 0.65596 0.21963 0.0
C688 C 0.43356 0.65939 0.20003 0.0
H689 H 0.34371 0.61465 0.32503 0.0
H690 H 0.36854 0.62667 0.28962 0.0
C691 C 0.4405 0.67152 0.17857 0.0
C692 C 0.4408 0.64473 0.24319 0.0
H693 H 0.4077 0.59769 0.26462 0.0
C694 C 0.44133 0.65806 0.26534 0.0
C695 C 0.42927 0.62224 0.24332 0.0
C696 C 0.42933 0.60622 0.22077 0.0
C697 C 0.42948 0.65017 0.28703 0.0
C698 C 0.41682 0.62835 0.28663 0.0
C699 C 0.41718 0.61453 0.26487 0.0
C700 C 0.40202 0.62024 0.30813 0.0
C701 C 0.42954 0.66572 0.30991 0.0
C702 C 0.41256 0.61221 0.33024 0.0
C703 C 0.39838 0.60508 0.35051 0.0
C704 C 0.37333 0.60599 0.34916 0.0
C705 C 0.36289 0.61374 0.32682 0.0
C706 C 0.37707 0.62063 0.30651 0.0
H707 H 0.43794 0.68333 0.3064 0.0
H708 H 0.41104 0.66855 0.31667 0.0
H709 H 0.43952 0.65667 0.32496 0.0
H710 H 0.43176 0.61155 0.33184 0.0
H711 H 0.40707 0.59928 0.36739 0.0
H712 H 0.95679 0.40066 0.36003 0.0
H713 H 0.94172 0.42258 0.32409 0.0
H714 H 0.93399 0.35665 0.28372 0.0
H715 H 0.94819 0.33453 0.31993 0.0
H716 H 0.95479 0.42883 0.27693 0.0
H717 H 0.86788 0.38217 0.27829 0.0
H718 H 0.88933 0.37886 0.30288 0.0
H719 H 0.89237 0.36203 0.27449 0.0
C720 C 0.95204 0.39079 0.34345 0.0
C721 C 0.95347 0.36575 0.34302 0.0
C722 C 0.94339 0.40339 0.32286 0.0
C723 C 0.93609 0.3913 0.30129 0.0
C724 C 0.93874 0.3664 0.30035 0.0
H725 H 0.90285 0.45768 0.15766 0.0
H726 H 0.92368 0.44071 0.19346 0.0
C727 C 0.94707 0.35376 0.32105 0.0
C728 C 0.92513 0.40466 0.28016 0.0
H729 H 0.87567 0.40684 0.2434 0.0
C730 C 0.93744 0.42407 0.26966 0.0
C731 C 0.90226 0.39885 0.27087 0.0
C732 C 0.88708 0.37952 0.28237 0.0
C733 C 0.92772 0.43755 0.25003 0.0
C734 C 0.90527 0.43111 0.2401 0.0
C735 C 0.89292 0.41181 0.25078 0.0
C736 C 0.89385 0.44409 0.21894 0.0
C737 C 0.94137 0.45892 0.24066 0.0
C738 C 0.87011 0.45178 0.22106 0.0
C739 C 0.85807 0.46106 0.20049 0.0
C740 C 0.86953 0.4632 0.17728 0.0
C741 C 0.89366 0.4567 0.1754 0.0
C742 C 0.90562 0.44699 0.19593 0.0
H743 H 0.95381 0.46584 0.25498 0.0
H744 H 0.95212 0.45366 0.22419 0.0
H745 H 0.92918 0.47352 0.23511 0.0
H746 H 0.86057 0.44986 0.23851 0.0
H747 H 0.83948 0.46582 0.20255 0.0
H748 H 0.17331 0.92106 0.37013 0.0
H749 H 0.15234 0.91032 0.33255 0.0
H750 H 0.15039 0.98411 0.31038 0.0
H751 H 0.17223 0.99521 0.34848 0.0
H752 H 0.10849 0.92308 0.31491 0.0
H753 H 0.18022 0.95145 0.24939 0.0
H754 H 0.18516 0.94883 0.28243 0.0
H755 H 0.16881 0.97369 0.27037 0.0
C756 C 0.16841 0.93523 0.35746 0.0
C757 C 0.17465 0.9591 0.36239 0.0
C758 C 0.15629 0.92895 0.33587 0.0
C759 C 0.14997 0.94627 0.31836 0.0
C760 C 0.15542 0.97033 0.32341 0.0
H761 H 0.09097 0.90745 0.17115 0.0
H762 H 0.1025 0.93133 0.20745 0.0
C763 C 0.16769 0.97671 0.34529 0.0
C764 C 0.1381 0.93837 0.29492 0.0
H765 H 0.14765 0.93092 0.23243 0.0
C766 C 0.1169 0.92512 0.29683 0.0
C767 C 0.14903 0.94093 0.27125 0.0
C768 C 0.17214 0.95434 0.26806 0.0
C769 C 0.10685 0.91373 0.27605 0.0
C770 C 0.11836 0.91536 0.25264 0.0
C771 C 0.13887 0.92959 0.2504 0.0
C772 C 0.11039 0.90102 0.23081 0.0
C773 C 0.08416 0.89966 0.27944 0.0
C774 C 0.11103 0.87603 0.23177 0.0
C775 C 0.10454 0.86234 0.21108 0.0
C776 C 0.09721 0.87331 0.18885 0.0
C777 C 0.09633 0.89837 0.188 0.0
C778 C 0.10301 0.91208 0.2087 0.0
H779 H 0.07405 0.90565 0.29612 0.0
H780 H 0.07253 0.90124 0.26287 0.0
H781 H 0.08864 0.88058 0.28201 0.0
H782 H 0.11703 0.86705 0.24844 0.0
H783 H 0.10559 0.84313 0.21244 0.0
H784 H 0.40098 0.95699 0.86875 0.0
H785 H 0.42157 0.93824 0.83367 0.0
H786 H 0.35908 0.94748 0.78828 0.0
H787 H 0.33811 0.96524 0.82366 0.0
H788 H 0.37398 0.90432 0.78368 0.0
H789 H 0.45268 0.96271 0.77239 0.0
H790 H 0.45054 0.95084 0.80327 0.0
H791 H 0.42781 0.97069 0.79203 0.0
C792 C 0.39182 0.95553 0.85112 0.0
C793 C 0.36793 0.96273 0.84897 0.0
C794 C 0.40366 0.94484 0.83098 0.0
C795 C 0.39208 0.94163 0.80806 0.0
C796 C 0.36849 0.94968 0.80569 0.0
H797 H 0.45849 0.898 0.66869 0.0
H798 H 0.44239 0.9196 0.70443 0.0
C799 C 0.35653 0.95997 0.82591 0.0
C800 C 0.40372 0.92836 0.78715 0.0
H801 H 0.454 0.92539 0.75109 0.0
C802 C 0.39143 0.90908 0.77649 0.0
C803 C 0.42641 0.93456 0.77746 0.0
C804 C 0.44001 0.95598 0.7867 0.0
C805 C 0.40108 0.89589 0.75661 0.0
C806 C 0.42419 0.90145 0.7476 0.0
C807 C 0.43646 0.92081 0.75815 0.0
C808 C 0.43547 0.8881 0.72654 0.0
C809 C 0.38595 0.87664 0.74501 0.0
C810 C 0.43769 0.86314 0.72715 0.0
C811 C 0.44658 0.85067 0.7065 0.0
C812 C 0.45403 0.86291 0.68499 0.0
C813 C 0.45298 0.88796 0.68493 0.0
C814 C 0.44373 0.90037 0.70541 0.0
H815 H 0.3667 0.87951 0.74881 0.0
H816 H 0.38864 0.87583 0.72455 0.0
H817 H 0.39088 0.85915 0.75308 0.0
H818 H 0.43224 0.85323 0.74349 0.0
H819 H 0.44738 0.83141 0.70729 0.0
H820 H 0.5615 0.39074 0.84997 0.0
H821 H 0.57154 0.41639 0.81413 0.0
H822 H 0.64014 0.3824 0.80825 0.0
H823 H 0.63055 0.35734 0.8436 0.0
H824 H 0.64406 0.43075 0.80591 0.0
H825 H 0.5746 0.39871 0.74035 0.0
H826 H 0.56438 0.40998 0.76984 0.0
H827 H 0.58153 0.38304 0.76871 0.0
C828 C 0.57863 0.38868 0.84088 0.0
C829 C 0.59519 0.37197 0.84984 0.0
C830 C 0.58435 0.40332 0.82034 0.0
C831 C 0.60665 0.40135 0.80832 0.0
C832 C 0.62292 0.38449 0.81718 0.0
H833 H 0.66813 0.4209 0.66825 0.0
H834 H 0.64515 0.41125 0.70519 0.0
C835 C 0.61732 0.37006 0.83752 0.0
C836 C 0.6137 0.41657 0.7866 0.0
H837 H 0.60291 0.42562 0.72472 0.0
C838 C 0.63483 0.42998 0.78824 0.0
C839 C 0.60177 0.41551 0.76348 0.0
C840 C 0.5794 0.40095 0.76025 0.0
C841 C 0.64499 0.44121 0.76728 0.0
C842 C 0.63348 0.4395 0.74394 0.0
C843 C 0.61169 0.42713 0.74258 0.0
C844 C 0.6455 0.44698 0.72024 0.0
C845 C 0.6688 0.45343 0.76999 0.0
C846 C 0.65301 0.4706 0.71571 0.0
C847 C 0.66651 0.47627 0.69429 0.0
C848 C 0.6727 0.45839 0.67711 0.0
C849 C 0.66402 0.43514 0.68117 0.0
C850 C 0.65068 0.42955 0.70235 0.0
H851 H 0.67717 0.44969 0.78826 0.0
H852 H 0.68123 0.44767 0.75503 0.0
H853 H 0.66636 0.47297 0.76838 0.0
H854 H 0.64888 0.48453 0.72897 0.0
H855 H 0.67285 0.49433 0.69171 0.0
H856 H 0.11245 0.72874 0.70487 0.0
H857 H 0.1289 0.71032 0.74237 0.0
H858 H 0.1242 0.6412 0.70759 0.0
H859 H 0.10649 0.65934 0.67082 0.0
H860 H 0.11309 0.63623 0.7532 0.0
H861 H 0.19549 0.69024 0.75141 0.0
H862 H 0.16959 0.70859 0.75456 0.0
H863 H 0.17403 0.69129 0.72663 0.0
C864 C 0.11473 0.70959 0.70536 0.0
C865 C 0.1082 0.69554 0.68483 0.0
C866 C 0.12443 0.69907 0.72671 0.0
C867 C 0.12857 0.67436 0.72769 0.0
C868 C 0.12138 0.66028 0.70741 0.0
H869 H 0.22847 0.61154 0.83319 0.0
H870 H 0.20848 0.62699 0.79617 0.0
C871 C 0.11119 0.67071 0.68634 0.0
C872 C 0.14038 0.66304 0.74965 0.0
H873 H 0.18893 0.66682 0.78764 0.0
C874 C 0.12976 0.64288 0.76061 0.0
C875 C 0.16244 0.67125 0.75917 0.0
C876 C 0.17617 0.69135 0.74716 0.0
C877 C 0.14035 0.63091 0.78074 0.0
C878 C 0.16174 0.63989 0.7911 0.0
C879 C 0.17245 0.65994 0.78002 0.0
C880 C 0.17349 0.62883 0.81324 0.0
C881 C 0.12877 0.6083 0.79004 0.0
C882 C 0.16064 0.62444 0.8353 0.0
C883 C 0.17195 0.61495 0.85627 0.0
C884 C 0.19656 0.61032 0.85596 0.0
C885 C 0.20947 0.61482 0.83399 0.0
C886 C 0.19804 0.62377 0.81283 0.0
H887 H 0.11814 0.59958 0.7752 0.0
H888 H 0.14219 0.59537 0.79682 0.0
H889 H 0.11642 0.61267 0.80554 0.0
H890 H 0.14194 0.62891 0.83661 0.0
H891 H 0.16157 0.61216 0.87306 0.0
H892 H 0.84392 0.09023 0.69979 0.0
H893 H 0.86409 0.10798 0.73551 0.0
H894 H 0.92823 0.11567 0.69179 0.0
H895 H 0.90832 0.09697 0.65621 0.0
H896 H 0.93916 0.1055 0.73905 0.0
H897 H 0.87324 0.17857 0.73906 0.0
H898 H 0.85934 0.15013 0.74354 0.0
H899 H 0.87451 0.15655 0.71469 0.0
C900 C 0.8625 0.09519 0.69795 0.0
C901 C 0.87449 0.09224 0.67513 0.0
C902 C 0.87395 0.10564 0.71832 0.0
C903 C 0.89747 0.11402 0.71618 0.0
C904 C 0.91001 0.10963 0.69391 0.0
H905 H 0.94896 0.22445 0.81794 0.0
H906 H 0.93657 0.20199 0.78113 0.0
C907 C 0.89865 0.09877 0.67359 0.0
C908 C 0.90846 0.12828 0.73669 0.0
H909 H 0.89901 0.17674 0.77402 0.0
C910 C 0.93044 0.12115 0.74661 0.0
C911 C 0.89749 0.14914 0.74623 0.0
C912 C 0.87499 0.15921 0.73515 0.0
C913 C 0.94134 0.13382 0.76617 0.0
C914 C 0.92964 0.15386 0.77669 0.0
C915 C 0.90797 0.16129 0.7663 0.0
C916 C 0.93925 0.16732 0.79856 0.0
C917 C 0.96553 0.12582 0.77492 0.0
C918 C 0.9451 0.1555 0.82076 0.0
C919 C 0.95261 0.16831 0.84171 0.0
C920 C 0.95394 0.19336 0.84123 0.0
C921 C 0.94819 0.2052 0.81899 0.0
C922 C 0.94103 0.19233 0.79791 0.0
H923 H 0.97533 0.11624 0.75996 0.0
H924 H 0.97654 0.14112 0.78116 0.0
H925 H 0.96328 0.11331 0.79073 0.0
H926 H 0.9432 0.13637 0.82221 0.0
H927 H 0.95656 0.15858 0.85859 0.0
H928 H 0.46061 0.09576 0.39766 0.0
H929 H 0.42335 0.07393 0.39166 0.0
H930 H 0.38614 0.12566 0.43651 0.0
H931 H 0.42328 0.14798 0.44213 0.0
H932 H 0.3923 0.05359 0.42685 0.0
H933 H 0.34696 0.12387 0.37204 0.0
H934 H 0.37864 0.12414 0.37762 0.0
H935 H 0.35829 0.13353 0.40158 0.0
C936 C 0.44448 0.1026 0.40615 0.0
C937 C 0.44494 0.12378 0.4202 0.0
C938 C 0.42321 0.09002 0.40279 0.0
C939 C 0.40185 0.09837 0.41323 0.0
C940 C 0.40231 0.11912 0.42785 0.0
H941 H 0.25646 0.04785 0.41852 0.0
H942 H 0.29314 0.07119 0.41932 0.0
C943 C 0.42363 0.13171 0.43131 0.0
C944 C 0.3792 0.0852 0.40893 0.0
H945 H 0.32365 0.09037 0.38367 0.0
C946 C 0.37733 0.06158 0.41729 0.0
C947 C 0.35967 0.09564 0.39645 0.0
C948 C 0.36095 0.12062 0.38618 0.0
C949 C 0.3563 0.04831 0.41404 0.0
C950 C 0.33676 0.05874 0.40154 0.0
C951 C 0.33866 0.08234 0.3931 0.0
C952 C 0.31384 0.04575 0.39815 0.0
C953 C 0.35496 1.02348 0.42474 0.0
C954 C 0.31289 1.02417 0.38494 0.0
C955 C 0.29185 1.0107 0.38439 0.0
C956 C 0.2713 1.01862 0.39699 0.0
C957 C 0.27192 0.04108 0.4087 0.0
C958 C 0.29294 0.05448 0.40923 0.0
H959 H 0.36906 1.02034 0.43881 0.0
H960 H 0.33734 1.02019 0.43357 0.0
H961 H 0.35741 1.01031 0.40955 0.0
H962 H 0.32866 1.01734 0.37572 0.0
H963 H 0.2921 0.99355 0.37517 0.0
H964 H 0.45531 0.45838 0.45403 0.0
H965 H 0.48036 0.42276 0.45013 0.0
H966 H 0.43578 0.39696 0.39084 0.0
H967 H 0.41055 0.43215 0.3948 0.0
H968 H 0.46854 0.3731 0.45322 0.0
H969 H 0.50337 0.39771 0.35987 0.0
H970 H 0.48852 0.41878 0.38003 0.0
H971 H 0.47145 0.39767 0.36236 0.0
C972 C 0.45066 0.44499 0.44037 0.0
C973 C 0.43106 0.44833 0.42451 0.0
C974 C 0.46507 0.4247 0.43808 0.0
C975 C 0.46023 0.40744 0.41984 0.0
C976 C 0.44021 0.41031 0.40463 0.0
H977 H 0.51512 0.26313 0.40619 0.0
H978 H 0.49016 0.29866 0.40964 0.0
C979 C 0.42581 0.43049 0.40693 0.0
C980 C 0.47609 0.38647 0.41651 0.0
H981 H 0.51242 0.35877 0.37426 0.0
C982 C 0.47819 0.36999 0.436 0.0
C983 C 0.48889 0.38257 0.39411 0.0
C984 C 0.48819 0.4002 0.37295 0.0
C985 C 0.49234 0.34946 0.4335 0.0
C986 C 0.50451 0.34517 0.4108 0.0
C987 C 0.50284 0.36192 0.39152 0.0
C988 C 0.51945 0.32361 0.40696 0.0
C989 C 0.4944 0.33264 0.45527 0.0
C990 C 0.54411 0.32582 0.40331 0.0
C991 C 0.55846 0.30554 0.40121 0.0
C992 C 0.54842 0.28256 0.40252 0.0
C993 C 0.52353 0.28047 0.40509 0.0
C994 C 0.50922 0.30078 0.40729 0.0
H995 H 0.4885 0.34109 0.47295 0.0
H996 H 0.48301 0.31681 0.45192 0.0
H997 H 0.51304 0.32643 0.45746 0.0
H998 H 0.55236 0.34327 0.40282 0.0
H999 H 0.57752 0.30792 0.39926 0.0
H1000 H 0.12967 0.40798 0.43789 0.0
H1001 H 0.16637 0.43159 0.43414 0.0
H1002 H 0.12626 0.48994 0.40355 0.0
H1003 H 0.08956 0.46657 0.40732 0.0
H1004 H 0.18499 0.45352 0.3872 0.0
H1005 H 0.16632 0.51918 0.46218 0.0
H1006 H 0.15182 0.49046 0.46078 0.0
H1007 H 0.14258 0.51404 0.44046 0.0
C1008 C 0.12862 0.42596 0.43067 0.0
C1009 C 0.10664 0.43539 0.42294 0.0
C1010 C 0.14963 0.43936 0.42838 0.0
C1011 C 0.14905 0.46258 0.41869 0.0
C1012 C 0.12712 0.47214 0.41126 0.0
H1013 H 0.24911 0.57759 0.39409 0.0
H1014 H 0.21447 0.55142 0.39698 0.0
C1015 C 0.10617 0.4587 0.41331 0.0
C1016 C 0.17136 0.47669 0.41576 0.0
H1017 H 0.19955 0.52692 0.43624 0.0
C1018 C 0.1883 0.4695 0.398 0.0
C1019 C 0.17556 0.49758 0.42978 0.0
C1020 C 0.15825 0.50578 0.44953 0.0
C1021 C 0.20903 0.48301 0.39339 0.0
C1022 C 0.21326 0.50399 0.4074 0.0
C1023 C 0.19638 0.51093 0.4254 0.0
C1024 C 0.23476 0.51931 0.40354 0.0
C1025 C 0.22573 0.47508 0.37294 0.0
C1026 C 0.25792 0.51006 0.4059 0.0
C1027 C 0.2779 0.52501 0.40389 0.0
C1028 C 0.27514 0.54962 0.39988 0.0
C1029 C 0.25196 0.55873 0.39709 0.0
C1030 C 0.23207 0.54377 0.39886 0.0
H1031 H 0.21667 0.46318 0.35943 0.0
H1032 H 0.23321 0.49057 0.3627 0.0
H1033 H 0.2407 0.46499 0.38123 0.0
H1034 H 0.26057 0.4914 0.41013 0.0
H1035 H 0.29544 0.51745 0.40654 0.0
H1036 H 0.15805 0.13031 0.42559 0.0
H1037 H 0.13543 0.16706 0.41859 0.0
H1038 H 0.07001 0.12683 0.41903 0.0
H1039 H 0.09237 0.09013 0.42579 0.0
H1040 H 0.10283 0.18068 0.38063 0.0
H1041 H 0.05872 0.1773 0.47306 0.0
H1042 H 0.08438 0.15934 0.46544 0.0
H1043 H 0.05523 0.15053 0.45517 0.0
C1044 C 0.13887 0.12923 0.42392 0.0
C1045 C 0.12706 0.10721 0.4266 0.0
C1046 C 0.12595 0.15029 0.42001 0.0
C1047 C 0.10096 0.14981 0.41879 0.0
C1048 C 0.08922 0.12778 0.42053 0.0
H1049 H 0.98358 0.2472 0.40551 0.0
H1050 H 1.01066 0.21347 0.40814 0.0
C1051 C 0.10207 0.10677 0.42443 0.0
C1052 C 0.08701 0.17226 0.41609 0.0
H1053 H 0.04347 0.20534 0.44418 0.0
C1054 C 0.08999 0.18622 0.39459 0.0
C1055 C 0.0703 0.17955 0.43436 0.0
C1056 C 0.06707 0.16605 0.45843 0.0
C1057 C 0.07605 0.20671 0.39046 0.0
C1058 C 0.05896 0.21369 0.40852 0.0
C1059 C 0.05643 0.19999 0.43025 0.0
C1060 C 0.04282 0.23454 0.40504 0.0
C1061 C 0.07914 0.2202 0.36639 0.0
C1062 C 0.05176 0.25782 0.40222 0.0
C1063 C 0.03619 0.27734 0.40057 0.0
C1064 C 1.01136 0.27397 0.40192 0.0
C1065 C 1.00255 0.25059 0.40437 0.0
C1066 C 1.01805 0.23118 0.40593 0.0
H1067 H 0.08856 0.20941 0.35209 0.0
H1068 H 0.06164 0.22577 0.35883 0.0
H1069 H 0.08985 0.23647 0.36988 0.0
H1070 H 0.07078 0.26099 0.402 0.0
H1071 H 0.04362 0.29508 0.39894 0.0
H1072 H 0.91766 0.89749 0.10658 0.0
H1073 H 0.88151 0.92156 0.11009 0.0
H1074 H 0.92359 0.98559 0.10365 0.0
H1075 H 0.95979 0.96162 0.09994 0.0
H1076 H 0.86955 0.95379 0.14549 0.0
H1077 H 0.87186 0.9984 0.05361 0.0
H1078 H 0.89042 0.97313 0.06078 0.0
H1079 H 0.89882 1.00252 0.07087 0.0
C1080 C 0.91922 0.9167 0.10577 0.0
C1081 C 0.94166 0.92761 0.1029 0.0
C1082 C 0.89851 0.93045 0.10774 0.0
C1083 C 0.89971 0.95541 0.10682 0.0
C1084 C 0.92207 0.96636 0.10379 0.0
H1085 H 0.80312 0.07283 0.1292 0.0
H1086 H 0.83702 0.04603 0.1249 0.0
C1087 C 0.94279 0.95262 0.10168 0.0
C1088 C 0.87774 0.96997 0.11013 0.0
H1089 H 0.84475 1.01428 0.08362 0.0
C1090 C 0.86401 0.96686 0.13185 0.0
C1091 C 0.87043 0.98702 0.09232 0.0
C1092 C 0.88351 0.99034 0.06797 0.0
C1093 C 0.84364 0.98076 0.13654 0.0
C1094 C 0.83667 0.99811 0.11897 0.0
C1095 C 0.85019 1.00103 0.09713 0.0
C1096 C 0.8158 1.01393 0.12313 0.0
C1097 C 0.83011 0.97729 0.16057 0.0
C1098 C 0.79249 1.00478 0.12376 0.0
C1099 C 0.77291 1.02013 0.1262 0.0
C1100 C 0.77629 0.04491 0.12807 0.0
C1101 C 0.79974 0.05387 0.12795 0.0
C1102 C 0.81922 0.03858 0.12539 0.0
H1103 H 0.84032 0.96654 0.1742 0.0
H1104 H 0.82569 0.99475 0.16914 0.0
H1105 H 0.81313 0.96789 0.15668 0.0
H1106 H 0.78942 0.98584 0.12172 0.0
H1107 H 0.75514 1.01261 0.12602 0.0
H1108 H 0.55296 0.76171 0.12149 0.0
H1109 H 0.57764 0.79754 0.12104 0.0
H1110 H 0.52117 0.83697 0.15665 0.0
H1111 H 0.4964 0.80109 0.15749 0.0
H1112 H 0.56616 0.83801 0.09556 0.0
H1113 H 0.5789 0.86001 0.19524 0.0
H1114 H 0.56858 0.83116 0.18499 0.0
H1115 H 0.54835 0.85592 0.18645 0.0
C1116 C 0.54592 0.77782 0.12981 0.0
C1117 C 0.52261 0.77837 0.13957 0.0
C1118 C 0.56008 0.79838 0.12944 0.0
C1119 C 0.5514 0.82003 0.1389 0.0
C1120 C 0.52852 0.82044 0.14965 0.0
H1121 H 0.60308 0.96703 0.12977 0.0
H1122 H 0.58042 0.93062 0.13858 0.0
C1123 C 0.51433 0.79983 0.1501 0.0
C1124 C 0.56542 0.84244 0.13534 0.0
H1125 H 0.59094 0.88944 0.1659 0.0
C1126 C 0.5717 0.84914 0.11099 0.0
C1127 C 0.57246 0.85719 0.1554 0.0
C1128 C 0.56694 0.85066 0.18202 0.0
C1129 C 0.58457 0.87015 0.1061 0.0
C1130 C 0.59188 0.88478 0.12615 0.0
C1131 C 0.58543 0.87823 0.15052 0.0
C1132 C 0.6063 0.90683 0.12207 0.0
C1133 C 0.58974 0.87675 0.07939 0.0
C1134 C 0.62871 0.90563 0.1104 0.0
C1135 C 0.64173 0.9264 0.10536 0.0
C1136 C 0.63276 0.94894 0.11203 0.0
C1137 C 0.61065 0.95002 0.12449 0.0
C1138 C 0.5976 0.9292 0.12947 0.0
H1139 H 0.57751 0.86755 0.06633 0.0
H1140 H 0.58815 0.89627 0.0765 0.0
H1141 H 0.60821 0.87137 0.07461 0.0
H1142 H 0.63613 0.88857 0.10506 0.0
H1143 H 0.65889 0.92476 0.09625 0.0
H1144 H 0.62093 0.64884 0.14624 0.0
H1145 H 0.65752 0.626 0.15297 0.0
H1146 H 0.65284 0.59777 0.07856 0.0
H1147 H 0.61632 0.62029 0.07173 0.0
H1148 H 0.6653 0.57771 0.15154 0.0
H1149 H 0.72101 0.6221 0.08009 0.0
H1150 H 0.69297 0.63424 0.09064 0.0
H1151 H 0.69358 0.61088 0.06769 0.0
C1152 C 0.62764 0.63774 0.1313 0.0
C1153 C 0.61569 0.63666 0.10833 0.0
C1154 C 0.64865 0.62476 0.13515 0.0
C1155 C 0.65827 0.61051 0.1161 0.0
C1156 C 0.64621 0.60914 0.09331 0.0
H1157 H 0.75042 0.48913 0.12122 0.0
H1158 H 0.71787 0.51766 0.122 0.0
C1159 C 0.62527 0.62208 0.08944 0.0
C1160 C 0.68039 0.59636 0.12021 0.0
H1161 H 0.73551 0.58488 0.09567 0.0
C1162 C 0.68074 0.57947 0.13949 0.0
C1163 C 0.70079 0.59887 0.10481 0.0
C1164 C 0.70223 0.61767 0.08481 0.0
C1165 C 0.70043 0.56437 0.14306 0.0
C1166 C 0.72021 0.56588 0.12667 0.0
C1167 C 0.7203 0.58349 0.1081 0.0
C1168 C 0.74032 0.54854 0.12754 0.0
C1169 C 0.69978 0.54691 0.16438 0.0
C1170 C 0.76405 0.5563 0.12992 0.0
C1171 C 0.78293 0.5399 0.12932 0.0
C1172 C 0.77845 0.51542 0.12611 0.0
C1173 C 0.75465 0.50777 0.12394 0.0
C1174 C 0.73589 0.52411 0.12453 0.0
H1175 H 0.68774 0.55311 0.17951 0.0
H1176 H 0.69291 0.52955 0.1576 0.0
H1177 H 0.71782 0.54406 0.17222 0.0
H1178 H 0.76797 0.57509 0.13206 0.0
H1179 H 0.80101 0.54646 0.13086 0.0
H1180 H 0.07204 0.74935 0.13004 0.0
H1181 H 0.04523 0.71528 0.12727 0.0
H1182 H 0.9847 0.762 0.13401 0.0
H1183 H 1.01153 0.79645 0.13705 0.0
H1184 H 0.98039 0.71963 0.16242 0.0
H1185 H 1.0064 0.69995 0.0649 0.0
H1186 H 0.03113 0.70146 0.0859 0.0
H1187 H 1.01374 0.72771 0.08001 0.0
C1188 C 0.05304 0.7525 0.13114 0.0
C1189 C 0.04399 0.77577 0.13365 0.0
C1190 C 0.03771 0.73292 0.12939 0.0
C1191 C 1.01293 0.73607 0.12993 0.0
C1192 C 1.00377 0.75914 0.13338 0.0
H1193 H 0.91121 0.62954 0.07853 0.0
H1194 H 0.93447 0.66576 0.08531 0.0
C1195 C 1.01914 0.77882 0.13515 0.0
C1196 C 0.99673 0.71529 0.12641 0.0
H1197 H 0.98296 0.67066 0.08559 0.0
C1198 C 0.98086 0.70897 0.14559 0.0
C1199 C 0.9971 0.70155 0.1043 0.0
C1200 C 1.01283 0.70809 0.08249 0.0
C1201 C 0.9658 0.68898 0.14349 0.0
C1202 C 0.96682 0.67473 0.12175 0.0
C1203 C 0.98231 0.6814 0.10236 0.0
C1204 C 0.95187 0.65295 0.11853 0.0
C1205 C 0.94868 0.6835 0.16443 0.0
C1206 C 0.9539 0.63353 0.13487 0.0
C1207 C 0.94046 0.61277 0.13113 0.0
C1208 C 0.92473 0.61089 0.11088 0.0
C1209 C 0.92277 0.63042 0.09457 0.0
C1210 C 0.93622 0.65113 0.09831 0.0
H1211 H 0.9455 0.69933 0.1764 0.0
H1212 H 0.93132 0.67714 0.15715 0.0
H1213 H 0.9563 0.66924 0.17625 0.0
H1214 H 0.96618 0.63427 0.15034 0.0
H1215 H 0.94237 0.59819 0.14416 0.0
H1216 H 0.80371 1.01081 0.62035 0.0
H1217 H 0.76901 0.98414 0.619 0.0
H1218 H 0.72221 0.04492 0.61876 0.0
H1219 H 0.75652 0.07156 0.62024 0.0
H1220 H 0.70759 1.00839 0.65158 0.0
H1221 H 0.72689 0.97376 0.5567 0.0
H1222 H 0.75073 0.97124 0.57877 0.0
H1223 H 0.74098 1.00018 0.56896 0.0
C1224 C 0.78603 1.01848 0.62027 0.0
C1225 C 0.78298 0.04337 0.62037 0.0
C1226 C 0.76621 1.00321 0.61928 0.0
C1227 C 0.74298 1.01252 0.6184 0.0
C1228 C 0.73992 0.0373 0.6193 0.0
H1229 H 0.60767 0.94889 0.57545 0.0
H1230 H 0.6446 0.97211 0.57808 0.0
C1231 C 0.75964 0.05252 0.62017 0.0
C1232 C 0.72173 0.99669 0.61637 0.0
H1233 H 0.69358 0.95737 0.57766 0.0
C1234 C 0.70459 0.99714 0.63548 0.0
C1235 C 0.71761 0.98231 0.59516 0.0
C1236 C 0.73487 0.98188 0.57358 0.0
C1237 C 0.68358 0.98352 0.63405 0.0
C1238 C 0.67964 0.96882 0.61304 0.0
C1239 C 0.69668 0.9685 0.59383 0.0
C1240 C 0.65779 0.95388 0.61067 0.0
C1241 C 0.66549 0.9854 0.65481 0.0
C1242 C 0.65315 0.93551 0.62772 0.0
C1243 C 0.63216 0.92211 0.62617 0.0
C1244 C 0.61522 0.92672 0.60751 0.0
C1245 C 0.62028 0.9447 0.58998 0.0
C1246 C 0.64136 0.95808 0.59152 0.0
H1247 H 0.66848 1.00144 0.6665 0.0
H1248 H 0.64712 0.98605 0.64728 0.0
H1249 H 0.66688 0.96948 0.66694 0.0
H1250 H 0.66577 0.93157 0.64232 0.0
H1251 H 0.62925 0.90806 0.63965 0.0
H1252 H 0.64534 0.62433 0.57758 0.0
H1253 H 0.62284 0.66122 0.58331 0.0
H1254 H 0.58638 0.63037 0.6463 0.0
H1255 H 0.60935 0.59371 0.64122 0.0
H1256 H 0.57469 0.66745 0.58077 0.0
H1257 H 0.60671 0.69467 0.67392 0.0
H1258 H 0.6215 0.67218 0.65549 0.0
H1259 H 0.59521 0.66484 0.67314 0.0
C1260 C 0.63289 0.62551 0.59297 0.0
C1261 C 0.62929 0.60596 0.60898 0.0
C1262 C 0.61988 0.6466 0.59611 0.0
C1263 C 0.60309 0.64878 0.61543 0.0
C1264 C 0.59953 0.62937 0.63154 0.0
H1265 H 0.48333 0.74586 0.62066 0.0
H1266 H 0.51008 0.71174 0.61858 0.0
C1267 C 0.61251 0.60826 0.62841 0.0
C1268 C 0.58846 0.67084 0.61793 0.0
H1269 H 0.57257 0.71513 0.65849 0.0
C1270 C 0.57435 0.67793 0.59773 0.0
C1271 C 0.58819 0.68477 0.63992 0.0
C1272 C 0.60388 0.67891 0.66178 0.0
C1273 C 0.5596 0.69813 0.59912 0.0
C1274 C 0.55855 0.71147 0.62148 0.0
C1275 C 0.57314 0.70478 0.64146 0.0
C1276 C 0.54222 0.73222 0.62445 0.0
C1277 C 0.54544 0.70512 0.57646 0.0
C1278 C 0.5512 0.7551 0.62951 0.0
C1279 C 0.53585 0.77478 0.63094 0.0
C1280 C 0.51117 0.77195 0.62746 0.0
C1281 C 0.50221 0.74884 0.6233 0.0
C1282 C 0.51753 0.72925 0.62192 0.0
H1283 H 0.55317 0.69747 0.55916 0.0
H1284 H 0.52698 0.69825 0.5784 0.0
H1285 H 0.54459 0.72478 0.57445 0.0
H1286 H 0.57018 0.75783 0.63171 0.0
H1287 H 0.5434 0.79227 0.63416 0.0
H1288 H 0.92457 0.6446 0.59117 0.0
H1289 H 0.88784 0.6215 0.59661 0.0
H1290 H 0.92121 0.58032 0.65443 0.0
H1291 H 0.95784 0.60338 0.64923 0.0
H1292 H 0.87879 0.57414 0.59156 0.0
H1293 H 0.86072 0.60093 0.68912 0.0
H1294 H 0.88264 0.61577 0.66996 0.0
H1295 H 0.88959 0.5879 0.68475 0.0
C1296 C 0.92413 0.63055 0.60496 0.0
C1297 C 0.94414 0.62604 0.61992 0.0
C1298 C 0.90306 0.61741 0.60815 0.0
C1299 C 0.90149 0.59948 0.62635 0.0
C1300 C 0.92165 0.59452 0.64081 0.0
H1301 H 0.79229 0.49377 0.66344 0.0
H1302 H 0.82839 0.51844 0.66242 0.0
C1303 C 0.94265 0.6077 0.63774 0.0
C1304 C 0.87898 0.58562 0.62978 0.0
H1305 H 0.83667 0.56971 0.67281 0.0
C1306 C 0.86954 0.57331 0.6093 0.0
C1307 C 0.86685 0.58442 0.65296 0.0
C1308 C 0.87531 0.59814 0.6754 0.0
C1309 C 0.84861 0.55964 0.61142 0.0
C1310 C 0.83653 0.55843 0.63458 0.0
C1311 C 0.84597 0.57061 0.6551 0.0
C1312 C 0.81386 0.54488 0.63752 0.0
C1313 C 0.83974 0.54626 0.58893 0.0
C1314 C 0.79339 0.55206 0.62471 0.0
C1315 C 0.7727 0.53815 0.62538 0.0
C1316 C 0.77197 0.51665 0.63891 0.0
C1317 C 0.79211 0.5102 0.65289 0.0
C1318 C 0.81284 0.52423 0.65224 0.0
H1319 H 0.8537 0.54465 0.5743 0.0
H1320 H 0.8336 0.52812 0.59418 0.0
H1321 H 0.82439 0.55594 0.58085 0.0
H1322 H 0.79362 0.56814 0.61358 0.0
H1323 H 0.75758 0.54384 0.61447 0.0
H1324 H 0.90733 0.92401 0.61684 0.0
H1325 H 0.9328 0.88931 0.62363 0.0
H1326 H 0.99515 0.93312 0.61319 0.0
H1327 H 0.96984 0.96788 0.60635 0.0
H1328 H 0.96464 0.8691 0.59153 0.0
H1329 H 1.01187 0.89815 0.67667 0.0
H1330 H 0.98549 0.91294 0.66547 0.0
H1331 H 1.01403 0.91908 0.65152 0.0
C1332 C 0.92646 0.92632 0.61603 0.0
C1333 C 0.93646 0.94886 0.61109 0.0
C1334 C 0.94103 0.90644 0.62003 0.0
C1335 C 0.96596 0.90857 0.61931 0.0
C1336 C 0.97601 0.93105 0.61451 0.0
H1337 H 0.08369 0.80764 0.62075 0.0
H1338 H 0.05851 0.84317 0.62002 0.0
C1339 C 0.96146 0.95096 0.61057 0.0
C1340 C 0.98133 0.88707 0.62226 0.0
H1341 H 0.02708 0.86365 0.65627 0.0
C1342 C 0.97816 0.86787 0.60582 0.0
C1343 C 0.99909 0.88541 0.64083 0.0
C1344 C 1.00273 0.90488 0.65979 0.0
C1345 C 0.99246 0.84735 0.60711 0.0
C1346 C 1.01025 0.84571 0.62563 0.0
C1347 C 1.01346 0.86488 0.64209 0.0
C1348 C 0.02575 0.82428 0.62796 0.0
C1349 C 0.9888 0.82781 0.58821 0.0
C1350 C 1.01588 0.80187 0.6334 0.0
C1351 C 0.03024 0.78148 0.63391 0.0
C1352 C 0.05487 0.78302 0.6291 0.0
C1353 C 0.06485 0.80568 0.62462 0.0
C1354 C 0.05045 0.82607 0.62414 0.0
H1355 H 0.97865 0.83416 0.5718 0.0
H1356 H 1.00614 0.82057 0.5817 0.0
H1357 H 0.97858 0.81307 0.59692 0.0
H1358 H 0.99695 0.80009 0.63688 0.0
H1359 H 1.02187 0.76443 0.63751 0.0
H1360 H 0.11934 0.13498 0.95706 0.0
H1361 H 0.15477 0.10956 0.95386 0.0
H1362 H 0.12963 0.08203 0.88382 0.0
H1363 H 0.09432 0.10722 0.88688 0.0
H1364 H 0.16001 0.05997 0.94906 0.0
H1365 H 0.19621 0.10698 0.86638 0.0
H1366 H 0.17246 0.11907 0.88526 0.0
H1367 H 0.16625 0.09648 0.86245 0.0
C1368 C 0.12126 0.12333 0.94111 0.0
C1369 C 0.10416 0.12338 0.92206 0.0
C1370 C 0.14155 0.10889 0.93925 0.0
C1371 C 0.1451 0.0943 0.91832 0.0
C1372 C 0.12759 0.09362 0.8998 0.0
H1373 H 0.24554 0.97723 0.90156 0.0
H1374 H 0.20995 1.0021 0.90482 0.0
C1375 C 0.1074 0.10803 0.9016 0.0
C1376 C 0.16713 0.07986 0.91562 0.0
H1377 H 0.21509 0.07064 0.87745 0.0
C1378 C 0.17211 0.06234 0.93347 0.0
C1379 C 0.18308 0.0832 0.89543 0.0
C1380 C 0.17941 0.1026 0.8764 0.0
C1381 C 0.19234 0.04773 0.93138 0.0
C1382 C 0.20779 0.05046 0.91067 0.0
C1383 C 0.20307 0.06833 0.89313 0.0
C1384 C 0.2293 0.03538 0.9072 0.0
C1385 C 0.1972 0.02976 0.9516 0.0
C1386 C 0.25198 0.04587 0.90634 0.0
C1387 C 0.27239 0.03173 0.90421 0.0
C1388 C 0.27053 1.00676 0.90277 0.0
C1389 C 0.2477 0.99637 0.90268 0.0
C1390 C 0.2273 1.01055 0.9048 0.0
H1391 H 0.18741 0.03409 0.96904 0.0
H1392 H 0.19126 1.0119 0.9453 0.0
H1393 H 0.21652 0.0288 0.95578 0.0
H1394 H 0.25395 0.06501 0.90797 0.0
H1395 H 0.28963 0.0404 0.90435 0.0
H1396 H 0.4601 0.08605 0.89656 0.0
H1397 H 0.48341 0.12217 0.88791 0.0
H1398 H 0.43439 0.16338 0.93231 0.0
H1399 H 0.41115 0.1276 0.94103 0.0
H1400 H 0.47112 0.16465 0.86521 0.0
H1401 H 0.49767 0.1816 0.96272 0.0
H1402 H 0.4848 0.15369 0.95289 0.0
H1403 H 0.46603 0.17897 0.95923 0.0
C1404 C 0.45429 0.10281 0.90449 0.0
C1405 C 0.43389 0.10376 0.91982 0.0
C1406 C 0.46766 0.12345 0.89955 0.0
C1407 C 0.46097 0.14549 0.90985 0.0
C1408 C 0.44037 0.14654 0.92471 0.0
H1409 H 0.50906 0.29161 0.9087 0.0
H1410 H 0.48617 0.25467 0.91017 0.0
C1411 C 0.42708 0.12597 0.92973 0.0
C1412 C 0.47521 0.16749 0.90492 0.0
H1413 H 0.50394 0.21337 0.93403 0.0
C1414 C 0.47848 0.1752 0.88024 0.0
C1415 C 0.48494 0.18127 0.92449 0.0
C1416 C 0.48342 0.17336 0.95129 0.0
C1417 C 0.49047 0.19666 0.87472 0.0
C1418 C 0.49962 0.2107 0.89436 0.0
C1419 C 0.49671 0.20276 0.91897 0.0
C1420 C 0.51222 0.23376 0.89008 0.0
C1421 C 0.4927 0.20451 0.84798 0.0
C1422 C 0.53429 0.23456 0.87767 0.0
C1423 C 0.54752 0.25578 0.87674 0.0
C1424 C 0.53901 0.27664 0.88833 0.0
C1425 C 0.51628 0.27601 0.89955 0.0
C1426 C 0.50314 0.25481 0.90051 0.0
H1427 H 0.48036 0.19457 0.83563 0.0
H1428 H 0.48903 0.22387 0.8462 0.0
H1429 H 0.51117 0.20127 0.8414 0.0
H1430 H 0.54184 0.21849 0.86976 0.0
H1431 H 0.56499 0.25545 0.86812 0.0
H1432 H 0.42177 0.39739 0.91464 0.0
H1433 H 0.38653 0.42279 0.91058 0.0
H1434 H 0.43086 0.48528 0.91664 0.0
H1435 H 0.46607 0.46009 0.92046 0.0
H1436 H 0.36786 0.45468 0.94279 0.0
H1437 H 0.39264 0.50163 0.85589 0.0
H1438 H 0.40819 0.47545 0.86651 0.0
H1439 H 0.41508 0.50426 0.87937 0.0
C1440 C 0.42401 0.41655 0.91501 0.0
C1441 C 0.44681 0.42668 0.91766 0.0
C1442 C 0.40385 0.43106 0.91262 0.0
C1443 C 0.40602 0.456 0.9128 0.0
C1444 C 0.42873 0.46613 0.91566 0.0
H1445 H 0.31199 0.57718 0.9217 0.0
H1446 H 0.34531 0.54925 0.9202 0.0
C1447 C 0.44889 0.45166 0.91789 0.0
C1448 C 0.38448 0.47145 0.91113 0.0
H1449 H 0.36059 0.5185 0.87947 0.0
C1450 C 0.36616 0.46845 0.92876 0.0
C1451 C 0.38219 0.48944 0.89281 0.0
C1452 C 0.40046 0.49276 0.87242 0.0
C1453 C 0.34606 0.48338 0.92906 0.0
C1454 C 0.34407 0.50169 0.91111 0.0
C1455 C 0.36218 0.5045 0.89327 0.0
C1456 C 0.32369 0.5186 0.91109 0.0
C1457 C 0.32742 0.47996 0.94906 0.0
C1458 C 0.30045 0.51073 0.90604 0.0
C1459 C 0.28129 0.52671 0.90675 0.0
C1460 C 0.285 0.55088 0.91256 0.0
C1461 C 0.3084 0.55873 0.91716 0.0
C1462 C 0.32753 0.54278 0.91632 0.0
H1463 H 0.33375 0.46815 0.96423 0.0
H1464 H 0.32217 0.49737 0.95722 0.0
H1465 H 0.31132 0.47177 0.94075 0.0
H1466 H 0.29713 0.4922 0.90164 0.0
H1467 H 0.26354 0.52002 0.9031 0.0
H1468 H 0.09584 0.46671 0.94227 0.0
H1469 H 0.07114 0.43094 0.93764 0.0
H1470 H 0.13269 0.39118 0.9136 0.0
H1471 H 0.15756 0.42662 0.91871 0.0
H1472 H 0.06398 0.40459 0.89347 0.0
H1473 H 0.10343 0.34784 0.96707 0.0
H1474 H 0.10816 0.37963 0.96573 0.0
H1475 H 0.12457 0.36016 0.94542 0.0
C1476 C 0.10422 0.45025 0.93643 0.0
C1477 C 0.12874 0.4496 0.93089 0.0
C1478 C 0.09003 0.42985 0.93362 0.0
C1479 C 0.10007 0.40827 0.9255 0.0
C1480 C 0.12457 0.40748 0.92026 0.0
H1481 H 0.04024 0.26674 0.89499 0.0
H1482 H 0.0668 0.30132 0.89886 0.0
C1483 C 0.13874 0.42787 0.92296 0.0
C1484 C 0.08476 0.38689 0.92145 0.0
H1485 H 0.07583 0.32928 0.94001 0.0
C1486 C 0.06651 0.38815 0.90372 0.0
C1487 C 0.08819 0.36535 0.93463 0.0
C1488 C 0.10701 0.36311 0.95444 0.0
C1489 C 0.05177 0.36846 0.89865 0.0
C1490 C 0.05497 0.34699 0.91208 0.0
C1491 C 0.07337 0.34566 0.92966 0.0
C1492 C 0.03883 0.32607 0.90886 0.0
C1493 C 0.0332 0.37074 0.8786 0.0
C1494 C 1.0143 0.32835 0.91333 0.0
C1495 C 0.99911 0.30872 0.91099 0.0
C1496 C 1.00806 0.28615 0.90436 0.0
C1497 C 0.03268 0.28384 0.89994 0.0
C1498 C 0.04791 0.30359 0.90223 0.0
H1499 H 0.03782 0.38507 0.86515 0.0
H1500 H 0.03102 0.35378 0.86822 0.0
H1501 H 1.01585 0.37539 0.88728 0.0
H1502 H 1.00689 0.34529 0.91907 0.0
H1503 H 0.98033 0.31123 0.91485 0.0
H1504 H 0.71175 0.26338 0.50347 0.0
H1505 H 0.74223 0.25602 0.53483 0.0
H1506 H 0.77177 0.20023 0.48888 0.0
H1507 H 0.74171 0.20759 0.45767 0.0
H1508 H 0.77691 0.18911 0.5382 0.0
H1509 H 0.80566 0.28345 0.52387 0.0
H1510 H 0.77739 0.27683 0.53795 0.0
H1511 H 0.78182 0.27195 0.50512 0.0
C1512 C 0.72462 0.24938 0.50025 0.0
C1513 C 0.72453 0.23634 0.47789 0.0
C1514 C 0.74191 0.24502 0.51833 0.0
C1515 C 0.75945 0.22765 0.5143 0.0
C1516 C 0.75833 0.2136 0.49268 0.0
H1517 H 0.85668 0.19556 0.4534 0.0
H1518 H 0.83117 0.18874 0.48915 0.0
C1519 C 0.74114 0.21792 0.47468 0.0
C1520 C 0.78144 0.22637 0.52942 0.0
H1521 H 0.83484 0.2546 0.52569 0.0
C1522 C 0.78955 0.20367 0.53654 0.0
C1523 C 0.79788 0.24554 0.52896 0.0
C1524 C 0.79038 0.27085 0.52367 0.0
C1525 C 0.81404 0.19872 0.53716 0.0
C1526 C 0.83024 0.21674 0.53019 0.0
C1527 C 0.82226 0.24041 0.52969 0.0
C1528 C 0.85124 0.21134 0.51429 0.0
C1529 C 0.82239 0.17373 0.54196 0.0
C1530 C 0.87203 0.225 0.51664 0.0
C1531 C 0.88634 0.2294 0.4958 0.0
C1532 C 0.88009 0.22022 0.47235 0.0
C1533 C 0.86158 0.20345 0.47104 0.0
C1534 C 0.84723 0.1991 0.49182 0.0
H1535 H 0.80976 0.16405 0.55433 0.0
H1536 H 0.82348 0.16409 0.52402 0.0
H1537 H 0.8404 0.17377 0.55044 0.0
H1538 H 0.87543 0.23479 0.53362 0.0
H1539 H 0.90053 0.24222 0.49755 0.0
H1540 H 0.21187 0.71541 0.43258 0.0
H1541 H 0.17956 0.74268 0.42592 0.0
H1542 H 0.14125 0.68868 0.38498 0.0
H1543 H 0.17461 0.66129 0.39093 0.0
H1544 H 0.1459 0.72186 0.35617 0.0
H1545 H 0.14816 0.76676 0.44367 0.0
H1546 H 0.13095 0.73947 0.44162 0.0
H1547 H 0.11681 0.76823 0.43877 0.0
C1548 C 0.19612 0.70886 0.42321 0.0
C1549 C 0.19602 0.6864 0.4118 0.0
C1550 C 0.17729 0.72454 0.41955 0.0
C1551 C 0.15769 0.71797 0.4048 0.0
C1552 C 0.15618 0.69434 0.39624 0.0
H1553 H 0.15638 0.86188 0.37197 0.0
H1554 H 0.1291 0.8279 0.37452 0.0
C1555 C 0.17528 0.67871 0.39958 0.0
C1556 C 0.14334 0.73718 0.39309 0.0
H1557 H 0.13594 0.79605 0.40477 0.0
C1558 C 0.14262 0.73787 0.36692 0.0
C1559 C 0.13715 0.75799 0.40645 0.0
C1560 C 0.13305 0.75781 0.4342 0.0
C1561 C 0.14145 0.75967 0.35428 0.0
C1562 C 0.14194 0.78099 0.36823 0.0
C1563 C 0.13705 0.77985 0.3939 0.0
C1564 C 0.15407 0.8027 0.35861 0.0
C1565 C 0.14209 0.75965 0.32625 0.0
C1566 C 0.17668 0.80031 0.34738 0.0
C1567 C 0.19205 0.81976 0.34554 0.0
C1568 C 0.18529 0.84181 0.35538 0.0
C1569 C 0.16194 0.84488 0.36437 0.0
C1570 C 0.14637 0.82549 0.36582 0.0
H1571 H 0.12931 0.74625 0.31899 0.0
H1572 H 0.13759 0.77737 0.3184 0.0
H1573 H 0.16007 0.75429 0.31968 0.0
H1574 H 0.18358 0.78297 0.34234 0.0
H1575 H 0.21004 0.81694 0.3388 0.0
H1576 H 0.30964 0.72579 0.17519 0.0
H1577 H 0.27632 0.69876 0.16879 0.0
H1578 H 0.32484 0.64261 0.14797 0.0
H1579 H 0.35848 0.67007 0.15338 0.0
H1580 H 0.28927 0.64861 0.1135 0.0
H1581 H 0.24834 0.64231 0.20575 0.0
H1582 H 0.25644 0.67282 0.20092 0.0
H1583 H 0.27933 0.65027 0.20154 0.0
C1584 C 0.31326 0.70764 0.16947 0.0
C1585 C 0.33662 0.7001 0.16471 0.0
C1586 C 0.29424 0.69207 0.16616 0.0
C1587 C 0.29814 0.66853 0.15825 0.0
C1588 C 0.3215 0.66063 0.15422 0.0
H1589 H 0.15526 0.67368 0.14791 0.0
H1590 H 0.18488 0.64178 0.14807 0.0
C1591 C 0.34065 0.6763 0.15749 0.0
C1592 C 0.27731 0.65384 0.15133 0.0
H1593 H 0.22005 0.65034 0.17081 0.0
C1594 C 0.27422 0.64793 0.12617 0.0
C1595 C 0.25793 0.65132 0.16789 0.0
C1596 C 0.26084 0.65423 0.1956 0.0
C1597 C 0.25131 0.64438 0.11651 0.0
C1598 C 0.23135 0.64819 0.13222 0.0
C1599 C 0.23503 0.6487 0.15814 0.0
C1600 C 0.20922 0.65969 0.12281 0.0
C1601 C 0.24874 0.63882 0.08921 0.0
C1602 C 0.21157 0.67913 0.10641 0.0
C1603 C 0.19432 0.69691 0.10576 0.0
C1604 C 0.17469 0.6959 0.12191 0.0
C1605 C 0.17052 0.67498 0.13558 0.0
C1606 C 0.18749 0.65675 0.13565 0.0
H1607 H 0.2604 0.62357 0.08422 0.0
H1608 H 0.23009 0.63435 0.08421 0.0
H1609 H 0.2549 0.65424 0.07795 0.0
H1610 H 0.22804 0.68247 0.0965 0.0
H1611 H 0.19798 0.71284 0.09501 0.0
H1612 H 0.72211 0.33778 0.09587 0.0
H1613 H 0.68986 0.30961 0.09841 0.0
H1614 H 0.64248 0.36514 0.12402 0.0
H1615 H 0.67566 0.39351 0.12254 0.0
H1616 H 0.63945 0.33419 0.15522 0.0
H1617 H 0.63253 0.28154 0.07191 0.0
H1618 H 0.66409 0.28334 0.07515 0.0
H1619 H 0.64691 0.31031 0.07048 0.0
C1620 C 0.70462 0.34431 0.10102 0.0
C1621 C 0.70151 0.36777 0.10936 0.0
C1622 C 0.68588 0.3281 0.10223 0.0
C1623 C 0.66337 0.33505 0.11129 0.0
C1624 C 0.6596 0.3592 0.11707 0.0
H1625 H 0.6534 0.19375 0.15471 0.0
H1626 H 0.62841 0.22662 0.14105 0.0
C1627 C 0.67858 0.3754 0.11629 0.0
C1628 C 0.64672 0.31624 0.12033 0.0
H1629 H 0.64249 0.2565 0.1117 0.0
C1630 C 0.63912 0.31739 0.14529 0.0
C1631 C 0.64418 0.29441 0.10746 0.0
C1632 C 0.64714 0.29259 0.07965 0.0
C1633 C 0.6344 0.29653 0.15877 0.0
C1634 C 0.63858 0.27426 0.14728 0.0
C1635 C 0.64076 0.27346 0.1212 0.0
C1636 C 0.64755 0.25358 0.16176 0.0
C1637 C 0.62716 0.2986 0.18572 0.0
C1638 C 0.6658 0.25737 0.17922 0.0
C1639 C 0.67976 0.23852 0.18751 0.0
C1640 C 0.67627 0.21551 0.17804 0.0
C1641 C 0.65659 0.21126 0.16247 0.0
C1642 C 0.64231 0.23012 0.15448 0.0
H1643 H 0.61278 0.31203 0.18772 0.0
H1644 H 0.62079 0.28136 0.19341 0.0
H1645 H 0.64249 0.30506 0.19683 0.0
H1646 H 0.67089 0.27517 0.18478 0.0
H1647 H 0.69448 0.24231 0.19986 0.0
H1648 H 0.24617 0.69507 0.56731 0.0
H1649 H 0.27597 0.68338 0.53708 0.0
H1650 H 0.23212 0.71031 0.47766 0.0
H1651 H 0.20198 0.72243 0.50827 0.0
H1652 H 0.28451 0.65864 0.49301 0.0
H1653 H 0.28601 0.75606 0.47294 0.0
H1654 H 0.26618 0.74594 0.49712 0.0
H1655 H 0.26072 0.73791 0.46519 0.0
C1656 C 0.24241 0.6979 0.54778 0.0
C1657 C 0.22201 0.71034 0.54029 0.0
C1658 C 0.2595 0.69104 0.53036 0.0
C1659 C 0.25666 0.69648 0.50502 0.0
C1660 C 0.23507 0.70648 0.49712 0.0
H1661 H 0.39096 0.74872 0.51329 0.0
H1662 H 0.3661 0.7305 0.48129 0.0
C1663 C 0.21793 0.71354 0.51466 0.0
C1664 C 0.27839 0.6964 0.48914 0.0
H1665 H 0.32209 0.73778 0.48229 0.0
C1666 C 0.29266 0.67582 0.48939 0.0
C1667 C 0.28915 0.71841 0.48266 0.0
C1668 C 0.2748 0.74087 0.47926 0.0
C1669 C 0.31759 0.67776 0.48971 0.0
C1670 C 0.328 0.70065 0.49025 0.0
C1671 C 0.31404 0.72024 0.4833 0.0
C1672 C 0.34882 0.70572 0.50639 0.0
C1673 C 0.33236 0.65564 0.49295 0.0
C1674 C 0.34823 0.69725 0.53102 0.0
C1675 C 0.36211 0.70785 0.54936 0.0
C1676 C 0.37689 0.72725 0.54357 0.0
C1677 C 0.37929 0.73418 0.51849 0.0
C1678 C 0.36534 0.72353 0.50007 0.0
H1679 H 0.32752 0.64244 0.47846 0.0
H1680 H 0.35174 0.65935 0.4916 0.0
H1681 H 0.32842 0.64756 0.51136 0.0
H1682 H 0.33525 0.68407 0.53681 0.0
H1683 H 0.35955 0.70213 0.56842 0.0
H1684 H 0.70046 0.17094 0.58111 0.0
H1685 H 0.66676 0.19787 0.57432 0.0
H1686 H 0.7156 0.25743 0.5735 0.0
H1687 H 0.74865 0.23077 0.57808 0.0
H1688 H 0.65572 0.22371 0.60995 0.0
H1689 H 0.66692 0.29115 0.5382 0.0
H1690 H 0.67748 0.26096 0.53361 0.0
H1691 H 0.69644 0.28367 0.54702 0.0
C1692 C 0.70393 0.18968 0.57797 0.0
C1693 C 0.727 0.19899 0.58092 0.0
C1694 C 0.68466 0.20509 0.57409 0.0
C1695 C 0.68832 0.2299 0.57338 0.0
C1696 C 0.71184 0.23854 0.57316 0.0
H1697 H 0.71412 0.3044 0.67193 0.0
H1698 H 0.69108 0.27508 0.64891 0.0
C1699 C 0.73094 0.22323 0.57645 0.0
C1700 C 0.66912 0.24675 0.58078 0.0
H1701 H 0.66844 0.3071 0.58325 0.0
C1702 C 0.65731 0.2419 0.60337 0.0
C1703 C 0.6693 0.27049 0.57193 0.0
C1704 C 0.67798 0.27668 0.54615 0.0
C1705 C 0.65178 0.2604 0.61992 0.0
C1706 C 0.65835 0.28388 0.61353 0.0
C1707 C 0.6644 0.28896 0.58871 0.0
C1708 C 0.66675 0.30073 0.63279 0.0
C1709 C 0.64205 0.25438 0.64531 0.0
C1710 C 0.66046 0.32486 0.632 0.0
C1711 C 0.67387 0.34172 0.64501 0.0
C1712 C 0.69388 0.33463 0.65886 0.0
C1713 C 0.69886 0.31031 0.66134 0.0
C1714 C 0.68544 0.29352 0.64841 0.0
H1715 H 0.62858 0.23994 0.64391 0.0
H1716 H 0.6567 0.24774 0.65722 0.0
H1717 H 0.63382 0.27015 0.65439 0.0
H1718 H 0.64622 0.33082 0.62007 0.0
H1719 H 0.66977 0.36041 0.64253 0.0
H1720 H 0.84959 0.31149 0.98244 0.0
H1721 H 0.82149 0.33906 0.9997 0.0
H1722 H 0.86842 0.39772 0.9818 0.0
H1723 H 0.89644 0.36962 0.96274 0.0
H1724 H 0.80669 0.37557 0.02516 0.0
H1725 H 0.82296 0.41481 0.93171 0.0
H1726 H 0.84218 0.39043 0.93931 0.0
H1727 H 0.84383 0.41806 0.95659 0.0
C1728 C 0.85449 0.33015 0.98289 0.0
C1729 C 0.87464 0.33852 0.97009 0.0
C1730 C 0.8383 0.34615 0.99303 0.0
C1731 C 0.84193 0.37085 0.99056 0.0
C1732 C 0.86435 0.3789 0.98236 0.0
H1733 H 0.71916 0.37823 0.90873 0.0
H1734 H 0.74499 0.40063 0.93595 0.0
C1735 C 0.88046 0.36284 0.97161 0.0
C1736 C 0.82024 0.38603 0.98917 0.0
H1737 H 0.78598 0.39759 0.93882 0.0
C1738 C 0.802 0.38139 1.00657 0.0
C1739 C 0.81371 0.39576 0.96582 0.0
C1740 C 0.83165 0.40531 0.94735 0.0
C1741 C 0.77821 0.37942 0.99884 0.0
C1742 C 0.7728 0.38288 0.97338 0.0
C1743 C 0.79009 0.39352 0.95803 0.0
C1744 C 0.75208 0.37134 0.96103 0.0
C1745 C 0.75963 0.37218 0.01768 0.0
C1746 C 0.74667 0.34738 0.96615 0.0
C1747 C 0.73095 0.33465 0.95112 0.0
C1748 C 0.72092 0.34519 0.92985 0.0
C1749 C 0.72607 0.36932 0.925 0.0
C1750 C 0.74105 0.38228 0.94063 0.0
H1751 H 0.76237 0.38212 0.0353 0.0
H1752 H 0.74128 0.37543 1.01091 0.0
H1753 H 0.7617 0.35299 0.02212 0.0
H1754 H 0.75548 0.33794 0.98103 0.0
H1755 H 0.727 0.31641 0.95615 0.0
H1756 H 0.38762 0.84284 0.91881 0.0
H1757 H 0.41365 0.81608 0.94228 0.0
H1758 H 0.35199 0.78431 0.97717 0.0
H1759 H 0.32605 0.8109 0.95411 0.0
H1760 H 0.39186 0.78956 1.01029 0.0
H1761 H 0.41895 0.74753 0.92042 0.0
H1762 H 0.42514 0.77841 0.92647 0.0
H1763 H 0.39511 0.76896 0.92048 0.0
C1764 C 0.37965 0.83002 0.9314 0.0
C1765 C 0.35472 0.82873 0.93435 0.0
C1766 C 0.39458 0.81501 0.94504 0.0
C1767 C 0.38478 0.79823 0.96147 0.0
C1768 C 0.35999 0.79741 0.96489 0.0
H1769 H 0.32903 0.70056 1.00088 0.0
H1770 H 0.35894 0.7281 1.01419 0.0
C1771 C 0.34513 0.81248 0.95151 0.0
C1772 C 0.39914 0.7789 0.97248 0.0
H1773 H 0.41341 0.72291 0.95441 0.0
C1774 C 0.3975 0.77513 0.99826 0.0
C1775 C 0.40807 0.76046 0.95717 0.0
C1776 C 0.41206 0.76388 0.9296 0.0
C1777 C 0.40017 0.7522 1.0082 0.0
C1778 C 0.40252 0.73271 0.9917 0.0
C1779 C 0.40992 0.73748 0.96712 0.0
C1780 C 0.38854 0.71033 0.99564 0.0
C1781 C 0.39807 0.74874 0.03589 0.0
C1782 C 0.39491 0.6894 0.9828 0.0
C1783 C 0.37722 0.67399 0.97404 0.0
C1784 C 0.35311 0.67866 0.97916 0.0
C1785 C 0.34741 0.69663 0.99628 0.0
C1786 C 0.36491 0.71242 1.00433 0.0
H1787 H 0.41006 0.76141 0.0456 0.0
H1788 H 0.37967 0.75285 0.04217 0.0
H1789 H 0.40281 0.73032 0.04137 0.0
H1790 H 0.41308 0.68673 0.97655 0.0
H1791 H 0.38221 0.65971 0.96151 0.0
H1792 H 0.61859 0.17045 0.48048 0.0
H1793 H 0.65152 0.1505 0.50213 0.0
H1794 H 0.69245 0.15001 0.43409 0.0
H1795 H 0.65983 0.1698 0.41246 0.0
H1796 H 0.69314 0.10574 0.46253 0.0
H1797 H 0.71579 0.1861 0.51843 0.0
H1798 H 0.68542 0.17598 0.52002 0.0
H1799 H 0.69697 0.18754 0.49131 0.0
C1800 C 0.6344 0.1656 0.47004 0.0
C1801 C 0.63657 0.17167 0.44474 0.0
C1802 C 0.6533 0.15446 0.48249 0.0
C1803 C 0.67457 0.14903 0.46978 0.0
C1804 C 0.67627 0.15409 0.44429 0.0
H1805 H 0.81666 0.12415 0.52608 0.0
H1806 H 0.7817 0.13678 0.50213 0.0
C1807 C 0.65757 0.16538 0.43195 0.0
C1808 C 0.6954 0.13866 0.48291 0.0
H1809 H 0.73925 0.15187 0.52461 0.0
C1810 C 0.70312 0.11571 0.47628 0.0
C1811 C 0.70861 0.15187 0.50056 0.0
C1812 C 0.7015 0.17681 0.50797 0.0
C1813 C 0.72361 0.10557 0.48689 0.0
C1814 C 0.73675 0.1187 0.50464 0.0
C1815 C 0.72909 0.14172 0.51115 0.0
C1816 C 0.75862 0.10909 0.51658 0.0
C1817 C 0.7314 0.08113 0.47854 0.0
C1818 C 0.75756 0.08892 0.53209 0.0
C1819 C 0.77757 0.08182 0.54574 0.0
C1820 C 0.79891 0.09482 0.54411 0.0
C1821 C 0.80033 0.11404 0.52754 0.0
C1822 C 0.78038 0.12122 0.51398 0.0
H1823 H 0.72286 0.07584 0.46076 0.0
H1824 H 0.75103 0.08039 0.47614 0.0
H1825 H 0.72628 0.06789 0.49293 0.0
H1826 H 0.7409 0.0795 0.53474 0.0
H1827 H 0.77581 0.06737 0.55898 0.0
H1828 H 0.49516 0.77247 0.56558 0.0
H1829 H 0.48485 0.73785 0.5396 0.0
H1830 H 0.42595 0.77692 0.50868 0.0
H1831 H 0.43591 0.81114 0.5347 0.0
H1832 H 0.43775 0.71514 0.54318 0.0
H1833 H 0.45826 0.74524 0.44726 0.0
H1834 H 0.47183 0.75846 0.47441 0.0
H1835 H 0.44206 0.76654 0.46565 0.0
C1836 C 0.48067 0.77397 0.55243 0.0
C1837 C 0.46665 0.79469 0.55173 0.0
C1838 C 0.47458 0.75408 0.53787 0.0
C1839 C 0.4547 0.75483 0.52206 0.0
C1840 C 0.44154 0.77599 0.52042 0.0
H1841 H 0.36287 0.67237 0.43072 0.0
H1842 H 0.38691 0.7016 0.45254 0.0
C1843 C 0.44736 0.79562 0.53518 0.0
C1844 C 0.4461 0.73312 0.50892 0.0
H1845 H 0.43159 0.71234 0.45124 0.0
C1846 C 0.43681 0.7142 0.52305 0.0
C1847 C 0.44463 0.73211 0.4827 0.0
C1848 C 0.45491 0.75157 0.46655 0.0
C1849 C 0.42485 0.69497 0.51174 0.0
C1850 C 0.4227 0.6943 0.48545 0.0
C1851 C 0.43301 0.71278 0.47135 0.0
C1852 C 0.40838 0.67577 0.47217 0.0
C1853 C 0.41335 0.67646 0.52824 0.0
C1854 C 0.41247 0.65124 0.47547 0.0
C1855 C 0.39843 0.63427 0.46306 0.0
C1856 C 0.38036 0.64149 0.44667 0.0
C1857 C 0.37671 0.66604 0.44301 0.0
C1858 C 0.39047 0.68288 0.45561 0.0
H1859 H 0.41113 0.68294 0.54764 0.0
H1860 H 0.39561 0.67117 0.52104 0.0
H1861 H 0.42482 0.6604 0.52881 0.0
H1862 H 0.42661 0.64515 0.4875 0.0
H1863 H 0.40184 0.61553 0.46619 0.0
H1864 H 0.88678 0.36915 0.41179 0.0
H1865 H 0.85503 0.3906 0.43337 0.0
H1866 H 0.90505 0.4139 0.48893 0.0
H1867 H 0.93708 0.39275 0.46722 0.0
H1868 H 0.83836 0.38232 0.4797 0.0
H1869 H 0.87047 0.47543 0.47449 0.0
H1870 H 0.88301 0.45193 0.45563 0.0
H1871 H 0.89209 0.45556 0.48749 0.0
C1872 C 0.89121 0.37914 0.42838 0.0
C1873 C 0.91464 0.37921 0.43766 0.0
C1874 C 0.87293 0.39139 0.44076 0.0
C1875 C 0.87755 0.40416 0.46269 0.0
C1876 C 0.90102 0.40468 0.47176 0.0
H1877 H 0.79974 0.46507 0.58379 0.0
H1878 H 0.82845 0.45267 0.55222 0.0
C1879 C 0.91937 0.39246 0.45933 0.0
C1880 C 0.85755 0.41544 0.47692 0.0
H1881 H 0.83911 0.4676 0.50373 0.0
C1882 C 0.83838 0.40105 0.48465 0.0
C1883 C 0.85745 0.4399 0.48341 0.0
C1884 C 0.87674 0.45667 0.47462 0.0
C1885 C 0.81973 0.41015 0.49947 0.0
C1886 C 0.81996 0.43446 0.50651 0.0
C1887 C 0.83883 0.44899 0.4983 0.0
C1888 C 0.80207 0.44449 0.52431 0.0
C1889 C 0.80051 0.39336 0.50843 0.0
C1890 C 0.77753 0.44494 0.51894 0.0
C1891 C 0.76088 0.45221 0.53709 0.0
C1892 C 0.76854 0.45902 0.56094 0.0
C1893 C 0.79318 0.45972 0.56569 0.0
C1894 C 0.80969 0.45266 0.54761 0.0
H1895 H 0.80533 0.3744 0.50533 0.0
H1896 H 0.7969 0.39605 0.52857 0.0
H1897 H 0.78381 0.39702 0.49816 0.0
H1898 H 0.7712 0.43911 0.50093 0.0
H1899 H 0.74206 0.4514 0.53286 0.0
H1900 H 0.12565 0.73824 0.53497 0.0
H1901 H 0.13818 0.77314 0.51131 0.0
H1902 H 0.07726 0.81195 0.53879 0.0
H1903 H 0.06483 0.77693 0.56311 0.0
H1904 H 0.11955 0.80226 0.47548 0.0
H1905 H 0.13263 0.85205 0.5639 0.0
H1906 H 0.12664 0.82049 0.56325 0.0
H1907 H 0.1029 0.84143 0.55859 0.0
C1908 C 0.11453 0.754 0.53548 0.0
C1909 C 0.09424 0.75482 0.55092 0.0
C1910 C 0.12178 0.774 0.52198 0.0
C1911 C 0.10902 0.7954 0.52368 0.0
C1912 C 0.0877 0.79579 0.53759 0.0
H1913 H 0.15515 0.93606 0.46937 0.0
H1914 H 0.13177 0.90337 0.48723 0.0
C1915 C 0.08036 0.77564 0.55116 0.0
C1916 C 0.11927 0.81742 0.5123 0.0
H1917 H 0.14348 0.87162 0.52688 0.0
C1918 C 0.12456 0.81751 0.48671 0.0
C1919 C 0.12605 0.8373 0.52693 0.0
C1920 C 0.12199 0.83787 0.55472 0.0
C1921 C 0.13654 0.83675 0.47544 0.0
C1922 C 0.14379 0.85634 0.49019 0.0
C1923 C 0.13793 0.85659 0.51561 0.0
C1924 C 0.15822 0.87631 0.47977 0.0
C1925 C 0.14136 0.83588 0.44781 0.0
C1926 C 0.18116 0.87213 0.47022 0.0
C1927 C 0.19473 0.89083 0.46029 0.0
C1928 C 0.1856 0.91417 0.45946 0.0
C1929 C 0.1628 0.91837 0.46959 0.0
C1930 C 0.14934 0.89967 0.47976 0.0
H1931 H 0.12843 0.8241 0.43821 0.0
H1932 H 0.14044 0.85389 0.43934 0.0
H1933 H 0.1595 0.82865 0.44453 0.0
H1934 H 0.18861 0.85434 0.47049 0.0
H1935 H 0.21229 0.88688 0.45307 0.0
H1936 H 0.27836 0.99034 0.97898 0.0
H1937 H 0.24531 0.97985 1.00714 0.0
H1938 H 0.2688 0.90678 1.00751 0.0
H1939 H 0.30146 0.91698 0.97946 0.0
H1940 H 0.22124 0.91187 0.9947 0.0
H1941 H 0.24154 0.96158 0.08157 0.0
H1942 H 0.24184 0.97865 0.05325 0.0
H1943 H 0.26377 0.95588 0.05791 0.0
C1944 C 0.27685 0.97219 0.98565 0.0
C1945 C 0.29259 0.95452 0.97697 0.0
C1946 C 0.25791 0.9662 1.00171 0.0
C1947 C 0.25454 0.94249 1.00951 0.0
C1948 C 0.27093 0.92515 1.00173 0.0
H1949 H 0.1671 0.87141 0.1181 0.0
H1950 H 0.19798 0.89248 0.09474 0.0
C1951 C 0.28969 0.93106 0.98572 0.0
C1952 C 0.2331 0.93503 0.02407 0.0
H1953 H 0.20544 0.93991 0.0807 0.0
C1954 C 0.2177 0.91814 1.01345 0.0
C1955 C 0.22854 0.94308 0.04858 0.0
C1956 C 0.24483 0.96067 0.06119 0.0
C1957 C 0.1982 0.90876 0.02673 0.0
C1958 C 0.19359 0.91678 0.05128 0.0
C1959 C 0.20881 0.93392 0.06183 0.0
C1960 C 0.17412 0.90624 0.06676 0.0
C1961 C 0.18327 0.88962 1.01467 0.0
C1962 C 0.15018 0.90748 0.05931 0.0
C1963 C 0.13237 0.89532 0.07262 0.0
C1964 C 0.1381 0.88175 0.09379 0.0
C1965 C 0.16194 0.88155 0.10186 0.0
C1966 C 0.17969 0.89366 0.08853 0.0
H1967 H 0.19229 0.88174 0.99817 0.0
H1968 H 0.17916 0.87512 0.02807 0.0
H1969 H 0.1662 0.89746 1.00841 0.0
H1970 H 0.14533 0.91744 0.04285 0.0
H1971 H 0.11424 0.89603 0.06589 0.0
H1972 H 0.66798 0.12475 0.05503 0.0
H1973 H 0.646 0.15823 0.03714 0.0
H1974 H 0.65804 0.19933 0.10366 0.0
H1975 H 0.68008 0.16601 0.12174 0.0
H1976 H 0.60445 0.18299 0.05687 0.0
H1977 H 0.68308 0.24287 0.04688 0.0
H1978 H 0.68623 0.21126 0.05218 0.0
H1979 H 0.67725 0.23053 0.07717 0.0
C1980 C 0.66591 0.14085 0.06593 0.0
C1981 C 0.67591 0.14261 0.08981 0.0
C1982 C 0.65331 0.16 0.05567 0.0
C1983 C 0.65059 0.18142 0.06892 0.0
C1984 C 0.66018 0.18313 0.09293 0.0
H1985 H 0.59676 0.31393 0.99964 0.0
H1986 H 0.60944 0.28661 0.03288 0.0
C1987 C 0.67269 0.16396 0.10327 0.0
C1988 C 0.63782 0.20185 0.05734 0.0
H1989 H 0.64675 0.2566 0.03102 0.0
C1990 C 0.61364 0.19919 0.05145 0.0
C1991 C 0.64964 0.22325 0.05074 0.0
C1992 C 0.67552 0.22726 0.05689 0.0
C1993 C 0.6012 0.21692 0.03838 0.0
C1994 C 0.61344 0.23758 0.03014 0.0
C1995 C 0.63732 0.24078 0.03717 0.0
C1996 C 0.60282 0.25443 1.01174 0.0
C1997 C 0.57505 0.21317 0.03339 0.0
C1998 C 0.59452 0.24558 0.98895 0.0
C1999 C 0.58715 0.26104 0.97019 0.0
C2000 C 0.5881 0.28589 0.9735 0.0
C2001 C 0.5955 0.29489 0.99664 0.0
C2002 C 0.60295 0.27927 1.01555 0.0
H2003 H 0.56659 0.20252 0.04846 0.0
H2004 H 0.56541 0.23035 0.0317 0.0
H2005 H 0.57295 0.20306 1.01579 0.0
H2006 H 0.59476 0.22664 0.98513 0.0
H2007 H 0.58163 0.25347 0.95258 0.0
H2008 H 0.24598 0.6285 1.00541 0.0
H2009 H 0.28069 0.6394 0.02981 0.0
H2010 H 0.31624 0.57519 1.00594 0.0
H2011 H 0.28154 0.56472 0.98038 0.0
H2012 H 0.30719 0.62351 0.06603 0.0
H2013 H 0.36251 0.62218 0.97979 0.0
H2014 H 0.33103 0.61606 0.97903 0.0
H2015 H 0.35145 0.59388 0.98997 0.0
C2016 C 0.2609 0.61628 1.00596 0.0
C2017 C 0.26104 0.5958 0.99091 0.0
C2018 C 0.28088 0.62262 0.01984 0.0
C2019 C 0.30158 0.60863 0.01907 0.0
C2020 C 0.30086 0.58677 1.00617 0.0
H2021 H 0.44241 0.65866 0.06993 0.0
H2022 H 0.41033 0.63396 0.05311 0.0
C2023 C 0.28079 0.58047 0.99201 0.0
C2024 C 0.32394 0.61828 0.03032 0.0
H2025 H 0.37993 0.63833 1.01569 0.0
C2026 C 0.32313 0.62656 0.055 0.0
C2027 C 0.34507 0.62201 1.0162 0.0
C2028 C 0.34762 0.61325 0.98975 0.0
C2029 C 0.34231 0.63901 0.06562 0.0
C2030 C 0.3627 0.64419 0.05098 0.0
C2031 C 0.3641 0.63487 0.02675 0.0
C2032 C 0.38245 0.65963 0.06035 0.0
C2033 C 0.3405 0.64621 0.0926 0.0
C2034 C 0.3777 0.68262 0.06947 0.0
C2035 C 0.39597 0.6967 0.07935 0.0
C2036 C 0.41961 0.68839 0.07988 0.0
C2037 C 0.42447 0.66569 0.06991 0.0
C2038 C 0.40611 0.65151 0.06022 0.0
H2039 H 0.32922 0.63343 0.10314 0.0
H2040 H 0.35822 0.64703 0.10162 0.0
H2041 H 0.33203 0.66402 0.09393 0.0
H2042 H 0.35975 0.68964 0.06917 0.0
H2043 H 0.39146 0.71407 0.08676 0.0
H2044 H 0.89097 0.40441 0.11565 0.0
H2045 H 0.91448 0.37255 0.09651 0.0
H2046 H 0.8894 0.39397 0.02415 0.0
H2047 H 0.86729 0.42673 0.0431 0.0
H2048 H 0.90398 0.3356 0.07498 0.0
H2049 H 0.955 0.38529 1.00432 0.0
H2050 H 0.93769 0.40036 0.02779 0.0
H2051 H 0.92391 0.39014 0.99939 0.0
C2052 C 0.89085 0.40251 0.09559 0.0
C2053 C 0.87754 0.41823 0.08085 0.0
C2054 C 0.90424 0.38421 0.08461 0.0
C2055 C 0.90423 0.38083 0.05863 0.0
C2056 C 0.89059 0.39647 0.04401 0.0
H2057 H 0.92186 0.24729 0.9848 0.0
H2058 H 0.91144 0.27949 1.01289 0.0
C2059 C 0.87777 0.41519 0.05491 0.0
C2060 C 0.91707 0.36007 0.04713 0.0
H2061 H 0.95065 0.34306 0.9969 0.0
C2062 C 0.91455 0.33746 0.05815 0.0
C2063 C 0.93141 0.36211 0.02539 0.0
C2064 C 0.93737 0.38585 1.01377 0.0
C2065 C 0.92507 0.31701 0.04774 0.0
C2066 C 0.93757 0.31876 0.02483 0.0
C2067 C 0.94088 0.34144 1.01427 0.0
C2068 C 0.94561 0.29729 1.01053 0.0
C2069 C 0.92277 0.2938 0.06172 0.0
C2070 C 0.96851 0.29608 0.99967 0.0
C2071 C 0.97451 0.27751 0.98321 0.0
C2072 C 0.95765 0.25991 0.97723 0.0
C2073 C 0.93536 0.26042 0.98924 0.0
C2074 C 0.92938 0.27889 1.00548 0.0
H2075 H 0.92222 0.29696 0.08213 0.0
H2076 H 0.90577 0.28502 0.05657 0.0
H2077 H 0.93774 0.28153 0.05753 0.0
H2078 H 0.98141 0.31004 1.00313 0.0
H2079 H 0.99163 0.27791 0.97384 0.0
H2080 H 0.39084 0.87102 0.61431 0.0
H2081 H 0.36037 0.89367 0.59252 0.0
H2082 H 0.4134 0.92011 0.54125 0.0
H2083 H 0.44413 0.89699 0.56271 0.0
H2084 H 0.35338 0.9412 0.58147 0.0
H2085 H 0.3657 0.88837 0.49505 0.0
H2086 H 0.3789 0.87985 0.52425 0.0
H2087 H 0.39224 0.90296 0.50567 0.0
C2088 C 0.3962 0.88179 0.59853 0.0
C2089 C 0.42003 0.88191 0.59015 0.0
C2090 C 0.37866 0.89481 0.5861 0.0
C2091 C 0.38441 0.90826 0.56492 0.0
C2092 C 0.40838 0.90945 0.55723 0.0
H2093 H 0.2999 0.97864 0.45267 0.0
H2094 H 0.33136 0.96682 0.48128 0.0
C2095 C 0.426 0.89635 0.56965 0.0
C2096 C 0.36511 0.92 0.55035 0.0
H2097 H 0.33859 0.92033 0.49324 0.0
C2098 C 0.35016 0.93668 0.56216 0.0
C2099 C 0.36066 0.91392 0.52522 0.0
C2100 C 0.37504 0.89514 0.51181 0.0
C2101 C 0.33129 0.94777 0.54937 0.0
C2102 C 0.32701 0.9418 0.5242 0.0
C2103 C 0.34191 0.92506 0.51248 0.0
C2104 C 0.30744 0.95265 0.50927 0.0
C2105 C 0.31639 0.96609 0.56278 0.0
C2106 C 0.2833 0.94948 0.51578 0.0
C2107 C 0.26511 0.95656 0.49944 0.0
C2108 C 0.27084 0.96661 0.47621 0.0
C2109 C 0.29493 0.97093 0.47044 0.0
C2110 C 0.31296 0.96409 0.48676 0.0
H2111 H 0.32553 0.97305 0.57958 0.0
H2112 H 0.3121 0.98126 0.55034 0.0
H2113 H 0.2994 0.95776 0.56883 0.0
H2114 H 0.27852 0.94034 0.53282 0.0
H2115 H 0.24675 0.95264 0.50417 0.0
H2116 H 0.70439 0.38094 0.6006 0.0
H2117 H 0.68194 0.34904 0.58024 0.0
H2118 H 0.63879 0.40125 0.54283 0.0
H2119 H 0.66118 0.43327 0.56292 0.0
H2120 H 0.63109 0.33963 0.58129 0.0
H2121 H 0.66419 0.35861 0.4858 0.0
H2122 H 0.6787 0.37008 0.51323 0.0
H2123 H 0.65184 0.38369 0.50213 0.0
C2124 C 0.69025 0.38569 0.58789 0.0
C2125 C 0.68482 0.40977 0.58322 0.0
C2126 C 0.67731 0.36739 0.57638 0.0
C2127 C 0.65883 0.37271 0.55976 0.0
C2128 C 0.6532 0.39668 0.55528 0.0
H2129 H 0.56992 0.2842 0.46363 0.0
H2130 H 0.58333 0.31674 0.49084 0.0
C2131 C 0.66601 0.41499 0.56687 0.0
C2132 C 0.6455 0.35325 0.54701 0.0
H2133 H 0.63403 0.32944 0.48974 0.0
C2134 C 0.63192 0.33724 0.56133 0.0
C2135 C 0.64624 0.35037 0.52086 0.0
C2136 C 0.66116 0.36644 0.50454 0.0
C2137 C 0.61931 0.31832 0.55026 0.0
C2138 C 0.62002 0.31553 0.52412 0.0
C2139 C 0.63328 0.33175 0.50976 0.0
C2140 C 0.60845 0.29511 0.51123 0.0
C2141 C 0.60519 0.30153 0.5665 0.0
C2142 C 0.61753 0.27201 0.51414 0.0
C2143 C 0.61017 0.25359 0.49842 0.0
C2144 C 0.5931 0.25775 0.47991 0.0
C2145 C 0.58264 0.28039 0.4782 0.0
C2146 C 0.59047 0.29902 0.49356 0.0
H2147 H 0.6031 0.30843 0.58577 0.0
H2148 H 0.58729 0.29835 0.55844 0.0
H2149 H 0.61447 0.28412 0.56746 0.0
H2150 H 0.6314 0.26848 0.52751 0.0
H2151 H 0.61882 0.2364 0.49978 0.0
H2152 H 0.26466 0.57297 0.45171 0.0
H2153 H 0.23031 0.58218 0.47842 0.0
H2154 H 0.2766 0.61841 0.52985 0.0
H2155 H 0.31103 0.60892 0.50317 0.0
H2156 H 0.23389 0.58481 0.54948 0.0
H2157 H 0.21189 0.65792 0.48344 0.0
H2158 H 0.21927 0.6291 0.47083 0.0
H2159 H 0.24174 0.64627 0.48616 0.0
C2160 C 0.26761 0.58201 0.46923 0.0
C2161 C 0.29047 0.59009 0.47558 0.0
C2162 C 0.24796 0.58752 0.48431 0.0
C2163 C 0.2509 0.60115 0.50598 0.0
C2164 C 0.27396 0.60786 0.51321 0.0
H2165 H 0.1624 0.66821 0.61674 0.0
H2166 H 0.19285 0.64611 0.59418 0.0
C2167 C 0.29359 0.60244 0.49803 0.0
C2168 C 0.22982 0.61016 0.51984 0.0
H2169 H 0.18665 0.65295 0.5179 0.0
C2170 C 0.22346 0.59961 0.54257 0.0
C2171 C 0.21623 0.62944 0.51071 0.0
C2172 C 0.22255 0.64153 0.48651 0.0
C2173 C 0.20374 0.60781 0.5564 0.0
C2174 C 0.19038 0.62743 0.54753 0.0
C2175 C 0.1967 0.6378 0.52464 0.0
C2176 C 0.17074 0.63849 0.56229 0.0
C2177 C 0.1973 0.59519 0.58028 0.0
C2178 C 0.14796 0.64167 0.55199 0.0
C2179 C 0.13037 0.65452 0.5649 0.0
C2180 C 0.13536 0.66467 0.58822 0.0
C2181 C 0.15788 0.66061 0.59884 0.0
C2182 C 0.17535 0.64779 0.58601 0.0
H2183 H 0.20383 0.57651 0.58026 0.0
H2184 H 0.2058 0.60455 0.59611 0.0
H2185 H 0.17774 0.59504 0.58339 0.0
H2186 H 0.14401 0.63477 0.53364 0.0
H2187 H 0.11335 0.65754 0.55606 0.0
H2188 H 0.90202 0.14792 0.61437 0.0
H2189 H 0.92491 0.18102 0.59668 0.0
H2190 H 0.89738 0.16445 0.52385 0.0
H2191 H 0.8757 0.13033 0.54134 0.0
H2192 H 0.94228 0.17662 0.51996 0.0
H2193 H 0.8982 0.24395 0.57963 0.0
H2194 H 0.91372 0.22189 0.59734 0.0
H2195 H 0.8885 0.2134 0.57866 0.0
C2196 C 0.9011 0.15121 0.59453 0.0
C2197 C 0.88715 0.13654 0.57921 0.0
C2198 C 0.91399 0.17031 0.58446 0.0
C2199 C 0.91249 0.17575 0.55897 0.0
C2200 C 0.89891 0.16072 0.54356 0.0
H2201 H 0.92671 0.30799 0.48622 0.0
H2202 H 0.91882 0.27569 0.5148 0.0
C2203 C 0.88654 0.14118 0.55354 0.0
C2204 C 0.92474 0.19717 0.54838 0.0
H2205 H 0.92974 0.25756 0.5543 0.0
C2206 C 0.93948 0.19437 0.52739 0.0
C2207 C 0.92125 0.22036 0.55812 0.0
C2208 C 0.90439 0.22516 0.57952 0.0
C2209 C 0.95012 0.214 0.51535 0.0
C2210 C 0.94653 0.23731 0.52503 0.0
C2211 C 0.93264 0.23988 0.54674 0.0
C2212 C 0.95372 0.25943 0.51118 0.0
C2213 C 0.9644 0.20928 0.49199 0.0
C2214 C 0.9767 0.26274 0.501 0.0
C2215 C 0.98128 0.28156 0.48433 0.0
C2216 C 0.96306 0.2976 0.47807 0.0
C2217 C 0.94105 0.29576 0.49042 0.0
C2218 C 0.93648 0.27705 0.50677 0.0
H2219 H 0.95974 0.19184 0.48351 0.0
H2220 H 0.96171 0.22327 0.47777 0.0
H2221 H 0.9836 0.2088 0.49675 0.0
H2222 H 0.99077 0.25017 0.50493 0.0
H2223 H 0.99843 0.28253 0.47509 0.0
H2224 H 0.93921 0.15755 0.9585 0.0
H2225 H 0.90857 0.13475 0.9807 0.0
H2226 H 0.85398 0.17089 0.93909 0.0
H2227 H 0.88432 0.19309 0.91641 0.0
H2228 H 0.8763 0.15169 1.01102 0.0
H2229 H 0.8284 0.10467 0.93626 0.0
H2230 H 0.85693 0.11873 0.93113 0.0
H2231 H 0.8299 0.13596 0.92988 0.0
C2232 C 0.92071 0.16026 0.95367 0.0
C2233 C 0.91432 0.17717 0.93558 0.0
C2234 C 0.90317 0.14722 0.96643 0.0
C2235 C 0.87886 0.15076 0.96139 0.0
C2236 C 0.87253 0.16722 0.9429 0.0
H2237 H 0.76369 0.14457 0.06495 0.0
H2238 H 0.79555 0.15397 0.03561 0.0
C2239 C 0.89001 0.1801 0.93003 0.0
C2240 C 0.8601 0.13929 0.97713 0.0
H2241 H 0.80642 0.11039 0.97475 0.0
C2242 C 0.86125 0.14233 1.00304 0.0
C2243 C 0.84051 0.1267 0.96694 0.0
C2244 C 0.83899 0.12109 0.93954 0.0
C2245 C 0.84293 0.13427 0.01881 0.0
C2246 C 0.82248 0.12338 1.00843 0.0
C2247 C 0.82185 0.11914 0.98269 0.0
C2248 C 0.80125 0.11751 0.02402 0.0
C2249 C 0.84563 0.13768 0.04651 0.0
C2250 C 0.79276 0.09401 0.0262 0.0
C2251 C 0.77411 0.08857 0.04283 0.0
C2252 C 0.76378 0.10658 0.05753 0.0
C2253 C 0.77147 0.13022 0.05417 0.0
C2254 C 0.78982 0.13563 0.03749 0.0
H2255 H 0.86467 0.13901 0.05187 0.0
H2256 H 0.83678 0.15452 0.05213 0.0
H2257 H 0.83732 0.1228 0.05705 0.0
H2258 H 0.80115 0.07976 1.01579 0.0
H2259 H 0.76864 0.07019 0.04508 0.0
H2260 H 0.41257 0.94058 0.94955 0.0
H2261 H 0.435 0.90855 0.97042 0.0
H2262 H 0.37236 0.86407 0.96947 0.0
H2263 H 0.35052 0.89529 0.94779 0.0
H2264 H 0.39363 0.86399 1.01421 0.0
H2265 H 0.4605 0.84583 0.9403 0.0
H2266 H 0.45877 0.87647 0.94989 0.0
H2267 H 0.43374 0.8628 0.93481 0.0
C2268 C 0.40379 0.92383 0.95364 0.0
C2269 C 0.37997 0.92019 0.94675 0.0
C2270 C 0.41661 0.90549 0.96534 0.0
C2271 C 0.4056 0.88351 0.97074 0.0
C2272 C 0.38151 0.88044 0.96473 0.0
H2273 H 0.4612 0.74848 0.03048 0.0
H2274 H 0.44775 0.77866 1.00032 0.0
C2275 C 0.36901 0.89836 0.95247 0.0
C2276 C 0.41853 0.86393 0.98365 0.0
H2277 H 0.46601 0.82589 0.97898 0.0
C2278 C 0.40942 0.85569 1.00643 0.0
C2279 C 0.43886 0.85266 0.9733 0.0
C2280 C 0.44849 0.85968 0.94811 0.0
C2281 C 0.42044 0.83711 0.01949 0.0
C2282 C 0.44138 0.82655 1.00973 0.0
C2283 C 0.45012 0.83417 0.98655 0.0
C2284 C 0.45483 0.80868 0.02447 0.0
C2285 C 0.40964 0.82912 0.04389 0.0
C2286 C 0.46504 0.81569 0.04704 0.0
C2287 C 0.47305 0.79869 0.06392 0.0
C2288 C 0.47103 0.77421 0.05868 0.0
C2289 C 0.46301 0.76718 0.03503 0.0
C2290 C 0.45507 0.7844 0.01793 0.0
H2291 H 0.39042 0.83367 0.04508 0.0
H2292 H 0.41165 0.80962 0.04659 0.0
H2293 H 0.41891 0.83828 0.05938 0.0
H2294 H 0.46545 0.83433 0.05229 0.0
H2295 H 0.4795 0.80471 0.08184 0.0
H2296 H 0.7645 0.48344 0.0681 0.0
H2297 H 0.73082 0.47106 0.04217 0.0
H2298 H 0.77826 0.42908 0.99683 0.0
H2299 H 0.81178 0.44026 0.02365 0.0
H2300 H 0.73836 0.4522 0.97018 0.0
H2301 H 0.71103 0.39989 0.05337 0.0
H2302 H 0.7123 0.43157 0.05785 0.0
H2303 H 0.73919 0.41537 0.05174 0.0
C2304 C 0.76783 0.47221 0.05205 0.0
C2305 C 0.7907 0.46301 0.0476 0.0
C2306 C 0.74857 0.46499 0.0374 0.0
C2307 C 0.75196 0.4486 0.01796 0.0
C2308 C 0.7752 0.44124 1.01206 0.0
H2309 H 0.66108 0.34013 0.95691 0.0
H2310 H 0.69227 0.36423 0.97616 0.0
C2311 C 0.79438 0.44794 0.02712 0.0
C2312 C 0.73123 0.43671 1.00606 0.0
H2313 H 0.68679 0.39652 0.01781 0.0
C2314 C 0.72696 0.44016 0.98059 0.0
C2315 C 0.71638 0.42097 0.0197 0.0
C2316 C 0.71998 0.41652 0.04712 0.0
C2317 C 0.70817 0.42831 0.96844 0.0
C2318 C 0.69371 0.41218 0.98199 0.0
C2319 C 0.69796 0.40881 1.00744 0.0
C2320 C 0.67459 0.39789 0.97004 0.0
C2321 C 0.70404 0.433 0.94117 0.0
C2322 C 0.65405 0.40878 0.96057 0.0
C2323 C 0.63594 0.395 0.94984 0.0
C2324 C 0.63811 0.37007 0.94823 0.0
C2325 C 0.65874 0.35926 0.95781 0.0
C2326 C 0.67666 0.37301 0.96877 0.0
H2327 H 0.71985 0.44128 0.93213 0.0
H2328 H 0.69953 0.41632 0.93113 0.0
H2329 H 0.68878 0.44538 0.93919 0.0
H2330 H 0.65194 0.42792 0.96165 0.0
H2331 H 0.62035 0.40392 0.9426 0.0
H2332 H 0.06575 0.77121 0.07238 0.0
H2333 H 0.07793 0.73852 0.0447 0.0
H2334 H 0.13161 0.78391 1.01195 0.0
H2335 H 0.12017 0.81608 0.04034 0.0
H2336 H 0.08412 0.72881 0.99473 0.0
H2337 H 0.17113 0.73176 0.0424 0.0
H2338 H 0.14644 0.7501 0.05202 0.0
H2339 H 0.16521 0.75915 0.02647 0.0
C2340 C 0.07951 0.77442 0.05858 0.0
C2341 C 0.09189 0.79618 0.05824 0.0
C2342 C 0.08662 0.75568 0.04293 0.0
C2343 C 0.10614 0.75853 0.02669 0.0
C2344 C 0.11692 0.78106 0.02475 0.0
H2345 H 0.18988 0.67371 0.92659 0.0
H2346 H 0.16623 0.70416 0.94756 0.0
C2347 C 0.11016 0.79956 0.04069 0.0
C2348 C 0.11674 0.73761 1.01358 0.0
H2349 H 0.16908 0.7073 1.00596 0.0
C2350 C 0.10264 0.724 0.99732 0.0
C2351 C 0.14086 0.73101 1.01723 0.0
C2352 C 0.1567 0.74361 0.03569 0.0
C2353 C 0.11229 0.70465 0.98394 0.0
C2354 C 0.13657 0.69879 0.98692 0.0
C2355 C 0.15049 0.71198 1.00357 0.0
C2356 C 0.14836 0.67962 0.97235 0.0
C2357 C 0.09678 0.69086 0.96621 0.0
C2358 C 0.14592 0.65559 0.97914 0.0
C2359 C 0.1596 0.63798 0.96725 0.0
C2360 C 0.17597 0.64415 0.94837 0.0
C2361 C 0.17755 0.66819 0.94103 0.0
C2362 C 0.16401 0.6857 0.95298 0.0
H2363 H 0.07854 0.69839 0.96495 0.0
H2364 H 0.105 0.6908 0.94738 0.0
H2365 H 0.09547 0.67207 0.97248 0.0
H2366 H 0.13409 0.65057 0.99423 0.0
H2367 H 0.15793 0.6197 0.97344 0.0
loop_
_geom_bond_atom_site_label_1
_geom_bond_atom_site_label_2
_geom_bond_distance
_geom_bond_site_symmetry_2
_ccdc_geom_bond_type
Tb0 C9 2.764 . S
Tb0 O10 2.325 . S
Tb0 O13 2.303 . S
Tb0 O17 2.322 . S
Tb0 O18 2.349 . S
Tb0 O21 2.415 . S
Tb0 O22 2.399 . S
Tb1 O11 2.322 . S
Tb1 O12 2.349 . S
Tb1 O14 2.415 . S
Tb1 O15 2.399 . S
Tb1 O16 2.325 . S
Tb1 O19 2.303 . S
Tb1 C30 2.764 . S
C2 O18 1.261 . S
C2 O19 1.257 . S
C3 C6 1.358 . S
C3 C7 1.332 . S
C3 C9 1.504 . S
C4 C5 1.373 . S
C4 C8 1.308 . S
C5 C4 1.373 . S
C5 C6 1.429 . S
C5 H32 0.932 . S
C6 C3 1.358 . S
C6 C5 1.429 . S
C6 H33 0.930 . S
C7 C3 1.332 . S
C7 C8 1.394 . S
C7 H34 0.932 . S
C8 C4 1.308 . S
C8 C7 1.394 . S
C8 H35 0.929 . S
C9 Tb0 2.764 . S
C9 C3 1.504 . S
C9 O21 1.239 . S
C9 O22 1.263 . S
O10 Tb0 2.325 . S
O10 C20 1.236 . S
O11 Tb1 2.322 . S
O11 C20 1.257 . S
O12 Tb1 2.349 . S
O12 C23 1.261 . S
O13 Tb0 2.303 . S
O13 C23 1.257 . S
O14 Tb1 2.415 . S
O14 C30 1.239 . S
O15 Tb1 2.399 . S
O15 C30 1.263 . S
O16 Tb1 2.325 . S
O16 C31 1.236 . S
O17 Tb0 2.322 . S
O17 C31 1.257 . S
O18 Tb0 2.349 . S
O18 C2 1.261 . S
O19 Tb1 2.303 . S
O19 C2 1.257 . S
C20 O10 1.236 . S
C20 O11 1.257 . S
O21 Tb0 2.415 . S
O21 C9 1.239 . S
O22 Tb0 2.399 . S
O22 C9 1.263 . S
C23 O12 1.261 . S
C23 O13 1.257 . S
C24 C27 1.358 . S
C24 C28 1.332 . S
C24 C30 1.504 . S
C25 C26 1.373 . S
C25 C29 1.308 . S
C26 C25 1.373 . S
C26 C27 1.429 . S
C26 H36 0.932 . S
C27 C24 1.358 . S
C27 C26 1.429 . S
C27 H37 0.930 . S
C28 C24 1.332 . S
C28 C29 1.394 . S
C28 H38 0.932 . S
C29 C25 1.308 . S
C29 C28 1.394 . S
C29 H39 0.929 . S
C30 Tb1 2.764 . S
C30 O14 1.239 . S
C30 O15 1.263 . S
C30 C24 1.504 . S
C31 O16 1.236 . S
C31 O17 1.257 . S
H32 C5 0.932 . S
H33 C6 0.930 . S
H34 C7 0.932 . S
H35 C8 0.929 . S
H36 C26 0.932 . S
H37 C27 0.930 . S
H38 C28 0.932 . S
H39 C29 0.929 . S
Tb40 C49 2.764 . S
Tb40 O50 2.325 . S
Tb40 O53 2.303 . S
Tb40 O57 2.322 . S
Tb40 O58 2.349 . S
Tb40 O61 2.415 . S
Tb40 O62 2.399 . S
Tb41 O51 2.322 . S
Tb41 O52 2.349 . S
Tb41 O54 2.415 . S
Tb41 O55 2.399 . S
Tb41 O56 2.325 . S
Tb41 O59 2.303 . S
Tb41 C70 2.764 . S
C42 O58 1.261 . S
C42 O59 1.257 . S
C43 C46 1.358 . S
C43 C47 1.332 . S
C43 C49 1.504 . S
C44 C45 1.373 . S
C44 C48 1.308 . S
C45 C44 1.373 . S
C45 C46 1.429 . S
C45 H72 0.932 . S
C46 C43 1.358 . S
C46 C45 1.429 . S
C46 H73 0.930 . S
C47 C43 1.332 . S
C47 C48 1.394 . S
C47 H74 0.932 . S
C48 C44 1.308 . S
C48 C47 1.394 . S
C48 H75 0.929 . S
C49 Tb40 2.764 . S
C49 C43 1.504 . S
C49 O61 1.239 . S
C49 O62 1.263 . S
O50 Tb40 2.325 . S
O50 C60 1.236 . S
O51 Tb41 2.322 . S
O51 C60 1.257 . S
O52 Tb41 2.349 . S
O52 C63 1.261 . S
O53 Tb40 2.303 . S
O53 C63 1.257 . S
O54 Tb41 2.415 . S
O54 C70 1.239 . S
O55 Tb41 2.399 . S
O55 C70 1.263 . S
O56 Tb41 2.325 . S
O56 C71 1.236 . S
O57 Tb40 2.322 . S
O57 C71 1.257 . S
O58 Tb40 2.349 . S
O58 C42 1.261 . S
O59 Tb41 2.303 . S
O59 C42 1.257 . S
C60 O50 1.236 . S
C60 O51 1.257 . S
O61 Tb40 2.415 . S
O61 C49 1.239 . S
O62 Tb40 2.399 . S
O62 C49 1.263 . S
C63 O52 1.261 . S
C63 O53 1.257 . S
C64 C67 1.358 . S
C64 C68 1.332 . S
C64 C70 1.504 . S
C65 C66 1.373 . S
C65 C69 1.308 . S
C66 C65 1.373 . S
C66 C67 1.429 . S
C66 H76 0.932 . S
C67 C64 1.358 . S
C67 C66 1.429 . S
C67 H77 0.930 . S
C68 C64 1.332 . S
C68 C69 1.394 . S
C68 H78 0.932 . S
C69 C65 1.308 . S
C69 C68 1.394 . S
C69 H79 0.929 . S
C70 Tb41 2.764 . S
C70 O54 1.239 . S
C70 O55 1.263 . S
C70 C64 1.504 . S
C71 O56 1.236 . S
C71 O57 1.257 . S
H72 C45 0.932 . S
H73 C46 0.930 . S
H74 C47 0.932 . S
H75 C48 0.929 . S
H76 C66 0.932 . S
H77 C67 0.930 . S
H78 C68 0.932 . S
H79 C69 0.929 . S
Tb80 C89 2.764 1_655 S
Tb80 O90 2.325 . S
Tb80 O93 2.303 . S
Tb80 O97 2.322 . S
Tb80 O98 2.349 . S
Tb80 O101 2.415 1_655 S
Tb80 O102 2.399 1_655 S
Tb81 O91 2.322 . S
Tb81 O92 2.349 . S
Tb81 O94 2.415 . S
Tb81 O95 2.399 . S
Tb81 O96 2.325 . S
Tb81 O99 2.303 . S
Tb81 C110 2.764 . S
C82 O98 1.261 . S
C82 O99 1.257 . S
C83 C86 1.358 . S
C83 C87 1.332 . S
C83 C89 1.504 . S
C84 C85 1.373 . S
C84 C88 1.308 . S
C85 C84 1.373 . S
C85 C86 1.429 . S
C85 H112 0.932 . S
C86 C83 1.358 . S
C86 C85 1.429 . S
C86 H113 0.930 . S
C87 C83 1.332 . S
C87 C88 1.394 . S
C87 H114 0.932 . S
C88 C84 1.308 . S
C88 C87 1.394 . S
C88 H115 0.929 . S
C89 Tb80 2.764 1_455 S
C89 C83 1.504 . S
C89 O101 1.239 . S
C89 O102 1.263 . S
O90 Tb80 2.325 . S
O90 C100 1.236 . S
O91 Tb81 2.322 . S
O91 C100 1.257 . S
O92 Tb81 2.349 . S
O92 C103 1.261 . S
O93 Tb80 2.303 . S
O93 C103 1.257 . S
O94 Tb81 2.415 . S
O94 C110 1.239 . S
O95 Tb81 2.399 . S
O95 C110 1.263 . S
O96 Tb81 2.325 . S
O96 C111 1.236 . S
O97 Tb80 2.322 . S
O97 C111 1.257 . S
O98 Tb80 2.349 . S
O98 C82 1.261 . S
O99 Tb81 2.303 . S
O99 C82 1.257 . S
C100 O90 1.236 . S
C100 O91 1.257 . S
O101 Tb80 2.415 1_455 S
O101 C89 1.239 . S
O102 Tb80 2.399 1_455 S
O102 C89 1.263 . S
C103 O92 1.261 . S
C103 O93 1.257 . S
C104 C107 1.358 . S
C104 C108 1.332 . S
C104 C110 1.504 . S
C105 C106 1.373 . S
C105 C109 1.308 . S
C106 C105 1.373 . S
C106 C107 1.429 . S
C106 H116 0.932 . S
C107 C104 1.358 . S
C107 C106 1.429 . S
C107 H117 0.930 . S
C108 C104 1.332 . S
C108 C109 1.394 . S
C108 H118 0.932 . S
C109 C105 1.308 . S
C109 C108 1.394 . S
C109 H119 0.929 . S
C110 Tb81 2.764 . S
C110 O94 1.239 . S
C110 O95 1.263 . S
C110 C104 1.504 . S
C111 O96 1.236 . S
C111 O97 1.257 . S
H112 C85 0.932 . S
H113 C86 0.930 . S
H114 C87 0.932 . S
H115 C88 0.929 . S
H116 C106 0.932 . S
H117 C107 0.930 . S
H118 C108 0.932 . S
H119 C109 0.929 . S
Tb120 C129 2.764 1_565 S
Tb120 O130 2.325 . S
Tb120 O133 2.303 . S
Tb120 O137 2.322 . S
Tb120 O138 2.349 . S
Tb120 O141 2.415 1_565 S
Tb120 O142 2.399 1_565 S
Tb121 O131 2.322 . S
Tb121 O132 2.349 . S
Tb121 O134 2.415 . S
Tb121 O135 2.399 . S
Tb121 O136 2.325 . S
Tb121 O139 2.303 . S
Tb121 C150 2.764 . S
C122 O138 1.261 . S
C122 O139 1.257 . S
C123 C126 1.358 . S
C123 C127 1.332 . S
C123 C129 1.504 . S
C124 C125 1.373 . S
C124 C128 1.308 . S
C125 C124 1.373 . S
C125 C126 1.429 . S
C125 H152 0.932 . S
C126 C123 1.358 . S
C126 C125 1.429 . S
C126 H153 0.930 . S
C127 C123 1.332 . S
C127 C128 1.394 . S
C127 H154 0.932 . S
C128 C124 1.308 . S
C128 C127 1.394 . S
C128 H155 0.929 . S
C129 Tb120 2.764 1_545 S
C129 C123 1.504 . S
C129 O141 1.239 . S
C129 O142 1.263 . S
O130 Tb120 2.325 . S
O130 C140 1.236 . S
O131 Tb121 2.322 . S
O131 C140 1.257 . S
O132 Tb121 2.349 . S
O132 C143 1.261 . S
O133 Tb120 2.303 . S
O133 C143 1.257 . S
O134 Tb121 2.415 . S
O134 C150 1.239 . S
O135 Tb121 2.399 . S
O135 C150 1.263 . S
O136 Tb121 2.325 . S
O136 C151 1.236 . S
O137 Tb120 2.322 . S
O137 C151 1.257 . S
O138 Tb120 2.349 . S
O138 C122 1.261 . S
O139 Tb121 2.303 . S
O139 C122 1.257 . S
C140 O130 1.236 . S
C140 O131 1.257 . S
O141 Tb120 2.415 1_545 S
O141 C129 1.239 . S
O142 Tb120 2.399 1_545 S
O142 C129 1.263 . S
C143 O132 1.261 . S
C143 O133 1.257 . S
C144 C147 1.358 . S
C144 C148 1.332 . S
C144 C150 1.504 . S
C145 C146 1.373 . S
C145 C149 1.308 . S
C146 C145 1.373 . S
C146 C147 1.429 . S
C146 H156 0.932 . S
C147 C144 1.358 . S
C147 C146 1.429 . S
C147 H157 0.930 . S
C148 C144 1.332 . S
C148 C149 1.394 . S
C148 H158 0.932 . S
C149 C145 1.308 . S
C149 C148 1.394 . S
C149 H159 0.929 . S
C150 Tb121 2.764 . S
C150 O134 1.239 . S
C150 O135 1.263 . S
C150 C144 1.504 . S
C151 O136 1.236 . S
C151 O137 1.257 . S
H152 C125 0.932 . S
H153 C126 0.930 . S
H154 C127 0.932 . S
H155 C128 0.929 . S
H156 C146 0.932 . S
H157 C147 0.930 . S
H158 C148 0.932 . S
H159 C149 0.929 . S
Tb160 C169 2.764 1_455 S
Tb160 O170 2.325 . S
Tb160 O173 2.303 . S
Tb160 O177 2.322 . S
Tb160 O178 2.349 . S
Tb160 O181 2.415 1_455 S
Tb160 O182 2.399 1_455 S
Tb161 O171 2.322 . S
Tb161 O172 2.349 . S
Tb161 O174 2.415 . S
Tb161 O175 2.399 . S
Tb161 O176 2.325 . S
Tb161 O179 2.303 . S
Tb161 C190 2.764 . S
C162 O178 1.261 . S
C162 O179 1.257 . S
C163 C166 1.358 . S
C163 C167 1.332 . S
C163 C169 1.504 . S
C164 C165 1.373 . S
C164 C168 1.308 . S
C165 C164 1.373 . S
C165 C166 1.429 . S
C165 H192 0.932 . S
C166 C163 1.358 . S
C166 C165 1.429 . S
C166 H193 0.930 . S
C167 C163 1.332 . S
C167 C168 1.394 . S
C167 H194 0.932 . S
C168 C164 1.308 . S
C168 C167 1.394 . S
C168 H195 0.929 . S
C169 Tb160 2.764 1_655 S
C169 C163 1.504 . S
C169 O181 1.239 . S
C169 O182 1.263 . S
O170 Tb160 2.325 . S
O170 C180 1.236 . S
O171 Tb161 2.322 . S
O171 C180 1.257 . S
O172 Tb161 2.349 . S
O172 C183 1.261 . S
O173 Tb160 2.303 . S
O173 C183 1.257 . S
O174 Tb161 2.415 . S
O174 C190 1.239 . S
O175 Tb161 2.399 . S
O175 C190 1.263 . S
O176 Tb161 2.325 . S
O176 C191 1.236 . S
O177 Tb160 2.322 . S
O177 C191 1.257 . S
O178 Tb160 2.349 . S
O178 C162 1.261 . S
O179 Tb161 2.303 . S
O179 C162 1.257 . S
C180 O170 1.236 . S
C180 O171 1.257 . S
O181 Tb160 2.415 1_655 S
O181 C169 1.239 . S
O182 Tb160 2.399 1_655 S
O182 C169 1.263 . S
C183 O172 1.261 . S
C183 O173 1.257 . S
C184 C187 1.358 . S
C184 C188 1.332 . S
C184 C190 1.504 . S
C185 C186 1.373 . S
C185 C189 1.308 . S
C186 C185 1.373 . S
C186 C187 1.429 . S
C186 H196 0.932 . S
C187 C184 1.358 . S
C187 C186 1.429 . S
C187 H197 0.930 . S
C188 C184 1.332 . S
C188 C189 1.394 . S
C188 H198 0.932 . S
C189 C185 1.308 . S
C189 C188 1.394 . S
C189 H199 0.929 . S
C190 Tb161 2.764 . S
C190 O174 1.239 . S
C190 O175 1.263 . S
C190 C184 1.504 . S
C191 O176 1.236 . S
C191 O177 1.257 . S
H192 C165 0.932 . S
H193 C166 0.930 . S
H194 C167 0.932 . S
H195 C168 0.929 . S
H196 C186 0.932 . S
H197 C187 0.930 . S
H198 C188 0.932 . S
H199 C189 0.929 . S
Tb200 C209 2.764 1_545 S
Tb200 O210 2.325 . S
Tb200 O213 2.303 . S
Tb200 O217 2.322 . S
Tb200 O218 2.349 . S
Tb200 O221 2.415 1_545 S
Tb200 O222 2.399 1_545 S
Tb201 O211 2.322 . S
Tb201 O212 2.349 . S
Tb201 O214 2.415 . S
Tb201 O215 2.399 . S
Tb201 O216 2.325 . S
Tb201 O219 2.303 . S
Tb201 C230 2.764 . S
C202 O218 1.261 . S
C202 O219 1.257 . S
C203 C206 1.358 . S
C203 C207 1.332 . S
C203 C209 1.504 . S
C204 C205 1.373 . S
C204 C208 1.308 . S
C205 C204 1.373 . S
C205 C206 1.429 . S
C205 H232 0.932 . S
C206 C203 1.358 . S
C206 C205 1.429 . S
C206 H233 0.930 . S
C207 C203 1.332 . S
C207 C208 1.394 . S
C207 H234 0.932 . S
C208 C204 1.308 . S
C208 C207 1.394 . S
C208 H235 0.929 . S
C209 Tb200 2.764 1_565 S
C209 C203 1.504 . S
C209 O221 1.239 . S
C209 O222 1.263 . S
O210 Tb200 2.325 . S
O210 C220 1.236 . S
O211 Tb201 2.322 . S
O211 C220 1.257 . S
O212 Tb201 2.349 . S
O212 C223 1.261 . S
O213 Tb200 2.303 . S
O213 C223 1.257 . S
O214 Tb201 2.415 . S
O214 C230 1.239 . S
O215 Tb201 2.399 . S
O215 C230 1.263 . S
O216 Tb201 2.325 . S
O216 C231 1.236 . S
O217 Tb200 2.322 . S
O217 C231 1.257 . S
O218 Tb200 2.349 . S
O218 C202 1.261 . S
O219 Tb201 2.303 . S
O219 C202 1.257 . S
C220 O210 1.236 . S
C220 O211 1.257 . S
O221 Tb200 2.415 1_565 S
O221 C209 1.239 . S
O222 Tb200 2.399 1_565 S
O222 C209 1.263 . S
C223 O212 1.261 . S
C223 O213 1.257 . S
C224 C227 1.358 . S
C224 C228 1.332 . S
C224 C230 1.504 . S
C225 C226 1.373 . S
C225 C229 1.308 . S
C226 C225 1.373 . S
C226 C227 1.429 . S
C226 H236 0.932 . S
C227 C224 1.358 . S
C227 C226 1.429 . S
C227 H237 0.930 . S
C228 C224 1.332 . S
C228 C229 1.394 . S
C228 H238 0.932 . S
C229 C225 1.308 . S
C229 C228 1.394 . S
C229 H239 0.929 . S
C230 Tb201 2.764 . S
C230 O214 1.239 . S
C230 O215 1.263 . S
C230 C224 1.504 . S
C231 O216 1.236 . S
C231 O217 1.257 . S
H232 C205 0.932 . S
H233 C206 0.930 . S
H234 C207 0.932 . S
H235 C208 0.929 . S
H236 C226 0.932 . S
H237 C227 0.930 . S
H238 C228 0.932 . S
H239 C229 0.929 . S
Tb240 C249 2.764 . S
Tb240 O250 2.325 . S
Tb240 O253 2.303 . S
Tb240 O257 2.322 . S
Tb240 O258 2.349 . S
Tb240 O261 2.415 . S
Tb240 O262 2.399 . S
Tb241 O251 2.322 . S
Tb241 O252 2.349 . S
Tb241 O254 2.415 . S
Tb241 O255 2.399 . S
Tb241 O256 2.325 . S
Tb241 O259 2.303 . S
Tb241 C270 2.764 . S
C242 O258 1.261 . S
C242 O259 1.257 . S
C243 C246 1.358 . S
C243 C247 1.332 . S
C243 C249 1.504 . S
C244 C245 1.373 . S
C244 C248 1.308 . S
C245 C244 1.373 . S
C245 C246 1.429 . S
C245 H272 0.932 . S
C246 C243 1.358 . S
C246 C245 1.429 . S
C246 H273 0.930 . S
C247 C243 1.332 . S
C247 C248 1.394 . S
C247 H274 0.932 . S
C248 C244 1.308 . S
C248 C247 1.394 . S
C248 H275 0.929 . S
C249 Tb240 2.764 . S
C249 C243 1.504 . S
C249 O261 1.239 . S
C249 O262 1.263 . S
O250 Tb240 2.325 . S
O250 C260 1.236 . S
O251 Tb241 2.322 . S
O251 C260 1.257 . S
O252 Tb241 2.349 . S
O252 C263 1.261 . S
O253 Tb240 2.303 . S
O253 C263 1.257 . S
O254 Tb241 2.415 . S
O254 C270 1.239 . S
O255 Tb241 2.399 . S
O255 C270 1.263 . S
O256 Tb241 2.325 . S
O256 C271 1.236 . S
O257 Tb240 2.322 . S
O257 C271 1.257 . S
O258 Tb240 2.349 . S
O258 C242 1.261 . S
O259 Tb241 2.303 . S
O259 C242 1.257 . S
C260 O250 1.236 . S
C260 O251 1.257 . S
O261 Tb240 2.415 . S
O261 C249 1.239 . S
O262 Tb240 2.399 . S
O262 C249 1.263 . S
C263 O252 1.261 . S
C263 O253 1.257 . S
C264 C267 1.358 . S
C264 C268 1.332 . S
C264 C270 1.504 . S
C265 C266 1.373 . S
C265 C269 1.308 . S
C266 C265 1.373 . S
C266 C267 1.429 . S
C266 H276 0.932 . S
C267 C264 1.358 . S
C267 C266 1.429 . S
C267 H277 0.930 . S
C268 C264 1.332 . S
C268 C269 1.394 . S
C268 H278 0.932 . S
C269 C265 1.308 . S
C269 C268 1.394 . S
C269 H279 0.929 . S
C270 Tb241 2.764 . S
C270 O254 1.239 . S
C270 O255 1.263 . S
C270 C264 1.504 . S
C271 O256 1.236 . S
C271 O257 1.257 . S
H272 C245 0.932 . S
H273 C246 0.930 . S
H274 C247 0.932 . S
H275 C248 0.929 . S
H276 C266 0.932 . S
H277 C267 0.930 . S
H278 C268 0.932 . S
H279 C269 0.929 . S
Tb280 C289 2.764 . S
Tb280 O290 2.325 . S
Tb280 O293 2.303 . S
Tb280 O297 2.322 . S
Tb280 O298 2.349 . S
Tb280 O301 2.415 . S
Tb280 O302 2.399 . S
Tb281 O291 2.322 . S
Tb281 O292 2.349 . S
Tb281 O294 2.415 . S
Tb281 O295 2.399 . S
Tb281 O296 2.325 . S
Tb281 O299 2.303 . S
Tb281 C310 2.764 . S
C282 O298 1.261 . S
C282 O299 1.257 . S
C283 C286 1.358 . S
C283 C287 1.332 . S
C283 C289 1.504 . S
C284 C285 1.373 . S
C284 C288 1.308 . S
C285 C284 1.373 . S
C285 C286 1.429 . S
C285 H312 0.932 . S
C286 C283 1.358 . S
C286 C285 1.429 . S
C286 H313 0.930 . S
C287 C283 1.332 . S
C287 C288 1.394 . S
C287 H314 0.932 . S
C288 C284 1.308 . S
C288 C287 1.394 . S
C288 H315 0.929 . S
C289 Tb280 2.764 . S
C289 C283 1.504 . S
C289 O301 1.239 . S
C289 O302 1.263 . S
O290 Tb280 2.325 . S
O290 C300 1.236 . S
O291 Tb281 2.322 . S
O291 C300 1.257 . S
O292 Tb281 2.349 . S
O292 C303 1.261 . S
O293 Tb280 2.303 . S
O293 C303 1.257 . S
O294 Tb281 2.415 . S
O294 C310 1.239 . S
O295 Tb281 2.399 . S
O295 C310 1.263 . S
O296 Tb281 2.325 . S
O296 C311 1.236 . S
O297 Tb280 2.322 . S
O297 C311 1.257 . S
O298 Tb280 2.349 . S
O298 C282 1.261 . S
O299 Tb281 2.303 . S
O299 C282 1.257 . S
C300 O290 1.236 . S
C300 O291 1.257 . S
O301 Tb280 2.415 . S
O301 C289 1.239 . S
O302 Tb280 2.399 . S
O302 C289 1.263 . S
C303 O292 1.261 . S
C303 O293 1.257 . S
C304 C307 1.358 . S
C304 C308 1.332 . S
C304 C310 1.504 . S
C305 C306 1.373 . S
C305 C309 1.308 . S
C306 C305 1.373 . S
C306 C307 1.429 . S
C306 H316 0.932 . S
C307 C304 1.358 . S
C307 C306 1.429 . S
C307 H317 0.930 . S
C308 C304 1.332 . S
C308 C309 1.394 . S
C308 H318 0.932 . S
C309 C305 1.308 . S
C309 C308 1.394 . S
C309 H319 0.929 . S
C310 Tb281 2.764 . S
C310 O294 1.239 . S
C310 O295 1.263 . S
C310 C304 1.504 . S
C311 O296 1.236 . S
C311 O297 1.257 . S
H312 C285 0.932 . S
H313 C286 0.930 . S
H314 C287 0.932 . S
H315 C288 0.929 . S
H316 C306 0.932 . S
H317 C307 0.930 . S
H318 C308 0.932 . S
H319 C309 0.929 . S
Tb320 C329 2.764 . S
Tb320 O330 2.325 . S
Tb320 O333 2.303 . S
Tb320 O337 2.322 . S
Tb320 O338 2.349 . S
Tb320 O341 2.415 . S
Tb320 O342 2.399 . S
Tb321 O331 2.322 . S
Tb321 O332 2.349 . S
Tb321 O334 2.415 . S
Tb321 O335 2.399 . S
Tb321 O336 2.325 . S
Tb321 O339 2.303 . S
Tb321 C350 2.764 . S
C322 O338 1.261 . S
C322 O339 1.257 . S
C323 C326 1.358 . S
C323 C327 1.332 . S
C323 C329 1.504 . S
C324 C325 1.373 . S
C324 C328 1.308 . S
C325 C324 1.373 . S
C325 C326 1.429 . S
C325 H352 0.932 . S
C326 C323 1.358 . S
C326 C325 1.429 . S
C326 H353 0.930 . S
C327 C323 1.332 . S
C327 C328 1.394 . S
C327 H354 0.932 . S
C328 C324 1.308 . S
C328 C327 1.394 . S
C328 H355 0.929 . S
C329 Tb320 2.764 . S
C329 C323 1.504 . S
C329 O341 1.239 . S
C329 O342 1.263 . S
O330 Tb320 2.325 . S
O330 C340 1.236 . S
O331 Tb321 2.322 . S
O331 C340 1.257 . S
O332 Tb321 2.349 . S
O332 C343 1.261 . S
O333 Tb320 2.303 . S
O333 C343 1.257 . S
O334 Tb321 2.415 . S
O334 C350 1.239 . S
O335 Tb321 2.399 . S
O335 C350 1.263 . S
O336 Tb321 2.325 . S
O336 C351 1.236 . S
O337 Tb320 2.322 . S
O337 C351 1.257 . S
O338 Tb320 2.349 . S
O338 C322 1.261 . S
O339 Tb321 2.303 . S
O339 C322 1.257 . S
C340 O330 1.236 . S
C340 O331 1.257 . S
O341 Tb320 2.415 . S
O341 C329 1.239 . S
O342 Tb320 2.399 . S
O342 C329 1.263 . S
C343 O332 1.261 . S
C343 O333 1.257 . S
C344 C347 1.358 . S
C344 C348 1.332 . S
C344 C350 1.504 . S
C345 C346 1.373 . S
C345 C349 1.308 . S
C346 C345 1.373 . S
C346 C347 1.429 . S
C346 H356 0.932 . S
C347 C344 1.358 . S
C347 C346 1.429 . S
C347 H357 0.930 . S
C348 C344 1.332 . S
C348 C349 1.394 . S
C348 H358 0.932 . S
C349 C345 1.308 . S
C349 C348 1.394 . S
C349 H359 0.929 . S
C350 Tb321 2.764 . S
C350 O334 1.239 . S
C350 O335 1.263 . S
C350 C344 1.504 . S
C351 O336 1.236 . S
C351 O337 1.257 . S
H352 C325 0.932 . S
H353 C326 0.930 . S
H354 C327 0.932 . S
H355 C328 0.929 . S
H356 C346 0.932 . S
H357 C347 0.930 . S
H358 C348 0.932 . S
H359 C349 0.929 . S
Tb360 C369 2.764 . S
Tb360 O370 2.325 . S
Tb360 O373 2.303 . S
Tb360 O377 2.322 . S
Tb360 O378 2.349 . S
Tb360 O381 2.415 . S
Tb360 O382 2.399 . S
Tb361 O371 2.322 . S
Tb361 O372 2.349 . S
Tb361 O374 2.415 . S
Tb361 O375 2.399 . S
Tb361 O376 2.325 . S
Tb361 O379 2.303 . S
Tb361 C390 2.764 . S
C362 O378 1.261 . S
C362 O379 1.257 . S
C363 C366 1.358 . S
C363 C367 1.332 . S
C363 C369 1.504 . S
C364 C365 1.373 . S
C364 C368 1.308 . S
C365 C364 1.373 . S
C365 C366 1.429 . S
C365 H392 0.932 . S
C366 C363 1.358 . S
C366 C365 1.429 . S
C366 H393 0.930 . S
C367 C363 1.332 . S
C367 C368 1.394 . S
C367 H394 0.932 . S
C368 C364 1.308 . S
C368 C367 1.394 . S
C368 H395 0.929 . S
C369 Tb360 2.764 . S
C369 C363 1.504 . S
C369 O381 1.239 . S
C369 O382 1.263 . S
O370 Tb360 2.325 . S
O370 C380 1.236 . S
O371 Tb361 2.322 . S
O371 C380 1.257 . S
O372 Tb361 2.349 . S
O372 C383 1.261 . S
O373 Tb360 2.303 . S
O373 C383 1.257 . S
O374 Tb361 2.415 . S
O374 C390 1.239 . S
O375 Tb361 2.399 . S
O375 C390 1.263 . S
O376 Tb361 2.325 . S
O376 C391 1.236 . S
O377 Tb360 2.322 . S
O377 C391 1.257 . S
O378 Tb360 2.349 . S
O378 C362 1.261 . S
O379 Tb361 2.303 . S
O379 C362 1.257 . S
C380 O370 1.236 . S
C380 O371 1.257 . S
O381 Tb360 2.415 . S
O381 C369 1.239 . S
O382 Tb360 2.399 . S
O382 C369 1.263 . S
C383 O372 1.261 . S
C383 O373 1.257 . S
C384 C387 1.358 . S
C384 C388 1.332 . S
C384 C390 1.504 . S
C385 C386 1.373 . S
C385 C389 1.308 . S
C386 C385 1.373 . S
C386 C387 1.429 . S
C386 H396 0.932 . S
C387 C384 1.358 . S
C387 C386 1.429 . S
C387 H397 0.930 . S
C388 C384 1.332 . S
C388 C389 1.394 . S
C388 H398 0.932 . S
C389 C385 1.308 . S
C389 C388 1.394 . S
C389 H399 0.929 . S
C390 Tb361 2.764 . S
C390 O374 1.239 . S
C390 O375 1.263 . S
C390 C384 1.504 . S
C391 O376 1.236 . S
C391 O377 1.257 . S
H392 C365 0.932 . S
H393 C366 0.930 . S
H394 C367 0.932 . S
H395 C368 0.929 . S
H396 C386 0.932 . S
H397 C387 0.930 . S
H398 C388 0.932 . S
H399 C389 0.929 . S
Tb400 C409 2.764 . S
Tb400 O410 2.325 . S
Tb400 O413 2.303 . S
Tb400 O417 2.322 . S
Tb400 O418 2.349 . S
Tb400 O421 2.415 . S
Tb400 O422 2.399 . S
Tb401 O411 2.322 . S
Tb401 O412 2.349 . S
Tb401 O414 2.415 1_455 S
Tb401 O415 2.399 1_455 S
Tb401 O416 2.325 . S
Tb401 O419 2.303 . S
Tb401 C430 2.764 1_455 S
C402 O418 1.261 . S
C402 O419 1.257 . S
C403 C406 1.358 . S
C403 C407 1.332 . S
C403 C409 1.504 . S
C404 C405 1.373 . S
C404 C408 1.308 . S
C405 C404 1.373 . S
C405 C406 1.429 . S
C405 H432 0.932 . S
C406 C403 1.358 . S
C406 C405 1.429 . S
C406 H433 0.930 . S
C407 C403 1.332 . S
C407 C408 1.394 . S
C407 H434 0.932 . S
C408 C404 1.308 . S
C408 C407 1.394 . S
C408 H435 0.929 . S
C409 Tb400 2.764 . S
C409 C403 1.504 . S
C409 O421 1.239 . S
C409 O422 1.263 . S
O410 Tb400 2.325 . S
O410 C420 1.236 . S
O411 Tb401 2.322 . S
O411 C420 1.257 . S
O412 Tb401 2.349 . S
O412 C423 1.261 . S
O413 Tb400 2.303 . S
O413 C423 1.257 . S
O414 Tb401 2.415 1_655 S
O414 C430 1.239 . S
O415 Tb401 2.399 1_655 S
O415 C430 1.263 . S
O416 Tb401 2.325 . S
O416 C431 1.236 . S
O417 Tb400 2.322 . S
O417 C431 1.257 . S
O418 Tb400 2.349 . S
O418 C402 1.261 . S
O419 Tb401 2.303 . S
O419 C402 1.257 . S
C420 O410 1.236 . S
C420 O411 1.257 . S
O421 Tb400 2.415 . S
O421 C409 1.239 . S
O422 Tb400 2.399 . S
O422 C409 1.263 . S
C423 O412 1.261 . S
C423 O413 1.257 . S
C424 C427 1.358 . S
C424 C428 1.332 . S
C424 C430 1.504 . S
C425 C426 1.373 . S
C425 C429 1.308 . S
C426 C425 1.373 . S
C426 C427 1.429 . S
C426 H436 0.932 . S
C427 C424 1.358 . S
C427 C426 1.429 . S
C427 H437 0.930 . S
C428 C424 1.332 . S
C428 C429 1.394 . S
C428 H438 0.932 . S
C429 C425 1.308 . S
C429 C428 1.394 . S
C429 H439 0.929 . S
C430 Tb401 2.764 1_655 S
C430 O414 1.239 . S
C430 O415 1.263 . S
C430 C424 1.504 . S
C431 O416 1.236 . S
C431 O417 1.257 . S
H432 C405 0.932 . S
H433 C406 0.930 . S
H434 C407 0.932 . S
H435 C408 0.929 . S
H436 C426 0.932 . S
H437 C427 0.930 . S
H438 C428 0.932 . S
H439 C429 0.929 . S
Tb440 C449 2.764 . S
Tb440 O450 2.325 . S
Tb440 O453 2.303 . S
Tb440 O457 2.322 . S
Tb440 O458 2.349 . S
Tb440 O461 2.415 . S
Tb440 O462 2.399 . S
Tb441 O451 2.322 . S
Tb441 O452 2.349 . S
Tb441 O454 2.415 1_545 S
Tb441 O455 2.399 1_545 S
Tb441 O456 2.325 . S
Tb441 O459 2.303 . S
Tb441 C470 2.764 1_545 S
C442 O458 1.261 . S
C442 O459 1.257 . S
C443 C446 1.358 . S
C443 C447 1.332 . S
C443 C449 1.504 . S
C444 C445 1.373 . S
C444 C448 1.308 . S
C445 C444 1.373 . S
C445 C446 1.429 . S
C445 H472 0.932 . S
C446 C443 1.358 . S
C446 C445 1.429 . S
C446 H473 0.930 . S
C447 C443 1.332 . S
C447 C448 1.394 . S
C447 H474 0.932 . S
C448 C444 1.308 . S
C448 C447 1.394 . S
C448 H475 0.929 . S
C449 Tb440 2.764 . S
C449 C443 1.504 . S
C449 O461 1.239 . S
C449 O462 1.263 . S
O450 Tb440 2.325 . S
O450 C460 1.236 . S
O451 Tb441 2.322 . S
O451 C460 1.257 . S
O452 Tb441 2.349 . S
O452 C463 1.261 . S
O453 Tb440 2.303 . S
O453 C463 1.257 . S
O454 Tb441 2.415 1_565 S
O454 C470 1.239 . S
O455 Tb441 2.399 1_565 S
O455 C470 1.263 . S
O456 Tb441 2.325 . S
O456 C471 1.236 . S
O457 Tb440 2.322 . S
O457 C471 1.257 . S
O458 Tb440 2.349 . S
O458 C442 1.261 . S
O459 Tb441 2.303 . S
O459 C442 1.257 . S
C460 O450 1.236 . S
C460 O451 1.257 . S
O461 Tb440 2.415 . S
O461 C449 1.239 . S
O462 Tb440 2.399 . S
O462 C449 1.263 . S
C463 O452 1.261 . S
C463 O453 1.257 . S
C464 C467 1.358 . S
C464 C468 1.332 . S
C464 C470 1.504 . S
C465 C466 1.373 . S
C465 C469 1.308 . S
C466 C465 1.373 . S
C466 C467 1.429 . S
C466 H476 0.932 . S
C467 C464 1.358 . S
C467 C466 1.429 . S
C467 H477 0.930 . S
C468 C464 1.332 . S
C468 C469 1.394 . S
C468 H478 0.932 . S
C469 C465 1.308 . S
C469 C468 1.394 . S
C469 H479 0.929 . S
C470 Tb441 2.764 1_565 S
C470 O454 1.239 . S
C470 O455 1.263 . S
C470 C464 1.504 . S
C471 O456 1.236 . S
C471 O457 1.257 . S
H472 C445 0.932 . S
H473 C446 0.930 . S
H474 C447 0.932 . S
H475 C448 0.929 . S
H476 C466 0.932 . S
H477 C467 0.930 . S
H478 C468 0.932 . S
H479 C469 0.929 . S
Tb480 C489 2.764 . S
Tb480 O490 2.325 . S
Tb480 O493 2.303 . S
Tb480 O497 2.322 . S
Tb480 O498 2.349 . S
Tb480 O501 2.415 . S
Tb480 O502 2.399 . S
Tb481 O491 2.322 . S
Tb481 O492 2.349 . S
Tb481 O494 2.415 1_655 S
Tb481 O495 2.399 1_655 S
Tb481 O496 2.325 . S
Tb481 O499 2.303 . S
Tb481 C510 2.764 1_655 S
C482 O498 1.261 . S
C482 O499 1.257 . S
C483 C486 1.358 . S
C483 C487 1.332 . S
C483 C489 1.504 . S
C484 C485 1.373 . S
C484 C488 1.308 . S
C485 C484 1.373 . S
C485 C486 1.429 . S
C485 H512 0.932 . S
C486 C483 1.358 . S
C486 C485 1.429 . S
C486 H513 0.930 . S
C487 C483 1.332 . S
C487 C488 1.394 . S
C487 H514 0.932 . S
C488 C484 1.308 . S
C488 C487 1.394 . S
C488 H515 0.929 . S
C489 Tb480 2.764 . S
C489 C483 1.504 . S
C489 O501 1.239 . S
C489 O502 1.263 . S
O490 Tb480 2.325 . S
O490 C500 1.236 . S
O491 Tb481 2.322 . S
O491 C500 1.257 . S
O492 Tb481 2.349 . S
O492 C503 1.261 . S
O493 Tb480 2.303 . S
O493 C503 1.257 . S
O494 Tb481 2.415 1_455 S
O494 C510 1.239 . S
O495 Tb481 2.399 1_455 S
O495 C510 1.263 . S
O496 Tb481 2.325 . S
O496 C511 1.236 . S
O497 Tb480 2.322 . S
O497 C511 1.257 . S
O498 Tb480 2.349 . S
O498 C482 1.261 . S
O499 Tb481 2.303 . S
O499 C482 1.257 . S
C500 O490 1.236 . S
C500 O491 1.257 . S
O501 Tb480 2.415 . S
O501 C489 1.239 . S
O502 Tb480 2.399 . S
O502 C489 1.263 . S
C503 O492 1.261 . S
C503 O493 1.257 . S
C504 C507 1.358 . S
C504 C508 1.332 . S
C504 C510 1.504 . S
C505 C506 1.373 . S
C505 C509 1.308 . S
C506 C505 1.373 . S
C506 C507 1.429 . S
C506 H516 0.932 . S
C507 C504 1.358 . S
C507 C506 1.429 . S
C507 H517 0.930 . S
C508 C504 1.332 . S
C508 C509 1.394 . S
C508 H518 0.932 . S
C509 C505 1.308 . S
C509 C508 1.394 . S
C509 H519 0.929 . S
C510 Tb481 2.764 1_455 S
C510 O494 1.239 . S
C510 O495 1.263 . S
C510 C504 1.504 . S
C511 O496 1.236 . S
C511 O497 1.257 . S
H512 C485 0.932 . S
H513 C486 0.930 . S
H514 C487 0.932 . S
H515 C488 0.929 . S
H516 C506 0.932 . S
H517 C507 0.930 . S
H518 C508 0.932 . S
H519 C509 0.929 . S
Tb520 C529 2.764 . S
Tb520 O530 2.325 . S
Tb520 O533 2.303 . S
Tb520 O537 2.322 . S
Tb520 O538 2.349 . S
Tb520 O541 2.415 . S
Tb520 O542 2.399 . S
Tb521 O531 2.322 . S
Tb521 O532 2.349 . S
Tb521 O534 2.415 1_565 S
Tb521 O535 2.399 1_565 S
Tb521 O536 2.325 . S
Tb521 O539 2.303 . S
Tb521 C550 2.764 1_565 S
C522 O538 1.261 . S
C522 O539 1.257 . S
C523 C526 1.358 . S
C523 C527 1.332 . S
C523 C529 1.504 . S
C524 C525 1.373 . S
C524 C528 1.308 . S
C525 C524 1.373 . S
C525 C526 1.429 . S
C525 H552 0.932 . S
C526 C523 1.358 . S
C526 C525 1.429 . S
C526 H553 0.930 . S
C527 C523 1.332 . S
C527 C528 1.394 . S
C527 H554 0.932 . S
C528 C524 1.308 . S
C528 C527 1.394 . S
C528 H555 0.929 . S
C529 Tb520 2.764 . S
C529 C523 1.504 . S
C529 O541 1.239 . S
C529 O542 1.263 . S
O530 Tb520 2.325 . S
O530 C540 1.236 . S
O531 Tb521 2.322 . S
O531 C540 1.257 . S
O532 Tb521 2.349 . S
O532 C543 1.261 . S
O533 Tb520 2.303 . S
O533 C543 1.257 . S
O534 Tb521 2.415 1_545 S
O534 C550 1.239 . S
O535 Tb521 2.399 1_545 S
O535 C550 1.263 . S
O536 Tb521 2.325 . S
O536 C551 1.236 . S
O537 Tb520 2.322 . S
O537 C551 1.257 . S
O538 Tb520 2.349 . S
O538 C522 1.261 . S
O539 Tb521 2.303 . S
O539 C522 1.257 . S
C540 O530 1.236 . S
C540 O531 1.257 . S
O541 Tb520 2.415 . S
O541 C529 1.239 . S
O542 Tb520 2.399 . S
O542 C529 1.263 . S
C543 O532 1.261 . S
C543 O533 1.257 . S
C544 C547 1.358 . S
C544 C548 1.332 . S
C544 C550 1.504 . S
C545 C546 1.373 . S
C545 C549 1.308 . S
C546 C545 1.373 . S
C546 C547 1.429 . S
C546 H556 0.932 . S
C547 C544 1.358 . S
C547 C546 1.429 . S
C547 H557 0.930 . S
C548 C544 1.332 . S
C548 C549 1.394 . S
C548 H558 0.932 . S
C549 C545 1.308 . S
C549 C548 1.394 . S
C549 H559 0.929 . S
C550 Tb521 2.764 1_545 S
C550 O534 1.239 . S
C550 O535 1.263 . S
C550 C544 1.504 . S
C551 O536 1.236 . S
C551 O537 1.257 . S
H552 C525 0.932 . S
H553 C526 0.930 . S
H554 C527 0.932 . S
H555 C528 0.929 . S
H556 C546 0.932 . S
H557 C547 0.930 . S
H558 C548 0.932 . S
H559 C549 0.929 . S
Tb560 C569 2.764 . S
Tb560 O570 2.325 . S
Tb560 O573 2.303 . S
Tb560 O577 2.322 . S
Tb560 O578 2.349 . S
Tb560 O581 2.415 . S
Tb560 O582 2.399 . S
Tb561 O571 2.322 . S
Tb561 O572 2.349 . S
Tb561 O574 2.415 . S
Tb561 O575 2.399 . S
Tb561 O576 2.325 . S
Tb561 O579 2.303 . S
Tb561 C590 2.764 . S
C562 O578 1.261 . S
C562 O579 1.257 . S
C563 C566 1.358 . S
C563 C567 1.332 . S
C563 C569 1.504 . S
C564 C565 1.373 . S
C564 C568 1.308 . S
C565 C564 1.373 . S
C565 C566 1.429 . S
C565 H592 0.932 . S
C566 C563 1.358 . S
C566 C565 1.429 . S
C566 H593 0.930 . S
C567 C563 1.332 . S
C567 C568 1.394 . S
C567 H594 0.932 . S
C568 C564 1.308 . S
C568 C567 1.394 . S
C568 H595 0.929 . S
C569 Tb560 2.764 . S
C569 C563 1.504 . S
C569 O581 1.239 . S
C569 O582 1.263 . S
O570 Tb560 2.325 . S
O570 C580 1.236 . S
O571 Tb561 2.322 . S
O571 C580 1.257 . S
O572 Tb561 2.349 . S
O572 C583 1.261 . S
O573 Tb560 2.303 . S
O573 C583 1.257 . S
O574 Tb561 2.415 . S
O574 C590 1.239 . S
O575 Tb561 2.399 . S
O575 C590 1.263 . S
O576 Tb561 2.325 . S
O576 C591 1.236 . S
O577 Tb560 2.322 . S
O577 C591 1.257 . S
O578 Tb560 2.349 . S
O578 C562 1.261 . S
O579 Tb561 2.303 . S
O579 C562 1.257 . S
C580 O570 1.236 . S
C580 O571 1.257 . S
O581 Tb560 2.415 . S
O581 C569 1.239 . S
O582 Tb560 2.399 . S
O582 C569 1.263 . S
C583 O572 1.261 . S
C583 O573 1.257 . S
C584 C587 1.358 . S
C584 C588 1.332 . S
C584 C590 1.504 . S
C585 C586 1.373 . S
C585 C589 1.308 . S
C586 C585 1.373 . S
C586 C587 1.429 . S
C586 H596 0.932 . S
C587 C584 1.358 . S
C587 C586 1.429 . S
C587 H597 0.930 . S
C588 C584 1.332 . S
C588 C589 1.394 . S
C588 H598 0.932 . S
C589 C585 1.308 . S
C589 C588 1.394 . S
C589 H599 0.929 . S
C590 Tb561 2.764 . S
C590 O574 1.239 . S
C590 O575 1.263 . S
C590 C584 1.504 . S
C591 O576 1.236 . S
C591 O577 1.257 . S
H592 C565 0.932 . S
H593 C566 0.930 . S
H594 C567 0.932 . S
H595 C568 0.929 . S
H596 C586 0.932 . S
H597 C587 0.930 . S
H598 C588 0.932 . S
H599 C589 0.929 . S
Tb600 C609 2.764 . S
Tb600 O610 2.325 . S
Tb600 O613 2.303 . S
Tb600 O617 2.322 . S
Tb600 O618 2.349 . S
Tb600 O621 2.415 . S
Tb600 O622 2.399 . S
Tb601 O611 2.322 . S
Tb601 O612 2.349 . S
Tb601 O614 2.415 . S
Tb601 O615 2.399 . S
Tb601 O616 2.325 . S
Tb601 O619 2.303 . S
Tb601 C630 2.764 . S
C602 O618 1.261 . S
C602 O619 1.257 . S
C603 C606 1.358 . S
C603 C607 1.332 . S
C603 C609 1.504 . S
C604 C605 1.373 . S
C604 C608 1.308 . S
C605 C604 1.373 . S
C605 C606 1.429 . S
C605 H632 0.932 . S
C606 C603 1.358 . S
C606 C605 1.429 . S
C606 H633 0.930 . S
C607 C603 1.332 . S
C607 C608 1.394 . S
C607 H634 0.932 . S
C608 C604 1.308 . S
C608 C607 1.394 . S
C608 H635 0.929 . S
C609 Tb600 2.764 . S
C609 C603 1.504 . S
C609 O621 1.239 . S
C609 O622 1.263 . S
O610 Tb600 2.325 . S
O610 C620 1.236 . S
O611 Tb601 2.322 . S
O611 C620 1.257 . S
O612 Tb601 2.349 . S
O612 C623 1.261 . S
O613 Tb600 2.303 . S
O613 C623 1.257 . S
O614 Tb601 2.415 . S
O614 C630 1.239 . S
O615 Tb601 2.399 . S
O615 C630 1.263 . S
O616 Tb601 2.325 . S
O616 C631 1.236 . S
O617 Tb600 2.322 . S
O617 C631 1.257 . S
O618 Tb600 2.349 . S
O618 C602 1.261 . S
O619 Tb601 2.303 . S
O619 C602 1.257 . S
C620 O610 1.236 . S
C620 O611 1.257 . S
O621 Tb600 2.415 . S
O621 C609 1.239 . S
O622 Tb600 2.399 . S
O622 C609 1.263 . S
C623 O612 1.261 . S
C623 O613 1.257 . S
C624 C627 1.358 . S
C624 C628 1.332 . S
C624 C630 1.504 . S
C625 C626 1.373 . S
C625 C629 1.308 . S
C626 C625 1.373 . S
C626 C627 1.429 . S
C626 H636 0.932 . S
C627 C624 1.358 . S
C627 C626 1.429 . S
C627 H637 0.930 . S
C628 C624 1.332 . S
C628 C629 1.394 . S
C628 H638 0.932 . S
C629 C625 1.308 . S
C629 C628 1.394 . S
C629 H639 0.929 . S
C630 Tb601 2.764 . S
C630 O614 1.239 . S
C630 O615 1.263 . S
C630 C624 1.504 . S
C631 O616 1.236 . S
C631 O617 1.257 . S
H632 C605 0.932 . S
H633 C606 0.930 . S
H634 C607 0.932 . S
H635 C608 0.929 . S
H636 C626 0.932 . S
H637 C627 0.930 . S
H638 C628 0.932 . S
H639 C629 0.929 . S
H640 C648 0.929 . S
H641 C650 0.930 . S
H642 C652 0.930 . S
H643 C655 0.929 . S
H644 C658 0.930 . S
H645 C660 0.960 . S
H646 C660 0.960 . S
H647 C660 0.960 . S
C648 H640 0.929 . S
C648 C649 1.377 . S
C648 C650 1.384 . S
C649 C648 1.377 . S
C649 C655 1.390 . S
C650 H641 0.930 . S
C650 C648 1.384 . S
C650 C651 1.372 . S
C651 C650 1.372 . S
C651 C652 1.400 . S
C651 C656 1.490 . S
C652 H642 0.930 . S
C652 C651 1.400 . S
C652 C655 1.386 . S
H653 C669 0.930 . S
H654 C670 0.931 . S
C655 H643 0.929 . S
C655 C649 1.390 . S
C655 C652 1.386 . S
C656 C651 1.490 . S
C656 C658 1.395 . S
C656 C659 1.403 . S
H657 C663 0.930 . S
C658 H644 0.930 . S
C658 C656 1.395 . S
C658 C661 1.403 . S
C659 C656 1.403 . S
C659 C660 1.524 . S
C659 C663 1.400 . S
C660 H645 0.960 . S
C660 H646 0.960 . S
C660 H647 0.960 . S
C660 C659 1.524 . S
C661 C658 1.403 . S
C661 C662 1.392 . S
C661 C665 1.495 . S
C662 C661 1.392 . S
C662 C663 1.385 . S
C662 C664 1.478 . S
C663 H657 0.930 . S
C663 C659 1.400 . S
C663 C662 1.385 . S
C664 C662 1.478 . S
C664 C666 1.381 . S
C664 C670 1.383 . S
C665 C661 1.495 . S
C665 H671 0.959 . S
C665 H672 0.961 . S
C665 H673 0.960 . S
C666 C664 1.381 . S
C666 C667 1.394 . S
C666 H674 0.930 . S
C667 C666 1.394 . S
C667 C668 1.383 . S
C667 H675 0.929 . S
C668 C667 1.383 . S
C668 C669 1.377 . S
C669 H653 0.930 . S
C669 C668 1.377 . S
C669 C670 1.379 . S
C670 H654 0.931 . S
C670 C664 1.383 . S
C670 C669 1.379 . S
H671 C665 0.959 . S
H672 C665 0.961 . S
H673 C665 0.960 . S
H674 C666 0.930 . S
H675 C667 0.929 . S
H676 C684 0.929 . S
H677 C686 0.930 . S
H678 C688 0.930 . S
H679 C691 0.929 . S
H680 C694 0.930 . S
H681 C696 0.960 . S
H682 C696 0.960 . S
H683 C696 0.960 . S
C684 H676 0.929 . S
C684 C685 1.377 . S
C684 C686 1.384 . S
C685 C684 1.377 . S
C685 C691 1.390 . S
C686 H677 0.930 . S
C686 C684 1.384 . S
C686 C687 1.372 . S
C687 C686 1.372 . S
C687 C688 1.400 . S
C687 C692 1.490 . S
C688 H678 0.930 . S
C688 C687 1.400 . S
C688 C691 1.386 . S
H689 C705 0.930 . S
H690 C706 0.931 . S
C691 H679 0.929 . S
C691 C685 1.390 . S
C691 C688 1.386 . S
C692 C687 1.490 . S
C692 C694 1.395 . S
C692 C695 1.403 . S
H693 C699 0.930 . S
C694 H680 0.930 . S
C694 C692 1.395 . S
C694 C697 1.403 . S
C695 C692 1.403 . S
C695 C696 1.524 . S
C695 C699 1.400 . S
C696 H681 0.960 . S
C696 H682 0.960 . S
C696 H683 0.960 . S
C696 C695 1.524 . S
C697 C694 1.403 . S
C697 C698 1.392 . S
C697 C701 1.495 . S
C698 C697 1.392 . S
C698 C699 1.385 . S
C698 C700 1.478 . S
C699 H693 0.930 . S
C699 C695 1.400 . S
C699 C698 1.385 . S
C700 C698 1.478 . S
C700 C702 1.381 . S
C700 C706 1.383 . S
C701 C697 1.495 . S
C701 H707 0.959 . S
C701 H708 0.961 . S
C701 H709 0.960 . S
C702 C700 1.381 . S
C702 C703 1.394 . S
C702 H710 0.930 . S
C703 C702 1.394 . S
C703 C704 1.383 . S
C703 H711 0.929 . S
C704 C703 1.383 . S
C704 C705 1.377 . S
C705 H689 0.930 . S
C705 C704 1.377 . S
C705 C706 1.379 . S
C706 H690 0.931 . S
C706 C700 1.383 . S
C706 C705 1.379 . S
H707 C701 0.959 . S
H708 C701 0.961 . S
H709 C701 0.960 . S
H710 C702 0.930 . S
H711 C703 0.929 . S
H712 C720 0.929 . S
H713 C722 0.930 . S
H714 C724 0.930 . S
H715 C727 0.929 . S
H716 C730 0.930 . S
H717 C732 0.960 . S
H718 C732 0.960 . S
H719 C732 0.960 . S
C720 H712 0.929 . S
C720 C721 1.377 . S
C720 C722 1.384 . S
C721 C720 1.377 . S
C721 C727 1.390 . S
C722 H713 0.930 . S
C722 C720 1.384 . S
C722 C723 1.372 . S
C723 C722 1.372 . S
C723 C724 1.400 . S
C723 C728 1.490 . S
C724 H714 0.930 . S
C724 C723 1.400 . S
C724 C727 1.386 . S
H725 C741 0.930 . S
H726 C742 0.931 . S
C727 H715 0.929 . S
C727 C721 1.390 . S
C727 C724 1.386 . S
C728 C723 1.490 . S
C728 C730 1.395 . S
C728 C731 1.403 . S
H729 C735 0.930 . S
C730 H716 0.930 . S
C730 C728 1.395 . S
C730 C733 1.403 . S
C731 C728 1.403 . S
C731 C732 1.524 . S
C731 C735 1.400 . S
C732 H717 0.960 . S
C732 H718 0.960 . S
C732 H719 0.960 . S
C732 C731 1.524 . S
C733 C730 1.403 . S
C733 C734 1.392 . S
C733 C737 1.495 . S
C734 C733 1.392 . S
C734 C735 1.385 . S
C734 C736 1.478 . S
C735 H729 0.930 . S
C735 C731 1.400 . S
C735 C734 1.385 . S
C736 C734 1.478 . S
C736 C738 1.381 . S
C736 C742 1.383 . S
C737 C733 1.495 . S
C737 H743 0.959 . S
C737 H744 0.961 . S
C737 H745 0.960 . S
C738 C736 1.381 . S
C738 C739 1.394 . S
C738 H746 0.930 . S
C739 C738 1.394 . S
C739 C740 1.383 . S
C739 H747 0.929 . S
C740 C739 1.383 . S
C740 C741 1.377 . S
C741 H725 0.930 . S
C741 C740 1.377 . S
C741 C742 1.379 . S
C742 H726 0.931 . S
C742 C736 1.383 . S
C742 C741 1.379 . S
H743 C737 0.959 . S
H744 C737 0.961 . S
H745 C737 0.960 . S
H746 C738 0.930 . S
H747 C739 0.929 . S
H748 C756 0.929 . S
H749 C758 0.930 . S
H750 C760 0.930 . S
H751 C763 0.929 . S
H752 C766 0.930 . S
H753 C768 0.960 . S
H754 C768 0.960 . S
H755 C768 0.960 . S
C756 H748 0.929 . S
C756 C757 1.377 . S
C756 C758 1.384 . S
C757 C756 1.377 . S
C757 C763 1.390 . S
C758 H749 0.930 . S
C758 C756 1.384 . S
C758 C759 1.372 . S
C759 C758 1.372 . S
C759 C760 1.400 . S
C759 C764 1.490 . S
C760 H750 0.930 . S
C760 C759 1.400 . S
C760 C763 1.386 . S
H761 C777 0.930 . S
H762 C778 0.931 . S
C763 H751 0.929 . S
C763 C757 1.390 . S
C763 C760 1.386 . S
C764 C759 1.490 . S
C764 C766 1.395 . S
C764 C767 1.403 . S
H765 C771 0.930 . S
C766 H752 0.930 . S
C766 C764 1.395 . S
C766 C769 1.403 . S
C767 C764 1.403 . S
C767 C768 1.524 . S
C767 C771 1.400 . S
C768 H753 0.960 . S
C768 H754 0.960 . S
C768 H755 0.960 . S
C768 C767 1.524 . S
C769 C766 1.403 . S
C769 C770 1.392 . S
C769 C773 1.495 . S
C770 C769 1.392 . S
C770 C771 1.385 . S
C770 C772 1.478 . S
C771 H765 0.930 . S
C771 C767 1.400 . S
C771 C770 1.385 . S
C772 C770 1.478 . S
C772 C774 1.381 . S
C772 C778 1.383 . S
C773 C769 1.495 . S
C773 H779 0.959 . S
C773 H780 0.961 . S
C773 H781 0.960 . S
C774 C772 1.381 . S
C774 C775 1.394 . S
C774 H782 0.930 . S
C775 C774 1.394 . S
C775 C776 1.383 . S
C775 H783 0.929 . S
C776 C775 1.383 . S
C776 C777 1.377 . S
C777 H761 0.930 . S
C777 C776 1.377 . S
C777 C778 1.379 . S
C778 H762 0.931 . S
C778 C772 1.383 . S
C778 C777 1.379 . S
H779 C773 0.959 . S
H780 C773 0.961 . S
H781 C773 0.960 . S
H782 C774 0.930 . S
H783 C775 0.929 . S
H784 C792 0.929 . S
H785 C794 0.930 . S
H786 C796 0.930 . S
H787 C799 0.929 . S
H788 C802 0.930 . S
H789 C804 0.960 . S
H790 C804 0.960 . S
H791 C804 0.960 . S
C792 H784 0.929 . S
C792 C793 1.377 . S
C792 C794 1.384 . S
C793 C792 1.377 . S
C793 C799 1.390 . S
C794 H785 0.930 . S
C794 C792 1.384 . S
C794 C795 1.372 . S
C795 C794 1.372 . S
C795 C796 1.400 . S
C795 C800 1.490 . S
C796 H786 0.930 . S
C796 C795 1.400 . S
C796 C799 1.386 . S
H797 C813 0.930 . S
H798 C814 0.931 . S
C799 H787 0.929 . S
C799 C793 1.390 . S
C799 C796 1.386 . S
C800 C795 1.490 . S
C800 C802 1.395 . S
C800 C803 1.403 . S
H801 C807 0.930 . S
C802 H788 0.930 . S
C802 C800 1.395 . S
C802 C805 1.403 . S
C803 C800 1.403 . S
C803 C804 1.524 . S
C803 C807 1.400 . S
C804 H789 0.960 . S
C804 H790 0.960 . S
C804 H791 0.960 . S
C804 C803 1.524 . S
C805 C802 1.403 . S
C805 C806 1.392 . S
C805 C809 1.495 . S
C806 C805 1.392 . S
C806 C807 1.385 . S
C806 C808 1.478 . S
C807 H801 0.930 . S
C807 C803 1.400 . S
C807 C806 1.385 . S
C808 C806 1.478 . S
C808 C810 1.381 . S
C808 C814 1.383 . S
C809 C805 1.495 . S
C809 H815 0.959 . S
C809 H816 0.961 . S
C809 H817 0.960 . S
C810 C808 1.381 . S
C810 C811 1.394 . S
C810 H818 0.930 . S
C811 C810 1.394 . S
C811 C812 1.383 . S
C811 H819 0.929 . S
C812 C811 1.383 . S
C812 C813 1.377 . S
C813 H797 0.930 . S
C813 C812 1.377 . S
C813 C814 1.379 . S
C814 H798 0.931 . S
C814 C808 1.383 . S
C814 C813 1.379 . S
H815 C809 0.959 . S
H816 C809 0.961 . S
H817 C809 0.960 . S
H818 C810 0.930 . S
H819 C811 0.929 . S
H820 C828 0.929 . S
H821 C830 0.930 . S
H822 C832 0.930 . S
H823 C835 0.929 . S
H824 C838 0.930 . S
H825 C840 0.960 . S
H826 C840 0.960 . S
H827 C840 0.960 . S
C828 H820 0.929 . S
C828 C829 1.377 . S
C828 C830 1.384 . S
C829 C828 1.377 . S
C829 C835 1.390 . S
C830 H821 0.930 . S
C830 C828 1.384 . S
C830 C831 1.372 . S
C831 C830 1.372 . S
C831 C832 1.400 . S
C831 C836 1.490 . S
C832 H822 0.930 . S
C832 C831 1.400 . S
C832 C835 1.386 . S
H833 C849 0.930 . S
H834 C850 0.931 . S
C835 H823 0.929 . S
C835 C829 1.390 . S
C835 C832 1.386 . S
C836 C831 1.490 . S
C836 C838 1.395 . S
C836 C839 1.403 . S
H837 C843 0.930 . S
C838 H824 0.930 . S
C838 C836 1.395 . S
C838 C841 1.403 . S
C839 C836 1.403 . S
C839 C840 1.524 . S
C839 C843 1.400 . S
C840 H825 0.960 . S
C840 H826 0.960 . S
C840 H827 0.960 . S
C840 C839 1.524 . S
C841 C838 1.403 . S
C841 C842 1.392 . S
C841 C845 1.495 . S
C842 C841 1.392 . S
C842 C843 1.385 . S
C842 C844 1.478 . S
C843 H837 0.930 . S
C843 C839 1.400 . S
C843 C842 1.385 . S
C844 C842 1.478 . S
C844 C846 1.381 . S
C844 C850 1.383 . S
C845 C841 1.495 . S
C845 H851 0.959 . S
C845 H852 0.961 . S
C845 H853 0.960 . S
C846 C844 1.381 . S
C846 C847 1.394 . S
C846 H854 0.930 . S
C847 C846 1.394 . S
C847 C848 1.383 . S
C847 H855 0.929 . S
C848 C847 1.383 . S
C848 C849 1.377 . S
C849 H833 0.930 . S
C849 C848 1.377 . S
C849 C850 1.379 . S
C850 H834 0.931 . S
C850 C844 1.383 . S
C850 C849 1.379 . S
H851 C845 0.959 . S
H852 C845 0.961 . S
H853 C845 0.960 . S
H854 C846 0.930 . S
H855 C847 0.929 . S
H856 C864 0.929 . S
H857 C866 0.930 . S
H858 C868 0.930 . S
H859 C871 0.929 . S
H860 C874 0.930 . S
H861 C876 0.960 . S
H862 C876 0.960 . S
H863 C876 0.960 . S
C864 H856 0.929 . S
C864 C865 1.377 . S
C864 C866 1.384 . S
C865 C864 1.377 . S
C865 C871 1.390 . S
C866 H857 0.930 . S
C866 C864 1.384 . S
C866 C867 1.372 . S
C867 C866 1.372 . S
C867 C868 1.400 . S
C867 C872 1.490 . S
C868 H858 0.930 . S
C868 C867 1.400 . S
C868 C871 1.386 . S
H869 C885 0.930 . S
H870 C886 0.931 . S
C871 H859 0.929 . S
C871 C865 1.390 . S
C871 C868 1.386 . S
C872 C867 1.490 . S
C872 C874 1.395 . S
C872 C875 1.403 . S
H873 C879 0.930 . S
C874 H860 0.930 . S
C874 C872 1.395 . S
C874 C877 1.403 . S
C875 C872 1.403 . S
C875 C876 1.524 . S
C875 C879 1.400 . S
C876 H861 0.960 . S
C876 H862 0.960 . S
C876 H863 0.960 . S
C876 C875 1.524 . S
C877 C874 1.403 . S
C877 C878 1.392 . S
C877 C881 1.495 . S
C878 C877 1.392 . S
C878 C879 1.385 . S
C878 C880 1.478 . S
C879 H873 0.930 . S
C879 C875 1.400 . S
C879 C878 1.385 . S
C880 C878 1.478 . S
C880 C882 1.381 . S
C880 C886 1.383 . S
C881 C877 1.495 . S
C881 H887 0.959 . S
C881 H888 0.961 . S
C881 H889 0.960 . S
C882 C880 1.381 . S
C882 C883 1.394 . S
C882 H890 0.930 . S
C883 C882 1.394 . S
C883 C884 1.383 . S
C883 H891 0.929 . S
C884 C883 1.383 . S
C884 C885 1.377 . S
C885 H869 0.930 . S
C885 C884 1.377 . S
C885 C886 1.379 . S
C886 H870 0.931 . S
C886 C880 1.383 . S
C886 C885 1.379 . S
H887 C881 0.959 . S
H888 C881 0.961 . S
H889 C881 0.960 . S
H890 C882 0.930 . S
H891 C883 0.929 . S
H892 C900 0.929 . S
H893 C902 0.930 . S
H894 C904 0.930 . S
H895 C907 0.929 . S
H896 C910 0.930 . S
H897 C912 0.960 . S
H898 C912 0.960 . S
H899 C912 0.960 . S
C900 H892 0.929 . S
C900 C901 1.377 . S
C900 C902 1.384 . S
C901 C900 1.377 . S
C901 C907 1.390 . S
C902 H893 0.930 . S
C902 C900 1.384 . S
C902 C903 1.372 . S
C903 C902 1.372 . S
C903 C904 1.400 . S
C903 C908 1.490 . S
C904 H894 0.930 . S
C904 C903 1.400 . S
C904 C907 1.386 . S
H905 C921 0.930 . S
H906 C922 0.931 . S
C907 H895 0.929 . S
C907 C901 1.390 . S
C907 C904 1.386 . S
C908 C903 1.490 . S
C908 C910 1.395 . S
C908 C911 1.403 . S
H909 C915 0.930 . S
C910 H896 0.930 . S
C910 C908 1.395 . S
C910 C913 1.403 . S
C911 C908 1.403 . S
C911 C912 1.524 . S
C911 C915 1.400 . S
C912 H897 0.960 . S
C912 H898 0.960 . S
C912 H899 0.960 . S
C912 C911 1.524 . S
C913 C910 1.403 . S
C913 C914 1.392 . S
C913 C917 1.495 . S
C914 C913 1.392 . S
C914 C915 1.385 . S
C914 C916 1.478 . S
C915 H909 0.930 . S
C915 C911 1.400 . S
C915 C914 1.385 . S
C916 C914 1.478 . S
C916 C918 1.381 . S
C916 C922 1.383 . S
C917 C913 1.495 . S
C917 H923 0.959 . S
C917 H924 0.961 . S
C917 H925 0.960 . S
C918 C916 1.381 . S
C918 C919 1.394 . S
C918 H926 0.930 . S
C919 C918 1.394 . S
C919 C920 1.383 . S
C919 H927 0.929 . S
C920 C919 1.383 . S
C920 C921 1.377 . S
C921 H905 0.930 . S
C921 C920 1.377 . S
C921 C922 1.379 . S
C922 H906 0.931 . S
C922 C916 1.383 . S
C922 C921 1.379 . S
H923 C917 0.959 . S
H924 C917 0.961 . S
H925 C917 0.960 . S
H926 C918 0.930 . S
H927 C919 0.929 . S
H928 C936 0.929 . S
H929 C938 0.930 . S
H930 C940 0.930 . S
H931 C943 0.929 . S
H932 C946 0.930 . S
H933 C948 0.960 . S
H934 C948 0.960 . S
H935 C948 0.960 . S
C936 H928 0.929 . S
C936 C937 1.377 . S
C936 C938 1.384 . S
C937 C936 1.377 . S
C937 C943 1.390 . S
C938 H929 0.930 . S
C938 C936 1.384 . S
C938 C939 1.372 . S
C939 C938 1.372 . S
C939 C940 1.400 . S
C939 C944 1.490 . S
C940 H930 0.930 . S
C940 C939 1.400 . S
C940 C943 1.386 . S
H941 C957 0.930 . S
H942 C958 0.931 . S
C943 H931 0.929 . S
C943 C937 1.390 . S
C943 C940 1.386 . S
C944 C939 1.490 . S
C944 C946 1.395 . S
C944 C947 1.403 . S
H945 C951 0.930 . S
C946 H932 0.930 . S
C946 C944 1.395 . S
C946 C949 1.403 . S
C947 C944 1.403 . S
C947 C948 1.524 . S
C947 C951 1.400 . S
C948 H933 0.960 . S
C948 H934 0.960 . S
C948 H935 0.960 . S
C948 C947 1.524 . S
C949 C946 1.403 . S
C949 C950 1.392 . S
C949 C953 1.495 . S
C950 C949 1.392 . S
C950 C951 1.385 . S
C950 C952 1.478 . S
C951 H945 0.930 . S
C951 C947 1.400 . S
C951 C950 1.385 . S
C952 C950 1.478 . S
C952 C954 1.381 . S
C952 C958 1.383 . S
C953 C949 1.495 . S
C953 H959 0.959 . S
C953 H960 0.961 . S
C953 H961 0.960 . S
C954 C952 1.381 . S
C954 C955 1.394 . S
C954 H962 0.930 . S
C955 C954 1.394 . S
C955 C956 1.383 . S
C955 H963 0.929 . S
C956 C955 1.383 . S
C956 C957 1.377 . S
C957 H941 0.930 . S
C957 C956 1.377 . S
C957 C958 1.379 . S
C958 H942 0.931 . S
C958 C952 1.383 . S
C958 C957 1.379 . S
H959 C953 0.959 . S
H960 C953 0.961 . S
H961 C953 0.960 . S
H962 C954 0.930 . S
H963 C955 0.929 . S
H964 C972 0.929 . S
H965 C974 0.930 . S
H966 C976 0.930 . S
H967 C979 0.929 . S
H968 C982 0.930 . S
H969 C984 0.960 . S
H970 C984 0.960 . S
H971 C984 0.960 . S
C972 H964 0.929 . S
C972 C973 1.377 . S
C972 C974 1.384 . S
C973 C972 1.377 . S
C973 C979 1.390 . S
C974 H965 0.930 . S
C974 C972 1.384 . S
C974 C975 1.372 . S
C975 C974 1.372 . S
C975 C976 1.400 . S
C975 C980 1.490 . S
C976 H966 0.930 . S
C976 C975 1.400 . S
C976 C979 1.386 . S
H977 C993 0.930 . S
H978 C994 0.931 . S
C979 H967 0.929 . S
C979 C973 1.390 . S
C979 C976 1.386 . S
C980 C975 1.490 . S
C980 C982 1.395 . S
C980 C983 1.403 . S
H981 C987 0.930 . S
C982 H968 0.930 . S
C982 C980 1.395 . S
C982 C985 1.403 . S
C983 C980 1.403 . S
C983 C984 1.524 . S
C983 C987 1.400 . S
C984 H969 0.960 . S
C984 H970 0.960 . S
C984 H971 0.960 . S
C984 C983 1.524 . S
C985 C982 1.403 . S
C985 C986 1.392 . S
C985 C989 1.495 . S
C986 C985 1.392 . S
C986 C987 1.385 . S
C986 C988 1.478 . S
C987 H981 0.930 . S
C987 C983 1.400 . S
C987 C986 1.385 . S
C988 C986 1.478 . S
C988 C990 1.381 . S
C988 C994 1.383 . S
C989 C985 1.495 . S
C989 H995 0.959 . S
C989 H996 0.961 . S
C989 H997 0.960 . S
C990 C988 1.381 . S
C990 C991 1.394 . S
C990 H998 0.930 . S
C991 C990 1.394 . S
C991 C992 1.383 . S
C991 H999 0.929 . S
C992 C991 1.383 . S
C992 C993 1.377 . S
C993 H977 0.930 . S
C993 C992 1.377 . S
C993 C994 1.379 . S
C994 H978 0.931 . S
C994 C988 1.383 . S
C994 C993 1.379 . S
H995 C989 0.959 . S
H996 C989 0.961 . S
H997 C989 0.960 . S
H998 C990 0.930 . S
H999 C991 0.929 . S
H1000 C1008 0.929 . S
H1001 C1010 0.930 . S
H1002 C1012 0.930 . S
H1003 C1015 0.929 . S
H1004 C1018 0.930 . S
H1005 C1020 0.960 . S
H1006 C1020 0.960 . S
H1007 C1020 0.960 . S
C1008 H1000 0.929 . S
C1008 C1009 1.377 . S
C1008 C1010 1.384 . S
C1009 C1008 1.377 . S
C1009 C1015 1.390 . S
C1010 H1001 0.930 . S
C1010 C1008 1.384 . S
C1010 C1011 1.372 . S
C1011 C1010 1.372 . S
C1011 C1012 1.400 . S
C1011 C1016 1.490 . S
C1012 H1002 0.930 . S
C1012 C1011 1.400 . S
C1012 C1015 1.386 . S
H1013 C1029 0.930 . S
H1014 C1030 0.931 . S
C1015 H1003 0.929 . S
C1015 C1009 1.390 . S
C1015 C1012 1.386 . S
C1016 C1011 1.490 . S
C1016 C1018 1.395 . S
C1016 C1019 1.403 . S
H1017 C1023 0.930 . S
C1018 H1004 0.930 . S
C1018 C1016 1.395 . S
C1018 C1021 1.403 . S
C1019 C1016 1.403 . S
C1019 C1020 1.524 . S
C1019 C1023 1.400 . S
C1020 H1005 0.960 . S
C1020 H1006 0.960 . S
C1020 H1007 0.960 . S
C1020 C1019 1.524 . S
C1021 C1018 1.403 . S
C1021 C1022 1.392 . S
C1021 C1025 1.495 . S
C1022 C1021 1.392 . S
C1022 C1023 1.385 . S
C1022 C1024 1.478 . S
C1023 H1017 0.930 . S
C1023 C1019 1.400 . S
C1023 C1022 1.385 . S
C1024 C1022 1.478 . S
C1024 C1026 1.381 . S
C1024 C1030 1.383 . S
C1025 C1021 1.495 . S
C1025 H1031 0.959 . S
C1025 H1032 0.961 . S
C1025 H1033 0.960 . S
C1026 C1024 1.381 . S
C1026 C1027 1.394 . S
C1026 H1034 0.930 . S
C1027 C1026 1.394 . S
C1027 C1028 1.383 . S
C1027 H1035 0.929 . S
C1028 C1027 1.383 . S
C1028 C1029 1.377 . S
C1029 H1013 0.930 . S
C1029 C1028 1.377 . S
C1029 C1030 1.379 . S
C1030 H1014 0.931 . S
C1030 C1024 1.383 . S
C1030 C1029 1.379 . S
H1031 C1025 0.959 . S
H1032 C1025 0.961 . S
H1033 C1025 0.960 . S
H1034 C1026 0.930 . S
H1035 C1027 0.929 . S
H1036 C1044 0.929 . S
H1037 C1046 0.930 . S
H1038 C1048 0.930 . S
H1039 C1051 0.929 . S
H1040 C1054 0.930 . S
H1041 C1056 0.960 . S
H1042 C1056 0.960 . S
H1043 C1056 0.960 . S
C1044 H1036 0.929 . S
C1044 C1045 1.377 . S
C1044 C1046 1.384 . S
C1045 C1044 1.377 . S
C1045 C1051 1.390 . S
C1046 H1037 0.930 . S
C1046 C1044 1.384 . S
C1046 C1047 1.372 . S
C1047 C1046 1.372 . S
C1047 C1048 1.400 . S
C1047 C1052 1.490 . S
C1048 H1038 0.930 . S
C1048 C1047 1.400 . S
C1048 C1051 1.386 . S
H1049 C1065 0.930 . S
H1050 C1066 0.931 . S
C1051 H1039 0.929 . S
C1051 C1045 1.390 . S
C1051 C1048 1.386 . S
C1052 C1047 1.490 . S
C1052 C1054 1.395 . S
C1052 C1055 1.403 . S
H1053 C1059 0.930 . S
C1054 H1040 0.930 . S
C1054 C1052 1.395 . S
C1054 C1057 1.403 . S
C1055 C1052 1.403 . S
C1055 C1056 1.524 . S
C1055 C1059 1.400 . S
C1056 H1041 0.960 . S
C1056 H1042 0.960 . S
C1056 H1043 0.960 . S
C1056 C1055 1.524 . S
C1057 C1054 1.403 . S
C1057 C1058 1.392 . S
C1057 C1061 1.495 . S
C1058 C1057 1.392 . S
C1058 C1059 1.385 . S
C1058 C1060 1.478 . S
C1059 H1053 0.930 . S
C1059 C1055 1.400 . S
C1059 C1058 1.385 . S
C1060 C1058 1.478 . S
C1060 C1062 1.381 . S
C1060 C1066 1.383 . S
C1061 C1057 1.495 . S
C1061 H1067 0.959 . S
C1061 H1068 0.961 . S
C1061 H1069 0.960 . S
C1062 C1060 1.381 . S
C1062 C1063 1.394 . S
C1062 H1070 0.930 . S
C1063 C1062 1.394 . S
C1063 C1064 1.383 . S
C1063 H1071 0.929 . S
C1064 C1063 1.383 . S
C1064 C1065 1.377 . S
C1065 H1049 0.930 . S
C1065 C1064 1.377 . S
C1065 C1066 1.379 . S
C1066 H1050 0.931 . S
C1066 C1060 1.383 . S
C1066 C1065 1.379 . S
H1067 C1061 0.959 . S
H1068 C1061 0.961 . S
H1069 C1061 0.960 . S
H1070 C1062 0.930 . S
H1071 C1063 0.929 . S
H1072 C1080 0.929 . S
H1073 C1082 0.930 . S
H1074 C1084 0.930 . S
H1075 C1087 0.929 . S
H1076 C1090 0.930 . S
H1077 C1092 0.960 . S
H1078 C1092 0.960 . S
H1079 C1092 0.960 . S
C1080 H1072 0.929 . S
C1080 C1081 1.377 . S
C1080 C1082 1.384 . S
C1081 C1080 1.377 . S
C1081 C1087 1.390 . S
C1082 H1073 0.930 . S
C1082 C1080 1.384 . S
C1082 C1083 1.372 . S
C1083 C1082 1.372 . S
C1083 C1084 1.400 . S
C1083 C1088 1.490 . S
C1084 H1074 0.930 . S
C1084 C1083 1.400 . S
C1084 C1087 1.386 . S
H1085 C1101 0.930 . S
H1086 C1102 0.931 . S
C1087 H1075 0.929 . S
C1087 C1081 1.390 . S
C1087 C1084 1.386 . S
C1088 C1083 1.490 . S
C1088 C1090 1.395 . S
C1088 C1091 1.403 . S
H1089 C1095 0.930 . S
C1090 H1076 0.930 . S
C1090 C1088 1.395 . S
C1090 C1093 1.403 . S
C1091 C1088 1.403 . S
C1091 C1092 1.524 . S
C1091 C1095 1.400 . S
C1092 H1077 0.960 . S
C1092 H1078 0.960 . S
C1092 H1079 0.960 . S
C1092 C1091 1.524 . S
C1093 C1090 1.403 . S
C1093 C1094 1.392 . S
C1093 C1097 1.495 . S
C1094 C1093 1.392 . S
C1094 C1095 1.385 . S
C1094 C1096 1.478 . S
C1095 H1089 0.930 . S
C1095 C1091 1.400 . S
C1095 C1094 1.385 . S
C1096 C1094 1.478 . S
C1096 C1098 1.381 . S
C1096 C1102 1.383 . S
C1097 C1093 1.495 . S
C1097 H1103 0.959 . S
C1097 H1104 0.961 . S
C1097 H1105 0.960 . S
C1098 C1096 1.381 . S
C1098 C1099 1.394 . S
C1098 H1106 0.930 . S
C1099 C1098 1.394 . S
C1099 C1100 1.383 . S
C1099 H1107 0.929 . S
C1100 C1099 1.383 . S
C1100 C1101 1.377 1_565 S
C1101 H1085 0.930 . S
C1101 C1100 1.377 1_545 S
C1101 C1102 1.379 1_545 S
C1102 H1086 0.931 . S
C1102 C1096 1.383 . S
C1102 C1101 1.379 1_565 S
H1103 C1097 0.959 . S
H1104 C1097 0.961 . S
H1105 C1097 0.960 . S
H1106 C1098 0.930 . S
H1107 C1099 0.929 . S
H1108 C1116 0.929 . S
H1109 C1118 0.930 . S
H1110 C1120 0.930 . S
H1111 C1123 0.929 . S
H1112 C1126 0.930 . S
H1113 C1128 0.960 . S
H1114 C1128 0.960 . S
H1115 C1128 0.960 . S
C1116 H1108 0.929 . S
C1116 C1117 1.377 . S
C1116 C1118 1.384 . S
C1117 C1116 1.377 . S
C1117 C1123 1.390 . S
C1118 H1109 0.930 . S
C1118 C1116 1.384 . S
C1118 C1119 1.372 . S
C1119 C1118 1.372 . S
C1119 C1120 1.400 . S
C1119 C1124 1.490 . S
C1120 H1110 0.930 . S
C1120 C1119 1.400 . S
C1120 C1123 1.386 . S
H1121 C1137 0.930 . S
H1122 C1138 0.931 . S
C1123 H1111 0.929 . S
C1123 C1117 1.390 . S
C1123 C1120 1.386 . S
C1124 C1119 1.490 . S
C1124 C1126 1.395 . S
C1124 C1127 1.403 . S
H1125 C1131 0.930 . S
C1126 H1112 0.930 . S
C1126 C1124 1.395 . S
C1126 C1129 1.403 . S
C1127 C1124 1.403 . S
C1127 C1128 1.524 . S
C1127 C1131 1.400 . S
C1128 H1113 0.960 . S
C1128 H1114 0.960 . S
C1128 H1115 0.960 . S
C1128 C1127 1.524 . S
C1129 C1126 1.403 . S
C1129 C1130 1.392 . S
C1129 C1133 1.495 . S
C1130 C1129 1.392 . S
C1130 C1131 1.385 . S
C1130 C1132 1.478 . S
C1131 H1125 0.930 . S
C1131 C1127 1.400 . S
C1131 C1130 1.385 . S
C1132 C1130 1.478 . S
C1132 C1134 1.381 . S
C1132 C1138 1.383 . S
C1133 C1129 1.495 . S
C1133 H1139 0.959 . S
C1133 H1140 0.961 . S
C1133 H1141 0.960 . S
C1134 C1132 1.381 . S
C1134 C1135 1.394 . S
C1134 H1142 0.930 . S
C1135 C1134 1.394 . S
C1135 C1136 1.383 . S
C1135 H1143 0.929 . S
C1136 C1135 1.383 . S
C1136 C1137 1.377 . S
C1137 H1121 0.930 . S
C1137 C1136 1.377 . S
C1137 C1138 1.379 . S
C1138 H1122 0.931 . S
C1138 C1132 1.383 . S
C1138 C1137 1.379 . S
H1139 C1133 0.959 . S
H1140 C1133 0.961 . S
H1141 C1133 0.960 . S
H1142 C1134 0.930 . S
H1143 C1135 0.929 . S
H1144 C1152 0.929 . S
H1145 C1154 0.930 . S
H1146 C1156 0.930 . S
H1147 C1159 0.929 . S
H1148 C1162 0.930 . S
H1149 C1164 0.960 . S
H1150 C1164 0.960 . S
H1151 C1164 0.960 . S
C1152 H1144 0.929 . S
C1152 C1153 1.377 . S
C1152 C1154 1.384 . S
C1153 C1152 1.377 . S
C1153 C1159 1.390 . S
C1154 H1145 0.930 . S
C1154 C1152 1.384 . S
C1154 C1155 1.372 . S
C1155 C1154 1.372 . S
C1155 C1156 1.400 . S
C1155 C1160 1.490 . S
C1156 H1146 0.930 . S
C1156 C1155 1.400 . S
C1156 C1159 1.386 . S
H1157 C1173 0.930 . S
H1158 C1174 0.931 . S
C1159 H1147 0.929 . S
C1159 C1153 1.390 . S
C1159 C1156 1.386 . S
C1160 C1155 1.490 . S
C1160 C1162 1.395 . S
C1160 C1163 1.403 . S
H1161 C1167 0.930 . S
C1162 H1148 0.930 . S
C1162 C1160 1.395 . S
C1162 C1165 1.403 . S
C1163 C1160 1.403 . S
C1163 C1164 1.524 . S
C1163 C1167 1.400 . S
C1164 H1149 0.960 . S
C1164 H1150 0.960 . S
C1164 H1151 0.960 . S
C1164 C1163 1.524 . S
C1165 C1162 1.403 . S
C1165 C1166 1.392 . S
C1165 C1169 1.495 . S
C1166 C1165 1.392 . S
C1166 C1167 1.385 . S
C1166 C1168 1.478 . S
C1167 H1161 0.930 . S
C1167 C1163 1.400 . S
C1167 C1166 1.385 . S
C1168 C1166 1.478 . S
C1168 C1170 1.381 . S
C1168 C1174 1.383 . S
C1169 C1165 1.495 . S
C1169 H1175 0.959 . S
C1169 H1176 0.961 . S
C1169 H1177 0.960 . S
C1170 C1168 1.381 . S
C1170 C1171 1.394 . S
C1170 H1178 0.930 . S
C1171 C1170 1.394 . S
C1171 C1172 1.383 . S
C1171 H1179 0.929 . S
C1172 C1171 1.383 . S
C1172 C1173 1.377 . S
C1173 H1157 0.930 . S
C1173 C1172 1.377 . S
C1173 C1174 1.379 . S
C1174 H1158 0.931 . S
C1174 C1168 1.383 . S
C1174 C1173 1.379 . S
H1175 C1169 0.959 . S
H1176 C1169 0.961 . S
H1177 C1169 0.960 . S
H1178 C1170 0.930 . S
H1179 C1171 0.929 . S
H1180 C1188 0.929 . S
H1181 C1190 0.930 . S
H1182 C1192 0.930 . S
H1183 C1195 0.929 . S
H1184 C1198 0.930 . S
H1185 C1200 0.960 . S
H1186 C1200 0.960 . S
H1187 C1200 0.960 . S
C1188 H1180 0.929 . S
C1188 C1189 1.377 . S
C1188 C1190 1.384 . S
C1189 C1188 1.377 . S
C1189 C1195 1.390 . S
C1190 H1181 0.930 . S
C1190 C1188 1.384 . S
C1190 C1191 1.372 . S
C1191 C1190 1.372 . S
C1191 C1192 1.400 . S
C1191 C1196 1.490 . S
C1192 H1182 0.930 . S
C1192 C1191 1.400 . S
C1192 C1195 1.386 . S
H1193 C1209 0.930 . S
H1194 C1210 0.931 . S
C1195 H1183 0.929 . S
C1195 C1189 1.390 . S
C1195 C1192 1.386 . S
C1196 C1191 1.490 . S
C1196 C1198 1.395 . S
C1196 C1199 1.403 . S
H1197 C1203 0.930 . S
C1198 H1184 0.930 . S
C1198 C1196 1.395 . S
C1198 C1201 1.403 . S
C1199 C1196 1.403 . S
C1199 C1200 1.524 . S
C1199 C1203 1.400 . S
C1200 H1185 0.960 . S
C1200 H1186 0.960 . S
C1200 H1187 0.960 . S
C1200 C1199 1.524 . S
C1201 C1198 1.403 . S
C1201 C1202 1.392 . S
C1201 C1205 1.495 . S
C1202 C1201 1.392 . S
C1202 C1203 1.385 . S
C1202 C1204 1.478 . S
C1203 H1197 0.930 . S
C1203 C1199 1.400 . S
C1203 C1202 1.385 . S
C1204 C1202 1.478 . S
C1204 C1206 1.381 . S
C1204 C1210 1.383 . S
C1205 C1201 1.495 . S
C1205 H1211 0.959 . S
C1205 H1212 0.961 . S
C1205 H1213 0.960 . S
C1206 C1204 1.381 . S
C1206 C1207 1.394 . S
C1206 H1214 0.930 . S
C1207 C1206 1.394 . S
C1207 C1208 1.383 . S
C1207 H1215 0.929 . S
C1208 C1207 1.383 . S
C1208 C1209 1.377 . S
C1209 H1193 0.930 . S
C1209 C1208 1.377 . S
C1209 C1210 1.379 . S
C1210 H1194 0.931 . S
C1210 C1204 1.383 . S
C1210 C1209 1.379 . S
H1211 C1205 0.959 . S
H1212 C1205 0.961 . S
H1213 C1205 0.960 . S
H1214 C1206 0.930 . S
H1215 C1207 0.929 . S
H1216 C1224 0.929 . S
H1217 C1226 0.930 . S
H1218 C1228 0.930 . S
H1219 C1231 0.929 1_545 S
H1220 C1234 0.930 . S
H1221 C1236 0.960 . S
H1222 C1236 0.960 . S
H1223 C1236 0.960 . S
C1224 H1216 0.929 . S
C1224 C1225 1.377 . S
C1224 C1226 1.384 . S
C1225 C1224 1.377 . S
C1225 C1231 1.390 . S
C1226 H1217 0.930 . S
C1226 C1224 1.384 . S
C1226 C1227 1.372 . S
C1227 C1226 1.372 . S
C1227 C1228 1.400 . S
C1227 C1232 1.490 . S
C1228 H1218 0.930 . S
C1228 C1227 1.400 . S
C1228 C1231 1.386 . S
H1229 C1245 0.930 . S
H1230 C1246 0.931 . S
C1231 H1219 0.929 1_565 S
C1231 C1225 1.390 . S
C1231 C1228 1.386 . S
C1232 C1227 1.490 . S
C1232 C1234 1.395 . S
C1232 C1235 1.403 . S
H1233 C1239 0.930 . S
C1234 H1220 0.930 . S
C1234 C1232 1.395 . S
C1234 C1237 1.403 . S
C1235 C1232 1.403 . S
C1235 C1236 1.524 . S
C1235 C1239 1.400 . S
C1236 H1221 0.960 . S
C1236 H1222 0.960 . S
C1236 H1223 0.960 . S
C1236 C1235 1.524 . S
C1237 C1234 1.403 . S
C1237 C1238 1.392 . S
C1237 C1241 1.495 . S
C1238 C1237 1.392 . S
C1238 C1239 1.385 . S
C1238 C1240 1.478 . S
C1239 H1233 0.930 . S
C1239 C1235 1.400 . S
C1239 C1238 1.385 . S
C1240 C1238 1.478 . S
C1240 C1242 1.381 . S
C1240 C1246 1.383 . S
C1241 C1237 1.495 . S
C1241 H1247 0.959 . S
C1241 H1248 0.961 . S
C1241 H1249 0.960 . S
C1242 C1240 1.381 . S
C1242 C1243 1.394 . S
C1242 H1250 0.930 . S
C1243 C1242 1.394 . S
C1243 C1244 1.383 . S
C1243 H1251 0.929 . S
C1244 C1243 1.383 . S
C1244 C1245 1.377 . S
C1245 H1229 0.930 . S
C1245 C1244 1.377 . S
C1245 C1246 1.379 . S
C1246 H1230 0.931 . S
C1246 C1240 1.383 . S
C1246 C1245 1.379 . S
H1247 C1241 0.959 . S
H1248 C1241 0.961 . S
H1249 C1241 0.960 . S
H1250 C1242 0.930 . S
H1251 C1243 0.929 . S
H1252 C1260 0.929 . S
H1253 C1262 0.930 . S
H1254 C1264 0.930 . S
H1255 C1267 0.929 . S
H1256 C1270 0.930 . S
H1257 C1272 0.960 . S
H1258 C1272 0.960 . S
H1259 C1272 0.960 . S
C1260 H1252 0.929 . S
C1260 C1261 1.377 . S
C1260 C1262 1.384 . S
C1261 C1260 1.377 . S
C1261 C1267 1.390 . S
C1262 H1253 0.930 . S
C1262 C1260 1.384 . S
C1262 C1263 1.372 . S
C1263 C1262 1.372 . S
C1263 C1264 1.400 . S
C1263 C1268 1.490 . S
C1264 H1254 0.930 . S
C1264 C1263 1.400 . S
C1264 C1267 1.386 . S
H1265 C1281 0.930 . S
H1266 C1282 0.931 . S
C1267 H1255 0.929 . S
C1267 C1261 1.390 . S
C1267 C1264 1.386 . S
C1268 C1263 1.490 . S
C1268 C1270 1.395 . S
C1268 C1271 1.403 . S
H1269 C1275 0.930 . S
C1270 H1256 0.930 . S
C1270 C1268 1.395 . S
C1270 C1273 1.403 . S
C1271 C1268 1.403 . S
C1271 C1272 1.524 . S
C1271 C1275 1.400 . S
C1272 H1257 0.960 . S
C1272 H1258 0.960 . S
C1272 H1259 0.960 . S
C1272 C1271 1.524 . S
C1273 C1270 1.403 . S
C1273 C1274 1.392 . S
C1273 C1277 1.495 . S
C1274 C1273 1.392 . S
C1274 C1275 1.385 . S
C1274 C1276 1.478 . S
C1275 H1269 0.930 . S
C1275 C1271 1.400 . S
C1275 C1274 1.385 . S
C1276 C1274 1.478 . S
C1276 C1278 1.381 . S
C1276 C1282 1.383 . S
C1277 C1273 1.495 . S
C1277 H1283 0.959 . S
C1277 H1284 0.961 . S
C1277 H1285 0.960 . S
C1278 C1276 1.381 . S
C1278 C1279 1.394 . S
C1278 H1286 0.930 . S
C1279 C1278 1.394 . S
C1279 C1280 1.383 . S
C1279 H1287 0.929 . S
C1280 C1279 1.383 . S
C1280 C1281 1.377 . S
C1281 H1265 0.930 . S
C1281 C1280 1.377 . S
C1281 C1282 1.379 . S
C1282 H1266 0.931 . S
C1282 C1276 1.383 . S
C1282 C1281 1.379 . S
H1283 C1277 0.959 . S
H1284 C1277 0.961 . S
H1285 C1277 0.960 . S
H1286 C1278 0.930 . S
H1287 C1279 0.929 . S
H1288 C1296 0.929 . S
H1289 C1298 0.930 . S
H1290 C1300 0.930 . S
H1291 C1303 0.929 . S
H1292 C1306 0.930 . S
H1293 C1308 0.960 . S
H1294 C1308 0.960 . S
H1295 C1308 0.960 . S
C1296 H1288 0.929 . S
C1296 C1297 1.377 . S
C1296 C1298 1.384 . S
C1297 C1296 1.377 . S
C1297 C1303 1.390 . S
C1298 H1289 0.930 . S
C1298 C1296 1.384 . S
C1298 C1299 1.372 . S
C1299 C1298 1.372 . S
C1299 C1300 1.400 . S
C1299 C1304 1.490 . S
C1300 H1290 0.930 . S
C1300 C1299 1.400 . S
C1300 C1303 1.386 . S
H1301 C1317 0.930 . S
H1302 C1318 0.931 . S
C1303 H1291 0.929 . S
C1303 C1297 1.390 . S
C1303 C1300 1.386 . S
C1304 C1299 1.490 . S
C1304 C1306 1.395 . S
C1304 C1307 1.403 . S
H1305 C1311 0.930 . S
C1306 H1292 0.930 . S
C1306 C1304 1.395 . S
C1306 C1309 1.403 . S
C1307 C1304 1.403 . S
C1307 C1308 1.524 . S
C1307 C1311 1.400 . S
C1308 H1293 0.960 . S
C1308 H1294 0.960 . S
C1308 H1295 0.960 . S
C1308 C1307 1.524 . S
C1309 C1306 1.403 . S
C1309 C1310 1.392 . S
C1309 C1313 1.495 . S
C1310 C1309 1.392 . S
C1310 C1311 1.385 . S
C1310 C1312 1.478 . S
C1311 H1305 0.930 . S
C1311 C1307 1.400 . S
C1311 C1310 1.385 . S
C1312 C1310 1.478 . S
C1312 C1314 1.381 . S
C1312 C1318 1.383 . S
C1313 C1309 1.495 . S
C1313 H1319 0.959 . S
C1313 H1320 0.961 . S
C1313 H1321 0.960 . S
C1314 C1312 1.381 . S
C1314 C1315 1.394 . S
C1314 H1322 0.930 . S
C1315 C1314 1.394 . S
C1315 C1316 1.383 . S
C1315 H1323 0.929 . S
C1316 C1315 1.383 . S
C1316 C1317 1.377 . S
C1317 H1301 0.930 . S
C1317 C1316 1.377 . S
C1317 C1318 1.379 . S
C1318 H1302 0.931 . S
C1318 C1312 1.383 . S
C1318 C1317 1.379 . S
H1319 C1313 0.959 . S
H1320 C1313 0.961 . S
H1321 C1313 0.960 . S
H1322 C1314 0.930 . S
H1323 C1315 0.929 . S
H1324 C1332 0.929 . S
H1325 C1334 0.930 . S
H1326 C1336 0.930 . S
H1327 C1339 0.929 . S
H1328 C1342 0.930 . S
H1329 C1344 0.960 . S
H1330 C1344 0.960 . S
H1331 C1344 0.960 . S
C1332 H1324 0.929 . S
C1332 C1333 1.377 . S
C1332 C1334 1.384 . S
C1333 C1332 1.377 . S
C1333 C1339 1.390 . S
C1334 H1325 0.930 . S
C1334 C1332 1.384 . S
C1334 C1335 1.372 . S
C1335 C1334 1.372 . S
C1335 C1336 1.400 . S
C1335 C1340 1.490 . S
C1336 H1326 0.930 . S
C1336 C1335 1.400 . S
C1336 C1339 1.386 . S
H1337 C1353 0.934 . S
H1338 C1354 0.931 . S
C1339 H1327 0.929 . S
C1339 C1333 1.390 . S
C1339 C1336 1.386 . S
C1340 C1335 1.490 . S
C1340 C1342 1.395 . S
C1340 C1343 1.403 . S
H1341 C1347 0.930 . S
C1342 H1328 0.930 . S
C1342 C1340 1.395 . S
C1342 C1345 1.403 . S
C1343 C1340 1.403 . S
C1343 C1344 1.524 . S
C1343 C1347 1.400 . S
C1344 H1329 0.960 . S
C1344 H1330 0.960 . S
C1344 H1331 0.960 . S
C1344 C1343 1.524 . S
C1345 C1342 1.403 . S
C1345 C1346 1.392 . S
C1345 C1349 1.495 . S
C1346 C1345 1.392 . S
C1346 C1347 1.385 . S
C1346 C1348 1.478 . S
C1347 H1341 0.930 . S
C1347 C1343 1.400 . S
C1347 C1346 1.385 . S
C1348 C1346 1.478 . S
C1348 C1350 1.381 . S
C1348 C1354 1.383 . S
C1349 C1345 1.495 . S
C1349 H1355 0.959 . S
C1349 H1356 0.961 . S
C1349 H1357 0.960 . S
C1350 C1348 1.381 . S
C1350 C1351 1.394 . S
C1350 H1358 0.930 . S
C1351 C1350 1.394 . S
C1351 C1352 1.383 . S
C1351 H1359 0.929 . S
C1352 C1351 1.383 . S
C1352 C1353 1.375 1_655 S
C1353 H1337 0.934 . S
C1353 C1352 1.375 1_455 S
C1353 C1354 1.377 1_455 S
C1354 H1338 0.931 . S
C1354 C1348 1.383 . S
C1354 C1353 1.377 1_655 S
H1355 C1349 0.959 . S
H1356 C1349 0.961 . S
H1357 C1349 0.960 . S
H1358 C1350 0.930 . S
H1359 C1351 0.929 . S
H1360 C1368 0.929 . S
H1361 C1370 0.930 . S
H1362 C1372 0.930 . S
H1363 C1375 0.929 . S
H1364 C1378 0.930 . S
H1365 C1380 0.960 . S
H1366 C1380 0.960 . S
H1367 C1380 0.960 . S
C1368 H1360 0.929 . S
C1368 C1369 1.377 . S
C1368 C1370 1.384 . S
C1369 C1368 1.377 . S
C1369 C1375 1.390 . S
C1370 H1361 0.930 . S
C1370 C1368 1.384 . S
C1370 C1371 1.372 . S
C1371 C1370 1.372 . S
C1371 C1372 1.400 . S
C1371 C1376 1.490 . S
C1372 H1362 0.930 . S
C1372 C1371 1.400 . S
C1372 C1375 1.386 . S
H1373 C1389 0.930 1_565 S
H1374 C1390 0.931 . S
C1375 H1363 0.929 . S
C1375 C1369 1.390 . S
C1375 C1372 1.386 . S
C1376 C1371 1.490 . S
C1376 C1378 1.395 . S
C1376 C1379 1.403 . S
H1377 C1383 0.930 . S
C1378 H1364 0.930 . S
C1378 C1376 1.395 . S
C1378 C1381 1.403 . S
C1379 C1376 1.403 . S
C1379 C1380 1.524 . S
C1379 C1383 1.400 . S
C1380 H1365 0.960 . S
C1380 H1366 0.960 . S
C1380 H1367 0.960 . S
C1380 C1379 1.524 . S
C1381 C1378 1.403 . S
C1381 C1382 1.392 . S
C1381 C1385 1.495 . S
C1382 C1381 1.392 . S
C1382 C1383 1.385 . S
C1382 C1384 1.478 . S
C1383 H1377 0.930 . S
C1383 C1379 1.400 . S
C1383 C1382 1.385 . S
C1384 C1382 1.478 . S
C1384 C1386 1.381 . S
C1384 C1390 1.383 . S
C1385 C1381 1.495 . S
C1385 H1391 0.959 . S
C1385 H1392 0.961 . S
C1385 H1393 0.960 . S
C1386 C1384 1.381 . S
C1386 C1387 1.394 . S
C1386 H1394 0.930 . S
C1387 C1386 1.394 . S
C1387 C1388 1.383 . S
C1387 H1395 0.929 . S
C1388 C1387 1.383 . S
C1388 C1389 1.377 . S
C1389 H1373 0.930 1_545 S
C1389 C1388 1.377 . S
C1389 C1390 1.379 . S
C1390 H1374 0.931 . S
C1390 C1384 1.383 . S
C1390 C1389 1.379 . S
H1391 C1385 0.959 . S
H1392 C1385 0.961 . S
H1393 C1385 0.960 . S
H1394 C1386 0.930 . S
H1395 C1387 0.929 . S
H1396 C1404 0.929 . S
H1397 C1406 0.930 . S
H1398 C1408 0.930 . S
H1399 C1411 0.929 . S
H1400 C1414 0.930 . S
H1401 C1416 0.960 . S
H1402 C1416 0.960 . S
H1403 C1416 0.960 . S
C1404 H1396 0.929 . S
C1404 C1405 1.377 . S
C1404 C1406 1.384 . S
C1405 C1404 1.377 . S
C1405 C1411 1.390 . S
C1406 H1397 0.930 . S
C1406 C1404 1.384 . S
C1406 C1407 1.372 . S
C1407 C1406 1.372 . S
C1407 C1408 1.400 . S
C1407 C1412 1.490 . S
C1408 H1398 0.930 . S
C1408 C1407 1.400 . S
C1408 C1411 1.386 . S
H1409 C1425 0.930 . S
H1410 C1426 0.931 . S
C1411 H1399 0.929 . S
C1411 C1405 1.390 . S
C1411 C1408 1.386 . S
C1412 C1407 1.490 . S
C1412 C1414 1.395 . S
C1412 C1415 1.403 . S
H1413 C1419 0.930 . S
C1414 H1400 0.930 . S
C1414 C1412 1.395 . S
C1414 C1417 1.403 . S
C1415 C1412 1.403 . S
C1415 C1416 1.524 . S
C1415 C1419 1.400 . S
C1416 H1401 0.960 . S
C1416 H1402 0.960 . S
C1416 H1403 0.960 . S
C1416 C1415 1.524 . S
C1417 C1414 1.403 . S
C1417 C1418 1.392 . S
C1417 C1421 1.495 . S
C1418 C1417 1.392 . S
C1418 C1419 1.385 . S
C1418 C1420 1.478 . S
C1419 H1413 0.930 . S
C1419 C1415 1.400 . S
C1419 C1418 1.385 . S
C1420 C1418 1.478 . S
C1420 C1422 1.381 . S
C1420 C1426 1.383 . S
C1421 C1417 1.495 . S
C1421 H1427 0.959 . S
C1421 H1428 0.961 . S
C1421 H1429 0.960 . S
C1422 C1420 1.381 . S
C1422 C1423 1.394 . S
C1422 H1430 0.930 . S
C1423 C1422 1.394 . S
C1423 C1424 1.383 . S
C1423 H1431 0.929 . S
C1424 C1423 1.383 . S
C1424 C1425 1.377 . S
C1425 H1409 0.930 . S
C1425 C1424 1.377 . S
C1425 C1426 1.379 . S
C1426 H1410 0.931 . S
C1426 C1420 1.383 . S
C1426 C1425 1.379 . S
H1427 C1421 0.959 . S
H1428 C1421 0.961 . S
H1429 C1421 0.960 . S
H1430 C1422 0.930 . S
H1431 C1423 0.929 . S
H1432 C1440 0.929 . S
H1433 C1442 0.930 . S
H1434 C1444 0.930 . S
H1435 C1447 0.929 . S
H1436 C1450 0.930 . S
H1437 C1452 0.960 . S
H1438 C1452 0.960 . S
H1439 C1452 0.960 . S
C1440 H1432 0.929 . S
C1440 C1441 1.377 . S
C1440 C1442 1.384 . S
C1441 C1440 1.377 . S
C1441 C1447 1.390 . S
C1442 H1433 0.930 . S
C1442 C1440 1.384 . S
C1442 C1443 1.372 . S
C1443 C1442 1.372 . S
C1443 C1444 1.400 . S
C1443 C1448 1.490 . S
C1444 H1434 0.930 . S
C1444 C1443 1.400 . S
C1444 C1447 1.386 . S
H1445 C1461 0.930 . S
H1446 C1462 0.931 . S
C1447 H1435 0.929 . S
C1447 C1441 1.390 . S
C1447 C1444 1.386 . S
C1448 C1443 1.490 . S
C1448 C1450 1.395 . S
C1448 C1451 1.403 . S
H1449 C1455 0.930 . S
C1450 H1436 0.930 . S
C1450 C1448 1.395 . S
C1450 C1453 1.403 . S
C1451 C1448 1.403 . S
C1451 C1452 1.524 . S
C1451 C1455 1.400 . S
C1452 H1437 0.960 . S
C1452 H1438 0.960 . S
C1452 H1439 0.960 . S
C1452 C1451 1.524 . S
C1453 C1450 1.403 . S
C1453 C1454 1.392 . S
C1453 C1457 1.495 . S
C1454 C1453 1.392 . S
C1454 C1455 1.385 . S
C1454 C1456 1.478 . S
C1455 H1449 0.930 . S
C1455 C1451 1.400 . S
C1455 C1454 1.385 . S
C1456 C1454 1.478 . S
C1456 C1458 1.381 . S
C1456 C1462 1.383 . S
C1457 C1453 1.495 . S
C1457 H1463 0.959 . S
C1457 H1464 0.961 . S
C1457 H1465 0.960 . S
C1458 C1456 1.381 . S
C1458 C1459 1.394 . S
C1458 H1466 0.930 . S
C1459 C1458 1.394 . S
C1459 C1460 1.383 . S
C1459 H1467 0.929 . S
C1460 C1459 1.383 . S
C1460 C1461 1.377 . S
C1461 H1445 0.930 . S
C1461 C1460 1.377 . S
C1461 C1462 1.379 . S
C1462 H1446 0.931 . S
C1462 C1456 1.383 . S
C1462 C1461 1.379 . S
H1463 C1457 0.959 . S
H1464 C1457 0.961 . S
H1465 C1457 0.960 . S
H1466 C1458 0.930 . S
H1467 C1459 0.929 . S
H1468 C1476 0.929 . S
H1469 C1478 0.930 . S
H1470 C1480 0.930 . S
H1471 C1483 0.929 . S
H1472 C1486 0.930 . S
H1473 C1488 0.960 . S
H1474 C1488 0.960 . S
H1475 C1488 0.960 . S
C1476 H1468 0.929 . S
C1476 C1477 1.377 . S
C1476 C1478 1.384 . S
C1477 C1476 1.377 . S
C1477 C1483 1.390 . S
C1478 H1469 0.930 . S
C1478 C1476 1.384 . S
C1478 C1479 1.372 . S
C1479 C1478 1.372 . S
C1479 C1480 1.400 . S
C1479 C1484 1.490 . S
C1480 H1470 0.930 . S
C1480 C1479 1.400 . S
C1480 C1483 1.386 . S
H1481 C1497 0.930 . S
H1482 C1498 0.931 . S
C1483 H1471 0.929 . S
C1483 C1477 1.390 . S
C1483 C1480 1.386 . S
C1484 C1479 1.490 . S
C1484 C1486 1.395 . S
C1484 C1487 1.403 . S
H1485 C1491 0.930 . S
C1486 H1472 0.930 . S
C1486 C1484 1.395 . S
C1486 C1489 1.403 . S
C1487 C1484 1.403 . S
C1487 C1488 1.524 . S
C1487 C1491 1.400 . S
C1488 H1473 0.960 . S
C1488 H1474 0.960 . S
C1488 H1475 0.960 . S
C1488 C1487 1.524 . S
C1489 C1486 1.403 . S
C1489 C1490 1.392 . S
C1489 C1493 1.495 . S
C1490 C1489 1.392 . S
C1490 C1491 1.385 . S
C1490 C1492 1.478 . S
C1491 H1485 0.930 . S
C1491 C1487 1.400 . S
C1491 C1490 1.385 . S
C1492 C1490 1.478 . S
C1492 C1494 1.381 . S
C1492 C1498 1.383 . S
C1493 C1489 1.495 . S
C1493 H1499 0.959 . S
C1493 H1500 0.961 . S
C1493 H1501 0.960 . S
C1494 C1492 1.381 . S
C1494 C1495 1.394 1_455 S
C1494 H1502 0.930 . S
C1495 C1494 1.394 1_655 S
C1495 C1496 1.383 1_655 S
C1495 H1503 0.929 . S
C1496 C1495 1.383 1_455 S
C1496 C1497 1.377 . S
C1497 H1481 0.930 . S
C1497 C1496 1.377 . S
C1497 C1498 1.379 . S
C1498 H1482 0.931 . S
C1498 C1492 1.383 . S
C1498 C1497 1.379 . S
H1499 C1493 0.959 . S
H1500 C1493 0.961 . S
H1501 C1493 0.960 . S
H1502 C1494 0.930 . S
H1503 C1495 0.929 . S
H1504 C1512 0.929 . S
H1505 C1514 0.930 . S
H1506 C1516 0.930 . S
H1507 C1519 0.929 . S
H1508 C1522 0.930 . S
H1509 C1524 0.960 . S
H1510 C1524 0.960 . S
H1511 C1524 0.960 . S
C1512 H1504 0.929 . S
C1512 C1513 1.377 . S
C1512 C1514 1.384 . S
C1513 C1512 1.377 . S
C1513 C1519 1.390 . S
C1514 H1505 0.930 . S
C1514 C1512 1.384 . S
C1514 C1515 1.372 . S
C1515 C1514 1.372 . S
C1515 C1516 1.400 . S
C1515 C1520 1.490 . S
C1516 H1506 0.930 . S
C1516 C1515 1.400 . S
C1516 C1519 1.386 . S
H1517 C1533 0.930 . S
H1518 C1534 0.931 . S
C1519 H1507 0.929 . S
C1519 C1513 1.390 . S
C1519 C1516 1.386 . S
C1520 C1515 1.490 . S
C1520 C1522 1.395 . S
C1520 C1523 1.403 . S
H1521 C1527 0.930 . S
C1522 H1508 0.930 . S
C1522 C1520 1.395 . S
C1522 C1525 1.403 . S
C1523 C1520 1.403 . S
C1523 C1524 1.524 . S
C1523 C1527 1.400 . S
C1524 H1509 0.960 . S
C1524 H1510 0.960 . S
C1524 H1511 0.960 . S
C1524 C1523 1.524 . S
C1525 C1522 1.403 . S
C1525 C1526 1.392 . S
C1525 C1529 1.495 . S
C1526 C1525 1.392 . S
C1526 C1527 1.385 . S
C1526 C1528 1.478 . S
C1527 H1521 0.930 . S
C1527 C1523 1.400 . S
C1527 C1526 1.385 . S
C1528 C1526 1.478 . S
C1528 C1530 1.381 . S
C1528 C1534 1.383 . S
C1529 C1525 1.495 . S
C1529 H1535 0.959 . S
C1529 H1536 0.961 . S
C1529 H1537 0.960 . S
C1530 C1528 1.381 . S
C1530 C1531 1.394 . S
C1530 H1538 0.930 . S
C1531 C1530 1.394 . S
C1531 C1532 1.383 . S
C1531 H1539 0.929 . S
C1532 C1531 1.383 . S
C1532 C1533 1.377 . S
C1533 H1517 0.930 . S
C1533 C1532 1.377 . S
C1533 C1534 1.379 . S
C1534 H1518 0.931 . S
C1534 C1528 1.383 . S
C1534 C1533 1.379 . S
H1535 C1529 0.959 . S
H1536 C1529 0.961 . S
H1537 C1529 0.960 . S
H1538 C1530 0.930 . S
H1539 C1531 0.929 . S
H1540 C1548 0.929 . S
H1541 C1550 0.930 . S
H1542 C1552 0.930 . S
H1543 C1555 0.929 . S
H1544 C1558 0.930 . S
H1545 C1560 0.960 . S
H1546 C1560 0.960 . S
H1547 C1560 0.960 . S
C1548 H1540 0.929 . S
C1548 C1549 1.377 . S
C1548 C1550 1.384 . S
C1549 C1548 1.377 . S
C1549 C1555 1.390 . S
C1550 H1541 0.930 . S
C1550 C1548 1.384 . S
C1550 C1551 1.372 . S
C1551 C1550 1.372 . S
C1551 C1552 1.400 . S
C1551 C1556 1.490 . S
C1552 H1542 0.930 . S
C1552 C1551 1.400 . S
C1552 C1555 1.386 . S
H1553 C1569 0.930 . S
H1554 C1570 0.931 . S
C1555 H1543 0.929 . S
C1555 C1549 1.390 . S
C1555 C1552 1.386 . S
C1556 C1551 1.490 . S
C1556 C1558 1.395 . S
C1556 C1559 1.403 . S
H1557 C1563 0.930 . S
C1558 H1544 0.930 . S
C1558 C1556 1.395 . S
C1558 C1561 1.403 . S
C1559 C1556 1.403 . S
C1559 C1560 1.524 . S
C1559 C1563 1.400 . S
C1560 H1545 0.960 . S
C1560 H1546 0.960 . S
C1560 H1547 0.960 . S
C1560 C1559 1.524 . S
C1561 C1558 1.403 . S
C1561 C1562 1.392 . S
C1561 C1565 1.495 . S
C1562 C1561 1.392 . S
C1562 C1563 1.385 . S
C1562 C1564 1.478 . S
C1563 H1557 0.930 . S
C1563 C1559 1.400 . S
C1563 C1562 1.385 . S
C1564 C1562 1.478 . S
C1564 C1566 1.381 . S
C1564 C1570 1.383 . S
C1565 C1561 1.495 . S
C1565 H1571 0.959 . S
C1565 H1572 0.961 . S
C1565 H1573 0.960 . S
C1566 C1564 1.381 . S
C1566 C1567 1.394 . S
C1566 H1574 0.930 . S
C1567 C1566 1.394 . S
C1567 C1568 1.383 . S
C1567 H1575 0.929 . S
C1568 C1567 1.383 . S
C1568 C1569 1.377 . S
C1569 H1553 0.930 . S
C1569 C1568 1.377 . S
C1569 C1570 1.379 . S
C1570 H1554 0.931 . S
C1570 C1564 1.383 . S
C1570 C1569 1.379 . S
H1571 C1565 0.959 . S
H1572 C1565 0.961 . S
H1573 C1565 0.960 . S
H1574 C1566 0.930 . S
H1575 C1567 0.929 . S
H1576 C1584 0.929 . S
H1577 C1586 0.930 . S
H1578 C1588 0.930 . S
H1579 C1591 0.929 . S
H1580 C1594 0.930 . S
H1581 C1596 0.960 . S
H1582 C1596 0.960 . S
H1583 C1596 0.960 . S
C1584 H1576 0.929 . S
C1584 C1585 1.377 . S
C1584 C1586 1.384 . S
C1585 C1584 1.377 . S
C1585 C1591 1.390 . S
C1586 H1577 0.930 . S
C1586 C1584 1.384 . S
C1586 C1587 1.372 . S
C1587 C1586 1.372 . S
C1587 C1588 1.400 . S
C1587 C1592 1.490 . S
C1588 H1578 0.930 . S
C1588 C1587 1.400 . S
C1588 C1591 1.386 . S
H1589 C1605 0.930 . S
H1590 C1606 0.931 . S
C1591 H1579 0.929 . S
C1591 C1585 1.390 . S
C1591 C1588 1.386 . S
C1592 C1587 1.490 . S
C1592 C1594 1.395 . S
C1592 C1595 1.403 . S
H1593 C1599 0.930 . S
C1594 H1580 0.930 . S
C1594 C1592 1.395 . S
C1594 C1597 1.403 . S
C1595 C1592 1.403 . S
C1595 C1596 1.524 . S
C1595 C1599 1.400 . S
C1596 H1581 0.960 . S
C1596 H1582 0.960 . S
C1596 H1583 0.960 . S
C1596 C1595 1.524 . S
C1597 C1594 1.403 . S
C1597 C1598 1.392 . S
C1597 C1601 1.495 . S
C1598 C1597 1.392 . S
C1598 C1599 1.385 . S
C1598 C1600 1.478 . S
C1599 H1593 0.930 . S
C1599 C1595 1.400 . S
C1599 C1598 1.385 . S
C1600 C1598 1.478 . S
C1600 C1602 1.381 . S
C1600 C1606 1.383 . S
C1601 C1597 1.495 . S
C1601 H1607 0.959 . S
C1601 H1608 0.961 . S
C1601 H1609 0.960 . S
C1602 C1600 1.381 . S
C1602 C1603 1.394 . S
C1602 H1610 0.930 . S
C1603 C1602 1.394 . S
C1603 C1604 1.383 . S
C1603 H1611 0.929 . S
C1604 C1603 1.383 . S
C1604 C1605 1.377 . S
C1605 H1589 0.930 . S
C1605 C1604 1.377 . S
C1605 C1606 1.379 . S
C1606 H1590 0.931 . S
C1606 C1600 1.383 . S
C1606 C1605 1.379 . S
H1607 C1601 0.959 . S
H1608 C1601 0.961 . S
H1609 C1601 0.960 . S
H1610 C1602 0.930 . S
H1611 C1603 0.929 . S
H1612 C1620 0.929 . S
H1613 C1622 0.930 . S
H1614 C1624 0.930 . S
H1615 C1627 0.929 . S
H1616 C1630 0.930 . S
H1617 C1632 0.960 . S
H1618 C1632 0.960 . S
H1619 C1632 0.960 . S
C1620 H1612 0.929 . S
C1620 C1621 1.377 . S
C1620 C1622 1.384 . S
C1621 C1620 1.377 . S
C1621 C1627 1.390 . S
C1622 H1613 0.930 . S
C1622 C1620 1.384 . S
C1622 C1623 1.372 . S
C1623 C1622 1.372 . S
C1623 C1624 1.400 . S
C1623 C1628 1.490 . S
C1624 H1614 0.930 . S
C1624 C1623 1.400 . S
C1624 C1627 1.386 . S
H1625 C1641 0.930 . S
H1626 C1642 0.931 . S
C1627 H1615 0.929 . S
C1627 C1621 1.390 . S
C1627 C1624 1.386 . S
C1628 C1623 1.490 . S
C1628 C1630 1.395 . S
C1628 C1631 1.403 . S
H1629 C1635 0.930 . S
C1630 H1616 0.930 . S
C1630 C1628 1.395 . S
C1630 C1633 1.403 . S
C1631 C1628 1.403 . S
C1631 C1632 1.524 . S
C1631 C1635 1.400 . S
C1632 H1617 0.960 . S
C1632 H1618 0.960 . S
C1632 H1619 0.960 . S
C1632 C1631 1.524 . S
C1633 C1630 1.403 . S
C1633 C1634 1.392 . S
C1633 C1637 1.495 . S
C1634 C1633 1.392 . S
C1634 C1635 1.385 . S
C1634 C1636 1.478 . S
C1635 H1629 0.930 . S
C1635 C1631 1.400 . S
C1635 C1634 1.385 . S
C1636 C1634 1.478 . S
C1636 C1638 1.381 . S
C1636 C1642 1.383 . S
C1637 C1633 1.495 . S
C1637 H1643 0.959 . S
C1637 H1644 0.961 . S
C1637 H1645 0.960 . S
C1638 C1636 1.381 . S
C1638 C1639 1.394 . S
C1638 H1646 0.930 . S
C1639 C1638 1.394 . S
C1639 C1640 1.383 . S
C1639 H1647 0.929 . S
C1640 C1639 1.383 . S
C1640 C1641 1.377 . S
C1641 H1625 0.930 . S
C1641 C1640 1.377 . S
C1641 C1642 1.379 . S
C1642 H1626 0.931 . S
C1642 C1636 1.383 . S
C1642 C1641 1.379 . S
H1643 C1637 0.959 . S
H1644 C1637 0.961 . S
H1645 C1637 0.960 . S
H1646 C1638 0.930 . S
H1647 C1639 0.929 . S
H1648 C1656 0.929 . S
H1649 C1658 0.930 . S
H1650 C1660 0.930 . S
H1651 C1663 0.929 . S
H1652 C1666 0.930 . S
H1653 C1668 0.960 . S
H1654 C1668 0.960 . S
H1655 C1668 0.960 . S
C1656 H1648 0.929 . S
C1656 C1657 1.377 . S
C1656 C1658 1.384 . S
C1657 C1656 1.377 . S
C1657 C1663 1.390 . S
C1658 H1649 0.930 . S
C1658 C1656 1.384 . S
C1658 C1659 1.372 . S
C1659 C1658 1.372 . S
C1659 C1660 1.400 . S
C1659 C1664 1.490 . S
C1660 H1650 0.930 . S
C1660 C1659 1.400 . S
C1660 C1663 1.386 . S
H1661 C1677 0.930 . S
H1662 C1678 0.931 . S
C1663 H1651 0.929 . S
C1663 C1657 1.390 . S
C1663 C1660 1.386 . S
C1664 C1659 1.490 . S
C1664 C1666 1.395 . S
C1664 C1667 1.403 . S
H1665 C1671 0.930 . S
C1666 H1652 0.930 . S
C1666 C1664 1.395 . S
C1666 C1669 1.403 . S
C1667 C1664 1.403 . S
C1667 C1668 1.524 . S
C1667 C1671 1.400 . S
C1668 H1653 0.960 . S
C1668 H1654 0.960 . S
C1668 H1655 0.960 . S
C1668 C1667 1.524 . S
C1669 C1666 1.403 . S
C1669 C1670 1.392 . S
C1669 C1673 1.495 . S
C1670 C1669 1.392 . S
C1670 C1671 1.385 . S
C1670 C1672 1.478 . S
C1671 H1665 0.930 . S
C1671 C1667 1.400 . S
C1671 C1670 1.385 . S
C1672 C1670 1.478 . S
C1672 C1674 1.381 . S
C1672 C1678 1.383 . S
C1673 C1669 1.495 . S
C1673 H1679 0.959 . S
C1673 H1680 0.961 . S
C1673 H1681 0.960 . S
C1674 C1672 1.381 . S
C1674 C1675 1.394 . S
C1674 H1682 0.930 . S
C1675 C1674 1.394 . S
C1675 C1676 1.383 . S
C1675 H1683 0.929 . S
C1676 C1675 1.383 . S
C1676 C1677 1.377 . S
C1677 H1661 0.930 . S
C1677 C1676 1.377 . S
C1677 C1678 1.379 . S
C1678 H1662 0.931 . S
C1678 C1672 1.383 . S
C1678 C1677 1.379 . S
H1679 C1673 0.959 . S
H1680 C1673 0.961 . S
H1681 C1673 0.960 . S
H1682 C1674 0.930 . S
H1683 C1675 0.929 . S
H1684 C1692 0.929 . S
H1685 C1694 0.930 . S
H1686 C1696 0.930 . S
H1687 C1699 0.929 . S
H1688 C1702 0.930 . S
H1689 C1704 0.960 . S
H1690 C1704 0.960 . S
H1691 C1704 0.960 . S
C1692 H1684 0.929 . S
C1692 C1693 1.377 . S
C1692 C1694 1.384 . S
C1693 C1692 1.377 . S
C1693 C1699 1.390 . S
C1694 H1685 0.930 . S
C1694 C1692 1.384 . S
C1694 C1695 1.372 . S
C1695 C1694 1.372 . S
C1695 C1696 1.400 . S
C1695 C1700 1.490 . S
C1696 H1686 0.930 . S
C1696 C1695 1.400 . S
C1696 C1699 1.386 . S
H1697 C1713 0.930 . S
H1698 C1714 0.931 . S
C1699 H1687 0.929 . S
C1699 C1693 1.390 . S
C1699 C1696 1.386 . S
C1700 C1695 1.490 . S
C1700 C1702 1.395 . S
C1700 C1703 1.403 . S
H1701 C1707 0.930 . S
C1702 H1688 0.930 . S
C1702 C1700 1.395 . S
C1702 C1705 1.403 . S
C1703 C1700 1.403 . S
C1703 C1704 1.524 . S
C1703 C1707 1.400 . S
C1704 H1689 0.960 . S
C1704 H1690 0.960 . S
C1704 H1691 0.960 . S
C1704 C1703 1.524 . S
C1705 C1702 1.403 . S
C1705 C1706 1.392 . S
C1705 C1709 1.495 . S
C1706 C1705 1.392 . S
C1706 C1707 1.385 . S
C1706 C1708 1.478 . S
C1707 H1701 0.930 . S
C1707 C1703 1.400 . S
C1707 C1706 1.385 . S
C1708 C1706 1.478 . S
C1708 C1710 1.381 . S
C1708 C1714 1.383 . S
C1709 C1705 1.495 . S
C1709 H1715 0.959 . S
C1709 H1716 0.961 . S
C1709 H1717 0.960 . S
C1710 C1708 1.381 . S
C1710 C1711 1.394 . S
C1710 H1718 0.930 . S
C1711 C1710 1.394 . S
C1711 C1712 1.383 . S
C1711 H1719 0.929 . S
C1712 C1711 1.383 . S
C1712 C1713 1.377 . S
C1713 H1697 0.930 . S
C1713 C1712 1.377 . S
C1713 C1714 1.379 . S
C1714 H1698 0.931 . S
C1714 C1708 1.383 . S
C1714 C1713 1.379 . S
H1715 C1709 0.959 . S
H1716 C1709 0.961 . S
H1717 C1709 0.960 . S
H1718 C1710 0.930 . S
H1719 C1711 0.929 . S
H1720 C1728 0.929 . S
H1721 C1730 0.930 . S
H1722 C1732 0.930 . S
H1723 C1735 0.929 . S
H1724 C1738 0.930 . S
H1725 C1740 0.960 . S
H1726 C1740 0.960 . S
H1727 C1740 0.960 . S
C1728 H1720 0.929 . S
C1728 C1729 1.377 . S
C1728 C1730 1.384 . S
C1729 C1728 1.377 . S
C1729 C1735 1.390 . S
C1730 H1721 0.930 . S
C1730 C1728 1.384 . S
C1730 C1731 1.372 . S
C1731 C1730 1.372 . S
C1731 C1732 1.400 . S
C1731 C1736 1.490 . S
C1732 H1722 0.930 . S
C1732 C1731 1.400 . S
C1732 C1735 1.386 . S
H1733 C1749 0.930 . S
H1734 C1750 0.931 . S
C1735 H1723 0.929 . S
C1735 C1729 1.390 . S
C1735 C1732 1.386 . S
C1736 C1731 1.490 . S
C1736 C1738 1.395 . S
C1736 C1739 1.403 . S
H1737 C1743 0.930 . S
C1738 H1724 0.930 . S
C1738 C1736 1.395 . S
C1738 C1741 1.403 . S
C1739 C1736 1.403 . S
C1739 C1740 1.524 . S
C1739 C1743 1.400 . S
C1740 H1725 0.960 . S
C1740 H1726 0.960 . S
C1740 H1727 0.960 . S
C1740 C1739 1.524 . S
C1741 C1738 1.403 . S
C1741 C1742 1.392 . S
C1741 C1745 1.495 . S
C1742 C1741 1.392 . S
C1742 C1743 1.385 . S
C1742 C1744 1.478 . S
C1743 H1737 0.930 . S
C1743 C1739 1.400 . S
C1743 C1742 1.385 . S
C1744 C1742 1.478 . S
C1744 C1746 1.381 . S
C1744 C1750 1.383 . S
C1745 C1741 1.495 . S
C1745 H1751 0.959 . S
C1745 H1752 0.961 . S
C1745 H1753 0.960 . S
C1746 C1744 1.381 . S
C1746 C1747 1.394 . S
C1746 H1754 0.930 . S
C1747 C1746 1.394 . S
C1747 C1748 1.383 . S
C1747 H1755 0.929 . S
C1748 C1747 1.383 . S
C1748 C1749 1.377 . S
C1749 H1733 0.930 . S
C1749 C1748 1.377 . S
C1749 C1750 1.379 . S
C1750 H1734 0.931 . S
C1750 C1744 1.383 . S
C1750 C1749 1.379 . S
H1751 C1745 0.959 . S
H1752 C1745 0.961 . S
H1753 C1745 0.960 . S
H1754 C1746 0.930 . S
H1755 C1747 0.929 . S
H1756 C1764 0.929 . S
H1757 C1766 0.930 . S
H1758 C1768 0.930 . S
H1759 C1771 0.929 . S
H1760 C1774 0.930 . S
H1761 C1776 0.960 . S
H1762 C1776 0.960 . S
H1763 C1776 0.960 . S
C1764 H1756 0.929 . S
C1764 C1765 1.377 . S
C1764 C1766 1.384 . S
C1765 C1764 1.377 . S
C1765 C1771 1.390 . S
C1766 H1757 0.930 . S
C1766 C1764 1.384 . S
C1766 C1767 1.372 . S
C1767 C1766 1.372 . S
C1767 C1768 1.400 . S
C1767 C1772 1.490 . S
C1768 H1758 0.930 . S
C1768 C1767 1.400 . S
C1768 C1771 1.386 . S
H1769 C1785 0.930 . S
H1770 C1786 0.931 . S
C1771 H1759 0.929 . S
C1771 C1765 1.390 . S
C1771 C1768 1.386 . S
C1772 C1767 1.490 . S
C1772 C1774 1.395 . S
C1772 C1775 1.403 . S
H1773 C1779 0.930 . S
C1774 H1760 0.930 . S
C1774 C1772 1.395 . S
C1774 C1777 1.403 . S
C1775 C1772 1.403 . S
C1775 C1776 1.524 . S
C1775 C1779 1.400 . S
C1776 H1761 0.960 . S
C1776 H1762 0.960 . S
C1776 H1763 0.960 . S
C1776 C1775 1.524 . S
C1777 C1774 1.403 . S
C1777 C1778 1.392 . S
C1777 C1781 1.495 . S
C1778 C1777 1.392 . S
C1778 C1779 1.385 . S
C1778 C1780 1.478 . S
C1779 H1773 0.930 . S
C1779 C1775 1.400 . S
C1779 C1778 1.385 . S
C1780 C1778 1.478 . S
C1780 C1782 1.381 . S
C1780 C1786 1.383 . S
C1781 C1777 1.495 . S
C1781 H1787 0.959 . S
C1781 H1788 0.961 . S
C1781 H1789 0.960 . S
C1782 C1780 1.381 . S
C1782 C1783 1.394 . S
C1782 H1790 0.930 . S
C1783 C1782 1.394 . S
C1783 C1784 1.383 . S
C1783 H1791 0.929 . S
C1784 C1783 1.383 . S
C1784 C1785 1.377 . S
C1785 H1769 0.930 . S
C1785 C1784 1.377 . S
C1785 C1786 1.379 . S
C1786 H1770 0.931 . S
C1786 C1780 1.383 . S
C1786 C1785 1.379 . S
H1787 C1781 0.959 . S
H1788 C1781 0.961 . S
H1789 C1781 0.960 . S
H1790 C1782 0.930 . S
H1791 C1783 0.929 . S
H1792 C1800 0.929 . S
H1793 C1802 0.930 . S
H1794 C1804 0.930 . S
H1795 C1807 0.929 . S
H1796 C1810 0.930 . S
H1797 C1812 0.960 . S
H1798 C1812 0.960 . S
H1799 C1812 0.960 . S
C1800 H1792 0.929 . S
C1800 C1801 1.377 . S
C1800 C1802 1.384 . S
C1801 C1800 1.377 . S
C1801 C1807 1.390 . S
C1802 H1793 0.930 . S
C1802 C1800 1.384 . S
C1802 C1803 1.372 . S
C1803 C1802 1.372 . S
C1803 C1804 1.400 . S
C1803 C1808 1.490 . S
C1804 H1794 0.930 . S
C1804 C1803 1.400 . S
C1804 C1807 1.386 . S
H1805 C1821 0.930 . S
H1806 C1822 0.931 . S
C1807 H1795 0.929 . S
C1807 C1801 1.390 . S
C1807 C1804 1.386 . S
C1808 C1803 1.490 . S
C1808 C1810 1.395 . S
C1808 C1811 1.403 . S
H1809 C1815 0.930 . S
C1810 H1796 0.930 . S
C1810 C1808 1.395 . S
C1810 C1813 1.403 . S
C1811 C1808 1.403 . S
C1811 C1812 1.524 . S
C1811 C1815 1.400 . S
C1812 H1797 0.960 . S
C1812 H1798 0.960 . S
C1812 H1799 0.960 . S
C1812 C1811 1.524 . S
C1813 C1810 1.403 . S
C1813 C1814 1.392 . S
C1813 C1817 1.495 . S
C1814 C1813 1.392 . S
C1814 C1815 1.385 . S
C1814 C1816 1.478 . S
C1815 H1809 0.930 . S
C1815 C1811 1.400 . S
C1815 C1814 1.385 . S
C1816 C1814 1.478 . S
C1816 C1818 1.381 . S
C1816 C1822 1.383 . S
C1817 C1813 1.495 . S
C1817 H1823 0.959 . S
C1817 H1824 0.961 . S
C1817 H1825 0.960 . S
C1818 C1816 1.381 . S
C1818 C1819 1.394 . S
C1818 H1826 0.930 . S
C1819 C1818 1.394 . S
C1819 C1820 1.383 . S
C1819 H1827 0.929 . S
C1820 C1819 1.383 . S
C1820 C1821 1.377 . S
C1821 H1805 0.930 . S
C1821 C1820 1.377 . S
C1821 C1822 1.379 . S
C1822 H1806 0.931 . S
C1822 C1816 1.383 . S
C1822 C1821 1.379 . S
H1823 C1817 0.959 . S
H1824 C1817 0.961 . S
H1825 C1817 0.960 . S
H1826 C1818 0.930 . S
H1827 C1819 0.929 . S
H1828 C1836 0.929 . S
H1829 C1838 0.930 . S
H1830 C1840 0.930 . S
H1831 C1843 0.929 . S
H1832 C1846 0.930 . S
H1833 C1848 0.960 . S
H1834 C1848 0.960 . S
H1835 C1848 0.960 . S
C1836 H1828 0.929 . S
C1836 C1837 1.377 . S
C1836 C1838 1.384 . S
C1837 C1836 1.377 . S
C1837 C1843 1.390 . S
C1838 H1829 0.930 . S
C1838 C1836 1.384 . S
C1838 C1839 1.372 . S
C1839 C1838 1.372 . S
C1839 C1840 1.400 . S
C1839 C1844 1.490 . S
C1840 H1830 0.930 . S
C1840 C1839 1.400 . S
C1840 C1843 1.386 . S
H1841 C1857 0.930 . S
H1842 C1858 0.931 . S
C1843 H1831 0.929 . S
C1843 C1837 1.390 . S
C1843 C1840 1.386 . S
C1844 C1839 1.490 . S
C1844 C1846 1.395 . S
C1844 C1847 1.403 . S
H1845 C1851 0.930 . S
C1846 H1832 0.930 . S
C1846 C1844 1.395 . S
C1846 C1849 1.403 . S
C1847 C1844 1.403 . S
C1847 C1848 1.524 . S
C1847 C1851 1.400 . S
C1848 H1833 0.960 . S
C1848 H1834 0.960 . S
C1848 H1835 0.960 . S
C1848 C1847 1.524 . S
C1849 C1846 1.403 . S
C1849 C1850 1.392 . S
C1849 C1853 1.495 . S
C1850 C1849 1.392 . S
C1850 C1851 1.385 . S
C1850 C1852 1.478 . S
C1851 H1845 0.930 . S
C1851 C1847 1.400 . S
C1851 C1850 1.385 . S
C1852 C1850 1.478 . S
C1852 C1854 1.381 . S
C1852 C1858 1.383 . S
C1853 C1849 1.495 . S
C1853 H1859 0.959 . S
C1853 H1860 0.961 . S
C1853 H1861 0.960 . S
C1854 C1852 1.381 . S
C1854 C1855 1.394 . S
C1854 H1862 0.930 . S
C1855 C1854 1.394 . S
C1855 C1856 1.383 . S
C1855 H1863 0.929 . S
C1856 C1855 1.383 . S
C1856 C1857 1.377 . S
C1857 H1841 0.930 . S
C1857 C1856 1.377 . S
C1857 C1858 1.379 . S
C1858 H1842 0.931 . S
C1858 C1852 1.383 . S
C1858 C1857 1.379 . S
H1859 C1853 0.959 . S
H1860 C1853 0.961 . S
H1861 C1853 0.960 . S
H1862 C1854 0.930 . S
H1863 C1855 0.929 . S
H1864 C1872 0.929 . S
H1865 C1874 0.930 . S
H1866 C1876 0.930 . S
H1867 C1879 0.929 . S
H1868 C1882 0.930 . S
H1869 C1884 0.960 . S
H1870 C1884 0.960 . S
H1871 C1884 0.960 . S
C1872 H1864 0.929 . S
C1872 C1873 1.377 . S
C1872 C1874 1.384 . S
C1873 C1872 1.377 . S
C1873 C1879 1.390 . S
C1874 H1865 0.930 . S
C1874 C1872 1.384 . S
C1874 C1875 1.372 . S
C1875 C1874 1.372 . S
C1875 C1876 1.400 . S
C1875 C1880 1.490 . S
C1876 H1866 0.930 . S
C1876 C1875 1.400 . S
C1876 C1879 1.386 . S
H1877 C1893 0.930 . S
H1878 C1894 0.931 . S
C1879 H1867 0.929 . S
C1879 C1873 1.390 . S
C1879 C1876 1.386 . S
C1880 C1875 1.490 . S
C1880 C1882 1.395 . S
C1880 C1883 1.403 . S
H1881 C1887 0.930 . S
C1882 H1868 0.930 . S
C1882 C1880 1.395 . S
C1882 C1885 1.403 . S
C1883 C1880 1.403 . S
C1883 C1884 1.524 . S
C1883 C1887 1.400 . S
C1884 H1869 0.960 . S
C1884 H1870 0.960 . S
C1884 H1871 0.960 . S
C1884 C1883 1.524 . S
C1885 C1882 1.403 . S
C1885 C1886 1.392 . S
C1885 C1889 1.495 . S
C1886 C1885 1.392 . S
C1886 C1887 1.385 . S
C1886 C1888 1.478 . S
C1887 H1881 0.930 . S
C1887 C1883 1.400 . S
C1887 C1886 1.385 . S
C1888 C1886 1.478 . S
C1888 C1890 1.381 . S
C1888 C1894 1.383 . S
C1889 C1885 1.495 . S
C1889 H1895 0.959 . S
C1889 H1896 0.961 . S
C1889 H1897 0.960 . S
C1890 C1888 1.381 . S
C1890 C1891 1.394 . S
C1890 H1898 0.930 . S
C1891 C1890 1.394 . S
C1891 C1892 1.383 . S
C1891 H1899 0.929 . S
C1892 C1891 1.383 . S
C1892 C1893 1.377 . S
C1893 H1877 0.930 . S
C1893 C1892 1.377 . S
C1893 C1894 1.379 . S
C1894 H1878 0.931 . S
C1894 C1888 1.383 . S
C1894 C1893 1.379 . S
H1895 C1889 0.959 . S
H1896 C1889 0.961 . S
H1897 C1889 0.960 . S
H1898 C1890 0.930 . S
H1899 C1891 0.929 . S
H1900 C1908 0.929 . S
H1901 C1910 0.930 . S
H1902 C1912 0.930 . S
H1903 C1915 0.929 . S
H1904 C1918 0.930 . S
H1905 C1920 0.960 . S
H1906 C1920 0.960 . S
H1907 C1920 0.960 . S
C1908 H1900 0.929 . S
C1908 C1909 1.377 . S
C1908 C1910 1.384 . S
C1909 C1908 1.377 . S
C1909 C1915 1.390 . S
C1910 H1901 0.930 . S
C1910 C1908 1.384 . S
C1910 C1911 1.372 . S
C1911 C1910 1.372 . S
C1911 C1912 1.400 . S
C1911 C1916 1.490 . S
C1912 H1902 0.930 . S
C1912 C1911 1.400 . S
C1912 C1915 1.386 . S
H1913 C1929 0.930 . S
H1914 C1930 0.931 . S
C1915 H1903 0.929 . S
C1915 C1909 1.390 . S
C1915 C1912 1.386 . S
C1916 C1911 1.490 . S
C1916 C1918 1.395 . S
C1916 C1919 1.403 . S
H1917 C1923 0.930 . S
C1918 H1904 0.930 . S
C1918 C1916 1.395 . S
C1918 C1921 1.403 . S
C1919 C1916 1.403 . S
C1919 C1920 1.524 . S
C1919 C1923 1.400 . S
C1920 H1905 0.960 . S
C1920 H1906 0.960 . S
C1920 H1907 0.960 . S
C1920 C1919 1.524 . S
C1921 C1918 1.403 . S
C1921 C1922 1.392 . S
C1921 C1925 1.495 . S
C1922 C1921 1.392 . S
C1922 C1923 1.385 . S
C1922 C1924 1.478 . S
C1923 H1917 0.930 . S
C1923 C1919 1.400 . S
C1923 C1922 1.385 . S
C1924 C1922 1.478 . S
C1924 C1926 1.381 . S
C1924 C1930 1.383 . S
C1925 C1921 1.495 . S
C1925 H1931 0.959 . S
C1925 H1932 0.961 . S
C1925 H1933 0.960 . S
C1926 C1924 1.381 . S
C1926 C1927 1.394 . S
C1926 H1934 0.930 . S
C1927 C1926 1.394 . S
C1927 C1928 1.383 . S
C1927 H1935 0.929 . S
C1928 C1927 1.383 . S
C1928 C1929 1.377 . S
C1929 H1913 0.930 . S
C1929 C1928 1.377 . S
C1929 C1930 1.379 . S
C1930 H1914 0.931 . S
C1930 C1924 1.383 . S
C1930 C1929 1.379 . S
H1931 C1925 0.959 . S
H1932 C1925 0.961 . S
H1933 C1925 0.960 . S
H1934 C1926 0.930 . S
H1935 C1927 0.929 . S
H1936 C1944 0.929 . S
H1937 C1946 0.930 . S
H1938 C1948 0.930 1_554 S
H1939 C1951 0.929 . S
H1940 C1954 0.930 . S
H1941 C1956 0.960 . S
H1942 C1956 0.960 . S
H1943 C1956 0.960 . S
C1944 H1936 0.929 . S
C1944 C1945 1.377 . S
C1944 C1946 1.384 . S
C1945 C1944 1.377 . S
C1945 C1951 1.390 . S
C1946 H1937 0.930 . S
C1946 C1944 1.384 . S
C1946 C1947 1.372 . S
C1947 C1946 1.372 . S
C1947 C1948 1.400 . S
C1947 C1952 1.485 1_556 S
C1948 H1938 0.930 1_556 S
C1948 C1947 1.400 . S
C1948 C1951 1.386 . S
H1949 C1965 0.930 . S
H1950 C1966 0.931 . S
C1951 H1939 0.929 . S
C1951 C1945 1.390 . S
C1951 C1948 1.386 . S
C1952 C1947 1.485 1_554 S
C1952 C1954 1.386 1_554 S
C1952 C1955 1.417 . S
H1953 C1959 0.930 . S
C1954 H1940 0.930 . S
C1954 C1952 1.386 1_556 S
C1954 C1957 1.403 . S
C1955 C1952 1.417 . S
C1955 C1956 1.524 . S
C1955 C1959 1.400 . S
C1956 H1941 0.960 . S
C1956 H1942 0.960 . S
C1956 H1943 0.960 . S
C1956 C1955 1.524 . S
C1957 C1954 1.403 . S
C1957 C1958 1.392 1_556 S
C1957 C1961 1.495 . S
C1958 C1957 1.392 1_554 S
C1958 C1959 1.385 . S
C1958 C1960 1.478 . S
C1959 H1953 0.930 . S
C1959 C1955 1.400 . S
C1959 C1958 1.385 . S
C1960 C1958 1.478 . S
C1960 C1962 1.381 . S
C1960 C1966 1.383 . S
C1961 C1957 1.495 . S
C1961 H1967 0.959 . S
C1961 H1968 0.961 . S
C1961 H1969 0.960 . S
C1962 C1960 1.381 . S
C1962 C1963 1.394 . S
C1962 H1970 0.930 . S
C1963 C1962 1.394 . S
C1963 C1964 1.383 . S
C1963 H1971 0.929 . S
C1964 C1963 1.383 . S
C1964 C1965 1.377 . S
C1965 H1949 0.930 . S
C1965 C1964 1.377 . S
C1965 C1966 1.379 . S
C1966 H1950 0.931 . S
C1966 C1960 1.383 . S
C1966 C1965 1.379 . S
H1967 C1961 0.959 . S
H1968 C1961 0.961 . S
H1969 C1961 0.960 . S
H1970 C1962 0.930 . S
H1971 C1963 0.929 . S
H1972 C1980 0.929 . S
H1973 C1982 0.930 . S
H1974 C1984 0.930 . S
H1975 C1987 0.929 . S
H1976 C1990 0.930 . S
H1977 C1992 0.960 . S
H1978 C1992 0.960 . S
H1979 C1992 0.960 . S
C1980 H1972 0.929 . S
C1980 C1981 1.377 . S
C1980 C1982 1.384 . S
C1981 C1980 1.377 . S
C1981 C1987 1.390 . S
C1982 H1973 0.930 . S
C1982 C1980 1.384 . S
C1982 C1983 1.372 . S
C1983 C1982 1.372 . S
C1983 C1984 1.400 . S
C1983 C1988 1.490 . S
C1984 H1974 0.930 . S
C1984 C1983 1.400 . S
C1984 C1987 1.386 . S
H1985 C2001 0.930 1_554 S
H1986 C2002 0.931 . S
C1987 H1975 0.929 . S
C1987 C1981 1.390 . S
C1987 C1984 1.386 . S
C1988 C1983 1.490 . S
C1988 C1990 1.395 . S
C1988 C1991 1.403 . S
H1989 C1995 0.930 . S
C1990 H1976 0.930 . S
C1990 C1988 1.395 . S
C1990 C1993 1.403 . S
C1991 C1988 1.403 . S
C1991 C1992 1.524 . S
C1991 C1995 1.400 . S
C1992 H1977 0.960 . S
C1992 H1978 0.960 . S
C1992 H1979 0.960 . S
C1992 C1991 1.524 . S
C1993 C1990 1.403 . S
C1993 C1994 1.392 1_554 S
C1993 C1997 1.495 1_554 S
C1994 C1993 1.392 1_556 S
C1994 C1995 1.385 1_556 S
C1994 C1996 1.477 . S
C1995 H1989 0.930 . S
C1995 C1991 1.400 . S
C1995 C1994 1.385 1_554 S
C1996 C1994 1.477 . S
C1996 C1998 1.381 . S
C1996 C2002 1.383 1_556 S
C1997 C1993 1.495 1_556 S
C1997 H2003 0.959 . S
C1997 H2004 0.961 1_556 S
C1997 H2005 0.960 . S
C1998 C1996 1.381 . S
C1998 C1999 1.394 . S
C1998 H2006 0.930 . S
C1999 C1998 1.394 . S
C1999 C2000 1.383 . S
C1999 H2007 0.929 . S
C2000 C1999 1.383 . S
C2000 C2001 1.377 . S
C2001 H1985 0.930 1_556 S
C2001 C2000 1.377 . S
C2001 C2002 1.379 1_556 S
C2002 H1986 0.931 . S
C2002 C1996 1.383 1_554 S
C2002 C2001 1.379 1_554 S
H2003 C1997 0.959 . S
H2004 C1997 0.961 1_554 S
H2005 C1997 0.960 . S
H2006 C1998 0.930 . S
H2007 C1999 0.929 . S
H2008 C2016 0.929 . S
H2009 C2018 0.930 . S
H2010 C2020 0.930 . S
H2011 C2023 0.930 . S
H2012 C2026 0.939 . S
H2013 C2028 0.961 . S
H2014 C2028 0.958 1_556 S
H2015 C2028 0.961 . S
C2016 H2008 0.929 . S
C2016 C2017 1.377 . S
C2016 C2018 1.384 . S
C2017 C2016 1.377 . S
C2017 C2023 1.390 . S
C2018 H2009 0.930 . S
C2018 C2016 1.384 . S
C2018 C2019 1.372 . S
C2019 C2018 1.372 . S
C2019 C2020 1.400 1_556 S
C2019 C2024 1.487 1_556 S
C2020 H2010 0.930 . S
C2020 C2019 1.400 1_554 S
C2020 C2023 1.386 1_554 S
H2021 C2037 0.930 . S
H2022 C2038 0.931 . S
C2023 H2011 0.930 . S
C2023 C2017 1.390 . S
C2023 C2020 1.386 1_556 S
C2024 C2019 1.487 1_554 S
C2024 C2026 1.396 . S
C2024 C2027 1.404 . S
H2025 C2031 0.930 . S
C2026 H2012 0.939 . S
C2026 C2024 1.396 . S
C2026 C2029 1.403 . S
C2027 C2024 1.404 . S
C2027 C2028 1.524 . S
C2027 C2031 1.400 . S
C2028 H2013 0.961 . S
C2028 H2014 0.958 1_554 S
C2028 H2015 0.961 . S
C2028 C2027 1.524 . S
C2029 C2026 1.403 . S
C2029 C2030 1.392 . S
C2029 C2033 1.495 . S
C2030 C2029 1.392 . S
C2030 C2031 1.385 . S
C2030 C2032 1.478 . S
C2031 H2025 0.930 . S
C2031 C2027 1.400 . S
C2031 C2030 1.385 . S
C2032 C2030 1.478 . S
C2032 C2034 1.381 . S
C2032 C2038 1.383 . S
C2033 C2029 1.495 . S
C2033 H2039 0.959 . S
C2033 H2040 0.961 . S
C2033 H2041 0.960 . S
C2034 C2032 1.381 . S
C2034 C2035 1.394 . S
C2034 H2042 0.930 . S
C2035 C2034 1.394 . S
C2035 C2036 1.383 . S
C2035 H2043 0.929 . S
C2036 C2035 1.383 . S
C2036 C2037 1.377 . S
C2037 H2021 0.930 . S
C2037 C2036 1.377 . S
C2037 C2038 1.379 . S
C2038 H2022 0.931 . S
C2038 C2032 1.383 . S
C2038 C2037 1.379 . S
H2039 C2033 0.959 . S
H2040 C2033 0.961 . S
H2041 C2033 0.960 . S
H2042 C2034 0.930 . S
H2043 C2035 0.929 . S
H2044 C2052 0.929 . S
H2045 C2054 0.930 . S
H2046 C2056 0.930 . S
H2047 C2059 0.929 . S
H2048 C2062 0.930 . S
H2049 C2064 0.960 . S
H2050 C2064 0.960 . S
H2051 C2064 0.960 . S
C2052 H2044 0.929 . S
C2052 C2053 1.377 . S
C2052 C2054 1.384 . S
C2053 C2052 1.377 . S
C2053 C2059 1.390 . S
C2054 H2045 0.930 . S
C2054 C2052 1.384 . S
C2054 C2055 1.372 . S
C2055 C2054 1.372 . S
C2055 C2056 1.400 . S
C2055 C2060 1.490 . S
C2056 H2046 0.930 . S
C2056 C2055 1.400 . S
C2056 C2059 1.386 . S
H2057 C2073 0.930 . S
H2058 C2074 0.931 . S
C2059 H2047 0.929 . S
C2059 C2053 1.390 . S
C2059 C2056 1.386 . S
C2060 C2055 1.490 . S
C2060 C2062 1.395 . S
C2060 C2063 1.358 1_554 S
H2061 C2067 0.930 . S
C2062 H2048 0.930 . S
C2062 C2060 1.395 . S
C2062 C2065 1.403 . S
C2063 C2060 1.358 1_556 S
C2063 C2064 1.554 . S
C2063 C2067 1.416 . S
C2064 H2049 0.960 . S
C2064 H2050 0.960 . S
C2064 H2051 0.960 . S
C2064 C2063 1.554 . S
C2065 C2062 1.403 . S
C2065 C2066 1.392 . S
C2065 C2069 1.495 . S
C2066 C2065 1.392 . S
C2066 C2067 1.385 1_554 S
C2066 C2068 1.478 1_554 S
C2067 H2061 0.930 . S
C2067 C2063 1.416 . S
C2067 C2066 1.385 1_556 S
C2068 C2066 1.478 1_556 S
C2068 C2070 1.376 1_556 S
C2068 C2074 1.383 . S
C2069 C2065 1.495 . S
C2069 H2075 0.959 . S
C2069 H2076 0.961 . S
C2069 H2077 0.960 . S
C2070 C2068 1.376 1_554 S
C2070 C2071 1.385 1_554 S
C2070 H2078 0.945 . S
C2071 C2070 1.385 1_556 S
C2071 C2072 1.383 . S
C2071 H2079 0.929 . S
C2072 C2071 1.383 . S
C2072 C2073 1.377 . S
C2073 H2057 0.930 . S
C2073 C2072 1.377 . S
C2073 C2074 1.379 . S
C2074 H2058 0.931 . S
C2074 C2068 1.383 . S
C2074 C2073 1.379 . S
H2075 C2069 0.959 . S
H2076 C2069 0.961 . S
H2077 C2069 0.960 . S
H2078 C2070 0.945 . S
H2079 C2071 0.929 . S
H2080 C2088 0.929 . S
H2081 C2090 0.930 . S
H2082 C2092 0.930 . S
H2083 C2095 0.929 . S
H2084 C2098 0.930 . S
H2085 C2100 0.960 . S
H2086 C2100 0.960 . S
H2087 C2100 0.960 . S
C2088 H2080 0.929 . S
C2088 C2089 1.377 . S
C2088 C2090 1.384 . S
C2089 C2088 1.377 . S
C2089 C2095 1.390 . S
C2090 H2081 0.930 . S
C2090 C2088 1.384 . S
C2090 C2091 1.372 . S
C2091 C2090 1.372 . S
C2091 C2092 1.400 . S
C2091 C2096 1.490 . S
C2092 H2082 0.930 . S
C2092 C2091 1.400 . S
C2092 C2095 1.386 . S
H2093 C2109 0.930 . S
H2094 C2110 0.931 . S
C2095 H2083 0.929 . S
C2095 C2089 1.390 . S
C2095 C2092 1.386 . S
C2096 C2091 1.490 . S
C2096 C2098 1.395 . S
C2096 C2099 1.403 . S
H2097 C2103 0.930 . S
C2098 H2084 0.930 . S
C2098 C2096 1.395 . S
C2098 C2101 1.403 . S
C2099 C2096 1.403 . S
C2099 C2100 1.524 . S
C2099 C2103 1.400 . S
C2100 H2085 0.960 . S
C2100 H2086 0.960 . S
C2100 H2087 0.960 . S
C2100 C2099 1.524 . S
C2101 C2098 1.403 . S
C2101 C2102 1.392 . S
C2101 C2105 1.495 . S
C2102 C2101 1.392 . S
C2102 C2103 1.385 . S
C2102 C2104 1.478 . S
C2103 H2097 0.930 . S
C2103 C2099 1.400 . S
C2103 C2102 1.385 . S
C2104 C2102 1.478 . S
C2104 C2106 1.381 . S
C2104 C2110 1.383 . S
C2105 C2101 1.495 . S
C2105 H2111 0.959 . S
C2105 H2112 0.961 . S
C2105 H2113 0.960 . S
C2106 C2104 1.381 . S
C2106 C2107 1.394 . S
C2106 H2114 0.930 . S
C2107 C2106 1.394 . S
C2107 C2108 1.383 . S
C2107 H2115 0.929 . S
C2108 C2107 1.383 . S
C2108 C2109 1.377 . S
C2109 H2093 0.930 . S
C2109 C2108 1.377 . S
C2109 C2110 1.379 . S
C2110 H2094 0.931 . S
C2110 C2104 1.383 . S
C2110 C2109 1.379 . S
H2111 C2105 0.959 . S
H2112 C2105 0.961 . S
H2113 C2105 0.960 . S
H2114 C2106 0.930 . S
H2115 C2107 0.929 . S
H2116 C2124 0.929 . S
H2117 C2126 0.930 . S
H2118 C2128 0.930 . S
H2119 C2131 0.929 . S
H2120 C2134 0.930 . S
H2121 C2136 0.960 . S
H2122 C2136 0.960 . S
H2123 C2136 0.960 . S
C2124 H2116 0.929 . S
C2124 C2125 1.377 . S
C2124 C2126 1.384 . S
C2125 C2124 1.377 . S
C2125 C2131 1.390 . S
C2126 H2117 0.930 . S
C2126 C2124 1.384 . S
C2126 C2127 1.372 . S
C2127 C2126 1.372 . S
C2127 C2128 1.400 . S
C2127 C2132 1.490 . S
C2128 H2118 0.930 . S
C2128 C2127 1.400 . S
C2128 C2131 1.386 . S
H2129 C2145 0.930 . S
H2130 C2146 0.931 . S
C2131 H2119 0.929 . S
C2131 C2125 1.390 . S
C2131 C2128 1.386 . S
C2132 C2127 1.490 . S
C2132 C2134 1.395 . S
C2132 C2135 1.403 . S
H2133 C2139 0.930 . S
C2134 H2120 0.930 . S
C2134 C2132 1.395 . S
C2134 C2137 1.403 . S
C2135 C2132 1.403 . S
C2135 C2136 1.524 . S
C2135 C2139 1.400 . S
C2136 H2121 0.960 . S
C2136 H2122 0.960 . S
C2136 H2123 0.960 . S
C2136 C2135 1.524 . S
C2137 C2134 1.403 . S
C2137 C2138 1.392 . S
C2137 C2141 1.495 . S
C2138 C2137 1.392 . S
C2138 C2139 1.385 . S
C2138 C2140 1.478 . S
C2139 H2133 0.930 . S
C2139 C2135 1.400 . S
C2139 C2138 1.385 . S
C2140 C2138 1.478 . S
C2140 C2142 1.381 . S
C2140 C2146 1.383 . S
C2141 C2137 1.495 . S
C2141 H2147 0.959 . S
C2141 H2148 0.961 . S
C2141 H2149 0.960 . S
C2142 C2140 1.381 . S
C2142 C2143 1.394 . S
C2142 H2150 0.930 . S
C2143 C2142 1.394 . S
C2143 C2144 1.383 . S
C2143 H2151 0.929 . S
C2144 C2143 1.383 . S
C2144 C2145 1.377 . S
C2145 H2129 0.930 . S
C2145 C2144 1.377 . S
C2145 C2146 1.379 . S
C2146 H2130 0.931 . S
C2146 C2140 1.383 . S
C2146 C2145 1.379 . S
H2147 C2141 0.959 . S
H2148 C2141 0.961 . S
H2149 C2141 0.960 . S
H2150 C2142 0.930 . S
H2151 C2143 0.929 . S
H2152 C2160 0.929 . S
H2153 C2162 0.930 . S
H2154 C2164 0.930 . S
H2155 C2167 0.929 . S
H2156 C2170 0.930 . S
H2157 C2172 0.960 . S
H2158 C2172 0.960 . S
H2159 C2172 0.960 . S
C2160 H2152 0.929 . S
C2160 C2161 1.377 . S
C2160 C2162 1.384 . S
C2161 C2160 1.377 . S
C2161 C2167 1.390 . S
C2162 H2153 0.930 . S
C2162 C2160 1.384 . S
C2162 C2163 1.372 . S
C2163 C2162 1.372 . S
C2163 C2164 1.400 . S
C2163 C2168 1.490 . S
C2164 H2154 0.930 . S
C2164 C2163 1.400 . S
C2164 C2167 1.386 . S
H2165 C2181 0.930 . S
H2166 C2182 0.931 . S
C2167 H2155 0.929 . S
C2167 C2161 1.390 . S
C2167 C2164 1.386 . S
C2168 C2163 1.490 . S
C2168 C2170 1.395 . S
C2168 C2171 1.403 . S
H2169 C2175 0.930 . S
C2170 H2156 0.930 . S
C2170 C2168 1.395 . S
C2170 C2173 1.403 . S
C2171 C2168 1.403 . S
C2171 C2172 1.524 . S
C2171 C2175 1.400 . S
C2172 H2157 0.960 . S
C2172 H2158 0.960 . S
C2172 H2159 0.960 . S
C2172 C2171 1.524 . S
C2173 C2170 1.403 . S
C2173 C2174 1.392 . S
C2173 C2177 1.495 . S
C2174 C2173 1.392 . S
C2174 C2175 1.385 . S
C2174 C2176 1.478 . S
C2175 H2169 0.930 . S
C2175 C2171 1.400 . S
C2175 C2174 1.385 . S
C2176 C2174 1.478 . S
C2176 C2178 1.381 . S
C2176 C2182 1.383 . S
C2177 C2173 1.495 . S
C2177 H2183 0.959 . S
C2177 H2184 0.961 . S
C2177 H2185 0.960 . S
C2178 C2176 1.381 . S
C2178 C2179 1.394 . S
C2178 H2186 0.930 . S
C2179 C2178 1.394 . S
C2179 C2180 1.383 . S
C2179 H2187 0.929 . S
C2180 C2179 1.383 . S
C2180 C2181 1.377 . S
C2181 H2165 0.930 . S
C2181 C2180 1.377 . S
C2181 C2182 1.379 . S
C2182 H2166 0.931 . S
C2182 C2176 1.383 . S
C2182 C2181 1.379 . S
H2183 C2177 0.959 . S
H2184 C2177 0.961 . S
H2185 C2177 0.960 . S
H2186 C2178 0.930 . S
H2187 C2179 0.929 . S
H2188 C2196 0.929 . S
H2189 C2198 0.930 . S
H2190 C2200 0.930 . S
H2191 C2203 0.929 . S
H2192 C2206 0.930 . S
H2193 C2208 0.960 . S
H2194 C2208 0.960 . S
H2195 C2208 0.960 . S
C2196 H2188 0.929 . S
C2196 C2197 1.377 . S
C2196 C2198 1.384 . S
C2197 C2196 1.377 . S
C2197 C2203 1.390 . S
C2198 H2189 0.930 . S
C2198 C2196 1.384 . S
C2198 C2199 1.372 . S
C2199 C2198 1.372 . S
C2199 C2200 1.400 . S
C2199 C2204 1.490 . S
C2200 H2190 0.930 . S
C2200 C2199 1.400 . S
C2200 C2203 1.386 . S
H2201 C2217 0.930 . S
H2202 C2218 0.931 . S
C2203 H2191 0.929 . S
C2203 C2197 1.390 . S
C2203 C2200 1.386 . S
C2204 C2199 1.490 . S
C2204 C2206 1.395 . S
C2204 C2207 1.403 . S
H2205 C2211 0.930 . S
C2206 H2192 0.930 . S
C2206 C2204 1.395 . S
C2206 C2209 1.403 . S
C2207 C2204 1.403 . S
C2207 C2208 1.524 . S
C2207 C2211 1.400 . S
C2208 H2193 0.960 . S
C2208 H2194 0.960 . S
C2208 H2195 0.960 . S
C2208 C2207 1.524 . S
C2209 C2206 1.403 . S
C2209 C2210 1.392 . S
C2209 C2213 1.495 . S
C2210 C2209 1.392 . S
C2210 C2211 1.385 . S
C2210 C2212 1.478 . S
C2211 H2205 0.930 . S
C2211 C2207 1.400 . S
C2211 C2210 1.385 . S
C2212 C2210 1.478 . S
C2212 C2214 1.381 . S
C2212 C2218 1.383 . S
C2213 C2209 1.495 . S
C2213 H2219 0.959 . S
C2213 H2220 0.961 . S
C2213 H2221 0.960 . S
C2214 C2212 1.381 . S
C2214 C2215 1.394 . S
C2214 H2222 0.930 . S
C2215 C2214 1.394 . S
C2215 C2216 1.383 . S
C2215 H2223 0.929 . S
C2216 C2215 1.383 . S
C2216 C2217 1.377 . S
C2217 H2201 0.930 . S
C2217 C2216 1.377 . S
C2217 C2218 1.379 . S
C2218 H2202 0.931 . S
C2218 C2212 1.383 . S
C2218 C2217 1.379 . S
H2219 C2213 0.959 . S
H2220 C2213 0.961 . S
H2221 C2213 0.960 . S
H2222 C2214 0.930 . S
H2223 C2215 0.929 . S
H2224 C2232 0.929 . S
H2225 C2234 0.930 . S
H2226 C2236 0.930 . S
H2227 C2239 0.929 . S
H2228 C2242 0.930 1_554 S
H2229 C2244 0.960 . S
H2230 C2244 0.960 . S
H2231 C2244 0.960 . S
C2232 H2224 0.929 . S
C2232 C2233 1.377 . S
C2232 C2234 1.384 . S
C2233 C2232 1.377 . S
C2233 C2239 1.390 . S
C2234 H2225 0.930 . S
C2234 C2232 1.384 . S
C2234 C2235 1.372 . S
C2235 C2234 1.372 . S
C2235 C2236 1.400 . S
C2235 C2240 1.490 . S
C2236 H2226 0.930 . S
C2236 C2235 1.400 . S
C2236 C2239 1.386 . S
H2237 C2253 0.930 . S
H2238 C2254 0.931 . S
C2239 H2227 0.929 . S
C2239 C2233 1.390 . S
C2239 C2236 1.386 . S
C2240 C2235 1.490 . S
C2240 C2242 1.395 . S
C2240 C2243 1.403 . S
H2241 C2247 0.930 . S
C2242 H2228 0.930 1_556 S
C2242 C2240 1.395 . S
C2242 C2245 1.403 1_556 S
C2243 C2240 1.403 . S
C2243 C2244 1.524 . S
C2243 C2247 1.400 . S
C2244 H2229 0.960 . S
C2244 H2230 0.960 . S
C2244 H2231 0.960 . S
C2244 C2243 1.524 . S
C2245 C2242 1.403 1_554 S
C2245 C2246 1.392 . S
C2245 C2249 1.495 . S
C2246 C2245 1.392 . S
C2246 C2247 1.385 1_554 S
C2246 C2248 1.478 . S
C2247 H2241 0.930 . S
C2247 C2243 1.400 . S
C2247 C2246 1.385 1_556 S
C2248 C2246 1.478 . S
C2248 C2250 1.381 . S
C2248 C2254 1.383 . S
C2249 C2245 1.495 . S
C2249 H2255 0.959 . S
C2249 H2256 0.961 . S
C2249 H2257 0.960 . S
C2250 C2248 1.381 . S
C2250 C2251 1.394 . S
C2250 H2258 0.930 . S
C2251 C2250 1.394 . S
C2251 C2252 1.383 . S
C2251 H2259 0.929 . S
C2252 C2251 1.383 . S
C2252 C2253 1.377 . S
C2253 H2237 0.930 . S
C2253 C2252 1.377 . S
C2253 C2254 1.379 . S
C2254 H2238 0.931 . S
C2254 C2248 1.383 . S
C2254 C2253 1.379 . S
H2255 C2249 0.959 . S
H2256 C2249 0.961 . S
H2257 C2249 0.960 . S
H2258 C2250 0.930 . S
H2259 C2251 0.929 . S
H2260 C2268 0.929 . S
H2261 C2270 0.930 . S
H2262 C2272 0.930 . S
H2263 C2275 0.929 . S
H2264 C2278 0.930 . S
H2265 C2280 0.960 . S
H2266 C2280 0.960 . S
H2267 C2280 0.960 . S
C2268 H2260 0.929 . S
C2268 C2269 1.377 . S
C2268 C2270 1.384 . S
C2269 C2268 1.377 . S
C2269 C2275 1.390 . S
C2270 H2261 0.930 . S
C2270 C2268 1.384 . S
C2270 C2271 1.372 . S
C2271 C2270 1.372 . S
C2271 C2272 1.400 . S
C2271 C2276 1.490 . S
C2272 H2262 0.930 . S
C2272 C2271 1.400 . S
C2272 C2275 1.386 . S
H2273 C2289 0.930 . S
H2274 C2290 0.933 1_556 S
C2275 H2263 0.929 . S
C2275 C2269 1.390 . S
C2275 C2272 1.386 . S
C2276 C2271 1.490 . S
C2276 C2278 1.395 1_556 S
C2276 C2279 1.403 . S
H2277 C2283 0.930 . S
C2278 H2264 0.930 . S
C2278 C2276 1.395 1_554 S
C2278 C2281 1.403 . S
C2279 C2276 1.403 . S
C2279 C2280 1.524 . S
C2279 C2283 1.400 . S
C2280 H2265 0.960 . S
C2280 H2266 0.960 . S
C2280 H2267 0.960 . S
C2280 C2279 1.524 . S
C2281 C2278 1.403 . S
C2281 C2282 1.392 . S
C2281 C2285 1.495 . S
C2282 C2281 1.392 . S
C2282 C2283 1.385 1_554 S
C2282 C2284 1.478 . S
C2283 H2277 0.930 . S
C2283 C2279 1.400 . S
C2283 C2282 1.385 1_556 S
C2284 C2282 1.478 . S
C2284 C2286 1.381 . S
C2284 C2290 1.383 . S
C2285 C2281 1.495 . S
C2285 H2291 0.959 . S
C2285 H2292 0.961 . S
C2285 H2293 0.960 . S
C2286 C2284 1.381 . S
C2286 C2287 1.394 . S
C2286 H2294 0.930 . S
C2287 C2286 1.394 . S
C2287 C2288 1.383 . S
C2287 H2295 0.929 . S
C2288 C2287 1.383 . S
C2288 C2289 1.377 . S
C2289 H2273 0.930 . S
C2289 C2288 1.377 . S
C2289 C2290 1.379 . S
C2290 H2274 0.933 1_554 S
C2290 C2284 1.383 . S
C2290 C2289 1.379 . S
H2291 C2285 0.959 . S
H2292 C2285 0.961 . S
H2293 C2285 0.960 . S
H2294 C2286 0.930 . S
H2295 C2287 0.929 . S
H2296 C2304 0.929 . S
H2297 C2306 0.930 . S
H2298 C2308 0.930 . S
H2299 C2311 0.929 . S
H2300 C2314 0.930 . S
H2301 C2316 0.960 . S
H2302 C2316 0.960 . S
H2303 C2316 0.960 . S
C2304 H2296 0.929 . S
C2304 C2305 1.377 . S
C2304 C2306 1.384 . S
C2305 C2304 1.377 . S
C2305 C2311 1.390 . S
C2306 H2297 0.930 . S
C2306 C2304 1.384 . S
C2306 C2307 1.372 . S
C2307 C2306 1.372 . S
C2307 C2308 1.400 . S
C2307 C2312 1.490 1_554 S
C2308 H2298 0.930 . S
C2308 C2307 1.400 . S
C2308 C2311 1.386 . S
H2309 C2325 0.930 . S
H2310 C2326 0.931 . S
C2311 H2299 0.929 . S
C2311 C2305 1.390 . S
C2311 C2308 1.386 . S
C2312 C2307 1.490 1_556 S
C2312 C2314 1.395 . S
C2312 C2315 1.403 1_556 S
H2313 C2319 0.930 1_554 S
C2314 H2300 0.930 . S
C2314 C2312 1.395 . S
C2314 C2317 1.403 . S
C2315 C2312 1.403 1_554 S
C2315 C2316 1.524 . S
C2315 C2319 1.400 1_554 S
C2316 H2301 0.960 . S
C2316 H2302 0.960 . S
C2316 H2303 0.960 . S
C2316 C2315 1.524 . S
C2317 C2314 1.403 . S
C2317 C2318 1.392 . S
C2317 C2321 1.495 . S
C2318 C2317 1.392 . S
C2318 C2319 1.385 . S
C2318 C2320 1.478 . S
C2319 H2313 0.930 1_556 S
C2319 C2315 1.400 1_556 S
C2319 C2318 1.385 . S
C2320 C2318 1.478 . S
C2320 C2322 1.381 . S
C2320 C2326 1.383 . S
C2321 C2317 1.495 . S
C2321 H2327 0.959 . S
C2321 H2328 0.961 . S
C2321 H2329 0.960 . S
C2322 C2320 1.381 . S
C2322 C2323 1.394 . S
C2322 H2330 0.930 . S
C2323 C2322 1.394 . S
C2323 C2324 1.383 . S
C2323 H2331 0.929 . S
C2324 C2323 1.383 . S
C2324 C2325 1.377 . S
C2325 H2309 0.930 . S
C2325 C2324 1.377 . S
C2325 C2326 1.379 . S
C2326 H2310 0.931 . S
C2326 C2320 1.383 . S
C2326 C2325 1.379 . S
H2327 C2321 0.959 . S
H2328 C2321 0.961 . S
H2329 C2321 0.960 . S
H2330 C2322 0.930 . S
H2331 C2323 0.929 . S
H2332 C2340 0.929 . S
H2333 C2342 0.930 . S
H2334 C2344 0.930 . S
H2335 C2347 0.929 1_556 S
H2336 C2350 0.931 1_554 S
H2337 C2352 0.960 . S
H2338 C2352 0.960 1_554 S
H2339 C2352 0.960 . S
C2340 H2332 0.929 . S
C2340 C2341 1.377 . S
C2340 C2342 1.384 . S
C2341 C2340 1.377 . S
C2341 C2347 1.390 . S
C2342 H2333 0.930 . S
C2342 C2340 1.384 . S
C2342 C2343 1.372 . S
C2343 C2342 1.372 . S
C2343 C2344 1.400 1_554 S
C2343 C2348 1.488 . S
C2344 H2334 0.930 . S
C2344 C2343 1.400 1_556 S
C2344 C2347 1.386 1_556 S
H2345 C2361 0.930 . S
H2346 C2362 0.931 . S
C2347 H2335 0.929 1_554 S
C2347 C2341 1.390 . S
C2347 C2344 1.386 1_554 S
C2348 C2343 1.488 . S
C2348 C2350 1.395 1_554 S
C2348 C2351 1.405 1_554 S
H2349 C2355 0.930 . S
C2350 H2336 0.931 1_556 S
C2350 C2348 1.395 1_556 S
C2350 C2353 1.403 . S
C2351 C2348 1.405 1_556 S
C2351 C2352 1.524 . S
C2351 C2355 1.400 . S
C2352 H2337 0.960 . S
C2352 H2338 0.960 1_556 S
C2352 H2339 0.960 . S
C2352 C2351 1.524 . S
C2353 C2350 1.403 . S
C2353 C2354 1.392 . S
C2353 C2357 1.495 . S
C2354 C2353 1.392 . S
C2354 C2355 1.385 . S
C2354 C2356 1.478 . S
C2355 H2349 0.930 . S
C2355 C2351 1.400 . S
C2355 C2354 1.385 . S
C2356 C2354 1.478 . S
C2356 C2358 1.381 . S
C2356 C2362 1.383 . S
C2357 C2353 1.495 . S
C2357 H2363 0.959 . S
C2357 H2364 0.961 . S
C2357 H2365 0.960 . S
C2358 C2356 1.381 . S
C2358 C2359 1.394 . S
C2358 H2366 0.930 . S
C2359 C2358 1.394 . S
C2359 C2360 1.383 . S
C2359 H2367 0.929 . S
C2360 C2359 1.383 . S
C2360 C2361 1.377 . S
C2361 H2345 0.930 . S
C2361 C2360 1.377 . S
C2361 C2362 1.379 . S
C2362 H2346 0.931 . S
C2362 C2356 1.383 . S
C2362 C2361 1.379 . S
H2363 C2357 0.959 . S
H2364 C2357 0.961 . S
H2365 C2357 0.960 . S
H2366 C2358 0.930 . S
H2367 C2359 0.929 . S
C649 C23 2.354 . S
C668 C223 2.339 . S
C685 C263 2.354 . S
C704 C63 2.344 . S
C721 C103 2.348 . S
C740 C303 2.345 . S
C757 C143 2.346 . S
C776 C183 2.360 . S
C793 C522 2.356 . S
C812 C322 2.344 . S
C829 C562 2.355 . S
C848 C362 2.365 . S
C865 C402 2.345 . S
C884 C602 2.351 . S
C901 C442 2.345 . S
C920 C482 2.343 . S
C937 C4 1.822 . S
C956 C140 1.703 1_545 S
C973 C44 1.820 . S
C992 C20 1.694 . S
C1009 C84 1.824 . S
C1028 C60 1.735 . S
C1045 C124 1.822 . S
C1064 C100 1.717 1_455 S
C1081 C164 1.826 . S
C1100 C220 1.743 1_565 S
C1117 C260 1.723 . S
C1136 C204 1.828 . S
C1153 C244 1.824 . S
C1172 C300 1.719 . S
C1189 C180 1.720 1_655 S
C1208 C284 1.826 . S
C1225 C471 1.720 1_565 S
C1244 C345 1.805 . S
C1261 C385 1.826 . S
C1280 C351 1.701 . S
C1297 C425 1.826 . S
C1316 C391 1.685 . S
C1333 C465 1.824 . S
C1352 C431 1.686 1_655 S
C1369 C505 1.825 . S
C1388 C551 1.684 1_545 S
C1405 C545 1.824 . S
C1424 C591 1.731 . S
C1441 C585 1.824 . S
C1460 C631 1.684 . S
C1477 C625 1.825 . S
C1496 C511 1.719 1_455 S
C1513 C25 1.560 . S
C1532 C105 1.567 . S
C1549 C65 1.561 . S
C1568 C145 1.577 . S
C1585 C265 1.563 . S
C1604 C185 1.573 . S
C1621 C305 1.563 . S
C1640 C225 1.578 . S
C1657 C404 1.562 . S
C1676 C324 1.572 . S
C1693 C444 1.560 . S
C1712 C364 1.575 . S
C1729 C484 1.563 . S
C1748 C564 1.565 . S
C1765 C524 1.563 . S
C1784 C604 1.566 . S
C1801 C31 2.427 . S
C1820 C463 2.404 . S
C1837 C343 2.414 . S
C1856 C71 2.427 . S
C1873 C111 2.426 . S
C1892 C383 2.405 . S
C1909 C423 2.411 . S
C1928 C151 2.419 . S
C1945 C543 2.413 . S
C1964 C191 2.426 . S
C1981 C231 2.428 . S
C2000 C583 2.406 . S
C2017 C623 2.411 . S
C2036 C271 2.420 . S
C2053 C311 2.428 . S
C2072 C503 2.417 . S
C2089 C340 2.427 . S
C2108 C122 2.417 . S
C2125 C380 2.428 . S
C2144 C2 2.414 . S
C2161 C42 2.413 . S
C2180 C420 2.427 . S
C2197 C460 2.426 . S
C2216 C82 2.406 . S
C2233 C500 2.427 . S
C2252 C202 2.401 . S
C2269 C540 2.427 . S
C2288 C242 2.401 . S
C2305 C282 2.412 . S
C2324 C580 2.420 . S
C2341 C162 2.412 . S
C2360 C620 2.426 . S
