# Generated by pormake.
# Topology umb, (4)-cn, num edge types: 1
# Building blocks:
#     Node 0, Type 0, BuildingBlock: NAWXER_clean_sbu_0, # of connection points: 4
#     Node 1, Type 0, BuildingBlock: NAWXER_clean_sbu_0, # of connection points: 4
#     Node 2, Type 0, BuildingBlock: NAWXER_clean_sbu_0, # of connection points: 4
#     Node 3, Type 0, BuildingBlock: NAWXER_clean_sbu_0, # of connection points: 4
#     Node 4, Type 0, BuildingBlock: NAWXER_clean_sbu_0, # of connection points: 4
#     Node 5, Type 0, BuildingBlock: NAWXER_clean_sbu_0, # of connection points: 4
#     Node 6, Type 0, BuildingBlock: NAWXER_clean_sbu_0, # of connection points: 4
#     Node 7, Type 0, BuildingBlock: NAWXER_clean_sbu_0, # of connection points: 4
#     Node 8, Type 0, BuildingBlock: NAWXER_clean_sbu_0, # of connection points: 4
#     Node 9, Type 0, BuildingBlock: NAWXER_clean_sbu_0, # of connection points: 4
#     Node 10, Type 0, BuildingBlock: NAWXER_clean_sbu_0, # of connection points: 4
#     Node 11, Type 0, BuildingBlock: NAWXER_clean_sbu_0, # of connection points: 4
#     Edge 12, Type (0, 0), BuildingBlock: KIFKEQ_clean_linker_1, # of connection points: 2
#     Edge 13, Type (0, 0), BuildingBlock: KIFKEQ_clean_linker_1, # of connection points: 2
#     Edge 14, Type (0, 0), BuildingBlock: KIFKEQ_clean_linker_1, # of connection points: 2
#     Edge 15, Type (0, 0), BuildingBlock: KIFKEQ_clean_linker_1, # of connection points: 2
#     Edge 16, Type (0, 0), BuildingBlock: KIFKEQ_clean_linker_1, # of connection points: 2
#     Edge 17, Type (0, 0), BuildingBlock: KIFKEQ_clean_linker_1, # of connection points: 2
#     Edge 18, Type (0, 0), BuildingBlock: KIFKEQ_clean_linker_1, # of connection points: 2
#     Edge 19, Type (0, 0), BuildingBlock: KIFKEQ_clean_linker_1, # of connection points: 2
#     Edge 20, Type (0, 0), BuildingBlock: KIFKEQ_clean_linker_1, # of connection points: 2
#     Edge 21, Type (0, 0), BuildingBlock: KIFKEQ_clean_linker_1, # of connection points: 2
#     Edge 22, Type (0, 0), BuildingBlock: KIFKEQ_clean_linker_1, # of connection points: 2
#     Edge 23, Type (0, 0), BuildingBlock: KIFKEQ_clean_linker_1, # of connection points: 2
#     Edge 24, Type (0, 0), BuildingBlock: KIFKEQ_clean_linker_1, # of connection points: 2
#     Edge 25, Type (0, 0), BuildingBlock: KIFKEQ_clean_linker_1, # of connection points: 2
#     Edge 26, Type (0, 0), BuildingBlock: KIFKEQ_clean_linker_1, # of connection points: 2
#     Edge 27, Type (0, 0), BuildingBlock: KIFKEQ_clean_linker_1, # of connection points: 2
#     Edge 28, Type (0, 0), BuildingBlock: KIFKEQ_clean_linker_1, # of connection points: 2
#     Edge 29, Type (0, 0), BuildingBlock: KIFKEQ_clean_linker_1, # of connection points: 2
#     Edge 30, Type (0, 0), BuildingBlock: KIFKEQ_clean_linker_1, # of connection points: 2
#     Edge 31, Type (0, 0), BuildingBlock: KIFKEQ_clean_linker_1, # of connection points: 2
#     Edge 32, Type (0, 0), BuildingBlock: KIFKEQ_clean_linker_1, # of connection points: 2
#     Edge 33, Type (0, 0), BuildingBlock: KIFKEQ_clean_linker_1, # of connection points: 2
#     Edge 34, Type (0, 0), BuildingBlock: KIFKEQ_clean_linker_1, # of connection points: 2
#     Edge 35, Type (0, 0), BuildingBlock: KIFKEQ_clean_linker_1, # of connection points: 2
# Relax obj value: 0.192
# Max RMSD: 0.212
# Mean RMSD: 0.211
data_MOF--net-umb--node1-NAWXER_clean_sbu_0--edge1-KIFKEQ_clean_linker_1
_symmetry_space_group_name_H-M    P1
_symmetry_Int_Tables_number       1
_symmetry_cell_setting            triclinic
loop_
_symmetry_equiv_pos_as_xyz
'x, y, z'
_cell_length_a     48.028202
_cell_length_b     47.903139
_cell_length_c     37.668445
_cell_angle_alpha  90.210979
_cell_angle_beta   90.090857
_cell_angle_gamma 120.21267
loop_
_atom_site_label
_atom_site_type_symbol
_atom_site_fract_x
_atom_site_fract_y
_atom_site_fract_z
_atom_type_partial_charge
C0 C 0.56243 0.19371 0.34691 0.0
C1 C 0.49889 0.07758 0.33275 0.0
O2 O 0.56988 0.1754 0.32997 0.0
Zn3 Zn 0.53011 0.1364 0.33824 0.0
O4 O 0.53472 0.18181 0.36162 0.0
Zn5 Zn 0.49169 0.13531 0.36667 0.0
O6 O 0.48995 0.13112 0.41865 0.0
O7 O 0.53269 0.1325 0.39541 0.0
O8 O 0.48322 0.08847 0.34991 0.0
O9 O 0.52647 0.09728 0.32044 0.0
O10 O 0.49884 0.14564 0.30583 0.0
O11 O 0.46095 0.14342 0.3404 0.0
C12 C 0.5162 0.13095 0.4229 0.0
C13 C 0.4739 0.14849 0.30988 0.0
C14 C 0.35138 0.5978 0.70743 0.0
C15 C 0.41719 0.55183 0.67477 0.0
O16 O 0.3793 0.61198 0.69365 0.0
Zn17 Zn 0.38388 0.57482 0.69053 0.0
O18 O 0.33738 0.56756 0.71442 0.0
Zn19 Zn 0.3472 0.52864 0.70763 0.0
O20 O 0.34624 0.51551 0.75663 0.0
O21 O 0.3862 0.56465 0.74537 0.0
O22 O 0.38991 0.53032 0.68736 0.0
O23 O 0.42315 0.58063 0.67121 0.0
O24 O 0.34758 0.5481 0.65197 0.0
O25 O 0.3124 0.50118 0.67498 0.0
C26 C 0.37067 0.54158 0.76737 0.0
C27 C 0.32125 0.52103 0.64935 0.0
C28 C 0.83184 0.374 0.08925 0.0
C29 C 0.81871 0.31871 0.97388 0.0
O30 O 0.83506 0.34957 0.08325 0.0
Zn31 Zn 0.82946 0.34828 1.03183 0.0
O32 O 0.82704 0.38812 0.06295 0.0
Zn33 Zn 0.82149 0.3821 1.00532 0.0
O34 O 0.7801 0.377 0.99892 0.0
O35 O 0.78006 0.33766 1.02959 0.0
O36 O 0.81691 0.34436 0.97126 0.0
O37 O 0.82663 0.31214 1.00358 0.0
O38 O 0.87286 0.39253 1.01678 0.0
O39 O 0.85614 0.42078 0.98669 0.0
C40 C 0.76487 0.35064 1.01582 0.0
C41 C 0.87906 0.41817 0.99963 0.0
C42 C 0.41032 0.79057 0.44196 0.0
C43 C 0.46024 0.78008 0.33384 0.0
O44 O 0.43654 0.79055 0.4381 0.0
Zn45 Zn 0.43553 0.78614 0.38713 0.0
O46 O 0.39312 0.78737 0.41446 0.0
Zn47 Zn 0.39677 0.78214 0.35792 0.0
O48 O 0.35994 0.74138 0.3468 0.0
O49 O 0.397 0.73683 0.37655 0.0
O50 O 0.43361 0.77935 0.32745 0.0
O51 O 0.47107 0.78467 0.36542 0.0
O52 O 0.44102 0.83166 0.36854 0.0
O53 O 0.39652 0.81884 0.33889 0.0
C54 C 0.36983 0.72361 0.36011 0.0
C55 C 0.42385 0.84026 0.35051 0.0
C56 C 0.67431 0.50075 0.65434 0.0
C57 C 0.60915 0.45573 0.76356 0.0
O58 O 0.68226 0.51178 0.68581 0.0
Zn59 Zn 0.6412 0.48163 0.70897 0.0
O60 O 0.64559 0.47761 0.64839 0.0
Zn61 Zn 0.60303 0.44666 0.67829 0.0
O62 O 0.5712 0.4539 0.65893 0.0
O63 O 0.60654 0.49537 0.69091 0.0
O64 O 0.59389 0.44152 0.73498 0.0
O65 O 0.63728 0.48029 0.76098 0.0
O66 O 0.6414 0.43727 0.69896 0.0
O67 O 0.59849 0.40634 0.66603 0.0
C68 C 0.5809 0.48181 0.67159 0.0
C69 C 0.62397 0.41101 0.68156 0.0
C70 C 0.14828 0.6523 0.10476 0.0
C71 C 0.16627 0.71099 0.99393 0.0
O72 O 0.15007 0.67936 0.09958 0.0
Zn73 Zn 0.15525 0.67979 1.04924 0.0
O74 O 0.14982 0.63616 0.07816 0.0
Zn75 Zn 0.15678 0.64369 1.02045 0.0
O76 O 0.19499 0.64245 1.01252 0.0
O77 O 0.20216 0.6826 1.04754 0.0
O78 O 0.16467 0.68381 0.98879 0.0
O79 O 0.16195 0.71842 1.02493 0.0
O80 O 0.10819 0.63963 1.0323 0.0
O81 O 0.12001 0.60853 0.99991 0.0
C82 C 0.21333 0.66638 1.032 0.0
C83 C 0.09914 0.61423 1.01302 0.0
C84 C 0.75432 0.3982 0.41051 0.0
C85 C 0.86809 0.45311 0.43312 0.0
O86 O 0.77049 0.3894 0.42924 0.0
Zn87 Zn 0.81051 0.42783 0.42444 0.0
O88 O 0.76798 0.4266 0.39703 0.0
Zn89 Zn 0.81614 0.46861 0.39795 0.0
O90 O 0.82409 0.4744 0.34701 0.0
O91 O 0.81849 0.42867 0.36714 0.0
O92 O 0.86068 0.47172 0.41613 0.0
O93 O 0.84589 0.4261 0.44422 0.0
O94 O 0.8031 0.45948 0.45823 0.0
O95 O 0.81009 0.50023 0.42535 0.0
C96 C 0.82315 0.44773 0.34103 0.0
C97 C 0.80304 0.48606 0.45519 0.0
C98 C 0.31416 0.76783 0.7653 0.0
C99 C 0.39164 0.88104 0.77226 0.0
O100 O 0.34023 0.78252 0.78287 0.0
Zn101 Zn 0.3511 0.82469 0.76977 0.0
O102 O 0.30421 0.78397 0.74752 0.0
Zn103 Zn 0.32078 0.83494 0.73957 0.0
O104 O 0.32304 0.83695 0.68825 0.0
O105 O 0.35681 0.82402 0.71264 0.0
O106 O 0.36667 0.87665 0.75486 0.0
O107 O 0.39198 0.85713 0.78595 0.0
O108 O 0.31693 0.8302 0.8003 0.0
O109 O 0.28734 0.83976 0.7631 0.0
C110 C 0.34451 0.82902 0.68478 0.0
C111 C 0.2935 0.83517 0.79462 0.0
C112 C 0.5138 0.35515 1.00415 0.0
C113 C 0.47355 0.28829 0.11333 0.0
O114 O 0.48839 0.32761 1.00715 0.0
Zn115 Zn 0.49057 0.3223 0.0587 0.0
O116 O 0.5303 0.36911 1.03219 0.0
Zn117 Zn 0.52883 0.35865 0.08847 0.0
O118 O 0.56872 0.36012 0.09498 0.0
O119 O 0.53407 0.31973 0.06095 0.0
O120 O 0.4982 0.31629 0.11856 0.0
O121 O 0.46054 0.28133 0.08267 0.0
O122 O 0.48137 0.35892 0.08116 0.0
O123 O 0.52534 0.39196 0.1112 0.0
C124 C 0.56173 0.33544 0.07605 0.0
C125 C 0.49726 0.3842 0.10078 0.0
C126 C 0.15868 0.5714 0.34908 0.0
C127 C 0.18145 0.53838 0.46344 0.0
O128 O 0.14983 0.54134 0.35087 0.0
Zn129 Zn 0.14762 0.50697 0.38853 0.0
O130 O 0.16982 0.58921 0.3766 0.0
Zn131 Zn 0.16763 0.55601 0.40827 0.0
O132 O 0.20007 0.54445 0.38349 0.0
O133 O 0.17545 0.49364 0.36448 0.0
O134 O 0.18577 0.56614 0.45573 0.0
O135 O 0.16721 0.51508 0.44112 0.0
O136 O 0.10138 0.47795 0.39477 0.0
O137 O 0.11786 0.52668 0.41627 0.0
C138 C 0.20102 0.52099 0.36839 0.0
C139 C 0.09509 0.49786 0.41008 0.0
C140 C 0.68006 0.17651 0.77762 0.0
C141 C 0.61258 0.14488 0.66849 0.0
O142 O 0.6863 0.16887 0.74754 0.0
Zn143 Zn 0.6453 0.15712 0.72316 0.0
O144 O 0.65245 0.17378 0.78248 0.0
Zn145 Zn 0.61009 0.16034 0.75203 0.0
O146 O 0.57714 0.12535 0.77611 0.0
O147 O 0.60778 0.11165 0.74602 0.0
O148 O 0.59906 0.14901 0.69582 0.0
O149 O 0.6398 0.14664 0.67227 0.0
O150 O 0.64703 0.20347 0.72155 0.0
O151 O 0.6071 0.19752 0.75583 0.0
C152 C 0.58311 0.10378 0.76581 0.0
C153 C 0.6304 0.2149 0.73543 0.0
C154 C 0.43211 0.59551 1.02497 0.0
C155 C 0.46889 0.64951 0.13958 0.0
O156 O 0.45909 0.62017 1.03273 0.0
Zn157 Zn 0.45139 0.62125 0.08263 0.0
O158 O 0.41134 0.58091 1.04957 0.0
Zn159 Zn 0.40833 0.58612 0.10637 0.0
O160 O 0.3714 0.59121 0.11001 0.0
O161 O 0.41233 0.63147 0.08228 0.0
O162 O 0.44126 0.62372 0.14168 0.0
O163 O 0.48382 0.65692 0.11023 0.0
O164 O 0.45184 0.57896 0.10112 0.0
O165 O 0.40422 0.54692 0.12473 0.0
C166 C 0.38335 0.61807 0.09394 0.0
C167 C 0.43202 0.55226 0.11624 0.0
H168 H 0.48462 0.11699 0.4872 0.0
H169 H 0.57686 0.14425 0.44073 0.0
H170 H 0.50629 0.1173 0.54597 0.0
H171 H 0.59902 0.14618 0.49922 0.0
H172 H 0.62725 0.12491 0.60606 0.0
H173 H 0.60256 0.11869 0.5477 0.0
H174 H 0.53929 0.14968 0.59143 0.0
H175 H 0.56287 0.15424 0.64974 0.0
C176 C 0.50957 0.1232 0.48951 0.0
C177 C 0.52887 0.13051 0.45906 0.0
C178 C 0.52219 0.12363 0.52338 0.0
C179 C 0.55467 0.13186 0.5279 0.0
C180 C 0.57382 0.13906 0.49724 0.0
C181 C 0.56109 0.13819 0.46345 0.0
C182 C 0.6079 0.13014 0.60321 0.0
C183 C 0.5971 0.14001 0.63277 0.0
C184 C 0.5938 0.12684 0.56955 0.0
C185 C 0.56877 0.13378 0.56427 0.0
C186 C 0.55794 0.14345 0.59408 0.0
C187 C 0.57171 0.1463 0.62773 0.0
H188 H 0.3464 0.49809 0.82242 0.0
H189 H 0.41784 0.59674 0.79794 0.0
H190 H 0.36256 0.50819 0.88494 0.0
H191 H 0.43304 0.60706 0.85989 0.0
H192 H 0.47299 0.61309 0.96836 0.0
H193 H 0.4593 0.59667 0.90657 0.0
H194 H 0.35914 0.53693 0.93534 0.0
H195 H 0.37309 0.5524 0.99732 0.0
C196 C 0.36554 0.52185 0.83033 0.0
C197 C 0.38081 0.54656 0.80514 0.0
C198 C 0.37469 0.52772 0.86618 0.0
C199 C 0.39919 0.55845 0.87756 0.0
C200 C 0.41458 0.58292 0.85216 0.0
C201 C 0.40562 0.57703 0.8165 0.0
C202 C 0.44809 0.59627 0.96152 0.0
C203 C 0.42411 0.58426 0.98771 0.0
C204 C 0.44018 0.58694 0.92604 0.0
C205 C 0.40802 0.5657 0.9158 0.0
C206 C 0.38419 0.55301 0.94222 0.0
C207 C 0.39217 0.56208 0.97777 0.0
H208 H 0.81239 0.38875 0.31832 0.0
H209 H 0.84093 0.48431 0.28021 0.0
H210 H 0.81541 0.37168 0.25828 0.0
H211 H 0.84523 0.46765 0.22014 0.0
H212 H 0.81605 0.41875 0.11129 0.0
H213 H 0.8149 0.43672 0.17141 0.0
H214 H 0.84893 0.37471 0.21144 0.0
H215 H 0.84882 0.35579 0.15115 0.0
C216 C 0.81969 0.4063 0.29717 0.0
C217 C 0.82634 0.43795 0.30426 0.0
C218 C 0.82165 0.39652 0.26258 0.0
C219 C 0.8306 0.41815 0.23393 0.0
C220 C 0.83769 0.45 0.24118 0.0
C221 C 0.83544 0.4597 0.27578 0.0
C222 C 0.8234 0.40897 0.13287 0.0
C223 C 0.83249 0.38572 0.12621 0.0
C224 C 0.82295 0.41949 0.16753 0.0
C225 C 0.83186 0.40734 0.19671 0.0
C226 C 0.84135 0.38433 0.18994 0.0
C227 C 0.84152 0.37358 0.15523 0.0
H228 H 0.35276 0.78517 0.46102 0.0
H229 H 0.44532 0.80756 0.50364 0.0
H230 H 0.33682 0.79438 0.51934 0.0
H231 H 0.42992 0.81791 0.56155 0.0
H232 H 0.38144 0.80221 0.66885 0.0
H233 H 0.39644 0.79218 0.61066 0.0
H234 H 0.34592 0.83537 0.56133 0.0
H235 H 0.32991 0.84436 0.61981 0.0
C236 C 0.36977 0.79217 0.48281 0.0
C237 C 0.40028 0.79549 0.47763 0.0
C238 C 0.36072 0.79772 0.51625 0.0
C239 C 0.38205 0.80698 0.54535 0.0
C240 C 0.41258 0.8103 0.54005 0.0
C241 C 0.42152 0.80449 0.50671 0.0
C242 C 0.3736 0.8097 0.64563 0.0
C243 C 0.35451 0.82417 0.64907 0.0
C244 C 0.38236 0.80407 0.61213 0.0
C245 C 0.37253 0.813 0.58108 0.0
C246 C 0.35356 0.82769 0.58455 0.0
C247 C 0.34456 0.83309 0.61812 0.0
H248 H 0.55995 0.41773 0.99013 0.0
H249 H 0.49502 0.32778 0.93756 0.0
H250 H 0.58156 0.44273 0.93302 0.0
H251 H 0.5176 0.35226 0.88027 0.0
H252 H 0.54638 0.41049 0.77829 0.0
H253 H 0.52233 0.38749 0.83544 0.0
H254 H 0.6147 0.44661 0.88647 0.0
H255 H 0.63824 0.47059 0.82939 0.0
C256 C 0.55028 0.40319 0.96633 0.0
C257 C 0.52562 0.37065 0.96866 0.0
C258 C 0.56296 0.41751 0.93336 0.0
C259 C 0.55175 0.39971 0.90146 0.0
C260 C 0.52675 0.36718 0.90386 0.0
C261 C 0.51378 0.35295 0.93689 0.0
C262 C 0.56155 0.41877 0.80174 0.0
C263 C 0.59433 0.44255 0.79903 0.0
C264 C 0.54775 0.40529 0.83471 0.0
C265 C 0.56635 0.41483 0.86614 0.0
C266 C 0.59918 0.43882 0.86331 0.0
C267 C 0.61287 0.45257 0.83037 0.0
H268 H 0.15017 0.62298 0.33513 0.0
H269 H 0.16385 0.54985 0.28445 0.0
H270 H 0.14464 0.6421 0.27679 0.0
H271 H 0.16037 0.56979 0.22663 0.0
H272 H 0.12499 0.59014 0.12627 0.0
H273 H 0.12537 0.57109 0.18595 0.0
H274 H 0.1707 0.66938 0.22528 0.0
H275 H 0.16831 0.68792 0.16587 0.0
C276 C 0.15236 0.61129 0.3115 0.0
C277 C 0.15708 0.58475 0.3143 0.0
C278 C 0.14934 0.62227 0.278 0.0
C279 C 0.15163 0.60731 0.24666 0.0
C280 C 0.15733 0.58135 0.24986 0.0
C281 C 0.15965 0.57004 0.28314 0.0
C282 C 0.13472 0.60757 0.14779 0.0
C283 C 0.14667 0.64049 0.14137 0.0
C284 C 0.13527 0.59675 0.18206 0.0
C285 C 0.14857 0.61868 0.2107 0.0
C286 C 0.1599 0.65161 0.20424 0.0
C287 C 0.15869 0.66232 0.17005 0.0
H288 H 0.71097 0.34987 0.45198 0.0
H289 H 0.72318 0.39281 0.34836 0.0
H290 H 0.65921 0.30442 0.43324 0.0
H291 H 0.67152 0.3467 0.32929 0.0
H292 H 0.55952 0.23504 0.39437 0.0
H293 H 0.60165 0.29018 0.40809 0.0
H294 H 0.66044 0.28564 0.32428 0.0
H295 H 0.61851 0.23019 0.31065 0.0
C296 C 0.70215 0.34986 0.42548 0.0
C297 C 0.72089 0.37455 0.4015 0.0
C298 C 0.67257 0.32403 0.41484 0.0
C299 C 0.66168 0.32226 0.37987 0.0
C300 C 0.6796 0.34776 0.35639 0.0
C301 C 0.70892 0.37405 0.36733 0.0
C302 C 0.58116 0.24596 0.3784 0.0
C303 C 0.58601 0.22821 0.35176 0.0
C304 C 0.60513 0.27748 0.38624 0.0
C305 C 0.63403 0.29189 0.36717 0.0
C306 C 0.6381 0.27499 0.33904 0.0
C307 C 0.61431 0.24324 0.33151 0.0
H308 H 0.31258 0.72448 0.81251 0.0
H309 H 0.28363 0.73296 0.70635 0.0
H310 H 0.30778 0.67292 0.79663 0.0
H311 H 0.27928 0.68146 0.69031 0.0
H312 H 0.30303 0.58265 0.7548 0.0
H313 H 0.27725 0.61437 0.76876 0.0
H314 H 0.33527 0.68384 0.68892 0.0
H315 H 0.36133 0.6527 0.67543 0.0
C316 C 0.30375 0.71453 0.78629 0.0
C317 C 0.29921 0.73284 0.76036 0.0
C318 C 0.30083 0.68497 0.77725 0.0
C319 C 0.29383 0.67376 0.74208 0.0
C320 C 0.28495 0.68991 0.71753 0.0
C321 C 0.28736 0.71927 0.72675 0.0
C322 C 0.30991 0.60451 0.73998 0.0
C323 C 0.3345 0.61564 0.71447 0.0
C324 C 0.295 0.62239 0.74778 0.0
C325 C 0.30399 0.65116 0.72955 0.0
C326 C 0.32744 0.66135 0.70284 0.0
C327 C 0.34275 0.64387 0.69554 0.0
H328 H 0.61407 0.3498 0.11678 0.0
H329 H 0.564 0.29998 1.02076 0.0
H330 H 0.65851 0.34122 0.10136 0.0
H331 H 0.60886 0.2919 1.00515 0.0
H332 H 0.72993 0.31224 0.0706 0.0
H333 H 0.6746 0.29689 0.08619 0.0
H334 H 0.66673 0.34136 0.9901 0.0
H335 H 0.72205 0.35721 0.97479 0.0
C336 C 0.61235 0.3365 0.09276 0.0
C337 C 0.58598 0.326 0.06965 0.0
C338 C 0.63754 0.33128 0.08416 0.0
C339 C 0.63688 0.31594 1.05211 0.0
C340 C 0.60967 0.30371 1.03004 0.0
C341 C 0.58418 0.30842 1.03895 0.0
C342 C 0.71605 0.31797 1.05241 0.0
C343 C 0.73022 0.33632 1.02181 0.0
C344 C 0.68452 0.30917 0.06133 0.0
C345 C 0.6667 0.31802 1.0393 0.0
C346 C 0.68001 0.33402 1.00727 0.0
C347 C 0.71167 0.34335 0.99871 0.0
H348 H 0.31251 0.68912 0.32548 0.0
H349 H 0.38475 0.67784 0.3816 0.0
H350 H 0.28062 0.6313 0.31713 0.0
H351 H 0.35277 0.6193 0.37257 0.0
H352 H 0.25173 0.52858 0.40655 0.0
H353 H 0.30298 0.57729 0.39698 0.0
H354 H 0.27363 0.58272 0.28996 0.0
H355 H 0.22167 0.53448 0.30049 0.0
C356 C 0.32179 0.67429 0.33575 0.0
C357 C 0.35096 0.68814 0.35471 0.0
C358 C 0.30371 0.641 0.33038 0.0
C359 C 0.31426 0.62047 0.34374 0.0
C360 C 0.34394 0.63437 0.3619 0.0
C361 C 0.36213 0.66788 0.36727 0.0
C362 C 0.25716 0.53879 0.3801 0.0
C363 C 0.23249 0.52848 0.35464 0.0
C364 C 0.28654 0.56716 0.3747 0.0
C365 C 0.29169 0.58489 0.34332 0.0
C366 C 0.26979 0.57027 0.315 0.0
C367 C 0.24025 0.54208 0.32066 0.0
H368 H 0.59387 0.35407 0.64523 0.0
H369 H 0.67453 0.41143 0.71538 0.0
H370 H 0.60274 0.30861 0.65222 0.0
H371 H 0.68315 0.36558 0.72212 0.0
H372 H 0.59002 0.23783 0.74637 0.0
H373 H 0.59549 0.28796 0.72503 0.0
H374 H 0.68797 0.31456 0.67964 0.0
H375 H 0.68244 0.26334 0.7006 0.0
C376 C 0.61391 0.35723 0.66146 0.0
C377 C 0.6329 0.38589 0.68065 0.0
C378 C 0.61915 0.33139 0.66506 0.0
C379 C 0.6435 0.33397 0.68771 0.0
C380 C 0.66445 0.36345 0.70427 0.0
C381 C 0.6592 0.38939 0.70073 0.0
C382 C 0.6117 0.2543 0.7321 0.0
C383 C 0.63582 0.2467 0.72506 0.0
C384 C 0.61463 0.2828 0.71968 0.0
C385 C 0.64185 0.30443 0.70039 0.0
C386 C 0.66667 0.29774 0.69424 0.0
C387 C 0.66351 0.2687 0.70626 0.0
H388 H 0.25278 0.65728 0.98813 0.0
H389 H 0.24604 0.687 0.09461 0.0
H390 H 0.30001 0.65396 1.00539 0.0
H391 H 0.29314 0.68306 0.11212 0.0
H392 H 0.3937 0.66411 1.045 0.0
H393 H 0.35853 0.68582 1.03093 0.0
H394 H 0.29394 0.62861 0.11471 0.0
H395 H 0.32874 0.60654 0.12855 0.0
C396 C 0.26202 0.66399 1.01496 0.0
C397 C 0.24581 0.67225 1.0401 0.0
C398 C 0.28906 0.66219 1.0248 0.0
C399 C 0.29995 0.66801 0.06012 0.0
C400 C 0.28504 0.67836 0.08475 0.0
C401 C 0.25832 0.68083 0.07468 0.0
C402 C 0.37222 0.65652 0.06074 0.0
C403 C 0.36374 0.63337 0.08763 0.0
C404 C 0.35219 0.66897 0.05268 0.0
C405 C 0.3237 0.65897 0.07185 0.0
C406 C 0.31602 0.63702 0.09985 0.0
C407 C 0.33574 0.62415 0.10751 0.0
H408 H 0.43972 0.02827 0.35306 0.0
H409 H 0.53004 0.04714 0.30735 0.0
H410 H 0.42158 0.97064 0.35465 0.0
H411 H 0.5118 -0.01042 0.30894 0.0
H412 H 0.48327 0.89247 0.36516 0.0
H413 H 0.50065 0.94956 0.35745 0.0
H414 H 0.40716 0.9234 0.31453 0.0
H415 H 0.3897 0.8664 0.32225 0.0
C416 C 0.45554 0.02012 0.34295 0.0
C417 C 0.48636 0.04235 0.33019 0.0
C418 C 0.44511 0.9871 0.34378 0.0
C419 C 0.46539 0.97565 0.33216 0.0
C420 C 0.49583 -0.00225 0.31851 0.0
C421 C 0.50615 0.03071 0.31737 0.0
C422 C 0.46649 0.89888 0.3539 0.0
C423 C 0.4351 0.87487 0.34439 0.0
C424 C 0.47649 0.93157 0.34931 0.0
C425 C 0.45523 0.94093 0.33542 0.0
C426 C 0.42397 0.91692 0.32559 0.0
C427 C 0.41406 0.88426 0.32986 0.0
H428 H 0.4814 0.59341 0.66353 0.0
H429 H 0.41028 0.49187 0.67057 0.0
H430 H 0.52395 0.57983 0.65808 0.0
H431 H 0.45271 0.47846 0.66518 0.0
H432 H 0.53074 0.46206 0.62565 0.0
H433 H 0.49302 0.48162 0.62122 0.0
H434 H 0.5478 0.55526 0.69962 0.0
H435 H 0.58603 0.53572 0.70407 0.0
C436 C 0.47479 0.56821 0.66341 0.0
C437 C 0.44247 0.54367 0.66751 0.0
C438 C 0.49918 0.56051 0.66055 0.0
C439 C 0.49161 0.52815 0.66125 0.0
C440 C 0.45921 0.50362 0.66418 0.0
C441 C 0.43491 0.5113 0.66741 0.0
C442 C 0.53507 0.48268 0.64171 0.0
C443 C 0.56113 0.49706 0.66565 0.0
C444 C 0.51337 0.4938 0.63917 0.0
C445 C 0.51724 0.51961 0.66042 0.0
C446 C 0.54434 0.53534 0.68284 0.0
C447 C 0.56614 0.52412 0.68546 0.0
H448 H 0.90395 0.46638 0.95073 0.0
H449 H 0.92802 0.43396 1.04674 0.0
H450 H 0.9562 0.51638 0.9529 0.0
H451 H 0.98003 0.48433 1.0492 0.0
H452 H 0.05067 0.59485 0.06136 0.0
H453 H -0.00333 0.54684 0.05694 0.0
H454 H 0.01714 0.53015 0.94996 0.0
H455 H 0.07114 0.57747 0.95462 0.0
C456 C 0.92054 0.46983 0.97207 0.0
C457 C 0.91205 0.44623 0.99845 0.0
C458 C 0.9503 0.49843 0.97336 0.0
C459 C 0.97179 0.50425 1.00147 0.0
C460 C 0.96359 0.48049 1.02753 0.0
C461 C 0.93409 0.45156 1.02585 0.0
C462 C 0.04327 0.58131 1.03669 0.0
C463 C 0.0649 0.58979 1.0083 0.0
C464 C 0.01264 0.55373 1.0343 0.0
C465 C 0.00304 0.53478 1.00322 0.0
C466 C 0.02402 0.5444 0.97416 0.0
C467 C 0.05481 0.57145 0.97682 0.0
H468 H 0.03855 0.4407 0.39766 0.0
H469 H 0.07615 0.53643 0.44222 0.0
H470 H -0.01638 0.43009 0.40742 0.0
H471 H 0.02172 0.52576 0.45179 0.0
H472 H 0.92239 0.50866 0.41288 0.0
H473 H 0.97736 0.51833 0.41077 0.0
H474 H 0.94532 0.42463 0.45684 0.0
H475 H 0.89041 0.41484 0.45905 0.0
C476 C 0.03515 0.45927 0.40988 0.0
C477 C 0.06174 0.48945 0.41888 0.0
C478 C 0.00376 0.45319 0.41553 0.0
C479 C -0.0015 0.47727 0.43005 0.0
C480 C 0.02507 0.50697 0.44007 0.0
C481 C 0.05628 0.51295 0.43468 0.0
C482 C 0.92714 0.49033 0.42305 0.0
C483 C 0.90201 0.46099 0.43606 0.0
C484 C 0.9586 0.49586 0.42186 0.0
C485 C 0.9655 0.47208 0.4334 0.0
C486 C 0.94058 0.44316 0.44735 0.0
C487 C 0.9092 0.43774 0.44886 0.0
H488 H 0.58 0.04887 0.73868 0.0
H489 H 0.53137 0.08175 0.80936 0.0
H490 H 0.53418 -0.00641 0.74308 0.0
H491 H 0.48593 0.02708 0.81306 0.0
H492 H 0.39668 0.9396 0.75991 0.0
H493 H 0.44562 -0.00729 0.7622 0.0
H494 H 0.50128 0.94821 0.79126 0.0
H495 H 0.45245 0.89515 0.7895 0.0
C496 C 0.55996 0.04425 0.75565 0.0
C497 C 0.55914 0.06973 0.77327 0.0
C498 C 0.53377 0.01272 0.75808 0.0
C499 C 0.50645 0.00644 0.77788 0.0
C500 C 0.50652 0.03152 0.79713 0.0
C501 C 0.53266 0.06277 0.79507 0.0
C502 C 0.41931 0.94118 0.76697 0.0
C503 C 0.42072 0.91329 0.77468 0.0
C504 C 0.44723 0.97149 0.76837 0.0
C505 C 0.47705 0.97434 0.77694 0.0
C506 C 0.47854 0.94651 0.78446 0.0
C507 C 0.45057 0.91626 0.78366 0.0
H508 H 0.39198 0.48842 0.13203 0.0
H509 H 0.49143 0.55854 0.1098 0.0
H510 H 0.40554 0.44558 0.13299 0.0
H511 H 0.50482 0.51583 0.1107 0.0
H512 H 0.52483 0.43773 0.14309 0.0
H513 H 0.50749 0.47693 0.15207 0.0
H514 H 0.42346 0.4193 0.08689 0.0
H515 H 0.44072 0.37964 0.07791 0.0
C516 C 0.41679 0.49477 0.12784 0.0
C517 C 0.44065 0.52688 0.12079 0.0
C518 C 0.42446 0.4702 0.12814 0.0
C519 C 0.45619 0.47735 0.12185 0.0
C520 C 0.4802 0.50961 0.11599 0.0
C521 C 0.4725 0.53407 0.11533 0.0
C522 C 0.50245 0.43312 0.13092 0.0
C523 C 0.48433 0.40569 0.10941 0.0
C524 C 0.49261 0.45569 0.13602 0.0
C525 C 0.46435 0.45137 0.11987 0.0
C526 C 0.4453 0.42317 0.09981 0.0
C527 C 0.45524 0.40053 0.09456 0.0
H528 H 0.44093 0.1816 0.3134 0.0
H529 H 0.48499 0.14692 0.23896 0.0
H530 H 0.43355 0.21202 0.26573 0.0
H531 H 0.47729 0.17692 0.19142 0.0
H532 H 0.44405 0.22211 0.10729 0.0
H533 H 0.43691 0.18367 0.15427 0.0
H534 H 0.47399 0.26105 0.23143 0.0
H535 H 0.48148 0.2993 0.18467 0.0
C536 C 0.44826 0.17974 0.28673 0.0
C537 C 0.46361 0.16181 0.28011 0.0
C538 C 0.44427 0.1974 0.25944 0.0
C539 C 0.45497 0.19709 0.2247 0.0
C540 C 0.46852 0.17757 0.21771 0.0
C541 C 0.47303 0.16041 0.24506 0.0
C542 C 0.44994 0.23074 0.13441 0.0
C543 C 0.46335 0.26382 0.14216 0.0
C544 C 0.44611 0.20877 0.1613 0.0
C545 C 0.45498 0.21925 0.19669 0.0
C546 C 0.46663 0.25201 0.20463 0.0
C547 C 0.47102 0.274 0.17773 0.0
H548 H 0.2275 0.58452 0.50687 0.0
H549 H 0.17075 0.48119 0.49113 0.0
H550 H 0.25962 0.57659 0.55168 0.0
H551 H 0.20304 0.47338 0.53581 0.0
H552 H 0.2561 0.47818 0.64377 0.0
H553 H 0.21894 0.48077 0.60099 0.0
H554 H 0.29961 0.55774 0.54578 0.0
H555 H 0.33652 0.55518 0.58803 0.0
C556 C 0.22144 0.56011 0.51345 0.0
C557 C 0.19672 0.53353 0.49522 0.0
C558 C 0.24006 0.55557 0.53883 0.0
C559 C 0.2342 0.52437 0.54674 0.0
C560 C 0.20816 0.49768 0.53022 0.0
C561 C 0.18971 0.50222 0.50461 0.0
C562 C 0.26591 0.49503 0.62194 0.0
C563 C 0.29926 0.51663 0.61949 0.0
C564 C 0.24462 0.49669 0.59764 0.0
C565 C 0.25637 0.52008 0.57066 0.0
C566 C 0.28979 0.54011 0.5669 0.0
C567 C 0.31096 0.53835 0.59092 0.0
H568 H 0.7896 0.25261 0.97647 0.0
H569 H 0.8193 0.33167 0.90334 0.0
H570 H 0.75968 0.21422 0.92851 0.0
H571 H 0.79001 0.2934 0.85544 0.0
H572 H 0.66999 0.17411 0.84892 0.0
H573 H 0.70884 0.20543 0.89546 0.0
H574 H 0.78487 0.24574 0.81773 0.0
H575 H 0.74588 0.21371 0.771 0.0
C576 C 0.79063 0.26176 0.94996 0.0
C577 C 0.80686 0.29523 0.94377 0.0
C578 C 0.77326 0.23978 0.92254 0.0
C579 C 0.77232 0.25074 0.88815 0.0
C580 C 0.7904 0.28409 0.88149 0.0
C581 C 0.80716 0.30605 0.909 0.0
C582 C 0.69512 0.18906 0.84183 0.0
C583 C 0.70481 0.19136 0.80622 0.0
C584 C 0.71743 0.20694 0.86857 0.0
C585 C 0.74997 0.22816 0.86036 0.0
C586 C 0.75995 0.22965 0.82491 0.0
C587 C 0.73768 0.21115 0.79819 0.0
H588 H 0.45557 0.63571 0.20968 0.0
H589 H 0.50725 0.71513 0.13737 0.0
H590 H 0.46468 0.6739 0.25757 0.0
H591 H 0.51574 0.75337 0.18528 0.0
H592 H 0.49618 0.75087 0.34143 0.0
H593 H 0.5087 0.72306 0.29496 0.0
H594 H 0.46925 0.75869 0.21602 0.0
H595 H 0.4561 0.78589 0.26239 0.0
C596 C 0.4696 0.66135 0.20428 0.0
C597 C 0.48057 0.67244 0.16979 0.0
C598 C 0.47493 0.68322 0.23171 0.0
C599 C 0.4908 0.71656 0.22503 0.0
C600 C 0.50343 0.72777 0.19106 0.0
C601 C 0.49869 0.70589 0.16375 0.0
C602 C 0.49111 0.7536 0.31403 0.0
C603 C 0.47497 0.77037 0.30551 0.0
C604 C 0.49814 0.73755 0.28752 0.0
C605 C 0.48983 0.73865 0.252 0.0
C606 C 0.47616 0.75766 0.24316 0.0
C607 C 0.46853 0.77313 0.26971 0.0
H608 H 0.73928 0.5234 0.66003 0.0
H609 H 0.66351 0.49792 0.58302 0.0
H610 H 0.77565 0.52703 0.61232 0.0
H611 H 0.69979 0.5019 0.53551 0.0
H612 H 0.77781 0.5264 0.45336 0.0
H613 H 0.75106 0.53808 0.50178 0.0
H614 H 0.77477 0.48312 0.57367 0.0
H615 H 0.80108 0.47119 0.52542 0.0
C616 C 0.73068 0.51959 0.63285 0.0
C617 C 0.69846 0.51037 0.62537 0.0
C618 C 0.75142 0.52135 0.60554 0.0
C619 C 0.7406 0.51455 0.57006 0.0
C620 C 0.70905 0.50752 0.56242 0.0
C621 C 0.6882 0.50519 0.58971 0.0
C622 C 0.7779 0.51738 0.47966 0.0
C623 C 0.79152 0.49775 0.48542 0.0
C624 C 0.76239 0.52391 0.50737 0.0
C625 C 0.76067 0.51148 0.54165 0.0
C626 C 0.77587 0.49335 0.54776 0.0
C627 C 0.79085 0.48637 0.51999 0.0
H628 H 0.16022 0.69801 0.92308 0.0
H629 H 0.19592 0.77692 0.99835 0.0
H630 H 0.18587 0.73633 0.87492 0.0
H631 H 0.22207 0.81542 0.94994 0.0
H632 H 0.22829 0.80918 0.79074 0.0
H633 H 0.19045 0.78419 0.83987 0.0
H634 H 0.27014 0.822 0.9138 0.0
H635 H 0.3078 0.84649 0.86486 0.0
C636 C 0.17293 0.72361 0.92921 0.0
C637 C 0.17635 0.73445 0.96451 0.0
C638 C 0.18741 0.7456 0.90157 0.0
C639 C 0.20606 0.77888 0.90869 0.0
C640 C 0.20786 0.78989 0.94374 0.0
C641 C 0.19285 0.76786 0.97139 0.0
C642 C 0.2376 0.81324 0.81764 0.0
C643 C 0.27097 0.82951 0.82401 0.0
C644 C 0.21596 0.79874 0.8457 0.0
C645 C 0.22738 0.80085 0.88058 0.0
C646 C 0.26058 0.82008 0.88726 0.0
C647 C 0.28218 0.83405 0.85921 0.0
loop_
_geom_bond_atom_site_label_1
_geom_bond_atom_site_label_2
_geom_bond_distance
_geom_bond_site_symmetry_2
_ccdc_geom_bond_type
C0 O2 1.247 . S
C0 O4 1.258 . S
C1 O8 1.247 . S
C1 O9 1.258 . S
O2 C0 1.247 . S
O2 Zn3 2.028 . S
Zn3 O2 2.028 . S
Zn3 O7 2.035 . S
Zn3 O9 2.035 . S
Zn3 O10 2.028 . S
O4 C0 1.258 . S
O4 Zn5 2.035 . S
Zn5 O4 2.035 . S
Zn5 O6 2.028 . S
Zn5 O8 2.028 . S
Zn5 O11 2.035 . S
O6 Zn5 2.028 . S
O6 C12 1.247 . S
O7 Zn3 2.035 . S
O7 C12 1.258 . S
O8 C1 1.247 . S
O8 Zn5 2.028 . S
O9 C1 1.258 . S
O9 Zn3 2.035 . S
O10 Zn3 2.028 . S
O10 C13 1.247 . S
O11 Zn5 2.035 . S
O11 C13 1.258 . S
C12 O6 1.247 . S
C12 O7 1.258 . S
C13 O10 1.247 . S
C13 O11 1.258 . S
C14 O16 1.247 . S
C14 O18 1.258 . S
C15 O22 1.247 . S
C15 O23 1.258 . S
O16 C14 1.247 . S
O16 Zn17 2.028 . S
Zn17 O16 2.028 . S
Zn17 O21 2.035 . S
Zn17 O23 2.035 . S
Zn17 O24 2.028 . S
O18 C14 1.258 . S
O18 Zn19 2.035 . S
Zn19 O18 2.035 . S
Zn19 O20 2.028 . S
Zn19 O22 2.028 . S
Zn19 O25 2.035 . S
O20 Zn19 2.028 . S
O20 C26 1.247 . S
O21 Zn17 2.035 . S
O21 C26 1.258 . S
O22 C15 1.247 . S
O22 Zn19 2.028 . S
O23 C15 1.258 . S
O23 Zn17 2.035 . S
O24 Zn17 2.028 . S
O24 C27 1.247 . S
O25 Zn19 2.035 . S
O25 C27 1.258 . S
C26 O20 1.247 . S
C26 O21 1.258 . S
C27 O24 1.247 . S
C27 O25 1.258 . S
C28 O30 1.247 . S
C28 O32 1.258 . S
C29 O36 1.247 . S
C29 O37 1.258 . S
O30 C28 1.247 . S
O30 Zn31 2.028 . S
Zn31 O30 2.028 . S
Zn31 O35 2.035 . S
Zn31 O37 2.035 1_554 S
Zn31 O38 2.028 . S
O32 C28 1.258 . S
O32 Zn33 2.035 1_554 S
Zn33 O32 2.035 1_556 S
Zn33 O34 2.028 . S
Zn33 O36 2.028 . S
Zn33 O39 2.035 . S
O34 Zn33 2.028 . S
O34 C40 1.247 1_556 S
O35 Zn31 2.035 . S
O35 C40 1.258 . S
O36 C29 1.247 . S
O36 Zn33 2.028 . S
O37 C29 1.258 . S
O37 Zn31 2.035 1_556 S
O38 Zn31 2.028 . S
O38 C41 1.247 1_554 S
O39 Zn33 2.035 . S
O39 C41 1.258 . S
C40 O34 1.247 1_554 S
C40 O35 1.258 . S
C41 O38 1.247 1_556 S
C41 O39 1.258 . S
C42 O44 1.247 . S
C42 O46 1.258 . S
C43 O50 1.247 . S
C43 O51 1.258 . S
O44 C42 1.247 . S
O44 Zn45 2.028 . S
Zn45 O44 2.028 . S
Zn45 O49 2.035 . S
Zn45 O51 2.035 . S
Zn45 O52 2.028 . S
O46 C42 1.258 . S
O46 Zn47 2.035 . S
Zn47 O46 2.035 . S
Zn47 O48 2.028 . S
Zn47 O50 2.028 . S
Zn47 O53 2.035 . S
O48 Zn47 2.028 . S
O48 C54 1.247 . S
O49 Zn45 2.035 . S
O49 C54 1.258 . S
O50 C43 1.247 . S
O50 Zn47 2.028 . S
O51 C43 1.258 . S
O51 Zn45 2.035 . S
O52 Zn45 2.028 . S
O52 C55 1.247 . S
O53 Zn47 2.035 . S
O53 C55 1.258 . S
C54 O48 1.247 . S
C54 O49 1.258 . S
C55 O52 1.247 . S
C55 O53 1.258 . S
C56 O58 1.247 . S
C56 O60 1.258 . S
C57 O64 1.247 . S
C57 O65 1.258 . S
O58 C56 1.247 . S
O58 Zn59 2.028 . S
Zn59 O58 2.028 . S
Zn59 O63 2.035 . S
Zn59 O65 2.035 . S
Zn59 O66 2.028 . S
O60 C56 1.258 . S
O60 Zn61 2.035 . S
Zn61 O60 2.035 . S
Zn61 O62 2.028 . S
Zn61 O64 2.028 . S
Zn61 O67 2.035 . S
O62 Zn61 2.028 . S
O62 C68 1.247 . S
O63 Zn59 2.035 . S
O63 C68 1.258 . S
O64 C57 1.247 . S
O64 Zn61 2.028 . S
O65 C57 1.258 . S
O65 Zn59 2.035 . S
O66 Zn59 2.028 . S
O66 C69 1.247 . S
O67 Zn61 2.035 . S
O67 C69 1.258 . S
C68 O62 1.247 . S
C68 O63 1.258 . S
C69 O66 1.247 . S
C69 O67 1.258 . S
C70 O72 1.247 . S
C70 O74 1.258 . S
C71 O78 1.247 . S
C71 O79 1.258 . S
O72 C70 1.247 . S
O72 Zn73 2.028 . S
Zn73 O72 2.028 . S
Zn73 O77 2.035 . S
Zn73 O79 2.035 1_554 S
Zn73 O80 2.028 . S
O74 C70 1.258 . S
O74 Zn75 2.035 1_554 S
Zn75 O74 2.035 1_556 S
Zn75 O76 2.028 . S
Zn75 O78 2.028 . S
Zn75 O81 2.035 . S
O76 Zn75 2.028 . S
O76 C82 1.247 1_556 S
O77 Zn73 2.035 . S
O77 C82 1.258 . S
O78 C71 1.247 . S
O78 Zn75 2.028 . S
O79 C71 1.258 . S
O79 Zn73 2.035 1_556 S
O80 Zn73 2.028 . S
O80 C83 1.247 1_554 S
O81 Zn75 2.035 . S
O81 C83 1.258 . S
C82 O76 1.247 1_554 S
C82 O77 1.258 . S
C83 O80 1.247 1_556 S
C83 O81 1.258 . S
C84 O86 1.247 . S
C84 O88 1.258 . S
C85 O92 1.247 . S
C85 O93 1.258 . S
O86 C84 1.247 . S
O86 Zn87 2.028 . S
Zn87 O86 2.028 . S
Zn87 O91 2.035 . S
Zn87 O93 2.035 . S
Zn87 O94 2.028 . S
O88 C84 1.258 . S
O88 Zn89 2.035 . S
Zn89 O88 2.035 . S
Zn89 O90 2.028 . S
Zn89 O92 2.028 . S
Zn89 O95 2.035 . S
O90 Zn89 2.028 . S
O90 C96 1.247 . S
O91 Zn87 2.035 . S
O91 C96 1.258 . S
O92 C85 1.247 . S
O92 Zn89 2.028 . S
O93 C85 1.258 . S
O93 Zn87 2.035 . S
O94 Zn87 2.028 . S
O94 C97 1.247 . S
O95 Zn89 2.035 . S
O95 C97 1.258 . S
C96 O90 1.247 . S
C96 O91 1.258 . S
C97 O94 1.247 . S
C97 O95 1.258 . S
C98 O100 1.247 . S
C98 O102 1.258 . S
C99 O106 1.247 . S
C99 O107 1.258 . S
O100 C98 1.247 . S
O100 Zn101 2.028 . S
Zn101 O100 2.028 . S
Zn101 O105 2.035 . S
Zn101 O107 2.035 . S
Zn101 O108 2.028 . S
O102 C98 1.258 . S
O102 Zn103 2.035 . S
Zn103 O102 2.035 . S
Zn103 O104 2.028 . S
Zn103 O106 2.028 . S
Zn103 O109 2.035 . S
O104 Zn103 2.028 . S
O104 C110 1.247 . S
O105 Zn101 2.035 . S
O105 C110 1.258 . S
O106 C99 1.247 . S
O106 Zn103 2.028 . S
O107 C99 1.258 . S
O107 Zn101 2.035 . S
O108 Zn101 2.028 . S
O108 C111 1.247 . S
O109 Zn103 2.035 . S
O109 C111 1.258 . S
C110 O104 1.247 . S
C110 O105 1.258 . S
C111 O108 1.247 . S
C111 O109 1.258 . S
C112 O114 1.247 . S
C112 O116 1.258 . S
C113 O120 1.247 . S
C113 O121 1.258 . S
O114 C112 1.247 . S
O114 Zn115 2.028 . S
Zn115 O114 2.028 . S
Zn115 O119 2.035 . S
Zn115 O121 2.035 1_556 S
Zn115 O122 2.028 . S
O116 C112 1.258 . S
O116 Zn117 2.035 1_556 S
Zn117 O116 2.035 1_554 S
Zn117 O118 2.028 . S
Zn117 O120 2.028 . S
Zn117 O123 2.035 . S
O118 Zn117 2.028 . S
O118 C124 1.247 1_554 S
O119 Zn115 2.035 . S
O119 C124 1.258 . S
O120 C113 1.247 . S
O120 Zn117 2.028 . S
O121 C113 1.258 . S
O121 Zn115 2.035 1_554 S
O122 Zn115 2.028 . S
O122 C125 1.247 1_556 S
O123 Zn117 2.035 . S
O123 C125 1.258 . S
C124 O118 1.247 1_556 S
C124 O119 1.258 . S
C125 O122 1.247 1_554 S
C125 O123 1.258 . S
C126 O128 1.247 . S
C126 O130 1.258 . S
C127 O134 1.247 . S
C127 O135 1.258 . S
O128 C126 1.247 . S
O128 Zn129 2.028 . S
Zn129 O128 2.028 . S
Zn129 O133 2.035 . S
Zn129 O135 2.035 . S
Zn129 O136 2.028 . S
O130 C126 1.258 . S
O130 Zn131 2.035 . S
Zn131 O130 2.035 . S
Zn131 O132 2.028 . S
Zn131 O134 2.028 . S
Zn131 O137 2.035 . S
O132 Zn131 2.028 . S
O132 C138 1.247 . S
O133 Zn129 2.035 . S
O133 C138 1.258 . S
O134 C127 1.247 . S
O134 Zn131 2.028 . S
O135 C127 1.258 . S
O135 Zn129 2.035 . S
O136 Zn129 2.028 . S
O136 C139 1.247 . S
O137 Zn131 2.035 . S
O137 C139 1.258 . S
C138 O132 1.247 . S
C138 O133 1.258 . S
C139 O136 1.247 . S
C139 O137 1.258 . S
C140 O142 1.247 . S
C140 O144 1.258 . S
C141 O148 1.247 . S
C141 O149 1.258 . S
O142 C140 1.247 . S
O142 Zn143 2.028 . S
Zn143 O142 2.028 . S
Zn143 O147 2.035 . S
Zn143 O149 2.035 . S
Zn143 O150 2.028 . S
O144 C140 1.258 . S
O144 Zn145 2.035 . S
Zn145 O144 2.035 . S
Zn145 O146 2.028 . S
Zn145 O148 2.028 . S
Zn145 O151 2.035 . S
O146 Zn145 2.028 . S
O146 C152 1.247 . S
O147 Zn143 2.035 . S
O147 C152 1.258 . S
O148 C141 1.247 . S
O148 Zn145 2.028 . S
O149 C141 1.258 . S
O149 Zn143 2.035 . S
O150 Zn143 2.028 . S
O150 C153 1.247 . S
O151 Zn145 2.035 . S
O151 C153 1.258 . S
C152 O146 1.247 . S
C152 O147 1.258 . S
C153 O150 1.247 . S
C153 O151 1.258 . S
C154 O156 1.247 . S
C154 O158 1.258 . S
C155 O162 1.247 . S
C155 O163 1.258 . S
O156 C154 1.247 . S
O156 Zn157 2.028 . S
Zn157 O156 2.028 . S
Zn157 O161 2.035 . S
Zn157 O163 2.035 1_556 S
Zn157 O164 2.028 . S
O158 C154 1.258 . S
O158 Zn159 2.035 1_556 S
Zn159 O158 2.035 1_554 S
Zn159 O160 2.028 . S
Zn159 O162 2.028 . S
Zn159 O165 2.035 . S
O160 Zn159 2.028 . S
O160 C166 1.247 1_554 S
O161 Zn157 2.035 . S
O161 C166 1.258 . S
O162 C155 1.247 . S
O162 Zn159 2.028 . S
O163 C155 1.258 . S
O163 Zn157 2.035 1_554 S
O164 Zn157 2.028 . S
O164 C167 1.247 1_556 S
O165 Zn159 2.035 . S
O165 C167 1.258 . S
C166 O160 1.247 1_556 S
C166 O161 1.258 . S
C167 O164 1.247 1_554 S
C167 O165 1.258 . S
H168 C176 0.950 . S
H169 C181 0.950 . S
H170 C178 0.950 . S
H171 C180 0.950 . S
H172 C182 0.950 . S
H173 C184 0.950 . S
H174 C186 0.950 . S
H175 C187 0.950 . S
C176 H168 0.950 . S
C176 C177 1.386 . S
C176 C178 1.391 . S
C177 C176 1.386 . S
C177 C181 1.393 . S
C178 H170 0.950 . S
C178 C176 1.391 . S
C178 C179 1.400 . S
C179 C178 1.400 . S
C179 C180 1.398 . S
C179 C185 1.491 . S
C180 H171 0.950 . S
C180 C179 1.398 . S
C180 C181 1.391 . S
C181 H169 0.950 . S
C181 C177 1.393 . S
C181 C180 1.391 . S
C182 H172 0.950 . S
C182 C183 1.386 . S
C182 C184 1.391 . S
C183 C182 1.386 . S
C183 C187 1.393 . S
C184 H173 0.950 . S
C184 C182 1.391 . S
C184 C185 1.400 . S
C185 C179 1.491 . S
C185 C184 1.400 . S
C185 C186 1.398 . S
C186 H174 0.950 . S
C186 C185 1.398 . S
C186 C187 1.391 . S
C187 H175 0.950 . S
C187 C183 1.393 . S
C187 C186 1.391 . S
H188 C196 0.950 . S
H189 C201 0.950 . S
H190 C198 0.950 . S
H191 C200 0.950 . S
H192 C202 0.950 . S
H193 C204 0.950 . S
H194 C206 0.950 . S
H195 C207 0.950 . S
C196 H188 0.950 . S
C196 C197 1.386 . S
C196 C198 1.391 . S
C197 C196 1.386 . S
C197 C201 1.393 . S
C198 H190 0.950 . S
C198 C196 1.391 . S
C198 C199 1.400 . S
C199 C198 1.400 . S
C199 C200 1.398 . S
C199 C205 1.491 . S
C200 H191 0.950 . S
C200 C199 1.398 . S
C200 C201 1.391 . S
C201 H189 0.950 . S
C201 C197 1.393 . S
C201 C200 1.391 . S
C202 H192 0.950 . S
C202 C203 1.386 . S
C202 C204 1.391 . S
C203 C202 1.386 . S
C203 C207 1.393 . S
C204 H193 0.950 . S
C204 C202 1.391 . S
C204 C205 1.400 . S
C205 C199 1.491 . S
C205 C204 1.400 . S
C205 C206 1.398 . S
C206 H194 0.950 . S
C206 C205 1.398 . S
C206 C207 1.391 . S
C207 H195 0.950 . S
C207 C203 1.393 . S
C207 C206 1.391 . S
H208 C216 0.950 . S
H209 C221 0.950 . S
H210 C218 0.950 . S
H211 C220 0.950 . S
H212 C222 0.950 . S
H213 C224 0.950 . S
H214 C226 0.950 . S
H215 C227 0.950 . S
C216 H208 0.950 . S
C216 C217 1.386 . S
C216 C218 1.391 . S
C217 C216 1.386 . S
C217 C221 1.393 . S
C218 H210 0.950 . S
C218 C216 1.391 . S
C218 C219 1.400 . S
C219 C218 1.400 . S
C219 C220 1.398 . S
C219 C225 1.491 . S
C220 H211 0.950 . S
C220 C219 1.398 . S
C220 C221 1.391 . S
C221 H209 0.950 . S
C221 C217 1.393 . S
C221 C220 1.391 . S
C222 H212 0.950 . S
C222 C223 1.386 . S
C222 C224 1.391 . S
C223 C222 1.386 . S
C223 C227 1.393 . S
C224 H213 0.950 . S
C224 C222 1.391 . S
C224 C225 1.400 . S
C225 C219 1.491 . S
C225 C224 1.400 . S
C225 C226 1.398 . S
C226 H214 0.950 . S
C226 C225 1.398 . S
C226 C227 1.391 . S
C227 H215 0.950 . S
C227 C223 1.393 . S
C227 C226 1.391 . S
H228 C236 0.950 . S
H229 C241 0.950 . S
H230 C238 0.950 . S
H231 C240 0.950 . S
H232 C242 0.950 . S
H233 C244 0.950 . S
H234 C246 0.950 . S
H235 C247 0.950 . S
C236 H228 0.950 . S
C236 C237 1.386 . S
C236 C238 1.391 . S
C237 C236 1.386 . S
C237 C241 1.393 . S
C238 H230 0.950 . S
C238 C236 1.391 . S
C238 C239 1.400 . S
C239 C238 1.400 . S
C239 C240 1.398 . S
C239 C245 1.491 . S
C240 H231 0.950 . S
C240 C239 1.398 . S
C240 C241 1.391 . S
C241 H229 0.950 . S
C241 C237 1.393 . S
C241 C240 1.391 . S
C242 H232 0.950 . S
C242 C243 1.386 . S
C242 C244 1.391 . S
C243 C242 1.386 . S
C243 C247 1.393 . S
C244 H233 0.950 . S
C244 C242 1.391 . S
C244 C245 1.400 . S
C245 C239 1.491 . S
C245 C244 1.400 . S
C245 C246 1.398 . S
C246 H234 0.950 . S
C246 C245 1.398 . S
C246 C247 1.391 . S
C247 H235 0.950 . S
C247 C243 1.393 . S
C247 C246 1.391 . S
H248 C256 0.950 . S
H249 C261 0.950 . S
H250 C258 0.950 . S
H251 C260 0.950 . S
H252 C262 0.950 . S
H253 C264 0.950 . S
H254 C266 0.950 . S
H255 C267 0.950 . S
C256 H248 0.950 . S
C256 C257 1.386 . S
C256 C258 1.391 . S
C257 C256 1.386 . S
C257 C261 1.393 . S
C258 H250 0.950 . S
C258 C256 1.391 . S
C258 C259 1.400 . S
C259 C258 1.400 . S
C259 C260 1.398 . S
C259 C265 1.491 . S
C260 H251 0.950 . S
C260 C259 1.398 . S
C260 C261 1.391 . S
C261 H249 0.950 . S
C261 C257 1.393 . S
C261 C260 1.391 . S
C262 H252 0.950 . S
C262 C263 1.386 . S
C262 C264 1.391 . S
C263 C262 1.386 . S
C263 C267 1.393 . S
C264 H253 0.950 . S
C264 C262 1.391 . S
C264 C265 1.400 . S
C265 C259 1.491 . S
C265 C264 1.400 . S
C265 C266 1.398 . S
C266 H254 0.950 . S
C266 C265 1.398 . S
C266 C267 1.391 . S
C267 H255 0.950 . S
C267 C263 1.393 . S
C267 C266 1.391 . S
H268 C276 0.950 . S
H269 C281 0.950 . S
H270 C278 0.950 . S
H271 C280 0.950 . S
H272 C282 0.950 . S
H273 C284 0.950 . S
H274 C286 0.950 . S
H275 C287 0.950 . S
C276 H268 0.950 . S
C276 C277 1.386 . S
C276 C278 1.391 . S
C277 C276 1.386 . S
C277 C281 1.393 . S
C278 H270 0.950 . S
C278 C276 1.391 . S
C278 C279 1.400 . S
C279 C278 1.400 . S
C279 C280 1.398 . S
C279 C285 1.491 . S
C280 H271 0.950 . S
C280 C279 1.398 . S
C280 C281 1.391 . S
C281 H269 0.950 . S
C281 C277 1.393 . S
C281 C280 1.391 . S
C282 H272 0.950 . S
C282 C283 1.386 . S
C282 C284 1.391 . S
C283 C282 1.386 . S
C283 C287 1.393 . S
C284 H273 0.950 . S
C284 C282 1.391 . S
C284 C285 1.400 . S
C285 C279 1.491 . S
C285 C284 1.400 . S
C285 C286 1.398 . S
C286 H274 0.950 . S
C286 C285 1.398 . S
C286 C287 1.391 . S
C287 H275 0.950 . S
C287 C283 1.393 . S
C287 C286 1.391 . S
H288 C296 0.950 . S
H289 C301 0.950 . S
H290 C298 0.950 . S
H291 C300 0.950 . S
H292 C302 0.950 . S
H293 C304 0.950 . S
H294 C306 0.950 . S
H295 C307 0.950 . S
C296 H288 0.950 . S
C296 C297 1.386 . S
C296 C298 1.391 . S
C297 C296 1.386 . S
C297 C301 1.393 . S
C298 H290 0.950 . S
C298 C296 1.391 . S
C298 C299 1.400 . S
C299 C298 1.400 . S
C299 C300 1.398 . S
C299 C305 1.491 . S
C300 H291 0.950 . S
C300 C299 1.398 . S
C300 C301 1.391 . S
C301 H289 0.950 . S
C301 C297 1.393 . S
C301 C300 1.391 . S
C302 H292 0.950 . S
C302 C303 1.386 . S
C302 C304 1.391 . S
C303 C302 1.386 . S
C303 C307 1.393 . S
C304 H293 0.950 . S
C304 C302 1.391 . S
C304 C305 1.400 . S
C305 C299 1.491 . S
C305 C304 1.400 . S
C305 C306 1.398 . S
C306 H294 0.950 . S
C306 C305 1.398 . S
C306 C307 1.391 . S
C307 H295 0.950 . S
C307 C303 1.393 . S
C307 C306 1.391 . S
H308 C316 0.950 . S
H309 C321 0.950 . S
H310 C318 0.950 . S
H311 C320 0.950 . S
H312 C322 0.950 . S
H313 C324 0.950 . S
H314 C326 0.950 . S
H315 C327 0.950 . S
C316 H308 0.950 . S
C316 C317 1.386 . S
C316 C318 1.391 . S
C317 C316 1.386 . S
C317 C321 1.393 . S
C318 H310 0.950 . S
C318 C316 1.391 . S
C318 C319 1.400 . S
C319 C318 1.400 . S
C319 C320 1.398 . S
C319 C325 1.491 . S
C320 H311 0.950 . S
C320 C319 1.398 . S
C320 C321 1.391 . S
C321 H309 0.950 . S
C321 C317 1.393 . S
C321 C320 1.391 . S
C322 H312 0.950 . S
C322 C323 1.386 . S
C322 C324 1.391 . S
C323 C322 1.386 . S
C323 C327 1.393 . S
C324 H313 0.950 . S
C324 C322 1.391 . S
C324 C325 1.400 . S
C325 C319 1.491 . S
C325 C324 1.400 . S
C325 C326 1.398 . S
C326 H314 0.950 . S
C326 C325 1.398 . S
C326 C327 1.391 . S
C327 H315 0.950 . S
C327 C323 1.393 . S
C327 C326 1.391 . S
H328 C336 0.950 . S
H329 C341 0.950 . S
H330 C338 0.950 . S
H331 C340 0.950 . S
H332 C342 0.950 . S
H333 C344 0.950 . S
H334 C346 0.950 . S
H335 C347 0.950 . S
C336 H328 0.950 . S
C336 C337 1.397 . S
C336 C338 1.391 . S
C337 C336 1.397 . S
C337 C341 1.381 1_556 S
C338 H330 0.950 . S
C338 C336 1.391 . S
C338 C339 1.397 1_556 S
C339 C338 1.397 1_554 S
C339 C340 1.402 . S
C339 C345 1.491 1_554 S
C340 H331 0.950 . S
C340 C339 1.402 . S
C340 C341 1.391 . S
C341 H329 0.950 . S
C341 C337 1.381 1_554 S
C341 C340 1.391 . S
C342 H332 0.950 . S
C342 C343 1.401 . S
C342 C344 1.391 . S
C343 C342 1.401 . S
C343 C347 1.377 1_554 S
C344 H333 0.950 . S
C344 C342 1.391 . S
C344 C345 1.401 1_554 S
C345 C339 1.491 1_556 S
C345 C344 1.401 1_556 S
C345 C346 1.398 . S
C346 H334 0.950 . S
C346 C345 1.398 . S
C346 C347 1.391 . S
C347 H335 0.950 . S
C347 C343 1.377 1_556 S
C347 C346 1.391 . S
H348 C356 0.950 . S
H349 C361 0.950 . S
H350 C358 0.950 . S
H351 C360 0.950 . S
H352 C362 0.950 . S
H353 C364 0.950 . S
H354 C366 0.950 . S
H355 C367 0.950 . S
C356 H348 0.950 . S
C356 C357 1.386 . S
C356 C358 1.391 . S
C357 C356 1.386 . S
C357 C361 1.393 . S
C358 H350 0.950 . S
C358 C356 1.391 . S
C358 C359 1.400 . S
C359 C358 1.400 . S
C359 C360 1.398 . S
C359 C365 1.491 . S
C360 H351 0.950 . S
C360 C359 1.398 . S
C360 C361 1.391 . S
C361 H349 0.950 . S
C361 C357 1.393 . S
C361 C360 1.391 . S
C362 H352 0.950 . S
C362 C363 1.386 . S
C362 C364 1.391 . S
C363 C362 1.386 . S
C363 C367 1.393 . S
C364 H353 0.950 . S
C364 C362 1.391 . S
C364 C365 1.400 . S
C365 C359 1.491 . S
C365 C364 1.400 . S
C365 C366 1.398 . S
C366 H354 0.950 . S
C366 C365 1.398 . S
C366 C367 1.391 . S
C367 H355 0.950 . S
C367 C363 1.393 . S
C367 C366 1.391 . S
H368 C376 0.950 . S
H369 C381 0.950 . S
H370 C378 0.950 . S
H371 C380 0.950 . S
H372 C382 0.950 . S
H373 C384 0.950 . S
H374 C386 0.950 . S
H375 C387 0.950 . S
C376 H368 0.950 . S
C376 C377 1.386 . S
C376 C378 1.391 . S
C377 C376 1.386 . S
C377 C381 1.393 . S
C378 H370 0.950 . S
C378 C376 1.391 . S
C378 C379 1.400 . S
C379 C378 1.400 . S
C379 C380 1.398 . S
C379 C385 1.491 . S
C380 H371 0.950 . S
C380 C379 1.398 . S
C380 C381 1.391 . S
C381 H369 0.950 . S
C381 C377 1.393 . S
C381 C380 1.391 . S
C382 H372 0.950 . S
C382 C383 1.386 . S
C382 C384 1.391 . S
C383 C382 1.386 . S
C383 C387 1.393 . S
C384 H373 0.950 . S
C384 C382 1.391 . S
C384 C385 1.400 . S
C385 C379 1.491 . S
C385 C384 1.400 . S
C385 C386 1.398 . S
C386 H374 0.950 . S
C386 C385 1.398 . S
C386 C387 1.391 . S
C387 H375 0.950 . S
C387 C383 1.393 . S
C387 C386 1.391 . S
H388 C396 0.950 . S
H389 C401 0.950 . S
H390 C398 0.950 . S
H391 C400 0.950 . S
H392 C402 0.950 . S
H393 C404 0.950 . S
H394 C406 0.950 . S
H395 C407 0.950 . S
C396 H388 0.950 . S
C396 C397 1.386 1_556 S
C396 C398 1.391 . S
C397 C396 1.386 1_554 S
C397 C401 1.393 . S
C398 H390 0.950 . S
C398 C396 1.391 . S
C398 C399 1.387 1_556 S
C399 C398 1.387 1_554 S
C399 C400 1.412 . S
C399 C405 1.490 1_554 S
C400 H391 0.950 . S
C400 C399 1.412 . S
C400 C401 1.391 . S
C401 H389 0.950 . S
C401 C397 1.393 . S
C401 C400 1.391 . S
C402 H392 0.950 . S
C402 C403 1.386 1_554 S
C402 C404 1.391 . S
C403 C402 1.386 1_556 S
C403 C407 1.393 . S
C404 H393 0.950 . S
C404 C402 1.391 . S
C404 C405 1.380 1_554 S
C405 C399 1.490 1_556 S
C405 C404 1.380 1_556 S
C405 C406 1.419 . S
C406 H394 0.950 . S
C406 C405 1.419 . S
C406 C407 1.391 . S
C407 H395 0.950 . S
C407 C403 1.393 . S
C407 C406 1.391 . S
H408 C416 0.950 . S
H409 C421 0.950 . S
H410 C418 0.950 . S
H411 C420 0.950 . S
H412 C422 0.950 . S
H413 C424 0.950 . S
H414 C426 0.950 . S
H415 C427 0.950 . S
C416 H408 0.950 . S
C416 C417 1.386 . S
C416 C418 1.391 . S
C417 C416 1.386 . S
C417 C421 1.393 . S
C418 H410 0.950 . S
C418 C416 1.391 . S
C418 C419 1.400 . S
C419 C418 1.400 . S
C419 C420 1.398 . S
C419 C425 1.491 1_545 S
C420 H411 0.950 . S
C420 C419 1.398 . S
C420 C421 1.391 . S
C421 H409 0.950 . S
C421 C417 1.393 . S
C421 C420 1.391 . S
C422 H412 0.950 . S
C422 C423 1.386 . S
C422 C424 1.391 . S
C423 C422 1.386 . S
C423 C427 1.393 . S
C424 H413 0.950 . S
C424 C422 1.391 . S
C424 C425 1.400 . S
C425 C419 1.491 1_565 S
C425 C424 1.400 . S
C425 C426 1.398 . S
C426 H414 0.950 . S
C426 C425 1.398 . S
C426 C427 1.391 . S
C427 H415 0.950 . S
C427 C423 1.393 . S
C427 C426 1.391 . S
H428 C436 0.950 . S
H429 C441 0.950 . S
H430 C438 0.950 . S
H431 C440 0.950 . S
H432 C442 0.950 . S
H433 C444 0.950 . S
H434 C446 0.950 . S
H435 C447 0.950 . S
C436 H428 0.950 . S
C436 C437 1.386 . S
C436 C438 1.391 . S
C437 C436 1.386 . S
C437 C441 1.393 . S
C438 H430 0.950 . S
C438 C436 1.391 . S
C438 C439 1.400 . S
C439 C438 1.400 . S
C439 C440 1.398 . S
C439 C445 1.491 . S
C440 H431 0.950 . S
C440 C439 1.398 . S
C440 C441 1.391 . S
C441 H429 0.950 . S
C441 C437 1.393 . S
C441 C440 1.391 . S
C442 H432 0.950 . S
C442 C443 1.386 . S
C442 C444 1.391 . S
C443 C442 1.386 . S
C443 C447 1.393 . S
C444 H433 0.950 . S
C444 C442 1.391 . S
C444 C445 1.400 . S
C445 C439 1.491 . S
C445 C444 1.400 . S
C445 C446 1.398 . S
C446 H434 0.950 . S
C446 C445 1.398 . S
C446 C447 1.391 . S
C447 H435 0.950 . S
C447 C443 1.393 . S
C447 C446 1.391 . S
H448 C456 0.950 . S
H449 C461 0.950 . S
H450 C458 0.950 . S
H451 C460 0.950 1_455 S
H452 C462 0.950 1_554 S
H453 C464 0.951 . S
H454 C466 0.950 1_655 S
H455 C467 0.950 . S
C456 H448 0.950 . S
C456 C457 1.389 . S
C456 C458 1.391 . S
C457 C456 1.389 . S
C457 C461 1.389 1_556 S
C458 H450 0.950 . S
C458 C456 1.391 . S
C458 C459 1.400 . S
C459 C458 1.400 . S
C459 C460 1.398 1_556 S
C459 C465 1.491 1_655 S
C460 H451 0.950 1_655 S
C460 C459 1.398 1_554 S
C460 C461 1.391 . S
C461 H449 0.950 . S
C461 C457 1.389 1_554 S
C461 C460 1.391 . S
C462 H452 0.950 1_556 S
C462 C463 1.385 . S
C462 C464 1.391 1_556 S
C463 C462 1.385 . S
C463 C467 1.393 . S
C464 H453 0.951 . S
C464 C462 1.391 1_554 S
C464 C465 1.399 1_554 S
C465 C459 1.491 1_455 S
C465 C464 1.399 1_556 S
C465 C466 1.398 . S
C466 H454 0.950 1_455 S
C466 C465 1.398 . S
C466 C467 1.391 . S
C467 H455 0.950 . S
C467 C463 1.393 . S
C467 C466 1.391 . S
H468 C476 0.950 . S
H469 C481 0.950 . S
H470 C478 0.950 1_655 S
H471 C480 0.950 . S
H472 C482 0.950 . S
H473 C484 0.950 1_455 S
H474 C486 0.950 . S
H475 C487 0.950 . S
C476 H468 0.950 . S
C476 C477 1.386 . S
C476 C478 1.391 . S
C477 C476 1.386 . S
C477 C481 1.393 . S
C478 H470 0.950 1_455 S
C478 C476 1.391 . S
C478 C479 1.400 . S
C479 C478 1.400 . S
C479 C480 1.398 . S
C479 C485 1.491 1_455 S
C480 H471 0.950 . S
C480 C479 1.398 . S
C480 C481 1.391 . S
C481 H469 0.950 . S
C481 C477 1.393 . S
C481 C480 1.391 . S
C482 H472 0.950 . S
C482 C483 1.386 . S
C482 C484 1.391 . S
C483 C482 1.386 . S
C483 C487 1.393 . S
C484 H473 0.950 1_655 S
C484 C482 1.391 . S
C484 C485 1.400 . S
C485 C479 1.491 1_655 S
C485 C484 1.400 . S
C485 C486 1.398 . S
C486 H474 0.950 . S
C486 C485 1.398 . S
C486 C487 1.391 . S
C487 H475 0.950 . S
C487 C483 1.393 . S
C487 C486 1.391 . S
H488 C496 0.950 . S
H489 C501 0.950 . S
H490 C498 0.950 . S
H491 C500 0.950 . S
H492 C502 0.950 . S
H493 C504 0.950 . S
H494 C506 0.950 . S
H495 C507 0.950 . S
C496 H488 0.950 . S
C496 C497 1.386 . S
C496 C498 1.391 . S
C497 C496 1.386 . S
C497 C501 1.393 . S
C498 H490 0.950 . S
C498 C496 1.391 . S
C498 C499 1.400 . S
C499 C498 1.400 . S
C499 C500 1.398 . S
C499 C505 1.491 1_545 S
C500 H491 0.950 . S
C500 C499 1.398 . S
C500 C501 1.391 . S
C501 H489 0.950 . S
C501 C497 1.393 . S
C501 C500 1.391 . S
C502 H492 0.950 . S
C502 C503 1.386 . S
C502 C504 1.391 . S
C503 C502 1.386 . S
C503 C507 1.393 . S
C504 H493 0.950 . S
C504 C502 1.391 . S
C504 C505 1.400 . S
C505 C499 1.491 1_565 S
C505 C504 1.400 . S
C505 C506 1.398 . S
C506 H494 0.950 . S
C506 C505 1.398 . S
C506 C507 1.391 . S
C507 H495 0.950 . S
C507 C503 1.393 . S
C507 C506 1.391 . S
H508 C516 0.950 . S
H509 C521 0.950 . S
H510 C518 0.950 . S
H511 C520 0.950 . S
H512 C522 0.950 . S
H513 C524 0.950 . S
H514 C526 0.950 . S
H515 C527 0.950 . S
C516 H508 0.950 . S
C516 C517 1.386 1_556 S
C516 C518 1.391 . S
C517 C516 1.386 1_554 S
C517 C521 1.393 . S
C518 H510 0.950 . S
C518 C516 1.391 . S
C518 C519 1.400 1_556 S
C519 C518 1.400 1_554 S
C519 C520 1.398 . S
C519 C525 1.491 . S
C520 H511 0.950 . S
C520 C519 1.398 . S
C520 C521 1.391 . S
C521 H509 0.950 . S
C521 C517 1.393 . S
C521 C520 1.391 . S
C522 H512 0.950 . S
C522 C523 1.386 . S
C522 C524 1.391 . S
C523 C522 1.386 . S
C523 C527 1.393 1_554 S
C524 H513 0.950 . S
C524 C522 1.391 . S
C524 C525 1.400 . S
C525 C519 1.491 . S
C525 C524 1.400 . S
C525 C526 1.398 1_554 S
C526 H514 0.950 . S
C526 C525 1.398 1_556 S
C526 C527 1.391 . S
C527 H515 0.950 . S
C527 C523 1.393 1_556 S
C527 C526 1.391 . S
H528 C536 0.950 . S
H529 C541 0.950 . S
H530 C538 0.950 . S
H531 C540 0.950 . S
H532 C542 0.950 . S
H533 C544 0.950 . S
H534 C546 0.950 . S
H535 C547 0.950 . S
C536 H528 0.950 . S
C536 C537 1.386 . S
C536 C538 1.391 . S
C537 C536 1.386 . S
C537 C541 1.393 . S
C538 H530 0.950 . S
C538 C536 1.391 . S
C538 C539 1.400 . S
C539 C538 1.400 . S
C539 C540 1.398 . S
C539 C545 1.491 . S
C540 H531 0.950 . S
C540 C539 1.398 . S
C540 C541 1.391 . S
C541 H529 0.950 . S
C541 C537 1.393 . S
C541 C540 1.391 . S
C542 H532 0.950 . S
C542 C543 1.386 . S
C542 C544 1.391 . S
C543 C542 1.386 . S
C543 C547 1.393 . S
C544 H533 0.950 . S
C544 C542 1.391 . S
C544 C545 1.400 . S
C545 C539 1.491 . S
C545 C544 1.400 . S
C545 C546 1.398 . S
C546 H534 0.950 . S
C546 C545 1.398 . S
C546 C547 1.391 . S
C547 H535 0.950 . S
C547 C543 1.393 . S
C547 C546 1.391 . S
H548 C556 0.950 . S
H549 C561 0.950 . S
H550 C558 0.950 . S
H551 C560 0.950 . S
H552 C562 0.950 . S
H553 C564 0.950 . S
H554 C566 0.950 . S
H555 C567 0.950 . S
C556 H548 0.950 . S
C556 C557 1.386 . S
C556 C558 1.391 . S
C557 C556 1.386 . S
C557 C561 1.393 . S
C558 H550 0.950 . S
C558 C556 1.391 . S
C558 C559 1.400 . S
C559 C558 1.400 . S
C559 C560 1.398 . S
C559 C565 1.491 . S
C560 H551 0.950 . S
C560 C559 1.398 . S
C560 C561 1.391 . S
C561 H549 0.950 . S
C561 C557 1.393 . S
C561 C560 1.391 . S
C562 H552 0.950 . S
C562 C563 1.386 . S
C562 C564 1.391 . S
C563 C562 1.386 . S
C563 C567 1.393 . S
C564 H553 0.950 . S
C564 C562 1.391 . S
C564 C565 1.400 . S
C565 C559 1.491 . S
C565 C564 1.400 . S
C565 C566 1.398 . S
C566 H554 0.950 . S
C566 C565 1.398 . S
C566 C567 1.391 . S
C567 H555 0.950 . S
C567 C563 1.393 . S
C567 C566 1.391 . S
H568 C576 0.950 . S
H569 C581 0.950 . S
H570 C578 0.950 . S
H571 C580 0.950 . S
H572 C582 0.950 . S
H573 C584 0.950 . S
H574 C586 0.950 . S
H575 C587 0.950 . S
C576 H568 0.950 . S
C576 C577 1.386 . S
C576 C578 1.391 . S
C577 C576 1.386 . S
C577 C581 1.393 . S
C578 H570 0.950 . S
C578 C576 1.391 . S
C578 C579 1.400 . S
C579 C578 1.400 . S
C579 C580 1.398 . S
C579 C585 1.491 . S
C580 H571 0.950 . S
C580 C579 1.398 . S
C580 C581 1.391 . S
C581 H569 0.950 . S
C581 C577 1.393 . S
C581 C580 1.391 . S
C582 H572 0.950 . S
C582 C583 1.386 . S
C582 C584 1.391 . S
C583 C582 1.386 . S
C583 C587 1.393 . S
C584 H573 0.950 . S
C584 C582 1.391 . S
C584 C585 1.400 . S
C585 C579 1.491 . S
C585 C584 1.400 . S
C585 C586 1.398 . S
C586 H574 0.950 . S
C586 C585 1.398 . S
C586 C587 1.391 . S
C587 H575 0.950 . S
C587 C583 1.393 . S
C587 C586 1.391 . S
H588 C596 0.950 . S
H589 C601 0.950 . S
H590 C598 0.950 . S
H591 C600 0.950 . S
H592 C602 0.950 . S
H593 C604 0.950 . S
H594 C606 0.950 . S
H595 C607 0.950 . S
C596 H588 0.950 . S
C596 C597 1.386 . S
C596 C598 1.391 . S
C597 C596 1.386 . S
C597 C601 1.393 . S
C598 H590 0.950 . S
C598 C596 1.391 . S
C598 C599 1.400 . S
C599 C598 1.400 . S
C599 C600 1.398 . S
C599 C605 1.491 . S
C600 H591 0.950 . S
C600 C599 1.398 . S
C600 C601 1.391 . S
C601 H589 0.950 . S
C601 C597 1.393 . S
C601 C600 1.391 . S
C602 H592 0.950 . S
C602 C603 1.386 . S
C602 C604 1.391 . S
C603 C602 1.386 . S
C603 C607 1.393 . S
C604 H593 0.950 . S
C604 C602 1.391 . S
C604 C605 1.400 . S
C605 C599 1.491 . S
C605 C604 1.400 . S
C605 C606 1.398 . S
C606 H594 0.950 . S
C606 C605 1.398 . S
C606 C607 1.391 . S
C607 H595 0.950 . S
C607 C603 1.393 . S
C607 C606 1.391 . S
H608 C616 0.950 . S
H609 C621 0.950 . S
H610 C618 0.950 . S
H611 C620 0.950 . S
H612 C622 0.950 . S
H613 C624 0.950 . S
H614 C626 0.950 . S
H615 C627 0.950 . S
C616 H608 0.950 . S
C616 C617 1.386 . S
C616 C618 1.391 . S
C617 C616 1.386 . S
C617 C621 1.393 . S
C618 H610 0.950 . S
C618 C616 1.391 . S
C618 C619 1.400 . S
C619 C618 1.400 . S
C619 C620 1.398 . S
C619 C625 1.491 . S
C620 H611 0.950 . S
C620 C619 1.398 . S
C620 C621 1.391 . S
C621 H609 0.950 . S
C621 C617 1.393 . S
C621 C620 1.391 . S
C622 H612 0.950 . S
C622 C623 1.386 . S
C622 C624 1.391 . S
C623 C622 1.386 . S
C623 C627 1.393 . S
C624 H613 0.950 . S
C624 C622 1.391 . S
C624 C625 1.400 . S
C625 C619 1.491 . S
C625 C624 1.400 . S
C625 C626 1.398 . S
C626 H614 0.950 . S
C626 C625 1.398 . S
C626 C627 1.391 . S
C627 H615 0.950 . S
C627 C623 1.393 . S
C627 C626 1.391 . S
H628 C636 0.950 . S
H629 C641 0.950 . S
H630 C638 0.950 . S
H631 C640 0.950 . S
H632 C642 0.950 . S
H633 C644 0.950 . S
H634 C646 0.950 . S
H635 C647 0.950 . S
C636 H628 0.950 . S
C636 C637 1.386 . S
C636 C638 1.391 . S
C637 C636 1.386 . S
C637 C641 1.393 . S
C638 H630 0.950 . S
C638 C636 1.391 . S
C638 C639 1.400 . S
C639 C638 1.400 . S
C639 C640 1.398 . S
C639 C645 1.491 . S
C640 H631 0.950 . S
C640 C639 1.398 . S
C640 C641 1.391 . S
C641 H629 0.950 . S
C641 C637 1.393 . S
C641 C640 1.391 . S
C642 H632 0.950 . S
C642 C643 1.386 . S
C642 C644 1.391 . S
C643 C642 1.386 . S
C643 C647 1.393 . S
C644 H633 0.950 . S
C644 C642 1.391 . S
C644 C645 1.400 . S
C645 C639 1.491 . S
C645 C644 1.400 . S
C645 C646 1.398 . S
C646 H634 0.950 . S
C646 C645 1.398 . S
C646 C647 1.391 . S
C647 H635 0.950 . S
C647 C643 1.393 . S
C647 C646 1.391 . S
C177 C12 1.482 . S
C183 C141 1.475 . S
C197 C26 1.519 . S
C203 C154 1.516 . S
C217 C96 1.516 . S
C223 C28 1.520 . S
C237 C42 1.479 . S
C243 C110 1.490 . S
C257 C112 1.504 . S
C263 C57 1.519 . S
C277 C126 1.506 . S
C283 C70 1.515 . S
C297 C84 1.109 . S
C303 C0 1.079 . S
C317 C98 1.108 . S
C323 C14 1.080 . S
C337 C124 1.087 . S
C343 C40 1.102 . S
C357 C54 1.093 . S
C363 C138 1.097 . S
C377 C69 1.091 . S
C383 C153 1.097 . S
C397 C82 1.105 . S
C403 C166 1.075 . S
C417 C1 2.279 . S
C423 C55 2.280 . S
C437 C15 2.300 . S
C443 C68 2.295 . S
C457 C41 2.290 . S
C463 C83 2.286 . S
C477 C139 2.295 . S
C483 C85 2.297 . S
C497 C152 2.274 . S
C503 C99 2.280 . S
C517 C167 2.298 . S
C523 C125 2.298 . S
C537 C13 1.926 . S
C543 C113 1.928 . S
C557 C127 1.962 . S
C563 C27 1.961 . S
C577 C29 1.926 . S
C583 C140 1.926 . S
C597 C155 1.934 . S
C603 C43 1.931 . S
C617 C56 1.958 . S
C623 C97 1.962 . S
C637 C71 1.934 . S
C643 C111 1.931 . S
