# Generated by pormake.
# Topology lcv, (4)-cn, num edge types: 1
# Building blocks:
#     Node 0, Type 0, BuildingBlock: ESEHIV_clean_sbu_0, # of connection points: 4
#     Node 1, Type 0, BuildingBlock: ESEHIV_clean_sbu_0, # of connection points: 4
#     Node 2, Type 0, BuildingBlock: ESEHIV_clean_sbu_0, # of connection points: 4
#     Node 3, Type 0, BuildingBlock: ESEHIV_clean_sbu_0, # of connection points: 4
#     Node 4, Type 0, BuildingBlock: ESEHIV_clean_sbu_0, # of connection points: 4
#     Node 5, Type 0, BuildingBlock: ESEHIV_clean_sbu_0, # of connection points: 4
#     Node 6, Type 0, BuildingBlock: ESEHIV_clean_sbu_0, # of connection points: 4
#     Node 7, Type 0, BuildingBlock: ESEHIV_clean_sbu_0, # of connection points: 4
#     Node 8, Type 0, BuildingBlock: ESEHIV_clean_sbu_0, # of connection points: 4
#     Node 9, Type 0, BuildingBlock: ESEHIV_clean_sbu_0, # of connection points: 4
#     Node 10, Type 0, BuildingBlock: ESEHIV_clean_sbu_0, # of connection points: 4
#     Node 11, Type 0, BuildingBlock: ESEHIV_clean_sbu_0, # of connection points: 4
#     Edge 12, Type (0, 0), BuildingBlock: TEMPAE_clean_linker_10, # of connection points: 2
#     Edge 13, Type (0, 0), BuildingBlock: TEMPAE_clean_linker_10, # of connection points: 2
#     Edge 14, Type (0, 0), BuildingBlock: TEMPAE_clean_linker_10, # of connection points: 2
#     Edge 15, Type (0, 0), BuildingBlock: TEMPAE_clean_linker_10, # of connection points: 2
#     Edge 16, Type (0, 0), BuildingBlock: TEMPAE_clean_linker_10, # of connection points: 2
#     Edge 17, Type (0, 0), BuildingBlock: TEMPAE_clean_linker_10, # of connection points: 2
#     Edge 18, Type (0, 0), BuildingBlock: TEMPAE_clean_linker_10, # of connection points: 2
#     Edge 19, Type (0, 0), BuildingBlock: TEMPAE_clean_linker_10, # of connection points: 2
#     Edge 20, Type (0, 0), BuildingBlock: TEMPAE_clean_linker_10, # of connection points: 2
#     Edge 21, Type (0, 0), BuildingBlock: TEMPAE_clean_linker_10, # of connection points: 2
#     Edge 22, Type (0, 0), BuildingBlock: TEMPAE_clean_linker_10, # of connection points: 2
#     Edge 23, Type (0, 0), BuildingBlock: TEMPAE_clean_linker_10, # of connection points: 2
#     Edge 24, Type (0, 0), BuildingBlock: TEMPAE_clean_linker_10, # of connection points: 2
#     Edge 25, Type (0, 0), BuildingBlock: TEMPAE_clean_linker_10, # of connection points: 2
#     Edge 26, Type (0, 0), BuildingBlock: TEMPAE_clean_linker_10, # of connection points: 2
#     Edge 27, Type (0, 0), BuildingBlock: TEMPAE_clean_linker_10, # of connection points: 2
#     Edge 28, Type (0, 0), BuildingBlock: TEMPAE_clean_linker_10, # of connection points: 2
#     Edge 29, Type (0, 0), BuildingBlock: TEMPAE_clean_linker_10, # of connection points: 2
#     Edge 30, Type (0, 0), BuildingBlock: TEMPAE_clean_linker_10, # of connection points: 2
#     Edge 31, Type (0, 0), BuildingBlock: TEMPAE_clean_linker_10, # of connection points: 2
#     Edge 32, Type (0, 0), BuildingBlock: TEMPAE_clean_linker_10, # of connection points: 2
#     Edge 33, Type (0, 0), BuildingBlock: TEMPAE_clean_linker_10, # of connection points: 2
#     Edge 34, Type (0, 0), BuildingBlock: TEMPAE_clean_linker_10, # of connection points: 2
#     Edge 35, Type (0, 0), BuildingBlock: TEMPAE_clean_linker_10, # of connection points: 2
# Relax obj value: 0.158
# Max RMSD: 0.306
# Mean RMSD: 0.281
data_MOF--net-lcv--node1-ESEHIV_clean_sbu_0--edge1-TEMPAE_clean_linker_10
_symmetry_space_group_name_H-M    P1
_symmetry_Int_Tables_number       1
_symmetry_cell_setting            triclinic
loop_
_symmetry_equiv_pos_as_xyz
'x, y, z'
_cell_length_a     50.573187
_cell_length_b     49.608025
_cell_length_c     50.328604
_cell_angle_alpha  95.885463
_cell_angle_beta   89.983266
_cell_angle_gamma 101.34244
loop_
_atom_site_label
_atom_site_type_symbol
_atom_site_fract_x
_atom_site_fract_y
_atom_site_fract_z
_atom_type_partial_charge
Cu0 Cu 0.06546 0.22197 0.18881 0.0
N1 N 0.05957 0.18727 0.2012 0.0
N2 N 0.06788 0.14616 0.20901 0.0
C3 C 0.07806 0.17117 0.20091 0.0
C4 C 0.04182 0.14662 0.21456 0.0
C5 C 0.03672 0.17201 0.2096 0.0
O6 O 0.09711 0.22447 0.16713 0.0
C7 C 0.05454 0.25244 0.23652 0.0
O8 O 0.03387 0.23185 0.23729 0.0
H9 H 0.09835 0.17747 0.19394 0.0
H10 H 0.01762 0.17864 0.21145 0.0
N11 N 0.03639 0.22547 0.1679 0.0
N12 N 0.007 0.24546 0.14805 0.0
C13 C 0.02749 0.249 0.16604 0.0
C14 C 0.02104 0.20622 0.15066 0.0
C15 C 0.00279 0.21849 0.13839 0.0
C16 C 0.10513 0.24353 0.15224 0.0
O17 O 0.09177 0.26364 0.15152 0.0
H18 H 0.03608 0.26834 0.17763 0.0
H19 H 0.02334 0.18494 0.14695 0.0
O20 O 0.07116 0.25166 0.21764 0.0
H21 H 0.02741 0.12987 0.22163 0.0
H22 H 0.98814 0.2085 0.123 0.0
Cu23 Cu 0.18496 0.7802 0.45656 0.0
N24 N 0.17826 0.80476 0.43299 0.0
N25 N 0.18247 0.84186 0.41051 0.0
C26 C 0.19139 0.83097 0.4315 0.0
C27 C 0.16282 0.82182 0.39862 0.0
C28 C 0.16027 0.799 0.41255 0.0
O29 O 0.22313 0.78844 0.46583 0.0
C30 C 0.17216 0.72167 0.45208 0.0
O31 O 0.18082 0.72505 0.47704 0.0
H32 H 0.20783 0.8414 0.44488 0.0
H33 H 0.14665 0.77934 0.40783 0.0
N34 N 0.16502 0.78503 0.48715 0.0
N35 N 0.13149 0.77972 0.51631 0.0
C36 C 0.14071 0.77026 0.49263 0.0
C37 C 0.1715 0.80455 0.50792 0.0
C38 C 0.15089 0.80133 0.52597 0.0
C39 C 0.24057 0.79323 0.4478 0.0
O40 O 0.23245 0.79031 0.42268 0.0
H41 H 0.13015 0.75284 0.4795 0.0
H42 H 0.18979 0.82021 0.50962 0.0
O43 O 0.17319 0.74282 0.43952 0.0
H44 H 0.1512 0.82347 0.38101 0.0
H45 H 0.15007 0.81433 0.54445 0.0
Cu46 Cu 0.68584 0.87986 0.71223 0.0
N47 N 0.71073 0.88804 0.7405 0.0
N48 N 0.73332 0.87867 0.77534 0.0
C49 C 0.71423 0.86878 0.7563 0.0
C50 C 0.74274 0.90526 0.77111 0.0
C51 C 0.72858 0.91107 0.74952 0.0
O52 O 0.69234 0.8455 0.6939 0.0
C53 C 0.64393 0.8846 0.74951 0.0
O54 O 0.66163 0.88362 0.76827 0.0
H55 H 0.70295 0.84771 0.75368 0.0
H56 H 0.73115 0.93056 0.74103 0.0
N57 N 0.68976 0.90699 0.68883 0.0
N58 N 0.67495 0.93098 0.65872 0.0
C59 C 0.66835 0.91117 0.6753 0.0
C60 C 0.71106 0.92478 0.68063 0.0
C61 C 0.70195 0.93963 0.66187 0.0
C62 C 0.6925 0.8398 0.66868 0.0
O63 O 0.6831 0.85557 0.65311 0.0
H64 H 0.64837 0.89879 0.67684 0.0
H65 H 0.73168 0.92652 0.68742 0.0
O66 O 0.64939 0.87856 0.72519 0.0
H67 H 0.75841 0.91945 0.78291 0.0
H68 H 0.71425 0.95533 0.65131 0.0
Cu69 Cu 0.60626 0.38003 0.9459 0.0
N70 N 0.6052 0.41168 0.92924 0.0
N71 N 0.61909 0.45282 0.91425 0.0
C72 C 0.62648 0.42987 0.9215 0.0
C73 C 0.59217 0.44889 0.91746 0.0
C74 C 0.58365 0.42344 0.92666 0.0
O75 O 0.6398 0.3871 0.96656 0.0
C76 C 0.58764 0.34346 0.90002 0.0
O77 O 0.57283 0.36183 0.89649 0.0
H78 H 0.64713 0.42712 0.9228 0.0
H79 H 0.56338 0.41467 0.9323 0.0
N80 N 0.57747 0.37446 0.96914 0.0
N81 N 0.54116 0.35442 0.99039 0.0
C82 C 0.55792 0.3518 0.96971 0.0
C83 C 0.573 0.3921 0.98995 0.0
C84 C 0.55069 0.37984 0.00311 0.0
C85 C 0.64211 0.37717 0.9886 0.0
O86 O 0.62163 0.35979 0.99714 0.0
H87 H 0.55622 0.33379 0.95528 0.0
H88 H 0.58552 0.41223 0.99548 0.0
O89 O 0.60386 0.34763 0.92004 0.0
H90 H 0.57972 0.46371 0.91415 0.0
H91 H 0.54269 0.38877 0.02113 0.0
Cu92 Cu 0.25358 0.01218 0.26936 0.0
N93 N 0.22155 0.00265 0.2492 0.0
N94 N 0.18335 0.00964 0.23147 0.0
C95 C 0.20326 0.01898 0.24978 0.0
C96 C 0.18965 0.98685 0.21809 0.0
C97 C 0.21337 0.98255 0.22914 0.0
O98 O 0.27419 0.04442 0.25468 0.0
C99 C 0.22431 0.0083 0.31764 0.0
O100 O 0.20241 0.00436 0.30265 0.0
H101 H 0.20509 0.03804 0.26285 0.0
H102 H 0.22436 0.96663 0.2223 0.0
N103 N 0.2738 0.98461 0.2678 0.0
N104 N 0.30468 0.96576 0.2868 0.0
C105 C 0.29742 0.98932 0.28129 0.0
C106 C 0.26581 0.95691 0.26426 0.0
C107 C 0.28507 0.94518 0.27576 0.0
C108 C 0.28462 0.03953 0.23209 0.0
O109 O 0.28281 0.01367 0.22216 0.0
H110 H 0.30745 0.00977 0.28963 0.0
H111 H 0.24608 0.94616 0.25686 0.0
O112 O 0.24706 0.01724 0.30756 0.0
H113 H 0.17824 0.97456 0.20135 0.0
H114 H 0.28326 0.92353 0.27849 0.0
Cu115 Cu 0.46161 0.95453 0.50441 0.0
N116 N 0.45924 0.96689 0.47101 0.0
N117 N 0.44185 0.96936 0.43069 0.0
C118 C 0.43676 0.96203 0.4556 0.0
C119 C 0.46872 0.97948 0.43069 0.0
C120 C 0.47938 0.97781 0.45555 0.0
O121 O 0.43039 0.92512 0.50689 0.0
C122 C 0.4775 0.00591 0.53617 0.0
O123 O 0.49573 0.01124 0.51783 0.0
H124 H 0.41719 0.95261 0.4625 0.0
H125 H 0.50046 0.98297 0.46155 0.0
N126 N 0.49408 0.94255 0.50752 0.0
N127 N 0.53402 0.93868 0.52387 0.0
C128 C 0.51144 0.9489 0.52853 0.0
C129 C 0.5062 0.92803 0.48884 0.0
C130 C 0.53077 0.92537 0.49899 0.0
C131 C 0.42746 0.90182 0.49291 0.0
O132 O 0.44735 0.89606 0.47803 0.0
H133 H 0.5076 0.96083 0.54686 0.0
H134 H 0.49804 0.9205 0.46901 0.0
O135 O 0.46036 0.98326 0.53328 0.0
H136 H 0.48015 0.98649 0.41368 0.0
H137 H 0.54539 0.91509 0.48865 0.0
Cu138 Cu 0.51848 0.10489 0.77505 0.0
N139 N 0.54257 0.08483 0.78726 0.0
N140 N 0.56379 0.04995 0.79092 0.0
C141 C 0.54261 0.05796 0.78 0.0
C142 C 0.57752 0.07264 0.80568 0.0
C143 C 0.56429 0.09413 0.80346 0.0
O144 O 0.51781 0.09919 0.73638 0.0
C145 C 0.55009 0.16002 0.78522 0.0
O146 O 0.56747 0.15182 0.76839 0.0
H147 H 0.52798 0.04486 0.76618 0.0
H148 H 0.57037 0.11517 0.81256 0.0
N149 N 0.48463 0.09123 0.78795 0.0
N150 N 0.44985 0.08646 0.81551 0.0
C151 C 0.47516 0.10002 0.81153 0.0
C152 C 0.46476 0.07136 0.77649 0.0
C153 C 0.44316 0.06841 0.79346 0.0
C154 C 0.5004 0.10587 0.72145 0.0
O155 O 0.48255 0.11943 0.73225 0.0
H156 H 0.48654 0.11643 0.82526 0.0
H157 H 0.46592 0.0599 0.75719 0.0
O158 O 0.52839 0.14335 0.78958 0.0
H159 H 0.59593 0.07368 0.81704 0.0
H160 H 0.42418 0.05393 0.78997 0.0
Cu161 Cu 0.32959 0.18328 0.03791 0.0
N162 N 0.3311 0.15346 0.01266 0.0
N163 N 0.34331 0.12895 0.97665 0.0
C164 C 0.34653 0.15403 0.99087 0.0
C165 C 0.32511 0.11199 0.99007 0.0
C166 C 0.31759 0.12719 0.01225 0.0
O167 O 0.36053 0.21204 0.03302 0.0
C168 C 0.30698 0.15674 0.08141 0.0
O169 O 0.28568 0.15103 0.06536 0.0
H170 H 0.36023 0.17239 0.9859 0.0
H171 H 0.30335 0.11954 0.02704 0.0
N172 N 0.29868 0.19687 0.03149 0.0
N173 N 0.26133 0.21391 0.03878 0.0
C174 C 0.28374 0.20837 0.04982 0.0
C175 C 0.28558 0.19542 0.00798 0.0
C176 C 0.26244 0.20584 0.01242 0.0
C177 C 0.38358 0.21355 0.04376 0.0
O178 O 0.38682 0.19561 0.06035 0.0
H179 H 0.2885 0.21118 0.07101 0.0
H180 H 0.29203 0.18663 0.9891 0.0
O181 O 0.3287 0.17115 0.07357 0.0
H182 H 0.31759 0.09022 0.98421 0.0
H183 H 0.24736 0.20686 0.9975 0.0
Cu184 Cu 0.86801 0.45033 0.11005 0.0
N185 N 0.88136 0.48352 0.09631 0.0
N186 N 0.88529 0.52061 0.07404 0.0
C187 C 0.8713 0.49485 0.07637 0.0
C188 C 0.90493 0.52553 0.09304 0.0
C189 C 0.90247 0.50257 0.10672 0.0
O190 O 0.83087 0.43621 0.0987 0.0
C191 C 0.86984 0.44046 0.16546 0.0
O192 O 0.85898 0.4145 0.15788 0.0
H193 H 0.85349 0.48489 0.06458 0.0
H194 H 0.91474 0.50012 0.12357 0.0
N195 N 0.88775 0.42434 0.09651 0.0
N196 N 0.91159 0.3908 0.09413 0.0
C197 C 0.9025 0.41041 0.11019 0.0
C198 C 0.88769 0.41349 0.07092 0.0
C199 C 0.90241 0.39281 0.06935 0.0
C200 C 0.81224 0.45012 0.09977 0.0
O201 O 0.81726 0.47571 0.11113 0.0
H202 H 0.90611 0.41431 0.13153 0.0
H203 H 0.87685 0.41955 0.05473 0.0
O204 O 0.87351 0.45786 0.14832 0.0
H205 H 0.91983 0.54446 0.09693 0.0
H206 H 0.90507 0.37951 0.05153 0.0
Cu207 Cu 0.01761 0.49332 0.37446 0.0
N208 N 0.03681 0.46484 0.37269 0.0
N209 N 0.0502 0.42587 0.3573 0.0
C210 C 0.03698 0.44585 0.35165 0.0
C211 C 0.05881 0.43289 0.38298 0.0
C212 C 0.05046 0.4569 0.39241 0.0
O213 O 0.99773 0.4902 0.3409 0.0
C214 C 0.06597 0.53497 0.37693 0.0
O215 O 0.07726 0.51569 0.36447 0.0
H216 H 0.02706 0.44654 0.33278 0.0
H217 H 0.05326 0.46728 0.41248 0.0
N218 N 0.99302 0.48858 0.40184 0.0
N219 N 0.96675 0.49946 0.43516 0.0
C220 C 0.98874 0.50826 0.42087 0.0
C221 C 0.97327 0.46649 0.40431 0.0
C222 C 0.95689 0.47322 0.42484 0.0
C223 C 0.97464 0.49659 0.3394 0.0
O224 O 0.96466 0.50803 0.36082 0.0
H225 H 0.00044 0.52916 0.42301 0.0
H226 H 0.97025 0.44741 0.39121 0.0
O227 O 0.04098 0.5294 0.38212 0.0
H228 H 0.06938 0.421 0.39459 0.0
H229 H 0.9387 0.4602 0.43114 0.0
Cu230 Cu 0.89637 0.70378 0.60395 0.0
N231 N 0.88547 0.66843 0.58632 0.0
N232 N 0.88678 0.62933 0.56072 0.0
C233 C 0.89819 0.65626 0.56643 0.0
C234 C 0.86593 0.62442 0.57742 0.0
C235 C 0.86505 0.64869 0.59308 0.0
O236 O 0.93314 0.71931 0.59471 0.0
C237 C 0.89667 0.68182 0.65399 0.0
O238 O 0.90577 0.66158 0.64047 0.0
H239 H 0.91629 0.66651 0.5573 0.0
H240 H 0.85126 0.6515 0.60909 0.0
N241 N 0.87366 0.72629 0.59373 0.0
N242 N 0.83965 0.74896 0.59447 0.0
C243 C 0.84962 0.72858 0.60424 0.0
C244 C 0.87903 0.74569 0.57662 0.0
C245 C 0.85808 0.75981 0.57709 0.0
C246 C 0.9525 0.70658 0.59643 0.0
O247 O 0.94789 0.68233 0.60571 0.0
H248 H 0.84033 0.71651 0.61974 0.0
H249 H 0.89732 0.74988 0.56533 0.0
O250 O 0.89265 0.70213 0.64211 0.0
H251 H 0.85272 0.60458 0.5786 0.0
H252 H 0.85676 0.77708 0.56598 0.0
Cu253 Cu 0.80002 0.66331 0.88643 0.0
N254 N 0.78593 0.69532 0.89103 0.0
N255 N 0.77629 0.73588 0.8833 0.0
C256 C 0.78836 0.71489 0.87409 0.0
C257 C 0.76596 0.7292 0.90706 0.0
C258 C 0.77198 0.70415 0.91178 0.0
O259 O 0.81856 0.6622 0.8528 0.0
C260 C 0.74795 0.6272 0.8805 0.0
O261 O 0.73996 0.64692 0.86903 0.0
H262 H 0.79904 0.71382 0.85551 0.0
H263 H 0.7665 0.69306 0.92902 0.0
N264 N 0.82515 0.66423 0.91343 0.0
N265 N 0.84625 0.65036 0.94679 0.0
C266 C 0.82349 0.64611 0.93173 0.0
C267 C 0.84969 0.68065 0.91704 0.0
C268 C 0.86285 0.67206 0.93765 0.0
C269 C 0.80619 0.65764 0.83032 0.0
O270 O 0.77971 0.65243 0.82959 0.0
H271 H 0.80646 0.62927 0.93305 0.0
H272 H 0.85774 0.69705 0.90492 0.0
O273 O 0.77229 0.63047 0.88863 0.0
H274 H 0.75438 0.74122 0.91985 0.0
H275 H 0.88318 0.68073 0.94499 0.0
C276 C 0.06795 0.09624 0.20955 0.0
C277 C 0.08202 0.12375 0.21072 0.0
C278 C 0.08166 0.07441 0.21132 0.0
C279 C 0.11011 0.08023 0.2142 0.0
C280 C 0.12445 0.10784 0.21499 0.0
C281 C 0.11025 0.12921 0.21341 0.0
C282 C 0.06572 0.04521 0.21051 0.0
C283 C 0.15483 0.11495 0.21807 0.0
C284 C 0.14915 0.03549 0.24827 0.0
C285 C 0.16147 0.02319 0.22661 0.0
C286 C 0.1309 0.05266 0.24436 0.0
C287 C 0.12508 0.05791 0.21811 0.0
C288 C 0.13621 0.04421 0.19602 0.0
C289 C 0.15424 0.02681 0.20056 0.0
C290 C 0.11923 0.06655 0.26846 0.0
C291 C 0.13058 0.04938 0.16774 0.0
H292 H 0.04621 0.0917 0.20709 0.0
H293 H 0.12135 0.15032 0.2148 0.0
H294 H 0.07322 0.03172 0.19449 0.0
H295 H 0.06854 0.03682 0.22969 0.0
H296 H 0.04381 0.044 0.20702 0.0
H297 H 0.16303 0.13726 0.21681 0.0
H298 H 0.161 0.10952 0.23766 0.0
H299 H 0.16417 0.10274 0.20234 0.0
H300 H 0.15455 0.03232 0.2684 0.0
H301 H 0.16392 0.0174 0.18385 0.0
H302 H 0.09712 0.06443 0.2658 0.0
H303 H 0.1282 0.08897 0.27074 0.0
H304 H 0.12326 0.05781 0.28717 0.0
H305 H 0.10867 0.04805 0.16434 0.0
H306 H 0.13774 0.03448 0.15281 0.0
H307 H 0.14095 0.0706 0.16434 0.0
C308 C 0.37728 0.89374 0.49632 0.0
C309 C 0.40062 0.88325 0.49018 0.0
C310 C 0.35154 0.87743 0.49065 0.0
C311 C 0.34905 0.84978 0.47904 0.0
C312 C 0.37251 0.83867 0.47398 0.0
C313 C 0.39804 0.85564 0.47935 0.0
C314 C 0.32705 0.89023 0.49591 0.0
C315 C 0.37067 0.80915 0.4621 0.0
C316 C 0.27922 0.80428 0.4809 0.0
C317 C 0.26906 0.80547 0.45521 0.0
C318 C 0.30561 0.81777 0.48868 0.0
C319 C 0.32197 0.83326 0.4705 0.0
C320 C 0.31196 0.83411 0.44439 0.0
C321 C 0.28575 0.81997 0.43698 0.0
C322 C 0.31576 0.81596 0.51651 0.0
C323 C 0.32858 0.85078 0.42455 0.0
H324 H 0.37911 0.91513 0.50447 0.0
H325 H 0.41601 0.84739 0.47467 0.0
H326 H 0.31661 0.89105 0.4767 0.0
H327 H 0.31254 0.87737 0.50827 0.0
H328 H 0.33235 0.91152 0.50625 0.0
H329 H 0.39057 0.80284 0.46192 0.0
H330 H 0.35641 0.79491 0.47351 0.0
H331 H 0.36272 0.80665 0.44127 0.0
H332 H 0.26646 0.79301 0.49504 0.0
H333 H 0.278 0.82115 0.41714 0.0
H334 H 0.31907 0.83666 0.52806 0.0
H335 H 0.33546 0.80927 0.51563 0.0
H336 H 0.30139 0.80131 0.52747 0.0
H337 H 0.3337 0.87284 0.43275 0.0
H338 H 0.31788 0.84929 0.40503 0.0
H339 H 0.34786 0.84361 0.42113 0.0
C340 C 0.55166 0.99905 0.78267 0.0
C341 C 0.57138 0.02342 0.78598 0.0
C342 C 0.5589 0.97311 0.77732 0.0
C343 C 0.58646 0.97163 0.77472 0.0
C344 C 0.60641 0.99623 0.77797 0.0
C345 C 0.59863 0.02176 0.7838 0.0
C346 C 0.53712 0.94733 0.77429 0.0
C347 C 0.63602 0.99565 0.77484 0.0
C348 C 0.6173 0.90918 0.7823 0.0
C349 C 0.62283 0.90116 0.75566 0.0
C350 C 0.60325 0.93066 0.78876 0.0
C351 C 0.59484 0.94462 0.76811 0.0
C352 C 0.59811 0.93487 0.74111 0.0
C353 C 0.61187 0.91309 0.7352 0.0
C354 C 0.59944 0.93988 0.81779 0.0
C355 C 0.58957 0.9491 0.71838 0.0
H356 H 0.53059 1.00032 0.78455 0.0
H357 H 0.61385 0.04059 0.78595 0.0
H358 H 0.53737 0.9366 0.75387 0.0
H359 H 0.541 0.9328 0.78851 0.0
H360 H 0.51671 0.95192 0.77787 0.0
H361 H 0.64894 0.01664 0.77776 0.0
H362 H 0.64249 0.98289 0.78952 0.0
H363 H 0.6395 0.98598 0.7546 0.0
H364 H 0.62538 0.89984 0.79823 0.0
H365 H 0.61582 0.90699 0.71452 0.0
H366 H 0.57885 0.94406 0.82097 0.0
H367 H 0.61399 0.9594 0.82381 0.0
H368 H 0.60279 0.92421 0.83103 0.0
H369 H 0.5702 0.95587 0.72245 0.0
H370 H 0.58741 0.93543 0.6993 0.0
H371 H 0.60514 0.96777 0.71583 0.0
C372 C 0.51595 0.30602 0.98876 0.0
C373 C 0.51849 0.33415 0.99795 0.0
C374 C 0.49414 0.28616 0.99615 0.0
C375 C 0.4745 0.29451 0.01344 0.0
C376 C 0.47691 0.32275 0.0229 0.0
C377 C 0.49871 0.34221 0.01489 0.0
C378 C 0.49209 0.25624 0.98542 0.0
C379 C 0.45642 0.33246 0.04146 0.0
C380 C 0.40494 0.24857 0.01384 0.0
C381 C 0.40677 0.23452 0.03639 0.0
C382 C 0.42689 0.26795 0.00604 0.0
C383 C 0.45118 0.27375 0.02136 0.0
C384 C 0.45311 0.25982 0.04428 0.0
C385 C 0.43094 0.24022 0.05141 0.0
C386 C 0.42414 0.28209 0.98128 0.0
C387 C 0.47858 0.26573 0.06131 0.0
H388 H 0.53115 0.29933 0.976 0.0
H389 H 0.50004 0.36382 0.02181 0.0
H390 H 0.4924 0.24343 0.00219 0.0
H391 H 0.47265 0.24849 0.97438 0.0
H392 H 0.5088 0.25318 0.97182 0.0
H393 H 0.46162 0.35504 0.04765 0.0
H394 H 0.43622 0.32759 0.03152 0.0
H395 H 0.45488 0.32136 0.05963 0.0
H396 H 0.38641 0.24413 0.00198 0.0
H397 H 0.43248 0.22949 0.06889 0.0
H398 H 0.43978 0.27803 0.96677 0.0
H399 H 0.42743 0.30479 0.98648 0.0
H400 H 0.40399 0.27499 0.97137 0.0
H401 H 0.49574 0.26114 0.04912 0.0
H402 H 0.47674 0.25336 0.07865 0.0
H403 H 0.48355 0.28799 0.06884 0.0
C404 C 0.2453 0.98149 0.3483 0.0
C405 C 0.22325 0.99293 0.34147 0.0
C406 C 0.24197 0.95966 0.36449 0.0
C407 C 0.21603 0.94925 0.37414 0.0
C408 C 0.1946 0.96303 0.36998 0.0
C409 C 0.19846 0.98465 0.35361 0.0
C410 C 0.26563 0.94604 0.36861 0.0
C411 C 0.16676 0.95304 0.38037 0.0
C412 C 0.19234 0.87193 0.37431 0.0
C413 C 0.19261 0.86861 0.40161 0.0
C414 C 0.20093 0.89791 0.36518 0.0
C415 C 0.20983 0.92135 0.38384 0.0
C416 C 0.21104 0.91807 0.4114 0.0
C417 C 0.20247 0.89167 0.41998 0.0
C418 C 0.19993 0.90034 0.33552 0.0
C419 C 0.22077 0.94251 0.43179 0.0
H420 H 0.26459 0.98773 0.33906 0.0
H421 H 0.18144 0.99365 0.34866 0.0
H422 H 0.26411 0.93585 0.38732 0.0
H423 H 0.26631 0.93009 0.3516 0.0
H424 H 0.28493 0.96133 0.36916 0.0
H425 H 0.1537 0.96849 0.37932 0.0
H426 H 0.15706 0.93367 0.36821 0.0
H427 H 0.1679 0.94832 0.40136 0.0
H428 H 0.1854 0.85408 0.35999 0.0
H429 H 0.20274 0.8892 0.4411 0.0
H430 H 0.22004 0.91034 0.32879 0.0
H431 H 0.18548 0.91359 0.33121 0.0
H432 H 0.19367 0.87993 0.32361 0.0
H433 H 0.24084 0.95386 0.42626 0.0
H434 H 0.22227 0.93626 0.45222 0.0
H435 H 0.20669 0.9571 0.43207 0.0
C436 C 0.57033 0.91942 0.54266 0.0
C437 C 0.55678 0.94137 0.54179 0.0
C438 C 0.5914 0.92097 0.56121 0.0
C439 C 0.59947 0.9453 0.57898 0.0
C440 C 0.58663 0.96802 0.57739 0.0
C441 C 0.56521 0.96566 0.55899 0.0
C442 C 0.60413 0.89603 0.56265 0.0
C443 C 0.59504 0.99453 0.59554 0.0
C444 C 0.62886 0.93375 0.64501 0.0
C445 C 0.65666 0.93868 0.64015 0.0
C446 C 0.61013 0.93662 0.62555 0.0
C447 C 0.61939 0.94567 0.60084 0.0
C448 C 0.64747 0.95282 0.59651 0.0
C449 C 0.66581 0.94898 0.61614 0.0
C450 C 0.58037 0.92863 0.63099 0.0
C451 C 0.65809 0.96331 0.57069 0.0
H452 H 0.56368 0.90059 0.52952 0.0
H453 H 0.55502 0.98282 0.55801 0.0
H454 H 0.62634 0.9019 0.56106 0.0
H455 H 0.59992 0.8879 0.58229 0.0
H456 H 0.59641 0.8792 0.54662 0.0
H457 H 0.58538 0.01132 0.58956 0.0
H458 H 0.58934 0.99093 0.61635 0.0
H459 H 0.61727 0.00154 0.5955 0.0
H460 H 0.62157 0.92675 0.66383 0.0
H461 H 0.6872 0.95298 0.61218 0.0
H462 H 0.57055 0.912 0.61564 0.0
H463 H 0.57054 0.94657 0.62974 0.0
H464 H 0.57651 0.92119 0.65096 0.0
H465 H 0.65395 0.94622 0.55429 0.0
H466 H 0.68017 0.97161 0.57189 0.0
H467 H 0.64769 0.97978 0.56532 0.0
C468 C 0.56871 0.31444 0.85809 0.0
C469 C 0.58433 0.31754 0.88167 0.0
C470 C 0.56416 0.28957 0.84117 0.0
C471 C 0.57528 0.26711 0.84806 0.0
C472 C 0.5915 0.27026 0.87155 0.0
C473 C 0.59592 0.29547 0.88801 0.0
C474 C 0.54694 0.28714 0.81619 0.0
C475 C 0.60355 0.24675 0.87972 0.0
C476 C 0.53953 0.19462 0.82143 0.0
C477 C 0.55629 0.18782 0.80058 0.0
C478 C 0.54552 0.2203 0.83697 0.0
C479 C 0.56874 0.23986 0.83147 0.0
C480 C 0.58558 0.23332 0.81026 0.0
C481 C 0.57922 0.20733 0.79514 0.0
C482 C 0.5271 0.22636 0.85949 0.0
C483 C 0.61037 0.25373 0.80363 0.0
H484 H 0.55979 0.33142 0.85292 0.0
H485 H 0.60798 0.29764 0.90619 0.0
H486 H 0.55787 0.28013 0.7985 0.0
H487 H 0.52827 0.27137 0.8177 0.0
H488 H 0.54118 0.30702 0.8128 0.0
H489 H 0.61665 0.25289 0.89791 0.0
H490 H 0.58718 0.22925 0.88368 0.0
H491 H 0.61564 0.2391 0.86326 0.0
H492 H 0.52181 0.1797 0.8259 0.0
H493 H 0.59227 0.20229 0.77907 0.0
H494 H 0.51898 0.24502 0.85634 0.0
H495 H 0.53863 0.23081 0.87872 0.0
H496 H 0.5099 0.2089 0.86123 0.0
H497 H 0.60467 0.27331 0.79917 0.0
H498 H 0.62111 0.24571 0.78622 0.0
H499 H 0.6245 0.25878 0.82109 0.0
C500 C 0.24409 0.23956 0.07737 0.0
C501 C 0.23931 0.2229 0.05294 0.0
C502 C 0.22266 0.24589 0.09291 0.0
C503 C 0.1958 0.2352 0.08381 0.0
C504 C 0.19086 0.21947 0.05858 0.0
C505 C 0.21269 0.21355 0.04342 0.0
C506 C 0.22875 0.26293 0.11961 0.0
C507 C 0.16249 0.20763 0.04822 0.0
C508 C 0.14234 0.22013 0.13591 0.0
C509 C 0.12882 0.24219 0.13521 0.0
C510 C 0.16426 0.21781 0.11941 0.0
C511 C 0.17297 0.23807 0.10177 0.0
C512 C 0.15967 0.26059 0.10113 0.0
C513 C 0.13769 0.26238 0.11787 0.0
C514 C 0.17791 0.19345 0.12069 0.0
C515 C 0.1685 0.28261 0.0826 0.0
H516 H 0.26464 0.24724 0.08458 0.0
H517 H 0.20881 0.20047 0.0247 0.0
H518 H 0.21726 0.27989 0.12154 0.0
H519 H 0.2223 0.24974 0.13588 0.0
H520 H 0.25058 0.272 0.12254 0.0
H521 H 0.16207 0.19817 0.0272 0.0
H522 H 0.15274 0.19154 0.06083 0.0
H523 H 0.15024 0.22395 0.04946 0.0
H524 H 0.13568 0.20442 0.14925 0.0
H525 H 0.12736 0.27949 0.11721 0.0
H526 H 0.19965 0.20084 0.12579 0.0
H527 H 0.17652 0.18116 0.10086 0.0
H528 H 0.16881 0.17965 0.13571 0.0
H529 H 0.19011 0.29208 0.08634 0.0
H530 H 0.15651 0.29918 0.08503 0.0
H531 H 0.16643 0.27318 0.06155 0.0
C532 C 0.28904 0.08845 0.22078 0.0
C533 C 0.29446 0.06183 0.2149 0.0
C534 C 0.29393 0.10787 0.20193 0.0
C535 C 0.30431 0.10036 0.17668 0.0
C536 C 0.31161 0.07424 0.1715 0.0
C537 C 0.3067 0.05538 0.19068 0.0
C538 C 0.28633 0.1357 0.20839 0.0
C539 C 0.32275 0.06533 0.14488 0.0
C540 C 0.28221 0.1271 0.1142 0.0
C541 C 0.30584 0.14482 0.10735 0.0
C542 C 0.28116 0.11353 0.13737 0.0
C543 C 0.30425 0.1179 0.15437 0.0
C544 C 0.32776 0.13683 0.14834 0.0
C545 C 0.32834 0.14998 0.12479 0.0
C546 C 0.25568 0.09344 0.14295 0.0
C547 C 0.3526 0.14238 0.1662 0.0
H548 H 0.27969 0.09366 0.23949 0.0
H549 H 0.3113 0.03499 0.18609 0.0
H550 H 0.30214 0.15239 0.20179 0.0
H551 H 0.26735 0.13608 0.19751 0.0
H552 H 0.28316 0.14022 0.23011 0.0
H553 H 0.32981 0.0455 0.14496 0.0
H554 H 0.30684 0.0627 0.12911 0.0
H555 H 0.3398 0.08137 0.13938 0.0
H556 H 0.26463 0.12311 0.101 0.0
H557 H 0.34661 0.16382 0.11978 0.0
H558 H 0.24886 0.09841 0.16349 0.0
H559 H 0.25977 0.07217 0.14163 0.0
H560 H 0.239 0.09363 0.12865 0.0
H561 H 0.34716 0.14637 0.1874 0.0
H562 H 0.36778 0.16031 0.1608 0.0
H563 H 0.36203 0.12391 0.16455 0.0
C564 C 0.42879 0.98115 0.38653 0.0
C565 C 0.42282 0.96591 0.40854 0.0
C566 C 0.41012 0.97875 0.36537 0.0
C567 C 0.38462 0.96098 0.36635 0.0
C568 C 0.37862 0.94504 0.38811 0.0
C569 C 0.39785 0.94749 0.40878 0.0
C570 C 0.41731 0.99602 0.34242 0.0
C571 C 0.35155 0.92603 0.38999 0.0
C572 C 0.32752 0.98208 0.3302 0.0
C573 C 0.32434 0.96376 0.30678 0.0
C574 C 0.34664 0.98092 0.34991 0.0
C575 C 0.36339 0.96119 0.34596 0.0
C576 C 0.3601 0.94235 0.32248 0.0
C577 C 0.34034 0.94368 0.30322 0.0
C578 C 0.34894 0.00092 0.37495 0.0
C579 C 0.37779 0.92122 0.3175 0.0
H580 H 0.44781 0.99556 0.38607 0.0
H581 H 0.3931 0.93501 0.42519 0.0
H582 H 0.41323 0.9829 0.32308 0.0
H583 H 0.40456 0.01187 0.34279 0.0
H584 H 0.43883 0.00668 0.3433 0.0
H585 H 0.35012 0.9149 0.40815 0.0
H586 H 0.33522 0.93809 0.39033 0.0
H587 H 0.34783 0.91059 0.37216 0.0
H588 H 0.31474 0.99721 0.33329 0.0
H589 H 0.33777 0.92951 0.28512 0.0
H590 H 0.36931 0.01435 0.3765 0.0
H591 H 0.34637 0.98941 0.39285 0.0
H592 H 0.33368 0.01428 0.37532 0.0
H593 H 0.39918 0.93186 0.31666 0.0
H594 H 0.37228 0.90769 0.29853 0.0
H595 H 0.37627 0.90809 0.33421 0.0
C596 C 0.51428 0.07667 0.68243 0.0
C597 C 0.49844 0.09548 0.69264 0.0
C598 C 0.51086 0.06437 0.65597 0.0
C599 C 0.49131 0.07122 0.63911 0.0
C600 C 0.47604 0.09105 0.6489 0.0
C601 C 0.47968 0.10284 0.6756 0.0
C602 C 0.52746 0.0432 0.64638 0.0
C603 C 0.45529 0.09918 0.63141 0.0
C604 C 0.49751 0.04951 0.56499 0.0
C605 C 0.47902 0.02424 0.56159 0.0
C606 C 0.50095 0.06567 0.58984 0.0
C607 C 0.48577 0.05618 0.61188 0.0
C608 C 0.46644 0.03116 0.60833 0.0
C609 C 0.4632 0.0156 0.58323 0.0
C610 C 0.52149 0.09241 0.59275 0.0
C611 C 0.44997 0.0202 0.63134 0.0
H612 H 0.52884 0.07082 0.69539 0.0
H613 H 0.46745 0.11745 0.68325 0.0
H614 H 0.51401 0.02274 0.64146 0.0
H615 H 0.53807 0.04889 0.62786 0.0
H616 H 0.54267 0.04111 0.66157 0.0
H617 H 0.44687 0.11666 0.6412 0.0
H618 H 0.4643 0.10509 0.61223 0.0
H619 H 0.43847 0.08126 0.62658 0.0
H620 H 0.50972 0.05643 0.54837 0.0
H621 H 0.44886 0.99612 0.58085 0.0
H622 H 0.5385 0.09034 0.6058 0.0
H623 H 0.51239 0.10943 0.60244 0.0
H624 H 0.52967 0.09827 0.5732 0.0
H625 H 0.46353 0.0154 0.64676 0.0
H626 H 0.43481 0.00118 0.62497 0.0
H627 H 0.43933 0.03608 0.64088 0.0
C628 C 0.40532 0.08606 0.83591 0.0
C629 C 0.43352 0.09083 0.83844 0.0
C630 C 0.38936 0.09135 0.85795 0.0
C631 C 0.40192 0.10155 0.8831 0.0
C632 C 0.43034 0.10596 0.88587 0.0
C633 C 0.44576 0.10054 0.86353 0.0
C634 C 0.35911 0.08646 0.85423 0.0
C635 C 0.44448 0.11666 0.9124 0.0
C636 C 0.36615 0.14162 0.93506 0.0
C637 C 0.35701 0.12173 0.95262 0.0
C638 C 0.38032 0.13517 0.91207 0.0
C639 C 0.38551 0.10816 0.9065 0.0
C640 C 0.37595 0.08784 0.92387 0.0
C641 C 0.3618 0.09486 0.94671 0.0
C642 C 0.39008 0.15737 0.89394 0.0
C643 C 0.3812 0.05885 0.91865 0.0
H644 H 0.39576 0.07883 0.81655 0.0
H645 H 0.46748 0.10379 0.86576 0.0
H646 H 0.34916 0.07207 0.86835 0.0
H647 H 0.35206 0.10621 0.8588 0.0
H648 H 0.35242 0.07773 0.83356 0.0
H649 H 0.46669 0.11845 0.9113 0.0
H650 H 0.44019 0.13732 0.91926 0.0
H651 H 0.43676 0.1027 0.92773 0.0
H652 H 0.36213 0.16227 0.93924 0.0
H653 H 0.35509 0.07947 0.96031 0.0
H654 H 0.38244 0.15029 0.87324 0.0
H655 H 0.41244 0.16151 0.89338 0.0
H656 H 0.38352 0.17705 0.90057 0.0
H657 H 0.37372 0.04966 0.89836 0.0
H658 H 0.3714 0.04515 0.93346 0.0
H659 H 0.40324 0.05942 0.91937 0.0
C660 C 0.78241 0.41242 0.07055 0.0
C661 C 0.78608 0.43831 0.08573 0.0
C662 C 0.75871 0.40179 0.05535 0.0
C663 C 0.73802 0.41729 0.05544 0.0
C664 C 0.74124 0.44307 0.07127 0.0
C665 C 0.76527 0.45333 0.08617 0.0
C666 C 0.75612 0.37426 0.03866 0.0
C667 C 0.7195 0.46008 0.07206 0.0
C668 C 0.68949 0.40394 0.99571 0.0
C669 C 0.66695 0.38672 0.00539 0.0
C670 C 0.71273 0.41401 0.01178 0.0
C671 C 0.71341 0.40685 0.03827 0.0
C672 C 0.69077 0.38944 0.04816 0.0
C673 C 0.66786 0.37949 0.03158 0.0
C674 C 0.73656 0.43232 0.00042 0.0
C675 C 0.69067 0.38148 0.07633 0.0
H676 H 0.79834 0.40063 0.07002 0.0
H677 H 0.76789 0.47331 0.09785 0.0
H678 H 0.73755 0.35996 0.04385 0.0
H679 H 0.7543 0.37712 0.0172 0.0
H680 H 0.77369 0.36439 0.04143 0.0
H681 H 0.72453 0.47902 0.08638 0.0
H682 H 0.71649 0.46629 0.0519 0.0
H683 H 0.70005 0.44757 0.07777 0.0
H684 H 0.68898 0.40964 0.97552 0.0
H685 H 0.65051 0.36633 0.03931 0.0
H686 H 0.75464 0.42284 0.00115 0.0
H687 H 0.74129 0.45264 0.01267 0.0
H688 H 0.73285 0.43586 0.97941 0.0
H689 H 0.70736 0.37047 0.07927 0.0
H690 H 0.67137 0.36799 0.08108 0.0
H691 H 0.69415 0.40033 0.0908 0.0
C692 C 0.03515 0.39177 0.31813 0.0
C693 C 0.05271 0.40121 0.34023 0.0
C694 C 0.03697 0.36765 0.30166 0.0
C695 C 0.05658 0.35222 0.30754 0.0
C696 C 0.07442 0.36153 0.32971 0.0
C697 C 0.07238 0.38598 0.34567 0.0
C698 C 0.01767 0.35851 0.27807 0.0
C699 C 0.09549 0.34553 0.3367 0.0
C700 C 0.04116 0.27684 0.27887 0.0
C701 C 0.05694 0.27739 0.25594 0.0
C702 C 0.04161 0.30086 0.29638 0.0
C703 C 0.05799 0.32612 0.29064 0.0
C704 C 0.07449 0.32667 0.26789 0.0
C705 C 0.0739 0.30225 0.2509 0.0
C706 C 0.024 0.29936 0.32063 0.0
C707 C 0.09199 0.35325 0.26094 0.0
H708 H 0.01955 0.40288 0.31382 0.0
H709 H 0.08632 0.39315 0.36238 0.0
H710 H 0.02908 0.35609 0.25943 0.0
H711 H 0.00491 0.33806 0.2806 0.0
H712 H 0.00428 0.37339 0.2756 0.0
H713 H 0.10786 0.35555 0.35457 0.0
H714 H 0.0856 0.32432 0.3406 0.0
H715 H 0.10908 0.34349 0.31963 0.0
H716 H 0.02814 0.25767 0.28298 0.0
H717 H 0.08608 0.30288 0.23317 0.0
H718 H 0.00821 0.31176 0.31869 0.0
H719 H 0.03617 0.30832 0.33889 0.0
H720 H 0.01396 0.27781 0.3233 0.0
H721 H 0.07907 0.36791 0.25634 0.0
H722 H 0.1048 0.3499 0.24344 0.0
H723 H 0.10524 0.36321 0.2782 0.0
C724 C 0.98493 0.74451 0.57755 0.0
C725 C 0.97949 0.71806 0.58632 0.0
C726 C 0.01002 0.75509 0.56682 0.0
C727 C 0.03011 0.73877 0.56465 0.0
C728 C 0.02489 0.71221 0.57378 0.0
C729 C 0.99968 0.70221 0.58457 0.0
C730 C 0.01491 0.78359 0.55748 0.0
C731 C 0.04575 0.69413 0.57168 0.0
C732 C 0.08413 0.75425 0.51279 0.0
C733 C 0.10614 0.7693 0.52848 0.0
C734 C 0.05937 0.74408 0.52432 0.0
C735 C 0.05638 0.74923 0.55224 0.0
C736 C 0.07842 0.76439 0.56823 0.0
C737 C 0.10303 0.77415 0.55618 0.0
C738 C 0.03635 0.72792 0.50659 0.0
C739 C 0.07602 0.7703 0.59807 0.0
H740 H 0.96949 0.75694 0.57888 0.0
H741 H 0.99567 0.68173 0.59123 0.0
H742 H 0.03311 0.7967 0.5677 0.0
H743 H 0.01876 0.78218 0.53573 0.0
H744 H 0.99753 0.794 0.56135 0.0
H745 H 0.03879 0.67427 0.58031 0.0
H746 H 0.05062 0.68954 0.5504 0.0
H747 H 0.0647 0.70515 0.58216 0.0
H748 H 0.08607 0.7507 0.49137 0.0
H749 H 0.11993 0.78535 0.56859 0.0
H750 H 0.01901 0.73861 0.508 0.0
H751 H 0.02938 0.70716 0.5134 0.0
H752 H 0.04208 0.72528 0.48531 0.0
H753 H 0.05952 0.78179 0.60251 0.0
H754 H 0.09498 0.78261 0.60766 0.0
H755 H 0.07072 0.75062 0.60728 0.0
C756 C 0.11018 0.56879 0.38142 0.0
C757 C 0.0824 0.56261 0.38619 0.0
C758 C 0.12607 0.5945 0.39106 0.0
C759 C 0.11391 0.61452 0.40585 0.0
C760 C 0.08584 0.60853 0.41044 0.0
C761 C 0.07045 0.58271 0.40057 0.0
C762 C 0.15592 0.60012 0.38572 0.0
C763 C 0.07209 0.62931 0.4261 0.0
C764 C 0.15612 0.67075 0.45396 0.0
C765 C 0.15903 0.69385 0.43949 0.0
C766 C 0.14202 0.64469 0.44302 0.0
C767 C 0.13053 0.64159 0.41695 0.0
C768 C 0.13398 0.66465 0.40197 0.0
C769 C 0.14818 0.69047 0.41341 0.0
C770 C 0.13883 0.62061 0.45963 0.0
C771 C 0.12209 0.6622 0.37411 0.0
H772 H 0.11961 0.55344 0.37034 0.0
H773 H 0.04902 0.57818 0.40439 0.0
H774 H 0.16149 0.61904 0.37532 0.0
H775 H 0.16751 0.60393 0.4049 0.0
H776 H 0.16218 0.58267 0.37335 0.0
H777 H 0.05002 0.62165 0.42753 0.0
H778 H 0.08093 0.63425 0.44661 0.0
H779 H 0.07546 0.64886 0.41656 0.0
H780 H 0.16444 0.67309 0.4741 0.0
H781 H 0.15032 0.70816 0.40203 0.0
H782 H 0.14612 0.60308 0.44852 0.0
H783 H 0.11717 0.61331 0.46365 0.0
H784 H 0.15003 0.62611 0.47903 0.0
H785 H 0.12895 0.64542 0.36132 0.0
H786 H 0.12773 0.68171 0.36459 0.0
H787 H 0.09977 0.65663 0.3748 0.0
C788 C 0.70579 0.59232 0.86784 0.0
C789 C 0.72872 0.60137 0.88446 0.0
C790 C 0.6876 0.56766 0.87135 0.0
C791 C 0.6921 0.55213 0.89243 0.0
C792 C 0.7151 0.56136 0.90942 0.0
C793 C 0.73331 0.58567 0.90501 0.0
C794 C 0.66364 0.55815 0.85245 0.0
C795 C 0.7203 0.54577 0.93251 0.0
C796 C 0.63226 0.5036 0.91844 0.0
C797 C 0.63674 0.47768 0.90783 0.0
C798 C 0.65006 0.528 0.91352 0.0
C799 C 0.67255 0.52645 0.89707 0.0
C800 C 0.67678 0.50032 0.88576 0.0
C801 C 0.659 0.47621 0.89159 0.0
C802 C 0.6452 0.55538 0.9265 0.0
C803 C 0.70016 0.49784 0.86762 0.0
H804 H 0.70229 0.60429 0.85181 0.0
H805 H 0.75092 0.5927 0.91804 0.0
H806 H 0.66366 0.53692 0.84302 0.0
H807 H 0.64465 0.55732 0.86364 0.0
H808 H 0.6636 0.572 0.83645 0.0
H809 H 0.70294 0.54404 0.94616 0.0
H810 H 0.7223 0.52446 0.92505 0.0
H811 H 0.73888 0.55599 0.94414 0.0
H812 H 0.61524 0.50469 0.93131 0.0
H813 H 0.6623 0.45614 0.88326 0.0
H814 H 0.64329 0.56933 0.91105 0.0
H815 H 0.6627 0.56562 0.93963 0.0
H816 H 0.6267 0.55302 0.93865 0.0
H817 H 0.69988 0.51071 0.85089 0.0
H818 H 0.69971 0.47615 0.85922 0.0
H819 H 0.71948 0.50569 0.87883 0.0
C820 C 0.72207 0.84298 0.80606 0.0
C821 C 0.74138 0.86314 0.79546 0.0
C822 C 0.72962 0.82476 0.82271 0.0
C823 C 0.75725 0.82674 0.829 0.0
C824 C 0.77677 0.84811 0.81964 0.0
C825 C 0.76856 0.86617 0.80296 0.0
C826 C 0.7081 0.80245 0.83241 0.0
C827 C 0.80639 0.85094 0.82605 0.0
C828 C 0.77035 0.78432 0.88449 0.0
C829 C 0.77378 0.75963 0.86988 0.0
C830 C 0.76629 0.80698 0.8715 0.0
C831 C 0.76552 0.80481 0.84324 0.0
C832 C 0.76995 0.78032 0.82841 0.0
C833 C 0.77399 0.75806 0.84189 0.0
C834 C 0.76186 0.83283 0.88799 0.0
C835 C 0.76915 0.77711 0.79822 0.0
H836 H 0.70098 0.84102 0.80069 0.0
H837 H 0.78349 0.88172 0.79472 0.0
H838 H 0.71081 0.7819 0.82318 0.0
H839 H 0.70993 0.80247 0.85437 0.0
H840 H 0.68742 0.80505 0.82739 0.0
H841 H 0.81852 0.87057 0.82022 0.0
H842 H 0.80965 0.85005 0.84772 0.0
H843 H 0.81396 0.83344 0.81522 0.0
H844 H 0.77065 0.78587 0.90611 0.0
H845 H 0.77632 0.73903 0.8304 0.0
H846 H 0.74067 0.83515 0.88535 0.0
H847 H 0.77501 0.85135 0.88113 0.0
H848 H 0.76592 0.83236 0.90961 0.0
H849 H 0.74842 0.77697 0.79092 0.0
H850 H 0.77518 0.7577 0.78971 0.0
H851 H 0.78273 0.79485 0.79048 0.0
C852 C 0.00636 0.2943 0.14291 0.0
C853 C 0.99334 0.2664 0.14016 0.0
C854 C 0.99334 0.31495 0.13552 0.0
C855 C 0.9667 0.30754 0.12492 0.0
C856 C 0.95346 0.27944 0.12192 0.0
C857 C 0.96693 0.25921 0.12962 0.0
C858 C 0.00811 0.34472 0.13905 0.0
C859 C 0.92503 0.27077 0.11066 0.0
C860 C 0.92389 0.36254 0.12809 0.0
C861 C 0.92595 0.3704 0.10204 0.0
C862 C 0.93713 0.3422 0.13584 0.0
C863 C 0.95268 0.32923 0.11704 0.0
C864 C 0.95495 0.33707 0.09075 0.0
C865 C 0.94163 0.35762 0.0836 0.0
C866 C 0.93433 0.33444 0.1641 0.0
C867 C 0.9714 0.32371 0.07016 0.0
H868 H 0.02691 0.30006 0.15055 0.0
H869 H 0.95661 0.23779 0.12771 0.0
H870 H 0.00976 0.35331 0.11948 0.0
H871 H 0.99659 0.35732 0.15227 0.0
H872 H 0.02871 0.34705 0.14778 0.0
H873 H 0.91769 0.24803 0.10932 0.0
H874 H 0.91115 0.28095 0.12338 0.0
H875 H 0.92402 0.27755 0.09041 0.0
H876 H 0.91149 0.37189 0.14238 0.0
H877 H 0.94364 0.36379 0.06357 0.0
H878 H 0.95453 0.33751 0.17384 0.0
H879 H 0.92499 0.31222 0.16389 0.0
H880 H 0.92183 0.34681 0.17641 0.0
H881 H 0.99267 0.32701 0.07726 0.0
H882 H 0.97098 0.33203 0.05054 0.0
H883 H 0.96362 0.30106 0.0673 0.0
C884 C 0.79256 0.74071 0.60949 0.0
C885 C 0.81596 0.75908 0.6032 0.0
C886 C 0.76967 0.75048 0.61898 0.0
C887 C 0.7705 0.77931 0.62285 0.0
C888 C 0.79407 0.79791 0.61635 0.0
C889 C 0.81638 0.78754 0.60636 0.0
C890 C 0.74473 0.73 0.62513 0.0
C891 C 0.79601 0.82883 0.62068 0.0
C892 C 0.70896 0.81256 0.62957 0.0
C893 C 0.70881 0.81979 0.65725 0.0
C894 C 0.72786 0.7977 0.61816 0.0
C895 C 0.74734 0.79038 0.63478 0.0
C896 C 0.74628 0.79624 0.66284 0.0
C897 C 0.72687 0.81062 0.67374 0.0
C898 C 0.72789 0.79118 0.5882 0.0
C899 C 0.76685 0.78911 0.6813 0.0
H900 H 0.79218 0.71868 0.60682 0.0
H901 H 0.83458 0.80176 0.60185 0.0
H902 H 0.7407 0.7325 0.64681 0.0
H903 H 0.72693 0.73401 0.61445 0.0
H904 H 0.74672 0.70828 0.61936 0.0
H905 H 0.81572 0.84045 0.61445 0.0
H906 H 0.7797 0.83481 0.60926 0.0
H907 H 0.79329 0.83524 0.64212 0.0
H908 H 0.69496 0.81938 0.6167 0.0
H909 H 0.72696 0.81608 0.69516 0.0
H910 H 0.72979 0.76939 0.58284 0.0
H911 H 0.74554 0.80452 0.57994 0.0
H912 H 0.7093 0.79467 0.5785 0.0
H913 H 0.76839 0.76711 0.67695 0.0
H914 H 0.76188 0.79292 0.70268 0.0
H915 H 0.787 0.8018 0.67797 0.0
C916 C 0.80798 0.65318 0.78047 0.0
C917 C 0.82147 0.66005 0.8053 0.0
C918 C 0.82195 0.65657 0.75658 0.0
C919 C 0.85008 0.66724 0.75755 0.0
C920 C 0.86391 0.67387 0.78252 0.0
C921 C 0.84945 0.67011 0.80612 0.0
C922 C 0.80653 0.64907 0.7303 0.0
C923 C 0.89387 0.68544 0.78433 0.0
C924 C 0.88731 0.65468 0.69338 0.0
C925 C 0.8877 0.6793 0.68181 0.0
C926 C 0.8759 0.65078 0.71847 0.0
C927 C 0.86476 0.67207 0.73235 0.0
C928 C 0.8662 0.69744 0.72132 0.0
C929 C 0.87759 0.70073 0.69616 0.0
C930 C 0.87473 0.62344 0.72959 0.0
C931 C 0.85476 0.72074 0.73565 0.0
H932 H 0.78639 0.64532 0.77965 0.0
H933 H 0.86003 0.67554 0.82523 0.0
H934 H 0.80795 0.66773 0.71955 0.0
H935 H 0.81553 0.63388 0.7174 0.0
H936 H 0.78488 0.64015 0.73297 0.0
H937 H 0.90176 0.6887 0.80525 0.0
H938 H 0.90492 0.67125 0.77249 0.0
H939 H 0.89831 0.70549 0.77567 0.0
H940 H 0.89509 0.63802 0.68247 0.0
H941 H 0.87794 0.71989 0.68744 0.0
H942 H 0.85341 0.61258 0.73044 0.0
H943 H 0.88311 0.6268 0.7503 0.0
H944 H 0.88603 0.60979 0.7173 0.0
H945 H 0.83255 0.71432 0.73693 0.0
H946 H 0.85928 0.73983 0.72535 0.0
H947 H 0.86301 0.72559 0.75639 0.0
C948 C 0.83179 0.62081 0.98261 0.0
C949 C 0.85226 0.63325 0.96646 0.0
C950 C 0.8369 0.6028 0.00083 0.0
C951 C 0.86305 0.59684 0.00265 0.0
C952 C 0.88387 0.60956 0.98657 0.0
C953 C 0.87826 0.62778 0.96878 0.0
C954 C 0.8143 0.58999 0.01797 0.0
C955 C 0.91192 0.60343 0.98775 0.0
C956 C 0.88372 0.56799 0.06461 0.0
C957 C 0.87951 0.53963 0.05618 0.0
C958 C 0.87818 0.58683 0.04749 0.0
C959 C 0.86855 0.57707 0.02117 0.0
C960 C 0.86428 0.54845 0.01251 0.0
C961 C 0.86963 0.53002 0.03023 0.0
C962 C 0.8825 0.61715 0.05757 0.0
C963 C 0.85434 0.53733 0.98447 0.0
H964 H 0.81176 0.62527 0.98099 0.0
H965 H 0.89399 0.63709 0.95604 0.0
H966 H 0.82032 0.59472 0.0394 0.0
H967 H 0.79538 0.59751 0.01475 0.0
H968 H 0.81015 0.56717 0.01349 0.0
H969 H 0.92588 0.6152 0.97405 0.0
H970 H 0.92036 0.60859 0.00839 0.0
H971 H 0.91108 0.58102 0.98233 0.0
H972 H 0.89095 0.57537 0.08482 0.0
H973 H 0.86658 0.50812 0.02367 0.0
H974 H 0.8634 0.62471 0.05579 0.0
H975 H 0.89756 0.62933 0.04518 0.0
H976 H 0.88963 0.62128 0.07875 0.0
H977 H 0.83445 0.54263 0.98071 0.0
H978 H 0.85229 0.51454 0.98083 0.0
H979 H 0.86851 0.54711 0.96979 0.0
C980 C 0.88145 0.42963 0.21122 0.0
C981 C 0.88158 0.44901 0.19276 0.0
C982 C 0.89521 0.43716 0.23597 0.0
C983 C 0.90951 0.46465 0.24231 0.0
C984 C 0.90894 0.48448 0.22414 0.0
C985 C 0.89493 0.47646 0.19968 0.0
C986 C 0.89513 0.4155 0.25498 0.0
C987 C 0.92396 0.51399 0.23011 0.0
C988 C 0.93108 0.49176 0.31403 0.0
C989 C 0.95819 0.48907 0.31439 0.0
C990 C 0.91486 0.48351 0.29084 0.0
C991 C 0.92607 0.47252 0.26737 0.0
C992 C 0.95345 0.46987 0.26756 0.0
C993 C 0.96915 0.47807 0.29108 0.0
C994 C 0.88571 0.48649 0.29147 0.0
C995 C 0.96622 0.45848 0.24285 0.0
H996 H 0.8712 0.4084 0.20607 0.0
H997 H 0.89513 0.49166 0.18563 0.0
H998 H 0.91585 0.41166 0.25726 0.0
H999 H 0.88873 0.42293 0.27505 0.0
H1000 H 0.88152 0.39561 0.24794 0.0
H1001 H 0.92054 0.52717 0.21438 0.0
H1002 H 0.91765 0.52315 0.24953 0.0
H1003 H 0.94592 0.51442 0.23179 0.0
H1004 H 0.92236 0.50003 0.33199 0.0
H1005 H 0.99004 0.47585 0.29118 0.0
H1006 H 0.87236 0.46614 0.28572 0.0
H1007 H 0.88204 0.50055 0.2767 0.0
H1008 H 0.87988 0.49476 0.31149 0.0
H1009 H 0.95498 0.43739 0.23594 0.0
H1010 H 0.98768 0.45751 0.24637 0.0
H1011 H 0.96511 0.47159 0.22645 0.0
C1012 C 0.92652 0.51436 0.45429 0.0
C1013 C 0.95451 0.51614 0.45464 0.0
C1014 C 0.91455 0.53213 0.47176 0.0
C1015 C 0.93095 0.5517 0.49038 0.0
C1016 C 0.95916 0.55296 0.49135 0.0
C1017 C 0.97063 0.53536 0.47322 0.0
C1018 C 0.88448 0.53057 0.46974 0.0
C1019 C 0.97724 0.57312 0.51131 0.0
C1020 C 0.90691 0.61665 0.51793 0.0
C1021 C 0.8968 0.60948 0.54268 0.0
C1022 C 0.91758 0.59781 0.50046 0.0
C1023 C 0.91874 0.57143 0.50829 0.0
C1024 C 0.9086 0.56413 0.53334 0.0
C1025 C 0.89745 0.58316 0.55013 0.0
C1026 C 0.92768 0.60615 0.47367 0.0
C1027 C 0.91008 0.53646 0.54265 0.0
H1028 H 0.91414 0.49974 0.43963 0.0
H1029 H 0.99226 0.53653 0.47352 0.0
H1030 H 0.87512 0.52693 0.48932 0.0
H1031 H 0.88042 0.55057 0.46445 0.0
H1032 H 0.87454 0.51388 0.45449 0.0
H1033 H 0.9985 0.5703 0.51052 0.0
H1034 H 0.97677 0.59461 0.50737 0.0
H1035 H 0.96985 0.57063 0.53185 0.0
H1036 H 0.90621 0.63697 0.5122 0.0
H1037 H 0.88999 0.57783 0.56947 0.0
H1038 H 0.91744 0.59086 0.45741 0.0
H1039 H 0.9496 0.60633 0.47238 0.0
H1040 H 0.9242 0.62694 0.47015 0.0
H1041 H 0.89922 0.5195 0.52822 0.0
H1042 H 0.90127 0.53399 0.56269 0.0
H1043 H 0.93142 0.5341 0.5435 0.0
loop_
_geom_bond_atom_site_label_1
_geom_bond_atom_site_label_2
_geom_bond_distance
_geom_bond_site_symmetry_2
_ccdc_geom_bond_type
Cu0 N1 1.999 . S
Cu0 O6 1.974 . S
Cu0 N11 1.985 . S
Cu0 O20 1.959 . S
N1 Cu0 1.999 . S
N1 C3 1.263 . S
N1 C5 1.389 . S
N2 C3 1.358 . S
N2 C4 1.400 . S
C3 N1 1.263 . S
C3 N2 1.358 . S
C3 H9 0.930 . S
C4 N2 1.400 . S
C4 C5 1.351 . S
C4 H21 0.930 . S
C5 N1 1.389 . S
C5 C4 1.351 . S
C5 H10 0.930 . S
O6 Cu0 1.974 . S
O6 C16 1.282 . S
C7 O8 1.261 . S
C7 O20 1.251 . S
O8 C7 1.261 . S
H9 C3 0.930 . S
H10 C5 0.930 . S
N11 Cu0 1.985 . S
N11 C13 1.299 1_455 S
N11 C14 1.390 . S
N12 C13 1.356 . S
N12 C15 1.336 1_655 S
C13 N11 1.299 1_655 S
C13 N12 1.356 . S
C13 H18 0.953 . S
C14 N11 1.390 . S
C14 C15 1.346 . S
C14 H19 0.930 . S
C15 N12 1.336 1_455 S
C15 C14 1.346 . S
C15 H22 0.929 . S
C16 O6 1.282 . S
C16 O17 1.216 . S
O17 C16 1.216 . S
H18 C13 0.953 . S
H19 C14 0.930 . S
O20 Cu0 1.959 . S
O20 C7 1.251 . S
H21 C4 0.930 . S
H22 C15 0.929 . S
Cu23 N24 1.999 . S
Cu23 O29 1.974 . S
Cu23 N34 1.985 . S
Cu23 O43 1.959 . S
N24 Cu23 1.999 . S
N24 C26 1.263 . S
N24 C28 1.389 . S
N25 C26 1.358 . S
N25 C27 1.400 . S
C26 N24 1.263 . S
C26 N25 1.358 . S
C26 H32 0.930 . S
C27 N25 1.400 . S
C27 C28 1.351 . S
C27 H44 0.930 . S
C28 N24 1.389 . S
C28 C27 1.351 . S
C28 H33 0.930 . S
O29 Cu23 1.974 . S
O29 C39 1.282 . S
C30 O31 1.261 . S
C30 O43 1.251 . S
O31 C30 1.261 . S
H32 C26 0.930 . S
H33 C28 0.930 . S
N34 Cu23 1.985 . S
N34 C36 1.335 . S
N34 C37 1.390 . S
N35 C36 1.345 . S
N35 C38 1.336 . S
C36 N34 1.335 . S
C36 N35 1.345 . S
C36 H41 0.930 . S
C37 N34 1.390 . S
C37 C38 1.346 . S
C37 H42 0.930 . S
C38 N35 1.336 . S
C38 C37 1.346 . S
C38 H45 0.929 . S
C39 O29 1.282 . S
C39 O40 1.216 . S
O40 C39 1.216 . S
H41 C36 0.930 . S
H42 C37 0.930 . S
O43 Cu23 1.959 . S
O43 C30 1.251 . S
H44 C27 0.930 . S
H45 C38 0.929 . S
Cu46 N47 1.999 . S
Cu46 O52 1.974 . S
Cu46 N57 1.985 . S
Cu46 O66 1.959 . S
N47 Cu46 1.999 . S
N47 C49 1.263 . S
N47 C51 1.389 . S
N48 C49 1.358 . S
N48 C50 1.400 . S
C49 N47 1.263 . S
C49 N48 1.358 . S
C49 H55 0.930 . S
C50 N48 1.400 . S
C50 C51 1.351 . S
C50 H67 0.930 . S
C51 N47 1.389 . S
C51 C50 1.351 . S
C51 H56 0.930 . S
O52 Cu46 1.974 . S
O52 C62 1.282 . S
C53 O54 1.261 . S
C53 O66 1.251 . S
O54 C53 1.261 . S
H55 C49 0.930 . S
H56 C51 0.930 . S
N57 Cu46 1.985 . S
N57 C59 1.335 . S
N57 C60 1.390 . S
N58 C59 1.345 . S
N58 C61 1.336 . S
C59 N57 1.335 . S
C59 N58 1.345 . S
C59 H64 0.930 . S
C60 N57 1.390 . S
C60 C61 1.346 . S
C60 H65 0.930 . S
C61 N58 1.336 . S
C61 C60 1.346 . S
C61 H68 0.929 . S
C62 O52 1.282 . S
C62 O63 1.216 . S
O63 C62 1.216 . S
H64 C59 0.930 . S
H65 C60 0.930 . S
O66 Cu46 1.959 . S
O66 C53 1.251 . S
H67 C50 0.930 . S
H68 C61 0.929 . S
Cu69 N70 1.999 . S
Cu69 O75 1.974 . S
Cu69 N80 1.985 . S
Cu69 O89 1.959 . S
N70 Cu69 1.999 . S
N70 C72 1.263 . S
N70 C74 1.389 . S
N71 C72 1.358 . S
N71 C73 1.400 . S
C72 N70 1.263 . S
C72 N71 1.358 . S
C72 H78 0.930 . S
C73 N71 1.400 . S
C73 C74 1.351 . S
C73 H90 0.930 . S
C74 N70 1.389 . S
C74 C73 1.351 . S
C74 H79 0.930 . S
O75 Cu69 1.974 . S
O75 C85 1.282 . S
C76 O77 1.261 . S
C76 O89 1.251 . S
O77 C76 1.261 . S
H78 C72 0.930 . S
H79 C74 0.930 . S
N80 Cu69 1.985 . S
N80 C82 1.335 . S
N80 C83 1.390 . S
N81 C82 1.345 . S
N81 C84 1.336 1_556 S
C82 N80 1.335 . S
C82 N81 1.345 . S
C82 H87 0.930 . S
C83 N80 1.390 . S
C83 C84 1.346 1_556 S
C83 H88 0.930 1_556 S
C84 N81 1.336 1_554 S
C84 C83 1.346 1_554 S
C84 H91 0.929 . S
C85 O75 1.282 . S
C85 O86 1.216 . S
O86 C85 1.216 . S
H87 C82 0.930 . S
H88 C83 0.930 1_554 S
O89 Cu69 1.959 . S
O89 C76 1.251 . S
H90 C73 0.930 . S
H91 C84 0.929 . S
Cu92 N93 1.999 . S
Cu92 O98 1.974 . S
Cu92 N103 1.985 1_545 S
Cu92 O112 1.959 1_545 S
N93 Cu92 1.999 . S
N93 C95 1.263 . S
N93 C97 1.389 . S
N94 C95 1.358 . S
N94 C96 1.400 . S
C95 N93 1.263 . S
C95 N94 1.358 . S
C95 H101 0.930 . S
C96 N94 1.400 . S
C96 C97 1.351 . S
C96 H113 0.930 . S
C97 N93 1.389 . S
C97 C96 1.351 . S
C97 H102 0.930 . S
O98 Cu92 1.974 . S
O98 C108 1.282 . S
C99 O100 1.261 . S
C99 O112 1.251 . S
O100 C99 1.261 . S
H101 C95 0.930 . S
H102 C97 0.930 . S
N103 Cu92 1.985 1_565 S
N103 C105 1.335 . S
N103 C106 1.391 1_565 S
N104 C105 1.345 . S
N104 C107 1.336 . S
C105 N103 1.335 . S
C105 N104 1.345 . S
C105 H110 0.930 . S
C106 N103 1.391 1_545 S
C106 C107 1.326 1_545 S
C106 H111 0.948 . S
C107 N104 1.336 . S
C107 C106 1.326 1_565 S
C107 H114 0.929 . S
C108 O98 1.282 . S
C108 O109 1.216 . S
O109 C108 1.216 . S
H110 C105 0.930 . S
H111 C106 0.948 . S
O112 Cu92 1.959 1_565 S
O112 C99 1.251 . S
H113 C96 0.930 . S
H114 C107 0.929 . S
Cu115 N116 1.999 . S
Cu115 O121 1.974 . S
Cu115 N126 1.985 . S
Cu115 O135 1.959 . S
N116 Cu115 1.999 . S
N116 C118 1.263 . S
N116 C120 1.389 . S
N117 C118 1.358 . S
N117 C119 1.400 1_565 S
C118 N116 1.263 . S
C118 N117 1.358 . S
C118 H124 0.930 . S
C119 N117 1.400 1_545 S
C119 C120 1.351 1_545 S
C119 H136 0.930 . S
C120 N116 1.389 . S
C120 C119 1.351 1_565 S
C120 H125 0.930 1_565 S
O121 Cu115 1.974 . S
O121 C131 1.282 . S
C122 O123 1.261 . S
C122 O135 1.251 . S
O123 C122 1.261 . S
H124 C118 0.930 . S
H125 C120 0.930 1_545 S
N126 Cu115 1.985 . S
N126 C128 1.335 . S
N126 C129 1.390 . S
N127 C128 1.345 . S
N127 C130 1.336 . S
C128 N126 1.335 . S
C128 N127 1.345 . S
C128 H133 0.930 . S
C129 N126 1.390 . S
C129 C130 1.346 . S
C129 H134 0.930 . S
C130 N127 1.336 . S
C130 C129 1.346 . S
C130 H137 0.929 . S
C131 O121 1.282 . S
C131 O132 1.216 . S
O132 C131 1.216 . S
H133 C128 0.930 . S
H134 C129 0.930 . S
O135 Cu115 1.959 . S
O135 C122 1.251 . S
H136 C119 0.930 . S
H137 C130 0.929 . S
Cu138 N139 1.999 . S
Cu138 O144 1.974 . S
Cu138 N149 1.985 . S
Cu138 O158 1.959 . S
N139 Cu138 1.999 . S
N139 C141 1.263 . S
N139 C143 1.389 . S
N140 C141 1.358 . S
N140 C142 1.400 . S
C141 N139 1.263 . S
C141 N140 1.358 . S
C141 H147 0.930 . S
C142 N140 1.400 . S
C142 C143 1.351 . S
C142 H159 0.930 . S
C143 N139 1.389 . S
C143 C142 1.351 . S
C143 H148 0.930 . S
O144 Cu138 1.974 . S
O144 C154 1.282 . S
C145 O146 1.261 . S
C145 O158 1.251 . S
O146 C145 1.261 . S
H147 C141 0.930 . S
H148 C143 0.930 . S
N149 Cu138 1.985 . S
N149 C151 1.335 . S
N149 C152 1.390 . S
N150 C151 1.345 . S
N150 C153 1.336 . S
C151 N149 1.335 . S
C151 N150 1.345 . S
C151 H156 0.930 . S
C152 N149 1.390 . S
C152 C153 1.346 . S
C152 H157 0.930 . S
C153 N150 1.336 . S
C153 C152 1.346 . S
C153 H160 0.929 . S
C154 O144 1.282 . S
C154 O155 1.216 . S
O155 C154 1.216 . S
H156 C151 0.930 . S
H157 C152 0.930 . S
O158 Cu138 1.959 . S
O158 C145 1.251 . S
H159 C142 0.930 . S
H160 C153 0.929 . S
Cu161 N162 1.999 1_554 S
Cu161 O167 1.974 1_554 S
Cu161 N172 1.985 . S
Cu161 O181 1.959 . S
N162 Cu161 1.999 1_556 S
N162 C164 1.263 . S
N162 C166 1.389 . S
N163 C164 1.358 . S
N163 C165 1.400 . S
C164 N162 1.263 . S
C164 N163 1.358 . S
C164 H170 0.930 . S
C165 N163 1.400 . S
C165 C166 1.351 . S
C165 H182 0.930 . S
C166 N162 1.389 . S
C166 C165 1.351 . S
C166 H171 0.930 . S
O167 Cu161 1.974 1_556 S
O167 C177 1.282 . S
C168 O169 1.261 . S
C168 O181 1.251 . S
O169 C168 1.261 . S
H170 C164 0.930 . S
H171 C166 0.930 . S
N172 Cu161 1.985 . S
N172 C174 1.335 . S
N172 C175 1.390 . S
N173 C174 1.345 . S
N173 C176 1.336 . S
C174 N172 1.335 . S
C174 N173 1.345 . S
C174 H179 0.930 . S
C175 N172 1.390 . S
C175 C176 1.346 . S
C175 H180 0.930 . S
C176 N173 1.336 . S
C176 C175 1.346 . S
C176 H183 0.929 . S
C177 O167 1.282 . S
C177 O178 1.216 1_556 S
O178 C177 1.216 1_554 S
H179 C174 0.930 . S
H180 C175 0.930 . S
O181 Cu161 1.959 . S
O181 C168 1.251 . S
H182 C165 0.930 . S
H183 C176 0.929 . S
Cu184 N185 1.999 . S
Cu184 O190 1.974 . S
Cu184 N195 1.985 . S
Cu184 O204 1.959 . S
N185 Cu184 1.999 . S
N185 C187 1.263 . S
N185 C189 1.389 . S
N186 C187 1.358 . S
N186 C188 1.400 . S
C187 N185 1.263 . S
C187 N186 1.358 . S
C187 H193 0.930 . S
C188 N186 1.400 . S
C188 C189 1.351 . S
C188 H205 0.930 . S
C189 N185 1.389 . S
C189 C188 1.351 . S
C189 H194 0.930 . S
O190 Cu184 1.974 . S
O190 C200 1.282 . S
C191 O192 1.261 . S
C191 O204 1.251 . S
O192 C191 1.261 . S
H193 C187 0.930 . S
H194 C189 0.930 . S
N195 Cu184 1.985 . S
N195 C197 1.335 . S
N195 C198 1.390 . S
N196 C197 1.345 . S
N196 C199 1.336 . S
C197 N195 1.335 . S
C197 N196 1.345 . S
C197 H202 0.930 . S
C198 N195 1.390 . S
C198 C199 1.346 . S
C198 H203 0.930 . S
C199 N196 1.336 . S
C199 C198 1.346 . S
C199 H206 0.929 . S
C200 O190 1.282 . S
C200 O201 1.216 . S
O201 C200 1.216 . S
H202 C197 0.930 . S
H203 C198 0.930 . S
O204 Cu184 1.959 . S
O204 C191 1.251 . S
H205 C188 0.930 . S
H206 C199 0.929 . S
Cu207 N208 1.999 1_655 S
Cu207 O213 1.974 . S
Cu207 N218 1.985 . S
Cu207 O227 1.959 1_655 S
N208 Cu207 1.999 1_455 S
N208 C210 1.263 . S
N208 C212 1.389 . S
N209 C210 1.358 . S
N209 C211 1.400 . S
C210 N208 1.263 . S
C210 N209 1.358 . S
C210 H216 0.930 1_455 S
C211 N209 1.400 . S
C211 C212 1.351 . S
C211 H228 0.930 . S
C212 N208 1.389 . S
C212 C211 1.351 . S
C212 H217 0.930 . S
O213 Cu207 1.974 . S
O213 C223 1.282 . S
C214 O215 1.261 . S
C214 O227 1.251 . S
O215 C214 1.261 . S
H216 C210 0.930 1_655 S
H217 C212 0.930 . S
N218 Cu207 1.985 . S
N218 C220 1.335 . S
N218 C221 1.390 . S
N219 C220 1.345 . S
N219 C222 1.336 . S
C220 N218 1.335 . S
C220 N219 1.345 . S
C220 H225 0.930 . S
C221 N218 1.390 . S
C221 C222 1.346 . S
C221 H226 0.930 . S
C222 N219 1.336 . S
C222 C221 1.346 . S
C222 H229 0.929 . S
C223 O213 1.282 . S
C223 O224 1.216 . S
O224 C223 1.216 . S
H225 C220 0.930 . S
H226 C221 0.930 . S
O227 Cu207 1.959 1_455 S
O227 C214 1.251 . S
H228 C211 0.930 . S
H229 C222 0.929 . S
Cu230 N231 1.999 . S
Cu230 O236 1.974 . S
Cu230 N241 1.985 . S
Cu230 O250 1.959 . S
N231 Cu230 1.999 . S
N231 C233 1.263 . S
N231 C235 1.389 . S
N232 C233 1.358 . S
N232 C234 1.400 . S
C233 N231 1.263 . S
C233 N232 1.358 . S
C233 H239 0.930 . S
C234 N232 1.400 . S
C234 C235 1.351 . S
C234 H251 0.930 . S
C235 N231 1.389 . S
C235 C234 1.351 . S
C235 H240 0.930 . S
O236 Cu230 1.974 . S
O236 C246 1.282 . S
C237 O238 1.261 . S
C237 O250 1.251 . S
O238 C237 1.261 . S
H239 C233 0.930 . S
H240 C235 0.930 . S
N241 Cu230 1.985 . S
N241 C243 1.335 . S
N241 C244 1.390 . S
N242 C243 1.345 . S
N242 C245 1.336 . S
C243 N241 1.335 . S
C243 N242 1.345 . S
C243 H248 0.930 . S
C244 N241 1.390 . S
C244 C245 1.346 . S
C244 H249 0.930 . S
C245 N242 1.336 . S
C245 C244 1.346 . S
C245 H252 0.929 . S
C246 O236 1.282 . S
C246 O247 1.216 . S
O247 C246 1.216 . S
H248 C243 0.930 . S
H249 C244 0.930 . S
O250 Cu230 1.959 . S
O250 C237 1.251 . S
H251 C234 0.930 . S
H252 C245 0.929 . S
Cu253 N254 1.999 . S
Cu253 O259 1.974 . S
Cu253 N264 1.985 . S
Cu253 O273 1.959 . S
N254 Cu253 1.999 . S
N254 C256 1.263 . S
N254 C258 1.389 . S
N255 C256 1.358 . S
N255 C257 1.400 . S
C256 N254 1.263 . S
C256 N255 1.358 . S
C256 H262 0.930 . S
C257 N255 1.400 . S
C257 C258 1.351 . S
C257 H274 0.930 . S
C258 N254 1.389 . S
C258 C257 1.351 . S
C258 H263 0.930 . S
O259 Cu253 1.974 . S
O259 C269 1.282 . S
C260 O261 1.261 . S
C260 O273 1.251 . S
O261 C260 1.261 . S
H262 C256 0.930 . S
H263 C258 0.930 . S
N264 Cu253 1.985 . S
N264 C266 1.335 . S
N264 C267 1.390 . S
N265 C266 1.345 . S
N265 C268 1.336 . S
C266 N264 1.335 . S
C266 N265 1.345 . S
C266 H271 0.930 . S
C267 N264 1.390 . S
C267 C268 1.346 . S
C267 H272 0.930 . S
C268 N265 1.336 . S
C268 C267 1.346 . S
C268 H275 0.929 . S
C269 O259 1.282 . S
C269 O270 1.216 . S
O270 C269 1.216 . S
H271 C266 0.930 . S
H272 C267 0.930 . S
O273 Cu253 1.959 . S
O273 C260 1.251 . S
H274 C257 0.930 . S
H275 C268 0.929 . S
C276 C277 1.391 . S
C276 C278 1.394 . S
C276 H292 0.931 . S
C277 C276 1.391 . S
C277 C281 1.376 . S
C278 C276 1.394 . S
C278 C279 1.369 . S
C278 C282 1.531 . S
C279 C278 1.369 . S
C279 C280 1.410 . S
C279 C287 1.503 . S
C280 C279 1.410 . S
C280 C281 1.392 . S
C280 C283 1.511 . S
C281 C277 1.376 . S
C281 C280 1.392 . S
C281 H293 0.929 . S
C282 C278 1.531 . S
C282 H294 0.960 . S
C282 H295 0.962 . S
C282 H296 0.960 . S
C283 C280 1.511 . S
C283 H297 0.961 . S
C283 H298 0.961 . S
C283 H299 0.961 . S
C284 C285 1.370 . S
C284 C286 1.363 . S
C284 H300 0.931 . S
C285 C284 1.370 . S
C285 C289 1.408 . S
C286 C284 1.363 . S
C286 C287 1.370 . S
C286 C290 1.524 . S
C287 C279 1.503 . S
C287 C286 1.370 . S
C287 C288 1.403 . S
C288 C287 1.403 . S
C288 C289 1.404 . S
C288 C291 1.539 . S
C289 C285 1.408 . S
C289 C288 1.404 . S
C289 H301 0.930 . S
C290 C286 1.524 . S
C290 H302 0.956 . S
C290 H303 0.961 . S
C290 H304 0.961 . S
C291 C288 1.539 . S
C291 H305 0.958 . S
C291 H306 0.961 . S
C291 H307 0.960 . S
H292 C276 0.931 . S
H293 C281 0.929 . S
H294 C282 0.960 . S
H295 C282 0.962 . S
H296 C282 0.960 . S
H297 C283 0.961 . S
H298 C283 0.961 . S
H299 C283 0.961 . S
H300 C284 0.931 . S
H301 C289 0.930 . S
H302 C290 0.956 . S
H303 C290 0.961 . S
H304 C290 0.961 . S
H305 C291 0.958 . S
H306 C291 0.961 . S
H307 C291 0.960 . S
C308 C309 1.391 . S
C308 C310 1.394 . S
C308 H324 0.931 . S
C309 C308 1.391 . S
C309 C313 1.376 . S
C310 C308 1.394 . S
C310 C311 1.369 . S
C310 C314 1.531 . S
C311 C310 1.369 . S
C311 C312 1.410 . S
C311 C319 1.503 . S
C312 C311 1.410 . S
C312 C313 1.392 . S
C312 C315 1.511 . S
C313 C309 1.376 . S
C313 C312 1.392 . S
C313 H325 0.929 . S
C314 C310 1.531 . S
C314 H326 0.960 . S
C314 H327 0.962 . S
C314 H328 0.960 . S
C315 C312 1.511 . S
C315 H329 0.961 . S
C315 H330 0.961 . S
C315 H331 0.961 . S
C316 C317 1.370 . S
C316 C318 1.363 . S
C316 H332 0.931 . S
C317 C316 1.370 . S
C317 C321 1.408 . S
C318 C316 1.363 . S
C318 C319 1.370 . S
C318 C322 1.524 . S
C319 C311 1.503 . S
C319 C318 1.370 . S
C319 C320 1.403 . S
C320 C319 1.403 . S
C320 C321 1.404 . S
C320 C323 1.539 . S
C321 C317 1.408 . S
C321 C320 1.404 . S
C321 H333 0.930 . S
C322 C318 1.524 . S
C322 H334 0.956 . S
C322 H335 0.961 . S
C322 H336 0.961 . S
C323 C320 1.539 . S
C323 H337 0.958 . S
C323 H338 0.961 . S
C323 H339 0.960 . S
H324 C308 0.931 . S
H325 C313 0.929 . S
H326 C314 0.960 . S
H327 C314 0.962 . S
H328 C314 0.960 . S
H329 C315 0.961 . S
H330 C315 0.961 . S
H331 C315 0.961 . S
H332 C316 0.931 . S
H333 C321 0.930 . S
H334 C322 0.956 . S
H335 C322 0.961 . S
H336 C322 0.961 . S
H337 C323 0.958 . S
H338 C323 0.961 . S
H339 C323 0.960 . S
C340 C341 1.391 . S
C340 C342 1.394 . S
C340 H356 0.931 . S
C341 C340 1.391 . S
C341 C345 1.376 . S
C342 C340 1.394 . S
C342 C343 1.369 . S
C342 C346 1.531 1_545 S
C343 C342 1.369 . S
C343 C344 1.410 . S
C343 C351 1.503 . S
C344 C343 1.410 . S
C344 C345 1.392 . S
C344 C347 1.511 . S
C345 C341 1.376 . S
C345 C344 1.392 . S
C345 H357 0.929 . S
C346 C342 1.531 1_565 S
C346 H358 0.960 . S
C346 H359 0.962 . S
C346 H360 0.960 . S
C347 C344 1.511 . S
C347 H361 0.961 . S
C347 H362 0.961 . S
C347 H363 0.961 . S
C348 C349 1.370 . S
C348 C350 1.363 . S
C348 H364 0.931 . S
C349 C348 1.370 . S
C349 C353 1.408 . S
C350 C348 1.363 . S
C350 C351 1.370 1_565 S
C350 C354 1.524 1_565 S
C351 C343 1.503 . S
C351 C350 1.370 1_545 S
C351 C352 1.403 1_545 S
C352 C351 1.403 1_565 S
C352 C353 1.404 . S
C352 C355 1.539 1_565 S
C353 C349 1.408 . S
C353 C352 1.404 . S
C353 H365 0.930 . S
C354 C350 1.524 1_545 S
C354 H366 0.956 . S
C354 H367 0.961 . S
C354 H368 0.961 . S
C355 C352 1.539 1_545 S
C355 H369 0.958 1_545 S
C355 H370 0.961 . S
C355 H371 0.960 . S
H356 C340 0.931 . S
H357 C345 0.929 . S
H358 C346 0.960 . S
H359 C346 0.962 . S
H360 C346 0.960 . S
H361 C347 0.961 . S
H362 C347 0.961 . S
H363 C347 0.961 . S
H364 C348 0.931 . S
H365 C353 0.930 . S
H366 C354 0.956 . S
H367 C354 0.961 . S
H368 C354 0.961 . S
H369 C355 0.958 1_565 S
H370 C355 0.961 . S
H371 C355 0.960 . S
C372 C373 1.391 . S
C372 C374 1.394 . S
C372 H388 0.931 . S
C373 C372 1.391 . S
C373 C377 1.376 . S
C374 C372 1.394 . S
C374 C375 1.369 . S
C374 C378 1.531 . S
C375 C374 1.369 . S
C375 C376 1.409 1_556 S
C375 C383 1.503 . S
C376 C375 1.409 1_554 S
C376 C377 1.392 1_554 S
C376 C379 1.512 . S
C377 C373 1.376 . S
C377 C376 1.392 1_556 S
C377 H389 0.929 1_556 S
C378 C374 1.531 . S
C378 H390 0.960 . S
C378 H391 0.962 . S
C378 H392 0.960 . S
C379 C376 1.512 . S
C379 H393 0.961 . S
C379 H394 0.961 . S
C379 H395 0.961 . S
C380 C381 1.370 . S
C380 C382 1.363 . S
C380 H396 0.931 . S
C381 C380 1.370 . S
C381 C385 1.408 1_556 S
C382 C380 1.363 . S
C382 C383 1.370 . S
C382 C386 1.524 . S
C383 C375 1.503 . S
C383 C382 1.370 . S
C383 C384 1.403 1_556 S
C384 C383 1.403 1_554 S
C384 C385 1.404 . S
C384 C387 1.539 . S
C385 C381 1.408 1_554 S
C385 C384 1.404 . S
C385 H397 0.930 . S
C386 C382 1.524 . S
C386 H398 0.956 . S
C386 H399 0.961 . S
C386 H400 0.961 . S
C387 C384 1.539 . S
C387 H401 0.958 . S
C387 H402 0.961 . S
C387 H403 0.960 . S
H388 C372 0.931 . S
H389 C377 0.929 1_554 S
H390 C378 0.960 . S
H391 C378 0.962 . S
H392 C378 0.960 . S
H393 C379 0.961 . S
H394 C379 0.961 . S
H395 C379 0.961 . S
H396 C380 0.931 . S
H397 C385 0.930 . S
H398 C386 0.956 . S
H399 C386 0.961 . S
H400 C386 0.961 . S
H401 C387 0.958 . S
H402 C387 0.961 . S
H403 C387 0.960 . S
C404 C405 1.391 . S
C404 C406 1.394 . S
C404 H420 0.931 . S
C405 C404 1.391 . S
C405 C409 1.376 . S
C406 C404 1.394 . S
C406 C407 1.369 . S
C406 C410 1.531 . S
C407 C406 1.369 . S
C407 C408 1.410 . S
C407 C415 1.503 . S
C408 C407 1.410 . S
C408 C409 1.392 . S
C408 C411 1.511 . S
C409 C405 1.376 . S
C409 C408 1.392 . S
C409 H421 0.929 . S
C410 C406 1.531 . S
C410 H422 0.960 . S
C410 H423 0.962 . S
C410 H424 0.960 . S
C411 C408 1.511 . S
C411 H425 0.961 . S
C411 H426 0.961 . S
C411 H427 0.961 . S
C412 C413 1.370 . S
C412 C414 1.363 . S
C412 H428 0.931 . S
C413 C412 1.370 . S
C413 C417 1.408 . S
C414 C412 1.363 . S
C414 C415 1.370 . S
C414 C418 1.524 . S
C415 C407 1.503 . S
C415 C414 1.370 . S
C415 C416 1.403 . S
C416 C415 1.403 . S
C416 C417 1.404 . S
C416 C419 1.539 . S
C417 C413 1.408 . S
C417 C416 1.404 . S
C417 H429 0.930 . S
C418 C414 1.524 . S
C418 H430 0.956 . S
C418 H431 0.961 . S
C418 H432 0.961 . S
C419 C416 1.539 . S
C419 H433 0.958 . S
C419 H434 0.961 . S
C419 H435 0.960 . S
H420 C404 0.931 . S
H421 C409 0.929 . S
H422 C410 0.960 . S
H423 C410 0.962 . S
H424 C410 0.960 . S
H425 C411 0.961 . S
H426 C411 0.961 . S
H427 C411 0.961 . S
H428 C412 0.931 . S
H429 C417 0.930 . S
H430 C418 0.956 . S
H431 C418 0.961 . S
H432 C418 0.961 . S
H433 C419 0.958 . S
H434 C419 0.961 . S
H435 C419 0.960 . S
C436 C437 1.391 . S
C436 C438 1.394 . S
C436 H452 0.931 . S
C437 C436 1.391 . S
C437 C441 1.376 . S
C438 C436 1.394 . S
C438 C439 1.369 . S
C438 C442 1.531 . S
C439 C438 1.369 . S
C439 C440 1.410 . S
C439 C447 1.503 . S
C440 C439 1.410 . S
C440 C441 1.392 . S
C440 C443 1.511 . S
C441 C437 1.376 . S
C441 C440 1.392 . S
C441 H453 0.929 . S
C442 C438 1.531 . S
C442 H454 0.960 . S
C442 H455 0.962 . S
C442 H456 0.960 . S
C443 C440 1.511 . S
C443 H457 0.961 . S
C443 H458 0.961 . S
C443 H459 0.961 . S
C444 C445 1.370 . S
C444 C446 1.363 . S
C444 H460 0.931 . S
C445 C444 1.370 . S
C445 C449 1.408 . S
C446 C444 1.363 . S
C446 C447 1.370 . S
C446 C450 1.524 . S
C447 C439 1.503 . S
C447 C446 1.370 . S
C447 C448 1.403 . S
C448 C447 1.403 . S
C448 C449 1.404 . S
C448 C451 1.539 . S
C449 C445 1.408 . S
C449 C448 1.404 . S
C449 H461 0.930 . S
C450 C446 1.524 . S
C450 H462 0.956 . S
C450 H463 0.961 . S
C450 H464 0.961 . S
C451 C448 1.539 . S
C451 H465 0.958 . S
C451 H466 0.961 . S
C451 H467 0.960 . S
H452 C436 0.931 . S
H453 C441 0.929 . S
H454 C442 0.960 . S
H455 C442 0.962 . S
H456 C442 0.960 . S
H457 C443 0.961 . S
H458 C443 0.961 . S
H459 C443 0.961 . S
H460 C444 0.931 . S
H461 C449 0.930 . S
H462 C450 0.956 . S
H463 C450 0.961 . S
H464 C450 0.961 . S
H465 C451 0.958 . S
H466 C451 0.961 . S
H467 C451 0.960 . S
C468 C469 1.391 . S
C468 C470 1.394 . S
C468 H484 0.931 . S
C469 C468 1.391 . S
C469 C473 1.376 . S
C470 C468 1.394 . S
C470 C471 1.369 . S
C470 C474 1.531 . S
C471 C470 1.369 . S
C471 C472 1.410 . S
C471 C479 1.503 . S
C472 C471 1.410 . S
C472 C473 1.392 . S
C472 C475 1.511 . S
C473 C469 1.376 . S
C473 C472 1.392 . S
C473 H485 0.929 . S
C474 C470 1.531 . S
C474 H486 0.960 . S
C474 H487 0.962 . S
C474 H488 0.960 . S
C475 C472 1.511 . S
C475 H489 0.961 . S
C475 H490 0.961 . S
C475 H491 0.961 . S
C476 C477 1.370 . S
C476 C478 1.363 . S
C476 H492 0.931 . S
C477 C476 1.370 . S
C477 C481 1.408 . S
C478 C476 1.363 . S
C478 C479 1.370 . S
C478 C482 1.524 . S
C479 C471 1.503 . S
C479 C478 1.370 . S
C479 C480 1.403 . S
C480 C479 1.403 . S
C480 C481 1.404 . S
C480 C483 1.539 . S
C481 C477 1.408 . S
C481 C480 1.404 . S
C481 H493 0.930 . S
C482 C478 1.524 . S
C482 H494 0.956 . S
C482 H495 0.961 . S
C482 H496 0.961 . S
C483 C480 1.539 . S
C483 H497 0.958 . S
C483 H498 0.961 . S
C483 H499 0.960 . S
H484 C468 0.931 . S
H485 C473 0.929 . S
H486 C474 0.960 . S
H487 C474 0.962 . S
H488 C474 0.960 . S
H489 C475 0.961 . S
H490 C475 0.961 . S
H491 C475 0.961 . S
H492 C476 0.931 . S
H493 C481 0.930 . S
H494 C482 0.956 . S
H495 C482 0.961 . S
H496 C482 0.961 . S
H497 C483 0.958 . S
H498 C483 0.961 . S
H499 C483 0.960 . S
C500 C501 1.391 . S
C500 C502 1.394 . S
C500 H516 0.931 . S
C501 C500 1.391 . S
C501 C505 1.376 . S
C502 C500 1.394 . S
C502 C503 1.369 . S
C502 C506 1.531 . S
C503 C502 1.369 . S
C503 C504 1.410 . S
C503 C511 1.503 . S
C504 C503 1.410 . S
C504 C505 1.392 . S
C504 C507 1.511 . S
C505 C501 1.376 . S
C505 C504 1.392 . S
C505 H517 0.929 . S
C506 C502 1.531 . S
C506 H518 0.960 . S
C506 H519 0.962 . S
C506 H520 0.960 . S
C507 C504 1.511 . S
C507 H521 0.961 . S
C507 H522 0.961 . S
C507 H523 0.961 . S
C508 C509 1.370 . S
C508 C510 1.363 . S
C508 H524 0.931 . S
C509 C508 1.370 . S
C509 C513 1.408 . S
C510 C508 1.363 . S
C510 C511 1.370 . S
C510 C514 1.524 . S
C511 C503 1.503 . S
C511 C510 1.370 . S
C511 C512 1.403 . S
C512 C511 1.403 . S
C512 C513 1.404 . S
C512 C515 1.539 . S
C513 C509 1.408 . S
C513 C512 1.404 . S
C513 H525 0.930 . S
C514 C510 1.524 . S
C514 H526 0.956 . S
C514 H527 0.961 . S
C514 H528 0.961 . S
C515 C512 1.539 . S
C515 H529 0.958 . S
C515 H530 0.961 . S
C515 H531 0.960 . S
H516 C500 0.931 . S
H517 C505 0.929 . S
H518 C506 0.960 . S
H519 C506 0.962 . S
H520 C506 0.960 . S
H521 C507 0.961 . S
H522 C507 0.961 . S
H523 C507 0.961 . S
H524 C508 0.931 . S
H525 C513 0.930 . S
H526 C514 0.956 . S
H527 C514 0.961 . S
H528 C514 0.961 . S
H529 C515 0.958 . S
H530 C515 0.961 . S
H531 C515 0.960 . S
C532 C533 1.391 . S
C532 C534 1.394 . S
C532 H548 0.931 . S
C533 C532 1.391 . S
C533 C537 1.376 . S
C534 C532 1.394 . S
C534 C535 1.369 . S
C534 C538 1.531 . S
C535 C534 1.369 . S
C535 C536 1.410 . S
C535 C543 1.503 . S
C536 C535 1.410 . S
C536 C537 1.392 . S
C536 C539 1.511 . S
C537 C533 1.376 . S
C537 C536 1.392 . S
C537 H549 0.929 . S
C538 C534 1.531 . S
C538 H550 0.960 . S
C538 H551 0.962 . S
C538 H552 0.960 . S
C539 C536 1.511 . S
C539 H553 0.961 . S
C539 H554 0.961 . S
C539 H555 0.961 . S
C540 C541 1.370 . S
C540 C542 1.363 . S
C540 H556 0.931 . S
C541 C540 1.370 . S
C541 C545 1.408 . S
C542 C540 1.363 . S
C542 C543 1.370 . S
C542 C546 1.524 . S
C543 C535 1.503 . S
C543 C542 1.370 . S
C543 C544 1.403 . S
C544 C543 1.403 . S
C544 C545 1.404 . S
C544 C547 1.539 . S
C545 C541 1.408 . S
C545 C544 1.404 . S
C545 H557 0.930 . S
C546 C542 1.524 . S
C546 H558 0.956 . S
C546 H559 0.961 . S
C546 H560 0.961 . S
C547 C544 1.539 . S
C547 H561 0.958 . S
C547 H562 0.961 . S
C547 H563 0.960 . S
H548 C532 0.931 . S
H549 C537 0.929 . S
H550 C538 0.960 . S
H551 C538 0.962 . S
H552 C538 0.960 . S
H553 C539 0.961 . S
H554 C539 0.961 . S
H555 C539 0.961 . S
H556 C540 0.931 . S
H557 C545 0.930 . S
H558 C546 0.956 . S
H559 C546 0.961 . S
H560 C546 0.961 . S
H561 C547 0.958 . S
H562 C547 0.961 . S
H563 C547 0.960 . S
C564 C565 1.397 . S
C564 C566 1.393 . S
C564 H580 0.926 1_565 S
C565 C564 1.397 . S
C565 C569 1.376 . S
C566 C564 1.393 . S
C566 C567 1.369 . S
C566 C570 1.531 1_565 S
C567 C566 1.369 . S
C567 C568 1.410 . S
C567 C575 1.503 . S
C568 C567 1.410 . S
C568 C569 1.392 . S
C568 C571 1.511 . S
C569 C565 1.376 . S
C569 C568 1.392 . S
C569 H581 0.929 . S
C570 C566 1.531 1_545 S
C570 H582 0.960 . S
C570 H583 0.962 . S
C570 H584 0.960 . S
C571 C568 1.511 . S
C571 H585 0.961 . S
C571 H586 0.961 . S
C571 H587 0.961 . S
C572 C573 1.370 . S
C572 C574 1.363 . S
C572 H588 0.931 1_565 S
C573 C572 1.370 . S
C573 C577 1.408 . S
C574 C572 1.363 . S
C574 C575 1.370 . S
C574 C578 1.524 1_565 S
C575 C567 1.503 . S
C575 C574 1.370 . S
C575 C576 1.403 . S
C576 C575 1.403 . S
C576 C577 1.404 . S
C576 C579 1.539 . S
C577 C573 1.408 . S
C577 C576 1.404 . S
C577 H589 0.930 . S
C578 C574 1.524 1_545 S
C578 H590 0.956 . S
C578 H591 0.961 1_545 S
C578 H592 0.961 . S
C579 C576 1.539 . S
C579 H593 0.958 . S
C579 H594 0.961 . S
C579 H595 0.960 . S
H580 C564 0.926 1_545 S
H581 C569 0.929 . S
H582 C570 0.960 . S
H583 C570 0.962 . S
H584 C570 0.960 . S
H585 C571 0.961 . S
H586 C571 0.961 . S
H587 C571 0.961 . S
H588 C572 0.931 1_545 S
H589 C577 0.930 . S
H590 C578 0.956 . S
H591 C578 0.961 1_565 S
H592 C578 0.961 . S
H593 C579 0.958 . S
H594 C579 0.961 . S
H595 C579 0.960 . S
C596 C597 1.391 . S
C596 C598 1.394 . S
C596 H612 0.931 . S
C597 C596 1.391 . S
C597 C601 1.376 . S
C598 C596 1.394 . S
C598 C599 1.369 . S
C598 C602 1.531 . S
C599 C598 1.369 . S
C599 C600 1.410 . S
C599 C607 1.503 . S
C600 C599 1.410 . S
C600 C601 1.392 . S
C600 C603 1.511 . S
C601 C597 1.376 . S
C601 C600 1.392 . S
C601 H613 0.929 . S
C602 C598 1.531 . S
C602 H614 0.960 . S
C602 H615 0.962 . S
C602 H616 0.960 . S
C603 C600 1.511 . S
C603 H617 0.961 . S
C603 H618 0.961 . S
C603 H619 0.961 . S
C604 C605 1.370 . S
C604 C606 1.363 . S
C604 H620 0.931 . S
C605 C604 1.370 . S
C605 C609 1.408 1_545 S
C606 C604 1.363 . S
C606 C607 1.370 . S
C606 C610 1.524 . S
C607 C599 1.503 . S
C607 C606 1.370 . S
C607 C608 1.434 . S
C608 C607 1.434 . S
C608 C609 1.396 1_545 S
C608 C611 1.515 1_545 S
C609 C605 1.408 1_565 S
C609 C608 1.396 1_565 S
C609 H621 0.930 . S
C610 C606 1.524 . S
C610 H622 0.956 . S
C610 H623 0.961 . S
C610 H624 0.961 . S
C611 C608 1.515 1_565 S
C611 H625 0.958 . S
C611 H626 0.961 . S
C611 H627 0.960 . S
H612 C596 0.931 . S
H613 C601 0.929 . S
H614 C602 0.960 . S
H615 C602 0.962 . S
H616 C602 0.960 . S
H617 C603 0.961 . S
H618 C603 0.961 . S
H619 C603 0.961 . S
H620 C604 0.931 . S
H621 C609 0.930 . S
H622 C610 0.956 . S
H623 C610 0.961 . S
H624 C610 0.961 . S
H625 C611 0.958 . S
H626 C611 0.961 . S
H627 C611 0.960 . S
C628 C629 1.391 . S
C628 C630 1.394 . S
C628 H644 0.931 . S
C629 C628 1.391 . S
C629 C633 1.376 . S
C630 C628 1.394 . S
C630 C631 1.369 . S
C630 C634 1.531 . S
C631 C630 1.369 . S
C631 C632 1.410 . S
C631 C639 1.503 . S
C632 C631 1.410 . S
C632 C633 1.392 . S
C632 C635 1.511 . S
C633 C629 1.376 . S
C633 C632 1.392 . S
C633 H645 0.929 . S
C634 C630 1.531 . S
C634 H646 0.960 . S
C634 H647 0.962 . S
C634 H648 0.960 . S
C635 C632 1.511 . S
C635 H649 0.961 . S
C635 H650 0.961 . S
C635 H651 0.961 . S
C636 C637 1.370 . S
C636 C638 1.363 . S
C636 H652 0.931 . S
C637 C636 1.370 . S
C637 C641 1.408 . S
C638 C636 1.363 . S
C638 C639 1.370 . S
C638 C642 1.524 . S
C639 C631 1.503 . S
C639 C638 1.370 . S
C639 C640 1.403 . S
C640 C639 1.403 . S
C640 C641 1.404 . S
C640 C643 1.539 . S
C641 C637 1.408 . S
C641 C640 1.404 . S
C641 H653 0.930 . S
C642 C638 1.524 . S
C642 H654 0.956 . S
C642 H655 0.961 . S
C642 H656 0.961 . S
C643 C640 1.539 . S
C643 H657 0.958 . S
C643 H658 0.961 . S
C643 H659 0.960 . S
H644 C628 0.931 . S
H645 C633 0.929 . S
H646 C634 0.960 . S
H647 C634 0.962 . S
H648 C634 0.960 . S
H649 C635 0.961 . S
H650 C635 0.961 . S
H651 C635 0.961 . S
H652 C636 0.931 . S
H653 C641 0.930 . S
H654 C642 0.956 . S
H655 C642 0.961 . S
H656 C642 0.961 . S
H657 C643 0.958 . S
H658 C643 0.961 . S
H659 C643 0.960 . S
C660 C661 1.391 . S
C660 C662 1.394 . S
C660 H676 0.931 . S
C661 C660 1.391 . S
C661 C665 1.376 . S
C662 C660 1.394 . S
C662 C663 1.369 . S
C662 C666 1.531 . S
C663 C662 1.369 . S
C663 C664 1.410 . S
C663 C671 1.503 . S
C664 C663 1.410 . S
C664 C665 1.392 . S
C664 C667 1.511 . S
C665 C661 1.376 . S
C665 C664 1.392 . S
C665 H677 0.929 . S
C666 C662 1.531 . S
C666 H678 0.960 . S
C666 H679 0.963 . S
C666 H680 0.960 . S
C667 C664 1.511 . S
C667 H681 0.961 . S
C667 H682 0.961 . S
C667 H683 0.961 . S
C668 C669 1.370 . S
C668 C670 1.363 . S
C668 H684 0.931 . S
C669 C668 1.370 . S
C669 C673 1.408 . S
C670 C668 1.363 . S
C670 C671 1.370 . S
C670 C674 1.524 . S
C671 C663 1.503 . S
C671 C670 1.370 . S
C671 C672 1.403 . S
C672 C671 1.403 . S
C672 C673 1.404 . S
C672 C675 1.539 . S
C673 C669 1.408 . S
C673 C672 1.404 . S
C673 H685 0.930 . S
C674 C670 1.524 . S
C674 H686 0.956 . S
C674 H687 0.961 . S
C674 H688 0.961 . S
C675 C672 1.539 . S
C675 H689 0.958 . S
C675 H690 0.961 . S
C675 H691 0.960 . S
H676 C660 0.931 . S
H677 C665 0.929 . S
H678 C666 0.960 . S
H679 C666 0.963 . S
H680 C666 0.960 . S
H681 C667 0.961 . S
H682 C667 0.961 . S
H683 C667 0.961 . S
H684 C668 0.931 . S
H685 C673 0.930 . S
H686 C674 0.956 . S
H687 C674 0.961 . S
H688 C674 0.961 . S
H689 C675 0.958 . S
H690 C675 0.961 . S
H691 C675 0.960 . S
C692 C693 1.391 . S
C692 C694 1.394 . S
C692 H708 0.931 . S
C693 C692 1.391 . S
C693 C697 1.376 . S
C694 C692 1.394 . S
C694 C695 1.369 . S
C694 C698 1.531 1_455 S
C695 C694 1.369 . S
C695 C696 1.410 . S
C695 C703 1.503 . S
C696 C695 1.410 . S
C696 C697 1.392 . S
C696 C699 1.511 . S
C697 C693 1.376 . S
C697 C696 1.392 . S
C697 H709 0.929 . S
C698 C694 1.531 1_655 S
C698 H710 0.960 1_655 S
C698 H711 0.962 . S
C698 H712 0.960 . S
C699 C696 1.511 . S
C699 H713 0.961 . S
C699 H714 0.961 . S
C699 H715 0.961 . S
C700 C701 1.370 . S
C700 C702 1.363 . S
C700 H716 0.931 1_455 S
C701 C700 1.370 . S
C701 C705 1.408 . S
C702 C700 1.363 . S
C702 C703 1.370 . S
C702 C706 1.524 1_455 S
C703 C695 1.503 . S
C703 C702 1.370 . S
C703 C704 1.403 . S
C704 C703 1.403 . S
C704 C705 1.404 . S
C704 C707 1.539 . S
C705 C701 1.408 . S
C705 C704 1.404 . S
C705 H717 0.930 . S
C706 C702 1.524 1_655 S
C706 H718 0.956 . S
C706 H719 0.961 1_655 S
C706 H720 0.961 . S
C707 C704 1.539 . S
C707 H721 0.958 . S
C707 H722 0.961 . S
C707 H723 0.960 . S
H708 C692 0.931 . S
H709 C697 0.929 . S
H710 C698 0.960 1_455 S
H711 C698 0.962 . S
H712 C698 0.960 . S
H713 C699 0.961 . S
H714 C699 0.961 . S
H715 C699 0.961 . S
H716 C700 0.931 1_655 S
H717 C705 0.930 . S
H718 C706 0.956 . S
H719 C706 0.961 1_455 S
H720 C706 0.961 . S
H721 C707 0.958 . S
H722 C707 0.961 . S
H723 C707 0.960 . S
C724 C725 1.391 . S
C724 C726 1.394 . S
C724 H740 0.961 . S
C725 C724 1.391 . S
C725 C729 1.376 . S
C726 C724 1.394 . S
C726 C727 1.369 . S
C726 C730 1.531 . S
C727 C726 1.369 . S
C727 C728 1.410 . S
C727 C735 1.503 . S
C728 C727 1.410 . S
C728 C729 1.392 . S
C728 C731 1.511 . S
C729 C725 1.376 . S
C729 C728 1.392 . S
C729 H741 0.929 . S
C730 C726 1.531 . S
C730 H742 0.960 . S
C730 H743 0.962 . S
C730 H744 0.960 . S
C731 C728 1.511 . S
C731 H745 0.961 . S
C731 H746 0.961 . S
C731 H747 0.961 . S
C732 C733 1.370 . S
C732 C734 1.363 . S
C732 H748 0.931 . S
C733 C732 1.370 . S
C733 C737 1.408 . S
C734 C732 1.363 . S
C734 C735 1.370 . S
C734 C738 1.524 . S
C735 C727 1.503 . S
C735 C734 1.370 . S
C735 C736 1.403 . S
C736 C735 1.403 . S
C736 C737 1.404 . S
C736 C739 1.539 . S
C737 C733 1.408 . S
C737 C736 1.404 . S
C737 H749 0.930 . S
C738 C734 1.524 . S
C738 H750 0.956 . S
C738 H751 0.961 . S
C738 H752 0.961 . S
C739 C736 1.539 . S
C739 H753 0.958 . S
C739 H754 0.961 . S
C739 H755 0.960 . S
H740 C724 0.961 . S
H741 C729 0.929 . S
H742 C730 0.960 . S
H743 C730 0.962 . S
H744 C730 0.960 . S
H745 C731 0.961 . S
H746 C731 0.961 . S
H747 C731 0.961 . S
H748 C732 0.931 . S
H749 C737 0.930 . S
H750 C738 0.956 . S
H751 C738 0.961 . S
H752 C738 0.961 . S
H753 C739 0.958 . S
H754 C739 0.961 . S
H755 C739 0.960 . S
C756 C757 1.391 . S
C756 C758 1.394 . S
C756 H772 0.931 . S
C757 C756 1.391 . S
C757 C761 1.376 . S
C758 C756 1.394 . S
C758 C759 1.369 . S
C758 C762 1.531 . S
C759 C758 1.369 . S
C759 C760 1.410 . S
C759 C767 1.503 . S
C760 C759 1.410 . S
C760 C761 1.392 . S
C760 C763 1.511 . S
C761 C757 1.376 . S
C761 C760 1.392 . S
C761 H773 0.929 . S
C762 C758 1.531 . S
C762 H774 0.960 . S
C762 H775 0.962 . S
C762 H776 0.960 . S
C763 C760 1.511 . S
C763 H777 0.961 . S
C763 H778 0.961 . S
C763 H779 0.961 . S
C764 C765 1.370 . S
C764 C766 1.363 . S
C764 H780 0.931 . S
C765 C764 1.370 . S
C765 C769 1.408 . S
C766 C764 1.363 . S
C766 C767 1.370 . S
C766 C770 1.524 . S
C767 C759 1.503 . S
C767 C766 1.370 . S
C767 C768 1.403 . S
C768 C767 1.403 . S
C768 C769 1.404 . S
C768 C771 1.539 . S
C769 C765 1.408 . S
C769 C768 1.404 . S
C769 H781 0.930 . S
C770 C766 1.524 . S
C770 H782 0.956 . S
C770 H783 0.961 . S
C770 H784 0.961 . S
C771 C768 1.539 . S
C771 H785 0.958 . S
C771 H786 0.961 . S
C771 H787 0.960 . S
H772 C756 0.931 . S
H773 C761 0.929 . S
H774 C762 0.960 . S
H775 C762 0.962 . S
H776 C762 0.960 . S
H777 C763 0.961 . S
H778 C763 0.961 . S
H779 C763 0.961 . S
H780 C764 0.931 . S
H781 C769 0.930 . S
H782 C770 0.956 . S
H783 C770 0.961 . S
H784 C770 0.961 . S
H785 C771 0.958 . S
H786 C771 0.961 . S
H787 C771 0.960 . S
C788 C789 1.391 . S
C788 C790 1.394 . S
C788 H804 0.931 . S
C789 C788 1.391 . S
C789 C793 1.376 . S
C790 C788 1.394 . S
C790 C791 1.369 . S
C790 C794 1.531 . S
C791 C790 1.369 . S
C791 C792 1.410 . S
C791 C799 1.503 . S
C792 C791 1.410 . S
C792 C793 1.392 . S
C792 C795 1.511 . S
C793 C789 1.376 . S
C793 C792 1.392 . S
C793 H805 0.929 . S
C794 C790 1.531 . S
C794 H806 0.960 . S
C794 H807 0.962 . S
C794 H808 0.960 . S
C795 C792 1.511 . S
C795 H809 0.961 . S
C795 H810 0.961 . S
C795 H811 0.961 . S
C796 C797 1.370 . S
C796 C798 1.363 . S
C796 H812 0.931 . S
C797 C796 1.370 . S
C797 C801 1.408 . S
C798 C796 1.363 . S
C798 C799 1.370 . S
C798 C802 1.524 . S
C799 C791 1.503 . S
C799 C798 1.370 . S
C799 C800 1.403 . S
C800 C799 1.403 . S
C800 C801 1.404 . S
C800 C803 1.539 . S
C801 C797 1.408 . S
C801 C800 1.404 . S
C801 H813 0.930 . S
C802 C798 1.524 . S
C802 H814 0.956 . S
C802 H815 0.961 . S
C802 H816 0.961 . S
C803 C800 1.539 . S
C803 H817 0.958 . S
C803 H818 0.961 . S
C803 H819 0.960 . S
H804 C788 0.931 . S
H805 C793 0.929 . S
H806 C794 0.960 . S
H807 C794 0.962 . S
H808 C794 0.960 . S
H809 C795 0.961 . S
H810 C795 0.961 . S
H811 C795 0.961 . S
H812 C796 0.931 . S
H813 C801 0.930 . S
H814 C802 0.956 . S
H815 C802 0.961 . S
H816 C802 0.961 . S
H817 C803 0.958 . S
H818 C803 0.961 . S
H819 C803 0.960 . S
C820 C821 1.391 . S
C820 C822 1.394 . S
C820 H836 0.931 . S
C821 C820 1.391 . S
C821 C825 1.376 . S
C822 C820 1.394 . S
C822 C823 1.369 . S
C822 C826 1.531 . S
C823 C822 1.369 . S
C823 C824 1.410 . S
C823 C831 1.503 . S
C824 C823 1.410 . S
C824 C825 1.392 . S
C824 C827 1.511 . S
C825 C821 1.376 . S
C825 C824 1.392 . S
C825 H837 0.929 . S
C826 C822 1.531 . S
C826 H838 0.960 . S
C826 H839 0.962 . S
C826 H840 0.960 . S
C827 C824 1.511 . S
C827 H841 0.961 . S
C827 H842 0.961 . S
C827 H843 0.961 . S
C828 C829 1.370 . S
C828 C830 1.363 . S
C828 H844 0.931 . S
C829 C828 1.370 . S
C829 C833 1.408 . S
C830 C828 1.363 . S
C830 C831 1.370 . S
C830 C834 1.524 . S
C831 C823 1.503 . S
C831 C830 1.370 . S
C831 C832 1.403 . S
C832 C831 1.403 . S
C832 C833 1.404 . S
C832 C835 1.539 . S
C833 C829 1.408 . S
C833 C832 1.404 . S
C833 H845 0.930 . S
C834 C830 1.524 . S
C834 H846 0.956 . S
C834 H847 0.961 . S
C834 H848 0.961 . S
C835 C832 1.539 . S
C835 H849 0.958 . S
C835 H850 0.961 . S
C835 H851 0.960 . S
H836 C820 0.931 . S
H837 C825 0.929 . S
H838 C826 0.960 . S
H839 C826 0.962 . S
H840 C826 0.960 . S
H841 C827 0.961 . S
H842 C827 0.961 . S
H843 C827 0.961 . S
H844 C828 0.931 . S
H845 C833 0.930 . S
H846 C834 0.956 . S
H847 C834 0.961 . S
H848 C834 0.961 . S
H849 C835 0.958 . S
H850 C835 0.961 . S
H851 C835 0.960 . S
C852 C853 1.391 . S
C852 C854 1.394 . S
C852 H868 0.931 . S
C853 C852 1.391 . S
C853 C857 1.376 . S
C854 C852 1.394 . S
C854 C855 1.369 . S
C854 C858 1.531 . S
C855 C854 1.369 . S
C855 C856 1.410 . S
C855 C863 1.503 . S
C856 C855 1.410 . S
C856 C857 1.392 . S
C856 C859 1.511 . S
C857 C853 1.376 . S
C857 C856 1.392 . S
C857 H869 0.929 . S
C858 C854 1.531 . S
C858 H870 0.960 . S
C858 H871 0.962 . S
C858 H872 0.960 . S
C859 C856 1.511 . S
C859 H873 0.961 . S
C859 H874 0.961 . S
C859 H875 0.961 . S
C860 C861 1.370 . S
C860 C862 1.363 . S
C860 H876 0.931 . S
C861 C860 1.370 . S
C861 C865 1.408 . S
C862 C860 1.363 . S
C862 C863 1.370 . S
C862 C866 1.524 . S
C863 C855 1.503 . S
C863 C862 1.370 . S
C863 C864 1.403 . S
C864 C863 1.403 . S
C864 C865 1.404 . S
C864 C867 1.539 . S
C865 C861 1.408 . S
C865 C864 1.404 . S
C865 H877 0.930 . S
C866 C862 1.524 . S
C866 H878 0.956 . S
C866 H879 0.961 . S
C866 H880 0.961 . S
C867 C864 1.539 . S
C867 H881 0.958 . S
C867 H882 0.961 . S
C867 H883 0.960 . S
H868 C852 0.931 . S
H869 C857 0.929 . S
H870 C858 0.960 . S
H871 C858 0.962 . S
H872 C858 0.960 . S
H873 C859 0.961 . S
H874 C859 0.961 . S
H875 C859 0.961 . S
H876 C860 0.931 . S
H877 C865 0.930 . S
H878 C866 0.956 . S
H879 C866 0.961 . S
H880 C866 0.961 . S
H881 C867 0.958 . S
H882 C867 0.961 . S
H883 C867 0.960 . S
C884 C885 1.391 . S
C884 C886 1.394 . S
C884 H900 0.931 . S
C885 C884 1.391 . S
C885 C889 1.376 . S
C886 C884 1.394 . S
C886 C887 1.369 . S
C886 C890 1.531 . S
C887 C886 1.369 . S
C887 C888 1.410 . S
C887 C895 1.503 . S
C888 C887 1.410 . S
C888 C889 1.392 . S
C888 C891 1.511 . S
C889 C885 1.376 . S
C889 C888 1.392 . S
C889 H901 0.929 . S
C890 C886 1.531 . S
C890 H902 0.960 . S
C890 H903 0.962 . S
C890 H904 0.960 . S
C891 C888 1.511 . S
C891 H905 0.961 . S
C891 H906 0.961 . S
C891 H907 0.961 . S
C892 C893 1.370 . S
C892 C894 1.363 . S
C892 H908 0.931 . S
C893 C892 1.370 . S
C893 C897 1.408 . S
C894 C892 1.363 . S
C894 C895 1.370 . S
C894 C898 1.524 . S
C895 C887 1.503 . S
C895 C894 1.370 . S
C895 C896 1.403 . S
C896 C895 1.403 . S
C896 C897 1.404 . S
C896 C899 1.539 . S
C897 C893 1.408 . S
C897 C896 1.404 . S
C897 H909 0.930 . S
C898 C894 1.524 . S
C898 H910 0.956 . S
C898 H911 0.961 . S
C898 H912 0.961 . S
C899 C896 1.539 . S
C899 H913 0.958 . S
C899 H914 0.961 . S
C899 H915 0.960 . S
H900 C884 0.931 . S
H901 C889 0.929 . S
H902 C890 0.960 . S
H903 C890 0.962 . S
H904 C890 0.960 . S
H905 C891 0.961 . S
H906 C891 0.961 . S
H907 C891 0.961 . S
H908 C892 0.931 . S
H909 C897 0.930 . S
H910 C898 0.956 . S
H911 C898 0.961 . S
H912 C898 0.961 . S
H913 C899 0.958 . S
H914 C899 0.961 . S
H915 C899 0.960 . S
C916 C917 1.391 . S
C916 C918 1.394 . S
C916 H932 0.931 . S
C917 C916 1.391 . S
C917 C921 1.376 . S
C918 C916 1.394 . S
C918 C919 1.369 . S
C918 C922 1.531 . S
C919 C918 1.369 . S
C919 C920 1.410 . S
C919 C927 1.503 . S
C920 C919 1.410 . S
C920 C921 1.392 . S
C920 C923 1.511 . S
C921 C917 1.376 . S
C921 C920 1.392 . S
C921 H933 0.929 . S
C922 C918 1.531 . S
C922 H934 0.960 . S
C922 H935 0.962 . S
C922 H936 0.960 . S
C923 C920 1.511 . S
C923 H937 0.961 . S
C923 H938 0.961 . S
C923 H939 0.961 . S
C924 C925 1.370 . S
C924 C926 1.363 . S
C924 H940 0.931 . S
C925 C924 1.370 . S
C925 C929 1.408 . S
C926 C924 1.363 . S
C926 C927 1.370 . S
C926 C930 1.524 . S
C927 C919 1.503 . S
C927 C926 1.370 . S
C927 C928 1.403 . S
C928 C927 1.403 . S
C928 C929 1.404 . S
C928 C931 1.539 . S
C929 C925 1.408 . S
C929 C928 1.404 . S
C929 H941 0.930 . S
C930 C926 1.524 . S
C930 H942 0.956 . S
C930 H943 0.961 . S
C930 H944 0.961 . S
C931 C928 1.539 . S
C931 H945 0.958 . S
C931 H946 0.961 . S
C931 H947 0.960 . S
H932 C916 0.931 . S
H933 C921 0.929 . S
H934 C922 0.960 . S
H935 C922 0.962 . S
H936 C922 0.960 . S
H937 C923 0.961 . S
H938 C923 0.961 . S
H939 C923 0.961 . S
H940 C924 0.931 . S
H941 C929 0.930 . S
H942 C930 0.956 . S
H943 C930 0.961 . S
H944 C930 0.961 . S
H945 C931 0.958 . S
H946 C931 0.961 . S
H947 C931 0.960 . S
C948 C949 1.391 . S
C948 C950 1.394 . S
C948 H964 0.931 . S
C949 C948 1.391 . S
C949 C953 1.376 . S
C950 C948 1.394 . S
C950 C951 1.369 1_556 S
C950 C954 1.531 1_556 S
C951 C950 1.369 1_554 S
C951 C952 1.410 . S
C951 C959 1.503 . S
C952 C951 1.410 . S
C952 C953 1.392 1_554 S
C952 C955 1.511 . S
C953 C949 1.376 . S
C953 C952 1.392 1_556 S
C953 H965 0.929 . S
C954 C950 1.531 1_554 S
C954 H966 0.960 . S
C954 H967 0.962 . S
C954 H968 0.960 1_554 S
C955 C952 1.511 . S
C955 H969 0.961 . S
C955 H970 0.961 . S
C955 H971 0.961 . S
C956 C957 1.370 . S
C956 C958 1.363 . S
C956 H972 0.931 . S
C957 C956 1.370 . S
C957 C961 1.408 . S
C958 C956 1.363 . S
C958 C959 1.370 . S
C958 C962 1.524 . S
C959 C951 1.503 . S
C959 C958 1.370 . S
C959 C960 1.403 . S
C960 C959 1.403 . S
C960 C961 1.404 . S
C960 C963 1.539 . S
C961 C957 1.408 . S
C961 C960 1.404 . S
C961 H973 0.930 . S
C962 C958 1.524 . S
C962 H974 0.956 . S
C962 H975 0.961 . S
C962 H976 0.961 . S
C963 C960 1.539 . S
C963 H977 0.957 1_554 S
C963 H978 0.961 . S
C963 H979 0.960 1_554 S
H964 C948 0.931 . S
H965 C953 0.929 . S
H966 C954 0.960 . S
H967 C954 0.962 . S
H968 C954 0.960 1_556 S
H969 C955 0.961 . S
H970 C955 0.961 . S
H971 C955 0.961 . S
H972 C956 0.931 . S
H973 C961 0.930 . S
H974 C962 0.956 . S
H975 C962 0.961 . S
H976 C962 0.961 . S
H977 C963 0.957 1_556 S
H978 C963 0.961 . S
H979 C963 0.960 1_556 S
C980 C981 1.391 . S
C980 C982 1.394 . S
C980 H996 0.931 . S
C981 C980 1.391 . S
C981 C985 1.376 . S
C982 C980 1.394 . S
C982 C983 1.369 . S
C982 C986 1.531 . S
C983 C982 1.369 . S
C983 C984 1.410 . S
C983 C991 1.503 . S
C984 C983 1.410 . S
C984 C985 1.392 . S
C984 C987 1.511 . S
C985 C981 1.376 . S
C985 C984 1.392 . S
C985 H997 0.929 . S
C986 C982 1.531 . S
C986 H998 0.960 . S
C986 H999 0.962 . S
C986 H1000 0.960 . S
C987 C984 1.511 . S
C987 H1001 0.961 . S
C987 H1002 0.961 . S
C987 H1003 0.961 . S
C988 C989 1.370 . S
C988 C990 1.363 . S
C988 H1004 0.931 . S
C989 C988 1.370 . S
C989 C993 1.408 . S
C990 C988 1.363 . S
C990 C991 1.370 . S
C990 C994 1.524 . S
C991 C983 1.503 . S
C991 C990 1.370 . S
C991 C992 1.403 . S
C992 C991 1.403 . S
C992 C993 1.404 . S
C992 C995 1.539 . S
C993 C989 1.408 . S
C993 C992 1.404 . S
C993 H1005 0.930 . S
C994 C990 1.524 . S
C994 H1006 0.956 . S
C994 H1007 0.961 . S
C994 H1008 0.961 . S
C995 C992 1.539 . S
C995 H1009 0.958 . S
C995 H1010 0.961 . S
C995 H1011 0.960 . S
H996 C980 0.931 . S
H997 C985 0.929 . S
H998 C986 0.960 . S
H999 C986 0.962 . S
H1000 C986 0.960 . S
H1001 C987 0.961 . S
H1002 C987 0.961 . S
H1003 C987 0.961 . S
H1004 C988 0.931 . S
H1005 C993 0.930 . S
H1006 C994 0.956 . S
H1007 C994 0.961 . S
H1008 C994 0.961 . S
H1009 C995 0.958 . S
H1010 C995 0.961 . S
H1011 C995 0.960 . S
C1012 C1013 1.391 . S
C1012 C1014 1.394 . S
C1012 H1028 0.931 . S
C1013 C1012 1.391 . S
C1013 C1017 1.376 . S
C1014 C1012 1.394 . S
C1014 C1015 1.369 . S
C1014 C1018 1.531 . S
C1015 C1014 1.369 . S
C1015 C1016 1.410 . S
C1015 C1023 1.503 . S
C1016 C1015 1.410 . S
C1016 C1017 1.392 . S
C1016 C1019 1.511 1_655 S
C1017 C1013 1.376 . S
C1017 C1016 1.392 . S
C1017 H1029 0.929 1_655 S
C1018 C1014 1.531 . S
C1018 H1030 0.960 . S
C1018 H1031 0.962 . S
C1018 H1032 0.960 . S
C1019 C1016 1.511 1_455 S
C1019 H1033 0.961 . S
C1019 H1034 0.961 . S
C1019 H1035 0.961 . S
C1020 C1021 1.370 . S
C1020 C1022 1.363 . S
C1020 H1036 0.931 . S
C1021 C1020 1.370 . S
C1021 C1025 1.408 . S
C1022 C1020 1.363 . S
C1022 C1023 1.370 . S
C1022 C1026 1.524 . S
C1023 C1015 1.503 . S
C1023 C1022 1.370 . S
C1023 C1024 1.403 . S
C1024 C1023 1.403 . S
C1024 C1025 1.404 . S
C1024 C1027 1.539 . S
C1025 C1021 1.408 . S
C1025 C1024 1.404 . S
C1025 H1037 0.930 . S
C1026 C1022 1.524 . S
C1026 H1038 0.956 . S
C1026 H1039 0.961 . S
C1026 H1040 0.961 . S
C1027 C1024 1.539 . S
C1027 H1041 0.958 . S
C1027 H1042 0.961 . S
C1027 H1043 0.960 . S
H1028 C1012 0.931 . S
H1029 C1017 0.929 1_455 S
H1030 C1018 0.960 . S
H1031 C1018 0.962 . S
H1032 C1018 0.960 . S
H1033 C1019 0.961 . S
H1034 C1019 0.961 . S
H1035 C1019 0.961 . S
H1036 C1020 0.931 . S
H1037 C1025 0.930 . S
H1038 C1026 0.956 . S
H1039 C1026 0.961 . S
H1040 C1026 0.961 . S
H1041 C1027 0.958 . S
H1042 C1027 0.961 . S
H1043 C1027 0.960 . S
C277 N2 1.330 . S
C285 N94 1.238 . S
C309 C131 1.616 . S
C317 C39 1.679 . S
C341 N140 1.376 . S
C349 C53 1.471 . S
C373 N81 1.576 . S
C381 C177 1.416 . S
C405 C99 1.578 . S
C413 N25 1.362 . S
C437 N127 1.456 . S
C445 N58 1.432 . S
C469 C76 1.618 . S
C477 C145 1.731 . S
C501 N173 1.488 . S
C509 C16 1.376 . S
C533 C108 1.606 . S
C541 C168 1.522 . S
C565 N117 1.339 . S
C573 N104 1.412 . S
C597 C154 1.699 . S
C605 C122 1.611 1_545 S
C629 N150 1.394 . S
C637 N163 1.427 . S
C661 C200 1.604 . S
C669 C85 1.490 1_554 S
C693 N209 1.543 . S
C701 C7 1.491 . S
C725 C246 1.559 1_455 S
C733 N35 1.549 . S
C757 C214 1.619 . S
C765 C30 1.749 . S
C789 C260 1.499 . S
C797 N71 1.568 . S
C821 N48 1.248 . S
C829 N255 1.388 . S
C853 N12 1.318 . S
C861 N196 1.265 . S
C885 N242 1.450 . S
C893 C62 1.449 . S
C917 C269 1.543 . S
C925 C237 1.656 . S
C949 N265 1.417 . S
C957 N186 1.235 . S
C981 C191 1.640 . S
C989 C223 1.531 . S
C1013 N219 1.493 . S
C1021 N232 1.356 . S
