# Generated by pormake.
# Topology uob, (4)-cn, num edge types: 1
# Building blocks:
#     Node 0, Type 0, BuildingBlock: ICAMEG_clean_sbu_1, # of connection points: 4
#     Node 1, Type 0, BuildingBlock: ICAMEG_clean_sbu_1, # of connection points: 4
#     Node 2, Type 0, BuildingBlock: ICAMEG_clean_sbu_1, # of connection points: 4
#     Node 3, Type 0, BuildingBlock: ICAMEG_clean_sbu_1, # of connection points: 4
#     Node 4, Type 0, BuildingBlock: ICAMEG_clean_sbu_1, # of connection points: 4
#     Node 5, Type 0, BuildingBlock: ICAMEG_clean_sbu_1, # of connection points: 4
#     Node 6, Type 0, BuildingBlock: ICAMEG_clean_sbu_1, # of connection points: 4
#     Node 7, Type 0, BuildingBlock: ICAMEG_clean_sbu_1, # of connection points: 4
#     Node 8, Type 0, BuildingBlock: ICAMEG_clean_sbu_1, # of connection points: 4
#     Node 9, Type 0, BuildingBlock: ICAMEG_clean_sbu_1, # of connection points: 4
#     Node 10, Type 0, BuildingBlock: ICAMEG_clean_sbu_1, # of connection points: 4
#     Node 11, Type 0, BuildingBlock: ICAMEG_clean_sbu_1, # of connection points: 4
#     Node 12, Type 0, BuildingBlock: ICAMEG_clean_sbu_1, # of connection points: 4
#     Node 13, Type 0, BuildingBlock: ICAMEG_clean_sbu_1, # of connection points: 4
#     Node 14, Type 0, BuildingBlock: ICAMEG_clean_sbu_1, # of connection points: 4
#     Node 15, Type 0, BuildingBlock: ICAMEG_clean_sbu_1, # of connection points: 4
#     Edge 16, Type (0, 0), BuildingBlock: KIFKEQ_clean_linker_1, # of connection points: 2
#     Edge 17, Type (0, 0), BuildingBlock: KIFKEQ_clean_linker_1, # of connection points: 2
#     Edge 18, Type (0, 0), BuildingBlock: KIFKEQ_clean_linker_1, # of connection points: 2
#     Edge 19, Type (0, 0), BuildingBlock: KIFKEQ_clean_linker_1, # of connection points: 2
#     Edge 20, Type (0, 0), BuildingBlock: KIFKEQ_clean_linker_1, # of connection points: 2
#     Edge 21, Type (0, 0), BuildingBlock: KIFKEQ_clean_linker_1, # of connection points: 2
#     Edge 22, Type (0, 0), BuildingBlock: KIFKEQ_clean_linker_1, # of connection points: 2
#     Edge 23, Type (0, 0), BuildingBlock: KIFKEQ_clean_linker_1, # of connection points: 2
#     Edge 24, Type (0, 0), BuildingBlock: KIFKEQ_clean_linker_1, # of connection points: 2
#     Edge 25, Type (0, 0), BuildingBlock: KIFKEQ_clean_linker_1, # of connection points: 2
#     Edge 26, Type (0, 0), BuildingBlock: KIFKEQ_clean_linker_1, # of connection points: 2
#     Edge 27, Type (0, 0), BuildingBlock: KIFKEQ_clean_linker_1, # of connection points: 2
#     Edge 28, Type (0, 0), BuildingBlock: KIFKEQ_clean_linker_1, # of connection points: 2
#     Edge 29, Type (0, 0), BuildingBlock: KIFKEQ_clean_linker_1, # of connection points: 2
#     Edge 30, Type (0, 0), BuildingBlock: KIFKEQ_clean_linker_1, # of connection points: 2
#     Edge 31, Type (0, 0), BuildingBlock: KIFKEQ_clean_linker_1, # of connection points: 2
#     Edge 32, Type (0, 0), BuildingBlock: KIFKEQ_clean_linker_1, # of connection points: 2
#     Edge 33, Type (0, 0), BuildingBlock: KIFKEQ_clean_linker_1, # of connection points: 2
#     Edge 34, Type (0, 0), BuildingBlock: KIFKEQ_clean_linker_1, # of connection points: 2
#     Edge 35, Type (0, 0), BuildingBlock: KIFKEQ_clean_linker_1, # of connection points: 2
#     Edge 36, Type (0, 0), BuildingBlock: KIFKEQ_clean_linker_1, # of connection points: 2
#     Edge 37, Type (0, 0), BuildingBlock: KIFKEQ_clean_linker_1, # of connection points: 2
#     Edge 38, Type (0, 0), BuildingBlock: KIFKEQ_clean_linker_1, # of connection points: 2
#     Edge 39, Type (0, 0), BuildingBlock: KIFKEQ_clean_linker_1, # of connection points: 2
#     Edge 40, Type (0, 0), BuildingBlock: KIFKEQ_clean_linker_1, # of connection points: 2
#     Edge 41, Type (0, 0), BuildingBlock: KIFKEQ_clean_linker_1, # of connection points: 2
#     Edge 42, Type (0, 0), BuildingBlock: KIFKEQ_clean_linker_1, # of connection points: 2
#     Edge 43, Type (0, 0), BuildingBlock: KIFKEQ_clean_linker_1, # of connection points: 2
#     Edge 44, Type (0, 0), BuildingBlock: KIFKEQ_clean_linker_1, # of connection points: 2
#     Edge 45, Type (0, 0), BuildingBlock: KIFKEQ_clean_linker_1, # of connection points: 2
#     Edge 46, Type (0, 0), BuildingBlock: KIFKEQ_clean_linker_1, # of connection points: 2
#     Edge 47, Type (0, 0), BuildingBlock: KIFKEQ_clean_linker_1, # of connection points: 2
# Relax obj value: 0.103
# Max RMSD: 0.130
# Mean RMSD: 0.130
data_MOF--net-uob--node1-ICAMEG_clean_sbu_1--edge1-KIFKEQ_clean_linker_1
_symmetry_space_group_name_H-M    P1
_symmetry_Int_Tables_number       1
_symmetry_cell_setting            triclinic
loop_
_symmetry_equiv_pos_as_xyz
'x, y, z'
_cell_length_a     58.573141
_cell_length_b     58.563308
_cell_length_c     30.078058
_cell_angle_alpha  90.057995
_cell_angle_beta   89.949777
_cell_angle_gamma 90.052052
loop_
_atom_site_label
_atom_site_type_symbol
_atom_site_fract_x
_atom_site_fract_y
_atom_site_fract_z
_atom_type_partial_charge
Co0 Co 0.10531 0.07819 0.28415 0.0
Co1 Co 0.12724 0.02566 0.31461 0.0
O2 O 0.12942 0.05511 0.28427 0.0
C3 C 0.1138 0.06969 0.18948 0.0
O4 O 0.11434 0.04782 0.19902 0.0
C5 C 0.16815 0.04743 0.35245 0.0
O6 O 0.15604 0.06624 0.35452 0.0
O7 O 0.11606 0.04037 0.37006 0.0
O8 O 0.09859 0.07255 0.34779 0.0
H9 H 0.08917 0.96541 0.40766 0.0
H10 H 0.1513 0.09038 0.25046 0.0
O11 O 0.11109 0.08437 0.22015 0.0
H12 H 0.13743 0.14219 0.37696 0.0
H13 H 0.071 0.15413 0.24336 0.0
H14 H 0.05815 0.08079 0.31985 0.0
H15 H 0.10815 0.11428 0.35406 0.0
H16 H 0.10126 0.12488 0.24547 0.0
O17 O 0.1594 0.02921 0.33665 0.0
H18 H 0.09196 0.00249 0.36914 0.0
H19 H 0.1589 0.98621 0.32501 0.0
H20 H 0.02749 0.10962 0.31888 0.0
H21 H 0.18098 0.11818 0.272 0.0
H22 H 0.03383 0.14661 0.28042 0.0
H23 H 0.17415 0.14427 0.33579 0.0
O24 O 0.08193 0.05508 0.26749 0.0
H25 H 0.17974 0.0167 0.1836 0.0
H26 H 0.11176 0.98606 0.25992 0.0
H27 H 0.12491 0.96811 0.19024 0.0
H28 H 0.15915 0.98343 0.15164 0.0
H29 H 0.16587 0.03426 0.25316 0.0
H30 H 0.15692 0.94905 0.36339 0.0
H31 H 0.12182 0.93841 0.40492 0.0
O32 O 0.095 0.02166 0.29396 0.0
C33 C 0.10401 0.05809 0.37746 0.0
C34 C 0.10453 0.96982 0.38955 0.0
C35 C 0.14257 0.96065 0.36475 0.0
N36 N 0.12549 0.99641 0.34455 0.0
C37 C 0.10618 0.99076 0.36757 0.0
C38 C 0.1436 0.98173 0.34316 0.0
C39 C 0.12286 0.95469 0.38804 0.0
C40 C 0.14811 0.10186 0.27792 0.0
N41 N 0.12798 0.10079 0.30082 0.0
C42 C 0.16502 0.11749 0.2901 0.0
C43 C 0.16119 0.1321 0.32594 0.0
C44 C 0.1406 0.13093 0.34908 0.0
C45 C 0.1241 0.11505 0.33602 0.0
C46 C 0.06806 0.13811 0.26037 0.0
C47 C 0.06111 0.09693 0.30341 0.0
C48 C 0.08512 0.12148 0.26164 0.0
N49 N 0.08157 0.10126 0.28326 0.0
C50 C 0.04365 0.11315 0.3028 0.0
C51 C 0.04721 0.13389 0.28117 0.0
C52 C 0.07955 0.03384 0.2757 0.0
C53 C 0.16483 0.00984 0.20018 0.0
C54 C 0.12664 0.99286 0.24325 0.0
C55 C 0.13403 0.98259 0.20386 0.0
C56 C 0.15325 0.99119 0.18223 0.0
N57 N 0.13811 0.01112 0.26066 0.0
C58 C 0.15696 0.01965 0.23966 0.0
Co59 Co 0.92494 0.60367 0.53963 0.0
Co60 Co 0.97761 0.62581 0.56946 0.0
O61 O 0.9493 0.62637 0.53481 0.0
C62 C 0.93916 0.60035 0.44576 0.0
O63 O 0.96043 0.60285 0.45858 0.0
C64 C 0.95483 0.66839 0.59722 0.0
O65 O 0.93594 0.65637 0.59841 0.0
O66 O 0.96124 0.61722 0.62525 0.0
O67 O 0.9262 0.60539 0.60517 0.0
H68 H 0.03461 0.59255 0.676 0.0
H69 H 0.91844 0.64475 0.48376 0.0
O70 O 0.92295 0.60122 0.47381 0.0
H71 H 0.85729 0.64804 0.5964 0.0
H72 H 0.8503 0.56703 0.49684 0.0
H73 H 0.91698 0.56316 0.59654 0.0
H74 H 0.88444 0.61586 0.59506 0.0
H75 H 0.88096 0.59581 0.49193 0.0
O76 O 0.97347 0.659 0.5851 0.0
H77 H 0.99892 0.5933 0.63255 0.0
H78 H 0.01672 0.65802 0.57914 0.0
H79 H 0.8866 0.53412 0.60285 0.0
H80 H 0.89152 0.67714 0.48357 0.0
H81 H 0.85297 0.53595 0.55274 0.0
H82 H 0.86073 0.67896 0.54032 0.0
O83 O 0.9474 0.57805 0.53967 0.0
H84 H 0.99108 0.67169 0.43082 0.0
H85 H 0.01883 0.60787 0.52292 0.0
H86 H 0.03913 0.61763 0.4536 0.0
H87 H 0.02528 0.64977 0.40707 0.0
H88 H 0.97119 0.66122 0.50024 0.0
H89 H 0.05252 0.65807 0.6223 0.0
H90 H 0.06169 0.62512 0.67103 0.0
O91 O 0.98197 0.59281 0.55511 0.0
C92 C 0.94122 0.61004 0.63426 0.0
C93 C 0.03084 0.60698 0.65479 0.0
C94 C 0.04087 0.64377 0.6247 0.0
N95 N 0.00583 0.62561 0.60312 0.0
C96 C 0.01069 0.60747 0.63002 0.0
C97 C 0.02056 0.64367 0.60042 0.0
C98 C 0.04601 0.62526 0.65202 0.0
C99 C 0.90496 0.64534 0.50831 0.0
N100 N 0.90298 0.62844 0.53934 0.0
C101 C 0.88982 0.66376 0.50814 0.0
C102 C 0.87257 0.66478 0.54002 0.0
C103 C 0.87064 0.64744 0.57152 0.0
C104 C 0.8861 0.62931 0.57069 0.0
C105 C 0.86484 0.56607 0.51892 0.0
C106 C 0.90231 0.56414 0.57483 0.0
C107 C 0.88228 0.58229 0.51623 0.0
N108 N 0.90065 0.58125 0.54415 0.0
C109 C 0.88521 0.54762 0.57846 0.0
C110 C 0.86635 0.54864 0.5503 0.0
C111 C 0.96891 0.57607 0.54537 0.0
C112 C 0.99731 0.65769 0.45088 0.0
C113 C 0.01267 0.62185 0.50279 0.0
C114 C 0.02426 0.62732 0.46362 0.0
C115 C 0.01648 0.64537 0.43754 0.0
N116 N 0.99391 0.63405 0.51569 0.0
C117 C 0.98617 0.65175 0.49029 0.0
Co118 Co 0.39575 0.42467 0.79007 0.0
Co119 Co 0.37272 0.47604 0.82478 0.0
O120 O 0.37167 0.44772 0.79042 0.0
C121 C 0.39251 0.43683 0.69565 0.0
O122 O 0.39327 0.45834 0.70796 0.0
C123 C 0.33136 0.45301 0.85778 0.0
O124 O 0.34396 0.43456 0.86072 0.0
O125 O 0.38253 0.45956 0.87936 0.0
O126 O 0.40017 0.42779 0.85514 0.0
H127 H 0.40746 0.5333 0.92932 0.0
H128 H 0.35102 0.41413 0.74883 0.0
O129 O 0.39222 0.42104 0.72462 0.0
H130 H 0.36049 0.35733 0.86832 0.0
H131 H 0.4315 0.35047 0.74212 0.0
H132 H 0.4415 0.42041 0.83145 0.0
H133 H 0.39049 0.38593 0.85364 0.0
H134 H 0.40124 0.37971 0.74475 0.0
O135 O 0.34001 0.47146 0.84278 0.0
H136 H 0.40618 0.49759 0.88578 0.0
H137 H 0.34036 0.51477 0.83708 0.0
H138 H 0.47213 0.39154 0.83008 0.0
H139 H 0.32067 0.3857 0.76214 0.0
H140 H 0.46722 0.35626 0.78516 0.0
H141 H 0.32528 0.35709 0.82236 0.0
O142 O 0.41966 0.44827 0.78022 0.0
H143 H 0.32391 0.48906 0.68994 0.0
H144 H 0.38924 0.51757 0.77724 0.0
H145 H 0.37781 0.53783 0.70895 0.0
H146 H 0.34489 0.52361 0.66485 0.0
H147 H 0.33606 0.4692 0.75826 0.0
H148 H 0.34083 0.55056 0.88043 0.0
H149 H 0.3746 0.56006 0.92681 0.0
O150 O 0.40544 0.48098 0.80801 0.0
C151 C 0.39401 0.44139 0.88587 0.0
C152 C 0.39267 0.52938 0.90913 0.0
C153 C 0.35526 0.53906 0.88173 0.0
N154 N 0.3733 0.50422 0.85865 0.0
C155 C 0.39188 0.50923 0.8843 0.0
C156 C 0.35507 0.51875 0.85734 0.0
C157 C 0.37422 0.54438 0.90773 0.0
C158 C 0.35324 0.40158 0.7748 0.0
N159 N 0.37255 0.4016 0.80026 0.0
C160 C 0.33596 0.38559 0.7823 0.0
C161 C 0.33854 0.36956 0.81614 0.0
C162 C 0.35829 0.36969 0.84196 0.0
C163 C 0.3752 0.38596 0.83354 0.0
C164 C 0.4338 0.36573 0.76197 0.0
C165 C 0.43915 0.405 0.81221 0.0
C166 C 0.41673 0.38234 0.76357 0.0
N167 N 0.41947 0.40159 0.78877 0.0
C168 C 0.45659 0.38876 0.81139 0.0
C169 C 0.45384 0.36898 0.78613 0.0
C170 C 0.42156 0.46932 0.79058 0.0
C171 C 0.33824 0.49545 0.70894 0.0
C172 C 0.37494 0.51123 0.75815 0.0
C173 C 0.36852 0.52281 0.71956 0.0
C174 C 0.35004 0.51482 0.69485 0.0
N175 N 0.36324 0.49229 0.7718 0.0
C176 C 0.34514 0.48433 0.74772 0.0
Co177 Co 0.579 0.89546 0.03082 0.0
Co178 Co 0.52694 0.87392 0.06542 0.0
O179 O 0.55522 0.87206 0.03116 0.0
C180 C 0.56645 0.89253 0.93664 0.0
O181 O 0.54504 0.89365 0.94941 0.0
C182 C 0.54871 0.83205 0.09864 0.0
O183 O 0.56746 0.84422 0.10197 0.0
O184 O 0.54365 0.88345 0.12003 0.0
O185 O 0.57608 0.89993 0.09591 0.0
H186 H 0.47061 0.91039 0.16961 0.0
H187 H 0.58807 0.85048 0.98917 0.0
O188 O 0.58238 0.8919 0.9653 0.0
H189 H 0.64522 0.85808 0.1086 0.0
H190 H 0.6543 0.9289 0.98294 0.0
H191 H 0.58472 0.94112 0.07218 0.0
H192 H 0.61759 0.88896 0.09421 0.0
H193 H 0.62408 0.89956 0.98544 0.0
O194 O 0.53056 0.84113 0.08344 0.0
H195 H 0.50629 0.90807 0.1262 0.0
H196 H 0.4873 0.84262 0.07773 0.0
H197 H 0.61459 0.97082 0.07096 0.0
H198 H 0.6155 0.81925 0.00218 0.0
H199 H 0.6497 0.96479 0.02609 0.0
H200 H 0.64428 0.82292 0.06237 0.0
O201 O 0.55615 0.9201 0.0213 0.0
H202 H 0.51264 0.82525 0.93064 0.0
H203 H 0.48593 0.89145 0.01773 0.0
H204 H 0.46542 0.88047 0.94938 0.0
H205 H 0.47873 0.84711 0.90539 0.0
H206 H 0.53278 0.83697 -0.001 0.0
H207 H 0.4515 0.84413 0.12093 0.0
H208 H 0.44293 0.87825 0.16713 0.0
O209 O 0.52298 0.9067 0.04857 0.0
C210 C 0.56219 0.89436 0.12659 0.0
C211 C 0.47412 0.89546 0.14949 0.0
C212 C 0.46341 0.85826 0.12222 0.0
N213 N 0.49877 0.87532 0.0992 0.0
C214 C 0.49426 0.89408 0.12475 0.0
C215 C 0.48372 0.85748 0.09791 0.0
C216 C 0.4586 0.87741 0.14812 0.0
C217 C 0.6007 0.85229 0.01512 0.0
N218 N 0.60132 0.87156 0.04072 0.0
C219 C 0.61612 0.83451 0.02246 0.0
C220 C 0.63224 0.83657 0.05628 0.0
C221 C 0.63277 0.85629 0.08224 0.0
C222 C 0.61706 0.8737 0.07399 0.0
C223 C 0.63913 0.93168 0.00279 0.0
C224 C 0.60005 0.93827 0.05299 0.0
C225 C 0.62196 0.91514 0.00432 0.0
N226 N 0.60282 0.91848 0.02952 0.0
C227 C 0.61686 0.9552 0.05223 0.0
C228 C 0.63654 0.95182 0.027 0.0
C229 C 0.53515 0.92255 0.03152 0.0
C230 C 0.50664 0.83978 0.94959 0.0
C231 C 0.49187 0.87696 -0.00132 0.0
C232 C 0.48016 0.87079 0.96007 0.0
C233 C 0.48763 0.85207 0.93541 0.0
N234 N 0.51047 0.86478 0.01242 0.0
C235 C 0.51792 0.84644 0.98839 0.0
Co236 Co 0.10208 0.42616 0.03333 0.0
Co237 Co 0.12835 0.47729 0.00683 0.0
O238 O 0.12733 0.4479 0.03772 0.0
C239 C 0.10525 0.43457 0.12916 0.0
O240 O 0.10771 0.45634 0.11995 0.0
C241 C 0.16949 0.45361 0.97477 0.0
O242 O 0.15624 0.4358 0.96857 0.0
O243 O 0.11935 0.46293 0.94943 0.0
O244 O 0.09904 0.43189 0.96889 0.0
H245 H 0.09893 0.53901 0.90612 0.0
H246 H 0.14531 0.41173 0.07579 0.0
O247 O 0.10397 0.41992 0.09809 0.0
H248 H 0.13525 0.36014 0.94759 0.0
H249 H 0.06152 0.35235 0.06726 0.0
H250 H 0.05701 0.42598 0.9884 0.0
H251 H 0.10652 0.38968 0.96448 0.0
H252 H 0.09333 0.37991 0.07117 0.0
O253 O 0.16127 0.47189 -0.00865 0.0
H254 H 0.09753 0.50205 0.94533 0.0
H255 H 0.16255 0.51493 0.00254 0.0
H256 H 0.0249 0.39885 0.98325 0.0
H257 H 0.17437 0.38228 0.06035 0.0
H258 H 0.02704 0.36172 0.02288 0.0
H259 H 0.16946 0.35629 -0.00425 0.0
O260 O 0.0794 0.45055 0.04534 0.0
H261 H 0.17406 0.4841 0.14747 0.0
H262 H 0.11228 0.51792 0.05786 0.0
H263 H 0.12265 0.53549 0.12963 0.0
H264 H 0.15377 0.51857 0.17493 0.0
H265 H 0.163 0.46696 0.07564 0.0
H266 H 0.16475 0.55194 0.96363 0.0
H267 H 0.13273 0.56423 0.91516 0.0
O268 O 0.09542 0.48315 0.02103 0.0
C269 C 0.10676 0.44583 0.94024 0.0
C270 C 0.11295 0.53388 0.92727 0.0
C271 C 0.14991 0.54112 0.9595 0.0
N272 N 0.12984 0.50645 0.97648 0.0
C273 C 0.11222 0.51301 0.94965 0.0
C274 C 0.14859 0.52014 0.98137 0.0
C275 C 0.13193 0.54801 0.93232 0.0
C276 C 0.14295 0.40031 0.0479 0.0
N277 N 0.12419 0.40232 0.02124 0.0
C278 C 0.1595 0.38375 0.03921 0.0
C279 C 0.15675 0.36919 0.00291 0.0
C280 C 0.13757 0.37135 0.97587 0.0
C281 C 0.12138 0.38813 0.98554 0.0
C282 C 0.06042 0.36844 0.04972 0.0
C283 C 0.05815 0.40978 0.00541 0.0
C284 C 0.07836 0.38412 0.05185 0.0
N285 N 0.07714 0.40443 0.0296 0.0
C286 C 0.03988 0.39452 0.00252 0.0
C287 C 0.04108 0.3737 0.02481 0.0
C288 C 0.07857 0.47184 0.0367 0.0
C289 C 0.16051 0.49166 0.12797 0.0
C290 C 0.12579 0.51042 0.07745 0.0
C291 C 0.13163 0.52047 0.11801 0.0
C292 C 0.1491 0.51098 0.14339 0.0
N293 N 0.1371 0.49149 0.06253 0.0
C294 C 0.15424 0.48209 0.08722 0.0
Co295 Co 0.57559 0.60916 0.28727 0.0
Co296 Co 0.52348 0.62879 0.24914 0.0
O297 O 0.55106 0.63166 0.28525 0.0
C298 C 0.56074 0.61109 0.38059 0.0
O299 O 0.53961 0.60928 0.36649 0.0
C300 C 0.54583 0.67026 0.21538 0.0
O301 O 0.56467 0.65816 0.21509 0.0
O302 O 0.54114 0.61835 0.19624 0.0
O303 O 0.57461 0.60528 0.222 0.0
H304 H 0.46942 0.58965 0.14413 0.0
H305 H 0.58184 0.65416 0.33075 0.0
O306 O 0.57716 0.61231 0.35304 0.0
H307 H 0.64265 0.64942 0.21763 0.0
H308 H 0.65034 0.57758 0.34209 0.0
H309 H 0.58429 0.56454 0.24368 0.0
H310 H 0.61578 0.61745 0.22838 0.0
H311 H 0.6193 0.60591 0.3376 0.0
O312 O 0.52723 0.66129 0.22893 0.0
H313 H 0.50421 0.5932 0.18976 0.0
H314 H 0.48388 0.65939 0.23177 0.0
H315 H 0.61504 0.53584 0.2469 0.0
H316 H 0.60847 0.68647 0.32134 0.0
H317 H 0.64837 0.54228 0.29638 0.0
H318 H 0.63909 0.68424 0.26432 0.0
O319 O 0.55335 0.58362 0.29398 0.0
H320 H 0.50617 0.67993 0.37907 0.0
H321 H 0.48182 0.61168 0.29536 0.0
H322 H 0.45987 0.62377 0.36132 0.0
H323 H 0.47199 0.65816 0.40359 0.0
H324 H 0.52774 0.6671 0.31312 0.0
H325 H 0.44894 0.65665 0.18628 0.0
H326 H 0.44149 0.62153 0.14219 0.0
O327 O 0.51961 0.59634 0.26819 0.0
C328 C 0.56065 0.60915 0.19057 0.0
C329 C 0.47243 0.605 0.1633 0.0
C330 C 0.46096 0.64262 0.18692 0.0
N331 N 0.49596 0.6264 0.21367 0.0
C332 C 0.49207 0.60708 0.18931 0.0
C333 C 0.48078 0.6441 0.21253 0.0
C334 C 0.45678 0.62291 0.1622 0.0
C335 C 0.59527 0.65299 0.30618 0.0
N336 N 0.59733 0.63391 0.28031 0.0
C337 C 0.61023 0.67137 0.30088 0.0
C338 C 0.62739 0.67012 0.26883 0.0
C339 C 0.62939 0.65059 0.24261 0.0
C340 C 0.6141 0.63255 0.2488 0.0
C341 C 0.63594 0.5746 0.32032 0.0
C342 C 0.59881 0.56753 0.26507 0.0
C343 C 0.61829 0.59057 0.31769 0.0
N344 N 0.60011 0.58697 0.2901 0.0
C345 C 0.61614 0.55119 0.26685 0.0
C346 C 0.63482 0.5548 0.29466 0.0
C347 C 0.53228 0.58073 0.28461 0.0
C348 C 0.50068 0.66495 0.36085 0.0
C349 C 0.48724 0.62662 0.31368 0.0
C350 C 0.47472 0.63341 0.35094 0.0
C351 C 0.48152 0.65271 0.37463 0.0
N352 N 0.50597 0.63875 0.30031 0.0
C353 C 0.51278 0.65766 0.32341 0.0
Co354 Co 0.39323 0.07894 0.53565 0.0
Co355 Co 0.37295 0.02696 0.49754 0.0
O356 O 0.37063 0.05436 0.53452 0.0
C357 C 0.39217 0.06464 0.62923 0.0
O358 O 0.3942 0.04346 0.61543 0.0
C359 C 0.32971 0.04837 0.47045 0.0
O360 O 0.34069 0.06789 0.47177 0.0
O361 O 0.38124 0.04522 0.44418 0.0
O362 O 0.39695 0.07762 0.47019 0.0
H363 H 0.41019 0.97444 0.38704 0.0
H364 H 0.34865 0.08572 0.58042 0.0
O365 O 0.39041 0.08087 0.60144 0.0
H366 H 0.35266 0.1455 0.46533 0.0
H367 H 0.42484 0.15426 0.58808 0.0
H368 H 0.43816 0.087 0.49283 0.0
H369 H 0.38459 0.11861 0.47577 0.0
H370 H 0.39645 0.12318 0.58441 0.0
O371 O 0.33992 0.02989 0.48064 0.0
H372 H 0.40716 0.00892 0.43386 0.0
H373 H 0.34283 0.98663 0.48263 0.0
H374 H 0.46692 0.11777 0.49518 0.0
H375 H 0.31641 0.1124 0.57136 0.0
H376 H 0.46033 0.15172 0.54308 0.0
H377 H 0.31827 0.14249 0.51335 0.0
O378 O 0.4187 0.05672 0.5422 0.0
H379 H 0.32615 0.00799 0.63257 0.0
H380 H 0.39218 0.9854 0.54076 0.0
H381 H 0.3825 0.96294 0.60751 0.0
H382 H 0.34924 0.97418 0.65387 0.0
H383 H 0.33656 0.03009 0.56573 0.0
H384 H 0.34507 0.952 0.43603 0.0
H385 H 0.37899 0.94569 0.38795 0.0
O386 O 0.40601 0.02368 0.51302 0.0
C387 C 0.39137 0.06427 0.43865 0.0
C388 C 0.39536 0.97696 0.40796 0.0
C389 C 0.35879 0.96438 0.43542 0.0
N390 N 0.37493 0.99968 0.46119 0.0
C391 C 0.39358 0.99641 0.43463 0.0
C392 C 0.3576 0.98404 0.46165 0.0
C393 C 0.37783 0.96085 0.40845 0.0
C394 C 0.34968 0.09894 0.55544 0.0
N395 N 0.36851 0.10067 0.5288 0.0
C396 C 0.33133 0.11392 0.55033 0.0
C397 C 0.33237 0.13078 0.51772 0.0
C398 C 0.35166 0.13247 0.49074 0.0
C399 C 0.36966 0.11716 0.49674 0.0
C400 C 0.42785 0.13961 0.56691 0.0
C401 C 0.43506 0.10183 0.51335 0.0
C402 C 0.41185 0.12196 0.5647 0.0
N403 N 0.41548 0.10347 0.53784 0.0
C404 C 0.45146 0.11915 0.51473 0.0
C405 C 0.44776 0.13817 0.54166 0.0
C406 C 0.42166 0.03598 0.53044 0.0
C407 C 0.34064 0.00289 0.61257 0.0
C408 C 0.37773 0.99044 0.56085 0.0
C409 C 0.3723 0.97763 0.59855 0.0
C410 C 0.35362 0.98394 0.62453 0.0
N411 N 0.36487 0.00897 0.54928 0.0
C412 C 0.34657 0.01529 0.57462 0.0
Co413 Co 0.92193 0.89363 0.78141 0.0
Co414 Co 0.97428 0.87239 0.74788 0.0
O415 O 0.94558 0.87013 0.78071 0.0
C416 C 0.93364 0.88924 0.8757 0.0
O417 O 0.95513 0.89012 0.86342 0.0
C418 C 0.95274 0.831 0.71116 0.0
O419 O 0.93409 0.84328 0.70751 0.0
O420 O 0.95826 0.88276 0.69314 0.0
O421 O 0.92556 0.89893 0.71662 0.0
H422 H 0.03203 0.91017 0.64856 0.0
H423 H 0.9122 0.84817 0.82024 0.0
O424 O 0.91787 0.88925 0.84666 0.0
H425 H 0.85632 0.85757 0.6991 0.0
H426 H 0.84639 0.92682 0.82831 0.0
H427 H 0.91682 0.93977 0.742 0.0
H428 H 0.88396 0.88814 0.71621 0.0
H429 H 0.87646 0.89738 0.82539 0.0
O430 O 0.97072 0.83984 0.72776 0.0
H431 H 0.99582 0.90734 0.69013 0.0
H432 H 0.0139 0.84113 0.73549 0.0
H433 H 0.88712 0.96959 0.74369 0.0
H434 H 0.88474 0.81722 0.80449 0.0
H435 H 0.85158 0.96319 0.78708 0.0
H436 H 0.8566 0.82181 0.74344 0.0
O437 O 0.94477 0.91807 0.79324 0.0
H438 H 0.98673 0.82168 0.88026 0.0
H439 H 0.01479 0.88905 0.79845 0.0
H440 H 0.03443 0.87697 0.86701 0.0
H441 H 0.02043 0.84303 0.90835 0.0
H442 H 0.96747 0.83448 0.81176 0.0
H443 H 0.05023 0.84316 0.69408 0.0
H444 H 0.05953 0.87792 0.65038 0.0
O445 O 0.97822 0.90492 0.76691 0.0
C446 C 0.93981 0.89373 0.6863 0.0
C447 C 0.02821 0.89497 0.66759 0.0
C448 C 0.03841 0.85734 0.69309 0.0
N449 N 0.00285 0.87417 0.71548 0.0
C450 C 0.00776 0.89329 0.69129 0.0
C451 C 0.0178 0.85627 0.71639 0.0
C452 C 0.04362 0.87685 0.66859 0.0
C453 C 0.89985 0.85036 0.79391 0.0
N454 N 0.89959 0.86997 0.76935 0.0
C455 C 0.88441 0.83275 0.78503 0.0
C456 C 0.86864 0.83532 0.75072 0.0
C457 C 0.86849 0.85538 0.72582 0.0
C458 C 0.8842 0.87261 0.73561 0.0
C459 C 0.86175 0.92977 0.80912 0.0
C460 C 0.90131 0.93677 0.76056 0.0
C461 C 0.87884 0.91317 0.80736 0.0
N462 N 0.89822 0.91673 0.78298 0.0
C463 C 0.88459 0.95376 0.76158 0.0
C464 C 0.86468 0.95017 0.78598 0.0
C465 C 0.96592 0.92057 0.78431 0.0
C466 C 0.99303 0.83646 0.86248 0.0
C467 C 0.00855 0.87431 0.81634 0.0
C468 C 0.01978 0.86752 0.85508 0.0
C469 C 0.01192 0.84847 0.87825 0.0
N470 N 0.99007 0.86241 0.80103 0.0
C471 C 0.98225 0.84374 0.82359 0.0
Co472 Co 0.60706 0.58316 0.78533 0.0
Co473 Co 0.62759 0.53043 0.81846 0.0
O474 O 0.62947 0.55849 0.78334 0.0
C475 C 0.60542 0.56929 0.69139 0.0
O476 O 0.60429 0.548 0.7048 0.0
C477 C 0.67032 0.55236 0.8474 0.0
O478 O 0.65905 0.57169 0.84634 0.0
O479 O 0.61854 0.54735 0.87317 0.0
O480 O 0.60568 0.58155 0.85089 0.0
H481 H 0.591 0.47498 0.92421 0.0
H482 H 0.65023 0.58972 0.73551 0.0
O483 O 0.60766 0.58542 0.71936 0.0
H484 H 0.65023 0.64943 0.85123 0.0
H485 H 0.57389 0.65866 0.73832 0.0
H486 H 0.56432 0.59162 0.83569 0.0
H487 H 0.61783 0.62274 0.84433 0.0
H488 H 0.6021 0.62741 0.73727 0.0
O489 O 0.66048 0.53379 0.83626 0.0
H490 H 0.59349 0.5104 0.88013 0.0
H491 H 0.65848 0.49053 0.83081 0.0
H492 H 0.53581 0.62257 0.83805 0.0
H493 H 0.68291 0.61618 0.741 0.0
H494 H 0.54051 0.65639 0.78912 0.0
H495 H 0.68308 0.64624 0.79931 0.0
O496 O 0.58115 0.56109 0.78141 0.0
H497 H 0.67542 0.51507 0.683 0.0
H498 H 0.60937 0.48939 0.77164 0.0
H499 H 0.61976 0.46847 0.70336 0.0
H500 H 0.65304 0.48127 0.65858 0.0
H501 H 0.66429 0.53561 0.75133 0.0
H502 H 0.65678 0.45498 0.87465 0.0
H503 H 0.62281 0.44698 0.92163 0.0
O504 O 0.59476 0.52681 0.80223 0.0
C505 C 0.61007 0.56699 0.88098 0.0
C506 C 0.60586 0.47824 0.90376 0.0
C507 C 0.64279 0.46703 0.87599 0.0
N508 N 0.62602 0.50242 0.85267 0.0
C509 C 0.60733 0.49822 0.87863 0.0
C510 C 0.64368 0.4872 0.85131 0.0
C511 C 0.62372 0.46255 0.90233 0.0
C512 C 0.65008 0.60291 0.76067 0.0
N513 N 0.63211 0.60475 0.78943 0.0
C514 C 0.66867 0.61778 0.76375 0.0
C515 C 0.66877 0.63462 0.79651 0.0
C516 C 0.65035 0.63641 0.82568 0.0
C517 C 0.63207 0.62122 0.82166 0.0
C518 C 0.57168 0.64403 0.75987 0.0
C519 C 0.56656 0.60635 0.81449 0.0
C520 C 0.58758 0.62627 0.75937 0.0
N521 N 0.58496 0.6078 0.78667 0.0
C522 C 0.55033 0.62379 0.81589 0.0
C523 C 0.55296 0.64275 0.78839 0.0
C524 C 0.5786 0.5398 0.78921 0.0
C525 C 0.66092 0.50929 0.70229 0.0
C526 C 0.62383 0.4951 0.75226 0.0
C527 C 0.62966 0.48316 0.71368 0.0
C528 C 0.64834 0.49034 0.68858 0.0
N529 N 0.6363 0.51362 0.76555 0.0
C530 C 0.6546 0.5208 0.74109 0.0
Co531 Co 0.42269 0.10771 0.0328 0.0
Co532 Co 0.47466 0.12858 0.06961 0.0
O533 O 0.44693 0.13068 0.03363 0.0
C534 C 0.43635 0.10932 0.93889 0.0
O535 O 0.45765 0.10777 0.95215 0.0
C536 C 0.45281 0.17122 0.09892 0.0
O537 O 0.43347 0.15992 0.09793 0.0
O538 O 0.45698 0.11971 0.12338 0.0
O539 O 0.42453 0.10378 0.09813 0.0
H540 H 0.52869 0.09151 0.1772 0.0
H541 H 0.41493 0.15236 0.98911 0.0
O542 O 0.42025 0.11071 0.96712 0.0
H543 H 0.35604 0.14698 0.10593 0.0
H544 H 0.34753 0.07507 0.98212 0.0
H545 H 0.41561 0.06254 0.07522 0.0
H546 H 0.38333 0.1155 0.09403 0.0
H547 H 0.37818 0.10394 0.9853 0.0
O548 O 0.47135 0.16144 0.08753 0.0
H549 H 0.49376 0.09429 0.13175 0.0
H550 H 0.51463 0.15925 0.0839 0.0
H551 H 0.38528 0.03331 0.07334 0.0
H552 H 0.38785 0.18416 -0.00039 0.0
H553 H 0.35093 0.0395 0.02653 0.0
H554 H 0.35821 0.18162 0.0585 0.0
O555 O 0.44523 0.08262 0.02507 0.0
H556 H 0.49177 0.17649 0.93521 0.0
H557 H 0.51614 0.11025 0.02441 0.0
H558 H 0.53786 0.12067 0.95712 0.0
H559 H 0.52573 0.15404 0.91207 0.0
H560 H 0.47042 0.16534 0.00256 0.0
H561 H 0.54969 0.15727 0.12914 0.0
H562 H 0.55694 0.12316 0.17607 0.0
O563 O 0.47835 0.09568 0.05314 0.0
C564 C 0.43807 0.10937 0.12932 0.0
C565 C 0.52576 0.10642 0.15678 0.0
C566 C 0.53753 0.14335 0.12985 0.0
N567 N 0.50227 0.12682 0.10495 0.0
C568 C 0.50605 0.10806 0.13089 0.0
C569 C 0.51763 0.14439 0.10438 0.0
C570 C 0.54159 0.1242 0.15616 0.0
C571 C 0.40191 0.15103 0.01447 0.0
N572 N 0.40064 0.13207 0.04077 0.0
C573 C 0.38669 0.16913 0.0204 0.0
C574 C 0.37009 0.16771 0.0535 0.0
C575 C 0.36888 0.14829 0.08014 0.0
C576 C 0.3844 0.13054 0.07331 0.0
C577 C 0.36236 0.07223 0.00281 0.0
C578 C 0.4006 0.06546 0.05516 0.0
C579 C 0.37978 0.0885 0.00474 0.0
N580 N 0.3985 0.08508 0.03099 0.0
C581 C 0.38354 0.0488 0.05405 0.0
C582 C 0.36428 0.05227 0.02773 0.0
C583 C 0.46612 0.07994 0.03586 0.0
C584 C 0.49726 0.16195 0.95463 0.0
C585 C 0.51071 0.12475 0.00489 0.0
C586 C 0.52311 0.1306 0.96688 0.0
C587 C 0.5163 0.14933 0.94163 0.0
N588 N 0.4921 0.13726 0.01748 0.0
C589 C 0.48529 0.15561 -0.00714 0.0
Co590 Co 0.89522 0.92128 0.28081 0.0
Co591 Co 0.87408 0.97367 0.31436 0.0
O592 O 0.87183 0.94502 0.28133 0.0
C593 C 0.89101 0.93297 0.18644 0.0
O594 O 0.89208 0.95448 0.19862 0.0
C595 C 0.83259 0.95205 0.35017 0.0
O596 O 0.84487 0.9334 0.35365 0.0
O597 O 0.88424 0.95756 0.36913 0.0
O598 O 0.90044 0.92488 0.34563 0.0
H599 H 0.91171 0.0312 0.41443 0.0
H600 H 0.84978 0.91171 0.2417 0.0
O601 O 0.89091 0.91723 0.21554 0.0
H602 H 0.85877 0.85582 0.36294 0.0
H603 H 0.9282 0.8456 0.23416 0.0
H604 H 0.94127 0.91603 0.32047 0.0
H605 H 0.88949 0.88332 0.34596 0.0
H606 H 0.89888 0.87579 0.23687 0.0
O607 O 0.84147 0.97014 0.33408 0.0
H608 H 0.90892 0.99505 0.3726 0.0
H609 H 0.84288 0.01335 0.32665 0.0
H610 H 0.97098 0.88622 0.319 0.0
H611 H 0.8187 0.8844 0.25731 0.0
H612 H 0.96452 0.85068 0.27561 0.0
H613 H 0.82308 0.85625 0.31843 0.0
O614 O 0.91971 0.94406 0.26917 0.0
H615 H 0.82382 0.98649 0.18147 0.0
H616 H 0.89102 0.01421 0.26422 0.0
H617 H 0.87921 0.034 0.19566 0.0
H618 H 0.84535 0.02018 0.15384 0.0
H619 H 0.83635 0.96708 0.24999 0.0
H620 H 0.84487 0.04961 0.36831 0.0
H621 H 0.87952 0.05877 0.41244 0.0
O622 O 0.90669 0.97753 0.29571 0.0
C623 C 0.89518 0.93909 0.37598 0.0
C624 C 0.89655 0.02744 0.39521 0.0
C625 C 0.85902 0.03776 0.36937 0.0
N626 N 0.87584 0.0022 0.34694 0.0
C627 C 0.8949 0.00703 0.37136 0.0
C628 C 0.85798 0.01718 0.34594 0.0
C629 C 0.87848 0.04289 0.39411 0.0
C630 C 0.85189 0.89936 0.26804 0.0
N631 N 0.87146 0.89902 0.29271 0.0
C632 C 0.8342 0.884 0.27685 0.0
C633 C 0.83666 0.86823 0.31119 0.0
C634 C 0.85668 0.86799 0.3362 0.0
C635 C 0.87399 0.88363 0.32648 0.0
C636 C 0.93118 0.86096 0.25335 0.0
C637 C 0.93825 0.90052 0.30191 0.0
C638 C 0.91464 0.87811 0.25499 0.0
N639 N 0.91823 0.8975 0.27937 0.0
C640 C 0.95517 0.88374 0.30102 0.0
C641 C 0.95155 0.86383 0.27661 0.0
C642 C 0.9223 0.96519 0.27829 0.0
C643 C 0.83856 0.99271 0.19946 0.0
C644 C 0.87631 0.00805 0.24613 0.0
C645 C 0.86968 0.01936 0.20738 0.0
C646 C 0.85067 0.0116 0.18395 0.0
N647 N 0.86431 0.98958 0.26118 0.0
C648 C 0.84568 0.98184 0.23836 0.0
Co649 Co 0.08408 0.39241 0.53683 0.0
Co650 Co 0.03299 0.36988 0.57444 0.0
O651 O 0.06066 0.36864 0.53807 0.0
C652 C 0.07036 0.38931 0.44319 0.0
O653 O 0.04905 0.38849 0.45665 0.0
C654 C 0.05589 0.32787 0.60467 0.0
O655 O 0.07465 0.34009 0.60689 0.0
O656 O 0.05052 0.37941 0.6281 0.0
O657 O 0.08223 0.3963 0.60196 0.0
H658 H 0.97832 0.40477 0.68391 0.0
H659 H 0.09307 0.34794 0.49327 0.0
O660 O 0.08655 0.38959 0.47125 0.0
H661 H 0.15219 0.35542 0.60901 0.0
H662 H 0.15816 0.42743 0.48596 0.0
H663 H 0.0896 0.4379 0.57903 0.0
H664 H 0.12387 0.38599 0.59752 0.0
H665 H 0.12854 0.39753 0.48944 0.0
O666 O 0.03737 0.33702 0.59141 0.0
H667 H 0.01308 0.40331 0.63763 0.0
H668 H 0.99401 0.33797 0.58874 0.0
H669 H 0.1189 0.46816 0.57684 0.0
H670 H 0.12118 0.31703 0.50339 0.0
H671 H 0.15348 0.46301 0.53004 0.0
H672 H 0.15097 0.32064 0.56171 0.0
O673 O 0.06066 0.41676 0.52929 0.0
H674 H 0.01681 0.32179 0.43967 0.0
H675 H 0.99089 0.3871 0.53012 0.0
H676 H 0.96924 0.37624 0.46305 0.0
H677 H 0.98216 0.34333 0.41736 0.0
H678 H 0.03807 0.33337 0.50681 0.0
H679 H 0.95913 0.33862 0.63478 0.0
H680 H 0.95107 0.37225 0.68267 0.0
O681 O 0.02824 0.40271 0.55868 0.0
C682 C 0.06903 0.39053 0.63356 0.0
C683 C 0.98161 0.39006 0.66307 0.0
C684 C 0.97085 0.35292 0.63554 0.0
N685 N 0.00546 0.37066 0.61025 0.0
C686 C 0.00122 0.38916 0.6367 0.0
C687 C 0.99065 0.35262 0.60961 0.0
C688 C 0.96634 0.37179 0.66239 0.0
C689 C 0.10613 0.34972 0.51842 0.0
N690 N 0.10691 0.36879 0.54458 0.0
C691 C 0.12194 0.33213 0.52412 0.0
C692 C 0.13862 0.33415 0.55689 0.0
C693 C 0.13931 0.35366 0.58346 0.0
C694 C 0.1232 0.37089 0.57686 0.0
C695 C 0.14321 0.42984 0.5066 0.0
C696 C 0.1047 0.43545 0.55889 0.0
C697 C 0.12637 0.41297 0.50868 0.0
N698 N 0.1075 0.41584 0.53486 0.0
C699 C 0.12119 0.45268 0.55765 0.0
C700 C 0.14057 0.4498 0.53134 0.0
C701 C 0.03982 0.41884 0.5411 0.0
C702 C 0.01097 0.33612 0.45937 0.0
C703 C 0.99666 0.37281 0.51033 0.0
C704 C 0.9843 0.36671 0.47244 0.0
C705 C 0.99155 0.34823 0.44684 0.0
N706 N 0.01566 0.36081 0.52245 0.0
C707 C 0.02289 0.3427 0.4975 0.0
Co708 Co 0.60651 0.92385 0.53219 0.0
Co709 Co 0.62833 0.97564 0.49693 0.0
O710 O 0.63002 0.94749 0.53153 0.0
C711 C 0.60959 0.9366 0.62634 0.0
O712 O 0.60839 0.958 0.6136 0.0
C713 C 0.67004 0.95329 0.46409 0.0
O714 O 0.65764 0.93467 0.46122 0.0
O715 O 0.6187 0.95878 0.44256 0.0
O716 O 0.60198 0.92657 0.46709 0.0
H717 H 0.59225 0.03185 0.39231 0.0
H718 H 0.65147 0.91465 0.57356 0.0
O719 O 0.61013 0.92063 0.59769 0.0
H720 H 0.64342 0.85715 0.45469 0.0
H721 H 0.57262 0.84892 0.58102 0.0
H722 H 0.5608 0.91826 0.49113 0.0
H723 H 0.6127 0.88499 0.46911 0.0
H724 H 0.60215 0.87894 0.578 0.0
O725 O 0.66114 0.97168 0.47881 0.0
H726 H 0.59432 0.99631 0.43608 0.0
H727 H 0.65992 0.01499 0.48399 0.0
H728 H 0.53089 0.8886 0.49288 0.0
H729 H 0.68253 0.88701 0.56052 0.0
H730 H 0.53672 0.85361 0.53808 0.0
H731 H 0.67864 0.85805 0.50061 0.0
O732 O 0.58203 0.94688 0.54168 0.0
H733 H 0.67709 0.9902 0.63136 0.0
H734 H 0.61107 0.01696 0.54418 0.0
H735 H 0.62218 0.0377 0.61223 0.0
H736 H 0.65544 0.02436 0.65626 0.0
H737 H 0.66525 0.96985 0.56329 0.0
H738 H 0.65866 0.05064 0.44041 0.0
H739 H 0.62458 0.0593 0.39431 0.0
O740 O 0.59553 0.97989 0.51387 0.0
C741 C 0.60766 0.94029 0.43624 0.0
C742 C 0.60715 0.0283 0.41237 0.0
C743 C 0.64444 0.03884 0.43933 0.0
N744 N 0.62713 0.00369 0.46282 0.0
C745 C 0.60839 0.00824 0.43733 0.0
C746 C 0.64508 0.01861 0.46385 0.0
C747 C 0.62531 0.04369 0.41348 0.0
C748 C 0.64956 0.90194 0.54774 0.0
N749 N 0.63026 0.90135 0.5223 0.0
C750 C 0.66724 0.8864 0.54038 0.0
C751 C 0.66506 0.87018 0.50672 0.0
C752 C 0.64531 0.86967 0.48092 0.0
C753 C 0.62799 0.8855 0.48919 0.0
C754 C 0.56992 0.86404 0.56104 0.0
C755 C 0.56356 0.90298 0.51048 0.0
C756 C 0.58658 0.88109 0.55921 0.0
N757 N 0.58334 0.90017 0.53384 0.0
C758 C 0.54652 0.88629 0.51152 0.0
C759 C 0.54979 0.86668 0.53694 0.0
C760 C 0.57965 0.96785 0.53121 0.0
C761 C 0.6626 0.99622 0.61239 0.0
C762 C 0.62551 0.01101 0.56325 0.0
C763 C 0.63176 0.02285 0.60169 0.0
C764 C 0.65043 0.01537 0.62637 0.0
N765 N 0.63758 0.99228 0.54969 0.0
C766 C 0.65587 0.98481 0.57374 0.0
Co767 Co 0.08328 0.09957 0.77942 0.0
Co768 Co 0.03144 0.12494 0.75569 0.0
O769 O 0.06179 0.12501 0.78263 0.0
C770 C 0.07769 0.10743 0.87482 0.0
O771 O 0.05576 0.10955 0.86695 0.0
C772 C 0.05404 0.16489 0.71564 0.0
O773 O 0.07142 0.15131 0.708 0.0
O774 O 0.04385 0.11376 0.69806 0.0
O775 O 0.07536 0.09392 0.71632 0.0
H776 H 0.96636 0.09202 0.66766 0.0
H777 H 0.0991 0.14443 0.81312 0.0
O778 O 0.09157 0.1042 0.84293 0.0
H779 H 0.1463 0.12879 0.68072 0.0
H780 H 0.15798 0.06028 0.81065 0.0
H781 H 0.08201 0.05276 0.74166 0.0
H782 H 0.11741 0.10096 0.70578 0.0
H783 H 0.13061 0.09226 0.81288 0.0
O784 O 0.03634 0.15724 0.73539 0.0
H785 H 0.00463 0.09201 0.70184 0.0
H786 H 0.99374 0.15899 0.75172 0.0
H787 H 0.1089 0.02043 0.73831 0.0
H788 H 0.12794 0.17267 0.78944 0.0
H789 H 0.14721 0.02408 0.77298 0.0
H790 H 0.15172 0.16494 0.72269 0.0
O791 O 0.05935 0.07746 0.79774 0.0
H792 H 0.02935 0.17574 0.89033 0.0
H793 H 0.99273 0.11077 0.814 0.0
H794 H 0.97767 0.12374 0.88634 0.0
H795 H 0.996 0.15646 0.92497 0.0
H796 H 0.044 0.16206 0.81813 0.0
H797 H 0.95543 0.15982 0.71773 0.0
H798 H 0.94147 0.12611 0.67553 0.0
O799 O 0.02611 0.09258 0.77485 0.0
C800 C 0.06048 0.10063 0.68846 0.0
C801 C 0.97222 0.10678 0.6861 0.0
C802 C 0.96609 0.14485 0.71415 0.0
N803 N 0.00132 0.1254 0.72906 0.0
C804 C 0.99384 0.10685 0.70563 0.0
C805 C 0.98782 0.1443 0.73324 0.0
C806 C 0.95827 0.12593 0.69049 0.0
C807 C 0.10956 0.14086 0.78433 0.0
N808 N 0.10668 0.12103 0.76103 0.0
C809 C 0.12579 0.15694 0.77096 0.0
C810 C 0.1391 0.15261 0.73346 0.0
C811 C 0.13606 0.13234 0.70988 0.0
C812 C 0.11965 0.11667 0.72419 0.0
C813 C 0.14138 0.05851 0.79526 0.0
C814 C 0.09872 0.05456 0.75644 0.0
C815 C 0.12581 0.07655 0.79645 0.0
N816 N 0.10485 0.07448 0.77689 0.0
C817 C 0.11385 0.03615 0.75461 0.0
C818 C 0.13532 0.03821 0.77413 0.0
C819 C 0.03786 0.07629 0.79135 0.0
C820 C 0.02118 0.1615 0.87377 0.0
C821 C 1.00084 0.12498 0.83067 0.0
C822 C 0.9922 0.13228 0.87157 0.0
C823 C 0.00249 0.15066 0.89321 0.0
N824 N 0.01917 0.13572 0.8118 0.0
C825 C 0.02933 0.15375 0.83279 0.0
Co826 Co 0.89262 0.58535 0.03644 0.0
Co827 Co 0.87315 0.53225 0.00284 0.0
O828 O 0.87069 0.56016 0.03845 0.0
C829 C 0.89554 0.5691 0.12882 0.0
O830 O 0.89322 0.5482 0.11368 0.0
C831 C 0.83036 0.55406 0.97289 0.0
O832 O 0.84089 0.57372 0.97699 0.0
O833 O 0.88332 0.54941 0.94914 0.0
O834 O 0.8918 0.58517 0.97072 0.0
H835 H 0.91183 0.47726 0.89893 0.0
H836 H 0.85097 0.58961 0.09166 0.0
O837 O 0.89439 0.58606 0.10255 0.0
H838 H 0.84625 0.65213 0.98235 0.0
H839 H 0.92589 0.66043 0.08625 0.0
H840 H 0.93344 0.5959 0.9818 0.0
H841 H 0.87932 0.62608 0.98285 0.0
H842 H 0.8983 0.6286 0.08774 0.0
O843 O 0.84061 0.53554 0.98271 0.0
H844 H 0.9085 0.51244 0.9436 0.0
H845 H 0.84249 0.49238 0.98726 0.0
H846 H 0.96131 0.62748 0.9789 0.0
H847 H 0.81765 0.61538 0.09261 0.0
H848 H 0.95762 0.66004 0.0314 0.0
H849 H 0.81512 0.64685 0.03755 0.0
O850 O 0.91912 0.56386 0.03575 0.0
H851 H 0.82278 0.51621 0.13446 0.0
H852 H 0.89045 0.49103 0.05003 0.0
H853 H 0.87876 0.46977 0.11707 0.0
H854 H 0.84467 0.48232 0.15973 0.0
H855 H 0.83519 0.53708 0.06742 0.0
H856 H 0.84502 0.45706 0.94276 0.0
H857 H 0.87993 0.44928 0.89831 0.0
O858 O 0.90555 0.52869 0.02135 0.0
C859 C 0.88942 0.56988 0.94105 0.0
C860 C 0.89656 0.48042 0.91825 0.0
C861 C 0.85905 0.46911 0.9428 0.0
N862 N 0.87538 0.50439 0.96821 0.0
C863 C 0.8946 0.50029 0.9437 0.0
C864 C 0.85769 0.48916 0.96785 0.0
C865 C 0.87864 0.46475 0.91789 0.0
C866 C 0.85006 0.6034 0.06788 0.0
N867 N 0.86708 0.60639 0.03735 0.0
C868 C 0.83113 0.61788 0.06846 0.0
C869 C 0.82971 0.63552 0.03751 0.0
C870 C 0.84716 0.63848 0.00651 0.0
C871 C 0.86582 0.62365 0.00689 0.0
C872 C 0.92765 0.64636 0.06314 0.0
C873 C 0.93164 0.61009 0.00456 0.0
C874 C 0.91211 0.62827 0.06388 0.0
N875 N 0.91417 0.6105 0.03466 0.0
C876 C 0.94751 0.62788 0.00285 0.0
C877 C 0.94545 0.64614 0.03235 0.0
C878 C 0.92179 0.54235 0.03095 0.0
C879 C 0.83762 0.51053 0.11608 0.0
C880 C 0.87562 0.49661 0.06848 0.0
C881 C 0.86906 0.48449 0.10636 0.0
C882 C 0.84993 0.49154 0.13027 0.0
N883 N 0.86342 0.51519 0.05472 0.0
C884 C 0.84467 0.52223 0.07801 0.0
Co885 Co 0.42198 0.39438 0.29176 0.0
Co886 Co 0.47406 0.37394 0.25467 0.0
O887 O 0.44625 0.3715 0.29038 0.0
C888 C 0.43566 0.39207 0.38551 0.0
O889 O 0.45692 0.3937 0.37203 0.0
C890 C 0.45234 0.33145 0.22398 0.0
O891 O 0.43298 0.34269 0.22507 0.0
O892 O 0.45653 0.38324 0.20106 0.0
O893 O 0.42391 0.39873 0.22648 0.0
H894 H 0.52839 0.41191 0.14852 0.0
H895 H 0.41425 0.34942 0.33437 0.0
O896 O 0.41949 0.39095 0.35742 0.0
H897 H 0.35554 0.3553 0.21754 0.0
H898 H 0.34665 0.42635 0.34304 0.0
H899 H 0.41487 0.43982 0.25053 0.0
H900 H 0.38272 0.38682 0.23029 0.0
H901 H 0.37739 0.39765 0.33924 0.0
O902 O 0.47082 0.34122 0.2358 0.0
H903 H 0.49332 0.40872 0.19357 0.0
H904 H 0.5141 0.34348 0.23986 0.0
H905 H 0.38446 0.4689 0.25304 0.0
H906 H 0.38728 0.31757 0.323 0.0
H907 H 0.35003 0.46223 0.29955 0.0
H908 H 0.35772 0.32036 0.2641 0.0
O909 O 0.44446 0.41955 0.30003 0.0
H910 H 0.49081 0.32503 0.38776 0.0
H911 H 0.51538 0.39204 0.30075 0.0
H912 H 0.53691 0.38116 0.3679 0.0
H913 H 0.52467 0.3474 0.41185 0.0
H914 H 0.46966 0.33664 0.32057 0.0
H915 H 0.5493 0.34587 0.19499 0.0
H916 H 0.55667 0.38033 0.14905 0.0
O917 O 0.47768 0.40672 0.272 0.0
C918 C 0.4376 0.39353 0.19523 0.0
C919 C 0.52541 0.39684 0.1685 0.0
C920 C 0.53713 0.35976 0.19454 0.0
N921 N 0.50177 0.37603 0.21958 0.0
C922 C 0.50562 0.39497 0.19418 0.0
C923 C 0.51715 0.35849 0.2198 0.0
C924 C 0.54126 0.37911 0.16879 0.0
C925 C 0.40127 0.35086 0.30902 0.0
N926 N 0.39999 0.36999 0.28318 0.0
C927 C 0.38611 0.33273 0.30259 0.0
C928 C 0.36956 0.3343 0.26949 0.0
C929 C 0.36833 0.35389 0.24333 0.0
C930 C 0.3838 0.37166 0.25064 0.0
C931 C 0.36151 0.4294 0.32248 0.0
C932 C 0.39983 0.4367 0.27045 0.0
C933 C 0.37898 0.41322 0.3202 0.0
N934 N 0.39773 0.4169 0.29409 0.0
C935 C 0.38272 0.45327 0.27192 0.0
C936 C 0.36342 0.44953 0.29808 0.0
C937 C 0.46536 0.42235 0.28936 0.0
C938 C 0.49635 0.33974 0.36882 0.0
C939 C 0.50991 0.37737 0.31978 0.0
C940 C 0.5222 0.37126 0.35772 0.0
C941 C 0.51533 0.35231 0.38235 0.0
N942 N 0.49135 0.3649 0.30667 0.0
C943 C 0.48449 0.34634 0.33068 0.0
H944 H 0.3074 0.01302 0.43053 0.0
H945 H 0.29817 0.0824 0.47548 0.0
H946 H 0.26877 0.01277 0.40093 0.0
H947 H 0.25897 0.08182 0.44879 0.0
H948 H 0.19748 0.08339 0.35851 0.0
H949 H 0.23643 0.08331 0.38653 0.0
H950 H 0.23039 0.0112 0.41587 0.0
H951 H 0.19202 0.01117 0.3849 0.0
C952 C 0.2969 0.0281 0.43473 0.0
C953 C 0.30578 0.04775 0.45513 0.0
C954 C 0.27464 0.02796 0.41799 0.0
C955 C 0.2605 0.0473 0.4222 0.0
C956 C 0.26936 0.06677 0.44374 0.0
C957 C 0.29181 0.06708 0.45949 0.0
C958 C 0.20459 0.06753 0.37082 0.0
C959 C 0.19179 0.04728 0.36944 0.0
C960 C 0.22689 0.06748 0.38732 0.0
C961 C 0.23676 0.04726 0.4039 0.0
C962 C 0.22373 0.02703 0.40268 0.0
C963 C 0.20162 0.027 0.38516 0.0
H964 H 0.98717 0.7996 0.71836 0.0
H965 H 0.9191 0.80853 0.66593 0.0
H966 H 0.98771 0.76055 0.69019 0.0
H967 H 0.91992 0.76982 0.63656 0.0
H968 H 0.91898 0.69212 0.63218 0.0
H969 H 0.9187 0.7311 0.65995 0.0
H970 H 0.98962 0.73864 0.62289 0.0
H971 H 0.99008 0.69926 0.59632 0.0
C972 C 0.97236 0.79327 0.70067 0.0
C973 C 0.95307 0.80718 0.69453 0.0
C974 C 0.97273 0.77091 0.68419 0.0
C975 C 0.95387 0.76197 0.66099 0.0
C976 C 0.93462 0.77596 0.65483 0.0
C977 C 0.93419 0.79824 0.67152 0.0
C978 C 0.93452 0.70208 0.6298 0.0
C979 C 0.95457 0.69253 0.61207 0.0
C980 C 0.93433 0.72453 0.64555 0.0
C981 C 0.95414 0.7381 0.64371 0.0
C982 C 0.97414 0.72861 0.62548 0.0
C983 C 0.97437 0.70607 0.60992 0.0
H984 H 0.30848 0.41754 0.89661 0.0
H985 H 0.30022 0.48783 0.85609 0.0
H986 H 0.26983 0.4175 0.92652 0.0
H987 H 0.26133 0.48759 0.88495 0.0
H988 H 0.20181 0.48718 0.98239 0.0
H989 H 0.24089 0.4867 0.95453 0.0
H990 H 0.2305 0.4184 0.90385 0.0
H991 H 0.19165 0.41864 0.93272 0.0
C992 C 0.29836 0.43294 0.89375 0.0
C993 C 0.30748 0.4527 0.87403 0.0
C994 C 0.27614 0.43288 0.91074 0.0
C995 C 0.26245 0.45256 0.9083 0.0
C996 C 0.27151 0.47225 0.88809 0.0
C997 C 0.29376 0.47233 0.87121 0.0
C998 C 0.20791 0.472 0.96555 0.0
C999 C 0.19358 0.45296 0.95975 0.0
C1000 C 0.23027 0.47179 0.94924 0.0
C1001 C 0.23883 0.45256 0.92667 0.0
C1002 C 0.22458 0.43341 0.92148 0.0
C1003 C 0.20224 0.43359 0.93788 0.0
H1004 H 0.58272 0.80905 0.14148 0.0
H1005 H 0.51394 0.80096 0.09201 0.0
H1006 H 0.58175 0.77031 0.17047 0.0
H1007 H 0.51323 0.76187 0.11977 0.0
H1008 H 0.51098 0.70144 0.21588 0.0
H1009 H 0.51172 0.74047 0.18763 0.0
H1010 H 0.582 0.73145 0.14741 0.0
H1011 H 0.58148 0.69283 0.17689 0.0
C1012 C 0.56746 0.79893 0.13641 0.0
C1013 C 0.5484 0.80812 0.11447 0.0
C1014 C 0.56694 0.77664 0.15286 0.0
C1015 C 0.54741 0.7629 0.1475 0.0
C1016 C 0.52842 0.77205 0.12514 0.0
C1017 C 0.52889 0.79442 0.10891 0.0
C1018 C 0.5266 0.70784 0.20113 0.0
C1019 C 0.54618 0.69403 0.19872 0.0
C1020 C 0.52698 0.73017 0.18463 0.0
C1021 C 0.54692 0.73915 0.16515 0.0
C1022 C 0.56646 0.72527 0.16279 0.0
C1023 C 0.56612 0.70303 0.1795 0.0
H1024 H 0.70057 0.5877 0.84898 0.0
H1025 H 0.69364 0.51643 0.88294 0.0
H1026 H 0.73932 0.58773 0.87802 0.0
H1027 H 0.7319 0.51665 0.91449 0.0
H1028 H 0.80879 0.51825 0.93273 0.0
H1029 H 0.77074 0.51767 0.90028 0.0
H1030 H 0.76033 0.58746 0.94313 0.0
H1031 H 0.79889 0.58831 0.97312 0.0
C1032 C 0.70733 0.57207 0.86298 0.0
C1033 C 0.69411 0.55207 0.86369 0.0
C1034 C 0.72951 0.5721 0.88005 0.0
C1035 C 0.73887 0.55224 0.89913 0.0
C1036 C 0.72556 0.53219 0.8995 0.0
C1037 C 0.70353 0.53206 0.8816 0.0
C1038 C 0.79831 0.53344 0.93521 0.0
C1039 C 0.80682 0.55335 0.95531 0.0
C1040 C 0.77639 0.5331 0.9168 0.0
C1041 C 0.76228 0.55254 0.91882 0.0
C1042 C 0.77077 0.57231 0.93984 0.0
C1043 C 0.79285 0.57277 0.95744 0.0
H1044 H 0.48831 0.30898 0.18663 0.0
H1045 H 0.41741 0.30072 0.22248 0.0
H1046 H 0.48855 0.27085 0.15446 0.0
H1047 H 0.41788 0.26202 0.19297 0.0
H1048 H 0.41786 0.20186 0.09934 0.0
H1049 H 0.41809 0.24064 0.12853 0.0
H1050 H 0.48857 0.23215 0.16832 0.0
H1051 H 0.48857 0.19395 0.13646 0.0
C1052 C 0.47286 0.29881 0.18824 0.0
C1053 C 0.45282 0.30781 0.20693 0.0
C1054 C 0.473 0.27685 0.16999 0.0
C1055 C 0.45322 0.26315 0.17086 0.0
C1056 C 0.43331 0.27212 0.19055 0.0
C1057 C 0.43306 0.29427 0.20791 0.0
C1058 C 0.43342 0.20841 0.1141 0.0
C1059 C 0.4532 0.19494 0.11556 0.0
C1060 C 0.43353 0.2306 0.13127 0.0
C1061 C 0.45331 0.23968 0.15127 0.0
C1062 C 0.47312 0.22607 0.15255 0.0
C1063 C 0.47312 0.20406 0.13448 0.0
H1064 H 0.80964 0.91766 0.39222 0.0
H1065 H 0.80146 0.98684 0.345 0.0
H1066 H 0.77081 0.91818 0.42098 0.0
H1067 H 0.7623 0.98712 0.37263 0.0
H1068 H 0.70131 0.98809 0.46754 0.0
H1069 H 0.74057 0.98777 0.44046 0.0
H1070 H 0.73201 0.91793 0.39694 0.0
H1071 H 0.69309 0.91803 0.42516 0.0
C1072 C 0.7995 0.93294 0.38766 0.0
C1073 C 0.80868 0.95222 0.36632 0.0
C1074 C 0.77715 0.93319 0.40397 0.0
C1075 C 0.76336 0.95268 0.39914 0.0
C1076 C 0.77253 0.97193 0.37755 0.0
C1077 C 0.79494 0.97172 0.3614 0.0
C1078 C 0.70785 0.97264 0.45236 0.0
C1079 C 0.69405 0.95308 0.44857 0.0
C1080 C 0.73032 0.97251 0.43652 0.0
C1081 C 0.7395 0.95284 0.41639 0.0
C1082 C 0.72567 0.93328 0.41281 0.0
C1083 C 0.70326 0.93337 0.4288 0.0
H1084 H 0.09174 0.3034 0.63813 0.0
H1085 H 0.02021 0.29767 0.60473 0.0
H1086 H 0.09144 0.26426 0.66551 0.0
H1087 H 0.02007 0.25835 0.63108 0.0
H1088 H 0.02147 0.19791 0.72665 0.0
H1089 H 0.02225 0.2371 0.69958 0.0
H1090 H 0.08857 0.22517 0.641 0.0
H1091 H 0.08805 0.18616 0.66903 0.0
C1092 C 0.07598 0.29375 0.63631 0.0
C1093 C 0.05598 0.30372 0.61938 0.0
C1094 C 0.07584 0.27124 0.65182 0.0
C1095 C 0.05571 0.25814 0.65068 0.0
C1096 C 0.03578 0.26805 0.63317 0.0
C1097 C 0.03591 0.29056 0.61774 0.0
C1098 C 0.03625 0.20366 0.70812 0.0
C1099 C 0.05469 0.18887 0.7 0.0
C1100 C 0.03663 0.2261 0.6923 0.0
C1101 C 0.05543 0.2343 0.6679 0.0
C1102 C 0.07394 0.21953 0.66009 0.0
C1103 C 0.07358 0.1971 0.67599 0.0
H1104 H 0.04107 0.05405 0.24184 0.0
H1105 H 0.0668 0.9894 0.28979 0.0
H1106 H 0.00304 0.03754 0.2354 0.0
H1107 H 0.02872 0.97314 0.28418 0.0
H1108 H 0.93572 0.00922 0.29503 0.0
H1109 H 0.97377 0.02541 0.28756 0.0
H1110 H 0.99835 0.96144 0.23434 0.0
H1111 H 0.96038 0.945 0.24261 0.0
C1112 C 0.03872 0.03627 0.25059 0.0
C1113 C 0.05705 0.02313 0.26665 0.0
C1114 C 0.01685 0.02685 0.24717 0.0
C1115 C 0.01277 0.00408 0.25964 0.0
C1116 C 0.03127 0.99068 0.27389 0.0
C1117 C 0.05314 1.00007 0.27733 0.0
C1118 C 0.94914 0.99862 0.28133 0.0
C1119 C 0.94494 0.97572 0.26977 0.0
C1120 C 0.97098 0.00798 0.27677 0.0
C1121 C 0.98916 0.9947 0.26051 0.0
C1122 C 0.9848 0.97204 0.24757 0.0
C1123 C 0.96297 0.96266 0.25212 0.0
H1124 H 0.01344 0.5637 0.55969 0.0
H1125 H 0.94791 0.53615 0.52066 0.0
H1126 H 0.03005 0.52573 0.55504 0.0
H1127 H 0.96474 0.49825 0.51501 0.0
H1128 H 0.05821 0.45814 0.50656 0.0
H1129 H 0.04089 0.49592 0.50372 0.0
H1130 H 0.9794 0.46894 0.56328 0.0
H1131 H 0.99639 0.43111 0.56516 0.0
C1132 C 0.00259 0.54961 0.54971 0.0
C1133 C 0.97927 0.55305 0.54073 0.0
C1134 C 0.01219 0.52781 0.54676 0.0
C1135 C 0.99875 0.50889 0.53465 0.0
C1136 C 0.97552 0.51238 0.52502 0.0
C1137 C 0.96589 0.53417 0.52806 0.0
C1138 C 0.0409 0.46018 0.51864 0.0
C1139 C 0.02875 0.44151 0.53619 0.0
C1140 C 0.03103 0.48191 0.51731 0.0
C1141 C 0.00879 0.48553 0.53351 0.0
C1142 C 0.99645 0.46675 0.55003 0.0
C1143 C 0.00628 0.44503 0.55131 0.0
H1144 H 0.43395 0.51308 0.81244 0.0
H1145 H 0.46018 0.45103 0.75341 0.0
H1146 H 0.47172 0.53024 0.80755 0.0
H1147 H 0.4978 0.46846 0.74766 0.0
H1148 H 0.56578 0.49544 0.8034 0.0
H1149 H 0.52771 0.47918 0.79894 0.0
H1150 H 0.50098 0.54449 0.75741 0.0
H1151 H 0.5391 0.56103 0.76276 0.0
C1152 C 0.44766 0.50318 0.79786 0.0
C1153 C 0.444 0.48057 0.78368 0.0
C1154 C 0.46932 0.5131 0.79482 0.0
C1155 C 0.48784 0.50068 0.77748 0.0
C1156 C 0.484 0.47836 0.76189 0.0
C1157 C 0.46236 0.46842 0.76497 0.0
C1158 C 0.55187 0.50637 0.79301 0.0
C1159 C 0.55558 0.52961 0.78362 0.0
C1160 C 0.53 0.49697 0.79017 0.0
C1161 C 0.51126 0.51052 0.77781 0.0
C1162 C 0.515 0.53365 0.76755 0.0
C1163 C 0.5369 0.54309 0.7704 0.0
H1164 H 0.49102 0.93518 0.04903 0.0
H1165 H 0.55526 0.96163 -0.0 0.0
H1166 H 0.47463 0.97326 0.04521 0.0
H1167 H 0.53862 0.99966 -0.00454 0.0
H1168 H 0.50991 0.0667 0.05475 0.0
H1169 H 0.52625 0.02868 0.04845 0.0
H1170 H 0.46268 0.00345 -0.00531 0.0
H1171 H 0.44608 0.04141 0.0017 0.0
C1172 C 0.50159 0.94902 0.03686 0.0
C1173 C 0.52454 0.94529 0.0251 0.0
C1174 C 0.49212 0.97087 0.03444 0.0
C1175 C 0.50534 0.98953 0.02022 0.0
C1176 C 0.52807 0.9857 0.00716 0.0
C1177 C 0.53756 0.96384 0.00952 0.0
C1178 C 0.49941 0.05313 0.04126 0.0
C1179 C 0.4766 0.05716 0.02899 0.0
C1180 C 0.50886 0.03132 0.03739 0.0
C1181 C 0.49575 0.01301 0.02117 0.0
C1182 C 0.47313 0.01713 0.00786 0.0
C1183 C 0.46367 0.03895 0.01168 0.0
H1184 H 0.03972 0.45504 0.07524 0.0
H1185 H 0.06707 0.5154 0.0117 0.0
H1186 H 0.00233 0.4729 0.07867 0.0
H1187 H 0.02941 0.53299 0.01413 0.0
H1188 H 0.96127 0.56471 0.05429 0.0
H1189 H 0.99952 0.54861 0.06117 0.0
H1190 H 0.97314 0.48214 0.02556 0.0
H1191 H 0.93501 0.49796 0.01972 0.0
C1192 C 0.03783 0.47217 0.06218 0.0
C1193 C 0.05642 0.48368 0.04282 0.0
C1194 C 0.01631 0.48236 0.06392 0.0
C1195 C 0.01279 0.50426 0.04616 0.0
C1196 C 0.03156 0.51616 0.0284 0.0
C1197 C 0.05315 0.50601 0.02683 0.0
C1198 C 0.9636 0.54662 0.0482 0.0
C1199 C 0.945 0.53265 0.03646 0.0
C1200 C 0.98556 0.53743 0.05193 0.0
C1201 C 0.9894 0.51408 0.04403 0.0
C1202 C 0.97076 0.50012 0.03267 0.0
C1203 C 0.94885 0.50926 0.02902 0.0
H1204 H 0.44497 0.461 0.32221 0.0
H1205 H 0.50914 0.43578 0.27058 0.0
H1206 H 0.46113 0.49927 0.32702 0.0
H1207 H 0.52503 0.47408 0.27464 0.0
H1208 H 0.48839 0.56697 0.2679 0.0
H1209 H 0.47259 0.52872 0.27444 0.0
H1210 H 0.53707 0.50427 0.32508 0.0
H1211 H 0.55313 0.54246 0.31778 0.0
C1212 C 0.46255 0.46354 0.31216 0.0
C1213 C 0.47569 0.44526 0.29578 0.0
C1214 C 0.47176 0.48553 0.31468 0.0
C1215 C 0.49432 0.48977 0.30098 0.0
C1216 C 0.50767 0.47138 0.28593 0.0
C1217 C 0.49848 0.4494 0.28336 0.0
C1218 C 0.4992 0.55352 0.28079 0.0
C1219 C 0.52211 0.55784 0.29203 0.0
C1220 C 0.49006 0.53158 0.2848 0.0
C1221 C 0.50358 0.51341 0.30015 0.0
C1222 C 0.5263 0.51783 0.31256 0.0
C1223 C 0.53546 0.53978 0.30858 0.0
H1224 H 0.46038 0.05657 0.56258 0.0
H1225 H 0.43522 0.99232 0.51106 0.0
H1226 H 0.49857 0.04037 0.56812 0.0
H1227 H 0.47344 0.97636 0.51598 0.0
H1228 H 0.56683 0.01187 0.51277 0.0
H1229 H 0.52869 0.0282 0.51699 0.0
H1230 H 0.50271 0.96449 0.56875 0.0
H1231 H 0.54074 0.94794 0.56389 0.0
C1232 C 0.46291 0.03897 0.55263 0.0
C1233 C 0.44465 0.02579 0.53626 0.0
C1234 C 0.48487 0.02974 0.55559 0.0
C1235 C 0.48908 0.0071 0.5424 0.0
C1236 C 0.47074 0.99377 0.52696 0.0
C1237 C 0.44881 0.003 0.52389 0.0
C1238 C 0.55306 0.00136 0.52545 0.0
C1239 C 0.55691 0.97851 0.53771 0.0
C1240 C 0.53118 0.01079 0.52808 0.0
C1241 C 0.51262 0.99761 0.54297 0.0
C1242 C 0.51658 0.975 0.5565 0.0
C1243 C 0.53845 0.96556 0.55395 0.0
H1244 H 0.99304 0.065 0.77647 0.0
H1245 H 0.05659 0.03721 0.8256 0.0
H1246 H 0.9757 0.02731 0.78093 0.0
H1247 H 0.039 0.99966 0.83096 0.0
H1248 H 0.94587 0.95889 0.81949 0.0
H1249 H 0.96281 0.9966 0.82897 0.0
H1250 H 0.02686 0.97123 0.77758 0.0
H1251 H 0.01019 0.93349 0.76894 0.0
C1252 C 0.00322 0.05098 0.78899 0.0
C1253 C 0.02632 0.05417 0.80019 0.0
C1254 C 0.99321 0.02934 0.79176 0.0
C1255 C 0.00603 0.01039 0.80588 0.0
C1256 C 0.02878 0.01381 0.81915 0.0
C1257 C 0.03881 0.03542 0.81635 0.0
C1258 C 0.96365 0.96126 0.81063 0.0
C1259 C 0.97661 0.9431 0.79323 0.0
C1260 C 0.97331 0.98294 0.81586 0.0
C1261 C 0.99616 0.98699 0.8039 0.0
C1262 C 0.00929 0.96868 0.7877 0.0
C1263 C 0.99965 0.94701 0.78246 0.0
H1264 H 0.07569 0.05941 0.66093 0.0
H1265 H 0.05205 0.12464 0.61277 0.0
H1266 H 0.08396 0.04738 0.5853 0.0
H1267 H 0.06151 0.11322 0.53693 0.0
H1268 H 0.12375 0.04491 0.45536 0.0
H1269 H 0.11131 0.05449 0.53036 0.0
H1270 H 0.05261 0.08968 0.4764 0.0
H1271 H 0.0658 0.08115 0.40169 0.0
C1272 C 0.07231 0.07117 0.63397 0.0
C1273 C 0.06337 0.09296 0.64242 0.0
C1274 C 0.07721 0.06437 0.59068 0.0
C1275 C 0.07374 0.07942 0.55501 0.0
C1276 C 0.06414 0.10105 0.5635 0.0
C1277 C 0.05878 0.10767 0.60687 0.0
C1278 C 0.10815 0.05459 0.45971 0.0
C1279 C 0.09583 0.06244 0.42285 0.0
C1280 C 0.1009 0.05998 0.50264 0.0
C1281 C 0.08093 0.07292 0.50947 0.0
C1282 C 0.0683 0.08014 0.47241 0.0
C1283 C 0.07579 0.07513 0.42957 0.0
H1284 H 0.96714 0.59272 0.70137 0.0
H1285 H 0.90032 0.61974 0.67138 0.0
H1286 H 0.95409 0.58308 0.77673 0.0
H1287 H 0.88752 0.61053 0.74657 0.0
H1288 H 0.88678 0.61192 0.90308 0.0
H1289 H 0.9003 0.6231 0.82932 0.0
H1290 H 0.92026 0.55349 0.80282 0.0
H1291 H 0.90637 0.54208 0.87633 0.0
C1292 C 0.94985 0.59693 0.71122 0.0
C1293 C 0.93464 0.60682 0.68084 0.0
C1294 C 0.94237 0.59127 0.75393 0.0
C1295 C 0.91982 0.59598 0.76689 0.0
C1296 C 0.90497 0.60677 0.73711 0.0
C1297 C 0.91226 0.61196 0.69425 0.0
C1298 C 0.89387 0.59898 0.88135 0.0
C1299 C 0.89548 0.57613 0.89523 0.0
C1300 C 0.9016 0.60539 0.83936 0.0
C1301 C 0.91148 0.58915 0.81102 0.0
C1302 C 0.91291 0.56628 0.82456 0.0
C1303 C 0.90474 0.55976 0.86625 0.0
H1304 H 0.44817 0.37213 0.11732 0.0
H1305 H 0.41267 0.4305 0.17132 0.0
H1306 H 0.43687 0.38349 0.04258 0.0
H1307 H 0.40266 0.44279 0.09695 0.0
H1308 H 0.36943 0.44801 0.96169 0.0
H1309 H 0.37941 0.43554 0.03652 0.0
H1310 H 0.44393 0.40988 0.98706 0.0
H1311 H 0.43313 0.42099 0.91229 0.0
C1312 C 0.43817 0.38753 0.11305 0.0
C1313 C 0.43122 0.40039 0.14996 0.0
C1314 C 0.43181 0.39418 0.07026 0.0
C1315 C 0.41885 0.41414 0.06353 0.0
C1316 C 0.41216 0.42707 0.10071 0.0
C1317 C 0.41805 0.42012 0.14343 0.0
C1318 C 0.38574 0.43974 0.96712 0.0
C1319 C 0.40049 0.43535 0.93145 0.0
C1320 C 0.39155 0.43267 0.00995 0.0
C1321 C 0.4125 0.42159 0.018 0.0
C1322 C 0.42743 0.41778 0.98214 0.0
C1323 C 0.42135 0.42434 0.93928 0.0
H1324 H 0.63064 0.94895 0.35923 0.0
H1325 H 0.56939 0.91776 0.41117 0.0
H1326 H 0.6199 0.93709 0.28439 0.0
H1327 H 0.55779 0.90719 0.33656 0.0
H1328 H 0.58456 0.93268 0.15184 0.0
H1329 H 0.59496 0.94435 0.22647 0.0
H1330 H 0.56503 0.88223 0.27848 0.0
H1331 H 0.55333 0.87141 0.20355 0.0
C1332 C 0.61472 0.93985 0.35443 0.0
C1333 C 0.60088 0.93418 0.39079 0.0
C1334 C 0.60845 0.93313 0.31159 0.0
C1335 C 0.58792 0.92112 0.30426 0.0
C1336 C 0.57395 0.91589 0.34086 0.0
C1337 C 0.5805 0.92212 0.38367 0.0
C1338 C 0.58016 0.92158 0.1793 0.0
C1339 C 0.56816 0.90117 0.1721 0.0
C1340 C 0.58629 0.92816 0.22213 0.0
C1341 C 0.58102 0.9142 0.25869 0.0
C1342 C 0.56903 0.89366 0.2513 0.0
C1343 C 0.56241 0.88735 0.20842 0.0
H1344 H 0.09969 0.42359 0.65524 0.0
H1345 H 0.05258 0.37518 0.71342 0.0
H1346 H 0.10838 0.43861 0.72811 0.0
H1347 H 0.06237 0.38936 0.78718 0.0
H1348 H 0.13559 0.44561 0.86945 0.0
H1349 H 0.12716 0.43127 0.79495 0.0
H1350 H 0.05658 0.42115 0.83311 0.0
H1351 H 0.06552 0.43419 0.90786 0.0
C1352 C 0.0914 0.4159 0.6837 0.0
C1353 C 0.07531 0.39826 0.67853 0.0
C1354 C 0.09654 0.42445 0.72565 0.0
C1355 C 0.08604 0.41529 0.76359 0.0
C1356 C 0.07039 0.39719 0.75855 0.0
C1357 C 0.06491 0.3889 0.71636 0.0
C1358 C 0.11826 0.4406 0.86138 0.0
C1359 C 0.10117 0.44091 0.89391 0.0
C1360 C 0.11338 0.43237 0.81886 0.0
C1361 C 0.09121 0.42478 0.80815 0.0
C1362 C 0.07396 0.42619 0.8405 0.0
C1363 C 0.07897 0.43393 0.88311 0.0
H1364 H 0.53755 0.61583 0.11244 0.0
H1365 H 0.60006 0.58769 0.16605 0.0
H1366 H 0.54985 0.60504 0.03782 0.0
H1367 H 0.61229 0.5773 0.09162 0.0
H1368 H 0.61404 0.54071 0.95602 0.0
H1369 H 0.60165 0.55051 0.03116 0.0
H1370 H 0.58015 0.61695 0.9852 0.0
H1371 H 0.59217 0.60727 0.91036 0.0
C1372 C 0.55389 0.60742 0.10838 0.0
C1373 C 0.56783 0.60272 0.14522 0.0
C1374 C 0.56096 0.60133 0.06567 0.0
C1375 C 0.58203 0.59037 0.05906 0.0
C1376 C 0.59586 0.5855 0.09585 0.0
C1377 C 0.58887 0.59163 0.13846 0.0
C1378 C 0.6068 0.55745 0.962 0.0
C1379 C 0.60409 0.57317 0.92713 0.0
C1380 C 0.59974 0.56305 0.00499 0.0
C1381 C 0.5898 0.58442 0.0138 0.0
C1382 C 0.58741 0.60022 0.97915 0.0
C1383 C 0.59449 0.59468 0.93632 0.0
H1384 H 0.42845 0.0888 0.41386 0.0
H1385 H 0.36844 0.05539 0.36168 0.0
H1386 H 0.43985 0.09963 0.33936 0.0
H1387 H 0.3789 0.06758 0.28689 0.0
H1388 H 0.4454 0.13352 0.20544 0.0
H1389 H 0.43273 0.12361 0.28023 0.0
H1390 H 0.4042 0.06048 0.22969 0.0
H1391 H 0.41548 0.0713 0.15505 0.0
C1392 C 0.41752 0.08408 0.38635 0.0
C1393 C 0.39762 0.07122 0.39336 0.0
C1394 C 0.42394 0.09046 0.34357 0.0
C1395 C 0.4103 0.0846 0.30686 0.0
C1396 C 0.39012 0.07201 0.31415 0.0
C1397 C 0.384 0.06513 0.35696 0.0
C1398 C 0.43638 0.11757 0.21062 0.0
C1399 C 0.43133 0.10318 0.17471 0.0
C1400 C 0.4292 0.11179 0.25342 0.0
C1401 C 0.41738 0.0912 0.26121 0.0
C1402 C 0.41271 0.07672 0.22503 0.0
C1403 C 0.41936 0.0828 0.18222 0.0
H1404 H 0.94936 0.87126 0.60914 0.0
H1405 H 0.91779 0.93228 0.66117 0.0
H1406 H 0.93824 0.88234 0.53414 0.0
H1407 H 0.90799 0.94425 0.58638 0.0
H1408 H 0.93371 0.91714 0.40133 0.0
H1409 H 0.94548 0.90716 0.47615 0.0
H1410 H 0.88337 0.93714 0.528 0.0
H1411 H 0.87249 0.94843 0.45298 0.0
C1412 C 0.94036 0.88723 0.60432 0.0
C1413 C 0.93432 0.90087 0.64076 0.0
C1414 C 0.93408 0.89369 0.56137 0.0
C1415 C 0.92213 0.91423 0.55399 0.0
C1416 C 0.91663 0.92807 0.59068 0.0
C1417 C 0.92242 0.92132 0.63359 0.0
C1418 C 0.92266 0.92166 0.42883 0.0
C1419 C 0.90222 0.93354 0.42155 0.0
C1420 C 0.9293 0.91578 0.47176 0.0
C1421 C 0.91534 0.92115 0.50834 0.0
C1422 C 0.89481 0.93308 0.50085 0.0
C1423 C 0.88846 0.93946 0.4579 0.0
H1424 H 0.11904 0.0916 0.9025 0.0
H1425 H 0.05512 0.11899 0.95095 0.0
H1426 H 0.13117 0.08443 0.97876 0.0
H1427 H 0.06745 0.11189 0.02725 0.0
H1428 H 0.10467 0.11252 0.15912 0.0
H1429 H 0.09872 0.12427 0.08242 0.0
H1430 H 0.11547 0.05626 0.03757 0.0
H1431 H 0.12136 0.04427 0.11455 0.0
C1432 C 0.10773 0.09643 0.92942 0.0
C1433 C 0.08604 0.10573 0.92083 0.0
C1434 C 0.11466 0.0922 0.97296 0.0
C1435 C 0.10019 0.09752 0.00861 0.0
C1436 C 0.07896 0.10778 0.0002 0.0
C1437 C 0.07187 0.11173 0.95661 0.0
C1438 C 0.10742 0.1001 0.13295 0.0
C1439 C 0.11325 0.07736 0.14287 0.0
C1440 C 0.10391 0.10686 0.08912 0.0
C1441 C 0.10648 0.09112 0.05436 0.0
C1442 C 0.1135 0.06872 0.06394 0.0
C1443 C 0.11676 0.06185 0.10791 0.0
H1444 H 0.96584 0.6071 0.3721 0.0
H1445 H 0.89999 0.5816 0.41428 0.0
H1446 H 0.95581 0.59858 0.29468 0.0
H1447 H 0.89021 0.57305 0.33747 0.0
H1448 H 0.89259 0.53924 0.19846 0.0
H1449 H 0.90441 0.54599 0.27545 0.0
H1450 H 0.92502 0.61454 0.24102 0.0
H1451 H 0.91315 0.608 0.16449 0.0
C1452 C 0.94933 0.59963 0.36486 0.0
C1453 C 0.93365 0.59516 0.39909 0.0
C1454 C 0.94359 0.59482 0.32073 0.0
C1455 C 0.92228 0.58512 0.31039 0.0
C1456 C 0.90681 0.58032 0.34469 0.0
C1457 C 0.91238 0.58542 0.38857 0.0
C1458 C 0.89959 0.55575 0.20742 0.0
C1459 C 0.90181 0.57312 0.17558 0.0
C1460 C 0.90633 0.55959 0.25133 0.0
C1461 C 0.91572 0.58073 0.26384 0.0
C1462 C 0.91807 0.59802 0.23199 0.0
C1463 C 0.91105 0.59431 0.18834 0.0
H1464 H 0.38362 0.39573 0.65712 0.0
H1465 H 0.40953 0.46331 0.62877 0.0
H1466 H 0.39423 0.38336 0.58238 0.0
H1467 H 0.42024 0.4508 0.55404 0.0
H1468 H 0.46226 0.4108 0.45048 0.0
H1469 H 0.45026 0.42172 0.5254 0.0
H1470 H 0.38369 0.39251 0.50138 0.0
H1471 H 0.39554 0.38168 0.42645 0.0
C1472 C 0.39131 0.40801 0.63471 0.0
C1473 C 0.39581 0.43047 0.64872 0.0
C1474 C 0.39737 0.40091 0.59204 0.0
C1475 C 0.4083 0.41607 0.56288 0.0
C1476 C 0.41213 0.43873 0.5763 0.0
C1477 C 0.40577 0.44594 0.6188 0.0
C1478 C 0.44521 0.40637 0.46146 0.0
C1479 C 0.42981 0.39546 0.43266 0.0
C1480 C 0.43828 0.41284 0.50406 0.0
C1481 C 0.41598 0.40819 0.51873 0.0
C1482 C 0.40096 0.3963 0.49075 0.0
C1483 C 0.40776 0.39011 0.44797 0.0
H1484 H 0.6195 0.89601 0.66579 0.0
H1485 H 0.59198 0.96311 0.69262 0.0
H1486 H 0.60915 0.8839 0.74082 0.0
H1487 H 0.5815 0.95083 0.76758 0.0
H1488 H 0.5398 0.91005 0.87066 0.0
H1489 H 0.55198 0.92091 0.79587 0.0
H1490 H 0.61924 0.89406 0.82213 0.0
H1491 H 0.60722 0.88332 0.89702 0.0
C1492 C 0.61152 0.90825 0.68793 0.0
C1493 C 0.60648 0.93049 0.67341 0.0
C1494 C 0.60561 0.90129 0.73075 0.0
C1495 C 0.59428 0.91636 0.75953 0.0
C1496 C 0.58994 0.93883 0.74562 0.0
C1497 C 0.59616 0.9459 0.70299 0.0
C1498 C 0.55707 0.90614 0.86024 0.0
C1499 C 0.57259 0.89591 0.88964 0.0
C1500 C 0.56408 0.91257 0.81769 0.0
C1501 C 0.5866 0.90856 0.80369 0.0
C1502 C 0.6018 0.89735 0.83228 0.0
C1503 C 0.5949 0.89122 0.87502 0.0
H1504 H 0.04173 0.38672 0.37134 0.0
H1505 H 0.1115 0.4016 0.40874 0.0
H1506 H 0.0507 0.39718 0.2944 0.0
H1507 H 0.12015 0.41219 0.33249 0.0
H1508 H 0.1143 0.45789 0.20591 0.0
H1509 H 0.10582 0.44556 0.28196 0.0
H1510 H 0.07818 0.38225 0.23168 0.0
H1511 H 0.08677 0.39428 0.156 0.0
C1512 C 0.05895 0.39202 0.36313 0.0
C1513 C 0.07586 0.39338 0.39607 0.0
C1514 C 0.06406 0.39798 0.31925 0.0
C1515 C 0.08604 0.40567 0.30797 0.0
C1516 C 0.10302 0.40657 0.34064 0.0
C1517 C 0.09805 0.40033 0.38418 0.0
C1518 C 0.10654 0.44131 0.21119 0.0
C1519 C 0.1013 0.42702 0.17515 0.0
C1520 C 0.10174 0.43426 0.25454 0.0
C1521 C 0.0913 0.41302 0.26231 0.0
C1522 C 0.08607 0.39876 0.22634 0.0
C1523 C 0.09118 0.40562 0.18316 0.0
H1524 H 0.61372 0.6099 0.6508 0.0
H1525 H 0.58627 0.54242 0.62709 0.0
H1526 H 0.60201 0.62158 0.57654 0.0
H1527 H 0.5746 0.55421 0.55249 0.0
H1528 H 0.5338 0.5926 0.44546 0.0
H1529 H 0.54541 0.58246 0.52102 0.0
H1530 H 0.61192 0.61196 0.49728 0.0
H1531 H 0.60041 0.62213 0.42207 0.0
C1532 C 0.6054 0.59749 0.62953 0.0
C1533 C 0.60088 0.57524 0.64469 0.0
C1534 C 0.59871 0.6042 0.58708 0.0
C1535 C 0.58721 0.58885 0.55913 0.0
C1536 C 0.58316 0.56644 0.57379 0.0
C1537 C 0.59007 0.55963 0.61618 0.0
C1538 C 0.55074 0.59726 0.4567 0.0
C1539 C 0.56623 0.60808 0.42794 0.0
C1540 C 0.55745 0.59123 0.49965 0.0
C1541 C 0.57962 0.59621 0.51461 0.0
C1542 C 0.59472 0.60796 0.48653 0.0
C1543 C 0.58812 0.61375 0.44353 0.0
H1544 H 0.38155 0.10459 0.6703 0.0
H1545 H 0.4114 0.03821 0.69394 0.0
H1546 H 0.39255 0.11664 0.74482 0.0
H1547 H 0.42235 0.05037 0.76877 0.0
H1548 H 0.46302 0.09101 0.87339 0.0
H1549 H 0.45084 0.07973 0.79879 0.0
H1550 H 0.38371 0.10718 0.82461 0.0
H1551 H 0.39579 0.11851 0.89894 0.0
C1552 C 0.39018 0.09247 0.69167 0.0
C1553 C 0.39569 0.07047 0.67633 0.0
C1554 C 0.39646 0.09939 0.73427 0.0
C1555 C 0.40853 0.08452 0.76218 0.0
C1556 C 0.41336 0.06225 0.7475 0.0
C1557 C 0.40685 0.05522 0.70497 0.0
C1558 C 0.44579 0.09497 0.86284 0.0
C1559 C 0.43034 0.10559 0.89194 0.0
C1560 C 0.43876 0.08827 0.82044 0.0
C1561 C 0.41627 0.09235 0.80633 0.0
C1562 C 0.40114 0.10385 0.83473 0.0
C1563 C 0.40807 0.11033 0.8772 0.0
H1564 H 0.88133 0.89199 0.14778 0.0
H1565 H 0.90785 0.95934 0.11937 0.0
H1566 H 0.8913 0.87971 0.07249 0.0
H1567 H 0.91803 0.94688 0.0444 0.0
H1568 H 0.96033 0.90579 0.94255 0.0
H1569 H 0.94812 0.9163 0.01751 0.0
H1570 H 0.88054 0.89051 0.9899 0.0
H1571 H 0.89257 0.88022 0.91462 0.0
C1572 C 0.88901 0.90423 0.12527 0.0
C1573 C 0.89388 0.92661 0.1394 0.0
C1574 C 0.8947 0.89719 0.08233 0.0
C1575 C 0.90568 0.91229 0.05314 0.0
C1576 C 0.90984 0.93487 0.06668 0.0
C1577 C 0.90381 0.94203 0.10935 0.0
C1578 C 0.94298 0.90203 0.95267 0.0
C1579 C 0.92737 0.89227 0.92276 0.0
C1580 C 0.93596 0.90824 -0.00467 0.0
C1581 C 0.91335 0.90444 0.009 0.0
C1582 C 0.89805 0.89363 0.97996 0.0
C1583 C 0.90495 0.88775 0.93702 0.0
loop_
_geom_bond_atom_site_label_1
_geom_bond_atom_site_label_2
_geom_bond_distance
_geom_bond_site_symmetry_2
_ccdc_geom_bond_type
Co0 O2 2.143 . S
Co0 O8 2.074 . S
Co0 O11 2.093 . S
Co0 O24 2.097 . S
Co0 N41 2.151 . S
Co0 N49 2.214 . S
Co1 O2 2.160 . S
Co1 O7 2.058 . S
Co1 O17 2.057 . S
Co1 O32 2.037 . S
Co1 N36 2.145 . S
Co1 N57 2.257 . S
O2 Co0 2.143 . S
O2 Co1 2.160 . S
C3 O4 1.278 . S
C3 O11 1.224 . S
O4 C3 1.278 . S
C5 O6 1.245 . S
C5 O17 1.232 . S
O6 C5 1.245 . S
O7 Co1 2.058 . S
O7 C33 1.269 . S
O8 Co0 2.074 . S
O8 C33 1.257 . S
H9 C34 0.930 . S
H10 C40 0.930 . S
O11 Co0 2.093 . S
O11 C3 1.224 . S
H12 C44 0.929 . S
H13 C46 0.930 . S
H14 C47 0.930 . S
H15 C45 0.929 . S
H16 C48 0.928 . S
O17 Co1 2.057 . S
O17 C5 1.232 . S
H18 C37 0.929 . S
H19 C38 0.929 . S
H20 C50 0.931 . S
H21 C42 0.929 . S
H22 C51 0.893 1_655 S
H23 C43 0.931 . S
O24 Co0 2.097 . S
O24 C52 1.214 . S
H25 C53 0.929 . S
H26 C54 0.933 . S
H27 C55 0.930 . S
H28 C56 0.929 . S
H29 C58 0.930 . S
H30 C35 0.930 . S
H31 C39 0.930 . S
O32 Co1 2.037 . S
O32 C52 1.234 . S
C33 O7 1.269 . S
C33 O8 1.257 . S
C34 H9 0.930 . S
C34 C37 1.388 1_565 S
C34 C39 1.418 . S
C35 H30 0.930 . S
C35 C38 1.404 1_565 S
C35 C39 1.353 . S
N36 Co1 2.145 . S
N36 C37 1.397 . S
N36 C38 1.334 . S
C37 H18 0.929 . S
C37 C34 1.388 1_545 S
C37 N36 1.397 . S
C38 H19 0.929 . S
C38 C35 1.404 1_545 S
C38 N36 1.334 . S
C39 H31 0.930 . S
C39 C34 1.418 . S
C39 C35 1.353 . S
C40 H10 0.930 . S
C40 N41 1.330 . S
C40 C42 1.446 . S
N41 Co0 2.151 . S
N41 C40 1.330 . S
N41 C45 1.418 . S
C42 H21 0.929 . S
C42 C40 1.446 . S
C42 C43 1.332 . S
C43 H23 0.931 . S
C43 C42 1.332 . S
C43 C44 1.267 . S
C44 H12 0.929 . S
C44 C43 1.267 . S
C44 C45 1.251 . S
C45 H15 0.929 . S
C45 N41 1.418 . S
C45 C44 1.251 . S
C46 H13 0.930 . S
C46 C48 1.406 . S
C46 C51 1.261 . S
C47 H14 0.930 . S
C47 N49 1.325 . S
C47 C50 1.357 . S
C48 H16 0.928 . S
C48 C46 1.406 . S
C48 N49 1.261 . S
N49 Co0 2.214 . S
N49 C47 1.325 . S
N49 C48 1.261 . S
C50 H20 0.931 . S
C50 C47 1.357 . S
C50 C51 1.312 . S
C51 H22 0.893 1_455 S
C51 C46 1.261 . S
C51 C50 1.312 . S
C52 O24 1.214 . S
C52 O32 1.234 . S
C53 H25 0.929 . S
C53 C56 1.391 1_545 S
C53 C58 1.391 . S
C54 H26 0.933 . S
C54 C55 1.401 . S
C54 N57 1.376 1_565 S
C55 H27 0.930 . S
C55 C54 1.401 . S
C55 C56 1.392 . S
C56 H28 0.929 . S
C56 C53 1.391 1_565 S
C56 C55 1.392 . S
N57 Co1 2.257 . S
N57 C54 1.376 1_545 S
N57 C58 1.388 . S
C58 H29 0.930 . S
C58 C53 1.391 . S
C58 N57 1.388 . S
Co59 O61 2.143 . S
Co59 O67 2.074 . S
Co59 O70 2.093 . S
Co59 O83 2.097 . S
Co59 N100 2.151 . S
Co59 N108 2.214 . S
Co60 O61 2.160 . S
Co60 O66 2.058 . S
Co60 O76 2.057 . S
Co60 O91 2.037 . S
Co60 N95 2.145 . S
Co60 N116 2.257 . S
O61 Co59 2.143 . S
O61 Co60 2.160 . S
C62 O63 1.278 . S
C62 O70 1.224 . S
O63 C62 1.278 . S
C64 O65 1.245 . S
C64 O76 1.232 . S
O65 C64 1.245 . S
O66 Co60 2.058 . S
O66 C92 1.269 . S
O67 Co59 2.074 . S
O67 C92 1.257 . S
H68 C93 0.930 . S
H69 C99 0.930 . S
O70 Co59 2.093 . S
O70 C62 1.224 . S
H71 C103 0.929 . S
H72 C105 0.930 . S
H73 C106 0.930 . S
H74 C104 0.929 . S
H75 C107 0.928 . S
O76 Co60 2.057 . S
O76 C64 1.232 . S
H77 C96 0.929 . S
H78 C97 0.929 . S
H79 C109 0.931 . S
H80 C101 0.929 . S
H81 C110 0.930 . S
H82 C102 0.931 . S
O83 Co59 2.097 . S
O83 C111 1.214 . S
H84 C112 0.929 . S
H85 C113 0.934 . S
H86 C114 0.930 . S
H87 C115 0.929 . S
H88 C117 0.930 . S
H89 C94 0.930 . S
H90 C98 0.930 . S
O91 Co60 2.037 . S
O91 C111 1.234 . S
C92 O66 1.269 . S
C92 O67 1.257 . S
C93 H68 0.930 . S
C93 C96 1.388 1_455 S
C93 C98 1.418 . S
C94 H89 0.930 . S
C94 C97 1.404 1_455 S
C94 C98 1.353 . S
N95 Co60 2.145 . S
N95 C96 1.397 . S
N95 C97 1.334 . S
C96 H77 0.929 . S
C96 C93 1.388 1_655 S
C96 N95 1.397 . S
C97 H78 0.929 . S
C97 C94 1.404 1_655 S
C97 N95 1.334 . S
C98 H90 0.930 . S
C98 C93 1.418 . S
C98 C94 1.353 . S
C99 H69 0.930 . S
C99 N100 1.330 . S
C99 C101 1.446 . S
N100 Co59 2.151 . S
N100 C99 1.330 . S
N100 C104 1.418 . S
C101 H80 0.929 . S
C101 C99 1.446 . S
C101 C102 1.332 . S
C102 H82 0.931 . S
C102 C101 1.332 . S
C102 C103 1.267 . S
C103 H71 0.929 . S
C103 C102 1.267 . S
C103 C104 1.251 . S
C104 H74 0.929 . S
C104 N100 1.418 . S
C104 C103 1.251 . S
C105 H72 0.930 . S
C105 C107 1.406 . S
C105 C110 1.261 . S
C106 H73 0.930 . S
C106 N108 1.325 . S
C106 C109 1.357 . S
C107 H75 0.928 . S
C107 C105 1.406 . S
C107 N108 1.261 . S
N108 Co59 2.214 . S
N108 C106 1.325 . S
N108 C107 1.261 . S
C109 H79 0.931 . S
C109 C106 1.357 . S
C109 C110 1.312 . S
C110 H81 0.930 . S
C110 C105 1.261 . S
C110 C109 1.312 . S
C111 O83 1.214 . S
C111 O91 1.234 . S
C112 H84 0.929 . S
C112 C115 1.391 1_655 S
C112 C117 1.391 . S
C113 H85 0.934 . S
C113 C114 1.404 . S
C113 N116 1.373 1_455 S
C114 H86 0.930 . S
C114 C113 1.404 . S
C114 C115 1.392 . S
C115 H87 0.929 . S
C115 C112 1.391 1_455 S
C115 C114 1.392 . S
N116 Co60 2.257 . S
N116 C113 1.373 1_655 S
N116 C117 1.388 . S
C117 H88 0.930 . S
C117 C112 1.391 . S
C117 N116 1.388 . S
Co118 O120 2.143 . S
Co118 O126 2.074 . S
Co118 O129 2.093 . S
Co118 O142 2.097 . S
Co118 N159 2.151 . S
Co118 N167 2.214 . S
Co119 O120 2.160 . S
Co119 O125 2.058 . S
Co119 O135 2.057 . S
Co119 O150 2.037 . S
Co119 N154 2.145 . S
Co119 N175 2.257 . S
O120 Co118 2.143 . S
O120 Co119 2.160 . S
C121 O122 1.278 . S
C121 O129 1.224 . S
O122 C121 1.278 . S
C123 O124 1.245 . S
C123 O135 1.232 . S
O124 C123 1.245 . S
O125 Co119 2.058 . S
O125 C151 1.269 . S
O126 Co118 2.074 . S
O126 C151 1.257 . S
H127 C152 0.930 . S
H128 C158 0.930 . S
O129 Co118 2.093 . S
O129 C121 1.224 . S
H130 C162 0.929 . S
H131 C164 0.930 . S
H132 C165 0.930 . S
H133 C163 0.929 . S
H134 C166 0.928 . S
O135 Co119 2.057 . S
O135 C123 1.232 . S
H136 C155 0.929 . S
H137 C156 0.929 . S
H138 C168 0.931 . S
H139 C160 0.929 . S
H140 C169 0.930 . S
H141 C161 0.931 . S
O142 Co118 2.097 . S
O142 C170 1.214 . S
H143 C171 0.929 . S
H144 C172 0.929 . S
H145 C173 0.930 . S
H146 C174 0.929 . S
H147 C176 0.930 . S
H148 C153 0.930 . S
H149 C157 0.930 . S
O150 Co119 2.037 . S
O150 C170 1.234 . S
C151 O125 1.269 . S
C151 O126 1.257 . S
C152 H127 0.930 . S
C152 C155 1.388 . S
C152 C157 1.418 . S
C153 H148 0.930 . S
C153 C156 1.404 . S
C153 C157 1.353 . S
N154 Co119 2.145 . S
N154 C155 1.397 . S
N154 C156 1.334 . S
C155 H136 0.929 . S
C155 C152 1.388 . S
C155 N154 1.397 . S
C156 H137 0.929 . S
C156 C153 1.404 . S
C156 N154 1.334 . S
C157 H149 0.930 . S
C157 C152 1.418 . S
C157 C153 1.353 . S
C158 H128 0.930 . S
C158 N159 1.330 . S
C158 C160 1.446 . S
N159 Co118 2.151 . S
N159 C158 1.330 . S
N159 C163 1.418 . S
C160 H139 0.929 . S
C160 C158 1.446 . S
C160 C161 1.332 . S
C161 H141 0.931 . S
C161 C160 1.332 . S
C161 C162 1.267 . S
C162 H130 0.929 . S
C162 C161 1.267 . S
C162 C163 1.251 . S
C163 H133 0.929 . S
C163 N159 1.418 . S
C163 C162 1.251 . S
C164 H131 0.930 . S
C164 C166 1.406 . S
C164 C169 1.261 . S
C165 H132 0.930 . S
C165 N167 1.325 . S
C165 C168 1.357 . S
C166 H134 0.928 . S
C166 C164 1.406 . S
C166 N167 1.261 . S
N167 Co118 2.214 . S
N167 C165 1.325 . S
N167 C166 1.261 . S
C168 H138 0.931 . S
C168 C165 1.357 . S
C168 C169 1.312 . S
C169 H140 0.930 . S
C169 C164 1.261 . S
C169 C168 1.312 . S
C170 O142 1.214 . S
C170 O150 1.234 . S
C171 H143 0.929 . S
C171 C174 1.391 . S
C171 C176 1.391 . S
C172 H144 0.929 . S
C172 C173 1.390 . S
C172 N175 1.391 . S
C173 H145 0.930 . S
C173 C172 1.390 . S
C173 C174 1.392 . S
C174 H146 0.929 . S
C174 C171 1.391 . S
C174 C173 1.392 . S
N175 Co119 2.257 . S
N175 C172 1.391 . S
N175 C176 1.388 . S
C176 H147 0.930 . S
C176 C171 1.391 . S
C176 N175 1.388 . S
Co177 O179 2.143 . S
Co177 O185 2.074 . S
Co177 O188 2.093 1_554 S
Co177 O201 2.097 . S
Co177 N218 2.151 . S
Co177 N226 2.214 . S
Co178 O179 2.160 . S
Co178 O184 2.058 . S
Co178 O194 2.057 . S
Co178 O209 2.037 . S
Co178 N213 2.145 . S
Co178 N234 2.257 . S
O179 Co177 2.143 . S
O179 Co178 2.160 . S
C180 O181 1.278 . S
C180 O188 1.224 . S
O181 C180 1.278 . S
C182 O183 1.245 . S
C182 O194 1.232 . S
O183 C182 1.245 . S
O184 Co178 2.058 . S
O184 C210 1.269 . S
O185 Co177 2.074 . S
O185 C210 1.257 . S
H186 C211 0.930 . S
H187 C217 0.930 . S
O188 Co177 2.093 1_556 S
O188 C180 1.224 . S
H189 C221 0.929 . S
H190 C223 0.930 . S
H191 C224 0.930 . S
H192 C222 0.929 . S
H193 C225 0.928 . S
O194 Co178 2.057 . S
O194 C182 1.232 . S
H195 C214 0.929 . S
H196 C215 0.929 . S
H197 C227 0.931 . S
H198 C219 0.929 . S
H199 C228 0.886 1_545 S
H200 C220 0.931 . S
O201 Co177 2.097 . S
O201 C229 1.214 . S
H202 C230 0.929 . S
H203 C231 0.929 . S
H204 C232 0.930 . S
H205 C233 0.929 . S
H206 C235 0.930 . S
H207 C212 0.930 . S
H208 C216 0.930 . S
O209 Co178 2.037 . S
O209 C229 1.234 . S
C210 O184 1.269 . S
C210 O185 1.257 . S
C211 H186 0.930 . S
C211 C214 1.388 . S
C211 C216 1.418 . S
C212 H207 0.930 . S
C212 C215 1.404 . S
C212 C216 1.353 . S
N213 Co178 2.145 . S
N213 C214 1.397 . S
N213 C215 1.334 . S
C214 H195 0.929 . S
C214 C211 1.388 . S
C214 N213 1.397 . S
C215 H196 0.929 . S
C215 C212 1.404 . S
C215 N213 1.334 . S
C216 H208 0.930 . S
C216 C211 1.418 . S
C216 C212 1.353 . S
C217 H187 0.930 . S
C217 N218 1.330 . S
C217 C219 1.446 . S
N218 Co177 2.151 . S
N218 C217 1.330 . S
N218 C222 1.418 . S
C219 H198 0.929 . S
C219 C217 1.446 . S
C219 C220 1.332 . S
C220 H200 0.931 . S
C220 C219 1.332 . S
C220 C221 1.267 . S
C221 H189 0.929 . S
C221 C220 1.267 . S
C221 C222 1.251 . S
C222 H192 0.929 . S
C222 N218 1.418 . S
C222 C221 1.251 . S
C223 H190 0.930 . S
C223 C225 1.406 . S
C223 C228 1.261 . S
C224 H191 0.930 . S
C224 N226 1.325 . S
C224 C227 1.357 . S
C225 H193 0.928 . S
C225 C223 1.406 . S
C225 N226 1.261 . S
N226 Co177 2.214 . S
N226 C224 1.325 . S
N226 C225 1.261 . S
C227 H197 0.931 . S
C227 C224 1.357 . S
C227 C228 1.312 . S
C228 H199 0.886 1_565 S
C228 C223 1.261 . S
C228 C227 1.312 . S
C229 O201 1.214 . S
C229 O209 1.234 . S
C230 H202 0.929 . S
C230 C233 1.391 . S
C230 C235 1.391 1_556 S
C231 H203 0.929 . S
C231 C232 1.390 . S
C231 N234 1.391 . S
C232 H204 0.930 . S
C232 C231 1.390 . S
C232 C233 1.392 1_554 S
C233 H205 0.929 . S
C233 C230 1.391 . S
C233 C232 1.392 1_556 S
N234 Co178 2.257 . S
N234 C231 1.391 . S
N234 C235 1.388 . S
C235 H206 0.930 . S
C235 C230 1.391 1_554 S
C235 N234 1.388 . S
Co236 O238 2.143 . S
Co236 O244 2.074 1_554 S
Co236 O247 2.093 . S
Co236 O260 2.097 . S
Co236 N277 2.151 . S
Co236 N285 2.214 . S
Co237 O238 2.160 1_556 S
Co237 O243 2.058 . S
Co237 O253 2.057 . S
Co237 O268 2.037 . S
Co237 N272 2.145 . S
Co237 N293 2.257 1_556 S
O238 Co236 2.143 . S
O238 Co237 2.160 1_554 S
C239 O240 1.278 . S
C239 O247 1.224 . S
O240 C239 1.278 . S
C241 O242 1.245 1_556 S
C241 O253 1.232 . S
O242 C241 1.245 1_554 S
O243 Co237 2.058 . S
O243 C269 1.269 . S
O244 Co236 2.074 1_556 S
O244 C269 1.257 . S
H245 C270 0.930 . S
H246 C276 0.930 . S
O247 Co236 2.093 . S
O247 C239 1.224 . S
H248 C280 0.935 . S
H249 C282 0.930 . S
H250 C283 0.930 1_556 S
H251 C281 0.944 . S
H252 C284 0.928 . S
O253 Co237 2.057 . S
O253 C241 1.232 . S
H254 C273 0.929 . S
H255 C274 0.929 . S
H256 C286 0.931 . S
H257 C278 0.929 . S
H258 C287 0.886 1_655 S
H259 C279 0.931 . S
O260 Co236 2.097 . S
O260 C288 1.214 . S
H261 C289 0.929 . S
H262 C290 0.929 . S
H263 C291 0.930 . S
H264 C292 0.929 . S
H265 C294 0.930 . S
H266 C271 0.930 . S
H267 C275 0.930 . S
O268 Co237 2.037 . S
O268 C288 1.234 1_556 S
C269 O243 1.269 . S
C269 O244 1.257 . S
C270 H245 0.930 . S
C270 C273 1.388 . S
C270 C275 1.418 . S
C271 H266 0.930 . S
C271 C274 1.404 . S
C271 C275 1.353 . S
N272 Co237 2.145 . S
N272 C273 1.397 . S
N272 C274 1.334 . S
C273 H254 0.929 . S
C273 C270 1.388 . S
C273 N272 1.397 . S
C274 H255 0.929 . S
C274 C271 1.404 . S
C274 N272 1.334 . S
C275 H267 0.930 . S
C275 C270 1.418 . S
C275 C271 1.353 . S
C276 H246 0.930 . S
C276 N277 1.330 . S
C276 C278 1.446 . S
N277 Co236 2.151 . S
N277 C276 1.330 . S
N277 C281 1.404 1_554 S
C278 H257 0.929 . S
C278 C276 1.446 . S
C278 C279 1.332 . S
C279 H259 0.931 . S
C279 C278 1.332 . S
C279 C280 1.261 1_554 S
C280 H248 0.935 . S
C280 C279 1.261 1_556 S
C280 C281 1.251 . S
C281 H251 0.944 . S
C281 N277 1.404 1_556 S
C281 C280 1.251 . S
C282 H249 0.930 . S
C282 C284 1.406 . S
C282 C287 1.261 . S
C283 H250 0.930 1_554 S
C283 N285 1.325 . S
C283 C286 1.357 1_554 S
C284 H252 0.928 . S
C284 C282 1.406 . S
C284 N285 1.261 . S
N285 Co236 2.214 . S
N285 C283 1.325 . S
N285 C284 1.261 . S
C286 H256 0.931 . S
C286 C283 1.357 1_556 S
C286 C287 1.312 1_556 S
C287 H258 0.886 1_455 S
C287 C282 1.261 . S
C287 C286 1.312 1_554 S
C288 O260 1.214 . S
C288 O268 1.234 1_554 S
C289 H261 0.929 . S
C289 C292 1.391 . S
C289 C294 1.391 . S
C290 H262 0.929 . S
C290 C291 1.390 . S
C290 N293 1.391 . S
C291 H263 0.930 . S
C291 C290 1.390 . S
C291 C292 1.392 . S
C292 H264 0.929 . S
C292 C289 1.391 . S
C292 C291 1.392 . S
N293 Co237 2.257 1_554 S
N293 C290 1.391 . S
N293 C294 1.388 . S
C294 H265 0.930 . S
C294 C289 1.391 . S
C294 N293 1.388 . S
Co295 O297 2.143 . S
Co295 O303 2.074 . S
Co295 O306 2.093 . S
Co295 O319 2.097 . S
Co295 N336 2.151 . S
Co295 N344 2.214 . S
Co296 O297 2.160 . S
Co296 O302 2.058 . S
Co296 O312 2.057 . S
Co296 O327 2.037 . S
Co296 N331 2.145 . S
Co296 N352 2.257 . S
O297 Co295 2.143 . S
O297 Co296 2.160 . S
C298 O299 1.278 . S
C298 O306 1.224 . S
O299 C298 1.278 . S
C300 O301 1.245 . S
C300 O312 1.232 . S
O301 C300 1.245 . S
O302 Co296 2.058 . S
O302 C328 1.269 . S
O303 Co295 2.074 . S
O303 C328 1.257 . S
H304 C329 0.930 . S
H305 C335 0.930 . S
O306 Co295 2.093 . S
O306 C298 1.224 . S
H307 C339 0.929 . S
H308 C341 0.930 . S
H309 C342 0.930 . S
H310 C340 0.929 . S
H311 C343 0.928 . S
O312 Co296 2.057 . S
O312 C300 1.232 . S
H313 C332 0.929 . S
H314 C333 0.929 . S
H315 C345 0.931 . S
H316 C337 0.929 . S
H317 C346 0.930 . S
H318 C338 0.931 . S
O319 Co295 2.097 . S
O319 C347 1.214 . S
H320 C348 0.929 . S
H321 C349 0.929 . S
H322 C350 0.930 . S
H323 C351 0.929 . S
H324 C353 0.930 . S
H325 C330 0.930 . S
H326 C334 0.930 . S
O327 Co296 2.037 . S
O327 C347 1.234 . S
C328 O302 1.269 . S
C328 O303 1.257 . S
C329 H304 0.930 . S
C329 C332 1.388 . S
C329 C334 1.418 . S
C330 H325 0.930 . S
C330 C333 1.404 . S
C330 C334 1.353 . S
N331 Co296 2.145 . S
N331 C332 1.397 . S
N331 C333 1.334 . S
C332 H313 0.929 . S
C332 C329 1.388 . S
C332 N331 1.397 . S
C333 H314 0.929 . S
C333 C330 1.404 . S
C333 N331 1.334 . S
C334 H326 0.930 . S
C334 C329 1.418 . S
C334 C330 1.353 . S
C335 H305 0.930 . S
C335 N336 1.330 . S
C335 C337 1.446 . S
N336 Co295 2.151 . S
N336 C335 1.330 . S
N336 C340 1.418 . S
C337 H316 0.929 . S
C337 C335 1.446 . S
C337 C338 1.332 . S
C338 H318 0.931 . S
C338 C337 1.332 . S
C338 C339 1.267 . S
C339 H307 0.929 . S
C339 C338 1.267 . S
C339 C340 1.251 . S
C340 H310 0.929 . S
C340 N336 1.418 . S
C340 C339 1.251 . S
C341 H308 0.930 . S
C341 C343 1.406 . S
C341 C346 1.261 . S
C342 H309 0.930 . S
C342 N344 1.325 . S
C342 C345 1.357 . S
C343 H311 0.928 . S
C343 C341 1.406 . S
C343 N344 1.261 . S
N344 Co295 2.214 . S
N344 C342 1.325 . S
N344 C343 1.261 . S
C345 H315 0.931 . S
C345 C342 1.357 . S
C345 C346 1.312 . S
C346 H317 0.930 . S
C346 C341 1.261 . S
C346 C345 1.312 . S
C347 O319 1.214 . S
C347 O327 1.234 . S
C348 H320 0.929 . S
C348 C351 1.391 . S
C348 C353 1.391 . S
C349 H321 0.929 . S
C349 C350 1.390 . S
C349 N352 1.391 . S
C350 H322 0.930 . S
C350 C349 1.390 . S
C350 C351 1.392 . S
C351 H323 0.929 . S
C351 C348 1.391 . S
C351 C350 1.392 . S
N352 Co296 2.257 . S
N352 C349 1.391 . S
N352 C353 1.388 . S
C353 H324 0.930 . S
C353 C348 1.391 . S
C353 N352 1.388 . S
Co354 O356 2.143 . S
Co354 O362 2.074 . S
Co354 O365 2.093 . S
Co354 O378 2.097 . S
Co354 N395 2.151 . S
Co354 N403 2.214 . S
Co355 O356 2.160 . S
Co355 O361 2.058 . S
Co355 O371 2.057 . S
Co355 O386 2.037 . S
Co355 N390 2.145 . S
Co355 N411 2.257 . S
O356 Co354 2.143 . S
O356 Co355 2.160 . S
C357 O358 1.278 . S
C357 O365 1.224 . S
O358 C357 1.278 . S
C359 O360 1.245 . S
C359 O371 1.232 . S
O360 C359 1.245 . S
O361 Co355 2.058 . S
O361 C387 1.269 . S
O362 Co354 2.074 . S
O362 C387 1.257 . S
H363 C388 0.930 . S
H364 C394 0.930 . S
O365 Co354 2.093 . S
O365 C357 1.224 . S
H366 C398 0.929 . S
H367 C400 0.930 . S
H368 C401 0.930 . S
H369 C399 0.929 . S
H370 C402 0.928 . S
O371 Co355 2.057 . S
O371 C359 1.232 . S
H372 C391 0.929 . S
H373 C392 0.929 . S
H374 C404 0.931 . S
H375 C396 0.929 . S
H376 C405 0.930 . S
H377 C397 0.931 . S
O378 Co354 2.097 . S
O378 C406 1.214 . S
H379 C407 0.929 . S
H380 C408 0.934 . S
H381 C409 0.930 . S
H382 C410 0.929 . S
H383 C412 0.930 . S
H384 C389 0.930 . S
H385 C393 0.930 . S
O386 Co355 2.037 . S
O386 C406 1.234 . S
C387 O361 1.269 . S
C387 O362 1.257 . S
C388 H363 0.930 . S
C388 C391 1.388 1_565 S
C388 C393 1.418 . S
C389 H384 0.930 . S
C389 C392 1.404 1_565 S
C389 C393 1.353 . S
N390 Co355 2.145 . S
N390 C391 1.397 . S
N390 C392 1.334 . S
C391 H372 0.929 . S
C391 C388 1.388 1_545 S
C391 N390 1.397 . S
C392 H373 0.929 . S
C392 C389 1.404 1_545 S
C392 N390 1.334 . S
C393 H385 0.930 . S
C393 C388 1.418 . S
C393 C389 1.353 . S
C394 H364 0.930 . S
C394 N395 1.330 . S
C394 C396 1.446 . S
N395 Co354 2.151 . S
N395 C394 1.330 . S
N395 C399 1.418 . S
C396 H375 0.929 . S
C396 C394 1.446 . S
C396 C397 1.332 . S
C397 H377 0.931 . S
C397 C396 1.332 . S
C397 C398 1.267 . S
C398 H366 0.929 . S
C398 C397 1.267 . S
C398 C399 1.251 . S
C399 H369 0.929 . S
C399 N395 1.418 . S
C399 C398 1.251 . S
C400 H367 0.930 . S
C400 C402 1.406 . S
C400 C405 1.261 . S
C401 H368 0.930 . S
C401 N403 1.325 . S
C401 C404 1.357 . S
C402 H370 0.928 . S
C402 C400 1.406 . S
C402 N403 1.261 . S
N403 Co354 2.214 . S
N403 C401 1.325 . S
N403 C402 1.261 . S
C404 H374 0.931 . S
C404 C401 1.357 . S
C404 C405 1.312 . S
C405 H376 0.930 . S
C405 C400 1.261 . S
C405 C404 1.312 . S
C406 O378 1.214 . S
C406 O386 1.234 . S
C407 H379 0.929 . S
C407 C410 1.391 1_545 S
C407 C412 1.391 . S
C408 H380 0.934 . S
C408 C409 1.404 . S
C408 N411 1.373 1_565 S
C409 H381 0.930 . S
C409 C408 1.404 . S
C409 C410 1.392 . S
C410 H382 0.929 . S
C410 C407 1.391 1_565 S
C410 C409 1.392 . S
N411 Co355 2.257 . S
N411 C408 1.373 1_545 S
N411 C412 1.388 . S
C412 H383 0.930 . S
C412 C407 1.391 . S
C412 N411 1.388 . S
Co413 O415 2.143 . S
Co413 O421 2.074 . S
Co413 O424 2.093 . S
Co413 O437 2.097 . S
Co413 N454 2.151 . S
Co413 N462 2.214 . S
Co414 O415 2.160 . S
Co414 O420 2.058 . S
Co414 O430 2.057 . S
Co414 O445 2.037 . S
Co414 N449 2.145 . S
Co414 N470 2.257 . S
O415 Co413 2.143 . S
O415 Co414 2.160 . S
C416 O417 1.278 . S
C416 O424 1.224 . S
O417 C416 1.278 . S
C418 O419 1.245 . S
C418 O430 1.232 . S
O419 C418 1.245 . S
O420 Co414 2.058 . S
O420 C446 1.269 . S
O421 Co413 2.074 . S
O421 C446 1.257 . S
H422 C447 0.930 . S
H423 C453 0.930 . S
O424 Co413 2.093 . S
O424 C416 1.224 . S
H425 C457 0.929 . S
H426 C459 0.930 . S
H427 C460 0.930 . S
H428 C458 0.929 . S
H429 C461 0.928 . S
O430 Co414 2.057 . S
O430 C418 1.232 . S
H431 C450 0.929 . S
H432 C451 0.929 . S
H433 C463 0.931 . S
H434 C455 0.929 . S
H435 C464 0.893 1_545 S
H436 C456 0.931 . S
O437 Co413 2.097 . S
O437 C465 1.214 . S
H438 C466 0.929 . S
H439 C467 0.933 . S
H440 C468 0.930 . S
H441 C469 0.929 . S
H442 C471 0.930 . S
H443 C448 0.930 . S
H444 C452 0.930 . S
O445 Co414 2.037 . S
O445 C465 1.234 . S
C446 O420 1.269 . S
C446 O421 1.257 . S
C447 H422 0.930 . S
C447 C450 1.388 1_455 S
C447 C452 1.418 . S
C448 H443 0.930 . S
C448 C451 1.404 1_455 S
C448 C452 1.353 . S
N449 Co414 2.145 . S
N449 C450 1.397 . S
N449 C451 1.334 . S
C450 H431 0.929 . S
C450 C447 1.388 1_655 S
C450 N449 1.397 . S
C451 H432 0.929 . S
C451 C448 1.404 1_655 S
C451 N449 1.334 . S
C452 H444 0.930 . S
C452 C447 1.418 . S
C452 C448 1.353 . S
C453 H423 0.930 . S
C453 N454 1.330 . S
C453 C455 1.446 . S
N454 Co413 2.151 . S
N454 C453 1.330 . S
N454 C458 1.418 . S
C455 H434 0.929 . S
C455 C453 1.446 . S
C455 C456 1.332 . S
C456 H436 0.931 . S
C456 C455 1.332 . S
C456 C457 1.267 . S
C457 H425 0.929 . S
C457 C456 1.267 . S
C457 C458 1.251 . S
C458 H428 0.929 . S
C458 N454 1.418 . S
C458 C457 1.251 . S
C459 H426 0.930 . S
C459 C461 1.406 . S
C459 C464 1.261 . S
C460 H427 0.930 . S
C460 N462 1.325 . S
C460 C463 1.357 . S
C461 H429 0.928 . S
C461 C459 1.406 . S
C461 N462 1.261 . S
N462 Co413 2.214 . S
N462 C460 1.325 . S
N462 C461 1.261 . S
C463 H433 0.931 . S
C463 C460 1.357 . S
C463 C464 1.312 . S
C464 H435 0.893 1_565 S
C464 C459 1.261 . S
C464 C463 1.312 . S
C465 O437 1.214 . S
C465 O445 1.234 . S
C466 H438 0.929 . S
C466 C469 1.391 1_655 S
C466 C471 1.391 . S
C467 H439 0.933 . S
C467 C468 1.401 . S
C467 N470 1.376 1_455 S
C468 H440 0.930 . S
C468 C467 1.401 . S
C468 C469 1.392 . S
C469 H441 0.929 . S
C469 C466 1.391 1_455 S
C469 C468 1.392 . S
N470 Co414 2.257 . S
N470 C467 1.376 1_655 S
N470 C471 1.388 . S
C471 H442 0.930 . S
C471 C466 1.391 . S
C471 N470 1.388 . S
Co472 O474 2.143 . S
Co472 O480 2.074 . S
Co472 O483 2.093 . S
Co472 O496 2.097 . S
Co472 N513 2.151 . S
Co472 N521 2.214 . S
Co473 O474 2.160 . S
Co473 O479 2.058 . S
Co473 O489 2.057 . S
Co473 O504 2.037 . S
Co473 N508 2.145 . S
Co473 N529 2.257 . S
O474 Co472 2.143 . S
O474 Co473 2.160 . S
C475 O476 1.278 . S
C475 O483 1.224 . S
O476 C475 1.278 . S
C477 O478 1.245 . S
C477 O489 1.232 . S
O478 C477 1.245 . S
O479 Co473 2.058 . S
O479 C505 1.269 . S
O480 Co472 2.074 . S
O480 C505 1.257 . S
H481 C506 0.930 . S
H482 C512 0.930 . S
O483 Co472 2.093 . S
O483 C475 1.224 . S
H484 C516 0.929 . S
H485 C518 0.930 . S
H486 C519 0.930 . S
H487 C517 0.929 . S
H488 C520 0.928 . S
O489 Co473 2.057 . S
O489 C477 1.232 . S
H490 C509 0.929 . S
H491 C510 0.929 . S
H492 C522 0.931 . S
H493 C514 0.929 . S
H494 C523 0.930 . S
H495 C515 0.931 . S
O496 Co472 2.097 . S
O496 C524 1.214 . S
H497 C525 0.929 . S
H498 C526 0.929 . S
H499 C527 0.930 . S
H500 C528 0.929 . S
H501 C530 0.930 . S
H502 C507 0.930 . S
H503 C511 0.930 . S
O504 Co473 2.037 . S
O504 C524 1.234 . S
C505 O479 1.269 . S
C505 O480 1.257 . S
C506 H481 0.930 . S
C506 C509 1.388 . S
C506 C511 1.418 . S
C507 H502 0.930 . S
C507 C510 1.404 . S
C507 C511 1.353 . S
N508 Co473 2.145 . S
N508 C509 1.397 . S
N508 C510 1.334 . S
C509 H490 0.929 . S
C509 C506 1.388 . S
C509 N508 1.397 . S
C510 H491 0.929 . S
C510 C507 1.404 . S
C510 N508 1.334 . S
C511 H503 0.930 . S
C511 C506 1.418 . S
C511 C507 1.353 . S
C512 H482 0.930 . S
C512 N513 1.330 . S
C512 C514 1.446 . S
N513 Co472 2.151 . S
N513 C512 1.330 . S
N513 C517 1.418 . S
C514 H493 0.929 . S
C514 C512 1.446 . S
C514 C515 1.332 . S
C515 H495 0.931 . S
C515 C514 1.332 . S
C515 C516 1.267 . S
C516 H484 0.929 . S
C516 C515 1.267 . S
C516 C517 1.251 . S
C517 H487 0.929 . S
C517 N513 1.418 . S
C517 C516 1.251 . S
C518 H485 0.930 . S
C518 C520 1.406 . S
C518 C523 1.261 . S
C519 H486 0.930 . S
C519 N521 1.325 . S
C519 C522 1.357 . S
C520 H488 0.928 . S
C520 C518 1.406 . S
C520 N521 1.261 . S
N521 Co472 2.214 . S
N521 C519 1.325 . S
N521 C520 1.261 . S
C522 H492 0.931 . S
C522 C519 1.357 . S
C522 C523 1.312 . S
C523 H494 0.930 . S
C523 C518 1.261 . S
C523 C522 1.312 . S
C524 O496 1.214 . S
C524 O504 1.234 . S
C525 H497 0.929 . S
C525 C528 1.391 . S
C525 C530 1.391 . S
C526 H498 0.929 . S
C526 C527 1.390 . S
C526 N529 1.391 . S
C527 H499 0.930 . S
C527 C526 1.390 . S
C527 C528 1.392 . S
C528 H500 0.929 . S
C528 C525 1.391 . S
C528 C527 1.392 . S
N529 Co473 2.257 . S
N529 C526 1.391 . S
N529 C530 1.388 . S
C530 H501 0.930 . S
C530 C525 1.391 . S
C530 N529 1.388 . S
Co531 O533 2.143 . S
Co531 O539 2.074 . S
Co531 O542 2.093 1_554 S
Co531 O555 2.097 . S
Co531 N572 2.151 . S
Co531 N580 2.214 . S
Co532 O533 2.160 . S
Co532 O538 2.058 . S
Co532 O548 2.057 . S
Co532 O563 2.037 . S
Co532 N567 2.145 . S
Co532 N588 2.257 . S
O533 Co531 2.143 . S
O533 Co532 2.160 . S
C534 O535 1.278 . S
C534 O542 1.224 . S
O535 C534 1.278 . S
C536 O537 1.245 . S
C536 O548 1.232 . S
O537 C536 1.245 . S
O538 Co532 2.058 . S
O538 C564 1.269 . S
O539 Co531 2.074 . S
O539 C564 1.257 . S
H540 C565 0.930 . S
H541 C571 0.930 . S
O542 Co531 2.093 1_556 S
O542 C534 1.224 . S
H543 C575 0.929 . S
H544 C577 0.930 . S
H545 C578 0.930 . S
H546 C576 0.929 . S
H547 C579 0.928 . S
O548 Co532 2.057 . S
O548 C536 1.232 . S
H549 C568 0.929 . S
H550 C569 0.929 . S
H551 C581 0.931 . S
H552 C573 0.929 . S
H553 C582 0.886 1_565 S
H554 C574 0.931 . S
O555 Co531 2.097 . S
O555 C583 1.214 . S
H556 C584 0.929 . S
H557 C585 0.929 . S
H558 C586 0.930 . S
H559 C587 0.929 . S
H560 C589 0.930 . S
H561 C566 0.930 . S
H562 C570 0.930 . S
O563 Co532 2.037 . S
O563 C583 1.234 . S
C564 O538 1.269 . S
C564 O539 1.257 . S
C565 H540 0.930 . S
C565 C568 1.388 . S
C565 C570 1.418 . S
C566 H561 0.930 . S
C566 C569 1.404 . S
C566 C570 1.353 . S
N567 Co532 2.145 . S
N567 C568 1.397 . S
N567 C569 1.334 . S
C568 H549 0.929 . S
C568 C565 1.388 . S
C568 N567 1.397 . S
C569 H550 0.929 . S
C569 C566 1.404 . S
C569 N567 1.334 . S
C570 H562 0.930 . S
C570 C565 1.418 . S
C570 C566 1.353 . S
C571 H541 0.930 . S
C571 N572 1.330 . S
C571 C573 1.446 . S
N572 Co531 2.151 . S
N572 C571 1.330 . S
N572 C576 1.418 . S
C573 H552 0.929 . S
C573 C571 1.446 . S
C573 C574 1.332 . S
C574 H554 0.931 . S
C574 C573 1.332 . S
C574 C575 1.267 . S
C575 H543 0.929 . S
C575 C574 1.267 . S
C575 C576 1.251 . S
C576 H546 0.929 . S
C576 N572 1.418 . S
C576 C575 1.251 . S
C577 H544 0.930 . S
C577 C579 1.406 . S
C577 C582 1.261 . S
C578 H545 0.930 . S
C578 N580 1.325 . S
C578 C581 1.357 . S
C579 H547 0.928 . S
C579 C577 1.406 . S
C579 N580 1.261 . S
N580 Co531 2.214 . S
N580 C578 1.325 . S
N580 C579 1.261 . S
C581 H551 0.931 . S
C581 C578 1.357 . S
C581 C582 1.312 . S
C582 H553 0.886 1_545 S
C582 C577 1.261 . S
C582 C581 1.312 . S
C583 O555 1.214 . S
C583 O563 1.234 . S
C584 H556 0.929 . S
C584 C587 1.391 . S
C584 C589 1.391 1_556 S
C585 H557 0.929 . S
C585 C586 1.390 . S
C585 N588 1.391 . S
C586 H558 0.930 . S
C586 C585 1.390 . S
C586 C587 1.392 1_554 S
C587 H559 0.929 . S
C587 C584 1.391 . S
C587 C586 1.392 1_556 S
N588 Co532 2.257 . S
N588 C585 1.391 . S
N588 C589 1.388 . S
C589 H560 0.930 . S
C589 C584 1.391 1_554 S
C589 N588 1.388 . S
Co590 O592 2.143 . S
Co590 O598 2.074 . S
Co590 O601 2.093 . S
Co590 O614 2.097 . S
Co590 N631 2.151 . S
Co590 N639 2.214 . S
Co591 O592 2.160 . S
Co591 O597 2.058 . S
Co591 O607 2.057 . S
Co591 O622 2.037 . S
Co591 N626 2.145 . S
Co591 N647 2.257 . S
O592 Co590 2.143 . S
O592 Co591 2.160 . S
C593 O594 1.278 . S
C593 O601 1.224 . S
O594 C593 1.278 . S
C595 O596 1.245 . S
C595 O607 1.232 . S
O596 C595 1.245 . S
O597 Co591 2.058 . S
O597 C623 1.269 . S
O598 Co590 2.074 . S
O598 C623 1.257 . S
H599 C624 0.930 . S
H600 C630 0.930 . S
O601 Co590 2.093 . S
O601 C593 1.224 . S
H602 C634 0.929 . S
H603 C636 0.930 . S
H604 C637 0.930 . S
H605 C635 0.929 . S
H606 C638 0.928 . S
O607 Co591 2.057 . S
O607 C595 1.232 . S
H608 C627 0.929 . S
H609 C628 0.929 . S
H610 C640 0.931 . S
H611 C632 0.929 . S
H612 C641 0.893 1_455 S
H613 C633 0.931 . S
O614 Co590 2.097 . S
O614 C642 1.214 . S
H615 C643 0.929 . S
H616 C644 0.933 . S
H617 C645 0.930 . S
H618 C646 0.929 . S
H619 C648 0.930 . S
H620 C625 0.930 . S
H621 C629 0.930 . S
O622 Co591 2.037 . S
O622 C642 1.234 . S
C623 O597 1.269 . S
C623 O598 1.257 . S
C624 H599 0.930 . S
C624 C627 1.388 1_545 S
C624 C629 1.418 . S
C625 H620 0.930 . S
C625 C628 1.404 1_545 S
C625 C629 1.353 . S
N626 Co591 2.145 . S
N626 C627 1.397 . S
N626 C628 1.334 . S
C627 H608 0.929 . S
C627 C624 1.388 1_565 S
C627 N626 1.397 . S
C628 H609 0.929 . S
C628 C625 1.404 1_565 S
C628 N626 1.334 . S
C629 H621 0.930 . S
C629 C624 1.418 . S
C629 C625 1.353 . S
C630 H600 0.930 . S
C630 N631 1.330 . S
C630 C632 1.446 . S
N631 Co590 2.151 . S
N631 C630 1.330 . S
N631 C635 1.418 . S
C632 H611 0.929 . S
C632 C630 1.446 . S
C632 C633 1.332 . S
C633 H613 0.931 . S
C633 C632 1.332 . S
C633 C634 1.267 . S
C634 H602 0.929 . S
C634 C633 1.267 . S
C634 C635 1.251 . S
C635 H605 0.929 . S
C635 N631 1.418 . S
C635 C634 1.251 . S
C636 H603 0.930 . S
C636 C638 1.406 . S
C636 C641 1.261 . S
C637 H604 0.930 . S
C637 N639 1.325 . S
C637 C640 1.357 . S
C638 H606 0.928 . S
C638 C636 1.406 . S
C638 N639 1.261 . S
N639 Co590 2.214 . S
N639 C637 1.325 . S
N639 C638 1.261 . S
C640 H610 0.931 . S
C640 C637 1.357 . S
C640 C641 1.312 . S
C641 H612 0.893 1_655 S
C641 C636 1.261 . S
C641 C640 1.312 . S
C642 O614 1.214 . S
C642 O622 1.234 . S
C643 H615 0.929 . S
C643 C646 1.391 1_565 S
C643 C648 1.391 . S
C644 H616 0.933 . S
C644 C645 1.401 . S
C644 N647 1.376 1_545 S
C645 H617 0.930 . S
C645 C644 1.401 . S
C645 C646 1.392 . S
C646 H618 0.929 . S
C646 C643 1.391 1_545 S
C646 C645 1.392 . S
N647 Co591 2.257 . S
N647 C644 1.376 1_565 S
N647 C648 1.388 . S
C648 H619 0.930 . S
C648 C643 1.391 . S
C648 N647 1.388 . S
Co649 O651 2.143 . S
Co649 O657 2.074 . S
Co649 O660 2.093 . S
Co649 O673 2.097 . S
Co649 N690 2.151 . S
Co649 N698 2.214 . S
Co650 O651 2.160 . S
Co650 O656 2.058 . S
Co650 O666 2.057 . S
Co650 O681 2.037 . S
Co650 N685 2.145 . S
Co650 N706 2.257 . S
O651 Co649 2.143 . S
O651 Co650 2.160 . S
C652 O653 1.278 . S
C652 O660 1.224 . S
O653 C652 1.278 . S
C654 O655 1.245 . S
C654 O666 1.232 . S
O655 C654 1.245 . S
O656 Co650 2.058 . S
O656 C682 1.269 . S
O657 Co649 2.074 . S
O657 C682 1.257 . S
H658 C683 0.930 . S
H659 C689 0.930 . S
O660 Co649 2.093 . S
O660 C652 1.224 . S
H661 C693 0.929 . S
H662 C695 0.930 . S
H663 C696 0.930 . S
H664 C694 0.929 . S
H665 C697 0.928 . S
O666 Co650 2.057 . S
O666 C654 1.232 . S
H667 C686 0.929 . S
H668 C687 0.929 . S
H669 C699 0.931 . S
H670 C691 0.929 . S
H671 C700 0.930 . S
H672 C692 0.931 . S
O673 Co649 2.097 . S
O673 C701 1.214 . S
H674 C702 0.929 . S
H675 C703 0.934 . S
H676 C704 0.930 . S
H677 C705 0.929 . S
H678 C707 0.930 . S
H679 C684 0.930 . S
H680 C688 0.930 . S
O681 Co650 2.037 . S
O681 C701 1.234 . S
C682 O656 1.269 . S
C682 O657 1.257 . S
C683 H658 0.930 . S
C683 C686 1.388 1_655 S
C683 C688 1.418 . S
C684 H679 0.930 . S
C684 C687 1.404 1_655 S
C684 C688 1.353 . S
N685 Co650 2.145 . S
N685 C686 1.397 . S
N685 C687 1.334 . S
C686 H667 0.929 . S
C686 C683 1.388 1_455 S
C686 N685 1.397 . S
C687 H668 0.929 . S
C687 C684 1.404 1_455 S
C687 N685 1.334 . S
C688 H680 0.930 . S
C688 C683 1.418 . S
C688 C684 1.353 . S
C689 H659 0.930 . S
C689 N690 1.330 . S
C689 C691 1.446 . S
N690 Co649 2.151 . S
N690 C689 1.330 . S
N690 C694 1.418 . S
C691 H670 0.929 . S
C691 C689 1.446 . S
C691 C692 1.332 . S
C692 H672 0.931 . S
C692 C691 1.332 . S
C692 C693 1.267 . S
C693 H661 0.929 . S
C693 C692 1.267 . S
C693 C694 1.251 . S
C694 H664 0.929 . S
C694 N690 1.418 . S
C694 C693 1.251 . S
C695 H662 0.930 . S
C695 C697 1.406 . S
C695 C700 1.261 . S
C696 H663 0.930 . S
C696 N698 1.325 . S
C696 C699 1.357 . S
C697 H665 0.928 . S
C697 C695 1.406 . S
C697 N698 1.261 . S
N698 Co649 2.214 . S
N698 C696 1.325 . S
N698 C697 1.261 . S
C699 H669 0.931 . S
C699 C696 1.357 . S
C699 C700 1.312 . S
C700 H671 0.930 . S
C700 C695 1.261 . S
C700 C699 1.312 . S
C701 O673 1.214 . S
C701 O681 1.234 . S
C702 H674 0.929 . S
C702 C705 1.391 1_455 S
C702 C707 1.391 . S
C703 H675 0.934 . S
C703 C704 1.404 . S
C703 N706 1.373 1_655 S
C704 H676 0.930 . S
C704 C703 1.404 . S
C704 C705 1.392 . S
C705 H677 0.929 . S
C705 C702 1.391 1_655 S
C705 C704 1.392 . S
N706 Co650 2.257 . S
N706 C703 1.373 1_455 S
N706 C707 1.388 . S
C707 H678 0.930 . S
C707 C702 1.391 . S
C707 N706 1.388 . S
Co708 O710 2.143 . S
Co708 O716 2.074 . S
Co708 O719 2.093 . S
Co708 O732 2.097 . S
Co708 N749 2.151 . S
Co708 N757 2.214 . S
Co709 O710 2.160 . S
Co709 O715 2.058 . S
Co709 O725 2.057 . S
Co709 O740 2.037 . S
Co709 N744 2.145 . S
Co709 N765 2.257 . S
O710 Co708 2.143 . S
O710 Co709 2.160 . S
C711 O712 1.278 . S
C711 O719 1.224 . S
O712 C711 1.278 . S
C713 O714 1.245 . S
C713 O725 1.232 . S
O714 C713 1.245 . S
O715 Co709 2.058 . S
O715 C741 1.269 . S
O716 Co708 2.074 . S
O716 C741 1.257 . S
H717 C742 0.930 . S
H718 C748 0.930 . S
O719 Co708 2.093 . S
O719 C711 1.224 . S
H720 C752 0.929 . S
H721 C754 0.930 . S
H722 C755 0.930 . S
H723 C753 0.929 . S
H724 C756 0.928 . S
O725 Co709 2.057 . S
O725 C713 1.232 . S
H726 C745 0.929 . S
H727 C746 0.929 . S
H728 C758 0.931 . S
H729 C750 0.929 . S
H730 C759 0.930 . S
H731 C751 0.931 . S
O732 Co708 2.097 . S
O732 C760 1.214 . S
H733 C761 0.929 . S
H734 C762 0.934 . S
H735 C763 0.930 . S
H736 C764 0.929 . S
H737 C766 0.930 . S
H738 C743 0.930 . S
H739 C747 0.930 . S
O740 Co709 2.037 . S
O740 C760 1.234 . S
C741 O715 1.269 . S
C741 O716 1.257 . S
C742 H717 0.930 . S
C742 C745 1.388 1_545 S
C742 C747 1.418 . S
C743 H738 0.930 . S
C743 C746 1.404 1_545 S
C743 C747 1.353 . S
N744 Co709 2.145 . S
N744 C745 1.397 . S
N744 C746 1.334 . S
C745 H726 0.929 . S
C745 C742 1.388 1_565 S
C745 N744 1.397 . S
C746 H727 0.929 . S
C746 C743 1.404 1_565 S
C746 N744 1.334 . S
C747 H739 0.930 . S
C747 C742 1.418 . S
C747 C743 1.353 . S
C748 H718 0.930 . S
C748 N749 1.330 . S
C748 C750 1.446 . S
N749 Co708 2.151 . S
N749 C748 1.330 . S
N749 C753 1.418 . S
C750 H729 0.929 . S
C750 C748 1.446 . S
C750 C751 1.332 . S
C751 H731 0.931 . S
C751 C750 1.332 . S
C751 C752 1.267 . S
C752 H720 0.929 . S
C752 C751 1.267 . S
C752 C753 1.251 . S
C753 H723 0.929 . S
C753 N749 1.418 . S
C753 C752 1.251 . S
C754 H721 0.930 . S
C754 C756 1.406 . S
C754 C759 1.261 . S
C755 H722 0.930 . S
C755 N757 1.325 . S
C755 C758 1.357 . S
C756 H724 0.928 . S
C756 C754 1.406 . S
C756 N757 1.261 . S
N757 Co708 2.214 . S
N757 C755 1.325 . S
N757 C756 1.261 . S
C758 H728 0.931 . S
C758 C755 1.357 . S
C758 C759 1.312 . S
C759 H730 0.930 . S
C759 C754 1.261 . S
C759 C758 1.312 . S
C760 O732 1.214 . S
C760 O740 1.234 . S
C761 H733 0.929 . S
C761 C764 1.391 1_565 S
C761 C766 1.391 . S
C762 H734 0.934 . S
C762 C763 1.404 . S
C762 N765 1.373 1_545 S
C763 H735 0.930 . S
C763 C762 1.404 . S
C763 C764 1.392 . S
C764 H736 0.929 . S
C764 C761 1.391 1_545 S
C764 C763 1.392 . S
N765 Co709 2.257 . S
N765 C762 1.373 1_565 S
N765 C766 1.388 . S
C766 H737 0.930 . S
C766 C761 1.391 . S
C766 N765 1.388 . S
Co767 O769 2.143 . S
Co767 O775 2.074 . S
Co767 O778 2.093 . S
Co767 O791 2.097 . S
Co767 N808 2.151 . S
Co767 N816 2.214 . S
Co768 O769 2.160 . S
Co768 O774 2.058 . S
Co768 O784 2.057 . S
Co768 O799 2.037 . S
Co768 N803 2.145 . S
Co768 N824 2.257 . S
O769 Co767 2.143 . S
O769 Co768 2.160 . S
C770 O771 1.278 . S
C770 O778 1.224 . S
O771 C770 1.278 . S
C772 O773 1.245 . S
C772 O784 1.232 . S
O773 C772 1.245 . S
O774 Co768 2.058 . S
O774 C800 1.269 . S
O775 Co767 2.074 . S
O775 C800 1.257 . S
H776 C801 0.930 . S
H777 C807 0.930 . S
O778 Co767 2.093 . S
O778 C770 1.224 . S
H779 C811 0.929 . S
H780 C813 0.930 . S
H781 C814 0.930 . S
H782 C812 0.929 . S
H783 C815 0.928 . S
O784 Co768 2.057 . S
O784 C772 1.232 . S
H785 C804 0.929 . S
H786 C805 0.929 . S
H787 C817 0.931 . S
H788 C809 0.929 . S
H789 C818 0.893 1_565 S
H790 C810 0.931 . S
O791 Co767 2.097 . S
O791 C819 1.214 . S
H792 C820 0.929 . S
H793 C821 0.933 . S
H794 C822 0.930 . S
H795 C823 0.929 . S
H796 C825 0.930 . S
H797 C802 0.930 . S
H798 C806 0.930 . S
O799 Co768 2.037 . S
O799 C819 1.234 . S
C800 O774 1.269 . S
C800 O775 1.257 . S
C801 H776 0.930 . S
C801 C804 1.388 1_655 S
C801 C806 1.418 . S
C802 H797 0.930 . S
C802 C805 1.404 1_655 S
C802 C806 1.353 . S
N803 Co768 2.145 . S
N803 C804 1.397 . S
N803 C805 1.334 . S
C804 H785 0.929 . S
C804 C801 1.388 1_455 S
C804 N803 1.397 . S
C805 H786 0.929 . S
C805 C802 1.404 1_455 S
C805 N803 1.334 . S
C806 H798 0.930 . S
C806 C801 1.418 . S
C806 C802 1.353 . S
C807 H777 0.930 . S
C807 N808 1.330 . S
C807 C809 1.446 . S
N808 Co767 2.151 . S
N808 C807 1.330 . S
N808 C812 1.418 . S
C809 H788 0.929 . S
C809 C807 1.446 . S
C809 C810 1.332 . S
C810 H790 0.931 . S
C810 C809 1.332 . S
C810 C811 1.267 . S
C811 H779 0.929 . S
C811 C810 1.267 . S
C811 C812 1.251 . S
C812 H782 0.929 . S
C812 N808 1.418 . S
C812 C811 1.251 . S
C813 H780 0.930 . S
C813 C815 1.406 . S
C813 C818 1.261 . S
C814 H781 0.930 . S
C814 N816 1.325 . S
C814 C817 1.357 . S
C815 H783 0.928 . S
C815 C813 1.406 . S
C815 N816 1.261 . S
N816 Co767 2.214 . S
N816 C814 1.325 . S
N816 C815 1.261 . S
C817 H787 0.931 . S
C817 C814 1.357 . S
C817 C818 1.312 . S
C818 H789 0.893 1_545 S
C818 C813 1.261 . S
C818 C817 1.312 . S
C819 O791 1.214 . S
C819 O799 1.234 . S
C820 H792 0.929 . S
C820 C823 1.391 1_455 S
C820 C825 1.391 . S
C821 H793 0.933 . S
C821 C822 1.401 . S
C821 N824 1.376 1_655 S
C822 H794 0.930 . S
C822 C821 1.401 . S
C822 C823 1.392 . S
C823 H795 0.929 . S
C823 C820 1.391 1_655 S
C823 C822 1.392 . S
N824 Co768 2.257 . S
N824 C821 1.376 1_455 S
N824 C825 1.388 . S
C825 H796 0.930 . S
C825 C820 1.391 . S
C825 N824 1.388 . S
Co826 O828 2.143 . S
Co826 O834 2.074 1_554 S
Co826 O837 2.093 . S
Co826 O850 2.097 . S
Co826 N867 2.151 . S
Co826 N875 2.214 . S
Co827 O828 2.160 1_556 S
Co827 O833 2.058 . S
Co827 O843 2.057 . S
Co827 O858 2.037 . S
Co827 N862 2.145 . S
Co827 N883 2.257 1_556 S
O828 Co826 2.143 . S
O828 Co827 2.160 1_554 S
C829 O830 1.278 . S
C829 O837 1.224 . S
O830 C829 1.278 . S
C831 O832 1.245 1_556 S
C831 O843 1.232 . S
O832 C831 1.245 1_554 S
O833 Co827 2.058 . S
O833 C859 1.269 . S
O834 Co826 2.074 1_556 S
O834 C859 1.257 . S
H835 C860 0.930 . S
H836 C866 0.930 . S
O837 Co826 2.093 . S
O837 C829 1.224 . S
H838 C870 0.935 . S
H839 C872 0.930 . S
H840 C873 0.930 1_556 S
H841 C871 0.944 . S
H842 C874 0.928 . S
O843 Co827 2.057 . S
O843 C831 1.232 . S
H844 C863 0.929 . S
H845 C864 0.929 . S
H846 C876 0.931 . S
H847 C868 0.929 . S
H848 C877 0.886 1_455 S
H849 C869 0.931 . S
O850 Co826 2.097 . S
O850 C878 1.214 . S
H851 C879 0.929 . S
H852 C880 0.929 . S
H853 C881 0.930 . S
H854 C882 0.929 . S
H855 C884 0.930 . S
H856 C861 0.930 . S
H857 C865 0.930 . S
O858 Co827 2.037 . S
O858 C878 1.234 1_556 S
C859 O833 1.269 . S
C859 O834 1.257 . S
C860 H835 0.930 . S
C860 C863 1.388 . S
C860 C865 1.418 . S
C861 H856 0.930 . S
C861 C864 1.404 . S
C861 C865 1.353 . S
N862 Co827 2.145 . S
N862 C863 1.397 . S
N862 C864 1.334 . S
C863 H844 0.929 . S
C863 C860 1.388 . S
C863 N862 1.397 . S
C864 H845 0.929 . S
C864 C861 1.404 . S
C864 N862 1.334 . S
C865 H857 0.930 . S
C865 C860 1.418 . S
C865 C861 1.353 . S
C866 H836 0.930 . S
C866 N867 1.330 . S
C866 C868 1.446 . S
N867 Co826 2.151 . S
N867 C866 1.330 . S
N867 C871 1.404 1_554 S
C868 H847 0.929 . S
C868 C866 1.446 . S
C868 C869 1.332 . S
C869 H849 0.931 . S
C869 C868 1.332 . S
C869 C870 1.261 1_554 S
C870 H838 0.935 . S
C870 C869 1.261 1_556 S
C870 C871 1.251 . S
C871 H841 0.944 . S
C871 N867 1.404 1_556 S
C871 C870 1.251 . S
C872 H839 0.930 . S
C872 C874 1.406 . S
C872 C877 1.261 . S
C873 H840 0.930 1_554 S
C873 N875 1.325 . S
C873 C876 1.357 1_554 S
C874 H842 0.928 . S
C874 C872 1.406 . S
C874 N875 1.261 . S
N875 Co826 2.214 . S
N875 C873 1.325 . S
N875 C874 1.261 . S
C876 H846 0.931 . S
C876 C873 1.357 1_556 S
C876 C877 1.312 1_556 S
C877 H848 0.886 1_655 S
C877 C872 1.261 . S
C877 C876 1.312 1_554 S
C878 O850 1.214 . S
C878 O858 1.234 1_554 S
C879 H851 0.929 . S
C879 C882 1.391 . S
C879 C884 1.391 . S
C880 H852 0.929 . S
C880 C881 1.390 . S
C880 N883 1.391 . S
C881 H853 0.930 . S
C881 C880 1.390 . S
C881 C882 1.392 . S
C882 H854 0.929 . S
C882 C879 1.391 . S
C882 C881 1.392 . S
N883 Co827 2.257 1_554 S
N883 C880 1.391 . S
N883 C884 1.388 . S
C884 H855 0.930 . S
C884 C879 1.391 . S
C884 N883 1.388 . S
Co885 O887 2.143 . S
Co885 O893 2.074 . S
Co885 O896 2.093 . S
Co885 O909 2.097 . S
Co885 N926 2.151 . S
Co885 N934 2.214 . S
Co886 O887 2.160 . S
Co886 O892 2.058 . S
Co886 O902 2.057 . S
Co886 O917 2.037 . S
Co886 N921 2.145 . S
Co886 N942 2.257 . S
O887 Co885 2.143 . S
O887 Co886 2.160 . S
C888 O889 1.278 . S
C888 O896 1.224 . S
O889 C888 1.278 . S
C890 O891 1.245 . S
C890 O902 1.232 . S
O891 C890 1.245 . S
O892 Co886 2.058 . S
O892 C918 1.269 . S
O893 Co885 2.074 . S
O893 C918 1.257 . S
H894 C919 0.930 . S
H895 C925 0.930 . S
O896 Co885 2.093 . S
O896 C888 1.224 . S
H897 C929 0.929 . S
H898 C931 0.930 . S
H899 C932 0.930 . S
H900 C930 0.929 . S
H901 C933 0.928 . S
O902 Co886 2.057 . S
O902 C890 1.232 . S
H903 C922 0.929 . S
H904 C923 0.929 . S
H905 C935 0.931 . S
H906 C927 0.929 . S
H907 C936 0.930 . S
H908 C928 0.931 . S
O909 Co885 2.097 . S
O909 C937 1.214 . S
H910 C938 0.929 . S
H911 C939 0.929 . S
H912 C940 0.930 . S
H913 C941 0.929 . S
H914 C943 0.930 . S
H915 C920 0.930 . S
H916 C924 0.930 . S
O917 Co886 2.037 . S
O917 C937 1.234 . S
C918 O892 1.269 . S
C918 O893 1.257 . S
C919 H894 0.930 . S
C919 C922 1.388 . S
C919 C924 1.418 . S
C920 H915 0.930 . S
C920 C923 1.404 . S
C920 C924 1.353 . S
N921 Co886 2.145 . S
N921 C922 1.397 . S
N921 C923 1.334 . S
C922 H903 0.929 . S
C922 C919 1.388 . S
C922 N921 1.397 . S
C923 H904 0.929 . S
C923 C920 1.404 . S
C923 N921 1.334 . S
C924 H916 0.930 . S
C924 C919 1.418 . S
C924 C920 1.353 . S
C925 H895 0.930 . S
C925 N926 1.330 . S
C925 C927 1.446 . S
N926 Co885 2.151 . S
N926 C925 1.330 . S
N926 C930 1.418 . S
C927 H906 0.929 . S
C927 C925 1.446 . S
C927 C928 1.332 . S
C928 H908 0.931 . S
C928 C927 1.332 . S
C928 C929 1.267 . S
C929 H897 0.929 . S
C929 C928 1.267 . S
C929 C930 1.251 . S
C930 H900 0.929 . S
C930 N926 1.418 . S
C930 C929 1.251 . S
C931 H898 0.930 . S
C931 C933 1.406 . S
C931 C936 1.261 . S
C932 H899 0.930 . S
C932 N934 1.325 . S
C932 C935 1.357 . S
C933 H901 0.928 . S
C933 C931 1.406 . S
C933 N934 1.261 . S
N934 Co885 2.214 . S
N934 C932 1.325 . S
N934 C933 1.261 . S
C935 H905 0.931 . S
C935 C932 1.357 . S
C935 C936 1.312 . S
C936 H907 0.930 . S
C936 C931 1.261 . S
C936 C935 1.312 . S
C937 O909 1.214 . S
C937 O917 1.234 . S
C938 H910 0.929 . S
C938 C941 1.391 . S
C938 C943 1.391 . S
C939 H911 0.929 . S
C939 C940 1.390 . S
C939 N942 1.391 . S
C940 H912 0.930 . S
C940 C939 1.390 . S
C940 C941 1.392 . S
C941 H913 0.929 . S
C941 C938 1.391 . S
C941 C940 1.392 . S
N942 Co886 2.257 . S
N942 C939 1.391 . S
N942 C943 1.388 . S
C943 H914 0.930 . S
C943 C938 1.391 . S
C943 N942 1.388 . S
H944 C952 0.950 . S
H945 C957 0.950 . S
H946 C954 0.950 . S
H947 C956 0.950 . S
H948 C958 0.950 . S
H949 C960 0.950 . S
H950 C962 0.950 . S
H951 C963 0.950 . S
C952 H944 0.950 . S
C952 C953 1.386 . S
C952 C954 1.391 . S
C953 C952 1.386 . S
C953 C957 1.393 . S
C954 H946 0.950 . S
C954 C952 1.391 . S
C954 C955 1.400 . S
C955 C954 1.400 . S
C955 C956 1.398 . S
C955 C961 1.491 . S
C956 H947 0.950 . S
C956 C955 1.398 . S
C956 C957 1.391 . S
C957 H945 0.950 . S
C957 C953 1.393 . S
C957 C956 1.391 . S
C958 H948 0.950 . S
C958 C959 1.386 . S
C958 C960 1.391 . S
C959 C958 1.386 . S
C959 C963 1.393 . S
C960 H949 0.950 . S
C960 C958 1.391 . S
C960 C961 1.400 . S
C961 C955 1.491 . S
C961 C960 1.400 . S
C961 C962 1.398 . S
C962 H950 0.950 . S
C962 C961 1.398 . S
C962 C963 1.391 . S
C963 H951 0.950 . S
C963 C959 1.393 . S
C963 C962 1.391 . S
H964 C972 0.950 . S
H965 C977 0.950 . S
H966 C974 0.950 . S
H967 C976 0.950 . S
H968 C978 0.950 . S
H969 C980 0.950 . S
H970 C982 0.950 . S
H971 C983 0.950 . S
C972 H964 0.950 . S
C972 C973 1.386 . S
C972 C974 1.391 . S
C973 C972 1.386 . S
C973 C977 1.393 . S
C974 H966 0.950 . S
C974 C972 1.391 . S
C974 C975 1.400 . S
C975 C974 1.400 . S
C975 C976 1.398 . S
C975 C981 1.491 . S
C976 H967 0.950 . S
C976 C975 1.398 . S
C976 C977 1.391 . S
C977 H965 0.950 . S
C977 C973 1.393 . S
C977 C976 1.391 . S
C978 H968 0.950 . S
C978 C979 1.386 . S
C978 C980 1.391 . S
C979 C978 1.386 . S
C979 C983 1.393 . S
C980 H969 0.950 . S
C980 C978 1.391 . S
C980 C981 1.400 . S
C981 C975 1.491 . S
C981 C980 1.400 . S
C981 C982 1.398 . S
C982 H970 0.950 . S
C982 C981 1.398 . S
C982 C983 1.391 . S
C983 H971 0.950 . S
C983 C979 1.393 . S
C983 C982 1.391 . S
H984 C992 0.950 . S
H985 C997 0.950 . S
H986 C994 0.950 . S
H987 C996 0.950 . S
H988 C998 0.950 . S
H989 C1000 0.950 . S
H990 C1002 0.950 . S
H991 C1003 0.950 . S
C992 H984 0.950 . S
C992 C993 1.386 . S
C992 C994 1.391 . S
C993 C992 1.386 . S
C993 C997 1.393 . S
C994 H986 0.950 . S
C994 C992 1.391 . S
C994 C995 1.400 . S
C995 C994 1.400 . S
C995 C996 1.398 . S
C995 C1001 1.491 . S
C996 H987 0.950 . S
C996 C995 1.398 . S
C996 C997 1.391 . S
C997 H985 0.950 . S
C997 C993 1.393 . S
C997 C996 1.391 . S
C998 H988 0.950 . S
C998 C999 1.386 . S
C998 C1000 1.391 . S
C999 C998 1.386 . S
C999 C1003 1.393 . S
C1000 H989 0.950 . S
C1000 C998 1.391 . S
C1000 C1001 1.400 . S
C1001 C995 1.491 . S
C1001 C1000 1.400 . S
C1001 C1002 1.398 . S
C1002 H990 0.950 . S
C1002 C1001 1.398 . S
C1002 C1003 1.391 . S
C1003 H991 0.950 . S
C1003 C999 1.393 . S
C1003 C1002 1.391 . S
H1004 C1012 0.950 . S
H1005 C1017 0.950 . S
H1006 C1014 0.950 . S
H1007 C1016 0.950 . S
H1008 C1018 0.950 . S
H1009 C1020 0.950 . S
H1010 C1022 0.950 . S
H1011 C1023 0.950 . S
C1012 H1004 0.950 . S
C1012 C1013 1.386 . S
C1012 C1014 1.391 . S
C1013 C1012 1.386 . S
C1013 C1017 1.393 . S
C1014 H1006 0.950 . S
C1014 C1012 1.391 . S
C1014 C1015 1.400 . S
C1015 C1014 1.400 . S
C1015 C1016 1.398 . S
C1015 C1021 1.491 . S
C1016 H1007 0.950 . S
C1016 C1015 1.398 . S
C1016 C1017 1.391 . S
C1017 H1005 0.950 . S
C1017 C1013 1.393 . S
C1017 C1016 1.391 . S
C1018 H1008 0.950 . S
C1018 C1019 1.386 . S
C1018 C1020 1.391 . S
C1019 C1018 1.386 . S
C1019 C1023 1.393 . S
C1020 H1009 0.950 . S
C1020 C1018 1.391 . S
C1020 C1021 1.400 . S
C1021 C1015 1.491 . S
C1021 C1020 1.400 . S
C1021 C1022 1.398 . S
C1022 H1010 0.950 . S
C1022 C1021 1.398 . S
C1022 C1023 1.391 . S
C1023 H1011 0.950 . S
C1023 C1019 1.393 . S
C1023 C1022 1.391 . S
H1024 C1032 0.950 . S
H1025 C1037 0.950 . S
H1026 C1034 0.950 . S
H1027 C1036 0.950 . S
H1028 C1038 0.950 1_554 S
H1029 C1040 0.950 . S
H1030 C1042 0.950 . S
H1031 C1043 0.950 . S
C1032 H1024 0.950 . S
C1032 C1033 1.386 . S
C1032 C1034 1.391 . S
C1033 C1032 1.386 . S
C1033 C1037 1.393 . S
C1034 H1026 0.950 . S
C1034 C1032 1.391 . S
C1034 C1035 1.400 . S
C1035 C1034 1.400 . S
C1035 C1036 1.398 . S
C1035 C1041 1.491 . S
C1036 H1027 0.950 . S
C1036 C1035 1.398 . S
C1036 C1037 1.391 . S
C1037 H1025 0.950 . S
C1037 C1033 1.393 . S
C1037 C1036 1.391 . S
C1038 H1028 0.950 1_556 S
C1038 C1039 1.386 . S
C1038 C1040 1.391 . S
C1039 C1038 1.386 . S
C1039 C1043 1.393 . S
C1040 H1029 0.950 . S
C1040 C1038 1.391 . S
C1040 C1041 1.400 . S
C1041 C1035 1.491 . S
C1041 C1040 1.400 . S
C1041 C1042 1.398 . S
C1042 H1030 0.950 . S
C1042 C1041 1.398 . S
C1042 C1043 1.391 . S
C1043 H1031 0.950 . S
C1043 C1039 1.393 . S
C1043 C1042 1.391 . S
H1044 C1052 0.950 . S
H1045 C1057 0.950 . S
H1046 C1054 0.950 . S
H1047 C1056 0.950 . S
H1048 C1058 0.950 . S
H1049 C1060 0.950 . S
H1050 C1062 0.950 . S
H1051 C1063 0.950 . S
C1052 H1044 0.950 . S
C1052 C1053 1.386 . S
C1052 C1054 1.391 . S
C1053 C1052 1.386 . S
C1053 C1057 1.393 . S
C1054 H1046 0.950 . S
C1054 C1052 1.391 . S
C1054 C1055 1.400 . S
C1055 C1054 1.400 . S
C1055 C1056 1.398 . S
C1055 C1061 1.491 . S
C1056 H1047 0.950 . S
C1056 C1055 1.398 . S
C1056 C1057 1.391 . S
C1057 H1045 0.950 . S
C1057 C1053 1.393 . S
C1057 C1056 1.391 . S
C1058 H1048 0.950 . S
C1058 C1059 1.386 . S
C1058 C1060 1.391 . S
C1059 C1058 1.386 . S
C1059 C1063 1.393 . S
C1060 H1049 0.950 . S
C1060 C1058 1.391 . S
C1060 C1061 1.400 . S
C1061 C1055 1.491 . S
C1061 C1060 1.400 . S
C1061 C1062 1.398 . S
C1062 H1050 0.950 . S
C1062 C1061 1.398 . S
C1062 C1063 1.391 . S
C1063 H1051 0.950 . S
C1063 C1059 1.393 . S
C1063 C1062 1.391 . S
H1064 C1072 0.950 . S
H1065 C1077 0.950 . S
H1066 C1074 0.950 . S
H1067 C1076 0.950 . S
H1068 C1078 0.950 . S
H1069 C1080 0.950 . S
H1070 C1082 0.950 . S
H1071 C1083 0.950 . S
C1072 H1064 0.950 . S
C1072 C1073 1.386 . S
C1072 C1074 1.391 . S
C1073 C1072 1.386 . S
C1073 C1077 1.393 . S
C1074 H1066 0.950 . S
C1074 C1072 1.391 . S
C1074 C1075 1.400 . S
C1075 C1074 1.400 . S
C1075 C1076 1.398 . S
C1075 C1081 1.491 . S
C1076 H1067 0.950 . S
C1076 C1075 1.398 . S
C1076 C1077 1.391 . S
C1077 H1065 0.950 . S
C1077 C1073 1.393 . S
C1077 C1076 1.391 . S
C1078 H1068 0.950 . S
C1078 C1079 1.386 . S
C1078 C1080 1.391 . S
C1079 C1078 1.386 . S
C1079 C1083 1.393 . S
C1080 H1069 0.950 . S
C1080 C1078 1.391 . S
C1080 C1081 1.400 . S
C1081 C1075 1.491 . S
C1081 C1080 1.400 . S
C1081 C1082 1.398 . S
C1082 H1070 0.950 . S
C1082 C1081 1.398 . S
C1082 C1083 1.391 . S
C1083 H1071 0.950 . S
C1083 C1079 1.393 . S
C1083 C1082 1.391 . S
H1084 C1092 0.950 . S
H1085 C1097 0.950 . S
H1086 C1094 0.950 . S
H1087 C1096 0.950 . S
H1088 C1098 0.950 . S
H1089 C1100 0.950 . S
H1090 C1102 0.950 . S
H1091 C1103 0.950 . S
C1092 H1084 0.950 . S
C1092 C1093 1.386 . S
C1092 C1094 1.391 . S
C1093 C1092 1.386 . S
C1093 C1097 1.393 . S
C1094 H1086 0.950 . S
C1094 C1092 1.391 . S
C1094 C1095 1.400 . S
C1095 C1094 1.400 . S
C1095 C1096 1.398 . S
C1095 C1101 1.491 . S
C1096 H1087 0.950 . S
C1096 C1095 1.398 . S
C1096 C1097 1.391 . S
C1097 H1085 0.950 . S
C1097 C1093 1.393 . S
C1097 C1096 1.391 . S
C1098 H1088 0.950 . S
C1098 C1099 1.386 . S
C1098 C1100 1.391 . S
C1099 C1098 1.386 . S
C1099 C1103 1.393 . S
C1100 H1089 0.950 . S
C1100 C1098 1.391 . S
C1100 C1101 1.400 . S
C1101 C1095 1.491 . S
C1101 C1100 1.400 . S
C1101 C1102 1.398 . S
C1102 H1090 0.950 . S
C1102 C1101 1.398 . S
C1102 C1103 1.391 . S
C1103 H1091 0.950 . S
C1103 C1099 1.393 . S
C1103 C1102 1.391 . S
H1104 C1112 0.950 . S
H1105 C1117 0.950 . S
H1106 C1114 0.950 1_565 S
H1107 C1116 0.950 . S
H1108 C1118 0.950 . S
H1109 C1120 0.950 1_545 S
H1110 C1122 0.950 . S
H1111 C1123 0.950 . S
C1112 H1104 0.950 . S
C1112 C1113 1.386 . S
C1112 C1114 1.391 . S
C1113 C1112 1.386 . S
C1113 C1117 1.393 . S
C1114 H1106 0.950 1_545 S
C1114 C1112 1.391 . S
C1114 C1115 1.400 . S
C1115 C1114 1.400 . S
C1115 C1116 1.398 . S
C1115 C1121 1.491 1_445 S
C1116 H1107 0.950 . S
C1116 C1115 1.398 . S
C1116 C1117 1.391 . S
C1117 H1105 0.950 . S
C1117 C1113 1.393 . S
C1117 C1116 1.391 . S
C1118 H1108 0.950 . S
C1118 C1119 1.386 . S
C1118 C1120 1.391 . S
C1119 C1118 1.386 . S
C1119 C1123 1.393 . S
C1120 H1109 0.950 1_565 S
C1120 C1118 1.391 . S
C1120 C1121 1.400 . S
C1121 C1115 1.491 1_665 S
C1121 C1120 1.400 . S
C1121 C1122 1.398 . S
C1122 H1110 0.950 . S
C1122 C1121 1.398 . S
C1122 C1123 1.391 . S
C1123 H1111 0.950 . S
C1123 C1119 1.393 . S
C1123 C1122 1.391 . S
H1124 C1132 0.950 . S
H1125 C1137 0.950 . S
H1126 C1134 0.950 1_455 S
H1127 C1136 0.950 . S
H1128 C1138 0.950 . S
H1129 C1140 0.950 1_655 S
H1130 C1142 0.950 . S
H1131 C1143 0.950 . S
C1132 H1124 0.950 . S
C1132 C1133 1.386 . S
C1132 C1134 1.391 . S
C1133 C1132 1.386 . S
C1133 C1137 1.393 . S
C1134 H1126 0.950 1_655 S
C1134 C1132 1.391 . S
C1134 C1135 1.400 . S
C1135 C1134 1.400 . S
C1135 C1136 1.398 . S
C1135 C1141 1.491 1_655 S
C1136 H1127 0.950 . S
C1136 C1135 1.398 . S
C1136 C1137 1.391 . S
C1137 H1125 0.950 . S
C1137 C1133 1.393 . S
C1137 C1136 1.391 . S
C1138 H1128 0.950 . S
C1138 C1139 1.386 . S
C1138 C1140 1.391 . S
C1139 C1138 1.386 . S
C1139 C1143 1.393 . S
C1140 H1129 0.950 1_455 S
C1140 C1138 1.391 . S
C1140 C1141 1.400 . S
C1141 C1135 1.491 1_455 S
C1141 C1140 1.400 . S
C1141 C1142 1.398 . S
C1142 H1130 0.950 . S
C1142 C1141 1.398 . S
C1142 C1143 1.391 . S
C1143 H1131 0.950 . S
C1143 C1139 1.393 . S
C1143 C1142 1.391 . S
H1144 C1152 0.950 . S
H1145 C1157 0.950 . S
H1146 C1154 0.950 . S
H1147 C1156 0.950 . S
H1148 C1158 0.950 . S
H1149 C1160 0.950 . S
H1150 C1162 0.950 . S
H1151 C1163 0.950 . S
C1152 H1144 0.950 . S
C1152 C1153 1.386 . S
C1152 C1154 1.391 . S
C1153 C1152 1.386 . S
C1153 C1157 1.393 . S
C1154 H1146 0.950 . S
C1154 C1152 1.391 . S
C1154 C1155 1.400 . S
C1155 C1154 1.400 . S
C1155 C1156 1.398 . S
C1155 C1161 1.491 . S
C1156 H1147 0.950 . S
C1156 C1155 1.398 . S
C1156 C1157 1.391 . S
C1157 H1145 0.950 . S
C1157 C1153 1.393 . S
C1157 C1156 1.391 . S
C1158 H1148 0.950 . S
C1158 C1159 1.386 . S
C1158 C1160 1.391 . S
C1159 C1158 1.386 . S
C1159 C1163 1.393 . S
C1160 H1149 0.950 . S
C1160 C1158 1.391 . S
C1160 C1161 1.400 . S
C1161 C1155 1.491 . S
C1161 C1160 1.400 . S
C1161 C1162 1.398 . S
C1162 H1150 0.950 . S
C1162 C1161 1.398 . S
C1162 C1163 1.391 . S
C1163 H1151 0.950 . S
C1163 C1159 1.393 . S
C1163 C1162 1.391 . S
H1164 C1172 0.950 . S
H1165 C1177 0.950 . S
H1166 C1174 0.950 . S
H1167 C1176 0.914 1_545 S
H1168 C1178 0.950 . S
H1169 C1180 0.950 . S
H1170 C1182 0.914 1_565 S
H1171 C1183 0.950 . S
C1172 H1164 0.950 . S
C1172 C1173 1.386 . S
C1172 C1174 1.391 . S
C1173 C1172 1.386 . S
C1173 C1177 1.393 . S
C1174 H1166 0.950 . S
C1174 C1172 1.391 . S
C1174 C1175 1.400 . S
C1175 C1174 1.400 . S
C1175 C1176 1.398 . S
C1175 C1181 1.491 1_565 S
C1176 H1167 0.914 1_565 S
C1176 C1175 1.398 . S
C1176 C1177 1.391 . S
C1177 H1165 0.950 . S
C1177 C1173 1.393 . S
C1177 C1176 1.391 . S
C1178 H1168 0.950 . S
C1178 C1179 1.386 . S
C1178 C1180 1.391 . S
C1179 C1178 1.386 . S
C1179 C1183 1.393 . S
C1180 H1169 0.950 . S
C1180 C1178 1.391 . S
C1180 C1181 1.400 . S
C1181 C1175 1.491 1_545 S
C1181 C1180 1.400 . S
C1181 C1182 1.398 . S
C1182 H1170 0.914 1_545 S
C1182 C1181 1.398 . S
C1182 C1183 1.391 . S
C1183 H1171 0.950 . S
C1183 C1179 1.393 . S
C1183 C1182 1.391 . S
H1184 C1192 0.950 . S
H1185 C1197 0.950 . S
H1186 C1194 0.985 . S
H1187 C1196 0.950 . S
H1188 C1198 0.950 . S
H1189 C1200 0.985 . S
H1190 C1202 0.950 . S
H1191 C1203 0.950 . S
C1192 H1184 0.950 . S
C1192 C1193 1.386 . S
C1192 C1194 1.391 . S
C1193 C1192 1.386 . S
C1193 C1197 1.393 1_554 S
C1194 H1186 0.985 . S
C1194 C1192 1.391 . S
C1194 C1195 1.400 . S
C1195 C1194 1.400 . S
C1195 C1196 1.398 1_554 S
C1195 C1201 1.491 1_455 S
C1196 H1187 0.950 . S
C1196 C1195 1.398 1_556 S
C1196 C1197 1.391 . S
C1197 H1185 0.950 . S
C1197 C1193 1.393 1_556 S
C1197 C1196 1.391 . S
C1198 H1188 0.950 . S
C1198 C1199 1.386 1_556 S
C1198 C1200 1.391 . S
C1199 C1198 1.386 1_554 S
C1199 C1203 1.393 . S
C1200 H1189 0.985 . S
C1200 C1198 1.391 . S
C1200 C1201 1.400 1_556 S
C1201 C1195 1.491 1_655 S
C1201 C1200 1.400 1_554 S
C1201 C1202 1.398 . S
C1202 H1190 0.950 . S
C1202 C1201 1.398 . S
C1202 C1203 1.391 . S
C1203 H1191 0.950 . S
C1203 C1199 1.393 . S
C1203 C1202 1.391 . S
H1204 C1212 0.950 . S
H1205 C1217 0.950 . S
H1206 C1214 0.950 . S
H1207 C1216 0.950 . S
H1208 C1218 0.950 . S
H1209 C1220 0.950 . S
H1210 C1222 0.950 . S
H1211 C1223 0.950 . S
C1212 H1204 0.950 . S
C1212 C1213 1.386 . S
C1212 C1214 1.391 . S
C1213 C1212 1.386 . S
C1213 C1217 1.393 . S
C1214 H1206 0.950 . S
C1214 C1212 1.391 . S
C1214 C1215 1.400 . S
C1215 C1214 1.400 . S
C1215 C1216 1.398 . S
C1215 C1221 1.491 . S
C1216 H1207 0.950 . S
C1216 C1215 1.398 . S
C1216 C1217 1.391 . S
C1217 H1205 0.950 . S
C1217 C1213 1.393 . S
C1217 C1216 1.391 . S
C1218 H1208 0.950 . S
C1218 C1219 1.386 . S
C1218 C1220 1.391 . S
C1219 C1218 1.386 . S
C1219 C1223 1.393 . S
C1220 H1209 0.950 . S
C1220 C1218 1.391 . S
C1220 C1221 1.400 . S
C1221 C1215 1.491 . S
C1221 C1220 1.400 . S
C1221 C1222 1.398 . S
C1222 H1210 0.950 . S
C1222 C1221 1.398 . S
C1222 C1223 1.391 . S
C1223 H1211 0.950 . S
C1223 C1219 1.393 . S
C1223 C1222 1.391 . S
H1224 C1232 0.950 . S
H1225 C1237 0.950 . S
H1226 C1234 0.950 . S
H1227 C1236 0.989 . S
H1228 C1238 0.950 . S
H1229 C1240 0.950 . S
H1230 C1242 0.989 . S
H1231 C1243 0.950 . S
C1232 H1224 0.950 . S
C1232 C1233 1.386 . S
C1232 C1234 1.391 . S
C1233 C1232 1.386 . S
C1233 C1237 1.393 . S
C1234 H1226 0.950 . S
C1234 C1232 1.391 . S
C1234 C1235 1.400 . S
C1235 C1234 1.400 . S
C1235 C1236 1.385 1_545 S
C1235 C1241 1.491 1_545 S
C1236 H1227 0.989 . S
C1236 C1235 1.385 1_565 S
C1236 C1237 1.368 1_565 S
C1237 H1225 0.950 . S
C1237 C1233 1.393 . S
C1237 C1236 1.368 1_545 S
C1238 H1228 0.950 . S
C1238 C1239 1.386 . S
C1238 C1240 1.391 . S
C1239 C1238 1.386 . S
C1239 C1243 1.393 . S
C1240 H1229 0.950 . S
C1240 C1238 1.391 . S
C1240 C1241 1.400 . S
C1241 C1235 1.491 1_565 S
C1241 C1240 1.400 . S
C1241 C1242 1.385 1_565 S
C1242 H1230 0.989 . S
C1242 C1241 1.385 1_545 S
C1242 C1243 1.368 1_545 S
C1243 H1231 0.950 . S
C1243 C1239 1.393 . S
C1243 C1242 1.368 1_565 S
H1244 C1252 0.950 . S
H1245 C1257 0.950 . S
H1246 C1254 0.950 . S
H1247 C1256 0.950 . S
H1248 C1258 0.950 . S
H1249 C1260 0.950 . S
H1250 C1262 0.950 . S
H1251 C1263 0.950 . S
C1252 H1244 0.950 . S
C1252 C1253 1.386 . S
C1252 C1254 1.391 1_455 S
C1253 C1252 1.386 . S
C1253 C1257 1.393 . S
C1254 H1246 0.950 . S
C1254 C1252 1.391 1_655 S
C1254 C1255 1.400 1_655 S
C1255 C1254 1.400 1_455 S
C1255 C1256 1.398 . S
C1255 C1261 1.491 1_445 S
C1256 H1247 0.950 . S
C1256 C1255 1.398 . S
C1256 C1257 1.391 . S
C1257 H1245 0.950 . S
C1257 C1253 1.393 . S
C1257 C1256 1.391 . S
C1258 H1248 0.950 . S
C1258 C1259 1.386 . S
C1258 C1260 1.391 1_655 S
C1259 C1258 1.386 . S
C1259 C1263 1.393 . S
C1260 H1249 0.950 . S
C1260 C1258 1.391 1_455 S
C1260 C1261 1.400 1_455 S
C1261 C1255 1.491 1_665 S
C1261 C1260 1.400 1_655 S
C1261 C1262 1.398 . S
C1262 H1250 0.950 . S
C1262 C1261 1.398 . S
C1262 C1263 1.391 . S
C1263 H1251 0.950 . S
C1263 C1259 1.393 . S
C1263 C1262 1.391 . S
H1264 C1272 0.950 . S
H1265 C1277 0.950 . S
H1266 C1274 0.950 . S
H1267 C1276 0.950 . S
H1268 C1278 0.950 . S
H1269 C1280 0.950 . S
H1270 C1282 0.950 . S
H1271 C1283 0.950 . S
C1272 H1264 0.950 . S
C1272 C1273 1.386 . S
C1272 C1274 1.391 . S
C1273 C1272 1.386 . S
C1273 C1277 1.393 . S
C1274 H1266 0.950 . S
C1274 C1272 1.391 . S
C1274 C1275 1.400 . S
C1275 C1274 1.400 . S
C1275 C1276 1.398 . S
C1275 C1281 1.491 . S
C1276 H1267 0.950 . S
C1276 C1275 1.398 . S
C1276 C1277 1.391 . S
C1277 H1265 0.950 . S
C1277 C1273 1.393 . S
C1277 C1276 1.391 . S
C1278 H1268 0.950 . S
C1278 C1279 1.386 . S
C1278 C1280 1.391 . S
C1279 C1278 1.386 . S
C1279 C1283 1.393 . S
C1280 H1269 0.950 . S
C1280 C1278 1.391 . S
C1280 C1281 1.400 . S
C1281 C1275 1.491 . S
C1281 C1280 1.400 . S
C1281 C1282 1.398 . S
C1282 H1270 0.950 . S
C1282 C1281 1.398 . S
C1282 C1283 1.391 . S
C1283 H1271 0.950 . S
C1283 C1279 1.393 . S
C1283 C1282 1.391 . S
H1284 C1292 0.950 . S
H1285 C1297 0.950 . S
H1286 C1294 0.950 . S
H1287 C1296 0.950 . S
H1288 C1298 0.950 . S
H1289 C1300 0.950 . S
H1290 C1302 0.950 . S
H1291 C1303 0.950 . S
C1292 H1284 0.950 . S
C1292 C1293 1.386 . S
C1292 C1294 1.391 . S
C1293 C1292 1.386 . S
C1293 C1297 1.393 . S
C1294 H1286 0.950 . S
C1294 C1292 1.391 . S
C1294 C1295 1.400 . S
C1295 C1294 1.400 . S
C1295 C1296 1.398 . S
C1295 C1301 1.491 . S
C1296 H1287 0.950 . S
C1296 C1295 1.398 . S
C1296 C1297 1.391 . S
C1297 H1285 0.950 . S
C1297 C1293 1.393 . S
C1297 C1296 1.391 . S
C1298 H1288 0.950 . S
C1298 C1299 1.386 . S
C1298 C1300 1.391 . S
C1299 C1298 1.386 . S
C1299 C1303 1.393 . S
C1300 H1289 0.950 . S
C1300 C1298 1.391 . S
C1300 C1301 1.400 . S
C1301 C1295 1.491 . S
C1301 C1300 1.400 . S
C1301 C1302 1.398 . S
C1302 H1290 0.950 . S
C1302 C1301 1.398 . S
C1302 C1303 1.391 . S
C1303 H1291 0.950 . S
C1303 C1299 1.393 . S
C1303 C1302 1.391 . S
H1304 C1312 0.950 . S
H1305 C1317 0.950 . S
H1306 C1314 0.950 . S
H1307 C1316 0.950 . S
H1308 C1318 0.950 . S
H1309 C1320 0.956 . S
H1310 C1322 0.950 1_554 S
H1311 C1323 0.950 . S
C1312 H1304 0.950 . S
C1312 C1313 1.386 . S
C1312 C1314 1.391 . S
C1313 C1312 1.386 . S
C1313 C1317 1.393 . S
C1314 H1306 0.950 . S
C1314 C1312 1.391 . S
C1314 C1315 1.400 . S
C1315 C1314 1.400 . S
C1315 C1316 1.398 . S
C1315 C1321 1.491 . S
C1316 H1307 0.950 . S
C1316 C1315 1.398 . S
C1316 C1317 1.391 . S
C1317 H1305 0.950 . S
C1317 C1313 1.393 . S
C1317 C1316 1.391 . S
C1318 H1308 0.950 . S
C1318 C1319 1.386 . S
C1318 C1320 1.381 1_556 S
C1319 C1318 1.386 . S
C1319 C1323 1.393 . S
C1320 H1309 0.956 . S
C1320 C1318 1.381 1_554 S
C1320 C1321 1.405 . S
C1321 C1315 1.491 . S
C1321 C1320 1.405 . S
C1321 C1322 1.398 1_554 S
C1322 H1310 0.950 1_556 S
C1322 C1321 1.398 1_556 S
C1322 C1323 1.391 . S
C1323 H1311 0.950 . S
C1323 C1319 1.393 . S
C1323 C1322 1.391 . S
H1324 C1332 0.950 . S
H1325 C1337 0.950 . S
H1326 C1334 0.950 . S
H1327 C1336 0.950 . S
H1328 C1338 0.950 . S
H1329 C1340 0.950 . S
H1330 C1342 0.950 . S
H1331 C1343 0.950 . S
C1332 H1324 0.950 . S
C1332 C1333 1.386 . S
C1332 C1334 1.391 . S
C1333 C1332 1.386 . S
C1333 C1337 1.393 . S
C1334 H1326 0.950 . S
C1334 C1332 1.391 . S
C1334 C1335 1.400 . S
C1335 C1334 1.400 . S
C1335 C1336 1.398 . S
C1335 C1341 1.491 . S
C1336 H1327 0.950 . S
C1336 C1335 1.398 . S
C1336 C1337 1.391 . S
C1337 H1325 0.950 . S
C1337 C1333 1.393 . S
C1337 C1336 1.391 . S
C1338 H1328 0.950 . S
C1338 C1339 1.386 . S
C1338 C1340 1.391 . S
C1339 C1338 1.386 . S
C1339 C1343 1.393 . S
C1340 H1329 0.950 . S
C1340 C1338 1.391 . S
C1340 C1341 1.400 . S
C1341 C1335 1.491 . S
C1341 C1340 1.400 . S
C1341 C1342 1.398 . S
C1342 H1330 0.950 . S
C1342 C1341 1.398 . S
C1342 C1343 1.391 . S
C1343 H1331 0.950 . S
C1343 C1339 1.393 . S
C1343 C1342 1.391 . S
H1344 C1352 0.950 . S
H1345 C1357 0.950 . S
H1346 C1354 0.950 . S
H1347 C1356 0.950 . S
H1348 C1358 0.950 . S
H1349 C1360 0.950 . S
H1350 C1362 0.950 . S
H1351 C1363 0.950 . S
C1352 H1344 0.950 . S
C1352 C1353 1.386 . S
C1352 C1354 1.391 . S
C1353 C1352 1.386 . S
C1353 C1357 1.393 . S
C1354 H1346 0.950 . S
C1354 C1352 1.391 . S
C1354 C1355 1.400 . S
C1355 C1354 1.400 . S
C1355 C1356 1.398 . S
C1355 C1361 1.491 . S
C1356 H1347 0.950 . S
C1356 C1355 1.398 . S
C1356 C1357 1.391 . S
C1357 H1345 0.950 . S
C1357 C1353 1.393 . S
C1357 C1356 1.391 . S
C1358 H1348 0.950 . S
C1358 C1359 1.386 . S
C1358 C1360 1.391 . S
C1359 C1358 1.386 . S
C1359 C1363 1.393 . S
C1360 H1349 0.950 . S
C1360 C1358 1.391 . S
C1360 C1361 1.400 . S
C1361 C1355 1.491 . S
C1361 C1360 1.400 . S
C1361 C1362 1.398 . S
C1362 H1350 0.950 . S
C1362 C1361 1.398 . S
C1362 C1363 1.391 . S
C1363 H1351 0.950 . S
C1363 C1359 1.393 . S
C1363 C1362 1.391 . S
H1364 C1372 0.950 . S
H1365 C1377 0.950 . S
H1366 C1374 0.950 . S
H1367 C1376 0.950 . S
H1368 C1378 0.950 . S
H1369 C1380 0.951 . S
H1370 C1382 0.950 1_554 S
H1371 C1383 0.950 . S
C1372 H1364 0.950 . S
C1372 C1373 1.386 . S
C1372 C1374 1.391 . S
C1373 C1372 1.386 . S
C1373 C1377 1.393 . S
C1374 H1366 0.950 . S
C1374 C1372 1.391 . S
C1374 C1375 1.400 . S
C1375 C1374 1.400 . S
C1375 C1376 1.398 . S
C1375 C1381 1.491 . S
C1376 H1367 0.950 . S
C1376 C1375 1.398 . S
C1376 C1377 1.391 . S
C1377 H1365 0.950 . S
C1377 C1373 1.393 . S
C1377 C1376 1.391 . S
C1378 H1368 0.950 . S
C1378 C1379 1.386 . S
C1378 C1380 1.390 1_556 S
C1379 C1378 1.386 . S
C1379 C1383 1.393 . S
C1380 H1369 0.951 . S
C1380 C1378 1.390 1_554 S
C1380 C1381 1.401 . S
C1381 C1375 1.491 . S
C1381 C1380 1.401 . S
C1381 C1382 1.398 1_554 S
C1382 H1370 0.950 1_556 S
C1382 C1381 1.398 1_556 S
C1382 C1383 1.391 . S
C1383 H1371 0.950 . S
C1383 C1379 1.393 . S
C1383 C1382 1.391 . S
H1384 C1392 0.950 . S
H1385 C1397 0.950 . S
H1386 C1394 0.950 . S
H1387 C1396 0.950 . S
H1388 C1398 0.950 . S
H1389 C1400 0.950 . S
H1390 C1402 0.950 . S
H1391 C1403 0.950 . S
C1392 H1384 0.950 . S
C1392 C1393 1.386 . S
C1392 C1394 1.391 . S
C1393 C1392 1.386 . S
C1393 C1397 1.393 . S
C1394 H1386 0.950 . S
C1394 C1392 1.391 . S
C1394 C1395 1.400 . S
C1395 C1394 1.400 . S
C1395 C1396 1.398 . S
C1395 C1401 1.491 . S
C1396 H1387 0.950 . S
C1396 C1395 1.398 . S
C1396 C1397 1.391 . S
C1397 H1385 0.950 . S
C1397 C1393 1.393 . S
C1397 C1396 1.391 . S
C1398 H1388 0.950 . S
C1398 C1399 1.386 . S
C1398 C1400 1.391 . S
C1399 C1398 1.386 . S
C1399 C1403 1.393 . S
C1400 H1389 0.950 . S
C1400 C1398 1.391 . S
C1400 C1401 1.400 . S
C1401 C1395 1.491 . S
C1401 C1400 1.400 . S
C1401 C1402 1.398 . S
C1402 H1390 0.950 . S
C1402 C1401 1.398 . S
C1402 C1403 1.391 . S
C1403 H1391 0.950 . S
C1403 C1399 1.393 . S
C1403 C1402 1.391 . S
H1404 C1412 0.950 . S
H1405 C1417 0.950 . S
H1406 C1414 0.950 . S
H1407 C1416 0.950 . S
H1408 C1418 0.950 . S
H1409 C1420 0.950 . S
H1410 C1422 0.950 . S
H1411 C1423 0.950 . S
C1412 H1404 0.950 . S
C1412 C1413 1.386 . S
C1412 C1414 1.391 . S
C1413 C1412 1.386 . S
C1413 C1417 1.393 . S
C1414 H1406 0.950 . S
C1414 C1412 1.391 . S
C1414 C1415 1.400 . S
C1415 C1414 1.400 . S
C1415 C1416 1.398 . S
C1415 C1421 1.491 . S
C1416 H1407 0.950 . S
C1416 C1415 1.398 . S
C1416 C1417 1.391 . S
C1417 H1405 0.950 . S
C1417 C1413 1.393 . S
C1417 C1416 1.391 . S
C1418 H1408 0.950 . S
C1418 C1419 1.386 . S
C1418 C1420 1.391 . S
C1419 C1418 1.386 . S
C1419 C1423 1.393 . S
C1420 H1409 0.950 . S
C1420 C1418 1.391 . S
C1420 C1421 1.400 . S
C1421 C1415 1.491 . S
C1421 C1420 1.400 . S
C1421 C1422 1.398 . S
C1422 H1410 0.950 . S
C1422 C1421 1.398 . S
C1422 C1423 1.391 . S
C1423 H1411 0.950 . S
C1423 C1419 1.393 . S
C1423 C1422 1.391 . S
H1424 C1432 0.950 . S
H1425 C1437 0.950 . S
H1426 C1434 0.950 . S
H1427 C1436 0.950 . S
H1428 C1438 0.950 . S
H1429 C1440 0.950 . S
H1430 C1442 0.950 . S
H1431 C1443 0.950 . S
C1432 H1424 0.950 . S
C1432 C1433 1.386 . S
C1432 C1434 1.391 . S
C1433 C1432 1.386 . S
C1433 C1437 1.393 . S
C1434 H1426 0.950 . S
C1434 C1432 1.391 . S
C1434 C1435 1.400 1_556 S
C1435 C1434 1.400 1_554 S
C1435 C1436 1.398 . S
C1435 C1441 1.491 . S
C1436 H1427 0.950 . S
C1436 C1435 1.398 . S
C1436 C1437 1.391 1_554 S
C1437 H1425 0.950 . S
C1437 C1433 1.393 . S
C1437 C1436 1.391 1_556 S
C1438 H1428 0.950 . S
C1438 C1439 1.386 . S
C1438 C1440 1.391 . S
C1439 C1438 1.386 . S
C1439 C1443 1.393 . S
C1440 H1429 0.950 . S
C1440 C1438 1.391 . S
C1440 C1441 1.400 . S
C1441 C1435 1.491 . S
C1441 C1440 1.400 . S
C1441 C1442 1.398 . S
C1442 H1430 0.950 . S
C1442 C1441 1.398 . S
C1442 C1443 1.391 . S
C1443 H1431 0.950 . S
C1443 C1439 1.393 . S
C1443 C1442 1.391 . S
H1444 C1452 0.950 . S
H1445 C1457 0.950 . S
H1446 C1454 0.950 . S
H1447 C1456 0.950 . S
H1448 C1458 0.950 . S
H1449 C1460 0.950 . S
H1450 C1462 0.950 . S
H1451 C1463 0.950 . S
C1452 H1444 0.950 . S
C1452 C1453 1.386 . S
C1452 C1454 1.391 . S
C1453 C1452 1.386 . S
C1453 C1457 1.393 . S
C1454 H1446 0.950 . S
C1454 C1452 1.391 . S
C1454 C1455 1.400 . S
C1455 C1454 1.400 . S
C1455 C1456 1.398 . S
C1455 C1461 1.491 . S
C1456 H1447 0.950 . S
C1456 C1455 1.398 . S
C1456 C1457 1.391 . S
C1457 H1445 0.950 . S
C1457 C1453 1.393 . S
C1457 C1456 1.391 . S
C1458 H1448 0.950 . S
C1458 C1459 1.386 . S
C1458 C1460 1.391 . S
C1459 C1458 1.386 . S
C1459 C1463 1.393 . S
C1460 H1449 0.950 . S
C1460 C1458 1.391 . S
C1460 C1461 1.400 . S
C1461 C1455 1.491 . S
C1461 C1460 1.400 . S
C1461 C1462 1.398 . S
C1462 H1450 0.950 . S
C1462 C1461 1.398 . S
C1462 C1463 1.391 . S
C1463 H1451 0.950 . S
C1463 C1459 1.393 . S
C1463 C1462 1.391 . S
H1464 C1472 0.950 . S
H1465 C1477 0.950 . S
H1466 C1474 0.950 . S
H1467 C1476 0.950 . S
H1468 C1478 0.950 . S
H1469 C1480 0.950 . S
H1470 C1482 0.950 . S
H1471 C1483 0.950 . S
C1472 H1464 0.950 . S
C1472 C1473 1.386 . S
C1472 C1474 1.391 . S
C1473 C1472 1.386 . S
C1473 C1477 1.393 . S
C1474 H1466 0.950 . S
C1474 C1472 1.391 . S
C1474 C1475 1.400 . S
C1475 C1474 1.400 . S
C1475 C1476 1.398 . S
C1475 C1481 1.491 . S
C1476 H1467 0.950 . S
C1476 C1475 1.398 . S
C1476 C1477 1.391 . S
C1477 H1465 0.950 . S
C1477 C1473 1.393 . S
C1477 C1476 1.391 . S
C1478 H1468 0.950 . S
C1478 C1479 1.386 . S
C1478 C1480 1.391 . S
C1479 C1478 1.386 . S
C1479 C1483 1.393 . S
C1480 H1469 0.950 . S
C1480 C1478 1.391 . S
C1480 C1481 1.400 . S
C1481 C1475 1.491 . S
C1481 C1480 1.400 . S
C1481 C1482 1.398 . S
C1482 H1470 0.950 . S
C1482 C1481 1.398 . S
C1482 C1483 1.391 . S
C1483 H1471 0.950 . S
C1483 C1479 1.393 . S
C1483 C1482 1.391 . S
H1484 C1492 0.950 . S
H1485 C1497 0.950 . S
H1486 C1494 0.950 . S
H1487 C1496 0.950 . S
H1488 C1498 0.950 . S
H1489 C1500 0.950 . S
H1490 C1502 0.950 . S
H1491 C1503 0.950 . S
C1492 H1484 0.950 . S
C1492 C1493 1.386 . S
C1492 C1494 1.391 . S
C1493 C1492 1.386 . S
C1493 C1497 1.393 . S
C1494 H1486 0.950 . S
C1494 C1492 1.391 . S
C1494 C1495 1.400 . S
C1495 C1494 1.400 . S
C1495 C1496 1.398 . S
C1495 C1501 1.491 . S
C1496 H1487 0.950 . S
C1496 C1495 1.398 . S
C1496 C1497 1.391 . S
C1497 H1485 0.950 . S
C1497 C1493 1.393 . S
C1497 C1496 1.391 . S
C1498 H1488 0.950 . S
C1498 C1499 1.386 . S
C1498 C1500 1.391 . S
C1499 C1498 1.386 . S
C1499 C1503 1.393 . S
C1500 H1489 0.950 . S
C1500 C1498 1.391 . S
C1500 C1501 1.400 . S
C1501 C1495 1.491 . S
C1501 C1500 1.400 . S
C1501 C1502 1.398 . S
C1502 H1490 0.950 . S
C1502 C1501 1.398 . S
C1502 C1503 1.391 . S
C1503 H1491 0.950 . S
C1503 C1499 1.393 . S
C1503 C1502 1.391 . S
H1504 C1512 0.950 . S
H1505 C1517 0.950 . S
H1506 C1514 0.950 . S
H1507 C1516 0.950 . S
H1508 C1518 0.950 . S
H1509 C1520 0.950 . S
H1510 C1522 0.950 . S
H1511 C1523 0.950 . S
C1512 H1504 0.950 . S
C1512 C1513 1.386 . S
C1512 C1514 1.391 . S
C1513 C1512 1.386 . S
C1513 C1517 1.393 . S
C1514 H1506 0.950 . S
C1514 C1512 1.391 . S
C1514 C1515 1.400 . S
C1515 C1514 1.400 . S
C1515 C1516 1.398 . S
C1515 C1521 1.491 . S
C1516 H1507 0.950 . S
C1516 C1515 1.398 . S
C1516 C1517 1.391 . S
C1517 H1505 0.950 . S
C1517 C1513 1.393 . S
C1517 C1516 1.391 . S
C1518 H1508 0.950 . S
C1518 C1519 1.386 . S
C1518 C1520 1.391 . S
C1519 C1518 1.386 . S
C1519 C1523 1.393 . S
C1520 H1509 0.950 . S
C1520 C1518 1.391 . S
C1520 C1521 1.400 . S
C1521 C1515 1.491 . S
C1521 C1520 1.400 . S
C1521 C1522 1.398 . S
C1522 H1510 0.950 . S
C1522 C1521 1.398 . S
C1522 C1523 1.391 . S
C1523 H1511 0.950 . S
C1523 C1519 1.393 . S
C1523 C1522 1.391 . S
H1524 C1532 0.950 . S
H1525 C1537 0.950 . S
H1526 C1534 0.950 . S
H1527 C1536 0.950 . S
H1528 C1538 0.950 . S
H1529 C1540 0.950 . S
H1530 C1542 0.950 . S
H1531 C1543 0.950 . S
C1532 H1524 0.950 . S
C1532 C1533 1.386 . S
C1532 C1534 1.391 . S
C1533 C1532 1.386 . S
C1533 C1537 1.393 . S
C1534 H1526 0.950 . S
C1534 C1532 1.391 . S
C1534 C1535 1.400 . S
C1535 C1534 1.400 . S
C1535 C1536 1.398 . S
C1535 C1541 1.491 . S
C1536 H1527 0.950 . S
C1536 C1535 1.398 . S
C1536 C1537 1.391 . S
C1537 H1525 0.950 . S
C1537 C1533 1.393 . S
C1537 C1536 1.391 . S
C1538 H1528 0.950 . S
C1538 C1539 1.386 . S
C1538 C1540 1.391 . S
C1539 C1538 1.386 . S
C1539 C1543 1.393 . S
C1540 H1529 0.950 . S
C1540 C1538 1.391 . S
C1540 C1541 1.400 . S
C1541 C1535 1.491 . S
C1541 C1540 1.400 . S
C1541 C1542 1.398 . S
C1542 H1530 0.950 . S
C1542 C1541 1.398 . S
C1542 C1543 1.391 . S
C1543 H1531 0.950 . S
C1543 C1539 1.393 . S
C1543 C1542 1.391 . S
H1544 C1552 0.950 . S
H1545 C1557 0.950 . S
H1546 C1554 0.950 . S
H1547 C1556 0.950 . S
H1548 C1558 0.950 . S
H1549 C1560 0.950 . S
H1550 C1562 0.950 . S
H1551 C1563 0.950 . S
C1552 H1544 0.950 . S
C1552 C1553 1.386 . S
C1552 C1554 1.391 . S
C1553 C1552 1.386 . S
C1553 C1557 1.393 . S
C1554 H1546 0.950 . S
C1554 C1552 1.391 . S
C1554 C1555 1.400 . S
C1555 C1554 1.400 . S
C1555 C1556 1.398 . S
C1555 C1561 1.491 . S
C1556 H1547 0.950 . S
C1556 C1555 1.398 . S
C1556 C1557 1.391 . S
C1557 H1545 0.950 . S
C1557 C1553 1.393 . S
C1557 C1556 1.391 . S
C1558 H1548 0.950 . S
C1558 C1559 1.386 . S
C1558 C1560 1.391 . S
C1559 C1558 1.386 . S
C1559 C1563 1.393 . S
C1560 H1549 0.950 . S
C1560 C1558 1.391 . S
C1560 C1561 1.400 . S
C1561 C1555 1.491 . S
C1561 C1560 1.400 . S
C1561 C1562 1.398 . S
C1562 H1550 0.950 . S
C1562 C1561 1.398 . S
C1562 C1563 1.391 . S
C1563 H1551 0.950 . S
C1563 C1559 1.393 . S
C1563 C1562 1.391 . S
H1564 C1572 0.950 . S
H1565 C1577 0.950 . S
H1566 C1574 0.950 . S
H1567 C1576 0.950 . S
H1568 C1578 0.950 . S
H1569 C1580 0.950 . S
H1570 C1582 0.946 1_554 S
H1571 C1583 0.950 . S
C1572 H1564 0.950 . S
C1572 C1573 1.386 . S
C1572 C1574 1.391 . S
C1573 C1572 1.386 . S
C1573 C1577 1.393 . S
C1574 H1566 0.950 . S
C1574 C1572 1.391 . S
C1574 C1575 1.400 . S
C1575 C1574 1.400 . S
C1575 C1576 1.398 . S
C1575 C1581 1.491 . S
C1576 H1567 0.950 . S
C1576 C1575 1.398 . S
C1576 C1577 1.391 . S
C1577 H1565 0.950 . S
C1577 C1573 1.393 . S
C1577 C1576 1.391 . S
C1578 H1568 0.950 . S
C1578 C1579 1.386 . S
C1578 C1580 1.391 1_556 S
C1579 C1578 1.386 . S
C1579 C1583 1.393 . S
C1580 H1569 0.950 . S
C1580 C1578 1.391 1_554 S
C1580 C1581 1.400 . S
C1581 C1575 1.491 . S
C1581 C1580 1.400 . S
C1581 C1582 1.398 1_554 S
C1582 H1570 0.946 1_556 S
C1582 C1581 1.398 1_556 S
C1582 C1583 1.391 . S
C1583 H1571 0.950 . S
C1583 C1579 1.393 . S
C1583 C1582 1.391 . S
C953 C359 1.531 . S
C959 C5 1.529 . S
C973 C418 1.528 . S
C979 C64 1.524 . S
C993 C123 1.513 . S
C999 C241 1.513 . S
C1013 C182 1.513 . S
C1019 C300 1.513 . S
C1033 C477 1.513 . S
C1039 C831 1.515 . S
C1053 C890 1.524 . S
C1059 C536 1.528 . S
C1073 C595 1.515 . S
C1079 C713 1.518 . S
C1093 C654 1.514 . S
C1099 C772 1.513 . S
C1113 C52 1.464 . S
C1119 C642 1.462 . S
C1133 C111 1.458 . S
C1139 C701 1.456 . S
C1153 C170 1.461 . S
C1159 C524 1.457 . S
C1173 C229 1.462 . S
C1179 C583 1.457 . S
C1193 C288 1.460 . S
C1199 C878 1.464 . S
C1213 C937 1.462 . S
C1219 C347 1.464 . S
C1233 C406 1.462 . S
C1239 C760 1.464 . S
C1253 C819 1.460 . S
C1259 C465 1.457 . S
C1273 C800 0.447 . S
C1279 C33 0.456 . S
C1293 C92 0.466 . S
C1299 C859 0.479 . S
C1313 C918 0.478 . S
C1319 C151 0.464 . S
C1333 C741 0.495 . S
C1339 C210 0.499 . S
C1353 C682 0.445 . S
C1359 C269 0.446 . S
C1373 C328 0.490 . S
C1379 C505 0.478 . S
C1393 C387 0.457 . S
C1399 C564 0.448 . S
C1413 C446 0.497 . S
C1419 C623 0.499 . S
C1433 C770 1.601 . S
C1439 C3 1.585 . S
C1453 C62 1.587 . S
C1459 C829 1.598 . S
C1473 C121 1.585 . S
C1479 C888 1.602 . S
C1493 C711 1.601 . S
C1499 C180 1.587 . S
C1513 C652 1.591 . S
C1519 C239 1.593 . S
C1533 C475 1.594 . S
C1539 C298 1.595 . S
C1553 C357 1.596 . S
C1559 C534 1.593 . S
C1573 C593 1.586 . S
C1579 C416 1.601 . S
