# Generated by pormake.
# Topology unu, (4)-cn, num edge types: 1
# Building blocks:
#     Node 0, Type 0, BuildingBlock: GALJAG_clean_sbu_0, # of connection points: 4
#     Node 1, Type 0, BuildingBlock: GALJAG_clean_sbu_0, # of connection points: 4
#     Node 2, Type 0, BuildingBlock: GALJAG_clean_sbu_0, # of connection points: 4
#     Node 3, Type 0, BuildingBlock: GALJAG_clean_sbu_0, # of connection points: 4
#     Node 4, Type 0, BuildingBlock: GALJAG_clean_sbu_0, # of connection points: 4
#     Node 5, Type 0, BuildingBlock: GALJAG_clean_sbu_0, # of connection points: 4
#     Node 6, Type 0, BuildingBlock: GALJAG_clean_sbu_0, # of connection points: 4
#     Node 7, Type 0, BuildingBlock: GALJAG_clean_sbu_0, # of connection points: 4
#     Node 8, Type 0, BuildingBlock: GALJAG_clean_sbu_0, # of connection points: 4
#     Node 9, Type 0, BuildingBlock: GALJAG_clean_sbu_0, # of connection points: 4
#     Node 10, Type 0, BuildingBlock: GALJAG_clean_sbu_0, # of connection points: 4
#     Node 11, Type 0, BuildingBlock: GALJAG_clean_sbu_0, # of connection points: 4
#     Node 12, Type 0, BuildingBlock: GALJAG_clean_sbu_0, # of connection points: 4
#     Node 13, Type 0, BuildingBlock: GALJAG_clean_sbu_0, # of connection points: 4
#     Node 14, Type 0, BuildingBlock: GALJAG_clean_sbu_0, # of connection points: 4
#     Node 15, Type 0, BuildingBlock: GALJAG_clean_sbu_0, # of connection points: 4
#     Node 16, Type 0, BuildingBlock: GALJAG_clean_sbu_0, # of connection points: 4
#     Node 17, Type 0, BuildingBlock: GALJAG_clean_sbu_0, # of connection points: 4
#     Node 18, Type 0, BuildingBlock: GALJAG_clean_sbu_0, # of connection points: 4
#     Node 19, Type 0, BuildingBlock: GALJAG_clean_sbu_0, # of connection points: 4
#     Node 20, Type 0, BuildingBlock: GALJAG_clean_sbu_0, # of connection points: 4
#     Node 21, Type 0, BuildingBlock: GALJAG_clean_sbu_0, # of connection points: 4
#     Node 22, Type 0, BuildingBlock: GALJAG_clean_sbu_0, # of connection points: 4
#     Node 23, Type 0, BuildingBlock: GALJAG_clean_sbu_0, # of connection points: 4
#     Node 24, Type 0, BuildingBlock: GALJAG_clean_sbu_0, # of connection points: 4
#     Node 25, Type 0, BuildingBlock: GALJAG_clean_sbu_0, # of connection points: 4
#     Node 26, Type 0, BuildingBlock: GALJAG_clean_sbu_0, # of connection points: 4
#     Node 27, Type 0, BuildingBlock: GALJAG_clean_sbu_0, # of connection points: 4
#     Node 28, Type 0, BuildingBlock: GALJAG_clean_sbu_0, # of connection points: 4
#     Node 29, Type 0, BuildingBlock: GALJAG_clean_sbu_0, # of connection points: 4
#     Node 30, Type 0, BuildingBlock: GALJAG_clean_sbu_0, # of connection points: 4
#     Node 31, Type 0, BuildingBlock: GALJAG_clean_sbu_0, # of connection points: 4
#     Node 32, Type 0, BuildingBlock: GALJAG_clean_sbu_0, # of connection points: 4
#     Node 33, Type 0, BuildingBlock: GALJAG_clean_sbu_0, # of connection points: 4
#     Node 34, Type 0, BuildingBlock: GALJAG_clean_sbu_0, # of connection points: 4
#     Node 35, Type 0, BuildingBlock: GALJAG_clean_sbu_0, # of connection points: 4
#     Edge 36, Type (0, 0), BuildingBlock: ZUJKAS_clean_linker_0, # of connection points: 2
#     Edge 37, Type (0, 0), BuildingBlock: ZUJKAS_clean_linker_0, # of connection points: 2
#     Edge 38, Type (0, 0), BuildingBlock: ZUJKAS_clean_linker_0, # of connection points: 2
#     Edge 39, Type (0, 0), BuildingBlock: ZUJKAS_clean_linker_0, # of connection points: 2
#     Edge 40, Type (0, 0), BuildingBlock: ZUJKAS_clean_linker_0, # of connection points: 2
#     Edge 41, Type (0, 0), BuildingBlock: ZUJKAS_clean_linker_0, # of connection points: 2
#     Edge 42, Type (0, 0), BuildingBlock: ZUJKAS_clean_linker_0, # of connection points: 2
#     Edge 43, Type (0, 0), BuildingBlock: ZUJKAS_clean_linker_0, # of connection points: 2
#     Edge 44, Type (0, 0), BuildingBlock: ZUJKAS_clean_linker_0, # of connection points: 2
#     Edge 45, Type (0, 0), BuildingBlock: ZUJKAS_clean_linker_0, # of connection points: 2
#     Edge 46, Type (0, 0), BuildingBlock: ZUJKAS_clean_linker_0, # of connection points: 2
#     Edge 47, Type (0, 0), BuildingBlock: ZUJKAS_clean_linker_0, # of connection points: 2
#     Edge 48, Type (0, 0), BuildingBlock: ZUJKAS_clean_linker_0, # of connection points: 2
#     Edge 49, Type (0, 0), BuildingBlock: ZUJKAS_clean_linker_0, # of connection points: 2
#     Edge 50, Type (0, 0), BuildingBlock: ZUJKAS_clean_linker_0, # of connection points: 2
#     Edge 51, Type (0, 0), BuildingBlock: ZUJKAS_clean_linker_0, # of connection points: 2
#     Edge 52, Type (0, 0), BuildingBlock: ZUJKAS_clean_linker_0, # of connection points: 2
#     Edge 53, Type (0, 0), BuildingBlock: ZUJKAS_clean_linker_0, # of connection points: 2
#     Edge 54, Type (0, 0), BuildingBlock: ZUJKAS_clean_linker_0, # of connection points: 2
#     Edge 55, Type (0, 0), BuildingBlock: ZUJKAS_clean_linker_0, # of connection points: 2
#     Edge 56, Type (0, 0), BuildingBlock: ZUJKAS_clean_linker_0, # of connection points: 2
#     Edge 57, Type (0, 0), BuildingBlock: ZUJKAS_clean_linker_0, # of connection points: 2
#     Edge 58, Type (0, 0), BuildingBlock: ZUJKAS_clean_linker_0, # of connection points: 2
#     Edge 59, Type (0, 0), BuildingBlock: ZUJKAS_clean_linker_0, # of connection points: 2
#     Edge 60, Type (0, 0), BuildingBlock: ZUJKAS_clean_linker_0, # of connection points: 2
#     Edge 61, Type (0, 0), BuildingBlock: ZUJKAS_clean_linker_0, # of connection points: 2
#     Edge 62, Type (0, 0), BuildingBlock: ZUJKAS_clean_linker_0, # of connection points: 2
#     Edge 63, Type (0, 0), BuildingBlock: ZUJKAS_clean_linker_0, # of connection points: 2
#     Edge 64, Type (0, 0), BuildingBlock: ZUJKAS_clean_linker_0, # of connection points: 2
#     Edge 65, Type (0, 0), BuildingBlock: ZUJKAS_clean_linker_0, # of connection points: 2
#     Edge 66, Type (0, 0), BuildingBlock: ZUJKAS_clean_linker_0, # of connection points: 2
#     Edge 67, Type (0, 0), BuildingBlock: ZUJKAS_clean_linker_0, # of connection points: 2
#     Edge 68, Type (0, 0), BuildingBlock: ZUJKAS_clean_linker_0, # of connection points: 2
#     Edge 69, Type (0, 0), BuildingBlock: ZUJKAS_clean_linker_0, # of connection points: 2
#     Edge 70, Type (0, 0), BuildingBlock: ZUJKAS_clean_linker_0, # of connection points: 2
#     Edge 71, Type (0, 0), BuildingBlock: ZUJKAS_clean_linker_0, # of connection points: 2
#     Edge 72, Type (0, 0), BuildingBlock: ZUJKAS_clean_linker_0, # of connection points: 2
#     Edge 73, Type (0, 0), BuildingBlock: ZUJKAS_clean_linker_0, # of connection points: 2
#     Edge 74, Type (0, 0), BuildingBlock: ZUJKAS_clean_linker_0, # of connection points: 2
#     Edge 75, Type (0, 0), BuildingBlock: ZUJKAS_clean_linker_0, # of connection points: 2
#     Edge 76, Type (0, 0), BuildingBlock: ZUJKAS_clean_linker_0, # of connection points: 2
#     Edge 77, Type (0, 0), BuildingBlock: ZUJKAS_clean_linker_0, # of connection points: 2
#     Edge 78, Type (0, 0), BuildingBlock: ZUJKAS_clean_linker_0, # of connection points: 2
#     Edge 79, Type (0, 0), BuildingBlock: ZUJKAS_clean_linker_0, # of connection points: 2
#     Edge 80, Type (0, 0), BuildingBlock: ZUJKAS_clean_linker_0, # of connection points: 2
#     Edge 81, Type (0, 0), BuildingBlock: ZUJKAS_clean_linker_0, # of connection points: 2
#     Edge 82, Type (0, 0), BuildingBlock: ZUJKAS_clean_linker_0, # of connection points: 2
#     Edge 83, Type (0, 0), BuildingBlock: ZUJKAS_clean_linker_0, # of connection points: 2
#     Edge 84, Type (0, 0), BuildingBlock: ZUJKAS_clean_linker_0, # of connection points: 2
#     Edge 85, Type (0, 0), BuildingBlock: ZUJKAS_clean_linker_0, # of connection points: 2
#     Edge 86, Type (0, 0), BuildingBlock: ZUJKAS_clean_linker_0, # of connection points: 2
#     Edge 87, Type (0, 0), BuildingBlock: ZUJKAS_clean_linker_0, # of connection points: 2
#     Edge 88, Type (0, 0), BuildingBlock: ZUJKAS_clean_linker_0, # of connection points: 2
#     Edge 89, Type (0, 0), BuildingBlock: ZUJKAS_clean_linker_0, # of connection points: 2
#     Edge 90, Type (0, 0), BuildingBlock: ZUJKAS_clean_linker_0, # of connection points: 2
#     Edge 91, Type (0, 0), BuildingBlock: ZUJKAS_clean_linker_0, # of connection points: 2
#     Edge 92, Type (0, 0), BuildingBlock: ZUJKAS_clean_linker_0, # of connection points: 2
#     Edge 93, Type (0, 0), BuildingBlock: ZUJKAS_clean_linker_0, # of connection points: 2
#     Edge 94, Type (0, 0), BuildingBlock: ZUJKAS_clean_linker_0, # of connection points: 2
#     Edge 95, Type (0, 0), BuildingBlock: ZUJKAS_clean_linker_0, # of connection points: 2
#     Edge 96, Type (0, 0), BuildingBlock: ZUJKAS_clean_linker_0, # of connection points: 2
#     Edge 97, Type (0, 0), BuildingBlock: ZUJKAS_clean_linker_0, # of connection points: 2
#     Edge 98, Type (0, 0), BuildingBlock: ZUJKAS_clean_linker_0, # of connection points: 2
#     Edge 99, Type (0, 0), BuildingBlock: ZUJKAS_clean_linker_0, # of connection points: 2
#     Edge 100, Type (0, 0), BuildingBlock: ZUJKAS_clean_linker_0, # of connection points: 2
#     Edge 101, Type (0, 0), BuildingBlock: ZUJKAS_clean_linker_0, # of connection points: 2
#     Edge 102, Type (0, 0), BuildingBlock: ZUJKAS_clean_linker_0, # of connection points: 2
#     Edge 103, Type (0, 0), BuildingBlock: ZUJKAS_clean_linker_0, # of connection points: 2
#     Edge 104, Type (0, 0), BuildingBlock: ZUJKAS_clean_linker_0, # of connection points: 2
#     Edge 105, Type (0, 0), BuildingBlock: ZUJKAS_clean_linker_0, # of connection points: 2
#     Edge 106, Type (0, 0), BuildingBlock: ZUJKAS_clean_linker_0, # of connection points: 2
#     Edge 107, Type (0, 0), BuildingBlock: ZUJKAS_clean_linker_0, # of connection points: 2
# Relax obj value: 0.103
# Max RMSD: 0.228
# Mean RMSD: 0.228
data_MOF--net-unu--node1-GALJAG_clean_sbu_0--edge1-ZUJKAS_clean_linker_0
_symmetry_space_group_name_H-M    P1
_symmetry_Int_Tables_number       1
_symmetry_cell_setting            triclinic
loop_
_symmetry_equiv_pos_as_xyz
'x, y, z'
_cell_length_a     59.483462
_cell_length_b     59.502014
_cell_length_c     90.80306
_cell_angle_alpha  90.009379
_cell_angle_beta   90.007402
_cell_angle_gamma 120.00494
loop_
_atom_site_label
_atom_site_type_symbol
_atom_site_fract_x
_atom_site_fract_y
_atom_site_fract_z
_atom_type_partial_charge
In0 In 0.20308 0.0599 0.08849 0.0
O1 O 0.23528 0.06087 0.07401 0.0
O2 O 0.21687 0.0314 0.09042 0.0
C3 C 0.1877 0.09307 0.07981 0.0
C4 C 0.23404 0.08707 0.11079 0.0
C5 C 0.1568 0.01691 0.08518 0.0
O6 O 0.1976 0.08426 0.07072 0.0
O7 O 0.18629 0.08553 0.09294 0.0
O8 O 0.16591 0.02608 0.0978 0.0
O9 O 0.17109 0.02948 0.07444 0.0
C10 C 0.23408 0.04145 0.08059 0.0
O11 O 0.2123 0.06676 0.11303 0.0
O12 O 0.23951 0.09358 0.09745 0.0
In13 In 0.94437 0.15494 0.08675 0.0
O14 O 0.93954 0.18297 0.07141 0.0
O15 O 0.97181 0.19768 0.08624 0.0
C16 C 0.91195 0.10461 0.08129 0.0
C17 C 0.91799 0.16013 0.10903 0.0
C18 C 0.98827 0.15357 0.08295 0.0
O19 O 0.91786 0.12147 0.07121 0.0
O20 O 0.92229 0.11343 0.09366 0.0
O21 O 0.98009 0.15485 0.09565 0.0
O22 O 0.97429 0.15309 0.07231 0.0
C23 C 0.9595 0.20259 0.07666 0.0
O24 O 0.93922 0.16042 0.11121 0.0
O25 O 0.91045 0.15704 0.0958 0.0
In26 In 0.8464 0.80064 0.0958 0.0
O27 O 0.81376 0.7704 0.08127 0.0
O28 O 0.80489 0.78 0.10249 0.0
C29 C 0.89581 0.82119 0.08766 0.0
C30 C 0.84928 0.76949 0.11576 0.0
C31 C 0.84385 0.8437 0.09141 0.0
O32 O 0.87756 0.80697 0.07882 0.0
O33 O 0.88875 0.82467 0.10018 0.0
O34 O 0.84616 0.83661 0.10425 0.0
O35 O 0.84253 0.82885 0.08106 0.0
C36 C 0.79667 0.76627 0.09098 0.0
O37 O 0.84786 0.78933 0.11955 0.0
O38 O 0.84972 0.76602 0.10202 0.0
In39 In 0.04699 0.20073 0.40772 0.0
O40 O 0.04935 0.23381 0.42188 0.0
O41 O 0.02161 0.21788 0.40434 0.0
C42 C 0.07802 0.18242 0.41571 0.0
C43 C 0.0766 0.23061 0.38575 0.0
C44 C 0.00225 0.15672 0.41238 0.0
O45 O 0.07237 0.19516 0.42475 0.0
O46 O 0.06803 0.17928 0.40306 0.0
O47 O 0.01115 0.16423 0.3995 0.0
O48 O 0.01596 0.17151 0.42271 0.0
C49 C 0.03163 0.23459 0.41446 0.0
O50 O 0.05524 0.20996 0.38323 0.0
O51 O 0.08271 0.23551 0.39918 0.0
In52 In 0.79568 0.8452 0.40412 0.0
O53 O 0.78615 0.84799 0.38009 0.0
O54 O 0.7637 0.85242 0.39709 0.0
C55 C 0.83704 0.83946 0.40795 0.0
C56 C 0.7597 0.79595 0.40909 0.0
C57 C 0.82015 0.89392 0.41392 0.0
O58 O 0.83018 0.84285 0.39528 0.0
O59 O 0.82266 0.8385 0.41851 0.0
O60 O 0.80187 0.87599 0.42137 0.0
O61 O 0.82526 0.88697 0.40181 0.0
C62 C 0.7674 0.85148 0.38345 0.0
O63 O 0.76316 0.81365 0.4182 0.0
O64 O 0.77468 0.8034 0.39807 0.0
In65 In 0.15003 0.94823 0.40722 0.0
O66 O 0.15519 0.94314 0.38272 0.0
O67 O 0.15256 0.91463 0.39809 0.0
C68 C 0.14819 0.99148 0.41254 0.0
C69 C 0.19833 0.96464 0.41657 0.0
C70 C 0.09979 0.91538 0.41255 0.0
O71 O 0.14967 0.98446 0.39954 0.0
O72 O 0.14772 0.97666 0.42268 0.0
O73 O 0.1169 0.91986 0.42228 0.0
O74 O 0.10836 0.92728 0.40051 0.0
C75 C 0.15551 0.92221 0.38487 0.0
O76 O 0.17911 0.9453 0.4226 0.0
O77 O 0.1927 0.97566 0.40652 0.0
In78 In 0.79805 0.94785 0.90135 0.0
O79 O 0.77111 0.94937 0.91891 0.0
O80 O 0.77574 0.96833 0.89811 0.0
C81 C 0.81952 0.91876 0.90728 0.0
C82 C 0.76363 0.91548 0.88184 0.0
C83 C 0.84175 0.99387 0.90329 0.0
O84 O 0.80728 0.92342 0.91717 0.0
O85 O 0.82052 0.92865 0.89482 0.0
O86 O 0.8326 0.98321 0.89093 0.0
O87 O 0.82866 0.98137 0.91439 0.0
C88 C 0.76476 0.96244 0.91054 0.0
O89 O 0.78282 0.93711 0.87793 0.0
O90 O 0.76247 0.91027 0.89543 0.0
In91 In 0.05945 0.84685 0.91182 0.0
O92 O 0.06788 0.82434 0.92947 0.0
O93 O 0.03141 0.80573 0.91832 0.0
C94 C 0.09148 0.89815 0.915 0.0
C95 C 0.08277 0.83473 0.89053 0.0
C96 C 0.01544 0.84883 0.91231 0.0
O97 O 0.08423 0.88302 0.92601 0.0
O98 O 0.08313 0.88717 0.90273 0.0
O99 O 0.02383 0.844 0.90058 0.0
O100 O 0.0292 0.85239 0.92363 0.0
C101 C 0.04626 0.80385 0.92751 0.0
O102 O 0.06136 0.83396 0.88829 0.0
O103 O 0.09215 0.84193 0.90326 0.0
In104 In 0.15525 0.20788 0.90931 0.0
O105 O 0.16511 0.22157 0.8854 0.0
O106 O 0.15922 0.24515 0.90092 0.0
C107 C 0.15271 0.16166 0.91022 0.0
C108 C 0.20041 0.23829 0.92303 0.0
C109 C 0.10454 0.1898 0.91397 0.0
O110 O 0.15672 0.17418 0.89828 0.0
O111 O 0.15013 0.17261 0.92151 0.0
O112 O 0.12061 0.19775 0.92456 0.0
O113 O 0.11428 0.19154 0.9014 0.0
C114 C 0.16466 0.24233 0.88786 0.0
O115 O 0.18013 0.23904 0.9264 0.0
O116 O 0.19731 0.22163 0.91346 0.0
In117 In 0.94467 0.79407 0.59445 0.0
O118 O 0.94469 0.76406 0.57861 0.0
O119 O 0.96601 0.77287 0.59885 0.0
C120 C 0.91551 0.81454 0.58643 0.0
C121 C 0.91303 0.76346 0.61558 0.0
C122 C 0.99055 0.83745 0.59097 0.0
O123 O 0.91954 0.80036 0.57759 0.0
O124 O 0.92606 0.81792 0.59892 0.0
O125 O 0.98051 0.82965 0.6036 0.0
O126 O 0.97751 0.82316 0.58033 0.0
C127 C 0.95891 0.75955 0.58717 0.0
O128 O 0.93484 0.78318 0.6186 0.0
O129 O 0.90736 0.7598 0.60203 0.0
In130 In 0.19608 0.15191 0.59216 0.0
O131 O 0.22855 0.18126 0.57715 0.0
O132 O 0.21491 0.19463 0.59513 0.0
C133 C 0.17526 0.10146 0.58638 0.0
C134 C 0.22676 0.15232 0.61366 0.0
C135 C 0.15306 0.15412 0.58681 0.0
O136 O 0.18936 0.1184 0.57687 0.0
O137 O 0.17193 0.11031 0.59832 0.0
O138 O 0.16085 0.15414 0.59984 0.0
O139 O 0.16713 0.15314 0.57665 0.0
C140 C 0.23071 0.20037 0.58458 0.0
O141 O 0.20684 0.15424 0.61647 0.0
O142 O 0.23054 0.1499 0.6002 0.0
In143 In 0.84145 0.04863 0.58693 0.0
O144 O 0.83679 0.05381 0.61151 0.0
O145 O 0.8391 0.08226 0.59623 0.0
C146 C 0.84329 0.00501 0.58307 0.0
C147 C 0.79323 0.0327 0.57743 0.0
C148 C 0.89139 0.08135 0.58059 0.0
O149 O 0.84182 0.01307 0.59578 0.0
O150 O 0.84374 0.01899 0.57245 0.0
O151 O 0.87386 0.07529 0.5709 0.0
O152 O 0.88339 0.07109 0.59306 0.0
C153 C 0.8365 0.07476 0.60945 0.0
O154 O 0.81247 0.0528 0.57202 0.0
O155 O 0.79881 0.02062 0.58681 0.0
In156 In 0.87442 0.39149 0.42502 0.0
O157 O 0.90559 0.39654 0.40828 0.0
O158 O 0.8887 0.36345 0.42253 0.0
C159 C 0.85603 0.42375 0.42044 0.0
C160 C 0.90844 0.41653 0.44665 0.0
C161 C 0.82857 0.34788 0.42196 0.0
O162 O 0.86581 0.4173 0.40998 0.0
O163 O 0.85627 0.41439 0.43287 0.0
O164 O 0.83873 0.35612 0.43454 0.0
O165 O 0.84163 0.36166 0.41118 0.0
C166 C 0.90505 0.37597 0.41259 0.0
O167 O 0.88772 0.39518 0.449 0.0
O168 O 0.91131 0.42501 0.43362 0.0
In169 In 0.60493 0.47793 0.42481 0.0
O170 O 0.59661 0.4822 0.44888 0.0
O171 O 0.56987 0.47966 0.43229 0.0
C172 C 0.64944 0.47711 0.42337 0.0
C173 C 0.62195 0.52594 0.41471 0.0
C174 C 0.57399 0.42799 0.41772 0.0
O175 O 0.63958 0.47806 0.43558 0.0
O176 O 0.63673 0.47653 0.41207 0.0
O177 O 0.58121 0.44567 0.40804 0.0
O178 O 0.58211 0.43583 0.4306 0.0
C179 C 0.57577 0.48216 0.4458 0.0
O180 O 0.6028 0.50658 0.40866 0.0
O181 O 0.63237 0.52062 0.42521 0.0
In182 In 0.51971 0.12608 0.42598 0.0
O183 O 0.48743 0.0941 0.41192 0.0
O184 O 0.47763 0.1096 0.43058 0.0
C185 C 0.56893 0.14505 0.41771 0.0
C186 C 0.52042 0.09535 0.44706 0.0
C187 C 0.51952 0.17046 0.42187 0.0
O188 O 0.55052 0.13302 0.40856 0.0
O189 O 0.56217 0.14694 0.43063 0.0
O190 O 0.52046 0.16238 0.43468 0.0
O191 O 0.51861 0.15604 0.41137 0.0
C192 C 0.46974 0.09351 0.42008 0.0
O193 O 0.52034 0.11616 0.45011 0.0
O194 O 0.52041 0.09055 0.43347 0.0
In195 In 0.71762 0.53079 0.7369 0.0
O196 O 0.72946 0.54306 0.71317 0.0
O197 O 0.75497 0.56617 0.73064 0.0
C198 C 0.67243 0.48738 0.74143 0.0
C199 C 0.70118 0.56405 0.74252 0.0
C200 C 0.74707 0.51019 0.74352 0.0
O201 O 0.68126 0.49507 0.72854 0.0
O202 O 0.68641 0.50177 0.75183 0.0
O203 O 0.74376 0.52429 0.75283 0.0
O204 O 0.73552 0.50686 0.73133 0.0
C205 C 0.7506 0.56309 0.71692 0.0
O206 O 0.71519 0.56059 0.75184 0.0
O207 O 0.69526 0.55019 0.73104 0.0
In208 In 0.45559 0.17924 0.73539 0.0
O209 O 0.44331 0.17945 0.71171 0.0
O210 O 0.4201 0.18119 0.72931 0.0
C211 C 0.49961 0.17801 0.73873 0.0
C212 C 0.42239 0.12951 0.74115 0.0
C213 C 0.47532 0.22871 0.74331 0.0
O214 O 0.49144 0.17975 0.72609 0.0
O215 O 0.48538 0.17667 0.74943 0.0
O216 O 0.46206 0.2105 0.75238 0.0
O217 O 0.47827 0.22159 0.73069 0.0
C218 C 0.42324 0.18038 0.71556 0.0
O219 O 0.4264 0.147 0.75056 0.0
O220 O 0.43564 0.1374 0.72947 0.0
In221 In 0.81145 0.27155 0.73511 0.0
O222 O 0.84326 0.27348 0.75018 0.0
O223 O 0.85314 0.29204 0.72898 0.0
C224 C 0.7612 0.24366 0.74161 0.0
C225 C 0.80895 0.23717 0.71554 0.0
C226 C 0.81515 0.31766 0.73942 0.0
O227 O 0.77832 0.24649 0.75102 0.0
O228 O 0.7698 0.25498 0.7294 0.0
O229 O 0.81375 0.3086 0.72656 0.0
O230 O 0.81488 0.30346 0.74988 0.0
C231 C 0.8608 0.28641 0.74067 0.0
O232 O 0.81072 0.2585 0.71154 0.0
O233 O 0.8081 0.23341 0.72932 0.0
In234 In 0.46276 0.26884 0.23766 0.0
O235 O 0.43388 0.27304 0.25254 0.0
O236 O 0.44603 0.29385 0.23212 0.0
C237 C 0.48078 0.23789 0.24619 0.0
C238 C 0.42993 0.23657 0.21752 0.0
C239 C 0.50786 0.31311 0.24071 0.0
O240 O 0.46837 0.24417 0.25513 0.0
O241 O 0.48354 0.24706 0.23335 0.0
O242 O 0.49923 0.30319 0.22814 0.0
O243 O 0.49368 0.3006 0.25151 0.0
C244 C 0.43211 0.28848 0.24353 0.0
O245 O 0.45098 0.25675 0.21388 0.0
O246 O 0.42599 0.23276 0.23123 0.0
In247 In 0.72766 0.1849 0.24015 0.0
O248 O 0.73673 0.18374 0.21586 0.0
O249 O 0.76354 0.18541 0.23223 0.0
C250 C 0.68294 0.18411 0.24498 0.0
C251 C 0.7118 0.13578 0.24728 0.0
C252 C 0.75841 0.23485 0.24674 0.0
O253 O 0.69103 0.18404 0.23204 0.0
O254 O 0.69748 0.18457 0.25529 0.0
O255 O 0.75374 0.21733 0.25625 0.0
O256 O 0.74754 0.22683 0.23438 0.0
C257 C 0.75796 0.18436 0.21871 0.0
O258 O 0.72926 0.15433 0.25483 0.0
O259 O 0.70239 0.14242 0.2368 0.0
In260 In 0.81748 0.53636 0.23545 0.0
O261 O 0.81904 0.54881 0.21162 0.0
O262 O 0.81519 0.57142 0.22885 0.0
C263 C 0.82026 0.49345 0.23992 0.0
C264 C 0.86631 0.57025 0.24266 0.0
C265 C 0.76717 0.5149 0.24175 0.0
O266 O 0.81932 0.50121 0.22701 0.0
O267 O 0.81995 0.50748 0.25029 0.0
O268 O 0.78433 0.52888 0.2512 0.0
O269 O 0.77571 0.51218 0.22953 0.0
C270 C 0.81732 0.56856 0.21519 0.0
O271 O 0.84779 0.56563 0.25143 0.0
O272 O 0.85984 0.55736 0.23081 0.0
In273 In 0.61495 0.13616 0.93159 0.0
O274 O 0.60008 0.12497 0.95507 0.0
O275 O 0.57682 0.10111 0.93715 0.0
C276 C 0.66059 0.18015 0.92921 0.0
C277 C 0.63207 0.10277 0.92838 0.0
C278 C 0.58581 0.15422 0.92011 0.0
O279 O 0.64799 0.17372 0.94123 0.0
O280 O 0.65015 0.16433 0.9187 0.0
O281 O 0.5927 0.14096 0.9123 0.0
O282 O 0.59381 0.15812 0.93326 0.0
C283 C 0.57939 0.10482 0.95093 0.0
O284 O 0.61985 0.10647 0.91803 0.0
O285 O 0.63585 0.1163 0.93983 0.0
In286 In 0.87316 0.4872 0.9238 0.0
O287 O 0.88204 0.48479 0.94806 0.0
O288 O 0.90741 0.48427 0.93153 0.0
C289 C 0.82912 0.48828 0.92011 0.0
C290 C 0.90635 0.53727 0.91843 0.0
C291 C 0.85342 0.43915 0.91345 0.0
O292 O 0.83703 0.48634 0.93278 0.0
O293 O 0.84365 0.48995 0.90948 0.0
O294 O 0.86887 0.45849 0.90564 0.0
O295 O 0.84846 0.44429 0.92611 0.0
C296 C 0.90242 0.48387 0.94508 0.0
O297 O 0.90629 0.5197 0.91045 0.0
O298 O 0.88945 0.52934 0.92849 0.0
In299 In 0.51655 0.38787 0.92259 0.0
O300 O 0.51252 0.39418 0.94704 0.0
O301 O 0.51475 0.4221 0.9313 0.0
C302 C 0.51832 0.34476 0.91696 0.0
C303 C 0.46753 0.37049 0.91444 0.0
C304 C 0.56675 0.41986 0.91694 0.0
O305 O 0.51703 0.35166 0.93003 0.0
O306 O 0.51857 0.35963 0.9069 0.0
O307 O 0.54958 0.41544 0.90724 0.0
O308 O 0.55823 0.40846 0.92913 0.0
C309 C 0.5123 0.41512 0.94463 0.0
O310 O 0.48604 0.39001 0.90806 0.0
O311 O 0.47421 0.35981 0.92417 0.0
In312 In 0.53174 0.7161 0.76337 0.0
O313 O 0.56224 0.71667 0.74767 0.0
O314 O 0.55898 0.70218 0.76963 0.0
C315 C 0.50619 0.73915 0.75317 0.0
C316 C 0.55726 0.74994 0.78493 0.0
C317 C 0.49262 0.66751 0.75969 0.0
O318 O 0.49913 0.72445 0.76429 0.0
O319 O 0.52673 0.74256 0.74686 0.0
O320 O 0.49807 0.67844 0.77222 0.0
O321 O 0.50731 0.68099 0.74928 0.0
C322 C 0.57045 0.70709 0.75736 0.0
O323 O 0.54001 0.72667 0.78771 0.0
O324 O 0.56075 0.75588 0.77143 0.0
In325 In 0.27468 0.8078 0.76417 0.0
O326 O 0.26312 0.80437 0.78841 0.0
O327 O 0.23469 0.79713 0.77183 0.0
C328 C 0.3233 0.81713 0.76071 0.0
C329 C 0.28424 0.85576 0.7583 0.0
C330 C 0.25177 0.75947 0.75359 0.0
O331 O 0.31231 0.81184 0.77322 0.0
O332 O 0.30986 0.81818 0.75022 0.0
O333 O 0.24868 0.77683 0.74732 0.0
O334 O 0.26613 0.76678 0.76486 0.0
C335 C 0.24001 0.79866 0.7854 0.0
O336 O 0.27434 0.83798 0.74862 0.0
O337 O 0.28913 0.84906 0.77053 0.0
In338 In 0.18233 0.45947 0.76273 0.0
O339 O 0.18622 0.45104 0.78682 0.0
O340 O 0.19294 0.42993 0.76994 0.0
C341 C 0.17279 0.49858 0.75933 0.0
C342 C 0.13439 0.42099 0.75699 0.0
C343 C 0.23091 0.48554 0.75261 0.0
O344 O 0.17773 0.49263 0.77187 0.0
O345 O 0.17218 0.48442 0.74877 0.0
O346 O 0.22327 0.4918 0.76406 0.0
O347 O 0.21372 0.46556 0.74589 0.0
C348 C 0.19183 0.43366 0.78356 0.0
O349 O 0.15209 0.42883 0.74726 0.0
O350 O 0.14116 0.43269 0.7692 0.0
In351 In 0.38089 0.8685 0.06984 0.0
O352 O 0.39021 0.88126 0.04585 0.0
O353 O 0.41664 0.90477 0.06284 0.0
C354 C 0.33651 0.82413 0.07422 0.0
C355 C 0.36408 0.90052 0.07803 0.0
C356 C 0.41166 0.84893 0.07551 0.0
O357 O 0.34454 0.83283 0.06135 0.0
O358 O 0.35093 0.83792 0.08466 0.0
O359 O 0.40706 0.8613 0.08536 0.0
O360 O 0.40084 0.84685 0.0632 0.0
C361 C 0.4112 0.90174 0.04925 0.0
O362 O 0.38171 0.89934 0.08535 0.0
O363 O 0.35494 0.8851 0.06724 0.0
In364 In 0.11743 0.51282 0.07735 0.0
O365 O 0.08478 0.48742 0.09353 0.0
O366 O 0.10211 0.47026 0.08043 0.0
C367 C 0.13697 0.56366 0.08227 0.0
C368 C 0.08517 0.50577 0.05501 0.0
C369 C 0.16248 0.51336 0.08043 0.0
O370 O 0.12611 0.5472 0.09252 0.0
O371 O 0.13731 0.5542 0.0699 0.0
O372 O 0.15181 0.51061 0.06795 0.0
O373 O 0.15026 0.51567 0.09119 0.0
C374 C 0.08511 0.46705 0.0898 0.0
O375 O 0.10604 0.50531 0.05299 0.0
O376 O 0.08115 0.51002 0.0681 0.0
In377 In 0.47291 0.60573 0.06878 0.0
O378 O 0.47326 0.59331 0.04512 0.0
O379 O 0.47137 0.56842 0.06277 0.0
C380 C 0.47461 0.65129 0.0717 0.0
C381 C 0.52232 0.62231 0.07563 0.0
C382 C 0.42328 0.5764 0.07662 0.0
O383 O 0.47311 0.64127 0.05913 0.0
O384 O 0.47537 0.63831 0.08252 0.0
O385 O 0.44144 0.58126 0.08571 0.0
O386 O 0.43051 0.58622 0.06396 0.0
C387 C 0.47242 0.57238 0.04902 0.0
O388 O 0.50421 0.60865 0.08467 0.0
O389 O 0.51517 0.62764 0.06366 0.0
In390 In 0.13336 0.61351 0.56793 0.0
O391 O 0.10217 0.61432 0.5824 0.0
O392 O 0.10625 0.6265 0.55987 0.0
C393 C 0.15941 0.59286 0.58051 0.0
C394 C 0.1082 0.57647 0.54778 0.0
C395 C 0.17253 0.66247 0.57009 0.0
O396 O 0.13888 0.59029 0.5864 0.0
O397 O 0.16604 0.60535 0.56855 0.0
O398 O 0.16735 0.64993 0.55808 0.0
O399 O 0.15743 0.65049 0.58068 0.0
C400 C 0.0942 0.62266 0.57189 0.0
O401 O 0.12533 0.59933 0.54412 0.0
O402 O 0.10466 0.5725 0.56148 0.0
In403 In 0.38843 0.51789 0.57417 0.0
O404 O 0.39069 0.48736 0.58858 0.0
O405 O 0.36287 0.47544 0.57102 0.0
C406 C 0.41853 0.56799 0.58073 0.0
C407 C 0.41792 0.51682 0.55244 0.0
C408 C 0.34368 0.51671 0.5794 0.0
O409 O 0.41389 0.5506 0.59032 0.0
O410 O 0.40821 0.55977 0.56827 0.0
O411 O 0.35188 0.51753 0.56638 0.0
O412 O 0.35809 0.51643 0.58956 0.0
C413 C 0.37275 0.46881 0.58126 0.0
O414 O 0.39651 0.51597 0.54982 0.0
O415 O 0.42419 0.51856 0.56588 0.0
In416 In 0.48115 0.87635 0.57911 0.0
O417 O 0.48847 0.88762 0.55475 0.0
O418 O 0.48605 0.91361 0.57008 0.0
C419 C 0.47816 0.83002 0.58116 0.0
C420 C 0.52755 0.90719 0.59145 0.0
C421 C 0.43084 0.85967 0.58435 0.0
O422 O 0.48163 0.8416 0.56893 0.0
O423 O 0.47626 0.84192 0.5922 0.0
O424 O 0.44735 0.86808 0.59472 0.0
O425 O 0.43996 0.86017 0.57174 0.0
C426 C 0.48942 0.90914 0.55691 0.0
O427 O 0.50774 0.9085 0.59529 0.0
O428 O 0.5234 0.88985 0.58212 0.0
In429 In 0.28039 0.4621 0.26637 0.0
O430 O 0.28389 0.43323 0.25122 0.0
O431 O 0.30253 0.44254 0.27241 0.0
C432 C 0.2529 0.48474 0.25948 0.0
C433 C 0.24537 0.42849 0.28506 0.0
C434 C 0.32618 0.50518 0.2629 0.0
O435 O 0.25631 0.47083 0.25007 0.0
O436 O 0.2632 0.48668 0.27196 0.0
O437 O 0.31642 0.49717 0.2756 0.0
O438 O 0.3128 0.49127 0.2522 0.0
C439 C 0.29756 0.42949 0.26065 0.0
O440 O 0.26624 0.44807 0.28958 0.0
O441 O 0.2423 0.42648 0.27121 0.0
In442 In 0.5393 0.81892 0.25973 0.0
O443 O 0.57163 0.84775 0.24447 0.0
O444 O 0.55744 0.86163 0.26196 0.0
C445 C 0.51759 0.76801 0.25532 0.0
C446 C 0.57069 0.82097 0.28123 0.0
C447 C 0.49662 0.82114 0.25353 0.0
O448 O 0.53179 0.78406 0.24546 0.0
O449 O 0.51474 0.77796 0.26698 0.0
O450 O 0.50431 0.82208 0.26669 0.0
O451 O 0.51056 0.81911 0.24367 0.0
C452 C 0.57331 0.86708 0.25147 0.0
O453 O 0.55078 0.82293 0.28397 0.0
O454 O 0.57406 0.81757 0.26783 0.0
In455 In 0.19147 0.72919 0.2614 0.0
O456 O 0.15733 0.72361 0.24707 0.0
O457 O 0.15033 0.70676 0.26867 0.0
C458 C 0.24003 0.75913 0.25207 0.0
C459 C 0.19355 0.76405 0.28055 0.0
C460 C 0.19133 0.68438 0.25871 0.0
O461 O 0.22096 0.75327 0.24349 0.0
O462 O 0.23416 0.74985 0.26493 0.0
O463 O 0.19331 0.69486 0.27119 0.0
O464 O 0.18926 0.6965 0.24783 0.0
C465 C 0.14096 0.71062 0.25709 0.0
O466 O 0.19389 0.74385 0.28479 0.0
O467 O 0.19261 0.76654 0.26674 0.0
H468 H 0.22965 0.07584 0.14031 0.0
H469 H 0.26222 0.09936 0.15949 0.0
H470 H 0.31264 0.15469 0.12712 0.0
H471 H 0.28052 0.13133 0.10798 0.0
H472 H 0.33679 0.13401 0.14504 0.0
H473 H 0.2829 0.17069 0.17794 0.0
H474 H 0.26601 0.13638 0.17435 0.0
H475 H 0.27375 0.15875 0.15936 0.0
C476 C 0.24758 0.09316 0.13735 0.0
C477 C 0.25254 0.10178 0.12267 0.0
C478 C 0.2661 0.10659 0.14829 0.0
C479 C 0.28971 0.12884 0.1447 0.0
C480 C 0.29452 0.13757 0.1301 0.0
H481 H 0.43129 0.24188 0.18755 0.0
H482 H 0.39738 0.21426 0.16995 0.0
C483 C 0.27611 0.12421 0.11919 0.0
C484 C 0.30995 0.14276 0.15597 0.0
H485 H 0.32385 0.17985 0.18693 0.0
C486 C 0.33399 0.144 0.15423 0.0
C487 C 0.30612 0.15568 0.16792 0.0
C488 C 0.2809 0.15557 0.17002 0.0
C489 C 0.35441 0.1579 0.16415 0.0
C490 C 0.35075 0.17122 0.17595 0.0
C491 C 0.32656 0.16962 0.17783 0.0
C492 C 0.37184 0.18722 0.18641 0.0
C493 C 0.3796 0.15796 0.16202 0.0
C494 C 0.36854 0.1813 0.20147 0.0
C495 C 0.38775 0.19707 0.21151 0.0
C496 C 0.41056 0.21915 0.20668 0.0
C497 C 0.41399 0.22491 0.19156 0.0
C498 C 0.3947 0.2091 0.18151 0.0
H499 H 0.37697 0.1415 0.15502 0.0
H500 H 0.39379 0.17625 0.15647 0.0
H501 H 0.38796 0.1569 0.17275 0.0
H502 H 0.35099 0.16455 0.20546 0.0
H503 H 0.38453 0.19215 0.2231 0.0
H504 H 0.80424 0.18663 0.22287 0.0
H505 H 0.83252 0.18413 0.2043 0.0
H506 H 0.77886 0.17709 0.17021 0.0
H507 H 0.75041 0.1799 0.18881 0.0
H508 H 0.81995 0.14328 0.18477 0.0
H509 H 0.84924 0.23561 0.15519 0.0
H510 H 0.83436 0.22872 0.17319 0.0
H511 H 0.8148 0.21454 0.15706 0.0
C512 C 0.79849 0.18472 0.21141 0.0
C513 C 0.77513 0.18352 0.20727 0.0
C514 C 0.81468 0.18327 0.20083 0.0
C515 C 0.80791 0.18071 0.1859 0.0
C516 C 0.78462 0.17953 0.18168 0.0
H517 H 0.87257 0.16002 0.10609 0.0
H518 H 0.84689 0.16514 0.12531 0.0
C519 C 0.76836 0.18101 0.19229 0.0
C520 C 0.82491 0.17836 0.17488 0.0
H521 H 0.86204 0.20733 0.14454 0.0
C522 C 0.82928 0.15733 0.17601 0.0
C523 C 0.83706 0.1968 0.16353 0.0
C524 C 0.83387 0.22033 0.16218 0.0
C525 C 0.84506 0.15388 0.16584 0.0
C526 C 0.85705 0.17222 0.15442 0.0
C527 C 0.85283 0.19336 0.15335 0.0
C528 C 0.873 0.16913 0.14299 0.0
C529 C 0.84817 0.1303 0.16715 0.0
C530 C 0.89632 0.16986 0.14659 0.0
C531 C 0.91111 0.16686 0.13559 0.0
C532 C 0.90276 0.16323 0.12086 0.0
C533 C 0.8795 0.16272 0.11734 0.0
C534 C 0.8648 0.1657 0.12829 0.0
H535 H 0.83336 0.11538 0.17455 0.0
H536 H 0.84669 0.12142 0.15617 0.0
H537 H 0.86764 0.1362 0.17173 0.0
H538 H 0.90315 0.17291 0.15787 0.0
H539 H 0.92902 0.16747 0.13859 0.0
H540 H 0.81283 0.61102 0.22069 0.0
H541 H 0.81849 0.64488 0.20342 0.0
H542 H 0.8322 0.60449 0.16824 0.0
H543 H 0.82627 0.57021 0.1855 0.0
H544 H 0.86337 0.67628 0.18682 0.0
H545 H 0.77697 0.61969 0.15119 0.0
H546 H 0.78021 0.60847 0.16911 0.0
H547 H 0.79744 0.60575 0.1536 0.0
C548 C 0.81678 0.60916 0.20925 0.0
C549 C 0.81905 0.58793 0.20442 0.0
C550 C 0.82007 0.62856 0.19942 0.0
C551 C 0.82556 0.62706 0.18457 0.0
C552 C 0.82756 0.60576 0.17964 0.0
H553 H 0.85472 0.72772 0.10983 0.0
H554 H 0.8506 0.69423 0.12692 0.0
C555 C 0.82424 0.58626 0.18949 0.0
C556 C 0.83016 0.6484 0.17444 0.0
H557 H 0.80674 0.66262 0.1437 0.0
C558 C 0.85098 0.67335 0.1774 0.0
C559 C 0.81393 0.64443 0.1622 0.0
C560 C 0.79074 0.61821 0.15885 0.0
C561 C 0.85624 0.69447 0.16829 0.0
C562 C 0.83996 0.69051 0.15607 0.0
C563 C 0.81917 0.66554 0.15309 0.0
C564 C 0.84421 0.71191 0.14608 0.0
C565 C 0.87943 0.72068 0.17164 0.0
C566 C 0.84216 0.73307 0.15124 0.0
C567 C 0.8446 0.75237 0.14148 0.0
C568 C 0.84891 0.75061 0.12642 0.0
C569 C 0.85139 0.72961 0.12137 0.0
C570 C 0.84901 0.71043 0.13111 0.0
H571 H 0.89342 0.71911 0.17908 0.0
H572 H 0.88969 0.73065 0.16136 0.0
H573 H 0.87277 0.73295 0.17717 0.0
H574 H 0.83801 0.73431 0.16273 0.0
H575 H 0.84244 0.76824 0.14565 0.0
H576 H 0.12346 0.27401 0.38929 0.0
H577 H 0.15016 0.30547 0.37062 0.0
H578 H 0.09436 0.25962 0.3372 0.0
H579 H 0.06712 0.2279 0.356 0.0
H580 H 0.17225 0.29802 0.34498 0.0
H581 H 0.10301 0.33272 0.33255 0.0
H582 H 0.09997 0.31373 0.34871 0.0
H583 H 0.0905 0.29835 0.33101 0.0
C584 C 0.11682 0.27051 0.37797 0.0
C585 C 0.09312 0.24855 0.3741 0.0
C586 C 0.13214 0.28852 0.36732 0.0
C587 C 0.12406 0.28502 0.3526 0.0
C588 C 0.10069 0.26283 0.34858 0.0
H589 H 0.19913 0.38635 0.27769 0.0
H590 H 0.16925 0.35108 0.29379 0.0
C591 C 0.08526 0.24469 0.35928 0.0
C592 C 0.14035 0.3049 0.34163 0.0
H593 H 0.14256 0.35233 0.31949 0.0
C594 C 0.16575 0.30983 0.33934 0.0
C595 C 0.13175 0.32023 0.33435 0.0
C596 C 0.1049 0.31623 0.3368 0.0
C597 C 0.1829 0.32986 0.33 0.0
C598 C 0.1745 0.34558 0.32299 0.0
C599 C 0.14892 0.34029 0.325 0.0
C600 C 0.19205 0.36761 0.3135 0.0
C601 C 0.2098 0.33393 0.32764 0.0
C602 C 0.21443 0.38887 0.31937 0.0
C603 C 0.23156 0.40912 0.31021 0.0
C604 C 0.22647 0.40837 0.29506 0.0
C605 C 0.20362 0.38742 0.28932 0.0
C606 C 0.18651 0.36726 0.29848 0.0
H607 H 0.21103 0.31655 0.33085 0.0
H608 H 0.21577 0.33858 0.31594 0.0
H609 H 0.22382 0.35048 0.3345 0.0
H610 H 0.21876 0.38967 0.33101 0.0
H611 H 0.24897 0.42505 0.31493 0.0
H612 H 0.72832 0.86163 0.38848 0.0
H613 H 0.69514 0.85762 0.37115 0.0
H614 H 0.73236 0.83884 0.33637 0.0
H615 H 0.76567 0.84256 0.35375 0.0
H616 H 0.69851 0.8827 0.344 0.0
H617 H 0.65748 0.77631 0.33771 0.0
H618 H 0.67982 0.79478 0.35227 0.0
H619 H 0.69162 0.7957 0.33394 0.0
C620 C 0.72963 0.85689 0.37711 0.0
C621 C 0.74946 0.85218 0.37248 0.0
C622 C 0.71065 0.85463 0.36723 0.0
C623 C 0.71109 0.8475 0.35258 0.0
C624 C 0.7315 0.84392 0.34773 0.0
H625 H 0.61241 0.81465 0.27745 0.0
H626 H 0.64551 0.82125 0.29547 0.0
C627 C 0.75057 0.84622 0.35762 0.0
C628 C 0.68961 0.84297 0.34258 0.0
H629 H 0.63969 0.79589 0.32258 0.0
C630 C 0.68557 0.86373 0.33933 0.0
C631 C 0.67268 0.81811 0.33667 0.0
C632 C 0.67538 0.79485 0.3404 0.0
C633 C 0.6654 0.86045 0.32994 0.0
C634 C 0.64868 0.83566 0.32389 0.0
C635 C 0.65256 0.81485 0.32728 0.0
C636 C 0.62797 0.83119 0.3133 0.0
C637 C 0.66258 0.88364 0.32623 0.0
C638 C 0.60685 0.83416 0.31746 0.0
C639 C 0.58777 0.83036 0.30714 0.0
C640 C 0.5896 0.8235 0.29256 0.0
C641 C 0.61049 0.82001 0.28858 0.0
C642 C 0.62943 0.82375 0.29886 0.0
H643 H 0.68006 0.9022 0.32939 0.0
H644 H 0.65904 0.88416 0.31426 0.0
H645 H 0.64568 0.88219 0.33225 0.0
H646 H 0.60519 0.83948 0.32865 0.0
H647 H 0.57185 0.83313 0.3105 0.0
H648 H 0.15786 0.87811 0.38786 0.0
H649 H 0.16695 0.85474 0.36893 0.0
H650 H 0.17262 0.91002 0.33632 0.0
H651 H 0.16338 0.93373 0.35535 0.0
H652 H 0.14126 0.85562 0.3283 0.0
H653 H 0.23851 0.88006 0.34926 0.0
H654 H 0.2135 0.86749 0.36304 0.0
H655 H 0.2227 0.89809 0.35441 0.0
C656 C 0.16102 0.88537 0.37667 0.0
C657 C 0.16002 0.90783 0.37309 0.0
C658 C 0.16637 0.87205 0.3659 0.0
C659 C 0.17093 0.88096 0.35133 0.0
C660 C 0.16939 0.90304 0.34757 0.0
H661 H 0.19486 0.80917 0.27364 0.0
H662 H 0.1907 0.83903 0.29036 0.0
C663 C 0.16408 0.9165 0.35841 0.0
C664 C 0.17666 0.86659 0.34008 0.0
H665 H 0.21906 0.84556 0.33178 0.0
C666 C 0.15842 0.85367 0.3289 0.0
C667 C 0.19902 0.86405 0.34101 0.0
C668 C 0.2197 0.87834 0.35249 0.0
C669 C 0.16145 0.83738 0.31891 0.0
C670 C 0.18356 0.83441 0.32003 0.0
C671 C 0.20209 0.84781 0.33101 0.0
C672 C 0.18757 0.81712 0.31002 0.0
C673 C 0.1405 0.82274 0.30761 0.0
C674 C 0.18817 0.79543 0.31563 0.0
C675 C 0.19075 0.77839 0.3061 0.0
C676 C 0.19285 0.78288 0.29085 0.0
C677 C 0.19308 0.80508 0.28534 0.0
C678 C 0.19056 0.8221 0.29486 0.0
H679 H 0.12215 0.82237 0.31045 0.0
H680 H 0.14713 0.83235 0.29674 0.0
H681 H 0.13641 0.80244 0.30653 0.0
H682 H 0.18605 0.7914 0.32733 0.0
H683 H 0.19055 0.76146 0.31064 0.0
H684 H 0.56108 0.74014 0.81403 0.0
H685 H 0.59465 0.76915 0.83146 0.0
H686 H 0.62589 0.82967 0.79867 0.0
H687 H 0.59268 0.80092 0.78124 0.0
H688 H 0.662 0.8166 0.81076 0.0
H689 H 0.60719 0.83517 0.85408 0.0
H690 H 0.59469 0.80173 0.84913 0.0
H691 H 0.59421 0.82385 0.83587 0.0
C692 C 0.57475 0.75983 0.81068 0.0
C693 C 0.57436 0.76825 0.79627 0.0
C694 C 0.59386 0.77637 0.82063 0.0
C695 C 0.61265 0.80154 0.81632 0.0
C696 C 0.61153 0.81031 0.80218 0.0
H697 H 0.75705 0.92463 0.85306 0.0
H698 H 0.7206 0.89678 0.83689 0.0
C699 C 0.59252 0.79386 0.79225 0.0
C700 C 0.63493 0.81796 0.82597 0.0
H701 H 0.65176 0.85063 0.85863 0.0
C702 C 0.65982 0.82414 0.82121 0.0
C703 C 0.63189 0.82756 0.83959 0.0
C704 C 0.6056 0.82197 0.84498 0.0
C705 C 0.68184 0.83951 0.82982 0.0
C706 C 0.67888 0.84935 0.8434 0.0
C707 C 0.65395 0.84308 0.84818 0.0
C708 C 0.70136 0.86596 0.85291 0.0
C709 C 0.70798 0.84456 0.82445 0.0
C710 C 0.70242 0.85797 0.86728 0.0
C711 C 0.72305 0.87387 0.87653 0.0
C712 C 0.74299 0.89808 0.87158 0.0
C713 C 0.74208 0.90596 0.85711 0.0
C714 C 0.72133 0.89005 0.84787 0.0
H715 H 0.70606 0.83021 0.81598 0.0
H716 H 0.71854 0.86414 0.81939 0.0
H717 H 0.71988 0.84395 0.8337 0.0
H718 H 0.68718 0.83946 0.87137 0.0
H719 H 0.72319 0.8673 0.88764 0.0
H720 H 0.0677 0.81867 0.86206 0.0
H721 H 0.09058 0.80687 0.84383 0.0
H722 H 0.15073 0.82319 0.87563 0.0
H723 H 0.12804 0.83463 0.89382 0.0
H724 H 0.14093 0.83854 0.83319 0.0
H725 H 0.1326 0.75146 0.86053 0.0
H726 H 0.11267 0.76524 0.86559 0.0
H727 H 0.14536 0.77926 0.87241 0.0
C728 C 0.08571 0.81956 0.86515 0.0
C729 C 0.09606 0.82751 0.87935 0.0
C730 C 0.09871 0.81279 0.85477 0.0
C731 C 0.12206 0.81367 0.8585 0.0
C732 C 0.13241 0.82173 0.87265 0.0
H733 H 0.24791 0.80846 0.815 0.0
H734 H 0.2174 0.80974 0.83274 0.0
C735 C 0.11951 0.82849 0.88298 0.0
C736 C 0.13662 0.80774 0.84745 0.0
H737 H 0.16448 0.77039 0.8414 0.0
C738 C 0.14578 0.82341 0.83486 0.0
C739 C 0.143 0.78806 0.84974 0.0
C740 C 0.13269 0.76987 0.86273 0.0
C741 C 0.16198 0.82055 0.82474 0.0
C742 C 0.16881 0.80125 0.82719 0.0
C743 C 0.15926 0.78524 0.83963 0.0
C744 C 0.18616 0.79776 0.81698 0.0
C745 C 0.17236 0.83878 0.81175 0.0
C746 C 0.17828 0.78975 0.80246 0.0
C747 C 0.19557 0.78903 0.79237 0.0
C748 C 0.22101 0.79618 0.79665 0.0
C749 C 0.22844 0.80289 0.81141 0.0
C750 C 0.21108 0.80364 0.82152 0.0
H751 H 0.16982 0.85593 0.81317 0.0
H752 H 0.1933 0.84565 0.81003 0.0
H753 H 0.16176 0.82834 0.80165 0.0
H754 H 0.15897 0.78472 0.79884 0.0
H755 H 0.18921 0.78357 0.7811 0.0
H756 H 0.16219 0.28634 0.89111 0.0
H757 H 0.17103 0.31956 0.87271 0.0
H758 H 0.18916 0.27727 0.84079 0.0
H759 H 0.17983 0.24345 0.85919 0.0
H760 H 0.21631 0.3509 0.85718 0.0
H761 H 0.13458 0.2883 0.81973 0.0
H762 H 0.13686 0.27865 0.83826 0.0
H763 H 0.15646 0.27657 0.82386 0.0
C764 C 0.16797 0.284 0.88016 0.0
C765 C 0.17015 0.2622 0.87654 0.0
C766 C 0.1731 0.30307 0.86969 0.0
C767 C 0.18049 0.30074 0.85537 0.0
C768 C 0.18305 0.27918 0.85173 0.0
H769 H 0.20582 0.39732 0.77862 0.0
H770 H 0.2063 0.36662 0.79625 0.0
C771 C 0.1778 0.25995 0.86224 0.0
C772 C 0.18526 0.32098 0.84437 0.0
H773 H 0.16225 0.33151 0.81225 0.0
C774 C 0.20458 0.34668 0.84731 0.0
C775 C 0.16984 0.31537 0.83156 0.0
C776 C 0.14812 0.28829 0.82816 0.0
C777 C 0.20886 0.36699 0.83777 0.0
C778 C 0.1932 0.36141 0.82509 0.0
C779 C 0.17422 0.33566 0.82201 0.0
C780 C 0.19572 0.38194 0.81492 0.0
C781 C 0.23014 0.3942 0.84128 0.0
C782 C 0.18992 0.40095 0.81966 0.0
C783 C 0.18963 0.4186 0.80958 0.0
C784 C 0.19497 0.4173 0.79464 0.0
C785 C 0.20156 0.39876 0.79006 0.0
C786 C 0.20185 0.3812 0.80011 0.0
H787 H 0.2444 0.39429 0.84922 0.0
H788 H 0.24058 0.40456 0.83112 0.0
H789 H 0.22146 0.40513 0.84628 0.0
H790 H 0.1847 0.40153 0.83102 0.0
H791 H 0.18436 0.4326 0.81339 0.0
H792 H 0.74365 0.56511 0.68724 0.0
H793 H 0.77218 0.59966 0.67015 0.0
H794 H 0.82572 0.63975 0.70562 0.0
H795 H 0.79759 0.6054 0.72266 0.0
H796 H 0.78749 0.6533 0.67333 0.0
H797 H 0.87241 0.63819 0.67258 0.0
H798 H 0.84071 0.61362 0.67887 0.0
H799 H 0.86131 0.64039 0.69064 0.0
C800 C 0.76168 0.58111 0.69132 0.0
C801 C 0.76844 0.58254 0.70626 0.0
C802 C 0.77788 0.60083 0.68159 0.0
C803 C 0.80114 0.62206 0.68663 0.0
C804 C 0.80808 0.6233 0.70147 0.0
H805 H 0.92223 0.76304 0.64513 0.0
H806 H 0.89444 0.72995 0.66314 0.0
C807 C 0.79191 0.6037 0.7112 0.0
C808 C 0.81755 0.64367 0.67658 0.0
H809 H 0.878 0.67664 0.66134 0.0
C810 C 0.80724 0.65835 0.67063 0.0
C811 C 0.84336 0.65032 0.67326 0.0
C812 C 0.85511 0.63471 0.67906 0.0
C813 C 0.82218 0.67972 0.66148 0.0
C814 C 0.84792 0.68622 0.65803 0.0
C815 C 0.85829 0.67166 0.66409 0.0
C816 C 0.86394 0.70715 0.64751 0.0
C817 C 0.81043 0.69538 0.65577 0.0
C818 C 0.85593 0.7052 0.63283 0.0
C819 C 0.87165 0.72396 0.62259 0.0
C820 C 0.89579 0.74497 0.62682 0.0
C821 C 0.90367 0.74713 0.64159 0.0
C822 C 0.88788 0.72825 0.65186 0.0
H823 H 0.79385 0.69269 0.66268 0.0
H824 H 0.82509 0.71638 0.65537 0.0
H825 H 0.80306 0.68888 0.64443 0.0
H826 H 0.83777 0.68879 0.62919 0.0
H827 H 0.86509 0.7217 0.61127 0.0
H828 H 0.38102 0.18508 0.72157 0.0
H829 H 0.34704 0.18009 0.70454 0.0
H830 H 0.38745 0.16814 0.66868 0.0
H831 H 0.4216 0.17293 0.68572 0.0
H832 H 0.35099 0.20842 0.6784 0.0
H833 H 0.31346 0.10356 0.66778 0.0
H834 H 0.33462 0.12057 0.68306 0.0
H835 H 0.34769 0.12437 0.66481 0.0
C836 C 0.38277 0.1815 0.71004 0.0
C837 C 0.40389 0.17924 0.70497 0.0
C838 C 0.36335 0.17868 0.70035 0.0
C839 C 0.36459 0.17338 0.68544 0.0
C840 C 0.38599 0.1718 0.68022 0.0
H841 H 0.26889 0.14679 0.60957 0.0
H842 H 0.30118 0.15165 0.62773 0.0
C843 C 0.40552 0.1747 0.68993 0.0
C844 C 0.3433 0.16931 0.67542 0.0
H845 H 0.2952 0.12396 0.65369 0.0
C846 C 0.33869 0.18995 0.67303 0.0
C847 C 0.32729 0.14513 0.66854 0.0
C848 C 0.33077 0.12202 0.67123 0.0
C849 C 0.31883 0.18725 0.66357 0.0
C850 C 0.30293 0.16311 0.65659 0.0
C851 C 0.3074 0.1424 0.65912 0.0
C852 C 0.28256 0.15937 0.64593 0.0
C853 C 0.31553 0.21043 0.66077 0.0
C854 C 0.2611 0.16165 0.65023 0.0
C855 C 0.24251 0.15891 0.63983 0.0
C856 C 0.24516 0.15376 0.62503 0.0
C857 C 0.26634 0.15086 0.62089 0.0
C858 C 0.28481 0.15359 0.63125 0.0
H859 H 0.33269 0.22882 0.66446 0.0
H860 H 0.31228 0.21212 0.64887 0.0
H861 H 0.29832 0.20801 0.6669 0.0
H862 H 0.25881 0.16566 0.6616 0.0
H863 H 0.22632 0.16114 0.64332 0.0
H864 H 0.80482 0.1906 0.72192 0.0
H865 H 0.80732 0.16019 0.70486 0.0
H866 H 0.81604 0.21051 0.66848 0.0
H867 H 0.81332 0.24108 0.68551 0.0
H868 H 0.7797 0.15635 0.66382 0.0
H869 H 0.87508 0.17362 0.68452 0.0
H870 H 0.85041 0.16513 0.69828 0.0
H871 H 0.86287 0.1953 0.68852 0.0
C872 C 0.80718 0.19519 0.71028 0.0
C873 C 0.80903 0.21829 0.70504 0.0
C874 C 0.80874 0.17785 0.70058 0.0
C875 C 0.8123 0.18336 0.68548 0.0
C876 C 0.81345 0.20605 0.68013 0.0
H877 H 0.83519 0.11944 0.60671 0.0
H878 H 0.82787 0.14364 0.62591 0.0
C879 C 0.81189 0.22345 0.68985 0.0
C880 C 0.81495 0.1655 0.67527 0.0
H881 H 0.85442 0.14117 0.66638 0.0
C882 C 0.796 0.15298 0.66437 0.0
C883 C 0.83616 0.16104 0.67614 0.0
C884 C 0.85744 0.1746 0.68741 0.0
C885 C 0.79775 0.13617 0.65422 0.0
C886 C 0.81927 0.1322 0.65487 0.0
C887 C 0.83793 0.14424 0.66597 0.0
C888 C 0.82376 0.11722 0.64343 0.0
C889 C 0.77656 0.12278 0.64289 0.0
C890 C 0.82466 0.09473 0.64703 0.0
C891 C 0.829 0.08082 0.63603 0.0
C892 C 0.83271 0.08942 0.62135 0.0
C893 C 0.83226 0.11222 0.6179 0.0
C894 C 0.82791 0.12601 0.62884 0.0
H895 H 0.75823 0.12181 0.64646 0.0
H896 H 0.78277 0.13387 0.63242 0.0
H897 H 0.77264 0.10278 0.64069 0.0
H898 H 0.82174 0.08783 0.65829 0.0
H899 H 0.82931 0.06334 0.63899 0.0
H900 H 0.07206 0.52628 0.55348 0.0
H901 H 0.03962 0.49493 0.53656 0.0
H902 H 0.07288 0.55017 0.50108 0.0
H903 H 0.10565 0.58168 0.51796 0.0
H904 H 0.00404 0.50436 0.52199 0.0
H905 H 0.06137 0.48238 0.48232 0.0
H906 H 0.07387 0.49695 0.5001 0.0
H907 H 0.07354 0.51645 0.48507 0.0
C908 C 0.07282 0.5316 0.54201 0.0
C909 C 0.09135 0.55647 0.53703 0.0
C910 C 0.05425 0.51366 0.53237 0.0
C911 C 0.05395 0.52017 0.51757 0.0
C912 C 0.07306 0.54461 0.51242 0.0
H913 H 0.95237 0.46318 0.44366 0.0
H914 H 0.98673 0.48616 0.46171 0.0
C915 C 0.09171 0.56261 0.52207 0.0
C916 C 0.03218 0.5024 0.50794 0.0
H917 H 0.01782 0.4694 0.4754 0.0
C918 C 0.00696 0.49643 0.51188 0.0
C919 C 0.03613 0.49215 0.49479 0.0
C920 C 0.06266 0.49708 0.49035 0.0
C921 C 0.98565 0.48127 0.50273 0.0
C922 C 0.98968 0.47148 0.48941 0.0
C923 C 0.01482 0.47694 0.48564 0.0
C924 C 0.96842 0.45711 0.47872 0.0
C925 C 0.95923 0.47677 0.50707 0.0
C926 C 0.94666 0.4331 0.48233 0.0
C927 C 0.92678 0.4199 0.47201 0.0
C928 C 0.92855 0.4305 0.45795 0.0
C929 C 0.9504 0.45451 0.45442 0.0
C930 C 0.97012 0.46765 0.4647 0.0
H931 H 0.96042 0.49004 0.51603 0.0
H932 H 0.94924 0.47948 0.49748 0.0
H933 H 0.94714 0.45653 0.51103 0.0
H934 H 0.94519 0.42447 0.49304 0.0
H935 H 0.91026 0.40133 0.47498 0.0
H936 H 0.40846 0.51018 0.52274 0.0
H937 H 0.43527 0.50511 0.50394 0.0
H938 H 0.49072 0.51388 0.5373 0.0
H939 H 0.46438 0.51925 0.55602 0.0
H940 H 0.51335 0.54292 0.51169 0.0
H941 H 0.44192 0.43976 0.49918 0.0
H942 H 0.42982 0.46194 0.49762 0.0
H943 H 0.43943 0.45613 0.51531 0.0
C944 C 0.42642 0.51113 0.52602 0.0
C945 C 0.43427 0.51498 0.54084 0.0
C946 C 0.44161 0.50809 0.51531 0.0
C947 C 0.46474 0.50875 0.51931 0.0
C948 C 0.47287 0.51321 0.53403 0.0
H949 H 0.58457 0.49022 0.47547 0.0
H950 H 0.55773 0.49684 0.49355 0.0
C951 C 0.45777 0.51624 0.5447 0.0
C952 C 0.4806 0.50468 0.50826 0.0
H953 H 0.48022 0.4596 0.48487 0.0
C954 C 0.50615 0.52473 0.50581 0.0
C955 C 0.4711 0.48085 0.5007 0.0
C956 C 0.44415 0.45831 0.50338 0.0
C957 C 0.52243 0.52169 0.49583 0.0
C958 C 0.51297 0.49783 0.48833 0.0
C959 C 0.48738 0.47783 0.49072 0.0
C960 C 0.52909 0.49344 0.47763 0.0
C961 C 0.54943 0.54417 0.4932 0.0
C962 C 0.52147 0.48871 0.46283 0.0
C963 C 0.5366 0.48481 0.45257 0.0
C964 C 0.55958 0.48543 0.45693 0.0
C965 C 0.567 0.48973 0.47181 0.0
C966 C 0.5518 0.49366 0.4821 0.0
H967 H 0.55159 0.56279 0.49721 0.0
H968 H 0.56365 0.54064 0.49916 0.0
H969 H 0.55435 0.54614 0.48129 0.0
H970 H 0.50394 0.48835 0.4592 0.0
H971 H 0.53035 0.48149 0.44118 0.0
H972 H 0.51683 0.09856 0.47697 0.0
H973 H 0.51369 0.06702 0.49545 0.0
H974 H 0.51893 0.01977 0.4611 0.0
H975 H 0.52229 0.05113 0.44266 0.0
H976 H 0.47461 0.01387 0.49621 0.0
H977 H 0.57308 0.02571 0.49139 0.0
H978 H 0.56536 0.04953 0.4845 0.0
H979 H 0.55603 0.02032 0.47425 0.0
C980 C 0.5176 0.08159 0.4734 0.0
C981 C 0.51985 0.07732 0.4584 0.0
C982 C 0.51579 0.06362 0.48394 0.0
C983 C 0.51643 0.04129 0.47962 0.0
C984 C 0.51891 0.03713 0.46467 0.0
H985 H 0.49612 0.90478 0.52733 0.0
H986 H 0.50236 0.93627 0.50796 0.0
C987 C 0.52067 0.05501 0.45415 0.0
C988 C 0.51299 0.02152 0.49063 0.0
H989 H 0.54233 0.99018 0.50572 0.0
C990 C 0.48945 0.00877 0.49836 0.0
C991 C 0.5323 0.01477 0.49324 0.0
C992 C 0.55822 0.02841 0.48551 0.0
C993 C 0.48462 0.98925 0.5086 0.0
C994 C 0.50404 0.9827 0.51135 0.0
C995 C 0.52749 0.99525 0.50352 0.0
C996 C 0.50081 0.96382 0.52289 0.0
C997 C 0.45865 0.9756 0.51629 0.0
C998 C 0.4984 0.96922 0.53763 0.0
C999 C 0.49484 0.95141 0.54862 0.0
C1000 C 0.49379 0.9279 0.54509 0.0
C1001 C 0.49674 0.9227 0.53034 0.0
C1002 C 0.50032 0.94063 0.5193 0.0
H1003 H 0.44368 0.97777 0.51016 0.0
H1004 H 0.45178 0.95459 0.51765 0.0
H1005 H 0.46062 0.98417 0.5274 0.0
H1006 H 0.49924 0.98725 0.54064 0.0
H1007 H 0.49284 0.95609 0.55989 0.0
H1008 H 0.40344 0.90276 0.0195 0.0
H1009 H 0.43134 0.93707 0.00205 0.0
H1010 H 0.48425 0.97965 0.03732 0.0
H1011 H 0.4569 0.94564 0.05465 0.0
H1012 H 0.44631 0.99056 0.00347 0.0
H1013 H 0.5318 0.97672 0.00567 0.0
H1014 H 0.5001 0.95247 0.01212 0.0
H1015 H 0.52063 0.98 0.02347 0.0
C1016 C 0.42116 0.91933 0.02346 0.0
C1017 C 0.42807 0.92146 0.03841 0.0
C1018 C 0.437 0.93889 0.01352 0.0
C1019 C 0.46001 0.96066 0.01839 0.0
C1020 C 0.46686 0.96276 0.03329 0.0
H1021 H 0.58295 0.10341 0.98095 0.0
H1022 H 0.55253 0.0691 0.99757 0.0
C1023 C 0.45111 0.94334 0.04319 0.0
C1024 C 0.4766 0.98178 0.00811 0.0
H1025 H 0.53835 0.01591 0.9947 0.0
C1026 C 0.46637 0.996 0.00142 0.0
C1027 C 0.50277 0.98885 0.00556 0.0
C1028 C 0.51445 0.97357 0.01197 0.0
C1029 C 0.48188 0.01757 0.99251 0.0
C1030 C 0.50813 0.02481 0.99013 0.0
C1031 C 0.51827 0.01044 0.9967 0.0
C1032 C 0.52526 0.04663 0.98038 0.0
C1033 C 0.47024 0.03278 0.98598 0.0
C1034 C 0.51986 0.04532 0.96529 0.0
C1035 C 0.53713 0.06476 0.95582 0.0
C1036 C 0.56018 0.08583 0.96128 0.0
C1037 C 0.56528 0.08746 0.97646 0.0
C1038 C 0.54799 0.06789 0.98594 0.0
H1039 H 0.45223 0.02888 0.99182 0.0
H1040 H 0.4843 0.05395 0.98637 0.0
H1041 H 0.46524 0.02713 0.97428 0.0
H1042 H 0.50266 0.02884 0.96076 0.0
H1043 H 0.53269 0.06293 0.94417 0.0
H1044 H 0.89897 0.4864 0.9751 0.0
H1045 H 0.9302 0.48832 0.99349 0.0
H1046 H 0.97644 0.48206 0.9589 0.0
H1047 H 0.94569 0.48039 0.94055 0.0
H1048 H 0.94795 0.45221 0.99905 0.0
H1049 H 0.02788 0.5486 0.98112 0.0
H1050 H 0.9945 0.53637 0.9758 0.0
H1051 H 0.01369 0.52493 0.96668 0.0
C1052 C 0.91575 0.48534 0.97146 0.0
C1053 C 0.91999 0.48343 0.9564 0.0
C1054 C 0.93353 0.48644 0.98194 0.0
C1055 C 0.95581 0.48578 0.97748 0.0
C1056 C 0.95964 0.48312 0.96251 0.0
H1057 H 0.08928 0.49866 0.02546 0.0
H1058 H 0.05757 0.49202 0.00613 0.0
C1059 C 0.94196 0.48204 0.95207 0.0
C1060 C 0.97518 0.48797 0.98844 0.0
H1061 H 0.03841 0.52617 0.99887 0.0
C1062 C 0.96771 0.46839 0.99905 0.0
C1063 C 0.00098 0.50904 0.98831 0.0
C1064 C 0.00977 0.53108 0.97746 0.0
C1065 C 0.98546 0.46924 0.00953 0.0
C1066 C 0.01117 0.49044 0.00949 0.0
C1067 C 0.01872 0.50988 0.99878 0.0
C1068 C 0.03006 0.49367 0.02105 0.0
C1069 C 0.97663 0.44734 0.02047 0.0
C1070 C 0.02516 0.49713 0.03572 0.0
C1071 C 0.04313 0.50097 0.04668 0.0
C1072 C 0.06645 0.50157 0.04318 0.0
C1073 C 0.07144 0.49821 0.02846 0.0
C1074 C 0.05339 0.49443 0.01744 0.0
H1075 H 0.95912 0.42949 0.01654 0.0
H1076 H 0.99225 0.44273 0.02268 0.0
H1077 H 0.97163 0.45323 0.03101 0.0
H1078 H 0.00753 0.49716 0.03867 0.0
H1079 H 0.03874 0.50358 0.05792 0.0
H1080 H 0.50392 0.40409 0.97418 0.0
H1081 H 0.49508 0.42853 0.99291 0.0
H1082 H 0.50306 0.48423 0.95995 0.0
H1083 H 0.51168 0.46009 0.9413 0.0
H1084 H 0.52669 0.48235 0.00119 0.0
H1085 H 0.43125 0.46061 0.97854 0.0
H1086 H 0.44671 0.44214 0.97363 0.0
H1087 H 0.45698 0.47312 0.9652 0.0
C1088 C 0.50384 0.42158 0.97098 0.0
C1089 C 0.50834 0.4301 0.95628 0.0
C1090 C 0.49876 0.43546 0.98165 0.0
C1091 C 0.49794 0.45786 0.97771 0.0
C1092 C 0.50306 0.46668 0.96313 0.0
H1093 H 0.47846 0.57745 0.01909 0.0
H1094 H 0.48398 0.54852 0.00208 0.0
C1095 C 0.50814 0.45292 0.95251 0.0
C1096 C 0.49216 0.47248 0.98877 0.0
H1097 H 0.45025 0.49441 0.99642 0.0
C1098 C 0.50984 0.48477 0.00029 0.0
C1099 C 0.4702 0.47563 0.98746 0.0
C1100 C 0.45004 0.46199 0.97562 0.0
C1101 C 0.50659 0.50091 0.01029 0.0
C1102 C 0.48485 0.50441 0.00882 0.0
C1103 C 0.46694 0.49176 0.99745 0.0
C1104 C 0.48046 0.52126 0.01897 0.0
C1105 C 0.52687 0.51474 0.02204 0.0
C1106 C 0.47603 0.51511 0.03397 0.0
C1107 C 0.47288 0.53152 0.04365 0.0
C1108 C 0.47394 0.55432 0.03848 0.0
C1109 C 0.47759 0.56005 0.02337 0.0
C1110 C 0.48076 0.54358 0.01367 0.0
H1111 H 0.54521 0.51485 0.01953 0.0
H1112 H 0.53125 0.5351 0.02332 0.0
H1113 H 0.51941 0.50467 0.03272 0.0
H1114 H 0.47521 0.4977 0.0382 0.0
H1115 H 0.46994 0.52649 0.05523 0.0
H1116 H 0.22785 0.99519 0.08896 0.0
H1117 H 0.2602 0.98161 0.08907 0.0
H1118 H 0.31515 0.05317 0.06787 0.0
H1119 H 0.28237 0.06699 0.06761 0.0
H1120 H 0.31438 0.00883 0.05636 0.0
H1121 H 0.32273 0.01072 0.11691 0.0
H1122 H 0.28937 0.99278 0.11131 0.0
H1123 H 0.30833 0.02691 0.10719 0.0
C1124 C 0.24674 0.00802 0.0842 0.0
C1125 C 0.25268 0.03223 0.07837 0.0
C1126 C 0.2653 0.00034 0.08441 0.0
C1127 C 0.29032 0.01678 0.07895 0.0
C1128 C 0.29604 0.04044 0.07239 0.0
H1129 H 0.38933 0.94635 0.09361 0.0
H1130 H 0.37775 0.98077 0.09419 0.0
C1131 C 0.2773 0.04818 0.07212 0.0
C1132 C 0.3098 0.00831 0.0799 0.0
H1133 H 0.33253 0.9805 0.10415 0.0
C1134 C 0.319 0.00329 0.06682 0.0
C1135 C 0.31641 0.0017 0.09358 0.0
C1136 C 0.30892 0.0086 0.10804 0.0
C1137 C 0.33231 0.98939 0.067 0.0
C1138 C 0.33599 0.97993 0.08057 0.0
C1139 C 0.32924 0.98732 0.09374 0.0
C1140 C 0.343 0.95934 0.08104 0.0
C1141 C 0.34118 0.98384 0.05259 0.0
C1142 C 0.32666 0.93562 0.07409 0.0
C1143 C 0.33307 0.91614 0.07383 0.0
C1144 C 0.35587 0.91982 0.08063 0.0
C1145 C 0.3716 0.94302 0.08832 0.0
C1146 C 0.36515 0.96271 0.08854 0.0
H1147 H 0.34544 -0.00068 0.04438 0.0
H1148 H 0.35879 0.98211 0.05407 0.0
H1149 H 0.32547 0.96528 0.04802 0.0
H1150 H 0.30903 0.9323 0.06867 0.0
H1151 H 0.32041 0.89836 0.06795 0.0
H1152 H 0.03284 0.44752 0.09166 0.0
H1153 H -0.00036 0.40114 0.09138 0.0
H1154 H 0.05968 0.38115 0.09617 0.0
H1155 H 0.09264 0.4271 0.09612 0.0
H1156 H 0.0032 0.36792 0.06832 0.0
H1157 H 0.00057 0.33075 0.12455 0.0
H1158 H 0.01073 0.36438 0.12085 0.0
H1159 H 0.03292 0.3525 0.11814 0.0
C1160 C 0.03872 0.43316 0.09327 0.0
C1161 C 0.06516 0.4407 0.09405 0.0
C1162 C 0.01983 0.40676 0.09297 0.0
C1163 C 0.02725 0.3878 0.09384 0.0
C1164 C 0.05353 0.39548 0.09571 0.0
H1165 H 0.00741 0.24463 0.07734 0.0
H1166 H 0.01806 0.28968 0.0801 0.0
C1167 C 0.07234 0.4217 0.09571 0.0
C1168 C 0.00862 0.36015 0.09082 0.0
H1169 H 0.98987 0.30007 0.1046 0.0
C1170 C -0.00055 0.35294 0.07635 0.0
C1171 C 0.00385 0.34077 0.10132 0.0
C1172 C 0.01232 0.34745 0.11713 0.0
C1173 C 0.9877 0.32691 0.07178 0.0
C1174 C 0.98503 0.30787 0.08201 0.0
C1175 C 0.99219 0.31484 0.09676 0.0
C1176 C 0.97856 0.2815 0.07737 0.0
C1177 C 0.98012 0.32011 0.05587 0.0
C1178 C 0.95295 0.26221 0.07419 0.0
C1179 C 0.94684 0.23634 0.07239 0.0
C1180 C 0.96628 0.22964 0.07394 0.0
C1181 C 0.9921 0.24933 0.07606 0.0
C1182 C 0.99818 0.27501 0.07772 0.0
H1183 H 0.98353 0.33725 0.04927 0.0
H1184 H 0.99141 0.31172 0.05098 0.0
H1185 H 0.95925 0.30516 0.05514 0.0
H1186 H 0.93754 0.2669 0.07397 0.0
H1187 H 0.92673 0.22142 0.07099 0.0
H1188 H 0.54614 0.62338 0.10182 0.0
H1189 H 0.59309 0.64225 0.10602 0.0
H1190 H 0.60746 0.66082 0.05984 0.0
H1191 H 0.5611 0.64228 0.05558 0.0
H1192 H 0.63672 0.63803 0.0739 0.0
H1193 H 0.64264 0.72364 0.10263 0.0
H1194 H 0.61872 0.69187 0.10897 0.0
H1195 H 0.61547 0.7026 0.09105 0.0
C1196 C 0.55935 0.63128 0.09259 0.0
C1197 C 0.55004 0.63164 0.07842 0.0
C1198 C 0.58607 0.64202 0.09498 0.0
C1199 C 0.60361 0.653 0.08322 0.0
C1200 C 0.5942 0.65241 0.06903 0.0
H1201 H 0.7688 0.7432 0.06583 0.0
H1202 H 0.72177 0.71308 0.06416 0.0
C1203 C 0.5677 0.64194 0.06666 0.0
C1204 C 0.63195 0.66681 0.08563 0.0
H1205 H 0.68163 0.72391 0.09854 0.0
C1206 C 0.64663 0.65668 0.07943 0.0
C1207 C 0.64465 0.69118 0.09273 0.0
C1208 C 0.62971 0.70318 0.09918 0.0
C1209 C 0.67388 0.67037 0.08017 0.0
C1210 C 0.68663 0.69509 0.08695 0.0
C1211 C 0.67182 0.70497 0.09333 0.0
C1212 C 0.7153 0.71123 0.08773 0.0
C1213 C 0.68867 0.65816 0.07382 0.0
C1214 C 0.72717 0.72034 0.10146 0.0
C1215 C 0.75369 0.73782 0.10238 0.0
C1216 C 0.76901 0.74647 0.08959 0.0
C1217 C 0.7574 0.73674 0.07584 0.0
C1218 C 0.73061 0.71941 0.07491 0.0
H1219 H 0.6763 0.63672 0.07303 0.0
H1220 H 0.69527 0.66579 0.06254 0.0
H1221 H 0.70601 0.66281 0.08059 0.0
H1222 H 0.71578 0.7143 0.11149 0.0
H1223 H 0.76216 0.74479 0.11315 0.0
H1224 H 0.95612 0.40726 0.405 0.0
H1225 H 0.98929 0.39396 0.40424 0.0
H1226 H 0.92952 0.31418 0.41019 0.0
H1227 H 0.89666 0.32723 0.4111 0.0
H1228 H 0.97635 0.34316 0.43291 0.0
H1229 H -0.00037 0.3412 0.37366 0.0
H1230 H 0.99444 0.36642 0.3811 0.0
H1231 H 0.96746 0.33427 0.37876 0.0
C1232 C 0.95009 0.38683 0.40561 0.0
C1233 C 0.92393 0.36821 0.40811 0.0
C1234 C 0.96901 0.37932 0.40531 0.0
C1235 C 0.96173 0.35316 0.4073 0.0
C1236 C 0.93543 0.33447 0.4087 0.0
H1237 H 0.98828 0.23272 0.40403 0.0
H1238 H 0.97812 0.26753 0.40337 0.0
C1239 C 0.9167 0.34192 0.40914 0.0
C1240 C 0.98109 0.34486 0.40938 0.0
H1241 H 0.01117 0.31807 0.39032 0.0
C1242 C 0.98477 0.33837 0.42369 0.0
C1243 C 0.99185 0.33872 0.39728 0.0
C1244 C 0.98833 0.34551 0.38178 0.0
C1245 C 0.99711 0.32384 0.4261 0.0
C1246 C 0.00605 0.31587 0.41387 0.0
C1247 C 0.00428 0.32428 0.39967 0.0
C1248 C 0.0126 0.29504 0.41519 0.0
C1249 C 0.99846 0.31519 0.44153 0.0
C1250 C 0.03508 0.29878 0.42245 0.0
C1251 C 0.04086 0.27864 0.42299 0.0
C1252 C 0.02428 0.25472 0.41617 0.0
C1253 C 0.00147 0.25095 0.40935 0.0
C1254 C 0.9957 0.27088 0.40887 0.0
H1255 H 0.98906 0.32172 0.44972 0.0
H1256 H 0.98888 0.29369 0.44197 0.0
H1257 H 0.01907 0.32316 0.44474 0.0
H1258 H 0.04838 0.31738 0.42736 0.0
H1259 H 0.05871 0.2821 0.42818 0.0
H1260 H 0.66982 0.56695 0.4187 0.0
H1261 H 0.68267 0.61273 0.41777 0.0
H1262 H 0.60609 0.59268 0.40268 0.0
H1263 H 0.59314 0.54632 0.40334 0.0
H1264 H 0.64579 0.63639 0.38866 0.0
H1265 H 0.659 0.64596 0.44887 0.0
H1266 H 0.67663 0.6316 0.44118 0.0
H1267 H 0.64173 0.6148 0.4398 0.0
C1268 C 0.65581 0.57228 0.41495 0.0
C1269 C 0.63046 0.55318 0.41118 0.0
C1270 C 0.66308 0.59841 0.41458 0.0
C1271 C 0.64504 0.60599 0.41068 0.0
C1272 C 0.62014 0.58711 0.40597 0.0
H1273 H 0.71763 0.7742 0.42788 0.0
H1274 H 0.68274 0.72842 0.42848 0.0
C1275 C 0.61286 0.56075 0.40621 0.0
C1276 C 0.6528 0.63376 0.41169 0.0
H1277 H 0.68486 0.68559 0.43471 0.0
C1278 C 0.65373 0.64712 0.3988 0.0
C1279 C 0.66232 0.6477 0.42503 0.0
C1280 C 0.65958 0.63419 0.43953 0.0
C1281 C 0.66648 0.67434 0.39858 0.0
C1282 C 0.67912 0.68837 0.4115 0.0
C1283 C 0.67569 0.6749 0.42473 0.0
C1284 C 0.69906 0.71627 0.41098 0.0
C1285 C 0.66717 0.68778 0.38437 0.0
C1286 C 0.72009 0.72435 0.40132 0.0
C1287 C 0.7398 0.75014 0.40099 0.0
C1288 C 0.73921 0.7685 0.41047 0.0
C1289 C 0.71855 0.76042 0.42047 0.0
C1290 C 0.69858 0.73439 0.42074 0.0
H1291 H 0.64909 0.67602 0.37793 0.0
H1292 H 0.66956 0.70727 0.38638 0.0
H1293 H 0.68365 0.69003 0.37755 0.0
H1294 H 0.72148 0.71058 0.39412 0.0
H1295 H 0.75559 0.75567 0.39327 0.0
H1296 H 0.43027 0.09531 0.43359 0.0
H1297 H 0.38437 0.06322 0.43306 0.0
H1298 H 0.3994 0.01647 0.40274 0.0
H1299 H 0.44604 0.04915 0.40307 0.0
H1300 H 0.35714 0.02094 0.39483 0.0
H1301 H 0.34828 0.99313 0.45331 0.0
H1302 H 0.36408 0.02774 0.45165 0.0
H1303 H 0.37931 0.0106 0.44412 0.0
C1304 C 0.42393 0.07823 0.42678 0.0
C1305 C 0.44179 0.07465 0.41844 0.0
C1306 C 0.39767 0.05974 0.42663 0.0
C1307 C 0.38858 0.03703 0.41827 0.0
C1308 C 0.40615 0.03368 0.40948 0.0
H1309 H 0.21831 0.93587 0.42859 0.0
H1310 H 0.26439 0.94768 0.42884 0.0
C1311 C 0.43267 0.05238 0.40959 0.0
C1312 C 0.36041 0.01796 0.41829 0.0
H1313 H 0.30898 0.98882 0.4419 0.0
C1314 C 0.34662 0.01329 0.40506 0.0
C1315 C 0.34665 0.00738 0.43157 0.0
C1316 C 0.36042 0.00974 0.44593 0.0
C1317 C 0.31941 0.0006 0.40501 0.0
C1318 C 0.30582 0.99296 0.41855 0.0
C1319 C 0.31946 0.99523 0.43157 0.0
C1320 C 0.27821 0.98588 0.41954 0.0
C1321 C 0.30552 0.99652 0.3905 0.0
C1322 C 0.27104 0.00392 0.41498 0.0
C1323 C 0.24507 0.99732 0.41487 0.0
C1324 C 0.22569 0.97263 0.41952 0.0
C1325 C 0.23293 0.95507 0.42502 0.0
C1326 C 0.25913 0.9617 0.42504 0.0
H1327 H 0.31688 0.99474 0.38132 0.0
H1328 H 0.28599 0.97887 0.39074 0.0
H1329 H 0.30317 0.01354 0.38817 0.0
H1330 H 0.28556 0.02299 0.41116 0.0
H1331 H 0.24008 0.01134 0.41071 0.0
H1332 H 0.74866 0.96759 0.93812 0.0
H1333 H 0.72 0.98525 0.9439 0.0
H1334 H 0.70963 0.99261 0.89749 0.0
H1335 H 0.73806 0.97539 0.8917 0.0
H1336 H 0.73185 0.03635 0.93335 0.0
H1337 H 0.63502 0.95894 0.91463 0.0
H1338 H 0.66094 0.95273 0.91937 0.0
H1339 H 0.66075 0.9664 0.90175 0.0
C1340 C 0.73986 0.97259 0.92921 0.0
C1341 C 0.74567 0.97032 0.91449 0.0
C1342 C 0.72354 0.98262 0.93251 0.0
C1343 C 0.71248 0.98986 0.9211 0.0
C1344 C 0.71759 0.98668 0.90644 0.0
H1345 H 0.63679 0.07808 0.90399 0.0
H1346 H 0.65504 0.04902 0.90318 0.0
C1347 C 0.73404 0.97706 0.90316 0.0
C1348 C 0.69799 0.00351 0.9242 0.0
H1349 H 0.64072 0.0016 0.91706 0.0
C1350 C 0.71177 0.02862 0.93008 0.0
C1351 C 0.67197 0.99344 0.91967 0.0
C1352 C 0.65619 0.9663 0.91361 0.0
C1353 C 0.70056 0.04444 0.93094 0.0
C1354 C 0.67464 0.03456 0.92615 0.0
C1355 C 0.66061 0.00915 0.92066 0.0
C1356 C 0.66195 0.05051 0.92668 0.0
C1357 C 0.71702 0.072 0.93633 0.0
C1358 C 0.6592 0.06032 0.94016 0.0
C1359 C 0.64918 0.07704 0.9406 0.0
C1360 C 0.64128 0.08394 0.9276 0.0
C1361 C 0.64288 0.07318 0.91415 0.0
C1362 C 0.65323 0.05658 0.91369 0.0
H1363 H 0.73808 0.07858 0.93576 0.0
H1364 H 0.7133 0.08558 0.92979 0.0
H1365 H 0.71216 0.07316 0.948 0.0
H1366 H 0.66517 0.05533 0.95033 0.0
H1367 H 0.64777 0.08468 0.95117 0.0
H1368 H 0.89986 0.57734 0.92617 0.0
H1369 H 0.93334 0.62263 0.92915 0.0
H1370 H 0.99085 0.60522 0.91247 0.0
H1371 H 0.95693 0.55956 0.90908 0.0
H1372 H 0.97564 0.63835 0.94788 0.0
H1373 H 0.00731 0.67194 0.89032 0.0
H1374 H 0.97715 0.64266 0.89432 0.0
H1375 H 0.00742 0.64318 0.89631 0.0
C1376 C 0.91954 0.58327 0.92281 0.0
C1377 C 0.92586 0.56504 0.91737 0.0
C1378 C 0.93867 0.6091 0.9246 0.0
C1379 C 0.9646 0.61728 0.92112 0.0
C1380 C 0.97091 0.59937 0.91508 0.0
H1381 H 0.07859 0.78395 0.92925 0.0
H1382 H 0.0647 0.73749 0.93049 0.0
C1383 C 0.95155 0.57337 0.9131 0.0
C1384 C 0.98469 0.64428 0.92472 0.0
H1385 H 0.02437 0.70328 0.90904 0.0
C1386 C 0.98669 0.65248 0.93942 0.0
C1387 C -0.00067 0.66259 0.9137 0.0
C1388 C 0.99773 0.65485 0.89775 0.0
C1389 C 0.00145 0.67877 0.94323 0.0
C1390 C 0.01452 0.69727 0.93206 0.0
C1391 C 0.0143 0.68893 0.91757 0.0
C1392 C 0.02435 0.7252 0.93458 0.0
C1393 C 0.00192 0.68675 0.95903 0.0
C1394 C 0.00638 0.73356 0.93694 0.0
C1395 C 0.01417 0.75984 0.93606 0.0
C1396 C 0.04012 0.77821 0.93304 0.0
C1397 C 0.05857 0.77012 0.93191 0.0
C1398 C 0.05064 0.74365 0.93248 0.0
H1399 H 0.99755 0.67055 0.96673 0.0
H1400 H 0.0211 0.70365 0.96192 0.0
H1401 H 0.98694 0.69246 0.9606 0.0
H1402 H 0.98595 0.71958 0.93837 0.0
H1403 H -0.00041 0.76564 0.93676 0.0
H1404 H 0.44573 0.39975 0.906 0.0
H1405 H 0.39971 0.38734 0.90893 0.0
H1406 H 0.3816 0.31041 0.92201 0.0
H1407 H 0.42703 0.32258 0.91922 0.0
H1408 H 0.35025 0.34209 0.89723 0.0
H1409 H 0.36085 0.34134 0.95776 0.0
H1410 H 0.38826 0.35832 0.94552 0.0
H1411 H 0.37382 0.32388 0.94823 0.0
C1412 C 0.43171 0.38001 0.90908 0.0
C1413 C 0.43986 0.36213 0.91247 0.0
C1414 C 0.40557 0.37304 0.91088 0.0
C1415 C 0.38753 0.3482 0.91606 0.0
C1416 C 0.39539 0.32986 0.91832 0.0
H1417 H 0.24104 0.23075 0.92721 0.0
H1418 H 0.28683 0.26424 0.92787 0.0
C1419 C 0.4213 0.33677 0.91661 0.0
C1420 C 0.36058 0.34107 0.91981 0.0
H1421 H 0.31733 0.31499 0.94815 0.0
C1422 C 0.34307 0.33696 0.90841 0.0
C1423 C 0.35138 0.3346 0.93445 0.0
C1424 C 0.36961 0.34 0.94723 0.0
C1425 C 0.31623 0.32428 0.9111 0.0
C1426 C 0.30693 0.31564 0.92553 0.0
C1427 C 0.32458 0.32165 0.93711 0.0
C1428 C 0.2794 0.29629 0.92812 0.0
C1429 C 0.29778 0.31825 0.89837 0.0
C1430 C 0.26017 0.30335 0.92878 0.0
C1431 C 0.23387 0.28414 0.92869 0.0
C1432 C 0.22674 0.25782 0.92769 0.0
C1433 C 0.24608 0.2509 0.92806 0.0
C1434 C 0.2722 0.26999 0.92837 0.0
H1435 H 0.30811 0.32702 0.8879 0.0
H1436 H 0.28588 0.2969 0.8969 0.0
H1437 H 0.28431 0.32561 0.90077 0.0
H1438 H 0.26549 0.32362 0.92858 0.0
H1439 H 0.21926 0.28991 0.92818 0.0
H1440 H 0.98251 0.74295 0.60617 0.0
H1441 H 0.99756 0.71235 0.60162 0.0
H1442 H 0.96803 0.70087 0.55723 0.0
H1443 H 0.95274 0.73185 0.56172 0.0
H1444 H 0.96945 0.65852 0.59151 0.0
H1445 H 0.04766 0.72682 0.55363 0.0
H1446 H 0.03101 0.73746 0.56594 0.0
H1447 H 0.01495 0.71928 0.54972 0.0
C1448 C 0.97908 0.7339 0.59543 0.0
C1449 C 0.9667 0.74001 0.58423 0.0
C1450 C 0.98756 0.71628 0.5929 0.0
C1451 C 0.98401 0.70451 0.5791 0.0
C1452 C 0.97105 0.70996 0.56794 0.0
H1453 H 0.06568 0.62599 0.54974 0.0
H1454 H 0.03444 0.64107 0.55108 0.0
C1455 C 0.96236 0.72759 0.5705 0.0
C1456 C 0.99551 0.6879 0.57638 0.0
H1457 H 0.0473 0.68855 0.55994 0.0
C1458 C 0.98625 0.66481 0.58445 0.0
C1459 C 0.01747 0.69633 0.56723 0.0
C1460 C 0.02858 0.72138 0.55867 0.0
C1461 C 0.9987 0.65006 0.58377 0.0
C1462 C 0.02128 0.65903 0.57504 0.0
C1463 C 0.02999 0.68171 0.56663 0.0
C1464 C 0.03691 0.64595 0.57475 0.0
C1465 C 0.9876 0.62511 0.5924 0.0
C1466 C 0.04826 0.64307 0.58768 0.0
C1467 C 0.066 0.63413 0.58696 0.0
C1468 C 0.07295 0.62847 0.57327 0.0
C1469 C 0.06082 0.63043 0.56045 0.0
C1470 C 0.04293 0.639 0.56118 0.0
H1471 H 0.96655 0.61696 0.59457 0.0
H1472 H 0.99038 0.61033 0.58649 0.0
H1473 H 0.99764 0.62902 0.60319 0.0
H1474 H 0.04435 0.64887 0.59824 0.0
H1475 H 0.07522 0.63292 0.59699 0.0
H1476 H 0.27648 0.21893 0.56911 0.0
H1477 H 0.31272 0.26413 0.56873 0.0
H1478 H 0.2673 0.28758 0.59477 0.0
H1479 H 0.23164 0.24308 0.59532 0.0
H1480 H 0.31546 0.30949 0.55879 0.0
H1481 H 0.33417 0.31698 0.61847 0.0
H1482 H 0.3155 0.28613 0.60923 0.0
H1483 H 0.30022 0.30422 0.61514 0.0
C1484 C 0.27427 0.23386 0.57461 0.0
C1485 C 0.25136 0.22751 0.58234 0.0
C1486 C 0.29499 0.25955 0.5745 0.0
C1487 C 0.29298 0.27898 0.58218 0.0
C1488 C 0.26964 0.27273 0.58925 0.0
H1489 H 0.32817 0.42778 0.57181 0.0
H1490 H 0.31618 0.38232 0.57198 0.0
C1491 C 0.24914 0.2473 0.5894 0.0
C1492 C 0.3144 0.30626 0.58243 0.0
H1493 H 0.34352 0.35753 0.60612 0.0
C1494 C 0.32228 0.31992 0.56911 0.0
C1495 C 0.32399 0.31983 0.59588 0.0
C1496 C 0.31824 0.30592 0.61047 0.0
C1497 C 0.33696 0.3471 0.56898 0.0
C1498 C 0.3433 0.3608 0.5825 0.0
C1499 C 0.33811 0.34704 0.59576 0.0
C1500 C 0.35109 0.38862 0.58306 0.0
C1501 C 0.34429 0.36095 0.55435 0.0
C1502 C 0.37402 0.40714 0.59007 0.0
C1503 C 0.38082 0.43339 0.5902 0.0
C1504 C 0.36465 0.44122 0.58336 0.0
C1505 C 0.34119 0.42238 0.57701 0.0
C1506 C 0.33443 0.3964 0.57695 0.0
H1507 H 0.34718 0.34913 0.54589 0.0
H1508 H 0.3283 0.36399 0.5505 0.0
H1509 H 0.3623 0.38013 0.55521 0.0
H1510 H 0.38688 0.40139 0.59511 0.0
H1511 H 0.39905 0.44758 0.59513 0.0
H1512 H 0.77361 0.06465 0.57111 0.0
H1513 H 0.72811 0.05367 0.57449 0.0
H1514 H 0.70643 0.97402 0.58283 0.0
H1515 H 0.75143 0.98478 0.57959 0.0
H1516 H 0.67583 0.00841 0.56165 0.0
H1517 H 0.69112 0.00551 0.6217 0.0
H1518 H 0.7175 0.02331 0.60892 0.0
H1519 H 0.70326 0.98874 0.61072 0.0
C1520 C 0.75891 0.04466 0.57314 0.0
C1521 C 0.76594 0.02554 0.57515 0.0
C1522 C 0.73306 0.03849 0.57519 0.0
C1523 C 0.71417 0.01318 0.5792 0.0
C1524 C 0.72087 0.99374 0.57995 0.0
H1525 H 0.56776 0.89886 0.59513 0.0
H1526 H 0.6138 0.9316 0.59453 0.0
C1527 C 0.74652 -0.00013 0.57801 0.0
C1528 C 0.6878 0.00682 0.58378 0.0
H1529 H 0.64691 0.98166 0.61318 0.0
C1530 C 0.66953 0.00335 0.57298 0.0
C1531 C 0.67981 0.0004 0.5986 0.0
C1532 C 0.69898 0.00489 0.61071 0.0
C1533 C 0.64299 0.99144 0.57644 0.0
C1534 C 0.63479 0.98294 0.59103 0.0
C1535 C 0.65331 0.98827 0.60202 0.0
C1536 C 0.6073 0.96426 0.59432 0.0
C1537 C 0.62362 0.98606 0.5643 0.0
C1538 C 0.58854 0.97194 0.59515 0.0
C1539 C 0.56211 0.95317 0.59578 0.0
C1540 C 0.55435 0.92665 0.59536 0.0
C1541 C 0.5733 0.91919 0.59555 0.0
C1542 C 0.59955 0.93785 0.59515 0.0
H1543 H 0.63317 0.99396 0.55352 0.0
H1544 H 0.61045 0.9648 0.56317 0.0
H1545 H 0.61151 0.99481 0.56713 0.0
H1546 H 0.59426 0.99229 0.59454 0.0
H1547 H 0.54779 0.95934 0.5954 0.0
H1548 H 0.68094 0.58046 0.72133 0.0
H1549 H 0.66499 0.61075 0.72355 0.0
H1550 H 0.68549 0.62146 0.76962 0.0
H1551 H 0.70229 0.59126 0.76737 0.0
H1552 H 0.62496 0.60334 0.74099 0.0
H1553 H 0.7138 0.69606 0.75524 0.0
H1554 H 0.71501 0.66843 0.74796 0.0
H1555 H 0.70717 0.66914 0.767 0.0
C1556 C 0.68228 0.58936 0.73195 0.0
C1557 C 0.6927 0.58335 0.74423 0.0
C1558 C 0.67322 0.60675 0.73317 0.0
C1559 C 0.67422 0.61851 0.7467 0.0
C1560 C 0.68499 0.61295 0.759 0.0
H1561 H 0.59849 0.69907 0.77797 0.0
H1562 H 0.62686 0.6809 0.77432 0.0
C1563 C 0.69437 0.59558 0.75774 0.0
C1564 C 0.66203 0.63487 0.74792 0.0
H1565 H 0.67368 0.69582 0.7561 0.0
C1566 C 0.63568 0.62361 0.74419 0.0
C1567 C 0.67608 0.66129 0.7521 0.0
C1568 C 0.70464 0.67459 0.75569 0.0
C1569 C 0.62287 0.63794 0.74468 0.0
C1570 C 0.63685 0.66432 0.74889 0.0
C1571 C 0.66318 0.67565 0.75269 0.0
C1572 C 0.6236 0.67954 0.75059 0.0
C1573 C 0.59426 0.62456 0.7411 0.0
C1574 C 0.61318 0.68566 0.73837 0.0
C1575 C 0.59693 0.69617 0.7404 0.0
C1576 C 0.59085 0.70041 0.7547 0.0
C1577 C 0.60265 0.69573 0.76682 0.0
C1578 C 0.61897 0.68548 0.76478 0.0
H1579 H 0.58546 0.60315 0.74038 0.0
H1580 H 0.58364 0.6291 0.74956 0.0
H1581 H 0.59152 0.6317 0.73033 0.0
H1582 H 0.61673 0.6813 0.72732 0.0
H1583 H 0.5881 0.69964 0.73089 0.0
H1584 H 0.40318 0.09303 0.71983 0.0
H1585 H 0.37363 0.04665 0.72241 0.0
H1586 H 0.36911 0.05622 0.76923 0.0
H1587 H 0.39846 0.10328 0.76663 0.0
H1588 H 0.38408 0.01462 0.73812 0.0
H1589 H 0.29311 0.00856 0.75834 0.0
H1590 H 0.31927 0.03777 0.75037 0.0
H1591 H 0.32141 0.02922 0.76909 0.0
C1592 C 0.39574 0.08537 0.73069 0.0
C1593 C 0.40326 0.10173 0.74307 0.0
C1594 C 0.37878 0.05884 0.73212 0.0
C1595 C 0.36901 0.04798 0.74597 0.0
C1596 C 0.37603 0.06428 0.75838 0.0
H1597 H 0.29587 0.89291 0.77888 0.0
H1598 H 0.31328 0.93923 0.77489 0.0
C1599 C 0.39291 0.09108 0.75692 0.0
C1600 C 0.35336 0.01939 0.74736 0.0
H1601 H 0.29473 0.96933 0.75848 0.0
C1602 C 0.36445 0.00472 0.74245 0.0
C1603 C 0.32778 0.00655 0.75302 0.0
C1604 C 0.31454 0.02128 0.75789 0.0
C1605 C 0.35087 0.97759 0.74327 0.0
C1606 C 0.32539 0.96475 0.74902 0.0
C1607 C 0.3142 0.97932 0.75392 0.0
C1608 C 0.31114 0.93633 0.75114 0.0
C1609 C 0.36417 0.96288 0.7384 0.0
C1610 C 0.30339 0.91929 0.73907 0.0
C1611 C 0.29336 0.89266 0.74131 0.0
C1612 C 0.29114 0.88292 0.75564 0.0
C1613 C 0.29761 0.89992 0.76769 0.0
C1614 C 0.30743 0.92637 0.76545 0.0
H1615 H 0.3853 0.97591 0.73657 0.0
H1616 H 0.36147 0.94806 0.74672 0.0
H1617 H 0.3554 0.95265 0.72791 0.0
H1618 H 0.30597 0.92671 0.72794 0.0
H1619 H 0.28845 0.87996 0.73185 0.0
H1620 H 0.89676 0.30161 0.71916 0.0
H1621 H 0.94309 0.31791 0.72161 0.0
H1622 H 0.93419 0.30625 0.76862 0.0
H1623 H 0.88717 0.28912 0.76617 0.0
H1624 H 0.97539 0.36124 0.73688 0.0
H1625 H 0.98151 0.27703 0.75829 0.0
H1626 H 0.95228 0.2737 0.75016 0.0
H1627 H 0.9609 0.2851 0.76876 0.0
C1628 C 0.90455 0.30222 0.73003 0.0
C1629 C 0.88841 0.2943 0.74251 0.0
C1630 C 0.93104 0.31147 0.73139 0.0
C1631 C 0.94207 0.31315 0.74526 0.0
C1632 C 0.92597 0.30464 0.75777 0.0
H1633 H 0.09741 0.39572 0.77768 0.0
H1634 H 0.05108 0.36663 0.77383 0.0
C1635 C 0.8992 0.29505 0.75639 0.0
C1636 C 0.97069 0.32608 0.74654 0.0
H1637 H 0.02082 0.31782 0.7579 0.0
C1638 C 0.98533 0.35165 0.74135 0.0
C1639 C 0.98355 0.31351 0.7524 0.0
C1640 C 0.96881 0.28574 0.75761 0.0
C1641 C 0.01247 0.3652 0.74209 0.0
C1642 C 0.02535 0.35274 0.74802 0.0
C1643 C 0.0108 0.32715 0.7532 0.0
C1644 C 0.0538 0.36697 0.75008 0.0
C1645 C 0.02715 0.39306 0.73695 0.0
C1646 C 0.07076 0.3761 0.73797 0.0
C1647 C 0.09739 0.39281 0.74013 0.0
C1648 C 0.10723 0.40063 0.75443 0.0
C1649 C 0.09033 0.39025 0.76652 0.0
C1650 C 0.06387 0.37351 0.76436 0.0
H1651 H 0.0141 0.40113 0.73505 0.0
H1652 H 0.04212 0.40543 0.74515 0.0
H1653 H 0.03718 0.39419 0.72644 0.0
H1654 H 0.06326 0.37103 0.72686 0.0
H1655 H 0.11003 0.40047 0.73064 0.0
H1656 H 0.39995 0.28212 0.26697 0.0
H1657 H 0.37268 0.30221 0.26996 0.0
H1658 H 0.39844 0.33943 0.22769 0.0
H1659 H 0.42557 0.31991 0.22469 0.0
H1660 H 0.40386 0.37302 0.25107 0.0
H1661 H 0.30454 0.28681 0.24783 0.0
H1662 H 0.32681 0.28491 0.26051 0.0
H1663 H 0.3329 0.28638 0.24109 0.0
C1664 C 0.39962 0.29448 0.25832 0.0
C1665 C 0.41498 0.29955 0.24565 0.0
C1666 C 0.38394 0.30576 0.25998 0.0
C1667 C 0.38343 0.32208 0.24896 0.0
C1668 C 0.39851 0.32683 0.23628 0.0
H1669 H 0.29476 0.40143 0.23586 0.0
H1670 H 0.3139 0.37334 0.23269 0.0
C1671 C 0.41407 0.31567 0.23462 0.0
C1672 C 0.36872 0.33587 0.25084 0.0
H1673 H 0.30759 0.32745 0.25256 0.0
C1674 C 0.38281 0.36306 0.2514 0.0
C1675 C 0.34128 0.32276 0.25108 0.0
C1676 C 0.32536 0.2936 0.25 0.0
C1677 C 0.37022 0.37756 0.25232 0.0
C1678 C 0.34283 0.36449 0.25283 0.0
C1679 C 0.32862 0.33731 0.25214 0.0
C1680 C 0.329 0.37906 0.2549 0.0
C1681 C 0.38629 0.4068 0.25272 0.0
C1682 C 0.33086 0.39102 0.26846 0.0
C1683 C 0.32021 0.407 0.27025 0.0
C1684 C 0.30736 0.4113 0.25852 0.0
C1685 C 0.30467 0.39856 0.24505 0.0
C1686 C 0.31546 0.38248 0.24325 0.0
H1687 H 0.40666 0.41393 0.24923 0.0
H1688 H 0.37769 0.41557 0.24548 0.0
H1689 H 0.38659 0.41364 0.26413 0.0
H1690 H 0.34112 0.38845 0.27757 0.0
H1691 H 0.32241 0.4163 0.28083 0.0
H1692 H 0.62019 0.88584 0.23716 0.0
H1693 H 0.65574 0.93141 0.23665 0.0
H1694 H 0.60702 0.95449 0.25959 0.0
H1695 H 0.57201 0.90966 0.26024 0.0
H1696 H 0.65812 0.97661 0.22536 0.0
H1697 H 0.67191 0.98468 0.28553 0.0
H1698 H 0.65479 0.95374 0.2762 0.0
H1699 H 0.63821 0.97108 0.28108 0.0
C1700 C 0.61709 0.90078 0.2419 0.0
C1701 C 0.59348 0.89426 0.24884 0.0
C1702 C 0.63741 0.92667 0.24172 0.0
C1703 C 0.63424 0.94611 0.24855 0.0
C1704 C 0.61018 0.93966 0.25473 0.0
H1705 H 0.66844 0.09452 0.23674 0.0
H1706 H 0.65697 0.04921 0.23714 0.0
C1707 C 0.59009 0.91405 0.25495 0.0
C1708 C 0.65532 0.97351 0.249 0.0
H1709 H 0.68195 0.0249 0.27269 0.0
C1710 C 0.66402 0.98712 0.2357 0.0
C1711 C 0.66368 0.98717 0.26249 0.0
C1712 C 0.65688 0.97331 0.27712 0.0
C1713 C 0.67837 0.01433 0.23557 0.0
C1714 C 0.68352 0.02807 0.24903 0.0
C1715 C 0.67748 0.01438 0.26235 0.0
C1716 C 0.69099 0.05581 0.24937 0.0
C1717 C 0.68664 0.02812 0.22095 0.0
C1718 C 0.71318 0.07444 0.25691 0.0
C1719 C 0.71965 0.10059 0.2569 0.0
C1720 C 0.70388 0.10823 0.2494 0.0
C1721 C 0.68114 0.08928 0.24247 0.0
C1722 C 0.6747 0.06339 0.24254 0.0
H1723 H 0.69038 0.01642 0.21281 0.0
H1724 H 0.67078 0.03086 0.21651 0.0
H1725 H 0.7044 0.04745 0.22205 0.0
H1726 H 0.72572 0.06884 0.2625 0.0
H1727 H 0.73732 0.11487 0.26229 0.0
H1728 H 0.90508 0.59089 0.22267 0.0
H1729 H 0.95119 0.62002 0.22703 0.0
H1730 H 0.93622 0.62225 0.27331 0.0
H1731 H 0.88948 0.59291 0.269 0.0
H1732 H 0.97853 0.67228 0.2423 0.0
H1733 H 0.98833 0.59272 0.26834 0.0
H1734 H 0.96121 0.58619 0.25662 0.0
H1735 H 0.96309 0.59854 0.27486 0.0
C1736 C 0.91149 0.59769 0.23379 0.0
C1737 C 0.89375 0.58943 0.24555 0.0
C1738 C 0.93783 0.61446 0.23622 0.0
C1739 C 0.947 0.62312 0.25047 0.0
C1740 C 0.92936 0.61563 0.26223 0.0
H1741 H 0.10645 0.69407 0.27946 0.0
H1742 H 0.05968 0.67592 0.27818 0.0
C1743 C 0.90278 0.59895 0.25977 0.0
C1744 C 0.97528 0.63842 0.25289 0.0
H1745 H 0.02648 0.63232 0.26441 0.0
C1746 C 0.9891 0.66377 0.2473 0.0
C1747 C 0.98883 0.62703 0.25928 0.0
C1748 C 0.97477 0.59958 0.26508 0.0
C1749 C 0.01634 0.6781 0.24792 0.0
C1750 C 0.02996 0.66643 0.25395 0.0
C1751 C 0.016 0.64121 0.25975 0.0
C1752 C 0.05868 0.67987 0.25454 0.0
C1753 C 0.0302 0.70561 0.24225 0.0
C1754 C 0.07378 0.6884 0.24165 0.0
C1755 C 0.10078 0.6991 0.24236 0.0
C1756 C 0.11285 0.70092 0.25594 0.0
C1757 C 0.09768 0.69271 0.2688 0.0
C1758 C 0.07092 0.68237 0.26811 0.0
H1759 H 0.01717 0.71397 0.242 0.0
H1760 H 0.0474 0.71825 0.24914 0.0
H1761 H 0.03694 0.70579 0.23083 0.0
H1762 H 0.06465 0.68611 0.23101 0.0
H1763 H 0.11204 0.70521 0.23229 0.0
H1764 H 0.01842 0.14808 0.10372 0.0
H1765 H 0.05649 0.14322 0.09952 0.0
H1766 H 0.04989 0.15082 0.05273 0.0
H1767 H 0.01174 0.15553 0.0568 0.0
H1768 H 0.05416 0.10166 0.0789 0.0
H1769 H 0.1292 0.20325 0.065 0.0
H1770 H 0.10119 0.19592 0.07616 0.0
H1771 H 0.09748 0.18979 0.05674 0.0
C1772 C 0.02521 0.14895 0.09256 0.0
C1773 C 0.01208 0.15212 0.08059 0.0
C1774 C 0.04692 0.14618 0.09018 0.0
C1775 C 0.05601 0.14687 0.07583 0.0
C1776 C 0.04328 0.15052 0.06389 0.0
H1777 H 0.16381 0.09158 0.05378 0.0
H1778 H 0.13346 0.10777 0.04986 0.0
C1779 C 0.02145 0.15309 0.06624 0.0
C1780 C 0.07778 0.14205 0.07335 0.0
H1781 H 0.14242 0.17185 0.0651 0.0
C1782 C 0.07339 0.1169 0.07572 0.0
C1783 C 0.10274 0.16205 0.06919 0.0
C1784 C 0.10819 0.18937 0.06666 0.0
C1785 C 0.09354 0.1113 0.07433 0.0
C1786 C 0.11867 0.1314 0.07048 0.0
C1787 C 0.12301 0.15649 0.06785 0.0
C1788 C 0.14095 0.12697 0.07101 0.0
C1789 C 0.08817 0.08416 0.07754 0.0
C1790 C 0.15581 0.13338 0.0839 0.0
C1791 C 0.17281 0.124 0.0862 0.0
C1792 C 0.17542 0.10831 0.07556 0.0
C1793 C 0.16229 0.10384 0.06208 0.0
C1794 C 0.14493 0.11298 0.05985 0.0
H1795 H 0.0678 0.07104 0.08106 0.0
H1796 H 0.09201 0.07591 0.06753 0.0
H1797 H 0.10139 0.08467 0.08634 0.0
H1798 H 0.15288 0.14407 0.09263 0.0
H1799 H 0.18275 0.12772 0.09669 0.0
H1800 H 0.89961 0.0771 0.05532 0.0
H1801 H 0.87848 0.02961 0.05283 0.0
H1802 H 0.86756 0.0216 0.09991 0.0
H1803 H 0.88809 0.06839 0.1024 0.0
H1804 H 0.89851 0.00165 0.06531 0.0
H1805 H 0.79864 0.96354 0.08577 0.0
H1806 H 0.81879 0.99691 0.0801 0.0
H1807 H 0.8217 0.98682 0.09838 0.0
C1808 C 0.89198 0.06506 0.06504 0.0
C1809 C 0.89556 0.07637 0.07905 0.0
C1810 C 0.87999 0.03801 0.06362 0.0
C1811 C 0.87111 0.02202 0.07617 0.0
C1812 C 0.87362 0.03339 0.09003 0.0
H1813 H 0.84835 0.88047 0.11122 0.0
H1814 H 0.85204 0.92256 0.1057 0.0
C1815 C 0.88564 0.06023 0.09145 0.0
C1816 C 0.86255 0.994 0.07532 0.0
H1817 H 0.81666 0.93494 0.08863 0.0
C1818 C 0.88032 0.98691 0.07005 0.0
C1819 C 0.83886 0.97482 0.08158 0.0
C1820 C 0.81832 0.9809 0.08663 0.0
C1821 C 0.8758 0.96155 0.07176 0.0
C1822 C 0.85279 0.94278 0.07879 0.0
C1823 C 0.83441 0.94949 0.08339 0.0
C1824 C 0.84825 0.91651 0.08212 0.0
C1825 C 0.8963 0.95534 0.06678 0.0
C1826 C 0.84434 0.89908 0.07071 0.0
C1827 C 0.84225 0.87513 0.07382 0.0
C1828 C 0.84399 0.86818 0.08842 0.0
C1829 C 0.84701 0.88532 0.09988 0.0
C1830 C 0.84906 0.9093 0.09675 0.0
H1831 H 0.91474 0.97305 0.06373 0.0
H1832 H 0.9004 0.94493 0.07558 0.0
H1833 H 0.88912 0.94244 0.057 0.0
H1834 H 0.84339 0.90421 0.05937 0.0
H1835 H 0.83978 0.86228 0.06475 0.0
H1836 H 0.91858 0.83342 0.06025 0.0
H1837 H 0.96529 0.86079 0.05502 0.0
H1838 H 0.98176 0.86553 0.10155 0.0
H1839 H 0.93574 0.83849 0.10677 0.0
H1840 H 0.99441 0.91136 0.06572 0.0
H1841 H 0.03785 0.85324 0.08446 0.0
H1842 H 0.00371 0.83888 0.08021 0.0
H1843 H 0.01596 0.85345 0.09796 0.0
C1844 C 0.93232 0.8398 0.06928 0.0
C1845 C 0.92362 0.83397 0.0839 0.0
C1846 C 0.95891 0.85543 0.06629 0.0
C1847 C 0.97701 0.86487 0.07789 0.0
C1848 C 0.96827 0.858 0.09241 0.0
H1849 H 0.12232 0.98571 0.10618 0.0
H1850 H 0.07946 0.94743 0.10219 0.0
C1851 C 0.94189 0.84272 0.09538 0.0
C1852 C 0.00456 0.88455 0.07534 0.0
H1853 H 0.06591 0.9001 0.08554 0.0
C1854 C 0.01017 0.90875 0.06967 0.0
C1855 C 0.02503 0.88109 0.08056 0.0
C1856 C 0.02034 0.85514 0.086 0.0
C1857 C 0.03548 0.93011 0.07008 0.0
C1858 C 0.05565 0.927 0.07616 0.0
C1859 C 0.05031 0.90245 0.08104 0.0
C1860 C 0.08203 0.94938 0.07841 0.0
C1861 C 0.0402 0.9562 0.06485 0.0
C1862 C 0.09769 0.96285 0.06635 0.0
C1863 C 0.12209 0.98469 0.0686 0.0
C1864 C 0.13126 0.99338 0.08295 0.0
C1865 C 0.11573 0.97953 0.09501 0.0
C1866 C 0.09132 0.95765 0.09275 0.0
H1867 H 0.02179 0.95619 0.06275 0.0
H1868 H 0.05172 0.97148 0.07309 0.0
H1869 H 0.05147 0.96139 0.05444 0.0
H1870 H 0.09097 0.95656 0.05521 0.0
H1871 H 0.13369 0.99488 0.05907 0.0
H1872 H 0.08724 0.16839 0.44293 0.0
H1873 H 0.10783 0.14205 0.44778 0.0
H1874 H 0.12428 0.14305 0.40143 0.0
H1875 H 0.10405 0.1691 0.3966 0.0
H1876 H 0.08882 0.09307 0.43546 0.0
H1877 H 0.1916 0.15509 0.41985 0.0
H1878 H 0.17076 0.16822 0.42412 0.0
H1879 H 0.17044 0.15571 0.406 0.0
C1880 C 0.09594 0.16355 0.43389 0.0
C1881 C 0.094 0.17064 0.41939 0.0
C1882 C 0.10762 0.1485 0.43665 0.0
C1883 C 0.11791 0.14091 0.42499 0.0
C1884 C 0.11705 0.14916 0.41065 0.0
H1885 H 0.14778 0.02615 0.39294 0.0
H1886 H 0.14286 0.06377 0.39845 0.0
C1887 C 0.10524 0.16386 0.40789 0.0
C1888 C 0.12629 0.12151 0.42713 0.0
H1889 H 0.17393 0.10853 0.41706 0.0
C1890 C 0.10768 0.09657 0.43184 0.0
C1891 C 0.15087 0.12614 0.42234 0.0
C1892 C 0.17213 0.15284 0.41794 0.0
C1893 C 0.11228 0.07567 0.43083 0.0
C1894 C 0.13627 0.08001 0.42514 0.0
C1895 C 0.15546 0.10524 0.42127 0.0
C1896 C 0.14094 0.05826 0.42207 0.0
C1897 C 0.09085 0.04884 0.43495 0.0
C1898 C 0.14192 0.04303 0.43355 0.0
C1899 C 0.14464 0.02151 0.43043 0.0
C1900 C 0.14653 0.01494 0.41577 0.0
C1901 C 0.14627 0.03067 0.40432 0.0
C1902 C 0.14354 0.05219 0.40745 0.0
H1903 H 0.07205 0.04816 0.43677 0.0
H1904 H 0.08818 0.03464 0.42622 0.0
H1905 H 0.09617 0.04265 0.44528 0.0
H1906 H 0.1403 0.04762 0.4449 0.0
H1907 H 0.14496 0.00986 0.4395 0.0
H1908 H 0.97094 0.11956 0.39256 0.0
H1909 H 0.93332 0.07705 0.39794 0.0
H1910 H 0.94151 0.09556 0.44427 0.0
H1911 H 0.97935 0.13794 0.43899 0.0
H1912 H 0.93895 0.04972 0.43885 0.0
H1913 H 0.85867 0.05224 0.40974 0.0
H1914 H 0.88616 0.06192 0.39791 0.0
H1915 H 0.88905 0.08129 0.41382 0.0
C1916 C 0.96447 0.11473 0.40386 0.0
C1917 C 0.97814 0.13202 0.41535 0.0
C1918 C 0.94283 0.09052 0.40692 0.0
C1919 C 0.93434 0.0833 0.42149 0.0
C1920 C 0.94759 0.10083 0.43294 0.0
H1921 H 0.80587 0.92057 0.43307 0.0
H1922 H 0.83098 0.96745 0.43872 0.0
C1923 C 0.96924 0.125 0.4299 0.0
C1924 C 0.91362 0.05645 0.42484 0.0
H1925 H 0.85325 0.00941 0.41396 0.0
C1926 C 0.91995 0.04108 0.43373 0.0
C1927 C 0.88868 0.04523 0.41836 0.0
C1928 C 0.88014 0.06113 0.40956 0.0
C1929 C 0.90285 0.01436 0.43523 0.0
C1930 C 0.87897 0.00278 0.42761 0.0
C1931 C 0.87168 0.01841 0.41975 0.0
C1932 C 0.86397 0.97443 0.42535 0.0
C1933 C 0.91104 0.99839 0.44424 0.0
C1934 C 0.87432 0.96315 0.41603 0.0
C1935 C 0.8601 0.93686 0.4127 0.0
C1936 C 0.83526 0.9212 0.4187 0.0
C1937 C 0.82505 0.93227 0.42839 0.0
C1938 C 0.83927 0.95892 0.43157 0.0
H1939 H 0.92616 0.01049 0.45245 0.0
H1940 H 0.89416 0.9825 0.45008 0.0
H1941 H 0.91922 0.98948 0.43681 0.0
H1942 H 0.89325 0.97489 0.41105 0.0
H1943 H 0.86851 0.92884 0.40525 0.0
H1944 H 0.06231 0.89804 0.39174 0.0
H1945 H 0.01557 0.87579 0.39532 0.0
H1946 H 0.02611 0.87254 0.44212 0.0
H1947 H 0.07351 0.89542 0.4386 0.0
H1948 H 0.97942 0.82823 0.40802 0.0
H1949 H 0.98693 0.91302 0.4386 0.0
H1950 H 0.01398 0.91495 0.42854 0.0
H1951 H 0.00454 0.8982 0.44586 0.0
C1952 C 0.05477 0.89239 0.40281 0.0
C1953 C 0.07158 0.89877 0.41493 0.0
C1954 C 0.028 0.87955 0.40482 0.0
C1955 C 0.01738 0.87284 0.41899 0.0
C1956 C 0.03398 0.87791 0.4311 0.0
H1957 H 0.8565 0.83471 0.43423 0.0
H1958 H 0.89846 0.83766 0.43873 0.0
C1959 C 0.06098 0.89082 0.42908 0.0
C1960 C 0.98913 0.86241 0.4208 0.0
H1961 H 0.94549 0.8805 0.43157 0.0
C1962 C 0.9719 0.83938 0.41341 0.0
C1963 C 0.97939 0.87703 0.42782 0.0
C1964 C 0.99708 0.90226 0.4356 0.0
C1965 C 0.94536 0.83119 0.4123 0.0
C1966 C 0.93593 0.84663 0.41857 0.0
C1967 C 0.95284 0.86878 0.42672 0.0
C1968 C 0.90929 0.84162 0.41573 0.0
C1969 C 0.92777 0.80643 0.40412 0.0
C1970 C 0.90141 0.84272 0.4013 0.0
C1971 C 0.87749 0.84111 0.39868 0.0
C1972 C 0.8611 0.83851 0.41048 0.0
C1973 C 0.86871 0.83668 0.4249 0.0
C1974 C 0.89265 0.83835 0.4275 0.0
H1975 H 0.9357 0.79302 0.40416 0.0
H1976 H 0.90801 0.7963 0.40901 0.0
H1977 H 0.92612 0.81112 0.39249 0.0
H1978 H 0.91421 0.84584 0.39208 0.0
H1979 H 0.87221 0.8427 0.38747 0.0
H1980 H 0.83362 0.8955 0.88667 0.0
H1981 H 0.86267 0.87805 0.88964 0.0
H1982 H 0.86672 0.89267 0.93637 0.0
H1983 H 0.83703 0.90993 0.93347 0.0
H1984 H 0.91295 0.91029 0.90052 0.0
H1985 H 0.85969 0.81968 0.93346 0.0
H1986 H 0.84326 0.83363 0.92354 0.0
H1987 H 0.85969 0.84796 0.9405 0.0
C1988 C 0.84022 0.8945 0.89764 0.0
C1989 C 0.83326 0.90424 0.90984 0.0
C1990 C 0.8568 0.8845 0.89932 0.0
C1991 C 0.86683 0.88406 0.9132 0.0
C1992 C 0.85888 0.8925 0.92558 0.0
H1993 H 0.99409 0.85844 0.93632 0.0
H1994 H 0.95704 0.86563 0.93694 0.0
C1995 C 0.842 0.9024 0.92392 0.0
C1996 C 0.88786 0.87769 0.91419 0.0
H1997 H 0.90364 0.83382 0.92775 0.0
C1998 C 0.9109 0.89354 0.90646 0.0
C1999 C 0.88516 0.85598 0.92205 0.0
C2000 C 0.86058 0.83815 0.9303 0.0
C2001 C 0.93131 0.88821 0.90627 0.0
C2002 C 0.92843 0.86616 0.91382 0.0
C2003 C 0.90562 0.85056 0.92185 0.0
C2004 C 0.9492 0.85938 0.9136 0.0
C2005 C 0.95593 0.90642 0.89812 0.0
C2006 C 0.95663 0.8529 0.9003 0.0
C2007 C 0.97784 0.84885 0.89989 0.0
C2008 C 0.99187 0.85115 0.91279 0.0
C2009 C 0.98374 0.85668 0.92618 0.0
C2010 C 0.96254 0.8607 0.92658 0.0
H2011 H 0.95739 0.92548 0.89594 0.0
H2012 H 0.97331 0.90974 0.90444 0.0
H2013 H 0.95614 0.89766 0.88737 0.0
H2014 H 0.94631 0.85146 0.8902 0.0
H2015 H 0.98355 0.84446 0.88944 0.0
H2016 H 0.11593 0.93242 0.89292 0.0
H2017 H 0.13246 0.97908 0.89328 0.0
H2018 H 0.1153 0.97522 0.93966 0.0
H2019 H 0.09892 0.92827 0.93942 0.0
H2020 H 0.0991 0.99762 0.90079 0.0
H2021 H 0.18727 0.04157 0.9361 0.0
H2022 H 0.17439 0.00985 0.92784 0.0
H2023 H 0.15911 0.01408 0.94382 0.0
C2024 C 0.11626 0.94158 0.90329 0.0
C2025 C 0.10601 0.92672 0.91613 0.0
C2026 C 0.12571 0.96824 0.90347 0.0
C2027 C 0.12514 0.98061 0.91648 0.0
C2028 C 0.11628 0.96611 0.92955 0.0
H2029 H 0.14292 0.13139 0.93454 0.0
H2030 H 0.13748 0.08792 0.9359 0.0
C2031 C 0.10689 0.93931 0.9294 0.0
C2032 C 0.13077 0.0078 0.91583 0.0
H2033 H 0.17103 0.06907 0.92869 0.0
C2034 C 0.11493 0.01329 0.90682 0.0
C2035 C 0.15127 0.02808 0.92381 0.0
C2036 C 0.16917 0.02327 0.93337 0.0
C2037 C 0.11886 0.03848 0.90566 0.0
C2038 C 0.13954 0.05887 0.9135 0.0
C2039 C 0.15532 0.0534 0.9226 0.0
C2040 C 0.14449 0.08583 0.9127 0.0
C2041 C 0.1004 0.04291 0.89635 0.0
C2042 C 0.1507 0.09924 0.89924 0.0
C2043 C 0.15368 0.12406 0.8984 0.0
C2044 C 0.15068 0.13591 0.91105 0.0
C2045 C 0.14523 0.12272 0.92459 0.0
C2046 C 0.1422 0.09792 0.9254 0.0
H2047 H 0.08208 0.02452 0.89408 0.0
H2048 H 0.09554 0.05664 0.9018 0.0
H2049 H 0.10973 0.05141 0.88562 0.0
H2050 H 0.15298 0.09039 0.88935 0.0
H2051 H 0.15807 0.13384 0.88785 0.0
H2052 H 0.07594 0.16521 0.93851 0.0
H2053 H 0.02865 0.13594 0.93943 0.0
H2054 H 0.02223 0.15538 0.89448 0.0
H2055 H 0.06917 0.18432 0.89344 0.0
H2056 H 0.98016 0.14901 0.91617 0.0
H2057 H 0.00116 0.0677 0.91269 0.0
H2058 H 0.01735 0.09184 0.92678 0.0
H2059 H 0.025 0.10056 0.90779 0.0
C2060 C 0.06431 0.16377 0.929 0.0
C2061 C 0.07615 0.1768 0.91587 0.0
C2062 C 0.03739 0.14701 0.92951 0.0
C2063 C 0.02212 0.14342 0.91697 0.0
C2064 C 0.03372 0.15794 0.90426 0.0
H2065 H 0.87911 0.01958 0.88236 0.0
H2066 H 0.92228 0.05772 0.8861 0.0
C2067 C 0.06053 0.17439 0.90368 0.0
C2068 C 0.99475 0.12241 0.9163 0.0
H2069 H 0.95743 0.05686 0.9117 0.0
C2070 C 0.97507 0.12882 0.91538 0.0
C2071 C 0.98839 0.09619 0.91502 0.0
C2072 C 0.00899 0.08847 0.91553 0.0
C2073 C 0.94906 0.10954 0.91317 0.0
C2074 C 0.94282 0.08342 0.91173 0.0
C2075 C 0.96244 0.077 0.91277 0.0
C2076 C 0.91599 0.06227 0.90911 0.0
C2077 C 0.92841 0.11709 0.91203 0.0
C2078 C 0.8983 0.05251 0.92079 0.0
C2079 C 0.87383 0.0307 0.91873 0.0
C2080 C 0.86664 0.01836 0.90492 0.0
C2081 C 0.8841 0.02874 0.89309 0.0
C2082 C 0.90871 0.05045 0.89521 0.0
H2083 H 0.93674 0.13847 0.91206 0.0
H2084 H 0.91696 0.10897 0.90179 0.0
H2085 H 0.91484 0.10873 0.92147 0.0
H2086 H 0.90373 0.0613 0.93162 0.0
H2087 H 0.86075 0.02315 0.92805 0.0
H2088 H 0.84728 0.98476 0.5569 0.0
H2089 H 0.85163 0.94641 0.553 0.0
H2090 H 0.84768 0.93361 0.59992 0.0
H2091 H 0.84304 0.97175 0.60389 0.0
H2092 H 0.89108 0.93944 0.56345 0.0
H2093 H 0.79662 0.86149 0.58419 0.0
H2094 H 0.80225 0.89342 0.57955 0.0
H2095 H 0.81249 0.88764 0.59711 0.0
C2096 C 0.84705 0.9736 0.56638 0.0
C2097 C 0.8448 0.98123 0.58071 0.0
C2098 C 0.8495 0.95169 0.56412 0.0
C2099 C 0.84952 0.93692 0.57614 0.0
C2100 C 0.84706 0.94437 0.59046 0.0
H2101 H 0.89669 0.83595 0.60545 0.0
H2102 H 0.87694 0.86218 0.59979 0.0
C2103 C 0.84462 0.96629 0.59273 0.0
C2104 C 0.85424 0.91495 0.5739 0.0
H2105 H 0.83147 0.85175 0.58347 0.0
C2106 C 0.87782 0.92007 0.5675 0.0
C2107 C 0.83678 0.88969 0.57908 0.0
C2108 C 0.81049 0.88263 0.58523 0.0
C2109 C 0.88529 0.90113 0.56719 0.0
C2110 C 0.86854 0.87637 0.57327 0.0
C2111 C 0.84426 0.87077 0.57882 0.0
C2112 C 0.87764 0.85776 0.57618 0.0
C2113 C 0.91179 0.90829 0.56132 0.0
C2114 C 0.88395 0.84595 0.56475 0.0
C2115 C 0.89532 0.83078 0.56797 0.0
C2116 C 0.90058 0.82744 0.58265 0.0
C2117 C 0.8931 0.83835 0.59402 0.0
C2118 C 0.88169 0.85327 0.59082 0.0
H2119 H 0.92354 0.92923 0.55854 0.0
H2120 H 0.9226 0.90352 0.56954 0.0
H2121 H 0.90959 0.89688 0.55122 0.0
H2122 H 0.88069 0.849 0.55337 0.0
H2123 H 0.90087 0.82254 0.55902 0.0
H2124 H 0.1527 0.06426 0.60714 0.0
H2125 H 0.12899 0.01754 0.60381 0.0
H2126 H 0.14562 0.02726 0.55726 0.0
H2127 H 0.16964 0.07476 0.56054 0.0
H2128 H 0.0928 0.99513 0.56431 0.0
H2129 H 0.15253 0.96502 0.596 0.0
H2130 H 0.14668 0.98738 0.60622 0.0
H2131 H 0.1651 0.99781 0.58938 0.0
C2132 C 0.15169 0.05657 0.59619 0.0
C2133 C 0.16299 0.07318 0.58407 0.0
C2134 C 0.13831 0.02979 0.59434 0.0
C2135 C 0.13597 0.01891 0.58035 0.0
C2136 C 0.14753 0.03534 0.56819 0.0
H2137 H 0.01711 0.85552 0.56522 0.0
H2138 H 0.05529 0.89804 0.56063 0.0
C2139 C 0.1612 0.06238 0.57006 0.0
C2140 C 0.11908 0.99053 0.57858 0.0
H2141 H 0.10655 0.93327 0.59425 0.0
C2142 C 0.09605 0.98143 0.5705 0.0
C2143 C 0.12342 0.97277 0.58671 0.0
C2144 C 0.14843 0.98124 0.59494 0.0
C2145 C 0.07629 0.95535 0.57129 0.0
C2146 C 0.07997 0.93794 0.58023 0.0
C2147 C 0.1037 0.94671 0.58753 0.0
C2148 C 0.0586 0.91123 0.58314 0.0
C2149 C 0.05102 0.94706 0.56337 0.0
C2150 C 0.04851 0.90419 0.59745 0.0
C2151 C 0.02684 0.87983 0.60015 0.0
C2152 C 0.01493 0.86215 0.58855 0.0
C2153 C 0.02574 0.86886 0.57435 0.0
C2154 C 0.04747 0.89316 0.57168 0.0
H2155 H 0.04964 0.9639 0.55923 0.0
H2156 H 0.04945 0.93477 0.5538 0.0
H2157 H 0.03425 0.93541 0.57075 0.0
H2158 H 0.05691 0.91787 0.60646 0.0
H2159 H 0.01897 0.87517 0.6112 0.0
H2160 H 0.13246 0.15315 0.55983 0.0
H2161 H 0.09075 0.15013 0.55441 0.0
H2162 H 0.0768 0.15169 0.60091 0.0
H2163 H 0.11861 0.15496 0.60642 0.0
H2164 H 0.04348 0.11 0.56335 0.0
H2165 H 0.05693 0.20323 0.5843 0.0
H2166 H 0.08387 0.19807 0.58059 0.0
H2167 H 0.06602 0.18685 0.59756 0.0
C2168 C 0.12067 0.15322 0.5689 0.0
C2169 C 0.12877 0.15424 0.58357 0.0
C2170 C 0.09688 0.15154 0.56577 0.0
C2171 C 0.08086 0.15108 0.57723 0.0
C2172 C 0.08914 0.15264 0.59188 0.0
H2173 H 0.9295 0.10287 0.60096 0.0
H2174 H 0.9761 0.124 0.59699 0.0
C2175 C 0.11293 0.15429 0.59502 0.0
C2176 C 0.05441 0.14634 0.57403 0.0
H2177 H 0.01265 0.16834 0.58184 0.0
C2178 C 0.03681 0.123 0.56707 0.0
C2179 C 0.04587 0.16343 0.57882 0.0
C2180 C 0.06424 0.18943 0.5856 0.0
C2181 C 0.01042 0.11533 0.5658 0.0
C2182 C 0.00155 0.13173 0.5714 0.0
C2183 C 0.01949 0.15582 0.57753 0.0
C2184 C 0.97349 0.12238 0.57321 0.0
C2185 C 0.99196 0.08895 0.55943 0.0
C2186 C 0.95651 0.11522 0.56111 0.0
C2187 C 0.92959 0.10295 0.56336 0.0
C2188 C 0.91948 0.09774 0.57773 0.0
C2189 C 0.93669 0.10638 0.58974 0.0
C2190 C 0.96337 0.11859 0.5875 0.0
H2191 H 0.00148 0.07721 0.55754 0.0
H2192 H 0.97514 0.07799 0.56689 0.0
H2193 H 0.98445 0.09137 0.54872 0.0
H2194 H 0.964 0.11836 0.54998 0.0
H2195 H 0.91675 0.09657 0.55392 0.0
H2196 H 0.68017 0.47715 0.44578 0.0
H2197 H 0.71977 0.47434 0.44366 0.0
H2198 H 0.71308 0.4723 0.39632 0.0
H2199 H 0.67375 0.47539 0.39833 0.0
H2200 H 0.72229 0.4334 0.43038 0.0
H2201 H 0.7896 0.52682 0.40298 0.0
H2202 H 0.76014 0.52107 0.41203 0.0
H2203 H 0.75877 0.50802 0.394 0.0
C2204 C 0.68731 0.47637 0.43493 0.0
C2205 C 0.67387 0.47647 0.42223 0.0
C2206 C 0.70992 0.47481 0.43373 0.0
C2207 C 0.71954 0.47351 0.41982 0.0
C2208 C 0.70631 0.47388 0.40713 0.0
H2209 H 0.83446 0.42999 0.39517 0.0
H2210 H 0.80302 0.44534 0.39378 0.0
C2211 C 0.68372 0.47542 0.40832 0.0
C2212 C 0.7422 0.46964 0.41865 0.0
H2213 H 0.80392 0.49607 0.40508 0.0
C2214 C 0.74016 0.44715 0.4249 0.0
C2215 C 0.76538 0.48753 0.41136 0.0
C2216 C 0.7688 0.51234 0.4048 0.0
C2217 C 0.76065 0.44201 0.42405 0.0
C2218 C 0.78392 0.46 0.41693 0.0
C2219 C 0.78597 0.48236 0.4105 0.0
C2220 C 0.80651 0.45602 0.41679 0.0
C2221 C 0.7573 0.4173 0.43077 0.0
C2222 C 0.81956 0.45812 0.43 0.0
C2223 C 0.83726 0.44932 0.43083 0.0
C2224 C 0.84234 0.43844 0.41843 0.0
C2225 C 0.83093 0.43839 0.40487 0.0
C2226 C 0.81298 0.44708 0.40407 0.0
H2227 H 0.73662 0.40315 0.43318 0.0
H2228 H 0.76507 0.40801 0.42331 0.0
H2229 H 0.76832 0.42197 0.44126 0.0
H2230 H 0.81489 0.46514 0.43989 0.0
H2231 H 0.84594 0.44977 0.4414 0.0
H2232 H 0.51965 0.19182 0.39533 0.0
H2233 H 0.52201 0.23342 0.39064 0.0
H2234 H 0.5227 0.24653 0.43738 0.0
H2235 H 0.52027 0.2048 0.44221 0.0
H2236 H 0.48747 0.25735 0.41888 0.0
H2237 H 0.58973 0.30448 0.39897 0.0
H2238 H 0.56677 0.27382 0.3909 0.0
H2239 H 0.57547 0.27524 0.40993 0.0
C2240 C 0.5202 0.20349 0.40463 0.0
C2241 C 0.51994 0.19514 0.41916 0.0
C2242 C 0.52158 0.22725 0.40191 0.0
C2243 C 0.52274 0.24305 0.41366 0.0
C2244 C 0.52184 0.23453 0.42817 0.0
H2245 H 0.54818 0.38922 0.43728 0.0
H2246 H 0.53089 0.34306 0.4334 0.0
C2247 C 0.52054 0.21078 0.43092 0.0
C2248 C 0.5258 0.26891 0.41087 0.0
H2249 H 0.57034 0.33036 0.40025 0.0
C2250 C 0.50546 0.27329 0.41467 0.0
C2251 C 0.54916 0.28949 0.40515 0.0
C2252 C 0.57167 0.28575 0.40105 0.0
C2253 C 0.50822 0.29805 0.41336 0.0
C2254 C 0.53214 0.319 0.40846 0.0
C2255 C 0.55198 0.31428 0.40396 0.0
C2256 C 0.53846 0.34635 0.40995 0.0
C2257 C 0.48562 0.30161 0.41747 0.0
C2258 C 0.54843 0.36371 0.39803 0.0
C2259 C 0.55853 0.39038 0.40025 0.0
C2260 C 0.55912 0.39997 0.41447 0.0
C2261 C 0.54799 0.38239 0.42619 0.0
C2262 C 0.53785 0.35591 0.42397 0.0
H2263 H 0.46685 0.28353 0.41549 0.0
H2264 H 0.48672 0.30618 0.42939 0.0
H2265 H 0.4858 0.31768 0.41116 0.0
H2266 H 0.54931 0.35674 0.38714 0.0
H2267 H 0.56716 0.40355 0.39105 0.0
H2268 H 0.79307 0.31826 0.443 0.0
H2269 H 0.75005 0.28005 0.43902 0.0
H2270 H 0.76378 0.28581 0.3922 0.0
H2271 H 0.80662 0.32402 0.39603 0.0
H2272 H 0.71009 0.28108 0.41853 0.0
H2273 H 0.73827 0.20724 0.40466 0.0
H2274 H 0.7588 0.23567 0.41557 0.0
H2275 H 0.75594 0.23873 0.39612 0.0
C2276 C 0.78699 0.31125 0.43188 0.0
C2277 C 0.80316 0.32413 0.41983 0.0
C2278 C 0.76247 0.28948 0.42963 0.0
C2279 C 0.75395 0.28009 0.41533 0.0
C2280 C 0.77019 0.29265 0.40332 0.0
H2281 H 0.59182 0.16988 0.39195 0.0
H2282 H 0.6383 0.20143 0.3886 0.0
C2283 C 0.79458 0.31451 0.40554 0.0
C2284 C 0.72747 0.25803 0.41293 0.0
H2285 H 0.69353 0.19355 0.40421 0.0
C2286 C 0.70643 0.26199 0.41527 0.0
C2287 C 0.72293 0.23326 0.40863 0.0
C2288 C 0.74509 0.22822 0.40614 0.0
C2289 C 0.68081 0.24163 0.41366 0.0
C2290 C 0.67621 0.21673 0.40963 0.0
C2291 C 0.69724 0.2128 0.40708 0.0
C2292 C 0.64964 0.19418 0.40992 0.0
C2293 C 0.6587 0.24654 0.41677 0.0
C2294 C 0.64105 0.17915 0.42274 0.0
C2295 C 0.61474 0.1615 0.42471 0.0
C2296 C 0.59664 0.15835 0.41381 0.0
C2297 C 0.60548 0.17179 0.40043 0.0
C2298 C 0.63192 0.18983 0.39854 0.0
H2299 H 0.6656 0.26685 0.42026 0.0
H2300 H 0.64662 0.24246 0.40672 0.0
H2301 H 0.64608 0.23323 0.42555 0.0
H2302 H 0.65447 0.18235 0.43165 0.0
H2303 H 0.60835 0.15135 0.43513 0.0
H2304 H 0.76423 0.48907 0.72328 0.0
H2305 H 0.78478 0.46317 0.72748 0.0
H2306 H 0.7857 0.4763 0.77426 0.0
H2307 H 0.76459 0.50238 0.7701 0.0
H2308 H 0.83141 0.4732 0.74149 0.0
H2309 H 0.74289 0.39647 0.76977 0.0
H2310 H 0.74257 0.42226 0.7595 0.0
H2311 H 0.75808 0.42882 0.77718 0.0
C2312 C 0.76898 0.48671 0.73448 0.0
C2313 C 0.76249 0.49746 0.7464 0.0
C2314 C 0.78088 0.472 0.73685 0.0
C2315 C 0.78647 0.46755 0.75117 0.0
C2316 C 0.78122 0.47927 0.76312 0.0
H2317 H 0.8173 0.33983 0.76603 0.0
H2318 H 0.8152 0.37915 0.7709 0.0
C2319 C 0.76931 0.49422 0.76074 0.0
C2320 C 0.79588 0.44896 0.75325 0.0
H2321 H 0.77446 0.38605 0.76294 0.0
C2322 C 0.81924 0.4543 0.74645 0.0
C2323 C 0.77994 0.42435 0.75972 0.0
C2324 C 0.75439 0.4174 0.76691 0.0
C2325 C 0.82646 0.43524 0.74531 0.0
C2326 C 0.80968 0.41013 0.75092 0.0
C2327 C 0.78719 0.4053 0.75857 0.0
C2328 C 0.81379 0.38797 0.74794 0.0
C2329 C 0.85166 0.44196 0.73778 0.0
C2330 C 0.81374 0.37991 0.73338 0.0
C2331 C 0.81487 0.3574 0.73055 0.0
C2332 C 0.81591 0.34249 0.74223 0.0
C2333 C 0.81651 0.35091 0.75678 0.0
C2334 C 0.81535 0.37339 0.7596 0.0
H2335 H 0.86574 0.46312 0.7384 0.0
H2336 H 0.86063 0.43126 0.74275 0.0
H2337 H 0.84782 0.43656 0.72597 0.0
H2338 H 0.81194 0.39056 0.72422 0.0
H2339 H 0.81427 0.35134 0.71923 0.0
H2340 H 0.48888 0.25205 0.77054 0.0
H2341 H 0.51606 0.29891 0.77539 0.0
H2342 H 0.51754 0.31431 0.72886 0.0
H2343 H 0.49062 0.26816 0.72405 0.0
H2344 H 0.56555 0.32785 0.764 0.0
H2345 H 0.50667 0.37087 0.74613 0.0
H2346 H 0.49246 0.33679 0.75043 0.0
H2347 H 0.50624 0.34887 0.7325 0.0
C2348 C 0.49446 0.26559 0.76146 0.0
C2349 C 0.48778 0.25655 0.74693 0.0
C2350 C 0.50999 0.29227 0.76421 0.0
C2351 C 0.5185 0.31012 0.7525 0.0
C2352 C 0.51072 0.30103 0.73811 0.0
H2353 H 0.63889 0.45245 0.72133 0.0
H2354 H 0.59994 0.41062 0.72641 0.0
C2355 C 0.49552 0.27457 0.73536 0.0
C2356 C 0.53832 0.33775 0.75471 0.0
H2357 H 0.55358 0.39875 0.74396 0.0
C2358 C 0.56279 0.34349 0.76002 0.0
C2359 C 0.53467 0.35809 0.74947 0.0
C2360 C 0.50848 0.35335 0.74446 0.0
C2361 C 0.58419 0.36873 0.75916 0.0
C2362 C 0.58087 0.38871 0.753 0.0
C2363 C 0.55609 0.3833 0.74853 0.0
C2364 C 0.60328 0.41481 0.75011 0.0
C2365 C 0.61051 0.37352 0.76399 0.0
C2366 C 0.61768 0.43112 0.76176 0.0
C2367 C 0.6399 0.45495 0.7589 0.0
C2368 C 0.64805 0.46288 0.74432 0.0
C2369 C 0.63314 0.44682 0.73266 0.0
C2370 C 0.61088 0.42299 0.73555 0.0
H2371 H 0.61047 0.35518 0.76637 0.0
H2372 H 0.62528 0.38436 0.75538 0.0
H2373 H 0.61649 0.3855 0.77415 0.0
H2374 H 0.61192 0.42525 0.77307 0.0
H2375 H 0.65091 0.46698 0.76812 0.0
H2376 H 0.7353 0.22942 0.76814 0.0
H2377 H 0.68807 0.20944 0.77182 0.0
H2378 H 0.67694 0.20535 0.72475 0.0
H2379 H 0.72344 0.22493 0.72105 0.0
H2380 H 0.65942 0.23194 0.76171 0.0
H2381 H 0.61999 0.13401 0.73783 0.0
H2382 H 0.6535 0.15346 0.74344 0.0
H2383 H 0.64309 0.15849 0.72573 0.0
C2384 C 0.72262 0.22368 0.75864 0.0
C2385 C 0.73298 0.22879 0.74433 0.0
C2386 C 0.69574 0.21233 0.76073 0.0
C2387 C 0.67899 0.20554 0.74854 0.0
C2388 C 0.68938 0.20983 0.7343 0.0
H2389 H 0.53526 0.18305 0.718 0.0
H2390 H 0.57776 0.18694 0.72236 0.0
C2391 C 0.71604 0.22129 0.73222 0.0
C2392 C 0.65108 0.19687 0.75034 0.0
H2393 H 0.59125 0.152 0.73745 0.0
C2394 C 0.64436 0.21414 0.75676 0.0
C2395 C 0.63153 0.17369 0.74381 0.0
C2396 C 0.63737 0.15374 0.73745 0.0
C2397 C 0.61891 0.20974 0.75591 0.0
C2398 C 0.59969 0.18729 0.74862 0.0
C2399 C 0.6061 0.16931 0.7429 0.0
C2400 C 0.57329 0.18304 0.74603 0.0
C2401 C 0.6131 0.22988 0.76205 0.0
C2402 C 0.55659 0.17902 0.75787 0.0
C2403 C 0.53241 0.17686 0.75542 0.0
C2404 C 0.52447 0.17856 0.74107 0.0
C2405 C 0.54089 0.18174 0.72917 0.0
C2406 C 0.56511 0.18391 0.73164 0.0
H2407 H 0.63106 0.24819 0.76498 0.0
H2408 H 0.60189 0.23439 0.75397 0.0
H2409 H 0.60114 0.22217 0.77214 0.0
H2410 H 0.56242 0.17793 0.76903 0.0
H2411 H 0.5201 0.17425 0.76481 0.0
H2412 H 0.64774 0.18256 0.22502 0.0
H2413 H 0.60824 0.1844 0.23017 0.0
H2414 H 0.62339 0.18726 0.27677 0.0
H2415 H 0.66293 0.18556 0.27174 0.0
H2416 H 0.56352 0.15034 0.24907 0.0
H2417 H 0.61805 0.25327 0.26791 0.0
H2418 H 0.63324 0.23886 0.25727 0.0
H2419 H 0.62599 0.23078 0.27637 0.0
C2420 C 0.6426 0.18348 0.23636 0.0
C2421 C 0.65852 0.18412 0.24797 0.0
C2422 C 0.62002 0.18445 0.23929 0.0
C2423 C 0.61309 0.18619 0.25384 0.0
C2424 C 0.62859 0.1862 0.26546 0.0
H2425 H 0.49634 0.23135 0.2736 0.0
H2426 H 0.52466 0.21315 0.27883 0.0
C2427 C 0.65114 0.18519 0.26256 0.0
C2428 C 0.59013 0.18899 0.25673 0.0
H2429 H 0.5728 0.23364 0.26642 0.0
C2430 C 0.56545 0.16842 0.25305 0.0
C2431 C 0.59272 0.21246 0.26213 0.0
C2432 C 0.61889 0.23523 0.26609 0.0
C2433 C 0.54336 0.1711 0.25404 0.0
C2434 C 0.54618 0.19516 0.25852 0.0
C2435 C 0.57065 0.21519 0.26303 0.0
C2436 C 0.52529 0.20151 0.25631 0.0
C2437 C 0.51731 0.14834 0.24996 0.0
C2438 C 0.51593 0.20056 0.24202 0.0
C2439 C 0.50002 0.21095 0.23904 0.0
C2440 C 0.49315 0.22261 0.25028 0.0
C2441 C 0.5012 0.22228 0.26478 0.0
C2442 C 0.51741 0.21198 0.26775 0.0
H2443 H 0.51657 0.12968 0.25236 0.0
H2444 H 0.50126 0.14879 0.25595 0.0
H2445 H 0.51411 0.14891 0.23795 0.0
H2446 H 0.5222 0.1932 0.23295 0.0
H2447 H 0.49407 0.21094 0.22776 0.0
H2448 H 0.7821 0.27249 0.22641 0.0
H2449 H 0.8019 0.31904 0.22993 0.0
H2450 H 0.79016 0.30775 0.27684 0.0
H2451 H 0.76989 0.2605 0.27331 0.0
H2452 H 0.76909 0.33552 0.26478 0.0
H2453 H 0.87004 0.37714 0.24538 0.0
H2454 H 0.84775 0.35408 0.23238 0.0
H2455 H 0.85042 0.34343 0.25055 0.0
C2456 C 0.78425 0.2799 0.23753 0.0
C2457 C 0.77435 0.26292 0.24959 0.0
C2458 C 0.79584 0.30658 0.23954 0.0
C2459 C 0.79788 0.31693 0.25366 0.0
C2460 C 0.78903 0.30013 0.26586 0.0
H2461 H 0.82283 0.47419 0.26665 0.0
H2462 H 0.8205 0.43279 0.27192 0.0
C2463 C 0.77753 0.27322 0.26385 0.0
C2464 C 0.80575 0.34471 0.2551 0.0
H2465 H 0.85091 0.40484 0.24277 0.0
C2466 C 0.78728 0.35083 0.26035 0.0
C2467 C 0.82943 0.36461 0.24924 0.0
C2468 C 0.85063 0.35949 0.24421 0.0
C2469 C 0.79105 0.37597 0.25893 0.0
C2470 C 0.81405 0.39548 0.25225 0.0
C2471 C 0.83317 0.38973 0.24774 0.0
C2472 C 0.81779 0.4215 0.24906 0.0
C2473 C 0.76974 0.38109 0.26377 0.0
C2474 C 0.81781 0.42915 0.23443 0.0
C2475 C 0.81918 0.45284 0.23136 0.0
C2476 C 0.82065 0.46924 0.2429 0.0
C2477 C 0.82153 0.46188 0.25752 0.0
C2478 C 0.82016 0.43823 0.26057 0.0
H2479 H 0.75145 0.3629 0.26639 0.0
H2480 H 0.77607 0.39341 0.2738 0.0
H2481 H 0.76567 0.39169 0.25508 0.0
H2482 H 0.81603 0.41644 0.22541 0.0
H2483 H 0.81855 0.45804 0.22 0.0
H2484 H 0.72903 0.49624 0.22138 0.0
H2485 H 0.68274 0.46801 0.2253 0.0
H2486 H 0.69484 0.47379 0.27232 0.0
H2487 H 0.7418 0.5023 0.2684 0.0
H2488 H 0.66819 0.42313 0.26185 0.0
H2489 H 0.62362 0.47802 0.23948 0.0
H2490 H 0.64698 0.47815 0.22696 0.0
H2491 H 0.65744 0.49349 0.2447 0.0
C2492 C 0.72184 0.49198 0.23259 0.0
C2493 C 0.73899 0.50136 0.2446 0.0
C2494 C 0.6953 0.47601 0.23481 0.0
C2495 C 0.68528 0.4691 0.2491 0.0
C2496 C 0.70221 0.47917 0.2612 0.0
H2497 H 0.52952 0.33711 0.26668 0.0
H2498 H 0.57149 0.37639 0.27047 0.0
C2499 C 0.72894 0.49544 0.25897 0.0
C2500 C 0.65775 0.44878 0.251 0.0
H2501 H 0.59672 0.43106 0.23896 0.0
C2502 C 0.65242 0.42502 0.2572 0.0
C2503 C 0.63727 0.45129 0.24484 0.0
C2504 C 0.64159 0.47673 0.23876 0.0
C2505 C 0.62744 0.40317 0.25652 0.0
C2506 C 0.60729 0.40534 0.24962 0.0
C2507 C 0.61231 0.42943 0.2441 0.0
C2508 C 0.58126 0.38245 0.24733 0.0
C2509 C 0.62312 0.3776 0.26243 0.0
C2510 C 0.57262 0.37325 0.23301 0.0
C2511 C 0.54862 0.35081 0.23078 0.0
C2512 C 0.53285 0.33733 0.24285 0.0
C2513 C 0.54132 0.34698 0.25715 0.0
C2514 C 0.5653 0.36938 0.25936 0.0
H2515 H 0.64167 0.37819 0.265 0.0
H2516 H 0.61151 0.37276 0.2727 0.0
H2517 H 0.61212 0.36177 0.25437 0.0
H2518 H 0.58471 0.38316 0.22358 0.0
H2519 H 0.54256 0.34388 0.21965 0.0
H2520 H 0.55479 0.16548 0.93623 0.0
H2521 H 0.53537 0.19125 0.92892 0.0
H2522 H 0.56283 0.19527 0.88449 0.0
H2523 H 0.58261 0.16915 0.89188 0.0
H2524 H 0.57865 0.24322 0.89692 0.0
H2525 H 0.47328 0.18103 0.9053 0.0
H2526 H 0.49072 0.17914 0.9209 0.0
H2527 H 0.49467 0.16787 0.90318 0.0
C2528 C 0.55616 0.17127 0.9248 0.0
C2529 C 0.57028 0.16547 0.91462 0.0
C2530 C 0.5448 0.1858 0.9206 0.0
C2531 C 0.5473 0.19489 0.90611 0.0
C2532 C 0.56042 0.18815 0.89569 0.0
H2533 H 0.52372 0.32795 0.88994 0.0
H2534 H 0.52838 0.29022 0.88436 0.0
C2535 C 0.57163 0.17324 0.89989 0.0
C2536 C 0.53959 0.21448 0.90284 0.0
H2537 H 0.4908 0.22752 0.90955 0.0
C2538 C 0.55924 0.23968 0.89921 0.0
C2539 C 0.51428 0.20982 0.90585 0.0
C2540 C 0.492 0.1829 0.90887 0.0
C2541 C 0.5548 0.26071 0.89979 0.0
C2542 C 0.53001 0.25628 0.90396 0.0
C2543 C 0.50987 0.23086 0.90654 0.0
C2544 C 0.5254 0.27804 0.90705 0.0
C2545 C 0.57708 0.28775 0.89696 0.0
C2546 C 0.52167 0.2833 0.92163 0.0
C2547 C 0.51905 0.30483 0.92488 0.0
C2548 C 0.51997 0.32135 0.91356 0.0
C2549 C 0.52304 0.31562 0.89891 0.0
C2550 C 0.52574 0.29413 0.89569 0.0
H2551 H 0.59584 0.28816 0.8956 0.0
H2552 H 0.5732 0.29553 0.88676 0.0
H2553 H 0.57897 0.30086 0.90617 0.0
H2554 H 0.52138 0.27104 0.93054 0.0
H2555 H 0.51662 0.3087 0.93625 0.0
H2556 H 0.87095 0.40497 0.91453 0.0
H2557 H 0.84366 0.35749 0.91336 0.0
H2558 H 0.77772 0.36566 0.90177 0.0
H2559 H 0.8051 0.41282 0.9026 0.0
H2560 H 0.80503 0.33184 0.93195 0.0
H2561 H 0.76483 0.30612 0.87582 0.0
H2562 H 0.7927 0.33727 0.88009 0.0
H2563 H 0.76029 0.33161 0.88301 0.0
C2564 C 0.85094 0.39648 0.91099 0.0
C2565 C 0.84012 0.41228 0.90826 0.0
C2566 C 0.8353 0.36943 0.91047 0.0
C2567 C 0.80866 0.35794 0.90731 0.0
C2568 C 0.7983 0.37394 0.90381 0.0
H2569 H 0.6798 0.22439 0.94574 0.0
H2570 H 0.71822 0.26644 0.94044 0.0
C2571 C 0.81393 0.40089 0.90427 0.0
C2572 C 0.79089 0.32979 0.90983 0.0
H2573 H 0.7384 0.27664 0.89525 0.0
C2574 C 0.79079 0.3196 0.92381 0.0
C2575 C 0.7725 0.31366 0.8992 0.0
C2576 C 0.77278 0.3227 0.88365 0.0
C2577 C 0.77198 0.29419 0.92768 0.0
C2578 C 0.75225 0.27881 0.91746 0.0
C2579 C 0.75321 0.28853 0.90322 0.0
C2580 C 0.72999 0.25295 0.92135 0.0
C2581 C 0.77347 0.28422 0.94272 0.0
C2582 C 0.72347 0.23146 0.91227 0.0
C2583 C 0.70123 0.20765 0.91509 0.0
C2584 C 0.68518 0.20476 0.92715 0.0
C2585 C 0.69202 0.22602 0.93649 0.0
C2586 C 0.71407 0.25 0.93351 0.0
H2587 H 0.79375 0.29412 0.9469 0.0
H2588 H 0.7617 0.28832 0.95059 0.0
H2589 H 0.76597 0.26298 0.94257 0.0
H2590 H 0.73537 0.23322 0.90282 0.0
H2591 H 0.69643 0.19156 0.90772 0.0
H2592 H 0.8073 0.48918 0.89387 0.0
H2593 H 0.76506 0.48578 0.88975 0.0
H2594 H 0.75231 0.48216 0.93665 0.0
H2595 H 0.79462 0.48569 0.94088 0.0
H2596 H 0.71741 0.44421 0.89872 0.0
H2597 H 0.73331 0.53646 0.92293 0.0
H2598 H 0.75972 0.53125 0.91784 0.0
H2599 H 0.74276 0.51866 0.93495 0.0
C2600 C 0.79564 0.48797 0.90332 0.0
C2601 C 0.80427 0.48773 0.91771 0.0
C2602 C 0.77154 0.48605 0.90093 0.0
C2603 C 0.75575 0.48412 0.91288 0.0
C2604 C 0.76446 0.48421 0.92728 0.0
H2605 H 0.60448 0.43856 0.93761 0.0
H2606 H 0.65103 0.45814 0.93387 0.0
C2607 C 0.78854 0.48604 0.92968 0.0
C2608 C 0.72933 0.47993 0.91035 0.0
H2609 H 0.68892 0.50285 0.91974 0.0
C2610 C 0.71122 0.45725 0.90304 0.0
C2611 C 0.72145 0.49709 0.91594 0.0
C2612 C 0.74039 0.52237 0.92323 0.0
C2613 C 0.68499 0.45033 0.90205 0.0
C2614 C 0.67682 0.46686 0.90831 0.0
C2615 C 0.69524 0.49025 0.91492 0.0
C2616 C 0.64892 0.45834 0.91009 0.0
C2617 C 0.66596 0.42459 0.8952 0.0
C2618 C 0.63229 0.45276 0.89793 0.0
C2619 C 0.60542 0.44142 0.90005 0.0
C2620 C 0.59498 0.43555 0.91434 0.0
C2621 C 0.61191 0.44262 0.92645 0.0
C2622 C 0.63857 0.45392 0.92434 0.0
H2623 H 0.67486 0.41239 0.89294 0.0
H2624 H 0.64893 0.4136 0.90253 0.0
H2625 H 0.65884 0.42802 0.88462 0.0
H2626 H 0.63999 0.45643 0.88684 0.0
H2627 H 0.5928 0.43621 0.89054 0.0
H2628 H 0.35303 0.80813 0.78015 0.0
H2629 H 0.39173 0.80527 0.77451 0.0
H2630 H 0.38982 0.82804 0.72963 0.0
H2631 H 0.35091 0.83052 0.73514 0.0
H2632 H 0.39081 0.78347 0.73105 0.0
H2633 H 0.46791 0.85592 0.76702 0.0
H2634 H 0.43891 0.83554 0.77725 0.0
H2635 H 0.43843 0.85653 0.76311 0.0
C2636 C 0.36122 0.81312 0.76918 0.0
C2637 C 0.34887 0.8194 0.75807 0.0
C2638 C 0.38346 0.81166 0.76599 0.0
C2639 C 0.39387 0.81675 0.75168 0.0
C2640 C 0.38222 0.82418 0.74076 0.0
H2641 H 0.5239 0.78593 0.73906 0.0
H2642 H 0.49931 0.80871 0.73504 0.0
C2643 C 0.35996 0.82556 0.74393 0.0
C2644 C 0.41461 0.81091 0.74773 0.0
H2645 H 0.47294 0.81946 0.75938 0.0
C2646 C 0.40906 0.79184 0.73699 0.0
C2647 C 0.43861 0.82207 0.75529 0.0
C2648 C 0.44644 0.84386 0.76619 0.0
C2649 C 0.4259 0.78216 0.73449 0.0
C2650 C 0.44869 0.7916 0.74303 0.0
C2651 C 0.45532 0.81213 0.7529 0.0
C2652 C 0.46328 0.77752 0.74373 0.0
C2653 C 0.41856 0.76097 0.72322 0.0
C2654 C 0.45105 0.75255 0.74982 0.0
C2655 C 0.46496 0.73981 0.75224 0.0
C2656 C 0.49137 0.75169 0.74853 0.0
C2657 C 0.50348 0.7763 0.74187 0.0
C2658 C 0.48954 0.78932 0.73964 0.0
H2659 H 0.40553 0.76155 0.71465 0.0
H2660 H 0.43606 0.7626 0.71781 0.0
H2661 H 0.40806 0.74183 0.72879 0.0
H2662 H 0.43092 0.74328 0.75324 0.0
H2663 H 0.45515 0.72084 0.75739 0.0
H2664 H 0.26948 0.7263 0.75799 0.0
H2665 H 0.24688 0.67974 0.75342 0.0
H2666 H 0.18259 0.68384 0.73439 0.0
H2667 H 0.20554 0.7311 0.73883 0.0
H2668 H 0.17063 0.64591 0.75857 0.0
H2669 H 0.2299 0.63731 0.71433 0.0
H2670 H 0.24915 0.65916 0.72875 0.0
H2671 H 0.22883 0.66675 0.71759 0.0
C2672 C 0.25074 0.71742 0.75258 0.0
C2673 C 0.23922 0.73222 0.74875 0.0
C2674 C 0.23791 0.69084 0.74992 0.0
C2675 C 0.2132 0.67845 0.74347 0.0
C2676 C 0.20178 0.69319 0.73927 0.0
H2677 H 0.16005 0.5133 0.73371 0.0
H2678 H 0.16263 0.55479 0.72838 0.0
C2679 C 0.21489 0.72008 0.74174 0.0
C2680 C 0.19898 0.64982 0.74249 0.0
H2681 H 0.2072 0.60023 0.73034 0.0
C2682 C 0.17809 0.63573 0.75211 0.0
C2683 C 0.2086 0.63662 0.73396 0.0
C2684 C 0.23021 0.65071 0.72296 0.0
C2685 C 0.16794 0.609 0.75428 0.0
C2686 C 0.17926 0.59628 0.74677 0.0
C2687 C 0.1987 0.61002 0.73625 0.0
C2688 C 0.17323 0.5696 0.75058 0.0
C2689 C 0.14578 0.59484 0.76494 0.0
C2690 C 0.17786 0.56394 0.76491 0.0
C2691 C 0.17635 0.5402 0.768 0.0
C2692 C 0.17046 0.52186 0.75677 0.0
C2693 C 0.16471 0.5271 0.7426 0.0
C2694 C 0.16614 0.55078 0.73952 0.0
H2695 H 0.13375 0.60428 0.76568 0.0
H2696 H 0.13316 0.57424 0.76167 0.0
H2697 H 0.15372 0.59535 0.77607 0.0
H2698 H 0.18398 0.5784 0.77353 0.0
H2699 H 0.18102 0.53677 0.779 0.0
H2700 H 0.47925 0.63936 0.73427 0.0
H2701 H 0.43746 0.6011 0.72839 0.0
H2702 H 0.41104 0.60056 0.77268 0.0
H2703 H 0.45296 0.63855 0.77874 0.0
H2704 H 0.39434 0.55016 0.76079 0.0
H2705 H 0.37526 0.61257 0.723 0.0
H2706 H 0.4039 0.61053 0.71944 0.0
H2707 H 0.40179 0.62596 0.73596 0.0
C2708 C 0.4647 0.6308 0.74284 0.0
C2709 C 0.46921 0.64213 0.75692 0.0
C2710 C 0.44083 0.609 0.73944 0.0
C2711 C 0.42104 0.59834 0.75002 0.0
C2712 C 0.42609 0.60857 0.76435 0.0
H2713 H 0.26482 0.53518 0.75968 0.0
H2714 H 0.31146 0.55912 0.75548 0.0
C2715 C 0.45001 0.63029 0.76779 0.0
C2716 C 0.39431 0.5783 0.74592 0.0
H2717 H 0.34089 0.57069 0.72751 0.0
C2718 C 0.38275 0.55434 0.75326 0.0
C2719 C 0.37929 0.58395 0.73612 0.0
C2720 C 0.39052 0.60967 0.72822 0.0
C2721 C 0.35615 0.53643 0.75166 0.0
C2722 C 0.34092 0.54269 0.74244 0.0
C2723 C 0.35279 0.56593 0.73443 0.0
C2724 C 0.31229 0.52824 0.74337 0.0
C2725 C 0.34409 0.51178 0.76062 0.0
C2726 C 0.29721 0.50312 0.73759 0.0
C2727 C 0.27026 0.48933 0.73988 0.0
C2728 C 0.25836 0.50052 0.74813 0.0
C2729 C 0.2735 0.526 0.75337 0.0
C2730 C 0.30014 0.53974 0.75096 0.0
H2731 H 0.35852 0.51022 0.76766 0.0
H2732 H 0.32853 0.51094 0.76777 0.0
H2733 H 0.33502 0.49476 0.75314 0.0
H2734 H 0.30633 0.49404 0.73162 0.0
H2735 H 0.25898 0.46966 0.73578 0.0
H2736 H 0.42482 0.83559 0.1018 0.0
H2737 H 0.4448 0.80831 0.105 0.0
H2738 H 0.4524 0.80585 0.05787 0.0
H2739 H 0.43291 0.83296 0.05465 0.0
H2740 H 0.42261 0.75873 0.09388 0.0
H2741 H 0.52183 0.81673 0.07162 0.0
H2742 H 0.50262 0.83114 0.07707 0.0
H2743 H 0.4983 0.81646 0.05917 0.0
C2744 C 0.43145 0.82976 0.0922 0.0
C2745 C 0.42724 0.83626 0.07799 0.0
C2746 C 0.44278 0.81418 0.09402 0.0
C2747 C 0.45043 0.80535 0.08168 0.0
C2748 C 0.44727 0.81291 0.06757 0.0
H2749 H 0.47077 0.68231 0.05073 0.0
H2750 H 0.46765 0.72143 0.05487 0.0
C2751 C 0.43587 0.82822 0.06574 0.0
C2752 C 0.45839 0.78551 0.08311 0.0
H2753 H 0.50295 0.76989 0.07048 0.0
C2754 C 0.44047 0.76133 0.0891 0.0
C2755 C 0.48164 0.78892 0.07679 0.0
C2756 C 0.5023 0.81483 0.07094 0.0
C2757 C 0.44438 0.74 0.0881 0.0
C2758 C 0.46698 0.74309 0.08107 0.0
C2759 C 0.48552 0.76756 0.07572 0.0
C2760 C 0.47097 0.72077 0.07858 0.0
C2761 C 0.42366 0.71399 0.09384 0.0
C2762 C 0.47441 0.70788 0.09052 0.0
C2763 C 0.47612 0.68559 0.08819 0.0
C2764 C 0.47453 0.67586 0.07387 0.0
C2765 C 0.47196 0.68931 0.06188 0.0
C2766 C 0.47025 0.71165 0.06422 0.0
H2767 H 0.40538 0.71387 0.09652 0.0
H2768 H 0.4193 0.69849 0.08563 0.0
H2769 H 0.43074 0.70922 0.10401 0.0
H2770 H 0.47535 0.71483 0.10165 0.0
H2771 H 0.47828 0.67576 0.09766 0.0
H2772 H 0.15363 0.60037 0.06103 0.0
H2773 H 0.1824 0.6469 0.0638 0.0
H2774 H 0.18009 0.63816 0.11103 0.0
H2775 H 0.15132 0.59102 0.1083 0.0
H2776 H 0.17991 0.68673 0.07878 0.0
H2777 H 0.25739 0.66943 0.10089 0.0
H2778 H 0.22823 0.64392 0.09255 0.0
H2779 H 0.22722 0.65493 0.11082 0.0
C2780 C 0.15891 0.60833 0.07204 0.0
C2781 C 0.15052 0.59204 0.08445 0.0
C2782 C 0.1753 0.63497 0.0736 0.0
C2783 C 0.18373 0.64591 0.08759 0.0
C2784 C 0.17411 0.62998 0.10011 0.0
H2785 H 0.31673 0.80184 0.10082 0.0
H2786 H 0.27768 0.76015 0.10562 0.0
C2787 C 0.15757 0.60314 0.09855 0.0
C2788 C 0.2042 0.67355 0.08865 0.0
H2789 H 0.2689 0.71236 0.09562 0.0
C2790 C 0.19929 0.69244 0.08267 0.0
C2791 C 0.22948 0.68089 0.09368 0.0
C2792 C 0.23611 0.6613 0.09977 0.0
C2793 C 0.21918 0.71834 0.08117 0.0
C2794 C 0.24466 0.7254 0.08558 0.0
C2795 C 0.24932 0.70681 0.0922 0.0
C2796 C 0.26712 0.75152 0.08268 0.0
C2797 C 0.21283 0.73785 0.07469 0.0
C2798 C 0.27418 0.76043 0.06815 0.0
C2799 C 0.29655 0.78423 0.06535 0.0
C2800 C 0.31228 0.79943 0.07704 0.0
C2801 C 0.30499 0.79057 0.09157 0.0
C2802 C 0.28268 0.76678 0.09435 0.0
H2803 H 0.19189 0.73146 0.07592 0.0
H2804 H 0.22447 0.75715 0.07999 0.0
H2805 H 0.21744 0.74002 0.06275 0.0
H2806 H 0.26274 0.74866 0.05896 0.0
H2807 H 0.30173 0.79051 0.05405 0.0
H2808 H 0.40038 0.56685 0.10394 0.0
H2809 H 0.35372 0.54798 0.10906 0.0
H2810 H 0.33731 0.53467 0.0626 0.0
H2811 H 0.38336 0.55321 0.05748 0.0
H2812 H 0.32508 0.56959 0.09761 0.0
H2813 H 0.28081 0.46705 0.08043 0.0
H2814 H 0.31497 0.4868 0.08462 0.0
H2815 H 0.30277 0.48868 0.06679 0.0
C2816 C 0.38667 0.55924 0.09491 0.0
C2817 C 0.39543 0.56155 0.08032 0.0
C2818 C 0.3601 0.54854 0.09783 0.0
C2819 C 0.34204 0.53961 0.08622 0.0
C2820 C 0.35079 0.54088 0.07175 0.0
H2821 H 0.1943 0.5119 0.05917 0.0
H2822 H 0.23711 0.51612 0.06264 0.0
C2823 C 0.37717 0.55171 0.06884 0.0
C2824 C 0.31454 0.53207 0.0887 0.0
H2825 H 0.25279 0.48573 0.07954 0.0
C2826 C 0.30917 0.55102 0.09402 0.0
C2827 C 0.29389 0.5079 0.0839 0.0
C2828 C 0.29838 0.48636 0.07875 0.0
C2829 C 0.28387 0.54711 0.09376 0.0
C2830 C 0.26339 0.52341 0.08826 0.0
C2831 C 0.26857 0.50395 0.08363 0.0
C2832 C 0.23682 0.51917 0.08639 0.0
C2833 C 0.27951 0.56894 0.09855 0.0
C2834 C 0.22233 0.51899 0.09861 0.0
C2835 C 0.19799 0.51672 0.09665 0.0
C2836 C 0.18763 0.5144 0.08244 0.0
C2837 C 0.20182 0.51375 0.07024 0.0
C2838 C 0.22622 0.51609 0.07221 0.0
H2839 H 0.29803 0.58762 0.09967 0.0
H2840 H 0.26688 0.5716 0.09058 0.0
H2841 H 0.26965 0.56412 0.10942 0.0
H2842 H 0.22998 0.52089 0.10965 0.0
H2843 H 0.18741 0.51707 0.10627 0.0
H2844 H 0.14318 0.54929 0.59765 0.0
H2845 H 0.16906 0.5288 0.60424 0.0
H2846 H 0.23605 0.59173 0.58326 0.0
H2847 H 0.21058 0.61188 0.57664 0.0
H2848 H 0.19425 0.51378 0.5824 0.0
H2849 H 0.26498 0.58247 0.62258 0.0
H2850 H 0.23426 0.58071 0.61889 0.0
H2851 H 0.26163 0.59898 0.60693 0.0
C2852 C 0.16358 0.55893 0.59479 0.0
C2853 C 0.17494 0.58208 0.58662 0.0
C2854 C 0.17827 0.54722 0.5985 0.0
C2855 C 0.20452 0.55895 0.59438 0.0
C2856 C 0.21598 0.5826 0.58678 0.0
H2857 H 0.31161 0.52228 0.56003 0.0
H2858 H 0.27393 0.52676 0.56593 0.0
C2859 C 0.20135 0.59401 0.58292 0.0
C2860 C 0.21975 0.54573 0.59638 0.0
H2861 H 0.27976 0.55863 0.6075 0.0
C2862 C 0.21264 0.52311 0.58824 0.0
C2863 C 0.24354 0.55773 0.60413 0.0
C2864 C 0.25143 0.58118 0.61375 0.0
C2865 C 0.22977 0.51349 0.58659 0.0
C2866 C 0.2547 0.52714 0.59308 0.0
C2867 C 0.26081 0.54839 0.60231 0.0
C2868 C 0.27559 0.52139 0.58942 0.0
C2869 C 0.22131 0.48932 0.57753 0.0
C2870 C 0.28927 0.51722 0.60066 0.0
C2871 C 0.311 0.51501 0.59732 0.0
C2872 C 0.31952 0.51703 0.58268 0.0
C2873 C 0.30543 0.52052 0.57139 0.0
C2874 C 0.28374 0.52284 0.57475 0.0
H2875 H 0.19989 0.47652 0.57787 0.0
H2876 H 0.22696 0.49489 0.56588 0.0
H2877 H 0.23057 0.47819 0.58145 0.0
H2878 H 0.28346 0.51625 0.61206 0.0
H2879 H 0.32145 0.51226 0.60626 0.0
H2880 H 0.44411 0.60598 0.56082 0.0
H2881 H 0.45967 0.65214 0.56391 0.0
H2882 H 0.44028 0.63994 0.61008 0.0
H2883 H 0.42477 0.5933 0.60706 0.0
H2884 H 0.42155 0.66556 0.57465 0.0
H2885 H 0.51303 0.70989 0.60743 0.0
H2886 H 0.50262 0.68085 0.59659 0.0
H2887 H 0.48619 0.67931 0.61342 0.0
C2888 C 0.4438 0.6132 0.57173 0.0
C2889 C 0.43308 0.5961 0.58369 0.0
C2890 C 0.45272 0.63957 0.57347 0.0
C2891 C 0.45106 0.64939 0.58719 0.0
C2892 C 0.44197 0.63272 0.59943 0.0
H2893 H 0.47071 0.802 0.60626 0.0
H2894 H 0.4648 0.75837 0.60848 0.0
C2895 C 0.43315 0.60615 0.5977 0.0
C2896 C 0.45537 0.67608 0.58795 0.0
H2897 H 0.49727 0.73752 0.59995 0.0
C2898 C 0.43806 0.68129 0.58023 0.0
C2899 C 0.47676 0.69639 0.59534 0.0
C2900 C 0.49589 0.69157 0.60365 0.0
C2901 C 0.44178 0.70643 0.57948 0.0
C2902 C 0.4637 0.727 0.58641 0.0
C2903 C 0.48064 0.7217 0.59453 0.0
C2904 C 0.46924 0.7541 0.58518 0.0
C2905 C 0.42212 0.71073 0.57133 0.0
C2906 C 0.47422 0.7663 0.57137 0.0
C2907 C 0.4775 0.79117 0.57005 0.0
C2908 C 0.47599 0.80427 0.58254 0.0
C2909 C 0.47183 0.79232 0.59642 0.0
C2910 C 0.46855 0.76745 0.59773 0.0
H2911 H 0.40334 0.69238 0.56998 0.0
H2912 H 0.4185 0.72501 0.57718 0.0
H2913 H 0.42969 0.71847 0.56019 0.0
H2914 H 0.47519 0.75641 0.56159 0.0
H2915 H 0.48087 0.79997 0.55924 0.0
H2916 H 0.39545 0.85457 0.564 0.0
H2917 H 0.34848 0.82694 0.56543 0.0
H2918 H 0.35508 0.8088 0.61065 0.0
H2919 H 0.40253 0.83669 0.60926 0.0
H2920 H 0.33018 0.7656 0.59218 0.0
H2921 H 0.28746 0.82884 0.58486 0.0
H2922 H 0.31237 0.83533 0.57161 0.0
H2923 H 0.32057 0.84114 0.59084 0.0
C2924 C 0.38686 0.8453 0.57439 0.0
C2925 C 0.40258 0.84765 0.58651 0.0
C2926 C 0.35997 0.82965 0.57522 0.0
C2927 C 0.34825 0.816 0.58818 0.0
C2928 C 0.36378 0.81939 0.60059 0.0
H2929 H 0.18496 0.69419 0.594 0.0
H2930 H 0.22662 0.73319 0.59924 0.0
C2931 C 0.39081 0.83536 0.59981 0.0
C2932 C 0.32058 0.79541 0.58781 0.0
H2933 H 0.26009 0.7837 0.57822 0.0
C2934 C 0.31477 0.76959 0.58943 0.0
C2935 C 0.30052 0.80065 0.58416 0.0
C2936 C 0.30547 0.82802 0.5829 0.0
C2937 C 0.28969 0.74886 0.58677 0.0
C2938 C 0.27002 0.7541 0.58235 0.0
C2939 C 0.27541 0.77985 0.58142 0.0
C2940 C 0.24391 0.7328 0.57839 0.0
C2941 C 0.28445 0.7214 0.58829 0.0
C2942 C 0.23977 0.72022 0.56475 0.0
C2943 C 0.21597 0.69803 0.56168 0.0
C2944 C 0.19608 0.68803 0.57226 0.0
C2945 C 0.19996 0.70142 0.58564 0.0
C2946 C 0.22368 0.72369 0.58866 0.0
H2947 H 0.30082 0.72057 0.59364 0.0
H2948 H 0.26654 0.70961 0.59484 0.0
H2949 H 0.28128 0.71243 0.57721 0.0
H2950 H 0.25528 0.72707 0.55671 0.0
H2951 H 0.21358 0.68809 0.5513 0.0
H2952 H 0.23915 0.4958 0.2326 0.0
H2953 H 0.22116 0.52457 0.22815 0.0
H2954 H 0.21829 0.53489 0.275 0.0
H2955 H 0.23573 0.50627 0.27948 0.0
H2956 H 0.17435 0.52882 0.25997 0.0
H2957 H 0.26693 0.60363 0.23423 0.0
H2958 H 0.25099 0.57181 0.22608 0.0
H2959 H 0.26459 0.57633 0.24422 0.0
C2960 C 0.23424 0.50391 0.2419 0.0
C2961 C 0.23909 0.49905 0.25637 0.0
C2962 C 0.22415 0.52043 0.23936 0.0
C2963 C 0.21878 0.53214 0.25126 0.0
C2964 C 0.22236 0.52613 0.26567 0.0
H2965 H 0.19365 0.6531 0.28005 0.0
H2966 H 0.19696 0.61403 0.27645 0.0
C2967 C 0.23245 0.50983 0.26819 0.0
C2968 C 0.21107 0.55204 0.24908 0.0
H2969 H 0.23573 0.61552 0.23939 0.0
C2970 C 0.18755 0.54765 0.25524 0.0
C2971 C 0.22839 0.5766 0.24295 0.0
C2972 C 0.25423 0.58261 0.23656 0.0
C2973 C 0.18135 0.56749 0.25594 0.0
C2974 C 0.19927 0.59239 0.2505 0.0
C2975 C 0.22212 0.5964 0.24362 0.0
C2976 C 0.19555 0.61498 0.25265 0.0
C2977 C 0.1559 0.5618 0.26273 0.0
C2978 C 0.194 0.62858 0.24046 0.0
C2979 C 0.19215 0.65087 0.24249 0.0
C2980 C 0.19212 0.66013 0.25674 0.0
C2981 C 0.19354 0.64639 0.26895 0.0
C2982 C 0.19526 0.62399 0.26691 0.0
H2983 H 0.1415 0.5407 0.26254 0.0
H2984 H 0.15921 0.56824 0.2744 0.0
H2985 H 0.14758 0.57238 0.2569 0.0
H2986 H 0.19441 0.62204 0.22938 0.0
H2987 H 0.19116 0.66108 0.23285 0.0
H2988 H 0.51117 0.73945 0.23016 0.0
H2989 H 0.48503 0.69191 0.22768 0.0
H2990 H 0.46786 0.68539 0.27415 0.0
H2991 H 0.49383 0.73224 0.27673 0.0
H2992 H 0.47962 0.64762 0.26334 0.0
H2993 H 0.40472 0.65462 0.22987 0.0
H2994 H 0.43766 0.6715 0.22329 0.0
H2995 H 0.42944 0.68202 0.23993 0.0
C2996 C 0.50206 0.72776 0.23984 0.0
C2997 C 0.50429 0.73954 0.2536 0.0
C2998 C 0.48708 0.7007 0.23841 0.0
C2999 C 0.4743 0.68523 0.25072 0.0
C3000 C 0.47754 0.69697 0.26452 0.0
H3001 H 0.35698 0.5411 0.28346 0.0
H3002 H 0.39584 0.58318 0.27892 0.0
C3003 C 0.49231 0.7238 0.26594 0.0
C3004 C 0.45609 0.65699 0.24945 0.0
H3005 H 0.39454 0.6135 0.23836 0.0
C3006 C 0.46119 0.64002 0.25765 0.0
C3007 C 0.43209 0.6472 0.24204 0.0
C3008 C 0.42541 0.66468 0.23333 0.0
C3009 C 0.44246 0.61368 0.25914 0.0
C3010 C 0.4179 0.60424 0.25245 0.0
C3011 C 0.41336 0.62087 0.24355 0.0
C3012 C 0.39597 0.57778 0.25533 0.0
C3013 C 0.44899 0.59634 0.26808 0.0
C3014 C 0.38301 0.56093 0.24358 0.0
C3015 C 0.36071 0.53703 0.24614 0.0
C3016 C 0.35087 0.5296 0.26049 0.0
C3017 C 0.36418 0.54625 0.2723 0.0
C3018 C 0.38649 0.5702 0.26972 0.0
H3019 H 0.47027 0.60395 0.26836 0.0
H3020 H 0.44233 0.59552 0.27958 0.0
H3021 H 0.43925 0.57629 0.26359 0.0
H3022 H 0.38989 0.56648 0.23239 0.0
H3023 H 0.35088 0.5246 0.23681 0.0
H3024 H 0.47537 0.81678 0.22632 0.0
H3025 H 0.43458 0.81536 0.22028 0.0
H3026 H 0.42299 0.82501 0.26622 0.0
H3027 H 0.46382 0.8266 0.27235 0.0
H3028 H 0.38638 0.77856 0.23084 0.0
H3029 H 0.40707 0.87708 0.24599 0.0
H3030 H 0.43242 0.86927 0.24292 0.0
H3031 H 0.41578 0.86212 0.26033 0.0
C3032 C 0.46429 0.81893 0.23512 0.0
C3033 C 0.47275 0.82176 0.24983 0.0
C3034 C 0.44104 0.81817 0.23163 0.0
C3035 C 0.426 0.82052 0.24276 0.0
C3036 C 0.43463 0.82378 0.25742 0.0
H3037 H 0.28122 0.7835 0.27021 0.0
H3038 H 0.32689 0.80272 0.26397 0.0
C3039 C 0.45783 0.82446 0.26093 0.0
C3040 C 0.40009 0.817 0.23936 0.0
H3041 H 0.36178 0.84359 0.24571 0.0
C3042 C 0.38106 0.79298 0.23371 0.0
C3043 C 0.39335 0.83597 0.24299 0.0
C3044 C 0.41332 0.86266 0.24825 0.0
C3045 C 0.35495 0.78654 0.23285 0.0
C3046 C 0.34788 0.80484 0.23754 0.0
C3047 C 0.36726 0.82959 0.24212 0.0
C3048 C 0.32043 0.79699 0.24048 0.0
C3049 C 0.33491 0.7595 0.22807 0.0
C3050 C 0.30162 0.78821 0.22926 0.0
C3051 C 0.27522 0.77706 0.23283 0.0
C3052 C 0.2675 0.77455 0.24765 0.0
C3053 C 0.28656 0.78489 0.2587 0.0
C3054 C 0.31272 0.79602 0.25515 0.0
H3055 H 0.34339 0.74676 0.22641 0.0
H3056 H 0.31918 0.7504 0.23639 0.0
H3057 H 0.32605 0.76055 0.21753 0.0
H3058 H 0.30726 0.78912 0.21784 0.0
H3059 H 0.26088 0.7693 0.22412 0.0
loop_
_geom_bond_atom_site_label_1
_geom_bond_atom_site_label_2
_geom_bond_distance
_geom_bond_site_symmetry_2
_ccdc_geom_bond_type
In0 O1 2.294 . S
In0 O2 2.326 . S
In0 O6 2.266 . S
In0 O7 2.326 . S
In0 O8 2.266 . S
In0 O9 2.326 . S
In0 O11 2.294 . S
In0 O12 2.326 . S
O1 In0 2.294 . S
O1 C10 1.240 . S
O2 In0 2.326 . S
O2 C10 1.252 . S
C3 O6 1.252 . S
C3 O7 1.260 . S
C4 O11 1.240 . S
C4 O12 1.252 . S
C5 O8 1.252 . S
C5 O9 1.260 . S
O6 In0 2.266 . S
O6 C3 1.252 . S
O7 In0 2.326 . S
O7 C3 1.260 . S
O8 In0 2.266 . S
O8 C5 1.252 . S
O9 In0 2.326 . S
O9 C5 1.260 . S
C10 O1 1.240 . S
C10 O2 1.252 . S
O11 In0 2.294 . S
O11 C4 1.240 . S
O12 In0 2.326 . S
O12 C4 1.252 . S
In13 O14 2.294 . S
In13 O15 2.326 . S
In13 O19 2.266 . S
In13 O20 2.326 . S
In13 O21 2.266 . S
In13 O22 2.326 . S
In13 O24 2.294 . S
In13 O25 2.326 . S
O14 In13 2.294 . S
O14 C23 1.240 . S
O15 In13 2.326 . S
O15 C23 1.252 . S
C16 O19 1.252 . S
C16 O20 1.260 . S
C17 O24 1.240 . S
C17 O25 1.252 . S
C18 O21 1.252 . S
C18 O22 1.260 . S
O19 In13 2.266 . S
O19 C16 1.252 . S
O20 In13 2.326 . S
O20 C16 1.260 . S
O21 In13 2.266 . S
O21 C18 1.252 . S
O22 In13 2.326 . S
O22 C18 1.260 . S
C23 O14 1.240 . S
C23 O15 1.252 . S
O24 In13 2.294 . S
O24 C17 1.240 . S
O25 In13 2.326 . S
O25 C17 1.252 . S
In26 O27 2.294 . S
In26 O28 2.326 . S
In26 O32 2.266 . S
In26 O33 2.326 . S
In26 O34 2.266 . S
In26 O35 2.326 . S
In26 O37 2.294 . S
In26 O38 2.326 . S
O27 In26 2.294 . S
O27 C36 1.240 . S
O28 In26 2.326 . S
O28 C36 1.252 . S
C29 O32 1.252 . S
C29 O33 1.260 . S
C30 O37 1.240 . S
C30 O38 1.252 . S
C31 O34 1.252 . S
C31 O35 1.260 . S
O32 In26 2.266 . S
O32 C29 1.252 . S
O33 In26 2.326 . S
O33 C29 1.260 . S
O34 In26 2.266 . S
O34 C31 1.252 . S
O35 In26 2.326 . S
O35 C31 1.260 . S
C36 O27 1.240 . S
C36 O28 1.252 . S
O37 In26 2.294 . S
O37 C30 1.240 . S
O38 In26 2.326 . S
O38 C30 1.252 . S
In39 O40 2.294 . S
In39 O41 2.326 . S
In39 O45 2.266 . S
In39 O46 2.326 . S
In39 O47 2.266 . S
In39 O48 2.326 . S
In39 O50 2.294 . S
In39 O51 2.326 . S
O40 In39 2.294 . S
O40 C49 1.240 . S
O41 In39 2.326 . S
O41 C49 1.252 . S
C42 O45 1.252 . S
C42 O46 1.260 . S
C43 O50 1.240 . S
C43 O51 1.252 . S
C44 O47 1.252 . S
C44 O48 1.260 . S
O45 In39 2.266 . S
O45 C42 1.252 . S
O46 In39 2.326 . S
O46 C42 1.260 . S
O47 In39 2.266 . S
O47 C44 1.252 . S
O48 In39 2.326 . S
O48 C44 1.260 . S
C49 O40 1.240 . S
C49 O41 1.252 . S
O50 In39 2.294 . S
O50 C43 1.240 . S
O51 In39 2.326 . S
O51 C43 1.252 . S
In52 O53 2.294 . S
In52 O54 2.326 . S
In52 O58 2.266 . S
In52 O59 2.326 . S
In52 O60 2.266 . S
In52 O61 2.326 . S
In52 O63 2.294 . S
In52 O64 2.326 . S
O53 In52 2.294 . S
O53 C62 1.240 . S
O54 In52 2.326 . S
O54 C62 1.252 . S
C55 O58 1.252 . S
C55 O59 1.260 . S
C56 O63 1.240 . S
C56 O64 1.252 . S
C57 O60 1.252 . S
C57 O61 1.260 . S
O58 In52 2.266 . S
O58 C55 1.252 . S
O59 In52 2.326 . S
O59 C55 1.260 . S
O60 In52 2.266 . S
O60 C57 1.252 . S
O61 In52 2.326 . S
O61 C57 1.260 . S
C62 O53 1.240 . S
C62 O54 1.252 . S
O63 In52 2.294 . S
O63 C56 1.240 . S
O64 In52 2.326 . S
O64 C56 1.252 . S
In65 O66 2.294 . S
In65 O67 2.326 . S
In65 O71 2.266 . S
In65 O72 2.326 . S
In65 O73 2.266 . S
In65 O74 2.326 . S
In65 O76 2.294 . S
In65 O77 2.326 . S
O66 In65 2.294 . S
O66 C75 1.240 . S
O67 In65 2.326 . S
O67 C75 1.252 . S
C68 O71 1.252 . S
C68 O72 1.260 . S
C69 O76 1.240 . S
C69 O77 1.252 . S
C70 O73 1.252 . S
C70 O74 1.260 . S
O71 In65 2.266 . S
O71 C68 1.252 . S
O72 In65 2.326 . S
O72 C68 1.260 . S
O73 In65 2.266 . S
O73 C70 1.252 . S
O74 In65 2.326 . S
O74 C70 1.260 . S
C75 O66 1.240 . S
C75 O67 1.252 . S
O76 In65 2.294 . S
O76 C69 1.240 . S
O77 In65 2.326 . S
O77 C69 1.252 . S
In78 O79 2.294 . S
In78 O80 2.326 . S
In78 O84 2.266 . S
In78 O85 2.326 . S
In78 O86 2.266 . S
In78 O87 2.326 . S
In78 O89 2.294 . S
In78 O90 2.326 . S
O79 In78 2.294 . S
O79 C88 1.240 . S
O80 In78 2.326 . S
O80 C88 1.252 . S
C81 O84 1.252 . S
C81 O85 1.260 . S
C82 O89 1.240 . S
C82 O90 1.252 . S
C83 O86 1.252 . S
C83 O87 1.260 . S
O84 In78 2.266 . S
O84 C81 1.252 . S
O85 In78 2.326 . S
O85 C81 1.260 . S
O86 In78 2.266 . S
O86 C83 1.252 . S
O87 In78 2.326 . S
O87 C83 1.260 . S
C88 O79 1.240 . S
C88 O80 1.252 . S
O89 In78 2.294 . S
O89 C82 1.240 . S
O90 In78 2.326 . S
O90 C82 1.252 . S
In91 O92 2.294 . S
In91 O93 2.326 . S
In91 O97 2.266 . S
In91 O98 2.326 . S
In91 O99 2.266 . S
In91 O100 2.326 . S
In91 O102 2.294 . S
In91 O103 2.326 . S
O92 In91 2.294 . S
O92 C101 1.240 . S
O93 In91 2.326 . S
O93 C101 1.252 . S
C94 O97 1.252 . S
C94 O98 1.260 . S
C95 O102 1.240 . S
C95 O103 1.252 . S
C96 O99 1.252 . S
C96 O100 1.260 . S
O97 In91 2.266 . S
O97 C94 1.252 . S
O98 In91 2.326 . S
O98 C94 1.260 . S
O99 In91 2.266 . S
O99 C96 1.252 . S
O100 In91 2.326 . S
O100 C96 1.260 . S
C101 O92 1.240 . S
C101 O93 1.252 . S
O102 In91 2.294 . S
O102 C95 1.240 . S
O103 In91 2.326 . S
O103 C95 1.252 . S
In104 O105 2.294 . S
In104 O106 2.326 . S
In104 O110 2.266 . S
In104 O111 2.326 . S
In104 O112 2.266 . S
In104 O113 2.326 . S
In104 O115 2.294 . S
In104 O116 2.326 . S
O105 In104 2.294 . S
O105 C114 1.240 . S
O106 In104 2.326 . S
O106 C114 1.252 . S
C107 O110 1.252 . S
C107 O111 1.260 . S
C108 O115 1.240 . S
C108 O116 1.252 . S
C109 O112 1.252 . S
C109 O113 1.260 . S
O110 In104 2.266 . S
O110 C107 1.252 . S
O111 In104 2.326 . S
O111 C107 1.260 . S
O112 In104 2.266 . S
O112 C109 1.252 . S
O113 In104 2.326 . S
O113 C109 1.260 . S
C114 O105 1.240 . S
C114 O106 1.252 . S
O115 In104 2.294 . S
O115 C108 1.240 . S
O116 In104 2.326 . S
O116 C108 1.252 . S
In117 O118 2.294 . S
In117 O119 2.326 . S
In117 O123 2.266 . S
In117 O124 2.326 . S
In117 O125 2.266 . S
In117 O126 2.326 . S
In117 O128 2.294 . S
In117 O129 2.326 . S
O118 In117 2.294 . S
O118 C127 1.240 . S
O119 In117 2.326 . S
O119 C127 1.252 . S
C120 O123 1.252 . S
C120 O124 1.260 . S
C121 O128 1.240 . S
C121 O129 1.252 . S
C122 O125 1.252 . S
C122 O126 1.260 . S
O123 In117 2.266 . S
O123 C120 1.252 . S
O124 In117 2.326 . S
O124 C120 1.260 . S
O125 In117 2.266 . S
O125 C122 1.252 . S
O126 In117 2.326 . S
O126 C122 1.260 . S
C127 O118 1.240 . S
C127 O119 1.252 . S
O128 In117 2.294 . S
O128 C121 1.240 . S
O129 In117 2.326 . S
O129 C121 1.252 . S
In130 O131 2.294 . S
In130 O132 2.326 . S
In130 O136 2.266 . S
In130 O137 2.326 . S
In130 O138 2.266 . S
In130 O139 2.326 . S
In130 O141 2.294 . S
In130 O142 2.326 . S
O131 In130 2.294 . S
O131 C140 1.240 . S
O132 In130 2.326 . S
O132 C140 1.252 . S
C133 O136 1.252 . S
C133 O137 1.260 . S
C134 O141 1.240 . S
C134 O142 1.252 . S
C135 O138 1.252 . S
C135 O139 1.260 . S
O136 In130 2.266 . S
O136 C133 1.252 . S
O137 In130 2.326 . S
O137 C133 1.260 . S
O138 In130 2.266 . S
O138 C135 1.252 . S
O139 In130 2.326 . S
O139 C135 1.260 . S
C140 O131 1.240 . S
C140 O132 1.252 . S
O141 In130 2.294 . S
O141 C134 1.240 . S
O142 In130 2.326 . S
O142 C134 1.252 . S
In143 O144 2.294 . S
In143 O145 2.326 . S
In143 O149 2.266 . S
In143 O150 2.326 . S
In143 O151 2.266 . S
In143 O152 2.326 . S
In143 O154 2.294 . S
In143 O155 2.326 . S
O144 In143 2.294 . S
O144 C153 1.240 . S
O145 In143 2.326 . S
O145 C153 1.252 . S
C146 O149 1.252 . S
C146 O150 1.260 . S
C147 O154 1.240 . S
C147 O155 1.252 . S
C148 O151 1.252 . S
C148 O152 1.260 . S
O149 In143 2.266 . S
O149 C146 1.252 . S
O150 In143 2.326 . S
O150 C146 1.260 . S
O151 In143 2.266 . S
O151 C148 1.252 . S
O152 In143 2.326 . S
O152 C148 1.260 . S
C153 O144 1.240 . S
C153 O145 1.252 . S
O154 In143 2.294 . S
O154 C147 1.240 . S
O155 In143 2.326 . S
O155 C147 1.252 . S
In156 O157 2.294 . S
In156 O158 2.326 . S
In156 O162 2.266 . S
In156 O163 2.326 . S
In156 O164 2.266 . S
In156 O165 2.326 . S
In156 O167 2.294 . S
In156 O168 2.326 . S
O157 In156 2.294 . S
O157 C166 1.240 . S
O158 In156 2.326 . S
O158 C166 1.252 . S
C159 O162 1.252 . S
C159 O163 1.260 . S
C160 O167 1.240 . S
C160 O168 1.252 . S
C161 O164 1.252 . S
C161 O165 1.260 . S
O162 In156 2.266 . S
O162 C159 1.252 . S
O163 In156 2.326 . S
O163 C159 1.260 . S
O164 In156 2.266 . S
O164 C161 1.252 . S
O165 In156 2.326 . S
O165 C161 1.260 . S
C166 O157 1.240 . S
C166 O158 1.252 . S
O167 In156 2.294 . S
O167 C160 1.240 . S
O168 In156 2.326 . S
O168 C160 1.252 . S
In169 O170 2.294 . S
In169 O171 2.326 . S
In169 O175 2.266 . S
In169 O176 2.326 . S
In169 O177 2.266 . S
In169 O178 2.326 . S
In169 O180 2.294 . S
In169 O181 2.326 . S
O170 In169 2.294 . S
O170 C179 1.240 . S
O171 In169 2.326 . S
O171 C179 1.252 . S
C172 O175 1.252 . S
C172 O176 1.260 . S
C173 O180 1.240 . S
C173 O181 1.252 . S
C174 O177 1.252 . S
C174 O178 1.260 . S
O175 In169 2.266 . S
O175 C172 1.252 . S
O176 In169 2.326 . S
O176 C172 1.260 . S
O177 In169 2.266 . S
O177 C174 1.252 . S
O178 In169 2.326 . S
O178 C174 1.260 . S
C179 O170 1.240 . S
C179 O171 1.252 . S
O180 In169 2.294 . S
O180 C173 1.240 . S
O181 In169 2.326 . S
O181 C173 1.252 . S
In182 O183 2.294 . S
In182 O184 2.326 . S
In182 O188 2.266 . S
In182 O189 2.326 . S
In182 O190 2.266 . S
In182 O191 2.326 . S
In182 O193 2.294 . S
In182 O194 2.326 . S
O183 In182 2.294 . S
O183 C192 1.240 . S
O184 In182 2.326 . S
O184 C192 1.252 . S
C185 O188 1.252 . S
C185 O189 1.260 . S
C186 O193 1.240 . S
C186 O194 1.252 . S
C187 O190 1.252 . S
C187 O191 1.260 . S
O188 In182 2.266 . S
O188 C185 1.252 . S
O189 In182 2.326 . S
O189 C185 1.260 . S
O190 In182 2.266 . S
O190 C187 1.252 . S
O191 In182 2.326 . S
O191 C187 1.260 . S
C192 O183 1.240 . S
C192 O184 1.252 . S
O193 In182 2.294 . S
O193 C186 1.240 . S
O194 In182 2.326 . S
O194 C186 1.252 . S
In195 O196 2.294 . S
In195 O197 2.326 . S
In195 O201 2.266 . S
In195 O202 2.326 . S
In195 O203 2.266 . S
In195 O204 2.326 . S
In195 O206 2.294 . S
In195 O207 2.326 . S
O196 In195 2.294 . S
O196 C205 1.240 . S
O197 In195 2.326 . S
O197 C205 1.252 . S
C198 O201 1.252 . S
C198 O202 1.260 . S
C199 O206 1.240 . S
C199 O207 1.252 . S
C200 O203 1.252 . S
C200 O204 1.260 . S
O201 In195 2.266 . S
O201 C198 1.252 . S
O202 In195 2.326 . S
O202 C198 1.260 . S
O203 In195 2.266 . S
O203 C200 1.252 . S
O204 In195 2.326 . S
O204 C200 1.260 . S
C205 O196 1.240 . S
C205 O197 1.252 . S
O206 In195 2.294 . S
O206 C199 1.240 . S
O207 In195 2.326 . S
O207 C199 1.252 . S
In208 O209 2.294 . S
In208 O210 2.326 . S
In208 O214 2.266 . S
In208 O215 2.326 . S
In208 O216 2.266 . S
In208 O217 2.326 . S
In208 O219 2.294 . S
In208 O220 2.326 . S
O209 In208 2.294 . S
O209 C218 1.240 . S
O210 In208 2.326 . S
O210 C218 1.252 . S
C211 O214 1.252 . S
C211 O215 1.260 . S
C212 O219 1.240 . S
C212 O220 1.252 . S
C213 O216 1.252 . S
C213 O217 1.260 . S
O214 In208 2.266 . S
O214 C211 1.252 . S
O215 In208 2.326 . S
O215 C211 1.260 . S
O216 In208 2.266 . S
O216 C213 1.252 . S
O217 In208 2.326 . S
O217 C213 1.260 . S
C218 O209 1.240 . S
C218 O210 1.252 . S
O219 In208 2.294 . S
O219 C212 1.240 . S
O220 In208 2.326 . S
O220 C212 1.252 . S
In221 O222 2.294 . S
In221 O223 2.326 . S
In221 O227 2.266 . S
In221 O228 2.326 . S
In221 O229 2.266 . S
In221 O230 2.326 . S
In221 O232 2.294 . S
In221 O233 2.326 . S
O222 In221 2.294 . S
O222 C231 1.240 . S
O223 In221 2.326 . S
O223 C231 1.252 . S
C224 O227 1.252 . S
C224 O228 1.260 . S
C225 O232 1.240 . S
C225 O233 1.252 . S
C226 O229 1.252 . S
C226 O230 1.260 . S
O227 In221 2.266 . S
O227 C224 1.252 . S
O228 In221 2.326 . S
O228 C224 1.260 . S
O229 In221 2.266 . S
O229 C226 1.252 . S
O230 In221 2.326 . S
O230 C226 1.260 . S
C231 O222 1.240 . S
C231 O223 1.252 . S
O232 In221 2.294 . S
O232 C225 1.240 . S
O233 In221 2.326 . S
O233 C225 1.252 . S
In234 O235 2.294 . S
In234 O236 2.326 . S
In234 O240 2.266 . S
In234 O241 2.326 . S
In234 O242 2.266 . S
In234 O243 2.326 . S
In234 O245 2.294 . S
In234 O246 2.326 . S
O235 In234 2.294 . S
O235 C244 1.240 . S
O236 In234 2.326 . S
O236 C244 1.252 . S
C237 O240 1.252 . S
C237 O241 1.260 . S
C238 O245 1.240 . S
C238 O246 1.252 . S
C239 O242 1.252 . S
C239 O243 1.260 . S
O240 In234 2.266 . S
O240 C237 1.252 . S
O241 In234 2.326 . S
O241 C237 1.260 . S
O242 In234 2.266 . S
O242 C239 1.252 . S
O243 In234 2.326 . S
O243 C239 1.260 . S
C244 O235 1.240 . S
C244 O236 1.252 . S
O245 In234 2.294 . S
O245 C238 1.240 . S
O246 In234 2.326 . S
O246 C238 1.252 . S
In247 O248 2.294 . S
In247 O249 2.326 . S
In247 O253 2.266 . S
In247 O254 2.326 . S
In247 O255 2.266 . S
In247 O256 2.326 . S
In247 O258 2.294 . S
In247 O259 2.326 . S
O248 In247 2.294 . S
O248 C257 1.240 . S
O249 In247 2.326 . S
O249 C257 1.252 . S
C250 O253 1.252 . S
C250 O254 1.260 . S
C251 O258 1.240 . S
C251 O259 1.252 . S
C252 O255 1.252 . S
C252 O256 1.260 . S
O253 In247 2.266 . S
O253 C250 1.252 . S
O254 In247 2.326 . S
O254 C250 1.260 . S
O255 In247 2.266 . S
O255 C252 1.252 . S
O256 In247 2.326 . S
O256 C252 1.260 . S
C257 O248 1.240 . S
C257 O249 1.252 . S
O258 In247 2.294 . S
O258 C251 1.240 . S
O259 In247 2.326 . S
O259 C251 1.252 . S
In260 O261 2.294 . S
In260 O262 2.326 . S
In260 O266 2.266 . S
In260 O267 2.326 . S
In260 O268 2.266 . S
In260 O269 2.326 . S
In260 O271 2.294 . S
In260 O272 2.326 . S
O261 In260 2.294 . S
O261 C270 1.240 . S
O262 In260 2.326 . S
O262 C270 1.252 . S
C263 O266 1.252 . S
C263 O267 1.260 . S
C264 O271 1.240 . S
C264 O272 1.252 . S
C265 O268 1.252 . S
C265 O269 1.260 . S
O266 In260 2.266 . S
O266 C263 1.252 . S
O267 In260 2.326 . S
O267 C263 1.260 . S
O268 In260 2.266 . S
O268 C265 1.252 . S
O269 In260 2.326 . S
O269 C265 1.260 . S
C270 O261 1.240 . S
C270 O262 1.252 . S
O271 In260 2.294 . S
O271 C264 1.240 . S
O272 In260 2.326 . S
O272 C264 1.252 . S
In273 O274 2.294 . S
In273 O275 2.326 . S
In273 O279 2.266 . S
In273 O280 2.326 . S
In273 O281 2.266 . S
In273 O282 2.326 . S
In273 O284 2.294 . S
In273 O285 2.326 . S
O274 In273 2.294 . S
O274 C283 1.240 . S
O275 In273 2.326 . S
O275 C283 1.252 . S
C276 O279 1.252 . S
C276 O280 1.260 . S
C277 O284 1.240 . S
C277 O285 1.252 . S
C278 O281 1.252 . S
C278 O282 1.260 . S
O279 In273 2.266 . S
O279 C276 1.252 . S
O280 In273 2.326 . S
O280 C276 1.260 . S
O281 In273 2.266 . S
O281 C278 1.252 . S
O282 In273 2.326 . S
O282 C278 1.260 . S
C283 O274 1.240 . S
C283 O275 1.252 . S
O284 In273 2.294 . S
O284 C277 1.240 . S
O285 In273 2.326 . S
O285 C277 1.252 . S
In286 O287 2.294 . S
In286 O288 2.326 . S
In286 O292 2.266 . S
In286 O293 2.326 . S
In286 O294 2.266 . S
In286 O295 2.326 . S
In286 O297 2.294 . S
In286 O298 2.326 . S
O287 In286 2.294 . S
O287 C296 1.240 . S
O288 In286 2.326 . S
O288 C296 1.252 . S
C289 O292 1.252 . S
C289 O293 1.260 . S
C290 O297 1.240 . S
C290 O298 1.252 . S
C291 O294 1.252 . S
C291 O295 1.260 . S
O292 In286 2.266 . S
O292 C289 1.252 . S
O293 In286 2.326 . S
O293 C289 1.260 . S
O294 In286 2.266 . S
O294 C291 1.252 . S
O295 In286 2.326 . S
O295 C291 1.260 . S
C296 O287 1.240 . S
C296 O288 1.252 . S
O297 In286 2.294 . S
O297 C290 1.240 . S
O298 In286 2.326 . S
O298 C290 1.252 . S
In299 O300 2.294 . S
In299 O301 2.326 . S
In299 O305 2.266 . S
In299 O306 2.326 . S
In299 O307 2.266 . S
In299 O308 2.326 . S
In299 O310 2.294 . S
In299 O311 2.326 . S
O300 In299 2.294 . S
O300 C309 1.240 . S
O301 In299 2.326 . S
O301 C309 1.252 . S
C302 O305 1.252 . S
C302 O306 1.260 . S
C303 O310 1.240 . S
C303 O311 1.252 . S
C304 O307 1.252 . S
C304 O308 1.260 . S
O305 In299 2.266 . S
O305 C302 1.252 . S
O306 In299 2.326 . S
O306 C302 1.260 . S
O307 In299 2.266 . S
O307 C304 1.252 . S
O308 In299 2.326 . S
O308 C304 1.260 . S
C309 O300 1.240 . S
C309 O301 1.252 . S
O310 In299 2.294 . S
O310 C303 1.240 . S
O311 In299 2.326 . S
O311 C303 1.252 . S
In312 O313 2.294 . S
In312 O314 2.326 . S
In312 O318 2.266 . S
In312 O319 2.326 . S
In312 O320 2.266 . S
In312 O321 2.326 . S
In312 O323 2.294 . S
In312 O324 2.326 . S
O313 In312 2.294 . S
O313 C322 1.240 . S
O314 In312 2.326 . S
O314 C322 1.252 . S
C315 O318 1.252 . S
C315 O319 1.260 . S
C316 O323 1.240 . S
C316 O324 1.252 . S
C317 O320 1.252 . S
C317 O321 1.260 . S
O318 In312 2.266 . S
O318 C315 1.252 . S
O319 In312 2.326 . S
O319 C315 1.260 . S
O320 In312 2.266 . S
O320 C317 1.252 . S
O321 In312 2.326 . S
O321 C317 1.260 . S
C322 O313 1.240 . S
C322 O314 1.252 . S
O323 In312 2.294 . S
O323 C316 1.240 . S
O324 In312 2.326 . S
O324 C316 1.252 . S
In325 O326 2.294 . S
In325 O327 2.326 . S
In325 O331 2.266 . S
In325 O332 2.326 . S
In325 O333 2.266 . S
In325 O334 2.326 . S
In325 O336 2.294 . S
In325 O337 2.326 . S
O326 In325 2.294 . S
O326 C335 1.240 . S
O327 In325 2.326 . S
O327 C335 1.252 . S
C328 O331 1.252 . S
C328 O332 1.260 . S
C329 O336 1.240 . S
C329 O337 1.252 . S
C330 O333 1.252 . S
C330 O334 1.260 . S
O331 In325 2.266 . S
O331 C328 1.252 . S
O332 In325 2.326 . S
O332 C328 1.260 . S
O333 In325 2.266 . S
O333 C330 1.252 . S
O334 In325 2.326 . S
O334 C330 1.260 . S
C335 O326 1.240 . S
C335 O327 1.252 . S
O336 In325 2.294 . S
O336 C329 1.240 . S
O337 In325 2.326 . S
O337 C329 1.252 . S
In338 O339 2.294 . S
In338 O340 2.326 . S
In338 O344 2.266 . S
In338 O345 2.326 . S
In338 O346 2.266 . S
In338 O347 2.326 . S
In338 O349 2.294 . S
In338 O350 2.326 . S
O339 In338 2.294 . S
O339 C348 1.240 . S
O340 In338 2.326 . S
O340 C348 1.252 . S
C341 O344 1.252 . S
C341 O345 1.260 . S
C342 O349 1.240 . S
C342 O350 1.252 . S
C343 O346 1.252 . S
C343 O347 1.260 . S
O344 In338 2.266 . S
O344 C341 1.252 . S
O345 In338 2.326 . S
O345 C341 1.260 . S
O346 In338 2.266 . S
O346 C343 1.252 . S
O347 In338 2.326 . S
O347 C343 1.260 . S
C348 O339 1.240 . S
C348 O340 1.252 . S
O349 In338 2.294 . S
O349 C342 1.240 . S
O350 In338 2.326 . S
O350 C342 1.252 . S
In351 O352 2.294 . S
In351 O353 2.326 . S
In351 O357 2.266 . S
In351 O358 2.326 . S
In351 O359 2.266 . S
In351 O360 2.326 . S
In351 O362 2.294 . S
In351 O363 2.326 . S
O352 In351 2.294 . S
O352 C361 1.240 . S
O353 In351 2.326 . S
O353 C361 1.252 . S
C354 O357 1.252 . S
C354 O358 1.260 . S
C355 O362 1.240 . S
C355 O363 1.252 . S
C356 O359 1.252 . S
C356 O360 1.260 . S
O357 In351 2.266 . S
O357 C354 1.252 . S
O358 In351 2.326 . S
O358 C354 1.260 . S
O359 In351 2.266 . S
O359 C356 1.252 . S
O360 In351 2.326 . S
O360 C356 1.260 . S
C361 O352 1.240 . S
C361 O353 1.252 . S
O362 In351 2.294 . S
O362 C355 1.240 . S
O363 In351 2.326 . S
O363 C355 1.252 . S
In364 O365 2.294 . S
In364 O366 2.326 . S
In364 O370 2.266 . S
In364 O371 2.326 . S
In364 O372 2.266 . S
In364 O373 2.326 . S
In364 O375 2.294 . S
In364 O376 2.326 . S
O365 In364 2.294 . S
O365 C374 1.240 . S
O366 In364 2.326 . S
O366 C374 1.252 . S
C367 O370 1.252 . S
C367 O371 1.260 . S
C368 O375 1.240 . S
C368 O376 1.252 . S
C369 O372 1.252 . S
C369 O373 1.260 . S
O370 In364 2.266 . S
O370 C367 1.252 . S
O371 In364 2.326 . S
O371 C367 1.260 . S
O372 In364 2.266 . S
O372 C369 1.252 . S
O373 In364 2.326 . S
O373 C369 1.260 . S
C374 O365 1.240 . S
C374 O366 1.252 . S
O375 In364 2.294 . S
O375 C368 1.240 . S
O376 In364 2.326 . S
O376 C368 1.252 . S
In377 O378 2.294 . S
In377 O379 2.326 . S
In377 O383 2.266 . S
In377 O384 2.326 . S
In377 O385 2.266 . S
In377 O386 2.326 . S
In377 O388 2.294 . S
In377 O389 2.326 . S
O378 In377 2.294 . S
O378 C387 1.240 . S
O379 In377 2.326 . S
O379 C387 1.252 . S
C380 O383 1.252 . S
C380 O384 1.260 . S
C381 O388 1.240 . S
C381 O389 1.252 . S
C382 O385 1.252 . S
C382 O386 1.260 . S
O383 In377 2.266 . S
O383 C380 1.252 . S
O384 In377 2.326 . S
O384 C380 1.260 . S
O385 In377 2.266 . S
O385 C382 1.252 . S
O386 In377 2.326 . S
O386 C382 1.260 . S
C387 O378 1.240 . S
C387 O379 1.252 . S
O388 In377 2.294 . S
O388 C381 1.240 . S
O389 In377 2.326 . S
O389 C381 1.252 . S
In390 O391 2.294 . S
In390 O392 2.326 . S
In390 O396 2.266 . S
In390 O397 2.326 . S
In390 O398 2.266 . S
In390 O399 2.326 . S
In390 O401 2.294 . S
In390 O402 2.326 . S
O391 In390 2.294 . S
O391 C400 1.240 . S
O392 In390 2.326 . S
O392 C400 1.252 . S
C393 O396 1.252 . S
C393 O397 1.260 . S
C394 O401 1.240 . S
C394 O402 1.252 . S
C395 O398 1.252 . S
C395 O399 1.260 . S
O396 In390 2.266 . S
O396 C393 1.252 . S
O397 In390 2.326 . S
O397 C393 1.260 . S
O398 In390 2.266 . S
O398 C395 1.252 . S
O399 In390 2.326 . S
O399 C395 1.260 . S
C400 O391 1.240 . S
C400 O392 1.252 . S
O401 In390 2.294 . S
O401 C394 1.240 . S
O402 In390 2.326 . S
O402 C394 1.252 . S
In403 O404 2.294 . S
In403 O405 2.326 . S
In403 O409 2.266 . S
In403 O410 2.326 . S
In403 O411 2.266 . S
In403 O412 2.326 . S
In403 O414 2.294 . S
In403 O415 2.326 . S
O404 In403 2.294 . S
O404 C413 1.240 . S
O405 In403 2.326 . S
O405 C413 1.252 . S
C406 O409 1.252 . S
C406 O410 1.260 . S
C407 O414 1.240 . S
C407 O415 1.252 . S
C408 O411 1.252 . S
C408 O412 1.260 . S
O409 In403 2.266 . S
O409 C406 1.252 . S
O410 In403 2.326 . S
O410 C406 1.260 . S
O411 In403 2.266 . S
O411 C408 1.252 . S
O412 In403 2.326 . S
O412 C408 1.260 . S
C413 O404 1.240 . S
C413 O405 1.252 . S
O414 In403 2.294 . S
O414 C407 1.240 . S
O415 In403 2.326 . S
O415 C407 1.252 . S
In416 O417 2.294 . S
In416 O418 2.326 . S
In416 O422 2.266 . S
In416 O423 2.326 . S
In416 O424 2.266 . S
In416 O425 2.326 . S
In416 O427 2.294 . S
In416 O428 2.326 . S
O417 In416 2.294 . S
O417 C426 1.240 . S
O418 In416 2.326 . S
O418 C426 1.252 . S
C419 O422 1.252 . S
C419 O423 1.260 . S
C420 O427 1.240 . S
C420 O428 1.252 . S
C421 O424 1.252 . S
C421 O425 1.260 . S
O422 In416 2.266 . S
O422 C419 1.252 . S
O423 In416 2.326 . S
O423 C419 1.260 . S
O424 In416 2.266 . S
O424 C421 1.252 . S
O425 In416 2.326 . S
O425 C421 1.260 . S
C426 O417 1.240 . S
C426 O418 1.252 . S
O427 In416 2.294 . S
O427 C420 1.240 . S
O428 In416 2.326 . S
O428 C420 1.252 . S
In429 O430 2.294 . S
In429 O431 2.326 . S
In429 O435 2.266 . S
In429 O436 2.326 . S
In429 O437 2.266 . S
In429 O438 2.326 . S
In429 O440 2.294 . S
In429 O441 2.326 . S
O430 In429 2.294 . S
O430 C439 1.240 . S
O431 In429 2.326 . S
O431 C439 1.252 . S
C432 O435 1.252 . S
C432 O436 1.260 . S
C433 O440 1.240 . S
C433 O441 1.252 . S
C434 O437 1.252 . S
C434 O438 1.260 . S
O435 In429 2.266 . S
O435 C432 1.252 . S
O436 In429 2.326 . S
O436 C432 1.260 . S
O437 In429 2.266 . S
O437 C434 1.252 . S
O438 In429 2.326 . S
O438 C434 1.260 . S
C439 O430 1.240 . S
C439 O431 1.252 . S
O440 In429 2.294 . S
O440 C433 1.240 . S
O441 In429 2.326 . S
O441 C433 1.252 . S
In442 O443 2.294 . S
In442 O444 2.326 . S
In442 O448 2.266 . S
In442 O449 2.326 . S
In442 O450 2.266 . S
In442 O451 2.326 . S
In442 O453 2.294 . S
In442 O454 2.326 . S
O443 In442 2.294 . S
O443 C452 1.240 . S
O444 In442 2.326 . S
O444 C452 1.252 . S
C445 O448 1.252 . S
C445 O449 1.260 . S
C446 O453 1.240 . S
C446 O454 1.252 . S
C447 O450 1.252 . S
C447 O451 1.260 . S
O448 In442 2.266 . S
O448 C445 1.252 . S
O449 In442 2.326 . S
O449 C445 1.260 . S
O450 In442 2.266 . S
O450 C447 1.252 . S
O451 In442 2.326 . S
O451 C447 1.260 . S
C452 O443 1.240 . S
C452 O444 1.252 . S
O453 In442 2.294 . S
O453 C446 1.240 . S
O454 In442 2.326 . S
O454 C446 1.252 . S
In455 O456 2.294 . S
In455 O457 2.326 . S
In455 O461 2.266 . S
In455 O462 2.326 . S
In455 O463 2.266 . S
In455 O464 2.326 . S
In455 O466 2.294 . S
In455 O467 2.326 . S
O456 In455 2.294 . S
O456 C465 1.240 . S
O457 In455 2.326 . S
O457 C465 1.252 . S
C458 O461 1.252 . S
C458 O462 1.260 . S
C459 O466 1.240 . S
C459 O467 1.252 . S
C460 O463 1.252 . S
C460 O464 1.260 . S
O461 In455 2.266 . S
O461 C458 1.252 . S
O462 In455 2.326 . S
O462 C458 1.260 . S
O463 In455 2.266 . S
O463 C460 1.252 . S
O464 In455 2.326 . S
O464 C460 1.260 . S
C465 O456 1.240 . S
C465 O457 1.252 . S
O466 In455 2.294 . S
O466 C459 1.240 . S
O467 In455 2.326 . S
O467 C459 1.252 . S
H468 C476 0.929 . S
H469 C478 0.930 . S
H470 C480 0.930 . S
H471 C483 0.929 . S
H472 C486 0.930 . S
H473 C488 0.960 . S
H474 C488 0.960 . S
H475 C488 0.960 . S
C476 H468 0.929 . S
C476 C477 1.377 . S
C476 C478 1.384 . S
C477 C476 1.377 . S
C477 C483 1.390 . S
C478 H469 0.930 . S
C478 C476 1.384 . S
C478 C479 1.372 . S
C479 C478 1.372 . S
C479 C480 1.400 . S
C479 C484 1.490 . S
C480 H470 0.930 . S
C480 C479 1.400 . S
C480 C483 1.386 . S
H481 C497 0.930 . S
H482 C498 0.931 . S
C483 H471 0.929 . S
C483 C477 1.390 . S
C483 C480 1.386 . S
C484 C479 1.490 . S
C484 C486 1.395 . S
C484 C487 1.403 . S
H485 C491 0.930 . S
C486 H472 0.930 . S
C486 C484 1.395 . S
C486 C489 1.403 . S
C487 C484 1.403 . S
C487 C488 1.524 . S
C487 C491 1.400 . S
C488 H473 0.960 . S
C488 H474 0.960 . S
C488 H475 0.960 . S
C488 C487 1.524 . S
C489 C486 1.403 . S
C489 C490 1.392 . S
C489 C493 1.495 . S
C490 C489 1.392 . S
C490 C491 1.385 . S
C490 C492 1.478 . S
C491 H485 0.930 . S
C491 C487 1.400 . S
C491 C490 1.385 . S
C492 C490 1.478 . S
C492 C494 1.381 . S
C492 C498 1.383 . S
C493 C489 1.495 . S
C493 H499 0.959 . S
C493 H500 0.961 . S
C493 H501 0.960 . S
C494 C492 1.381 . S
C494 C495 1.394 . S
C494 H502 0.930 . S
C495 C494 1.394 . S
C495 C496 1.383 . S
C495 H503 0.929 . S
C496 C495 1.383 . S
C496 C497 1.377 . S
C497 H481 0.930 . S
C497 C496 1.377 . S
C497 C498 1.379 . S
C498 H482 0.931 . S
C498 C492 1.383 . S
C498 C497 1.379 . S
H499 C493 0.959 . S
H500 C493 0.961 . S
H501 C493 0.960 . S
H502 C494 0.930 . S
H503 C495 0.929 . S
H504 C512 0.929 . S
H505 C514 0.930 . S
H506 C516 0.930 . S
H507 C519 0.929 . S
H508 C522 0.930 . S
H509 C524 0.960 . S
H510 C524 0.960 . S
H511 C524 0.960 . S
C512 H504 0.929 . S
C512 C513 1.377 . S
C512 C514 1.384 . S
C513 C512 1.377 . S
C513 C519 1.390 . S
C514 H505 0.930 . S
C514 C512 1.384 . S
C514 C515 1.372 . S
C515 C514 1.372 . S
C515 C516 1.400 . S
C515 C520 1.490 . S
C516 H506 0.930 . S
C516 C515 1.400 . S
C516 C519 1.386 . S
H517 C533 0.930 . S
H518 C534 0.931 . S
C519 H507 0.929 . S
C519 C513 1.390 . S
C519 C516 1.386 . S
C520 C515 1.490 . S
C520 C522 1.395 . S
C520 C523 1.403 . S
H521 C527 0.930 . S
C522 H508 0.930 . S
C522 C520 1.395 . S
C522 C525 1.403 . S
C523 C520 1.403 . S
C523 C524 1.524 . S
C523 C527 1.400 . S
C524 H509 0.960 . S
C524 H510 0.960 . S
C524 H511 0.960 . S
C524 C523 1.524 . S
C525 C522 1.403 . S
C525 C526 1.392 . S
C525 C529 1.495 . S
C526 C525 1.392 . S
C526 C527 1.385 . S
C526 C528 1.478 . S
C527 H521 0.930 . S
C527 C523 1.400 . S
C527 C526 1.385 . S
C528 C526 1.478 . S
C528 C530 1.381 . S
C528 C534 1.383 . S
C529 C525 1.495 . S
C529 H535 0.959 . S
C529 H536 0.961 . S
C529 H537 0.960 . S
C530 C528 1.381 . S
C530 C531 1.394 . S
C530 H538 0.930 . S
C531 C530 1.394 . S
C531 C532 1.383 . S
C531 H539 0.929 . S
C532 C531 1.383 . S
C532 C533 1.377 . S
C533 H517 0.930 . S
C533 C532 1.377 . S
C533 C534 1.379 . S
C534 H518 0.931 . S
C534 C528 1.383 . S
C534 C533 1.379 . S
H535 C529 0.959 . S
H536 C529 0.961 . S
H537 C529 0.960 . S
H538 C530 0.930 . S
H539 C531 0.929 . S
H540 C548 0.929 . S
H541 C550 0.930 . S
H542 C552 0.930 . S
H543 C555 0.929 . S
H544 C558 0.930 . S
H545 C560 0.960 . S
H546 C560 0.960 . S
H547 C560 0.960 . S
C548 H540 0.929 . S
C548 C549 1.377 . S
C548 C550 1.384 . S
C549 C548 1.377 . S
C549 C555 1.390 . S
C550 H541 0.930 . S
C550 C548 1.384 . S
C550 C551 1.372 . S
C551 C550 1.372 . S
C551 C552 1.400 . S
C551 C556 1.490 . S
C552 H542 0.930 . S
C552 C551 1.400 . S
C552 C555 1.386 . S
H553 C569 0.930 . S
H554 C570 0.931 . S
C555 H543 0.929 . S
C555 C549 1.390 . S
C555 C552 1.386 . S
C556 C551 1.490 . S
C556 C558 1.395 . S
C556 C559 1.403 . S
H557 C563 0.930 . S
C558 H544 0.930 . S
C558 C556 1.395 . S
C558 C561 1.403 . S
C559 C556 1.403 . S
C559 C560 1.524 . S
C559 C563 1.400 . S
C560 H545 0.960 . S
C560 H546 0.960 . S
C560 H547 0.960 . S
C560 C559 1.524 . S
C561 C558 1.403 . S
C561 C562 1.392 . S
C561 C565 1.495 . S
C562 C561 1.392 . S
C562 C563 1.385 . S
C562 C564 1.478 . S
C563 H557 0.930 . S
C563 C559 1.400 . S
C563 C562 1.385 . S
C564 C562 1.478 . S
C564 C566 1.381 . S
C564 C570 1.383 . S
C565 C561 1.495 . S
C565 H571 0.959 . S
C565 H572 0.961 . S
C565 H573 0.960 . S
C566 C564 1.381 . S
C566 C567 1.394 . S
C566 H574 0.930 . S
C567 C566 1.394 . S
C567 C568 1.383 . S
C567 H575 0.929 . S
C568 C567 1.383 . S
C568 C569 1.377 . S
C569 H553 0.930 . S
C569 C568 1.377 . S
C569 C570 1.379 . S
C570 H554 0.931 . S
C570 C564 1.383 . S
C570 C569 1.379 . S
H571 C565 0.959 . S
H572 C565 0.961 . S
H573 C565 0.960 . S
H574 C566 0.930 . S
H575 C567 0.929 . S
H576 C584 0.929 . S
H577 C586 0.930 . S
H578 C588 0.930 . S
H579 C591 0.929 . S
H580 C594 0.930 . S
H581 C596 0.960 . S
H582 C596 0.960 . S
H583 C596 0.960 . S
C584 H576 0.929 . S
C584 C585 1.377 . S
C584 C586 1.384 . S
C585 C584 1.377 . S
C585 C591 1.390 . S
C586 H577 0.930 . S
C586 C584 1.384 . S
C586 C587 1.372 . S
C587 C586 1.372 . S
C587 C588 1.400 . S
C587 C592 1.490 . S
C588 H578 0.930 . S
C588 C587 1.400 . S
C588 C591 1.386 . S
H589 C605 0.930 . S
H590 C606 0.931 . S
C591 H579 0.929 . S
C591 C585 1.390 . S
C591 C588 1.386 . S
C592 C587 1.490 . S
C592 C594 1.395 . S
C592 C595 1.403 . S
H593 C599 0.930 . S
C594 H580 0.930 . S
C594 C592 1.395 . S
C594 C597 1.403 . S
C595 C592 1.403 . S
C595 C596 1.524 . S
C595 C599 1.400 . S
C596 H581 0.960 . S
C596 H582 0.960 . S
C596 H583 0.960 . S
C596 C595 1.524 . S
C597 C594 1.403 . S
C597 C598 1.392 . S
C597 C601 1.495 . S
C598 C597 1.392 . S
C598 C599 1.385 . S
C598 C600 1.478 . S
C599 H593 0.930 . S
C599 C595 1.400 . S
C599 C598 1.385 . S
C600 C598 1.478 . S
C600 C602 1.381 . S
C600 C606 1.383 . S
C601 C597 1.495 . S
C601 H607 0.959 . S
C601 H608 0.961 . S
C601 H609 0.960 . S
C602 C600 1.381 . S
C602 C603 1.394 . S
C602 H610 0.930 . S
C603 C602 1.394 . S
C603 C604 1.383 . S
C603 H611 0.929 . S
C604 C603 1.383 . S
C604 C605 1.377 . S
C605 H589 0.930 . S
C605 C604 1.377 . S
C605 C606 1.379 . S
C606 H590 0.931 . S
C606 C600 1.383 . S
C606 C605 1.379 . S
H607 C601 0.959 . S
H608 C601 0.961 . S
H609 C601 0.960 . S
H610 C602 0.930 . S
H611 C603 0.929 . S
H612 C620 0.929 . S
H613 C622 0.930 . S
H614 C624 0.930 . S
H615 C627 0.929 . S
H616 C630 0.930 . S
H617 C632 0.960 . S
H618 C632 0.960 . S
H619 C632 0.960 . S
C620 H612 0.929 . S
C620 C621 1.377 . S
C620 C622 1.384 . S
C621 C620 1.377 . S
C621 C627 1.390 . S
C622 H613 0.930 . S
C622 C620 1.384 . S
C622 C623 1.372 . S
C623 C622 1.372 . S
C623 C624 1.400 . S
C623 C628 1.490 . S
C624 H614 0.930 . S
C624 C623 1.400 . S
C624 C627 1.386 . S
H625 C641 0.930 . S
H626 C642 0.931 . S
C627 H615 0.929 . S
C627 C621 1.390 . S
C627 C624 1.386 . S
C628 C623 1.490 . S
C628 C630 1.395 . S
C628 C631 1.403 . S
H629 C635 0.930 . S
C630 H616 0.930 . S
C630 C628 1.395 . S
C630 C633 1.403 . S
C631 C628 1.403 . S
C631 C632 1.524 . S
C631 C635 1.400 . S
C632 H617 0.960 . S
C632 H618 0.960 . S
C632 H619 0.960 . S
C632 C631 1.524 . S
C633 C630 1.403 . S
C633 C634 1.392 . S
C633 C637 1.495 . S
C634 C633 1.392 . S
C634 C635 1.385 . S
C634 C636 1.478 . S
C635 H629 0.930 . S
C635 C631 1.400 . S
C635 C634 1.385 . S
C636 C634 1.478 . S
C636 C638 1.381 . S
C636 C642 1.383 . S
C637 C633 1.495 . S
C637 H643 0.959 . S
C637 H644 0.961 . S
C637 H645 0.960 . S
C638 C636 1.381 . S
C638 C639 1.394 . S
C638 H646 0.930 . S
C639 C638 1.394 . S
C639 C640 1.383 . S
C639 H647 0.929 . S
C640 C639 1.383 . S
C640 C641 1.377 . S
C641 H625 0.930 . S
C641 C640 1.377 . S
C641 C642 1.379 . S
C642 H626 0.931 . S
C642 C636 1.383 . S
C642 C641 1.379 . S
H643 C637 0.959 . S
H644 C637 0.961 . S
H645 C637 0.960 . S
H646 C638 0.930 . S
H647 C639 0.929 . S
H648 C656 0.929 . S
H649 C658 0.930 . S
H650 C660 0.930 . S
H651 C663 0.929 . S
H652 C666 0.930 . S
H653 C668 0.960 . S
H654 C668 0.960 . S
H655 C668 0.960 . S
C656 H648 0.929 . S
C656 C657 1.377 . S
C656 C658 1.384 . S
C657 C656 1.377 . S
C657 C663 1.390 . S
C658 H649 0.930 . S
C658 C656 1.384 . S
C658 C659 1.372 . S
C659 C658 1.372 . S
C659 C660 1.400 . S
C659 C664 1.490 . S
C660 H650 0.930 . S
C660 C659 1.400 . S
C660 C663 1.386 . S
H661 C677 0.930 . S
H662 C678 0.931 . S
C663 H651 0.929 . S
C663 C657 1.390 . S
C663 C660 1.386 . S
C664 C659 1.490 . S
C664 C666 1.395 . S
C664 C667 1.403 . S
H665 C671 0.930 . S
C666 H652 0.930 . S
C666 C664 1.395 . S
C666 C669 1.403 . S
C667 C664 1.403 . S
C667 C668 1.524 . S
C667 C671 1.400 . S
C668 H653 0.960 . S
C668 H654 0.960 . S
C668 H655 0.960 . S
C668 C667 1.524 . S
C669 C666 1.403 . S
C669 C670 1.392 . S
C669 C673 1.495 . S
C670 C669 1.392 . S
C670 C671 1.385 . S
C670 C672 1.478 . S
C671 H665 0.930 . S
C671 C667 1.400 . S
C671 C670 1.385 . S
C672 C670 1.478 . S
C672 C674 1.381 . S
C672 C678 1.383 . S
C673 C669 1.495 . S
C673 H679 0.959 . S
C673 H680 0.961 . S
C673 H681 0.960 . S
C674 C672 1.381 . S
C674 C675 1.394 . S
C674 H682 0.930 . S
C675 C674 1.394 . S
C675 C676 1.383 . S
C675 H683 0.929 . S
C676 C675 1.383 . S
C676 C677 1.377 . S
C677 H661 0.930 . S
C677 C676 1.377 . S
C677 C678 1.379 . S
C678 H662 0.931 . S
C678 C672 1.383 . S
C678 C677 1.379 . S
H679 C673 0.959 . S
H680 C673 0.961 . S
H681 C673 0.960 . S
H682 C674 0.930 . S
H683 C675 0.929 . S
H684 C692 0.929 . S
H685 C694 0.930 . S
H686 C696 0.930 . S
H687 C699 0.929 . S
H688 C702 0.930 . S
H689 C704 0.960 . S
H690 C704 0.960 . S
H691 C704 0.960 . S
C692 H684 0.929 . S
C692 C693 1.377 . S
C692 C694 1.384 . S
C693 C692 1.377 . S
C693 C699 1.390 . S
C694 H685 0.930 . S
C694 C692 1.384 . S
C694 C695 1.372 . S
C695 C694 1.372 . S
C695 C696 1.400 . S
C695 C700 1.490 . S
C696 H686 0.930 . S
C696 C695 1.400 . S
C696 C699 1.386 . S
H697 C713 0.930 . S
H698 C714 0.931 . S
C699 H687 0.929 . S
C699 C693 1.390 . S
C699 C696 1.386 . S
C700 C695 1.490 . S
C700 C702 1.395 . S
C700 C703 1.403 . S
H701 C707 0.930 . S
C702 H688 0.930 . S
C702 C700 1.395 . S
C702 C705 1.403 . S
C703 C700 1.403 . S
C703 C704 1.524 . S
C703 C707 1.400 . S
C704 H689 0.960 . S
C704 H690 0.960 . S
C704 H691 0.960 . S
C704 C703 1.524 . S
C705 C702 1.403 . S
C705 C706 1.392 . S
C705 C709 1.495 . S
C706 C705 1.392 . S
C706 C707 1.385 . S
C706 C708 1.478 . S
C707 H701 0.930 . S
C707 C703 1.400 . S
C707 C706 1.385 . S
C708 C706 1.478 . S
C708 C710 1.381 . S
C708 C714 1.383 . S
C709 C705 1.495 . S
C709 H715 0.959 . S
C709 H716 0.961 . S
C709 H717 0.960 . S
C710 C708 1.381 . S
C710 C711 1.394 . S
C710 H718 0.930 . S
C711 C710 1.394 . S
C711 C712 1.383 . S
C711 H719 0.929 . S
C712 C711 1.383 . S
C712 C713 1.377 . S
C713 H697 0.930 . S
C713 C712 1.377 . S
C713 C714 1.379 . S
C714 H698 0.931 . S
C714 C708 1.383 . S
C714 C713 1.379 . S
H715 C709 0.959 . S
H716 C709 0.961 . S
H717 C709 0.960 . S
H718 C710 0.930 . S
H719 C711 0.929 . S
H720 C728 0.929 . S
H721 C730 0.930 . S
H722 C732 0.930 . S
H723 C735 0.929 . S
H724 C738 0.930 . S
H725 C740 0.960 . S
H726 C740 0.960 . S
H727 C740 0.960 . S
C728 H720 0.929 . S
C728 C729 1.377 . S
C728 C730 1.384 . S
C729 C728 1.377 . S
C729 C735 1.390 . S
C730 H721 0.930 . S
C730 C728 1.384 . S
C730 C731 1.372 . S
C731 C730 1.372 . S
C731 C732 1.400 . S
C731 C736 1.490 . S
C732 H722 0.930 . S
C732 C731 1.400 . S
C732 C735 1.386 . S
H733 C749 0.930 . S
H734 C750 0.931 . S
C735 H723 0.929 . S
C735 C729 1.390 . S
C735 C732 1.386 . S
C736 C731 1.490 . S
C736 C738 1.395 . S
C736 C739 1.403 . S
H737 C743 0.930 . S
C738 H724 0.930 . S
C738 C736 1.395 . S
C738 C741 1.403 . S
C739 C736 1.403 . S
C739 C740 1.524 . S
C739 C743 1.400 . S
C740 H725 0.960 . S
C740 H726 0.960 . S
C740 H727 0.960 . S
C740 C739 1.524 . S
C741 C738 1.403 . S
C741 C742 1.392 . S
C741 C745 1.495 . S
C742 C741 1.392 . S
C742 C743 1.385 . S
C742 C744 1.478 . S
C743 H737 0.930 . S
C743 C739 1.400 . S
C743 C742 1.385 . S
C744 C742 1.478 . S
C744 C746 1.381 . S
C744 C750 1.383 . S
C745 C741 1.495 . S
C745 H751 0.959 . S
C745 H752 0.961 . S
C745 H753 0.960 . S
C746 C744 1.381 . S
C746 C747 1.394 . S
C746 H754 0.930 . S
C747 C746 1.394 . S
C747 C748 1.383 . S
C747 H755 0.929 . S
C748 C747 1.383 . S
C748 C749 1.377 . S
C749 H733 0.930 . S
C749 C748 1.377 . S
C749 C750 1.379 . S
C750 H734 0.931 . S
C750 C744 1.383 . S
C750 C749 1.379 . S
H751 C745 0.959 . S
H752 C745 0.961 . S
H753 C745 0.960 . S
H754 C746 0.930 . S
H755 C747 0.929 . S
H756 C764 0.929 . S
H757 C766 0.930 . S
H758 C768 0.930 . S
H759 C771 0.929 . S
H760 C774 0.930 . S
H761 C776 0.960 . S
H762 C776 0.960 . S
H763 C776 0.960 . S
C764 H756 0.929 . S
C764 C765 1.377 . S
C764 C766 1.384 . S
C765 C764 1.377 . S
C765 C771 1.390 . S
C766 H757 0.930 . S
C766 C764 1.384 . S
C766 C767 1.372 . S
C767 C766 1.372 . S
C767 C768 1.400 . S
C767 C772 1.490 . S
C768 H758 0.930 . S
C768 C767 1.400 . S
C768 C771 1.386 . S
H769 C785 0.930 . S
H770 C786 0.931 . S
C771 H759 0.929 . S
C771 C765 1.390 . S
C771 C768 1.386 . S
C772 C767 1.490 . S
C772 C774 1.395 . S
C772 C775 1.403 . S
H773 C779 0.930 . S
C774 H760 0.930 . S
C774 C772 1.395 . S
C774 C777 1.403 . S
C775 C772 1.403 . S
C775 C776 1.524 . S
C775 C779 1.400 . S
C776 H761 0.960 . S
C776 H762 0.960 . S
C776 H763 0.960 . S
C776 C775 1.524 . S
C777 C774 1.403 . S
C777 C778 1.392 . S
C777 C781 1.495 . S
C778 C777 1.392 . S
C778 C779 1.385 . S
C778 C780 1.478 . S
C779 H773 0.930 . S
C779 C775 1.400 . S
C779 C778 1.385 . S
C780 C778 1.478 . S
C780 C782 1.381 . S
C780 C786 1.383 . S
C781 C777 1.495 . S
C781 H787 0.959 . S
C781 H788 0.961 . S
C781 H789 0.960 . S
C782 C780 1.381 . S
C782 C783 1.394 . S
C782 H790 0.930 . S
C783 C782 1.394 . S
C783 C784 1.383 . S
C783 H791 0.929 . S
C784 C783 1.383 . S
C784 C785 1.377 . S
C785 H769 0.930 . S
C785 C784 1.377 . S
C785 C786 1.379 . S
C786 H770 0.931 . S
C786 C780 1.383 . S
C786 C785 1.379 . S
H787 C781 0.959 . S
H788 C781 0.961 . S
H789 C781 0.960 . S
H790 C782 0.930 . S
H791 C783 0.929 . S
H792 C800 0.929 . S
H793 C802 0.930 . S
H794 C804 0.930 . S
H795 C807 0.929 . S
H796 C810 0.930 . S
H797 C812 0.960 . S
H798 C812 0.960 . S
H799 C812 0.960 . S
C800 H792 0.929 . S
C800 C801 1.377 . S
C800 C802 1.384 . S
C801 C800 1.377 . S
C801 C807 1.390 . S
C802 H793 0.930 . S
C802 C800 1.384 . S
C802 C803 1.372 . S
C803 C802 1.372 . S
C803 C804 1.400 . S
C803 C808 1.490 . S
C804 H794 0.930 . S
C804 C803 1.400 . S
C804 C807 1.386 . S
H805 C821 0.930 . S
H806 C822 0.931 . S
C807 H795 0.929 . S
C807 C801 1.390 . S
C807 C804 1.386 . S
C808 C803 1.490 . S
C808 C810 1.395 . S
C808 C811 1.403 . S
H809 C815 0.930 . S
C810 H796 0.930 . S
C810 C808 1.395 . S
C810 C813 1.403 . S
C811 C808 1.403 . S
C811 C812 1.524 . S
C811 C815 1.400 . S
C812 H797 0.960 . S
C812 H798 0.960 . S
C812 H799 0.960 . S
C812 C811 1.524 . S
C813 C810 1.403 . S
C813 C814 1.392 . S
C813 C817 1.495 . S
C814 C813 1.392 . S
C814 C815 1.385 . S
C814 C816 1.478 . S
C815 H809 0.930 . S
C815 C811 1.400 . S
C815 C814 1.385 . S
C816 C814 1.478 . S
C816 C818 1.381 . S
C816 C822 1.383 . S
C817 C813 1.495 . S
C817 H823 0.959 . S
C817 H824 0.961 . S
C817 H825 0.960 . S
C818 C816 1.381 . S
C818 C819 1.394 . S
C818 H826 0.930 . S
C819 C818 1.394 . S
C819 C820 1.383 . S
C819 H827 0.929 . S
C820 C819 1.383 . S
C820 C821 1.377 . S
C821 H805 0.930 . S
C821 C820 1.377 . S
C821 C822 1.379 . S
C822 H806 0.931 . S
C822 C816 1.383 . S
C822 C821 1.379 . S
H823 C817 0.959 . S
H824 C817 0.961 . S
H825 C817 0.960 . S
H826 C818 0.930 . S
H827 C819 0.929 . S
H828 C836 0.929 . S
H829 C838 0.930 . S
H830 C840 0.930 . S
H831 C843 0.929 . S
H832 C846 0.930 . S
H833 C848 0.960 . S
H834 C848 0.960 . S
H835 C848 0.960 . S
C836 H828 0.929 . S
C836 C837 1.377 . S
C836 C838 1.384 . S
C837 C836 1.377 . S
C837 C843 1.390 . S
C838 H829 0.930 . S
C838 C836 1.384 . S
C838 C839 1.372 . S
C839 C838 1.372 . S
C839 C840 1.400 . S
C839 C844 1.490 . S
C840 H830 0.930 . S
C840 C839 1.400 . S
C840 C843 1.386 . S
H841 C857 0.930 . S
H842 C858 0.931 . S
C843 H831 0.929 . S
C843 C837 1.390 . S
C843 C840 1.386 . S
C844 C839 1.490 . S
C844 C846 1.395 . S
C844 C847 1.403 . S
H845 C851 0.930 . S
C846 H832 0.930 . S
C846 C844 1.395 . S
C846 C849 1.403 . S
C847 C844 1.403 . S
C847 C848 1.524 . S
C847 C851 1.400 . S
C848 H833 0.960 . S
C848 H834 0.960 . S
C848 H835 0.960 . S
C848 C847 1.524 . S
C849 C846 1.403 . S
C849 C850 1.392 . S
C849 C853 1.495 . S
C850 C849 1.392 . S
C850 C851 1.385 . S
C850 C852 1.478 . S
C851 H845 0.930 . S
C851 C847 1.400 . S
C851 C850 1.385 . S
C852 C850 1.478 . S
C852 C854 1.381 . S
C852 C858 1.383 . S
C853 C849 1.495 . S
C853 H859 0.959 . S
C853 H860 0.961 . S
C853 H861 0.960 . S
C854 C852 1.381 . S
C854 C855 1.394 . S
C854 H862 0.930 . S
C855 C854 1.394 . S
C855 C856 1.383 . S
C855 H863 0.929 . S
C856 C855 1.383 . S
C856 C857 1.377 . S
C857 H841 0.930 . S
C857 C856 1.377 . S
C857 C858 1.379 . S
C858 H842 0.931 . S
C858 C852 1.383 . S
C858 C857 1.379 . S
H859 C853 0.959 . S
H860 C853 0.961 . S
H861 C853 0.960 . S
H862 C854 0.930 . S
H863 C855 0.929 . S
H864 C872 0.929 . S
H865 C874 0.930 . S
H866 C876 0.930 . S
H867 C879 0.929 . S
H868 C882 0.930 . S
H869 C884 0.960 . S
H870 C884 0.960 . S
H871 C884 0.960 . S
C872 H864 0.929 . S
C872 C873 1.377 . S
C872 C874 1.384 . S
C873 C872 1.377 . S
C873 C879 1.390 . S
C874 H865 0.930 . S
C874 C872 1.384 . S
C874 C875 1.372 . S
C875 C874 1.372 . S
C875 C876 1.400 . S
C875 C880 1.490 . S
C876 H866 0.930 . S
C876 C875 1.400 . S
C876 C879 1.386 . S
H877 C893 0.930 . S
H878 C894 0.931 . S
C879 H867 0.929 . S
C879 C873 1.390 . S
C879 C876 1.386 . S
C880 C875 1.490 . S
C880 C882 1.395 . S
C880 C883 1.403 . S
H881 C887 0.930 . S
C882 H868 0.930 . S
C882 C880 1.395 . S
C882 C885 1.403 . S
C883 C880 1.403 . S
C883 C884 1.524 . S
C883 C887 1.400 . S
C884 H869 0.960 . S
C884 H870 0.960 . S
C884 H871 0.960 . S
C884 C883 1.524 . S
C885 C882 1.403 . S
C885 C886 1.392 . S
C885 C889 1.495 . S
C886 C885 1.392 . S
C886 C887 1.385 . S
C886 C888 1.478 . S
C887 H881 0.930 . S
C887 C883 1.400 . S
C887 C886 1.385 . S
C888 C886 1.478 . S
C888 C890 1.381 . S
C888 C894 1.383 . S
C889 C885 1.495 . S
C889 H895 0.959 . S
C889 H896 0.961 . S
C889 H897 0.960 . S
C890 C888 1.381 . S
C890 C891 1.394 . S
C890 H898 0.930 . S
C891 C890 1.394 . S
C891 C892 1.383 . S
C891 H899 0.929 . S
C892 C891 1.383 . S
C892 C893 1.377 . S
C893 H877 0.930 . S
C893 C892 1.377 . S
C893 C894 1.379 . S
C894 H878 0.931 . S
C894 C888 1.383 . S
C894 C893 1.379 . S
H895 C889 0.959 . S
H896 C889 0.961 . S
H897 C889 0.960 . S
H898 C890 0.930 . S
H899 C891 0.929 . S
H900 C908 0.929 . S
H901 C910 0.930 . S
H902 C912 0.930 . S
H903 C915 0.929 . S
H904 C918 0.910 . S
H905 C920 0.960 . S
H906 C920 0.960 . S
H907 C920 0.960 . S
C908 H900 0.929 . S
C908 C909 1.377 . S
C908 C910 1.384 . S
C909 C908 1.377 . S
C909 C915 1.390 . S
C910 H901 0.930 . S
C910 C908 1.384 . S
C910 C911 1.372 . S
C911 C910 1.372 . S
C911 C912 1.400 . S
C911 C916 1.490 . S
C912 H902 0.930 . S
C912 C911 1.400 . S
C912 C915 1.386 . S
H913 C929 0.930 . S
H914 C930 0.931 . S
C915 H903 0.929 . S
C915 C909 1.390 . S
C915 C912 1.386 . S
C916 C911 1.490 . S
C916 C918 1.395 1_455 S
C916 C919 1.403 . S
H917 C923 0.930 . S
C918 H904 0.910 . S
C918 C916 1.395 1_655 S
C918 C921 1.403 . S
C919 C916 1.403 . S
C919 C920 1.524 . S
C919 C923 1.400 1_455 S
C920 H905 0.960 . S
C920 H906 0.960 . S
C920 H907 0.960 . S
C920 C919 1.524 . S
C921 C918 1.403 . S
C921 C922 1.392 . S
C921 C925 1.495 . S
C922 C921 1.392 . S
C922 C923 1.385 . S
C922 C924 1.478 . S
C923 H917 0.930 . S
C923 C919 1.400 1_655 S
C923 C922 1.385 . S
C924 C922 1.478 . S
C924 C926 1.381 . S
C924 C930 1.383 . S
C925 C921 1.495 . S
C925 H931 0.959 . S
C925 H932 0.961 . S
C925 H933 0.960 . S
C926 C924 1.381 . S
C926 C927 1.394 . S
C926 H934 0.930 . S
C927 C926 1.394 . S
C927 C928 1.383 . S
C927 H935 0.929 . S
C928 C927 1.383 . S
C928 C929 1.377 . S
C929 H913 0.930 . S
C929 C928 1.377 . S
C929 C930 1.379 . S
C930 H914 0.931 . S
C930 C924 1.383 . S
C930 C929 1.379 . S
H931 C925 0.959 . S
H932 C925 0.961 . S
H933 C925 0.960 . S
H934 C926 0.930 . S
H935 C927 0.929 . S
H936 C944 0.929 . S
H937 C946 0.930 . S
H938 C948 0.930 . S
H939 C951 0.929 . S
H940 C954 0.930 . S
H941 C956 0.960 . S
H942 C956 0.960 . S
H943 C956 0.960 . S
C944 H936 0.929 . S
C944 C945 1.377 . S
C944 C946 1.384 . S
C945 C944 1.377 . S
C945 C951 1.390 . S
C946 H937 0.930 . S
C946 C944 1.384 . S
C946 C947 1.372 . S
C947 C946 1.372 . S
C947 C948 1.400 . S
C947 C952 1.490 . S
C948 H938 0.930 . S
C948 C947 1.400 . S
C948 C951 1.386 . S
H949 C965 0.930 . S
H950 C966 0.931 . S
C951 H939 0.929 . S
C951 C945 1.390 . S
C951 C948 1.386 . S
C952 C947 1.490 . S
C952 C954 1.395 . S
C952 C955 1.403 . S
H953 C959 0.930 . S
C954 H940 0.930 . S
C954 C952 1.395 . S
C954 C957 1.403 . S
C955 C952 1.403 . S
C955 C956 1.524 . S
C955 C959 1.400 . S
C956 H941 0.960 . S
C956 H942 0.960 . S
C956 H943 0.960 . S
C956 C955 1.524 . S
C957 C954 1.403 . S
C957 C958 1.392 . S
C957 C961 1.495 . S
C958 C957 1.392 . S
C958 C959 1.385 . S
C958 C960 1.478 . S
C959 H953 0.930 . S
C959 C955 1.400 . S
C959 C958 1.385 . S
C960 C958 1.478 . S
C960 C962 1.381 . S
C960 C966 1.383 . S
C961 C957 1.495 . S
C961 H967 0.959 . S
C961 H968 0.961 . S
C961 H969 0.960 . S
C962 C960 1.381 . S
C962 C963 1.394 . S
C962 H970 0.930 . S
C963 C962 1.394 . S
C963 C964 1.383 . S
C963 H971 0.929 . S
C964 C963 1.383 . S
C964 C965 1.377 . S
C965 H949 0.930 . S
C965 C964 1.377 . S
C965 C966 1.379 . S
C966 H950 0.931 . S
C966 C960 1.383 . S
C966 C965 1.379 . S
H967 C961 0.959 . S
H968 C961 0.961 . S
H969 C961 0.960 . S
H970 C962 0.930 . S
H971 C963 0.929 . S
H972 C980 0.929 . S
H973 C982 0.930 . S
H974 C984 0.930 . S
H975 C987 0.929 . S
H976 C990 0.930 . S
H977 C992 0.960 . S
H978 C992 0.960 . S
H979 C992 0.960 . S
C980 H972 0.929 . S
C980 C981 1.377 . S
C980 C982 1.384 . S
C981 C980 1.377 . S
C981 C987 1.390 . S
C982 H973 0.930 . S
C982 C980 1.384 . S
C982 C983 1.372 . S
C983 C982 1.372 . S
C983 C984 1.400 . S
C983 C988 1.490 . S
C984 H974 0.930 . S
C984 C983 1.400 . S
C984 C987 1.386 . S
H985 C1001 0.930 . S
H986 C1002 0.931 . S
C987 H975 0.929 . S
C987 C981 1.390 . S
C987 C984 1.386 . S
C988 C983 1.490 . S
C988 C990 1.395 1_545 S
C988 C991 1.403 . S
H989 C995 0.930 . S
C990 H976 0.930 . S
C990 C988 1.395 1_565 S
C990 C993 1.403 . S
C991 C988 1.403 . S
C991 C992 1.524 . S
C991 C995 1.400 1_545 S
C992 H977 0.960 . S
C992 H978 0.960 . S
C992 H979 0.960 . S
C992 C991 1.524 . S
C993 C990 1.403 . S
C993 C994 1.392 . S
C993 C997 1.495 . S
C994 C993 1.392 . S
C994 C995 1.385 . S
C994 C996 1.478 . S
C995 H989 0.930 . S
C995 C991 1.400 1_565 S
C995 C994 1.385 . S
C996 C994 1.478 . S
C996 C998 1.381 . S
C996 C1002 1.383 . S
C997 C993 1.495 . S
C997 H1003 0.959 . S
C997 H1004 0.961 . S
C997 H1005 0.960 . S
C998 C996 1.381 . S
C998 C999 1.394 . S
C998 H1006 0.930 . S
C999 C998 1.394 . S
C999 C1000 1.383 . S
C999 H1007 0.929 . S
C1000 C999 1.383 . S
C1000 C1001 1.377 . S
C1001 H985 0.930 . S
C1001 C1000 1.377 . S
C1001 C1002 1.379 . S
C1002 H986 0.931 . S
C1002 C996 1.383 . S
C1002 C1001 1.379 . S
H1003 C997 0.959 . S
H1004 C997 0.961 . S
H1005 C997 0.960 . S
H1006 C998 0.930 . S
H1007 C999 0.929 . S
H1008 C1016 0.929 . S
H1009 C1018 0.930 . S
H1010 C1020 0.930 . S
H1011 C1023 0.929 . S
H1012 C1026 0.930 . S
H1013 C1028 0.960 . S
H1014 C1028 0.960 1_565 S
H1015 C1028 0.960 . S
C1016 H1008 0.929 . S
C1016 C1017 1.377 . S
C1016 C1018 1.384 . S
C1017 C1016 1.377 . S
C1017 C1023 1.390 . S
C1018 H1009 0.930 . S
C1018 C1016 1.384 . S
C1018 C1019 1.372 . S
C1019 C1018 1.372 . S
C1019 C1020 1.400 . S
C1019 C1024 1.490 . S
C1020 H1010 0.930 . S
C1020 C1019 1.400 . S
C1020 C1023 1.386 . S
H1021 C1037 0.930 . S
H1022 C1038 0.931 . S
C1023 H1011 0.929 . S
C1023 C1017 1.390 . S
C1023 C1020 1.386 . S
C1024 C1019 1.490 . S
C1024 C1026 1.395 1_554 S
C1024 C1027 1.403 1_565 S
H1025 C1031 0.930 . S
C1026 H1012 0.930 . S
C1026 C1024 1.395 1_556 S
C1026 C1029 1.403 . S
C1027 C1024 1.403 1_545 S
C1027 C1028 1.524 . S
C1027 C1031 1.400 . S
C1028 H1013 0.960 . S
C1028 H1014 0.960 1_545 S
C1028 H1015 0.960 . S
C1028 C1027 1.524 . S
C1029 C1026 1.403 . S
C1029 C1030 1.392 1_565 S
C1029 C1033 1.495 . S
C1030 C1029 1.392 1_545 S
C1030 C1031 1.385 1_556 S
C1030 C1032 1.478 . S
C1031 H1025 0.930 . S
C1031 C1027 1.400 . S
C1031 C1030 1.385 1_554 S
C1032 C1030 1.478 . S
C1032 C1034 1.381 . S
C1032 C1038 1.383 . S
C1033 C1029 1.495 . S
C1033 H1039 0.959 . S
C1033 H1040 0.961 1_565 S
C1033 H1041 0.960 . S
C1034 C1032 1.381 . S
C1034 C1035 1.394 . S
C1034 H1042 0.930 . S
C1035 C1034 1.394 . S
C1035 C1036 1.383 . S
C1035 H1043 0.929 . S
C1036 C1035 1.383 . S
C1036 C1037 1.377 . S
C1037 H1021 0.930 . S
C1037 C1036 1.377 . S
C1037 C1038 1.379 . S
C1038 H1022 0.931 . S
C1038 C1032 1.383 . S
C1038 C1037 1.379 . S
H1039 C1033 0.959 . S
H1040 C1033 0.961 1_545 S
H1041 C1033 0.960 . S
H1042 C1034 0.930 . S
H1043 C1035 0.929 . S
H1044 C1052 0.929 . S
H1045 C1054 0.930 . S
H1046 C1056 0.930 . S
H1047 C1059 0.929 . S
H1048 C1062 0.930 . S
H1049 C1064 0.960 . S
H1050 C1064 0.960 . S
H1051 C1064 0.960 1_655 S
C1052 H1044 0.929 . S
C1052 C1053 1.377 . S
C1052 C1054 1.384 . S
C1053 C1052 1.377 . S
C1053 C1059 1.390 . S
C1054 H1045 0.930 . S
C1054 C1052 1.384 . S
C1054 C1055 1.372 . S
C1055 C1054 1.372 . S
C1055 C1056 1.400 . S
C1055 C1060 1.490 . S
C1056 H1046 0.930 . S
C1056 C1055 1.400 . S
C1056 C1059 1.386 . S
H1057 C1073 0.930 . S
H1058 C1074 0.931 . S
C1059 H1047 0.929 . S
C1059 C1053 1.390 . S
C1059 C1056 1.386 . S
C1060 C1055 1.490 . S
C1060 C1062 1.395 1_556 S
C1060 C1063 1.382 1_655 S
H1061 C1067 0.930 . S
C1062 H1048 0.930 . S
C1062 C1060 1.395 1_554 S
C1062 C1065 1.432 . S
C1063 C1060 1.382 1_455 S
C1063 C1064 1.530 . S
C1063 C1067 1.415 . S
C1064 H1049 0.960 . S
C1064 H1050 0.960 . S
C1064 H1051 0.960 1_455 S
C1064 C1063 1.530 . S
C1065 C1062 1.432 . S
C1065 C1066 1.355 1_655 S
C1065 C1069 1.506 . S
C1066 C1065 1.355 1_455 S
C1066 C1067 1.385 1_554 S
C1066 C1068 1.478 . S
C1067 H1061 0.930 . S
C1067 C1063 1.415 . S
C1067 C1066 1.385 1_556 S
C1068 C1066 1.478 . S
C1068 C1070 1.381 . S
C1068 C1074 1.383 . S
C1069 C1065 1.506 . S
C1069 H1075 0.959 . S
C1069 H1076 0.961 . S
C1069 H1077 0.960 1_655 S
C1070 C1068 1.381 . S
C1070 C1071 1.394 . S
C1070 H1078 0.930 . S
C1071 C1070 1.394 . S
C1071 C1072 1.383 . S
C1071 H1079 0.929 . S
C1072 C1071 1.383 . S
C1072 C1073 1.377 . S
C1073 H1057 0.930 . S
C1073 C1072 1.377 . S
C1073 C1074 1.379 . S
C1074 H1058 0.931 . S
C1074 C1068 1.383 . S
C1074 C1073 1.379 . S
H1075 C1069 0.959 . S
H1076 C1069 0.961 . S
H1077 C1069 0.960 1_455 S
H1078 C1070 0.930 . S
H1079 C1071 0.929 . S
H1080 C1088 0.929 . S
H1081 C1090 0.930 . S
H1082 C1092 0.930 . S
H1083 C1095 0.929 . S
H1084 C1098 0.930 . S
H1085 C1100 0.950 1_554 S
H1086 C1100 0.960 . S
H1087 C1100 0.960 . S
C1088 H1080 0.929 . S
C1088 C1089 1.377 . S
C1088 C1090 1.384 . S
C1089 C1088 1.377 . S
C1089 C1095 1.390 . S
C1090 H1081 0.930 . S
C1090 C1088 1.384 . S
C1090 C1091 1.372 . S
C1091 C1090 1.372 . S
C1091 C1092 1.400 . S
C1091 C1096 1.490 . S
C1092 H1082 0.930 . S
C1092 C1091 1.400 . S
C1092 C1095 1.386 . S
H1093 C1109 0.930 . S
H1094 C1110 0.931 . S
C1095 H1083 0.929 . S
C1095 C1089 1.390 . S
C1095 C1092 1.386 . S
C1096 C1091 1.490 . S
C1096 C1098 1.395 . S
C1096 C1099 1.403 . S
H1097 C1103 0.930 . S
C1098 H1084 0.930 . S
C1098 C1096 1.395 . S
C1098 C1101 1.403 1_556 S
C1099 C1096 1.403 . S
C1099 C1100 1.524 . S
C1099 C1103 1.400 1_556 S
C1100 H1085 0.950 1_556 S
C1100 H1086 0.960 . S
C1100 H1087 0.960 . S
C1100 C1099 1.524 . S
C1101 C1098 1.403 1_554 S
C1101 C1102 1.392 . S
C1101 C1105 1.495 . S
C1102 C1101 1.392 . S
C1102 C1103 1.385 . S
C1102 C1104 1.478 . S
C1103 H1097 0.930 . S
C1103 C1099 1.400 1_554 S
C1103 C1102 1.385 . S
C1104 C1102 1.478 . S
C1104 C1106 1.381 . S
C1104 C1110 1.383 . S
C1105 C1101 1.495 . S
C1105 H1111 0.959 . S
C1105 H1112 0.961 . S
C1105 H1113 0.960 . S
C1106 C1104 1.381 . S
C1106 C1107 1.394 . S
C1106 H1114 0.930 . S
C1107 C1106 1.394 . S
C1107 C1108 1.383 . S
C1107 H1115 0.929 . S
C1108 C1107 1.383 . S
C1108 C1109 1.377 . S
C1109 H1093 0.930 . S
C1109 C1108 1.377 . S
C1109 C1110 1.379 . S
C1110 H1094 0.931 . S
C1110 C1104 1.383 . S
C1110 C1109 1.379 . S
H1111 C1105 0.959 . S
H1112 C1105 0.961 . S
H1113 C1105 0.960 . S
H1114 C1106 0.930 . S
H1115 C1107 0.929 . S
H1116 C1124 0.929 1_565 S
H1117 C1126 0.930 . S
H1118 C1128 0.930 . S
H1119 C1131 0.929 . S
H1120 C1134 0.930 . S
H1121 C1136 0.960 . S
H1122 C1136 0.960 . S
H1123 C1136 0.960 . S
C1124 H1116 0.929 1_545 S
C1124 C1125 1.377 . S
C1124 C1126 1.384 1_545 S
C1125 C1124 1.377 . S
C1125 C1131 1.390 . S
C1126 H1117 0.930 . S
C1126 C1124 1.384 1_565 S
C1126 C1127 1.372 . S
C1127 C1126 1.372 . S
C1127 C1128 1.400 1_565 S
C1127 C1132 1.490 . S
C1128 H1118 0.930 . S
C1128 C1127 1.400 1_545 S
C1128 C1131 1.386 . S
H1129 C1145 0.930 . S
H1130 C1146 0.931 . S
C1131 H1119 0.929 . S
C1131 C1125 1.390 . S
C1131 C1128 1.386 . S
C1132 C1127 1.490 . S
C1132 C1134 1.395 . S
C1132 C1135 1.403 . S
H1133 C1139 0.930 . S
C1134 H1120 0.930 . S
C1134 C1132 1.395 . S
C1134 C1137 1.403 . S
C1135 C1132 1.403 . S
C1135 C1136 1.524 . S
C1135 C1139 1.400 . S
C1136 H1121 0.960 . S
C1136 H1122 0.960 . S
C1136 H1123 0.960 . S
C1136 C1135 1.524 . S
C1137 C1134 1.403 . S
C1137 C1138 1.392 . S
C1137 C1141 1.495 . S
C1138 C1137 1.392 . S
C1138 C1139 1.385 . S
C1138 C1140 1.478 . S
C1139 H1133 0.930 . S
C1139 C1135 1.400 . S
C1139 C1138 1.385 . S
C1140 C1138 1.478 . S
C1140 C1142 1.381 . S
C1140 C1146 1.383 . S
C1141 C1137 1.495 . S
C1141 H1147 0.959 . S
C1141 H1148 0.961 . S
C1141 H1149 0.960 . S
C1142 C1140 1.381 . S
C1142 C1143 1.394 . S
C1142 H1150 0.930 . S
C1143 C1142 1.394 . S
C1143 C1144 1.383 . S
C1143 H1151 0.929 . S
C1144 C1143 1.383 . S
C1144 C1145 1.377 . S
C1145 H1129 0.930 . S
C1145 C1144 1.377 . S
C1145 C1146 1.379 . S
C1146 H1130 0.931 . S
C1146 C1140 1.383 . S
C1146 C1145 1.379 . S
H1147 C1141 0.959 . S
H1148 C1141 0.961 . S
H1149 C1141 0.960 . S
H1150 C1142 0.930 . S
H1151 C1143 0.929 . S
H1152 C1160 0.929 . S
H1153 C1162 0.930 . S
H1154 C1164 0.930 . S
H1155 C1167 0.929 . S
H1156 C1170 0.930 . S
H1157 C1172 0.960 . S
H1158 C1172 0.960 . S
H1159 C1172 0.960 . S
C1160 H1152 0.929 . S
C1160 C1161 1.377 . S
C1160 C1162 1.384 . S
C1161 C1160 1.377 . S
C1161 C1167 1.390 . S
C1162 H1153 0.930 . S
C1162 C1160 1.384 . S
C1162 C1163 1.372 . S
C1163 C1162 1.372 . S
C1163 C1164 1.400 . S
C1163 C1168 1.490 . S
C1164 H1154 0.930 . S
C1164 C1163 1.400 . S
C1164 C1167 1.386 . S
H1165 C1181 0.930 . S
H1166 C1182 0.931 . S
C1167 H1155 0.929 . S
C1167 C1161 1.390 . S
C1167 C1164 1.386 . S
C1168 C1163 1.490 . S
C1168 C1170 1.395 . S
C1168 C1171 1.403 . S
H1169 C1175 0.930 . S
C1170 H1156 0.930 . S
C1170 C1168 1.395 . S
C1170 C1173 1.403 . S
C1171 C1168 1.403 . S
C1171 C1172 1.524 . S
C1171 C1175 1.400 . S
C1172 H1157 0.960 . S
C1172 H1158 0.960 . S
C1172 H1159 0.960 . S
C1172 C1171 1.524 . S
C1173 C1170 1.403 . S
C1173 C1174 1.392 . S
C1173 C1177 1.495 . S
C1174 C1173 1.392 . S
C1174 C1175 1.385 . S
C1174 C1176 1.478 . S
C1175 H1169 0.930 . S
C1175 C1171 1.400 . S
C1175 C1174 1.385 . S
C1176 C1174 1.478 . S
C1176 C1178 1.381 1_455 S
C1176 C1182 1.383 . S
C1177 C1173 1.495 . S
C1177 H1183 0.959 . S
C1177 H1184 0.961 . S
C1177 H1185 0.960 1_455 S
C1178 C1176 1.381 1_655 S
C1178 C1179 1.394 . S
C1178 H1186 0.930 . S
C1179 C1178 1.394 . S
C1179 C1180 1.383 . S
C1179 H1187 0.929 . S
C1180 C1179 1.383 . S
C1180 C1181 1.377 1_655 S
C1181 H1165 0.930 . S
C1181 C1180 1.377 1_455 S
C1181 C1182 1.379 . S
C1182 H1166 0.931 . S
C1182 C1176 1.383 . S
C1182 C1181 1.379 . S
H1183 C1177 0.959 . S
H1184 C1177 0.961 . S
H1185 C1177 0.960 1_655 S
H1186 C1178 0.930 . S
H1187 C1179 0.929 . S
H1188 C1196 0.929 . S
H1189 C1198 0.930 . S
H1190 C1200 0.930 . S
H1191 C1203 0.929 . S
H1192 C1206 0.930 . S
H1193 C1208 0.960 . S
H1194 C1208 0.960 . S
H1195 C1208 0.960 . S
C1196 H1188 0.929 . S
C1196 C1197 1.377 . S
C1196 C1198 1.384 . S
C1197 C1196 1.377 . S
C1197 C1203 1.390 . S
C1198 H1189 0.930 . S
C1198 C1196 1.384 . S
C1198 C1199 1.372 . S
C1199 C1198 1.372 . S
C1199 C1200 1.400 . S
C1199 C1204 1.490 . S
C1200 H1190 0.930 . S
C1200 C1199 1.400 . S
C1200 C1203 1.386 . S
H1201 C1217 0.930 . S
H1202 C1218 0.931 . S
C1203 H1191 0.929 . S
C1203 C1197 1.390 . S
C1203 C1200 1.386 . S
C1204 C1199 1.490 . S
C1204 C1206 1.395 . S
C1204 C1207 1.403 . S
H1205 C1211 0.930 . S
C1206 H1192 0.930 . S
C1206 C1204 1.395 . S
C1206 C1209 1.403 . S
C1207 C1204 1.403 . S
C1207 C1208 1.524 . S
C1207 C1211 1.400 . S
C1208 H1193 0.960 . S
C1208 H1194 0.960 . S
C1208 H1195 0.960 . S
C1208 C1207 1.524 . S
C1209 C1206 1.403 . S
C1209 C1210 1.392 . S
C1209 C1213 1.495 . S
C1210 C1209 1.392 . S
C1210 C1211 1.385 . S
C1210 C1212 1.478 . S
C1211 H1205 0.930 . S
C1211 C1207 1.400 . S
C1211 C1210 1.385 . S
C1212 C1210 1.478 . S
C1212 C1214 1.381 . S
C1212 C1218 1.383 . S
C1213 C1209 1.495 . S
C1213 H1219 0.959 . S
C1213 H1220 0.961 . S
C1213 H1221 0.960 . S
C1214 C1212 1.381 . S
C1214 C1215 1.394 . S
C1214 H1222 0.930 . S
C1215 C1214 1.394 . S
C1215 C1216 1.383 . S
C1215 H1223 0.929 . S
C1216 C1215 1.383 . S
C1216 C1217 1.377 . S
C1217 H1201 0.930 . S
C1217 C1216 1.377 . S
C1217 C1218 1.379 . S
C1218 H1202 0.931 . S
C1218 C1212 1.383 . S
C1218 C1217 1.379 . S
H1219 C1213 0.959 . S
H1220 C1213 0.961 . S
H1221 C1213 0.960 . S
H1222 C1214 0.930 . S
H1223 C1215 0.929 . S
H1224 C1232 0.929 . S
H1225 C1234 0.930 . S
H1226 C1236 0.930 . S
H1227 C1239 0.929 . S
H1228 C1242 0.930 . S
H1229 C1244 0.960 . S
H1230 C1244 0.960 . S
H1231 C1244 0.960 . S
C1232 H1224 0.929 . S
C1232 C1233 1.377 . S
C1232 C1234 1.384 . S
C1233 C1232 1.377 . S
C1233 C1239 1.390 . S
C1234 H1225 0.930 . S
C1234 C1232 1.384 . S
C1234 C1235 1.372 . S
C1235 C1234 1.372 . S
C1235 C1236 1.400 . S
C1235 C1240 1.490 . S
C1236 H1226 0.930 . S
C1236 C1235 1.400 . S
C1236 C1239 1.386 . S
H1237 C1253 0.930 . S
H1238 C1254 0.931 . S
C1239 H1227 0.929 . S
C1239 C1233 1.390 . S
C1239 C1236 1.386 . S
C1240 C1235 1.490 . S
C1240 C1242 1.395 . S
C1240 C1243 1.403 . S
H1241 C1247 0.930 . S
C1242 H1228 0.930 . S
C1242 C1240 1.395 . S
C1242 C1245 1.403 . S
C1243 C1240 1.403 . S
C1243 C1244 1.524 . S
C1243 C1247 1.400 . S
C1244 H1229 0.960 . S
C1244 H1230 0.960 . S
C1244 H1231 0.960 . S
C1244 C1243 1.524 . S
C1245 C1242 1.403 . S
C1245 C1246 1.392 . S
C1245 C1249 1.495 . S
C1246 C1245 1.392 . S
C1246 C1247 1.385 . S
C1246 C1248 1.478 . S
C1247 H1241 0.930 . S
C1247 C1243 1.400 . S
C1247 C1246 1.385 . S
C1248 C1246 1.478 . S
C1248 C1250 1.381 1_655 S
C1248 C1254 1.383 . S
C1249 C1245 1.495 . S
C1249 H1255 0.959 . S
C1249 H1256 0.961 . S
C1249 H1257 0.960 . S
C1250 C1248 1.381 1_455 S
C1250 C1251 1.394 . S
C1250 H1258 0.930 . S
C1251 C1250 1.394 . S
C1251 C1252 1.383 . S
C1251 H1259 0.929 . S
C1252 C1251 1.383 . S
C1252 C1253 1.377 1_455 S
C1253 H1237 0.930 . S
C1253 C1252 1.377 1_655 S
C1253 C1254 1.379 . S
C1254 H1238 0.931 . S
C1254 C1248 1.383 . S
C1254 C1253 1.379 . S
H1255 C1249 0.959 . S
H1256 C1249 0.961 . S
H1257 C1249 0.960 . S
H1258 C1250 0.930 . S
H1259 C1251 0.929 . S
H1260 C1268 0.929 . S
H1261 C1270 0.930 . S
H1262 C1272 0.930 . S
H1263 C1275 0.929 . S
H1264 C1278 0.930 . S
H1265 C1280 0.960 . S
H1266 C1280 0.960 . S
H1267 C1280 0.960 . S
C1268 H1260 0.929 . S
C1268 C1269 1.377 . S
C1268 C1270 1.384 . S
C1269 C1268 1.377 . S
C1269 C1275 1.390 . S
C1270 H1261 0.930 . S
C1270 C1268 1.384 . S
C1270 C1271 1.372 . S
C1271 C1270 1.372 . S
C1271 C1272 1.400 . S
C1271 C1276 1.490 . S
C1272 H1262 0.930 . S
C1272 C1271 1.400 . S
C1272 C1275 1.386 . S
H1273 C1289 0.930 . S
H1274 C1290 0.931 . S
C1275 H1263 0.929 . S
C1275 C1269 1.390 . S
C1275 C1272 1.386 . S
C1276 C1271 1.490 . S
C1276 C1278 1.395 . S
C1276 C1279 1.403 . S
H1277 C1283 0.930 . S
C1278 H1264 0.930 . S
C1278 C1276 1.395 . S
C1278 C1281 1.403 . S
C1279 C1276 1.403 . S
C1279 C1280 1.524 . S
C1279 C1283 1.400 . S
C1280 H1265 0.960 . S
C1280 H1266 0.960 . S
C1280 H1267 0.960 . S
C1280 C1279 1.524 . S
C1281 C1278 1.403 . S
C1281 C1282 1.392 . S
C1281 C1285 1.495 . S
C1282 C1281 1.392 . S
C1282 C1283 1.385 . S
C1282 C1284 1.478 . S
C1283 H1277 0.930 . S
C1283 C1279 1.400 . S
C1283 C1282 1.385 . S
C1284 C1282 1.478 . S
C1284 C1286 1.381 . S
C1284 C1290 1.383 . S
C1285 C1281 1.495 . S
C1285 H1291 0.959 . S
C1285 H1292 0.961 . S
C1285 H1293 0.960 . S
C1286 C1284 1.381 . S
C1286 C1287 1.394 . S
C1286 H1294 0.930 . S
C1287 C1286 1.394 . S
C1287 C1288 1.383 . S
C1287 H1295 0.929 . S
C1288 C1287 1.383 . S
C1288 C1289 1.377 . S
C1289 H1273 0.930 . S
C1289 C1288 1.377 . S
C1289 C1290 1.379 . S
C1290 H1274 0.931 . S
C1290 C1284 1.383 . S
C1290 C1289 1.379 . S
H1291 C1285 0.959 . S
H1292 C1285 0.961 . S
H1293 C1285 0.960 . S
H1294 C1286 0.930 . S
H1295 C1287 0.929 . S
H1296 C1304 0.929 . S
H1297 C1306 0.930 . S
H1298 C1308 0.930 . S
H1299 C1311 0.929 . S
H1300 C1314 0.930 . S
H1301 C1316 0.960 1_565 S
H1302 C1316 0.960 . S
H1303 C1316 0.960 . S
C1304 H1296 0.929 . S
C1304 C1305 1.377 . S
C1304 C1306 1.384 . S
C1305 C1304 1.377 . S
C1305 C1311 1.390 . S
C1306 H1297 0.930 . S
C1306 C1304 1.384 . S
C1306 C1307 1.372 . S
C1307 C1306 1.372 . S
C1307 C1308 1.400 . S
C1307 C1312 1.490 . S
C1308 H1298 0.930 . S
C1308 C1307 1.400 . S
C1308 C1311 1.386 . S
H1309 C1325 0.930 . S
H1310 C1326 0.931 . S
C1311 H1299 0.929 . S
C1311 C1305 1.390 . S
C1311 C1308 1.386 . S
C1312 C1307 1.490 . S
C1312 C1314 1.395 . S
C1312 C1315 1.403 . S
H1313 C1319 0.930 1_565 S
C1314 H1300 0.930 . S
C1314 C1312 1.395 . S
C1314 C1317 1.403 . S
C1315 C1312 1.403 . S
C1315 C1316 1.524 . S
C1315 C1319 1.400 . S
C1316 H1301 0.960 1_545 S
C1316 H1302 0.960 . S
C1316 H1303 0.960 . S
C1316 C1315 1.524 . S
C1317 C1314 1.403 . S
C1317 C1318 1.392 . S
C1317 C1321 1.495 . S
C1318 C1317 1.392 . S
C1318 C1319 1.385 . S
C1318 C1320 1.478 . S
C1319 H1313 0.930 1_545 S
C1319 C1315 1.400 . S
C1319 C1318 1.385 . S
C1320 C1318 1.478 . S
C1320 C1322 1.381 . S
C1320 C1326 1.383 1_545 S
C1321 C1317 1.495 . S
C1321 H1327 0.959 . S
C1321 H1328 0.961 . S
C1321 H1329 0.960 . S
C1322 C1320 1.381 . S
C1322 C1323 1.392 1_545 S
C1322 H1330 0.930 . S
C1323 C1322 1.392 1_565 S
C1323 C1324 1.412 . S
C1323 H1331 0.906 1_565 S
C1324 C1323 1.412 . S
C1324 C1325 1.377 . S
C1325 H1309 0.930 . S
C1325 C1324 1.377 . S
C1325 C1326 1.379 . S
C1326 H1310 0.931 . S
C1326 C1320 1.383 1_565 S
C1326 C1325 1.379 . S
H1327 C1321 0.959 . S
H1328 C1321 0.961 . S
H1329 C1321 0.960 . S
H1330 C1322 0.930 . S
H1331 C1323 0.906 1_545 S
H1332 C1340 0.929 . S
H1333 C1342 0.930 . S
H1334 C1344 0.930 . S
H1335 C1347 0.929 . S
H1336 C1350 0.930 . S
H1337 C1352 0.960 . S
H1338 C1352 0.960 . S
H1339 C1352 0.960 . S
C1340 H1332 0.929 . S
C1340 C1341 1.377 . S
C1340 C1342 1.384 . S
C1341 C1340 1.377 . S
C1341 C1347 1.390 . S
C1342 H1333 0.930 . S
C1342 C1340 1.384 . S
C1342 C1343 1.372 1_565 S
C1343 C1342 1.372 1_545 S
C1343 C1344 1.400 . S
C1343 C1348 1.490 . S
C1344 H1334 0.930 . S
C1344 C1343 1.400 . S
C1344 C1347 1.386 1_545 S
H1345 C1361 0.930 . S
H1346 C1362 0.931 . S
C1347 H1335 0.929 . S
C1347 C1341 1.390 . S
C1347 C1344 1.386 1_565 S
C1348 C1343 1.490 . S
C1348 C1350 1.395 . S
C1348 C1351 1.403 . S
H1349 C1355 0.930 . S
C1350 H1336 0.930 . S
C1350 C1348 1.395 . S
C1350 C1353 1.403 . S
C1351 C1348 1.403 . S
C1351 C1352 1.524 1_545 S
C1351 C1355 1.400 . S
C1352 H1337 0.960 . S
C1352 H1338 0.960 . S
C1352 H1339 0.960 . S
C1352 C1351 1.524 1_565 S
C1353 C1350 1.403 . S
C1353 C1354 1.392 . S
C1353 C1357 1.495 . S
C1354 C1353 1.392 . S
C1354 C1355 1.385 . S
C1354 C1356 1.478 . S
C1355 H1349 0.930 . S
C1355 C1351 1.400 . S
C1355 C1354 1.385 . S
C1356 C1354 1.478 . S
C1356 C1358 1.381 . S
C1356 C1362 1.383 . S
C1357 C1353 1.495 . S
C1357 H1363 0.959 . S
C1357 H1364 0.961 . S
C1357 H1365 0.960 . S
C1358 C1356 1.381 . S
C1358 C1359 1.394 . S
C1358 H1366 0.930 . S
C1359 C1358 1.394 . S
C1359 C1360 1.383 . S
C1359 H1367 0.929 . S
C1360 C1359 1.383 . S
C1360 C1361 1.377 . S
C1361 H1345 0.930 . S
C1361 C1360 1.377 . S
C1361 C1362 1.379 . S
C1362 H1346 0.931 . S
C1362 C1356 1.383 . S
C1362 C1361 1.379 . S
H1363 C1357 0.959 . S
H1364 C1357 0.961 . S
H1365 C1357 0.960 . S
H1366 C1358 0.930 . S
H1367 C1359 0.929 . S
H1368 C1376 0.929 . S
H1369 C1378 0.930 . S
H1370 C1380 0.930 . S
H1371 C1383 0.929 . S
H1372 C1386 0.930 . S
H1373 C1388 0.960 1_455 S
H1374 C1388 0.960 . S
H1375 C1388 0.960 . S
C1376 H1368 0.929 . S
C1376 C1377 1.377 . S
C1376 C1378 1.384 . S
C1377 C1376 1.377 . S
C1377 C1383 1.390 . S
C1378 H1369 0.930 . S
C1378 C1376 1.384 . S
C1378 C1379 1.372 . S
C1379 C1378 1.372 . S
C1379 C1380 1.400 . S
C1379 C1384 1.490 . S
C1380 H1370 0.930 . S
C1380 C1379 1.400 . S
C1380 C1383 1.386 . S
H1381 C1397 0.930 . S
H1382 C1398 0.931 . S
C1383 H1371 0.929 . S
C1383 C1377 1.390 . S
C1383 C1380 1.386 . S
C1384 C1379 1.490 . S
C1384 C1386 1.395 . S
C1384 C1387 1.403 . S
H1385 C1391 0.930 1_455 S
C1386 H1372 0.930 . S
C1386 C1384 1.395 . S
C1386 C1389 1.403 . S
C1387 C1384 1.403 . S
C1387 C1388 1.524 . S
C1387 C1391 1.400 . S
C1388 H1373 0.960 1_655 S
C1388 H1374 0.960 . S
C1388 H1375 0.960 . S
C1388 C1387 1.524 . S
C1389 C1386 1.403 . S
C1389 C1390 1.392 . S
C1389 C1393 1.495 . S
C1390 C1389 1.392 . S
C1390 C1391 1.385 . S
C1390 C1392 1.478 . S
C1391 H1385 0.930 1_655 S
C1391 C1387 1.400 . S
C1391 C1390 1.385 . S
C1392 C1390 1.478 . S
C1392 C1394 1.381 . S
C1392 C1398 1.383 1_655 S
C1393 C1389 1.495 . S
C1393 H1399 0.959 . S
C1393 H1400 0.961 . S
C1393 H1401 0.960 . S
C1394 C1392 1.381 . S
C1394 C1395 1.392 1_655 S
C1394 H1402 0.930 . S
C1395 C1394 1.392 1_455 S
C1395 C1396 1.406 . S
C1395 H1403 0.910 1_455 S
C1396 C1395 1.406 . S
C1396 C1397 1.377 . S
C1397 H1381 0.930 . S
C1397 C1396 1.377 . S
C1397 C1398 1.379 . S
C1398 H1382 0.931 . S
C1398 C1392 1.383 1_455 S
C1398 C1397 1.379 . S
H1399 C1393 0.959 . S
H1400 C1393 0.961 . S
H1401 C1393 0.960 . S
H1402 C1394 0.930 . S
H1403 C1395 0.910 1_655 S
H1404 C1412 0.929 . S
H1405 C1414 0.930 . S
H1406 C1416 0.930 . S
H1407 C1419 0.929 . S
H1408 C1422 0.930 . S
H1409 C1424 0.960 . S
H1410 C1424 0.960 . S
H1411 C1424 0.960 . S
C1412 H1404 0.929 . S
C1412 C1413 1.377 . S
C1412 C1414 1.384 . S
C1413 C1412 1.377 . S
C1413 C1419 1.390 . S
C1414 H1405 0.930 . S
C1414 C1412 1.384 . S
C1414 C1415 1.372 . S
C1415 C1414 1.372 . S
C1415 C1416 1.400 . S
C1415 C1420 1.490 . S
C1416 H1406 0.930 . S
C1416 C1415 1.400 . S
C1416 C1419 1.386 . S
H1417 C1433 0.930 . S
H1418 C1434 0.931 . S
C1419 H1407 0.929 . S
C1419 C1413 1.390 . S
C1419 C1416 1.386 . S
C1420 C1415 1.490 . S
C1420 C1422 1.395 . S
C1420 C1423 1.403 . S
H1421 C1427 0.930 . S
C1422 H1408 0.930 . S
C1422 C1420 1.395 . S
C1422 C1425 1.403 . S
C1423 C1420 1.403 . S
C1423 C1424 1.524 . S
C1423 C1427 1.400 . S
C1424 H1409 0.960 . S
C1424 H1410 0.960 . S
C1424 H1411 0.960 . S
C1424 C1423 1.524 . S
C1425 C1422 1.403 . S
C1425 C1426 1.392 . S
C1425 C1429 1.495 . S
C1426 C1425 1.392 . S
C1426 C1427 1.385 . S
C1426 C1428 1.478 . S
C1427 H1421 0.930 . S
C1427 C1423 1.400 . S
C1427 C1426 1.385 . S
C1428 C1426 1.478 . S
C1428 C1430 1.381 . S
C1428 C1434 1.383 . S
C1429 C1425 1.495 . S
C1429 H1435 0.959 . S
C1429 H1436 0.961 . S
C1429 H1437 0.960 . S
C1430 C1428 1.381 . S
C1430 C1431 1.394 . S
C1430 H1438 0.930 . S
C1431 C1430 1.394 . S
C1431 C1432 1.383 . S
C1431 H1439 0.929 . S
C1432 C1431 1.383 . S
C1432 C1433 1.377 . S
C1433 H1417 0.930 . S
C1433 C1432 1.377 . S
C1433 C1434 1.379 . S
C1434 H1418 0.931 . S
C1434 C1428 1.383 . S
C1434 C1433 1.379 . S
H1435 C1429 0.959 . S
H1436 C1429 0.961 . S
H1437 C1429 0.960 . S
H1438 C1430 0.930 . S
H1439 C1431 0.929 . S
H1440 C1448 0.929 . S
H1441 C1450 0.930 . S
H1442 C1452 0.930 . S
H1443 C1455 0.929 . S
H1444 C1458 0.930 1_655 S
H1445 C1460 0.960 . S
H1446 C1460 0.960 . S
H1447 C1460 0.960 . S
C1448 H1440 0.929 . S
C1448 C1449 1.377 . S
C1448 C1450 1.384 . S
C1449 C1448 1.377 . S
C1449 C1455 1.390 . S
C1450 H1441 0.930 . S
C1450 C1448 1.384 . S
C1450 C1451 1.372 1_655 S
C1451 C1450 1.372 1_455 S
C1451 C1452 1.400 . S
C1451 C1456 1.490 . S
C1452 H1442 0.930 . S
C1452 C1451 1.400 . S
C1452 C1455 1.386 1_455 S
H1453 C1469 0.930 . S
H1454 C1470 0.931 . S
C1455 H1443 0.929 . S
C1455 C1449 1.390 . S
C1455 C1452 1.386 1_655 S
C1456 C1451 1.490 . S
C1456 C1458 1.395 . S
C1456 C1459 1.403 . S
H1457 C1463 0.930 . S
C1458 H1444 0.930 1_455 S
C1458 C1456 1.395 . S
C1458 C1461 1.403 . S
C1459 C1456 1.403 . S
C1459 C1460 1.524 . S
C1459 C1463 1.400 . S
C1460 H1445 0.960 . S
C1460 H1446 0.960 . S
C1460 H1447 0.960 . S
C1460 C1459 1.524 . S
C1461 C1458 1.403 . S
C1461 C1462 1.392 . S
C1461 C1465 1.495 1_455 S
C1462 C1461 1.392 . S
C1462 C1463 1.385 . S
C1462 C1464 1.478 . S
C1463 H1457 0.930 . S
C1463 C1459 1.400 . S
C1463 C1462 1.385 . S
C1464 C1462 1.478 . S
C1464 C1466 1.381 . S
C1464 C1470 1.383 . S
C1465 C1461 1.495 1_655 S
C1465 H1471 0.959 . S
C1465 H1472 0.961 1_655 S
C1465 H1473 0.960 1_655 S
C1466 C1464 1.381 . S
C1466 C1467 1.394 . S
C1466 H1474 0.930 . S
C1467 C1466 1.394 . S
C1467 C1468 1.383 . S
C1467 H1475 0.929 . S
C1468 C1467 1.383 . S
C1468 C1469 1.377 . S
C1469 H1453 0.930 . S
C1469 C1468 1.377 . S
C1469 C1470 1.379 . S
C1470 H1454 0.931 . S
C1470 C1464 1.383 . S
C1470 C1469 1.379 . S
H1471 C1465 0.959 . S
H1472 C1465 0.961 1_455 S
H1473 C1465 0.960 1_455 S
H1474 C1466 0.930 . S
H1475 C1467 0.929 . S
H1476 C1484 0.929 . S
H1477 C1486 0.930 . S
H1478 C1488 0.930 . S
H1479 C1491 0.929 . S
H1480 C1494 0.930 . S
H1481 C1496 0.960 . S
H1482 C1496 0.960 . S
H1483 C1496 0.960 . S
C1484 H1476 0.929 . S
C1484 C1485 1.377 . S
C1484 C1486 1.384 . S
C1485 C1484 1.377 . S
C1485 C1491 1.390 . S
C1486 H1477 0.930 . S
C1486 C1484 1.384 . S
C1486 C1487 1.372 . S
C1487 C1486 1.372 . S
C1487 C1488 1.400 . S
C1487 C1492 1.490 . S
C1488 H1478 0.930 . S
C1488 C1487 1.400 . S
C1488 C1491 1.386 . S
H1489 C1505 0.930 . S
H1490 C1506 0.931 . S
C1491 H1479 0.929 . S
C1491 C1485 1.390 . S
C1491 C1488 1.386 . S
C1492 C1487 1.490 . S
C1492 C1494 1.395 . S
C1492 C1495 1.403 . S
H1493 C1499 0.930 . S
C1494 H1480 0.930 . S
C1494 C1492 1.395 . S
C1494 C1497 1.403 . S
C1495 C1492 1.403 . S
C1495 C1496 1.524 . S
C1495 C1499 1.400 . S
C1496 H1481 0.960 . S
C1496 H1482 0.960 . S
C1496 H1483 0.960 . S
C1496 C1495 1.524 . S
C1497 C1494 1.403 . S
C1497 C1498 1.392 . S
C1497 C1501 1.495 . S
C1498 C1497 1.392 . S
C1498 C1499 1.385 . S
C1498 C1500 1.478 . S
C1499 H1493 0.930 . S
C1499 C1495 1.400 . S
C1499 C1498 1.385 . S
C1500 C1498 1.478 . S
C1500 C1502 1.381 . S
C1500 C1506 1.383 . S
C1501 C1497 1.495 . S
C1501 H1507 0.959 . S
C1501 H1508 0.961 . S
C1501 H1509 0.960 . S
C1502 C1500 1.381 . S
C1502 C1503 1.394 . S
C1502 H1510 0.930 . S
C1503 C1502 1.394 . S
C1503 C1504 1.383 . S
C1503 H1511 0.929 . S
C1504 C1503 1.383 . S
C1504 C1505 1.377 . S
C1505 H1489 0.930 . S
C1505 C1504 1.377 . S
C1505 C1506 1.379 . S
C1506 H1490 0.931 . S
C1506 C1500 1.383 . S
C1506 C1505 1.379 . S
H1507 C1501 0.959 . S
H1508 C1501 0.961 . S
H1509 C1501 0.960 . S
H1510 C1502 0.930 . S
H1511 C1503 0.929 . S
H1512 C1520 0.929 . S
H1513 C1522 0.930 . S
H1514 C1524 0.930 . S
H1515 C1527 0.929 . S
H1516 C1530 0.930 1_545 S
H1517 C1532 0.960 . S
H1518 C1532 0.960 . S
H1519 C1532 0.960 . S
C1520 H1512 0.929 . S
C1520 C1521 1.377 . S
C1520 C1522 1.384 . S
C1521 C1520 1.377 . S
C1521 C1527 1.390 1_545 S
C1522 H1513 0.930 . S
C1522 C1520 1.384 . S
C1522 C1523 1.372 1_545 S
C1523 C1522 1.372 1_565 S
C1523 C1524 1.400 . S
C1523 C1528 1.490 . S
C1524 H1514 0.930 . S
C1524 C1523 1.400 . S
C1524 C1527 1.386 . S
H1525 C1541 0.930 . S
H1526 C1542 0.931 . S
C1527 H1515 0.929 . S
C1527 C1521 1.390 1_565 S
C1527 C1524 1.386 . S
C1528 C1523 1.490 . S
C1528 C1530 1.395 . S
C1528 C1531 1.403 . S
H1529 C1535 0.930 . S
C1530 H1516 0.930 1_565 S
C1530 C1528 1.395 . S
C1530 C1533 1.403 . S
C1531 C1528 1.403 . S
C1531 C1532 1.524 . S
C1531 C1535 1.400 . S
C1532 H1517 0.960 . S
C1532 H1518 0.960 . S
C1532 H1519 0.960 . S
C1532 C1531 1.524 . S
C1533 C1530 1.403 . S
C1533 C1534 1.392 . S
C1533 C1537 1.495 . S
C1534 C1533 1.392 . S
C1534 C1535 1.385 . S
C1534 C1536 1.478 . S
C1535 H1529 0.930 . S
C1535 C1531 1.400 . S
C1535 C1534 1.385 . S
C1536 C1534 1.478 . S
C1536 C1538 1.381 . S
C1536 C1542 1.383 . S
C1537 C1533 1.495 . S
C1537 H1543 0.959 1_565 S
C1537 H1544 0.961 . S
C1537 H1545 0.960 . S
C1538 C1536 1.381 . S
C1538 C1539 1.394 . S
C1538 H1546 0.930 . S
C1539 C1538 1.394 . S
C1539 C1540 1.383 . S
C1539 H1547 0.929 . S
C1540 C1539 1.383 . S
C1540 C1541 1.377 . S
C1541 H1525 0.930 . S
C1541 C1540 1.377 . S
C1541 C1542 1.379 . S
C1542 H1526 0.931 . S
C1542 C1536 1.383 . S
C1542 C1541 1.379 . S
H1543 C1537 0.959 1_545 S
H1544 C1537 0.961 . S
H1545 C1537 0.960 . S
H1546 C1538 0.930 . S
H1547 C1539 0.929 . S
H1548 C1556 0.929 . S
H1549 C1558 0.930 . S
H1550 C1560 0.930 . S
H1551 C1563 0.929 . S
H1552 C1566 0.930 . S
H1553 C1568 0.960 . S
H1554 C1568 0.960 . S
H1555 C1568 0.960 . S
C1556 H1548 0.929 . S
C1556 C1557 1.377 . S
C1556 C1558 1.384 . S
C1557 C1556 1.377 . S
C1557 C1563 1.390 . S
C1558 H1549 0.930 . S
C1558 C1556 1.384 . S
C1558 C1559 1.372 . S
C1559 C1558 1.372 . S
C1559 C1560 1.400 . S
C1559 C1564 1.490 . S
C1560 H1550 0.930 . S
C1560 C1559 1.400 . S
C1560 C1563 1.386 . S
H1561 C1577 0.930 . S
H1562 C1578 0.931 . S
C1563 H1551 0.929 . S
C1563 C1557 1.390 . S
C1563 C1560 1.386 . S
C1564 C1559 1.490 . S
C1564 C1566 1.395 . S
C1564 C1567 1.403 . S
H1565 C1571 0.930 . S
C1566 H1552 0.930 . S
C1566 C1564 1.395 . S
C1566 C1569 1.403 . S
C1567 C1564 1.403 . S
C1567 C1568 1.524 . S
C1567 C1571 1.400 . S
C1568 H1553 0.960 . S
C1568 H1554 0.960 . S
C1568 H1555 0.960 . S
C1568 C1567 1.524 . S
C1569 C1566 1.403 . S
C1569 C1570 1.392 . S
C1569 C1573 1.495 . S
C1570 C1569 1.392 . S
C1570 C1571 1.385 . S
C1570 C1572 1.478 . S
C1571 H1565 0.930 . S
C1571 C1567 1.400 . S
C1571 C1570 1.385 . S
C1572 C1570 1.478 . S
C1572 C1574 1.381 . S
C1572 C1578 1.383 . S
C1573 C1569 1.495 . S
C1573 H1579 0.959 . S
C1573 H1580 0.961 . S
C1573 H1581 0.960 . S
C1574 C1572 1.381 . S
C1574 C1575 1.394 . S
C1574 H1582 0.930 . S
C1575 C1574 1.394 . S
C1575 C1576 1.383 . S
C1575 H1583 0.929 . S
C1576 C1575 1.383 . S
C1576 C1577 1.377 . S
C1577 H1561 0.930 . S
C1577 C1576 1.377 . S
C1577 C1578 1.379 . S
C1578 H1562 0.931 . S
C1578 C1572 1.383 . S
C1578 C1577 1.379 . S
H1579 C1573 0.959 . S
H1580 C1573 0.961 . S
H1581 C1573 0.960 . S
H1582 C1574 0.930 . S
H1583 C1575 0.929 . S
H1584 C1592 0.929 . S
H1585 C1594 0.930 . S
H1586 C1596 0.930 . S
H1587 C1599 0.929 . S
H1588 C1602 0.930 . S
H1589 C1604 0.960 . S
H1590 C1604 0.960 . S
H1591 C1604 0.960 . S
C1592 H1584 0.929 . S
C1592 C1593 1.377 . S
C1592 C1594 1.384 . S
C1593 C1592 1.377 . S
C1593 C1599 1.390 . S
C1594 H1585 0.930 . S
C1594 C1592 1.384 . S
C1594 C1595 1.372 . S
C1595 C1594 1.372 . S
C1595 C1596 1.400 . S
C1595 C1600 1.490 . S
C1596 H1586 0.930 . S
C1596 C1595 1.400 . S
C1596 C1599 1.386 . S
H1597 C1613 0.930 . S
H1598 C1614 0.931 . S
C1599 H1587 0.929 . S
C1599 C1593 1.390 . S
C1599 C1596 1.386 . S
C1600 C1595 1.490 . S
C1600 C1602 1.395 . S
C1600 C1603 1.403 . S
H1601 C1607 0.930 . S
C1602 H1588 0.930 . S
C1602 C1600 1.395 . S
C1602 C1605 1.403 1_545 S
C1603 C1600 1.403 . S
C1603 C1604 1.524 . S
C1603 C1607 1.400 1_545 S
C1604 H1589 0.960 . S
C1604 H1590 0.960 . S
C1604 H1591 0.960 . S
C1604 C1603 1.524 . S
C1605 C1602 1.403 1_565 S
C1605 C1606 1.392 . S
C1605 C1609 1.495 . S
C1606 C1605 1.392 . S
C1606 C1607 1.385 . S
C1606 C1608 1.478 . S
C1607 H1601 0.930 . S
C1607 C1603 1.400 1_565 S
C1607 C1606 1.385 . S
C1608 C1606 1.478 . S
C1608 C1610 1.381 . S
C1608 C1614 1.383 . S
C1609 C1605 1.495 . S
C1609 H1615 0.959 . S
C1609 H1616 0.961 . S
C1609 H1617 0.960 . S
C1610 C1608 1.381 . S
C1610 C1611 1.394 . S
C1610 H1618 0.930 . S
C1611 C1610 1.394 . S
C1611 C1612 1.383 . S
C1611 H1619 0.929 . S
C1612 C1611 1.383 . S
C1612 C1613 1.377 . S
C1613 H1597 0.930 . S
C1613 C1612 1.377 . S
C1613 C1614 1.379 . S
C1614 H1598 0.931 . S
C1614 C1608 1.383 . S
C1614 C1613 1.379 . S
H1615 C1609 0.959 . S
H1616 C1609 0.961 . S
H1617 C1609 0.960 . S
H1618 C1610 0.930 . S
H1619 C1611 0.929 . S
H1620 C1628 0.929 . S
H1621 C1630 0.930 . S
H1622 C1632 0.930 . S
H1623 C1635 0.929 . S
H1624 C1638 0.930 . S
H1625 C1640 0.960 . S
H1626 C1640 0.960 . S
H1627 C1640 0.960 . S
C1628 H1620 0.929 . S
C1628 C1629 1.377 . S
C1628 C1630 1.384 . S
C1629 C1628 1.377 . S
C1629 C1635 1.390 . S
C1630 H1621 0.930 . S
C1630 C1628 1.384 . S
C1630 C1631 1.372 . S
C1631 C1630 1.372 . S
C1631 C1632 1.400 . S
C1631 C1636 1.490 . S
C1632 H1622 0.930 . S
C1632 C1631 1.400 . S
C1632 C1635 1.386 . S
H1633 C1649 0.930 . S
H1634 C1650 0.931 . S
C1635 H1623 0.929 . S
C1635 C1629 1.390 . S
C1635 C1632 1.386 . S
C1636 C1631 1.490 . S
C1636 C1638 1.395 . S
C1636 C1639 1.403 . S
H1637 C1643 0.930 . S
C1638 H1624 0.930 . S
C1638 C1636 1.395 . S
C1638 C1641 1.403 1_655 S
C1639 C1636 1.403 . S
C1639 C1640 1.524 . S
C1639 C1643 1.400 1_655 S
C1640 H1625 0.960 . S
C1640 H1626 0.960 . S
C1640 H1627 0.960 . S
C1640 C1639 1.524 . S
C1641 C1638 1.403 1_455 S
C1641 C1642 1.392 . S
C1641 C1645 1.495 . S
C1642 C1641 1.392 . S
C1642 C1643 1.385 . S
C1642 C1644 1.478 . S
C1643 H1637 0.930 . S
C1643 C1639 1.400 1_455 S
C1643 C1642 1.385 . S
C1644 C1642 1.478 . S
C1644 C1646 1.381 . S
C1644 C1650 1.383 . S
C1645 C1641 1.495 . S
C1645 H1651 0.959 . S
C1645 H1652 0.961 . S
C1645 H1653 0.960 . S
C1646 C1644 1.381 . S
C1646 C1647 1.394 . S
C1646 H1654 0.930 . S
C1647 C1646 1.394 . S
C1647 C1648 1.383 . S
C1647 H1655 0.929 . S
C1648 C1647 1.383 . S
C1648 C1649 1.377 . S
C1649 H1633 0.930 . S
C1649 C1648 1.377 . S
C1649 C1650 1.379 . S
C1650 H1634 0.931 . S
C1650 C1644 1.383 . S
C1650 C1649 1.379 . S
H1651 C1645 0.959 . S
H1652 C1645 0.961 . S
H1653 C1645 0.960 . S
H1654 C1646 0.930 . S
H1655 C1647 0.929 . S
H1656 C1664 0.929 . S
H1657 C1666 0.930 . S
H1658 C1668 0.930 . S
H1659 C1671 0.929 . S
H1660 C1674 0.930 . S
H1661 C1676 0.960 . S
H1662 C1676 0.960 . S
H1663 C1676 0.960 . S
C1664 H1656 0.929 . S
C1664 C1665 1.377 . S
C1664 C1666 1.384 . S
C1665 C1664 1.377 . S
C1665 C1671 1.390 . S
C1666 H1657 0.930 . S
C1666 C1664 1.384 . S
C1666 C1667 1.372 . S
C1667 C1666 1.372 . S
C1667 C1668 1.400 . S
C1667 C1672 1.490 . S
C1668 H1658 0.930 . S
C1668 C1667 1.400 . S
C1668 C1671 1.386 . S
H1669 C1685 0.930 . S
H1670 C1686 0.931 . S
C1671 H1659 0.929 . S
C1671 C1665 1.390 . S
C1671 C1668 1.386 . S
C1672 C1667 1.490 . S
C1672 C1674 1.395 . S
C1672 C1675 1.403 . S
H1673 C1679 0.930 . S
C1674 H1660 0.930 . S
C1674 C1672 1.395 . S
C1674 C1677 1.403 . S
C1675 C1672 1.403 . S
C1675 C1676 1.524 . S
C1675 C1679 1.400 . S
C1676 H1661 0.960 . S
C1676 H1662 0.960 . S
C1676 H1663 0.960 . S
C1676 C1675 1.524 . S
C1677 C1674 1.403 . S
C1677 C1678 1.392 . S
C1677 C1681 1.495 . S
C1678 C1677 1.392 . S
C1678 C1679 1.385 . S
C1678 C1680 1.478 . S
C1679 H1673 0.930 . S
C1679 C1675 1.400 . S
C1679 C1678 1.385 . S
C1680 C1678 1.478 . S
C1680 C1682 1.381 . S
C1680 C1686 1.383 . S
C1681 C1677 1.495 . S
C1681 H1687 0.959 . S
C1681 H1688 0.961 . S
C1681 H1689 0.960 . S
C1682 C1680 1.381 . S
C1682 C1683 1.394 . S
C1682 H1690 0.930 . S
C1683 C1682 1.394 . S
C1683 C1684 1.383 . S
C1683 H1691 0.929 . S
C1684 C1683 1.383 . S
C1684 C1685 1.377 . S
C1685 H1669 0.930 . S
C1685 C1684 1.377 . S
C1685 C1686 1.379 . S
C1686 H1670 0.931 . S
C1686 C1680 1.383 . S
C1686 C1685 1.379 . S
H1687 C1681 0.959 . S
H1688 C1681 0.961 . S
H1689 C1681 0.960 . S
H1690 C1682 0.930 . S
H1691 C1683 0.929 . S
H1692 C1700 0.929 . S
H1693 C1702 0.930 . S
H1694 C1704 0.930 . S
H1695 C1707 0.929 . S
H1696 C1710 0.930 . S
H1697 C1712 0.960 . S
H1698 C1712 0.960 . S
H1699 C1712 0.960 . S
C1700 H1692 0.929 . S
C1700 C1701 1.377 . S
C1700 C1702 1.384 . S
C1701 C1700 1.377 . S
C1701 C1707 1.390 . S
C1702 H1693 0.930 . S
C1702 C1700 1.384 . S
C1702 C1703 1.372 . S
C1703 C1702 1.372 . S
C1703 C1704 1.400 . S
C1703 C1708 1.490 . S
C1704 H1694 0.930 . S
C1704 C1703 1.400 . S
C1704 C1707 1.386 . S
H1705 C1721 0.930 . S
H1706 C1722 0.931 . S
C1707 H1695 0.929 . S
C1707 C1701 1.390 . S
C1707 C1704 1.386 . S
C1708 C1703 1.490 . S
C1708 C1710 1.395 . S
C1708 C1711 1.403 . S
H1709 C1715 0.930 . S
C1710 H1696 0.930 . S
C1710 C1708 1.395 . S
C1710 C1713 1.403 1_565 S
C1711 C1708 1.403 . S
C1711 C1712 1.524 . S
C1711 C1715 1.400 1_565 S
C1712 H1697 0.960 . S
C1712 H1698 0.960 . S
C1712 H1699 0.960 . S
C1712 C1711 1.524 . S
C1713 C1710 1.403 1_545 S
C1713 C1714 1.392 . S
C1713 C1717 1.495 . S
C1714 C1713 1.392 . S
C1714 C1715 1.385 . S
C1714 C1716 1.478 . S
C1715 H1709 0.930 . S
C1715 C1711 1.400 1_545 S
C1715 C1714 1.385 . S
C1716 C1714 1.478 . S
C1716 C1718 1.381 . S
C1716 C1722 1.383 . S
C1717 C1713 1.495 . S
C1717 H1723 0.959 . S
C1717 H1724 0.961 . S
C1717 H1725 0.960 . S
C1718 C1716 1.381 . S
C1718 C1719 1.394 . S
C1718 H1726 0.930 . S
C1719 C1718 1.394 . S
C1719 C1720 1.383 . S
C1719 H1727 0.929 . S
C1720 C1719 1.383 . S
C1720 C1721 1.377 . S
C1721 H1705 0.930 . S
C1721 C1720 1.377 . S
C1721 C1722 1.379 . S
C1722 H1706 0.931 . S
C1722 C1716 1.383 . S
C1722 C1721 1.379 . S
H1723 C1717 0.959 . S
H1724 C1717 0.961 . S
H1725 C1717 0.960 . S
H1726 C1718 0.930 . S
H1727 C1719 0.929 . S
H1728 C1736 0.929 . S
H1729 C1738 0.930 . S
H1730 C1740 0.930 . S
H1731 C1743 0.929 . S
H1732 C1746 0.930 . S
H1733 C1748 0.960 . S
H1734 C1748 0.960 . S
H1735 C1748 0.960 . S
C1736 H1728 0.929 . S
C1736 C1737 1.377 . S
C1736 C1738 1.384 . S
C1737 C1736 1.377 . S
C1737 C1743 1.390 . S
C1738 H1729 0.930 . S
C1738 C1736 1.384 . S
C1738 C1739 1.372 . S
C1739 C1738 1.372 . S
C1739 C1740 1.400 . S
C1739 C1744 1.490 . S
C1740 H1730 0.930 . S
C1740 C1739 1.400 . S
C1740 C1743 1.386 . S
H1741 C1757 0.930 . S
H1742 C1758 0.931 . S
C1743 H1731 0.929 . S
C1743 C1737 1.390 . S
C1743 C1740 1.386 . S
C1744 C1739 1.490 . S
C1744 C1746 1.395 . S
C1744 C1747 1.403 . S
H1745 C1751 0.930 . S
C1746 H1732 0.930 . S
C1746 C1744 1.395 . S
C1746 C1749 1.403 1_655 S
C1747 C1744 1.403 . S
C1747 C1748 1.524 . S
C1747 C1751 1.400 1_655 S
C1748 H1733 0.960 . S
C1748 H1734 0.960 . S
C1748 H1735 0.960 . S
C1748 C1747 1.524 . S
C1749 C1746 1.403 1_455 S
C1749 C1750 1.392 . S
C1749 C1753 1.495 . S
C1750 C1749 1.392 . S
C1750 C1751 1.385 . S
C1750 C1752 1.478 . S
C1751 H1745 0.930 . S
C1751 C1747 1.400 1_455 S
C1751 C1750 1.385 . S
C1752 C1750 1.478 . S
C1752 C1754 1.381 . S
C1752 C1758 1.383 . S
C1753 C1749 1.495 . S
C1753 H1759 0.959 . S
C1753 H1760 0.961 . S
C1753 H1761 0.960 . S
C1754 C1752 1.381 . S
C1754 C1755 1.394 . S
C1754 H1762 0.930 . S
C1755 C1754 1.394 . S
C1755 C1756 1.383 . S
C1755 H1763 0.929 . S
C1756 C1755 1.383 . S
C1756 C1757 1.377 . S
C1757 H1741 0.930 . S
C1757 C1756 1.377 . S
C1757 C1758 1.379 . S
C1758 H1742 0.931 . S
C1758 C1752 1.383 . S
C1758 C1757 1.379 . S
H1759 C1753 0.959 . S
H1760 C1753 0.961 . S
H1761 C1753 0.960 . S
H1762 C1754 0.930 . S
H1763 C1755 0.929 . S
H1764 C1772 0.929 . S
H1765 C1774 0.930 . S
H1766 C1776 0.930 . S
H1767 C1779 0.929 1_655 S
H1768 C1782 0.930 . S
H1769 C1784 0.960 . S
H1770 C1784 0.960 . S
H1771 C1784 0.960 . S
C1772 H1764 0.929 . S
C1772 C1773 1.377 . S
C1772 C1774 1.384 . S
C1773 C1772 1.377 . S
C1773 C1779 1.390 . S
C1774 H1765 0.930 . S
C1774 C1772 1.384 . S
C1774 C1775 1.372 . S
C1775 C1774 1.372 . S
C1775 C1776 1.400 . S
C1775 C1780 1.490 . S
C1776 H1766 0.930 . S
C1776 C1775 1.400 . S
C1776 C1779 1.386 . S
H1777 C1793 0.930 . S
H1778 C1794 0.931 . S
C1779 H1767 0.929 1_455 S
C1779 C1773 1.390 . S
C1779 C1776 1.386 . S
C1780 C1775 1.490 . S
C1780 C1782 1.395 . S
C1780 C1783 1.403 . S
H1781 C1787 0.930 . S
C1782 H1768 0.930 . S
C1782 C1780 1.395 . S
C1782 C1785 1.403 . S
C1783 C1780 1.403 . S
C1783 C1784 1.524 . S
C1783 C1787 1.400 . S
C1784 H1769 0.960 . S
C1784 H1770 0.960 . S
C1784 H1771 0.960 . S
C1784 C1783 1.524 . S
C1785 C1782 1.403 . S
C1785 C1786 1.392 . S
C1785 C1789 1.495 . S
C1786 C1785 1.392 . S
C1786 C1787 1.385 . S
C1786 C1788 1.478 . S
C1787 H1781 0.930 . S
C1787 C1783 1.400 . S
C1787 C1786 1.385 . S
C1788 C1786 1.478 . S
C1788 C1790 1.381 . S
C1788 C1794 1.383 . S
C1789 C1785 1.495 . S
C1789 H1795 0.959 . S
C1789 H1796 0.961 . S
C1789 H1797 0.960 . S
C1790 C1788 1.381 . S
C1790 C1791 1.394 . S
C1790 H1798 0.930 . S
C1791 C1790 1.394 . S
C1791 C1792 1.383 . S
C1791 H1799 0.929 . S
C1792 C1791 1.383 . S
C1792 C1793 1.377 . S
C1793 H1777 0.930 . S
C1793 C1792 1.377 . S
C1793 C1794 1.379 . S
C1794 H1778 0.931 . S
C1794 C1788 1.383 . S
C1794 C1793 1.379 . S
H1795 C1789 0.959 . S
H1796 C1789 0.961 . S
H1797 C1789 0.960 . S
H1798 C1790 0.930 . S
H1799 C1791 0.929 . S
H1800 C1808 0.929 . S
H1801 C1810 0.930 . S
H1802 C1812 0.930 . S
H1803 C1815 0.929 . S
H1804 C1818 0.915 1_545 S
H1805 C1820 0.960 . S
H1806 C1820 0.960 . S
H1807 C1820 0.960 1_545 S
C1808 H1800 0.929 . S
C1808 C1809 1.377 . S
C1808 C1810 1.384 . S
C1809 C1808 1.377 . S
C1809 C1815 1.390 . S
C1810 H1801 0.930 . S
C1810 C1808 1.384 . S
C1810 C1811 1.372 . S
C1811 C1810 1.372 . S
C1811 C1812 1.400 . S
C1811 C1816 1.470 1_545 S
C1812 H1802 0.930 . S
C1812 C1811 1.400 . S
C1812 C1815 1.386 . S
H1813 C1829 0.930 . S
H1814 C1830 0.931 . S
C1815 H1803 0.929 . S
C1815 C1809 1.390 . S
C1815 C1812 1.386 . S
C1816 C1811 1.470 1_565 S
C1816 C1818 1.408 . S
C1816 C1819 1.410 . S
H1817 C1823 0.930 . S
C1818 H1804 0.915 1_565 S
C1818 C1816 1.408 . S
C1818 C1821 1.403 . S
C1819 C1816 1.410 . S
C1819 C1820 1.524 . S
C1819 C1823 1.400 . S
C1820 H1805 0.960 . S
C1820 H1806 0.960 . S
C1820 H1807 0.960 1_565 S
C1820 C1819 1.524 . S
C1821 C1818 1.403 . S
C1821 C1822 1.392 . S
C1821 C1825 1.495 . S
C1822 C1821 1.392 . S
C1822 C1823 1.385 . S
C1822 C1824 1.478 . S
C1823 H1817 0.930 . S
C1823 C1819 1.400 . S
C1823 C1822 1.385 . S
C1824 C1822 1.478 . S
C1824 C1826 1.381 . S
C1824 C1830 1.383 . S
C1825 C1821 1.495 . S
C1825 H1831 0.959 . S
C1825 H1832 0.961 . S
C1825 H1833 0.960 . S
C1826 C1824 1.381 . S
C1826 C1827 1.394 . S
C1826 H1834 0.930 . S
C1827 C1826 1.394 . S
C1827 C1828 1.383 . S
C1827 H1835 0.929 . S
C1828 C1827 1.383 . S
C1828 C1829 1.377 . S
C1829 H1813 0.930 . S
C1829 C1828 1.377 . S
C1829 C1830 1.379 . S
C1830 H1814 0.931 . S
C1830 C1824 1.383 . S
C1830 C1829 1.379 . S
H1831 C1825 0.959 . S
H1832 C1825 0.961 . S
H1833 C1825 0.960 . S
H1834 C1826 0.930 . S
H1835 C1827 0.929 . S
H1836 C1844 0.929 . S
H1837 C1846 0.930 . S
H1838 C1848 0.930 . S
H1839 C1851 0.929 . S
H1840 C1854 0.930 1_655 S
H1841 C1856 0.960 . S
H1842 C1856 0.960 . S
H1843 C1856 0.960 . S
C1844 H1836 0.929 . S
C1844 C1845 1.377 . S
C1844 C1846 1.384 . S
C1845 C1844 1.377 . S
C1845 C1851 1.390 . S
C1846 H1837 0.930 . S
C1846 C1844 1.384 . S
C1846 C1847 1.372 . S
C1847 C1846 1.372 . S
C1847 C1848 1.400 . S
C1847 C1852 1.497 . S
C1848 H1838 0.930 . S
C1848 C1847 1.400 . S
C1848 C1851 1.386 . S
H1849 C1865 0.930 . S
H1850 C1866 0.931 . S
C1851 H1839 0.929 . S
C1851 C1845 1.390 . S
C1851 C1848 1.386 . S
C1852 C1847 1.497 . S
C1852 C1854 1.398 1_655 S
C1852 C1855 1.392 1_655 S
H1853 C1859 0.930 . S
C1854 H1840 0.930 1_455 S
C1854 C1852 1.398 1_455 S
C1854 C1857 1.403 . S
C1855 C1852 1.392 1_455 S
C1855 C1856 1.524 . S
C1855 C1859 1.400 . S
C1856 H1841 0.960 . S
C1856 H1842 0.960 . S
C1856 H1843 0.960 . S
C1856 C1855 1.524 . S
C1857 C1854 1.403 . S
C1857 C1858 1.392 . S
C1857 C1861 1.495 . S
C1858 C1857 1.392 . S
C1858 C1859 1.385 . S
C1858 C1860 1.478 . S
C1859 H1853 0.930 . S
C1859 C1855 1.400 . S
C1859 C1858 1.385 . S
C1860 C1858 1.478 . S
C1860 C1862 1.381 . S
C1860 C1866 1.383 . S
C1861 C1857 1.495 . S
C1861 H1867 0.959 . S
C1861 H1868 0.961 . S
C1861 H1869 0.960 . S
C1862 C1860 1.381 . S
C1862 C1863 1.399 . S
C1862 H1870 0.930 . S
C1863 C1862 1.399 . S
C1863 C1864 1.395 . S
C1863 H1871 0.913 1_565 S
C1864 C1863 1.395 . S
C1864 C1865 1.377 . S
C1865 H1849 0.930 . S
C1865 C1864 1.377 . S
C1865 C1866 1.379 . S
C1866 H1850 0.931 . S
C1866 C1860 1.383 . S
C1866 C1865 1.379 . S
H1867 C1861 0.959 . S
H1868 C1861 0.961 . S
H1869 C1861 0.960 . S
H1870 C1862 0.930 . S
H1871 C1863 0.913 1_545 S
H1872 C1880 0.929 . S
H1873 C1882 0.930 . S
H1874 C1884 0.930 . S
H1875 C1887 0.929 . S
H1876 C1890 0.930 . S
H1877 C1892 0.960 . S
H1878 C1892 0.960 . S
H1879 C1892 0.960 . S
C1880 H1872 0.929 . S
C1880 C1881 1.377 . S
C1880 C1882 1.384 . S
C1881 C1880 1.377 . S
C1881 C1887 1.390 . S
C1882 H1873 0.930 . S
C1882 C1880 1.384 . S
C1882 C1883 1.372 . S
C1883 C1882 1.372 . S
C1883 C1884 1.400 . S
C1883 C1888 1.490 . S
C1884 H1874 0.930 . S
C1884 C1883 1.400 . S
C1884 C1887 1.386 . S
H1885 C1901 0.930 . S
H1886 C1902 0.931 . S
C1887 H1875 0.929 . S
C1887 C1881 1.390 . S
C1887 C1884 1.386 . S
C1888 C1883 1.490 . S
C1888 C1890 1.395 . S
C1888 C1891 1.403 . S
H1889 C1895 0.930 . S
C1890 H1876 0.930 . S
C1890 C1888 1.395 . S
C1890 C1893 1.403 . S
C1891 C1888 1.403 . S
C1891 C1892 1.524 . S
C1891 C1895 1.400 . S
C1892 H1877 0.960 . S
C1892 H1878 0.960 . S
C1892 H1879 0.960 . S
C1892 C1891 1.524 . S
C1893 C1890 1.403 . S
C1893 C1894 1.392 . S
C1893 C1897 1.495 . S
C1894 C1893 1.392 . S
C1894 C1895 1.385 . S
C1894 C1896 1.478 . S
C1895 H1889 0.930 . S
C1895 C1891 1.400 . S
C1895 C1894 1.385 . S
C1896 C1894 1.478 . S
C1896 C1898 1.381 . S
C1896 C1902 1.383 . S
C1897 C1893 1.495 . S
C1897 H1903 0.959 . S
C1897 H1904 0.961 . S
C1897 H1905 0.960 . S
C1898 C1896 1.381 . S
C1898 C1899 1.394 . S
C1898 H1906 0.930 . S
C1899 C1898 1.394 . S
C1899 C1900 1.383 . S
C1899 H1907 0.929 1_545 S
C1900 C1899 1.383 . S
C1900 C1901 1.377 . S
C1901 H1885 0.930 . S
C1901 C1900 1.377 . S
C1901 C1902 1.379 . S
C1902 H1886 0.931 . S
C1902 C1896 1.383 . S
C1902 C1901 1.379 . S
H1903 C1897 0.959 . S
H1904 C1897 0.961 . S
H1905 C1897 0.960 . S
H1906 C1898 0.930 . S
H1907 C1899 0.929 1_565 S
H1908 C1916 0.929 1_455 S
H1909 C1918 0.930 . S
H1910 C1920 0.930 . S
H1911 C1923 0.929 . S
H1912 C1926 0.930 . S
H1913 C1928 0.960 . S
H1914 C1928 0.960 . S
H1915 C1928 0.960 . S
C1916 H1908 0.929 1_655 S
C1916 C1917 1.377 . S
C1916 C1918 1.384 . S
C1917 C1916 1.377 . S
C1917 C1923 1.390 . S
C1918 H1909 0.930 . S
C1918 C1916 1.384 . S
C1918 C1919 1.372 . S
C1919 C1918 1.372 . S
C1919 C1920 1.400 . S
C1919 C1924 1.490 . S
C1920 H1910 0.930 . S
C1920 C1919 1.400 . S
C1920 C1923 1.386 . S
H1921 C1937 0.930 . S
H1922 C1938 0.931 . S
C1923 H1911 0.929 . S
C1923 C1917 1.390 . S
C1923 C1920 1.386 . S
C1924 C1919 1.490 . S
C1924 C1926 1.395 . S
C1924 C1927 1.403 . S
H1925 C1931 0.930 . S
C1926 H1912 0.930 . S
C1926 C1924 1.395 . S
C1926 C1929 1.403 . S
C1927 C1924 1.403 . S
C1927 C1928 1.524 . S
C1927 C1931 1.400 . S
C1928 H1913 0.960 . S
C1928 H1914 0.960 . S
C1928 H1915 0.960 . S
C1928 C1927 1.524 . S
C1929 C1926 1.403 . S
C1929 C1930 1.392 1_545 S
C1929 C1933 1.495 1_545 S
C1930 C1929 1.392 1_565 S
C1930 C1931 1.385 1_565 S
C1930 C1932 1.478 . S
C1931 H1925 0.930 . S
C1931 C1927 1.400 . S
C1931 C1930 1.385 1_545 S
C1932 C1930 1.478 . S
C1932 C1934 1.381 . S
C1932 C1938 1.383 . S
C1933 C1929 1.495 1_565 S
C1933 H1939 0.959 1_565 S
C1933 H1940 0.961 . S
C1933 H1941 0.960 . S
C1934 C1932 1.381 . S
C1934 C1935 1.394 . S
C1934 H1942 0.930 . S
C1935 C1934 1.394 . S
C1935 C1936 1.383 . S
C1935 H1943 0.929 . S
C1936 C1935 1.383 . S
C1936 C1937 1.377 . S
C1937 H1921 0.930 . S
C1937 C1936 1.377 . S
C1937 C1938 1.379 . S
C1938 H1922 0.931 . S
C1938 C1932 1.383 . S
C1938 C1937 1.379 . S
H1939 C1933 0.959 1_545 S
H1940 C1933 0.961 . S
H1941 C1933 0.960 . S
H1942 C1934 0.930 . S
H1943 C1935 0.929 . S
H1944 C1952 0.929 . S
H1945 C1954 0.930 . S
H1946 C1956 0.930 . S
H1947 C1959 0.929 . S
H1948 C1962 0.930 . S
H1949 C1964 0.927 1_655 S
H1950 C1964 0.960 . S
H1951 C1964 0.960 . S
C1952 H1944 0.929 . S
C1952 C1953 1.377 . S
C1952 C1954 1.384 . S
C1953 C1952 1.377 . S
C1953 C1959 1.390 . S
C1954 H1945 0.930 . S
C1954 C1952 1.384 . S
C1954 C1955 1.372 . S
C1955 C1954 1.372 . S
C1955 C1956 1.400 . S
C1955 C1960 1.480 1_455 S
C1956 H1946 0.930 . S
C1956 C1955 1.400 . S
C1956 C1959 1.386 . S
H1957 C1973 0.930 . S
H1958 C1974 0.931 . S
C1959 H1947 0.929 . S
C1959 C1953 1.390 . S
C1959 C1956 1.386 . S
C1960 C1955 1.480 1_655 S
C1960 C1962 1.397 . S
C1960 C1963 1.410 . S
H1961 C1967 0.930 . S
C1962 H1948 0.930 . S
C1962 C1960 1.397 . S
C1962 C1965 1.403 . S
C1963 C1960 1.410 . S
C1963 C1964 1.524 1_655 S
C1963 C1967 1.400 . S
C1964 H1949 0.927 1_455 S
C1964 H1950 0.960 . S
C1964 H1951 0.960 . S
C1964 C1963 1.524 1_455 S
C1965 C1962 1.403 . S
C1965 C1966 1.392 . S
C1965 C1969 1.495 . S
C1966 C1965 1.392 . S
C1966 C1967 1.385 . S
C1966 C1968 1.478 . S
C1967 H1961 0.930 . S
C1967 C1963 1.400 . S
C1967 C1966 1.385 . S
C1968 C1966 1.478 . S
C1968 C1970 1.381 . S
C1968 C1974 1.383 . S
C1969 C1965 1.495 . S
C1969 H1975 0.959 . S
C1969 H1976 0.961 . S
C1969 H1977 0.960 . S
C1970 C1968 1.381 . S
C1970 C1971 1.394 . S
C1970 H1978 0.930 . S
C1971 C1970 1.394 . S
C1971 C1972 1.383 . S
C1971 H1979 0.929 . S
C1972 C1971 1.383 . S
C1972 C1973 1.377 . S
C1973 H1957 0.930 . S
C1973 C1972 1.377 . S
C1973 C1974 1.379 . S
C1974 H1958 0.931 . S
C1974 C1968 1.383 . S
C1974 C1973 1.379 . S
H1975 C1969 0.959 . S
H1976 C1969 0.961 . S
H1977 C1969 0.960 . S
H1978 C1970 0.930 . S
H1979 C1971 0.929 . S
H1980 C1988 0.929 . S
H1981 C1990 0.930 . S
H1982 C1992 0.930 . S
H1983 C1995 0.929 . S
H1984 C1998 0.930 . S
H1985 C2000 0.960 . S
H1986 C2000 0.960 . S
H1987 C2000 0.960 . S
C1988 H1980 0.929 . S
C1988 C1989 1.377 . S
C1988 C1990 1.384 . S
C1989 C1988 1.377 . S
C1989 C1995 1.390 . S
C1990 H1981 0.930 . S
C1990 C1988 1.384 . S
C1990 C1991 1.372 . S
C1991 C1990 1.372 . S
C1991 C1992 1.400 . S
C1991 C1996 1.490 . S
C1992 H1982 0.930 . S
C1992 C1991 1.400 . S
C1992 C1995 1.386 . S
H1993 C2009 0.930 1_455 S
H1994 C2010 0.931 . S
C1995 H1983 0.929 . S
C1995 C1989 1.390 . S
C1995 C1992 1.386 . S
C1996 C1991 1.490 . S
C1996 C1998 1.395 . S
C1996 C1999 1.403 . S
H1997 C2003 0.930 . S
C1998 H1984 0.930 . S
C1998 C1996 1.395 . S
C1998 C2001 1.403 . S
C1999 C1996 1.403 . S
C1999 C2000 1.524 . S
C1999 C2003 1.400 . S
C2000 H1985 0.960 . S
C2000 H1986 0.960 . S
C2000 H1987 0.960 . S
C2000 C1999 1.524 . S
C2001 C1998 1.403 . S
C2001 C2002 1.392 . S
C2001 C2005 1.495 . S
C2002 C2001 1.392 . S
C2002 C2003 1.385 . S
C2002 C2004 1.478 . S
C2003 H1997 0.930 . S
C2003 C1999 1.400 . S
C2003 C2002 1.385 . S
C2004 C2002 1.478 . S
C2004 C2006 1.381 . S
C2004 C2010 1.383 . S
C2005 C2001 1.495 . S
C2005 H2011 0.959 . S
C2005 H2012 0.961 . S
C2005 H2013 0.960 . S
C2006 C2004 1.381 . S
C2006 C2007 1.394 . S
C2006 H2014 0.930 . S
C2007 C2006 1.394 . S
C2007 C2008 1.383 . S
C2007 H2015 0.929 . S
C2008 C2007 1.383 . S
C2008 C2009 1.377 . S
C2009 H1993 0.930 1_655 S
C2009 C2008 1.377 . S
C2009 C2010 1.379 . S
C2010 H1994 0.931 . S
C2010 C2004 1.383 . S
C2010 C2009 1.379 . S
H2011 C2005 0.959 . S
H2012 C2005 0.961 . S
H2013 C2005 0.960 . S
H2014 C2006 0.930 . S
H2015 C2007 0.929 . S
H2016 C2024 0.929 . S
H2017 C2026 0.930 . S
H2018 C2028 0.930 . S
H2019 C2031 0.929 . S
H2020 C2034 0.930 1_565 S
H2021 C2036 0.960 . S
H2022 C2036 0.960 . S
H2023 C2036 0.960 . S
C2024 H2016 0.929 . S
C2024 C2025 1.377 . S
C2024 C2026 1.384 . S
C2025 C2024 1.377 . S
C2025 C2031 1.390 . S
C2026 H2017 0.930 . S
C2026 C2024 1.384 . S
C2026 C2027 1.372 . S
C2027 C2026 1.372 . S
C2027 C2028 1.400 . S
C2027 C2032 1.497 . S
C2028 H2018 0.930 . S
C2028 C2027 1.400 . S
C2028 C2031 1.386 . S
H2029 C2045 0.930 . S
H2030 C2046 0.931 . S
C2031 H2019 0.929 . S
C2031 C2025 1.390 . S
C2031 C2028 1.386 . S
C2032 C2027 1.497 . S
C2032 C2034 1.390 1_565 S
C2032 C2035 1.400 1_565 S
H2033 C2039 0.930 . S
C2034 H2020 0.930 1_545 S
C2034 C2032 1.390 1_545 S
C2034 C2037 1.403 . S
C2035 C2032 1.400 1_545 S
C2035 C2036 1.524 . S
C2035 C2039 1.400 . S
C2036 H2021 0.960 . S
C2036 H2022 0.960 . S
C2036 H2023 0.960 . S
C2036 C2035 1.524 . S
C2037 C2034 1.403 . S
C2037 C2038 1.392 . S
C2037 C2041 1.495 . S
C2038 C2037 1.392 . S
C2038 C2039 1.385 . S
C2038 C2040 1.478 . S
C2039 H2033 0.930 . S
C2039 C2035 1.400 . S
C2039 C2038 1.385 . S
C2040 C2038 1.478 . S
C2040 C2042 1.381 . S
C2040 C2046 1.383 . S
C2041 C2037 1.495 . S
C2041 H2047 0.959 . S
C2041 H2048 0.961 . S
C2041 H2049 0.960 . S
C2042 C2040 1.381 . S
C2042 C2043 1.394 . S
C2042 H2050 0.930 . S
C2043 C2042 1.394 . S
C2043 C2044 1.383 . S
C2043 H2051 0.929 . S
C2044 C2043 1.383 . S
C2044 C2045 1.377 . S
C2045 H2029 0.930 . S
C2045 C2044 1.377 . S
C2045 C2046 1.379 . S
C2046 H2030 0.931 . S
C2046 C2040 1.383 . S
C2046 C2045 1.379 . S
H2047 C2041 0.959 . S
H2048 C2041 0.961 . S
H2049 C2041 0.960 . S
H2050 C2042 0.930 . S
H2051 C2043 0.929 . S
H2052 C2060 0.929 . S
H2053 C2062 0.930 . S
H2054 C2064 0.930 . S
H2055 C2067 0.929 . S
H2056 C2070 0.930 . S
H2057 C2072 0.960 . S
H2058 C2072 0.960 . S
H2059 C2072 0.960 . S
C2060 H2052 0.929 . S
C2060 C2061 1.377 . S
C2060 C2062 1.384 . S
C2061 C2060 1.377 . S
C2061 C2067 1.390 . S
C2062 H2053 0.930 . S
C2062 C2060 1.384 . S
C2062 C2063 1.372 . S
C2063 C2062 1.372 . S
C2063 C2064 1.400 . S
C2063 C2068 1.467 1_455 S
C2064 H2054 0.930 . S
C2064 C2063 1.400 . S
C2064 C2067 1.386 . S
H2065 C2081 0.930 . S
H2066 C2082 0.931 . S
C2067 H2055 0.929 . S
C2067 C2061 1.390 . S
C2067 C2064 1.386 . S
C2068 C2063 1.467 1_655 S
C2068 C2070 1.425 . S
C2068 C2071 1.396 . S
H2069 C2075 0.930 . S
C2070 H2056 0.930 . S
C2070 C2068 1.425 . S
C2070 C2073 1.403 . S
C2071 C2068 1.396 . S
C2071 C2072 1.524 1_655 S
C2071 C2075 1.400 . S
C2072 H2057 0.960 . S
C2072 H2058 0.960 . S
C2072 H2059 0.960 . S
C2072 C2071 1.524 1_455 S
C2073 C2070 1.403 . S
C2073 C2074 1.392 . S
C2073 C2077 1.495 . S
C2074 C2073 1.392 . S
C2074 C2075 1.385 . S
C2074 C2076 1.478 . S
C2075 H2069 0.930 . S
C2075 C2071 1.400 . S
C2075 C2074 1.385 . S
C2076 C2074 1.478 . S
C2076 C2078 1.381 . S
C2076 C2082 1.383 . S
C2077 C2073 1.495 . S
C2077 H2083 0.959 . S
C2077 H2084 0.961 . S
C2077 H2085 0.960 . S
C2078 C2076 1.381 . S
C2078 C2079 1.394 . S
C2078 H2086 0.930 . S
C2079 C2078 1.394 . S
C2079 C2080 1.383 . S
C2079 H2087 0.929 . S
C2080 C2079 1.383 . S
C2080 C2081 1.377 . S
C2081 H2065 0.930 . S
C2081 C2080 1.377 . S
C2081 C2082 1.379 . S
C2082 H2066 0.931 . S
C2082 C2076 1.383 . S
C2082 C2081 1.379 . S
H2083 C2077 0.959 . S
H2084 C2077 0.961 . S
H2085 C2077 0.960 . S
H2086 C2078 0.930 . S
H2087 C2079 0.929 . S
H2088 C2096 0.929 1_545 S
H2089 C2098 0.930 . S
H2090 C2100 0.930 . S
H2091 C2103 0.929 . S
H2092 C2106 0.930 . S
H2093 C2108 0.960 . S
H2094 C2108 0.960 . S
H2095 C2108 0.960 . S
C2096 H2088 0.929 1_565 S
C2096 C2097 1.377 . S
C2096 C2098 1.384 . S
C2097 C2096 1.377 . S
C2097 C2103 1.390 . S
C2098 H2089 0.930 . S
C2098 C2096 1.384 . S
C2098 C2099 1.372 . S
C2099 C2098 1.372 . S
C2099 C2100 1.400 . S
C2099 C2104 1.490 . S
C2100 H2090 0.930 . S
C2100 C2099 1.400 . S
C2100 C2103 1.386 . S
H2101 C2117 0.930 . S
H2102 C2118 0.931 . S
C2103 H2091 0.929 . S
C2103 C2097 1.390 . S
C2103 C2100 1.386 . S
C2104 C2099 1.490 . S
C2104 C2106 1.395 . S
C2104 C2107 1.403 . S
H2105 C2111 0.930 . S
C2106 H2092 0.930 . S
C2106 C2104 1.395 . S
C2106 C2109 1.403 . S
C2107 C2104 1.403 . S
C2107 C2108 1.524 . S
C2107 C2111 1.400 . S
C2108 H2093 0.960 . S
C2108 H2094 0.960 . S
C2108 H2095 0.960 . S
C2108 C2107 1.524 . S
C2109 C2106 1.403 . S
C2109 C2110 1.392 . S
C2109 C2113 1.495 . S
C2110 C2109 1.392 . S
C2110 C2111 1.385 . S
C2110 C2112 1.478 . S
C2111 H2105 0.930 . S
C2111 C2107 1.400 . S
C2111 C2110 1.385 . S
C2112 C2110 1.478 . S
C2112 C2114 1.381 . S
C2112 C2118 1.383 . S
C2113 C2109 1.495 . S
C2113 H2119 0.959 . S
C2113 H2120 0.961 . S
C2113 H2121 0.960 . S
C2114 C2112 1.381 . S
C2114 C2115 1.394 . S
C2114 H2122 0.930 . S
C2115 C2114 1.394 . S
C2115 C2116 1.383 . S
C2115 H2123 0.929 . S
C2116 C2115 1.383 . S
C2116 C2117 1.377 . S
C2117 H2101 0.930 . S
C2117 C2116 1.377 . S
C2117 C2118 1.379 . S
C2118 H2102 0.931 . S
C2118 C2112 1.383 . S
C2118 C2117 1.379 . S
H2119 C2113 0.959 . S
H2120 C2113 0.961 . S
H2121 C2113 0.960 . S
H2122 C2114 0.930 . S
H2123 C2115 0.929 . S
H2124 C2132 0.929 . S
H2125 C2134 0.930 . S
H2126 C2136 0.930 . S
H2127 C2139 0.929 . S
H2128 C2142 0.930 1_545 S
H2129 C2144 0.960 . S
H2130 C2144 0.960 1_545 S
H2131 C2144 0.960 . S
C2132 H2124 0.929 . S
C2132 C2133 1.377 . S
C2132 C2134 1.384 . S
C2133 C2132 1.377 . S
C2133 C2139 1.390 . S
C2134 H2125 0.930 . S
C2134 C2132 1.384 . S
C2134 C2135 1.372 . S
C2135 C2134 1.372 . S
C2135 C2136 1.400 . S
C2135 C2140 1.500 . S
C2136 H2126 0.930 . S
C2136 C2135 1.400 . S
C2136 C2139 1.386 . S
H2137 C2153 0.930 . S
H2138 C2154 0.931 . S
C2139 H2127 0.929 . S
C2139 C2133 1.390 . S
C2139 C2136 1.386 . S
C2140 C2135 1.500 . S
C2140 C2142 1.396 1_545 S
C2140 C2143 1.392 1_545 S
H2141 C2147 0.930 . S
C2142 H2128 0.930 1_565 S
C2142 C2140 1.396 1_565 S
C2142 C2145 1.403 . S
C2143 C2140 1.392 1_565 S
C2143 C2144 1.524 . S
C2143 C2147 1.400 . S
C2144 H2129 0.960 . S
C2144 H2130 0.960 1_565 S
C2144 H2131 0.960 . S
C2144 C2143 1.524 . S
C2145 C2142 1.403 . S
C2145 C2146 1.392 . S
C2145 C2149 1.495 . S
C2146 C2145 1.392 . S
C2146 C2147 1.385 . S
C2146 C2148 1.478 . S
C2147 H2141 0.930 . S
C2147 C2143 1.400 . S
C2147 C2146 1.385 . S
C2148 C2146 1.478 . S
C2148 C2150 1.381 . S
C2148 C2154 1.383 . S
C2149 C2145 1.495 . S
C2149 H2155 0.959 . S
C2149 H2156 0.961 . S
C2149 H2157 0.960 . S
C2150 C2148 1.381 . S
C2150 C2151 1.393 1_455 S
C2150 H2158 0.930 . S
C2151 C2150 1.393 1_655 S
C2151 C2152 1.379 1_655 S
C2151 H2159 0.935 . S
C2152 C2151 1.379 1_455 S
C2152 C2153 1.377 . S
C2153 H2137 0.930 . S
C2153 C2152 1.377 . S
C2153 C2154 1.379 . S
C2154 H2138 0.931 . S
C2154 C2148 1.383 . S
C2154 C2153 1.379 . S
H2155 C2149 0.959 . S
H2156 C2149 0.961 . S
H2157 C2149 0.960 . S
H2158 C2150 0.930 . S
H2159 C2151 0.935 . S
H2160 C2168 0.929 . S
H2161 C2170 0.930 . S
H2162 C2172 0.930 . S
H2163 C2175 0.929 . S
H2164 C2178 0.930 . S
H2165 C2180 0.960 . S
H2166 C2180 0.960 . S
H2167 C2180 0.960 . S
C2168 H2160 0.929 . S
C2168 C2169 1.377 . S
C2168 C2170 1.384 . S
C2169 C2168 1.377 . S
C2169 C2175 1.390 . S
C2170 H2161 0.930 . S
C2170 C2168 1.384 . S
C2170 C2171 1.372 . S
C2171 C2170 1.372 . S
C2171 C2172 1.400 . S
C2171 C2176 1.490 . S
C2172 H2162 0.930 . S
C2172 C2171 1.400 . S
C2172 C2175 1.386 . S
H2173 C2189 0.930 . S
H2174 C2190 0.931 . S
C2175 H2163 0.929 . S
C2175 C2169 1.390 . S
C2175 C2172 1.386 . S
C2176 C2171 1.490 . S
C2176 C2178 1.395 . S
C2176 C2179 1.403 . S
H2177 C2183 0.930 . S
C2178 H2164 0.930 . S
C2178 C2176 1.395 . S
C2178 C2181 1.403 . S
C2179 C2176 1.403 . S
C2179 C2180 1.524 . S
C2179 C2183 1.400 . S
C2180 H2165 0.960 . S
C2180 H2166 0.960 . S
C2180 H2167 0.960 . S
C2180 C2179 1.524 . S
C2181 C2178 1.403 . S
C2181 C2182 1.392 1_455 S
C2181 C2185 1.495 1_455 S
C2182 C2181 1.392 1_655 S
C2182 C2183 1.385 1_655 S
C2182 C2184 1.478 . S
C2183 H2177 0.930 . S
C2183 C2179 1.400 . S
C2183 C2182 1.385 1_455 S
C2184 C2182 1.478 . S
C2184 C2186 1.381 . S
C2184 C2190 1.383 . S
C2185 C2181 1.495 1_655 S
C2185 H2191 0.959 1_655 S
C2185 H2192 0.961 . S
C2185 H2193 0.960 . S
C2186 C2184 1.381 . S
C2186 C2187 1.394 . S
C2186 H2194 0.930 . S
C2187 C2186 1.394 . S
C2187 C2188 1.383 . S
C2187 H2195 0.929 . S
C2188 C2187 1.383 . S
C2188 C2189 1.377 . S
C2189 H2173 0.930 . S
C2189 C2188 1.377 . S
C2189 C2190 1.379 . S
C2190 H2174 0.931 . S
C2190 C2184 1.383 . S
C2190 C2189 1.379 . S
H2191 C2185 0.959 1_455 S
H2192 C2185 0.961 . S
H2193 C2185 0.960 . S
H2194 C2186 0.930 . S
H2195 C2187 0.929 . S
H2196 C2204 0.929 . S
H2197 C2206 0.930 . S
H2198 C2208 0.930 . S
H2199 C2211 0.929 . S
H2200 C2214 0.930 . S
H2201 C2216 0.960 . S
H2202 C2216 0.960 . S
H2203 C2216 0.960 . S
C2204 H2196 0.929 . S
C2204 C2205 1.377 . S
C2204 C2206 1.384 . S
C2205 C2204 1.377 . S
C2205 C2211 1.390 . S
C2206 H2197 0.930 . S
C2206 C2204 1.384 . S
C2206 C2207 1.372 . S
C2207 C2206 1.372 . S
C2207 C2208 1.400 . S
C2207 C2212 1.490 . S
C2208 H2198 0.930 . S
C2208 C2207 1.400 . S
C2208 C2211 1.386 . S
H2209 C2225 0.930 . S
H2210 C2226 0.931 . S
C2211 H2199 0.929 . S
C2211 C2205 1.390 . S
C2211 C2208 1.386 . S
C2212 C2207 1.490 . S
C2212 C2214 1.395 . S
C2212 C2215 1.403 . S
H2213 C2219 0.930 . S
C2214 H2200 0.930 . S
C2214 C2212 1.395 . S
C2214 C2217 1.403 . S
C2215 C2212 1.403 . S
C2215 C2216 1.524 . S
C2215 C2219 1.400 . S
C2216 H2201 0.960 . S
C2216 H2202 0.960 . S
C2216 H2203 0.960 . S
C2216 C2215 1.524 . S
C2217 C2214 1.403 . S
C2217 C2218 1.392 . S
C2217 C2221 1.495 . S
C2218 C2217 1.392 . S
C2218 C2219 1.385 . S
C2218 C2220 1.478 . S
C2219 H2213 0.930 . S
C2219 C2215 1.400 . S
C2219 C2218 1.385 . S
C2220 C2218 1.478 . S
C2220 C2222 1.381 . S
C2220 C2226 1.383 . S
C2221 C2217 1.495 . S
C2221 H2227 0.959 . S
C2221 H2228 0.961 . S
C2221 H2229 0.960 . S
C2222 C2220 1.381 . S
C2222 C2223 1.394 . S
C2222 H2230 0.930 . S
C2223 C2222 1.394 . S
C2223 C2224 1.383 . S
C2223 H2231 0.929 . S
C2224 C2223 1.383 . S
C2224 C2225 1.377 . S
C2225 H2209 0.930 . S
C2225 C2224 1.377 . S
C2225 C2226 1.379 . S
C2226 H2210 0.931 . S
C2226 C2220 1.383 . S
C2226 C2225 1.379 . S
H2227 C2221 0.959 . S
H2228 C2221 0.961 . S
H2229 C2221 0.960 . S
H2230 C2222 0.930 . S
H2231 C2223 0.929 . S
H2232 C2240 0.929 . S
H2233 C2242 0.930 . S
H2234 C2244 0.930 . S
H2235 C2247 0.929 . S
H2236 C2250 0.930 . S
H2237 C2252 0.960 . S
H2238 C2252 0.960 . S
H2239 C2252 0.960 . S
C2240 H2232 0.929 . S
C2240 C2241 1.377 . S
C2240 C2242 1.384 . S
C2241 C2240 1.377 . S
C2241 C2247 1.390 . S
C2242 H2233 0.930 . S
C2242 C2240 1.384 . S
C2242 C2243 1.372 . S
C2243 C2242 1.372 . S
C2243 C2244 1.400 . S
C2243 C2248 1.490 . S
C2244 H2234 0.930 . S
C2244 C2243 1.400 . S
C2244 C2247 1.386 . S
H2245 C2261 0.930 . S
H2246 C2262 0.931 . S
C2247 H2235 0.929 . S
C2247 C2241 1.390 . S
C2247 C2244 1.386 . S
C2248 C2243 1.490 . S
C2248 C2250 1.395 . S
C2248 C2251 1.403 . S
H2249 C2255 0.930 . S
C2250 H2236 0.930 . S
C2250 C2248 1.395 . S
C2250 C2253 1.403 . S
C2251 C2248 1.403 . S
C2251 C2252 1.524 . S
C2251 C2255 1.400 . S
C2252 H2237 0.960 . S
C2252 H2238 0.960 . S
C2252 H2239 0.960 . S
C2252 C2251 1.524 . S
C2253 C2250 1.403 . S
C2253 C2254 1.392 . S
C2253 C2257 1.495 . S
C2254 C2253 1.392 . S
C2254 C2255 1.385 . S
C2254 C2256 1.478 . S
C2255 H2249 0.930 . S
C2255 C2251 1.400 . S
C2255 C2254 1.385 . S
C2256 C2254 1.478 . S
C2256 C2258 1.381 . S
C2256 C2262 1.383 . S
C2257 C2253 1.495 . S
C2257 H2263 0.959 . S
C2257 H2264 0.961 . S
C2257 H2265 0.960 . S
C2258 C2256 1.381 . S
C2258 C2259 1.394 . S
C2258 H2266 0.930 . S
C2259 C2258 1.394 . S
C2259 C2260 1.383 . S
C2259 H2267 0.929 . S
C2260 C2259 1.383 . S
C2260 C2261 1.377 . S
C2261 H2245 0.930 . S
C2261 C2260 1.377 . S
C2261 C2262 1.379 . S
C2262 H2246 0.931 . S
C2262 C2256 1.383 . S
C2262 C2261 1.379 . S
H2263 C2257 0.959 . S
H2264 C2257 0.961 . S
H2265 C2257 0.960 . S
H2266 C2258 0.930 . S
H2267 C2259 0.929 . S
H2268 C2276 0.929 . S
H2269 C2278 0.930 . S
H2270 C2280 0.930 . S
H2271 C2283 0.929 . S
H2272 C2286 0.930 . S
H2273 C2288 0.960 . S
H2274 C2288 0.960 . S
H2275 C2288 0.960 . S
C2276 H2268 0.929 . S
C2276 C2277 1.377 . S
C2276 C2278 1.384 . S
C2277 C2276 1.377 . S
C2277 C2283 1.390 . S
C2278 H2269 0.930 . S
C2278 C2276 1.384 . S
C2278 C2279 1.372 . S
C2279 C2278 1.372 . S
C2279 C2280 1.400 . S
C2279 C2284 1.490 . S
C2280 H2270 0.930 . S
C2280 C2279 1.400 . S
C2280 C2283 1.386 . S
H2281 C2297 0.930 . S
H2282 C2298 0.931 . S
C2283 H2271 0.929 . S
C2283 C2277 1.390 . S
C2283 C2280 1.386 . S
C2284 C2279 1.490 . S
C2284 C2286 1.395 . S
C2284 C2287 1.403 . S
H2285 C2291 0.930 . S
C2286 H2272 0.930 . S
C2286 C2284 1.395 . S
C2286 C2289 1.403 . S
C2287 C2284 1.403 . S
C2287 C2288 1.524 . S
C2287 C2291 1.400 . S
C2288 H2273 0.960 . S
C2288 H2274 0.960 . S
C2288 H2275 0.960 . S
C2288 C2287 1.524 . S
C2289 C2286 1.403 . S
C2289 C2290 1.392 . S
C2289 C2293 1.495 . S
C2290 C2289 1.392 . S
C2290 C2291 1.385 . S
C2290 C2292 1.478 . S
C2291 H2285 0.930 . S
C2291 C2287 1.400 . S
C2291 C2290 1.385 . S
C2292 C2290 1.478 . S
C2292 C2294 1.381 . S
C2292 C2298 1.383 . S
C2293 C2289 1.495 . S
C2293 H2299 0.959 . S
C2293 H2300 0.961 . S
C2293 H2301 0.960 . S
C2294 C2292 1.381 . S
C2294 C2295 1.394 . S
C2294 H2302 0.930 . S
C2295 C2294 1.394 . S
C2295 C2296 1.383 . S
C2295 H2303 0.929 . S
C2296 C2295 1.383 . S
C2296 C2297 1.377 . S
C2297 H2281 0.930 . S
C2297 C2296 1.377 . S
C2297 C2298 1.379 . S
C2298 H2282 0.931 . S
C2298 C2292 1.383 . S
C2298 C2297 1.379 . S
H2299 C2293 0.959 . S
H2300 C2293 0.961 . S
H2301 C2293 0.960 . S
H2302 C2294 0.930 . S
H2303 C2295 0.929 . S
H2304 C2312 0.929 . S
H2305 C2314 0.930 . S
H2306 C2316 0.930 . S
H2307 C2319 0.929 . S
H2308 C2322 0.930 . S
H2309 C2324 0.960 . S
H2310 C2324 0.960 . S
H2311 C2324 0.960 . S
C2312 H2304 0.929 . S
C2312 C2313 1.377 . S
C2312 C2314 1.384 . S
C2313 C2312 1.377 . S
C2313 C2319 1.390 . S
C2314 H2305 0.930 . S
C2314 C2312 1.384 . S
C2314 C2315 1.372 . S
C2315 C2314 1.372 . S
C2315 C2316 1.400 . S
C2315 C2320 1.490 . S
C2316 H2306 0.930 . S
C2316 C2315 1.400 . S
C2316 C2319 1.386 . S
H2317 C2333 0.930 . S
H2318 C2334 0.931 . S
C2319 H2307 0.929 . S
C2319 C2313 1.390 . S
C2319 C2316 1.386 . S
C2320 C2315 1.490 . S
C2320 C2322 1.395 . S
C2320 C2323 1.403 . S
H2321 C2327 0.930 . S
C2322 H2308 0.930 . S
C2322 C2320 1.395 . S
C2322 C2325 1.403 . S
C2323 C2320 1.403 . S
C2323 C2324 1.524 . S
C2323 C2327 1.400 . S
C2324 H2309 0.960 . S
C2324 H2310 0.960 . S
C2324 H2311 0.960 . S
C2324 C2323 1.524 . S
C2325 C2322 1.403 . S
C2325 C2326 1.392 . S
C2325 C2329 1.495 . S
C2326 C2325 1.392 . S
C2326 C2327 1.385 . S
C2326 C2328 1.478 . S
C2327 H2321 0.930 . S
C2327 C2323 1.400 . S
C2327 C2326 1.385 . S
C2328 C2326 1.478 . S
C2328 C2330 1.381 . S
C2328 C2334 1.383 . S
C2329 C2325 1.495 . S
C2329 H2335 0.959 . S
C2329 H2336 0.961 . S
C2329 H2337 0.960 . S
C2330 C2328 1.381 . S
C2330 C2331 1.394 . S
C2330 H2338 0.930 . S
C2331 C2330 1.394 . S
C2331 C2332 1.383 . S
C2331 H2339 0.929 . S
C2332 C2331 1.383 . S
C2332 C2333 1.377 . S
C2333 H2317 0.930 . S
C2333 C2332 1.377 . S
C2333 C2334 1.379 . S
C2334 H2318 0.931 . S
C2334 C2328 1.383 . S
C2334 C2333 1.379 . S
H2335 C2329 0.959 . S
H2336 C2329 0.961 . S
H2337 C2329 0.960 . S
H2338 C2330 0.930 . S
H2339 C2331 0.929 . S
H2340 C2348 0.929 . S
H2341 C2350 0.930 . S
H2342 C2352 0.930 . S
H2343 C2355 0.929 . S
H2344 C2358 0.930 . S
H2345 C2360 0.960 . S
H2346 C2360 0.960 . S
H2347 C2360 0.960 . S
C2348 H2340 0.929 . S
C2348 C2349 1.377 . S
C2348 C2350 1.384 . S
C2349 C2348 1.377 . S
C2349 C2355 1.390 . S
C2350 H2341 0.930 . S
C2350 C2348 1.384 . S
C2350 C2351 1.372 . S
C2351 C2350 1.372 . S
C2351 C2352 1.400 . S
C2351 C2356 1.490 . S
C2352 H2342 0.930 . S
C2352 C2351 1.400 . S
C2352 C2355 1.386 . S
H2353 C2369 0.930 . S
H2354 C2370 0.931 . S
C2355 H2343 0.929 . S
C2355 C2349 1.390 . S
C2355 C2352 1.386 . S
C2356 C2351 1.490 . S
C2356 C2358 1.395 . S
C2356 C2359 1.403 . S
H2357 C2363 0.930 . S
C2358 H2344 0.930 . S
C2358 C2356 1.395 . S
C2358 C2361 1.403 . S
C2359 C2356 1.403 . S
C2359 C2360 1.524 . S
C2359 C2363 1.400 . S
C2360 H2345 0.960 . S
C2360 H2346 0.960 . S
C2360 H2347 0.960 . S
C2360 C2359 1.524 . S
C2361 C2358 1.403 . S
C2361 C2362 1.392 . S
C2361 C2365 1.495 . S
C2362 C2361 1.392 . S
C2362 C2363 1.385 . S
C2362 C2364 1.478 . S
C2363 H2357 0.930 . S
C2363 C2359 1.400 . S
C2363 C2362 1.385 . S
C2364 C2362 1.478 . S
C2364 C2366 1.381 . S
C2364 C2370 1.383 . S
C2365 C2361 1.495 . S
C2365 H2371 0.959 . S
C2365 H2372 0.961 . S
C2365 H2373 0.960 . S
C2366 C2364 1.381 . S
C2366 C2367 1.394 . S
C2366 H2374 0.930 . S
C2367 C2366 1.394 . S
C2367 C2368 1.383 . S
C2367 H2375 0.929 . S
C2368 C2367 1.383 . S
C2368 C2369 1.377 . S
C2369 H2353 0.930 . S
C2369 C2368 1.377 . S
C2369 C2370 1.379 . S
C2370 H2354 0.931 . S
C2370 C2364 1.383 . S
C2370 C2369 1.379 . S
H2371 C2365 0.959 . S
H2372 C2365 0.961 . S
H2373 C2365 0.960 . S
H2374 C2366 0.930 . S
H2375 C2367 0.929 . S
H2376 C2384 0.929 . S
H2377 C2386 0.930 . S
H2378 C2388 0.930 . S
H2379 C2391 0.929 . S
H2380 C2394 0.930 . S
H2381 C2396 0.960 . S
H2382 C2396 0.960 . S
H2383 C2396 0.960 . S
C2384 H2376 0.929 . S
C2384 C2385 1.377 . S
C2384 C2386 1.384 . S
C2385 C2384 1.377 . S
C2385 C2391 1.390 . S
C2386 H2377 0.930 . S
C2386 C2384 1.384 . S
C2386 C2387 1.372 . S
C2387 C2386 1.372 . S
C2387 C2388 1.400 . S
C2387 C2392 1.490 . S
C2388 H2378 0.930 . S
C2388 C2387 1.400 . S
C2388 C2391 1.386 . S
H2389 C2405 0.930 . S
H2390 C2406 0.931 . S
C2391 H2379 0.929 . S
C2391 C2385 1.390 . S
C2391 C2388 1.386 . S
C2392 C2387 1.490 . S
C2392 C2394 1.395 . S
C2392 C2395 1.403 . S
H2393 C2399 0.930 . S
C2394 H2380 0.930 . S
C2394 C2392 1.395 . S
C2394 C2397 1.403 . S
C2395 C2392 1.403 . S
C2395 C2396 1.524 . S
C2395 C2399 1.400 . S
C2396 H2381 0.960 . S
C2396 H2382 0.960 . S
C2396 H2383 0.960 . S
C2396 C2395 1.524 . S
C2397 C2394 1.403 . S
C2397 C2398 1.392 . S
C2397 C2401 1.495 . S
C2398 C2397 1.392 . S
C2398 C2399 1.385 . S
C2398 C2400 1.478 . S
C2399 H2393 0.930 . S
C2399 C2395 1.400 . S
C2399 C2398 1.385 . S
C2400 C2398 1.478 . S
C2400 C2402 1.381 . S
C2400 C2406 1.383 . S
C2401 C2397 1.495 . S
C2401 H2407 0.959 . S
C2401 H2408 0.961 . S
C2401 H2409 0.960 . S
C2402 C2400 1.381 . S
C2402 C2403 1.394 . S
C2402 H2410 0.930 . S
C2403 C2402 1.394 . S
C2403 C2404 1.383 . S
C2403 H2411 0.929 . S
C2404 C2403 1.383 . S
C2404 C2405 1.377 . S
C2405 H2389 0.930 . S
C2405 C2404 1.377 . S
C2405 C2406 1.379 . S
C2406 H2390 0.931 . S
C2406 C2400 1.383 . S
C2406 C2405 1.379 . S
H2407 C2401 0.959 . S
H2408 C2401 0.961 . S
H2409 C2401 0.960 . S
H2410 C2402 0.930 . S
H2411 C2403 0.929 . S
H2412 C2420 0.929 . S
H2413 C2422 0.930 . S
H2414 C2424 0.930 . S
H2415 C2427 0.929 . S
H2416 C2430 0.930 . S
H2417 C2432 0.960 . S
H2418 C2432 0.960 . S
H2419 C2432 0.960 . S
C2420 H2412 0.929 . S
C2420 C2421 1.377 . S
C2420 C2422 1.384 . S
C2421 C2420 1.377 . S
C2421 C2427 1.390 . S
C2422 H2413 0.930 . S
C2422 C2420 1.384 . S
C2422 C2423 1.372 . S
C2423 C2422 1.372 . S
C2423 C2424 1.400 . S
C2423 C2428 1.490 . S
C2424 H2414 0.930 . S
C2424 C2423 1.400 . S
C2424 C2427 1.386 . S
H2425 C2441 0.930 . S
H2426 C2442 0.931 . S
C2427 H2415 0.929 . S
C2427 C2421 1.390 . S
C2427 C2424 1.386 . S
C2428 C2423 1.490 . S
C2428 C2430 1.395 . S
C2428 C2431 1.403 . S
H2429 C2435 0.930 . S
C2430 H2416 0.930 . S
C2430 C2428 1.395 . S
C2430 C2433 1.403 . S
C2431 C2428 1.403 . S
C2431 C2432 1.524 . S
C2431 C2435 1.400 . S
C2432 H2417 0.960 . S
C2432 H2418 0.960 . S
C2432 H2419 0.960 . S
C2432 C2431 1.524 . S
C2433 C2430 1.403 . S
C2433 C2434 1.392 . S
C2433 C2437 1.495 . S
C2434 C2433 1.392 . S
C2434 C2435 1.385 . S
C2434 C2436 1.478 . S
C2435 H2429 0.930 . S
C2435 C2431 1.400 . S
C2435 C2434 1.385 . S
C2436 C2434 1.478 . S
C2436 C2438 1.381 . S
C2436 C2442 1.383 . S
C2437 C2433 1.495 . S
C2437 H2443 0.959 . S
C2437 H2444 0.961 . S
C2437 H2445 0.960 . S
C2438 C2436 1.381 . S
C2438 C2439 1.394 . S
C2438 H2446 0.930 . S
C2439 C2438 1.394 . S
C2439 C2440 1.383 . S
C2439 H2447 0.929 . S
C2440 C2439 1.383 . S
C2440 C2441 1.377 . S
C2441 H2425 0.930 . S
C2441 C2440 1.377 . S
C2441 C2442 1.379 . S
C2442 H2426 0.931 . S
C2442 C2436 1.383 . S
C2442 C2441 1.379 . S
H2443 C2437 0.959 . S
H2444 C2437 0.961 . S
H2445 C2437 0.960 . S
H2446 C2438 0.930 . S
H2447 C2439 0.929 . S
H2448 C2456 0.929 . S
H2449 C2458 0.930 . S
H2450 C2460 0.930 . S
H2451 C2463 0.929 . S
H2452 C2466 0.930 . S
H2453 C2468 0.960 . S
H2454 C2468 0.960 . S
H2455 C2468 0.960 . S
C2456 H2448 0.929 . S
C2456 C2457 1.377 . S
C2456 C2458 1.384 . S
C2457 C2456 1.377 . S
C2457 C2463 1.390 . S
C2458 H2449 0.930 . S
C2458 C2456 1.384 . S
C2458 C2459 1.372 . S
C2459 C2458 1.372 . S
C2459 C2460 1.400 . S
C2459 C2464 1.490 . S
C2460 H2450 0.930 . S
C2460 C2459 1.400 . S
C2460 C2463 1.386 . S
H2461 C2477 0.930 . S
H2462 C2478 0.931 . S
C2463 H2451 0.929 . S
C2463 C2457 1.390 . S
C2463 C2460 1.386 . S
C2464 C2459 1.490 . S
C2464 C2466 1.395 . S
C2464 C2467 1.403 . S
H2465 C2471 0.930 . S
C2466 H2452 0.930 . S
C2466 C2464 1.395 . S
C2466 C2469 1.403 . S
C2467 C2464 1.403 . S
C2467 C2468 1.524 . S
C2467 C2471 1.400 . S
C2468 H2453 0.960 . S
C2468 H2454 0.960 . S
C2468 H2455 0.960 . S
C2468 C2467 1.524 . S
C2469 C2466 1.403 . S
C2469 C2470 1.392 . S
C2469 C2473 1.495 . S
C2470 C2469 1.392 . S
C2470 C2471 1.385 . S
C2470 C2472 1.478 . S
C2471 H2465 0.930 . S
C2471 C2467 1.400 . S
C2471 C2470 1.385 . S
C2472 C2470 1.478 . S
C2472 C2474 1.381 . S
C2472 C2478 1.383 . S
C2473 C2469 1.495 . S
C2473 H2479 0.959 . S
C2473 H2480 0.961 . S
C2473 H2481 0.960 . S
C2474 C2472 1.381 . S
C2474 C2475 1.394 . S
C2474 H2482 0.930 . S
C2475 C2474 1.394 . S
C2475 C2476 1.383 . S
C2475 H2483 0.929 . S
C2476 C2475 1.383 . S
C2476 C2477 1.377 . S
C2477 H2461 0.930 . S
C2477 C2476 1.377 . S
C2477 C2478 1.379 . S
C2478 H2462 0.931 . S
C2478 C2472 1.383 . S
C2478 C2477 1.379 . S
H2479 C2473 0.959 . S
H2480 C2473 0.961 . S
H2481 C2473 0.960 . S
H2482 C2474 0.930 . S
H2483 C2475 0.929 . S
H2484 C2492 0.929 . S
H2485 C2494 0.930 . S
H2486 C2496 0.930 . S
H2487 C2499 0.929 . S
H2488 C2502 0.930 . S
H2489 C2504 0.960 . S
H2490 C2504 0.960 . S
H2491 C2504 0.960 . S
C2492 H2484 0.929 . S
C2492 C2493 1.377 . S
C2492 C2494 1.384 . S
C2493 C2492 1.377 . S
C2493 C2499 1.390 . S
C2494 H2485 0.930 . S
C2494 C2492 1.384 . S
C2494 C2495 1.372 . S
C2495 C2494 1.372 . S
C2495 C2496 1.400 . S
C2495 C2500 1.490 . S
C2496 H2486 0.930 . S
C2496 C2495 1.400 . S
C2496 C2499 1.386 . S
H2497 C2513 0.930 . S
H2498 C2514 0.931 . S
C2499 H2487 0.929 . S
C2499 C2493 1.390 . S
C2499 C2496 1.386 . S
C2500 C2495 1.490 . S
C2500 C2502 1.395 . S
C2500 C2503 1.403 . S
H2501 C2507 0.930 . S
C2502 H2488 0.930 . S
C2502 C2500 1.395 . S
C2502 C2505 1.403 . S
C2503 C2500 1.403 . S
C2503 C2504 1.524 . S
C2503 C2507 1.400 . S
C2504 H2489 0.960 . S
C2504 H2490 0.960 . S
C2504 H2491 0.960 . S
C2504 C2503 1.524 . S
C2505 C2502 1.403 . S
C2505 C2506 1.392 . S
C2505 C2509 1.495 . S
C2506 C2505 1.392 . S
C2506 C2507 1.385 . S
C2506 C2508 1.478 . S
C2507 H2501 0.930 . S
C2507 C2503 1.400 . S
C2507 C2506 1.385 . S
C2508 C2506 1.478 . S
C2508 C2510 1.381 . S
C2508 C2514 1.383 . S
C2509 C2505 1.495 . S
C2509 H2515 0.959 . S
C2509 H2516 0.961 . S
C2509 H2517 0.960 . S
C2510 C2508 1.381 . S
C2510 C2511 1.394 . S
C2510 H2518 0.930 . S
C2511 C2510 1.394 . S
C2511 C2512 1.383 . S
C2511 H2519 0.929 . S
C2512 C2511 1.383 . S
C2512 C2513 1.377 . S
C2513 H2497 0.930 . S
C2513 C2512 1.377 . S
C2513 C2514 1.379 . S
C2514 H2498 0.931 . S
C2514 C2508 1.383 . S
C2514 C2513 1.379 . S
H2515 C2509 0.959 . S
H2516 C2509 0.961 . S
H2517 C2509 0.960 . S
H2518 C2510 0.930 . S
H2519 C2511 0.929 . S
H2520 C2528 0.929 . S
H2521 C2530 0.930 . S
H2522 C2532 0.930 . S
H2523 C2535 0.929 . S
H2524 C2538 0.930 . S
H2525 C2540 0.960 . S
H2526 C2540 0.960 . S
H2527 C2540 0.960 . S
C2528 H2520 0.929 . S
C2528 C2529 1.377 . S
C2528 C2530 1.384 . S
C2529 C2528 1.377 . S
C2529 C2535 1.390 . S
C2530 H2521 0.930 . S
C2530 C2528 1.384 . S
C2530 C2531 1.372 . S
C2531 C2530 1.372 . S
C2531 C2532 1.400 . S
C2531 C2536 1.490 . S
C2532 H2522 0.930 . S
C2532 C2531 1.400 . S
C2532 C2535 1.386 . S
H2533 C2549 0.930 . S
H2534 C2550 0.931 . S
C2535 H2523 0.929 . S
C2535 C2529 1.390 . S
C2535 C2532 1.386 . S
C2536 C2531 1.490 . S
C2536 C2538 1.395 . S
C2536 C2539 1.403 . S
H2537 C2543 0.930 . S
C2538 H2524 0.930 . S
C2538 C2536 1.395 . S
C2538 C2541 1.403 . S
C2539 C2536 1.403 . S
C2539 C2540 1.524 . S
C2539 C2543 1.400 . S
C2540 H2525 0.960 . S
C2540 H2526 0.960 . S
C2540 H2527 0.960 . S
C2540 C2539 1.524 . S
C2541 C2538 1.403 . S
C2541 C2542 1.392 . S
C2541 C2545 1.495 . S
C2542 C2541 1.392 . S
C2542 C2543 1.385 . S
C2542 C2544 1.478 . S
C2543 H2537 0.930 . S
C2543 C2539 1.400 . S
C2543 C2542 1.385 . S
C2544 C2542 1.478 . S
C2544 C2546 1.381 . S
C2544 C2550 1.383 . S
C2545 C2541 1.495 . S
C2545 H2551 0.959 . S
C2545 H2552 0.961 . S
C2545 H2553 0.960 . S
C2546 C2544 1.381 . S
C2546 C2547 1.394 . S
C2546 H2554 0.930 . S
C2547 C2546 1.394 . S
C2547 C2548 1.383 . S
C2547 H2555 0.929 . S
C2548 C2547 1.383 . S
C2548 C2549 1.377 . S
C2549 H2533 0.930 . S
C2549 C2548 1.377 . S
C2549 C2550 1.379 . S
C2550 H2534 0.931 . S
C2550 C2544 1.383 . S
C2550 C2549 1.379 . S
H2551 C2545 0.959 . S
H2552 C2545 0.961 . S
H2553 C2545 0.960 . S
H2554 C2546 0.930 . S
H2555 C2547 0.929 . S
H2556 C2564 0.929 . S
H2557 C2566 0.930 . S
H2558 C2568 0.930 . S
H2559 C2571 0.929 . S
H2560 C2574 0.930 . S
H2561 C2576 0.960 . S
H2562 C2576 0.960 . S
H2563 C2576 0.960 . S
C2564 H2556 0.929 . S
C2564 C2565 1.377 . S
C2564 C2566 1.384 . S
C2565 C2564 1.377 . S
C2565 C2571 1.390 . S
C2566 H2557 0.930 . S
C2566 C2564 1.384 . S
C2566 C2567 1.372 . S
C2567 C2566 1.372 . S
C2567 C2568 1.400 . S
C2567 C2572 1.490 . S
C2568 H2558 0.930 . S
C2568 C2567 1.400 . S
C2568 C2571 1.386 . S
H2569 C2585 0.930 . S
H2570 C2586 0.931 . S
C2571 H2559 0.929 . S
C2571 C2565 1.390 . S
C2571 C2568 1.386 . S
C2572 C2567 1.490 . S
C2572 C2574 1.395 . S
C2572 C2575 1.403 . S
H2573 C2579 0.930 . S
C2574 H2560 0.930 . S
C2574 C2572 1.395 . S
C2574 C2577 1.403 . S
C2575 C2572 1.403 . S
C2575 C2576 1.524 . S
C2575 C2579 1.400 . S
C2576 H2561 0.960 . S
C2576 H2562 0.960 . S
C2576 H2563 0.960 . S
C2576 C2575 1.524 . S
C2577 C2574 1.403 . S
C2577 C2578 1.392 . S
C2577 C2581 1.495 . S
C2578 C2577 1.392 . S
C2578 C2579 1.385 . S
C2578 C2580 1.478 . S
C2579 H2573 0.930 . S
C2579 C2575 1.400 . S
C2579 C2578 1.385 . S
C2580 C2578 1.478 . S
C2580 C2582 1.381 . S
C2580 C2586 1.383 . S
C2581 C2577 1.495 . S
C2581 H2587 0.959 . S
C2581 H2588 0.961 . S
C2581 H2589 0.960 . S
C2582 C2580 1.381 . S
C2582 C2583 1.394 . S
C2582 H2590 0.930 . S
C2583 C2582 1.394 . S
C2583 C2584 1.383 . S
C2583 H2591 0.929 . S
C2584 C2583 1.383 . S
C2584 C2585 1.377 . S
C2585 H2569 0.930 . S
C2585 C2584 1.377 . S
C2585 C2586 1.379 . S
C2586 H2570 0.931 . S
C2586 C2580 1.383 . S
C2586 C2585 1.379 . S
H2587 C2581 0.959 . S
H2588 C2581 0.961 . S
H2589 C2581 0.960 . S
H2590 C2582 0.930 . S
H2591 C2583 0.929 . S
H2592 C2600 0.929 . S
H2593 C2602 0.930 . S
H2594 C2604 0.930 . S
H2595 C2607 0.929 . S
H2596 C2610 0.930 . S
H2597 C2612 0.960 . S
H2598 C2612 0.960 . S
H2599 C2612 0.960 . S
C2600 H2592 0.929 . S
C2600 C2601 1.377 . S
C2600 C2602 1.384 . S
C2601 C2600 1.377 . S
C2601 C2607 1.390 . S
C2602 H2593 0.930 . S
C2602 C2600 1.384 . S
C2602 C2603 1.372 . S
C2603 C2602 1.372 . S
C2603 C2604 1.400 . S
C2603 C2608 1.490 . S
C2604 H2594 0.930 . S
C2604 C2603 1.400 . S
C2604 C2607 1.386 . S
H2605 C2621 0.930 . S
H2606 C2622 0.931 . S
C2607 H2595 0.929 . S
C2607 C2601 1.390 . S
C2607 C2604 1.386 . S
C2608 C2603 1.490 . S
C2608 C2610 1.395 . S
C2608 C2611 1.403 . S
H2609 C2615 0.930 . S
C2610 H2596 0.930 . S
C2610 C2608 1.395 . S
C2610 C2613 1.403 . S
C2611 C2608 1.403 . S
C2611 C2612 1.524 . S
C2611 C2615 1.400 . S
C2612 H2597 0.960 . S
C2612 H2598 0.960 . S
C2612 H2599 0.960 . S
C2612 C2611 1.524 . S
C2613 C2610 1.403 . S
C2613 C2614 1.392 . S
C2613 C2617 1.495 . S
C2614 C2613 1.392 . S
C2614 C2615 1.385 . S
C2614 C2616 1.478 . S
C2615 H2609 0.930 . S
C2615 C2611 1.400 . S
C2615 C2614 1.385 . S
C2616 C2614 1.478 . S
C2616 C2618 1.381 . S
C2616 C2622 1.383 . S
C2617 C2613 1.495 . S
C2617 H2623 0.959 . S
C2617 H2624 0.961 . S
C2617 H2625 0.960 . S
C2618 C2616 1.381 . S
C2618 C2619 1.394 . S
C2618 H2626 0.930 . S
C2619 C2618 1.394 . S
C2619 C2620 1.383 . S
C2619 H2627 0.929 . S
C2620 C2619 1.383 . S
C2620 C2621 1.377 . S
C2621 H2605 0.930 . S
C2621 C2620 1.377 . S
C2621 C2622 1.379 . S
C2622 H2606 0.931 . S
C2622 C2616 1.383 . S
C2622 C2621 1.379 . S
H2623 C2617 0.959 . S
H2624 C2617 0.961 . S
H2625 C2617 0.960 . S
H2626 C2618 0.930 . S
H2627 C2619 0.929 . S
H2628 C2636 0.929 . S
H2629 C2638 0.930 . S
H2630 C2640 0.930 . S
H2631 C2643 0.929 . S
H2632 C2646 0.930 . S
H2633 C2648 0.960 . S
H2634 C2648 0.960 . S
H2635 C2648 0.960 . S
C2636 H2628 0.929 . S
C2636 C2637 1.377 . S
C2636 C2638 1.384 . S
C2637 C2636 1.377 . S
C2637 C2643 1.390 . S
C2638 H2629 0.930 . S
C2638 C2636 1.384 . S
C2638 C2639 1.372 . S
C2639 C2638 1.372 . S
C2639 C2640 1.400 . S
C2639 C2644 1.490 . S
C2640 H2630 0.930 . S
C2640 C2639 1.400 . S
C2640 C2643 1.386 . S
H2641 C2657 0.930 . S
H2642 C2658 0.931 . S
C2643 H2631 0.929 . S
C2643 C2637 1.390 . S
C2643 C2640 1.386 . S
C2644 C2639 1.490 . S
C2644 C2646 1.395 . S
C2644 C2647 1.403 . S
H2645 C2651 0.930 . S
C2646 H2632 0.930 . S
C2646 C2644 1.395 . S
C2646 C2649 1.403 . S
C2647 C2644 1.403 . S
C2647 C2648 1.524 . S
C2647 C2651 1.400 . S
C2648 H2633 0.960 . S
C2648 H2634 0.960 . S
C2648 H2635 0.960 . S
C2648 C2647 1.524 . S
C2649 C2646 1.403 . S
C2649 C2650 1.392 . S
C2649 C2653 1.495 . S
C2650 C2649 1.392 . S
C2650 C2651 1.385 . S
C2650 C2652 1.478 . S
C2651 H2645 0.930 . S
C2651 C2647 1.400 . S
C2651 C2650 1.385 . S
C2652 C2650 1.478 . S
C2652 C2654 1.381 . S
C2652 C2658 1.383 . S
C2653 C2649 1.495 . S
C2653 H2659 0.959 . S
C2653 H2660 0.961 . S
C2653 H2661 0.960 . S
C2654 C2652 1.381 . S
C2654 C2655 1.394 . S
C2654 H2662 0.930 . S
C2655 C2654 1.394 . S
C2655 C2656 1.383 . S
C2655 H2663 0.929 . S
C2656 C2655 1.383 . S
C2656 C2657 1.377 . S
C2657 H2641 0.930 . S
C2657 C2656 1.377 . S
C2657 C2658 1.379 . S
C2658 H2642 0.931 . S
C2658 C2652 1.383 . S
C2658 C2657 1.379 . S
H2659 C2653 0.959 . S
H2660 C2653 0.961 . S
H2661 C2653 0.960 . S
H2662 C2654 0.930 . S
H2663 C2655 0.929 . S
H2664 C2672 0.929 . S
H2665 C2674 0.930 . S
H2666 C2676 0.930 . S
H2667 C2679 0.929 . S
H2668 C2682 0.930 . S
H2669 C2684 0.960 . S
H2670 C2684 0.960 . S
H2671 C2684 0.960 . S
C2672 H2664 0.929 . S
C2672 C2673 1.377 . S
C2672 C2674 1.384 . S
C2673 C2672 1.377 . S
C2673 C2679 1.390 . S
C2674 H2665 0.930 . S
C2674 C2672 1.384 . S
C2674 C2675 1.372 . S
C2675 C2674 1.372 . S
C2675 C2676 1.400 . S
C2675 C2680 1.490 . S
C2676 H2666 0.930 . S
C2676 C2675 1.400 . S
C2676 C2679 1.386 . S
H2677 C2693 0.930 . S
H2678 C2694 0.931 . S
C2679 H2667 0.929 . S
C2679 C2673 1.390 . S
C2679 C2676 1.386 . S
C2680 C2675 1.490 . S
C2680 C2682 1.395 . S
C2680 C2683 1.403 . S
H2681 C2687 0.930 . S
C2682 H2668 0.930 . S
C2682 C2680 1.395 . S
C2682 C2685 1.403 . S
C2683 C2680 1.403 . S
C2683 C2684 1.524 . S
C2683 C2687 1.400 . S
C2684 H2669 0.960 . S
C2684 H2670 0.960 . S
C2684 H2671 0.960 . S
C2684 C2683 1.524 . S
C2685 C2682 1.403 . S
C2685 C2686 1.392 . S
C2685 C2689 1.495 . S
C2686 C2685 1.392 . S
C2686 C2687 1.385 . S
C2686 C2688 1.478 . S
C2687 H2681 0.930 . S
C2687 C2683 1.400 . S
C2687 C2686 1.385 . S
C2688 C2686 1.478 . S
C2688 C2690 1.381 . S
C2688 C2694 1.383 . S
C2689 C2685 1.495 . S
C2689 H2695 0.959 . S
C2689 H2696 0.961 . S
C2689 H2697 0.960 . S
C2690 C2688 1.381 . S
C2690 C2691 1.394 . S
C2690 H2698 0.930 . S
C2691 C2690 1.394 . S
C2691 C2692 1.383 . S
C2691 H2699 0.929 . S
C2692 C2691 1.383 . S
C2692 C2693 1.377 . S
C2693 H2677 0.930 . S
C2693 C2692 1.377 . S
C2693 C2694 1.379 . S
C2694 H2678 0.931 . S
C2694 C2688 1.383 . S
C2694 C2693 1.379 . S
H2695 C2689 0.959 . S
H2696 C2689 0.961 . S
H2697 C2689 0.960 . S
H2698 C2690 0.930 . S
H2699 C2691 0.929 . S
H2700 C2708 0.929 . S
H2701 C2710 0.930 . S
H2702 C2712 0.930 . S
H2703 C2715 0.929 . S
H2704 C2718 0.930 . S
H2705 C2720 0.960 . S
H2706 C2720 0.960 . S
H2707 C2720 0.960 . S
C2708 H2700 0.929 . S
C2708 C2709 1.377 . S
C2708 C2710 1.384 . S
C2709 C2708 1.377 . S
C2709 C2715 1.390 . S
C2710 H2701 0.930 . S
C2710 C2708 1.384 . S
C2710 C2711 1.372 . S
C2711 C2710 1.372 . S
C2711 C2712 1.400 . S
C2711 C2716 1.490 . S
C2712 H2702 0.930 . S
C2712 C2711 1.400 . S
C2712 C2715 1.386 . S
H2713 C2729 0.930 . S
H2714 C2730 0.931 . S
C2715 H2703 0.929 . S
C2715 C2709 1.390 . S
C2715 C2712 1.386 . S
C2716 C2711 1.490 . S
C2716 C2718 1.395 . S
C2716 C2719 1.403 . S
H2717 C2723 0.930 . S
C2718 H2704 0.930 . S
C2718 C2716 1.395 . S
C2718 C2721 1.403 . S
C2719 C2716 1.403 . S
C2719 C2720 1.524 . S
C2719 C2723 1.400 . S
C2720 H2705 0.960 . S
C2720 H2706 0.960 . S
C2720 H2707 0.960 . S
C2720 C2719 1.524 . S
C2721 C2718 1.403 . S
C2721 C2722 1.392 . S
C2721 C2725 1.495 . S
C2722 C2721 1.392 . S
C2722 C2723 1.385 . S
C2722 C2724 1.478 . S
C2723 H2717 0.930 . S
C2723 C2719 1.400 . S
C2723 C2722 1.385 . S
C2724 C2722 1.478 . S
C2724 C2726 1.381 . S
C2724 C2730 1.383 . S
C2725 C2721 1.495 . S
C2725 H2731 0.959 . S
C2725 H2732 0.961 . S
C2725 H2733 0.960 . S
C2726 C2724 1.381 . S
C2726 C2727 1.394 . S
C2726 H2734 0.930 . S
C2727 C2726 1.394 . S
C2727 C2728 1.383 . S
C2727 H2735 0.929 . S
C2728 C2727 1.383 . S
C2728 C2729 1.377 . S
C2729 H2713 0.930 . S
C2729 C2728 1.377 . S
C2729 C2730 1.379 . S
C2730 H2714 0.931 . S
C2730 C2724 1.383 . S
C2730 C2729 1.379 . S
H2731 C2725 0.959 . S
H2732 C2725 0.961 . S
H2733 C2725 0.960 . S
H2734 C2726 0.930 . S
H2735 C2727 0.929 . S
H2736 C2744 0.929 . S
H2737 C2746 0.930 . S
H2738 C2748 0.930 . S
H2739 C2751 0.929 . S
H2740 C2754 0.930 . S
H2741 C2756 0.960 . S
H2742 C2756 0.960 . S
H2743 C2756 0.960 . S
C2744 H2736 0.929 . S
C2744 C2745 1.377 . S
C2744 C2746 1.384 . S
C2745 C2744 1.377 . S
C2745 C2751 1.390 . S
C2746 H2737 0.930 . S
C2746 C2744 1.384 . S
C2746 C2747 1.372 . S
C2747 C2746 1.372 . S
C2747 C2748 1.400 . S
C2747 C2752 1.490 . S
C2748 H2738 0.930 . S
C2748 C2747 1.400 . S
C2748 C2751 1.386 . S
H2749 C2765 0.930 . S
H2750 C2766 0.931 . S
C2751 H2739 0.929 . S
C2751 C2745 1.390 . S
C2751 C2748 1.386 . S
C2752 C2747 1.490 . S
C2752 C2754 1.395 . S
C2752 C2755 1.403 . S
H2753 C2759 0.930 . S
C2754 H2740 0.930 . S
C2754 C2752 1.395 . S
C2754 C2757 1.403 . S
C2755 C2752 1.403 . S
C2755 C2756 1.524 . S
C2755 C2759 1.400 . S
C2756 H2741 0.960 . S
C2756 H2742 0.960 . S
C2756 H2743 0.960 . S
C2756 C2755 1.524 . S
C2757 C2754 1.403 . S
C2757 C2758 1.392 . S
C2757 C2761 1.495 . S
C2758 C2757 1.392 . S
C2758 C2759 1.385 . S
C2758 C2760 1.478 . S
C2759 H2753 0.930 . S
C2759 C2755 1.400 . S
C2759 C2758 1.385 . S
C2760 C2758 1.478 . S
C2760 C2762 1.381 . S
C2760 C2766 1.383 . S
C2761 C2757 1.495 . S
C2761 H2767 0.959 . S
C2761 H2768 0.961 . S
C2761 H2769 0.960 . S
C2762 C2760 1.381 . S
C2762 C2763 1.394 . S
C2762 H2770 0.930 . S
C2763 C2762 1.394 . S
C2763 C2764 1.383 . S
C2763 H2771 0.929 . S
C2764 C2763 1.383 . S
C2764 C2765 1.377 . S
C2765 H2749 0.930 . S
C2765 C2764 1.377 . S
C2765 C2766 1.379 . S
C2766 H2750 0.931 . S
C2766 C2760 1.383 . S
C2766 C2765 1.379 . S
H2767 C2761 0.959 . S
H2768 C2761 0.961 . S
H2769 C2761 0.960 . S
H2770 C2762 0.930 . S
H2771 C2763 0.929 . S
H2772 C2780 0.929 . S
H2773 C2782 0.930 . S
H2774 C2784 0.930 . S
H2775 C2787 0.929 . S
H2776 C2790 0.930 . S
H2777 C2792 0.960 . S
H2778 C2792 0.960 . S
H2779 C2792 0.960 . S
C2780 H2772 0.929 . S
C2780 C2781 1.377 . S
C2780 C2782 1.384 . S
C2781 C2780 1.377 . S
C2781 C2787 1.390 . S
C2782 H2773 0.930 . S
C2782 C2780 1.384 . S
C2782 C2783 1.372 . S
C2783 C2782 1.372 . S
C2783 C2784 1.400 . S
C2783 C2788 1.490 . S
C2784 H2774 0.930 . S
C2784 C2783 1.400 . S
C2784 C2787 1.386 . S
H2785 C2801 0.930 . S
H2786 C2802 0.931 . S
C2787 H2775 0.929 . S
C2787 C2781 1.390 . S
C2787 C2784 1.386 . S
C2788 C2783 1.490 . S
C2788 C2790 1.395 . S
C2788 C2791 1.403 . S
H2789 C2795 0.930 . S
C2790 H2776 0.930 . S
C2790 C2788 1.395 . S
C2790 C2793 1.403 . S
C2791 C2788 1.403 . S
C2791 C2792 1.524 . S
C2791 C2795 1.400 . S
C2792 H2777 0.960 . S
C2792 H2778 0.960 . S
C2792 H2779 0.960 . S
C2792 C2791 1.524 . S
C2793 C2790 1.403 . S
C2793 C2794 1.392 . S
C2793 C2797 1.495 . S
C2794 C2793 1.392 . S
C2794 C2795 1.385 . S
C2794 C2796 1.478 . S
C2795 H2789 0.930 . S
C2795 C2791 1.400 . S
C2795 C2794 1.385 . S
C2796 C2794 1.478 . S
C2796 C2798 1.381 . S
C2796 C2802 1.383 . S
C2797 C2793 1.495 . S
C2797 H2803 0.959 . S
C2797 H2804 0.961 . S
C2797 H2805 0.960 . S
C2798 C2796 1.381 . S
C2798 C2799 1.394 . S
C2798 H2806 0.930 . S
C2799 C2798 1.394 . S
C2799 C2800 1.383 . S
C2799 H2807 0.929 . S
C2800 C2799 1.383 . S
C2800 C2801 1.377 . S
C2801 H2785 0.930 . S
C2801 C2800 1.377 . S
C2801 C2802 1.379 . S
C2802 H2786 0.931 . S
C2802 C2796 1.383 . S
C2802 C2801 1.379 . S
H2803 C2797 0.959 . S
H2804 C2797 0.961 . S
H2805 C2797 0.960 . S
H2806 C2798 0.930 . S
H2807 C2799 0.929 . S
H2808 C2816 0.929 . S
H2809 C2818 0.930 . S
H2810 C2820 0.930 . S
H2811 C2823 0.929 . S
H2812 C2826 0.930 . S
H2813 C2828 0.960 . S
H2814 C2828 0.960 . S
H2815 C2828 0.960 . S
C2816 H2808 0.929 . S
C2816 C2817 1.377 . S
C2816 C2818 1.384 . S
C2817 C2816 1.377 . S
C2817 C2823 1.390 . S
C2818 H2809 0.930 . S
C2818 C2816 1.384 . S
C2818 C2819 1.372 . S
C2819 C2818 1.372 . S
C2819 C2820 1.400 . S
C2819 C2824 1.490 . S
C2820 H2810 0.930 . S
C2820 C2819 1.400 . S
C2820 C2823 1.386 . S
H2821 C2837 0.930 . S
H2822 C2838 0.931 . S
C2823 H2811 0.929 . S
C2823 C2817 1.390 . S
C2823 C2820 1.386 . S
C2824 C2819 1.490 . S
C2824 C2826 1.395 . S
C2824 C2827 1.403 . S
H2825 C2831 0.930 . S
C2826 H2812 0.930 . S
C2826 C2824 1.395 . S
C2826 C2829 1.403 . S
C2827 C2824 1.403 . S
C2827 C2828 1.524 . S
C2827 C2831 1.400 . S
C2828 H2813 0.960 . S
C2828 H2814 0.960 . S
C2828 H2815 0.960 . S
C2828 C2827 1.524 . S
C2829 C2826 1.403 . S
C2829 C2830 1.392 . S
C2829 C2833 1.495 . S
C2830 C2829 1.392 . S
C2830 C2831 1.385 . S
C2830 C2832 1.478 . S
C2831 H2825 0.930 . S
C2831 C2827 1.400 . S
C2831 C2830 1.385 . S
C2832 C2830 1.478 . S
C2832 C2834 1.381 . S
C2832 C2838 1.383 . S
C2833 C2829 1.495 . S
C2833 H2839 0.959 . S
C2833 H2840 0.961 . S
C2833 H2841 0.960 . S
C2834 C2832 1.381 . S
C2834 C2835 1.394 . S
C2834 H2842 0.930 . S
C2835 C2834 1.394 . S
C2835 C2836 1.383 . S
C2835 H2843 0.929 . S
C2836 C2835 1.383 . S
C2836 C2837 1.377 . S
C2837 H2821 0.930 . S
C2837 C2836 1.377 . S
C2837 C2838 1.379 . S
C2838 H2822 0.931 . S
C2838 C2832 1.383 . S
C2838 C2837 1.379 . S
H2839 C2833 0.959 . S
H2840 C2833 0.961 . S
H2841 C2833 0.960 . S
H2842 C2834 0.930 . S
H2843 C2835 0.929 . S
H2844 C2852 0.929 . S
H2845 C2854 0.930 . S
H2846 C2856 0.930 . S
H2847 C2859 0.929 . S
H2848 C2862 0.930 . S
H2849 C2864 0.960 . S
H2850 C2864 0.960 . S
H2851 C2864 0.960 . S
C2852 H2844 0.929 . S
C2852 C2853 1.377 . S
C2852 C2854 1.384 . S
C2853 C2852 1.377 . S
C2853 C2859 1.390 . S
C2854 H2845 0.930 . S
C2854 C2852 1.384 . S
C2854 C2855 1.372 . S
C2855 C2854 1.372 . S
C2855 C2856 1.400 . S
C2855 C2860 1.490 . S
C2856 H2846 0.930 . S
C2856 C2855 1.400 . S
C2856 C2859 1.386 . S
H2857 C2873 0.930 . S
H2858 C2874 0.931 . S
C2859 H2847 0.929 . S
C2859 C2853 1.390 . S
C2859 C2856 1.386 . S
C2860 C2855 1.490 . S
C2860 C2862 1.395 . S
C2860 C2863 1.403 . S
H2861 C2867 0.930 . S
C2862 H2848 0.930 . S
C2862 C2860 1.395 . S
C2862 C2865 1.403 . S
C2863 C2860 1.403 . S
C2863 C2864 1.524 . S
C2863 C2867 1.400 . S
C2864 H2849 0.960 . S
C2864 H2850 0.960 . S
C2864 H2851 0.960 . S
C2864 C2863 1.524 . S
C2865 C2862 1.403 . S
C2865 C2866 1.392 . S
C2865 C2869 1.495 . S
C2866 C2865 1.392 . S
C2866 C2867 1.385 . S
C2866 C2868 1.478 . S
C2867 H2861 0.930 . S
C2867 C2863 1.400 . S
C2867 C2866 1.385 . S
C2868 C2866 1.478 . S
C2868 C2870 1.381 . S
C2868 C2874 1.383 . S
C2869 C2865 1.495 . S
C2869 H2875 0.959 . S
C2869 H2876 0.961 . S
C2869 H2877 0.960 . S
C2870 C2868 1.381 . S
C2870 C2871 1.394 . S
C2870 H2878 0.930 . S
C2871 C2870 1.394 . S
C2871 C2872 1.383 . S
C2871 H2879 0.929 . S
C2872 C2871 1.383 . S
C2872 C2873 1.377 . S
C2873 H2857 0.930 . S
C2873 C2872 1.377 . S
C2873 C2874 1.379 . S
C2874 H2858 0.931 . S
C2874 C2868 1.383 . S
C2874 C2873 1.379 . S
H2875 C2869 0.959 . S
H2876 C2869 0.961 . S
H2877 C2869 0.960 . S
H2878 C2870 0.930 . S
H2879 C2871 0.929 . S
H2880 C2888 0.929 . S
H2881 C2890 0.930 . S
H2882 C2892 0.930 . S
H2883 C2895 0.929 . S
H2884 C2898 0.930 . S
H2885 C2900 0.960 . S
H2886 C2900 0.960 . S
H2887 C2900 0.960 . S
C2888 H2880 0.929 . S
C2888 C2889 1.377 . S
C2888 C2890 1.384 . S
C2889 C2888 1.377 . S
C2889 C2895 1.390 . S
C2890 H2881 0.930 . S
C2890 C2888 1.384 . S
C2890 C2891 1.372 . S
C2891 C2890 1.372 . S
C2891 C2892 1.400 . S
C2891 C2896 1.490 . S
C2892 H2882 0.930 . S
C2892 C2891 1.400 . S
C2892 C2895 1.386 . S
H2893 C2909 0.930 . S
H2894 C2910 0.931 . S
C2895 H2883 0.929 . S
C2895 C2889 1.390 . S
C2895 C2892 1.386 . S
C2896 C2891 1.490 . S
C2896 C2898 1.395 . S
C2896 C2899 1.403 . S
H2897 C2903 0.930 . S
C2898 H2884 0.930 . S
C2898 C2896 1.395 . S
C2898 C2901 1.403 . S
C2899 C2896 1.403 . S
C2899 C2900 1.524 . S
C2899 C2903 1.400 . S
C2900 H2885 0.960 . S
C2900 H2886 0.960 . S
C2900 H2887 0.960 . S
C2900 C2899 1.524 . S
C2901 C2898 1.403 . S
C2901 C2902 1.392 . S
C2901 C2905 1.495 . S
C2902 C2901 1.392 . S
C2902 C2903 1.385 . S
C2902 C2904 1.478 . S
C2903 H2897 0.930 . S
C2903 C2899 1.400 . S
C2903 C2902 1.385 . S
C2904 C2902 1.478 . S
C2904 C2906 1.381 . S
C2904 C2910 1.383 . S
C2905 C2901 1.495 . S
C2905 H2911 0.959 . S
C2905 H2912 0.961 . S
C2905 H2913 0.960 . S
C2906 C2904 1.381 . S
C2906 C2907 1.394 . S
C2906 H2914 0.930 . S
C2907 C2906 1.394 . S
C2907 C2908 1.383 . S
C2907 H2915 0.929 . S
C2908 C2907 1.383 . S
C2908 C2909 1.377 . S
C2909 H2893 0.930 . S
C2909 C2908 1.377 . S
C2909 C2910 1.379 . S
C2910 H2894 0.931 . S
C2910 C2904 1.383 . S
C2910 C2909 1.379 . S
H2911 C2905 0.959 . S
H2912 C2905 0.961 . S
H2913 C2905 0.960 . S
H2914 C2906 0.930 . S
H2915 C2907 0.929 . S
H2916 C2924 0.929 . S
H2917 C2926 0.930 . S
H2918 C2928 0.930 . S
H2919 C2931 0.929 . S
H2920 C2934 0.930 . S
H2921 C2936 0.960 . S
H2922 C2936 0.960 . S
H2923 C2936 0.960 . S
C2924 H2916 0.929 . S
C2924 C2925 1.377 . S
C2924 C2926 1.384 . S
C2925 C2924 1.377 . S
C2925 C2931 1.390 . S
C2926 H2917 0.930 . S
C2926 C2924 1.384 . S
C2926 C2927 1.372 . S
C2927 C2926 1.372 . S
C2927 C2928 1.400 . S
C2927 C2932 1.490 . S
C2928 H2918 0.930 . S
C2928 C2927 1.400 . S
C2928 C2931 1.386 . S
H2929 C2945 0.930 . S
H2930 C2946 0.931 . S
C2931 H2919 0.929 . S
C2931 C2925 1.390 . S
C2931 C2928 1.386 . S
C2932 C2927 1.490 . S
C2932 C2934 1.395 . S
C2932 C2935 1.403 . S
H2933 C2939 0.930 . S
C2934 H2920 0.930 . S
C2934 C2932 1.395 . S
C2934 C2937 1.403 . S
C2935 C2932 1.403 . S
C2935 C2936 1.524 . S
C2935 C2939 1.400 . S
C2936 H2921 0.960 . S
C2936 H2922 0.960 . S
C2936 H2923 0.960 . S
C2936 C2935 1.524 . S
C2937 C2934 1.403 . S
C2937 C2938 1.392 . S
C2937 C2941 1.495 . S
C2938 C2937 1.392 . S
C2938 C2939 1.385 . S
C2938 C2940 1.478 . S
C2939 H2933 0.930 . S
C2939 C2935 1.400 . S
C2939 C2938 1.385 . S
C2940 C2938 1.478 . S
C2940 C2942 1.381 . S
C2940 C2946 1.383 . S
C2941 C2937 1.495 . S
C2941 H2947 0.959 . S
C2941 H2948 0.961 . S
C2941 H2949 0.960 . S
C2942 C2940 1.381 . S
C2942 C2943 1.394 . S
C2942 H2950 0.930 . S
C2943 C2942 1.394 . S
C2943 C2944 1.383 . S
C2943 H2951 0.929 . S
C2944 C2943 1.383 . S
C2944 C2945 1.377 . S
C2945 H2929 0.930 . S
C2945 C2944 1.377 . S
C2945 C2946 1.379 . S
C2946 H2930 0.931 . S
C2946 C2940 1.383 . S
C2946 C2945 1.379 . S
H2947 C2941 0.959 . S
H2948 C2941 0.961 . S
H2949 C2941 0.960 . S
H2950 C2942 0.930 . S
H2951 C2943 0.929 . S
H2952 C2960 0.929 . S
H2953 C2962 0.930 . S
H2954 C2964 0.930 . S
H2955 C2967 0.929 . S
H2956 C2970 0.930 . S
H2957 C2972 0.960 . S
H2958 C2972 0.960 . S
H2959 C2972 0.960 . S
C2960 H2952 0.929 . S
C2960 C2961 1.377 . S
C2960 C2962 1.384 . S
C2961 C2960 1.377 . S
C2961 C2967 1.390 . S
C2962 H2953 0.930 . S
C2962 C2960 1.384 . S
C2962 C2963 1.372 . S
C2963 C2962 1.372 . S
C2963 C2964 1.400 . S
C2963 C2968 1.490 . S
C2964 H2954 0.930 . S
C2964 C2963 1.400 . S
C2964 C2967 1.386 . S
H2965 C2981 0.930 . S
H2966 C2982 0.931 . S
C2967 H2955 0.929 . S
C2967 C2961 1.390 . S
C2967 C2964 1.386 . S
C2968 C2963 1.490 . S
C2968 C2970 1.395 . S
C2968 C2971 1.403 . S
H2969 C2975 0.930 . S
C2970 H2956 0.930 . S
C2970 C2968 1.395 . S
C2970 C2973 1.403 . S
C2971 C2968 1.403 . S
C2971 C2972 1.524 . S
C2971 C2975 1.400 . S
C2972 H2957 0.960 . S
C2972 H2958 0.960 . S
C2972 H2959 0.960 . S
C2972 C2971 1.524 . S
C2973 C2970 1.403 . S
C2973 C2974 1.392 . S
C2973 C2977 1.495 . S
C2974 C2973 1.392 . S
C2974 C2975 1.385 . S
C2974 C2976 1.478 . S
C2975 H2969 0.930 . S
C2975 C2971 1.400 . S
C2975 C2974 1.385 . S
C2976 C2974 1.478 . S
C2976 C2978 1.381 . S
C2976 C2982 1.383 . S
C2977 C2973 1.495 . S
C2977 H2983 0.959 . S
C2977 H2984 0.961 . S
C2977 H2985 0.960 . S
C2978 C2976 1.381 . S
C2978 C2979 1.394 . S
C2978 H2986 0.930 . S
C2979 C2978 1.394 . S
C2979 C2980 1.383 . S
C2979 H2987 0.929 . S
C2980 C2979 1.383 . S
C2980 C2981 1.377 . S
C2981 H2965 0.930 . S
C2981 C2980 1.377 . S
C2981 C2982 1.379 . S
C2982 H2966 0.931 . S
C2982 C2976 1.383 . S
C2982 C2981 1.379 . S
H2983 C2977 0.959 . S
H2984 C2977 0.961 . S
H2985 C2977 0.960 . S
H2986 C2978 0.930 . S
H2987 C2979 0.929 . S
H2988 C2996 0.929 . S
H2989 C2998 0.930 . S
H2990 C3000 0.930 . S
H2991 C3003 0.929 . S
H2992 C3006 0.930 . S
H2993 C3008 0.960 . S
H2994 C3008 0.960 . S
H2995 C3008 0.960 . S
C2996 H2988 0.929 . S
C2996 C2997 1.377 . S
C2996 C2998 1.384 . S
C2997 C2996 1.377 . S
C2997 C3003 1.390 . S
C2998 H2989 0.930 . S
C2998 C2996 1.384 . S
C2998 C2999 1.372 . S
C2999 C2998 1.372 . S
C2999 C3000 1.400 . S
C2999 C3004 1.490 . S
C3000 H2990 0.930 . S
C3000 C2999 1.400 . S
C3000 C3003 1.386 . S
H3001 C3017 0.930 . S
H3002 C3018 0.931 . S
C3003 H2991 0.929 . S
C3003 C2997 1.390 . S
C3003 C3000 1.386 . S
C3004 C2999 1.490 . S
C3004 C3006 1.395 . S
C3004 C3007 1.403 . S
H3005 C3011 0.930 . S
C3006 H2992 0.930 . S
C3006 C3004 1.395 . S
C3006 C3009 1.403 . S
C3007 C3004 1.403 . S
C3007 C3008 1.524 . S
C3007 C3011 1.400 . S
C3008 H2993 0.960 . S
C3008 H2994 0.960 . S
C3008 H2995 0.960 . S
C3008 C3007 1.524 . S
C3009 C3006 1.403 . S
C3009 C3010 1.392 . S
C3009 C3013 1.495 . S
C3010 C3009 1.392 . S
C3010 C3011 1.385 . S
C3010 C3012 1.478 . S
C3011 H3005 0.930 . S
C3011 C3007 1.400 . S
C3011 C3010 1.385 . S
C3012 C3010 1.478 . S
C3012 C3014 1.381 . S
C3012 C3018 1.383 . S
C3013 C3009 1.495 . S
C3013 H3019 0.959 . S
C3013 H3020 0.961 . S
C3013 H3021 0.960 . S
C3014 C3012 1.381 . S
C3014 C3015 1.394 . S
C3014 H3022 0.930 . S
C3015 C3014 1.394 . S
C3015 C3016 1.383 . S
C3015 H3023 0.929 . S
C3016 C3015 1.383 . S
C3016 C3017 1.377 . S
C3017 H3001 0.930 . S
C3017 C3016 1.377 . S
C3017 C3018 1.379 . S
C3018 H3002 0.931 . S
C3018 C3012 1.383 . S
C3018 C3017 1.379 . S
H3019 C3013 0.959 . S
H3020 C3013 0.961 . S
H3021 C3013 0.960 . S
H3022 C3014 0.930 . S
H3023 C3015 0.929 . S
H3024 C3032 0.929 . S
H3025 C3034 0.930 . S
H3026 C3036 0.930 . S
H3027 C3039 0.929 . S
H3028 C3042 0.930 . S
H3029 C3044 0.960 . S
H3030 C3044 0.960 . S
H3031 C3044 0.960 . S
C3032 H3024 0.929 . S
C3032 C3033 1.377 . S
C3032 C3034 1.384 . S
C3033 C3032 1.377 . S
C3033 C3039 1.390 . S
C3034 H3025 0.930 . S
C3034 C3032 1.384 . S
C3034 C3035 1.372 . S
C3035 C3034 1.372 . S
C3035 C3036 1.400 . S
C3035 C3040 1.490 . S
C3036 H3026 0.930 . S
C3036 C3035 1.400 . S
C3036 C3039 1.386 . S
H3037 C3053 0.930 . S
H3038 C3054 0.931 . S
C3039 H3027 0.929 . S
C3039 C3033 1.390 . S
C3039 C3036 1.386 . S
C3040 C3035 1.490 . S
C3040 C3042 1.395 . S
C3040 C3043 1.403 . S
H3041 C3047 0.930 . S
C3042 H3028 0.930 . S
C3042 C3040 1.395 . S
C3042 C3045 1.403 . S
C3043 C3040 1.403 . S
C3043 C3044 1.524 . S
C3043 C3047 1.400 . S
C3044 H3029 0.960 . S
C3044 H3030 0.960 . S
C3044 H3031 0.960 . S
C3044 C3043 1.524 . S
C3045 C3042 1.403 . S
C3045 C3046 1.392 . S
C3045 C3049 1.495 . S
C3046 C3045 1.392 . S
C3046 C3047 1.385 . S
C3046 C3048 1.478 . S
C3047 H3041 0.930 . S
C3047 C3043 1.400 . S
C3047 C3046 1.385 . S
C3048 C3046 1.478 . S
C3048 C3050 1.381 . S
C3048 C3054 1.383 . S
C3049 C3045 1.495 . S
C3049 H3055 0.959 . S
C3049 H3056 0.961 . S
C3049 H3057 0.960 . S
C3050 C3048 1.381 . S
C3050 C3051 1.394 . S
C3050 H3058 0.930 . S
C3051 C3050 1.394 . S
C3051 C3052 1.383 . S
C3051 H3059 0.929 . S
C3052 C3051 1.383 . S
C3052 C3053 1.377 . S
C3053 H3037 0.930 . S
C3053 C3052 1.377 . S
C3053 C3054 1.379 . S
C3054 H3038 0.931 . S
C3054 C3048 1.383 . S
C3054 C3053 1.379 . S
H3055 C3049 0.959 . S
H3056 C3049 0.961 . S
H3057 C3049 0.960 . S
H3058 C3050 0.930 . S
H3059 C3051 0.929 . S
C477 C4 1.501 . S
C496 C238 1.496 . S
C513 C257 1.501 . S
C532 C17 1.498 . S
C549 C270 1.500 . S
C568 C30 1.498 . S
C585 C43 1.501 . S
C604 C433 1.500 . S
C621 C62 1.501 . S
C640 C446 1.498 . S
C657 C75 1.500 . S
C676 C459 1.497 . S
C693 C316 1.501 . S
C712 C82 1.497 . S
C729 C95 1.501 . S
C748 C335 1.498 . S
C765 C114 1.500 . S
C784 C348 1.497 . S
C801 C205 1.501 . S
C820 C121 1.496 . S
C837 C218 1.501 . S
C856 C134 1.499 . S
C873 C225 1.500 . S
C892 C153 1.497 . S
C909 C394 1.500 . S
C928 C160 1.495 . S
C945 C407 1.501 . S
C964 C179 1.500 . S
C981 C186 1.501 . S
C1000 C426 1.496 . S
C1017 C361 1.500 . S
C1036 C283 1.496 . S
C1053 C296 1.501 . S
C1072 C368 1.496 . S
C1089 C309 1.501 . S
C1108 C387 1.499 . S
C1125 C10 1.511 . S
C1144 C355 1.493 . S
C1161 C374 1.517 . S
C1180 C23 1.531 . S
C1197 C381 1.517 . S
C1216 C36 1.521 . S
C1233 C166 1.515 . S
C1252 C49 1.528 . S
C1269 C173 1.510 . S
C1288 C56 1.490 . S
C1305 C192 1.508 . S
C1324 C69 1.496 . S
C1341 C88 1.516 . S
C1360 C277 1.493 . S
C1377 C290 1.517 . S
C1396 C101 1.511 . S
C1413 C303 1.508 . S
C1432 C108 1.508 . S
C1449 C127 1.508 . S
C1468 C400 1.514 . S
C1485 C140 1.510 . S
C1504 C413 1.494 . S
C1521 C147 1.508 . S
C1540 C420 1.501 . S
C1557 C199 1.508 . S
C1576 C322 1.499 . S
C1593 C212 1.511 . S
C1612 C329 1.513 . S
C1629 C231 1.508 . S
C1648 C342 1.497 . S
C1665 C244 1.514 . S
C1684 C439 1.488 . S
C1701 C452 1.514 . S
C1720 C251 1.488 . S
C1737 C264 1.508 . S
C1756 C465 1.512 . S
C1773 C18 1.044 1_455 S
C1792 C3 0.978 . S
C1809 C16 1.020 . S
C1828 C31 1.024 . S
C1845 C29 1.020 . S
C1864 C5 1.044 1_565 S
C1881 C42 1.021 . S
C1900 C68 1.037 1_545 S
C1917 C44 1.047 1_655 S
C1936 C57 1.012 . S
C1953 C70 1.004 . S
C1972 C55 1.055 . S
C1989 C81 1.015 . S
C2008 C96 1.045 1_655 S
C2025 C94 1.012 . S
C2044 C107 1.039 . S
C2061 C109 1.015 . S
C2080 C83 1.048 1_545 S
C2097 C146 1.043 1_565 S
C2116 C120 0.988 . S
C2133 C133 1.004 . S
C2152 C122 1.024 1_455 S
C2169 C135 1.044 . S
C2188 C148 1.003 . S
C2205 C172 1.047 . S
C2224 C159 0.968 . S
C2241 C187 1.040 . S
C2260 C174 1.041 . S
C2277 C161 1.043 . S
C2296 C185 0.986 . S
C2313 C200 1.005 . S
C2332 C226 1.051 . S
C2349 C213 1.020 . S
C2368 C198 1.024 . S
C2385 C224 1.020 . S
C2404 C211 1.024 . S
C2421 C250 1.046 . S
C2440 C237 1.030 . S
C2457 C252 1.006 . S
C2476 C263 1.026 . S
C2493 C265 1.009 . S
C2512 C239 1.033 . S
C2529 C278 1.009 . S
C2548 C302 1.034 . S
C2565 C291 1.022 . S
C2584 C276 1.061 . S
C2601 C289 1.043 . S
C2620 C304 0.996 . S
C2637 C328 1.046 . S
C2656 C315 1.036 . S
C2673 C330 1.008 . S
C2692 C341 1.062 . S
C2709 C317 1.044 . S
C2728 C343 0.982 . S
C2745 C356 1.021 . S
C2764 C380 1.038 . S
C2781 C367 1.006 . S
C2800 C354 1.044 . S
C2817 C382 1.022 . S
C2836 C369 1.028 . S
C2853 C393 1.022 . S
C2872 C408 1.061 . S
C2889 C406 1.017 . S
C2908 C419 1.049 . S
C2925 C421 1.011 . S
C2944 C395 1.036 . S
C2961 C432 1.010 . S
C2980 C460 1.038 . S
C2997 C445 1.021 . S
C3016 C434 1.060 . S
C3033 C447 1.042 . S
C3052 C458 0.979 . S
