# Generated by pormake.
# Topology yfl, (5)-cn, num edge types: 1
# Building blocks:
#     Node 0, Type 0, BuildingBlock: XOMCOT_clean_sbu_1, # of connection points: 5
#     Node 1, Type 0, BuildingBlock: XOMCOT_clean_sbu_1, # of connection points: 5
#     Node 2, Type 0, BuildingBlock: XOMCOT_clean_sbu_1, # of connection points: 5
#     Node 3, Type 0, BuildingBlock: XOMCOT_clean_sbu_1, # of connection points: 5
#     Node 4, Type 0, BuildingBlock: XOMCOT_clean_sbu_1, # of connection points: 5
#     Node 5, Type 0, BuildingBlock: XOMCOT_clean_sbu_1, # of connection points: 5
#     Node 6, Type 0, BuildingBlock: XOMCOT_clean_sbu_1, # of connection points: 5
#     Node 7, Type 0, BuildingBlock: XOMCOT_clean_sbu_1, # of connection points: 5
#     Node 8, Type 0, BuildingBlock: XOMCOT_clean_sbu_1, # of connection points: 5
#     Node 9, Type 0, BuildingBlock: XOMCOT_clean_sbu_1, # of connection points: 5
#     Node 10, Type 0, BuildingBlock: XOMCOT_clean_sbu_1, # of connection points: 5
#     Node 11, Type 0, BuildingBlock: XOMCOT_clean_sbu_1, # of connection points: 5
#     Node 12, Type 0, BuildingBlock: XOMCOT_clean_sbu_1, # of connection points: 5
#     Node 13, Type 0, BuildingBlock: XOMCOT_clean_sbu_1, # of connection points: 5
#     Node 14, Type 0, BuildingBlock: XOMCOT_clean_sbu_1, # of connection points: 5
#     Node 15, Type 0, BuildingBlock: XOMCOT_clean_sbu_1, # of connection points: 5
#     Edge 16, Type (0, 0), BuildingBlock: OJICUG_clean_linker_0, # of connection points: 2
#     Edge 17, Type (0, 0), BuildingBlock: OJICUG_clean_linker_0, # of connection points: 2
#     Edge 18, Type (0, 0), BuildingBlock: OJICUG_clean_linker_0, # of connection points: 2
#     Edge 19, Type (0, 0), BuildingBlock: OJICUG_clean_linker_0, # of connection points: 2
#     Edge 20, Type (0, 0), BuildingBlock: OJICUG_clean_linker_0, # of connection points: 2
#     Edge 21, Type (0, 0), BuildingBlock: OJICUG_clean_linker_0, # of connection points: 2
#     Edge 22, Type (0, 0), BuildingBlock: OJICUG_clean_linker_0, # of connection points: 2
#     Edge 23, Type (0, 0), BuildingBlock: OJICUG_clean_linker_0, # of connection points: 2
#     Edge 24, Type (0, 0), BuildingBlock: OJICUG_clean_linker_0, # of connection points: 2
#     Edge 25, Type (0, 0), BuildingBlock: OJICUG_clean_linker_0, # of connection points: 2
#     Edge 26, Type (0, 0), BuildingBlock: OJICUG_clean_linker_0, # of connection points: 2
#     Edge 27, Type (0, 0), BuildingBlock: OJICUG_clean_linker_0, # of connection points: 2
#     Edge 28, Type (0, 0), BuildingBlock: OJICUG_clean_linker_0, # of connection points: 2
#     Edge 29, Type (0, 0), BuildingBlock: OJICUG_clean_linker_0, # of connection points: 2
#     Edge 30, Type (0, 0), BuildingBlock: OJICUG_clean_linker_0, # of connection points: 2
#     Edge 31, Type (0, 0), BuildingBlock: OJICUG_clean_linker_0, # of connection points: 2
#     Edge 32, Type (0, 0), BuildingBlock: OJICUG_clean_linker_0, # of connection points: 2
#     Edge 33, Type (0, 0), BuildingBlock: OJICUG_clean_linker_0, # of connection points: 2
#     Edge 34, Type (0, 0), BuildingBlock: OJICUG_clean_linker_0, # of connection points: 2
#     Edge 35, Type (0, 0), BuildingBlock: OJICUG_clean_linker_0, # of connection points: 2
#     Edge 36, Type (0, 0), BuildingBlock: OJICUG_clean_linker_0, # of connection points: 2
#     Edge 37, Type (0, 0), BuildingBlock: OJICUG_clean_linker_0, # of connection points: 2
#     Edge 38, Type (0, 0), BuildingBlock: OJICUG_clean_linker_0, # of connection points: 2
#     Edge 39, Type (0, 0), BuildingBlock: OJICUG_clean_linker_0, # of connection points: 2
#     Edge 40, Type (0, 0), BuildingBlock: OJICUG_clean_linker_0, # of connection points: 2
#     Edge 41, Type (0, 0), BuildingBlock: OJICUG_clean_linker_0, # of connection points: 2
#     Edge 42, Type (0, 0), BuildingBlock: OJICUG_clean_linker_0, # of connection points: 2
#     Edge 43, Type (0, 0), BuildingBlock: OJICUG_clean_linker_0, # of connection points: 2
#     Edge 44, Type (0, 0), BuildingBlock: OJICUG_clean_linker_0, # of connection points: 2
#     Edge 45, Type (0, 0), BuildingBlock: OJICUG_clean_linker_0, # of connection points: 2
#     Edge 46, Type (0, 0), BuildingBlock: OJICUG_clean_linker_0, # of connection points: 2
#     Edge 47, Type (0, 0), BuildingBlock: OJICUG_clean_linker_0, # of connection points: 2
#     Edge 48, Type (0, 0), BuildingBlock: OJICUG_clean_linker_0, # of connection points: 2
#     Edge 49, Type (0, 0), BuildingBlock: OJICUG_clean_linker_0, # of connection points: 2
#     Edge 50, Type (0, 0), BuildingBlock: OJICUG_clean_linker_0, # of connection points: 2
#     Edge 51, Type (0, 0), BuildingBlock: OJICUG_clean_linker_0, # of connection points: 2
#     Edge 52, Type (0, 0), BuildingBlock: OJICUG_clean_linker_0, # of connection points: 2
#     Edge 53, Type (0, 0), BuildingBlock: OJICUG_clean_linker_0, # of connection points: 2
#     Edge 54, Type (0, 0), BuildingBlock: OJICUG_clean_linker_0, # of connection points: 2
#     Edge 55, Type (0, 0), BuildingBlock: OJICUG_clean_linker_0, # of connection points: 2
# Relax obj value: 0.517
# Max RMSD: 0.268
# Mean RMSD: 0.268
data_MOF--net-yfl--node1-XOMCOT_clean_sbu_1--edge1-OJICUG_clean_linker_0
_symmetry_space_group_name_H-M    P1
_symmetry_Int_Tables_number       1
_symmetry_cell_setting            triclinic
loop_
_symmetry_equiv_pos_as_xyz
'x, y, z'
_cell_length_a     20.184494
_cell_length_b     20.189496
_cell_length_c     88.006212
_cell_angle_alpha  89.935775
_cell_angle_beta   89.966807
_cell_angle_gamma 89.607224
loop_
_atom_site_label
_atom_site_type_symbol
_atom_site_fract_x
_atom_site_fract_y
_atom_site_fract_z
_atom_type_partial_charge
C0 C 1.02859 0.20153 0.26136 0.0
C1 C 0.97724 0.20915 0.25127 0.0
N2 N 0.95824 0.27337 0.25128 0.0
N3 N 0.04184 0.26057 0.26768 0.0
C4 C 0.99737 0.30296 0.26165 0.0
H5 H 0.05766 0.157 0.26314 0.0
Co6 Co 0.11565 0.27705 0.27913 0.0
C7 C 0.10625 0.41797 0.28977 0.0
O8 O 0.17085 0.42066 0.2881 0.0
N9 N 0.19094 0.29125 0.29088 0.0
C10 C 0.29166 0.30075 0.30078 0.0
C11 C 0.25642 0.29103 0.28761 0.0
C12 C 0.18786 0.30054 0.306 0.0
N13 N 0.24809 0.30642 0.31228 0.0
O14 O 0.07728 0.22364 0.29514 0.0
H15 H 0.27803 0.28297 0.27656 0.0
H16 H 0.14183 0.3032 0.31229 0.0
O17 O 0.07612 0.36306 0.28694 0.0
C18 C 0.106 0.16684 0.29572 0.0
O19 O 0.16133 0.15872 0.28804 0.0
N20 N 0.15346 0.31914 0.26231 0.0
C21 C 0.20853 0.35697 0.23467 0.0
C22 C 0.16483 0.39934 0.24241 0.0
C23 C 0.1367 0.37897 0.25607 0.0
C24 C 0.19295 0.27607 0.25449 0.0
C25 C 0.22197 0.29427 0.24076 0.0
H26 H 0.09951 0.4105 0.26108 0.0
H27 H 0.20182 0.22694 0.259 0.0
H28 H 0.99672 0.35537 0.26409 0.0
H29 H 0.95974 0.17152 0.24353 0.0
H30 H 0.34507 0.30096 0.30189 0.0
H31 H 0.15082 0.44701 0.23769 0.0
H32 H 0.25472 0.2597 0.23503 0.0
C33 C 0.19039 0.06396 0.66579 0.0
C34 C 0.19503 0.11526 0.67596 0.0
N35 N 0.25952 0.12972 0.67775 0.0
N36 N 0.25182 0.04575 0.66142 0.0
C37 C 0.29279 0.08742 0.66869 0.0
H38 H 0.14578 0.0372 0.66302 0.0
Co39 Co 0.27036 0.96752 0.65165 0.0
C40 C 0.41279 0.97235 0.64126 0.0
O41 O 0.41515 0.90783 0.6431 0.0
N42 N 0.28649 0.88768 0.64167 0.0
C43 C 0.29516 0.78248 0.63453 0.0
C44 C 0.2863 0.82434 0.64668 0.0
C45 C 0.29542 0.88292 0.62656 0.0
N46 N 0.30088 0.81976 0.62192 0.0
O47 O 0.2191 1.00016 0.63449 0.0
H48 H 0.27844 0.80872 0.65826 0.0
H49 H 0.29553 0.92525 0.619 0.0
O50 O 0.35779 1.0036 0.64387 0.0
C51 C 0.16276 0.97115 0.63389 0.0
O52 O 0.15459 0.91757 0.64216 0.0
N53 N 0.30949 0.93554 0.66951 0.0
C54 C 0.34242 0.88865 0.6983 0.0
C55 C 0.38837 0.92443 0.68967 0.0
C56 C 0.37062 0.94847 0.67541 0.0
C57 C 0.26331 0.90354 0.67806 0.0
C58 C 0.27893 0.8787 0.69239 0.0
H59 H 0.40561 0.97941 0.66963 0.0
H60 H 0.21383 0.8971 0.67359 0.0
H61 H 0.3461 0.08178 0.66884 0.0
H62 H 0.15503 0.13497 0.68284 0.0
H63 H 0.29575 0.72889 0.63491 0.0
H64 H 0.43784 0.93384 0.69388 0.0
H65 H 0.24149 0.85272 0.69885 0.0
C66 C 0.0548 0.88319 0.26101 0.0
C67 C 0.10695 0.87239 0.25126 0.0
N68 N 0.12301 0.80737 0.25167 0.0
N69 N 0.0381 0.82535 0.2675 0.0
C70 C 0.08131 0.78053 0.26193 0.0
H71 H 1.02749 0.92907 0.26238 0.0
Co72 Co 0.96179 0.81201 0.27837 0.0
C73 C 0.9669 0.67164 0.28987 0.0
O74 O 0.90231 0.66969 0.28813 0.0
N75 N 0.88417 0.80066 0.2895 0.0
C76 C 0.78144 0.79407 0.29844 0.0
C77 C 0.8194 0.8019 0.28558 0.0
C78 C 0.88416 0.79277 0.30467 0.0
N79 N 0.82266 0.78865 0.31039 0.0
O80 O 0.99871 0.86563 0.2945 0.0
H81 H 0.80025 0.80911 0.27425 0.0
H82 H 0.92891 0.78936 0.3114 0.0
O83 O 0.99787 0.72586 0.28684 0.0
C84 C 0.97093 0.92296 0.2945 0.0
O85 O 0.91809 0.93169 0.28599 0.0
N86 N 0.92566 0.76985 0.2614 0.0
C87 C 0.87735 0.73356 0.23297 0.0
C88 C 0.91547 0.6891 0.24163 0.0
C89 C 0.94048 0.70868 0.25565 0.0
C90 C 0.89051 0.81428 0.25292 0.0
C91 C 0.86511 0.79703 0.23876 0.0
H92 H 0.97404 0.6753 0.26131 0.0
H93 H 0.88308 0.86409 0.25714 0.0
H94 H 0.07905 0.72838 0.26457 0.0
H95 H 0.12697 0.90858 0.24347 0.0
H96 H 0.72787 0.79445 0.29902 0.0
H97 H 0.92674 0.63969 0.23756 0.0
H98 H 0.83764 0.83364 0.23228 0.0
C99 C 0.88804 1.00137 0.66646 0.0
C100 C 0.88181 0.94847 0.67619 0.0
N101 N 0.81703 0.94106 0.67956 0.0
N102 N 0.82753 1.02694 0.66362 0.0
C103 C 0.78536 0.98836 0.67143 0.0
H104 H 0.93409 1.02256 0.66258 0.0
Co105 Co 0.81087 0.10697 0.65418 0.0
C106 C 0.66793 0.1055 0.64389 0.0
O107 O 0.66567 0.16943 0.64662 0.0
N108 N 0.79606 0.18793 0.6446 0.0
C109 C 0.78451 0.29339 0.63777 0.0
C110 C 0.79773 0.25108 0.64968 0.0
C111 C 0.78282 0.19322 0.62968 0.0
N112 N 0.77459 0.25642 0.62528 0.0
O113 O 0.86098 0.07519 0.63673 0.0
H114 H 0.80839 0.2661 0.66118 0.0
H115 H 0.77979 0.15106 0.62213 0.0
O116 O 0.72265 0.07336 0.64624 0.0
C117 C 0.91747 0.10389 0.63605 0.0
O118 O 0.92716 0.15563 0.6448 0.0
N119 N 0.77296 0.13848 0.6722 0.0
C120 C 0.74276 0.18446 0.70118 0.0
C121 C 0.69501 0.1516 0.69248 0.0
C122 C 0.7113 0.12814 0.6781 0.0
C123 C 0.82058 0.16819 0.68074 0.0
C124 C 0.80637 0.19254 0.69519 0.0
H125 H 0.6747 0.09952 0.67224 0.0
H126 H 0.87013 0.17308 0.6762 0.0
H127 H 0.73293 0.99846 0.67214 0.0
H128 H 0.92247 0.92068 0.68111 0.0
H129 H 0.78263 0.34694 0.63825 0.0
H130 H 0.64528 0.14398 0.69675 0.0
H131 H 0.84493 0.21659 0.70167 0.0
C132 C 1.02605 0.37747 0.91985 0.0
C133 C 0.9751 0.37161 0.9301 0.0
N134 N 0.95378 0.3084 0.92991 0.0
N135 N 0.03681 0.31831 0.91326 0.0
C136 C 0.99107 0.27776 0.91925 0.0
H137 H 0.05677 0.42056 0.91818 0.0
Co138 Co 0.11039 0.29918 0.9018 0.0
C139 C 0.10229 0.15658 0.89265 0.0
O140 O 0.16669 0.15411 0.89474 0.0
N141 N 0.18549 0.28222 0.89 0.0
C142 C 0.28587 0.2708 0.87991 0.0
C143 C 0.25113 0.28186 0.89311 0.0
C144 C 0.18188 0.27147 0.87494 0.0
N145 N 0.24191 0.26468 0.86853 0.0
O146 O 0.07148 0.35086 0.88546 0.0
H147 H 0.27337 0.29073 0.90404 0.0
H148 H 0.13566 0.26917 0.86874 0.0
O149 O 0.07128 0.21212 0.89472 0.0
C150 C 0.10015 0.40725 0.88458 0.0
O151 O 0.15563 0.41526 0.89215 0.0
N152 N 0.14853 0.25937 0.91891 0.0
C153 C 0.2005 0.22697 0.94718 0.0
C154 C 0.15486 0.18518 0.94013 0.0
C155 C 0.12875 0.20263 0.92603 0.0
C156 C 0.19003 0.30213 0.92609 0.0
C157 C 0.21825 0.28607 0.94005 0.0
H158 H 0.09058 0.17174 0.92138 0.0
H159 H 0.20073 0.34955 0.92094 0.0
H160 H 0.98843 0.22562 0.91662 0.0
H161 H 0.95961 0.40944 0.93808 0.0
H162 H 0.33923 0.27049 0.87867 0.0
H163 H 0.13909 0.13969 0.94554 0.0
H164 H 0.25213 0.32024 0.94542 0.0
C165 C 0.37834 0.04925 0.0137 0.0
C166 C 0.37517 0.10134 0.00369 0.0
N167 N 0.3108 0.11557 0.00096 0.0
N168 N 0.31643 1.03092 0.01739 0.0
C169 C 0.27649 0.07282 0.00974 0.0
H170 H 0.42292 1.02413 0.01745 0.0
Co171 Co 0.29617 0.95697 0.02866 0.0
C172 C 0.1527 0.96676 0.03743 0.0
O173 O 0.15037 0.90234 0.03544 0.0
N174 N 0.27816 0.882 0.04029 0.0
C175 C 0.26666 0.7816 0.05027 0.0
C176 C 0.27887 0.81646 0.03714 0.0
C177 C 0.26565 0.8855 0.05529 0.0
N178 N 0.25878 0.82546 0.06163 0.0
O179 O 0.34557 0.99536 0.04536 0.0
H180 H 0.28942 0.79455 0.02623 0.0
H181 H 0.26219 0.93166 0.06148 0.0
O182 O 0.20814 0.99711 0.03525 0.0
C183 C 0.4018 0.96613 0.04697 0.0
O184 O 0.4108 0.90904 0.04008 0.0
N185 N 0.25887 0.91881 0.0113 0.0
C186 C 0.23169 0.86568 -0.01712 0.0
C187 C 0.18624 0.90841 -0.01009 0.0
C188 C 0.20093 0.93496 0.00411 0.0
C189 C 0.30457 0.87942 0.00425 0.0
C190 C 0.29136 0.85083 -0.00981 0.0
H191 H 0.1667 0.97056 0.00878 0.0
H192 H 0.35204 0.87059 0.00961 0.0
H193 H 0.22326 0.06895 0.00987 0.0
H194 H 0.41734 0.1242 -0.00172 0.0
H195 H 0.26688 0.72824 0.05149 0.0
H196 H 0.13995 0.92156 -0.01558 0.0
H197 H 0.32804 0.8189 -0.0151 0.0
C198 C 0.06874 0.68259 0.91575 0.0
C199 C 0.12255 0.68861 0.92519 0.0
N200 N 0.13026 0.75329 0.92857 0.0
N201 N 0.0429 0.74314 0.91307 0.0
C202 C 0.08208 0.78513 0.92074 0.0
H203 H 0.0474 0.63662 0.9119 0.0
Co204 Co 0.96301 0.76015 0.90361 0.0
C205 C 0.96643 0.90251 0.8928 0.0
O206 O 0.90206 0.90533 0.89492 0.0
N207 N 0.88209 0.77515 0.89397 0.0
C208 C 0.77637 0.78527 0.88723 0.0
C209 C 0.81903 0.77392 0.89916 0.0
C210 C 0.87637 0.78644 0.87896 0.0
N211 N 0.81296 0.79356 0.8746 0.0
O212 O 0.99451 0.70904 0.8863 0.0
H213 H 0.80425 0.76447 0.91074 0.0
H214 H 0.91832 0.78849 0.87132 0.0
O215 O 0.99768 0.84762 0.89551 0.0
C216 C 0.96565 0.65261 0.88583 0.0
O217 O 0.91359 0.64377 0.89456 0.0
N218 N 0.93173 0.7993 0.92151 0.0
C219 C 0.88388 0.83262 0.95017 0.0
C220 C 0.9174 0.87937 0.9413 0.0
C221 C 0.94183 0.86152 0.92709 0.0
C222 C 0.90175 0.75254 0.93028 0.0
C223 C 0.87648 0.76829 0.94456 0.0
H224 H 0.97081 0.89749 0.9211 0.0
H225 H 0.89703 0.70257 0.926 0.0
H226 H 0.07204 0.83754 0.92154 0.0
H227 H 0.15092 0.64786 0.9299 0.0
H228 H 0.72281 0.7868 0.88779 0.0
H229 H 0.92463 0.92958 0.94526 0.0
H230 H 0.85206 0.73041 0.9512 0.0
C231 C 0.68405 1.01832 0.01046 0.0
C232 C 0.69416 0.9655 0.00088 0.0
N233 N 0.75852 0.94728 0.00171 0.0
N234 N 0.7417 1.03324 0.01726 0.0
C235 C 0.78559 0.98823 0.01207 0.0
H236 H 0.63902 0.04733 0.01149 0.0
Co237 Co 0.75627 0.10951 0.02799 0.0
C238 C 0.89755 0.10415 0.03889 0.0
O239 O 0.89925 0.16865 0.03697 0.0
N240 N 0.76869 0.18712 0.03901 0.0
C241 C 0.77619 0.28957 0.04803 0.0
C242 C 0.76744 0.25199 0.03516 0.0
C243 C 0.77753 0.18673 0.05416 0.0
N244 N 0.78219 0.24803 0.05992 0.0
O245 O 0.70279 0.07334 0.0443 0.0
H246 H 0.7595 0.27156 0.0239 0.0
H247 H 0.78109 0.14182 0.06084 0.0
O248 O 0.84294 0.07306 0.03628 0.0
C249 C 0.64555 0.10135 0.0442 0.0
O250 O 0.63707 0.15351 0.03544 0.0
N251 N 0.79831 0.14489 0.01087 0.0
C252 C 0.83642 0.19352 -0.01742 0.0
C253 C 0.87899 0.15233 -0.00902 0.0
C254 C 0.85845 0.12729 0.00493 0.0
C255 C 0.75529 0.18245 0.00254 0.0
C256 C 0.77364 0.20831 -0.01152 0.0
H257 H 0.89026 0.09168 0.01041 0.0
H258 H 0.70587 0.19178 0.00684 0.0
H259 H 0.83752 0.98866 0.01498 0.0
H260 H 0.65838 0.94659 -0.00714 0.0
H261 H 0.77589 0.34311 0.04866 0.0
H262 H 0.9277 0.13892 -0.01322 0.0
H263 H 0.73848 0.23827 -0.01784 0.0
C264 C 0.52394 0.69434 0.76074 0.0
C265 C 0.47322 0.70305 0.75051 0.0
N266 N 0.45397 0.76719 0.75088 0.0
N267 N 0.53653 0.75264 0.76749 0.0
C268 C 0.49218 0.79554 0.7616 0.0
H269 H 0.5532 0.64978 0.76232 0.0
Co270 Co 0.61006 0.76883 0.77912 0.0
C271 C 0.60202 0.91087 0.78891 0.0
O272 O 0.66662 0.91288 0.78717 0.0
N273 N 0.685 0.78318 0.79109 0.0
C274 C 0.7855 0.79312 0.8011 0.0
C275 C 0.7506 0.78309 0.78792 0.0
C276 C 0.68159 0.79294 0.80621 0.0
N277 N 0.74173 0.79901 0.81255 0.0
O278 O 0.56996 0.71722 0.79522 0.0
H279 H 0.7727 0.77504 0.77692 0.0
H280 H 0.63546 0.79559 0.81246 0.0
O281 O 0.57146 0.85592 0.78643 0.0
C282 C 0.59799 0.6601 0.79598 0.0
O283 O 0.65367 0.65113 0.78848 0.0
N284 N 0.64941 0.80868 0.7622 0.0
C285 C 0.70325 0.84024 0.73406 0.0
C286 C 0.65892 0.88381 0.7412 0.0
C287 C 0.63189 0.86684 0.75525 0.0
C288 C 0.68969 0.76447 0.75492 0.0
C289 C 0.7188 0.77998 0.74104 0.0
H290 H 0.59478 0.89927 0.75999 0.0
H291 H 0.69882 0.71636 0.75996 0.0
H292 H 0.49115 0.84765 0.76434 0.0
H293 H 0.45648 0.66642 0.74244 0.0
H294 H 0.83889 0.79338 0.80226 0.0
H295 H 0.64481 0.93027 0.7359 0.0
H296 H 0.75157 0.74448 0.7356 0.0
C297 C 0.69029 0.56208 0.16794 0.0
C298 C 0.69862 0.6129 0.1781 0.0
N299 N 0.76377 0.62728 0.17884 0.0
N300 N 0.74977 0.54455 0.16229 0.0
C301 C 0.7932 0.5862 0.16875 0.0
H302 H 0.64481 0.53552 0.16588 0.0
Co303 Co 0.76552 0.46649 0.15219 0.0
C304 C 0.90671 0.46955 0.14098 0.0
O305 O 0.90878 0.40506 0.14291 0.0
N306 N 0.77897 0.38679 0.14197 0.0
C307 C 0.78617 0.28187 0.13453 0.0
C308 C 0.77811 0.3232 0.1468 0.0
C309 C 0.7872 0.3827 0.12682 0.0
N310 N 0.792 0.31974 0.12202 0.0
O311 O 0.71278 0.50043 0.13543 0.0
H312 H 0.77072 0.30705 0.15835 0.0
H313 H 0.78786 0.42545 0.1194 0.0
O314 O 0.85223 0.50128 0.14382 0.0
C315 C 0.65594 0.47236 0.13527 0.0
O316 O 0.64729 0.42038 0.14404 0.0
N317 N 0.80666 0.43346 0.1697 0.0
C318 C 0.84252 0.38817 0.19843 0.0
C319 C 0.88734 0.42407 0.18952 0.0
C320 C 0.86809 0.4474 0.17531 0.0
C321 C 0.76167 0.40102 0.17848 0.0
C322 C 0.77878 0.37695 0.1928 0.0
H323 H 0.90206 0.47891 0.16937 0.0
H324 H 0.71183 0.39409 0.17429 0.0
H325 H 0.84601 0.58258 0.16698 0.0
H326 H 0.66041 0.63254 0.18549 0.0
H327 H 0.78663 0.22827 0.13477 0.0
H328 H 0.93695 0.43447 0.19351 0.0
H329 H 0.74215 0.3509 0.19948 0.0
C330 C 0.55808 0.38018 0.76184 0.0
C331 C 0.61284 0.37032 0.75283 0.0
N332 N 0.62937 0.3054 0.75327 0.0
N333 N 0.5402 0.32186 0.76792 0.0
C334 C 0.58536 0.27778 0.7629 0.0
H335 H 0.5298 0.42566 0.76288 0.0
Co336 Co 0.46076 0.3067 0.77734 0.0
C337 C 0.46382 0.16514 0.78827 0.0
O338 O 0.40006 0.16267 0.78535 0.0
N339 N 0.37968 0.29349 0.78698 0.0
C340 C 0.27427 0.28373 0.79392 0.0
C341 C 0.31639 0.29542 0.78194 0.0
C342 C 0.37456 0.28168 0.80197 0.0
N343 N 0.31139 0.27461 0.80644 0.0
O344 O 0.4915 0.3594 0.79428 0.0
H345 H 0.30091 0.30534 0.77043 0.0
H346 H 0.41682 0.27893 0.80952 0.0
O347 O 0.49507 0.21998 0.78605 0.0
C348 C 0.46324 0.4165 0.7941 0.0
O349 O 0.41233 0.4252 0.78499 0.0
N350 N 0.43084 0.26534 0.75964 0.0
C351 C 0.38073 0.2257 0.73174 0.0
C352 C 0.42066 0.18269 0.7403 0.0
C353 C 0.44669 0.20405 0.75409 0.0
C354 C 0.39668 0.30936 0.75083 0.0
C355 C 0.37023 0.29037 0.73691 0.0
H356 H 0.48061 0.17149 0.75989 0.0
H357 H 0.38871 0.35937 0.75488 0.0
H358 H 0.58267 0.22549 0.76534 0.0
H359 H 0.63422 0.40702 0.74535 0.0
H360 H 0.22071 0.28233 0.79347 0.0
H361 H 0.4323 0.13327 0.73628 0.0
H362 H 0.34059 0.32537 0.73046 0.0
C363 C 0.38641 0.50909 0.16572 0.0
C364 C 0.38322 0.45819 0.17605 0.0
N365 N 0.31902 0.44449 0.17858 0.0
N366 N 0.32438 0.52775 0.16193 0.0
C367 C 0.2845 0.48661 0.16969 0.0
H368 H 0.43065 0.53563 0.16254 0.0
Co369 Co 0.30466 0.60694 0.15257 0.0
C370 C 0.16159 0.60291 0.14281 0.0
O371 O 0.15875 0.66662 0.14577 0.0
N372 N 0.28733 0.68758 0.14304 0.0
C373 C 0.27411 0.79296 0.13631 0.0
C374 C 0.28786 0.75067 0.14818 0.0
C375 C 0.274 0.69292 0.12811 0.0
N376 N 0.26501 0.7561 0.12376 0.0
O377 O 0.35454 0.57625 0.13504 0.0
H378 H 0.29843 0.76574 0.15967 0.0
H379 H 0.27203 0.65088 0.12051 0.0
O380 O 0.21685 0.57128 0.14487 0.0
C381 C 0.41057 0.60567 0.13411 0.0
O382 O 0.41924 0.65927 0.14231 0.0
N383 N 0.26675 0.6371 0.17074 0.0
C384 C 0.23572 0.68239 0.19976 0.0
C385 C 0.1893 0.64684 0.19124 0.0
C386 C 0.20611 0.62361 0.17686 0.0
C387 C 0.31348 0.66865 0.17918 0.0
C388 C 0.29884 0.6926 0.19364 0.0
H389 H 0.17074 0.59299 0.17113 0.0
H390 H 0.36258 0.67553 0.17453 0.0
H391 H 0.23135 0.49277 0.17038 0.0
H392 H 0.42426 0.4388 0.18265 0.0
H393 H 0.27172 0.84648 0.13683 0.0
H394 H 0.14007 0.63726 0.19559 0.0
H395 H 0.33667 0.71838 0.19999 0.0
C396 C 0.51025 0.8794 0.41926 0.0
C397 C 0.45846 0.8707 0.42919 0.0
N398 N 0.44304 0.80575 0.42949 0.0
N399 N 0.52733 0.82032 0.41335 0.0
C400 C 0.48456 0.77684 0.41941 0.0
H401 H 0.53747 0.92473 0.4175 0.0
Co402 Co 0.60507 0.80442 0.40311 0.0
C403 C 0.60096 0.66317 0.39199 0.0
O404 O 0.66556 0.66092 0.39371 0.0
N405 N 0.68446 0.79075 0.39269 0.0
C406 C 0.78914 0.78367 0.385 0.0
C407 C 0.74825 0.79133 0.39737 0.0
C408 C 0.68802 0.78298 0.37752 0.0
N409 N 0.75084 0.77838 0.37256 0.0
O410 O 0.57084 0.85759 0.38644 0.0
H411 H 0.76491 0.79834 0.40889 0.0
H412 H 0.64501 0.78266 0.37019 0.0
O413 O 0.56963 0.71787 0.39481 0.0
C414 C 0.59902 0.91437 0.38635 0.0
O415 O 0.65104 0.92259 0.39511 0.0
N416 N 0.63847 0.76291 0.42054 0.0
C417 C 0.68617 0.7256 0.44897 0.0
C418 C 0.64837 0.6817 0.44027 0.0
C419 C 0.62384 0.70172 0.42622 0.0
C420 C 0.67232 0.80721 0.4292 0.0
C421 C 0.69771 0.78932 0.44334 0.0
H422 H 0.5911 0.66849 0.42043 0.0
H423 H 0.67964 0.85702 0.425 0.0
H424 H 0.48743 0.72422 0.41735 0.0
H425 H 0.43864 0.90831 0.4367 0.0
H426 H 0.84276 0.78318 0.38513 0.0
H427 H 0.63752 0.63222 0.44429 0.0
H428 H 0.72511 0.82531 0.44989 0.0
C429 C 0.87497 0.53545 0.51102 0.0
C430 C 0.86794 0.58659 0.50082 0.0
N431 N 0.80453 0.60811 0.50128 0.0
N432 N 0.81632 0.52483 0.51782 0.0
C433 C 0.77494 0.57081 0.51202 0.0
H434 H 0.91849 0.50458 0.51252 0.0
Co435 Co 0.79812 0.45171 0.52943 0.0
C436 C 0.65517 0.46009 0.53831 0.0
O437 O 0.65339 0.39581 0.53607 0.0
N438 N 0.7818 0.37727 0.54141 0.0
C439 C 0.77068 0.27778 0.55189 0.0
C440 C 0.78208 0.31143 0.53857 0.0
C441 C 0.7703 0.38209 0.55644 0.0
N442 N 0.76367 0.32264 0.56307 0.0
O443 O 0.8489 0.49129 0.54569 0.0
H444 H 0.79151 0.28836 0.52774 0.0
H445 H 0.76728 0.42876 0.56244 0.0
O446 O 0.71045 0.49097 0.53638 0.0
C447 C 0.9057 0.46263 0.54655 0.0
O448 O 0.91441 0.4071 0.539 0.0
N449 N 0.75941 0.41276 0.51237 0.0
C450 C 0.73035 0.36073 0.48396 0.0
C451 C 0.68736 0.40654 0.49079 0.0
C452 C 0.70313 0.43266 0.50498 0.0
C453 C 0.80314 0.37082 0.50544 0.0
C454 C 0.78876 0.34261 0.49142 0.0
H455 H 0.67147 0.47102 0.50947 0.0
H456 H 0.85021 0.36005 0.51081 0.0
H457 H 0.72292 0.57368 0.51483 0.0
H458 H 0.90503 0.60211 0.4927 0.0
H459 H 0.7707 0.22453 0.55336 0.0
H460 H 0.64234 0.42256 0.48514 0.0
H461 H 0.82385 0.30862 0.48624 0.0
C462 C 0.56491 0.18381 0.41631 0.0
C463 C 0.61841 0.18774 0.4259 0.0
N464 N 0.6287 0.2521 0.42923 0.0
N465 N 0.54185 0.24531 0.41349 0.0
C466 C 0.58244 0.28578 0.4212 0.0
H467 H 0.54164 0.13875 0.41249 0.0
Co468 Co 0.4629 0.26474 0.40393 0.0
C469 C 0.46685 0.40849 0.39473 0.0
O470 O 0.40306 0.41102 0.39765 0.0
N471 N 0.38271 0.28225 0.39413 0.0
C472 C 0.27775 0.29443 0.38697 0.0
C473 C 0.31915 0.28119 0.39901 0.0
C474 C 0.37847 0.29581 0.37919 0.0
N475 N 0.31552 0.3038 0.37457 0.0
O476 O 0.49513 0.2159 0.38636 0.0
H477 H 0.30297 0.27029 0.41041 0.0
H478 H 0.42108 0.29803 0.37175 0.0
O479 O 0.49847 0.35313 0.39658 0.0
C480 C 0.46583 0.15987 0.38524 0.0
O481 O 0.41178 0.15078 0.39329 0.0
N482 N 0.43102 0.30117 0.42205 0.0
C483 C 0.38084 0.32897 0.45071 0.0
C484 C 0.41893 0.37591 0.44299 0.0
C485 C 0.44406 0.36093 0.42865 0.0
C486 C 0.3976 0.25371 0.4299 0.0
C487 C 0.37045 0.26708 0.44412 0.0
H488 H 0.47547 0.39687 0.42329 0.0
H489 H 0.39101 0.20532 0.42488 0.0
H490 H 0.57463 0.33858 0.4219 0.0
H491 H 0.64463 0.14593 0.43076 0.0
H492 H 0.22415 0.2959 0.38727 0.0
H493 H 0.42864 0.42399 0.44795 0.0
H494 H 0.3421 0.22939 0.44994 0.0
C495 C 0.18388 0.50247 0.51468 0.0
C496 C 0.19231 0.44853 0.50536 0.0
N497 N 0.25782 0.43955 0.50292 0.0
N498 N 0.24368 0.52718 0.51819 0.0
C499 C 0.28757 0.48738 0.51112 0.0
H500 H 0.13704 0.52413 0.51808 0.0
Co501 Co 0.25883 0.60441 0.52867 0.0
C502 C 0.40028 0.59784 0.5399 0.0
O503 O 0.40251 0.66261 0.53863 0.0
N504 N 0.27202 0.68244 0.53943 0.0
C505 C 0.28067 0.78556 0.54796 0.0
C506 C 0.27153 0.74691 0.53526 0.0
C507 C 0.2807 0.68329 0.55458 0.0
N508 N 0.28612 0.74503 0.56005 0.0
O509 O 0.20639 0.56892 0.54529 0.0
H510 H 0.26399 0.76526 0.52387 0.0
H511 H 0.28398 0.63894 0.56146 0.0
O512 O 0.34581 0.56757 0.5367 0.0
C513 C 0.14949 0.59765 0.54573 0.0
O514 O 0.14066 0.65099 0.53738 0.0
N515 N 0.29948 0.63973 0.51135 0.0
C516 C 0.33407 0.68927 0.4829 0.0
C517 C 0.38023 0.65392 0.49169 0.0
C518 C 0.36171 0.62857 0.50576 0.0
C519 C 0.25362 0.6727 0.5028 0.0
C520 C 0.26998 0.69867 0.48861 0.0
H521 H 0.39703 0.59766 0.51155 0.0
H522 H 0.20358 0.6783 0.50704 0.0
H523 H 0.34017 0.49621 0.51125 0.0
H524 H 0.15272 0.42058 0.50022 0.0
H525 H 0.28124 0.83914 0.54833 0.0
H526 H 0.4303 0.64526 0.48768 0.0
H527 H 0.23244 0.72451 0.48206 0.0
C528 C 0.26393 0.44255 0.21881 0.0
C529 C 0.23904 0.37807 0.22022 0.0
H530 H 0.3095 0.51368 0.20414 0.0
C531 C 0.24273 0.3347 0.20772 0.0
H532 H 0.26234 0.47675 0.22828 0.0
C533 C 0.27007 0.35598 0.19398 0.0
C534 C 0.29427 0.42044 0.19269 0.0
H535 H 0.22318 0.28498 0.20848 0.0
H536 H 0.27167 0.32279 0.18433 0.0
C537 C 0.29129 0.4635 0.20514 0.0
C538 C 0.42874 0.86808 0.73598 0.0
C539 C 0.41609 0.80115 0.73935 0.0
H540 H 0.41408 0.94853 0.72055 0.0
C541 C 0.37171 0.76611 0.7301 0.0
H542 H 0.46258 0.89707 0.74272 0.0
C543 C 0.34493 0.79561 0.71711 0.0
C544 C 0.36172 0.86084 0.7132 0.0
H545 H 0.35988 0.715 0.73253 0.0
H546 H 0.314 0.76614 0.70972 0.0
C547 C 0.40165 0.89758 0.72309 0.0
C548 C 0.86176 0.64768 0.19504 0.0
C549 C 0.79591 0.66283 0.19096 0.0
H550 H 0.93941 0.65929 0.21124 0.0
C551 C 0.75978 0.70759 0.20003 0.0
H552 H 0.89176 0.61365 0.18848 0.0
C553 C 0.78689 0.73238 0.21344 0.0
C554 C 0.8511 0.71365 0.21795 0.0
H555 H 0.70956 0.72161 0.19711 0.0
H556 H 0.75639 0.76384 0.22059 0.0
C557 C 0.88903 0.67305 0.20832 0.0
C558 C 0.71546 0.30536 0.73325 0.0
C559 C 0.6696 0.27075 0.74226 0.0
H560 H 0.7742 0.30533 0.713 0.0
C561 C 0.65723 0.20376 0.73889 0.0
H562 H 0.72771 0.35629 0.73573 0.0
C563 C 0.68472 0.17442 0.72604 0.0
C564 C 0.72498 0.21127 0.71624 0.0
H565 H 0.62298 0.17457 0.74547 0.0
H566 H 0.67185 0.12372 0.72338 0.0
C567 C 0.74267 0.27598 0.7203 0.0
C568 C 0.21521 0.16535 -0.0126 0.0
C569 C 0.28411 0.15507 -0.01131 0.0
H570 H 0.1347 0.19541 -0.02694 0.0
C571 C 0.32538 0.1774 -0.02315 0.0
H572 H 0.18164 0.15142 -0.0036 0.0
C573 C 0.29814 0.20412 0.96362 0.0
C574 C 0.22929 0.2085 0.96193 0.0
H575 H 0.37852 0.17125 -0.02269 0.0
H576 H 0.33076 0.2179 0.95437 0.0
C577 C 0.18806 0.19092 -0.02594 0.0
C578 C 0.19181 0.74011 0.95275 0.0
C579 C 0.16803 0.78092 0.94092 0.0
H580 H 0.23087 0.73549 -0.02463 0.0
C581 C 0.17424 0.85006 0.94238 0.0
H582 H 0.18829 0.68681 0.95215 0.0
C583 C 0.19725 0.8777 0.95587 0.0
C584 C 0.21628 0.83675 -0.03202 0.0
H585 H 0.15876 0.88318 0.93337 0.0
H586 H 0.19849 0.93113 0.957 0.0
C587 C 0.21602 0.76787 -0.03387 0.0
C588 C 0.89112 0.89398 -0.02534 0.0
C589 C 0.85557 0.85209 0.96499 0.0
H590 H 0.88864 0.95731 -0.00615 0.0
C591 C 0.79076 0.83396 -0.03107 0.0
H592 H 0.94175 0.90752 -0.02793 0.0
C593 C 0.76026 0.86161 -0.0183 0.0
C594 C 0.79391 0.90814 -0.00934 0.0
H595 H 0.76228 0.80146 0.9617 0.0
H596 H 0.70935 0.84892 -0.01587 0.0
C597 C 0.86066 0.92186 -0.01267 0.0
C598 C 0.84466 0.28696 0.96393 0.0
C599 C 0.85797 0.22066 -0.03222 0.0
H600 H 0.86313 0.36649 0.94849 0.0
C601 C 0.89577 0.1815 0.95781 0.0
H602 H 0.81543 0.31835 -0.02864 0.0
C603 C 0.92406 0.20928 0.94489 0.0
C604 C 0.91474 0.2769 0.94154 0.0
H605 H 0.90538 0.12972 0.96026 0.0
H606 H 0.95607 0.17812 0.93808 0.0
C607 C 0.87253 0.31471 0.9509 0.0
C608 C 0.80159 0.8585 0.71755 0.0
C609 C 0.73262 0.85753 0.71929 0.0
H610 H 0.88296 0.88601 0.70359 0.0
C611 C 0.69194 0.87603 0.7071 0.0
H612 H 0.83377 0.84407 0.72685 0.0
C613 C 0.7199 0.89853 0.69357 0.0
C614 C 0.7891 0.90476 0.69214 0.0
H615 H 0.63848 0.87422 0.70814 0.0
H616 H 0.68696 0.9132 0.68447 0.0
C617 C 0.82965 0.88223 0.70413 0.0
C618 C 0.84691 0.29725 0.21776 0.0
C619 C 0.86304 0.36211 0.21341 0.0
H620 H 0.86316 0.2186 0.23362 0.0
C621 C 0.90322 0.40027 0.22295 0.0
H622 H 0.81576 0.26674 0.21064 0.0
C623 C 0.93124 0.37245 0.23593 0.0
C624 C 0.9193 0.30584 0.23973 0.0
H625 H 0.91507 0.45103 0.22009 0.0
H626 H 0.96523 0.40244 0.24239 0.0
C627 C 0.87458 0.26948 0.23084 0.0
C628 C 0.28447 0.11904 0.7047 0.0
C629 C 0.287 0.15646 0.69131 0.0
H630 H 0.31256 0.11193 0.72804 0.0
C631 C 0.32043 0.21691 0.69108 0.0
H632 H 0.25954 0.07168 0.70486 0.0
C633 C 0.35072 0.24018 0.7043 0.0
C634 C 0.34873 0.20233 0.71772 0.0
H635 H 0.32333 0.2455 0.68069 0.0
H636 H 0.37671 0.28693 0.70398 0.0
C637 C 0.31525 0.14167 0.71781 0.0
C638 C 0.2345 0.77562 0.21847 0.0
C639 C 0.21695 0.71051 0.21467 0.0
H640 H 0.21997 0.85699 0.23362 0.0
C641 C 0.17627 0.67463 0.22458 0.0
H642 H 0.26608 0.80447 0.21107 0.0
C643 C 0.14875 0.70506 0.23731 0.0
C644 C 0.16175 0.77209 0.24049 0.0
H645 H 0.16338 0.62371 0.22216 0.0
H646 H 0.11428 0.67666 0.24403 0.0
C647 C 0.20744 0.80597 0.23131 0.0
C648 C 0.70456 0.63639 0.48639 0.0
C649 C 0.77177 0.64716 0.48978 0.0
H650 H 0.62456 0.65394 0.47101 0.0
C651 C 0.80814 0.6908 0.48059 0.0
H652 H 0.67463 0.60306 0.49307 0.0
C653 C 0.77944 0.71894 0.46766 0.0
C654 C 0.71371 0.70423 0.46375 0.0
H655 H 0.85957 0.70108 0.48304 0.0
H656 H 0.80976 0.74941 0.46033 0.0
C657 C 0.67587 0.6648 0.47355 0.0
C658 C 0.68712 0.23669 0.45374 0.0
C659 C 0.66633 0.2783 0.44176 0.0
H660 H 0.72379 0.23069 0.47654 0.0
C661 C 0.67521 0.34713 0.44324 0.0
H662 H 0.68146 0.18359 0.45315 0.0
C663 C 0.69801 0.37394 0.45683 0.0
C664 C 0.71417 0.33237 0.46905 0.0
H665 H 0.66206 0.38074 0.43413 0.0
H666 H 0.70152 0.42726 0.45794 0.0
C667 C 0.71113 0.26356 0.46723 0.0
C668 C 0.35847 0.39567 0.49024 0.0
C669 C 0.28885 0.39953 0.4913 0.0
H670 H 0.44224 0.37107 0.47633 0.0
C671 C 0.25064 0.3704 0.47973 0.0
H672 H 0.39003 0.41485 0.49909 0.0
C673 C 0.28107 0.34363 0.46689 0.0
C674 C 0.35004 0.34601 0.46532 0.0
H675 H 0.19716 0.37137 0.48006 0.0
H676 H 0.25047 0.32481 0.45777 0.0
C677 C 0.38871 0.37014 0.47725 0.0
C678 C 0.39465 0.67856 0.45829 0.0
C679 C 0.35338 0.71589 0.46789 0.0
H680 H 0.45563 0.67715 0.43869 0.0
C681 C 0.33446 0.78015 0.46347 0.0
H682 H 0.40862 0.6282 0.46119 0.0
C683 C 0.36033 0.80818 0.45024 0.0
C684 C 0.40606 0.77273 0.44127 0.0
H685 H 0.30235 0.81001 0.47061 0.0
H686 H 0.34659 0.85858 0.44741 0.0
C687 C 0.42088 0.70662 0.44518 0.0
C688 C 1.0017 0.10431 0.30134 0.0
C689 C 0.0711 0.10615 0.30083 0.0
H690 H 0.91529 0.04374 0.30012 0.0
C691 C 0.10666 0.04589 0.30192 0.0
H692 H 0.97279 0.14957 0.30052 0.0
C693 C 0.07376 0.98497 0.30162 0.0
C694 C 1.0046 0.98322 0.30021 0.0
H695 H 0.16032 0.0456 0.30171 0.0
H696 H 0.10282 0.93974 0.30103 0.0
C697 C 0.96882 0.04341 0.30103 0.0
C698 C 0.09837 0.07478 0.62791 0.0
C699 C 0.1017 1.00542 0.62848 0.0
H700 H 0.03609 0.16072 0.62943 0.0
C701 C 0.04208 0.9695 0.62752 0.0
H702 H 0.14306 0.10401 0.62863 0.0
C703 C 0.98047 1.00195 0.62808 0.0
C704 C 0.97738 0.07103 0.62961 0.0
H705 H 0.04291 0.91585 0.62777 0.0
H706 H 0.93593 0.97254 0.6289 0.0
C707 C 0.03678 0.10723 0.62846 0.0
C708 C 0.06794 0.58923 0.87822 0.0
C709 C 0.99884 0.5921 0.87979 0.0
H710 H 0.15441 0.52732 0.8781 0.0
C711 C 0.96297 0.53239 0.87907 0.0
H712 H 0.09711 0.63401 0.87872 0.0
C713 C 0.99577 0.47096 0.87883 0.0
C714 C 0.06517 0.46809 0.87927 0.0
H715 H 0.90947 0.53287 0.88009 0.0
H716 H 0.96681 0.42618 0.87979 0.0
C717 C 0.10074 0.52779 0.87796 0.0
C718 C 0.58349 1.00012 0.05259 0.0
C719 C 0.58514 0.06879 0.05025 0.0
H720 H 0.52302 0.91364 0.05388 0.0
C721 C 0.52484 0.10458 0.05061 0.0
H722 H 0.6288 0.97107 0.05241 0.0
C723 C 0.46398 0.07173 0.05138 0.0
C724 C 0.46221 1.00232 0.05179 0.0
H725 H 0.52438 0.15779 0.04902 0.0
H726 H 0.41869 0.10035 0.05016 0.0
C727 C 0.52259 0.96725 0.05338 0.0
C728 C 0.56462 0.47873 0.80215 0.0
C729 C 0.49576 0.4769 0.80011 0.0
H730 H 0.65114 0.53934 0.80286 0.0
C731 C 0.45991 0.53715 0.80048 0.0
H732 H 0.59376 0.43348 0.80192 0.0
C733 C 0.49276 0.59807 0.80095 0.0
C734 C 0.5622 0.59987 0.80105 0.0
H735 H 0.40659 0.53744 0.79907 0.0
H736 H 0.46405 0.64329 0.79974 0.0
C737 C 0.59748 0.53965 0.80262 0.0
C738 C 0.53599 0.46943 0.1283 0.0
C739 C 0.59549 0.50551 0.1292 0.0
H740 H 0.42977 0.47282 0.1288 0.0
C741 C 0.59246 0.57462 0.12771 0.0
H742 H 0.53666 0.41593 0.12926 0.0
C743 C 0.5309 0.6072 0.12735 0.0
C744 C 0.47128 0.57137 0.12851 0.0
H745 H 0.63713 0.60391 0.12835 0.0
H746 H 0.53019 0.66085 0.12761 0.0
C747 C 0.47445 0.502 0.12794 0.0
C748 C 0.60233 1.03459 0.37955 0.0
C749 C 0.56616 0.97508 0.38032 0.0
H750 H 0.599 0.14079 0.38016 0.0
C751 C 0.49713 0.97823 0.37867 0.0
H752 H 0.6558 1.03386 0.38063 0.0
C753 C 0.46461 0.03982 0.3783 0.0
C754 C 0.50042 0.09937 0.37961 0.0
H755 H 0.46776 0.93358 0.37919 0.0
H756 H 0.41094 0.04055 0.37843 0.0
C757 C 0.56983 0.09616 0.37918 0.0
C758 C 0.08726 0.49485 0.55287 0.0
C759 C 0.08911 0.564 0.55146 0.0
H760 H 1.02664 0.40834 0.55284 0.0
C761 C 1.02885 0.59977 0.55221 0.0
H762 H 0.13251 0.46578 0.55235 0.0
C763 C 0.9679 0.5669 0.55238 0.0
C764 C 0.96607 0.49754 0.55184 0.0
H765 H 1.02855 0.65329 0.55133 0.0
H766 H 0.92268 0.59583 0.55148 0.0
C767 C 1.02631 0.46199 0.55306 0.0
C768 C 0.96737 0.54695 0.29199 0.0
C769 C 1.00289 0.60712 0.29182 0.0
H770 H 0.97131 0.44049 0.29141 0.0
C771 C 0.07228 0.60383 0.29224 0.0
H772 H 0.91375 0.54714 0.29167 0.0
C773 C 0.10516 0.54232 0.29228 0.0
C774 C 0.06972 0.48216 0.29173 0.0
H775 H 0.10134 0.64873 0.2921 0.0
H776 H 0.1588 0.54223 0.29224 0.0
C777 C 1.00029 0.4854 0.29185 0.0
C778 C 0.48162 0.07684 0.6404 0.0
C779 C 0.47761 1.00758 0.63982 0.0
H780 H 0.54416 0.16166 0.64185 0.0
C781 C 0.53754 0.97081 0.63928 0.0
H782 H 0.43698 0.10686 0.64086 0.0
C783 C 0.59942 1.00208 0.64007 0.0
C784 C 0.60337 0.0712 0.64124 0.0
H785 H 0.53688 0.91723 0.6388 0.0
H786 H 0.64402 0.97194 0.64019 0.0
C787 C 0.54352 0.10816 0.64102 0.0
C788 C 0.10325 1.03189 0.89076 0.0
C789 C 0.0669 0.09208 0.89082 0.0
H790 H 0.10098 0.92544 0.89135 0.0
C791 C 0.99757 0.0887 0.89024 0.0
H792 H 0.15687 1.03207 0.89117 0.0
C793 C 0.96561 1.02706 0.89014 0.0
C794 C 1.00193 0.96688 0.89078 0.0
H795 H 0.96788 0.13358 0.89028 0.0
H796 H 0.91197 1.02684 0.89007 0.0
C797 C 0.07129 0.97028 0.89082 0.0
C798 C 0.96644 0.99906 0.0404 0.0
C799 C 0.96251 0.06843 0.04046 0.0
H800 H 1.02878 0.91314 0.03965 0.0
C801 C 1.02246 0.10439 0.04065 0.0
H802 H 0.92179 0.96963 0.04021 0.0
C803 C 0.08434 0.07204 0.04012 0.0
C804 C 0.08817 1.0027 0.03954 0.0
H805 H 1.02181 0.15802 0.0407 0.0
H806 H 0.12901 0.10144 0.03978 0.0
C807 C 1.02826 0.96674 0.04002 0.0
C808 C 0.46382 0.04064 0.79077 0.0
C809 C 0.49957 0.10067 0.79058 0.0
H810 H 0.46726 0.93418 0.79035 0.0
C811 C 0.56895 0.09707 0.79116 0.0
H812 H 0.4102 0.04104 0.79036 0.0
C813 C 0.60157 0.03538 0.79132 0.0
C814 C 0.56588 0.97537 0.79076 0.0
H815 H 0.59821 0.14184 0.791 0.0
H816 H 0.65522 0.03499 0.79135 0.0
C817 C 0.49646 0.97895 0.79078 0.0
C818 C 0.97547 0.57376 0.13957 0.0
C819 C 0.97151 0.50448 0.13924 0.0
H820 H 0.03788 0.65869 0.14063 0.0
C821 C 1.03141 0.46768 0.1387 0.0
H822 H 0.93084 0.6038 0.14 0.0
C823 C 0.09331 0.49906 0.13928 0.0
C824 C 0.09719 0.56825 0.14025 0.0
H825 H 1.03072 0.41408 0.13841 0.0
H826 H 0.13795 0.46899 0.13945 0.0
C827 C 0.03732 0.60514 0.13998 0.0
C828 C 0.49633 0.59464 0.3913 0.0
C829 C 0.56561 0.59842 0.39056 0.0
H830 H 0.41131 0.53248 0.39293 0.0
C831 C 0.60216 0.53839 0.38994 0.0
H832 H 0.46647 0.63936 0.39184 0.0
C833 C 0.57063 0.4766 0.39077 0.0
C834 C 0.5015 0.47292 0.3921 0.0
H835 H 0.65573 0.5389 0.38935 0.0
H836 H 0.60059 0.43189 0.39081 0.0
C837 C 0.46479 0.53289 0.39199 0.0
C838 C 0.52491 0.59715 0.54235 0.0
C839 C 0.46492 0.56151 0.54139 0.0
H840 H 0.63147 0.59402 0.54206 0.0
C841 C 0.46868 0.49224 0.5405 0.0
H842 H 0.52439 0.65069 0.54305 0.0
C843 C 0.53045 0.45981 0.54009 0.0
C844 C 0.59044 0.49563 0.54041 0.0
H845 H 0.42398 0.46308 0.53968 0.0
H846 H 0.53091 0.40637 0.53906 0.0
C847 C 0.58672 0.56475 0.54178 0.0
C848 C 0.33556 0.34339 0.34856 0.0
C849 C 0.29438 0.31165 0.35915 0.0
H850 H 0.35267 0.36679 0.32518 0.0
C851 C 0.23547 0.2824 0.35421 0.0
H852 H 0.38068 0.36744 0.35216 0.0
C853 C 0.21958 0.28209 0.33884 0.0
C854 C 0.26227 0.3112 0.32817 0.0
H855 H 0.20333 0.25687 0.36209 0.0
H856 H 0.17531 0.25651 0.33527 0.0
C857 C 0.31974 0.34295 0.33317 0.0
C858 C 0.27058 0.73933 0.60227 0.0
C859 C 0.30242 0.79799 0.60645 0.0
H860 H 0.23879 0.67752 0.58413 0.0
C861 C 0.33101 0.83798 0.59516 0.0
H862 H 0.2471 0.70826 0.6107 0.0
C863 C 0.32603 0.82056 0.57989 0.0
C864 C 0.29275 0.7627 0.57571 0.0
H865 H 0.35667 0.88304 0.59813 0.0
H866 H 0.34824 0.85213 0.57138 0.0
C867 C 0.26567 0.72192 0.58704 0.0
C868 C 0.84727 0.81073 0.33724 0.0
C869 C 0.80566 0.78336 0.32614 0.0
H870 H 0.86219 0.83073 0.36078 0.0
C871 C 0.74747 0.75127 0.33061 0.0
H872 H 0.89195 0.8367 0.33409 0.0
C873 C 0.7306 0.74762 0.34593 0.0
C874 C 0.77148 0.77639 0.357 0.0
H875 H 0.71524 0.72887 0.32227 0.0
H876 H 0.6854 0.72264 0.34912 0.0
C877 C 0.83038 0.80718 0.35253 0.0
C878 C 0.72965 0.23732 0.59976 0.0
C879 C 0.76357 0.27821 0.61001 0.0
H880 H 0.70288 0.21993 0.57659 0.0
C881 C 0.79187 0.33718 0.60481 0.0
H882 H 0.70602 0.19231 0.60358 0.0
C883 C 0.78982 0.35297 0.58943 0.0
C884 C 0.75931 0.31003 0.57904 0.0
H885 H 0.81872 0.36918 0.61247 0.0
H886 H 0.8151 0.39703 0.58559 0.0
C887 C 0.72781 0.25297 0.58437 0.0
C888 C 0.21328 0.29142 0.84207 0.0
C889 C 0.25587 0.26077 0.85262 0.0
H890 H 0.19798 0.32008 0.81896 0.0
C891 C 0.31379 0.22939 0.8475 0.0
H892 H 0.16862 0.31671 0.84574 0.0
C893 C 0.33039 0.23119 0.83216 0.0
C894 C 0.28953 0.26483 0.82174 0.0
H895 H 0.34665 0.20439 0.85539 0.0
H896 H 0.37589 0.20743 0.82849 0.0
C897 C 0.22996 0.29337 0.82674 0.0
C898 C 0.22322 0.73724 0.09792 0.0
C899 C 0.25533 0.77822 0.10846 0.0
H900 H 0.19888 0.72066 0.07458 0.0
C901 C 0.28329 0.83782 0.10354 0.0
H902 H 0.19999 0.69166 0.10151 0.0
C903 C 0.28249 0.85434 0.0882 0.0
C904 C 0.25355 0.81157 0.07754 0.0
H905 H 0.30891 0.86989 0.11141 0.0
H906 H 0.30747 0.89898 0.08463 0.0
C907 C 0.22258 0.75366 0.08256 0.0
C908 C 0.7312 0.77323 0.85449 0.0
C909 C 0.79052 0.80214 0.8593 0.0
H910 H 0.66967 0.74857 0.83565 0.0
C911 C 0.83069 0.83489 0.84867 0.0
H912 H 0.69974 0.74718 0.86243 0.0
C913 C 0.81373 0.83548 0.83335 0.0
C914 C 0.75609 0.80377 0.82844 0.0
H915 H 0.87596 0.8589 0.85217 0.0
H916 H 0.84608 0.85992 0.82533 0.0
C917 C 0.71413 0.77399 0.83916 0.0
C918 C 0.76037 0.22304 0.08677 0.0
C919 C 0.78794 0.26462 0.07566 0.0
H920 H 0.73995 0.20826 0.11032 0.0
C921 C 0.8204 0.32254 0.08011 0.0
H922 H 0.73418 0.17853 0.08363 0.0
C923 C 0.82397 0.33935 0.09543 0.0
C924 C 0.7947 0.29871 0.1065 0.0
H925 H 0.84299 0.35469 0.07176 0.0
H926 H 0.84911 0.38444 0.0986 0.0
C927 C 0.76381 0.2399 0.10206 0.0
loop_
_geom_bond_atom_site_label_1
_geom_bond_atom_site_label_2
_geom_bond_distance
_geom_bond_site_symmetry_2
_ccdc_geom_bond_type
C0 C1 1.351 . S
C0 N3 1.368 . S
C0 H5 0.931 . S
C1 C0 1.351 . S
C1 N2 1.373 . S
C1 H29 0.930 . S
N2 C1 1.373 . S
N2 C4 1.340 . S
N3 C0 1.368 . S
N3 C4 1.321 . S
N3 Co6 2.135 1_655 S
C4 N2 1.340 . S
C4 N3 1.321 . S
C4 H28 0.930 . S
H5 C0 0.931 . S
Co6 N3 2.135 1_455 S
Co6 N9 2.121 . S
Co6 O14 2.055 1_455 S
Co6 O17 2.039 1_455 S
Co6 N20 2.140 . S
C7 O8 1.227 . S
C7 O17 1.265 . S
O8 C7 1.227 . S
N9 Co6 2.121 . S
N9 C11 1.375 . S
N9 C12 1.313 . S
C10 C11 1.338 . S
C10 N13 1.377 . S
C10 H30 0.930 . S
C11 N9 1.375 . S
C11 C10 1.338 . S
C11 H15 0.931 . S
C12 N9 1.313 . S
C12 N13 1.344 . S
C12 H16 0.930 . S
N13 C10 1.377 . S
N13 C12 1.344 . S
O14 Co6 2.055 1_655 S
O14 C18 1.253 . S
H15 C11 0.931 . S
H16 C12 0.930 . S
O17 Co6 2.039 1_655 S
O17 C7 1.265 . S
C18 O14 1.253 . S
C18 O19 1.227 1_655 S
O19 C18 1.227 1_455 S
N20 Co6 2.140 . S
N20 C23 1.346 . S
N20 C24 1.345 . S
C21 C22 1.387 . S
C21 C25 1.391 . S
C22 C21 1.387 . S
C22 C23 1.369 . S
C22 H31 0.929 . S
C23 N20 1.346 . S
C23 C22 1.369 . S
C23 H26 0.928 . S
C24 N20 1.345 . S
C24 C25 1.371 . S
C24 H27 0.931 . S
C25 C21 1.391 . S
C25 C24 1.371 . S
C25 H32 0.930 . S
H26 C23 0.928 . S
H27 C24 0.931 . S
H28 C4 0.930 . S
H29 C1 0.930 . S
H30 C10 0.930 . S
H31 C22 0.929 . S
H32 C25 0.930 . S
C33 C34 1.351 . S
C33 N36 1.368 . S
C33 H38 0.931 . S
C34 C33 1.351 . S
C34 N35 1.373 . S
C34 H62 0.930 . S
N35 C34 1.373 . S
N35 C37 1.340 . S
N36 C33 1.368 . S
N36 C37 1.321 . S
N36 Co39 2.135 1_545 S
C37 N35 1.340 . S
C37 N36 1.321 . S
C37 H61 0.930 . S
H38 C33 0.931 . S
Co39 N36 2.135 1_565 S
Co39 N42 2.121 . S
Co39 O47 2.055 1_565 S
Co39 O50 2.039 1_565 S
Co39 N53 2.140 . S
C40 O41 1.227 . S
C40 O50 1.265 . S
O41 C40 1.227 . S
N42 Co39 2.121 . S
N42 C44 1.375 . S
N42 C45 1.313 . S
C43 C44 1.338 . S
C43 N46 1.377 . S
C43 H63 0.930 . S
C44 N42 1.375 . S
C44 C43 1.338 . S
C44 H48 0.931 . S
C45 N42 1.313 . S
C45 N46 1.344 . S
C45 H49 0.930 . S
N46 C43 1.377 . S
N46 C45 1.344 . S
O47 Co39 2.055 1_545 S
O47 C51 1.253 . S
H48 C44 0.931 . S
H49 C45 0.930 . S
O50 Co39 2.039 1_545 S
O50 C40 1.265 . S
C51 O47 1.253 . S
C51 O52 1.227 1_545 S
O52 C51 1.227 1_565 S
N53 Co39 2.140 . S
N53 C56 1.346 . S
N53 C57 1.345 . S
C54 C55 1.387 . S
C54 C58 1.391 . S
C55 C54 1.387 . S
C55 C56 1.369 . S
C55 H64 0.929 . S
C56 N53 1.346 . S
C56 C55 1.369 . S
C56 H59 0.928 . S
C57 N53 1.345 . S
C57 C58 1.371 . S
C57 H60 0.931 . S
C58 C54 1.391 . S
C58 C57 1.371 . S
C58 H65 0.930 . S
H59 C56 0.928 . S
H60 C57 0.931 . S
H61 C37 0.930 . S
H62 C34 0.930 . S
H63 C43 0.930 . S
H64 C55 0.929 . S
H65 C58 0.930 . S
C66 C67 1.351 . S
C66 N69 1.368 . S
C66 H71 0.931 . S
C67 C66 1.351 . S
C67 N68 1.373 . S
C67 H95 0.930 . S
N68 C67 1.373 . S
N68 C70 1.340 . S
N69 C66 1.368 . S
N69 C70 1.321 . S
N69 Co72 2.135 1_455 S
C70 N68 1.340 . S
C70 N69 1.321 . S
C70 H94 0.930 . S
H71 C66 0.931 . S
Co72 N69 2.135 1_655 S
Co72 N75 2.121 . S
Co72 O80 2.055 1_655 S
Co72 O83 2.039 1_655 S
Co72 N86 2.140 . S
C73 O74 1.227 . S
C73 O83 1.265 . S
O74 C73 1.227 . S
N75 Co72 2.121 . S
N75 C77 1.375 . S
N75 C78 1.313 . S
C76 C77 1.338 . S
C76 N79 1.377 . S
C76 H96 0.930 . S
C77 N75 1.375 . S
C77 C76 1.338 . S
C77 H81 0.931 . S
C78 N75 1.313 . S
C78 N79 1.344 . S
C78 H82 0.930 . S
N79 C76 1.377 . S
N79 C78 1.344 . S
O80 Co72 2.055 1_455 S
O80 C84 1.253 . S
H81 C77 0.931 . S
H82 C78 0.930 . S
O83 Co72 2.039 1_455 S
O83 C73 1.265 . S
C84 O80 1.253 . S
C84 O85 1.227 1_455 S
O85 C84 1.227 1_655 S
N86 Co72 2.140 . S
N86 C89 1.346 . S
N86 C90 1.345 . S
C87 C88 1.387 . S
C87 C91 1.391 . S
C88 C87 1.387 . S
C88 C89 1.369 . S
C88 H97 0.929 . S
C89 N86 1.346 . S
C89 C88 1.369 . S
C89 H92 0.928 . S
C90 N86 1.345 . S
C90 C91 1.371 . S
C90 H93 0.931 . S
C91 C87 1.391 . S
C91 C90 1.371 . S
C91 H98 0.930 . S
H92 C89 0.928 . S
H93 C90 0.931 . S
H94 C70 0.930 . S
H95 C67 0.930 . S
H96 C76 0.930 . S
H97 C88 0.929 . S
H98 C91 0.930 . S
C99 C100 1.351 . S
C99 N102 1.368 . S
C99 H104 0.931 . S
C100 C99 1.351 . S
C100 N101 1.373 . S
C100 H128 0.930 . S
N101 C100 1.373 . S
N101 C103 1.340 . S
N102 C99 1.368 . S
N102 C103 1.321 . S
N102 Co105 2.135 1_565 S
C103 N101 1.340 . S
C103 N102 1.321 . S
C103 H127 0.930 . S
H104 C99 0.931 . S
Co105 N102 2.135 1_545 S
Co105 N108 2.121 . S
Co105 O113 2.055 1_545 S
Co105 O116 2.039 1_545 S
Co105 N119 2.140 . S
C106 O107 1.227 . S
C106 O116 1.265 . S
O107 C106 1.227 . S
N108 Co105 2.121 . S
N108 C110 1.375 . S
N108 C111 1.313 . S
C109 C110 1.338 . S
C109 N112 1.377 . S
C109 H129 0.930 . S
C110 N108 1.375 . S
C110 C109 1.338 . S
C110 H114 0.931 . S
C111 N108 1.313 . S
C111 N112 1.344 . S
C111 H115 0.930 . S
N112 C109 1.377 . S
N112 C111 1.344 . S
O113 Co105 2.055 1_565 S
O113 C117 1.253 . S
H114 C110 0.931 . S
H115 C111 0.930 . S
O116 Co105 2.039 1_565 S
O116 C106 1.265 . S
C117 O113 1.253 . S
C117 O118 1.227 1_565 S
O118 C117 1.227 1_545 S
N119 Co105 2.140 . S
N119 C122 1.346 . S
N119 C123 1.345 . S
C120 C121 1.387 . S
C120 C124 1.391 . S
C121 C120 1.387 . S
C121 C122 1.369 . S
C121 H130 0.929 . S
C122 N119 1.346 . S
C122 C121 1.369 . S
C122 H125 0.928 . S
C123 N119 1.345 . S
C123 C124 1.371 . S
C123 H126 0.931 . S
C124 C120 1.391 . S
C124 C123 1.371 . S
C124 H131 0.930 . S
H125 C122 0.928 . S
H126 C123 0.931 . S
H127 C103 0.930 . S
H128 C100 0.930 . S
H129 C109 0.930 . S
H130 C121 0.929 . S
H131 C124 0.930 . S
C132 C133 1.351 . S
C132 N135 1.368 . S
C132 H137 0.931 . S
C133 C132 1.351 . S
C133 N134 1.373 . S
C133 H161 0.930 . S
N134 C133 1.373 . S
N134 C136 1.340 . S
N135 C132 1.368 . S
N135 C136 1.321 . S
N135 Co138 2.135 1_655 S
C136 N134 1.340 . S
C136 N135 1.321 . S
C136 H160 0.930 . S
H137 C132 0.931 . S
Co138 N135 2.135 1_455 S
Co138 N141 2.121 . S
Co138 O146 2.055 1_455 S
Co138 O149 2.039 1_455 S
Co138 N152 2.140 . S
C139 O140 1.227 . S
C139 O149 1.265 . S
O140 C139 1.227 . S
N141 Co138 2.121 . S
N141 C143 1.375 . S
N141 C144 1.313 . S
C142 C143 1.338 . S
C142 N145 1.377 . S
C142 H162 0.930 . S
C143 N141 1.375 . S
C143 C142 1.338 . S
C143 H147 0.931 . S
C144 N141 1.313 . S
C144 N145 1.344 . S
C144 H148 0.930 . S
N145 C142 1.377 . S
N145 C144 1.344 . S
O146 Co138 2.055 1_655 S
O146 C150 1.253 . S
H147 C143 0.931 . S
H148 C144 0.930 . S
O149 Co138 2.039 1_655 S
O149 C139 1.265 . S
C150 O146 1.253 . S
C150 O151 1.227 1_655 S
O151 C150 1.227 1_455 S
N152 Co138 2.140 . S
N152 C155 1.346 . S
N152 C156 1.345 . S
C153 C154 1.387 . S
C153 C157 1.391 . S
C154 C153 1.387 . S
C154 C155 1.369 . S
C154 H163 0.929 . S
C155 N152 1.346 . S
C155 C154 1.369 . S
C155 H158 0.928 . S
C156 N152 1.345 . S
C156 C157 1.371 . S
C156 H159 0.931 . S
C157 C153 1.391 . S
C157 C156 1.371 . S
C157 H164 0.930 . S
H158 C155 0.928 . S
H159 C156 0.931 . S
H160 C136 0.930 . S
H161 C133 0.930 . S
H162 C142 0.930 . S
H163 C154 0.929 . S
H164 C157 0.930 . S
C165 C166 1.351 . S
C165 N168 1.368 . S
C165 H170 0.931 . S
C166 C165 1.351 . S
C166 N167 1.373 . S
C166 H194 0.930 . S
N167 C166 1.373 . S
N167 C169 1.340 . S
N168 C165 1.368 . S
N168 C169 1.321 . S
N168 Co171 2.135 1_545 S
C169 N167 1.340 . S
C169 N168 1.321 . S
C169 H193 0.930 . S
H170 C165 0.931 . S
Co171 N168 2.135 1_565 S
Co171 N174 2.121 . S
Co171 O179 2.055 1_565 S
Co171 O182 2.039 1_565 S
Co171 N185 2.140 . S
C172 O173 1.227 . S
C172 O182 1.265 . S
O173 C172 1.227 . S
N174 Co171 2.121 . S
N174 C176 1.375 . S
N174 C177 1.313 . S
C175 C176 1.338 . S
C175 N178 1.377 . S
C175 H195 0.930 . S
C176 N174 1.375 . S
C176 C175 1.338 . S
C176 H180 0.931 . S
C177 N174 1.313 . S
C177 N178 1.344 . S
C177 H181 0.930 . S
N178 C175 1.377 . S
N178 C177 1.344 . S
O179 Co171 2.055 1_545 S
O179 C183 1.253 . S
H180 C176 0.931 . S
H181 C177 0.930 . S
O182 Co171 2.039 1_545 S
O182 C172 1.265 . S
C183 O179 1.253 . S
C183 O184 1.227 1_545 S
O184 C183 1.227 1_565 S
N185 Co171 2.140 . S
N185 C188 1.346 . S
N185 C189 1.345 . S
C186 C187 1.387 . S
C186 C190 1.391 . S
C187 C186 1.387 . S
C187 C188 1.369 . S
C187 H196 0.929 . S
C188 N185 1.346 . S
C188 C187 1.369 . S
C188 H191 0.928 . S
C189 N185 1.345 . S
C189 C190 1.371 . S
C189 H192 0.931 . S
C190 C186 1.391 . S
C190 C189 1.371 . S
C190 H197 0.930 . S
H191 C188 0.928 . S
H192 C189 0.931 . S
H193 C169 0.930 . S
H194 C166 0.930 . S
H195 C175 0.930 . S
H196 C187 0.929 . S
H197 C190 0.930 . S
C198 C199 1.351 . S
C198 N201 1.368 . S
C198 H203 0.931 . S
C199 C198 1.351 . S
C199 N200 1.373 . S
C199 H227 0.930 . S
N200 C199 1.373 . S
N200 C202 1.340 . S
N201 C198 1.368 . S
N201 C202 1.321 . S
N201 Co204 2.135 1_455 S
C202 N200 1.340 . S
C202 N201 1.321 . S
C202 H226 0.930 . S
H203 C198 0.931 . S
Co204 N201 2.135 1_655 S
Co204 N207 2.121 . S
Co204 O212 2.055 1_655 S
Co204 O215 2.039 1_655 S
Co204 N218 2.140 . S
C205 O206 1.227 . S
C205 O215 1.265 . S
O206 C205 1.227 . S
N207 Co204 2.121 . S
N207 C209 1.375 . S
N207 C210 1.313 . S
C208 C209 1.338 . S
C208 N211 1.377 . S
C208 H228 0.930 . S
C209 N207 1.375 . S
C209 C208 1.338 . S
C209 H213 0.931 . S
C210 N207 1.313 . S
C210 N211 1.344 . S
C210 H214 0.930 . S
N211 C208 1.377 . S
N211 C210 1.344 . S
O212 Co204 2.055 1_455 S
O212 C216 1.253 . S
H213 C209 0.931 . S
H214 C210 0.930 . S
O215 Co204 2.039 1_455 S
O215 C205 1.265 . S
C216 O212 1.253 . S
C216 O217 1.227 1_455 S
O217 C216 1.227 1_655 S
N218 Co204 2.140 . S
N218 C221 1.346 . S
N218 C222 1.345 . S
C219 C220 1.387 . S
C219 C223 1.391 . S
C220 C219 1.387 . S
C220 C221 1.369 . S
C220 H229 0.929 . S
C221 N218 1.346 . S
C221 C220 1.369 . S
C221 H224 0.928 . S
C222 N218 1.345 . S
C222 C223 1.371 . S
C222 H225 0.931 . S
C223 C219 1.391 . S
C223 C222 1.371 . S
C223 H230 0.930 . S
H224 C221 0.928 . S
H225 C222 0.931 . S
H226 C202 0.930 . S
H227 C199 0.930 . S
H228 C208 0.930 . S
H229 C220 0.929 . S
H230 C223 0.930 . S
C231 C232 1.351 . S
C231 N234 1.368 . S
C231 H236 0.931 . S
C232 C231 1.351 . S
C232 N233 1.373 . S
C232 H260 0.930 . S
N233 C232 1.373 . S
N233 C235 1.340 . S
N234 C231 1.368 . S
N234 C235 1.321 . S
N234 Co237 2.135 1_565 S
C235 N233 1.340 . S
C235 N234 1.321 . S
C235 H259 0.930 . S
H236 C231 0.931 . S
Co237 N234 2.135 1_545 S
Co237 N240 2.121 . S
Co237 O245 2.055 1_545 S
Co237 O248 2.039 1_545 S
Co237 N251 2.140 . S
C238 O239 1.227 . S
C238 O248 1.265 . S
O239 C238 1.227 . S
N240 Co237 2.121 . S
N240 C242 1.375 . S
N240 C243 1.313 . S
C241 C242 1.338 . S
C241 N244 1.377 . S
C241 H261 0.930 . S
C242 N240 1.375 . S
C242 C241 1.338 . S
C242 H246 0.931 . S
C243 N240 1.313 . S
C243 N244 1.344 . S
C243 H247 0.930 . S
N244 C241 1.377 . S
N244 C243 1.344 . S
O245 Co237 2.055 1_565 S
O245 C249 1.253 . S
H246 C242 0.931 . S
H247 C243 0.930 . S
O248 Co237 2.039 1_565 S
O248 C238 1.265 . S
C249 O245 1.253 . S
C249 O250 1.227 1_565 S
O250 C249 1.227 1_545 S
N251 Co237 2.140 . S
N251 C254 1.346 . S
N251 C255 1.345 . S
C252 C253 1.387 . S
C252 C256 1.391 . S
C253 C252 1.387 . S
C253 C254 1.369 . S
C253 H262 0.929 . S
C254 N251 1.346 . S
C254 C253 1.369 . S
C254 H257 0.928 . S
C255 N251 1.345 . S
C255 C256 1.371 . S
C255 H258 0.931 . S
C256 C252 1.391 . S
C256 C255 1.371 . S
C256 H263 0.930 . S
H257 C254 0.928 . S
H258 C255 0.931 . S
H259 C235 0.930 . S
H260 C232 0.930 . S
H261 C241 0.930 . S
H262 C253 0.929 . S
H263 C256 0.930 . S
C264 C265 1.351 . S
C264 N267 1.368 . S
C264 H269 0.931 . S
C265 C264 1.351 . S
C265 N266 1.373 . S
C265 H293 0.930 . S
N266 C265 1.373 . S
N266 C268 1.340 . S
N267 C264 1.368 . S
N267 C268 1.321 . S
N267 Co270 2.135 . S
C268 N266 1.340 . S
C268 N267 1.321 . S
C268 H292 0.930 . S
H269 C264 0.931 . S
Co270 N267 2.135 . S
Co270 N273 2.121 . S
Co270 O278 2.055 . S
Co270 O281 2.039 . S
Co270 N284 2.140 . S
C271 O272 1.227 . S
C271 O281 1.265 . S
O272 C271 1.227 . S
N273 Co270 2.121 . S
N273 C275 1.375 . S
N273 C276 1.313 . S
C274 C275 1.338 . S
C274 N277 1.377 . S
C274 H294 0.930 . S
C275 N273 1.375 . S
C275 C274 1.338 . S
C275 H279 0.931 . S
C276 N273 1.313 . S
C276 N277 1.344 . S
C276 H280 0.930 . S
N277 C274 1.377 . S
N277 C276 1.344 . S
O278 Co270 2.055 . S
O278 C282 1.253 . S
H279 C275 0.931 . S
H280 C276 0.930 . S
O281 Co270 2.039 . S
O281 C271 1.265 . S
C282 O278 1.253 . S
C282 O283 1.227 . S
O283 C282 1.227 . S
N284 Co270 2.140 . S
N284 C287 1.346 . S
N284 C288 1.345 . S
C285 C286 1.387 . S
C285 C289 1.391 . S
C286 C285 1.387 . S
C286 C287 1.369 . S
C286 H295 0.929 . S
C287 N284 1.346 . S
C287 C286 1.369 . S
C287 H290 0.928 . S
C288 N284 1.345 . S
C288 C289 1.371 . S
C288 H291 0.931 . S
C289 C285 1.391 . S
C289 C288 1.371 . S
C289 H296 0.930 . S
H290 C287 0.928 . S
H291 C288 0.931 . S
H292 C268 0.930 . S
H293 C265 0.930 . S
H294 C274 0.930 . S
H295 C286 0.929 . S
H296 C289 0.930 . S
C297 C298 1.351 . S
C297 N300 1.368 . S
C297 H302 0.931 . S
C298 C297 1.351 . S
C298 N299 1.373 . S
C298 H326 0.930 . S
N299 C298 1.373 . S
N299 C301 1.340 . S
N300 C297 1.368 . S
N300 C301 1.321 . S
N300 Co303 2.135 . S
C301 N299 1.340 . S
C301 N300 1.321 . S
C301 H325 0.930 . S
H302 C297 0.931 . S
Co303 N300 2.135 . S
Co303 N306 2.121 . S
Co303 O311 2.055 . S
Co303 O314 2.039 . S
Co303 N317 2.140 . S
C304 O305 1.227 . S
C304 O314 1.265 . S
O305 C304 1.227 . S
N306 Co303 2.121 . S
N306 C308 1.375 . S
N306 C309 1.313 . S
C307 C308 1.338 . S
C307 N310 1.377 . S
C307 H327 0.930 . S
C308 N306 1.375 . S
C308 C307 1.338 . S
C308 H312 0.931 . S
C309 N306 1.313 . S
C309 N310 1.344 . S
C309 H313 0.930 . S
N310 C307 1.377 . S
N310 C309 1.344 . S
O311 Co303 2.055 . S
O311 C315 1.253 . S
H312 C308 0.931 . S
H313 C309 0.930 . S
O314 Co303 2.039 . S
O314 C304 1.265 . S
C315 O311 1.253 . S
C315 O316 1.227 . S
O316 C315 1.227 . S
N317 Co303 2.140 . S
N317 C320 1.346 . S
N317 C321 1.345 . S
C318 C319 1.387 . S
C318 C322 1.391 . S
C319 C318 1.387 . S
C319 C320 1.369 . S
C319 H328 0.929 . S
C320 N317 1.346 . S
C320 C319 1.369 . S
C320 H323 0.928 . S
C321 N317 1.345 . S
C321 C322 1.371 . S
C321 H324 0.931 . S
C322 C318 1.391 . S
C322 C321 1.371 . S
C322 H329 0.930 . S
H323 C320 0.928 . S
H324 C321 0.931 . S
H325 C301 0.930 . S
H326 C298 0.930 . S
H327 C307 0.930 . S
H328 C319 0.929 . S
H329 C322 0.930 . S
C330 C331 1.351 . S
C330 N333 1.368 . S
C330 H335 0.931 . S
C331 C330 1.351 . S
C331 N332 1.373 . S
C331 H359 0.930 . S
N332 C331 1.373 . S
N332 C334 1.340 . S
N333 C330 1.368 . S
N333 C334 1.321 . S
N333 Co336 2.135 . S
C334 N332 1.340 . S
C334 N333 1.321 . S
C334 H358 0.930 . S
H335 C330 0.931 . S
Co336 N333 2.135 . S
Co336 N339 2.121 . S
Co336 O344 2.055 . S
Co336 O347 2.039 . S
Co336 N350 2.140 . S
C337 O338 1.227 . S
C337 O347 1.265 . S
O338 C337 1.227 . S
N339 Co336 2.121 . S
N339 C341 1.375 . S
N339 C342 1.313 . S
C340 C341 1.338 . S
C340 N343 1.377 . S
C340 H360 0.930 . S
C341 N339 1.375 . S
C341 C340 1.338 . S
C341 H345 0.931 . S
C342 N339 1.313 . S
C342 N343 1.344 . S
C342 H346 0.930 . S
N343 C340 1.377 . S
N343 C342 1.344 . S
O344 Co336 2.055 . S
O344 C348 1.253 . S
H345 C341 0.931 . S
H346 C342 0.930 . S
O347 Co336 2.039 . S
O347 C337 1.265 . S
C348 O344 1.253 . S
C348 O349 1.227 . S
O349 C348 1.227 . S
N350 Co336 2.140 . S
N350 C353 1.346 . S
N350 C354 1.345 . S
C351 C352 1.387 . S
C351 C355 1.391 . S
C352 C351 1.387 . S
C352 C353 1.369 . S
C352 H361 0.929 . S
C353 N350 1.346 . S
C353 C352 1.369 . S
C353 H356 0.928 . S
C354 N350 1.345 . S
C354 C355 1.371 . S
C354 H357 0.931 . S
C355 C351 1.391 . S
C355 C354 1.371 . S
C355 H362 0.930 . S
H356 C353 0.928 . S
H357 C354 0.931 . S
H358 C334 0.930 . S
H359 C331 0.930 . S
H360 C340 0.930 . S
H361 C352 0.929 . S
H362 C355 0.930 . S
C363 C364 1.351 . S
C363 N366 1.368 . S
C363 H368 0.931 . S
C364 C363 1.351 . S
C364 N365 1.373 . S
C364 H392 0.930 . S
N365 C364 1.373 . S
N365 C367 1.340 . S
N366 C363 1.368 . S
N366 C367 1.321 . S
N366 Co369 2.135 . S
C367 N365 1.340 . S
C367 N366 1.321 . S
C367 H391 0.930 . S
H368 C363 0.931 . S
Co369 N366 2.135 . S
Co369 N372 2.121 . S
Co369 O377 2.055 . S
Co369 O380 2.039 . S
Co369 N383 2.140 . S
C370 O371 1.227 . S
C370 O380 1.265 . S
O371 C370 1.227 . S
N372 Co369 2.121 . S
N372 C374 1.375 . S
N372 C375 1.313 . S
C373 C374 1.338 . S
C373 N376 1.377 . S
C373 H393 0.930 . S
C374 N372 1.375 . S
C374 C373 1.338 . S
C374 H378 0.931 . S
C375 N372 1.313 . S
C375 N376 1.344 . S
C375 H379 0.930 . S
N376 C373 1.377 . S
N376 C375 1.344 . S
O377 Co369 2.055 . S
O377 C381 1.253 . S
H378 C374 0.931 . S
H379 C375 0.930 . S
O380 Co369 2.039 . S
O380 C370 1.265 . S
C381 O377 1.253 . S
C381 O382 1.227 . S
O382 C381 1.227 . S
N383 Co369 2.140 . S
N383 C386 1.346 . S
N383 C387 1.345 . S
C384 C385 1.387 . S
C384 C388 1.391 . S
C385 C384 1.387 . S
C385 C386 1.369 . S
C385 H394 0.929 . S
C386 N383 1.346 . S
C386 C385 1.369 . S
C386 H389 0.928 . S
C387 N383 1.345 . S
C387 C388 1.371 . S
C387 H390 0.931 . S
C388 C384 1.391 . S
C388 C387 1.371 . S
C388 H395 0.930 . S
H389 C386 0.928 . S
H390 C387 0.931 . S
H391 C367 0.930 . S
H392 C364 0.930 . S
H393 C373 0.930 . S
H394 C385 0.929 . S
H395 C388 0.930 . S
C396 C397 1.351 . S
C396 N399 1.368 . S
C396 H401 0.931 . S
C397 C396 1.351 . S
C397 N398 1.373 . S
C397 H425 0.930 . S
N398 C397 1.373 . S
N398 C400 1.340 . S
N399 C396 1.368 . S
N399 C400 1.321 . S
N399 Co402 2.135 . S
C400 N398 1.340 . S
C400 N399 1.321 . S
C400 H424 0.930 . S
H401 C396 0.931 . S
Co402 N399 2.135 . S
Co402 N405 2.121 . S
Co402 O410 2.055 . S
Co402 O413 2.039 . S
Co402 N416 2.140 . S
C403 O404 1.227 . S
C403 O413 1.265 . S
O404 C403 1.227 . S
N405 Co402 2.121 . S
N405 C407 1.375 . S
N405 C408 1.313 . S
C406 C407 1.338 . S
C406 N409 1.377 . S
C406 H426 0.930 . S
C407 N405 1.375 . S
C407 C406 1.338 . S
C407 H411 0.931 . S
C408 N405 1.313 . S
C408 N409 1.344 . S
C408 H412 0.930 . S
N409 C406 1.377 . S
N409 C408 1.344 . S
O410 Co402 2.055 . S
O410 C414 1.253 . S
H411 C407 0.931 . S
H412 C408 0.930 . S
O413 Co402 2.039 . S
O413 C403 1.265 . S
C414 O410 1.253 . S
C414 O415 1.227 . S
O415 C414 1.227 . S
N416 Co402 2.140 . S
N416 C419 1.346 . S
N416 C420 1.345 . S
C417 C418 1.387 . S
C417 C421 1.391 . S
C418 C417 1.387 . S
C418 C419 1.369 . S
C418 H427 0.929 . S
C419 N416 1.346 . S
C419 C418 1.369 . S
C419 H422 0.928 . S
C420 N416 1.345 . S
C420 C421 1.371 . S
C420 H423 0.931 . S
C421 C417 1.391 . S
C421 C420 1.371 . S
C421 H428 0.930 . S
H422 C419 0.928 . S
H423 C420 0.931 . S
H424 C400 0.930 . S
H425 C397 0.930 . S
H426 C406 0.930 . S
H427 C418 0.929 . S
H428 C421 0.930 . S
C429 C430 1.351 . S
C429 N432 1.368 . S
C429 H434 0.931 . S
C430 C429 1.351 . S
C430 N431 1.373 . S
C430 H458 0.930 . S
N431 C430 1.373 . S
N431 C433 1.340 . S
N432 C429 1.368 . S
N432 C433 1.321 . S
N432 Co435 2.135 . S
C433 N431 1.340 . S
C433 N432 1.321 . S
C433 H457 0.930 . S
H434 C429 0.931 . S
Co435 N432 2.135 . S
Co435 N438 2.121 . S
Co435 O443 2.055 . S
Co435 O446 2.039 . S
Co435 N449 2.140 . S
C436 O437 1.227 . S
C436 O446 1.265 . S
O437 C436 1.227 . S
N438 Co435 2.121 . S
N438 C440 1.375 . S
N438 C441 1.313 . S
C439 C440 1.338 . S
C439 N442 1.377 . S
C439 H459 0.930 . S
C440 N438 1.375 . S
C440 C439 1.338 . S
C440 H444 0.931 . S
C441 N438 1.313 . S
C441 N442 1.344 . S
C441 H445 0.930 . S
N442 C439 1.377 . S
N442 C441 1.344 . S
O443 Co435 2.055 . S
O443 C447 1.253 . S
H444 C440 0.931 . S
H445 C441 0.930 . S
O446 Co435 2.039 . S
O446 C436 1.265 . S
C447 O443 1.253 . S
C447 O448 1.227 . S
O448 C447 1.227 . S
N449 Co435 2.140 . S
N449 C452 1.346 . S
N449 C453 1.345 . S
C450 C451 1.387 . S
C450 C454 1.391 . S
C451 C450 1.387 . S
C451 C452 1.369 . S
C451 H460 0.929 . S
C452 N449 1.346 . S
C452 C451 1.369 . S
C452 H455 0.928 . S
C453 N449 1.345 . S
C453 C454 1.371 . S
C453 H456 0.931 . S
C454 C450 1.391 . S
C454 C453 1.371 . S
C454 H461 0.930 . S
H455 C452 0.928 . S
H456 C453 0.931 . S
H457 C433 0.930 . S
H458 C430 0.930 . S
H459 C439 0.930 . S
H460 C451 0.929 . S
H461 C454 0.930 . S
C462 C463 1.351 . S
C462 N465 1.368 . S
C462 H467 0.931 . S
C463 C462 1.351 . S
C463 N464 1.373 . S
C463 H491 0.930 . S
N464 C463 1.373 . S
N464 C466 1.340 . S
N465 C462 1.368 . S
N465 C466 1.321 . S
N465 Co468 2.135 . S
C466 N464 1.340 . S
C466 N465 1.321 . S
C466 H490 0.930 . S
H467 C462 0.931 . S
Co468 N465 2.135 . S
Co468 N471 2.121 . S
Co468 O476 2.055 . S
Co468 O479 2.039 . S
Co468 N482 2.140 . S
C469 O470 1.227 . S
C469 O479 1.265 . S
O470 C469 1.227 . S
N471 Co468 2.121 . S
N471 C473 1.375 . S
N471 C474 1.313 . S
C472 C473 1.338 . S
C472 N475 1.377 . S
C472 H492 0.930 . S
C473 N471 1.375 . S
C473 C472 1.338 . S
C473 H477 0.931 . S
C474 N471 1.313 . S
C474 N475 1.344 . S
C474 H478 0.930 . S
N475 C472 1.377 . S
N475 C474 1.344 . S
O476 Co468 2.055 . S
O476 C480 1.253 . S
H477 C473 0.931 . S
H478 C474 0.930 . S
O479 Co468 2.039 . S
O479 C469 1.265 . S
C480 O476 1.253 . S
C480 O481 1.227 . S
O481 C480 1.227 . S
N482 Co468 2.140 . S
N482 C485 1.346 . S
N482 C486 1.345 . S
C483 C484 1.387 . S
C483 C487 1.391 . S
C484 C483 1.387 . S
C484 C485 1.369 . S
C484 H493 0.929 . S
C485 N482 1.346 . S
C485 C484 1.369 . S
C485 H488 0.928 . S
C486 N482 1.345 . S
C486 C487 1.371 . S
C486 H489 0.931 . S
C487 C483 1.391 . S
C487 C486 1.371 . S
C487 H494 0.930 . S
H488 C485 0.928 . S
H489 C486 0.931 . S
H490 C466 0.930 . S
H491 C463 0.930 . S
H492 C472 0.930 . S
H493 C484 0.929 . S
H494 C487 0.930 . S
C495 C496 1.351 . S
C495 N498 1.368 . S
C495 H500 0.931 . S
C496 C495 1.351 . S
C496 N497 1.373 . S
C496 H524 0.930 . S
N497 C496 1.373 . S
N497 C499 1.340 . S
N498 C495 1.368 . S
N498 C499 1.321 . S
N498 Co501 2.135 . S
C499 N497 1.340 . S
C499 N498 1.321 . S
C499 H523 0.930 . S
H500 C495 0.931 . S
Co501 N498 2.135 . S
Co501 N504 2.121 . S
Co501 O509 2.055 . S
Co501 O512 2.039 . S
Co501 N515 2.140 . S
C502 O503 1.227 . S
C502 O512 1.265 . S
O503 C502 1.227 . S
N504 Co501 2.121 . S
N504 C506 1.375 . S
N504 C507 1.313 . S
C505 C506 1.338 . S
C505 N508 1.377 . S
C505 H525 0.930 . S
C506 N504 1.375 . S
C506 C505 1.338 . S
C506 H510 0.931 . S
C507 N504 1.313 . S
C507 N508 1.344 . S
C507 H511 0.930 . S
N508 C505 1.377 . S
N508 C507 1.344 . S
O509 Co501 2.055 . S
O509 C513 1.253 . S
H510 C506 0.931 . S
H511 C507 0.930 . S
O512 Co501 2.039 . S
O512 C502 1.265 . S
C513 O509 1.253 . S
C513 O514 1.227 . S
O514 C513 1.227 . S
N515 Co501 2.140 . S
N515 C518 1.346 . S
N515 C519 1.345 . S
C516 C517 1.387 . S
C516 C520 1.391 . S
C517 C516 1.387 . S
C517 C518 1.369 . S
C517 H526 0.929 . S
C518 N515 1.346 . S
C518 C517 1.369 . S
C518 H521 0.928 . S
C519 N515 1.345 . S
C519 C520 1.371 . S
C519 H522 0.931 . S
C520 C516 1.391 . S
C520 C519 1.371 . S
C520 H527 0.930 . S
H521 C518 0.928 . S
H522 C519 0.931 . S
H523 C499 0.930 . S
H524 C496 0.930 . S
H525 C505 0.930 . S
H526 C517 0.929 . S
H527 C520 0.930 . S
C528 C529 1.387 . S
C528 H532 0.950 . S
C528 C537 1.390 . S
C529 C528 1.387 . S
C529 C531 1.387 . S
H530 C537 0.950 . S
C531 C529 1.387 . S
C531 C533 1.390 . S
C531 H535 0.950 . S
H532 C528 0.950 . S
C533 C531 1.390 . S
C533 C534 1.387 . S
C533 H536 0.950 . S
C534 C533 1.387 . S
C534 C537 1.387 . S
H535 C531 0.950 . S
H536 C533 0.950 . S
C537 C528 1.390 . S
C537 H530 0.950 . S
C537 C534 1.387 . S
C538 C539 1.387 . S
C538 H542 0.950 . S
C538 C547 1.390 . S
C539 C538 1.387 . S
C539 C541 1.387 . S
H540 C547 0.950 . S
C541 C539 1.387 . S
C541 C543 1.390 . S
C541 H545 0.950 . S
H542 C538 0.950 . S
C543 C541 1.390 . S
C543 C544 1.387 . S
C543 H546 0.950 . S
C544 C543 1.387 . S
C544 C547 1.387 . S
H545 C541 0.950 . S
H546 C543 0.950 . S
C547 C538 1.390 . S
C547 H540 0.950 . S
C547 C544 1.387 . S
C548 C549 1.387 . S
C548 H552 0.950 . S
C548 C557 1.390 . S
C549 C548 1.387 . S
C549 C551 1.387 . S
H550 C557 0.950 . S
C551 C549 1.387 . S
C551 C553 1.390 . S
C551 H555 0.950 . S
H552 C548 0.950 . S
C553 C551 1.390 . S
C553 C554 1.387 . S
C553 H556 0.950 . S
C554 C553 1.387 . S
C554 C557 1.387 . S
H555 C551 0.950 . S
H556 C553 0.950 . S
C557 C548 1.390 . S
C557 H550 0.950 . S
C557 C554 1.387 . S
C558 C559 1.387 . S
C558 H562 0.950 . S
C558 C567 1.390 . S
C559 C558 1.387 . S
C559 C561 1.387 . S
H560 C567 0.950 . S
C561 C559 1.387 . S
C561 C563 1.390 . S
C561 H565 0.950 . S
H562 C558 0.950 . S
C563 C561 1.390 . S
C563 C564 1.387 . S
C563 H566 0.950 . S
C564 C563 1.387 . S
C564 C567 1.387 . S
H565 C561 0.950 . S
H566 C563 0.950 . S
C567 C558 1.390 . S
C567 H560 0.950 . S
C567 C564 1.387 . S
C568 C569 1.387 . S
C568 H572 0.950 . S
C568 C577 1.365 1_554 S
C569 C568 1.387 . S
C569 C571 1.387 . S
H570 C577 0.955 . S
C571 C569 1.387 . S
C571 C573 1.390 1_554 S
C571 H575 0.950 . S
H572 C568 0.950 . S
C573 C571 1.390 1_556 S
C573 C574 1.387 . S
C573 H576 0.950 . S
C574 C573 1.387 . S
C574 C577 1.407 . S
H575 C571 0.950 . S
H576 C573 0.950 . S
C577 C568 1.365 1_556 S
C577 H570 0.955 . S
C577 C574 1.407 . S
C578 C579 1.387 . S
C578 H582 0.950 . S
C578 C587 1.390 1_556 S
C579 C578 1.387 . S
C579 C581 1.387 . S
H580 C587 0.950 . S
C581 C579 1.387 . S
C581 C583 1.390 1_556 S
C581 H585 0.950 . S
H582 C578 0.950 . S
C583 C581 1.390 1_554 S
C583 C584 1.387 . S
C583 H586 0.950 . S
C584 C583 1.387 . S
C584 C587 1.387 . S
H585 C581 0.950 . S
H586 C583 0.950 . S
C587 C578 1.390 1_554 S
C587 H580 0.950 . S
C587 C584 1.387 . S
C588 C589 1.387 . S
C588 H592 0.950 . S
C588 C597 1.390 1_556 S
C589 C588 1.387 . S
C589 C591 1.387 . S
H590 C597 0.950 . S
C591 C589 1.387 . S
C591 C593 1.390 1_556 S
C591 H595 0.950 . S
H592 C588 0.950 . S
C593 C591 1.390 1_554 S
C593 C594 1.387 . S
C593 H596 0.950 . S
C594 C593 1.387 . S
C594 C597 1.387 . S
H595 C591 0.950 . S
H596 C593 0.950 . S
C597 C588 1.390 1_554 S
C597 H590 0.950 . S
C597 C594 1.387 . S
C598 C599 1.387 . S
C598 H602 0.950 . S
C598 C607 1.390 1_554 S
C599 C598 1.387 . S
C599 C601 1.387 . S
H600 C607 0.950 . S
C601 C599 1.387 . S
C601 C603 1.390 1_554 S
C601 H605 0.950 . S
H602 C598 0.950 . S
C603 C601 1.390 1_556 S
C603 C604 1.387 . S
C603 H606 0.950 . S
C604 C603 1.387 . S
C604 C607 1.387 . S
H605 C601 0.950 . S
H606 C603 0.950 . S
C607 C598 1.390 1_556 S
C607 H600 0.950 . S
C607 C604 1.387 . S
C608 C609 1.387 . S
C608 H612 0.950 . S
C608 C617 1.390 . S
C609 C608 1.387 . S
C609 C611 1.387 . S
H610 C617 0.950 . S
C611 C609 1.387 . S
C611 C613 1.390 . S
C611 H615 0.950 . S
H612 C608 0.950 . S
C613 C611 1.390 . S
C613 C614 1.387 . S
C613 H616 0.950 . S
C614 C613 1.387 . S
C614 C617 1.387 . S
H615 C611 0.950 . S
H616 C613 0.950 . S
C617 C608 1.390 . S
C617 H610 0.950 . S
C617 C614 1.387 . S
C618 C619 1.387 . S
C618 H622 0.950 . S
C618 C627 1.390 . S
C619 C618 1.387 . S
C619 C621 1.387 . S
H620 C627 0.950 . S
C621 C619 1.387 . S
C621 C623 1.390 . S
C621 H625 0.950 . S
H622 C618 0.950 . S
C623 C621 1.390 . S
C623 C624 1.387 . S
C623 H626 0.950 . S
C624 C623 1.387 . S
C624 C627 1.387 . S
H625 C621 0.950 . S
H626 C623 0.950 . S
C627 C618 1.390 . S
C627 H620 0.950 . S
C627 C624 1.387 . S
C628 C629 1.387 . S
C628 H632 0.950 . S
C628 C637 1.390 . S
C629 C628 1.387 . S
C629 C631 1.387 . S
H630 C637 0.950 . S
C631 C629 1.387 . S
C631 C633 1.390 . S
C631 H635 0.950 . S
H632 C628 0.950 . S
C633 C631 1.390 . S
C633 C634 1.387 . S
C633 H636 0.950 . S
C634 C633 1.387 . S
C634 C637 1.387 . S
H635 C631 0.950 . S
H636 C633 0.950 . S
C637 C628 1.390 . S
C637 H630 0.950 . S
C637 C634 1.387 . S
C638 C639 1.387 . S
C638 H642 0.950 . S
C638 C647 1.390 . S
C639 C638 1.387 . S
C639 C641 1.387 . S
H640 C647 0.950 . S
C641 C639 1.387 . S
C641 C643 1.390 . S
C641 H645 0.950 . S
H642 C638 0.950 . S
C643 C641 1.390 . S
C643 C644 1.387 . S
C643 H646 0.950 . S
C644 C643 1.387 . S
C644 C647 1.387 . S
H645 C641 0.950 . S
H646 C643 0.950 . S
C647 C638 1.390 . S
C647 H640 0.950 . S
C647 C644 1.387 . S
C648 C649 1.387 . S
C648 H652 0.950 . S
C648 C657 1.390 . S
C649 C648 1.387 . S
C649 C651 1.387 . S
H650 C657 0.950 . S
C651 C649 1.387 . S
C651 C653 1.390 . S
C651 H655 0.950 . S
H652 C648 0.950 . S
C653 C651 1.390 . S
C653 C654 1.387 . S
C653 H656 0.950 . S
C654 C653 1.387 . S
C654 C657 1.387 . S
H655 C651 0.950 . S
H656 C653 0.950 . S
C657 C648 1.390 . S
C657 H650 0.950 . S
C657 C654 1.387 . S
C658 C659 1.387 . S
C658 H662 0.950 . S
C658 C667 1.390 . S
C659 C658 1.387 . S
C659 C661 1.387 . S
H660 C667 0.950 . S
C661 C659 1.387 . S
C661 C663 1.390 . S
C661 H665 0.950 . S
H662 C658 0.950 . S
C663 C661 1.390 . S
C663 C664 1.387 . S
C663 H666 0.950 . S
C664 C663 1.387 . S
C664 C667 1.387 . S
H665 C661 0.950 . S
H666 C663 0.950 . S
C667 C658 1.390 . S
C667 H660 0.950 . S
C667 C664 1.387 . S
C668 C669 1.387 . S
C668 H672 0.950 . S
C668 C677 1.390 . S
C669 C668 1.387 . S
C669 C671 1.387 . S
H670 C677 0.950 . S
C671 C669 1.387 . S
C671 C673 1.390 . S
C671 H675 0.950 . S
H672 C668 0.950 . S
C673 C671 1.390 . S
C673 C674 1.387 . S
C673 H676 0.950 . S
C674 C673 1.387 . S
C674 C677 1.387 . S
H675 C671 0.950 . S
H676 C673 0.950 . S
C677 C668 1.390 . S
C677 H670 0.950 . S
C677 C674 1.387 . S
C678 C679 1.387 . S
C678 H682 0.950 . S
C678 C687 1.390 . S
C679 C678 1.387 . S
C679 C681 1.387 . S
H680 C687 0.950 . S
C681 C679 1.387 . S
C681 C683 1.390 . S
C681 H685 0.950 . S
H682 C678 0.950 . S
C683 C681 1.390 . S
C683 C684 1.387 . S
C683 H686 0.950 . S
C684 C683 1.387 . S
C684 C687 1.387 . S
H685 C681 0.950 . S
H686 C683 0.950 . S
C687 C678 1.390 . S
C687 H680 0.950 . S
C687 C684 1.387 . S
C688 C689 1.387 . S
C688 H692 0.950 . S
C688 C697 1.390 1_645 S
C689 C688 1.387 . S
C689 C691 1.387 . S
H690 C697 0.950 . S
C691 C689 1.387 . S
C691 C693 1.390 1_645 S
C691 H695 0.950 . S
H692 C688 0.950 . S
C693 C691 1.390 1_465 S
C693 C694 1.387 . S
C693 H696 0.950 . S
C694 C693 1.387 . S
C694 C697 1.387 . S
H695 C691 0.950 . S
H696 C693 0.950 . S
C697 C688 1.390 1_465 S
C697 H690 0.950 . S
C697 C694 1.387 . S
C698 C699 1.387 . S
C698 H702 0.950 . S
C698 C707 1.390 1_445 S
C699 C698 1.387 . S
C699 C701 1.387 . S
H700 C707 0.950 . S
C701 C699 1.387 . S
C701 C703 1.390 1_445 S
C701 H705 0.950 . S
H702 C698 0.950 . S
C703 C701 1.390 1_665 S
C703 C704 1.387 . S
C703 H706 0.950 . S
C704 C703 1.387 . S
C704 C707 1.387 . S
H705 C701 0.950 . S
H706 C703 0.950 . S
C707 C698 1.390 1_665 S
C707 H700 0.950 . S
C707 C704 1.387 . S
C708 C709 1.387 . S
C708 H712 0.950 . S
C708 C717 1.390 1_455 S
C709 C708 1.387 . S
C709 C711 1.387 . S
H710 C717 0.950 . S
C711 C709 1.387 . S
C711 C713 1.390 1_455 S
C711 H715 0.950 . S
H712 C708 0.950 . S
C713 C711 1.390 1_655 S
C713 C714 1.387 . S
C713 H716 0.950 . S
C714 C713 1.387 . S
C714 C717 1.387 . S
H715 C711 0.950 . S
H716 C713 0.950 . S
C717 C708 1.390 1_655 S
C717 H710 0.950 . S
C717 C714 1.387 . S
C718 C719 1.387 . S
C718 H722 0.950 . S
C718 C727 1.390 1_565 S
C719 C718 1.387 . S
C719 C721 1.387 . S
H720 C727 0.950 . S
C721 C719 1.387 . S
C721 C723 1.390 1_565 S
C721 H725 0.950 . S
H722 C718 0.950 . S
C723 C721 1.390 1_545 S
C723 C724 1.387 . S
C723 H726 0.950 . S
C724 C723 1.387 . S
C724 C727 1.387 . S
H725 C721 0.950 . S
H726 C723 0.950 . S
C727 C718 1.390 1_545 S
C727 H720 0.950 . S
C727 C724 1.387 . S
C728 C729 1.387 . S
C728 H732 0.950 . S
C728 C737 1.390 . S
C729 C728 1.387 . S
C729 C731 1.387 . S
H730 C737 0.950 . S
C731 C729 1.387 . S
C731 C733 1.390 . S
C731 H735 0.950 . S
H732 C728 0.950 . S
C733 C731 1.390 . S
C733 C734 1.387 . S
C733 H736 0.950 . S
C734 C733 1.387 . S
C734 C737 1.387 . S
H735 C731 0.950 . S
H736 C733 0.950 . S
C737 C728 1.390 . S
C737 H730 0.950 . S
C737 C734 1.387 . S
C738 C739 1.387 . S
C738 H742 0.950 . S
C738 C747 1.390 . S
C739 C738 1.387 . S
C739 C741 1.387 . S
H740 C747 0.950 . S
C741 C739 1.387 . S
C741 C743 1.390 . S
C741 H745 0.950 . S
H742 C738 0.950 . S
C743 C741 1.390 . S
C743 C744 1.387 . S
C743 H746 0.950 . S
C744 C743 1.387 . S
C744 C747 1.387 . S
H745 C741 0.950 . S
H746 C743 0.950 . S
C747 C738 1.390 . S
C747 H740 0.950 . S
C747 C744 1.387 . S
C748 C749 1.387 . S
C748 H752 0.950 . S
C748 C757 1.390 1_565 S
C749 C748 1.387 . S
C749 C751 1.387 . S
H750 C757 0.950 . S
C751 C749 1.387 . S
C751 C753 1.390 1_565 S
C751 H755 0.950 . S
H752 C748 0.950 . S
C753 C751 1.390 1_545 S
C753 C754 1.387 . S
C753 H756 0.950 . S
C754 C753 1.387 . S
C754 C757 1.387 . S
H755 C751 0.950 . S
H756 C753 0.950 . S
C757 C748 1.390 1_545 S
C757 H750 0.950 . S
C757 C754 1.387 . S
C758 C759 1.387 . S
C758 H762 0.950 . S
C758 C767 1.390 1_455 S
C759 C758 1.387 . S
C759 C761 1.387 . S
H760 C767 0.950 . S
C761 C759 1.387 . S
C761 C763 1.390 1_455 S
C761 H765 0.950 . S
H762 C758 0.950 . S
C763 C761 1.390 1_655 S
C763 C764 1.387 . S
C763 H766 0.950 . S
C764 C763 1.387 . S
C764 C767 1.387 . S
H765 C761 0.950 . S
H766 C763 0.950 . S
C767 C758 1.390 1_655 S
C767 H760 0.950 . S
C767 C764 1.387 . S
C768 C769 1.387 . S
C768 H772 0.950 . S
C768 C777 1.390 1_455 S
C769 C768 1.387 . S
C769 C771 1.387 . S
H770 C777 0.950 . S
C771 C769 1.387 . S
C771 C773 1.390 1_455 S
C771 H775 0.950 . S
H772 C768 0.950 . S
C773 C771 1.390 1_655 S
C773 C774 1.387 . S
C773 H776 0.950 . S
C774 C773 1.387 . S
C774 C777 1.387 . S
H775 C771 0.950 . S
H776 C773 0.950 . S
C777 C768 1.390 1_655 S
C777 H770 0.950 . S
C777 C774 1.387 . S
C778 C779 1.387 . S
C778 H782 0.950 . S
C778 C787 1.390 1_545 S
C779 C778 1.387 . S
C779 C781 1.387 . S
H780 C787 0.950 . S
C781 C779 1.387 . S
C781 C783 1.390 1_545 S
C781 H785 0.950 . S
H782 C778 0.950 . S
C783 C781 1.390 1_565 S
C783 C784 1.387 . S
C783 H786 0.950 . S
C784 C783 1.387 . S
C784 C787 1.387 . S
H785 C781 0.950 . S
H786 C783 0.950 . S
C787 C778 1.390 1_565 S
C787 H780 0.950 . S
C787 C784 1.387 . S
C788 C789 1.387 . S
C788 H792 0.950 . S
C788 C797 1.390 1_645 S
C789 C788 1.387 . S
C789 C791 1.387 . S
H790 C797 0.950 . S
C791 C789 1.387 . S
C791 C793 1.390 1_645 S
C791 H795 0.950 . S
H792 C788 0.950 . S
C793 C791 1.390 1_465 S
C793 C794 1.387 . S
C793 H796 0.950 . S
C794 C793 1.387 . S
C794 C797 1.387 . S
H795 C791 0.950 . S
H796 C793 0.950 . S
C797 C788 1.390 1_465 S
C797 H790 0.950 . S
C797 C794 1.387 . S
C798 C799 1.387 . S
C798 H802 0.950 . S
C798 C807 1.390 1_665 S
C799 C798 1.387 . S
C799 C801 1.387 . S
H800 C807 0.950 . S
C801 C799 1.387 . S
C801 C803 1.390 1_665 S
C801 H805 0.950 . S
H802 C798 0.950 . S
C803 C801 1.390 1_445 S
C803 C804 1.387 . S
C803 H806 0.950 . S
C804 C803 1.387 . S
C804 C807 1.387 . S
H805 C801 0.950 . S
H806 C803 0.950 . S
C807 C798 1.390 1_445 S
C807 H800 0.950 . S
C807 C804 1.387 . S
C808 C809 1.387 . S
C808 H812 0.950 . S
C808 C817 1.390 1_545 S
C809 C808 1.387 . S
C809 C811 1.387 . S
H810 C817 0.950 . S
C811 C809 1.387 . S
C811 C813 1.390 1_545 S
C811 H815 0.950 . S
H812 C808 0.950 . S
C813 C811 1.390 1_565 S
C813 C814 1.387 . S
C813 H816 0.950 . S
C814 C813 1.387 . S
C814 C817 1.387 . S
H815 C811 0.950 . S
H816 C813 0.950 . S
C817 C808 1.390 1_565 S
C817 H810 0.950 . S
C817 C814 1.387 . S
C818 C819 1.387 . S
C818 H822 0.950 . S
C818 C827 1.390 1_655 S
C819 C818 1.387 . S
C819 C821 1.387 . S
H820 C827 0.950 . S
C821 C819 1.387 . S
C821 C823 1.390 1_655 S
C821 H825 0.950 . S
H822 C818 0.950 . S
C823 C821 1.390 1_455 S
C823 C824 1.387 . S
C823 H826 0.950 . S
C824 C823 1.387 . S
C824 C827 1.387 . S
H825 C821 0.950 . S
H826 C823 0.950 . S
C827 C818 1.390 1_455 S
C827 H820 0.950 . S
C827 C824 1.387 . S
C828 C829 1.387 . S
C828 H832 0.950 . S
C828 C837 1.390 . S
C829 C828 1.387 . S
C829 C831 1.387 . S
H830 C837 0.950 . S
C831 C829 1.387 . S
C831 C833 1.390 . S
C831 H835 0.950 . S
H832 C828 0.950 . S
C833 C831 1.390 . S
C833 C834 1.387 . S
C833 H836 0.950 . S
C834 C833 1.387 . S
C834 C837 1.387 . S
H835 C831 0.950 . S
H836 C833 0.950 . S
C837 C828 1.390 . S
C837 H830 0.950 . S
C837 C834 1.387 . S
C838 C839 1.387 . S
C838 H842 0.950 . S
C838 C847 1.390 . S
C839 C838 1.387 . S
C839 C841 1.387 . S
H840 C847 0.950 . S
C841 C839 1.387 . S
C841 C843 1.390 . S
C841 H845 0.950 . S
H842 C838 0.950 . S
C843 C841 1.390 . S
C843 C844 1.387 . S
C843 H846 0.950 . S
C844 C843 1.387 . S
C844 C847 1.387 . S
H845 C841 0.950 . S
H846 C843 0.950 . S
C847 C838 1.390 . S
C847 H840 0.950 . S
C847 C844 1.387 . S
C848 C849 1.387 . S
C848 H852 0.950 . S
C848 C857 1.390 . S
C849 C848 1.387 . S
C849 C851 1.387 . S
H850 C857 0.950 . S
C851 C849 1.387 . S
C851 C853 1.390 . S
C851 H855 0.950 . S
H852 C848 0.950 . S
C853 C851 1.390 . S
C853 C854 1.387 . S
C853 H856 0.950 . S
C854 C853 1.387 . S
C854 C857 1.387 . S
H855 C851 0.950 . S
H856 C853 0.950 . S
C857 C848 1.390 . S
C857 H850 0.950 . S
C857 C854 1.387 . S
C858 C859 1.387 . S
C858 H862 0.950 . S
C858 C867 1.390 . S
C859 C858 1.387 . S
C859 C861 1.387 . S
H860 C867 0.950 . S
C861 C859 1.387 . S
C861 C863 1.390 . S
C861 H865 0.950 . S
H862 C858 0.950 . S
C863 C861 1.390 . S
C863 C864 1.387 . S
C863 H866 0.950 . S
C864 C863 1.387 . S
C864 C867 1.387 . S
H865 C861 0.950 . S
H866 C863 0.950 . S
C867 C858 1.390 . S
C867 H860 0.950 . S
C867 C864 1.387 . S
C868 C869 1.387 . S
C868 H872 0.950 . S
C868 C877 1.390 . S
C869 C868 1.387 . S
C869 C871 1.387 . S
H870 C877 0.950 . S
C871 C869 1.387 . S
C871 C873 1.390 . S
C871 H875 0.950 . S
H872 C868 0.950 . S
C873 C871 1.390 . S
C873 C874 1.387 . S
C873 H876 0.950 . S
C874 C873 1.387 . S
C874 C877 1.387 . S
H875 C871 0.950 . S
H876 C873 0.950 . S
C877 C868 1.390 . S
C877 H870 0.950 . S
C877 C874 1.387 . S
C878 C879 1.387 . S
C878 H882 0.950 . S
C878 C887 1.390 . S
C879 C878 1.387 . S
C879 C881 1.387 . S
H880 C887 0.950 . S
C881 C879 1.387 . S
C881 C883 1.390 . S
C881 H885 0.950 . S
H882 C878 0.950 . S
C883 C881 1.390 . S
C883 C884 1.387 . S
C883 H886 0.950 . S
C884 C883 1.387 . S
C884 C887 1.387 . S
H885 C881 0.950 . S
H886 C883 0.950 . S
C887 C878 1.390 . S
C887 H880 0.950 . S
C887 C884 1.387 . S
C888 C889 1.387 . S
C888 H892 0.950 . S
C888 C897 1.390 . S
C889 C888 1.387 . S
C889 C891 1.387 . S
H890 C897 0.950 . S
C891 C889 1.387 . S
C891 C893 1.390 . S
C891 H895 0.950 . S
H892 C888 0.950 . S
C893 C891 1.390 . S
C893 C894 1.387 . S
C893 H896 0.950 . S
C894 C893 1.387 . S
C894 C897 1.387 . S
H895 C891 0.950 . S
H896 C893 0.950 . S
C897 C888 1.390 . S
C897 H890 0.950 . S
C897 C894 1.387 . S
C898 C899 1.387 . S
C898 H902 0.950 . S
C898 C907 1.390 . S
C899 C898 1.387 . S
C899 C901 1.387 . S
H900 C907 0.950 . S
C901 C899 1.387 . S
C901 C903 1.390 . S
C901 H905 0.950 . S
H902 C898 0.950 . S
C903 C901 1.390 . S
C903 C904 1.387 . S
C903 H906 0.950 . S
C904 C903 1.387 . S
C904 C907 1.387 . S
H905 C901 0.950 . S
H906 C903 0.950 . S
C907 C898 1.390 . S
C907 H900 0.950 . S
C907 C904 1.387 . S
C908 C909 1.387 . S
C908 H912 0.950 . S
C908 C917 1.390 . S
C909 C908 1.387 . S
C909 C911 1.387 . S
H910 C917 0.950 . S
C911 C909 1.387 . S
C911 C913 1.390 . S
C911 H915 0.950 . S
H912 C908 0.950 . S
C913 C911 1.390 . S
C913 C914 1.387 . S
C913 H916 0.950 . S
C914 C913 1.387 . S
C914 C917 1.387 . S
H915 C911 0.950 . S
H916 C913 0.950 . S
C917 C908 1.390 . S
C917 H910 0.950 . S
C917 C914 1.387 . S
C918 C919 1.387 . S
C918 H922 0.950 . S
C918 C927 1.390 . S
C919 C918 1.387 . S
C919 C921 1.387 . S
H920 C927 0.950 . S
C921 C919 1.387 . S
C921 C923 1.390 . S
C921 H925 0.950 . S
H922 C918 0.950 . S
C923 C921 1.390 . S
C923 C924 1.387 . S
C923 H926 0.950 . S
C924 C923 1.387 . S
C924 C927 1.387 . S
H925 C921 0.950 . S
H926 C923 0.950 . S
C927 C918 1.390 . S
C927 H920 0.950 . S
C927 C924 1.387 . S
C529 C21 1.001 . S
C534 N365 0.996 . S
C539 N266 1.001 . S
C544 C54 1.004 . S
C549 N299 0.997 . S
C554 C87 1.003 . S
C559 N332 0.997 . S
C564 C120 1.004 . S
C569 N167 1.000 . S
C574 C153 1.006 . S
C579 N200 0.998 . S
C584 C186 1.004 . S
C589 C219 1.004 . S
C594 N233 0.998 . S
C599 C252 1.003 . S
C604 N134 0.997 . S
C609 C285 1.001 . S
C614 N101 0.998 . S
C619 C318 1.003 . S
C624 N2 0.997 . S
C629 N35 0.996 . S
C634 C351 1.002 . S
C639 C384 1.003 . S
C644 N68 0.997 . S
C649 N431 0.997 . S
C654 C417 1.004 . S
C659 N464 1.000 . S
C664 C450 1.006 . S
C669 N497 1.001 . S
C674 C483 1.006 . S
C679 C516 1.004 . S
C684 N398 1.001 . S
C689 C18 1.345 . S
C694 C84 1.345 . S
C699 C51 1.345 . S
C704 C117 1.345 . S
C709 C216 1.345 . S
C714 C150 1.345 . S
C719 C249 1.345 . S
C724 C183 1.345 . S
C729 C348 1.345 . S
C734 C282 1.345 . S
C739 C315 1.348 . S
C744 C381 1.348 . S
C749 C414 1.345 . S
C754 C480 1.345 . S
C759 C513 1.348 . S
C764 C447 1.348 . S
C769 C73 1.596 . S
C774 C7 1.596 . S
C779 C40 1.596 . S
C784 C106 1.596 . S
C789 C139 1.593 . S
C794 C205 1.593 . S
C799 C238 1.596 . S
C804 C172 1.596 . S
C809 C337 1.593 . S
C814 C271 1.593 . S
C819 C304 1.596 . S
C824 C370 1.596 . S
C829 C403 1.593 . S
C834 C469 1.593 . S
C839 C502 1.593 . S
C844 C436 1.593 . S
C849 N475 1.614 . S
C854 N13 1.614 . S
C859 N46 1.613 . S
C864 N508 1.613 . S
C869 N79 1.614 . S
C874 N409 1.614 . S
C879 N112 1.614 . S
C884 N442 1.614 . S
C889 N145 1.614 . S
C894 N343 1.614 . S
C899 N376 1.614 . S
C904 N178 1.614 . S
C909 N211 1.613 . S
C914 N277 1.613 . S
C919 N244 1.613 . S
C924 N310 1.613 . S
