# Generated by pormake.
# Topology umd, (4)-cn, num edge types: 1
# Building blocks:
#     Node 0, Type 0, BuildingBlock: NAWXER_clean_sbu_0, # of connection points: 4
#     Node 1, Type 0, BuildingBlock: NAWXER_clean_sbu_0, # of connection points: 4
#     Node 2, Type 0, BuildingBlock: NAWXER_clean_sbu_0, # of connection points: 4
#     Node 3, Type 0, BuildingBlock: NAWXER_clean_sbu_0, # of connection points: 4
#     Node 4, Type 0, BuildingBlock: NAWXER_clean_sbu_0, # of connection points: 4
#     Node 5, Type 0, BuildingBlock: NAWXER_clean_sbu_0, # of connection points: 4
#     Node 6, Type 0, BuildingBlock: NAWXER_clean_sbu_0, # of connection points: 4
#     Node 7, Type 0, BuildingBlock: NAWXER_clean_sbu_0, # of connection points: 4
#     Node 8, Type 0, BuildingBlock: NAWXER_clean_sbu_0, # of connection points: 4
#     Node 9, Type 0, BuildingBlock: NAWXER_clean_sbu_0, # of connection points: 4
#     Node 10, Type 0, BuildingBlock: NAWXER_clean_sbu_0, # of connection points: 4
#     Node 11, Type 0, BuildingBlock: NAWXER_clean_sbu_0, # of connection points: 4
#     Node 12, Type 0, BuildingBlock: NAWXER_clean_sbu_0, # of connection points: 4
#     Node 13, Type 0, BuildingBlock: NAWXER_clean_sbu_0, # of connection points: 4
#     Node 14, Type 0, BuildingBlock: NAWXER_clean_sbu_0, # of connection points: 4
#     Node 15, Type 0, BuildingBlock: NAWXER_clean_sbu_0, # of connection points: 4
#     Edge 16, Type (0, 0), BuildingBlock: UVAHIK_clean_linker_0, # of connection points: 2
#     Edge 17, Type (0, 0), BuildingBlock: UVAHIK_clean_linker_0, # of connection points: 2
#     Edge 18, Type (0, 0), BuildingBlock: UVAHIK_clean_linker_0, # of connection points: 2
#     Edge 19, Type (0, 0), BuildingBlock: UVAHIK_clean_linker_0, # of connection points: 2
#     Edge 20, Type (0, 0), BuildingBlock: UVAHIK_clean_linker_0, # of connection points: 2
#     Edge 21, Type (0, 0), BuildingBlock: UVAHIK_clean_linker_0, # of connection points: 2
#     Edge 22, Type (0, 0), BuildingBlock: UVAHIK_clean_linker_0, # of connection points: 2
#     Edge 23, Type (0, 0), BuildingBlock: UVAHIK_clean_linker_0, # of connection points: 2
#     Edge 24, Type (0, 0), BuildingBlock: UVAHIK_clean_linker_0, # of connection points: 2
#     Edge 25, Type (0, 0), BuildingBlock: UVAHIK_clean_linker_0, # of connection points: 2
#     Edge 26, Type (0, 0), BuildingBlock: UVAHIK_clean_linker_0, # of connection points: 2
#     Edge 27, Type (0, 0), BuildingBlock: UVAHIK_clean_linker_0, # of connection points: 2
#     Edge 28, Type (0, 0), BuildingBlock: UVAHIK_clean_linker_0, # of connection points: 2
#     Edge 29, Type (0, 0), BuildingBlock: UVAHIK_clean_linker_0, # of connection points: 2
#     Edge 30, Type (0, 0), BuildingBlock: UVAHIK_clean_linker_0, # of connection points: 2
#     Edge 31, Type (0, 0), BuildingBlock: UVAHIK_clean_linker_0, # of connection points: 2
#     Edge 32, Type (0, 0), BuildingBlock: UVAHIK_clean_linker_0, # of connection points: 2
#     Edge 33, Type (0, 0), BuildingBlock: UVAHIK_clean_linker_0, # of connection points: 2
#     Edge 34, Type (0, 0), BuildingBlock: UVAHIK_clean_linker_0, # of connection points: 2
#     Edge 35, Type (0, 0), BuildingBlock: UVAHIK_clean_linker_0, # of connection points: 2
#     Edge 36, Type (0, 0), BuildingBlock: UVAHIK_clean_linker_0, # of connection points: 2
#     Edge 37, Type (0, 0), BuildingBlock: UVAHIK_clean_linker_0, # of connection points: 2
#     Edge 38, Type (0, 0), BuildingBlock: UVAHIK_clean_linker_0, # of connection points: 2
#     Edge 39, Type (0, 0), BuildingBlock: UVAHIK_clean_linker_0, # of connection points: 2
#     Edge 40, Type (0, 0), BuildingBlock: UVAHIK_clean_linker_0, # of connection points: 2
#     Edge 41, Type (0, 0), BuildingBlock: UVAHIK_clean_linker_0, # of connection points: 2
#     Edge 42, Type (0, 0), BuildingBlock: UVAHIK_clean_linker_0, # of connection points: 2
#     Edge 43, Type (0, 0), BuildingBlock: UVAHIK_clean_linker_0, # of connection points: 2
#     Edge 44, Type (0, 0), BuildingBlock: UVAHIK_clean_linker_0, # of connection points: 2
#     Edge 45, Type (0, 0), BuildingBlock: UVAHIK_clean_linker_0, # of connection points: 2
#     Edge 46, Type (0, 0), BuildingBlock: UVAHIK_clean_linker_0, # of connection points: 2
#     Edge 47, Type (0, 0), BuildingBlock: UVAHIK_clean_linker_0, # of connection points: 2
# Relax obj value: 0.021
# Max RMSD: 0.190
# Mean RMSD: 0.190
data_MOF--net-umd--node1-NAWXER_clean_sbu_0--edge1-UVAHIK_clean_linker_0
_symmetry_space_group_name_H-M    P1
_symmetry_Int_Tables_number       1
_symmetry_cell_setting            triclinic
loop_
_symmetry_equiv_pos_as_xyz
'x, y, z'
_cell_length_a     52.399458
_cell_length_b     52.416534
_cell_length_c     75.988645
_cell_angle_alpha  90.000004
_cell_angle_beta   90.001404
_cell_angle_gamma 90.009608
loop_
_atom_site_label
_atom_site_type_symbol
_atom_site_fract_x
_atom_site_fract_y
_atom_site_fract_z
_atom_type_partial_charge
C0 C 0.12697 0.44859 0.12955 0.0
C1 C 0.20569 0.40009 0.13206 0.0
O2 O 0.13026 0.42473 0.13121 0.0
Zn3 Zn 0.16665 0.42497 0.13089 0.0
O4 O 0.1465 0.46332 0.12827 0.0
Zn5 Zn 0.18774 0.45857 0.12802 0.0
O6 O 0.19711 0.47149 0.10526 0.0
O7 O 0.17512 0.43567 0.10405 0.0
O8 O 0.2103 0.42399 0.13011 0.0
O9 O 0.18275 0.39253 0.13321 0.0
O10 O 0.17618 0.44402 0.15522 0.0
O11 O 0.19859 0.47808 0.14806 0.0
C12 C 0.18688 0.4539 0.0962 0.0
C13 C 0.1885 0.46412 0.15981 0.0
C14 C 0.54519 0.18629 0.59629 0.0
C15 C 0.5347 0.18988 0.65987 0.0
O16 O 0.52752 0.19669 0.60519 0.0
Zn17 Zn 0.54035 0.18801 0.62811 0.0
O18 O 0.56346 0.17488 0.60434 0.0
Zn19 Zn 0.57408 0.1673 0.63136 0.0
O20 O 0.57439 0.13088 0.63234 0.0
O21 O 0.53582 0.14687 0.62883 0.0
O22 O 0.55516 0.17795 0.65557 0.0
O23 O 0.52038 0.19888 0.64792 0.0
O24 O 0.57491 0.21087 0.63004 0.0
O25 O 0.60646 0.18346 0.63337 0.0
C26 C 0.55057 0.12746 0.63051 0.0
C27 C 0.59885 0.20634 0.632 0.0
C28 C 0.81019 0.53532 0.15989 0.0
C29 C 0.81217 0.5458 0.09625 0.0
O30 O 0.80017 0.52139 0.1481 0.0
Zn31 Zn 0.81105 0.541 0.12809 0.0
O32 O 0.82248 0.55546 0.15535 0.0
Zn33 Zn 0.83209 0.57463 0.13108 0.0
O34 O 0.81586 0.60703 0.1334 0.0
O35 O 0.78842 0.5755 0.13016 0.0
O36 O 0.82385 0.564 0.10419 0.0
O37 O 0.80186 0.52817 0.10524 0.0
O38 O 0.85229 0.53634 0.12841 0.0
O39 O 0.8685 0.57492 0.13151 0.0
C40 C 0.79296 0.59941 0.13217 0.0
C41 C 0.8718 0.55107 0.12977 0.0
C42 C 0.45513 0.81337 0.5962 0.0
C43 C 0.46475 0.80958 0.65983 0.0
O44 O 0.47274 0.80298 0.60516 0.0
Zn45 Zn 0.45958 0.8115 0.62804 0.0
O46 O 0.43671 0.82465 0.60418 0.0
Zn47 Zn 0.42565 0.83201 0.6311 0.0
O48 O 0.42511 0.86842 0.63215 0.0
O49 O 0.46382 0.85267 0.62884 0.0
O50 O 0.44427 0.82135 0.65537 0.0
O51 O 0.47938 0.80076 0.64799 0.0
O52 O 0.42515 0.78842 0.62975 0.0
O53 O 0.39336 0.81562 0.63285 0.0
C54 C 0.44893 0.87199 0.63046 0.0
C55 C 0.40115 0.79279 0.63155 0.0
C56 C 0.18927 0.53488 0.343 0.0
C57 C 0.18729 0.54435 0.40667 0.0
O58 O 0.19927 0.52077 0.35469 0.0
Zn59 Zn 0.18837 0.54005 0.37482 0.0
O60 O 0.17699 0.55496 0.34767 0.0
Zn61 Zn 0.16738 0.57375 0.37208 0.0
O62 O 0.18363 0.60617 0.37002 0.0
O63 O 0.21105 0.57459 0.37303 0.0
O64 O 0.17564 0.5627 0.39887 0.0
O65 O 0.19753 0.52683 0.39755 0.0
O66 O 0.14712 0.53542 0.37442 0.0
O67 O 0.13099 0.57408 0.37164 0.0
C68 C 0.20653 0.59853 0.37123 0.0
C69 C 0.12764 0.55021 0.37317 0.0
C70 C 0.45353 0.18591 0.90653 0.0
C71 C 0.46431 0.1895 0.84294 0.0
O72 O 0.4713 0.1963 0.89771 0.0
Zn73 Zn 0.45862 0.18766 0.87471 0.0
O74 O 0.43529 0.17457 0.8984 0.0
Zn75 Zn 0.42478 0.16705 0.87139 0.0
O76 O 0.42437 0.13062 0.8704 0.0
O77 O 0.46297 0.14652 0.87402 0.0
O78 O 0.44378 0.17769 0.84726 0.0
O79 O 0.47874 0.19838 0.85487 0.0
O80 O 0.42416 0.21063 0.87266 0.0
O81 O 0.39249 0.18334 0.86931 0.0
C82 C 0.44817 0.12714 0.87231 0.0
C83 C 0.40021 0.20619 0.87065 0.0
C84 C 0.813 0.45354 0.40661 0.0
C85 C 0.81046 0.46349 0.34294 0.0
O86 O 0.80263 0.4711 0.3976 0.0
Zn87 Zn 0.8116 0.45807 0.37476 0.0
O88 O 0.82459 0.43526 0.39869 0.0
Zn89 Zn 0.83258 0.4244 0.37181 0.0
O90 O 0.86899 0.42409 0.37122 0.0
O91 O 0.85284 0.4627 0.37425 0.0
O92 O 0.82277 0.44338 0.34751 0.0
O93 O 0.80055 0.47751 0.35472 0.0
O94 O 0.78892 0.42356 0.37293 0.0
O95 O 0.8163 0.39199 0.36971 0.0
C96 C 0.87232 0.44795 0.37286 0.0
C97 C 0.79341 0.39963 0.37102 0.0
C98 C 0.53415 0.80961 0.843 0.0
C99 C 0.54493 0.81271 0.90653 0.0
O100 O 0.51986 0.80056 0.85495 0.0
Zn101 Zn 0.53993 0.81131 0.87473 0.0
O102 O 0.55463 0.82152 0.8473 0.0
Zn103 Zn 0.57364 0.83203 0.87149 0.0
O104 O 0.60601 0.81592 0.86935 0.0
O105 O 0.57448 0.78847 0.87265 0.0
O106 O 0.56317 0.8242 0.8985 0.0
O107 O 0.52719 0.80244 0.89763 0.0
O108 O 0.53539 0.85245 0.87415 0.0
O109 O 0.57396 0.86845 0.87066 0.0
C110 C 0.59841 0.79303 0.87064 0.0
C111 C 0.55015 0.87187 0.87252 0.0
C112 C 0.81249 0.54591 0.90661 0.0
C113 C 0.81051 0.53562 0.84296 0.0
O114 O 0.82418 0.56413 0.89871 0.0
Zn115 Zn 0.83244 0.57483 0.87183 0.0
O116 O 0.80218 0.52832 0.8976 0.0
Zn117 Zn 0.81138 0.5412 0.87477 0.0
O118 O 0.85261 0.53651 0.87445 0.0
O119 O 0.86885 0.57509 0.8714 0.0
O120 O 0.80048 0.52167 0.85474 0.0
O121 O 0.82282 0.55574 0.84753 0.0
O122 O 0.81624 0.60725 0.86956 0.0
O123 O 0.78878 0.57574 0.87275 0.0
C124 C 0.87213 0.55124 0.8731 0.0
C125 C 0.79333 0.59964 0.87078 0.0
C126 C 0.46429 0.8093 0.34287 0.0
C127 C 0.45486 0.8132 0.40651 0.0
O128 O 0.44383 0.8211 0.34735 0.0
Zn129 Zn 0.42529 0.83181 0.37164 0.0
O130 O 0.47894 0.80048 0.35469 0.0
Zn131 Zn 0.45921 0.81127 0.37466 0.0
O132 O 0.42475 0.78822 0.37301 0.0
O133 O 0.39298 0.81545 0.36994 0.0
O134 O 0.47243 0.80277 0.39753 0.0
O135 O 0.43643 0.82448 0.39855 0.0
O136 O 0.42479 0.86822 0.37056 0.0
O137 O 0.46349 0.85242 0.37383 0.0
C138 C 0.40076 0.79261 0.37125 0.0
C139 C 0.44862 0.87176 0.37221 0.0
C140 C 0.18711 0.45411 0.90667 0.0
C141 C 0.18886 0.46436 0.84306 0.0
O142 O 0.1754 0.43587 0.8988 0.0
Zn143 Zn 0.167 0.42518 0.87195 0.0
O144 O 0.19735 0.47172 0.89763 0.0
Zn145 Zn 0.18805 0.4588 0.87485 0.0
O146 O 0.1468 0.4635 0.87456 0.0
O147 O 0.13061 0.4249 0.87159 0.0
O148 O 0.19891 0.47833 0.85481 0.0
O149 O 0.17656 0.44425 0.84764 0.0
O150 O 0.18316 0.39276 0.86964 0.0
O151 O 0.21066 0.42425 0.87279 0.0
C152 C 0.1273 0.44875 0.87326 0.0
C153 C 0.20608 0.40035 0.87083 0.0
C154 C 0.54481 0.186 0.40654 0.0
C155 C 0.53473 0.18954 0.34291 0.0
O156 O 0.56312 0.17462 0.39853 0.0
Zn157 Zn 0.57389 0.16702 0.37157 0.0
O158 O 0.52713 0.19634 0.39762 0.0
Zn159 Zn 0.54007 0.18768 0.3747 0.0
O160 O 0.53562 0.14655 0.37398 0.0
O161 O 0.57423 0.13059 0.37059 0.0
O162 O 0.5202 0.19846 0.35477 0.0
O163 O 0.55518 0.17769 0.34733 0.0
O164 O 0.60625 0.18322 0.36967 0.0
O165 O 0.57462 0.21059 0.37285 0.0
C166 C 0.55041 0.12715 0.37234 0.0
C167 C 0.59858 0.2061 0.37098 0.0
C168 C 0.81085 0.46373 0.65992 0.0
C169 C 0.81328 0.45367 0.59626 0.0
O170 O 0.82317 0.44362 0.65537 0.0
Zn171 Zn 0.83294 0.4246 0.63106 0.0
O172 O 0.80092 0.47772 0.64813 0.0
Zn173 Zn 0.81194 0.45825 0.6281 0.0
O174 O 0.78928 0.42372 0.62998 0.0
O175 O 0.81669 0.39218 0.63321 0.0
O176 O 0.80291 0.47123 0.60527 0.0
O177 O 0.82489 0.43541 0.60418 0.0
O178 O 0.86935 0.42432 0.63162 0.0
O179 O 0.85318 0.46291 0.62857 0.0
C180 C 0.7938 0.3998 0.63191 0.0
C181 C 0.87267 0.44817 0.62996 0.0
C182 C 0.59799 0.79277 0.13221 0.0
C183 C 0.54981 0.87165 0.1302 0.0
O184 O 0.57407 0.78823 0.13015 0.0
Zn185 Zn 0.53954 0.8111 0.12798 0.0
O186 O 0.6056 0.81566 0.13351 0.0
Zn187 Zn 0.57326 0.8318 0.13129 0.0
O188 O 0.55414 0.8213 0.15544 0.0
O189 O 0.51938 0.80037 0.14773 0.0
O190 O 0.5736 0.86821 0.13211 0.0
O191 O 0.53503 0.85225 0.12854 0.0
O192 O 0.5269 0.80222 0.10506 0.0
O193 O 0.5629 0.82396 0.10426 0.0
C194 C 0.53363 0.80941 0.1597 0.0
C195 C 0.54468 0.81249 0.0962 0.0
C196 C 0.18762 0.54452 0.59619 0.0
C197 C 0.18963 0.53505 0.65985 0.0
O198 O 0.176 0.56287 0.60399 0.0
Zn199 Zn 0.16776 0.57393 0.63078 0.0
O200 O 0.19787 0.52699 0.6053 0.0
Zn201 Zn 0.18873 0.54022 0.62803 0.0
O202 O 0.14747 0.53562 0.62843 0.0
O203 O 0.13136 0.57428 0.63122 0.0
O204 O 0.19962 0.52093 0.64816 0.0
O205 O 0.17736 0.55513 0.65518 0.0
O206 O 0.18403 0.60634 0.63283 0.0
O207 O 0.21143 0.57474 0.62982 0.0
C208 C 0.128 0.55042 0.62969 0.0
C209 C 0.20693 0.59869 0.63163 0.0
C210 C 0.44799 0.12701 0.13052 0.0
C211 C 0.39993 0.20599 0.13236 0.0
O212 O 0.46276 0.14641 0.12877 0.0
Zn213 Zn 0.45832 0.18756 0.12812 0.0
O214 O 0.42421 0.13047 0.1325 0.0
Zn215 Zn 0.42459 0.1669 0.13154 0.0
O216 O 0.43494 0.17444 0.10447 0.0
O217 O 0.4709 0.19625 0.10513 0.0
O218 O 0.39227 0.18312 0.13374 0.0
O219 O 0.42385 0.21048 0.13027 0.0
O220 O 0.47856 0.19835 0.14783 0.0
O221 O 0.44381 0.17749 0.15564 0.0
C222 C 0.45314 0.18584 0.09633 0.0
C223 C 0.46434 0.18937 0.15985 0.0
C224 C 0.09682 0.48574 0.12868 0.0
C225 C 0.10082 0.45924 0.12915 0.0
C226 C 0.07206 0.49569 0.1285 0.0
C227 C 0.00525 0.47866 0.13913 0.0
H228 H 0.98906 0.53707 0.10987 0.0
C229 C 0.90191 0.51391 0.12859 0.0
C230 C 0.89795 0.54041 0.12935 0.0
C231 C 0.92664 0.50393 0.12834 0.0
C232 C 0.99335 0.52089 0.11823 0.0
H233 H 0.08192 0.42239 0.12957 0.0
H234 H 0.03886 0.43971 0.12897 0.0
H235 H 0.03233 0.51989 0.10984 0.0
H236 H 0.91692 0.57721 0.13038 0.0
H237 H 0.96 0.55976 0.13 0.0
H238 H 0.96623 0.47961 0.14745 0.0
C239 C 0.05481 0.45285 0.12907 0.0
C240 C 0.01815 0.51107 0.11824 0.0
C241 C 0.07953 0.44292 0.12931 0.0
C242 C 0.91927 0.55669 0.12977 0.0
C243 C 0.94398 0.54672 0.12944 0.0
C244 C 0.98045 0.48843 0.13907 0.0
C245 C 0.05076 0.47935 0.12873 0.0
C246 C 0.0244 0.48984 0.1287 0.0
C247 C 0.94795 0.52023 0.12877 0.0
C248 C 0.97423 0.50967 0.12864 0.0
H249 H 0.1128 0.49885 0.1286 0.0
H250 H 0.06961 0.5162 0.12846 0.0
H251 H 0.0095 0.46257 0.14757 0.0
H252 H 0.8859 0.50084 0.12822 0.0
H253 H 0.92909 0.48343 0.12762 0.0
C254 C 0.44294 0.91939 0.63072 0.0
C255 C 0.45939 0.89822 0.63033 0.0
C256 C 0.45274 0.94417 0.63058 0.0
C257 C 0.51076 0.9811 0.61952 0.0
H258 H 0.47937 0.03291 0.64883 0.0
C259 C 0.55629 0.08002 0.63085 0.0
C260 C 0.53996 0.10129 0.63032 0.0
C261 C 0.54635 0.05529 0.63066 0.0
C262 C 0.48817 0.01871 0.64044 0.0
H263 H 0.49908 0.88649 0.62959 0.0
H264 H 0.5162 0.92974 0.62964 0.0
H265 H 0.46242 0.98959 0.64902 0.0
H266 H 0.50035 0.11324 0.62918 0.0
H267 H 0.48301 0.07002 0.62884 0.0
H268 H 0.53666 0.01023 0.61109 0.0
C269 C 0.49569 0.92719 0.62975 0.0
C270 C 0.47846 0.99389 0.64053 0.0
C271 C 0.48588 0.90239 0.62982 0.0
C272 C 0.51346 0.09727 0.62962 0.0
C273 C 0.50351 0.07252 0.62952 0.0
C274 C 0.52054 0.0059 0.6195 0.0
C275 C 0.47923 0.94838 0.63013 0.0
C276 C 0.48962 0.97478 0.63006 0.0
C277 C 0.51986 0.05127 0.63002 0.0
C278 C 0.50935 0.02497 0.62995 0.0
H279 H 0.42243 0.91687 0.63102 0.0
H280 H 0.43951 0.96005 0.63061 0.0
H281 H 0.51956 0.96696 0.61109 0.0
H282 H 0.5768 0.08242 0.63141 0.0
H283 H 0.55942 0.03931 0.63127 0.0
C284 C 0.09742 0.51309 0.37382 0.0
C285 C 0.10146 0.53959 0.37344 0.0
C286 C 0.07264 0.50317 0.37392 0.0
C287 C 0.00587 0.52027 0.36325 0.0
H288 H 0.98961 0.46184 0.39247 0.0
C289 C 0.90248 0.4851 0.37387 0.0
C290 C 0.89849 0.4586 0.37315 0.0
C291 C 0.92723 0.49506 0.37405 0.0
C292 C 0.99392 0.47802 0.38412 0.0
H293 H 0.08262 0.57646 0.37304 0.0
H294 H 0.03952 0.55919 0.37348 0.0
H295 H 0.03288 0.47898 0.39252 0.0
H296 H 0.91741 0.42179 0.37211 0.0
H297 H 0.96051 0.4392 0.37237 0.0
H298 H 0.96685 0.51937 0.35493 0.0
C299 C 0.05546 0.54604 0.37339 0.0
C300 C 0.01872 0.48782 0.38412 0.0
C301 C 0.0802 0.55594 0.37324 0.0
C302 C 0.91978 0.4423 0.37269 0.0
C303 C 0.9445 0.45225 0.37294 0.0
C304 C 0.98105 0.51052 0.36329 0.0
C305 C 0.05137 0.51954 0.37368 0.0
C306 C 0.025 0.50906 0.37368 0.0
C307 C 0.94851 0.47874 0.3736 0.0
C308 C 0.97481 0.48927 0.37371 0.0
H309 H 0.11338 0.49997 0.37392 0.0
H310 H 0.07017 0.48266 0.37392 0.0
H311 H 0.01014 0.53638 0.35483 0.0
H312 H 0.88649 0.49818 0.37427 0.0
H313 H 0.9297 0.51555 0.37474 0.0
C314 C 0.51307 0.90209 0.87327 0.0
C315 C 0.53957 0.89804 0.87277 0.0
C316 C 0.50315 0.92685 0.87336 0.0
C317 C 0.52024 0.99359 0.86258 0.0
H318 H 0.46181 0.00985 0.89182 0.0
C319 C 0.48521 0.09691 0.87337 0.0
C320 C 0.45872 0.10096 0.87256 0.0
C321 C 0.49512 0.07216 0.87352 0.0
C322 C 0.478 0.00554 0.88346 0.0
H323 H 0.57646 0.91686 0.87218 0.0
H324 H 0.5592 0.95995 0.87265 0.0
H325 H 0.47898 0.96661 0.8919 0.0
H326 H 0.42186 0.08214 0.87133 0.0
H327 H 0.43918 0.039 0.87157 0.0
H328 H 0.51932 0.03259 0.85425 0.0
C329 C 0.54603 0.94402 0.87263 0.0
C330 C 0.48781 0.98075 0.88348 0.0
C331 C 0.55593 0.91929 0.87247 0.0
C332 C 0.44236 0.07971 0.87198 0.0
C333 C 0.45227 0.05497 0.87221 0.0
C334 C 0.51048 0.01839 0.86262 0.0
C335 C 0.51952 0.94811 0.87302 0.0
C336 C 0.50904 0.97447 0.87302 0.0
C337 C 0.47875 0.05092 0.87295 0.0
C338 C 0.48924 0.02463 0.87304 0.0
H339 H 0.49993 0.88613 0.87345 0.0
H340 H 0.48263 0.92931 0.87344 0.0
H341 H 0.53633 0.98932 0.85414 0.0
H342 H 0.49834 0.11286 0.87386 0.0
H343 H 0.51561 0.06963 0.87428 0.0
C344 C 0.91961 0.55683 0.87312 0.0
C345 C 0.89828 0.54056 0.87351 0.0
C346 C 0.94431 0.54683 0.87343 0.0
C347 C 0.98075 0.48856 0.86372 0.0
H348 H 0.03261 0.51992 0.89303 0.0
C349 C 0.07986 0.44304 0.87345 0.0
C350 C 0.10114 0.45938 0.87365 0.0
C351 C 0.05513 0.45296 0.87369 0.0
C352 C 0.01844 0.51112 0.88461 0.0
H353 H 0.8862 0.50099 0.87457 0.0
H354 H 0.92938 0.48355 0.87515 0.0
H355 H 0.98936 0.5371 0.89301 0.0
H356 H 0.11309 0.499 0.87426 0.0
H357 H 0.0699 0.51632 0.8744 0.0
H358 H 0.00981 0.46273 0.8552 0.0
C359 C 0.92694 0.50405 0.87446 0.0
C360 C 0.99365 0.52095 0.88463 0.0
C361 C 0.90221 0.51405 0.87423 0.0
C362 C 0.09712 0.48588 0.87415 0.0
C363 C 0.07235 0.49581 0.87433 0.0
C364 C 0.00556 0.47879 0.86366 0.0
C365 C 0.94826 0.52034 0.87407 0.0
C366 C 0.97454 0.50977 0.87419 0.0
C367 C 0.05106 0.47946 0.87407 0.0
C368 C 0.0247 0.48994 0.87411 0.0
H369 H 0.91727 0.57734 0.87254 0.0
H370 H 0.96033 0.55986 0.8729 0.0
H371 H 0.96654 0.47977 0.85533 0.0
H372 H 0.08226 0.42252 0.87317 0.0
H373 H 0.03919 0.43981 0.87376 0.0
C374 C 0.5133 0.09695 0.37315 0.0
C375 C 0.53981 0.10098 0.37249 0.0
C376 C 0.50336 0.0722 0.37321 0.0
C377 C 0.52037 0.00557 0.38318 0.0
H378 H 0.46229 0.98934 0.35361 0.0
C379 C 0.48561 0.9021 0.37282 0.0
C380 C 0.45912 0.89797 0.37232 0.0
C381 C 0.49545 0.92689 0.37288 0.0
C382 C 0.47831 0.99362 0.36211 0.0
H383 H 0.57666 0.08213 0.37143 0.0
H384 H 0.55928 0.03901 0.3715 0.0
H385 H 0.47927 0.03264 0.35383 0.0
H386 H 0.42218 0.91667 0.37163 0.0
H387 H 0.43932 0.95983 0.37203 0.0
H388 H 0.51935 0.96662 0.39157 0.0
C389 C 0.54621 0.05499 0.3721 0.0
C390 C 0.48805 0.01843 0.36222 0.0
C391 C 0.55614 0.07972 0.37196 0.0
C392 C 0.44269 0.91917 0.37193 0.0
C393 C 0.45253 0.94393 0.37206 0.0
C394 C 0.51058 0.98077 0.38313 0.0
C395 C 0.51971 0.05096 0.3727 0.0
C396 C 0.50921 0.02466 0.37273 0.0
C397 C 0.47902 0.94811 0.37251 0.0
C398 C 0.48945 0.97449 0.37258 0.0
H399 H 0.50019 0.11291 0.37359 0.0
H400 H 0.48286 0.06969 0.37386 0.0
H401 H 0.53648 0.00988 0.39161 0.0
H402 H 0.49879 0.88619 0.37305 0.0
H403 H 0.51596 0.92942 0.37299 0.0
C404 C 0.90281 0.48533 0.62891 0.0
C405 C 0.89883 0.45883 0.62964 0.0
C406 C 0.92755 0.49531 0.62872 0.0
C407 C 0.99426 0.47829 0.61866 0.0
H408 H 0.01047 0.53666 0.64795 0.0
C409 C 0.09776 0.51332 0.62902 0.0
C410 C 0.10182 0.53981 0.62941 0.0
C411 C 0.07298 0.50341 0.6289 0.0
C412 C 0.00619 0.52055 0.63952 0.0
H413 H 0.91777 0.42203 0.6307 0.0
H414 H 0.96086 0.43946 0.63042 0.0
H415 H 0.96717 0.51965 0.64783 0.0
H416 H 0.08299 0.57669 0.6298 0.0
H417 H 0.03989 0.55945 0.62932 0.0
H418 H 0.03323 0.47924 0.61028 0.0
C419 C 0.94485 0.45251 0.62984 0.0
C420 C 0.98138 0.5108 0.63947 0.0
C421 C 0.92014 0.44254 0.63011 0.0
C422 C 0.08056 0.55618 0.62959 0.0
C423 C 0.05582 0.54628 0.62942 0.0
C424 C 0.01906 0.48809 0.61867 0.0
C425 C 0.94884 0.479 0.62918 0.0
C426 C 0.97514 0.48954 0.62907 0.0
C427 C 0.05171 0.51979 0.62913 0.0
C428 C 0.02534 0.50932 0.62911 0.0
H429 H 0.88682 0.49841 0.62851 0.0
H430 H 0.93002 0.5158 0.62802 0.0
H431 H 0.98995 0.4621 0.61032 0.0
H432 H 0.11371 0.50018 0.62893 0.0
H433 H 0.0705 0.4829 0.6289 0.0
C434 C 0.48504 0.09679 0.12937 0.0
C435 C 0.45855 0.10083 0.13021 0.0
C436 C 0.49495 0.07203 0.12917 0.0
C437 C 0.47782 0.00542 0.11917 0.0
H438 H 0.53614 0.98913 0.14849 0.0
C439 C 0.51276 0.90192 0.12938 0.0
C440 C 0.53925 0.89784 0.12991 0.0
C441 C 0.50288 0.9267 0.12926 0.0
C442 C 0.52005 0.99342 0.14005 0.0
H443 H 0.42169 0.082 0.13144 0.0
H444 H 0.43902 0.03886 0.13112 0.0
H445 H 0.51917 0.03242 0.1484 0.0
H446 H 0.57616 0.91661 0.13053 0.0
H447 H 0.55897 0.95972 0.13002 0.0
H448 H 0.47877 0.9665 0.11072 0.0
C449 C 0.4521 0.05484 0.13049 0.0
C450 C 0.51032 0.01823 0.14002 0.0
C451 C 0.4422 0.07957 0.13077 0.0
C452 C 0.55565 0.91907 0.13022 0.0
C453 C 0.54578 0.94381 0.13003 0.0
C454 C 0.48761 0.98063 0.11914 0.0
C455 C 0.47858 0.05079 0.12972 0.0
C456 C 0.48907 0.0245 0.1296 0.0
C457 C 0.51928 0.94794 0.12961 0.0
C458 C 0.50883 0.97432 0.1296 0.0
H459 H 0.49817 0.11274 0.12889 0.0
H460 H 0.51544 0.06951 0.12839 0.0
H461 H 0.46163 0.00976 0.11082 0.0
H462 H 0.4996 0.88598 0.12919 0.0
H463 H 0.48236 0.92919 0.12916 0.0
C464 C 0.20649 0.50744 0.3187 0.0
C465 C 0.19129 0.52807 0.32415 0.0
C466 C 0.2079 0.50073 0.30092 0.0
C467 C 0.19488 0.48097 0.26448 0.0
H468 H 0.1945 0.5332 0.22835 0.0
C469 C 0.17686 0.4574 0.19143 0.0
C470 C 0.19054 0.4711 0.17864 0.0
C471 C 0.17829 0.46426 0.20917 0.0
C472 C 0.19491 0.51835 0.23826 0.0
H473 H 0.16568 0.55787 0.31516 0.0
H474 H 0.16773 0.54589 0.28426 0.0
H475 H 0.19542 0.54558 0.25922 0.0
H476 H 0.2168 0.50253 0.17449 0.0
H477 H 0.21967 0.5142 0.20548 0.0
H478 H 0.19493 0.45374 0.24352 0.0
C479 C 0.17898 0.53517 0.29365 0.0
C480 C 0.19509 0.52547 0.25598 0.0
C481 C 0.17767 0.54195 0.31141 0.0
C482 C 0.2059 0.49166 0.184 0.0
C483 C 0.20744 0.49844 0.20177 0.0
C484 C 0.19481 0.47386 0.24676 0.0
C485 C 0.19404 0.51443 0.28818 0.0
C486 C 0.19487 0.50687 0.26932 0.0
C487 C 0.19355 0.48489 0.21456 0.0
C488 C 0.19461 0.49246 0.23342 0.0
H489 H 0.21733 0.49643 0.32817 0.0
H490 H 0.21999 0.4849 0.29715 0.0
H491 H 0.19444 0.46613 0.27439 0.0
H492 H 0.16474 0.44153 0.18774 0.0
H493 H 0.16701 0.45365 0.21861 0.0
C494 C 0.50217 0.19759 0.68342 0.0
C495 C 0.52756 0.19247 0.67862 0.0
C496 C 0.49518 0.19877 0.70116 0.0
C497 C 0.51917 0.21093 0.74535 0.0
H498 H 0.46364 0.16761 0.76096 0.0
C499 C 0.49671 0.1964 0.81917 0.0
C500 C 0.47126 0.19215 0.82417 0.0
C501 C 0.50341 0.1976 0.80137 0.0
C502 C 0.47886 0.18024 0.75685 0.0
H503 H 0.56566 0.18527 0.68861 0.0
H504 H 0.55348 0.18797 0.71964 0.0
H505 H 0.47538 0.16836 0.72997 0.0
H506 H 0.43273 0.18676 0.81451 0.0
H507 H 0.4441 0.19001 0.78356 0.0
H508 H 0.52233 0.22345 0.77204 0.0
C509 C 0.53901 0.19083 0.70964 0.0
C510 C 0.48565 0.18051 0.73907 0.0
C511 C 0.54593 0.18917 0.69191 0.0
C512 C 0.45255 0.18977 0.81105 0.0
C513 C 0.45915 0.19145 0.79327 0.0
C514 C 0.51209 0.21103 0.76311 0.0
C515 C 0.51352 0.19534 0.71442 0.0
C516 C 0.50595 0.19573 0.73319 0.0
C517 C 0.48473 0.19503 0.78815 0.0
C518 C 0.49193 0.19555 0.76914 0.0
H519 H 0.48757 0.20015 0.67348 0.0
H520 H 0.47542 0.2024 0.70452 0.0
H521 H 0.53477 0.223 0.74108 0.0
H522 H 0.51158 0.19811 0.829 0.0
H523 H 0.52335 0.19993 0.79803 0.0
C524 C 0.82172 0.54198 0.19154 0.0
C525 C 0.80814 0.52825 0.17871 0.0
C526 C 0.82033 0.53503 0.20926 0.0
C527 C 0.80404 0.48066 0.23823 0.0
H528 H 0.80446 0.53267 0.27451 0.0
C529 C 0.82182 0.45666 0.31128 0.0
C530 C 0.80828 0.47043 0.32411 0.0
C531 C 0.82035 0.46355 0.29354 0.0
C532 C 0.80404 0.51788 0.26457 0.0
H533 H 0.78208 0.49668 0.17448 0.0
H534 H 0.77925 0.48485 0.20545 0.0
H535 H 0.80375 0.54524 0.24368 0.0
H536 H 0.78221 0.50199 0.32832 0.0
H537 H 0.77927 0.51371 0.29734 0.0
H538 H 0.80376 0.4533 0.25912 0.0
C539 C 0.79139 0.5007 0.20178 0.0
C540 C 0.80398 0.5251 0.24686 0.0
C541 C 0.79289 0.50758 0.18403 0.0
C542 C 0.793 0.49107 0.31878 0.0
C543 C 0.79143 0.49787 0.30102 0.0
C544 C 0.80398 0.47344 0.25594 0.0
C545 C 0.80519 0.51427 0.21462 0.0
C546 C 0.8042 0.50659 0.23346 0.0
C547 C 0.8052 0.48429 0.28818 0.0
C548 C 0.8042 0.49196 0.26933 0.0
H549 H 0.83375 0.55793 0.1879 0.0
H550 H 0.83154 0.54566 0.21873 0.0
H551 H 0.80447 0.46587 0.22828 0.0
H552 H 0.83387 0.44073 0.31493 0.0
H553 H 0.83154 0.4529 0.28408 0.0
C554 C 0.54536 0.81032 0.81098 0.0
C555 C 0.52698 0.80706 0.82427 0.0
C556 C 0.53844 0.8086 0.79325 0.0
C557 C 0.48516 0.81878 0.76375 0.0
H558 H 0.5219 0.77558 0.73099 0.0
C559 C 0.45262 0.80934 0.69165 0.0
C560 C 0.47147 0.80694 0.67863 0.0
C561 C 0.45904 0.80768 0.70946 0.0
C562 C 0.51165 0.78806 0.73986 0.0
H563 H 0.48699 0.79943 0.82942 0.0
H564 H 0.47483 0.79709 0.79838 0.0
H565 H 0.53419 0.77617 0.76196 0.0
H566 H 0.51184 0.80096 0.67401 0.0
H567 H 0.52328 0.79916 0.70503 0.0
H568 H 0.4633 0.83162 0.74177 0.0
C569 C 0.49459 0.80073 0.80174 0.0
C570 C 0.51863 0.78824 0.75763 0.0
C571 C 0.50158 0.80196 0.81947 0.0
C572 C 0.49686 0.80269 0.68376 0.0
C573 C 0.50337 0.8015 0.70159 0.0
C574 C 0.47846 0.81897 0.74596 0.0
C575 C 0.51295 0.80408 0.78848 0.0
C576 C 0.50541 0.80356 0.76972 0.0
C577 C 0.48456 0.80408 0.71471 0.0
C578 C 0.49157 0.80358 0.73374 0.0
H579 H 0.56509 0.81419 0.81427 0.0
H580 H 0.55291 0.8114 0.78325 0.0
H581 H 0.47488 0.83101 0.7728 0.0
H582 H 0.43284 0.81238 0.68808 0.0
H583 H 0.44389 0.80916 0.7191 0.0
C584 C 0.79318 0.50796 0.8188 0.0
C585 C 0.80846 0.5286 0.82414 0.0
C586 C 0.79169 0.5011 0.80104 0.0
C587 C 0.80443 0.52547 0.75597 0.0
H588 H 0.80409 0.45366 0.74374 0.0
C589 C 0.79345 0.49138 0.68406 0.0
C590 C 0.80869 0.47071 0.67874 0.0
C591 C 0.79189 0.49822 0.70182 0.0
C592 C 0.80435 0.4738 0.74691 0.0
H593 H 0.83414 0.55823 0.81498 0.0
H594 H 0.83196 0.54599 0.78414 0.0
H595 H 0.80476 0.46625 0.77456 0.0
H596 H 0.83423 0.44098 0.68795 0.0
H597 H 0.83192 0.45319 0.71879 0.0
H598 H 0.80499 0.53302 0.72832 0.0
C599 C 0.82071 0.53537 0.79359 0.0
C600 C 0.80439 0.48103 0.76461 0.0
C601 C 0.82209 0.54231 0.81132 0.0
C602 C 0.8222 0.45694 0.69159 0.0
C603 C 0.82075 0.46385 0.70932 0.0
C604 C 0.80451 0.51824 0.73827 0.0
C605 C 0.80554 0.51465 0.78822 0.0
C606 C 0.80459 0.50696 0.76937 0.0
C607 C 0.80563 0.48462 0.71466 0.0
C608 C 0.80463 0.49231 0.73351 0.0
H609 H 0.78232 0.49708 0.82833 0.0
H610 H 0.77952 0.48528 0.79735 0.0
H611 H 0.80424 0.54561 0.75914 0.0
H612 H 0.78268 0.50231 0.67451 0.0
H613 H 0.77976 0.51408 0.70548 0.0
C614 C 0.45208 0.80906 0.31106 0.0
C615 C 0.47095 0.80663 0.32406 0.0
C616 C 0.45844 0.80737 0.29324 0.0
C617 C 0.51096 0.78766 0.26279 0.0
H618 H 0.47425 0.83071 0.22989 0.0
C619 C 0.54477 0.81003 0.19174 0.0
C620 C 0.52641 0.80684 0.17843 0.0
C621 C 0.53781 0.80829 0.20946 0.0
C622 C 0.48451 0.81845 0.23893 0.0
H623 H 0.51132 0.80057 0.32864 0.0
H624 H 0.52268 0.79874 0.29761 0.0
H625 H 0.46268 0.8313 0.26092 0.0
H626 H 0.48642 0.79929 0.17323 0.0
H627 H 0.47419 0.79688 0.20426 0.0
H628 H 0.53347 0.77577 0.24068 0.0
C629 C 0.50278 0.80111 0.30107 0.0
C630 C 0.47782 0.81863 0.25673 0.0
C631 C 0.49632 0.80232 0.3189 0.0
C632 C 0.50099 0.80176 0.18319 0.0
C633 C 0.49397 0.8005 0.20091 0.0
C634 C 0.51793 0.78785 0.24503 0.0
C635 C 0.48395 0.80372 0.28797 0.0
C636 C 0.49092 0.80321 0.26893 0.0
C637 C 0.51231 0.80379 0.21419 0.0
C638 C 0.50474 0.80322 0.23295 0.0
H639 H 0.43231 0.81213 0.31465 0.0
H640 H 0.44328 0.80887 0.28362 0.0
H641 H 0.5212 0.77516 0.27166 0.0
H642 H 0.56452 0.81389 0.18847 0.0
H643 H 0.55227 0.81104 0.21948 0.0
C644 C 0.17725 0.45763 0.81144 0.0
C645 C 0.19092 0.47134 0.82423 0.0
C646 C 0.17869 0.46448 0.7937 0.0
C647 C 0.1953 0.51857 0.7646 0.0
H648 H 0.19486 0.46632 0.72848 0.0
C649 C 0.20686 0.50761 0.68416 0.0
C650 C 0.19166 0.52824 0.67871 0.0
C651 C 0.20828 0.50092 0.70194 0.0
C652 C 0.1953 0.48117 0.73839 0.0
H653 H 0.21714 0.5028 0.82839 0.0
H654 H 0.22004 0.51446 0.7974 0.0
H655 H 0.19537 0.45396 0.75935 0.0
H656 H 0.16604 0.55804 0.6877 0.0
H657 H 0.16811 0.54607 0.71859 0.0
H658 H 0.1958 0.54579 0.74364 0.0
C659 C 0.20781 0.49869 0.80111 0.0
C660 C 0.19523 0.47407 0.75611 0.0
C661 C 0.20626 0.49192 0.81887 0.0
C662 C 0.17804 0.54212 0.69145 0.0
C663 C 0.17935 0.53535 0.7092 0.0
C664 C 0.19548 0.52567 0.74688 0.0
C665 C 0.19395 0.48512 0.78831 0.0
C666 C 0.19502 0.49268 0.76945 0.0
C667 C 0.19443 0.51462 0.71468 0.0
C668 C 0.19527 0.50707 0.73354 0.0
H669 H 0.16514 0.44175 0.81512 0.0
H670 H 0.16743 0.45386 0.78426 0.0
H671 H 0.19488 0.53342 0.77451 0.0
H672 H 0.2177 0.49661 0.67469 0.0
H673 H 0.22038 0.48509 0.70572 0.0
C674 C 0.50254 0.19657 0.31902 0.0
C675 C 0.52793 0.19217 0.32411 0.0
C676 C 0.49596 0.19776 0.30121 0.0
C677 C 0.52059 0.1801 0.25678 0.0
H678 H 0.46493 0.22308 0.24087 0.0
C679 C 0.49709 0.197 0.18328 0.0
C680 C 0.47164 0.19199 0.17857 0.0
C681 C 0.5042 0.19826 0.20099 0.0
C682 C 0.48047 0.21096 0.24518 0.0
H683 H 0.56648 0.18649 0.31457 0.0
H684 H 0.55531 0.18972 0.28358 0.0
H685 H 0.47738 0.22367 0.27182 0.0
H686 H 0.43356 0.18507 0.18869 0.0
H687 H 0.44595 0.18792 0.21967 0.0
H688 H 0.52399 0.16802 0.22993 0.0
C689 C 0.54021 0.1913 0.29324 0.0
C690 C 0.48754 0.21114 0.26293 0.0
C691 C 0.5467 0.18963 0.31104 0.0
C692 C 0.45334 0.18887 0.19192 0.0
C693 C 0.46037 0.19062 0.20963 0.0
C694 C 0.5138 0.1803 0.239 0.0
C695 C 0.51469 0.19504 0.28804 0.0
C696 C 0.50759 0.19555 0.26902 0.0
C697 C 0.48591 0.19504 0.21431 0.0
C698 C 0.49357 0.19558 0.23307 0.0
H699 H 0.48762 0.19842 0.32881 0.0
H700 H 0.47605 0.20022 0.29781 0.0
H701 H 0.53572 0.16741 0.26093 0.0
H702 H 0.51164 0.19941 0.17328 0.0
H703 H 0.524 0.20181 0.20429 0.0
C704 C 0.17743 0.43478 0.93605 0.0
C705 C 0.18857 0.45449 0.92613 0.0
C706 C 0.17866 0.43505 0.9544 0.0
C707 C 0.18793 0.47803 0.99225 0.0
H708 H 0.20032 0.4149 0.01746 0.0
C709 C 0.20083 0.47434 0.0679 0.0
C710 C 0.18838 0.45432 0.07674 0.0
C711 C 0.20206 0.47466 0.04952 0.0
C712 C 0.19662 0.43265 0.01062 0.0
H713 H 0.20981 0.48996 0.92776 0.0
H714 H 0.21207 0.49033 0.95985 0.0
H715 H 0.20037 0.41495 0.98539 0.0
H716 H 0.16746 0.41895 0.07317 0.0
H717 H 0.16944 0.41966 0.04118 0.0
H718 H 0.184 0.49569 0.01752 0.0
C719 C 0.20218 0.47479 0.95339 0.0
C720 C 0.19664 0.43268 0.99224 0.0
C721 C 0.20099 0.4745 0.93501 0.0
C722 C 0.17726 0.43463 0.0668 0.0
C723 C 0.17853 0.43494 0.04844 0.0
C724 C 0.1879 0.47801 0.01065 0.0
C725 C 0.19104 0.45505 0.9633 0.0
C726 C 0.19207 0.45531 0.98284 0.0
C727 C 0.19094 0.45495 0.03958 0.0
C728 C 0.19202 0.45526 0.02004 0.0
H729 H 0.16765 0.41911 0.92965 0.0
H730 H 0.16955 0.41976 0.96164 0.0
H731 H 0.18404 0.49573 0.9854 0.0
H732 H 0.20964 0.48978 0.07517 0.0
H733 H 0.21198 0.49022 0.04309 0.0
C734 C 0.52448 0.19926 0.43505 0.0
C735 C 0.54443 0.18698 0.42603 0.0
C736 C 0.52423 0.20008 0.45346 0.0
C737 C 0.56651 0.19377 0.49219 0.0
H738 H 0.50339 0.18185 0.51753 0.0
C739 C 0.56443 0.17576 0.567 0.0
C740 C 0.54479 0.18723 0.57681 0.0
C741 C 0.56413 0.17655 0.54862 0.0
C742 C 0.52111 0.18553 0.51065 0.0
H743 H 0.57973 0.16585 0.42932 0.0
H744 H 0.57916 0.1671 0.46133 0.0
H745 H 0.50329 0.18182 0.48542 0.0
H746 H 0.50941 0.20856 0.57495 0.0
H747 H 0.509 0.21008 0.54285 0.0
H748 H 0.58436 0.19737 0.51739 0.0
C749 C 0.56387 0.17639 0.4542 0.0
C750 C 0.52106 0.18551 0.49225 0.0
C751 C 0.56411 0.17555 0.43583 0.0
C752 C 0.52482 0.19949 0.5678 0.0
C753 C 0.5245 0.20025 0.5494 0.0
C754 C 0.56656 0.19379 0.51058 0.0
C755 C 0.54396 0.18868 0.46324 0.0
C756 C 0.54379 0.18946 0.4828 0.0
C757 C 0.54417 0.1888 0.5396 0.0
C758 C 0.54391 0.1895 0.52003 0.0
H759 H 0.50904 0.2083 0.42791 0.0
H760 H 0.50875 0.20993 0.46001 0.0
H761 H 0.58427 0.19733 0.48533 0.0
H762 H 0.58007 0.16608 0.5735 0.0
H763 H 0.57938 0.16722 0.54148 0.0
C764 C 0.79843 0.52552 0.06784 0.0
C765 C 0.81089 0.54544 0.07678 0.0
C766 C 0.79741 0.52524 0.04945 0.0
C767 C 0.80357 0.56734 0.01062 0.0
H768 H 0.81559 0.50418 0.98537 0.0
C769 C 0.82251 0.56513 0.93598 0.0
C770 C 0.81117 0.54551 0.92608 0.0
C771 C 0.8214 0.56485 0.95434 0.0
C772 C 0.81187 0.5219 0.99223 0.0
H773 H 0.83208 0.58067 0.07336 0.0
H774 H 0.83048 0.58005 0.04136 0.0
H775 H 0.81552 0.50416 0.01749 0.0
H776 H 0.7897 0.5102 0.92777 0.0
H777 H 0.78762 0.50981 0.95986 0.0
H778 H 0.80008 0.58512 0.9854 0.0
C779 C 0.8212 0.56481 0.04855 0.0
C780 C 0.81183 0.5219 0.01063 0.0
C781 C 0.82225 0.56507 0.06692 0.0
C782 C 0.79868 0.52558 0.93499 0.0
C783 C 0.7976 0.52529 0.95338 0.0
C784 C 0.80361 0.56734 0.99224 0.0
C785 C 0.80877 0.5449 0.03959 0.0
C786 C 0.80788 0.54466 0.02004 0.0
C787 C 0.80893 0.54493 0.96327 0.0
C788 C 0.80797 0.54467 0.98282 0.0
H789 H 0.78943 0.51012 0.07505 0.0
H790 H 0.78746 0.50977 0.04295 0.0
H791 H 0.80001 0.58511 0.01746 0.0
H792 H 0.83236 0.58074 0.92956 0.0
H793 H 0.83066 0.58008 0.96156 0.0
C794 C 0.47588 0.8006 0.56774 0.0
C795 C 0.45582 0.81275 0.57672 0.0
C796 C 0.47654 0.80035 0.54933 0.0
C797 C 0.4512 0.83446 0.51054 0.0
H798 H 0.4699 0.77294 0.4853 0.0
C799 C 0.4362 0.82441 0.43583 0.0
C800 C 0.4556 0.81261 0.42599 0.0
C801 C 0.43693 0.82423 0.4542 0.0
C802 C 0.46493 0.79035 0.49215 0.0
H803 H 0.42059 0.83397 0.57337 0.0
H804 H 0.42164 0.83334 0.54136 0.0
H805 H 0.46995 0.77296 0.51743 0.0
H806 H 0.49096 0.79123 0.42777 0.0
H807 H 0.49231 0.79107 0.45989 0.0
H808 H 0.44611 0.85184 0.48532 0.0
C809 C 0.43706 0.8243 0.54852 0.0
C810 C 0.46496 0.79037 0.51056 0.0
C811 C 0.43638 0.82453 0.56689 0.0
C812 C 0.47569 0.80047 0.43496 0.0
C813 C 0.4764 0.80026 0.45336 0.0
C814 C 0.45118 0.83444 0.49216 0.0
C815 C 0.45719 0.8123 0.53952 0.0
C816 C 0.45791 0.81238 0.51996 0.0
C817 C 0.45708 0.81223 0.46319 0.0
C818 C 0.45786 0.81235 0.48275 0.0
H819 H 0.49118 0.79138 0.57491 0.0
H820 H 0.49243 0.79115 0.54279 0.0
H821 H 0.44615 0.85187 0.51737 0.0
H822 H 0.42039 0.83386 0.42937 0.0
H823 H 0.42154 0.83328 0.46137 0.0
C824 C 0.17758 0.56343 0.43611 0.0
C825 C 0.1887 0.54378 0.42613 0.0
C826 C 0.17884 0.56304 0.45446 0.0
C827 C 0.18825 0.51997 0.49224 0.0
H828 H 0.2009 0.58307 0.51743 0.0
C829 C 0.20135 0.52382 0.56792 0.0
C830 C 0.18899 0.54392 0.57673 0.0
C831 C 0.20251 0.52339 0.54953 0.0
C832 C 0.19712 0.56533 0.5106 0.0
H833 H 0.20989 0.50828 0.42764 0.0
H834 H 0.21221 0.50771 0.45973 0.0
H835 H 0.20082 0.58303 0.48536 0.0
H836 H 0.16811 0.57929 0.57309 0.0
H837 H 0.16996 0.5784 0.54111 0.0
H838 H 0.18437 0.50232 0.51752 0.0
C839 C 0.20231 0.5233 0.45332 0.0
C840 C 0.19708 0.56531 0.49222 0.0
C841 C 0.20109 0.5237 0.43493 0.0
C842 C 0.17785 0.56356 0.56675 0.0
C843 C 0.17905 0.56314 0.5484 0.0
C844 C 0.18829 0.51999 0.51064 0.0
C845 C 0.19124 0.543 0.46329 0.0
C846 C 0.19239 0.54269 0.48282 0.0
C847 C 0.19141 0.54308 0.53956 0.0
C848 C 0.19248 0.54273 0.52003 0.0
H849 H 0.16781 0.57915 0.42977 0.0
H850 H 0.16978 0.57831 0.46175 0.0
H851 H 0.18429 0.50228 0.48539 0.0
H852 H 0.21017 0.50842 0.57521 0.0
H853 H 0.21238 0.5078 0.54312 0.0
C854 C 0.47374 0.19877 0.93517 0.0
C855 C 0.45382 0.18663 0.92602 0.0
C856 C 0.47404 0.19909 0.95358 0.0
C857 C 0.44788 0.16521 0.99223 0.0
H858 H 0.46701 0.22657 0.01751 0.0
C859 C 0.43381 0.17492 0.06713 0.0
C860 C 0.45343 0.18659 0.07684 0.0
C861 C 0.43419 0.17524 0.04875 0.0
C862 C 0.4619 0.2092 0.01065 0.0
H863 H 0.41844 0.16555 0.92909 0.0
H864 H 0.41888 0.16632 0.96111 0.0
H865 H 0.46713 0.22656 0.98539 0.0
H866 H 0.48881 0.2079 0.07479 0.0
H867 H 0.48956 0.20828 0.04269 0.0
H868 H 0.44261 0.14783 0.01744 0.0
C869 C 0.43446 0.17528 0.95408 0.0
C870 C 0.46197 0.20919 0.99224 0.0
C871 C 0.43415 0.17497 0.9357 0.0
C872 C 0.47337 0.19876 0.06772 0.0
C873 C 0.47374 0.1991 0.04932 0.0
C874 C 0.4478 0.16522 0.01061 0.0
C875 C 0.45445 0.18726 0.96325 0.0
C876 C 0.45485 0.18723 0.98281 0.0
C877 C 0.4542 0.18725 0.03961 0.0
C878 C 0.45469 0.18723 0.02005 0.0
H879 H 0.48921 0.2079 0.92812 0.0
H880 H 0.48985 0.20826 0.96024 0.0
H881 H 0.44274 0.14783 0.98538 0.0
H882 H 0.4181 0.16546 0.07371 0.0
H883 H 0.41864 0.16627 0.04168 0.0
C884 C 0.79946 0.474 0.435 0.0
C885 C 0.81186 0.45403 0.42608 0.0
C886 C 0.79851 0.47435 0.4534 0.0
C887 C 0.80467 0.43233 0.49226 0.0
H888 H 0.81673 0.4955 0.51748 0.0
C889 C 0.82346 0.43452 0.5669 0.0
C890 C 0.81208 0.45412 0.57679 0.0
C891 C 0.82243 0.43484 0.54854 0.0
C892 C 0.813 0.47777 0.51063 0.0
H893 H 0.83305 0.41881 0.42954 0.0
H894 H 0.83157 0.41956 0.46154 0.0
H895 H 0.81668 0.49548 0.48536 0.0
H896 H 0.79065 0.48946 0.57509 0.0
H897 H 0.78871 0.48989 0.54299 0.0
H898 H 0.80113 0.41457 0.51749 0.0
C899 C 0.82229 0.43478 0.45433 0.0
C900 C 0.81297 0.47776 0.49222 0.0
C901 C 0.82326 0.43444 0.43597 0.0
C902 C 0.79965 0.47408 0.56787 0.0
C903 C 0.79865 0.47441 0.54947 0.0
C904 C 0.8047 0.43234 0.51064 0.0
C905 C 0.80989 0.45471 0.46327 0.0
C906 C 0.80901 0.45499 0.48283 0.0
C907 C 0.81 0.45476 0.5396 0.0
C908 C 0.80907 0.45501 0.52005 0.0
H909 H 0.79044 0.48936 0.42779 0.0
H910 H 0.78859 0.48984 0.45989 0.0
H911 H 0.80108 0.41455 0.48542 0.0
H912 H 0.83327 0.4189 0.57333 0.0
H913 H 0.8317 0.41961 0.54133 0.0
C914 C 0.52454 0.79904 0.06769 0.0
C915 C 0.54447 0.81135 0.07672 0.0
C916 C 0.52437 0.79813 0.04929 0.0
C917 C 0.56664 0.80435 0.01056 0.0
H918 H 0.50352 0.8166 0.98529 0.0
C919 C 0.56438 0.82287 0.93582 0.0
C920 C 0.54465 0.81156 0.92601 0.0
C921 C 0.56417 0.8219 0.95419 0.0
C922 C 0.52124 0.81282 0.99215 0.0
H923 H 0.57984 0.83237 0.07347 0.0
H924 H 0.5794 0.83098 0.04145 0.0
H925 H 0.50348 0.81654 0.0174 0.0
H926 H 0.50923 0.79026 0.92784 0.0
H927 H 0.50898 0.78842 0.95993 0.0
H928 H 0.58443 0.80077 0.98534 0.0
C929 C 0.56407 0.82174 0.04858 0.0
C930 C 0.52122 0.81279 0.01055 0.0
C931 C 0.56423 0.82267 0.06695 0.0
C932 C 0.5247 0.79923 0.935 0.0
C933 C 0.52448 0.79828 0.95339 0.0
C934 C 0.56666 0.80439 0.99218 0.0
C935 C 0.54414 0.80947 0.03953 0.0
C936 C 0.54396 0.80872 0.01997 0.0
C937 C 0.54422 0.8096 0.9632 0.0
C938 C 0.544 0.80879 0.98275 0.0
H939 H 0.50905 0.79007 0.07481 0.0
H940 H 0.50889 0.7883 0.04273 0.0
H941 H 0.58439 0.80071 0.01741 0.0
H942 H 0.58001 0.83259 0.92933 0.0
H943 H 0.57948 0.83113 0.96134 0.0
C944 C 0.22151 0.35525 0.13476 0.0
C945 C 0.2268 0.38135 0.1326 0.0
C946 C 0.24119 0.33734 0.13473 0.0
C947 C 0.31058 0.32973 0.14081 0.0
H948 H 0.2992 0.26652 0.11547 0.0
C949 C 0.38905 0.25264 0.13076 0.0
C950 C 0.38123 0.22715 0.13283 0.0
C951 C 0.37106 0.27239 0.13067 0.0
C952 C 0.3026 0.28396 0.12274 0.0
H953 H 0.25705 0.40913 0.12895 0.0
H954 H 0.29151 0.3777 0.12877 0.0
H955 H 0.26633 0.29929 0.11544 0.0
H956 H 0.34842 0.2025 0.13679 0.0
H957 H 0.31727 0.23682 0.13678 0.0
H958 H 0.3469 0.31421 0.14815 0.0
C959 C 0.27208 0.37119 0.13063 0.0
C960 C 0.28375 0.30275 0.12273 0.0
C961 C 0.25233 0.38916 0.13065 0.0
C962 C 0.35512 0.22188 0.13505 0.0
C963 C 0.33721 0.24156 0.13494 0.0
C964 C 0.32949 0.31088 0.14082 0.0
C965 C 0.26668 0.34505 0.1325 0.0
C966 C 0.28737 0.32571 0.13194 0.0
C967 C 0.34492 0.26701 0.13259 0.0
C968 C 0.32555 0.28766 0.13196 0.0
H969 H 0.20209 0.34856 0.1364 0.0
H970 H 0.23643 0.3174 0.13652 0.0
H971 H 0.31385 0.34715 0.14814 0.0
H972 H 0.40902 0.25733 0.12902 0.0
H973 H 0.37757 0.2918 0.12873 0.0
C974 C 0.7778 0.35496 0.63414 0.0
C975 C 0.77261 0.38112 0.63226 0.0
C976 C 0.75802 0.33714 0.63395 0.0
C977 C 0.68868 0.32974 0.64027 0.0
H978 H 0.69947 0.26689 0.61438 0.0
C979 C 0.60982 0.25297 0.63041 0.0
C980 C 0.61762 0.22745 0.63231 0.0
C981 C 0.62786 0.27268 0.63021 0.0
C982 C 0.69623 0.28424 0.6218 0.0
H983 H 0.74247 0.4091 0.62894 0.0
H984 H 0.70787 0.37783 0.62852 0.0
H985 H 0.73248 0.29955 0.6144 0.0
H986 H 0.65044 0.2027 0.63583 0.0
H987 H 0.68168 0.23695 0.63564 0.0
H988 H 0.6524 0.31422 0.64773 0.0
C989 C 0.72728 0.3712 0.63026 0.0
C990 C 0.71516 0.30295 0.62182 0.0
C991 C 0.74712 0.38908 0.63043 0.0
C992 C 0.64375 0.22211 0.63424 0.0
C993 C 0.66171 0.24175 0.63402 0.0
C994 C 0.66969 0.31095 0.64025 0.0
C995 C 0.73256 0.345 0.63187 0.0
C996 C 0.71176 0.32577 0.63123 0.0
C997 C 0.65402 0.26723 0.63186 0.0
C998 C 0.67343 0.28786 0.6312 0.0
H999 H 0.79719 0.34816 0.63568 0.0
H1000 H 0.7627 0.31714 0.63554 0.0
H1001 H 0.68558 0.34704 0.64776 0.0
H1002 H 0.58983 0.25773 0.62889 0.0
H1003 H 0.62136 0.29213 0.62843 0.0
C1004 C 0.77696 0.64419 0.13481 0.0
C1005 C 0.77177 0.61808 0.13267 0.0
C1006 C 0.75719 0.66202 0.13473 0.0
C1007 C 0.68777 0.66935 0.14077 0.0
H1008 H 0.69889 0.73255 0.11535 0.0
C1009 C 0.609 0.74615 0.13065 0.0
C1010 C 0.61675 0.77167 0.1327 0.0
C1011 C 0.62705 0.72645 0.13058 0.0
C1012 C 0.69556 0.7151 0.12264 0.0
H1013 H 0.74164 0.59016 0.12902 0.0
H1014 H 0.70706 0.62144 0.12878 0.0
H1015 H 0.73191 0.69992 0.11537 0.0
H1016 H 0.64948 0.79642 0.13662 0.0
H1017 H 0.68074 0.76221 0.13663 0.0
H1018 H 0.65138 0.68474 0.14808 0.0
C1019 C 0.72646 0.62804 0.13064 0.0
C1020 C 0.71449 0.6964 0.12266 0.0
C1021 C 0.74628 0.61015 0.1307 0.0
C1022 C 0.64283 0.77701 0.13491 0.0
C1023 C 0.66081 0.7574 0.13481 0.0
C1024 C 0.66877 0.68812 0.14075 0.0
C1025 C 0.73175 0.6542 0.13249 0.0
C1026 C 0.71097 0.67345 0.1319 0.0
C1027 C 0.65318 0.73192 0.13248 0.0
C1028 C 0.67262 0.71134 0.13186 0.0
H1029 H 0.79634 0.65096 0.13646 0.0
H1030 H 0.76187 0.68199 0.13651 0.0
H1031 H 0.68457 0.65194 0.14811 0.0
H1032 H 0.58905 0.74139 0.12892 0.0
H1033 H 0.62061 0.70702 0.12866 0.0
C1034 C 0.22292 0.64354 0.63362 0.0
C1035 C 0.22812 0.61736 0.63194 0.0
C1036 C 0.24269 0.66136 0.63336 0.0
C1037 C 0.31195 0.66895 0.63988 0.0
H1038 H 0.30124 0.73135 0.61346 0.0
C1039 C 0.39053 0.74606 0.63005 0.0
C1040 C 0.38253 0.77155 0.63179 0.0
C1041 C 0.37263 0.72622 0.62983 0.0
C1042 C 0.30445 0.71413 0.62102 0.0
H1043 H 0.25828 0.58933 0.62891 0.0
H1044 H 0.29289 0.6206 0.62838 0.0
H1045 H 0.26834 0.69858 0.61354 0.0
H1046 H 0.34948 0.7961 0.63496 0.0
H1047 H 0.31849 0.76164 0.63471 0.0
H1048 H 0.34808 0.68473 0.64743 0.0
C1049 C 0.27346 0.62726 0.63001 0.0
C1050 C 0.2856 0.69535 0.62107 0.0
C1051 C 0.25363 0.60937 0.63024 0.0
C1052 C 0.35633 0.77672 0.6335 0.0
C1053 C 0.33851 0.75696 0.63325 0.0
C1054 C 0.33087 0.6878 0.63983 0.0
C1055 C 0.26816 0.65347 0.63141 0.0
C1056 C 0.28895 0.6727 0.63069 0.0
C1057 C 0.34641 0.73151 0.63127 0.0
C1058 C 0.32715 0.71075 0.63059 0.0
H1059 H 0.20352 0.65037 0.63504 0.0
H1060 H 0.23801 0.68138 0.63479 0.0
H1061 H 0.31501 0.65178 0.64751 0.0
H1062 H 0.41058 0.74143 0.6287 0.0
H1063 H 0.37929 0.7068 0.62818 0.0
C1064 C 0.35592 0.77658 0.36937 0.0
C1065 C 0.38212 0.77139 0.37104 0.0
C1066 C 0.33809 0.75683 0.36964 0.0
C1067 C 0.33042 0.68769 0.36301 0.0
H1068 H 0.26794 0.69842 0.38936 0.0
C1069 C 0.25322 0.60923 0.37261 0.0
C1070 C 0.22771 0.61721 0.37093 0.0
C1071 C 0.27305 0.62712 0.37284 0.0
C1072 C 0.28518 0.6952 0.38181 0.0
H1073 H 0.41016 0.74125 0.37408 0.0
H1074 H 0.37885 0.70664 0.37463 0.0
H1075 H 0.30084 0.73119 0.38943 0.0
H1076 H 0.2031 0.65021 0.36786 0.0
H1077 H 0.23757 0.68124 0.36812 0.0
H1078 H 0.31455 0.65167 0.35532 0.0
C1079 C 0.37221 0.72607 0.373 0.0
C1080 C 0.30404 0.71398 0.38186 0.0
C1081 C 0.39011 0.74589 0.37276 0.0
C1082 C 0.2225 0.64339 0.36927 0.0
C1083 C 0.24226 0.66122 0.36953 0.0
C1084 C 0.3115 0.66884 0.36297 0.0
C1085 C 0.34598 0.73137 0.37159 0.0
C1086 C 0.32672 0.71062 0.37227 0.0
C1087 C 0.26774 0.65333 0.37146 0.0
C1088 C 0.28852 0.67257 0.37217 0.0
H1089 H 0.34908 0.79596 0.36792 0.0
H1090 H 0.31807 0.76152 0.3682 0.0
H1091 H 0.34762 0.68462 0.35539 0.0
H1092 H 0.25788 0.58919 0.37391 0.0
H1093 H 0.29248 0.62047 0.37445 0.0
C1094 C 0.38944 0.25287 0.87225 0.0
C1095 C 0.38155 0.22739 0.87022 0.0
C1096 C 0.3715 0.27266 0.87236 0.0
C1097 C 0.30308 0.28438 0.88041 0.0
H1098 H 0.31429 0.34744 0.85486 0.0
C1099 C 0.22195 0.35553 0.86821 0.0
C1100 C 0.22722 0.38164 0.87032 0.0
C1101 C 0.24166 0.33764 0.86829 0.0
C1102 C 0.31103 0.33005 0.86223 0.0
H1103 H 0.34868 0.2028 0.86636 0.0
H1104 H 0.3176 0.23718 0.86641 0.0
H1105 H 0.34733 0.31448 0.85488 0.0
H1106 H 0.25743 0.40947 0.87393 0.0
H1107 H 0.29192 0.37809 0.87419 0.0
H1108 H 0.26683 0.29975 0.88771 0.0
C1109 C 0.33756 0.24189 0.8682 0.0
C1110 C 0.32994 0.31119 0.86224 0.0
C1111 C 0.35543 0.22218 0.86807 0.0
C1112 C 0.25273 0.38949 0.87227 0.0
C1113 C 0.2725 0.37154 0.87234 0.0
C1114 C 0.28424 0.30316 0.8804 0.0
C1115 C 0.34533 0.26732 0.8705 0.0
C1116 C 0.32601 0.28801 0.87115 0.0
C1117 C 0.26713 0.34539 0.87051 0.0
C1118 C 0.28784 0.32608 0.87113 0.0
H1119 H 0.40943 0.25752 0.87394 0.0
H1120 H 0.37805 0.29206 0.87427 0.0
H1121 H 0.29969 0.26696 0.88772 0.0
H1122 H 0.20255 0.34881 0.86657 0.0
H1123 H 0.23693 0.31769 0.86653 0.0
C1124 C 0.64346 0.22195 0.36885 0.0
C1125 C 0.61731 0.22724 0.37069 0.0
C1126 C 0.66138 0.24161 0.36909 0.0
C1127 C 0.66929 0.3108 0.36276 0.0
H1128 H 0.73198 0.29956 0.38876 0.0
C1129 C 0.74672 0.38896 0.37251 0.0
C1130 C 0.77221 0.38097 0.3707 0.0
C1131 C 0.72687 0.37109 0.3727 0.0
C1132 C 0.71468 0.30292 0.38131 0.0
H1133 H 0.58944 0.25748 0.374 0.0
H1134 H 0.62091 0.29194 0.3745 0.0
H1135 H 0.69898 0.26689 0.3888 0.0
H1136 H 0.79676 0.34797 0.36738 0.0
H1137 H 0.76224 0.31698 0.36758 0.0
H1138 H 0.6852 0.34686 0.3552 0.0
C1139 C 0.62745 0.2725 0.37276 0.0
C1140 C 0.69577 0.2842 0.38133 0.0
C1141 C 0.60945 0.25276 0.37254 0.0
C1142 C 0.77737 0.3548 0.36889 0.0
C1143 C 0.75759 0.33699 0.36911 0.0
C1144 C 0.68827 0.32959 0.36273 0.0
C1145 C 0.65363 0.26709 0.37119 0.0
C1146 C 0.673 0.28775 0.37187 0.0
C1147 C 0.73213 0.34489 0.37116 0.0
C1148 C 0.71132 0.32568 0.37182 0.0
H1149 H 0.6502 0.20254 0.3673 0.0
H1150 H 0.68137 0.23685 0.36753 0.0
H1151 H 0.65203 0.31402 0.35523 0.0
H1152 H 0.74209 0.40899 0.37394 0.0
H1153 H 0.70746 0.37776 0.37441 0.0
C1154 C 0.74666 0.61039 0.87215 0.0
C1155 C 0.77216 0.61833 0.87032 0.0
C1156 C 0.72684 0.62828 0.87223 0.0
C1157 C 0.71478 0.69655 0.88052 0.0
H1158 H 0.65197 0.68518 0.85468 0.0
C1159 C 0.64329 0.7773 0.8682 0.0
C1160 C 0.61718 0.77193 0.87022 0.0
C1161 C 0.66126 0.75768 0.86834 0.0
C1162 C 0.66928 0.68848 0.86213 0.0
H1163 H 0.79677 0.65125 0.86682 0.0
H1164 H 0.76231 0.68229 0.86682 0.0
H1165 H 0.68516 0.65237 0.85467 0.0
H1166 H 0.58943 0.74163 0.87371 0.0
H1167 H 0.62098 0.70726 0.87405 0.0
H1168 H 0.6991 0.73262 0.88792 0.0
C1169 C 0.75762 0.6623 0.86846 0.0
C1170 C 0.68827 0.6697 0.86213 0.0
C1171 C 0.77737 0.64447 0.86836 0.0
C1172 C 0.60941 0.7464 0.87213 0.0
C1173 C 0.62745 0.72671 0.87225 0.0
C1174 C 0.69586 0.71526 0.88053 0.0
C1175 C 0.73215 0.65446 0.87055 0.0
C1176 C 0.71137 0.6737 0.87114 0.0
C1177 C 0.6536 0.73219 0.87052 0.0
C1178 C 0.67303 0.71159 0.87116 0.0
H1179 H 0.742 0.59038 0.8737 0.0
H1180 H 0.70742 0.62167 0.87398 0.0
H1181 H 0.73212 0.69998 0.88792 0.0
H1182 H 0.64996 0.79672 0.86659 0.0
H1183 H 0.68122 0.7625 0.86666 0.0
loop_
_geom_bond_atom_site_label_1
_geom_bond_atom_site_label_2
_geom_bond_distance
_geom_bond_site_symmetry_2
_ccdc_geom_bond_type
C0 O2 1.247 . S
C0 O4 1.258 . S
C1 O8 1.247 . S
C1 O9 1.258 . S
O2 C0 1.247 . S
O2 Zn3 2.028 . S
Zn3 O2 2.028 . S
Zn3 O7 2.035 . S
Zn3 O9 2.035 . S
Zn3 O10 2.028 . S
O4 C0 1.258 . S
O4 Zn5 2.035 . S
Zn5 O4 2.035 . S
Zn5 O6 2.028 . S
Zn5 O8 2.028 . S
Zn5 O11 2.035 . S
O6 Zn5 2.028 . S
O6 C12 1.247 . S
O7 Zn3 2.035 . S
O7 C12 1.258 . S
O8 C1 1.247 . S
O8 Zn5 2.028 . S
O9 C1 1.258 . S
O9 Zn3 2.035 . S
O10 Zn3 2.028 . S
O10 C13 1.247 . S
O11 Zn5 2.035 . S
O11 C13 1.258 . S
C12 O6 1.247 . S
C12 O7 1.258 . S
C13 O10 1.247 . S
C13 O11 1.258 . S
C14 O16 1.247 . S
C14 O18 1.258 . S
C15 O22 1.247 . S
C15 O23 1.258 . S
O16 C14 1.247 . S
O16 Zn17 2.028 . S
Zn17 O16 2.028 . S
Zn17 O21 2.035 . S
Zn17 O23 2.035 . S
Zn17 O24 2.028 . S
O18 C14 1.258 . S
O18 Zn19 2.035 . S
Zn19 O18 2.035 . S
Zn19 O20 2.028 . S
Zn19 O22 2.028 . S
Zn19 O25 2.035 . S
O20 Zn19 2.028 . S
O20 C26 1.247 . S
O21 Zn17 2.035 . S
O21 C26 1.258 . S
O22 C15 1.247 . S
O22 Zn19 2.028 . S
O23 C15 1.258 . S
O23 Zn17 2.035 . S
O24 Zn17 2.028 . S
O24 C27 1.247 . S
O25 Zn19 2.035 . S
O25 C27 1.258 . S
C26 O20 1.247 . S
C26 O21 1.258 . S
C27 O24 1.247 . S
C27 O25 1.258 . S
C28 O30 1.247 . S
C28 O32 1.258 . S
C29 O36 1.247 . S
C29 O37 1.258 . S
O30 C28 1.247 . S
O30 Zn31 2.028 . S
Zn31 O30 2.028 . S
Zn31 O35 2.035 . S
Zn31 O37 2.035 . S
Zn31 O38 2.028 . S
O32 C28 1.258 . S
O32 Zn33 2.035 . S
Zn33 O32 2.035 . S
Zn33 O34 2.028 . S
Zn33 O36 2.028 . S
Zn33 O39 2.035 . S
O34 Zn33 2.028 . S
O34 C40 1.247 . S
O35 Zn31 2.035 . S
O35 C40 1.258 . S
O36 C29 1.247 . S
O36 Zn33 2.028 . S
O37 C29 1.258 . S
O37 Zn31 2.035 . S
O38 Zn31 2.028 . S
O38 C41 1.247 . S
O39 Zn33 2.035 . S
O39 C41 1.258 . S
C40 O34 1.247 . S
C40 O35 1.258 . S
C41 O38 1.247 . S
C41 O39 1.258 . S
C42 O44 1.247 . S
C42 O46 1.258 . S
C43 O50 1.247 . S
C43 O51 1.258 . S
O44 C42 1.247 . S
O44 Zn45 2.028 . S
Zn45 O44 2.028 . S
Zn45 O49 2.035 . S
Zn45 O51 2.035 . S
Zn45 O52 2.028 . S
O46 C42 1.258 . S
O46 Zn47 2.035 . S
Zn47 O46 2.035 . S
Zn47 O48 2.028 . S
Zn47 O50 2.028 . S
Zn47 O53 2.035 . S
O48 Zn47 2.028 . S
O48 C54 1.247 . S
O49 Zn45 2.035 . S
O49 C54 1.258 . S
O50 C43 1.247 . S
O50 Zn47 2.028 . S
O51 C43 1.258 . S
O51 Zn45 2.035 . S
O52 Zn45 2.028 . S
O52 C55 1.247 . S
O53 Zn47 2.035 . S
O53 C55 1.258 . S
C54 O48 1.247 . S
C54 O49 1.258 . S
C55 O52 1.247 . S
C55 O53 1.258 . S
C56 O58 1.247 . S
C56 O60 1.258 . S
C57 O64 1.247 . S
C57 O65 1.258 . S
O58 C56 1.247 . S
O58 Zn59 2.028 . S
Zn59 O58 2.028 . S
Zn59 O63 2.035 . S
Zn59 O65 2.035 . S
Zn59 O66 2.028 . S
O60 C56 1.258 . S
O60 Zn61 2.035 . S
Zn61 O60 2.035 . S
Zn61 O62 2.028 . S
Zn61 O64 2.028 . S
Zn61 O67 2.035 . S
O62 Zn61 2.028 . S
O62 C68 1.247 . S
O63 Zn59 2.035 . S
O63 C68 1.258 . S
O64 C57 1.247 . S
O64 Zn61 2.028 . S
O65 C57 1.258 . S
O65 Zn59 2.035 . S
O66 Zn59 2.028 . S
O66 C69 1.247 . S
O67 Zn61 2.035 . S
O67 C69 1.258 . S
C68 O62 1.247 . S
C68 O63 1.258 . S
C69 O66 1.247 . S
C69 O67 1.258 . S
C70 O72 1.247 . S
C70 O74 1.258 . S
C71 O78 1.247 . S
C71 O79 1.258 . S
O72 C70 1.247 . S
O72 Zn73 2.028 . S
Zn73 O72 2.028 . S
Zn73 O77 2.035 . S
Zn73 O79 2.035 . S
Zn73 O80 2.028 . S
O74 C70 1.258 . S
O74 Zn75 2.035 . S
Zn75 O74 2.035 . S
Zn75 O76 2.028 . S
Zn75 O78 2.028 . S
Zn75 O81 2.035 . S
O76 Zn75 2.028 . S
O76 C82 1.247 . S
O77 Zn73 2.035 . S
O77 C82 1.258 . S
O78 C71 1.247 . S
O78 Zn75 2.028 . S
O79 C71 1.258 . S
O79 Zn73 2.035 . S
O80 Zn73 2.028 . S
O80 C83 1.247 . S
O81 Zn75 2.035 . S
O81 C83 1.258 . S
C82 O76 1.247 . S
C82 O77 1.258 . S
C83 O80 1.247 . S
C83 O81 1.258 . S
C84 O86 1.247 . S
C84 O88 1.258 . S
C85 O92 1.247 . S
C85 O93 1.258 . S
O86 C84 1.247 . S
O86 Zn87 2.028 . S
Zn87 O86 2.028 . S
Zn87 O91 2.035 . S
Zn87 O93 2.035 . S
Zn87 O94 2.028 . S
O88 C84 1.258 . S
O88 Zn89 2.035 . S
Zn89 O88 2.035 . S
Zn89 O90 2.028 . S
Zn89 O92 2.028 . S
Zn89 O95 2.035 . S
O90 Zn89 2.028 . S
O90 C96 1.247 . S
O91 Zn87 2.035 . S
O91 C96 1.258 . S
O92 C85 1.247 . S
O92 Zn89 2.028 . S
O93 C85 1.258 . S
O93 Zn87 2.035 . S
O94 Zn87 2.028 . S
O94 C97 1.247 . S
O95 Zn89 2.035 . S
O95 C97 1.258 . S
C96 O90 1.247 . S
C96 O91 1.258 . S
C97 O94 1.247 . S
C97 O95 1.258 . S
C98 O100 1.247 . S
C98 O102 1.258 . S
C99 O106 1.247 . S
C99 O107 1.258 . S
O100 C98 1.247 . S
O100 Zn101 2.028 . S
Zn101 O100 2.028 . S
Zn101 O105 2.035 . S
Zn101 O107 2.035 . S
Zn101 O108 2.028 . S
O102 C98 1.258 . S
O102 Zn103 2.035 . S
Zn103 O102 2.035 . S
Zn103 O104 2.028 . S
Zn103 O106 2.028 . S
Zn103 O109 2.035 . S
O104 Zn103 2.028 . S
O104 C110 1.247 . S
O105 Zn101 2.035 . S
O105 C110 1.258 . S
O106 C99 1.247 . S
O106 Zn103 2.028 . S
O107 C99 1.258 . S
O107 Zn101 2.035 . S
O108 Zn101 2.028 . S
O108 C111 1.247 . S
O109 Zn103 2.035 . S
O109 C111 1.258 . S
C110 O104 1.247 . S
C110 O105 1.258 . S
C111 O108 1.247 . S
C111 O109 1.258 . S
C112 O114 1.247 . S
C112 O116 1.258 . S
C113 O120 1.247 . S
C113 O121 1.258 . S
O114 C112 1.247 . S
O114 Zn115 2.028 . S
Zn115 O114 2.028 . S
Zn115 O119 2.035 . S
Zn115 O121 2.035 . S
Zn115 O122 2.028 . S
O116 C112 1.258 . S
O116 Zn117 2.035 . S
Zn117 O116 2.035 . S
Zn117 O118 2.028 . S
Zn117 O120 2.028 . S
Zn117 O123 2.035 . S
O118 Zn117 2.028 . S
O118 C124 1.247 . S
O119 Zn115 2.035 . S
O119 C124 1.258 . S
O120 C113 1.247 . S
O120 Zn117 2.028 . S
O121 C113 1.258 . S
O121 Zn115 2.035 . S
O122 Zn115 2.028 . S
O122 C125 1.247 . S
O123 Zn117 2.035 . S
O123 C125 1.258 . S
C124 O118 1.247 . S
C124 O119 1.258 . S
C125 O122 1.247 . S
C125 O123 1.258 . S
C126 O128 1.247 . S
C126 O130 1.258 . S
C127 O134 1.247 . S
C127 O135 1.258 . S
O128 C126 1.247 . S
O128 Zn129 2.028 . S
Zn129 O128 2.028 . S
Zn129 O133 2.035 . S
Zn129 O135 2.035 . S
Zn129 O136 2.028 . S
O130 C126 1.258 . S
O130 Zn131 2.035 . S
Zn131 O130 2.035 . S
Zn131 O132 2.028 . S
Zn131 O134 2.028 . S
Zn131 O137 2.035 . S
O132 Zn131 2.028 . S
O132 C138 1.247 . S
O133 Zn129 2.035 . S
O133 C138 1.258 . S
O134 C127 1.247 . S
O134 Zn131 2.028 . S
O135 C127 1.258 . S
O135 Zn129 2.035 . S
O136 Zn129 2.028 . S
O136 C139 1.247 . S
O137 Zn131 2.035 . S
O137 C139 1.258 . S
C138 O132 1.247 . S
C138 O133 1.258 . S
C139 O136 1.247 . S
C139 O137 1.258 . S
C140 O142 1.247 . S
C140 O144 1.258 . S
C141 O148 1.247 . S
C141 O149 1.258 . S
O142 C140 1.247 . S
O142 Zn143 2.028 . S
Zn143 O142 2.028 . S
Zn143 O147 2.035 . S
Zn143 O149 2.035 . S
Zn143 O150 2.028 . S
O144 C140 1.258 . S
O144 Zn145 2.035 . S
Zn145 O144 2.035 . S
Zn145 O146 2.028 . S
Zn145 O148 2.028 . S
Zn145 O151 2.035 . S
O146 Zn145 2.028 . S
O146 C152 1.247 . S
O147 Zn143 2.035 . S
O147 C152 1.258 . S
O148 C141 1.247 . S
O148 Zn145 2.028 . S
O149 C141 1.258 . S
O149 Zn143 2.035 . S
O150 Zn143 2.028 . S
O150 C153 1.247 . S
O151 Zn145 2.035 . S
O151 C153 1.258 . S
C152 O146 1.247 . S
C152 O147 1.258 . S
C153 O150 1.247 . S
C153 O151 1.258 . S
C154 O156 1.247 . S
C154 O158 1.258 . S
C155 O162 1.247 . S
C155 O163 1.258 . S
O156 C154 1.247 . S
O156 Zn157 2.028 . S
Zn157 O156 2.028 . S
Zn157 O161 2.035 . S
Zn157 O163 2.035 . S
Zn157 O164 2.028 . S
O158 C154 1.258 . S
O158 Zn159 2.035 . S
Zn159 O158 2.035 . S
Zn159 O160 2.028 . S
Zn159 O162 2.028 . S
Zn159 O165 2.035 . S
O160 Zn159 2.028 . S
O160 C166 1.247 . S
O161 Zn157 2.035 . S
O161 C166 1.258 . S
O162 C155 1.247 . S
O162 Zn159 2.028 . S
O163 C155 1.258 . S
O163 Zn157 2.035 . S
O164 Zn157 2.028 . S
O164 C167 1.247 . S
O165 Zn159 2.035 . S
O165 C167 1.258 . S
C166 O160 1.247 . S
C166 O161 1.258 . S
C167 O164 1.247 . S
C167 O165 1.258 . S
C168 O170 1.247 . S
C168 O172 1.258 . S
C169 O176 1.247 . S
C169 O177 1.258 . S
O170 C168 1.247 . S
O170 Zn171 2.028 . S
Zn171 O170 2.028 . S
Zn171 O175 2.035 . S
Zn171 O177 2.035 . S
Zn171 O178 2.028 . S
O172 C168 1.258 . S
O172 Zn173 2.035 . S
Zn173 O172 2.035 . S
Zn173 O174 2.028 . S
Zn173 O176 2.028 . S
Zn173 O179 2.035 . S
O174 Zn173 2.028 . S
O174 C180 1.247 . S
O175 Zn171 2.035 . S
O175 C180 1.258 . S
O176 C169 1.247 . S
O176 Zn173 2.028 . S
O177 C169 1.258 . S
O177 Zn171 2.035 . S
O178 Zn171 2.028 . S
O178 C181 1.247 . S
O179 Zn173 2.035 . S
O179 C181 1.258 . S
C180 O174 1.247 . S
C180 O175 1.258 . S
C181 O178 1.247 . S
C181 O179 1.258 . S
C182 O184 1.247 . S
C182 O186 1.258 . S
C183 O190 1.247 . S
C183 O191 1.258 . S
O184 C182 1.247 . S
O184 Zn185 2.028 . S
Zn185 O184 2.028 . S
Zn185 O189 2.035 . S
Zn185 O191 2.035 . S
Zn185 O192 2.028 . S
O186 C182 1.258 . S
O186 Zn187 2.035 . S
Zn187 O186 2.035 . S
Zn187 O188 2.028 . S
Zn187 O190 2.028 . S
Zn187 O193 2.035 . S
O188 Zn187 2.028 . S
O188 C194 1.247 . S
O189 Zn185 2.035 . S
O189 C194 1.258 . S
O190 C183 1.247 . S
O190 Zn187 2.028 . S
O191 C183 1.258 . S
O191 Zn185 2.035 . S
O192 Zn185 2.028 . S
O192 C195 1.247 . S
O193 Zn187 2.035 . S
O193 C195 1.258 . S
C194 O188 1.247 . S
C194 O189 1.258 . S
C195 O192 1.247 . S
C195 O193 1.258 . S
C196 O198 1.247 . S
C196 O200 1.258 . S
C197 O204 1.247 . S
C197 O205 1.258 . S
O198 C196 1.247 . S
O198 Zn199 2.028 . S
Zn199 O198 2.028 . S
Zn199 O203 2.035 . S
Zn199 O205 2.035 . S
Zn199 O206 2.028 . S
O200 C196 1.258 . S
O200 Zn201 2.035 . S
Zn201 O200 2.035 . S
Zn201 O202 2.028 . S
Zn201 O204 2.028 . S
Zn201 O207 2.035 . S
O202 Zn201 2.028 . S
O202 C208 1.247 . S
O203 Zn199 2.035 . S
O203 C208 1.258 . S
O204 C197 1.247 . S
O204 Zn201 2.028 . S
O205 C197 1.258 . S
O205 Zn199 2.035 . S
O206 Zn199 2.028 . S
O206 C209 1.247 . S
O207 Zn201 2.035 . S
O207 C209 1.258 . S
C208 O202 1.247 . S
C208 O203 1.258 . S
C209 O206 1.247 . S
C209 O207 1.258 . S
C210 O212 1.247 . S
C210 O214 1.258 . S
C211 O218 1.247 . S
C211 O219 1.258 . S
O212 C210 1.247 . S
O212 Zn213 2.028 . S
Zn213 O212 2.028 . S
Zn213 O217 2.035 . S
Zn213 O219 2.035 . S
Zn213 O220 2.028 . S
O214 C210 1.258 . S
O214 Zn215 2.035 . S
Zn215 O214 2.035 . S
Zn215 O216 2.028 . S
Zn215 O218 2.028 . S
Zn215 O221 2.035 . S
O216 Zn215 2.028 . S
O216 C222 1.247 . S
O217 Zn213 2.035 . S
O217 C222 1.258 . S
O218 C211 1.247 . S
O218 Zn215 2.028 . S
O219 C211 1.258 . S
O219 Zn213 2.035 . S
O220 Zn213 2.028 . S
O220 C223 1.247 . S
O221 Zn215 2.035 . S
O221 C223 1.258 . S
C222 O216 1.247 . S
C222 O217 1.258 . S
C223 O220 1.247 . S
C223 O221 1.258 . S
C224 C225 1.349 . S
C224 C226 1.327 . S
C224 H249 0.950 . S
C225 C224 1.349 . S
C225 C241 1.349 . S
C226 C224 1.327 . S
C226 C245 1.429 . S
C226 H250 0.950 . S
C227 C244 1.574 1_455 S
C227 C246 1.368 . S
C227 H251 0.949 . S
H228 C232 0.949 . S
C229 C230 1.349 . S
C229 C231 1.327 . S
C229 H252 0.950 . S
C230 C229 1.349 . S
C230 C242 1.349 . S
C231 C229 1.327 . S
C231 C247 1.429 . S
C231 H253 0.950 . S
C232 H228 0.949 . S
C232 C240 1.574 1_655 S
C232 C248 1.368 . S
H233 C241 0.950 . S
H234 C239 0.950 . S
H235 C240 0.949 . S
H236 C242 0.950 . S
H237 C243 0.950 . S
H238 C244 0.949 . S
C239 H234 0.950 . S
C239 C241 1.327 . S
C239 C245 1.429 . S
C240 C232 1.574 1_455 S
C240 H235 0.949 . S
C240 C246 1.368 . S
C241 C225 1.349 . S
C241 H233 0.950 . S
C241 C239 1.327 . S
C242 C230 1.349 . S
C242 H236 0.950 . S
C242 C243 1.327 . S
C243 H237 0.950 . S
C243 C242 1.327 . S
C243 C247 1.429 . S
C244 C227 1.574 1_655 S
C244 H238 0.949 . S
C244 C248 1.368 . S
C245 C226 1.429 . S
C245 C239 1.429 . S
C245 C246 1.523 . S
C246 C227 1.368 . S
C246 C240 1.368 . S
C246 C245 1.523 . S
C247 C231 1.429 . S
C247 C243 1.429 . S
C247 C248 1.523 . S
C248 C232 1.368 . S
C248 C244 1.368 . S
C248 C247 1.523 . S
H249 C224 0.950 . S
H250 C226 0.950 . S
H251 C227 0.949 . S
H252 C229 0.950 . S
H253 C231 0.950 . S
C254 C255 1.349 . S
C254 C256 1.327 . S
C254 H279 0.950 . S
C255 C254 1.349 . S
C255 C271 1.349 . S
C256 C254 1.327 . S
C256 C275 1.429 . S
C256 H280 0.950 . S
C257 C274 1.574 1_565 S
C257 C276 1.368 . S
C257 H281 0.949 . S
H258 C262 0.949 . S
C259 C260 1.349 . S
C259 C261 1.327 . S
C259 H282 0.950 . S
C260 C259 1.349 . S
C260 C272 1.349 . S
C261 C259 1.327 . S
C261 C277 1.429 . S
C261 H283 0.950 . S
C262 H258 0.949 . S
C262 C270 1.574 1_545 S
C262 C278 1.368 . S
H263 C271 0.950 . S
H264 C269 0.950 . S
H265 C270 0.949 . S
H266 C272 0.950 . S
H267 C273 0.950 . S
H268 C274 0.949 . S
C269 H264 0.950 . S
C269 C271 1.327 . S
C269 C275 1.429 . S
C270 C262 1.574 1_565 S
C270 H265 0.949 . S
C270 C276 1.368 . S
C271 C255 1.349 . S
C271 H263 0.950 . S
C271 C269 1.327 . S
C272 C260 1.349 . S
C272 H266 0.950 . S
C272 C273 1.327 . S
C273 H267 0.950 . S
C273 C272 1.327 . S
C273 C277 1.429 . S
C274 C257 1.574 1_545 S
C274 H268 0.949 . S
C274 C278 1.368 . S
C275 C256 1.429 . S
C275 C269 1.429 . S
C275 C276 1.523 . S
C276 C257 1.368 . S
C276 C270 1.368 . S
C276 C275 1.523 . S
C277 C261 1.429 . S
C277 C273 1.429 . S
C277 C278 1.523 . S
C278 C262 1.368 . S
C278 C274 1.368 . S
C278 C277 1.523 . S
H279 C254 0.950 . S
H280 C256 0.950 . S
H281 C257 0.949 . S
H282 C259 0.950 . S
H283 C261 0.950 . S
C284 C285 1.349 . S
C284 C286 1.327 . S
C284 H309 0.950 . S
C285 C284 1.349 . S
C285 C301 1.349 . S
C286 C284 1.327 . S
C286 C305 1.429 . S
C286 H310 0.950 . S
C287 C304 1.574 1_455 S
C287 C306 1.368 . S
C287 H311 0.949 . S
H288 C292 0.949 . S
C289 C290 1.349 . S
C289 C291 1.327 . S
C289 H312 0.950 . S
C290 C289 1.349 . S
C290 C302 1.349 . S
C291 C289 1.327 . S
C291 C307 1.429 . S
C291 H313 0.950 . S
C292 H288 0.949 . S
C292 C300 1.574 1_655 S
C292 C308 1.368 . S
H293 C301 0.950 . S
H294 C299 0.950 . S
H295 C300 0.949 . S
H296 C302 0.950 . S
H297 C303 0.950 . S
H298 C304 0.949 . S
C299 H294 0.950 . S
C299 C301 1.327 . S
C299 C305 1.429 . S
C300 C292 1.574 1_455 S
C300 H295 0.949 . S
C300 C306 1.368 . S
C301 C285 1.349 . S
C301 H293 0.950 . S
C301 C299 1.327 . S
C302 C290 1.349 . S
C302 H296 0.950 . S
C302 C303 1.327 . S
C303 H297 0.950 . S
C303 C302 1.327 . S
C303 C307 1.429 . S
C304 C287 1.574 1_655 S
C304 H298 0.949 . S
C304 C308 1.368 . S
C305 C286 1.429 . S
C305 C299 1.429 . S
C305 C306 1.523 . S
C306 C287 1.368 . S
C306 C300 1.368 . S
C306 C305 1.523 . S
C307 C291 1.429 . S
C307 C303 1.429 . S
C307 C308 1.523 . S
C308 C292 1.368 . S
C308 C304 1.368 . S
C308 C307 1.523 . S
H309 C284 0.950 . S
H310 C286 0.950 . S
H311 C287 0.949 . S
H312 C289 0.950 . S
H313 C291 0.950 . S
C314 C315 1.349 . S
C314 C316 1.327 . S
C314 H339 0.950 . S
C315 C314 1.349 . S
C315 C331 1.349 . S
C316 C314 1.327 . S
C316 C335 1.429 . S
C316 H340 0.950 . S
C317 C334 1.574 1_565 S
C317 C336 1.368 . S
C317 H341 0.949 . S
H318 C322 0.949 . S
C319 C320 1.349 . S
C319 C321 1.327 . S
C319 H342 0.950 . S
C320 C319 1.349 . S
C320 C332 1.349 . S
C321 C319 1.327 . S
C321 C337 1.429 . S
C321 H343 0.950 . S
C322 H318 0.949 . S
C322 C330 1.574 1_545 S
C322 C338 1.368 . S
H323 C331 0.950 . S
H324 C329 0.950 . S
H325 C330 0.949 . S
H326 C332 0.950 . S
H327 C333 0.950 . S
H328 C334 0.949 . S
C329 H324 0.950 . S
C329 C331 1.327 . S
C329 C335 1.429 . S
C330 C322 1.574 1_565 S
C330 H325 0.949 . S
C330 C336 1.368 . S
C331 C315 1.349 . S
C331 H323 0.950 . S
C331 C329 1.327 . S
C332 C320 1.349 . S
C332 H326 0.950 . S
C332 C333 1.327 . S
C333 H327 0.950 . S
C333 C332 1.327 . S
C333 C337 1.429 . S
C334 C317 1.574 1_545 S
C334 H328 0.949 . S
C334 C338 1.368 . S
C335 C316 1.429 . S
C335 C329 1.429 . S
C335 C336 1.523 . S
C336 C317 1.368 . S
C336 C330 1.368 . S
C336 C335 1.523 . S
C337 C321 1.429 . S
C337 C333 1.429 . S
C337 C338 1.523 . S
C338 C322 1.368 . S
C338 C334 1.368 . S
C338 C337 1.523 . S
H339 C314 0.950 . S
H340 C316 0.950 . S
H341 C317 0.949 . S
H342 C319 0.950 . S
H343 C321 0.950 . S
C344 C345 1.349 . S
C344 C346 1.327 . S
C344 H369 0.950 . S
C345 C344 1.349 . S
C345 C361 1.349 . S
C346 C344 1.327 . S
C346 C365 1.429 . S
C346 H370 0.950 . S
C347 C364 1.574 1_655 S
C347 C366 1.368 . S
C347 H371 0.949 . S
H348 C352 0.949 . S
C349 C350 1.349 . S
C349 C351 1.327 . S
C349 H372 0.950 . S
C350 C349 1.349 . S
C350 C362 1.349 . S
C351 C349 1.327 . S
C351 C367 1.429 . S
C351 H373 0.950 . S
C352 H348 0.949 . S
C352 C360 1.574 1_455 S
C352 C368 1.368 . S
H353 C361 0.950 . S
H354 C359 0.950 . S
H355 C360 0.949 . S
H356 C362 0.950 . S
H357 C363 0.950 . S
H358 C364 0.949 . S
C359 H354 0.950 . S
C359 C361 1.327 . S
C359 C365 1.429 . S
C360 C352 1.574 1_655 S
C360 H355 0.949 . S
C360 C366 1.368 . S
C361 C345 1.349 . S
C361 H353 0.950 . S
C361 C359 1.327 . S
C362 C350 1.349 . S
C362 H356 0.950 . S
C362 C363 1.327 . S
C363 H357 0.950 . S
C363 C362 1.327 . S
C363 C367 1.429 . S
C364 C347 1.574 1_455 S
C364 H358 0.949 . S
C364 C368 1.368 . S
C365 C346 1.429 . S
C365 C359 1.429 . S
C365 C366 1.523 . S
C366 C347 1.368 . S
C366 C360 1.368 . S
C366 C365 1.523 . S
C367 C351 1.429 . S
C367 C363 1.429 . S
C367 C368 1.523 . S
C368 C352 1.368 . S
C368 C364 1.368 . S
C368 C367 1.523 . S
H369 C344 0.950 . S
H370 C346 0.950 . S
H371 C347 0.949 . S
H372 C349 0.950 . S
H373 C351 0.950 . S
C374 C375 1.349 . S
C374 C376 1.327 . S
C374 H399 0.950 . S
C375 C374 1.349 . S
C375 C391 1.349 . S
C376 C374 1.327 . S
C376 C395 1.429 . S
C376 H400 0.950 . S
C377 C394 1.574 1_545 S
C377 C396 1.368 . S
C377 H401 0.949 . S
H378 C382 0.949 . S
C379 C380 1.349 . S
C379 C381 1.327 . S
C379 H402 0.950 . S
C380 C379 1.349 . S
C380 C392 1.349 . S
C381 C379 1.327 . S
C381 C397 1.429 . S
C381 H403 0.950 . S
C382 H378 0.949 . S
C382 C390 1.574 1_565 S
C382 C398 1.368 . S
H383 C391 0.950 . S
H384 C389 0.950 . S
H385 C390 0.949 . S
H386 C392 0.950 . S
H387 C393 0.950 . S
H388 C394 0.949 . S
C389 H384 0.950 . S
C389 C391 1.327 . S
C389 C395 1.429 . S
C390 C382 1.574 1_545 S
C390 H385 0.949 . S
C390 C396 1.368 . S
C391 C375 1.349 . S
C391 H383 0.950 . S
C391 C389 1.327 . S
C392 C380 1.349 . S
C392 H386 0.950 . S
C392 C393 1.327 . S
C393 H387 0.950 . S
C393 C392 1.327 . S
C393 C397 1.429 . S
C394 C377 1.574 1_565 S
C394 H388 0.949 . S
C394 C398 1.368 . S
C395 C376 1.429 . S
C395 C389 1.429 . S
C395 C396 1.523 . S
C396 C377 1.368 . S
C396 C390 1.368 . S
C396 C395 1.523 . S
C397 C381 1.429 . S
C397 C393 1.429 . S
C397 C398 1.523 . S
C398 C382 1.368 . S
C398 C394 1.368 . S
C398 C397 1.523 . S
H399 C374 0.950 . S
H400 C376 0.950 . S
H401 C377 0.949 . S
H402 C379 0.950 . S
H403 C381 0.950 . S
C404 C405 1.349 . S
C404 C406 1.327 . S
C404 H429 0.950 . S
C405 C404 1.349 . S
C405 C421 1.349 . S
C406 C404 1.327 . S
C406 C425 1.429 . S
C406 H430 0.950 . S
C407 C424 1.574 1_655 S
C407 C426 1.368 . S
C407 H431 0.949 . S
H408 C412 0.949 . S
C409 C410 1.349 . S
C409 C411 1.327 . S
C409 H432 0.950 . S
C410 C409 1.349 . S
C410 C422 1.349 . S
C411 C409 1.327 . S
C411 C427 1.429 . S
C411 H433 0.950 . S
C412 H408 0.949 . S
C412 C420 1.574 1_455 S
C412 C428 1.368 . S
H413 C421 0.950 . S
H414 C419 0.950 . S
H415 C420 0.949 . S
H416 C422 0.950 . S
H417 C423 0.950 . S
H418 C424 0.949 . S
C419 H414 0.950 . S
C419 C421 1.327 . S
C419 C425 1.429 . S
C420 C412 1.574 1_655 S
C420 H415 0.949 . S
C420 C426 1.368 . S
C421 C405 1.349 . S
C421 H413 0.950 . S
C421 C419 1.327 . S
C422 C410 1.349 . S
C422 H416 0.950 . S
C422 C423 1.327 . S
C423 H417 0.950 . S
C423 C422 1.327 . S
C423 C427 1.429 . S
C424 C407 1.574 1_455 S
C424 H418 0.949 . S
C424 C428 1.368 . S
C425 C406 1.429 . S
C425 C419 1.429 . S
C425 C426 1.523 . S
C426 C407 1.368 . S
C426 C420 1.368 . S
C426 C425 1.523 . S
C427 C411 1.429 . S
C427 C423 1.429 . S
C427 C428 1.523 . S
C428 C412 1.368 . S
C428 C424 1.368 . S
C428 C427 1.523 . S
H429 C404 0.950 . S
H430 C406 0.950 . S
H431 C407 0.949 . S
H432 C409 0.950 . S
H433 C411 0.950 . S
C434 C435 1.349 . S
C434 C436 1.327 . S
C434 H459 0.950 . S
C435 C434 1.349 . S
C435 C451 1.349 . S
C436 C434 1.327 . S
C436 C455 1.429 . S
C436 H460 0.950 . S
C437 C454 1.574 1_545 S
C437 C456 1.368 . S
C437 H461 0.949 . S
H438 C442 0.949 . S
C439 C440 1.349 . S
C439 C441 1.327 . S
C439 H462 0.950 . S
C440 C439 1.349 . S
C440 C452 1.349 . S
C441 C439 1.327 . S
C441 C457 1.429 . S
C441 H463 0.950 . S
C442 H438 0.949 . S
C442 C450 1.574 1_565 S
C442 C458 1.368 . S
H443 C451 0.950 . S
H444 C449 0.950 . S
H445 C450 0.949 . S
H446 C452 0.950 . S
H447 C453 0.950 . S
H448 C454 0.949 . S
C449 H444 0.950 . S
C449 C451 1.327 . S
C449 C455 1.429 . S
C450 C442 1.574 1_545 S
C450 H445 0.949 . S
C450 C456 1.368 . S
C451 C435 1.349 . S
C451 H443 0.950 . S
C451 C449 1.327 . S
C452 C440 1.349 . S
C452 H446 0.950 . S
C452 C453 1.327 . S
C453 H447 0.950 . S
C453 C452 1.327 . S
C453 C457 1.429 . S
C454 C437 1.574 1_565 S
C454 H448 0.949 . S
C454 C458 1.368 . S
C455 C436 1.429 . S
C455 C449 1.429 . S
C455 C456 1.523 . S
C456 C437 1.368 . S
C456 C450 1.368 . S
C456 C455 1.523 . S
C457 C441 1.429 . S
C457 C453 1.429 . S
C457 C458 1.523 . S
C458 C442 1.368 . S
C458 C454 1.368 . S
C458 C457 1.523 . S
H459 C434 0.950 . S
H460 C436 0.950 . S
H461 C437 0.949 . S
H462 C439 0.950 . S
H463 C441 0.950 . S
C464 C465 1.349 . S
C464 C466 1.327 . S
C464 H489 0.950 . S
C465 C464 1.349 . S
C465 C481 1.349 . S
C466 C464 1.327 . S
C466 C485 1.429 . S
C466 H490 0.950 . S
C467 C484 1.574 . S
C467 C486 1.368 . S
C467 H491 0.949 . S
H468 C472 0.949 . S
C469 C470 1.349 . S
C469 C471 1.327 . S
C469 H492 0.950 . S
C470 C469 1.349 . S
C470 C482 1.349 . S
C471 C469 1.327 . S
C471 C487 1.429 . S
C471 H493 0.950 . S
C472 H468 0.949 . S
C472 C480 1.574 . S
C472 C488 1.368 . S
H473 C481 0.950 . S
H474 C479 0.950 . S
H475 C480 0.949 . S
H476 C482 0.950 . S
H477 C483 0.950 . S
H478 C484 0.949 . S
C479 H474 0.950 . S
C479 C481 1.327 . S
C479 C485 1.429 . S
C480 C472 1.574 . S
C480 H475 0.949 . S
C480 C486 1.368 . S
C481 C465 1.349 . S
C481 H473 0.950 . S
C481 C479 1.327 . S
C482 C470 1.349 . S
C482 H476 0.950 . S
C482 C483 1.327 . S
C483 H477 0.950 . S
C483 C482 1.327 . S
C483 C487 1.429 . S
C484 C467 1.574 . S
C484 H478 0.949 . S
C484 C488 1.368 . S
C485 C466 1.429 . S
C485 C479 1.429 . S
C485 C486 1.523 . S
C486 C467 1.368 . S
C486 C480 1.368 . S
C486 C485 1.523 . S
C487 C471 1.429 . S
C487 C483 1.429 . S
C487 C488 1.523 . S
C488 C472 1.368 . S
C488 C484 1.368 . S
C488 C487 1.523 . S
H489 C464 0.950 . S
H490 C466 0.950 . S
H491 C467 0.949 . S
H492 C469 0.950 . S
H493 C471 0.950 . S
C494 C495 1.349 . S
C494 C496 1.327 . S
C494 H519 0.950 . S
C495 C494 1.349 . S
C495 C511 1.349 . S
C496 C494 1.327 . S
C496 C515 1.429 . S
C496 H520 0.950 . S
C497 C514 1.574 . S
C497 C516 1.368 . S
C497 H521 0.949 . S
H498 C502 0.949 . S
C499 C500 1.349 . S
C499 C501 1.327 . S
C499 H522 0.950 . S
C500 C499 1.349 . S
C500 C512 1.349 . S
C501 C499 1.327 . S
C501 C517 1.429 . S
C501 H523 0.950 . S
C502 H498 0.949 . S
C502 C510 1.574 . S
C502 C518 1.368 . S
H503 C511 0.950 . S
H504 C509 0.950 . S
H505 C510 0.949 . S
H506 C512 0.950 . S
H507 C513 0.950 . S
H508 C514 0.949 . S
C509 H504 0.950 . S
C509 C511 1.327 . S
C509 C515 1.429 . S
C510 C502 1.574 . S
C510 H505 0.949 . S
C510 C516 1.368 . S
C511 C495 1.349 . S
C511 H503 0.950 . S
C511 C509 1.327 . S
C512 C500 1.349 . S
C512 H506 0.950 . S
C512 C513 1.327 . S
C513 H507 0.950 . S
C513 C512 1.327 . S
C513 C517 1.429 . S
C514 C497 1.574 . S
C514 H508 0.949 . S
C514 C518 1.368 . S
C515 C496 1.429 . S
C515 C509 1.429 . S
C515 C516 1.523 . S
C516 C497 1.368 . S
C516 C510 1.368 . S
C516 C515 1.523 . S
C517 C501 1.429 . S
C517 C513 1.429 . S
C517 C518 1.523 . S
C518 C502 1.368 . S
C518 C514 1.368 . S
C518 C517 1.523 . S
H519 C494 0.950 . S
H520 C496 0.950 . S
H521 C497 0.949 . S
H522 C499 0.950 . S
H523 C501 0.950 . S
C524 C525 1.349 . S
C524 C526 1.327 . S
C524 H549 0.950 . S
C525 C524 1.349 . S
C525 C541 1.349 . S
C526 C524 1.327 . S
C526 C545 1.429 . S
C526 H550 0.950 . S
C527 C544 1.574 . S
C527 C546 1.368 . S
C527 H551 0.949 . S
H528 C532 0.949 . S
C529 C530 1.349 . S
C529 C531 1.327 . S
C529 H552 0.950 . S
C530 C529 1.349 . S
C530 C542 1.349 . S
C531 C529 1.327 . S
C531 C547 1.429 . S
C531 H553 0.950 . S
C532 H528 0.949 . S
C532 C540 1.574 . S
C532 C548 1.368 . S
H533 C541 0.950 . S
H534 C539 0.950 . S
H535 C540 0.949 . S
H536 C542 0.950 . S
H537 C543 0.950 . S
H538 C544 0.949 . S
C539 H534 0.950 . S
C539 C541 1.327 . S
C539 C545 1.429 . S
C540 C532 1.574 . S
C540 H535 0.949 . S
C540 C546 1.368 . S
C541 C525 1.349 . S
C541 H533 0.950 . S
C541 C539 1.327 . S
C542 C530 1.349 . S
C542 H536 0.950 . S
C542 C543 1.327 . S
C543 H537 0.950 . S
C543 C542 1.327 . S
C543 C547 1.429 . S
C544 C527 1.574 . S
C544 H538 0.949 . S
C544 C548 1.368 . S
C545 C526 1.429 . S
C545 C539 1.429 . S
C545 C546 1.523 . S
C546 C527 1.368 . S
C546 C540 1.368 . S
C546 C545 1.523 . S
C547 C531 1.429 . S
C547 C543 1.429 . S
C547 C548 1.523 . S
C548 C532 1.368 . S
C548 C544 1.368 . S
C548 C547 1.523 . S
H549 C524 0.950 . S
H550 C526 0.950 . S
H551 C527 0.949 . S
H552 C529 0.950 . S
H553 C531 0.950 . S
C554 C555 1.349 . S
C554 C556 1.327 . S
C554 H579 0.950 . S
C555 C554 1.349 . S
C555 C571 1.349 . S
C556 C554 1.327 . S
C556 C575 1.429 . S
C556 H580 0.950 . S
C557 C574 1.574 . S
C557 C576 1.368 . S
C557 H581 0.949 . S
H558 C562 0.949 . S
C559 C560 1.349 . S
C559 C561 1.327 . S
C559 H582 0.950 . S
C560 C559 1.349 . S
C560 C572 1.349 . S
C561 C559 1.327 . S
C561 C577 1.429 . S
C561 H583 0.950 . S
C562 H558 0.949 . S
C562 C570 1.574 . S
C562 C578 1.368 . S
H563 C571 0.950 . S
H564 C569 0.950 . S
H565 C570 0.949 . S
H566 C572 0.950 . S
H567 C573 0.950 . S
H568 C574 0.949 . S
C569 H564 0.950 . S
C569 C571 1.327 . S
C569 C575 1.429 . S
C570 C562 1.574 . S
C570 H565 0.949 . S
C570 C576 1.368 . S
C571 C555 1.349 . S
C571 H563 0.950 . S
C571 C569 1.327 . S
C572 C560 1.349 . S
C572 H566 0.950 . S
C572 C573 1.327 . S
C573 H567 0.950 . S
C573 C572 1.327 . S
C573 C577 1.429 . S
C574 C557 1.574 . S
C574 H568 0.949 . S
C574 C578 1.368 . S
C575 C556 1.429 . S
C575 C569 1.429 . S
C575 C576 1.523 . S
C576 C557 1.368 . S
C576 C570 1.368 . S
C576 C575 1.523 . S
C577 C561 1.429 . S
C577 C573 1.429 . S
C577 C578 1.523 . S
C578 C562 1.368 . S
C578 C574 1.368 . S
C578 C577 1.523 . S
H579 C554 0.950 . S
H580 C556 0.950 . S
H581 C557 0.949 . S
H582 C559 0.950 . S
H583 C561 0.950 . S
C584 C585 1.349 . S
C584 C586 1.327 . S
C584 H609 0.950 . S
C585 C584 1.349 . S
C585 C601 1.349 . S
C586 C584 1.327 . S
C586 C605 1.429 . S
C586 H610 0.950 . S
C587 C604 1.574 . S
C587 C606 1.368 . S
C587 H611 0.949 . S
H588 C592 0.949 . S
C589 C590 1.349 . S
C589 C591 1.327 . S
C589 H612 0.950 . S
C590 C589 1.349 . S
C590 C602 1.349 . S
C591 C589 1.327 . S
C591 C607 1.429 . S
C591 H613 0.950 . S
C592 H588 0.949 . S
C592 C600 1.574 . S
C592 C608 1.368 . S
H593 C601 0.950 . S
H594 C599 0.950 . S
H595 C600 0.949 . S
H596 C602 0.950 . S
H597 C603 0.950 . S
H598 C604 0.949 . S
C599 H594 0.950 . S
C599 C601 1.327 . S
C599 C605 1.429 . S
C600 C592 1.574 . S
C600 H595 0.949 . S
C600 C606 1.368 . S
C601 C585 1.349 . S
C601 H593 0.950 . S
C601 C599 1.327 . S
C602 C590 1.349 . S
C602 H596 0.950 . S
C602 C603 1.327 . S
C603 H597 0.950 . S
C603 C602 1.327 . S
C603 C607 1.429 . S
C604 C587 1.574 . S
C604 H598 0.949 . S
C604 C608 1.368 . S
C605 C586 1.429 . S
C605 C599 1.429 . S
C605 C606 1.523 . S
C606 C587 1.368 . S
C606 C600 1.368 . S
C606 C605 1.523 . S
C607 C591 1.429 . S
C607 C603 1.429 . S
C607 C608 1.523 . S
C608 C592 1.368 . S
C608 C604 1.368 . S
C608 C607 1.523 . S
H609 C584 0.950 . S
H610 C586 0.950 . S
H611 C587 0.949 . S
H612 C589 0.950 . S
H613 C591 0.950 . S
C614 C615 1.349 . S
C614 C616 1.327 . S
C614 H639 0.950 . S
C615 C614 1.349 . S
C615 C631 1.349 . S
C616 C614 1.327 . S
C616 C635 1.429 . S
C616 H640 0.950 . S
C617 C634 1.574 . S
C617 C636 1.368 . S
C617 H641 0.949 . S
H618 C622 0.949 . S
C619 C620 1.349 . S
C619 C621 1.327 . S
C619 H642 0.950 . S
C620 C619 1.349 . S
C620 C632 1.349 . S
C621 C619 1.327 . S
C621 C637 1.429 . S
C621 H643 0.950 . S
C622 H618 0.949 . S
C622 C630 1.574 . S
C622 C638 1.368 . S
H623 C631 0.950 . S
H624 C629 0.950 . S
H625 C630 0.949 . S
H626 C632 0.950 . S
H627 C633 0.950 . S
H628 C634 0.949 . S
C629 H624 0.950 . S
C629 C631 1.327 . S
C629 C635 1.429 . S
C630 C622 1.574 . S
C630 H625 0.949 . S
C630 C636 1.368 . S
C631 C615 1.349 . S
C631 H623 0.950 . S
C631 C629 1.327 . S
C632 C620 1.349 . S
C632 H626 0.950 . S
C632 C633 1.327 . S
C633 H627 0.950 . S
C633 C632 1.327 . S
C633 C637 1.429 . S
C634 C617 1.574 . S
C634 H628 0.949 . S
C634 C638 1.368 . S
C635 C616 1.429 . S
C635 C629 1.429 . S
C635 C636 1.523 . S
C636 C617 1.368 . S
C636 C630 1.368 . S
C636 C635 1.523 . S
C637 C621 1.429 . S
C637 C633 1.429 . S
C637 C638 1.523 . S
C638 C622 1.368 . S
C638 C634 1.368 . S
C638 C637 1.523 . S
H639 C614 0.950 . S
H640 C616 0.950 . S
H641 C617 0.949 . S
H642 C619 0.950 . S
H643 C621 0.950 . S
C644 C645 1.349 . S
C644 C646 1.327 . S
C644 H669 0.950 . S
C645 C644 1.349 . S
C645 C661 1.349 . S
C646 C644 1.327 . S
C646 C665 1.429 . S
C646 H670 0.950 . S
C647 C664 1.574 . S
C647 C666 1.368 . S
C647 H671 0.949 . S
H648 C652 0.949 . S
C649 C650 1.349 . S
C649 C651 1.327 . S
C649 H672 0.950 . S
C650 C649 1.349 . S
C650 C662 1.349 . S
C651 C649 1.327 . S
C651 C667 1.429 . S
C651 H673 0.950 . S
C652 H648 0.949 . S
C652 C660 1.574 . S
C652 C668 1.368 . S
H653 C661 0.950 . S
H654 C659 0.950 . S
H655 C660 0.949 . S
H656 C662 0.950 . S
H657 C663 0.950 . S
H658 C664 0.949 . S
C659 H654 0.950 . S
C659 C661 1.327 . S
C659 C665 1.429 . S
C660 C652 1.574 . S
C660 H655 0.949 . S
C660 C666 1.368 . S
C661 C645 1.349 . S
C661 H653 0.950 . S
C661 C659 1.327 . S
C662 C650 1.349 . S
C662 H656 0.950 . S
C662 C663 1.327 . S
C663 H657 0.950 . S
C663 C662 1.327 . S
C663 C667 1.429 . S
C664 C647 1.574 . S
C664 H658 0.949 . S
C664 C668 1.368 . S
C665 C646 1.429 . S
C665 C659 1.429 . S
C665 C666 1.523 . S
C666 C647 1.368 . S
C666 C660 1.368 . S
C666 C665 1.523 . S
C667 C651 1.429 . S
C667 C663 1.429 . S
C667 C668 1.523 . S
C668 C652 1.368 . S
C668 C664 1.368 . S
C668 C667 1.523 . S
H669 C644 0.950 . S
H670 C646 0.950 . S
H671 C647 0.949 . S
H672 C649 0.950 . S
H673 C651 0.950 . S
C674 C675 1.349 . S
C674 C676 1.327 . S
C674 H699 0.950 . S
C675 C674 1.349 . S
C675 C691 1.349 . S
C676 C674 1.327 . S
C676 C695 1.429 . S
C676 H700 0.950 . S
C677 C694 1.574 . S
C677 C696 1.368 . S
C677 H701 0.949 . S
H678 C682 0.949 . S
C679 C680 1.349 . S
C679 C681 1.327 . S
C679 H702 0.950 . S
C680 C679 1.349 . S
C680 C692 1.349 . S
C681 C679 1.327 . S
C681 C697 1.429 . S
C681 H703 0.950 . S
C682 H678 0.949 . S
C682 C690 1.574 . S
C682 C698 1.368 . S
H683 C691 0.950 . S
H684 C689 0.950 . S
H685 C690 0.949 . S
H686 C692 0.950 . S
H687 C693 0.950 . S
H688 C694 0.949 . S
C689 H684 0.950 . S
C689 C691 1.327 . S
C689 C695 1.429 . S
C690 C682 1.574 . S
C690 H685 0.949 . S
C690 C696 1.368 . S
C691 C675 1.349 . S
C691 H683 0.950 . S
C691 C689 1.327 . S
C692 C680 1.349 . S
C692 H686 0.950 . S
C692 C693 1.327 . S
C693 H687 0.950 . S
C693 C692 1.327 . S
C693 C697 1.429 . S
C694 C677 1.574 . S
C694 H688 0.949 . S
C694 C698 1.368 . S
C695 C676 1.429 . S
C695 C689 1.429 . S
C695 C696 1.523 . S
C696 C677 1.368 . S
C696 C690 1.368 . S
C696 C695 1.523 . S
C697 C681 1.429 . S
C697 C693 1.429 . S
C697 C698 1.523 . S
C698 C682 1.368 . S
C698 C694 1.368 . S
C698 C697 1.523 . S
H699 C674 0.950 . S
H700 C676 0.950 . S
H701 C677 0.949 . S
H702 C679 0.950 . S
H703 C681 0.950 . S
C704 C705 1.349 . S
C704 C706 1.327 . S
C704 H729 0.950 . S
C705 C704 1.349 . S
C705 C721 1.349 . S
C706 C704 1.327 . S
C706 C725 1.429 . S
C706 H730 0.950 . S
C707 C724 1.574 1_556 S
C707 C726 1.368 . S
C707 H731 0.949 . S
H708 C712 0.949 . S
C709 C710 1.349 . S
C709 C711 1.327 . S
C709 H732 0.950 . S
C710 C709 1.349 . S
C710 C722 1.349 . S
C711 C709 1.327 . S
C711 C727 1.429 . S
C711 H733 0.950 . S
C712 H708 0.949 . S
C712 C720 1.574 1_554 S
C712 C728 1.368 . S
H713 C721 0.950 . S
H714 C719 0.950 . S
H715 C720 0.949 . S
H716 C722 0.950 . S
H717 C723 0.950 . S
H718 C724 0.949 . S
C719 H714 0.950 . S
C719 C721 1.327 . S
C719 C725 1.429 . S
C720 C712 1.574 1_556 S
C720 H715 0.949 . S
C720 C726 1.368 . S
C721 C705 1.349 . S
C721 H713 0.950 . S
C721 C719 1.327 . S
C722 C710 1.349 . S
C722 H716 0.950 . S
C722 C723 1.327 . S
C723 H717 0.950 . S
C723 C722 1.327 . S
C723 C727 1.429 . S
C724 C707 1.574 1_554 S
C724 H718 0.949 . S
C724 C728 1.368 . S
C725 C706 1.429 . S
C725 C719 1.429 . S
C725 C726 1.523 . S
C726 C707 1.368 . S
C726 C720 1.368 . S
C726 C725 1.523 . S
C727 C711 1.429 . S
C727 C723 1.429 . S
C727 C728 1.523 . S
C728 C712 1.368 . S
C728 C724 1.368 . S
C728 C727 1.523 . S
H729 C704 0.950 . S
H730 C706 0.950 . S
H731 C707 0.949 . S
H732 C709 0.950 . S
H733 C711 0.950 . S
C734 C735 1.349 . S
C734 C736 1.327 . S
C734 H759 0.950 . S
C735 C734 1.349 . S
C735 C751 1.349 . S
C736 C734 1.327 . S
C736 C755 1.429 . S
C736 H760 0.950 . S
C737 C754 1.574 . S
C737 C756 1.368 . S
C737 H761 0.949 . S
H738 C742 0.949 . S
C739 C740 1.349 . S
C739 C741 1.327 . S
C739 H762 0.950 . S
C740 C739 1.349 . S
C740 C752 1.349 . S
C741 C739 1.327 . S
C741 C757 1.429 . S
C741 H763 0.950 . S
C742 H738 0.949 . S
C742 C750 1.574 . S
C742 C758 1.368 . S
H743 C751 0.950 . S
H744 C749 0.950 . S
H745 C750 0.949 . S
H746 C752 0.950 . S
H747 C753 0.950 . S
H748 C754 0.949 . S
C749 H744 0.950 . S
C749 C751 1.327 . S
C749 C755 1.429 . S
C750 C742 1.574 . S
C750 H745 0.949 . S
C750 C756 1.368 . S
C751 C735 1.349 . S
C751 H743 0.950 . S
C751 C749 1.327 . S
C752 C740 1.349 . S
C752 H746 0.950 . S
C752 C753 1.327 . S
C753 H747 0.950 . S
C753 C752 1.327 . S
C753 C757 1.429 . S
C754 C737 1.574 . S
C754 H748 0.949 . S
C754 C758 1.368 . S
C755 C736 1.429 . S
C755 C749 1.429 . S
C755 C756 1.523 . S
C756 C737 1.368 . S
C756 C750 1.368 . S
C756 C755 1.523 . S
C757 C741 1.429 . S
C757 C753 1.429 . S
C757 C758 1.523 . S
C758 C742 1.368 . S
C758 C754 1.368 . S
C758 C757 1.523 . S
H759 C734 0.950 . S
H760 C736 0.950 . S
H761 C737 0.949 . S
H762 C739 0.950 . S
H763 C741 0.950 . S
C764 C765 1.349 . S
C764 C766 1.327 . S
C764 H789 0.950 . S
C765 C764 1.349 . S
C765 C781 1.349 . S
C766 C764 1.327 . S
C766 C785 1.429 . S
C766 H790 0.950 . S
C767 C784 1.574 1_554 S
C767 C786 1.368 . S
C767 H791 0.949 . S
H768 C772 0.949 . S
C769 C770 1.349 . S
C769 C771 1.327 . S
C769 H792 0.950 . S
C770 C769 1.349 . S
C770 C782 1.349 . S
C771 C769 1.327 . S
C771 C787 1.429 . S
C771 H793 0.950 . S
C772 H768 0.949 . S
C772 C780 1.574 1_556 S
C772 C788 1.368 . S
H773 C781 0.950 . S
H774 C779 0.950 . S
H775 C780 0.949 . S
H776 C782 0.950 . S
H777 C783 0.950 . S
H778 C784 0.949 . S
C779 H774 0.950 . S
C779 C781 1.327 . S
C779 C785 1.429 . S
C780 C772 1.574 1_554 S
C780 H775 0.949 . S
C780 C786 1.368 . S
C781 C765 1.349 . S
C781 H773 0.950 . S
C781 C779 1.327 . S
C782 C770 1.349 . S
C782 H776 0.950 . S
C782 C783 1.327 . S
C783 H777 0.950 . S
C783 C782 1.327 . S
C783 C787 1.429 . S
C784 C767 1.574 1_556 S
C784 H778 0.949 . S
C784 C788 1.368 . S
C785 C766 1.429 . S
C785 C779 1.429 . S
C785 C786 1.523 . S
C786 C767 1.368 . S
C786 C780 1.368 . S
C786 C785 1.523 . S
C787 C771 1.429 . S
C787 C783 1.429 . S
C787 C788 1.523 . S
C788 C772 1.368 . S
C788 C784 1.368 . S
C788 C787 1.523 . S
H789 C764 0.950 . S
H790 C766 0.950 . S
H791 C767 0.949 . S
H792 C769 0.950 . S
H793 C771 0.950 . S
C794 C795 1.349 . S
C794 C796 1.327 . S
C794 H819 0.950 . S
C795 C794 1.349 . S
C795 C811 1.349 . S
C796 C794 1.327 . S
C796 C815 1.429 . S
C796 H820 0.950 . S
C797 C814 1.574 . S
C797 C816 1.368 . S
C797 H821 0.949 . S
H798 C802 0.949 . S
C799 C800 1.349 . S
C799 C801 1.327 . S
C799 H822 0.950 . S
C800 C799 1.349 . S
C800 C812 1.349 . S
C801 C799 1.327 . S
C801 C817 1.429 . S
C801 H823 0.950 . S
C802 H798 0.949 . S
C802 C810 1.574 . S
C802 C818 1.368 . S
H803 C811 0.950 . S
H804 C809 0.950 . S
H805 C810 0.949 . S
H806 C812 0.950 . S
H807 C813 0.950 . S
H808 C814 0.949 . S
C809 H804 0.950 . S
C809 C811 1.327 . S
C809 C815 1.429 . S
C810 C802 1.574 . S
C810 H805 0.949 . S
C810 C816 1.368 . S
C811 C795 1.349 . S
C811 H803 0.950 . S
C811 C809 1.327 . S
C812 C800 1.349 . S
C812 H806 0.950 . S
C812 C813 1.327 . S
C813 H807 0.950 . S
C813 C812 1.327 . S
C813 C817 1.429 . S
C814 C797 1.574 . S
C814 H808 0.949 . S
C814 C818 1.368 . S
C815 C796 1.429 . S
C815 C809 1.429 . S
C815 C816 1.523 . S
C816 C797 1.368 . S
C816 C810 1.368 . S
C816 C815 1.523 . S
C817 C801 1.429 . S
C817 C813 1.429 . S
C817 C818 1.523 . S
C818 C802 1.368 . S
C818 C814 1.368 . S
C818 C817 1.523 . S
H819 C794 0.950 . S
H820 C796 0.950 . S
H821 C797 0.949 . S
H822 C799 0.950 . S
H823 C801 0.950 . S
C824 C825 1.349 . S
C824 C826 1.327 . S
C824 H849 0.950 . S
C825 C824 1.349 . S
C825 C841 1.349 . S
C826 C824 1.327 . S
C826 C845 1.429 . S
C826 H850 0.950 . S
C827 C844 1.574 . S
C827 C846 1.368 . S
C827 H851 0.949 . S
H828 C832 0.949 . S
C829 C830 1.349 . S
C829 C831 1.327 . S
C829 H852 0.950 . S
C830 C829 1.349 . S
C830 C842 1.349 . S
C831 C829 1.327 . S
C831 C847 1.429 . S
C831 H853 0.950 . S
C832 H828 0.949 . S
C832 C840 1.574 . S
C832 C848 1.368 . S
H833 C841 0.950 . S
H834 C839 0.950 . S
H835 C840 0.949 . S
H836 C842 0.950 . S
H837 C843 0.950 . S
H838 C844 0.949 . S
C839 H834 0.950 . S
C839 C841 1.327 . S
C839 C845 1.429 . S
C840 C832 1.574 . S
C840 H835 0.949 . S
C840 C846 1.368 . S
C841 C825 1.349 . S
C841 H833 0.950 . S
C841 C839 1.327 . S
C842 C830 1.349 . S
C842 H836 0.950 . S
C842 C843 1.327 . S
C843 H837 0.950 . S
C843 C842 1.327 . S
C843 C847 1.429 . S
C844 C827 1.574 . S
C844 H838 0.949 . S
C844 C848 1.368 . S
C845 C826 1.429 . S
C845 C839 1.429 . S
C845 C846 1.523 . S
C846 C827 1.368 . S
C846 C840 1.368 . S
C846 C845 1.523 . S
C847 C831 1.429 . S
C847 C843 1.429 . S
C847 C848 1.523 . S
C848 C832 1.368 . S
C848 C844 1.368 . S
C848 C847 1.523 . S
H849 C824 0.950 . S
H850 C826 0.950 . S
H851 C827 0.949 . S
H852 C829 0.950 . S
H853 C831 0.950 . S
C854 C855 1.349 . S
C854 C856 1.327 . S
C854 H879 0.950 . S
C855 C854 1.349 . S
C855 C871 1.349 . S
C856 C854 1.327 . S
C856 C875 1.429 . S
C856 H880 0.950 . S
C857 C874 1.574 1_556 S
C857 C876 1.368 . S
C857 H881 0.949 . S
H858 C862 0.949 . S
C859 C860 1.349 . S
C859 C861 1.327 . S
C859 H882 0.950 . S
C860 C859 1.349 . S
C860 C872 1.349 . S
C861 C859 1.327 . S
C861 C877 1.429 . S
C861 H883 0.950 . S
C862 H858 0.949 . S
C862 C870 1.574 1_554 S
C862 C878 1.368 . S
H863 C871 0.950 . S
H864 C869 0.950 . S
H865 C870 0.949 . S
H866 C872 0.950 . S
H867 C873 0.950 . S
H868 C874 0.949 . S
C869 H864 0.950 . S
C869 C871 1.327 . S
C869 C875 1.429 . S
C870 C862 1.574 1_556 S
C870 H865 0.949 . S
C870 C876 1.368 . S
C871 C855 1.349 . S
C871 H863 0.950 . S
C871 C869 1.327 . S
C872 C860 1.349 . S
C872 H866 0.950 . S
C872 C873 1.327 . S
C873 H867 0.950 . S
C873 C872 1.327 . S
C873 C877 1.429 . S
C874 C857 1.574 1_554 S
C874 H868 0.949 . S
C874 C878 1.368 . S
C875 C856 1.429 . S
C875 C869 1.429 . S
C875 C876 1.523 . S
C876 C857 1.368 . S
C876 C870 1.368 . S
C876 C875 1.523 . S
C877 C861 1.429 . S
C877 C873 1.429 . S
C877 C878 1.523 . S
C878 C862 1.368 . S
C878 C874 1.368 . S
C878 C877 1.523 . S
H879 C854 0.950 . S
H880 C856 0.950 . S
H881 C857 0.949 . S
H882 C859 0.950 . S
H883 C861 0.950 . S
C884 C885 1.349 . S
C884 C886 1.327 . S
C884 H909 0.950 . S
C885 C884 1.349 . S
C885 C901 1.349 . S
C886 C884 1.327 . S
C886 C905 1.429 . S
C886 H910 0.950 . S
C887 C904 1.574 . S
C887 C906 1.368 . S
C887 H911 0.949 . S
H888 C892 0.949 . S
C889 C890 1.349 . S
C889 C891 1.327 . S
C889 H912 0.950 . S
C890 C889 1.349 . S
C890 C902 1.349 . S
C891 C889 1.327 . S
C891 C907 1.429 . S
C891 H913 0.950 . S
C892 H888 0.949 . S
C892 C900 1.574 . S
C892 C908 1.368 . S
H893 C901 0.950 . S
H894 C899 0.950 . S
H895 C900 0.949 . S
H896 C902 0.950 . S
H897 C903 0.950 . S
H898 C904 0.949 . S
C899 H894 0.950 . S
C899 C901 1.327 . S
C899 C905 1.429 . S
C900 C892 1.574 . S
C900 H895 0.949 . S
C900 C906 1.368 . S
C901 C885 1.349 . S
C901 H893 0.950 . S
C901 C899 1.327 . S
C902 C890 1.349 . S
C902 H896 0.950 . S
C902 C903 1.327 . S
C903 H897 0.950 . S
C903 C902 1.327 . S
C903 C907 1.429 . S
C904 C887 1.574 . S
C904 H898 0.949 . S
C904 C908 1.368 . S
C905 C886 1.429 . S
C905 C899 1.429 . S
C905 C906 1.523 . S
C906 C887 1.368 . S
C906 C900 1.368 . S
C906 C905 1.523 . S
C907 C891 1.429 . S
C907 C903 1.429 . S
C907 C908 1.523 . S
C908 C892 1.368 . S
C908 C904 1.368 . S
C908 C907 1.523 . S
H909 C884 0.950 . S
H910 C886 0.950 . S
H911 C887 0.949 . S
H912 C889 0.950 . S
H913 C891 0.950 . S
C914 C915 1.349 . S
C914 C916 1.327 . S
C914 H939 0.950 . S
C915 C914 1.349 . S
C915 C931 1.349 . S
C916 C914 1.327 . S
C916 C935 1.429 . S
C916 H940 0.950 . S
C917 C934 1.574 1_554 S
C917 C936 1.368 . S
C917 H941 0.949 . S
H918 C922 0.949 . S
C919 C920 1.349 . S
C919 C921 1.327 . S
C919 H942 0.950 . S
C920 C919 1.349 . S
C920 C932 1.349 . S
C921 C919 1.327 . S
C921 C937 1.429 . S
C921 H943 0.950 . S
C922 H918 0.949 . S
C922 C930 1.574 1_556 S
C922 C938 1.368 . S
H923 C931 0.950 . S
H924 C929 0.950 . S
H925 C930 0.949 . S
H926 C932 0.950 . S
H927 C933 0.950 . S
H928 C934 0.949 . S
C929 H924 0.950 . S
C929 C931 1.327 . S
C929 C935 1.429 . S
C930 C922 1.574 1_554 S
C930 H925 0.949 . S
C930 C936 1.368 . S
C931 C915 1.349 . S
C931 H923 0.950 . S
C931 C929 1.327 . S
C932 C920 1.349 . S
C932 H926 0.950 . S
C932 C933 1.327 . S
C933 H927 0.950 . S
C933 C932 1.327 . S
C933 C937 1.429 . S
C934 C917 1.574 1_556 S
C934 H928 0.949 . S
C934 C938 1.368 . S
C935 C916 1.429 . S
C935 C929 1.429 . S
C935 C936 1.523 . S
C936 C917 1.368 . S
C936 C930 1.368 . S
C936 C935 1.523 . S
C937 C921 1.429 . S
C937 C933 1.429 . S
C937 C938 1.523 . S
C938 C922 1.368 . S
C938 C934 1.368 . S
C938 C937 1.523 . S
H939 C914 0.950 . S
H940 C916 0.950 . S
H941 C917 0.949 . S
H942 C919 0.950 . S
H943 C921 0.950 . S
C944 C945 1.349 . S
C944 C946 1.327 . S
C944 H969 0.950 . S
C945 C944 1.349 . S
C945 C961 1.349 . S
C946 C944 1.327 . S
C946 C965 1.429 . S
C946 H970 0.950 . S
C947 C964 1.574 . S
C947 C966 1.368 . S
C947 H971 0.949 . S
H948 C952 0.949 . S
C949 C950 1.349 . S
C949 C951 1.327 . S
C949 H972 0.950 . S
C950 C949 1.349 . S
C950 C962 1.349 . S
C951 C949 1.327 . S
C951 C967 1.429 . S
C951 H973 0.950 . S
C952 H948 0.949 . S
C952 C960 1.574 . S
C952 C968 1.368 . S
H953 C961 0.950 . S
H954 C959 0.950 . S
H955 C960 0.949 . S
H956 C962 0.950 . S
H957 C963 0.950 . S
H958 C964 0.949 . S
C959 H954 0.950 . S
C959 C961 1.327 . S
C959 C965 1.429 . S
C960 C952 1.574 . S
C960 H955 0.949 . S
C960 C966 1.368 . S
C961 C945 1.349 . S
C961 H953 0.950 . S
C961 C959 1.327 . S
C962 C950 1.349 . S
C962 H956 0.950 . S
C962 C963 1.327 . S
C963 H957 0.950 . S
C963 C962 1.327 . S
C963 C967 1.429 . S
C964 C947 1.574 . S
C964 H958 0.949 . S
C964 C968 1.368 . S
C965 C946 1.429 . S
C965 C959 1.429 . S
C965 C966 1.523 . S
C966 C947 1.368 . S
C966 C960 1.368 . S
C966 C965 1.523 . S
C967 C951 1.429 . S
C967 C963 1.429 . S
C967 C968 1.523 . S
C968 C952 1.368 . S
C968 C964 1.368 . S
C968 C967 1.523 . S
H969 C944 0.950 . S
H970 C946 0.950 . S
H971 C947 0.949 . S
H972 C949 0.950 . S
H973 C951 0.950 . S
C974 C975 1.349 . S
C974 C976 1.327 . S
C974 H999 0.950 . S
C975 C974 1.349 . S
C975 C991 1.349 . S
C976 C974 1.327 . S
C976 C995 1.429 . S
C976 H1000 0.950 . S
C977 C994 1.574 . S
C977 C996 1.368 . S
C977 H1001 0.949 . S
H978 C982 0.949 . S
C979 C980 1.349 . S
C979 C981 1.327 . S
C979 H1002 0.950 . S
C980 C979 1.349 . S
C980 C992 1.349 . S
C981 C979 1.327 . S
C981 C997 1.429 . S
C981 H1003 0.950 . S
C982 H978 0.949 . S
C982 C990 1.574 . S
C982 C998 1.368 . S
H983 C991 0.950 . S
H984 C989 0.950 . S
H985 C990 0.949 . S
H986 C992 0.950 . S
H987 C993 0.950 . S
H988 C994 0.949 . S
C989 H984 0.950 . S
C989 C991 1.327 . S
C989 C995 1.429 . S
C990 C982 1.574 . S
C990 H985 0.949 . S
C990 C996 1.368 . S
C991 C975 1.349 . S
C991 H983 0.950 . S
C991 C989 1.327 . S
C992 C980 1.349 . S
C992 H986 0.950 . S
C992 C993 1.327 . S
C993 H987 0.950 . S
C993 C992 1.327 . S
C993 C997 1.429 . S
C994 C977 1.574 . S
C994 H988 0.949 . S
C994 C998 1.368 . S
C995 C976 1.429 . S
C995 C989 1.429 . S
C995 C996 1.523 . S
C996 C977 1.368 . S
C996 C990 1.368 . S
C996 C995 1.523 . S
C997 C981 1.429 . S
C997 C993 1.429 . S
C997 C998 1.523 . S
C998 C982 1.368 . S
C998 C994 1.368 . S
C998 C997 1.523 . S
H999 C974 0.950 . S
H1000 C976 0.950 . S
H1001 C977 0.949 . S
H1002 C979 0.950 . S
H1003 C981 0.950 . S
C1004 C1005 1.349 . S
C1004 C1006 1.327 . S
C1004 H1029 0.950 . S
C1005 C1004 1.349 . S
C1005 C1021 1.349 . S
C1006 C1004 1.327 . S
C1006 C1025 1.429 . S
C1006 H1030 0.950 . S
C1007 C1024 1.574 . S
C1007 C1026 1.368 . S
C1007 H1031 0.949 . S
H1008 C1012 0.949 . S
C1009 C1010 1.349 . S
C1009 C1011 1.327 . S
C1009 H1032 0.950 . S
C1010 C1009 1.349 . S
C1010 C1022 1.349 . S
C1011 C1009 1.327 . S
C1011 C1027 1.429 . S
C1011 H1033 0.950 . S
C1012 H1008 0.949 . S
C1012 C1020 1.574 . S
C1012 C1028 1.368 . S
H1013 C1021 0.950 . S
H1014 C1019 0.950 . S
H1015 C1020 0.949 . S
H1016 C1022 0.950 . S
H1017 C1023 0.950 . S
H1018 C1024 0.949 . S
C1019 H1014 0.950 . S
C1019 C1021 1.327 . S
C1019 C1025 1.429 . S
C1020 C1012 1.574 . S
C1020 H1015 0.949 . S
C1020 C1026 1.368 . S
C1021 C1005 1.349 . S
C1021 H1013 0.950 . S
C1021 C1019 1.327 . S
C1022 C1010 1.349 . S
C1022 H1016 0.950 . S
C1022 C1023 1.327 . S
C1023 H1017 0.950 . S
C1023 C1022 1.327 . S
C1023 C1027 1.429 . S
C1024 C1007 1.574 . S
C1024 H1018 0.949 . S
C1024 C1028 1.368 . S
C1025 C1006 1.429 . S
C1025 C1019 1.429 . S
C1025 C1026 1.523 . S
C1026 C1007 1.368 . S
C1026 C1020 1.368 . S
C1026 C1025 1.523 . S
C1027 C1011 1.429 . S
C1027 C1023 1.429 . S
C1027 C1028 1.523 . S
C1028 C1012 1.368 . S
C1028 C1024 1.368 . S
C1028 C1027 1.523 . S
H1029 C1004 0.950 . S
H1030 C1006 0.950 . S
H1031 C1007 0.949 . S
H1032 C1009 0.950 . S
H1033 C1011 0.950 . S
C1034 C1035 1.349 . S
C1034 C1036 1.327 . S
C1034 H1059 0.950 . S
C1035 C1034 1.349 . S
C1035 C1051 1.349 . S
C1036 C1034 1.327 . S
C1036 C1055 1.429 . S
C1036 H1060 0.950 . S
C1037 C1054 1.574 . S
C1037 C1056 1.368 . S
C1037 H1061 0.949 . S
H1038 C1042 0.949 . S
C1039 C1040 1.349 . S
C1039 C1041 1.327 . S
C1039 H1062 0.950 . S
C1040 C1039 1.349 . S
C1040 C1052 1.349 . S
C1041 C1039 1.327 . S
C1041 C1057 1.429 . S
C1041 H1063 0.950 . S
C1042 H1038 0.949 . S
C1042 C1050 1.574 . S
C1042 C1058 1.368 . S
H1043 C1051 0.950 . S
H1044 C1049 0.950 . S
H1045 C1050 0.949 . S
H1046 C1052 0.950 . S
H1047 C1053 0.950 . S
H1048 C1054 0.949 . S
C1049 H1044 0.950 . S
C1049 C1051 1.327 . S
C1049 C1055 1.429 . S
C1050 C1042 1.574 . S
C1050 H1045 0.949 . S
C1050 C1056 1.368 . S
C1051 C1035 1.349 . S
C1051 H1043 0.950 . S
C1051 C1049 1.327 . S
C1052 C1040 1.349 . S
C1052 H1046 0.950 . S
C1052 C1053 1.327 . S
C1053 H1047 0.950 . S
C1053 C1052 1.327 . S
C1053 C1057 1.429 . S
C1054 C1037 1.574 . S
C1054 H1048 0.949 . S
C1054 C1058 1.368 . S
C1055 C1036 1.429 . S
C1055 C1049 1.429 . S
C1055 C1056 1.523 . S
C1056 C1037 1.368 . S
C1056 C1050 1.368 . S
C1056 C1055 1.523 . S
C1057 C1041 1.429 . S
C1057 C1053 1.429 . S
C1057 C1058 1.523 . S
C1058 C1042 1.368 . S
C1058 C1054 1.368 . S
C1058 C1057 1.523 . S
H1059 C1034 0.950 . S
H1060 C1036 0.950 . S
H1061 C1037 0.949 . S
H1062 C1039 0.950 . S
H1063 C1041 0.950 . S
C1064 C1065 1.349 . S
C1064 C1066 1.327 . S
C1064 H1089 0.950 . S
C1065 C1064 1.349 . S
C1065 C1081 1.349 . S
C1066 C1064 1.327 . S
C1066 C1085 1.429 . S
C1066 H1090 0.950 . S
C1067 C1084 1.574 . S
C1067 C1086 1.368 . S
C1067 H1091 0.949 . S
H1068 C1072 0.949 . S
C1069 C1070 1.349 . S
C1069 C1071 1.327 . S
C1069 H1092 0.950 . S
C1070 C1069 1.349 . S
C1070 C1082 1.349 . S
C1071 C1069 1.327 . S
C1071 C1087 1.429 . S
C1071 H1093 0.950 . S
C1072 H1068 0.949 . S
C1072 C1080 1.574 . S
C1072 C1088 1.368 . S
H1073 C1081 0.950 . S
H1074 C1079 0.950 . S
H1075 C1080 0.949 . S
H1076 C1082 0.950 . S
H1077 C1083 0.950 . S
H1078 C1084 0.949 . S
C1079 H1074 0.950 . S
C1079 C1081 1.327 . S
C1079 C1085 1.429 . S
C1080 C1072 1.574 . S
C1080 H1075 0.949 . S
C1080 C1086 1.368 . S
C1081 C1065 1.349 . S
C1081 H1073 0.950 . S
C1081 C1079 1.327 . S
C1082 C1070 1.349 . S
C1082 H1076 0.950 . S
C1082 C1083 1.327 . S
C1083 H1077 0.950 . S
C1083 C1082 1.327 . S
C1083 C1087 1.429 . S
C1084 C1067 1.574 . S
C1084 H1078 0.949 . S
C1084 C1088 1.368 . S
C1085 C1066 1.429 . S
C1085 C1079 1.429 . S
C1085 C1086 1.523 . S
C1086 C1067 1.368 . S
C1086 C1080 1.368 . S
C1086 C1085 1.523 . S
C1087 C1071 1.429 . S
C1087 C1083 1.429 . S
C1087 C1088 1.523 . S
C1088 C1072 1.368 . S
C1088 C1084 1.368 . S
C1088 C1087 1.523 . S
H1089 C1064 0.950 . S
H1090 C1066 0.950 . S
H1091 C1067 0.949 . S
H1092 C1069 0.950 . S
H1093 C1071 0.950 . S
C1094 C1095 1.349 . S
C1094 C1096 1.327 . S
C1094 H1119 0.950 . S
C1095 C1094 1.349 . S
C1095 C1111 1.349 . S
C1096 C1094 1.327 . S
C1096 C1115 1.429 . S
C1096 H1120 0.950 . S
C1097 C1114 1.574 . S
C1097 C1116 1.368 . S
C1097 H1121 0.949 . S
H1098 C1102 0.949 . S
C1099 C1100 1.349 . S
C1099 C1101 1.327 . S
C1099 H1122 0.950 . S
C1100 C1099 1.349 . S
C1100 C1112 1.349 . S
C1101 C1099 1.327 . S
C1101 C1117 1.429 . S
C1101 H1123 0.950 . S
C1102 H1098 0.949 . S
C1102 C1110 1.574 . S
C1102 C1118 1.368 . S
H1103 C1111 0.950 . S
H1104 C1109 0.950 . S
H1105 C1110 0.949 . S
H1106 C1112 0.950 . S
H1107 C1113 0.950 . S
H1108 C1114 0.949 . S
C1109 H1104 0.950 . S
C1109 C1111 1.327 . S
C1109 C1115 1.429 . S
C1110 C1102 1.574 . S
C1110 H1105 0.949 . S
C1110 C1116 1.368 . S
C1111 C1095 1.349 . S
C1111 H1103 0.950 . S
C1111 C1109 1.327 . S
C1112 C1100 1.349 . S
C1112 H1106 0.950 . S
C1112 C1113 1.327 . S
C1113 H1107 0.950 . S
C1113 C1112 1.327 . S
C1113 C1117 1.429 . S
C1114 C1097 1.574 . S
C1114 H1108 0.949 . S
C1114 C1118 1.368 . S
C1115 C1096 1.429 . S
C1115 C1109 1.429 . S
C1115 C1116 1.523 . S
C1116 C1097 1.368 . S
C1116 C1110 1.368 . S
C1116 C1115 1.523 . S
C1117 C1101 1.429 . S
C1117 C1113 1.429 . S
C1117 C1118 1.523 . S
C1118 C1102 1.368 . S
C1118 C1114 1.368 . S
C1118 C1117 1.523 . S
H1119 C1094 0.950 . S
H1120 C1096 0.950 . S
H1121 C1097 0.949 . S
H1122 C1099 0.950 . S
H1123 C1101 0.950 . S
C1124 C1125 1.349 . S
C1124 C1126 1.327 . S
C1124 H1149 0.950 . S
C1125 C1124 1.349 . S
C1125 C1141 1.349 . S
C1126 C1124 1.327 . S
C1126 C1145 1.429 . S
C1126 H1150 0.950 . S
C1127 C1144 1.574 . S
C1127 C1146 1.368 . S
C1127 H1151 0.949 . S
H1128 C1132 0.949 . S
C1129 C1130 1.349 . S
C1129 C1131 1.327 . S
C1129 H1152 0.950 . S
C1130 C1129 1.349 . S
C1130 C1142 1.349 . S
C1131 C1129 1.327 . S
C1131 C1147 1.429 . S
C1131 H1153 0.950 . S
C1132 H1128 0.949 . S
C1132 C1140 1.574 . S
C1132 C1148 1.368 . S
H1133 C1141 0.950 . S
H1134 C1139 0.950 . S
H1135 C1140 0.949 . S
H1136 C1142 0.950 . S
H1137 C1143 0.950 . S
H1138 C1144 0.949 . S
C1139 H1134 0.950 . S
C1139 C1141 1.327 . S
C1139 C1145 1.429 . S
C1140 C1132 1.574 . S
C1140 H1135 0.949 . S
C1140 C1146 1.368 . S
C1141 C1125 1.349 . S
C1141 H1133 0.950 . S
C1141 C1139 1.327 . S
C1142 C1130 1.349 . S
C1142 H1136 0.950 . S
C1142 C1143 1.327 . S
C1143 H1137 0.950 . S
C1143 C1142 1.327 . S
C1143 C1147 1.429 . S
C1144 C1127 1.574 . S
C1144 H1138 0.949 . S
C1144 C1148 1.368 . S
C1145 C1126 1.429 . S
C1145 C1139 1.429 . S
C1145 C1146 1.523 . S
C1146 C1127 1.368 . S
C1146 C1140 1.368 . S
C1146 C1145 1.523 . S
C1147 C1131 1.429 . S
C1147 C1143 1.429 . S
C1147 C1148 1.523 . S
C1148 C1132 1.368 . S
C1148 C1144 1.368 . S
C1148 C1147 1.523 . S
H1149 C1124 0.950 . S
H1150 C1126 0.950 . S
H1151 C1127 0.949 . S
H1152 C1129 0.950 . S
H1153 C1131 0.950 . S
C1154 C1155 1.349 . S
C1154 C1156 1.327 . S
C1154 H1179 0.950 . S
C1155 C1154 1.349 . S
C1155 C1171 1.349 . S
C1156 C1154 1.327 . S
C1156 C1175 1.429 . S
C1156 H1180 0.950 . S
C1157 C1174 1.574 . S
C1157 C1176 1.368 . S
C1157 H1181 0.949 . S
H1158 C1162 0.949 . S
C1159 C1160 1.349 . S
C1159 C1161 1.327 . S
C1159 H1182 0.950 . S
C1160 C1159 1.349 . S
C1160 C1172 1.349 . S
C1161 C1159 1.327 . S
C1161 C1177 1.429 . S
C1161 H1183 0.950 . S
C1162 H1158 0.949 . S
C1162 C1170 1.574 . S
C1162 C1178 1.368 . S
H1163 C1171 0.950 . S
H1164 C1169 0.950 . S
H1165 C1170 0.949 . S
H1166 C1172 0.950 . S
H1167 C1173 0.950 . S
H1168 C1174 0.949 . S
C1169 H1164 0.950 . S
C1169 C1171 1.327 . S
C1169 C1175 1.429 . S
C1170 C1162 1.574 . S
C1170 H1165 0.949 . S
C1170 C1176 1.368 . S
C1171 C1155 1.349 . S
C1171 H1163 0.950 . S
C1171 C1169 1.327 . S
C1172 C1160 1.349 . S
C1172 H1166 0.950 . S
C1172 C1173 1.327 . S
C1173 H1167 0.950 . S
C1173 C1172 1.327 . S
C1173 C1177 1.429 . S
C1174 C1157 1.574 . S
C1174 H1168 0.949 . S
C1174 C1178 1.368 . S
C1175 C1156 1.429 . S
C1175 C1169 1.429 . S
C1175 C1176 1.523 . S
C1176 C1157 1.368 . S
C1176 C1170 1.368 . S
C1176 C1175 1.523 . S
C1177 C1161 1.429 . S
C1177 C1173 1.429 . S
C1177 C1178 1.523 . S
C1178 C1162 1.368 . S
C1178 C1174 1.368 . S
C1178 C1177 1.523 . S
H1179 C1154 0.950 . S
H1180 C1156 0.950 . S
H1181 C1157 0.949 . S
H1182 C1159 0.950 . S
H1183 C1161 0.950 . S
C225 C0 1.763 . S
C230 C41 1.765 . S
C255 C54 1.763 . S
C260 C26 1.763 . S
C285 C69 1.765 . S
C290 C96 1.763 . S
C315 C111 1.765 . S
C320 C82 1.763 . S
C345 C124 1.765 . S
C350 C152 1.765 . S
C375 C166 1.765 . S
C380 C139 1.763 . S
C405 C181 1.763 . S
C410 C208 1.765 . S
C435 C210 1.765 . S
C440 C183 1.763 . S
C465 C56 1.619 . S
C470 C13 1.620 . S
C495 C15 1.620 . S
C500 C71 1.620 . S
C525 C28 1.619 . S
C530 C85 1.620 . S
C555 C98 1.619 . S
C560 C43 1.620 . S
C585 C113 1.619 . S
C590 C168 1.620 . S
C615 C126 1.620 . S
C620 C194 1.620 . S
C645 C141 1.619 . S
C650 C197 1.619 . S
C675 C155 1.619 . S
C680 C223 1.619 . S
C705 C140 1.605 . S
C710 C12 1.605 . S
C735 C154 1.605 . S
C740 C14 1.605 . S
C765 C29 1.605 . S
C770 C112 1.605 . S
C795 C42 1.605 . S
C800 C127 1.605 . S
C825 C57 1.605 . S
C830 C196 1.605 . S
C855 C70 1.605 . S
C860 C222 1.605 . S
C885 C84 1.605 . S
C890 C169 1.605 . S
C915 C195 1.605 . S
C920 C99 1.605 . S
C945 C1 1.732 . S
C950 C211 1.730 . S
C975 C180 1.732 . S
C980 C27 1.732 . S
C1005 C40 1.730 . S
C1010 C182 1.732 . S
C1035 C209 1.730 . S
C1040 C55 1.732 . S
C1065 C138 1.732 . S
C1070 C68 1.730 . S
C1095 C83 1.732 . S
C1100 C153 1.730 . S
C1125 C167 1.730 . S
C1130 C97 1.732 . S
C1155 C125 1.730 . S
C1160 C110 1.730 . S
