# Generated by pormake.
# Topology uol, (4)-cn, num edge types: 1
# Building blocks:
#     Node 0, Type 0, BuildingBlock: KOZSID_clean_sbu_0, # of connection points: 4
#     Node 1, Type 0, BuildingBlock: KOZSID_clean_sbu_0, # of connection points: 4
#     Node 2, Type 0, BuildingBlock: KOZSID_clean_sbu_0, # of connection points: 4
#     Node 3, Type 0, BuildingBlock: KOZSID_clean_sbu_0, # of connection points: 4
#     Node 4, Type 0, BuildingBlock: KOZSID_clean_sbu_0, # of connection points: 4
#     Node 5, Type 0, BuildingBlock: KOZSID_clean_sbu_0, # of connection points: 4
#     Node 6, Type 0, BuildingBlock: KOZSID_clean_sbu_0, # of connection points: 4
#     Node 7, Type 0, BuildingBlock: KOZSID_clean_sbu_0, # of connection points: 4
#     Node 8, Type 0, BuildingBlock: KOZSID_clean_sbu_0, # of connection points: 4
#     Node 9, Type 0, BuildingBlock: KOZSID_clean_sbu_0, # of connection points: 4
#     Node 10, Type 0, BuildingBlock: KOZSID_clean_sbu_0, # of connection points: 4
#     Node 11, Type 0, BuildingBlock: KOZSID_clean_sbu_0, # of connection points: 4
#     Edge 12, Type (0, 0), BuildingBlock: OJICUG_clean_linker_0, # of connection points: 2
#     Edge 13, Type (0, 0), BuildingBlock: OJICUG_clean_linker_0, # of connection points: 2
#     Edge 14, Type (0, 0), BuildingBlock: OJICUG_clean_linker_0, # of connection points: 2
#     Edge 15, Type (0, 0), BuildingBlock: OJICUG_clean_linker_0, # of connection points: 2
#     Edge 16, Type (0, 0), BuildingBlock: OJICUG_clean_linker_0, # of connection points: 2
#     Edge 17, Type (0, 0), BuildingBlock: OJICUG_clean_linker_0, # of connection points: 2
#     Edge 18, Type (0, 0), BuildingBlock: OJICUG_clean_linker_0, # of connection points: 2
#     Edge 19, Type (0, 0), BuildingBlock: OJICUG_clean_linker_0, # of connection points: 2
#     Edge 20, Type (0, 0), BuildingBlock: OJICUG_clean_linker_0, # of connection points: 2
#     Edge 21, Type (0, 0), BuildingBlock: OJICUG_clean_linker_0, # of connection points: 2
#     Edge 22, Type (0, 0), BuildingBlock: OJICUG_clean_linker_0, # of connection points: 2
#     Edge 23, Type (0, 0), BuildingBlock: OJICUG_clean_linker_0, # of connection points: 2
#     Edge 24, Type (0, 0), BuildingBlock: OJICUG_clean_linker_0, # of connection points: 2
#     Edge 25, Type (0, 0), BuildingBlock: OJICUG_clean_linker_0, # of connection points: 2
#     Edge 26, Type (0, 0), BuildingBlock: OJICUG_clean_linker_0, # of connection points: 2
#     Edge 27, Type (0, 0), BuildingBlock: OJICUG_clean_linker_0, # of connection points: 2
#     Edge 28, Type (0, 0), BuildingBlock: OJICUG_clean_linker_0, # of connection points: 2
#     Edge 29, Type (0, 0), BuildingBlock: OJICUG_clean_linker_0, # of connection points: 2
#     Edge 30, Type (0, 0), BuildingBlock: OJICUG_clean_linker_0, # of connection points: 2
#     Edge 31, Type (0, 0), BuildingBlock: OJICUG_clean_linker_0, # of connection points: 2
#     Edge 32, Type (0, 0), BuildingBlock: OJICUG_clean_linker_0, # of connection points: 2
#     Edge 33, Type (0, 0), BuildingBlock: OJICUG_clean_linker_0, # of connection points: 2
#     Edge 34, Type (0, 0), BuildingBlock: OJICUG_clean_linker_0, # of connection points: 2
#     Edge 35, Type (0, 0), BuildingBlock: OJICUG_clean_linker_0, # of connection points: 2
# Relax obj value: 0.147
# Max RMSD: 0.333
# Mean RMSD: 0.314
data_MOF--net-uol--node1-KOZSID_clean_sbu_0--edge1-OJICUG_clean_linker_0
_symmetry_space_group_name_H-M    P1
_symmetry_Int_Tables_number       1
_symmetry_cell_setting            triclinic
loop_
_symmetry_equiv_pos_as_xyz
'x, y, z'
_cell_length_a     31.560369
_cell_length_b     34.092259
_cell_length_c     51.605693
_cell_angle_alpha  90.027661
_cell_angle_beta   90.001664
_cell_angle_gamma 117.55326
loop_
_atom_site_label
_atom_site_type_symbol
_atom_site_fract_x
_atom_site_fract_y
_atom_site_fract_z
_atom_type_partial_charge
C0 C 0.18915 0.32978 0.07832 0.0
C1 C 0.17797 0.31397 0.05313 0.0
C2 C 0.13031 0.30151 0.04973 0.0
C3 C 0.11522 0.31061 0.07288 0.0
N4 N 0.15046 0.32817 0.0905 0.0
Co5 Co 0.14454 0.34624 0.12622 0.0
N6 N 0.07419 0.30804 0.12627 0.0
C7 C 0.04688 0.29067 0.10508 0.0
C8 C 0.99942 0.26533 0.11081 0.0
C9 C 0.99647 0.26737 0.13721 0.0
C10 C 0.04245 0.29449 0.14616 0.0
N11 N 0.13836 0.36483 0.16189 0.0
C12 C 0.10111 0.34732 0.17878 0.0
C13 C 0.11165 0.37261 0.2012 0.0
C14 C 0.15671 0.40719 0.19804 0.0
C15 C 0.17128 0.40131 0.17391 0.0
N16 N 0.21485 0.38386 0.1258 0.0
C17 C 0.23984 0.41802 0.14174 0.0
C18 C 0.28832 0.43593 0.1377 0.0
C19 C 0.29384 0.41137 0.11801 0.0
C20 C 0.24829 0.37986 0.11102 0.0
N21 N 0.13583 0.39625 0.11244 0.0
C22 C 0.13314 0.4753 0.0983 0.0
C23 C 0.16643 0.46367 0.08722 0.0
C24 C 0.16688 0.42407 0.0943 0.0
C25 C 0.09981 0.44521 0.11576 0.0
C26 C 0.10181 0.40619 0.12257 0.0
N27 N 0.15513 0.29771 0.14025 0.0
C28 C 0.20368 0.27739 0.16771 0.0
C29 C 0.18744 0.23628 0.15533 0.0
C30 C 0.15248 0.22595 0.13586 0.0
C31 C 0.13678 0.25702 0.12867 0.0
C32 C 0.18687 0.30698 0.16019 0.0
H33 H 0.1112 0.24882 0.11311 0.0
H34 H 0.20196 0.33862 0.1697 0.0
H35 H 0.19349 0.41666 0.08564 0.0
H36 H 0.0767 0.38484 0.13676 0.0
C37 C 0.06763 0.2944 0.08063 0.0
C38 C 0.23695 0.34744 0.08984 0.0
C39 C 0.05381 0.3099 0.17315 0.0
C40 C 0.21737 0.42544 0.16336 0.0
H41 H 0.2016 0.31124 0.03885 0.0
H42 H 0.10876 0.28539 0.03291 0.0
H43 H 0.97054 0.2467 0.09748 0.0
H44 H 0.96394 0.25121 0.14842 0.0
H45 H 0.08876 0.36718 0.21786 0.0
H46 H 0.17676 0.433 0.21191 0.0
H47 H 0.31647 0.46198 0.14873 0.0
H48 H 0.32748 0.41584 0.11005 0.0
H49 H 0.19231 0.48518 0.07323 0.0
H50 H 0.07338 0.45249 0.12492 0.0
H51 H 0.2312 0.2881 0.18243 0.0
H52 H 0.1378 0.19446 0.1259 0.0
C53 C 0.69489 0.16056 0.30257 0.0
C54 C 0.67578 0.18464 0.31539 0.0
C55 C 0.70819 0.20957 0.33368 0.0
C56 C 0.74474 0.19874 0.33161 0.0
N57 N 0.73766 0.16815 0.31323 0.0
Co58 Co 0.7804 0.14018 0.30654 0.0
N59 N 0.81971 0.16723 0.33847 0.0
C60 C 0.81618 0.19746 0.35393 0.0
C61 C 0.84702 0.21029 0.37449 0.0
C62 C 0.87281 0.18768 0.37168 0.0
C63 C 0.85617 0.16205 0.34939 0.0
N64 N 0.82353 0.11315 0.29939 0.0
C65 C 0.86193 0.11557 0.31271 0.0
C66 C 0.88328 0.09374 0.29965 0.0
C67 C 0.85867 0.07849 0.27698 0.0
C68 C 0.82355 0.09149 0.27754 0.0
N69 N 0.73913 0.11175 0.27535 0.0
C70 C 0.74982 0.09082 0.25624 0.0
C71 C 0.71683 0.07614 0.23661 0.0
C72 C 0.68302 0.08866 0.24353 0.0
C73 C 0.69701 0.11016 0.26725 0.0
N74 N 0.82502 0.19191 0.28504 0.0
C75 C 0.89825 0.2412 0.24894 0.0
C76 C 0.84978 0.2222 0.24181 0.0
C77 C 0.81379 0.19845 0.26023 0.0
C78 C 0.90842 0.23999 0.27514 0.0
C79 C 0.87186 0.21591 0.29266 0.0
N80 N 0.73861 0.08783 0.32771 0.0
C81 C 0.70773 1.00923 0.33516 0.0
C82 C 0.69881 1.0138 0.36132 0.0
C83 C 0.70722 0.05596 0.36976 0.0
C84 C 0.72634 0.0922 0.35264 0.0
C85 C 0.72742 0.04629 0.31885 0.0
H86 H 0.73292 0.12396 0.36006 0.0
H87 H 0.73566 0.04125 0.29935 0.0
H88 H 0.77726 0.18368 0.25373 0.0
H89 H 0.88345 0.2155 0.31199 0.0
C90 C 0.7819 0.21132 0.34931 0.0
C91 C 0.67157 0.13209 0.27995 0.0
C92 C 0.88259 0.14175 0.33628 0.0
C93 C 0.78952 0.08324 0.25821 0.0
H94 H 0.64157 0.18394 0.31229 0.0
H95 H 0.70438 0.2313 0.34775 0.0
H96 H 0.85081 0.23381 0.38956 0.0
H97 H 0.90214 0.19178 0.38406 0.0
H98 H 0.9145 0.09062 0.30553 0.0
H99 H 0.86594 0.0606 0.26175 0.0
H100 H 0.71723 0.05836 0.21931 0.0
H101 H 0.65228 0.08349 0.23199 0.0
H102 H 0.83966 0.22356 0.22191 0.0
H103 H 0.94496 0.25626 0.28209 0.0
H104 H 0.70195 0.97755 0.32752 0.0
H105 H 0.69988 0.06117 0.38961 0.0
C106 C 0.68601 0.83807 0.4178 0.0
C107 C 0.70741 0.84344 0.39367 0.0
C108 C 0.72646 0.8145 0.3927 0.0
C109 C 0.71582 0.79323 0.41623 0.0
N110 N 0.69121 0.80699 0.43182 0.0
Co111 Co 0.67026 0.78651 0.46768 0.0
N112 N 0.71799 0.76442 0.47143 0.0
C113 C 0.7406 0.7558 0.45183 0.0
C114 C 0.77177 0.74077 0.46023 0.0
C115 C 0.76817 0.73947 0.48673 0.0
C116 C 0.73463 0.75361 0.49306 0.0
N117 N 0.6489 0.76553 0.50348 0.0
C118 C 0.67093 0.7542 0.52249 0.0
C119 C 0.64239 0.74008 0.54442 0.0
C120 C 0.60103 0.74246 0.53873 0.0
C121 C 0.60647 0.75777 0.51368 0.0
N122 N 0.62311 0.80916 0.46365 0.0
C123 C 0.58356 0.7973 0.47803 0.0
C124 C 0.559 0.82022 0.47123 0.0
C125 C 0.58493 0.84808 0.45141 0.0
C126 C 0.62402 0.84067 0.44725 0.0
N127 N 0.62283 0.72803 0.45444 0.0
C128 C 0.54673 0.64523 0.44014 0.0
C129 C 0.55597 0.68398 0.42644 0.0
C130 C 0.59386 0.72489 0.43393 0.0
C131 C 0.57787 0.64884 0.46047 0.0
C132 C 0.61573 0.69014 0.46708 0.0
N133 N 0.71619 0.8447 0.48121 0.0
C134 C 0.72926 0.90711 0.508 0.0
C135 C 0.77326 0.93327 0.49603 0.0
C136 C 0.78971 0.91299 0.47767 0.0
C137 C 0.76069 0.86851 0.47064 0.0
C138 C 0.70139 0.86346 0.50025 0.0
H139 H 0.77333 0.85396 0.45591 0.0
H140 H 0.66672 0.84559 0.509 0.0
H141 H 0.59885 0.75423 0.42358 0.0
H142 H 0.63844 0.69145 0.483 0.0
C143 C 0.73704 0.76846 0.42641 0.0
C144 C 0.66 0.86184 0.42676 0.0
C145 C 0.71666 0.75287 0.51947 0.0
C146 C 0.57683 0.77212 0.5007 0.0
H147 H 0.70972 0.86625 0.37852 0.0
H148 H 0.74803 0.81141 0.37731 0.0
H149 H 0.79544 0.73304 0.44857 0.0
H150 H 0.78768 0.7289 0.49981 0.0
H151 H 0.65041 0.7288 0.56248 0.0
H152 H 0.57128 0.73521 0.55163 0.0
H153 H 0.52743 0.81864 0.48043 0.0
H154 H 0.57631 0.87126 0.44129 0.0
H155 H 0.53302 0.68305 0.41059 0.0
H156 H 0.57295 0.61987 0.47134 0.0
H157 H 0.71546 0.92068 0.52281 0.0
H158 H 0.82362 0.93177 0.46797 0.0
C159 C 0.87703 0.72569 0.57874 0.0
C160 C 0.88858 0.74174 0.55363 0.0
C161 C 0.93629 0.75422 0.55043 0.0
C162 C 0.95104 0.7449 0.57363 0.0
N163 N 0.91554 0.72717 0.59108 0.0
Co164 Co 0.92091 0.70894 0.62683 0.0
N165 N 0.99122 0.74718 0.62723 0.0
C166 C 1.01886 0.76463 0.60616 0.0
C167 C 0.06623 0.78993 0.61211 0.0
C168 C 0.06878 0.78777 0.63851 0.0
C169 C 1.02268 0.76062 0.64726 0.0
N170 N 0.92648 0.6904 0.66262 0.0
C171 C 0.96341 0.70799 0.67972 0.0
C172 C 0.95248 0.68273 0.70215 0.0
C173 C 0.9075 0.6481 0.69878 0.0
C174 C 0.89338 0.6539 0.67451 0.0
N175 N 0.85068 0.67108 0.62597 0.0
C176 C 0.82551 0.63681 0.64178 0.0
C177 C 0.77709 0.61883 0.6375 0.0
C178 C 0.7718 0.64347 0.6178 0.0
C179 C 0.81743 0.67511 0.61104 0.0
N180 N 0.93009 0.65906 0.6132 0.0
C181 C 0.9333 0.58029 0.59896 0.0
C182 C 0.90221 0.59331 0.58654 0.0
C183 C 0.901 0.63247 0.59397 0.0
C184 C 0.96418 0.60879 0.61788 0.0
C185 C 0.96243 0.648 0.62445 0.0
N186 N 0.90992 0.75735 0.64074 0.0
C187 C 0.86109 0.77766 0.66799 0.0
C188 C 0.87802 0.81904 0.65588 0.0
C189 C 0.91331 0.82943 0.63662 0.0
C190 C 0.9288 0.79823 0.62938 0.0
C191 C 0.87768 0.74792 0.66042 0.0
H192 H 0.95474 0.80652 0.61401 0.0
H193 H 0.86215 0.71612 0.66974 0.0
H194 H 0.87533 0.64049 0.5847 0.0
H195 H 0.98643 0.66866 0.63927 0.0
C196 C 0.9985 0.76105 0.58161 0.0
C197 C 0.82903 0.70783 0.59002 0.0
C198 C 1.01093 0.7452 0.67422 0.0
C199 C 0.84759 0.62956 0.66364 0.0
H200 H 0.86515 0.74458 0.53927 0.0
H201 H 0.9581 0.7705 0.53373 0.0
H202 H 0.0953 0.80862 0.59891 0.0
H203 H 0.10115 0.80392 0.64987 0.0
H204 H 0.97509 0.68817 0.71894 0.0
H205 H 0.88726 0.62225 0.71257 0.0
H206 H 0.7488 0.59276 0.64842 0.0
H207 H 0.73825 0.63904 0.60973 0.0
H208 H 0.87762 0.57254 0.57181 0.0
H209 H 0.98953 0.60079 0.62769 0.0
H210 H 0.83327 0.76691 0.68252 0.0
H211 H 0.92845 0.86111 0.62686 0.0
C212 C 0.37076 0.89425 0.80307 0.0
C213 C 0.38977 0.87003 0.8158 0.0
C214 C 0.35731 0.84503 0.83404 0.0
C215 C 0.32081 0.85595 0.83202 0.0
N216 N 0.32797 0.88664 0.81372 0.0
Co217 Co 0.28538 0.91478 0.80715 0.0
N218 N 0.24622 0.88788 0.83913 0.0
C219 C 0.24967 0.85755 0.85452 0.0
C220 C 0.21891 0.84478 0.87511 0.0
C221 C 0.19326 0.86753 0.87238 0.0
C222 C 0.20989 0.89318 0.85012 0.0
N223 N 0.24241 0.94202 0.80012 0.0
C224 C 0.20418 0.93979 0.81352 0.0
C225 C 0.18292 0.96176 0.80054 0.0
C226 C 0.20739 0.97689 0.77783 0.0
C227 C 0.24234 0.96368 0.77829 0.0
N228 N 0.3265 0.94308 0.77593 0.0
C229 C 0.31577 0.964 0.75684 0.0
C230 C 0.34872 0.97865 0.7372 0.0
C231 C 0.38255 0.96616 0.7441 0.0
C232 C 0.36863 0.94471 0.76782 0.0
N233 N 0.24048 0.86308 0.7857 0.0
C234 C 0.16688 0.81368 0.74978 0.0
C235 C 0.21528 0.83263 0.74251 0.0
C236 C 0.25146 0.85645 0.76084 0.0
C237 C 0.15697 0.81502 0.776 0.0
C238 C 0.1937 0.83914 0.79342 0.0
N239 N 0.32744 0.96707 0.8283 0.0
C240 C 0.3587 0.0457 0.8358 0.0
C241 C 0.36771 0.04108 0.86193 0.0
C242 C 0.35915 0.99888 0.87033 0.0
C243 C 0.33981 0.96265 0.85319 0.0
C244 C 0.33876 1.00865 0.81947 0.0
H245 H 0.33314 0.93085 0.86057 0.0
H246 H 0.33045 1.01372 0.8 0.0
H247 H 0.28793 0.8712 0.75425 0.0
H248 H 0.18228 0.83961 0.81278 0.0
C249 C 0.28375 0.84347 0.84978 0.0
C250 C 0.39418 0.92293 0.78056 0.0
C251 C 0.18351 0.91358 0.83707 0.0
C252 C 0.27619 0.97175 0.75889 0.0
H253 H 0.42398 0.87073 0.81272 0.0
H254 H 0.36108 0.82324 0.84806 0.0
H255 H 0.21507 0.82119 0.89013 0.0
H256 H 0.164 0.8635 0.8848 0.0
H257 H 0.15182 0.96504 0.8065 0.0
H258 H 0.20012 0.99483 0.76264 0.0
H259 H 0.34831 0.99645 0.71992 0.0
H260 H 0.41331 0.97136 0.73257 0.0
H261 H 0.22518 0.83117 0.72259 0.0
H262 H 0.12049 0.79881 0.78304 0.0
H263 H 0.36459 0.07744 0.8282 0.0
H264 H 0.36654 0.99363 0.89016 0.0
C265 C 0.38097 0.21698 0.91806 0.0
C266 C 0.35978 0.21144 0.89385 0.0
C267 C 0.34077 0.24039 0.89266 0.0
C268 C 0.35121 0.26184 0.91614 0.0
N269 N 0.37566 0.24817 0.93191 0.0
Co270 Co 0.39638 0.26902 0.96775 0.0
N271 N 0.34863 0.29116 0.97118 0.0
C272 C 0.3261 0.29955 0.95145 0.0
C273 C 0.29485 0.31461 0.95967 0.0
C274 C 0.29831 0.31616 0.98618 0.0
C275 C 0.33184 0.30212 0.99271 0.0
N276 N 0.41771 0.2906 1.00346 0.0
C277 C 0.39566 0.30225 0.0223 0.0
C278 C 0.42416 0.31674 0.04424 0.0
C279 C 0.46551 0.31424 0.03874 0.0
C280 C 0.4601 0.29849 0.01378 0.0
N281 N 0.44339 0.24609 0.96412 0.0
C282 C 0.48283 0.25802 0.97861 0.0
C283 C 0.50731 0.2349 0.97207 0.0
C284 C 0.48144 0.20683 0.95229 0.0
C285 C 0.44249 0.21434 0.94789 0.0
N286 N 0.44394 0.32725 0.95433 0.0
C287 C 0.51985 0.41 0.93976 0.0
C288 C 0.51268 0.37064 0.92742 0.0
C289 C 0.47448 0.3299 0.93477 0.0
C290 C 0.4868 0.4069 0.95888 0.0
C291 C 0.44947 0.36552 0.96589 0.0
N292 N 0.3503 0.21104 0.98142 0.0
C293 C 0.33704 0.14877 0.00835 0.0
C294 C 0.29322 0.12251 0.99621 0.0
C295 C 0.2769 0.14269 0.97772 0.0
C296 C 0.30594 0.18714 0.9707 0.0
C297 C 0.3649 0.19244 1.00064 0.0
H298 H 0.29344 0.20158 0.95585 0.0
H299 H 0.39945 0.21043 0.00953 0.0
H300 H 0.47043 0.30032 0.92505 0.0
H301 H 0.42596 0.3645 0.98132 0.0
C302 C 0.32988 0.28668 0.92611 0.0
C303 C 0.40676 0.19317 0.92727 0.0
C304 C 0.34979 0.30322 0.01916 0.0
C305 C 0.48963 0.2837 1.00108 0.0
H306 H 0.35754 0.18848 0.87879 0.0
H307 H 0.31933 0.24335 0.87716 0.0
H308 H 0.27123 0.32221 0.94788 0.0
H309 H 0.27874 0.32687 0.99915 0.0
H310 H 0.41607 0.32825 0.06221 0.0
H311 H 0.49519 0.32161 0.05172 0.0
H312 H 0.5388 0.23654 0.9814 0.0
H313 H 0.49007 0.18351 0.94233 0.0
H314 H 0.53657 0.3712 0.9122 0.0
H315 H 0.49069 0.43611 0.96913 0.0
H316 H 0.3507 0.13524 0.02324 0.0
H317 H 0.24313 0.12382 0.9679 0.0
C318 C 0.56223 0.89527 0.71223 0.0
C319 C 0.51906 0.8712 0.6994 0.0
C320 C 0.52657 0.84628 0.68111 0.0
C321 C 0.57394 0.85712 0.68318 0.0
N322 N 0.59743 0.8877 0.70157 0.0
Co323 Co 0.66811 0.91566 0.70827 0.0
N324 N 0.6804 0.88863 0.67633 0.0
C325 C 0.64668 0.85841 0.66087 0.0
C326 C 0.66469 0.84559 0.6403 0.0
C327 C 0.71308 0.8682 0.64313 0.0
C328 C 0.72204 0.89382 0.66542 0.0
N329 N 0.73825 0.94268 0.71543 0.0
C330 C 0.77424 0.94028 0.70212 0.0
C331 C 0.81739 0.9621 0.71518 0.0
C332 C 0.80802 0.97734 0.73786 0.0
C333 C 0.75991 0.96433 0.73729 0.0
N334 N 0.65524 0.94407 0.73946 0.0
C335 C 0.68683 0.96499 0.75858 0.0
C336 C 0.66851 0.97966 0.77821 0.0
C337 C 0.62219 0.96714 0.77128 0.0
C338 C 0.61471 0.94566 0.74757 0.0
N339 N 0.66102 0.86391 0.72976 0.0
C340 C 0.68497 0.81459 0.76585 0.0
C341 C 0.65549 0.83359 0.77298 0.0
C342 C 0.64325 0.85736 0.75457 0.0
C343 C 0.69635 0.81582 0.73965 0.0
C344 C 0.68388 0.83991 0.72214 0.0
N345 N 0.67865 0.96802 0.68711 0.0
C346 C 0.72637 0.04661 0.67966 0.0
C347 C 0.71291 0.04205 0.6535 0.0
C348 C 0.67916 0.9999 0.64506 0.0
C349 C 0.66203 0.96366 0.66218 0.0
C350 C 0.70899 1.00955 0.69597 0.0
H351 H 0.63685 0.93191 0.65476 0.0
H352 H 0.72225 1.01459 0.71547 0.0
H353 H 0.62148 0.87213 0.76107 0.0
H354 H 0.69588 0.84034 0.70281 0.0
C355 C 0.59853 0.84454 0.66548 0.0
C356 C 0.56735 0.92372 0.73485 0.0
C357 C 0.76875 0.91412 0.67853 0.0
C358 C 0.73411 0.97257 0.75661 0.0
H359 H 0.48555 0.87189 0.7025 0.0
H360 H 0.50105 0.82456 0.66703 0.0
H361 H 0.64499 0.82208 0.62523 0.0
H362 H 0.73832 0.86412 0.63075 0.0
H363 H 0.85174 0.96523 0.7093 0.0
H364 H 0.83317 0.99522 0.75309 0.0
H365 H 0.68668 0.99743 0.79551 0.0
H366 H 0.59661 0.9723 0.78282 0.0
H367 H 0.64401 0.83222 0.79288 0.0
H368 H 0.71663 0.79955 0.7327 0.0
H369 H 0.75227 0.07829 0.6873 0.0
H370 H 0.66662 0.99469 0.6252 0.0
C371 C 0.88723 0.72589 0.93648 0.0
C372 C 0.89186 0.74171 0.96166 0.0
C373 C 0.85665 0.75417 0.96507 0.0
C374 C 0.83246 0.74507 0.94191 0.0
N375 N 0.85015 0.7275 0.92429 0.0
Co376 Co 0.82618 0.70945 0.88858 0.0
N377 N 0.79404 0.74766 0.88852 0.0
C378 C 0.78408 0.76504 0.9097 0.0
C379 C 0.76197 0.79039 0.90397 0.0
C380 C 0.75698 0.78835 0.87757 0.0
C381 C 0.77584 0.76122 0.86862 0.0
N382 N 0.80143 0.69086 0.8529 0.0
C383 C 0.7817 0.70838 0.836 0.0
C384 C 0.76695 0.68309 0.81358 0.0
C385 C 0.77745 0.6485 0.81675 0.0
C386 C 0.79788 0.65437 0.84088 0.0
N387 N 0.85888 0.67181 0.889 0.0
C388 C 0.84973 0.63764 0.87306 0.0
C389 C 0.8803 0.61973 0.87711 0.0
C390 C 0.91037 0.64429 0.89679 0.0
C391 C 0.89632 0.67581 0.90377 0.0
N392 N 0.76748 0.65944 0.90235 0.0
C393 C 0.68576 0.58042 0.91648 0.0
C394 C 0.73068 0.59203 0.92757 0.0
C395 C 0.77072 0.63162 0.92049 0.0
C396 C 0.68252 0.61052 0.89903 0.0
C397 C 0.72354 0.64953 0.89221 0.0
N398 N 0.88529 0.75797 0.87454 0.0
C399 C 0.95416 0.77827 0.84709 0.0
C400 C 0.97901 0.81937 0.85948 0.0
C401 C 0.95438 0.82971 0.87894 0.0
C402 C 0.90762 0.79865 0.88613 0.0
C403 C 0.90777 0.74869 0.85461 0.0
H404 H 0.89024 0.80686 0.90169 0.0
H405 H 0.89122 0.71704 0.84509 0.0
H406 H 0.80472 0.63901 0.92914 0.0
H407 H 0.71977 0.67088 0.87803 0.0
C408 C 0.80109 0.76129 0.93416 0.0
C409 C 0.91738 0.70823 0.92496 0.0
C410 C 0.7718 0.74581 0.84164 0.0
C411 C 0.81984 0.63023 0.85144 0.0
H412 H 0.91822 0.74443 0.97594 0.0
H413 H 0.85122 0.7703 0.98188 0.0
H414 H 0.75171 0.80902 0.9173 0.0
H415 H 0.74061 0.80452 0.86636 0.0
H416 H 0.74951 0.68853 0.79692 0.0
H417 H 0.77169 0.62269 0.80288 0.0
H418 H 0.88242 0.59368 0.86608 0.0
H419 H 0.93954 0.63982 0.90476 0.0
H420 H 0.73504 0.57051 0.94156 0.0
H421 H 0.64882 0.60326 0.88986 0.0
H422 H 0.97096 0.76754 0.83238 0.0
H423 H 0.97118 0.86119 0.8889 0.0
C424 C 0.19186 0.83883 0.09671 0.0
C425 C 0.17621 0.8444 0.12092 0.0
C426 C 0.12825 0.81548 0.1221 0.0
C427 C 0.11726 0.79403 0.09862 0.0
N428 N 0.15537 0.80766 0.08286 0.0
Co429 Co 0.15525 0.78679 0.04703 0.0
N430 N 0.08538 0.7647 0.04359 0.0
C431 C 0.05446 0.75635 0.06331 0.0
C432 C 1.00816 0.74131 0.05509 0.0
C433 C 1.01007 0.73973 0.02857 0.0
C434 C 0.05763 0.75373 0.02206 0.0
N435 N 0.155 0.76519 0.01132 0.0
C436 C 0.12131 0.75354 0.99248 0.0
C437 C 0.13532 0.73902 0.97054 0.0
C438 C 0.17914 0.7415 0.97606 0.0
C439 C 0.18948 0.75726 1.00101 0.0
N440 N 0.22516 0.80967 0.05067 0.0
C441 C 0.25266 0.79771 0.03619 0.0
C442 C 0.30024 0.8208 0.04273 0.0
C443 C 0.30244 0.84887 0.06251 0.0
C444 C 0.256 0.84141 0.0669 0.0
N445 N 0.14454 0.72854 0.06046 0.0
C446 C 0.13768 0.64577 0.07504 0.0
C447 C 0.16987 0.68513 0.08738 0.0
C448 C 0.17241 0.72588 0.08003 0.0
C449 C 0.10775 0.64889 0.05591 0.0
C450 C 0.11181 0.69029 0.04889 0.0
N451 N 0.16716 0.84477 0.03334 0.0
C452 C 0.21617 0.90703 1.00641 0.0
C453 C 0.19861 0.93331 0.01854 0.0
C454 C 0.16213 0.91316 0.03702 0.0
C455 C 0.1467 0.8687 0.04405 0.0
C456 C 0.20035 0.86335 0.01413 0.0
H457 H 0.11977 0.85429 0.0589 0.0
H458 H 0.2169 0.84534 1.00525 0.0
H459 H 0.19795 0.75545 0.08974 0.0
H460 H 0.08933 0.69132 0.03347 0.0
C461 C 0.07109 0.76922 0.08865 0.0
C462 C 0.24145 0.8626 0.08751 0.0
C463 C 0.07448 0.7526 0.99561 0.0
C464 C 0.23378 0.77202 0.01371 0.0
H465 H 0.19692 0.86734 0.13598 0.0
H466 H 0.10385 0.81254 0.1376 0.0
H467 H 0.97695 0.73373 0.06687 0.0
H468 H 0.97981 0.72903 0.0156 0.0
H469 H 0.11572 0.7275 0.95258 0.0
H470 H 0.20144 0.73409 0.96309 0.0
H471 H 0.33008 0.81912 0.03342 0.0
H472 H 0.33439 0.87218 0.07248 0.0
H473 H 0.19319 0.68455 0.1026 0.0
H474 H 0.08243 0.61969 0.04566 0.0
H475 H 0.24335 0.92053 0.99152 0.0
H476 H 0.14722 0.93204 0.04684 0.0
C477 C 0.50437 0.16147 0.21174 0.0
C478 C 0.54758 0.18569 0.199 0.0
C479 C 0.54009 0.21069 0.18076 0.0
C480 C 0.49269 0.19976 0.18278 0.0
N481 N 0.46918 0.16907 0.20108 0.0
Co482 Co 0.39846 0.14092 0.20766 0.0
N483 N 0.38617 0.1678 0.17567 0.0
C484 C 0.41992 0.19813 0.16029 0.0
C485 C 0.40191 0.21088 0.13969 0.0
C486 C 0.35352 0.18811 0.14242 0.0
C487 C 0.34453 0.16247 0.16469 0.0
N488 N 0.32828 0.11367 0.21469 0.0
C489 C 0.29227 0.11587 0.20129 0.0
C490 C 0.24905 0.09389 0.21427 0.0
C491 C 0.25842 0.07878 0.23699 0.0
C492 C 0.30658 0.09201 0.23653 0.0
N493 N 0.41132 0.11264 0.23888 0.0
C494 C 0.37971 0.09173 0.25798 0.0
C495 C 0.39803 0.07709 0.27762 0.0
C496 C 0.44434 0.08959 0.27071 0.0
C497 C 0.45183 0.11102 0.247 0.0
N498 N 0.40523 0.19262 0.2291 0.0
C499 C 0.38102 0.24205 0.26501 0.0
C500 C 0.4105 0.22312 0.27228 0.0
C501 C 0.42285 0.19928 0.25395 0.0
C502 C 0.36974 0.24068 0.2388 0.0
C503 C 0.38235 0.21654 0.22138 0.0
N504 N 0.38828 0.08862 0.18651 0.0
C505 C 0.34092 1.01 0.17902 0.0
C506 C 0.35453 1.01462 0.15288 0.0
C507 C 0.38816 0.05682 0.14448 0.0
C508 C 0.40505 0.09304 0.16162 0.0
C509 C 0.35805 0.04705 0.19535 0.0
H510 H 0.43016 0.12484 0.15424 0.0
H511 H 0.34468 0.04198 0.21482 0.0
H512 H 0.4446 0.18455 0.26054 0.0
H513 H 0.37043 0.21604 0.20202 0.0
C514 C 0.46808 0.21222 0.16502 0.0
C515 C 0.49915 0.13281 0.23425 0.0
C516 C 0.29777 0.14206 0.17774 0.0
C517 C 0.33238 0.08397 0.25593 0.0
H518 H 0.5811 0.18501 0.20208 0.0
H519 H 0.56563 0.23248 0.16673 0.0
H520 H 0.42163 0.23446 0.12467 0.0
H521 H 0.32828 0.19212 0.13 0.0
H522 H 0.21467 0.09059 0.20831 0.0
H523 H 0.23323 0.06084 0.25218 0.0
H524 H 0.37983 0.0593 0.2949 0.0
H525 H 0.46991 0.0844 0.28225 0.0
H526 H 0.42188 0.2246 0.2922 0.0
H527 H 0.34944 0.25687 0.23176 0.0
H528 H 0.3151 0.97827 0.18661 0.0
H529 H 0.40077 0.06206 0.12465 0.0
C530 C 0.17924 0.33016 0.43605 0.0
C531 C 0.17476 0.31412 0.46116 0.0
C532 C 0.21 0.30164 0.46436 0.0
C533 C 0.23406 0.31096 0.44116 0.0
N534 N 0.21627 0.32868 0.42371 0.0
Co535 Co 0.23985 0.3469 0.38796 0.0
N536 N 0.27193 0.30865 0.38756 0.0
C537 C 0.28214 0.29121 0.40862 0.0
C538 C 0.30422 0.26591 0.40268 0.0
C539 C 0.30892 0.26805 0.37627 0.0
C540 C 0.28994 0.2952 0.36752 0.0
N541 N 0.26392 0.36543 0.35217 0.0
C542 C 0.28326 0.34783 0.33506 0.0
C543 C 0.29757 0.37308 0.31263 0.0
C544 C 0.28721 0.40772 0.316 0.0
C545 C 0.2673 0.40192 0.34027 0.0
N546 N 0.20745 0.38476 0.38882 0.0
C547 C 0.21652 0.41903 0.373 0.0
C548 C 0.18607 0.43701 0.37729 0.0
C549 C 0.15616 0.41237 0.39699 0.0
C550 C 0.17018 0.38074 0.40375 0.0
N551 N 0.29888 0.39678 0.40158 0.0
C552 C 0.38084 0.47553 0.41582 0.0
C553 C 0.33674 0.46253 0.42824 0.0
C554 C 0.29638 0.42337 0.42081 0.0
C555 C 0.38322 0.44703 0.3969 0.0
C556 C 0.34226 0.40783 0.39033 0.0
N557 N 0.18047 0.29849 0.37406 0.0
C558 C 0.11132 0.27818 0.34681 0.0
C559 C 0.08689 0.23681 0.35892 0.0
C560 C 0.1118 0.22642 0.37819 0.0
C561 C 0.15849 0.25762 0.38542 0.0
C562 C 0.15764 0.30791 0.35437 0.0
H563 H 0.17613 0.24932 0.40079 0.0
H564 H 0.1739 0.33971 0.34505 0.0
H565 H 0.26271 0.41536 0.43008 0.0
H566 H 0.3456 0.38716 0.37551 0.0
C567 C 0.26537 0.2948 0.43318 0.0
C568 C 0.14909 0.34801 0.42476 0.0
C569 C 0.29359 0.31062 0.34057 0.0
C570 C 0.24584 0.42627 0.35115 0.0
H571 H 0.14849 0.31128 0.47552 0.0
H572 H 0.21554 0.28536 0.48106 0.0
H573 H 0.31462 0.24722 0.41588 0.0
H574 H 0.32514 0.2519 0.36492 0.0
H575 H 0.31473 0.36763 0.29584 0.0
H576 H 0.2928 0.43357 0.30221 0.0
H577 H 0.18383 0.46307 0.36636 0.0
H578 H 0.12704 0.4168 0.40505 0.0
H579 H 0.33291 0.4833 0.44297 0.0
H580 H 0.41656 0.45502 0.38708 0.0
H581 H 0.09425 0.28893 0.33228 0.0
H582 H 0.09528 0.19475 0.38795 0.0
C583 C 0.87588 0.21767 0.59697 0.0
C584 C 0.89192 0.21228 0.6211 0.0
C585 C 0.9399 0.24118 0.62206 0.0
C586 C 0.95051 0.26245 0.59854 0.0
N587 N 0.91214 0.24872 0.58295 0.0
Co588 Co 0.91167 0.26922 0.5471 0.0
N589 N 0.98146 0.29126 0.54333 0.0
C590 C 1.0127 0.29985 0.56293 0.0
C591 C 0.05887 0.31485 0.55452 0.0
C592 C 0.05655 0.31617 0.52802 0.0
C593 C 1.00889 0.30207 0.52169 0.0
N594 N 0.91126 0.29022 0.5113 0.0
C595 C 0.94461 0.30154 0.49228 0.0
C596 C 0.93018 0.31569 0.47036 0.0
C597 C 0.88647 0.31334 0.47606 0.0
C598 C 0.87661 0.29801 0.50111 0.0
N599 N 0.84189 0.24663 0.55114 0.0
C600 C 0.81421 0.25852 0.53677 0.0
C601 C 0.76674 0.23564 0.54358 0.0
C602 C 0.76482 0.20777 0.5634 0.0
C603 C 0.81129 0.21513 0.56754 0.0
N604 N 0.92274 0.32771 0.56034 0.0
C605 C 0.92948 0.41054 0.57464 0.0
C606 C 0.89996 0.3718 0.58835 0.0
C607 C 0.89694 0.33088 0.58086 0.0
C608 C 0.95699 0.40691 0.55432 0.0
C609 C 0.95353 0.36559 0.54771 0.0
N610 N 0.89937 0.21102 0.53356 0.0
C611 C 0.85002 0.14863 0.50677 0.0
C612 C 0.86785 0.12244 0.51872 0.0
C613 C 0.90459 0.1427 0.53708 0.0
C614 C 0.92006 0.18718 0.54412 0.0
C615 C 0.86581 0.19229 0.51452 0.0
H616 H 0.94725 0.20171 0.55884 0.0
H617 H 0.84902 0.21018 0.50578 0.0
H618 H 0.87259 0.30155 0.59121 0.0
H619 H 0.97492 0.36427 0.53178 0.0
C620 C 0.99649 0.28719 0.58835 0.0
C621 C 0.8261 0.19394 0.58803 0.0
C622 C 0.99165 0.30284 0.49529 0.0
C623 C 0.83264 0.2837 0.5141 0.0
H624 H 0.87143 0.18948 0.63626 0.0
H625 H 0.96456 0.24424 0.63745 0.0
H626 H 0.09027 0.32255 0.56618 0.0
H627 H 0.08663 0.32673 0.51494 0.0
H628 H 0.94948 0.32698 0.4523 0.0
H629 H 0.86397 0.32062 0.46317 0.0
H630 H 0.73677 0.23725 0.53439 0.0
H631 H 0.73302 0.1846 0.57353 0.0
H632 H 0.87797 0.37275 0.6042 0.0
H633 H 0.98103 0.43587 0.54344 0.0
H634 H 0.82265 0.13508 0.49196 0.0
H635 H 0.91972 0.1239 0.54677 0.0
C636 C 0.17879 0.59897 0.08533 0.0
C637 C 0.13627 0.6021 0.08143 0.0
H638 H 0.21125 0.55719 0.09348 0.0
C639 C 0.09259 0.56295 0.08312 0.0
H640 H 0.21314 0.62816 0.08394 0.0
C641 C 0.0915 0.52207 0.08864 0.0
C642 C 0.13406 0.5189 0.09229 0.0
H643 H 0.05907 0.56393 0.08041 0.0
H644 H 0.05719 0.49276 0.08971 0.0
C645 C 0.17771 0.55804 0.09051 0.0
C646 C 0.58554 0.09179 0.26246 0.0
C647 C 0.62716 0.13162 0.2678 0.0
H648 H 0.51364 0.06068 0.24724 0.0
C649 C 0.62588 0.17146 0.26192 0.0
H650 H 0.58479 0.06037 0.26671 0.0
C651 C 0.58422 0.17163 0.25231 0.0
C652 C 0.54297 0.13198 0.24632 0.0
H653 H 0.65717 0.2029 0.26517 0.0
H654 H 0.58461 0.2032 0.24918 0.0
C655 C 0.54444 0.09196 0.25155 0.0
C656 C 0.49236 0.58749 0.40799 0.0
C657 C 0.50443 0.6016 0.43382 0.0
H658 H 0.44467 0.53694 0.38211 0.0
C659 C 0.47547 0.57369 0.45368 0.0
H660 H 0.51384 0.60789 0.39219 0.0
C661 C 0.43549 0.53313 0.44789 0.0
C662 C 0.42366 0.51882 0.42208 0.0
H663 H 0.48329 0.58353 0.47378 0.0
H664 H 0.4141 0.5127 0.46371 0.0
C665 C 0.45285 0.54657 0.40223 0.0
C666 C 0.93428 0.50924 0.61256 0.0
C667 C 0.93283 0.53699 0.5927 0.0
H668 H 0.93395 0.4479 0.62259 0.0
C669 C 0.93035 0.52267 0.56689 0.0
H670 H 0.93574 0.51887 0.63267 0.0
C671 C 0.92976 0.4821 0.56111 0.0
C672 C 0.93081 0.45418 0.58096 0.0
H673 H 0.92938 0.54311 0.55107 0.0
H674 H 0.92773 0.47225 0.541 0.0
C675 C 0.93286 0.4683 0.60679 0.0
C676 C 0.52158 0.964 0.75235 0.0
C677 C 0.5234 0.92418 0.74701 0.0
H678 H 0.48075 0.99508 0.76759 0.0
C679 C 0.48232 0.88433 0.75288 0.0
H680 H 0.55222 0.99542 0.74811 0.0
C681 C 0.44048 0.88413 0.76249 0.0
C682 C 0.43884 0.92378 0.76848 0.0
H683 H 0.48219 0.85289 0.74963 0.0
H684 H 0.40932 0.85256 0.76562 0.0
C685 C 0.48029 0.9638 0.76327 0.0
C686 C 0.60774 0.45676 0.92948 0.0
C687 C 0.56211 0.45366 0.93337 0.0
H688 H 0.68197 0.49851 0.92132 0.0
C689 C 0.5576 0.49283 0.93167 0.0
H690 H 0.6129 0.42756 0.93087 0.0
C691 C 0.59737 0.5337 0.92615 0.0
C692 C 0.64309 0.53683 0.92251 0.0
H693 H 0.52311 0.49188 0.93438 0.0
H694 H 0.59238 0.56301 0.92508 0.0
C695 C 0.64759 0.49768 0.92428 0.0
C696 C 0.25553 0.18553 0.19203 0.0
C697 C 0.26336 0.16048 0.17278 0.0
H698 H 0.22363 0.22648 0.20237 0.0
C699 C 0.24104 0.15603 0.14858 0.0
H700 H 0.27159 0.18917 0.21101 0.0
C701 C 0.21498 0.17919 0.14308 0.0
C702 C 0.20933 0.20643 0.16194 0.0
H703 H 0.24559 0.13619 0.1335 0.0
H704 H 0.20114 0.17714 0.12367 0.0
C705 C 0.22845 0.20758 0.18684 0.0
C706 C 0.95333 0.15574 0.36541 0.0
C707 C 0.93542 0.16028 0.34124 0.0
H708 H 1.01431 0.17699 0.39037 0.0
C709 C 0.96824 0.18563 0.32207 0.0
H710 H 0.92897 0.13569 0.38043 0.0
C711 C 1.01733 0.20795 0.32733 0.0
C712 C 0.03529 0.2067 0.35222 0.0
H713 H 0.95579 0.18935 0.30312 0.0
H714 H 0.04101 0.22714 0.31188 0.0
C715 C 1.0025 0.17912 0.37097 0.0
C716 C 0.87187 0.05062 0.51032 0.0
C717 C 0.84507 0.07387 0.51316 0.0
H718 H 0.87052 0.98797 0.50245 0.0
C719 C 0.79515 0.05038 0.51031 0.0
H720 H 0.91039 0.0677 0.51229 0.0
C721 C 0.77264 1.00536 0.50445 0.0
C722 C 0.79905 0.98184 0.50159 0.0
H723 H 0.77308 0.06676 0.51278 0.0
H724 H 0.7342 0.989 0.50198 0.0
C725 C 0.84909 1.00507 0.50443 0.0
C726 C 0.85131 0.87676 0.64384 0.0
C727 C 0.85652 0.84916 0.6626 0.0
H728 H 0.8212 0.9202 0.63439 0.0
C729 C 0.83731 0.8479 0.68748 0.0
H730 H 0.86526 0.87889 0.62445 0.0
C731 C 0.81053 0.87022 0.69274 0.0
C732 C 0.80306 0.89559 0.67357 0.0
H733 H 0.84181 0.8287 0.70293 0.0
H734 H 0.79436 0.8665 0.7117 0.0
C735 C 0.82551 0.90014 0.64941 0.0
C736 C 0.06361 0.87644 0.87173 0.0
C737 C 1.03074 0.8492 0.85287 0.0
H738 H 0.13719 0.91944 0.88131 0.0
C739 C 0.0487 0.84805 0.82797 0.0
H740 H 0.05183 0.87849 0.89114 0.0
C741 C 0.09782 0.8701 0.82278 0.0
C742 C 0.13069 0.89515 0.84203 0.0
H743 H 1.025 0.82916 0.81244 0.0
H744 H 0.11024 0.86647 0.8038 0.0
C745 C 0.11281 0.89959 0.86623 0.0
C746 C 0.27135 1.00536 0.01023 0.0
C747 C 0.22143 0.98187 0.01304 0.0
H748 H 0.33234 0.06684 1.0021 0.0
C749 C 0.19464 1.00514 0.01026 0.0
H750 H 0.29339 0.98894 0.01265 0.0
C751 C 0.21742 0.05071 1.00448 0.0
C752 C 0.26747 0.07395 1.0017 0.0
H753 H 0.15611 0.98805 0.01221 0.0
H754 H 0.196 0.06782 1.00253 0.0
C755 C 0.29388 0.05043 1.00451 0.0
C756 C 0.26644 0.29467 0.07438 0.0
C757 C 0.27357 0.33849 0.07636 0.0
H758 H 0.28547 0.24929 0.05481 0.0
C759 C 0.30978 0.37139 0.06138 0.0
H760 H 0.23814 0.26856 0.08533 0.0
C761 C 0.33693 0.36037 0.04407 0.0
C762 C 0.32793 0.31616 0.04112 0.0
H763 H 0.31506 0.40511 0.06185 0.0
H764 H 0.36303 0.38592 0.03182 0.0
C765 C 0.29336 0.28361 0.05693 0.0
C766 C 0.97828 0.25213 0.23224 0.0
C767 C 0.93838 0.26014 0.2296 0.0
H768 H 0.04558 0.26157 0.21665 0.0
C769 C 0.93767 0.28603 0.20853 0.0
H770 H 0.98004 0.23194 0.24799 0.0
C771 C 0.97566 0.30323 0.19068 0.0
C772 C 1.0148 0.29424 0.19313 0.0
H773 H 0.90802 0.29336 0.20598 0.0
H774 H 0.97419 0.32311 0.17467 0.0
C775 C 1.01592 0.26898 0.21428 0.0
C776 C 0.65101 0.93219 0.37186 0.0
C777 C 0.68367 0.97538 0.37968 0.0
H778 H 0.6172 0.86269 0.38086 0.0
C779 C 0.70461 0.98091 0.40445 0.0
H780 H 0.63374 0.92653 0.35312 0.0
C781 C 0.69503 0.94417 0.4203 0.0
C782 C 0.66395 0.90111 0.41191 0.0
H783 H 0.73026 1.01345 0.41109 0.0
H784 H 0.7134 0.94925 0.4387 0.0
C785 C 0.64117 0.89559 0.38781 0.0
C786 C 0.79995 0.76095 0.57463 0.0
C787 C 0.79259 0.71705 0.57653 0.0
H788 H 0.78118 0.80658 0.55518 0.0
C789 C 0.75616 0.68427 0.56159 0.0
H790 H 0.8284 0.78698 0.58556 0.0
C791 C 0.729 0.69548 0.54438 0.0
C792 C 0.73824 0.73975 0.54149 0.0
H793 H 0.7507 0.65049 0.56197 0.0
H794 H 0.70275 0.67 0.53213 0.0
C795 C 0.77306 0.7722 0.55726 0.0
C796 C 0.08683 0.80294 0.73323 0.0
C797 C 0.12656 0.79467 0.73055 0.0
H798 H 1.01958 0.79377 0.71771 0.0
C799 C 0.1269 0.76845 0.70957 0.0
H800 H 0.08536 0.82337 0.74893 0.0
C801 C 0.08875 0.75122 0.6918 0.0
C802 C 0.04984 0.76054 0.69425 0.0
H803 H 0.15641 0.76092 0.707 0.0
H804 H 0.08998 0.73115 0.67583 0.0
C805 C 0.04905 0.78609 0.71535 0.0
C806 C 0.37158 0.11083 0.92088 0.0
C807 C 0.4029 0.15383 0.91253 0.0
H808 H 0.33606 0.04155 0.91162 0.0
C809 C 0.42588 0.15924 0.88851 0.0
H810 H 0.35305 0.10584 0.93922 0.0
C811 C 0.41595 0.12259 0.87256 0.0
C812 C 0.38301 0.07948 0.88032 0.0
H813 H 0.45002 0.1921 0.8816 0.0
H814 H 0.43332 0.12816 0.85385 0.0
C815 C 0.36192 0.07404 0.90503 0.0
C816 C 0.75405 0.80362 0.78255 0.0
C817 C 0.70615 0.79563 0.78519 0.0
H818 H 0.8119 0.79416 0.79814 0.0
C819 C 0.67956 0.76972 0.80624 0.0
H820 H 0.776 0.82383 0.76681 0.0
C821 C 0.70033 0.7525 0.8241 0.0
C822 C 0.74846 0.76148 0.82166 0.0
H823 H 0.64257 0.76239 0.80879 0.0
H824 H 0.67898 0.73261 0.8401 0.0
C825 C 0.77484 0.78676 0.80051 0.0
C826 C 0.99962 0.76105 0.94039 0.0
C827 C 0.96297 0.71722 0.93842 0.0
H828 H 0.06399 0.80647 0.95994 0.0
C829 C 0.96633 0.68434 0.9534 0.0
H830 H 0.99738 0.78714 0.92943 0.0
C831 C 1.00452 0.6954 0.97072 0.0
C832 C 0.03967 0.73962 0.97365 0.0
H833 H 0.93792 0.65061 0.95295 0.0
H834 H 1.00511 0.66987 0.98297 0.0
C835 C 0.0376 0.77214 0.95784 0.0
C836 C 0.2945 0.89648 0.12628 0.0
C837 C 0.27693 0.90192 0.10226 0.0
H838 H 0.33302 0.92751 0.16094 0.0
C839 C 0.28862 0.94494 0.09392 0.0
H840 H 0.28576 0.8636 0.13319 0.0
C841 C 0.31576 0.9817 0.10978 0.0
C842 C 0.33141 0.97623 0.13449 0.0
H843 H 0.27509 0.94995 0.07559 0.0
H844 H 0.32241 1.01421 0.1032 0.0
C845 C 0.32122 0.9331 0.14223 0.0
C846 C 0.31173 0.25281 0.28157 0.0
C847 C 0.35972 0.26108 0.28423 0.0
H848 H 0.25366 0.262 0.2971 0.0
C849 C 0.38628 0.28733 0.30521 0.0
H850 H 0.28982 0.23236 0.26588 0.0
C851 C 0.36538 0.30458 0.32297 0.0
C852 C 0.31715 0.29526 0.32053 0.0
H853 H 0.42333 0.29487 0.30777 0.0
H854 H 0.38669 0.32468 0.33894 0.0
C855 C 0.29081 0.26969 0.29945 0.0
C856 C 0.09971 0.37152 0.45319 0.0
C857 C 0.1034 0.33875 0.43824 0.0
H858 H 0.06053 0.38574 0.48265 0.0
C859 C 0.06691 0.29485 0.44014 0.0
H860 H 0.12799 0.4053 0.45281 0.0
C861 C 1.02877 0.28357 0.4575 0.0
C862 C 1.02635 0.316 0.47328 0.0
H863 H 0.06937 0.26883 0.4292 0.0
H864 H 1.00255 0.24918 0.45958 0.0
C865 C 0.06134 0.36028 0.47039 0.0
C866 C 0.75161 0.0749 0.61037 0.0
C867 C 0.73622 0.08046 0.63514 0.0
H868 H 0.79204 0.1065 0.57611 0.0
C869 C 0.74678 0.12367 0.64294 0.0
H870 H 0.74469 0.04234 0.60373 0.0
C871 C 0.77355 0.16025 0.62699 0.0
C872 C 0.79079 0.15469 0.60289 0.0
H873 H 0.73518 0.12936 0.66168 0.0
H874 H 0.78251 0.19317 0.63393 0.0
C875 C 0.77877 0.11162 0.5945 0.0
loop_
_geom_bond_atom_site_label_1
_geom_bond_atom_site_label_2
_geom_bond_distance
_geom_bond_site_symmetry_2
_ccdc_geom_bond_type
C0 C1 1.443 . S
C0 N4 1.376 . S
C0 C38 1.389 . S
C1 C0 1.443 . S
C1 C2 1.340 . S
C1 H41 0.951 . S
C2 C1 1.340 . S
C2 C3 1.439 . S
C2 H42 0.950 . S
C3 C2 1.439 . S
C3 N4 1.374 . S
C3 C37 1.395 . S
N4 C0 1.376 . S
N4 C3 1.374 . S
N4 Co5 2.008 . S
Co5 N4 2.008 . S
Co5 N6 1.995 . S
Co5 N11 2.008 . S
Co5 N16 1.995 . S
Co5 N21 2.282 . S
Co5 N27 2.282 . S
N6 Co5 1.995 . S
N6 C7 1.376 . S
N6 C10 1.383 . S
C7 N6 1.376 . S
C7 C8 1.446 . S
C7 C37 1.391 . S
C8 C7 1.446 . S
C8 C9 1.339 . S
C8 H43 0.949 . S
C9 C8 1.339 . S
C9 C10 1.439 . S
C9 H44 0.950 . S
C10 N6 1.383 . S
C10 C9 1.439 . S
C10 C39 1.392 . S
N11 Co5 2.008 . S
N11 C12 1.376 . S
N11 C15 1.374 . S
C12 N11 1.376 . S
C12 C13 1.443 . S
C12 C39 1.389 . S
C13 C12 1.443 . S
C13 C14 1.340 . S
C13 H45 0.951 . S
C14 C13 1.340 . S
C14 C15 1.439 . S
C14 H46 0.950 . S
C15 N11 1.374 . S
C15 C14 1.439 . S
C15 C40 1.395 . S
N16 Co5 1.995 . S
N16 C17 1.376 . S
N16 C20 1.383 . S
C17 N16 1.376 . S
C17 C18 1.446 . S
C17 C40 1.391 . S
C18 C17 1.446 . S
C18 C19 1.339 . S
C18 H47 0.949 . S
C19 C18 1.339 . S
C19 C20 1.439 . S
C19 H48 0.950 . S
C20 N16 1.383 . S
C20 C19 1.439 . S
C20 C38 1.392 . S
N21 Co5 2.282 . S
N21 C24 1.332 . S
N21 C26 1.332 . S
C22 C23 1.386 . S
C22 C25 1.388 . S
C23 C22 1.386 . S
C23 C24 1.382 . S
C23 H49 0.950 . S
C24 N21 1.332 . S
C24 C23 1.382 . S
C24 H35 0.952 . S
C25 C22 1.388 . S
C25 C26 1.382 . S
C25 H50 0.950 . S
C26 N21 1.332 . S
C26 C25 1.382 . S
C26 H36 0.948 . S
N27 Co5 2.282 . S
N27 C31 1.332 . S
N27 C32 1.332 . S
C28 C29 1.388 . S
C28 C32 1.382 . S
C28 H51 0.950 . S
C29 C28 1.388 . S
C29 C30 1.386 . S
C30 C29 1.386 . S
C30 C31 1.382 . S
C30 H52 0.950 . S
C31 N27 1.332 . S
C31 C30 1.382 . S
C31 H33 0.952 . S
C32 N27 1.332 . S
C32 C28 1.382 . S
C32 H34 0.948 . S
H33 C31 0.952 . S
H34 C32 0.948 . S
H35 C24 0.952 . S
H36 C26 0.948 . S
C37 C3 1.395 . S
C37 C7 1.391 . S
C38 C0 1.389 . S
C38 C20 1.392 . S
C39 C10 1.392 . S
C39 C12 1.389 . S
C40 C15 1.395 . S
C40 C17 1.391 . S
H41 C1 0.951 . S
H42 C2 0.950 . S
H43 C8 0.949 . S
H44 C9 0.950 . S
H45 C13 0.951 . S
H46 C14 0.950 . S
H47 C18 0.949 . S
H48 C19 0.950 . S
H49 C23 0.950 . S
H50 C25 0.950 . S
H51 C28 0.950 . S
H52 C30 0.950 . S
C53 C54 1.443 . S
C53 N57 1.376 . S
C53 C91 1.389 . S
C54 C53 1.443 . S
C54 C55 1.340 . S
C54 H94 0.951 . S
C55 C54 1.340 . S
C55 C56 1.439 . S
C55 H95 0.950 . S
C56 C55 1.439 . S
C56 N57 1.374 . S
C56 C90 1.395 . S
N57 C53 1.376 . S
N57 C56 1.374 . S
N57 Co58 2.008 . S
Co58 N57 2.008 . S
Co58 N59 1.995 . S
Co58 N64 2.008 . S
Co58 N69 1.995 . S
Co58 N74 2.282 . S
Co58 N80 2.282 . S
N59 Co58 1.995 . S
N59 C60 1.376 . S
N59 C63 1.383 . S
C60 N59 1.376 . S
C60 C61 1.446 . S
C60 C90 1.391 . S
C61 C60 1.446 . S
C61 C62 1.339 . S
C61 H96 0.949 . S
C62 C61 1.339 . S
C62 C63 1.439 . S
C62 H97 0.950 . S
C63 N59 1.383 . S
C63 C62 1.439 . S
C63 C92 1.392 . S
N64 Co58 2.008 . S
N64 C65 1.376 . S
N64 C68 1.374 . S
C65 N64 1.376 . S
C65 C66 1.443 . S
C65 C92 1.389 . S
C66 C65 1.443 . S
C66 C67 1.340 . S
C66 H98 0.951 . S
C67 C66 1.340 . S
C67 C68 1.439 . S
C67 H99 0.950 . S
C68 N64 1.374 . S
C68 C67 1.439 . S
C68 C93 1.395 . S
N69 Co58 1.995 . S
N69 C70 1.376 . S
N69 C73 1.383 . S
C70 N69 1.376 . S
C70 C71 1.446 . S
C70 C93 1.391 . S
C71 C70 1.446 . S
C71 C72 1.339 . S
C71 H100 0.949 . S
C72 C71 1.339 . S
C72 C73 1.439 . S
C72 H101 0.950 . S
C73 N69 1.383 . S
C73 C72 1.439 . S
C73 C91 1.392 . S
N74 Co58 2.282 . S
N74 C77 1.332 . S
N74 C79 1.332 . S
C75 C76 1.386 . S
C75 C78 1.388 . S
C76 C75 1.386 . S
C76 C77 1.382 . S
C76 H102 0.950 . S
C77 N74 1.332 . S
C77 C76 1.382 . S
C77 H88 0.952 . S
C78 C75 1.388 . S
C78 C79 1.382 . S
C78 H103 0.950 . S
C79 N74 1.332 . S
C79 C78 1.382 . S
C79 H89 0.948 . S
N80 Co58 2.282 . S
N80 C84 1.332 . S
N80 C85 1.332 . S
C81 C82 1.388 . S
C81 C85 1.382 . S
C81 H104 0.950 1_545 S
C82 C81 1.388 . S
C82 C83 1.386 . S
C83 C82 1.386 . S
C83 C84 1.382 . S
C83 H105 0.950 . S
C84 N80 1.332 . S
C84 C83 1.382 . S
C84 H86 0.952 . S
C85 N80 1.332 . S
C85 C81 1.382 . S
C85 H87 0.948 . S
H86 C84 0.952 . S
H87 C85 0.948 . S
H88 C77 0.952 . S
H89 C79 0.948 . S
C90 C56 1.395 . S
C90 C60 1.391 . S
C91 C53 1.389 . S
C91 C73 1.392 . S
C92 C63 1.392 . S
C92 C65 1.389 . S
C93 C68 1.395 . S
C93 C70 1.391 . S
H94 C54 0.951 . S
H95 C55 0.950 . S
H96 C61 0.949 . S
H97 C62 0.950 . S
H98 C66 0.951 . S
H99 C67 0.950 . S
H100 C71 0.949 . S
H101 C72 0.950 . S
H102 C76 0.950 . S
H103 C78 0.950 . S
H104 C81 0.950 1_565 S
H105 C83 0.950 . S
C106 C107 1.443 . S
C106 N110 1.376 . S
C106 C144 1.389 . S
C107 C106 1.443 . S
C107 C108 1.340 . S
C107 H147 0.951 . S
C108 C107 1.340 . S
C108 C109 1.439 . S
C108 H148 0.950 . S
C109 C108 1.439 . S
C109 N110 1.374 . S
C109 C143 1.395 . S
N110 C106 1.376 . S
N110 C109 1.374 . S
N110 Co111 2.008 . S
Co111 N110 2.008 . S
Co111 N112 1.995 . S
Co111 N117 2.008 . S
Co111 N122 1.995 . S
Co111 N127 2.282 . S
Co111 N133 2.282 . S
N112 Co111 1.995 . S
N112 C113 1.376 . S
N112 C116 1.383 . S
C113 N112 1.376 . S
C113 C114 1.446 . S
C113 C143 1.391 . S
C114 C113 1.446 . S
C114 C115 1.339 . S
C114 H149 0.949 . S
C115 C114 1.339 . S
C115 C116 1.439 . S
C115 H150 0.950 . S
C116 N112 1.383 . S
C116 C115 1.439 . S
C116 C145 1.392 . S
N117 Co111 2.008 . S
N117 C118 1.376 . S
N117 C121 1.374 . S
C118 N117 1.376 . S
C118 C119 1.443 . S
C118 C145 1.389 . S
C119 C118 1.443 . S
C119 C120 1.340 . S
C119 H151 0.951 . S
C120 C119 1.340 . S
C120 C121 1.439 . S
C120 H152 0.950 . S
C121 N117 1.374 . S
C121 C120 1.439 . S
C121 C146 1.395 . S
N122 Co111 1.995 . S
N122 C123 1.376 . S
N122 C126 1.383 . S
C123 N122 1.376 . S
C123 C124 1.446 . S
C123 C146 1.391 . S
C124 C123 1.446 . S
C124 C125 1.339 . S
C124 H153 0.949 . S
C125 C124 1.339 . S
C125 C126 1.439 . S
C125 H154 0.950 . S
C126 N122 1.383 . S
C126 C125 1.439 . S
C126 C144 1.392 . S
N127 Co111 2.282 . S
N127 C130 1.332 . S
N127 C132 1.332 . S
C128 C129 1.386 . S
C128 C131 1.388 . S
C129 C128 1.386 . S
C129 C130 1.382 . S
C129 H155 0.950 . S
C130 N127 1.332 . S
C130 C129 1.382 . S
C130 H141 0.952 . S
C131 C128 1.388 . S
C131 C132 1.382 . S
C131 H156 0.950 . S
C132 N127 1.332 . S
C132 C131 1.382 . S
C132 H142 0.948 . S
N133 Co111 2.282 . S
N133 C137 1.332 . S
N133 C138 1.332 . S
C134 C135 1.388 . S
C134 C138 1.382 . S
C134 H157 0.950 . S
C135 C134 1.388 . S
C135 C136 1.386 . S
C136 C135 1.386 . S
C136 C137 1.382 . S
C136 H158 0.950 . S
C137 N133 1.332 . S
C137 C136 1.382 . S
C137 H139 0.952 . S
C138 N133 1.332 . S
C138 C134 1.382 . S
C138 H140 0.948 . S
H139 C137 0.952 . S
H140 C138 0.948 . S
H141 C130 0.952 . S
H142 C132 0.948 . S
C143 C109 1.395 . S
C143 C113 1.391 . S
C144 C106 1.389 . S
C144 C126 1.392 . S
C145 C116 1.392 . S
C145 C118 1.389 . S
C146 C121 1.395 . S
C146 C123 1.391 . S
H147 C107 0.951 . S
H148 C108 0.950 . S
H149 C114 0.949 . S
H150 C115 0.950 . S
H151 C119 0.951 . S
H152 C120 0.950 . S
H153 C124 0.949 . S
H154 C125 0.950 . S
H155 C129 0.950 . S
H156 C131 0.950 . S
H157 C134 0.950 . S
H158 C136 0.950 . S
C159 C160 1.443 . S
C159 N163 1.376 . S
C159 C197 1.389 . S
C160 C159 1.443 . S
C160 C161 1.340 . S
C160 H200 0.951 . S
C161 C160 1.340 . S
C161 C162 1.439 . S
C161 H201 0.950 . S
C162 C161 1.439 . S
C162 N163 1.374 . S
C162 C196 1.395 . S
N163 C159 1.376 . S
N163 C162 1.374 . S
N163 Co164 2.008 . S
Co164 N163 2.008 . S
Co164 N165 1.995 . S
Co164 N170 2.008 . S
Co164 N175 1.995 . S
Co164 N180 2.282 . S
Co164 N186 2.282 . S
N165 Co164 1.995 . S
N165 C166 1.376 . S
N165 C169 1.383 . S
C166 N165 1.376 . S
C166 C167 1.446 . S
C166 C196 1.391 . S
C167 C166 1.446 . S
C167 C168 1.339 . S
C167 H202 0.949 . S
C168 C167 1.339 . S
C168 C169 1.439 . S
C168 H203 0.950 . S
C169 N165 1.383 . S
C169 C168 1.439 . S
C169 C198 1.392 . S
N170 Co164 2.008 . S
N170 C171 1.376 . S
N170 C174 1.374 . S
C171 N170 1.376 . S
C171 C172 1.443 . S
C171 C198 1.389 . S
C172 C171 1.443 . S
C172 C173 1.340 . S
C172 H204 0.951 . S
C173 C172 1.340 . S
C173 C174 1.439 . S
C173 H205 0.950 . S
C174 N170 1.374 . S
C174 C173 1.439 . S
C174 C199 1.395 . S
N175 Co164 1.995 . S
N175 C176 1.376 . S
N175 C179 1.383 . S
C176 N175 1.376 . S
C176 C177 1.446 . S
C176 C199 1.391 . S
C177 C176 1.446 . S
C177 C178 1.339 . S
C177 H206 0.949 . S
C178 C177 1.339 . S
C178 C179 1.439 . S
C178 H207 0.950 . S
C179 N175 1.383 . S
C179 C178 1.439 . S
C179 C197 1.392 . S
N180 Co164 2.282 . S
N180 C183 1.332 . S
N180 C185 1.332 . S
C181 C182 1.386 . S
C181 C184 1.388 . S
C182 C181 1.386 . S
C182 C183 1.382 . S
C182 H208 0.950 . S
C183 N180 1.332 . S
C183 C182 1.382 . S
C183 H194 0.952 . S
C184 C181 1.388 . S
C184 C185 1.382 . S
C184 H209 0.950 . S
C185 N180 1.332 . S
C185 C184 1.382 . S
C185 H195 0.948 . S
N186 Co164 2.282 . S
N186 C190 1.332 . S
N186 C191 1.332 . S
C187 C188 1.388 . S
C187 C191 1.382 . S
C187 H210 0.950 . S
C188 C187 1.388 . S
C188 C189 1.386 . S
C189 C188 1.386 . S
C189 C190 1.382 . S
C189 H211 0.950 . S
C190 N186 1.332 . S
C190 C189 1.382 . S
C190 H192 0.952 . S
C191 N186 1.332 . S
C191 C187 1.382 . S
C191 H193 0.948 . S
H192 C190 0.952 . S
H193 C191 0.948 . S
H194 C183 0.952 . S
H195 C185 0.948 . S
C196 C162 1.395 . S
C196 C166 1.391 . S
C197 C159 1.389 . S
C197 C179 1.392 . S
C198 C169 1.392 . S
C198 C171 1.389 . S
C199 C174 1.395 . S
C199 C176 1.391 . S
H200 C160 0.951 . S
H201 C161 0.950 . S
H202 C167 0.949 . S
H203 C168 0.950 . S
H204 C172 0.951 . S
H205 C173 0.950 . S
H206 C177 0.949 . S
H207 C178 0.950 . S
H208 C182 0.950 . S
H209 C184 0.950 . S
H210 C187 0.950 . S
H211 C189 0.950 . S
C212 C213 1.443 . S
C212 N216 1.376 . S
C212 C250 1.389 . S
C213 C212 1.443 . S
C213 C214 1.340 . S
C213 H253 0.951 . S
C214 C213 1.340 . S
C214 C215 1.439 . S
C214 H254 0.950 . S
C215 C214 1.439 . S
C215 N216 1.374 . S
C215 C249 1.395 . S
N216 C212 1.376 . S
N216 C215 1.374 . S
N216 Co217 2.008 . S
Co217 N216 2.008 . S
Co217 N218 1.995 . S
Co217 N223 2.008 . S
Co217 N228 1.995 . S
Co217 N233 2.282 . S
Co217 N239 2.282 . S
N218 Co217 1.995 . S
N218 C219 1.376 . S
N218 C222 1.383 . S
C219 N218 1.376 . S
C219 C220 1.446 . S
C219 C249 1.391 . S
C220 C219 1.446 . S
C220 C221 1.339 . S
C220 H255 0.949 . S
C221 C220 1.339 . S
C221 C222 1.439 . S
C221 H256 0.950 . S
C222 N218 1.383 . S
C222 C221 1.439 . S
C222 C251 1.392 . S
N223 Co217 2.008 . S
N223 C224 1.376 . S
N223 C227 1.374 . S
C224 N223 1.376 . S
C224 C225 1.443 . S
C224 C251 1.389 . S
C225 C224 1.443 . S
C225 C226 1.340 . S
C225 H257 0.951 . S
C226 C225 1.340 . S
C226 C227 1.439 . S
C226 H258 0.950 . S
C227 N223 1.374 . S
C227 C226 1.439 . S
C227 C252 1.395 . S
N228 Co217 1.995 . S
N228 C229 1.376 . S
N228 C232 1.383 . S
C229 N228 1.376 . S
C229 C230 1.446 . S
C229 C252 1.391 . S
C230 C229 1.446 . S
C230 C231 1.339 . S
C230 H259 0.949 . S
C231 C230 1.339 . S
C231 C232 1.439 . S
C231 H260 0.950 . S
C232 N228 1.383 . S
C232 C231 1.439 . S
C232 C250 1.392 . S
N233 Co217 2.282 . S
N233 C236 1.332 . S
N233 C238 1.332 . S
C234 C235 1.386 . S
C234 C237 1.388 . S
C235 C234 1.386 . S
C235 C236 1.382 . S
C235 H261 0.950 . S
C236 N233 1.332 . S
C236 C235 1.382 . S
C236 H247 0.952 . S
C237 C234 1.388 . S
C237 C238 1.382 . S
C237 H262 0.950 . S
C238 N233 1.332 . S
C238 C237 1.382 . S
C238 H248 0.948 . S
N239 Co217 2.282 . S
N239 C243 1.332 . S
N239 C244 1.332 . S
C240 C241 1.388 . S
C240 C244 1.382 . S
C240 H263 0.950 1_565 S
C241 C240 1.388 . S
C241 C242 1.386 . S
C242 C241 1.386 . S
C242 C243 1.382 . S
C242 H264 0.950 . S
C243 N239 1.332 . S
C243 C242 1.382 . S
C243 H245 0.952 . S
C244 N239 1.332 . S
C244 C240 1.382 . S
C244 H246 0.948 . S
H245 C243 0.952 . S
H246 C244 0.948 . S
H247 C236 0.952 . S
H248 C238 0.948 . S
C249 C215 1.395 . S
C249 C219 1.391 . S
C250 C212 1.389 . S
C250 C232 1.392 . S
C251 C222 1.392 . S
C251 C224 1.389 . S
C252 C227 1.395 . S
C252 C229 1.391 . S
H253 C213 0.951 . S
H254 C214 0.950 . S
H255 C220 0.949 . S
H256 C221 0.950 . S
H257 C225 0.951 . S
H258 C226 0.950 . S
H259 C230 0.949 . S
H260 C231 0.950 . S
H261 C235 0.950 . S
H262 C237 0.950 . S
H263 C240 0.950 1_545 S
H264 C242 0.950 . S
C265 C266 1.443 . S
C265 N269 1.376 . S
C265 C303 1.389 . S
C266 C265 1.443 . S
C266 C267 1.340 . S
C266 H306 0.951 . S
C267 C266 1.340 . S
C267 C268 1.439 . S
C267 H307 0.950 . S
C268 C267 1.439 . S
C268 N269 1.374 . S
C268 C302 1.395 . S
N269 C265 1.376 . S
N269 C268 1.374 . S
N269 Co270 2.008 . S
Co270 N269 2.008 . S
Co270 N271 1.995 . S
Co270 N276 2.008 . S
Co270 N281 1.995 . S
Co270 N286 2.282 . S
Co270 N292 2.282 . S
N271 Co270 1.995 . S
N271 C272 1.376 . S
N271 C275 1.383 . S
C272 N271 1.376 . S
C272 C273 1.446 . S
C272 C302 1.391 . S
C273 C272 1.446 . S
C273 C274 1.339 . S
C273 H308 0.949 . S
C274 C273 1.339 . S
C274 C275 1.439 . S
C274 H309 0.950 . S
C275 N271 1.383 . S
C275 C274 1.439 . S
C275 C304 1.392 . S
N276 Co270 2.008 . S
N276 C277 1.376 . S
N276 C280 1.374 . S
C277 N276 1.376 . S
C277 C278 1.443 1_556 S
C277 C304 1.389 . S
C278 C277 1.443 1_554 S
C278 C279 1.340 . S
C278 H310 0.951 . S
C279 C278 1.340 . S
C279 C280 1.439 1_554 S
C279 H311 0.950 . S
C280 N276 1.374 . S
C280 C279 1.439 1_556 S
C280 C305 1.395 . S
N281 Co270 1.995 . S
N281 C282 1.376 . S
N281 C285 1.383 . S
C282 N281 1.376 . S
C282 C283 1.446 . S
C282 C305 1.391 . S
C283 C282 1.446 . S
C283 C284 1.339 . S
C283 H312 0.949 . S
C284 C283 1.339 . S
C284 C285 1.439 . S
C284 H313 0.950 . S
C285 N281 1.383 . S
C285 C284 1.439 . S
C285 C303 1.392 . S
N286 Co270 2.282 . S
N286 C289 1.332 . S
N286 C291 1.332 . S
C287 C288 1.386 . S
C287 C290 1.388 . S
C288 C287 1.386 . S
C288 C289 1.382 . S
C288 H314 0.950 . S
C289 N286 1.332 . S
C289 C288 1.382 . S
C289 H300 0.952 . S
C290 C287 1.388 . S
C290 C291 1.382 . S
C290 H315 0.950 . S
C291 N286 1.332 . S
C291 C290 1.382 . S
C291 H301 0.948 . S
N292 Co270 2.282 . S
N292 C296 1.332 . S
N292 C297 1.332 . S
C293 C294 1.388 . S
C293 C297 1.382 . S
C293 H316 0.950 . S
C294 C293 1.388 . S
C294 C295 1.386 . S
C295 C294 1.386 . S
C295 C296 1.382 . S
C295 H317 0.950 . S
C296 N292 1.332 . S
C296 C295 1.382 . S
C296 H298 0.952 . S
C297 N292 1.332 . S
C297 C293 1.382 . S
C297 H299 0.948 . S
H298 C296 0.952 . S
H299 C297 0.948 . S
H300 C289 0.952 . S
H301 C291 0.948 . S
C302 C268 1.395 . S
C302 C272 1.391 . S
C303 C265 1.389 . S
C303 C285 1.392 . S
C304 C275 1.392 . S
C304 C277 1.389 . S
C305 C280 1.395 . S
C305 C282 1.391 . S
H306 C266 0.951 . S
H307 C267 0.950 . S
H308 C273 0.949 . S
H309 C274 0.950 . S
H310 C278 0.951 . S
H311 C279 0.950 . S
H312 C283 0.949 . S
H313 C284 0.950 . S
H314 C288 0.950 . S
H315 C290 0.950 . S
H316 C293 0.950 . S
H317 C295 0.950 . S
C318 C319 1.443 . S
C318 N322 1.376 . S
C318 C356 1.389 . S
C319 C318 1.443 . S
C319 C320 1.340 . S
C319 H359 0.951 . S
C320 C319 1.340 . S
C320 C321 1.439 . S
C320 H360 0.950 . S
C321 C320 1.439 . S
C321 N322 1.374 . S
C321 C355 1.395 . S
N322 C318 1.376 . S
N322 C321 1.374 . S
N322 Co323 2.008 . S
Co323 N322 2.008 . S
Co323 N324 1.995 . S
Co323 N329 2.008 . S
Co323 N334 1.995 . S
Co323 N339 2.282 . S
Co323 N345 2.282 . S
N324 Co323 1.995 . S
N324 C325 1.376 . S
N324 C328 1.383 . S
C325 N324 1.376 . S
C325 C326 1.446 . S
C325 C355 1.391 . S
C326 C325 1.446 . S
C326 C327 1.339 . S
C326 H361 0.949 . S
C327 C326 1.339 . S
C327 C328 1.439 . S
C327 H362 0.950 . S
C328 N324 1.383 . S
C328 C327 1.439 . S
C328 C357 1.392 . S
N329 Co323 2.008 . S
N329 C330 1.376 . S
N329 C333 1.374 . S
C330 N329 1.376 . S
C330 C331 1.443 . S
C330 C357 1.389 . S
C331 C330 1.443 . S
C331 C332 1.340 . S
C331 H363 0.951 . S
C332 C331 1.340 . S
C332 C333 1.439 . S
C332 H364 0.950 . S
C333 N329 1.374 . S
C333 C332 1.439 . S
C333 C358 1.395 . S
N334 Co323 1.995 . S
N334 C335 1.376 . S
N334 C338 1.383 . S
C335 N334 1.376 . S
C335 C336 1.446 . S
C335 C358 1.391 . S
C336 C335 1.446 . S
C336 C337 1.339 . S
C336 H365 0.949 . S
C337 C336 1.339 . S
C337 C338 1.439 . S
C337 H366 0.950 . S
C338 N334 1.383 . S
C338 C337 1.439 . S
C338 C356 1.392 . S
N339 Co323 2.282 . S
N339 C342 1.332 . S
N339 C344 1.332 . S
C340 C341 1.386 . S
C340 C343 1.388 . S
C341 C340 1.386 . S
C341 C342 1.382 . S
C341 H367 0.950 . S
C342 N339 1.332 . S
C342 C341 1.382 . S
C342 H353 0.952 . S
C343 C340 1.388 . S
C343 C344 1.382 . S
C343 H368 0.950 . S
C344 N339 1.332 . S
C344 C343 1.382 . S
C344 H354 0.948 . S
N345 Co323 2.282 . S
N345 C349 1.332 . S
N345 C350 1.332 . S
C346 C347 1.388 . S
C346 C350 1.382 . S
C346 H369 0.950 1_565 S
C347 C346 1.388 . S
C347 C348 1.386 . S
C348 C347 1.386 . S
C348 C349 1.382 . S
C348 H370 0.950 . S
C349 N345 1.332 . S
C349 C348 1.382 . S
C349 H351 0.952 . S
C350 N345 1.332 . S
C350 C346 1.382 . S
C350 H352 0.948 . S
H351 C349 0.952 . S
H352 C350 0.948 . S
H353 C342 0.952 . S
H354 C344 0.948 . S
C355 C321 1.395 . S
C355 C325 1.391 . S
C356 C318 1.389 . S
C356 C338 1.392 . S
C357 C328 1.392 . S
C357 C330 1.389 . S
C358 C333 1.395 . S
C358 C335 1.391 . S
H359 C319 0.951 . S
H360 C320 0.950 . S
H361 C326 0.949 . S
H362 C327 0.950 . S
H363 C331 0.951 . S
H364 C332 0.950 . S
H365 C336 0.949 . S
H366 C337 0.950 . S
H367 C341 0.950 . S
H368 C343 0.950 . S
H369 C346 0.950 1_545 S
H370 C348 0.950 . S
C371 C372 1.443 . S
C371 N375 1.376 . S
C371 C409 1.389 . S
C372 C371 1.443 . S
C372 C373 1.340 . S
C372 H412 0.951 . S
C373 C372 1.340 . S
C373 C374 1.439 . S
C373 H413 0.950 . S
C374 C373 1.439 . S
C374 N375 1.374 . S
C374 C408 1.395 . S
N375 C371 1.376 . S
N375 C374 1.374 . S
N375 Co376 2.008 . S
Co376 N375 2.008 . S
Co376 N377 1.995 . S
Co376 N382 2.008 . S
Co376 N387 1.995 . S
Co376 N392 2.282 . S
Co376 N398 2.282 . S
N377 Co376 1.995 . S
N377 C378 1.376 . S
N377 C381 1.383 . S
C378 N377 1.376 . S
C378 C379 1.446 . S
C378 C408 1.391 . S
C379 C378 1.446 . S
C379 C380 1.339 . S
C379 H414 0.949 . S
C380 C379 1.339 . S
C380 C381 1.439 . S
C380 H415 0.950 . S
C381 N377 1.383 . S
C381 C380 1.439 . S
C381 C410 1.392 . S
N382 Co376 2.008 . S
N382 C383 1.376 . S
N382 C386 1.374 . S
C383 N382 1.376 . S
C383 C384 1.443 . S
C383 C410 1.389 . S
C384 C383 1.443 . S
C384 C385 1.340 . S
C384 H416 0.951 . S
C385 C384 1.340 . S
C385 C386 1.439 . S
C385 H417 0.950 . S
C386 N382 1.374 . S
C386 C385 1.439 . S
C386 C411 1.395 . S
N387 Co376 1.995 . S
N387 C388 1.376 . S
N387 C391 1.383 . S
C388 N387 1.376 . S
C388 C389 1.446 . S
C388 C411 1.391 . S
C389 C388 1.446 . S
C389 C390 1.339 . S
C389 H418 0.949 . S
C390 C389 1.339 . S
C390 C391 1.439 . S
C390 H419 0.950 . S
C391 N387 1.383 . S
C391 C390 1.439 . S
C391 C409 1.392 . S
N392 Co376 2.282 . S
N392 C395 1.332 . S
N392 C397 1.332 . S
C393 C394 1.386 . S
C393 C396 1.388 . S
C394 C393 1.386 . S
C394 C395 1.382 . S
C394 H420 0.950 . S
C395 N392 1.332 . S
C395 C394 1.382 . S
C395 H406 0.952 . S
C396 C393 1.388 . S
C396 C397 1.382 . S
C396 H421 0.950 . S
C397 N392 1.332 . S
C397 C396 1.382 . S
C397 H407 0.948 . S
N398 Co376 2.282 . S
N398 C402 1.332 . S
N398 C403 1.332 . S
C399 C400 1.388 . S
C399 C403 1.382 . S
C399 H422 0.950 . S
C400 C399 1.388 . S
C400 C401 1.386 . S
C401 C400 1.386 . S
C401 C402 1.382 . S
C401 H423 0.950 . S
C402 N398 1.332 . S
C402 C401 1.382 . S
C402 H404 0.952 . S
C403 N398 1.332 . S
C403 C399 1.382 . S
C403 H405 0.948 . S
H404 C402 0.952 . S
H405 C403 0.948 . S
H406 C395 0.952 . S
H407 C397 0.948 . S
C408 C374 1.395 . S
C408 C378 1.391 . S
C409 C371 1.389 . S
C409 C391 1.392 . S
C410 C381 1.392 . S
C410 C383 1.389 . S
C411 C386 1.395 . S
C411 C388 1.391 . S
H412 C372 0.951 . S
H413 C373 0.950 . S
H414 C379 0.949 . S
H415 C380 0.950 . S
H416 C384 0.951 . S
H417 C385 0.950 . S
H418 C389 0.949 . S
H419 C390 0.950 . S
H420 C394 0.950 . S
H421 C396 0.950 . S
H422 C399 0.950 . S
H423 C401 0.950 . S
C424 C425 1.443 . S
C424 N428 1.376 . S
C424 C462 1.389 . S
C425 C424 1.443 . S
C425 C426 1.340 . S
C425 H465 0.951 . S
C426 C425 1.340 . S
C426 C427 1.439 . S
C426 H466 0.950 . S
C427 C426 1.439 . S
C427 N428 1.374 . S
C427 C461 1.395 . S
N428 C424 1.376 . S
N428 C427 1.374 . S
N428 Co429 2.008 . S
Co429 N428 2.008 . S
Co429 N430 1.995 . S
Co429 N435 2.008 . S
Co429 N440 1.995 . S
Co429 N445 2.282 . S
Co429 N451 2.282 . S
N430 Co429 1.995 . S
N430 C431 1.376 . S
N430 C434 1.383 . S
C431 N430 1.376 . S
C431 C432 1.446 . S
C431 C461 1.391 . S
C432 C431 1.446 . S
C432 C433 1.339 . S
C432 H467 0.949 1_455 S
C433 C432 1.339 . S
C433 C434 1.439 . S
C433 H468 0.950 1_455 S
C434 N430 1.383 . S
C434 C433 1.439 . S
C434 C463 1.392 . S
N435 Co429 2.008 . S
N435 C436 1.376 . S
N435 C439 1.374 . S
C436 N435 1.376 . S
C436 C437 1.443 1_554 S
C436 C463 1.389 . S
C437 C436 1.443 1_556 S
C437 C438 1.340 . S
C437 H469 0.951 . S
C438 C437 1.340 . S
C438 C439 1.439 1_556 S
C438 H470 0.950 . S
C439 N435 1.374 . S
C439 C438 1.439 1_554 S
C439 C464 1.395 . S
N440 Co429 1.995 . S
N440 C441 1.376 . S
N440 C444 1.383 . S
C441 N440 1.376 . S
C441 C442 1.446 . S
C441 C464 1.391 . S
C442 C441 1.446 . S
C442 C443 1.339 . S
C442 H471 0.949 . S
C443 C442 1.339 . S
C443 C444 1.439 . S
C443 H472 0.950 . S
C444 N440 1.383 . S
C444 C443 1.439 . S
C444 C462 1.392 . S
N445 Co429 2.282 . S
N445 C448 1.332 . S
N445 C450 1.332 . S
C446 C447 1.386 . S
C446 C449 1.388 . S
C447 C446 1.386 . S
C447 C448 1.382 . S
C447 H473 0.950 . S
C448 N445 1.332 . S
C448 C447 1.382 . S
C448 H459 0.952 . S
C449 C446 1.388 . S
C449 C450 1.382 . S
C449 H474 0.950 . S
C450 N445 1.332 . S
C450 C449 1.382 . S
C450 H460 0.948 . S
N451 Co429 2.282 . S
N451 C455 1.332 . S
N451 C456 1.332 . S
C452 C453 1.388 . S
C452 C456 1.382 . S
C452 H475 0.950 . S
C453 C452 1.388 . S
C453 C454 1.386 . S
C454 C453 1.386 . S
C454 C455 1.382 . S
C454 H476 0.950 . S
C455 N451 1.332 . S
C455 C454 1.382 . S
C455 H457 0.952 . S
C456 N451 1.332 . S
C456 C452 1.382 . S
C456 H458 0.948 . S
H457 C455 0.952 . S
H458 C456 0.948 . S
H459 C448 0.952 . S
H460 C450 0.948 . S
C461 C427 1.395 . S
C461 C431 1.391 . S
C462 C424 1.389 . S
C462 C444 1.392 . S
C463 C434 1.392 . S
C463 C436 1.389 . S
C464 C439 1.395 . S
C464 C441 1.391 . S
H465 C425 0.951 . S
H466 C426 0.950 . S
H467 C432 0.949 1_655 S
H468 C433 0.950 1_655 S
H469 C437 0.951 . S
H470 C438 0.950 . S
H471 C442 0.949 . S
H472 C443 0.950 . S
H473 C447 0.950 . S
H474 C449 0.950 . S
H475 C452 0.950 . S
H476 C454 0.950 . S
C477 C478 1.443 . S
C477 N481 1.376 . S
C477 C515 1.389 . S
C478 C477 1.443 . S
C478 C479 1.340 . S
C478 H518 0.951 . S
C479 C478 1.340 . S
C479 C480 1.439 . S
C479 H519 0.950 . S
C480 C479 1.439 . S
C480 N481 1.374 . S
C480 C514 1.395 . S
N481 C477 1.376 . S
N481 C480 1.374 . S
N481 Co482 2.008 . S
Co482 N481 2.008 . S
Co482 N483 1.995 . S
Co482 N488 2.008 . S
Co482 N493 1.995 . S
Co482 N498 2.282 . S
Co482 N504 2.282 . S
N483 Co482 1.995 . S
N483 C484 1.376 . S
N483 C487 1.383 . S
C484 N483 1.376 . S
C484 C485 1.446 . S
C484 C514 1.391 . S
C485 C484 1.446 . S
C485 C486 1.339 . S
C485 H520 0.949 . S
C486 C485 1.339 . S
C486 C487 1.439 . S
C486 H521 0.950 . S
C487 N483 1.383 . S
C487 C486 1.439 . S
C487 C516 1.392 . S
N488 Co482 2.008 . S
N488 C489 1.376 . S
N488 C492 1.374 . S
C489 N488 1.376 . S
C489 C490 1.443 . S
C489 C516 1.389 . S
C490 C489 1.443 . S
C490 C491 1.340 . S
C490 H522 0.951 . S
C491 C490 1.340 . S
C491 C492 1.439 . S
C491 H523 0.950 . S
C492 N488 1.374 . S
C492 C491 1.439 . S
C492 C517 1.395 . S
N493 Co482 1.995 . S
N493 C494 1.376 . S
N493 C497 1.383 . S
C494 N493 1.376 . S
C494 C495 1.446 . S
C494 C517 1.391 . S
C495 C494 1.446 . S
C495 C496 1.339 . S
C495 H524 0.949 . S
C496 C495 1.339 . S
C496 C497 1.439 . S
C496 H525 0.950 . S
C497 N493 1.383 . S
C497 C496 1.439 . S
C497 C515 1.392 . S
N498 Co482 2.282 . S
N498 C501 1.332 . S
N498 C503 1.332 . S
C499 C500 1.386 . S
C499 C502 1.388 . S
C500 C499 1.386 . S
C500 C501 1.382 . S
C500 H526 0.950 . S
C501 N498 1.332 . S
C501 C500 1.382 . S
C501 H512 0.952 . S
C502 C499 1.388 . S
C502 C503 1.382 . S
C502 H527 0.950 . S
C503 N498 1.332 . S
C503 C502 1.382 . S
C503 H513 0.948 . S
N504 Co482 2.282 . S
N504 C508 1.332 . S
N504 C509 1.332 . S
C505 C506 1.388 . S
C505 C509 1.382 . S
C505 H528 0.950 1_545 S
C506 C505 1.388 . S
C506 C507 1.386 . S
C507 C506 1.386 . S
C507 C508 1.382 . S
C507 H529 0.950 . S
C508 N504 1.332 . S
C508 C507 1.382 . S
C508 H510 0.952 . S
C509 N504 1.332 . S
C509 C505 1.382 . S
C509 H511 0.948 . S
H510 C508 0.952 . S
H511 C509 0.948 . S
H512 C501 0.952 . S
H513 C503 0.948 . S
C514 C480 1.395 . S
C514 C484 1.391 . S
C515 C477 1.389 . S
C515 C497 1.392 . S
C516 C487 1.392 . S
C516 C489 1.389 . S
C517 C492 1.395 . S
C517 C494 1.391 . S
H518 C478 0.951 . S
H519 C479 0.950 . S
H520 C485 0.949 . S
H521 C486 0.950 . S
H522 C490 0.951 . S
H523 C491 0.950 . S
H524 C495 0.949 . S
H525 C496 0.950 . S
H526 C500 0.950 . S
H527 C502 0.950 . S
H528 C505 0.950 1_565 S
H529 C507 0.950 . S
C530 C531 1.443 . S
C530 N534 1.376 . S
C530 C568 1.389 . S
C531 C530 1.443 . S
C531 C532 1.340 . S
C531 H571 0.951 . S
C532 C531 1.340 . S
C532 C533 1.439 . S
C532 H572 0.950 . S
C533 C532 1.439 . S
C533 N534 1.374 . S
C533 C567 1.395 . S
N534 C530 1.376 . S
N534 C533 1.374 . S
N534 Co535 2.008 . S
Co535 N534 2.008 . S
Co535 N536 1.995 . S
Co535 N541 2.008 . S
Co535 N546 1.995 . S
Co535 N551 2.282 . S
Co535 N557 2.282 . S
N536 Co535 1.995 . S
N536 C537 1.376 . S
N536 C540 1.383 . S
C537 N536 1.376 . S
C537 C538 1.446 . S
C537 C567 1.391 . S
C538 C537 1.446 . S
C538 C539 1.339 . S
C538 H573 0.949 . S
C539 C538 1.339 . S
C539 C540 1.439 . S
C539 H574 0.950 . S
C540 N536 1.383 . S
C540 C539 1.439 . S
C540 C569 1.392 . S
N541 Co535 2.008 . S
N541 C542 1.376 . S
N541 C545 1.374 . S
C542 N541 1.376 . S
C542 C543 1.443 . S
C542 C569 1.389 . S
C543 C542 1.443 . S
C543 C544 1.340 . S
C543 H575 0.951 . S
C544 C543 1.340 . S
C544 C545 1.439 . S
C544 H576 0.950 . S
C545 N541 1.374 . S
C545 C544 1.439 . S
C545 C570 1.395 . S
N546 Co535 1.995 . S
N546 C547 1.376 . S
N546 C550 1.383 . S
C547 N546 1.376 . S
C547 C548 1.446 . S
C547 C570 1.391 . S
C548 C547 1.446 . S
C548 C549 1.339 . S
C548 H577 0.949 . S
C549 C548 1.339 . S
C549 C550 1.439 . S
C549 H578 0.950 . S
C550 N546 1.383 . S
C550 C549 1.439 . S
C550 C568 1.392 . S
N551 Co535 2.282 . S
N551 C554 1.332 . S
N551 C556 1.332 . S
C552 C553 1.386 . S
C552 C555 1.388 . S
C553 C552 1.386 . S
C553 C554 1.382 . S
C553 H579 0.950 . S
C554 N551 1.332 . S
C554 C553 1.382 . S
C554 H565 0.952 . S
C555 C552 1.388 . S
C555 C556 1.382 . S
C555 H580 0.950 . S
C556 N551 1.332 . S
C556 C555 1.382 . S
C556 H566 0.948 . S
N557 Co535 2.282 . S
N557 C561 1.332 . S
N557 C562 1.332 . S
C558 C559 1.388 . S
C558 C562 1.382 . S
C558 H581 0.950 . S
C559 C558 1.388 . S
C559 C560 1.386 . S
C560 C559 1.386 . S
C560 C561 1.382 . S
C560 H582 0.950 . S
C561 N557 1.332 . S
C561 C560 1.382 . S
C561 H563 0.952 . S
C562 N557 1.332 . S
C562 C558 1.382 . S
C562 H564 0.948 . S
H563 C561 0.952 . S
H564 C562 0.948 . S
H565 C554 0.952 . S
H566 C556 0.948 . S
C567 C533 1.395 . S
C567 C537 1.391 . S
C568 C530 1.389 . S
C568 C550 1.392 . S
C569 C540 1.392 . S
C569 C542 1.389 . S
C570 C545 1.395 . S
C570 C547 1.391 . S
H571 C531 0.951 . S
H572 C532 0.950 . S
H573 C538 0.949 . S
H574 C539 0.950 . S
H575 C543 0.951 . S
H576 C544 0.950 . S
H577 C548 0.949 . S
H578 C549 0.950 . S
H579 C553 0.950 . S
H580 C555 0.950 . S
H581 C558 0.950 . S
H582 C560 0.950 . S
C583 C584 1.443 . S
C583 N587 1.376 . S
C583 C621 1.389 . S
C584 C583 1.443 . S
C584 C585 1.340 . S
C584 H624 0.951 . S
C585 C584 1.340 . S
C585 C586 1.439 . S
C585 H625 0.950 . S
C586 C585 1.439 . S
C586 N587 1.374 . S
C586 C620 1.395 . S
N587 C583 1.376 . S
N587 C586 1.374 . S
N587 Co588 2.008 . S
Co588 N587 2.008 . S
Co588 N589 1.995 . S
Co588 N594 2.008 . S
Co588 N599 1.995 . S
Co588 N604 2.282 . S
Co588 N610 2.282 . S
N589 Co588 1.995 . S
N589 C590 1.376 . S
N589 C593 1.383 . S
C590 N589 1.376 . S
C590 C591 1.446 . S
C590 C620 1.391 . S
C591 C590 1.446 . S
C591 C592 1.339 . S
C591 H626 0.949 1_655 S
C592 C591 1.339 . S
C592 C593 1.439 . S
C592 H627 0.950 1_655 S
C593 N589 1.383 . S
C593 C592 1.439 . S
C593 C622 1.392 . S
N594 Co588 2.008 . S
N594 C595 1.376 . S
N594 C598 1.374 . S
C595 N594 1.376 . S
C595 C596 1.443 . S
C595 C622 1.389 . S
C596 C595 1.443 . S
C596 C597 1.340 . S
C596 H628 0.951 . S
C597 C596 1.340 . S
C597 C598 1.439 . S
C597 H629 0.950 . S
C598 N594 1.374 . S
C598 C597 1.439 . S
C598 C623 1.395 . S
N599 Co588 1.995 . S
N599 C600 1.376 . S
N599 C603 1.383 . S
C600 N599 1.376 . S
C600 C601 1.446 . S
C600 C623 1.391 . S
C601 C600 1.446 . S
C601 C602 1.339 . S
C601 H630 0.949 . S
C602 C601 1.339 . S
C602 C603 1.439 . S
C602 H631 0.950 . S
C603 N599 1.383 . S
C603 C602 1.439 . S
C603 C621 1.392 . S
N604 Co588 2.282 . S
N604 C607 1.332 . S
N604 C609 1.332 . S
C605 C606 1.386 . S
C605 C608 1.388 . S
C606 C605 1.386 . S
C606 C607 1.382 . S
C606 H632 0.950 . S
C607 N604 1.332 . S
C607 C606 1.382 . S
C607 H618 0.952 . S
C608 C605 1.388 . S
C608 C609 1.382 . S
C608 H633 0.950 . S
C609 N604 1.332 . S
C609 C608 1.382 . S
C609 H619 0.948 . S
N610 Co588 2.282 . S
N610 C614 1.332 . S
N610 C615 1.332 . S
C611 C612 1.388 . S
C611 C615 1.382 . S
C611 H634 0.950 . S
C612 C611 1.388 . S
C612 C613 1.386 . S
C613 C612 1.386 . S
C613 C614 1.382 . S
C613 H635 0.950 . S
C614 N610 1.332 . S
C614 C613 1.382 . S
C614 H616 0.952 . S
C615 N610 1.332 . S
C615 C611 1.382 . S
C615 H617 0.948 . S
H616 C614 0.952 . S
H617 C615 0.948 . S
H618 C607 0.952 . S
H619 C609 0.948 . S
C620 C586 1.395 . S
C620 C590 1.391 . S
C621 C583 1.389 . S
C621 C603 1.392 . S
C622 C593 1.392 . S
C622 C595 1.389 . S
C623 C598 1.395 . S
C623 C600 1.391 . S
H624 C584 0.951 . S
H625 C585 0.950 . S
H626 C591 0.949 1_455 S
H627 C592 0.950 1_455 S
H628 C596 0.951 . S
H629 C597 0.950 . S
H630 C601 0.949 . S
H631 C602 0.950 . S
H632 C606 0.950 . S
H633 C608 0.950 . S
H634 C611 0.950 . S
H635 C613 0.950 . S
C636 C637 1.387 . S
C636 H640 0.950 . S
C636 C645 1.390 . S
C637 C636 1.387 . S
C637 C639 1.387 . S
H638 C645 0.950 . S
C639 C637 1.387 . S
C639 C641 1.390 . S
C639 H643 0.950 . S
H640 C636 0.950 . S
C641 C639 1.390 . S
C641 C642 1.387 . S
C641 H644 0.950 . S
C642 C641 1.387 . S
C642 C645 1.387 . S
H643 C639 0.950 . S
H644 C641 0.950 . S
C645 C636 1.390 . S
C645 H638 0.950 . S
C645 C642 1.387 . S
C646 C647 1.387 . S
C646 H650 0.950 . S
C646 C655 1.390 . S
C647 C646 1.387 . S
C647 C649 1.387 . S
H648 C655 0.950 . S
C649 C647 1.387 . S
C649 C651 1.390 . S
C649 H653 0.950 . S
H650 C646 0.950 . S
C651 C649 1.390 . S
C651 C652 1.387 . S
C651 H654 0.950 . S
C652 C651 1.387 . S
C652 C655 1.387 . S
H653 C649 0.950 . S
H654 C651 0.950 . S
C655 C646 1.390 . S
C655 H648 0.950 . S
C655 C652 1.387 . S
C656 C657 1.387 . S
C656 H660 0.950 . S
C656 C665 1.390 . S
C657 C656 1.387 . S
C657 C659 1.387 . S
H658 C665 0.950 . S
C659 C657 1.387 . S
C659 C661 1.390 . S
C659 H663 0.950 . S
H660 C656 0.950 . S
C661 C659 1.390 . S
C661 C662 1.387 . S
C661 H664 0.950 . S
C662 C661 1.387 . S
C662 C665 1.387 . S
H663 C659 0.950 . S
H664 C661 0.950 . S
C665 C656 1.390 . S
C665 H658 0.950 . S
C665 C662 1.387 . S
C666 C667 1.387 . S
C666 H670 0.950 . S
C666 C675 1.390 . S
C667 C666 1.387 . S
C667 C669 1.387 . S
H668 C675 0.950 . S
C669 C667 1.387 . S
C669 C671 1.390 . S
C669 H673 0.950 . S
H670 C666 0.950 . S
C671 C669 1.390 . S
C671 C672 1.387 . S
C671 H674 0.950 . S
C672 C671 1.387 . S
C672 C675 1.387 . S
H673 C669 0.950 . S
H674 C671 0.950 . S
C675 C666 1.390 . S
C675 H668 0.950 . S
C675 C672 1.387 . S
C676 C677 1.387 . S
C676 H680 0.950 . S
C676 C685 1.390 . S
C677 C676 1.387 . S
C677 C679 1.387 . S
H678 C685 0.950 . S
C679 C677 1.387 . S
C679 C681 1.390 . S
C679 H683 0.950 . S
H680 C676 0.950 . S
C681 C679 1.390 . S
C681 C682 1.387 . S
C681 H684 0.950 . S
C682 C681 1.387 . S
C682 C685 1.387 . S
H683 C679 0.950 . S
H684 C681 0.950 . S
C685 C676 1.390 . S
C685 H678 0.950 . S
C685 C682 1.387 . S
C686 C687 1.387 . S
C686 H690 0.950 . S
C686 C695 1.390 . S
C687 C686 1.387 . S
C687 C689 1.387 . S
H688 C695 0.950 . S
C689 C687 1.387 . S
C689 C691 1.390 . S
C689 H693 0.950 . S
H690 C686 0.950 . S
C691 C689 1.390 . S
C691 C692 1.387 . S
C691 H694 0.950 . S
C692 C691 1.387 . S
C692 C695 1.387 . S
H693 C689 0.950 . S
H694 C691 0.950 . S
C695 C686 1.390 . S
C695 H688 0.950 . S
C695 C692 1.387 . S
C696 C697 1.387 . S
C696 H700 0.950 . S
C696 C705 1.390 . S
C697 C696 1.387 . S
C697 C699 1.387 . S
H698 C705 0.950 . S
C699 C697 1.387 . S
C699 C701 1.390 . S
C699 H703 0.950 . S
H700 C696 0.950 . S
C701 C699 1.390 . S
C701 C702 1.387 . S
C701 H704 0.950 . S
C702 C701 1.387 . S
C702 C705 1.387 . S
H703 C699 0.950 . S
H704 C701 0.950 . S
C705 C696 1.390 . S
C705 H698 0.950 . S
C705 C702 1.387 . S
C706 C707 1.387 . S
C706 H710 0.950 . S
C706 C715 1.390 . S
C707 C706 1.387 . S
C707 C709 1.387 . S
H708 C715 0.950 . S
C709 C707 1.387 . S
C709 C711 1.390 . S
C709 H713 0.950 . S
H710 C706 0.950 . S
C711 C709 1.390 . S
C711 C712 1.387 . S
C711 H714 0.950 . S
C712 C711 1.387 . S
C712 C715 1.387 . S
H713 C709 0.950 . S
H714 C711 0.950 . S
C715 C706 1.390 . S
C715 H708 0.950 . S
C715 C712 1.387 . S
C716 C717 1.387 . S
C716 H720 0.950 . S
C716 C725 1.390 1_545 S
C717 C716 1.387 . S
C717 C719 1.387 . S
H718 C725 0.950 . S
C719 C717 1.387 . S
C719 C721 1.390 1_545 S
C719 H723 0.950 . S
H720 C716 0.950 . S
C721 C719 1.390 1_565 S
C721 C722 1.387 . S
C721 H724 0.950 . S
C722 C721 1.387 . S
C722 C725 1.387 . S
H723 C719 0.950 . S
H724 C721 0.950 . S
C725 C716 1.390 1_565 S
C725 H718 0.950 . S
C725 C722 1.387 . S
C726 C727 1.387 . S
C726 H730 0.950 . S
C726 C735 1.390 . S
C727 C726 1.387 . S
C727 C729 1.387 . S
H728 C735 0.950 . S
C729 C727 1.387 . S
C729 C731 1.390 . S
C729 H733 0.950 . S
H730 C726 0.950 . S
C731 C729 1.390 . S
C731 C732 1.387 . S
C731 H734 0.950 . S
C732 C731 1.387 . S
C732 C735 1.387 . S
H733 C729 0.950 . S
H734 C731 0.950 . S
C735 C726 1.390 . S
C735 H728 0.950 . S
C735 C732 1.387 . S
C736 C737 1.387 . S
C736 H740 0.950 . S
C736 C745 1.390 . S
C737 C736 1.387 . S
C737 C739 1.387 . S
H738 C745 0.950 . S
C739 C737 1.387 . S
C739 C741 1.390 . S
C739 H743 0.950 1_455 S
H740 C736 0.950 . S
C741 C739 1.390 . S
C741 C742 1.387 . S
C741 H744 0.950 . S
C742 C741 1.387 . S
C742 C745 1.387 . S
H743 C739 0.950 1_655 S
H744 C741 0.950 . S
C745 C736 1.390 . S
C745 H738 0.950 . S
C745 C742 1.387 . S
C746 C747 1.387 . S
C746 H750 0.950 . S
C746 C755 1.390 1_564 S
C747 C746 1.387 . S
C747 C749 1.387 . S
H748 C755 0.950 . S
C749 C747 1.387 . S
C749 C751 1.390 1_564 S
C749 H753 0.950 . S
H750 C746 0.950 . S
C751 C749 1.390 1_546 S
C751 C752 1.387 . S
C751 H754 0.950 . S
C752 C751 1.387 . S
C752 C755 1.387 . S
H753 C749 0.950 . S
H754 C751 0.950 . S
C755 C746 1.390 1_546 S
C755 H748 0.950 . S
C755 C752 1.387 . S
C756 C757 1.387 . S
C756 H760 0.950 . S
C756 C765 1.390 . S
C757 C756 1.387 . S
C757 C759 1.387 . S
H758 C765 0.950 . S
C759 C757 1.387 . S
C759 C761 1.390 . S
C759 H763 0.950 . S
H760 C756 0.950 . S
C761 C759 1.390 . S
C761 C762 1.387 . S
C761 H764 0.950 1_554 S
C762 C761 1.387 . S
C762 C765 1.387 . S
H763 C759 0.950 . S
H764 C761 0.950 1_556 S
C765 C756 1.390 . S
C765 H758 0.950 . S
C765 C762 1.387 . S
C766 C767 1.387 . S
C766 H770 0.950 . S
C766 C775 1.390 1_655 S
C767 C766 1.387 . S
C767 C769 1.387 . S
H768 C775 0.950 . S
C769 C767 1.387 . S
C769 C771 1.390 . S
C769 H773 0.950 . S
H770 C766 0.950 . S
C771 C769 1.390 . S
C771 C772 1.387 1_655 S
C771 H774 0.950 . S
C772 C771 1.387 1_455 S
C772 C775 1.387 . S
H773 C769 0.950 . S
H774 C771 0.950 . S
C775 C766 1.390 1_455 S
C775 H768 0.950 . S
C775 C772 1.387 . S
C776 C777 1.387 . S
C776 H780 0.950 . S
C776 C785 1.390 . S
C777 C776 1.387 . S
C777 C779 1.387 . S
H778 C785 0.950 . S
C779 C777 1.387 . S
C779 C781 1.390 . S
C779 H783 0.950 . S
H780 C776 0.950 . S
C781 C779 1.390 . S
C781 C782 1.387 . S
C781 H784 0.950 . S
C782 C781 1.387 . S
C782 C785 1.387 . S
H783 C779 0.950 . S
H784 C781 0.950 . S
C785 C776 1.390 . S
C785 H778 0.950 . S
C785 C782 1.387 . S
C786 C787 1.387 . S
C786 H790 0.950 . S
C786 C795 1.390 . S
C787 C786 1.387 . S
C787 C789 1.387 . S
H788 C795 0.950 . S
C789 C787 1.387 . S
C789 C791 1.390 . S
C789 H793 0.950 . S
H790 C786 0.950 . S
C791 C789 1.390 . S
C791 C792 1.387 . S
C791 H794 0.950 . S
C792 C791 1.387 . S
C792 C795 1.387 . S
H793 C789 0.950 . S
H794 C791 0.950 . S
C795 C786 1.390 . S
C795 H788 0.950 . S
C795 C792 1.387 . S
C796 C797 1.387 . S
C796 H800 0.950 . S
C796 C805 1.390 1_455 S
C797 C796 1.387 . S
C797 C799 1.387 . S
H798 C805 0.950 . S
C799 C797 1.387 . S
C799 C801 1.390 . S
C799 H803 0.950 . S
H800 C796 0.950 . S
C801 C799 1.390 . S
C801 C802 1.387 1_455 S
C801 H804 0.950 . S
C802 C801 1.387 1_655 S
C802 C805 1.387 . S
H803 C799 0.950 . S
H804 C801 0.950 . S
C805 C796 1.390 1_655 S
C805 H798 0.950 . S
C805 C802 1.387 . S
C806 C807 1.387 . S
C806 H810 0.950 . S
C806 C815 1.390 . S
C807 C806 1.387 . S
C807 C809 1.387 . S
H808 C815 0.950 1_565 S
C809 C807 1.387 . S
C809 C811 1.390 . S
C809 H813 0.950 . S
H810 C806 0.950 . S
C811 C809 1.390 . S
C811 C812 1.387 . S
C811 H814 0.950 . S
C812 C811 1.387 . S
C812 C815 1.387 . S
H813 C809 0.950 . S
H814 C811 0.950 . S
C815 C806 1.390 . S
C815 H808 0.950 1_545 S
C815 C812 1.387 . S
C816 C817 1.387 . S
C816 H820 0.950 . S
C816 C825 1.390 . S
C817 C816 1.387 . S
C817 C819 1.387 . S
H818 C825 0.950 . S
C819 C817 1.387 . S
C819 C821 1.390 . S
C819 H823 0.950 . S
H820 C816 0.950 . S
C821 C819 1.390 . S
C821 C822 1.387 . S
C821 H824 0.950 . S
C822 C821 1.387 . S
C822 C825 1.387 . S
H823 C819 0.950 . S
H824 C821 0.950 . S
C825 C816 1.390 . S
C825 H818 0.950 . S
C825 C822 1.387 . S
C826 C827 1.387 . S
C826 H830 0.950 . S
C826 C835 1.390 1_655 S
C827 C826 1.387 . S
C827 C829 1.387 . S
H828 C835 0.950 . S
C829 C827 1.387 . S
C829 C831 1.390 1_556 S
C829 H833 0.950 . S
H830 C826 0.950 . S
C831 C829 1.390 1_554 S
C831 C832 1.387 1_654 S
C831 H834 0.950 . S
C832 C831 1.387 1_456 S
C832 C835 1.387 . S
H833 C829 0.950 . S
H834 C831 0.950 . S
C835 C826 1.390 1_455 S
C835 H828 0.950 . S
C835 C832 1.387 . S
C836 C837 1.387 . S
C836 H840 0.950 . S
C836 C845 1.390 . S
C837 C836 1.387 . S
C837 C839 1.387 . S
H838 C845 0.950 . S
C839 C837 1.387 . S
C839 C841 1.390 . S
C839 H843 0.950 . S
H840 C836 0.950 . S
C841 C839 1.390 . S
C841 C842 1.387 . S
C841 H844 0.950 1_565 S
C842 C841 1.387 . S
C842 C845 1.387 . S
H843 C839 0.950 . S
H844 C841 0.950 1_545 S
C845 C836 1.390 . S
C845 H838 0.950 . S
C845 C842 1.387 . S
C846 C847 1.387 . S
C846 H850 0.950 . S
C846 C855 1.390 . S
C847 C846 1.387 . S
C847 C849 1.387 . S
H848 C855 0.950 . S
C849 C847 1.387 . S
C849 C851 1.390 . S
C849 H853 0.950 . S
H850 C846 0.950 . S
C851 C849 1.390 . S
C851 C852 1.387 . S
C851 H854 0.950 . S
C852 C851 1.387 . S
C852 C855 1.387 . S
H853 C849 0.950 . S
H854 C851 0.950 . S
C855 C846 1.390 . S
C855 H848 0.950 . S
C855 C852 1.387 . S
C856 C857 1.387 . S
C856 H860 0.950 . S
C856 C865 1.396 . S
C857 C856 1.387 . S
C857 C859 1.387 . S
H858 C865 0.946 1_655 S
C859 C857 1.387 . S
C859 C861 1.390 1_455 S
C859 H863 0.950 . S
H860 C856 0.950 . S
C861 C859 1.390 1_655 S
C861 C862 1.387 . S
C861 H864 0.950 . S
C862 C861 1.387 . S
C862 C865 1.385 1_655 S
H863 C859 0.950 . S
H864 C861 0.950 . S
C865 C856 1.396 . S
C865 H858 0.946 1_455 S
C865 C862 1.385 1_455 S
C866 C867 1.387 . S
C866 H870 0.950 1_545 S
C866 C875 1.390 . S
C867 C866 1.387 . S
C867 C869 1.387 . S
H868 C875 0.950 . S
C869 C867 1.387 . S
C869 C871 1.390 . S
C869 H873 0.950 . S
H870 C866 0.950 1_565 S
C871 C869 1.390 . S
C871 C872 1.387 . S
C871 H874 0.950 . S
C872 C871 1.387 . S
C872 C875 1.387 . S
H873 C869 0.950 . S
H874 C871 0.950 . S
C875 C866 1.390 . S
C875 H868 0.950 . S
C875 C872 1.387 . S
C637 C446 1.832 . S
C642 C22 1.832 . S
C647 C91 1.827 . S
C652 C515 1.828 . S
C657 C128 1.830 . S
C662 C552 1.833 . S
C667 C181 1.833 . S
C672 C605 1.831 . S
C677 C356 1.827 . S
C682 C250 1.827 . S
C687 C287 1.830 . S
C692 C393 1.832 . S
C697 C516 1.579 . S
C702 C29 1.557 . S
C707 C92 1.576 . S
C712 C559 1.555 1_655 S
C717 C612 1.443 . S
C722 C135 1.443 . S
C727 C188 1.555 . S
C732 C357 1.576 . S
C737 C400 1.556 1_455 S
C742 C251 1.577 . S
C747 C453 1.446 . S
C752 C294 1.446 . S
C757 C38 2.091 . S
C762 C304 2.081 1_554 S
C767 C75 2.309 . S
C772 C39 2.341 . S
C777 C82 2.158 1_565 S
C782 C144 2.281 . S
C787 C197 2.091 . S
C792 C145 2.081 . S
C797 C234 2.309 . S
C802 C198 2.341 . S
C807 C303 2.281 . S
C812 C241 2.156 1_545 S
C817 C340 2.309 . S
C822 C410 2.342 . S
C827 C409 2.092 . S
C832 C463 2.081 1_556 S
C837 C462 2.281 . S
C842 C506 2.158 1_565 S
C847 C499 2.309 . S
C852 C569 2.342 . S
C857 C568 2.091 . S
C862 C622 2.083 . S
C867 C347 2.156 1_545 S
C872 C621 2.281 . S
