# Generated by pormake.
# Topology neb, (4)-cn, num edge types: 1
# Building blocks:
#     Node 0, Type 0, BuildingBlock: UXUYUI_clean_sbu_0, # of connection points: 4
#     Node 1, Type 0, BuildingBlock: UXUYUI_clean_sbu_0, # of connection points: 4
#     Node 2, Type 0, BuildingBlock: UXUYUI_clean_sbu_0, # of connection points: 4
#     Node 3, Type 0, BuildingBlock: UXUYUI_clean_sbu_0, # of connection points: 4
#     Node 4, Type 0, BuildingBlock: UXUYUI_clean_sbu_0, # of connection points: 4
#     Node 5, Type 0, BuildingBlock: UXUYUI_clean_sbu_0, # of connection points: 4
#     Node 6, Type 0, BuildingBlock: UXUYUI_clean_sbu_0, # of connection points: 4
#     Node 7, Type 0, BuildingBlock: UXUYUI_clean_sbu_0, # of connection points: 4
#     Node 8, Type 0, BuildingBlock: UXUYUI_clean_sbu_0, # of connection points: 4
#     Node 9, Type 0, BuildingBlock: UXUYUI_clean_sbu_0, # of connection points: 4
#     Node 10, Type 0, BuildingBlock: UXUYUI_clean_sbu_0, # of connection points: 4
#     Node 11, Type 0, BuildingBlock: UXUYUI_clean_sbu_0, # of connection points: 4
#     Node 12, Type 0, BuildingBlock: UXUYUI_clean_sbu_0, # of connection points: 4
#     Node 13, Type 0, BuildingBlock: UXUYUI_clean_sbu_0, # of connection points: 4
#     Node 14, Type 0, BuildingBlock: UXUYUI_clean_sbu_0, # of connection points: 4
#     Node 15, Type 0, BuildingBlock: UXUYUI_clean_sbu_0, # of connection points: 4
#     Edge 16, Type (0, 0), BuildingBlock: KIFKEQ_clean_linker_1, # of connection points: 2
#     Edge 17, Type (0, 0), BuildingBlock: KIFKEQ_clean_linker_1, # of connection points: 2
#     Edge 18, Type (0, 0), BuildingBlock: KIFKEQ_clean_linker_1, # of connection points: 2
#     Edge 19, Type (0, 0), BuildingBlock: KIFKEQ_clean_linker_1, # of connection points: 2
#     Edge 20, Type (0, 0), BuildingBlock: KIFKEQ_clean_linker_1, # of connection points: 2
#     Edge 21, Type (0, 0), BuildingBlock: KIFKEQ_clean_linker_1, # of connection points: 2
#     Edge 22, Type (0, 0), BuildingBlock: KIFKEQ_clean_linker_1, # of connection points: 2
#     Edge 23, Type (0, 0), BuildingBlock: KIFKEQ_clean_linker_1, # of connection points: 2
#     Edge 24, Type (0, 0), BuildingBlock: KIFKEQ_clean_linker_1, # of connection points: 2
#     Edge 25, Type (0, 0), BuildingBlock: KIFKEQ_clean_linker_1, # of connection points: 2
#     Edge 26, Type (0, 0), BuildingBlock: KIFKEQ_clean_linker_1, # of connection points: 2
#     Edge 27, Type (0, 0), BuildingBlock: KIFKEQ_clean_linker_1, # of connection points: 2
#     Edge 28, Type (0, 0), BuildingBlock: KIFKEQ_clean_linker_1, # of connection points: 2
#     Edge 29, Type (0, 0), BuildingBlock: KIFKEQ_clean_linker_1, # of connection points: 2
#     Edge 30, Type (0, 0), BuildingBlock: KIFKEQ_clean_linker_1, # of connection points: 2
#     Edge 31, Type (0, 0), BuildingBlock: KIFKEQ_clean_linker_1, # of connection points: 2
#     Edge 32, Type (0, 0), BuildingBlock: KIFKEQ_clean_linker_1, # of connection points: 2
#     Edge 33, Type (0, 0), BuildingBlock: KIFKEQ_clean_linker_1, # of connection points: 2
#     Edge 34, Type (0, 0), BuildingBlock: KIFKEQ_clean_linker_1, # of connection points: 2
#     Edge 35, Type (0, 0), BuildingBlock: KIFKEQ_clean_linker_1, # of connection points: 2
#     Edge 36, Type (0, 0), BuildingBlock: KIFKEQ_clean_linker_1, # of connection points: 2
#     Edge 37, Type (0, 0), BuildingBlock: KIFKEQ_clean_linker_1, # of connection points: 2
#     Edge 38, Type (0, 0), BuildingBlock: KIFKEQ_clean_linker_1, # of connection points: 2
#     Edge 39, Type (0, 0), BuildingBlock: KIFKEQ_clean_linker_1, # of connection points: 2
#     Edge 40, Type (0, 0), BuildingBlock: KIFKEQ_clean_linker_1, # of connection points: 2
#     Edge 41, Type (0, 0), BuildingBlock: KIFKEQ_clean_linker_1, # of connection points: 2
#     Edge 42, Type (0, 0), BuildingBlock: KIFKEQ_clean_linker_1, # of connection points: 2
#     Edge 43, Type (0, 0), BuildingBlock: KIFKEQ_clean_linker_1, # of connection points: 2
#     Edge 44, Type (0, 0), BuildingBlock: KIFKEQ_clean_linker_1, # of connection points: 2
#     Edge 45, Type (0, 0), BuildingBlock: KIFKEQ_clean_linker_1, # of connection points: 2
#     Edge 46, Type (0, 0), BuildingBlock: KIFKEQ_clean_linker_1, # of connection points: 2
#     Edge 47, Type (0, 0), BuildingBlock: KIFKEQ_clean_linker_1, # of connection points: 2
# Relax obj value: 0.156
# Max RMSD: 0.184
# Mean RMSD: 0.183
data_MOF--net-neb--node1-UXUYUI_clean_sbu_0--edge1-KIFKEQ_clean_linker_1
_symmetry_space_group_name_H-M    P1
_symmetry_Int_Tables_number       1
_symmetry_cell_setting            triclinic
loop_
_symmetry_equiv_pos_as_xyz
'x, y, z'
_cell_length_a     67.983021
_cell_length_b     32.196293
_cell_length_c     109.1963
_cell_angle_alpha  90.00006
_cell_angle_beta   90.00122
_cell_angle_gamma 90.003262
loop_
_atom_site_label
_atom_site_type_symbol
_atom_site_fract_x
_atom_site_fract_y
_atom_site_fract_z
_atom_type_partial_charge
Li0 Li 0.10967 0.10675 0.45189 0.0
Li1 Li 0.14346 0.13574 0.45162 0.0
Li2 Li 0.12101 0.15433 0.43543 0.0
Li3 Li 0.13481 0.08385 0.43717 0.0
C4 C 0.10226 0.19138 0.45583 0.0
N5 N 0.07017 0.24059 0.46135 0.0
C6 C 0.10418 0.22436 0.46405 0.0
C7 C 0.08401 0.18331 0.45045 0.0
C8 C 0.08779 0.24894 0.46671 0.0
C9 C 0.06796 0.20855 0.45334 0.0
C10 C 0.14085 0.03762 0.45626 0.0
C11 C 0.16553 0.98444 0.45378 0.0
N12 N 0.15213 0.9552 0.45712 0.0
C13 C 0.12736 0.00708 0.45975 0.0
C14 C 0.16014 0.02628 0.45333 0.0
C15 C 0.13334 0.96557 0.46011 0.0
C16 C 0.07688 0.05684 0.45655 0.0
N17 N 0.08773 0.08853 0.46122 0.0
C18 C 0.06729 0.09141 0.47901 0.0
C19 C 0.08331 0.10596 0.47222 0.0
C20 C 0.05593 0.05834 0.47447 0.0
C21 C 0.06087 0.0411 0.46306 0.0
H22 H 0.08084 0.04344 0.44781 0.0
H23 H 0.09231 0.13095 0.47576 0.0
C24 C 0.16477 0.20055 0.46252 0.0
N25 N 0.1638 0.15851 0.46158 0.0
C26 C 0.17994 0.2193 0.46912 0.0
C27 C 0.19266 0.15107 0.47388 0.0
C28 C 0.17722 0.13364 0.46718 0.0
C29 C 0.19422 0.19449 0.47487 0.0
H30 H 0.15392 0.21954 0.45792 0.0
H31 H 0.17604 0.10031 0.46637 0.0
C32 C 0.09623 0.09463 0.42378 0.0
N33 N 0.07416 0.0831 0.40278 0.0
C34 C 0.10549 0.08589 0.41264 0.0
C35 C 0.07571 0.09697 0.42425 0.0
C36 C 0.09409 0.08032 0.40213 0.0
C37 C 0.06482 0.0912 0.41353 0.0
C38 C 0.16582 0.15785 0.43347 0.0
C39 C 0.16563 0.20068 0.43136 0.0
C40 C 0.18367 0.13776 0.43576 0.0
C41 C 0.18332 0.22274 0.43165 0.0
C42 C 0.20104 0.16094 0.43601 0.0
N43 N 0.2005 0.2026 0.43397 0.0
C44 C 0.10595 0.23313 0.42624 0.0
C45 C 0.11976 0.18629 0.41191 0.0
C46 C 0.10273 0.26242 0.41699 0.0
N47 N 0.11419 0.1957 0.42353 0.0
C48 C 0.11668 0.21438 0.4024 0.0
C49 C 0.10822 0.25328 0.40487 0.0
H50 H 0.1024 0.24104 0.43557 0.0
H51 H 0.12713 0.15727 0.41007 0.0
C52 C 0.12932 0.0049 0.42703 0.0
N53 N 0.14224 0.03701 0.42762 0.0
C54 C 0.13271 0.97184 0.41905 0.0
C55 C 0.16298 0.00491 0.41272 0.0
C56 C 0.15894 0.03748 0.42079 0.0
C57 C 0.14958 0.97183 0.4116 0.0
H58 H 0.11599 0.0058 0.43243 0.0
H59 H 0.1688 0.06372 0.42131 0.0
O60 O 0.11811 0.16667 0.45331 0.0
O61 O 0.13517 0.07834 0.45562 0.0
O62 O 0.10711 0.09966 0.43424 0.0
O63 O 0.14859 0.13589 0.43354 0.0
H64 H 0.1182 0.23085 0.46836 0.0
H65 H 0.08229 0.15798 0.44408 0.0
H66 H 0.08907 0.2746 0.47306 0.0
H67 H 0.05376 0.20269 0.44922 0.0
H68 H 0.18036 0.9752 0.45142 0.0
H69 H 0.11244 0.01527 0.46214 0.0
H70 H 0.17073 0.04943 0.45052 0.0
H71 H 0.12302 0.9416 0.46275 0.0
H72 H 0.06408 0.10528 0.48782 0.0
H73 H 0.05239 0.01585 0.45918 0.0
H74 H 0.18068 0.25287 0.46952 0.0
H75 H 0.20316 0.13075 0.47832 0.0
H76 H 0.12133 0.08371 0.41207 0.0
H77 H 0.0682 0.10296 0.4328 0.0
H78 H 0.1011 0.07377 0.39344 0.0
H79 H 0.04894 0.09304 0.41377 0.0
H80 H 0.15196 0.21685 0.42967 0.0
H81 H 0.1841 0.10472 0.43753 0.0
H82 H 0.18337 0.25593 0.4301 0.0
H83 H 0.21494 0.14584 0.43788 0.0
H84 H 0.0966 0.29237 0.41939 0.0
H85 H 0.12108 0.20576 0.39322 0.0
H86 H 0.12177 0.9475 0.41837 0.0
H87 H 0.17626 0.00601 0.40726 0.0
Li88 Li 0.13341 0.16354 0.81236 0.0
Li89 Li 0.11887 0.09349 0.81347 0.0
Li90 Li 0.14279 0.11194 0.79807 0.0
Li91 Li 0.10969 0.14156 0.79704 0.0
C92 C 0.16375 0.08882 0.81675 0.0
N93 N 0.19853 0.04434 0.81705 0.0
C94 C 0.1634 0.04549 0.81747 0.0
C95 C 0.18181 0.10954 0.8163 0.0
C96 C 0.18113 0.02355 0.81759 0.0
C97 C 0.19922 0.0865 0.81642 0.0
C98 C 0.08593 0.14398 0.81738 0.0
C99 C 0.05527 0.10697 0.81532 0.0
N100 N 0.0463 0.13603 0.82243 0.0
C101 C 0.07642 0.17351 0.82464 0.0
C102 C 0.07529 0.11044 0.81265 0.0
C103 C 0.05637 0.16892 0.82711 0.0
C104 C 0.13041 0.24505 0.82169 0.0
N105 N 0.14043 0.20866 0.82266 0.0
C106 C 0.15763 0.23335 0.84027 0.0
C107 C 0.15395 0.2024 0.83163 0.0
C108 C 0.14719 0.27095 0.83971 0.0
C109 C 0.13369 0.27694 0.83012 0.0
H110 H 0.11944 0.24875 0.8146 0.0
H111 H 0.1614 0.17285 0.83232 0.0
C112 C 0.10983 0.01189 0.82187 0.0
N113 N 0.11008 0.05292 0.82476 0.0
C114 C 0.10587 0.98228 0.8309 0.0
C115 C 0.10133 0.03804 0.84547 0.0
C116 C 0.10563 0.06644 0.83621 0.0
C117 C 0.10197 0.99521 0.84298 0.0
H118 H 0.11359 0.0021 0.81268 0.0
H119 H 0.106 0.09932 0.83823 0.0
C120 C 0.14301 0.20898 0.79314 0.0
N121 N 0.15846 0.28819 0.79135 0.0
C122 C 0.1326 0.24014 0.78701 0.0
C123 C 0.16146 0.21795 0.79812 0.0
C124 C 0.14061 0.28002 0.78626 0.0
C125 C 0.16896 0.25822 0.7972 0.0
C126 C 0.11556 0.06703 0.78405 0.0
C127 C 0.12201 0.09145 0.77425 0.0
C128 C 0.10751 0.02785 0.78179 0.0
C129 C 0.12021 0.07623 0.76232 0.0
C130 C 0.10595 0.01376 0.76973 0.0
N131 N 0.11228 0.03803 0.76033 0.0
C132 C 0.16435 0.04749 0.78677 0.0
C133 C 0.17854 0.11425 0.78438 0.0
C134 C 0.17972 0.02936 0.78019 0.0
N135 N 0.16403 0.08921 0.78872 0.0
C136 C 0.19432 0.09736 0.77787 0.0
C137 C 0.19501 0.05439 0.7757 0.0
H138 H 0.15273 0.02821 0.79043 0.0
H139 H 0.17792 0.14728 0.78601 0.0
C140 C 0.08232 0.20123 0.78979 0.0
N141 N 0.08773 0.1612 0.7877 0.0
C142 C 0.06642 0.21863 0.78352 0.0
C143 C 0.06141 0.15278 0.77339 0.0
C144 C 0.07736 0.13664 0.77988 0.0
C145 C 0.05584 0.19442 0.77509 0.0
H146 H 0.09042 0.21969 0.79636 0.0
H147 H 0.08123 0.10441 0.77874 0.0
O148 O 0.14651 0.11072 0.81624 0.0
O149 O 0.10548 0.14846 0.81476 0.0
O150 O 0.13531 0.16978 0.79404 0.0
O151 O 0.11739 0.08083 0.79585 0.0
H152 H 0.14961 0.02889 0.81775 0.0
H153 H 0.18242 0.14302 0.81578 0.0
H154 H 0.18106 0.98999 0.81806 0.0
H155 H 0.21329 0.10213 0.816 0.0
H156 H 0.04685 0.08121 0.81172 0.0
H157 H 0.08446 0.19975 0.82831 0.0
H158 H 0.08238 0.08743 0.80694 0.0
H159 H 0.04881 0.19154 0.83272 0.0
H160 H 0.16825 0.22759 0.84747 0.0
H161 H 0.12511 0.30519 0.82945 0.0
H162 H 0.10676 0.94967 0.82856 0.0
H163 H 0.098 0.04957 0.85455 0.0
H164 H 0.11859 0.23356 0.78277 0.0
H165 H 0.16976 0.19424 0.80283 0.0
H166 H 0.13267 0.30444 0.78159 0.0
H167 H 0.18312 0.26565 0.80115 0.0
H168 H 0.12833 0.12179 0.77578 0.0
H169 H 0.10253 0.00853 0.78929 0.0
H170 H 0.12511 0.09478 0.75465 0.0
H171 H 0.09973 0.9835 0.76784 0.0
H172 H 0.17981 0.99605 0.77882 0.0
H173 H 0.20574 0.11775 0.77446 0.0
H174 H 0.06266 0.25085 0.78513 0.0
H175 H 0.05334 0.13269 0.76722 0.0
Li176 Li 0.89209 0.88636 0.54797 0.0
Li177 Li 0.86684 0.90547 0.56365 0.0
Li178 Li 0.88131 0.83812 0.5636 0.0
Li179 Li 0.85865 0.85504 0.54764 0.0
C180 C 0.90701 0.88263 0.57534 0.0
N181 N 0.93088 0.86008 0.59469 0.0
C182 C 0.90146 0.89209 0.58734 0.0
C183 C 0.92472 0.86184 0.57316 0.0
C184 C 0.91374 0.88041 0.59701 0.0
C185 C 0.93657 0.85065 0.58308 0.0
C186 C 0.86381 0.95512 0.54266 0.0
C187 C 0.84397 0.01195 0.53528 0.0
N188 N 0.85929 0.03836 0.53718 0.0
C189 C 0.8794 0.98276 0.54445 0.0
C190 C 0.84599 0.96973 0.53796 0.0
C191 C 0.8768 0.02475 0.54167 0.0
C192 C 0.9116 0.90573 0.52584 0.0
N193 N 0.91313 0.90673 0.53825 0.0
C194 C 0.94448 0.93995 0.53696 0.0
C195 C 0.9291 0.92343 0.54388 0.0
C196 C 0.94335 0.93969 0.5241 0.0
C197 C 0.92661 0.92215 0.51855 0.0
H198 H 0.89859 0.89264 0.52163 0.0
H199 H 0.9298 0.92436 0.55376 0.0
C200 C 0.84252 0.952 0.58086 0.0
N201 N 0.8593 0.95102 0.57406 0.0
C202 C 0.83919 0.98423 0.58916 0.0
C203 C 0.87043 0.01403 0.5834 0.0
C204 C 0.87314 0.98127 0.57521 0.0
C205 C 0.85335 0.01557 0.59062 0.0
H206 H 0.83188 0.92739 0.58024 0.0
H207 H 0.8867 0.9791 0.57009 0.0
C208 C 0.88195 0.78661 0.54248 0.0
N209 N 0.87587 0.70514 0.53549 0.0
C210 C 0.86941 0.76108 0.54928 0.0
C211 C 0.89138 0.77073 0.53212 0.0
C212 C 0.86653 0.71998 0.5456 0.0
C213 C 0.88812 0.72944 0.52874 0.0
C214 C 0.83346 0.85671 0.56767 0.0
C215 C 0.82421 0.83503 0.57715 0.0
C216 C 0.82241 0.88322 0.56022 0.0
C217 C 0.80406 0.84052 0.57908 0.0
C218 C 0.80229 0.8878 0.56243 0.0
N219 N 0.79361 0.86656 0.57174 0.0
C220 C 0.88112 0.79668 0.58587 0.0
C221 C 0.90285 0.76584 0.57151 0.0
C222 C 0.88574 0.76656 0.59456 0.0
N223 N 0.88959 0.79567 0.5746 0.0
C224 C 0.90766 0.73458 0.57988 0.0
C225 C 0.89897 0.73473 0.59155 0.0
H226 H 0.87066 0.82088 0.58805 0.0
H227 H 0.9095 0.76604 0.56251 0.0
C228 C 0.83688 0.84985 0.52548 0.0
N229 N 0.83871 0.83411 0.53698 0.0
C230 C 0.82234 0.83469 0.5176 0.0
C231 C 0.8119 0.78755 0.53355 0.0
C232 C 0.82662 0.8035 0.54109 0.0
C233 C 0.8096 0.80305 0.52161 0.0
H234 H 0.84675 0.87411 0.52245 0.0
H235 H 0.82832 0.79154 0.55027 0.0
O236 O 0.89494 0.89282 0.56578 0.0
O237 O 0.86602 0.91386 0.54534 0.0
O238 O 0.88492 0.82709 0.54581 0.0
O239 O 0.85307 0.85072 0.56552 0.0
H240 H 0.88772 0.90781 0.58919 0.0
H241 H 0.92909 0.85382 0.56393 0.0
H242 H 0.9096 0.88733 0.60635 0.0
H243 H 0.95025 0.8343 0.58154 0.0
H244 H 0.83025 0.0237 0.53166 0.0
H245 H 0.89329 0.97205 0.54808 0.0
H246 H 0.83385 0.94869 0.53634 0.0
H247 H 0.8887 0.04652 0.54309 0.0
H248 H 0.95716 0.95259 0.54166 0.0
H249 H 0.92494 0.92179 0.50869 0.0
H250 H 0.82578 0.98424 0.59451 0.0
H251 H 0.88196 0.03697 0.58441 0.0
H252 H 0.86195 0.77284 0.55731 0.0
H253 H 0.9011 0.79016 0.52674 0.0
H254 H 0.85686 0.6999 0.55078 0.0
H255 H 0.89532 0.71673 0.52074 0.0
H256 H 0.83253 0.8141 0.58293 0.0
H257 H 0.82927 0.90008 0.55283 0.0
H258 H 0.79673 0.82399 0.5864 0.0
H259 H 0.79358 0.90825 0.55674 0.0
H260 H 0.87857 0.76744 0.60342 0.0
H261 H 0.91798 0.71054 0.57727 0.0
H262 H 0.82124 0.84728 0.50843 0.0
H263 H 0.80224 0.76373 0.53713 0.0
Li264 Li 0.87958 0.91002 0.18607 0.0
Li265 Li 0.85601 0.88593 0.20156 0.0
Li266 Li 0.89114 0.85943 0.20161 0.0
Li267 Li 0.86731 0.83702 0.18637 0.0
C268 C 0.88938 0.95243 0.20875 0.0
N269 N 0.90608 0.02375 0.21832 0.0
C270 C 0.87747 0.98538 0.21257 0.0
C271 C 0.90979 0.95551 0.21006 0.0
C272 C 0.88619 0.02125 0.2173 0.0
C273 C 0.91795 0.99187 0.21484 0.0
C274 C 0.83426 0.90501 0.1814 0.0
C275 C 0.7989 0.8995 0.18231 0.0
N276 N 0.79731 0.93846 0.1776 0.0
C277 C 0.83228 0.94489 0.17649 0.0
C278 C 0.81744 0.88199 0.18425 0.0
C279 C 0.81348 0.96128 0.17466 0.0
C280 C 0.89173 0.9449 0.16386 0.0
N281 N 0.8862 0.95489 0.17545 0.0
C282 C 0.88721 0.02724 0.17063 0.0
C283 C 0.88398 0.9951 0.17898 0.0
C284 C 0.89264 0.01787 0.15853 0.0
C285 C 0.89515 0.97604 0.15522 0.0
H286 H 0.893 0.91262 0.16124 0.0
H287 H 0.87908 0.0023 0.18812 0.0
C288 C 0.82786 0.87902 0.22073 0.0
N289 N 0.83447 0.90367 0.2115 0.0
C290 C 0.81199 0.89172 0.22798 0.0
C291 C 0.81009 0.95486 0.21606 0.0
C292 C 0.82606 0.94114 0.20915 0.0
C293 C 0.80284 0.93002 0.22561 0.0
H294 H 0.83492 0.84951 0.22248 0.0
H295 H 0.83178 0.96053 0.20191 0.0
C296 C 0.91384 0.85997 0.17994 0.0
N297 N 0.95271 0.8654 0.17265 0.0
C298 C 0.92269 0.82701 0.17368 0.0
C299 C 0.9247 0.89592 0.1823 0.0
C300 C 0.94238 0.83026 0.17013 0.0
C301 C 0.94434 0.89804 0.17859 0.0
C302 C 0.85988 0.78827 0.2049 0.0
C303 C 0.87356 0.75621 0.20628 0.0
C304 C 0.83991 0.77877 0.20375 0.0
C305 C 0.86705 0.71506 0.20628 0.0
C306 C 0.83398 0.73723 0.20379 0.0
N307 N 0.84756 0.70649 0.20503 0.0
C308 C 0.9156 0.85754 0.22275 0.0
C309 C 0.92442 0.81065 0.20696 0.0
C310 C 0.9312 0.84358 0.23001 0.0
N311 N 0.91266 0.84124 0.21141 0.0
C312 C 0.94012 0.79567 0.2139 0.0
C313 C 0.94374 0.81221 0.2256 0.0
H314 H 0.90581 0.88135 0.22616 0.0
H315 H 0.92138 0.79723 0.1981 0.0
C316 C 0.84411 0.78984 0.16948 0.0
N317 N 0.86092 0.79104 0.1762 0.0
C318 C 0.84072 0.75706 0.16135 0.0
C319 C 0.87194 0.72741 0.16732 0.0
C320 C 0.87461 0.76048 0.17538 0.0
C321 C 0.8549 0.72553 0.16003 0.0
H322 H 0.83352 0.8147 0.17022 0.0
H323 H 0.88785 0.76231 0.18084 0.0
O324 O 0.88102 0.91685 0.20422 0.0
O325 O 0.85257 0.88863 0.18336 0.0
O326 O 0.89457 0.85719 0.18351 0.0
O327 O 0.86603 0.82871 0.20459 0.0
H328 H 0.86167 0.98351 0.2118 0.0
H329 H 0.91929 0.92999 0.20755 0.0
H330 H 0.87712 0.04709 0.22018 0.0
H331 H 0.93373 0.99464 0.21586 0.0
H332 H 0.78576 0.88212 0.18456 0.0
H333 H 0.8451 0.96307 0.17414 0.0
H334 H 0.81867 0.85108 0.18802 0.0
H335 H 0.81173 0.99217 0.17092 0.0
H336 H 0.88521 0.05907 0.17359 0.0
H337 H 0.899 0.96735 0.14595 0.0
H338 H 0.80679 0.87159 0.23523 0.0
H339 H 0.80369 0.98491 0.21407 0.0
H340 H 0.91449 0.79913 0.1716 0.0
H341 H 0.91797 0.92219 0.18676 0.0
H342 H 0.94943 0.80487 0.16535 0.0
H343 H 0.95289 0.92572 0.18038 0.0
H344 H 0.88906 0.76299 0.20722 0.0
H345 H 0.82911 0.80319 0.20281 0.0
H346 H 0.87749 0.68992 0.20725 0.0
H347 H 0.81858 0.72943 0.20284 0.0
H348 H 0.93348 0.85742 0.23894 0.0
H349 H 0.94905 0.77077 0.21023 0.0
H350 H 0.82725 0.75672 0.15606 0.0
H351 H 0.88348 0.70439 0.16652 0.0
Li352 Li 0.14041 0.64025 0.95085 0.0
Li353 Li 0.10846 0.61469 0.95097 0.0
Li354 Li 0.13136 0.59155 0.93486 0.0
Li355 Li 0.1169 0.66618 0.93558 0.0
C356 C 0.14532 0.56625 0.96111 0.0
N357 N 0.17141 0.53711 0.97849 0.0
C358 C 0.1427 0.5763 0.97345 0.0
C359 C 0.16107 0.54098 0.95761 0.0
C360 C 0.1561 0.5614 0.98209 0.0
C361 C 0.17413 0.52664 0.96654 0.0
C362 C 0.10275 0.68981 0.96113 0.0
C363 C 0.07377 0.7313 0.96468 0.0
N364 N 0.07493 0.72257 0.97684 0.0
C365 C 0.10378 0.68159 0.97368 0.0
C366 C 0.08772 0.71512 0.95658 0.0
C367 C 0.08952 0.69829 0.98147 0.0
C368 C 0.15925 0.69473 0.96723 0.0
N369 N 0.16213 0.65951 0.9606 0.0
C370 C 0.19564 0.6561 0.9672 0.0
C371 C 0.17992 0.64021 0.96044 0.0
C372 C 0.19314 0.69256 0.97412 0.0
C373 C 0.17459 0.71185 0.97407 0.0
H374 H 0.14512 0.71004 0.96703 0.0
H375 H 0.18206 0.61281 0.95491 0.0
C376 C 0.09001 0.55617 0.96625 0.0
N377 N 0.08712 0.59348 0.9607 0.0
C378 C 0.07493 0.53755 0.97297 0.0
C379 C 0.05405 0.59599 0.96816 0.0
C380 C 0.06949 0.61331 0.96145 0.0
C381 C 0.05662 0.55749 0.97402 0.0
H382 H 0.10394 0.54037 0.96526 0.0
H383 H 0.06724 0.64223 0.95668 0.0
C384 C 0.16345 0.65909 0.93191 0.0
N385 N 0.20207 0.68541 0.93087 0.0
C386 C 0.16804 0.70086 0.93388 0.0
C387 C 0.17844 0.63074 0.92931 0.0
C388 C 0.18768 0.71353 0.93336 0.0
C389 C 0.19789 0.64467 0.92883 0.0
C390 C 0.08538 0.59506 0.93229 0.0
C391 C 0.08305 0.55213 0.93348 0.0
C392 C 0.06887 0.62042 0.93083 0.0
C393 C 0.06412 0.53526 0.93332 0.0
C394 C 0.05019 0.60234 0.9307 0.0
N395 N 0.04822 0.5605 0.93195 0.0
C396 C 0.13784 0.50851 0.92733 0.0
C397 C 0.14216 0.55998 0.91203 0.0
C398 C 0.14133 0.47705 0.91879 0.0
N399 N 0.13824 0.54894 0.92379 0.0
C400 C 0.14563 0.52957 0.90319 0.0
C401 C 0.14502 0.48737 0.90648 0.0
H402 H 0.13441 0.50071 0.93672 0.0
H403 H 0.1421 0.59246 0.90949 0.0
C404 C 0.11521 0.75 0.92852 0.0
N405 N 0.10969 0.71092 0.92534 0.0
C406 C 0.11216 0.78298 0.92045 0.0
C407 C 0.09721 0.73499 0.90617 0.0
C408 C 0.10066 0.70289 0.9145 0.0
C409 C 0.10335 0.77553 0.90901 0.0
H410 H 0.12244 0.75532 0.93721 0.0
H411 H 0.09671 0.67132 0.91216 0.0
O412 O 0.13237 0.58057 0.95251 0.0
O413 O 0.11663 0.67396 0.95338 0.0
O414 O 0.14438 0.64588 0.93264 0.0
O415 O 0.10374 0.61224 0.93274 0.0
H416 H 0.13046 0.59542 0.9763 0.0
H417 H 0.16335 0.53304 0.94809 0.0
H418 H 0.15431 0.56912 0.99167 0.0
H419 H 0.18647 0.50732 0.96396 0.0
H420 H 0.06198 0.7507 0.96128 0.0
H421 H 0.11547 0.66255 0.97737 0.0
H422 H 0.08669 0.72179 0.9469 0.0
H423 H 0.09008 0.69201 0.9912 0.0
H424 H 0.20959 0.63988 0.96703 0.0
H425 H 0.17202 0.74043 0.97905 0.0
H426 H 0.07751 0.50743 0.97707 0.0
H427 H 0.04027 0.61274 0.96876 0.0
H428 H 0.1566 0.72311 0.93596 0.0
H429 H 0.17511 0.59826 0.92781 0.0
H430 H 0.19149 0.7457 0.93496 0.0
H431 H 0.20967 0.62306 0.9269 0.0
H432 H 0.09571 0.53216 0.93467 0.0
H433 H 0.07046 0.65375 0.92999 0.0
H434 H 0.06206 0.50212 0.93432 0.0
H435 H 0.03725 0.62158 0.92966 0.0
H436 H 0.14094 0.445 0.92179 0.0
H437 H 0.14806 0.53904 0.8938 0.0
H438 H 0.11692 0.81385 0.92304 0.0
H439 H 0.0906 0.72784 0.89739 0.0
Li440 Li 0.13071 0.65687 0.31515 0.0
Li441 Li 0.11732 0.58479 0.31352 0.0
Li442 Li 0.14071 0.61363 0.29867 0.0
Li443 Li 0.10815 0.63992 0.29835 0.0
C444 C 0.15679 0.60828 0.32595 0.0
N445 N 0.1806 0.62186 0.34605 0.0
C446 C 0.15123 0.59337 0.33746 0.0
C447 C 0.17453 0.62973 0.32463 0.0
C448 C 0.16346 0.60063 0.34752 0.0
C449 C 0.18634 0.63639 0.33491 0.0
C450 C 0.0855 0.65739 0.31732 0.0
C451 C 0.05019 0.65678 0.3152 0.0
N452 N 0.04978 0.69826 0.31755 0.0
C453 C 0.08474 0.69999 0.31973 0.0
C454 C 0.06811 0.63553 0.31506 0.0
C455 C 0.06652 0.72009 0.31981 0.0
C456 C 0.14739 0.73257 0.32395 0.0
N457 N 0.13762 0.69728 0.32706 0.0
C458 C 0.13601 0.71855 0.34798 0.0
C459 C 0.13182 0.68993 0.33876 0.0
C460 C 0.14599 0.75543 0.34507 0.0
C461 C 0.15173 0.7623 0.33287 0.0
H462 H 0.15159 0.73787 0.31454 0.0
H463 H 0.12373 0.66192 0.3409 0.0
C464 C 0.12286 0.50543 0.323 0.0
N465 N 0.11012 0.53792 0.32294 0.0
C466 C 0.11986 0.47203 0.33091 0.0
C467 C 0.09048 0.50584 0.33842 0.0
C468 C 0.09408 0.53869 0.33036 0.0
C469 C 0.10363 0.47216 0.33889 0.0
H470 H 0.13581 0.50634 0.31726 0.0
H471 H 0.08444 0.56539 0.33031 0.0
C472 C 0.14413 0.68984 0.28896 0.0
N473 N 0.16781 0.72378 0.27101 0.0
C474 C 0.13635 0.6989 0.27742 0.0
C475 C 0.1639 0.69835 0.29141 0.0
C476 C 0.14857 0.71602 0.26845 0.0
C477 C 0.17565 0.71538 0.2822 0.0
C478 C 0.12086 0.56046 0.28506 0.0
C479 C 0.11763 0.57778 0.2735 0.0
C480 C 0.1299 0.52163 0.28605 0.0
C481 C 0.12363 0.55597 0.26309 0.0
C482 C 0.13575 0.50088 0.27542 0.0
N483 N 0.13252 0.51833 0.26426 0.0
C484 C 0.17583 0.56999 0.29463 0.0
C485 C 0.16465 0.60503 0.27689 0.0
C486 C 0.19151 0.55281 0.28812 0.0
N487 N 0.16277 0.59558 0.28898 0.0
C488 C 0.18021 0.58886 0.27005 0.0
C489 C 0.19386 0.56204 0.27562 0.0
H490 H 0.17379 0.56201 0.30416 0.0
H491 H 0.15385 0.62435 0.27244 0.0
C492 C 0.08461 0.70308 0.28824 0.0
N493 N 0.08682 0.66121 0.28898 0.0
C494 C 0.06891 0.72007 0.2817 0.0
C495 C 0.05808 0.65049 0.2768 0.0
C496 C 0.07393 0.63484 0.28351 0.0
C497 C 0.05542 0.69366 0.27583 0.0
H498 H 0.09506 0.72326 0.29276 0.0
H499 H 0.07592 0.60164 0.28441 0.0
O500 O 0.14485 0.60227 0.31603 0.0
O501 O 0.10323 0.63744 0.3168 0.0
O502 O 0.13234 0.67345 0.29788 0.0
O503 O 0.11544 0.5817 0.29537 0.0
H504 H 0.13751 0.57686 0.33866 0.0
H505 H 0.17908 0.64123 0.31577 0.0
H506 H 0.15928 0.58953 0.3565 0.0
H507 H 0.20006 0.65314 0.33404 0.0
H508 H 0.03663 0.64033 0.31338 0.0
H509 H 0.09807 0.71746 0.32138 0.0
H510 H 0.06849 0.60266 0.313 0.0
H511 H 0.06571 0.75308 0.32162 0.0
H512 H 0.13101 0.71241 0.35722 0.0
H513 H 0.15949 0.79033 0.33027 0.0
H514 H 0.13062 0.44725 0.33113 0.0
H515 H 0.07773 0.50715 0.34436 0.0
H516 H 0.1211 0.69241 0.27534 0.0
H517 H 0.17013 0.69162 0.3003 0.0
H518 H 0.14279 0.723 0.25946 0.0
H519 H 0.19101 0.72191 0.28394 0.0
H520 H 0.11087 0.60803 0.27257 0.0
H521 H 0.13256 0.50787 0.29493 0.0
H522 H 0.12134 0.56911 0.25408 0.0
H523 H 0.14289 0.47093 0.27605 0.0
H524 H 0.20137 0.53163 0.29277 0.0
H525 H 0.18146 0.59723 0.26048 0.0
H526 H 0.06752 0.75352 0.28109 0.0
H527 H 0.04787 0.62905 0.27256 0.0
Li528 Li 0.89171 0.38798 0.04698 0.0
Li529 Li 0.86902 0.40872 0.06275 0.0
Li530 Li 0.88072 0.33919 0.06307 0.0
Li531 Li 0.85615 0.36282 0.04724 0.0
C532 C 0.916 0.38354 0.0669 0.0
N533 N 0.95559 0.36974 0.0709 0.0
C534 C 0.92708 0.41212 0.07362 0.0
C535 C 0.92505 0.348 0.0622 0.0
C536 C 0.94708 0.40457 0.07555 0.0
C537 C 0.94507 0.34154 0.06432 0.0
C538 C 0.85871 0.45768 0.04304 0.0
C539 C 0.83085 0.50104 0.03822 0.0
N540 N 0.84249 0.53525 0.03924 0.0
C541 C 0.87044 0.4932 0.04395 0.0
C542 C 0.83879 0.46151 0.04009 0.0
C543 C 0.86193 0.53217 0.04204 0.0
C544 C 0.91813 0.38485 0.02666 0.0
N545 N 0.91294 0.40561 0.037 0.0
C546 C 0.93857 0.45521 0.03388 0.0
C547 C 0.92275 0.44016 0.04068 0.0
C548 C 0.94448 0.43436 0.02318 0.0
C549 C 0.934 0.39868 0.01959 0.0
H550 H 0.90997 0.35757 0.0239 0.0
H551 H 0.91823 0.45611 0.04893 0.0
C552 C 0.87381 0.44795 0.08486 0.0
N553 N 0.86352 0.45236 0.07427 0.0
C554 C 0.87157 0.47638 0.09436 0.0
C555 C 0.84804 0.51376 0.082 0.0
C556 C 0.85053 0.4841 0.07277 0.0
C557 C 0.85876 0.51029 0.09298 0.0
H558 H 0.88363 0.42181 0.08599 0.0
H559 H 0.84192 0.48639 0.06451 0.0
C560 C 0.883 0.29029 0.04099 0.0
N561 N 0.88609 0.20929 0.03282 0.0
C562 C 0.8664 0.26467 0.04066 0.0
C563 C 0.90114 0.27478 0.03706 0.0
C564 C 0.86828 0.22379 0.03653 0.0
C565 C 0.90241 0.23372 0.033 0.0
C566 C 0.84121 0.37065 0.07436 0.0
C567 C 0.84545 0.36028 0.0865 0.0
C568 C 0.82507 0.39606 0.07174 0.0
C569 C 0.83351 0.37579 0.09586 0.0
C570 C 0.81349 0.41092 0.08136 0.0
N571 N 0.81792 0.4006 0.09312 0.0
C572 C 0.89716 0.30618 0.08459 0.0
C573 C 0.88164 0.2556 0.07217 0.0
C574 C 0.90084 0.27668 0.09366 0.0
N575 N 0.88773 0.29529 0.07408 0.0
C576 C 0.88497 0.22506 0.08102 0.0
C577 C 0.89446 0.23556 0.09203 0.0
H578 H 0.90124 0.33818 0.08615 0.0
H579 H 0.87347 0.24783 0.06404 0.0
C580 C 0.83725 0.34252 0.02499 0.0
N581 N 0.8347 0.34584 0.03729 0.0
C582 C 0.82215 0.32684 0.01762 0.0
C583 C 0.802 0.31927 0.03573 0.0
C584 C 0.81753 0.3347 0.04273 0.0
C585 C 0.80425 0.3146 0.023 0.0
H586 H 0.8512 0.35109 0.02095 0.0
H587 H 0.81601 0.33696 0.05255 0.0
O588 O 0.89648 0.39096 0.06478 0.0
O589 O 0.86678 0.41925 0.0447 0.0
O590 O 0.88138 0.33075 0.04473 0.0
O591 O 0.85305 0.35673 0.06511 0.0
H592 H 0.9203 0.43992 0.07726 0.0
H593 H 0.91668 0.32557 0.05702 0.0
H594 H 0.95585 0.42644 0.08072 0.0
H595 H 0.95225 0.31412 0.06075 0.0
H596 H 0.81545 0.50452 0.03597 0.0
H597 H 0.88589 0.49071 0.04619 0.0
H598 H 0.82955 0.43427 0.03928 0.0
H599 H 0.87079 0.55997 0.04278 0.0
H600 H 0.94591 0.48324 0.0369 0.0
H601 H 0.93811 0.38135 0.01149 0.0
H602 H 0.87971 0.47147 0.10276 0.0
H603 H 0.838 0.53933 0.08047 0.0
H604 H 0.85228 0.27587 0.04377 0.0
H605 H 0.91411 0.29423 0.0371 0.0
H606 H 0.85557 0.20357 0.0363 0.0
H607 H 0.91637 0.2213 0.02996 0.0
H608 H 0.8579 0.34075 0.08869 0.0
H609 H 0.82176 0.40488 0.0624 0.0
H610 H 0.83667 0.36819 0.10531 0.0
H611 H 0.80105 0.43088 0.07948 0.0
H612 H 0.90827 0.28619 0.10197 0.0
H613 H 0.87938 0.194 0.07947 0.0
H614 H 0.82471 0.32326 0.0079 0.0
H615 H 0.78841 0.3109 0.04027 0.0
Li616 Li 0.86998 0.33873 0.68472 0.0
Li617 Li 0.89283 0.36327 0.70058 0.0
Li618 Li 0.85896 0.38756 0.70013 0.0
Li619 Li 0.88155 0.40922 0.68471 0.0
C620 C 0.87311 0.29017 0.70616 0.0
N621 N 0.8834 0.21053 0.71308 0.0
C622 C 0.88707 0.26794 0.69942 0.0
C623 C 0.8644 0.27191 0.71642 0.0
C624 C 0.89207 0.22772 0.70306 0.0
C625 C 0.86979 0.2316 0.71977 0.0
C626 C 0.91416 0.37171 0.67732 0.0
C627 C 0.94347 0.41392 0.67763 0.0
N628 N 0.94749 0.40206 0.66594 0.0
C629 C 0.9186 0.35988 0.66532 0.0
C630 C 0.92669 0.39891 0.68355 0.0
C631 C 0.93552 0.37558 0.65973 0.0
C632 C 0.86719 0.30284 0.66192 0.0
N633 N 0.86284 0.29518 0.67384 0.0
C634 C 0.84977 0.22853 0.66868 0.0
C635 C 0.8539 0.2593 0.67735 0.0
C636 C 0.85462 0.23518 0.65632 0.0
C637 C 0.86325 0.27315 0.65297 0.0
H638 H 0.87385 0.33209 0.65939 0.0
H639 H 0.85005 0.25444 0.68684 0.0
C640 C 0.91469 0.35681 0.72269 0.0
N641 N 0.91415 0.34611 0.71065 0.0
C642 C 0.92975 0.3419 0.73024 0.0
C643 C 0.94339 0.30564 0.71281 0.0
C644 C 0.92816 0.32131 0.70562 0.0
C645 C 0.94424 0.31555 0.72532 0.0
H646 H 0.90324 0.37634 0.72645 0.0
H647 H 0.92734 0.3131 0.69603 0.0
C648 C 0.83548 0.37868 0.6794 0.0
N649 N 0.79733 0.35644 0.67366 0.0
C650 C 0.82563 0.39842 0.6698 0.0
C651 C 0.82595 0.34753 0.68607 0.0
C652 C 0.80633 0.38677 0.66704 0.0
C653 C 0.80665 0.33676 0.68303 0.0
C654 C 0.87827 0.46131 0.70519 0.0
C655 C 0.86451 0.48216 0.69793 0.0
C656 C 0.8866 0.48148 0.71526 0.0
C657 C 0.85933 0.52293 0.70087 0.0
C658 C 0.88103 0.52228 0.7179 0.0
N659 N 0.86762 0.54198 0.71071 0.0
C660 C 0.83648 0.39171 0.7219 0.0
C661 C 0.82358 0.43084 0.70536 0.0
C662 C 0.82116 0.40494 0.72951 0.0
N663 N 0.83739 0.40482 0.71008 0.0
C664 C 0.80802 0.4447 0.71262 0.0
C665 C 0.80667 0.43184 0.72488 0.0
H666 H 0.84773 0.37118 0.72542 0.0
H667 H 0.82472 0.4413 0.69599 0.0
C668 C 0.8833 0.4427 0.66161 0.0
N669 N 0.88869 0.45124 0.67331 0.0
C670 C 0.88707 0.47111 0.65228 0.0
C671 C 0.90204 0.5167 0.6672 0.0
C672 C 0.89828 0.48694 0.67623 0.0
C673 C 0.89618 0.50919 0.65503 0.0
H674 H 0.87598 0.4137 0.65955 0.0
H675 H 0.90274 0.49265 0.68559 0.0
O676 O 0.86815 0.32987 0.70292 0.0
O677 O 0.89736 0.35774 0.68285 0.0
O678 O 0.85442 0.38977 0.68211 0.0
O679 O 0.88348 0.42119 0.70262 0.0
H680 H 0.89394 0.28145 0.69143 0.0
H681 H 0.85361 0.28877 0.72175 0.0
H682 H 0.90284 0.21017 0.69793 0.0
H683 H 0.86316 0.21708 0.72769 0.0
H684 H 0.95324 0.43513 0.68232 0.0
H685 H 0.90909 0.33884 0.66037 0.0
H686 H 0.92335 0.40877 0.69279 0.0
H687 H 0.93912 0.36674 0.65044 0.0
H688 H 0.84281 0.19995 0.67161 0.0
H689 H 0.86735 0.2795 0.64357 0.0
H690 H 0.92977 0.35002 0.73986 0.0
H691 H 0.95439 0.28594 0.7086 0.0
H692 H 0.83284 0.42252 0.66454 0.0
H693 H 0.8333 0.33181 0.69352 0.0
H694 H 0.79852 0.40183 0.65964 0.0
H695 H 0.7991 0.31274 0.68811 0.0
H696 H 0.85794 0.46715 0.69008 0.0
H697 H 0.89724 0.46569 0.72099 0.0
H698 H 0.8487 0.53942 0.69532 0.0
H699 H 0.88736 0.53827 0.72568 0.0
H700 H 0.8206 0.39401 0.73889 0.0
H701 H 0.79739 0.46598 0.70872 0.0
H702 H 0.88278 0.46324 0.64302 0.0
H703 H 0.90899 0.54562 0.66981 0.0
Li704 Li 0.60776 0.11287 0.95061 0.0
Li705 Li 0.64026 0.13938 0.95003 0.0
Li706 Li 0.61628 0.16948 0.93575 0.0
Li707 Li 0.62978 0.0977 0.93334 0.0
C708 C 0.62071 0.19022 0.96457 0.0
N709 N 0.63276 0.22843 0.98595 0.0
C710 C 0.61761 0.17087 0.97587 0.0
C711 C 0.62985 0.22908 0.96415 0.0
C712 C 0.6238 0.19072 0.98657 0.0
C713 C 0.63589 0.24783 0.97506 0.0
C714 C 0.64418 0.06192 0.95893 0.0
C715 C 0.67596 0.03527 0.9648 0.0
N716 N 0.66869 0.02574 0.97606 0.0
C717 C 0.63698 0.05164 0.97054 0.0
C718 C 0.66378 0.05343 0.956 0.0
C719 C 0.64962 0.03342 0.97907 0.0
C720 C 0.58472 0.04863 0.96062 0.0
N721 N 0.5867 0.09057 0.96001 0.0
C722 C 0.55799 0.10011 0.9723 0.0
C723 C 0.5737 0.1164 0.96561 0.0
C724 C 0.55556 0.05682 0.97316 0.0
C725 C 0.56918 0.031 0.96716 0.0
H726 H 0.59516 0.0289 0.95593 0.0
H727 H 0.57556 0.14967 0.96486 0.0
C728 C 0.67559 0.18247 0.95404 0.0
N729 N 0.66265 0.15637 0.9596 0.0
C730 C 0.69145 0.19898 0.96056 0.0
C731 C 0.68055 0.16116 0.97841 0.0
C732 C 0.66483 0.14566 0.97157 0.0
C733 C 0.69406 0.18856 0.97295 0.0
H734 H 0.67333 0.19138 0.94461 0.0
H735 H 0.65414 0.12591 0.97595 0.0
C736 C 0.58446 0.09736 0.93175 0.0
N737 N 0.54859 0.0571 0.93147 0.0
C738 C 0.58352 0.05488 0.92919 0.0
C739 C 0.56717 0.11942 0.93413 0.0
C740 C 0.56523 0.03509 0.92909 0.0
C741 C 0.54917 0.09847 0.93397 0.0
C742 C 0.6554 0.14787 0.92259 0.0
C743 C 0.64961 0.16476 0.91136 0.0
C744 C 0.67307 0.12592 0.92342 0.0
C745 C 0.66153 0.15889 0.90109 0.0
C746 C 0.68458 0.1207 0.91293 0.0
N747 N 0.67861 0.13712 0.90207 0.0
C748 C 0.61935 0.25153 0.92737 0.0
C749 C 0.59337 0.21291 0.91841 0.0
C750 C 0.61571 0.28482 0.9195 0.0
N751 N 0.6083 0.21646 0.92662 0.0
C752 C 0.58925 0.2454 0.91033 0.0
C753 C 0.60071 0.28171 0.91069 0.0
H754 H 0.63155 0.25288 0.9337 0.0
H755 H 0.58515 0.18425 0.91781 0.0
C756 C 0.6454 0.02232 0.92349 0.0
N757 N 0.63605 0.0586 0.92094 0.0
C758 C 0.64891 0.99346 0.91418 0.0
C759 C 0.63333 0.04022 0.89983 0.0
C760 C 0.62997 0.06789 0.90942 0.0
C761 C 0.64272 0.00213 0.90215 0.0
H762 H 0.64976 0.01541 0.93279 0.0
H763 H 0.62231 0.09676 0.90771 0.0
O764 O 0.61509 0.17092 0.95397 0.0
O765 O 0.63198 0.07943 0.95042 0.0
O766 O 0.60226 0.11701 0.93229 0.0
O767 O 0.64377 0.15258 0.93271 0.0
H768 H 0.61081 0.14055 0.97636 0.0
H769 H 0.63245 0.24438 0.95549 0.0
H770 H 0.6216 0.176 0.99537 0.0
H771 H 0.64311 0.27777 0.97486 0.0
H772 H 0.69119 0.02875 0.96268 0.0
H773 H 0.62187 0.05806 0.97298 0.0
H774 H 0.66954 0.06099 0.94704 0.0
H775 H 0.64429 0.02552 0.98811 0.0
H776 H 0.548 0.12123 0.97687 0.0
H777 H 0.56772 0.99752 0.96737 0.0
H778 H 0.70121 0.22059 0.956 0.0
H779 H 0.68201 0.15187 0.98789 0.0
H780 H 0.59679 0.03728 0.92744 0.0
H781 H 0.56769 0.15223 0.93628 0.0
H782 H 0.56428 0.00218 0.92718 0.0
H783 H 0.53568 0.11507 0.93587 0.0
H784 H 0.63596 0.18178 0.91055 0.0
H785 H 0.67782 0.11296 0.93207 0.0
H786 H 0.65718 0.17154 0.89232 0.0
H787 H 0.69825 0.10359 0.91343 0.0
H788 H 0.62516 0.31185 0.91993 0.0
H789 H 0.57752 0.2418 0.90371 0.0
H790 H 0.6559 0.96425 0.91646 0.0
H791 H 0.62853 0.04859 0.8907 0.0
Li792 Li 0.63261 0.1669 0.31288 0.0
Li793 Li 0.61807 0.09343 0.31438 0.0
Li794 Li 0.6404 0.11282 0.29811 0.0
Li795 Li 0.60845 0.14122 0.29805 0.0
C796 C 0.66371 0.09428 0.31648 0.0
N797 N 0.70013 0.05636 0.31629 0.0
C798 C 0.66509 0.05098 0.31633 0.0
C799 C 0.68081 0.11833 0.31666 0.0
C800 C 0.68365 0.03239 0.3162 0.0
C801 C 0.6991 0.09855 0.31654 0.0
C802 C 0.58567 0.15909 0.31665 0.0
C803 C 0.55142 0.13988 0.31756 0.0
N804 N 0.54635 0.18064 0.31667 0.0
C805 C 0.58014 0.2008 0.31581 0.0
C806 C 0.57124 0.12834 0.31757 0.0
C807 C 0.56017 0.21105 0.31581 0.0
C808 C 0.63365 0.25117 0.31934 0.0
N809 N 0.64006 0.21277 0.32259 0.0
C810 C 0.65366 0.23916 0.34118 0.0
C811 C 0.65013 0.20622 0.33316 0.0
C812 C 0.64656 0.27897 0.33831 0.0
C813 C 0.63678 0.28494 0.32711 0.0
H814 H 0.62563 0.25526 0.31087 0.0
H815 H 0.65482 0.17515 0.33554 0.0
C816 C 0.60878 0.01224 0.32295 0.0
N817 N 0.61075 0.05295 0.32599 0.0
C818 C 0.60516 0.98266 0.33206 0.0
C819 C 0.60532 0.03778 0.34711 0.0
C820 C 0.60889 0.0662 0.33774 0.0
C821 C 0.60371 0.99529 0.34436 0.0
H822 H 0.61058 0.00266 0.31352 0.0
H823 H 0.61062 0.09883 0.33984 0.0
C824 C 0.64625 0.19458 0.28843 0.0
N825 N 0.6726 0.24235 0.27525 0.0
C826 C 0.64338 0.2012 0.2759 0.0
C827 C 0.66235 0.21291 0.29429 0.0
C828 C 0.65692 0.22524 0.26939 0.0
C829 C 0.67555 0.23677 0.28746 0.0
C830 C 0.61059 0.06763 0.28528 0.0
C831 C 0.61729 0.08931 0.27502 0.0
C832 C 0.59903 0.03213 0.28374 0.0
C833 C 0.61235 0.07504 0.26334 0.0
C834 C 0.5944 0.01883 0.2719 0.0
N835 N 0.6011 0.04038 0.26203 0.0
C836 C 0.65964 0.04824 0.28517 0.0
C837 C 0.67802 0.11064 0.28582 0.0
C838 C 0.67454 0.02858 0.27855 0.0
N839 N 0.66144 0.0888 0.28851 0.0
C840 C 0.69335 0.09213 0.2793 0.0
C841 C 0.69167 0.05062 0.27552 0.0
H842 H 0.64677 0.03078 0.28784 0.0
H843 H 0.67965 0.1421 0.28895 0.0
C844 C 0.58784 0.20002 0.28424 0.0
N845 N 0.58693 0.16033 0.28842 0.0
C846 C 0.57228 0.2167 0.27751 0.0
C847 C 0.5551 0.15131 0.27954 0.0
C848 C 0.57104 0.13585 0.28621 0.0
C849 C 0.55559 0.19231 0.2751 0.0
H850 H 0.60056 0.21894 0.2863 0.0
H851 H 0.57065 0.10448 0.28975 0.0
O852 O 0.64568 0.11301 0.31621 0.0
O853 O 0.60509 0.14827 0.31623 0.0
O854 O 0.63283 0.17203 0.29499 0.0
O855 O 0.61503 0.08128 0.29682 0.0
H856 H 0.65195 0.03198 0.31614 0.0
H857 H 0.67997 0.15189 0.31677 0.0
H858 H 0.68496 0.99892 0.31598 0.0
H859 H 0.71248 0.11675 0.31659 0.0
H860 H 0.54008 0.11642 0.3182 0.0
H861 H 0.59115 0.22491 0.31502 0.0
H862 H 0.57529 0.09589 0.31813 0.0
H863 H 0.55567 0.24318 0.31508 0.0
H864 H 0.66106 0.23314 0.34979 0.0
H865 H 0.63126 0.31522 0.32449 0.0
H866 H 0.60424 0.95017 0.32956 0.0
H867 H 0.60406 0.04889 0.35644 0.0
H868 H 0.63074 0.18819 0.27125 0.0
H869 H 0.66485 0.20823 0.30396 0.0
H870 H 0.6549 0.23046 0.25968 0.0
H871 H 0.68816 0.25079 0.29186 0.0
H872 H 0.62626 0.11672 0.27607 0.0
H873 H 0.59366 0.01512 0.29161 0.0
H874 H 0.61747 0.09151 0.25531 0.0
H875 H 0.58546 0.99141 0.27057 0.0
H876 H 0.67284 0.99623 0.27604 0.0
H877 H 0.70633 0.11025 0.27718 0.0
H878 H 0.57317 0.24864 0.27445 0.0
H879 H 0.5426 0.13131 0.2778 0.0
Li880 Li 0.35812 0.85875 0.04762 0.0
Li881 Li 0.3815 0.83478 0.06315 0.0
Li882 Li 0.36862 0.90747 0.06296 0.0
Li883 Li 0.39288 0.88629 0.04782 0.0
C884 C 0.33621 0.83653 0.06685 0.0
N885 N 0.29989 0.7985 0.06877 0.0
C886 C 0.33488 0.795 0.07049 0.0
C887 C 0.31905 0.85884 0.06433 0.0
C888 C 0.31639 0.77631 0.07138 0.0
C889 C 0.30083 0.83902 0.0653 0.0
C890 C 0.39389 0.79518 0.04064 0.0
C891 C 0.42488 0.76241 0.03583 0.0
N892 N 0.41507 0.7287 0.03147 0.0
C893 C 0.38413 0.76044 0.03592 0.0
C894 C 0.41445 0.79636 0.04042 0.0
C895 C 0.39509 0.72706 0.03141 0.0
C896 C 0.32761 0.86648 0.02978 0.0
N897 N 0.33688 0.84007 0.0376 0.0
C898 C 0.31587 0.78424 0.03152 0.0
C899 C 0.3313 0.79968 0.03859 0.0
C900 C 0.30599 0.81069 0.02336 0.0
C901 C 0.31195 0.8524 0.02257 0.0
H902 H 0.33241 0.8984 0.0291 0.0
H903 H 0.33878 0.77943 0.04496 0.0
C904 C 0.39075 0.80078 0.0858 0.0
N905 N 0.38811 0.79023 0.07387 0.0
C906 C 0.39369 0.77013 0.09465 0.0
C907 C 0.3915 0.71821 0.07872 0.0
C908 C 0.3886 0.74992 0.07017 0.0
C909 C 0.39379 0.7281 0.09118 0.0
H910 H 0.38999 0.83308 0.08849 0.0
H911 H 0.3861 0.74218 0.0607 0.0
C912 C 0.36169 0.95704 0.04466 0.0
N913 N 0.3499 0.03918 0.04493 0.0
C914 C 0.37536 0.98868 0.04258 0.0
C915 C 0.34197 0.96716 0.04673 0.0
C916 C 0.36912 0.03002 0.04279 0.0
C917 C 0.33632 0.00887 0.04687 0.0
C918 C 0.415 0.88694 0.07006 0.0
C919 C 0.423 0.92138 0.07608 0.0
C920 C 0.4264 0.85114 0.06866 0.0
C921 C 0.44241 0.91981 0.08025 0.0
C922 C 0.44573 0.85073 0.07297 0.0
N923 N 0.4533 0.88483 0.07861 0.0
C924 C 0.34517 0.9521 0.08028 0.0
C925 C 0.37496 0.98423 0.07414 0.0
C926 C 0.34165 0.98377 0.08877 0.0
N927 N 0.36175 0.9527 0.07331 0.0
C928 C 0.37222 0.01603 0.08263 0.0
C929 C 0.35556 0.01561 0.09019 0.0
H930 H 0.335 0.92644 0.07953 0.0
H931 H 0.3879 0.98407 0.06838 0.0
C932 C 0.41688 0.89056 0.02659 0.0
N933 N 0.41427 0.90572 0.03809 0.0
C934 C 0.43213 0.90555 0.01923 0.0
C935 C 0.4414 0.95217 0.03559 0.0
C936 C 0.42609 0.93608 0.04265 0.0
C937 C 0.44458 0.93693 0.0237 0.0
H938 H 0.40701 0.86703 0.02309 0.0
H939 H 0.42336 0.9485 0.05167 0.0
O940 O 0.35422 0.85521 0.06577 0.0
O941 O 0.38332 0.82833 0.04499 0.0
O942 O 0.3676 0.91641 0.04477 0.0
O943 O 0.39594 0.88797 0.06596 0.0
H944 H 0.34797 0.77725 0.07253 0.0
H945 H 0.31977 0.891 0.06154 0.0
H946 H 0.31516 0.74413 0.07413 0.0
H947 H 0.28745 0.85585 0.06328 0.0
H948 H 0.44079 0.76295 0.03566 0.0
H949 H 0.36828 0.75905 0.03578 0.0
H950 H 0.42234 0.82338 0.04361 0.0
H951 H 0.38769 0.69989 0.02784 0.0
H952 H 0.31156 0.75204 0.03254 0.0
H953 H 0.30481 0.87371 0.01632 0.0
H954 H 0.39506 0.77921 0.10416 0.0
H955 H 0.39162 0.68626 0.07562 0.0
H956 H 0.39065 0.98145 0.04092 0.0
H957 H 0.33118 0.9431 0.04828 0.0
H958 H 0.37958 0.05482 0.04127 0.0
H959 H 0.32113 0.01714 0.04854 0.0
H960 H 0.41438 0.94915 0.07749 0.0
H961 H 0.42033 0.82367 0.06447 0.0
H962 H 0.4488 0.94639 0.08483 0.0
H963 H 0.45469 0.8232 0.0719 0.0
H964 H 0.32869 0.98243 0.09453 0.0
H965 H 0.38317 0.04034 0.08343 0.0
H966 H 0.43389 0.89338 0.01004 0.0
H967 H 0.45069 0.97623 0.03941 0.0
Li968 Li 0.3819 0.90818 0.68585 0.0
Li969 Li 0.359 0.88672 0.70141 0.0
Li970 Li 0.39416 0.8616 0.70194 0.0
Li971 Li 0.36992 0.83694 0.68651 0.0
C972 C 0.39474 0.95341 0.70648 0.0
N973 N 0.41698 0.0226 0.71224 0.0
C974 C 0.38555 0.99135 0.70893 0.0
C975 C 0.41525 0.95061 0.70706 0.0
C976 C 0.39705 0.02599 0.71179 0.0
C977 C 0.42622 0.98595 0.70996 0.0
C978 C 0.33644 0.90424 0.68243 0.0
C979 C 0.30126 0.89819 0.68468 0.0
N980 N 0.2992 0.93831 0.68099 0.0
C981 C 0.33397 0.9454 0.67864 0.0
C982 C 0.31996 0.88038 0.68543 0.0
C983 C 0.31502 0.96204 0.67797 0.0
C984 C 0.38079 0.94296 0.66282 0.0
N985 N 0.3884 0.95046 0.67412 0.0
C986 C 0.40251 0.0142 0.66706 0.0
C987 C 0.39935 0.98501 0.67634 0.0
C988 C 0.39454 0.00752 0.65533 0.0
C989 C 0.38382 0.97089 0.65326 0.0
H990 H 0.37225 0.91513 0.66126 0.0
H991 H 0.40554 0.99042 0.68526 0.0
C992 C 0.32935 0.87973 0.71981 0.0
N993 N 0.33783 0.90544 0.71146 0.0
C994 C 0.31399 0.89403 0.72721 0.0
C995 C 0.31633 0.96081 0.71722 0.0
C996 C 0.33173 0.94536 0.71012 0.0
C997 C 0.30728 0.93518 0.72598 0.0
H998 H 0.33464 0.84823 0.72079 0.0
H999 H 0.33875 0.96521 0.70346 0.0
C1000 C 0.40927 0.86435 0.67444 0.0
N1001 N 0.43259 0.88454 0.65459 0.0
C1002 C 0.40373 0.8522 0.66265 0.0
C1003 C 0.42673 0.88652 0.67615 0.0
C1004 C 0.41571 0.86275 0.65273 0.0
C1005 C 0.43829 0.89651 0.666 0.0
C1006 C 0.36491 0.78848 0.70524 0.0
C1007 C 0.38006 0.7596 0.70679 0.0
C1008 C 0.34556 0.77467 0.70381 0.0
C1009 C 0.37559 0.71725 0.70679 0.0
C1010 C 0.34169 0.73206 0.70384 0.0
N1011 N 0.35666 0.70447 0.70531 0.0
C1012 C 0.4146 0.8492 0.72422 0.0
C1013 C 0.43123 0.82609 0.70639 0.0
C1014 C 0.42991 0.83479 0.73163 0.0
N1015 N 0.41555 0.84449 0.71187 0.0
C1016 C 0.44688 0.8114 0.71343 0.0
C1017 C 0.44631 0.81546 0.72624 0.0
H1018 H 0.40186 0.86383 0.7283 0.0
H1019 H 0.43142 0.82222 0.69656 0.0
C1020 C 0.34688 0.78773 0.67012 0.0
N1021 N 0.36399 0.79028 0.67652 0.0
C1022 C 0.34403 0.75567 0.66167 0.0
C1023 C 0.37634 0.72933 0.66672 0.0
C1024 C 0.3785 0.76164 0.67511 0.0
C1025 C 0.35907 0.72651 0.65971 0.0
H1026 H 0.33576 0.81136 0.67123 0.0
H1027 H 0.39205 0.76482 0.68022 0.0
O1028 O 0.38368 0.91907 0.70382 0.0
O1029 O 0.3549 0.88749 0.68326 0.0
O1030 O 0.3975 0.8552 0.68424 0.0
O1031 O 0.36906 0.83001 0.70489 0.0
H1032 H 0.36972 0.99412 0.70861 0.0
H1033 H 0.42265 0.92164 0.70521 0.0
H1034 H 0.39013 0.05557 0.71366 0.0
H1035 H 0.4421 0.98423 0.71039 0.0
H1036 H 0.28839 0.88015 0.68705 0.0
H1037 H 0.34654 0.96451 0.67639 0.0
H1038 H 0.32159 0.84862 0.68847 0.0
H1039 H 0.31291 0.9939 0.67511 0.0
H1040 H 0.41073 0.0421 0.66917 0.0
H1041 H 0.37776 0.96374 0.64434 0.0
H1042 H 0.30768 0.87328 0.73395 0.0
H1043 H 0.31149 0.99245 0.71575 0.0
H1044 H 0.39018 0.83537 0.66113 0.0
H1045 H 0.43124 0.89618 0.68521 0.0
H1046 H 0.41154 0.85378 0.64354 0.0
H1047 H 0.45179 0.91385 0.66718 0.0
H1048 H 0.39513 0.76974 0.70787 0.0
H1049 H 0.33368 0.79662 0.7026 0.0
H1050 H 0.38717 0.69454 0.70791 0.0
H1051 H 0.3268 0.72092 0.70268 0.0
H1052 H 0.42896 0.83888 0.74146 0.0
H1053 H 0.45908 0.79614 0.70891 0.0
H1054 H 0.3306 0.75482 0.65634 0.0
H1055 H 0.38821 0.70725 0.66555 0.0
Li1056 Li 0.60694 0.61257 0.45025 0.0
Li1057 Li 0.64029 0.64105 0.45106 0.0
Li1058 Li 0.61617 0.66532 0.43634 0.0
Li1059 Li 0.63024 0.59518 0.43432 0.0
C1060 C 0.60718 0.70865 0.45602 0.0
N1061 N 0.59147 0.78739 0.45854 0.0
C1062 C 0.61791 0.73987 0.4619 0.0
C1063 C 0.58829 0.71729 0.45168 0.0
C1064 C 0.60976 0.77952 0.46302 0.0
C1065 C 0.58065 0.75733 0.45295 0.0
C1066 C 0.63418 0.56528 0.46343 0.0
C1067 C 0.64339 0.5098 0.47712 0.0
N1068 N 0.63783 0.5335 0.48683 0.0
C1069 C 0.62851 0.58908 0.47355 0.0
C1070 C 0.64163 0.52529 0.46522 0.0
C1071 C 0.63049 0.57246 0.4853 0.0
C1072 C 0.58365 0.54762 0.45972 0.0
N1073 N 0.58599 0.58955 0.45972 0.0
C1074 C 0.55817 0.59775 0.47287 0.0
C1075 C 0.57376 0.61467 0.4662 0.0
C1076 C 0.55511 0.55453 0.47286 0.0
C1077 C 0.56818 0.52939 0.46618 0.0
H1078 H 0.59373 0.52835 0.45457 0.0
H1079 H 0.57612 0.64783 0.46621 0.0
C1080 C 0.66809 0.6992 0.45847 0.0
N1081 N 0.66274 0.65896 0.46021 0.0
C1082 C 0.68444 0.71558 0.4645 0.0
C1083 C 0.69013 0.64823 0.47359 0.0
C1084 C 0.67358 0.63321 0.46742 0.0
C1085 C 0.69565 0.69004 0.47224 0.0
H1086 H 0.65969 0.71854 0.45228 0.0
H1087 H 0.66961 0.60092 0.46833 0.0
C1088 C 0.58543 0.59132 0.43124 0.0
N1089 N 0.5508 0.54649 0.42995 0.0
C1090 C 0.58589 0.5486 0.42897 0.0
C1091 C 0.56732 0.6113 0.43269 0.0
C1092 C 0.56824 0.52647 0.42838 0.0
C1093 C 0.54999 0.58808 0.43206 0.0
C1094 C 0.6633 0.6449 0.43039 0.0
C1095 C 0.67271 0.67448 0.42309 0.0
C1096 C 0.67388 0.61073 0.43476 0.0
C1097 C 0.6926 0.66933 0.42025 0.0
C1098 C 0.69374 0.60671 0.43172 0.0
N1099 N 0.70261 0.63583 0.42458 0.0
C1100 C 0.61957 0.74739 0.42766 0.0
C1101 C 0.59461 0.70749 0.41808 0.0
C1102 C 0.61615 0.7804 0.41965 0.0
N1103 N 0.60894 0.71182 0.42667 0.0
C1104 C 0.59076 0.73962 0.40984 0.0
C1105 C 0.60183 0.77642 0.41043 0.0
H1106 H 0.63114 0.74956 0.43444 0.0
H1107 H 0.58662 0.67857 0.41737 0.0
C1108 C 0.63958 0.5145 0.42539 0.0
N1109 N 0.63864 0.55559 0.42263 0.0
C1110 C 0.64361 0.48548 0.41621 0.0
C1111 C 0.64666 0.54198 0.40174 0.0
C1112 C 0.64235 0.56978 0.41115 0.0
C1113 C 0.64683 0.49906 0.40412 0.0
H1114 H 0.63638 0.50418 0.4346 0.0
H1115 H 0.64148 0.60271 0.40926 0.0
O1116 O 0.61501 0.66969 0.45472 0.0
O1117 O 0.63217 0.5805 0.4518 0.0
O1118 O 0.60261 0.61335 0.43211 0.0
O1119 O 0.6439 0.64989 0.43336 0.0
H1120 H 0.63228 0.73353 0.46567 0.0
H1121 H 0.5797 0.69345 0.44724 0.0
H1122 H 0.61794 0.804 0.4675 0.0
H1123 H 0.56612 0.7645 0.44951 0.0
H1124 H 0.64916 0.47891 0.47863 0.0
H1125 H 0.62268 0.62004 0.47239 0.0
H1126 H 0.64602 0.50644 0.45748 0.0
H1127 H 0.62619 0.59053 0.49321 0.0
H1128 H 0.54875 0.61832 0.47807 0.0
H1129 H 0.56634 0.49602 0.46578 0.0
H1130 H 0.68844 0.74773 0.46297 0.0
H1131 H 0.69838 0.62744 0.47945 0.0
H1132 H 0.5997 0.53256 0.42783 0.0
H1133 H 0.56661 0.64435 0.43431 0.0
H1134 H 0.5684 0.49335 0.42672 0.0
H1135 H 0.5359 0.60313 0.43325 0.0
H1136 H 0.66472 0.70119 0.41969 0.0
H1137 H 0.66687 0.58764 0.44049 0.0
H1138 H 0.70008 0.69198 0.41461 0.0
H1139 H 0.70211 0.58045 0.43505 0.0
H1140 H 0.62522 0.80797 0.42031 0.0
H1141 H 0.5795 0.73541 0.40294 0.0
H1142 H 0.64333 0.45275 0.41847 0.0
H1143 H 0.64944 0.55399 0.39264 0.0
Li1144 Li 0.62206 0.59587 0.81447 0.0
Li1145 Li 0.63587 0.6658 0.81228 0.0
Li1146 Li 0.61187 0.64119 0.79767 0.0
Li1147 Li 0.64526 0.61288 0.79852 0.0
C1148 C 0.5889 0.64419 0.81841 0.0
N1149 N 0.54982 0.63293 0.82449 0.0
C1150 C 0.57949 0.67228 0.8262 0.0
C1151 C 0.57844 0.61038 0.81369 0.0
C1152 C 0.55972 0.66605 0.82917 0.0
C1153 C 0.5587 0.60523 0.81688 0.0
C1154 C 0.66647 0.59094 0.81742 0.0
C1155 C 0.7018 0.58494 0.81632 0.0
N1156 N 0.7003 0.54342 0.81841 0.0
C1157 C 0.66529 0.54824 0.81963 0.0
C1158 C 0.68488 0.60951 0.81583 0.0
C1159 C 0.68256 0.52475 0.82008 0.0
C1160 C 0.6095 0.51676 0.82332 0.0
N1161 N 0.61377 0.55672 0.82631 0.0
C1162 C 0.60904 0.54253 0.84755 0.0
C1163 C 0.61337 0.57013 0.83809 0.0
C1164 C 0.60516 0.50065 0.84485 0.0
C1165 C 0.6051 0.48799 0.83252 0.0
H1166 H 0.61009 0.50699 0.81386 0.0
H1167 H 0.61684 0.60219 0.84014 0.0
C1168 C 0.62969 0.74544 0.82146 0.0
N1169 N 0.64259 0.71326 0.82167 0.0
C1170 C 0.63253 0.77966 0.82909 0.0
C1171 C 0.66218 0.74739 0.83678 0.0
C1172 C 0.65871 0.71366 0.82902 0.0
C1173 C 0.64881 0.78072 0.83703 0.0
H1174 H 0.61686 0.74388 0.81562 0.0
H1175 H 0.6686 0.68738 0.82908 0.0
C1176 C 0.61785 0.56578 0.78533 0.0
N1177 N 0.61383 0.53472 0.76186 0.0
C1178 C 0.6243 0.58901 0.77527 0.0
C1179 C 0.60942 0.52673 0.78344 0.0
C1180 C 0.62213 0.57275 0.76349 0.0
C1181 C 0.60749 0.51159 0.77151 0.0
C1182 C 0.64486 0.70894 0.79287 0.0
C1183 C 0.63391 0.74068 0.78742 0.0
C1184 C 0.66383 0.71733 0.79714 0.0
C1185 C 0.64195 0.78053 0.7866 0.0
C1186 C 0.67134 0.75758 0.79618 0.0
N1187 N 0.66032 0.78811 0.79099 0.0
C1188 C 0.584 0.69935 0.79071 0.0
C1189 C 0.57936 0.63528 0.78044 0.0
C1190 C 0.56812 0.71688 0.78448 0.0
N1191 N 0.58959 0.65958 0.78841 0.0
C1192 C 0.56333 0.65153 0.77402 0.0
C1193 C 0.55766 0.69303 0.7759 0.0
H1194 H 0.59197 0.71753 0.7974 0.0
H1195 H 0.58351 0.60331 0.77904 0.0
C1196 C 0.66771 0.54744 0.78866 0.0
N1197 N 0.66621 0.58953 0.78909 0.0
C1198 C 0.68287 0.52865 0.78207 0.0
C1199 C 0.69458 0.59683 0.77636 0.0
C1200 C 0.67916 0.61431 0.78305 0.0
C1201 C 0.69661 0.55341 0.77582 0.0
H1202 H 0.65714 0.52847 0.79351 0.0
H1203 H 0.67749 0.64763 0.78339 0.0
O1204 O 0.6082 0.65021 0.81535 0.0
O1205 O 0.64968 0.61428 0.81666 0.0
O1206 O 0.62002 0.5806 0.797 0.0
O1207 O 0.63713 0.66981 0.79391 0.0
H1208 H 0.58739 0.69868 0.82989 0.0
H1209 H 0.58544 0.58839 0.80761 0.0
H1210 H 0.55224 0.68755 0.83519 0.0
H1211 H 0.55042 0.57923 0.8133 0.0
H1212 H 0.71613 0.59887 0.81501 0.0
H1213 H 0.65121 0.53323 0.82083 0.0
H1214 H 0.68613 0.64246 0.81415 0.0
H1215 H 0.68184 0.49164 0.8217 0.0
H1216 H 0.60895 0.55377 0.8569 0.0
H1217 H 0.60242 0.45593 0.83003 0.0
H1218 H 0.62164 0.80419 0.8291 0.0
H1219 H 0.67502 0.74706 0.84264 0.0
H1220 H 0.6309 0.61924 0.77649 0.0
H1221 H 0.60439 0.5083 0.79111 0.0
H1222 H 0.62704 0.59039 0.75563 0.0
H1223 H 0.60095 0.48143 0.76992 0.0
H1224 H 0.61945 0.73462 0.78374 0.0
H1225 H 0.67254 0.69315 0.80133 0.0
H1226 H 0.63359 0.80541 0.78244 0.0
H1227 H 0.68591 0.76454 0.79958 0.0
H1228 H 0.56399 0.74868 0.78643 0.0
H1229 H 0.55565 0.632 0.76751 0.0
H1230 H 0.68397 0.49509 0.782 0.0
H1231 H 0.70464 0.61709 0.77151 0.0
Li1232 Li 0.39308 0.38437 0.54788 0.0
Li1233 Li 0.37053 0.40746 0.56421 0.0
Li1234 Li 0.3823 0.33729 0.56355 0.0
Li1235 Li 0.35916 0.35963 0.54858 0.0
C1236 C 0.41469 0.37387 0.57115 0.0
N1237 N 0.44758 0.34134 0.5825 0.0
C1238 C 0.41841 0.38257 0.58347 0.0
C1239 C 0.42772 0.34871 0.56458 0.0
C1240 C 0.43512 0.36581 0.58904 0.0
C1241 C 0.44427 0.33255 0.57049 0.0
C1242 C 0.37294 0.45732 0.54277 0.0
C1243 C 0.36921 0.51575 0.52915 0.0
N1244 N 0.38283 0.53709 0.53576 0.0
C1245 C 0.38692 0.47982 0.54942 0.0
C1246 C 0.36402 0.47537 0.53255 0.0
C1247 C 0.39171 0.5201 0.54573 0.0
C1248 C 0.41503 0.39015 0.52576 0.0
N1249 N 0.41417 0.40213 0.53769 0.0
C1250 C 0.44298 0.44384 0.53532 0.0
C1251 C 0.42784 0.42809 0.54258 0.0
C1252 C 0.44417 0.43249 0.52293 0.0
C1253 C 0.43008 0.40489 0.51818 0.0
H1254 H 0.40389 0.36957 0.52212 0.0
H1255 H 0.42685 0.43699 0.5521 0.0
C1256 C 0.36748 0.44197 0.58729 0.0
N1257 N 0.36347 0.45041 0.57537 0.0
C1258 C 0.3639 0.47165 0.59632 0.0
C1259 C 0.35135 0.51772 0.58068 0.0
C1260 C 0.35502 0.48692 0.57196 0.0
C1261 C 0.35606 0.51041 0.59303 0.0
H1262 H 0.37368 0.4122 0.58976 0.0
H1263 H 0.35129 0.49239 0.56247 0.0
C1264 C 0.37854 0.28675 0.54271 0.0
N1265 N 0.36804 0.20646 0.53661 0.0
C1266 C 0.3652 0.26481 0.55 0.0
C1267 C 0.38653 0.26786 0.53232 0.0
C1268 C 0.36009 0.22425 0.54676 0.0
C1269 C 0.38104 0.22723 0.52939 0.0
C1270 C 0.33629 0.36675 0.56959 0.0
C1271 C 0.32662 0.34599 0.57907 0.0
C1272 C 0.3266 0.39849 0.56325 0.0
C1273 C 0.30736 0.35724 0.58205 0.0
C1274 C 0.30735 0.40882 0.56651 0.0
N1275 N 0.2982 0.38816 0.57576 0.0
C1276 C 0.38367 0.29796 0.58606 0.0
C1277 C 0.40056 0.26013 0.57068 0.0
C1278 C 0.38767 0.26717 0.59468 0.0
N1279 N 0.38991 0.29369 0.57432 0.0
C1280 C 0.40466 0.22821 0.57897 0.0
C1281 C 0.39803 0.23145 0.59112 0.0
H1282 H 0.37533 0.32517 0.58868 0.0
H1283 H 0.40563 0.25785 0.56132 0.0
C1284 C 0.33574 0.35665 0.5271 0.0
N1285 N 0.33728 0.34269 0.53881 0.0
C1286 C 0.32013 0.34361 0.51969 0.0
C1287 C 0.30803 0.30223 0.53655 0.0
C1288 C 0.32384 0.31596 0.5436 0.0
C1289 C 0.30601 0.316 0.52441 0.0
H1290 H 0.34671 0.37772 0.52351 0.0
H1291 H 0.32549 0.3048 0.55287 0.0
O1292 O 0.39812 0.38892 0.56559 0.0
O1293 O 0.36822 0.41753 0.54605 0.0
O1294 O 0.3837 0.32665 0.54558 0.0
O1295 O 0.35519 0.35601 0.56666 0.0
H1296 H 0.40851 0.402 0.58869 0.0
H1297 H 0.42493 0.3412 0.55508 0.0
H1298 H 0.43816 0.37221 0.59858 0.0
H1299 H 0.45441 0.31286 0.56554 0.0
H1300 H 0.36242 0.53011 0.52126 0.0
H1301 H 0.39393 0.46645 0.55739 0.0
H1302 H 0.35322 0.4583 0.52728 0.0
H1303 H 0.40249 0.53786 0.5508 0.0
H1304 H 0.45369 0.46458 0.53939 0.0
H1305 H 0.43043 0.39561 0.50865 0.0
H1306 H 0.36781 0.46477 0.60572 0.0
H1307 H 0.34496 0.54695 0.57781 0.0
H1308 H 0.35889 0.27884 0.55808 0.0
H1309 H 0.39685 0.28447 0.52657 0.0
H1310 H 0.34979 0.20693 0.55233 0.0
H1311 H 0.3871 0.21223 0.52137 0.0
H1312 H 0.33394 0.3214 0.58407 0.0
H1313 H 0.3338 0.41498 0.55589 0.0
H1314 H 0.29969 0.34139 0.58937 0.0
H1315 H 0.29968 0.43329 0.56169 0.0
H1316 H 0.38216 0.27064 0.60393 0.0
H1317 H 0.41283 0.20124 0.57593 0.0
H1318 H 0.31906 0.35523 0.51041 0.0
H1319 H 0.29771 0.28038 0.5405 0.0
Li1320 Li 0.37909 0.40462 0.18608 0.0
Li1321 Li 0.35487 0.38089 0.20184 0.0
Li1322 Li 0.39006 0.35517 0.20121 0.0
Li1323 Li 0.36697 0.33356 0.18597 0.0
C1324 C 0.3842 0.45378 0.20524 0.0
N1325 N 0.39227 0.53776 0.20664 0.0
C1326 C 0.369 0.48221 0.20727 0.0
C1327 C 0.40352 0.46804 0.20401 0.0
C1328 C 0.37338 0.52455 0.20793 0.0
C1329 C 0.40729 0.51062 0.20472 0.0
C1330 C 0.34002 0.37562 0.17427 0.0
C1331 C 0.31199 0.33977 0.16581 0.0
N1332 N 0.31775 0.35124 0.15437 0.0
C1333 C 0.34564 0.38713 0.16244 0.0
C1334 C 0.32305 0.35182 0.176 0.0
C1335 C 0.33418 0.37448 0.15249 0.0
C1336 C 0.40059 0.44927 0.16796 0.0
N1337 N 0.38509 0.4506 0.17581 0.0
C1338 C 0.37425 0.51491 0.16725 0.0
C1339 C 0.37206 0.48259 0.17564 0.0
C1340 C 0.38984 0.51398 0.1588 0.0
C1341 C 0.40332 0.48092 0.15937 0.0
H1342 H 0.41038 0.42286 0.16801 0.0
H1343 H 0.35956 0.48225 0.18177 0.0
C1344 C 0.33628 0.40308 0.22409 0.0
N1345 N 0.3337 0.39925 0.2118 0.0
C1346 C 0.32128 0.4195 0.23138 0.0
C1347 C 0.30117 0.42678 0.21325 0.0
C1348 C 0.31661 0.41066 0.20631 0.0
C1349 C 0.30344 0.43193 0.22597 0.0
H1350 H 0.35017 0.39426 0.22816 0.0
H1351 H 0.31506 0.40787 0.1965 0.0
C1352 C 0.4129 0.33959 0.18228 0.0
N1353 N 0.45118 0.31104 0.18098 0.0
C1354 C 0.4167 0.29844 0.17895 0.0
C1355 C 0.42858 0.36626 0.18488 0.0
C1356 C 0.43616 0.2846 0.17835 0.0
C1357 C 0.44782 0.35122 0.1842 0.0
C1358 C 0.35496 0.28768 0.2061 0.0
C1359 C 0.36456 0.24929 0.20586 0.0
C1360 C 0.33485 0.28929 0.20876 0.0
C1361 C 0.35386 0.21311 0.20821 0.0
C1362 C 0.32467 0.25241 0.21108 0.0
N1363 N 0.3343 0.2154 0.21075 0.0
C1364 C 0.41998 0.36326 0.21946 0.0
C1365 C 0.41765 0.29719 0.21003 0.0
C1366 C 0.43548 0.34943 0.22684 0.0
N1367 N 0.41146 0.3371 0.21124 0.0
C1368 C 0.43308 0.28212 0.21717 0.0
C1369 C 0.44217 0.30825 0.22577 0.0
H1370 H 0.41464 0.39474 0.22035 0.0
H1371 H 0.41071 0.27704 0.20343 0.0
C1372 C 0.36946 0.29381 0.16354 0.0
N1373 N 0.3601 0.29048 0.1745 0.0
C1374 C 0.36607 0.26486 0.15428 0.0
C1375 C 0.34322 0.22954 0.16764 0.0
C1376 C 0.34677 0.2597 0.17657 0.0
C1377 C 0.35303 0.2319 0.15636 0.0
H1378 H 0.37965 0.31906 0.16199 0.0
H1379 H 0.33873 0.2585 0.18505 0.0
O1380 O 0.38017 0.41225 0.20441 0.0
O1381 O 0.35139 0.38658 0.18408 0.0
O1382 O 0.39394 0.35361 0.18307 0.0
O1383 O 0.36524 0.32353 0.20403 0.0
H1384 H 0.35396 0.47181 0.20819 0.0
H1385 H 0.41546 0.44648 0.20252 0.0
H1386 H 0.36175 0.54691 0.20943 0.0
H1387 H 0.42216 0.5221 0.20375 0.0
H1388 H 0.29891 0.32109 0.167 0.0
H1389 H 0.35883 0.40521 0.16092 0.0
H1390 H 0.31867 0.34209 0.18508 0.0
H1391 H 0.3384 0.38299 0.14328 0.0
H1392 H 0.36361 0.53994 0.16723 0.0
H1393 H 0.41533 0.47853 0.1529 0.0
H1394 H 0.32386 0.42343 0.2411 0.0
H1395 H 0.28763 0.43523 0.20867 0.0
H1396 H 0.40476 0.27722 0.17701 0.0
H1397 H 0.42591 0.39815 0.18748 0.0
H1398 H 0.43931 0.25278 0.17584 0.0
H1399 H 0.46008 0.37148 0.18625 0.0
H1400 H 0.38005 0.24732 0.20377 0.0
H1401 H 0.32712 0.31858 0.20898 0.0
H1402 H 0.36109 0.18319 0.20799 0.0
H1403 H 0.3091 0.2532 0.21312 0.0
H1404 H 0.4419 0.37052 0.23345 0.0
H1405 H 0.43794 0.25041 0.21586 0.0
H1406 H 0.37394 0.26763 0.14569 0.0
H1407 H 0.33281 0.20483 0.16948 0.0
H1408 H 0.30691 0.29214 0.50032 0.0
H1409 H 0.26757 0.30552 0.53114 0.0
H1410 H 0.27987 0.2649 0.488 0.0
H1411 H 0.24076 0.27693 0.51898 0.0
H1412 H 0.19266 0.26137 0.49034 0.0
H1413 H 0.21962 0.29314 0.5017 0.0
H1414 H 0.2598 0.20221 0.48686 0.0
H1415 H 0.23299 0.1714 0.47513 0.0
C1416 C 0.29247 0.28953 0.50444 0.0
C1417 C 0.28941 0.30092 0.51673 0.0
C1418 C 0.27703 0.27346 0.49742 0.0
C1419 C 0.25817 0.26856 0.50251 0.0
C1420 C 0.25505 0.28063 0.51473 0.0
C1421 C 0.27048 0.2966 0.52175 0.0
C1422 C 0.20729 0.24844 0.48939 0.0
C1423 C 0.21065 0.2138 0.48183 0.0
C1424 C 0.2227 0.26639 0.49601 0.0
C1425 C 0.24187 0.25018 0.49521 0.0
C1426 C 0.24526 0.21574 0.48758 0.0
C1427 C 0.22984 0.19774 0.48098 0.0
H1428 H 0.96506 0.0097 0.52878 0.0
H1429 H 0.95823 0.91085 0.50234 0.0
H1430 H 0.99221 0.03792 0.5169 0.0
H1431 H 0.98465 0.94048 0.49009 0.0
H1432 H 0.04682 0.97689 0.4785 0.0
H1433 H 0.01951 0.94877 0.49033 0.0
H1434 H 0.9997 0.07345 0.49831 0.0
H1435 H 0.02731 0.10147 0.48666 0.0
C1436 C 0.96933 0.99395 0.52043 0.0
C1437 C 0.95949 0.95779 0.51657 0.0
C1438 C 0.98474 0.01052 0.51351 0.0
C1439 C 0.99067 0.99153 0.50252 0.0
C1440 C 0.98068 0.95564 0.49859 0.0
C1441 C 0.96532 0.93894 0.50554 0.0
C1442 C 0.03654 0.99826 0.48272 0.0
C1443 C 0.0392 0.04139 0.48164 0.0
C1444 C 0.02085 0.98216 0.48948 0.0
C1445 C 0.00733 0.00879 0.49526 0.0
C1446 C 0.00998 0.05199 0.49415 0.0
C1447 C 0.02578 0.06809 0.48745 0.0
H1448 H 0.3037 0.01304 0.73587 0.0
H1449 H 0.27405 0.89449 0.73383 0.0
H1450 H 0.2766 0.041 0.74776 0.0
H1451 H 0.24748 0.92173 0.74644 0.0
H1452 H 0.19314 0.99749 0.75719 0.0
H1453 H 0.22032 0.96799 0.7455 0.0
H1454 H 0.26154 0.03891 0.76724 0.0
H1455 H 0.23425 0.0692 0.77864 0.0
C1456 C 0.29142 0.99285 0.73797 0.0
C1457 C 0.29105 0.95153 0.73378 0.0
C1458 C 0.27597 0.00875 0.74497 0.0
C1459 C 0.2598 0.98368 0.74811 0.0
C1460 C 0.25955 0.94216 0.74408 0.0
C1461 C 0.27495 0.92632 0.73698 0.0
C1462 C 0.20803 0.00655 0.75949 0.0
C1463 C 0.21158 0.03577 0.76878 0.0
C1464 C 0.22364 0.98953 0.75283 0.0
C1465 C 0.24318 0.00104 0.75539 0.0
C1466 C 0.24669 0.02989 0.76483 0.0
C1467 C 0.23107 0.0472 0.7714 0.0
H1468 H 0.04723 0.18314 0.75089 0.0
H1469 H 0.02687 0.24667 0.78334 0.0
H1470 H 0.02005 0.21254 0.73925 0.0
H1471 H 0.99955 0.27602 0.77169 0.0
H1472 H 0.96582 0.35466 0.74313 0.0
H1473 H 0.99255 0.32564 0.75541 0.0
H1474 H 0.98472 0.20703 0.73755 0.0
H1475 H 0.95818 0.23606 0.72527 0.0
C1476 C 0.03683 0.20307 0.75557 0.0
C1477 C 0.03919 0.21245 0.76805 0.0
C1478 C 0.02123 0.21993 0.7489 0.0
C1479 C 0.00756 0.24653 0.75454 0.0
C1480 C 0.00995 0.25607 0.76702 0.0
C1481 C 0.0256 0.23923 0.7737 0.0
C1482 C 0.96972 0.3223 0.74192 0.0
C1483 C 0.96 0.29777 0.73316 0.0
C1484 C 0.98501 0.30565 0.74895 0.0
C1485 C 0.99088 0.26408 0.7474 0.0
C1486 C 0.98087 0.23939 0.7388 0.0
C1487 C 0.96564 0.25603 0.73177 0.0
H1488 H 0.79754 0.72232 0.51917 0.0
H1489 H 0.78593 0.84612 0.50571 0.0
H1490 H 0.77038 0.69565 0.50698 0.0
H1491 H 0.75936 0.81906 0.49302 0.0
H1492 H 0.6986 0.76436 0.48418 0.0
H1493 H 0.7267 0.79175 0.49544 0.0
H1494 H 0.76005 0.68164 0.48642 0.0
H1495 H 0.7318 0.65405 0.4753 0.0
C1496 C 0.78924 0.74386 0.51357 0.0
C1497 C 0.79384 0.78646 0.51351 0.0
C1498 C 0.77381 0.72845 0.50645 0.0
C1499 C 0.76263 0.75519 0.49902 0.0
C1500 C 0.76749 0.79766 0.49875 0.0
C1501 C 0.7829 0.81311 0.50592 0.0
C1502 C 0.712 0.74618 0.48451 0.0
C1503 C 0.71296 0.70699 0.47888 0.0
C1504 C 0.72814 0.76192 0.49094 0.0
C1505 C 0.74567 0.73893 0.49184 0.0
C1506 C 0.74668 0.6999 0.48608 0.0
C1507 C 0.7305 0.68407 0.4797 0.0
H1508 H 0.68842 0.00067 0.25539 0.0
H1509 H 0.73124 0.05487 0.27985 0.0
H1510 H 0.71491 0.96853 0.24361 0.0
H1511 H 0.75774 0.02342 0.26793 0.0
H1512 H 0.79887 0.92729 0.25054 0.0
H1513 H 0.77162 0.95391 0.26287 0.0
H1514 H 0.7417 0.99283 0.22992 0.0
H1515 H 0.76874 0.96558 0.2176 0.0
C1516 C 0.70348 0.00551 0.25828 0.0
C1517 C 0.70775 0.03039 0.26852 0.0
C1518 C 0.71865 0.98741 0.25148 0.0
C1519 C 0.7384 0.99352 0.25483 0.0
C1520 C 0.74266 0.01786 0.26518 0.0
C1521 C 0.7275 0.03622 0.27193 0.0
C1522 C 0.78636 0.94109 0.24594 0.0
C1523 C 0.78596 0.94447 0.23311 0.0
C1524 C 0.77086 0.95666 0.253 0.0
C1525 C 0.75455 0.97556 0.24736 0.0
C1526 C 0.75399 0.97815 0.23452 0.0
C1527 C 0.76954 0.9629 0.22748 0.0
H1528 H 0.98073 0.79049 0.218 0.0
H1529 H 0.94428 0.7976 0.25036 0.0
H1530 H 0.00747 0.76192 0.23023 0.0
H1531 H 0.97118 0.76949 0.26261 0.0
H1532 H 0.03129 0.75842 0.28199 0.0
H1533 H 0.0045 0.78814 0.26992 0.0
H1534 H 0.01497 0.69742 0.24152 0.0
H1535 H 0.04204 0.66838 0.25344 0.0
C1536 C 0.97836 0.78576 0.22771 0.0
C1537 C 0.96029 0.79622 0.23317 0.0
C1538 C 0.99371 0.76941 0.23471 0.0
C1539 C 0.99141 0.76328 0.24738 0.0
C1540 C 0.97347 0.77427 0.25289 0.0
C1541 C 0.95807 0.79048 0.24587 0.0
C1542 C 0.02794 0.74501 0.27313 0.0
C1543 C 0.03881 0.71111 0.26865 0.0
C1544 C 0.01248 0.76178 0.26628 0.0
C1545 C 0.00765 0.74518 0.25476 0.0
C1546 C 0.01848 0.71119 0.2503 0.0
C1547 C 0.03384 0.69427 0.25719 0.0
H1548 H 0.27026 0.84693 0.019 0.0
H1549 H 0.30474 0.73802 0.01051 0.0
H1550 H 0.24302 0.81932 0.00683 0.0
H1551 H 0.27746 0.71018 0.99851 0.0
H1552 H 0.23204 0.69658 0.96754 0.0
H1553 H 0.25932 0.72582 0.97919 0.0
H1554 H 0.21929 0.75989 0.00819 0.0
H1555 H 0.19202 0.72986 0.99671 0.0
C1556 C 0.27205 0.81723 0.01448 0.0
C1557 C 0.28961 0.7946 0.01573 0.0
C1558 C 0.25641 0.80126 0.00761 0.0
C1559 C 0.2581 0.76255 0.00174 0.0
C1560 C 0.27577 0.74023 0.00285 0.0
C1561 C 0.29132 0.756 0.00981 0.0
C1562 C 0.22905 0.70982 0.97646 0.0
C1563 C 0.20979 0.71068 0.98119 0.0
C1564 C 0.24469 0.72672 0.98311 0.0
C1565 C 0.24144 0.74518 0.9946 0.0
C1566 C 0.22221 0.74638 0.99929 0.0
C1567 C 0.20658 0.7292 0.99269 0.0
H1568 H 0.05902 0.51307 0.9954 0.0
H1569 H 0.01717 0.55764 0.96866 0.0
H1570 H 0.03245 0.48054 0.0068 0.0
H1571 H 0.99045 0.5274 0.98049 0.0
H1572 H 0.94837 0.43607 0.99815 0.0
H1573 H 0.97573 0.46322 0.98619 0.0
H1574 H 0.00561 0.49796 0.01959 0.0
H1575 H 0.97889 0.4685 0.03153 0.0
C1576 C 0.04416 0.51594 0.99193 0.0
C1577 C 0.04029 0.53806 0.98109 0.0
C1578 C 0.02886 0.49772 0.99858 0.0
C1579 C 0.00924 0.50142 0.99462 0.0
C1580 C 0.00538 0.52344 0.98375 0.0
C1581 C 0.0207 0.54139 0.97706 0.0
C1582 C 0.96092 0.44885 0.00295 0.0
C1583 C 0.96135 0.45014 0.01582 0.0
C1584 C 0.97651 0.46499 0.99608 0.0
C1585 C 0.99288 0.48304 0.0019 0.0
C1586 C 0.99338 0.48392 0.01477 0.0
C1587 C 0.97788 0.46753 0.02163 0.0
H1588 H 0.29199 0.41212 0.24941 0.0
H1589 H 0.2787 0.49552 0.21949 0.0
H1590 H 0.26586 0.44396 0.26154 0.0
H1591 H 0.25227 0.52622 0.2315 0.0
H1592 H 0.19283 0.5344 0.25187 0.0
H1593 H 0.21944 0.50348 0.24003 0.0
H1594 H 0.25816 0.51397 0.27119 0.0
H1595 H 0.23177 0.54614 0.283 0.0
C1596 C 0.28362 0.43733 0.24543 0.0
C1597 C 0.28746 0.45105 0.23342 0.0
C1598 C 0.26861 0.45547 0.25237 0.0
C1599 C 0.25699 0.48743 0.24743 0.0
C1600 C 0.26081 0.5012 0.23547 0.0
C1601 C 0.27592 0.48342 0.22858 0.0
C1602 C 0.20708 0.53078 0.25617 0.0
C1603 C 0.21012 0.54303 0.2684 0.0
C1604 C 0.22229 0.51286 0.24939 0.0
C1605 C 0.24086 0.50633 0.25469 0.0
C1606 C 0.24392 0.5182 0.26692 0.0
C1607 C 0.22876 0.53654 0.27368 0.0
H1608 H 0.73186 0.20505 0.96548 0.0
H1609 H 0.69336 0.21427 0.99688 0.0
H1610 H 0.75844 0.23617 0.97738 0.0
H1611 H 0.72012 0.24424 0.0088 0.0
H1612 H 0.7794 0.25095 0.0292 0.0
H1613 H 0.75287 0.22114 0.01708 0.0
H1614 H 0.7665 0.305 0.98743 0.0
H1615 H 0.79278 0.33584 0.99967 0.0
C1616 C 0.729 0.21388 0.97488 0.0
C1617 C 0.71043 0.20697 0.98021 0.0
C1618 C 0.74426 0.23163 0.98169 0.0
C1619 C 0.74136 0.24252 0.99402 0.0
C1620 C 0.72286 0.2356 0.99936 0.0
C1621 C 0.70755 0.21824 0.99253 0.0
C1622 C 0.77661 0.26356 0.02018 0.0
C1623 C 0.7882 0.29609 0.01547 0.0
C1624 C 0.76144 0.24631 0.01322 0.0
C1625 C 0.75759 0.2608 0.00133 0.0
C1626 C 0.76927 0.29292 0.99653 0.0
C1627 C 0.78435 0.3105 0.00354 0.0
H1628 H 0.7351 0.57808 0.77456 0.0
H1629 H 0.69486 0.48498 0.76098 0.0
H1630 H 0.76155 0.54733 0.76249 0.0
H1631 H 0.72147 0.45336 0.74926 0.0
H1632 H 0.76784 0.44064 0.71885 0.0
H1633 H 0.74146 0.46926 0.73138 0.0
H1634 H 0.78211 0.48514 0.76143 0.0
H1635 H 0.80868 0.4578 0.74874 0.0
C1636 C 0.7319 0.55105 0.769 0.0
C1637 C 0.71285 0.53408 0.7687 0.0
C1638 C 0.74712 0.53312 0.7622 0.0
C1639 C 0.74363 0.49786 0.75492 0.0
C1640 C 0.72461 0.48074 0.75469 0.0
C1641 C 0.70941 0.49861 0.7615 0.0
C1642 C 0.77118 0.45042 0.72811 0.0
C1643 C 0.79039 0.44711 0.73277 0.0
C1644 C 0.756 0.46641 0.73534 0.0
C1645 C 0.75967 0.47954 0.7474 0.0
C1646 C 0.77884 0.47572 0.75213 0.0
C1647 C 0.79401 0.45961 0.7449 0.0
H1648 H 0.55609 0.98791 0.9879 0.0
H1649 H 0.5175 0.08461 0.97461 0.0
H1650 H 0.52903 0.95848 0.9997 0.0
H1651 H 0.49054 0.05544 0.98658 0.0
H1652 H 0.45477 0.01841 0.02075 0.0
H1653 H 0.48146 0.04688 0.0084 0.0
H1654 H 0.49698 0.92312 0.99658 0.0
H1655 H 0.47051 0.89452 0.00917 0.0
C1656 C 0.5418 0.00269 0.98739 0.0
C1657 C 0.539 0.03869 0.9803 0.0
C1658 C 0.5263 0.98583 0.99418 0.0
C1659 C 0.50766 0.00466 0.99408 0.0
C1660 C 0.50482 0.04055 0.98697 0.0
C1661 C 0.52029 0.05731 0.98014 0.0
C1662 C 0.46396 0.99726 0.01558 0.0
C1663 C 0.46058 0.9542 0.01597 0.0
C1664 C 0.47911 0.01361 0.0084 0.0
C1665 C 0.49132 0.98725 0.00151 0.0
C1666 C 0.48792 0.94419 0.00187 0.0
C1667 C 0.47266 0.92785 0.00899 0.0
H1668 H 0.4451 0.23211 0.23676 0.0
H1669 H 0.47615 0.34829 0.23242 0.0
H1670 H 0.47242 0.20458 0.24866 0.0
H1671 H 0.50317 0.32129 0.24479 0.0
H1672 H 0.5569 0.24142 0.25466 0.0
H1673 H 0.52937 0.27036 0.2432 0.0
H1674 H 0.48869 0.21187 0.26823 0.0
H1675 H 0.51625 0.1828 0.27968 0.0
C1676 C 0.45775 0.25183 0.23836 0.0
C1677 C 0.45848 0.29234 0.23356 0.0
C1678 C 0.47332 0.23619 0.24532 0.0
C1679 C 0.49001 0.26069 0.24768 0.0
C1680 C 0.49064 0.30141 0.24302 0.0
C1681 C 0.47504 0.31707 0.23605 0.0
C1682 C 0.54208 0.23501 0.25778 0.0
C1683 C 0.53877 0.20974 0.26808 0.0
C1684 C 0.52629 0.25167 0.25122 0.0
C1685 C 0.50681 0.24351 0.2548 0.0
C1686 C 0.5035 0.21829 0.26512 0.0
C1687 C 0.5193 0.20159 0.27167 0.0
H1688 H 0.44353 0.77205 0.74772 0.0
H1689 H 0.48588 0.8211 0.72202 0.0
H1690 H 0.47026 0.74342 0.76004 0.0
H1691 H 0.51255 0.79147 0.73413 0.0
H1692 H 0.55586 0.77014 0.7655 0.0
H1693 H 0.52876 0.80074 0.75399 0.0
H1694 H 0.49512 0.688 0.7586 0.0
H1695 H 0.52203 0.6578 0.77044 0.0
C1696 C 0.45854 0.77691 0.74474 0.0
C1697 C 0.46258 0.79886 0.7339 0.0
C1698 C 0.47384 0.76011 0.75172 0.0
C1699 C 0.49353 0.76508 0.74805 0.0
C1700 C 0.49756 0.78741 0.73727 0.0
C1701 C 0.48227 0.80403 0.73027 0.0
C1702 C 0.5426 0.75203 0.76417 0.0
C1703 C 0.54109 0.71154 0.7689 0.0
C1704 C 0.52716 0.76941 0.75746 0.0
C1705 C 0.50981 0.74678 0.75536 0.0
C1706 C 0.50823 0.70638 0.76016 0.0
C1707 C 0.52372 0.68891 0.76683 0.0
H1708 H 0.45639 0.51305 0.52164 0.0
H1709 H 0.46744 0.39148 0.50642 0.0
H1710 H 0.48293 0.54182 0.50922 0.0
H1711 H 0.49389 0.42044 0.49382 0.0
H1712 H 0.55464 0.48153 0.48586 0.0
H1713 H 0.52736 0.45137 0.49731 0.0
H1714 H 0.4906 0.55521 0.48723 0.0
H1715 H 0.51769 0.58505 0.47554 0.0
C1716 C 0.46451 0.49249 0.51564 0.0
C1717 C 0.4599 0.44998 0.51504 0.0
C1718 C 0.47958 0.50903 0.50844 0.0
C1719 C 0.49049 0.48338 0.50055 0.0
C1720 C 0.48583 0.44089 0.4999 0.0
C1721 C 0.4706 0.42439 0.50702 0.0
C1722 C 0.54068 0.4977 0.48593 0.0
C1723 C 0.53843 0.53584 0.47978 0.0
C1724 C 0.52505 0.4804 0.49251 0.0
C1725 C 0.50686 0.50096 0.49318 0.0
C1726 C 0.50454 0.53892 0.487 0.0
C1727 C 0.5201 0.55608 0.48035 0.0
H1728 H 0.1596 0.74337 0.36836 0.0
H1729 H 0.14023 0.83911 0.34344 0.0
H1730 H 0.1633 0.79507 0.38455 0.0
H1731 H 0.14351 0.89067 0.35963 0.0
H1732 H 0.1637 0.98072 0.38825 0.0
H1733 H 0.16588 0.92815 0.37231 0.0
H1734 H 0.1427 0.83653 0.39739 0.0
H1735 H 0.1416 0.88856 0.41353 0.0
C1736 C 0.15613 0.7755 0.36636 0.0
C1737 C 0.14958 0.78719 0.35465 0.0
C1738 C 0.1582 0.80511 0.37563 0.0
C1739 C 0.15362 0.84706 0.37343 0.0
C1740 C 0.14749 0.85881 0.36162 0.0
C1741 C 0.14556 0.82924 0.35233 0.0
C1742 C 0.15951 0.94916 0.39047 0.0
C1743 C 0.1524 0.93896 0.40219 0.0
C1744 C 0.1605 0.9191 0.38126 0.0
C1745 C 0.15429 0.87815 0.38351 0.0
C1746 C 0.14777 0.86765 0.39533 0.0
C1747 C 0.14689 0.89765 0.40456 0.0
H1748 H 0.13368 0.26965 0.38608 0.0
H1749 H 0.07785 0.30833 0.40122 0.0
H1750 H 0.13028 0.32068 0.36983 0.0
H1751 H 0.07469 0.36023 0.38499 0.0
H1752 H 0.09228 0.47975 0.36287 0.0
H1753 H 0.0916 0.42578 0.37853 0.0
H1754 H 0.10944 0.33493 0.35165 0.0
H1755 H 0.10988 0.38872 0.33592 0.0
C1756 C 0.12054 0.28863 0.38587 0.0
C1757 C 0.10597 0.28459 0.39494 0.0
C1758 C 0.11862 0.31797 0.37655 0.0
C1759 C 0.10216 0.34427 0.37609 0.0
C1760 C 0.08761 0.34053 0.38516 0.0
C1761 C 0.08946 0.3109 0.39447 0.0
C1762 C 0.09564 0.44812 0.36022 0.0
C1763 C 0.10127 0.43863 0.34814 0.0
C1764 C 0.09528 0.41722 0.36922 0.0
C1765 C 0.10064 0.37622 0.36634 0.0
C1766 C 0.10557 0.36643 0.35418 0.0
C1767 C 0.10585 0.39724 0.34518 0.0
H1768 H 0.14971 0.35554 0.83732 0.0
H1769 H 0.14909 0.25755 0.86435 0.0
H1770 H 0.15064 0.4073 0.8537 0.0
H1771 H 0.15047 0.30914 0.88066 0.0
H1772 H 0.1248 0.41412 0.9047 0.0
H1773 H 0.12722 0.36161 0.88875 0.0
H1774 H 0.17212 0.43375 0.8706 0.0
H1775 H 0.17002 0.48618 0.88671 0.0
C1776 C 0.14992 0.34508 0.84675 0.0
C1777 C 0.1493 0.30248 0.84954 0.0
C1778 C 0.15063 0.37467 0.85612 0.0
C1779 C 0.15056 0.36225 0.86846 0.0
C1780 C 0.15035 0.31965 0.87124 0.0
C1781 C 0.14977 0.2901 0.86189 0.0
C1782 C 0.13548 0.41852 0.89745 0.0
C1783 C 0.14724 0.45443 0.89702 0.0
C1784 C 0.13681 0.38842 0.88829 0.0
C1785 C 0.14985 0.39357 0.87842 0.0
C1786 C 0.16177 0.4292 0.87802 0.0
C1787 C 0.16053 0.45923 0.88724 0.0
H1788 H 0.1312 0.83275 0.903 0.0
H1789 H 0.07213 0.79389 0.89405 0.0
H1790 H 0.12952 0.88625 0.88735 0.0
H1791 H 0.07025 0.84818 0.87843 0.0
H1792 H 0.08405 0.91854 0.84247 0.0
H1793 H 0.08355 0.86627 0.85864 0.0
H1794 H 0.11429 0.95078 0.8827 0.0
H1795 H 0.11587 0.00177 0.8664 0.0
C1796 C 0.11771 0.83614 0.89782 0.0
C1797 C 0.10176 0.80926 0.89981 0.0
C1798 C 0.11672 0.86688 0.88884 0.0
C1799 C 0.09971 0.87173 0.88165 0.0
C1800 C 0.08367 0.84498 0.88369 0.0
C1801 C 0.08471 0.81398 0.89265 0.0
C1802 C 0.09079 0.92587 0.85119 0.0
C1803 C 0.10005 0.96441 0.85308 0.0
C1804 C 0.09028 0.89608 0.86052 0.0
C1805 C 0.09898 0.9042 0.87196 0.0
C1806 C 0.10772 0.94317 0.87395 0.0
C1807 C 0.10835 0.97276 0.86463 0.0
H1808 H 0.8404 0.24433 0.63303 0.0
H1809 H 0.86181 0.15198 0.65844 0.0
H1810 H 0.83791 0.19143 0.61711 0.0
H1811 H 0.85942 0.09914 0.64253 0.0
H1812 H 0.83917 0.00691 0.61394 0.0
H1813 H 0.83678 0.05987 0.62981 0.0
H1814 H 0.86059 0.15085 0.60478 0.0
H1815 H 0.86223 0.09828 0.58876 0.0
C1816 C 0.84455 0.21271 0.63521 0.0
C1817 C 0.85141 0.20238 0.64697 0.0
C1818 C 0.84314 0.18242 0.62609 0.0
C1819 C 0.84858 0.14112 0.62852 0.0
C1820 C 0.85487 0.13055 0.64039 0.0
C1821 C 0.85624 0.16084 0.64952 0.0
C1822 C 0.84354 0.03839 0.61175 0.0
C1823 C 0.8509 0.04836 0.60007 0.0
C1824 C 0.84239 0.06863 0.6209 0.0
C1825 C 0.84857 0.10954 0.61859 0.0
C1826 C 0.85552 0.11973 0.60684 0.0
C1827 C 0.85667 0.08949 0.59769 0.0
H1828 H 0.87153 0.5268 0.63588 0.0
H1829 H 0.92669 0.56486 0.65216 0.0
H1830 H 0.87549 0.57911 0.62006 0.0
H1831 H 0.93007 0.61871 0.6365 0.0
H1832 H 0.9082 0.74129 0.61581 0.0
H1833 H 0.90997 0.6851 0.63089 0.0
H1834 H 0.89925 0.5954 0.60227 0.0
H1835 H 0.89752 0.65152 0.5872 0.0
C1836 C 0.88465 0.54583 0.63602 0.0
C1837 C 0.89886 0.54121 0.64531 0.0
C1838 C 0.88686 0.57596 0.62695 0.0
C1839 C 0.90314 0.60271 0.62703 0.0
C1840 C 0.91734 0.59848 0.63628 0.0
C1841 C 0.91531 0.56781 0.64528 0.0
C1842 C 0.90651 0.70949 0.61274 0.0
C1843 C 0.90264 0.70068 0.60037 0.0
C1844 C 0.90764 0.6774 0.62134 0.0
C1845 C 0.90463 0.63603 0.61773 0.0
C1846 C 0.90149 0.62711 0.60528 0.0
C1847 C 0.90064 0.65913 0.59667 0.0
H1848 H 0.82562 0.55317 0.10021 0.0
H1849 H 0.88758 0.53927 0.10829 0.0
H1850 H 0.82285 0.60449 0.11664 0.0
H1851 H 0.88445 0.58887 0.12495 0.0
H1852 H 0.86593 0.64373 0.16181 0.0
H1853 H 0.86571 0.59136 0.14568 0.0
H1854 H 0.83786 0.67826 0.12112 0.0
H1855 H 0.83875 0.73145 0.13702 0.0
C1856 C 0.83865 0.56104 0.10542 0.0
C1857 C 0.85681 0.54174 0.10292 0.0
C1858 C 0.837 0.59023 0.11486 0.0
C1859 C 0.85339 0.60021 0.12212 0.0
C1860 C 0.8715 0.58112 0.11963 0.0
C1861 C 0.87324 0.55253 0.1101 0.0
C1862 C 0.85983 0.65188 0.15297 0.0
C1863 C 0.85258 0.69211 0.15071 0.0
C1864 C 0.85962 0.62177 0.14377 0.0
C1865 C 0.85189 0.63094 0.13216 0.0
C1866 C 0.84378 0.67036 0.13003 0.0
C1867 C 0.84423 0.70074 0.13918 0.0
H1868 H 0.92054 0.02558 0.14052 0.0
H1869 H 0.8689 0.08539 0.15537 0.0
H1870 H 0.92264 0.07902 0.12469 0.0
H1871 H 0.87095 0.13853 0.13959 0.0
H1872 H 0.88918 0.24789 0.11658 0.0
H1873 H 0.89072 0.19669 0.13293 0.0
H1874 H 0.90468 0.1013 0.10649 0.0
H1875 H 0.90399 0.15299 0.09015 0.0
C1876 C 0.90964 0.05009 0.1404 0.0
C1877 C 0.89459 0.0513 0.14923 0.0
C1878 C 0.91082 0.08066 0.13133 0.0
C1879 C 0.89698 0.11308 0.13088 0.0
C1880 C 0.88207 0.11445 0.1398 0.0
C1881 C 0.88089 0.08397 0.14885 0.0
C1882 C 0.89297 0.21618 0.11426 0.0
C1883 C 0.89647 0.20457 0.10204 0.0
C1884 C 0.8936 0.1867 0.12363 0.0
C1885 C 0.89768 0.14484 0.12102 0.0
C1886 C 0.90164 0.13335 0.10884 0.0
C1887 C 0.90103 0.16288 0.09945 0.0
H1888 H 0.66085 0.7756 0.86093 0.0
H1889 H 0.64149 0.86366 0.83358 0.0
H1890 H 0.66131 0.83072 0.87622 0.0
H1891 H 0.64161 0.91856 0.84898 0.0
H1892 H 0.6171 0.9836 0.88362 0.0
H1893 H 0.62093 0.93243 0.86743 0.0
H1894 H 0.67768 0.89792 0.88198 0.0
H1895 H 0.67411 0.95001 0.89811 0.0
C1896 C 0.65706 0.80683 0.85811 0.0
C1897 C 0.651 0.8151 0.84602 0.0
C1898 C 0.65728 0.83839 0.86689 0.0
C1899 C 0.65134 0.87885 0.86382 0.0
C1900 C 0.64596 0.88749 0.85166 0.0
C1901 C 0.64585 0.85602 0.84285 0.0
C1902 C 0.63058 0.96574 0.88327 0.0
C1903 C 0.64533 0.97115 0.89217 0.0
C1904 C 0.63275 0.93633 0.87398 0.0
C1905 C 0.64964 0.91131 0.8734 0.0
C1906 C 0.66443 0.91659 0.88226 0.0
C1907 C 0.66233 0.94631 0.89152 0.0
H1908 H 0.60128 0.36592 0.91418 0.0
H1909 H 0.59458 0.27245 0.88611 0.0
H1910 H 0.60013 0.42012 0.89857 0.0
H1911 H 0.59356 0.32648 0.87052 0.0
H1912 H 0.57866 0.4364 0.84596 0.0
H1913 H 0.57508 0.38471 0.8622 0.0
H1914 H 0.6219 0.4439 0.88249 0.0
H1915 H 0.62542 0.49533 0.86636 0.0
C1916 C 0.59949 0.35697 0.90468 0.0
C1917 C 0.5981 0.31489 0.90138 0.0
C1918 C 0.59886 0.38799 0.89573 0.0
C1919 C 0.5969 0.37763 0.88328 0.0
C1920 C 0.59483 0.33561 0.88003 0.0
C1921 C 0.59541 0.3046 0.88898 0.0
C1922 C 0.58817 0.4383 0.8539 0.0
C1923 C 0.60229 0.47005 0.85488 0.0
C1924 C 0.58612 0.40872 0.8632 0.0
C1925 C 0.59816 0.41023 0.87367 0.0
C1926 C 0.61211 0.44227 0.87468 0.0
C1927 C 0.61414 0.47179 0.86541 0.0
H1928 H 0.67831 0.30074 0.35244 0.0
H1929 H 0.61805 0.33417 0.34473 0.0
H1930 H 0.68 0.35559 0.36789 0.0
H1931 H 0.61958 0.38826 0.3602 0.0
H1932 H 0.63193 0.50486 0.38092 0.0
H1933 H 0.63385 0.45422 0.36452 0.0
H1934 H 0.66723 0.37224 0.38797 0.0
H1935 H 0.66634 0.42418 0.40422 0.0
C1936 C 0.66544 0.31979 0.35406 0.0
C1937 C 0.64809 0.31333 0.34731 0.0
C1938 C 0.66638 0.35111 0.36292 0.0
C1939 C 0.64995 0.37646 0.36527 0.0
C1940 C 0.63265 0.36998 0.35847 0.0
C1941 C 0.63176 0.33892 0.34958 0.0
C1942 C 0.64009 0.4765 0.38253 0.0
C1943 C 0.64899 0.4687 0.39393 0.0
C1944 C 0.64093 0.44713 0.37316 0.0
C1945 C 0.65051 0.40894 0.37495 0.0
C1946 C 0.65984 0.40145 0.38624 0.0
C1947 C 0.65911 0.43102 0.39561 0.0
H1948 H 0.59775 0.76629 0.38575 0.0
H1949 H 0.60085 0.8607 0.41378 0.0
H1950 H 0.59651 0.81987 0.37005 0.0
H1951 H 0.59935 0.91452 0.39806 0.0
H1952 H 0.62299 0.99349 0.36625 0.0
H1953 H 0.62057 0.94166 0.38238 0.0
H1954 H 0.57714 0.8749 0.36121 0.0
H1955 H 0.57977 0.92678 0.34496 0.0
C1956 C 0.59778 0.79854 0.38857 0.0
C1957 C 0.59945 0.80926 0.40101 0.0
C1958 C 0.59705 0.8293 0.37956 0.0
C1959 C 0.59791 0.87154 0.38277 0.0
C1960 C 0.59901 0.88227 0.39525 0.0
C1961 C 0.59983 0.85147 0.40426 0.0
C1962 C 0.61272 0.96807 0.36511 0.0
C1963 C 0.60154 0.96428 0.35433 0.0
C1964 C 0.6113 0.93835 0.37437 0.0
C1965 C 0.59862 0.90412 0.37312 0.0
C1966 C 0.58724 0.90058 0.3624 0.0
C1967 C 0.58873 0.93029 0.3531 0.0
H1968 H 0.34428 0.24233 0.13216 0.0
H1969 H 0.35617 0.14833 0.15936 0.0
H1970 H 0.34288 0.18858 0.11626 0.0
H1971 H 0.35507 0.09475 0.14345 0.0
H1972 H 0.382 0.0333 0.10798 0.0
H1973 H 0.37909 0.08462 0.1244 0.0
H1974 H 0.32172 0.1197 0.11098 0.0
H1975 H 0.32449 0.06744 0.09463 0.0
C1976 C 0.34641 0.21013 0.13473 0.0
C1977 C 0.35036 0.19935 0.14695 0.0
C1978 C 0.3455 0.17948 0.12567 0.0
C1979 C 0.34893 0.1377 0.12867 0.0
C1980 C 0.35245 0.12683 0.14093 0.0
C1981 C 0.35297 0.15736 0.15002 0.0
C1982 C 0.36877 0.05196 0.10857 0.0
C1983 C 0.35349 0.04669 0.10006 0.0
C1984 C 0.36705 0.08103 0.11798 0.0
C1985 C 0.35017 0.10589 0.11893 0.0
C1986 C 0.33488 0.10083 0.1104 0.0
C1987 C 0.33643 0.07103 0.10111 0.0
H1988 H 0.423 0.55182 0.14973 0.0
H1989 H 0.35984 0.54767 0.14547 0.0
H1990 H 0.42511 0.60189 0.13296 0.0
H1991 H 0.36188 0.59872 0.12913 0.0
H1992 H 0.3729 0.65565 0.0921 0.0
H1993 H 0.37312 0.60326 0.10816 0.0
H1994 H 0.41667 0.67393 0.12806 0.0
H1995 H 0.41706 0.72565 0.11171 0.0
C1996 C 0.40958 0.56165 0.14524 0.0
C1997 C 0.39125 0.54579 0.14897 0.0
C1998 C 0.41077 0.59061 0.13571 0.0
C1999 C 0.39367 0.60417 0.12967 0.0
C2000 C 0.37537 0.5885 0.13346 0.0
C2001 C 0.37417 0.55966 0.14297 0.0
C2002 C 0.38282 0.65967 0.09977 0.0
C2003 C 0.39496 0.6949 0.10061 0.0
C2004 C 0.38274 0.62989 0.10907 0.0
C2005 C 0.39476 0.63461 0.11945 0.0
C2006 C 0.4073 0.66925 0.12015 0.0
C2007 C 0.40738 0.69909 0.11084 0.0
H2008 H 0.32757 0.67656 0.65433 0.0
H2009 H 0.3867 0.70588 0.64274 0.0
H2010 H 0.32495 0.62545 0.63776 0.0
H2011 H 0.38419 0.65472 0.62637 0.0
H2012 H 0.36628 0.59201 0.59097 0.0
H2013 H 0.36546 0.64524 0.60688 0.0
H2014 H 0.34054 0.55667 0.63221 0.0
H2015 H 0.34106 0.5035 0.61621 0.0
C2016 C 0.33997 0.67209 0.64824 0.0
C2017 C 0.35737 0.69501 0.64986 0.0
C2018 C 0.33851 0.64275 0.63882 0.0
C2019 C 0.35434 0.63626 0.63075 0.0
C2020 C 0.37167 0.65938 0.63235 0.0
C2021 C 0.37319 0.68831 0.64182 0.0
C2022 C 0.3603 0.5841 0.59987 0.0
C2023 C 0.35381 0.54355 0.60236 0.0
C2024 C 0.36001 0.61445 0.60901 0.0
C2025 C 0.35308 0.60499 0.62081 0.0
C2026 C 0.34588 0.56489 0.62318 0.0
C2027 C 0.34633 0.5344 0.61406 0.0
H2028 H 0.39092 0.14917 0.58737 0.0
H2029 H 0.41104 0.2361 0.61476 0.0
H2030 H 0.39196 0.09324 0.60251 0.0
H2031 H 0.41205 0.18012 0.62991 0.0
H2032 H 0.42647 0.05757 0.65045 0.0
H2033 H 0.42946 0.11061 0.63454 0.0
H2034 H 0.37111 0.08096 0.62167 0.0
H2035 H 0.36769 0.02933 0.63776 0.0
C2036 C 0.3959 0.15613 0.59657 0.0
C2037 C 0.40083 0.19694 0.59992 0.0
C2038 C 0.39635 0.12424 0.60524 0.0
C2039 C 0.40198 0.13247 0.61738 0.0
C2040 C 0.40775 0.17291 0.6206 0.0
C2041 C 0.40705 0.20493 0.61197 0.0
C2042 C 0.4142 0.06257 0.64431 0.0
C2043 C 0.39685 0.03896 0.64542 0.0
C2044 C 0.41598 0.09278 0.63517 0.0
C2045 C 0.40057 0.09961 0.62684 0.0
C2046 C 0.38336 0.07581 0.62784 0.0
C2047 C 0.38146 0.04608 0.63706 0.0
loop_
_geom_bond_atom_site_label_1
_geom_bond_atom_site_label_2
_geom_bond_distance
_geom_bond_site_symmetry_2
_ccdc_geom_bond_type
Li0 N17 1.990 . S
Li0 O60 1.956 . S
Li0 O61 1.970 . S
Li0 O62 1.961 . S
Li1 N25 1.990 . S
Li1 O60 1.970 . S
Li1 O61 1.956 . S
Li1 O63 1.961 . S
Li2 N47 1.990 . S
Li2 O60 1.961 . S
Li2 O62 1.956 . S
Li2 O63 1.970 . S
Li3 N53 1.990 . S
Li3 O61 1.961 . S
Li3 O62 1.970 . S
Li3 O63 1.956 . S
C4 C6 1.348 . S
C4 C7 1.356 . S
C4 O60 1.325 . S
N5 C8 1.314 . S
N5 C9 1.279 . S
C6 C4 1.348 . S
C6 C8 1.353 . S
C6 H64 0.929 . S
C7 C4 1.356 . S
C7 C9 1.358 . S
C7 H65 0.930 . S
C8 N5 1.314 . S
C8 C6 1.353 . S
C8 H66 0.930 . S
C9 N5 1.279 . S
C9 C7 1.358 . S
C9 H67 0.930 . S
C10 C13 1.348 . S
C10 C14 1.356 . S
C10 O61 1.325 . S
C11 N12 1.279 . S
C11 C14 1.358 1_565 S
C11 H68 0.930 . S
N12 C11 1.279 . S
N12 C15 1.314 1_565 S
C13 C10 1.348 . S
C13 C15 1.353 . S
C13 H69 0.929 . S
C14 C10 1.356 . S
C14 C11 1.358 1_545 S
C14 H70 0.930 . S
C15 N12 1.314 1_545 S
C15 C13 1.353 . S
C15 H71 0.930 . S
C16 N17 1.314 . S
C16 C21 1.353 . S
C16 H22 0.930 . S
N17 Li0 1.990 . S
N17 C16 1.314 . S
N17 C19 1.279 . S
C18 C19 1.358 . S
C18 C20 1.356 . S
C18 H72 0.930 . S
C19 N17 1.279 . S
C19 C18 1.358 . S
C19 H23 0.930 . S
C20 C18 1.356 . S
C20 C21 1.348 . S
C21 C16 1.353 . S
C21 C20 1.348 . S
C21 H73 0.929 . S
H22 C16 0.930 . S
H23 C19 0.930 . S
C24 N25 1.314 . S
C24 C26 1.353 . S
C24 H30 0.930 . S
N25 Li1 1.990 . S
N25 C24 1.314 . S
N25 C28 1.279 . S
C26 C24 1.353 . S
C26 C29 1.348 . S
C26 H74 0.929 . S
C27 C28 1.358 . S
C27 C29 1.356 . S
C27 H75 0.930 . S
C28 N25 1.279 . S
C28 C27 1.358 . S
C28 H31 0.930 . S
C29 C26 1.348 . S
C29 C27 1.356 . S
H30 C24 0.930 . S
H31 C28 0.930 . S
C32 C34 1.348 . S
C32 C35 1.356 . S
C32 O62 1.325 . S
N33 C36 1.314 . S
N33 C37 1.279 . S
C34 C32 1.348 . S
C34 C36 1.353 . S
C34 H76 0.929 . S
C35 C32 1.356 . S
C35 C37 1.358 . S
C35 H77 0.930 . S
C36 N33 1.314 . S
C36 C34 1.353 . S
C36 H78 0.930 . S
C37 N33 1.279 . S
C37 C35 1.358 . S
C37 H79 0.930 . S
C38 C39 1.348 . S
C38 C40 1.356 . S
C38 O63 1.325 . S
C39 C38 1.348 . S
C39 C41 1.353 . S
C39 H80 0.929 . S
C40 C38 1.356 . S
C40 C42 1.358 . S
C40 H81 0.930 . S
C41 C39 1.353 . S
C41 N43 1.314 . S
C41 H82 0.930 . S
C42 C40 1.358 . S
C42 N43 1.279 . S
C42 H83 0.930 . S
N43 C41 1.314 . S
N43 C42 1.279 . S
C44 C46 1.353 . S
C44 N47 1.314 . S
C44 H50 0.930 . S
C45 N47 1.279 . S
C45 C48 1.358 . S
C45 H51 0.930 . S
C46 C44 1.353 . S
C46 C49 1.348 . S
C46 H84 0.929 . S
N47 Li2 1.990 . S
N47 C44 1.314 . S
N47 C45 1.279 . S
C48 C45 1.358 . S
C48 C49 1.356 . S
C48 H85 0.930 . S
C49 C46 1.348 . S
C49 C48 1.356 . S
H50 C44 0.930 . S
H51 C45 0.930 . S
C52 N53 1.300 1_565 S
C52 C54 1.366 . S
C52 H58 0.931 . S
N53 Li3 1.990 . S
N53 C52 1.300 1_545 S
N53 C56 1.279 . S
C54 C52 1.366 . S
C54 C57 1.348 . S
C54 H86 0.929 . S
C55 C56 1.358 . S
C55 C57 1.356 1_545 S
C55 H87 0.930 . S
C56 N53 1.279 . S
C56 C55 1.358 . S
C56 H59 0.930 . S
C57 C54 1.348 . S
C57 C55 1.356 1_565 S
H58 C52 0.931 . S
H59 C56 0.930 . S
O60 Li0 1.956 . S
O60 Li1 1.970 . S
O60 Li2 1.961 . S
O60 C4 1.325 . S
O61 Li0 1.970 . S
O61 Li1 1.956 . S
O61 Li3 1.961 . S
O61 C10 1.325 . S
O62 Li0 1.961 . S
O62 Li2 1.956 . S
O62 Li3 1.970 . S
O62 C32 1.325 . S
O63 Li1 1.961 . S
O63 Li2 1.970 . S
O63 Li3 1.956 . S
O63 C38 1.325 . S
H64 C6 0.929 . S
H65 C7 0.930 . S
H66 C8 0.930 . S
H67 C9 0.930 . S
H68 C11 0.930 . S
H69 C13 0.929 . S
H70 C14 0.930 . S
H71 C15 0.930 . S
H72 C18 0.930 . S
H73 C21 0.929 . S
H74 C26 0.929 . S
H75 C27 0.930 . S
H76 C34 0.929 . S
H77 C35 0.930 . S
H78 C36 0.930 . S
H79 C37 0.930 . S
H80 C39 0.929 . S
H81 C40 0.930 . S
H82 C41 0.930 . S
H83 C42 0.930 . S
H84 C46 0.929 . S
H85 C48 0.930 . S
H86 C54 0.929 . S
H87 C55 0.930 . S
Li88 N105 1.990 . S
Li88 O148 1.956 . S
Li88 O149 1.970 . S
Li88 O150 1.961 . S
Li89 N113 1.990 . S
Li89 O148 1.970 . S
Li89 O149 1.956 . S
Li89 O151 1.961 . S
Li90 N135 1.990 . S
Li90 O148 1.961 . S
Li90 O150 1.956 . S
Li90 O151 1.970 . S
Li91 N141 1.990 . S
Li91 O149 1.961 . S
Li91 O150 1.970 . S
Li91 O151 1.956 . S
C92 C94 1.348 . S
C92 C95 1.356 . S
C92 O148 1.325 . S
N93 C96 1.314 . S
N93 C97 1.279 . S
C94 C92 1.348 . S
C94 C96 1.353 . S
C94 H152 0.929 . S
C95 C92 1.356 . S
C95 C97 1.358 . S
C95 H153 0.930 . S
C96 N93 1.314 . S
C96 C94 1.353 . S
C96 H154 0.930 . S
C97 N93 1.279 . S
C97 C95 1.358 . S
C97 H155 0.930 . S
C98 C101 1.348 . S
C98 C102 1.356 . S
C98 O149 1.325 . S
C99 N100 1.279 . S
C99 C102 1.358 . S
C99 H156 0.930 . S
N100 C99 1.279 . S
N100 C103 1.314 . S
C101 C98 1.348 . S
C101 C103 1.353 . S
C101 H157 0.929 . S
C102 C98 1.356 . S
C102 C99 1.358 . S
C102 H158 0.930 . S
C103 N100 1.314 . S
C103 C101 1.353 . S
C103 H159 0.930 . S
C104 N105 1.314 . S
C104 C109 1.353 . S
C104 H110 0.930 . S
N105 Li88 1.990 . S
N105 C104 1.314 . S
N105 C107 1.279 . S
C106 C107 1.358 . S
C106 C108 1.356 . S
C106 H160 0.930 . S
C107 N105 1.279 . S
C107 C106 1.358 . S
C107 H111 0.930 . S
C108 C106 1.356 . S
C108 C109 1.348 . S
C109 C104 1.353 . S
C109 C108 1.348 . S
C109 H161 0.929 . S
H110 C104 0.930 . S
H111 C107 0.930 . S
C112 N113 1.300 1_565 S
C112 C114 1.366 . S
C112 H118 0.931 . S
N113 Li89 1.990 . S
N113 C112 1.300 1_545 S
N113 C116 1.279 . S
C114 C112 1.366 . S
C114 C117 1.348 . S
C114 H162 0.929 . S
C115 C116 1.358 . S
C115 C117 1.356 1_545 S
C115 H163 0.930 . S
C116 N113 1.279 . S
C116 C115 1.358 . S
C116 H119 0.930 . S
C117 C114 1.348 . S
C117 C115 1.356 1_565 S
H118 C112 0.931 . S
H119 C116 0.930 . S
C120 C122 1.348 . S
C120 C123 1.356 . S
C120 O150 1.325 . S
N121 C124 1.314 . S
N121 C125 1.279 . S
C122 C120 1.348 . S
C122 C124 1.353 . S
C122 H164 0.929 . S
C123 C120 1.356 . S
C123 C125 1.358 . S
C123 H165 0.930 . S
C124 N121 1.314 . S
C124 C122 1.353 . S
C124 H166 0.930 . S
C125 N121 1.279 . S
C125 C123 1.358 . S
C125 H167 0.930 . S
C126 C127 1.348 . S
C126 C128 1.356 . S
C126 O151 1.325 . S
C127 C126 1.348 . S
C127 C129 1.353 . S
C127 H168 0.929 . S
C128 C126 1.356 . S
C128 C130 1.358 1_545 S
C128 H169 0.930 . S
C129 C127 1.353 . S
C129 N131 1.314 1_545 S
C129 H170 0.930 . S
C130 C128 1.358 1_565 S
C130 N131 1.279 . S
C130 H171 0.930 . S
N131 C129 1.314 1_565 S
N131 C130 1.279 . S
C132 C134 1.353 . S
C132 N135 1.314 . S
C132 H138 0.930 . S
C133 N135 1.279 . S
C133 C136 1.358 . S
C133 H139 0.930 . S
C134 C132 1.353 . S
C134 C137 1.348 . S
C134 H172 0.929 . S
N135 Li90 1.990 . S
N135 C132 1.314 . S
N135 C133 1.279 . S
C136 C133 1.358 . S
C136 C137 1.356 . S
C136 H173 0.930 . S
C137 C134 1.348 . S
C137 C136 1.356 . S
H138 C132 0.930 . S
H139 C133 0.930 . S
C140 N141 1.314 . S
C140 C142 1.353 . S
C140 H146 0.930 . S
N141 Li91 1.990 . S
N141 C140 1.314 . S
N141 C144 1.279 . S
C142 C140 1.353 . S
C142 C145 1.348 . S
C142 H174 0.929 . S
C143 C144 1.358 . S
C143 C145 1.356 . S
C143 H175 0.930 . S
C144 N141 1.279 . S
C144 C143 1.358 . S
C144 H147 0.930 . S
C145 C142 1.348 . S
C145 C143 1.356 . S
H146 C140 0.930 . S
H147 C144 0.930 . S
O148 Li88 1.956 . S
O148 Li89 1.970 . S
O148 Li90 1.961 . S
O148 C92 1.325 . S
O149 Li88 1.970 . S
O149 Li89 1.956 . S
O149 Li91 1.961 . S
O149 C98 1.325 . S
O150 Li88 1.961 . S
O150 Li90 1.956 . S
O150 Li91 1.970 . S
O150 C120 1.325 . S
O151 Li89 1.961 . S
O151 Li90 1.970 . S
O151 Li91 1.956 . S
O151 C126 1.325 . S
H152 C94 0.929 . S
H153 C95 0.930 . S
H154 C96 0.930 . S
H155 C97 0.930 . S
H156 C99 0.930 . S
H157 C101 0.929 . S
H158 C102 0.930 . S
H159 C103 0.930 . S
H160 C106 0.930 . S
H161 C109 0.929 . S
H162 C114 0.929 . S
H163 C115 0.930 . S
H164 C122 0.929 . S
H165 C123 0.930 . S
H166 C124 0.930 . S
H167 C125 0.930 . S
H168 C127 0.929 . S
H169 C128 0.930 . S
H170 C129 0.930 . S
H171 C130 0.930 . S
H172 C134 0.929 . S
H173 C136 0.930 . S
H174 C142 0.929 . S
H175 C143 0.930 . S
Li176 N193 1.990 . S
Li176 O236 1.956 . S
Li176 O237 1.970 . S
Li176 O238 1.961 . S
Li177 N201 1.990 . S
Li177 O236 1.970 . S
Li177 O237 1.956 . S
Li177 O239 1.961 . S
Li178 N223 1.990 . S
Li178 O236 1.961 . S
Li178 O238 1.956 . S
Li178 O239 1.970 . S
Li179 N229 1.990 . S
Li179 O237 1.961 . S
Li179 O238 1.970 . S
Li179 O239 1.956 . S
C180 C182 1.348 . S
C180 C183 1.356 . S
C180 O236 1.325 . S
N181 C184 1.314 . S
N181 C185 1.279 . S
C182 C180 1.348 . S
C182 C184 1.353 . S
C182 H240 0.929 . S
C183 C180 1.356 . S
C183 C185 1.358 . S
C183 H241 0.930 . S
C184 N181 1.314 . S
C184 C182 1.353 . S
C184 H242 0.930 . S
C185 N181 1.279 . S
C185 C183 1.358 . S
C185 H243 0.930 . S
C186 C189 1.348 . S
C186 C190 1.356 . S
C186 O237 1.325 . S
C187 N188 1.279 . S
C187 C190 1.358 1_545 S
C187 H244 0.930 . S
N188 C187 1.279 . S
N188 C191 1.314 . S
C189 C186 1.348 . S
C189 C191 1.353 1_565 S
C189 H245 0.929 . S
C190 C186 1.356 . S
C190 C187 1.358 1_565 S
C190 H246 0.930 . S
C191 N188 1.314 . S
C191 C189 1.353 1_545 S
C191 H247 0.930 . S
C192 N193 1.314 . S
C192 C197 1.353 . S
C192 H198 0.930 . S
N193 Li176 1.990 . S
N193 C192 1.314 . S
N193 C195 1.279 . S
C194 C195 1.358 . S
C194 C196 1.356 . S
C194 H248 0.930 . S
C195 N193 1.279 . S
C195 C194 1.358 . S
C195 H199 0.930 . S
C196 C194 1.356 . S
C196 C197 1.348 . S
C197 C192 1.353 . S
C197 C196 1.348 . S
C197 H249 0.929 . S
H198 C192 0.930 . S
H199 C195 0.930 . S
C200 N201 1.314 . S
C200 C202 1.353 . S
C200 H206 0.930 . S
N201 Li177 1.990 . S
N201 C200 1.314 . S
N201 C204 1.279 1_565 S
C202 C200 1.353 . S
C202 C205 1.348 1_565 S
C202 H250 0.929 . S
C203 C204 1.358 . S
C203 C205 1.356 . S
C203 H251 0.930 . S
C204 N201 1.279 1_545 S
C204 C203 1.358 . S
C204 H207 0.930 . S
C205 C202 1.348 1_545 S
C205 C203 1.356 . S
H206 C200 0.930 . S
H207 C204 0.930 . S
C208 C210 1.348 . S
C208 C211 1.356 . S
C208 O238 1.325 . S
N209 C212 1.314 . S
N209 C213 1.279 . S
C210 C208 1.348 . S
C210 C212 1.353 . S
C210 H252 0.929 . S
C211 C208 1.356 . S
C211 C213 1.358 . S
C211 H253 0.930 . S
C212 N209 1.314 . S
C212 C210 1.353 . S
C212 H254 0.930 . S
C213 N209 1.279 . S
C213 C211 1.358 . S
C213 H255 0.930 . S
C214 C215 1.348 . S
C214 C216 1.356 . S
C214 O239 1.325 . S
C215 C214 1.348 . S
C215 C217 1.353 . S
C215 H256 0.929 . S
C216 C214 1.356 . S
C216 C218 1.358 . S
C216 H257 0.930 . S
C217 C215 1.353 . S
C217 N219 1.314 . S
C217 H258 0.930 . S
C218 C216 1.358 . S
C218 N219 1.279 . S
C218 H259 0.930 . S
N219 C217 1.314 . S
N219 C218 1.279 . S
C220 C222 1.353 . S
C220 N223 1.314 . S
C220 H226 0.930 . S
C221 N223 1.279 . S
C221 C224 1.358 . S
C221 H227 0.930 . S
C222 C220 1.353 . S
C222 C225 1.348 . S
C222 H260 0.929 . S
N223 Li178 1.990 . S
N223 C220 1.314 . S
N223 C221 1.279 . S
C224 C221 1.358 . S
C224 C225 1.356 . S
C224 H261 0.930 . S
C225 C222 1.348 . S
C225 C224 1.356 . S
H226 C220 0.930 . S
H227 C221 0.930 . S
C228 N229 1.314 . S
C228 C230 1.353 . S
C228 H234 0.930 . S
N229 Li179 1.990 . S
N229 C228 1.314 . S
N229 C232 1.279 . S
C230 C228 1.353 . S
C230 C233 1.348 . S
C230 H262 0.929 . S
C231 C232 1.358 . S
C231 C233 1.356 . S
C231 H263 0.930 . S
C232 N229 1.279 . S
C232 C231 1.358 . S
C232 H235 0.930 . S
C233 C230 1.348 . S
C233 C231 1.356 . S
H234 C228 0.930 . S
H235 C232 0.930 . S
O236 Li176 1.956 . S
O236 Li177 1.970 . S
O236 Li178 1.961 . S
O236 C180 1.325 . S
O237 Li176 1.970 . S
O237 Li177 1.956 . S
O237 Li179 1.961 . S
O237 C186 1.325 . S
O238 Li176 1.961 . S
O238 Li178 1.956 . S
O238 Li179 1.970 . S
O238 C208 1.325 . S
O239 Li177 1.961 . S
O239 Li178 1.970 . S
O239 Li179 1.956 . S
O239 C214 1.325 . S
H240 C182 0.929 . S
H241 C183 0.930 . S
H242 C184 0.930 . S
H243 C185 0.930 . S
H244 C187 0.930 . S
H245 C189 0.929 . S
H246 C190 0.930 . S
H247 C191 0.930 . S
H248 C194 0.930 . S
H249 C197 0.929 . S
H250 C202 0.929 . S
H251 C203 0.930 . S
H252 C210 0.929 . S
H253 C211 0.930 . S
H254 C212 0.930 . S
H255 C213 0.930 . S
H256 C215 0.929 . S
H257 C216 0.930 . S
H258 C217 0.930 . S
H259 C218 0.930 . S
H260 C222 0.929 . S
H261 C224 0.930 . S
H262 C230 0.929 . S
H263 C231 0.930 . S
Li264 N281 1.990 . S
Li264 O324 1.956 . S
Li264 O325 1.970 . S
Li264 O326 1.961 . S
Li265 N289 1.990 . S
Li265 O324 1.970 . S
Li265 O325 1.956 . S
Li265 O327 1.961 . S
Li266 N311 1.990 . S
Li266 O324 1.961 . S
Li266 O326 1.956 . S
Li266 O327 1.970 . S
Li267 N317 1.990 . S
Li267 O325 1.961 . S
Li267 O326 1.970 . S
Li267 O327 1.956 . S
C268 C270 1.348 . S
C268 C271 1.356 . S
C268 O324 1.325 . S
N269 C272 1.314 . S
N269 C273 1.279 . S
C270 C268 1.348 . S
C270 C272 1.353 1_565 S
C270 H328 0.929 . S
C271 C268 1.356 . S
C271 C273 1.358 1_565 S
C271 H329 0.930 . S
C272 N269 1.314 . S
C272 C270 1.353 1_545 S
C272 H330 0.930 . S
C273 N269 1.279 . S
C273 C271 1.358 1_545 S
C273 H331 0.930 . S
C274 C277 1.348 . S
C274 C278 1.356 . S
C274 O325 1.325 . S
C275 N276 1.279 . S
C275 C278 1.358 . S
C275 H332 0.930 . S
N276 C275 1.279 . S
N276 C279 1.314 . S
C277 C274 1.348 . S
C277 C279 1.353 . S
C277 H333 0.929 . S
C278 C274 1.356 . S
C278 C275 1.358 . S
C278 H334 0.930 . S
C279 N276 1.314 . S
C279 C277 1.353 . S
C279 H335 0.930 . S
C280 N281 1.314 . S
C280 C285 1.353 . S
C280 H286 0.930 . S
N281 Li264 1.990 . S
N281 C280 1.314 . S
N281 C283 1.279 1_565 S
C282 C283 1.358 . S
C282 C284 1.356 . S
C282 H336 0.930 . S
C283 N281 1.279 1_545 S
C283 C282 1.358 . S
C283 H287 0.930 . S
C284 C282 1.356 . S
C284 C285 1.348 1_545 S
C285 C280 1.353 . S
C285 C284 1.348 1_565 S
C285 H337 0.929 . S
H286 C280 0.930 . S
H287 C283 0.930 . S
C288 N289 1.314 . S
C288 C290 1.353 . S
C288 H294 0.930 . S
N289 Li265 1.990 . S
N289 C288 1.314 . S
N289 C292 1.279 . S
C290 C288 1.353 . S
C290 C293 1.348 . S
C290 H338 0.929 . S
C291 C292 1.358 . S
C291 C293 1.356 . S
C291 H339 0.930 . S
C292 N289 1.279 . S
C292 C291 1.358 . S
C292 H295 0.930 . S
C293 C290 1.348 . S
C293 C291 1.356 . S
H294 C288 0.930 . S
H295 C292 0.930 . S
C296 C298 1.348 . S
C296 C299 1.356 . S
C296 O326 1.325 . S
N297 C300 1.314 . S
N297 C301 1.279 . S
C298 C296 1.348 . S
C298 C300 1.353 . S
C298 H340 0.929 . S
C299 C296 1.356 . S
C299 C301 1.358 . S
C299 H341 0.930 . S
C300 N297 1.314 . S
C300 C298 1.353 . S
C300 H342 0.930 . S
C301 N297 1.279 . S
C301 C299 1.358 . S
C301 H343 0.930 . S
C302 C303 1.348 . S
C302 C304 1.356 . S
C302 O327 1.325 . S
C303 C302 1.348 . S
C303 C305 1.353 . S
C303 H344 0.929 . S
C304 C302 1.356 . S
C304 C306 1.358 . S
C304 H345 0.930 . S
C305 C303 1.353 . S
C305 N307 1.314 . S
C305 H346 0.930 . S
C306 C304 1.358 . S
C306 N307 1.279 . S
C306 H347 0.930 . S
N307 C305 1.314 . S
N307 C306 1.279 . S
C308 C310 1.353 . S
C308 N311 1.314 . S
C308 H314 0.930 . S
C309 N311 1.279 . S
C309 C312 1.358 . S
C309 H315 0.930 . S
C310 C308 1.353 . S
C310 C313 1.348 . S
C310 H348 0.929 . S
N311 Li266 1.990 . S
N311 C308 1.314 . S
N311 C309 1.279 . S
C312 C309 1.358 . S
C312 C313 1.356 . S
C312 H349 0.930 . S
C313 C310 1.348 . S
C313 C312 1.356 . S
H314 C308 0.930 . S
H315 C309 0.930 . S
C316 N317 1.314 . S
C316 C318 1.353 . S
C316 H322 0.930 . S
N317 Li267 1.990 . S
N317 C316 1.314 . S
N317 C320 1.279 . S
C318 C316 1.353 . S
C318 C321 1.348 . S
C318 H350 0.929 . S
C319 C320 1.358 . S
C319 C321 1.356 . S
C319 H351 0.930 . S
C320 N317 1.279 . S
C320 C319 1.358 . S
C320 H323 0.930 . S
C321 C318 1.348 . S
C321 C319 1.356 . S
H322 C316 0.930 . S
H323 C320 0.930 . S
O324 Li264 1.956 . S
O324 Li265 1.970 . S
O324 Li266 1.961 . S
O324 C268 1.325 . S
O325 Li264 1.970 . S
O325 Li265 1.956 . S
O325 Li267 1.961 . S
O325 C274 1.325 . S
O326 Li264 1.961 . S
O326 Li266 1.956 . S
O326 Li267 1.970 . S
O326 C296 1.325 . S
O327 Li265 1.961 . S
O327 Li266 1.970 . S
O327 Li267 1.956 . S
O327 C302 1.325 . S
H328 C270 0.929 . S
H329 C271 0.930 . S
H330 C272 0.930 . S
H331 C273 0.930 . S
H332 C275 0.930 . S
H333 C277 0.929 . S
H334 C278 0.930 . S
H335 C279 0.930 . S
H336 C282 0.930 . S
H337 C285 0.929 . S
H338 C290 0.929 . S
H339 C291 0.930 . S
H340 C298 0.929 . S
H341 C299 0.930 . S
H342 C300 0.930 . S
H343 C301 0.930 . S
H344 C303 0.929 . S
H345 C304 0.930 . S
H346 C305 0.930 . S
H347 C306 0.930 . S
H348 C310 0.929 . S
H349 C312 0.930 . S
H350 C318 0.929 . S
H351 C319 0.930 . S
Li352 N369 1.990 . S
Li352 O412 1.956 . S
Li352 O413 1.970 . S
Li352 O414 1.961 . S
Li353 N377 1.990 . S
Li353 O412 1.970 . S
Li353 O413 1.956 . S
Li353 O415 1.961 . S
Li354 N399 1.990 . S
Li354 O412 1.961 . S
Li354 O414 1.956 . S
Li354 O415 1.970 . S
Li355 N405 1.990 . S
Li355 O413 1.961 . S
Li355 O414 1.970 . S
Li355 O415 1.956 . S
C356 C358 1.348 . S
C356 C359 1.356 . S
C356 O412 1.325 . S
N357 C360 1.314 . S
N357 C361 1.279 . S
C358 C356 1.348 . S
C358 C360 1.353 . S
C358 H416 0.929 . S
C359 C356 1.356 . S
C359 C361 1.358 . S
C359 H417 0.930 . S
C360 N357 1.314 . S
C360 C358 1.353 . S
C360 H418 0.930 . S
C361 N357 1.279 . S
C361 C359 1.358 . S
C361 H419 0.930 . S
C362 C365 1.348 . S
C362 C366 1.356 . S
C362 O413 1.325 . S
C363 N364 1.279 . S
C363 C366 1.358 . S
C363 H420 0.930 . S
N364 C363 1.279 . S
N364 C367 1.314 . S
C365 C362 1.348 . S
C365 C367 1.353 . S
C365 H421 0.929 . S
C366 C362 1.356 . S
C366 C363 1.358 . S
C366 H422 0.930 . S
C367 N364 1.314 . S
C367 C365 1.353 . S
C367 H423 0.930 . S
C368 N369 1.314 . S
C368 C373 1.353 . S
C368 H374 0.930 . S
N369 Li352 1.990 . S
N369 C368 1.314 . S
N369 C371 1.279 . S
C370 C371 1.358 . S
C370 C372 1.356 . S
C370 H424 0.930 . S
C371 N369 1.279 . S
C371 C370 1.358 . S
C371 H375 0.930 . S
C372 C370 1.356 . S
C372 C373 1.348 . S
C373 C368 1.353 . S
C373 C372 1.348 . S
C373 H425 0.929 . S
H374 C368 0.930 . S
H375 C371 0.930 . S
C376 N377 1.314 . S
C376 C378 1.353 . S
C376 H382 0.930 . S
N377 Li353 1.990 . S
N377 C376 1.314 . S
N377 C380 1.279 . S
C378 C376 1.353 . S
C378 C381 1.348 . S
C378 H426 0.929 . S
C379 C380 1.358 . S
C379 C381 1.356 . S
C379 H427 0.930 . S
C380 N377 1.279 . S
C380 C379 1.358 . S
C380 H383 0.930 . S
C381 C378 1.348 . S
C381 C379 1.356 . S
H382 C376 0.930 . S
H383 C380 0.930 . S
C384 C386 1.348 . S
C384 C387 1.356 . S
C384 O414 1.325 . S
N385 C388 1.314 . S
N385 C389 1.279 . S
C386 C384 1.348 . S
C386 C388 1.353 . S
C386 H428 0.929 . S
C387 C384 1.356 . S
C387 C389 1.358 . S
C387 H429 0.930 . S
C388 N385 1.314 . S
C388 C386 1.353 . S
C388 H430 0.930 . S
C389 N385 1.279 . S
C389 C387 1.358 . S
C389 H431 0.930 . S
C390 C391 1.348 . S
C390 C392 1.356 . S
C390 O415 1.325 . S
C391 C390 1.348 . S
C391 C393 1.353 . S
C391 H432 0.929 . S
C392 C390 1.356 . S
C392 C394 1.358 . S
C392 H433 0.930 . S
C393 C391 1.353 . S
C393 N395 1.314 . S
C393 H434 0.930 . S
C394 C392 1.358 . S
C394 N395 1.279 . S
C394 H435 0.930 . S
N395 C393 1.314 . S
N395 C394 1.279 . S
C396 C398 1.353 . S
C396 N399 1.314 . S
C396 H402 0.930 . S
C397 N399 1.279 . S
C397 C400 1.358 . S
C397 H403 0.930 . S
C398 C396 1.353 . S
C398 C401 1.348 . S
C398 H436 0.929 . S
N399 Li354 1.990 . S
N399 C396 1.314 . S
N399 C397 1.279 . S
C400 C397 1.358 . S
C400 C401 1.356 . S
C400 H437 0.930 . S
C401 C398 1.348 . S
C401 C400 1.356 . S
H402 C396 0.930 . S
H403 C397 0.930 . S
C404 N405 1.314 . S
C404 C406 1.353 . S
C404 H410 0.930 . S
N405 Li355 1.990 . S
N405 C404 1.314 . S
N405 C408 1.279 . S
C406 C404 1.353 . S
C406 C409 1.348 . S
C406 H438 0.929 . S
C407 C408 1.358 . S
C407 C409 1.356 . S
C407 H439 0.930 . S
C408 N405 1.279 . S
C408 C407 1.358 . S
C408 H411 0.930 . S
C409 C406 1.348 . S
C409 C407 1.356 . S
H410 C404 0.930 . S
H411 C408 0.930 . S
O412 Li352 1.956 . S
O412 Li353 1.970 . S
O412 Li354 1.961 . S
O412 C356 1.325 . S
O413 Li352 1.970 . S
O413 Li353 1.956 . S
O413 Li355 1.961 . S
O413 C362 1.325 . S
O414 Li352 1.961 . S
O414 Li354 1.956 . S
O414 Li355 1.970 . S
O414 C384 1.325 . S
O415 Li353 1.961 . S
O415 Li354 1.970 . S
O415 Li355 1.956 . S
O415 C390 1.325 . S
H416 C358 0.929 . S
H417 C359 0.930 . S
H418 C360 0.930 . S
H419 C361 0.930 . S
H420 C363 0.930 . S
H421 C365 0.929 . S
H422 C366 0.930 . S
H423 C367 0.930 . S
H424 C370 0.930 . S
H425 C373 0.929 . S
H426 C378 0.929 . S
H427 C379 0.930 . S
H428 C386 0.929 . S
H429 C387 0.930 . S
H430 C388 0.930 . S
H431 C389 0.930 . S
H432 C391 0.929 . S
H433 C392 0.930 . S
H434 C393 0.930 . S
H435 C394 0.930 . S
H436 C398 0.929 . S
H437 C400 0.930 . S
H438 C406 0.929 . S
H439 C407 0.930 . S
Li440 N457 1.990 . S
Li440 O500 1.956 . S
Li440 O501 1.970 . S
Li440 O502 1.961 . S
Li441 N465 1.990 . S
Li441 O500 1.970 . S
Li441 O501 1.956 . S
Li441 O503 1.961 . S
Li442 N487 1.990 . S
Li442 O500 1.961 . S
Li442 O502 1.956 . S
Li442 O503 1.970 . S
Li443 N493 1.990 . S
Li443 O501 1.961 . S
Li443 O502 1.970 . S
Li443 O503 1.956 . S
C444 C446 1.348 . S
C444 C447 1.356 . S
C444 O500 1.325 . S
N445 C448 1.314 . S
N445 C449 1.279 . S
C446 C444 1.348 . S
C446 C448 1.353 . S
C446 H504 0.929 . S
C447 C444 1.356 . S
C447 C449 1.358 . S
C447 H505 0.930 . S
C448 N445 1.314 . S
C448 C446 1.353 . S
C448 H506 0.930 . S
C449 N445 1.279 . S
C449 C447 1.358 . S
C449 H507 0.930 . S
C450 C453 1.348 . S
C450 C454 1.356 . S
C450 O501 1.325 . S
C451 N452 1.279 . S
C451 C454 1.358 . S
C451 H508 0.930 . S
N452 C451 1.279 . S
N452 C455 1.314 . S
C453 C450 1.348 . S
C453 C455 1.353 . S
C453 H509 0.929 . S
C454 C450 1.356 . S
C454 C451 1.358 . S
C454 H510 0.930 . S
C455 N452 1.314 . S
C455 C453 1.353 . S
C455 H511 0.930 . S
C456 N457 1.314 . S
C456 C461 1.353 . S
C456 H462 0.930 . S
N457 Li440 1.990 . S
N457 C456 1.314 . S
N457 C459 1.279 . S
C458 C459 1.358 . S
C458 C460 1.356 . S
C458 H512 0.930 . S
C459 N457 1.279 . S
C459 C458 1.358 . S
C459 H463 0.930 . S
C460 C458 1.356 . S
C460 C461 1.348 . S
C461 C456 1.353 . S
C461 C460 1.348 . S
C461 H513 0.929 . S
H462 C456 0.930 . S
H463 C459 0.930 . S
C464 N465 1.314 . S
C464 C466 1.353 . S
C464 H470 0.930 . S
N465 Li441 1.990 . S
N465 C464 1.314 . S
N465 C468 1.279 . S
C466 C464 1.353 . S
C466 C469 1.348 . S
C466 H514 0.929 . S
C467 C468 1.358 . S
C467 C469 1.356 . S
C467 H515 0.930 . S
C468 N465 1.279 . S
C468 C467 1.358 . S
C468 H471 0.930 . S
C469 C466 1.348 . S
C469 C467 1.356 . S
H470 C464 0.930 . S
H471 C468 0.930 . S
C472 C474 1.348 . S
C472 C475 1.356 . S
C472 O502 1.325 . S
N473 C476 1.314 . S
N473 C477 1.279 . S
C474 C472 1.348 . S
C474 C476 1.353 . S
C474 H516 0.929 . S
C475 C472 1.356 . S
C475 C477 1.358 . S
C475 H517 0.930 . S
C476 N473 1.314 . S
C476 C474 1.353 . S
C476 H518 0.930 . S
C477 N473 1.279 . S
C477 C475 1.358 . S
C477 H519 0.930 . S
C478 C479 1.348 . S
C478 C480 1.356 . S
C478 O503 1.325 . S
C479 C478 1.348 . S
C479 C481 1.353 . S
C479 H520 0.929 . S
C480 C478 1.356 . S
C480 C482 1.358 . S
C480 H521 0.930 . S
C481 C479 1.353 . S
C481 N483 1.314 . S
C481 H522 0.930 . S
C482 C480 1.358 . S
C482 N483 1.279 . S
C482 H523 0.930 . S
N483 C481 1.314 . S
N483 C482 1.279 . S
C484 C486 1.353 . S
C484 N487 1.314 . S
C484 H490 0.930 . S
C485 N487 1.279 . S
C485 C488 1.358 . S
C485 H491 0.930 . S
C486 C484 1.353 . S
C486 C489 1.348 . S
C486 H524 0.929 . S
N487 Li442 1.990 . S
N487 C484 1.314 . S
N487 C485 1.279 . S
C488 C485 1.358 . S
C488 C489 1.356 . S
C488 H525 0.930 . S
C489 C486 1.348 . S
C489 C488 1.356 . S
H490 C484 0.930 . S
H491 C485 0.930 . S
C492 N493 1.314 . S
C492 C494 1.353 . S
C492 H498 0.930 . S
N493 Li443 1.990 . S
N493 C492 1.314 . S
N493 C496 1.279 . S
C494 C492 1.353 . S
C494 C497 1.348 . S
C494 H526 0.929 . S
C495 C496 1.358 . S
C495 C497 1.356 . S
C495 H527 0.930 . S
C496 N493 1.279 . S
C496 C495 1.358 . S
C496 H499 0.930 . S
C497 C494 1.348 . S
C497 C495 1.356 . S
H498 C492 0.930 . S
H499 C496 0.930 . S
O500 Li440 1.956 . S
O500 Li441 1.970 . S
O500 Li442 1.961 . S
O500 C444 1.325 . S
O501 Li440 1.970 . S
O501 Li441 1.956 . S
O501 Li443 1.961 . S
O501 C450 1.325 . S
O502 Li440 1.961 . S
O502 Li442 1.956 . S
O502 Li443 1.970 . S
O502 C472 1.325 . S
O503 Li441 1.961 . S
O503 Li442 1.970 . S
O503 Li443 1.956 . S
O503 C478 1.325 . S
H504 C446 0.929 . S
H505 C447 0.930 . S
H506 C448 0.930 . S
H507 C449 0.930 . S
H508 C451 0.930 . S
H509 C453 0.929 . S
H510 C454 0.930 . S
H511 C455 0.930 . S
H512 C458 0.930 . S
H513 C461 0.929 . S
H514 C466 0.929 . S
H515 C467 0.930 . S
H516 C474 0.929 . S
H517 C475 0.930 . S
H518 C476 0.930 . S
H519 C477 0.930 . S
H520 C479 0.929 . S
H521 C480 0.930 . S
H522 C481 0.930 . S
H523 C482 0.930 . S
H524 C486 0.929 . S
H525 C488 0.930 . S
H526 C494 0.929 . S
H527 C495 0.930 . S
Li528 N545 1.990 . S
Li528 O588 1.956 . S
Li528 O589 1.970 . S
Li528 O590 1.961 . S
Li529 N553 1.990 . S
Li529 O588 1.970 . S
Li529 O589 1.956 . S
Li529 O591 1.961 . S
Li530 N575 1.990 . S
Li530 O588 1.961 . S
Li530 O590 1.956 . S
Li530 O591 1.970 . S
Li531 N581 1.990 . S
Li531 O589 1.961 . S
Li531 O590 1.970 . S
Li531 O591 1.956 . S
C532 C534 1.348 . S
C532 C535 1.356 . S
C532 O588 1.325 . S
N533 C536 1.314 . S
N533 C537 1.279 . S
C534 C532 1.348 . S
C534 C536 1.353 . S
C534 H592 0.929 . S
C535 C532 1.356 . S
C535 C537 1.358 . S
C535 H593 0.930 . S
C536 N533 1.314 . S
C536 C534 1.353 . S
C536 H594 0.930 . S
C537 N533 1.279 . S
C537 C535 1.358 . S
C537 H595 0.930 . S
C538 C541 1.348 . S
C538 C542 1.356 . S
C538 O589 1.325 . S
C539 N540 1.279 . S
C539 C542 1.358 . S
C539 H596 0.930 . S
N540 C539 1.279 . S
N540 C543 1.314 . S
C541 C538 1.348 . S
C541 C543 1.353 . S
C541 H597 0.929 . S
C542 C538 1.356 . S
C542 C539 1.358 . S
C542 H598 0.930 . S
C543 N540 1.314 . S
C543 C541 1.353 . S
C543 H599 0.930 . S
C544 N545 1.314 . S
C544 C549 1.353 . S
C544 H550 0.930 . S
N545 Li528 1.990 . S
N545 C544 1.314 . S
N545 C547 1.279 . S
C546 C547 1.358 . S
C546 C548 1.356 . S
C546 H600 0.930 . S
C547 N545 1.279 . S
C547 C546 1.358 . S
C547 H551 0.930 . S
C548 C546 1.356 . S
C548 C549 1.348 . S
C549 C544 1.353 . S
C549 C548 1.348 . S
C549 H601 0.929 . S
H550 C544 0.930 . S
H551 C547 0.930 . S
C552 N553 1.314 . S
C552 C554 1.353 . S
C552 H558 0.930 . S
N553 Li529 1.990 . S
N553 C552 1.314 . S
N553 C556 1.279 . S
C554 C552 1.353 . S
C554 C557 1.348 . S
C554 H602 0.929 . S
C555 C556 1.358 . S
C555 C557 1.356 . S
C555 H603 0.930 . S
C556 N553 1.279 . S
C556 C555 1.358 . S
C556 H559 0.930 . S
C557 C554 1.348 . S
C557 C555 1.356 . S
H558 C552 0.930 . S
H559 C556 0.930 . S
C560 C562 1.348 . S
C560 C563 1.356 . S
C560 O590 1.325 . S
N561 C564 1.314 . S
N561 C565 1.279 . S
C562 C560 1.348 . S
C562 C564 1.353 . S
C562 H604 0.929 . S
C563 C560 1.356 . S
C563 C565 1.358 . S
C563 H605 0.930 . S
C564 N561 1.314 . S
C564 C562 1.353 . S
C564 H606 0.930 . S
C565 N561 1.279 . S
C565 C563 1.358 . S
C565 H607 0.930 . S
C566 C567 1.348 . S
C566 C568 1.356 . S
C566 O591 1.325 . S
C567 C566 1.348 . S
C567 C569 1.353 . S
C567 H608 0.929 . S
C568 C566 1.356 . S
C568 C570 1.358 . S
C568 H609 0.930 . S
C569 C567 1.353 . S
C569 N571 1.314 . S
C569 H610 0.930 . S
C570 C568 1.358 . S
C570 N571 1.279 . S
C570 H611 0.930 . S
N571 C569 1.314 . S
N571 C570 1.279 . S
C572 C574 1.353 . S
C572 N575 1.314 . S
C572 H578 0.930 . S
C573 N575 1.279 . S
C573 C576 1.358 . S
C573 H579 0.930 . S
C574 C572 1.353 . S
C574 C577 1.348 . S
C574 H612 0.929 . S
N575 Li530 1.990 . S
N575 C572 1.314 . S
N575 C573 1.279 . S
C576 C573 1.358 . S
C576 C577 1.356 . S
C576 H613 0.930 . S
C577 C574 1.348 . S
C577 C576 1.356 . S
H578 C572 0.930 . S
H579 C573 0.930 . S
C580 N581 1.314 . S
C580 C582 1.353 . S
C580 H586 0.930 . S
N581 Li531 1.990 . S
N581 C580 1.314 . S
N581 C584 1.279 . S
C582 C580 1.353 . S
C582 C585 1.348 . S
C582 H614 0.929 . S
C583 C584 1.358 . S
C583 C585 1.356 . S
C583 H615 0.930 . S
C584 N581 1.279 . S
C584 C583 1.358 . S
C584 H587 0.930 . S
C585 C582 1.348 . S
C585 C583 1.356 . S
H586 C580 0.930 . S
H587 C584 0.930 . S
O588 Li528 1.956 . S
O588 Li529 1.970 . S
O588 Li530 1.961 . S
O588 C532 1.325 . S
O589 Li528 1.970 . S
O589 Li529 1.956 . S
O589 Li531 1.961 . S
O589 C538 1.325 . S
O590 Li528 1.961 . S
O590 Li530 1.956 . S
O590 Li531 1.970 . S
O590 C560 1.325 . S
O591 Li529 1.961 . S
O591 Li530 1.970 . S
O591 Li531 1.956 . S
O591 C566 1.325 . S
H592 C534 0.929 . S
H593 C535 0.930 . S
H594 C536 0.930 . S
H595 C537 0.930 . S
H596 C539 0.930 . S
H597 C541 0.929 . S
H598 C542 0.930 . S
H599 C543 0.930 . S
H600 C546 0.930 . S
H601 C549 0.929 . S
H602 C554 0.929 . S
H603 C555 0.930 . S
H604 C562 0.929 . S
H605 C563 0.930 . S
H606 C564 0.930 . S
H607 C565 0.930 . S
H608 C567 0.929 . S
H609 C568 0.930 . S
H610 C569 0.930 . S
H611 C570 0.930 . S
H612 C574 0.929 . S
H613 C576 0.930 . S
H614 C582 0.929 . S
H615 C583 0.930 . S
Li616 N633 1.990 . S
Li616 O676 1.956 . S
Li616 O677 1.970 . S
Li616 O678 1.961 . S
Li617 N641 1.990 . S
Li617 O676 1.970 . S
Li617 O677 1.956 . S
Li617 O679 1.961 . S
Li618 N663 1.990 . S
Li618 O676 1.961 . S
Li618 O678 1.956 . S
Li618 O679 1.970 . S
Li619 N669 1.990 . S
Li619 O677 1.961 . S
Li619 O678 1.970 . S
Li619 O679 1.956 . S
C620 C622 1.348 . S
C620 C623 1.356 . S
C620 O676 1.325 . S
N621 C624 1.314 . S
N621 C625 1.279 . S
C622 C620 1.348 . S
C622 C624 1.353 . S
C622 H680 0.929 . S
C623 C620 1.356 . S
C623 C625 1.358 . S
C623 H681 0.930 . S
C624 N621 1.314 . S
C624 C622 1.353 . S
C624 H682 0.930 . S
C625 N621 1.279 . S
C625 C623 1.358 . S
C625 H683 0.930 . S
C626 C629 1.348 . S
C626 C630 1.356 . S
C626 O677 1.325 . S
C627 N628 1.279 . S
C627 C630 1.358 . S
C627 H684 0.930 . S
N628 C627 1.279 . S
N628 C631 1.314 . S
C629 C626 1.348 . S
C629 C631 1.353 . S
C629 H685 0.929 . S
C630 C626 1.356 . S
C630 C627 1.358 . S
C630 H686 0.930 . S
C631 N628 1.314 . S
C631 C629 1.353 . S
C631 H687 0.930 . S
C632 N633 1.314 . S
C632 C637 1.353 . S
C632 H638 0.930 . S
N633 Li616 1.990 . S
N633 C632 1.314 . S
N633 C635 1.279 . S
C634 C635 1.358 . S
C634 C636 1.356 . S
C634 H688 0.930 . S
C635 N633 1.279 . S
C635 C634 1.358 . S
C635 H639 0.930 . S
C636 C634 1.356 . S
C636 C637 1.348 . S
C637 C632 1.353 . S
C637 C636 1.348 . S
C637 H689 0.929 . S
H638 C632 0.930 . S
H639 C635 0.930 . S
C640 N641 1.314 . S
C640 C642 1.353 . S
C640 H646 0.930 . S
N641 Li617 1.990 . S
N641 C640 1.314 . S
N641 C644 1.279 . S
C642 C640 1.353 . S
C642 C645 1.348 . S
C642 H690 0.929 . S
C643 C644 1.358 . S
C643 C645 1.356 . S
C643 H691 0.930 . S
C644 N641 1.279 . S
C644 C643 1.358 . S
C644 H647 0.930 . S
C645 C642 1.348 . S
C645 C643 1.356 . S
H646 C640 0.930 . S
H647 C644 0.930 . S
C648 C650 1.348 . S
C648 C651 1.356 . S
C648 O678 1.325 . S
N649 C652 1.314 . S
N649 C653 1.279 . S
C650 C648 1.348 . S
C650 C652 1.353 . S
C650 H692 0.929 . S
C651 C648 1.356 . S
C651 C653 1.358 . S
C651 H693 0.930 . S
C652 N649 1.314 . S
C652 C650 1.353 . S
C652 H694 0.930 . S
C653 N649 1.279 . S
C653 C651 1.358 . S
C653 H695 0.930 . S
C654 C655 1.348 . S
C654 C656 1.356 . S
C654 O679 1.325 . S
C655 C654 1.348 . S
C655 C657 1.353 . S
C655 H696 0.929 . S
C656 C654 1.356 . S
C656 C658 1.358 . S
C656 H697 0.930 . S
C657 C655 1.353 . S
C657 N659 1.314 . S
C657 H698 0.930 . S
C658 C656 1.358 . S
C658 N659 1.279 . S
C658 H699 0.930 . S
N659 C657 1.314 . S
N659 C658 1.279 . S
C660 C662 1.353 . S
C660 N663 1.314 . S
C660 H666 0.930 . S
C661 N663 1.279 . S
C661 C664 1.358 . S
C661 H667 0.930 . S
C662 C660 1.353 . S
C662 C665 1.348 . S
C662 H700 0.929 . S
N663 Li618 1.990 . S
N663 C660 1.314 . S
N663 C661 1.279 . S
C664 C661 1.358 . S
C664 C665 1.356 . S
C664 H701 0.930 . S
C665 C662 1.348 . S
C665 C664 1.356 . S
H666 C660 0.930 . S
H667 C661 0.930 . S
C668 N669 1.314 . S
C668 C670 1.353 . S
C668 H674 0.930 . S
N669 Li619 1.990 . S
N669 C668 1.314 . S
N669 C672 1.279 . S
C670 C668 1.353 . S
C670 C673 1.348 . S
C670 H702 0.929 . S
C671 C672 1.358 . S
C671 C673 1.356 . S
C671 H703 0.930 . S
C672 N669 1.279 . S
C672 C671 1.358 . S
C672 H675 0.930 . S
C673 C670 1.348 . S
C673 C671 1.356 . S
H674 C668 0.930 . S
H675 C672 0.930 . S
O676 Li616 1.956 . S
O676 Li617 1.970 . S
O676 Li618 1.961 . S
O676 C620 1.325 . S
O677 Li616 1.970 . S
O677 Li617 1.956 . S
O677 Li619 1.961 . S
O677 C626 1.325 . S
O678 Li616 1.961 . S
O678 Li618 1.956 . S
O678 Li619 1.970 . S
O678 C648 1.325 . S
O679 Li617 1.961 . S
O679 Li618 1.970 . S
O679 Li619 1.956 . S
O679 C654 1.325 . S
H680 C622 0.929 . S
H681 C623 0.930 . S
H682 C624 0.930 . S
H683 C625 0.930 . S
H684 C627 0.930 . S
H685 C629 0.929 . S
H686 C630 0.930 . S
H687 C631 0.930 . S
H688 C634 0.930 . S
H689 C637 0.929 . S
H690 C642 0.929 . S
H691 C643 0.930 . S
H692 C650 0.929 . S
H693 C651 0.930 . S
H694 C652 0.930 . S
H695 C653 0.930 . S
H696 C655 0.929 . S
H697 C656 0.930 . S
H698 C657 0.930 . S
H699 C658 0.930 . S
H700 C662 0.929 . S
H701 C664 0.930 . S
H702 C670 0.929 . S
H703 C671 0.930 . S
Li704 N721 1.990 . S
Li704 O764 1.956 . S
Li704 O765 1.970 . S
Li704 O766 1.961 . S
Li705 N729 1.990 . S
Li705 O764 1.970 . S
Li705 O765 1.956 . S
Li705 O767 1.961 . S
Li706 N751 1.990 . S
Li706 O764 1.961 . S
Li706 O766 1.956 . S
Li706 O767 1.970 . S
Li707 N757 1.990 . S
Li707 O765 1.961 . S
Li707 O766 1.970 . S
Li707 O767 1.956 . S
C708 C710 1.348 . S
C708 C711 1.356 . S
C708 O764 1.325 . S
N709 C712 1.314 . S
N709 C713 1.279 . S
C710 C708 1.348 . S
C710 C712 1.353 . S
C710 H768 0.929 . S
C711 C708 1.356 . S
C711 C713 1.358 . S
C711 H769 0.930 . S
C712 N709 1.314 . S
C712 C710 1.353 . S
C712 H770 0.930 . S
C713 N709 1.279 . S
C713 C711 1.358 . S
C713 H771 0.930 . S
C714 C717 1.348 . S
C714 C718 1.356 . S
C714 O765 1.325 . S
C715 N716 1.279 . S
C715 C718 1.358 1_565 S
C715 H772 0.930 . S
N716 C715 1.279 . S
N716 C719 1.314 1_565 S
C717 C714 1.348 . S
C717 C719 1.353 . S
C717 H773 0.929 . S
C718 C714 1.356 . S
C718 C715 1.358 1_545 S
C718 H774 0.930 . S
C719 N716 1.314 1_545 S
C719 C717 1.353 . S
C719 H775 0.930 . S
C720 N721 1.314 . S
C720 C725 1.353 . S
C720 H726 0.930 . S
N721 Li704 1.990 . S
N721 C720 1.314 . S
N721 C723 1.279 . S
C722 C723 1.358 . S
C722 C724 1.356 . S
C722 H776 0.930 . S
C723 N721 1.279 . S
C723 C722 1.358 . S
C723 H727 0.930 . S
C724 C722 1.356 . S
C724 C725 1.348 . S
C725 C720 1.353 . S
C725 C724 1.348 . S
C725 H777 0.929 . S
H726 C720 0.930 . S
H727 C723 0.930 . S
C728 N729 1.314 . S
C728 C730 1.353 . S
C728 H734 0.930 . S
N729 Li705 1.990 . S
N729 C728 1.314 . S
N729 C732 1.279 . S
C730 C728 1.353 . S
C730 C733 1.348 . S
C730 H778 0.929 . S
C731 C732 1.358 . S
C731 C733 1.356 . S
C731 H779 0.930 . S
C732 N729 1.279 . S
C732 C731 1.358 . S
C732 H735 0.930 . S
C733 C730 1.348 . S
C733 C731 1.356 . S
H734 C728 0.930 . S
H735 C732 0.930 . S
C736 C738 1.348 . S
C736 C739 1.356 . S
C736 O766 1.325 . S
N737 C740 1.314 . S
N737 C741 1.279 . S
C738 C736 1.348 . S
C738 C740 1.353 . S
C738 H780 0.929 . S
C739 C736 1.356 . S
C739 C741 1.358 . S
C739 H781 0.930 . S
C740 N737 1.314 . S
C740 C738 1.353 . S
C740 H782 0.930 . S
C741 N737 1.279 . S
C741 C739 1.358 . S
C741 H783 0.930 . S
C742 C743 1.348 . S
C742 C744 1.356 . S
C742 O767 1.325 . S
C743 C742 1.348 . S
C743 C745 1.353 . S
C743 H784 0.929 . S
C744 C742 1.356 . S
C744 C746 1.358 . S
C744 H785 0.930 . S
C745 C743 1.353 . S
C745 N747 1.314 . S
C745 H786 0.930 . S
C746 C744 1.358 . S
C746 N747 1.279 . S
C746 H787 0.930 . S
N747 C745 1.314 . S
N747 C746 1.279 . S
C748 C750 1.353 . S
C748 N751 1.314 . S
C748 H754 0.930 . S
C749 N751 1.279 . S
C749 C752 1.358 . S
C749 H755 0.930 . S
C750 C748 1.353 . S
C750 C753 1.348 . S
C750 H788 0.929 . S
N751 Li706 1.990 . S
N751 C748 1.314 . S
N751 C749 1.279 . S
C752 C749 1.358 . S
C752 C753 1.356 . S
C752 H789 0.930 . S
C753 C750 1.348 . S
C753 C752 1.356 . S
H754 C748 0.930 . S
H755 C749 0.930 . S
C756 N757 1.300 1_565 S
C756 C758 1.366 . S
C756 H762 0.931 . S
N757 Li707 1.990 . S
N757 C756 1.300 1_545 S
N757 C760 1.279 . S
C758 C756 1.366 . S
C758 C761 1.348 . S
C758 H790 0.929 . S
C759 C760 1.358 . S
C759 C761 1.356 1_545 S
C759 H791 0.930 . S
C760 N757 1.279 . S
C760 C759 1.358 . S
C760 H763 0.930 . S
C761 C758 1.348 . S
C761 C759 1.356 1_565 S
H762 C756 0.931 . S
H763 C760 0.930 . S
O764 Li704 1.956 . S
O764 Li705 1.970 . S
O764 Li706 1.961 . S
O764 C708 1.325 . S
O765 Li704 1.970 . S
O765 Li705 1.956 . S
O765 Li707 1.961 . S
O765 C714 1.325 . S
O766 Li704 1.961 . S
O766 Li706 1.956 . S
O766 Li707 1.970 . S
O766 C736 1.325 . S
O767 Li705 1.961 . S
O767 Li706 1.970 . S
O767 Li707 1.956 . S
O767 C742 1.325 . S
H768 C710 0.929 . S
H769 C711 0.930 . S
H770 C712 0.930 . S
H771 C713 0.930 . S
H772 C715 0.930 . S
H773 C717 0.929 . S
H774 C718 0.930 . S
H775 C719 0.930 . S
H776 C722 0.930 . S
H777 C725 0.929 . S
H778 C730 0.929 . S
H779 C731 0.930 . S
H780 C738 0.929 . S
H781 C739 0.930 . S
H782 C740 0.930 . S
H783 C741 0.930 . S
H784 C743 0.929 . S
H785 C744 0.930 . S
H786 C745 0.930 . S
H787 C746 0.930 . S
H788 C750 0.929 . S
H789 C752 0.930 . S
H790 C758 0.929 . S
H791 C759 0.930 . S
Li792 N809 1.990 . S
Li792 O852 1.956 . S
Li792 O853 1.970 . S
Li792 O854 1.961 . S
Li793 N817 1.990 . S
Li793 O852 1.970 . S
Li793 O853 1.956 . S
Li793 O855 1.961 . S
Li794 N839 1.990 . S
Li794 O852 1.961 . S
Li794 O854 1.956 . S
Li794 O855 1.970 . S
Li795 N845 1.990 . S
Li795 O853 1.961 . S
Li795 O854 1.970 . S
Li795 O855 1.956 . S
C796 C798 1.348 . S
C796 C799 1.356 . S
C796 O852 1.325 . S
N797 C800 1.314 . S
N797 C801 1.279 . S
C798 C796 1.348 . S
C798 C800 1.353 . S
C798 H856 0.929 . S
C799 C796 1.356 . S
C799 C801 1.358 . S
C799 H857 0.930 . S
C800 N797 1.314 . S
C800 C798 1.353 . S
C800 H858 0.930 . S
C801 N797 1.279 . S
C801 C799 1.358 . S
C801 H859 0.930 . S
C802 C805 1.348 . S
C802 C806 1.356 . S
C802 O853 1.325 . S
C803 N804 1.279 . S
C803 C806 1.358 . S
C803 H860 0.930 . S
N804 C803 1.279 . S
N804 C807 1.314 . S
C805 C802 1.348 . S
C805 C807 1.353 . S
C805 H861 0.929 . S
C806 C802 1.356 . S
C806 C803 1.358 . S
C806 H862 0.930 . S
C807 N804 1.314 . S
C807 C805 1.353 . S
C807 H863 0.930 . S
C808 N809 1.314 . S
C808 C813 1.353 . S
C808 H814 0.930 . S
N809 Li792 1.990 . S
N809 C808 1.314 . S
N809 C811 1.279 . S
C810 C811 1.358 . S
C810 C812 1.356 . S
C810 H864 0.930 . S
C811 N809 1.279 . S
C811 C810 1.358 . S
C811 H815 0.930 . S
C812 C810 1.356 . S
C812 C813 1.348 . S
C813 C808 1.353 . S
C813 C812 1.348 . S
C813 H865 0.929 . S
H814 C808 0.930 . S
H815 C811 0.930 . S
C816 N817 1.300 1_565 S
C816 C818 1.366 . S
C816 H822 0.931 . S
N817 Li793 1.990 . S
N817 C816 1.300 1_545 S
N817 C820 1.279 . S
C818 C816 1.366 . S
C818 C821 1.348 . S
C818 H866 0.929 . S
C819 C820 1.358 . S
C819 C821 1.356 1_545 S
C819 H867 0.930 . S
C820 N817 1.279 . S
C820 C819 1.358 . S
C820 H823 0.930 . S
C821 C818 1.348 . S
C821 C819 1.356 1_565 S
H822 C816 0.931 . S
H823 C820 0.930 . S
C824 C826 1.348 . S
C824 C827 1.356 . S
C824 O854 1.325 . S
N825 C828 1.314 . S
N825 C829 1.279 . S
C826 C824 1.348 . S
C826 C828 1.353 . S
C826 H868 0.929 . S
C827 C824 1.356 . S
C827 C829 1.358 . S
C827 H869 0.930 . S
C828 N825 1.314 . S
C828 C826 1.353 . S
C828 H870 0.930 . S
C829 N825 1.279 . S
C829 C827 1.358 . S
C829 H871 0.930 . S
C830 C831 1.348 . S
C830 C832 1.356 . S
C830 O855 1.325 . S
C831 C830 1.348 . S
C831 C833 1.353 . S
C831 H872 0.929 . S
C832 C830 1.356 . S
C832 C834 1.358 1_545 S
C832 H873 0.930 . S
C833 C831 1.353 . S
C833 N835 1.314 1_545 S
C833 H874 0.930 . S
C834 C832 1.358 1_565 S
C834 N835 1.279 . S
C834 H875 0.930 . S
N835 C833 1.314 1_565 S
N835 C834 1.279 . S
C836 C838 1.353 . S
C836 N839 1.314 . S
C836 H842 0.930 . S
C837 N839 1.279 . S
C837 C840 1.358 . S
C837 H843 0.930 . S
C838 C836 1.353 . S
C838 C841 1.348 . S
C838 H876 0.929 . S
N839 Li794 1.990 . S
N839 C836 1.314 . S
N839 C837 1.279 . S
C840 C837 1.358 . S
C840 C841 1.356 . S
C840 H877 0.930 . S
C841 C838 1.348 . S
C841 C840 1.356 . S
H842 C836 0.930 . S
H843 C837 0.930 . S
C844 N845 1.314 . S
C844 C846 1.353 . S
C844 H850 0.930 . S
N845 Li795 1.990 . S
N845 C844 1.314 . S
N845 C848 1.279 . S
C846 C844 1.353 . S
C846 C849 1.348 . S
C846 H878 0.929 . S
C847 C848 1.358 . S
C847 C849 1.356 . S
C847 H879 0.930 . S
C848 N845 1.279 . S
C848 C847 1.358 . S
C848 H851 0.930 . S
C849 C846 1.348 . S
C849 C847 1.356 . S
H850 C844 0.930 . S
H851 C848 0.930 . S
O852 Li792 1.956 . S
O852 Li793 1.970 . S
O852 Li794 1.961 . S
O852 C796 1.325 . S
O853 Li792 1.970 . S
O853 Li793 1.956 . S
O853 Li795 1.961 . S
O853 C802 1.325 . S
O854 Li792 1.961 . S
O854 Li794 1.956 . S
O854 Li795 1.970 . S
O854 C824 1.325 . S
O855 Li793 1.961 . S
O855 Li794 1.970 . S
O855 Li795 1.956 . S
O855 C830 1.325 . S
H856 C798 0.929 . S
H857 C799 0.930 . S
H858 C800 0.930 . S
H859 C801 0.930 . S
H860 C803 0.930 . S
H861 C805 0.929 . S
H862 C806 0.930 . S
H863 C807 0.930 . S
H864 C810 0.930 . S
H865 C813 0.929 . S
H866 C818 0.929 . S
H867 C819 0.930 . S
H868 C826 0.929 . S
H869 C827 0.930 . S
H870 C828 0.930 . S
H871 C829 0.930 . S
H872 C831 0.929 . S
H873 C832 0.930 . S
H874 C833 0.930 . S
H875 C834 0.930 . S
H876 C838 0.929 . S
H877 C840 0.930 . S
H878 C846 0.929 . S
H879 C847 0.930 . S
Li880 N897 1.990 . S
Li880 O940 1.956 . S
Li880 O941 1.970 . S
Li880 O942 1.961 . S
Li881 N905 1.990 . S
Li881 O940 1.970 . S
Li881 O941 1.956 . S
Li881 O943 1.961 . S
Li882 N927 1.990 . S
Li882 O940 1.961 . S
Li882 O942 1.956 . S
Li882 O943 1.970 . S
Li883 N933 1.990 . S
Li883 O941 1.961 . S
Li883 O942 1.970 . S
Li883 O943 1.956 . S
C884 C886 1.348 . S
C884 C887 1.356 . S
C884 O940 1.325 . S
N885 C888 1.314 . S
N885 C889 1.279 . S
C886 C884 1.348 . S
C886 C888 1.353 . S
C886 H944 0.929 . S
C887 C884 1.356 . S
C887 C889 1.358 . S
C887 H945 0.930 . S
C888 N885 1.314 . S
C888 C886 1.353 . S
C888 H946 0.930 . S
C889 N885 1.279 . S
C889 C887 1.358 . S
C889 H947 0.930 . S
C890 C893 1.348 . S
C890 C894 1.356 . S
C890 O941 1.325 . S
C891 N892 1.279 . S
C891 C894 1.358 . S
C891 H948 0.930 . S
N892 C891 1.279 . S
N892 C895 1.314 . S
C893 C890 1.348 . S
C893 C895 1.353 . S
C893 H949 0.929 . S
C894 C890 1.356 . S
C894 C891 1.358 . S
C894 H950 0.930 . S
C895 N892 1.314 . S
C895 C893 1.353 . S
C895 H951 0.930 . S
C896 N897 1.314 . S
C896 C901 1.353 . S
C896 H902 0.930 . S
N897 Li880 1.990 . S
N897 C896 1.314 . S
N897 C899 1.279 . S
C898 C899 1.358 . S
C898 C900 1.356 . S
C898 H952 0.930 . S
C899 N897 1.279 . S
C899 C898 1.358 . S
C899 H903 0.930 . S
C900 C898 1.356 . S
C900 C901 1.348 . S
C901 C896 1.353 . S
C901 C900 1.348 . S
C901 H953 0.929 . S
H902 C896 0.930 . S
H903 C899 0.930 . S
C904 N905 1.314 . S
C904 C906 1.353 . S
C904 H910 0.930 . S
N905 Li881 1.990 . S
N905 C904 1.314 . S
N905 C908 1.279 . S
C906 C904 1.353 . S
C906 C909 1.348 . S
C906 H954 0.929 . S
C907 C908 1.358 . S
C907 C909 1.356 . S
C907 H955 0.930 . S
C908 N905 1.279 . S
C908 C907 1.358 . S
C908 H911 0.930 . S
C909 C906 1.348 . S
C909 C907 1.356 . S
H910 C904 0.930 . S
H911 C908 0.930 . S
C912 C914 1.348 . S
C912 C915 1.356 . S
C912 O942 1.325 . S
N913 C916 1.314 . S
N913 C917 1.279 . S
C914 C912 1.348 . S
C914 C916 1.353 1_565 S
C914 H956 0.929 . S
C915 C912 1.356 . S
C915 C917 1.358 1_565 S
C915 H957 0.930 . S
C916 N913 1.314 . S
C916 C914 1.353 1_545 S
C916 H958 0.930 . S
C917 N913 1.279 . S
C917 C915 1.358 1_545 S
C917 H959 0.930 . S
C918 C919 1.348 . S
C918 C920 1.356 . S
C918 O943 1.325 . S
C919 C918 1.348 . S
C919 C921 1.353 . S
C919 H960 0.929 . S
C920 C918 1.356 . S
C920 C922 1.358 . S
C920 H961 0.930 . S
C921 C919 1.353 . S
C921 N923 1.314 . S
C921 H962 0.930 . S
C922 C920 1.358 . S
C922 N923 1.279 . S
C922 H963 0.930 . S
N923 C921 1.314 . S
N923 C922 1.279 . S
C924 C926 1.353 . S
C924 N927 1.314 . S
C924 H930 0.930 . S
C925 N927 1.279 1_545 S
C925 C928 1.358 . S
C925 H931 0.930 . S
C926 C924 1.353 . S
C926 C929 1.348 1_565 S
C926 H964 0.929 . S
N927 Li882 1.990 . S
N927 C924 1.314 . S
N927 C925 1.279 1_565 S
C928 C925 1.358 . S
C928 C929 1.356 . S
C928 H965 0.930 . S
C929 C926 1.348 1_545 S
C929 C928 1.356 . S
H930 C924 0.930 . S
H931 C925 0.930 . S
C932 N933 1.314 . S
C932 C934 1.353 . S
C932 H938 0.930 . S
N933 Li883 1.990 . S
N933 C932 1.314 . S
N933 C936 1.279 . S
C934 C932 1.353 . S
C934 C937 1.348 . S
C934 H966 0.929 . S
C935 C936 1.358 . S
C935 C937 1.356 . S
C935 H967 0.930 . S
C936 N933 1.279 . S
C936 C935 1.358 . S
C936 H939 0.930 . S
C937 C934 1.348 . S
C937 C935 1.356 . S
H938 C932 0.930 . S
H939 C936 0.930 . S
O940 Li880 1.956 . S
O940 Li881 1.970 . S
O940 Li882 1.961 . S
O940 C884 1.325 . S
O941 Li880 1.970 . S
O941 Li881 1.956 . S
O941 Li883 1.961 . S
O941 C890 1.325 . S
O942 Li880 1.961 . S
O942 Li882 1.956 . S
O942 Li883 1.970 . S
O942 C912 1.325 . S
O943 Li881 1.961 . S
O943 Li882 1.970 . S
O943 Li883 1.956 . S
O943 C918 1.325 . S
H944 C886 0.929 . S
H945 C887 0.930 . S
H946 C888 0.930 . S
H947 C889 0.930 . S
H948 C891 0.930 . S
H949 C893 0.929 . S
H950 C894 0.930 . S
H951 C895 0.930 . S
H952 C898 0.930 . S
H953 C901 0.929 . S
H954 C906 0.929 . S
H955 C907 0.930 . S
H956 C914 0.929 . S
H957 C915 0.930 . S
H958 C916 0.930 . S
H959 C917 0.930 . S
H960 C919 0.929 . S
H961 C920 0.930 . S
H962 C921 0.930 . S
H963 C922 0.930 . S
H964 C926 0.929 . S
H965 C928 0.930 . S
H966 C934 0.929 . S
H967 C935 0.930 . S
Li968 N985 1.990 . S
Li968 O1028 1.956 . S
Li968 O1029 1.970 . S
Li968 O1030 1.961 . S
Li969 N993 1.990 . S
Li969 O1028 1.970 . S
Li969 O1029 1.956 . S
Li969 O1031 1.961 . S
Li970 N1015 1.990 . S
Li970 O1028 1.961 . S
Li970 O1030 1.956 . S
Li970 O1031 1.970 . S
Li971 N1021 1.990 . S
Li971 O1029 1.961 . S
Li971 O1030 1.970 . S
Li971 O1031 1.956 . S
C972 C974 1.348 . S
C972 C975 1.356 . S
C972 O1028 1.325 . S
N973 C976 1.314 . S
N973 C977 1.279 . S
C974 C972 1.348 . S
C974 C976 1.353 1_565 S
C974 H1032 0.929 . S
C975 C972 1.356 . S
C975 C977 1.358 1_565 S
C975 H1033 0.930 . S
C976 N973 1.314 . S
C976 C974 1.353 1_545 S
C976 H1034 0.930 . S
C977 N973 1.279 . S
C977 C975 1.358 1_545 S
C977 H1035 0.930 . S
C978 C981 1.348 . S
C978 C982 1.356 . S
C978 O1029 1.325 . S
C979 N980 1.279 . S
C979 C982 1.358 . S
C979 H1036 0.930 . S
N980 C979 1.279 . S
N980 C983 1.314 . S
C981 C978 1.348 . S
C981 C983 1.353 . S
C981 H1037 0.929 . S
C982 C978 1.356 . S
C982 C979 1.358 . S
C982 H1038 0.930 . S
C983 N980 1.314 . S
C983 C981 1.353 . S
C983 H1039 0.930 . S
C984 N985 1.314 . S
C984 C989 1.353 . S
C984 H990 0.930 . S
N985 Li968 1.990 . S
N985 C984 1.314 . S
N985 C987 1.279 1_565 S
C986 C987 1.358 . S
C986 C988 1.356 . S
C986 H1040 0.930 . S
C987 N985 1.279 1_545 S
C987 C986 1.358 . S
C987 H991 0.930 . S
C988 C986 1.356 . S
C988 C989 1.348 1_545 S
C989 C984 1.353 . S
C989 C988 1.348 1_565 S
C989 H1041 0.929 . S
H990 C984 0.930 . S
H991 C987 0.930 . S
C992 N993 1.314 . S
C992 C994 1.353 . S
C992 H998 0.930 . S
N993 Li969 1.990 . S
N993 C992 1.314 . S
N993 C996 1.279 . S
C994 C992 1.353 . S
C994 C997 1.348 . S
C994 H1042 0.929 . S
C995 C996 1.358 . S
C995 C997 1.356 . S
C995 H1043 0.930 . S
C996 N993 1.279 . S
C996 C995 1.358 . S
C996 H999 0.930 . S
C997 C994 1.348 . S
C997 C995 1.356 . S
H998 C992 0.930 . S
H999 C996 0.930 . S
C1000 C1002 1.348 . S
C1000 C1003 1.356 . S
C1000 O1030 1.325 . S
N1001 C1004 1.314 . S
N1001 C1005 1.279 . S
C1002 C1000 1.348 . S
C1002 C1004 1.353 . S
C1002 H1044 0.929 . S
C1003 C1000 1.356 . S
C1003 C1005 1.358 . S
C1003 H1045 0.930 . S
C1004 N1001 1.314 . S
C1004 C1002 1.353 . S
C1004 H1046 0.930 . S
C1005 N1001 1.279 . S
C1005 C1003 1.358 . S
C1005 H1047 0.930 . S
C1006 C1007 1.348 . S
C1006 C1008 1.356 . S
C1006 O1031 1.325 . S
C1007 C1006 1.348 . S
C1007 C1009 1.353 . S
C1007 H1048 0.929 . S
C1008 C1006 1.356 . S
C1008 C1010 1.358 . S
C1008 H1049 0.930 . S
C1009 C1007 1.353 . S
C1009 N1011 1.314 . S
C1009 H1050 0.930 . S
C1010 C1008 1.358 . S
C1010 N1011 1.279 . S
C1010 H1051 0.930 . S
N1011 C1009 1.314 . S
N1011 C1010 1.279 . S
C1012 C1014 1.353 . S
C1012 N1015 1.314 . S
C1012 H1018 0.930 . S
C1013 N1015 1.279 . S
C1013 C1016 1.358 . S
C1013 H1019 0.930 . S
C1014 C1012 1.353 . S
C1014 C1017 1.348 . S
C1014 H1052 0.929 . S
N1015 Li970 1.990 . S
N1015 C1012 1.314 . S
N1015 C1013 1.279 . S
C1016 C1013 1.358 . S
C1016 C1017 1.356 . S
C1016 H1053 0.930 . S
C1017 C1014 1.348 . S
C1017 C1016 1.356 . S
H1018 C1012 0.930 . S
H1019 C1013 0.930 . S
C1020 N1021 1.314 . S
C1020 C1022 1.353 . S
C1020 H1026 0.930 . S
N1021 Li971 1.990 . S
N1021 C1020 1.314 . S
N1021 C1024 1.279 . S
C1022 C1020 1.353 . S
C1022 C1025 1.348 . S
C1022 H1054 0.929 . S
C1023 C1024 1.358 . S
C1023 C1025 1.356 . S
C1023 H1055 0.930 . S
C1024 N1021 1.279 . S
C1024 C1023 1.358 . S
C1024 H1027 0.930 . S
C1025 C1022 1.348 . S
C1025 C1023 1.356 . S
H1026 C1020 0.930 . S
H1027 C1024 0.930 . S
O1028 Li968 1.956 . S
O1028 Li969 1.970 . S
O1028 Li970 1.961 . S
O1028 C972 1.325 . S
O1029 Li968 1.970 . S
O1029 Li969 1.956 . S
O1029 Li971 1.961 . S
O1029 C978 1.325 . S
O1030 Li968 1.961 . S
O1030 Li970 1.956 . S
O1030 Li971 1.970 . S
O1030 C1000 1.325 . S
O1031 Li969 1.961 . S
O1031 Li970 1.970 . S
O1031 Li971 1.956 . S
O1031 C1006 1.325 . S
H1032 C974 0.929 . S
H1033 C975 0.930 . S
H1034 C976 0.930 . S
H1035 C977 0.930 . S
H1036 C979 0.930 . S
H1037 C981 0.929 . S
H1038 C982 0.930 . S
H1039 C983 0.930 . S
H1040 C986 0.930 . S
H1041 C989 0.929 . S
H1042 C994 0.929 . S
H1043 C995 0.930 . S
H1044 C1002 0.929 . S
H1045 C1003 0.930 . S
H1046 C1004 0.930 . S
H1047 C1005 0.930 . S
H1048 C1007 0.929 . S
H1049 C1008 0.930 . S
H1050 C1009 0.930 . S
H1051 C1010 0.930 . S
H1052 C1014 0.929 . S
H1053 C1016 0.930 . S
H1054 C1022 0.929 . S
H1055 C1023 0.930 . S
Li1056 N1073 1.990 . S
Li1056 O1116 1.956 . S
Li1056 O1117 1.970 . S
Li1056 O1118 1.961 . S
Li1057 N1081 1.990 . S
Li1057 O1116 1.970 . S
Li1057 O1117 1.956 . S
Li1057 O1119 1.961 . S
Li1058 N1103 1.990 . S
Li1058 O1116 1.961 . S
Li1058 O1118 1.956 . S
Li1058 O1119 1.970 . S
Li1059 N1109 1.990 . S
Li1059 O1117 1.961 . S
Li1059 O1118 1.970 . S
Li1059 O1119 1.956 . S
C1060 C1062 1.348 . S
C1060 C1063 1.356 . S
C1060 O1116 1.325 . S
N1061 C1064 1.314 . S
N1061 C1065 1.279 . S
C1062 C1060 1.348 . S
C1062 C1064 1.353 . S
C1062 H1120 0.929 . S
C1063 C1060 1.356 . S
C1063 C1065 1.358 . S
C1063 H1121 0.930 . S
C1064 N1061 1.314 . S
C1064 C1062 1.353 . S
C1064 H1122 0.930 . S
C1065 N1061 1.279 . S
C1065 C1063 1.358 . S
C1065 H1123 0.930 . S
C1066 C1069 1.348 . S
C1066 C1070 1.356 . S
C1066 O1117 1.325 . S
C1067 N1068 1.279 . S
C1067 C1070 1.358 . S
C1067 H1124 0.930 . S
N1068 C1067 1.279 . S
N1068 C1071 1.314 . S
C1069 C1066 1.348 . S
C1069 C1071 1.353 . S
C1069 H1125 0.929 . S
C1070 C1066 1.356 . S
C1070 C1067 1.358 . S
C1070 H1126 0.930 . S
C1071 N1068 1.314 . S
C1071 C1069 1.353 . S
C1071 H1127 0.930 . S
C1072 N1073 1.314 . S
C1072 C1077 1.353 . S
C1072 H1078 0.930 . S
N1073 Li1056 1.990 . S
N1073 C1072 1.314 . S
N1073 C1075 1.279 . S
C1074 C1075 1.358 . S
C1074 C1076 1.356 . S
C1074 H1128 0.930 . S
C1075 N1073 1.279 . S
C1075 C1074 1.358 . S
C1075 H1079 0.930 . S
C1076 C1074 1.356 . S
C1076 C1077 1.348 . S
C1077 C1072 1.353 . S
C1077 C1076 1.348 . S
C1077 H1129 0.929 . S
H1078 C1072 0.930 . S
H1079 C1075 0.930 . S
C1080 N1081 1.314 . S
C1080 C1082 1.353 . S
C1080 H1086 0.930 . S
N1081 Li1057 1.990 . S
N1081 C1080 1.314 . S
N1081 C1084 1.279 . S
C1082 C1080 1.353 . S
C1082 C1085 1.348 . S
C1082 H1130 0.929 . S
C1083 C1084 1.358 . S
C1083 C1085 1.356 . S
C1083 H1131 0.930 . S
C1084 N1081 1.279 . S
C1084 C1083 1.358 . S
C1084 H1087 0.930 . S
C1085 C1082 1.348 . S
C1085 C1083 1.356 . S
H1086 C1080 0.930 . S
H1087 C1084 0.930 . S
C1088 C1090 1.348 . S
C1088 C1091 1.356 . S
C1088 O1118 1.325 . S
N1089 C1092 1.314 . S
N1089 C1093 1.279 . S
C1090 C1088 1.348 . S
C1090 C1092 1.353 . S
C1090 H1132 0.929 . S
C1091 C1088 1.356 . S
C1091 C1093 1.358 . S
C1091 H1133 0.930 . S
C1092 N1089 1.314 . S
C1092 C1090 1.353 . S
C1092 H1134 0.930 . S
C1093 N1089 1.279 . S
C1093 C1091 1.358 . S
C1093 H1135 0.930 . S
C1094 C1095 1.348 . S
C1094 C1096 1.356 . S
C1094 O1119 1.325 . S
C1095 C1094 1.348 . S
C1095 C1097 1.353 . S
C1095 H1136 0.929 . S
C1096 C1094 1.356 . S
C1096 C1098 1.358 . S
C1096 H1137 0.930 . S
C1097 C1095 1.353 . S
C1097 N1099 1.314 . S
C1097 H1138 0.930 . S
C1098 C1096 1.358 . S
C1098 N1099 1.279 . S
C1098 H1139 0.930 . S
N1099 C1097 1.314 . S
N1099 C1098 1.279 . S
C1100 C1102 1.353 . S
C1100 N1103 1.314 . S
C1100 H1106 0.930 . S
C1101 N1103 1.279 . S
C1101 C1104 1.358 . S
C1101 H1107 0.930 . S
C1102 C1100 1.353 . S
C1102 C1105 1.348 . S
C1102 H1140 0.929 . S
N1103 Li1058 1.990 . S
N1103 C1100 1.314 . S
N1103 C1101 1.279 . S
C1104 C1101 1.358 . S
C1104 C1105 1.356 . S
C1104 H1141 0.930 . S
C1105 C1102 1.348 . S
C1105 C1104 1.356 . S
H1106 C1100 0.930 . S
H1107 C1101 0.930 . S
C1108 N1109 1.314 . S
C1108 C1110 1.353 . S
C1108 H1114 0.930 . S
N1109 Li1059 1.990 . S
N1109 C1108 1.314 . S
N1109 C1112 1.279 . S
C1110 C1108 1.353 . S
C1110 C1113 1.348 . S
C1110 H1142 0.929 . S
C1111 C1112 1.358 . S
C1111 C1113 1.356 . S
C1111 H1143 0.930 . S
C1112 N1109 1.279 . S
C1112 C1111 1.358 . S
C1112 H1115 0.930 . S
C1113 C1110 1.348 . S
C1113 C1111 1.356 . S
H1114 C1108 0.930 . S
H1115 C1112 0.930 . S
O1116 Li1056 1.956 . S
O1116 Li1057 1.970 . S
O1116 Li1058 1.961 . S
O1116 C1060 1.325 . S
O1117 Li1056 1.970 . S
O1117 Li1057 1.956 . S
O1117 Li1059 1.961 . S
O1117 C1066 1.325 . S
O1118 Li1056 1.961 . S
O1118 Li1058 1.956 . S
O1118 Li1059 1.970 . S
O1118 C1088 1.325 . S
O1119 Li1057 1.961 . S
O1119 Li1058 1.970 . S
O1119 Li1059 1.956 . S
O1119 C1094 1.325 . S
H1120 C1062 0.929 . S
H1121 C1063 0.930 . S
H1122 C1064 0.930 . S
H1123 C1065 0.930 . S
H1124 C1067 0.930 . S
H1125 C1069 0.929 . S
H1126 C1070 0.930 . S
H1127 C1071 0.930 . S
H1128 C1074 0.930 . S
H1129 C1077 0.929 . S
H1130 C1082 0.929 . S
H1131 C1083 0.930 . S
H1132 C1090 0.929 . S
H1133 C1091 0.930 . S
H1134 C1092 0.930 . S
H1135 C1093 0.930 . S
H1136 C1095 0.929 . S
H1137 C1096 0.930 . S
H1138 C1097 0.930 . S
H1139 C1098 0.930 . S
H1140 C1102 0.929 . S
H1141 C1104 0.930 . S
H1142 C1110 0.929 . S
H1143 C1111 0.930 . S
Li1144 N1161 1.990 . S
Li1144 O1204 1.956 . S
Li1144 O1205 1.970 . S
Li1144 O1206 1.961 . S
Li1145 N1169 1.990 . S
Li1145 O1204 1.970 . S
Li1145 O1205 1.956 . S
Li1145 O1207 1.961 . S
Li1146 N1191 1.990 . S
Li1146 O1204 1.961 . S
Li1146 O1206 1.956 . S
Li1146 O1207 1.970 . S
Li1147 N1197 1.990 . S
Li1147 O1205 1.961 . S
Li1147 O1206 1.970 . S
Li1147 O1207 1.956 . S
C1148 C1150 1.348 . S
C1148 C1151 1.356 . S
C1148 O1204 1.325 . S
N1149 C1152 1.314 . S
N1149 C1153 1.279 . S
C1150 C1148 1.348 . S
C1150 C1152 1.353 . S
C1150 H1208 0.929 . S
C1151 C1148 1.356 . S
C1151 C1153 1.358 . S
C1151 H1209 0.930 . S
C1152 N1149 1.314 . S
C1152 C1150 1.353 . S
C1152 H1210 0.930 . S
C1153 N1149 1.279 . S
C1153 C1151 1.358 . S
C1153 H1211 0.930 . S
C1154 C1157 1.348 . S
C1154 C1158 1.356 . S
C1154 O1205 1.325 . S
C1155 N1156 1.279 . S
C1155 C1158 1.358 . S
C1155 H1212 0.930 . S
N1156 C1155 1.279 . S
N1156 C1159 1.314 . S
C1157 C1154 1.348 . S
C1157 C1159 1.353 . S
C1157 H1213 0.929 . S
C1158 C1154 1.356 . S
C1158 C1155 1.358 . S
C1158 H1214 0.930 . S
C1159 N1156 1.314 . S
C1159 C1157 1.353 . S
C1159 H1215 0.930 . S
C1160 N1161 1.314 . S
C1160 C1165 1.353 . S
C1160 H1166 0.930 . S
N1161 Li1144 1.990 . S
N1161 C1160 1.314 . S
N1161 C1163 1.279 . S
C1162 C1163 1.358 . S
C1162 C1164 1.356 . S
C1162 H1216 0.930 . S
C1163 N1161 1.279 . S
C1163 C1162 1.358 . S
C1163 H1167 0.930 . S
C1164 C1162 1.356 . S
C1164 C1165 1.348 . S
C1165 C1160 1.353 . S
C1165 C1164 1.348 . S
C1165 H1217 0.929 . S
H1166 C1160 0.930 . S
H1167 C1163 0.930 . S
C1168 N1169 1.314 . S
C1168 C1170 1.353 . S
C1168 H1174 0.930 . S
N1169 Li1145 1.990 . S
N1169 C1168 1.314 . S
N1169 C1172 1.279 . S
C1170 C1168 1.353 . S
C1170 C1173 1.348 . S
C1170 H1218 0.929 . S
C1171 C1172 1.358 . S
C1171 C1173 1.356 . S
C1171 H1219 0.930 . S
C1172 N1169 1.279 . S
C1172 C1171 1.358 . S
C1172 H1175 0.930 . S
C1173 C1170 1.348 . S
C1173 C1171 1.356 . S
H1174 C1168 0.930 . S
H1175 C1172 0.930 . S
C1176 C1178 1.348 . S
C1176 C1179 1.356 . S
C1176 O1206 1.325 . S
N1177 C1180 1.314 . S
N1177 C1181 1.279 . S
C1178 C1176 1.348 . S
C1178 C1180 1.353 . S
C1178 H1220 0.929 . S
C1179 C1176 1.356 . S
C1179 C1181 1.358 . S
C1179 H1221 0.930 . S
C1180 N1177 1.314 . S
C1180 C1178 1.353 . S
C1180 H1222 0.930 . S
C1181 N1177 1.279 . S
C1181 C1179 1.358 . S
C1181 H1223 0.930 . S
C1182 C1183 1.348 . S
C1182 C1184 1.356 . S
C1182 O1207 1.325 . S
C1183 C1182 1.348 . S
C1183 C1185 1.353 . S
C1183 H1224 0.929 . S
C1184 C1182 1.356 . S
C1184 C1186 1.358 . S
C1184 H1225 0.930 . S
C1185 C1183 1.353 . S
C1185 N1187 1.314 . S
C1185 H1226 0.930 . S
C1186 C1184 1.358 . S
C1186 N1187 1.279 . S
C1186 H1227 0.930 . S
N1187 C1185 1.314 . S
N1187 C1186 1.279 . S
C1188 C1190 1.353 . S
C1188 N1191 1.314 . S
C1188 H1194 0.930 . S
C1189 N1191 1.279 . S
C1189 C1192 1.358 . S
C1189 H1195 0.930 . S
C1190 C1188 1.353 . S
C1190 C1193 1.348 . S
C1190 H1228 0.929 . S
N1191 Li1146 1.990 . S
N1191 C1188 1.314 . S
N1191 C1189 1.279 . S
C1192 C1189 1.358 . S
C1192 C1193 1.356 . S
C1192 H1229 0.930 . S
C1193 C1190 1.348 . S
C1193 C1192 1.356 . S
H1194 C1188 0.930 . S
H1195 C1189 0.930 . S
C1196 N1197 1.314 . S
C1196 C1198 1.353 . S
C1196 H1202 0.930 . S
N1197 Li1147 1.990 . S
N1197 C1196 1.314 . S
N1197 C1200 1.279 . S
C1198 C1196 1.353 . S
C1198 C1201 1.348 . S
C1198 H1230 0.929 . S
C1199 C1200 1.358 . S
C1199 C1201 1.356 . S
C1199 H1231 0.930 . S
C1200 N1197 1.279 . S
C1200 C1199 1.358 . S
C1200 H1203 0.930 . S
C1201 C1198 1.348 . S
C1201 C1199 1.356 . S
H1202 C1196 0.930 . S
H1203 C1200 0.930 . S
O1204 Li1144 1.956 . S
O1204 Li1145 1.970 . S
O1204 Li1146 1.961 . S
O1204 C1148 1.325 . S
O1205 Li1144 1.970 . S
O1205 Li1145 1.956 . S
O1205 Li1147 1.961 . S
O1205 C1154 1.325 . S
O1206 Li1144 1.961 . S
O1206 Li1146 1.956 . S
O1206 Li1147 1.970 . S
O1206 C1176 1.325 . S
O1207 Li1145 1.961 . S
O1207 Li1146 1.970 . S
O1207 Li1147 1.956 . S
O1207 C1182 1.325 . S
H1208 C1150 0.929 . S
H1209 C1151 0.930 . S
H1210 C1152 0.930 . S
H1211 C1153 0.930 . S
H1212 C1155 0.930 . S
H1213 C1157 0.929 . S
H1214 C1158 0.930 . S
H1215 C1159 0.930 . S
H1216 C1162 0.930 . S
H1217 C1165 0.929 . S
H1218 C1170 0.929 . S
H1219 C1171 0.930 . S
H1220 C1178 0.929 . S
H1221 C1179 0.930 . S
H1222 C1180 0.930 . S
H1223 C1181 0.930 . S
H1224 C1183 0.929 . S
H1225 C1184 0.930 . S
H1226 C1185 0.930 . S
H1227 C1186 0.930 . S
H1228 C1190 0.929 . S
H1229 C1192 0.930 . S
H1230 C1198 0.929 . S
H1231 C1199 0.930 . S
Li1232 N1249 1.990 . S
Li1232 O1292 1.956 . S
Li1232 O1293 1.970 . S
Li1232 O1294 1.961 . S
Li1233 N1257 1.990 . S
Li1233 O1292 1.970 . S
Li1233 O1293 1.956 . S
Li1233 O1295 1.961 . S
Li1234 N1279 1.990 . S
Li1234 O1292 1.961 . S
Li1234 O1294 1.956 . S
Li1234 O1295 1.970 . S
Li1235 N1285 1.990 . S
Li1235 O1293 1.961 . S
Li1235 O1294 1.970 . S
Li1235 O1295 1.956 . S
C1236 C1238 1.348 . S
C1236 C1239 1.356 . S
C1236 O1292 1.325 . S
N1237 C1240 1.314 . S
N1237 C1241 1.279 . S
C1238 C1236 1.348 . S
C1238 C1240 1.353 . S
C1238 H1296 0.929 . S
C1239 C1236 1.356 . S
C1239 C1241 1.358 . S
C1239 H1297 0.930 . S
C1240 N1237 1.314 . S
C1240 C1238 1.353 . S
C1240 H1298 0.930 . S
C1241 N1237 1.279 . S
C1241 C1239 1.358 . S
C1241 H1299 0.930 . S
C1242 C1245 1.348 . S
C1242 C1246 1.356 . S
C1242 O1293 1.325 . S
C1243 N1244 1.279 . S
C1243 C1246 1.358 . S
C1243 H1300 0.930 . S
N1244 C1243 1.279 . S
N1244 C1247 1.314 . S
C1245 C1242 1.348 . S
C1245 C1247 1.353 . S
C1245 H1301 0.929 . S
C1246 C1242 1.356 . S
C1246 C1243 1.358 . S
C1246 H1302 0.930 . S
C1247 N1244 1.314 . S
C1247 C1245 1.353 . S
C1247 H1303 0.930 . S
C1248 N1249 1.314 . S
C1248 C1253 1.353 . S
C1248 H1254 0.930 . S
N1249 Li1232 1.990 . S
N1249 C1248 1.314 . S
N1249 C1251 1.279 . S
C1250 C1251 1.358 . S
C1250 C1252 1.356 . S
C1250 H1304 0.930 . S
C1251 N1249 1.279 . S
C1251 C1250 1.358 . S
C1251 H1255 0.930 . S
C1252 C1250 1.356 . S
C1252 C1253 1.348 . S
C1253 C1248 1.353 . S
C1253 C1252 1.348 . S
C1253 H1305 0.929 . S
H1254 C1248 0.930 . S
H1255 C1251 0.930 . S
C1256 N1257 1.314 . S
C1256 C1258 1.353 . S
C1256 H1262 0.930 . S
N1257 Li1233 1.990 . S
N1257 C1256 1.314 . S
N1257 C1260 1.279 . S
C1258 C1256 1.353 . S
C1258 C1261 1.348 . S
C1258 H1306 0.929 . S
C1259 C1260 1.358 . S
C1259 C1261 1.356 . S
C1259 H1307 0.930 . S
C1260 N1257 1.279 . S
C1260 C1259 1.358 . S
C1260 H1263 0.930 . S
C1261 C1258 1.348 . S
C1261 C1259 1.356 . S
H1262 C1256 0.930 . S
H1263 C1260 0.930 . S
C1264 C1266 1.348 . S
C1264 C1267 1.356 . S
C1264 O1294 1.325 . S
N1265 C1268 1.314 . S
N1265 C1269 1.279 . S
C1266 C1264 1.348 . S
C1266 C1268 1.353 . S
C1266 H1308 0.929 . S
C1267 C1264 1.356 . S
C1267 C1269 1.358 . S
C1267 H1309 0.930 . S
C1268 N1265 1.314 . S
C1268 C1266 1.353 . S
C1268 H1310 0.930 . S
C1269 N1265 1.279 . S
C1269 C1267 1.358 . S
C1269 H1311 0.930 . S
C1270 C1271 1.348 . S
C1270 C1272 1.356 . S
C1270 O1295 1.325 . S
C1271 C1270 1.348 . S
C1271 C1273 1.353 . S
C1271 H1312 0.929 . S
C1272 C1270 1.356 . S
C1272 C1274 1.358 . S
C1272 H1313 0.930 . S
C1273 C1271 1.353 . S
C1273 N1275 1.314 . S
C1273 H1314 0.930 . S
C1274 C1272 1.358 . S
C1274 N1275 1.279 . S
C1274 H1315 0.930 . S
N1275 C1273 1.314 . S
N1275 C1274 1.279 . S
C1276 C1278 1.353 . S
C1276 N1279 1.314 . S
C1276 H1282 0.930 . S
C1277 N1279 1.279 . S
C1277 C1280 1.358 . S
C1277 H1283 0.930 . S
C1278 C1276 1.353 . S
C1278 C1281 1.348 . S
C1278 H1316 0.929 . S
N1279 Li1234 1.990 . S
N1279 C1276 1.314 . S
N1279 C1277 1.279 . S
C1280 C1277 1.358 . S
C1280 C1281 1.356 . S
C1280 H1317 0.930 . S
C1281 C1278 1.348 . S
C1281 C1280 1.356 . S
H1282 C1276 0.930 . S
H1283 C1277 0.930 . S
C1284 N1285 1.314 . S
C1284 C1286 1.353 . S
C1284 H1290 0.930 . S
N1285 Li1235 1.990 . S
N1285 C1284 1.314 . S
N1285 C1288 1.279 . S
C1286 C1284 1.353 . S
C1286 C1289 1.348 . S
C1286 H1318 0.929 . S
C1287 C1288 1.358 . S
C1287 C1289 1.356 . S
C1287 H1319 0.930 . S
C1288 N1285 1.279 . S
C1288 C1287 1.358 . S
C1288 H1291 0.930 . S
C1289 C1286 1.348 . S
C1289 C1287 1.356 . S
H1290 C1284 0.930 . S
H1291 C1288 0.930 . S
O1292 Li1232 1.956 . S
O1292 Li1233 1.970 . S
O1292 Li1234 1.961 . S
O1292 C1236 1.325 . S
O1293 Li1232 1.970 . S
O1293 Li1233 1.956 . S
O1293 Li1235 1.961 . S
O1293 C1242 1.325 . S
O1294 Li1232 1.961 . S
O1294 Li1234 1.956 . S
O1294 Li1235 1.970 . S
O1294 C1264 1.325 . S
O1295 Li1233 1.961 . S
O1295 Li1234 1.970 . S
O1295 Li1235 1.956 . S
O1295 C1270 1.325 . S
H1296 C1238 0.929 . S
H1297 C1239 0.930 . S
H1298 C1240 0.930 . S
H1299 C1241 0.930 . S
H1300 C1243 0.930 . S
H1301 C1245 0.929 . S
H1302 C1246 0.930 . S
H1303 C1247 0.930 . S
H1304 C1250 0.930 . S
H1305 C1253 0.929 . S
H1306 C1258 0.929 . S
H1307 C1259 0.930 . S
H1308 C1266 0.929 . S
H1309 C1267 0.930 . S
H1310 C1268 0.930 . S
H1311 C1269 0.930 . S
H1312 C1271 0.929 . S
H1313 C1272 0.930 . S
H1314 C1273 0.930 . S
H1315 C1274 0.930 . S
H1316 C1278 0.929 . S
H1317 C1280 0.930 . S
H1318 C1286 0.929 . S
H1319 C1287 0.930 . S
Li1320 N1337 1.990 . S
Li1320 O1380 1.956 . S
Li1320 O1381 1.970 . S
Li1320 O1382 1.961 . S
Li1321 N1345 1.990 . S
Li1321 O1380 1.970 . S
Li1321 O1381 1.956 . S
Li1321 O1383 1.961 . S
Li1322 N1367 1.990 . S
Li1322 O1380 1.961 . S
Li1322 O1382 1.956 . S
Li1322 O1383 1.970 . S
Li1323 N1373 1.990 . S
Li1323 O1381 1.961 . S
Li1323 O1382 1.970 . S
Li1323 O1383 1.956 . S
C1324 C1326 1.348 . S
C1324 C1327 1.356 . S
C1324 O1380 1.325 . S
N1325 C1328 1.314 . S
N1325 C1329 1.279 . S
C1326 C1324 1.348 . S
C1326 C1328 1.353 . S
C1326 H1384 0.929 . S
C1327 C1324 1.356 . S
C1327 C1329 1.358 . S
C1327 H1385 0.930 . S
C1328 N1325 1.314 . S
C1328 C1326 1.353 . S
C1328 H1386 0.930 . S
C1329 N1325 1.279 . S
C1329 C1327 1.358 . S
C1329 H1387 0.930 . S
C1330 C1333 1.348 . S
C1330 C1334 1.356 . S
C1330 O1381 1.325 . S
C1331 N1332 1.279 . S
C1331 C1334 1.358 . S
C1331 H1388 0.930 . S
N1332 C1331 1.279 . S
N1332 C1335 1.314 . S
C1333 C1330 1.348 . S
C1333 C1335 1.353 . S
C1333 H1389 0.929 . S
C1334 C1330 1.356 . S
C1334 C1331 1.358 . S
C1334 H1390 0.930 . S
C1335 N1332 1.314 . S
C1335 C1333 1.353 . S
C1335 H1391 0.930 . S
C1336 N1337 1.314 . S
C1336 C1341 1.353 . S
C1336 H1342 0.930 . S
N1337 Li1320 1.990 . S
N1337 C1336 1.314 . S
N1337 C1339 1.279 . S
C1338 C1339 1.358 . S
C1338 C1340 1.356 . S
C1338 H1392 0.930 . S
C1339 N1337 1.279 . S
C1339 C1338 1.358 . S
C1339 H1343 0.930 . S
C1340 C1338 1.356 . S
C1340 C1341 1.348 . S
C1341 C1336 1.353 . S
C1341 C1340 1.348 . S
C1341 H1393 0.929 . S
H1342 C1336 0.930 . S
H1343 C1339 0.930 . S
C1344 N1345 1.314 . S
C1344 C1346 1.353 . S
C1344 H1350 0.930 . S
N1345 Li1321 1.990 . S
N1345 C1344 1.314 . S
N1345 C1348 1.279 . S
C1346 C1344 1.353 . S
C1346 C1349 1.348 . S
C1346 H1394 0.929 . S
C1347 C1348 1.358 . S
C1347 C1349 1.356 . S
C1347 H1395 0.930 . S
C1348 N1345 1.279 . S
C1348 C1347 1.358 . S
C1348 H1351 0.930 . S
C1349 C1346 1.348 . S
C1349 C1347 1.356 . S
H1350 C1344 0.930 . S
H1351 C1348 0.930 . S
C1352 C1354 1.348 . S
C1352 C1355 1.356 . S
C1352 O1382 1.325 . S
N1353 C1356 1.314 . S
N1353 C1357 1.279 . S
C1354 C1352 1.348 . S
C1354 C1356 1.353 . S
C1354 H1396 0.929 . S
C1355 C1352 1.356 . S
C1355 C1357 1.358 . S
C1355 H1397 0.930 . S
C1356 N1353 1.314 . S
C1356 C1354 1.353 . S
C1356 H1398 0.930 . S
C1357 N1353 1.279 . S
C1357 C1355 1.358 . S
C1357 H1399 0.930 . S
C1358 C1359 1.348 . S
C1358 C1360 1.356 . S
C1358 O1383 1.325 . S
C1359 C1358 1.348 . S
C1359 C1361 1.353 . S
C1359 H1400 0.929 . S
C1360 C1358 1.356 . S
C1360 C1362 1.358 . S
C1360 H1401 0.930 . S
C1361 C1359 1.353 . S
C1361 N1363 1.314 . S
C1361 H1402 0.930 . S
C1362 C1360 1.358 . S
C1362 N1363 1.279 . S
C1362 H1403 0.930 . S
N1363 C1361 1.314 . S
N1363 C1362 1.279 . S
C1364 C1366 1.353 . S
C1364 N1367 1.314 . S
C1364 H1370 0.930 . S
C1365 N1367 1.279 . S
C1365 C1368 1.358 . S
C1365 H1371 0.930 . S
C1366 C1364 1.353 . S
C1366 C1369 1.348 . S
C1366 H1404 0.929 . S
N1367 Li1322 1.990 . S
N1367 C1364 1.314 . S
N1367 C1365 1.279 . S
C1368 C1365 1.358 . S
C1368 C1369 1.356 . S
C1368 H1405 0.930 . S
C1369 C1366 1.348 . S
C1369 C1368 1.356 . S
H1370 C1364 0.930 . S
H1371 C1365 0.930 . S
C1372 N1373 1.314 . S
C1372 C1374 1.353 . S
C1372 H1378 0.930 . S
N1373 Li1323 1.990 . S
N1373 C1372 1.314 . S
N1373 C1376 1.279 . S
C1374 C1372 1.353 . S
C1374 C1377 1.348 . S
C1374 H1406 0.929 . S
C1375 C1376 1.358 . S
C1375 C1377 1.356 . S
C1375 H1407 0.930 . S
C1376 N1373 1.279 . S
C1376 C1375 1.358 . S
C1376 H1379 0.930 . S
C1377 C1374 1.348 . S
C1377 C1375 1.356 . S
H1378 C1372 0.930 . S
H1379 C1376 0.930 . S
O1380 Li1320 1.956 . S
O1380 Li1321 1.970 . S
O1380 Li1322 1.961 . S
O1380 C1324 1.325 . S
O1381 Li1320 1.970 . S
O1381 Li1321 1.956 . S
O1381 Li1323 1.961 . S
O1381 C1330 1.325 . S
O1382 Li1320 1.961 . S
O1382 Li1322 1.956 . S
O1382 Li1323 1.970 . S
O1382 C1352 1.325 . S
O1383 Li1321 1.961 . S
O1383 Li1322 1.970 . S
O1383 Li1323 1.956 . S
O1383 C1358 1.325 . S
H1384 C1326 0.929 . S
H1385 C1327 0.930 . S
H1386 C1328 0.930 . S
H1387 C1329 0.930 . S
H1388 C1331 0.930 . S
H1389 C1333 0.929 . S
H1390 C1334 0.930 . S
H1391 C1335 0.930 . S
H1392 C1338 0.930 . S
H1393 C1341 0.929 . S
H1394 C1346 0.929 . S
H1395 C1347 0.930 . S
H1396 C1354 0.929 . S
H1397 C1355 0.930 . S
H1398 C1356 0.930 . S
H1399 C1357 0.930 . S
H1400 C1359 0.929 . S
H1401 C1360 0.930 . S
H1402 C1361 0.930 . S
H1403 C1362 0.930 . S
H1404 C1366 0.929 . S
H1405 C1368 0.930 . S
H1406 C1374 0.929 . S
H1407 C1375 0.930 . S
H1408 C1416 0.950 . S
H1409 C1421 0.950 . S
H1410 C1418 0.950 . S
H1411 C1420 0.950 . S
H1412 C1422 0.950 . S
H1413 C1424 0.950 . S
H1414 C1426 0.950 . S
H1415 C1427 0.950 . S
C1416 H1408 0.950 . S
C1416 C1417 1.386 . S
C1416 C1418 1.391 . S
C1417 C1416 1.386 . S
C1417 C1421 1.393 . S
C1418 H1410 0.950 . S
C1418 C1416 1.391 . S
C1418 C1419 1.400 . S
C1419 C1418 1.400 . S
C1419 C1420 1.398 . S
C1419 C1425 1.491 . S
C1420 H1411 0.950 . S
C1420 C1419 1.398 . S
C1420 C1421 1.391 . S
C1421 H1409 0.950 . S
C1421 C1417 1.393 . S
C1421 C1420 1.391 . S
C1422 H1412 0.950 . S
C1422 C1423 1.386 . S
C1422 C1424 1.391 . S
C1423 C1422 1.386 . S
C1423 C1427 1.393 . S
C1424 H1413 0.950 . S
C1424 C1422 1.391 . S
C1424 C1425 1.400 . S
C1425 C1419 1.491 . S
C1425 C1424 1.400 . S
C1425 C1426 1.398 . S
C1426 H1414 0.950 . S
C1426 C1425 1.398 . S
C1426 C1427 1.391 . S
C1427 H1415 0.950 . S
C1427 C1423 1.393 . S
C1427 C1426 1.391 . S
H1428 C1436 0.950 . S
H1429 C1441 0.950 . S
H1430 C1438 0.950 1_545 S
H1431 C1440 0.950 . S
H1432 C1442 0.950 . S
H1433 C1444 0.950 1_565 S
H1434 C1446 0.950 . S
H1435 C1447 0.950 . S
C1436 H1428 0.950 . S
C1436 C1437 1.386 . S
C1436 C1438 1.391 . S
C1437 C1436 1.386 . S
C1437 C1441 1.393 . S
C1438 H1430 0.950 1_565 S
C1438 C1436 1.391 . S
C1438 C1439 1.400 . S
C1439 C1438 1.400 . S
C1439 C1440 1.398 . S
C1439 C1445 1.491 1_665 S
C1440 H1431 0.950 . S
C1440 C1439 1.398 . S
C1440 C1441 1.391 . S
C1441 H1429 0.950 . S
C1441 C1437 1.393 . S
C1441 C1440 1.391 . S
C1442 H1432 0.950 . S
C1442 C1443 1.386 . S
C1442 C1444 1.391 . S
C1443 C1442 1.386 . S
C1443 C1447 1.393 . S
C1444 H1433 0.950 1_545 S
C1444 C1442 1.391 . S
C1444 C1445 1.400 . S
C1445 C1439 1.491 1_445 S
C1445 C1444 1.400 . S
C1445 C1446 1.398 . S
C1446 H1434 0.950 . S
C1446 C1445 1.398 . S
C1446 C1447 1.391 . S
C1447 H1435 0.950 . S
C1447 C1443 1.393 . S
C1447 C1446 1.391 . S
H1448 C1456 0.950 . S
H1449 C1461 0.950 . S
H1450 C1458 0.950 . S
H1451 C1460 0.950 . S
H1452 C1462 0.950 . S
H1453 C1464 0.950 . S
H1454 C1466 0.950 . S
H1455 C1467 0.950 . S
C1456 H1448 0.950 . S
C1456 C1457 1.386 . S
C1456 C1458 1.391 1_565 S
C1457 C1456 1.386 . S
C1457 C1461 1.393 . S
C1458 H1450 0.950 . S
C1458 C1456 1.391 1_545 S
C1458 C1459 1.400 1_545 S
C1459 C1458 1.400 1_565 S
C1459 C1460 1.398 . S
C1459 C1465 1.491 1_565 S
C1460 H1451 0.950 . S
C1460 C1459 1.398 . S
C1460 C1461 1.391 . S
C1461 H1449 0.950 . S
C1461 C1457 1.393 . S
C1461 C1460 1.391 . S
C1462 H1452 0.950 . S
C1462 C1463 1.386 . S
C1462 C1464 1.391 1_545 S
C1463 C1462 1.386 . S
C1463 C1467 1.393 . S
C1464 H1453 0.950 . S
C1464 C1462 1.391 1_565 S
C1464 C1465 1.400 1_565 S
C1465 C1459 1.491 1_545 S
C1465 C1464 1.400 1_545 S
C1465 C1466 1.398 . S
C1466 H1454 0.950 . S
C1466 C1465 1.398 . S
C1466 C1467 1.391 . S
C1467 H1455 0.950 . S
C1467 C1463 1.393 . S
C1467 C1466 1.391 . S
H1468 C1476 0.950 . S
H1469 C1481 0.950 . S
H1470 C1478 0.950 . S
H1471 C1480 0.940 1_655 S
H1472 C1482 0.950 . S
H1473 C1484 0.950 . S
H1474 C1486 0.944 1_455 S
H1475 C1487 0.950 . S
C1476 H1468 0.950 . S
C1476 C1477 1.386 . S
C1476 C1478 1.391 . S
C1477 C1476 1.386 . S
C1477 C1481 1.393 . S
C1478 H1470 0.950 . S
C1478 C1476 1.391 . S
C1478 C1479 1.400 . S
C1479 C1478 1.400 . S
C1479 C1480 1.398 . S
C1479 C1485 1.491 1_455 S
C1480 H1471 0.940 1_455 S
C1480 C1479 1.398 . S
C1480 C1481 1.391 . S
C1481 H1469 0.950 . S
C1481 C1477 1.393 . S
C1481 C1480 1.391 . S
C1482 H1472 0.950 . S
C1482 C1483 1.386 . S
C1482 C1484 1.391 . S
C1483 C1482 1.386 . S
C1483 C1487 1.393 . S
C1484 H1473 0.950 . S
C1484 C1482 1.391 . S
C1484 C1485 1.400 . S
C1485 C1479 1.491 1_655 S
C1485 C1484 1.400 . S
C1485 C1486 1.398 . S
C1486 H1474 0.944 1_655 S
C1486 C1485 1.398 . S
C1486 C1487 1.391 . S
C1487 H1475 0.950 . S
C1487 C1483 1.393 . S
C1487 C1486 1.391 . S
H1488 C1496 0.950 . S
H1489 C1501 0.950 . S
H1490 C1498 0.950 . S
H1491 C1500 0.950 . S
H1492 C1502 0.950 . S
H1493 C1504 0.950 . S
H1494 C1506 0.950 . S
H1495 C1507 0.950 . S
C1496 H1488 0.950 . S
C1496 C1497 1.386 . S
C1496 C1498 1.391 . S
C1497 C1496 1.386 . S
C1497 C1501 1.393 . S
C1498 H1490 0.950 . S
C1498 C1496 1.391 . S
C1498 C1499 1.400 . S
C1499 C1498 1.400 . S
C1499 C1500 1.398 . S
C1499 C1505 1.491 . S
C1500 H1491 0.950 . S
C1500 C1499 1.398 . S
C1500 C1501 1.391 . S
C1501 H1489 0.950 . S
C1501 C1497 1.393 . S
C1501 C1500 1.391 . S
C1502 H1492 0.950 . S
C1502 C1503 1.386 . S
C1502 C1504 1.391 . S
C1503 C1502 1.386 . S
C1503 C1507 1.393 . S
C1504 H1493 0.950 . S
C1504 C1502 1.391 . S
C1504 C1505 1.400 . S
C1505 C1499 1.491 . S
C1505 C1504 1.400 . S
C1505 C1506 1.398 . S
C1506 H1494 0.950 . S
C1506 C1505 1.398 . S
C1506 C1507 1.391 . S
C1507 H1495 0.950 . S
C1507 C1503 1.393 . S
C1507 C1506 1.391 . S
H1508 C1516 0.950 . S
H1509 C1521 0.950 . S
H1510 C1518 0.950 1_565 S
H1511 C1520 0.950 . S
H1512 C1522 0.950 . S
H1513 C1524 0.950 1_545 S
H1514 C1526 0.950 . S
H1515 C1527 0.950 . S
C1516 H1508 0.950 . S
C1516 C1517 1.386 . S
C1516 C1518 1.391 . S
C1517 C1516 1.386 . S
C1517 C1521 1.393 . S
C1518 H1510 0.950 1_545 S
C1518 C1516 1.391 . S
C1518 C1519 1.400 . S
C1519 C1518 1.400 . S
C1519 C1520 1.398 . S
C1519 C1525 1.491 1_545 S
C1520 H1511 0.950 . S
C1520 C1519 1.398 . S
C1520 C1521 1.391 . S
C1521 H1509 0.950 . S
C1521 C1517 1.393 . S
C1521 C1520 1.391 . S
C1522 H1512 0.950 . S
C1522 C1523 1.386 . S
C1522 C1524 1.391 . S
C1523 C1522 1.386 . S
C1523 C1527 1.393 . S
C1524 H1513 0.950 1_565 S
C1524 C1522 1.391 . S
C1524 C1525 1.400 . S
C1525 C1519 1.491 1_565 S
C1525 C1524 1.400 . S
C1525 C1526 1.398 . S
C1526 H1514 0.950 . S
C1526 C1525 1.398 . S
C1526 C1527 1.391 . S
C1527 H1515 0.950 . S
C1527 C1523 1.393 . S
C1527 C1526 1.391 . S
H1528 C1536 0.950 . S
H1529 C1541 0.950 . S
H1530 C1538 0.950 1_455 S
H1531 C1540 0.950 . S
H1532 C1542 0.950 . S
H1533 C1544 0.950 1_655 S
H1534 C1546 0.950 . S
H1535 C1547 0.950 . S
C1536 H1528 0.950 . S
C1536 C1537 1.386 . S
C1536 C1538 1.391 . S
C1537 C1536 1.386 . S
C1537 C1541 1.393 . S
C1538 H1530 0.950 1_655 S
C1538 C1536 1.391 . S
C1538 C1539 1.400 . S
C1539 C1538 1.400 . S
C1539 C1540 1.398 . S
C1539 C1545 1.491 1_655 S
C1540 H1531 0.950 . S
C1540 C1539 1.398 . S
C1540 C1541 1.391 . S
C1541 H1529 0.950 . S
C1541 C1537 1.393 . S
C1541 C1540 1.391 . S
C1542 H1532 0.950 . S
C1542 C1543 1.386 . S
C1542 C1544 1.391 . S
C1543 C1542 1.386 . S
C1543 C1547 1.393 . S
C1544 H1533 0.950 1_455 S
C1544 C1542 1.391 . S
C1544 C1545 1.400 . S
C1545 C1539 1.491 1_455 S
C1545 C1544 1.400 . S
C1545 C1546 1.398 . S
C1546 H1534 0.950 . S
C1546 C1545 1.398 . S
C1546 C1547 1.391 . S
C1547 H1535 0.950 . S
C1547 C1543 1.393 . S
C1547 C1546 1.391 . S
H1548 C1556 0.950 . S
H1549 C1561 0.950 . S
H1550 C1558 0.969 . S
H1551 C1560 0.950 . S
H1552 C1562 0.950 . S
H1553 C1564 0.950 . S
H1554 C1566 0.950 . S
H1555 C1567 0.950 . S
C1556 H1548 0.950 . S
C1556 C1557 1.386 . S
C1556 C1558 1.391 . S
C1557 C1556 1.386 . S
C1557 C1561 1.393 . S
C1558 H1550 0.969 . S
C1558 C1556 1.391 . S
C1558 C1559 1.400 . S
C1559 C1558 1.400 . S
C1559 C1560 1.398 . S
C1559 C1565 1.491 1_554 S
C1560 H1551 0.950 . S
C1560 C1559 1.398 . S
C1560 C1561 1.391 . S
C1561 H1549 0.950 . S
C1561 C1557 1.393 . S
C1561 C1560 1.391 . S
C1562 H1552 0.950 . S
C1562 C1563 1.386 . S
C1562 C1564 1.391 . S
C1563 C1562 1.386 . S
C1563 C1567 1.393 . S
C1564 H1553 0.950 . S
C1564 C1562 1.391 . S
C1564 C1565 1.400 . S
C1565 C1559 1.491 1_556 S
C1565 C1564 1.400 . S
C1565 C1566 1.398 . S
C1566 H1554 0.950 . S
C1566 C1565 1.398 . S
C1566 C1567 1.391 . S
C1567 H1555 0.950 . S
C1567 C1563 1.393 . S
C1567 C1566 1.391 . S
H1568 C1576 0.950 . S
H1569 C1581 0.950 . S
H1570 C1578 0.927 1_554 S
H1571 C1580 0.970 . S
H1572 C1582 0.950 . S
H1573 C1584 0.950 1_556 S
H1574 C1586 0.964 . S
H1575 C1587 0.950 . S
C1576 H1568 0.950 . S
C1576 C1577 1.386 . S
C1576 C1578 1.391 . S
C1577 C1576 1.386 . S
C1577 C1581 1.393 . S
C1578 H1570 0.927 1_556 S
C1578 C1576 1.391 . S
C1578 C1579 1.400 . S
C1579 C1578 1.400 . S
C1579 C1580 1.392 1_455 S
C1579 C1585 1.491 1_456 S
C1580 H1571 0.970 . S
C1580 C1579 1.392 1_655 S
C1580 C1581 1.379 1_655 S
C1581 H1569 0.950 . S
C1581 C1577 1.393 . S
C1581 C1580 1.379 1_455 S
C1582 H1572 0.950 . S
C1582 C1583 1.386 . S
C1582 C1584 1.391 . S
C1583 C1582 1.386 . S
C1583 C1587 1.393 . S
C1584 H1573 0.950 1_554 S
C1584 C1582 1.391 . S
C1584 C1585 1.400 . S
C1585 C1579 1.491 1_654 S
C1585 C1584 1.400 . S
C1585 C1586 1.393 1_655 S
C1586 H1574 0.964 . S
C1586 C1585 1.393 1_455 S
C1586 C1587 1.382 1_455 S
C1587 H1575 0.950 . S
C1587 C1583 1.393 . S
C1587 C1586 1.382 1_655 S
H1588 C1596 0.950 . S
H1589 C1601 0.950 . S
H1590 C1598 0.950 . S
H1591 C1600 0.950 . S
H1592 C1602 0.950 . S
H1593 C1604 0.950 . S
H1594 C1606 0.950 . S
H1595 C1607 0.950 . S
C1596 H1588 0.950 . S
C1596 C1597 1.386 . S
C1596 C1598 1.391 . S
C1597 C1596 1.386 . S
C1597 C1601 1.393 . S
C1598 H1590 0.950 . S
C1598 C1596 1.391 . S
C1598 C1599 1.400 . S
C1599 C1598 1.400 . S
C1599 C1600 1.398 . S
C1599 C1605 1.491 . S
C1600 H1591 0.950 . S
C1600 C1599 1.398 . S
C1600 C1601 1.391 . S
C1601 H1589 0.950 . S
C1601 C1597 1.393 . S
C1601 C1600 1.391 . S
C1602 H1592 0.950 . S
C1602 C1603 1.386 . S
C1602 C1604 1.391 . S
C1603 C1602 1.386 . S
C1603 C1607 1.393 . S
C1604 H1593 0.950 . S
C1604 C1602 1.391 . S
C1604 C1605 1.400 . S
C1605 C1599 1.491 . S
C1605 C1604 1.400 . S
C1605 C1606 1.398 . S
C1606 H1594 0.950 . S
C1606 C1605 1.398 . S
C1606 C1607 1.391 . S
C1607 H1595 0.950 . S
C1607 C1603 1.393 . S
C1607 C1606 1.391 . S
H1608 C1616 0.950 . S
H1609 C1621 0.995 . S
H1610 C1618 0.950 . S
H1611 C1620 0.950 . S
H1612 C1622 0.950 . S
H1613 C1624 0.950 . S
H1614 C1626 0.950 . S
H1615 C1627 0.910 1_556 S
C1616 H1608 0.950 . S
C1616 C1617 1.386 . S
C1616 C1618 1.391 . S
C1617 C1616 1.386 . S
C1617 C1621 1.393 . S
C1618 H1610 0.950 . S
C1618 C1616 1.391 . S
C1618 C1619 1.400 . S
C1619 C1618 1.400 . S
C1619 C1620 1.398 1_556 S
C1619 C1625 1.491 1_556 S
C1620 H1611 0.950 . S
C1620 C1619 1.398 1_554 S
C1620 C1621 1.391 1_554 S
C1621 H1609 0.995 . S
C1621 C1617 1.393 . S
C1621 C1620 1.391 1_556 S
C1622 H1612 0.950 . S
C1622 C1623 1.386 . S
C1622 C1624 1.391 . S
C1623 C1622 1.386 . S
C1623 C1627 1.393 . S
C1624 H1613 0.950 . S
C1624 C1622 1.391 . S
C1624 C1625 1.400 . S
C1625 C1619 1.491 1_554 S
C1625 C1624 1.400 . S
C1625 C1626 1.398 1_554 S
C1626 H1614 0.950 . S
C1626 C1625 1.398 1_556 S
C1626 C1627 1.391 1_556 S
C1627 H1615 0.910 1_554 S
C1627 C1623 1.393 . S
C1627 C1626 1.391 1_554 S
H1628 C1636 0.950 . S
H1629 C1641 0.950 . S
H1630 C1638 0.950 . S
H1631 C1640 0.950 . S
H1632 C1642 0.950 . S
H1633 C1644 0.950 . S
H1634 C1646 0.950 . S
H1635 C1647 0.950 . S
C1636 H1628 0.950 . S
C1636 C1637 1.386 . S
C1636 C1638 1.391 . S
C1637 C1636 1.386 . S
C1637 C1641 1.393 . S
C1638 H1630 0.950 . S
C1638 C1636 1.391 . S
C1638 C1639 1.400 . S
C1639 C1638 1.400 . S
C1639 C1640 1.398 . S
C1639 C1645 1.491 . S
C1640 H1631 0.950 . S
C1640 C1639 1.398 . S
C1640 C1641 1.391 . S
C1641 H1629 0.950 . S
C1641 C1637 1.393 . S
C1641 C1640 1.391 . S
C1642 H1632 0.950 . S
C1642 C1643 1.386 . S
C1642 C1644 1.391 . S
C1643 C1642 1.386 . S
C1643 C1647 1.393 . S
C1644 H1633 0.950 . S
C1644 C1642 1.391 . S
C1644 C1645 1.400 . S
C1645 C1639 1.491 . S
C1645 C1644 1.400 . S
C1645 C1646 1.398 . S
C1646 H1634 0.950 . S
C1646 C1645 1.398 . S
C1646 C1647 1.391 . S
C1647 H1635 0.950 . S
C1647 C1643 1.393 . S
C1647 C1646 1.391 . S
H1648 C1656 0.950 . S
H1649 C1661 0.950 . S
H1650 C1658 0.950 . S
H1651 C1660 0.950 . S
H1652 C1662 0.950 . S
H1653 C1664 0.950 . S
H1654 C1666 0.938 1_556 S
H1655 C1667 0.950 . S
C1656 H1648 0.950 . S
C1656 C1657 1.386 . S
C1656 C1658 1.391 1_545 S
C1657 C1656 1.386 . S
C1657 C1661 1.393 . S
C1658 H1650 0.950 . S
C1658 C1656 1.391 1_565 S
C1658 C1659 1.400 1_565 S
C1659 C1658 1.400 1_545 S
C1659 C1660 1.398 . S
C1659 C1665 1.491 1_546 S
C1660 H1651 0.950 . S
C1660 C1659 1.398 . S
C1660 C1661 1.391 . S
C1661 H1649 0.950 . S
C1661 C1657 1.393 . S
C1661 C1660 1.391 . S
C1662 H1652 0.950 . S
C1662 C1663 1.386 . S
C1662 C1664 1.391 1_565 S
C1663 C1662 1.386 . S
C1663 C1667 1.393 . S
C1664 H1653 0.950 . S
C1664 C1662 1.391 1_545 S
C1664 C1665 1.400 1_545 S
C1665 C1659 1.491 1_564 S
C1665 C1664 1.400 1_565 S
C1665 C1666 1.398 . S
C1666 H1654 0.938 1_554 S
C1666 C1665 1.398 . S
C1666 C1667 1.391 . S
C1667 H1655 0.950 . S
C1667 C1663 1.393 . S
C1667 C1666 1.391 . S
H1668 C1676 0.950 . S
H1669 C1681 0.950 . S
H1670 C1678 0.950 . S
H1671 C1680 0.950 . S
H1672 C1682 0.950 . S
H1673 C1684 0.950 . S
H1674 C1686 0.950 . S
H1675 C1687 0.950 . S
C1676 H1668 0.950 . S
C1676 C1677 1.386 . S
C1676 C1678 1.391 . S
C1677 C1676 1.386 . S
C1677 C1681 1.393 . S
C1678 H1670 0.950 . S
C1678 C1676 1.391 . S
C1678 C1679 1.400 . S
C1679 C1678 1.400 . S
C1679 C1680 1.398 . S
C1679 C1685 1.491 . S
C1680 H1671 0.950 . S
C1680 C1679 1.398 . S
C1680 C1681 1.391 . S
C1681 H1669 0.950 . S
C1681 C1677 1.393 . S
C1681 C1680 1.391 . S
C1682 H1672 0.950 . S
C1682 C1683 1.386 . S
C1682 C1684 1.391 . S
C1683 C1682 1.386 . S
C1683 C1687 1.393 . S
C1684 H1673 0.950 . S
C1684 C1682 1.391 . S
C1684 C1685 1.400 . S
C1685 C1679 1.491 . S
C1685 C1684 1.400 . S
C1685 C1686 1.398 . S
C1686 H1674 0.950 . S
C1686 C1685 1.398 . S
C1686 C1687 1.391 . S
C1687 H1675 0.950 . S
C1687 C1683 1.393 . S
C1687 C1686 1.391 . S
H1688 C1696 0.950 . S
H1689 C1701 0.950 . S
H1690 C1698 0.950 . S
H1691 C1700 0.950 . S
H1692 C1702 0.950 . S
H1693 C1704 0.950 . S
H1694 C1706 0.950 . S
H1695 C1707 0.950 . S
C1696 H1688 0.950 . S
C1696 C1697 1.386 . S
C1696 C1698 1.391 . S
C1697 C1696 1.386 . S
C1697 C1701 1.393 . S
C1698 H1690 0.950 . S
C1698 C1696 1.391 . S
C1698 C1699 1.400 . S
C1699 C1698 1.400 . S
C1699 C1700 1.398 . S
C1699 C1705 1.491 . S
C1700 H1691 0.950 . S
C1700 C1699 1.398 . S
C1700 C1701 1.391 . S
C1701 H1689 0.950 . S
C1701 C1697 1.393 . S
C1701 C1700 1.391 . S
C1702 H1692 0.950 . S
C1702 C1703 1.386 . S
C1702 C1704 1.391 . S
C1703 C1702 1.386 . S
C1703 C1707 1.393 . S
C1704 H1693 0.950 . S
C1704 C1702 1.391 . S
C1704 C1705 1.400 . S
C1705 C1699 1.491 . S
C1705 C1704 1.400 . S
C1705 C1706 1.398 . S
C1706 H1694 0.950 . S
C1706 C1705 1.398 . S
C1706 C1707 1.391 . S
C1707 H1695 0.950 . S
C1707 C1703 1.393 . S
C1707 C1706 1.391 . S
H1708 C1716 0.950 . S
H1709 C1721 0.950 . S
H1710 C1718 0.950 . S
H1711 C1720 0.950 . S
H1712 C1722 0.950 . S
H1713 C1724 0.950 . S
H1714 C1726 0.950 . S
H1715 C1727 0.950 . S
C1716 H1708 0.950 . S
C1716 C1717 1.386 . S
C1716 C1718 1.391 . S
C1717 C1716 1.386 . S
C1717 C1721 1.393 . S
C1718 H1710 0.950 . S
C1718 C1716 1.391 . S
C1718 C1719 1.400 . S
C1719 C1718 1.400 . S
C1719 C1720 1.398 . S
C1719 C1725 1.491 . S
C1720 H1711 0.950 . S
C1720 C1719 1.398 . S
C1720 C1721 1.391 . S
C1721 H1709 0.950 . S
C1721 C1717 1.393 . S
C1721 C1720 1.391 . S
C1722 H1712 0.950 . S
C1722 C1723 1.386 . S
C1722 C1724 1.391 . S
C1723 C1722 1.386 . S
C1723 C1727 1.393 . S
C1724 H1713 0.950 . S
C1724 C1722 1.391 . S
C1724 C1725 1.400 . S
C1725 C1719 1.491 . S
C1725 C1724 1.400 . S
C1725 C1726 1.398 . S
C1726 H1714 0.950 . S
C1726 C1725 1.398 . S
C1726 C1727 1.391 . S
C1727 H1715 0.950 . S
C1727 C1723 1.393 . S
C1727 C1726 1.391 . S
H1728 C1736 0.950 . S
H1729 C1741 0.950 . S
H1730 C1738 0.950 . S
H1731 C1740 0.950 . S
H1732 C1742 0.950 . S
H1733 C1744 0.950 . S
H1734 C1746 0.950 . S
H1735 C1747 0.950 . S
C1736 H1728 0.950 . S
C1736 C1737 1.386 . S
C1736 C1738 1.391 . S
C1737 C1736 1.386 . S
C1737 C1741 1.393 . S
C1738 H1730 0.950 . S
C1738 C1736 1.391 . S
C1738 C1739 1.400 . S
C1739 C1738 1.400 . S
C1739 C1740 1.398 . S
C1739 C1745 1.491 . S
C1740 H1731 0.950 . S
C1740 C1739 1.398 . S
C1740 C1741 1.391 . S
C1741 H1729 0.950 . S
C1741 C1737 1.393 . S
C1741 C1740 1.391 . S
C1742 H1732 0.950 . S
C1742 C1743 1.386 . S
C1742 C1744 1.391 . S
C1743 C1742 1.386 . S
C1743 C1747 1.393 . S
C1744 H1733 0.950 . S
C1744 C1742 1.391 . S
C1744 C1745 1.400 . S
C1745 C1739 1.491 . S
C1745 C1744 1.400 . S
C1745 C1746 1.398 . S
C1746 H1734 0.950 . S
C1746 C1745 1.398 . S
C1746 C1747 1.391 . S
C1747 H1735 0.950 . S
C1747 C1743 1.393 . S
C1747 C1746 1.391 . S
H1748 C1756 0.950 . S
H1749 C1761 0.950 . S
H1750 C1758 0.950 . S
H1751 C1760 0.950 . S
H1752 C1762 0.950 . S
H1753 C1764 0.950 . S
H1754 C1766 0.950 . S
H1755 C1767 0.950 . S
C1756 H1748 0.950 . S
C1756 C1757 1.386 . S
C1756 C1758 1.391 . S
C1757 C1756 1.386 . S
C1757 C1761 1.393 . S
C1758 H1750 0.950 . S
C1758 C1756 1.391 . S
C1758 C1759 1.400 . S
C1759 C1758 1.400 . S
C1759 C1760 1.398 . S
C1759 C1765 1.491 . S
C1760 H1751 0.950 . S
C1760 C1759 1.398 . S
C1760 C1761 1.391 . S
C1761 H1749 0.950 . S
C1761 C1757 1.393 . S
C1761 C1760 1.391 . S
C1762 H1752 0.950 . S
C1762 C1763 1.386 . S
C1762 C1764 1.391 . S
C1763 C1762 1.386 . S
C1763 C1767 1.393 . S
C1764 H1753 0.950 . S
C1764 C1762 1.391 . S
C1764 C1765 1.400 . S
C1765 C1759 1.491 . S
C1765 C1764 1.400 . S
C1765 C1766 1.398 . S
C1766 H1754 0.950 . S
C1766 C1765 1.398 . S
C1766 C1767 1.391 . S
C1767 H1755 0.950 . S
C1767 C1763 1.393 . S
C1767 C1766 1.391 . S
H1768 C1776 0.950 . S
H1769 C1781 0.950 . S
H1770 C1778 0.950 . S
H1771 C1780 0.950 . S
H1772 C1782 0.950 . S
H1773 C1784 0.950 . S
H1774 C1786 0.950 . S
H1775 C1787 0.950 . S
C1776 H1768 0.950 . S
C1776 C1777 1.386 . S
C1776 C1778 1.391 . S
C1777 C1776 1.386 . S
C1777 C1781 1.393 . S
C1778 H1770 0.950 . S
C1778 C1776 1.391 . S
C1778 C1779 1.400 . S
C1779 C1778 1.400 . S
C1779 C1780 1.398 . S
C1779 C1785 1.491 . S
C1780 H1771 0.950 . S
C1780 C1779 1.398 . S
C1780 C1781 1.391 . S
C1781 H1769 0.950 . S
C1781 C1777 1.393 . S
C1781 C1780 1.391 . S
C1782 H1772 0.950 . S
C1782 C1783 1.386 . S
C1782 C1784 1.391 . S
C1783 C1782 1.386 . S
C1783 C1787 1.393 . S
C1784 H1773 0.950 . S
C1784 C1782 1.391 . S
C1784 C1785 1.400 . S
C1785 C1779 1.491 . S
C1785 C1784 1.400 . S
C1785 C1786 1.398 . S
C1786 H1774 0.950 . S
C1786 C1785 1.398 . S
C1786 C1787 1.391 . S
C1787 H1775 0.950 . S
C1787 C1783 1.393 . S
C1787 C1786 1.391 . S
H1788 C1796 0.950 . S
H1789 C1801 0.950 . S
H1790 C1798 0.950 . S
H1791 C1800 0.950 . S
H1792 C1802 0.950 . S
H1793 C1804 0.950 . S
H1794 C1806 0.950 . S
H1795 C1807 0.950 . S
C1796 H1788 0.950 . S
C1796 C1797 1.386 . S
C1796 C1798 1.391 . S
C1797 C1796 1.386 . S
C1797 C1801 1.393 . S
C1798 H1790 0.950 . S
C1798 C1796 1.391 . S
C1798 C1799 1.400 . S
C1799 C1798 1.400 . S
C1799 C1800 1.398 . S
C1799 C1805 1.491 . S
C1800 H1791 0.950 . S
C1800 C1799 1.398 . S
C1800 C1801 1.391 . S
C1801 H1789 0.950 . S
C1801 C1797 1.393 . S
C1801 C1800 1.391 . S
C1802 H1792 0.950 . S
C1802 C1803 1.386 . S
C1802 C1804 1.391 . S
C1803 C1802 1.386 . S
C1803 C1807 1.393 . S
C1804 H1793 0.950 . S
C1804 C1802 1.391 . S
C1804 C1805 1.400 . S
C1805 C1799 1.491 . S
C1805 C1804 1.400 . S
C1805 C1806 1.398 . S
C1806 H1794 0.950 . S
C1806 C1805 1.398 . S
C1806 C1807 1.391 . S
C1807 H1795 0.950 . S
C1807 C1803 1.393 . S
C1807 C1806 1.391 . S
H1808 C1816 0.950 . S
H1809 C1821 0.950 . S
H1810 C1818 0.950 . S
H1811 C1820 0.950 . S
H1812 C1822 0.950 . S
H1813 C1824 0.950 . S
H1814 C1826 0.950 . S
H1815 C1827 0.950 . S
C1816 H1808 0.950 . S
C1816 C1817 1.386 . S
C1816 C1818 1.391 . S
C1817 C1816 1.386 . S
C1817 C1821 1.393 . S
C1818 H1810 0.950 . S
C1818 C1816 1.391 . S
C1818 C1819 1.400 . S
C1819 C1818 1.400 . S
C1819 C1820 1.398 . S
C1819 C1825 1.491 . S
C1820 H1811 0.950 . S
C1820 C1819 1.398 . S
C1820 C1821 1.391 . S
C1821 H1809 0.950 . S
C1821 C1817 1.393 . S
C1821 C1820 1.391 . S
C1822 H1812 0.950 . S
C1822 C1823 1.386 . S
C1822 C1824 1.391 . S
C1823 C1822 1.386 . S
C1823 C1827 1.393 . S
C1824 H1813 0.950 . S
C1824 C1822 1.391 . S
C1824 C1825 1.400 . S
C1825 C1819 1.491 . S
C1825 C1824 1.400 . S
C1825 C1826 1.398 . S
C1826 H1814 0.950 . S
C1826 C1825 1.398 . S
C1826 C1827 1.391 . S
C1827 H1815 0.950 . S
C1827 C1823 1.393 . S
C1827 C1826 1.391 . S
H1828 C1836 0.950 . S
H1829 C1841 0.950 . S
H1830 C1838 0.950 . S
H1831 C1840 0.950 . S
H1832 C1842 0.950 . S
H1833 C1844 0.950 . S
H1834 C1846 0.950 . S
H1835 C1847 0.950 . S
C1836 H1828 0.950 . S
C1836 C1837 1.386 . S
C1836 C1838 1.391 . S
C1837 C1836 1.386 . S
C1837 C1841 1.393 . S
C1838 H1830 0.950 . S
C1838 C1836 1.391 . S
C1838 C1839 1.400 . S
C1839 C1838 1.400 . S
C1839 C1840 1.398 . S
C1839 C1845 1.491 . S
C1840 H1831 0.950 . S
C1840 C1839 1.398 . S
C1840 C1841 1.391 . S
C1841 H1829 0.950 . S
C1841 C1837 1.393 . S
C1841 C1840 1.391 . S
C1842 H1832 0.950 . S
C1842 C1843 1.386 . S
C1842 C1844 1.391 . S
C1843 C1842 1.386 . S
C1843 C1847 1.393 . S
C1844 H1833 0.950 . S
C1844 C1842 1.391 . S
C1844 C1845 1.400 . S
C1845 C1839 1.491 . S
C1845 C1844 1.400 . S
C1845 C1846 1.398 . S
C1846 H1834 0.950 . S
C1846 C1845 1.398 . S
C1846 C1847 1.391 . S
C1847 H1835 0.950 . S
C1847 C1843 1.393 . S
C1847 C1846 1.391 . S
H1848 C1856 0.950 . S
H1849 C1861 0.950 . S
H1850 C1858 0.950 . S
H1851 C1860 0.950 . S
H1852 C1862 0.950 . S
H1853 C1864 0.950 . S
H1854 C1866 0.950 . S
H1855 C1867 0.950 . S
C1856 H1848 0.950 . S
C1856 C1857 1.386 . S
C1856 C1858 1.391 . S
C1857 C1856 1.386 . S
C1857 C1861 1.393 . S
C1858 H1850 0.950 . S
C1858 C1856 1.391 . S
C1858 C1859 1.400 . S
C1859 C1858 1.400 . S
C1859 C1860 1.398 . S
C1859 C1865 1.491 . S
C1860 H1851 0.950 . S
C1860 C1859 1.398 . S
C1860 C1861 1.391 . S
C1861 H1849 0.950 . S
C1861 C1857 1.393 . S
C1861 C1860 1.391 . S
C1862 H1852 0.950 . S
C1862 C1863 1.386 . S
C1862 C1864 1.391 . S
C1863 C1862 1.386 . S
C1863 C1867 1.393 . S
C1864 H1853 0.950 . S
C1864 C1862 1.391 . S
C1864 C1865 1.400 . S
C1865 C1859 1.491 . S
C1865 C1864 1.400 . S
C1865 C1866 1.398 . S
C1866 H1854 0.950 . S
C1866 C1865 1.398 . S
C1866 C1867 1.391 . S
C1867 H1855 0.950 . S
C1867 C1863 1.393 . S
C1867 C1866 1.391 . S
H1868 C1876 0.950 . S
H1869 C1881 0.950 . S
H1870 C1878 0.950 . S
H1871 C1880 0.950 . S
H1872 C1882 0.950 . S
H1873 C1884 0.950 . S
H1874 C1886 0.950 . S
H1875 C1887 0.950 . S
C1876 H1868 0.950 . S
C1876 C1877 1.386 . S
C1876 C1878 1.391 . S
C1877 C1876 1.386 . S
C1877 C1881 1.393 . S
C1878 H1870 0.950 . S
C1878 C1876 1.391 . S
C1878 C1879 1.400 . S
C1879 C1878 1.400 . S
C1879 C1880 1.398 . S
C1879 C1885 1.491 . S
C1880 H1871 0.950 . S
C1880 C1879 1.398 . S
C1880 C1881 1.391 . S
C1881 H1869 0.950 . S
C1881 C1877 1.393 . S
C1881 C1880 1.391 . S
C1882 H1872 0.950 . S
C1882 C1883 1.386 . S
C1882 C1884 1.391 . S
C1883 C1882 1.386 . S
C1883 C1887 1.393 . S
C1884 H1873 0.950 . S
C1884 C1882 1.391 . S
C1884 C1885 1.400 . S
C1885 C1879 1.491 . S
C1885 C1884 1.400 . S
C1885 C1886 1.398 . S
C1886 H1874 0.950 . S
C1886 C1885 1.398 . S
C1886 C1887 1.391 . S
C1887 H1875 0.950 . S
C1887 C1883 1.393 . S
C1887 C1886 1.391 . S
H1888 C1896 0.950 . S
H1889 C1901 0.950 . S
H1890 C1898 0.950 . S
H1891 C1900 0.950 . S
H1892 C1902 0.950 . S
H1893 C1904 0.950 . S
H1894 C1906 0.950 . S
H1895 C1907 0.950 . S
C1896 H1888 0.950 . S
C1896 C1897 1.386 . S
C1896 C1898 1.391 . S
C1897 C1896 1.386 . S
C1897 C1901 1.393 . S
C1898 H1890 0.950 . S
C1898 C1896 1.391 . S
C1898 C1899 1.400 . S
C1899 C1898 1.400 . S
C1899 C1900 1.398 . S
C1899 C1905 1.491 . S
C1900 H1891 0.950 . S
C1900 C1899 1.398 . S
C1900 C1901 1.391 . S
C1901 H1889 0.950 . S
C1901 C1897 1.393 . S
C1901 C1900 1.391 . S
C1902 H1892 0.950 . S
C1902 C1903 1.386 . S
C1902 C1904 1.391 . S
C1903 C1902 1.386 . S
C1903 C1907 1.393 . S
C1904 H1893 0.950 . S
C1904 C1902 1.391 . S
C1904 C1905 1.400 . S
C1905 C1899 1.491 . S
C1905 C1904 1.400 . S
C1905 C1906 1.398 . S
C1906 H1894 0.950 . S
C1906 C1905 1.398 . S
C1906 C1907 1.391 . S
C1907 H1895 0.950 . S
C1907 C1903 1.393 . S
C1907 C1906 1.391 . S
H1908 C1916 0.950 . S
H1909 C1921 0.950 . S
H1910 C1918 0.950 . S
H1911 C1920 0.950 . S
H1912 C1922 0.950 . S
H1913 C1924 0.950 . S
H1914 C1926 0.950 . S
H1915 C1927 0.950 . S
C1916 H1908 0.950 . S
C1916 C1917 1.386 . S
C1916 C1918 1.391 . S
C1917 C1916 1.386 . S
C1917 C1921 1.393 . S
C1918 H1910 0.950 . S
C1918 C1916 1.391 . S
C1918 C1919 1.400 . S
C1919 C1918 1.400 . S
C1919 C1920 1.398 . S
C1919 C1925 1.491 . S
C1920 H1911 0.950 . S
C1920 C1919 1.398 . S
C1920 C1921 1.391 . S
C1921 H1909 0.950 . S
C1921 C1917 1.393 . S
C1921 C1920 1.391 . S
C1922 H1912 0.950 . S
C1922 C1923 1.386 . S
C1922 C1924 1.391 . S
C1923 C1922 1.386 . S
C1923 C1927 1.393 . S
C1924 H1913 0.950 . S
C1924 C1922 1.391 . S
C1924 C1925 1.400 . S
C1925 C1919 1.491 . S
C1925 C1924 1.400 . S
C1925 C1926 1.398 . S
C1926 H1914 0.950 . S
C1926 C1925 1.398 . S
C1926 C1927 1.391 . S
C1927 H1915 0.950 . S
C1927 C1923 1.393 . S
C1927 C1926 1.391 . S
H1928 C1936 0.950 . S
H1929 C1941 0.950 . S
H1930 C1938 0.950 . S
H1931 C1940 0.950 . S
H1932 C1942 0.950 . S
H1933 C1944 0.950 . S
H1934 C1946 0.950 . S
H1935 C1947 0.950 . S
C1936 H1928 0.950 . S
C1936 C1937 1.386 . S
C1936 C1938 1.391 . S
C1937 C1936 1.386 . S
C1937 C1941 1.393 . S
C1938 H1930 0.950 . S
C1938 C1936 1.391 . S
C1938 C1939 1.400 . S
C1939 C1938 1.400 . S
C1939 C1940 1.398 . S
C1939 C1945 1.491 . S
C1940 H1931 0.950 . S
C1940 C1939 1.398 . S
C1940 C1941 1.391 . S
C1941 H1929 0.950 . S
C1941 C1937 1.393 . S
C1941 C1940 1.391 . S
C1942 H1932 0.950 . S
C1942 C1943 1.386 . S
C1942 C1944 1.391 . S
C1943 C1942 1.386 . S
C1943 C1947 1.393 . S
C1944 H1933 0.950 . S
C1944 C1942 1.391 . S
C1944 C1945 1.400 . S
C1945 C1939 1.491 . S
C1945 C1944 1.400 . S
C1945 C1946 1.398 . S
C1946 H1934 0.950 . S
C1946 C1945 1.398 . S
C1946 C1947 1.391 . S
C1947 H1935 0.950 . S
C1947 C1943 1.393 . S
C1947 C1946 1.391 . S
H1948 C1956 0.950 . S
H1949 C1961 0.950 . S
H1950 C1958 0.950 . S
H1951 C1960 0.950 . S
H1952 C1962 0.950 . S
H1953 C1964 0.950 . S
H1954 C1966 0.950 . S
H1955 C1967 0.950 . S
C1956 H1948 0.950 . S
C1956 C1957 1.386 . S
C1956 C1958 1.391 . S
C1957 C1956 1.386 . S
C1957 C1961 1.393 . S
C1958 H1950 0.950 . S
C1958 C1956 1.391 . S
C1958 C1959 1.400 . S
C1959 C1958 1.400 . S
C1959 C1960 1.398 . S
C1959 C1965 1.491 . S
C1960 H1951 0.950 . S
C1960 C1959 1.398 . S
C1960 C1961 1.391 . S
C1961 H1949 0.950 . S
C1961 C1957 1.393 . S
C1961 C1960 1.391 . S
C1962 H1952 0.950 . S
C1962 C1963 1.386 . S
C1962 C1964 1.391 . S
C1963 C1962 1.386 . S
C1963 C1967 1.393 . S
C1964 H1953 0.950 . S
C1964 C1962 1.391 . S
C1964 C1965 1.400 . S
C1965 C1959 1.491 . S
C1965 C1964 1.400 . S
C1965 C1966 1.398 . S
C1966 H1954 0.950 . S
C1966 C1965 1.398 . S
C1966 C1967 1.391 . S
C1967 H1955 0.950 . S
C1967 C1963 1.393 . S
C1967 C1966 1.391 . S
H1968 C1976 0.950 . S
H1969 C1981 0.950 . S
H1970 C1978 0.950 . S
H1971 C1980 0.950 . S
H1972 C1982 0.950 . S
H1973 C1984 0.950 . S
H1974 C1986 0.950 . S
H1975 C1987 0.950 . S
C1976 H1968 0.950 . S
C1976 C1977 1.386 . S
C1976 C1978 1.391 . S
C1977 C1976 1.386 . S
C1977 C1981 1.393 . S
C1978 H1970 0.950 . S
C1978 C1976 1.391 . S
C1978 C1979 1.400 . S
C1979 C1978 1.400 . S
C1979 C1980 1.398 . S
C1979 C1985 1.491 . S
C1980 H1971 0.950 . S
C1980 C1979 1.398 . S
C1980 C1981 1.391 . S
C1981 H1969 0.950 . S
C1981 C1977 1.393 . S
C1981 C1980 1.391 . S
C1982 H1972 0.950 . S
C1982 C1983 1.386 . S
C1982 C1984 1.391 . S
C1983 C1982 1.386 . S
C1983 C1987 1.393 . S
C1984 H1973 0.950 . S
C1984 C1982 1.391 . S
C1984 C1985 1.400 . S
C1985 C1979 1.491 . S
C1985 C1984 1.400 . S
C1985 C1986 1.398 . S
C1986 H1974 0.950 . S
C1986 C1985 1.398 . S
C1986 C1987 1.391 . S
C1987 H1975 0.950 . S
C1987 C1983 1.393 . S
C1987 C1986 1.391 . S
H1988 C1996 0.950 . S
H1989 C2001 0.950 . S
H1990 C1998 0.950 . S
H1991 C2000 0.950 . S
H1992 C2002 0.950 . S
H1993 C2004 0.950 . S
H1994 C2006 0.950 . S
H1995 C2007 0.950 . S
C1996 H1988 0.950 . S
C1996 C1997 1.386 . S
C1996 C1998 1.391 . S
C1997 C1996 1.386 . S
C1997 C2001 1.393 . S
C1998 H1990 0.950 . S
C1998 C1996 1.391 . S
C1998 C1999 1.400 . S
C1999 C1998 1.400 . S
C1999 C2000 1.398 . S
C1999 C2005 1.491 . S
C2000 H1991 0.950 . S
C2000 C1999 1.398 . S
C2000 C2001 1.391 . S
C2001 H1989 0.950 . S
C2001 C1997 1.393 . S
C2001 C2000 1.391 . S
C2002 H1992 0.950 . S
C2002 C2003 1.386 . S
C2002 C2004 1.391 . S
C2003 C2002 1.386 . S
C2003 C2007 1.393 . S
C2004 H1993 0.950 . S
C2004 C2002 1.391 . S
C2004 C2005 1.400 . S
C2005 C1999 1.491 . S
C2005 C2004 1.400 . S
C2005 C2006 1.398 . S
C2006 H1994 0.950 . S
C2006 C2005 1.398 . S
C2006 C2007 1.391 . S
C2007 H1995 0.950 . S
C2007 C2003 1.393 . S
C2007 C2006 1.391 . S
H2008 C2016 0.950 . S
H2009 C2021 0.950 . S
H2010 C2018 0.950 . S
H2011 C2020 0.950 . S
H2012 C2022 0.950 . S
H2013 C2024 0.950 . S
H2014 C2026 0.950 . S
H2015 C2027 0.950 . S
C2016 H2008 0.950 . S
C2016 C2017 1.386 . S
C2016 C2018 1.391 . S
C2017 C2016 1.386 . S
C2017 C2021 1.393 . S
C2018 H2010 0.950 . S
C2018 C2016 1.391 . S
C2018 C2019 1.400 . S
C2019 C2018 1.400 . S
C2019 C2020 1.398 . S
C2019 C2025 1.491 . S
C2020 H2011 0.950 . S
C2020 C2019 1.398 . S
C2020 C2021 1.391 . S
C2021 H2009 0.950 . S
C2021 C2017 1.393 . S
C2021 C2020 1.391 . S
C2022 H2012 0.950 . S
C2022 C2023 1.386 . S
C2022 C2024 1.391 . S
C2023 C2022 1.386 . S
C2023 C2027 1.393 . S
C2024 H2013 0.950 . S
C2024 C2022 1.391 . S
C2024 C2025 1.400 . S
C2025 C2019 1.491 . S
C2025 C2024 1.400 . S
C2025 C2026 1.398 . S
C2026 H2014 0.950 . S
C2026 C2025 1.398 . S
C2026 C2027 1.391 . S
C2027 H2015 0.950 . S
C2027 C2023 1.393 . S
C2027 C2026 1.391 . S
H2028 C2036 0.950 . S
H2029 C2041 0.950 . S
H2030 C2038 0.950 . S
H2031 C2040 0.950 . S
H2032 C2042 0.950 . S
H2033 C2044 0.950 . S
H2034 C2046 0.950 . S
H2035 C2047 0.950 . S
C2036 H2028 0.950 . S
C2036 C2037 1.386 . S
C2036 C2038 1.391 . S
C2037 C2036 1.386 . S
C2037 C2041 1.393 . S
C2038 H2030 0.950 . S
C2038 C2036 1.391 . S
C2038 C2039 1.400 . S
C2039 C2038 1.400 . S
C2039 C2040 1.398 . S
C2039 C2045 1.491 . S
C2040 H2031 0.950 . S
C2040 C2039 1.398 . S
C2040 C2041 1.391 . S
C2041 H2029 0.950 . S
C2041 C2037 1.393 . S
C2041 C2040 1.391 . S
C2042 H2032 0.950 . S
C2042 C2043 1.386 . S
C2042 C2044 1.391 . S
C2043 C2042 1.386 . S
C2043 C2047 1.393 . S
C2044 H2033 0.950 . S
C2044 C2042 1.391 . S
C2044 C2045 1.400 . S
C2045 C2039 1.491 . S
C2045 C2044 1.400 . S
C2045 C2046 1.398 . S
C2046 H2034 0.950 . S
C2046 C2045 1.398 . S
C2046 C2047 1.391 . S
C2047 H2035 0.950 . S
C2047 C2043 1.393 . S
C2047 C2046 1.391 . S
C1417 C1289 1.682 . S
C1423 C29 1.685 . S
C1437 C196 1.692 . S
C1443 C20 1.695 . S
C1457 C997 1.686 . S
C1463 C137 1.690 . S
C1477 C145 1.696 . S
C1483 C645 1.693 . S
C1497 C233 1.690 . S
C1503 C1085 1.693 . S
C1517 C841 1.693 . S
C1523 C293 1.691 . S
C1537 C313 1.695 . S
C1543 C497 1.697 . S
C1557 C900 1.686 . S
C1563 C372 1.688 . S
C1577 C381 1.695 . S
C1583 C548 1.693 . S
C1597 C1349 1.677 . S
C1603 C489 1.680 . S
C1617 C733 1.681 . S
C1623 C585 1.678 . S
C1637 C1201 1.684 . S
C1643 C665 1.681 . S
C1657 C724 1.690 . S
C1663 C937 1.688 . S
C1677 C1369 1.690 . S
C1683 C849 1.693 . S
C1697 C1017 1.679 . S
C1703 C1193 1.682 . S
C1717 C1252 1.691 . S
C1723 C1076 1.694 . S
C1737 C460 0.955 . S
C1743 C57 0.946 . S
C1757 C49 0.954 . S
C1763 C469 0.945 . S
C1777 C108 0.944 . S
C1783 C401 0.954 . S
C1797 C409 0.933 . S
C1803 C117 0.941 . S
C1817 C636 0.947 . S
C1823 C205 0.959 . S
C1837 C673 0.960 . S
C1843 C225 0.965 . S
C1857 C557 0.959 . S
C1863 C321 0.947 . S
C1877 C284 0.945 . S
C1883 C577 0.955 . S
C1897 C1173 0.955 . S
C1903 C761 0.945 . S
C1917 C753 0.940 . S
C1923 C1164 0.951 . S
C1937 C812 0.956 . S
C1943 C1113 0.950 . S
C1957 C1105 0.953 . S
C1963 C821 0.942 . S
C1977 C1377 0.944 . S
C1983 C929 0.948 . S
C1997 C1340 0.945 . S
C2003 C909 0.946 . S
C2017 C1025 0.946 . S
C2023 C1261 0.944 . S
C2037 C1281 0.965 . S
C2043 C988 0.958 . S
