# Generated by pormake.
# Topology zfx, (5)-cn, num edge types: 1
# Building blocks:
#     Node 0, Type 0, BuildingBlock: XOMCOT_clean_sbu_1, # of connection points: 5
#     Node 1, Type 0, BuildingBlock: XOMCOT_clean_sbu_1, # of connection points: 5
#     Node 2, Type 0, BuildingBlock: XOMCOT_clean_sbu_1, # of connection points: 5
#     Node 3, Type 0, BuildingBlock: XOMCOT_clean_sbu_1, # of connection points: 5
#     Node 4, Type 0, BuildingBlock: XOMCOT_clean_sbu_1, # of connection points: 5
#     Node 5, Type 0, BuildingBlock: XOMCOT_clean_sbu_1, # of connection points: 5
#     Node 6, Type 0, BuildingBlock: XOMCOT_clean_sbu_1, # of connection points: 5
#     Node 7, Type 0, BuildingBlock: XOMCOT_clean_sbu_1, # of connection points: 5
#     Node 8, Type 0, BuildingBlock: XOMCOT_clean_sbu_1, # of connection points: 5
#     Node 9, Type 0, BuildingBlock: XOMCOT_clean_sbu_1, # of connection points: 5
#     Node 10, Type 0, BuildingBlock: XOMCOT_clean_sbu_1, # of connection points: 5
#     Node 11, Type 0, BuildingBlock: XOMCOT_clean_sbu_1, # of connection points: 5
#     Node 12, Type 0, BuildingBlock: XOMCOT_clean_sbu_1, # of connection points: 5
#     Node 13, Type 0, BuildingBlock: XOMCOT_clean_sbu_1, # of connection points: 5
#     Node 14, Type 0, BuildingBlock: XOMCOT_clean_sbu_1, # of connection points: 5
#     Node 15, Type 0, BuildingBlock: XOMCOT_clean_sbu_1, # of connection points: 5
#     Edge 16, Type (0, 0), BuildingBlock: ZUJKAS_clean_linker_0, # of connection points: 2
#     Edge 17, Type (0, 0), BuildingBlock: ZUJKAS_clean_linker_0, # of connection points: 2
#     Edge 18, Type (0, 0), BuildingBlock: ZUJKAS_clean_linker_0, # of connection points: 2
#     Edge 19, Type (0, 0), BuildingBlock: ZUJKAS_clean_linker_0, # of connection points: 2
#     Edge 20, Type (0, 0), BuildingBlock: ZUJKAS_clean_linker_0, # of connection points: 2
#     Edge 21, Type (0, 0), BuildingBlock: ZUJKAS_clean_linker_0, # of connection points: 2
#     Edge 22, Type (0, 0), BuildingBlock: ZUJKAS_clean_linker_0, # of connection points: 2
#     Edge 23, Type (0, 0), BuildingBlock: ZUJKAS_clean_linker_0, # of connection points: 2
#     Edge 24, Type (0, 0), BuildingBlock: ZUJKAS_clean_linker_0, # of connection points: 2
#     Edge 25, Type (0, 0), BuildingBlock: ZUJKAS_clean_linker_0, # of connection points: 2
#     Edge 26, Type (0, 0), BuildingBlock: ZUJKAS_clean_linker_0, # of connection points: 2
#     Edge 27, Type (0, 0), BuildingBlock: ZUJKAS_clean_linker_0, # of connection points: 2
#     Edge 28, Type (0, 0), BuildingBlock: ZUJKAS_clean_linker_0, # of connection points: 2
#     Edge 29, Type (0, 0), BuildingBlock: ZUJKAS_clean_linker_0, # of connection points: 2
#     Edge 30, Type (0, 0), BuildingBlock: ZUJKAS_clean_linker_0, # of connection points: 2
#     Edge 31, Type (0, 0), BuildingBlock: ZUJKAS_clean_linker_0, # of connection points: 2
#     Edge 32, Type (0, 0), BuildingBlock: ZUJKAS_clean_linker_0, # of connection points: 2
#     Edge 33, Type (0, 0), BuildingBlock: ZUJKAS_clean_linker_0, # of connection points: 2
#     Edge 34, Type (0, 0), BuildingBlock: ZUJKAS_clean_linker_0, # of connection points: 2
#     Edge 35, Type (0, 0), BuildingBlock: ZUJKAS_clean_linker_0, # of connection points: 2
#     Edge 36, Type (0, 0), BuildingBlock: ZUJKAS_clean_linker_0, # of connection points: 2
#     Edge 37, Type (0, 0), BuildingBlock: ZUJKAS_clean_linker_0, # of connection points: 2
#     Edge 38, Type (0, 0), BuildingBlock: ZUJKAS_clean_linker_0, # of connection points: 2
#     Edge 39, Type (0, 0), BuildingBlock: ZUJKAS_clean_linker_0, # of connection points: 2
#     Edge 40, Type (0, 0), BuildingBlock: ZUJKAS_clean_linker_0, # of connection points: 2
#     Edge 41, Type (0, 0), BuildingBlock: ZUJKAS_clean_linker_0, # of connection points: 2
#     Edge 42, Type (0, 0), BuildingBlock: ZUJKAS_clean_linker_0, # of connection points: 2
#     Edge 43, Type (0, 0), BuildingBlock: ZUJKAS_clean_linker_0, # of connection points: 2
#     Edge 44, Type (0, 0), BuildingBlock: ZUJKAS_clean_linker_0, # of connection points: 2
#     Edge 45, Type (0, 0), BuildingBlock: ZUJKAS_clean_linker_0, # of connection points: 2
#     Edge 46, Type (0, 0), BuildingBlock: ZUJKAS_clean_linker_0, # of connection points: 2
#     Edge 47, Type (0, 0), BuildingBlock: ZUJKAS_clean_linker_0, # of connection points: 2
#     Edge 48, Type (0, 0), BuildingBlock: ZUJKAS_clean_linker_0, # of connection points: 2
#     Edge 49, Type (0, 0), BuildingBlock: ZUJKAS_clean_linker_0, # of connection points: 2
#     Edge 50, Type (0, 0), BuildingBlock: ZUJKAS_clean_linker_0, # of connection points: 2
#     Edge 51, Type (0, 0), BuildingBlock: ZUJKAS_clean_linker_0, # of connection points: 2
#     Edge 52, Type (0, 0), BuildingBlock: ZUJKAS_clean_linker_0, # of connection points: 2
#     Edge 53, Type (0, 0), BuildingBlock: ZUJKAS_clean_linker_0, # of connection points: 2
#     Edge 54, Type (0, 0), BuildingBlock: ZUJKAS_clean_linker_0, # of connection points: 2
#     Edge 55, Type (0, 0), BuildingBlock: ZUJKAS_clean_linker_0, # of connection points: 2
# Relax obj value: 0.320
# Max RMSD: 0.201
# Mean RMSD: 0.201
data_MOF--net-zfx--node1-XOMCOT_clean_sbu_1--edge1-ZUJKAS_clean_linker_0
_symmetry_space_group_name_H-M    P1
_symmetry_Int_Tables_number       1
_symmetry_cell_setting            triclinic
loop_
_symmetry_equiv_pos_as_xyz
'x, y, z'
_cell_length_a     80.057642
_cell_length_b     80.025994
_cell_length_c     30.332777
_cell_angle_alpha  90.019744
_cell_angle_beta   89.995074
_cell_angle_gamma 89.996555
loop_
_atom_site_label
_atom_site_type_symbol
_atom_site_fract_x
_atom_site_fract_y
_atom_site_fract_z
_atom_type_partial_charge
C0 C 0.5477 0.14737 0.38043 0.0
C1 C 0.56006 0.14925 0.41158 0.0
N2 N 0.55267 0.15096 0.45119 0.0
N3 N 0.5327 0.14787 0.4006 0.0
C4 C 0.53612 0.15011 0.44364 0.0
H5 H 0.54954 0.14495 0.3457 0.0
Co6 Co 0.51262 0.14249 0.37514 0.0
C7 C 0.48552 0.15622 0.43516 0.0
O8 O 0.47452 0.14586 0.41835 0.0
N9 N 0.49247 0.1365 0.34766 0.0
C10 C 0.47183 0.12189 0.31719 0.0
C11 C 0.48617 0.12097 0.34175 0.0
C12 C 0.48177 0.14659 0.32584 0.0
N13 N 0.4691 0.13801 0.30711 0.0
O14 O 0.51461 0.16209 0.3373 0.0
H15 H 0.49173 0.10949 0.35318 0.0
H16 H 0.48326 0.15999 0.32365 0.0
O17 O 0.50068 0.15587 0.42129 0.0
C18 C 0.51966 0.15848 0.29843 0.0
O19 O 0.5217 0.14262 0.28851 0.0
N20 N 0.51228 0.12269 0.40879 0.0
C21 C 0.51324 0.09001 0.44128 0.0
C22 C 0.50408 0.10248 0.46326 0.0
C23 C 0.50383 0.11884 0.44659 0.0
C24 C 0.52206 0.11099 0.3888 0.0
C25 C 0.52267 0.09461 0.40429 0.0
H26 H 0.49662 0.12809 0.46386 0.0
H27 H 0.52892 0.1143 0.35933 0.0
H28 H 0.52674 0.15 0.46934 0.0
H29 H 0.5734 0.14899 0.40576 0.0
H30 H 0.46447 0.1114 0.30581 0.0
H31 H 0.49675 0.09954 0.49222 0.0
H32 H 0.5303 0.08558 0.38694 0.0
C33 C 0.11197 0.2831 0.59263 0.0
C34 C 0.10847 0.29641 0.61993 0.0
N35 N 0.10772 0.29069 0.66167 0.0
N36 N 0.11336 0.26915 0.61722 0.0
C37 C 0.11072 0.27415 0.659 0.0
H38 H 0.11387 0.28365 0.55737 0.0
Co39 Co 0.12001 0.24834 0.59849 0.0
C40 C 0.10573 0.2235 0.66372 0.0
O41 O 0.11727 0.21254 0.65335 0.0
N42 N 0.1272 0.22722 0.57829 0.0
C43 C 0.14287 0.20518 0.56096 0.0
C44 C 0.14285 0.22082 0.57931 0.0
C45 C 0.11802 0.21519 0.55847 0.0
N46 N 0.12724 0.20163 0.54771 0.0
O47 O 0.10138 0.24825 0.55721 0.0
H48 H 0.15379 0.22695 0.59221 0.0
H49 H 0.10484 0.21649 0.55144 0.0
O50 O 0.10576 0.23792 0.64519 0.0
C51 C 0.1057 0.25119 0.51736 0.0
O52 O 0.12172 0.25209 0.50823 0.0
N53 N 0.1389 0.25005 0.63514 0.0
C54 C 0.17107 0.25243 0.67003 0.0
C55 C 0.15825 0.24453 0.69389 0.0
C56 C 0.14213 0.24353 0.67589 0.0
C57 C 0.15085 0.25895 0.61343 0.0
C58 C 0.16701 0.26019 0.63004 0.0
H59 H 0.13258 0.23721 0.69442 0.0
H60 H 0.14798 0.26435 0.58162 0.0
H61 H 0.11184 0.26593 0.68716 0.0
H62 H 0.10682 0.30928 0.60989 0.0
H63 H 0.15366 0.19717 0.55735 0.0
H64 H 0.16081 0.23859 0.72524 0.0
H65 H 0.17638 0.26681 0.61109 0.0
C66 C 0.97315 0.87411 0.89902 0.0
C67 C 0.95988 0.87127 0.92678 0.0
N68 N 0.96352 0.85784 0.95172 0.0
N69 N 0.98511 0.86265 0.90701 0.0
C70 C 0.97882 0.85278 0.93884 0.0
H71 H 0.97427 0.88415 0.87534 0.0
Co72 Co 0.00569 0.86211 0.87994 0.0
C73 C 0.02822 0.85318 0.95511 0.0
O74 O 0.03731 0.8663 0.94486 0.0
N75 N 0.02603 0.8615 0.84978 0.0
C76 C 0.05036 0.85452 0.81948 0.0
C77 C 0.04017 0.85254 0.85559 0.0
C78 C 0.02761 0.86799 0.80896 0.0
N79 N 0.04237 0.86426 0.79013 0.0
O80 O 0.9995 0.84144 0.8502 0.0
H81 H 0.04255 0.84394 0.88222 0.0
H82 H 0.01766 0.87461 0.79238 0.0
O83 O 0.01544 0.84958 0.9313 0.0
C84 C 0.99056 0.84446 0.81617 0.0
O85 O 0.98682 0.86012 0.80759 0.0
N86 N 0.0107 0.88334 0.90616 0.0
C87 C 0.01347 0.9161 0.93879 0.0
C88 C 0.00946 0.90278 0.96697 0.0
C89 C 0.00797 0.88656 0.94996 0.0
C90 C 0.01407 0.89632 0.87834 0.0
C91 C 0.01584 0.91263 0.89398 0.0
H92 H 0.00414 0.87664 0.97192 0.0
H93 H 0.01453 0.89442 0.84335 0.0
H94 H 0.9856 0.84251 0.95361 0.0
H95 H 0.94856 0.87864 0.92892 0.0
H96 H 0.06212 0.84819 0.81382 0.0
H97 H 0.00725 0.9049 1.00175 0.0
H98 H 0.01824 0.92258 0.87064 0.0
C99 C 0.38671 0.71824 0.14106 0.0
C100 C 0.38915 0.70542 0.17038 0.0
N101 N 0.40144 0.70995 0.19826 0.0
N102 N 0.3974 0.73076 0.15042 0.0
C103 C 0.40629 0.72532 0.18524 0.0
H104 H 0.37731 0.71871 0.11548 0.0
Co105 Co 0.39687 0.75114 0.12218 0.0
C106 C 0.4102 0.77481 0.1925 0.0
O107 O 0.39722 0.78459 0.18777 0.0
N108 N 0.39564 0.77168 0.09115 0.0
C109 C 0.38646 0.79583 0.06314 0.0
C110 C 0.38642 0.78557 0.09937 0.0
C111 C 0.40084 0.77385 0.04916 0.0
N112 N 0.39537 0.78827 0.03145 0.0
O113 O 0.41691 0.74479 0.08897 0.0
H114 H 0.37856 0.78754 0.12778 0.0
H115 H 0.40774 0.76468 0.03057 0.0
O116 O 0.41129 0.76139 0.16943 0.0
C117 C 0.41406 0.73433 0.05792 0.0
O118 O 0.39856 0.72952 0.05147 0.0
N119 N 0.37668 0.7558 0.15168 0.0
C120 C 0.34435 0.75836 0.18607 0.0
C121 C 0.35825 0.75707 0.2142 0.0
C122 C 0.37434 0.75562 0.19631 0.0
C123 C 0.36326 0.75634 0.12404 0.0
C124 C 0.34707 0.75797 0.14043 0.0
H125 H 0.38482 0.75384 0.21825 0.0
H126 H 0.36516 0.75533 0.08882 0.0
H127 H 0.41551 0.7328 0.20221 0.0
H128 H 0.38218 0.69385 0.17166 0.0
H129 H 0.37931 0.80721 0.05911 0.0
H130 H 0.35669 0.75701 0.24967 0.0
H131 H 0.33671 0.75833 0.11748 0.0
C132 C 0.5437 0.85953 0.64573 0.0
C133 C 0.55798 0.858 0.62082 0.0
N134 N 0.55353 0.85755 0.57797 0.0
N135 N 0.53038 0.85993 0.61866 0.0
C136 C 0.53671 0.85871 0.5777 0.0
H137 H 0.54308 0.86065 0.68122 0.0
Co138 Co 0.50867 0.86369 0.63546 0.0
C139 C 0.48648 0.8504 0.5633 0.0
O140 O 0.47578 0.86245 0.57166 0.0
N141 N 0.48671 0.86778 0.65405 0.0
C142 C 0.46282 0.87948 0.67528 0.0
C143 C 0.47882 0.88249 0.66107 0.0
C144 C 0.47527 0.85607 0.66472 0.0
N145 N 0.4606 0.86284 0.67733 0.0
O146 O 0.50992 0.84398 0.67313 0.0
H147 H 0.48421 0.89472 0.65676 0.0
H148 H 0.47777 0.84279 0.66391 0.0
O149 O 0.50031 0.84975 0.58481 0.0
C150 C 0.51113 0.84716 0.71436 0.0
O151 O 0.50981 0.86278 0.7273 0.0
N152 N 0.50891 0.88374 0.60277 0.0
C153 C 0.51155 0.91633 0.57011 0.0
C154 C 0.50614 0.9032 0.54284 0.0
C155 C 0.50517 0.88689 0.55959 0.0
C156 C 0.515 0.89619 0.62887 0.0
C157 C 0.51624 0.91255 0.6135 0.0
H158 H 0.50173 0.87697 0.53742 0.0
H159 H 0.51846 0.8934 0.66256 0.0
H160 H 0.52913 0.85933 0.54825 0.0
H161 H 0.57061 0.85732 0.63338 0.0
H162 H 0.45361 0.88883 0.68397 0.0
H163 H 0.50293 0.90546 0.50867 0.0
H164 H 0.52047 0.92221 0.63587 0.0
C165 C 0.40129 0.28534 0.88433 0.0
C166 C 0.40441 0.29822 0.85543 0.0
N167 N 0.4055 0.29173 0.81456 0.0
N168 N 0.40049 0.27089 0.86159 0.0
C169 C 0.40312 0.27517 0.81926 0.0
H170 H 0.39908 0.28653 0.91935 0.0
Co171 Co 0.39387 0.2505 0.8832 0.0
C172 C 0.4102 0.22416 0.82484 0.0
O173 O 0.40095 0.21226 0.84182 0.0
N174 N 0.38654 0.22996 0.90677 0.0
C175 C 0.3702 0.20964 0.93256 0.0
C176 C 0.37082 0.22369 0.90676 0.0
C177 C 0.39517 0.21937 0.93293 0.0
N178 N 0.38552 0.207 0.94916 0.0
O179 O 0.41229 0.25143 0.92516 0.0
H180 H 0.36012 0.22924 0.89089 0.0
H181 H 0.40814 0.22113 0.94174 0.0
O182 O 0.40837 0.23926 0.83833 0.0
C183 C 0.40777 0.25568 0.96404 0.0
O184 O 0.39172 0.25753 0.97181 0.0
N185 N 0.37529 0.25114 0.84533 0.0
C186 C 0.34395 0.25326 0.80505 0.0
C187 C 0.35668 0.24331 0.78676 0.0
C188 C 0.37234 0.24246 0.80734 0.0
C189 C 0.36333 0.26138 0.86241 0.0
C190 C 0.34761 0.26259 0.84299 0.0
H191 H 0.38176 0.23452 0.79316 0.0
H192 H 0.36585 0.26813 0.8926 0.0
H193 H 0.40228 0.26643 0.79211 0.0
H194 H 0.40544 0.31134 0.8637 0.0
H195 H 0.35916 0.20234 0.93993 0.0
H196 H 0.35451 0.2361 0.75709 0.0
H197 H 0.33821 0.27026 0.85877 0.0
C198 C 0.97415 0.13424 0.11904 0.0
C199 C 0.95982 0.13632 0.09452 0.0
N200 N 0.96274 0.14829 0.06426 0.0
N201 N 0.98602 0.14467 0.10371 0.0
C202 C 0.97863 0.15324 0.07089 0.0
H203 H 0.97608 0.1252 0.14504 0.0
Co204 Co 0.00798 0.14498 0.12185 0.0
C205 C 0.02631 0.15243 0.03813 0.0
O206 O 0.03543 0.13909 0.04588 0.0
N207 N 0.03017 0.14547 0.14248 0.0
C208 C 0.05654 0.15252 0.1571 0.0
C209 C 0.04319 0.15509 0.12954 0.0
C210 C 0.03568 0.13812 0.17985 0.0
N211 N 0.05172 0.14182 0.18866 0.0
O212 O 0.00389 0.16607 0.15179 0.0
H213 H 0.04285 0.16444 0.10395 0.0
H214 H 0.02781 0.13108 0.20206 0.0
O215 O 0.01497 0.15667 0.06604 0.0
C216 C 0.99998 0.16364 0.19219 0.0
O217 O 0.99955 0.14819 0.20676 0.0
N218 N 0.01085 0.12333 0.09594 0.0
C219 C 0.01214 0.09021 0.06536 0.0
C220 C 0.00704 0.10323 0.03743 0.0
C221 C 0.00622 0.11964 0.05354 0.0
C222 C 0.01476 0.11059 0.124 0.0
C223 C 0.01588 0.09411 0.10927 0.0
H224 H 1.00163 0.12934 0.03196 0.0
H225 H 0.0162 0.1129 0.15863 0.0
H226 H 0.98506 0.16222 0.05036 0.0
H227 H 0.94837 0.12924 0.09775 0.0
H228 H 0.06835 0.15911 0.15635 0.0
H229 H 0.00362 0.10077 0.0035 0.0
H230 H 0.01899 0.08437 0.13269 0.0
C231 C 0.11815 0.72394 0.41186 0.0
C232 C 0.11515 0.70975 0.38757 0.0
N233 N 0.11228 0.7144 0.34561 0.0
N234 N 0.11694 0.73741 0.38535 0.0
C235 C 0.11341 0.7312 0.34515 0.0
H236 H 0.12129 0.72439 0.4465 0.0
Co237 Co 0.12083 0.7591 0.40248 0.0
C238 C 0.10824 0.78127 0.33016 0.0
O239 O 0.12112 0.79107 0.3374 0.0
N240 N 0.12497 0.78102 0.42161 0.0
C241 C 0.13638 0.80458 0.44642 0.0
C242 C 0.13955 0.78864 0.43186 0.0
C243 C 0.11316 0.79258 0.43071 0.0
N244 N 0.11977 0.80702 0.44541 0.0
O245 O 0.10142 0.75782 0.44118 0.0
H246 H 0.15178 0.78308 0.43013 0.0
H247 H 0.09989 0.79025 0.4277 0.0
O248 O 0.10668 0.76777 0.35277 0.0
C249 C 0.10562 0.75464 0.48099 0.0
O250 O 0.12164 0.7543 0.4904 0.0
N251 N 0.14065 0.75889 0.36862 0.0
C252 C 0.17281 0.75635 0.33285 0.0
C253 C 0.15901 0.76007 0.30591 0.0
C254 C 0.14294 0.76095 0.32429 0.0
C255 C 0.15371 0.75407 0.39444 0.0
C256 C 0.16988 0.75305 0.37759 0.0
H257 H 0.13252 0.76292 0.30248 0.0
H258 H 0.15157 0.7515 0.42901 0.0
H259 H 0.11171 0.73884 0.31606 0.0
H260 H 0.11542 0.69702 0.39955 0.0
H261 H 0.14554 0.81354 0.45781 0.0
H262 H 0.16055 0.76199 0.27082 0.0
H263 H 0.18002 0.75004 0.39983 0.0
C264 C 0.89946 0.77817 0.41595 0.0
C265 C 0.90299 0.79157 0.38908 0.0
N266 N 0.90418 0.78593 0.34734 0.0
N267 N 0.89863 0.76421 0.39119 0.0
C268 C 0.90151 0.76932 0.34963 0.0
H269 H 0.89718 0.77867 0.45105 0.0
Co270 Co 0.89266 0.74315 0.40975 0.0
C271 C 0.90847 0.71872 0.34503 0.0
O272 O 0.8984 0.70668 0.3575 0.0
N273 N 0.88608 0.72187 0.43002 0.0
C274 C 0.87084 0.69962 0.4479 0.0
C275 C 0.87057 0.71518 0.42917 0.0
C276 C 0.89548 0.71015 0.45044 0.0
N277 N 0.88652 0.69643 0.46135 0.0
O278 O 0.91137 0.74353 0.45082 0.0
H279 H 0.8595 0.72114 0.41635 0.0
H280 H 0.90861 0.71175 0.45764 0.0
O281 O 0.90713 0.73327 0.36256 0.0
C282 C 0.90704 0.74754 0.49001 0.0
O283 O 0.89099 0.74899 0.49842 0.0
N284 N 0.87368 0.74431 0.37306 0.0
C285 C 0.84159 0.74634 0.33691 0.0
C286 C 0.85435 0.7375 0.31512 0.0
C287 C 0.8704 0.73668 0.33368 0.0
C288 C 0.86175 0.75377 0.3931 0.0
C289 C 0.84568 0.75496 0.3757 0.0
H290 H 0.87983 0.72953 0.31689 0.0
H291 H 0.86458 0.75989 0.42402 0.0
H292 H 0.90144 0.76101 0.32152 0.0
H293 H 0.90411 0.80448 0.39931 0.0
H294 H 0.86021 0.69139 0.45162 0.0
H295 H 0.85182 0.73073 0.28494 0.0
H296 H 0.83645 0.76235 0.39309 0.0
C297 C 0.61983 0.22322 0.90672 0.0
C298 C 0.61736 0.20859 0.88385 0.0
N299 N 0.6125 0.21249 0.84257 0.0
N300 N 0.61647 0.23622 0.88002 0.0
C301 C 0.61192 0.22935 0.84136 0.0
H302 H 0.62447 0.22436 0.94007 0.0
Co303 Co 0.62056 0.25814 0.89412 0.0
C304 C 0.60913 0.27888 0.81816 0.0
O305 O 0.62251 0.28813 0.82408 0.0
N306 N 0.62502 0.2805 0.91026 0.0
C307 C 0.63709 0.30435 0.93039 0.0
C308 C 0.63981 0.28841 0.91569 0.0
C309 C 0.61352 0.29208 0.92179 0.0
N310 N 0.62052 0.30669 0.93449 0.0
O311 O 0.60103 0.25768 0.93231 0.0
H312 H 0.65201 0.28311 0.91076 0.0
H313 H 0.60024 0.28966 0.92161 0.0
O314 O 0.60669 0.26617 0.84326 0.0
C315 C 0.60469 0.25573 0.97301 0.0
O316 O 0.62052 0.25638 0.98439 0.0
N317 N 0.64042 0.25686 0.86059 0.0
C318 C 0.67237 0.25214 0.82457 0.0
C319 C 0.65836 0.2546 0.79723 0.0
C320 C 0.64245 0.25669 0.81585 0.0
C321 C 0.65358 0.25302 0.88721 0.0
C322 C 0.66965 0.25118 0.87024 0.0
H323 H 0.63187 0.25766 0.79404 0.0
H324 H 0.65161 0.25202 0.92241 0.0
H325 H 0.60872 0.23662 0.81256 0.0
H326 H 0.61973 0.19612 0.89615 0.0
H327 H 0.64671 0.31313 0.93984 0.0
H328 H 0.65956 0.25457 0.76169 0.0
H329 H 0.67983 0.24931 0.89315 0.0
C330 C 0.618 0.78944 0.126 0.0
C331 C 0.61799 0.80298 0.15388 0.0
N332 N 0.61584 0.79738 0.19535 0.0
N333 N 0.61568 0.77538 0.14972 0.0
C334 C 0.61451 0.78063 0.19181 0.0
H335 H 0.62013 0.78991 0.09091 0.0
Co336 Co 0.61674 0.75353 0.1298 0.0
C337 C 0.59053 0.73661 0.18258 0.0
O338 O 0.58391 0.73126 0.14555 0.0
N339 N 0.61841 0.73161 0.10957 0.0
C340 C 0.62238 0.70414 0.10414 0.0
C341 C 0.62033 0.71734 0.13286 0.0
C342 C 0.61967 0.72683 0.06717 0.0
N343 N 0.62187 0.71024 0.06283 0.0
O344 O 0.59656 0.75725 0.09458 0.0
H345 H 0.62047 0.71656 0.16845 0.0
H346 H 0.61956 0.73533 0.03969 0.0
O347 O 0.60353 0.7459 0.18114 0.0
C348 C 0.59954 0.76266 0.05564 0.0
O349 O 0.61515 0.76501 0.0438 0.0
N350 N 0.63698 0.75081 0.15975 0.0
C351 C 0.66963 0.74946 0.19221 0.0
C352 C 0.656 0.74501 0.21907 0.0
C353 C 0.63969 0.74583 0.20223 0.0
C354 C 0.65003 0.75494 0.13317 0.0
C355 C 0.66641 0.75436 0.14863 0.0
H356 H 0.62935 0.74258 0.22344 0.0
H357 H 0.64762 0.75881 0.0996 0.0
H358 H 0.61347 0.77222 0.21957 0.0
H359 H 0.61957 0.8159 0.14424 0.0
H360 H 0.62396 0.69113 0.11293 0.0
H361 H 0.6579 0.74125 0.25299 0.0
H362 H 0.67649 0.75762 0.12642 0.0
C363 C 0.89957 0.22114 0.59684 0.0
C364 C 0.90199 0.20725 0.62285 0.0
N365 N 0.90442 0.21243 0.66463 0.0
N366 N 0.90062 0.23493 0.62218 0.0
C367 C 0.90367 0.22925 0.66316 0.0
H368 H 0.89667 0.2212 0.56201 0.0
Co369 Co 0.89611 0.25636 0.60401 0.0
C370 C 0.90719 0.27901 0.67672 0.0
O371 O 0.89391 0.28821 0.66894 0.0
N372 N 0.89135 0.27817 0.5841 0.0
C373 C 0.87912 0.30112 0.55832 0.0
C374 C 0.8765 0.28539 0.57472 0.0
C375 C 0.90277 0.28986 0.57297 0.0
N376 N 0.89568 0.30395 0.55703 0.0
O377 O 0.91578 0.25542 0.56617 0.0
H378 H 0.8644 0.27967 0.57784 0.0
H379 H 0.91609 0.2879 0.57588 0.0
O380 O 0.90965 0.26574 0.65375 0.0
C381 C 0.91239 0.25372 0.52519 0.0
O382 O 0.89667 0.2544 0.5129 0.0
N383 N 0.8761 0.25561 0.63712 0.0
C384 C 0.84384 0.25163 0.67189 0.0
C385 C 0.85749 0.2554 0.69944 0.0
C386 C 0.87356 0.25714 0.68152 0.0
C387 C 0.8633 0.2506 0.61068 0.0
C388 C 0.84708 0.24905 0.62689 0.0
H389 H 0.88384 0.25925 0.70374 0.0
H390 H 0.86566 0.24839 0.57603 0.0
H391 H 0.90503 0.2373 0.69156 0.0
H392 H 0.90137 0.19436 0.61214 0.0
H393 H 0.86954 0.3094 0.54584 0.0
H394 H 0.8559 0.25671 0.73471 0.0
H395 H 0.83719 0.24615 0.60384 0.0
C396 C 0.0433 0.64389 0.88365 0.0
C397 C 0.05635 0.64443 0.91316 0.0
N398 N 0.0499 0.64675 0.95363 0.0
N399 N 0.02881 0.64618 0.90556 0.0
C400 C 0.03325 0.64783 0.94815 0.0
H401 H 0.04433 0.64187 0.84853 0.0
Co402 Co 0.00771 0.6461 0.8811 0.0
C403 C 0.98452 0.65642 0.95373 0.0
O404 O 0.97432 0.64453 0.94061 0.0
N405 N 0.98659 0.64613 0.85472 0.0
C406 C 0.96232 0.65534 0.82861 0.0
C407 C 0.97571 0.65905 0.85506 0.0
C408 C 0.97991 0.63511 0.8259 0.0
N409 N 0.96501 0.64026 0.81056 0.0
O410 O 0.01278 0.66692 0.85052 0.0
H411 H 0.97775 0.6708 0.87183 0.0
H412 H 0.98622 0.62413 0.8137 0.0
O413 O 0.99851 0.65846 0.93358 0.0
C414 C 0.01772 0.66351 0.8114 0.0
O415 O 0.01768 0.64775 0.79914 0.0
N416 N 0.00407 0.62475 0.9067 0.0
C417 C 0.00311 0.59107 0.93252 0.0
C418 C 1.00095 0.60394 0.96352 0.0
C419 C 1.00184 0.6207 0.95014 0.0
C420 C 0.00705 0.6124 0.87679 0.0
C421 C 0.00628 0.59556 0.88863 0.0
H422 H 1.00136 0.63021 0.97523 0.0
H423 H 0.01051 0.61565 0.84344 0.0
H424 H 0.02453 0.64997 0.97478 0.0
H425 H 0.0695 0.64304 0.90564 0.0
H426 H 0.95211 0.66363 0.82029 0.0
H427 H 0.99921 0.60112 0.99813 0.0
H428 H 0.00829 0.58617 0.86348 0.0
C429 C 0.47583 0.37385 0.37423 0.0
C430 C 0.46075 0.37197 0.39525 0.0
N431 N 0.46192 0.35873 0.42245 0.0
N432 N 0.48643 0.36193 0.38848 0.0
C433 C 0.4776 0.35283 0.41756 0.0
H434 H 0.47906 0.38352 0.35082 0.0
Co435 Co 0.50839 0.36034 0.37113 0.0
C436 C 0.52221 0.33331 0.42625 0.0
O437 O 0.52678 0.32583 0.38961 0.0
N438 N 0.53043 0.35928 0.35255 0.0
C439 C 0.55796 0.36231 0.34699 0.0
C440 C 0.54464 0.3616 0.37578 0.0
C441 C 0.53534 0.35864 0.31021 0.0
N442 N 0.55196 0.36038 0.30588 0.0
O443 O 0.5028 0.34043 0.33694 0.0
H444 H 0.5452 0.36337 0.41111 0.0
H445 H 0.52683 0.35786 0.28266 0.0
O446 O 0.51421 0.34713 0.424 0.0
C447 C 0.49634 0.34442 0.29984 0.0
O448 O 0.49466 0.3604 0.29082 0.0
N449 N 0.51293 0.38043 0.40049 0.0
C450 C 0.51524 0.41301 0.43321 0.0
C451 C 0.51204 0.39949 0.46164 0.0
C452 C 0.51085 0.38324 0.44455 0.0
C453 C 0.51639 0.39331 0.37264 0.0
C454 C 0.51778 0.40963 0.3883 0.0
H455 H 0.5075 0.37309 0.46634 0.0
H456 H 0.51759 0.39095 0.33766 0.0
H457 H 0.48275 0.34251 0.43617 0.0
H458 H 0.44988 0.37988 0.3914 0.0
H459 H 0.57094 0.36434 0.35547 0.0
H460 H 0.50975 0.40151 0.49641 0.0
H461 H 0.52052 0.41954 0.36514 0.0
C462 C 0.04219 0.37694 0.10855 0.0
C463 C 0.05635 0.37496 0.08344 0.0
N464 N 0.05384 0.36203 0.05582 0.0
N465 N 0.03083 0.36539 0.09647 0.0
C466 C 0.0383 0.3564 0.06458 0.0
H467 H 0.04006 0.38651 0.13312 0.0
Co468 Co 0.00938 0.3643 0.11817 0.0
C469 C 0.99375 0.3374 0.06577 0.0
O470 O 0.98965 0.33009 0.10302 0.0
N471 N 0.9879 0.36373 0.14086 0.0
C472 C 0.96056 0.36676 0.15078 0.0
C473 C 0.97319 0.3661 0.11996 0.0
C474 C 0.98398 0.36308 0.18393 0.0
N475 N 0.96747 0.36481 0.1909 0.0
O476 O 0.01537 0.34427 0.15135 0.0
H477 H 0.97181 0.36775 0.08475 0.0
H478 H 0.99311 0.36209 0.21001 0.0
O479 O 0.00196 0.3511 0.06679 0.0
C480 C 0.02305 0.34778 0.18714 0.0
O481 O 0.02571 0.36363 0.19618 0.0
N482 N 0.00441 0.38445 0.08943 0.0
C483 C 1.00035 0.4168 0.05627 0.0
C484 C 0.00293 0.40319 0.02769 0.0
C485 C 0.00496 0.38705 0.04496 0.0
C486 C 0.00194 0.39748 0.11759 0.0
C487 C 0.99974 0.41369 0.10176 0.0
H488 H 0.00749 0.3768 0.02274 0.0
H489 H 0.00209 0.39529 0.15278 0.0
H490 H 0.03222 0.34642 0.04665 0.0
H491 H 0.06748 0.38263 0.08481 0.0
H492 H 0.94739 0.36859 0.14429 0.0
H493 H 0.00353 0.40501 0.99235 0.0
H494 H 0.99818 0.42379 0.12517 0.0
C495 C 0.48086 0.63964 0.65501 0.0
C496 C 0.46696 0.64258 0.62955 0.0
N497 N 0.47209 0.64585 0.58814 0.0
N498 N 0.49462 0.64123 0.62978 0.0
C499 C 0.48891 0.64498 0.58925 0.0
H500 H 0.48092 0.63616 0.68944 0.0
Co501 Co 0.51602 0.63696 0.64814 0.0
C502 C 0.53912 0.6501 0.57799 0.0
O503 O 0.54949 0.63786 0.58703 0.0
N504 N 0.53772 0.63222 0.6686 0.0
C505 C 0.56064 0.61938 0.69249 0.0
C506 C 0.54524 0.61721 0.67368 0.0
C507 C 0.54892 0.64329 0.68467 0.0
N508 N 0.56296 0.63581 0.69961 0.0
O509 O 0.51457 0.65631 0.68705 0.0
H510 H 0.53995 0.60523 0.6656 0.0
H511 H 0.54667 0.65661 0.68589 0.0
O512 O 0.52528 0.65115 0.59932 0.0
C513 C 0.51114 0.65227 0.72684 0.0
O514 O 0.51094 0.6363 0.73689 0.0
N515 N 0.51577 0.61725 0.61388 0.0
C516 C 0.51426 0.58491 0.57913 0.0
C517 C 0.51902 0.59848 0.55255 0.0
C518 C 0.51946 0.61466 0.57041 0.0
C519 C 0.50966 0.60446 0.63876 0.0
C520 C 0.50906 0.58819 0.6224 0.0
H521 H 0.52267 0.62489 0.549 0.0
H522 H 0.50591 0.60685 0.67245 0.0
H523 H 0.49694 0.64688 0.56101 0.0
H524 H 0.4541 0.64189 0.64038 0.0
H525 H 0.56906 0.60948 0.70236 0.0
H526 H 0.52269 0.5966 0.51854 0.0
H527 H 0.50467 0.57824 0.64366 0.0
H528 H 0.51373 0.07731 0.52569 0.0
H529 H 0.51352 0.04781 0.54787 0.0
H530 H 0.51101 0.03299 0.41138 0.0
H531 H 0.51108 0.06228 0.38901 0.0
H532 H 0.49 0.02235 0.53102 0.0
H533 H 0.55157 0.00706 0.4575 0.0
H534 H 0.54466 0.02828 0.46616 0.0
H535 H 0.53722 0.01656 0.41955 0.0
C536 C 0.51303 0.06777 0.50043 0.0
C537 C 0.51266 0.07218 0.45553 0.0
C538 C 0.51297 0.05092 0.51314 0.0
C539 C 0.51259 0.03819 0.48123 0.0
C540 C 0.51175 0.04258 0.43653 0.0
H541 H 0.48867 0.93277 0.51855 0.0
H542 H 0.4889 0.96223 0.49649 0.0
C543 C 0.51182 0.05935 0.42382 0.0
C544 C 0.51294 0.02031 0.49442 0.0
H545 H 0.53511 0.98412 0.48189 0.0
C546 C 0.49988 0.014 0.52045 0.0
C547 C 0.52595 0.00946 0.48099 0.0
C548 C 0.54074 0.01568 0.45486 0.0
C549 C 0.49932 0.99706 0.53268 0.0
C550 C 0.51204 0.98609 0.51796 0.0
C551 C 0.52526 0.99249 0.49267 0.0
C552 C 0.51214 0.96804 0.52957 0.0
C553 C 0.48527 0.9911 0.56185 0.0
C554 C 0.52542 0.96136 0.55405 0.0
C555 C 0.52542 0.94452 0.56628 0.0
C556 C 0.51215 0.93393 0.5541 0.0
C557 C 0.49911 0.94054 0.52833 0.0
C558 C 0.49912 0.95743 0.51616 0.0
H559 H 0.479 1.00165 0.579 0.0
H560 H 0.4758 0.98462 0.54134 0.0
H561 H 0.48991 0.98213 0.58696 0.0
H562 H 0.53569 0.96927 0.56437 0.0
H563 H 0.5358 0.93979 0.58547 0.0
H564 H 0.32613 0.22681 0.77172 0.0
H565 H 0.29709 0.22661 0.74663 0.0
H566 H 0.29326 0.27935 0.77407 0.0
H567 H 0.32244 0.27982 0.79727 0.0
H568 H 0.26916 0.23396 0.79389 0.0
H569 H 0.274 0.27691 0.65127 0.0
H570 H 0.29212 0.26804 0.67777 0.0
H571 H 0.28179 0.28589 0.70143 0.0
C572 C 0.31925 0.23846 0.77142 0.0
C573 C 0.32669 0.25334 0.78645 0.0
C574 C 0.30258 0.23829 0.75748 0.0
C575 C 0.29301 0.25299 0.75805 0.0
C576 C 0.30044 0.2679 0.77255 0.0
H577 H 0.18359 0.25798 0.75327 0.0
H578 H 0.21302 0.25789 0.77609 0.0
C579 C 0.31711 0.2681 0.7863 0.0
C580 C 0.27507 0.25262 0.74519 0.0
H581 H 0.24654 0.27027 0.67568 0.0
C582 C 0.26421 0.24184 0.76789 0.0
C583 C 0.26865 0.26279 0.71101 0.0
C584 C 0.27977 0.27394 0.68365 0.0
C585 C 0.2471 0.24108 0.75768 0.0
C586 C 0.24058 0.25165 0.72446 0.0
C587 C 0.25148 0.2623 0.70149 0.0
C588 C 0.22264 0.25141 0.71156 0.0
C589 C 0.23625 0.22868 0.78188 0.0
C590 C 0.21824 0.24812 0.66764 0.0
C591 C 0.20153 0.24835 0.65452 0.0
C592 C 0.18877 0.25191 0.68501 0.0
C593 C 0.19313 0.25505 0.72914 0.0
C594 C 0.20993 0.25495 0.74222 0.0
H595 H 0.2438 0.2186 0.79729 0.0
H596 H 0.22938 0.23524 0.80851 0.0
H597 H 0.22697 0.22289 0.75936 0.0
H598 H 0.22779 0.24532 0.6434 0.0
H599 H 0.19858 0.24561 0.62042 0.0
H600 H 0.98953 0.07349 0.01342 0.0
H601 H 0.98981 0.04389 0.99275 0.0
H602 H 0.03649 0.03736 0.06156 0.0
H603 H 0.03621 0.06685 0.08266 0.0
H604 H 0.01162 0.02509 0.94545 0.0
H605 H 0.00826 1.00098 0.1164 0.0
H606 H 0.00472 0.02267 0.10312 0.0
H607 H 0.02567 0.01469 0.10763 0.0
C608 C 0.99993 0.06579 0.02381 0.0
C609 C 0.01278 0.07252 0.05001 0.0
C610 C 1.00003 0.04884 0.01216 0.0
C611 C 0.01297 0.03828 0.02644 0.0
C612 C 0.02611 0.04511 0.05125 0.0
H613 H 0.03637 0.94023 0.91785 0.0
H614 H 0.03624 0.96968 0.93955 0.0
C615 C 0.02596 0.062 0.06314 0.0
C616 C 0.0128 0.02016 0.01514 0.0
H617 H 0.01418 0.98103 0.06027 0.0
C618 C 0.01212 0.01546 0.97057 0.0
C619 C 0.01317 0.00755 0.04791 0.0
C620 C 0.01282 0.01169 0.09645 0.0
C621 C 0.01213 0.99856 0.95785 0.0
C622 C 0.01324 0.98596 0.99056 0.0
C623 C 0.01357 0.99066 0.03516 0.0
C624 C 0.01383 0.96786 0.97916 0.0
C625 C 0.01063 0.99438 0.90949 0.0
C626 C 1.00172 0.95682 0.99577 0.0
C627 C 1.00187 0.93991 0.98378 0.0
C628 C 0.01415 0.93369 0.95492 0.0
C629 C 0.02658 0.94468 0.93953 0.0
C630 C 0.02647 0.96154 0.95175 0.0
H631 H 0.00511 0.00488 0.89049 0.0
H632 H 0.02326 0.99188 0.89589 0.0
H633 H 0.00282 0.98308 0.90435 0.0
H634 H 0.99189 0.96137 0.01719 0.0
H635 H 0.99204 0.93183 0.99594 0.0
H636 H 0.33046 0.74023 0.25351 0.0
H637 H 0.30125 0.7402 0.27773 0.0
H638 H 0.28984 0.7786 0.1827 0.0
H639 H 0.31893 0.77857 0.15807 0.0
H640 H 0.28108 0.76457 0.31218 0.0
H641 H 0.25567 0.74324 0.15165 0.0
H642 H 0.27769 0.74274 0.16415 0.0
H643 H 0.26787 0.76198 0.14766 0.0
C644 C 0.32177 0.74879 0.2381 0.0
C645 C 0.32699 0.7593 0.20358 0.0
C646 C 0.30505 0.7487 0.25181 0.0
C647 C 0.29324 0.75911 0.23132 0.0
C648 C 0.29859 0.77009 0.1981 0.0
H649 H 0.18694 0.77736 0.27168 0.0
H650 H 0.21604 0.77793 0.24657 0.0
C651 C 0.31524 0.77011 0.18419 0.0
C652 C 0.27536 0.7585 0.2447 0.0
H653 H 0.23586 0.75178 0.20549 0.0
C654 C 0.27121 0.76169 0.28889 0.0
C655 C 0.26245 0.75474 0.21429 0.0
C656 C 0.26612 0.75032 0.16689 0.0
C657 C 0.25452 0.76149 0.30332 0.0
C658 C 0.24164 0.75781 0.27288 0.0
C659 C 0.24576 0.75466 0.2287 0.0
C660 C 0.22384 0.75696 0.28651 0.0
C661 C 0.25076 0.76549 0.35091 0.0
C662 C 0.21848 0.74468 0.31631 0.0
C663 C 0.20185 0.74421 0.33038 0.0
C664 C 0.19019 0.75603 0.31499 0.0
C665 C 0.19551 0.76799 0.284 0.0
C666 C 0.21217 0.76841 0.26981 0.0
H667 H 0.26145 0.77176 0.3674 0.0
H668 H 0.23959 0.77366 0.35359 0.0
H669 H 0.24809 0.75372 0.36889 0.0
H670 H 0.22719 0.73548 0.32884 0.0
H671 H 0.19815 0.73457 0.35345 0.0
H672 H 0.83008 0.74794 0.25127 0.0
H673 H 0.80093 0.74825 0.22616 0.0
H674 H 0.78415 0.74449 0.3608 0.0
H675 H 0.81306 0.74392 0.38608 0.0
H676 H 0.77469 0.72444 0.24038 0.0
H677 H 0.75969 0.78622 0.31354 0.0
H678 H 0.78087 0.77905 0.30574 0.0
H679 H 0.76873 0.77156 0.35149 0.0
C680 C 0.82019 0.74706 0.27551 0.0
C681 C 0.82397 0.74615 0.32078 0.0
C682 C 0.80354 0.7473 0.26111 0.0
C683 C 0.79036 0.7467 0.29168 0.0
C684 C 0.79409 0.74536 0.3367 0.0
H685 H 0.68464 0.72583 0.24484 0.0
H686 H 0.71383 0.72496 0.26931 0.0
C687 C 0.81067 0.7451 0.35108 0.0
C688 C 0.77268 0.74743 0.27681 0.0
H689 H 0.73686 0.77041 0.28604 0.0
C690 C 0.76642 0.73451 0.2502 0.0
C691 C 0.76194 0.76066 0.28935 0.0
C692 C 0.76814 0.77525 0.31627 0.0
C693 C 0.74963 0.73431 0.23645 0.0
C694 C 0.73877 0.7473 0.25009 0.0
C695 C 0.74513 0.76036 0.27604 0.0
C696 C 0.72093 0.7479 0.23649 0.0
C697 C 0.74372 0.72037 0.20684 0.0
C698 C 0.71507 0.76133 0.21114 0.0
C699 C 0.6984 0.76193 0.19747 0.0
C700 C 0.68714 0.74914 0.20902 0.0
C701 C 0.69294 0.7359 0.23546 0.0
C702 C 0.70967 0.73529 0.24905 0.0
H703 H 0.75432 0.71369 0.1911 0.0
H704 H 0.73656 0.71119 0.2267 0.0
H705 H 0.73536 0.72524 0.1806 0.0
H706 H 0.72347 0.77128 0.20142 0.0
H707 H 0.69432 0.77247 0.17782 0.0
H708 H 0.81808 0.23149 0.64302 0.0
H709 H 0.78908 0.23171 0.66648 0.0
H710 H 0.80093 0.26779 0.76738 0.0
H711 H 0.82969 0.26894 0.74129 0.0
H712 H 0.77371 0.22332 0.73588 0.0
H713 H 0.76239 0.29098 0.71454 0.0
H714 H 0.78134 0.28109 0.69593 0.0
H715 H 0.779 0.28721 0.75283 0.0
C716 C 0.81455 0.23983 0.66952 0.0
C717 C 0.82637 0.2505 0.6894 0.0
C718 C 0.79789 0.23976 0.68335 0.0
C719 C 0.79258 0.25011 0.718 0.0
C720 C 0.80449 0.26012 0.73952 0.0
H721 H 0.69885 0.23366 0.85656 0.0
H722 H 0.7275 0.23333 0.83052 0.0
C723 C 0.8211 0.2605 0.72504 0.0
C724 C 0.77466 0.25018 0.73168 0.0
H725 H 0.74157 0.27582 0.75399 0.0
C726 C 0.76667 0.23482 0.7395 0.0
C727 C 0.76524 0.26512 0.73554 0.0
C728 C 0.77238 0.282 0.72378 0.0
C729 C 0.74973 0.23397 0.75151 0.0
C730 C 0.74061 0.24895 0.758 0.0
C731 C 0.74852 0.26431 0.7496 0.0
C732 C 0.72294 0.24907 0.77373 0.0
C733 C 0.74176 0.21695 0.75579 0.0
C734 C 0.71074 0.25855 0.75168 0.0
C735 C 0.69434 0.25938 0.76769 0.0
C736 C 0.68965 0.25061 0.80601 0.0
C737 C 0.70188 0.24088 0.8275 0.0
C738 C 0.71832 0.24037 0.81203 0.0
H739 H 0.74824 0.20758 0.73483 0.0
H740 H 0.74278 0.21267 0.79047 0.0
H741 H 0.72837 0.21722 0.74634 0.0
H742 H 0.71394 0.26548 0.7222 0.0
H743 H 0.68549 0.26724 0.75049 0.0
H744 H 0.98211 0.57574 0.99177 0.0
H745 H 0.98138 0.54614 0.01253 0.0
H746 H 0.02199 0.53604 0.92309 0.0
H747 H 0.02323 0.56557 0.9034 0.0
H748 H 0.97567 0.51833 0.95975 0.0
H749 H 0.03844 0.51453 0.03632 0.0
H750 H 0.0284 0.53419 0.02418 0.0
H751 H 0.03874 0.52266 0.98119 0.0
C752 C 0.99105 0.56727 0.97699 0.0
C753 C 0.00273 0.5731 0.94588 0.0
C754 C 0.99053 0.55032 0.98866 0.0
C755 C 1.00177 0.53888 0.96981 0.0
C756 C 0.01339 0.54465 0.9387 0.0
H757 H 0.01903 0.43173 0.99144 0.0
H758 H 0.01849 0.46107 0.96839 0.0
C759 C 0.01393 0.56155 0.92704 0.0
C760 C 1.00111 0.52084 0.98177 0.0
H761 H 0.02454 0.48876 0.02316 0.0
C762 C 0.98632 0.51188 0.97387 0.0
C763 C 0.01502 0.51241 1.0001 0.0
C764 C 0.031 0.52146 0.01137 0.0
C765 C 0.98517 0.49468 0.98296 0.0
C766 C 0.99912 0.48624 1.00103 0.0
C767 C 0.01389 0.4952 0.00904 0.0
C768 C 0.99858 0.4682 0.01283 0.0
C769 C 0.96916 0.48561 0.97226 0.0
C770 C 0.98753 0.4624 0.04533 0.0
C771 C 0.98776 0.44564 0.05843 0.0
C772 C 0.99911 0.43428 0.03946 0.0
C773 C 0.00997 0.44006 0.00631 0.0
C774 C 0.00977 0.45686 0.99333 0.0
H775 H 0.96142 0.49266 0.94821 0.0
H776 H 0.97176 0.47299 0.95862 0.0
H777 H 0.96174 0.48407 0.00289 0.0
H778 H 0.97897 0.47095 0.06137 0.0
H779 H 0.97915 0.4416 0.08382 0.0
H780 H 0.52788 0.42542 0.51111 0.0
H781 H 0.5279 0.45451 0.5365 0.0
H782 H 0.50267 0.46957 0.41744 0.0
H783 H 0.50233 0.44063 0.39216 0.0
H784 H 0.5308 0.48956 0.43935 0.0
H785 H 0.48751 0.48192 0.58114 0.0
H786 H 0.50495 0.46778 0.58009 0.0
H787 H 0.4893 0.46655 0.5378 0.0
C788 C 0.52217 0.43488 0.49055 0.0
C789 C 0.51518 0.43063 0.44946 0.0
C790 C 0.5222 0.45152 0.5051 0.0
C791 C 0.51517 0.4642 0.47899 0.0
C792 C 0.5082 0.46 0.43807 0.0
H793 H 0.50443 0.57274 0.49832 0.0
H794 H 0.50492 0.54364 0.473 0.0
C795 C 0.50812 0.44342 0.42357 0.0
C796 C 0.51531 0.48192 0.49371 0.0
H797 H 0.50029 0.50836 0.57274 0.0
C798 C 0.52411 0.4937 0.46847 0.0
C799 C 0.50657 0.48728 0.53169 0.0
C800 C 0.49642 0.47529 0.55915 0.0
C801 C 0.52465 0.51066 0.48059 0.0
C802 C 0.51583 0.51605 0.51847 0.0
C803 C 0.50703 0.50424 0.5437 0.0
C804 C 0.51576 0.53382 0.53305 0.0
C805 C 0.53501 0.52254 0.45331 0.0
C806 C 0.52137 0.53798 0.57547 0.0
C807 C 0.52099 0.55454 0.59007 0.0
C808 C 0.51493 0.56737 0.56265 0.0
C809 C 0.50937 0.56321 0.52004 0.0
C810 C 0.50968 0.54658 0.5055 0.0
H811 H 0.54447 0.51581 0.43323 0.0
H812 H 0.5267 0.52945 0.43039 0.0
H813 H 0.54152 0.53178 0.47452 0.0
H814 H 0.52612 0.52839 0.59732 0.0
H815 H 0.52559 0.55733 0.62285 0.0
H816 H 0.43849 0.12484 0.29194 0.0
H817 H 0.41856 0.13369 0.23528 0.0
H818 H 0.45132 0.17422 0.19921 0.0
H819 H 0.47133 0.16538 0.25505 0.0
H820 H 0.41605 0.18242 0.20543 0.0
H821 H 0.42986 0.12651 0.10183 0.0
H822 H 0.42363 0.12305 0.15811 0.0
H823 H 0.44329 0.13288 0.14658 0.0
C824 C 0.4414 0.13566 0.27201 0.0
C825 C 0.45655 0.14432 0.27766 0.0
C826 C 0.43001 0.14071 0.23984 0.0
C827 C 0.43364 0.15445 0.21295 0.0
C828 C 0.44835 0.16357 0.21983 0.0
H829 H 0.41591 0.19345 0.96331 0.0
H830 H 0.42472 0.178 0.02886 0.0
C831 C 0.45973 0.15855 0.2519 0.0
C832 C 0.42274 0.15894 0.17577 0.0
H833 H 0.41282 0.14728 0.07082 0.0
C834 C 0.41502 0.17464 0.17625 0.0
C835 C 0.42164 0.14871 0.13787 0.0
C836 C 0.43009 0.13187 0.13562 0.0
C837 C 0.4068 0.18077 0.13888 0.0
C838 C 0.40618 0.17077 0.10047 0.0
C839 C 0.41327 0.15477 0.10061 0.0
C840 C 0.40013 0.17764 0.05844 0.0
C841 C 0.39973 0.19826 0.13983 0.0
C842 C 0.3833 0.18195 0.05298 0.0
C843 C 0.37828 0.19086 0.01575 0.0
C844 C 0.39005 0.19556 0.9836 0.0
C845 C 0.40667 0.19023 0.98795 0.0
C846 C 0.41167 0.18132 0.02511 0.0
H847 H 0.40328 0.20513 0.17025 0.0
H848 H 0.40412 0.20549 0.11081 0.0
H849 H 0.38589 0.19764 0.13828 0.0
H850 H 0.37423 0.17905 0.07835 0.0
H851 H 0.3654 0.19486 0.01347 0.0
H852 H 0.03972 0.14395 0.27126 0.0
H853 H 0.05635 0.14404 0.33887 0.0
H854 H 0.10039 0.1316 0.2636 0.0
H855 H 0.0838 0.13233 0.19552 0.0
H856 H 0.07808 0.12429 0.38634 0.0
H857 H 0.11087 0.17797 0.30754 0.0
H858 H 0.09265 0.16849 0.28341 0.0
H859 H 0.1127 0.15847 0.27885 0.0
C860 C 0.05286 0.14081 0.26944 0.0
C861 C 0.06064 0.1384 0.2285 0.0
C862 C 0.06233 0.14081 0.30798 0.0
C863 C 0.07965 0.1382 0.306 0.0
C864 C 0.0871 0.13403 0.26558 0.0
H865 H 0.14676 0.18121 0.49809 0.0
H866 H 0.13729 0.16021 0.44597 0.0
C867 C 0.07769 0.13443 0.2269 0.0
C868 C 0.08999 0.14255 0.34463 0.0
H869 H 0.1172 0.17229 0.38068 0.0
C870 C 0.08687 0.13459 0.38508 0.0
C871 C 0.10134 0.15611 0.34284 0.0
C872 C 0.10453 0.16587 0.30101 0.0
C873 C 0.0944 0.14024 0.42414 0.0
C874 C 0.1052 0.15416 0.4224 0.0
C875 C 0.109 0.1615 0.38169 0.0
C876 C 0.11114 0.16291 0.46222 0.0
C877 C 0.0904 0.1316 0.467 0.0
C878 C 0.09958 0.17098 0.48971 0.0
C879 C 0.10496 0.18302 0.51981 0.0
C880 C 0.12196 0.18732 0.52249 0.0
C881 C 0.13359 0.17827 0.49716 0.0
C882 C 0.12821 0.16619 0.46728 0.0
H883 H 0.08654 0.11843 0.46144 0.0
H884 H 0.10128 0.13179 0.48969 0.0
H885 H 0.07987 0.13818 0.4833 0.0
H886 H 0.08631 0.16884 0.48576 0.0
H887 H 0.09571 0.18946 0.53951 0.0
H888 H 0.12855 0.82603 0.51494 0.0
H889 H 0.11084 0.84604 0.55326 0.0
H890 H 0.07283 0.84005 0.45361 0.0
H891 H 0.09049 0.81951 0.41561 0.0
H892 H 0.09352 0.87542 0.53778 0.0
H893 H 0.05027 0.82143 0.56218 0.0
H894 H 0.07066 0.81874 0.53818 0.0
H895 H 0.05411 0.82806 0.50658 0.0
C896 C 0.11662 0.82929 0.50055 0.0
C897 C 0.11071 0.821 0.4629 0.0
C898 C 0.10651 0.84076 0.5224 0.0
C899 C 0.09039 0.84424 0.50675 0.0
C900 C 0.08508 0.83722 0.46674 0.0
H901 H 0.02219 0.86872 0.71909 0.0
H902 H 0.03092 0.87042 0.6422 0.0
C903 C 0.09513 0.8255 0.44518 0.0
C904 C 0.07862 0.85299 0.53632 0.0
H905 H 0.04721 0.8442 0.60841 0.0
C906 C 0.08308 0.86882 0.55249 0.0
C907 C 0.06491 0.8444 0.5552 0.0
C908 C 0.05968 0.82719 0.53998 0.0
C909 C 0.07514 0.87561 0.58961 0.0
C910 C 0.06258 0.86625 0.61097 0.0
C911 C 0.05692 0.85131 0.59197 0.0
C912 C 0.05736 0.86973 0.65675 0.0
C913 C 0.08089 0.89229 0.60703 0.0
C914 C 0.06935 0.86914 0.69047 0.0
C915 C 0.06441 0.86815 0.73446 0.0
C916 C 0.0474 0.86762 0.7455 0.0
C917 C 0.03541 0.86924 0.71183 0.0
C918 C 0.04036 0.87023 0.66779 0.0
H919 H 0.08527 0.90045 0.57975 0.0
H920 H 0.07077 0.8988 0.62526 0.0
H921 H 0.09157 0.89034 0.62977 0.0
H922 H 0.08253 0.86831 0.6827 0.0
H923 H 0.0739 0.86714 0.75975 0.0
H924 H 0.39545 0.76806 0.95996 0.0
H925 H 0.39875 0.77658 0.883 0.0
H926 H 0.4011 0.82821 0.92358 0.0
H927 H 0.3976 0.81974 1.00062 0.0
H928 H 0.38203 0.82248 0.84515 0.0
H929 H 0.44479 0.79216 0.84081 0.0
H930 H 0.42731 0.77912 0.85481 0.0
H931 H 0.43365 0.79549 0.89171 0.0
C932 C 0.39672 0.78122 0.95243 0.0
C933 C 0.39662 0.79327 0.98618 0.0
C934 C 0.39847 0.78605 0.90852 0.0
C935 C 0.40036 0.80298 0.89786 0.0
C936 C 0.39961 0.81507 0.93129 0.0
H937 H 0.4392 0.87395 0.73957 0.0
H938 H 0.41933 0.85711 0.78057 0.0
C939 C 0.39769 0.81025 0.97516 0.0
C940 C 0.40465 0.80815 0.85267 0.0
H941 H 0.43746 0.80898 0.78142 0.0
C942 C 0.394 0.8193 0.83063 0.0
C943 C 0.42017 0.80377 0.83373 0.0
C944 C 0.43224 0.79207 0.85643 0.0
C945 C 0.39899 0.82705 0.79135 0.0
C946 C 0.41508 0.8237 0.77439 0.0
C947 C 0.4251 0.8115 0.79449 0.0
C948 C 0.42318 0.8347 0.74174 0.0
C949 C 0.38728 0.83923 0.7694 0.0
C950 C 0.43172 0.82783 0.70565 0.0
C951 C 0.44329 0.83744 0.68242 0.0
C952 C 0.44651 0.85403 0.69511 0.0
C953 C 0.43691 0.86126 0.72882 0.0
C954 C 0.42542 0.85165 0.75211 0.0
H955 H 0.37406 0.83548 0.77456 0.0
H956 H 0.38895 0.85177 0.78442 0.0
H957 H 0.38973 0.84018 0.73345 0.0
H958 H 0.43022 0.81475 0.6973 0.0
H959 H 0.45028 0.83168 0.65592 0.0
H960 H 0.52875 0.81794 0.70172 0.0
H961 H 0.54058 0.79975 0.75923 0.0
H962 H 0.51667 0.82956 0.85934 0.0
H963 H 0.50499 0.84773 0.80244 0.0
H964 H 0.56225 0.81286 0.82774 0.0
H965 H 0.5071 0.78081 0.89934 0.0
H966 H 0.50695 0.78987 0.84476 0.0
H967 H 0.50496 0.80302 0.89247 0.0
C968 C 0.52566 0.82033 0.73591 0.0
C969 C 0.51589 0.83427 0.74745 0.0
C970 C 0.5325 0.80998 0.7688 0.0
C971 C 0.52941 0.81317 0.81373 0.0
C972 C 0.51904 0.82664 0.82503 0.0
H973 H 0.56996 0.77983 0.06727 0.0
H974 H 0.55197 0.79112 0.00833 0.0
C975 C 0.51242 0.83707 0.79236 0.0
C976 C 0.53835 0.80367 0.84899 0.0
H977 H 0.53247 0.77902 0.94002 0.0
C978 C 0.55576 0.80529 0.85196 0.0
C979 C 0.52986 0.79407 0.8812 0.0
C980 C 0.51119 0.79168 0.87929 0.0
C981 C 0.56487 0.79792 0.88655 0.0
C982 C 0.55644 0.7881 0.91858 0.0
C983 C 0.53899 0.78645 0.91558 0.0
C984 C 0.5657 0.77947 0.95499 0.0
C985 C 0.5834 0.80128 0.8892 0.0
C986 C 0.57885 0.76849 0.94504 0.0
C987 C 0.58915 0.76225 0.97844 0.0
C988 C 0.58631 0.76642 0.02284 0.0
C989 C 0.57234 0.77629 0.03338 0.0
C990 C 0.56214 0.78281 0.99966 0.0
H991 H 0.58689 0.81283 0.87108 0.0
H992 H 0.58758 0.80257 0.92393 0.0
H993 H 0.59028 0.79072 0.87395 0.0
H994 H 0.58159 0.76524 0.91114 0.0
H995 H 0.59976 0.75457 0.96935 0.0
H996 H 1.00068 0.81134 0.80816 0.0
H997 H 0.99129 0.79092 0.75238 0.0
H998 H 0.95702 0.82739 0.69993 0.0
H999 H 0.96641 0.84764 0.75412 0.0
H1000 H 0.96098 0.77689 0.73284 0.0
H1001 H 0.98145 0.81395 0.58961 0.0
H1002 H 0.98802 0.81879 0.64508 0.0
H1003 H 0.96823 0.82621 0.62461 0.0
C1004 C 0.99113 0.81494 0.78474 0.0
C1005 C 0.98446 0.83122 0.78543 0.0
C1006 C 0.9858 0.80328 0.75277 0.0
C1007 C 0.97376 0.80773 0.72092 0.0
C1008 C 0.96671 0.82376 0.72292 0.0
H1009 H 0.90048 0.75508 0.5757 0.0
H1010 H 0.91905 0.76707 0.63044 0.0
C1011 C 0.97205 0.83533 0.75438 0.0
C1012 C 0.96806 0.79579 0.68595 0.0
H1013 H 0.95962 0.79371 0.57548 0.0
C1014 C 0.96095 0.78044 0.69834 0.0
C1015 C 0.96836 0.80007 0.64056 0.0
C1016 C 0.97711 0.81557 0.62415 0.0
C1017 C 0.95314 0.76993 0.66721 0.0
C1018 C 0.95198 0.77505 0.62249 0.0
C1019 C 0.96015 0.78981 0.60968 0.0
C1020 C 0.94117 0.76619 0.5895 0.0
C1021 C 0.94611 0.75348 0.68282 0.0
C1022 C 0.94716 0.76185 0.54729 0.0
C1023 C 0.93636 0.7551 0.5152 0.0
C1024 C 0.91931 0.75266 0.52457 0.0
C1025 C 0.91352 0.75666 0.56714 0.0
C1026 C 0.92423 0.76342 0.5989 0.0
H1027 H 0.95341 0.74852 0.71109 0.0
H1028 H 0.93309 0.7554 0.69435 0.0
H1029 H 0.94607 0.74398 0.65612 0.0
H1030 H 0.96013 0.76398 0.53886 0.0
H1031 H 0.94124 0.7523 0.48272 0.0
H1032 H 0.98363 0.19329 0.1743 0.0
H1033 H 0.97173 0.21287 0.22875 0.0
H1034 H 0.99328 0.18389 0.33413 0.0
H1035 H 0.00492 0.16438 0.2804 0.0
H1036 H 0.94878 0.20151 0.29741 0.0
H1037 H 0.00419 0.23301 0.36919 0.0
H1038 H 0.00452 0.22318 0.31553 0.0
H1039 H 0.00588 0.21068 0.36457 0.0
C1040 C 0.98617 0.19139 0.20901 0.0
C1041 C 0.99522 0.1773 0.22303 0.0
C1042 C 0.97931 0.20252 0.24013 0.0
C1043 C 0.98173 0.19997 0.28566 0.0
C1044 C 0.99143 0.18633 0.29934 0.0
H1045 H 0.94143 0.23558 0.53592 0.0
H1046 H 0.95899 0.22378 0.47699 0.0
C1047 C 0.99802 0.17512 0.26849 0.0
C1048 C 0.97276 0.2103 0.31922 0.0
H1049 H 0.97867 0.23547 0.40925 0.0
C1050 C 0.95529 0.20914 0.32146 0.0
C1051 C 0.98127 0.21999 0.35121 0.0
C1052 C 0.99999 0.22195 0.34999 0.0
C1053 C 0.94615 0.21697 0.35532 0.0
C1054 C 0.95461 0.22676 0.38736 0.0
C1055 C 0.97211 0.22805 0.38485 0.0
C1056 C 0.94542 0.23555 0.42363 0.0
C1057 C 0.92753 0.21404 0.3574 0.0
C1058 C 0.93244 0.24675 0.41369 0.0
C1059 C 0.92235 0.25332 0.44715 0.0
C1060 C 0.9252 0.24923 0.49163 0.0
C1061 C 0.93897 0.23905 0.50203 0.0
C1062 C 0.94896 0.23224 0.46829 0.0
H1063 H 0.92385 0.20256 0.33922 0.0
H1064 H 0.92317 0.21287 0.39202 0.0
H1065 H 0.92097 0.22475 0.34194 0.0
H1066 H 0.92973 0.24999 0.37978 0.0
H1067 H 0.91194 0.26126 0.43804 0.0
H1068 H 0.52639 0.15351 0.21159 0.0
H1069 H 0.53765 0.17328 0.15826 0.0
H1070 H 0.53547 0.21252 0.25533 0.0
H1071 H 0.52408 0.19261 0.30966 0.0
H1072 H 0.52461 0.2204 0.15757 0.0
H1073 H 0.58724 0.1915 0.17877 0.0
H1074 H 0.57017 0.17724 0.17029 0.0
H1075 H 0.57095 0.18959 0.21966 0.0
C1076 C 0.52809 0.16638 0.22176 0.0
C1077 C 0.52445 0.17139 0.26525 0.0
C1078 C 0.53454 0.17768 0.19103 0.0
C1079 C 0.53755 0.19435 0.20278 0.0
C1080 C 0.53323 0.1997 0.2455 0.0
H1081 H 0.60805 0.25703 0.06205 0.0
H1082 H 0.59035 0.24415 0.1179 0.0
C1083 C 0.52673 0.18832 0.27653 0.0
C1084 C 0.54642 0.20557 0.1712 0.0
H1085 H 0.58414 0.21065 0.12016 0.0
C1086 C 0.53766 0.21839 0.14957 0.0
C1087 C 0.56346 0.20298 0.16082 0.0
C1088 C 0.57361 0.18968 0.18373 0.0
C1089 C 0.54544 0.22846 0.11725 0.0
C1090 C 0.56239 0.22553 0.10604 0.0
C1091 C 0.57115 0.2129 0.12841 0.0
C1092 C 0.57158 0.23549 0.07202 0.0
C1093 C 0.53555 0.24225 0.09573 0.0
C1094 C 0.56679 0.23537 0.02731 0.0
C1095 C 0.57696 0.24287 0.99495 0.0
C1096 C 0.59218 0.25048 0.0067 0.0
C1097 C 0.59647 0.25122 0.05167 0.0
C1098 C 0.58634 0.24383 0.08379 0.0
H1099 H 0.52425 0.24553 0.11519 0.0
H1100 H 0.54331 0.25363 0.09152 0.0
H1101 H 0.53143 0.23807 0.06259 0.0
H1102 H 0.55562 0.22879 0.01713 0.0
H1103 H 0.57336 0.2419 0.96063 0.0
H1104 H 0.9766 0.63975 0.72807 0.0
H1105 H 0.9593 0.63784 0.66173 0.0
H1106 H 0.9167 0.62476 0.74192 0.0
H1107 H 0.93395 0.62778 0.80851 0.0
H1108 H 0.9373 0.61815 0.61604 0.0
H1109 H 0.90465 0.67085 0.70001 0.0
H1110 H 0.92336 0.66163 0.72204 0.0
H1111 H 0.90359 0.65117 0.72805 0.0
C1112 C 0.96368 0.63588 0.73109 0.0
C1113 C 0.9564 0.63407 0.77279 0.0
C1114 C 0.95381 0.63475 0.69336 0.0
C1115 C 0.93662 0.63162 0.6971 0.0
C1116 C 0.92986 0.62761 0.73852 0.0
H1117 H 0.86749 0.67565 0.51118 0.0
H1118 H 0.87741 0.65429 0.56173 0.0
C1119 C 0.93965 0.62922 0.77636 0.0
C1120 C 0.92562 0.63592 0.65966 0.0
H1121 H 0.89786 0.66575 0.6271 0.0
C1122 C 0.92841 0.62833 0.61852 0.0
C1123 C 0.91416 0.64937 0.66295 0.0
C1124 C 0.91132 0.65884 0.70545 0.0
C1125 C 0.92054 0.63431 0.58026 0.0
C1126 C 0.90967 0.64814 0.58352 0.0
C1127 C 0.90612 0.65504 0.62492 0.0
C1128 C 0.90345 0.65731 0.54466 0.0
C1129 C 0.92429 0.62614 0.53659 0.0
C1130 C 0.9148 0.66576 0.51735 0.0
C1131 C 0.90916 0.67802 0.4882 0.0
C1132 C 0.89211 0.68215 0.48625 0.0
C1133 C 0.88069 0.67282 0.51154 0.0
C1134 C 0.88633 0.66054 0.54049 0.0
H1135 H 0.92828 0.61294 0.541 0.0
H1136 H 0.91323 0.62649 0.51449 0.0
H1137 H 0.93464 0.63297 0.52026 0.0
H1138 H 0.92811 0.66369 0.52068 0.0
H1139 H 0.91825 0.6847 0.46854 0.0
H1140 H 0.63847 0.6812 0.04695 0.0
H1141 H 0.63951 0.66593 0.97664 0.0
H1142 H 0.6083 0.7036 0.91695 0.0
H1143 H 0.60718 0.71868 0.98617 0.0
H1144 H 0.6132 0.65277 0.93344 0.0
H1145 H 0.64342 0.69814 0.82318 0.0
H1146 H 0.64486 0.6997 0.88251 0.0
H1147 H 0.62721 0.70841 0.85354 0.0
C1148 C 0.63195 0.68622 0.01864 0.0
C1149 C 0.62289 0.70122 0.02192 0.0
C1150 C 0.63269 0.6776 0.97851 0.0
C1151 C 0.62445 0.68394 0.94123 0.0
C1152 C 0.61535 0.69885 0.94471 0.0
H1153 H 0.56207 0.66501 0.74511 0.0
H1154 H 0.5829 0.67504 0.79706 0.0
C1155 C 0.61464 0.70742 0.98449 0.0
C1156 C 0.62331 0.67423 0.89992 0.0
H1157 H 0.62144 0.6806 0.78889 0.0
C1158 C 0.61561 0.6585 0.90167 0.0
C1159 C 0.62664 0.68165 0.85852 0.0
C1160 C 0.63617 0.69784 0.85441 0.0
C1161 C 0.60933 0.65099 0.8634 0.0
C1162 C 0.61088 0.65946 0.82274 0.0
C1163 C 0.62014 0.67427 0.82033 0.0
C1164 C 0.60026 0.65483 0.7851 0.0
C1165 C 0.59963 0.63487 0.86719 0.0
C1166 C 0.6035 0.6405 0.76013 0.0
C1167 C 0.59164 0.63477 0.72991 0.0
C1168 C 0.57632 0.64322 0.7247 0.0
C1169 C 0.57369 0.6582 0.7479 0.0
C1170 C 0.58558 0.66396 0.77777 0.0
H1171 H 0.5995 0.62994 0.90142 0.0
H1172 H 0.58654 0.63688 0.85632 0.0
H1173 H 0.60523 0.62529 0.84526 0.0
H1174 H 0.61485 0.63339 0.76533 0.0
H1175 H 0.59423 0.62341 0.71183 0.0
H1176 H 0.58986 0.30707 0.97316 0.0
H1177 H 0.57943 0.32805 0.02366 0.0
H1178 H 0.62261 0.35878 0.99855 0.0
H1179 H 0.63299 0.33803 0.94625 0.0
H1180 H 0.61893 0.34768 0.08643 0.0
H1181 H 0.5603 0.37588 0.02637 0.0
H1182 H 0.56091 0.3538 0.01622 0.0
H1183 H 0.57589 0.36723 0.98968 0.0
C1184 C 0.5969 0.31851 0.9767 0.0
C1185 C 0.61253 0.32058 0.9563 0.0
C1186 C 0.59084 0.33059 0.00564 0.0
C1187 C 0.60025 0.34497 0.01472 0.0
C1188 C 0.61517 0.34777 0.99181 0.0
H1189 H 0.57838 0.38009 0.2853 0.0
H1190 H 0.59209 0.38215 0.21287 0.0
C1191 C 0.62116 0.33577 0.96236 0.0
C1192 C 0.59608 0.35487 0.05419 0.0
H1193 H 0.56227 0.37152 0.10605 0.0
C1194 C 0.60679 0.35348 0.09063 0.0
C1195 C 0.58032 0.3625 0.05922 0.0
C1196 C 0.56877 0.3651 0.0206 0.0
C1197 C 0.60129 0.35757 0.13315 0.0
C1198 C 0.58481 0.36353 0.13879 0.0
C1199 C 0.57485 0.36676 0.10161 0.0
C1200 C 0.57659 0.36324 0.18234 0.0
C1201 C 0.6125 0.35387 0.17195 0.0
C1202 C 0.56335 0.35204 0.18886 0.0
C1203 C 0.55555 0.35095 0.22966 0.0
C1204 C 0.56087 0.36096 0.2649 0.0
C1205 C 0.57425 0.37208 0.25868 0.0
C1206 C 0.582 0.37331 0.21744 0.0
H1207 H 0.62426 0.34754 0.16193 0.0
H1208 H 0.61583 0.36573 0.18874 0.0
H1209 H 0.60592 0.34581 0.19616 0.0
H1210 H 0.55912 0.34401 0.16233 0.0
H1211 H 0.54536 0.34218 0.2338 0.0
H1212 H 0.92696 0.30441 0.52224 0.0
H1213 H 0.9383 0.32543 0.4731 0.0
H1214 H 0.89431 0.35574 0.49118 0.0
H1215 H 0.88296 0.33491 0.54188 0.0
H1216 H 0.90023 0.34502 0.40423 0.0
H1217 H 0.95712 0.37336 0.47504 0.0
H1218 H 0.95647 0.35116 0.48325 0.0
H1219 H 0.94087 0.36419 0.50868 0.0
C1220 C 0.91991 0.31578 0.51739 0.0
C1221 C 0.90385 0.31776 0.53546 0.0
C1222 C 0.92648 0.32787 0.48927 0.0
C1223 C 0.91717 0.34216 0.47873 0.0
C1224 C 0.9017 0.3448 0.49913 0.0
H1225 H 0.9405 0.38307 0.21523 0.0
H1226 H 0.92683 0.38289 0.28778 0.0
C1227 C 0.89517 0.33278 0.52767 0.0
C1228 C 0.92221 0.35227 0.44033 0.0
H1229 H 0.95648 0.37068 0.39506 0.0
C1230 C 0.91229 0.35115 0.40232 0.0
C1231 C 0.9379 0.36024 0.43826 0.0
C1232 C 0.94863 0.36247 0.47867 0.0
C1233 C 0.91845 0.35613 0.36114 0.0
C1234 C 0.93478 0.36281 0.35844 0.0
C1235 C 0.94402 0.36543 0.39722 0.0
C1236 C 0.94349 0.3644 0.31572 0.0
C1237 C 0.90804 0.35276 0.32057 0.0
C1238 C 0.95758 0.35441 0.30792 0.0
C1239 C 0.96542 0.35463 0.26701 0.0
C1240 C 0.95927 0.36477 0.23295 0.0
C1241 C 0.94528 0.37495 0.24082 0.0
C1242 C 0.93752 0.37488 0.28215 0.0
H1243 H 0.89678 0.34516 0.32805 0.0
H1244 H 0.90383 0.3648 0.30627 0.0
H1245 H 0.91553 0.34611 0.29523 0.0
H1246 H 0.96231 0.34612 0.33327 0.0
H1247 H 0.97609 0.34657 0.26166 0.0
H1248 H 0.03587 0.35321 0.26876 0.0
H1249 H 0.04702 0.33308 0.32095 0.0
H1250 H 0.03482 0.29283 0.23224 0.0
H1251 H 0.02335 0.31316 0.17903 0.0
H1252 H 0.0275 0.2869 0.32817 0.0
H1253 H 0.09211 0.30886 0.29706 0.0
H1254 H 0.07764 0.32536 0.3093 0.0
H1255 H 0.07506 0.31323 0.25985 0.0
C1256 C 0.03545 0.34009 0.26002 0.0
C1257 C 0.02885 0.33487 0.21921 0.0
C1258 C 0.04186 0.32856 0.29014 0.0
C1259 C 0.042 0.31144 0.28042 0.0
C1260 C 0.03491 0.306 0.24042 0.0
H1261 H 0.10979 0.24789 0.42904 0.0
H1262 H 0.09275 0.25988 0.37038 0.0
C1263 C 0.0284 0.31763 0.20999 0.0
C1264 C 0.05033 0.29965 0.31161 0.0
H1265 H 0.08795 0.29225 0.36103 0.0
C1266 C 0.04075 0.2879 0.33505 0.0
C1267 C 0.06765 0.30082 0.32043 0.0
C1268 C 0.07878 0.31263 0.29509 0.0
C1269 C 0.04798 0.2777 0.368 0.0
C1270 C 0.06517 0.27948 0.37821 0.0
C1271 C 0.07476 0.29089 0.35369 0.0
C1272 C 0.07374 0.26976 0.41388 0.0
C1273 C 0.03715 0.26507 0.39128 0.0
C1274 C 0.06857 0.27077 0.45822 0.0
C1275 C 0.07829 0.26367 0.4921 0.0
C1276 C 0.09349 0.25567 0.48228 0.0
C1277 C 0.09818 0.25401 0.43781 0.0
C1278 C 0.08844 0.26091 0.40413 0.0
H1279 H 0.02596 0.26179 0.37137 0.0
H1280 H 0.04422 0.25346 0.39855 0.0
H1281 H 0.03276 0.27044 0.42295 0.0
H1282 H 0.0575 0.2778 0.46694 0.0
H1283 H 0.07444 0.26537 0.52604 0.0
H1284 H 0.4018 0.25652 0.0521 0.0
H1285 H 0.41958 0.26786 0.11016 0.0
H1286 H 0.45879 0.27643 0.0155 0.0
H1287 H 0.44097 0.26482 0.95673 0.0
H1288 H 0.46986 0.26469 0.10457 0.0
H1289 H 0.4271 0.3193 0.11 0.0
H1290 H 0.417 0.29939 0.116 0.0
H1291 H 0.42712 0.30459 0.06492 0.0
C1292 C 0.4143 0.26056 0.04356 0.0
C1293 C 0.41988 0.25993 0.99958 0.0
C1294 C 0.42446 0.26706 0.07691 0.0
C1295 C 0.44043 0.27327 0.06719 0.0
C1296 C 0.4465 0.27175 0.02381 0.0
H1297 H 0.49097 0.35014 0.21306 0.0
H1298 H 0.47909 0.33151 0.15812 0.0
C1299 C 0.43631 0.2651 0.99024 0.0
C1300 C 0.44992 0.28269 0.10152 0.0
H1301 H 0.44787 0.31793 0.165 0.0
C1302 C 0.4651 0.27634 0.11778 0.0
C1303 C 0.44378 0.29797 0.1186 0.0
C1304 C 0.42794 0.30584 0.10132 0.0
C1305 C 0.47418 0.28482 0.15093 0.0
C1306 C 0.46784 0.29996 0.16848 0.0
C1307 C 0.4527 0.30627 0.15194 0.0
C1308 C 0.47703 0.31025 0.20173 0.0
C1309 C 0.49064 0.27775 0.16623 0.0
C1310 C 0.48023 0.30449 0.24483 0.0
C1311 C 0.48717 0.31525 0.27681 0.0
C1312 C 0.49084 0.33198 0.26625 0.0
C1313 C 0.48814 0.33741 0.22269 0.0
C1314 C 0.48136 0.32673 0.19101 0.0
H1315 H 0.49538 0.26792 0.14356 0.0
H1316 H 0.50017 0.28778 0.169 0.0
H1317 H 0.489 0.27211 0.19936 0.0
H1318 H 0.47679 0.2919 0.25422 0.0
H1319 H 0.48904 0.31069 0.31006 0.0
H1320 H 0.4122 0.70743 0.00391 0.0
H1321 H 0.43197 0.6981 0.94833 0.0
H1322 H 0.46527 0.73835 0.98318 0.0
H1323 H 0.4454 0.74766 0.04024 0.0
H1324 H 0.44259 0.71417 0.87598 0.0
H1325 H 0.49709 0.69891 0.98207 0.0
H1326 H 0.47659 0.7028 0.00452 0.0
H1327 H 0.48937 0.71992 0.98641 0.0
C1328 C 0.42378 0.71429 1.00022 0.0
C1329 C 0.42718 0.72832 0.02677 0.0
C1330 C 0.4351 0.70893 0.96815 0.0
C1331 C 0.45023 0.71741 0.96134 0.0
C1332 C 0.45384 0.73137 0.98811 0.0
H1333 H 0.50352 0.68589 0.71659 0.0
H1334 H 0.49081 0.70455 0.77171 0.0
C1335 C 0.44247 0.73671 0.02073 0.0
C1336 C 0.46169 0.71157 0.92539 0.0
H1337 H 0.5 0.69403 0.906 0.0
C1338 C 0.45522 0.70994 0.88247 0.0
C1339 C 0.47818 0.70596 0.93368 0.0
C1340 C 0.48575 0.70683 0.97917 0.0
C1341 C 0.46439 0.70227 0.84834 0.0
C1342 C 0.48077 0.69637 0.85678 0.0
C1343 C 0.48751 0.69862 0.89927 0.0
C1344 C 0.49026 0.68607 0.82389 0.0
C1345 C 0.456 0.6997 0.80428 0.0
C1346 C 0.49501 0.66974 0.83512 0.0
C1347 C 0.50244 0.6592 0.80401 0.0
C1348 C 0.50539 0.66463 0.76052 0.0
C1349 C 0.50139 0.68125 0.74966 0.0
C1350 C 0.49396 0.69189 0.7811 0.0
H1351 H 0.44229 0.7017 0.80612 0.0
H1352 H 0.46117 0.70873 0.78014 0.0
H1353 H 0.45833 0.68688 0.79166 0.0
H1354 H 0.49241 0.66487 0.86775 0.0
H1355 H 0.50542 0.64654 0.81389 0.0
H1356 H 0.01338 0.69805 0.81099 0.0
H1357 H 0.02361 0.7179 0.75481 0.0
H1358 H 0.04776 0.67737 0.68614 0.0
H1359 H 0.0373 0.65775 0.74037 0.0
H1360 H 0.05371 0.72742 0.72755 0.0
H1361 H 0.02313 0.69754 0.58567 0.0
H1362 H 0.01797 0.69202 0.6417 0.0
H1363 H 0.03546 0.68233 0.61417 0.0
C1364 C 0.02082 0.69343 0.78376 0.0
C1365 C 0.02429 0.67625 0.77994 0.0
C1366 C 0.02664 0.70477 0.75157 0.0
C1367 C 0.03604 0.69912 0.71514 0.0
C1368 C 0.03998 0.68206 0.71261 0.0
H1369 H 0.1126 0.74382 0.56385 0.0
H1370 H 0.0937 0.73311 0.61937 0.0
C1371 C 0.03407 0.67082 0.74412 0.0
C1372 C 0.04244 0.71079 0.68033 0.0
H1373 H 0.04805 0.71373 0.56872 0.0
C1374 C 0.0522 0.72459 0.69281 0.0
C1375 C 0.04014 0.70759 0.63469 0.0
C1376 C 0.02843 0.69418 0.61834 0.0
C1377 C 0.06066 0.7344 0.66129 0.0
C1378 C 0.05986 0.73 0.61596 0.0
C1379 C 0.04908 0.71699 0.60332 0.0
C1380 C 0.07114 0.73763 0.58192 0.0
C1381 C 0.07044 0.74934 0.67719 0.0
C1382 C 0.06502 0.74334 0.54097 0.0
C1383 C 0.07601 0.74925 0.50817 0.0
C1384 C 0.09336 0.74956 0.51565 0.0
C1385 C 0.09934 0.74399 0.55678 0.0
C1386 C 0.08845 0.73797 0.58909 0.0
H1387 H 0.06454 0.75491 0.70692 0.0
H1388 H 0.08321 0.74529 0.68667 0.0
H1389 H 0.07143 0.75913 0.6514 0.0
H1390 H 0.05174 0.74306 0.53419 0.0
H1391 H 0.07096 0.75333 0.47686 0.0
H1392 H 0.42776 0.24552 0.76975 0.0
H1393 H 0.44423 0.23797 0.70424 0.0
H1394 H 0.43368 0.18588 0.72749 0.0
H1395 H 0.41763 0.19321 0.7928 0.0
H1396 H 0.46622 0.19057 0.7043 0.0
H1397 H 0.42453 0.22363 0.58653 0.0
H1398 H 0.43349 0.23636 0.62921 0.0
H1399 H 0.41882 0.22024 0.64335 0.0
C1400 C 0.42906 0.23246 0.76107 0.0
C1401 C 0.42123 0.22001 0.78659 0.0
C1402 C 0.43839 0.22815 0.72335 0.0
C1403 C 0.44003 0.21132 0.7103 0.0
C1404 C 0.43262 0.19894 0.73656 0.0
H1405 H 0.45404 0.16081 0.467 0.0
H1406 H 0.44524 0.1759 0.53262 0.0
C1407 C 0.42336 0.2032 0.77402 0.0
C1408 C 0.44904 0.20633 0.66902 0.0
H1409 H 0.44702 0.20863 0.55645 0.0
C1410 C 0.46216 0.19468 0.67197 0.0
C1411 C 0.44368 0.21155 0.62668 0.0
C1412 C 0.42928 0.22353 0.62094 0.0
C1413 C 0.46967 0.18776 0.63406 0.0
C1414 C 0.46413 0.19278 0.59172 0.0
C1415 C 0.45138 0.20483 0.58879 0.0
C1416 C 0.46999 0.18438 0.55035 0.0
C1417 C 0.48286 0.17447 0.63975 0.0
C1418 C 0.48691 0.18426 0.53751 0.0
C1419 C 0.49208 0.17549 0.49958 0.0
C1420 C 0.48041 0.1667 0.47368 0.0
C1421 C 0.46346 0.1673 0.48608 0.0
C1422 C 0.45834 0.17601 0.52372 0.0
H1423 H 0.48332 0.16965 0.67408 0.0
H1424 H 0.48057 0.16381 0.61709 0.0
H1425 H 0.49528 0.17982 0.63176 0.0
H1426 H 0.49614 0.19086 0.55692 0.0
H1427 H 0.50521 0.17536 0.49104 0.0
H1428 H 0.04465 0.14285 0.9673 0.0
H1429 H 0.05315 0.15933 0.90379 0.0
H1430 H 0.02566 0.20161 0.95369 0.0
H1431 H 0.01698 0.18499 0.01829 0.0
H1432 H 0.03252 0.17632 0.83948 0.0
H1433 H 0.0744 0.21951 0.93203 0.0
H1434 H 0.06766 0.19982 0.95505 0.0
H1435 H 0.05323 0.21688 0.95097 0.0
C1436 C 0.04032 0.15565 0.965 0.0
C1437 C 0.0302 0.16261 0.99826 0.0
C1438 C 0.04519 0.16506 0.92844 0.0
C1439 C 0.04024 0.18177 0.92405 0.0
C1440 C 0.02983 0.18878 0.95661 0.0
H1441 H 0.085 0.24445 0.71184 0.0
H1442 H 0.06662 0.23665 0.77375 0.0
C1443 C 0.02479 0.17925 0.99336 0.0
C1444 C 0.04633 0.19152 0.88526 0.0
H1445 H 0.07548 0.2206 0.85472 0.0
C1446 C 0.04169 0.18621 0.84286 0.0
C1447 C 0.05825 0.20451 0.8895 0.0
C1448 C 0.06382 0.21057 0.93422 0.0
C1449 C 0.04912 0.19299 0.80482 0.0
C1450 C 0.06184 0.20519 0.80909 0.0
C1451 C 0.06579 0.21123 0.85135 0.0
C1452 C 0.07243 0.21026 0.77076 0.0
C1453 C 0.04355 0.1867 0.76031 0.0
C1454 C 0.08193 0.19812 0.74871 0.0
C1455 C 0.09239 0.20251 0.71371 0.0
C1456 C 0.09373 0.21922 0.69964 0.0
C1457 C 0.08416 0.23145 0.72153 0.0
C1458 C 0.0737 0.22702 0.75703 0.0
H1459 H 0.0305 0.18197 0.76148 0.0
H1460 H 0.04436 0.19666 0.73492 0.0
H1461 H 0.05172 0.17619 0.75007 0.0
H1462 H 0.08147 0.18518 0.75911 0.0
H1463 H 0.09955 0.19273 0.69786 0.0
H1464 H 0.01545 0.82285 0.98442 0.0
H1465 H 0.02439 0.8068 0.04981 0.0
H1466 H 0.06096 0.84465 0.07962 0.0
H1467 H 0.05234 0.86052 0.01521 0.0
H1468 H 0.0598 0.79533 0.07259 0.0
H1469 H 0.03232 0.83874 0.1951 0.0
H1470 H 0.0252 0.83768 0.13862 0.0
H1471 H 0.04398 0.84888 0.15211 0.0
C1472 C 0.02539 0.82773 0.00496 0.0
C1473 C 0.03314 0.84302 0.99435 0.0
C1474 C 0.0305 0.81853 0.04226 0.0
C1475 C 0.04327 0.8246 0.06991 0.0
C1476 C 0.05098 0.83978 0.05917 0.0
H1477 H 0.10644 0.81094 0.28698 0.0
H1478 H 0.08858 0.81882 0.22567 0.0
C1479 C 0.04603 0.84883 0.02202 0.0
C1480 C 0.04887 0.81536 0.11006 0.0
H1481 H 0.05388 0.82055 0.22117 0.0
C1482 C 0.0582 0.80059 0.10527 0.0
C1483 C 0.0468 0.82222 0.15272 0.0
C1484 C 0.03641 0.83768 0.1602 0.0
C1485 C 0.06641 0.79316 0.14156 0.0
C1486 C 0.06508 0.80059 0.18387 0.0
C1487 C 0.05497 0.81483 0.18887 0.0
C1488 C 0.07561 0.79517 0.22207 0.0
C1489 C 0.07728 0.77805 0.1339 0.0
C1490 C 0.07424 0.77919 0.24128 0.0
C1491 C 0.08457 0.77456 0.27693 0.0
C1492 C 0.09647 0.78582 0.29389 0.0
C1493 C 0.09754 0.80184 0.27483 0.0
C1494 C 0.08726 0.80643 0.23965 0.0
H1495 H 0.07899 0.77533 0.09826 0.0
H1496 H 0.08976 0.77988 0.14916 0.0
H1497 H 0.07144 0.76698 0.14959 0.0
H1498 H 0.06517 0.77033 0.22884 0.0
H1499 H 0.08338 0.76215 0.29078 0.0
H1500 H 0.41603 0.80572 0.22559 0.0
H1501 H 0.43418 0.81383 0.28623 0.0
H1502 H 0.45097 0.76291 0.29938 0.0
H1503 H 0.43265 0.75459 0.23776 0.0
H1504 H 0.44053 0.77812 0.38036 0.0
H1505 H 0.48515 0.81904 0.29274 0.0
H1506 H 0.46383 0.82391 0.27971 0.0
H1507 H 0.47229 0.80388 0.26447 0.0
C1508 C 0.42371 0.7962 0.24084 0.0
C1509 C 0.42282 0.77946 0.22661 0.0
C1510 C 0.43421 0.80092 0.2755 0.0
C1511 C 0.44416 0.78907 0.29722 0.0
C1512 C 0.44352 0.77233 0.28292 0.0
H1513 H 0.50769 0.83115 0.51167 0.0
H1514 H 0.49983 0.81344 0.4483 0.0
C1515 C 0.43309 0.76759 0.24758 0.0
C1516 C 0.45415 0.79431 0.33657 0.0
H1517 H 0.48211 0.82397 0.37092 0.0
C1518 C 0.44989 0.78789 0.37817 0.0
C1519 C 0.46653 0.80694 0.334 0.0
C1520 C 0.47236 0.81373 0.29026 0.0
C1521 C 0.45677 0.79455 0.4172 0.0
C1522 C 0.46814 0.8081 0.41476 0.0
C1523 C 0.4733 0.81371 0.37304 0.0
C1524 C 0.47324 0.81779 0.45476 0.0
C1525 C 0.45144 0.7873 0.46087 0.0
C1526 C 0.46102 0.82618 0.4794 0.0
C1527 C 0.46546 0.83632 0.51505 0.0
C1528 C 0.48229 0.83838 0.52735 0.0
C1529 C 0.49461 0.82973 0.50332 0.0
C1530 C 0.49013 0.81965 0.46702 0.0
H1531 H 0.44725 0.77414 0.45727 0.0
H1532 H 0.46175 0.7878 0.48531 0.0
H1533 H 0.44078 0.79466 0.47396 0.0
H1534 H 0.44796 0.82525 0.47031 0.0
H1535 H 0.45562 0.84275 0.53275 0.0
H1536 H 0.58643 0.866 0.57329 0.0
H1537 H 0.60476 0.86321 0.50904 0.0
H1538 H 0.56349 0.84411 0.43288 0.0
H1539 H 0.5453 0.8464 0.49659 0.0
H1540 H 0.61137 0.83307 0.46457 0.0
H1541 H 0.5841 0.87944 0.35087 0.0
H1542 H 0.58083 0.88021 0.40984 0.0
H1543 H 0.56813 0.86686 0.37573 0.0
C1544 C 0.58126 0.8612 0.54289 0.0
C1545 C 0.56434 0.85646 0.54014 0.0
C1546 C 0.59172 0.8598 0.50616 0.0
C1547 C 0.58535 0.85386 0.46608 0.0
C1548 C 0.5685 0.84923 0.4632 0.0
H1549 H 0.60173 0.78845 0.27293 0.0
H1550 H 0.60019 0.80496 0.33989 0.0
C1551 C 0.55811 0.85051 0.49978 0.0
C1552 C 0.59638 0.85066 0.42811 0.0
H1553 H 0.59648 0.85466 0.31637 0.0
C1554 C 0.60856 0.83817 0.43228 0.0
C1555 C 0.59297 0.85761 0.38625 0.0
C1556 C 0.58091 0.87191 0.38047 0.0
C1557 C 0.61594 0.83105 0.39488 0.0
C1558 C 0.61079 0.83647 0.35269 0.0
C1559 C 0.60018 0.85033 0.34882 0.0
C1560 C 0.61364 0.82613 0.31319 0.0
C1561 C 0.62831 0.81702 0.40071 0.0
C1562 C 0.62146 0.8327 0.27569 0.0
C1563 C 0.62243 0.8232 0.23709 0.0
C1564 C 0.61538 0.80708 0.23533 0.0
C1565 C 0.60761 0.80061 0.27321 0.0
C1566 C 0.60676 0.81004 0.31166 0.0
H1567 H 0.63528 0.81837 0.43219 0.0
H1568 H 0.6215 0.80495 0.40184 0.0
H1569 H 0.63737 0.81657 0.373 0.0
H1570 H 0.62664 0.8452 0.27619 0.0
H1571 H 0.62867 0.8285 0.20874 0.0
H1572 H 0.89435 0.7786 0.26416 0.0
H1573 H 0.90222 0.79333 0.19695 0.0
H1574 H 0.92858 0.83013 0.27415 0.0
H1575 H 0.92129 0.81507 0.34167 0.0
H1576 H 0.89726 0.82655 0.16828 0.0
H1577 H 0.96439 0.81072 0.19123 0.0
H1578 H 0.948 0.80089 0.22273 0.0
H1579 H 0.95479 0.82165 0.23634 0.0
C1580 C 0.9019 0.78976 0.26692 0.0
C1581 C 0.90748 0.79549 0.3082 0.0
C1582 C 0.90622 0.79826 0.22852 0.0
C1583 C 0.91615 0.81264 0.23072 0.0
C1584 C 0.92108 0.81889 0.2719 0.0
H1585 H 0.94359 0.87525 0.00719 0.0
H1586 H 0.93039 0.8647 0.07441 0.0
C1587 C 0.91681 0.81035 0.31041 0.0
C1588 C 0.92216 0.82038 0.18963 0.0
H1589 H 0.95745 0.82702 0.12933 0.0
C1590 C 0.91041 0.82677 0.15971 0.0
C1591 C 0.93931 0.82035 0.17857 0.0
C1592 C 0.95238 0.81292 0.20865 0.0
C1593 C 0.9154 0.83309 0.11865 0.0
C1594 C 0.93256 0.83316 0.10782 0.0
C1595 C 0.94429 0.82693 0.13794 0.0
C1596 C 0.93877 0.83923 0.06498 0.0
C1597 C 0.90228 0.83917 0.08677 0.0
C1598 C 0.94776 0.82837 0.03754 0.0
C1599 C 0.95537 0.83438 0.99941 0.0
C1600 C 0.95411 0.85134 0.98814 0.0
C1601 C 0.94456 0.86207 0.01481 0.0
C1602 C 0.93702 0.85607 0.05315 0.0
H1603 H 0.88961 0.83469 0.09586 0.0
H1604 H 0.9021 0.85304 0.08695 0.0
H1605 H 0.90514 0.83498 0.05269 0.0
H1606 H 0.94922 0.81532 0.04623 0.0
H1607 H 0.96249 0.82582 0.97913 0.0
H1608 H 0.91793 0.18142 0.66884 0.0
H1609 H 0.9233 0.16508 0.73562 0.0
H1610 H 0.9017 0.20438 0.81461 0.0
H1611 H 0.89573 0.22038 0.74827 0.0
H1612 H 0.94387 0.17524 0.80029 0.0
H1613 H 0.88144 0.16345 0.87126 0.0
H1614 H 0.88437 0.16989 0.8147 0.0
H1615 H 0.88419 0.18514 0.85839 0.0
C1616 C 0.91398 0.18637 0.70036 0.0
C1617 C 0.90658 0.20226 0.70331 0.0
C1618 C 0.91707 0.17705 0.73844 0.0
C1619 C 0.91266 0.18341 0.77997 0.0
C1620 C 0.90484 0.19905 0.78284 0.0
H1621 H 0.96155 0.17839 0.02476 0.0
H1622 H 0.94781 0.185 0.95495 0.0
C1623 C 0.90174 0.20833 0.7449 0.0
C1624 C 0.91808 0.17486 0.82069 0.0
H1625 H 0.90466 0.1631 0.92293 0.0
C1626 C 0.93525 0.17226 0.82674 0.0
C1627 C 0.90681 0.17081 0.85502 0.0
C1628 C 0.88816 0.17231 0.84933 0.0
C1629 C 0.94156 0.16672 0.86718 0.0
C1630 C 0.93041 0.164 0.90257 0.0
C1631 C 0.91316 0.16552 0.89582 0.0
C1632 C 0.9367 0.16053 0.94727 0.0
C1633 C 0.96016 0.16428 0.87213 0.0
C1634 C 0.93429 0.14485 0.96681 0.0
C1635 C 0.94212 0.14106 0.00676 0.0
C1636 C 0.95244 0.15292 0.02748 0.0
C1637 C 0.95392 0.16895 0.00905 0.0
C1638 C 0.94608 0.17273 0.96931 0.0
H1639 H 0.96637 0.16256 0.83967 0.0
H1640 H 0.96565 0.1755 0.88805 0.0
H1641 H 0.96296 0.15328 0.89321 0.0
H1642 H 0.927 0.13534 0.9502 0.0
H1643 H 0.94086 0.12858 0.02009 0.0
H1644 H 0.58103 0.13544 0.47703 0.0
H1645 H 0.5942 0.13716 0.54993 0.0
H1646 H 0.55553 0.17115 0.59248 0.0
H1647 H 0.54214 0.16896 0.5205 0.0
H1648 H 0.6076 0.16232 0.58927 0.0
H1649 H 0.55652 0.14081 0.69583 0.0
H1650 H 0.55605 0.13787 0.63682 0.0
H1651 H 0.5486 0.15707 0.66116 0.0
C1652 C 0.57537 0.14319 0.50218 0.0
C1653 C 0.56059 0.15206 0.49345 0.0
C1654 C 0.5828 0.14407 0.54379 0.0
C1655 C 0.57559 0.15391 0.57707 0.0
C1656 C 0.56095 0.16293 0.56799 0.0
H1657 H 0.61398 0.21976 0.75527 0.0
H1658 H 0.60768 0.20127 0.69442 0.0
C1659 C 0.5534 0.16184 0.52676 0.0
C1660 C 0.58407 0.15619 0.61997 0.0
H1661 H 0.57531 0.16182 0.72881 0.0
C1662 C 0.60069 0.16176 0.61999 0.0
C1663 C 0.57535 0.15488 0.66038 0.0
C1664 C 0.55821 0.14712 0.66351 0.0
C1665 C 0.60815 0.16778 0.6586 0.0
C1666 C 0.5985 0.16879 0.69758 0.0
C1667 C 0.58257 0.16149 0.69863 0.0
C1668 C 0.60362 0.17941 0.73512 0.0
C1669 C 0.62606 0.17358 0.6567 0.0
C1670 C 0.60285 0.17346 0.77858 0.0
C1671 C 0.6059 0.18425 0.81392 0.0
C1672 C 0.60976 0.20118 0.80634 0.0
C1673 C 0.61078 0.20694 0.76265 0.0
C1674 C 0.60755 0.19624 0.72755 0.0
H1675 H 0.63338 0.16578 0.63332 0.0
H1676 H 0.62647 0.18663 0.64441 0.0
H1677 H 0.63214 0.17307 0.68958 0.0
H1678 H 0.59959 0.16056 0.78517 0.0
H1679 H 0.60485 0.17941 0.84709 0.0
H1680 H 0.9535 0.65934 0.9891 0.0
H1681 H 0.94489 0.67444 0.05485 0.0
H1682 H 0.99531 0.6919 0.07374 0.0
H1683 H 0.00417 0.67657 0.00713 0.0
H1684 H 0.98047 0.67871 0.15116 0.0
H1685 H 0.93811 0.72458 0.07351 0.0
H1686 H 0.93372 0.70361 0.05605 0.0
H1687 H 0.9535 0.713 0.04245 0.0
C1688 C 0.96282 0.66648 0.00684 0.0
C1689 C 0.97957 0.66674 0.99258 0.0
C1690 C 0.95781 0.67525 0.04443 0.0
C1691 C 0.96934 0.68458 0.06905 0.0
C1692 C 0.98612 0.68493 0.05507 0.0
H1693 H 0.92576 0.74137 0.2931 0.0
H1694 H 0.94307 0.73519 0.22797 0.0
C1695 C 0.99117 0.67621 0.01693 0.0
C1696 C 0.96374 0.69304 0.11048 0.0
H1697 H 0.93338 0.71903 0.15072 0.0
C1698 C 0.97039 0.68777 0.15101 0.0
C1699 C 0.95073 0.70506 0.11058 0.0
C1700 C 0.94371 0.71203 0.06828 0.0
C1701 C 0.96368 0.69334 0.1914 0.0
C1702 C 0.94979 0.70433 0.19145 0.0
C1703 C 0.94388 0.71046 0.15095 0.0
C1704 C 0.94028 0.70834 0.23261 0.0
C1705 C 0.97137 0.68713 0.23373 0.0
C1706 C 0.93286 0.69539 0.25688 0.0
C1707 C 0.92296 0.69888 0.29376 0.0
C1708 C 0.92012 0.71545 0.30754 0.0
C1709 C 0.92775 0.72847 0.28366 0.0
C1710 C 0.93762 0.72495 0.24634 0.0
H1711 H 0.9847 0.68371 0.22898 0.0
H1712 H 0.97051 0.69667 0.26021 0.0
H1713 H 0.96462 0.67576 0.24475 0.0
H1714 H 0.93435 0.68252 0.2466 0.0
H1715 H 0.91731 0.68849 0.31114 0.0
H1716 H 0.56974 0.71006 0.19642 0.0
H1717 H 0.55985 0.69869 0.26616 0.0
H1718 H 0.5859 0.73763 0.33648 0.0
H1719 H 0.59655 0.74863 0.26637 0.0
H1720 H 0.59064 0.71025 0.3776 0.0
H1721 H 0.52304 0.71215 0.34447 0.0
H1722 H 0.53331 0.70017 0.30264 0.0
H1723 H 0.53796 0.72213 0.30855 0.0
C1724 C 0.57325 0.71636 0.22664 0.0
C1725 C 0.58387 0.73038 0.22557 0.0
C1726 C 0.56742 0.7099 0.26673 0.0
C1727 C 0.57164 0.71749 0.30704 0.0
C1728 C 0.58226 0.73154 0.30606 0.0
H1729 H 0.52329 0.67928 0.55128 0.0
H1730 H 0.53089 0.6974 0.48876 0.0
C1731 C 0.58836 0.73787 0.26587 0.0
C1732 C 0.56584 0.71011 0.35001 0.0
H1733 H 0.53181 0.69324 0.40221 0.0
C1734 C 0.57771 0.70677 0.38302 0.0
C1735 C 0.5489 0.70583 0.35827 0.0
C1736 C 0.53507 0.71045 0.32676 0.0
C1737 C 0.57334 0.69866 0.42261 0.0
C1738 C 0.55669 0.69306 0.42912 0.0
C1739 C 0.54464 0.69715 0.39718 0.0
C1740 C 0.55183 0.68226 0.46752 0.0
C1741 C 0.58669 0.69631 0.45717 0.0
C1742 C 0.56072 0.66749 0.47614 0.0
C1743 C 0.55654 0.6573 0.51194 0.0
C1744 C 0.54308 0.66132 0.53996 0.0
C1745 C 0.53379 0.67584 0.53069 0.0
C1746 C 0.53813 0.68621 0.49486 0.0
H1747 H 0.59631 0.70628 0.45502 0.0
H1748 H 0.58136 0.69637 0.49097 0.0
H1749 H 0.59307 0.68418 0.45161 0.0
H1750 H 0.5709 0.6637 0.45489 0.0
H1751 H 0.56387 0.64611 0.51732 0.0
H1752 H 0.51283 0.3428 0.51022 0.0
H1753 H 0.52388 0.33244 0.58055 0.0
H1754 H 0.55654 0.29882 0.51036 0.0
H1755 H 0.54511 0.30857 0.44049 0.0
H1756 H 0.54471 0.28345 0.57986 0.0
H1757 H 0.56732 0.3457 0.6337 0.0
H1758 H 0.54519 0.34494 0.62487 0.0
H1759 H 0.55923 0.34207 0.57912 0.0
C1760 C 0.5223 0.33313 0.50981 0.0
C1761 C 0.52812 0.32662 0.46951 0.0
C1762 C 0.52874 0.32729 0.55013 0.0
C1763 C 0.5414 0.31506 0.55111 0.0
C1764 C 0.54685 0.30827 0.51086 0.0
H1765 H 0.61625 0.29889 0.74828 0.0
H1766 H 0.59855 0.3065 0.68646 0.0
C1767 C 0.54029 0.31392 0.47072 0.0
C1768 C 0.54932 0.30945 0.5935 0.0
H1769 H 0.57089 0.32347 0.68362 0.0
C1770 C 0.55039 0.29223 0.60261 0.0
C1771 C 0.55692 0.32081 0.62327 0.0
C1772 C 0.55728 0.33939 0.61466 0.0
C1773 C 0.55907 0.28608 0.63973 0.0
C1774 C 0.56656 0.29745 0.66962 0.0
C1775 C 0.56512 0.31468 0.66106 0.0
C1776 C 0.57724 0.29194 0.70764 0.0
C1777 C 0.56075 0.26742 0.64535 0.0
C1778 C 0.57137 0.28101 0.74068 0.0
C1779 C 0.5817 0.27636 0.77629 0.0
C1780 C 0.598 0.28281 0.78002 0.0
C1781 C 0.60376 0.29372 0.7469 0.0
C1782 C 0.59359 0.29814 0.71132 0.0
H1783 H 0.55806 0.26061 0.61421 0.0
H1784 H 0.57351 0.26401 0.65653 0.0
H1785 H 0.55169 0.26309 0.67056 0.0
H1786 H 0.55871 0.27628 0.73942 0.0
H1787 H 0.57682 0.26804 0.80131 0.0
H1788 H 0.00332 0.3455 0.98111 0.0
H1789 H 0.992 0.33449 0.91177 0.0
H1790 H 0.95811 0.30309 0.98492 0.0
H1791 H 0.96981 0.31347 0.05392 0.0
H1792 H 0.96965 0.28624 0.9177 0.0
H1793 H 0.94925 0.34815 0.85587 0.0
H1794 H 0.97132 0.34692 0.86535 0.0
H1795 H 0.95704 0.34523 0.91103 0.0
C1796 C 0.99349 0.33621 0.98237 0.0
C1797 C 0.98743 0.33047 0.02322 0.0
C1798 C 0.98691 0.33 0.94262 0.0
C1799 C 0.97387 0.31818 0.94274 0.0
C1800 C 0.9681 0.31221 0.98358 0.0
H1801 H 0.90008 0.30081 0.74289 0.0
H1802 H 0.91741 0.30913 0.80484 0.0
C1803 C 0.97482 0.31821 0.0232 0.0
C1804 C 0.96595 0.31212 0.90082 0.0
H1805 H 0.94547 0.32524 0.80806 0.0
C1806 C 0.9644 0.2948 0.89368 0.0
C1807 C 0.95889 0.32318 0.86943 0.0
C1808 C 0.95904 0.34189 0.8759 0.0
C1809 C 0.95579 0.28829 0.85687 0.0
C1810 C 0.9489 0.29937 0.82527 0.0
C1811 C 0.9508 0.31667 0.83193 0.0
C1812 C 0.93845 0.29353 0.78717 0.0
C1813 C 0.95355 0.26961 0.85339 0.0
C1814 C 0.94432 0.28182 0.75603 0.0
C1815 C 0.93419 0.27677 0.72042 0.0
C1816 C 0.91813 0.28358 0.71473 0.0
C1817 C 0.9124 0.29533 0.74584 0.0
C1818 C 0.92235 0.30015 0.78148 0.0
H1819 H 0.95567 0.2633 0.88553 0.0
H1820 H 0.94082 0.26641 0.84162 0.0
H1821 H 0.96274 0.26454 0.82949 0.0
H1822 H 0.95681 0.27675 0.75882 0.0
H1823 H 0.93905 0.26779 0.69696 0.0
H1824 H 0.11541 0.32333 0.67532 0.0
H1825 H 0.11216 0.33899 0.74428 0.0
H1826 H 0.09165 0.29514 0.80675 0.0
H1827 H 0.09465 0.27955 0.73823 0.0
H1828 H 0.08252 0.3446 0.79143 0.0
H1829 H 0.12828 0.30997 0.89294 0.0
H1830 H 0.12815 0.30901 0.83342 0.0
H1831 H 0.114 0.29629 0.86506 0.0
C1832 C 0.11013 0.31708 0.70369 0.0
C1833 C 0.1054 0.30017 0.70146 0.0
C1834 C 0.10843 0.32598 0.74308 0.0
C1835 C 0.10208 0.31806 0.78074 0.0
C1836 C 0.09707 0.30131 0.77835 0.0
H1837 H 0.05607 0.33085 0.02261 0.0
H1838 H 0.07126 0.32235 0.95642 0.0
C1839 C 0.09875 0.29243 0.73914 0.0
C1840 C 0.0996 0.3274 0.82213 0.0
H1841 H 0.1067 0.32482 0.93274 0.0
C1842 C 0.0881 0.34061 0.82226 0.0
C1843 C 0.10701 0.32216 0.86208 0.0
C1844 C 0.12018 0.30869 0.86338 0.0
C1845 C 0.08279 0.34785 0.86193 0.0
C1846 C 0.08937 0.34181 0.90213 0.0
C1847 C 0.10167 0.32934 0.90176 0.0
C1848 C 0.08206 0.34674 0.94474 0.0
C1849 C 0.06937 0.36109 0.86081 0.0
C1850 C 0.08354 0.36312 0.96053 0.0
C1851 C 0.0748 0.36802 0.99823 0.0
C1852 C 0.06446 0.35658 0.02047 0.0
C1853 C 0.06372 0.33997 0.00568 0.0
C1854 C 0.07247 0.33509 0.96816 0.0
H1855 H 0.06416 0.3629 0.8272 0.0
H1856 H 0.05901 0.35774 0.8835 0.0
H1857 H 0.07467 0.37317 0.8721 0.0
H1858 H 0.09103 0.37222 0.94295 0.0
H1859 H 0.07555 0.38093 0.00874 0.0
H1860 H 0.4202 0.28026 0.74058 0.0
H1861 H 0.42297 0.29495 0.67043 0.0
H1862 H 0.39763 0.33774 0.72536 0.0
H1863 H 0.39485 0.32308 0.79592 0.0
H1864 H 0.39782 0.30861 0.61524 0.0
H1865 H 0.44187 0.35692 0.67889 0.0
H1866 H 0.4372 0.33813 0.70935 0.0
H1867 H 0.42222 0.35481 0.70706 0.0
C1868 C 0.41515 0.29276 0.73765 0.0
C1869 C 0.4074 0.30057 0.77371 0.0
C1870 C 0.41672 0.30112 0.69764 0.0
C1871 C 0.41058 0.31742 0.69296 0.0
C1872 C 0.40265 0.32523 0.72865 0.0
H1873 H 0.43939 0.37792 0.4656 0.0
H1874 H 0.42183 0.36927 0.52758 0.0
C1875 C 0.40115 0.31689 0.76889 0.0
C1876 C 0.41307 0.32623 0.65082 0.0
H1877 H 0.43668 0.35665 0.60305 0.0
C1878 C 0.4061 0.31929 0.61252 0.0
C1879 C 0.42375 0.34024 0.64765 0.0
C1880 C 0.43181 0.34796 0.68778 0.0
C1881 C 0.41024 0.32549 0.57075 0.0
C1882 C 0.42175 0.33878 0.56747 0.0
C1883 C 0.42783 0.34645 0.60586 0.0
C1884 C 0.42959 0.34339 0.52523 0.0
C1885 C 0.40269 0.31741 0.53048 0.0
C1886 C 0.4395 0.33162 0.50312 0.0
C1887 C 0.44954 0.33652 0.46791 0.0
C1888 C 0.44986 0.35328 0.45437 0.0
C1889 C 0.43926 0.36488 0.47508 0.0
C1890 C 0.42927 0.35999 0.5105 0.0
H1891 H 0.39037 0.31171 0.53814 0.0
H1892 H 0.40109 0.32658 0.50334 0.0
H1893 H 0.41109 0.3073 0.5188 0.0
H1894 H 0.44018 0.31882 0.51459 0.0
H1895 H 0.45746 0.32731 0.45219 0.0
H1896 H 0.44138 0.66001 0.58799 0.0
H1897 H 0.42483 0.66769 0.5233 0.0
H1898 H 0.46333 0.64799 0.43839 0.0
H1899 H 0.47959 0.63974 0.50266 0.0
H1900 H 0.43531 0.69002 0.46156 0.0
H1901 H 0.4212 0.62941 0.38206 0.0
H1902 H 0.42807 0.63101 0.43864 0.0
H1903 H 0.44301 0.63163 0.3943 0.0
C1904 C 0.44613 0.65697 0.55557 0.0
C1905 C 0.46184 0.64938 0.55041 0.0
C1906 C 0.43669 0.6614 0.51871 0.0
C1907 C 0.44278 0.65819 0.47619 0.0
C1908 C 0.45826 0.65025 0.47096 0.0
H1909 H 0.43175 0.71192 0.23708 0.0
H1910 H 0.44022 0.69878 0.30626 0.0
C1911 C 0.46767 0.6458 0.50773 0.0
C1912 C 0.43394 0.66475 0.43725 0.0
H1913 H 0.41972 0.65379 0.33529 0.0
C1914 C 0.43163 0.68208 0.43423 0.0
C1915 C 0.42902 0.65432 0.40194 0.0
C1916 C 0.43029 0.63554 0.40454 0.0
C1917 C 0.42531 0.68937 0.39581 0.0
C1918 C 0.42151 0.67905 0.35939 0.0
C1919 C 0.42295 0.66165 0.36316 0.0
C1920 C 0.41661 0.68622 0.31664 0.0
C1921 C 0.42298 0.70808 0.39429 0.0
C1922 C 0.40076 0.68298 0.29909 0.0
C1923 C 0.39589 0.69046 0.2596 0.0
C1924 C 0.40686 0.70122 0.23707 0.0
C1925 C 0.42294 0.70395 0.25412 0.0
C1926 C 0.42779 0.69646 0.29354 0.0
H1927 H 0.42202 0.71351 0.42791 0.0
H1928 H 0.4339 0.71385 0.37771 0.0
H1929 H 0.41158 0.71147 0.3754 0.0
H1930 H 0.39203 0.67502 0.31652 0.0
H1931 H 0.38337 0.68824 0.24757 0.0
H1932 H 0.09482 0.68554 0.34713 0.0
H1933 H 0.08677 0.66855 0.28325 0.0
H1934 H 0.1134 0.70223 0.1974 0.0
H1935 H 0.12151 0.71922 0.26103 0.0
H1936 H 0.06841 0.68522 0.2086 0.0
H1937 H 0.12685 0.65268 0.15886 0.0
H1938 H 0.12301 0.65959 0.21474 0.0
H1939 H 0.12864 0.67446 0.17306 0.0
C1940 C 0.09921 0.6891 0.31472 0.0
C1941 C 0.10867 0.70372 0.30884 0.0
C1942 C 0.09462 0.67942 0.27841 0.0
C1943 C 0.09969 0.6841 0.23596 0.0
C1944 C 0.1096 0.69835 0.23012 0.0
H1945 H 0.07889 0.66316 0.96641 0.0
H1946 H 0.09167 0.66979 0.03775 0.0
C1947 C 0.11404 0.70812 0.26631 0.0
C1948 C 0.09301 0.67534 0.19716 0.0
H1949 H 0.10435 0.65219 0.10769 0.0
C1950 C 0.07615 0.67777 0.18677 0.0
C1951 C 0.1033 0.66587 0.16886 0.0
C1952 C 0.12146 0.66284 0.17938 0.0
C1953 C 0.06937 0.67152 0.14758 0.0
C1954 C 0.07968 0.6621 0.11889 0.0
C1955 C 0.09649 0.65932 0.12992 0.0
C1956 C 0.07343 0.65604 0.076 0.0
C1957 C 0.0515 0.67582 0.13632 0.0
C1958 C 0.05939 0.64558 0.07395 0.0
C1959 C 0.05197 0.64206 0.03344 0.0
C1960 C 0.05873 0.6486 0.9944 0.0
C1961 C 0.07351 0.65799 0.99618 0.0
C1962 C 0.08077 0.66177 0.0368 0.0
H1963 H 0.04682 0.68654 0.15608 0.0
H1964 H 0.0502 0.67897 0.10084 0.0
H1965 H 0.04339 0.66491 0.14348 0.0
H1966 H 0.05382 0.64067 0.10379 0.0
H1967 H 0.04074 0.63452 0.0326 0.0
loop_
_geom_bond_atom_site_label_1
_geom_bond_atom_site_label_2
_geom_bond_distance
_geom_bond_site_symmetry_2
_ccdc_geom_bond_type
C0 C1 1.351 . S
C0 N3 1.368 . S
C0 H5 0.931 . S
C1 C0 1.351 . S
C1 N2 1.373 . S
C1 H29 0.930 . S
N2 C1 1.373 . S
N2 C4 1.340 . S
N3 C0 1.368 . S
N3 C4 1.321 . S
N3 Co6 2.135 . S
C4 N2 1.340 . S
C4 N3 1.321 . S
C4 H28 0.930 . S
H5 C0 0.931 . S
Co6 N3 2.135 . S
Co6 N9 2.121 . S
Co6 O14 2.055 . S
Co6 O17 2.039 . S
Co6 N20 2.140 . S
C7 O8 1.227 . S
C7 O17 1.265 . S
O8 C7 1.227 . S
N9 Co6 2.121 . S
N9 C11 1.375 . S
N9 C12 1.313 . S
C10 C11 1.338 . S
C10 N13 1.377 . S
C10 H30 0.930 . S
C11 N9 1.375 . S
C11 C10 1.338 . S
C11 H15 0.931 . S
C12 N9 1.313 . S
C12 N13 1.344 . S
C12 H16 0.930 . S
N13 C10 1.377 . S
N13 C12 1.344 . S
O14 Co6 2.055 . S
O14 C18 1.253 . S
H15 C11 0.931 . S
H16 C12 0.930 . S
O17 Co6 2.039 . S
O17 C7 1.265 . S
C18 O14 1.253 . S
C18 O19 1.227 . S
O19 C18 1.227 . S
N20 Co6 2.140 . S
N20 C23 1.346 . S
N20 C24 1.345 . S
C21 C22 1.387 . S
C21 C25 1.391 . S
C22 C21 1.387 . S
C22 C23 1.369 . S
C22 H31 0.929 . S
C23 N20 1.346 . S
C23 C22 1.369 . S
C23 H26 0.928 . S
C24 N20 1.345 . S
C24 C25 1.371 . S
C24 H27 0.931 . S
C25 C21 1.391 . S
C25 C24 1.371 . S
C25 H32 0.930 . S
H26 C23 0.928 . S
H27 C24 0.931 . S
H28 C4 0.930 . S
H29 C1 0.930 . S
H30 C10 0.930 . S
H31 C22 0.929 . S
H32 C25 0.930 . S
C33 C34 1.351 . S
C33 N36 1.368 . S
C33 H38 0.931 . S
C34 C33 1.351 . S
C34 N35 1.373 . S
C34 H62 0.930 . S
N35 C34 1.373 . S
N35 C37 1.340 . S
N36 C33 1.368 . S
N36 C37 1.321 . S
N36 Co39 2.135 . S
C37 N35 1.340 . S
C37 N36 1.321 . S
C37 H61 0.930 . S
H38 C33 0.931 . S
Co39 N36 2.135 . S
Co39 N42 2.121 . S
Co39 O47 2.055 . S
Co39 O50 2.039 . S
Co39 N53 2.140 . S
C40 O41 1.227 . S
C40 O50 1.265 . S
O41 C40 1.227 . S
N42 Co39 2.121 . S
N42 C44 1.375 . S
N42 C45 1.313 . S
C43 C44 1.338 . S
C43 N46 1.377 . S
C43 H63 0.930 . S
C44 N42 1.375 . S
C44 C43 1.338 . S
C44 H48 0.931 . S
C45 N42 1.313 . S
C45 N46 1.344 . S
C45 H49 0.930 . S
N46 C43 1.377 . S
N46 C45 1.344 . S
O47 Co39 2.055 . S
O47 C51 1.253 . S
H48 C44 0.931 . S
H49 C45 0.930 . S
O50 Co39 2.039 . S
O50 C40 1.265 . S
C51 O47 1.253 . S
C51 O52 1.227 . S
O52 C51 1.227 . S
N53 Co39 2.140 . S
N53 C56 1.346 . S
N53 C57 1.345 . S
C54 C55 1.387 . S
C54 C58 1.391 . S
C55 C54 1.387 . S
C55 C56 1.369 . S
C55 H64 0.929 . S
C56 N53 1.346 . S
C56 C55 1.369 . S
C56 H59 0.928 . S
C57 N53 1.345 . S
C57 C58 1.371 . S
C57 H60 0.931 . S
C58 C54 1.391 . S
C58 C57 1.371 . S
C58 H65 0.930 . S
H59 C56 0.928 . S
H60 C57 0.931 . S
H61 C37 0.930 . S
H62 C34 0.930 . S
H63 C43 0.930 . S
H64 C55 0.929 . S
H65 C58 0.930 . S
C66 C67 1.351 . S
C66 N69 1.368 . S
C66 H71 0.931 . S
C67 C66 1.351 . S
C67 N68 1.373 . S
C67 H95 0.930 . S
N68 C67 1.373 . S
N68 C70 1.340 . S
N69 C66 1.368 . S
N69 C70 1.321 . S
N69 Co72 2.135 1_655 S
C70 N68 1.340 . S
C70 N69 1.321 . S
C70 H94 0.930 . S
H71 C66 0.931 . S
Co72 N69 2.135 1_455 S
Co72 N75 2.121 . S
Co72 O80 2.055 1_455 S
Co72 O83 2.039 . S
Co72 N86 2.140 . S
C73 O74 1.227 . S
C73 O83 1.265 . S
O74 C73 1.227 . S
N75 Co72 2.121 . S
N75 C77 1.375 . S
N75 C78 1.313 . S
C76 C77 1.338 . S
C76 N79 1.377 . S
C76 H96 0.930 . S
C77 N75 1.375 . S
C77 C76 1.338 . S
C77 H81 0.931 . S
C78 N75 1.313 . S
C78 N79 1.344 . S
C78 H82 0.930 . S
N79 C76 1.377 . S
N79 C78 1.344 . S
O80 Co72 2.055 1_655 S
O80 C84 1.253 . S
H81 C77 0.931 . S
H82 C78 0.930 . S
O83 Co72 2.039 . S
O83 C73 1.265 . S
C84 O80 1.253 . S
C84 O85 1.227 . S
O85 C84 1.227 . S
N86 Co72 2.140 . S
N86 C89 1.346 . S
N86 C90 1.345 . S
C87 C88 1.387 . S
C87 C91 1.391 . S
C88 C87 1.387 . S
C88 C89 1.369 . S
C88 H97 0.929 . S
C89 N86 1.346 . S
C89 C88 1.369 . S
C89 H92 0.928 . S
C90 N86 1.345 . S
C90 C91 1.371 . S
C90 H93 0.931 . S
C91 C87 1.391 . S
C91 C90 1.371 . S
C91 H98 0.930 . S
H92 C89 0.928 . S
H93 C90 0.931 . S
H94 C70 0.930 . S
H95 C67 0.930 . S
H96 C76 0.930 . S
H97 C88 0.929 . S
H98 C91 0.930 . S
C99 C100 1.351 . S
C99 N102 1.368 . S
C99 H104 0.931 . S
C100 C99 1.351 . S
C100 N101 1.373 . S
C100 H128 0.930 . S
N101 C100 1.373 . S
N101 C103 1.340 . S
N102 C99 1.368 . S
N102 C103 1.321 . S
N102 Co105 2.135 . S
C103 N101 1.340 . S
C103 N102 1.321 . S
C103 H127 0.930 . S
H104 C99 0.931 . S
Co105 N102 2.135 . S
Co105 N108 2.121 . S
Co105 O113 2.055 . S
Co105 O116 2.039 . S
Co105 N119 2.140 . S
C106 O107 1.227 . S
C106 O116 1.265 . S
O107 C106 1.227 . S
N108 Co105 2.121 . S
N108 C110 1.375 . S
N108 C111 1.313 . S
C109 C110 1.338 . S
C109 N112 1.377 . S
C109 H129 0.930 . S
C110 N108 1.375 . S
C110 C109 1.338 . S
C110 H114 0.931 . S
C111 N108 1.313 . S
C111 N112 1.344 . S
C111 H115 0.930 . S
N112 C109 1.377 . S
N112 C111 1.344 . S
O113 Co105 2.055 . S
O113 C117 1.253 . S
H114 C110 0.931 . S
H115 C111 0.930 . S
O116 Co105 2.039 . S
O116 C106 1.265 . S
C117 O113 1.253 . S
C117 O118 1.227 . S
O118 C117 1.227 . S
N119 Co105 2.140 . S
N119 C122 1.346 . S
N119 C123 1.345 . S
C120 C121 1.387 . S
C120 C124 1.391 . S
C121 C120 1.387 . S
C121 C122 1.369 . S
C121 H130 0.929 . S
C122 N119 1.346 . S
C122 C121 1.369 . S
C122 H125 0.928 . S
C123 N119 1.345 . S
C123 C124 1.371 . S
C123 H126 0.931 . S
C124 C120 1.391 . S
C124 C123 1.371 . S
C124 H131 0.930 . S
H125 C122 0.928 . S
H126 C123 0.931 . S
H127 C103 0.930 . S
H128 C100 0.930 . S
H129 C109 0.930 . S
H130 C121 0.929 . S
H131 C124 0.930 . S
C132 C133 1.351 . S
C132 N135 1.368 . S
C132 H137 0.931 . S
C133 C132 1.351 . S
C133 N134 1.373 . S
C133 H161 0.930 . S
N134 C133 1.373 . S
N134 C136 1.340 . S
N135 C132 1.368 . S
N135 C136 1.321 . S
N135 Co138 2.135 . S
C136 N134 1.340 . S
C136 N135 1.321 . S
C136 H160 0.930 . S
H137 C132 0.931 . S
Co138 N135 2.135 . S
Co138 N141 2.121 . S
Co138 O146 2.055 . S
Co138 O149 2.039 . S
Co138 N152 2.140 . S
C139 O140 1.227 . S
C139 O149 1.265 . S
O140 C139 1.227 . S
N141 Co138 2.121 . S
N141 C143 1.375 . S
N141 C144 1.313 . S
C142 C143 1.338 . S
C142 N145 1.377 . S
C142 H162 0.930 . S
C143 N141 1.375 . S
C143 C142 1.338 . S
C143 H147 0.931 . S
C144 N141 1.313 . S
C144 N145 1.344 . S
C144 H148 0.930 . S
N145 C142 1.377 . S
N145 C144 1.344 . S
O146 Co138 2.055 . S
O146 C150 1.253 . S
H147 C143 0.931 . S
H148 C144 0.930 . S
O149 Co138 2.039 . S
O149 C139 1.265 . S
C150 O146 1.253 . S
C150 O151 1.227 . S
O151 C150 1.227 . S
N152 Co138 2.140 . S
N152 C155 1.346 . S
N152 C156 1.345 . S
C153 C154 1.387 . S
C153 C157 1.391 . S
C154 C153 1.387 . S
C154 C155 1.369 . S
C154 H163 0.929 . S
C155 N152 1.346 . S
C155 C154 1.369 . S
C155 H158 0.928 . S
C156 N152 1.345 . S
C156 C157 1.371 . S
C156 H159 0.931 . S
C157 C153 1.391 . S
C157 C156 1.371 . S
C157 H164 0.930 . S
H158 C155 0.928 . S
H159 C156 0.931 . S
H160 C136 0.930 . S
H161 C133 0.930 . S
H162 C142 0.930 . S
H163 C154 0.929 . S
H164 C157 0.930 . S
C165 C166 1.351 . S
C165 N168 1.368 . S
C165 H170 0.931 . S
C166 C165 1.351 . S
C166 N167 1.373 . S
C166 H194 0.930 . S
N167 C166 1.373 . S
N167 C169 1.340 . S
N168 C165 1.368 . S
N168 C169 1.321 . S
N168 Co171 2.135 . S
C169 N167 1.340 . S
C169 N168 1.321 . S
C169 H193 0.930 . S
H170 C165 0.931 . S
Co171 N168 2.135 . S
Co171 N174 2.121 . S
Co171 O179 2.055 . S
Co171 O182 2.039 . S
Co171 N185 2.140 . S
C172 O173 1.227 . S
C172 O182 1.265 . S
O173 C172 1.227 . S
N174 Co171 2.121 . S
N174 C176 1.375 . S
N174 C177 1.313 . S
C175 C176 1.338 . S
C175 N178 1.377 . S
C175 H195 0.930 . S
C176 N174 1.375 . S
C176 C175 1.338 . S
C176 H180 0.931 . S
C177 N174 1.313 . S
C177 N178 1.344 . S
C177 H181 0.930 . S
N178 C175 1.377 . S
N178 C177 1.344 . S
O179 Co171 2.055 . S
O179 C183 1.253 . S
H180 C176 0.931 . S
H181 C177 0.930 . S
O182 Co171 2.039 . S
O182 C172 1.265 . S
C183 O179 1.253 . S
C183 O184 1.227 . S
O184 C183 1.227 . S
N185 Co171 2.140 . S
N185 C188 1.346 . S
N185 C189 1.345 . S
C186 C187 1.387 . S
C186 C190 1.391 . S
C187 C186 1.387 . S
C187 C188 1.369 . S
C187 H196 0.929 . S
C188 N185 1.346 . S
C188 C187 1.369 . S
C188 H191 0.928 . S
C189 N185 1.345 . S
C189 C190 1.371 . S
C189 H192 0.931 . S
C190 C186 1.391 . S
C190 C189 1.371 . S
C190 H197 0.930 . S
H191 C188 0.928 . S
H192 C189 0.931 . S
H193 C169 0.930 . S
H194 C166 0.930 . S
H195 C175 0.930 . S
H196 C187 0.929 . S
H197 C190 0.930 . S
C198 C199 1.351 . S
C198 N201 1.368 . S
C198 H203 0.931 . S
C199 C198 1.351 . S
C199 N200 1.373 . S
C199 H227 0.930 . S
N200 C199 1.373 . S
N200 C202 1.340 . S
N201 C198 1.368 . S
N201 C202 1.321 . S
N201 Co204 2.135 1_655 S
C202 N200 1.340 . S
C202 N201 1.321 . S
C202 H226 0.930 . S
H203 C198 0.931 . S
Co204 N201 2.135 1_455 S
Co204 N207 2.121 . S
Co204 O212 2.055 1_455 S
Co204 O215 2.039 . S
Co204 N218 2.140 . S
C205 O206 1.227 . S
C205 O215 1.265 . S
O206 C205 1.227 . S
N207 Co204 2.121 . S
N207 C209 1.375 . S
N207 C210 1.313 . S
C208 C209 1.338 . S
C208 N211 1.377 . S
C208 H228 0.930 . S
C209 N207 1.375 . S
C209 C208 1.338 . S
C209 H213 0.931 . S
C210 N207 1.313 . S
C210 N211 1.344 . S
C210 H214 0.930 . S
N211 C208 1.377 . S
N211 C210 1.344 . S
O212 Co204 2.055 1_655 S
O212 C216 1.253 . S
H213 C209 0.931 . S
H214 C210 0.930 . S
O215 Co204 2.039 . S
O215 C205 1.265 . S
C216 O212 1.253 . S
C216 O217 1.227 . S
O217 C216 1.227 . S
N218 Co204 2.140 . S
N218 C221 1.346 . S
N218 C222 1.345 . S
C219 C220 1.387 . S
C219 C223 1.391 . S
C220 C219 1.387 . S
C220 C221 1.369 . S
C220 H229 0.929 . S
C221 N218 1.346 . S
C221 C220 1.369 . S
C221 H224 0.928 . S
C222 N218 1.345 . S
C222 C223 1.371 . S
C222 H225 0.931 . S
C223 C219 1.391 . S
C223 C222 1.371 . S
C223 H230 0.930 . S
H224 C221 0.928 . S
H225 C222 0.931 . S
H226 C202 0.930 . S
H227 C199 0.930 . S
H228 C208 0.930 . S
H229 C220 0.929 . S
H230 C223 0.930 . S
C231 C232 1.351 . S
C231 N234 1.368 . S
C231 H236 0.931 . S
C232 C231 1.351 . S
C232 N233 1.373 . S
C232 H260 0.930 . S
N233 C232 1.373 . S
N233 C235 1.340 . S
N234 C231 1.368 . S
N234 C235 1.321 . S
N234 Co237 2.135 . S
C235 N233 1.340 . S
C235 N234 1.321 . S
C235 H259 0.930 . S
H236 C231 0.931 . S
Co237 N234 2.135 . S
Co237 N240 2.121 . S
Co237 O245 2.055 . S
Co237 O248 2.039 . S
Co237 N251 2.140 . S
C238 O239 1.227 . S
C238 O248 1.265 . S
O239 C238 1.227 . S
N240 Co237 2.121 . S
N240 C242 1.375 . S
N240 C243 1.313 . S
C241 C242 1.338 . S
C241 N244 1.377 . S
C241 H261 0.930 . S
C242 N240 1.375 . S
C242 C241 1.338 . S
C242 H246 0.931 . S
C243 N240 1.313 . S
C243 N244 1.344 . S
C243 H247 0.930 . S
N244 C241 1.377 . S
N244 C243 1.344 . S
O245 Co237 2.055 . S
O245 C249 1.253 . S
H246 C242 0.931 . S
H247 C243 0.930 . S
O248 Co237 2.039 . S
O248 C238 1.265 . S
C249 O245 1.253 . S
C249 O250 1.227 . S
O250 C249 1.227 . S
N251 Co237 2.140 . S
N251 C254 1.346 . S
N251 C255 1.345 . S
C252 C253 1.387 . S
C252 C256 1.391 . S
C253 C252 1.387 . S
C253 C254 1.369 . S
C253 H262 0.929 . S
C254 N251 1.346 . S
C254 C253 1.369 . S
C254 H257 0.928 . S
C255 N251 1.345 . S
C255 C256 1.371 . S
C255 H258 0.931 . S
C256 C252 1.391 . S
C256 C255 1.371 . S
C256 H263 0.930 . S
H257 C254 0.928 . S
H258 C255 0.931 . S
H259 C235 0.930 . S
H260 C232 0.930 . S
H261 C241 0.930 . S
H262 C253 0.929 . S
H263 C256 0.930 . S
C264 C265 1.351 . S
C264 N267 1.368 . S
C264 H269 0.931 . S
C265 C264 1.351 . S
C265 N266 1.373 . S
C265 H293 0.930 . S
N266 C265 1.373 . S
N266 C268 1.340 . S
N267 C264 1.368 . S
N267 C268 1.321 . S
N267 Co270 2.135 . S
C268 N266 1.340 . S
C268 N267 1.321 . S
C268 H292 0.930 . S
H269 C264 0.931 . S
Co270 N267 2.135 . S
Co270 N273 2.121 . S
Co270 O278 2.055 . S
Co270 O281 2.039 . S
Co270 N284 2.140 . S
C271 O272 1.227 . S
C271 O281 1.265 . S
O272 C271 1.227 . S
N273 Co270 2.121 . S
N273 C275 1.375 . S
N273 C276 1.313 . S
C274 C275 1.338 . S
C274 N277 1.377 . S
C274 H294 0.930 . S
C275 N273 1.375 . S
C275 C274 1.338 . S
C275 H279 0.931 . S
C276 N273 1.313 . S
C276 N277 1.344 . S
C276 H280 0.930 . S
N277 C274 1.377 . S
N277 C276 1.344 . S
O278 Co270 2.055 . S
O278 C282 1.253 . S
H279 C275 0.931 . S
H280 C276 0.930 . S
O281 Co270 2.039 . S
O281 C271 1.265 . S
C282 O278 1.253 . S
C282 O283 1.227 . S
O283 C282 1.227 . S
N284 Co270 2.140 . S
N284 C287 1.346 . S
N284 C288 1.345 . S
C285 C286 1.387 . S
C285 C289 1.391 . S
C286 C285 1.387 . S
C286 C287 1.369 . S
C286 H295 0.929 . S
C287 N284 1.346 . S
C287 C286 1.369 . S
C287 H290 0.928 . S
C288 N284 1.345 . S
C288 C289 1.371 . S
C288 H291 0.931 . S
C289 C285 1.391 . S
C289 C288 1.371 . S
C289 H296 0.930 . S
H290 C287 0.928 . S
H291 C288 0.931 . S
H292 C268 0.930 . S
H293 C265 0.930 . S
H294 C274 0.930 . S
H295 C286 0.929 . S
H296 C289 0.930 . S
C297 C298 1.351 . S
C297 N300 1.368 . S
C297 H302 0.931 . S
C298 C297 1.351 . S
C298 N299 1.373 . S
C298 H326 0.930 . S
N299 C298 1.373 . S
N299 C301 1.340 . S
N300 C297 1.368 . S
N300 C301 1.321 . S
N300 Co303 2.135 . S
C301 N299 1.340 . S
C301 N300 1.321 . S
C301 H325 0.930 . S
H302 C297 0.931 . S
Co303 N300 2.135 . S
Co303 N306 2.121 . S
Co303 O311 2.055 . S
Co303 O314 2.039 . S
Co303 N317 2.140 . S
C304 O305 1.227 . S
C304 O314 1.265 . S
O305 C304 1.227 . S
N306 Co303 2.121 . S
N306 C308 1.375 . S
N306 C309 1.313 . S
C307 C308 1.338 . S
C307 N310 1.377 . S
C307 H327 0.930 . S
C308 N306 1.375 . S
C308 C307 1.338 . S
C308 H312 0.931 . S
C309 N306 1.313 . S
C309 N310 1.344 . S
C309 H313 0.930 . S
N310 C307 1.377 . S
N310 C309 1.344 . S
O311 Co303 2.055 . S
O311 C315 1.253 . S
H312 C308 0.931 . S
H313 C309 0.930 . S
O314 Co303 2.039 . S
O314 C304 1.265 . S
C315 O311 1.253 . S
C315 O316 1.227 . S
O316 C315 1.227 . S
N317 Co303 2.140 . S
N317 C320 1.346 . S
N317 C321 1.345 . S
C318 C319 1.387 . S
C318 C322 1.391 . S
C319 C318 1.387 . S
C319 C320 1.369 . S
C319 H328 0.929 . S
C320 N317 1.346 . S
C320 C319 1.369 . S
C320 H323 0.928 . S
C321 N317 1.345 . S
C321 C322 1.371 . S
C321 H324 0.931 . S
C322 C318 1.391 . S
C322 C321 1.371 . S
C322 H329 0.930 . S
H323 C320 0.928 . S
H324 C321 0.931 . S
H325 C301 0.930 . S
H326 C298 0.930 . S
H327 C307 0.930 . S
H328 C319 0.929 . S
H329 C322 0.930 . S
C330 C331 1.351 . S
C330 N333 1.368 . S
C330 H335 0.931 . S
C331 C330 1.351 . S
C331 N332 1.373 . S
C331 H359 0.930 . S
N332 C331 1.373 . S
N332 C334 1.340 . S
N333 C330 1.368 . S
N333 C334 1.321 . S
N333 Co336 2.135 . S
C334 N332 1.340 . S
C334 N333 1.321 . S
C334 H358 0.930 . S
H335 C330 0.931 . S
Co336 N333 2.135 . S
Co336 N339 2.121 . S
Co336 O344 2.055 . S
Co336 O347 2.039 . S
Co336 N350 2.140 . S
C337 O338 1.227 . S
C337 O347 1.265 . S
O338 C337 1.227 . S
N339 Co336 2.121 . S
N339 C341 1.375 . S
N339 C342 1.313 . S
C340 C341 1.338 . S
C340 N343 1.377 . S
C340 H360 0.930 . S
C341 N339 1.375 . S
C341 C340 1.338 . S
C341 H345 0.931 . S
C342 N339 1.313 . S
C342 N343 1.344 . S
C342 H346 0.930 . S
N343 C340 1.377 . S
N343 C342 1.344 . S
O344 Co336 2.055 . S
O344 C348 1.253 . S
H345 C341 0.931 . S
H346 C342 0.930 . S
O347 Co336 2.039 . S
O347 C337 1.265 . S
C348 O344 1.253 . S
C348 O349 1.227 . S
O349 C348 1.227 . S
N350 Co336 2.140 . S
N350 C353 1.346 . S
N350 C354 1.345 . S
C351 C352 1.387 . S
C351 C355 1.391 . S
C352 C351 1.387 . S
C352 C353 1.369 . S
C352 H361 0.929 . S
C353 N350 1.346 . S
C353 C352 1.369 . S
C353 H356 0.928 . S
C354 N350 1.345 . S
C354 C355 1.371 . S
C354 H357 0.931 . S
C355 C351 1.391 . S
C355 C354 1.371 . S
C355 H362 0.930 . S
H356 C353 0.928 . S
H357 C354 0.931 . S
H358 C334 0.930 . S
H359 C331 0.930 . S
H360 C340 0.930 . S
H361 C352 0.929 . S
H362 C355 0.930 . S
C363 C364 1.351 . S
C363 N366 1.368 . S
C363 H368 0.931 . S
C364 C363 1.351 . S
C364 N365 1.373 . S
C364 H392 0.930 . S
N365 C364 1.373 . S
N365 C367 1.340 . S
N366 C363 1.368 . S
N366 C367 1.321 . S
N366 Co369 2.135 . S
C367 N365 1.340 . S
C367 N366 1.321 . S
C367 H391 0.930 . S
H368 C363 0.931 . S
Co369 N366 2.135 . S
Co369 N372 2.121 . S
Co369 O377 2.055 . S
Co369 O380 2.039 . S
Co369 N383 2.140 . S
C370 O371 1.227 . S
C370 O380 1.265 . S
O371 C370 1.227 . S
N372 Co369 2.121 . S
N372 C374 1.375 . S
N372 C375 1.313 . S
C373 C374 1.338 . S
C373 N376 1.377 . S
C373 H393 0.930 . S
C374 N372 1.375 . S
C374 C373 1.338 . S
C374 H378 0.931 . S
C375 N372 1.313 . S
C375 N376 1.344 . S
C375 H379 0.930 . S
N376 C373 1.377 . S
N376 C375 1.344 . S
O377 Co369 2.055 . S
O377 C381 1.253 . S
H378 C374 0.931 . S
H379 C375 0.930 . S
O380 Co369 2.039 . S
O380 C370 1.265 . S
C381 O377 1.253 . S
C381 O382 1.227 . S
O382 C381 1.227 . S
N383 Co369 2.140 . S
N383 C386 1.346 . S
N383 C387 1.345 . S
C384 C385 1.387 . S
C384 C388 1.391 . S
C385 C384 1.387 . S
C385 C386 1.369 . S
C385 H394 0.929 . S
C386 N383 1.346 . S
C386 C385 1.369 . S
C386 H389 0.928 . S
C387 N383 1.345 . S
C387 C388 1.371 . S
C387 H390 0.931 . S
C388 C384 1.391 . S
C388 C387 1.371 . S
C388 H395 0.930 . S
H389 C386 0.928 . S
H390 C387 0.931 . S
H391 C367 0.930 . S
H392 C364 0.930 . S
H393 C373 0.930 . S
H394 C385 0.929 . S
H395 C388 0.930 . S
C396 C397 1.351 . S
C396 N399 1.368 . S
C396 H401 0.931 . S
C397 C396 1.351 . S
C397 N398 1.373 . S
C397 H425 0.930 . S
N398 C397 1.373 . S
N398 C400 1.340 . S
N399 C396 1.368 . S
N399 C400 1.321 . S
N399 Co402 2.135 . S
C400 N398 1.340 . S
C400 N399 1.321 . S
C400 H424 0.930 . S
H401 C396 0.931 . S
Co402 N399 2.135 . S
Co402 N405 2.121 1_455 S
Co402 O410 2.055 . S
Co402 O413 2.039 1_455 S
Co402 N416 2.140 . S
C403 O404 1.227 . S
C403 O413 1.265 . S
O404 C403 1.227 . S
N405 Co402 2.121 1_655 S
N405 C407 1.375 . S
N405 C408 1.313 . S
C406 C407 1.338 . S
C406 N409 1.377 . S
C406 H426 0.930 . S
C407 N405 1.375 . S
C407 C406 1.338 . S
C407 H411 0.931 . S
C408 N405 1.313 . S
C408 N409 1.344 . S
C408 H412 0.930 . S
N409 C406 1.377 . S
N409 C408 1.344 . S
O410 Co402 2.055 . S
O410 C414 1.253 . S
H411 C407 0.931 . S
H412 C408 0.930 . S
O413 Co402 2.039 1_655 S
O413 C403 1.265 . S
C414 O410 1.253 . S
C414 O415 1.227 . S
O415 C414 1.227 . S
N416 Co402 2.140 . S
N416 C419 1.346 . S
N416 C420 1.345 . S
C417 C418 1.387 . S
C417 C421 1.391 . S
C418 C417 1.387 . S
C418 C419 1.369 . S
C418 H427 0.929 . S
C419 N416 1.346 . S
C419 C418 1.369 . S
C419 H422 0.928 . S
C420 N416 1.345 . S
C420 C421 1.371 . S
C420 H423 0.931 . S
C421 C417 1.391 . S
C421 C420 1.371 . S
C421 H428 0.930 . S
H422 C419 0.928 . S
H423 C420 0.931 . S
H424 C400 0.930 . S
H425 C397 0.930 . S
H426 C406 0.930 . S
H427 C418 0.929 . S
H428 C421 0.930 . S
C429 C430 1.351 . S
C429 N432 1.368 . S
C429 H434 0.931 . S
C430 C429 1.351 . S
C430 N431 1.373 . S
C430 H458 0.930 . S
N431 C430 1.373 . S
N431 C433 1.340 . S
N432 C429 1.368 . S
N432 C433 1.321 . S
N432 Co435 2.135 . S
C433 N431 1.340 . S
C433 N432 1.321 . S
C433 H457 0.930 . S
H434 C429 0.931 . S
Co435 N432 2.135 . S
Co435 N438 2.121 . S
Co435 O443 2.055 . S
Co435 O446 2.039 . S
Co435 N449 2.140 . S
C436 O437 1.227 . S
C436 O446 1.265 . S
O437 C436 1.227 . S
N438 Co435 2.121 . S
N438 C440 1.375 . S
N438 C441 1.313 . S
C439 C440 1.338 . S
C439 N442 1.377 . S
C439 H459 0.930 . S
C440 N438 1.375 . S
C440 C439 1.338 . S
C440 H444 0.931 . S
C441 N438 1.313 . S
C441 N442 1.344 . S
C441 H445 0.930 . S
N442 C439 1.377 . S
N442 C441 1.344 . S
O443 Co435 2.055 . S
O443 C447 1.253 . S
H444 C440 0.931 . S
H445 C441 0.930 . S
O446 Co435 2.039 . S
O446 C436 1.265 . S
C447 O443 1.253 . S
C447 O448 1.227 . S
O448 C447 1.227 . S
N449 Co435 2.140 . S
N449 C452 1.346 . S
N449 C453 1.345 . S
C450 C451 1.387 . S
C450 C454 1.391 . S
C451 C450 1.387 . S
C451 C452 1.369 . S
C451 H460 0.929 . S
C452 N449 1.346 . S
C452 C451 1.369 . S
C452 H455 0.928 . S
C453 N449 1.345 . S
C453 C454 1.371 . S
C453 H456 0.931 . S
C454 C450 1.391 . S
C454 C453 1.371 . S
C454 H461 0.930 . S
H455 C452 0.928 . S
H456 C453 0.931 . S
H457 C433 0.930 . S
H458 C430 0.930 . S
H459 C439 0.930 . S
H460 C451 0.929 . S
H461 C454 0.930 . S
C462 C463 1.351 . S
C462 N465 1.368 . S
C462 H467 0.931 . S
C463 C462 1.351 . S
C463 N464 1.373 . S
C463 H491 0.930 . S
N464 C463 1.373 . S
N464 C466 1.340 . S
N465 C462 1.368 . S
N465 C466 1.321 . S
N465 Co468 2.135 . S
C466 N464 1.340 . S
C466 N465 1.321 . S
C466 H490 0.930 . S
H467 C462 0.931 . S
Co468 N465 2.135 . S
Co468 N471 2.121 1_455 S
Co468 O476 2.055 . S
Co468 O479 2.039 1_455 S
Co468 N482 2.140 . S
C469 O470 1.227 . S
C469 O479 1.265 . S
O470 C469 1.227 . S
N471 Co468 2.121 1_655 S
N471 C473 1.375 . S
N471 C474 1.313 . S
C472 C473 1.338 . S
C472 N475 1.377 . S
C472 H492 0.930 . S
C473 N471 1.375 . S
C473 C472 1.338 . S
C473 H477 0.931 . S
C474 N471 1.313 . S
C474 N475 1.344 . S
C474 H478 0.930 . S
N475 C472 1.377 . S
N475 C474 1.344 . S
O476 Co468 2.055 . S
O476 C480 1.253 . S
H477 C473 0.931 . S
H478 C474 0.930 . S
O479 Co468 2.039 1_655 S
O479 C469 1.265 . S
C480 O476 1.253 . S
C480 O481 1.227 . S
O481 C480 1.227 . S
N482 Co468 2.140 . S
N482 C485 1.346 . S
N482 C486 1.345 . S
C483 C484 1.387 . S
C483 C487 1.391 . S
C484 C483 1.387 . S
C484 C485 1.369 . S
C484 H493 0.929 . S
C485 N482 1.346 . S
C485 C484 1.369 . S
C485 H488 0.928 . S
C486 N482 1.345 . S
C486 C487 1.371 . S
C486 H489 0.931 . S
C487 C483 1.391 . S
C487 C486 1.371 . S
C487 H494 0.930 . S
H488 C485 0.928 . S
H489 C486 0.931 . S
H490 C466 0.930 . S
H491 C463 0.930 . S
H492 C472 0.930 . S
H493 C484 0.929 . S
H494 C487 0.930 . S
C495 C496 1.351 . S
C495 N498 1.368 . S
C495 H500 0.931 . S
C496 C495 1.351 . S
C496 N497 1.373 . S
C496 H524 0.930 . S
N497 C496 1.373 . S
N497 C499 1.340 . S
N498 C495 1.368 . S
N498 C499 1.321 . S
N498 Co501 2.135 . S
C499 N497 1.340 . S
C499 N498 1.321 . S
C499 H523 0.930 . S
H500 C495 0.931 . S
Co501 N498 2.135 . S
Co501 N504 2.121 . S
Co501 O509 2.055 . S
Co501 O512 2.039 . S
Co501 N515 2.140 . S
C502 O503 1.227 . S
C502 O512 1.265 . S
O503 C502 1.227 . S
N504 Co501 2.121 . S
N504 C506 1.375 . S
N504 C507 1.313 . S
C505 C506 1.338 . S
C505 N508 1.377 . S
C505 H525 0.930 . S
C506 N504 1.375 . S
C506 C505 1.338 . S
C506 H510 0.931 . S
C507 N504 1.313 . S
C507 N508 1.344 . S
C507 H511 0.930 . S
N508 C505 1.377 . S
N508 C507 1.344 . S
O509 Co501 2.055 . S
O509 C513 1.253 . S
H510 C506 0.931 . S
H511 C507 0.930 . S
O512 Co501 2.039 . S
O512 C502 1.265 . S
C513 O509 1.253 . S
C513 O514 1.227 . S
O514 C513 1.227 . S
N515 Co501 2.140 . S
N515 C518 1.346 . S
N515 C519 1.345 . S
C516 C517 1.387 . S
C516 C520 1.391 . S
C517 C516 1.387 . S
C517 C518 1.369 . S
C517 H526 0.929 . S
C518 N515 1.346 . S
C518 C517 1.369 . S
C518 H521 0.928 . S
C519 N515 1.345 . S
C519 C520 1.371 . S
C519 H522 0.931 . S
C520 C516 1.391 . S
C520 C519 1.371 . S
C520 H527 0.930 . S
H521 C518 0.928 . S
H522 C519 0.931 . S
H523 C499 0.930 . S
H524 C496 0.930 . S
H525 C505 0.930 . S
H526 C517 0.929 . S
H527 C520 0.930 . S
H528 C536 0.929 . S
H529 C538 0.930 . S
H530 C540 0.930 . S
H531 C543 0.929 . S
H532 C546 0.930 . S
H533 C548 0.960 . S
H534 C548 0.960 1_545 S
H535 C548 0.960 1_545 S
C536 H528 0.929 . S
C536 C537 1.377 . S
C536 C538 1.384 . S
C537 C536 1.377 . S
C537 C543 1.390 . S
C538 H529 0.930 . S
C538 C536 1.384 . S
C538 C539 1.372 . S
C539 C538 1.372 . S
C539 C540 1.400 . S
C539 C544 1.490 . S
C540 H530 0.930 . S
C540 C539 1.400 . S
C540 C543 1.386 . S
H541 C557 0.930 . S
H542 C558 0.931 . S
C543 H531 0.929 . S
C543 C537 1.390 . S
C543 C540 1.386 . S
C544 C539 1.490 . S
C544 C546 1.395 . S
C544 C547 1.408 . S
H545 C551 0.930 . S
C546 H532 0.930 . S
C546 C544 1.395 . S
C546 C549 1.403 . S
C547 C544 1.408 . S
C547 C548 1.523 1_545 S
C547 C551 1.395 1_545 S
C548 H533 0.960 . S
C548 H534 0.960 1_565 S
C548 H535 0.960 1_565 S
C548 C547 1.523 1_565 S
C549 C546 1.403 . S
C549 C550 1.392 1_545 S
C549 C553 1.495 . S
C550 C549 1.392 1_565 S
C550 C551 1.385 . S
C550 C552 1.478 . S
C551 H545 0.930 . S
C551 C547 1.395 1_565 S
C551 C550 1.385 . S
C552 C550 1.478 . S
C552 C554 1.381 . S
C552 C558 1.383 . S
C553 C549 1.495 . S
C553 H559 0.959 . S
C553 H560 0.961 1_545 S
C553 H561 0.960 1_545 S
C554 C552 1.381 . S
C554 C555 1.394 . S
C554 H562 0.930 . S
C555 C554 1.394 . S
C555 C556 1.383 . S
C555 H563 0.929 . S
C556 C555 1.383 . S
C556 C557 1.377 . S
C557 H541 0.930 . S
C557 C556 1.377 . S
C557 C558 1.379 . S
C558 H542 0.931 . S
C558 C552 1.383 . S
C558 C557 1.379 . S
H559 C553 0.959 . S
H560 C553 0.961 1_565 S
H561 C553 0.960 1_565 S
H562 C554 0.930 . S
H563 C555 0.929 . S
H564 C572 0.929 . S
H565 C574 0.930 . S
H566 C576 0.930 . S
H567 C579 0.929 . S
H568 C582 0.930 . S
H569 C584 0.960 . S
H570 C584 0.960 . S
H571 C584 0.960 . S
C572 H564 0.929 . S
C572 C573 1.377 . S
C572 C574 1.384 . S
C573 C572 1.377 . S
C573 C579 1.390 . S
C574 H565 0.930 . S
C574 C572 1.384 . S
C574 C575 1.372 . S
C575 C574 1.372 . S
C575 C576 1.400 . S
C575 C580 1.490 . S
C576 H566 0.930 . S
C576 C575 1.400 . S
C576 C579 1.386 . S
H577 C593 0.930 . S
H578 C594 0.931 . S
C579 H567 0.929 . S
C579 C573 1.390 . S
C579 C576 1.386 . S
C580 C575 1.490 . S
C580 C582 1.395 . S
C580 C583 1.403 . S
H581 C587 0.930 . S
C582 H568 0.930 . S
C582 C580 1.395 . S
C582 C585 1.403 . S
C583 C580 1.403 . S
C583 C584 1.524 . S
C583 C587 1.400 . S
C584 H569 0.960 . S
C584 H570 0.960 . S
C584 H571 0.960 . S
C584 C583 1.524 . S
C585 C582 1.403 . S
C585 C586 1.392 . S
C585 C589 1.495 . S
C586 C585 1.392 . S
C586 C587 1.385 . S
C586 C588 1.478 . S
C587 H581 0.930 . S
C587 C583 1.400 . S
C587 C586 1.385 . S
C588 C586 1.478 . S
C588 C590 1.381 . S
C588 C594 1.383 . S
C589 C585 1.495 . S
C589 H595 0.959 . S
C589 H596 0.961 . S
C589 H597 0.960 . S
C590 C588 1.381 . S
C590 C591 1.394 . S
C590 H598 0.930 . S
C591 C590 1.394 . S
C591 C592 1.383 . S
C591 H599 0.929 . S
C592 C591 1.383 . S
C592 C593 1.377 . S
C593 H577 0.930 . S
C593 C592 1.377 . S
C593 C594 1.379 . S
C594 H578 0.931 . S
C594 C588 1.383 . S
C594 C593 1.379 . S
H595 C589 0.959 . S
H596 C589 0.961 . S
H597 C589 0.960 . S
H598 C590 0.930 . S
H599 C591 0.929 . S
H600 C608 0.929 . S
H601 C610 0.930 . S
H602 C612 0.930 . S
H603 C615 0.929 . S
H604 C618 0.930 . S
H605 C620 0.944 1_565 S
H606 C620 0.964 . S
H607 C620 0.972 . S
C608 H600 0.929 . S
C608 C609 1.377 1_655 S
C608 C610 1.384 . S
C609 C608 1.377 1_455 S
C609 C615 1.390 . S
C610 H601 0.930 . S
C610 C608 1.384 . S
C610 C611 1.372 1_655 S
C611 C610 1.372 1_455 S
C611 C612 1.400 . S
C611 C616 1.490 . S
C612 H602 0.930 . S
C612 C611 1.400 . S
C612 C615 1.386 . S
H613 C629 0.930 . S
H614 C630 0.931 . S
C615 H603 0.929 . S
C615 C609 1.390 . S
C615 C612 1.386 . S
C616 C611 1.490 . S
C616 C618 1.395 1_454 S
C616 C619 1.457 . S
H617 C623 0.930 . S
C618 H604 0.930 . S
C618 C616 1.395 1_656 S
C618 C621 1.405 1_545 S
C619 C616 1.457 . S
C619 C620 1.523 . S
C619 C623 1.346 1_545 S
C620 H605 0.944 1_545 S
C620 H606 0.964 . S
C620 H607 0.972 . S
C620 C619 1.523 . S
C621 C618 1.405 1_565 S
C621 C622 1.391 1_655 S
C621 C625 1.495 1_565 S
C622 C621 1.391 1_455 S
C622 C623 1.385 1_556 S
C622 C624 1.478 . S
C623 H617 0.930 . S
C623 C619 1.346 1_565 S
C623 C622 1.385 1_554 S
C624 C622 1.478 . S
C624 C626 1.381 1_455 S
C624 C630 1.383 . S
C625 C621 1.495 1_545 S
C625 H631 0.956 . S
C625 H632 0.962 1_545 S
C625 H633 0.962 1_545 S
C626 C624 1.381 1_655 S
C626 C627 1.394 . S
C626 H634 0.930 . S
C627 C626 1.394 . S
C627 C628 1.383 1_655 S
C627 H635 0.929 . S
C628 C627 1.383 1_455 S
C628 C629 1.377 . S
C629 H613 0.930 . S
C629 C628 1.377 . S
C629 C630 1.379 . S
C630 H614 0.931 . S
C630 C624 1.383 . S
C630 C629 1.379 . S
H631 C625 0.956 . S
H632 C625 0.962 1_565 S
H633 C625 0.962 1_565 S
H634 C626 0.930 . S
H635 C627 0.929 . S
H636 C644 0.929 . S
H637 C646 0.930 . S
H638 C648 0.930 . S
H639 C651 0.929 . S
H640 C654 0.930 . S
H641 C656 0.960 . S
H642 C656 0.960 . S
H643 C656 0.960 . S
C644 H636 0.929 . S
C644 C645 1.377 . S
C644 C646 1.384 . S
C645 C644 1.377 . S
C645 C651 1.390 . S
C646 H637 0.930 . S
C646 C644 1.384 . S
C646 C647 1.372 . S
C647 C646 1.372 . S
C647 C648 1.400 . S
C647 C652 1.490 . S
C648 H638 0.930 . S
C648 C647 1.400 . S
C648 C651 1.386 . S
H649 C665 0.930 . S
H650 C666 0.931 . S
C651 H639 0.929 . S
C651 C645 1.390 . S
C651 C648 1.386 . S
C652 C647 1.490 . S
C652 C654 1.395 . S
C652 C655 1.403 . S
H653 C659 0.930 . S
C654 H640 0.930 . S
C654 C652 1.395 . S
C654 C657 1.403 . S
C655 C652 1.403 . S
C655 C656 1.524 . S
C655 C659 1.400 . S
C656 H641 0.960 . S
C656 H642 0.960 . S
C656 H643 0.960 . S
C656 C655 1.524 . S
C657 C654 1.403 . S
C657 C658 1.392 . S
C657 C661 1.495 . S
C658 C657 1.392 . S
C658 C659 1.385 . S
C658 C660 1.478 . S
C659 H653 0.930 . S
C659 C655 1.400 . S
C659 C658 1.385 . S
C660 C658 1.478 . S
C660 C662 1.381 . S
C660 C666 1.383 . S
C661 C657 1.495 . S
C661 H667 0.959 . S
C661 H668 0.961 . S
C661 H669 0.960 . S
C662 C660 1.381 . S
C662 C663 1.394 . S
C662 H670 0.930 . S
C663 C662 1.394 . S
C663 C664 1.383 . S
C663 H671 0.929 . S
C664 C663 1.383 . S
C664 C665 1.377 . S
C665 H649 0.930 . S
C665 C664 1.377 . S
C665 C666 1.379 . S
C666 H650 0.931 . S
C666 C660 1.383 . S
C666 C665 1.379 . S
H667 C661 0.959 . S
H668 C661 0.961 . S
H669 C661 0.960 . S
H670 C662 0.930 . S
H671 C663 0.929 . S
H672 C680 0.929 . S
H673 C682 0.930 . S
H674 C684 0.930 . S
H675 C687 0.929 . S
H676 C690 0.930 . S
H677 C692 0.960 . S
H678 C692 0.960 . S
H679 C692 0.960 . S
C680 H672 0.929 . S
C680 C681 1.377 . S
C680 C682 1.384 . S
C681 C680 1.377 . S
C681 C687 1.390 . S
C682 H673 0.930 . S
C682 C680 1.384 . S
C682 C683 1.372 . S
C683 C682 1.372 . S
C683 C684 1.400 . S
C683 C688 1.490 . S
C684 H674 0.930 . S
C684 C683 1.400 . S
C684 C687 1.386 . S
H685 C701 0.930 . S
H686 C702 0.931 . S
C687 H675 0.929 . S
C687 C681 1.390 . S
C687 C684 1.386 . S
C688 C683 1.490 . S
C688 C690 1.395 . S
C688 C691 1.403 . S
H689 C695 0.930 . S
C690 H676 0.930 . S
C690 C688 1.395 . S
C690 C693 1.403 . S
C691 C688 1.403 . S
C691 C692 1.524 . S
C691 C695 1.400 . S
C692 H677 0.960 . S
C692 H678 0.960 . S
C692 H679 0.960 . S
C692 C691 1.524 . S
C693 C690 1.403 . S
C693 C694 1.392 . S
C693 C697 1.495 . S
C694 C693 1.392 . S
C694 C695 1.385 . S
C694 C696 1.478 . S
C695 H689 0.930 . S
C695 C691 1.400 . S
C695 C694 1.385 . S
C696 C694 1.478 . S
C696 C698 1.381 . S
C696 C702 1.383 . S
C697 C693 1.495 . S
C697 H703 0.959 . S
C697 H704 0.961 . S
C697 H705 0.960 . S
C698 C696 1.381 . S
C698 C699 1.394 . S
C698 H706 0.930 . S
C699 C698 1.394 . S
C699 C700 1.383 . S
C699 H707 0.929 . S
C700 C699 1.383 . S
C700 C701 1.377 . S
C701 H685 0.930 . S
C701 C700 1.377 . S
C701 C702 1.379 . S
C702 H686 0.931 . S
C702 C696 1.383 . S
C702 C701 1.379 . S
H703 C697 0.959 . S
H704 C697 0.961 . S
H705 C697 0.960 . S
H706 C698 0.930 . S
H707 C699 0.929 . S
H708 C716 0.929 . S
H709 C718 0.930 . S
H710 C720 0.930 . S
H711 C723 0.929 . S
H712 C726 0.930 . S
H713 C728 0.960 . S
H714 C728 0.960 . S
H715 C728 0.960 . S
C716 H708 0.929 . S
C716 C717 1.377 . S
C716 C718 1.384 . S
C717 C716 1.377 . S
C717 C723 1.390 . S
C718 H709 0.930 . S
C718 C716 1.384 . S
C718 C719 1.372 . S
C719 C718 1.372 . S
C719 C720 1.400 . S
C719 C724 1.490 . S
C720 H710 0.930 . S
C720 C719 1.400 . S
C720 C723 1.386 . S
H721 C737 0.930 . S
H722 C738 0.931 . S
C723 H711 0.929 . S
C723 C717 1.390 . S
C723 C720 1.386 . S
C724 C719 1.490 . S
C724 C726 1.395 . S
C724 C727 1.403 . S
H725 C731 0.930 . S
C726 H712 0.930 . S
C726 C724 1.395 . S
C726 C729 1.403 . S
C727 C724 1.403 . S
C727 C728 1.524 . S
C727 C731 1.400 . S
C728 H713 0.960 . S
C728 H714 0.960 . S
C728 H715 0.960 . S
C728 C727 1.524 . S
C729 C726 1.403 . S
C729 C730 1.392 . S
C729 C733 1.495 . S
C730 C729 1.392 . S
C730 C731 1.385 . S
C730 C732 1.478 . S
C731 H725 0.930 . S
C731 C727 1.400 . S
C731 C730 1.385 . S
C732 C730 1.478 . S
C732 C734 1.381 . S
C732 C738 1.383 . S
C733 C729 1.495 . S
C733 H739 0.959 . S
C733 H740 0.961 . S
C733 H741 0.960 . S
C734 C732 1.381 . S
C734 C735 1.394 . S
C734 H742 0.930 . S
C735 C734 1.394 . S
C735 C736 1.383 . S
C735 H743 0.929 . S
C736 C735 1.383 . S
C736 C737 1.377 . S
C737 H721 0.930 . S
C737 C736 1.377 . S
C737 C738 1.379 . S
C738 H722 0.931 . S
C738 C732 1.383 . S
C738 C737 1.379 . S
H739 C733 0.959 . S
H740 C733 0.961 . S
H741 C733 0.960 . S
H742 C734 0.930 . S
H743 C735 0.929 . S
H744 C752 0.929 . S
H745 C754 0.930 . S
H746 C756 0.930 . S
H747 C759 0.929 . S
H748 C762 0.930 . S
H749 C764 0.960 1_554 S
H750 C764 0.960 1_554 S
H751 C764 0.960 . S
C752 H744 0.929 . S
C752 C753 1.377 1_655 S
C752 C754 1.384 . S
C753 C752 1.377 1_455 S
C753 C759 1.390 . S
C754 H745 0.930 . S
C754 C752 1.384 . S
C754 C755 1.372 1_655 S
C755 C754 1.372 1_455 S
C755 C756 1.400 . S
C755 C760 1.490 . S
C756 H746 0.930 . S
C756 C755 1.400 . S
C756 C759 1.386 . S
H757 C773 0.930 . S
H758 C774 0.931 1_556 S
C759 H747 0.929 . S
C759 C753 1.390 . S
C759 C756 1.386 . S
C760 C755 1.490 . S
C760 C762 1.395 1_455 S
C760 C763 1.403 . S
H761 C767 0.930 . S
C762 H748 0.930 . S
C762 C760 1.395 1_655 S
C762 C765 1.403 1_556 S
C763 C760 1.403 . S
C763 C764 1.524 . S
C763 C767 1.400 1_556 S
C764 H749 0.960 1_556 S
C764 H750 0.960 1_556 S
C764 H751 0.960 . S
C764 C763 1.524 . S
C765 C762 1.403 1_554 S
C765 C766 1.392 1_655 S
C765 C769 1.495 . S
C766 C765 1.392 1_455 S
C766 C767 1.385 . S
C766 C768 1.478 . S
C767 H761 0.930 . S
C767 C763 1.400 1_554 S
C767 C766 1.385 . S
C768 C766 1.478 . S
C768 C770 1.381 1_455 S
C768 C774 1.383 . S
C769 C765 1.495 . S
C769 H775 0.955 1_554 S
C769 H776 0.961 1_554 S
C769 H777 0.960 . S
C770 C768 1.381 1_655 S
C770 C771 1.394 . S
C770 H778 0.930 . S
C771 C770 1.394 . S
C771 C772 1.383 1_655 S
C771 H779 0.929 . S
C772 C771 1.383 1_455 S
C772 C773 1.377 . S
C773 H757 0.930 . S
C773 C772 1.377 . S
C773 C774 1.379 . S
C774 H758 0.931 1_554 S
C774 C768 1.383 . S
C774 C773 1.379 . S
H775 C769 0.955 1_556 S
H776 C769 0.961 1_556 S
H777 C769 0.960 . S
H778 C770 0.930 . S
H779 C771 0.929 . S
H780 C788 0.929 . S
H781 C790 0.930 . S
H782 C792 0.930 . S
H783 C795 0.929 . S
H784 C798 0.930 . S
H785 C800 0.960 . S
H786 C800 0.960 . S
H787 C800 0.960 . S
C788 H780 0.929 . S
C788 C789 1.377 . S
C788 C790 1.384 . S
C789 C788 1.377 . S
C789 C795 1.390 . S
C790 H781 0.930 . S
C790 C788 1.384 . S
C790 C791 1.372 . S
C791 C790 1.372 . S
C791 C792 1.400 . S
C791 C796 1.490 . S
C792 H782 0.930 . S
C792 C791 1.400 . S
C792 C795 1.386 . S
H793 C809 0.930 . S
H794 C810 0.931 . S
C795 H783 0.929 . S
C795 C789 1.390 . S
C795 C792 1.386 . S
C796 C791 1.490 . S
C796 C798 1.395 . S
C796 C799 1.403 . S
H797 C803 0.930 . S
C798 H784 0.930 . S
C798 C796 1.395 . S
C798 C801 1.403 . S
C799 C796 1.403 . S
C799 C800 1.524 . S
C799 C803 1.400 . S
C800 H785 0.960 . S
C800 H786 0.960 . S
C800 H787 0.960 . S
C800 C799 1.524 . S
C801 C798 1.403 . S
C801 C802 1.392 . S
C801 C805 1.495 . S
C802 C801 1.392 . S
C802 C803 1.385 . S
C802 C804 1.478 . S
C803 H797 0.930 . S
C803 C799 1.400 . S
C803 C802 1.385 . S
C804 C802 1.478 . S
C804 C806 1.381 . S
C804 C810 1.383 . S
C805 C801 1.495 . S
C805 H811 0.959 . S
C805 H812 0.961 . S
C805 H813 0.960 . S
C806 C804 1.381 . S
C806 C807 1.394 . S
C806 H814 0.930 . S
C807 C806 1.394 . S
C807 C808 1.383 . S
C807 H815 0.929 . S
C808 C807 1.383 . S
C808 C809 1.377 . S
C809 H793 0.930 . S
C809 C808 1.377 . S
C809 C810 1.379 . S
C810 H794 0.931 . S
C810 C804 1.383 . S
C810 C809 1.379 . S
H811 C805 0.959 . S
H812 C805 0.961 . S
H813 C805 0.960 . S
H814 C806 0.930 . S
H815 C807 0.929 . S
H816 C824 0.929 . S
H817 C826 0.930 . S
H818 C828 0.930 . S
H819 C831 0.929 . S
H820 C834 0.930 . S
H821 C836 0.960 . S
H822 C836 0.960 . S
H823 C836 0.960 . S
C824 H816 0.929 . S
C824 C825 1.377 . S
C824 C826 1.384 . S
C825 C824 1.377 . S
C825 C831 1.390 . S
C826 H817 0.930 . S
C826 C824 1.384 . S
C826 C827 1.372 . S
C827 C826 1.372 . S
C827 C828 1.400 . S
C827 C832 1.490 . S
C828 H818 0.930 . S
C828 C827 1.400 . S
C828 C831 1.386 . S
H829 C845 0.930 1_556 S
H830 C846 0.931 . S
C831 H819 0.929 . S
C831 C825 1.390 . S
C831 C828 1.386 . S
C832 C827 1.490 . S
C832 C834 1.395 . S
C832 C835 1.403 . S
H833 C839 0.930 . S
C834 H820 0.930 . S
C834 C832 1.395 . S
C834 C837 1.403 . S
C835 C832 1.403 . S
C835 C836 1.524 . S
C835 C839 1.400 . S
C836 H821 0.960 . S
C836 H822 0.960 . S
C836 H823 0.960 . S
C836 C835 1.524 . S
C837 C834 1.403 . S
C837 C838 1.392 . S
C837 C841 1.495 . S
C838 C837 1.392 . S
C838 C839 1.385 . S
C838 C840 1.478 . S
C839 H833 0.930 . S
C839 C835 1.400 . S
C839 C838 1.385 . S
C840 C838 1.478 . S
C840 C842 1.381 . S
C840 C846 1.383 . S
C841 C837 1.495 . S
C841 H847 0.959 . S
C841 H848 0.961 . S
C841 H849 0.960 . S
C842 C840 1.381 . S
C842 C843 1.394 . S
C842 H850 0.930 . S
C843 C842 1.394 . S
C843 C844 1.383 . S
C843 H851 0.929 . S
C844 C843 1.383 . S
C844 C845 1.377 . S
C845 H829 0.930 1_554 S
C845 C844 1.377 . S
C845 C846 1.379 . S
C846 H830 0.931 . S
C846 C840 1.383 . S
C846 C845 1.379 . S
H847 C841 0.959 . S
H848 C841 0.961 . S
H849 C841 0.960 . S
H850 C842 0.930 . S
H851 C843 0.929 . S
H852 C860 0.929 . S
H853 C862 0.930 . S
H854 C864 0.930 . S
H855 C867 0.929 . S
H856 C870 0.930 . S
H857 C872 0.960 . S
H858 C872 0.960 . S
H859 C872 0.960 . S
C860 H852 0.929 . S
C860 C861 1.377 . S
C860 C862 1.384 . S
C861 C860 1.377 . S
C861 C867 1.390 . S
C862 H853 0.930 . S
C862 C860 1.384 . S
C862 C863 1.372 . S
C863 C862 1.372 . S
C863 C864 1.400 . S
C863 C868 1.490 . S
C864 H854 0.930 . S
C864 C863 1.400 . S
C864 C867 1.386 . S
H865 C881 0.930 . S
H866 C882 0.931 . S
C867 H855 0.929 . S
C867 C861 1.390 . S
C867 C864 1.386 . S
C868 C863 1.490 . S
C868 C870 1.395 . S
C868 C871 1.403 . S
H869 C875 0.930 . S
C870 H856 0.930 . S
C870 C868 1.395 . S
C870 C873 1.403 . S
C871 C868 1.403 . S
C871 C872 1.524 . S
C871 C875 1.400 . S
C872 H857 0.960 . S
C872 H858 0.960 . S
C872 H859 0.960 . S
C872 C871 1.524 . S
C873 C870 1.403 . S
C873 C874 1.392 . S
C873 C877 1.495 . S
C874 C873 1.392 . S
C874 C875 1.385 . S
C874 C876 1.478 . S
C875 H869 0.930 . S
C875 C871 1.400 . S
C875 C874 1.385 . S
C876 C874 1.478 . S
C876 C878 1.381 . S
C876 C882 1.383 . S
C877 C873 1.495 . S
C877 H883 0.959 . S
C877 H884 0.961 . S
C877 H885 0.960 . S
C878 C876 1.381 . S
C878 C879 1.394 . S
C878 H886 0.930 . S
C879 C878 1.394 . S
C879 C880 1.383 . S
C879 H887 0.929 . S
C880 C879 1.383 . S
C880 C881 1.377 . S
C881 H865 0.930 . S
C881 C880 1.377 . S
C881 C882 1.379 . S
C882 H866 0.931 . S
C882 C876 1.383 . S
C882 C881 1.379 . S
H883 C877 0.959 . S
H884 C877 0.961 . S
H885 C877 0.960 . S
H886 C878 0.930 . S
H887 C879 0.929 . S
H888 C896 0.929 . S
H889 C898 0.930 . S
H890 C900 0.930 . S
H891 C903 0.929 . S
H892 C906 0.930 . S
H893 C908 0.960 . S
H894 C908 0.960 . S
H895 C908 0.960 . S
C896 H888 0.929 . S
C896 C897 1.377 . S
C896 C898 1.384 . S
C897 C896 1.377 . S
C897 C903 1.390 . S
C898 H889 0.930 . S
C898 C896 1.384 . S
C898 C899 1.372 . S
C899 C898 1.372 . S
C899 C900 1.400 . S
C899 C904 1.490 . S
C900 H890 0.930 . S
C900 C899 1.400 . S
C900 C903 1.386 . S
H901 C917 0.930 . S
H902 C918 0.931 . S
C903 H891 0.929 . S
C903 C897 1.390 . S
C903 C900 1.386 . S
C904 C899 1.490 . S
C904 C906 1.395 . S
C904 C907 1.403 . S
H905 C911 0.930 . S
C906 H892 0.930 . S
C906 C904 1.395 . S
C906 C909 1.403 . S
C907 C904 1.403 . S
C907 C908 1.524 . S
C907 C911 1.400 . S
C908 H893 0.960 . S
C908 H894 0.960 . S
C908 H895 0.960 . S
C908 C907 1.524 . S
C909 C906 1.403 . S
C909 C910 1.392 . S
C909 C913 1.495 . S
C910 C909 1.392 . S
C910 C911 1.385 . S
C910 C912 1.478 . S
C911 H905 0.930 . S
C911 C907 1.400 . S
C911 C910 1.385 . S
C912 C910 1.478 . S
C912 C914 1.381 . S
C912 C918 1.383 . S
C913 C909 1.495 . S
C913 H919 0.959 . S
C913 H920 0.961 . S
C913 H921 0.960 . S
C914 C912 1.381 . S
C914 C915 1.394 . S
C914 H922 0.930 . S
C915 C914 1.394 . S
C915 C916 1.383 . S
C915 H923 0.929 . S
C916 C915 1.383 . S
C916 C917 1.377 . S
C917 H901 0.930 . S
C917 C916 1.377 . S
C917 C918 1.379 . S
C918 H902 0.931 . S
C918 C912 1.383 . S
C918 C917 1.379 . S
H919 C913 0.959 . S
H920 C913 0.961 . S
H921 C913 0.960 . S
H922 C914 0.930 . S
H923 C915 0.929 . S
H924 C932 0.929 . S
H925 C934 0.930 . S
H926 C936 0.930 . S
H927 C939 0.929 . S
H928 C942 0.930 . S
H929 C944 0.960 . S
H930 C944 0.960 . S
H931 C944 0.960 . S
C932 H924 0.929 . S
C932 C933 1.377 . S
C932 C934 1.384 . S
C933 C932 1.377 . S
C933 C939 1.390 1_556 S
C934 H925 0.930 . S
C934 C932 1.384 . S
C934 C935 1.372 . S
C935 C934 1.372 . S
C935 C936 1.400 . S
C935 C940 1.490 . S
C936 H926 0.930 . S
C936 C935 1.400 . S
C936 C939 1.386 1_556 S
H937 C953 0.930 . S
H938 C954 0.931 . S
C939 H927 0.929 . S
C939 C933 1.390 1_554 S
C939 C936 1.386 1_554 S
C940 C935 1.490 . S
C940 C942 1.395 . S
C940 C943 1.403 . S
H941 C947 0.930 . S
C942 H928 0.930 . S
C942 C940 1.395 . S
C942 C945 1.403 . S
C943 C940 1.403 . S
C943 C944 1.524 . S
C943 C947 1.400 . S
C944 H929 0.960 . S
C944 H930 0.960 . S
C944 H931 0.960 . S
C944 C943 1.524 . S
C945 C942 1.403 . S
C945 C946 1.392 . S
C945 C949 1.495 . S
C946 C945 1.392 . S
C946 C947 1.385 . S
C946 C948 1.478 . S
C947 H941 0.930 . S
C947 C943 1.400 . S
C947 C946 1.385 . S
C948 C946 1.478 . S
C948 C950 1.381 . S
C948 C954 1.383 . S
C949 C945 1.495 . S
C949 H955 0.959 . S
C949 H956 0.961 . S
C949 H957 0.960 . S
C950 C948 1.381 . S
C950 C951 1.394 . S
C950 H958 0.930 . S
C951 C950 1.394 . S
C951 C952 1.383 . S
C951 H959 0.929 . S
C952 C951 1.383 . S
C952 C953 1.377 . S
C953 H937 0.930 . S
C953 C952 1.377 . S
C953 C954 1.379 . S
C954 H938 0.931 . S
C954 C948 1.383 . S
C954 C953 1.379 . S
H955 C949 0.959 . S
H956 C949 0.961 . S
H957 C949 0.960 . S
H958 C950 0.930 . S
H959 C951 0.929 . S
H960 C968 0.929 . S
H961 C970 0.930 . S
H962 C972 0.930 . S
H963 C975 0.929 . S
H964 C978 0.930 . S
H965 C980 0.960 . S
H966 C980 0.960 . S
H967 C980 0.960 . S
C968 H960 0.929 . S
C968 C969 1.377 . S
C968 C970 1.384 . S
C969 C968 1.377 . S
C969 C975 1.390 . S
C970 H961 0.930 . S
C970 C968 1.384 . S
C970 C971 1.372 . S
C971 C970 1.372 . S
C971 C972 1.400 . S
C971 C976 1.490 . S
C972 H962 0.930 . S
C972 C971 1.400 . S
C972 C975 1.386 . S
H973 C989 0.930 . S
H974 C990 0.931 . S
C975 H963 0.929 . S
C975 C969 1.390 . S
C975 C972 1.386 . S
C976 C971 1.490 . S
C976 C978 1.395 . S
C976 C979 1.403 . S
H977 C983 0.930 . S
C978 H964 0.930 . S
C978 C976 1.395 . S
C978 C981 1.403 . S
C979 C976 1.403 . S
C979 C980 1.524 . S
C979 C983 1.400 . S
C980 H965 0.960 . S
C980 H966 0.960 . S
C980 H967 0.960 . S
C980 C979 1.524 . S
C981 C978 1.403 . S
C981 C982 1.392 . S
C981 C985 1.495 . S
C982 C981 1.392 . S
C982 C983 1.385 . S
C982 C984 1.478 . S
C983 H977 0.930 . S
C983 C979 1.400 . S
C983 C982 1.385 . S
C984 C982 1.478 . S
C984 C986 1.381 . S
C984 C990 1.383 . S
C985 C981 1.495 . S
C985 H991 0.959 . S
C985 H992 0.961 . S
C985 H993 0.960 . S
C986 C984 1.381 . S
C986 C987 1.394 . S
C986 H994 0.930 . S
C987 C986 1.394 . S
C987 C988 1.383 1_556 S
C987 H995 0.929 . S
C988 C987 1.383 1_554 S
C988 C989 1.377 . S
C989 H973 0.930 . S
C989 C988 1.377 . S
C989 C990 1.379 1_554 S
C990 H974 0.931 . S
C990 C984 1.383 . S
C990 C989 1.379 1_556 S
H991 C985 0.959 . S
H992 C985 0.961 . S
H993 C985 0.960 . S
H994 C986 0.930 . S
H995 C987 0.929 . S
H996 C1004 0.929 . S
H997 C1006 0.930 . S
H998 C1008 0.930 . S
H999 C1011 0.929 . S
H1000 C1014 0.930 . S
H1001 C1016 0.960 . S
H1002 C1016 0.960 . S
H1003 C1016 0.960 . S
C1004 H996 0.929 . S
C1004 C1005 1.377 . S
C1004 C1006 1.384 . S
C1005 C1004 1.377 . S
C1005 C1011 1.390 . S
C1006 H997 0.930 . S
C1006 C1004 1.384 . S
C1006 C1007 1.372 . S
C1007 C1006 1.372 . S
C1007 C1008 1.400 . S
C1007 C1012 1.490 . S
C1008 H998 0.930 . S
C1008 C1007 1.400 . S
C1008 C1011 1.386 . S
H1009 C1025 0.930 . S
H1010 C1026 0.931 . S
C1011 H999 0.929 . S
C1011 C1005 1.390 . S
C1011 C1008 1.386 . S
C1012 C1007 1.490 . S
C1012 C1014 1.395 . S
C1012 C1015 1.403 . S
H1013 C1019 0.930 . S
C1014 H1000 0.930 . S
C1014 C1012 1.395 . S
C1014 C1017 1.403 . S
C1015 C1012 1.403 . S
C1015 C1016 1.524 . S
C1015 C1019 1.400 . S
C1016 H1001 0.960 . S
C1016 H1002 0.960 . S
C1016 H1003 0.960 . S
C1016 C1015 1.524 . S
C1017 C1014 1.403 . S
C1017 C1018 1.392 . S
C1017 C1021 1.495 . S
C1018 C1017 1.392 . S
C1018 C1019 1.385 . S
C1018 C1020 1.478 . S
C1019 H1013 0.930 . S
C1019 C1015 1.400 . S
C1019 C1018 1.385 . S
C1020 C1018 1.478 . S
C1020 C1022 1.381 . S
C1020 C1026 1.383 . S
C1021 C1017 1.495 . S
C1021 H1027 0.959 . S
C1021 H1028 0.961 . S
C1021 H1029 0.960 . S
C1022 C1020 1.381 . S
C1022 C1023 1.394 . S
C1022 H1030 0.930 . S
C1023 C1022 1.394 . S
C1023 C1024 1.383 . S
C1023 H1031 0.929 . S
C1024 C1023 1.383 . S
C1024 C1025 1.377 . S
C1025 H1009 0.930 . S
C1025 C1024 1.377 . S
C1025 C1026 1.379 . S
C1026 H1010 0.931 . S
C1026 C1020 1.383 . S
C1026 C1025 1.379 . S
H1027 C1021 0.959 . S
H1028 C1021 0.961 . S
H1029 C1021 0.960 . S
H1030 C1022 0.930 . S
H1031 C1023 0.929 . S
H1032 C1040 0.929 . S
H1033 C1042 0.930 . S
H1034 C1044 0.930 . S
H1035 C1047 0.929 . S
H1036 C1050 0.930 . S
H1037 C1052 0.960 . S
H1038 C1052 0.960 . S
H1039 C1052 0.960 . S
C1040 H1032 0.929 . S
C1040 C1041 1.377 . S
C1040 C1042 1.384 . S
C1041 C1040 1.377 . S
C1041 C1047 1.390 . S
C1042 H1033 0.930 . S
C1042 C1040 1.384 . S
C1042 C1043 1.372 . S
C1043 C1042 1.372 . S
C1043 C1044 1.400 . S
C1043 C1048 1.490 . S
C1044 H1034 0.930 . S
C1044 C1043 1.400 . S
C1044 C1047 1.386 . S
H1045 C1061 0.930 . S
H1046 C1062 0.931 . S
C1047 H1035 0.929 . S
C1047 C1041 1.390 . S
C1047 C1044 1.386 . S
C1048 C1043 1.490 . S
C1048 C1050 1.395 . S
C1048 C1051 1.403 . S
H1049 C1055 0.930 . S
C1050 H1036 0.930 . S
C1050 C1048 1.395 . S
C1050 C1053 1.403 . S
C1051 C1048 1.403 . S
C1051 C1052 1.524 . S
C1051 C1055 1.400 . S
C1052 H1037 0.960 . S
C1052 H1038 0.960 . S
C1052 H1039 0.960 . S
C1052 C1051 1.524 . S
C1053 C1050 1.403 . S
C1053 C1054 1.392 . S
C1053 C1057 1.495 . S
C1054 C1053 1.392 . S
C1054 C1055 1.385 . S
C1054 C1056 1.478 . S
C1055 H1049 0.930 . S
C1055 C1051 1.400 . S
C1055 C1054 1.385 . S
C1056 C1054 1.478 . S
C1056 C1058 1.381 . S
C1056 C1062 1.383 . S
C1057 C1053 1.495 . S
C1057 H1063 0.959 . S
C1057 H1064 0.961 . S
C1057 H1065 0.960 . S
C1058 C1056 1.381 . S
C1058 C1059 1.394 . S
C1058 H1066 0.930 . S
C1059 C1058 1.394 . S
C1059 C1060 1.383 . S
C1059 H1067 0.929 . S
C1060 C1059 1.383 . S
C1060 C1061 1.377 . S
C1061 H1045 0.930 . S
C1061 C1060 1.377 . S
C1061 C1062 1.379 . S
C1062 H1046 0.931 . S
C1062 C1056 1.383 . S
C1062 C1061 1.379 . S
H1063 C1057 0.959 . S
H1064 C1057 0.961 . S
H1065 C1057 0.960 . S
H1066 C1058 0.930 . S
H1067 C1059 0.929 . S
H1068 C1076 0.929 . S
H1069 C1078 0.930 . S
H1070 C1080 0.930 . S
H1071 C1083 0.929 . S
H1072 C1086 0.930 . S
H1073 C1088 0.960 . S
H1074 C1088 0.960 . S
H1075 C1088 0.960 . S
C1076 H1068 0.929 . S
C1076 C1077 1.377 . S
C1076 C1078 1.384 . S
C1077 C1076 1.377 . S
C1077 C1083 1.390 . S
C1078 H1069 0.930 . S
C1078 C1076 1.384 . S
C1078 C1079 1.372 . S
C1079 C1078 1.372 . S
C1079 C1080 1.400 . S
C1079 C1084 1.490 . S
C1080 H1070 0.930 . S
C1080 C1079 1.400 . S
C1080 C1083 1.386 . S
H1081 C1097 0.930 . S
H1082 C1098 0.931 . S
C1083 H1071 0.929 . S
C1083 C1077 1.390 . S
C1083 C1080 1.386 . S
C1084 C1079 1.490 . S
C1084 C1086 1.395 . S
C1084 C1087 1.403 . S
H1085 C1091 0.930 . S
C1086 H1072 0.930 . S
C1086 C1084 1.395 . S
C1086 C1089 1.403 . S
C1087 C1084 1.403 . S
C1087 C1088 1.524 . S
C1087 C1091 1.400 . S
C1088 H1073 0.960 . S
C1088 H1074 0.960 . S
C1088 H1075 0.960 . S
C1088 C1087 1.524 . S
C1089 C1086 1.403 . S
C1089 C1090 1.392 . S
C1089 C1093 1.495 . S
C1090 C1089 1.392 . S
C1090 C1091 1.385 . S
C1090 C1092 1.478 . S
C1091 H1085 0.930 . S
C1091 C1087 1.400 . S
C1091 C1090 1.385 . S
C1092 C1090 1.478 . S
C1092 C1094 1.381 . S
C1092 C1098 1.383 . S
C1093 C1089 1.495 . S
C1093 H1099 0.959 . S
C1093 H1100 0.961 . S
C1093 H1101 0.960 . S
C1094 C1092 1.381 . S
C1094 C1095 1.394 1_554 S
C1094 H1102 0.930 . S
C1095 C1094 1.394 1_556 S
C1095 C1096 1.383 . S
C1095 H1103 0.929 . S
C1096 C1095 1.383 . S
C1096 C1097 1.377 1_556 S
C1097 H1081 0.930 . S
C1097 C1096 1.377 1_554 S
C1097 C1098 1.379 . S
C1098 H1082 0.931 . S
C1098 C1092 1.383 . S
C1098 C1097 1.379 . S
H1099 C1093 0.959 . S
H1100 C1093 0.961 . S
H1101 C1093 0.960 . S
H1102 C1094 0.930 . S
H1103 C1095 0.929 . S
H1104 C1112 0.929 . S
H1105 C1114 0.930 . S
H1106 C1116 0.930 . S
H1107 C1119 0.929 . S
H1108 C1122 0.930 . S
H1109 C1124 0.960 . S
H1110 C1124 0.960 . S
H1111 C1124 0.960 . S
C1112 H1104 0.929 . S
C1112 C1113 1.377 . S
C1112 C1114 1.384 . S
C1113 C1112 1.377 . S
C1113 C1119 1.390 . S
C1114 H1105 0.930 . S
C1114 C1112 1.384 . S
C1114 C1115 1.372 . S
C1115 C1114 1.372 . S
C1115 C1116 1.400 . S
C1115 C1120 1.490 . S
C1116 H1106 0.930 . S
C1116 C1115 1.400 . S
C1116 C1119 1.386 . S
H1117 C1133 0.930 . S
H1118 C1134 0.931 . S
C1119 H1107 0.929 . S
C1119 C1113 1.390 . S
C1119 C1116 1.386 . S
C1120 C1115 1.490 . S
C1120 C1122 1.395 . S
C1120 C1123 1.403 . S
H1121 C1127 0.930 . S
C1122 H1108 0.930 . S
C1122 C1120 1.395 . S
C1122 C1125 1.403 . S
C1123 C1120 1.403 . S
C1123 C1124 1.524 . S
C1123 C1127 1.400 . S
C1124 H1109 0.960 . S
C1124 H1110 0.960 . S
C1124 H1111 0.960 . S
C1124 C1123 1.524 . S
C1125 C1122 1.403 . S
C1125 C1126 1.392 . S
C1125 C1129 1.495 . S
C1126 C1125 1.392 . S
C1126 C1127 1.385 . S
C1126 C1128 1.478 . S
C1127 H1121 0.930 . S
C1127 C1123 1.400 . S
C1127 C1126 1.385 . S
C1128 C1126 1.478 . S
C1128 C1130 1.381 . S
C1128 C1134 1.383 . S
C1129 C1125 1.495 . S
C1129 H1135 0.959 . S
C1129 H1136 0.961 . S
C1129 H1137 0.960 . S
C1130 C1128 1.381 . S
C1130 C1131 1.394 . S
C1130 H1138 0.930 . S
C1131 C1130 1.394 . S
C1131 C1132 1.383 . S
C1131 H1139 0.929 . S
C1132 C1131 1.383 . S
C1132 C1133 1.377 . S
C1133 H1117 0.930 . S
C1133 C1132 1.377 . S
C1133 C1134 1.379 . S
C1134 H1118 0.931 . S
C1134 C1128 1.383 . S
C1134 C1133 1.379 . S
H1135 C1129 0.959 . S
H1136 C1129 0.961 . S
H1137 C1129 0.960 . S
H1138 C1130 0.930 . S
H1139 C1131 0.929 . S
H1140 C1148 0.929 . S
H1141 C1150 0.930 . S
H1142 C1152 0.930 . S
H1143 C1155 0.929 . S
H1144 C1158 0.930 . S
H1145 C1160 0.960 . S
H1146 C1160 0.960 . S
H1147 C1160 0.960 . S
C1148 H1140 0.929 . S
C1148 C1149 1.377 . S
C1148 C1150 1.384 . S
C1149 C1148 1.377 . S
C1149 C1155 1.390 1_556 S
C1150 H1141 0.930 . S
C1150 C1148 1.384 . S
C1150 C1151 1.372 . S
C1151 C1150 1.372 . S
C1151 C1152 1.400 . S
C1151 C1156 1.490 . S
C1152 H1142 0.930 . S
C1152 C1151 1.400 . S
C1152 C1155 1.386 1_556 S
H1153 C1169 0.930 . S
H1154 C1170 0.931 . S
C1155 H1143 0.929 . S
C1155 C1149 1.390 1_554 S
C1155 C1152 1.386 1_554 S
C1156 C1151 1.490 . S
C1156 C1158 1.395 . S
C1156 C1159 1.403 . S
H1157 C1163 0.930 . S
C1158 H1144 0.930 . S
C1158 C1156 1.395 . S
C1158 C1161 1.403 . S
C1159 C1156 1.403 . S
C1159 C1160 1.524 . S
C1159 C1163 1.400 . S
C1160 H1145 0.960 . S
C1160 H1146 0.960 . S
C1160 H1147 0.960 . S
C1160 C1159 1.524 . S
C1161 C1158 1.403 . S
C1161 C1162 1.392 . S
C1161 C1165 1.495 . S
C1162 C1161 1.392 . S
C1162 C1163 1.385 . S
C1162 C1164 1.478 . S
C1163 H1157 0.930 . S
C1163 C1159 1.400 . S
C1163 C1162 1.385 . S
C1164 C1162 1.478 . S
C1164 C1166 1.381 . S
C1164 C1170 1.383 . S
C1165 C1161 1.495 . S
C1165 H1171 0.959 . S
C1165 H1172 0.961 . S
C1165 H1173 0.960 . S
C1166 C1164 1.381 . S
C1166 C1167 1.394 . S
C1166 H1174 0.930 . S
C1167 C1166 1.394 . S
C1167 C1168 1.383 . S
C1167 H1175 0.929 . S
C1168 C1167 1.383 . S
C1168 C1169 1.377 . S
C1169 H1153 0.930 . S
C1169 C1168 1.377 . S
C1169 C1170 1.379 . S
C1170 H1154 0.931 . S
C1170 C1164 1.383 . S
C1170 C1169 1.379 . S
H1171 C1165 0.959 . S
H1172 C1165 0.961 . S
H1173 C1165 0.960 . S
H1174 C1166 0.930 . S
H1175 C1167 0.929 . S
H1176 C1184 0.929 . S
H1177 C1186 0.930 . S
H1178 C1188 0.930 . S
H1179 C1191 0.929 . S
H1180 C1194 0.930 . S
H1181 C1196 0.960 . S
H1182 C1196 0.960 . S
H1183 C1196 0.960 . S
C1184 H1176 0.929 . S
C1184 C1185 1.377 . S
C1184 C1186 1.384 . S
C1185 C1184 1.377 . S
C1185 C1191 1.390 1_554 S
C1186 H1177 0.930 . S
C1186 C1184 1.384 . S
C1186 C1187 1.372 . S
C1187 C1186 1.372 . S
C1187 C1188 1.400 . S
C1187 C1192 1.490 . S
C1188 H1178 0.930 . S
C1188 C1187 1.400 . S
C1188 C1191 1.386 1_554 S
H1189 C1205 0.930 . S
H1190 C1206 0.931 . S
C1191 H1179 0.929 . S
C1191 C1185 1.390 1_556 S
C1191 C1188 1.386 1_556 S
C1192 C1187 1.490 . S
C1192 C1194 1.395 . S
C1192 C1195 1.403 . S
H1193 C1199 0.930 . S
C1194 H1180 0.930 . S
C1194 C1192 1.395 . S
C1194 C1197 1.403 . S
C1195 C1192 1.403 . S
C1195 C1196 1.524 . S
C1195 C1199 1.400 . S
C1196 H1181 0.960 . S
C1196 H1182 0.960 . S
C1196 H1183 0.960 . S
C1196 C1195 1.524 . S
C1197 C1194 1.403 . S
C1197 C1198 1.392 . S
C1197 C1201 1.495 . S
C1198 C1197 1.392 . S
C1198 C1199 1.385 . S
C1198 C1200 1.478 . S
C1199 H1193 0.930 . S
C1199 C1195 1.400 . S
C1199 C1198 1.385 . S
C1200 C1198 1.478 . S
C1200 C1202 1.381 . S
C1200 C1206 1.383 . S
C1201 C1197 1.495 . S
C1201 H1207 0.959 . S
C1201 H1208 0.961 . S
C1201 H1209 0.960 . S
C1202 C1200 1.381 . S
C1202 C1203 1.394 . S
C1202 H1210 0.930 . S
C1203 C1202 1.394 . S
C1203 C1204 1.383 . S
C1203 H1211 0.929 . S
C1204 C1203 1.383 . S
C1204 C1205 1.377 . S
C1205 H1189 0.930 . S
C1205 C1204 1.377 . S
C1205 C1206 1.379 . S
C1206 H1190 0.931 . S
C1206 C1200 1.383 . S
C1206 C1205 1.379 . S
H1207 C1201 0.959 . S
H1208 C1201 0.961 . S
H1209 C1201 0.960 . S
H1210 C1202 0.930 . S
H1211 C1203 0.929 . S
H1212 C1220 0.929 . S
H1213 C1222 0.930 . S
H1214 C1224 0.930 . S
H1215 C1227 0.929 . S
H1216 C1230 0.930 . S
H1217 C1232 0.960 . S
H1218 C1232 0.960 . S
H1219 C1232 0.960 . S
C1220 H1212 0.929 . S
C1220 C1221 1.377 . S
C1220 C1222 1.384 . S
C1221 C1220 1.377 . S
C1221 C1227 1.390 . S
C1222 H1213 0.930 . S
C1222 C1220 1.384 . S
C1222 C1223 1.372 . S
C1223 C1222 1.372 . S
C1223 C1224 1.400 . S
C1223 C1228 1.490 . S
C1224 H1214 0.930 . S
C1224 C1223 1.400 . S
C1224 C1227 1.386 . S
H1225 C1241 0.930 . S
H1226 C1242 0.931 . S
C1227 H1215 0.929 . S
C1227 C1221 1.390 . S
C1227 C1224 1.386 . S
C1228 C1223 1.490 . S
C1228 C1230 1.395 . S
C1228 C1231 1.403 . S
H1229 C1235 0.930 . S
C1230 H1216 0.930 . S
C1230 C1228 1.395 . S
C1230 C1233 1.403 . S
C1231 C1228 1.403 . S
C1231 C1232 1.524 . S
C1231 C1235 1.400 . S
C1232 H1217 0.960 . S
C1232 H1218 0.960 . S
C1232 H1219 0.960 . S
C1232 C1231 1.524 . S
C1233 C1230 1.403 . S
C1233 C1234 1.392 . S
C1233 C1237 1.495 . S
C1234 C1233 1.392 . S
C1234 C1235 1.385 . S
C1234 C1236 1.478 . S
C1235 H1229 0.930 . S
C1235 C1231 1.400 . S
C1235 C1234 1.385 . S
C1236 C1234 1.478 . S
C1236 C1238 1.381 . S
C1236 C1242 1.383 . S
C1237 C1233 1.495 . S
C1237 H1243 0.959 . S
C1237 H1244 0.961 . S
C1237 H1245 0.960 . S
C1238 C1236 1.381 . S
C1238 C1239 1.394 . S
C1238 H1246 0.930 . S
C1239 C1238 1.394 . S
C1239 C1240 1.383 . S
C1239 H1247 0.929 . S
C1240 C1239 1.383 . S
C1240 C1241 1.377 . S
C1241 H1225 0.930 . S
C1241 C1240 1.377 . S
C1241 C1242 1.379 . S
C1242 H1226 0.931 . S
C1242 C1236 1.383 . S
C1242 C1241 1.379 . S
H1243 C1237 0.959 . S
H1244 C1237 0.961 . S
H1245 C1237 0.960 . S
H1246 C1238 0.930 . S
H1247 C1239 0.929 . S
H1248 C1256 0.929 . S
H1249 C1258 0.930 . S
H1250 C1260 0.930 . S
H1251 C1263 0.929 . S
H1252 C1266 0.930 . S
H1253 C1268 0.960 . S
H1254 C1268 0.960 . S
H1255 C1268 0.960 . S
C1256 H1248 0.929 . S
C1256 C1257 1.377 . S
C1256 C1258 1.384 . S
C1257 C1256 1.377 . S
C1257 C1263 1.390 . S
C1258 H1249 0.930 . S
C1258 C1256 1.384 . S
C1258 C1259 1.372 . S
C1259 C1258 1.372 . S
C1259 C1260 1.400 . S
C1259 C1264 1.490 . S
C1260 H1250 0.930 . S
C1260 C1259 1.400 . S
C1260 C1263 1.386 . S
H1261 C1277 0.930 . S
H1262 C1278 0.931 . S
C1263 H1251 0.929 . S
C1263 C1257 1.390 . S
C1263 C1260 1.386 . S
C1264 C1259 1.490 . S
C1264 C1266 1.395 . S
C1264 C1267 1.403 . S
H1265 C1271 0.930 . S
C1266 H1252 0.930 . S
C1266 C1264 1.395 . S
C1266 C1269 1.403 . S
C1267 C1264 1.403 . S
C1267 C1268 1.524 . S
C1267 C1271 1.400 . S
C1268 H1253 0.960 . S
C1268 H1254 0.960 . S
C1268 H1255 0.960 . S
C1268 C1267 1.524 . S
C1269 C1266 1.403 . S
C1269 C1270 1.392 . S
C1269 C1273 1.495 . S
C1270 C1269 1.392 . S
C1270 C1271 1.385 . S
C1270 C1272 1.478 . S
C1271 H1265 0.930 . S
C1271 C1267 1.400 . S
C1271 C1270 1.385 . S
C1272 C1270 1.478 . S
C1272 C1274 1.381 . S
C1272 C1278 1.383 . S
C1273 C1269 1.495 . S
C1273 H1279 0.959 . S
C1273 H1280 0.961 . S
C1273 H1281 0.960 . S
C1274 C1272 1.381 . S
C1274 C1275 1.394 . S
C1274 H1282 0.930 . S
C1275 C1274 1.394 . S
C1275 C1276 1.383 . S
C1275 H1283 0.929 . S
C1276 C1275 1.383 . S
C1276 C1277 1.377 . S
C1277 H1261 0.930 . S
C1277 C1276 1.377 . S
C1277 C1278 1.379 . S
C1278 H1262 0.931 . S
C1278 C1272 1.383 . S
C1278 C1277 1.379 . S
H1279 C1273 0.959 . S
H1280 C1273 0.961 . S
H1281 C1273 0.960 . S
H1282 C1274 0.930 . S
H1283 C1275 0.929 . S
H1284 C1292 0.929 . S
H1285 C1294 0.930 . S
H1286 C1296 0.930 . S
H1287 C1299 0.929 . S
H1288 C1302 0.930 . S
H1289 C1304 0.960 . S
H1290 C1304 0.960 . S
H1291 C1304 0.960 . S
C1292 H1284 0.929 . S
C1292 C1293 1.377 1_554 S
C1292 C1294 1.384 . S
C1293 C1292 1.377 1_556 S
C1293 C1299 1.390 . S
C1294 H1285 0.930 . S
C1294 C1292 1.384 . S
C1294 C1295 1.372 . S
C1295 C1294 1.372 . S
C1295 C1296 1.400 . S
C1295 C1300 1.490 . S
C1296 H1286 0.930 . S
C1296 C1295 1.400 . S
C1296 C1299 1.386 1_554 S
H1297 C1313 0.930 . S
H1298 C1314 0.931 . S
C1299 H1287 0.929 . S
C1299 C1293 1.390 . S
C1299 C1296 1.386 1_556 S
C1300 C1295 1.490 . S
C1300 C1302 1.395 . S
C1300 C1303 1.403 . S
H1301 C1307 0.930 . S
C1302 H1288 0.930 . S
C1302 C1300 1.395 . S
C1302 C1305 1.403 . S
C1303 C1300 1.403 . S
C1303 C1304 1.524 . S
C1303 C1307 1.400 . S
C1304 H1289 0.960 . S
C1304 H1290 0.960 . S
C1304 H1291 0.960 . S
C1304 C1303 1.524 . S
C1305 C1302 1.403 . S
C1305 C1306 1.392 . S
C1305 C1309 1.495 . S
C1306 C1305 1.392 . S
C1306 C1307 1.385 . S
C1306 C1308 1.478 . S
C1307 H1301 0.930 . S
C1307 C1303 1.400 . S
C1307 C1306 1.385 . S
C1308 C1306 1.478 . S
C1308 C1310 1.381 . S
C1308 C1314 1.383 . S
C1309 C1305 1.495 . S
C1309 H1315 0.959 . S
C1309 H1316 0.961 . S
C1309 H1317 0.960 . S
C1310 C1308 1.381 . S
C1310 C1311 1.394 . S
C1310 H1318 0.930 . S
C1311 C1310 1.394 . S
C1311 C1312 1.383 . S
C1311 H1319 0.929 . S
C1312 C1311 1.383 . S
C1312 C1313 1.377 . S
C1313 H1297 0.930 . S
C1313 C1312 1.377 . S
C1313 C1314 1.379 . S
C1314 H1298 0.931 . S
C1314 C1308 1.383 . S
C1314 C1313 1.379 . S
H1315 C1309 0.959 . S
H1316 C1309 0.961 . S
H1317 C1309 0.960 . S
H1318 C1310 0.930 . S
H1319 C1311 0.929 . S
H1320 C1328 0.929 . S
H1321 C1330 0.930 . S
H1322 C1332 0.930 . S
H1323 C1335 0.929 . S
H1324 C1338 0.930 . S
H1325 C1340 0.960 . S
H1326 C1340 0.960 . S
H1327 C1340 0.960 . S
C1328 H1320 0.929 . S
C1328 C1329 1.377 . S
C1328 C1330 1.384 1_554 S
C1329 C1328 1.377 . S
C1329 C1335 1.390 1_554 S
C1330 H1321 0.930 . S
C1330 C1328 1.384 1_556 S
C1330 C1331 1.372 . S
C1331 C1330 1.372 . S
C1331 C1332 1.400 . S
C1331 C1336 1.490 . S
C1332 H1322 0.930 . S
C1332 C1331 1.400 . S
C1332 C1335 1.386 . S
H1333 C1349 0.930 . S
H1334 C1350 0.931 . S
C1335 H1323 0.929 . S
C1335 C1329 1.390 1_556 S
C1335 C1332 1.386 . S
C1336 C1331 1.490 . S
C1336 C1338 1.395 . S
C1336 C1339 1.403 . S
H1337 C1343 0.930 . S
C1338 H1324 0.930 . S
C1338 C1336 1.395 . S
C1338 C1341 1.403 . S
C1339 C1336 1.403 . S
C1339 C1340 1.524 . S
C1339 C1343 1.400 . S
C1340 H1325 0.960 . S
C1340 H1326 0.960 . S
C1340 H1327 0.960 . S
C1340 C1339 1.524 . S
C1341 C1338 1.403 . S
C1341 C1342 1.392 . S
C1341 C1345 1.495 . S
C1342 C1341 1.392 . S
C1342 C1343 1.385 . S
C1342 C1344 1.478 . S
C1343 H1337 0.930 . S
C1343 C1339 1.400 . S
C1343 C1342 1.385 . S
C1344 C1342 1.478 . S
C1344 C1346 1.381 . S
C1344 C1350 1.383 . S
C1345 C1341 1.495 . S
C1345 H1351 0.959 . S
C1345 H1352 0.961 . S
C1345 H1353 0.960 . S
C1346 C1344 1.381 . S
C1346 C1347 1.394 . S
C1346 H1354 0.930 . S
C1347 C1346 1.394 . S
C1347 C1348 1.383 . S
C1347 H1355 0.929 . S
C1348 C1347 1.383 . S
C1348 C1349 1.377 . S
C1349 H1333 0.930 . S
C1349 C1348 1.377 . S
C1349 C1350 1.379 . S
C1350 H1334 0.931 . S
C1350 C1344 1.383 . S
C1350 C1349 1.379 . S
H1351 C1345 0.959 . S
H1352 C1345 0.961 . S
H1353 C1345 0.960 . S
H1354 C1346 0.930 . S
H1355 C1347 0.929 . S
H1356 C1364 0.929 . S
H1357 C1366 0.930 . S
H1358 C1368 0.930 . S
H1359 C1371 0.929 . S
H1360 C1374 0.930 . S
H1361 C1376 0.960 . S
H1362 C1376 0.960 . S
H1363 C1376 0.960 . S
C1364 H1356 0.929 . S
C1364 C1365 1.377 . S
C1364 C1366 1.384 . S
C1365 C1364 1.377 . S
C1365 C1371 1.390 . S
C1366 H1357 0.930 . S
C1366 C1364 1.384 . S
C1366 C1367 1.372 . S
C1367 C1366 1.372 . S
C1367 C1368 1.400 . S
C1367 C1372 1.490 . S
C1368 H1358 0.930 . S
C1368 C1367 1.400 . S
C1368 C1371 1.386 . S
H1369 C1385 0.930 . S
H1370 C1386 0.931 . S
C1371 H1359 0.929 . S
C1371 C1365 1.390 . S
C1371 C1368 1.386 . S
C1372 C1367 1.490 . S
C1372 C1374 1.395 . S
C1372 C1375 1.403 . S
H1373 C1379 0.930 . S
C1374 H1360 0.930 . S
C1374 C1372 1.395 . S
C1374 C1377 1.403 . S
C1375 C1372 1.403 . S
C1375 C1376 1.524 . S
C1375 C1379 1.400 . S
C1376 H1361 0.960 . S
C1376 H1362 0.960 . S
C1376 H1363 0.960 . S
C1376 C1375 1.524 . S
C1377 C1374 1.403 . S
C1377 C1378 1.392 . S
C1377 C1381 1.495 . S
C1378 C1377 1.392 . S
C1378 C1379 1.385 . S
C1378 C1380 1.478 . S
C1379 H1373 0.930 . S
C1379 C1375 1.400 . S
C1379 C1378 1.385 . S
C1380 C1378 1.478 . S
C1380 C1382 1.381 . S
C1380 C1386 1.383 . S
C1381 C1377 1.495 . S
C1381 H1387 0.959 . S
C1381 H1388 0.961 . S
C1381 H1389 0.960 . S
C1382 C1380 1.381 . S
C1382 C1383 1.394 . S
C1382 H1390 0.930 . S
C1383 C1382 1.394 . S
C1383 C1384 1.383 . S
C1383 H1391 0.929 . S
C1384 C1383 1.383 . S
C1384 C1385 1.377 . S
C1385 H1369 0.930 . S
C1385 C1384 1.377 . S
C1385 C1386 1.379 . S
C1386 H1370 0.931 . S
C1386 C1380 1.383 . S
C1386 C1385 1.379 . S
H1387 C1381 0.959 . S
H1388 C1381 0.961 . S
H1389 C1381 0.960 . S
H1390 C1382 0.930 . S
H1391 C1383 0.929 . S
H1392 C1400 0.929 . S
H1393 C1402 0.930 . S
H1394 C1404 0.930 . S
H1395 C1407 0.929 . S
H1396 C1410 0.930 . S
H1397 C1412 0.960 . S
H1398 C1412 0.960 . S
H1399 C1412 0.960 . S
C1400 H1392 0.929 . S
C1400 C1401 1.377 . S
C1400 C1402 1.384 . S
C1401 C1400 1.377 . S
C1401 C1407 1.390 . S
C1402 H1393 0.930 . S
C1402 C1400 1.384 . S
C1402 C1403 1.372 . S
C1403 C1402 1.372 . S
C1403 C1404 1.400 . S
C1403 C1408 1.490 . S
C1404 H1394 0.930 . S
C1404 C1403 1.400 . S
C1404 C1407 1.386 . S
H1405 C1421 0.930 . S
H1406 C1422 0.931 . S
C1407 H1395 0.929 . S
C1407 C1401 1.390 . S
C1407 C1404 1.386 . S
C1408 C1403 1.490 . S
C1408 C1410 1.395 . S
C1408 C1411 1.403 . S
H1409 C1415 0.930 . S
C1410 H1396 0.930 . S
C1410 C1408 1.395 . S
C1410 C1413 1.403 . S
C1411 C1408 1.403 . S
C1411 C1412 1.524 . S
C1411 C1415 1.400 . S
C1412 H1397 0.960 . S
C1412 H1398 0.960 . S
C1412 H1399 0.960 . S
C1412 C1411 1.524 . S
C1413 C1410 1.403 . S
C1413 C1414 1.392 . S
C1413 C1417 1.495 . S
C1414 C1413 1.392 . S
C1414 C1415 1.385 . S
C1414 C1416 1.478 . S
C1415 H1409 0.930 . S
C1415 C1411 1.400 . S
C1415 C1414 1.385 . S
C1416 C1414 1.478 . S
C1416 C1418 1.381 . S
C1416 C1422 1.383 . S
C1417 C1413 1.495 . S
C1417 H1423 0.959 . S
C1417 H1424 0.961 . S
C1417 H1425 0.960 . S
C1418 C1416 1.381 . S
C1418 C1419 1.394 . S
C1418 H1426 0.930 . S
C1419 C1418 1.394 . S
C1419 C1420 1.383 . S
C1419 H1427 0.929 . S
C1420 C1419 1.383 . S
C1420 C1421 1.377 . S
C1421 H1405 0.930 . S
C1421 C1420 1.377 . S
C1421 C1422 1.379 . S
C1422 H1406 0.931 . S
C1422 C1416 1.383 . S
C1422 C1421 1.379 . S
H1423 C1417 0.959 . S
H1424 C1417 0.961 . S
H1425 C1417 0.960 . S
H1426 C1418 0.930 . S
H1427 C1419 0.929 . S
H1428 C1436 0.929 . S
H1429 C1438 0.930 . S
H1430 C1440 0.930 . S
H1431 C1443 0.929 . S
H1432 C1446 0.930 . S
H1433 C1448 0.960 . S
H1434 C1448 0.960 . S
H1435 C1448 0.960 . S
C1436 H1428 0.929 . S
C1436 C1437 1.377 . S
C1436 C1438 1.384 1_554 S
C1437 C1436 1.377 . S
C1437 C1443 1.390 1_554 S
C1438 H1429 0.930 . S
C1438 C1436 1.384 1_556 S
C1438 C1439 1.372 . S
C1439 C1438 1.372 . S
C1439 C1440 1.400 . S
C1439 C1444 1.490 . S
C1440 H1430 0.930 . S
C1440 C1439 1.400 . S
C1440 C1443 1.386 . S
H1441 C1457 0.930 . S
H1442 C1458 0.931 . S
C1443 H1431 0.929 . S
C1443 C1437 1.390 1_556 S
C1443 C1440 1.386 . S
C1444 C1439 1.490 . S
C1444 C1446 1.395 . S
C1444 C1447 1.403 . S
H1445 C1451 0.930 . S
C1446 H1432 0.930 . S
C1446 C1444 1.395 . S
C1446 C1449 1.403 . S
C1447 C1444 1.403 . S
C1447 C1448 1.524 . S
C1447 C1451 1.400 . S
C1448 H1433 0.960 . S
C1448 H1434 0.960 . S
C1448 H1435 0.960 . S
C1448 C1447 1.524 . S
C1449 C1446 1.403 . S
C1449 C1450 1.392 . S
C1449 C1453 1.495 . S
C1450 C1449 1.392 . S
C1450 C1451 1.385 . S
C1450 C1452 1.478 . S
C1451 H1445 0.930 . S
C1451 C1447 1.400 . S
C1451 C1450 1.385 . S
C1452 C1450 1.478 . S
C1452 C1454 1.381 . S
C1452 C1458 1.383 . S
C1453 C1449 1.495 . S
C1453 H1459 0.959 . S
C1453 H1460 0.961 . S
C1453 H1461 0.960 . S
C1454 C1452 1.381 . S
C1454 C1455 1.394 . S
C1454 H1462 0.930 . S
C1455 C1454 1.394 . S
C1455 C1456 1.383 . S
C1455 H1463 0.929 . S
C1456 C1455 1.383 . S
C1456 C1457 1.377 . S
C1457 H1441 0.930 . S
C1457 C1456 1.377 . S
C1457 C1458 1.379 . S
C1458 H1442 0.931 . S
C1458 C1452 1.383 . S
C1458 C1457 1.379 . S
H1459 C1453 0.959 . S
H1460 C1453 0.961 . S
H1461 C1453 0.960 . S
H1462 C1454 0.930 . S
H1463 C1455 0.929 . S
H1464 C1472 0.921 1_556 S
H1465 C1474 0.930 . S
H1466 C1476 0.930 . S
H1467 C1479 0.933 . S
H1468 C1482 0.930 . S
H1469 C1484 0.960 . S
H1470 C1484 0.960 . S
H1471 C1484 0.960 . S
C1472 H1464 0.921 1_554 S
C1472 C1473 1.368 1_554 S
C1472 C1474 1.402 . S
C1473 C1472 1.368 1_556 S
C1473 C1479 1.394 . S
C1474 H1465 0.930 . S
C1474 C1472 1.402 . S
C1474 C1475 1.372 . S
C1475 C1474 1.372 . S
C1475 C1476 1.400 . S
C1475 C1480 1.490 . S
C1476 H1466 0.930 . S
C1476 C1475 1.400 . S
C1476 C1479 1.378 1_554 S
H1477 C1493 0.930 . S
H1478 C1494 0.931 . S
C1479 H1467 0.933 . S
C1479 C1473 1.394 . S
C1479 C1476 1.378 1_556 S
C1480 C1475 1.490 . S
C1480 C1482 1.395 . S
C1480 C1483 1.403 . S
H1481 C1487 0.930 . S
C1482 H1468 0.930 . S
C1482 C1480 1.395 . S
C1482 C1485 1.403 . S
C1483 C1480 1.403 . S
C1483 C1484 1.524 . S
C1483 C1487 1.400 . S
C1484 H1469 0.960 . S
C1484 H1470 0.960 . S
C1484 H1471 0.960 . S
C1484 C1483 1.524 . S
C1485 C1482 1.403 . S
C1485 C1486 1.392 . S
C1485 C1489 1.495 . S
C1486 C1485 1.392 . S
C1486 C1487 1.385 . S
C1486 C1488 1.478 . S
C1487 H1481 0.930 . S
C1487 C1483 1.400 . S
C1487 C1486 1.385 . S
C1488 C1486 1.478 . S
C1488 C1490 1.381 . S
C1488 C1494 1.383 . S
C1489 C1485 1.495 . S
C1489 H1495 0.959 . S
C1489 H1496 0.961 . S
C1489 H1497 0.960 . S
C1490 C1488 1.381 . S
C1490 C1491 1.394 . S
C1490 H1498 0.930 . S
C1491 C1490 1.394 . S
C1491 C1492 1.383 . S
C1491 H1499 0.929 . S
C1492 C1491 1.383 . S
C1492 C1493 1.377 . S
C1493 H1477 0.930 . S
C1493 C1492 1.377 . S
C1493 C1494 1.379 . S
C1494 H1478 0.931 . S
C1494 C1488 1.383 . S
C1494 C1493 1.379 . S
H1495 C1489 0.959 . S
H1496 C1489 0.961 . S
H1497 C1489 0.960 . S
H1498 C1490 0.930 . S
H1499 C1491 0.929 . S
H1500 C1508 0.929 . S
H1501 C1510 0.930 . S
H1502 C1512 0.930 . S
H1503 C1515 0.929 . S
H1504 C1518 0.930 . S
H1505 C1520 0.960 . S
H1506 C1520 0.960 . S
H1507 C1520 0.960 . S
C1508 H1500 0.929 . S
C1508 C1509 1.377 . S
C1508 C1510 1.384 . S
C1509 C1508 1.377 . S
C1509 C1515 1.390 . S
C1510 H1501 0.930 . S
C1510 C1508 1.384 . S
C1510 C1511 1.372 . S
C1511 C1510 1.372 . S
C1511 C1512 1.400 . S
C1511 C1516 1.490 . S
C1512 H1502 0.930 . S
C1512 C1511 1.400 . S
C1512 C1515 1.386 . S
H1513 C1529 0.930 . S
H1514 C1530 0.931 . S
C1515 H1503 0.929 . S
C1515 C1509 1.390 . S
C1515 C1512 1.386 . S
C1516 C1511 1.490 . S
C1516 C1518 1.395 . S
C1516 C1519 1.403 . S
H1517 C1523 0.930 . S
C1518 H1504 0.930 . S
C1518 C1516 1.395 . S
C1518 C1521 1.403 . S
C1519 C1516 1.403 . S
C1519 C1520 1.524 . S
C1519 C1523 1.400 . S
C1520 H1505 0.960 . S
C1520 H1506 0.960 . S
C1520 H1507 0.960 . S
C1520 C1519 1.524 . S
C1521 C1518 1.403 . S
C1521 C1522 1.392 . S
C1521 C1525 1.495 . S
C1522 C1521 1.392 . S
C1522 C1523 1.385 . S
C1522 C1524 1.478 . S
C1523 H1517 0.930 . S
C1523 C1519 1.400 . S
C1523 C1522 1.385 . S
C1524 C1522 1.478 . S
C1524 C1526 1.381 . S
C1524 C1530 1.383 . S
C1525 C1521 1.495 . S
C1525 H1531 0.959 . S
C1525 H1532 0.961 . S
C1525 H1533 0.960 . S
C1526 C1524 1.381 . S
C1526 C1527 1.394 . S
C1526 H1534 0.930 . S
C1527 C1526 1.394 . S
C1527 C1528 1.383 . S
C1527 H1535 0.929 . S
C1528 C1527 1.383 . S
C1528 C1529 1.377 . S
C1529 H1513 0.930 . S
C1529 C1528 1.377 . S
C1529 C1530 1.379 . S
C1530 H1514 0.931 . S
C1530 C1524 1.383 . S
C1530 C1529 1.379 . S
H1531 C1525 0.959 . S
H1532 C1525 0.961 . S
H1533 C1525 0.960 . S
H1534 C1526 0.930 . S
H1535 C1527 0.929 . S
H1536 C1544 0.929 . S
H1537 C1546 0.930 . S
H1538 C1548 0.930 . S
H1539 C1551 0.929 . S
H1540 C1554 0.930 . S
H1541 C1556 0.960 . S
H1542 C1556 0.960 . S
H1543 C1556 0.960 . S
C1544 H1536 0.929 . S
C1544 C1545 1.377 . S
C1544 C1546 1.384 . S
C1545 C1544 1.377 . S
C1545 C1551 1.390 . S
C1546 H1537 0.930 . S
C1546 C1544 1.384 . S
C1546 C1547 1.372 . S
C1547 C1546 1.372 . S
C1547 C1548 1.400 . S
C1547 C1552 1.490 . S
C1548 H1538 0.930 . S
C1548 C1547 1.400 . S
C1548 C1551 1.386 . S
H1549 C1565 0.930 . S
H1550 C1566 0.931 . S
C1551 H1539 0.929 . S
C1551 C1545 1.390 . S
C1551 C1548 1.386 . S
C1552 C1547 1.490 . S
C1552 C1554 1.395 . S
C1552 C1555 1.403 . S
H1553 C1559 0.930 . S
C1554 H1540 0.930 . S
C1554 C1552 1.395 . S
C1554 C1557 1.403 . S
C1555 C1552 1.403 . S
C1555 C1556 1.524 . S
C1555 C1559 1.400 . S
C1556 H1541 0.960 . S
C1556 H1542 0.960 . S
C1556 H1543 0.960 . S
C1556 C1555 1.524 . S
C1557 C1554 1.403 . S
C1557 C1558 1.392 . S
C1557 C1561 1.495 . S
C1558 C1557 1.392 . S
C1558 C1559 1.385 . S
C1558 C1560 1.478 . S
C1559 H1553 0.930 . S
C1559 C1555 1.400 . S
C1559 C1558 1.385 . S
C1560 C1558 1.478 . S
C1560 C1562 1.381 . S
C1560 C1566 1.383 . S
C1561 C1557 1.495 . S
C1561 H1567 0.959 . S
C1561 H1568 0.961 . S
C1561 H1569 0.960 . S
C1562 C1560 1.381 . S
C1562 C1563 1.394 . S
C1562 H1570 0.930 . S
C1563 C1562 1.394 . S
C1563 C1564 1.383 . S
C1563 H1571 0.929 . S
C1564 C1563 1.383 . S
C1564 C1565 1.377 . S
C1565 H1549 0.930 . S
C1565 C1564 1.377 . S
C1565 C1566 1.379 . S
C1566 H1550 0.931 . S
C1566 C1560 1.383 . S
C1566 C1565 1.379 . S
H1567 C1561 0.959 . S
H1568 C1561 0.961 . S
H1569 C1561 0.960 . S
H1570 C1562 0.930 . S
H1571 C1563 0.929 . S
H1572 C1580 0.929 . S
H1573 C1582 0.930 . S
H1574 C1584 0.930 . S
H1575 C1587 0.929 . S
H1576 C1590 0.930 . S
H1577 C1592 0.960 . S
H1578 C1592 0.960 . S
H1579 C1592 0.960 . S
C1580 H1572 0.929 . S
C1580 C1581 1.377 . S
C1580 C1582 1.384 . S
C1581 C1580 1.377 . S
C1581 C1587 1.390 . S
C1582 H1573 0.930 . S
C1582 C1580 1.384 . S
C1582 C1583 1.372 . S
C1583 C1582 1.372 . S
C1583 C1584 1.400 . S
C1583 C1588 1.490 . S
C1584 H1574 0.930 . S
C1584 C1583 1.400 . S
C1584 C1587 1.386 . S
H1585 C1601 0.930 . S
H1586 C1602 0.931 . S
C1587 H1575 0.929 . S
C1587 C1581 1.390 . S
C1587 C1584 1.386 . S
C1588 C1583 1.490 . S
C1588 C1590 1.395 . S
C1588 C1591 1.403 . S
H1589 C1595 0.930 . S
C1590 H1576 0.930 . S
C1590 C1588 1.395 . S
C1590 C1593 1.403 . S
C1591 C1588 1.403 . S
C1591 C1592 1.524 . S
C1591 C1595 1.400 . S
C1592 H1577 0.960 . S
C1592 H1578 0.960 . S
C1592 H1579 0.960 . S
C1592 C1591 1.524 . S
C1593 C1590 1.403 . S
C1593 C1594 1.392 . S
C1593 C1597 1.495 . S
C1594 C1593 1.392 . S
C1594 C1595 1.385 . S
C1594 C1596 1.478 . S
C1595 H1589 0.930 . S
C1595 C1591 1.400 . S
C1595 C1594 1.385 . S
C1596 C1594 1.478 . S
C1596 C1598 1.381 . S
C1596 C1602 1.383 . S
C1597 C1593 1.495 . S
C1597 H1603 0.959 . S
C1597 H1604 0.961 . S
C1597 H1605 0.960 . S
C1598 C1596 1.381 . S
C1598 C1599 1.394 1_554 S
C1598 H1606 0.930 . S
C1599 C1598 1.394 1_556 S
C1599 C1600 1.383 1_556 S
C1599 H1607 0.929 . S
C1600 C1599 1.383 1_554 S
C1600 C1601 1.381 . S
C1601 H1585 0.930 . S
C1601 C1600 1.381 . S
C1601 C1602 1.379 . S
C1602 H1586 0.931 . S
C1602 C1596 1.383 . S
C1602 C1601 1.379 . S
H1603 C1597 0.959 . S
H1604 C1597 0.961 . S
H1605 C1597 0.960 . S
H1606 C1598 0.930 . S
H1607 C1599 0.929 . S
H1608 C1616 0.929 . S
H1609 C1618 0.930 . S
H1610 C1620 0.930 . S
H1611 C1623 0.929 . S
H1612 C1626 0.930 . S
H1613 C1628 0.960 . S
H1614 C1628 0.960 . S
H1615 C1628 0.960 . S
C1616 H1608 0.929 . S
C1616 C1617 1.377 . S
C1616 C1618 1.384 . S
C1617 C1616 1.377 . S
C1617 C1623 1.390 . S
C1618 H1609 0.930 . S
C1618 C1616 1.384 . S
C1618 C1619 1.372 . S
C1619 C1618 1.372 . S
C1619 C1620 1.400 . S
C1619 C1624 1.490 . S
C1620 H1610 0.930 . S
C1620 C1619 1.400 . S
C1620 C1623 1.386 . S
H1621 C1637 0.930 . S
H1622 C1638 0.931 . S
C1623 H1611 0.929 . S
C1623 C1617 1.390 . S
C1623 C1620 1.386 . S
C1624 C1619 1.490 . S
C1624 C1626 1.395 . S
C1624 C1627 1.403 . S
H1625 C1631 0.930 . S
C1626 H1612 0.930 . S
C1626 C1624 1.395 . S
C1626 C1629 1.403 . S
C1627 C1624 1.403 . S
C1627 C1628 1.524 . S
C1627 C1631 1.400 . S
C1628 H1613 0.960 . S
C1628 H1614 0.960 . S
C1628 H1615 0.960 . S
C1628 C1627 1.524 . S
C1629 C1626 1.403 . S
C1629 C1630 1.392 . S
C1629 C1633 1.495 . S
C1630 C1629 1.392 . S
C1630 C1631 1.385 . S
C1630 C1632 1.478 . S
C1631 H1625 0.930 . S
C1631 C1627 1.400 . S
C1631 C1630 1.385 . S
C1632 C1630 1.478 . S
C1632 C1634 1.381 . S
C1632 C1638 1.383 . S
C1633 C1629 1.495 . S
C1633 H1639 0.959 . S
C1633 H1640 0.961 . S
C1633 H1641 0.960 . S
C1634 C1632 1.381 . S
C1634 C1635 1.394 . S
C1634 H1642 0.930 . S
C1635 C1634 1.394 . S
C1635 C1636 1.383 . S
C1635 H1643 0.929 . S
C1636 C1635 1.383 . S
C1636 C1637 1.377 1_556 S
C1637 H1621 0.930 . S
C1637 C1636 1.377 1_554 S
C1637 C1638 1.379 1_554 S
C1638 H1622 0.931 . S
C1638 C1632 1.383 . S
C1638 C1637 1.379 1_556 S
H1639 C1633 0.959 . S
H1640 C1633 0.961 . S
H1641 C1633 0.960 . S
H1642 C1634 0.930 . S
H1643 C1635 0.929 . S
H1644 C1652 0.929 . S
H1645 C1654 0.930 . S
H1646 C1656 0.930 . S
H1647 C1659 0.929 . S
H1648 C1662 0.930 . S
H1649 C1664 0.960 . S
H1650 C1664 0.960 . S
H1651 C1664 0.960 . S
C1652 H1644 0.929 . S
C1652 C1653 1.377 . S
C1652 C1654 1.384 . S
C1653 C1652 1.377 . S
C1653 C1659 1.390 . S
C1654 H1645 0.930 . S
C1654 C1652 1.384 . S
C1654 C1655 1.372 . S
C1655 C1654 1.372 . S
C1655 C1656 1.400 . S
C1655 C1660 1.490 . S
C1656 H1646 0.930 . S
C1656 C1655 1.400 . S
C1656 C1659 1.386 . S
H1657 C1673 0.930 . S
H1658 C1674 0.931 . S
C1659 H1647 0.929 . S
C1659 C1653 1.390 . S
C1659 C1656 1.386 . S
C1660 C1655 1.490 . S
C1660 C1662 1.395 . S
C1660 C1663 1.403 . S
H1661 C1667 0.930 . S
C1662 H1648 0.930 . S
C1662 C1660 1.395 . S
C1662 C1665 1.403 . S
C1663 C1660 1.403 . S
C1663 C1664 1.524 . S
C1663 C1667 1.400 . S
C1664 H1649 0.960 . S
C1664 H1650 0.960 . S
C1664 H1651 0.960 . S
C1664 C1663 1.524 . S
C1665 C1662 1.403 . S
C1665 C1666 1.392 . S
C1665 C1669 1.495 . S
C1666 C1665 1.392 . S
C1666 C1667 1.385 . S
C1666 C1668 1.478 . S
C1667 H1661 0.930 . S
C1667 C1663 1.400 . S
C1667 C1666 1.385 . S
C1668 C1666 1.478 . S
C1668 C1670 1.381 . S
C1668 C1674 1.383 . S
C1669 C1665 1.495 . S
C1669 H1675 0.959 . S
C1669 H1676 0.961 . S
C1669 H1677 0.960 . S
C1670 C1668 1.381 . S
C1670 C1671 1.394 . S
C1670 H1678 0.930 . S
C1671 C1670 1.394 . S
C1671 C1672 1.383 . S
C1671 H1679 0.929 . S
C1672 C1671 1.383 . S
C1672 C1673 1.377 . S
C1673 H1657 0.930 . S
C1673 C1672 1.377 . S
C1673 C1674 1.379 . S
C1674 H1658 0.931 . S
C1674 C1668 1.383 . S
C1674 C1673 1.379 . S
H1675 C1669 0.959 . S
H1676 C1669 0.961 . S
H1677 C1669 0.960 . S
H1678 C1670 0.930 . S
H1679 C1671 0.929 . S
H1680 C1688 0.929 . S
H1681 C1690 0.930 . S
H1682 C1692 0.930 . S
H1683 C1695 0.929 . S
H1684 C1698 0.930 . S
H1685 C1700 0.960 . S
H1686 C1700 0.960 . S
H1687 C1700 0.960 . S
C1688 H1680 0.929 . S
C1688 C1689 1.377 . S
C1688 C1690 1.384 1_556 S
C1689 C1688 1.377 . S
C1689 C1695 1.390 1_556 S
C1690 H1681 0.930 . S
C1690 C1688 1.384 1_554 S
C1690 C1691 1.372 . S
C1691 C1690 1.372 . S
C1691 C1692 1.400 . S
C1691 C1696 1.490 . S
C1692 H1682 0.930 . S
C1692 C1691 1.400 . S
C1692 C1695 1.386 . S
H1693 C1709 0.930 . S
H1694 C1710 0.931 . S
C1695 H1683 0.929 . S
C1695 C1689 1.390 1_554 S
C1695 C1692 1.386 . S
C1696 C1691 1.490 . S
C1696 C1698 1.395 . S
C1696 C1699 1.403 . S
H1697 C1703 0.930 . S
C1698 H1684 0.930 . S
C1698 C1696 1.395 . S
C1698 C1701 1.403 . S
C1699 C1696 1.403 . S
C1699 C1700 1.524 . S
C1699 C1703 1.400 . S
C1700 H1685 0.960 . S
C1700 H1686 0.960 . S
C1700 H1687 0.960 . S
C1700 C1699 1.524 . S
C1701 C1698 1.403 . S
C1701 C1702 1.392 . S
C1701 C1705 1.495 . S
C1702 C1701 1.392 . S
C1702 C1703 1.385 . S
C1702 C1704 1.478 . S
C1703 H1697 0.930 . S
C1703 C1699 1.400 . S
C1703 C1702 1.385 . S
C1704 C1702 1.478 . S
C1704 C1706 1.381 . S
C1704 C1710 1.383 . S
C1705 C1701 1.495 . S
C1705 H1711 0.959 . S
C1705 H1712 0.961 . S
C1705 H1713 0.960 . S
C1706 C1704 1.381 . S
C1706 C1707 1.394 . S
C1706 H1714 0.930 . S
C1707 C1706 1.394 . S
C1707 C1708 1.383 . S
C1707 H1715 0.929 . S
C1708 C1707 1.383 . S
C1708 C1709 1.377 . S
C1709 H1693 0.930 . S
C1709 C1708 1.377 . S
C1709 C1710 1.379 . S
C1710 H1694 0.931 . S
C1710 C1704 1.383 . S
C1710 C1709 1.379 . S
H1711 C1705 0.959 . S
H1712 C1705 0.961 . S
H1713 C1705 0.960 . S
H1714 C1706 0.930 . S
H1715 C1707 0.929 . S
H1716 C1724 0.929 . S
H1717 C1726 0.930 . S
H1718 C1728 0.930 . S
H1719 C1731 0.929 . S
H1720 C1734 0.930 . S
H1721 C1736 0.960 . S
H1722 C1736 0.960 . S
H1723 C1736 0.960 . S
C1724 H1716 0.929 . S
C1724 C1725 1.377 . S
C1724 C1726 1.384 . S
C1725 C1724 1.377 . S
C1725 C1731 1.390 . S
C1726 H1717 0.930 . S
C1726 C1724 1.384 . S
C1726 C1727 1.372 . S
C1727 C1726 1.372 . S
C1727 C1728 1.400 . S
C1727 C1732 1.490 . S
C1728 H1718 0.930 . S
C1728 C1727 1.400 . S
C1728 C1731 1.386 . S
H1729 C1745 0.930 . S
H1730 C1746 0.931 . S
C1731 H1719 0.929 . S
C1731 C1725 1.390 . S
C1731 C1728 1.386 . S
C1732 C1727 1.490 . S
C1732 C1734 1.395 . S
C1732 C1735 1.403 . S
H1733 C1739 0.930 . S
C1734 H1720 0.930 . S
C1734 C1732 1.395 . S
C1734 C1737 1.403 . S
C1735 C1732 1.403 . S
C1735 C1736 1.524 . S
C1735 C1739 1.400 . S
C1736 H1721 0.960 . S
C1736 H1722 0.960 . S
C1736 H1723 0.960 . S
C1736 C1735 1.524 . S
C1737 C1734 1.403 . S
C1737 C1738 1.392 . S
C1737 C1741 1.495 . S
C1738 C1737 1.392 . S
C1738 C1739 1.385 . S
C1738 C1740 1.478 . S
C1739 H1733 0.930 . S
C1739 C1735 1.400 . S
C1739 C1738 1.385 . S
C1740 C1738 1.478 . S
C1740 C1742 1.381 . S
C1740 C1746 1.383 . S
C1741 C1737 1.495 . S
C1741 H1747 0.959 . S
C1741 H1748 0.961 . S
C1741 H1749 0.960 . S
C1742 C1740 1.381 . S
C1742 C1743 1.394 . S
C1742 H1750 0.930 . S
C1743 C1742 1.394 . S
C1743 C1744 1.383 . S
C1743 H1751 0.929 . S
C1744 C1743 1.383 . S
C1744 C1745 1.377 . S
C1745 H1729 0.930 . S
C1745 C1744 1.377 . S
C1745 C1746 1.379 . S
C1746 H1730 0.931 . S
C1746 C1740 1.383 . S
C1746 C1745 1.379 . S
H1747 C1741 0.959 . S
H1748 C1741 0.961 . S
H1749 C1741 0.960 . S
H1750 C1742 0.930 . S
H1751 C1743 0.929 . S
H1752 C1760 0.929 . S
H1753 C1762 0.930 . S
H1754 C1764 0.930 . S
H1755 C1767 0.929 . S
H1756 C1770 0.930 . S
H1757 C1772 0.960 . S
H1758 C1772 0.960 . S
H1759 C1772 0.960 . S
C1760 H1752 0.929 . S
C1760 C1761 1.377 . S
C1760 C1762 1.384 . S
C1761 C1760 1.377 . S
C1761 C1767 1.390 . S
C1762 H1753 0.930 . S
C1762 C1760 1.384 . S
C1762 C1763 1.372 . S
C1763 C1762 1.372 . S
C1763 C1764 1.400 . S
C1763 C1768 1.490 . S
C1764 H1754 0.930 . S
C1764 C1763 1.400 . S
C1764 C1767 1.386 . S
H1765 C1781 0.930 . S
H1766 C1782 0.931 . S
C1767 H1755 0.929 . S
C1767 C1761 1.390 . S
C1767 C1764 1.386 . S
C1768 C1763 1.490 . S
C1768 C1770 1.395 . S
C1768 C1771 1.403 . S
H1769 C1775 0.930 . S
C1770 H1756 0.930 . S
C1770 C1768 1.395 . S
C1770 C1773 1.403 . S
C1771 C1768 1.403 . S
C1771 C1772 1.524 . S
C1771 C1775 1.400 . S
C1772 H1757 0.960 . S
C1772 H1758 0.960 . S
C1772 H1759 0.960 . S
C1772 C1771 1.524 . S
C1773 C1770 1.403 . S
C1773 C1774 1.392 . S
C1773 C1777 1.495 . S
C1774 C1773 1.392 . S
C1774 C1775 1.385 . S
C1774 C1776 1.478 . S
C1775 H1769 0.930 . S
C1775 C1771 1.400 . S
C1775 C1774 1.385 . S
C1776 C1774 1.478 . S
C1776 C1778 1.381 . S
C1776 C1782 1.383 . S
C1777 C1773 1.495 . S
C1777 H1783 0.959 . S
C1777 H1784 0.961 . S
C1777 H1785 0.960 . S
C1778 C1776 1.381 . S
C1778 C1779 1.394 . S
C1778 H1786 0.930 . S
C1779 C1778 1.394 . S
C1779 C1780 1.383 . S
C1779 H1787 0.929 . S
C1780 C1779 1.383 . S
C1780 C1781 1.377 . S
C1781 H1765 0.930 . S
C1781 C1780 1.377 . S
C1781 C1782 1.379 . S
C1782 H1766 0.931 . S
C1782 C1776 1.383 . S
C1782 C1781 1.379 . S
H1783 C1777 0.959 . S
H1784 C1777 0.961 . S
H1785 C1777 0.960 . S
H1786 C1778 0.930 . S
H1787 C1779 0.929 . S
H1788 C1796 0.929 . S
H1789 C1798 0.930 . S
H1790 C1800 0.930 . S
H1791 C1803 0.929 1_554 S
H1792 C1806 0.930 . S
H1793 C1808 0.960 . S
H1794 C1808 0.960 . S
H1795 C1808 0.960 . S
C1796 H1788 0.929 . S
C1796 C1797 1.377 . S
C1796 C1798 1.384 1_554 S
C1797 C1796 1.377 . S
C1797 C1803 1.390 1_554 S
C1798 H1789 0.930 . S
C1798 C1796 1.384 1_556 S
C1798 C1799 1.372 . S
C1799 C1798 1.372 . S
C1799 C1800 1.400 . S
C1799 C1804 1.490 . S
C1800 H1790 0.930 . S
C1800 C1799 1.400 . S
C1800 C1803 1.386 . S
H1801 C1817 0.930 . S
H1802 C1818 0.931 . S
C1803 H1791 0.929 1_556 S
C1803 C1797 1.390 1_556 S
C1803 C1800 1.386 . S
C1804 C1799 1.490 . S
C1804 C1806 1.395 . S
C1804 C1807 1.403 . S
H1805 C1811 0.930 . S
C1806 H1792 0.930 . S
C1806 C1804 1.395 . S
C1806 C1809 1.403 . S
C1807 C1804 1.403 . S
C1807 C1808 1.524 . S
C1807 C1811 1.400 . S
C1808 H1793 0.960 . S
C1808 H1794 0.960 . S
C1808 H1795 0.960 . S
C1808 C1807 1.524 . S
C1809 C1806 1.403 . S
C1809 C1810 1.392 . S
C1809 C1813 1.495 . S
C1810 C1809 1.392 . S
C1810 C1811 1.385 . S
C1810 C1812 1.478 . S
C1811 H1805 0.930 . S
C1811 C1807 1.400 . S
C1811 C1810 1.385 . S
C1812 C1810 1.478 . S
C1812 C1814 1.381 . S
C1812 C1818 1.383 . S
C1813 C1809 1.495 . S
C1813 H1819 0.959 . S
C1813 H1820 0.961 . S
C1813 H1821 0.960 . S
C1814 C1812 1.381 . S
C1814 C1815 1.394 . S
C1814 H1822 0.930 . S
C1815 C1814 1.394 . S
C1815 C1816 1.383 . S
C1815 H1823 0.929 . S
C1816 C1815 1.383 . S
C1816 C1817 1.377 . S
C1817 H1801 0.930 . S
C1817 C1816 1.377 . S
C1817 C1818 1.379 . S
C1818 H1802 0.931 . S
C1818 C1812 1.383 . S
C1818 C1817 1.379 . S
H1819 C1813 0.959 . S
H1820 C1813 0.961 . S
H1821 C1813 0.960 . S
H1822 C1814 0.930 . S
H1823 C1815 0.929 . S
H1824 C1832 0.929 . S
H1825 C1834 0.930 . S
H1826 C1836 0.930 . S
H1827 C1839 0.929 . S
H1828 C1842 0.930 . S
H1829 C1844 0.960 . S
H1830 C1844 0.960 . S
H1831 C1844 0.960 . S
C1832 H1824 0.929 . S
C1832 C1833 1.377 . S
C1832 C1834 1.384 . S
C1833 C1832 1.377 . S
C1833 C1839 1.390 . S
C1834 H1825 0.930 . S
C1834 C1832 1.384 . S
C1834 C1835 1.372 . S
C1835 C1834 1.372 . S
C1835 C1836 1.400 . S
C1835 C1840 1.490 . S
C1836 H1826 0.930 . S
C1836 C1835 1.400 . S
C1836 C1839 1.386 . S
H1837 C1853 0.930 . S
H1838 C1854 0.931 . S
C1839 H1827 0.929 . S
C1839 C1833 1.390 . S
C1839 C1836 1.386 . S
C1840 C1835 1.490 . S
C1840 C1842 1.395 . S
C1840 C1843 1.403 . S
H1841 C1847 0.930 . S
C1842 H1828 0.930 . S
C1842 C1840 1.395 . S
C1842 C1845 1.403 . S
C1843 C1840 1.403 . S
C1843 C1844 1.524 . S
C1843 C1847 1.400 . S
C1844 H1829 0.960 . S
C1844 H1830 0.960 . S
C1844 H1831 0.960 . S
C1844 C1843 1.524 . S
C1845 C1842 1.403 . S
C1845 C1846 1.392 . S
C1845 C1849 1.495 . S
C1846 C1845 1.392 . S
C1846 C1847 1.385 . S
C1846 C1848 1.478 . S
C1847 H1841 0.930 . S
C1847 C1843 1.400 . S
C1847 C1846 1.385 . S
C1848 C1846 1.478 . S
C1848 C1850 1.381 . S
C1848 C1854 1.383 . S
C1849 C1845 1.495 . S
C1849 H1855 0.959 . S
C1849 H1856 0.961 . S
C1849 H1857 0.960 . S
C1850 C1848 1.381 . S
C1850 C1851 1.394 . S
C1850 H1858 0.930 . S
C1851 C1850 1.394 . S
C1851 C1852 1.383 . S
C1851 H1859 0.929 1_556 S
C1852 C1851 1.383 . S
C1852 C1853 1.377 . S
C1853 H1837 0.930 . S
C1853 C1852 1.377 . S
C1853 C1854 1.379 . S
C1854 H1838 0.931 . S
C1854 C1848 1.383 . S
C1854 C1853 1.379 . S
H1855 C1849 0.959 . S
H1856 C1849 0.961 . S
H1857 C1849 0.960 . S
H1858 C1850 0.930 . S
H1859 C1851 0.929 1_554 S
H1860 C1868 0.929 . S
H1861 C1870 0.930 . S
H1862 C1872 0.930 . S
H1863 C1875 0.929 . S
H1864 C1878 0.930 . S
H1865 C1880 0.960 . S
H1866 C1880 0.960 . S
H1867 C1880 0.960 . S
C1868 H1860 0.929 . S
C1868 C1869 1.377 . S
C1868 C1870 1.384 . S
C1869 C1868 1.377 . S
C1869 C1875 1.390 . S
C1870 H1861 0.930 . S
C1870 C1868 1.384 . S
C1870 C1871 1.372 . S
C1871 C1870 1.372 . S
C1871 C1872 1.400 . S
C1871 C1876 1.490 . S
C1872 H1862 0.930 . S
C1872 C1871 1.400 . S
C1872 C1875 1.386 . S
H1873 C1889 0.930 . S
H1874 C1890 0.931 . S
C1875 H1863 0.929 . S
C1875 C1869 1.390 . S
C1875 C1872 1.386 . S
C1876 C1871 1.490 . S
C1876 C1878 1.395 . S
C1876 C1879 1.403 . S
H1877 C1883 0.930 . S
C1878 H1864 0.930 . S
C1878 C1876 1.395 . S
C1878 C1881 1.403 . S
C1879 C1876 1.403 . S
C1879 C1880 1.524 . S
C1879 C1883 1.400 . S
C1880 H1865 0.960 . S
C1880 H1866 0.960 . S
C1880 H1867 0.960 . S
C1880 C1879 1.524 . S
C1881 C1878 1.403 . S
C1881 C1882 1.392 . S
C1881 C1885 1.495 . S
C1882 C1881 1.392 . S
C1882 C1883 1.385 . S
C1882 C1884 1.478 . S
C1883 H1877 0.930 . S
C1883 C1879 1.400 . S
C1883 C1882 1.385 . S
C1884 C1882 1.478 . S
C1884 C1886 1.381 . S
C1884 C1890 1.383 . S
C1885 C1881 1.495 . S
C1885 H1891 0.959 . S
C1885 H1892 0.961 . S
C1885 H1893 0.960 . S
C1886 C1884 1.381 . S
C1886 C1887 1.394 . S
C1886 H1894 0.930 . S
C1887 C1886 1.394 . S
C1887 C1888 1.383 . S
C1887 H1895 0.929 . S
C1888 C1887 1.383 . S
C1888 C1889 1.377 . S
C1889 H1873 0.930 . S
C1889 C1888 1.377 . S
C1889 C1890 1.379 . S
C1890 H1874 0.931 . S
C1890 C1884 1.383 . S
C1890 C1889 1.379 . S
H1891 C1885 0.959 . S
H1892 C1885 0.961 . S
H1893 C1885 0.960 . S
H1894 C1886 0.930 . S
H1895 C1887 0.929 . S
H1896 C1904 0.929 . S
H1897 C1906 0.930 . S
H1898 C1908 0.930 . S
H1899 C1911 0.929 . S
H1900 C1914 0.930 . S
H1901 C1916 0.960 . S
H1902 C1916 0.960 . S
H1903 C1916 0.960 . S
C1904 H1896 0.929 . S
C1904 C1905 1.377 . S
C1904 C1906 1.384 . S
C1905 C1904 1.377 . S
C1905 C1911 1.390 . S
C1906 H1897 0.930 . S
C1906 C1904 1.384 . S
C1906 C1907 1.372 . S
C1907 C1906 1.372 . S
C1907 C1908 1.400 . S
C1907 C1912 1.490 . S
C1908 H1898 0.930 . S
C1908 C1907 1.400 . S
C1908 C1911 1.386 . S
H1909 C1925 0.930 . S
H1910 C1926 0.931 . S
C1911 H1899 0.929 . S
C1911 C1905 1.390 . S
C1911 C1908 1.386 . S
C1912 C1907 1.490 . S
C1912 C1914 1.395 . S
C1912 C1915 1.403 . S
H1913 C1919 0.930 . S
C1914 H1900 0.930 . S
C1914 C1912 1.395 . S
C1914 C1917 1.403 . S
C1915 C1912 1.403 . S
C1915 C1916 1.524 . S
C1915 C1919 1.400 . S
C1916 H1901 0.960 . S
C1916 H1902 0.960 . S
C1916 H1903 0.960 . S
C1916 C1915 1.524 . S
C1917 C1914 1.403 . S
C1917 C1918 1.392 . S
C1917 C1921 1.495 . S
C1918 C1917 1.392 . S
C1918 C1919 1.385 . S
C1918 C1920 1.478 . S
C1919 H1913 0.930 . S
C1919 C1915 1.400 . S
C1919 C1918 1.385 . S
C1920 C1918 1.478 . S
C1920 C1922 1.381 . S
C1920 C1926 1.383 . S
C1921 C1917 1.495 . S
C1921 H1927 0.959 . S
C1921 H1928 0.961 . S
C1921 H1929 0.960 . S
C1922 C1920 1.381 . S
C1922 C1923 1.394 . S
C1922 H1930 0.930 . S
C1923 C1922 1.394 . S
C1923 C1924 1.383 . S
C1923 H1931 0.929 . S
C1924 C1923 1.383 . S
C1924 C1925 1.377 . S
C1925 H1909 0.930 . S
C1925 C1924 1.377 . S
C1925 C1926 1.379 . S
C1926 H1910 0.931 . S
C1926 C1920 1.383 . S
C1926 C1925 1.379 . S
H1927 C1921 0.959 . S
H1928 C1921 0.961 . S
H1929 C1921 0.960 . S
H1930 C1922 0.930 . S
H1931 C1923 0.929 . S
H1932 C1940 0.929 . S
H1933 C1942 0.930 . S
H1934 C1944 0.930 . S
H1935 C1947 0.929 . S
H1936 C1950 0.930 . S
H1937 C1952 0.960 . S
H1938 C1952 0.960 . S
H1939 C1952 0.960 . S
C1940 H1932 0.929 . S
C1940 C1941 1.377 . S
C1940 C1942 1.384 . S
C1941 C1940 1.377 . S
C1941 C1947 1.390 . S
C1942 H1933 0.930 . S
C1942 C1940 1.384 . S
C1942 C1943 1.372 . S
C1943 C1942 1.372 . S
C1943 C1944 1.400 . S
C1943 C1948 1.490 . S
C1944 H1934 0.930 . S
C1944 C1943 1.400 . S
C1944 C1947 1.386 . S
H1945 C1961 0.930 . S
H1946 C1962 0.931 . S
C1947 H1935 0.929 . S
C1947 C1941 1.390 . S
C1947 C1944 1.386 . S
C1948 C1943 1.490 . S
C1948 C1950 1.395 . S
C1948 C1951 1.403 . S
H1949 C1955 0.930 . S
C1950 H1936 0.930 . S
C1950 C1948 1.395 . S
C1950 C1953 1.403 . S
C1951 C1948 1.403 . S
C1951 C1952 1.524 . S
C1951 C1955 1.400 . S
C1952 H1937 0.960 . S
C1952 H1938 0.960 . S
C1952 H1939 0.960 . S
C1952 C1951 1.524 . S
C1953 C1950 1.403 . S
C1953 C1954 1.392 . S
C1953 C1957 1.495 . S
C1954 C1953 1.392 . S
C1954 C1955 1.385 . S
C1954 C1956 1.478 . S
C1955 H1949 0.930 . S
C1955 C1951 1.400 . S
C1955 C1954 1.385 . S
C1956 C1954 1.478 . S
C1956 C1958 1.381 . S
C1956 C1962 1.383 . S
C1957 C1953 1.495 . S
C1957 H1963 0.959 . S
C1957 H1964 0.961 . S
C1957 H1965 0.960 . S
C1958 C1956 1.381 . S
C1958 C1959 1.394 . S
C1958 H1966 0.930 . S
C1959 C1958 1.394 . S
C1959 C1960 1.383 . S
C1959 H1967 0.929 . S
C1960 C1959 1.383 . S
C1960 C1961 1.377 1_554 S
C1961 H1945 0.930 . S
C1961 C1960 1.377 1_556 S
C1961 C1962 1.379 1_556 S
C1962 H1946 0.931 . S
C1962 C1956 1.383 . S
C1962 C1961 1.379 1_554 S
H1963 C1957 0.959 . S
H1964 C1957 0.961 . S
H1965 C1957 0.960 . S
H1966 C1958 0.930 . S
H1967 C1959 0.929 . S
C537 C21 0.989 . S
C556 C153 1.013 . S
C573 C186 0.981 . S
C592 C54 0.977 . S
C609 C219 0.992 . S
C628 C87 1.011 . S
C645 C120 0.989 . S
C664 C252 1.013 . S
C681 C285 0.987 . S
C700 C351 1.010 . S
C717 C384 0.991 . S
C736 C318 0.979 . S
C753 C417 0.981 . S
C772 C483 0.980 . S
C789 C450 0.981 . S
C808 C516 0.967 . S
C825 N13 1.139 . S
C844 N178 1.165 1_554 S
C861 N211 1.127 . S
C880 N46 1.090 . S
C897 N244 1.143 . S
C916 N79 1.164 . S
C933 N112 1.137 1_556 S
C952 N145 1.128 . S
C969 C150 1.941 . S
C988 C348 1.937 . S
C1005 C84 1.941 . S
C1024 C282 1.932 . S
C1041 C216 1.943 . S
C1060 C381 1.942 . S
C1077 C18 1.941 . S
C1096 C315 1.935 . S
C1113 N409 1.129 . S
C1132 N277 1.095 . S
C1149 N343 1.143 1_556 S
C1168 N508 1.161 . S
C1185 N310 1.131 1_554 S
C1204 N442 1.099 . S
C1221 N376 1.139 . S
C1240 N475 1.139 . S
C1257 C480 1.942 . S
C1276 C51 1.935 . S
C1293 C183 1.942 . S
C1312 C447 1.936 . S
C1329 C117 1.943 . S
C1348 C513 1.944 . S
C1365 C414 1.941 . S
C1384 C249 1.932 . S
C1401 C172 1.540 . S
C1420 C7 1.521 . S
C1437 C205 1.546 . S
C1456 C40 1.545 . S
C1473 C73 1.539 . S
C1492 C238 1.522 . S
C1509 C106 1.546 . S
C1528 C139 1.549 . S
C1545 N134 0.629 . S
C1564 N332 0.691 . S
C1581 N266 0.607 . S
C1600 N68 0.544 1_554 S
C1617 N365 0.612 . S
C1636 N200 0.644 1_556 S
C1653 N2 0.631 . S
C1672 N299 0.671 . S
C1689 C403 1.546 . S
C1708 C271 1.550 . S
C1725 C337 1.547 . S
C1744 C502 1.556 . S
C1761 C436 1.541 . S
C1780 C304 1.523 . S
C1797 C469 1.540 . S
C1816 C370 1.521 . S
C1833 N35 0.631 . S
C1852 N464 0.689 1_556 S
C1869 N167 0.601 . S
C1888 N431 0.537 . S
C1905 N497 0.620 . S
C1924 N101 0.671 . S
C1941 N233 0.607 . S
C1960 N398 0.618 1_554 S
