# Generated by pormake.
# Topology smu, (6)-cn, num edge types: 1
# Building blocks:
#     Node 0, Type 0, BuildingBlock: BETDIP_clean_sbu_0, # of connection points: 6
#     Node 1, Type 0, BuildingBlock: BETDIP_clean_sbu_0, # of connection points: 6
#     Node 2, Type 0, BuildingBlock: BETDIP_clean_sbu_0, # of connection points: 6
#     Node 3, Type 0, BuildingBlock: BETDIP_clean_sbu_0, # of connection points: 6
#     Node 4, Type 0, BuildingBlock: BETDIP_clean_sbu_0, # of connection points: 6
#     Node 5, Type 0, BuildingBlock: BETDIP_clean_sbu_0, # of connection points: 6
#     Edge 6, Type (0, 0), BuildingBlock: ZUJKAS_clean_linker_0, # of connection points: 2
#     Edge 7, Type (0, 0), BuildingBlock: ZUJKAS_clean_linker_0, # of connection points: 2
#     Edge 8, Type (0, 0), BuildingBlock: ZUJKAS_clean_linker_0, # of connection points: 2
#     Edge 9, Type (0, 0), BuildingBlock: ZUJKAS_clean_linker_0, # of connection points: 2
#     Edge 10, Type (0, 0), BuildingBlock: ZUJKAS_clean_linker_0, # of connection points: 2
#     Edge 11, Type (0, 0), BuildingBlock: ZUJKAS_clean_linker_0, # of connection points: 2
#     Edge 12, Type (0, 0), BuildingBlock: ZUJKAS_clean_linker_0, # of connection points: 2
#     Edge 13, Type (0, 0), BuildingBlock: ZUJKAS_clean_linker_0, # of connection points: 2
#     Edge 14, Type (0, 0), BuildingBlock: ZUJKAS_clean_linker_0, # of connection points: 2
#     Edge 15, Type (0, 0), BuildingBlock: ZUJKAS_clean_linker_0, # of connection points: 2
#     Edge 16, Type (0, 0), BuildingBlock: ZUJKAS_clean_linker_0, # of connection points: 2
#     Edge 17, Type (0, 0), BuildingBlock: ZUJKAS_clean_linker_0, # of connection points: 2
#     Edge 18, Type (0, 0), BuildingBlock: ZUJKAS_clean_linker_0, # of connection points: 2
#     Edge 19, Type (0, 0), BuildingBlock: ZUJKAS_clean_linker_0, # of connection points: 2
#     Edge 20, Type (0, 0), BuildingBlock: ZUJKAS_clean_linker_0, # of connection points: 2
#     Edge 21, Type (0, 0), BuildingBlock: ZUJKAS_clean_linker_0, # of connection points: 2
#     Edge 22, Type (0, 0), BuildingBlock: ZUJKAS_clean_linker_0, # of connection points: 2
#     Edge 23, Type (0, 0), BuildingBlock: ZUJKAS_clean_linker_0, # of connection points: 2
# Relax obj value: 0.218
# Max RMSD: 0.300
# Mean RMSD: 0.300
data_MOF--net-smu--node1-BETDIP_clean_sbu_0--edge1-ZUJKAS_clean_linker_0
_symmetry_space_group_name_H-M    P1
_symmetry_Int_Tables_number       1
_symmetry_cell_setting            triclinic
loop_
_symmetry_equiv_pos_as_xyz
'x, y, z'
_cell_length_a     47.200689
_cell_length_b     47.152341
_cell_length_c     34.485159
_cell_angle_alpha  89.882099
_cell_angle_beta   90.111492
_cell_angle_gamma 120.04916
loop_
_atom_site_label
_atom_site_type_symbol
_atom_site_fract_x
_atom_site_fract_y
_atom_site_fract_z
_atom_type_partial_charge
Tb0 Tb 0.33935 0.06819 0.28585 0.0
Tb1 Tb 0.37103 0.13872 0.27619 0.0
C2 C 0.29855 1.01015 0.30483 0.0
C3 C 0.26237 0.99283 0.30493 0.0
C4 C 0.2444 0.96644 0.33017 0.0
C5 C 0.21009 0.95053 0.33064 0.0
C6 C 0.19314 0.96094 0.30607 0.0
C7 C 0.21136 0.9875 0.28095 0.0
C8 C 0.24553 1.00318 0.28032 0.0
C9 C 0.35695 0.08646 0.21347 0.0
C10 C 0.29784 0.10382 0.27175 0.0
C11 C 0.4041 0.19876 0.25851 0.0
C12 C 0.43274 0.23095 0.269 0.0
C13 C 0.45775 0.24763 0.24166 0.0
C14 C 0.48223 0.2802 0.24785 0.0
C15 C 0.48221 0.29705 0.2815 0.0
C16 C 0.45782 0.27993 0.30954 0.0
C17 C 0.43336 0.2473 0.30338 0.0
C18 C 0.35622 0.1165 0.34922 0.0
C19 C 0.41551 0.10568 0.28584 0.0
O20 O 0.31302 0.034 0.32985 0.0
O21 O 0.31232 1.01849 0.27072 0.0
O22 O 0.34432 0.09846 0.23598 0.0
O23 O 0.3597 0.06401 0.23179 0.0
O24 O 0.29999 0.08092 0.29156 0.0
O25 O 0.32377 0.12626 0.25357 0.0
O26 O 0.40938 0.17628 0.2437 0.0
O27 O 0.3789 0.18632 0.28181 0.0
O28 O 0.3679 0.10748 0.32294 0.0
O29 O 0.35338 0.14054 0.33581 0.0
O30 O 0.41283 0.13069 0.27276 0.0
O31 O 0.38932 0.07844 0.29829 0.0
H32 H 0.2569 0.9582 0.34957 0.0
H33 H 0.19684 0.93036 0.35059 0.0
H34 H 0.19919 0.99587 0.26122 0.0
H35 H 0.25877 0.02336 0.26038 0.0
H36 H 0.45764 0.23587 0.21464 0.0
H37 H 0.50035 0.2926 0.2254 0.0
H38 H 0.4573 0.29192 0.33606 0.0
H39 H 0.41439 0.23529 0.32502 0.0
Tb40 Tb 0.77068 0.71371 0.28079 0.0
Tb41 Tb 0.81077 0.6832 0.27245 0.0
C42 C 0.75165 0.75325 0.29883 0.0
C43 C 0.76942 0.78927 0.30393 0.0
C44 C 0.80038 0.80573 0.32174 0.0
C45 C 0.8185 0.84005 0.3223 0.0
C46 C 0.80605 0.85871 0.30515 0.0
C47 C 0.77456 0.84205 0.28849 0.0
C48 C 0.75653 0.80776 0.28781 0.0
C49 C 0.77115 0.69491 0.20896 0.0
C50 C 0.84743 0.75628 0.26689 0.0
C51 C 0.83954 0.65164 0.25622 0.0
C52 C 0.84571 0.62502 0.26875 0.0
C53 C 0.82141 0.59174 0.26717 0.0
C54 C 0.82932 0.56719 0.27454 0.0
C55 C 0.86171 0.57533 0.28348 0.0
C56 C 0.88569 0.60869 0.28591 0.0
C57 C 0.87779 0.63311 0.27859 0.0
C58 C 0.80324 0.6988 0.34496 0.0
C59 C 0.73333 0.63739 0.28163 0.0
O60 O 0.75737 0.73606 0.32423 0.0
O61 O 0.75124 0.74324 0.26345 0.0
O62 O 0.79595 0.70836 0.23132 0.0
O63 O 0.74583 0.69174 0.2273 0.0
O64 O 0.82245 0.75363 0.28712 0.0
O65 O 0.84407 0.7305 0.2485 0.0
O66 O 0.81061 0.64407 0.24282 0.0
O67 O 0.85235 0.67818 0.27735 0.0
O68 O 0.78257 0.68645 0.31868 0.0
O69 O 0.83027 0.70189 0.33191 0.0
O70 O 0.76139 0.64046 0.26955 0.0
O71 O 0.73144 0.6634 0.29267 0.0
H72 H 0.81098 0.79214 0.33444 0.0
H73 H 0.84272 0.85189 0.33508 0.0
H74 H 0.76386 0.85551 0.27567 0.0
H75 H 0.73274 0.79564 0.27389 0.0
H76 H 0.79646 0.58461 0.25943 0.0
H77 H 0.81007 0.5418 0.27287 0.0
H78 H 0.91096 0.61607 0.29202 0.0
H79 H 0.89717 0.65851 0.2794 0.0
Tb80 Tb 0.98417 0.28221 0.28802 0.0
Tb81 Tb 0.91385 0.24358 0.27762 0.0
C82 C 0.04196 0.29907 0.30758 0.0
C83 C 0.05922 0.28015 0.3077 0.0
C84 C 0.08537 0.2883 0.33321 0.0
C85 C 0.10132 0.26993 0.3336 0.0
C86 C 0.09124 0.24288 0.30866 0.0
C87 C 0.06489 0.23479 0.2833 0.0
C88 C 0.04914 0.25322 0.28278 0.0
C89 C 0.96649 0.28232 0.21551 0.0
C90 C 0.94855 0.20515 0.27336 0.0
C91 C 0.85387 0.21675 0.25978 0.0
C92 C 0.82163 0.21284 0.27052 0.0
C93 C 0.80437 0.22032 0.243 0.0
C94 C 0.7718 0.21193 0.24954 0.0
C95 C 0.75551 0.19562 0.28376 0.0
C96 C 0.77321 0.18919 0.31195 0.0
C97 C 0.80585 0.19766 0.30542 0.0
C98 C 0.9355 0.25057 0.35093 0.0
C99 C 0.94713 0.32117 0.2869 0.0
O100 O 1.01794 0.2895 0.33234 0.0
O101 O 0.03394 0.30491 0.27344 0.0
O102 O 0.95429 0.25738 0.23772 0.0
O103 O 0.98894 0.30729 0.2341 0.0
O104 O 0.9712 0.23001 0.29358 0.0
O105 O 0.92633 0.20883 0.25489 0.0
O106 O 0.87632 0.24487 0.24558 0.0
O107 O 0.86631 0.2036 0.28256 0.0
O108 O 0.94471 0.27145 0.32474 0.0
O109 O 0.91168 0.22371 0.33721 0.0
O110 O 0.92229 0.29361 0.27332 0.0
O111 O 0.97391 0.32192 0.30044 0.0
H112 H 0.09341 0.30882 0.35286 0.0
H113 H 0.1213 0.27667 0.35378 0.0
H114 H 0.05674 0.2145 0.26328 0.0
H115 H 1.02912 0.24647 0.26266 0.0
H116 H 0.81569 0.23153 0.21561 0.0
H117 H 0.75897 0.21699 0.22695 0.0
H118 H 0.76169 0.17714 0.3389 0.0
H119 H 0.81834 0.19138 0.32723 0.0
Tb120 Tb 0.10517 0.37649 0.79144 0.0
Tb121 Tb 0.1367 0.33617 0.7733 0.0
C122 C 0.09037 0.41927 0.80934 0.0
C123 C 0.10739 0.45467 0.81824 0.0
C124 C 0.14049 0.47189 0.82916 0.0
C125 C 0.15754 0.5063 0.83061 0.0
C126 C 0.14169 0.52408 0.82145 0.0
C127 C 0.10814 0.50648 0.81213 0.0
C128 C 0.09128 0.47223 0.81044 0.0
C129 C 0.08996 0.34783 0.72283 0.0
C130 C 0.18185 0.41238 0.77312 0.0
C131 C 0.16509 0.3072 0.74756 0.0
C132 C 0.16996 0.27971 0.75913 0.0
C133 C 0.16339 0.25466 0.73258 0.0
C134 C 0.17175 0.23075 0.74129 0.0
C135 C 0.18728 0.23165 0.77659 0.0
C136 C 0.19266 0.25611 0.80371 0.0
C137 C 0.18396 0.27972 0.79519 0.0
C138 C 0.12595 0.33925 0.84842 0.0
C139 C 0.0628 0.30009 0.79691 0.0
O140 O 0.09181 0.39919 0.8347 0.0
O141 O 0.09453 0.4125 0.77379 0.0
O142 O 0.11821 0.361 0.73816 0.0
O143 O 0.07033 0.35167 0.74528 0.0
O144 O 0.15727 0.41472 0.78794 0.0
O145 O 0.17776 0.3842 0.7609 0.0
O146 O 0.13575 0.30024 0.73608 0.0
O147 O 0.17912 0.33321 0.76972 0.0
O148 O 0.13409 0.36174 0.82356 0.0
O149 O 0.12753 0.31557 0.83181 0.0
O150 O 0.08526 0.29903 0.77496 0.0
O151 O 0.06674 0.328 0.81149 0.0
H152 H 0.15333 0.4588 0.83547 0.0
H153 H 0.18323 0.51897 0.8384 0.0
H154 H 0.09516 0.51919 0.80441 0.0
H155 H 0.06585 0.45947 0.80146 0.0
H156 H 0.15258 0.25408 0.70464 0.0
H157 H 0.16652 0.21189 0.72001 0.0
H158 H 0.20486 0.25795 0.83099 0.0
H159 H 0.18931 0.29866 0.81642 0.0
Tb160 Tb 0.313 0.9464 0.79217 0.0
Tb161 Tb 0.24241 0.91899 0.76888 0.0
C162 C 0.36788 0.95614 0.8153 0.0
C163 C 0.38263 0.93506 0.82059 0.0
C164 C 0.408 0.94364 0.84743 0.0
C165 C 0.4251 0.92639 0.84868 0.0
C166 C 0.41719 0.90021 0.82297 0.0
C167 C 0.39091 0.89101 0.79712 0.0
C168 C 0.37392 0.90821 0.79592 0.0
C169 C 0.30429 0.96159 0.72109 0.0
C170 C 0.26949 0.87023 0.7727 0.0
C171 C 0.1864 0.89326 0.7388 0.0
C172 C 0.15424 0.88965 0.74775 0.0
C173 C 0.13129 0.88171 0.71794 0.0
C174 C 0.09888 0.87262 0.72658 0.0
C175 C 0.08872 0.87101 0.76531 0.0
C176 C 0.11228 0.88057 0.79498 0.0
C177 C 0.14473 0.88986 0.78627 0.0
C178 C 0.25312 0.93003 0.84444 0.0
C179 C 0.28439 0.99307 0.79097 0.0
O180 O 0.34448 0.95215 0.83904 0.0
O181 O 0.36116 0.95939 0.77938 0.0
O182 O 0.28673 0.93393 0.73723 0.0
O183 O 0.32754 0.98061 0.74435 0.0
O184 O 0.29719 0.89418 0.78681 0.0
O185 O 0.24601 0.87537 0.7606 0.0
O186 O 0.21029 0.92241 0.72893 0.0
O187 O 0.19596 0.87816 0.76278 0.0
O188 O 0.26732 0.92017 0.82165 0.0
O189 O 0.22978 0.93044 0.82537 0.0
O190 O 0.26166 0.97162 0.76719 0.0
O191 O 0.30497 0.98648 0.81004 0.0
H192 H 0.41529 0.96433 0.86663 0.0
H193 H 0.44486 0.93391 0.86938 0.0
H194 H 0.38432 0.87142 0.77645 0.0
H195 H 0.35484 0.90128 0.77443 0.0
H196 H 0.13814 0.88135 0.68805 0.0
H197 H 0.08163 0.86617 0.70291 0.0
H198 H 0.1054 0.87946 0.82511 0.0
H199 H 0.16202 0.89574 0.8098 0.0
Tb200 Tb 0.67555 0.73847 0.7866 0.0
Tb201 Tb 0.71623 0.81001 0.76421 0.0
C202 C 0.633 0.68178 0.80856 0.0
C203 C 0.59758 0.66383 0.81766 0.0
C204 C 0.58084 0.68008 0.82895 0.0
C205 C 0.54644 0.66317 0.83049 0.0
C206 C 0.52813 0.62957 0.8211 0.0
C207 C 0.54526 0.61324 0.8114 0.0
C208 C 0.57949 0.63019 0.8096 0.0
C209 C 0.6996 0.7492 0.71557 0.0
C210 C 0.64001 0.77945 0.76864 0.0
C211 C 0.74355 0.86633 0.7345 0.0
C212 C 0.7718 0.89936 0.74072 0.0
C213 C 0.77971 0.92322 0.712 0.0
C214 C 0.80268 0.95605 0.71936 0.0
C215 C 0.81821 0.9657 0.75572 0.0
C216 C 0.81131 0.94142 0.78389 0.0
C217 C 0.78821 0.90852 0.77649 0.0
C218 C 0.71693 0.79829 0.8395 0.0
C219 C 0.75165 0.7709 0.7846 0.0
O220 O 0.65328 0.70465 0.83246 0.0
O221 O 0.6396 0.6908 0.77233 0.0
O222 O 0.68833 0.76547 0.73217 0.0
O223 O 0.69649 0.72605 0.73831 0.0
O224 O 0.63776 0.75263 0.78378 0.0
O225 O 0.66786 0.80329 0.75517 0.0
O226 O 0.7492 0.8431 0.72293 0.0
O227 O 0.72081 0.85625 0.76115 0.0
O228 O 0.69302 0.78369 0.8165 0.0
O229 O 0.74031 0.82242 0.82086 0.0
O230 O 0.75165 0.79353 0.76167 0.0
O231 O 0.7249 0.74892 0.80337 0.0
H232 H 0.59433 0.70597 0.83552 0.0
H233 H 0.53419 0.67649 0.83859 0.0
H234 H 0.53219 0.58758 0.80348 0.0
H235 H 0.59182 0.6172 0.80034 0.0
H236 H 0.7672 0.91666 0.68428 0.0
H237 H 0.80785 0.97398 0.69677 0.0
H238 H 0.82268 0.948 0.81225 0.0
H239 H 0.78224 0.89049 0.79919 0.0
H240 H 0.30151 0.93287 0.89273 0.0
H241 H 0.32235 0.96488 0.95302 0.0
H242 H 0.2522 0.99747 0.94141 0.0
H243 H 0.23194 0.96641 0.88147 0.0
H244 H 0.34743 0.0367 0.96399 0.0
H245 H 0.23731 0.95761 0.05261 0.0
H246 H 0.24651 0.94362 1.0082 0.0
H247 H 0.22944 0.97014 1.00648 0.0
C248 C 0.29088 0.94717 0.90288 0.0
C249 C 0.26538 0.94738 0.88204 0.0
C250 C 0.30263 0.96529 0.9374 0.0
C251 C 0.28868 0.98344 0.95188 0.0
C252 C 0.26309 0.98339 0.93116 0.0
H253 H 0.31109 0.09066 0.16784 0.0
H254 H 0.29637 0.07037 0.10092 0.0
C255 C 0.25153 0.96553 0.89682 0.0
C256 C 0.30061 1.00261 0.98851 0.0
H257 H 0.27679 1.00775 0.08056 0.0
C258 C 0.33209 0.03031 0.98958 0.0
C259 C 0.28039 0.99459 1.02169 0.0
C260 C 0.2466 0.96474 1.02252 0.0
C261 C 0.34379 0.05029 1.02281 0.0
C262 C 0.32374 0.04199 0.05627 0.0
C263 C 0.29214 1.0144 0.05497 0.0
C264 C 0.33576 0.0598 0.0939 0.0
C265 C 0.37732 0.08045 1.02144 0.0
C266 C 0.36329 0.06159 0.11193 0.0
C267 C 0.37178 0.07337 0.14981 0.0
C268 C 0.3529 0.0835 0.17079 0.0
C269 C 0.32646 0.0836 0.15215 0.0
C270 C 0.31785 0.07166 0.11406 0.0
H271 H 0.38437 0.08955 0.99126 0.0
H272 H 0.37849 0.10047 0.0395 0.0
H273 H 0.39561 0.07423 1.03261 0.0
H274 H 0.37712 0.05199 0.09764 0.0
H275 H 0.39202 0.07259 0.16365 0.0
H276 H 0.69117 0.77671 0.64833 0.0
H277 H 0.71291 0.77552 0.58348 0.0
H278 H 0.76822 0.73454 0.63379 0.0
H279 H 0.74644 0.7351 0.69752 0.0
H280 H 0.78202 0.7989 0.55109 0.0
H281 H 0.70081 0.66388 0.55659 0.0
H282 H 0.69524 0.69133 0.58792 0.0
H283 H 0.72646 0.68124 0.59848 0.0
C284 C 0.70858 0.76825 0.64549 0.0
C285 C 0.71682 0.75565 0.67785 0.0
C286 C 0.72094 0.76751 0.60852 0.0
C287 C 0.74182 0.75444 0.60373 0.0
C288 C 0.75187 0.74432 0.63662 0.0
H289 H 0.84681 0.73628 0.40267 0.0
H290 H 0.83342 0.75219 0.46514 0.0
C291 C 0.73936 0.74469 0.67309 0.0
C292 C 0.75066 0.74788 0.56461 0.0
H293 H 0.74033 0.68475 0.50654 0.0
C294 C 0.77276 0.774 0.5411 0.0
C295 C 0.73847 0.71537 0.55151 0.0
C296 C 0.71371 0.68629 0.57471 0.0
C297 C 0.78335 0.76834 0.50513 0.0
C298 C 0.77192 0.73572 0.49269 0.0
C299 C 0.74945 0.70976 0.51609 0.0
C300 C 0.78114 0.72753 0.45461 0.0
C301 C 0.80619 0.79728 0.48047 0.0
C302 C 0.75636 0.70772 0.42832 0.0
C303 C 0.76391 0.69828 0.39328 0.0
C304 C 0.7965 0.70847 0.38329 0.0
C305 C 0.82149 0.72812 0.40957 0.0
C306 C 0.81386 0.73753 0.44502 0.0
H307 H 0.80633 0.81998 0.48942 0.0
H308 H 0.83145 0.8016 0.48357 0.0
H309 H 0.79924 0.79256 0.44938 0.0
H310 H 0.73096 0.69945 0.43494 0.0
H311 H 0.74401 0.68292 0.37385 0.0
H312 H 0.96684 0.23484 0.16922 0.0
H313 H 0.98868 0.24342 0.1027 0.0
H314 H 0.99688 0.33865 0.10014 0.0
H315 H 0.97552 0.33034 0.16626 0.0
H316 H 0.97279 0.2642 1.02699 0.0
H317 H 0.0926 0.3562 0.08968 0.0
H318 H 0.0593 0.3265 0.11915 0.0
H319 H 0.0587 0.36198 0.10116 0.0
C320 C 0.97212 0.25701 0.15384 0.0
C321 C 0.96941 0.28192 0.17281 0.0
C322 C 0.98489 0.26205 0.11599 0.0
C323 C 0.99508 0.292 0.09675 0.0
C324 C 0.98971 0.3156 0.11458 0.0
H325 H 0.1187 0.38466 0.89169 0.0
H326 H 0.08495 0.37387 0.95033 0.0
C327 C 0.97719 0.31068 0.15223 0.0
C328 C 1.01395 0.30004 0.05981 0.0
H329 H 0.08981 0.3509 1.02158 0.0
C330 C 0.99837 0.28308 1.02578 0.0
C331 C 0.04732 0.3249 0.05815 0.0
C332 C 0.06566 0.34334 0.09398 0.0
C333 C 1.01518 0.29052 0.99012 0.0
C334 C 0.04873 0.31509 0.98857 0.0
C335 C 0.06414 0.33222 1.02259 0.0
C336 C 0.06875 0.32202 0.95258 0.0
C337 C 0.99661 0.27233 0.95429 0.0
C338 C 0.07158 0.29683 0.93483 0.0
C339 C 0.09054 0.30293 0.90148 0.0
C340 C 0.10743 0.33447 0.88499 0.0
C341 C 0.10541 0.36001 0.90321 0.0
C342 C 0.08626 0.35385 0.9368 0.0
H343 H 0.96992 0.26283 0.95749 0.0
H344 H 1.00544 0.28825 0.92818 0.0
H345 H 1.00015 0.25104 0.94956 0.0
H346 H 0.05928 0.27233 0.94694 0.0
H347 H 0.09169 0.28266 0.88839 0.0
H348 H 0.32085 0.12489 0.40752 0.0
H349 H 0.30559 0.0967 0.47094 0.0
H350 H 0.35462 0.0435 0.44053 0.0
H351 H 0.37022 0.07163 0.37824 0.0
H352 H 0.26957 0.0261 0.48992 0.0
H353 H 0.39757 0.08876 0.5437 0.0
H354 H 0.38508 0.10339 0.50234 0.0
H355 H 0.39224 0.06954 0.49727 0.0
C356 C 0.32845 0.1073 0.4146 0.0
C357 C 0.34688 0.10063 0.38797 0.0
C358 C 0.31954 0.09104 0.45065 0.0
C359 C 0.32918 0.06812 0.46066 0.0
C360 C 0.3472 0.06129 0.43377 0.0
H361 H 0.27438 0.92705 0.65376 0.0
H362 H 0.27616 0.95121 0.58951 0.0
C363 C 0.35607 0.07743 0.39807 0.0
C364 C 0.32165 0.05191 0.49947 0.0
H365 H 0.35865 0.04337 0.58033 0.0
C366 C 0.28898 0.03 0.50988 0.0
C367 C 0.34695 0.05702 0.52556 0.0
C368 C 0.38242 0.08116 0.51692 0.0
C369 C 0.28107 1.01281 0.54546 0.0
C370 C 0.30651 1.0174 0.57109 0.0
C371 C 0.33908 0.03955 0.56066 0.0
C372 C 0.30043 1.00139 0.61002 0.0
C373 C 0.24563 0.99033 0.55567 0.0
C374 C 0.3129 1.02127 0.64296 0.0
C375 C 0.31228 1.00764 0.67907 0.0
C376 C 0.29892 0.97365 0.68355 0.0
C377 C 0.28459 0.95328 0.6512 0.0
C378 C 0.28557 0.96712 0.61453 0.0
H379 H 0.229 0.99476 0.53703 0.0
H380 H 0.23952 0.96454 0.55161 0.0
H381 H 0.241 0.99346 0.5865 0.0
H382 H 0.32432 0.04766 0.64048 0.0
H383 H 0.32335 0.02403 0.70346 0.0
H384 H 0.77464 0.8204 0.87697 0.0
H385 H 0.78587 0.79971 0.93644 0.0
H386 H 0.6836 0.72716 0.94623 0.0
H387 H 0.67203 0.74836 0.88648 0.0
H388 H 0.7586 0.79524 1.01136 0.0
H389 H 0.73216 0.67375 0.95606 0.0
H390 H 0.73978 0.70734 0.92424 0.0
H391 H 0.7009 0.68431 0.94792 0.0
C392 C 0.7544 0.80008 0.89175 0.0
C393 C 0.72242 0.7857 0.87666 0.0
C394 C 0.76095 0.78821 0.92575 0.0
C395 C 0.73574 0.76155 0.94556 0.0
C396 C 0.7036 0.74733 0.93098 0.0
H397 H 0.72134 0.66096 0.1593 0.0
H398 H 0.71586 0.67654 0.09337 0.0
C399 C 0.69698 0.75938 0.89684 0.0
C400 C 0.74333 0.74961 0.98205 0.0
H401 H 0.74439 0.68399 1.02294 0.0
C402 C 0.75562 0.77096 1.01387 0.0
C403 C 0.73958 0.71799 0.98525 0.0
C404 C 0.72763 0.69449 0.95154 0.0
C405 C 0.7634 0.7613 0.04911 0.0
C406 C 0.75967 0.72963 0.05243 0.0
C407 C 0.7476 0.70835 1.02041 0.0
C408 C 0.76544 0.71728 0.08989 0.0
C409 C 0.77433 0.78476 0.08291 0.0
C410 C 0.79576 0.73376 0.10938 0.0
C411 C 0.799 0.72477 0.14735 0.0
C412 C 0.77196 0.69902 0.16626 0.0
C413 C 0.7426 0.68091 0.14544 0.0
C414 C 0.73939 0.68988 0.10773 0.0
H415 H 0.76851 0.80463 0.07841 0.0
H416 H 0.76257 0.77172 0.11025 0.0
H417 H 0.80124 0.7963 0.0864 0.0
H418 H 0.81651 0.75449 0.09589 0.0
H419 H 0.82186 0.7393 0.16271 0.0
H420 H 0.92792 0.20594 0.40796 0.0
H421 H 0.9563 0.21801 0.47118 0.0
H422 H 1.00775 0.32101 0.44341 0.0
H423 H 0.97952 0.30927 0.38117 0.0
H424 H 1.02779 0.25419 0.48882 0.0
H425 H 0.96215 0.31461 0.54835 0.0
H426 H 0.94759 0.28807 0.50654 0.0
H427 H 0.98054 0.32959 0.5017 0.0
C428 C 0.94515 0.23111 0.41557 0.0
C429 C 0.95134 0.25665 0.38968 0.0
C430 C 0.96152 0.23798 0.45151 0.0
C431 C 0.98404 0.27048 0.46218 0.0
C432 C 0.9903 0.29581 0.4361 0.0
H433 H 0.12486 0.35777 0.6545 0.0
H434 H 0.10097 0.3363 0.58994 0.0
C435 C 0.9741 0.28901 0.40044 0.0
C436 C 1.00049 0.27853 0.50085 0.0
H437 H 1.00773 0.32077 0.58417 0.0
C438 C 1.02331 0.26858 0.50981 0.0
C439 C 0.99465 0.29729 0.52829 0.0
C440 C 0.96971 0.30783 0.52102 0.0
C441 C 0.04069 0.27732 0.54526 0.0
C442 C 0.03524 0.29663 0.5723 0.0
C443 C 1.01217 0.30621 0.56338 0.0
C444 C 0.05148 0.30581 0.61112 0.0
C445 C 0.06433 0.26545 0.55388 0.0
C446 C 0.03193 0.29534 0.64448 0.0
C447 C 0.04541 0.30762 0.68087 0.0
C448 C 0.07887 0.3307 0.68506 0.0
C449 C 0.09908 0.33978 0.65214 0.0
C450 C 0.0854 0.32753 0.61529 0.0
H451 H 0.06147 0.24604 0.53337 0.0
H452 H 0.08974 0.28631 0.55151 0.0
H453 H 0.06084 0.25574 0.58393 0.0
H454 H 1.00582 0.27859 0.64218 0.0
H455 H 1.02922 0.29998 0.70575 0.0
H456 H 0.43541 0.06412 0.31691 0.0
H457 H 0.49198 0.07467 0.32274 0.0
H458 H 0.52764 0.16791 0.2659 0.0
H459 H 0.47213 0.15787 0.26001 0.0
H460 H 0.54126 0.09019 0.26249 0.0
H461 H 0.58031 0.19137 0.36813 0.0
H462 H 0.53778 0.16211 0.35878 0.0
H463 H 0.56035 0.19591 0.32617 0.0
C464 C 0.45533 0.0868 0.30559 0.0
C465 C 0.44907 0.1102 0.28831 0.0
C466 C 0.48763 0.09281 0.30897 0.0
C467 C 0.51412 0.12241 0.29543 0.0
C468 C 0.50774 0.14525 0.27733 0.0
H469 H 0.72214 0.22757 0.26449 0.0
H470 H 0.66337 0.20726 0.26969 0.0
C471 C 0.47576 0.1393 0.27387 0.0
C472 C 0.54865 0.12996 0.29955 0.0
H473 H 0.62305 0.18805 0.33504 0.0
C474 C 0.55909 0.11122 0.27888 0.0
C475 C 0.57194 0.15749 0.32086 0.0
C476 C 0.56204 0.17773 0.34506 0.0
C477 C 0.59242 0.12027 0.27737 0.0
C478 C 0.61587 0.14852 0.29759 0.0
C479 C 0.60519 0.16654 0.31933 0.0
C480 C 0.65172 0.1607 0.2952 0.0
C481 C 0.60243 0.10039 0.25265 0.0
C482 C 0.66497 0.14159 0.30842 0.0
C483 C 0.69863 0.15311 0.30533 0.0
C484 C 0.71989 0.1841 0.28906 0.0
C485 C 0.70656 0.20343 0.27663 0.0
C486 C 0.67293 0.19191 0.27979 0.0
H487 H 0.5827 0.08406 0.2323 0.0
H488 H 0.62475 0.11663 0.23564 0.0
H489 H 0.60805 0.08484 0.27169 0.0
H490 H 0.64926 0.11769 0.32109 0.0
H491 H 0.70787 0.13737 0.31492 0.0
H492 H 0.67088 0.61728 0.30891 0.0
H493 H 0.62504 0.56059 0.31467 0.0
H494 H 0.68516 0.52484 0.26563 0.0
H495 H 0.73056 0.58054 0.25997 0.0
H496 H 0.59343 0.511 0.25591 0.0
H497 H 0.65237 0.47281 0.36718 0.0
H498 H 0.66641 0.5153 0.35633 0.0
H499 H 0.678 0.4919 0.3258 0.0
C500 C 0.67427 0.59731 0.29936 0.0
C501 C 0.70459 0.60362 0.28426 0.0
C502 C 0.64808 0.56495 0.30268 0.0
C503 C 0.65188 0.5384 0.2913 0.0
C504 C 0.68182 0.54479 0.27545 0.0
H505 H 0.54774 0.32959 0.2635 0.0
H506 H 0.58671 0.3884 0.26796 0.0
C507 C 0.7078 0.57686 0.27207 0.0
C508 C 0.62479 0.50385 0.29516 0.0
H509 H 0.6071 0.42969 0.33309 0.0
C510 C 0.59613 0.49328 0.27326 0.0
C511 C 0.62834 0.48071 0.31777 0.0
C512 C 0.6578 0.49076 0.34341 0.0
C513 C 0.57169 0.45996 0.27189 0.0
C514 C 0.57581 0.43666 0.29347 0.0
C515 C 0.604 0.44745 0.31634 0.0
C516 C 0.55188 0.40084 0.29153 0.0
C517 C 0.54235 0.44978 0.246 0.0
C518 C 0.51941 0.38807 0.30392 0.0
C519 C 0.497 0.3544 0.30129 0.0
C520 C 0.50657 0.33269 0.2863 0.0
C521 C 0.53934 0.34555 0.27467 0.0
C522 C 0.56172 0.37918 0.2774 0.0
H523 H 0.54631 0.46931 0.22498 0.0
H524 H 0.53646 0.4272 0.22965 0.0
H525 H 0.52084 0.44446 0.26411 0.0
H526 H 0.51134 0.40415 0.31557 0.0
H527 H 0.47195 0.34551 0.31021 0.0
H528 H 0.98112 0.37791 0.33031 0.0
H529 H 0.96923 0.4231 0.33532 0.0
H530 H 0.89229 0.37563 0.25058 0.0
H531 H 0.9035 0.33075 0.24589 0.0
H532 H 0.96798 0.46673 0.28041 0.0
H533 H 0.84405 0.38773 0.34056 0.0
H534 H 0.87405 0.37474 0.33799 0.0
H535 H 0.85008 0.37198 0.29598 0.0
C536 C 0.96183 0.37729 0.31263 0.0
C537 C 0.94299 0.35045 0.28813 0.0
C538 C 0.95499 0.40306 0.31558 0.0
C539 C 0.92923 0.40235 0.2941 0.0
C540 C 0.91157 0.37632 0.26836 0.0
H541 H 0.83888 0.51761 0.24319 0.0
H542 H 0.8563 0.4769 0.24899 0.0
C543 C 0.91819 0.35068 0.26559 0.0
C544 C 0.92032 0.42844 0.29814 0.0
H545 H 0.85513 0.43959 0.31502 0.0
C546 C 0.94347 0.46092 0.28853 0.0
C547 C 0.88831 0.42093 0.30884 0.0
C548 C 0.8628 0.38701 0.32182 0.0
C549 C 0.93503 0.48568 0.28757 0.0
C550 C 0.90267 0.47783 0.29686 0.0
C551 C 0.87984 0.44558 0.30757 0.0
C552 C 0.89166 0.50243 0.29445 0.0
C553 C 0.96044 0.51978 0.27515 0.0
C554 C 0.90514 0.53003 0.3187 0.0
C555 C 0.89496 0.55325 0.31576 0.0
C556 C 0.871 0.54943 0.28849 0.0
C557 C 0.85704 0.5213 0.26486 0.0
C558 C 0.86717 0.49806 0.26792 0.0
H559 H 0.98196 0.52029 0.2614 0.0
H560 H 0.94982 0.52999 0.25441 0.0
H561 H 0.96912 0.53599 0.30094 0.0
H562 H 0.92352 0.53358 0.34001 0.0
H563 H 0.90586 0.57419 0.33499 0.0
H564 H 0.12168 0.56669 0.84588 0.0
H565 H 0.14948 0.6261 0.83693 0.0
H566 H 0.23142 0.62433 0.78453 0.0
H567 H 0.20336 0.5647 0.79237 0.0
H568 H 0.20982 0.67658 0.86307 0.0
H569 H 0.20594 0.6704 0.70211 0.0
H570 H 0.18219 0.63489 0.73224 0.0
H571 H 0.22515 0.65017 0.72524 0.0
C572 C 0.14558 0.57886 0.83234 0.0
C573 C 0.16008 0.56072 0.81954 0.0
C574 C 0.16155 0.61292 0.82745 0.0
C575 C 0.19233 0.62971 0.80945 0.0
C576 C 0.20744 0.6119 0.79786 0.0
H577 H 0.30635 0.84629 0.80644 0.0
H578 H 0.29141 0.78874 0.81426 0.0
C579 C 0.19149 0.5778 0.80281 0.0
C580 C 0.20809 0.66569 0.80227 0.0
H581 H 0.23239 0.72309 0.73011 0.0
C582 C 0.215 0.6868 0.83402 0.0
C583 C 0.21451 0.67901 0.76432 0.0
C584 C 0.20636 0.65751 0.72893 0.0
C585 C 0.22781 0.7207 0.82887 0.0
C586 C 0.23435 0.73404 0.79092 0.0
C587 C 0.22774 0.71296 0.7592 0.0
C588 C 0.24542 0.76926 0.78339 0.0
C589 C 0.23302 0.74175 0.86406 0.0
C590 C 0.22536 0.77765 0.76197 0.0
C591 C 0.23396 0.81047 0.75715 0.0
C592 C 0.26298 0.83585 0.77349 0.0
C593 C 0.28384 0.82749 0.79344 0.0
C594 C 0.27516 0.79452 0.79828 0.0
H595 H 0.22039 0.72683 0.89008 0.0
H596 H 0.25958 0.75625 0.87059 0.0
H597 H 0.22404 0.75913 0.85864 0.0
H598 H 0.2024 0.75868 0.74999 0.0
H599 H 0.21728 0.81583 0.74147 0.0
H600 H 0.48387 0.92822 0.83089 0.0
H601 H 0.51714 0.90225 0.82263 0.0
H602 H 0.43006 0.80947 0.80132 0.0
H603 H 0.3964 0.83498 0.81047 0.0
H604 H 0.51435 0.84629 0.86203 0.0
H605 H 0.48892 0.82603 0.70388 0.0
H606 H 0.48146 0.85422 0.73132 0.0
H607 H 0.45377 0.81091 0.73506 0.0
C608 C 0.47162 0.90216 0.8252 0.0
C609 C 0.43733 0.88382 0.82117 0.0
C610 C 0.49076 0.88739 0.82021 0.0
C611 C 0.47614 0.85403 0.81077 0.0
C612 C 0.44192 0.83538 0.80789 0.0
H613 H 0.58199 0.74437 0.80857 0.0
H614 H 0.53957 0.75912 0.81824 0.0
C615 C 0.42272 0.85007 0.81307 0.0
C616 C 0.49684 0.83904 0.80322 0.0
H617 H 0.52183 0.80662 0.73138 0.0
C618 C 0.51583 0.83739 0.83356 0.0
C619 C 0.49895 0.82773 0.76594 0.0
C620 C 0.47993 0.82994 0.73199 0.0
C621 C 0.53697 0.82484 0.82758 0.0
C622 C 0.53902 0.81343 0.79032 0.0
C623 C 0.51994 0.81501 0.76001 0.0
C624 C 0.56269 0.80218 0.78165 0.0
C625 C 0.55777 0.82486 0.86087 0.0
C626 C 0.58905 0.82064 0.75663 0.0
C627 C 0.61327 0.81223 0.751 0.0
C628 C 0.6116 0.78498 0.77006 0.0
C629 C 0.58419 0.76548 0.79348 0.0
C630 C 0.56 0.77404 0.79929 0.0
H631 H 0.55767 0.83983 0.88565 0.0
H632 H 0.54816 0.79936 0.87123 0.0
H633 H 0.58345 0.83445 0.85135 0.0
H634 H 0.59154 0.84232 0.74252 0.0
H635 H 0.63386 0.82778 0.73256 0.0
H636 H 0.23628 0.41665 0.73962 0.0
H637 H 0.29319 0.45911 0.74835 0.0
H638 H 0.26275 0.51558 0.81667 0.0
H639 H 0.20536 0.47271 0.80854 0.0
H640 H 0.32855 0.52477 0.7308 0.0
H641 H 0.32535 0.50562 0.89019 0.0
H642 H 0.29292 0.47764 0.85851 0.0
H643 H 0.29599 0.51591 0.87177 0.0
C644 C 0.24146 0.43819 0.75624 0.0
C645 C 0.21596 0.44093 0.77371 0.0
C646 C 0.2742 0.46255 0.76119 0.0
C647 C 0.28249 0.49033 0.78385 0.0
C648 C 0.2571 0.49405 0.79977 0.0
H649 H 0.48798 0.6518 0.79331 0.0
H650 H 0.42835 0.62099 0.78587 0.0
C651 C 0.22418 0.4696 0.79477 0.0
C652 C 0.31775 0.51448 0.7915 0.0
H653 H 0.37555 0.54559 0.86342 0.0
C654 C 0.33876 0.52958 0.75984 0.0
C655 C 0.33127 0.52043 0.82936 0.0
C656 C 0.31037 0.5039 0.86446 0.0
C657 C 0.37276 0.55002 0.76489 0.0
C658 C 0.38628 0.55603 0.80274 0.0
C659 C 0.36523 0.54125 0.83445 0.0
C660 C 0.42235 0.57584 0.80977 0.0
C661 C 0.3941 0.56394 0.72946 0.0
C662 C 0.43888 0.56125 0.8271 0.0
C663 C 0.47296 0.57891 0.83178 0.0
C664 C 0.49146 0.61174 0.81942 0.0
C665 C 0.47466 0.62668 0.80339 0.0
C666 C 0.44052 0.60894 0.79866 0.0
H667 H 0.38104 0.55117 0.70251 0.0
H668 H 0.40159 0.5902 0.72647 0.0
H669 H 0.4166 0.56215 0.73216 0.0
H670 H 0.42547 0.53586 0.83623 0.0
H671 H 0.48487 0.56669 0.84482 0.0
H672 H 0.28385 0.14178 0.22527 0.0
H673 H 0.24169 0.15647 0.23451 0.0
H674 H 0.20288 0.08966 0.33117 0.0
H675 H 0.2457 0.07501 0.32237 0.0
H676 H 0.17387 0.12205 0.23567 0.0
H677 H 0.22546 0.17839 0.37907 0.0
H678 H 0.247 0.16628 0.34592 0.0
H679 H 0.21335 0.13587 0.37383 0.0
C680 C 0.26613 0.1298 0.24824 0.0
C681 C 0.26843 0.10751 0.27342 0.0
C682 C 0.24196 0.13823 0.25344 0.0
C683 C 0.21951 0.12473 0.28401 0.0
C684 C 0.22037 0.10091 0.30784 0.0
H685 H 0.06414 0.17613 0.3032 0.0
H686 H 0.09251 0.14472 0.2994 0.0
C687 C 0.24465 0.09232 0.30256 0.0
C688 C 0.19675 0.13737 0.29163 0.0
H689 H 0.18163 0.18368 0.35539 0.0
C690 C 0.17522 0.13515 0.26206 0.0
C691 C 0.19894 0.15495 0.32582 0.0
C692 C 0.22256 0.15935 0.35795 0.0
C693 C 0.1564 0.15058 0.26535 0.0
C694 C 0.15873 0.16833 0.29945 0.0
C695 C 0.17974 0.16996 0.32936 0.0
C696 C 0.14113 0.18702 0.30363 0.0
C697 C 0.1353 0.14897 0.23152 0.0
C698 C 0.15889 0.22118 0.30854 0.0
C699 C 0.14273 0.23922 0.31085 0.0
C700 C 0.10839 0.22349 0.30836 0.0
C701 C 0.09063 0.18914 0.30445 0.0
C702 C 0.10681 0.17111 0.30227 0.0
H703 H 0.14195 0.14092 0.20447 0.0
H704 H 0.10932 0.13111 0.23815 0.0
H705 H 0.13742 0.1732 0.22622 0.0
H706 H 0.18538 0.23402 0.30973 0.0
H707 H 0.15723 0.26561 0.31351 0.0
H708 H 0.89895 0.77172 0.21934 0.0
H709 H 0.95596 0.8135 0.22927 0.0
H710 H 0.92867 0.8494 0.32908 0.0
H711 H 0.87114 0.8069 0.31967 0.0
H712 H 0.98995 0.88092 0.23334 0.0
H713 H 0.99424 0.82507 0.37392 0.0
H714 H 0.96037 0.80479 0.34064 0.0
H715 H 0.96425 0.83781 0.37032 0.0
C716 C 0.9049 0.78876 0.24314 0.0
C717 C 0.8805 0.78574 0.26897 0.0
C718 C 0.93759 0.81271 0.24874 0.0
C719 C 0.94677 0.83418 0.28038 0.0
C720 C 0.92225 0.83266 0.30491 0.0
H721 H 0.15388 0.98842 0.3023 0.0
H722 H 0.09409 0.96031 0.29846 0.0
C723 C 0.88933 0.80859 0.29925 0.0
C724 C 0.98221 0.85653 0.28834 0.0
H725 H 0.04347 0.8697 0.35166 0.0
C726 C 1.00163 0.8788 0.25943 0.0
C727 C 0.9975 0.85332 0.32213 0.0
C728 C 0.97818 0.82882 0.35348 0.0
C729 C 0.03589 0.8974 0.26294 0.0
C730 C 0.0512 0.8941 0.29665 0.0
C731 C 0.03172 0.87234 0.32594 0.0
C732 C 0.08746 0.91149 0.30102 0.0
C733 C 0.05549 0.91929 0.22969 0.0
C734 C 0.10368 0.89351 0.3051 0.0
C735 C 0.13787 0.90951 0.30748 0.0
C736 C 0.15664 0.94392 0.30588 0.0
C737 C 0.14025 0.96189 0.30286 0.0
C738 C 0.10604 0.94586 0.30063 0.0
H739 H 0.04084 0.91325 0.20258 0.0
H740 H 0.06363 0.94513 0.2372 0.0
H741 H 0.07758 0.9173 0.22403 0.0
H742 H 0.08989 0.86697 0.30554 0.0
H743 H 0.14964 0.89488 0.30948 0.0
H744 H 0.91362 0.15438 0.22413 0.0
H745 H 0.89887 0.09723 0.23262 0.0
H746 H 0.95924 0.12294 0.33504 0.0
H747 H 0.97426 0.18066 0.3267 0.0
H748 H 0.93771 0.06501 0.24072 0.0
H749 H 0.86429 0.0546 0.37185 0.0
H750 H 0.87768 0.08816 0.338 0.0
H751 H 0.90642 0.08685 0.37101 0.0
C752 C 0.92425 0.14806 0.24815 0.0
C753 C 0.94489 0.17203 0.27496 0.0
C754 C 0.91578 0.11533 0.25293 0.0
C755 C 0.92749 0.10571 0.28479 0.0
C756 C 0.94957 0.1298 0.31052 0.0
H757 H 0.84697 0.90124 0.3611 0.0
H758 H 0.88028 0.96106 0.35743 0.0
C759 C 0.95833 0.16278 0.30555 0.0
C760 C 0.91466 0.0702 0.29185 0.0
H761 H 0.8612 1.00635 0.34889 0.0
C762 C 0.9213 0.05221 0.26463 0.0
C763 C 0.89325 0.05353 0.32307 0.0
C764 C 0.88469 0.07157 0.35265 0.0
C765 C 0.90666 1.01794 0.26738 0.0
C766 C 0.88405 1.00106 0.2976 0.0
C767 C 0.87838 1.01922 0.32564 0.0
C768 C 0.86471 0.96457 0.29944 0.0
C769 C 0.91556 1.00018 0.2378 0.0
C770 C 0.84449 0.94654 0.26832 0.0
C771 C 0.82562 0.91236 0.2702 0.0
C772 C 0.82615 0.89527 0.30348 0.0
C773 C 0.84622 0.91344 0.3348 0.0
C774 C 0.86518 0.9477 0.33284 0.0
H775 H 0.94019 1.01653 0.2253 0.0
H776 H 0.91526 0.97843 0.25068 0.0
H777 H 0.89758 0.99182 0.21368 0.0
H778 H 0.84304 0.95895 0.24258 0.0
H779 H 0.81082 0.89931 0.24531 0.0
H780 H 0.21391 0.20756 0.72469 0.0
H781 H 0.23553 0.17115 0.73732 0.0
H782 H 0.21312 0.16902 0.85883 0.0
H783 H 0.18933 0.2037 0.8461 0.0
H784 H 0.2863 0.18054 0.7814 0.0
H785 H 0.17275 0.07297 0.83711 0.0
H786 H 0.17253 0.10711 0.8138 0.0
H787 H 0.18544 0.1102 0.86347 0.0
C788 C 0.21275 0.19876 0.75399 0.0
C789 C 0.1995 0.20846 0.78427 0.0
C790 C 0.22558 0.17824 0.76125 0.0
C791 C 0.22569 0.16703 0.79896 0.0
C792 C 0.21276 0.1768 0.82936 0.0
H793 H 0.29672 0.02977 0.85716 0.0
H794 H 0.28783 0.07668 0.86582 0.0
C795 C 0.19952 0.19703 0.82206 0.0
C796 C 0.23974 0.14544 0.80602 0.0
H797 H 0.22024 0.06855 0.83563 0.0
C798 C 0.27193 0.15619 0.79366 0.0
C799 C 0.22106 0.11367 0.8222 0.0
C800 C 0.18595 0.10011 0.83462 0.0
C801 C 0.28541 0.1356 0.79559 0.0
C802 C 0.26635 0.10359 0.81048 0.0
C803 C 0.23485 0.09334 0.82467 0.0
C804 C 0.2763 0.07868 0.80547 0.0
C805 C 0.31948 0.14761 0.78034 0.0
C806 C 0.27318 0.06484 0.76872 0.0
C807 C 0.27761 0.03801 0.76393 0.0
C808 C 0.28572 0.02476 0.7957 0.0
C809 C 0.29072 0.03974 0.8322 0.0
C810 C 0.28557 0.06636 0.83718 0.0
H811 H 0.33346 0.1747 0.77729 0.0
H812 H 0.33313 0.13985 0.79983 0.0
H813 H 0.31785 0.13662 0.7514 0.0
H814 H 0.26579 0.07387 0.74402 0.0
H815 H 0.27357 0.02688 0.73549 0.0
H816 H 0.06213 0.89181 0.82179 0.0
H817 H 1.00424 0.86921 0.8376 0.0
H818 H 0.97761 0.79882 0.7452 0.0
H819 H 0.03524 0.82006 0.73051 0.0
H820 H 0.95767 0.8681 0.79397 0.0
H821 H 0.92086 0.74022 0.83082 0.0
H822 H 0.96324 0.77196 0.8269 0.0
H823 H 0.94013 0.75122 0.78418 0.0
C824 C 0.044 0.87113 0.80527 0.0
C825 C 0.05348 0.85784 0.7748 0.0
C826 C 1.01087 0.8583 0.81428 0.0
C827 C 0.98651 0.83182 0.79316 0.0
C828 C 0.99589 0.81862 0.76267 0.0
H829 H 0.79795 0.78823 0.72965 0.0
H830 H 0.85409 0.80021 0.73808 0.0
C831 C 1.02895 0.83128 0.75378 0.0
C832 C 0.95126 0.81978 0.80065 0.0
H833 H 0.87695 0.75001 0.8116 0.0
C834 C 0.94017 0.84235 0.79859 0.0
C835 C 0.92831 0.78624 0.80733 0.0
C836 C 0.93881 0.7611 0.81288 0.0
C837 C 0.90673 0.83209 0.80053 0.0
C838 C 0.88366 0.79829 0.80392 0.0
C839 C 0.8947 0.77586 0.80848 0.0
C840 C 0.84825 0.78604 0.79849 0.0
C841 C 0.89623 0.85745 0.79767 0.0
C842 C 0.82582 0.77234 0.82923 0.0
C843 C 0.79327 0.76502 0.82433 0.0
C844 C 0.78311 0.77157 0.78874 0.0
C845 C 0.80518 0.78325 0.75754 0.0
C846 C 0.83731 0.79021 0.76231 0.0
H847 H 0.9163 0.88214 0.80619 0.0
H848 H 0.88941 0.85888 0.76721 0.0
H849 H 0.87462 0.85081 0.8163 0.0
H850 H 0.83384 0.76877 0.85734 0.0
H851 H 0.77673 0.75615 0.84886 0.0
H852 H 0.06023 0.24371 0.81685 0.0
H853 H 1.01222 0.18874 0.81745 0.0
H854 H 0.95019 0.22949 0.79302 0.0
H855 H 0.9986 0.28509 0.79287 0.0
H856 H 0.9472 0.15968 0.86005 0.0
H857 H 0.94185 0.16635 0.69895 0.0
H858 H 0.97836 0.19341 0.72594 0.0
H859 H 0.94368 0.19928 0.72732 0.0
C860 C 0.03625 0.24101 0.8125 0.0
C861 C 0.03299 0.2685 0.80474 0.0
C862 C 1.00888 0.20963 0.81289 0.0
C863 C 0.97775 0.20505 0.80493 0.0
C864 C 0.97409 0.23259 0.79913 0.0
H865 H 0.80935 1.01718 0.73702 0.0
H866 H 0.84533 0.07526 0.75133 0.0
C867 C 1.00162 0.26425 0.79931 0.0
C868 C 0.95011 0.17123 0.79928 0.0
H869 H 0.90703 0.11572 0.72827 0.0
C870 C 0.93802 0.1501 0.83133 0.0
C871 C 0.93836 0.15883 0.76177 0.0
C872 C 0.95119 0.18043 0.72633 0.0
C873 C 0.91471 0.11671 0.82679 0.0
C874 C 0.90394 0.10396 0.78905 0.0
C875 C 0.91535 0.1254 0.75716 0.0
C876 C 0.88159 0.06839 0.78174 0.0
C877 C 0.90181 0.09549 0.86249 0.0
C878 C 0.89009 0.04508 0.79365 0.0
C879 C 0.86954 1.01176 0.78545 0.0
C880 C 0.84025 1.0011 0.76466 0.0
C881 C 0.83193 0.02455 0.7526 0.0
C882 C 0.85238 0.05778 0.76098 0.0
H883 H 0.90415 0.11029 0.8886 0.0
H884 H 0.8757 0.07638 0.85891 0.0
H885 H 0.91625 0.08316 0.86773 0.0
H886 H 0.91292 0.05269 0.80874 0.0
H887 H 0.8769 0.99444 0.79471 0.0
loop_
_geom_bond_atom_site_label_1
_geom_bond_atom_site_label_2
_geom_bond_distance
_geom_bond_site_symmetry_2
_ccdc_geom_bond_type
Tb0 C2 2.809 . S
Tb0 O20 2.484 . S
Tb0 O21 2.440 . S
Tb0 O22 2.658 . S
Tb0 O23 2.409 . S
Tb0 O24 2.378 . S
Tb0 O28 2.325 . S
Tb0 O31 2.341 . S
Tb1 C11 2.809 . S
Tb1 O22 2.325 . S
Tb1 O25 2.341 . S
Tb1 O26 2.484 . S
Tb1 O27 2.440 . S
Tb1 O28 2.658 . S
Tb1 O29 2.409 . S
Tb1 O30 2.378 . S
C2 Tb0 2.809 . S
C2 C3 1.514 1_545 S
C2 O20 1.248 . S
C2 O21 1.266 . S
C3 C2 1.514 1_565 S
C3 C4 1.359 . S
C3 C8 1.348 . S
C4 C3 1.359 . S
C4 C5 1.380 . S
C4 H32 0.929 . S
C5 C4 1.380 . S
C5 C6 1.347 . S
C5 H33 0.931 . S
C6 C5 1.347 . S
C6 C7 1.369 . S
C7 C6 1.369 . S
C7 C8 1.408 . S
C7 H34 0.930 . S
C8 C3 1.348 . S
C8 C7 1.408 . S
C8 H35 0.930 . S
C9 O22 1.281 . S
C9 O23 1.254 . S
C10 O24 1.236 . S
C10 O25 1.266 . S
C11 Tb1 2.809 . S
C11 C12 1.514 . S
C11 O26 1.248 . S
C11 O27 1.266 . S
C12 C11 1.514 . S
C12 C13 1.359 . S
C12 C17 1.348 . S
C13 C12 1.359 . S
C13 C14 1.380 . S
C13 H36 0.929 . S
C14 C13 1.380 . S
C14 C15 1.347 . S
C14 H37 0.931 . S
C15 C14 1.347 . S
C15 C16 1.369 . S
C16 C15 1.369 . S
C16 C17 1.408 . S
C16 H38 0.930 . S
C17 C12 1.348 . S
C17 C16 1.408 . S
C17 H39 0.930 . S
C18 O28 1.281 . S
C18 O29 1.254 . S
C19 O30 1.236 . S
C19 O31 1.266 . S
O20 Tb0 2.484 . S
O20 C2 1.248 . S
O21 Tb0 2.440 . S
O21 C2 1.266 . S
O22 Tb0 2.658 . S
O22 Tb1 2.325 . S
O22 C9 1.281 . S
O23 Tb0 2.409 . S
O23 C9 1.254 . S
O24 Tb0 2.378 . S
O24 C10 1.236 . S
O25 Tb1 2.341 . S
O25 C10 1.266 . S
O26 Tb1 2.484 . S
O26 C11 1.248 . S
O27 Tb1 2.440 . S
O27 C11 1.266 . S
O28 Tb0 2.325 . S
O28 Tb1 2.658 . S
O28 C18 1.281 . S
O29 Tb1 2.409 . S
O29 C18 1.254 . S
O30 Tb1 2.378 . S
O30 C19 1.236 . S
O31 Tb0 2.341 . S
O31 C19 1.266 . S
H32 C4 0.929 . S
H33 C5 0.931 . S
H34 C7 0.930 . S
H35 C8 0.930 . S
H36 C13 0.929 . S
H37 C14 0.931 . S
H38 C16 0.930 . S
H39 C17 0.930 . S
Tb40 C42 2.809 . S
Tb40 O60 2.484 . S
Tb40 O61 2.440 . S
Tb40 O62 2.658 . S
Tb40 O63 2.409 . S
Tb40 O64 2.378 . S
Tb40 O68 2.325 . S
Tb40 O71 2.341 . S
Tb41 C51 2.809 . S
Tb41 O62 2.325 . S
Tb41 O65 2.341 . S
Tb41 O66 2.484 . S
Tb41 O67 2.440 . S
Tb41 O68 2.658 . S
Tb41 O69 2.409 . S
Tb41 O70 2.378 . S
C42 Tb40 2.809 . S
C42 C43 1.514 . S
C42 O60 1.248 . S
C42 O61 1.266 . S
C43 C42 1.514 . S
C43 C44 1.359 . S
C43 C48 1.348 . S
C44 C43 1.359 . S
C44 C45 1.380 . S
C44 H72 0.929 . S
C45 C44 1.380 . S
C45 C46 1.347 . S
C45 H73 0.931 . S
C46 C45 1.347 . S
C46 C47 1.369 . S
C47 C46 1.369 . S
C47 C48 1.408 . S
C47 H74 0.930 . S
C48 C43 1.348 . S
C48 C47 1.408 . S
C48 H75 0.930 . S
C49 O62 1.281 . S
C49 O63 1.254 . S
C50 O64 1.236 . S
C50 O65 1.266 . S
C51 Tb41 2.809 . S
C51 C52 1.514 . S
C51 O66 1.248 . S
C51 O67 1.266 . S
C52 C51 1.514 . S
C52 C53 1.359 . S
C52 C57 1.348 . S
C53 C52 1.359 . S
C53 C54 1.380 . S
C53 H76 0.929 . S
C54 C53 1.380 . S
C54 C55 1.347 . S
C54 H77 0.931 . S
C55 C54 1.347 . S
C55 C56 1.369 . S
C56 C55 1.369 . S
C56 C57 1.408 . S
C56 H78 0.930 . S
C57 C52 1.348 . S
C57 C56 1.408 . S
C57 H79 0.930 . S
C58 O68 1.281 . S
C58 O69 1.254 . S
C59 O70 1.236 . S
C59 O71 1.266 . S
O60 Tb40 2.484 . S
O60 C42 1.248 . S
O61 Tb40 2.440 . S
O61 C42 1.266 . S
O62 Tb40 2.658 . S
O62 Tb41 2.325 . S
O62 C49 1.281 . S
O63 Tb40 2.409 . S
O63 C49 1.254 . S
O64 Tb40 2.378 . S
O64 C50 1.236 . S
O65 Tb41 2.341 . S
O65 C50 1.266 . S
O66 Tb41 2.484 . S
O66 C51 1.248 . S
O67 Tb41 2.440 . S
O67 C51 1.266 . S
O68 Tb40 2.325 . S
O68 Tb41 2.658 . S
O68 C58 1.281 . S
O69 Tb41 2.409 . S
O69 C58 1.254 . S
O70 Tb41 2.378 . S
O70 C59 1.236 . S
O71 Tb40 2.341 . S
O71 C59 1.266 . S
H72 C44 0.929 . S
H73 C45 0.931 . S
H74 C47 0.930 . S
H75 C48 0.930 . S
H76 C53 0.929 . S
H77 C54 0.931 . S
H78 C56 0.930 . S
H79 C57 0.930 . S
Tb80 C82 2.809 . S
Tb80 O100 2.484 . S
Tb80 O101 2.440 . S
Tb80 O102 2.658 . S
Tb80 O103 2.409 . S
Tb80 O104 2.378 . S
Tb80 O108 2.325 . S
Tb80 O111 2.341 . S
Tb81 C91 2.809 . S
Tb81 O102 2.325 . S
Tb81 O105 2.341 . S
Tb81 O106 2.484 . S
Tb81 O107 2.440 . S
Tb81 O108 2.658 . S
Tb81 O109 2.409 . S
Tb81 O110 2.378 . S
C82 Tb80 2.809 . S
C82 C83 1.514 1_655 S
C82 O100 1.248 . S
C82 O101 1.266 . S
C83 C82 1.514 1_455 S
C83 C84 1.359 . S
C83 C88 1.348 . S
C84 C83 1.359 . S
C84 C85 1.380 . S
C84 H112 0.929 . S
C85 C84 1.380 . S
C85 C86 1.347 . S
C85 H113 0.931 . S
C86 C85 1.347 . S
C86 C87 1.369 . S
C87 C86 1.369 . S
C87 C88 1.408 . S
C87 H114 0.930 . S
C88 C83 1.348 . S
C88 C87 1.408 . S
C88 H115 0.930 . S
C89 O102 1.281 . S
C89 O103 1.254 . S
C90 O104 1.236 . S
C90 O105 1.266 . S
C91 Tb81 2.809 . S
C91 C92 1.514 . S
C91 O106 1.248 . S
C91 O107 1.266 . S
C92 C91 1.514 . S
C92 C93 1.359 . S
C92 C97 1.348 . S
C93 C92 1.359 . S
C93 C94 1.380 . S
C93 H116 0.929 . S
C94 C93 1.380 . S
C94 C95 1.347 . S
C94 H117 0.931 . S
C95 C94 1.347 . S
C95 C96 1.369 . S
C96 C95 1.369 . S
C96 C97 1.408 . S
C96 H118 0.930 . S
C97 C92 1.348 . S
C97 C96 1.408 . S
C97 H119 0.930 . S
C98 O108 1.281 . S
C98 O109 1.254 . S
C99 O110 1.236 . S
C99 O111 1.266 . S
O100 Tb80 2.484 . S
O100 C82 1.248 . S
O101 Tb80 2.440 . S
O101 C82 1.266 . S
O102 Tb80 2.658 . S
O102 Tb81 2.325 . S
O102 C89 1.281 . S
O103 Tb80 2.409 . S
O103 C89 1.254 . S
O104 Tb80 2.378 . S
O104 C90 1.236 . S
O105 Tb81 2.341 . S
O105 C90 1.266 . S
O106 Tb81 2.484 . S
O106 C91 1.248 . S
O107 Tb81 2.440 . S
O107 C91 1.266 . S
O108 Tb80 2.325 . S
O108 Tb81 2.658 . S
O108 C98 1.281 . S
O109 Tb81 2.409 . S
O109 C98 1.254 . S
O110 Tb81 2.378 . S
O110 C99 1.236 . S
O111 Tb80 2.341 . S
O111 C99 1.266 . S
H112 C84 0.929 . S
H113 C85 0.931 . S
H114 C87 0.930 . S
H115 C88 0.930 . S
H116 C93 0.929 . S
H117 C94 0.931 . S
H118 C96 0.930 . S
H119 C97 0.930 . S
Tb120 C122 2.809 . S
Tb120 O140 2.484 . S
Tb120 O141 2.440 . S
Tb120 O142 2.658 . S
Tb120 O143 2.409 . S
Tb120 O144 2.378 . S
Tb120 O148 2.325 . S
Tb120 O151 2.341 . S
Tb121 C131 2.809 . S
Tb121 O142 2.325 . S
Tb121 O145 2.341 . S
Tb121 O146 2.484 . S
Tb121 O147 2.440 . S
Tb121 O148 2.658 . S
Tb121 O149 2.409 . S
Tb121 O150 2.378 . S
C122 Tb120 2.809 . S
C122 C123 1.514 . S
C122 O140 1.248 . S
C122 O141 1.266 . S
C123 C122 1.514 . S
C123 C124 1.359 . S
C123 C128 1.348 . S
C124 C123 1.359 . S
C124 C125 1.380 . S
C124 H152 0.929 . S
C125 C124 1.380 . S
C125 C126 1.347 . S
C125 H153 0.931 . S
C126 C125 1.347 . S
C126 C127 1.369 . S
C127 C126 1.369 . S
C127 C128 1.408 . S
C127 H154 0.930 . S
C128 C123 1.348 . S
C128 C127 1.408 . S
C128 H155 0.930 . S
C129 O142 1.281 . S
C129 O143 1.254 . S
C130 O144 1.236 . S
C130 O145 1.266 . S
C131 Tb121 2.809 . S
C131 C132 1.514 . S
C131 O146 1.248 . S
C131 O147 1.266 . S
C132 C131 1.514 . S
C132 C133 1.359 . S
C132 C137 1.348 . S
C133 C132 1.359 . S
C133 C134 1.380 . S
C133 H156 0.929 . S
C134 C133 1.380 . S
C134 C135 1.347 . S
C134 H157 0.931 . S
C135 C134 1.347 . S
C135 C136 1.369 . S
C136 C135 1.369 . S
C136 C137 1.408 . S
C136 H158 0.930 . S
C137 C132 1.348 . S
C137 C136 1.408 . S
C137 H159 0.930 . S
C138 O148 1.281 . S
C138 O149 1.254 . S
C139 O150 1.236 . S
C139 O151 1.266 . S
O140 Tb120 2.484 . S
O140 C122 1.248 . S
O141 Tb120 2.440 . S
O141 C122 1.266 . S
O142 Tb120 2.658 . S
O142 Tb121 2.325 . S
O142 C129 1.281 . S
O143 Tb120 2.409 . S
O143 C129 1.254 . S
O144 Tb120 2.378 . S
O144 C130 1.236 . S
O145 Tb121 2.341 . S
O145 C130 1.266 . S
O146 Tb121 2.484 . S
O146 C131 1.248 . S
O147 Tb121 2.440 . S
O147 C131 1.266 . S
O148 Tb120 2.325 . S
O148 Tb121 2.658 . S
O148 C138 1.281 . S
O149 Tb121 2.409 . S
O149 C138 1.254 . S
O150 Tb121 2.378 . S
O150 C139 1.236 . S
O151 Tb120 2.341 . S
O151 C139 1.266 . S
H152 C124 0.929 . S
H153 C125 0.931 . S
H154 C127 0.930 . S
H155 C128 0.930 . S
H156 C133 0.929 . S
H157 C134 0.931 . S
H158 C136 0.930 . S
H159 C137 0.930 . S
Tb160 C162 2.809 . S
Tb160 O180 2.484 . S
Tb160 O181 2.440 . S
Tb160 O182 2.658 . S
Tb160 O183 2.409 . S
Tb160 O184 2.378 . S
Tb160 O188 2.325 . S
Tb160 O191 2.341 . S
Tb161 C171 2.809 . S
Tb161 O182 2.325 . S
Tb161 O185 2.341 . S
Tb161 O186 2.484 . S
Tb161 O187 2.440 . S
Tb161 O188 2.658 . S
Tb161 O189 2.409 . S
Tb161 O190 2.378 . S
C162 Tb160 2.809 . S
C162 C163 1.514 . S
C162 O180 1.248 . S
C162 O181 1.266 . S
C163 C162 1.514 . S
C163 C164 1.359 . S
C163 C168 1.348 . S
C164 C163 1.359 . S
C164 C165 1.380 . S
C164 H192 0.929 . S
C165 C164 1.380 . S
C165 C166 1.347 . S
C165 H193 0.931 . S
C166 C165 1.347 . S
C166 C167 1.369 . S
C167 C166 1.369 . S
C167 C168 1.408 . S
C167 H194 0.930 . S
C168 C163 1.348 . S
C168 C167 1.408 . S
C168 H195 0.930 . S
C169 O182 1.281 . S
C169 O183 1.254 . S
C170 O184 1.236 . S
C170 O185 1.266 . S
C171 Tb161 2.809 . S
C171 C172 1.514 . S
C171 O186 1.248 . S
C171 O187 1.266 . S
C172 C171 1.514 . S
C172 C173 1.359 . S
C172 C177 1.348 . S
C173 C172 1.359 . S
C173 C174 1.380 . S
C173 H196 0.929 . S
C174 C173 1.380 . S
C174 C175 1.347 . S
C174 H197 0.931 . S
C175 C174 1.347 . S
C175 C176 1.369 . S
C176 C175 1.369 . S
C176 C177 1.408 . S
C176 H198 0.930 . S
C177 C172 1.348 . S
C177 C176 1.408 . S
C177 H199 0.930 . S
C178 O188 1.281 . S
C178 O189 1.254 . S
C179 O190 1.236 . S
C179 O191 1.266 . S
O180 Tb160 2.484 . S
O180 C162 1.248 . S
O181 Tb160 2.440 . S
O181 C162 1.266 . S
O182 Tb160 2.658 . S
O182 Tb161 2.325 . S
O182 C169 1.281 . S
O183 Tb160 2.409 . S
O183 C169 1.254 . S
O184 Tb160 2.378 . S
O184 C170 1.236 . S
O185 Tb161 2.341 . S
O185 C170 1.266 . S
O186 Tb161 2.484 . S
O186 C171 1.248 . S
O187 Tb161 2.440 . S
O187 C171 1.266 . S
O188 Tb160 2.325 . S
O188 Tb161 2.658 . S
O188 C178 1.281 . S
O189 Tb161 2.409 . S
O189 C178 1.254 . S
O190 Tb161 2.378 . S
O190 C179 1.236 . S
O191 Tb160 2.341 . S
O191 C179 1.266 . S
H192 C164 0.929 . S
H193 C165 0.931 . S
H194 C167 0.930 . S
H195 C168 0.930 . S
H196 C173 0.929 . S
H197 C174 0.931 . S
H198 C176 0.930 . S
H199 C177 0.930 . S
Tb200 C202 2.809 . S
Tb200 O220 2.484 . S
Tb200 O221 2.440 . S
Tb200 O222 2.658 . S
Tb200 O223 2.409 . S
Tb200 O224 2.378 . S
Tb200 O228 2.325 . S
Tb200 O231 2.341 . S
Tb201 C211 2.809 . S
Tb201 O222 2.325 . S
Tb201 O225 2.341 . S
Tb201 O226 2.484 . S
Tb201 O227 2.440 . S
Tb201 O228 2.658 . S
Tb201 O229 2.409 . S
Tb201 O230 2.378 . S
C202 Tb200 2.809 . S
C202 C203 1.514 . S
C202 O220 1.248 . S
C202 O221 1.266 . S
C203 C202 1.514 . S
C203 C204 1.359 . S
C203 C208 1.348 . S
C204 C203 1.359 . S
C204 C205 1.380 . S
C204 H232 0.929 . S
C205 C204 1.380 . S
C205 C206 1.347 . S
C205 H233 0.931 . S
C206 C205 1.347 . S
C206 C207 1.369 . S
C207 C206 1.369 . S
C207 C208 1.408 . S
C207 H234 0.930 . S
C208 C203 1.348 . S
C208 C207 1.408 . S
C208 H235 0.930 . S
C209 O222 1.281 . S
C209 O223 1.254 . S
C210 O224 1.236 . S
C210 O225 1.266 . S
C211 Tb201 2.809 . S
C211 C212 1.514 . S
C211 O226 1.248 . S
C211 O227 1.266 . S
C212 C211 1.514 . S
C212 C213 1.359 . S
C212 C217 1.348 . S
C213 C212 1.359 . S
C213 C214 1.380 . S
C213 H236 0.929 . S
C214 C213 1.380 . S
C214 C215 1.347 . S
C214 H237 0.931 . S
C215 C214 1.347 . S
C215 C216 1.369 . S
C216 C215 1.369 . S
C216 C217 1.408 . S
C216 H238 0.930 . S
C217 C212 1.348 . S
C217 C216 1.408 . S
C217 H239 0.930 . S
C218 O228 1.281 . S
C218 O229 1.254 . S
C219 O230 1.236 . S
C219 O231 1.266 . S
O220 Tb200 2.484 . S
O220 C202 1.248 . S
O221 Tb200 2.440 . S
O221 C202 1.266 . S
O222 Tb200 2.658 . S
O222 Tb201 2.325 . S
O222 C209 1.281 . S
O223 Tb200 2.409 . S
O223 C209 1.254 . S
O224 Tb200 2.378 . S
O224 C210 1.236 . S
O225 Tb201 2.341 . S
O225 C210 1.266 . S
O226 Tb201 2.484 . S
O226 C211 1.248 . S
O227 Tb201 2.440 . S
O227 C211 1.266 . S
O228 Tb200 2.325 . S
O228 Tb201 2.658 . S
O228 C218 1.281 . S
O229 Tb201 2.409 . S
O229 C218 1.254 . S
O230 Tb201 2.378 . S
O230 C219 1.236 . S
O231 Tb200 2.341 . S
O231 C219 1.266 . S
H232 C204 0.929 . S
H233 C205 0.931 . S
H234 C207 0.930 . S
H235 C208 0.930 . S
H236 C213 0.929 . S
H237 C214 0.931 . S
H238 C216 0.930 . S
H239 C217 0.930 . S
H240 C248 0.929 . S
H241 C250 0.930 . S
H242 C252 0.930 . S
H243 C255 0.929 . S
H244 C258 0.930 . S
H245 C260 0.960 . S
H246 C260 0.960 . S
H247 C260 0.960 . S
C248 H240 0.929 . S
C248 C249 1.377 . S
C248 C250 1.384 . S
C249 C248 1.377 . S
C249 C255 1.390 . S
C250 H241 0.930 . S
C250 C248 1.384 . S
C250 C251 1.372 . S
C251 C250 1.372 . S
C251 C252 1.400 . S
C251 C256 1.490 . S
C252 H242 0.930 . S
C252 C251 1.400 . S
C252 C255 1.386 . S
H253 C269 0.930 . S
H254 C270 0.931 . S
C255 H243 0.929 . S
C255 C249 1.390 . S
C255 C252 1.386 . S
C256 C251 1.490 . S
C256 C258 1.395 1_565 S
C256 C259 1.403 1_556 S
H257 C263 0.930 . S
C258 H244 0.930 . S
C258 C256 1.395 1_545 S
C258 C261 1.403 . S
C259 C256 1.403 1_554 S
C259 C260 1.524 . S
C259 C263 1.400 . S
C260 H245 0.960 . S
C260 H246 0.960 . S
C260 H247 0.960 . S
C260 C259 1.524 . S
C261 C258 1.403 . S
C261 C262 1.392 1_556 S
C261 C265 1.495 . S
C262 C261 1.392 1_554 S
C262 C263 1.385 1_545 S
C262 C264 1.478 . S
C263 H257 0.930 . S
C263 C259 1.400 . S
C263 C262 1.385 1_565 S
C264 C262 1.478 . S
C264 C266 1.381 . S
C264 C270 1.383 . S
C265 C261 1.495 . S
C265 H271 0.959 . S
C265 H272 0.961 . S
C265 H273 0.960 . S
C266 C264 1.381 . S
C266 C267 1.394 . S
C266 H274 0.930 . S
C267 C266 1.394 . S
C267 C268 1.383 . S
C267 H275 0.929 . S
C268 C267 1.383 . S
C268 C269 1.377 . S
C269 H253 0.930 . S
C269 C268 1.377 . S
C269 C270 1.379 . S
C270 H254 0.931 . S
C270 C264 1.383 . S
C270 C269 1.379 . S
H271 C265 0.959 . S
H272 C265 0.961 . S
H273 C265 0.960 . S
H274 C266 0.930 . S
H275 C267 0.929 . S
H276 C284 0.929 . S
H277 C286 0.930 . S
H278 C288 0.930 . S
H279 C291 0.929 . S
H280 C294 0.930 . S
H281 C296 0.960 . S
H282 C296 0.960 . S
H283 C296 0.960 . S
C284 H276 0.929 . S
C284 C285 1.377 . S
C284 C286 1.384 . S
C285 C284 1.377 . S
C285 C291 1.390 . S
C286 H277 0.930 . S
C286 C284 1.384 . S
C286 C287 1.372 . S
C287 C286 1.372 . S
C287 C288 1.400 . S
C287 C292 1.490 . S
C288 H278 0.930 . S
C288 C287 1.400 . S
C288 C291 1.386 . S
H289 C305 0.930 . S
H290 C306 0.931 . S
C291 H279 0.929 . S
C291 C285 1.390 . S
C291 C288 1.386 . S
C292 C287 1.490 . S
C292 C294 1.395 . S
C292 C295 1.403 . S
H293 C299 0.930 . S
C294 H280 0.930 . S
C294 C292 1.395 . S
C294 C297 1.403 . S
C295 C292 1.403 . S
C295 C296 1.524 . S
C295 C299 1.400 . S
C296 H281 0.960 . S
C296 H282 0.960 . S
C296 H283 0.960 . S
C296 C295 1.524 . S
C297 C294 1.403 . S
C297 C298 1.392 . S
C297 C301 1.495 . S
C298 C297 1.392 . S
C298 C299 1.385 . S
C298 C300 1.478 . S
C299 H293 0.930 . S
C299 C295 1.400 . S
C299 C298 1.385 . S
C300 C298 1.478 . S
C300 C302 1.381 . S
C300 C306 1.383 . S
C301 C297 1.495 . S
C301 H307 0.959 . S
C301 H308 0.961 . S
C301 H309 0.960 . S
C302 C300 1.381 . S
C302 C303 1.394 . S
C302 H310 0.930 . S
C303 C302 1.394 . S
C303 C304 1.383 . S
C303 H311 0.929 . S
C304 C303 1.383 . S
C304 C305 1.377 . S
C305 H289 0.930 . S
C305 C304 1.377 . S
C305 C306 1.379 . S
C306 H290 0.931 . S
C306 C300 1.383 . S
C306 C305 1.379 . S
H307 C301 0.959 . S
H308 C301 0.961 . S
H309 C301 0.960 . S
H310 C302 0.930 . S
H311 C303 0.929 . S
H312 C320 0.929 . S
H313 C322 0.930 . S
H314 C324 0.930 . S
H315 C327 0.929 . S
H316 C330 0.930 . S
H317 C332 0.960 . S
H318 C332 0.960 . S
H319 C332 0.960 . S
C320 H312 0.929 . S
C320 C321 1.377 . S
C320 C322 1.384 . S
C321 C320 1.377 . S
C321 C327 1.390 . S
C322 H313 0.930 . S
C322 C320 1.384 . S
C322 C323 1.372 . S
C323 C322 1.372 . S
C323 C324 1.400 . S
C323 C328 1.490 . S
C324 H314 0.930 . S
C324 C323 1.400 . S
C324 C327 1.386 . S
H325 C341 0.930 . S
H326 C342 0.931 . S
C327 H315 0.929 . S
C327 C321 1.390 . S
C327 C324 1.386 . S
C328 C323 1.490 . S
C328 C330 1.395 1_554 S
C328 C331 1.403 1_655 S
H329 C335 0.930 . S
C330 H316 0.930 . S
C330 C328 1.395 1_556 S
C330 C333 1.403 . S
C331 C328 1.403 1_455 S
C331 C332 1.524 . S
C331 C335 1.400 1_554 S
C332 H317 0.960 . S
C332 H318 0.960 . S
C332 H319 0.960 . S
C332 C331 1.524 . S
C333 C330 1.403 . S
C333 C334 1.392 1_655 S
C333 C337 1.495 . S
C334 C333 1.392 1_455 S
C334 C335 1.385 . S
C334 C336 1.478 . S
C335 H329 0.930 . S
C335 C331 1.400 1_556 S
C335 C334 1.385 . S
C336 C334 1.478 . S
C336 C338 1.381 . S
C336 C342 1.383 . S
C337 C333 1.495 . S
C337 H343 0.959 . S
C337 H344 0.961 . S
C337 H345 0.960 . S
C338 C336 1.381 . S
C338 C339 1.394 . S
C338 H346 0.930 . S
C339 C338 1.394 . S
C339 C340 1.383 . S
C339 H347 0.929 . S
C340 C339 1.383 . S
C340 C341 1.377 . S
C341 H325 0.930 . S
C341 C340 1.377 . S
C341 C342 1.379 . S
C342 H326 0.931 . S
C342 C336 1.383 . S
C342 C341 1.379 . S
H343 C337 0.959 . S
H344 C337 0.961 . S
H345 C337 0.960 . S
H346 C338 0.930 . S
H347 C339 0.929 . S
H348 C356 0.929 . S
H349 C358 0.930 . S
H350 C360 0.930 . S
H351 C363 0.929 . S
H352 C366 0.930 . S
H353 C368 0.960 1_565 S
H354 C368 0.960 . S
H355 C368 0.952 1_565 S
C356 H348 0.929 . S
C356 C357 1.377 . S
C356 C358 1.384 . S
C357 C356 1.377 . S
C357 C363 1.390 . S
C358 H349 0.930 . S
C358 C356 1.384 . S
C358 C359 1.372 . S
C359 C358 1.372 . S
C359 C360 1.400 . S
C359 C364 1.490 . S
C360 H350 0.930 . S
C360 C359 1.400 . S
C360 C363 1.386 . S
H361 C377 0.930 . S
H362 C378 0.931 . S
C363 H351 0.929 . S
C363 C357 1.390 . S
C363 C360 1.386 . S
C364 C359 1.490 . S
C364 C366 1.395 . S
C364 C367 1.403 . S
H365 C371 0.930 . S
C366 H352 0.930 . S
C366 C364 1.395 . S
C366 C369 1.403 1_545 S
C367 C364 1.403 . S
C367 C368 1.524 . S
C367 C371 1.400 1_545 S
C368 H353 0.960 1_545 S
C368 H354 0.960 . S
C368 H355 0.952 1_545 S
C368 C367 1.524 . S
C369 C366 1.403 1_565 S
C369 C370 1.392 . S
C369 C373 1.495 . S
C370 C369 1.392 . S
C370 C371 1.385 . S
C370 C372 1.478 . S
C371 H365 0.930 . S
C371 C367 1.400 1_565 S
C371 C370 1.385 . S
C372 C370 1.478 . S
C372 C374 1.381 . S
C372 C378 1.383 . S
C373 C369 1.495 . S
C373 H379 0.959 1_565 S
C373 H380 0.961 . S
C373 H381 0.959 1_565 S
C374 C372 1.381 . S
C374 C375 1.394 . S
C374 H382 0.930 . S
C375 C374 1.394 . S
C375 C376 1.383 . S
C375 H383 0.929 . S
C376 C375 1.383 . S
C376 C377 1.377 . S
C377 H361 0.930 . S
C377 C376 1.377 . S
C377 C378 1.379 . S
C378 H362 0.931 . S
C378 C372 1.383 . S
C378 C377 1.379 . S
H379 C373 0.959 1_545 S
H380 C373 0.961 . S
H381 C373 0.959 1_545 S
H382 C374 0.930 . S
H383 C375 0.929 . S
H384 C392 0.929 . S
H385 C394 0.930 . S
H386 C396 0.930 . S
H387 C399 0.929 . S
H388 C402 0.930 . S
H389 C404 0.960 . S
H390 C404 0.960 . S
H391 C404 0.960 . S
C392 H384 0.929 . S
C392 C393 1.377 . S
C392 C394 1.384 . S
C393 C392 1.377 . S
C393 C399 1.390 . S
C394 H385 0.930 . S
C394 C392 1.384 . S
C394 C395 1.372 . S
C395 C394 1.372 . S
C395 C396 1.400 . S
C395 C400 1.490 . S
C396 H386 0.930 . S
C396 C395 1.400 . S
C396 C399 1.386 . S
H397 C413 0.930 . S
H398 C414 0.931 . S
C399 H387 0.929 . S
C399 C393 1.390 . S
C399 C396 1.386 . S
C400 C395 1.490 . S
C400 C402 1.395 1_556 S
C400 C403 1.403 . S
H401 C407 0.930 . S
C402 H388 0.930 . S
C402 C400 1.395 1_554 S
C402 C405 1.403 . S
C403 C400 1.403 . S
C403 C404 1.524 . S
C403 C407 1.400 1_556 S
C404 H389 0.960 . S
C404 H390 0.960 . S
C404 H391 0.960 . S
C404 C403 1.524 . S
C405 C402 1.403 . S
C405 C406 1.392 . S
C405 C409 1.495 . S
C406 C405 1.392 . S
C406 C407 1.385 . S
C406 C408 1.478 . S
C407 H401 0.930 . S
C407 C403 1.400 1_554 S
C407 C406 1.385 . S
C408 C406 1.478 . S
C408 C410 1.381 . S
C408 C414 1.383 . S
C409 C405 1.495 . S
C409 H415 0.959 . S
C409 H416 0.961 . S
C409 H417 0.960 . S
C410 C408 1.381 . S
C410 C411 1.394 . S
C410 H418 0.930 . S
C411 C410 1.394 . S
C411 C412 1.383 . S
C411 H419 0.929 . S
C412 C411 1.383 . S
C412 C413 1.377 . S
C413 H397 0.930 . S
C413 C412 1.377 . S
C413 C414 1.379 . S
C414 H398 0.931 . S
C414 C408 1.383 . S
C414 C413 1.379 . S
H415 C409 0.959 . S
H416 C409 0.961 . S
H417 C409 0.960 . S
H418 C410 0.930 . S
H419 C411 0.929 . S
H420 C428 0.929 . S
H421 C430 0.930 . S
H422 C432 0.930 . S
H423 C435 0.929 . S
H424 C438 0.930 . S
H425 C440 0.960 . S
H426 C440 0.960 . S
H427 C440 0.960 . S
C428 H420 0.929 . S
C428 C429 1.377 . S
C428 C430 1.384 . S
C429 C428 1.377 . S
C429 C435 1.390 . S
C430 H421 0.930 . S
C430 C428 1.384 . S
C430 C431 1.372 . S
C431 C430 1.372 . S
C431 C432 1.400 . S
C431 C436 1.490 . S
C432 H422 0.930 . S
C432 C431 1.400 . S
C432 C435 1.386 . S
H433 C449 0.930 . S
H434 C450 0.931 . S
C435 H423 0.929 . S
C435 C429 1.390 . S
C435 C432 1.386 . S
C436 C431 1.490 . S
C436 C438 1.395 1_655 S
C436 C439 1.403 . S
H437 C443 0.930 . S
C438 H424 0.930 . S
C438 C436 1.395 1_455 S
C438 C441 1.403 . S
C439 C436 1.403 . S
C439 C440 1.524 . S
C439 C443 1.400 . S
C440 H425 0.960 . S
C440 H426 0.960 . S
C440 H427 0.960 . S
C440 C439 1.524 . S
C441 C438 1.403 . S
C441 C442 1.392 . S
C441 C445 1.495 . S
C442 C441 1.392 . S
C442 C443 1.385 1_455 S
C442 C444 1.478 . S
C443 H437 0.930 . S
C443 C439 1.400 . S
C443 C442 1.385 1_655 S
C444 C442 1.478 . S
C444 C446 1.381 . S
C444 C450 1.383 . S
C445 C441 1.495 . S
C445 H451 0.959 . S
C445 H452 0.961 . S
C445 H453 0.960 . S
C446 C444 1.381 . S
C446 C447 1.394 . S
C446 H454 0.930 . S
C447 C446 1.394 . S
C447 C448 1.383 . S
C447 H455 0.929 . S
C448 C447 1.383 . S
C448 C449 1.377 . S
C449 H433 0.930 . S
C449 C448 1.377 . S
C449 C450 1.379 . S
C450 H434 0.931 . S
C450 C444 1.383 . S
C450 C449 1.379 . S
H451 C445 0.959 . S
H452 C445 0.961 . S
H453 C445 0.960 . S
H454 C446 0.930 . S
H455 C447 0.929 . S
H456 C464 0.929 . S
H457 C466 0.930 . S
H458 C468 0.930 . S
H459 C471 0.929 . S
H460 C474 0.930 . S
H461 C476 0.960 . S
H462 C476 0.960 . S
H463 C476 0.960 . S
C464 H456 0.929 . S
C464 C465 1.377 . S
C464 C466 1.384 . S
C465 C464 1.377 . S
C465 C471 1.390 . S
C466 H457 0.930 . S
C466 C464 1.384 . S
C466 C467 1.372 . S
C467 C466 1.372 . S
C467 C468 1.400 . S
C467 C472 1.490 . S
C468 H458 0.930 . S
C468 C467 1.400 . S
C468 C471 1.386 . S
H469 C485 0.930 . S
H470 C486 0.931 . S
C471 H459 0.929 . S
C471 C465 1.390 . S
C471 C468 1.386 . S
C472 C467 1.490 . S
C472 C474 1.395 . S
C472 C475 1.403 . S
H473 C479 0.930 . S
C474 H460 0.930 . S
C474 C472 1.395 . S
C474 C477 1.403 . S
C475 C472 1.403 . S
C475 C476 1.524 . S
C475 C479 1.400 . S
C476 H461 0.960 . S
C476 H462 0.960 . S
C476 H463 0.960 . S
C476 C475 1.524 . S
C477 C474 1.403 . S
C477 C478 1.392 . S
C477 C481 1.495 . S
C478 C477 1.392 . S
C478 C479 1.385 . S
C478 C480 1.478 . S
C479 H473 0.930 . S
C479 C475 1.400 . S
C479 C478 1.385 . S
C480 C478 1.478 . S
C480 C482 1.381 . S
C480 C486 1.383 . S
C481 C477 1.495 . S
C481 H487 0.959 . S
C481 H488 0.961 . S
C481 H489 0.960 . S
C482 C480 1.381 . S
C482 C483 1.394 . S
C482 H490 0.930 . S
C483 C482 1.394 . S
C483 C484 1.383 . S
C483 H491 0.929 . S
C484 C483 1.383 . S
C484 C485 1.377 . S
C485 H469 0.930 . S
C485 C484 1.377 . S
C485 C486 1.379 . S
C486 H470 0.931 . S
C486 C480 1.383 . S
C486 C485 1.379 . S
H487 C481 0.959 . S
H488 C481 0.961 . S
H489 C481 0.960 . S
H490 C482 0.930 . S
H491 C483 0.929 . S
H492 C500 0.929 . S
H493 C502 0.930 . S
H494 C504 0.930 . S
H495 C507 0.929 . S
H496 C510 0.930 . S
H497 C512 0.960 . S
H498 C512 0.960 . S
H499 C512 0.960 . S
C500 H492 0.929 . S
C500 C501 1.377 . S
C500 C502 1.384 . S
C501 C500 1.377 . S
C501 C507 1.390 . S
C502 H493 0.930 . S
C502 C500 1.384 . S
C502 C503 1.372 . S
C503 C502 1.372 . S
C503 C504 1.400 . S
C503 C508 1.490 . S
C504 H494 0.930 . S
C504 C503 1.400 . S
C504 C507 1.386 . S
H505 C521 0.930 . S
H506 C522 0.931 . S
C507 H495 0.929 . S
C507 C501 1.390 . S
C507 C504 1.386 . S
C508 C503 1.490 . S
C508 C510 1.395 . S
C508 C511 1.403 . S
H509 C515 0.930 . S
C510 H496 0.930 . S
C510 C508 1.395 . S
C510 C513 1.403 . S
C511 C508 1.403 . S
C511 C512 1.524 . S
C511 C515 1.400 . S
C512 H497 0.960 . S
C512 H498 0.960 . S
C512 H499 0.960 . S
C512 C511 1.524 . S
C513 C510 1.403 . S
C513 C514 1.392 . S
C513 C517 1.495 . S
C514 C513 1.392 . S
C514 C515 1.385 . S
C514 C516 1.478 . S
C515 H509 0.930 . S
C515 C511 1.400 . S
C515 C514 1.385 . S
C516 C514 1.478 . S
C516 C518 1.381 . S
C516 C522 1.383 . S
C517 C513 1.495 . S
C517 H523 0.959 . S
C517 H524 0.961 . S
C517 H525 0.960 . S
C518 C516 1.381 . S
C518 C519 1.394 . S
C518 H526 0.930 . S
C519 C518 1.394 . S
C519 C520 1.383 . S
C519 H527 0.929 . S
C520 C519 1.383 . S
C520 C521 1.377 . S
C521 H505 0.930 . S
C521 C520 1.377 . S
C521 C522 1.379 . S
C522 H506 0.931 . S
C522 C516 1.383 . S
C522 C521 1.379 . S
H523 C517 0.959 . S
H524 C517 0.961 . S
H525 C517 0.960 . S
H526 C518 0.930 . S
H527 C519 0.929 . S
H528 C536 0.929 . S
H529 C538 0.930 . S
H530 C540 0.930 . S
H531 C543 0.929 . S
H532 C546 0.930 . S
H533 C548 0.960 . S
H534 C548 0.960 . S
H535 C548 0.960 . S
C536 H528 0.929 . S
C536 C537 1.377 . S
C536 C538 1.384 . S
C537 C536 1.377 . S
C537 C543 1.390 . S
C538 H529 0.930 . S
C538 C536 1.384 . S
C538 C539 1.372 . S
C539 C538 1.372 . S
C539 C540 1.400 . S
C539 C544 1.490 . S
C540 H530 0.930 . S
C540 C539 1.400 . S
C540 C543 1.386 . S
H541 C557 0.930 . S
H542 C558 0.931 . S
C543 H531 0.929 . S
C543 C537 1.390 . S
C543 C540 1.386 . S
C544 C539 1.490 . S
C544 C546 1.395 . S
C544 C547 1.403 . S
H545 C551 0.930 . S
C546 H532 0.930 . S
C546 C544 1.395 . S
C546 C549 1.403 . S
C547 C544 1.403 . S
C547 C548 1.524 . S
C547 C551 1.400 . S
C548 H533 0.960 . S
C548 H534 0.960 . S
C548 H535 0.960 . S
C548 C547 1.524 . S
C549 C546 1.403 . S
C549 C550 1.392 . S
C549 C553 1.495 . S
C550 C549 1.392 . S
C550 C551 1.385 . S
C550 C552 1.478 . S
C551 H545 0.930 . S
C551 C547 1.400 . S
C551 C550 1.385 . S
C552 C550 1.478 . S
C552 C554 1.381 . S
C552 C558 1.383 . S
C553 C549 1.495 . S
C553 H559 0.959 . S
C553 H560 0.961 . S
C553 H561 0.960 . S
C554 C552 1.381 . S
C554 C555 1.394 . S
C554 H562 0.930 . S
C555 C554 1.394 . S
C555 C556 1.383 . S
C555 H563 0.929 . S
C556 C555 1.383 . S
C556 C557 1.377 . S
C557 H541 0.930 . S
C557 C556 1.377 . S
C557 C558 1.379 . S
C558 H542 0.931 . S
C558 C552 1.383 . S
C558 C557 1.379 . S
H559 C553 0.959 . S
H560 C553 0.961 . S
H561 C553 0.960 . S
H562 C554 0.930 . S
H563 C555 0.929 . S
H564 C572 0.929 . S
H565 C574 0.930 . S
H566 C576 0.930 . S
H567 C579 0.929 . S
H568 C582 0.930 . S
H569 C584 0.960 . S
H570 C584 0.960 . S
H571 C584 0.960 . S
C572 H564 0.929 . S
C572 C573 1.377 . S
C572 C574 1.384 . S
C573 C572 1.377 . S
C573 C579 1.390 . S
C574 H565 0.930 . S
C574 C572 1.384 . S
C574 C575 1.372 . S
C575 C574 1.372 . S
C575 C576 1.400 . S
C575 C580 1.490 . S
C576 H566 0.930 . S
C576 C575 1.400 . S
C576 C579 1.386 . S
H577 C593 0.930 . S
H578 C594 0.931 . S
C579 H567 0.929 . S
C579 C573 1.390 . S
C579 C576 1.386 . S
C580 C575 1.490 . S
C580 C582 1.395 . S
C580 C583 1.403 . S
H581 C587 0.930 . S
C582 H568 0.930 . S
C582 C580 1.395 . S
C582 C585 1.403 . S
C583 C580 1.403 . S
C583 C584 1.524 . S
C583 C587 1.400 . S
C584 H569 0.960 . S
C584 H570 0.960 . S
C584 H571 0.960 . S
C584 C583 1.524 . S
C585 C582 1.403 . S
C585 C586 1.392 . S
C585 C589 1.495 . S
C586 C585 1.392 . S
C586 C587 1.385 . S
C586 C588 1.478 . S
C587 H581 0.930 . S
C587 C583 1.400 . S
C587 C586 1.385 . S
C588 C586 1.478 . S
C588 C590 1.381 . S
C588 C594 1.383 . S
C589 C585 1.495 . S
C589 H595 0.959 . S
C589 H596 0.961 . S
C589 H597 0.960 . S
C590 C588 1.381 . S
C590 C591 1.394 . S
C590 H598 0.930 . S
C591 C590 1.394 . S
C591 C592 1.383 . S
C591 H599 0.929 . S
C592 C591 1.383 . S
C592 C593 1.377 . S
C593 H577 0.930 . S
C593 C592 1.377 . S
C593 C594 1.379 . S
C594 H578 0.931 . S
C594 C588 1.383 . S
C594 C593 1.379 . S
H595 C589 0.959 . S
H596 C589 0.961 . S
H597 C589 0.960 . S
H598 C590 0.930 . S
H599 C591 0.929 . S
H600 C608 0.929 . S
H601 C610 0.930 . S
H602 C612 0.930 . S
H603 C615 0.929 . S
H604 C618 0.930 . S
H605 C620 0.960 . S
H606 C620 0.960 . S
H607 C620 0.960 . S
C608 H600 0.929 . S
C608 C609 1.377 . S
C608 C610 1.384 . S
C609 C608 1.377 . S
C609 C615 1.390 . S
C610 H601 0.930 . S
C610 C608 1.384 . S
C610 C611 1.372 . S
C611 C610 1.372 . S
C611 C612 1.400 . S
C611 C616 1.490 . S
C612 H602 0.930 . S
C612 C611 1.400 . S
C612 C615 1.386 . S
H613 C629 0.930 . S
H614 C630 0.931 . S
C615 H603 0.929 . S
C615 C609 1.390 . S
C615 C612 1.386 . S
C616 C611 1.490 . S
C616 C618 1.395 . S
C616 C619 1.403 . S
H617 C623 0.930 . S
C618 H604 0.930 . S
C618 C616 1.395 . S
C618 C621 1.403 . S
C619 C616 1.403 . S
C619 C620 1.524 . S
C619 C623 1.400 . S
C620 H605 0.960 . S
C620 H606 0.960 . S
C620 H607 0.960 . S
C620 C619 1.524 . S
C621 C618 1.403 . S
C621 C622 1.392 . S
C621 C625 1.495 . S
C622 C621 1.392 . S
C622 C623 1.385 . S
C622 C624 1.478 . S
C623 H617 0.930 . S
C623 C619 1.400 . S
C623 C622 1.385 . S
C624 C622 1.478 . S
C624 C626 1.381 . S
C624 C630 1.383 . S
C625 C621 1.495 . S
C625 H631 0.959 . S
C625 H632 0.961 . S
C625 H633 0.960 . S
C626 C624 1.381 . S
C626 C627 1.394 . S
C626 H634 0.930 . S
C627 C626 1.394 . S
C627 C628 1.383 . S
C627 H635 0.929 . S
C628 C627 1.383 . S
C628 C629 1.377 . S
C629 H613 0.930 . S
C629 C628 1.377 . S
C629 C630 1.379 . S
C630 H614 0.931 . S
C630 C624 1.383 . S
C630 C629 1.379 . S
H631 C625 0.959 . S
H632 C625 0.961 . S
H633 C625 0.960 . S
H634 C626 0.930 . S
H635 C627 0.929 . S
H636 C644 0.929 . S
H637 C646 0.930 . S
H638 C648 0.930 . S
H639 C651 0.929 . S
H640 C654 0.930 . S
H641 C656 0.960 . S
H642 C656 0.960 . S
H643 C656 0.960 . S
C644 H636 0.929 . S
C644 C645 1.377 . S
C644 C646 1.384 . S
C645 C644 1.377 . S
C645 C651 1.390 . S
C646 H637 0.930 . S
C646 C644 1.384 . S
C646 C647 1.372 . S
C647 C646 1.372 . S
C647 C648 1.400 . S
C647 C652 1.490 . S
C648 H638 0.930 . S
C648 C647 1.400 . S
C648 C651 1.386 . S
H649 C665 0.930 . S
H650 C666 0.931 . S
C651 H639 0.929 . S
C651 C645 1.390 . S
C651 C648 1.386 . S
C652 C647 1.490 . S
C652 C654 1.395 . S
C652 C655 1.403 . S
H653 C659 0.930 . S
C654 H640 0.930 . S
C654 C652 1.395 . S
C654 C657 1.403 . S
C655 C652 1.403 . S
C655 C656 1.524 . S
C655 C659 1.400 . S
C656 H641 0.960 . S
C656 H642 0.960 . S
C656 H643 0.960 . S
C656 C655 1.524 . S
C657 C654 1.403 . S
C657 C658 1.392 . S
C657 C661 1.495 . S
C658 C657 1.392 . S
C658 C659 1.385 . S
C658 C660 1.478 . S
C659 H653 0.930 . S
C659 C655 1.400 . S
C659 C658 1.385 . S
C660 C658 1.478 . S
C660 C662 1.381 . S
C660 C666 1.383 . S
C661 C657 1.495 . S
C661 H667 0.959 . S
C661 H668 0.961 . S
C661 H669 0.960 . S
C662 C660 1.381 . S
C662 C663 1.394 . S
C662 H670 0.930 . S
C663 C662 1.394 . S
C663 C664 1.383 . S
C663 H671 0.929 . S
C664 C663 1.383 . S
C664 C665 1.377 . S
C665 H649 0.930 . S
C665 C664 1.377 . S
C665 C666 1.379 . S
C666 H650 0.931 . S
C666 C660 1.383 . S
C666 C665 1.379 . S
H667 C661 0.959 . S
H668 C661 0.961 . S
H669 C661 0.960 . S
H670 C662 0.930 . S
H671 C663 0.929 . S
H672 C680 0.929 . S
H673 C682 0.930 . S
H674 C684 0.930 . S
H675 C687 0.929 . S
H676 C690 0.930 . S
H677 C692 0.960 . S
H678 C692 0.960 . S
H679 C692 0.960 . S
C680 H672 0.929 . S
C680 C681 1.377 . S
C680 C682 1.384 . S
C681 C680 1.377 . S
C681 C687 1.390 . S
C682 H673 0.930 . S
C682 C680 1.384 . S
C682 C683 1.372 . S
C683 C682 1.372 . S
C683 C684 1.400 . S
C683 C688 1.490 . S
C684 H674 0.930 . S
C684 C683 1.400 . S
C684 C687 1.386 . S
H685 C701 0.930 . S
H686 C702 0.931 . S
C687 H675 0.929 . S
C687 C681 1.390 . S
C687 C684 1.386 . S
C688 C683 1.490 . S
C688 C690 1.395 . S
C688 C691 1.403 . S
H689 C695 0.930 . S
C690 H676 0.930 . S
C690 C688 1.395 . S
C690 C693 1.403 . S
C691 C688 1.403 . S
C691 C692 1.524 . S
C691 C695 1.400 . S
C692 H677 0.960 . S
C692 H678 0.960 . S
C692 H679 0.960 . S
C692 C691 1.524 . S
C693 C690 1.403 . S
C693 C694 1.392 . S
C693 C697 1.495 . S
C694 C693 1.392 . S
C694 C695 1.385 . S
C694 C696 1.478 . S
C695 H689 0.930 . S
C695 C691 1.400 . S
C695 C694 1.385 . S
C696 C694 1.478 . S
C696 C698 1.381 . S
C696 C702 1.383 . S
C697 C693 1.495 . S
C697 H703 0.959 . S
C697 H704 0.961 . S
C697 H705 0.960 . S
C698 C696 1.381 . S
C698 C699 1.394 . S
C698 H706 0.930 . S
C699 C698 1.394 . S
C699 C700 1.383 . S
C699 H707 0.929 . S
C700 C699 1.383 . S
C700 C701 1.377 . S
C701 H685 0.930 . S
C701 C700 1.377 . S
C701 C702 1.379 . S
C702 H686 0.931 . S
C702 C696 1.383 . S
C702 C701 1.379 . S
H703 C697 0.959 . S
H704 C697 0.961 . S
H705 C697 0.960 . S
H706 C698 0.930 . S
H707 C699 0.929 . S
H708 C716 0.929 . S
H709 C718 0.930 . S
H710 C720 0.930 . S
H711 C723 0.929 . S
H712 C726 0.930 . S
H713 C728 0.960 . S
H714 C728 0.960 . S
H715 C728 0.960 . S
C716 H708 0.929 . S
C716 C717 1.377 . S
C716 C718 1.384 . S
C717 C716 1.377 . S
C717 C723 1.390 . S
C718 H709 0.930 . S
C718 C716 1.384 . S
C718 C719 1.372 . S
C719 C718 1.372 . S
C719 C720 1.400 . S
C719 C724 1.490 . S
C720 H710 0.930 . S
C720 C719 1.400 . S
C720 C723 1.386 . S
H721 C737 0.930 . S
H722 C738 0.931 . S
C723 H711 0.929 . S
C723 C717 1.390 . S
C723 C720 1.386 . S
C724 C719 1.490 . S
C724 C726 1.395 . S
C724 C727 1.403 . S
H725 C731 0.930 . S
C726 H712 0.930 . S
C726 C724 1.395 . S
C726 C729 1.403 1_655 S
C727 C724 1.403 . S
C727 C728 1.524 . S
C727 C731 1.400 1_655 S
C728 H713 0.960 . S
C728 H714 0.960 . S
C728 H715 0.960 . S
C728 C727 1.524 . S
C729 C726 1.403 1_455 S
C729 C730 1.392 . S
C729 C733 1.495 . S
C730 C729 1.392 . S
C730 C731 1.385 . S
C730 C732 1.478 . S
C731 H725 0.930 . S
C731 C727 1.400 1_455 S
C731 C730 1.385 . S
C732 C730 1.478 . S
C732 C734 1.381 . S
C732 C738 1.383 . S
C733 C729 1.495 . S
C733 H739 0.959 . S
C733 H740 0.961 . S
C733 H741 0.960 . S
C734 C732 1.381 . S
C734 C735 1.394 . S
C734 H742 0.930 . S
C735 C734 1.394 . S
C735 C736 1.383 . S
C735 H743 0.929 . S
C736 C735 1.383 . S
C736 C737 1.377 . S
C737 H721 0.930 . S
C737 C736 1.377 . S
C737 C738 1.379 . S
C738 H722 0.931 . S
C738 C732 1.383 . S
C738 C737 1.379 . S
H739 C733 0.959 . S
H740 C733 0.961 . S
H741 C733 0.960 . S
H742 C734 0.930 . S
H743 C735 0.929 . S
H744 C752 0.929 . S
H745 C754 0.930 . S
H746 C756 0.930 . S
H747 C759 0.929 . S
H748 C762 0.930 . S
H749 C764 0.960 . S
H750 C764 0.960 . S
H751 C764 0.960 . S
C752 H744 0.929 . S
C752 C753 1.377 . S
C752 C754 1.384 . S
C753 C752 1.377 . S
C753 C759 1.390 . S
C754 H745 0.930 . S
C754 C752 1.384 . S
C754 C755 1.372 . S
C755 C754 1.372 . S
C755 C756 1.400 . S
C755 C760 1.490 . S
C756 H746 0.930 . S
C756 C755 1.400 . S
C756 C759 1.386 . S
H757 C773 0.930 . S
H758 C774 0.931 . S
C759 H747 0.929 . S
C759 C753 1.390 . S
C759 C756 1.386 . S
C760 C755 1.490 . S
C760 C762 1.395 . S
C760 C763 1.403 . S
H761 C767 0.930 . S
C762 H748 0.930 . S
C762 C760 1.395 . S
C762 C765 1.403 . S
C763 C760 1.403 . S
C763 C764 1.524 . S
C763 C767 1.400 1_545 S
C764 H749 0.960 . S
C764 H750 0.960 . S
C764 H751 0.960 . S
C764 C763 1.524 . S
C765 C762 1.403 . S
C765 C766 1.392 1_545 S
C765 C769 1.495 1_545 S
C766 C765 1.392 1_565 S
C766 C767 1.385 . S
C766 C768 1.478 . S
C767 H761 0.930 . S
C767 C763 1.400 1_565 S
C767 C766 1.385 . S
C768 C766 1.478 . S
C768 C770 1.381 . S
C768 C774 1.383 . S
C769 C765 1.495 1_565 S
C769 H775 0.959 1_565 S
C769 H776 0.961 . S
C769 H777 0.960 . S
C770 C768 1.381 . S
C770 C771 1.394 . S
C770 H778 0.930 . S
C771 C770 1.394 . S
C771 C772 1.383 . S
C771 H779 0.929 . S
C772 C771 1.383 . S
C772 C773 1.377 . S
C773 H757 0.930 . S
C773 C772 1.377 . S
C773 C774 1.379 . S
C774 H758 0.931 . S
C774 C768 1.383 . S
C774 C773 1.379 . S
H775 C769 0.959 1_545 S
H776 C769 0.961 . S
H777 C769 0.960 . S
H778 C770 0.930 . S
H779 C771 0.929 . S
H780 C788 0.929 . S
H781 C790 0.930 . S
H782 C792 0.930 . S
H783 C795 0.929 . S
H784 C798 0.930 . S
H785 C800 0.960 1_565 S
H786 C800 0.960 . S
H787 C800 0.960 . S
C788 H780 0.929 . S
C788 C789 1.377 . S
C788 C790 1.384 . S
C789 C788 1.377 . S
C789 C795 1.390 . S
C790 H781 0.930 . S
C790 C788 1.384 . S
C790 C791 1.372 . S
C791 C790 1.372 . S
C791 C792 1.400 . S
C791 C796 1.490 . S
C792 H782 0.930 . S
C792 C791 1.400 . S
C792 C795 1.386 . S
H793 C809 0.930 . S
H794 C810 0.919 1_545 S
C795 H783 0.929 . S
C795 C789 1.390 . S
C795 C792 1.386 . S
C796 C791 1.490 . S
C796 C798 1.395 . S
C796 C799 1.403 . S
H797 C803 0.930 1_565 S
C798 H784 0.930 . S
C798 C796 1.395 . S
C798 C801 1.403 . S
C799 C796 1.403 . S
C799 C800 1.524 . S
C799 C803 1.400 . S
C800 H785 0.960 1_545 S
C800 H786 0.960 . S
C800 H787 0.960 . S
C800 C799 1.524 . S
C801 C798 1.403 . S
C801 C802 1.392 . S
C801 C805 1.495 . S
C802 C801 1.392 . S
C802 C803 1.385 . S
C802 C804 1.478 . S
C803 H797 0.930 1_545 S
C803 C799 1.400 . S
C803 C802 1.385 . S
C804 C802 1.478 . S
C804 C806 1.381 . S
C804 C810 1.371 1_545 S
C805 C801 1.495 . S
C805 H811 0.959 . S
C805 H812 0.961 . S
C805 H813 0.960 . S
C806 C804 1.381 . S
C806 C807 1.394 1_545 S
C806 H814 0.930 . S
C807 C806 1.394 1_565 S
C807 C808 1.383 . S
C807 H815 0.929 . S
C808 C807 1.383 . S
C808 C809 1.377 . S
C809 H793 0.930 . S
C809 C808 1.377 . S
C809 C810 1.404 . S
C810 H794 0.919 1_565 S
C810 C804 1.371 1_565 S
C810 C809 1.404 . S
H811 C805 0.959 . S
H812 C805 0.961 . S
H813 C805 0.960 . S
H814 C806 0.930 . S
H815 C807 0.929 . S
H816 C824 0.929 . S
H817 C826 0.930 . S
H818 C828 0.930 . S
H819 C831 0.929 . S
H820 C834 0.930 . S
H821 C836 0.960 . S
H822 C836 0.960 . S
H823 C836 0.960 . S
C824 H816 0.929 . S
C824 C825 1.377 . S
C824 C826 1.384 1_455 S
C825 C824 1.377 . S
C825 C831 1.390 . S
C826 H817 0.930 . S
C826 C824 1.384 1_655 S
C826 C827 1.372 . S
C827 C826 1.372 . S
C827 C828 1.400 . S
C827 C832 1.490 . S
C828 H818 0.930 . S
C828 C827 1.400 . S
C828 C831 1.386 1_655 S
H829 C845 0.930 . S
H830 C846 0.931 . S
C831 H819 0.929 . S
C831 C825 1.390 . S
C831 C828 1.386 1_455 S
C832 C827 1.490 . S
C832 C834 1.395 . S
C832 C835 1.403 . S
H833 C839 0.930 . S
C834 H820 0.930 . S
C834 C832 1.395 . S
C834 C837 1.403 . S
C835 C832 1.403 . S
C835 C836 1.524 . S
C835 C839 1.400 . S
C836 H821 0.960 . S
C836 H822 0.960 . S
C836 H823 0.960 . S
C836 C835 1.524 . S
C837 C834 1.403 . S
C837 C838 1.392 . S
C837 C841 1.495 . S
C838 C837 1.392 . S
C838 C839 1.385 . S
C838 C840 1.478 . S
C839 H833 0.930 . S
C839 C835 1.400 . S
C839 C838 1.385 . S
C840 C838 1.478 . S
C840 C842 1.381 . S
C840 C846 1.383 . S
C841 C837 1.495 . S
C841 H847 0.959 . S
C841 H848 0.961 . S
C841 H849 0.960 . S
C842 C840 1.381 . S
C842 C843 1.394 . S
C842 H850 0.930 . S
C843 C842 1.394 . S
C843 C844 1.383 . S
C843 H851 0.929 . S
C844 C843 1.383 . S
C844 C845 1.377 . S
C845 H829 0.930 . S
C845 C844 1.377 . S
C845 C846 1.379 . S
C846 H830 0.931 . S
C846 C840 1.383 . S
C846 C845 1.379 . S
H847 C841 0.959 . S
H848 C841 0.961 . S
H849 C841 0.960 . S
H850 C842 0.930 . S
H851 C843 0.929 . S
H852 C860 0.929 . S
H853 C862 0.930 . S
H854 C864 0.930 . S
H855 C867 0.932 1_655 S
H856 C870 0.930 . S
H857 C872 0.960 . S
H858 C872 0.960 . S
H859 C872 0.960 . S
C860 H852 0.929 . S
C860 C861 1.377 . S
C860 C862 1.384 . S
C861 C860 1.377 . S
C861 C867 1.387 . S
C862 H853 0.930 . S
C862 C860 1.384 . S
C862 C863 1.372 1_455 S
C863 C862 1.372 1_655 S
C863 C864 1.400 . S
C863 C868 1.490 . S
C864 H854 0.930 . S
C864 C863 1.400 . S
C864 C867 1.386 1_655 S
H865 C881 0.930 . S
H866 C882 0.931 . S
C867 H855 0.932 1_455 S
C867 C861 1.387 . S
C867 C864 1.386 1_455 S
C868 C863 1.490 . S
C868 C870 1.395 . S
C868 C871 1.403 . S
H869 C875 0.930 . S
C870 H856 0.930 . S
C870 C868 1.395 . S
C870 C873 1.403 . S
C871 C868 1.403 . S
C871 C872 1.524 . S
C871 C875 1.400 . S
C872 H857 0.960 . S
C872 H858 0.960 . S
C872 H859 0.960 . S
C872 C871 1.524 . S
C873 C870 1.403 . S
C873 C874 1.392 . S
C873 C877 1.495 . S
C874 C873 1.392 . S
C874 C875 1.385 . S
C874 C876 1.478 . S
C875 H869 0.930 . S
C875 C871 1.400 . S
C875 C874 1.385 . S
C876 C874 1.478 . S
C876 C878 1.381 . S
C876 C882 1.383 . S
C877 C873 1.495 . S
C877 H883 0.959 . S
C877 H884 0.961 . S
C877 H885 0.960 . S
C878 C876 1.381 . S
C878 C879 1.394 1_545 S
C878 H886 0.930 . S
C879 C878 1.394 1_565 S
C879 C880 1.383 . S
C879 H887 0.929 . S
C880 C879 1.383 . S
C880 C881 1.377 . S
C881 H865 0.930 . S
C881 C880 1.377 . S
C881 C882 1.379 1_565 S
C882 H866 0.931 . S
C882 C876 1.383 . S
C882 C881 1.379 1_545 S
H883 C877 0.959 . S
H884 C877 0.961 . S
H885 C877 0.960 . S
H886 C878 0.930 . S
H887 C879 0.929 . S
C249 C178 2.533 . S
C268 C9 2.267 . S
C285 C209 2.251 . S
C304 C58 2.521 . S
C321 C89 2.238 . S
C340 C138 2.520 . S
C357 C18 2.529 . S
C376 C169 2.258 . S
C393 C218 2.528 . S
C412 C49 2.209 . S
C429 C98 2.528 . S
C448 C129 2.276 . S
C465 C19 2.032 . S
C484 C95 1.966 . S
C501 C59 2.033 . S
C520 C15 1.972 . S
C537 C99 2.032 . S
C556 C55 1.966 . S
C573 C126 1.913 . S
C592 C170 1.861 . S
C609 C166 1.915 . S
C628 C210 1.883 . S
C645 C130 1.868 . S
C664 C206 1.911 . S
C681 C10 0.928 . S
C700 C86 0.952 . S
C717 C50 0.928 . S
C736 C6 0.952 . S
C753 C90 0.918 . S
C772 C46 0.918 . S
C789 C135 1.050 . S
C808 C179 1.087 . S
C825 C175 1.043 . S
C844 C219 1.054 . S
C861 C139 1.065 . S
C880 C215 1.039 . S
