# Generated by pormake.
# Topology yff, (5)-cn, num edge types: 1
# Building blocks:
#     Node 0, Type 0, BuildingBlock: XOMCOT_clean_sbu_1, # of connection points: 5
#     Node 1, Type 0, BuildingBlock: XOMCOT_clean_sbu_1, # of connection points: 5
#     Node 2, Type 0, BuildingBlock: XOMCOT_clean_sbu_1, # of connection points: 5
#     Node 3, Type 0, BuildingBlock: XOMCOT_clean_sbu_1, # of connection points: 5
#     Node 4, Type 0, BuildingBlock: XOMCOT_clean_sbu_1, # of connection points: 5
#     Node 5, Type 0, BuildingBlock: XOMCOT_clean_sbu_1, # of connection points: 5
#     Node 6, Type 0, BuildingBlock: XOMCOT_clean_sbu_1, # of connection points: 5
#     Node 7, Type 0, BuildingBlock: XOMCOT_clean_sbu_1, # of connection points: 5
#     Node 8, Type 0, BuildingBlock: XOMCOT_clean_sbu_1, # of connection points: 5
#     Node 9, Type 0, BuildingBlock: XOMCOT_clean_sbu_1, # of connection points: 5
#     Node 10, Type 0, BuildingBlock: XOMCOT_clean_sbu_1, # of connection points: 5
#     Node 11, Type 0, BuildingBlock: XOMCOT_clean_sbu_1, # of connection points: 5
#     Node 12, Type 0, BuildingBlock: XOMCOT_clean_sbu_1, # of connection points: 5
#     Node 13, Type 0, BuildingBlock: XOMCOT_clean_sbu_1, # of connection points: 5
#     Node 14, Type 0, BuildingBlock: XOMCOT_clean_sbu_1, # of connection points: 5
#     Node 15, Type 0, BuildingBlock: XOMCOT_clean_sbu_1, # of connection points: 5
#     Edge 16, Type (0, 0), None
#     Edge 17, Type (0, 0), None
#     Edge 18, Type (0, 0), None
#     Edge 19, Type (0, 0), None
#     Edge 20, Type (0, 0), None
#     Edge 21, Type (0, 0), None
#     Edge 22, Type (0, 0), None
#     Edge 23, Type (0, 0), None
#     Edge 24, Type (0, 0), None
#     Edge 25, Type (0, 0), None
#     Edge 26, Type (0, 0), None
#     Edge 27, Type (0, 0), None
#     Edge 28, Type (0, 0), None
#     Edge 29, Type (0, 0), None
#     Edge 30, Type (0, 0), None
#     Edge 31, Type (0, 0), None
#     Edge 32, Type (0, 0), None
#     Edge 33, Type (0, 0), None
#     Edge 34, Type (0, 0), None
#     Edge 35, Type (0, 0), None
#     Edge 36, Type (0, 0), None
#     Edge 37, Type (0, 0), None
#     Edge 38, Type (0, 0), None
#     Edge 39, Type (0, 0), None
#     Edge 40, Type (0, 0), None
#     Edge 41, Type (0, 0), None
#     Edge 42, Type (0, 0), None
#     Edge 43, Type (0, 0), None
#     Edge 44, Type (0, 0), None
#     Edge 45, Type (0, 0), None
#     Edge 46, Type (0, 0), None
#     Edge 47, Type (0, 0), None
#     Edge 48, Type (0, 0), None
#     Edge 49, Type (0, 0), None
#     Edge 50, Type (0, 0), None
#     Edge 51, Type (0, 0), None
#     Edge 52, Type (0, 0), None
#     Edge 53, Type (0, 0), None
#     Edge 54, Type (0, 0), None
#     Edge 55, Type (0, 0), None
# Relax obj value: 0.492
# Max RMSD: 0.343
# Mean RMSD: 0.325
data_MOF--net-yff--node1-XOMCOT_clean_sbu_1--edge1-none
_symmetry_space_group_name_H-M    P1
_symmetry_Int_Tables_number       1
_symmetry_cell_setting            triclinic
loop_
_symmetry_equiv_pos_as_xyz
'x, y, z'
_cell_length_a     34.223909
_cell_length_b     31.859108
_cell_length_c     13.214288
_cell_angle_alpha  89.473232
_cell_angle_beta   89.894002
_cell_angle_gamma 92.342685
loop_
_atom_site_label
_atom_site_type_symbol
_atom_site_fract_x
_atom_site_fract_y
_atom_site_fract_z
_atom_type_partial_charge
C0 C 0.03748 0.88011 0.50811 0.0
C1 C 0.01662 0.85713 0.43711 0.0
N2 N 0.00052 0.88461 0.3736 0.0
N3 N 0.03491 0.9215 0.48681 0.0
C4 C 0.01183 0.92322 0.40456 0.0
H5 H 0.05322 0.86757 0.57175 0.0
Co6 Co 0.05565 0.96614 0.56037 0.0
C7 C 0.09736 0.01004 0.37724 0.0
O8 O 0.13322 0.00643 0.41034 0.0
N9 N 0.07554 0.01076 0.64056 0.0
C10 C 0.11476 0.05741 0.71898 0.0
C11 C 0.10878 0.03489 0.63198 0.0
C12 C 0.06172 0.01954 0.73407 0.0
N13 N 0.08531 0.0476 0.78356 0.0
O14 O 0.00609 -0.00797 0.55561 0.0
H15 H 0.12921 0.03456 0.57064 0.0
H16 H 0.03587 0.00405 0.76686 0.0
O17 O 0.06823 -0.00367 0.4309 0.0
C18 C -0.02588 0.97544 0.58891 0.0
O19 O -0.02598 0.9391 0.63666 0.0
N20 N 0.10426 0.94009 0.56565 0.0
C21 C 0.18122 0.91374 0.57793 0.0
C22 C 0.16071 0.91316 0.48535 0.0
C23 C 0.12203 0.92529 0.48156 0.0
C24 C 0.12102 0.93478 0.65797 0.0
C25 C 0.1593 0.92151 0.66598 0.0
H26 H 0.10731 0.92566 0.40925 0.0
H27 H 0.1053 0.94266 0.7258 0.0
H28 H 0.00314 0.95208 0.36887 0.0
H29 H 0.01258 0.8233 0.43397 0.0
H30 H 0.13956 0.07858 0.73448 0.0
H31 H 0.1743 0.906 0.41426 0.0
H32 H 0.17147 0.9193 0.74098 0.0
C33 C 0.45338 0.12409 1.00122 0.0
C34 C 0.48218 0.13013 0.92903 0.0
N35 N 0.47864 0.098 0.86432 0.0
N36 N 0.43167 0.08883 0.97991 0.0
C37 C 0.44817 0.07333 0.89625 0.0
H38 H 0.44874 0.14392 1.06578 0.0
Co39 Co 0.38983 0.06646 1.05557 0.0
C40 C 0.33275 0.0582 0.8738 0.0
O41 O 0.30724 0.08459 0.90673 0.0
N42 N 0.34886 0.04417 0.13764 0.0
C43 C 0.29213 0.0306 0.21665 0.0
C44 C 0.30968 0.04696 0.1306 0.0
C45 C 0.35434 0.02634 0.2299 0.0
N46 N 0.32024 0.01792 0.27951 0.0
O47 O 0.41281 0.01251 1.05379 0.0
H48 H 0.29434 0.06202 1.0708 0.0
H49 H 0.38294 0.02099 0.26128 0.0
O50 O 0.36274 0.04992 0.92748 0.0
C51 C 0.4469 0.00603 0.0875 0.0
O52 O 0.46687 0.03633 0.13336 0.0
N53 N 0.36876 0.12004 1.05825 0.0
C54 C 0.35614 0.20628 1.06563 0.0
C55 C 0.35449 0.18434 0.97387 0.0
C56 C 0.36385 0.14251 0.97132 0.0
C57 C 0.36675 0.13938 0.14962 0.0
C58 C 0.36114 0.18267 0.15511 0.0
H59 H 0.36968 0.12915 0.89845 0.0
H60 H 0.37275 0.12195 0.21809 0.0
H61 H 0.43842 0.04436 0.86033 0.0
H62 H 0.50467 0.15501 0.9262 0.0
H63 H 0.26107 0.02946 0.23304 0.0
H64 H 0.34888 0.19955 0.90229 0.0
H65 H 0.36324 0.1974 0.22834 0.0
C66 C 0.36934 0.58311 0.50362 0.0
C67 C 0.38742 0.60752 0.42922 0.0
N68 N 0.40347 0.58128 0.36364 0.0
N69 N 0.37361 0.54208 0.48239 0.0
C70 C 0.39507 0.54205 0.39701 0.0
H71 H 0.35419 0.59441 0.56926 0.0
Co72 Co 0.3558 0.49598 0.55783 0.0
C73 C 0.31499 0.45107 0.37704 0.0
O74 O 0.27904 0.45349 0.4109 0.0
N75 N 0.33899 0.45004 0.63952 0.0
C76 C 0.30596 0.39706 0.7159 0.0
C77 C 0.30999 0.42044 0.62823 0.0
C78 C 0.35239 0.44365 0.73473 0.0
N79 N 0.33256 0.41178 0.78303 0.0
O80 O 0.40646 0.47398 0.55181 0.0
H81 H 0.29184 0.41634 0.5627 0.0
H82 H 0.37549 0.46296 0.76883 0.0
O83 O 0.34393 0.46528 0.42997 0.0
C84 C 0.43621 0.49342 0.58854 0.0
O85 O 0.43199 0.52824 0.63912 0.0
N86 N 0.30623 0.51874 0.56455 0.0
C87 C 0.22974 0.54551 0.57765 0.0
C88 C 0.25013 0.54657 0.48483 0.0
C89 C 0.28849 0.53411 0.4806 0.0
C90 C 0.28949 0.52312 0.65711 0.0
C91 C 0.25137 0.53665 0.66556 0.0
H92 H 0.30318 0.53444 0.40808 0.0
H93 H 0.30529 0.515 0.72478 0.0
H94 H 0.40474 0.51396 0.36069 0.0
H95 H 0.38982 0.64147 0.42525 0.0
H96 H 0.28483 0.37137 0.72936 0.0
H97 H 0.23676 0.55439 0.41372 0.0
H98 H 0.23916 0.5384 0.74064 0.0
C99 C 0.94646 0.34959 1.01642 0.0
C100 C 0.91717 0.34587 0.94515 0.0
N101 N 0.92413 0.37625 0.87566 0.0
N102 N -0.02826 0.38153 0.98938 0.0
C103 C -0.0431 0.3976 0.90378 0.0
H104 H 0.94927 0.33033 0.08366 0.0
Co105 Co 0.01613 0.4005 1.0589 0.0
C106 C 0.06994 0.4011 0.8728 0.0
O107 O 0.09197 0.37125 0.90675 0.0
N108 N 0.05905 0.42047 0.13543 0.0
C109 C 0.11662 0.43441 0.20858 0.0
C110 C 0.09817 0.41985 0.12233 0.0
C111 C 0.05455 0.436 0.22974 0.0
N112 N 0.0891 0.44446 0.27618 0.0
O113 O -0.00332 0.45592 1.05607 0.0
H114 H 0.11278 0.40856 1.05649 0.0
H115 H 0.02626 0.43982 0.26462 0.0
O116 O 0.04228 0.41447 0.92791 0.0
C117 C -0.03673 0.46501 0.08985 0.0
O118 O 0.94168 0.43654 0.13911 0.0
N119 N 0.03459 0.345 1.06058 0.0
C120 C 0.05135 0.25948 1.06485 0.0
C121 C 0.03708 0.2787 0.97707 0.0
C122 C 0.02954 0.32103 0.97612 0.0
C123 C 0.04799 0.3272 0.14761 0.0
C124 C 0.05737 0.28472 0.15079 0.0
H125 H 0.0182 0.33425 0.90711 0.0
H126 H 0.0506 0.34546 0.21593 0.0
H127 H -0.03045 0.4246 0.86349 0.0
H128 H 0.89226 0.32383 0.94583 0.0
H129 H 0.14791 0.43709 0.22071 0.0
H130 H 0.02977 0.26126 0.90949 0.0
H131 H 0.06829 0.27184 0.22075 0.0
C132 C 0.5412 0.09523 0.64911 0.0
C133 C 0.5209 0.11754 0.71952 0.0
N134 N 0.50415 0.08956 0.78452 0.0
N135 N 0.53764 0.05382 0.67235 0.0
C136 C 0.51454 0.05141 0.755 0.0
H137 H 0.55706 0.10818 0.58438 0.0
Co138 Co 0.55597 0.00889 0.60109 0.0
C139 C 0.59687 0.97033 0.7853 0.0
O140 O 0.63272 0.97659 0.75118 0.0
N141 N 0.57285 0.96366 0.52453 0.0
C142 C 0.60865 0.91605 0.45019 0.0
C143 C 0.60281 0.93787 0.53776 0.0
C144 C 0.56025 0.95599 0.42901 0.0
N145 N 0.58203 0.92766 0.38164 0.0
O146 O 0.50528 0.98176 0.60958 0.0
H147 H 0.62089 0.93617 0.60375 0.0
H148 H 0.53707 0.9728 0.39313 0.0
O149 O 0.56775 0.98086 0.73133 0.0
C150 C 0.47476 -0.00373 0.57015 0.0
O151 O 0.4774 0.0309 0.51545 0.0
N152 N 0.60633 0.03618 0.59131 0.0
C153 C 0.6861 0.05904 0.57856 0.0
C154 C 0.66419 0.06749 0.66616 0.0
C155 C 0.62445 0.0556 0.6711 0.0
C156 C 0.62484 0.03597 0.49998 0.0
C157 C 0.66478 0.04594 0.49241 0.0
H158 H 0.6091 0.05901 0.74198 0.0
H159 H 0.60941 0.02509 0.43339 0.0
H160 H 0.50494 0.02227 0.79174 0.0
H161 H 0.51752 0.15116 0.72094 0.0
H162 H 0.63119 0.89376 0.43756 0.0
H163 H 0.67739 0.08087 0.73321 0.0
H164 H 0.67839 0.04062 0.42029 0.0
C165 C 0.45054 0.62039 0.14021 0.0
C166 C 0.42137 0.62244 0.21175 0.0
N167 N 0.42757 0.59247 0.28119 0.0
N168 N 0.47504 0.58994 0.16716 0.0
C169 C 0.45984 0.57304 0.253 0.0
H170 H 0.45387 0.63981 1.07292 0.0
Co171 Co 0.51885 0.57401 0.09644 0.0
C172 C 0.57339 0.57479 0.28052 0.0
O173 O 0.59594 0.60634 0.24728 0.0
N174 N 0.56117 0.55724 1.01838 0.0
C175 C 0.61832 0.54822 0.94274 0.0
C176 C 0.60034 0.56133 1.02956 0.0
C177 C 0.55613 0.54125 0.92438 0.0
N178 N 0.59044 0.53569 0.87653 0.0
O179 O 0.49808 0.51746 0.09808 0.0
H180 H 0.61538 0.57417 0.09421 0.0
H181 H 0.52768 0.53496 0.89078 0.0
O182 O 0.54494 0.5605 0.22622 0.0
C183 C 0.46389 0.50673 1.06783 0.0
O184 O 0.44258 0.5341 1.02066 0.0
N185 N 0.53848 0.63057 0.09652 0.0
C186 C 0.55287 0.71798 0.09454 0.0
C187 C 0.54042 0.69635 0.18281 0.0
C188 C 0.53419 0.65324 0.18261 0.0
C189 C 0.55074 0.6504 1.00938 0.0
C190 C 0.55899 0.69394 1.00729 0.0
H191 H 0.52361 0.63833 0.25169 0.0
H192 H 0.55291 0.63289 0.94007 0.0
H193 H 0.47192 0.5469 0.29349 0.0
H194 H 0.39707 0.64315 0.21148 0.0
H195 H 0.64954 0.54824 0.9292 0.0
H196 H 0.53306 0.71208 0.25182 0.0
H197 H 0.5688 0.70843 0.93694 0.0
C198 C 0.86604 0.38397 0.65402 0.0
C199 C 0.88343 0.35996 0.72735 0.0
N200 N 0.89998 0.38658 0.79441 0.0
N201 N 0.87121 0.42507 0.67744 0.0
C202 C 0.89253 0.42558 0.76295 0.0
H203 H 0.85093 0.37236 0.58744 0.0
Co204 Co 0.85586 0.47154 0.60461 0.0
C205 C 0.81598 0.51148 0.78819 0.0
O206 O 0.78 0.50667 0.75449 0.0
N207 N 0.84202 0.51817 0.52641 0.0
C208 C 0.81091 0.56994 0.45158 0.0
C209 C 0.8145 0.54683 0.53944 0.0
C210 C 0.85529 0.5251 0.43076 0.0
N211 N 0.8364 0.556 0.38306 0.0
O212 O 0.90742 0.49494 0.61348 0.0
H213 H 0.79673 0.54988 0.60596 0.0
H214 H 0.87699 0.50625 0.39525 0.0
O215 O 0.84474 0.50011 0.73399 0.0
C216 C 0.93577 0.47763 0.57103 0.0
O217 O 0.92924 0.4443 0.5148 0.0
N218 N 0.8048 0.44744 0.59414 0.0
C219 C 0.72549 0.42438 0.57905 0.0
C220 C 0.74683 0.41513 0.66707 0.0
C221 C 0.7862 0.42759 0.67361 0.0
C222 C 0.78687 0.44858 0.50229 0.0
C223 C 0.74708 0.43855 0.49357 0.0
H224 H 0.80104 0.42357 0.74499 0.0
H225 H 0.80273 0.45973 0.43603 0.0
H226 H 0.90301 0.45393 0.80041 0.0
H227 H 0.88519 0.32612 0.7293 0.0
H228 H 0.79062 0.59463 0.43868 0.0
H229 H 0.73348 0.40064 0.73336 0.0
H230 H 0.7338 0.4445 0.4212 0.0
C231 C 0.94978 0.84744 0.15584 0.0
C232 C -0.02176 0.84312 0.22813 0.0
N233 N -0.02469 0.87505 0.2928 0.0
N234 N 0.92881 0.88138 0.17711 0.0
C235 C 0.94545 0.89789 0.2609 0.0
H236 H 0.9449 0.82734 0.09121 0.0
Co237 Co 0.8878 0.90094 0.10068 0.0
C238 C 0.82993 0.90831 0.28046 0.0
O239 O 0.80315 0.88128 0.24695 0.0
N240 N 0.84754 0.92021 1.01744 0.0
C241 C 0.7914 0.92697 0.9351 0.0
C242 C 0.80859 0.91157 1.02072 0.0
C243 C 0.85336 0.94003 0.92693 0.0
N244 N 0.81959 0.94444 0.87542 0.0
O245 O 0.91191 0.95631 0.1017 0.0
H246 H 0.7935 0.8922 1.07609 0.0
H247 H 0.88201 0.94956 0.89789 0.0
O248 O 0.8609 0.91671 0.22811 0.0
C249 C 0.94661 0.96488 1.07089 0.0
O250 O -0.03335 0.93574 1.02727 0.0
N251 N 0.86561 0.84605 0.09898 0.0
C252 C 0.85549 0.75858 0.09201 0.0
C253 C 0.85119 0.78037 0.18306 0.0
C254 C 0.85886 0.82343 0.18576 0.0
C255 C 0.86569 0.8263 1.00788 0.0
C256 C 0.86127 0.78246 1.00266 0.0
H257 H 0.86282 0.83763 0.2589 0.0
H258 H 0.87291 0.84419 0.93994 0.0
H259 H 0.93623 0.92622 0.29695 0.0
H260 H 0.0001 0.81953 0.23118 0.0
H261 H 0.76068 0.92353 0.91589 0.0
H262 H 0.84518 0.76425 0.25408 0.0
H263 H 0.86529 0.76771 0.93023 0.0
C264 C 0.87389 0.09141 0.65095 0.0
C265 C 0.89476 0.11439 0.72194 0.0
N266 N 0.91086 0.08691 0.78546 0.0
N267 N 0.87647 0.05002 0.67225 0.0
C268 C 0.89955 0.04831 0.75449 0.0
H269 H 0.85815 0.10395 0.58731 0.0
Co270 Co 0.85573 0.00538 0.59869 0.0
C271 C 0.81402 0.96148 0.78181 0.0
O272 O 0.77816 0.96508 0.74871 0.0
N273 N 0.83585 0.96076 0.5185 0.0
C274 C 0.79662 0.91411 0.44007 0.0
C275 C 0.8026 0.93663 0.52708 0.0
C276 C 0.84966 0.95198 0.42499 0.0
N277 N 0.82608 0.92393 0.37548 0.0
O278 O 0.90529 0.97949 0.60345 0.0
H279 H 0.78218 0.93695 0.58843 0.0
H280 H 0.87551 0.96747 0.3922 0.0
O281 O 0.84315 0.97519 0.72816 0.0
C282 C 0.93727 -0.00392 0.57015 0.0
O283 O 0.93737 0.03243 0.5224 0.0
N284 N 0.80712 0.03142 0.59341 0.0
C285 C 0.73015 0.05773 0.58113 0.0
C286 C 0.75066 0.05833 0.67371 0.0
C287 C 0.78934 0.04622 0.67749 0.0
C288 C 0.79035 0.03673 0.50109 0.0
C289 C 0.75206 0.04997 0.49308 0.0
H290 H 0.80407 0.04586 0.74979 0.0
H291 H 0.80607 0.02885 0.43325 0.0
H292 H 0.90824 0.01944 0.79018 0.0
H293 H 0.89879 0.14823 0.72509 0.0
H294 H 0.77182 0.89294 0.42457 0.0
H295 H 0.73706 0.06549 0.7448 0.0
H296 H 0.73989 0.05217 0.41809 0.0
C297 C 0.45799 0.84731 0.15787 0.0
C298 C 0.42919 0.84127 0.23006 0.0
N299 N 0.43273 0.87339 0.29477 0.0
N300 N 0.4797 0.88257 0.17919 0.0
C301 C 0.4632 0.89807 0.26285 0.0
H302 H 0.46263 0.82748 0.09331 0.0
Co303 Co 0.52154 0.90494 0.10353 0.0
C304 C 0.57863 0.9132 0.28529 0.0
O305 O 0.60414 0.88679 0.25238 0.0
N306 N 0.56251 0.92723 1.02145 0.0
C307 C 0.61925 0.94083 0.94247 0.0
C308 C 0.6017 0.92447 1.02852 0.0
C309 C 0.55703 0.94505 0.92919 0.0
N310 N 0.59113 0.95348 0.87958 0.0
O311 O 0.49856 0.95889 0.10532 0.0
H312 H 0.61703 0.90943 0.08835 0.0
H313 H 0.52843 0.95039 0.89779 0.0
O314 O 0.54864 0.92148 0.23162 0.0
C315 C 0.46447 0.96537 1.0716 0.0
O316 O 0.4445 0.93507 1.02574 0.0
N317 N 0.54261 0.85136 0.10084 0.0
C318 C 0.55522 0.76512 0.09345 0.0
C319 C 0.55688 0.78706 0.18522 0.0
C320 C 0.54752 0.82889 0.18777 0.0
C321 C 0.54463 0.83202 1.00947 0.0
C322 C 0.55023 0.78874 1.00397 0.0
H323 H 0.54169 0.84224 0.26064 0.0
H324 H 0.53863 0.84946 0.941 0.0
H325 H 0.47296 0.92704 0.29877 0.0
H326 H 0.4067 0.81639 0.23288 0.0
H327 H 0.6503 0.94198 0.9261 0.0
H328 H 0.56249 0.77185 0.2568 0.0
H329 H 0.54814 0.774 0.93074 0.0
C330 C 0.54205 0.38829 0.65545 0.0
C331 C 0.52397 0.36388 0.72985 0.0
N332 N 0.50791 0.39011 0.79541 0.0
N333 N 0.53778 0.42932 0.67668 0.0
C334 C 0.51631 0.42934 0.76205 0.0
H335 H 0.5572 0.37698 0.58981 0.0
Co336 Co 0.55559 0.47542 0.60123 0.0
C337 C 0.59639 0.52033 0.78201 0.0
O338 O 0.63234 0.51791 0.74815 0.0
N339 N 0.57238 0.52136 0.51953 0.0
C340 C 0.60541 0.57434 0.44316 0.0
C341 C 0.60139 0.55096 0.53083 0.0
C342 C 0.55899 0.52775 0.42433 0.0
N343 N 0.57882 0.55962 0.37604 0.0
O344 O 0.50492 0.49742 0.60725 0.0
H345 H 0.61954 0.55506 0.59636 0.0
H346 H 0.53589 0.50844 0.39023 0.0
O347 O 0.56745 0.50612 0.72908 0.0
C348 C 0.47517 0.47797 0.57053 0.0
O349 O 0.47939 0.44315 0.51995 0.0
N350 N 0.60515 0.45266 0.59451 0.0
C351 C 0.68166 0.42594 0.58142 0.0
C352 C 0.66127 0.42486 0.67423 0.0
C353 C 0.6229 0.4373 0.67845 0.0
C354 C 0.6219 0.44829 0.50195 0.0
C355 C 0.66002 0.43479 0.4935 0.0
H356 H 0.60821 0.43695 0.75097 0.0
H357 H 0.6061 0.45641 0.43427 0.0
H358 H 0.50664 0.45743 0.79836 0.0
H359 H 0.52157 0.32993 0.73382 0.0
H360 H 0.62655 0.60003 0.4297 0.0
H361 H 0.67463 0.41704 0.74534 0.0
H362 H 0.67224 0.43305 0.41842 0.0
C363 C -0.03507 0.62194 0.14266 0.0
C364 C -0.00578 0.62566 0.21393 0.0
N365 N -0.01274 0.59527 0.28342 0.0
N366 N 0.93965 0.59 0.16971 0.0
C367 C 0.95449 0.57393 0.2553 0.0
H368 H -0.03788 0.64119 1.07542 0.0
Co369 Co 0.89526 0.57103 0.10018 0.0
C370 C 0.84145 0.57042 0.28628 0.0
O371 O 0.81942 0.60028 0.25233 0.0
N372 N 0.85234 0.55105 1.02365 0.0
C373 C 0.79477 0.53711 0.9505 0.0
C374 C 0.81323 0.55167 1.03675 0.0
C375 C 0.85685 0.53553 0.92934 0.0
N376 N 0.82229 0.52706 0.8829 0.0
O377 O 0.91471 0.51561 0.10302 0.0
H378 H 0.79861 0.56296 0.10259 0.0
H379 H 0.88513 0.53171 0.89446 0.0
O380 O 0.86911 0.55706 0.23117 0.0
C381 C 0.94812 0.50652 1.06924 0.0
O382 O -0.03029 0.53499 1.01998 0.0
N383 N 0.8768 0.62652 0.0985 0.0
C384 C 0.86004 0.71204 0.09421 0.0
C385 C 0.87431 0.69283 0.182 0.0
C386 C 0.88185 0.65049 0.18295 0.0
C387 C 0.8634 0.64433 1.01146 0.0
C388 C 0.85402 0.6868 1.00828 0.0
H389 H 0.89319 0.63728 0.25196 0.0
H390 H 0.86078 0.62606 0.94314 0.0
H391 H 0.94184 0.54692 0.2956 0.0
H392 H 0.01913 0.6477 0.21325 0.0
H393 H 0.76348 0.53443 0.93837 0.0
H394 H 0.88161 0.71027 0.24958 0.0
H395 H 0.8431 0.69968 0.93832 0.0
C396 C 0.37016 0.87617 0.50997 0.0
C397 C 0.39046 0.85385 0.43957 0.0
N398 N 0.40722 0.88184 0.37457 0.0
N399 N 0.37373 0.91758 0.48674 0.0
C400 C 0.39683 0.91998 0.40409 0.0
H401 H 0.3543 0.86321 0.5747 0.0
Co402 Co 0.35541 0.9625 0.558 0.0
C403 C 0.3145 0.00107 0.3738 0.0
O404 O 0.27865 -0.00518 0.40793 0.0
N405 N 0.33853 0.00773 0.63456 0.0
C406 C 0.30273 0.05535 0.7089 0.0
C407 C 0.30857 0.03353 0.62134 0.0
C408 C 0.35112 0.01541 0.73008 0.0
N409 N 0.32935 0.04374 0.77745 0.0
O410 O 0.4061 -0.01037 0.5495 0.0
H411 H 0.29049 0.03524 0.55534 0.0
H412 H 0.37431 -0.00141 0.76596 0.0
O413 O 0.34362 -0.00946 0.42775 0.0
C414 C 0.43661 0.97513 0.58893 0.0
O415 O 0.43398 0.9405 0.64363 0.0
N416 N 0.30504 0.93522 0.56778 0.0
C417 C 0.22527 0.91241 0.58051 0.0
C418 C 0.24717 0.90394 0.49293 0.0
C419 C 0.28691 0.9158 0.48799 0.0
C420 C 0.28653 0.93544 0.65911 0.0
C421 C 0.24659 0.92549 0.66667 0.0
H422 H 0.30226 0.91239 0.41712 0.0
H423 H 0.30197 0.94631 0.7257 0.0
H424 H 0.40643 0.94913 0.36735 0.0
H425 H 0.39384 0.82023 0.43814 0.0
H426 H 0.28019 0.07764 0.72153 0.0
H427 H 0.23397 0.89056 0.42587 0.0
H428 H 0.23298 0.93082 0.73879 0.0
C429 C 0.46084 0.35101 1.01884 0.0
C430 C 0.49001 0.34895 0.9473 0.0
N431 N 0.48381 0.37893 0.87786 0.0
N432 N 0.43634 0.38146 0.99189 0.0
C433 C 0.45154 0.39835 0.90605 0.0
H434 H 0.45751 0.33159 0.08613 0.0
Co435 Co 0.39253 0.39739 1.06262 0.0
C436 C 0.33798 0.39661 0.87854 0.0
O437 O 0.31543 0.36506 0.91177 0.0
N438 N 0.35021 0.41416 0.14068 0.0
C439 C 0.29306 0.42318 0.21632 0.0
C440 C 0.31104 0.41007 0.1295 0.0
C441 C 0.35525 0.43015 0.23468 0.0
N442 N 0.32094 0.43571 0.28252 0.0
O443 O 0.4133 0.45394 1.06096 0.0
H444 H 0.296 0.39723 1.06484 0.0
H445 H 0.38371 0.43644 0.26828 0.0
O446 O 0.36644 0.4109 0.93283 0.0
C447 C 0.44749 0.46467 0.09121 0.0
O448 O 0.4688 0.43729 0.13838 0.0
N449 N 0.3729 0.34083 1.06254 0.0
C450 C 0.35851 0.25342 1.06454 0.0
C451 C 0.37095 0.27504 0.97626 0.0
C452 C 0.37719 0.31815 0.97645 0.0
C453 C 0.36064 0.321 0.14968 0.0
C454 C 0.35239 0.27746 0.15177 0.0
H455 H 0.38777 0.33306 0.90737 0.0
H456 H 0.35847 0.33852 0.21899 0.0
H457 H 0.43946 0.42449 0.86556 0.0
H458 H 0.51431 0.32825 0.94758 0.0
H459 H 0.26184 0.42316 0.22985 0.0
H460 H 0.37831 0.25931 0.90725 0.0
H461 H 0.34257 0.26298 0.22213 0.0
C462 C 0.04536 0.58756 0.50505 0.0
C463 C 0.02797 0.61157 0.43172 0.0
N464 N 0.01142 0.58495 0.36466 0.0
N465 N 0.04019 0.54646 0.48163 0.0
C466 C 0.01887 0.54595 0.39613 0.0
H467 H 0.06047 0.59917 0.57163 0.0
Co468 Co 0.05553 0.49998 0.55446 0.0
C469 C 0.09541 0.46004 0.37089 0.0
O470 O 0.13139 0.46485 0.40459 0.0
N471 N 0.06937 0.45335 0.63267 0.0
C472 C 0.10047 0.40158 0.70749 0.0
C473 C 0.09689 0.42469 0.61964 0.0
C474 C 0.0561 0.44643 0.72832 0.0
N475 N 0.07499 0.41553 0.77602 0.0
O476 O 0.00397 0.47659 0.54559 0.0
H477 H 0.11465 0.42164 0.55312 0.0
H478 H 0.0344 0.46528 0.76383 0.0
O479 O 0.06666 0.47141 0.42509 0.0
C480 C -0.02438 0.4939 0.58804 0.0
O481 O -0.01785 0.52723 0.64426 0.0
N482 N 0.1066 0.52408 0.56495 0.0
C483 C 0.18591 0.54709 0.58002 0.0
C484 C 0.16457 0.55637 0.49201 0.0
C485 C 0.1252 0.54393 0.48547 0.0
C486 C 0.12452 0.52293 0.65679 0.0
C487 C 0.16432 0.53294 0.66551 0.0
H488 H 0.11036 0.54795 0.4141 0.0
H489 H 0.10866 0.51178 0.72306 0.0
H490 H 0.00838 0.5176 0.35867 0.0
H491 H 0.02621 0.64541 0.42977 0.0
H492 H 0.12076 0.37689 0.72039 0.0
H493 H 0.17793 0.57085 0.42572 0.0
H494 H 0.1776 0.52698 0.73788 0.0
C495 C -0.0384 0.12409 1.0032 0.0
C496 C 0.93314 0.1284 0.93091 0.0
N497 N 0.93608 0.09647 0.86625 0.0
N498 N -0.01743 0.09014 0.98193 0.0
C499 C -0.03407 0.07364 0.89815 0.0
H500 H -0.03351 0.14418 1.06784 0.0
Co501 Co 0.02358 0.07059 1.05837 0.0
C502 C 0.08145 0.06322 0.87859 0.0
O503 O 0.10824 0.09025 0.91209 0.0
N504 N 0.06384 0.05131 0.14162 0.0
C505 C 0.11998 0.04455 0.22395 0.0
C506 C 0.10279 0.05994 0.13832 0.0
C507 C 0.05802 0.0315 0.23214 0.0
N508 N 0.09179 0.02709 0.28365 0.0
O509 O -0.00052 0.01521 1.05735 0.0
H510 H 0.11788 0.07929 0.08293 0.0
H511 H 0.02937 0.02197 0.26118 0.0
O512 O 0.05048 0.05482 0.93093 0.0
C513 C -0.03522 0.00665 0.08816 0.0
O514 O 0.94473 0.03578 0.13178 0.0
N515 N 0.04577 0.12548 1.06008 0.0
C516 C 0.05589 0.21294 1.06704 0.0
C517 C 0.06019 0.19115 0.976 0.0
C518 C 0.05252 0.1481 0.97329 0.0
C519 C 0.04569 0.14522 0.15118 0.0
C520 C 0.05012 0.18906 0.1564 0.0
H521 H 0.04856 0.13389 0.90016 0.0
H522 H 0.03847 0.12733 0.21912 0.0
H523 H -0.02485 0.04531 0.8621 0.0
H524 H 0.91128 0.15199 0.92787 0.0
H525 H 0.1507 0.04798 0.24315 0.0
H526 H 0.0662 0.20728 0.90497 0.0
H527 H 0.0461 0.20381 0.22883 0.0
loop_
_geom_bond_atom_site_label_1
_geom_bond_atom_site_label_2
_geom_bond_distance
_geom_bond_site_symmetry_2
_ccdc_geom_bond_type
C0 C1 1.351 . S
C0 N3 1.368 . S
C0 H5 0.931 . S
C1 C0 1.351 . S
C1 N2 1.373 . S
C1 H29 0.930 . S
N2 C1 1.373 . S
N2 C4 1.340 . S
N3 C0 1.368 . S
N3 C4 1.321 . S
N3 Co6 2.135 1_565 S
C4 N2 1.340 . S
C4 N3 1.321 . S
C4 H28 0.930 . S
H5 C0 0.931 . S
Co6 N3 2.135 1_545 S
Co6 N9 2.121 . S
Co6 O14 2.055 . S
Co6 O17 2.039 . S
Co6 N20 2.140 . S
C7 O8 1.227 . S
C7 O17 1.265 . S
O8 C7 1.227 . S
N9 Co6 2.121 . S
N9 C11 1.375 . S
N9 C12 1.313 . S
C10 C11 1.338 . S
C10 N13 1.377 . S
C10 H30 0.930 . S
C11 N9 1.375 . S
C11 C10 1.338 . S
C11 H15 0.931 . S
C12 N9 1.313 . S
C12 N13 1.344 . S
C12 H16 0.930 . S
N13 C10 1.377 . S
N13 C12 1.344 . S
O14 Co6 2.055 . S
O14 C18 1.253 1_545 S
H15 C11 0.931 . S
H16 C12 0.930 . S
O17 Co6 2.039 . S
O17 C7 1.265 . S
C18 O14 1.253 1_565 S
C18 O19 1.227 . S
O19 C18 1.227 . S
N20 Co6 2.140 . S
N20 C23 1.346 1_545 S
N20 C24 1.345 . S
C21 C22 1.387 . S
C21 C25 1.391 . S
C22 C21 1.387 . S
C22 C23 1.369 . S
C22 H31 0.929 . S
C23 N20 1.346 1_565 S
C23 C22 1.369 . S
C23 H26 0.928 . S
C24 N20 1.345 . S
C24 C25 1.371 1_545 S
C24 H27 0.931 . S
C25 C21 1.391 . S
C25 C24 1.371 1_565 S
C25 H32 0.930 . S
H26 C23 0.928 . S
H27 C24 0.931 . S
H28 C4 0.930 . S
H29 C1 0.930 . S
H30 C10 0.930 . S
H31 C22 0.929 . S
H32 C25 0.930 . S
C33 C34 1.351 . S
C33 N36 1.368 . S
C33 H38 0.931 . S
C34 C33 1.351 . S
C34 N35 1.373 . S
C34 H62 0.930 . S
N35 C34 1.373 . S
N35 C37 1.340 . S
N36 C33 1.368 . S
N36 C37 1.321 . S
N36 Co39 2.135 . S
C37 N35 1.340 . S
C37 N36 1.321 . S
C37 H61 0.930 . S
H38 C33 0.931 . S
Co39 N36 2.135 . S
Co39 N42 2.121 1_556 S
Co39 O47 2.055 1_556 S
Co39 O50 2.039 . S
Co39 N53 2.140 . S
C40 O41 1.227 . S
C40 O50 1.265 . S
O41 C40 1.227 . S
N42 Co39 2.121 1_554 S
N42 C44 1.375 . S
N42 C45 1.313 . S
C43 C44 1.338 . S
C43 N46 1.377 . S
C43 H63 0.930 . S
C44 N42 1.375 . S
C44 C43 1.338 . S
C44 H48 0.931 1_554 S
C45 N42 1.313 . S
C45 N46 1.344 . S
C45 H49 0.930 . S
N46 C43 1.377 . S
N46 C45 1.344 . S
O47 Co39 2.055 1_554 S
O47 C51 1.253 . S
H48 C44 0.931 1_556 S
H49 C45 0.930 . S
O50 Co39 2.039 . S
O50 C40 1.265 . S
C51 O47 1.253 . S
C51 O52 1.227 . S
O52 C51 1.227 . S
N53 Co39 2.140 . S
N53 C56 1.346 . S
N53 C57 1.345 1_556 S
C54 C55 1.387 1_554 S
C54 C58 1.391 . S
C55 C54 1.387 1_556 S
C55 C56 1.369 . S
C55 H64 0.929 . S
C56 N53 1.346 . S
C56 C55 1.369 . S
C56 H59 0.928 . S
C57 N53 1.345 1_554 S
C57 C58 1.371 . S
C57 H60 0.931 . S
C58 C54 1.391 . S
C58 C57 1.371 . S
C58 H65 0.930 . S
H59 C56 0.928 . S
H60 C57 0.931 . S
H61 C37 0.930 . S
H62 C34 0.930 . S
H63 C43 0.930 . S
H64 C55 0.929 . S
H65 C58 0.930 . S
C66 C67 1.351 . S
C66 N69 1.368 . S
C66 H71 0.931 . S
C67 C66 1.351 . S
C67 N68 1.373 . S
C67 H95 0.930 . S
N68 C67 1.373 . S
N68 C70 1.340 . S
N69 C66 1.368 . S
N69 C70 1.321 . S
N69 Co72 2.135 . S
C70 N68 1.340 . S
C70 N69 1.321 . S
C70 H94 0.930 . S
H71 C66 0.931 . S
Co72 N69 2.135 . S
Co72 N75 2.121 . S
Co72 O80 2.055 . S
Co72 O83 2.039 . S
Co72 N86 2.140 . S
C73 O74 1.227 . S
C73 O83 1.265 . S
O74 C73 1.227 . S
N75 Co72 2.121 . S
N75 C77 1.375 . S
N75 C78 1.313 . S
C76 C77 1.338 . S
C76 N79 1.377 . S
C76 H96 0.930 . S
C77 N75 1.375 . S
C77 C76 1.338 . S
C77 H81 0.931 . S
C78 N75 1.313 . S
C78 N79 1.344 . S
C78 H82 0.930 . S
N79 C76 1.377 . S
N79 C78 1.344 . S
O80 Co72 2.055 . S
O80 C84 1.253 . S
H81 C77 0.931 . S
H82 C78 0.930 . S
O83 Co72 2.039 . S
O83 C73 1.265 . S
C84 O80 1.253 . S
C84 O85 1.227 . S
O85 C84 1.227 . S
N86 Co72 2.140 . S
N86 C89 1.346 . S
N86 C90 1.345 . S
C87 C88 1.387 . S
C87 C91 1.391 . S
C88 C87 1.387 . S
C88 C89 1.369 . S
C88 H97 0.929 . S
C89 N86 1.346 . S
C89 C88 1.369 . S
C89 H92 0.928 . S
C90 N86 1.345 . S
C90 C91 1.371 . S
C90 H93 0.931 . S
C91 C87 1.391 . S
C91 C90 1.371 . S
C91 H98 0.930 . S
H92 C89 0.928 . S
H93 C90 0.931 . S
H94 C70 0.930 . S
H95 C67 0.930 . S
H96 C76 0.930 . S
H97 C88 0.929 . S
H98 C91 0.930 . S
C99 C100 1.351 . S
C99 N102 1.368 . S
C99 H104 0.931 . S
C100 C99 1.351 . S
C100 N101 1.373 . S
C100 H128 0.930 . S
N101 C100 1.373 . S
N101 C103 1.340 . S
N102 C99 1.368 . S
N102 C103 1.321 . S
N102 Co105 2.135 1_655 S
C103 N101 1.340 . S
C103 N102 1.321 . S
C103 H127 0.930 . S
H104 C99 0.931 . S
Co105 N102 2.135 1_455 S
Co105 N108 2.121 1_556 S
Co105 O113 2.055 1_456 S
Co105 O116 2.039 . S
Co105 N119 2.140 1_455 S
C106 O107 1.227 . S
C106 O116 1.265 . S
O107 C106 1.227 . S
N108 Co105 2.121 1_554 S
N108 C110 1.375 . S
N108 C111 1.313 . S
C109 C110 1.338 . S
C109 N112 1.377 . S
C109 H129 0.930 . S
C110 N108 1.375 . S
C110 C109 1.338 . S
C110 H114 0.931 1_554 S
C111 N108 1.313 . S
C111 N112 1.344 . S
C111 H115 0.930 . S
N112 C109 1.377 . S
N112 C111 1.344 . S
O113 Co105 2.055 1_654 S
O113 C117 1.253 . S
H114 C110 0.931 1_556 S
H115 C111 0.930 . S
O116 Co105 2.039 . S
O116 C106 1.265 . S
C117 O113 1.253 . S
C117 O118 1.227 . S
O118 C117 1.227 . S
N119 Co105 2.140 1_655 S
N119 C122 1.346 . S
N119 C123 1.345 1_556 S
C120 C121 1.387 1_554 S
C120 C124 1.391 . S
C121 C120 1.387 1_556 S
C121 C122 1.369 . S
C121 H130 0.929 . S
C122 N119 1.346 . S
C122 C121 1.369 . S
C122 H125 0.928 . S
C123 N119 1.345 1_554 S
C123 C124 1.371 . S
C123 H126 0.931 1_655 S
C124 C120 1.391 . S
C124 C123 1.371 . S
C124 H131 0.930 . S
H125 C122 0.928 . S
H126 C123 0.931 1_455 S
H127 C103 0.930 . S
H128 C100 0.930 . S
H129 C109 0.930 . S
H130 C121 0.929 . S
H131 C124 0.930 . S
C132 C133 1.351 . S
C132 N135 1.368 . S
C132 H137 0.931 . S
C133 C132 1.351 . S
C133 N134 1.373 . S
C133 H161 0.930 . S
N134 C133 1.373 . S
N134 C136 1.340 . S
N135 C132 1.368 . S
N135 C136 1.321 . S
N135 Co138 2.135 1_545 S
C136 N134 1.340 . S
C136 N135 1.321 . S
C136 H160 0.930 . S
H137 C132 0.931 . S
Co138 N135 2.135 1_565 S
Co138 N141 2.121 . S
Co138 O146 2.055 1_565 S
Co138 O149 2.039 . S
Co138 N152 2.140 1_565 S
C139 O140 1.227 . S
C139 O149 1.265 . S
O140 C139 1.227 . S
N141 Co138 2.121 . S
N141 C143 1.375 . S
N141 C144 1.313 . S
C142 C143 1.338 . S
C142 N145 1.377 . S
C142 H162 0.930 . S
C143 N141 1.375 . S
C143 C142 1.338 . S
C143 H147 0.931 . S
C144 N141 1.313 . S
C144 N145 1.344 . S
C144 H148 0.930 . S
N145 C142 1.377 . S
N145 C144 1.344 . S
O146 Co138 2.055 1_545 S
O146 C150 1.253 . S
H147 C143 0.931 . S
H148 C144 0.930 . S
O149 Co138 2.039 . S
O149 C139 1.265 . S
C150 O146 1.253 . S
C150 O151 1.227 . S
O151 C150 1.227 . S
N152 Co138 2.140 1_545 S
N152 C155 1.346 . S
N152 C156 1.345 . S
C153 C154 1.387 . S
C153 C157 1.391 . S
C154 C153 1.387 . S
C154 C155 1.369 . S
C154 H163 0.929 . S
C155 N152 1.346 . S
C155 C154 1.369 . S
C155 H158 0.928 . S
C156 N152 1.345 . S
C156 C157 1.371 . S
C156 H159 0.931 . S
C157 C153 1.391 . S
C157 C156 1.371 . S
C157 H164 0.930 . S
H158 C155 0.928 . S
H159 C156 0.931 . S
H160 C136 0.930 . S
H161 C133 0.930 . S
H162 C142 0.930 . S
H163 C154 0.929 . S
H164 C157 0.930 . S
C165 C166 1.351 . S
C165 N168 1.368 . S
C165 H170 0.931 . S
C166 C165 1.351 . S
C166 N167 1.373 . S
C166 H194 0.930 . S
N167 C166 1.373 . S
N167 C169 1.340 . S
N168 C165 1.368 . S
N168 C169 1.321 . S
N168 Co171 2.135 . S
C169 N167 1.340 . S
C169 N168 1.321 . S
C169 H193 0.930 . S
H170 C165 0.931 . S
Co171 N168 2.135 . S
Co171 N174 2.121 1_554 S
Co171 O179 2.055 1_554 S
Co171 O182 2.039 . S
Co171 N185 2.140 . S
C172 O173 1.227 . S
C172 O182 1.265 . S
O173 C172 1.227 . S
N174 Co171 2.121 1_556 S
N174 C176 1.375 . S
N174 C177 1.313 . S
C175 C176 1.338 . S
C175 N178 1.377 . S
C175 H195 0.930 . S
C176 N174 1.375 . S
C176 C175 1.338 . S
C176 H180 0.931 1_556 S
C177 N174 1.313 . S
C177 N178 1.344 . S
C177 H181 0.930 . S
N178 C175 1.377 . S
N178 C177 1.344 . S
O179 Co171 2.055 1_556 S
O179 C183 1.253 . S
H180 C176 0.931 1_554 S
H181 C177 0.930 . S
O182 Co171 2.039 . S
O182 C172 1.265 . S
C183 O179 1.253 . S
C183 O184 1.227 . S
O184 C183 1.227 . S
N185 Co171 2.140 . S
N185 C188 1.346 . S
N185 C189 1.345 1_554 S
C186 C187 1.382 1_556 S
C186 C190 1.395 . S
C187 C186 1.382 1_554 S
C187 C188 1.369 . S
C187 H196 0.929 . S
C188 N185 1.346 . S
C188 C187 1.369 . S
C188 H191 0.928 . S
C189 N185 1.345 1_556 S
C189 C190 1.371 . S
C189 H192 0.931 . S
C190 C186 1.395 . S
C190 C189 1.371 . S
C190 H197 0.930 . S
H191 C188 0.928 . S
H192 C189 0.931 . S
H193 C169 0.930 . S
H194 C166 0.930 . S
H195 C175 0.930 . S
H196 C187 0.929 . S
H197 C190 0.930 . S
C198 C199 1.351 . S
C198 N201 1.368 . S
C198 H203 0.931 . S
C199 C198 1.351 . S
C199 N200 1.373 . S
C199 H227 0.930 . S
N200 C199 1.373 . S
N200 C202 1.340 . S
N201 C198 1.368 . S
N201 C202 1.321 . S
N201 Co204 2.135 . S
C202 N200 1.340 . S
C202 N201 1.321 . S
C202 H226 0.930 . S
H203 C198 0.931 . S
Co204 N201 2.135 . S
Co204 N207 2.121 . S
Co204 O212 2.055 . S
Co204 O215 2.039 . S
Co204 N218 2.140 . S
C205 O206 1.227 . S
C205 O215 1.265 . S
O206 C205 1.227 . S
N207 Co204 2.121 . S
N207 C209 1.375 . S
N207 C210 1.313 . S
C208 C209 1.338 . S
C208 N211 1.377 . S
C208 H228 0.930 . S
C209 N207 1.375 . S
C209 C208 1.338 . S
C209 H213 0.931 . S
C210 N207 1.313 . S
C210 N211 1.344 . S
C210 H214 0.930 . S
N211 C208 1.377 . S
N211 C210 1.344 . S
O212 Co204 2.055 . S
O212 C216 1.253 . S
H213 C209 0.931 . S
H214 C210 0.930 . S
O215 Co204 2.039 . S
O215 C205 1.265 . S
C216 O212 1.253 . S
C216 O217 1.227 . S
O217 C216 1.227 . S
N218 Co204 2.140 . S
N218 C221 1.346 . S
N218 C222 1.345 . S
C219 C220 1.387 . S
C219 C223 1.391 . S
C220 C219 1.387 . S
C220 C221 1.369 . S
C220 H229 0.929 . S
C221 N218 1.346 . S
C221 C220 1.369 . S
C221 H224 0.928 . S
C222 N218 1.345 . S
C222 C223 1.371 . S
C222 H225 0.931 . S
C223 C219 1.391 . S
C223 C222 1.371 . S
C223 H230 0.930 . S
H224 C221 0.928 . S
H225 C222 0.931 . S
H226 C202 0.930 . S
H227 C199 0.930 . S
H228 C208 0.930 . S
H229 C220 0.929 . S
H230 C223 0.930 . S
C231 C232 1.351 . S
C231 N234 1.368 . S
C231 H236 0.931 . S
C232 C231 1.351 . S
C232 N233 1.373 . S
C232 H260 0.930 . S
N233 C232 1.373 . S
N233 C235 1.340 . S
N234 C231 1.368 . S
N234 C235 1.321 . S
N234 Co237 2.135 1_455 S
C235 N233 1.340 . S
C235 N234 1.321 . S
C235 H259 0.930 . S
H236 C231 0.931 . S
Co237 N234 2.135 1_655 S
Co237 N240 2.121 1_554 S
Co237 O245 2.055 1_554 S
Co237 O248 2.039 . S
Co237 N251 2.140 . S
C238 O239 1.227 . S
C238 O248 1.265 . S
O239 C238 1.227 . S
N240 Co237 2.121 1_556 S
N240 C242 1.375 . S
N240 C243 1.313 . S
C241 C242 1.338 . S
C241 N244 1.377 . S
C241 H261 0.930 . S
C242 N240 1.375 . S
C242 C241 1.338 . S
C242 H246 0.931 1_556 S
C243 N240 1.313 . S
C243 N244 1.344 . S
C243 H247 0.930 . S
N244 C241 1.377 . S
N244 C243 1.344 . S
O245 Co237 2.055 1_556 S
O245 C249 1.253 1_655 S
H246 C242 0.931 1_554 S
H247 C243 0.930 . S
O248 Co237 2.039 . S
O248 C238 1.265 . S
C249 O245 1.253 1_455 S
C249 O250 1.227 . S
O250 C249 1.227 . S
N251 Co237 2.140 . S
N251 C254 1.353 . S
N251 C255 1.345 1_554 S
C252 C253 1.390 . S
C252 C256 1.388 1_454 S
C253 C252 1.390 . S
C253 C254 1.363 1_455 S
C253 H262 0.929 . S
C254 N251 1.353 . S
C254 C253 1.363 1_655 S
C254 H257 0.929 . S
C255 N251 1.345 1_556 S
C255 C256 1.372 . S
C255 H258 0.931 . S
C256 C252 1.388 1_656 S
C256 C255 1.372 . S
C256 H263 0.930 1_655 S
H257 C254 0.929 . S
H258 C255 0.931 . S
H259 C235 0.930 . S
H260 C232 0.930 . S
H261 C241 0.930 . S
H262 C253 0.929 . S
H263 C256 0.930 1_455 S
C264 C265 1.351 . S
C264 N267 1.368 . S
C264 H269 0.931 . S
C265 C264 1.351 . S
C265 N266 1.373 . S
C265 H293 0.930 . S
N266 C265 1.373 . S
N266 C268 1.340 . S
N267 C264 1.368 . S
N267 C268 1.321 . S
N267 Co270 2.135 1_545 S
C268 N266 1.340 . S
C268 N267 1.321 . S
C268 H292 0.930 . S
H269 C264 0.931 . S
Co270 N267 2.135 1_565 S
Co270 N273 2.121 . S
Co270 O278 2.055 . S
Co270 O281 2.039 . S
Co270 N284 2.140 . S
C271 O272 1.227 . S
C271 O281 1.265 . S
O272 C271 1.227 . S
N273 Co270 2.121 . S
N273 C275 1.375 . S
N273 C276 1.313 . S
C274 C275 1.338 . S
C274 N277 1.377 . S
C274 H294 0.930 . S
C275 N273 1.375 . S
C275 C274 1.338 . S
C275 H279 0.931 . S
C276 N273 1.313 . S
C276 N277 1.344 . S
C276 H280 0.930 . S
N277 C274 1.377 . S
N277 C276 1.344 . S
O278 Co270 2.055 . S
O278 C282 1.253 1_565 S
H279 C275 0.931 . S
H280 C276 0.930 . S
O281 Co270 2.039 . S
O281 C271 1.265 . S
C282 O278 1.253 1_545 S
C282 O283 1.227 . S
O283 C282 1.227 . S
N284 Co270 2.140 . S
N284 C287 1.346 1_565 S
N284 C288 1.345 . S
C285 C286 1.387 . S
C285 C289 1.391 . S
C286 C285 1.387 . S
C286 C287 1.369 . S
C286 H295 0.929 . S
C287 N284 1.346 1_545 S
C287 C286 1.369 . S
C287 H290 0.928 . S
C288 N284 1.345 . S
C288 C289 1.371 1_565 S
C288 H291 0.931 . S
C289 C285 1.391 . S
C289 C288 1.371 1_545 S
C289 H296 0.930 . S
H290 C287 0.928 . S
H291 C288 0.931 . S
H292 C268 0.930 . S
H293 C265 0.930 . S
H294 C274 0.930 . S
H295 C286 0.929 . S
H296 C289 0.930 . S
C297 C298 1.351 . S
C297 N300 1.368 . S
C297 H302 0.931 . S
C298 C297 1.351 . S
C298 N299 1.373 . S
C298 H326 0.930 . S
N299 C298 1.373 . S
N299 C301 1.340 . S
N300 C297 1.368 . S
N300 C301 1.321 . S
N300 Co303 2.135 . S
C301 N299 1.340 . S
C301 N300 1.321 . S
C301 H325 0.930 . S
H302 C297 0.931 . S
Co303 N300 2.135 . S
Co303 N306 2.121 1_554 S
Co303 O311 2.055 1_554 S
Co303 O314 2.039 . S
Co303 N317 2.140 . S
C304 O305 1.227 . S
C304 O314 1.265 . S
O305 C304 1.227 . S
N306 Co303 2.121 1_556 S
N306 C308 1.375 . S
N306 C309 1.313 . S
C307 C308 1.338 . S
C307 N310 1.377 . S
C307 H327 0.930 . S
C308 N306 1.375 . S
C308 C307 1.338 . S
C308 H312 0.931 1_556 S
C309 N306 1.313 . S
C309 N310 1.344 . S
C309 H313 0.930 . S
N310 C307 1.377 . S
N310 C309 1.344 . S
O311 Co303 2.055 1_556 S
O311 C315 1.253 . S
H312 C308 0.931 1_554 S
H313 C309 0.930 . S
O314 Co303 2.039 . S
O314 C304 1.265 . S
C315 O311 1.253 . S
C315 O316 1.227 . S
O316 C315 1.227 . S
N317 Co303 2.140 . S
N317 C320 1.346 . S
N317 C321 1.345 1_554 S
C318 C319 1.387 1_556 S
C318 C322 1.391 . S
C319 C318 1.387 1_554 S
C319 C320 1.369 . S
C319 H328 0.929 . S
C320 N317 1.346 . S
C320 C319 1.369 . S
C320 H323 0.928 . S
C321 N317 1.345 1_556 S
C321 C322 1.371 . S
C321 H324 0.931 . S
C322 C318 1.391 . S
C322 C321 1.371 . S
C322 H329 0.930 . S
H323 C320 0.928 . S
H324 C321 0.931 . S
H325 C301 0.930 . S
H326 C298 0.930 . S
H327 C307 0.930 . S
H328 C319 0.929 . S
H329 C322 0.930 . S
C330 C331 1.351 . S
C330 N333 1.368 . S
C330 H335 0.931 . S
C331 C330 1.351 . S
C331 N332 1.373 . S
C331 H359 0.930 . S
N332 C331 1.373 . S
N332 C334 1.340 . S
N333 C330 1.368 . S
N333 C334 1.321 . S
N333 Co336 2.135 . S
C334 N332 1.340 . S
C334 N333 1.321 . S
C334 H358 0.930 . S
H335 C330 0.931 . S
Co336 N333 2.135 . S
Co336 N339 2.121 . S
Co336 O344 2.055 . S
Co336 O347 2.039 . S
Co336 N350 2.140 . S
C337 O338 1.227 . S
C337 O347 1.265 . S
O338 C337 1.227 . S
N339 Co336 2.121 . S
N339 C341 1.375 . S
N339 C342 1.313 . S
C340 C341 1.338 . S
C340 N343 1.377 . S
C340 H360 0.930 . S
C341 N339 1.375 . S
C341 C340 1.338 . S
C341 H345 0.931 . S
C342 N339 1.313 . S
C342 N343 1.344 . S
C342 H346 0.930 . S
N343 C340 1.377 . S
N343 C342 1.344 . S
O344 Co336 2.055 . S
O344 C348 1.253 . S
H345 C341 0.931 . S
H346 C342 0.930 . S
O347 Co336 2.039 . S
O347 C337 1.265 . S
C348 O344 1.253 . S
C348 O349 1.227 . S
O349 C348 1.227 . S
N350 Co336 2.140 . S
N350 C353 1.346 . S
N350 C354 1.345 . S
C351 C352 1.387 . S
C351 C355 1.391 . S
C352 C351 1.387 . S
C352 C353 1.369 . S
C352 H361 0.929 . S
C353 N350 1.346 . S
C353 C352 1.369 . S
C353 H356 0.928 . S
C354 N350 1.345 . S
C354 C355 1.371 . S
C354 H357 0.931 . S
C355 C351 1.391 . S
C355 C354 1.371 . S
C355 H362 0.930 . S
H356 C353 0.928 . S
H357 C354 0.931 . S
H358 C334 0.930 . S
H359 C331 0.930 . S
H360 C340 0.930 . S
H361 C352 0.929 . S
H362 C355 0.930 . S
C363 C364 1.351 . S
C363 N366 1.368 . S
C363 H368 0.931 . S
C364 C363 1.351 . S
C364 N365 1.373 . S
C364 H392 0.930 . S
N365 C364 1.373 . S
N365 C367 1.340 . S
N366 C363 1.368 . S
N366 C367 1.321 . S
N366 Co369 2.135 1_455 S
C367 N365 1.340 . S
C367 N366 1.321 . S
C367 H391 0.930 . S
H368 C363 0.931 . S
Co369 N366 2.135 1_655 S
Co369 N372 2.121 1_554 S
Co369 O377 2.055 1_654 S
Co369 O380 2.039 . S
Co369 N383 2.140 1_655 S
C370 O371 1.227 . S
C370 O380 1.265 . S
O371 C370 1.227 . S
N372 Co369 2.121 1_556 S
N372 C374 1.375 . S
N372 C375 1.313 . S
C373 C374 1.338 . S
C373 N376 1.377 . S
C373 H393 0.930 . S
C374 N372 1.375 . S
C374 C373 1.338 . S
C374 H378 0.931 1_556 S
C375 N372 1.313 . S
C375 N376 1.344 . S
C375 H379 0.930 . S
N376 C373 1.377 . S
N376 C375 1.344 . S
O377 Co369 2.055 1_456 S
O377 C381 1.253 . S
H378 C374 0.931 1_554 S
H379 C375 0.930 . S
O380 Co369 2.039 . S
O380 C370 1.265 . S
C381 O377 1.253 . S
C381 O382 1.227 . S
O382 C381 1.227 . S
N383 Co369 2.140 1_455 S
N383 C386 1.346 . S
N383 C387 1.345 1_554 S
C384 C385 1.387 1_556 S
C384 C388 1.391 . S
C385 C384 1.387 1_554 S
C385 C386 1.369 . S
C385 H394 0.929 . S
C386 N383 1.346 . S
C386 C385 1.369 . S
C386 H389 0.928 . S
C387 N383 1.345 1_556 S
C387 C388 1.371 . S
C387 H390 0.931 1_455 S
C388 C384 1.391 . S
C388 C387 1.371 . S
C388 H395 0.930 . S
H389 C386 0.928 . S
H390 C387 0.931 1_655 S
H391 C367 0.930 . S
H392 C364 0.930 . S
H393 C373 0.930 . S
H394 C385 0.929 . S
H395 C388 0.930 . S
C396 C397 1.351 . S
C396 N399 1.368 . S
C396 H401 0.931 . S
C397 C396 1.351 . S
C397 N398 1.373 . S
C397 H425 0.930 . S
N398 C397 1.373 . S
N398 C400 1.340 . S
N399 C396 1.368 . S
N399 C400 1.321 . S
N399 Co402 2.135 1_565 S
C400 N398 1.340 . S
C400 N399 1.321 . S
C400 H424 0.930 . S
H401 C396 0.931 . S
Co402 N399 2.135 1_545 S
Co402 N405 2.121 . S
Co402 O410 2.055 1_545 S
Co402 O413 2.039 . S
Co402 N416 2.140 1_545 S
C403 O404 1.227 . S
C403 O413 1.265 . S
O404 C403 1.227 . S
N405 Co402 2.121 . S
N405 C407 1.375 . S
N405 C408 1.313 . S
C406 C407 1.338 . S
C406 N409 1.377 . S
C406 H426 0.930 . S
C407 N405 1.375 . S
C407 C406 1.338 . S
C407 H411 0.931 . S
C408 N405 1.313 . S
C408 N409 1.344 . S
C408 H412 0.930 . S
N409 C406 1.377 . S
N409 C408 1.344 . S
O410 Co402 2.055 1_565 S
O410 C414 1.253 . S
H411 C407 0.931 . S
H412 C408 0.930 . S
O413 Co402 2.039 . S
O413 C403 1.265 . S
C414 O410 1.253 . S
C414 O415 1.227 . S
O415 C414 1.227 . S
N416 Co402 2.140 1_565 S
N416 C419 1.346 . S
N416 C420 1.345 . S
C417 C418 1.387 . S
C417 C421 1.391 . S
C418 C417 1.387 . S
C418 C419 1.369 . S
C418 H427 0.929 . S
C419 N416 1.346 . S
C419 C418 1.369 . S
C419 H422 0.928 . S
C420 N416 1.345 . S
C420 C421 1.371 . S
C420 H423 0.931 . S
C421 C417 1.391 . S
C421 C420 1.371 . S
C421 H428 0.930 . S
H422 C419 0.928 . S
H423 C420 0.931 . S
H424 C400 0.930 . S
H425 C397 0.930 . S
H426 C406 0.930 . S
H427 C418 0.929 . S
H428 C421 0.930 . S
C429 C430 1.351 . S
C429 N432 1.368 . S
C429 H434 0.931 . S
C430 C429 1.351 . S
C430 N431 1.373 . S
C430 H458 0.930 . S
N431 C430 1.373 . S
N431 C433 1.340 . S
N432 C429 1.368 . S
N432 C433 1.321 . S
N432 Co435 2.135 . S
C433 N431 1.340 . S
C433 N432 1.321 . S
C433 H457 0.930 . S
H434 C429 0.931 . S
Co435 N432 2.135 . S
Co435 N438 2.121 1_556 S
Co435 O443 2.055 1_556 S
Co435 O446 2.039 . S
Co435 N449 2.140 . S
C436 O437 1.227 . S
C436 O446 1.265 . S
O437 C436 1.227 . S
N438 Co435 2.121 1_554 S
N438 C440 1.375 . S
N438 C441 1.313 . S
C439 C440 1.338 . S
C439 N442 1.377 . S
C439 H459 0.930 . S
C440 N438 1.375 . S
C440 C439 1.338 . S
C440 H444 0.931 1_554 S
C441 N438 1.313 . S
C441 N442 1.344 . S
C441 H445 0.930 . S
N442 C439 1.377 . S
N442 C441 1.344 . S
O443 Co435 2.055 1_554 S
O443 C447 1.253 . S
H444 C440 0.931 1_556 S
H445 C441 0.930 . S
O446 Co435 2.039 . S
O446 C436 1.265 . S
C447 O443 1.253 . S
C447 O448 1.227 . S
O448 C447 1.227 . S
N449 Co435 2.140 . S
N449 C452 1.346 . S
N449 C453 1.345 1_556 S
C450 C451 1.382 1_554 S
C450 C454 1.395 . S
C451 C450 1.382 1_556 S
C451 C452 1.369 . S
C451 H460 0.929 . S
C452 N449 1.346 . S
C452 C451 1.369 . S
C452 H455 0.928 . S
C453 N449 1.345 1_554 S
C453 C454 1.371 . S
C453 H456 0.931 . S
C454 C450 1.395 . S
C454 C453 1.371 . S
C454 H461 0.930 . S
H455 C452 0.928 . S
H456 C453 0.931 . S
H457 C433 0.930 . S
H458 C430 0.930 . S
H459 C439 0.930 . S
H460 C451 0.929 . S
H461 C454 0.930 . S
C462 C463 1.351 . S
C462 N465 1.368 . S
C462 H467 0.931 . S
C463 C462 1.351 . S
C463 N464 1.373 . S
C463 H491 0.930 . S
N464 C463 1.373 . S
N464 C466 1.340 . S
N465 C462 1.368 . S
N465 C466 1.321 . S
N465 Co468 2.135 . S
C466 N464 1.340 . S
C466 N465 1.321 . S
C466 H490 0.930 . S
H467 C462 0.931 . S
Co468 N465 2.135 . S
Co468 N471 2.121 . S
Co468 O476 2.055 . S
Co468 O479 2.039 . S
Co468 N482 2.140 . S
C469 O470 1.227 . S
C469 O479 1.265 . S
O470 C469 1.227 . S
N471 Co468 2.121 . S
N471 C473 1.375 . S
N471 C474 1.313 . S
C472 C473 1.338 . S
C472 N475 1.377 . S
C472 H492 0.930 . S
C473 N471 1.375 . S
C473 C472 1.338 . S
C473 H477 0.931 . S
C474 N471 1.313 . S
C474 N475 1.344 . S
C474 H478 0.930 . S
N475 C472 1.377 . S
N475 C474 1.344 . S
O476 Co468 2.055 . S
O476 C480 1.253 . S
H477 C473 0.931 . S
H478 C474 0.930 . S
O479 Co468 2.039 . S
O479 C469 1.265 . S
C480 O476 1.253 . S
C480 O481 1.227 . S
O481 C480 1.227 . S
N482 Co468 2.140 . S
N482 C485 1.346 . S
N482 C486 1.345 . S
C483 C484 1.387 . S
C483 C487 1.391 . S
C484 C483 1.387 . S
C484 C485 1.369 . S
C484 H493 0.929 . S
C485 N482 1.346 . S
C485 C484 1.369 . S
C485 H488 0.928 . S
C486 N482 1.345 . S
C486 C487 1.371 . S
C486 H489 0.931 . S
C487 C483 1.391 . S
C487 C486 1.371 . S
C487 H494 0.930 . S
H488 C485 0.928 . S
H489 C486 0.931 . S
H490 C466 0.930 . S
H491 C463 0.930 . S
H492 C472 0.930 . S
H493 C484 0.929 . S
H494 C487 0.930 . S
C495 C496 1.351 . S
C495 N498 1.368 . S
C495 H500 0.931 . S
C496 C495 1.351 . S
C496 N497 1.373 . S
C496 H524 0.930 . S
N497 C496 1.373 . S
N497 C499 1.340 . S
N498 C495 1.368 . S
N498 C499 1.321 . S
N498 Co501 2.135 1_655 S
C499 N497 1.340 . S
C499 N498 1.321 . S
C499 H523 0.930 . S
H500 C495 0.931 . S
Co501 N498 2.135 1_455 S
Co501 N504 2.121 1_556 S
Co501 O509 2.055 1_556 S
Co501 O512 2.039 . S
Co501 N515 2.140 . S
C502 O503 1.227 . S
C502 O512 1.265 . S
O503 C502 1.227 . S
N504 Co501 2.121 1_554 S
N504 C506 1.375 . S
N504 C507 1.313 . S
C505 C506 1.338 . S
C505 N508 1.377 . S
C505 H525 0.930 . S
C506 N504 1.375 . S
C506 C505 1.338 . S
C506 H510 0.931 1_554 S
C507 N504 1.313 . S
C507 N508 1.344 . S
C507 H511 0.930 . S
N508 C505 1.377 . S
N508 C507 1.344 . S
O509 Co501 2.055 1_554 S
O509 C513 1.253 1_455 S
H510 C506 0.931 1_556 S
H511 C507 0.930 . S
O512 Co501 2.039 . S
O512 C502 1.265 . S
C513 O509 1.253 1_655 S
C513 O514 1.227 . S
O514 C513 1.227 . S
N515 Co501 2.140 . S
N515 C518 1.353 . S
N515 C519 1.345 1_556 S
C516 C517 1.390 . S
C516 C520 1.388 1_656 S
C517 C516 1.390 . S
C517 C518 1.363 1_655 S
C517 H526 0.929 . S
C518 N515 1.353 . S
C518 C517 1.363 1_455 S
C518 H521 0.929 . S
C519 N515 1.345 1_554 S
C519 C520 1.372 . S
C519 H522 0.931 . S
C520 C516 1.388 1_454 S
C520 C519 1.372 . S
C520 H527 0.930 1_455 S
H521 C518 0.929 . S
H522 C519 0.931 . S
H523 C499 0.930 . S
H524 C496 0.930 . S
H525 C505 0.930 . S
H526 C517 0.929 . S
H527 C520 0.930 1_655 S
C282 C18 3.131 1_645 S
C51 C315 3.301 1_544 S
C348 C84 3.122 . S
C381 C117 3.494 1_456 S
C150 C414 3.592 1_545 S
C183 C447 3.113 1_556 S
C216 C480 3.511 1_655 S
C249 C513 3.004 1_466 S
C7 N508 2.483 . S
C40 N409 2.492 . S
C73 N442 2.497 . S
N475 C106 2.469 . S
C139 N310 2.471 . S
C172 N343 2.498 . S
N376 C205 2.483 . S
C238 N277 2.502 . S
N244 C271 2.483 . S
N145 C304 2.492 . S
N178 C337 2.497 . S
C370 N211 2.469 . S
N46 C403 2.471 . S
C436 N79 2.498 . S
N112 C469 2.483 . S
N13 C502 2.502 . S
N233 N2 0.109 . S
N134 N35 0.328 . S
N68 N167 0.040 . S
N200 N101 0.308 . S
N497 N266 0.109 . S
N299 N398 0.328 . S
N332 N431 0.040 . S
N365 N464 0.308 . S
C21 C417 1.424 . S
C54 C450 1.293 . S
C87 C483 1.413 . S
C120 C516 1.349 1_554 S
C153 C285 1.424 . S
C186 C318 1.293 . S
C219 C351 1.413 . S
C384 C252 1.349 1_556 S
