# Generated by pormake.
# Topology wlj, (5)-cn, num edge types: 1
# Building blocks:
#     Node 0, Type 0, BuildingBlock: XOMCOT_clean_sbu_1, # of connection points: 5
#     Node 1, Type 0, BuildingBlock: XOMCOT_clean_sbu_1, # of connection points: 5
#     Node 2, Type 0, BuildingBlock: XOMCOT_clean_sbu_1, # of connection points: 5
#     Node 3, Type 0, BuildingBlock: XOMCOT_clean_sbu_1, # of connection points: 5
#     Node 4, Type 0, BuildingBlock: XOMCOT_clean_sbu_1, # of connection points: 5
#     Node 5, Type 0, BuildingBlock: XOMCOT_clean_sbu_1, # of connection points: 5
#     Edge 6, Type (0, 0), BuildingBlock: FUNLAD_clean_linker_1, # of connection points: 2
#     Edge 7, Type (0, 0), BuildingBlock: FUNLAD_clean_linker_1, # of connection points: 2
#     Edge 8, Type (0, 0), BuildingBlock: FUNLAD_clean_linker_1, # of connection points: 2
#     Edge 9, Type (0, 0), BuildingBlock: FUNLAD_clean_linker_1, # of connection points: 2
#     Edge 10, Type (0, 0), BuildingBlock: FUNLAD_clean_linker_1, # of connection points: 2
#     Edge 11, Type (0, 0), BuildingBlock: FUNLAD_clean_linker_1, # of connection points: 2
#     Edge 12, Type (0, 0), BuildingBlock: FUNLAD_clean_linker_1, # of connection points: 2
#     Edge 13, Type (0, 0), BuildingBlock: FUNLAD_clean_linker_1, # of connection points: 2
#     Edge 14, Type (0, 0), BuildingBlock: FUNLAD_clean_linker_1, # of connection points: 2
#     Edge 15, Type (0, 0), BuildingBlock: FUNLAD_clean_linker_1, # of connection points: 2
#     Edge 16, Type (0, 0), BuildingBlock: FUNLAD_clean_linker_1, # of connection points: 2
#     Edge 17, Type (0, 0), BuildingBlock: FUNLAD_clean_linker_1, # of connection points: 2
#     Edge 18, Type (0, 0), BuildingBlock: FUNLAD_clean_linker_1, # of connection points: 2
#     Edge 19, Type (0, 0), BuildingBlock: FUNLAD_clean_linker_1, # of connection points: 2
#     Edge 20, Type (0, 0), BuildingBlock: FUNLAD_clean_linker_1, # of connection points: 2
# Relax obj value: 0.128
# Max RMSD: 0.180
# Mean RMSD: 0.180
data_MOF--net-wlj--node1-XOMCOT_clean_sbu_1--edge1-FUNLAD_clean_linker_1
_symmetry_space_group_name_H-M    P1
_symmetry_Int_Tables_number       1
_symmetry_cell_setting            triclinic
loop_
_symmetry_equiv_pos_as_xyz
'x, y, z'
_cell_length_a     26.207124
_cell_length_b     26.345339
_cell_length_c     57.323199
_cell_angle_alpha  90.050421
_cell_angle_beta   90.205453
_cell_angle_gamma 120.09121
loop_
_atom_site_label
_atom_site_type_symbol
_atom_site_fract_x
_atom_site_fract_y
_atom_site_fract_z
_atom_type_partial_charge
C0 C 0.66075 0.27571 0.30368 0.0
C1 C 0.65734 0.23289 0.31847 0.0
N2 N 0.60418 0.18432 0.3155 0.0
N3 N 0.61013 0.25427 0.29136 0.0
C4 C 0.57631 0.19868 0.29916 0.0
H5 H 0.698 0.31959 0.30185 0.0
Co6 Co 0.59386 0.29381 0.26793 0.0
C7 C 0.49766 0.19451 0.24127 0.0
O8 O 0.46495 0.21936 0.24122 0.0
N9 N 0.57814 0.33357 0.24429 0.0
C10 C 0.57242 0.36653 0.20924 0.0
C11 C 0.58229 0.32701 0.22112 0.0
C12 C 0.56539 0.37727 0.24604 0.0
N13 N 0.56213 0.3983 0.22497 0.0
O14 O 0.52661 0.28445 0.28513 0.0
H15 H 0.59228 0.29565 0.2133 0.0
H16 H 0.55964 0.39427 0.26239 0.0
O17 O 0.54784 0.21961 0.25139 0.0
C18 C 0.5444 0.32445 0.30075 0.0
O19 O 0.60157 0.35872 0.30365 0.0
N20 N 0.66248 0.30915 0.25226 0.0
C21 C 0.76615 0.35284 0.22662 0.0
C22 C 0.72504 0.29244 0.22677 0.0
C23 C 0.67295 0.27124 0.23973 0.0
C24 C 0.70364 0.36717 0.25351 0.0
C25 C 0.75561 0.39002 0.2408 0.0
H26 H 0.64084 0.22493 0.23925 0.0
H27 H 0.69497 0.39622 0.26396 0.0
H28 H 0.53222 0.16888 0.29278 0.0
H29 H 0.69128 0.23753 0.33053 0.0
H30 H 0.57167 0.37065 0.19048 0.0
H31 H 0.73244 0.2622 0.2165 0.0
H32 H 0.78713 0.43646 0.2422 0.0
C33 C 0.75342 0.37657 0.96869 0.0
C34 C 0.79811 0.41585 0.98301 0.0
N35 N 0.84897 0.41991 0.97588 0.0
N36 N 0.77575 0.35592 0.95254 0.0
C37 C 0.83414 0.38277 0.95754 0.0
H38 H 0.70739 0.36393 0.96994 0.0
Co39 Co 0.73048 0.30335 0.92885 0.0
C40 C 0.81758 0.31894 0.89108 0.0
O41 O 0.77759 0.30119 0.8745 0.0
N42 N 0.68204 0.24893 0.90494 0.0
C43 C 0.62141 0.20915 0.8744 0.0
C44 C 0.65711 0.25997 0.88628 0.0
C45 C 0.66051 0.19007 0.90355 0.0
N46 N 0.62297 0.165 0.8854 0.0
O47 O 0.73142 0.24082 0.94569 0.0
H48 H 0.66462 0.30233 0.88087 0.0
H49 H 0.67122 0.16541 0.9157 0.0
O50 O 0.80346 0.32108 0.91226 0.0
C51 C 0.68836 0.21773 0.95994 0.0
O52 O 0.65336 0.23993 0.96129 0.0
N53 N 0.72468 0.36383 0.91436 0.0
C54 C 0.68676 0.43216 0.89145 0.0
C55 C 0.74344 0.44088 0.88742 0.0
C56 C 0.76196 0.40619 0.89923 0.0
C57 C 0.67238 0.35952 0.92029 0.0
C58 C 0.65236 0.39293 0.90899 0.0
H59 H 0.80503 0.41232 0.89561 0.0
H60 H 0.64428 0.32694 0.93287 0.0
H61 H 0.86551 0.37584 0.94785 0.0
H62 H 0.79314 0.43885 0.99768 0.0
H63 H 0.59728 0.20547 0.85852 0.0
H64 H 0.77209 0.47243 0.87461 0.0
H65 H 0.60965 0.3869 0.9136 0.0
C66 C 0.65475 0.36547 0.63243 0.0
C67 C 0.61655 0.36861 0.64812 0.0
N68 N 0.62108 0.42168 0.64598 0.0
N69 N 0.68266 0.41604 0.62031 0.0
C70 C 0.66184 0.44964 0.62928 0.0
H71 H 0.66102 0.32833 0.6297 0.0
Co72 Co 0.73724 0.43507 0.59595 0.0
C73 C 0.68125 0.4914 0.56679 0.0
O74 O 0.65179 0.44459 0.55371 0.0
N75 N 0.79349 0.45654 0.5715 0.0
C76 C 0.83529 0.47966 0.53642 0.0
C77 C 0.78525 0.46482 0.54883 0.0
C78 C 0.84943 0.466 0.57222 0.0
N79 N 0.87555 0.48022 0.55105 0.0
O80 O 0.79769 0.49461 0.61562 0.0
H81 H 0.74507 0.45869 0.54124 0.0
H82 H 0.87053 0.46234 0.58784 0.0
O83 O 0.71501 0.49204 0.58321 0.0
C84 C 0.81635 0.4661 0.62754 0.0
O85 O 0.79129 0.40923 0.62416 0.0
N86 N 0.68003 0.36943 0.57827 0.0
C87 C 0.60509 0.26153 0.55649 0.0
C88 C 0.58207 0.29345 0.56733 0.0
C89 C 0.62022 0.34701 0.57842 0.0
C90 C 0.70206 0.33635 0.56924 0.0
C91 C 0.66599 0.28351 0.55786 0.0
H92 H 0.6016 0.37026 0.58724 0.0
H93 H 0.74791 0.34941 0.57163 0.0
H94 H 0.67561 0.49372 0.62347 0.0
H95 H 0.58793 0.3345 0.66009 0.0
H96 H 0.84139 0.48837 0.51788 0.0
H97 H 0.53496 0.27669 0.56758 0.0
H98 H 0.68575 0.25877 0.55137 0.0
C99 C 0.27647 0.60296 0.71972 0.0
C100 C 0.2324 0.60377 0.70694 0.0
N101 N 0.18923 0.59636 0.72166 0.0
N102 N 0.26132 0.59469 0.74243 0.0
C103 C 0.20808 0.59149 0.74311 0.0
H104 H 0.31758 0.60923 0.71286 0.0
Co105 Co 0.30943 0.59335 0.76637 0.0
C106 C 0.22476 0.51293 0.80349 0.0
O107 O 0.26626 0.52755 0.81929 0.0
N108 N 0.36067 0.59359 0.78995 0.0
C109 C 0.4376 0.62616 0.81418 0.0
C110 C 0.40247 0.64109 0.80162 0.0
C111 C 0.37195 0.55023 0.79579 0.0
N112 N 0.41874 0.56912 0.81029 0.0
O113 O 0.31411 0.53105 0.75047 0.0
H114 H 0.40929 0.68489 0.80058 0.0
H115 H 0.34762 0.50599 0.78894 0.0
O116 O 0.23772 0.5359 0.78314 0.0
C117 C 0.36279 0.54974 0.73963 0.0
O118 O 0.40104 0.60633 0.74008 0.0
N119 N 0.30957 0.65779 0.78049 0.0
C120 C 0.34693 0.76483 0.80265 0.0
C121 C 0.3015 0.71293 0.8122 0.0
C122 C 0.28352 0.6594 0.80089 0.0
C123 C 0.34885 0.70856 0.7697 0.0
C124 C 0.36866 0.76268 0.78057 0.0
H125 H 0.25135 0.61988 0.80934 0.0
H126 H 0.36878 0.70658 0.75348 0.0
H127 H 0.18377 0.58614 0.75902 0.0
H128 H 0.23311 0.61096 0.68833 0.0
H129 H 0.47464 0.65545 0.82506 0.0
H130 H 0.28286 0.71327 0.829 0.0
H131 H 0.40249 0.80212 0.77226 0.0
C132 C 0.37447 0.63169 0.40399 0.0
C133 C 0.37739 0.5916 0.38944 0.0
N134 N 0.4299 0.59486 0.39281 0.0
N135 N 0.42473 0.66012 0.41655 0.0
C136 C 0.45793 0.63711 0.40916 0.0
H137 H 0.33774 0.63934 0.4055 0.0
Co138 Co 0.43901 0.71603 0.43972 0.0
C139 C 0.54061 0.72426 0.46634 0.0
O140 O 0.56715 0.78178 0.46732 0.0
N141 N 0.45215 0.77177 0.46302 0.0
C142 C 0.45859 0.81284 0.49766 0.0
C143 C 0.44912 0.76288 0.48632 0.0
C144 C 0.46342 0.82759 0.46069 0.0
N145 N 0.46734 0.85341 0.48147 0.0
O146 O 0.50273 0.77576 0.42168 0.0
H147 H 0.44099 0.72266 0.4946 0.0
H148 H 0.46831 0.84908 0.44412 0.0
O149 O 0.49154 0.69506 0.45561 0.0
C150 C 0.48401 0.79674 0.40595 0.0
O151 O 0.42673 0.77244 0.40288 0.0
N152 N 0.37405 0.65977 0.45646 0.0
C153 C 0.27501 0.59296 0.48401 0.0
C154 C 0.32111 0.58043 0.48322 0.0
C155 C 0.37049 0.61437 0.46923 0.0
C156 C 0.32813 0.67008 0.45583 0.0
C157 C 0.27818 0.63725 0.46939 0.0
H158 H 0.40614 0.60496 0.46917 0.0
H159 H 0.33125 0.70539 0.44516 0.0
H160 H 0.50158 0.65043 0.41583 0.0
H161 H 0.34358 0.56278 0.37725 0.0
H162 H 0.46052 0.81918 0.51636 0.0
H163 H 0.31963 0.54561 0.49376 0.0
H164 H 0.24272 0.64694 0.46833 0.0
C165 C 0.39758 0.74676 0.06805 0.0
C166 C 0.4367 0.79121 0.05382 0.0
N167 N 0.43419 0.83991 0.0588 0.0
N168 N 0.37057 0.76714 0.08205 0.0
C169 C 0.39337 0.824 0.07582 0.0
H170 H 0.38925 0.70219 0.06818 0.0
Co171 Co 0.31511 0.72169 0.10467 0.0
C172 C 0.33646 0.80762 0.1434 0.0
O173 O 0.33014 0.76938 0.15941 0.0
N174 N 0.25751 0.67331 0.12758 0.0
C175 C 0.21362 0.61466 0.15806 0.0
C176 C 0.26628 0.65034 0.14734 0.0
C177 C 0.19805 0.65042 0.12705 0.0
N178 N 0.17054 0.61422 0.14516 0.0
O179 O 0.25455 0.72474 0.08683 0.0
H180 H 0.3084 0.65945 0.15426 0.0
H181 H 0.17463 0.65938 0.11361 0.0
O182 O 0.33202 0.7938 0.12177 0.0
C183 C 0.23366 0.68442 0.07133 0.0
O184 O 0.25778 0.65136 0.06901 0.0
N185 N 0.3737 0.7136 0.12012 0.0
C186 C 0.44395 0.677 0.14262 0.0
C187 C 0.45717 0.73554 0.14441 0.0
C188 C 0.42143 0.75332 0.13278 0.0
C189 C 0.36462 0.65868 0.11618 0.0
C190 C 0.39846 0.63915 0.12752 0.0
H191 H 0.43176 0.79836 0.13421 0.0
H192 H 0.32854 0.62884 0.10502 0.0
H193 H 0.38064 0.85339 0.08364 0.0
H194 H 0.46395 0.78743 0.04059 0.0
H195 H 0.20803 0.59201 0.17441 0.0
H196 H 0.49366 0.76667 0.15513 0.0
H197 H 0.38859 0.59453 0.1246 0.0
H198 H 0.50557 0.11814 0.23069 0.0
C199 C 0.47865 0.1386 0.2287 0.0
H200 H 0.4032 0.1327 0.21267 0.0
H201 H 0.46421 0.95296 0.15084 0.0
H202 H 0.55303 0.04119 0.13912 0.0
H203 H 0.57768 0.1376 0.15537 0.0
H204 H 0.51407 0.14616 0.18379 0.0
C205 C 0.43109 0.11332 0.21455 0.0
C206 C 0.41287 0.05638 0.20233 0.0
C207 C 0.44914 0.0523 0.18491 0.0
C208 C 0.43342 0.99688 0.17469 0.0
C209 C 0.47253 0.99391 0.1585 0.0
C210 C 0.52397 0.04428 0.1517 0.0
C211 C 0.53795 0.09854 0.1609 0.0
C212 C 0.50121 0.10277 0.17732 0.0
H213 H 0.35411 0.89829 0.13719 0.0
C214 C 0.35245 0.86808 0.15046 0.0
H215 H 0.36287 0.85558 0.18612 0.0
H216 H 0.3313 0.04892 0.2339 0.0
H217 H 0.23906 0.96185 0.24371 0.0
H218 H 0.20971 0.86693 0.22479 0.0
H219 H 0.27257 0.8584 0.196 0.0
C220 C 0.36576 0.88627 0.17282 0.0
C221 C 0.38005 0.94587 0.18114 0.0
C222 C 0.34233 0.95068 0.1976 0.0
C223 C 0.35879 1.00574 0.20824 0.0
C224 C 0.32073 1.00852 0.22504 0.0
C225 C 0.26764 0.95882 0.23088 0.0
C226 C 0.25116 0.90536 0.22026 0.0
C227 C 0.28783 0.90106 0.20382 0.0
H228 H 0.12832 0.46823 0.7971 0.0
C229 C 0.16182 0.47779 0.81032 0.0
H230 H 0.17852 0.4728 0.84607 0.0
H231 H 0.94372 0.45753 0.88181 0.0
H232 H 1.01654 0.55587 0.89361 0.0
H233 H 0.12013 0.59953 0.88127 0.0
H234 H 0.15134 0.5451 0.85683 0.0
C235 C 0.14522 0.46114 0.83257 0.0
C236 C 0.08231 0.43336 0.84025 0.0
C237 C 0.06475 0.46506 0.85506 0.0
C238 C 1.00508 0.43926 0.86266 0.0
C239 C 0.98861 0.4736 0.8763 0.0
C240 C 0.02995 0.53055 0.88303 0.0
C241 C 0.08825 0.55516 0.87606 0.0
C242 C 0.10561 0.52324 0.8621 0.0
H243 H 0.91245 0.35476 0.89906 0.0
C244 C 0.88058 0.34309 0.88498 0.0
H245 H 0.86765 0.34173 0.84858 0.0
H246 H 0.1017 0.35848 0.81362 0.0
H247 H 0.02942 0.25909 0.80241 0.0
H248 H 0.92633 0.21417 0.8156 0.0
H249 H 0.8949 0.26824 0.84018 0.0
C250 C 0.89951 0.35403 0.8627 0.0
C251 C 0.96311 0.38086 0.85601 0.0
C252 C 0.98093 0.34898 0.8414 0.0
C253 C 0.04045 0.37508 0.8336 0.0
C254 C 0.05697 0.3414 0.81961 0.0
C255 C 1.01597 0.28411 0.81315 0.0
C256 C 0.95793 0.25881 0.82058 0.0
C257 C 0.94042 0.29051 0.83461 0.0
H258 H 0.54579 0.64544 0.47494 0.0
C259 C 0.56454 0.69179 0.47896 0.0
H260 H 0.62176 0.76107 0.50142 0.0
H261 H 0.59511 0.56885 0.57662 0.0
H262 H 0.53752 0.60676 0.59489 0.0
H263 H 0.51941 0.67882 0.57459 0.0
H264 H 0.55842 0.71317 0.53579 0.0
C265 C 0.60498 0.7158 0.49613 0.0
C266 C 0.62332 0.67919 0.50972 0.0
C267 C 0.60203 0.66113 0.53271 0.0
C268 C 0.6129 0.61985 0.54453 0.0
C269 C 0.58869 0.60049 0.56699 0.0
C270 C 0.55552 0.62188 0.57766 0.0
C271 C 0.54531 0.66246 0.56622 0.0
C272 C 0.56799 0.68185 0.54398 0.0
H273 H 0.70661 0.58548 0.57028 0.0
C274 C 0.67919 0.54508 0.5607 0.0
H275 H 0.61942 0.50432 0.53276 0.0
H276 H 0.67873 0.71216 0.46754 0.0
H277 H 0.73909 0.67675 0.44979 0.0
H278 H 0.75785 0.60523 0.4702 0.0
H279 H 0.71656 0.56884 0.50853 0.0
C280 C 0.64544 0.54441 0.54272 0.0
C281 C 0.64572 0.59736 0.53343 0.0
C282 C 0.6706 0.61878 0.51115 0.0
C283 C 0.65954 0.65977 0.49932 0.0
C284 C 0.68499 0.68029 0.47711 0.0
C285 C 0.71994 0.66055 0.46678 0.0
C286 C 0.73051 0.62028 0.47827 0.0
C287 C 0.70631 0.59954 0.5002 0.0
H288 H 0.52542 0.68324 0.1576 0.0
C289 C 0.47791 0.65531 0.15594 0.0
H290 H 0.40308 0.57399 0.16391 0.0
H291 H 0.51078 0.4119 0.16504 0.0
H292 H 0.45459 0.38239 0.12909 0.0
H293 H 0.41182 0.43963 0.11291 0.0
H294 H 0.42463 0.52637 0.13274 0.0
C295 C 0.45076 0.60111 0.16527 0.0
C296 C 0.48307 0.57182 0.17408 0.0
C297 C 0.47648 0.52188 0.16196 0.0
C298 C 0.50245 0.48978 0.17096 0.0
C299 C 0.49334 0.43893 0.1588 0.0
C300 C 0.4609 0.42123 0.13813 0.0
C301 C 0.43672 0.45335 0.12906 0.0
C302 C 0.44425 0.50303 0.14072 0.0
H303 H 0.51684 0.44719 0.2322 0.0
C304 C 0.54598 0.44211 0.22019 0.0
H305 H 0.59344 0.46939 0.1888 0.0
H306 H 0.50141 0.66316 0.20247 0.0
H307 H 0.56166 0.6956 0.23754 0.0
H308 H 0.61283 0.64433 0.25157 0.0
H309 H 0.60269 0.55911 0.231 0.0
C310 C 0.56372 0.47422 0.20054 0.0
C311 C 0.53607 0.5082 0.19188 0.0
C312 C 0.54403 0.55904 0.20372 0.0
C313 C 0.51657 0.59027 0.19504 0.0
C314 C 0.5228 0.63904 0.20783 0.0
C315 C 0.55706 0.65798 0.22805 0.0
C316 C 0.58572 0.62896 0.236 0.0
C317 C 0.57936 0.57998 0.22408 0.0
H318 H 0.3451 0.83004 0.82674 0.0
C319 C 0.37363 0.82007 0.81636 0.0
H320 H 0.46112 0.84472 0.80757 0.0
H321 H 0.57969 0.11502 0.82371 0.0
H322 H 0.58524 0.10951 0.78168 0.0
H323 H 0.53355 0.01423 0.76124 0.0
H324 H 0.4763 0.92393 0.78269 0.0
C325 C 0.43254 0.85563 0.81742 0.0
C326 C 0.46111 0.9128 0.83011 0.0
C327 C 0.49395 0.96533 0.81726 0.0
C328 C 0.52279 0.02035 0.82899 0.0
C329 C 0.55598 0.07204 0.81569 0.0
C330 C 0.55975 0.06955 0.79154 0.0
C331 C 0.53075 0.01592 0.78003 0.0
C332 C 0.49816 0.96433 0.79262 0.0
H333 H 0.61062 0.07648 0.88392 0.0
C334 C 0.59277 0.10405 0.87855 0.0
H335 H 0.52578 0.10878 0.85988 0.0
H336 H 0.40864 0.82031 0.86048 0.0
H337 H 0.40031 0.82618 0.90239 0.0
H338 H 0.44388 0.92201 0.92233 0.0
H339 H 0.49805 0.01269 0.9006 0.0
C340 C 0.54408 0.08152 0.86502 0.0
C341 C 0.51825 0.023 0.85356 0.0
C342 C 0.48567 0.97055 0.86648 0.0
C343 C 0.45805 0.91526 0.8548 0.0
C344 C 0.42834 0.86349 0.86828 0.0
C345 C 0.42356 0.86622 0.89239 0.0
C346 C 0.44832 0.92019 0.90363 0.0
C347 C 0.47931 0.9719 0.89094 0.0
H348 H 0.9476 0.51113 0.52643 0.0
C349 C 0.93361 0.49374 0.54393 0.0
H350 H 0.95855 0.46722 0.57475 0.0
H351 H 0.12292 0.48854 0.48051 0.0
H352 H 0.03521 0.40168 0.46683 0.0
H353 H 0.94451 0.35578 0.49043 0.0
H354 H 0.94093 0.39787 0.52773 0.0
C355 C 0.97025 0.48385 0.55711 0.0
C356 C 0.02885 0.49815 0.54746 0.0
C357 C 0.03183 0.4708 0.52657 0.0
C358 C 0.08515 0.49553 0.5136 0.0
C359 C 0.08478 0.47043 0.49169 0.0
C360 C 0.03444 0.42057 0.48352 0.0
C361 C 0.98331 0.39485 0.49675 0.0
C362 C 0.98172 0.41958 0.51802 0.0
H363 H 0.2149 0.51598 0.50568 0.0
C364 C 0.22389 0.5589 0.49979 0.0
H365 H 0.20023 0.6243 0.50331 0.0
H366 H 0.04087 0.55305 0.58928 0.0
H367 H 0.13129 0.63329 0.60539 0.0
H368 H 0.22493 0.674 0.58385 0.0
H369 H 0.22892 0.63431 0.54605 0.0
C370 C 0.189 0.57959 0.50722 0.0
C371 C 0.13646 0.54564 0.52236 0.0
C372 C 0.13507 0.56828 0.54468 0.0
C373 C 0.08117 0.54458 0.55723 0.0
C374 C 0.08069 0.56933 0.57909 0.0
C375 C 0.13224 0.61541 0.58853 0.0
C376 C 0.18501 0.63827 0.5764 0.0
C377 C 0.18666 0.61526 0.5547 0.0
H378 H 0.69386 0.5076 0.87131 0.0
C379 C 0.66346 0.46341 0.87732 0.0
H380 H 0.57553 0.3929 0.87686 0.0
H381 H 0.45101 0.54194 0.86756 0.0
H382 H 0.43022 0.51073 0.90786 0.0
H383 H 0.4775 0.46065 0.92677 0.0
H384 H 0.54598 0.44166 0.90552 0.0
C385 C 0.60589 0.43765 0.87149 0.0
C386 C 0.57957 0.46979 0.85993 0.0
C387 C 0.5392 0.48016 0.87257 0.0
C388 C 0.51182 0.50892 0.86167 0.0
C389 C 0.47262 0.51974 0.87487 0.0
C390 C 0.46037 0.50219 0.89806 0.0
C391 C 0.48698 0.47398 0.9087 0.0
C392 C 0.52608 0.46316 0.89624 0.0
H393 H 0.4168 0.48757 0.81933 0.0
C394 C 0.44372 0.53514 0.81921 0.0
H395 H 0.52815 0.60815 0.82613 0.0
H396 H 0.65001 0.45144 0.82996 0.0
H397 H 0.67015 0.48221 0.78953 0.0
H398 H 0.6247 0.53452 0.771 0.0
H399 H 0.55805 0.55566 0.79271 0.0
C400 C 0.49949 0.56101 0.82731 0.0
C401 C 0.52462 0.52702 0.83811 0.0
C402 C 0.56453 0.51626 0.82539 0.0
C403 C 0.59161 0.48703 0.83622 0.0
C404 C 0.6294 0.47476 0.8228 0.0
C405 C 0.64114 0.49196 0.79954 0.0
C406 C 0.61556 0.52144 0.7891 0.0
C407 C 0.57754 0.53344 0.80177 0.0
H408 H 0.52172 0.17594 0.55389 0.0
C409 C 0.56527 0.20243 0.54634 0.0
H410 H 0.62575 0.20535 0.52125 0.0
H411 H 0.53936 0.93616 0.53837 0.0
H412 H 0.61092 0.97683 0.56976 0.0
H413 H 0.65587 0.08111 0.5808 0.0
H414 H 0.6295 0.14531 0.56048 0.0
C415 C 0.58319 0.17918 0.52954 0.0
C416 C 0.551 0.11529 0.52424 0.0
C417 C 0.56626 0.07806 0.53652 0.0
C418 C 0.53994 0.01783 0.53027 0.0
C419 C 0.55714 0.98206 0.54254 0.0
C420 C 0.59842 1.00487 0.56058 0.0
C421 C 0.62377 0.06357 0.56678 0.0
C422 C 0.60818 0.09996 0.55493 0.0
H423 H 0.50706 0.94565 0.47171 0.0
C424 C 0.48328 0.91369 0.4853 0.0
H425 H 0.44741 0.89974 0.5191 0.0
H426 H 0.51234 0.17486 0.49742 0.0
H427 H 0.43878 0.13403 0.46647 0.0
H428 H 0.39029 0.02881 0.45649 0.0
H429 H 0.41563 0.96387 0.47704 0.0
C430 C 0.47151 0.93153 0.50555 0.0
C431 C 0.49824 0.9948 0.51175 0.0
C432 C 0.48195 0.0318 0.49983 0.0
C433 C 0.50889 0.0923 0.50595 0.0
C434 C 0.49285 0.12859 0.49352 0.0
C435 C 0.45067 0.1057 0.47578 0.0
C436 C 0.4234 0.04644 0.47015 0.0
C437 C 0.43859 1.00968 0.48199 0.0
H438 H 0.0804 0.59794 0.14145 0.0
C439 C 0.1082 0.58389 0.15011 0.0
H440 H 0.11108 0.52481 0.1743 0.0
H441 H 0.90374 0.50278 0.23615 0.0
H442 H 0.98628 0.58066 0.25719 0.0
H443 H 0.08633 0.62946 0.24049 0.0
H444 H 0.1044 0.60059 0.20262 0.0
C445 C 0.08418 0.53981 0.16566 0.0
C446 C 0.02265 0.51462 0.1741 0.0
C447 C 1.0127 0.53233 0.19616 0.0
C448 C 0.95495 0.50456 0.20567 0.0
C449 C 0.94654 0.52272 0.22792 0.0
C450 C 0.99359 0.56732 0.24024 0.0
C451 C 0.04992 0.59475 0.23085 0.0
C452 C 0.05967 0.57762 0.20911 0.0
H453 H 0.84003 0.34886 0.20949 0.0
C454 C 0.82066 0.37641 0.21238 0.0
H455 H 0.82755 0.45856 0.20566 0.0
H456 H 0.02673 0.47068 0.13139 0.0
H457 H 0.94349 0.39546 0.10948 0.0
H458 H 0.8427 0.34928 0.12543 0.0
H459 H 0.82452 0.37755 0.1635 0.0
C460 C 0.84705 0.43097 0.2034 0.0
C461 C 0.90715 0.45901 0.19312 0.0
C462 C 0.91679 0.4424 0.17075 0.0
C463 C 0.97477 0.46993 0.16131 0.0
C464 C 0.98349 0.45162 0.13921 0.0
C465 C 0.93612 0.40852 0.12648 0.0
C466 C 0.87936 0.38251 0.13546 0.0
C467 C 0.86954 0.39901 0.15735 0.0
H468 H 0.57108 0.87537 0.39829 0.0
C469 C 0.52423 0.85319 0.39428 0.0
H470 H 0.45524 0.8583 0.37737 0.0
H471 H 0.56508 0.12923 0.37537 0.0
H472 H 0.5064 0.10689 0.41056 0.0
H473 H 0.46192 1.0087 0.42841 0.0
H474 H 0.47595 0.9324 0.41135 0.0
C475 C 0.50244 0.87952 0.38055 0.0
C476 C 0.5381 0.94101 0.37193 0.0
C477 C 0.52948 0.98534 0.38202 0.0
C478 C 0.55496 0.04192 0.37162 0.0
C479 C 0.54606 0.08531 0.38233 0.0
C480 C 0.51268 0.07316 0.40258 0.0
C481 C 0.48763 0.0179 0.41265 0.0
C482 C 0.49579 0.97438 0.4026 0.0
H483 H 0.53352 0.097 0.32529 0.0
C484 C 0.58038 0.1283 0.3271 0.0
H485 H 0.66159 0.14184 0.34058 0.0
H486 H 0.5658 0.8674 0.34878 0.0
H487 H 0.62734 0.89063 0.3144 0.0
H488 H 0.67234 0.98887 0.29657 0.0
H489 H 0.65582 0.06448 0.31289 0.0
C490 C 0.61423 0.11284 0.33955 0.0
C491 C 0.58895 0.05419 0.35101 0.0
C492 C 0.60003 1.0108 0.3416 0.0
C493 C 0.57433 0.95409 0.35198 0.0
C494 C 0.58459 0.91117 0.34171 0.0
C495 C 0.61978 0.92393 0.32197 0.0
C496 C 0.64514 0.97927 0.31193 0.0
C497 C 0.6354 0.0223 0.3215 0.0
H498 H 0.94111 0.44444 0.98125 0.0
C499 C 0.90725 0.45502 0.98579 0.0
H500 H 0.88799 0.51223 1.00468 0.0
H501 H 0.0857 0.58781 0.08138 0.0
H502 H 0.99669 0.53663 0.10413 0.0
H503 H 0.89927 0.48282 0.085 0.0
H504 H 0.89037 0.48119 0.04289 0.0
C505 C 0.92121 0.50093 1.0001 0.0
C506 C 0.9805 0.53547 1.01147 0.0
C507 C 0.98502 0.5367 0.03621 0.0
C508 C 0.04135 0.5676 0.0473 0.0
C509 C 0.04435 0.56617 0.07197 0.0
C510 C 0.99346 0.53643 0.08531 0.0
C511 C 0.93862 0.50633 0.07453 0.0
C512 C 0.93418 0.50601 0.0503 0.0
H513 H 0.1559 0.69322 0.06214 0.0
C514 C 0.17813 0.66856 0.0587 0.0
H515 H 0.17541 0.59699 0.04088 0.0
H516 H 0.98748 0.55172 0.96407 0.0
H517 H 0.07665 0.60486 0.94131 0.0
H518 H 0.17429 0.65517 0.96045 0.0
H519 H 0.18321 0.65312 1.00256 0.0
C520 C 0.15262 0.62094 0.04466 0.0
C521 C 0.09324 0.59755 0.03366 0.0
C522 C 0.08852 0.59822 1.00901 0.0
C523 C 0.03219 0.56798 0.99792 0.0
C524 C 0.02906 0.57181 0.97336 0.0
C525 C 0.07994 0.6027 0.96008 0.0
C526 C 0.13491 0.63107 0.97085 0.0
C527 C 0.13942 0.62927 0.99502 0.0
H528 H 0.34732 0.46227 0.72823 0.0
C529 C 0.3783 0.50915 0.72784 0.0
H530 H 0.46128 0.57686 0.71635 0.0
H531 H 0.54567 0.38425 0.71289 0.0
H532 H 0.53548 0.38032 0.75499 0.0
H533 H 0.48607 0.42697 0.77478 0.0
H534 H 0.44747 0.47881 0.7527 0.0
C535 C 0.43093 0.52987 0.71721 0.0
C536 C 0.4503 0.49202 0.70527 0.0
C537 C 0.4721 0.46126 0.71841 0.0
C538 C 0.50036 0.43397 0.70691 0.0
C539 C 0.52323 0.40513 0.72061 0.0
C540 C 0.51783 0.40265 0.74481 0.0
C541 C 0.49011 0.42903 0.75597 0.0
C542 C 0.46792 0.45849 0.74305 0.0
H543 H 0.60486 0.49199 0.65639 0.0
C544 C 0.58942 0.4454 0.65815 0.0
H545 H 0.52367 0.36534 0.67255 0.0
H546 H 0.41037 0.54422 0.67489 0.0
H547 H 0.41667 0.5449 0.63264 0.0
H548 H 0.4612 0.49375 0.61258 0.0
H549 H 0.50043 0.44241 0.63459 0.0
C550 C 0.53993 0.41189 0.67048 0.0
C551 C 0.50685 0.43742 0.68227 0.0
C552 C 0.48176 0.46518 0.66906 0.0
C553 C 0.4545 0.49332 0.6806 0.0
C554 C 0.43153 0.52222 0.667 0.0
C555 C 0.43456 0.52268 0.64274 0.0
C556 C 0.45971 0.49396 0.63146 0.0
C557 C 0.48268 0.46514 0.64434 0.0
H558 H 0.11185 0.60406 0.72984 0.0
C559 C 0.13512 0.59583 0.71604 0.0
H560 H 0.13539 0.57543 0.68052 0.0
H561 H 0.85329 0.49586 0.69028 0.0
H562 H 0.84738 0.43533 0.72333 0.0
H563 H 0.93694 0.43906 0.73907 0.0
H564 H 0.03267 0.5044 0.7226 0.0
C565 C 0.11207 0.58359 0.69428 0.0
C566 C 0.05711 0.5837 0.68704 0.0
C567 C 1.0011 0.54277 0.69632 0.0
C568 C 0.94882 0.53735 0.68618 0.0
C569 C 0.89381 0.49917 0.69663 0.0
C570 C 0.88989 0.46459 0.71565 0.0
C571 C 0.94035 0.46691 0.72458 0.0
C572 C 0.99533 0.5052 0.71504 0.0
H573 H 0.88446 0.46385 0.64849 0.0
C574 C 0.86877 0.49314 0.64291 0.0
H575 H 0.8845 0.57985 0.64495 0.0
H576 H 0.15657 0.67451 0.66811 0.0
H577 H 0.16131 0.73499 0.63533 0.0
H578 H 0.07053 0.71904 0.61567 0.0
H579 H 0.97434 0.64358 0.62903 0.0
C580 C 0.89793 0.54891 0.65055 0.0
C581 C 0.95192 0.5686 0.66553 0.0
C582 C 1.00775 0.61273 0.65748 0.0
C583 C 0.06025 0.62078 0.66843 0.0
C584 C 0.11541 0.66565 0.66013 0.0
C585 C 0.11874 0.70087 0.64142 0.0
C586 C 0.06761 0.69191 0.63035 0.0
C587 C 1.01266 0.64831 0.63816 0.0
H588 H 0.4568 0.31552 0.30822 0.0
C589 C 0.50345 0.33965 0.31259 0.0
H590 H 0.57183 0.41181 0.33065 0.0
H591 H 0.46568 0.57617 0.33281 0.0
H592 H 0.52139 0.61009 0.29685 0.0
H593 H 0.56288 0.55415 0.27834 0.0
H594 H 0.54872 0.46401 0.29551 0.0
C595 C 0.52483 0.38668 0.32696 0.0
C596 C 0.48957 0.41294 0.3357 0.0
C597 C 0.49813 0.46572 0.32553 0.0
C598 C 0.47442 0.49811 0.33632 0.0
C599 C 0.48334 0.55028 0.32555 0.0
C600 C 0.51506 0.57015 0.30486 0.0
C601 C 0.53843 0.5387 0.29443 0.0
C602 C 0.53021 0.48712 0.30454 0.0
H603 H 0.49952 0.57621 0.38318 0.0
C604 C 0.45281 0.56146 0.3814 0.0
H605 H 0.37093 0.49469 0.36808 0.0
H606 H 0.46196 0.31208 0.35895 0.0
H607 H 0.4035 0.27618 0.39423 0.0
H608 H 0.36174 0.33173 0.41283 0.0
H609 H 0.37845 0.42376 0.39641 0.0
C610 C 0.41817 0.51216 0.36906 0.0
C611 C 0.44223 0.47782 0.35739 0.0
C612 C 0.43111 0.42348 0.36691 0.0
C613 C 0.45502 0.39119 0.35612 0.0
C614 C 0.44466 0.33809 0.36641 0.0
C615 C 0.41117 0.31701 0.38663 0.0
C616 C 0.38763 0.34829 0.3971 0.0
C617 C 0.39744 0.40098 0.38747 0.0
H618 H 0.70165 0.14432 0.97121 0.0
C619 C 0.67361 0.16353 0.973 0.0
H620 H 0.59693 0.15647 0.98812 0.0
H621 H 0.5067 0.87637 0.9935 0.0
H622 H 0.5151 0.87884 0.9514 0.0
H623 H 0.56346 0.97296 0.93032 0.0
H624 H 0.60272 0.06493 0.95109 0.0
C625 C 0.62413 0.13641 0.98596 0.0
C626 C 0.60395 0.07991 0.99854 0.0
C627 C 0.58081 0.02624 0.98605 0.0
C628 C 0.55279 0.97182 0.99827 0.0
C629 C 0.52904 0.91896 0.98525 0.0
C630 C 0.53332 0.91968 0.96103 0.0
C631 C 0.56042 0.97264 0.94915 0.0
C632 C 0.58328 0.02532 0.96137 0.0
H633 H 0.45056 0.92764 0.05029 0.0
C634 C 0.46637 0.8969 0.04796 0.0
H635 H 0.5322 0.88333 0.03307 0.0
H636 H 0.64687 0.17452 0.02783 0.0
H637 H 0.64245 0.17244 0.07011 0.0
H638 H 0.59705 0.0785 0.09134 0.0
H639 H 0.55525 0.98615 0.07045 0.0
C640 C 0.51571 0.9134 0.03539 0.0
C641 C 0.54742 0.97098 0.02295 0.0
C642 C 0.57332 0.02478 0.03549 0.0
C643 C 0.60077 0.0791 0.02326 0.0
C644 C 0.62527 0.13205 0.03622 0.0
C645 C 0.62335 0.13152 0.06051 0.0
C646 C 0.59774 0.07863 0.07245 0.0
C647 C 0.57332 0.02582 0.06021 0.0
loop_
_geom_bond_atom_site_label_1
_geom_bond_atom_site_label_2
_geom_bond_distance
_geom_bond_site_symmetry_2
_ccdc_geom_bond_type
C0 C1 1.351 . S
C0 N3 1.368 . S
C0 H5 0.931 . S
C1 C0 1.351 . S
C1 N2 1.373 . S
C1 H29 0.930 . S
N2 C1 1.373 . S
N2 C4 1.340 . S
N3 C0 1.368 . S
N3 C4 1.321 . S
N3 Co6 2.135 . S
C4 N2 1.340 . S
C4 N3 1.321 . S
C4 H28 0.930 . S
H5 C0 0.931 . S
Co6 N3 2.135 . S
Co6 N9 2.121 . S
Co6 O14 2.055 . S
Co6 O17 2.039 . S
Co6 N20 2.140 . S
C7 O8 1.227 . S
C7 O17 1.265 . S
O8 C7 1.227 . S
N9 Co6 2.121 . S
N9 C11 1.375 . S
N9 C12 1.313 . S
C10 C11 1.338 . S
C10 N13 1.377 . S
C10 H30 0.930 . S
C11 N9 1.375 . S
C11 C10 1.338 . S
C11 H15 0.931 . S
C12 N9 1.313 . S
C12 N13 1.344 . S
C12 H16 0.930 . S
N13 C10 1.377 . S
N13 C12 1.344 . S
O14 Co6 2.055 . S
O14 C18 1.253 . S
H15 C11 0.931 . S
H16 C12 0.930 . S
O17 Co6 2.039 . S
O17 C7 1.265 . S
C18 O14 1.253 . S
C18 O19 1.227 . S
O19 C18 1.227 . S
N20 Co6 2.140 . S
N20 C23 1.346 . S
N20 C24 1.345 . S
C21 C22 1.387 . S
C21 C25 1.391 . S
C22 C21 1.387 . S
C22 C23 1.369 . S
C22 H31 0.929 . S
C23 N20 1.346 . S
C23 C22 1.369 . S
C23 H26 0.928 . S
C24 N20 1.345 . S
C24 C25 1.371 . S
C24 H27 0.931 . S
C25 C21 1.391 . S
C25 C24 1.371 . S
C25 H32 0.930 . S
H26 C23 0.928 . S
H27 C24 0.931 . S
H28 C4 0.930 . S
H29 C1 0.930 . S
H30 C10 0.930 . S
H31 C22 0.929 . S
H32 C25 0.930 . S
C33 C34 1.351 . S
C33 N36 1.368 . S
C33 H38 0.931 . S
C34 C33 1.351 . S
C34 N35 1.373 . S
C34 H62 0.930 . S
N35 C34 1.373 . S
N35 C37 1.340 . S
N36 C33 1.368 . S
N36 C37 1.321 . S
N36 Co39 2.135 . S
C37 N35 1.340 . S
C37 N36 1.321 . S
C37 H61 0.930 . S
H38 C33 0.931 . S
Co39 N36 2.135 . S
Co39 N42 2.121 . S
Co39 O47 2.055 . S
Co39 O50 2.039 . S
Co39 N53 2.140 . S
C40 O41 1.227 . S
C40 O50 1.265 . S
O41 C40 1.227 . S
N42 Co39 2.121 . S
N42 C44 1.375 . S
N42 C45 1.313 . S
C43 C44 1.338 . S
C43 N46 1.377 . S
C43 H63 0.930 . S
C44 N42 1.375 . S
C44 C43 1.338 . S
C44 H48 0.931 . S
C45 N42 1.313 . S
C45 N46 1.344 . S
C45 H49 0.930 . S
N46 C43 1.377 . S
N46 C45 1.344 . S
O47 Co39 2.055 . S
O47 C51 1.253 . S
H48 C44 0.931 . S
H49 C45 0.930 . S
O50 Co39 2.039 . S
O50 C40 1.265 . S
C51 O47 1.253 . S
C51 O52 1.227 . S
O52 C51 1.227 . S
N53 Co39 2.140 . S
N53 C56 1.346 . S
N53 C57 1.345 . S
C54 C55 1.387 . S
C54 C58 1.391 . S
C55 C54 1.387 . S
C55 C56 1.369 . S
C55 H64 0.929 . S
C56 N53 1.346 . S
C56 C55 1.369 . S
C56 H59 0.928 . S
C57 N53 1.345 . S
C57 C58 1.371 . S
C57 H60 0.931 . S
C58 C54 1.391 . S
C58 C57 1.371 . S
C58 H65 0.930 . S
H59 C56 0.928 . S
H60 C57 0.931 . S
H61 C37 0.930 . S
H62 C34 0.930 . S
H63 C43 0.930 . S
H64 C55 0.929 . S
H65 C58 0.930 . S
C66 C67 1.351 . S
C66 N69 1.368 . S
C66 H71 0.931 . S
C67 C66 1.351 . S
C67 N68 1.373 . S
C67 H95 0.930 . S
N68 C67 1.373 . S
N68 C70 1.340 . S
N69 C66 1.368 . S
N69 C70 1.321 . S
N69 Co72 2.135 . S
C70 N68 1.340 . S
C70 N69 1.321 . S
C70 H94 0.930 . S
H71 C66 0.931 . S
Co72 N69 2.135 . S
Co72 N75 2.121 . S
Co72 O80 2.055 . S
Co72 O83 2.039 . S
Co72 N86 2.140 . S
C73 O74 1.227 . S
C73 O83 1.265 . S
O74 C73 1.227 . S
N75 Co72 2.121 . S
N75 C77 1.375 . S
N75 C78 1.313 . S
C76 C77 1.338 . S
C76 N79 1.377 . S
C76 H96 0.930 . S
C77 N75 1.375 . S
C77 C76 1.338 . S
C77 H81 0.931 . S
C78 N75 1.313 . S
C78 N79 1.344 . S
C78 H82 0.930 . S
N79 C76 1.377 . S
N79 C78 1.344 . S
O80 Co72 2.055 . S
O80 C84 1.253 . S
H81 C77 0.931 . S
H82 C78 0.930 . S
O83 Co72 2.039 . S
O83 C73 1.265 . S
C84 O80 1.253 . S
C84 O85 1.227 . S
O85 C84 1.227 . S
N86 Co72 2.140 . S
N86 C89 1.346 . S
N86 C90 1.345 . S
C87 C88 1.387 . S
C87 C91 1.391 . S
C88 C87 1.387 . S
C88 C89 1.369 . S
C88 H97 0.929 . S
C89 N86 1.346 . S
C89 C88 1.369 . S
C89 H92 0.928 . S
C90 N86 1.345 . S
C90 C91 1.371 . S
C90 H93 0.931 . S
C91 C87 1.391 . S
C91 C90 1.371 . S
C91 H98 0.930 . S
H92 C89 0.928 . S
H93 C90 0.931 . S
H94 C70 0.930 . S
H95 C67 0.930 . S
H96 C76 0.930 . S
H97 C88 0.929 . S
H98 C91 0.930 . S
C99 C100 1.351 . S
C99 N102 1.368 . S
C99 H104 0.931 . S
C100 C99 1.351 . S
C100 N101 1.373 . S
C100 H128 0.930 . S
N101 C100 1.373 . S
N101 C103 1.340 . S
N102 C99 1.368 . S
N102 C103 1.321 . S
N102 Co105 2.135 . S
C103 N101 1.340 . S
C103 N102 1.321 . S
C103 H127 0.930 . S
H104 C99 0.931 . S
Co105 N102 2.135 . S
Co105 N108 2.121 . S
Co105 O113 2.055 . S
Co105 O116 2.039 . S
Co105 N119 2.140 . S
C106 O107 1.227 . S
C106 O116 1.265 . S
O107 C106 1.227 . S
N108 Co105 2.121 . S
N108 C110 1.375 . S
N108 C111 1.313 . S
C109 C110 1.338 . S
C109 N112 1.377 . S
C109 H129 0.930 . S
C110 N108 1.375 . S
C110 C109 1.338 . S
C110 H114 0.931 . S
C111 N108 1.313 . S
C111 N112 1.344 . S
C111 H115 0.930 . S
N112 C109 1.377 . S
N112 C111 1.344 . S
O113 Co105 2.055 . S
O113 C117 1.253 . S
H114 C110 0.931 . S
H115 C111 0.930 . S
O116 Co105 2.039 . S
O116 C106 1.265 . S
C117 O113 1.253 . S
C117 O118 1.227 . S
O118 C117 1.227 . S
N119 Co105 2.140 . S
N119 C122 1.346 . S
N119 C123 1.345 . S
C120 C121 1.387 . S
C120 C124 1.391 . S
C121 C120 1.387 . S
C121 C122 1.369 . S
C121 H130 0.929 . S
C122 N119 1.346 . S
C122 C121 1.369 . S
C122 H125 0.928 . S
C123 N119 1.345 . S
C123 C124 1.371 . S
C123 H126 0.931 . S
C124 C120 1.391 . S
C124 C123 1.371 . S
C124 H131 0.930 . S
H125 C122 0.928 . S
H126 C123 0.931 . S
H127 C103 0.930 . S
H128 C100 0.930 . S
H129 C109 0.930 . S
H130 C121 0.929 . S
H131 C124 0.930 . S
C132 C133 1.351 . S
C132 N135 1.368 . S
C132 H137 0.931 . S
C133 C132 1.351 . S
C133 N134 1.373 . S
C133 H161 0.930 . S
N134 C133 1.373 . S
N134 C136 1.340 . S
N135 C132 1.368 . S
N135 C136 1.321 . S
N135 Co138 2.135 . S
C136 N134 1.340 . S
C136 N135 1.321 . S
C136 H160 0.930 . S
H137 C132 0.931 . S
Co138 N135 2.135 . S
Co138 N141 2.121 . S
Co138 O146 2.055 . S
Co138 O149 2.039 . S
Co138 N152 2.140 . S
C139 O140 1.227 . S
C139 O149 1.265 . S
O140 C139 1.227 . S
N141 Co138 2.121 . S
N141 C143 1.375 . S
N141 C144 1.313 . S
C142 C143 1.338 . S
C142 N145 1.377 . S
C142 H162 0.930 . S
C143 N141 1.375 . S
C143 C142 1.338 . S
C143 H147 0.931 . S
C144 N141 1.313 . S
C144 N145 1.344 . S
C144 H148 0.930 . S
N145 C142 1.377 . S
N145 C144 1.344 . S
O146 Co138 2.055 . S
O146 C150 1.253 . S
H147 C143 0.931 . S
H148 C144 0.930 . S
O149 Co138 2.039 . S
O149 C139 1.265 . S
C150 O146 1.253 . S
C150 O151 1.227 . S
O151 C150 1.227 . S
N152 Co138 2.140 . S
N152 C155 1.346 . S
N152 C156 1.345 . S
C153 C154 1.387 . S
C153 C157 1.391 . S
C154 C153 1.387 . S
C154 C155 1.369 . S
C154 H163 0.929 . S
C155 N152 1.346 . S
C155 C154 1.369 . S
C155 H158 0.928 . S
C156 N152 1.345 . S
C156 C157 1.371 . S
C156 H159 0.931 . S
C157 C153 1.391 . S
C157 C156 1.371 . S
C157 H164 0.930 . S
H158 C155 0.928 . S
H159 C156 0.931 . S
H160 C136 0.930 . S
H161 C133 0.930 . S
H162 C142 0.930 . S
H163 C154 0.929 . S
H164 C157 0.930 . S
C165 C166 1.351 . S
C165 N168 1.368 . S
C165 H170 0.931 . S
C166 C165 1.351 . S
C166 N167 1.373 . S
C166 H194 0.930 . S
N167 C166 1.373 . S
N167 C169 1.340 . S
N168 C165 1.368 . S
N168 C169 1.321 . S
N168 Co171 2.135 . S
C169 N167 1.340 . S
C169 N168 1.321 . S
C169 H193 0.930 . S
H170 C165 0.931 . S
Co171 N168 2.135 . S
Co171 N174 2.121 . S
Co171 O179 2.055 . S
Co171 O182 2.039 . S
Co171 N185 2.140 . S
C172 O173 1.227 . S
C172 O182 1.265 . S
O173 C172 1.227 . S
N174 Co171 2.121 . S
N174 C176 1.375 . S
N174 C177 1.313 . S
C175 C176 1.338 . S
C175 N178 1.377 . S
C175 H195 0.930 . S
C176 N174 1.375 . S
C176 C175 1.338 . S
C176 H180 0.931 . S
C177 N174 1.313 . S
C177 N178 1.344 . S
C177 H181 0.930 . S
N178 C175 1.377 . S
N178 C177 1.344 . S
O179 Co171 2.055 . S
O179 C183 1.253 . S
H180 C176 0.931 . S
H181 C177 0.930 . S
O182 Co171 2.039 . S
O182 C172 1.265 . S
C183 O179 1.253 . S
C183 O184 1.227 . S
O184 C183 1.227 . S
N185 Co171 2.140 . S
N185 C188 1.346 . S
N185 C189 1.345 . S
C186 C187 1.387 . S
C186 C190 1.391 . S
C187 C186 1.387 . S
C187 C188 1.369 . S
C187 H196 0.929 . S
C188 N185 1.346 . S
C188 C187 1.369 . S
C188 H191 0.928 . S
C189 N185 1.345 . S
C189 C190 1.371 . S
C189 H192 0.931 . S
C190 C186 1.391 . S
C190 C189 1.371 . S
C190 H197 0.930 . S
H191 C188 0.928 . S
H192 C189 0.931 . S
H193 C169 0.930 . S
H194 C166 0.930 . S
H195 C175 0.930 . S
H196 C187 0.929 . S
H197 C190 0.930 . S
H198 C199 0.951 . S
C199 H198 0.951 . S
C199 C205 1.265 . S
H200 C205 0.950 . S
H201 C209 0.949 . S
H202 C210 0.950 . S
H203 C211 0.951 . S
H204 C212 0.951 . S
C205 C199 1.265 . S
C205 H200 0.950 . S
C205 C206 1.478 . S
C206 C205 1.478 . S
C206 C207 1.397 . S
C206 C223 1.394 . S
C207 C206 1.397 . S
C207 C208 1.438 1_545 S
C207 C212 1.429 . S
C208 C207 1.438 1_565 S
C208 C209 1.428 . S
C208 C221 1.394 . S
C209 H201 0.949 . S
C209 C208 1.428 . S
C209 C210 1.345 1_565 S
C210 H202 0.950 . S
C210 C209 1.345 1_545 S
C210 C211 1.424 . S
C211 H203 0.951 . S
C211 C210 1.424 . S
C211 C212 1.347 . S
C212 H204 0.951 . S
C212 C207 1.429 . S
C212 C211 1.347 . S
H213 C214 0.951 . S
C214 H213 0.951 . S
C214 C220 1.265 . S
H215 C220 0.950 . S
H216 C224 0.949 . S
H217 C225 0.950 . S
H218 C226 0.951 . S
H219 C227 0.951 . S
C220 C214 1.265 . S
C220 H215 0.950 . S
C220 C221 1.478 . S
C221 C208 1.394 . S
C221 C220 1.478 . S
C221 C222 1.397 . S
C222 C221 1.397 . S
C222 C223 1.438 1_565 S
C222 C227 1.429 . S
C223 C206 1.394 . S
C223 C222 1.438 1_545 S
C223 C224 1.428 . S
C224 H216 0.949 . S
C224 C223 1.428 . S
C224 C225 1.345 1_545 S
C225 H217 0.950 . S
C225 C224 1.345 1_565 S
C225 C226 1.424 . S
C226 H218 0.951 . S
C226 C225 1.424 . S
C226 C227 1.347 . S
C227 H219 0.951 . S
C227 C222 1.429 . S
C227 C226 1.347 . S
H228 C229 0.951 . S
C229 H228 0.951 . S
C229 C235 1.265 . S
H230 C235 0.950 . S
H231 C239 0.949 . S
H232 C240 0.950 . S
H233 C241 0.951 . S
H234 C242 0.951 . S
C235 C229 1.265 . S
C235 H230 0.950 . S
C235 C236 1.478 . S
C236 C235 1.478 . S
C236 C237 1.397 . S
C236 C253 1.394 . S
C237 C236 1.397 . S
C237 C238 1.438 1_455 S
C237 C242 1.429 . S
C238 C237 1.438 1_655 S
C238 C239 1.428 . S
C238 C251 1.394 . S
C239 H231 0.949 . S
C239 C238 1.428 . S
C239 C240 1.345 . S
C240 H232 0.950 . S
C240 C239 1.345 . S
C240 C241 1.424 1_655 S
C241 H233 0.951 . S
C241 C240 1.424 1_455 S
C241 C242 1.347 . S
C242 H234 0.951 . S
C242 C237 1.429 . S
C242 C241 1.347 . S
H243 C244 0.951 . S
C244 H243 0.951 . S
C244 C250 1.265 . S
H245 C250 0.950 . S
H246 C254 0.949 . S
H247 C255 0.950 . S
H248 C256 0.951 . S
H249 C257 0.951 . S
C250 C244 1.265 . S
C250 H245 0.950 . S
C250 C251 1.478 . S
C251 C238 1.394 . S
C251 C250 1.478 . S
C251 C252 1.397 . S
C252 C251 1.397 . S
C252 C253 1.438 1_655 S
C252 C257 1.429 . S
C253 C236 1.394 . S
C253 C252 1.438 1_455 S
C253 C254 1.428 . S
C254 H246 0.949 . S
C254 C253 1.428 . S
C254 C255 1.345 . S
C255 H247 0.950 . S
C255 C254 1.345 . S
C255 C256 1.424 1_455 S
C256 H248 0.951 . S
C256 C255 1.424 1_655 S
C256 C257 1.347 . S
C257 H249 0.951 . S
C257 C252 1.429 . S
C257 C256 1.347 . S
H258 C259 0.951 . S
C259 H258 0.951 . S
C259 C265 1.265 . S
H260 C265 0.950 . S
H261 C269 0.949 . S
H262 C270 0.950 . S
H263 C271 0.951 . S
H264 C272 0.951 . S
C265 C259 1.265 . S
C265 H260 0.950 . S
C265 C266 1.478 . S
C266 C265 1.478 . S
C266 C267 1.397 . S
C266 C283 1.394 . S
C267 C266 1.397 . S
C267 C268 1.438 . S
C267 C272 1.429 . S
C268 C267 1.438 . S
C268 C269 1.428 . S
C268 C281 1.394 . S
C269 H261 0.949 . S
C269 C268 1.428 . S
C269 C270 1.345 . S
C270 H262 0.950 . S
C270 C269 1.345 . S
C270 C271 1.424 . S
C271 H263 0.951 . S
C271 C270 1.424 . S
C271 C272 1.347 . S
C272 H264 0.951 . S
C272 C267 1.429 . S
C272 C271 1.347 . S
H273 C274 0.951 . S
C274 H273 0.951 . S
C274 C280 1.265 . S
H275 C280 0.950 . S
H276 C284 0.949 . S
H277 C285 0.950 . S
H278 C286 0.951 . S
H279 C287 0.951 . S
C280 C274 1.265 . S
C280 H275 0.950 . S
C280 C281 1.478 . S
C281 C268 1.394 . S
C281 C280 1.478 . S
C281 C282 1.397 . S
C282 C281 1.397 . S
C282 C283 1.438 . S
C282 C287 1.429 . S
C283 C266 1.394 . S
C283 C282 1.438 . S
C283 C284 1.428 . S
C284 H276 0.949 . S
C284 C283 1.428 . S
C284 C285 1.345 . S
C285 H277 0.950 . S
C285 C284 1.345 . S
C285 C286 1.424 . S
C286 H278 0.951 . S
C286 C285 1.424 . S
C286 C287 1.347 . S
C287 H279 0.951 . S
C287 C282 1.429 . S
C287 C286 1.347 . S
H288 C289 0.951 . S
C289 H288 0.951 . S
C289 C295 1.265 . S
H290 C295 0.950 . S
H291 C299 0.949 . S
H292 C300 0.950 . S
H293 C301 0.951 . S
H294 C302 0.951 . S
C295 C289 1.265 . S
C295 H290 0.950 . S
C295 C296 1.478 . S
C296 C295 1.478 . S
C296 C297 1.397 . S
C296 C313 1.394 . S
C297 C296 1.397 . S
C297 C298 1.438 . S
C297 C302 1.429 . S
C298 C297 1.438 . S
C298 C299 1.428 . S
C298 C311 1.394 . S
C299 H291 0.949 . S
C299 C298 1.428 . S
C299 C300 1.345 . S
C300 H292 0.950 . S
C300 C299 1.345 . S
C300 C301 1.424 . S
C301 H293 0.951 . S
C301 C300 1.424 . S
C301 C302 1.347 . S
C302 H294 0.951 . S
C302 C297 1.429 . S
C302 C301 1.347 . S
H303 C304 0.951 . S
C304 H303 0.951 . S
C304 C310 1.265 . S
H305 C310 0.950 . S
H306 C314 0.949 . S
H307 C315 0.950 . S
H308 C316 0.951 . S
H309 C317 0.951 . S
C310 C304 1.265 . S
C310 H305 0.950 . S
C310 C311 1.478 . S
C311 C298 1.394 . S
C311 C310 1.478 . S
C311 C312 1.397 . S
C312 C311 1.397 . S
C312 C313 1.438 . S
C312 C317 1.429 . S
C313 C296 1.394 . S
C313 C312 1.438 . S
C313 C314 1.428 . S
C314 H306 0.949 . S
C314 C313 1.428 . S
C314 C315 1.345 . S
C315 H307 0.950 . S
C315 C314 1.345 . S
C315 C316 1.424 . S
C316 H308 0.951 . S
C316 C315 1.424 . S
C316 C317 1.347 . S
C317 H309 0.951 . S
C317 C312 1.429 . S
C317 C316 1.347 . S
H318 C319 0.951 . S
C319 H318 0.951 . S
C319 C325 1.265 . S
H320 C325 0.950 . S
H321 C329 0.949 1_545 S
H322 C330 0.950 1_545 S
H323 C331 0.951 . S
H324 C332 0.951 . S
C325 C319 1.265 . S
C325 H320 0.950 . S
C325 C326 1.478 . S
C326 C325 1.478 . S
C326 C327 1.397 . S
C326 C343 1.394 . S
C327 C326 1.397 . S
C327 C328 1.438 . S
C327 C332 1.429 . S
C328 C327 1.438 . S
C328 C329 1.428 . S
C328 C341 1.394 . S
C329 H321 0.949 1_565 S
C329 C328 1.428 . S
C329 C330 1.345 . S
C330 H322 0.950 1_565 S
C330 C329 1.345 . S
C330 C331 1.424 . S
C331 H323 0.951 . S
C331 C330 1.424 . S
C331 C332 1.347 . S
C332 H324 0.951 . S
C332 C327 1.429 . S
C332 C331 1.347 . S
H333 C334 0.951 . S
C334 H333 0.951 . S
C334 C340 1.265 1_545 S
H335 C340 0.950 . S
H336 C344 0.949 . S
H337 C345 0.950 . S
H338 C346 0.951 . S
H339 C347 0.951 . S
C340 C334 1.265 1_565 S
C340 H335 0.950 . S
C340 C341 1.478 . S
C341 C328 1.394 . S
C341 C340 1.478 . S
C341 C342 1.397 . S
C342 C341 1.397 . S
C342 C343 1.438 . S
C342 C347 1.429 . S
C343 C326 1.394 . S
C343 C342 1.438 . S
C343 C344 1.428 . S
C344 H336 0.949 . S
C344 C343 1.428 . S
C344 C345 1.345 . S
C345 H337 0.950 . S
C345 C344 1.345 . S
C345 C346 1.424 . S
C346 H338 0.951 . S
C346 C345 1.424 . S
C346 C347 1.347 . S
C347 H339 0.951 . S
C347 C342 1.429 . S
C347 C346 1.347 . S
H348 C349 0.951 . S
C349 H348 0.951 . S
C349 C355 1.265 1_655 S
H350 C355 0.950 . S
H351 C359 0.949 . S
H352 C360 0.950 . S
H353 C361 0.951 . S
H354 C362 0.951 . S
C355 C349 1.265 1_455 S
C355 H350 0.950 . S
C355 C356 1.478 . S
C356 C355 1.478 . S
C356 C357 1.397 . S
C356 C373 1.394 . S
C357 C356 1.397 . S
C357 C358 1.438 . S
C357 C362 1.429 . S
C358 C357 1.438 . S
C358 C359 1.428 . S
C358 C371 1.394 . S
C359 H351 0.949 . S
C359 C358 1.428 . S
C359 C360 1.345 . S
C360 H352 0.950 . S
C360 C359 1.345 . S
C360 C361 1.424 . S
C361 H353 0.951 . S
C361 C360 1.424 . S
C361 C362 1.347 . S
C362 H354 0.951 . S
C362 C357 1.429 . S
C362 C361 1.347 . S
H363 C364 0.951 . S
C364 H363 0.951 . S
C364 C370 1.265 . S
H365 C370 0.950 . S
H366 C374 0.949 . S
H367 C375 0.950 . S
H368 C376 0.951 . S
H369 C377 0.951 . S
C370 C364 1.265 . S
C370 H365 0.950 . S
C370 C371 1.478 . S
C371 C358 1.394 . S
C371 C370 1.478 . S
C371 C372 1.397 . S
C372 C371 1.397 . S
C372 C373 1.438 . S
C372 C377 1.429 . S
C373 C356 1.394 . S
C373 C372 1.438 . S
C373 C374 1.428 . S
C374 H366 0.949 . S
C374 C373 1.428 . S
C374 C375 1.345 . S
C375 H367 0.950 . S
C375 C374 1.345 . S
C375 C376 1.424 . S
C376 H368 0.951 . S
C376 C375 1.424 . S
C376 C377 1.347 . S
C377 H369 0.951 . S
C377 C372 1.429 . S
C377 C376 1.347 . S
H378 C379 0.951 . S
C379 H378 0.951 . S
C379 C385 1.265 . S
H380 C385 0.950 . S
H381 C389 0.949 . S
H382 C390 0.950 . S
H383 C391 0.951 . S
H384 C392 0.951 . S
C385 C379 1.265 . S
C385 H380 0.950 . S
C385 C386 1.478 . S
C386 C385 1.478 . S
C386 C387 1.397 . S
C386 C403 1.394 . S
C387 C386 1.397 . S
C387 C388 1.438 . S
C387 C392 1.429 . S
C388 C387 1.438 . S
C388 C389 1.428 . S
C388 C401 1.394 . S
C389 H381 0.949 . S
C389 C388 1.428 . S
C389 C390 1.345 . S
C390 H382 0.950 . S
C390 C389 1.345 . S
C390 C391 1.424 . S
C391 H383 0.951 . S
C391 C390 1.424 . S
C391 C392 1.347 . S
C392 H384 0.951 . S
C392 C387 1.429 . S
C392 C391 1.347 . S
H393 C394 0.951 . S
C394 H393 0.951 . S
C394 C400 1.265 . S
H395 C400 0.950 . S
H396 C404 0.949 . S
H397 C405 0.950 . S
H398 C406 0.951 . S
H399 C407 0.951 . S
C400 C394 1.265 . S
C400 H395 0.950 . S
C400 C401 1.478 . S
C401 C388 1.394 . S
C401 C400 1.478 . S
C401 C402 1.397 . S
C402 C401 1.397 . S
C402 C403 1.438 . S
C402 C407 1.429 . S
C403 C386 1.394 . S
C403 C402 1.438 . S
C403 C404 1.428 . S
C404 H396 0.949 . S
C404 C403 1.428 . S
C404 C405 1.345 . S
C405 H397 0.950 . S
C405 C404 1.345 . S
C405 C406 1.424 . S
C406 H398 0.951 . S
C406 C405 1.424 . S
C406 C407 1.347 . S
C407 H399 0.951 . S
C407 C402 1.429 . S
C407 C406 1.347 . S
H408 C409 0.951 . S
C409 H408 0.951 . S
C409 C415 1.265 . S
H410 C415 0.950 . S
H411 C419 0.949 1_565 S
H412 C420 0.950 1_565 S
H413 C421 0.951 . S
H414 C422 0.951 . S
C415 C409 1.265 . S
C415 H410 0.950 . S
C415 C416 1.478 . S
C416 C415 1.478 . S
C416 C417 1.397 . S
C416 C433 1.394 . S
C417 C416 1.397 . S
C417 C418 1.438 . S
C417 C422 1.429 . S
C418 C417 1.438 . S
C418 C419 1.428 . S
C418 C431 1.394 . S
C419 H411 0.949 1_545 S
C419 C418 1.428 . S
C419 C420 1.345 . S
C420 H412 0.950 1_545 S
C420 C419 1.345 . S
C420 C421 1.424 . S
C421 H413 0.951 . S
C421 C420 1.424 . S
C421 C422 1.347 . S
C422 H414 0.951 . S
C422 C417 1.429 . S
C422 C421 1.347 . S
H423 C424 0.951 . S
C424 H423 0.951 . S
C424 C430 1.265 1_565 S
H425 C430 0.950 . S
H426 C434 0.949 . S
H427 C435 0.950 . S
H428 C436 0.951 . S
H429 C437 0.951 . S
C430 C424 1.265 1_545 S
C430 H425 0.950 . S
C430 C431 1.478 . S
C431 C418 1.394 . S
C431 C430 1.478 . S
C431 C432 1.397 . S
C432 C431 1.397 . S
C432 C433 1.438 . S
C432 C437 1.429 . S
C433 C416 1.394 . S
C433 C432 1.438 . S
C433 C434 1.428 . S
C434 H426 0.949 . S
C434 C433 1.428 . S
C434 C435 1.345 . S
C435 H427 0.950 . S
C435 C434 1.345 . S
C435 C436 1.424 . S
C436 H428 0.951 . S
C436 C435 1.424 . S
C436 C437 1.347 . S
C437 H429 0.951 . S
C437 C432 1.429 . S
C437 C436 1.347 . S
H438 C439 0.951 1_655 S
C439 H438 0.951 1_455 S
C439 C445 1.265 1_455 S
H440 C445 0.950 1_455 S
H441 C449 0.949 . S
H442 C450 0.950 . S
H443 C451 0.951 . S
H444 C452 0.951 . S
C445 C439 1.265 1_655 S
C445 H440 0.950 1_655 S
C445 C446 1.478 . S
C446 C445 1.478 . S
C446 C447 1.397 . S
C446 C463 1.394 . S
C447 C446 1.397 . S
C447 C448 1.438 . S
C447 C452 1.429 . S
C448 C447 1.438 . S
C448 C449 1.428 . S
C448 C461 1.394 . S
C449 H441 0.949 . S
C449 C448 1.428 . S
C449 C450 1.345 . S
C450 H442 0.950 . S
C450 C449 1.345 . S
C450 C451 1.424 . S
C451 H443 0.951 . S
C451 C450 1.424 . S
C451 C452 1.347 . S
C452 H444 0.951 . S
C452 C447 1.429 . S
C452 C451 1.347 . S
H453 C454 0.951 . S
C454 H453 0.951 . S
C454 C460 1.265 . S
H455 C460 0.950 . S
H456 C464 0.949 . S
H457 C465 0.950 . S
H458 C466 0.951 . S
H459 C467 0.951 . S
C460 C454 1.265 . S
C460 H455 0.950 . S
C460 C461 1.478 . S
C461 C448 1.394 . S
C461 C460 1.478 . S
C461 C462 1.397 . S
C462 C461 1.397 . S
C462 C463 1.438 . S
C462 C467 1.429 . S
C463 C446 1.394 . S
C463 C462 1.438 . S
C463 C464 1.428 . S
C464 H456 0.949 . S
C464 C463 1.428 . S
C464 C465 1.345 . S
C465 H457 0.950 . S
C465 C464 1.345 . S
C465 C466 1.424 . S
C466 H458 0.951 . S
C466 C465 1.424 . S
C466 C467 1.347 . S
C467 H459 0.951 . S
C467 C462 1.429 . S
C467 C466 1.347 . S
H468 C469 0.951 . S
C469 H468 0.951 . S
C469 C475 1.265 . S
H470 C475 0.950 . S
H471 C479 0.949 . S
H472 C480 0.950 . S
H473 C481 0.951 . S
H474 C482 0.951 . S
C475 C469 1.265 . S
C475 H470 0.950 . S
C475 C476 1.478 . S
C476 C475 1.478 . S
C476 C477 1.397 . S
C476 C493 1.394 1_565 S
C477 C476 1.397 . S
C477 C478 1.438 1_565 S
C477 C482 1.429 . S
C478 C477 1.438 1_545 S
C478 C479 1.428 . S
C478 C491 1.394 . S
C479 H471 0.949 . S
C479 C478 1.428 . S
C479 C480 1.345 1_545 S
C480 H472 0.950 . S
C480 C479 1.345 1_565 S
C480 C481 1.424 . S
C481 H473 0.951 . S
C481 C480 1.424 . S
C481 C482 1.347 . S
C482 H474 0.951 . S
C482 C477 1.429 . S
C482 C481 1.347 . S
H483 C484 0.951 . S
C484 H483 0.951 . S
C484 C490 1.265 . S
H485 C490 0.950 . S
H486 C494 0.949 . S
H487 C495 0.950 . S
H488 C496 0.951 . S
H489 C497 0.951 . S
C490 C484 1.265 . S
C490 H485 0.950 . S
C490 C491 1.478 . S
C491 C478 1.394 . S
C491 C490 1.478 . S
C491 C492 1.397 . S
C492 C491 1.397 . S
C492 C493 1.438 . S
C492 C497 1.429 . S
C493 C476 1.394 1_545 S
C493 C492 1.438 . S
C493 C494 1.428 . S
C494 H486 0.949 . S
C494 C493 1.428 . S
C494 C495 1.345 . S
C495 H487 0.950 . S
C495 C494 1.345 . S
C495 C496 1.424 . S
C496 H488 0.951 . S
C496 C495 1.424 . S
C496 C497 1.347 . S
C497 H489 0.951 . S
C497 C492 1.429 . S
C497 C496 1.347 . S
H498 C499 0.951 . S
C499 H498 0.951 . S
C499 C505 1.265 . S
H500 C505 0.950 . S
H501 C509 0.949 1_455 S
H502 C510 0.948 1_554 S
H503 C511 0.951 . S
H504 C512 0.951 . S
C505 C499 1.265 . S
C505 H500 0.950 . S
C505 C506 1.478 . S
C506 C505 1.478 . S
C506 C507 1.397 . S
C506 C523 1.419 . S
C507 C506 1.397 . S
C507 C508 1.438 1_556 S
C507 C512 1.429 . S
C508 C507 1.438 1_554 S
C508 C509 1.428 . S
C508 C521 1.394 . S
C509 H501 0.949 1_655 S
C509 C508 1.428 . S
C509 C510 1.345 1_554 S
C510 H502 0.948 1_556 S
C510 C509 1.345 1_556 S
C510 C511 1.424 . S
C511 H503 0.951 . S
C511 C510 1.424 . S
C511 C512 1.347 . S
C512 H504 0.951 . S
C512 C507 1.429 . S
C512 C511 1.347 . S
H513 C514 0.951 . S
C514 H513 0.951 . S
C514 C520 1.265 . S
H515 C520 0.950 . S
H516 C524 0.949 . S
H517 C525 0.950 . S
H518 C526 0.951 1_455 S
H519 C527 0.951 . S
C520 C514 1.265 . S
C520 H515 0.950 . S
C520 C521 1.478 1_455 S
C521 C508 1.394 . S
C521 C520 1.478 1_655 S
C521 C522 1.397 . S
C522 C521 1.397 . S
C522 C523 1.407 1_554 S
C522 C527 1.429 1_655 S
C523 C506 1.419 . S
C523 C522 1.407 1_556 S
C523 C524 1.434 . S
C524 H516 0.949 . S
C524 C523 1.434 . S
C524 C525 1.345 1_556 S
C525 H517 0.950 . S
C525 C524 1.345 1_554 S
C525 C526 1.424 . S
C526 H518 0.951 1_655 S
C526 C525 1.424 . S
C526 C527 1.347 1_655 S
C527 H519 0.951 . S
C527 C522 1.429 1_455 S
C527 C526 1.347 1_455 S
H528 C529 0.951 . S
C529 H528 0.951 . S
C529 C535 1.265 . S
H530 C535 0.950 . S
H531 C539 0.949 . S
H532 C540 0.950 . S
H533 C541 0.951 . S
H534 C542 0.951 . S
C535 C529 1.265 . S
C535 H530 0.950 . S
C535 C536 1.478 . S
C536 C535 1.478 . S
C536 C537 1.397 . S
C536 C553 1.394 . S
C537 C536 1.397 . S
C537 C538 1.438 . S
C537 C542 1.429 . S
C538 C537 1.438 . S
C538 C539 1.428 . S
C538 C551 1.394 . S
C539 H531 0.949 . S
C539 C538 1.428 . S
C539 C540 1.345 . S
C540 H532 0.950 . S
C540 C539 1.345 . S
C540 C541 1.424 . S
C541 H533 0.951 . S
C541 C540 1.424 . S
C541 C542 1.347 . S
C542 H534 0.951 . S
C542 C537 1.429 . S
C542 C541 1.347 . S
H543 C544 0.951 . S
C544 H543 0.951 . S
C544 C550 1.265 . S
H545 C550 0.950 . S
H546 C554 0.949 . S
H547 C555 0.950 . S
H548 C556 0.951 . S
H549 C557 0.951 . S
C550 C544 1.265 . S
C550 H545 0.950 . S
C550 C551 1.478 . S
C551 C538 1.394 . S
C551 C550 1.478 . S
C551 C552 1.397 . S
C552 C551 1.397 . S
C552 C553 1.438 . S
C552 C557 1.429 . S
C553 C536 1.394 . S
C553 C552 1.438 . S
C553 C554 1.428 . S
C554 H546 0.949 . S
C554 C553 1.428 . S
C554 C555 1.345 . S
C555 H547 0.950 . S
C555 C554 1.345 . S
C555 C556 1.424 . S
C556 H548 0.951 . S
C556 C555 1.424 . S
C556 C557 1.347 . S
C557 H549 0.951 . S
C557 C552 1.429 . S
C557 C556 1.347 . S
H558 C559 0.951 . S
C559 H558 0.951 . S
C559 C565 1.265 . S
H560 C565 0.950 . S
H561 C569 0.949 . S
H562 C570 0.950 . S
H563 C571 0.951 . S
H564 C572 0.951 1_455 S
C565 C559 1.265 . S
C565 H560 0.950 . S
C565 C566 1.478 . S
C566 C565 1.478 . S
C566 C567 1.397 . S
C566 C583 1.394 . S
C567 C566 1.397 . S
C567 C568 1.438 1_455 S
C567 C572 1.429 1_455 S
C568 C567 1.438 1_655 S
C568 C569 1.428 . S
C568 C581 1.394 . S
C569 H561 0.949 . S
C569 C568 1.428 . S
C569 C570 1.345 . S
C570 H562 0.950 . S
C570 C569 1.345 . S
C570 C571 1.424 . S
C571 H563 0.951 . S
C571 C570 1.424 . S
C571 C572 1.347 . S
C572 H564 0.951 1_655 S
C572 C567 1.429 1_655 S
C572 C571 1.347 . S
H573 C574 0.951 . S
C574 H573 0.951 . S
C574 C580 1.265 . S
H575 C580 0.950 . S
H576 C584 0.949 . S
H577 C585 0.950 . S
H578 C586 0.951 . S
H579 C587 0.951 . S
C580 C574 1.265 . S
C580 H575 0.950 . S
C580 C581 1.478 . S
C581 C568 1.394 . S
C581 C580 1.478 . S
C581 C582 1.397 1_655 S
C582 C581 1.397 1_455 S
C582 C583 1.438 . S
C582 C587 1.429 . S
C583 C566 1.394 . S
C583 C582 1.438 . S
C583 C584 1.428 . S
C584 H576 0.949 . S
C584 C583 1.428 . S
C584 C585 1.345 . S
C585 H577 0.950 . S
C585 C584 1.345 . S
C585 C586 1.424 . S
C586 H578 0.951 . S
C586 C585 1.424 . S
C586 C587 1.347 . S
C587 H579 0.951 . S
C587 C582 1.429 . S
C587 C586 1.347 . S
H588 C589 0.951 . S
C589 H588 0.951 . S
C589 C595 1.265 . S
H590 C595 0.950 . S
H591 C599 0.949 . S
H592 C600 0.950 . S
H593 C601 0.951 . S
H594 C602 0.951 . S
C595 C589 1.265 . S
C595 H590 0.950 . S
C595 C596 1.478 . S
C596 C595 1.478 . S
C596 C597 1.397 . S
C596 C613 1.394 . S
C597 C596 1.397 . S
C597 C598 1.438 . S
C597 C602 1.429 . S
C598 C597 1.438 . S
C598 C599 1.428 . S
C598 C611 1.394 . S
C599 H591 0.949 . S
C599 C598 1.428 . S
C599 C600 1.345 . S
C600 H592 0.950 . S
C600 C599 1.345 . S
C600 C601 1.424 . S
C601 H593 0.951 . S
C601 C600 1.424 . S
C601 C602 1.347 . S
C602 H594 0.951 . S
C602 C597 1.429 . S
C602 C601 1.347 . S
H603 C604 0.951 . S
C604 H603 0.951 . S
C604 C610 1.265 . S
H605 C610 0.950 . S
H606 C614 0.949 . S
H607 C615 0.950 . S
H608 C616 0.951 . S
H609 C617 0.951 . S
C610 C604 1.265 . S
C610 H605 0.950 . S
C610 C611 1.478 . S
C611 C598 1.394 . S
C611 C610 1.478 . S
C611 C612 1.397 . S
C612 C611 1.397 . S
C612 C613 1.438 . S
C612 C617 1.429 . S
C613 C596 1.394 . S
C613 C612 1.438 . S
C613 C614 1.428 . S
C614 H606 0.949 . S
C614 C613 1.428 . S
C614 C615 1.345 . S
C615 H607 0.950 . S
C615 C614 1.345 . S
C615 C616 1.424 . S
C616 H608 0.951 . S
C616 C615 1.424 . S
C616 C617 1.347 . S
C617 H609 0.951 . S
C617 C612 1.429 . S
C617 C616 1.347 . S
H618 C619 0.951 . S
C619 H618 0.951 . S
C619 C625 1.265 . S
H620 C625 0.950 . S
H621 C629 0.949 . S
H622 C630 0.950 . S
H623 C631 0.951 1_545 S
H624 C632 0.951 1_556 S
C625 C619 1.265 . S
C625 H620 0.950 . S
C625 C626 1.478 1_545 S
C626 C625 1.478 1_565 S
C626 C627 1.397 1_556 S
C626 C643 1.394 . S
C627 C626 1.397 1_554 S
C627 C628 1.438 . S
C627 C632 1.429 1_565 S
C628 C627 1.438 . S
C628 C629 1.428 . S
C628 C641 1.394 . S
C629 H621 0.949 . S
C629 C628 1.428 . S
C629 C630 1.345 . S
C630 H622 0.950 . S
C630 C629 1.345 . S
C630 C631 1.424 . S
C631 H623 0.951 1_565 S
C631 C630 1.424 . S
C631 C632 1.347 1_565 S
C632 H624 0.951 1_554 S
C632 C627 1.429 1_545 S
C632 C631 1.347 1_545 S
H633 C634 0.951 . S
C634 H633 0.951 . S
C634 C640 1.265 . S
H635 C640 0.950 . S
H636 C644 0.949 1_545 S
H637 C645 0.950 . S
H638 C646 0.951 . S
H639 C647 0.951 . S
C640 C634 1.265 . S
C640 H635 0.950 . S
C640 C641 1.478 . S
C641 C628 1.394 . S
C641 C640 1.478 . S
C641 C642 1.397 1_554 S
C642 C641 1.397 1_556 S
C642 C643 1.438 . S
C642 C647 1.429 . S
C643 C626 1.394 . S
C643 C642 1.438 . S
C643 C644 1.428 . S
C644 H636 0.949 1_565 S
C644 C643 1.428 . S
C644 C645 1.345 . S
C645 H637 0.950 . S
C645 C644 1.345 . S
C645 C646 1.424 . S
C646 H638 0.951 . S
C646 C645 1.424 . S
C646 C647 1.347 . S
C647 H639 0.951 . S
C647 C642 1.429 . S
C647 C646 1.347 . S
C199 C7 1.452 . S
C214 C172 1.517 . S
C229 C106 1.508 . S
C244 C40 1.484 . S
C259 C139 1.471 . S
C274 C73 1.517 . S
C289 C186 1.137 . S
C304 N13 1.091 . S
C319 C120 1.135 . S
C334 N46 1.081 . S
C349 N79 1.073 . S
C364 C153 1.128 . S
C379 C54 1.129 . S
C394 N112 1.074 . S
C409 C87 1.134 . S
C424 N145 1.079 . S
C439 N178 1.115 . S
C454 C21 1.136 . S
C469 C150 1.610 . S
C484 N2 1.628 . S
C499 N35 1.546 . S
C514 C183 1.643 . S
C529 C117 1.643 . S
C544 N68 1.544 . S
C559 N101 1.617 . S
C574 C84 1.608 . S
C589 C18 1.645 . S
C604 N134 1.571 . S
C619 C51 1.616 . S
C634 N167 1.594 . S
