# Generated by pormake.
# Topology umk, (4)-cn, num edge types: 1
# Building blocks:
#     Node 0, Type 0, BuildingBlock: GALJAG_clean_sbu_0, # of connection points: 4
#     Node 1, Type 0, BuildingBlock: GALJAG_clean_sbu_0, # of connection points: 4
#     Node 2, Type 0, BuildingBlock: GALJAG_clean_sbu_0, # of connection points: 4
#     Node 3, Type 0, BuildingBlock: GALJAG_clean_sbu_0, # of connection points: 4
#     Node 4, Type 0, BuildingBlock: GALJAG_clean_sbu_0, # of connection points: 4
#     Node 5, Type 0, BuildingBlock: GALJAG_clean_sbu_0, # of connection points: 4
#     Node 6, Type 0, BuildingBlock: GALJAG_clean_sbu_0, # of connection points: 4
#     Node 7, Type 0, BuildingBlock: GALJAG_clean_sbu_0, # of connection points: 4
#     Node 8, Type 0, BuildingBlock: GALJAG_clean_sbu_0, # of connection points: 4
#     Node 9, Type 0, BuildingBlock: GALJAG_clean_sbu_0, # of connection points: 4
#     Node 10, Type 0, BuildingBlock: GALJAG_clean_sbu_0, # of connection points: 4
#     Node 11, Type 0, BuildingBlock: GALJAG_clean_sbu_0, # of connection points: 4
#     Node 12, Type 0, BuildingBlock: GALJAG_clean_sbu_0, # of connection points: 4
#     Node 13, Type 0, BuildingBlock: GALJAG_clean_sbu_0, # of connection points: 4
#     Node 14, Type 0, BuildingBlock: GALJAG_clean_sbu_0, # of connection points: 4
#     Node 15, Type 0, BuildingBlock: GALJAG_clean_sbu_0, # of connection points: 4
#     Node 16, Type 0, BuildingBlock: GALJAG_clean_sbu_0, # of connection points: 4
#     Node 17, Type 0, BuildingBlock: GALJAG_clean_sbu_0, # of connection points: 4
#     Node 18, Type 0, BuildingBlock: GALJAG_clean_sbu_0, # of connection points: 4
#     Node 19, Type 0, BuildingBlock: GALJAG_clean_sbu_0, # of connection points: 4
#     Node 20, Type 0, BuildingBlock: GALJAG_clean_sbu_0, # of connection points: 4
#     Node 21, Type 0, BuildingBlock: GALJAG_clean_sbu_0, # of connection points: 4
#     Node 22, Type 0, BuildingBlock: GALJAG_clean_sbu_0, # of connection points: 4
#     Node 23, Type 0, BuildingBlock: GALJAG_clean_sbu_0, # of connection points: 4
#     Edge 24, Type (0, 0), BuildingBlock: TEMPAE_clean_linker_10, # of connection points: 2
#     Edge 25, Type (0, 0), BuildingBlock: TEMPAE_clean_linker_10, # of connection points: 2
#     Edge 26, Type (0, 0), BuildingBlock: TEMPAE_clean_linker_10, # of connection points: 2
#     Edge 27, Type (0, 0), BuildingBlock: TEMPAE_clean_linker_10, # of connection points: 2
#     Edge 28, Type (0, 0), BuildingBlock: TEMPAE_clean_linker_10, # of connection points: 2
#     Edge 29, Type (0, 0), BuildingBlock: TEMPAE_clean_linker_10, # of connection points: 2
#     Edge 30, Type (0, 0), BuildingBlock: TEMPAE_clean_linker_10, # of connection points: 2
#     Edge 31, Type (0, 0), BuildingBlock: TEMPAE_clean_linker_10, # of connection points: 2
#     Edge 32, Type (0, 0), BuildingBlock: TEMPAE_clean_linker_10, # of connection points: 2
#     Edge 33, Type (0, 0), BuildingBlock: TEMPAE_clean_linker_10, # of connection points: 2
#     Edge 34, Type (0, 0), BuildingBlock: TEMPAE_clean_linker_10, # of connection points: 2
#     Edge 35, Type (0, 0), BuildingBlock: TEMPAE_clean_linker_10, # of connection points: 2
#     Edge 36, Type (0, 0), BuildingBlock: TEMPAE_clean_linker_10, # of connection points: 2
#     Edge 37, Type (0, 0), BuildingBlock: TEMPAE_clean_linker_10, # of connection points: 2
#     Edge 38, Type (0, 0), BuildingBlock: TEMPAE_clean_linker_10, # of connection points: 2
#     Edge 39, Type (0, 0), BuildingBlock: TEMPAE_clean_linker_10, # of connection points: 2
#     Edge 40, Type (0, 0), BuildingBlock: TEMPAE_clean_linker_10, # of connection points: 2
#     Edge 41, Type (0, 0), BuildingBlock: TEMPAE_clean_linker_10, # of connection points: 2
#     Edge 42, Type (0, 0), BuildingBlock: TEMPAE_clean_linker_10, # of connection points: 2
#     Edge 43, Type (0, 0), BuildingBlock: TEMPAE_clean_linker_10, # of connection points: 2
#     Edge 44, Type (0, 0), BuildingBlock: TEMPAE_clean_linker_10, # of connection points: 2
#     Edge 45, Type (0, 0), BuildingBlock: TEMPAE_clean_linker_10, # of connection points: 2
#     Edge 46, Type (0, 0), BuildingBlock: TEMPAE_clean_linker_10, # of connection points: 2
#     Edge 47, Type (0, 0), BuildingBlock: TEMPAE_clean_linker_10, # of connection points: 2
#     Edge 48, Type (0, 0), BuildingBlock: TEMPAE_clean_linker_10, # of connection points: 2
#     Edge 49, Type (0, 0), BuildingBlock: TEMPAE_clean_linker_10, # of connection points: 2
#     Edge 50, Type (0, 0), BuildingBlock: TEMPAE_clean_linker_10, # of connection points: 2
#     Edge 51, Type (0, 0), BuildingBlock: TEMPAE_clean_linker_10, # of connection points: 2
#     Edge 52, Type (0, 0), BuildingBlock: TEMPAE_clean_linker_10, # of connection points: 2
#     Edge 53, Type (0, 0), BuildingBlock: TEMPAE_clean_linker_10, # of connection points: 2
#     Edge 54, Type (0, 0), BuildingBlock: TEMPAE_clean_linker_10, # of connection points: 2
#     Edge 55, Type (0, 0), BuildingBlock: TEMPAE_clean_linker_10, # of connection points: 2
#     Edge 56, Type (0, 0), BuildingBlock: TEMPAE_clean_linker_10, # of connection points: 2
#     Edge 57, Type (0, 0), BuildingBlock: TEMPAE_clean_linker_10, # of connection points: 2
#     Edge 58, Type (0, 0), BuildingBlock: TEMPAE_clean_linker_10, # of connection points: 2
#     Edge 59, Type (0, 0), BuildingBlock: TEMPAE_clean_linker_10, # of connection points: 2
#     Edge 60, Type (0, 0), BuildingBlock: TEMPAE_clean_linker_10, # of connection points: 2
#     Edge 61, Type (0, 0), BuildingBlock: TEMPAE_clean_linker_10, # of connection points: 2
#     Edge 62, Type (0, 0), BuildingBlock: TEMPAE_clean_linker_10, # of connection points: 2
#     Edge 63, Type (0, 0), BuildingBlock: TEMPAE_clean_linker_10, # of connection points: 2
#     Edge 64, Type (0, 0), BuildingBlock: TEMPAE_clean_linker_10, # of connection points: 2
#     Edge 65, Type (0, 0), BuildingBlock: TEMPAE_clean_linker_10, # of connection points: 2
#     Edge 66, Type (0, 0), BuildingBlock: TEMPAE_clean_linker_10, # of connection points: 2
#     Edge 67, Type (0, 0), BuildingBlock: TEMPAE_clean_linker_10, # of connection points: 2
#     Edge 68, Type (0, 0), BuildingBlock: TEMPAE_clean_linker_10, # of connection points: 2
#     Edge 69, Type (0, 0), BuildingBlock: TEMPAE_clean_linker_10, # of connection points: 2
#     Edge 70, Type (0, 0), BuildingBlock: TEMPAE_clean_linker_10, # of connection points: 2
#     Edge 71, Type (0, 0), BuildingBlock: TEMPAE_clean_linker_10, # of connection points: 2
# Relax obj value: 0.088
# Max RMSD: 0.064
# Mean RMSD: 0.064
data_MOF--net-umk--node1-GALJAG_clean_sbu_0--edge1-TEMPAE_clean_linker_10
_symmetry_space_group_name_H-M    P1
_symmetry_Int_Tables_number       1
_symmetry_cell_setting            triclinic
loop_
_symmetry_equiv_pos_as_xyz
'x, y, z'
_cell_length_a     64.476444
_cell_length_b     64.456324
_cell_length_c     47.574997
_cell_angle_alpha  89.966963
_cell_angle_beta   90.033676
_cell_angle_gamma 120.01307
loop_
_atom_site_label
_atom_site_type_symbol
_atom_site_fract_x
_atom_site_fract_y
_atom_site_fract_z
_atom_type_partial_charge
In0 In 0.32336 0.46485 0.09078 0.0
O1 O 0.29342 0.44121 0.06022 0.0
O2 O 0.29206 0.47024 0.07924 0.0
C3 C 0.34407 0.43779 0.0957 0.0
C4 C 0.35675 0.50196 0.06018 0.0
C5 C 0.31336 0.46513 0.14567 0.0
O6 O 0.32554 0.43143 0.08095 0.0
O7 O 0.35204 0.4577 0.10801 0.0
O8 O 0.32629 0.48414 0.13204 0.0
O9 O 0.3049 0.44609 0.13141 0.0
C10 C 0.28271 0.45299 0.0622 0.0
O11 O 0.34809 0.50511 0.08247 0.0
O12 O 0.34862 0.48036 0.0536 0.0
In13 In 0.85752 0.33225 0.59018 0.0
O14 O 0.84971 0.29782 0.56736 0.0
O15 O 0.82085 0.30419 0.57405 0.0
C16 C 0.90353 0.34285 0.58736 0.0
C17 C 0.85443 0.3675 0.56266 0.0
C18 C 0.84847 0.3296 0.64582 0.0
O19 O 0.89041 0.33801 0.56587 0.0
O20 O 0.89322 0.34166 0.61034 0.0
O21 O 0.85871 0.34922 0.63262 0.0
O22 O 0.84255 0.31129 0.6309 0.0
C23 C 0.82777 0.29064 0.56388 0.0
O24 O 0.83745 0.35192 0.57722 0.0
O25 O 0.87288 0.36556 0.56258 0.0
In26 In 0.53221 0.86005 0.08534 0.0
O27 O 0.55596 0.85284 0.05621 0.0
O28 O 0.52977 0.82377 0.08026 0.0
C29 C 0.55899 0.9081 0.0817 0.0
C30 C 0.49378 0.85162 0.054 0.0
C31 C 0.53023 0.85222 0.14135 0.0
O32 O 0.56785 0.89462 0.07894 0.0
O33 O 0.53675 0.89731 0.08637 0.0
O34 O 0.51257 0.84016 0.12538 0.0
O35 O 0.54884 0.86784 0.12903 0.0
C36 C 0.54614 0.83084 0.06205 0.0
O37 O 0.49377 0.85274 0.0805 0.0
O38 O 0.51296 0.85442 0.04354 0.0
In39 In 0.67307 0.54084 0.58586 0.0
O40 O 0.70138 0.56256 0.55266 0.0
O41 O 0.70707 0.53906 0.57838 0.0
C42 C 0.6531 0.56868 0.58952 0.0
C43 C 0.6411 0.5032 0.55477 0.0
C44 C 0.67982 0.53752 0.64126 0.0
O45 O 0.6746 0.57681 0.58204 0.0
O46 O 0.64186 0.54661 0.59543 0.0
O47 O 0.66895 0.51934 0.62568 0.0
O48 O 0.68756 0.55734 0.62884 0.0
C49 C 0.71452 0.55383 0.55839 0.0
O50 O 0.64948 0.50056 0.57759 0.0
O51 O 0.64884 0.52467 0.54774 0.0
In52 In 0.13959 0.66632 0.08984 0.0
O53 O 0.152 0.7039 0.07265 0.0
O54 O 0.17572 0.69009 0.0695 0.0
C55 C 0.09336 0.65563 0.09136 0.0
C56 C 0.13925 0.63077 0.05925 0.0
C57 C 0.15177 0.67015 0.14457 0.0
O58 O 0.10653 0.66497 0.07015 0.0
O59 O 0.10366 0.65228 0.1119 0.0
O60 O 0.14073 0.65027 0.13199 0.0
O61 O 0.15708 0.68822 0.1294 0.0
C62 C 0.17201 0.70715 0.06435 0.0
O63 O 0.15237 0.63955 0.08063 0.0
O64 O 0.12625 0.63968 0.05369 0.0
In65 In 0.46798 0.13466 0.59454 0.0
O66 O 0.50799 0.15501 0.58329 0.0
O67 O 0.4846 0.12475 0.55874 0.0
C68 C 0.47434 0.14445 0.65008 0.0
C69 C 0.45677 0.16343 0.56514 0.0
C70 C 0.43511 0.08766 0.59787 0.0
O71 O 0.48682 0.13794 0.6363 0.0
O72 O 0.45886 0.1463 0.6358 0.0
O73 O 0.42922 0.10342 0.594 0.0
O74 O 0.4573 0.09573 0.60038 0.0
C75 C 0.50569 0.14151 0.56288 0.0
O76 O 0.47061 0.17063 0.5861 0.0
O77 O 0.44814 0.14154 0.55936 0.0
In78 In 0.52758 0.66121 0.91331 0.0
O79 O 0.55406 0.69445 0.93813 0.0
O80 O 0.52099 0.69141 0.92584 0.0
C81 C 0.56167 0.64868 0.91469 0.0
C82 C 0.48945 0.63053 0.9446 0.0
C83 C 0.51878 0.66034 0.8576 0.0
O84 O 0.56496 0.66749 0.90245 0.0
O85 O 0.54146 0.63658 0.92617 0.0
O86 O 0.51725 0.64257 0.8706 0.0
O87 O 0.52444 0.67846 0.87274 0.0
C88 C 0.54059 0.70342 0.93865 0.0
O89 O 0.48739 0.63482 0.91917 0.0
O90 O 0.51053 0.64168 0.95397 0.0
In91 In 0.86414 0.53387 0.40952 0.0
O92 O 0.85093 0.49387 0.41614 0.0
O93 O 0.86313 0.51689 0.45163 0.0
C94 C 0.85734 0.52579 0.35358 0.0
C95 C 0.83456 0.54715 0.43283 0.0
C96 C 0.9111 0.56691 0.41269 0.0
O97 O 0.87174 0.52193 0.36746 0.0
O98 O 0.84601 0.53327 0.36799 0.0
O99 O 0.89608 0.57143 0.40135 0.0
O100 O 0.90234 0.54601 0.42242 0.0
C101 C 0.8548 0.49592 0.4423 0.0
O102 O 0.85704 0.5605 0.43313 0.0
O103 O 0.82712 0.52749 0.42015 0.0
In104 In 0.33354 0.86471 0.91155 0.0
O105 O 0.34855 0.84137 0.92795 0.0
O106 O 0.37046 0.87906 0.93118 0.0
C107 C 0.32659 0.85331 0.85646 0.0
C108 C 0.29398 0.83786 0.94274 0.0
C109 C 0.34705 0.9116 0.91186 0.0
O110 O 0.33941 0.84828 0.87189 0.0
O111 O 0.31687 0.8635 0.86899 0.0
O112 O 0.33028 0.8965 0.92716 0.0
O113 O 0.35673 0.90298 0.89636 0.0
C114 C 0.36815 0.85881 0.93609 0.0
O115 O 0.31268 0.85537 0.9526 0.0
O116 O 0.29499 0.83416 0.91687 0.0
In117 In 0.47181 0.33308 0.41669 0.0
O118 O 0.44663 0.29754 0.43854 0.0
O119 O 0.48245 0.30605 0.4311 0.0
C120 C 0.43518 0.34197 0.42003 0.0
C121 C 0.50981 0.36723 0.44533 0.0
C122 C 0.48008 0.33505 0.36087 0.0
O123 O 0.43511 0.32702 0.40284 0.0
O124 O 0.45338 0.35193 0.43563 0.0
O125 O 0.48106 0.35233 0.37444 0.0
O126 O 0.47533 0.31688 0.37555 0.0
C127 C 0.46229 0.29142 0.44124 0.0
O128 O 0.51146 0.36207 0.42015 0.0
O129 O 0.48921 0.35514 0.45585 0.0
In130 In 0.13401 0.46688 0.90301 0.0
O131 O 0.14992 0.50652 0.91479 0.0
O132 O 0.12147 0.48063 0.93959 0.0
C133 C 0.14477 0.47315 0.84779 0.0
C134 C 0.16498 0.45636 0.92844 0.0
C135 C 0.08701 0.43381 0.90067 0.0
O136 O 0.13845 0.48589 0.86135 0.0
O137 O 0.14611 0.4574 0.86222 0.0
O138 O 0.10075 0.43347 0.91931 0.0
O139 O 0.09702 0.45058 0.88306 0.0
C140 C 0.13627 0.50244 0.93555 0.0
O141 O 0.14313 0.44108 0.92524 0.0
O142 O 0.17133 0.47666 0.918 0.0
In143 In 0.66532 0.13458 0.41389 0.0
O144 O 0.69687 0.14112 0.4418 0.0
O145 O 0.69752 0.17121 0.42254 0.0
C146 C 0.65128 0.08751 0.41466 0.0
C147 C 0.63648 0.14411 0.44597 0.0
C148 C 0.66451 0.14219 0.35818 0.0
O149 O 0.67123 0.10295 0.40455 0.0
O150 O 0.63883 0.09592 0.42432 0.0
O151 O 0.64596 0.12812 0.37186 0.0
O152 O 0.68341 0.15264 0.37263 0.0
C153 C 0.70773 0.16357 0.4387 0.0
O154 O 0.64012 0.14977 0.4203 0.0
O155 O 0.64744 0.13394 0.45518 0.0
In156 In 0.66881 0.53031 0.90718 0.0
O157 O 0.70153 0.5536 0.93432 0.0
O158 O 0.69652 0.52014 0.91999 0.0
C159 C 0.65431 0.56289 0.9039 0.0
C160 C 0.63593 0.49441 0.93961 0.0
C161 C 0.67473 0.52624 0.85171 0.0
O162 O 0.67322 0.56717 0.91669 0.0
O163 O 0.64302 0.5424 0.89285 0.0
O164 O 0.65536 0.51298 0.86443 0.0
O165 O 0.69147 0.54127 0.86709 0.0
C166 C 0.70901 0.53886 0.93426 0.0
O167 O 0.64489 0.49057 0.91805 0.0
O168 O 0.64349 0.51621 0.94466 0.0
In169 In 0.13621 0.67084 0.40895 0.0
O170 O 0.16664 0.70932 0.41513 0.0
O171 O 0.14494 0.69126 0.45038 0.0
C172 C 0.0896 0.65803 0.40571 0.0
C173 C 0.13937 0.63485 0.43422 0.0
C174 C 0.14958 0.67808 0.35448 0.0
O175 O 0.10411 0.67487 0.42144 0.0
O176 O 0.0987 0.64796 0.39172 0.0
O177 O 0.15486 0.6659 0.37072 0.0
O178 O 0.13824 0.68705 0.36594 0.0
C179 C 0.16259 0.71007 0.44093 0.0
O180 O 0.1576 0.65383 0.42605 0.0
O181 O 0.11977 0.63391 0.42906 0.0
In182 In 0.46362 0.13785 0.91736 0.0
O183 O 0.44123 0.14617 0.94744 0.0
O184 O 0.46636 0.17438 0.92154 0.0
C185 C 0.43337 0.09043 0.9236 0.0
C186 C 0.50256 0.14541 0.94687 0.0
C187 C 0.46815 0.14471 0.86105 0.0
O188 O 0.42619 0.10468 0.9166 0.0
O189 O 0.4556 0.10016 0.92777 0.0
O190 O 0.48515 0.15703 0.87776 0.0
O191 O 0.44906 0.12943 0.87278 0.0
C192 C 0.45089 0.16798 0.94076 0.0
O193 O 0.49943 0.13878 0.92148 0.0
O194 O 0.48626 0.14848 0.95709 0.0
In195 In 0.32809 0.46069 0.41149 0.0
O196 O 0.29505 0.43738 0.43787 0.0
O197 O 0.3 0.47068 0.42261 0.0
C198 C 0.34421 0.42925 0.40984 0.0
C199 C 0.35835 0.49669 0.44566 0.0
C200 C 0.32191 0.46531 0.35612 0.0
O201 O 0.32309 0.42307 0.41714 0.0
O202 O 0.3569 0.45104 0.40343 0.0
O203 O 0.34158 0.47793 0.36855 0.0
O204 O 0.30517 0.4505 0.37163 0.0
C205 C 0.28739 0.45199 0.43695 0.0
O206 O 0.35525 0.50011 0.42026 0.0
O207 O 0.34635 0.47522 0.45366 0.0
In208 In 0.8598 0.32617 0.91227 0.0
O209 O 0.85232 0.29593 0.94303 0.0
O210 O 0.82295 0.29373 0.92053 0.0
C211 C 0.90767 0.34556 0.90966 0.0
C212 C 0.85492 0.35788 0.94451 0.0
C213 C 0.85053 0.32198 0.85655 0.0
O214 O 0.89361 0.32319 0.91061 0.0
O215 O 0.89755 0.358 0.90993 0.0
O216 O 0.84355 0.3327 0.87281 0.0
O217 O 0.86168 0.31299 0.86847 0.0
C218 C 0.83008 0.28449 0.93868 0.0
O219 O 0.84648 0.35255 0.91993 0.0
O220 O 0.86561 0.3471 0.95279 0.0
In221 In 0.52941 0.86244 0.40744 0.0
O222 O 0.49051 0.85101 0.41829 0.0
O223 O 0.5177 0.87466 0.44625 0.0
C224 C 0.52392 0.85095 0.35232 0.0
C225 C 0.53537 0.82882 0.43393 0.0
C226 C 0.56345 0.90905 0.40353 0.0
O227 O 0.51063 0.8569 0.3653 0.0
O228 O 0.53972 0.85024 0.3673 0.0
O229 O 0.56621 0.89436 0.41836 0.0
O230 O 0.54374 0.90015 0.39068 0.0
C231 C 0.49565 0.86297 0.44076 0.0
O232 O 0.55196 0.85034 0.43189 0.0
O233 O 0.51605 0.82419 0.42197 0.0
In234 In 0.47056 0.33678 0.094 0.0
O235 O 0.51039 0.36141 0.08481 0.0
O236 O 0.48521 0.35723 0.05323 0.0
C237 C 0.47625 0.33281 0.14966 0.0
C238 C 0.45809 0.29536 0.06682 0.0
C239 C 0.44206 0.35619 0.09678 0.0
O240 O 0.49322 0.34724 0.1341 0.0
O241 O 0.45669 0.32012 0.13702 0.0
O242 O 0.43387 0.33387 0.09772 0.0
O243 O 0.46451 0.36863 0.09463 0.0
C244 C 0.50691 0.36697 0.06049 0.0
O245 O 0.44683 0.30653 0.06392 0.0
O246 O 0.47526 0.30475 0.084 0.0
In247 In 0.13058 0.46516 0.58113 0.0
O248 O 0.13668 0.50325 0.57702 0.0
O249 O 0.13556 0.48472 0.53968 0.0
C250 C 0.13934 0.46791 0.63695 0.0
C251 C 0.16017 0.45218 0.55688 0.0
C252 C 0.08272 0.43623 0.57888 0.0
O253 O 0.15111 0.48541 0.62064 0.0
O254 O 0.12354 0.44916 0.62506 0.0
O255 O 0.09707 0.42831 0.57732 0.0
O256 O 0.09255 0.45867 0.58142 0.0
C257 C 0.13792 0.50361 0.55052 0.0
O258 O 0.13837 0.44286 0.55032 0.0
O259 O 0.16688 0.46759 0.57621 0.0
In260 In 0.66314 0.13492 0.09146 0.0
O261 O 0.69294 0.14068 0.0609 0.0
O262 O 0.6972 0.17062 0.08414 0.0
C263 C 0.64847 0.08791 0.08573 0.0
C264 C 0.62912 0.14169 0.06691 0.0
C265 C 0.66739 0.1443 0.14709 0.0
O266 O 0.65023 0.101 0.06508 0.0
O267 O 0.65449 0.09865 0.10901 0.0
O268 O 0.65285 0.14695 0.13181 0.0
O269 O 0.68002 0.1375 0.13418 0.0
C270 C 0.70563 0.16279 0.06579 0.0
O271 O 0.62416 0.12349 0.08156 0.0
O272 O 0.65114 0.15679 0.06536 0.0
In273 In 0.52266 0.66333 0.59069 0.0
O274 O 0.48505 0.64646 0.57152 0.0
O275 O 0.50033 0.62429 0.57754 0.0
C276 C 0.517 0.66619 0.64651 0.0
C277 C 0.53325 0.70329 0.5609 0.0
C278 C 0.55878 0.65368 0.58717 0.0
O279 O 0.50108 0.64985 0.63146 0.0
O280 O 0.53537 0.68128 0.63329 0.0
O281 O 0.55498 0.66249 0.60888 0.0
O282 O 0.54475 0.65035 0.56698 0.0
C283 C 0.48291 0.62604 0.56843 0.0
O284 O 0.54158 0.68988 0.55491 0.0
O285 O 0.52 0.69691 0.58232 0.0
In286 In 0.86648 0.53131 0.08616 0.0
O287 O 0.84995 0.49096 0.07915 0.0
O288 O 0.87378 0.51456 0.04815 0.0
C289 C 0.85869 0.52788 0.14217 0.0
C290 C 0.83606 0.54175 0.05866 0.0
C291 C 0.9142 0.56125 0.08752 0.0
O292 O 0.85408 0.50998 0.12709 0.0
O293 O 0.8668 0.54737 0.12894 0.0
O294 O 0.89955 0.56872 0.0848 0.0
O295 O 0.90473 0.53881 0.08968 0.0
C296 C 0.86041 0.49321 0.05598 0.0
O297 O 0.85785 0.55098 0.05225 0.0
O298 O 0.82974 0.52773 0.07939 0.0
In299 In 0.33219 0.86465 0.59082 0.0
O300 O 0.35861 0.85126 0.58264 0.0
O301 O 0.36211 0.88035 0.55826 0.0
C302 C 0.33115 0.85394 0.64577 0.0
C303 C 0.29193 0.83227 0.56393 0.0
C304 C 0.33908 0.9096 0.59119 0.0
O305 O 0.35026 0.86811 0.63301 0.0
O306 O 0.31254 0.8448 0.63066 0.0
O307 O 0.33794 0.89863 0.56878 0.0
O308 O 0.33604 0.89765 0.61331 0.0
C309 C 0.36966 0.8661 0.56326 0.0
O310 O 0.29475 0.85198 0.57268 0.0
O311 O 0.30913 0.82886 0.56919 0.0
C312 C 0.30567 0.44445 0.19187 0.0
C313 C 0.31061 0.46495 0.17647 0.0
C314 C 0.30606 0.4448 0.22134 0.0
C315 C 0.31083 0.46598 0.23571 0.0
C316 C 0.31453 0.48633 0.22023 0.0
C317 C 0.31474 0.48569 0.19073 0.0
C318 C 0.30258 0.4229 0.23703 0.0
C319 C 0.31899 0.50899 0.23482 0.0
C320 C 0.29639 0.45872 0.31377 0.0
C321 C 0.31909 0.46684 0.32555 0.0
C322 C 0.2935 0.45921 0.28456 0.0
C323 C 0.3137 0.46729 0.26678 0.0
C324 C 0.33669 0.47566 0.27866 0.0
C325 C 0.33914 0.47565 0.30795 0.0
C326 C 0.26883 0.4508 0.27269 0.0
C327 C 0.3586 0.48389 0.26042 0.0
H328 H 0.30265 0.42844 0.18087 0.0
H329 H 0.31844 0.50152 0.17881 0.0
H330 H 0.3192 0.42729 0.24867 0.0
H331 H 0.28804 0.41722 0.25275 0.0
H332 H 0.29813 0.40759 0.22277 0.0
H333 H 0.31878 0.52216 0.21992 0.0
H334 H 0.30524 0.5048 0.25126 0.0
H335 H 0.33667 0.51746 0.24543 0.0
H336 H 0.28089 0.45206 0.32743 0.0
H337 H 0.35669 0.48179 0.31704 0.0
H338 H 0.26294 0.43429 0.26014 0.0
H339 H 0.26924 0.46458 0.25834 0.0
H340 H 0.25536 0.44696 0.28942 0.0
H341 H 0.3562 0.46903 0.24651 0.0
H342 H 0.37518 0.48994 0.27299 0.0
H343 H 0.36104 0.49886 0.24669 0.0
C344 C 0.85922 0.34867 0.69316 0.0
C345 C 0.84545 0.32831 0.67664 0.0
C346 C 0.85839 0.34724 0.7226 0.0
C347 C 0.84302 0.32502 0.73577 0.0
C348 C 0.82824 0.30465 0.71916 0.0
C349 C 0.82985 0.30648 0.68974 0.0
C350 C 0.87473 0.36927 0.73956 0.0
C351 C 0.81125 0.2808 0.73245 0.0
C352 C 0.86109 0.31537 0.80833 0.0
C353 C 0.8473 0.32126 0.82577 0.0
C354 C 0.85966 0.31629 0.779 0.0
C355 C 0.84368 0.3228 0.76682 0.0
C356 C 0.82912 0.32802 0.78433 0.0
C357 C 0.83129 0.32743 0.81366 0.0
C358 C 0.87577 0.31097 0.76105 0.0
C359 C 0.81153 0.33454 0.77208 0.0
H360 H 0.87138 0.36555 0.68308 0.0
H361 H 0.81906 0.29074 0.67698 0.0
H362 H 0.86422 0.373 0.75514 0.0
H363 H 0.8877 0.36612 0.75147 0.0
H364 H 0.88488 0.38539 0.72615 0.0
H365 H 0.79937 0.26736 0.71671 0.0
H366 H 0.82159 0.2737 0.74341 0.0
H367 H 0.79997 0.28298 0.74845 0.0
H368 H 0.87358 0.31071 0.81762 0.0
H369 H 0.82052 0.33189 0.82712 0.0
H370 H 0.88773 0.32693 0.74823 0.0
H371 H 0.86489 0.29614 0.74627 0.0
H372 H 0.88701 0.30594 0.77382 0.0
H373 H 0.82131 0.35168 0.76039 0.0
H374 H 0.80038 0.33649 0.78851 0.0
H375 H 0.79954 0.32064 0.75687 0.0
C376 C 0.53471 0.83706 0.30849 0.0
C377 C 0.52237 0.84716 0.32159 0.0
C378 C 0.53497 0.83531 0.27908 0.0
C379 C 0.52302 0.84434 0.26244 0.0
C380 C 0.51 0.85397 0.27563 0.0
C381 C 0.50965 0.85504 0.30506 0.0
C382 C 0.54861 0.82446 0.26579 0.0
C383 C 0.49734 0.86413 0.25865 0.0
C384 C 0.54654 0.86725 0.18919 0.0
C385 C 0.52897 0.84929 0.17222 0.0
C386 C 0.54494 0.86568 0.21858 0.0
C387 C 0.52553 0.8454 0.23131 0.0
C388 C 0.50813 0.82682 0.21428 0.0
C389 C 0.50992 0.82911 0.18487 0.0
C390 C 0.56366 0.88607 0.23598 0.0
C391 C 0.48746 0.80472 0.22712 0.0
H392 H 0.54445 0.83082 0.32123 0.0
H393 H 0.50015 0.86294 0.31509 0.0
H394 H 0.53722 0.81069 0.25011 0.0
H395 H 0.56445 0.83854 0.25445 0.0
H396 H 0.55485 0.81609 0.28159 0.0
H397 H 0.48712 0.86997 0.2721 0.0
H398 H 0.51067 0.87977 0.24633 0.0
H399 H 0.48482 0.85063 0.24345 0.0
H400 H 0.56125 0.88294 0.17948 0.0
H401 H 0.49637 0.81513 0.17179 0.0
H402 H 0.57228 0.87933 0.25072 0.0
H403 H 0.55504 0.89403 0.24883 0.0
H404 H 0.57779 0.90041 0.22282 0.0
H405 H 0.49423 0.79644 0.24233 0.0
H406 H 0.47644 0.79117 0.21102 0.0
H407 H 0.47578 0.80972 0.23893 0.0
C408 C 0.65624 0.51622 0.80416 0.0
C409 C 0.67687 0.52564 0.82089 0.0
C410 C 0.65788 0.51759 0.77478 0.0
C411 C 0.68068 0.52806 0.76182 0.0
C412 C 0.70153 0.53663 0.77861 0.0
C413 C 0.69939 0.53565 0.80804 0.0
C414 C 0.63526 0.50873 0.75765 0.0
C415 C 0.72608 0.54727 0.76552 0.0
C416 C 0.67951 0.51474 0.6839 0.0
C417 C 0.682 0.53573 0.67191 0.0
C418 C 0.68015 0.51238 0.71318 0.0
C419 C 0.68264 0.5312 0.73079 0.0
C420 C 0.68552 0.55257 0.71871 0.0
C421 C 0.68549 0.55469 0.68938 0.0
C422 C 0.67767 0.48959 0.72529 0.0
C423 C 0.68768 0.57283 0.73676 0.0
H424 H 0.63881 0.50863 0.81408 0.0
H425 H 0.71535 0.54282 0.82098 0.0
H426 H 0.63599 0.52384 0.74562 0.0
H427 H 0.63369 0.49516 0.74219 0.0
H428 H 0.61891 0.50067 0.77096 0.0
H429 H 0.74019 0.55099 0.78135 0.0
H430 H 0.72627 0.53494 0.74939 0.0
H431 H 0.73061 0.56429 0.75474 0.0
H432 H 0.67698 0.50012 0.67037 0.0
H433 H 0.68728 0.57089 0.68013 0.0
H434 H 0.66043 0.47962 0.73671 0.0
H435 H 0.6922 0.49384 0.74069 0.0
H436 H 0.67825 0.47771 0.70878 0.0
H437 H 0.6712 0.56648 0.74956 0.0
H438 H 0.69035 0.58846 0.72407 0.0
H439 H 0.70291 0.57885 0.75157 0.0
C440 C 0.14123 0.68646 0.30603 0.0
C441 C 0.15423 0.67988 0.32394 0.0
C442 C 0.14332 0.68584 0.27677 0.0
C443 C 0.15924 0.67902 0.26515 0.0
C444 C 0.1733 0.67348 0.28316 0.0
C445 C 0.17039 0.67367 0.31242 0.0
C446 C 0.12769 0.69147 0.25831 0.0
C447 C 0.1909 0.66674 0.27153 0.0
C448 C 0.14251 0.65186 0.19229 0.0
C449 C 0.15597 0.67191 0.1752 0.0
C450 C 0.14401 0.65377 0.22166 0.0
C451 C 0.15979 0.67617 0.2342 0.0
C452 C 0.17445 0.69616 0.21699 0.0
C453 C 0.17212 0.69387 0.18764 0.0
C454 C 0.12775 0.63212 0.23925 0.0
C455 C 0.19193 0.72016 0.22959 0.0
H456 H 0.12864 0.69117 0.31486 0.0
H457 H 0.18057 0.66871 0.32626 0.0
H458 H 0.13887 0.70597 0.24328 0.0
H459 H 0.11547 0.67542 0.24576 0.0
H460 H 0.11672 0.69708 0.27066 0.0
H461 H 0.20227 0.66548 0.28824 0.0
H462 H 0.18109 0.64917 0.26073 0.0
H463 H 0.20267 0.6801 0.25569 0.0
H464 H 0.12993 0.63487 0.18273 0.0
H465 H 0.18269 0.70937 0.17443 0.0
H466 H 0.11495 0.63562 0.25101 0.0
H467 H 0.13834 0.62861 0.25495 0.0
H468 H 0.11739 0.61575 0.22629 0.0
H469 H 0.18197 0.72801 0.23982 0.0
H470 H 0.20407 0.73299 0.21351 0.0
H471 H 0.20291 0.71801 0.24605 0.0
C472 C 0.49065 0.16624 0.81762 0.0
C473 C 0.47045 0.14711 0.83015 0.0
C474 C 0.49301 0.16815 0.78821 0.0
C475 C 0.4749 0.1503 0.77109 0.0
C476 C 0.45447 0.131 0.7837 0.0
C477 C 0.45242 0.12975 0.81305 0.0
C478 C 0.51486 0.18916 0.77547 0.0
C479 C 0.43489 0.11145 0.7662 0.0
C480 C 0.46618 0.15998 0.6943 0.0
C481 C 0.47664 0.14815 0.68081 0.0
C482 C 0.46661 0.16195 0.72371 0.0
C483 C 0.47728 0.15136 0.73995 0.0
C484 C 0.48848 0.14 0.72635 0.0
C485 C 0.48822 0.13873 0.6969 0.0
C486 C 0.45491 0.17463 0.73741 0.0
C487 C 0.49971 0.12816 0.74293 0.0
H488 H 0.5046 0.17973 0.8308 0.0
H489 H 0.4368 0.11488 0.82263 0.0
H490 H 0.52514 0.18271 0.76317 0.0
H491 H 0.50936 0.19884 0.76069 0.0
H492 H 0.52687 0.20196 0.79165 0.0
H493 H 0.42025 0.09759 0.7793 0.0
H494 H 0.42712 0.11924 0.75171 0.0
H495 H 0.44247 0.10261 0.75309 0.0
H496 H 0.45739 0.16745 0.68188 0.0
H497 H 0.49627 0.12952 0.68652 0.0
H498 H 0.4672 0.18784 0.75304 0.0
H499 H 0.43861 0.16144 0.74887 0.0
H500 H 0.44971 0.18406 0.72185 0.0
H501 H 0.51278 0.14092 0.75832 0.0
H502 H 0.50899 0.12141 0.72921 0.0
H503 H 0.48564 0.11285 0.75503 0.0
C504 C 0.49338 0.65241 0.69115 0.0
C505 C 0.51531 0.66653 0.67746 0.0
C506 C 0.49203 0.65148 0.72064 0.0
C507 C 0.51321 0.66455 0.7367 0.0
C508 C 0.53533 0.67908 0.72293 0.0
C509 C 0.53606 0.68009 0.69348 0.0
C510 C 0.46805 0.63621 0.73461 0.0
C511 C 0.55837 0.69297 0.73926 0.0
C512 C 0.51218 0.67816 0.81421 0.0
C513 C 0.51549 0.66038 0.82688 0.0
C514 C 0.51042 0.67916 0.78487 0.0
C515 C 0.51257 0.66232 0.76786 0.0
C516 C 0.51551 0.64409 0.78062 0.0
C517 C 0.51668 0.6432 0.81001 0.0
C518 C 0.50677 0.69853 0.77207 0.0
C519 C 0.5183 0.62606 0.76319 0.0
H520 H 0.47729 0.64198 0.6788 0.0
H521 H 0.55308 0.69091 0.68297 0.0
H522 H 0.46805 0.62122 0.74607 0.0
H523 H 0.46473 0.64694 0.7503 0.0
H524 H 0.45308 0.62861 0.71923 0.0
H525 H 0.57401 0.70372 0.72538 0.0
H526 H 0.55685 0.70521 0.75441 0.0
H527 H 0.56185 0.68041 0.75161 0.0
H528 H 0.5111 0.69138 0.82724 0.0
H529 H 0.51934 0.62949 0.81975 0.0
H530 H 0.49143 0.69057 0.75723 0.0
H531 H 0.52288 0.71109 0.75986 0.0
H532 H 0.50339 0.70893 0.78823 0.0
H533 H 0.50283 0.61653 0.74877 0.0
H534 H 0.51974 0.61259 0.77637 0.0
H535 H 0.53463 0.63546 0.75 0.0
C536 C 0.83696 0.52509 0.30859 0.0
C537 C 0.85508 0.52326 0.3227 0.0
C538 C 0.83566 0.5244 0.27912 0.0
C539 C 0.85312 0.5222 0.26344 0.0
C540 C 0.87115 0.51983 0.27762 0.0
C541 C 0.8718 0.52022 0.3071 0.0
C542 C 0.81595 0.52658 0.26475 0.0
C543 C 0.89024 0.51771 0.26164 0.0
C544 C 0.84315 0.50409 0.18644 0.0
C545 C 0.85601 0.52638 0.17305 0.0
C546 C 0.84148 0.50246 0.21588 0.0
C547 C 0.85333 0.5236 0.23223 0.0
C548 C 0.86612 0.54617 0.21877 0.0
C549 C 0.86712 0.54729 0.18933 0.0
C550 C 0.82733 0.47813 0.22948 0.0
C551 C 0.87927 0.5691 0.23548 0.0
H552 H 0.82392 0.52733 0.32059 0.0
H553 H 0.88588 0.51887 0.31792 0.0
H554 H 0.82378 0.54356 0.25265 0.0
H555 H 0.80636 0.5117 0.24956 0.0
H556 H 0.80277 0.52637 0.27994 0.0
H557 H 0.90251 0.5152 0.27581 0.0
H558 H 0.88187 0.50239 0.24684 0.0
H559 H 0.90099 0.53413 0.24894 0.0
H560 H 0.83444 0.4879 0.1739 0.0
H561 H 0.87718 0.56456 0.17905 0.0
H562 H 0.81379 0.47792 0.24404 0.0
H563 H 0.83945 0.47426 0.24216 0.0
H564 H 0.81804 0.46359 0.21378 0.0
H565 H 0.86667 0.57094 0.24972 0.0
H566 H 0.88812 0.5852 0.2218 0.0
H567 H 0.89312 0.56858 0.24884 0.0
C568 C 0.30961 0.83203 0.68934 0.0
C569 C 0.33035 0.85016 0.67647 0.0
C570 C 0.30799 0.8297 0.71873 0.0
C571 C 0.32739 0.8462 0.73556 0.0
C572 C 0.34861 0.86412 0.72259 0.0
C573 C 0.3499 0.86574 0.69319 0.0
C574 C 0.28527 0.81008 0.73179 0.0
C575 C 0.36957 0.88225 0.73979 0.0
C576 C 0.31551 0.86081 0.80889 0.0
C577 C 0.32467 0.84941 0.82574 0.0
C578 C 0.31576 0.8594 0.7795 0.0
C579 C 0.32502 0.84592 0.76667 0.0
C580 C 0.33332 0.83349 0.78361 0.0
C581 C 0.33326 0.83557 0.81299 0.0
C582 C 0.30702 0.87316 0.76218 0.0
C583 C 0.34289 0.81857 0.77068 0.0
H584 H 0.29451 0.81987 0.67645 0.0
H585 H 0.36595 0.87983 0.68333 0.0
H586 H 0.28952 0.8 0.74747 0.0
H587 H 0.27589 0.81806 0.74308 0.0
H588 H 0.27286 0.7973 0.71585 0.0
H589 H 0.38513 0.89442 0.72649 0.0
H590 H 0.36408 0.89325 0.75225 0.0
H591 H 0.37537 0.87303 0.75488 0.0
H592 H 0.30891 0.87159 0.81865 0.0
H593 H 0.34024 0.82663 0.82598 0.0
H594 H 0.293 0.86099 0.7472 0.0
H595 H 0.32205 0.88705 0.74958 0.0
H596 H 0.29955 0.88207 0.77539 0.0
H597 H 0.32995 0.80588 0.7551 0.0
H598 H 0.34651 0.80823 0.7867 0.0
H599 H 0.35978 0.83037 0.75928 0.0
C600 C 0.48221 0.35353 0.3141 0.0
C601 C 0.48273 0.33548 0.33 0.0
C602 C 0.48262 0.3531 0.28464 0.0
C603 C 0.48394 0.33436 0.27077 0.0
C604 C 0.4854 0.31659 0.28674 0.0
C605 C 0.48457 0.31725 0.31621 0.0
C606 C 0.48076 0.37222 0.26835 0.0
C607 C 0.48719 0.29655 0.2727 0.0
C608 C 0.45806 0.3192 0.19711 0.0
C609 C 0.47858 0.33186 0.18047 0.0
C610 C 0.45963 0.31957 0.22652 0.0
C611 C 0.48232 0.33263 0.23959 0.0
C612 C 0.50321 0.34481 0.22287 0.0
C613 C 0.50108 0.34442 0.19346 0.0
C614 C 0.4369 0.30655 0.24361 0.0
C615 C 0.52774 0.35862 0.23607 0.0
H616 H 0.48072 0.36762 0.32468 0.0
H617 H 0.4851 0.30333 0.32844 0.0
H618 H 0.49587 0.38114 0.25333 0.0
H619 H 0.46397 0.3639 0.25586 0.0
H620 H 0.48081 0.38607 0.28229 0.0
H621 H 0.49016 0.28531 0.28808 0.0
H622 H 0.47046 0.28491 0.26093 0.0
H623 H 0.50209 0.30395 0.25728 0.0
H624 H 0.44062 0.30952 0.18716 0.0
H625 H 0.517 0.35415 0.18065 0.0
H626 H 0.43475 0.31956 0.25676 0.0
H627 H 0.43794 0.29359 0.25806 0.0
H628 H 0.42073 0.29672 0.2302 0.0
H629 H 0.52912 0.37387 0.24837 0.0
H630 H 0.54228 0.36572 0.22014 0.0
H631 H 0.53059 0.34698 0.25091 0.0
C632 C 0.12539 0.45179 0.68507 0.0
C633 C 0.14292 0.46938 0.66771 0.0
C634 C 0.12767 0.45337 0.71439 0.0
C635 C 0.14823 0.47279 0.72666 0.0
C636 C 0.16635 0.49026 0.70921 0.0
C637 C 0.16336 0.48848 0.67988 0.0
C638 C 0.10776 0.43458 0.73226 0.0
C639 C 0.18872 0.51095 0.72154 0.0
C640 C 0.13998 0.488 0.80125 0.0
C641 C 0.14817 0.47514 0.817 0.0
C642 C 0.1406 0.48801 0.77179 0.0
C643 C 0.15006 0.4752 0.75777 0.0
C644 C 0.15947 0.46316 0.7736 0.0
C645 C 0.15819 0.46307 0.80308 0.0
C646 C 0.13007 0.50077 0.75569 0.0
C647 C 0.17013 0.44971 0.75939 0.0
H648 H 0.10951 0.43703 0.67574 0.0
H649 H 0.17701 0.50204 0.66647 0.0
H650 H 0.11488 0.4259 0.74636 0.0
H651 H 0.10015 0.44314 0.7458 0.0
H652 H 0.09307 0.42049 0.71942 0.0
H653 H 0.20181 0.5221 0.70509 0.0
H654 H 0.18397 0.52251 0.73402 0.0
H655 H 0.19747 0.50418 0.73606 0.0
H656 H 0.13216 0.49732 0.81193 0.0
H657 H 0.16468 0.45324 0.81521 0.0
H658 H 0.1141 0.48749 0.74379 0.0
H659 H 0.14318 0.51331 0.74017 0.0
H660 H 0.12463 0.51099 0.76971 0.0
H661 H 0.15583 0.43383 0.74832 0.0
H662 H 0.17897 0.44353 0.7746 0.0
H663 H 0.18344 0.4612 0.74337 0.0
C664 C 0.68398 0.16423 0.31394 0.0
C665 C 0.66437 0.14518 0.32742 0.0
C666 C 0.68474 0.16635 0.28454 0.0
C667 C 0.66566 0.14871 0.26829 0.0
C668 C 0.64557 0.12972 0.28187 0.0
C669 C 0.64507 0.12833 0.31131 0.0
C670 C 0.70622 0.18711 0.27083 0.0
C671 C 0.62505 0.11034 0.26528 0.0
C672 C 0.6576 0.15873 0.19123 0.0
C673 C 0.66831 0.14705 0.17795 0.0
C674 C 0.65726 0.16012 0.22069 0.0
C675 C 0.66738 0.14908 0.23711 0.0
C676 C 0.67846 0.13752 0.22373 0.0
C677 C 0.67901 0.13687 0.19431 0.0
C678 C 0.64577 0.17306 0.23423 0.0
C679 C 0.6891 0.12519 0.24049 0.0
H680 H 0.69886 0.17739 0.32637 0.0
H681 H 0.62992 0.11354 0.32168 0.0
H682 H 0.71643 0.18041 0.25886 0.0
H683 H 0.70036 0.19623 0.25564 0.0
H684 H 0.71842 0.20046 0.28645 0.0
H685 H 0.61034 0.09735 0.27903 0.0
H686 H 0.61768 0.11836 0.25056 0.0
H687 H 0.63162 0.10042 0.25244 0.0
H688 H 0.64941 0.16671 0.1786 0.0
H689 H 0.68718 0.1277 0.18411 0.0
H690 H 0.65839 0.18665 0.24932 0.0
H691 H 0.62974 0.16016 0.24633 0.0
H692 H 0.64023 0.18211 0.21853 0.0
H693 H 0.70302 0.1381 0.25504 0.0
H694 H 0.69728 0.11722 0.22685 0.0
H695 H 0.67498 0.11074 0.25352 0.0
C696 C 0.17216 0.43226 0.96414 0.0
C697 C 0.18134 0.4517 0.94547 0.0
C698 C 0.18724 0.42949 0.98317 0.0
C699 C 0.21206 0.44636 0.98314 0.0
C700 C 0.22156 0.46527 0.96328 0.0
C701 C 0.20603 0.46782 0.94483 0.0
C702 C 0.17645 0.40925 0.00421 0.0
C703 C 0.24801 0.48338 0.96226 0.0
C704 C 0.24963 0.4605 0.0491 0.0
C705 C 0.26243 0.44862 0.04392 0.0
C706 C 0.23231 0.45894 0.03006 0.0
C707 C 0.22797 0.44543 0.00508 0.0
C708 C 0.24014 0.4326 0.0003 0.0
C709 C 0.25716 0.43423 0.01992 0.0
C710 C 0.21939 0.47257 0.03613 0.0
C711 C 0.23611 0.41817 0.97381 0.0
H712 H 0.15304 0.41981 0.96475 0.0
H713 H 0.21318 0.48278 0.93028 0.0
H714 H 0.18635 0.39929 0.00421 0.0
H715 H 0.17801 0.41668 0.02564 0.0
H716 H 0.15725 0.39648 0.99986 0.0
H717 H 0.25276 0.49571 0.94403 0.0
H718 H 0.25339 0.4942 0.98182 0.0
H719 H 0.25859 0.47413 0.96106 0.0
H720 H 0.25357 0.47154 0.06773 0.0
H721 H 0.26709 0.42506 0.01582 0.0
H722 H 0.19976 0.4606 0.03394 0.0
H723 H 0.2249 0.48728 0.02064 0.0
H724 H 0.22325 0.48043 0.05757 0.0
H725 H 0.2167 0.40586 0.97033 0.0
H726 H 0.24531 0.40749 0.97447 0.0
H727 H 0.24296 0.43044 0.95547 0.0
C728 C 0.74245 0.20419 0.44765 0.0
C729 C 0.7292 0.17994 0.45504 0.0
C730 C 0.76061 0.22078 0.46524 0.0
C731 C 0.76532 0.21293 0.49101 0.0
C732 C 0.75291 0.18824 0.49783 0.0
C733 C 0.73504 0.17196 0.47961 0.0
C734 C 0.77377 0.24691 0.45698 0.0
C735 C 0.75735 0.17923 0.52519 0.0
C736 C 0.82109 0.2581 0.53025 0.0
C737 C 0.81171 0.26903 0.54755 0.0
C738 C 0.8061 0.23917 0.5123 0.0
C739 C 0.78122 0.23093 0.51199 0.0
C740 C 0.77158 0.24117 0.53044 0.0
C741 C 0.78698 0.26021 0.54787 0.0
C742 C 0.81701 0.22878 0.49278 0.0
C743 C 0.74508 0.23264 0.53102 0.0
H744 H 0.73809 0.21035 0.42852 0.0
H745 H 0.72478 0.1532 0.48538 0.0
H746 H 0.76835 0.25708 0.47107 0.0
H747 H 0.79338 0.25458 0.4594 0.0
H748 H 0.76995 0.24966 0.43494 0.0
H749 H 0.74856 0.15938 0.52569 0.0
H750 H 0.77682 0.18692 0.52885 0.0
H751 H 0.75022 0.18508 0.54283 0.0
H752 H 0.84024 0.26492 0.52994 0.0
H753 H 0.77967 0.26851 0.5614 0.0
H754 H 0.81558 0.23362 0.47077 0.0
H755 H 0.80712 0.20894 0.4941 0.0
H756 H 0.83619 0.23546 0.49758 0.0
H757 H 0.73957 0.23683 0.51067 0.0
H758 H 0.74025 0.24118 0.54814 0.0
H759 H 0.73464 0.21292 0.53384 0.0
C760 C 0.56603 0.82201 0.02257 0.0
C761 C 0.55126 0.81415 0.0464 0.0
C762 C 0.56796 0.80562 0.00491 0.0
C763 C 0.55487 0.78089 0.01138 0.0
C764 C 0.5412 0.77307 0.03642 0.0
C765 C 0.53952 0.78982 0.05361 0.0
C766 C 0.58276 0.81462 0.97845 0.0
C767 C 0.52717 0.74686 0.04419 0.0
C768 C 0.53104 0.73478 0.95313 0.0
C769 C 0.54618 0.72508 0.95494 0.0
C770 C 0.53433 0.75363 0.97067 0.0
C771 C 0.55316 0.76291 0.99062 0.0
C772 C 0.56913 0.75386 0.99177 0.0
C773 C 0.56548 0.73503 0.97382 0.0
C774 C 0.51705 0.76295 0.9686 0.0
C775 C 0.5894 0.76335 0.01275 0.0
H776 H 0.5752 0.84083 0.01696 0.0
H777 H 0.52822 0.7837 0.07212 0.0
H778 H 0.59428 0.80649 0.97595 0.0
H779 H 0.57069 0.80927 0.95994 0.0
H780 H 0.59429 0.83444 0.97836 0.0
H781 H 0.51953 0.74401 0.0657 0.0
H782 H 0.51225 0.73723 0.02906 0.0
H783 H 0.53874 0.73868 0.04291 0.0
H784 H 0.51619 0.72722 0.93845 0.0
H785 H 0.57722 0.72756 0.97527 0.0
H786 H 0.52698 0.7827 0.966 0.0
H787 H 0.50654 0.75889 0.98833 0.0
H788 H 0.50436 0.75489 0.95076 0.0
H789 H 0.59996 0.78319 0.01186 0.0
H790 H 0.60162 0.75613 0.00907 0.0
H791 H 0.58199 0.75834 0.03432 0.0
C792 C 0.74894 0.54767 0.54835 0.0
C793 C 0.73549 0.55852 0.54126 0.0
C794 C 0.7668 0.54913 0.53034 0.0
C795 C 0.77125 0.56172 0.50462 0.0
C796 C 0.75864 0.57384 0.49808 0.0
C797 C 0.74087 0.5721 0.51653 0.0
C798 C 0.78 0.53609 0.53815 0.0
C799 C 0.763 0.58754 0.47092 0.0
C800 C 0.82745 0.57289 0.46619 0.0
C801 C 0.81828 0.55289 0.44839 0.0
C802 C 0.81222 0.57668 0.48384 0.0
C803 C 0.78733 0.56007 0.48356 0.0
C804 C 0.77789 0.54056 0.46457 0.0
C805 C 0.79351 0.53719 0.44722 0.0
C806 C 0.82287 0.59775 0.50372 0.0
C807 C 0.75141 0.52253 0.46352 0.0
H808 H 0.74494 0.53727 0.56754 0.0
H809 H 0.73054 0.58058 0.51102 0.0
H810 H 0.77489 0.52092 0.52346 0.0
H811 H 0.79961 0.54822 0.53619 0.0
H812 H 0.77593 0.52892 0.55992 0.0
H813 H 0.75395 0.59836 0.47059 0.0
H814 H 0.78246 0.59961 0.46748 0.0
H815 H 0.75615 0.57476 0.45306 0.0
H816 H 0.84661 0.58509 0.46711 0.0
H817 H 0.78633 0.52178 0.43337 0.0
H818 H 0.82144 0.59123 0.52561 0.0
H819 H 0.81282 0.60755 0.50262 0.0
H820 H 0.84204 0.61046 0.49908 0.0
H821 H 0.74574 0.51254 0.48367 0.0
H822 H 0.74679 0.50943 0.44614 0.0
H823 H 0.74096 0.5318 0.46083 0.0
C824 C 0.27433 0.82567 0.98971 0.0
C825 C 0.27354 0.82164 0.96067 0.0
C826 C 0.25666 0.80878 0.00759 0.0
C827 C 0.23779 0.78739 0.99609 0.0
C828 C 0.23618 0.78387 0.96661 0.0
C829 C 0.25411 0.80106 0.94923 0.0
C830 C 0.25892 0.81322 0.0389 0.0
C831 C 0.21625 0.76132 0.95356 0.0
C832 C 0.21128 0.73101 0.0403 0.0
C833 C 0.1893 0.72858 0.04851 0.0
C834 C 0.22735 0.75032 0.02365 0.0
C835 C 0.22128 0.76763 0.01495 0.0
C836 C 0.19935 0.76559 0.02367 0.0
C837 C 0.18358 0.74605 0.04041 0.0
C838 C 0.25064 0.75193 0.01489 0.0
C839 C 0.19236 0.78376 0.01483 0.0
H840 H 0.28927 0.84163 0.99865 0.0
H841 H 0.25336 0.79793 0.92677 0.0
H842 H 0.24162 0.8098 0.04789 0.0
H843 H 0.26361 0.80067 0.04921 0.0
H844 H 0.27294 0.83183 0.04417 0.0
H845 H 0.21618 0.76242 0.93026 0.0
H846 H 0.21835 0.74582 0.9595 0.0
H847 H 0.19861 0.75772 0.9616 0.0
H848 H 0.21581 0.71758 0.04656 0.0
H849 H 0.16658 0.74421 0.0467 0.0
H850 H 0.26599 0.76941 0.02145 0.0
H851 H 0.25133 0.75092 0.99165 0.0
H852 H 0.25293 0.73737 0.02412 0.0
H853 H 0.20661 0.80207 0.02071 0.0
H854 H 0.17524 0.78026 0.02454 0.0
H855 H 0.19043 0.78345 0.99164 0.0
C856 C 0.46052 0.20328 0.55653 0.0
C857 C 0.4527 0.17985 0.54744 0.0
C858 C 0.45927 0.21996 0.53876 0.0
C859 C 0.45023 0.21308 0.51113 0.0
C860 C 0.44137 0.18915 0.50224 0.0
C861 C 0.4426 0.17275 0.52059 0.0
C862 C 0.46861 0.24525 0.54913 0.0
C863 C 0.43173 0.1812 0.47289 0.0
C864 C 0.4365 0.2559 0.47138 0.0
C865 C 0.45802 0.26982 0.45681 0.0
C866 C 0.43332 0.23677 0.48851 0.0
C867 C 0.45208 0.23151 0.49095 0.0
C868 C 0.47345 0.24492 0.47537 0.0
C869 C 0.47617 0.26395 0.45852 0.0
C870 C 0.41029 0.22283 0.50481 0.0
C871 C 0.49381 0.23973 0.47726 0.0
H872 H 0.46818 0.20877 0.57736 0.0
H873 H 0.43655 0.15463 0.51349 0.0
H874 H 0.48499 0.2577 0.53726 0.0
H875 H 0.45517 0.25091 0.54541 0.0
H876 H 0.47306 0.24714 0.57189 0.0
H877 H 0.42336 0.1615 0.47018 0.0
H878 H 0.41827 0.18656 0.46777 0.0
H879 H 0.44654 0.19015 0.45748 0.0
H880 H 0.42241 0.26039 0.47008 0.0
H881 H 0.49279 0.2746 0.44718 0.0
H882 H 0.414 0.22623 0.52762 0.0
H883 H 0.40261 0.20332 0.50141 0.0
H884 H 0.39671 0.22783 0.49878 0.0
H885 H 0.50119 0.24335 0.49892 0.0
H886 H 0.50855 0.25079 0.4624 0.0
H887 H 0.48724 0.22054 0.47278 0.0
C888 C 0.82627 0.55856 0.0167 0.0
C889 C 0.8189 0.54537 0.04177 0.0
C890 C 0.80963 0.55991 0.99888 0.0
C891 C 0.78511 0.54784 0.00641 0.0
C892 C 0.77775 0.53538 0.03229 0.0
C893 C 0.79475 0.53425 0.04965 0.0
C894 C 0.81814 0.57338 0.97146 0.0
C895 C 0.75177 0.52242 0.04114 0.0
C896 C 0.74112 0.56175 0.96972 0.0
C897 C 0.72981 0.5424 0.95105 0.0
C898 C 0.75957 0.56411 0.98749 0.0
C899 C 0.76687 0.54675 0.98642 0.0
C900 C 0.75601 0.5276 0.96698 0.0
C901 C 0.73757 0.52564 0.94957 0.0
C902 C 0.77074 0.58474 0.00798 0.0
C903 C 0.76342 0.50882 0.96509 0.0
H904 H 0.84494 0.56721 0.01054 0.0
H905 H 0.78899 0.52411 0.06907 0.0
H906 H 0.81079 0.56059 0.95366 0.0
H907 H 0.81147 0.58617 0.96915 0.0
H908 H 0.83798 0.58343 0.96979 0.0
H909 H 0.74926 0.51507 0.06279 0.0
H910 H 0.74438 0.53468 0.04013 0.0
H911 H 0.74116 0.5074 0.02645 0.0
H912 H 0.73516 0.57474 0.97095 0.0
H913 H 0.72893 0.51069 0.93511 0.0
H914 H 0.79051 0.59464 0.00563 0.0
H915 H 0.76672 0.57777 0.02982 0.0
H916 H 0.76404 0.59747 0.00503 0.0
H917 H 0.78301 0.51745 0.96147 0.0
H918 H 0.754 0.49574 0.94792 0.0
H919 H 0.75949 0.49889 0.98525 0.0
C920 C 0.19881 0.75029 0.44788 0.0
C921 C 0.17857 0.73038 0.45917 0.0
C922 C 0.21581 0.76823 0.46542 0.0
C923 C 0.21244 0.76613 0.49492 0.0
C924 C 0.19138 0.74674 0.50631 0.0
C925 C 0.17466 0.72907 0.48827 0.0
C926 C 0.23799 0.78873 0.45248 0.0
C927 C 0.18714 0.74392 0.53764 0.0
C928 C 0.26903 0.7934 0.53878 0.0
C929 C 0.2708 0.81494 0.54768 0.0
C930 C 0.2499 0.77723 0.52198 0.0
C931 C 0.23209 0.78276 0.51384 0.0
C932 C 0.23349 0.80428 0.52319 0.0
C933 C 0.25288 0.82016 0.54005 0.0
C934 C 0.24899 0.75442 0.51251 0.0
C935 C 0.21479 0.8107 0.51494 0.0
H936 H 0.20184 0.75144 0.42538 0.0
H937 H 0.15897 0.71376 0.49709 0.0
H938 H 0.24113 0.80609 0.46096 0.0
H939 H 0.25383 0.78708 0.458 0.0
H940 H 0.23674 0.78908 0.42921 0.0
H941 H 0.16874 0.72942 0.54292 0.0
H942 H 0.20014 0.73964 0.54752 0.0
H943 H 0.19006 0.76091 0.54708 0.0
H944 H 0.28281 0.78926 0.54466 0.0
H945 H 0.25421 0.83682 0.54688 0.0
H946 H 0.24989 0.7541 0.48923 0.0
H947 H 0.23179 0.73864 0.51899 0.0
H948 H 0.26392 0.75252 0.52131 0.0
H949 H 0.21482 0.81279 0.49178 0.0
H950 H 0.21791 0.82758 0.52496 0.0
H951 H 0.1967 0.79606 0.52092 0.0
C952 C 0.43143 0.17762 0.98003 0.0
C953 C 0.44679 0.18525 0.95671 0.0
C954 C 0.43019 0.19426 0.99795 0.0
C955 C 0.44469 0.21904 0.99236 0.0
C956 C 0.45921 0.22676 0.96797 0.0
C957 C 0.46006 0.20975 0.95041 0.0
C958 C 0.41435 0.18536 0.02362 0.0
C959 C 0.47485 0.25305 0.96123 0.0
C960 C 0.43486 0.26566 0.02919 0.0
C961 C 0.45291 0.2742 0.0497 0.0
C962 C 0.4314 0.24713 0.01088 0.0
C963 C 0.44638 0.237 0.01317 0.0
C964 C 0.46404 0.24497 0.03452 0.0
C965 C 0.46708 0.26348 0.05254 0.0
C966 C 0.4123 0.23898 0.98848 0.0
C967 C 0.48032 0.23454 0.03769 0.0
H968 H 0.42106 0.15869 0.98494 0.0
H969 H 0.4719 0.21573 0.93235 0.0
H970 H 0.42565 0.19006 0.04277 0.0
H971 H 0.40337 0.19415 0.02537 0.0
H972 H 0.40221 0.16563 0.02324 0.0
H973 H 0.48353 0.25601 0.94031 0.0
H974 H 0.46414 0.26219 0.96167 0.0
H975 H 0.48905 0.26166 0.97742 0.0
H976 H 0.42383 0.27388 0.02695 0.0
H977 H 0.48101 0.26999 0.0684 0.0
H978 H 0.40074 0.2192 0.98897 0.0
H979 H 0.42084 0.24384 0.96744 0.0
H980 H 0.40085 0.24721 0.99101 0.0
H981 H 0.46956 0.21477 0.03978 0.0
H982 H 0.4923 0.24186 0.05625 0.0
H983 H 0.49157 0.23849 0.0186 0.0
C984 C 0.16958 0.43332 0.51678 0.0
C985 C 0.17706 0.44738 0.54119 0.0
C986 C 0.18612 0.43125 0.49959 0.0
C987 C 0.21064 0.44345 0.50714 0.0
C988 C 0.21807 0.45663 0.53254 0.0
C989 C 0.20117 0.45848 0.54925 0.0
C990 C 0.17755 0.41702 0.47268 0.0
C991 C 0.24405 0.46973 0.54141 0.0
C992 C 0.25498 0.4293 0.47207 0.0
C993 C 0.26628 0.44838 0.45303 0.0
C994 C 0.23634 0.42704 0.48939 0.0
C995 C 0.22885 0.44421 0.48745 0.0
C996 C 0.23963 0.46301 0.46754 0.0
C997 C 0.25827 0.46489 0.45061 0.0
C998 C 0.22524 0.40678 0.51039 0.0
C999 C 0.232 0.48158 0.46471 0.0
H1000 H 0.15093 0.42467 0.5105 0.0
H1001 H 0.207 0.46926 0.56819 0.0
H1002 H 0.18456 0.42937 0.45443 0.0
H1003 H 0.18449 0.40442 0.47092 0.0
H1004 H 0.15769 0.40667 0.47126 0.0
H1005 H 0.24655 0.47743 0.56286 0.0
H1006 H 0.25145 0.45746 0.54091 0.0
H1007 H 0.25464 0.48451 0.52642 0.0
H1008 H 0.26114 0.4165 0.47402 0.0
H1009 H 0.2669 0.47961 0.43584 0.0
H1010 H 0.20546 0.39687 0.5082 0.0
H1011 H 0.22941 0.41415 0.53204 0.0
H1012 H 0.23188 0.39397 0.50786 0.0
H1013 H 0.21239 0.47272 0.46113 0.0
H1014 H 0.24129 0.49426 0.44717 0.0
H1015 H 0.23593 0.49197 0.48451 0.0
C1016 C 0.78868 0.25272 0.95122 0.0
C1017 C 0.81343 0.26333 0.95541 0.0
C1018 C 0.77246 0.23461 0.96915 0.0
C1019 C 0.78124 0.22688 0.99175 0.0
C1020 C 0.80622 0.23666 0.99523 0.0
C1021 C 0.82206 0.25485 0.97701 0.0
C1022 C 0.74593 0.22459 0.96472 0.0
C1023 C 0.81621 0.2287 0.01892 0.0
C1024 C 0.7391 0.20353 0.05396 0.0
C1025 C 0.72718 0.17876 0.04925 0.0
C1026 C 0.75751 0.21934 0.03605 0.0
C1027 C 0.76421 0.21011 0.01297 0.0
C1028 C 0.75315 0.18504 0.00901 0.0
C1029 C 0.73468 0.16962 0.0272 0.0
C1030 C 0.76892 0.24598 0.04102 0.0
C1031 C 0.76001 0.17456 0.9848 0.0
H1032 H 0.78193 0.25916 0.93448 0.0
H1033 H 0.8412 0.26295 0.98026 0.0
H1034 H 0.73652 0.20474 0.96388 0.0
H1035 H 0.73839 0.22962 0.9827 0.0
H1036 H 0.74202 0.23131 0.94507 0.0
H1037 H 0.83581 0.236 0.01681 0.0
H1038 H 0.81276 0.23483 0.03926 0.0
H1039 H 0.80716 0.20886 0.01972 0.0
H1040 H 0.73344 0.21068 0.07104 0.0
H1041 H 0.72556 0.15045 0.02356 0.0
H1042 H 0.76428 0.25428 0.02348 0.0
H1043 H 0.78871 0.25443 0.04146 0.0
H1044 H 0.76292 0.25016 0.06104 0.0
H1045 H 0.75402 0.17868 0.96476 0.0
H1046 H 0.7518 0.15481 0.98659 0.0
H1047 H 0.77975 0.18271 0.98364 0.0
C1048 C 0.51909 0.78693 0.45103 0.0
C1049 C 0.53773 0.81081 0.45069 0.0
C1050 C 0.52011 0.76999 0.46858 0.0
C1051 C 0.54019 0.77716 0.48635 0.0
C1052 C 0.55936 0.80111 0.48557 0.0
C1053 C 0.55793 0.81767 0.46764 0.0
C1054 C 0.49941 0.74454 0.46862 0.0
C1055 C 0.581 0.80941 0.50429 0.0
C1056 C 0.5283 0.73865 0.55129 0.0
C1057 C 0.53713 0.72367 0.54302 0.0
C1058 C 0.52997 0.75673 0.5334 0.0
C1059 C 0.54054 0.75972 0.50653 0.0
C1060 C 0.55015 0.74512 0.49841 0.0
C1061 C 0.54841 0.72731 0.51683 0.0
C1062 C 0.51973 0.77213 0.54291 0.0
C1063 C 0.56144 0.74771 0.46988 0.0
H1064 H 0.50347 0.78154 0.4379 0.0
H1065 H 0.57237 0.83613 0.46748 0.0
H1066 H 0.50599 0.73185 0.46467 0.0
H1067 H 0.49068 0.74016 0.48957 0.0
H1068 H 0.48573 0.74158 0.4525 0.0
H1069 H 0.59492 0.82829 0.50008 0.0
H1070 H 0.57551 0.80784 0.52664 0.0
H1071 H 0.58903 0.79784 0.50133 0.0
H1072 H 0.51965 0.73596 0.57157 0.0
H1073 H 0.55525 0.71574 0.51033 0.0
H1074 H 0.50429 0.76865 0.52941 0.0
H1075 H 0.53333 0.79138 0.54067 0.0
H1076 H 0.51361 0.76862 0.56512 0.0
H1077 H 0.5477 0.74295 0.45327 0.0
H1078 H 0.56947 0.73606 0.46751 0.0
H1079 H 0.57556 0.76658 0.46624 0.0
C1080 C 0.37142 0.42685 0.12014 0.0
C1081 C 0.35619 0.42361 0.0975 0.0
C1082 C 0.38414 0.41449 0.12136 0.0
C1083 C 0.38205 0.39907 0.09901 0.0
C1084 C 0.36638 0.39545 0.0763 0.0
C1085 C 0.35337 0.40756 0.07601 0.0
C1086 C 0.40022 0.41833 0.14626 0.0
C1087 C 0.36408 0.37956 0.05179 0.0
C1088 C 0.43515 0.39014 0.08695 0.0
C1089 C 0.42664 0.367 0.09755 0.0
C1090 C 0.42066 0.40064 0.08698 0.0
C1091 C 0.39734 0.38788 0.09855 0.0
C1092 C 0.38876 0.36461 0.10964 0.0
C1093 C 0.40344 0.35429 0.10867 0.0
C1094 C 0.43025 0.4253 0.07442 0.0
C1095 C 0.3642 0.35074 0.12275 0.0
H1096 H 0.37342 0.43913 0.13689 0.0
H1097 H 0.34168 0.40516 0.05842 0.0
H1098 H 0.39621 0.40084 0.15531 0.0
H1099 H 0.4192 0.42764 0.13937 0.0
H1100 H 0.39819 0.4292 0.163 0.0
H1101 H 0.35048 0.37798 0.03628 0.0
H1102 H 0.3816 0.38692 0.04095 0.0
H1103 H 0.35911 0.36136 0.05932 0.0
H1104 H 0.45304 0.39991 0.07816 0.0
H1105 H 0.39692 0.33643 0.11702 0.0
H1106 H 0.43096 0.43794 0.09071 0.0
H1107 H 0.41809 0.42475 0.05756 0.0
H1108 H 0.44848 0.43246 0.06544 0.0
H1109 H 0.3626 0.3612 0.14028 0.0
H1110 H 0.36042 0.33305 0.13097 0.0
H1111 H 0.35028 0.34782 0.10705 0.0
C1112 C 0.04154 0.4305 0.57916 0.0
C1113 C 0.05645 0.42048 0.57865 0.0
C1114 C 0.01657 0.41591 0.57989 0.0
C1115 C 0.00627 0.39069 0.58023 0.0
C1116 C 0.02121 0.38043 0.57941 0.0
C1117 C 0.04618 0.39548 0.57857 0.0
C1118 C 0.00122 0.42752 0.58061 0.0
C1119 C 0.01083 0.35361 0.57982 0.0
C1120 C 0.94341 0.35786 0.61005 0.0
C1121 C 0.92952 0.35183 0.58553 0.0
C1122 C 0.96847 0.36948 0.60861 0.0
C1123 C 0.97984 0.37524 0.58202 0.0
C1124 C 0.96585 0.36806 0.5572 0.0
C1125 C 0.94081 0.35639 0.55926 0.0
C1126 C 0.98279 0.37668 0.63554 0.0
C1127 C 0.97734 0.37387 0.52848 0.0
H1128 H 0.04939 0.44981 0.57915 0.0
H1129 H 0.05766 0.38767 0.57821 0.0
H1130 H 0.98845 0.42105 0.56273 0.0
H1131 H 0.99048 0.42242 0.60022 0.0
H1132 H 0.01203 0.44738 0.57956 0.0
H1133 H 0.02487 0.34848 0.5783 0.0
H1134 H 0.00059 0.34607 0.59953 0.0
H1135 H 0.9981 0.34525 0.56212 0.0
H1136 H 0.93474 0.35427 0.63041 0.0
H1137 H 0.93013 0.3517 0.54025 0.0
H1138 H 0.99248 0.39648 0.63759 0.0
H1139 H 0.99642 0.37099 0.6352 0.0
H1140 H 0.97128 0.36883 0.65438 0.0
H1141 H 0.98661 0.39352 0.52502 0.0
H1142 H 0.96403 0.36497 0.51139 0.0
H1143 H 0.99105 0.36832 0.527 0.0
C1144 C 0.59822 0.9459 0.07544 0.0
C1145 C 0.57346 0.93448 0.08016 0.0
C1146 C 0.61215 0.97101 0.07479 0.0
C1147 C 0.60099 0.98489 0.07902 0.0
C1148 C 0.57594 0.97341 0.08335 0.0
C1149 C 0.56248 0.94834 0.08385 0.0
C1150 C 0.63881 0.98267 0.07005 0.0
C1151 C 0.56339 0.98762 0.08796 0.0
C1152 C 0.63586 0.04816 0.10744 0.0
C1153 C 0.63855 0.06179 0.08333 0.0
C1154 C 0.62441 0.02311 0.10612 0.0
C1155 C 0.61548 0.01145 0.08004 0.0
C1156 C 0.61898 0.02516 0.05542 0.0
C1157 C 0.63047 0.05023 0.05736 0.0
C1158 C 0.62102 0.00909 0.13284 0.0
C1159 C 0.60979 0.01333 0.02723 0.0
H1160 H 0.60677 0.93523 0.07251 0.0
H1161 H 0.54333 0.93959 0.08744 0.0
H1162 H 0.64423 0.99524 0.05201 0.0
H1163 H 0.64854 0.99332 0.08881 0.0
H1164 H 0.64456 0.96934 0.06587 0.0
H1165 H 0.5437 0.97594 0.0902 0.0
H1166 H 0.57044 0.99868 0.10722 0.0
H1167 H 0.56701 5e-05 0.0701 0.0
H1168 H 0.64214 0.05702 0.12755 0.0
H1169 H 0.63257 0.06072 0.03866 0.0
H1170 H 0.62772 0.99637 0.13003 0.0
H1171 H 0.60165 0.99834 0.13786 0.0
H1172 H 0.63042 0.0209 0.15103 0.0
H1173 H 0.61601 0.00042 0.02288 0.0
H1174 H 0.61571 0.02655 0.00979 0.0
H1175 H 0.58992 0.00305 0.02749 0.0
C1176 C 0.61772 0.57346 0.59899 0.0
C1177 C 0.64161 0.58355 0.59035 0.0
C1178 C 0.60608 0.58689 0.59861 0.0
C1179 C 0.61865 0.61099 0.58934 0.0
C1180 C 0.64292 0.62144 0.58109 0.0
C1181 C 0.65415 0.60757 0.58171 0.0
C1182 C 0.58018 0.57513 0.60767 0.0
C1183 C 0.65686 0.64709 0.57113 0.0
C1184 C 0.57853 0.63401 0.56258 0.0
C1185 C 0.57658 0.64567 0.58642 0.0
C1186 C 0.59308 0.62355 0.56282 0.0
C1187 C 0.60595 0.62483 0.5875 0.0
C1188 C 0.60499 0.63763 0.61115 0.0
C1189 C 0.59028 0.64791 0.61033 0.0
C1190 C 0.59372 0.61012 0.53714 0.0
C1191 C 0.61855 0.63947 0.63778 0.0
H1192 H 0.60798 0.55492 0.60575 0.0
H1193 H 0.67264 0.61544 0.57503 0.0
H1194 H 0.57813 0.58562 0.62482 0.0
H1195 H 0.56895 0.57483 0.58982 0.0
H1196 H 0.57322 0.55646 0.61511 0.0
H1197 H 0.6759 0.65286 0.56668 0.0
H1198 H 0.64858 0.64924 0.55171 0.0
H1199 H 0.65621 0.65923 0.58719 0.0
H1200 H 0.56804 0.6323 0.54402 0.0
H1201 H 0.58888 0.65699 0.62879 0.0
H1202 H 0.585 0.5907 0.542 0.0
H1203 H 0.61251 0.61616 0.53108 0.0
H1204 H 0.58438 0.61255 0.5189 0.0
H1205 H 0.6108 0.62154 0.64772 0.0
H1206 H 0.61784 0.65204 0.6532 0.0
H1207 H 0.63758 0.64554 0.63297 0.0
C1208 C 0.95562 0.56778 0.08575 0.0
C1209 C 0.9404 0.57737 0.08791 0.0
C1210 C 0.98056 0.58266 0.08605 0.0
C1211 C 0.99052 0.60773 0.08894 0.0
C1212 C 0.97525 0.61755 0.09116 0.0
C1213 C 0.95031 0.60222 0.09043 0.0
C1214 C 0.99624 0.57151 0.08332 0.0
C1215 C 0.98527 0.64416 0.09462 0.0
C1216 C 0.05421 0.63873 0.11623 0.0
C1217 C 0.06737 0.64681 0.09123 0.0
C1218 C 0.02913 0.62721 0.11598 0.0
C1219 C 0.01696 0.62341 0.09006 0.0
C1220 C 0.03021 0.6326 0.06492 0.0
C1221 C 0.05532 0.64434 0.06584 0.0
C1222 C 0.01563 0.618 0.14329 0.0
C1223 C 0.01788 0.62876 0.03685 0.0
H1224 H 0.94803 0.54858 0.08364 0.0
H1225 H 0.93857 0.60968 0.09218 0.0
H1226 H 0.00854 0.57944 0.06516 0.0
H1227 H 0.00748 0.57537 0.1024 0.0
H1228 H 0.98565 0.55178 0.08041 0.0
H1229 H 0.97097 0.64897 0.0958 0.0
H1230 H 0.99621 0.65045 0.11406 0.0
H1231 H 0.99727 0.65395 0.07676 0.0
H1232 H 0.06349 0.64077 0.13594 0.0
H1233 H 0.06545 0.65055 0.04646 0.0
H1234 H 0.00634 0.59813 0.14352 0.0
H1235 H 0.00173 0.62325 0.14531 0.0
H1236 H 0.02768 0.62481 0.16186 0.0
H1237 H 0.00872 0.60944 0.03138 0.0
H1238 H 0.03065 0.63904 0.01974 0.0
H1239 H 0.00397 0.63406 0.03788 0.0
C1240 C 0.42604 0.04545 0.60128 0.0
C1241 C 0.41773 0.06169 0.59824 0.0
C1242 C 0.41025 0.02071 0.6003 0.0
C1243 C 0.38547 0.01192 0.59632 0.0
C1244 C 0.37684 0.02818 0.59378 0.0
C1245 C 0.39314 0.05296 0.5947 0.0
C1246 C 0.42019 0.00396 0.60309 0.0
C1247 C 0.35052 0.01941 0.58971 0.0
C1248 C 0.35416 0.94894 0.56705 0.0
C1249 C 0.34653 0.93531 0.59177 0.0
C1250 C 0.36541 0.97402 0.56798 0.0
C1251 C 0.36897 0.98564 0.59426 0.0
C1252 C 0.35958 0.97185 0.619 0.0
C1253 C 0.34851 0.94681 0.61747 0.0
C1254 C 0.37513 0.98808 0.54112 0.0
C1255 C 0.36277 0.98356 0.64737 0.0
H1256 H 0.44503 0.05209 0.60404 0.0
H1257 H 0.38665 0.06547 0.59237 0.0
H1258 H 0.41157 0.99157 0.62102 0.0
H1259 H 0.41611 0.99287 0.58384 0.0
H1260 H 0.43989 0.01372 0.60641 0.0
H1261 H 0.34657 0.03432 0.58945 0.0
H1262 H 0.34435 0.00947 0.56958 0.0
H1263 H 0.33995 0.00675 0.60675 0.0
H1264 H 0.35254 0.94012 0.5471 0.0
H1265 H 0.34244 0.93632 0.63662 0.0
H1266 H 0.39495 0.99679 0.5411 0.0
H1267 H 0.37053 0.00248 0.53961 0.0
H1268 H 0.36814 0.97651 0.52219 0.0
H1269 H 0.38175 0.99166 0.65401 0.0
H1270 H 0.35134 0.97052 0.66371 0.0
H1271 H 0.35845 0.99818 0.64625 0.0
C1272 C 0.59896 0.65063 0.89615 0.0
C1273 C 0.57935 0.6405 0.91454 0.0
C1274 C 0.61428 0.64107 0.89393 0.0
C1275 C 0.60988 0.62108 0.91065 0.0
C1276 C 0.5908 0.6116 0.93022 0.0
C1277 C 0.57571 0.62136 0.93183 0.0
C1278 C 0.63443 0.6516 0.8728 0.0
C1279 C 0.58562 0.59043 0.94862 0.0
C1280 C 0.62545 0.57475 0.88609 0.0
C1281 C 0.64507 0.57972 0.90324 0.0
C1282 C 0.61467 0.58896 0.88721 0.0
C1283 C 0.62364 0.60852 0.90611 0.0
C1284 C 0.64417 0.61433 0.92252 0.0
C1285 C 0.65472 0.59986 0.92083 0.0
C1286 C 0.59293 0.58228 0.86916 0.0
C1287 C 0.65421 0.63504 0.94291 0.0
H1288 H 0.60182 0.66545 0.88276 0.0
H1289 H 0.56069 0.61361 0.94626 0.0
H1290 H 0.65142 0.65493 0.88266 0.0
H1291 H 0.6304 0.63865 0.85543 0.0
H1292 H 0.63711 0.66866 0.86373 0.0
H1293 H 0.57136 0.58649 0.96432 0.0
H1294 H 0.57983 0.57429 0.93536 0.0
H1295 H 0.60206 0.59377 0.95994 0.0
H1296 H 0.61807 0.55932 0.87226 0.0
H1297 H 0.66995 0.60379 0.93407 0.0
H1298 H 0.5951 0.59819 0.85758 0.0
H1299 H 0.57687 0.5758 0.88273 0.0
H1300 H 0.58961 0.56801 0.85373 0.0
H1301 H 0.65633 0.65142 0.93256 0.0
H1302 H 0.67181 0.63895 0.95157 0.0
H1303 H 0.64153 0.63077 0.96064 0.0
C1304 C 0.94697 0.6057 0.39845 0.0
C1305 C 0.93708 0.58409 0.41343 0.0
C1306 C 0.97191 0.62095 0.3971 0.0
C1307 C 0.98714 0.61437 0.41113 0.0
C1308 C 0.97714 0.59307 0.42725 0.0
C1309 C 0.95224 0.57818 0.42815 0.0
C1310 C 0.98196 0.64355 0.37975 0.0
C1311 C 0.99276 0.58546 0.44263 0.0
C1312 C 0.04922 0.63248 0.38489 0.0
C1313 C 0.06368 0.64949 0.40498 0.0
C1314 C 0.02425 0.62195 0.38569 0.0
C1315 C 0.0135 0.62847 0.40726 0.0
C1316 C 0.02807 0.64655 0.42675 0.0
C1317 C 0.05308 0.65693 0.42533 0.0
C1318 C 0.00935 0.60288 0.36436 0.0
C1319 C 0.01722 0.65396 0.45002 0.0
H1320 H 0.93527 0.61034 0.38709 0.0
H1321 H 0.94467 0.56157 0.43994 0.0
H1322 H 0.99552 0.6591 0.39198 0.0
H1323 H 0.99112 0.64175 0.36096 0.0
H1324 H 0.96781 0.64739 0.37263 0.0
H1325 H 0.98215 0.56928 0.4558 0.0
H1326 H 0.00324 0.5815 0.42723 0.0
H1327 H 0.00575 0.60019 0.45632 0.0
H1328 H 0.05738 0.62686 0.36894 0.0
H1329 H 0.06423 0.67014 0.44085 0.0
H1330 H 0.99587 0.60661 0.35475 0.0
H1331 H -0.00053 0.58522 0.37497 0.0
H1332 H 0.02046 0.60161 0.34735 0.0
H1333 H 0.0032 0.65743 0.44156 0.0
H1334 H 0.03088 0.67025 0.46117 0.0
H1335 H 0.00848 0.63918 0.46551 0.0
C1336 C 0.42567 0.04992 0.93721 0.0
C1337 C 0.41747 0.06423 0.92488 0.0
C1338 C 0.41187 0.02488 0.93624 0.0
C1339 C 0.38949 0.01393 0.92225 0.0
C1340 C 0.38073 0.02829 0.9106 0.0
C1341 C 0.3948 0.05335 0.91222 0.0
C1342 C 0.42169 0.01017 0.94926 0.0
C1343 C 0.35705 0.01723 0.89531 0.0
C1344 C 0.37181 0.9528 0.89266 0.0
C1345 C 0.35578 0.93755 0.91308 0.0
C1346 C 0.38204 0.9777 0.89475 0.0
C1347 C 0.37631 0.98757 0.91803 0.0
C1348 C 0.35948 0.97222 0.9382 0.0
C1349 C 0.34927 0.94731 0.93539 0.0
C1350 C 0.39967 0.99347 0.87258 0.0
C1351 C 0.35309 0.98213 0.9634 0.0
H1352 H 0.44312 0.0583 0.94719 0.0
H1353 H 0.38846 0.0644 0.9026 0.0
H1354 H 0.40821 0.99639 0.9635 0.0
H1355 H 0.4256 0.00064 0.93253 0.0
H1356 H 0.43839 0.02136 0.96136 0.0
H1357 H 0.35183 0.03072 0.88966 0.0
H1358 H 0.35824 0.00853 0.87574 0.0
H1359 H 0.34269 0.00311 0.90839 0.0
H1360 H 0.37672 0.94528 0.87525 0.0
H1361 H 0.33687 0.93554 0.95122 0.0
H1362 H 0.4178 0.00387 0.88198 0.0
H1363 H 0.39469 0.00652 0.86446 0.0
H1364 H 0.40061 0.98295 0.85462 0.0
H1365 H 0.36896 0.9916 0.97728 0.0
H1366 H 0.33817 0.96785 0.9758 0.0
H1367 H 0.34792 0.99541 0.9567 0.0
C1368 C 0.34104 0.38991 0.42184 0.0
C1369 C 0.35385 0.41275 0.4097 0.0
C1370 C 0.3511 0.37499 0.4236 0.0
C1371 C 0.37439 0.38315 0.41282 0.0
C1372 C 0.38696 0.40583 0.3996 0.0
C1373 C 0.37657 0.42037 0.3983 0.0
C1374 C 0.33721 0.35094 0.43788 0.0
C1375 C 0.41177 0.41512 0.38764 0.0
C1376 C 0.41661 0.3638 0.44191 0.0
C1377 C 0.41671 0.34911 0.42029 0.0
C1378 C 0.40164 0.37373 0.44061 0.0
C1379 C 0.38658 0.369 0.41698 0.0
C1380 C 0.38555 0.35301 0.39589 0.0
C1381 C 0.40061 0.34315 0.39785 0.0
C1382 C 0.40308 0.39047 0.46371 0.0
C1383 C 0.36973 0.34755 0.37038 0.0
H1384 H 0.32344 0.38397 0.43065 0.0
H1385 H 0.38647 0.43795 0.3887 0.0
H1386 H 0.33675 0.33666 0.42444 0.0
H1387 H 0.34628 0.35113 0.45779 0.0
H1388 H 0.31853 0.3463 0.44279 0.0
H1389 H 0.41846 0.43245 0.37646 0.0
H1390 H 0.42447 0.41769 0.40484 0.0
H1391 H 0.41183 0.40189 0.37277 0.0
H1392 H 0.42887 0.36825 0.45944 0.0
H1393 H 0.40062 0.33175 0.38111 0.0
H1394 H 0.38487 0.38572 0.47092 0.0
H1395 H 0.41177 0.40907 0.45551 0.0
H1396 H 0.41353 0.39009 0.48208 0.0
H1397 H 0.35142 0.34323 0.37664 0.0
H1398 H 0.36848 0.33238 0.35797 0.0
H1399 H 0.3771 0.3636 0.35663 0.0
C1400 C 0.04947 0.40409 0.92492 0.0
C1401 C 0.06092 0.41718 0.90068 0.0
C1402 C 0.0244 0.39048 0.92634 0.0
C1403 C 0.01059 0.3897 0.90279 0.0
C1404 C 0.02215 0.40184 0.87775 0.0
C1405 C 0.04721 0.41564 0.87709 0.0
C1406 C 0.0127 0.37801 0.95352 0.0
C1407 C 0.00803 0.40107 0.85204 0.0
C1408 C 0.94441 0.34285 0.90055 0.0
C1409 C 0.93392 0.35649 0.90836 0.0
C1410 C 0.96941 0.35339 0.89857 0.0
C1411 C 0.98412 0.37798 0.9051 0.0
C1412 C 0.97357 0.39168 0.91347 0.0
C1413 C 0.94858 0.38082 0.91473 0.0
C1414 C 0.98005 0.33836 0.8891 0.0
C1415 C 0.98868 0.41787 0.92103 0.0
H1416 H 0.06005 0.4053 0.94321 0.0
H1417 H 0.05606 0.42561 0.85824 0.0
H1418 H 0.00304 0.38655 0.96284 0.0
H1419 H -0.00072 0.35895 0.94955 0.0
H1420 H 0.02592 0.37882 0.9691 0.0
H1421 H 0.0197 0.40935 0.83342 0.0
H1422 H 0.9945 0.38228 0.84687 0.0
H1423 H 0.99823 0.4108 0.85634 0.0
H1424 H 0.93307 0.32405 0.89548 0.0
H1425 H 0.9405 0.39136 0.92096 0.0
H1426 H 0.99257 0.33861 0.90529 0.0
H1427 H 0.99058 0.34601 0.86959 0.0
H1428 H 0.96614 0.31945 0.88501 0.0
H1429 H 0.00147 0.42015 0.93799 0.0
H1430 H 0.97768 0.42573 0.92817 0.0
H1431 H -0.00062 0.42817 0.90256 0.0
C1432 C 0.59944 0.94535 0.42265 0.0
C1433 C 0.58094 0.93496 0.40279 0.0
C1434 C 0.61413 0.97035 0.42435 0.0
C1435 C 0.61026 0.98515 0.40559 0.0
C1436 C 0.59257 0.97462 0.38439 0.0
C1437 C 0.57804 0.94965 0.38334 0.0
C1438 C 0.63278 0.98093 0.44726 0.0
C1439 C 0.58804 0.98976 0.36379 0.0
C1440 C 0.62142 0.04598 0.42887 0.0
C1441 C 0.64241 0.0615 0.41424 0.0
C1442 C 0.61137 0.02111 0.42709 0.0
C1443 C 0.6225 0.01147 0.41007 0.0
C1444 C 0.64418 0.02704 0.396 0.0
C1445 C 0.65395 0.05196 0.39832 0.0
C1446 C 0.58832 0.00513 0.44262 0.0
C1447 C 0.6565 0.01738 0.37764 0.0
H1448 H 0.60176 0.93403 0.43769 0.0
H1449 H 0.56391 0.94166 0.36775 0.0
H1450 H 0.6501 0.99513 0.43864 0.0
H1451 H 0.62696 0.98939 0.46337 0.0
H1452 H 0.63567 0.96716 0.45771 0.0
H1453 H 0.57551 0.97885 0.34677 0.0
H1454 H 0.58026 -0.00064 0.37504 0.0
H1455 H 0.6051 0.0035 0.35413 0.0
H1456 H 0.61252 0.05329 0.44139 0.0
H1457 H 0.6702 0.06392 0.38698 0.0
H1458 H 0.59027 0.99195 0.45568 0.0
H1459 H 0.57372 0.99489 0.4273 0.0
H1460 H 0.58285 0.01546 0.45644 0.0
H1461 H 0.65876 0.00367 0.38916 0.0
H1462 H 0.67434 0.03172 0.37035 0.0
H1463 H 0.64523 0.00847 0.35894 0.0
C1464 C 0.47347 0.60622 0.98818 0.0
C1465 C 0.46912 0.61326 0.96197 0.0
C1466 C 0.45463 0.589 0.00453 0.0
C1467 C 0.43082 0.5788 0.99458 0.0
C1468 C 0.42624 0.58636 0.9685 0.0
C1469 C 0.4455 0.60341 0.95237 0.0
C1470 C 0.46029 0.58119 0.03204 0.0
C1471 C 0.40104 0.57608 0.95741 0.0
C1472 C 0.38669 0.5167 0.02144 0.0
C1473 C 0.37517 0.52176 0.04313 0.0
C1474 C 0.40461 0.5351 0.00528 0.0
C1475 C 0.41098 0.55916 0.01071 0.0
C1476 C 0.39911 0.56437 0.03224 0.0
C1477 C 0.38142 0.54558 0.04837 0.0
C1478 C 0.41707 0.52882 0.98277 0.0
C1479 C 0.40526 0.5898 0.03838 0.0
H1480 H 0.49172 0.61378 0.99569 0.0
H1481 H 0.44207 0.60892 0.93219 0.0
H1482 H 0.45006 0.58336 0.04941 0.0
H1483 H 0.45475 0.56191 0.03097 0.0
H1484 H 0.47967 0.59153 0.03727 0.0
H1485 H 0.40036 0.58511 0.93782 0.0
H1486 H 0.39335 0.5567 0.95299 0.0
H1487 H 0.38949 0.57776 0.97345 0.0
H1488 H 0.38195 0.4983 0.01734 0.0
H1489 H 0.37245 0.54952 0.06503 0.0
H1490 H 0.43648 0.53742 0.98756 0.0
H1491 H 0.41532 0.53581 0.96212 0.0
H1492 H 0.4097 0.50919 0.9809 0.0
H1493 H 0.42413 0.60039 0.04552 0.0
H1494 H 0.39352 0.59073 0.05482 0.0
H1495 H 0.40363 0.59842 0.01896 0.0
C1496 C 0.83139 0.38669 0.545 0.0
C1497 C 0.85275 0.38596 0.546 0.0
C1498 C 0.82958 0.40373 0.52835 0.0
C1499 C 0.84961 0.42037 0.51243 0.0
C1500 C 0.87122 0.41973 0.5135 0.0
C1501 C 0.87251 0.40254 0.53026 0.0
C1502 C 0.80626 0.40392 0.52772 0.0
C1503 C 0.89301 0.43723 0.49693 0.0
C1504 C 0.84347 0.45302 0.44931 0.0
C1505 C 0.85123 0.47584 0.46055 0.0
C1506 C 0.84192 0.43443 0.46625 0.0
C1507 C 0.84834 0.43886 0.49501 0.0
C1508 C 0.85535 0.46163 0.50665 0.0
C1509 C 0.85669 0.47983 0.48928 0.0
C1510 C 0.83427 0.41033 0.45314 0.0
C1511 C 0.86234 0.46706 0.53721 0.0
H1512 H 0.81605 0.37384 0.55707 0.0
H1513 H 0.88906 0.40203 0.53092 0.0
H1514 H 0.80921 0.42154 0.53503 0.0
H1515 H 0.79944 0.40143 0.50585 0.0
H1516 H 0.79232 0.38966 0.54114 0.0
H1517 H 0.90839 0.43422 0.49993 0.0
H1518 H 0.88862 0.43568 0.4742 0.0
H1519 H 0.8986 0.45585 0.50337 0.0
H1520 H 0.83915 0.44983 0.42714 0.0
H1521 H 0.8626 0.49741 0.49812 0.0
H1522 H 0.81968 0.39586 0.46563 0.0
H1523 H 0.84955 0.40697 0.45319 0.0
H1524 H 0.828 0.40919 0.43114 0.0
H1525 H 0.84809 0.45344 0.55087 0.0
H1526 H 0.86566 0.48508 0.54345 0.0
H1527 H 0.87887 0.46623 0.5412 0.0
C1528 C 0.40745 0.87617 0.96075 0.0
C1529 C 0.38638 0.85591 0.95164 0.0
C1530 C 0.42433 0.87392 0.97703 0.0
C1531 C 0.42006 0.85082 0.98437 0.0
C1532 C 0.39901 0.83025 0.97484 0.0
C1533 C 0.38239 0.83304 0.95856 0.0
C1534 C 0.4466 0.89629 0.98674 0.0
C1535 C 0.39392 0.80534 0.98218 0.0
C1536 C 0.47503 0.84806 0.00704 0.0
C1537 C 0.4737 0.84896 0.0364 0.0
C1538 C 0.4572 0.84774 0.98983 0.0
C1539 C 0.43761 0.84839 0.00231 0.0
C1540 C 0.43572 0.8484 0.03197 0.0
C1541 C 0.4538 0.84867 0.04869 0.0
C1542 C 0.45979 0.84761 0.9583 0.0
C1543 C 0.41507 0.84907 0.04603 0.0
H1544 H 0.41062 0.89389 0.95547 0.0
H1545 H 0.3661 0.81732 0.95159 0.0
H1546 H 0.44719 0.89692 0.01005 0.0
H1547 H 0.46281 0.89603 0.97946 0.0
H1548 H 0.4474 0.9129 0.97883 0.0
H1549 H 0.37707 0.79121 0.97245 0.0
H1550 H 0.40892 0.80284 0.97515 0.0
H1551 H 0.39249 0.8029 0.00533 0.0
H1552 H 0.49033 0.84818 0.99744 0.0
H1553 H 0.45268 0.84931 0.07137 0.0
H1554 H 0.46269 0.86479 0.94943 0.0
H1555 H 0.44314 0.83306 0.94878 0.0
H1556 H 0.47504 0.8452 0.95197 0.0
H1557 H 0.41582 0.86626 0.04107 0.0
H1558 H 0.41534 0.8473 0.06924 0.0
H1559 H 0.39778 0.83445 0.03788 0.0
C1560 C 0.55343 0.39722 0.45058 0.0
C1561 C 0.53004 0.38635 0.4612 0.0
C1562 C 0.57258 0.41574 0.46542 0.0
C1563 C 0.56811 0.42372 0.49124 0.0
C1564 C 0.54453 0.41269 0.50209 0.0
C1565 C 0.52581 0.39403 0.48703 0.0
C1566 C 0.59756 0.42689 0.4534 0.0
C1567 C 0.53897 0.4209 0.52936 0.0
C1568 C 0.61802 0.45944 0.54356 0.0
C1569 C 0.6232 0.48289 0.53788 0.0
C1570 C 0.60061 0.44002 0.52796 0.0
C1571 C 0.58786 0.44418 0.50654 0.0
C1572 C 0.59319 0.46786 0.50057 0.0
C1573 C 0.61093 0.48695 0.51619 0.0
C1574 C 0.59562 0.41503 0.53464 0.0
C1575 C 0.57975 0.473 0.47818 0.0
H1576 H 0.55676 0.39125 0.43067 0.0
H1577 H 0.50774 0.38572 0.4953 0.0
H1578 H 0.60435 0.44609 0.44873 0.0
H1579 H 0.60989 0.42604 0.46903 0.0
H1580 H 0.5982 0.41787 0.4338 0.0
H1581 H 0.51971 0.41023 0.53506 0.0
H1582 H 0.54973 0.41954 0.54671 0.0
H1583 H 0.54395 0.44002 0.52764 0.0
H1584 H 0.62758 0.45626 0.56021 0.0
H1585 H 0.61485 0.50506 0.51177 0.0
H1586 H 0.59714 0.40626 0.51531 0.0
H1587 H 0.57702 0.40402 0.5425 0.0
H1588 H 0.60809 0.41499 0.55074 0.0
H1589 H 0.58126 0.46568 0.45768 0.0
H1590 H 0.58648 0.49248 0.47568 0.0
H1591 H 0.56043 0.46398 0.48361 0.0
C1592 C 0.15426 0.54562 0.94878 0.0
C1593 C 0.13752 0.5215 0.95394 0.0
C1594 C 0.15544 0.56379 0.96617 0.0
C1595 C 0.13951 0.5576 0.9892 0.0
C1596 C 0.12273 0.53325 0.99463 0.0
C1597 C 0.12193 0.51549 0.97691 0.0
C1598 C 0.17354 0.58959 0.95973 0.0
C1599 C 0.10545 0.52596 0.01898 0.0
C1600 C 0.15402 0.60238 0.04842 0.0
C1601 C 0.13938 0.612 0.04159 0.0
C1602 C 0.15438 0.58474 0.03146 0.0
C1603 C 0.13979 0.57662 0.00712 0.0
C1604 C 0.12505 0.58633 0.00011 0.0
C1605 C 0.125 0.60388 0.01746 0.0
C1606 C 0.17027 0.57471 0.03961 0.0
C1607 C 0.10925 0.57814 0.97433 0.0
H1608 H 0.16638 0.55033 0.93108 0.0
H1609 H 0.109 0.49685 0.98104 0.0
H1610 H 0.16417 0.5997 0.95514 0.0
H1611 H 0.18516 0.59811 0.97829 0.0
H1612 H 0.18506 0.59135 0.94148 0.0
H1613 H 0.09396 0.5062 0.02076 0.0
H1614 H 0.11544 0.53296 0.03895 0.0
H1615 H 0.09373 0.53387 0.01642 0.0
H1616 H 0.16519 0.60864 0.06704 0.0
H1617 H 0.11369 0.6113 0.01204 0.0
H1618 H 0.18292 0.5775 0.02228 0.0
H1619 H 0.15924 0.55511 0.04309 0.0
H1620 H 0.18074 0.58314 0.05899 0.0
H1621 H 0.12027 0.58102 0.95527 0.0
H1622 H 0.0991 0.58776 0.97163 0.0
H1623 H 0.09628 0.55865 0.97577 0.0
C1624 C 0.54882 0.1647 0.54849 0.0
C1625 C 0.52593 0.14462 0.54531 0.0
C1626 C 0.56814 0.16734 0.53211 0.0
C1627 C 0.56442 0.14934 0.51239 0.0
C1628 C 0.54126 0.12921 0.50889 0.0
C1629 C 0.52229 0.12716 0.5253 0.0
C1630 C 0.59255 0.18915 0.53619 0.0
C1631 C 0.5366 0.10951 0.48829 0.0
C1632 C 0.60766 0.15903 0.45294 0.0
C1633 C 0.61971 0.1477 0.46367 0.0
C1634 C 0.59033 0.16074 0.46909 0.0
C1635 C 0.58485 0.15067 0.49642 0.0
C1636 C 0.59759 0.13997 0.50766 0.0
C1637 C 0.61493 0.1387 0.49118 0.0
C1638 C 0.57728 0.17252 0.45655 0.0
C1639 C 0.59219 0.12889 0.53664 0.0
H1640 H 0.55166 0.1783 0.56383 0.0
H1641 H 0.50462 0.11161 0.52274 0.0
H1642 H 0.60518 0.18364 0.54443 0.0
H1643 H 0.59976 0.1982 0.51574 0.0
H1644 H 0.59213 0.20223 0.55104 0.0
H1645 H 0.51741 0.09539 0.48754 0.0
H1646 H 0.54229 0.11707 0.46688 0.0
H1647 H 0.54732 0.10105 0.49421 0.0
H1648 H 0.61141 0.16614 0.43174 0.0
H1649 H 0.62425 0.12999 0.49963 0.0
H1650 H 0.57744 0.18587 0.47139 0.0
H1651 H 0.55827 0.15882 0.45279 0.0
H1652 H 0.5853 0.18159 0.43631 0.0
H1653 H 0.59308 0.14196 0.55244 0.0
H1654 H 0.60478 0.1227 0.54298 0.0
H1655 H 0.5737 0.11332 0.5371 0.0
C1656 C 0.55048 0.39412 0.0505 0.0
C1657 C 0.52651 0.38423 0.04222 0.0
C1658 C 0.5691 0.4113 0.03375 0.0
C1659 C 0.56354 0.41881 0.00827 0.0
C1660 C 0.53938 0.40856 0.99961 0.0
C1661 C 0.52116 0.39133 0.01665 0.0
C1662 C 0.59468 0.42173 0.04356 0.0
C1663 C 0.53272 0.4162 0.97265 0.0
C1664 C 0.60707 0.4805 0.97958 0.0
C1665 C 0.61789 0.47502 0.95748 0.0
C1666 C 0.58956 0.46238 0.99647 0.0
C1667 C 0.58283 0.43819 0.99124 0.0
C1668 C 0.59394 0.43256 0.96922 0.0
C1669 C 0.61131 0.45107 0.9525 0.0
C1670 C 0.57799 0.46909 0.01963 0.0
C1671 C 0.58731 0.40698 0.96315 0.0
H1672 H 0.55469 0.38861 0.07022 0.0
H1673 H 0.50265 0.38373 0.01014 0.0
H1674 H 0.60561 0.41973 0.02693 0.0
H1675 H 0.60256 0.44119 0.04759 0.0
H1676 H 0.59608 0.41303 0.06308 0.0
H1677 H 0.51315 0.40588 0.96844 0.0
H1678 H 0.53837 0.43551 0.97376 0.0
H1679 H 0.54224 0.41384 0.95462 0.0
H1680 H 0.61209 0.499 0.98352 0.0
H1681 H 0.61971 0.44677 0.9355 0.0
H1682 H 0.58034 0.46228 0.04011 0.0
H1683 H 0.55845 0.4606 0.01574 0.0
H1684 H 0.58559 0.48877 0.0213 0.0
H1685 H 0.58966 0.39857 0.98234 0.0
H1686 H 0.59829 0.40569 0.94598 0.0
H1687 H 0.56816 0.39644 0.95709 0.0
C1688 C 0.16285 0.61828 0.45749 0.0
C1689 C 0.14068 0.61573 0.44988 0.0
C1690 C 0.1641 0.6007 0.47369 0.0
C1691 C 0.14266 0.58013 0.48239 0.0
C1692 C 0.12026 0.57735 0.47441 0.0
C1693 C 0.11955 0.59518 0.45827 0.0
C1694 C 0.1883 0.60423 0.48177 0.0
C1695 C 0.097 0.55564 0.48319 0.0
C1696 C 0.14203 0.52314 0.50395 0.0
C1697 C 0.14086 0.52402 0.53333 0.0
C1698 C 0.14336 0.54165 0.48713 0.0
C1699 C 0.14348 0.56149 0.50001 0.0
C1700 C 0.14296 0.56279 0.5297 0.0
C1701 C 0.14166 0.54402 0.54603 0.0
C1702 C 0.14394 0.53963 0.45554 0.0
C1703 C 0.14307 0.58368 0.54419 0.0
H1704 H 0.17924 0.63417 0.4511 0.0
H1705 H 0.10235 0.59311 0.45245 0.0
H1706 H 0.1901 0.6049 0.50499 0.0
H1707 H 0.19003 0.58885 0.47437 0.0
H1708 H 0.20327 0.62098 0.47285 0.0
H1709 H 0.08109 0.55605 0.47492 0.0
H1710 H 0.09638 0.53907 0.47559 0.0
H1711 H 0.0958 0.55455 0.50646 0.0
H1712 H 0.14151 0.50775 0.49401 0.0
H1713 H 0.1408 0.5448 0.56873 0.0
H1714 H 0.15937 0.55598 0.44667 0.0
H1715 H 0.12744 0.53815 0.44632 0.0
H1716 H 0.14523 0.5238 0.44889 0.0
H1717 H 0.15853 0.6008 0.53691 0.0
H1718 H 0.144 0.58268 0.56743 0.0
H1719 H 0.12657 0.58411 0.53864 0.0
C1720 C 0.58702 0.12546 0.0505 0.0
C1721 C 0.61081 0.14429 0.05111 0.0
C1722 C 0.56984 0.12684 0.03373 0.0
C1723 C 0.57661 0.14761 0.01734 0.0
C1724 C 0.60046 0.16694 0.01846 0.0
C1725 C 0.61731 0.16502 0.03528 0.0
C1726 C 0.54458 0.10582 0.03304 0.0
C1727 C 0.60827 0.18945 0.00147 0.0
C1728 C 0.53799 0.13996 0.95356 0.0
C1729 C 0.52275 0.14778 0.96401 0.0
C1730 C 0.55594 0.14026 0.97055 0.0
C1731 C 0.5588 0.14876 0.99853 0.0
C1732 C 0.54396 0.15741 0.00887 0.0
C1733 C 0.52604 0.15672 0.99151 0.0
C1734 C 0.57137 0.1308 0.95882 0.0
C1735 C 0.54663 0.16684 0.03849 0.0
H1736 H 0.58192 0.10938 0.06264 0.0
H1737 H 0.63569 0.17963 0.03571 0.0
H1738 H 0.53169 0.11174 0.03889 0.0
H1739 H 0.54005 0.09848 0.0114 0.0
H1740 H 0.54209 0.09123 0.04753 0.0
H1741 H 0.62718 0.20329 0.00569 0.0
H1742 H 0.60633 0.18511 0.97872 0.0
H1743 H 0.59663 0.19713 0.00623 0.0
H1744 H 0.53548 0.133 0.93233 0.0
H1745 H 0.51435 0.16289 0.99964 0.0
H1746 H 0.56836 0.11483 0.97097 0.0
H1747 H 0.59059 0.14448 0.96097 0.0
H1748 H 0.56751 0.12571 0.93632 0.0
H1749 H 0.54239 0.15221 0.05372 0.0
H1750 H 0.53467 0.17426 0.04273 0.0
H1751 H 0.56542 0.18106 0.04237 0.0
C1752 C 0.44222 0.60757 0.5465 0.0
C1753 C 0.46277 0.60635 0.55308 0.0
C1754 C 0.42383 0.58973 0.53008 0.0
C1755 C 0.42637 0.57055 0.51959 0.0
C1756 C 0.44696 0.5691 0.52653 0.0
C1757 C 0.4648 0.5869 0.54342 0.0
C1758 C 0.40189 0.59157 0.5236 0.0
C1759 C 0.45049 0.54913 0.51544 0.0
C1760 C 0.37316 0.51264 0.49374 0.0
C1761 C 0.37493 0.5161 0.46455 0.0
C1762 C 0.38926 0.53058 0.512 0.0
C1763 C 0.40787 0.55227 0.50072 0.0
C1764 C 0.40955 0.55596 0.47125 0.0
C1765 C 0.39288 0.5379 0.45352 0.0
C1766 C 0.3866 0.52618 0.54331 0.0
C1767 C 0.4294 0.57868 0.45841 0.0
H1768 H 0.44059 0.62257 0.554 0.0
H1769 H 0.48074 0.58597 0.54831 0.0
H1770 H 0.40084 0.59405 0.50067 0.0
H1771 H 0.38547 0.57472 0.52959 0.0
H1772 H 0.40199 0.60675 0.53478 0.0
H1773 H 0.46744 0.5505 0.52299 0.0
H1774 H 0.43535 0.53151 0.52196 0.0
H1775 H 0.45073 0.5495 0.49212 0.0
H1776 H 0.35914 0.49587 0.50234 0.0
H1777 H 0.39431 0.54058 0.43095 0.0
H1778 H 0.38606 0.54115 0.55412 0.0
H1779 H 0.40231 0.52547 0.55161 0.0
H1780 H 0.37012 0.50915 0.54877 0.0
H1781 H 0.42928 0.59451 0.46733 0.0
H1782 H 0.42782 0.57902 0.43518 0.0
H1783 H 0.44699 0.58046 0.46363 0.0
C1784 C 0.86744 0.38493 0.98617 0.0
C1785 C 0.85348 0.37614 0.96181 0.0
C1786 C 0.86746 0.4033 0.00197 0.0
C1787 C 0.85291 0.41286 0.99339 0.0
C1788 C 0.83823 0.40355 0.96927 0.0
C1789 C 0.83882 0.38539 0.95361 0.0
C1790 C 0.88359 0.41295 0.02739 0.0
C1791 C 0.82224 0.41308 0.9597 0.0
C1792 C 0.84106 0.44908 0.04746 0.0
C1793 C 0.8578 0.47258 0.03957 0.0
C1794 C 0.8389 0.42941 0.03228 0.0
C1795 C 0.85403 0.43341 0.0089 0.0
C1796 C 0.87083 0.45712 0.00074 0.0
C1797 C 0.87242 0.47642 0.0161 0.0
C1798 C 0.82062 0.40437 0.04141 0.0
C1799 C 0.88743 0.46211 0.97608 0.0
H1800 H 0.87886 0.37787 0.99254 0.0
H1801 H 0.82791 0.37853 0.93486 0.0
H1802 H 0.89701 0.43212 0.02405 0.0
H1803 H 0.87297 0.41191 0.04622 0.0
H1804 H 0.89321 0.40303 0.03177 0.0
H1805 H 0.81078 0.40287 0.9416 0.0
H1806 H 0.81055 0.41235 0.97722 0.0
H1807 H 0.83335 0.43215 0.95345 0.0
H1808 H 0.82966 0.44605 0.06555 0.0
H1809 H 0.88542 0.49456 0.00994 0.0
H1810 H 0.82979 0.39443 0.04779 0.0
H1811 H 0.80862 0.39446 0.02359 0.0
H1812 H 0.80953 0.40434 0.05928 0.0
H1813 H 0.89881 0.45397 0.97989 0.0
H1814 H 0.89926 0.4816 0.97225 0.0
H1815 H 0.87688 0.4538 0.95675 0.0
C1816 C 0.45303 0.84997 0.45237 0.0
C1817 C 0.47739 0.86323 0.45932 0.0
C1818 C 0.43559 0.85021 0.46982 0.0
C1819 C 0.44273 0.86403 0.49478 0.0
C1820 C 0.4673 0.87734 0.50197 0.0
C1821 C 0.48434 0.87678 0.48414 0.0
C1822 C 0.40955 0.83581 0.46145 0.0
C1823 C 0.4756 0.89229 0.5284 0.0
C1824 C 0.40032 0.88297 0.52517 0.0
C1825 C 0.38909 0.86615 0.54673 0.0
C1826 C 0.41795 0.8826 0.50828 0.0
C1827 C 0.42451 0.86497 0.51306 0.0
C1828 C 0.41349 0.84814 0.53506 0.0
C1829 C 0.39589 0.84893 0.55166 0.0
C1830 C 0.42934 0.9009 0.48508 0.0
C1831 C 0.42008 0.82911 0.54082 0.0
H1832 H 0.44757 0.83945 0.43323 0.0
H1833 H 0.50316 0.88704 0.48963 0.0
H1834 H 0.39909 0.82294 0.47836 0.0
H1835 H 0.40208 0.84789 0.45865 0.0
H1836 H 0.40693 0.82569 0.44162 0.0
H1837 H 0.49533 0.90125 0.53122 0.0
H1838 H 0.4703 0.90622 0.52775 0.0
H1839 H 0.46683 0.88089 0.54704 0.0
H1840 H 0.39513 0.89633 0.52126 0.0
H1841 H 0.38725 0.83587 0.56829 0.0
H1842 H 0.42574 0.89172 0.46445 0.0
H1843 H 0.44906 0.91118 0.4879 0.0
H1844 H 0.42256 0.91371 0.48447 0.0
H1845 H 0.41611 0.8175 0.52206 0.0
H1846 H 0.41021 0.81768 0.55909 0.0
H1847 H 0.43958 0.83758 0.54495 0.0
loop_
_geom_bond_atom_site_label_1
_geom_bond_atom_site_label_2
_geom_bond_distance
_geom_bond_site_symmetry_2
_ccdc_geom_bond_type
In0 O1 2.294 . S
In0 O2 2.326 . S
In0 O6 2.266 . S
In0 O7 2.326 . S
In0 O8 2.266 . S
In0 O9 2.326 . S
In0 O11 2.294 . S
In0 O12 2.326 . S
O1 In0 2.294 . S
O1 C10 1.240 . S
O2 In0 2.326 . S
O2 C10 1.252 . S
C3 O6 1.252 . S
C3 O7 1.260 . S
C4 O11 1.240 . S
C4 O12 1.252 . S
C5 O8 1.252 . S
C5 O9 1.260 . S
O6 In0 2.266 . S
O6 C3 1.252 . S
O7 In0 2.326 . S
O7 C3 1.260 . S
O8 In0 2.266 . S
O8 C5 1.252 . S
O9 In0 2.326 . S
O9 C5 1.260 . S
C10 O1 1.240 . S
C10 O2 1.252 . S
O11 In0 2.294 . S
O11 C4 1.240 . S
O12 In0 2.326 . S
O12 C4 1.252 . S
In13 O14 2.294 . S
In13 O15 2.326 . S
In13 O19 2.266 . S
In13 O20 2.326 . S
In13 O21 2.266 . S
In13 O22 2.326 . S
In13 O24 2.294 . S
In13 O25 2.326 . S
O14 In13 2.294 . S
O14 C23 1.240 . S
O15 In13 2.326 . S
O15 C23 1.252 . S
C16 O19 1.252 . S
C16 O20 1.260 . S
C17 O24 1.240 . S
C17 O25 1.252 . S
C18 O21 1.252 . S
C18 O22 1.260 . S
O19 In13 2.266 . S
O19 C16 1.252 . S
O20 In13 2.326 . S
O20 C16 1.260 . S
O21 In13 2.266 . S
O21 C18 1.252 . S
O22 In13 2.326 . S
O22 C18 1.260 . S
C23 O14 1.240 . S
C23 O15 1.252 . S
O24 In13 2.294 . S
O24 C17 1.240 . S
O25 In13 2.326 . S
O25 C17 1.252 . S
In26 O27 2.294 . S
In26 O28 2.326 . S
In26 O32 2.266 . S
In26 O33 2.326 . S
In26 O34 2.266 . S
In26 O35 2.326 . S
In26 O37 2.294 . S
In26 O38 2.326 . S
O27 In26 2.294 . S
O27 C36 1.240 . S
O28 In26 2.326 . S
O28 C36 1.252 . S
C29 O32 1.252 . S
C29 O33 1.260 . S
C30 O37 1.240 . S
C30 O38 1.252 . S
C31 O34 1.252 . S
C31 O35 1.260 . S
O32 In26 2.266 . S
O32 C29 1.252 . S
O33 In26 2.326 . S
O33 C29 1.260 . S
O34 In26 2.266 . S
O34 C31 1.252 . S
O35 In26 2.326 . S
O35 C31 1.260 . S
C36 O27 1.240 . S
C36 O28 1.252 . S
O37 In26 2.294 . S
O37 C30 1.240 . S
O38 In26 2.326 . S
O38 C30 1.252 . S
In39 O40 2.294 . S
In39 O41 2.326 . S
In39 O45 2.266 . S
In39 O46 2.326 . S
In39 O47 2.266 . S
In39 O48 2.326 . S
In39 O50 2.294 . S
In39 O51 2.326 . S
O40 In39 2.294 . S
O40 C49 1.240 . S
O41 In39 2.326 . S
O41 C49 1.252 . S
C42 O45 1.252 . S
C42 O46 1.260 . S
C43 O50 1.240 . S
C43 O51 1.252 . S
C44 O47 1.252 . S
C44 O48 1.260 . S
O45 In39 2.266 . S
O45 C42 1.252 . S
O46 In39 2.326 . S
O46 C42 1.260 . S
O47 In39 2.266 . S
O47 C44 1.252 . S
O48 In39 2.326 . S
O48 C44 1.260 . S
C49 O40 1.240 . S
C49 O41 1.252 . S
O50 In39 2.294 . S
O50 C43 1.240 . S
O51 In39 2.326 . S
O51 C43 1.252 . S
In52 O53 2.294 . S
In52 O54 2.326 . S
In52 O58 2.266 . S
In52 O59 2.326 . S
In52 O60 2.266 . S
In52 O61 2.326 . S
In52 O63 2.294 . S
In52 O64 2.326 . S
O53 In52 2.294 . S
O53 C62 1.240 . S
O54 In52 2.326 . S
O54 C62 1.252 . S
C55 O58 1.252 . S
C55 O59 1.260 . S
C56 O63 1.240 . S
C56 O64 1.252 . S
C57 O60 1.252 . S
C57 O61 1.260 . S
O58 In52 2.266 . S
O58 C55 1.252 . S
O59 In52 2.326 . S
O59 C55 1.260 . S
O60 In52 2.266 . S
O60 C57 1.252 . S
O61 In52 2.326 . S
O61 C57 1.260 . S
C62 O53 1.240 . S
C62 O54 1.252 . S
O63 In52 2.294 . S
O63 C56 1.240 . S
O64 In52 2.326 . S
O64 C56 1.252 . S
In65 O66 2.294 . S
In65 O67 2.326 . S
In65 O71 2.266 . S
In65 O72 2.326 . S
In65 O73 2.266 . S
In65 O74 2.326 . S
In65 O76 2.294 . S
In65 O77 2.326 . S
O66 In65 2.294 . S
O66 C75 1.240 . S
O67 In65 2.326 . S
O67 C75 1.252 . S
C68 O71 1.252 . S
C68 O72 1.260 . S
C69 O76 1.240 . S
C69 O77 1.252 . S
C70 O73 1.252 . S
C70 O74 1.260 . S
O71 In65 2.266 . S
O71 C68 1.252 . S
O72 In65 2.326 . S
O72 C68 1.260 . S
O73 In65 2.266 . S
O73 C70 1.252 . S
O74 In65 2.326 . S
O74 C70 1.260 . S
C75 O66 1.240 . S
C75 O67 1.252 . S
O76 In65 2.294 . S
O76 C69 1.240 . S
O77 In65 2.326 . S
O77 C69 1.252 . S
In78 O79 2.294 . S
In78 O80 2.326 . S
In78 O84 2.266 . S
In78 O85 2.326 . S
In78 O86 2.266 . S
In78 O87 2.326 . S
In78 O89 2.294 . S
In78 O90 2.326 . S
O79 In78 2.294 . S
O79 C88 1.240 . S
O80 In78 2.326 . S
O80 C88 1.252 . S
C81 O84 1.252 . S
C81 O85 1.260 . S
C82 O89 1.240 . S
C82 O90 1.252 . S
C83 O86 1.252 . S
C83 O87 1.260 . S
O84 In78 2.266 . S
O84 C81 1.252 . S
O85 In78 2.326 . S
O85 C81 1.260 . S
O86 In78 2.266 . S
O86 C83 1.252 . S
O87 In78 2.326 . S
O87 C83 1.260 . S
C88 O79 1.240 . S
C88 O80 1.252 . S
O89 In78 2.294 . S
O89 C82 1.240 . S
O90 In78 2.326 . S
O90 C82 1.252 . S
In91 O92 2.294 . S
In91 O93 2.326 . S
In91 O97 2.266 . S
In91 O98 2.326 . S
In91 O99 2.266 . S
In91 O100 2.326 . S
In91 O102 2.294 . S
In91 O103 2.326 . S
O92 In91 2.294 . S
O92 C101 1.240 . S
O93 In91 2.326 . S
O93 C101 1.252 . S
C94 O97 1.252 . S
C94 O98 1.260 . S
C95 O102 1.240 . S
C95 O103 1.252 . S
C96 O99 1.252 . S
C96 O100 1.260 . S
O97 In91 2.266 . S
O97 C94 1.252 . S
O98 In91 2.326 . S
O98 C94 1.260 . S
O99 In91 2.266 . S
O99 C96 1.252 . S
O100 In91 2.326 . S
O100 C96 1.260 . S
C101 O92 1.240 . S
C101 O93 1.252 . S
O102 In91 2.294 . S
O102 C95 1.240 . S
O103 In91 2.326 . S
O103 C95 1.252 . S
In104 O105 2.294 . S
In104 O106 2.326 . S
In104 O110 2.266 . S
In104 O111 2.326 . S
In104 O112 2.266 . S
In104 O113 2.326 . S
In104 O115 2.294 . S
In104 O116 2.326 . S
O105 In104 2.294 . S
O105 C114 1.240 . S
O106 In104 2.326 . S
O106 C114 1.252 . S
C107 O110 1.252 . S
C107 O111 1.260 . S
C108 O115 1.240 . S
C108 O116 1.252 . S
C109 O112 1.252 . S
C109 O113 1.260 . S
O110 In104 2.266 . S
O110 C107 1.252 . S
O111 In104 2.326 . S
O111 C107 1.260 . S
O112 In104 2.266 . S
O112 C109 1.252 . S
O113 In104 2.326 . S
O113 C109 1.260 . S
C114 O105 1.240 . S
C114 O106 1.252 . S
O115 In104 2.294 . S
O115 C108 1.240 . S
O116 In104 2.326 . S
O116 C108 1.252 . S
In117 O118 2.294 . S
In117 O119 2.326 . S
In117 O123 2.266 . S
In117 O124 2.326 . S
In117 O125 2.266 . S
In117 O126 2.326 . S
In117 O128 2.294 . S
In117 O129 2.326 . S
O118 In117 2.294 . S
O118 C127 1.240 . S
O119 In117 2.326 . S
O119 C127 1.252 . S
C120 O123 1.252 . S
C120 O124 1.260 . S
C121 O128 1.240 . S
C121 O129 1.252 . S
C122 O125 1.252 . S
C122 O126 1.260 . S
O123 In117 2.266 . S
O123 C120 1.252 . S
O124 In117 2.326 . S
O124 C120 1.260 . S
O125 In117 2.266 . S
O125 C122 1.252 . S
O126 In117 2.326 . S
O126 C122 1.260 . S
C127 O118 1.240 . S
C127 O119 1.252 . S
O128 In117 2.294 . S
O128 C121 1.240 . S
O129 In117 2.326 . S
O129 C121 1.252 . S
In130 O131 2.294 . S
In130 O132 2.326 . S
In130 O136 2.266 . S
In130 O137 2.326 . S
In130 O138 2.266 . S
In130 O139 2.326 . S
In130 O141 2.294 . S
In130 O142 2.326 . S
O131 In130 2.294 . S
O131 C140 1.240 . S
O132 In130 2.326 . S
O132 C140 1.252 . S
C133 O136 1.252 . S
C133 O137 1.260 . S
C134 O141 1.240 . S
C134 O142 1.252 . S
C135 O138 1.252 . S
C135 O139 1.260 . S
O136 In130 2.266 . S
O136 C133 1.252 . S
O137 In130 2.326 . S
O137 C133 1.260 . S
O138 In130 2.266 . S
O138 C135 1.252 . S
O139 In130 2.326 . S
O139 C135 1.260 . S
C140 O131 1.240 . S
C140 O132 1.252 . S
O141 In130 2.294 . S
O141 C134 1.240 . S
O142 In130 2.326 . S
O142 C134 1.252 . S
In143 O144 2.294 . S
In143 O145 2.326 . S
In143 O149 2.266 . S
In143 O150 2.326 . S
In143 O151 2.266 . S
In143 O152 2.326 . S
In143 O154 2.294 . S
In143 O155 2.326 . S
O144 In143 2.294 . S
O144 C153 1.240 . S
O145 In143 2.326 . S
O145 C153 1.252 . S
C146 O149 1.252 . S
C146 O150 1.260 . S
C147 O154 1.240 . S
C147 O155 1.252 . S
C148 O151 1.252 . S
C148 O152 1.260 . S
O149 In143 2.266 . S
O149 C146 1.252 . S
O150 In143 2.326 . S
O150 C146 1.260 . S
O151 In143 2.266 . S
O151 C148 1.252 . S
O152 In143 2.326 . S
O152 C148 1.260 . S
C153 O144 1.240 . S
C153 O145 1.252 . S
O154 In143 2.294 . S
O154 C147 1.240 . S
O155 In143 2.326 . S
O155 C147 1.252 . S
In156 O157 2.294 . S
In156 O158 2.326 . S
In156 O162 2.266 . S
In156 O163 2.326 . S
In156 O164 2.266 . S
In156 O165 2.326 . S
In156 O167 2.294 . S
In156 O168 2.326 . S
O157 In156 2.294 . S
O157 C166 1.240 . S
O158 In156 2.326 . S
O158 C166 1.252 . S
C159 O162 1.252 . S
C159 O163 1.260 . S
C160 O167 1.240 . S
C160 O168 1.252 . S
C161 O164 1.252 . S
C161 O165 1.260 . S
O162 In156 2.266 . S
O162 C159 1.252 . S
O163 In156 2.326 . S
O163 C159 1.260 . S
O164 In156 2.266 . S
O164 C161 1.252 . S
O165 In156 2.326 . S
O165 C161 1.260 . S
C166 O157 1.240 . S
C166 O158 1.252 . S
O167 In156 2.294 . S
O167 C160 1.240 . S
O168 In156 2.326 . S
O168 C160 1.252 . S
In169 O170 2.294 . S
In169 O171 2.326 . S
In169 O175 2.266 . S
In169 O176 2.326 . S
In169 O177 2.266 . S
In169 O178 2.326 . S
In169 O180 2.294 . S
In169 O181 2.326 . S
O170 In169 2.294 . S
O170 C179 1.240 . S
O171 In169 2.326 . S
O171 C179 1.252 . S
C172 O175 1.252 . S
C172 O176 1.260 . S
C173 O180 1.240 . S
C173 O181 1.252 . S
C174 O177 1.252 . S
C174 O178 1.260 . S
O175 In169 2.266 . S
O175 C172 1.252 . S
O176 In169 2.326 . S
O176 C172 1.260 . S
O177 In169 2.266 . S
O177 C174 1.252 . S
O178 In169 2.326 . S
O178 C174 1.260 . S
C179 O170 1.240 . S
C179 O171 1.252 . S
O180 In169 2.294 . S
O180 C173 1.240 . S
O181 In169 2.326 . S
O181 C173 1.252 . S
In182 O183 2.294 . S
In182 O184 2.326 . S
In182 O188 2.266 . S
In182 O189 2.326 . S
In182 O190 2.266 . S
In182 O191 2.326 . S
In182 O193 2.294 . S
In182 O194 2.326 . S
O183 In182 2.294 . S
O183 C192 1.240 . S
O184 In182 2.326 . S
O184 C192 1.252 . S
C185 O188 1.252 . S
C185 O189 1.260 . S
C186 O193 1.240 . S
C186 O194 1.252 . S
C187 O190 1.252 . S
C187 O191 1.260 . S
O188 In182 2.266 . S
O188 C185 1.252 . S
O189 In182 2.326 . S
O189 C185 1.260 . S
O190 In182 2.266 . S
O190 C187 1.252 . S
O191 In182 2.326 . S
O191 C187 1.260 . S
C192 O183 1.240 . S
C192 O184 1.252 . S
O193 In182 2.294 . S
O193 C186 1.240 . S
O194 In182 2.326 . S
O194 C186 1.252 . S
In195 O196 2.294 . S
In195 O197 2.326 . S
In195 O201 2.266 . S
In195 O202 2.326 . S
In195 O203 2.266 . S
In195 O204 2.326 . S
In195 O206 2.294 . S
In195 O207 2.326 . S
O196 In195 2.294 . S
O196 C205 1.240 . S
O197 In195 2.326 . S
O197 C205 1.252 . S
C198 O201 1.252 . S
C198 O202 1.260 . S
C199 O206 1.240 . S
C199 O207 1.252 . S
C200 O203 1.252 . S
C200 O204 1.260 . S
O201 In195 2.266 . S
O201 C198 1.252 . S
O202 In195 2.326 . S
O202 C198 1.260 . S
O203 In195 2.266 . S
O203 C200 1.252 . S
O204 In195 2.326 . S
O204 C200 1.260 . S
C205 O196 1.240 . S
C205 O197 1.252 . S
O206 In195 2.294 . S
O206 C199 1.240 . S
O207 In195 2.326 . S
O207 C199 1.252 . S
In208 O209 2.294 . S
In208 O210 2.326 . S
In208 O214 2.266 . S
In208 O215 2.326 . S
In208 O216 2.266 . S
In208 O217 2.326 . S
In208 O219 2.294 . S
In208 O220 2.326 . S
O209 In208 2.294 . S
O209 C218 1.240 . S
O210 In208 2.326 . S
O210 C218 1.252 . S
C211 O214 1.252 . S
C211 O215 1.260 . S
C212 O219 1.240 . S
C212 O220 1.252 . S
C213 O216 1.252 . S
C213 O217 1.260 . S
O214 In208 2.266 . S
O214 C211 1.252 . S
O215 In208 2.326 . S
O215 C211 1.260 . S
O216 In208 2.266 . S
O216 C213 1.252 . S
O217 In208 2.326 . S
O217 C213 1.260 . S
C218 O209 1.240 . S
C218 O210 1.252 . S
O219 In208 2.294 . S
O219 C212 1.240 . S
O220 In208 2.326 . S
O220 C212 1.252 . S
In221 O222 2.294 . S
In221 O223 2.326 . S
In221 O227 2.266 . S
In221 O228 2.326 . S
In221 O229 2.266 . S
In221 O230 2.326 . S
In221 O232 2.294 . S
In221 O233 2.326 . S
O222 In221 2.294 . S
O222 C231 1.240 . S
O223 In221 2.326 . S
O223 C231 1.252 . S
C224 O227 1.252 . S
C224 O228 1.260 . S
C225 O232 1.240 . S
C225 O233 1.252 . S
C226 O229 1.252 . S
C226 O230 1.260 . S
O227 In221 2.266 . S
O227 C224 1.252 . S
O228 In221 2.326 . S
O228 C224 1.260 . S
O229 In221 2.266 . S
O229 C226 1.252 . S
O230 In221 2.326 . S
O230 C226 1.260 . S
C231 O222 1.240 . S
C231 O223 1.252 . S
O232 In221 2.294 . S
O232 C225 1.240 . S
O233 In221 2.326 . S
O233 C225 1.252 . S
In234 O235 2.294 . S
In234 O236 2.326 . S
In234 O240 2.266 . S
In234 O241 2.326 . S
In234 O242 2.266 . S
In234 O243 2.326 . S
In234 O245 2.294 . S
In234 O246 2.326 . S
O235 In234 2.294 . S
O235 C244 1.240 . S
O236 In234 2.326 . S
O236 C244 1.252 . S
C237 O240 1.252 . S
C237 O241 1.260 . S
C238 O245 1.240 . S
C238 O246 1.252 . S
C239 O242 1.252 . S
C239 O243 1.260 . S
O240 In234 2.266 . S
O240 C237 1.252 . S
O241 In234 2.326 . S
O241 C237 1.260 . S
O242 In234 2.266 . S
O242 C239 1.252 . S
O243 In234 2.326 . S
O243 C239 1.260 . S
C244 O235 1.240 . S
C244 O236 1.252 . S
O245 In234 2.294 . S
O245 C238 1.240 . S
O246 In234 2.326 . S
O246 C238 1.252 . S
In247 O248 2.294 . S
In247 O249 2.326 . S
In247 O253 2.266 . S
In247 O254 2.326 . S
In247 O255 2.266 . S
In247 O256 2.326 . S
In247 O258 2.294 . S
In247 O259 2.326 . S
O248 In247 2.294 . S
O248 C257 1.240 . S
O249 In247 2.326 . S
O249 C257 1.252 . S
C250 O253 1.252 . S
C250 O254 1.260 . S
C251 O258 1.240 . S
C251 O259 1.252 . S
C252 O255 1.252 . S
C252 O256 1.260 . S
O253 In247 2.266 . S
O253 C250 1.252 . S
O254 In247 2.326 . S
O254 C250 1.260 . S
O255 In247 2.266 . S
O255 C252 1.252 . S
O256 In247 2.326 . S
O256 C252 1.260 . S
C257 O248 1.240 . S
C257 O249 1.252 . S
O258 In247 2.294 . S
O258 C251 1.240 . S
O259 In247 2.326 . S
O259 C251 1.252 . S
In260 O261 2.294 . S
In260 O262 2.326 . S
In260 O266 2.266 . S
In260 O267 2.326 . S
In260 O268 2.266 . S
In260 O269 2.326 . S
In260 O271 2.294 . S
In260 O272 2.326 . S
O261 In260 2.294 . S
O261 C270 1.240 . S
O262 In260 2.326 . S
O262 C270 1.252 . S
C263 O266 1.252 . S
C263 O267 1.260 . S
C264 O271 1.240 . S
C264 O272 1.252 . S
C265 O268 1.252 . S
C265 O269 1.260 . S
O266 In260 2.266 . S
O266 C263 1.252 . S
O267 In260 2.326 . S
O267 C263 1.260 . S
O268 In260 2.266 . S
O268 C265 1.252 . S
O269 In260 2.326 . S
O269 C265 1.260 . S
C270 O261 1.240 . S
C270 O262 1.252 . S
O271 In260 2.294 . S
O271 C264 1.240 . S
O272 In260 2.326 . S
O272 C264 1.252 . S
In273 O274 2.294 . S
In273 O275 2.326 . S
In273 O279 2.266 . S
In273 O280 2.326 . S
In273 O281 2.266 . S
In273 O282 2.326 . S
In273 O284 2.294 . S
In273 O285 2.326 . S
O274 In273 2.294 . S
O274 C283 1.240 . S
O275 In273 2.326 . S
O275 C283 1.252 . S
C276 O279 1.252 . S
C276 O280 1.260 . S
C277 O284 1.240 . S
C277 O285 1.252 . S
C278 O281 1.252 . S
C278 O282 1.260 . S
O279 In273 2.266 . S
O279 C276 1.252 . S
O280 In273 2.326 . S
O280 C276 1.260 . S
O281 In273 2.266 . S
O281 C278 1.252 . S
O282 In273 2.326 . S
O282 C278 1.260 . S
C283 O274 1.240 . S
C283 O275 1.252 . S
O284 In273 2.294 . S
O284 C277 1.240 . S
O285 In273 2.326 . S
O285 C277 1.252 . S
In286 O287 2.294 . S
In286 O288 2.326 . S
In286 O292 2.266 . S
In286 O293 2.326 . S
In286 O294 2.266 . S
In286 O295 2.326 . S
In286 O297 2.294 . S
In286 O298 2.326 . S
O287 In286 2.294 . S
O287 C296 1.240 . S
O288 In286 2.326 . S
O288 C296 1.252 . S
C289 O292 1.252 . S
C289 O293 1.260 . S
C290 O297 1.240 . S
C290 O298 1.252 . S
C291 O294 1.252 . S
C291 O295 1.260 . S
O292 In286 2.266 . S
O292 C289 1.252 . S
O293 In286 2.326 . S
O293 C289 1.260 . S
O294 In286 2.266 . S
O294 C291 1.252 . S
O295 In286 2.326 . S
O295 C291 1.260 . S
C296 O287 1.240 . S
C296 O288 1.252 . S
O297 In286 2.294 . S
O297 C290 1.240 . S
O298 In286 2.326 . S
O298 C290 1.252 . S
In299 O300 2.294 . S
In299 O301 2.326 . S
In299 O305 2.266 . S
In299 O306 2.326 . S
In299 O307 2.266 . S
In299 O308 2.326 . S
In299 O310 2.294 . S
In299 O311 2.326 . S
O300 In299 2.294 . S
O300 C309 1.240 . S
O301 In299 2.326 . S
O301 C309 1.252 . S
C302 O305 1.252 . S
C302 O306 1.260 . S
C303 O310 1.240 . S
C303 O311 1.252 . S
C304 O307 1.252 . S
C304 O308 1.260 . S
O305 In299 2.266 . S
O305 C302 1.252 . S
O306 In299 2.326 . S
O306 C302 1.260 . S
O307 In299 2.266 . S
O307 C304 1.252 . S
O308 In299 2.326 . S
O308 C304 1.260 . S
C309 O300 1.240 . S
C309 O301 1.252 . S
O310 In299 2.294 . S
O310 C303 1.240 . S
O311 In299 2.326 . S
O311 C303 1.252 . S
C312 C313 1.391 . S
C312 C314 1.394 . S
C312 H328 0.931 . S
C313 C312 1.391 . S
C313 C317 1.376 . S
C314 C312 1.394 . S
C314 C315 1.369 . S
C314 C318 1.531 . S
C315 C314 1.369 . S
C315 C316 1.410 . S
C315 C323 1.503 . S
C316 C315 1.410 . S
C316 C317 1.392 . S
C316 C319 1.511 . S
C317 C313 1.376 . S
C317 C316 1.392 . S
C317 H329 0.929 . S
C318 C314 1.531 . S
C318 H330 0.960 . S
C318 H331 0.962 . S
C318 H332 0.960 . S
C319 C316 1.511 . S
C319 H333 0.961 . S
C319 H334 0.961 . S
C319 H335 0.961 . S
C320 C321 1.370 . S
C320 C322 1.363 . S
C320 H336 0.931 . S
C321 C320 1.370 . S
C321 C325 1.408 . S
C322 C320 1.363 . S
C322 C323 1.370 . S
C322 C326 1.524 . S
C323 C315 1.503 . S
C323 C322 1.370 . S
C323 C324 1.403 . S
C324 C323 1.403 . S
C324 C325 1.404 . S
C324 C327 1.539 . S
C325 C321 1.408 . S
C325 C324 1.404 . S
C325 H337 0.930 . S
C326 C322 1.524 . S
C326 H338 0.956 . S
C326 H339 0.961 . S
C326 H340 0.961 . S
C327 C324 1.539 . S
C327 H341 0.958 . S
C327 H342 0.961 . S
C327 H343 0.960 . S
H328 C312 0.931 . S
H329 C317 0.929 . S
H330 C318 0.960 . S
H331 C318 0.962 . S
H332 C318 0.960 . S
H333 C319 0.961 . S
H334 C319 0.961 . S
H335 C319 0.961 . S
H336 C320 0.931 . S
H337 C325 0.930 . S
H338 C326 0.956 . S
H339 C326 0.961 . S
H340 C326 0.961 . S
H341 C327 0.958 . S
H342 C327 0.961 . S
H343 C327 0.960 . S
C344 C345 1.391 . S
C344 C346 1.394 . S
C344 H360 0.931 . S
C345 C344 1.391 . S
C345 C349 1.376 . S
C346 C344 1.394 . S
C346 C347 1.369 . S
C346 C350 1.531 . S
C347 C346 1.369 . S
C347 C348 1.410 . S
C347 C355 1.503 . S
C348 C347 1.410 . S
C348 C349 1.392 . S
C348 C351 1.511 . S
C349 C345 1.376 . S
C349 C348 1.392 . S
C349 H361 0.929 . S
C350 C346 1.531 . S
C350 H362 0.960 . S
C350 H363 0.962 . S
C350 H364 0.960 . S
C351 C348 1.511 . S
C351 H365 0.961 . S
C351 H366 0.961 . S
C351 H367 0.961 . S
C352 C353 1.370 . S
C352 C354 1.363 . S
C352 H368 0.931 . S
C353 C352 1.370 . S
C353 C357 1.408 . S
C354 C352 1.363 . S
C354 C355 1.370 . S
C354 C358 1.524 . S
C355 C347 1.503 . S
C355 C354 1.370 . S
C355 C356 1.403 . S
C356 C355 1.403 . S
C356 C357 1.404 . S
C356 C359 1.539 . S
C357 C353 1.408 . S
C357 C356 1.404 . S
C357 H369 0.930 . S
C358 C354 1.524 . S
C358 H370 0.956 . S
C358 H371 0.961 . S
C358 H372 0.961 . S
C359 C356 1.539 . S
C359 H373 0.958 . S
C359 H374 0.961 . S
C359 H375 0.960 . S
H360 C344 0.931 . S
H361 C349 0.929 . S
H362 C350 0.960 . S
H363 C350 0.962 . S
H364 C350 0.960 . S
H365 C351 0.961 . S
H366 C351 0.961 . S
H367 C351 0.961 . S
H368 C352 0.931 . S
H369 C357 0.930 . S
H370 C358 0.956 . S
H371 C358 0.961 . S
H372 C358 0.961 . S
H373 C359 0.958 . S
H374 C359 0.961 . S
H375 C359 0.960 . S
C376 C377 1.391 . S
C376 C378 1.394 . S
C376 H392 0.931 . S
C377 C376 1.391 . S
C377 C381 1.376 . S
C378 C376 1.394 . S
C378 C379 1.369 . S
C378 C382 1.531 . S
C379 C378 1.369 . S
C379 C380 1.410 . S
C379 C387 1.503 . S
C380 C379 1.410 . S
C380 C381 1.392 . S
C380 C383 1.511 . S
C381 C377 1.376 . S
C381 C380 1.392 . S
C381 H393 0.929 . S
C382 C378 1.531 . S
C382 H394 0.960 . S
C382 H395 0.962 . S
C382 H396 0.960 . S
C383 C380 1.511 . S
C383 H397 0.961 . S
C383 H398 0.961 . S
C383 H399 0.961 . S
C384 C385 1.370 . S
C384 C386 1.363 . S
C384 H400 0.931 . S
C385 C384 1.370 . S
C385 C389 1.408 . S
C386 C384 1.363 . S
C386 C387 1.370 . S
C386 C390 1.524 . S
C387 C379 1.503 . S
C387 C386 1.370 . S
C387 C388 1.403 . S
C388 C387 1.403 . S
C388 C389 1.404 . S
C388 C391 1.539 . S
C389 C385 1.408 . S
C389 C388 1.404 . S
C389 H401 0.930 . S
C390 C386 1.524 . S
C390 H402 0.956 . S
C390 H403 0.961 . S
C390 H404 0.961 . S
C391 C388 1.539 . S
C391 H405 0.958 . S
C391 H406 0.961 . S
C391 H407 0.960 . S
H392 C376 0.931 . S
H393 C381 0.929 . S
H394 C382 0.960 . S
H395 C382 0.962 . S
H396 C382 0.960 . S
H397 C383 0.961 . S
H398 C383 0.961 . S
H399 C383 0.961 . S
H400 C384 0.931 . S
H401 C389 0.930 . S
H402 C390 0.956 . S
H403 C390 0.961 . S
H404 C390 0.961 . S
H405 C391 0.958 . S
H406 C391 0.961 . S
H407 C391 0.960 . S
C408 C409 1.391 . S
C408 C410 1.394 . S
C408 H424 0.931 . S
C409 C408 1.391 . S
C409 C413 1.376 . S
C410 C408 1.394 . S
C410 C411 1.369 . S
C410 C414 1.531 . S
C411 C410 1.369 . S
C411 C412 1.410 . S
C411 C419 1.503 . S
C412 C411 1.410 . S
C412 C413 1.392 . S
C412 C415 1.511 . S
C413 C409 1.376 . S
C413 C412 1.392 . S
C413 H425 0.929 . S
C414 C410 1.531 . S
C414 H426 0.960 . S
C414 H427 0.962 . S
C414 H428 0.960 . S
C415 C412 1.511 . S
C415 H429 0.961 . S
C415 H430 0.961 . S
C415 H431 0.961 . S
C416 C417 1.370 . S
C416 C418 1.363 . S
C416 H432 0.931 . S
C417 C416 1.370 . S
C417 C421 1.408 . S
C418 C416 1.363 . S
C418 C419 1.370 . S
C418 C422 1.524 . S
C419 C411 1.503 . S
C419 C418 1.370 . S
C419 C420 1.403 . S
C420 C419 1.403 . S
C420 C421 1.404 . S
C420 C423 1.539 . S
C421 C417 1.408 . S
C421 C420 1.404 . S
C421 H433 0.930 . S
C422 C418 1.524 . S
C422 H434 0.956 . S
C422 H435 0.961 . S
C422 H436 0.961 . S
C423 C420 1.539 . S
C423 H437 0.958 . S
C423 H438 0.961 . S
C423 H439 0.960 . S
H424 C408 0.931 . S
H425 C413 0.929 . S
H426 C414 0.960 . S
H427 C414 0.962 . S
H428 C414 0.960 . S
H429 C415 0.961 . S
H430 C415 0.961 . S
H431 C415 0.961 . S
H432 C416 0.931 . S
H433 C421 0.930 . S
H434 C422 0.956 . S
H435 C422 0.961 . S
H436 C422 0.961 . S
H437 C423 0.958 . S
H438 C423 0.961 . S
H439 C423 0.960 . S
C440 C441 1.391 . S
C440 C442 1.394 . S
C440 H456 0.931 . S
C441 C440 1.391 . S
C441 C445 1.376 . S
C442 C440 1.394 . S
C442 C443 1.369 . S
C442 C446 1.531 . S
C443 C442 1.369 . S
C443 C444 1.410 . S
C443 C451 1.503 . S
C444 C443 1.410 . S
C444 C445 1.392 . S
C444 C447 1.511 . S
C445 C441 1.376 . S
C445 C444 1.392 . S
C445 H457 0.929 . S
C446 C442 1.531 . S
C446 H458 0.960 . S
C446 H459 0.962 . S
C446 H460 0.960 . S
C447 C444 1.511 . S
C447 H461 0.961 . S
C447 H462 0.961 . S
C447 H463 0.961 . S
C448 C449 1.370 . S
C448 C450 1.363 . S
C448 H464 0.931 . S
C449 C448 1.370 . S
C449 C453 1.408 . S
C450 C448 1.363 . S
C450 C451 1.370 . S
C450 C454 1.524 . S
C451 C443 1.503 . S
C451 C450 1.370 . S
C451 C452 1.403 . S
C452 C451 1.403 . S
C452 C453 1.404 . S
C452 C455 1.539 . S
C453 C449 1.408 . S
C453 C452 1.404 . S
C453 H465 0.930 . S
C454 C450 1.524 . S
C454 H466 0.956 . S
C454 H467 0.961 . S
C454 H468 0.961 . S
C455 C452 1.539 . S
C455 H469 0.958 . S
C455 H470 0.961 . S
C455 H471 0.960 . S
H456 C440 0.931 . S
H457 C445 0.929 . S
H458 C446 0.960 . S
H459 C446 0.962 . S
H460 C446 0.960 . S
H461 C447 0.961 . S
H462 C447 0.961 . S
H463 C447 0.961 . S
H464 C448 0.931 . S
H465 C453 0.930 . S
H466 C454 0.956 . S
H467 C454 0.961 . S
H468 C454 0.961 . S
H469 C455 0.958 . S
H470 C455 0.961 . S
H471 C455 0.960 . S
C472 C473 1.391 . S
C472 C474 1.394 . S
C472 H488 0.931 . S
C473 C472 1.391 . S
C473 C477 1.376 . S
C474 C472 1.394 . S
C474 C475 1.369 . S
C474 C478 1.531 . S
C475 C474 1.369 . S
C475 C476 1.410 . S
C475 C483 1.503 . S
C476 C475 1.410 . S
C476 C477 1.392 . S
C476 C479 1.511 . S
C477 C473 1.376 . S
C477 C476 1.392 . S
C477 H489 0.929 . S
C478 C474 1.531 . S
C478 H490 0.960 . S
C478 H491 0.962 . S
C478 H492 0.960 . S
C479 C476 1.511 . S
C479 H493 0.961 . S
C479 H494 0.961 . S
C479 H495 0.961 . S
C480 C481 1.370 . S
C480 C482 1.363 . S
C480 H496 0.931 . S
C481 C480 1.370 . S
C481 C485 1.408 . S
C482 C480 1.363 . S
C482 C483 1.370 . S
C482 C486 1.524 . S
C483 C475 1.503 . S
C483 C482 1.370 . S
C483 C484 1.403 . S
C484 C483 1.403 . S
C484 C485 1.404 . S
C484 C487 1.539 . S
C485 C481 1.408 . S
C485 C484 1.404 . S
C485 H497 0.930 . S
C486 C482 1.524 . S
C486 H498 0.956 . S
C486 H499 0.961 . S
C486 H500 0.961 . S
C487 C484 1.539 . S
C487 H501 0.958 . S
C487 H502 0.961 . S
C487 H503 0.960 . S
H488 C472 0.931 . S
H489 C477 0.929 . S
H490 C478 0.960 . S
H491 C478 0.962 . S
H492 C478 0.960 . S
H493 C479 0.961 . S
H494 C479 0.961 . S
H495 C479 0.961 . S
H496 C480 0.931 . S
H497 C485 0.930 . S
H498 C486 0.956 . S
H499 C486 0.961 . S
H500 C486 0.961 . S
H501 C487 0.958 . S
H502 C487 0.961 . S
H503 C487 0.960 . S
C504 C505 1.391 . S
C504 C506 1.394 . S
C504 H520 0.931 . S
C505 C504 1.391 . S
C505 C509 1.376 . S
C506 C504 1.394 . S
C506 C507 1.369 . S
C506 C510 1.531 . S
C507 C506 1.369 . S
C507 C508 1.410 . S
C507 C515 1.503 . S
C508 C507 1.410 . S
C508 C509 1.392 . S
C508 C511 1.511 . S
C509 C505 1.376 . S
C509 C508 1.392 . S
C509 H521 0.929 . S
C510 C506 1.531 . S
C510 H522 0.960 . S
C510 H523 0.962 . S
C510 H524 0.960 . S
C511 C508 1.511 . S
C511 H525 0.961 . S
C511 H526 0.961 . S
C511 H527 0.961 . S
C512 C513 1.370 . S
C512 C514 1.363 . S
C512 H528 0.931 . S
C513 C512 1.370 . S
C513 C517 1.408 . S
C514 C512 1.363 . S
C514 C515 1.370 . S
C514 C518 1.524 . S
C515 C507 1.503 . S
C515 C514 1.370 . S
C515 C516 1.403 . S
C516 C515 1.403 . S
C516 C517 1.404 . S
C516 C519 1.539 . S
C517 C513 1.408 . S
C517 C516 1.404 . S
C517 H529 0.930 . S
C518 C514 1.524 . S
C518 H530 0.956 . S
C518 H531 0.961 . S
C518 H532 0.961 . S
C519 C516 1.539 . S
C519 H533 0.958 . S
C519 H534 0.961 . S
C519 H535 0.960 . S
H520 C504 0.931 . S
H521 C509 0.929 . S
H522 C510 0.960 . S
H523 C510 0.962 . S
H524 C510 0.960 . S
H525 C511 0.961 . S
H526 C511 0.961 . S
H527 C511 0.961 . S
H528 C512 0.931 . S
H529 C517 0.930 . S
H530 C518 0.956 . S
H531 C518 0.961 . S
H532 C518 0.961 . S
H533 C519 0.958 . S
H534 C519 0.961 . S
H535 C519 0.960 . S
C536 C537 1.391 . S
C536 C538 1.394 . S
C536 H552 0.931 . S
C537 C536 1.391 . S
C537 C541 1.376 . S
C538 C536 1.394 . S
C538 C539 1.369 . S
C538 C542 1.531 . S
C539 C538 1.369 . S
C539 C540 1.410 . S
C539 C547 1.503 . S
C540 C539 1.410 . S
C540 C541 1.392 . S
C540 C543 1.511 . S
C541 C537 1.376 . S
C541 C540 1.392 . S
C541 H553 0.929 . S
C542 C538 1.531 . S
C542 H554 0.960 . S
C542 H555 0.962 . S
C542 H556 0.960 . S
C543 C540 1.511 . S
C543 H557 0.961 . S
C543 H558 0.961 . S
C543 H559 0.961 . S
C544 C545 1.370 . S
C544 C546 1.363 . S
C544 H560 0.931 . S
C545 C544 1.370 . S
C545 C549 1.408 . S
C546 C544 1.363 . S
C546 C547 1.370 . S
C546 C550 1.524 . S
C547 C539 1.503 . S
C547 C546 1.370 . S
C547 C548 1.403 . S
C548 C547 1.403 . S
C548 C549 1.404 . S
C548 C551 1.539 . S
C549 C545 1.408 . S
C549 C548 1.404 . S
C549 H561 0.930 . S
C550 C546 1.524 . S
C550 H562 0.956 . S
C550 H563 0.961 . S
C550 H564 0.961 . S
C551 C548 1.539 . S
C551 H565 0.958 . S
C551 H566 0.961 . S
C551 H567 0.960 . S
H552 C536 0.931 . S
H553 C541 0.929 . S
H554 C542 0.960 . S
H555 C542 0.962 . S
H556 C542 0.960 . S
H557 C543 0.961 . S
H558 C543 0.961 . S
H559 C543 0.961 . S
H560 C544 0.931 . S
H561 C549 0.930 . S
H562 C550 0.956 . S
H563 C550 0.961 . S
H564 C550 0.961 . S
H565 C551 0.958 . S
H566 C551 0.961 . S
H567 C551 0.960 . S
C568 C569 1.391 . S
C568 C570 1.394 . S
C568 H584 0.931 . S
C569 C568 1.391 . S
C569 C573 1.376 . S
C570 C568 1.394 . S
C570 C571 1.369 . S
C570 C574 1.531 . S
C571 C570 1.369 . S
C571 C572 1.410 . S
C571 C579 1.503 . S
C572 C571 1.410 . S
C572 C573 1.392 . S
C572 C575 1.511 . S
C573 C569 1.376 . S
C573 C572 1.392 . S
C573 H585 0.929 . S
C574 C570 1.531 . S
C574 H586 0.960 . S
C574 H587 0.962 . S
C574 H588 0.960 . S
C575 C572 1.511 . S
C575 H589 0.961 . S
C575 H590 0.961 . S
C575 H591 0.961 . S
C576 C577 1.370 . S
C576 C578 1.363 . S
C576 H592 0.931 . S
C577 C576 1.370 . S
C577 C581 1.408 . S
C578 C576 1.363 . S
C578 C579 1.370 . S
C578 C582 1.524 . S
C579 C571 1.503 . S
C579 C578 1.370 . S
C579 C580 1.403 . S
C580 C579 1.403 . S
C580 C581 1.404 . S
C580 C583 1.539 . S
C581 C577 1.408 . S
C581 C580 1.404 . S
C581 H593 0.930 . S
C582 C578 1.524 . S
C582 H594 0.956 . S
C582 H595 0.961 . S
C582 H596 0.961 . S
C583 C580 1.539 . S
C583 H597 0.958 . S
C583 H598 0.961 . S
C583 H599 0.960 . S
H584 C568 0.931 . S
H585 C573 0.929 . S
H586 C574 0.960 . S
H587 C574 0.962 . S
H588 C574 0.960 . S
H589 C575 0.961 . S
H590 C575 0.961 . S
H591 C575 0.961 . S
H592 C576 0.931 . S
H593 C581 0.930 . S
H594 C582 0.956 . S
H595 C582 0.961 . S
H596 C582 0.961 . S
H597 C583 0.958 . S
H598 C583 0.961 . S
H599 C583 0.960 . S
C600 C601 1.391 . S
C600 C602 1.394 . S
C600 H616 0.931 . S
C601 C600 1.391 . S
C601 C605 1.376 . S
C602 C600 1.394 . S
C602 C603 1.369 . S
C602 C606 1.531 . S
C603 C602 1.369 . S
C603 C604 1.410 . S
C603 C611 1.503 . S
C604 C603 1.410 . S
C604 C605 1.392 . S
C604 C607 1.511 . S
C605 C601 1.376 . S
C605 C604 1.392 . S
C605 H617 0.929 . S
C606 C602 1.531 . S
C606 H618 0.960 . S
C606 H619 0.962 . S
C606 H620 0.960 . S
C607 C604 1.511 . S
C607 H621 0.961 . S
C607 H622 0.961 . S
C607 H623 0.961 . S
C608 C609 1.370 . S
C608 C610 1.363 . S
C608 H624 0.931 . S
C609 C608 1.370 . S
C609 C613 1.408 . S
C610 C608 1.363 . S
C610 C611 1.370 . S
C610 C614 1.524 . S
C611 C603 1.503 . S
C611 C610 1.370 . S
C611 C612 1.403 . S
C612 C611 1.403 . S
C612 C613 1.404 . S
C612 C615 1.539 . S
C613 C609 1.408 . S
C613 C612 1.404 . S
C613 H625 0.930 . S
C614 C610 1.524 . S
C614 H626 0.956 . S
C614 H627 0.961 . S
C614 H628 0.961 . S
C615 C612 1.539 . S
C615 H629 0.958 . S
C615 H630 0.961 . S
C615 H631 0.960 . S
H616 C600 0.931 . S
H617 C605 0.929 . S
H618 C606 0.960 . S
H619 C606 0.962 . S
H620 C606 0.960 . S
H621 C607 0.961 . S
H622 C607 0.961 . S
H623 C607 0.961 . S
H624 C608 0.931 . S
H625 C613 0.930 . S
H626 C614 0.956 . S
H627 C614 0.961 . S
H628 C614 0.961 . S
H629 C615 0.958 . S
H630 C615 0.961 . S
H631 C615 0.960 . S
C632 C633 1.391 . S
C632 C634 1.394 . S
C632 H648 0.931 . S
C633 C632 1.391 . S
C633 C637 1.376 . S
C634 C632 1.394 . S
C634 C635 1.369 . S
C634 C638 1.531 . S
C635 C634 1.369 . S
C635 C636 1.410 . S
C635 C643 1.503 . S
C636 C635 1.410 . S
C636 C637 1.392 . S
C636 C639 1.511 . S
C637 C633 1.376 . S
C637 C636 1.392 . S
C637 H649 0.929 . S
C638 C634 1.531 . S
C638 H650 0.960 . S
C638 H651 0.962 . S
C638 H652 0.960 . S
C639 C636 1.511 . S
C639 H653 0.961 . S
C639 H654 0.961 . S
C639 H655 0.961 . S
C640 C641 1.370 . S
C640 C642 1.363 . S
C640 H656 0.931 . S
C641 C640 1.370 . S
C641 C645 1.408 . S
C642 C640 1.363 . S
C642 C643 1.370 . S
C642 C646 1.524 . S
C643 C635 1.503 . S
C643 C642 1.370 . S
C643 C644 1.403 . S
C644 C643 1.403 . S
C644 C645 1.404 . S
C644 C647 1.539 . S
C645 C641 1.408 . S
C645 C644 1.404 . S
C645 H657 0.930 . S
C646 C642 1.524 . S
C646 H658 0.956 . S
C646 H659 0.961 . S
C646 H660 0.961 . S
C647 C644 1.539 . S
C647 H661 0.958 . S
C647 H662 0.961 . S
C647 H663 0.960 . S
H648 C632 0.931 . S
H649 C637 0.929 . S
H650 C638 0.960 . S
H651 C638 0.962 . S
H652 C638 0.960 . S
H653 C639 0.961 . S
H654 C639 0.961 . S
H655 C639 0.961 . S
H656 C640 0.931 . S
H657 C645 0.930 . S
H658 C646 0.956 . S
H659 C646 0.961 . S
H660 C646 0.961 . S
H661 C647 0.958 . S
H662 C647 0.961 . S
H663 C647 0.960 . S
C664 C665 1.391 . S
C664 C666 1.394 . S
C664 H680 0.931 . S
C665 C664 1.391 . S
C665 C669 1.376 . S
C666 C664 1.394 . S
C666 C667 1.369 . S
C666 C670 1.531 . S
C667 C666 1.369 . S
C667 C668 1.410 . S
C667 C675 1.503 . S
C668 C667 1.410 . S
C668 C669 1.392 . S
C668 C671 1.511 . S
C669 C665 1.376 . S
C669 C668 1.392 . S
C669 H681 0.929 . S
C670 C666 1.531 . S
C670 H682 0.960 . S
C670 H683 0.962 . S
C670 H684 0.960 . S
C671 C668 1.511 . S
C671 H685 0.961 . S
C671 H686 0.961 . S
C671 H687 0.961 . S
C672 C673 1.370 . S
C672 C674 1.363 . S
C672 H688 0.931 . S
C673 C672 1.370 . S
C673 C677 1.408 . S
C674 C672 1.363 . S
C674 C675 1.370 . S
C674 C678 1.524 . S
C675 C667 1.503 . S
C675 C674 1.370 . S
C675 C676 1.403 . S
C676 C675 1.403 . S
C676 C677 1.404 . S
C676 C679 1.539 . S
C677 C673 1.408 . S
C677 C676 1.404 . S
C677 H689 0.930 . S
C678 C674 1.524 . S
C678 H690 0.956 . S
C678 H691 0.961 . S
C678 H692 0.961 . S
C679 C676 1.539 . S
C679 H693 0.958 . S
C679 H694 0.961 . S
C679 H695 0.960 . S
H680 C664 0.931 . S
H681 C669 0.929 . S
H682 C670 0.960 . S
H683 C670 0.962 . S
H684 C670 0.960 . S
H685 C671 0.961 . S
H686 C671 0.961 . S
H687 C671 0.961 . S
H688 C672 0.931 . S
H689 C677 0.930 . S
H690 C678 0.956 . S
H691 C678 0.961 . S
H692 C678 0.961 . S
H693 C679 0.958 . S
H694 C679 0.961 . S
H695 C679 0.960 . S
C696 C697 1.391 . S
C696 C698 1.408 . S
C696 H712 0.931 . S
C697 C696 1.391 . S
C697 C701 1.376 . S
C698 C696 1.408 . S
C698 C699 1.376 . S
C698 C702 1.509 1_556 S
C699 C698 1.376 . S
C699 C700 1.410 . S
C699 C707 1.503 1_556 S
C700 C699 1.410 . S
C700 C701 1.392 . S
C700 C703 1.511 . S
C701 C697 1.376 . S
C701 C700 1.392 . S
C701 H713 0.929 . S
C702 C698 1.509 1_554 S
C702 H714 0.960 . S
C702 H715 0.962 . S
C702 H716 0.960 . S
C703 C700 1.511 . S
C703 H717 0.961 . S
C703 H718 0.961 . S
C703 H719 0.961 . S
C704 C705 1.370 . S
C704 C706 1.363 . S
C704 H720 0.931 . S
C705 C704 1.370 . S
C705 C709 1.408 . S
C706 C704 1.363 . S
C706 C707 1.370 . S
C706 C710 1.524 . S
C707 C699 1.503 1_554 S
C707 C706 1.370 . S
C707 C708 1.403 . S
C708 C707 1.403 . S
C708 C709 1.404 . S
C708 C711 1.539 . S
C709 C705 1.408 . S
C709 C708 1.404 . S
C709 H721 0.930 . S
C710 C706 1.524 . S
C710 H722 0.956 . S
C710 H723 0.961 1_554 S
C710 H724 0.961 . S
C711 C708 1.539 . S
C711 H725 0.958 . S
C711 H726 0.961 . S
C711 H727 0.960 1_554 S
H712 C696 0.931 . S
H713 C701 0.929 . S
H714 C702 0.960 . S
H715 C702 0.962 . S
H716 C702 0.960 . S
H717 C703 0.961 . S
H718 C703 0.961 . S
H719 C703 0.961 . S
H720 C704 0.931 . S
H721 C709 0.930 . S
H722 C710 0.956 . S
H723 C710 0.961 1_556 S
H724 C710 0.961 . S
H725 C711 0.958 . S
H726 C711 0.961 . S
H727 C711 0.960 1_556 S
C728 C729 1.391 . S
C728 C730 1.394 . S
C728 H744 0.931 . S
C729 C728 1.391 . S
C729 C733 1.376 . S
C730 C728 1.394 . S
C730 C731 1.369 . S
C730 C734 1.531 . S
C731 C730 1.369 . S
C731 C732 1.410 . S
C731 C739 1.503 . S
C732 C731 1.410 . S
C732 C733 1.392 . S
C732 C735 1.511 . S
C733 C729 1.376 . S
C733 C732 1.392 . S
C733 H745 0.929 . S
C734 C730 1.531 . S
C734 H746 0.960 . S
C734 H747 0.962 . S
C734 H748 0.960 . S
C735 C732 1.511 . S
C735 H749 0.961 . S
C735 H750 0.961 . S
C735 H751 0.961 . S
C736 C737 1.370 . S
C736 C738 1.363 . S
C736 H752 0.931 . S
C737 C736 1.370 . S
C737 C741 1.408 . S
C738 C736 1.363 . S
C738 C739 1.370 . S
C738 C742 1.524 . S
C739 C731 1.503 . S
C739 C738 1.370 . S
C739 C740 1.403 . S
C740 C739 1.403 . S
C740 C741 1.404 . S
C740 C743 1.539 . S
C741 C737 1.408 . S
C741 C740 1.404 . S
C741 H753 0.930 . S
C742 C738 1.524 . S
C742 H754 0.956 . S
C742 H755 0.961 . S
C742 H756 0.961 . S
C743 C740 1.539 . S
C743 H757 0.958 . S
C743 H758 0.961 . S
C743 H759 0.960 . S
H744 C728 0.931 . S
H745 C733 0.929 . S
H746 C734 0.960 . S
H747 C734 0.962 . S
H748 C734 0.960 . S
H749 C735 0.961 . S
H750 C735 0.961 . S
H751 C735 0.961 . S
H752 C736 0.931 . S
H753 C741 0.930 . S
H754 C742 0.956 . S
H755 C742 0.961 . S
H756 C742 0.961 . S
H757 C743 0.958 . S
H758 C743 0.961 . S
H759 C743 0.960 . S
C760 C761 1.391 . S
C760 C762 1.394 . S
C760 H776 0.931 . S
C761 C760 1.391 . S
C761 C765 1.376 . S
C762 C760 1.394 . S
C762 C763 1.369 . S
C762 C766 1.531 . S
C763 C762 1.369 . S
C763 C764 1.410 . S
C763 C771 1.503 1_554 S
C764 C763 1.410 . S
C764 C765 1.392 . S
C764 C767 1.511 . S
C765 C761 1.376 . S
C765 C764 1.392 . S
C765 H777 0.929 . S
C766 C762 1.531 . S
C766 H778 0.960 . S
C766 H779 0.962 . S
C766 H780 0.960 . S
C767 C764 1.511 . S
C767 H781 0.961 . S
C767 H782 0.961 1_554 S
C767 H783 0.961 . S
C768 C769 1.370 . S
C768 C770 1.363 . S
C768 H784 0.931 . S
C769 C768 1.370 . S
C769 C773 1.408 . S
C770 C768 1.363 . S
C770 C771 1.370 . S
C770 C774 1.524 . S
C771 C763 1.503 1_556 S
C771 C770 1.370 . S
C771 C772 1.403 1_556 S
C772 C771 1.403 1_554 S
C772 C773 1.404 1_554 S
C772 C775 1.539 . S
C773 C769 1.408 . S
C773 C772 1.404 1_556 S
C773 H785 0.930 . S
C774 C770 1.524 . S
C774 H786 0.956 . S
C774 H787 0.961 . S
C774 H788 0.961 . S
C775 C772 1.539 . S
C775 H789 0.958 . S
C775 H790 0.961 . S
C775 H791 0.960 . S
H776 C760 0.931 . S
H777 C765 0.929 . S
H778 C766 0.960 . S
H779 C766 0.962 . S
H780 C766 0.960 . S
H781 C767 0.961 . S
H782 C767 0.961 1_556 S
H783 C767 0.961 . S
H784 C768 0.931 . S
H785 C773 0.930 . S
H786 C774 0.956 . S
H787 C774 0.961 . S
H788 C774 0.961 . S
H789 C775 0.958 . S
H790 C775 0.961 . S
H791 C775 0.960 . S
C792 C793 1.391 . S
C792 C794 1.394 . S
C792 H808 0.931 . S
C793 C792 1.391 . S
C793 C797 1.376 . S
C794 C792 1.394 . S
C794 C795 1.369 . S
C794 C798 1.531 . S
C795 C794 1.369 . S
C795 C796 1.410 . S
C795 C803 1.503 . S
C796 C795 1.410 . S
C796 C797 1.392 . S
C796 C799 1.511 . S
C797 C793 1.376 . S
C797 C796 1.392 . S
C797 H809 0.929 . S
C798 C794 1.531 . S
C798 H810 0.960 . S
C798 H811 0.962 . S
C798 H812 0.960 . S
C799 C796 1.511 . S
C799 H813 0.961 . S
C799 H814 0.961 . S
C799 H815 0.961 . S
C800 C801 1.370 . S
C800 C802 1.363 . S
C800 H816 0.931 . S
C801 C800 1.370 . S
C801 C805 1.408 . S
C802 C800 1.363 . S
C802 C803 1.370 . S
C802 C806 1.524 . S
C803 C795 1.503 . S
C803 C802 1.370 . S
C803 C804 1.403 . S
C804 C803 1.403 . S
C804 C805 1.404 . S
C804 C807 1.539 . S
C805 C801 1.408 . S
C805 C804 1.404 . S
C805 H817 0.930 . S
C806 C802 1.524 . S
C806 H818 0.956 . S
C806 H819 0.961 . S
C806 H820 0.961 . S
C807 C804 1.539 . S
C807 H821 0.958 . S
C807 H822 0.961 . S
C807 H823 0.960 . S
H808 C792 0.931 . S
H809 C797 0.929 . S
H810 C798 0.960 . S
H811 C798 0.962 . S
H812 C798 0.960 . S
H813 C799 0.961 . S
H814 C799 0.961 . S
H815 C799 0.961 . S
H816 C800 0.931 . S
H817 C805 0.930 . S
H818 C806 0.956 . S
H819 C806 0.961 . S
H820 C806 0.961 . S
H821 C807 0.958 . S
H822 C807 0.961 . S
H823 C807 0.960 . S
C824 C825 1.391 . S
C824 C826 1.395 1_556 S
C824 H840 0.931 . S
C825 C824 1.391 . S
C825 C829 1.376 . S
C826 C824 1.395 1_554 S
C826 C827 1.369 1_554 S
C826 C830 1.529 . S
C827 C826 1.369 1_556 S
C827 C828 1.410 . S
C827 C835 1.503 1_556 S
C828 C827 1.410 . S
C828 C829 1.392 . S
C828 C831 1.511 . S
C829 C825 1.376 . S
C829 C828 1.392 . S
C829 H841 0.929 . S
C830 C826 1.529 . S
C830 H842 0.960 . S
C830 H843 0.962 . S
C830 H844 0.960 . S
C831 C828 1.511 . S
C831 H845 0.961 . S
C831 H846 0.961 . S
C831 H847 0.961 . S
C832 C833 1.370 . S
C832 C834 1.363 . S
C832 H848 0.931 . S
C833 C832 1.370 . S
C833 C837 1.408 . S
C834 C832 1.363 . S
C834 C835 1.370 . S
C834 C838 1.525 . S
C835 C827 1.503 1_554 S
C835 C834 1.370 . S
C835 C836 1.403 . S
C836 C835 1.403 . S
C836 C837 1.404 . S
C836 C839 1.539 . S
C837 C833 1.408 . S
C837 C836 1.404 . S
C837 H849 0.930 . S
C838 C834 1.525 . S
C838 H850 0.957 . S
C838 H851 0.958 1_554 S
C838 H852 0.961 . S
C839 C836 1.539 . S
C839 H853 0.958 . S
C839 H854 0.961 . S
C839 H855 0.997 . S
H840 C824 0.931 . S
H841 C829 0.929 . S
H842 C830 0.960 . S
H843 C830 0.962 . S
H844 C830 0.960 . S
H845 C831 0.961 . S
H846 C831 0.961 . S
H847 C831 0.961 . S
H848 C832 0.931 . S
H849 C837 0.930 . S
H850 C838 0.957 . S
H851 C838 0.958 1_556 S
H852 C838 0.961 . S
H853 C839 0.958 . S
H854 C839 0.961 . S
H855 C839 0.997 . S
C856 C857 1.391 . S
C856 C858 1.394 . S
C856 H872 0.931 . S
C857 C856 1.391 . S
C857 C861 1.376 . S
C858 C856 1.394 . S
C858 C859 1.369 . S
C858 C862 1.531 . S
C859 C858 1.369 . S
C859 C860 1.410 . S
C859 C867 1.503 . S
C860 C859 1.410 . S
C860 C861 1.392 . S
C860 C863 1.511 . S
C861 C857 1.376 . S
C861 C860 1.392 . S
C861 H873 0.929 . S
C862 C858 1.531 . S
C862 H874 0.960 . S
C862 H875 0.962 . S
C862 H876 0.960 . S
C863 C860 1.511 . S
C863 H877 0.961 . S
C863 H878 0.961 . S
C863 H879 0.961 . S
C864 C865 1.370 . S
C864 C866 1.363 . S
C864 H880 0.931 . S
C865 C864 1.370 . S
C865 C869 1.408 . S
C866 C864 1.363 . S
C866 C867 1.370 . S
C866 C870 1.524 . S
C867 C859 1.503 . S
C867 C866 1.370 . S
C867 C868 1.403 . S
C868 C867 1.403 . S
C868 C869 1.404 . S
C868 C871 1.539 . S
C869 C865 1.408 . S
C869 C868 1.404 . S
C869 H881 0.930 . S
C870 C866 1.524 . S
C870 H882 0.956 . S
C870 H883 0.961 . S
C870 H884 0.961 . S
C871 C868 1.539 . S
C871 H885 0.958 . S
C871 H886 0.961 . S
C871 H887 0.960 . S
H872 C856 0.931 . S
H873 C861 0.929 . S
H874 C862 0.960 . S
H875 C862 0.962 . S
H876 C862 0.960 . S
H877 C863 0.961 . S
H878 C863 0.961 . S
H879 C863 0.961 . S
H880 C864 0.931 . S
H881 C869 0.930 . S
H882 C870 0.956 . S
H883 C870 0.961 . S
H884 C870 0.961 . S
H885 C871 0.958 . S
H886 C871 0.961 . S
H887 C871 0.960 . S
C888 C889 1.391 . S
C888 C890 1.394 . S
C888 H904 0.931 . S
C889 C888 1.391 . S
C889 C893 1.376 . S
C890 C888 1.394 . S
C890 C891 1.369 . S
C890 C894 1.531 1_554 S
C891 C890 1.369 . S
C891 C892 1.410 . S
C891 C899 1.503 1_554 S
C892 C891 1.410 . S
C892 C893 1.392 . S
C892 C895 1.511 . S
C893 C889 1.376 . S
C893 C892 1.392 . S
C893 H905 0.929 . S
C894 C890 1.531 1_556 S
C894 H906 0.960 . S
C894 H907 0.962 . S
C894 H908 0.960 . S
C895 C892 1.511 . S
C895 H909 0.961 . S
C895 H910 0.961 . S
C895 H911 0.961 . S
C896 C897 1.370 . S
C896 C898 1.363 . S
C896 H912 0.931 . S
C897 C896 1.370 . S
C897 C901 1.408 . S
C898 C896 1.363 . S
C898 C899 1.370 . S
C898 C902 1.524 1_556 S
C899 C891 1.503 1_556 S
C899 C898 1.370 . S
C899 C900 1.403 . S
C900 C899 1.403 . S
C900 C901 1.404 . S
C900 C903 1.539 . S
C901 C897 1.408 . S
C901 C900 1.404 . S
C901 H913 0.930 . S
C902 C898 1.524 1_554 S
C902 H914 0.956 . S
C902 H915 0.961 . S
C902 H916 0.961 . S
C903 C900 1.539 . S
C903 H917 0.958 . S
C903 H918 0.961 . S
C903 H919 0.960 . S
H904 C888 0.931 . S
H905 C893 0.929 . S
H906 C894 0.960 . S
H907 C894 0.962 . S
H908 C894 0.960 . S
H909 C895 0.961 . S
H910 C895 0.961 . S
H911 C895 0.961 . S
H912 C896 0.931 . S
H913 C901 0.930 . S
H914 C902 0.956 . S
H915 C902 0.961 . S
H916 C902 0.961 . S
H917 C903 0.958 . S
H918 C903 0.961 . S
H919 C903 0.960 . S
C920 C921 1.391 . S
C920 C922 1.394 . S
C920 H936 0.931 . S
C921 C920 1.391 . S
C921 C925 1.376 . S
C922 C920 1.394 . S
C922 C923 1.369 . S
C922 C926 1.531 . S
C923 C922 1.369 . S
C923 C924 1.410 . S
C923 C931 1.503 . S
C924 C923 1.410 . S
C924 C925 1.392 . S
C924 C927 1.511 . S
C925 C921 1.376 . S
C925 C924 1.392 . S
C925 H937 0.929 . S
C926 C922 1.531 . S
C926 H938 0.960 . S
C926 H939 0.962 . S
C926 H940 0.960 . S
C927 C924 1.511 . S
C927 H941 0.961 . S
C927 H942 0.961 . S
C927 H943 0.961 . S
C928 C929 1.370 . S
C928 C930 1.363 . S
C928 H944 0.931 . S
C929 C928 1.370 . S
C929 C933 1.408 . S
C930 C928 1.363 . S
C930 C931 1.370 . S
C930 C934 1.524 . S
C931 C923 1.503 . S
C931 C930 1.370 . S
C931 C932 1.403 . S
C932 C931 1.403 . S
C932 C933 1.404 . S
C932 C935 1.539 . S
C933 C929 1.408 . S
C933 C932 1.404 . S
C933 H945 0.930 . S
C934 C930 1.524 . S
C934 H946 0.956 . S
C934 H947 0.961 . S
C934 H948 0.961 . S
C935 C932 1.539 . S
C935 H949 0.958 . S
C935 H950 0.961 . S
C935 H951 0.960 . S
H936 C920 0.931 . S
H937 C925 0.929 . S
H938 C926 0.960 . S
H939 C926 0.962 . S
H940 C926 0.960 . S
H941 C927 0.961 . S
H942 C927 0.961 . S
H943 C927 0.961 . S
H944 C928 0.931 . S
H945 C933 0.930 . S
H946 C934 0.956 . S
H947 C934 0.961 . S
H948 C934 0.961 . S
H949 C935 0.958 . S
H950 C935 0.961 . S
H951 C935 0.960 . S
C952 C953 1.391 . S
C952 C954 1.394 . S
C952 H968 0.931 . S
C953 C952 1.391 . S
C953 C957 1.376 . S
C954 C952 1.394 . S
C954 C955 1.369 . S
C954 C958 1.531 . S
C955 C954 1.369 . S
C955 C956 1.410 . S
C955 C963 1.503 1_556 S
C956 C955 1.410 . S
C956 C957 1.392 . S
C956 C959 1.511 1_556 S
C957 C953 1.376 . S
C957 C956 1.392 . S
C957 H969 0.929 . S
C958 C954 1.531 . S
C958 H970 0.960 . S
C958 H971 0.962 . S
C958 H972 0.960 . S
C959 C956 1.511 1_554 S
C959 H973 0.961 . S
C959 H974 0.961 . S
C959 H975 0.961 . S
C960 C961 1.370 . S
C960 C962 1.363 . S
C960 H976 0.931 . S
C961 C960 1.370 . S
C961 C965 1.408 . S
C962 C960 1.363 . S
C962 C963 1.370 . S
C962 C966 1.524 1_554 S
C963 C955 1.503 1_554 S
C963 C962 1.370 . S
C963 C964 1.403 . S
C964 C963 1.403 . S
C964 C965 1.404 . S
C964 C967 1.539 . S
C965 C961 1.408 . S
C965 C964 1.404 . S
C965 H977 0.930 . S
C966 C962 1.524 1_556 S
C966 H978 0.956 . S
C966 H979 0.961 . S
C966 H980 0.961 . S
C967 C964 1.539 . S
C967 H981 0.958 . S
C967 H982 0.961 . S
C967 H983 0.960 . S
H968 C952 0.931 . S
H969 C957 0.929 . S
H970 C958 0.960 . S
H971 C958 0.962 . S
H972 C958 0.960 . S
H973 C959 0.961 . S
H974 C959 0.961 . S
H975 C959 0.961 . S
H976 C960 0.931 . S
H977 C965 0.930 . S
H978 C966 0.956 . S
H979 C966 0.961 . S
H980 C966 0.961 . S
H981 C967 0.958 . S
H982 C967 0.961 . S
H983 C967 0.960 . S
C984 C985 1.391 . S
C984 C986 1.394 . S
C984 H1000 0.931 . S
C985 C984 1.391 . S
C985 C989 1.376 . S
C986 C984 1.394 . S
C986 C987 1.369 . S
C986 C990 1.531 . S
C987 C986 1.369 . S
C987 C988 1.410 . S
C987 C995 1.503 . S
C988 C987 1.410 . S
C988 C989 1.392 . S
C988 C991 1.511 . S
C989 C985 1.376 . S
C989 C988 1.392 . S
C989 H1001 0.929 . S
C990 C986 1.531 . S
C990 H1002 0.960 . S
C990 H1003 0.962 . S
C990 H1004 0.960 . S
C991 C988 1.511 . S
C991 H1005 0.961 . S
C991 H1006 0.961 . S
C991 H1007 0.961 . S
C992 C993 1.370 . S
C992 C994 1.363 . S
C992 H1008 0.931 . S
C993 C992 1.370 . S
C993 C997 1.408 . S
C994 C992 1.363 . S
C994 C995 1.370 . S
C994 C998 1.524 . S
C995 C987 1.503 . S
C995 C994 1.370 . S
C995 C996 1.403 . S
C996 C995 1.403 . S
C996 C997 1.404 . S
C996 C999 1.539 . S
C997 C993 1.408 . S
C997 C996 1.404 . S
C997 H1009 0.930 . S
C998 C994 1.524 . S
C998 H1010 0.956 . S
C998 H1011 0.961 . S
C998 H1012 0.961 . S
C999 C996 1.539 . S
C999 H1013 0.958 . S
C999 H1014 0.961 . S
C999 H1015 0.960 . S
H1000 C984 0.931 . S
H1001 C989 0.929 . S
H1002 C990 0.960 . S
H1003 C990 0.962 . S
H1004 C990 0.960 . S
H1005 C991 0.961 . S
H1006 C991 0.961 . S
H1007 C991 0.961 . S
H1008 C992 0.931 . S
H1009 C997 0.930 . S
H1010 C998 0.956 . S
H1011 C998 0.961 . S
H1012 C998 0.961 . S
H1013 C999 0.958 . S
H1014 C999 0.961 . S
H1015 C999 0.960 . S
C1016 C1017 1.391 . S
C1016 C1018 1.394 . S
C1016 H1032 0.931 . S
C1017 C1016 1.391 . S
C1017 C1021 1.376 . S
C1018 C1016 1.394 . S
C1018 C1019 1.369 . S
C1018 C1022 1.531 . S
C1019 C1018 1.369 . S
C1019 C1020 1.404 1_556 S
C1019 C1027 1.503 1_556 S
C1020 C1019 1.404 1_554 S
C1020 C1021 1.380 1_554 S
C1020 C1023 1.528 . S
C1021 C1017 1.376 . S
C1021 C1020 1.380 1_556 S
C1021 H1033 0.929 . S
C1022 C1018 1.531 . S
C1022 H1034 0.960 . S
C1022 H1035 0.962 . S
C1022 H1036 0.960 . S
C1023 C1020 1.528 . S
C1023 H1037 0.961 . S
C1023 H1038 0.961 . S
C1023 H1039 0.961 . S
C1024 C1025 1.370 . S
C1024 C1026 1.363 . S
C1024 H1040 0.931 . S
C1025 C1024 1.370 . S
C1025 C1029 1.408 . S
C1026 C1024 1.363 . S
C1026 C1027 1.370 . S
C1026 C1030 1.524 1_554 S
C1027 C1019 1.503 1_554 S
C1027 C1026 1.370 . S
C1027 C1028 1.403 . S
C1028 C1027 1.403 . S
C1028 C1029 1.404 . S
C1028 C1031 1.539 . S
C1029 C1025 1.408 . S
C1029 C1028 1.404 . S
C1029 H1041 0.930 . S
C1030 C1026 1.524 1_556 S
C1030 H1042 0.956 . S
C1030 H1043 0.957 1_556 S
C1030 H1044 0.961 1_556 S
C1031 C1028 1.539 . S
C1031 H1045 0.958 . S
C1031 H1046 0.961 . S
C1031 H1047 0.960 . S
H1032 C1016 0.931 . S
H1033 C1021 0.929 . S
H1034 C1022 0.960 . S
H1035 C1022 0.962 . S
H1036 C1022 0.960 . S
H1037 C1023 0.961 . S
H1038 C1023 0.961 . S
H1039 C1023 0.961 . S
H1040 C1024 0.931 . S
H1041 C1029 0.930 . S
H1042 C1030 0.956 . S
H1043 C1030 0.957 1_554 S
H1044 C1030 0.961 1_554 S
H1045 C1031 0.958 . S
H1046 C1031 0.961 . S
H1047 C1031 0.960 . S
C1048 C1049 1.391 . S
C1048 C1050 1.394 . S
C1048 H1064 0.931 . S
C1049 C1048 1.391 . S
C1049 C1053 1.376 . S
C1050 C1048 1.394 . S
C1050 C1051 1.369 . S
C1050 C1054 1.531 . S
C1051 C1050 1.369 . S
C1051 C1052 1.410 . S
C1051 C1059 1.503 . S
C1052 C1051 1.410 . S
C1052 C1053 1.392 . S
C1052 C1055 1.511 . S
C1053 C1049 1.376 . S
C1053 C1052 1.392 . S
C1053 H1065 0.929 . S
C1054 C1050 1.531 . S
C1054 H1066 0.960 . S
C1054 H1067 0.962 . S
C1054 H1068 0.960 . S
C1055 C1052 1.511 . S
C1055 H1069 0.961 . S
C1055 H1070 0.961 . S
C1055 H1071 0.961 . S
C1056 C1057 1.370 . S
C1056 C1058 1.363 . S
C1056 H1072 0.931 . S
C1057 C1056 1.370 . S
C1057 C1061 1.408 . S
C1058 C1056 1.363 . S
C1058 C1059 1.370 . S
C1058 C1062 1.524 . S
C1059 C1051 1.503 . S
C1059 C1058 1.370 . S
C1059 C1060 1.403 . S
C1060 C1059 1.403 . S
C1060 C1061 1.404 . S
C1060 C1063 1.539 . S
C1061 C1057 1.408 . S
C1061 C1060 1.404 . S
C1061 H1073 0.930 . S
C1062 C1058 1.524 . S
C1062 H1074 0.956 . S
C1062 H1075 0.961 . S
C1062 H1076 0.961 . S
C1063 C1060 1.539 . S
C1063 H1077 0.958 . S
C1063 H1078 0.961 . S
C1063 H1079 0.960 . S
H1064 C1048 0.931 . S
H1065 C1053 0.929 . S
H1066 C1054 0.960 . S
H1067 C1054 0.962 . S
H1068 C1054 0.960 . S
H1069 C1055 0.961 . S
H1070 C1055 0.961 . S
H1071 C1055 0.961 . S
H1072 C1056 0.931 . S
H1073 C1061 0.930 . S
H1074 C1062 0.956 . S
H1075 C1062 0.961 . S
H1076 C1062 0.961 . S
H1077 C1063 0.958 . S
H1078 C1063 0.961 . S
H1079 C1063 0.960 . S
C1080 C1081 1.391 . S
C1080 C1082 1.394 . S
C1080 H1096 0.931 . S
C1081 C1080 1.391 . S
C1081 C1085 1.376 . S
C1082 C1080 1.394 . S
C1082 C1083 1.369 . S
C1082 C1086 1.531 . S
C1083 C1082 1.369 . S
C1083 C1084 1.410 . S
C1083 C1091 1.503 . S
C1084 C1083 1.410 . S
C1084 C1085 1.392 . S
C1084 C1087 1.511 . S
C1085 C1081 1.376 . S
C1085 C1084 1.392 . S
C1085 H1097 0.929 . S
C1086 C1082 1.531 . S
C1086 H1098 0.960 . S
C1086 H1099 0.962 . S
C1086 H1100 0.960 . S
C1087 C1084 1.511 . S
C1087 H1101 0.961 . S
C1087 H1102 0.961 . S
C1087 H1103 0.961 . S
C1088 C1089 1.370 . S
C1088 C1090 1.363 . S
C1088 H1104 0.931 . S
C1089 C1088 1.370 . S
C1089 C1093 1.408 . S
C1090 C1088 1.363 . S
C1090 C1091 1.370 . S
C1090 C1094 1.524 . S
C1091 C1083 1.503 . S
C1091 C1090 1.370 . S
C1091 C1092 1.403 . S
C1092 C1091 1.403 . S
C1092 C1093 1.404 . S
C1092 C1095 1.539 . S
C1093 C1089 1.408 . S
C1093 C1092 1.404 . S
C1093 H1105 0.930 . S
C1094 C1090 1.524 . S
C1094 H1106 0.956 . S
C1094 H1107 0.961 . S
C1094 H1108 0.961 . S
C1095 C1092 1.539 . S
C1095 H1109 0.958 . S
C1095 H1110 0.961 . S
C1095 H1111 0.960 . S
H1096 C1080 0.931 . S
H1097 C1085 0.929 . S
H1098 C1086 0.960 . S
H1099 C1086 0.962 . S
H1100 C1086 0.960 . S
H1101 C1087 0.961 . S
H1102 C1087 0.961 . S
H1103 C1087 0.961 . S
H1104 C1088 0.931 . S
H1105 C1093 0.930 . S
H1106 C1094 0.956 . S
H1107 C1094 0.961 . S
H1108 C1094 0.961 . S
H1109 C1095 0.958 . S
H1110 C1095 0.961 . S
H1111 C1095 0.960 . S
C1112 C1113 1.391 . S
C1112 C1114 1.394 . S
C1112 H1128 0.931 . S
C1113 C1112 1.391 . S
C1113 C1117 1.376 . S
C1114 C1112 1.394 . S
C1114 C1115 1.369 . S
C1114 C1118 1.531 . S
C1115 C1114 1.369 . S
C1115 C1116 1.410 . S
C1115 C1123 1.503 1_455 S
C1116 C1115 1.410 . S
C1116 C1117 1.392 . S
C1116 C1119 1.511 . S
C1117 C1113 1.376 . S
C1117 C1116 1.392 . S
C1117 H1129 0.929 . S
C1118 C1114 1.531 . S
C1118 H1130 0.960 1_455 S
C1118 H1131 0.962 . S
C1118 H1132 0.960 . S
C1119 C1116 1.511 . S
C1119 H1133 0.961 . S
C1119 H1134 0.961 1_455 S
C1119 H1135 0.961 . S
C1120 C1121 1.370 . S
C1120 C1122 1.363 . S
C1120 H1136 0.931 . S
C1121 C1120 1.370 . S
C1121 C1125 1.408 . S
C1122 C1120 1.363 . S
C1122 C1123 1.370 . S
C1122 C1126 1.524 . S
C1123 C1115 1.503 1_655 S
C1123 C1122 1.370 . S
C1123 C1124 1.403 . S
C1124 C1123 1.403 . S
C1124 C1125 1.404 . S
C1124 C1127 1.539 . S
C1125 C1121 1.408 . S
C1125 C1124 1.404 . S
C1125 H1137 0.930 . S
C1126 C1122 1.524 . S
C1126 H1138 0.956 . S
C1126 H1139 0.961 1_655 S
C1126 H1140 0.961 . S
C1127 C1124 1.539 . S
C1127 H1141 0.958 . S
C1127 H1142 0.961 . S
C1127 H1143 0.974 . S
H1128 C1112 0.931 . S
H1129 C1117 0.929 . S
H1130 C1118 0.960 1_655 S
H1131 C1118 0.962 . S
H1132 C1118 0.960 . S
H1133 C1119 0.961 . S
H1134 C1119 0.961 1_655 S
H1135 C1119 0.961 . S
H1136 C1120 0.931 . S
H1137 C1125 0.930 . S
H1138 C1126 0.956 . S
H1139 C1126 0.961 1_455 S
H1140 C1126 0.961 . S
H1141 C1127 0.958 . S
H1142 C1127 0.961 . S
H1143 C1127 0.974 . S
C1144 C1145 1.391 . S
C1144 C1146 1.394 . S
C1144 H1160 0.931 . S
C1145 C1144 1.391 . S
C1145 C1149 1.376 . S
C1146 C1144 1.394 . S
C1146 C1147 1.369 . S
C1146 C1150 1.531 . S
C1147 C1146 1.369 . S
C1147 C1148 1.410 . S
C1147 C1155 1.503 1_565 S
C1148 C1147 1.410 . S
C1148 C1149 1.392 . S
C1148 C1151 1.511 . S
C1149 C1145 1.376 . S
C1149 C1148 1.392 . S
C1149 H1161 0.929 . S
C1150 C1146 1.531 . S
C1150 H1162 0.960 1_565 S
C1150 H1163 0.962 . S
C1150 H1164 0.960 . S
C1151 C1148 1.511 . S
C1151 H1165 0.961 . S
C1151 H1166 0.961 1_565 S
C1151 H1167 0.961 . S
C1152 C1153 1.370 . S
C1152 C1154 1.363 . S
C1152 H1168 0.931 . S
C1153 C1152 1.370 . S
C1153 C1157 1.408 . S
C1154 C1152 1.363 . S
C1154 C1155 1.370 . S
C1154 C1158 1.524 . S
C1155 C1147 1.503 1_545 S
C1155 C1154 1.370 . S
C1155 C1156 1.403 . S
C1156 C1155 1.403 . S
C1156 C1157 1.404 . S
C1156 C1159 1.539 . S
C1157 C1153 1.408 . S
C1157 C1156 1.404 . S
C1157 H1169 0.930 . S
C1158 C1154 1.524 . S
C1158 H1170 0.956 . S
C1158 H1171 0.961 1_545 S
C1158 H1172 0.961 . S
C1159 C1156 1.539 . S
C1159 H1173 0.958 . S
C1159 H1174 0.961 . S
C1159 H1175 0.967 . S
H1160 C1144 0.931 . S
H1161 C1149 0.929 . S
H1162 C1150 0.960 1_545 S
H1163 C1150 0.962 . S
H1164 C1150 0.960 . S
H1165 C1151 0.961 . S
H1166 C1151 0.961 1_545 S
H1167 C1151 0.961 . S
H1168 C1152 0.931 . S
H1169 C1157 0.930 . S
H1170 C1158 0.956 . S
H1171 C1158 0.961 1_565 S
H1172 C1158 0.961 . S
H1173 C1159 0.958 . S
H1174 C1159 0.961 . S
H1175 C1159 0.967 . S
C1176 C1177 1.391 . S
C1176 C1178 1.394 . S
C1176 H1192 0.931 . S
C1177 C1176 1.391 . S
C1177 C1181 1.376 . S
C1178 C1176 1.394 . S
C1178 C1179 1.369 . S
C1178 C1182 1.531 . S
C1179 C1178 1.369 . S
C1179 C1180 1.410 . S
C1179 C1187 1.503 . S
C1180 C1179 1.410 . S
C1180 C1181 1.392 . S
C1180 C1183 1.511 . S
C1181 C1177 1.376 . S
C1181 C1180 1.392 . S
C1181 H1193 0.929 . S
C1182 C1178 1.531 . S
C1182 H1194 0.960 . S
C1182 H1195 0.962 . S
C1182 H1196 0.960 . S
C1183 C1180 1.511 . S
C1183 H1197 0.961 . S
C1183 H1198 0.961 . S
C1183 H1199 0.961 . S
C1184 C1185 1.370 . S
C1184 C1186 1.363 . S
C1184 H1200 0.931 . S
C1185 C1184 1.370 . S
C1185 C1189 1.408 . S
C1186 C1184 1.363 . S
C1186 C1187 1.370 . S
C1186 C1190 1.524 . S
C1187 C1179 1.503 . S
C1187 C1186 1.370 . S
C1187 C1188 1.403 . S
C1188 C1187 1.403 . S
C1188 C1189 1.404 . S
C1188 C1191 1.539 . S
C1189 C1185 1.408 . S
C1189 C1188 1.404 . S
C1189 H1201 0.930 . S
C1190 C1186 1.524 . S
C1190 H1202 0.956 . S
C1190 H1203 0.961 . S
C1190 H1204 0.961 . S
C1191 C1188 1.539 . S
C1191 H1205 0.958 . S
C1191 H1206 0.961 . S
C1191 H1207 0.960 . S
H1192 C1176 0.931 . S
H1193 C1181 0.929 . S
H1194 C1182 0.960 . S
H1195 C1182 0.962 . S
H1196 C1182 0.960 . S
H1197 C1183 0.961 . S
H1198 C1183 0.961 . S
H1199 C1183 0.961 . S
H1200 C1184 0.931 . S
H1201 C1189 0.930 . S
H1202 C1190 0.956 . S
H1203 C1190 0.961 . S
H1204 C1190 0.961 . S
H1205 C1191 0.958 . S
H1206 C1191 0.961 . S
H1207 C1191 0.960 . S
C1208 C1209 1.391 . S
C1208 C1210 1.394 . S
C1208 H1224 0.931 . S
C1209 C1208 1.391 . S
C1209 C1213 1.376 . S
C1210 C1208 1.394 . S
C1210 C1211 1.369 . S
C1210 C1214 1.531 . S
C1211 C1210 1.369 . S
C1211 C1212 1.410 . S
C1211 C1219 1.503 1_655 S
C1212 C1211 1.410 . S
C1212 C1213 1.392 . S
C1212 C1215 1.511 . S
C1213 C1209 1.376 . S
C1213 C1212 1.392 . S
C1213 H1225 0.929 . S
C1214 C1210 1.531 . S
C1214 H1226 0.960 1_655 S
C1214 H1227 0.962 . S
C1214 H1228 0.960 . S
C1215 C1212 1.511 . S
C1215 H1229 0.961 . S
C1215 H1230 0.961 1_655 S
C1215 H1231 0.961 . S
C1216 C1217 1.370 . S
C1216 C1218 1.363 . S
C1216 H1232 0.931 . S
C1217 C1216 1.370 . S
C1217 C1221 1.408 . S
C1218 C1216 1.363 . S
C1218 C1219 1.370 . S
C1218 C1222 1.524 . S
C1219 C1211 1.503 1_455 S
C1219 C1218 1.370 . S
C1219 C1220 1.403 . S
C1220 C1219 1.403 . S
C1220 C1221 1.404 . S
C1220 C1223 1.539 . S
C1221 C1217 1.408 . S
C1221 C1220 1.404 . S
C1221 H1233 0.930 . S
C1222 C1218 1.524 . S
C1222 H1234 0.956 . S
C1222 H1235 0.961 1_455 S
C1222 H1236 0.961 . S
C1223 C1220 1.539 . S
C1223 H1237 0.958 . S
C1223 H1238 0.961 . S
C1223 H1239 0.974 . S
H1224 C1208 0.931 . S
H1225 C1213 0.929 . S
H1226 C1214 0.960 1_455 S
H1227 C1214 0.962 . S
H1228 C1214 0.960 . S
H1229 C1215 0.961 . S
H1230 C1215 0.961 1_455 S
H1231 C1215 0.961 . S
H1232 C1216 0.931 . S
H1233 C1221 0.930 . S
H1234 C1222 0.956 . S
H1235 C1222 0.961 1_655 S
H1236 C1222 0.961 . S
H1237 C1223 0.958 . S
H1238 C1223 0.961 . S
H1239 C1223 0.974 . S
C1240 C1241 1.391 . S
C1240 C1242 1.394 . S
C1240 H1256 0.931 . S
C1241 C1240 1.391 . S
C1241 C1245 1.376 . S
C1242 C1240 1.394 . S
C1242 C1243 1.369 . S
C1242 C1246 1.531 . S
C1243 C1242 1.369 . S
C1243 C1244 1.410 . S
C1243 C1251 1.503 1_545 S
C1244 C1243 1.410 . S
C1244 C1245 1.392 . S
C1244 C1247 1.511 . S
C1245 C1241 1.376 . S
C1245 C1244 1.392 . S
C1245 H1257 0.929 . S
C1246 C1242 1.531 . S
C1246 H1258 0.960 1_545 S
C1246 H1259 0.962 . S
C1246 H1260 0.960 . S
C1247 C1244 1.511 . S
C1247 H1261 0.961 . S
C1247 H1262 0.961 1_545 S
C1247 H1263 0.961 . S
C1248 C1249 1.370 . S
C1248 C1250 1.363 . S
C1248 H1264 0.931 . S
C1249 C1248 1.370 . S
C1249 C1253 1.408 . S
C1250 C1248 1.363 . S
C1250 C1251 1.370 . S
C1250 C1254 1.524 . S
C1251 C1243 1.503 1_565 S
C1251 C1250 1.370 . S
C1251 C1252 1.403 . S
C1252 C1251 1.403 . S
C1252 C1253 1.404 . S
C1252 C1255 1.539 . S
C1253 C1249 1.408 . S
C1253 C1252 1.404 . S
C1253 H1265 0.930 . S
C1254 C1250 1.524 . S
C1254 H1266 0.956 . S
C1254 H1267 0.961 1_565 S
C1254 H1268 0.961 . S
C1255 C1252 1.539 . S
C1255 H1269 0.958 . S
C1255 H1270 0.961 . S
C1255 H1271 0.974 . S
H1256 C1240 0.931 . S
H1257 C1245 0.929 . S
H1258 C1246 0.960 1_565 S
H1259 C1246 0.962 . S
H1260 C1246 0.960 . S
H1261 C1247 0.961 . S
H1262 C1247 0.961 1_565 S
H1263 C1247 0.961 . S
H1264 C1248 0.931 . S
H1265 C1253 0.930 . S
H1266 C1254 0.956 . S
H1267 C1254 0.961 1_545 S
H1268 C1254 0.961 . S
H1269 C1255 0.958 . S
H1270 C1255 0.961 . S
H1271 C1255 0.974 . S
C1272 C1273 1.391 . S
C1272 C1274 1.394 . S
C1272 H1288 0.931 . S
C1273 C1272 1.391 . S
C1273 C1277 1.376 . S
C1274 C1272 1.394 . S
C1274 C1275 1.369 . S
C1274 C1278 1.531 . S
C1275 C1274 1.369 . S
C1275 C1276 1.410 . S
C1275 C1283 1.503 . S
C1276 C1275 1.410 . S
C1276 C1277 1.392 . S
C1276 C1279 1.511 . S
C1277 C1273 1.376 . S
C1277 C1276 1.392 . S
C1277 H1289 0.929 . S
C1278 C1274 1.531 . S
C1278 H1290 0.960 . S
C1278 H1291 0.962 . S
C1278 H1292 0.960 . S
C1279 C1276 1.511 . S
C1279 H1293 0.961 . S
C1279 H1294 0.961 . S
C1279 H1295 0.961 . S
C1280 C1281 1.370 . S
C1280 C1282 1.363 . S
C1280 H1296 0.931 . S
C1281 C1280 1.370 . S
C1281 C1285 1.408 . S
C1282 C1280 1.363 . S
C1282 C1283 1.370 . S
C1282 C1286 1.524 . S
C1283 C1275 1.503 . S
C1283 C1282 1.370 . S
C1283 C1284 1.403 . S
C1284 C1283 1.403 . S
C1284 C1285 1.404 . S
C1284 C1287 1.539 . S
C1285 C1281 1.408 . S
C1285 C1284 1.404 . S
C1285 H1297 0.930 . S
C1286 C1282 1.524 . S
C1286 H1298 0.956 . S
C1286 H1299 0.961 . S
C1286 H1300 0.961 . S
C1287 C1284 1.539 . S
C1287 H1301 0.958 . S
C1287 H1302 0.961 . S
C1287 H1303 0.960 . S
H1288 C1272 0.931 . S
H1289 C1277 0.929 . S
H1290 C1278 0.960 . S
H1291 C1278 0.962 . S
H1292 C1278 0.960 . S
H1293 C1279 0.961 . S
H1294 C1279 0.961 . S
H1295 C1279 0.961 . S
H1296 C1280 0.931 . S
H1297 C1285 0.930 . S
H1298 C1286 0.956 . S
H1299 C1286 0.961 . S
H1300 C1286 0.961 . S
H1301 C1287 0.958 . S
H1302 C1287 0.961 . S
H1303 C1287 0.960 . S
C1304 C1305 1.391 . S
C1304 C1306 1.394 . S
C1304 H1320 0.931 . S
C1305 C1304 1.391 . S
C1305 C1309 1.376 . S
C1306 C1304 1.394 . S
C1306 C1307 1.369 . S
C1306 C1310 1.531 . S
C1307 C1306 1.369 . S
C1307 C1308 1.410 . S
C1307 C1315 1.503 1_655 S
C1308 C1307 1.410 . S
C1308 C1309 1.392 . S
C1308 C1311 1.511 . S
C1309 C1305 1.376 . S
C1309 C1308 1.392 . S
C1309 H1321 0.929 . S
C1310 C1306 1.531 . S
C1310 H1322 0.960 1_655 S
C1310 H1323 0.962 . S
C1310 H1324 0.960 . S
C1311 C1308 1.511 . S
C1311 H1325 0.961 . S
C1311 H1326 0.961 1_655 S
C1311 H1327 0.961 . S
C1312 C1313 1.370 . S
C1312 C1314 1.363 . S
C1312 H1328 0.931 . S
C1313 C1312 1.370 . S
C1313 C1317 1.408 . S
C1314 C1312 1.363 . S
C1314 C1315 1.370 . S
C1314 C1318 1.524 . S
C1315 C1307 1.503 1_455 S
C1315 C1314 1.370 . S
C1315 C1316 1.403 . S
C1316 C1315 1.403 . S
C1316 C1317 1.404 . S
C1316 C1319 1.539 . S
C1317 C1313 1.408 . S
C1317 C1316 1.404 . S
C1317 H1329 0.930 . S
C1318 C1314 1.524 . S
C1318 H1330 0.956 . S
C1318 H1331 0.961 1_455 S
C1318 H1332 0.961 . S
C1319 C1316 1.539 . S
C1319 H1333 0.958 . S
C1319 H1334 0.961 . S
C1319 H1335 0.967 . S
H1320 C1304 0.931 . S
H1321 C1309 0.929 . S
H1322 C1310 0.960 1_455 S
H1323 C1310 0.962 . S
H1324 C1310 0.960 . S
H1325 C1311 0.961 . S
H1326 C1311 0.961 1_455 S
H1327 C1311 0.961 . S
H1328 C1312 0.931 . S
H1329 C1317 0.930 . S
H1330 C1318 0.956 . S
H1331 C1318 0.961 1_655 S
H1332 C1318 0.961 . S
H1333 C1319 0.958 . S
H1334 C1319 0.961 . S
H1335 C1319 0.967 . S
C1336 C1337 1.391 . S
C1336 C1338 1.394 . S
C1336 H1352 0.931 . S
C1337 C1336 1.391 . S
C1337 C1341 1.376 . S
C1338 C1336 1.394 . S
C1338 C1339 1.369 . S
C1338 C1342 1.531 . S
C1339 C1338 1.369 . S
C1339 C1340 1.410 . S
C1339 C1347 1.503 1_545 S
C1340 C1339 1.410 . S
C1340 C1341 1.392 . S
C1340 C1343 1.511 . S
C1341 C1337 1.376 . S
C1341 C1340 1.392 . S
C1341 H1353 0.929 . S
C1342 C1338 1.531 . S
C1342 H1354 0.960 1_545 S
C1342 H1355 0.962 . S
C1342 H1356 0.960 . S
C1343 C1340 1.511 . S
C1343 H1357 0.961 . S
C1343 H1358 0.961 1_545 S
C1343 H1359 0.961 . S
C1344 C1345 1.370 . S
C1344 C1346 1.363 . S
C1344 H1360 0.931 . S
C1345 C1344 1.370 . S
C1345 C1349 1.408 . S
C1346 C1344 1.363 . S
C1346 C1347 1.370 . S
C1346 C1350 1.524 . S
C1347 C1339 1.503 1_565 S
C1347 C1346 1.370 . S
C1347 C1348 1.403 . S
C1348 C1347 1.403 . S
C1348 C1349 1.404 . S
C1348 C1351 1.539 . S
C1349 C1345 1.408 . S
C1349 C1348 1.404 . S
C1349 H1361 0.930 . S
C1350 C1346 1.524 . S
C1350 H1362 0.956 . S
C1350 H1363 0.961 1_565 S
C1350 H1364 0.961 . S
C1351 C1348 1.539 . S
C1351 H1365 0.958 . S
C1351 H1366 0.961 . S
C1351 H1367 0.973 . S
H1352 C1336 0.931 . S
H1353 C1341 0.929 . S
H1354 C1342 0.960 1_565 S
H1355 C1342 0.962 . S
H1356 C1342 0.960 . S
H1357 C1343 0.961 . S
H1358 C1343 0.961 1_565 S
H1359 C1343 0.961 . S
H1360 C1344 0.931 . S
H1361 C1349 0.930 . S
H1362 C1350 0.956 . S
H1363 C1350 0.961 1_545 S
H1364 C1350 0.961 . S
H1365 C1351 0.958 . S
H1366 C1351 0.961 . S
H1367 C1351 0.973 . S
C1368 C1369 1.391 . S
C1368 C1370 1.394 . S
C1368 H1384 0.931 . S
C1369 C1368 1.391 . S
C1369 C1373 1.376 . S
C1370 C1368 1.394 . S
C1370 C1371 1.369 . S
C1370 C1374 1.531 . S
C1371 C1370 1.369 . S
C1371 C1372 1.410 . S
C1371 C1379 1.503 . S
C1372 C1371 1.410 . S
C1372 C1373 1.392 . S
C1372 C1375 1.511 . S
C1373 C1369 1.376 . S
C1373 C1372 1.392 . S
C1373 H1385 0.929 . S
C1374 C1370 1.531 . S
C1374 H1386 0.960 . S
C1374 H1387 0.962 . S
C1374 H1388 0.960 . S
C1375 C1372 1.511 . S
C1375 H1389 0.961 . S
C1375 H1390 0.961 . S
C1375 H1391 0.961 . S
C1376 C1377 1.370 . S
C1376 C1378 1.363 . S
C1376 H1392 0.931 . S
C1377 C1376 1.370 . S
C1377 C1381 1.408 . S
C1378 C1376 1.363 . S
C1378 C1379 1.370 . S
C1378 C1382 1.524 . S
C1379 C1371 1.503 . S
C1379 C1378 1.370 . S
C1379 C1380 1.403 . S
C1380 C1379 1.403 . S
C1380 C1381 1.404 . S
C1380 C1383 1.539 . S
C1381 C1377 1.408 . S
C1381 C1380 1.404 . S
C1381 H1393 0.930 . S
C1382 C1378 1.524 . S
C1382 H1394 0.956 . S
C1382 H1395 0.961 . S
C1382 H1396 0.961 . S
C1383 C1380 1.539 . S
C1383 H1397 0.958 . S
C1383 H1398 0.961 . S
C1383 H1399 0.960 . S
H1384 C1368 0.931 . S
H1385 C1373 0.929 . S
H1386 C1374 0.960 . S
H1387 C1374 0.962 . S
H1388 C1374 0.960 . S
H1389 C1375 0.961 . S
H1390 C1375 0.961 . S
H1391 C1375 0.961 . S
H1392 C1376 0.931 . S
H1393 C1381 0.930 . S
H1394 C1382 0.956 . S
H1395 C1382 0.961 . S
H1396 C1382 0.961 . S
H1397 C1383 0.958 . S
H1398 C1383 0.961 . S
H1399 C1383 0.960 . S
C1400 C1401 1.391 . S
C1400 C1402 1.394 . S
C1400 H1416 0.931 . S
C1401 C1400 1.391 . S
C1401 C1405 1.376 . S
C1402 C1400 1.394 . S
C1402 C1403 1.369 . S
C1402 C1406 1.531 . S
C1403 C1402 1.369 . S
C1403 C1404 1.410 . S
C1403 C1411 1.503 1_455 S
C1404 C1403 1.410 . S
C1404 C1405 1.392 . S
C1404 C1407 1.511 . S
C1405 C1401 1.376 . S
C1405 C1404 1.392 . S
C1405 H1417 0.929 . S
C1406 C1402 1.531 . S
C1406 H1418 0.960 1_455 S
C1406 H1419 0.962 . S
C1406 H1420 0.960 . S
C1407 C1404 1.511 . S
C1407 H1421 0.961 . S
C1407 H1422 0.961 1_455 S
C1407 H1423 0.961 . S
C1408 C1409 1.370 . S
C1408 C1410 1.363 . S
C1408 H1424 0.931 . S
C1409 C1408 1.370 . S
C1409 C1413 1.408 . S
C1410 C1408 1.363 . S
C1410 C1411 1.370 . S
C1410 C1414 1.524 . S
C1411 C1403 1.503 1_655 S
C1411 C1410 1.370 . S
C1411 C1412 1.403 . S
C1412 C1411 1.403 . S
C1412 C1413 1.404 . S
C1412 C1415 1.539 . S
C1413 C1409 1.408 . S
C1413 C1412 1.404 . S
C1413 H1425 0.930 . S
C1414 C1410 1.524 . S
C1414 H1426 0.956 . S
C1414 H1427 0.961 1_655 S
C1414 H1428 0.961 . S
C1415 C1412 1.539 . S
C1415 H1429 0.958 . S
C1415 H1430 0.961 . S
C1415 H1431 0.969 . S
H1416 C1400 0.931 . S
H1417 C1405 0.929 . S
H1418 C1406 0.960 1_655 S
H1419 C1406 0.962 . S
H1420 C1406 0.960 . S
H1421 C1407 0.961 . S
H1422 C1407 0.961 1_655 S
H1423 C1407 0.961 . S
H1424 C1408 0.931 . S
H1425 C1413 0.930 . S
H1426 C1414 0.956 . S
H1427 C1414 0.961 1_455 S
H1428 C1414 0.961 . S
H1429 C1415 0.958 . S
H1430 C1415 0.961 . S
H1431 C1415 0.969 . S
C1432 C1433 1.391 . S
C1432 C1434 1.394 . S
C1432 H1448 0.931 . S
C1433 C1432 1.391 . S
C1433 C1437 1.376 . S
C1434 C1432 1.394 . S
C1434 C1435 1.369 . S
C1434 C1438 1.531 . S
C1435 C1434 1.369 . S
C1435 C1436 1.410 . S
C1435 C1443 1.503 1_565 S
C1436 C1435 1.410 . S
C1436 C1437 1.392 . S
C1436 C1439 1.511 . S
C1437 C1433 1.376 . S
C1437 C1436 1.392 . S
C1437 H1449 0.929 . S
C1438 C1434 1.531 . S
C1438 H1450 0.960 1_565 S
C1438 H1451 0.962 . S
C1438 H1452 0.960 . S
C1439 C1436 1.511 . S
C1439 H1453 0.961 . S
C1439 H1454 0.961 1_565 S
C1439 H1455 0.961 . S
C1440 C1441 1.370 . S
C1440 C1442 1.363 . S
C1440 H1456 0.931 . S
C1441 C1440 1.370 . S
C1441 C1445 1.408 . S
C1442 C1440 1.363 . S
C1442 C1443 1.370 . S
C1442 C1446 1.524 . S
C1443 C1435 1.503 1_545 S
C1443 C1442 1.370 . S
C1443 C1444 1.403 . S
C1444 C1443 1.403 . S
C1444 C1445 1.404 . S
C1444 C1447 1.539 . S
C1445 C1441 1.408 . S
C1445 C1444 1.404 . S
C1445 H1457 0.930 . S
C1446 C1442 1.524 . S
C1446 H1458 0.956 . S
C1446 H1459 0.961 1_545 S
C1446 H1460 0.961 . S
C1447 C1444 1.539 . S
C1447 H1461 0.958 . S
C1447 H1462 0.961 . S
C1447 H1463 0.969 . S
H1448 C1432 0.931 . S
H1449 C1437 0.929 . S
H1450 C1438 0.960 1_545 S
H1451 C1438 0.962 . S
H1452 C1438 0.960 . S
H1453 C1439 0.961 . S
H1454 C1439 0.961 1_545 S
H1455 C1439 0.961 . S
H1456 C1440 0.931 . S
H1457 C1445 0.930 . S
H1458 C1446 0.956 . S
H1459 C1446 0.961 1_565 S
H1460 C1446 0.961 . S
H1461 C1447 0.958 . S
H1462 C1447 0.961 . S
H1463 C1447 0.969 . S
C1464 C1465 1.391 . S
C1464 C1466 1.394 1_556 S
C1464 H1480 0.931 . S
C1465 C1464 1.391 . S
C1465 C1469 1.376 . S
C1466 C1464 1.394 1_554 S
C1466 C1467 1.369 1_554 S
C1466 C1470 1.531 . S
C1467 C1466 1.369 1_556 S
C1467 C1468 1.410 . S
C1467 C1475 1.503 1_556 S
C1468 C1467 1.410 . S
C1468 C1469 1.392 . S
C1468 C1471 1.511 . S
C1469 C1465 1.376 . S
C1469 C1468 1.392 . S
C1469 H1481 0.929 . S
C1470 C1466 1.531 . S
C1470 H1482 0.960 . S
C1470 H1483 0.962 . S
C1470 H1484 0.960 . S
C1471 C1468 1.511 . S
C1471 H1485 0.961 . S
C1471 H1486 0.961 . S
C1471 H1487 0.961 . S
C1472 C1473 1.370 . S
C1472 C1474 1.363 . S
C1472 H1488 0.931 . S
C1473 C1472 1.370 . S
C1473 C1477 1.408 . S
C1474 C1472 1.363 . S
C1474 C1475 1.370 . S
C1474 C1478 1.524 1_554 S
C1475 C1467 1.503 1_554 S
C1475 C1474 1.370 . S
C1475 C1476 1.403 . S
C1476 C1475 1.403 . S
C1476 C1477 1.404 . S
C1476 C1479 1.539 . S
C1477 C1473 1.408 . S
C1477 C1476 1.404 . S
C1477 H1489 0.930 . S
C1478 C1474 1.524 1_556 S
C1478 H1490 0.956 . S
C1478 H1491 0.961 . S
C1478 H1492 0.961 . S
C1479 C1476 1.539 . S
C1479 H1493 0.958 . S
C1479 H1494 0.961 . S
C1479 H1495 0.960 . S
H1480 C1464 0.931 . S
H1481 C1469 0.929 . S
H1482 C1470 0.960 . S
H1483 C1470 0.962 . S
H1484 C1470 0.960 . S
H1485 C1471 0.961 . S
H1486 C1471 0.961 . S
H1487 C1471 0.961 . S
H1488 C1472 0.931 . S
H1489 C1477 0.930 . S
H1490 C1478 0.956 . S
H1491 C1478 0.961 . S
H1492 C1478 0.961 . S
H1493 C1479 0.958 . S
H1494 C1479 0.961 . S
H1495 C1479 0.960 . S
C1496 C1497 1.391 . S
C1496 C1498 1.394 . S
C1496 H1512 0.931 . S
C1497 C1496 1.391 . S
C1497 C1501 1.376 . S
C1498 C1496 1.394 . S
C1498 C1499 1.369 . S
C1498 C1502 1.531 . S
C1499 C1498 1.369 . S
C1499 C1500 1.410 . S
C1499 C1507 1.503 . S
C1500 C1499 1.410 . S
C1500 C1501 1.392 . S
C1500 C1503 1.511 . S
C1501 C1497 1.376 . S
C1501 C1500 1.392 . S
C1501 H1513 0.929 . S
C1502 C1498 1.531 . S
C1502 H1514 0.960 . S
C1502 H1515 0.962 . S
C1502 H1516 0.960 . S
C1503 C1500 1.511 . S
C1503 H1517 0.961 . S
C1503 H1518 0.961 . S
C1503 H1519 0.961 . S
C1504 C1505 1.370 . S
C1504 C1506 1.363 . S
C1504 H1520 0.931 . S
C1505 C1504 1.370 . S
C1505 C1509 1.408 . S
C1506 C1504 1.363 . S
C1506 C1507 1.370 . S
C1506 C1510 1.524 . S
C1507 C1499 1.503 . S
C1507 C1506 1.370 . S
C1507 C1508 1.403 . S
C1508 C1507 1.403 . S
C1508 C1509 1.404 . S
C1508 C1511 1.539 . S
C1509 C1505 1.408 . S
C1509 C1508 1.404 . S
C1509 H1521 0.930 . S
C1510 C1506 1.524 . S
C1510 H1522 0.956 . S
C1510 H1523 0.961 . S
C1510 H1524 0.961 . S
C1511 C1508 1.539 . S
C1511 H1525 0.958 . S
C1511 H1526 0.961 . S
C1511 H1527 0.960 . S
H1512 C1496 0.931 . S
H1513 C1501 0.929 . S
H1514 C1502 0.960 . S
H1515 C1502 0.962 . S
H1516 C1502 0.960 . S
H1517 C1503 0.961 . S
H1518 C1503 0.961 . S
H1519 C1503 0.961 . S
H1520 C1504 0.931 . S
H1521 C1509 0.930 . S
H1522 C1510 0.956 . S
H1523 C1510 0.961 . S
H1524 C1510 0.961 . S
H1525 C1511 0.958 . S
H1526 C1511 0.961 . S
H1527 C1511 0.960 . S
C1528 C1529 1.391 . S
C1528 C1530 1.394 . S
C1528 H1544 0.931 . S
C1529 C1528 1.391 . S
C1529 C1533 1.376 . S
C1530 C1528 1.394 . S
C1530 C1531 1.369 . S
C1530 C1534 1.531 . S
C1531 C1530 1.369 . S
C1531 C1532 1.410 . S
C1531 C1539 1.503 1_556 S
C1532 C1531 1.410 . S
C1532 C1533 1.392 . S
C1532 C1535 1.511 1_556 S
C1533 C1529 1.376 . S
C1533 C1532 1.392 . S
C1533 H1545 0.929 . S
C1534 C1530 1.531 . S
C1534 H1546 0.960 1_556 S
C1534 H1547 0.962 . S
C1534 H1548 0.960 . S
C1535 C1532 1.511 1_554 S
C1535 H1549 0.961 1_554 S
C1535 H1550 0.961 . S
C1535 H1551 0.961 . S
C1536 C1537 1.370 . S
C1536 C1538 1.363 1_554 S
C1536 H1552 0.944 . S
C1537 C1536 1.370 . S
C1537 C1541 1.408 . S
C1538 C1536 1.363 1_556 S
C1538 C1539 1.370 1_556 S
C1538 C1542 1.524 . S
C1539 C1531 1.503 1_554 S
C1539 C1538 1.370 1_554 S
C1539 C1540 1.403 . S
C1540 C1539 1.403 . S
C1540 C1541 1.404 . S
C1540 C1543 1.539 . S
C1541 C1537 1.408 . S
C1541 C1540 1.404 . S
C1541 H1553 0.930 . S
C1542 C1538 1.524 . S
C1542 H1554 0.956 . S
C1542 H1555 0.961 . S
C1542 H1556 0.961 . S
C1543 C1540 1.539 . S
C1543 H1557 0.958 . S
C1543 H1558 0.961 . S
C1543 H1559 0.960 . S
H1544 C1528 0.931 . S
H1545 C1533 0.929 . S
H1546 C1534 0.960 1_554 S
H1547 C1534 0.962 . S
H1548 C1534 0.960 . S
H1549 C1535 0.961 1_556 S
H1550 C1535 0.961 . S
H1551 C1535 0.961 . S
H1552 C1536 0.944 . S
H1553 C1541 0.930 . S
H1554 C1542 0.956 . S
H1555 C1542 0.961 . S
H1556 C1542 0.961 . S
H1557 C1543 0.958 . S
H1558 C1543 0.961 . S
H1559 C1543 0.960 . S
C1560 C1561 1.391 . S
C1560 C1562 1.394 . S
C1560 H1576 0.931 . S
C1561 C1560 1.391 . S
C1561 C1565 1.376 . S
C1562 C1560 1.394 . S
C1562 C1563 1.369 . S
C1562 C1566 1.531 . S
C1563 C1562 1.369 . S
C1563 C1564 1.410 . S
C1563 C1571 1.503 . S
C1564 C1563 1.410 . S
C1564 C1565 1.392 . S
C1564 C1567 1.511 . S
C1565 C1561 1.376 . S
C1565 C1564 1.392 . S
C1565 H1577 0.929 . S
C1566 C1562 1.531 . S
C1566 H1578 0.960 . S
C1566 H1579 0.962 . S
C1566 H1580 0.960 . S
C1567 C1564 1.511 . S
C1567 H1581 0.961 . S
C1567 H1582 0.961 . S
C1567 H1583 0.961 . S
C1568 C1569 1.370 . S
C1568 C1570 1.363 . S
C1568 H1584 0.931 . S
C1569 C1568 1.370 . S
C1569 C1573 1.408 . S
C1570 C1568 1.363 . S
C1570 C1571 1.370 . S
C1570 C1574 1.524 . S
C1571 C1563 1.503 . S
C1571 C1570 1.370 . S
C1571 C1572 1.403 . S
C1572 C1571 1.403 . S
C1572 C1573 1.404 . S
C1572 C1575 1.539 . S
C1573 C1569 1.408 . S
C1573 C1572 1.404 . S
C1573 H1585 0.930 . S
C1574 C1570 1.524 . S
C1574 H1586 0.956 . S
C1574 H1587 0.961 . S
C1574 H1588 0.961 . S
C1575 C1572 1.539 . S
C1575 H1589 0.958 . S
C1575 H1590 0.961 . S
C1575 H1591 0.960 . S
H1576 C1560 0.931 . S
H1577 C1565 0.929 . S
H1578 C1566 0.960 . S
H1579 C1566 0.962 . S
H1580 C1566 0.960 . S
H1581 C1567 0.961 . S
H1582 C1567 0.961 . S
H1583 C1567 0.961 . S
H1584 C1568 0.931 . S
H1585 C1573 0.930 . S
H1586 C1574 0.956 . S
H1587 C1574 0.961 . S
H1588 C1574 0.961 . S
H1589 C1575 0.958 . S
H1590 C1575 0.961 . S
H1591 C1575 0.960 . S
C1592 C1593 1.391 . S
C1592 C1594 1.394 . S
C1592 H1608 0.931 . S
C1593 C1592 1.391 . S
C1593 C1597 1.376 . S
C1594 C1592 1.394 . S
C1594 C1595 1.369 . S
C1594 C1598 1.531 . S
C1595 C1594 1.369 . S
C1595 C1596 1.410 . S
C1595 C1603 1.503 1_556 S
C1596 C1595 1.410 . S
C1596 C1597 1.392 . S
C1596 C1599 1.511 . S
C1597 C1593 1.376 . S
C1597 C1596 1.392 . S
C1597 H1609 0.929 . S
C1598 C1594 1.531 . S
C1598 H1610 0.960 . S
C1598 H1611 0.930 1_556 S
C1598 H1612 0.960 . S
C1599 C1596 1.511 . S
C1599 H1613 0.961 . S
C1599 H1614 0.961 1_556 S
C1599 H1615 0.961 . S
C1600 C1601 1.370 . S
C1600 C1602 1.363 . S
C1600 H1616 0.931 . S
C1601 C1600 1.370 . S
C1601 C1605 1.408 . S
C1602 C1600 1.363 . S
C1602 C1603 1.370 . S
C1602 C1606 1.524 . S
C1603 C1595 1.503 1_554 S
C1603 C1602 1.370 . S
C1603 C1604 1.403 1_554 S
C1604 C1603 1.403 1_556 S
C1604 C1605 1.404 1_556 S
C1604 C1607 1.539 . S
C1605 C1601 1.408 . S
C1605 C1604 1.404 1_554 S
C1605 H1617 0.929 1_554 S
C1606 C1602 1.524 . S
C1606 H1618 0.956 . S
C1606 H1619 0.961 . S
C1606 H1620 0.961 . S
C1607 C1604 1.539 . S
C1607 H1621 0.958 . S
C1607 H1622 0.961 . S
C1607 H1623 0.960 . S
H1608 C1592 0.931 . S
H1609 C1597 0.929 . S
H1610 C1598 0.960 . S
H1611 C1598 0.930 1_554 S
H1612 C1598 0.960 . S
H1613 C1599 0.961 . S
H1614 C1599 0.961 1_554 S
H1615 C1599 0.961 . S
H1616 C1600 0.931 . S
H1617 C1605 0.929 1_556 S
H1618 C1606 0.956 . S
H1619 C1606 0.961 . S
H1620 C1606 0.961 . S
H1621 C1607 0.958 . S
H1622 C1607 0.961 . S
H1623 C1607 0.960 . S
C1624 C1625 1.391 . S
C1624 C1626 1.394 . S
C1624 H1640 0.931 . S
C1625 C1624 1.391 . S
C1625 C1629 1.376 . S
C1626 C1624 1.394 . S
C1626 C1627 1.369 . S
C1626 C1630 1.531 . S
C1627 C1626 1.369 . S
C1627 C1628 1.410 . S
C1627 C1635 1.503 . S
C1628 C1627 1.410 . S
C1628 C1629 1.392 . S
C1628 C1631 1.511 . S
C1629 C1625 1.376 . S
C1629 C1628 1.392 . S
C1629 H1641 0.929 . S
C1630 C1626 1.531 . S
C1630 H1642 0.960 . S
C1630 H1643 0.962 . S
C1630 H1644 0.960 . S
C1631 C1628 1.511 . S
C1631 H1645 0.961 . S
C1631 H1646 0.961 . S
C1631 H1647 0.961 . S
C1632 C1633 1.370 . S
C1632 C1634 1.363 . S
C1632 H1648 0.931 . S
C1633 C1632 1.370 . S
C1633 C1637 1.408 . S
C1634 C1632 1.363 . S
C1634 C1635 1.370 . S
C1634 C1638 1.524 . S
C1635 C1627 1.503 . S
C1635 C1634 1.370 . S
C1635 C1636 1.403 . S
C1636 C1635 1.403 . S
C1636 C1637 1.404 . S
C1636 C1639 1.539 . S
C1637 C1633 1.408 . S
C1637 C1636 1.404 . S
C1637 H1649 0.930 . S
C1638 C1634 1.524 . S
C1638 H1650 0.956 . S
C1638 H1651 0.961 . S
C1638 H1652 0.961 . S
C1639 C1636 1.539 . S
C1639 H1653 0.958 . S
C1639 H1654 0.961 . S
C1639 H1655 0.960 . S
H1640 C1624 0.931 . S
H1641 C1629 0.929 . S
H1642 C1630 0.960 . S
H1643 C1630 0.962 . S
H1644 C1630 0.960 . S
H1645 C1631 0.961 . S
H1646 C1631 0.961 . S
H1647 C1631 0.961 . S
H1648 C1632 0.931 . S
H1649 C1637 0.930 . S
H1650 C1638 0.956 . S
H1651 C1638 0.961 . S
H1652 C1638 0.961 . S
H1653 C1639 0.958 . S
H1654 C1639 0.961 . S
H1655 C1639 0.960 . S
C1656 C1657 1.391 . S
C1656 C1658 1.394 . S
C1656 H1672 0.931 . S
C1657 C1656 1.391 . S
C1657 C1661 1.376 . S
C1658 C1656 1.394 . S
C1658 C1659 1.369 . S
C1658 C1662 1.531 1_554 S
C1659 C1658 1.369 . S
C1659 C1660 1.410 . S
C1659 C1667 1.503 1_554 S
C1660 C1659 1.410 . S
C1660 C1661 1.392 . S
C1660 C1663 1.511 . S
C1661 C1657 1.376 . S
C1661 C1660 1.392 . S
C1661 H1673 0.929 . S
C1662 C1658 1.531 1_556 S
C1662 H1674 0.960 . S
C1662 H1675 0.962 1_556 S
C1662 H1676 0.960 . S
C1663 C1660 1.511 . S
C1663 H1677 0.961 . S
C1663 H1678 0.961 . S
C1663 H1679 0.961 1_554 S
C1664 C1665 1.370 . S
C1664 C1666 1.363 1_556 S
C1664 H1680 0.934 . S
C1665 C1664 1.370 . S
C1665 C1669 1.408 . S
C1666 C1664 1.363 1_554 S
C1666 C1667 1.370 1_554 S
C1666 C1670 1.524 . S
C1667 C1659 1.503 1_556 S
C1667 C1666 1.370 1_556 S
C1667 C1668 1.403 . S
C1668 C1667 1.403 . S
C1668 C1669 1.404 . S
C1668 C1671 1.539 . S
C1669 C1665 1.408 . S
C1669 C1668 1.404 . S
C1669 H1681 0.930 . S
C1670 C1666 1.524 . S
C1670 H1682 0.956 . S
C1670 H1683 0.961 . S
C1670 H1684 0.961 . S
C1671 C1668 1.539 . S
C1671 H1685 0.958 . S
C1671 H1686 0.961 . S
C1671 H1687 0.960 . S
H1672 C1656 0.931 . S
H1673 C1661 0.929 . S
H1674 C1662 0.960 . S
H1675 C1662 0.962 1_554 S
H1676 C1662 0.960 . S
H1677 C1663 0.961 . S
H1678 C1663 0.961 . S
H1679 C1663 0.961 1_556 S
H1680 C1664 0.934 . S
H1681 C1669 0.930 . S
H1682 C1670 0.956 . S
H1683 C1670 0.961 . S
H1684 C1670 0.961 . S
H1685 C1671 0.958 . S
H1686 C1671 0.961 . S
H1687 C1671 0.960 . S
C1688 C1689 1.391 . S
C1688 C1690 1.394 . S
C1688 H1704 0.931 . S
C1689 C1688 1.391 . S
C1689 C1693 1.376 . S
C1690 C1688 1.394 . S
C1690 C1691 1.369 . S
C1690 C1694 1.531 . S
C1691 C1690 1.369 . S
C1691 C1692 1.410 . S
C1691 C1699 1.503 . S
C1692 C1691 1.410 . S
C1692 C1693 1.392 . S
C1692 C1695 1.511 . S
C1693 C1689 1.376 . S
C1693 C1692 1.392 . S
C1693 H1705 0.929 . S
C1694 C1690 1.531 . S
C1694 H1706 0.960 . S
C1694 H1707 0.962 . S
C1694 H1708 0.960 . S
C1695 C1692 1.511 . S
C1695 H1709 0.961 . S
C1695 H1710 0.961 . S
C1695 H1711 0.961 . S
C1696 C1697 1.370 . S
C1696 C1698 1.363 . S
C1696 H1712 0.931 . S
C1697 C1696 1.370 . S
C1697 C1701 1.408 . S
C1698 C1696 1.363 . S
C1698 C1699 1.370 . S
C1698 C1702 1.524 . S
C1699 C1691 1.503 . S
C1699 C1698 1.370 . S
C1699 C1700 1.403 . S
C1700 C1699 1.403 . S
C1700 C1701 1.404 . S
C1700 C1703 1.539 . S
C1701 C1697 1.408 . S
C1701 C1700 1.404 . S
C1701 H1713 0.930 . S
C1702 C1698 1.524 . S
C1702 H1714 0.956 . S
C1702 H1715 0.961 . S
C1702 H1716 0.961 . S
C1703 C1700 1.539 . S
C1703 H1717 0.958 . S
C1703 H1718 0.961 . S
C1703 H1719 0.960 . S
H1704 C1688 0.931 . S
H1705 C1693 0.929 . S
H1706 C1694 0.960 . S
H1707 C1694 0.962 . S
H1708 C1694 0.960 . S
H1709 C1695 0.961 . S
H1710 C1695 0.961 . S
H1711 C1695 0.961 . S
H1712 C1696 0.931 . S
H1713 C1701 0.930 . S
H1714 C1702 0.956 . S
H1715 C1702 0.961 . S
H1716 C1702 0.961 . S
H1717 C1703 0.958 . S
H1718 C1703 0.961 . S
H1719 C1703 0.960 . S
C1720 C1721 1.391 . S
C1720 C1722 1.394 . S
C1720 H1736 0.931 . S
C1721 C1720 1.391 . S
C1721 C1725 1.376 . S
C1722 C1720 1.394 . S
C1722 C1723 1.369 . S
C1722 C1726 1.531 . S
C1723 C1722 1.369 . S
C1723 C1724 1.410 . S
C1723 C1731 1.503 1_554 S
C1724 C1723 1.410 . S
C1724 C1725 1.392 . S
C1724 C1727 1.511 1_554 S
C1725 C1721 1.376 . S
C1725 C1724 1.392 . S
C1725 H1737 0.929 . S
C1726 C1722 1.531 . S
C1726 H1738 0.960 . S
C1726 H1739 0.962 . S
C1726 H1740 0.960 . S
C1727 C1724 1.511 1_556 S
C1727 H1741 0.961 . S
C1727 H1742 0.961 . S
C1727 H1743 0.961 . S
C1728 C1729 1.370 . S
C1728 C1730 1.363 . S
C1728 H1744 0.931 . S
C1729 C1728 1.370 . S
C1729 C1733 1.408 . S
C1730 C1728 1.363 . S
C1730 C1731 1.370 . S
C1730 C1734 1.524 . S
C1731 C1723 1.503 1_556 S
C1731 C1730 1.370 . S
C1731 C1732 1.403 1_556 S
C1732 C1731 1.403 1_554 S
C1732 C1733 1.404 1_554 S
C1732 C1735 1.539 . S
C1733 C1729 1.408 . S
C1733 C1732 1.404 1_556 S
C1733 H1745 0.930 . S
C1734 C1730 1.524 . S
C1734 H1746 0.956 . S
C1734 H1747 0.961 . S
C1734 H1748 0.961 . S
C1735 C1732 1.539 . S
C1735 H1749 0.958 . S
C1735 H1750 0.961 . S
C1735 H1751 0.960 . S
H1736 C1720 0.931 . S
H1737 C1725 0.929 . S
H1738 C1726 0.960 . S
H1739 C1726 0.962 . S
H1740 C1726 0.960 . S
H1741 C1727 0.961 . S
H1742 C1727 0.961 . S
H1743 C1727 0.961 . S
H1744 C1728 0.931 . S
H1745 C1733 0.930 . S
H1746 C1734 0.956 . S
H1747 C1734 0.961 . S
H1748 C1734 0.961 . S
H1749 C1735 0.958 . S
H1750 C1735 0.961 . S
H1751 C1735 0.960 . S
C1752 C1753 1.391 . S
C1752 C1754 1.394 . S
C1752 H1768 0.931 . S
C1753 C1752 1.391 . S
C1753 C1757 1.376 . S
C1754 C1752 1.394 . S
C1754 C1755 1.369 . S
C1754 C1758 1.531 . S
C1755 C1754 1.369 . S
C1755 C1756 1.410 . S
C1755 C1763 1.503 . S
C1756 C1755 1.410 . S
C1756 C1757 1.392 . S
C1756 C1759 1.511 . S
C1757 C1753 1.376 . S
C1757 C1756 1.392 . S
C1757 H1769 0.929 . S
C1758 C1754 1.531 . S
C1758 H1770 0.960 . S
C1758 H1771 0.962 . S
C1758 H1772 0.960 . S
C1759 C1756 1.511 . S
C1759 H1773 0.961 . S
C1759 H1774 0.961 . S
C1759 H1775 0.961 . S
C1760 C1761 1.370 . S
C1760 C1762 1.363 . S
C1760 H1776 0.931 . S
C1761 C1760 1.370 . S
C1761 C1765 1.408 . S
C1762 C1760 1.363 . S
C1762 C1763 1.370 . S
C1762 C1766 1.524 . S
C1763 C1755 1.503 . S
C1763 C1762 1.370 . S
C1763 C1764 1.403 . S
C1764 C1763 1.403 . S
C1764 C1765 1.404 . S
C1764 C1767 1.539 . S
C1765 C1761 1.408 . S
C1765 C1764 1.404 . S
C1765 H1777 0.930 . S
C1766 C1762 1.524 . S
C1766 H1778 0.956 . S
C1766 H1779 0.961 . S
C1766 H1780 0.961 . S
C1767 C1764 1.539 . S
C1767 H1781 0.958 . S
C1767 H1782 0.961 . S
C1767 H1783 0.960 . S
H1768 C1752 0.931 . S
H1769 C1757 0.929 . S
H1770 C1758 0.960 . S
H1771 C1758 0.962 . S
H1772 C1758 0.960 . S
H1773 C1759 0.961 . S
H1774 C1759 0.961 . S
H1775 C1759 0.961 . S
H1776 C1760 0.931 . S
H1777 C1765 0.930 . S
H1778 C1766 0.956 . S
H1779 C1766 0.961 . S
H1780 C1766 0.961 . S
H1781 C1767 0.958 . S
H1782 C1767 0.961 . S
H1783 C1767 0.960 . S
C1784 C1785 1.391 . S
C1784 C1786 1.394 . S
C1784 H1800 0.931 . S
C1785 C1784 1.391 . S
C1785 C1789 1.376 . S
C1786 C1784 1.394 . S
C1786 C1787 1.369 . S
C1786 C1790 1.531 1_556 S
C1787 C1786 1.369 . S
C1787 C1788 1.410 . S
C1787 C1795 1.503 1_556 S
C1788 C1787 1.410 . S
C1788 C1789 1.392 . S
C1788 C1791 1.511 . S
C1789 C1785 1.376 . S
C1789 C1788 1.392 . S
C1789 H1801 0.929 . S
C1790 C1786 1.531 1_554 S
C1790 H1802 0.962 . S
C1790 H1803 0.962 . S
C1790 H1804 0.960 1_554 S
C1791 C1788 1.511 . S
C1791 H1805 0.961 . S
C1791 H1806 0.961 . S
C1791 H1807 0.961 . S
C1792 C1793 1.370 . S
C1792 C1794 1.363 . S
C1792 H1808 0.931 . S
C1793 C1792 1.370 . S
C1793 C1797 1.408 . S
C1794 C1792 1.363 . S
C1794 C1795 1.370 . S
C1794 C1798 1.524 . S
C1795 C1787 1.503 1_554 S
C1795 C1794 1.370 . S
C1795 C1796 1.403 1_554 S
C1796 C1795 1.403 1_556 S
C1796 C1797 1.404 1_556 S
C1796 C1799 1.539 . S
C1797 C1793 1.408 . S
C1797 C1796 1.404 1_554 S
C1797 H1809 0.930 . S
C1798 C1794 1.524 . S
C1798 H1810 0.956 . S
C1798 H1811 0.961 . S
C1798 H1812 0.961 . S
C1799 C1796 1.539 . S
C1799 H1813 0.958 . S
C1799 H1814 0.961 . S
C1799 H1815 0.960 . S
H1800 C1784 0.931 . S
H1801 C1789 0.929 . S
H1802 C1790 0.962 . S
H1803 C1790 0.962 . S
H1804 C1790 0.960 1_556 S
H1805 C1791 0.961 . S
H1806 C1791 0.961 . S
H1807 C1791 0.961 . S
H1808 C1792 0.931 . S
H1809 C1797 0.930 . S
H1810 C1798 0.956 . S
H1811 C1798 0.961 . S
H1812 C1798 0.961 . S
H1813 C1799 0.958 . S
H1814 C1799 0.961 . S
H1815 C1799 0.960 . S
C1816 C1817 1.391 . S
C1816 C1818 1.394 . S
C1816 H1832 0.931 . S
C1817 C1816 1.391 . S
C1817 C1821 1.376 . S
C1818 C1816 1.394 . S
C1818 C1819 1.369 . S
C1818 C1822 1.531 . S
C1819 C1818 1.369 . S
C1819 C1820 1.410 . S
C1819 C1827 1.503 . S
C1820 C1819 1.410 . S
C1820 C1821 1.392 . S
C1820 C1823 1.511 . S
C1821 C1817 1.376 . S
C1821 C1820 1.392 . S
C1821 H1833 0.929 . S
C1822 C1818 1.531 . S
C1822 H1834 0.960 . S
C1822 H1835 0.962 . S
C1822 H1836 0.960 . S
C1823 C1820 1.511 . S
C1823 H1837 0.961 . S
C1823 H1838 0.961 . S
C1823 H1839 0.961 . S
C1824 C1825 1.370 . S
C1824 C1826 1.363 . S
C1824 H1840 0.931 . S
C1825 C1824 1.370 . S
C1825 C1829 1.408 . S
C1826 C1824 1.363 . S
C1826 C1827 1.370 . S
C1826 C1830 1.524 . S
C1827 C1819 1.503 . S
C1827 C1826 1.370 . S
C1827 C1828 1.403 . S
C1828 C1827 1.403 . S
C1828 C1829 1.404 . S
C1828 C1831 1.539 . S
C1829 C1825 1.408 . S
C1829 C1828 1.404 . S
C1829 H1841 0.930 . S
C1830 C1826 1.524 . S
C1830 H1842 0.956 . S
C1830 H1843 0.961 . S
C1830 H1844 0.961 . S
C1831 C1828 1.539 . S
C1831 H1845 0.958 . S
C1831 H1846 0.961 . S
C1831 H1847 0.960 . S
H1832 C1816 0.931 . S
H1833 C1821 0.929 . S
H1834 C1822 0.960 . S
H1835 C1822 0.962 . S
H1836 C1822 0.960 . S
H1837 C1823 0.961 . S
H1838 C1823 0.961 . S
H1839 C1823 0.961 . S
H1840 C1824 0.931 . S
H1841 C1829 0.930 . S
H1842 C1830 0.956 . S
H1843 C1830 0.961 . S
H1844 C1830 0.961 . S
H1845 C1831 0.958 . S
H1846 C1831 0.961 . S
H1847 C1831 0.960 . S
C313 C5 1.449 . S
C321 C200 1.459 . S
C345 C18 1.455 . S
C353 C213 1.461 . S
C377 C224 1.461 . S
C385 C31 1.462 . S
C409 C161 1.458 . S
C417 C44 1.462 . S
C441 C174 1.467 . S
C449 C57 1.465 . S
C473 C187 1.448 . S
C481 C68 1.457 . S
C505 C276 1.448 . S
C513 C83 1.457 . S
C537 C94 1.456 . S
C545 C289 1.460 . S
C569 C302 1.455 . S
C577 C107 1.460 . S
C601 C122 1.456 . S
C609 C237 1.461 . S
C633 C250 1.465 . S
C641 C133 1.465 . S
C665 C148 1.463 . S
C673 C265 1.463 . S
C697 C134 1.506 . S
C705 C10 1.506 . S
C729 C153 1.505 . S
C737 C23 1.501 . S
C761 C36 1.516 . S
C769 C88 1.499 . S
C793 C49 1.492 . S
C801 C95 1.507 . S
C825 C108 1.502 . S
C833 C62 1.507 . S
C857 C69 1.509 . S
C865 C127 1.500 . S
C889 C290 1.489 . S
C897 C166 1.507 . S
C921 C179 1.491 . S
C929 C303 1.512 . S
C953 C192 1.490 . S
C961 C238 1.512 . S
C985 C251 1.490 . S
C993 C205 1.506 . S
C1017 C218 1.501 . S
C1025 C270 1.510 . S
C1049 C225 1.517 . S
C1057 C277 1.499 . S
C1081 C3 1.564 . S
C1089 C239 1.562 . S
C1113 C252 1.546 . S
C1121 C16 1.555 . S
C1145 C29 1.550 . S
C1153 C263 1.556 . S
C1177 C42 1.561 . S
C1185 C278 1.562 . S
C1209 C291 1.549 . S
C1217 C55 1.556 . S
C1241 C70 1.556 . S
C1249 C304 1.559 . S
C1273 C81 1.559 . S
C1281 C159 1.560 . S
C1305 C96 1.552 . S
C1313 C172 1.556 . S
C1337 C185 1.559 . S
C1345 C109 1.560 . S
C1369 C198 1.564 . S
C1377 C120 1.562 . S
C1401 C135 1.543 . S
C1409 C211 1.553 . S
C1433 C226 1.564 . S
C1441 C146 1.562 . S
C1465 C82 1.505 . S
C1473 C4 1.502 . S
C1497 C17 1.489 . S
C1505 C101 1.502 . S
C1529 C114 1.501 . S
C1537 C30 1.498 . S
C1561 C121 1.494 . S
C1569 C43 1.498 . S
C1593 C140 1.491 . S
C1601 C56 1.503 . S
C1625 C75 1.493 . S
C1633 C147 1.498 . S
C1657 C244 1.502 . S
C1665 C160 1.498 . S
C1689 C173 1.500 . S
C1697 C257 1.497 . S
C1721 C264 1.497 . S
C1729 C186 1.504 . S
C1753 C283 1.501 . S
C1761 C199 1.498 . S
C1785 C212 1.490 . S
C1793 C296 1.503 . S
C1817 C231 1.500 . S
C1825 C309 1.504 . S
