# Generated by pormake.
# Topology mer, (4)-cn, num edge types: 1
# Building blocks:
#     Node 0, Type 0, BuildingBlock: ESEHIV_clean_sbu_0, # of connection points: 4
#     Node 1, Type 0, BuildingBlock: ESEHIV_clean_sbu_0, # of connection points: 4
#     Node 2, Type 0, BuildingBlock: ESEHIV_clean_sbu_0, # of connection points: 4
#     Node 3, Type 0, BuildingBlock: ESEHIV_clean_sbu_0, # of connection points: 4
#     Node 4, Type 0, BuildingBlock: ESEHIV_clean_sbu_0, # of connection points: 4
#     Node 5, Type 0, BuildingBlock: ESEHIV_clean_sbu_0, # of connection points: 4
#     Node 6, Type 0, BuildingBlock: ESEHIV_clean_sbu_0, # of connection points: 4
#     Node 7, Type 0, BuildingBlock: ESEHIV_clean_sbu_0, # of connection points: 4
#     Node 8, Type 0, BuildingBlock: ESEHIV_clean_sbu_0, # of connection points: 4
#     Node 9, Type 0, BuildingBlock: ESEHIV_clean_sbu_0, # of connection points: 4
#     Node 10, Type 0, BuildingBlock: ESEHIV_clean_sbu_0, # of connection points: 4
#     Node 11, Type 0, BuildingBlock: ESEHIV_clean_sbu_0, # of connection points: 4
#     Node 12, Type 0, BuildingBlock: ESEHIV_clean_sbu_0, # of connection points: 4
#     Node 13, Type 0, BuildingBlock: ESEHIV_clean_sbu_0, # of connection points: 4
#     Node 14, Type 0, BuildingBlock: ESEHIV_clean_sbu_0, # of connection points: 4
#     Node 15, Type 0, BuildingBlock: ESEHIV_clean_sbu_0, # of connection points: 4
#     Node 16, Type 0, BuildingBlock: ESEHIV_clean_sbu_0, # of connection points: 4
#     Node 17, Type 0, BuildingBlock: ESEHIV_clean_sbu_0, # of connection points: 4
#     Node 18, Type 0, BuildingBlock: ESEHIV_clean_sbu_0, # of connection points: 4
#     Node 19, Type 0, BuildingBlock: ESEHIV_clean_sbu_0, # of connection points: 4
#     Node 20, Type 0, BuildingBlock: ESEHIV_clean_sbu_0, # of connection points: 4
#     Node 21, Type 0, BuildingBlock: ESEHIV_clean_sbu_0, # of connection points: 4
#     Node 22, Type 0, BuildingBlock: ESEHIV_clean_sbu_0, # of connection points: 4
#     Node 23, Type 0, BuildingBlock: ESEHIV_clean_sbu_0, # of connection points: 4
#     Node 24, Type 0, BuildingBlock: ESEHIV_clean_sbu_0, # of connection points: 4
#     Node 25, Type 0, BuildingBlock: ESEHIV_clean_sbu_0, # of connection points: 4
#     Node 26, Type 0, BuildingBlock: ESEHIV_clean_sbu_0, # of connection points: 4
#     Node 27, Type 0, BuildingBlock: ESEHIV_clean_sbu_0, # of connection points: 4
#     Node 28, Type 0, BuildingBlock: ESEHIV_clean_sbu_0, # of connection points: 4
#     Node 29, Type 0, BuildingBlock: ESEHIV_clean_sbu_0, # of connection points: 4
#     Node 30, Type 0, BuildingBlock: ESEHIV_clean_sbu_0, # of connection points: 4
#     Node 31, Type 0, BuildingBlock: ESEHIV_clean_sbu_0, # of connection points: 4
#     Edge 32, Type (0, 0), BuildingBlock: ZUJKAS_clean_linker_0, # of connection points: 2
#     Edge 33, Type (0, 0), BuildingBlock: ZUJKAS_clean_linker_0, # of connection points: 2
#     Edge 34, Type (0, 0), BuildingBlock: ZUJKAS_clean_linker_0, # of connection points: 2
#     Edge 35, Type (0, 0), BuildingBlock: ZUJKAS_clean_linker_0, # of connection points: 2
#     Edge 36, Type (0, 0), BuildingBlock: ZUJKAS_clean_linker_0, # of connection points: 2
#     Edge 37, Type (0, 0), BuildingBlock: ZUJKAS_clean_linker_0, # of connection points: 2
#     Edge 38, Type (0, 0), BuildingBlock: ZUJKAS_clean_linker_0, # of connection points: 2
#     Edge 39, Type (0, 0), BuildingBlock: ZUJKAS_clean_linker_0, # of connection points: 2
#     Edge 40, Type (0, 0), BuildingBlock: ZUJKAS_clean_linker_0, # of connection points: 2
#     Edge 41, Type (0, 0), BuildingBlock: ZUJKAS_clean_linker_0, # of connection points: 2
#     Edge 42, Type (0, 0), BuildingBlock: ZUJKAS_clean_linker_0, # of connection points: 2
#     Edge 43, Type (0, 0), BuildingBlock: ZUJKAS_clean_linker_0, # of connection points: 2
#     Edge 44, Type (0, 0), BuildingBlock: ZUJKAS_clean_linker_0, # of connection points: 2
#     Edge 45, Type (0, 0), BuildingBlock: ZUJKAS_clean_linker_0, # of connection points: 2
#     Edge 46, Type (0, 0), BuildingBlock: ZUJKAS_clean_linker_0, # of connection points: 2
#     Edge 47, Type (0, 0), BuildingBlock: ZUJKAS_clean_linker_0, # of connection points: 2
#     Edge 48, Type (0, 0), BuildingBlock: ZUJKAS_clean_linker_0, # of connection points: 2
#     Edge 49, Type (0, 0), BuildingBlock: ZUJKAS_clean_linker_0, # of connection points: 2
#     Edge 50, Type (0, 0), BuildingBlock: ZUJKAS_clean_linker_0, # of connection points: 2
#     Edge 51, Type (0, 0), BuildingBlock: ZUJKAS_clean_linker_0, # of connection points: 2
#     Edge 52, Type (0, 0), BuildingBlock: ZUJKAS_clean_linker_0, # of connection points: 2
#     Edge 53, Type (0, 0), BuildingBlock: ZUJKAS_clean_linker_0, # of connection points: 2
#     Edge 54, Type (0, 0), BuildingBlock: ZUJKAS_clean_linker_0, # of connection points: 2
#     Edge 55, Type (0, 0), BuildingBlock: ZUJKAS_clean_linker_0, # of connection points: 2
#     Edge 56, Type (0, 0), BuildingBlock: ZUJKAS_clean_linker_0, # of connection points: 2
#     Edge 57, Type (0, 0), BuildingBlock: ZUJKAS_clean_linker_0, # of connection points: 2
#     Edge 58, Type (0, 0), BuildingBlock: ZUJKAS_clean_linker_0, # of connection points: 2
#     Edge 59, Type (0, 0), BuildingBlock: ZUJKAS_clean_linker_0, # of connection points: 2
#     Edge 60, Type (0, 0), BuildingBlock: ZUJKAS_clean_linker_0, # of connection points: 2
#     Edge 61, Type (0, 0), BuildingBlock: ZUJKAS_clean_linker_0, # of connection points: 2
#     Edge 62, Type (0, 0), BuildingBlock: ZUJKAS_clean_linker_0, # of connection points: 2
#     Edge 63, Type (0, 0), BuildingBlock: ZUJKAS_clean_linker_0, # of connection points: 2
#     Edge 64, Type (0, 0), BuildingBlock: ZUJKAS_clean_linker_0, # of connection points: 2
#     Edge 65, Type (0, 0), BuildingBlock: ZUJKAS_clean_linker_0, # of connection points: 2
#     Edge 66, Type (0, 0), BuildingBlock: ZUJKAS_clean_linker_0, # of connection points: 2
#     Edge 67, Type (0, 0), BuildingBlock: ZUJKAS_clean_linker_0, # of connection points: 2
#     Edge 68, Type (0, 0), BuildingBlock: ZUJKAS_clean_linker_0, # of connection points: 2
#     Edge 69, Type (0, 0), BuildingBlock: ZUJKAS_clean_linker_0, # of connection points: 2
#     Edge 70, Type (0, 0), BuildingBlock: ZUJKAS_clean_linker_0, # of connection points: 2
#     Edge 71, Type (0, 0), BuildingBlock: ZUJKAS_clean_linker_0, # of connection points: 2
#     Edge 72, Type (0, 0), BuildingBlock: ZUJKAS_clean_linker_0, # of connection points: 2
#     Edge 73, Type (0, 0), BuildingBlock: ZUJKAS_clean_linker_0, # of connection points: 2
#     Edge 74, Type (0, 0), BuildingBlock: ZUJKAS_clean_linker_0, # of connection points: 2
#     Edge 75, Type (0, 0), BuildingBlock: ZUJKAS_clean_linker_0, # of connection points: 2
#     Edge 76, Type (0, 0), BuildingBlock: ZUJKAS_clean_linker_0, # of connection points: 2
#     Edge 77, Type (0, 0), BuildingBlock: ZUJKAS_clean_linker_0, # of connection points: 2
#     Edge 78, Type (0, 0), BuildingBlock: ZUJKAS_clean_linker_0, # of connection points: 2
#     Edge 79, Type (0, 0), BuildingBlock: ZUJKAS_clean_linker_0, # of connection points: 2
#     Edge 80, Type (0, 0), BuildingBlock: ZUJKAS_clean_linker_0, # of connection points: 2
#     Edge 81, Type (0, 0), BuildingBlock: ZUJKAS_clean_linker_0, # of connection points: 2
#     Edge 82, Type (0, 0), BuildingBlock: ZUJKAS_clean_linker_0, # of connection points: 2
#     Edge 83, Type (0, 0), BuildingBlock: ZUJKAS_clean_linker_0, # of connection points: 2
#     Edge 84, Type (0, 0), BuildingBlock: ZUJKAS_clean_linker_0, # of connection points: 2
#     Edge 85, Type (0, 0), BuildingBlock: ZUJKAS_clean_linker_0, # of connection points: 2
#     Edge 86, Type (0, 0), BuildingBlock: ZUJKAS_clean_linker_0, # of connection points: 2
#     Edge 87, Type (0, 0), BuildingBlock: ZUJKAS_clean_linker_0, # of connection points: 2
#     Edge 88, Type (0, 0), BuildingBlock: ZUJKAS_clean_linker_0, # of connection points: 2
#     Edge 89, Type (0, 0), BuildingBlock: ZUJKAS_clean_linker_0, # of connection points: 2
#     Edge 90, Type (0, 0), BuildingBlock: ZUJKAS_clean_linker_0, # of connection points: 2
#     Edge 91, Type (0, 0), BuildingBlock: ZUJKAS_clean_linker_0, # of connection points: 2
#     Edge 92, Type (0, 0), BuildingBlock: ZUJKAS_clean_linker_0, # of connection points: 2
#     Edge 93, Type (0, 0), BuildingBlock: ZUJKAS_clean_linker_0, # of connection points: 2
#     Edge 94, Type (0, 0), BuildingBlock: ZUJKAS_clean_linker_0, # of connection points: 2
#     Edge 95, Type (0, 0), BuildingBlock: ZUJKAS_clean_linker_0, # of connection points: 2
# Relax obj value: 0.083
# Max RMSD: 0.218
# Mean RMSD: 0.218
data_MOF--net-mer--node1-ESEHIV_clean_sbu_0--edge1-ZUJKAS_clean_linker_0
_symmetry_space_group_name_H-M    P1
_symmetry_Int_Tables_number       1
_symmetry_cell_setting            triclinic
loop_
_symmetry_equiv_pos_as_xyz
'x, y, z'
_cell_length_a     88.578663
_cell_length_b     88.503334
_cell_length_c     72.102622
_cell_angle_alpha  90.025439
_cell_angle_beta   90.103472
_cell_angle_gamma 90.03458
loop_
_atom_site_label
_atom_site_type_symbol
_atom_site_fract_x
_atom_site_fract_y
_atom_site_fract_z
_atom_type_partial_charge
Cu0 Cu 0.13749 0.30526 0.39281 0.0
N1 N 0.13931 0.28429 0.39271 0.0
N2 N 0.14958 0.26122 0.3931 0.0
C3 C 0.15221 0.27627 0.39285 0.0
C4 C 0.13439 0.2598 0.39311 0.0
C5 C 0.1281 0.27404 0.39289 0.0
O6 O 0.15085 0.31313 0.37364 0.0
C7 C 0.13604 0.32342 0.42574 0.0
O8 O 0.12675 0.33197 0.41617 0.0
H9 H 0.16329 0.28144 0.39265 0.0
H10 H 0.1162 0.27673 0.39302 0.0
N11 N 0.11769 0.31028 0.3863 0.0
N12 N 0.09265 0.31338 0.38664 0.0
C13 C 0.1049 0.30864 0.39623 0.0
C14 C 0.11335 0.31605 0.36988 0.0
C15 C 0.09797 0.31803 0.37007 0.0
C16 C 0.15121 0.32696 0.36882 0.0
O17 O 0.14346 0.33689 0.37844 0.0
H18 H 0.10463 0.30414 0.41018 0.0
H19 H 0.12084 0.31846 0.35844 0.0
O20 O 0.14226 0.31214 0.41786 0.0
H21 H 0.12822 0.24926 0.39363 0.0
H22 H 0.09118 0.32222 0.35869 0.0
Cu23 Cu 0.71464 0.13381 0.3982 0.0
N24 N 0.73536 0.13733 0.39871 0.0
N25 N 0.75765 0.14916 0.39912 0.0
C26 C 0.74249 0.15076 0.39823 0.0
C27 C 0.76008 0.13412 0.40015 0.0
C28 C 0.74632 0.12687 0.39989 0.0
O29 O 0.70592 0.14679 0.37922 0.0
C30 C 0.69553 0.13135 0.43022 0.0
O31 O 0.68753 0.12185 0.42022 0.0
H32 H 0.73663 0.16147 0.39754 0.0
H33 H 0.74442 0.1148 0.40052 0.0
N34 N 0.7116 0.11375 0.39109 0.0
N35 N 0.71128 0.08851 0.3906 0.0
C36 C 0.71287 0.101 0.40123 0.0
C37 C 0.70914 0.10914 0.37357 0.0
C38 C 0.70888 0.09363 0.37322 0.0
C39 C 0.69268 0.14472 0.37281 0.0
O40 O 0.68398 0.13448 0.38055 0.0
H41 H 0.71551 0.1009 0.4159 0.0
H42 H 0.70802 0.11658 0.36175 0.0
O43 O 0.70695 0.1378 0.423 0.0
H44 H 0.77101 0.12869 0.40081 0.0
H45 H 0.7072 0.08665 0.36106 0.0
Cu46 Cu 0.87893 0.70122 0.39467 0.0
N47 N 0.87515 0.72179 0.39808 0.0
N48 N 0.86329 0.74401 0.40045 0.0
C49 C 0.86176 0.729 0.39746 0.0
C50 C 0.87823 0.74624 0.40305 0.0
C51 C 0.88549 0.73255 0.40158 0.0
O52 O 0.86576 0.69303 0.37532 0.0
C53 C 0.86592 0.6928 0.42924 0.0
O54 O 0.85402 0.7001 0.42308 0.0
H55 H 0.85115 0.72329 0.39495 0.0
H56 H 0.89749 0.73059 0.40285 0.0
N57 N 0.89873 0.69886 0.38643 0.0
N58 N 0.92393 0.69775 0.38565 0.0
C59 C 0.91163 0.7007 0.39612 0.0
C60 C 0.903 0.69461 0.36932 0.0
C61 C 0.91849 0.69393 0.36878 0.0
C62 C 0.86415 0.70079 0.36053 0.0
O63 O 0.87056 0.71416 0.35961 0.0
H64 H 0.91194 0.70393 0.4106 0.0
H65 H 0.89537 0.69213 0.358 0.0
O66 O 0.8773 0.69126 0.41866 0.0
H67 H 0.88363 0.75704 0.40547 0.0
H68 H 0.92523 0.69103 0.35679 0.0
Cu69 Cu 0.30489 0.87868 0.39407 0.0
N70 N 0.28422 0.87488 0.39364 0.0
N71 N 0.2619 0.8631 0.39406 0.0
C72 C 0.27708 0.86145 0.39431 0.0
C73 C 0.2595 0.87816 0.39324 0.0
C74 C 0.27326 0.88536 0.39299 0.0
O75 O 0.31443 0.86572 0.37559 0.0
C76 C 0.32258 0.88176 0.42765 0.0
O77 O 0.33091 0.89148 0.41845 0.0
H78 H 0.28294 0.85074 0.39486 0.0
H79 H 0.27515 0.89743 0.39257 0.0
N80 N 0.30742 0.89869 0.38646 0.0
N81 N 0.30719 0.92388 0.38505 0.0
C82 C 0.30727 0.91167 0.39631 0.0
C83 C 0.30745 0.9029 0.36854 0.0
C84 C 0.30733 0.91839 0.36761 0.0
C85 C 0.32739 0.86884 0.36897 0.0
O86 O 0.33516 0.87998 0.37635 0.0
H87 H 0.30649 0.91217 0.41128 0.0
H88 H 0.30703 0.89517 0.35692 0.0
O89 O 0.31175 0.87508 0.41941 0.0
H90 H 0.24858 0.88364 0.39322 0.0
H91 H 0.30714 0.92514 0.35509 0.0
Cu92 Cu 0.12802 0.71734 0.66461 0.0
N93 N 0.13356 0.73758 0.66259 0.0
N94 N 0.14726 0.75879 0.66136 0.0
C95 C 0.14752 0.7436 0.66344 0.0
C96 C 0.13253 0.76237 0.65919 0.0
C97 C 0.12414 0.74929 0.65995 0.0
O98 O 0.14096 0.7077 0.68296 0.0
C99 C 0.14149 0.70766 0.63128 0.0
O100 O 0.15389 0.71226 0.63958 0.0
H101 H 0.15762 0.73692 0.66532 0.0
H102 H 0.112 0.74835 0.65875 0.0
N103 N 0.10832 0.71665 0.67362 0.0
N104 N 0.08329 0.71432 0.67618 0.0
C105 C 0.09528 0.71385 0.66458 0.0
C106 C 0.10447 0.71905 0.6914 0.0
C107 C 0.08908 0.7176 0.69304 0.0
C108 C 0.13688 0.69549 0.69083 0.0
O109 O 0.12469 0.68855 0.68484 0.0
H110 H 0.09464 0.71143 0.64989 0.0
H111 H 0.11236 0.72172 0.70239 0.0
O112 O 0.12908 0.7082 0.64011 0.0
H113 H 0.12805 0.77365 0.65746 0.0
H114 H 0.08264 0.71917 0.70563 0.0
Cu115 Cu 0.29777 0.1273 0.66774 0.0
N116 N 0.27751 0.13273 0.66604 0.0
N117 N 0.25617 0.14616 0.6654 0.0
C118 C 0.27134 0.14658 0.66759 0.0
C119 C 0.25277 0.13149 0.66238 0.0
C120 C 0.26594 0.12326 0.66277 0.0
O121 O 0.30759 0.1399 0.68638 0.0
C122 C 0.30639 0.14119 0.63424 0.0
O123 O 0.30144 0.15337 0.64268 0.0
H124 H 0.27783 0.15669 0.6704 0.0
H125 H 0.26706 0.11121 0.66069 0.0
N126 N 0.29845 0.10744 0.67628 0.0
N127 N 0.30003 0.08229 0.67815 0.0
C128 C 0.30067 0.09448 0.66685 0.0
C129 C 0.29624 0.10335 0.69401 0.0
C130 C 0.29723 0.08789 0.69523 0.0
C131 C 0.32002 0.13578 0.69369 0.0
O132 O 0.32699 0.12391 0.6869 0.0
H133 H 0.30278 0.09404 0.65208 0.0
H134 H 0.29393 0.11112 0.70524 0.0
O135 O 0.30659 0.12874 0.64308 0.0
H136 H 0.24159 0.12704 0.65971 0.0
H137 H 0.29566 0.08128 0.7077 0.0
Cu138 Cu 0.88676 0.296 0.65866 0.0
N139 N 0.87768 0.27755 0.65331 0.0
N140 N 0.86152 0.25824 0.65135 0.0
C141 C 0.86441 0.27184 0.65916 0.0
C142 C 0.87346 0.25534 0.6403 0.0
C143 C 0.88338 0.26725 0.64155 0.0
O144 O 0.8764 0.30588 0.67921 0.0
C145 C 0.8745 0.30925 0.62677 0.0
O146 O 0.86184 0.3048 0.63451 0.0
H147 H 0.8569 0.27769 0.66857 0.0
H148 H 0.89399 0.26843 0.63429 0.0
N149 N 0.90645 0.29173 0.66606 0.0
N150 N 0.93159 0.29009 0.66753 0.0
C151 C 0.91963 0.29595 0.65831 0.0
C152 C 0.91016 0.283 0.68061 0.0
C153 C 0.92562 0.28197 0.68158 0.0
C154 C 0.8832 0.31595 0.68872 0.0
O155 O 0.89666 0.32043 0.68339 0.0
H156 H 0.92041 0.30295 0.64605 0.0
H157 H 0.90211 0.27775 0.68985 0.0
O158 O 0.8868 0.30751 0.63568 0.0
H159 H 0.87499 0.24527 0.632 0.0
H160 H 0.93197 0.27588 0.69201 0.0
Cu161 Cu 0.71331 0.8872 0.66624 0.0
N162 N 0.73328 0.88087 0.66718 0.0
N163 N 0.75358 0.86611 0.66976 0.0
C164 C 0.73836 0.86677 0.6703 0.0
C165 C 0.7582 0.88036 0.6662 0.0
C166 C 0.74563 0.88944 0.66464 0.0
O167 O 0.70214 0.87493 0.68391 0.0
C168 C 0.69536 0.89152 0.63315 0.0
O169 O 0.68665 0.90025 0.64327 0.0
H170 H 0.731 0.85718 0.67252 0.0
H171 H 0.74548 0.90144 0.6618 0.0
N172 N 0.71291 0.90722 0.67427 0.0
N173 N 0.71235 0.93243 0.67572 0.0
C174 C 0.71179 0.92017 0.66452 0.0
C175 C 0.71445 0.91142 0.69208 0.0
C176 C 0.71407 0.92691 0.69305 0.0
C177 C 0.69036 0.87968 0.69214 0.0
O178 O 0.68436 0.89258 0.68696 0.0
H179 H 0.71053 0.92057 0.6496 0.0
H180 H 0.71589 0.90368 0.70356 0.0
O181 O 0.70657 0.88493 0.64066 0.0
H182 H 0.76982 0.88399 0.66491 0.0
H183 H 0.71528 0.93357 0.70555 0.0
Cu184 Cu 0.87951 0.70576 0.65722 0.0
N185 N 0.86698 0.72177 0.65049 0.0
N186 N 0.85019 0.74057 0.65029 0.0
C187 C 0.85687 0.72965 0.66054 0.0
C188 C 0.85649 0.73955 0.6333 0.0
C189 C 0.86683 0.72801 0.63351 0.0
O190 O 0.87259 0.69603 0.68002 0.0
C191 C 0.86891 0.68939 0.6264 0.0
O192 O 0.85574 0.69304 0.63343 0.0
H193 H 0.85442 0.72736 0.67497 0.0
H194 H 0.87386 0.72441 0.62207 0.0
N195 N 0.89842 0.71408 0.66208 0.0
N196 N 0.9233 0.71789 0.66451 0.0
C197 C 0.91227 0.70841 0.65869 0.0
C198 C 0.90075 0.72756 0.67019 0.0
C199 C 0.91603 0.72995 0.6717 0.0
C200 C 0.8589 0.6932 0.68411 0.0
O201 O 0.84826 0.69591 0.67184 0.0
H202 H 0.91418 0.69748 0.65237 0.0
H203 H 0.89188 0.73513 0.67466 0.0
O204 O 0.88082 0.69263 0.63553 0.0
H205 H 0.85405 0.74682 0.62162 0.0
H206 H 0.92137 0.73992 0.67746 0.0
Cu207 Cu 0.31161 0.87921 0.66123 0.0
N208 N 0.29061 0.87746 0.66205 0.0
N209 N 0.26771 0.86684 0.66264 0.0
C210 C 0.28275 0.86443 0.66169 0.0
C211 C 0.26609 0.88198 0.66365 0.0
C212 C 0.28022 0.8885 0.66334 0.0
O213 O 0.32005 0.86684 0.68122 0.0
C214 C 0.32805 0.87991 0.62705 0.0
O215 O 0.33624 0.89037 0.6352 0.0
H216 H 0.28801 0.85343 0.66061 0.0
H217 H 0.28271 0.90043 0.66421 0.0
N218 N 0.31747 0.89915 0.6659 0.0
N219 N 0.3197 0.9243 0.66523 0.0
C220 C 0.31255 0.91209 0.6581 0.0
C221 C 0.32807 0.9033 0.67825 0.0
C222 C 0.32947 0.91876 0.6779 0.0
C223 C 0.31404 0.86853 0.69716 0.0
O224 O 0.30261 0.87789 0.69882 0.0
H225 H 0.30404 0.91253 0.64734 0.0
H226 H 0.33431 0.89558 0.687 0.0
O227 O 0.31779 0.8732 0.63629 0.0
H228 H 0.25547 0.88793 0.66489 0.0
H229 H 0.33686 0.92542 0.68665 0.0
Cu230 Cu 0.13469 0.30919 0.65877 0.0
N231 N 0.13637 0.28822 0.65912 0.0
N232 N 0.14707 0.26537 0.66022 0.0
C233 C 0.14938 0.28047 0.66044 0.0
C234 C 0.13196 0.26363 0.65872 0.0
C235 C 0.1254 0.27775 0.65803 0.0
O236 O 0.14819 0.31661 0.67806 0.0
C237 C 0.1333 0.32632 0.62499 0.0
O238 O 0.12302 0.33443 0.63353 0.0
H239 H 0.16029 0.28586 0.66175 0.0
H240 H 0.11348 0.28018 0.65675 0.0
N241 N 0.11498 0.31477 0.66508 0.0
N242 N 0.08984 0.31702 0.6657 0.0
C243 C 0.10187 0.31131 0.65652 0.0
C244 C 0.11109 0.32282 0.68015 0.0
C245 C 0.09566 0.32427 0.68054 0.0
C246 C 0.14979 0.33042 0.68257 0.0
O247 O 0.14327 0.3409 0.67245 0.0
H248 H 0.10118 0.30468 0.64393 0.0
H249 H 0.11889 0.32705 0.69045 0.0
O250 O 0.13996 0.31577 0.63379 0.0
H251 H 0.12606 0.25295 0.65788 0.0
H252 H 0.0892 0.32976 0.69134 0.0
Cu253 Cu 0.7006 0.13496 0.66233 0.0
N254 N 0.72148 0.13738 0.66388 0.0
N255 N 0.74386 0.14896 0.66551 0.0
C256 C 0.72883 0.15067 0.66315 0.0
C257 C 0.746 0.13396 0.66776 0.0
C258 C 0.73217 0.12686 0.66679 0.0
O259 O 0.69151 0.1467 0.68233 0.0
C260 C 0.68377 0.13501 0.62853 0.0
O261 O 0.6751 0.12516 0.637 0.0
H262 H 0.72318 0.16135 0.66092 0.0
H263 H 0.73004 0.11491 0.66848 0.0
N264 N 0.6953 0.11481 0.66618 0.0
N265 N 0.69374 0.08966 0.66433 0.0
C266 C 0.70077 0.10223 0.65807 0.0
C267 C 0.68449 0.11006 0.67787 0.0
C268 C 0.6835 0.09459 0.67679 0.0
C269 C 0.69722 0.14468 0.69839 0.0
O270 O 0.70867 0.13535 0.70009 0.0
H271 H 0.70957 0.10233 0.64768 0.0
H272 H 0.67778 0.11738 0.68659 0.0
O273 O 0.69457 0.14116 0.63746 0.0
H274 H 0.75673 0.12852 0.67038 0.0
H275 H 0.67603 0.0875 0.68485 0.0
Cu276 Cu 0.8895 0.30501 0.39483 0.0
N277 N 0.8856 0.28437 0.39712 0.0
N278 N 0.87321 0.2624 0.39881 0.0
C279 C 0.87202 0.27754 0.39682 0.0
C280 C 0.88816 0.25967 0.40045 0.0
C281 C 0.89576 0.27324 0.3994 0.0
O282 O 0.8764 0.31371 0.37575 0.0
C283 C 0.87498 0.31347 0.42831 0.0
O284 O 0.86289 0.30802 0.4201 0.0
H285 H 0.86149 0.2836 0.39527 0.0
H286 H 0.90784 0.27487 0.40014 0.0
N287 N 0.90933 0.30784 0.38684 0.0
N288 N 0.93445 0.31005 0.38606 0.0
C289 C 0.92231 0.3064 0.39649 0.0
C290 C 0.91341 0.31248 0.36981 0.0
C291 C 0.92885 0.31384 0.36927 0.0
C292 C 0.87461 0.30623 0.36077 0.0
O293 O 0.8808 0.29279 0.35943 0.0
H294 H 0.92279 0.30306 0.41092 0.0
H295 H 0.90568 0.31486 0.35858 0.0
O296 O 0.88731 0.31403 0.41931 0.0
H297 H 0.8933 0.24865 0.40198 0.0
H298 H 0.93545 0.31726 0.35737 0.0
Cu299 Cu 0.71546 0.8855 0.40166 0.0
N300 N 0.73553 0.87929 0.40177 0.0
N301 N 0.7562 0.86485 0.40192 0.0
C302 C 0.74095 0.86509 0.40116 0.0
C303 C 0.76045 0.87948 0.40299 0.0
C304 C 0.74769 0.88834 0.40288 0.0
O305 O 0.70472 0.87354 0.38316 0.0
C306 C 0.69706 0.8905 0.43405 0.0
O307 O 0.68927 0.89993 0.42373 0.0
H308 H 0.73383 0.85516 0.40052 0.0
H309 H 0.74728 0.90054 0.40362 0.0
N310 N 0.7152 0.90564 0.39395 0.0
N311 N 0.71638 0.93084 0.39299 0.0
C312 C 0.71564 0.91849 0.404 0.0
C313 C 0.71573 0.91001 0.37611 0.0
C314 C 0.7164 0.9255 0.37545 0.0
C315 C 0.6926 0.87828 0.37562 0.0
O316 O 0.68621 0.89057 0.38214 0.0
H317 H 0.71587 0.91877 0.41901 0.0
H318 H 0.71582 0.90238 0.36438 0.0
O319 O 0.70792 0.88315 0.42685 0.0
H320 H 0.77197 0.88354 0.40359 0.0
H321 H 0.71682 0.9323 0.363 0.0
Cu322 Cu 0.12681 0.71075 0.39928 0.0
N323 N 0.13093 0.73135 0.40142 0.0
N324 N 0.14365 0.75313 0.4027 0.0
C325 C 0.14463 0.73793 0.40147 0.0
C326 C 0.12872 0.75617 0.40355 0.0
C327 C 0.12091 0.7427 0.4028 0.0
O328 O 0.13991 0.70174 0.38051 0.0
C329 C 0.14134 0.70209 0.43258 0.0
O330 O 0.15351 0.70687 0.42399 0.0
H331 H 0.15507 0.7317 0.40003 0.0
H332 H 0.10879 0.74128 0.40308 0.0
N333 N 0.10706 0.70808 0.39088 0.0
N334 N 0.08204 0.70513 0.38957 0.0
C335 C 0.09402 0.70847 0.40049 0.0
C336 C 0.10317 0.70449 0.37338 0.0
C337 C 0.08779 0.70267 0.37252 0.0
C338 C 0.14237 0.70923 0.3657 0.0
O339 O 0.13692 0.72299 0.36434 0.0
H340 H 0.09337 0.71077 0.41521 0.0
H341 H 0.111 0.70309 0.36204 0.0
O342 O 0.12884 0.70194 0.42386 0.0
H343 H 0.12378 0.76731 0.40472 0.0
H344 H 0.08133 0.69979 0.36026 0.0
Cu345 Cu 0.3027 0.12806 0.40089 0.0
N346 N 0.28189 0.13095 0.40167 0.0
N347 N 0.25959 0.14273 0.40116 0.0
C348 C 0.27472 0.14426 0.3998 0.0
C349 C 0.25719 0.12783 0.40393 0.0
C350 C 0.27099 0.1206 0.40427 0.0
O351 O 0.31069 0.14224 0.38274 0.0
C352 C 0.30875 0.14262 0.43513 0.0
O353 O 0.30242 0.15428 0.42697 0.0
H354 H 0.28052 0.15482 0.39729 0.0
H355 H 0.27295 0.10866 0.40637 0.0
N356 N 0.30693 0.10857 0.39243 0.0
N357 N 0.31088 0.0837 0.3911 0.0
C358 C 0.30576 0.0953 0.40152 0.0
C359 C 0.31275 0.10515 0.37571 0.0
C360 C 0.31529 0.08984 0.3749 0.0
C361 C 0.32437 0.1423 0.37739 0.0
O362 O 0.33423 0.13376 0.3861 0.0
H363 H 0.30158 0.09421 0.41556 0.0
H364 H 0.3151 0.11325 0.36487 0.0
O365 O 0.31067 0.13052 0.42589 0.0
H366 H 0.24629 0.12255 0.4059 0.0
H367 H 0.31989 0.08366 0.36325 0.0
Cu368 Cu 0.63429 0.81175 0.90205 0.0
N369 N 0.63667 0.7908 0.90127 0.0
N370 N 0.64811 0.76834 0.89967 0.0
C371 C 0.64996 0.78348 0.90026 0.0
C372 C 0.63304 0.76608 0.90033 0.0
C373 C 0.62601 0.77996 0.90126 0.0
O374 O 0.64611 0.82038 0.88183 0.0
C375 C 0.63406 0.82885 0.93574 0.0
O376 O 0.62345 0.83683 0.92761 0.0
H377 H 0.66076 0.78919 0.90011 0.0
H378 H 0.61399 0.78196 0.90169 0.0
N379 N 0.61422 0.8172 0.89762 0.0
N380 N 0.58906 0.81903 0.89821 0.0
C381 C 0.60135 0.81202 0.90532 0.0
C382 C 0.60993 0.82782 0.88539 0.0
C383 C 0.59447 0.82896 0.88568 0.0
C384 C 0.64408 0.81438 0.86593 0.0
O385 O 0.63484 0.80281 0.86456 0.0
H386 H 0.60102 0.80344 0.91599 0.0
H387 H 0.61756 0.83424 0.87674 0.0
O388 O 0.64058 0.81836 0.92669 0.0
H389 H 0.62746 0.75521 0.89982 0.0
H390 H 0.58774 0.8363 0.87696 0.0
Cu391 Cu 0.20127 0.63551 0.90091 0.0
N392 N 0.22226 0.63725 0.90116 0.0
N393 N 0.24518 0.6478 0.9011 0.0
C394 C 0.23013 0.65026 0.90094 0.0
C395 C 0.24679 0.63263 0.90145 0.0
C396 C 0.23263 0.62616 0.90145 0.0
O397 O 0.19334 0.64811 0.8809 0.0
C398 C 0.18307 0.6349 0.9336 0.0
O399 O 0.1747 0.62524 0.92433 0.0
H400 H 0.22488 0.66129 0.90082 0.0
H401 H 0.23011 0.61421 0.9015 0.0
N402 N 0.19564 0.61566 0.89551 0.0
N403 N 0.19313 0.59052 0.89592 0.0
C404 C 0.19951 0.60271 0.90414 0.0
C405 C 0.18649 0.61155 0.8815 0.0
C406 C 0.18495 0.59611 0.88167 0.0
C407 C 0.19996 0.64706 0.86526 0.0
O408 O 0.21184 0.63825 0.86388 0.0
H409 H 0.20678 0.60228 0.9162 0.0
H410 H 0.18139 0.61928 0.87171 0.0
O411 O 0.19424 0.64114 0.92556 0.0
H412 H 0.25743 0.62662 0.90138 0.0
H413 H 0.1786 0.58952 0.87171 0.0
Cu414 Cu 0.37928 0.20531 0.90074 0.0
N415 N 0.37279 0.2252 0.90294 0.0
N416 N 0.35894 0.24623 0.90127 0.0
C417 C 0.3596 0.23129 0.89742 0.0
C418 C 0.37222 0.24957 0.90954 0.0
C419 C 0.38072 0.23658 0.91055 0.0
O420 O 0.36682 0.19514 0.88224 0.0
C421 C 0.36686 0.19718 0.93511 0.0
O422 O 0.35459 0.20279 0.9275 0.0
H423 H 0.35077 0.22492 0.89057 0.0
H424 H 0.39189 0.23546 0.91646 0.0
N425 N 0.39896 0.20597 0.8917 0.0
N426 N 0.42401 0.20808 0.88947 0.0
C427 C 0.41216 0.20617 0.90104 0.0
C428 C 0.40259 0.20777 0.87374 0.0
C429 C 0.418 0.20904 0.8723 0.0
C430 C 0.3714 0.18318 0.87419 0.0
O431 O 0.3838 0.17666 0.8802 0.0
H432 H 0.41301 0.20549 0.916 0.0
H433 H 0.3945 0.2084 0.8625 0.0
O434 O 0.3788 0.19629 0.92538 0.0
H435 H 0.3755 0.26055 0.91478 0.0
H436 H 0.4243 0.21061 0.8596 0.0
Cu437 Cu 0.81344 0.3785 0.89336 0.0
N438 N 0.79258 0.37601 0.89253 0.0
N439 N 0.76985 0.365 0.89232 0.0
C440 C 0.78497 0.36284 0.89231 0.0
C441 C 0.76798 0.38015 0.89256 0.0
C442 C 0.782 0.38689 0.8927 0.0
O443 O 0.8221 0.36507 0.87477 0.0
C444 C 0.83009 0.38109 0.92749 0.0
O445 O 0.83829 0.39117 0.91871 0.0
H446 H 0.79048 0.35194 0.89211 0.0
H447 H 0.78431 0.39889 0.89314 0.0
N448 N 0.81796 0.39845 0.88681 0.0
N449 N 0.81974 0.42366 0.88682 0.0
C450 C 0.81549 0.41127 0.89647 0.0
C451 C 0.82376 0.40291 0.87048 0.0
C452 C 0.82494 0.41839 0.87047 0.0
C453 C 0.83586 0.36566 0.86979 0.0
O454 O 0.84519 0.37454 0.87889 0.0
H455 H 0.81061 0.41147 0.91022 0.0
H456 H 0.8266 0.39543 0.85915 0.0
O457 O 0.81974 0.37408 0.91873 0.0
H458 H 0.75727 0.386 0.89305 0.0
H459 H 0.82882 0.42525 0.859 0.0
Cu460 Cu 0.63187 0.21005 0.16401 0.0
N461 N 0.63613 0.23059 0.16136 0.0
N462 N 0.64873 0.25242 0.15944 0.0
C463 C 0.64977 0.2373 0.16175 0.0
C464 C 0.63382 0.25525 0.15749 0.0
C465 C 0.6261 0.24177 0.15868 0.0
O466 O 0.64487 0.20114 0.18302 0.0
C467 C 0.64537 0.20198 0.12979 0.0
O468 O 0.65742 0.20839 0.13698 0.0
H469 H 0.66023 0.23117 0.16362 0.0
H470 H 0.61401 0.24021 0.15777 0.0
N471 N 0.61203 0.20788 0.1722 0.0
N472 N 0.58699 0.20495 0.17283 0.0
C473 C 0.59925 0.20725 0.16204 0.0
C474 C 0.60771 0.20601 0.18992 0.0
C475 C 0.5923 0.20421 0.19036 0.0
C476 C 0.64735 0.20872 0.19776 0.0
O477 O 0.64193 0.2225 0.19898 0.0
H478 H 0.59901 0.20813 0.14707 0.0
H479 H 0.61524 0.20582 0.20172 0.0
O480 O 0.63356 0.20071 0.13968 0.0
H481 H 0.62879 0.26629 0.15567 0.0
H482 H 0.58553 0.20258 0.20268 0.0
Cu483 Cu 0.7975 0.62915 0.15777 0.0
N484 N 0.77731 0.63466 0.15539 0.0
N485 N 0.75598 0.64816 0.15531 0.0
C486 C 0.77106 0.64832 0.1583 0.0
C487 C 0.75271 0.63379 0.15038 0.0
C488 C 0.76587 0.62552 0.15045 0.0
O489 O 0.80689 0.64217 0.1763 0.0
C490 C 0.80547 0.64156 0.12307 0.0
O491 O 0.79891 0.65365 0.12987 0.0
H492 H 0.77752 0.65818 0.16231 0.0
H493 H 0.76704 0.61364 0.14722 0.0
N494 N 0.79802 0.60945 0.16682 0.0
N495 N 0.79835 0.58426 0.16892 0.0
C496 C 0.79888 0.59632 0.15741 0.0
C497 C 0.79691 0.6056 0.1848 0.0
C498 C 0.79716 0.59012 0.18615 0.0
C499 C 0.8192 0.63853 0.18427 0.0
O500 O 0.82664 0.62666 0.17826 0.0
H501 H 0.79954 0.59565 0.14244 0.0
H502 H 0.79592 0.61356 0.19612 0.0
O503 O 0.80682 0.62993 0.13333 0.0
H504 H 0.74158 0.62944 0.14723 0.0
H505 H 0.79662 0.5837 0.19891 0.0
Cu506 Cu 0.38683 0.79472 0.16387 0.0
N507 N 0.38022 0.77485 0.16129 0.0
N508 N 0.36588 0.75409 0.1599 0.0
C509 C 0.36617 0.76917 0.16301 0.0
C510 C 0.38031 0.75024 0.15618 0.0
C511 C 0.38909 0.76304 0.15703 0.0
O512 O 0.37462 0.80492 0.18257 0.0
C513 C 0.37409 0.80466 0.13022 0.0
O514 O 0.3615 0.80036 0.13827 0.0
H515 H 0.3564 0.77601 0.16621 0.0
H516 H 0.40114 0.76373 0.15475 0.0
N517 N 0.40657 0.7937 0.17276 0.0
N518 N 0.4317 0.79398 0.17525 0.0
C519 C 0.41969 0.79717 0.16432 0.0
C520 C 0.41038 0.78824 0.1895 0.0
C521 C 0.42584 0.7884 0.19111 0.0
C522 C 0.37977 0.81644 0.19111 0.0
O523 O 0.39266 0.8223 0.18568 0.0
H524 H 0.42042 0.80161 0.15036 0.0
H525 H 0.40241 0.78429 0.19977 0.0
O526 O 0.38636 0.80404 0.13941 0.0
H527 H 0.38434 0.73894 0.1533 0.0
H528 H 0.43226 0.78482 0.20311 0.0
Cu529 Cu 0.21271 0.38283 0.15533 0.0
N530 N 0.22869 0.37015 0.1489 0.0
N531 N 0.24708 0.35287 0.14854 0.0
C532 C 0.2363 0.35971 0.15883 0.0
C533 C 0.2463 0.35945 0.13167 0.0
C534 C 0.23501 0.37006 0.13197 0.0
O535 O 0.20305 0.37677 0.17852 0.0
C536 C 0.19608 0.37153 0.12491 0.0
O537 O 0.19985 0.3584 0.13201 0.0
H538 H 0.23386 0.35708 0.17317 0.0
H539 H 0.23158 0.37727 0.12061 0.0
N540 N 0.22076 0.4021 0.15854 0.0
N541 N 0.22333 0.42721 0.15918 0.0
C542 C 0.21369 0.41551 0.15684 0.0
C543 C 0.23529 0.40541 0.16215 0.0
C544 C 0.23692 0.42088 0.16254 0.0
C545 C 0.20038 0.36319 0.18337 0.0
O546 O 0.20336 0.35215 0.17177 0.0
H547 H 0.20183 0.41663 0.15352 0.0
H548 H 0.24411 0.39712 0.16417 0.0
O549 O 0.19932 0.38351 0.13387 0.0
H550 H 0.25351 0.35695 0.11997 0.0
H551 H 0.24729 0.42698 0.16524 0.0
Cu552 Cu 0.38432 0.20463 0.16873 0.0
N553 N 0.37876 0.22498 0.16878 0.0
N554 N 0.36545 0.24641 0.16993 0.0
C555 C 0.36511 0.23122 0.17182 0.0
C556 C 0.37988 0.24982 0.16567 0.0
C557 C 0.38804 0.2366 0.165 0.0
O558 O 0.37435 0.19373 0.18877 0.0
C559 C 0.36982 0.19883 0.13426 0.0
O560 O 0.35853 0.20612 0.14191 0.0
H561 H 0.35505 0.22477 0.17474 0.0
H562 H 0.39991 0.2355 0.16176 0.0
N563 N 0.40468 0.20383 0.17507 0.0
N564 N 0.42983 0.20224 0.17465 0.0
C565 C 0.41709 0.20295 0.16431 0.0
C566 C 0.40973 0.2038 0.19265 0.0
C567 C 0.4252 0.20282 0.19246 0.0
C568 C 0.36038 0.19199 0.19231 0.0
O569 O 0.3502 0.19689 0.18052 0.0
H570 H 0.41676 0.20261 0.14931 0.0
H571 H 0.40259 0.20444 0.20479 0.0
O572 O 0.38163 0.19627 0.14387 0.0
H573 H 0.38425 0.26106 0.16318 0.0
H574 H 0.43249 0.20273 0.20453 0.0
Cu575 Cu 0.80741 0.38078 0.16011 0.0
N576 N 0.78669 0.37728 0.16 0.0
N577 N 0.76441 0.36544 0.15979 0.0
C578 C 0.77958 0.36384 0.16043 0.0
C579 C 0.76196 0.38048 0.15895 0.0
C580 C 0.77571 0.38774 0.15909 0.0
O581 O 0.81631 0.36759 0.17878 0.0
C582 C 0.82514 0.38411 0.12684 0.0
O583 O 0.83282 0.3944 0.13601 0.0
H584 H 0.78545 0.35312 0.16088 0.0
H585 H 0.77759 0.39981 0.15854 0.0
N586 N 0.81048 0.40078 0.16756 0.0
N587 N 0.81002 0.42599 0.16887 0.0
C588 C 0.80859 0.41369 0.15788 0.0
C589 C 0.81318 0.4051 0.18514 0.0
C590 C 0.81296 0.4206 0.18599 0.0
C591 C 0.82957 0.36963 0.18515 0.0
O592 O 0.83824 0.37991 0.17746 0.0
H593 H 0.8055 0.41404 0.14335 0.0
H594 H 0.81466 0.39746 0.19671 0.0
O595 O 0.81462 0.37693 0.13502 0.0
H596 H 0.75101 0.3859 0.15849 0.0
H597 H 0.81457 0.42738 0.19833 0.0
Cu598 Cu 0.63475 0.81092 0.16838 0.0
N599 N 0.63646 0.78996 0.16893 0.0
N600 N 0.64693 0.767 0.16872 0.0
C601 C 0.64943 0.78205 0.169 0.0
C602 C 0.63176 0.76542 0.16848 0.0
C603 C 0.62534 0.77961 0.16864 0.0
O604 O 0.6481 0.81884 0.18755 0.0
C605 C 0.63375 0.82808 0.13462 0.0
O606 O 0.62355 0.83634 0.14308 0.0
H607 H 0.66048 0.78729 0.16882 0.0
H608 H 0.61341 0.78218 0.16843 0.0
N609 N 0.61493 0.81645 0.17428 0.0
N610 N 0.58986 0.8193 0.17382 0.0
C611 C 0.602 0.81339 0.16509 0.0
C612 C 0.61076 0.82436 0.18937 0.0
C613 C 0.59536 0.8262 0.18907 0.0
C614 C 0.64887 0.83278 0.1918 0.0
O615 O 0.64157 0.84268 0.1816 0.0
H616 H 0.60151 0.807 0.15229 0.0
H617 H 0.61834 0.82831 0.20008 0.0
O618 O 0.64017 0.81739 0.14342 0.0
H619 H 0.62573 0.75478 0.16831 0.0
H620 H 0.58868 0.83179 0.19959 0.0
Cu621 Cu 0.20397 0.6308 0.16553 0.0
N622 N 0.22485 0.63307 0.16562 0.0
N623 N 0.24741 0.64435 0.16543 0.0
C624 C 0.23231 0.6463 0.16631 0.0
C625 C 0.24949 0.62927 0.16415 0.0
C626 C 0.23554 0.62233 0.1643 0.0
O627 O 0.19616 0.6445 0.18427 0.0
C628 C 0.18601 0.62915 0.13238 0.0
O629 O 0.17779 0.61929 0.14148 0.0
H630 H 0.22672 0.65715 0.16695 0.0
H631 H 0.23335 0.61034 0.16335 0.0
N632 N 0.19899 0.61101 0.17232 0.0
N633 N 0.19682 0.58585 0.17292 0.0
C634 C 0.2021 0.59794 0.16347 0.0
C635 C 0.19166 0.60699 0.18789 0.0
C636 C 0.19024 0.59154 0.18825 0.0
C637 C 0.18236 0.64514 0.18906 0.0
O638 O 0.17231 0.63722 0.17979 0.0
H639 H 0.20811 0.59733 0.15044 0.0
H640 H 0.18786 0.61473 0.19849 0.0
O641 O 0.19705 0.63555 0.14055 0.0
H642 H 0.2603 0.62363 0.16325 0.0
H643 H 0.18517 0.58495 0.19926 0.0
Cu644 Cu 0.38614 0.79589 0.89703 0.0
N645 N 0.38042 0.7757 0.89895 0.0
N646 N 0.36668 0.75454 0.90019 0.0
C647 C 0.36646 0.76971 0.89792 0.0
C648 C 0.38137 0.75095 0.90265 0.0
C649 C 0.38978 0.764 0.9019 0.0
O650 O 0.37331 0.80583 0.87871 0.0
C651 C 0.37328 0.80483 0.93113 0.0
O652 O 0.36076 0.80009 0.92324 0.0
H653 H 0.35638 0.7764 0.89582 0.0
H654 H 0.4019 0.76493 0.90336 0.0
N655 N 0.40584 0.79619 0.88806 0.0
N656 N 0.43094 0.79768 0.88579 0.0
C657 C 0.4189 0.79855 0.89725 0.0
C658 C 0.40974 0.79364 0.87032 0.0
C659 C 0.42518 0.79459 0.86886 0.0
C660 C 0.3777 0.8178 0.87053 0.0
O661 O 0.39019 0.82439 0.87616 0.0
H662 H 0.41952 0.80096 0.91195 0.0
H663 H 0.40185 0.79119 0.85926 0.0
O664 O 0.38544 0.80478 0.92174 0.0
H665 H 0.3858 0.73967 0.90463 0.0
H666 H 0.43167 0.79286 0.85633 0.0
Cu667 Cu 0.21085 0.38714 0.89454 0.0
N668 N 0.22968 0.37819 0.89812 0.0
N669 N 0.24956 0.36267 0.89785 0.0
C670 C 0.23526 0.36496 0.89188 0.0
C671 C 0.25305 0.37491 0.90817 0.0
C672 C 0.24079 0.38442 0.90831 0.0
O673 O 0.20038 0.37883 0.87301 0.0
C674 C 0.1995 0.37407 0.92735 0.0
O675 O 0.20537 0.36174 0.92025 0.0
H676 H 0.22909 0.35727 0.88304 0.0
H677 H 0.23994 0.39513 0.91546 0.0
N678 N 0.21462 0.4072 0.88847 0.0
N679 N 0.21506 0.43241 0.88762 0.0
C680 C 0.2105 0.42006 0.89714 0.0
C681 C 0.22206 0.41156 0.87315 0.0
C682 C 0.22235 0.42707 0.87257 0.0
C683 C 0.19715 0.36515 0.86927 0.0
O684 O 0.20001 0.35453 0.88148 0.0
H685 H 0.20403 0.42034 0.90985 0.0
H686 H 0.22684 0.40391 0.86304 0.0
O687 O 0.19982 0.38621 0.91789 0.0
H688 H 0.26359 0.37671 0.91545 0.0
H689 H 0.22759 0.43389 0.86191 0.0
Cu690 Cu 0.62759 0.21768 0.89872 0.0
N691 N 0.63424 0.23754 0.90121 0.0
N692 N 0.64861 0.25828 0.90105 0.0
C693 C 0.64814 0.24319 0.89818 0.0
C694 C 0.63446 0.26219 0.90609 0.0
C695 C 0.62565 0.24938 0.90619 0.0
O696 O 0.63957 0.20761 0.8798 0.0
C697 C 0.64088 0.20775 0.932 0.0
O698 O 0.65316 0.2131 0.9242 0.0
H699 H 0.65762 0.23642 0.89369 0.0
H700 H 0.61379 0.24871 0.90962 0.0
N701 N 0.60772 0.21842 0.89023 0.0
N702 N 0.58254 0.21853 0.88848 0.0
C703 C 0.5947 0.21657 0.89961 0.0
C704 C 0.6037 0.22161 0.87269 0.0
C705 C 0.58821 0.22166 0.87154 0.0
C706 C 0.63454 0.19586 0.87169 0.0
O707 O 0.62196 0.1897 0.87768 0.0
H708 H 0.59418 0.21415 0.91431 0.0
H709 H 0.61154 0.22379 0.86153 0.0
O710 O 0.62856 0.20798 0.92288 0.0
H711 H 0.63078 0.27347 0.90969 0.0
H712 H 0.58166 0.22369 0.85911 0.0
Cu713 Cu 0.79642 0.62668 0.89092 0.0
N714 N 0.77665 0.63384 0.89293 0.0
N715 N 0.75602 0.64838 0.89432 0.0
C716 C 0.77109 0.64796 0.89118 0.0
C717 C 0.75205 0.63395 0.89798 0.0
C718 C 0.76474 0.62508 0.89715 0.0
O719 O 0.80694 0.63618 0.87023 0.0
C720 C 0.80497 0.63993 0.92519 0.0
O721 O 0.79799 0.6518 0.91843 0.0
H722 H 0.77799 0.65772 0.8881 0.0
H723 H 0.7653 0.61303 0.89954 0.0
N724 N 0.79483 0.60643 0.88412 0.0
N725 N 0.79625 0.58125 0.88271 0.0
C726 C 0.7995 0.59376 0.89279 0.0
C727 C 0.78838 0.6018 0.86823 0.0
C728 C 0.78922 0.58634 0.86731 0.0
C729 C 0.81082 0.64989 0.86784 0.0
O730 O 0.80842 0.65983 0.88103 0.0
H731 H 0.80535 0.59374 0.90598 0.0
H732 H 0.78339 0.60924 0.85802 0.0
O733 O 0.80633 0.6282 0.91508 0.0
H734 H 0.74075 0.63 0.90091 0.0
H735 H 0.78479 0.57937 0.85622 0.0
H736 H 0.23035 0.14007 0.39029 0.0
H737 H 0.21154 0.16027 0.38833 0.0
H738 H 0.24457 0.1924 0.40781 0.0
H739 H 0.2634 0.17232 0.40982 0.0
H740 H 0.20062 0.17904 0.41597 0.0
H741 H 0.22867 0.21267 0.361 0.0
H742 H 0.23408 0.19349 0.36633 0.0
H743 H 0.24056 0.20885 0.38063 0.0
C744 C 0.2336 0.15142 0.39422 0.0
C745 C 0.24843 0.15458 0.40008 0.0
C746 C 0.22285 0.16296 0.39302 0.0
C747 C 0.22673 0.17788 0.39759 0.0
C748 C 0.24144 0.18104 0.40373 0.0
H749 H 0.17862 0.26287 0.40529 0.0
H750 H 0.19713 0.24243 0.40624 0.0
C751 C 0.2522 0.16953 0.40488 0.0
C752 C 0.21529 0.19009 0.39643 0.0
H753 H 0.2079 0.22424 0.37628 0.0
C754 C 0.20216 0.18887 0.4072 0.0
C755 C 0.21733 0.20293 0.38499 0.0
C756 C 0.23085 0.20454 0.37244 0.0
C757 C 0.19115 0.2003 0.40714 0.0
C758 C 0.19326 0.21317 0.39582 0.0
C759 C 0.20635 0.21437 0.38499 0.0
C760 C 0.182 0.22554 0.39504 0.0
C761 C 0.17753 0.19867 0.41953 0.0
C762 C 0.16742 0.22287 0.38815 0.0
C763 C 0.15683 0.23456 0.38746 0.0
C764 C 0.16061 0.2492 0.39358 0.0
C765 C 0.17532 0.25184 0.40027 0.0
C766 C 0.18591 0.24014 0.40092 0.0
H767 H 0.17931 0.18999 0.43045 0.0
H768 H 0.17474 0.20959 0.4263 0.0
H769 H 0.16768 0.19517 0.41103 0.0
H770 H 0.16427 0.21176 0.38318 0.0
H771 H 0.14573 0.23214 0.3819 0.0
H772 H 0.75517 0.17724 0.38419 0.0
H773 H 0.77452 0.19699 0.38372 0.0
H774 H 0.805 0.1677 0.41341 0.0
H775 H 0.78575 0.14796 0.41404 0.0
H776 H 0.78945 0.21123 0.41328 0.0
H777 H 0.82989 0.1805 0.36834 0.0
H778 H 0.81043 0.17476 0.37083 0.0
H779 H 0.82406 0.17 0.38839 0.0
C780 C 0.76595 0.17502 0.39072 0.0
C781 C 0.76893 0.16094 0.39903 0.0
C782 C 0.77702 0.1863 0.39036 0.0
C783 C 0.79128 0.18371 0.39823 0.0
C784 C 0.79419 0.1698 0.40684 0.0
H785 H 0.87349 0.23455 0.4146 0.0
H786 H 0.85316 0.21589 0.41434 0.0
C787 C 0.78316 0.15852 0.40718 0.0
C788 C 0.80308 0.1956 0.39772 0.0
H789 H 0.83899 0.2028 0.38299 0.0
C790 C 0.80024 0.20945 0.40655 0.0
C791 C 0.81714 0.19324 0.3889 0.0
C792 C 0.82055 0.17888 0.37842 0.0
C793 C 0.81127 0.22085 0.40724 0.0
C794 C 0.8254 0.21839 0.39864 0.0
C795 C 0.82817 0.20461 0.38965 0.0
C796 C 0.83756 0.22991 0.39895 0.0
C797 C 0.80788 0.23527 0.41759 0.0
C798 C 0.83558 0.24393 0.39023 0.0
C799 C 0.84722 0.25461 0.39025 0.0
C800 C 0.86112 0.25145 0.39893 0.0
C801 C 0.86304 0.23733 0.4076 0.0
C802 C 0.8514 0.22667 0.40755 0.0
H803 H 0.79803 0.23399 0.42698 0.0
H804 H 0.81778 0.23895 0.42591 0.0
H805 H 0.80524 0.24434 0.40747 0.0
H806 H 0.8251 0.24653 0.38317 0.0
H807 H 0.84541 0.26522 0.38315 0.0
H808 H 0.83582 0.74263 0.38353 0.0
H809 H 0.81641 0.76231 0.38305 0.0
H810 H 0.8447 0.79087 0.41685 0.0
H811 H 0.86402 0.77125 0.4177 0.0
H812 H 0.8014 0.77713 0.41386 0.0
H813 H 0.83461 0.81691 0.37057 0.0
H814 H 0.83912 0.79706 0.37235 0.0
H815 H 0.84447 0.80986 0.39057 0.0
C816 C 0.83788 0.75302 0.39103 0.0
C817 C 0.85158 0.75537 0.40053 0.0
C818 C 0.82679 0.76428 0.39066 0.0
C819 C 0.82924 0.77812 0.39966 0.0
C820 C 0.84273 0.78038 0.40949 0.0
H821 H 0.78415 0.86266 0.417 0.0
H822 H 0.80105 0.84091 0.416 0.0
C823 C 0.85378 0.76914 0.40991 0.0
C824 C 0.81777 0.79027 0.39885 0.0
H825 H 0.81248 0.82669 0.38473 0.0
C826 C 0.80373 0.78793 0.40736 0.0
C827 C 0.82087 0.80431 0.39031 0.0
C828 C 0.83553 0.8072 0.38027 0.0
C829 C 0.79289 0.79951 0.40817 0.0
C830 C 0.79612 0.81366 0.39996 0.0
C831 C 0.81005 0.81585 0.39109 0.0
C832 C 0.78549 0.82658 0.40091 0.0
C833 C 0.7783 0.79668 0.41838 0.0
C834 C 0.77114 0.82578 0.39269 0.0
C835 C 0.76143 0.83826 0.3932 0.0
C836 C 0.76597 0.85181 0.40179 0.0
C837 C 0.78036 0.85251 0.41004 0.0
C838 C 0.79001 0.84005 0.40957 0.0
H839 H 0.77904 0.78659 0.4275 0.0
H840 H 0.77516 0.80661 0.42696 0.0
H841 H 0.76913 0.79471 0.40817 0.0
H842 H 0.76754 0.81561 0.38559 0.0
H843 H 0.75053 0.83741 0.38649 0.0
H844 H 0.14279 0.78218 0.39078 0.0
H845 H 0.16374 0.80014 0.38992 0.0
H846 H 0.19337 0.76645 0.41322 0.0
H847 H 0.17245 0.74842 0.41416 0.0
H848 H 0.18141 0.81097 0.41891 0.0
H849 H 0.2165 0.78037 0.36732 0.0
H850 H 0.1969 0.77583 0.3713 0.0
H851 H 0.21117 0.76937 0.38717 0.0
C852 C 0.15372 0.7786 0.39583 0.0
C853 C 0.15594 0.76382 0.40246 0.0
C854 C 0.16571 0.78886 0.39525 0.0
C855 C 0.18016 0.78455 0.40122 0.0
C856 C 0.18239 0.7699 0.40812 0.0
H857 H 0.26491 0.83478 0.40827 0.0
H858 H 0.24529 0.81536 0.41044 0.0
C859 C 0.17042 0.75961 0.40866 0.0
C860 C 0.19279 0.79554 0.40056 0.0
H861 H 0.22739 0.80205 0.38124 0.0
C862 C 0.19145 0.80903 0.41065 0.0
C863 C 0.20591 0.79294 0.38983 0.0
C864 C 0.20771 0.77891 0.37815 0.0
C865 C 0.2029 0.82 0.41036 0.0
C866 C 0.21592 0.81748 0.39947 0.0
C867 C 0.21738 0.80391 0.38958 0.0
C868 C 0.22791 0.82906 0.39773 0.0
C869 C 0.20103 0.83413 0.42185 0.0
C870 C 0.2247 0.84304 0.38951 0.0
C871 C 0.23588 0.85411 0.38812 0.0
C872 C 0.25055 0.85141 0.3949 0.0
C873 C 0.2538 0.83722 0.40278 0.0
C874 C 0.24259 0.82613 0.40412 0.0
H875 H 0.19243 0.83263 0.4329 0.0
H876 H 0.21189 0.83746 0.4284 0.0
H877 H 0.19729 0.84351 0.41274 0.0
H878 H 0.21352 0.84539 0.38411 0.0
H879 H 0.23303 0.86473 0.38161 0.0
H880 H 0.1485 0.78683 0.6461 0.0
H881 H 0.16965 0.80448 0.64695 0.0
H882 H 0.19616 0.77198 0.67731 0.0
H883 H 0.17495 0.75429 0.67686 0.0
H884 H 0.18457 0.81591 0.67969 0.0
H885 H 0.22347 0.78459 0.63297 0.0
H886 H 0.20343 0.78084 0.63374 0.0
H887 H 0.21554 0.77397 0.65186 0.0
C888 C 0.15875 0.78341 0.65308 0.0
C889 C 0.15994 0.76908 0.66144 0.0
C890 C 0.17088 0.79351 0.65345 0.0
C891 C 0.1845 0.78947 0.66202 0.0
C892 C 0.18581 0.77521 0.67034 0.0
H893 H 0.26959 0.83796 0.67511 0.0
H894 H 0.24941 0.81907 0.67556 0.0
C895 C 0.17366 0.7651 0.67004 0.0
C896 C 0.19716 0.80043 0.66267 0.0
H897 H 0.23293 0.80681 0.64693 0.0
C898 C 0.19515 0.81395 0.67253 0.0
C899 C 0.21095 0.79776 0.65341 0.0
C900 C 0.21353 0.78357 0.64226 0.0
C901 C 0.20662 0.82487 0.67346 0.0
C902 C 0.22033 0.82236 0.66389 0.0
C903 C 0.2224 0.80874 0.65422 0.0
C904 C 0.23257 0.83382 0.66351 0.0
C905 C 0.20403 0.83889 0.68496 0.0
C906 C 0.22989 0.84831 0.65632 0.0
C907 C 0.24139 0.85912 0.65606 0.0
C908 C 0.25589 0.85562 0.66278 0.0
C909 C 0.25861 0.841 0.66967 0.0
C910 C 0.24707 0.83021 0.67002 0.0
H911 H 0.1951 0.83708 0.69554 0.0
H912 H 0.21455 0.84248 0.69211 0.0
H913 H 0.20029 0.84821 0.67576 0.0
H914 H 0.2189 0.85123 0.65076 0.0
H915 H 0.23899 0.87016 0.65033 0.0
H916 H 0.22653 0.14533 0.67459 0.0
H917 H 0.20863 0.16632 0.67396 0.0
H918 H 0.24421 0.19654 0.657 0.0
H919 H 0.26214 0.17551 0.65713 0.0
H920 H 0.20963 0.19405 0.69385 0.0
H921 H 0.21097 0.20288 0.61753 0.0
H922 H 0.21811 0.18593 0.62837 0.0
H923 H 0.22905 0.20303 0.62889 0.0
C924 C 0.23054 0.1564 0.67056 0.0
C925 C 0.24576 0.15869 0.66576 0.0
C926 C 0.22031 0.1684 0.67033 0.0
C927 C 0.22505 0.18292 0.66519 0.0
C928 C 0.24028 0.18536 0.66074 0.0
H929 H 0.17668 0.26756 0.65078 0.0
H930 H 0.19584 0.24782 0.65293 0.0
C931 C 0.25054 0.17335 0.661 0.0
C932 C 0.21401 0.19548 0.66455 0.0
H933 H 0.19665 0.22023 0.63512 0.0
C934 C 0.20677 0.19978 0.68102 0.0
C935 C 0.21034 0.20293 0.64779 0.0
C936 C 0.21741 0.19842 0.62958 0.0
C937 C 0.19604 0.21145 0.68123 0.0
C938 C 0.19224 0.2188 0.66442 0.0
C939 C 0.19958 0.21457 0.64798 0.0
C940 C 0.18059 0.23081 0.66355 0.0
C941 C 0.18907 0.21599 0.69948 0.0
C942 C 0.16561 0.22777 0.66862 0.0
C943 C 0.15463 0.23908 0.66756 0.0
C944 C 0.15839 0.25366 0.66127 0.0
C945 C 0.1734 0.25658 0.656 0.0
C946 C 0.18437 0.24527 0.65709 0.0
H947 H 0.1961 0.21232 0.71144 0.0
H948 H 0.18751 0.22843 0.70028 0.0
H949 H 0.17784 0.21056 0.70081 0.0
H950 H 0.16237 0.2166 0.67329 0.0
H951 H 0.14324 0.23642 0.67184 0.0
H952 H 0.77373 0.14613 0.65783 0.0
H953 H 0.79275 0.16613 0.65802 0.0
H954 H 0.75883 0.19856 0.67381 0.0
H955 H 0.73976 0.17863 0.6739 0.0
H956 H 0.77682 0.20789 0.644 0.0
H957 H 0.81183 0.18775 0.70285 0.0
H958 H 0.80841 0.17364 0.68543 0.0
H959 H 0.79288 0.18099 0.69867 0.0
C960 C 0.77032 0.15745 0.66161 0.0
C961 C 0.75517 0.16072 0.66586 0.0
C962 C 0.78123 0.16888 0.66172 0.0
C963 C 0.77723 0.18378 0.66617 0.0
C964 C 0.76215 0.18712 0.67039 0.0
H965 H 0.84394 0.25608 0.68203 0.0
H966 H 0.82228 0.23914 0.68648 0.0
C967 C 0.75124 0.1757 0.67031 0.0
C968 C 0.78867 0.19599 0.66562 0.0
H969 H 0.82262 0.20693 0.6837 0.0
C970 C 0.78677 0.20776 0.65279 0.0
C971 C 0.80152 0.19592 0.67729 0.0
C972 C 0.80376 0.18398 0.69197 0.0
C973 C 0.79768 0.21915 0.65083 0.0
C974 C 0.81089 0.21864 0.66184 0.0
C975 C 0.81252 0.20721 0.67518 0.0
C976 C 0.82351 0.22938 0.65902 0.0
C977 C 0.79502 0.2316 0.63691 0.0
C978 C 0.83137 0.22942 0.64216 0.0
C979 C 0.84368 0.23903 0.6396 0.0
C980 C 0.84844 0.24878 0.65388 0.0
C981 C 0.84045 0.24882 0.67072 0.0
C982 C 0.82815 0.23911 0.67332 0.0
H983 H 0.78285 0.23275 0.63342 0.0
H984 H 0.79924 0.2426 0.64221 0.0
H985 H 0.80119 0.22892 0.62394 0.0
H986 H 0.82811 0.22184 0.63105 0.0
H987 H 0.84947 0.23884 0.6264 0.0
H988 H 0.84509 0.75119 0.68514 0.0
H989 H 0.82677 0.77059 0.6942 0.0
H990 H 0.81189 0.77412 0.63739 0.0
H991 H 0.82961 0.75448 0.62842 0.0
H992 H 0.82587 0.79967 0.68249 0.0
H993 H 0.77211 0.77178 0.66427 0.0
H994 H 0.78963 0.76149 0.66624 0.0
H995 H 0.78497 0.77134 0.64512 0.0
C996 C 0.83769 0.75588 0.67467 0.0
C997 C 0.83888 0.75131 0.65603 0.0
C998 C 0.82728 0.76701 0.67985 0.0
C999 C 0.8178 0.77364 0.66652 0.0
C1000 C 0.81883 0.76894 0.64799 0.0
H1001 H 0.781 0.86122 0.65437 0.0
H1002 H 0.79642 0.83851 0.65692 0.0
C1003 C 0.82917 0.75784 0.64283 0.0
C1004 C 0.80761 0.78629 0.67146 0.0
H1005 H 0.77165 0.79914 0.66516 0.0
C1006 C 0.81395 0.79946 0.67903 0.0
C1007 C 0.792 0.78595 0.66729 0.0
C1008 C 0.78426 0.7718 0.66047 0.0
C1009 C 0.80531 0.8126 0.68141 0.0
C1010 C 0.79002 0.81265 0.67568 0.0
C1011 C 0.78344 0.79919 0.66926 0.0
C1012 C 0.78094 0.82671 0.67507 0.0
C1013 C 0.81271 0.82636 0.68982 0.0
C1014 C 0.76691 0.82752 0.68403 0.0
C1015 C 0.75799 0.84049 0.68246 0.0
C1016 C 0.76292 0.85288 0.67184 0.0
C1017 C 0.777 0.85202 0.66294 0.0
C1018 C 0.78586 0.83904 0.66444 0.0
H1019 H 0.82224 0.82314 0.69905 0.0
H1020 H 0.81735 0.83353 0.67856 0.0
H1021 H 0.80452 0.83317 0.69791 0.0
H1022 H 0.76285 0.81809 0.6922 0.0
H1023 H 0.74727 0.84085 0.68962 0.0
H1024 H 0.64682 0.73954 0.91232 0.0
H1025 H 0.6665 0.72028 0.91012 0.0
H1026 H 0.69544 0.75195 0.88185 0.0
H1027 H 0.67581 0.77129 0.88406 0.0
H1028 H 0.67966 0.70821 0.87893 0.0
H1029 H 0.72292 0.73638 0.92289 0.0
H1030 H 0.70349 0.74246 0.92228 0.0
H1031 H 0.71614 0.74757 0.90385 0.0
C1032 C 0.65734 0.74241 0.90559 0.0
C1033 C 0.65975 0.75699 0.89844 0.0
C1034 C 0.66861 0.7314 0.90441 0.0
C1035 C 0.68253 0.73474 0.89608 0.0
C1036 C 0.68494 0.74923 0.88875 0.0
H1037 H 0.76037 0.67526 0.87664 0.0
H1038 H 0.74307 0.69688 0.87607 0.0
C1039 C 0.67369 0.76027 0.89001 0.0
C1040 C 0.6943 0.72286 0.89466 0.0
H1041 H 0.73016 0.71363 0.90809 0.0
C1042 C 0.6907 0.70942 0.88529 0.0
C1043 C 0.70874 0.72448 0.90287 0.0
C1044 C 0.71306 0.73844 0.91368 0.0
C1045 C 0.70109 0.6975 0.88406 0.0
C1046 C 0.7154 0.69901 0.89257 0.0
C1047 C 0.71918 0.71256 0.90155 0.0
C1048 C 0.72617 0.68623 0.89329 0.0
C1049 C 0.69668 0.68335 0.87369 0.0
C1050 C 0.72252 0.67327 0.90348 0.0
C1051 C 0.73238 0.661 0.90398 0.0
C1052 C 0.74615 0.66138 0.89425 0.0
C1053 C 0.74993 0.67456 0.88436 0.0
C1054 C 0.74003 0.68691 0.88394 0.0
H1055 H 0.68698 0.68535 0.86422 0.0
H1056 H 0.70633 0.67896 0.86548 0.0
H1057 H 0.69335 0.67452 0.8838 0.0
H1058 H 0.712 0.67265 0.91109 0.0
H1059 H 0.72921 0.65125 0.91213 0.0
H1060 H 0.2735 0.64503 0.91502 0.0
H1061 H 0.29358 0.66398 0.9144 0.0
H1062 H 0.26397 0.69487 0.88581 0.0
H1063 H 0.24383 0.67598 0.88638 0.0
H1064 H 0.307 0.67758 0.8841 0.0
H1065 H 0.27941 0.72052 0.92882 0.0
H1066 H 0.2727 0.70131 0.92719 0.0
H1067 H 0.26833 0.71468 0.90921 0.0
C1068 C 0.27126 0.65583 0.90854 0.0
C1069 C 0.25702 0.659 0.90083 0.0
C1070 C 0.28273 0.66668 0.90827 0.0
C1071 C 0.2802 0.68092 0.90033 0.0
C1072 C 0.26606 0.68409 0.89243 0.0
H1073 H 0.33927 0.75876 0.88388 0.0
H1074 H 0.31804 0.74105 0.88344 0.0
C1075 C 0.25456 0.67326 0.89276 0.0
C1076 C 0.29252 0.69227 0.89987 0.0
H1077 H 0.30235 0.72771 0.91439 0.0
C1078 C 0.306 0.68852 0.89075 0.0
C1079 C 0.29115 0.70658 0.90851 0.0
C1080 C 0.27718 0.71101 0.91913 0.0
C1081 C 0.31813 0.69871 0.88996 0.0
C1082 C 0.31681 0.71294 0.89873 0.0
C1083 C 0.30329 0.71679 0.90765 0.0
C1084 C 0.32955 0.72378 0.89926 0.0
C1085 C 0.3322 0.69422 0.87957 0.0
C1086 C 0.34292 0.72004 0.9086 0.0
C1087 C 0.35502 0.73015 0.909 0.0
C1088 C 0.354 0.74427 0.90009 0.0
C1089 C 0.34044 0.74808 0.89101 0.0
C1090 C 0.32831 0.73794 0.89066 0.0
H1091 H 0.33004 0.68474 0.86982 0.0
H1092 H 0.33682 0.70393 0.87164 0.0
H1093 H 0.34093 0.69051 0.88964 0.0
H1094 H 0.34398 0.70929 0.91568 0.0
H1095 H 0.36512 0.72694 0.91647 0.0
H1096 H 0.3291 0.23943 0.89844 0.0
H1097 H 0.30828 0.25719 0.89345 0.0
H1098 H 0.34002 0.29411 0.89156 0.0
H1099 H 0.36084 0.27646 0.89596 0.0
H1100 H 0.3004 0.28109 0.91621 0.0
H1101 H 0.3141 0.30201 0.84593 0.0
H1102 H 0.32232 0.28501 0.85543 0.0
H1103 H 0.32989 0.30324 0.86148 0.0
C1104 C 0.33167 0.25129 0.89661 0.0
C1105 C 0.34666 0.25651 0.89761 0.0
C1106 C 0.31975 0.26143 0.89386 0.0
C1107 C 0.32262 0.27694 0.89185 0.0
C1108 C 0.33756 0.28215 0.89269 0.0
H1109 H 0.28003 0.3623 0.89627 0.0
H1110 H 0.29631 0.34016 0.89326 0.0
C1111 C 0.34945 0.27206 0.89546 0.0
C1112 C 0.31003 0.28788 0.89013 0.0
H1113 H 0.29751 0.31761 0.86414 0.0
C1114 C 0.29957 0.2889 0.90467 0.0
C1115 C 0.30897 0.29803 0.87502 0.0
C1116 C 0.31933 0.29694 0.85849 0.0
C1117 C 0.2886 0.30034 0.90502 0.0
C1118 C 0.288 0.3109 0.89032 0.0
C1119 C 0.29805 0.30951 0.87541 0.0
C1120 C 0.27789 0.32421 0.89098 0.0
C1121 C 0.27824 0.30154 0.92156 0.0
C1122 C 0.26214 0.32259 0.89033 0.0
C1123 C 0.25278 0.33525 0.89211 0.0
C1124 C 0.25906 0.34972 0.89462 0.0
C1125 C 0.27485 0.35129 0.89469 0.0
C1126 C 0.28417 0.33868 0.89283 0.0
H1127 H 0.28175 0.29396 0.93306 0.0
H1128 H 0.27794 0.31334 0.9268 0.0
H1129 H 0.26661 0.2984 0.91732 0.0
H1130 H 0.25709 0.31151 0.8887 0.0
H1131 H 0.24067 0.33366 0.89208 0.0
H1132 H 0.64812 0.28794 0.89194 0.0
H1133 H 0.66967 0.30508 0.88988 0.0
H1134 H 0.69971 0.26853 0.90415 0.0
H1135 H 0.67815 0.25127 0.90611 0.0
H1136 H 0.68947 0.31282 0.91728 0.0
H1137 H 0.72019 0.28619 0.85871 0.0
H1138 H 0.70091 0.28145 0.86431 0.0
H1139 H 0.7162 0.2736 0.87761 0.0
C1140 C 0.65931 0.28353 0.89464 0.0
C1141 C 0.66142 0.26823 0.8992 0.0
C1142 C 0.67162 0.29333 0.89338 0.0
C1143 C 0.68633 0.28806 0.89663 0.0
C1144 C 0.68851 0.27278 0.90115 0.0
H1145 H 0.77239 0.33572 0.90357 0.0
H1146 H 0.75237 0.31673 0.90462 0.0
C1147 C 0.67617 0.26293 0.90231 0.0
C1148 C 0.69922 0.29878 0.89605 0.0
H1149 H 0.73268 0.30623 0.87435 0.0
C1150 C 0.69889 0.31139 0.90786 0.0
C1151 C 0.71154 0.29686 0.88379 0.0
C1152 C 0.71222 0.28388 0.87026 0.0
C1153 C 0.71055 0.32213 0.90778 0.0
C1154 C 0.72278 0.32029 0.89543 0.0
C1155 C 0.72326 0.30758 0.8838 0.0
C1156 C 0.73502 0.33165 0.89416 0.0
C1157 C 0.70977 0.33531 0.92102 0.0
C1158 C 0.73193 0.34623 0.88761 0.0
C1159 C 0.74337 0.3571 0.88683 0.0
C1160 C 0.75816 0.3536 0.89259 0.0
C1161 C 0.76123 0.33884 0.89885 0.0
C1162 C 0.74978 0.32796 0.89955 0.0
H1163 H 0.70154 0.3333 0.93236 0.0
H1164 H 0.72102 0.33762 0.92723 0.0
H1165 H 0.70617 0.34556 0.91333 0.0
H1166 H 0.72065 0.34922 0.88309 0.0
H1167 H 0.7406 0.3682 0.88158 0.0
H1168 H 0.64881 0.28012 0.14327 0.0
H1169 H 0.66921 0.29869 0.14372 0.0
H1170 H 0.69676 0.26812 0.17568 0.0
H1171 H 0.67635 0.24954 0.17556 0.0
H1172 H 0.68308 0.31177 0.17556 0.0
H1173 H 0.72431 0.28048 0.13201 0.0
H1174 H 0.7045 0.27568 0.13268 0.0
H1175 H 0.71675 0.27016 0.15135 0.0
C1176 C 0.65915 0.27734 0.15049 0.0
C1177 C 0.6609 0.26328 0.15936 0.0
C1178 C 0.67084 0.28795 0.15063 0.0
C1179 C 0.68455 0.2847 0.15953 0.0
C1180 C 0.68637 0.27073 0.16842 0.0
H1181 H 0.76697 0.33733 0.17457 0.0
H1182 H 0.74764 0.31754 0.175 0.0
C1183 C 0.67468 0.2601 0.16831 0.0
C1184 C 0.69673 0.29617 0.15999 0.0
H1185 H 0.73275 0.30332 0.14559 0.0
C1186 C 0.69394 0.30995 0.16899 0.0
C1187 C 0.7109 0.2937 0.1515 0.0
C1188 C 0.71433 0.27926 0.1412 0.0
C1189 C 0.70497 0.32131 0.16982 0.0
C1190 C 0.71906 0.31895 0.16107 0.0
C1191 C 0.72193 0.3051 0.15226 0.0
C1192 C 0.73084 0.33085 0.16059 0.0
C1193 C 0.70152 0.33565 0.18032 0.0
C1194 C 0.72789 0.34478 0.15204 0.0
C1195 C 0.7389 0.35608 0.15175 0.0
C1196 C 0.75315 0.35364 0.15985 0.0
C1197 C 0.75617 0.33955 0.16808 0.0
C1198 C 0.74512 0.32825 0.16842 0.0
H1199 H 0.6922 0.33399 0.19042 0.0
H1200 H 0.71163 0.3398 0.1879 0.0
H1201 H 0.69796 0.34452 0.17037 0.0
H1202 H 0.71708 0.34689 0.1455 0.0
H1203 H 0.7363 0.36666 0.14495 0.0
H1204 H 0.7284 0.65082 0.13905 0.0
H1205 H 0.71049 0.67155 0.14252 0.0
H1206 H 0.74169 0.69476 0.17856 0.0
H1207 H 0.75962 0.67392 0.17552 0.0
H1208 H 0.69807 0.68286 0.17728 0.0
H1209 H 0.73007 0.72637 0.13785 0.0
H1210 H 0.73381 0.7064 0.13554 0.0
H1211 H 0.74028 0.71645 0.15566 0.0
C1212 C 0.73148 0.66024 0.14784 0.0
C1213 C 0.74552 0.66061 0.15702 0.0
C1214 C 0.72123 0.67213 0.14972 0.0
C1215 C 0.72483 0.68473 0.16065 0.0
C1216 C 0.7388 0.68523 0.16981 0.0
H1217 H 0.67531 0.76793 0.18285 0.0
H1218 H 0.69429 0.74787 0.18179 0.0
C1219 C 0.74906 0.67329 0.16802 0.0
C1220 C 0.71376 0.69714 0.16276 0.0
H1221 H 0.70735 0.73414 0.15194 0.0
C1222 C 0.70007 0.69409 0.17176 0.0
C1223 C 0.71649 0.71177 0.15564 0.0
C1224 C 0.7309 0.71551 0.1455 0.0
C1225 C 0.68902 0.70531 0.17391 0.0
C1226 C 0.69158 0.71987 0.16642 0.0
C1227 C 0.70538 0.72297 0.15763 0.0
C1228 C 0.67999 0.73196 0.16724 0.0
C1229 C 0.67481 0.70151 0.18446 0.0
C1230 C 0.6657 0.72976 0.1592 0.0
C1231 C 0.65484 0.74119 0.15982 0.0
C1232 C 0.65809 0.75514 0.16827 0.0
C1233 C 0.67248 0.75738 0.1761 0.0
C1234 C 0.68332 0.7459 0.17557 0.0
H1235 H 0.67654 0.69173 0.19388 0.0
H1236 H 0.67087 0.7113 0.19279 0.0
H1237 H 0.66577 0.69844 0.17447 0.0
H1238 H 0.66301 0.71925 0.15224 0.0
H1239 H 0.64399 0.7392 0.15335 0.0
H1240 H 0.2458 0.67208 0.18131 0.0
H1241 H 0.26494 0.69204 0.18029 0.0
H1242 H 0.29413 0.66294 0.14854 0.0
H1243 H 0.27497 0.64304 0.1492 0.0
H1244 H 0.29581 0.69049 0.19304 0.0
H1245 H 0.29147 0.70246 0.11762 0.0
H1246 H 0.27701 0.6924 0.13023 0.0
H1247 H 0.29402 0.68288 0.1234 0.0
C1248 C 0.25623 0.66998 0.17396 0.0
C1249 C 0.25882 0.65599 0.16524 0.0
C1250 C 0.26718 0.68136 0.17349 0.0
C1251 C 0.28084 0.67903 0.16413 0.0
C1252 C 0.28356 0.66504 0.15561 0.0
H1253 H 0.36287 0.72718 0.14224 0.0
H1254 H 0.34166 0.70972 0.14406 0.0
C1255 C 0.27266 0.65362 0.15616 0.0
C1256 C 0.29239 0.69112 0.1635 0.0
H1257 H 0.31203 0.71369 0.13369 0.0
C1258 C 0.29929 0.69568 0.18011 0.0
C1259 C 0.29686 0.69784 0.14659 0.0
C1260 C 0.28938 0.69378 0.12844 0.0
C1261 C 0.31097 0.70643 0.18019 0.0
C1262 C 0.31561 0.713 0.16323 0.0
C1263 C 0.30847 0.70864 0.14667 0.0
C1264 C 0.32833 0.72387 0.16221 0.0
C1265 C 0.31861 0.71023 0.19833 0.0
C1266 C 0.32782 0.73776 0.17161 0.0
C1267 C 0.34006 0.74775 0.17076 0.0
C1268 C 0.353 0.74408 0.1604 0.0
C1269 C 0.35327 0.73029 0.15067 0.0
C1270 C 0.34108 0.72032 0.15156 0.0
H1271 H 0.3162 0.70166 0.20919 0.0
H1272 H 0.33103 0.71109 0.19654 0.0
H1273 H 0.31441 0.72131 0.20335 0.0
H1274 H 0.31797 0.74087 0.17961 0.0
H1275 H 0.33946 0.75822 0.17847 0.0
H1276 H 0.2571 0.34638 0.18338 0.0
H1277 H 0.2756 0.327 0.19203 0.0
H1278 H 0.27909 0.31344 0.13474 0.0
H1279 H 0.2603 0.33222 0.12615 0.0
H1280 H 0.27782 0.2892 0.15847 0.0
H1281 H 0.32077 0.33106 0.18177 0.0
H1282 H 0.30279 0.33195 0.19323 0.0
H1283 H 0.3041 0.33649 0.169 0.0
C1284 C 0.26167 0.33915 0.17268 0.0
C1285 C 0.25736 0.34103 0.15402 0.0
C1286 C 0.27235 0.32818 0.17761 0.0
C1287 C 0.27892 0.31897 0.16397 0.0
C1288 C 0.27425 0.32049 0.14548 0.0
H1289 H 0.36231 0.2731 0.15198 0.0
H1290 H 0.34075 0.29019 0.15314 0.0
C1291 C 0.2636 0.33137 0.14057 0.0
C1292 C 0.29098 0.30795 0.16854 0.0
H1293 H 0.32778 0.30547 0.18241 0.0
C1294 C 0.2887 0.2927 0.16392 0.0
C1295 C 0.30519 0.3126 0.17548 0.0
C1296 C 0.30849 0.32892 0.18005 0.0
C1297 C 0.30039 0.28206 0.16545 0.0
C1298 C 0.31466 0.28676 0.17215 0.0
C1299 C 0.31679 0.3019 0.17736 0.0
C1300 C 0.32789 0.27649 0.17231 0.0
C1301 C 0.29757 0.26608 0.15899 0.0
C1302 C 0.32793 0.26319 0.18291 0.0
C1303 C 0.34028 0.25334 0.18223 0.0
C1304 C 0.35287 0.25671 0.1711 0.0
C1305 C 0.3529 0.27022 0.16085 0.0
C1306 C 0.34055 0.28 0.16145 0.0
H1307 H 0.28708 0.26514 0.1506 0.0
H1308 H 0.30718 0.26189 0.15056 0.0
H1309 H 0.29638 0.2586 0.17124 0.0
H1310 H 0.31842 0.26042 0.19168 0.0
H1311 H 0.34002 0.24316 0.19053 0.0
H1312 H 0.95634 0.32826 0.37263 0.0
H1313 H 0.98321 0.32747 0.37996 0.0
H1314 H 0.97523 0.29176 0.4194 0.0
H1315 H 0.94818 0.29227 0.41179 0.0
H1316 H 0.99832 0.33106 0.41516 0.0
H1317 H 0.00753 0.27441 0.38326 0.0
H1318 H 0.99081 0.28543 0.37857 0.0
H1319 H 0.99298 0.27613 0.40051 0.0
C1320 C 0.96027 0.32017 0.38279 0.0
C1321 C 0.95014 0.31019 0.39145 0.0
C1322 C 0.97562 0.31983 0.38709 0.0
C1323 C 0.98123 0.30945 0.40006 0.0
C1324 C 0.97114 0.29973 0.40918 0.0
H1325 H 0.07922 0.29375 0.41046 0.0
H1326 H 0.05224 0.29248 0.41811 0.0
C1327 C 0.95569 0.30012 0.40493 0.0
C1328 C 0.99773 0.30871 0.40337 0.0
H1329 H 0.02897 0.28784 0.39286 0.0
C1330 C 1.00503 0.32151 0.41058 0.0
C1331 C 1.00643 0.2962 0.3975 0.0
C1332 C 0.99913 0.28225 0.38942 0.0
C1333 C 0.02084 0.3224 0.41132 0.0
C1334 C 0.02956 0.31029 0.40433 0.0
C1335 C 0.02226 0.29713 0.39816 0.0
C1336 C 0.04605 0.31174 0.40127 0.0
C1337 C 0.02805 0.33646 0.4192 0.0
C1338 C 0.0515 0.32295 0.38928 0.0
C1339 C 0.06682 0.3237 0.38492 0.0
C1340 C 0.07706 0.31318 0.39235 0.0
C1341 C 0.07165 0.3021 0.40467 0.0
C1342 C 0.05624 0.30132 0.40898 0.0
H1343 H 0.02053 0.34203 0.42945 0.0
H1344 H 0.039 0.33386 0.426 0.0
H1345 H 0.03013 0.34462 0.4078 0.0
H1346 H 0.04383 0.33091 0.38285 0.0
H1347 H 0.07063 0.33245 0.37556 0.0
H1348 H 0.72218 0.06558 0.3699 0.0
H1349 H 0.72357 0.03894 0.37839 0.0
H1350 H 0.70541 0.04922 0.43237 0.0
H1351 H 0.70383 0.07611 0.42382 0.0
H1352 H 0.73923 0.02558 0.41163 0.0
H1353 H 0.6771 0.01552 0.40811 0.0
H1354 H 0.68574 0.03133 0.39637 0.0
H1355 H 0.68422 0.03139 0.42115 0.0
C1356 C 0.7184 0.0622 0.38354 0.0
C1357 C 0.71274 0.07293 0.39612 0.0
C1358 C 0.71931 0.04699 0.38843 0.0
C1359 C 0.7145 0.04213 0.40594 0.0
C1360 C 0.70909 0.05278 0.41874 0.0
H1361 H 0.70445 0.94389 0.42378 0.0
H1362 H 0.70479 0.97093 0.43166 0.0
C1363 C 0.70828 0.06811 0.41389 0.0
C1364 C 0.71495 0.02579 0.41026 0.0
H1365 H 0.69278 0.99423 0.41018 0.0
C1366 C 0.72907 0.01872 0.41171 0.0
C1367 C 0.70167 0.01693 0.41051 0.0
C1368 C 0.68627 0.02407 0.40891 0.0
C1369 C 0.7303 1.00293 0.41242 0.0
C1370 C 0.71708 0.994 0.4112 0.0
C1371 C 0.7029 1.0011 0.41103 0.0
C1372 C 0.71779 0.97751 0.4076 0.0
C1373 C 0.74578 0.99594 0.4139 0.0
C1374 C 0.72493 0.97228 0.39148 0.0
C1375 C 0.72474 0.95696 0.38699 0.0
C1376 C 0.71732 0.94649 0.39844 0.0
C1377 C 0.71037 0.95167 0.41479 0.0
C1378 C 0.71051 0.9671 0.41925 0.0
H1379 H 0.75377 1.00363 0.42114 0.0
H1380 H 0.74541 0.985 0.42142 0.0
H1381 H 0.75025 0.99389 0.39975 0.0
H1382 H 0.73035 0.98013 0.38208 0.0
H1383 H 0.73035 0.95334 0.37443 0.0
H1384 H 0.06735 0.72135 0.41591 0.0
H1385 H 0.04018 0.72045 0.42291 0.0
H1386 H 0.03428 0.6857 0.38158 0.0
H1387 H 0.06121 0.68639 0.3748 0.0
H1388 H 0.01681 0.72613 0.39687 0.0
H1389 H 0.01149 0.66875 0.42645 0.0
H1390 H 0.02934 0.67856 0.425 0.0
H1391 H 0.02183 0.66885 0.40507 0.0
C1392 C 0.06026 0.71335 0.4086 0.0
C1393 C 0.06638 0.70399 0.39475 0.0
C1394 C 0.04478 0.71288 0.41255 0.0
C1395 C 0.03527 0.70286 0.40294 0.0
C1396 C 0.04145 0.69332 0.3894 0.0
H1397 H 0.9471 0.68178 0.37109 0.0
H1398 H 0.9738 0.68404 0.37883 0.0
C1399 C 0.05682 0.69386 0.38538 0.0
C1400 C 0.01871 0.703 0.40576 0.0
H1401 H 0.98882 0.67944 0.41319 0.0
C1402 C 0.01065 0.71606 0.40087 0.0
C1403 C 0.01074 0.68985 0.41103 0.0
C1404 C 0.01881 0.67575 0.41737 0.0
C1405 C 0.99481 0.71595 0.39976 0.0
C1406 C 0.98689 0.70249 0.40393 0.0
C1407 C 0.99493 0.68972 0.40991 0.0
C1408 C 0.97051 0.70089 0.40018 0.0
C1409 C 0.98674 0.72992 0.39299 0.0
C1410 C 0.95976 0.70947 0.40982 0.0
C1411 C 0.94441 0.70829 0.4053 0.0
C1412 C 0.93959 0.6985 0.39108 0.0
C1413 C 0.95041 0.68965 0.38185 0.0
C1414 C 0.96569 0.69082 0.38637 0.0
H1415 H 0.99469 0.73857 0.3876 0.0
H1416 H 0.97858 0.72698 0.38184 0.0
H1417 H 0.98031 0.73499 0.40461 0.0
H1418 H 0.96324 0.71717 0.4207 0.0
H1419 H 0.93638 0.71529 0.41264 0.0
H1420 H 0.29 0.94511 0.36881 0.0
H1421 H 0.29068 0.97232 0.37454 0.0
H1422 H 0.32355 0.96554 0.41797 0.0
H1423 H 0.32246 0.93806 0.41259 0.0
H1424 H 0.30326 0.9882 0.42661 0.0
H1425 H 0.32609 0.99673 0.356 0.0
H1426 H 0.30828 0.98711 0.35561 0.0
H1427 H 0.32439 0.97826 0.36633 0.0
C1428 C 0.29726 0.94943 0.37969 0.0
C1429 C 0.30636 0.93958 0.39008 0.0
C1430 C 0.29768 0.96496 0.38292 0.0
C1431 C 0.3075 0.971 0.3963 0.0
C1432 C 0.31599 0.96112 0.40745 0.0
H1433 H 0.33403 0.06484 0.38468 0.0
H1434 H 0.33434 0.03746 0.38916 0.0
C1435 C 0.31537 0.94547 0.40441 0.0
C1436 C 0.30944 0.98763 0.39775 0.0
H1437 H 0.31752 0.01874 0.37171 0.0
C1438 C 0.30651 0.99491 0.41468 0.0
C1439 C 0.314 0.99635 0.38229 0.0
C1440 C 0.31853 0.9892 0.3641 0.0
C1441 C 0.30756 0.01073 0.41637 0.0
C1442 C 0.31127 0.01949 0.40058 0.0
C1443 C 0.31456 0.01211 0.38382 0.0
C1444 C 0.31182 0.03631 0.40077 0.0
C1445 C 0.30491 0.01782 0.43511 0.0
C1446 C 0.29924 0.04491 0.40625 0.0
C1447 C 0.29922 0.06065 0.40404 0.0
C1448 C 0.31161 0.06795 0.39585 0.0
C1449 C 0.32432 0.05941 0.39089 0.0
C1450 C 0.32448 0.04379 0.39347 0.0
H1451 H 0.30723 0.0097 0.4465 0.0
H1452 H 0.3121 0.02797 0.43715 0.0
H1453 H 0.2929 0.02128 0.43618 0.0
H1454 H 0.28917 0.03944 0.41145 0.0
H1455 H 0.28924 0.06702 0.40775 0.0
H1456 H 0.0694 0.7195 0.6431 0.0
H1457 H 0.04227 0.71778 0.63658 0.0
H1458 H 0.0343 0.70311 0.69273 0.0
H1459 H 0.06131 0.70434 0.69915 0.0
H1460 H 0.01732 0.6871 0.66631 0.0
H1461 H 0.01254 0.74934 0.65692 0.0
H1462 H 0.0259 0.73989 0.64221 0.0
H1463 H 0.02909 0.74059 0.6668 0.0
C1464 C 0.0619 0.71569 0.65396 0.0
C1465 C 0.06752 0.71226 0.67174 0.0
C1466 C 0.04639 0.71484 0.65026 0.0
C1467 C 0.03625 0.71057 0.66427 0.0
C1468 C 0.04191 0.70653 0.68175 0.0
H1469 H 0.94444 0.73003 0.68723 0.0
H1470 H 0.97175 0.72735 0.68498 0.0
C1471 C 0.05735 0.70738 0.68545 0.0
C1472 C 0.01968 0.71095 0.66124 0.0
H1473 H 0.99017 0.73519 0.6548 0.0
C1474 C 0.01136 0.69757 0.66357 0.0
C1475 C 0.01196 0.72467 0.65786 0.0
C1476 C 0.02026 0.73948 0.65593 0.0
C1477 C 0.99549 0.6976 0.66306 0.0
C1478 C 0.98779 0.71136 0.65993 0.0
C1479 C 0.99613 0.72466 0.65711 0.0
C1480 C 0.97111 0.71253 0.66114 0.0
C1481 C 0.98709 0.68308 0.66669 0.0
C1482 C 0.96164 0.70506 0.64846 0.0
C1483 C 0.94593 0.70662 0.64967 0.0
C1484 C 0.93944 0.71576 0.66351 0.0
C1485 C 0.94902 0.72311 0.67622 0.0
C1486 C 0.96465 0.72154 0.67501 0.0
H1487 H 0.99462 0.67409 0.67218 0.0
H1488 H 0.97779 0.68496 0.67674 0.0
H1489 H 0.98202 0.67896 0.65354 0.0
H1490 H 0.96641 0.69823 0.63746 0.0
H1491 H 0.9389 0.70095 0.63954 0.0
H1492 H 0.29366 0.93715 0.65302 0.0
H1493 H 0.28875 0.96419 0.64889 0.0
H1494 H 0.33464 0.97417 0.66478 0.0
H1495 H 0.33973 0.94727 0.66836 0.0
H1496 H 0.29031 0.98518 0.67631 0.0
H1497 H 0.3294 1.00131 0.62003 0.0
H1498 H 0.32445 0.98189 0.62475 0.0
H1499 H 0.33892 0.99118 0.63814 0.0
C1500 C 0.3028 0.94508 0.65519 0.0
C1501 C 0.31708 0.94004 0.66112 0.0
C1502 C 0.29996 0.96053 0.6529 0.0
C1503 C 0.31138 0.97121 0.65629 0.0
C1504 C 0.32573 0.96616 0.6617 0.0
H1505 H 0.30937 0.05961 0.70058 0.0
H1506 H 0.31071 0.0328 0.69316 0.0
C1507 C 0.32857 0.95076 0.66401 0.0
C1508 C 0.30801 0.98764 0.65607 0.0
H1509 H 0.32111 0.02155 0.64016 0.0
C1510 C 0.29687 0.9931 0.66815 0.0
C1511 C 0.31641 0.99799 0.64526 0.0
C1512 C 0.32785 0.99278 0.63117 0.0
C1513 C 0.29452 0.00866 0.6705 0.0
C1514 C 0.30371 0.01902 0.66074 0.0
C1515 C 0.31423 0.01358 0.64783 0.0
C1516 C 0.30323 0.03544 0.66477 0.0
C1517 C 0.2824 0.01388 0.68371 0.0
C1518 C 0.29906 0.0459 0.65108 0.0
C1519 C 0.29823 0.06134 0.65531 0.0
C1520 C 0.30164 0.06654 0.6733 0.0
C1521 C 0.30629 0.05601 0.68675 0.0
C1522 C 0.30709 0.04065 0.68252 0.0
H1523 H 0.27365 1.00504 0.68578 0.0
H1524 H 0.28758 0.01637 0.6974 0.0
H1525 H 0.27685 0.02433 0.6786 0.0
H1526 H 0.29615 0.0421 0.63724 0.0
H1527 H 0.29456 0.06912 0.64465 0.0
H1528 H 0.06702 0.33594 0.6746 0.0
H1529 H 0.03999 0.33109 0.6714 0.0
H1530 H 0.0495 0.2887 0.6444 0.0
H1531 H 0.07667 0.29339 0.64776 0.0
H1532 H 0.02451 0.30718 0.62833 0.0
H1533 H 0.02011 0.29744 0.70429 0.0
H1534 H 0.02908 0.31484 0.69767 0.0
H1535 H 0.03792 0.29714 0.69215 0.0
C1536 C 0.06339 0.3256 0.66795 0.0
C1537 C 0.07401 0.31495 0.6617 0.0
C1538 C 0.04794 0.32288 0.66605 0.0
C1539 C 0.04279 0.30945 0.65791 0.0
C1540 C 0.05329 0.29913 0.65076 0.0
H1541 H 0.95431 0.27071 0.67557 0.0
H1542 H 0.9813 0.27497 0.67138 0.0
C1543 C 0.06881 0.30185 0.65264 0.0
C1544 C 0.02646 0.30583 0.65804 0.0
H1545 H 0.99723 0.2984 0.68741 0.0
C1546 C 0.01851 0.3052 0.6412 0.0
C1547 C 0.01876 0.30309 0.67486 0.0
C1548 C 0.02688 0.30302 0.69329 0.0
C1549 C 1.00291 0.30219 0.64081 0.0
C1550 C 0.99514 0.29989 0.65771 0.0
C1551 C 1.00319 0.30026 0.67448 0.0
C1552 C 0.97868 0.29688 0.65849 0.0
C1553 C 0.99492 0.30131 0.62236 0.0
C1554 C 0.9682 0.30775 0.65251 0.0
C1555 C 0.9527 0.30537 0.65498 0.0
C1556 C 0.94743 0.29213 0.66363 0.0
C1557 C 0.95797 0.28114 0.66917 0.0
C1558 C 0.97342 0.2835 0.66667 0.0
H1559 H 1.00298 0.29964 0.61074 0.0
H1560 H 0.98658 0.29193 0.62223 0.0
H1561 H 0.98875 0.31203 0.61989 0.0
H1562 H 0.97203 0.31829 0.64651 0.0
H1563 H 0.9449 0.31412 0.65075 0.0
H1564 H 0.72036 0.07772 0.65278 0.0
H1565 H 0.72591 0.05092 0.64757 0.0
H1566 H 0.67975 0.03965 0.66057 0.0
H1567 H 0.67405 0.0663 0.6652 0.0
H1568 H 0.72396 0.02928 0.67394 0.0
H1569 H 0.68691 0.01364 0.61532 0.0
H1570 H 0.69131 0.03306 0.62091 0.0
H1571 H 0.67654 0.02322 0.63312 0.0
C1572 C 0.71132 0.06956 0.65406 0.0
C1573 C 0.69678 0.07414 0.65952 0.0
C1574 C 0.71451 0.05425 0.65115 0.0
C1575 C 0.7032 0.04329 0.65343 0.0
C1576 C 0.68859 0.0479 0.65832 0.0
H1577 H 0.7028 0.95558 0.69722 0.0
H1578 H 0.70249 0.98233 0.68938 0.0
C1579 C 0.6854 0.06315 0.66124 0.0
C1580 C 0.70688 0.02695 0.65281 0.0
H1581 H 0.69433 0.99315 0.63581 0.0
C1582 C 0.7177 0.02141 0.66531 0.0
C1583 C 0.69888 0.01667 0.64138 0.0
C1584 C 0.68788 0.02198 0.62679 0.0
C1585 C 0.71998 1.00585 0.6676 0.0
C1586 C 0.71105 0.99556 0.65732 0.0
C1587 C 0.70099 1.00107 0.64389 0.0
C1588 C 0.71108 0.9792 0.66158 0.0
C1589 C 0.73164 1.00053 0.68141 0.0
C1590 C 0.71556 0.9685 0.64832 0.0
C1591 C 0.71582 0.95309 0.65281 0.0
C1592 C 0.71149 0.94817 0.67059 0.0
C1593 C 0.70658 0.95896 0.68358 0.0
C1594 C 0.70636 0.97428 0.67911 0.0
H1595 H 0.74043 0.00928 0.68386 0.0
H1596 H 0.72604 0.99815 0.69485 0.0
H1597 H 0.73722 0.99 0.6766 0.0
H1598 H 0.71913 0.9721 0.63465 0.0
H1599 H 0.71971 0.94511 0.64251 0.0
H1600 H 0.57653 0.79281 0.91049 0.0
H1601 H 0.54953 0.78741 0.91397 0.0
H1602 H 0.539 0.8331 0.89773 0.0
H1603 H 0.56584 0.83871 0.89489 0.0
H1604 H 0.52091 0.82274 0.92653 0.0
H1605 H 0.52289 0.78168 0.86808 0.0
H1606 H 0.53527 0.77776 0.88725 0.0
H1607 H 0.53835 0.79427 0.87326 0.0
C1608 C 0.56848 0.80178 0.908 0.0
C1609 C 0.57335 0.81613 0.90212 0.0
C1610 C 0.55305 0.79864 0.90983 0.0
C1611 C 0.54225 0.80977 0.90575 0.0
C1612 C 0.54712 0.8243 0.90082 0.0
H1613 H 0.45312 0.80758 0.86312 0.0
H1614 H 0.47996 0.80961 0.87022 0.0
C1615 C 0.56249 0.82745 0.89903 0.0
C1616 C 0.52587 0.80627 0.90544 0.0
H1617 H 0.4992 0.78643 0.88134 0.0
C1618 C 0.51614 0.81467 0.91682 0.0
C1619 C 0.5197 0.79585 0.8926 0.0
C1620 C 0.52954 0.78693 0.87948 0.0
C1621 C 0.50038 0.81324 0.91536 0.0
C1622 C 0.49423 0.80298 0.90233 0.0
C1623 C 0.50397 0.79425 0.89136 0.0
C1624 C 0.47778 0.80204 0.89861 0.0
C1625 C 0.49043 0.82321 0.92711 0.0
C1626 C 0.4676 0.79715 0.91226 0.0
C1627 C 0.45216 0.79596 0.90821 0.0
C1628 C 0.4467 0.79951 0.89039 0.0
C1629 C 0.45696 0.80452 0.87687 0.0
C1630 C 0.47231 0.80575 0.88093 0.0
H1631 H 0.4969 0.83248 0.93385 0.0
H1632 H 0.48126 0.82825 0.91862 0.0
H1633 H 0.48513 0.81631 0.93817 0.0
H1634 H 0.47161 0.79399 0.92591 0.0
H1635 H 0.44458 0.7919 0.91885 0.0
H1636 H 0.2131 0.4451 0.92183 0.0
H1637 H 0.21004 0.47209 0.92891 0.0
H1638 H 0.20793 0.48196 0.87037 0.0
H1639 H 0.21113 0.45522 0.86331 0.0
H1640 H 0.22756 0.50041 0.88875 0.0
H1641 H 0.17231 0.49828 0.92522 0.0
H1642 H 0.1869 0.48642 0.93458 0.0
H1643 H 0.17945 0.48259 0.91188 0.0
C1644 C 0.21181 0.45304 0.91053 0.0
C1645 C 0.21244 0.44807 0.89201 0.0
C1646 C 0.21004 0.46844 0.91457 0.0
C1647 C 0.20866 0.47903 0.90016 0.0
C1648 C 0.20905 0.474 0.88171 0.0
H1649 H 0.17422 0.56736 0.88766 0.0
H1650 H 0.179 0.5405 0.89185 0.0
C1651 C 0.21093 0.45872 0.87769 0.0
C1652 C 0.20725 0.49545 0.90393 0.0
H1653 H 0.18362 0.52221 0.9218 0.0
C1654 C 0.21803 0.50519 0.89614 0.0
C1655 C 0.19478 0.50163 0.91352 0.0
C1656 C 0.18261 0.49174 0.92168 0.0
C1657 C 0.21638 0.52094 0.89699 0.0
C1658 C 0.2038 0.52715 0.90634 0.0
C1659 C 0.19331 0.51741 0.91475 0.0
C1660 C 0.20046 0.54357 0.90573 0.0
C1661 C 0.2277 0.53073 0.88694 0.0
C1662 C 0.21074 0.5543 0.9126 0.0
C1663 C 0.20816 0.56976 0.90991 0.0
C1664 C 0.19518 0.57475 0.90044 0.0
C1665 C 0.18452 0.56396 0.89456 0.0
C1666 C 0.18716 0.54856 0.89714 0.0
H1667 H 0.23478 0.52408 0.8772 0.0
H1668 H 0.22192 0.53979 0.879 0.0
H1669 H 0.23531 0.53614 0.89722 0.0
H1670 H 0.22094 0.55071 0.91962 0.0
H1671 H 0.2166 0.57771 0.91465 0.0
H1672 H 0.43887 0.19447 0.91788 0.0
H1673 H 0.46605 0.19614 0.92474 0.0
H1674 H 0.47181 0.22647 0.8785 0.0
H1675 H 0.44487 0.22497 0.87175 0.0
H1676 H 0.49 0.18844 0.89908 0.0
H1677 H 0.49348 0.24804 0.92205 0.0
H1678 H 0.47599 0.23751 0.9219 0.0
H1679 H 0.48313 0.24566 0.90082 0.0
C1680 C 0.44593 0.20164 0.90938 0.0
C1681 C 0.43976 0.20954 0.89423 0.0
C1682 C 0.46143 0.20254 0.91326 0.0
C1683 C 0.47088 0.21157 0.90226 0.0
C1684 C 0.46468 0.21961 0.88734 0.0
H1685 H 0.55934 0.23307 0.8718 0.0
H1686 H 0.53255 0.23053 0.87862 0.0
C1687 C 0.4493 0.21862 0.88337 0.0
C1688 C 0.48741 0.21205 0.90542 0.0
H1689 H 0.51658 0.23678 0.91138 0.0
C1690 C 0.49586 0.1989 0.90219 0.0
C1691 C 0.49496 0.22572 0.90951 0.0
C1692 C 0.48642 0.24001 0.91395 0.0
C1693 C 0.51172 0.19933 0.90161 0.0
C1694 C 0.51925 0.21322 0.90467 0.0
C1695 C 0.51079 0.22616 0.90896 0.0
C1696 C 0.53569 0.21496 0.90142 0.0
C1697 C 0.52023 0.18515 0.89657 0.0
C1698 C 0.54641 0.20722 0.91217 0.0
C1699 C 0.56184 0.20855 0.90818 0.0
C1700 C 0.56677 0.21767 0.89338 0.0
C1701 C 0.55596 0.22571 0.88303 0.0
C1702 C 0.54062 0.22438 0.88702 0.0
H1703 H 0.51259 0.17602 0.89165 0.0
H1704 H 0.52866 0.18753 0.88557 0.0
H1705 H 0.52639 0.18095 0.90894 0.0
H1706 H 0.54285 0.20006 0.92353 0.0
H1707 H 0.56986 0.20219 0.91639 0.0
H1708 H 0.79918 0.43593 0.91044 0.0
H1709 H 0.79519 0.46289 0.91655 0.0
H1710 H 0.83249 0.47388 0.88066 0.0
H1711 H 0.83685 0.44707 0.87499 0.0
H1712 H 0.83142 0.4918 0.91288 0.0
H1713 H 0.77599 0.48961 0.87637 0.0
H1714 H 0.77825 0.47704 0.89574 0.0
H1715 H 0.78941 0.47432 0.87524 0.0
C1716 C 0.80671 0.44407 0.90414 0.0
C1717 C 0.8182 0.43934 0.89199 0.0
C1718 C 0.80433 0.45948 0.90752 0.0
C1719 C 0.81338 0.47039 0.89879 0.0
C1720 C 0.82532 0.46566 0.88745 0.0
H1721 H 0.80081 0.55853 0.85831 0.0
H1722 H 0.80467 0.5319 0.86527 0.0
C1723 C 0.8277 0.45032 0.88408 0.0
C1724 C 0.80995 0.48676 0.90027 0.0
H1725 H 0.7845 0.51337 0.8862 0.0
C1726 C 0.82107 0.49654 0.90732 0.0
C1727 C 0.79648 0.49288 0.89283 0.0
C1728 C 0.78436 0.48298 0.88448 0.0
C1729 C 0.81928 0.51232 0.90657 0.0
C1730 C 0.80599 0.51841 0.8987 0.0
C1731 C 0.79465 0.50862 0.8923 0.0
C1732 C 0.80426 0.5348 0.89504 0.0
C1733 C 0.83191 0.52236 0.91331 0.0
C1734 C 0.80286 0.54533 0.90952 0.0
C1735 C 0.80057 0.56068 0.90555 0.0
C1736 C 0.79953 0.56568 0.88706 0.0
C1737 C 0.80124 0.55507 0.87268 0.0
C1738 C 0.80353 0.53982 0.87664 0.0
H1739 H 0.84228 0.51586 0.91669 0.0
H1740 H 0.83471 0.53097 0.90265 0.0
H1741 H 0.82822 0.52843 0.92599 0.0
H1742 H 0.80323 0.54165 0.92383 0.0
H1743 H 0.79917 0.56854 0.91692 0.0
H1744 H 0.4528 0.18836 0.19236 0.0
H1745 H 0.47936 0.18835 0.18358 0.0
H1746 H 0.46859 0.2132 0.13386 0.0
H1747 H 0.44182 0.21352 0.14284 0.0
H1748 H 0.49396 0.17759 0.1505 0.0
H1749 H 0.50052 0.23968 0.16117 0.0
H1750 H 0.48448 0.22943 0.17008 0.0
H1751 H 0.48589 0.23324 0.14572 0.0
C1752 C 0.45605 0.19387 0.17958 0.0
C1753 C 0.44524 0.20114 0.16843 0.0
C1754 C 0.47122 0.19374 0.17449 0.0
C1755 C 0.47596 0.20093 0.15819 0.0
C1756 C 0.46517 0.20775 0.14662 0.0
H1757 H 0.57339 0.21778 0.14292 0.0
H1758 H 0.54652 0.21617 0.13457 0.0
C1759 C 0.44989 0.20782 0.15168 0.0
C1760 C 0.49232 0.20169 0.15411 0.0
H1761 H 0.52256 0.22554 0.1568 0.0
C1762 C 0.50021 0.18811 0.1515 0.0
C1763 C 0.50043 0.21543 0.1553 0.0
C1764 C 0.49249 0.23031 0.15831 0.0
C1765 C 0.51604 0.18781 0.15104 0.0
C1766 C 0.52418 0.20141 0.1536 0.0
C1767 C 0.51628 0.21512 0.15491 0.0
C1768 C 0.54063 0.20144 0.15738 0.0
C1769 C 0.52392 0.17287 0.14838 0.0
C1770 C 0.54619 0.19376 0.17297 0.0
C1771 C 0.56142 0.19467 0.17775 0.0
C1772 C 0.57146 0.20338 0.16711 0.0
C1773 C 0.56596 0.21088 0.15128 0.0
C1774 C 0.55063 0.21001 0.14654 0.0
H1775 H 0.51676 0.16485 0.14039 0.0
H1776 H 0.53485 0.17429 0.14106 0.0
H1777 H 0.52617 0.16773 0.16215 0.0
H1778 H 0.53864 0.18734 0.18177 0.0
H1779 H 0.56531 0.18862 0.18988 0.0
H1780 H 0.78653 0.56103 0.18854 0.0
H1781 H 0.78836 0.53419 0.18155 0.0
H1782 H 0.81218 0.54438 0.13097 0.0
H1783 H 0.81086 0.57143 0.13824 0.0
H1784 H 0.77784 0.51784 0.15114 0.0
H1785 H 0.84049 0.51455 0.15718 0.0
H1786 H 0.82994 0.53068 0.16531 0.0
H1787 H 0.83304 0.52804 0.14092 0.0
C1788 C 0.79231 0.55762 0.17602 0.0
C1789 C 0.79874 0.56842 0.1641 0.0
C1790 C 0.79322 0.54225 0.17194 0.0
C1791 C 0.80058 0.53726 0.15587 0.0
C1792 C 0.80666 0.54797 0.14361 0.0
H1793 H 0.81744 0.43977 0.13654 0.0
H1794 H 0.81465 0.46683 0.12923 0.0
C1795 C 0.80577 0.56344 0.1477 0.0
C1796 C 0.80196 0.52079 0.15243 0.0
H1797 H 0.82739 0.49176 0.15284 0.0
C1798 C 0.78869 0.51216 0.15121 0.0
C1799 C 0.81614 0.51339 0.15244 0.0
C1800 C 0.83074 0.52207 0.15415 0.0
C1801 C 0.78918 0.49632 0.15088 0.0
C1802 C 0.80329 0.48893 0.15192 0.0
C1803 C 0.8166 0.49752 0.15201 0.0
C1804 C 0.80433 0.4725 0.1555 0.0
C1805 C 0.77458 0.48756 0.15006 0.0
C1806 C 0.79952 0.46684 0.17265 0.0
C1807 C 0.80122 0.45156 0.17687 0.0
C1808 C 0.80773 0.44159 0.16399 0.0
C1809 C 0.8123 0.44721 0.14664 0.0
C1810 C 0.81076 0.46261 0.14249 0.0
H1811 H 0.76524 0.49452 0.14432 0.0
H1812 H 0.77585 0.47722 0.14147 0.0
H1813 H 0.77139 0.48404 0.1643 0.0
H1814 H 0.79468 0.47432 0.18294 0.0
H1815 H 0.79743 0.44754 0.19024 0.0
H1816 H 0.45497 0.77732 0.18829 0.0
H1817 H 0.48187 0.7822 0.18402 0.0
H1818 H 0.47141 0.82012 0.14877 0.0
H1819 H 0.44433 0.81529 0.15302 0.0
H1820 H 0.49627 0.80144 0.13613 0.0
H1821 H 0.50202 0.81875 0.2098 0.0
H1822 H 0.49365 0.80044 0.20665 0.0
H1823 H 0.48394 0.81698 0.19844 0.0
C1824 C 0.45837 0.78671 0.17964 0.0
C1825 C 0.44751 0.79608 0.17125 0.0
C1826 C 0.47374 0.78945 0.17716 0.0
C1827 C 0.47861 0.80168 0.16636 0.0
C1828 C 0.46786 0.81065 0.15722 0.0
H1829 H 0.56798 0.83992 0.17962 0.0
H1830 H 0.54085 0.83645 0.17515 0.0
C1831 C 0.45241 0.80787 0.15964 0.0
C1832 C 0.4949 0.80547 0.16552 0.0
H1833 H 0.52472 0.81534 0.19296 0.0
C1834 C 0.50252 0.80458 0.1485 0.0
C1835 C 0.50295 0.80976 0.18165 0.0
C1836 C 0.49522 0.8117 0.20015 0.0
C1837 C 0.51811 0.80749 0.14729 0.0
C1838 C 0.52625 0.8112 0.16358 0.0
C1839 C 0.51851 0.81241 0.18049 0.0
C1840 C 0.5428 0.81394 0.16367 0.0
C1841 C 0.52567 0.80674 0.12859 0.0
C1842 C 0.55298 0.80255 0.15836 0.0
C1843 C 0.56854 0.80457 0.16083 0.0
C1844 C 0.57414 0.8179 0.16893 0.0
C1845 C 0.56396 0.82946 0.17358 0.0
C1846 C 0.54847 0.8275 0.17097 0.0
H1847 H 0.51739 0.80802 0.11711 0.0
H1848 H 0.53444 0.81565 0.12722 0.0
H1849 H 0.53123 0.79558 0.12702 0.0
H1850 H 0.54886 0.79186 0.15307 0.0
H1851 H 0.57612 0.79542 0.15731 0.0
H1852 H 0.19686 0.44085 0.16781 0.0
H1853 H 0.19154 0.46803 0.16747 0.0
H1854 H 0.23682 0.47685 0.14854 0.0
H1855 H 0.24216 0.44974 0.14862 0.0
H1856 H 0.20881 0.49028 0.18849 0.0
H1857 H 0.20912 0.50152 0.11263 0.0
H1858 H 0.2063 0.48285 0.12214 0.0
H1859 H 0.22488 0.49094 0.12152 0.0
C1860 C 0.2056 0.44856 0.16331 0.0
C1861 C 0.21994 0.44313 0.15827 0.0
C1862 C 0.20257 0.46407 0.16319 0.0
C1863 C 0.21374 0.47441 0.15779 0.0
C1864 C 0.22799 0.46904 0.15251 0.0
H1865 H 0.22024 0.57251 0.1551 0.0
H1866 H 0.22414 0.54529 0.15067 0.0
C1867 C 0.23106 0.45355 0.15276 0.0
C1868 C 0.21082 0.49087 0.15877 0.0
H1869 H 0.20799 0.52285 0.13248 0.0
C1870 C 0.20853 0.4974 0.17625 0.0
C1871 C 0.21064 0.50011 0.14278 0.0
C1872 C 0.21275 0.49354 0.12365 0.0
C1873 C 0.20629 0.51301 0.17824 0.0
C1874 C 0.2059 0.52228 0.16223 0.0
C1875 C 0.20824 0.51573 0.14472 0.0
C1876 C 0.20304 0.53877 0.16348 0.0
C1877 C 0.20476 0.51947 0.19753 0.0
C1878 C 0.18967 0.54414 0.17154 0.0
C1879 C 0.18748 0.55961 0.17415 0.0
C1880 C 0.19851 0.57006 0.16851 0.0
C1881 C 0.21154 0.56473 0.15953 0.0
C1882 C 0.21379 0.54919 0.15706 0.0
H1883 H 0.20958 0.51177 0.20817 0.0
H1884 H 0.21047 0.5306 0.19866 0.0
H1885 H 0.19261 0.52105 0.20074 0.0
H1886 H 0.18102 0.53634 0.1761 0.0
H1887 H 0.1772 0.56342 0.18075 0.0
H1888 H 0.15294 0.30677 0.45026 0.0
H1889 H 0.15388 0.30928 0.48406 0.0
H1890 H 0.12441 0.34794 0.48106 0.0
H1891 H 0.12326 0.34545 0.4473 0.0
H1892 H 0.16261 0.33343 0.50767 0.0
H1893 H 0.10195 0.31904 0.51601 0.0
H1894 H 0.11202 0.31591 0.49462 0.0
H1895 H 0.10563 0.33455 0.50062 0.0
C1896 C 0.14674 0.31589 0.45675 0.0
C1897 C 0.13791 0.32583 0.44603 0.0
C1898 C 0.1473 0.31731 0.4761 0.0
C1899 C 0.139 0.32862 0.48513 0.0
C1900 C 0.13067 0.33893 0.47443 0.0
H1901 H 0.12014 0.3469 0.60164 0.0
H1902 H 0.12257 0.34852 0.56791 0.0
C1903 C 0.1301 0.33754 0.45509 0.0
C1904 C 0.13871 0.32936 0.50575 0.0
H1905 H 0.11517 0.32627 0.54306 0.0
C1906 C 0.15225 0.33187 0.51543 0.0
C1907 C 0.12518 0.3273 0.51586 0.0
C1908 C 0.11038 0.32391 0.50631 0.0
C1909 C 0.15259 0.33256 0.53493 0.0
C1910 C 0.13907 0.33042 0.54504 0.0
C1911 C 0.12553 0.32799 0.53533 0.0
C1912 C 0.13868 0.33024 0.56569 0.0
C1913 C 0.16739 0.33586 0.54451 0.0
C1914 C 0.14699 0.31949 0.57575 0.0
C1915 C 0.14566 0.31856 0.59507 0.0
C1916 C 0.13588 0.32829 0.60476 0.0
C1917 C 0.1278 0.33924 0.59468 0.0
C1918 C 0.12915 0.34017 0.57536 0.0
H1919 H 0.17552 0.34149 0.53503 0.0
H1920 H 0.1657 0.34315 0.55687 0.0
H1921 H 0.17252 0.32507 0.54916 0.0
H1922 H 0.15416 0.31148 0.56861 0.0
H1923 H 0.15198 0.30992 0.60234 0.0
H1924 H 0.70133 0.15271 0.60597 0.0
H1925 H 0.70089 0.15389 0.5721 0.0
H1926 H 0.66279 0.12355 0.57101 0.0
H1927 H 0.66324 0.12216 0.60487 0.0
H1928 H 0.68611 0.11442 0.54825 0.0
H1929 H 0.67266 0.17468 0.53535 0.0
H1930 H 0.68825 0.17188 0.55091 0.0
H1931 H 0.66967 0.16576 0.55757 0.0
C1932 C 0.69268 0.14649 0.59857 0.0
C1933 C 0.68233 0.13732 0.60819 0.0
C1934 C 0.6924 0.14724 0.57918 0.0
C1935 C 0.68171 0.13893 0.56899 0.0
C1936 C 0.6711 0.13011 0.57857 0.0
H1937 H 0.67256 0.11881 0.4505 0.0
H1938 H 0.66816 0.12107 0.48389 0.0
C1939 C 0.67137 0.12935 0.59796 0.0
C1940 C 0.68237 0.13845 0.54839 0.0
H1941 H 0.68156 0.16047 0.50945 0.0
C1942 C 0.68495 0.12446 0.53975 0.0
C1943 C 0.68095 0.15157 0.53731 0.0
C1944 C 0.67759 0.16681 0.54572 0.0
C1945 C 0.68656 0.12329 0.52043 0.0
C1946 C 0.68526 0.13643 0.50934 0.0
C1947 C 0.68253 0.1504 0.51795 0.0
C1948 C 0.68717 0.13591 0.48886 0.0
C1949 C 0.69016 0.10806 0.51211 0.0
C1950 C 0.69895 0.14396 0.48042 0.0
C1951 C 0.70143 0.14279 0.46131 0.0
C1952 C 0.69213 0.13357 0.45021 0.0
C1953 C 0.68 0.12593 0.45862 0.0
C1954 C 0.67752 0.12714 0.47774 0.0
H1955 H 0.69443 0.1 0.5227 0.0
H1956 H 0.67975 0.10319 0.50596 0.0
H1957 H 0.69872 0.10911 0.50096 0.0
H1958 H 0.70649 0.15086 0.48871 0.0
H1959 H 0.71085 0.14888 0.45532 0.0
H1960 H 0.84344 0.69336 0.45527 0.0
H1961 H 0.84573 0.6886 0.4886 0.0
H1962 H 0.89272 0.67741 0.4816 0.0
H1963 H 0.89057 0.68212 0.44822 0.0
H1964 H 0.85719 0.66142 0.50912 0.0
H1965 H 0.89126 0.71367 0.51956 0.0
H1966 H 0.87985 0.71069 0.4991 0.0
H1967 H 0.89738 0.70079 0.50178 0.0
C1968 C 0.85423 0.68972 0.46075 0.0
C1969 C 0.86684 0.68822 0.44905 0.0
C1970 C 0.85551 0.68698 0.47981 0.0
C1971 C 0.86943 0.68282 0.48759 0.0
C1972 C 0.88191 0.68076 0.47589 0.0
H1973 H 0.89431 0.68424 0.60539 0.0
H1974 H 0.89546 0.68006 0.57181 0.0
C1975 C 0.88063 0.6834 0.4568 0.0
C1976 C 0.871 0.68141 0.50803 0.0
H1977 H 0.88569 0.69926 0.54599 0.0
C1978 C 0.8635 0.66962 0.5172 0.0
C1979 C 0.87933 0.69205 0.51851 0.0
C1980 C 0.88737 0.7051 0.50935 0.0
C1981 C 0.86399 0.66828 0.53664 0.0
C1982 C 0.87185 0.67927 0.54722 0.0
C1983 C 0.87969 0.69081 0.53794 0.0
C1984 C 0.87123 0.67973 0.56788 0.0
C1985 C 0.85615 0.65503 0.54561 0.0
C1986 C 0.85725 0.68072 0.57695 0.0
C1987 C 0.85656 0.68296 0.59612 0.0
C1988 C 0.86984 0.68451 0.6067 0.0
C1989 C 0.88386 0.68303 0.59771 0.0
C1990 C 0.88453 0.6807 0.57849 0.0
H1991 H 0.85553 0.64523 0.536 0.0
H1992 H 0.862 0.65145 0.5585 0.0
H1993 H 0.84441 0.6583 0.54915 0.0
H1994 H 0.84682 0.68042 0.5691 0.0
H1995 H 0.84557 0.68414 0.6025 0.0
H1996 H 0.34729 0.89392 0.60281 0.0
H1997 H 0.3474 0.89217 0.56896 0.0
H1998 H 0.31208 0.85869 0.57117 0.0
H1999 H 0.3117 0.86053 0.60504 0.0
H2000 H 0.35193 0.86826 0.54415 0.0
H2001 H 0.29387 0.89137 0.53791 0.0
H2002 H 0.30449 0.89213 0.55927 0.0
H2003 H 0.29536 0.87489 0.55231 0.0
C2004 C 0.33962 0.88607 0.59614 0.0
C2005 C 0.32938 0.87747 0.60669 0.0
C2006 C 0.33971 0.88509 0.57676 0.0
C2007 C 0.32955 0.87553 0.56748 0.0
C2008 C 0.3198 0.8664 0.57799 0.0
H2009 H 0.30699 0.86291 0.45089 0.0
H2010 H 0.30955 0.8605 0.48452 0.0
C2011 C 0.31967 0.86739 0.59739 0.0
C2012 C 0.32885 0.8755 0.54684 0.0
H2013 H 0.3055 0.88315 0.51024 0.0
C2014 C 0.34179 0.87151 0.53672 0.0
C2015 C 0.31562 0.87981 0.53714 0.0
C2016 C 0.30157 0.88493 0.54717 0.0
C2017 C 0.34178 0.8715 0.51719 0.0
C2018 C 0.32855 0.87583 0.50751 0.0
C2019 C 0.31561 0.87977 0.51765 0.0
C2020 C 0.32786 0.87658 0.48689 0.0
C2021 C 0.35585 0.86658 0.50711 0.0
C2022 C 0.33732 0.8864 0.47694 0.0
C2023 C 0.3359 0.8878 0.45765 0.0
C2024 C 0.32491 0.87947 0.4479 0.0
C2025 C 0.3156 0.86949 0.45789 0.0
C2026 C 0.31703 0.8681 0.47716 0.0
H2027 H 0.36338 0.85977 0.51616 0.0
H2028 H 0.353 0.85984 0.49459 0.0
H2029 H 0.36221 0.87674 0.5026 0.0
H2030 H 0.34555 0.89331 0.48416 0.0
H2031 H 0.3432 0.89567 0.45046 0.0
H2032 H 0.1176 0.69592 0.4558 0.0
H2033 H 0.11814 0.69419 0.48969 0.0
H2034 H 0.16652 0.69951 0.48915 0.0
H2035 H 0.16609 0.70149 0.45534 0.0
H2036 H 0.13319 0.67512 0.51508 0.0
H2037 H 0.15237 0.73461 0.52175 0.0
H2038 H 0.14533 0.72692 0.50023 0.0
H2039 H 0.16434 0.72303 0.50758 0.0
C2040 C 0.12839 0.69656 0.46286 0.0
C2041 C 0.14179 0.69902 0.45283 0.0
C2042 C 0.12867 0.69557 0.48225 0.0
C2043 C 0.14233 0.69704 0.49198 0.0
C2044 C 0.15581 0.69869 0.48196 0.0
H2045 H 0.16599 0.70634 0.60831 0.0
H2046 H 0.1662 0.70222 0.57481 0.0
C2047 C 0.15554 0.69973 0.4626 0.0
C2048 C 0.14242 0.69753 0.5126 0.0
H2049 H 0.1513 0.72026 0.54935 0.0
C2050 C 0.13713 0.68498 0.52259 0.0
C2051 C 0.14749 0.71045 0.52239 0.0
C2052 C 0.15258 0.72458 0.51248 0.0
C2053 C 0.13705 0.68491 0.54212 0.0
C2054 C 0.14219 0.6978 0.55188 0.0
C2055 C 0.14745 0.71034 0.54187 0.0
C2056 C 0.14209 0.69874 0.57248 0.0
C2057 C 0.13174 0.67092 0.55214 0.0
C2058 C 0.12848 0.69803 0.5824 0.0
C2059 C 0.12831 0.70037 0.60162 0.0
C2060 C 0.14176 0.70358 0.61129 0.0
C2061 C 0.15542 0.7039 0.60136 0.0
C2062 C 0.15557 0.70156 0.58217 0.0
H2063 H 0.13199 0.66082 0.543 0.0
H2064 H 0.13881 0.66867 0.56457 0.0
H2065 H 0.11993 0.67262 0.55679 0.0
H2066 H 0.1179 0.69617 0.5752 0.0
H2067 H 0.11758 0.70012 0.6088 0.0
H2068 H 0.30598 0.16661 0.45882 0.0
H2069 H 0.30856 0.16659 0.49257 0.0
H2070 H 0.32052 0.11939 0.49129 0.0
H2071 H 0.31822 0.11936 0.45748 0.0
H2072 H 0.29165 0.14976 0.51639 0.0
H2073 H 0.35224 0.1362 0.5264 0.0
H2074 H 0.34466 0.14225 0.50436 0.0
H2075 H 0.34239 0.12301 0.51184 0.0
C2076 C 0.30941 0.15627 0.46566 0.0
C2077 C 0.3119 0.14299 0.45539 0.0
C2078 C 0.31086 0.15628 0.48499 0.0
C2079 C 0.31489 0.14304 0.49451 0.0
C2080 C 0.31772 0.12983 0.48427 0.0
H2081 H 0.31421 0.11762 0.61134 0.0
H2082 H 0.31707 0.1182 0.57752 0.0
C2083 C 0.31632 0.12982 0.46491 0.0
C2084 C 0.31491 0.1428 0.51517 0.0
H2085 H 0.33667 0.13524 0.55331 0.0
C2086 C 0.30154 0.14669 0.52444 0.0
C2087 C 0.32777 0.13868 0.52571 0.0
C2088 C 0.34262 0.13493 0.5166 0.0
C2089 C 0.3006 0.14641 0.54388 0.0
C2090 C 0.31346 0.14236 0.55443 0.0
C2091 C 0.32683 0.13837 0.5452 0.0
C2092 C 0.31313 0.14223 0.57505 0.0
C2093 C 0.28572 0.15016 0.55297 0.0
C2094 C 0.31044 0.15562 0.58494 0.0
C2095 C 0.3088 0.15534 0.60423 0.0
C2096 C 0.30988 0.14165 0.61408 0.0
C2097 C 0.31326 0.12835 0.60421 0.0
C2098 C 0.31491 0.12865 0.58487 0.0
H2099 H 0.27615 0.14938 0.54303 0.0
H2100 H 0.28347 0.14248 0.56481 0.0
H2101 H 0.28615 0.1619 0.55835 0.0
H2102 H 0.3093 0.16627 0.57768 0.0
H2103 H 0.30631 0.16582 0.61135 0.0
H2104 H 0.85055 0.31372 0.45149 0.0
H2105 H 0.85049 0.31657 0.48521 0.0
H2106 H 0.89871 0.32325 0.48473 0.0
H2107 H 0.89884 0.32071 0.45096 0.0
H2108 H 0.86495 0.29794 0.50924 0.0
H2109 H 0.88543 0.35655 0.51968 0.0
H2110 H 0.87883 0.34975 0.49748 0.0
H2111 H 0.89758 0.34528 0.50537 0.0
C2112 C 0.86112 0.31608 0.45849 0.0
C2113 C 0.8747 0.31698 0.44847 0.0
C2114 C 0.86107 0.31768 0.4778 0.0
C2115 C 0.87457 0.32028 0.48755 0.0
C2116 C 0.8881 0.32159 0.47754 0.0
H2117 H 0.899 0.31495 0.60446 0.0
H2118 H 0.89896 0.31876 0.57077 0.0
C2119 C 0.88816 0.32005 0.4582 0.0
C2120 C 0.87462 0.32025 0.50821 0.0
H2121 H 0.88449 0.34084 0.54655 0.0
C2122 C 0.86911 0.30739 0.51737 0.0
C2123 C 0.88017 0.33252 0.51886 0.0
C2124 C 0.88571 0.34687 0.50987 0.0
C2125 C 0.86915 0.30636 0.5368 0.0
C2126 C 0.87466 0.31862 0.54745 0.0
C2127 C 0.88025 0.33147 0.53835 0.0
C2128 C 0.87465 0.31814 0.56806 0.0
C2129 C 0.8636 0.29198 0.54577 0.0
C2130 C 0.86098 0.31708 0.5778 0.0
C2131 C 0.86096 0.31491 0.59701 0.0
C2132 C 0.87461 0.3138 0.60693 0.0
C2133 C 0.88828 0.31571 0.59727 0.0
C2134 C 0.88829 0.31788 0.57801 0.0
H2135 H 0.86317 0.28244 0.53577 0.0
H2136 H 0.87096 0.28873 0.5576 0.0
H2137 H 0.85202 0.29382 0.55118 0.0
H2138 H 0.85032 0.31751 0.57044 0.0
H2139 H 0.85022 0.31361 0.60398 0.0
H2140 H 0.67451 0.90632 0.61155 0.0
H2141 H 0.67175 0.90519 0.57774 0.0
H2142 H 0.70813 0.87294 0.57487 0.0
H2143 H 0.71089 0.87387 0.60854 0.0
H2144 H 0.6937 0.91258 0.55158 0.0
H2145 H 0.67565 0.85306 0.54281 0.0
H2146 H 0.67495 0.86268 0.56489 0.0
H2147 H 0.69249 0.85509 0.55648 0.0
C2148 C 0.6818 0.89883 0.60376 0.0
C2149 C 0.6929 0.89016 0.61281 0.0
C2150 C 0.68022 0.89822 0.58442 0.0
C2151 C 0.68959 0.88882 0.57378 0.0
C2152 C 0.70055 0.88003 0.5828 0.0
H2153 H 0.71201 0.8731 0.45952 0.0
H2154 H 0.70879 0.87289 0.49316 0.0
C2155 C 0.70217 0.88066 0.60208 0.0
C2156 C 0.6886 0.88885 0.55317 0.0
H2157 H 0.68416 0.86578 0.51551 0.0
C2158 C 0.69142 0.9024 0.54368 0.0
C2159 C 0.68566 0.87554 0.54288 0.0
C2160 C 0.68187 0.86079 0.55227 0.0
C2161 C 0.69198 0.90289 0.52419 0.0
C2162 C 0.68935 0.88951 0.5139 0.0
C2163 C 0.6862 0.87603 0.5234 0.0
C2164 C 0.69055 0.88914 0.49332 0.0
C2165 C 0.696 0.91761 0.51485 0.0
C2166 C 0.68113 0.89808 0.48212 0.0
C2167 C 0.68297 0.89826 0.46281 0.0
C2168 C 0.69421 0.88943 0.45432 0.0
C2169 C 0.70327 0.88009 0.46556 0.0
C2170 C 0.70144 0.87994 0.48482 0.0
H2171 H 0.7011 0.92581 0.52471 0.0
H2172 H 0.70404 0.91571 0.50328 0.0
H2173 H 0.68562 0.92278 0.50902 0.0
H2174 H 0.67244 0.90503 0.48832 0.0
H2175 H 0.67573 0.90551 0.4546 0.0
H2176 H 0.65312 0.8121 0.11242 0.0
H2177 H 0.65598 0.81392 0.07876 0.0
H2178 H 0.62332 0.85 0.07734 0.0
H2179 H 0.62053 0.84842 0.111 0.0
H2180 H 0.63345 0.80915 0.05313 0.0
H2181 H 0.65685 0.86684 0.04479 0.0
H2182 H 0.65671 0.85713 0.0668 0.0
H2183 H 0.6399 0.86622 0.05837 0.0
C2184 C 0.64671 0.8206 0.10501 0.0
C2185 C 0.63659 0.83013 0.11446 0.0
C2186 C 0.64835 0.8216 0.08574 0.0
C2187 C 0.64 0.83221 0.07551 0.0
C2188 C 0.63013 0.84195 0.08494 0.0
H2189 H 0.62043 0.84852 0.95979 0.0
H2190 H 0.62306 0.84949 0.99354 0.0
C2191 C 0.62848 0.84096 0.10422 0.0
C2192 C 0.64076 0.83231 0.05489 0.0
H2193 H 0.64772 0.85481 1.01733 0.0
C2194 C 0.63673 0.81909 0.0453 0.0
C2195 C 0.64496 0.8453 0.04468 0.0
C2196 C 0.64999 0.85964 0.05417 0.0
C2197 C 0.63638 0.81861 1.02583 0.0
C2198 C 0.64046 0.83164 1.0156 0.0
C2199 C 0.64462 0.84483 1.02517 0.0
C2200 C 0.63994 0.83188 0.99498 0.0
C2201 C 0.63113 0.80431 1.01639 0.0
C2202 C 0.64891 0.82198 0.98449 0.0
C2203 C 0.64741 0.82136 0.96516 0.0
C2204 C 0.63698 0.83071 0.95592 0.0
C2205 C 0.62854 0.84111 0.96642 0.0
C2206 C 0.63003 0.8417 0.98574 0.0
H2207 H 0.62499 0.79673 1.02608 0.0
H2208 H 0.62361 0.80692 1.00448 0.0
H2209 H 0.64108 0.79808 1.01106 0.0
H2210 H 0.65686 0.81452 0.99129 0.0
H2211 H 0.65417 0.81329 0.95753 0.0
H2212 H 0.16162 0.62172 0.95562 0.0
H2213 H 0.15969 0.62281 0.98942 0.0
H2214 H 0.19768 0.65325 0.99144 0.0
H2215 H 0.1996 0.65237 0.95764 0.0
H2216 H 0.18203 0.61357 1.0137 0.0
H2217 H 0.16777 0.67368 1.02638 0.0
H2218 H 0.1658 0.66492 1.00387 0.0
H2219 H 0.18404 0.67103 1.01191 0.0
C2220 C 0.16941 0.62887 0.9632 0.0
C2221 C 0.18077 0.63696 0.95387 0.0
C2222 C 0.1683 0.62945 0.98255 0.0
C2223 C 0.17844 0.63822 0.99299 0.0
C2224 C 0.18954 0.64664 0.98369 0.0
H2225 H 0.20225 0.64721 0.10883 0.0
H2226 H 0.19941 0.64961 0.07522 0.0
C2227 C 0.19066 0.64606 0.96433 0.0
C2228 C 0.17819 0.63758 1.0136 0.0
H2229 H 0.17549 0.65928 0.0527 0.0
C2230 C 0.18044 0.62354 1.02223 0.0
C2231 C 0.17621 0.65061 1.02472 0.0
C2232 C 0.17318 0.6659 1.01628 0.0
C2233 C 0.18117 0.62221 0.04163 0.0
C2234 C 0.17928 0.63525 0.05277 0.0
C2235 C 0.1769 0.64929 0.04416 0.0
C2236 C 0.18022 0.63456 0.07335 0.0
C2237 C 0.18446 0.60693 0.04999 0.0
C2238 C 0.17012 0.62562 0.08358 0.0
C2239 C 0.17173 0.62417 0.10282 0.0
C2240 C 0.18343 0.63174 0.11225 0.0
C2241 C 0.19315 0.64117 0.10204 0.0
C2242 C 0.19154 0.64258 0.0828 0.0
H2243 H 0.18928 0.59899 0.03963 0.0
H2244 H 0.19247 0.60793 0.06179 0.0
H2245 H 0.17381 0.60194 0.05526 0.0
H2246 H 0.16109 0.61958 0.07664 0.0
H2247 H 0.16398 0.6169 0.11024 0.0
H2248 H 0.34599 0.20178 0.11043 0.0
H2249 H 0.34592 0.19858 0.07679 0.0
H2250 H 0.39273 0.18531 0.07849 0.0
H2251 H 0.39284 0.18824 0.11227 0.0
H2252 H 0.36325 0.21464 0.05255 0.0
H2253 H 0.37488 0.1534 0.04424 0.0
H2254 H 0.36908 0.16154 0.06605 0.0
H2255 H 0.38832 0.16326 0.05845 0.0
C2256 C 0.35622 0.19794 0.10373 0.0
C2257 C 0.36942 0.19527 0.1141 0.0
C2258 C 0.35616 0.19613 0.08445 0.0
C2259 C 0.36927 0.19157 0.07506 0.0
C2260 C 0.38238 0.18853 0.08541 0.0
H2261 H 0.39117 0.18904 0.95672 0.0
H2262 H 0.39198 0.18687 0.99064 0.0
C2263 C 0.38244 0.19029 0.10475 0.0
C2264 C 0.36942 0.19117 0.0544 0.0
H2265 H 0.37533 0.1683 1.01681 0.0
C2266 C 0.36582 0.20448 0.04477 0.0
C2267 C 0.37291 0.17794 0.0442 0.0
C2268 C 0.37639 0.16318 0.05373 0.0
C2269 C 0.36566 0.20497 1.0253 0.0
C2270 C 0.36895 0.19172 1.01509 0.0
C2271 C 0.37276 0.17843 1.02466 0.0
C2272 C 0.36822 0.19152 0.99448 0.0
C2273 C 0.36217 0.21976 1.01581 0.0
C2274 C 0.35451 0.19436 0.98534 0.0
C2275 C 0.354 0.1956 0.96602 0.0
C2276 C 0.36719 0.19396 0.95535 0.0
C2277 C 0.3808 0.19039 0.96448 0.0
C2278 C 0.38129 0.18916 0.98387 0.0
H2279 H 0.36367 0.22954 1.02531 0.0
H2280 H 0.3695 0.22142 1.0035 0.0
H2281 H 0.35025 0.21968 1.01105 0.0
H2282 H 0.34424 0.19595 0.99322 0.0
H2283 H 0.3433 0.19824 0.95949 0.0
H2284 H 0.81059 0.36444 0.10354 0.0
H2285 H 0.8133 0.36217 0.06992 0.0
H2286 H 0.84772 0.39663 0.07056 0.0
H2287 H 0.84522 0.39887 0.10424 0.0
H2288 H 0.80818 0.38495 0.04442 0.0
H2289 H 0.86696 0.36391 0.03833 0.0
H2290 H 0.85659 0.36336 0.05987 0.0
H2291 H 0.86505 0.38071 0.05212 0.0
C2292 C 0.8189 0.3714 0.0966 0.0
C2293 C 0.8277 0.38183 0.10665 0.0
C2294 C 0.82041 0.3701 0.07735 0.0
C2295 C 0.83083 0.3791 0.0677 0.0
C2296 C 0.83982 0.38933 0.07771 0.0
H2297 H 0.84889 0.39642 0.9512 0.0
H2298 H 0.84935 0.39526 0.98511 0.0
C2299 C 0.83832 0.39066 0.09699 0.0
C2300 C 0.8315 0.37848 0.04708 0.0
H2301 H 0.855 0.3718 1.0104 0.0
C2302 C 0.81839 0.38196 0.03699 0.0
C2303 C 0.84485 0.37468 0.03738 0.0
C2304 C 0.85914 0.37032 0.04745 0.0
C2305 C 0.81831 0.38202 1.0175 0.0
C2306 C 0.83164 0.37818 1.00777 0.0
C2307 C 0.84477 0.3747 1.01785 0.0
C2308 C 0.83216 0.37797 0.98714 0.0
C2309 C 0.80404 0.3866 1.00752 0.0
C2310 C 0.82268 0.36831 0.97695 0.0
C2311 C 0.82236 0.36897 0.95756 0.0
C2312 C 0.83161 0.37923 0.94791 0.0
C2313 C 0.84159 0.38841 0.95814 0.0
C2314 C 0.84187 0.38777 0.97755 0.0
H2315 H 0.79622 0.3929 1.01675 0.0
H2316 H 0.80663 0.39377 0.99529 0.0
H2317 H 0.79809 0.37632 1.00257 0.0
H2318 H 0.81533 0.36042 0.98403 0.0
H2319 H 0.81461 0.36165 0.95015 0.0
H2320 H 0.66815 0.20465 0.10439 0.0
H2321 H 0.66638 0.20186 0.07071 0.0
H2322 H 0.6198 0.18839 0.07579 0.0
H2323 H 0.62138 0.19131 0.10951 0.0
H2324 H 0.65795 0.17727 0.04719 0.0
H2325 H 0.61818 0.22568 0.04162 0.0
H2326 H 0.62887 0.22187 0.06243 0.0
H2327 H 0.61246 0.21077 0.05699 0.0
C2328 C 0.65756 0.20093 0.0984 0.0
C2329 C 0.64486 0.19835 0.10968 0.0
C2330 C 0.65658 0.19933 0.07912 0.0
C2331 C 0.64289 0.19518 0.07071 0.0
C2332 C 0.6304 0.19188 0.08197 0.0
H2333 H 0.61714 0.19815 0.95343 0.0
H2334 H 0.61726 0.19298 0.9868 0.0
C2335 C 0.63136 0.19346 0.10126 0.0
C2336 C 0.64156 0.19506 0.05016 0.0
H2337 H 0.62457 0.21321 1.01392 0.0
C2338 C 0.6506 0.18507 0.0399 0.0
C2339 C 0.63196 0.20523 0.04067 0.0
C2340 C 0.62238 0.21659 0.05092 0.0
C2341 C 0.65031 0.18502 1.02039 0.0
C2342 C 0.64096 0.19545 1.01089 0.0
C2343 C 0.6317 0.2052 1.02118 0.0
C2344 C 0.64118 0.19707 0.99035 0.0
C2345 C 0.65996 0.17374 1.01015 0.0
C2346 C 0.65458 0.20102 0.98119 0.0
C2347 C 0.65456 0.20394 0.96213 0.0
C2348 C 0.64109 0.20312 0.9518 0.0
C2349 C 0.62772 0.19885 0.96093 0.0
C2350 C 0.62776 0.19591 0.98002 0.0
H2351 H 0.66255 0.16374 1.01891 0.0
H2352 H 0.65433 0.16983 0.99723 0.0
H2353 H 0.67083 0.17914 1.00634 0.0
H2354 H 0.66501 0.20234 0.9889 0.0
H2355 H 0.66505 0.20727 0.95561 0.0
H2356 H 0.80315 0.66414 0.09735 0.0
H2357 H 0.80701 0.66238 0.06388 0.0
H2358 H 0.82075 0.61591 0.06978 0.0
H2359 H 0.81671 0.61748 0.10334 0.0
H2360 H 0.83219 0.65484 0.04205 0.0
H2361 H 0.78558 0.61335 0.03291 0.0
H2362 H 0.78824 0.62383 0.05413 0.0
H2363 H 0.80011 0.60792 0.04898 0.0
C2364 C 0.80711 0.65356 0.0916 0.0
C2365 C 0.80948 0.64091 0.10306 0.0
C2366 C 0.80933 0.65258 0.07243 0.0
C2367 C 0.81391 0.63894 0.06426 0.0
C2368 C 0.81692 0.62647 0.07573 0.0
H2369 H 0.81555 0.61594 0.94566 0.0
H2370 H 0.82004 0.61512 0.97922 0.0
C2371 C 0.8147 0.62742 0.09494 0.0
C2372 C 0.81494 0.63775 0.04371 0.0
H2373 H 0.79869 0.62072 1.00607 0.0
C2374 C 0.82494 0.64731 0.03418 0.0
C2375 C 0.8055 0.62789 0.03343 0.0
C2376 C 0.79415 0.61773 0.04281 0.0
C2377 C 0.82563 0.6474 1.01469 0.0
C2378 C 0.81587 0.63787 1.00441 0.0
C2379 C 0.8062 0.628 1.01394 0.0
C2380 C 0.8147 0.63868 0.98382 0.0
C2381 C 0.83682 0.65771 1.0053 0.0
C2382 C 0.8103 0.6522 0.9752 0.0
C2383 C 0.80774 0.65271 0.95607 0.0
C2384 C 0.80943 0.63967 0.94508 0.0
C2385 C 0.81422 0.62621 0.95366 0.0
C2386 C 0.81675 0.62571 0.97286 0.0
H2387 H 0.84646 0.66044 1.0146 0.0
H2388 H 0.84128 0.65255 0.99238 0.0
H2389 H 0.83114 0.66847 1.00162 0.0
H2390 H 0.80832 0.66227 0.98337 0.0
H2391 H 0.80401 0.66325 0.94998 0.0
H2392 H 0.34932 0.80585 0.95495 0.0
H2393 H 0.34989 0.80886 0.98863 0.0
H2394 H 0.39826 0.81415 0.98695 0.0
H2395 H 0.39778 0.81136 0.95317 0.0
H2396 H 0.36465 0.78984 1.01264 0.0
H2397 H 0.38584 0.84843 1.02156 0.0
H2398 H 0.37857 0.8415 0.99974 0.0
H2399 H 0.39739 0.83673 1.00699 0.0
C2400 C 0.36007 0.80791 0.96167 0.0
C2401 C 0.37351 0.80835 0.9513 0.0
C2402 C 0.36037 0.80961 0.98096 0.0
C2403 C 0.37409 0.81187 0.99036 0.0
C2404 C 0.38749 0.81272 0.98002 0.0
H2405 H 0.39854 0.81006 0.10772 0.0
H2406 H 0.39861 0.81264 0.07386 0.0
C2407 C 0.38721 0.81104 0.96068 0.0
C2408 C 0.37441 0.81208 1.01101 0.0
H2409 H 0.38438 0.83331 0.04878 0.0
C2410 C 0.36889 0.79939 1.02052 0.0
C2411 C 0.38006 0.82449 1.02132 0.0
C2412 C 0.38569 0.83862 1.01192 0.0
C2413 C 0.36897 0.79869 0.03998 0.0
C2414 C 0.37447 0.81114 0.05031 0.0
C2415 C 0.38013 0.8238 0.04085 0.0
C2416 C 0.37434 0.81111 0.07096 0.0
C2417 C 0.36344 0.78446 0.0493 0.0
C2418 C 0.36066 0.80991 0.08064 0.0
C2419 C 0.36058 0.80841 0.09995 0.0
C2420 C 0.37418 0.80818 0.11005 0.0
C2421 C 0.38785 0.81016 0.1004 0.0
C2422 C 0.38792 0.81163 0.08103 0.0
H2423 H 0.36332 0.77469 0.03961 0.0
H2424 H 0.37061 0.78156 0.06143 0.0
H2425 H 0.35173 0.78625 0.05428 0.0
H2426 H 0.35003 0.8098 0.07319 0.0
H2427 H 0.34983 0.80704 0.1069 0.0
H2428 H 0.1937 0.39864 0.94955 0.0
H2429 H 0.18961 0.39866 0.98318 0.0
H2430 H 0.1903 0.34996 0.98339 0.0
H2431 H 0.19469 0.34982 0.94996 0.0
H2432 H 0.16808 0.38602 1.00726 0.0
H2433 H 0.22465 0.3608 1.01864 0.0
H2434 H 0.21882 0.36828 0.9965 0.0
H2435 H 0.2128 0.34976 1.00364 0.0
C2436 C 0.19277 0.38793 0.95672 0.0
C2437 C 0.19472 0.37422 0.94709 0.0
C2438 C 0.19044 0.38796 0.97595 0.0
C2439 C 0.19 0.37432 0.98588 0.0
C2440 C 0.19098 0.36063 0.9761 0.0
H2441 H 0.18999 0.34813 0.10132 0.0
H2442 H 0.18652 0.34932 0.06775 0.0
C2443 C 0.19341 0.36058 0.95695 0.0
C2444 C 0.18939 0.37434 1.0065 0.0
H2445 H 0.20876 0.36266 0.04491 0.0
C2446 C 0.17698 0.38096 1.01551 0.0
C2447 C 0.20109 0.36786 1.01728 0.0
C2448 C 0.21517 0.36141 1.00856 0.0
C2449 C 0.1758 0.3809 0.035 0.0
C2450 C 0.18737 0.37415 0.0457 0.0
C2451 C 0.19981 0.36768 0.03668 0.0
C2452 C 0.18706 0.37372 0.06631 0.0
C2453 C 0.16206 0.38775 0.04399 0.0
C2454 C 0.18817 0.38707 0.07676 0.0
C2455 C 0.19018 0.38644 0.09604 0.0
C2456 C 0.19119 0.37243 0.1052 0.0
C2457 C 0.18929 0.35912 0.09477 0.0
C2458 C 0.18732 0.35976 0.07554 0.0
H2459 H 0.15271 0.38941 0.0339 0.0
H2460 H 0.15797 0.38052 0.05553 0.0
H2461 H 0.16509 0.39894 0.04987 0.0
H2462 H 0.18824 0.39796 0.06991 0.0
H2463 H 0.19166 0.39691 0.1036 0.0
H2464 H 0.19193 0.38323 0.2105 0.0
H2465 H 0.18436 0.37755 0.24242 0.0
H2466 H 0.18914 0.32991 0.23149 0.0
H2467 H 0.19674 0.33544 0.1996 0.0
H2468 H 0.15978 0.35897 0.2553 0.0
H2469 H 0.21558 0.33722 0.27822 0.0
H2470 H 0.21323 0.34841 0.25748 0.0
H2471 H 0.2082 0.32875 0.25744 0.0
C2472 C 0.19134 0.37153 0.21485 0.0
C2473 C 0.19501 0.3598 0.20246 0.0
C2474 C 0.18702 0.36831 0.23311 0.0
C2475 C 0.18642 0.35332 0.23942 0.0
C2476 C 0.18979 0.34158 0.22701 0.0
H2477 H 0.16426 0.30855 0.34279 0.0
H2478 H 0.17302 0.31549 0.31181 0.0
C2479 C 0.19404 0.34477 0.20873 0.0
C2480 C 0.18213 0.34995 0.25893 0.0
H2481 H 0.19522 0.33431 0.29921 0.0
C2482 C 0.16754 0.35366 0.26495 0.0
C2483 C 0.19227 0.34298 0.27147 0.0
C2484 C 0.20824 0.3392 0.26595 0.0
C2485 C 0.16268 0.35026 0.28304 0.0
C2486 C 0.17283 0.3433 0.29563 0.0
C2487 C 0.18746 0.33967 0.2896 0.0
C2488 C 0.16834 0.33935 0.31494 0.0
C2489 C 0.14656 0.35373 0.28828 0.0
C2490 C 0.16323 0.35049 0.3273 0.0
C2491 C 0.15815 0.34655 0.34504 0.0
C2492 C 0.15822 0.33138 0.35089 0.0
C2493 C 0.16401 0.32033 0.33878 0.0
C2494 C 0.16901 0.32428 0.32102 0.0
H2495 H 0.13927 0.35516 0.27585 0.0
H2496 H 0.14174 0.34463 0.29705 0.0
H2497 H 0.14625 0.36444 0.29628 0.0
H2498 H 0.16298 0.36225 0.32315 0.0
H2499 H 0.15388 0.35537 0.35403 0.0
H2500 H 0.65331 0.17865 0.2044 0.0
H2501 H 0.66166 0.16733 0.23379 0.0
H2502 H 0.66544 0.2117 0.25804 0.0
H2503 H 0.65701 0.22304 0.229 0.0
H2504 H 0.68771 0.17124 0.25623 0.0
H2505 H 0.63591 0.18991 0.29271 0.0
H2506 H 0.63759 0.19019 0.26777 0.0
H2507 H 0.64589 0.20501 0.28149 0.0
C2508 C 0.65611 0.18599 0.21593 0.0
C2509 C 0.65433 0.20174 0.21441 0.0
C2510 C 0.66084 0.17951 0.23272 0.0
C2511 C 0.66383 0.18866 0.24823 0.0
C2512 C 0.66284 0.2044 0.24641 0.0
H2513 H 0.70848 0.16523 0.35194 0.0
H2514 H 0.70148 0.17568 0.32171 0.0
C2515 C 0.65808 0.21087 0.22973 0.0
C2516 C 0.66755 0.18187 0.26653 0.0
H2517 H 0.6557 0.18022 0.31156 0.0
C2518 C 0.68069 0.17314 0.26832 0.0
C2519 C 0.65826 0.18416 0.28224 0.0
C2520 C 0.64355 0.1927 0.28098 0.0
C2521 C 0.68499 0.16696 0.28551 0.0
C2522 C 0.67602 0.1698 0.30139 0.0
C2523 C 0.66268 0.17821 0.29947 0.0
C2524 C 0.68009 0.16392 0.32006 0.0
C2525 C 0.69897 0.15726 0.28646 0.0
C2526 C 0.67014 0.15433 0.32958 0.0
C2527 C 0.67402 0.14847 0.34696 0.0
C2528 C 0.68795 0.15212 0.35525 0.0
C2529 C 0.6977 0.16212 0.34595 0.0
C2530 C 0.69378 0.16799 0.32856 0.0
H2531 H 0.70217 0.15287 0.27258 0.0
H2532 H 0.70852 0.16414 0.29178 0.0
H2533 H 0.69731 0.14754 0.29598 0.0
H2534 H 0.65945 0.15113 0.32337 0.0
H2535 H 0.66623 0.14082 0.35371 0.0
H2536 H 0.80429 0.6607 0.20356 0.0
H2537 H 0.81117 0.67157 0.23367 0.0
H2538 H 0.8514 0.6442 0.23488 0.0
H2539 H 0.8447 0.63336 0.20478 0.0
H2540 H 0.81561 0.65592 0.26756 0.0
H2541 H 0.86722 0.6869 0.24616 0.0
H2542 H 0.85344 0.68008 0.22967 0.0
H2543 H 0.86697 0.66731 0.23965 0.0
C2544 C 0.81471 0.65714 0.21009 0.0
C2545 C 0.82398 0.6462 0.20167 0.0
C2546 C 0.81858 0.6633 0.22736 0.0
C2547 C 0.83185 0.65878 0.23648 0.0
C2548 C 0.84122 0.64803 0.228 0.0
H2549 H 0.85629 0.67122 0.35333 0.0
H2550 H 0.8475 0.66071 0.3237 0.0
C2551 C 0.83734 0.64182 0.21077 0.0
C2552 C 0.83572 0.66501 0.25506 0.0
H2553 H 0.8626 0.68512 0.27846 0.0
C2554 C 0.82586 0.66235 0.26996 0.0
C2555 C 0.84903 0.67348 0.25814 0.0
C2556 C 0.85973 0.67725 0.24255 0.0
C2557 C 0.82904 0.66781 0.28789 0.0
C2558 C 0.84254 0.67599 0.29105 0.0
C2559 C 0.85231 0.67876 0.27609 0.0
C2560 C 0.84661 0.68227 0.30956 0.0
C2561 C 0.81781 0.66501 0.30321 0.0
C2562 C 0.84902 0.69786 0.31152 0.0
C2563 C 0.85411 0.70385 0.32833 0.0
C2564 C 0.85696 0.6944 0.34363 0.0
C2565 C 0.85409 0.67882 0.34188 0.0
C2566 C 0.84903 0.67281 0.32495 0.0
H2567 H 0.80651 0.66193 0.29765 0.0
H2568 H 0.82184 0.65552 0.31195 0.0
H2569 H 0.81662 0.67514 0.31218 0.0
H2570 H 0.84722 0.70539 0.29989 0.0
H2571 H 0.85615 0.7159 0.32918 0.0
H2572 H 0.38905 0.83963 0.21342 0.0
H2573 H 0.37863 0.84734 0.24326 0.0
H2574 H 0.34348 0.8139 0.2379 0.0
H2575 H 0.35403 0.80586 0.20807 0.0
H2576 H 0.35102 0.8585 0.25308 0.0
H2577 H 0.36119 0.80365 0.28839 0.0
H2578 H 0.36925 0.80813 0.2661 0.0
H2579 H 0.34982 0.80244 0.2678 0.0
C2580 C 0.37905 0.83392 0.21849 0.0
C2581 C 0.37245 0.82203 0.20835 0.0
C2582 C 0.37311 0.83836 0.23561 0.0
C2583 C 0.36045 0.83101 0.24305 0.0
C2584 C 0.35348 0.8195 0.23268 0.0
H2585 H 0.31341 0.84664 0.34846 0.0
H2586 H 0.32093 0.83699 0.31794 0.0
C2587 C 0.35945 0.81501 0.21553 0.0
C2588 C 0.35469 0.8355 0.26167 0.0
H2589 H 0.34872 0.82254 0.30578 0.0
C2590 C 0.3505 0.85062 0.26458 0.0
C2591 C 0.35398 0.82522 0.27672 0.0
C2592 C 0.35891 0.80898 0.27472 0.0
C2593 C 0.3457 0.85574 0.28205 0.0
C2594 C 0.34523 0.84553 0.29714 0.0
C2595 C 0.3491 0.83035 0.2942 0.0
C2596 C 0.34117 0.85059 0.31617 0.0
C2597 C 0.34107 0.87205 0.28421 0.0
C2598 C 0.35029 0.86108 0.32555 0.0
C2599 C 0.34609 0.86655 0.343 0.0
C2600 C 0.33265 0.86165 0.35149 0.0
C2601 C 0.32382 0.85069 0.34235 0.0
C2602 C 0.32808 0.84517 0.32488 0.0
H2603 H 0.33846 0.87737 0.27062 0.0
H2604 H 0.33103 0.87307 0.29333 0.0
H2605 H 0.35047 0.87847 0.29069 0.0
H2606 H 0.36058 0.86521 0.31924 0.0
H2607 H 0.35321 0.87493 0.34962 0.0
H2608 H 0.17191 0.65979 0.85982 0.0
H2609 H 0.16122 0.66877 0.83033 0.0
H2610 H 0.20348 0.6596 0.80299 0.0
H2611 H 0.21411 0.65045 0.8321 0.0
H2612 H 0.16973 0.6914 0.80511 0.0
H2613 H 0.17344 0.63469 0.7728 0.0
H2614 H 0.17577 0.63765 0.7974 0.0
H2615 H 0.19115 0.64134 0.78177 0.0
C2616 C 0.17895 0.65984 0.84755 0.0
C2617 C 0.1938 0.65424 0.84826 0.0
C2618 C 0.17283 0.66495 0.83071 0.0
C2619 C 0.18144 0.66452 0.81436 0.0
C2620 C 0.19649 0.65967 0.8153 0.0
H2621 H 0.16164 0.70778 0.70821 0.0
H2622 H 0.17254 0.70038 0.7381 0.0
C2623 C 0.20257 0.65451 0.83201 0.0
C2624 C 0.17471 0.66875 0.79619 0.0
H2625 H 0.1677 0.65516 0.75264 0.0
C2626 C 0.16922 0.68348 0.79365 0.0
C2627 C 0.17385 0.65832 0.78131 0.0
C2628 C 0.17872 0.64207 0.78346 0.0
C2629 C 0.16319 0.68816 0.77652 0.0
C2630 C 0.1629 0.6779 0.76143 0.0
C2631 C 0.16811 0.66308 0.76411 0.0
C2632 C 0.15677 0.68211 0.7429 0.0
C2633 C 0.15693 0.70395 0.77487 0.0
C2634 C 0.14471 0.67389 0.73524 0.0
C2635 C 0.1386 0.67795 0.71806 0.0
C2636 C 0.14443 0.69032 0.70811 0.0
C2637 C 0.15683 0.69824 0.71553 0.0
C2638 C 0.16298 0.69413 0.73272 0.0
H2639 H 0.15428 0.70886 0.78867 0.0
H2640 H 0.16545 0.71132 0.76814 0.0
H2641 H 0.14653 0.70409 0.76625 0.0
H2642 H 0.13981 0.6645 0.74275 0.0
H2643 H 0.12907 0.67158 0.71279 0.0
H2644 H 0.34499 0.12815 0.71394 0.0
H2645 H 0.35247 0.13762 0.7444 0.0
H2646 H 0.31507 0.16877 0.74381 0.0
H2647 H 0.30729 0.15914 0.71338 0.0
H2648 H 0.36056 0.16581 0.75672 0.0
H2649 H 0.3085 0.14654 0.79252 0.0
H2650 H 0.31327 0.14055 0.76933 0.0
H2651 H 0.30531 0.15896 0.77322 0.0
C2652 C 0.33837 0.13709 0.72019 0.0
C2653 C 0.32546 0.14279 0.71123 0.0
C2654 C 0.34267 0.14248 0.73765 0.0
C2655 C 0.33416 0.15368 0.74661 0.0
C2656 C 0.3216 0.15986 0.7374 0.0
H2657 H 0.34693 0.19534 0.85602 0.0
H2658 H 0.33738 0.18859 0.82515 0.0
C2659 C 0.31725 0.15443 0.71991 0.0
C2660 C 0.33847 0.15872 0.76561 0.0
H2661 H 0.32622 0.16012 0.81057 0.0
C2662 C 0.35303 0.16458 0.76847 0.0
C2663 C 0.32865 0.15714 0.78098 0.0
C2664 C 0.3131 0.15034 0.77897 0.0
C2665 C 0.35804 0.16885 0.78622 0.0
C2666 C 0.34831 0.16704 0.80162 0.0
C2667 C 0.33365 0.16148 0.79875 0.0
C2668 C 0.35338 0.17048 0.82083 0.0
C2669 C 0.37369 0.17537 0.78836 0.0
C2670 C 0.36521 0.16222 0.8289 0.0
C2671 C 0.37063 0.16598 0.84654 0.0
C2672 C 0.36433 0.17809 0.85654 0.0
C2673 C 0.35207 0.18596 0.84872 0.0
C2674 C 0.34661 0.18215 0.83106 0.0
H2675 H 0.37822 0.17953 0.77494 0.0
H2676 H 0.37374 0.18483 0.79848 0.0
H2677 H 0.38141 0.16646 0.79359 0.0
H2678 H 0.37041 0.15298 0.8214 0.0
H2679 H 0.38004 0.15962 0.85211 0.0
H2680 H 0.85629 0.30818 0.70522 0.0
H2681 H 0.8469 0.31628 0.73563 0.0
H2682 H 0.88667 0.34372 0.74329 0.0
H2683 H 0.89595 0.33598 0.71294 0.0
H2684 H 0.85968 0.31218 0.76991 0.0
H2685 H 0.85372 0.37339 0.7561 0.0
H2686 H 0.85627 0.35974 0.73777 0.0
H2687 H 0.87226 0.36655 0.75077 0.0
C2688 C 0.86293 0.31611 0.71327 0.0
C2689 C 0.87684 0.3215 0.70654 0.0
C2690 C 0.85757 0.32069 0.73069 0.0
C2691 C 0.86596 0.3308 0.74167 0.0
C2692 C 0.8798 0.33621 0.73493 0.0
H2693 H 0.86307 0.36841 0.85215 0.0
H2694 H 0.86995 0.35896 0.82143 0.0
C2695 C 0.88514 0.33169 0.71755 0.0
C2696 C 0.86064 0.33525 0.76049 0.0
H2697 H 0.85346 0.3659 0.78796 0.0
C2698 C 0.85816 0.32391 0.7738 0.0
C2699 C 0.85862 0.35057 0.7656 0.0
C2700 C 0.86021 0.36325 0.75176 0.0
C2701 C 0.85423 0.32751 0.79219 0.0
C2702 C 0.85262 0.34284 0.79737 0.0
C2703 C 0.85483 0.35415 0.78401 0.0
C2704 C 0.84875 0.34747 0.81662 0.0
C2705 C 0.85225 0.31493 0.80608 0.0
C2706 C 0.83458 0.34403 0.82423 0.0
C2707 C 0.83058 0.34944 0.84181 0.0
C2708 C 0.84068 0.35842 0.85214 0.0
C2709 C 0.85503 0.36148 0.84466 0.0
C2710 C 0.85897 0.35614 0.82705 0.0
H2711 H 0.85687 0.30405 0.80092 0.0
H2712 H 0.85789 0.31781 0.81939 0.0
H2713 H 0.84005 0.31335 0.8089 0.0
H2714 H 0.82644 0.33753 0.81633 0.0
H2715 H 0.81942 0.34691 0.84709 0.0
H2716 H 0.70113 0.85364 0.70796 0.0
H2717 H 0.6935 0.8423 0.73745 0.0
H2718 H 0.66003 0.87716 0.74464 0.0
H2719 H 0.66738 0.88842 0.71508 0.0
H2720 H 0.69449 0.85524 0.77234 0.0
H2721 H 0.63581 0.83894 0.75426 0.0
H2722 H 0.64955 0.84415 0.73696 0.0
H2723 H 0.63994 0.8585 0.75006 0.0
C2724 C 0.69199 0.85878 0.71567 0.0
C2725 C 0.68482 0.87191 0.70907 0.0
C2726 C 0.6877 0.85232 0.73258 0.0
C2727 C 0.67611 0.8588 0.7432 0.0
C2728 C 0.66881 0.87179 0.73655 0.0
H2729 H 0.65794 0.84199 0.86107 0.0
H2730 H 0.66652 0.85308 0.83169 0.0
C2731 C 0.67306 0.87824 0.71963 0.0
C2732 C 0.67201 0.85226 0.76151 0.0
H2733 H 0.64265 0.8373 0.78604 0.0
C2734 C 0.68317 0.85126 0.77534 0.0
C2735 C 0.65727 0.84698 0.76536 0.0
C2736 C 0.64498 0.84704 0.75084 0.0
C2737 C 0.67996 0.84523 0.79295 0.0
C2738 C 0.66512 0.84029 0.79693 0.0
C2739 C 0.654 0.84121 0.78305 0.0
C2740 C 0.66094 0.83346 0.81506 0.0
C2741 C 0.69254 0.84389 0.80697 0.0
C2742 C 0.65491 0.81881 0.8155 0.0
C2743 C 0.64992 0.81255 0.83215 0.0
C2744 C 0.65081 0.82077 0.84882 0.0
C2745 C 0.65721 0.83532 0.8485 0.0
C2746 C 0.66215 0.84165 0.83173 0.0
H2747 H 0.70383 0.84465 0.80033 0.0
H2748 H 0.69161 0.85324 0.81715 0.0
H2749 H 0.6918 0.83304 0.81463 0.0
H2750 H 0.65388 0.81227 0.80286 0.0
H2751 H 0.64511 0.80129 0.83188 0.0
H2752 H 0.83122 0.68412 0.69685 0.0
H2753 H 0.82429 0.67712 0.72851 0.0
H2754 H 0.87025 0.68423 0.7463 0.0
H2755 H 0.87737 0.69087 0.71456 0.0
H2756 H 0.85885 0.65902 0.7614 0.0
H2757 H 0.81811 0.70571 0.7713 0.0
H2758 H 0.8136 0.69422 0.75155 0.0
H2759 H 0.83085 0.70499 0.75183 0.0
C2760 C 0.83988 0.68416 0.70747 0.0
C2761 C 0.85484 0.68814 0.70313 0.0
C2762 C 0.83586 0.68027 0.72563 0.0
C2763 C 0.84665 0.68049 0.73994 0.0
C2764 C 0.86168 0.68409 0.73556 0.0
H2765 H 0.82165 0.67783 0.85766 0.0
H2766 H 0.83149 0.68546 0.8273 0.0
C2767 C 0.86574 0.68787 0.71737 0.0
C2768 C 0.84233 0.67677 0.75939 0.0
H2769 H 0.81772 0.68612 0.79404 0.0
C2770 C 0.84992 0.66501 0.76857 0.0
C2771 C 0.83088 0.68478 0.76896 0.0
C2772 C 0.823 0.69823 0.76049 0.0
C2773 C 0.8461 0.66075 0.78676 0.0
C2774 C 0.83409 0.66821 0.79593 0.0
C2775 C 0.8268 0.68027 0.78697 0.0
C2776 C 0.82866 0.66346 0.81461 0.0
C2777 C 0.85512 0.64842 0.79602 0.0
C2778 C 0.82368 0.6486 0.81761 0.0
C2779 C 0.81817 0.64419 0.83495 0.0
C2780 C 0.8173 0.65459 0.8497 0.0
C2781 C 0.82221 0.66951 0.84666 0.0
C2782 C 0.82781 0.67389 0.82929 0.0
H2783 H 0.86657 0.6474 0.78987 0.0
H2784 H 0.85633 0.65051 0.81114 0.0
H2785 H 0.84926 0.63745 0.79403 0.0
H2786 H 0.82381 0.64043 0.80643 0.0
H2787 H 0.81436 0.63264 0.83668 0.0
H2788 H 0.38565 0.84165 0.84853 0.0
H2789 H 0.37448 0.84927 0.81903 0.0
H2790 H 0.34131 0.81382 0.82387 0.0
H2791 H 0.35262 0.8059 0.85336 0.0
H2792 H 0.35421 0.8149 0.78901 0.0
H2793 H 0.33543 0.87205 0.81024 0.0
H2794 H 0.35512 0.86877 0.81448 0.0
H2795 H 0.3412 0.8579 0.8268 0.0
C2796 C 0.37587 0.83555 0.84348 0.0
C2797 C 0.36999 0.8232 0.85343 0.0
C2798 C 0.36946 0.83997 0.82658 0.0
C2799 C 0.35692 0.83226 0.8193 0.0
C2800 C 0.35095 0.81998 0.82923 0.0
H2801 H 0.30035 0.86599 0.73069 0.0
H2802 H 0.31077 0.85607 0.75949 0.0
C2803 C 0.35738 0.81552 0.84615 0.0
C2804 C 0.35033 0.8368 0.80112 0.0
H2805 H 0.33485 0.86668 0.77794 0.0
C2806 C 0.3499 0.8262 0.7866 0.0
C2807 C 0.34459 0.8515 0.798 0.0
C2808 C 0.34395 0.86317 0.81324 0.0
C2809 C 0.34407 0.82996 0.76901 0.0
C2810 C 0.33875 0.84481 0.76575 0.0
C2811 C 0.33905 0.85534 0.78035 0.0
C2812 C 0.33223 0.84962 0.74761 0.0
C2813 C 0.34337 0.81792 0.75422 0.0
C2814 C 0.34073 0.84915 0.73114 0.0
C2815 C 0.33471 0.85475 0.71447 0.0
C2816 C 0.32016 0.8611 0.71405 0.0
C2817 C 0.31162 0.86126 0.73049 0.0
C2818 C 0.31757 0.85559 0.74702 0.0
H2819 H 0.34413 0.80639 0.76025 0.0
H2820 H 0.33276 0.81877 0.74608 0.0
H2821 H 0.35301 0.81941 0.74458 0.0
H2822 H 0.35218 0.84487 0.73128 0.0
H2823 H 0.34162 0.85458 0.70209 0.0
H2824 H 0.16155 0.3111 0.70852 0.0
H2825 H 0.16978 0.31714 0.74002 0.0
H2826 H 0.16189 0.36445 0.72962 0.0
H2827 H 0.15334 0.3585 0.69816 0.0
H2828 H 0.19239 0.33504 0.75412 0.0
H2829 H 0.13643 0.35702 0.77558 0.0
H2830 H 0.13919 0.34675 0.75423 0.0
H2831 H 0.14419 0.36641 0.7557 0.0
C2832 C 0.16167 0.32282 0.71284 0.0
C2833 C 0.15663 0.3343 0.70081 0.0
C2834 C 0.16637 0.32625 0.73089 0.0
C2835 C 0.16613 0.3412 0.73736 0.0
C2836 C 0.1618 0.35278 0.72512 0.0
H2837 H 0.18857 0.38453 0.84164 0.0
H2838 H 0.18101 0.37826 0.80994 0.0
C2839 C 0.15704 0.34936 0.70705 0.0
C2840 C 0.17018 0.34461 0.75697 0.0
H2841 H 0.15653 0.36006 0.79706 0.0
C2842 C 0.18453 0.34045 0.76352 0.0
C2843 C 0.15988 0.3516 0.76929 0.0
C2844 C 0.14401 0.35558 0.76344 0.0
C2845 C 0.18898 0.34339 0.78191 0.0
C2846 C 0.17873 0.3505 0.79416 0.0
C2847 C 0.16437 0.35462 0.78764 0.0
C2848 C 0.18282 0.35409 0.81368 0.0
C2849 C 0.20473 0.33918 0.78799 0.0
C2850 C 0.18602 0.34256 0.82647 0.0
C2851 C 0.1903 0.34609 0.84469 0.0
C2852 C 0.19146 0.36124 0.85046 0.0
C2853 C 0.18786 0.37274 0.83769 0.0
C2854 C 0.18353 0.36919 0.81954 0.0
H2855 H 0.21224 0.33689 0.77598 0.0
H2856 H 0.20982 0.34832 0.79651 0.0
H2857 H 0.20422 0.32882 0.79662 0.0
H2858 H 0.18529 0.33081 0.82233 0.0
H2859 H 0.19296 0.33696 0.85413 0.0
H2860 H 0.70997 0.14593 0.73264 0.0
H2861 H 0.69892 0.15536 0.7613 0.0
H2862 H 0.65876 0.16856 0.73157 0.0
H2863 H 0.66993 0.15929 0.7025 0.0
H2864 H 0.66825 0.19005 0.75782 0.0
H2865 H 0.66571 0.13293 0.78908 0.0
H2866 H 0.68427 0.13794 0.78129 0.0
H2867 H 0.6692 0.13593 0.7647 0.0
C2868 C 0.6988 0.15089 0.7321 0.0
C2869 C 0.69076 0.1517 0.71529 0.0
C2870 C 0.69247 0.15622 0.74856 0.0
C2871 C 0.67787 0.16233 0.74867 0.0
C2872 C 0.67 0.16375 0.73181 0.0
H2873 H 0.62465 0.17312 0.84908 0.0
H2874 H 0.63484 0.16547 0.81908 0.0
C2875 C 0.67639 0.15847 0.71522 0.0
C2876 C 0.67088 0.16694 0.76652 0.0
H2877 H 0.66166 0.15367 0.80953 0.0
C2878 C 0.66671 0.1821 0.7691 0.0
C2879 C 0.66867 0.15651 0.78115 0.0
C2880 C 0.67205 0.13989 0.7789 0.0
C2881 C 0.66076 0.18717 0.78608 0.0
C2882 C 0.65922 0.17685 0.80099 0.0
C2883 C 0.66304 0.16163 0.79822 0.0
C2884 C 0.6533 0.18149 0.81944 0.0
C2885 C 0.65597 0.20346 0.78778 0.0
C2886 C 0.66049 0.1928 0.82991 0.0
C2887 C 0.65465 0.19725 0.84711 0.0
C2888 C 0.64159 0.19035 0.85428 0.0
C2889 C 0.63472 0.17869 0.84402 0.0
C2890 C 0.64051 0.17431 0.82681 0.0
H2891 H 0.65392 0.20866 0.77397 0.0
H2892 H 0.64554 0.20453 0.79621 0.0
H2893 H 0.66507 0.20998 0.79472 0.0
H2894 H 0.67061 0.19823 0.82476 0.0
H2895 H 0.66027 0.20622 0.85467 0.0
H2896 H 0.81392 0.34877 0.20573 0.0
H2897 H 0.82082 0.33836 0.23601 0.0
H2898 H 0.86247 0.36358 0.235 0.0
H2899 H 0.85581 0.37383 0.20459 0.0
H2900 H 0.8667 0.33476 0.24692 0.0
H2901 H 0.81914 0.36085 0.28518 0.0
H2902 H 0.81324 0.34941 0.26591 0.0
H2903 H 0.82406 0.36628 0.26183 0.0
C2904 C 0.8246 0.35204 0.21187 0.0
C2905 C 0.83428 0.3622 0.20272 0.0
C2906 C 0.82846 0.34618 0.2293 0.0
C2907 C 0.842 0.35046 0.23801 0.0
C2908 C 0.8519 0.36022 0.22864 0.0
H2909 H 0.86765 0.33611 0.35422 0.0
H2910 H 0.8593 0.34727 0.32472 0.0
C2911 C 0.84808 0.36604 0.21121 0.0
C2912 C 0.846 0.34462 0.25675 0.0
H2913 H 0.83383 0.34275 0.30171 0.0
C2914 C 0.85952 0.33655 0.25889 0.0
C2915 C 0.83678 0.34718 0.27248 0.0
C2916 C 0.82257 0.35653 0.27134 0.0
C2917 C 0.86391 0.33069 0.27619 0.0
C2918 C 0.85438 0.33269 0.29175 0.0
C2919 C 0.84103 0.34107 0.28974 0.0
C2920 C 0.85807 0.32595 0.3101 0.0
C2921 C 0.87884 0.32257 0.27767 0.0
C2922 C 0.85958 0.31024 0.31186 0.0
C2923 C 0.86435 0.30387 0.3286 0.0
C2924 C 0.86758 0.31305 0.34405 0.0
C2925 C 0.86525 0.32873 0.34259 0.0
C2926 C 0.86053 0.33512 0.32573 0.0
H2927 H 0.88655 0.32565 0.26613 0.0
H2928 H 0.88455 0.32516 0.29102 0.0
H2929 H 0.87686 0.3102 0.277 0.0
H2930 H 0.85738 0.3029 0.30014 0.0
H2931 H 0.86584 0.29174 0.32927 0.0
H2932 H 0.64637 0.86007 0.20939 0.0
H2933 H 0.65461 0.86649 0.24085 0.0
H2934 H 0.67441 0.82231 0.24686 0.0
H2935 H 0.66611 0.81568 0.21544 0.0
H2936 H 0.64584 0.84642 0.2744 0.0
H2937 H 0.70747 0.85544 0.26382 0.0
H2938 H 0.69392 0.85811 0.24533 0.0
H2939 H 0.69862 0.8394 0.25287 0.0
C2940 C 0.65269 0.85178 0.21725 0.0
C2941 C 0.65557 0.83735 0.20986 0.0
C2942 C 0.65733 0.85546 0.23526 0.0
C2943 C 0.66512 0.84488 0.24613 0.0
C2944 C 0.66848 0.83065 0.23863 0.0
H2945 H 0.70314 0.85296 0.35779 0.0
H2946 H 0.6958 0.84361 0.32708 0.0
C2947 C 0.66372 0.8269 0.22067 0.0
C2948 C 0.66896 0.84845 0.26568 0.0
H2949 H 0.69828 0.85772 0.2943 0.0
C2950 C 0.6573 0.84888 0.2788 0.0
C2951 C 0.68393 0.85144 0.27136 0.0
C2952 C 0.69678 0.85117 0.25768 0.0
C2953 C 0.6602 0.85228 0.29751 0.0
C2954 C 0.67513 0.85577 0.30316 0.0
C2955 C 0.68683 0.85508 0.29003 0.0
C2956 C 0.67879 0.86074 0.3224 0.0
C2957 C 0.64725 0.85182 0.31108 0.0
C2958 C 0.67162 0.87342 0.3301 0.0
C2959 C 0.67566 0.87868 0.34772 0.0
C2960 C 0.68715 0.87153 0.35795 0.0
C2961 C 0.6942 0.8587 0.35034 0.0
C2962 C 0.69006 0.85338 0.33274 0.0
H2963 H 0.63807 0.84425 0.30613 0.0
H2964 H 0.65101 0.84791 0.32496 0.0
H2965 H 0.64244 0.86334 0.31252 0.0
H2966 H 0.66318 0.87955 0.32226 0.0
H2967 H 0.6701 0.88868 0.35302 0.0
H2968 H 0.1534 0.72343 0.33518 0.0
H2969 H 0.16098 0.71207 0.30581 0.0
H2970 H 0.15367 0.66763 0.3286 0.0
H2971 H 0.14627 0.67897 0.35833 0.0
H2972 H 0.17937 0.66933 0.30629 0.0
H2973 H 0.12986 0.69408 0.27038 0.0
H2974 H 0.14135 0.70794 0.28185 0.0
H2975 H 0.13165 0.69386 0.29532 0.0
C2976 C 0.15356 0.71122 0.33406 0.0
C2977 C 0.14908 0.7021 0.34905 0.0
C2978 C 0.15781 0.70475 0.31719 0.0
C2979 C 0.15749 0.68903 0.31484 0.0
C2980 C 0.15385 0.67982 0.33007 0.0
H2981 H 0.15517 0.6443 0.20709 0.0
H2982 H 0.14922 0.65455 0.23772 0.0
C2983 C 0.14968 0.6863 0.34706 0.0
C2984 C 0.16052 0.68233 0.2963 0.0
H2985 H 0.14869 0.68305 0.25117 0.0
C2986 C 0.17263 0.67226 0.29425 0.0
C2987 C 0.15154 0.68595 0.28064 0.0
C2988 C 0.13778 0.69593 0.28214 0.0
C2989 C 0.17626 0.66604 0.27686 0.0
C2990 C 0.16772 0.67024 0.26104 0.0
C2991 C 0.15537 0.68 0.26322 0.0
C2992 C 0.17126 0.66449 0.24216 0.0
C2993 C 0.18906 0.65484 0.27568 0.0
C2994 C 0.18548 0.66705 0.23418 0.0
C2995 C 0.18894 0.66117 0.21667 0.0
C2996 C 0.17817 0.65275 0.20667 0.0
C2997 C 0.16373 0.65073 0.21438 0.0
C2998 C 0.16032 0.65655 0.23193 0.0
H2999 H 0.1915 0.64962 0.28937 0.0
H3000 H 0.18648 0.64571 0.26558 0.0
H3001 H 0.19942 0.66076 0.27102 0.0
H3002 H 0.19397 0.67351 0.24155 0.0
H3003 H 0.20013 0.66304 0.21111 0.0
H3004 H 0.30573 0.1575 0.35341 0.0
H3005 H 0.31157 0.16613 0.32202 0.0
H3006 H 0.35784 0.15217 0.32918 0.0
H3007 H 0.35205 0.14324 0.36048 0.0
H3008 H 0.33175 0.18683 0.30775 0.0
H3009 H 0.34539 0.12916 0.28274 0.0
H3010 H 0.33634 0.13257 0.30474 0.0
H3011 H 0.35641 0.13497 0.3024 0.0
C3012 C 0.3172 0.15639 0.34841 0.0
C3013 C 0.32839 0.14952 0.35945 0.0
C3014 C 0.32051 0.16131 0.33042 0.0
C3015 C 0.33505 0.15946 0.32305 0.0
C3016 C 0.34643 0.15335 0.33437 0.0
H3017 H 0.3786 0.17944 0.21879 0.0
H3018 H 0.37172 0.17152 0.25009 0.0
C3019 C 0.34313 0.14837 0.35235 0.0
C3020 C 0.33821 0.16365 0.30344 0.0
H3021 H 0.3506 0.14939 0.2621 0.0
C3022 C 0.33579 0.17863 0.29774 0.0
C3023 C 0.34339 0.15292 0.29033 0.0
C3024 C 0.3454 0.13647 0.29527 0.0
C3025 C 0.33881 0.18325 0.27945 0.0
C3026 C 0.34419 0.17257 0.26644 0.0
C3027 C 0.34649 0.15757 0.27209 0.0
C3028 C 0.34802 0.17684 0.24706 0.0
C3029 C 0.33661 0.19963 0.27431 0.0
C3030 C 0.3369 0.18211 0.23475 0.0
C3031 C 0.34078 0.18661 0.21673 0.0
C3032 C 0.35587 0.18591 0.2107 0.0
C3033 C 0.36688 0.18019 0.22294 0.0
C3034 C 0.36298 0.17565 0.24088 0.0
H3035 H 0.33553 0.20696 0.28675 0.0
H3036 H 0.34619 0.20377 0.26578 0.0
H3037 H 0.32613 0.20078 0.26597 0.0
H3038 H 0.32524 0.18286 0.23913 0.0
H3039 H 0.33202 0.19093 0.20769 0.0
loop_
_geom_bond_atom_site_label_1
_geom_bond_atom_site_label_2
_geom_bond_distance
_geom_bond_site_symmetry_2
_ccdc_geom_bond_type
Cu0 N1 1.999 . S
Cu0 O6 1.974 . S
Cu0 N11 1.985 . S
Cu0 O20 1.959 . S
N1 Cu0 1.999 . S
N1 C3 1.263 . S
N1 C5 1.389 . S
N2 C3 1.358 . S
N2 C4 1.400 . S
C3 N1 1.263 . S
C3 N2 1.358 . S
C3 H9 0.930 . S
C4 N2 1.400 . S
C4 C5 1.351 . S
C4 H21 0.930 . S
C5 N1 1.389 . S
C5 C4 1.351 . S
C5 H10 0.930 . S
O6 Cu0 1.974 . S
O6 C16 1.282 . S
C7 O8 1.261 . S
C7 O20 1.251 . S
O8 C7 1.261 . S
H9 C3 0.930 . S
H10 C5 0.930 . S
N11 Cu0 1.985 . S
N11 C13 1.335 . S
N11 C14 1.390 . S
N12 C13 1.345 . S
N12 C15 1.336 . S
C13 N11 1.335 . S
C13 N12 1.345 . S
C13 H18 0.930 . S
C14 N11 1.390 . S
C14 C15 1.346 . S
C14 H19 0.930 . S
C15 N12 1.336 . S
C15 C14 1.346 . S
C15 H22 0.929 . S
C16 O6 1.282 . S
C16 O17 1.216 . S
O17 C16 1.216 . S
H18 C13 0.930 . S
H19 C14 0.930 . S
O20 Cu0 1.959 . S
O20 C7 1.251 . S
H21 C4 0.930 . S
H22 C15 0.929 . S
Cu23 N24 1.999 . S
Cu23 O29 1.974 . S
Cu23 N34 1.985 . S
Cu23 O43 1.959 . S
N24 Cu23 1.999 . S
N24 C26 1.263 . S
N24 C28 1.389 . S
N25 C26 1.358 . S
N25 C27 1.400 . S
C26 N24 1.263 . S
C26 N25 1.358 . S
C26 H32 0.930 . S
C27 N25 1.400 . S
C27 C28 1.351 . S
C27 H44 0.930 . S
C28 N24 1.389 . S
C28 C27 1.351 . S
C28 H33 0.930 . S
O29 Cu23 1.974 . S
O29 C39 1.282 . S
C30 O31 1.261 . S
C30 O43 1.251 . S
O31 C30 1.261 . S
H32 C26 0.930 . S
H33 C28 0.930 . S
N34 Cu23 1.985 . S
N34 C36 1.335 . S
N34 C37 1.390 . S
N35 C36 1.345 . S
N35 C38 1.336 . S
C36 N34 1.335 . S
C36 N35 1.345 . S
C36 H41 0.930 . S
C37 N34 1.390 . S
C37 C38 1.346 . S
C37 H42 0.930 . S
C38 N35 1.336 . S
C38 C37 1.346 . S
C38 H45 0.929 . S
C39 O29 1.282 . S
C39 O40 1.216 . S
O40 C39 1.216 . S
H41 C36 0.930 . S
H42 C37 0.930 . S
O43 Cu23 1.959 . S
O43 C30 1.251 . S
H44 C27 0.930 . S
H45 C38 0.929 . S
Cu46 N47 1.999 . S
Cu46 O52 1.974 . S
Cu46 N57 1.985 . S
Cu46 O66 1.959 . S
N47 Cu46 1.999 . S
N47 C49 1.263 . S
N47 C51 1.389 . S
N48 C49 1.358 . S
N48 C50 1.400 . S
C49 N47 1.263 . S
C49 N48 1.358 . S
C49 H55 0.930 . S
C50 N48 1.400 . S
C50 C51 1.351 . S
C50 H67 0.930 . S
C51 N47 1.389 . S
C51 C50 1.351 . S
C51 H56 0.930 . S
O52 Cu46 1.974 . S
O52 C62 1.282 . S
C53 O54 1.261 . S
C53 O66 1.251 . S
O54 C53 1.261 . S
H55 C49 0.930 . S
H56 C51 0.930 . S
N57 Cu46 1.985 . S
N57 C59 1.335 . S
N57 C60 1.390 . S
N58 C59 1.345 . S
N58 C61 1.336 . S
C59 N57 1.335 . S
C59 N58 1.345 . S
C59 H64 0.930 . S
C60 N57 1.390 . S
C60 C61 1.346 . S
C60 H65 0.930 . S
C61 N58 1.336 . S
C61 C60 1.346 . S
C61 H68 0.929 . S
C62 O52 1.282 . S
C62 O63 1.216 . S
O63 C62 1.216 . S
H64 C59 0.930 . S
H65 C60 0.930 . S
O66 Cu46 1.959 . S
O66 C53 1.251 . S
H67 C50 0.930 . S
H68 C61 0.929 . S
Cu69 N70 1.999 . S
Cu69 O75 1.974 . S
Cu69 N80 1.985 . S
Cu69 O89 1.959 . S
N70 Cu69 1.999 . S
N70 C72 1.263 . S
N70 C74 1.389 . S
N71 C72 1.358 . S
N71 C73 1.400 . S
C72 N70 1.263 . S
C72 N71 1.358 . S
C72 H78 0.930 . S
C73 N71 1.400 . S
C73 C74 1.351 . S
C73 H90 0.930 . S
C74 N70 1.389 . S
C74 C73 1.351 . S
C74 H79 0.930 . S
O75 Cu69 1.974 . S
O75 C85 1.282 . S
C76 O77 1.261 . S
C76 O89 1.251 . S
O77 C76 1.261 . S
H78 C72 0.930 . S
H79 C74 0.930 . S
N80 Cu69 1.985 . S
N80 C82 1.335 . S
N80 C83 1.390 . S
N81 C82 1.345 . S
N81 C84 1.336 . S
C82 N80 1.335 . S
C82 N81 1.345 . S
C82 H87 0.930 . S
C83 N80 1.390 . S
C83 C84 1.346 . S
C83 H88 0.930 . S
C84 N81 1.336 . S
C84 C83 1.346 . S
C84 H91 0.929 . S
C85 O75 1.282 . S
C85 O86 1.216 . S
O86 C85 1.216 . S
H87 C82 0.930 . S
H88 C83 0.930 . S
O89 Cu69 1.959 . S
O89 C76 1.251 . S
H90 C73 0.930 . S
H91 C84 0.929 . S
Cu92 N93 1.999 . S
Cu92 O98 1.974 . S
Cu92 N103 1.985 . S
Cu92 O112 1.959 . S
N93 Cu92 1.999 . S
N93 C95 1.263 . S
N93 C97 1.389 . S
N94 C95 1.358 . S
N94 C96 1.400 . S
C95 N93 1.263 . S
C95 N94 1.358 . S
C95 H101 0.930 . S
C96 N94 1.400 . S
C96 C97 1.351 . S
C96 H113 0.930 . S
C97 N93 1.389 . S
C97 C96 1.351 . S
C97 H102 0.930 . S
O98 Cu92 1.974 . S
O98 C108 1.282 . S
C99 O100 1.261 . S
C99 O112 1.251 . S
O100 C99 1.261 . S
H101 C95 0.930 . S
H102 C97 0.930 . S
N103 Cu92 1.985 . S
N103 C105 1.335 . S
N103 C106 1.390 . S
N104 C105 1.345 . S
N104 C107 1.336 . S
C105 N103 1.335 . S
C105 N104 1.345 . S
C105 H110 0.930 . S
C106 N103 1.390 . S
C106 C107 1.346 . S
C106 H111 0.930 . S
C107 N104 1.336 . S
C107 C106 1.346 . S
C107 H114 0.929 . S
C108 O98 1.282 . S
C108 O109 1.216 . S
O109 C108 1.216 . S
H110 C105 0.930 . S
H111 C106 0.930 . S
O112 Cu92 1.959 . S
O112 C99 1.251 . S
H113 C96 0.930 . S
H114 C107 0.929 . S
Cu115 N116 1.999 . S
Cu115 O121 1.974 . S
Cu115 N126 1.985 . S
Cu115 O135 1.959 . S
N116 Cu115 1.999 . S
N116 C118 1.263 . S
N116 C120 1.389 . S
N117 C118 1.358 . S
N117 C119 1.400 . S
C118 N116 1.263 . S
C118 N117 1.358 . S
C118 H124 0.930 . S
C119 N117 1.400 . S
C119 C120 1.351 . S
C119 H136 0.930 . S
C120 N116 1.389 . S
C120 C119 1.351 . S
C120 H125 0.930 . S
O121 Cu115 1.974 . S
O121 C131 1.282 . S
C122 O123 1.261 . S
C122 O135 1.251 . S
O123 C122 1.261 . S
H124 C118 0.930 . S
H125 C120 0.930 . S
N126 Cu115 1.985 . S
N126 C128 1.335 . S
N126 C129 1.390 . S
N127 C128 1.345 . S
N127 C130 1.336 . S
C128 N126 1.335 . S
C128 N127 1.345 . S
C128 H133 0.930 . S
C129 N126 1.390 . S
C129 C130 1.346 . S
C129 H134 0.930 . S
C130 N127 1.336 . S
C130 C129 1.346 . S
C130 H137 0.929 . S
C131 O121 1.282 . S
C131 O132 1.216 . S
O132 C131 1.216 . S
H133 C128 0.930 . S
H134 C129 0.930 . S
O135 Cu115 1.959 . S
O135 C122 1.251 . S
H136 C119 0.930 . S
H137 C130 0.929 . S
Cu138 N139 1.999 . S
Cu138 O144 1.974 . S
Cu138 N149 1.985 . S
Cu138 O158 1.959 . S
N139 Cu138 1.999 . S
N139 C141 1.263 . S
N139 C143 1.389 . S
N140 C141 1.358 . S
N140 C142 1.400 . S
C141 N139 1.263 . S
C141 N140 1.358 . S
C141 H147 0.930 . S
C142 N140 1.400 . S
C142 C143 1.351 . S
C142 H159 0.930 . S
C143 N139 1.389 . S
C143 C142 1.351 . S
C143 H148 0.930 . S
O144 Cu138 1.974 . S
O144 C154 1.282 . S
C145 O146 1.261 . S
C145 O158 1.251 . S
O146 C145 1.261 . S
H147 C141 0.930 . S
H148 C143 0.930 . S
N149 Cu138 1.985 . S
N149 C151 1.335 . S
N149 C152 1.390 . S
N150 C151 1.345 . S
N150 C153 1.336 . S
C151 N149 1.335 . S
C151 N150 1.345 . S
C151 H156 0.930 . S
C152 N149 1.390 . S
C152 C153 1.346 . S
C152 H157 0.930 . S
C153 N150 1.336 . S
C153 C152 1.346 . S
C153 H160 0.929 . S
C154 O144 1.282 . S
C154 O155 1.216 . S
O155 C154 1.216 . S
H156 C151 0.930 . S
H157 C152 0.930 . S
O158 Cu138 1.959 . S
O158 C145 1.251 . S
H159 C142 0.930 . S
H160 C153 0.929 . S
Cu161 N162 1.999 . S
Cu161 O167 1.974 . S
Cu161 N172 1.985 . S
Cu161 O181 1.959 . S
N162 Cu161 1.999 . S
N162 C164 1.263 . S
N162 C166 1.389 . S
N163 C164 1.358 . S
N163 C165 1.400 . S
C164 N162 1.263 . S
C164 N163 1.358 . S
C164 H170 0.930 . S
C165 N163 1.400 . S
C165 C166 1.351 . S
C165 H182 0.930 . S
C166 N162 1.389 . S
C166 C165 1.351 . S
C166 H171 0.930 . S
O167 Cu161 1.974 . S
O167 C177 1.282 . S
C168 O169 1.261 . S
C168 O181 1.251 . S
O169 C168 1.261 . S
H170 C164 0.930 . S
H171 C166 0.930 . S
N172 Cu161 1.985 . S
N172 C174 1.335 . S
N172 C175 1.390 . S
N173 C174 1.345 . S
N173 C176 1.336 . S
C174 N172 1.335 . S
C174 N173 1.345 . S
C174 H179 0.930 . S
C175 N172 1.390 . S
C175 C176 1.346 . S
C175 H180 0.930 . S
C176 N173 1.336 . S
C176 C175 1.346 . S
C176 H183 0.929 . S
C177 O167 1.282 . S
C177 O178 1.216 . S
O178 C177 1.216 . S
H179 C174 0.930 . S
H180 C175 0.930 . S
O181 Cu161 1.959 . S
O181 C168 1.251 . S
H182 C165 0.930 . S
H183 C176 0.929 . S
Cu184 N185 1.999 . S
Cu184 O190 1.974 . S
Cu184 N195 1.985 . S
Cu184 O204 1.959 . S
N185 Cu184 1.999 . S
N185 C187 1.263 . S
N185 C189 1.389 . S
N186 C187 1.358 . S
N186 C188 1.400 . S
C187 N185 1.263 . S
C187 N186 1.358 . S
C187 H193 0.930 . S
C188 N186 1.400 . S
C188 C189 1.351 . S
C188 H205 0.930 . S
C189 N185 1.389 . S
C189 C188 1.351 . S
C189 H194 0.930 . S
O190 Cu184 1.974 . S
O190 C200 1.282 . S
C191 O192 1.261 . S
C191 O204 1.251 . S
O192 C191 1.261 . S
H193 C187 0.930 . S
H194 C189 0.930 . S
N195 Cu184 1.985 . S
N195 C197 1.335 . S
N195 C198 1.390 . S
N196 C197 1.345 . S
N196 C199 1.336 . S
C197 N195 1.335 . S
C197 N196 1.345 . S
C197 H202 0.930 . S
C198 N195 1.390 . S
C198 C199 1.346 . S
C198 H203 0.930 . S
C199 N196 1.336 . S
C199 C198 1.346 . S
C199 H206 0.929 . S
C200 O190 1.282 . S
C200 O201 1.216 . S
O201 C200 1.216 . S
H202 C197 0.930 . S
H203 C198 0.930 . S
O204 Cu184 1.959 . S
O204 C191 1.251 . S
H205 C188 0.930 . S
H206 C199 0.929 . S
Cu207 N208 1.999 . S
Cu207 O213 1.974 . S
Cu207 N218 1.985 . S
Cu207 O227 1.959 . S
N208 Cu207 1.999 . S
N208 C210 1.263 . S
N208 C212 1.389 . S
N209 C210 1.358 . S
N209 C211 1.400 . S
C210 N208 1.263 . S
C210 N209 1.358 . S
C210 H216 0.930 . S
C211 N209 1.400 . S
C211 C212 1.351 . S
C211 H228 0.930 . S
C212 N208 1.389 . S
C212 C211 1.351 . S
C212 H217 0.930 . S
O213 Cu207 1.974 . S
O213 C223 1.282 . S
C214 O215 1.261 . S
C214 O227 1.251 . S
O215 C214 1.261 . S
H216 C210 0.930 . S
H217 C212 0.930 . S
N218 Cu207 1.985 . S
N218 C220 1.335 . S
N218 C221 1.390 . S
N219 C220 1.345 . S
N219 C222 1.336 . S
C220 N218 1.335 . S
C220 N219 1.345 . S
C220 H225 0.930 . S
C221 N218 1.390 . S
C221 C222 1.346 . S
C221 H226 0.930 . S
C222 N219 1.336 . S
C222 C221 1.346 . S
C222 H229 0.929 . S
C223 O213 1.282 . S
C223 O224 1.216 . S
O224 C223 1.216 . S
H225 C220 0.930 . S
H226 C221 0.930 . S
O227 Cu207 1.959 . S
O227 C214 1.251 . S
H228 C211 0.930 . S
H229 C222 0.929 . S
Cu230 N231 1.999 . S
Cu230 O236 1.974 . S
Cu230 N241 1.985 . S
Cu230 O250 1.959 . S
N231 Cu230 1.999 . S
N231 C233 1.263 . S
N231 C235 1.389 . S
N232 C233 1.358 . S
N232 C234 1.400 . S
C233 N231 1.263 . S
C233 N232 1.358 . S
C233 H239 0.930 . S
C234 N232 1.400 . S
C234 C235 1.351 . S
C234 H251 0.930 . S
C235 N231 1.389 . S
C235 C234 1.351 . S
C235 H240 0.930 . S
O236 Cu230 1.974 . S
O236 C246 1.282 . S
C237 O238 1.261 . S
C237 O250 1.251 . S
O238 C237 1.261 . S
H239 C233 0.930 . S
H240 C235 0.930 . S
N241 Cu230 1.985 . S
N241 C243 1.335 . S
N241 C244 1.390 . S
N242 C243 1.345 . S
N242 C245 1.336 . S
C243 N241 1.335 . S
C243 N242 1.345 . S
C243 H248 0.930 . S
C244 N241 1.390 . S
C244 C245 1.346 . S
C244 H249 0.930 . S
C245 N242 1.336 . S
C245 C244 1.346 . S
C245 H252 0.929 . S
C246 O236 1.282 . S
C246 O247 1.216 . S
O247 C246 1.216 . S
H248 C243 0.930 . S
H249 C244 0.930 . S
O250 Cu230 1.959 . S
O250 C237 1.251 . S
H251 C234 0.930 . S
H252 C245 0.929 . S
Cu253 N254 1.999 . S
Cu253 O259 1.974 . S
Cu253 N264 1.985 . S
Cu253 O273 1.959 . S
N254 Cu253 1.999 . S
N254 C256 1.263 . S
N254 C258 1.389 . S
N255 C256 1.358 . S
N255 C257 1.400 . S
C256 N254 1.263 . S
C256 N255 1.358 . S
C256 H262 0.930 . S
C257 N255 1.400 . S
C257 C258 1.351 . S
C257 H274 0.930 . S
C258 N254 1.389 . S
C258 C257 1.351 . S
C258 H263 0.930 . S
O259 Cu253 1.974 . S
O259 C269 1.282 . S
C260 O261 1.261 . S
C260 O273 1.251 . S
O261 C260 1.261 . S
H262 C256 0.930 . S
H263 C258 0.930 . S
N264 Cu253 1.985 . S
N264 C266 1.335 . S
N264 C267 1.390 . S
N265 C266 1.345 . S
N265 C268 1.336 . S
C266 N264 1.335 . S
C266 N265 1.345 . S
C266 H271 0.930 . S
C267 N264 1.390 . S
C267 C268 1.346 . S
C267 H272 0.930 . S
C268 N265 1.336 . S
C268 C267 1.346 . S
C268 H275 0.929 . S
C269 O259 1.282 . S
C269 O270 1.216 . S
O270 C269 1.216 . S
H271 C266 0.930 . S
H272 C267 0.930 . S
O273 Cu253 1.959 . S
O273 C260 1.251 . S
H274 C257 0.930 . S
H275 C268 0.929 . S
Cu276 N277 1.999 . S
Cu276 O282 1.974 . S
Cu276 N287 1.985 . S
Cu276 O296 1.959 . S
N277 Cu276 1.999 . S
N277 C279 1.263 . S
N277 C281 1.389 . S
N278 C279 1.358 . S
N278 C280 1.400 . S
C279 N277 1.263 . S
C279 N278 1.358 . S
C279 H285 0.930 . S
C280 N278 1.400 . S
C280 C281 1.351 . S
C280 H297 0.930 . S
C281 N277 1.389 . S
C281 C280 1.351 . S
C281 H286 0.930 . S
O282 Cu276 1.974 . S
O282 C292 1.282 . S
C283 O284 1.261 . S
C283 O296 1.251 . S
O284 C283 1.261 . S
H285 C279 0.930 . S
H286 C281 0.930 . S
N287 Cu276 1.985 . S
N287 C289 1.335 . S
N287 C290 1.390 . S
N288 C289 1.345 . S
N288 C291 1.336 . S
C289 N287 1.335 . S
C289 N288 1.345 . S
C289 H294 0.930 . S
C290 N287 1.390 . S
C290 C291 1.346 . S
C290 H295 0.930 . S
C291 N288 1.336 . S
C291 C290 1.346 . S
C291 H298 0.929 . S
C292 O282 1.282 . S
C292 O293 1.216 . S
O293 C292 1.216 . S
H294 C289 0.930 . S
H295 C290 0.930 . S
O296 Cu276 1.959 . S
O296 C283 1.251 . S
H297 C280 0.930 . S
H298 C291 0.929 . S
Cu299 N300 1.999 . S
Cu299 O305 1.974 . S
Cu299 N310 1.985 . S
Cu299 O319 1.959 . S
N300 Cu299 1.999 . S
N300 C302 1.263 . S
N300 C304 1.389 . S
N301 C302 1.358 . S
N301 C303 1.400 . S
C302 N300 1.263 . S
C302 N301 1.358 . S
C302 H308 0.930 . S
C303 N301 1.400 . S
C303 C304 1.351 . S
C303 H320 0.930 . S
C304 N300 1.389 . S
C304 C303 1.351 . S
C304 H309 0.930 . S
O305 Cu299 1.974 . S
O305 C315 1.282 . S
C306 O307 1.261 . S
C306 O319 1.251 . S
O307 C306 1.261 . S
H308 C302 0.930 . S
H309 C304 0.930 . S
N310 Cu299 1.985 . S
N310 C312 1.335 . S
N310 C313 1.390 . S
N311 C312 1.345 . S
N311 C314 1.336 . S
C312 N310 1.335 . S
C312 N311 1.345 . S
C312 H317 0.930 . S
C313 N310 1.390 . S
C313 C314 1.346 . S
C313 H318 0.930 . S
C314 N311 1.336 . S
C314 C313 1.346 . S
C314 H321 0.929 . S
C315 O305 1.282 . S
C315 O316 1.216 . S
O316 C315 1.216 . S
H317 C312 0.930 . S
H318 C313 0.930 . S
O319 Cu299 1.959 . S
O319 C306 1.251 . S
H320 C303 0.930 . S
H321 C314 0.929 . S
Cu322 N323 1.999 . S
Cu322 O328 1.974 . S
Cu322 N333 1.985 . S
Cu322 O342 1.959 . S
N323 Cu322 1.999 . S
N323 C325 1.263 . S
N323 C327 1.389 . S
N324 C325 1.358 . S
N324 C326 1.400 . S
C325 N323 1.263 . S
C325 N324 1.358 . S
C325 H331 0.930 . S
C326 N324 1.400 . S
C326 C327 1.351 . S
C326 H343 0.930 . S
C327 N323 1.389 . S
C327 C326 1.351 . S
C327 H332 0.930 . S
O328 Cu322 1.974 . S
O328 C338 1.282 . S
C329 O330 1.261 . S
C329 O342 1.251 . S
O330 C329 1.261 . S
H331 C325 0.930 . S
H332 C327 0.930 . S
N333 Cu322 1.985 . S
N333 C335 1.335 . S
N333 C336 1.390 . S
N334 C335 1.345 . S
N334 C337 1.336 . S
C335 N333 1.335 . S
C335 N334 1.345 . S
C335 H340 0.930 . S
C336 N333 1.390 . S
C336 C337 1.346 . S
C336 H341 0.930 . S
C337 N334 1.336 . S
C337 C336 1.346 . S
C337 H344 0.929 . S
C338 O328 1.282 . S
C338 O339 1.216 . S
O339 C338 1.216 . S
H340 C335 0.930 . S
H341 C336 0.930 . S
O342 Cu322 1.959 . S
O342 C329 1.251 . S
H343 C326 0.930 . S
H344 C337 0.929 . S
Cu345 N346 1.999 . S
Cu345 O351 1.974 . S
Cu345 N356 1.985 . S
Cu345 O365 1.959 . S
N346 Cu345 1.999 . S
N346 C348 1.263 . S
N346 C350 1.389 . S
N347 C348 1.358 . S
N347 C349 1.400 . S
C348 N346 1.263 . S
C348 N347 1.358 . S
C348 H354 0.930 . S
C349 N347 1.400 . S
C349 C350 1.351 . S
C349 H366 0.930 . S
C350 N346 1.389 . S
C350 C349 1.351 . S
C350 H355 0.930 . S
O351 Cu345 1.974 . S
O351 C361 1.282 . S
C352 O353 1.261 . S
C352 O365 1.251 . S
O353 C352 1.261 . S
H354 C348 0.930 . S
H355 C350 0.930 . S
N356 Cu345 1.985 . S
N356 C358 1.335 . S
N356 C359 1.390 . S
N357 C358 1.345 . S
N357 C360 1.336 . S
C358 N356 1.335 . S
C358 N357 1.345 . S
C358 H363 0.930 . S
C359 N356 1.390 . S
C359 C360 1.346 . S
C359 H364 0.930 . S
C360 N357 1.336 . S
C360 C359 1.346 . S
C360 H367 0.929 . S
C361 O351 1.282 . S
C361 O362 1.216 . S
O362 C361 1.216 . S
H363 C358 0.930 . S
H364 C359 0.930 . S
O365 Cu345 1.959 . S
O365 C352 1.251 . S
H366 C349 0.930 . S
H367 C360 0.929 . S
Cu368 N369 1.999 . S
Cu368 O374 1.974 . S
Cu368 N379 1.985 . S
Cu368 O388 1.959 . S
N369 Cu368 1.999 . S
N369 C371 1.263 . S
N369 C373 1.389 . S
N370 C371 1.358 . S
N370 C372 1.400 . S
C371 N369 1.263 . S
C371 N370 1.358 . S
C371 H377 0.930 . S
C372 N370 1.400 . S
C372 C373 1.351 . S
C372 H389 0.930 . S
C373 N369 1.389 . S
C373 C372 1.351 . S
C373 H378 0.930 . S
O374 Cu368 1.974 . S
O374 C384 1.282 . S
C375 O376 1.261 . S
C375 O388 1.251 . S
O376 C375 1.261 . S
H377 C371 0.930 . S
H378 C373 0.930 . S
N379 Cu368 1.985 . S
N379 C381 1.335 . S
N379 C382 1.390 . S
N380 C381 1.345 . S
N380 C383 1.336 . S
C381 N379 1.335 . S
C381 N380 1.345 . S
C381 H386 0.930 . S
C382 N379 1.390 . S
C382 C383 1.346 . S
C382 H387 0.930 . S
C383 N380 1.336 . S
C383 C382 1.346 . S
C383 H390 0.929 . S
C384 O374 1.282 . S
C384 O385 1.216 . S
O385 C384 1.216 . S
H386 C381 0.930 . S
H387 C382 0.930 . S
O388 Cu368 1.959 . S
O388 C375 1.251 . S
H389 C372 0.930 . S
H390 C383 0.929 . S
Cu391 N392 1.999 . S
Cu391 O397 1.974 . S
Cu391 N402 1.985 . S
Cu391 O411 1.959 . S
N392 Cu391 1.999 . S
N392 C394 1.263 . S
N392 C396 1.389 . S
N393 C394 1.358 . S
N393 C395 1.400 . S
C394 N392 1.263 . S
C394 N393 1.358 . S
C394 H400 0.930 . S
C395 N393 1.400 . S
C395 C396 1.351 . S
C395 H412 0.930 . S
C396 N392 1.389 . S
C396 C395 1.351 . S
C396 H401 0.930 . S
O397 Cu391 1.974 . S
O397 C407 1.282 . S
C398 O399 1.261 . S
C398 O411 1.251 . S
O399 C398 1.261 . S
H400 C394 0.930 . S
H401 C396 0.930 . S
N402 Cu391 1.985 . S
N402 C404 1.335 . S
N402 C405 1.390 . S
N403 C404 1.345 . S
N403 C406 1.336 . S
C404 N402 1.335 . S
C404 N403 1.345 . S
C404 H409 0.930 . S
C405 N402 1.390 . S
C405 C406 1.346 . S
C405 H410 0.930 . S
C406 N403 1.336 . S
C406 C405 1.346 . S
C406 H413 0.929 . S
C407 O397 1.282 . S
C407 O408 1.216 . S
O408 C407 1.216 . S
H409 C404 0.930 . S
H410 C405 0.930 . S
O411 Cu391 1.959 . S
O411 C398 1.251 . S
H412 C395 0.930 . S
H413 C406 0.929 . S
Cu414 N415 1.999 . S
Cu414 O420 1.974 . S
Cu414 N425 1.985 . S
Cu414 O434 1.959 . S
N415 Cu414 1.999 . S
N415 C417 1.263 . S
N415 C419 1.389 . S
N416 C417 1.358 . S
N416 C418 1.400 . S
C417 N415 1.263 . S
C417 N416 1.358 . S
C417 H423 0.930 . S
C418 N416 1.400 . S
C418 C419 1.351 . S
C418 H435 0.930 . S
C419 N415 1.389 . S
C419 C418 1.351 . S
C419 H424 0.930 . S
O420 Cu414 1.974 . S
O420 C430 1.282 . S
C421 O422 1.261 . S
C421 O434 1.251 . S
O422 C421 1.261 . S
H423 C417 0.930 . S
H424 C419 0.930 . S
N425 Cu414 1.985 . S
N425 C427 1.335 . S
N425 C428 1.390 . S
N426 C427 1.345 . S
N426 C429 1.336 . S
C427 N425 1.335 . S
C427 N426 1.345 . S
C427 H432 0.930 . S
C428 N425 1.390 . S
C428 C429 1.346 . S
C428 H433 0.930 . S
C429 N426 1.336 . S
C429 C428 1.346 . S
C429 H436 0.929 . S
C430 O420 1.282 . S
C430 O431 1.216 . S
O431 C430 1.216 . S
H432 C427 0.930 . S
H433 C428 0.930 . S
O434 Cu414 1.959 . S
O434 C421 1.251 . S
H435 C418 0.930 . S
H436 C429 0.929 . S
Cu437 N438 1.999 . S
Cu437 O443 1.974 . S
Cu437 N448 1.985 . S
Cu437 O457 1.959 . S
N438 Cu437 1.999 . S
N438 C440 1.263 . S
N438 C442 1.389 . S
N439 C440 1.358 . S
N439 C441 1.400 . S
C440 N438 1.263 . S
C440 N439 1.358 . S
C440 H446 0.930 . S
C441 N439 1.400 . S
C441 C442 1.351 . S
C441 H458 0.930 . S
C442 N438 1.389 . S
C442 C441 1.351 . S
C442 H447 0.930 . S
O443 Cu437 1.974 . S
O443 C453 1.282 . S
C444 O445 1.261 . S
C444 O457 1.251 . S
O445 C444 1.261 . S
H446 C440 0.930 . S
H447 C442 0.930 . S
N448 Cu437 1.985 . S
N448 C450 1.335 . S
N448 C451 1.390 . S
N449 C450 1.345 . S
N449 C452 1.336 . S
C450 N448 1.335 . S
C450 N449 1.345 . S
C450 H455 0.930 . S
C451 N448 1.390 . S
C451 C452 1.346 . S
C451 H456 0.930 . S
C452 N449 1.336 . S
C452 C451 1.346 . S
C452 H459 0.929 . S
C453 O443 1.282 . S
C453 O454 1.216 . S
O454 C453 1.216 . S
H455 C450 0.930 . S
H456 C451 0.930 . S
O457 Cu437 1.959 . S
O457 C444 1.251 . S
H458 C441 0.930 . S
H459 C452 0.929 . S
Cu460 N461 1.999 . S
Cu460 O466 1.974 . S
Cu460 N471 1.985 . S
Cu460 O480 1.959 . S
N461 Cu460 1.999 . S
N461 C463 1.263 . S
N461 C465 1.389 . S
N462 C463 1.358 . S
N462 C464 1.400 . S
C463 N461 1.263 . S
C463 N462 1.358 . S
C463 H469 0.930 . S
C464 N462 1.400 . S
C464 C465 1.351 . S
C464 H481 0.930 . S
C465 N461 1.389 . S
C465 C464 1.351 . S
C465 H470 0.930 . S
O466 Cu460 1.974 . S
O466 C476 1.282 . S
C467 O468 1.261 . S
C467 O480 1.251 . S
O468 C467 1.261 . S
H469 C463 0.930 . S
H470 C465 0.930 . S
N471 Cu460 1.985 . S
N471 C473 1.335 . S
N471 C474 1.390 . S
N472 C473 1.345 . S
N472 C475 1.336 . S
C473 N471 1.335 . S
C473 N472 1.345 . S
C473 H478 0.930 . S
C474 N471 1.390 . S
C474 C475 1.346 . S
C474 H479 0.930 . S
C475 N472 1.336 . S
C475 C474 1.346 . S
C475 H482 0.929 . S
C476 O466 1.282 . S
C476 O477 1.216 . S
O477 C476 1.216 . S
H478 C473 0.930 . S
H479 C474 0.930 . S
O480 Cu460 1.959 . S
O480 C467 1.251 . S
H481 C464 0.930 . S
H482 C475 0.929 . S
Cu483 N484 1.999 . S
Cu483 O489 1.974 . S
Cu483 N494 1.985 . S
Cu483 O503 1.959 . S
N484 Cu483 1.999 . S
N484 C486 1.263 . S
N484 C488 1.389 . S
N485 C486 1.358 . S
N485 C487 1.400 . S
C486 N484 1.263 . S
C486 N485 1.358 . S
C486 H492 0.930 . S
C487 N485 1.400 . S
C487 C488 1.351 . S
C487 H504 0.930 . S
C488 N484 1.389 . S
C488 C487 1.351 . S
C488 H493 0.930 . S
O489 Cu483 1.974 . S
O489 C499 1.282 . S
C490 O491 1.261 . S
C490 O503 1.251 . S
O491 C490 1.261 . S
H492 C486 0.930 . S
H493 C488 0.930 . S
N494 Cu483 1.985 . S
N494 C496 1.335 . S
N494 C497 1.390 . S
N495 C496 1.345 . S
N495 C498 1.336 . S
C496 N494 1.335 . S
C496 N495 1.345 . S
C496 H501 0.930 . S
C497 N494 1.390 . S
C497 C498 1.346 . S
C497 H502 0.930 . S
C498 N495 1.336 . S
C498 C497 1.346 . S
C498 H505 0.929 . S
C499 O489 1.282 . S
C499 O500 1.216 . S
O500 C499 1.216 . S
H501 C496 0.930 . S
H502 C497 0.930 . S
O503 Cu483 1.959 . S
O503 C490 1.251 . S
H504 C487 0.930 . S
H505 C498 0.929 . S
Cu506 N507 1.999 . S
Cu506 O512 1.974 . S
Cu506 N517 1.985 . S
Cu506 O526 1.959 . S
N507 Cu506 1.999 . S
N507 C509 1.263 . S
N507 C511 1.389 . S
N508 C509 1.358 . S
N508 C510 1.400 . S
C509 N507 1.263 . S
C509 N508 1.358 . S
C509 H515 0.930 . S
C510 N508 1.400 . S
C510 C511 1.351 . S
C510 H527 0.930 . S
C511 N507 1.389 . S
C511 C510 1.351 . S
C511 H516 0.930 . S
O512 Cu506 1.974 . S
O512 C522 1.282 . S
C513 O514 1.261 . S
C513 O526 1.251 . S
O514 C513 1.261 . S
H515 C509 0.930 . S
H516 C511 0.930 . S
N517 Cu506 1.985 . S
N517 C519 1.335 . S
N517 C520 1.390 . S
N518 C519 1.345 . S
N518 C521 1.336 . S
C519 N517 1.335 . S
C519 N518 1.345 . S
C519 H524 0.930 . S
C520 N517 1.390 . S
C520 C521 1.346 . S
C520 H525 0.930 . S
C521 N518 1.336 . S
C521 C520 1.346 . S
C521 H528 0.929 . S
C522 O512 1.282 . S
C522 O523 1.216 . S
O523 C522 1.216 . S
H524 C519 0.930 . S
H525 C520 0.930 . S
O526 Cu506 1.959 . S
O526 C513 1.251 . S
H527 C510 0.930 . S
H528 C521 0.929 . S
Cu529 N530 1.999 . S
Cu529 O535 1.974 . S
Cu529 N540 1.985 . S
Cu529 O549 1.959 . S
N530 Cu529 1.999 . S
N530 C532 1.263 . S
N530 C534 1.389 . S
N531 C532 1.358 . S
N531 C533 1.400 . S
C532 N530 1.263 . S
C532 N531 1.358 . S
C532 H538 0.930 . S
C533 N531 1.400 . S
C533 C534 1.351 . S
C533 H550 0.930 . S
C534 N530 1.389 . S
C534 C533 1.351 . S
C534 H539 0.930 . S
O535 Cu529 1.974 . S
O535 C545 1.282 . S
C536 O537 1.261 . S
C536 O549 1.251 . S
O537 C536 1.261 . S
H538 C532 0.930 . S
H539 C534 0.930 . S
N540 Cu529 1.985 . S
N540 C542 1.335 . S
N540 C543 1.390 . S
N541 C542 1.345 . S
N541 C544 1.336 . S
C542 N540 1.335 . S
C542 N541 1.345 . S
C542 H547 0.930 . S
C543 N540 1.390 . S
C543 C544 1.346 . S
C543 H548 0.930 . S
C544 N541 1.336 . S
C544 C543 1.346 . S
C544 H551 0.929 . S
C545 O535 1.282 . S
C545 O546 1.216 . S
O546 C545 1.216 . S
H547 C542 0.930 . S
H548 C543 0.930 . S
O549 Cu529 1.959 . S
O549 C536 1.251 . S
H550 C533 0.930 . S
H551 C544 0.929 . S
Cu552 N553 1.999 . S
Cu552 O558 1.974 . S
Cu552 N563 1.985 . S
Cu552 O572 1.959 . S
N553 Cu552 1.999 . S
N553 C555 1.263 . S
N553 C557 1.389 . S
N554 C555 1.358 . S
N554 C556 1.400 . S
C555 N553 1.263 . S
C555 N554 1.358 . S
C555 H561 0.930 . S
C556 N554 1.400 . S
C556 C557 1.351 . S
C556 H573 0.930 . S
C557 N553 1.389 . S
C557 C556 1.351 . S
C557 H562 0.930 . S
O558 Cu552 1.974 . S
O558 C568 1.282 . S
C559 O560 1.261 . S
C559 O572 1.251 . S
O560 C559 1.261 . S
H561 C555 0.930 . S
H562 C557 0.930 . S
N563 Cu552 1.985 . S
N563 C565 1.335 . S
N563 C566 1.390 . S
N564 C565 1.345 . S
N564 C567 1.336 . S
C565 N563 1.335 . S
C565 N564 1.345 . S
C565 H570 0.930 . S
C566 N563 1.390 . S
C566 C567 1.346 . S
C566 H571 0.930 . S
C567 N564 1.336 . S
C567 C566 1.346 . S
C567 H574 0.929 . S
C568 O558 1.282 . S
C568 O569 1.216 . S
O569 C568 1.216 . S
H570 C565 0.930 . S
H571 C566 0.930 . S
O572 Cu552 1.959 . S
O572 C559 1.251 . S
H573 C556 0.930 . S
H574 C567 0.929 . S
Cu575 N576 1.999 . S
Cu575 O581 1.974 . S
Cu575 N586 1.985 . S
Cu575 O595 1.959 . S
N576 Cu575 1.999 . S
N576 C578 1.263 . S
N576 C580 1.389 . S
N577 C578 1.358 . S
N577 C579 1.400 . S
C578 N576 1.263 . S
C578 N577 1.358 . S
C578 H584 0.930 . S
C579 N577 1.400 . S
C579 C580 1.351 . S
C579 H596 0.930 . S
C580 N576 1.389 . S
C580 C579 1.351 . S
C580 H585 0.930 . S
O581 Cu575 1.974 . S
O581 C591 1.282 . S
C582 O583 1.261 . S
C582 O595 1.251 . S
O583 C582 1.261 . S
H584 C578 0.930 . S
H585 C580 0.930 . S
N586 Cu575 1.985 . S
N586 C588 1.335 . S
N586 C589 1.390 . S
N587 C588 1.345 . S
N587 C590 1.336 . S
C588 N586 1.335 . S
C588 N587 1.345 . S
C588 H593 0.930 . S
C589 N586 1.390 . S
C589 C590 1.346 . S
C589 H594 0.930 . S
C590 N587 1.336 . S
C590 C589 1.346 . S
C590 H597 0.929 . S
C591 O581 1.282 . S
C591 O592 1.216 . S
O592 C591 1.216 . S
H593 C588 0.930 . S
H594 C589 0.930 . S
O595 Cu575 1.959 . S
O595 C582 1.251 . S
H596 C579 0.930 . S
H597 C590 0.929 . S
Cu598 N599 1.999 . S
Cu598 O604 1.974 . S
Cu598 N609 1.985 . S
Cu598 O618 1.959 . S
N599 Cu598 1.999 . S
N599 C601 1.263 . S
N599 C603 1.389 . S
N600 C601 1.358 . S
N600 C602 1.400 . S
C601 N599 1.263 . S
C601 N600 1.358 . S
C601 H607 0.930 . S
C602 N600 1.400 . S
C602 C603 1.351 . S
C602 H619 0.930 . S
C603 N599 1.389 . S
C603 C602 1.351 . S
C603 H608 0.930 . S
O604 Cu598 1.974 . S
O604 C614 1.282 . S
C605 O606 1.261 . S
C605 O618 1.251 . S
O606 C605 1.261 . S
H607 C601 0.930 . S
H608 C603 0.930 . S
N609 Cu598 1.985 . S
N609 C611 1.335 . S
N609 C612 1.390 . S
N610 C611 1.345 . S
N610 C613 1.336 . S
C611 N609 1.335 . S
C611 N610 1.345 . S
C611 H616 0.930 . S
C612 N609 1.390 . S
C612 C613 1.346 . S
C612 H617 0.930 . S
C613 N610 1.336 . S
C613 C612 1.346 . S
C613 H620 0.929 . S
C614 O604 1.282 . S
C614 O615 1.216 . S
O615 C614 1.216 . S
H616 C611 0.930 . S
H617 C612 0.930 . S
O618 Cu598 1.959 . S
O618 C605 1.251 . S
H619 C602 0.930 . S
H620 C613 0.929 . S
Cu621 N622 1.999 . S
Cu621 O627 1.974 . S
Cu621 N632 1.985 . S
Cu621 O641 1.959 . S
N622 Cu621 1.999 . S
N622 C624 1.263 . S
N622 C626 1.389 . S
N623 C624 1.358 . S
N623 C625 1.400 . S
C624 N622 1.263 . S
C624 N623 1.358 . S
C624 H630 0.930 . S
C625 N623 1.400 . S
C625 C626 1.351 . S
C625 H642 0.930 . S
C626 N622 1.389 . S
C626 C625 1.351 . S
C626 H631 0.930 . S
O627 Cu621 1.974 . S
O627 C637 1.282 . S
C628 O629 1.261 . S
C628 O641 1.251 . S
O629 C628 1.261 . S
H630 C624 0.930 . S
H631 C626 0.930 . S
N632 Cu621 1.985 . S
N632 C634 1.335 . S
N632 C635 1.390 . S
N633 C634 1.345 . S
N633 C636 1.336 . S
C634 N632 1.335 . S
C634 N633 1.345 . S
C634 H639 0.930 . S
C635 N632 1.390 . S
C635 C636 1.346 . S
C635 H640 0.930 . S
C636 N633 1.336 . S
C636 C635 1.346 . S
C636 H643 0.929 . S
C637 O627 1.282 . S
C637 O638 1.216 . S
O638 C637 1.216 . S
H639 C634 0.930 . S
H640 C635 0.930 . S
O641 Cu621 1.959 . S
O641 C628 1.251 . S
H642 C625 0.930 . S
H643 C636 0.929 . S
Cu644 N645 1.999 . S
Cu644 O650 1.974 . S
Cu644 N655 1.985 . S
Cu644 O664 1.959 . S
N645 Cu644 1.999 . S
N645 C647 1.263 . S
N645 C649 1.389 . S
N646 C647 1.358 . S
N646 C648 1.400 . S
C647 N645 1.263 . S
C647 N646 1.358 . S
C647 H653 0.930 . S
C648 N646 1.400 . S
C648 C649 1.351 . S
C648 H665 0.930 . S
C649 N645 1.389 . S
C649 C648 1.351 . S
C649 H654 0.930 . S
O650 Cu644 1.974 . S
O650 C660 1.282 . S
C651 O652 1.261 . S
C651 O664 1.251 . S
O652 C651 1.261 . S
H653 C647 0.930 . S
H654 C649 0.930 . S
N655 Cu644 1.985 . S
N655 C657 1.335 . S
N655 C658 1.390 . S
N656 C657 1.345 . S
N656 C659 1.336 . S
C657 N655 1.335 . S
C657 N656 1.345 . S
C657 H662 0.930 . S
C658 N655 1.390 . S
C658 C659 1.346 . S
C658 H663 0.930 . S
C659 N656 1.336 . S
C659 C658 1.346 . S
C659 H666 0.929 . S
C660 O650 1.282 . S
C660 O661 1.216 . S
O661 C660 1.216 . S
H662 C657 0.930 . S
H663 C658 0.930 . S
O664 Cu644 1.959 . S
O664 C651 1.251 . S
H665 C648 0.930 . S
H666 C659 0.929 . S
Cu667 N668 1.999 . S
Cu667 O673 1.974 . S
Cu667 N678 1.985 . S
Cu667 O687 1.959 . S
N668 Cu667 1.999 . S
N668 C670 1.263 . S
N668 C672 1.389 . S
N669 C670 1.358 . S
N669 C671 1.400 . S
C670 N668 1.263 . S
C670 N669 1.358 . S
C670 H676 0.930 . S
C671 N669 1.400 . S
C671 C672 1.351 . S
C671 H688 0.930 . S
C672 N668 1.389 . S
C672 C671 1.351 . S
C672 H677 0.930 . S
O673 Cu667 1.974 . S
O673 C683 1.282 . S
C674 O675 1.261 . S
C674 O687 1.251 . S
O675 C674 1.261 . S
H676 C670 0.930 . S
H677 C672 0.930 . S
N678 Cu667 1.985 . S
N678 C680 1.335 . S
N678 C681 1.390 . S
N679 C680 1.345 . S
N679 C682 1.336 . S
C680 N678 1.335 . S
C680 N679 1.345 . S
C680 H685 0.930 . S
C681 N678 1.390 . S
C681 C682 1.346 . S
C681 H686 0.930 . S
C682 N679 1.336 . S
C682 C681 1.346 . S
C682 H689 0.929 . S
C683 O673 1.282 . S
C683 O684 1.216 . S
O684 C683 1.216 . S
H685 C680 0.930 . S
H686 C681 0.930 . S
O687 Cu667 1.959 . S
O687 C674 1.251 . S
H688 C671 0.930 . S
H689 C682 0.929 . S
Cu690 N691 1.999 . S
Cu690 O696 1.974 . S
Cu690 N701 1.985 . S
Cu690 O710 1.959 . S
N691 Cu690 1.999 . S
N691 C693 1.263 . S
N691 C695 1.389 . S
N692 C693 1.358 . S
N692 C694 1.400 . S
C693 N691 1.263 . S
C693 N692 1.358 . S
C693 H699 0.930 . S
C694 N692 1.400 . S
C694 C695 1.351 . S
C694 H711 0.930 . S
C695 N691 1.389 . S
C695 C694 1.351 . S
C695 H700 0.930 . S
O696 Cu690 1.974 . S
O696 C706 1.282 . S
C697 O698 1.261 . S
C697 O710 1.251 . S
O698 C697 1.261 . S
H699 C693 0.930 . S
H700 C695 0.930 . S
N701 Cu690 1.985 . S
N701 C703 1.335 . S
N701 C704 1.390 . S
N702 C703 1.345 . S
N702 C705 1.336 . S
C703 N701 1.335 . S
C703 N702 1.345 . S
C703 H708 0.930 . S
C704 N701 1.390 . S
C704 C705 1.346 . S
C704 H709 0.930 . S
C705 N702 1.336 . S
C705 C704 1.346 . S
C705 H712 0.929 . S
C706 O696 1.282 . S
C706 O707 1.216 . S
O707 C706 1.216 . S
H708 C703 0.930 . S
H709 C704 0.930 . S
O710 Cu690 1.959 . S
O710 C697 1.251 . S
H711 C694 0.930 . S
H712 C705 0.929 . S
Cu713 N714 1.999 . S
Cu713 O719 1.974 . S
Cu713 N724 1.985 . S
Cu713 O733 1.959 . S
N714 Cu713 1.999 . S
N714 C716 1.263 . S
N714 C718 1.389 . S
N715 C716 1.358 . S
N715 C717 1.400 . S
C716 N714 1.263 . S
C716 N715 1.358 . S
C716 H722 0.930 . S
C717 N715 1.400 . S
C717 C718 1.351 . S
C717 H734 0.930 . S
C718 N714 1.389 . S
C718 C717 1.351 . S
C718 H723 0.930 . S
O719 Cu713 1.974 . S
O719 C729 1.282 . S
C720 O721 1.261 . S
C720 O733 1.251 . S
O721 C720 1.261 . S
H722 C716 0.930 . S
H723 C718 0.930 . S
N724 Cu713 1.985 . S
N724 C726 1.335 . S
N724 C727 1.390 . S
N725 C726 1.345 . S
N725 C728 1.336 . S
C726 N724 1.335 . S
C726 N725 1.345 . S
C726 H731 0.930 . S
C727 N724 1.390 . S
C727 C728 1.346 . S
C727 H732 0.930 . S
C728 N725 1.336 . S
C728 C727 1.346 . S
C728 H735 0.929 . S
C729 O719 1.282 . S
C729 O730 1.216 . S
O730 C729 1.216 . S
H731 C726 0.930 . S
H732 C727 0.930 . S
O733 Cu713 1.959 . S
O733 C720 1.251 . S
H734 C717 0.930 . S
H735 C728 0.929 . S
H736 C744 0.929 . S
H737 C746 0.930 . S
H738 C748 0.930 . S
H739 C751 0.929 . S
H740 C754 0.930 . S
H741 C756 0.960 . S
H742 C756 0.960 . S
H743 C756 0.960 . S
C744 H736 0.929 . S
C744 C745 1.377 . S
C744 C746 1.384 . S
C745 C744 1.377 . S
C745 C751 1.390 . S
C746 H737 0.930 . S
C746 C744 1.384 . S
C746 C747 1.372 . S
C747 C746 1.372 . S
C747 C748 1.400 . S
C747 C752 1.490 . S
C748 H738 0.930 . S
C748 C747 1.400 . S
C748 C751 1.386 . S
H749 C765 0.930 . S
H750 C766 0.931 . S
C751 H739 0.929 . S
C751 C745 1.390 . S
C751 C748 1.386 . S
C752 C747 1.490 . S
C752 C754 1.395 . S
C752 C755 1.403 . S
H753 C759 0.930 . S
C754 H740 0.930 . S
C754 C752 1.395 . S
C754 C757 1.403 . S
C755 C752 1.403 . S
C755 C756 1.524 . S
C755 C759 1.400 . S
C756 H741 0.960 . S
C756 H742 0.960 . S
C756 H743 0.960 . S
C756 C755 1.524 . S
C757 C754 1.403 . S
C757 C758 1.392 . S
C757 C761 1.495 . S
C758 C757 1.392 . S
C758 C759 1.385 . S
C758 C760 1.478 . S
C759 H753 0.930 . S
C759 C755 1.400 . S
C759 C758 1.385 . S
C760 C758 1.478 . S
C760 C762 1.381 . S
C760 C766 1.383 . S
C761 C757 1.495 . S
C761 H767 0.959 . S
C761 H768 0.961 . S
C761 H769 0.960 . S
C762 C760 1.381 . S
C762 C763 1.394 . S
C762 H770 0.930 . S
C763 C762 1.394 . S
C763 C764 1.383 . S
C763 H771 0.929 . S
C764 C763 1.383 . S
C764 C765 1.377 . S
C765 H749 0.930 . S
C765 C764 1.377 . S
C765 C766 1.379 . S
C766 H750 0.931 . S
C766 C760 1.383 . S
C766 C765 1.379 . S
H767 C761 0.959 . S
H768 C761 0.961 . S
H769 C761 0.960 . S
H770 C762 0.930 . S
H771 C763 0.929 . S
H772 C780 0.929 . S
H773 C782 0.930 . S
H774 C784 0.930 . S
H775 C787 0.929 . S
H776 C790 0.930 . S
H777 C792 0.960 . S
H778 C792 0.960 . S
H779 C792 0.960 . S
C780 H772 0.929 . S
C780 C781 1.377 . S
C780 C782 1.384 . S
C781 C780 1.377 . S
C781 C787 1.390 . S
C782 H773 0.930 . S
C782 C780 1.384 . S
C782 C783 1.372 . S
C783 C782 1.372 . S
C783 C784 1.400 . S
C783 C788 1.490 . S
C784 H774 0.930 . S
C784 C783 1.400 . S
C784 C787 1.386 . S
H785 C801 0.930 . S
H786 C802 0.931 . S
C787 H775 0.929 . S
C787 C781 1.390 . S
C787 C784 1.386 . S
C788 C783 1.490 . S
C788 C790 1.395 . S
C788 C791 1.403 . S
H789 C795 0.930 . S
C790 H776 0.930 . S
C790 C788 1.395 . S
C790 C793 1.403 . S
C791 C788 1.403 . S
C791 C792 1.524 . S
C791 C795 1.400 . S
C792 H777 0.960 . S
C792 H778 0.960 . S
C792 H779 0.960 . S
C792 C791 1.524 . S
C793 C790 1.403 . S
C793 C794 1.392 . S
C793 C797 1.495 . S
C794 C793 1.392 . S
C794 C795 1.385 . S
C794 C796 1.478 . S
C795 H789 0.930 . S
C795 C791 1.400 . S
C795 C794 1.385 . S
C796 C794 1.478 . S
C796 C798 1.381 . S
C796 C802 1.383 . S
C797 C793 1.495 . S
C797 H803 0.959 . S
C797 H804 0.961 . S
C797 H805 0.960 . S
C798 C796 1.381 . S
C798 C799 1.394 . S
C798 H806 0.930 . S
C799 C798 1.394 . S
C799 C800 1.383 . S
C799 H807 0.929 . S
C800 C799 1.383 . S
C800 C801 1.377 . S
C801 H785 0.930 . S
C801 C800 1.377 . S
C801 C802 1.379 . S
C802 H786 0.931 . S
C802 C796 1.383 . S
C802 C801 1.379 . S
H803 C797 0.959 . S
H804 C797 0.961 . S
H805 C797 0.960 . S
H806 C798 0.930 . S
H807 C799 0.929 . S
H808 C816 0.929 . S
H809 C818 0.930 . S
H810 C820 0.930 . S
H811 C823 0.929 . S
H812 C826 0.930 . S
H813 C828 0.960 . S
H814 C828 0.960 . S
H815 C828 0.960 . S
C816 H808 0.929 . S
C816 C817 1.377 . S
C816 C818 1.384 . S
C817 C816 1.377 . S
C817 C823 1.390 . S
C818 H809 0.930 . S
C818 C816 1.384 . S
C818 C819 1.372 . S
C819 C818 1.372 . S
C819 C820 1.400 . S
C819 C824 1.490 . S
C820 H810 0.930 . S
C820 C819 1.400 . S
C820 C823 1.386 . S
H821 C837 0.930 . S
H822 C838 0.931 . S
C823 H811 0.929 . S
C823 C817 1.390 . S
C823 C820 1.386 . S
C824 C819 1.490 . S
C824 C826 1.395 . S
C824 C827 1.403 . S
H825 C831 0.930 . S
C826 H812 0.930 . S
C826 C824 1.395 . S
C826 C829 1.403 . S
C827 C824 1.403 . S
C827 C828 1.524 . S
C827 C831 1.400 . S
C828 H813 0.960 . S
C828 H814 0.960 . S
C828 H815 0.960 . S
C828 C827 1.524 . S
C829 C826 1.403 . S
C829 C830 1.392 . S
C829 C833 1.495 . S
C830 C829 1.392 . S
C830 C831 1.385 . S
C830 C832 1.478 . S
C831 H825 0.930 . S
C831 C827 1.400 . S
C831 C830 1.385 . S
C832 C830 1.478 . S
C832 C834 1.381 . S
C832 C838 1.383 . S
C833 C829 1.495 . S
C833 H839 0.959 . S
C833 H840 0.961 . S
C833 H841 0.960 . S
C834 C832 1.381 . S
C834 C835 1.394 . S
C834 H842 0.930 . S
C835 C834 1.394 . S
C835 C836 1.383 . S
C835 H843 0.929 . S
C836 C835 1.383 . S
C836 C837 1.377 . S
C837 H821 0.930 . S
C837 C836 1.377 . S
C837 C838 1.379 . S
C838 H822 0.931 . S
C838 C832 1.383 . S
C838 C837 1.379 . S
H839 C833 0.959 . S
H840 C833 0.961 . S
H841 C833 0.960 . S
H842 C834 0.930 . S
H843 C835 0.929 . S
H844 C852 0.929 . S
H845 C854 0.930 . S
H846 C856 0.930 . S
H847 C859 0.929 . S
H848 C862 0.930 . S
H849 C864 0.960 . S
H850 C864 0.960 . S
H851 C864 0.960 . S
C852 H844 0.929 . S
C852 C853 1.377 . S
C852 C854 1.384 . S
C853 C852 1.377 . S
C853 C859 1.390 . S
C854 H845 0.930 . S
C854 C852 1.384 . S
C854 C855 1.372 . S
C855 C854 1.372 . S
C855 C856 1.400 . S
C855 C860 1.490 . S
C856 H846 0.930 . S
C856 C855 1.400 . S
C856 C859 1.386 . S
H857 C873 0.930 . S
H858 C874 0.931 . S
C859 H847 0.929 . S
C859 C853 1.390 . S
C859 C856 1.386 . S
C860 C855 1.490 . S
C860 C862 1.395 . S
C860 C863 1.403 . S
H861 C867 0.930 . S
C862 H848 0.930 . S
C862 C860 1.395 . S
C862 C865 1.403 . S
C863 C860 1.403 . S
C863 C864 1.524 . S
C863 C867 1.400 . S
C864 H849 0.960 . S
C864 H850 0.960 . S
C864 H851 0.960 . S
C864 C863 1.524 . S
C865 C862 1.403 . S
C865 C866 1.392 . S
C865 C869 1.495 . S
C866 C865 1.392 . S
C866 C867 1.385 . S
C866 C868 1.478 . S
C867 H861 0.930 . S
C867 C863 1.400 . S
C867 C866 1.385 . S
C868 C866 1.478 . S
C868 C870 1.381 . S
C868 C874 1.383 . S
C869 C865 1.495 . S
C869 H875 0.959 . S
C869 H876 0.961 . S
C869 H877 0.960 . S
C870 C868 1.381 . S
C870 C871 1.394 . S
C870 H878 0.930 . S
C871 C870 1.394 . S
C871 C872 1.383 . S
C871 H879 0.929 . S
C872 C871 1.383 . S
C872 C873 1.377 . S
C873 H857 0.930 . S
C873 C872 1.377 . S
C873 C874 1.379 . S
C874 H858 0.931 . S
C874 C868 1.383 . S
C874 C873 1.379 . S
H875 C869 0.959 . S
H876 C869 0.961 . S
H877 C869 0.960 . S
H878 C870 0.930 . S
H879 C871 0.929 . S
H880 C888 0.929 . S
H881 C890 0.930 . S
H882 C892 0.930 . S
H883 C895 0.929 . S
H884 C898 0.930 . S
H885 C900 0.960 . S
H886 C900 0.960 . S
H887 C900 0.960 . S
C888 H880 0.929 . S
C888 C889 1.377 . S
C888 C890 1.384 . S
C889 C888 1.377 . S
C889 C895 1.390 . S
C890 H881 0.930 . S
C890 C888 1.384 . S
C890 C891 1.372 . S
C891 C890 1.372 . S
C891 C892 1.400 . S
C891 C896 1.490 . S
C892 H882 0.930 . S
C892 C891 1.400 . S
C892 C895 1.386 . S
H893 C909 0.930 . S
H894 C910 0.931 . S
C895 H883 0.929 . S
C895 C889 1.390 . S
C895 C892 1.386 . S
C896 C891 1.490 . S
C896 C898 1.395 . S
C896 C899 1.403 . S
H897 C903 0.930 . S
C898 H884 0.930 . S
C898 C896 1.395 . S
C898 C901 1.403 . S
C899 C896 1.403 . S
C899 C900 1.524 . S
C899 C903 1.400 . S
C900 H885 0.960 . S
C900 H886 0.960 . S
C900 H887 0.960 . S
C900 C899 1.524 . S
C901 C898 1.403 . S
C901 C902 1.392 . S
C901 C905 1.495 . S
C902 C901 1.392 . S
C902 C903 1.385 . S
C902 C904 1.478 . S
C903 H897 0.930 . S
C903 C899 1.400 . S
C903 C902 1.385 . S
C904 C902 1.478 . S
C904 C906 1.381 . S
C904 C910 1.383 . S
C905 C901 1.495 . S
C905 H911 0.959 . S
C905 H912 0.961 . S
C905 H913 0.960 . S
C906 C904 1.381 . S
C906 C907 1.394 . S
C906 H914 0.930 . S
C907 C906 1.394 . S
C907 C908 1.383 . S
C907 H915 0.929 . S
C908 C907 1.383 . S
C908 C909 1.377 . S
C909 H893 0.930 . S
C909 C908 1.377 . S
C909 C910 1.379 . S
C910 H894 0.931 . S
C910 C904 1.383 . S
C910 C909 1.379 . S
H911 C905 0.959 . S
H912 C905 0.961 . S
H913 C905 0.960 . S
H914 C906 0.930 . S
H915 C907 0.929 . S
H916 C924 0.929 . S
H917 C926 0.930 . S
H918 C928 0.930 . S
H919 C931 0.929 . S
H920 C934 0.930 . S
H921 C936 0.960 . S
H922 C936 0.960 . S
H923 C936 0.960 . S
C924 H916 0.929 . S
C924 C925 1.377 . S
C924 C926 1.384 . S
C925 C924 1.377 . S
C925 C931 1.390 . S
C926 H917 0.930 . S
C926 C924 1.384 . S
C926 C927 1.372 . S
C927 C926 1.372 . S
C927 C928 1.400 . S
C927 C932 1.490 . S
C928 H918 0.930 . S
C928 C927 1.400 . S
C928 C931 1.386 . S
H929 C945 0.930 . S
H930 C946 0.931 . S
C931 H919 0.929 . S
C931 C925 1.390 . S
C931 C928 1.386 . S
C932 C927 1.490 . S
C932 C934 1.395 . S
C932 C935 1.403 . S
H933 C939 0.930 . S
C934 H920 0.930 . S
C934 C932 1.395 . S
C934 C937 1.403 . S
C935 C932 1.403 . S
C935 C936 1.524 . S
C935 C939 1.400 . S
C936 H921 0.960 . S
C936 H922 0.960 . S
C936 H923 0.960 . S
C936 C935 1.524 . S
C937 C934 1.403 . S
C937 C938 1.392 . S
C937 C941 1.495 . S
C938 C937 1.392 . S
C938 C939 1.385 . S
C938 C940 1.478 . S
C939 H933 0.930 . S
C939 C935 1.400 . S
C939 C938 1.385 . S
C940 C938 1.478 . S
C940 C942 1.381 . S
C940 C946 1.383 . S
C941 C937 1.495 . S
C941 H947 0.959 . S
C941 H948 0.961 . S
C941 H949 0.960 . S
C942 C940 1.381 . S
C942 C943 1.394 . S
C942 H950 0.930 . S
C943 C942 1.394 . S
C943 C944 1.383 . S
C943 H951 0.929 . S
C944 C943 1.383 . S
C944 C945 1.377 . S
C945 H929 0.930 . S
C945 C944 1.377 . S
C945 C946 1.379 . S
C946 H930 0.931 . S
C946 C940 1.383 . S
C946 C945 1.379 . S
H947 C941 0.959 . S
H948 C941 0.961 . S
H949 C941 0.960 . S
H950 C942 0.930 . S
H951 C943 0.929 . S
H952 C960 0.929 . S
H953 C962 0.930 . S
H954 C964 0.930 . S
H955 C967 0.929 . S
H956 C970 0.930 . S
H957 C972 0.960 . S
H958 C972 0.960 . S
H959 C972 0.960 . S
C960 H952 0.929 . S
C960 C961 1.377 . S
C960 C962 1.384 . S
C961 C960 1.377 . S
C961 C967 1.390 . S
C962 H953 0.930 . S
C962 C960 1.384 . S
C962 C963 1.372 . S
C963 C962 1.372 . S
C963 C964 1.400 . S
C963 C968 1.490 . S
C964 H954 0.930 . S
C964 C963 1.400 . S
C964 C967 1.386 . S
H965 C981 0.930 . S
H966 C982 0.931 . S
C967 H955 0.929 . S
C967 C961 1.390 . S
C967 C964 1.386 . S
C968 C963 1.490 . S
C968 C970 1.395 . S
C968 C971 1.403 . S
H969 C975 0.930 . S
C970 H956 0.930 . S
C970 C968 1.395 . S
C970 C973 1.403 . S
C971 C968 1.403 . S
C971 C972 1.524 . S
C971 C975 1.400 . S
C972 H957 0.960 . S
C972 H958 0.960 . S
C972 H959 0.960 . S
C972 C971 1.524 . S
C973 C970 1.403 . S
C973 C974 1.392 . S
C973 C977 1.495 . S
C974 C973 1.392 . S
C974 C975 1.385 . S
C974 C976 1.478 . S
C975 H969 0.930 . S
C975 C971 1.400 . S
C975 C974 1.385 . S
C976 C974 1.478 . S
C976 C978 1.381 . S
C976 C982 1.383 . S
C977 C973 1.495 . S
C977 H983 0.959 . S
C977 H984 0.961 . S
C977 H985 0.960 . S
C978 C976 1.381 . S
C978 C979 1.394 . S
C978 H986 0.930 . S
C979 C978 1.394 . S
C979 C980 1.383 . S
C979 H987 0.929 . S
C980 C979 1.383 . S
C980 C981 1.377 . S
C981 H965 0.930 . S
C981 C980 1.377 . S
C981 C982 1.379 . S
C982 H966 0.931 . S
C982 C976 1.383 . S
C982 C981 1.379 . S
H983 C977 0.959 . S
H984 C977 0.961 . S
H985 C977 0.960 . S
H986 C978 0.930 . S
H987 C979 0.929 . S
H988 C996 0.929 . S
H989 C998 0.930 . S
H990 C1000 0.930 . S
H991 C1003 0.929 . S
H992 C1006 0.930 . S
H993 C1008 0.960 . S
H994 C1008 0.960 . S
H995 C1008 0.960 . S
C996 H988 0.929 . S
C996 C997 1.377 . S
C996 C998 1.384 . S
C997 C996 1.377 . S
C997 C1003 1.390 . S
C998 H989 0.930 . S
C998 C996 1.384 . S
C998 C999 1.372 . S
C999 C998 1.372 . S
C999 C1000 1.400 . S
C999 C1004 1.490 . S
C1000 H990 0.930 . S
C1000 C999 1.400 . S
C1000 C1003 1.386 . S
H1001 C1017 0.930 . S
H1002 C1018 0.931 . S
C1003 H991 0.929 . S
C1003 C997 1.390 . S
C1003 C1000 1.386 . S
C1004 C999 1.490 . S
C1004 C1006 1.395 . S
C1004 C1007 1.403 . S
H1005 C1011 0.930 . S
C1006 H992 0.930 . S
C1006 C1004 1.395 . S
C1006 C1009 1.403 . S
C1007 C1004 1.403 . S
C1007 C1008 1.524 . S
C1007 C1011 1.400 . S
C1008 H993 0.960 . S
C1008 H994 0.960 . S
C1008 H995 0.960 . S
C1008 C1007 1.524 . S
C1009 C1006 1.403 . S
C1009 C1010 1.392 . S
C1009 C1013 1.495 . S
C1010 C1009 1.392 . S
C1010 C1011 1.385 . S
C1010 C1012 1.478 . S
C1011 H1005 0.930 . S
C1011 C1007 1.400 . S
C1011 C1010 1.385 . S
C1012 C1010 1.478 . S
C1012 C1014 1.381 . S
C1012 C1018 1.383 . S
C1013 C1009 1.495 . S
C1013 H1019 0.959 . S
C1013 H1020 0.961 . S
C1013 H1021 0.960 . S
C1014 C1012 1.381 . S
C1014 C1015 1.394 . S
C1014 H1022 0.930 . S
C1015 C1014 1.394 . S
C1015 C1016 1.383 . S
C1015 H1023 0.929 . S
C1016 C1015 1.383 . S
C1016 C1017 1.377 . S
C1017 H1001 0.930 . S
C1017 C1016 1.377 . S
C1017 C1018 1.379 . S
C1018 H1002 0.931 . S
C1018 C1012 1.383 . S
C1018 C1017 1.379 . S
H1019 C1013 0.959 . S
H1020 C1013 0.961 . S
H1021 C1013 0.960 . S
H1022 C1014 0.930 . S
H1023 C1015 0.929 . S
H1024 C1032 0.929 . S
H1025 C1034 0.930 . S
H1026 C1036 0.930 . S
H1027 C1039 0.929 . S
H1028 C1042 0.930 . S
H1029 C1044 0.960 . S
H1030 C1044 0.960 . S
H1031 C1044 0.960 . S
C1032 H1024 0.929 . S
C1032 C1033 1.377 . S
C1032 C1034 1.384 . S
C1033 C1032 1.377 . S
C1033 C1039 1.390 . S
C1034 H1025 0.930 . S
C1034 C1032 1.384 . S
C1034 C1035 1.372 . S
C1035 C1034 1.372 . S
C1035 C1036 1.400 . S
C1035 C1040 1.490 . S
C1036 H1026 0.930 . S
C1036 C1035 1.400 . S
C1036 C1039 1.386 . S
H1037 C1053 0.930 . S
H1038 C1054 0.931 . S
C1039 H1027 0.929 . S
C1039 C1033 1.390 . S
C1039 C1036 1.386 . S
C1040 C1035 1.490 . S
C1040 C1042 1.395 . S
C1040 C1043 1.403 . S
H1041 C1047 0.930 . S
C1042 H1028 0.930 . S
C1042 C1040 1.395 . S
C1042 C1045 1.403 . S
C1043 C1040 1.403 . S
C1043 C1044 1.524 . S
C1043 C1047 1.400 . S
C1044 H1029 0.960 . S
C1044 H1030 0.960 . S
C1044 H1031 0.960 . S
C1044 C1043 1.524 . S
C1045 C1042 1.403 . S
C1045 C1046 1.392 . S
C1045 C1049 1.495 . S
C1046 C1045 1.392 . S
C1046 C1047 1.385 . S
C1046 C1048 1.478 . S
C1047 H1041 0.930 . S
C1047 C1043 1.400 . S
C1047 C1046 1.385 . S
C1048 C1046 1.478 . S
C1048 C1050 1.381 . S
C1048 C1054 1.383 . S
C1049 C1045 1.495 . S
C1049 H1055 0.959 . S
C1049 H1056 0.961 . S
C1049 H1057 0.960 . S
C1050 C1048 1.381 . S
C1050 C1051 1.394 . S
C1050 H1058 0.930 . S
C1051 C1050 1.394 . S
C1051 C1052 1.383 . S
C1051 H1059 0.929 . S
C1052 C1051 1.383 . S
C1052 C1053 1.377 . S
C1053 H1037 0.930 . S
C1053 C1052 1.377 . S
C1053 C1054 1.379 . S
C1054 H1038 0.931 . S
C1054 C1048 1.383 . S
C1054 C1053 1.379 . S
H1055 C1049 0.959 . S
H1056 C1049 0.961 . S
H1057 C1049 0.960 . S
H1058 C1050 0.930 . S
H1059 C1051 0.929 . S
H1060 C1068 0.929 . S
H1061 C1070 0.930 . S
H1062 C1072 0.930 . S
H1063 C1075 0.929 . S
H1064 C1078 0.930 . S
H1065 C1080 0.960 . S
H1066 C1080 0.960 . S
H1067 C1080 0.960 . S
C1068 H1060 0.929 . S
C1068 C1069 1.377 . S
C1068 C1070 1.384 . S
C1069 C1068 1.377 . S
C1069 C1075 1.390 . S
C1070 H1061 0.930 . S
C1070 C1068 1.384 . S
C1070 C1071 1.372 . S
C1071 C1070 1.372 . S
C1071 C1072 1.400 . S
C1071 C1076 1.490 . S
C1072 H1062 0.930 . S
C1072 C1071 1.400 . S
C1072 C1075 1.386 . S
H1073 C1089 0.930 . S
H1074 C1090 0.931 . S
C1075 H1063 0.929 . S
C1075 C1069 1.390 . S
C1075 C1072 1.386 . S
C1076 C1071 1.490 . S
C1076 C1078 1.395 . S
C1076 C1079 1.403 . S
H1077 C1083 0.930 . S
C1078 H1064 0.930 . S
C1078 C1076 1.395 . S
C1078 C1081 1.403 . S
C1079 C1076 1.403 . S
C1079 C1080 1.524 . S
C1079 C1083 1.400 . S
C1080 H1065 0.960 . S
C1080 H1066 0.960 . S
C1080 H1067 0.960 . S
C1080 C1079 1.524 . S
C1081 C1078 1.403 . S
C1081 C1082 1.392 . S
C1081 C1085 1.495 . S
C1082 C1081 1.392 . S
C1082 C1083 1.385 . S
C1082 C1084 1.478 . S
C1083 H1077 0.930 . S
C1083 C1079 1.400 . S
C1083 C1082 1.385 . S
C1084 C1082 1.478 . S
C1084 C1086 1.381 . S
C1084 C1090 1.383 . S
C1085 C1081 1.495 . S
C1085 H1091 0.959 . S
C1085 H1092 0.961 . S
C1085 H1093 0.960 . S
C1086 C1084 1.381 . S
C1086 C1087 1.394 . S
C1086 H1094 0.930 . S
C1087 C1086 1.394 . S
C1087 C1088 1.383 . S
C1087 H1095 0.929 . S
C1088 C1087 1.383 . S
C1088 C1089 1.377 . S
C1089 H1073 0.930 . S
C1089 C1088 1.377 . S
C1089 C1090 1.379 . S
C1090 H1074 0.931 . S
C1090 C1084 1.383 . S
C1090 C1089 1.379 . S
H1091 C1085 0.959 . S
H1092 C1085 0.961 . S
H1093 C1085 0.960 . S
H1094 C1086 0.930 . S
H1095 C1087 0.929 . S
H1096 C1104 0.929 . S
H1097 C1106 0.930 . S
H1098 C1108 0.930 . S
H1099 C1111 0.929 . S
H1100 C1114 0.930 . S
H1101 C1116 0.960 . S
H1102 C1116 0.960 . S
H1103 C1116 0.960 . S
C1104 H1096 0.929 . S
C1104 C1105 1.377 . S
C1104 C1106 1.384 . S
C1105 C1104 1.377 . S
C1105 C1111 1.390 . S
C1106 H1097 0.930 . S
C1106 C1104 1.384 . S
C1106 C1107 1.372 . S
C1107 C1106 1.372 . S
C1107 C1108 1.400 . S
C1107 C1112 1.490 . S
C1108 H1098 0.930 . S
C1108 C1107 1.400 . S
C1108 C1111 1.386 . S
H1109 C1125 0.930 . S
H1110 C1126 0.931 . S
C1111 H1099 0.929 . S
C1111 C1105 1.390 . S
C1111 C1108 1.386 . S
C1112 C1107 1.490 . S
C1112 C1114 1.395 . S
C1112 C1115 1.403 . S
H1113 C1119 0.930 . S
C1114 H1100 0.930 . S
C1114 C1112 1.395 . S
C1114 C1117 1.403 . S
C1115 C1112 1.403 . S
C1115 C1116 1.524 . S
C1115 C1119 1.400 . S
C1116 H1101 0.960 . S
C1116 H1102 0.960 . S
C1116 H1103 0.960 . S
C1116 C1115 1.524 . S
C1117 C1114 1.403 . S
C1117 C1118 1.392 . S
C1117 C1121 1.495 . S
C1118 C1117 1.392 . S
C1118 C1119 1.385 . S
C1118 C1120 1.478 . S
C1119 H1113 0.930 . S
C1119 C1115 1.400 . S
C1119 C1118 1.385 . S
C1120 C1118 1.478 . S
C1120 C1122 1.381 . S
C1120 C1126 1.383 . S
C1121 C1117 1.495 . S
C1121 H1127 0.959 . S
C1121 H1128 0.961 . S
C1121 H1129 0.960 . S
C1122 C1120 1.381 . S
C1122 C1123 1.394 . S
C1122 H1130 0.930 . S
C1123 C1122 1.394 . S
C1123 C1124 1.383 . S
C1123 H1131 0.929 . S
C1124 C1123 1.383 . S
C1124 C1125 1.377 . S
C1125 H1109 0.930 . S
C1125 C1124 1.377 . S
C1125 C1126 1.379 . S
C1126 H1110 0.931 . S
C1126 C1120 1.383 . S
C1126 C1125 1.379 . S
H1127 C1121 0.959 . S
H1128 C1121 0.961 . S
H1129 C1121 0.960 . S
H1130 C1122 0.930 . S
H1131 C1123 0.929 . S
H1132 C1140 0.929 . S
H1133 C1142 0.930 . S
H1134 C1144 0.930 . S
H1135 C1147 0.929 . S
H1136 C1150 0.930 . S
H1137 C1152 0.960 . S
H1138 C1152 0.960 . S
H1139 C1152 0.960 . S
C1140 H1132 0.929 . S
C1140 C1141 1.377 . S
C1140 C1142 1.384 . S
C1141 C1140 1.377 . S
C1141 C1147 1.390 . S
C1142 H1133 0.930 . S
C1142 C1140 1.384 . S
C1142 C1143 1.372 . S
C1143 C1142 1.372 . S
C1143 C1144 1.400 . S
C1143 C1148 1.490 . S
C1144 H1134 0.930 . S
C1144 C1143 1.400 . S
C1144 C1147 1.386 . S
H1145 C1161 0.930 . S
H1146 C1162 0.931 . S
C1147 H1135 0.929 . S
C1147 C1141 1.390 . S
C1147 C1144 1.386 . S
C1148 C1143 1.490 . S
C1148 C1150 1.395 . S
C1148 C1151 1.403 . S
H1149 C1155 0.930 . S
C1150 H1136 0.930 . S
C1150 C1148 1.395 . S
C1150 C1153 1.403 . S
C1151 C1148 1.403 . S
C1151 C1152 1.524 . S
C1151 C1155 1.400 . S
C1152 H1137 0.960 . S
C1152 H1138 0.960 . S
C1152 H1139 0.960 . S
C1152 C1151 1.524 . S
C1153 C1150 1.403 . S
C1153 C1154 1.392 . S
C1153 C1157 1.495 . S
C1154 C1153 1.392 . S
C1154 C1155 1.385 . S
C1154 C1156 1.478 . S
C1155 H1149 0.930 . S
C1155 C1151 1.400 . S
C1155 C1154 1.385 . S
C1156 C1154 1.478 . S
C1156 C1158 1.381 . S
C1156 C1162 1.383 . S
C1157 C1153 1.495 . S
C1157 H1163 0.959 . S
C1157 H1164 0.961 . S
C1157 H1165 0.960 . S
C1158 C1156 1.381 . S
C1158 C1159 1.394 . S
C1158 H1166 0.930 . S
C1159 C1158 1.394 . S
C1159 C1160 1.383 . S
C1159 H1167 0.929 . S
C1160 C1159 1.383 . S
C1160 C1161 1.377 . S
C1161 H1145 0.930 . S
C1161 C1160 1.377 . S
C1161 C1162 1.379 . S
C1162 H1146 0.931 . S
C1162 C1156 1.383 . S
C1162 C1161 1.379 . S
H1163 C1157 0.959 . S
H1164 C1157 0.961 . S
H1165 C1157 0.960 . S
H1166 C1158 0.930 . S
H1167 C1159 0.929 . S
H1168 C1176 0.929 . S
H1169 C1178 0.930 . S
H1170 C1180 0.930 . S
H1171 C1183 0.929 . S
H1172 C1186 0.930 . S
H1173 C1188 0.960 . S
H1174 C1188 0.960 . S
H1175 C1188 0.960 . S
C1176 H1168 0.929 . S
C1176 C1177 1.377 . S
C1176 C1178 1.384 . S
C1177 C1176 1.377 . S
C1177 C1183 1.390 . S
C1178 H1169 0.930 . S
C1178 C1176 1.384 . S
C1178 C1179 1.372 . S
C1179 C1178 1.372 . S
C1179 C1180 1.400 . S
C1179 C1184 1.490 . S
C1180 H1170 0.930 . S
C1180 C1179 1.400 . S
C1180 C1183 1.386 . S
H1181 C1197 0.930 . S
H1182 C1198 0.931 . S
C1183 H1171 0.929 . S
C1183 C1177 1.390 . S
C1183 C1180 1.386 . S
C1184 C1179 1.490 . S
C1184 C1186 1.395 . S
C1184 C1187 1.403 . S
H1185 C1191 0.930 . S
C1186 H1172 0.930 . S
C1186 C1184 1.395 . S
C1186 C1189 1.403 . S
C1187 C1184 1.403 . S
C1187 C1188 1.524 . S
C1187 C1191 1.400 . S
C1188 H1173 0.960 . S
C1188 H1174 0.960 . S
C1188 H1175 0.960 . S
C1188 C1187 1.524 . S
C1189 C1186 1.403 . S
C1189 C1190 1.392 . S
C1189 C1193 1.495 . S
C1190 C1189 1.392 . S
C1190 C1191 1.385 . S
C1190 C1192 1.478 . S
C1191 H1185 0.930 . S
C1191 C1187 1.400 . S
C1191 C1190 1.385 . S
C1192 C1190 1.478 . S
C1192 C1194 1.381 . S
C1192 C1198 1.383 . S
C1193 C1189 1.495 . S
C1193 H1199 0.959 . S
C1193 H1200 0.961 . S
C1193 H1201 0.960 . S
C1194 C1192 1.381 . S
C1194 C1195 1.394 . S
C1194 H1202 0.930 . S
C1195 C1194 1.394 . S
C1195 C1196 1.383 . S
C1195 H1203 0.929 . S
C1196 C1195 1.383 . S
C1196 C1197 1.377 . S
C1197 H1181 0.930 . S
C1197 C1196 1.377 . S
C1197 C1198 1.379 . S
C1198 H1182 0.931 . S
C1198 C1192 1.383 . S
C1198 C1197 1.379 . S
H1199 C1193 0.959 . S
H1200 C1193 0.961 . S
H1201 C1193 0.960 . S
H1202 C1194 0.930 . S
H1203 C1195 0.929 . S
H1204 C1212 0.929 . S
H1205 C1214 0.930 . S
H1206 C1216 0.930 . S
H1207 C1219 0.929 . S
H1208 C1222 0.930 . S
H1209 C1224 0.960 . S
H1210 C1224 0.960 . S
H1211 C1224 0.960 . S
C1212 H1204 0.929 . S
C1212 C1213 1.377 . S
C1212 C1214 1.384 . S
C1213 C1212 1.377 . S
C1213 C1219 1.390 . S
C1214 H1205 0.930 . S
C1214 C1212 1.384 . S
C1214 C1215 1.372 . S
C1215 C1214 1.372 . S
C1215 C1216 1.400 . S
C1215 C1220 1.490 . S
C1216 H1206 0.930 . S
C1216 C1215 1.400 . S
C1216 C1219 1.386 . S
H1217 C1233 0.930 . S
H1218 C1234 0.931 . S
C1219 H1207 0.929 . S
C1219 C1213 1.390 . S
C1219 C1216 1.386 . S
C1220 C1215 1.490 . S
C1220 C1222 1.395 . S
C1220 C1223 1.403 . S
H1221 C1227 0.930 . S
C1222 H1208 0.930 . S
C1222 C1220 1.395 . S
C1222 C1225 1.403 . S
C1223 C1220 1.403 . S
C1223 C1224 1.524 . S
C1223 C1227 1.400 . S
C1224 H1209 0.960 . S
C1224 H1210 0.960 . S
C1224 H1211 0.960 . S
C1224 C1223 1.524 . S
C1225 C1222 1.403 . S
C1225 C1226 1.392 . S
C1225 C1229 1.495 . S
C1226 C1225 1.392 . S
C1226 C1227 1.385 . S
C1226 C1228 1.478 . S
C1227 H1221 0.930 . S
C1227 C1223 1.400 . S
C1227 C1226 1.385 . S
C1228 C1226 1.478 . S
C1228 C1230 1.381 . S
C1228 C1234 1.383 . S
C1229 C1225 1.495 . S
C1229 H1235 0.959 . S
C1229 H1236 0.961 . S
C1229 H1237 0.960 . S
C1230 C1228 1.381 . S
C1230 C1231 1.394 . S
C1230 H1238 0.930 . S
C1231 C1230 1.394 . S
C1231 C1232 1.383 . S
C1231 H1239 0.929 . S
C1232 C1231 1.383 . S
C1232 C1233 1.377 . S
C1233 H1217 0.930 . S
C1233 C1232 1.377 . S
C1233 C1234 1.379 . S
C1234 H1218 0.931 . S
C1234 C1228 1.383 . S
C1234 C1233 1.379 . S
H1235 C1229 0.959 . S
H1236 C1229 0.961 . S
H1237 C1229 0.960 . S
H1238 C1230 0.930 . S
H1239 C1231 0.929 . S
H1240 C1248 0.929 . S
H1241 C1250 0.930 . S
H1242 C1252 0.930 . S
H1243 C1255 0.929 . S
H1244 C1258 0.930 . S
H1245 C1260 0.960 . S
H1246 C1260 0.960 . S
H1247 C1260 0.960 . S
C1248 H1240 0.929 . S
C1248 C1249 1.377 . S
C1248 C1250 1.384 . S
C1249 C1248 1.377 . S
C1249 C1255 1.390 . S
C1250 H1241 0.930 . S
C1250 C1248 1.384 . S
C1250 C1251 1.372 . S
C1251 C1250 1.372 . S
C1251 C1252 1.400 . S
C1251 C1256 1.490 . S
C1252 H1242 0.930 . S
C1252 C1251 1.400 . S
C1252 C1255 1.386 . S
H1253 C1269 0.930 . S
H1254 C1270 0.931 . S
C1255 H1243 0.929 . S
C1255 C1249 1.390 . S
C1255 C1252 1.386 . S
C1256 C1251 1.490 . S
C1256 C1258 1.395 . S
C1256 C1259 1.403 . S
H1257 C1263 0.930 . S
C1258 H1244 0.930 . S
C1258 C1256 1.395 . S
C1258 C1261 1.403 . S
C1259 C1256 1.403 . S
C1259 C1260 1.524 . S
C1259 C1263 1.400 . S
C1260 H1245 0.960 . S
C1260 H1246 0.960 . S
C1260 H1247 0.960 . S
C1260 C1259 1.524 . S
C1261 C1258 1.403 . S
C1261 C1262 1.392 . S
C1261 C1265 1.495 . S
C1262 C1261 1.392 . S
C1262 C1263 1.385 . S
C1262 C1264 1.478 . S
C1263 H1257 0.930 . S
C1263 C1259 1.400 . S
C1263 C1262 1.385 . S
C1264 C1262 1.478 . S
C1264 C1266 1.381 . S
C1264 C1270 1.383 . S
C1265 C1261 1.495 . S
C1265 H1271 0.959 . S
C1265 H1272 0.961 . S
C1265 H1273 0.960 . S
C1266 C1264 1.381 . S
C1266 C1267 1.394 . S
C1266 H1274 0.930 . S
C1267 C1266 1.394 . S
C1267 C1268 1.383 . S
C1267 H1275 0.929 . S
C1268 C1267 1.383 . S
C1268 C1269 1.377 . S
C1269 H1253 0.930 . S
C1269 C1268 1.377 . S
C1269 C1270 1.379 . S
C1270 H1254 0.931 . S
C1270 C1264 1.383 . S
C1270 C1269 1.379 . S
H1271 C1265 0.959 . S
H1272 C1265 0.961 . S
H1273 C1265 0.960 . S
H1274 C1266 0.930 . S
H1275 C1267 0.929 . S
H1276 C1284 0.929 . S
H1277 C1286 0.930 . S
H1278 C1288 0.930 . S
H1279 C1291 0.929 . S
H1280 C1294 0.930 . S
H1281 C1296 0.960 . S
H1282 C1296 0.960 . S
H1283 C1296 0.960 . S
C1284 H1276 0.929 . S
C1284 C1285 1.377 . S
C1284 C1286 1.384 . S
C1285 C1284 1.377 . S
C1285 C1291 1.390 . S
C1286 H1277 0.930 . S
C1286 C1284 1.384 . S
C1286 C1287 1.372 . S
C1287 C1286 1.372 . S
C1287 C1288 1.400 . S
C1287 C1292 1.490 . S
C1288 H1278 0.930 . S
C1288 C1287 1.400 . S
C1288 C1291 1.386 . S
H1289 C1305 0.930 . S
H1290 C1306 0.931 . S
C1291 H1279 0.929 . S
C1291 C1285 1.390 . S
C1291 C1288 1.386 . S
C1292 C1287 1.490 . S
C1292 C1294 1.395 . S
C1292 C1295 1.403 . S
H1293 C1299 0.930 . S
C1294 H1280 0.930 . S
C1294 C1292 1.395 . S
C1294 C1297 1.403 . S
C1295 C1292 1.403 . S
C1295 C1296 1.524 . S
C1295 C1299 1.400 . S
C1296 H1281 0.960 . S
C1296 H1282 0.960 . S
C1296 H1283 0.960 . S
C1296 C1295 1.524 . S
C1297 C1294 1.403 . S
C1297 C1298 1.392 . S
C1297 C1301 1.495 . S
C1298 C1297 1.392 . S
C1298 C1299 1.385 . S
C1298 C1300 1.478 . S
C1299 H1293 0.930 . S
C1299 C1295 1.400 . S
C1299 C1298 1.385 . S
C1300 C1298 1.478 . S
C1300 C1302 1.381 . S
C1300 C1306 1.383 . S
C1301 C1297 1.495 . S
C1301 H1307 0.959 . S
C1301 H1308 0.961 . S
C1301 H1309 0.960 . S
C1302 C1300 1.381 . S
C1302 C1303 1.394 . S
C1302 H1310 0.930 . S
C1303 C1302 1.394 . S
C1303 C1304 1.383 . S
C1303 H1311 0.929 . S
C1304 C1303 1.383 . S
C1304 C1305 1.377 . S
C1305 H1289 0.930 . S
C1305 C1304 1.377 . S
C1305 C1306 1.379 . S
C1306 H1290 0.931 . S
C1306 C1300 1.383 . S
C1306 C1305 1.379 . S
H1307 C1301 0.959 . S
H1308 C1301 0.961 . S
H1309 C1301 0.960 . S
H1310 C1302 0.930 . S
H1311 C1303 0.929 . S
H1312 C1320 0.929 . S
H1313 C1322 0.930 . S
H1314 C1324 0.930 . S
H1315 C1327 0.929 . S
H1316 C1330 0.930 . S
H1317 C1332 0.960 . S
H1318 C1332 0.960 . S
H1319 C1332 0.960 . S
C1320 H1312 0.929 . S
C1320 C1321 1.377 . S
C1320 C1322 1.384 . S
C1321 C1320 1.377 . S
C1321 C1327 1.390 . S
C1322 H1313 0.930 . S
C1322 C1320 1.384 . S
C1322 C1323 1.372 . S
C1323 C1322 1.372 . S
C1323 C1324 1.400 . S
C1323 C1328 1.490 . S
C1324 H1314 0.930 . S
C1324 C1323 1.400 . S
C1324 C1327 1.386 . S
H1325 C1341 0.930 . S
H1326 C1342 0.931 . S
C1327 H1315 0.929 . S
C1327 C1321 1.390 . S
C1327 C1324 1.386 . S
C1328 C1323 1.490 . S
C1328 C1330 1.395 . S
C1328 C1331 1.403 . S
H1329 C1335 0.930 . S
C1330 H1316 0.930 . S
C1330 C1328 1.395 . S
C1330 C1333 1.403 1_655 S
C1331 C1328 1.403 . S
C1331 C1332 1.524 . S
C1331 C1335 1.400 1_655 S
C1332 H1317 0.960 . S
C1332 H1318 0.960 . S
C1332 H1319 0.960 . S
C1332 C1331 1.524 . S
C1333 C1330 1.403 1_455 S
C1333 C1334 1.392 . S
C1333 C1337 1.495 . S
C1334 C1333 1.392 . S
C1334 C1335 1.385 . S
C1334 C1336 1.478 . S
C1335 H1329 0.930 . S
C1335 C1331 1.400 1_455 S
C1335 C1334 1.385 . S
C1336 C1334 1.478 . S
C1336 C1338 1.381 . S
C1336 C1342 1.383 . S
C1337 C1333 1.495 . S
C1337 H1343 0.959 . S
C1337 H1344 0.961 . S
C1337 H1345 0.960 . S
C1338 C1336 1.381 . S
C1338 C1339 1.394 . S
C1338 H1346 0.930 . S
C1339 C1338 1.394 . S
C1339 C1340 1.383 . S
C1339 H1347 0.929 . S
C1340 C1339 1.383 . S
C1340 C1341 1.377 . S
C1341 H1325 0.930 . S
C1341 C1340 1.377 . S
C1341 C1342 1.379 . S
C1342 H1326 0.931 . S
C1342 C1336 1.383 . S
C1342 C1341 1.379 . S
H1343 C1337 0.959 . S
H1344 C1337 0.961 . S
H1345 C1337 0.960 . S
H1346 C1338 0.930 . S
H1347 C1339 0.929 . S
H1348 C1356 0.929 . S
H1349 C1358 0.930 . S
H1350 C1360 0.930 . S
H1351 C1363 0.929 . S
H1352 C1366 0.930 . S
H1353 C1368 0.960 . S
H1354 C1368 0.960 . S
H1355 C1368 0.960 . S
C1356 H1348 0.929 . S
C1356 C1357 1.377 . S
C1356 C1358 1.384 . S
C1357 C1356 1.377 . S
C1357 C1363 1.390 . S
C1358 H1349 0.930 . S
C1358 C1356 1.384 . S
C1358 C1359 1.372 . S
C1359 C1358 1.372 . S
C1359 C1360 1.400 . S
C1359 C1364 1.490 . S
C1360 H1350 0.930 . S
C1360 C1359 1.400 . S
C1360 C1363 1.386 . S
H1361 C1377 0.930 . S
H1362 C1378 0.931 . S
C1363 H1351 0.929 . S
C1363 C1357 1.390 . S
C1363 C1360 1.386 . S
C1364 C1359 1.490 . S
C1364 C1366 1.395 . S
C1364 C1367 1.403 . S
H1365 C1371 0.930 . S
C1366 H1352 0.930 . S
C1366 C1364 1.395 . S
C1366 C1369 1.403 1_545 S
C1367 C1364 1.403 . S
C1367 C1368 1.524 . S
C1367 C1371 1.400 1_545 S
C1368 H1353 0.960 . S
C1368 H1354 0.960 . S
C1368 H1355 0.960 . S
C1368 C1367 1.524 . S
C1369 C1366 1.403 1_565 S
C1369 C1370 1.392 . S
C1369 C1373 1.495 . S
C1370 C1369 1.392 . S
C1370 C1371 1.385 . S
C1370 C1372 1.478 . S
C1371 H1365 0.930 . S
C1371 C1367 1.400 1_565 S
C1371 C1370 1.385 . S
C1372 C1370 1.478 . S
C1372 C1374 1.381 . S
C1372 C1378 1.383 . S
C1373 C1369 1.495 . S
C1373 H1379 0.959 . S
C1373 H1380 0.961 . S
C1373 H1381 0.960 . S
C1374 C1372 1.381 . S
C1374 C1375 1.394 . S
C1374 H1382 0.930 . S
C1375 C1374 1.394 . S
C1375 C1376 1.383 . S
C1375 H1383 0.929 . S
C1376 C1375 1.383 . S
C1376 C1377 1.377 . S
C1377 H1361 0.930 . S
C1377 C1376 1.377 . S
C1377 C1378 1.379 . S
C1378 H1362 0.931 . S
C1378 C1372 1.383 . S
C1378 C1377 1.379 . S
H1379 C1373 0.959 . S
H1380 C1373 0.961 . S
H1381 C1373 0.960 . S
H1382 C1374 0.930 . S
H1383 C1375 0.929 . S
H1384 C1392 0.929 . S
H1385 C1394 0.930 . S
H1386 C1396 0.930 . S
H1387 C1399 0.929 . S
H1388 C1402 0.930 . S
H1389 C1404 0.960 . S
H1390 C1404 0.960 . S
H1391 C1404 0.960 . S
C1392 H1384 0.929 . S
C1392 C1393 1.377 . S
C1392 C1394 1.384 . S
C1393 C1392 1.377 . S
C1393 C1399 1.390 . S
C1394 H1385 0.930 . S
C1394 C1392 1.384 . S
C1394 C1395 1.372 . S
C1395 C1394 1.372 . S
C1395 C1396 1.400 . S
C1395 C1400 1.490 . S
C1396 H1386 0.930 . S
C1396 C1395 1.400 . S
C1396 C1399 1.386 . S
H1397 C1413 0.930 . S
H1398 C1414 0.931 . S
C1399 H1387 0.929 . S
C1399 C1393 1.390 . S
C1399 C1396 1.386 . S
C1400 C1395 1.490 . S
C1400 C1402 1.395 . S
C1400 C1403 1.403 . S
H1401 C1407 0.930 . S
C1402 H1388 0.930 . S
C1402 C1400 1.395 . S
C1402 C1405 1.403 1_455 S
C1403 C1400 1.403 . S
C1403 C1404 1.524 . S
C1403 C1407 1.400 1_455 S
C1404 H1389 0.960 . S
C1404 H1390 0.960 . S
C1404 H1391 0.960 . S
C1404 C1403 1.524 . S
C1405 C1402 1.403 1_655 S
C1405 C1406 1.392 . S
C1405 C1409 1.495 . S
C1406 C1405 1.392 . S
C1406 C1407 1.385 . S
C1406 C1408 1.478 . S
C1407 H1401 0.930 . S
C1407 C1403 1.400 1_655 S
C1407 C1406 1.385 . S
C1408 C1406 1.478 . S
C1408 C1410 1.381 . S
C1408 C1414 1.383 . S
C1409 C1405 1.495 . S
C1409 H1415 0.959 . S
C1409 H1416 0.961 . S
C1409 H1417 0.960 . S
C1410 C1408 1.381 . S
C1410 C1411 1.394 . S
C1410 H1418 0.930 . S
C1411 C1410 1.394 . S
C1411 C1412 1.383 . S
C1411 H1419 0.929 . S
C1412 C1411 1.383 . S
C1412 C1413 1.377 . S
C1413 H1397 0.930 . S
C1413 C1412 1.377 . S
C1413 C1414 1.379 . S
C1414 H1398 0.931 . S
C1414 C1408 1.383 . S
C1414 C1413 1.379 . S
H1415 C1409 0.959 . S
H1416 C1409 0.961 . S
H1417 C1409 0.960 . S
H1418 C1410 0.930 . S
H1419 C1411 0.929 . S
H1420 C1428 0.929 . S
H1421 C1430 0.930 . S
H1422 C1432 0.930 . S
H1423 C1435 0.929 . S
H1424 C1438 0.930 . S
H1425 C1440 0.960 . S
H1426 C1440 0.960 . S
H1427 C1440 0.960 . S
C1428 H1420 0.929 . S
C1428 C1429 1.377 . S
C1428 C1430 1.384 . S
C1429 C1428 1.377 . S
C1429 C1435 1.390 . S
C1430 H1421 0.930 . S
C1430 C1428 1.384 . S
C1430 C1431 1.372 . S
C1431 C1430 1.372 . S
C1431 C1432 1.400 . S
C1431 C1436 1.490 . S
C1432 H1422 0.930 . S
C1432 C1431 1.400 . S
C1432 C1435 1.386 . S
H1433 C1449 0.930 . S
H1434 C1450 0.931 . S
C1435 H1423 0.929 . S
C1435 C1429 1.390 . S
C1435 C1432 1.386 . S
C1436 C1431 1.490 . S
C1436 C1438 1.395 . S
C1436 C1439 1.403 . S
H1437 C1443 0.930 . S
C1438 H1424 0.930 . S
C1438 C1436 1.395 . S
C1438 C1441 1.403 1_565 S
C1439 C1436 1.403 . S
C1439 C1440 1.524 . S
C1439 C1443 1.400 1_565 S
C1440 H1425 0.960 . S
C1440 H1426 0.960 . S
C1440 H1427 0.960 . S
C1440 C1439 1.524 . S
C1441 C1438 1.403 1_545 S
C1441 C1442 1.392 . S
C1441 C1445 1.495 . S
C1442 C1441 1.392 . S
C1442 C1443 1.385 . S
C1442 C1444 1.478 . S
C1443 H1437 0.930 . S
C1443 C1439 1.400 1_545 S
C1443 C1442 1.385 . S
C1444 C1442 1.478 . S
C1444 C1446 1.381 . S
C1444 C1450 1.383 . S
C1445 C1441 1.495 . S
C1445 H1451 0.959 . S
C1445 H1452 0.961 . S
C1445 H1453 0.960 . S
C1446 C1444 1.381 . S
C1446 C1447 1.394 . S
C1446 H1454 0.930 . S
C1447 C1446 1.394 . S
C1447 C1448 1.383 . S
C1447 H1455 0.929 . S
C1448 C1447 1.383 . S
C1448 C1449 1.377 . S
C1449 H1433 0.930 . S
C1449 C1448 1.377 . S
C1449 C1450 1.379 . S
C1450 H1434 0.931 . S
C1450 C1444 1.383 . S
C1450 C1449 1.379 . S
H1451 C1445 0.959 . S
H1452 C1445 0.961 . S
H1453 C1445 0.960 . S
H1454 C1446 0.930 . S
H1455 C1447 0.929 . S
H1456 C1464 0.929 . S
H1457 C1466 0.930 . S
H1458 C1468 0.930 . S
H1459 C1471 0.929 . S
H1460 C1474 0.930 . S
H1461 C1476 0.960 . S
H1462 C1476 0.960 . S
H1463 C1476 0.960 . S
C1464 H1456 0.929 . S
C1464 C1465 1.377 . S
C1464 C1466 1.384 . S
C1465 C1464 1.377 . S
C1465 C1471 1.390 . S
C1466 H1457 0.930 . S
C1466 C1464 1.384 . S
C1466 C1467 1.372 . S
C1467 C1466 1.372 . S
C1467 C1468 1.400 . S
C1467 C1472 1.490 . S
C1468 H1458 0.930 . S
C1468 C1467 1.400 . S
C1468 C1471 1.386 . S
H1469 C1485 0.930 . S
H1470 C1486 0.931 . S
C1471 H1459 0.929 . S
C1471 C1465 1.390 . S
C1471 C1468 1.386 . S
C1472 C1467 1.490 . S
C1472 C1474 1.395 . S
C1472 C1475 1.403 . S
H1473 C1479 0.930 . S
C1474 H1460 0.930 . S
C1474 C1472 1.395 . S
C1474 C1477 1.403 1_455 S
C1475 C1472 1.403 . S
C1475 C1476 1.524 . S
C1475 C1479 1.400 1_455 S
C1476 H1461 0.960 . S
C1476 H1462 0.960 . S
C1476 H1463 0.960 . S
C1476 C1475 1.524 . S
C1477 C1474 1.403 1_655 S
C1477 C1478 1.392 . S
C1477 C1481 1.495 . S
C1478 C1477 1.392 . S
C1478 C1479 1.385 . S
C1478 C1480 1.478 . S
C1479 H1473 0.930 . S
C1479 C1475 1.400 1_655 S
C1479 C1478 1.385 . S
C1480 C1478 1.478 . S
C1480 C1482 1.381 . S
C1480 C1486 1.383 . S
C1481 C1477 1.495 . S
C1481 H1487 0.959 . S
C1481 H1488 0.961 . S
C1481 H1489 0.960 . S
C1482 C1480 1.381 . S
C1482 C1483 1.394 . S
C1482 H1490 0.930 . S
C1483 C1482 1.394 . S
C1483 C1484 1.383 . S
C1483 H1491 0.929 . S
C1484 C1483 1.383 . S
C1484 C1485 1.377 . S
C1485 H1469 0.930 . S
C1485 C1484 1.377 . S
C1485 C1486 1.379 . S
C1486 H1470 0.931 . S
C1486 C1480 1.383 . S
C1486 C1485 1.379 . S
H1487 C1481 0.959 . S
H1488 C1481 0.961 . S
H1489 C1481 0.960 . S
H1490 C1482 0.930 . S
H1491 C1483 0.929 . S
H1492 C1500 0.929 . S
H1493 C1502 0.930 . S
H1494 C1504 0.930 . S
H1495 C1507 0.929 . S
H1496 C1510 0.930 . S
H1497 C1512 0.960 . S
H1498 C1512 0.960 . S
H1499 C1512 0.960 . S
C1500 H1492 0.929 . S
C1500 C1501 1.377 . S
C1500 C1502 1.384 . S
C1501 C1500 1.377 . S
C1501 C1507 1.390 . S
C1502 H1493 0.930 . S
C1502 C1500 1.384 . S
C1502 C1503 1.372 . S
C1503 C1502 1.372 . S
C1503 C1504 1.400 . S
C1503 C1508 1.490 . S
C1504 H1494 0.930 . S
C1504 C1503 1.400 . S
C1504 C1507 1.386 . S
H1505 C1521 0.930 . S
H1506 C1522 0.931 . S
C1507 H1495 0.929 . S
C1507 C1501 1.390 . S
C1507 C1504 1.386 . S
C1508 C1503 1.490 . S
C1508 C1510 1.395 . S
C1508 C1511 1.403 . S
H1509 C1515 0.930 . S
C1510 H1496 0.930 . S
C1510 C1508 1.395 . S
C1510 C1513 1.403 1_565 S
C1511 C1508 1.403 . S
C1511 C1512 1.524 . S
C1511 C1515 1.400 1_565 S
C1512 H1497 0.960 . S
C1512 H1498 0.960 . S
C1512 H1499 0.960 . S
C1512 C1511 1.524 . S
C1513 C1510 1.403 1_545 S
C1513 C1514 1.392 . S
C1513 C1517 1.495 . S
C1514 C1513 1.392 . S
C1514 C1515 1.385 . S
C1514 C1516 1.478 . S
C1515 H1509 0.930 . S
C1515 C1511 1.400 1_545 S
C1515 C1514 1.385 . S
C1516 C1514 1.478 . S
C1516 C1518 1.381 . S
C1516 C1522 1.383 . S
C1517 C1513 1.495 . S
C1517 H1523 0.959 . S
C1517 H1524 0.961 . S
C1517 H1525 0.960 . S
C1518 C1516 1.381 . S
C1518 C1519 1.394 . S
C1518 H1526 0.930 . S
C1519 C1518 1.394 . S
C1519 C1520 1.383 . S
C1519 H1527 0.929 . S
C1520 C1519 1.383 . S
C1520 C1521 1.377 . S
C1521 H1505 0.930 . S
C1521 C1520 1.377 . S
C1521 C1522 1.379 . S
C1522 H1506 0.931 . S
C1522 C1516 1.383 . S
C1522 C1521 1.379 . S
H1523 C1517 0.959 . S
H1524 C1517 0.961 . S
H1525 C1517 0.960 . S
H1526 C1518 0.930 . S
H1527 C1519 0.929 . S
H1528 C1536 0.929 . S
H1529 C1538 0.930 . S
H1530 C1540 0.930 . S
H1531 C1543 0.929 . S
H1532 C1546 0.930 . S
H1533 C1548 0.960 . S
H1534 C1548 0.960 . S
H1535 C1548 0.960 . S
C1536 H1528 0.929 . S
C1536 C1537 1.377 . S
C1536 C1538 1.384 . S
C1537 C1536 1.377 . S
C1537 C1543 1.390 . S
C1538 H1529 0.930 . S
C1538 C1536 1.384 . S
C1538 C1539 1.372 . S
C1539 C1538 1.372 . S
C1539 C1540 1.400 . S
C1539 C1544 1.490 . S
C1540 H1530 0.930 . S
C1540 C1539 1.400 . S
C1540 C1543 1.386 . S
H1541 C1557 0.930 . S
H1542 C1558 0.931 . S
C1543 H1531 0.929 . S
C1543 C1537 1.390 . S
C1543 C1540 1.386 . S
C1544 C1539 1.490 . S
C1544 C1546 1.395 . S
C1544 C1547 1.403 . S
H1545 C1551 0.930 . S
C1546 H1532 0.930 . S
C1546 C1544 1.395 . S
C1546 C1549 1.403 1_455 S
C1547 C1544 1.403 . S
C1547 C1548 1.524 . S
C1547 C1551 1.400 1_455 S
C1548 H1533 0.960 . S
C1548 H1534 0.960 . S
C1548 H1535 0.960 . S
C1548 C1547 1.524 . S
C1549 C1546 1.403 1_655 S
C1549 C1550 1.392 . S
C1549 C1553 1.495 . S
C1550 C1549 1.392 . S
C1550 C1551 1.385 . S
C1550 C1552 1.478 . S
C1551 H1545 0.930 . S
C1551 C1547 1.400 1_655 S
C1551 C1550 1.385 . S
C1552 C1550 1.478 . S
C1552 C1554 1.381 . S
C1552 C1558 1.383 . S
C1553 C1549 1.495 . S
C1553 H1559 0.959 . S
C1553 H1560 0.961 . S
C1553 H1561 0.960 . S
C1554 C1552 1.381 . S
C1554 C1555 1.394 . S
C1554 H1562 0.930 . S
C1555 C1554 1.394 . S
C1555 C1556 1.383 . S
C1555 H1563 0.929 . S
C1556 C1555 1.383 . S
C1556 C1557 1.377 . S
C1557 H1541 0.930 . S
C1557 C1556 1.377 . S
C1557 C1558 1.379 . S
C1558 H1542 0.931 . S
C1558 C1552 1.383 . S
C1558 C1557 1.379 . S
H1559 C1553 0.959 . S
H1560 C1553 0.961 . S
H1561 C1553 0.960 . S
H1562 C1554 0.930 . S
H1563 C1555 0.929 . S
H1564 C1572 0.929 . S
H1565 C1574 0.930 . S
H1566 C1576 0.930 . S
H1567 C1579 0.929 . S
H1568 C1582 0.930 . S
H1569 C1584 0.960 . S
H1570 C1584 0.960 . S
H1571 C1584 0.960 . S
C1572 H1564 0.929 . S
C1572 C1573 1.377 . S
C1572 C1574 1.384 . S
C1573 C1572 1.377 . S
C1573 C1579 1.390 . S
C1574 H1565 0.930 . S
C1574 C1572 1.384 . S
C1574 C1575 1.372 . S
C1575 C1574 1.372 . S
C1575 C1576 1.400 . S
C1575 C1580 1.490 . S
C1576 H1566 0.930 . S
C1576 C1575 1.400 . S
C1576 C1579 1.386 . S
H1577 C1593 0.930 . S
H1578 C1594 0.931 . S
C1579 H1567 0.929 . S
C1579 C1573 1.390 . S
C1579 C1576 1.386 . S
C1580 C1575 1.490 . S
C1580 C1582 1.395 . S
C1580 C1583 1.403 . S
H1581 C1587 0.930 . S
C1582 H1568 0.930 . S
C1582 C1580 1.395 . S
C1582 C1585 1.403 1_545 S
C1583 C1580 1.403 . S
C1583 C1584 1.524 . S
C1583 C1587 1.400 1_545 S
C1584 H1569 0.960 . S
C1584 H1570 0.960 . S
C1584 H1571 0.960 . S
C1584 C1583 1.524 . S
C1585 C1582 1.403 1_565 S
C1585 C1586 1.392 . S
C1585 C1589 1.495 . S
C1586 C1585 1.392 . S
C1586 C1587 1.385 . S
C1586 C1588 1.478 . S
C1587 H1581 0.930 . S
C1587 C1583 1.400 1_565 S
C1587 C1586 1.385 . S
C1588 C1586 1.478 . S
C1588 C1590 1.381 . S
C1588 C1594 1.383 . S
C1589 C1585 1.495 . S
C1589 H1595 0.959 . S
C1589 H1596 0.961 . S
C1589 H1597 0.960 . S
C1590 C1588 1.381 . S
C1590 C1591 1.394 . S
C1590 H1598 0.930 . S
C1591 C1590 1.394 . S
C1591 C1592 1.383 . S
C1591 H1599 0.929 . S
C1592 C1591 1.383 . S
C1592 C1593 1.377 . S
C1593 H1577 0.930 . S
C1593 C1592 1.377 . S
C1593 C1594 1.379 . S
C1594 H1578 0.931 . S
C1594 C1588 1.383 . S
C1594 C1593 1.379 . S
H1595 C1589 0.959 . S
H1596 C1589 0.961 . S
H1597 C1589 0.960 . S
H1598 C1590 0.930 . S
H1599 C1591 0.929 . S
H1600 C1608 0.929 . S
H1601 C1610 0.930 . S
H1602 C1612 0.930 . S
H1603 C1615 0.929 . S
H1604 C1618 0.930 . S
H1605 C1620 0.960 . S
H1606 C1620 0.960 . S
H1607 C1620 0.960 . S
C1608 H1600 0.929 . S
C1608 C1609 1.377 . S
C1608 C1610 1.384 . S
C1609 C1608 1.377 . S
C1609 C1615 1.390 . S
C1610 H1601 0.930 . S
C1610 C1608 1.384 . S
C1610 C1611 1.372 . S
C1611 C1610 1.372 . S
C1611 C1612 1.400 . S
C1611 C1616 1.490 . S
C1612 H1602 0.930 . S
C1612 C1611 1.400 . S
C1612 C1615 1.386 . S
H1613 C1629 0.930 . S
H1614 C1630 0.931 . S
C1615 H1603 0.929 . S
C1615 C1609 1.390 . S
C1615 C1612 1.386 . S
C1616 C1611 1.490 . S
C1616 C1618 1.395 . S
C1616 C1619 1.403 . S
H1617 C1623 0.930 . S
C1618 H1604 0.930 . S
C1618 C1616 1.395 . S
C1618 C1621 1.403 . S
C1619 C1616 1.403 . S
C1619 C1620 1.524 . S
C1619 C1623 1.400 . S
C1620 H1605 0.960 . S
C1620 H1606 0.960 . S
C1620 H1607 0.960 . S
C1620 C1619 1.524 . S
C1621 C1618 1.403 . S
C1621 C1622 1.392 . S
C1621 C1625 1.495 . S
C1622 C1621 1.392 . S
C1622 C1623 1.385 . S
C1622 C1624 1.478 . S
C1623 H1617 0.930 . S
C1623 C1619 1.400 . S
C1623 C1622 1.385 . S
C1624 C1622 1.478 . S
C1624 C1626 1.381 . S
C1624 C1630 1.383 . S
C1625 C1621 1.495 . S
C1625 H1631 0.959 . S
C1625 H1632 0.961 . S
C1625 H1633 0.960 . S
C1626 C1624 1.381 . S
C1626 C1627 1.394 . S
C1626 H1634 0.930 . S
C1627 C1626 1.394 . S
C1627 C1628 1.383 . S
C1627 H1635 0.929 . S
C1628 C1627 1.383 . S
C1628 C1629 1.377 . S
C1629 H1613 0.930 . S
C1629 C1628 1.377 . S
C1629 C1630 1.379 . S
C1630 H1614 0.931 . S
C1630 C1624 1.383 . S
C1630 C1629 1.379 . S
H1631 C1625 0.959 . S
H1632 C1625 0.961 . S
H1633 C1625 0.960 . S
H1634 C1626 0.930 . S
H1635 C1627 0.929 . S
H1636 C1644 0.929 . S
H1637 C1646 0.930 . S
H1638 C1648 0.930 . S
H1639 C1651 0.929 . S
H1640 C1654 0.930 . S
H1641 C1656 0.960 . S
H1642 C1656 0.960 . S
H1643 C1656 0.960 . S
C1644 H1636 0.929 . S
C1644 C1645 1.377 . S
C1644 C1646 1.384 . S
C1645 C1644 1.377 . S
C1645 C1651 1.390 . S
C1646 H1637 0.930 . S
C1646 C1644 1.384 . S
C1646 C1647 1.372 . S
C1647 C1646 1.372 . S
C1647 C1648 1.400 . S
C1647 C1652 1.490 . S
C1648 H1638 0.930 . S
C1648 C1647 1.400 . S
C1648 C1651 1.386 . S
H1649 C1665 0.930 . S
H1650 C1666 0.931 . S
C1651 H1639 0.929 . S
C1651 C1645 1.390 . S
C1651 C1648 1.386 . S
C1652 C1647 1.490 . S
C1652 C1654 1.395 . S
C1652 C1655 1.403 . S
H1653 C1659 0.930 . S
C1654 H1640 0.930 . S
C1654 C1652 1.395 . S
C1654 C1657 1.403 . S
C1655 C1652 1.403 . S
C1655 C1656 1.524 . S
C1655 C1659 1.400 . S
C1656 H1641 0.960 . S
C1656 H1642 0.960 . S
C1656 H1643 0.960 . S
C1656 C1655 1.524 . S
C1657 C1654 1.403 . S
C1657 C1658 1.392 . S
C1657 C1661 1.495 . S
C1658 C1657 1.392 . S
C1658 C1659 1.385 . S
C1658 C1660 1.478 . S
C1659 H1653 0.930 . S
C1659 C1655 1.400 . S
C1659 C1658 1.385 . S
C1660 C1658 1.478 . S
C1660 C1662 1.381 . S
C1660 C1666 1.383 . S
C1661 C1657 1.495 . S
C1661 H1667 0.959 . S
C1661 H1668 0.961 . S
C1661 H1669 0.960 . S
C1662 C1660 1.381 . S
C1662 C1663 1.394 . S
C1662 H1670 0.930 . S
C1663 C1662 1.394 . S
C1663 C1664 1.383 . S
C1663 H1671 0.929 . S
C1664 C1663 1.383 . S
C1664 C1665 1.377 . S
C1665 H1649 0.930 . S
C1665 C1664 1.377 . S
C1665 C1666 1.379 . S
C1666 H1650 0.931 . S
C1666 C1660 1.383 . S
C1666 C1665 1.379 . S
H1667 C1661 0.959 . S
H1668 C1661 0.961 . S
H1669 C1661 0.960 . S
H1670 C1662 0.930 . S
H1671 C1663 0.929 . S
H1672 C1680 0.929 . S
H1673 C1682 0.930 . S
H1674 C1684 0.930 . S
H1675 C1687 0.929 . S
H1676 C1690 0.930 . S
H1677 C1692 0.960 . S
H1678 C1692 0.960 . S
H1679 C1692 0.960 . S
C1680 H1672 0.929 . S
C1680 C1681 1.377 . S
C1680 C1682 1.384 . S
C1681 C1680 1.377 . S
C1681 C1687 1.390 . S
C1682 H1673 0.930 . S
C1682 C1680 1.384 . S
C1682 C1683 1.372 . S
C1683 C1682 1.372 . S
C1683 C1684 1.400 . S
C1683 C1688 1.490 . S
C1684 H1674 0.930 . S
C1684 C1683 1.400 . S
C1684 C1687 1.386 . S
H1685 C1701 0.930 . S
H1686 C1702 0.931 . S
C1687 H1675 0.929 . S
C1687 C1681 1.390 . S
C1687 C1684 1.386 . S
C1688 C1683 1.490 . S
C1688 C1690 1.395 . S
C1688 C1691 1.403 . S
H1689 C1695 0.930 . S
C1690 H1676 0.930 . S
C1690 C1688 1.395 . S
C1690 C1693 1.403 . S
C1691 C1688 1.403 . S
C1691 C1692 1.524 . S
C1691 C1695 1.400 . S
C1692 H1677 0.960 . S
C1692 H1678 0.960 . S
C1692 H1679 0.960 . S
C1692 C1691 1.524 . S
C1693 C1690 1.403 . S
C1693 C1694 1.392 . S
C1693 C1697 1.495 . S
C1694 C1693 1.392 . S
C1694 C1695 1.385 . S
C1694 C1696 1.478 . S
C1695 H1689 0.930 . S
C1695 C1691 1.400 . S
C1695 C1694 1.385 . S
C1696 C1694 1.478 . S
C1696 C1698 1.381 . S
C1696 C1702 1.383 . S
C1697 C1693 1.495 . S
C1697 H1703 0.959 . S
C1697 H1704 0.961 . S
C1697 H1705 0.960 . S
C1698 C1696 1.381 . S
C1698 C1699 1.394 . S
C1698 H1706 0.930 . S
C1699 C1698 1.394 . S
C1699 C1700 1.383 . S
C1699 H1707 0.929 . S
C1700 C1699 1.383 . S
C1700 C1701 1.377 . S
C1701 H1685 0.930 . S
C1701 C1700 1.377 . S
C1701 C1702 1.379 . S
C1702 H1686 0.931 . S
C1702 C1696 1.383 . S
C1702 C1701 1.379 . S
H1703 C1697 0.959 . S
H1704 C1697 0.961 . S
H1705 C1697 0.960 . S
H1706 C1698 0.930 . S
H1707 C1699 0.929 . S
H1708 C1716 0.929 . S
H1709 C1718 0.930 . S
H1710 C1720 0.930 . S
H1711 C1723 0.929 . S
H1712 C1726 0.930 . S
H1713 C1728 0.960 . S
H1714 C1728 0.960 . S
H1715 C1728 0.960 . S
C1716 H1708 0.929 . S
C1716 C1717 1.377 . S
C1716 C1718 1.384 . S
C1717 C1716 1.377 . S
C1717 C1723 1.390 . S
C1718 H1709 0.930 . S
C1718 C1716 1.384 . S
C1718 C1719 1.372 . S
C1719 C1718 1.372 . S
C1719 C1720 1.400 . S
C1719 C1724 1.490 . S
C1720 H1710 0.930 . S
C1720 C1719 1.400 . S
C1720 C1723 1.386 . S
H1721 C1737 0.930 . S
H1722 C1738 0.931 . S
C1723 H1711 0.929 . S
C1723 C1717 1.390 . S
C1723 C1720 1.386 . S
C1724 C1719 1.490 . S
C1724 C1726 1.395 . S
C1724 C1727 1.403 . S
H1725 C1731 0.930 . S
C1726 H1712 0.930 . S
C1726 C1724 1.395 . S
C1726 C1729 1.403 . S
C1727 C1724 1.403 . S
C1727 C1728 1.524 . S
C1727 C1731 1.400 . S
C1728 H1713 0.960 . S
C1728 H1714 0.960 . S
C1728 H1715 0.960 . S
C1728 C1727 1.524 . S
C1729 C1726 1.403 . S
C1729 C1730 1.392 . S
C1729 C1733 1.495 . S
C1730 C1729 1.392 . S
C1730 C1731 1.385 . S
C1730 C1732 1.478 . S
C1731 H1725 0.930 . S
C1731 C1727 1.400 . S
C1731 C1730 1.385 . S
C1732 C1730 1.478 . S
C1732 C1734 1.381 . S
C1732 C1738 1.383 . S
C1733 C1729 1.495 . S
C1733 H1739 0.959 . S
C1733 H1740 0.961 . S
C1733 H1741 0.960 . S
C1734 C1732 1.381 . S
C1734 C1735 1.394 . S
C1734 H1742 0.930 . S
C1735 C1734 1.394 . S
C1735 C1736 1.383 . S
C1735 H1743 0.929 . S
C1736 C1735 1.383 . S
C1736 C1737 1.377 . S
C1737 H1721 0.930 . S
C1737 C1736 1.377 . S
C1737 C1738 1.379 . S
C1738 H1722 0.931 . S
C1738 C1732 1.383 . S
C1738 C1737 1.379 . S
H1739 C1733 0.959 . S
H1740 C1733 0.961 . S
H1741 C1733 0.960 . S
H1742 C1734 0.930 . S
H1743 C1735 0.929 . S
H1744 C1752 0.929 . S
H1745 C1754 0.930 . S
H1746 C1756 0.930 . S
H1747 C1759 0.929 . S
H1748 C1762 0.930 . S
H1749 C1764 0.960 . S
H1750 C1764 0.960 . S
H1751 C1764 0.960 . S
C1752 H1744 0.929 . S
C1752 C1753 1.377 . S
C1752 C1754 1.384 . S
C1753 C1752 1.377 . S
C1753 C1759 1.390 . S
C1754 H1745 0.930 . S
C1754 C1752 1.384 . S
C1754 C1755 1.372 . S
C1755 C1754 1.372 . S
C1755 C1756 1.400 . S
C1755 C1760 1.490 . S
C1756 H1746 0.930 . S
C1756 C1755 1.400 . S
C1756 C1759 1.386 . S
H1757 C1773 0.930 . S
H1758 C1774 0.931 . S
C1759 H1747 0.929 . S
C1759 C1753 1.390 . S
C1759 C1756 1.386 . S
C1760 C1755 1.490 . S
C1760 C1762 1.395 . S
C1760 C1763 1.403 . S
H1761 C1767 0.930 . S
C1762 H1748 0.930 . S
C1762 C1760 1.395 . S
C1762 C1765 1.403 . S
C1763 C1760 1.403 . S
C1763 C1764 1.524 . S
C1763 C1767 1.400 . S
C1764 H1749 0.960 . S
C1764 H1750 0.960 . S
C1764 H1751 0.960 . S
C1764 C1763 1.524 . S
C1765 C1762 1.403 . S
C1765 C1766 1.392 . S
C1765 C1769 1.495 . S
C1766 C1765 1.392 . S
C1766 C1767 1.385 . S
C1766 C1768 1.478 . S
C1767 H1761 0.930 . S
C1767 C1763 1.400 . S
C1767 C1766 1.385 . S
C1768 C1766 1.478 . S
C1768 C1770 1.381 . S
C1768 C1774 1.383 . S
C1769 C1765 1.495 . S
C1769 H1775 0.959 . S
C1769 H1776 0.961 . S
C1769 H1777 0.960 . S
C1770 C1768 1.381 . S
C1770 C1771 1.394 . S
C1770 H1778 0.930 . S
C1771 C1770 1.394 . S
C1771 C1772 1.383 . S
C1771 H1779 0.929 . S
C1772 C1771 1.383 . S
C1772 C1773 1.377 . S
C1773 H1757 0.930 . S
C1773 C1772 1.377 . S
C1773 C1774 1.379 . S
C1774 H1758 0.931 . S
C1774 C1768 1.383 . S
C1774 C1773 1.379 . S
H1775 C1769 0.959 . S
H1776 C1769 0.961 . S
H1777 C1769 0.960 . S
H1778 C1770 0.930 . S
H1779 C1771 0.929 . S
H1780 C1788 0.929 . S
H1781 C1790 0.930 . S
H1782 C1792 0.930 . S
H1783 C1795 0.929 . S
H1784 C1798 0.930 . S
H1785 C1800 0.960 . S
H1786 C1800 0.960 . S
H1787 C1800 0.960 . S
C1788 H1780 0.929 . S
C1788 C1789 1.377 . S
C1788 C1790 1.384 . S
C1789 C1788 1.377 . S
C1789 C1795 1.390 . S
C1790 H1781 0.930 . S
C1790 C1788 1.384 . S
C1790 C1791 1.372 . S
C1791 C1790 1.372 . S
C1791 C1792 1.400 . S
C1791 C1796 1.490 . S
C1792 H1782 0.930 . S
C1792 C1791 1.400 . S
C1792 C1795 1.386 . S
H1793 C1809 0.930 . S
H1794 C1810 0.931 . S
C1795 H1783 0.929 . S
C1795 C1789 1.390 . S
C1795 C1792 1.386 . S
C1796 C1791 1.490 . S
C1796 C1798 1.395 . S
C1796 C1799 1.403 . S
H1797 C1803 0.930 . S
C1798 H1784 0.930 . S
C1798 C1796 1.395 . S
C1798 C1801 1.403 . S
C1799 C1796 1.403 . S
C1799 C1800 1.524 . S
C1799 C1803 1.400 . S
C1800 H1785 0.960 . S
C1800 H1786 0.960 . S
C1800 H1787 0.960 . S
C1800 C1799 1.524 . S
C1801 C1798 1.403 . S
C1801 C1802 1.392 . S
C1801 C1805 1.495 . S
C1802 C1801 1.392 . S
C1802 C1803 1.385 . S
C1802 C1804 1.478 . S
C1803 H1797 0.930 . S
C1803 C1799 1.400 . S
C1803 C1802 1.385 . S
C1804 C1802 1.478 . S
C1804 C1806 1.381 . S
C1804 C1810 1.383 . S
C1805 C1801 1.495 . S
C1805 H1811 0.959 . S
C1805 H1812 0.961 . S
C1805 H1813 0.960 . S
C1806 C1804 1.381 . S
C1806 C1807 1.394 . S
C1806 H1814 0.930 . S
C1807 C1806 1.394 . S
C1807 C1808 1.383 . S
C1807 H1815 0.929 . S
C1808 C1807 1.383 . S
C1808 C1809 1.377 . S
C1809 H1793 0.930 . S
C1809 C1808 1.377 . S
C1809 C1810 1.379 . S
C1810 H1794 0.931 . S
C1810 C1804 1.383 . S
C1810 C1809 1.379 . S
H1811 C1805 0.959 . S
H1812 C1805 0.961 . S
H1813 C1805 0.960 . S
H1814 C1806 0.930 . S
H1815 C1807 0.929 . S
H1816 C1824 0.929 . S
H1817 C1826 0.930 . S
H1818 C1828 0.930 . S
H1819 C1831 0.929 . S
H1820 C1834 0.930 . S
H1821 C1836 0.960 . S
H1822 C1836 0.960 . S
H1823 C1836 0.960 . S
C1824 H1816 0.929 . S
C1824 C1825 1.377 . S
C1824 C1826 1.384 . S
C1825 C1824 1.377 . S
C1825 C1831 1.390 . S
C1826 H1817 0.930 . S
C1826 C1824 1.384 . S
C1826 C1827 1.372 . S
C1827 C1826 1.372 . S
C1827 C1828 1.400 . S
C1827 C1832 1.490 . S
C1828 H1818 0.930 . S
C1828 C1827 1.400 . S
C1828 C1831 1.386 . S
H1829 C1845 0.930 . S
H1830 C1846 0.931 . S
C1831 H1819 0.929 . S
C1831 C1825 1.390 . S
C1831 C1828 1.386 . S
C1832 C1827 1.490 . S
C1832 C1834 1.395 . S
C1832 C1835 1.403 . S
H1833 C1839 0.930 . S
C1834 H1820 0.930 . S
C1834 C1832 1.395 . S
C1834 C1837 1.403 . S
C1835 C1832 1.403 . S
C1835 C1836 1.524 . S
C1835 C1839 1.400 . S
C1836 H1821 0.960 . S
C1836 H1822 0.960 . S
C1836 H1823 0.960 . S
C1836 C1835 1.524 . S
C1837 C1834 1.403 . S
C1837 C1838 1.392 . S
C1837 C1841 1.495 . S
C1838 C1837 1.392 . S
C1838 C1839 1.385 . S
C1838 C1840 1.478 . S
C1839 H1833 0.930 . S
C1839 C1835 1.400 . S
C1839 C1838 1.385 . S
C1840 C1838 1.478 . S
C1840 C1842 1.381 . S
C1840 C1846 1.383 . S
C1841 C1837 1.495 . S
C1841 H1847 0.959 . S
C1841 H1848 0.961 . S
C1841 H1849 0.960 . S
C1842 C1840 1.381 . S
C1842 C1843 1.394 . S
C1842 H1850 0.930 . S
C1843 C1842 1.394 . S
C1843 C1844 1.383 . S
C1843 H1851 0.929 . S
C1844 C1843 1.383 . S
C1844 C1845 1.377 . S
C1845 H1829 0.930 . S
C1845 C1844 1.377 . S
C1845 C1846 1.379 . S
C1846 H1830 0.931 . S
C1846 C1840 1.383 . S
C1846 C1845 1.379 . S
H1847 C1841 0.959 . S
H1848 C1841 0.961 . S
H1849 C1841 0.960 . S
H1850 C1842 0.930 . S
H1851 C1843 0.929 . S
H1852 C1860 0.929 . S
H1853 C1862 0.930 . S
H1854 C1864 0.930 . S
H1855 C1867 0.929 . S
H1856 C1870 0.930 . S
H1857 C1872 0.960 . S
H1858 C1872 0.960 . S
H1859 C1872 0.960 . S
C1860 H1852 0.929 . S
C1860 C1861 1.377 . S
C1860 C1862 1.384 . S
C1861 C1860 1.377 . S
C1861 C1867 1.390 . S
C1862 H1853 0.930 . S
C1862 C1860 1.384 . S
C1862 C1863 1.372 . S
C1863 C1862 1.372 . S
C1863 C1864 1.400 . S
C1863 C1868 1.490 . S
C1864 H1854 0.930 . S
C1864 C1863 1.400 . S
C1864 C1867 1.386 . S
H1865 C1881 0.930 . S
H1866 C1882 0.931 . S
C1867 H1855 0.929 . S
C1867 C1861 1.390 . S
C1867 C1864 1.386 . S
C1868 C1863 1.490 . S
C1868 C1870 1.395 . S
C1868 C1871 1.403 . S
H1869 C1875 0.930 . S
C1870 H1856 0.930 . S
C1870 C1868 1.395 . S
C1870 C1873 1.403 . S
C1871 C1868 1.403 . S
C1871 C1872 1.524 . S
C1871 C1875 1.400 . S
C1872 H1857 0.960 . S
C1872 H1858 0.960 . S
C1872 H1859 0.960 . S
C1872 C1871 1.524 . S
C1873 C1870 1.403 . S
C1873 C1874 1.392 . S
C1873 C1877 1.495 . S
C1874 C1873 1.392 . S
C1874 C1875 1.385 . S
C1874 C1876 1.478 . S
C1875 H1869 0.930 . S
C1875 C1871 1.400 . S
C1875 C1874 1.385 . S
C1876 C1874 1.478 . S
C1876 C1878 1.381 . S
C1876 C1882 1.383 . S
C1877 C1873 1.495 . S
C1877 H1883 0.959 . S
C1877 H1884 0.961 . S
C1877 H1885 0.960 . S
C1878 C1876 1.381 . S
C1878 C1879 1.394 . S
C1878 H1886 0.930 . S
C1879 C1878 1.394 . S
C1879 C1880 1.383 . S
C1879 H1887 0.929 . S
C1880 C1879 1.383 . S
C1880 C1881 1.377 . S
C1881 H1865 0.930 . S
C1881 C1880 1.377 . S
C1881 C1882 1.379 . S
C1882 H1866 0.931 . S
C1882 C1876 1.383 . S
C1882 C1881 1.379 . S
H1883 C1877 0.959 . S
H1884 C1877 0.961 . S
H1885 C1877 0.960 . S
H1886 C1878 0.930 . S
H1887 C1879 0.929 . S
H1888 C1896 0.929 . S
H1889 C1898 0.930 . S
H1890 C1900 0.930 . S
H1891 C1903 0.929 . S
H1892 C1906 0.930 . S
H1893 C1908 0.960 . S
H1894 C1908 0.960 . S
H1895 C1908 0.960 . S
C1896 H1888 0.929 . S
C1896 C1897 1.377 . S
C1896 C1898 1.384 . S
C1897 C1896 1.377 . S
C1897 C1903 1.390 . S
C1898 H1889 0.930 . S
C1898 C1896 1.384 . S
C1898 C1899 1.372 . S
C1899 C1898 1.372 . S
C1899 C1900 1.400 . S
C1899 C1904 1.490 . S
C1900 H1890 0.930 . S
C1900 C1899 1.400 . S
C1900 C1903 1.386 . S
H1901 C1917 0.930 . S
H1902 C1918 0.931 . S
C1903 H1891 0.929 . S
C1903 C1897 1.390 . S
C1903 C1900 1.386 . S
C1904 C1899 1.490 . S
C1904 C1906 1.395 . S
C1904 C1907 1.403 . S
H1905 C1911 0.930 . S
C1906 H1892 0.930 . S
C1906 C1904 1.395 . S
C1906 C1909 1.403 . S
C1907 C1904 1.403 . S
C1907 C1908 1.524 . S
C1907 C1911 1.400 . S
C1908 H1893 0.960 . S
C1908 H1894 0.960 . S
C1908 H1895 0.960 . S
C1908 C1907 1.524 . S
C1909 C1906 1.403 . S
C1909 C1910 1.392 . S
C1909 C1913 1.495 . S
C1910 C1909 1.392 . S
C1910 C1911 1.385 . S
C1910 C1912 1.478 . S
C1911 H1905 0.930 . S
C1911 C1907 1.400 . S
C1911 C1910 1.385 . S
C1912 C1910 1.478 . S
C1912 C1914 1.381 . S
C1912 C1918 1.383 . S
C1913 C1909 1.495 . S
C1913 H1919 0.959 . S
C1913 H1920 0.961 . S
C1913 H1921 0.960 . S
C1914 C1912 1.381 . S
C1914 C1915 1.394 . S
C1914 H1922 0.930 . S
C1915 C1914 1.394 . S
C1915 C1916 1.383 . S
C1915 H1923 0.929 . S
C1916 C1915 1.383 . S
C1916 C1917 1.377 . S
C1917 H1901 0.930 . S
C1917 C1916 1.377 . S
C1917 C1918 1.379 . S
C1918 H1902 0.931 . S
C1918 C1912 1.383 . S
C1918 C1917 1.379 . S
H1919 C1913 0.959 . S
H1920 C1913 0.961 . S
H1921 C1913 0.960 . S
H1922 C1914 0.930 . S
H1923 C1915 0.929 . S
H1924 C1932 0.929 . S
H1925 C1934 0.930 . S
H1926 C1936 0.930 . S
H1927 C1939 0.929 . S
H1928 C1942 0.930 . S
H1929 C1944 0.960 . S
H1930 C1944 0.960 . S
H1931 C1944 0.960 . S
C1932 H1924 0.929 . S
C1932 C1933 1.377 . S
C1932 C1934 1.384 . S
C1933 C1932 1.377 . S
C1933 C1939 1.390 . S
C1934 H1925 0.930 . S
C1934 C1932 1.384 . S
C1934 C1935 1.372 . S
C1935 C1934 1.372 . S
C1935 C1936 1.400 . S
C1935 C1940 1.490 . S
C1936 H1926 0.930 . S
C1936 C1935 1.400 . S
C1936 C1939 1.386 . S
H1937 C1953 0.930 . S
H1938 C1954 0.931 . S
C1939 H1927 0.929 . S
C1939 C1933 1.390 . S
C1939 C1936 1.386 . S
C1940 C1935 1.490 . S
C1940 C1942 1.395 . S
C1940 C1943 1.403 . S
H1941 C1947 0.930 . S
C1942 H1928 0.930 . S
C1942 C1940 1.395 . S
C1942 C1945 1.403 . S
C1943 C1940 1.403 . S
C1943 C1944 1.524 . S
C1943 C1947 1.400 . S
C1944 H1929 0.960 . S
C1944 H1930 0.960 . S
C1944 H1931 0.960 . S
C1944 C1943 1.524 . S
C1945 C1942 1.403 . S
C1945 C1946 1.392 . S
C1945 C1949 1.495 . S
C1946 C1945 1.392 . S
C1946 C1947 1.385 . S
C1946 C1948 1.478 . S
C1947 H1941 0.930 . S
C1947 C1943 1.400 . S
C1947 C1946 1.385 . S
C1948 C1946 1.478 . S
C1948 C1950 1.381 . S
C1948 C1954 1.383 . S
C1949 C1945 1.495 . S
C1949 H1955 0.959 . S
C1949 H1956 0.961 . S
C1949 H1957 0.960 . S
C1950 C1948 1.381 . S
C1950 C1951 1.394 . S
C1950 H1958 0.930 . S
C1951 C1950 1.394 . S
C1951 C1952 1.383 . S
C1951 H1959 0.929 . S
C1952 C1951 1.383 . S
C1952 C1953 1.377 . S
C1953 H1937 0.930 . S
C1953 C1952 1.377 . S
C1953 C1954 1.379 . S
C1954 H1938 0.931 . S
C1954 C1948 1.383 . S
C1954 C1953 1.379 . S
H1955 C1949 0.959 . S
H1956 C1949 0.961 . S
H1957 C1949 0.960 . S
H1958 C1950 0.930 . S
H1959 C1951 0.929 . S
H1960 C1968 0.929 . S
H1961 C1970 0.930 . S
H1962 C1972 0.930 . S
H1963 C1975 0.929 . S
H1964 C1978 0.930 . S
H1965 C1980 0.960 . S
H1966 C1980 0.960 . S
H1967 C1980 0.960 . S
C1968 H1960 0.929 . S
C1968 C1969 1.377 . S
C1968 C1970 1.384 . S
C1969 C1968 1.377 . S
C1969 C1975 1.390 . S
C1970 H1961 0.930 . S
C1970 C1968 1.384 . S
C1970 C1971 1.372 . S
C1971 C1970 1.372 . S
C1971 C1972 1.400 . S
C1971 C1976 1.490 . S
C1972 H1962 0.930 . S
C1972 C1971 1.400 . S
C1972 C1975 1.386 . S
H1973 C1989 0.930 . S
H1974 C1990 0.931 . S
C1975 H1963 0.929 . S
C1975 C1969 1.390 . S
C1975 C1972 1.386 . S
C1976 C1971 1.490 . S
C1976 C1978 1.395 . S
C1976 C1979 1.403 . S
H1977 C1983 0.930 . S
C1978 H1964 0.930 . S
C1978 C1976 1.395 . S
C1978 C1981 1.403 . S
C1979 C1976 1.403 . S
C1979 C1980 1.524 . S
C1979 C1983 1.400 . S
C1980 H1965 0.960 . S
C1980 H1966 0.960 . S
C1980 H1967 0.960 . S
C1980 C1979 1.524 . S
C1981 C1978 1.403 . S
C1981 C1982 1.392 . S
C1981 C1985 1.495 . S
C1982 C1981 1.392 . S
C1982 C1983 1.385 . S
C1982 C1984 1.478 . S
C1983 H1977 0.930 . S
C1983 C1979 1.400 . S
C1983 C1982 1.385 . S
C1984 C1982 1.478 . S
C1984 C1986 1.381 . S
C1984 C1990 1.383 . S
C1985 C1981 1.495 . S
C1985 H1991 0.959 . S
C1985 H1992 0.961 . S
C1985 H1993 0.960 . S
C1986 C1984 1.381 . S
C1986 C1987 1.394 . S
C1986 H1994 0.930 . S
C1987 C1986 1.394 . S
C1987 C1988 1.383 . S
C1987 H1995 0.929 . S
C1988 C1987 1.383 . S
C1988 C1989 1.377 . S
C1989 H1973 0.930 . S
C1989 C1988 1.377 . S
C1989 C1990 1.379 . S
C1990 H1974 0.931 . S
C1990 C1984 1.383 . S
C1990 C1989 1.379 . S
H1991 C1985 0.959 . S
H1992 C1985 0.961 . S
H1993 C1985 0.960 . S
H1994 C1986 0.930 . S
H1995 C1987 0.929 . S
H1996 C2004 0.929 . S
H1997 C2006 0.930 . S
H1998 C2008 0.930 . S
H1999 C2011 0.929 . S
H2000 C2014 0.930 . S
H2001 C2016 0.960 . S
H2002 C2016 0.960 . S
H2003 C2016 0.960 . S
C2004 H1996 0.929 . S
C2004 C2005 1.377 . S
C2004 C2006 1.384 . S
C2005 C2004 1.377 . S
C2005 C2011 1.390 . S
C2006 H1997 0.930 . S
C2006 C2004 1.384 . S
C2006 C2007 1.372 . S
C2007 C2006 1.372 . S
C2007 C2008 1.400 . S
C2007 C2012 1.490 . S
C2008 H1998 0.930 . S
C2008 C2007 1.400 . S
C2008 C2011 1.386 . S
H2009 C2025 0.930 . S
H2010 C2026 0.931 . S
C2011 H1999 0.929 . S
C2011 C2005 1.390 . S
C2011 C2008 1.386 . S
C2012 C2007 1.490 . S
C2012 C2014 1.395 . S
C2012 C2015 1.403 . S
H2013 C2019 0.930 . S
C2014 H2000 0.930 . S
C2014 C2012 1.395 . S
C2014 C2017 1.403 . S
C2015 C2012 1.403 . S
C2015 C2016 1.524 . S
C2015 C2019 1.400 . S
C2016 H2001 0.960 . S
C2016 H2002 0.960 . S
C2016 H2003 0.960 . S
C2016 C2015 1.524 . S
C2017 C2014 1.403 . S
C2017 C2018 1.392 . S
C2017 C2021 1.495 . S
C2018 C2017 1.392 . S
C2018 C2019 1.385 . S
C2018 C2020 1.478 . S
C2019 H2013 0.930 . S
C2019 C2015 1.400 . S
C2019 C2018 1.385 . S
C2020 C2018 1.478 . S
C2020 C2022 1.381 . S
C2020 C2026 1.383 . S
C2021 C2017 1.495 . S
C2021 H2027 0.959 . S
C2021 H2028 0.961 . S
C2021 H2029 0.960 . S
C2022 C2020 1.381 . S
C2022 C2023 1.394 . S
C2022 H2030 0.930 . S
C2023 C2022 1.394 . S
C2023 C2024 1.383 . S
C2023 H2031 0.929 . S
C2024 C2023 1.383 . S
C2024 C2025 1.377 . S
C2025 H2009 0.930 . S
C2025 C2024 1.377 . S
C2025 C2026 1.379 . S
C2026 H2010 0.931 . S
C2026 C2020 1.383 . S
C2026 C2025 1.379 . S
H2027 C2021 0.959 . S
H2028 C2021 0.961 . S
H2029 C2021 0.960 . S
H2030 C2022 0.930 . S
H2031 C2023 0.929 . S
H2032 C2040 0.929 . S
H2033 C2042 0.930 . S
H2034 C2044 0.930 . S
H2035 C2047 0.929 . S
H2036 C2050 0.930 . S
H2037 C2052 0.960 . S
H2038 C2052 0.960 . S
H2039 C2052 0.960 . S
C2040 H2032 0.929 . S
C2040 C2041 1.377 . S
C2040 C2042 1.384 . S
C2041 C2040 1.377 . S
C2041 C2047 1.390 . S
C2042 H2033 0.930 . S
C2042 C2040 1.384 . S
C2042 C2043 1.372 . S
C2043 C2042 1.372 . S
C2043 C2044 1.400 . S
C2043 C2048 1.490 . S
C2044 H2034 0.930 . S
C2044 C2043 1.400 . S
C2044 C2047 1.386 . S
H2045 C2061 0.930 . S
H2046 C2062 0.931 . S
C2047 H2035 0.929 . S
C2047 C2041 1.390 . S
C2047 C2044 1.386 . S
C2048 C2043 1.490 . S
C2048 C2050 1.395 . S
C2048 C2051 1.403 . S
H2049 C2055 0.930 . S
C2050 H2036 0.930 . S
C2050 C2048 1.395 . S
C2050 C2053 1.403 . S
C2051 C2048 1.403 . S
C2051 C2052 1.524 . S
C2051 C2055 1.400 . S
C2052 H2037 0.960 . S
C2052 H2038 0.960 . S
C2052 H2039 0.960 . S
C2052 C2051 1.524 . S
C2053 C2050 1.403 . S
C2053 C2054 1.392 . S
C2053 C2057 1.495 . S
C2054 C2053 1.392 . S
C2054 C2055 1.385 . S
C2054 C2056 1.478 . S
C2055 H2049 0.930 . S
C2055 C2051 1.400 . S
C2055 C2054 1.385 . S
C2056 C2054 1.478 . S
C2056 C2058 1.381 . S
C2056 C2062 1.383 . S
C2057 C2053 1.495 . S
C2057 H2063 0.959 . S
C2057 H2064 0.961 . S
C2057 H2065 0.960 . S
C2058 C2056 1.381 . S
C2058 C2059 1.394 . S
C2058 H2066 0.930 . S
C2059 C2058 1.394 . S
C2059 C2060 1.383 . S
C2059 H2067 0.929 . S
C2060 C2059 1.383 . S
C2060 C2061 1.377 . S
C2061 H2045 0.930 . S
C2061 C2060 1.377 . S
C2061 C2062 1.379 . S
C2062 H2046 0.931 . S
C2062 C2056 1.383 . S
C2062 C2061 1.379 . S
H2063 C2057 0.959 . S
H2064 C2057 0.961 . S
H2065 C2057 0.960 . S
H2066 C2058 0.930 . S
H2067 C2059 0.929 . S
H2068 C2076 0.929 . S
H2069 C2078 0.930 . S
H2070 C2080 0.930 . S
H2071 C2083 0.929 . S
H2072 C2086 0.930 . S
H2073 C2088 0.960 . S
H2074 C2088 0.960 . S
H2075 C2088 0.960 . S
C2076 H2068 0.929 . S
C2076 C2077 1.377 . S
C2076 C2078 1.384 . S
C2077 C2076 1.377 . S
C2077 C2083 1.390 . S
C2078 H2069 0.930 . S
C2078 C2076 1.384 . S
C2078 C2079 1.372 . S
C2079 C2078 1.372 . S
C2079 C2080 1.400 . S
C2079 C2084 1.490 . S
C2080 H2070 0.930 . S
C2080 C2079 1.400 . S
C2080 C2083 1.386 . S
H2081 C2097 0.930 . S
H2082 C2098 0.931 . S
C2083 H2071 0.929 . S
C2083 C2077 1.390 . S
C2083 C2080 1.386 . S
C2084 C2079 1.490 . S
C2084 C2086 1.395 . S
C2084 C2087 1.403 . S
H2085 C2091 0.930 . S
C2086 H2072 0.930 . S
C2086 C2084 1.395 . S
C2086 C2089 1.403 . S
C2087 C2084 1.403 . S
C2087 C2088 1.524 . S
C2087 C2091 1.400 . S
C2088 H2073 0.960 . S
C2088 H2074 0.960 . S
C2088 H2075 0.960 . S
C2088 C2087 1.524 . S
C2089 C2086 1.403 . S
C2089 C2090 1.392 . S
C2089 C2093 1.495 . S
C2090 C2089 1.392 . S
C2090 C2091 1.385 . S
C2090 C2092 1.478 . S
C2091 H2085 0.930 . S
C2091 C2087 1.400 . S
C2091 C2090 1.385 . S
C2092 C2090 1.478 . S
C2092 C2094 1.381 . S
C2092 C2098 1.383 . S
C2093 C2089 1.495 . S
C2093 H2099 0.959 . S
C2093 H2100 0.961 . S
C2093 H2101 0.960 . S
C2094 C2092 1.381 . S
C2094 C2095 1.394 . S
C2094 H2102 0.930 . S
C2095 C2094 1.394 . S
C2095 C2096 1.383 . S
C2095 H2103 0.929 . S
C2096 C2095 1.383 . S
C2096 C2097 1.377 . S
C2097 H2081 0.930 . S
C2097 C2096 1.377 . S
C2097 C2098 1.379 . S
C2098 H2082 0.931 . S
C2098 C2092 1.383 . S
C2098 C2097 1.379 . S
H2099 C2093 0.959 . S
H2100 C2093 0.961 . S
H2101 C2093 0.960 . S
H2102 C2094 0.930 . S
H2103 C2095 0.929 . S
H2104 C2112 0.929 . S
H2105 C2114 0.930 . S
H2106 C2116 0.930 . S
H2107 C2119 0.929 . S
H2108 C2122 0.930 . S
H2109 C2124 0.960 . S
H2110 C2124 0.960 . S
H2111 C2124 0.960 . S
C2112 H2104 0.929 . S
C2112 C2113 1.377 . S
C2112 C2114 1.384 . S
C2113 C2112 1.377 . S
C2113 C2119 1.390 . S
C2114 H2105 0.930 . S
C2114 C2112 1.384 . S
C2114 C2115 1.372 . S
C2115 C2114 1.372 . S
C2115 C2116 1.400 . S
C2115 C2120 1.490 . S
C2116 H2106 0.930 . S
C2116 C2115 1.400 . S
C2116 C2119 1.386 . S
H2117 C2133 0.930 . S
H2118 C2134 0.931 . S
C2119 H2107 0.929 . S
C2119 C2113 1.390 . S
C2119 C2116 1.386 . S
C2120 C2115 1.490 . S
C2120 C2122 1.395 . S
C2120 C2123 1.403 . S
H2121 C2127 0.930 . S
C2122 H2108 0.930 . S
C2122 C2120 1.395 . S
C2122 C2125 1.403 . S
C2123 C2120 1.403 . S
C2123 C2124 1.524 . S
C2123 C2127 1.400 . S
C2124 H2109 0.960 . S
C2124 H2110 0.960 . S
C2124 H2111 0.960 . S
C2124 C2123 1.524 . S
C2125 C2122 1.403 . S
C2125 C2126 1.392 . S
C2125 C2129 1.495 . S
C2126 C2125 1.392 . S
C2126 C2127 1.385 . S
C2126 C2128 1.478 . S
C2127 H2121 0.930 . S
C2127 C2123 1.400 . S
C2127 C2126 1.385 . S
C2128 C2126 1.478 . S
C2128 C2130 1.381 . S
C2128 C2134 1.383 . S
C2129 C2125 1.495 . S
C2129 H2135 0.959 . S
C2129 H2136 0.961 . S
C2129 H2137 0.960 . S
C2130 C2128 1.381 . S
C2130 C2131 1.394 . S
C2130 H2138 0.930 . S
C2131 C2130 1.394 . S
C2131 C2132 1.383 . S
C2131 H2139 0.929 . S
C2132 C2131 1.383 . S
C2132 C2133 1.377 . S
C2133 H2117 0.930 . S
C2133 C2132 1.377 . S
C2133 C2134 1.379 . S
C2134 H2118 0.931 . S
C2134 C2128 1.383 . S
C2134 C2133 1.379 . S
H2135 C2129 0.959 . S
H2136 C2129 0.961 . S
H2137 C2129 0.960 . S
H2138 C2130 0.930 . S
H2139 C2131 0.929 . S
H2140 C2148 0.929 . S
H2141 C2150 0.930 . S
H2142 C2152 0.930 . S
H2143 C2155 0.929 . S
H2144 C2158 0.930 . S
H2145 C2160 0.960 . S
H2146 C2160 0.960 . S
H2147 C2160 0.960 . S
C2148 H2140 0.929 . S
C2148 C2149 1.377 . S
C2148 C2150 1.384 . S
C2149 C2148 1.377 . S
C2149 C2155 1.390 . S
C2150 H2141 0.930 . S
C2150 C2148 1.384 . S
C2150 C2151 1.372 . S
C2151 C2150 1.372 . S
C2151 C2152 1.400 . S
C2151 C2156 1.490 . S
C2152 H2142 0.930 . S
C2152 C2151 1.400 . S
C2152 C2155 1.386 . S
H2153 C2169 0.930 . S
H2154 C2170 0.931 . S
C2155 H2143 0.929 . S
C2155 C2149 1.390 . S
C2155 C2152 1.386 . S
C2156 C2151 1.490 . S
C2156 C2158 1.395 . S
C2156 C2159 1.403 . S
H2157 C2163 0.930 . S
C2158 H2144 0.930 . S
C2158 C2156 1.395 . S
C2158 C2161 1.403 . S
C2159 C2156 1.403 . S
C2159 C2160 1.524 . S
C2159 C2163 1.400 . S
C2160 H2145 0.960 . S
C2160 H2146 0.960 . S
C2160 H2147 0.960 . S
C2160 C2159 1.524 . S
C2161 C2158 1.403 . S
C2161 C2162 1.392 . S
C2161 C2165 1.495 . S
C2162 C2161 1.392 . S
C2162 C2163 1.385 . S
C2162 C2164 1.478 . S
C2163 H2157 0.930 . S
C2163 C2159 1.400 . S
C2163 C2162 1.385 . S
C2164 C2162 1.478 . S
C2164 C2166 1.381 . S
C2164 C2170 1.383 . S
C2165 C2161 1.495 . S
C2165 H2171 0.959 . S
C2165 H2172 0.961 . S
C2165 H2173 0.960 . S
C2166 C2164 1.381 . S
C2166 C2167 1.394 . S
C2166 H2174 0.930 . S
C2167 C2166 1.394 . S
C2167 C2168 1.383 . S
C2167 H2175 0.929 . S
C2168 C2167 1.383 . S
C2168 C2169 1.377 . S
C2169 H2153 0.930 . S
C2169 C2168 1.377 . S
C2169 C2170 1.379 . S
C2170 H2154 0.931 . S
C2170 C2164 1.383 . S
C2170 C2169 1.379 . S
H2171 C2165 0.959 . S
H2172 C2165 0.961 . S
H2173 C2165 0.960 . S
H2174 C2166 0.930 . S
H2175 C2167 0.929 . S
H2176 C2184 0.929 . S
H2177 C2186 0.930 . S
H2178 C2188 0.930 . S
H2179 C2191 0.929 . S
H2180 C2194 0.930 . S
H2181 C2196 0.960 . S
H2182 C2196 0.960 . S
H2183 C2196 0.960 . S
C2184 H2176 0.929 . S
C2184 C2185 1.377 . S
C2184 C2186 1.384 . S
C2185 C2184 1.377 . S
C2185 C2191 1.390 . S
C2186 H2177 0.930 . S
C2186 C2184 1.384 . S
C2186 C2187 1.372 . S
C2187 C2186 1.372 . S
C2187 C2188 1.400 . S
C2187 C2192 1.490 . S
C2188 H2178 0.930 . S
C2188 C2187 1.400 . S
C2188 C2191 1.386 . S
H2189 C2205 0.930 . S
H2190 C2206 0.931 . S
C2191 H2179 0.929 . S
C2191 C2185 1.390 . S
C2191 C2188 1.386 . S
C2192 C2187 1.490 . S
C2192 C2194 1.395 . S
C2192 C2195 1.403 . S
H2193 C2199 0.930 . S
C2194 H2180 0.930 . S
C2194 C2192 1.395 . S
C2194 C2197 1.403 1_554 S
C2195 C2192 1.403 . S
C2195 C2196 1.524 . S
C2195 C2199 1.400 1_554 S
C2196 H2181 0.960 . S
C2196 H2182 0.960 . S
C2196 H2183 0.960 . S
C2196 C2195 1.524 . S
C2197 C2194 1.403 1_556 S
C2197 C2198 1.392 . S
C2197 C2201 1.495 . S
C2198 C2197 1.392 . S
C2198 C2199 1.385 . S
C2198 C2200 1.478 . S
C2199 H2193 0.930 . S
C2199 C2195 1.400 1_556 S
C2199 C2198 1.385 . S
C2200 C2198 1.478 . S
C2200 C2202 1.381 . S
C2200 C2206 1.383 . S
C2201 C2197 1.495 . S
C2201 H2207 0.959 . S
C2201 H2208 0.961 . S
C2201 H2209 0.960 . S
C2202 C2200 1.381 . S
C2202 C2203 1.394 . S
C2202 H2210 0.930 . S
C2203 C2202 1.394 . S
C2203 C2204 1.383 . S
C2203 H2211 0.929 . S
C2204 C2203 1.383 . S
C2204 C2205 1.377 . S
C2205 H2189 0.930 . S
C2205 C2204 1.377 . S
C2205 C2206 1.379 . S
C2206 H2190 0.931 . S
C2206 C2200 1.383 . S
C2206 C2205 1.379 . S
H2207 C2201 0.959 . S
H2208 C2201 0.961 . S
H2209 C2201 0.960 . S
H2210 C2202 0.930 . S
H2211 C2203 0.929 . S
H2212 C2220 0.929 . S
H2213 C2222 0.930 . S
H2214 C2224 0.930 . S
H2215 C2227 0.929 . S
H2216 C2230 0.930 . S
H2217 C2232 0.960 . S
H2218 C2232 0.960 . S
H2219 C2232 0.960 . S
C2220 H2212 0.929 . S
C2220 C2221 1.377 . S
C2220 C2222 1.384 . S
C2221 C2220 1.377 . S
C2221 C2227 1.390 . S
C2222 H2213 0.930 . S
C2222 C2220 1.384 . S
C2222 C2223 1.372 . S
C2223 C2222 1.372 . S
C2223 C2224 1.400 . S
C2223 C2228 1.490 . S
C2224 H2214 0.930 . S
C2224 C2223 1.400 . S
C2224 C2227 1.386 . S
H2225 C2241 0.930 . S
H2226 C2242 0.931 . S
C2227 H2215 0.929 . S
C2227 C2221 1.390 . S
C2227 C2224 1.386 . S
C2228 C2223 1.490 . S
C2228 C2230 1.395 . S
C2228 C2231 1.403 . S
H2229 C2235 0.930 . S
C2230 H2216 0.930 . S
C2230 C2228 1.395 . S
C2230 C2233 1.403 1_556 S
C2231 C2228 1.403 . S
C2231 C2232 1.524 . S
C2231 C2235 1.400 1_556 S
C2232 H2217 0.960 . S
C2232 H2218 0.960 . S
C2232 H2219 0.960 . S
C2232 C2231 1.524 . S
C2233 C2230 1.403 1_554 S
C2233 C2234 1.392 . S
C2233 C2237 1.495 . S
C2234 C2233 1.392 . S
C2234 C2235 1.385 . S
C2234 C2236 1.478 . S
C2235 H2229 0.930 . S
C2235 C2231 1.400 1_554 S
C2235 C2234 1.385 . S
C2236 C2234 1.478 . S
C2236 C2238 1.381 . S
C2236 C2242 1.383 . S
C2237 C2233 1.495 . S
C2237 H2243 0.959 . S
C2237 H2244 0.961 . S
C2237 H2245 0.960 . S
C2238 C2236 1.381 . S
C2238 C2239 1.394 . S
C2238 H2246 0.930 . S
C2239 C2238 1.394 . S
C2239 C2240 1.383 . S
C2239 H2247 0.929 . S
C2240 C2239 1.383 . S
C2240 C2241 1.377 . S
C2241 H2225 0.930 . S
C2241 C2240 1.377 . S
C2241 C2242 1.379 . S
C2242 H2226 0.931 . S
C2242 C2236 1.383 . S
C2242 C2241 1.379 . S
H2243 C2237 0.959 . S
H2244 C2237 0.961 . S
H2245 C2237 0.960 . S
H2246 C2238 0.930 . S
H2247 C2239 0.929 . S
H2248 C2256 0.929 . S
H2249 C2258 0.930 . S
H2250 C2260 0.930 . S
H2251 C2263 0.929 . S
H2252 C2266 0.930 . S
H2253 C2268 0.960 . S
H2254 C2268 0.960 . S
H2255 C2268 0.960 . S
C2256 H2248 0.929 . S
C2256 C2257 1.377 . S
C2256 C2258 1.384 . S
C2257 C2256 1.377 . S
C2257 C2263 1.390 . S
C2258 H2249 0.930 . S
C2258 C2256 1.384 . S
C2258 C2259 1.372 . S
C2259 C2258 1.372 . S
C2259 C2260 1.400 . S
C2259 C2264 1.490 . S
C2260 H2250 0.930 . S
C2260 C2259 1.400 . S
C2260 C2263 1.386 . S
H2261 C2277 0.930 . S
H2262 C2278 0.931 . S
C2263 H2251 0.929 . S
C2263 C2257 1.390 . S
C2263 C2260 1.386 . S
C2264 C2259 1.490 . S
C2264 C2266 1.395 . S
C2264 C2267 1.403 . S
H2265 C2271 0.930 . S
C2266 H2252 0.930 . S
C2266 C2264 1.395 . S
C2266 C2269 1.403 1_554 S
C2267 C2264 1.403 . S
C2267 C2268 1.524 . S
C2267 C2271 1.400 1_554 S
C2268 H2253 0.960 . S
C2268 H2254 0.960 . S
C2268 H2255 0.960 . S
C2268 C2267 1.524 . S
C2269 C2266 1.403 1_556 S
C2269 C2270 1.392 . S
C2269 C2273 1.495 . S
C2270 C2269 1.392 . S
C2270 C2271 1.385 . S
C2270 C2272 1.478 . S
C2271 H2265 0.930 . S
C2271 C2267 1.400 1_556 S
C2271 C2270 1.385 . S
C2272 C2270 1.478 . S
C2272 C2274 1.381 . S
C2272 C2278 1.383 . S
C2273 C2269 1.495 . S
C2273 H2279 0.959 . S
C2273 H2280 0.961 . S
C2273 H2281 0.960 . S
C2274 C2272 1.381 . S
C2274 C2275 1.394 . S
C2274 H2282 0.930 . S
C2275 C2274 1.394 . S
C2275 C2276 1.383 . S
C2275 H2283 0.929 . S
C2276 C2275 1.383 . S
C2276 C2277 1.377 . S
C2277 H2261 0.930 . S
C2277 C2276 1.377 . S
C2277 C2278 1.379 . S
C2278 H2262 0.931 . S
C2278 C2272 1.383 . S
C2278 C2277 1.379 . S
H2279 C2273 0.959 . S
H2280 C2273 0.961 . S
H2281 C2273 0.960 . S
H2282 C2274 0.930 . S
H2283 C2275 0.929 . S
H2284 C2292 0.929 . S
H2285 C2294 0.930 . S
H2286 C2296 0.930 . S
H2287 C2299 0.929 . S
H2288 C2302 0.930 . S
H2289 C2304 0.960 . S
H2290 C2304 0.960 . S
H2291 C2304 0.960 . S
C2292 H2284 0.929 . S
C2292 C2293 1.377 . S
C2292 C2294 1.384 . S
C2293 C2292 1.377 . S
C2293 C2299 1.390 . S
C2294 H2285 0.930 . S
C2294 C2292 1.384 . S
C2294 C2295 1.372 . S
C2295 C2294 1.372 . S
C2295 C2296 1.400 . S
C2295 C2300 1.490 . S
C2296 H2286 0.930 . S
C2296 C2295 1.400 . S
C2296 C2299 1.386 . S
H2297 C2313 0.930 . S
H2298 C2314 0.931 . S
C2299 H2287 0.929 . S
C2299 C2293 1.390 . S
C2299 C2296 1.386 . S
C2300 C2295 1.490 . S
C2300 C2302 1.395 . S
C2300 C2303 1.403 . S
H2301 C2307 0.930 . S
C2302 H2288 0.930 . S
C2302 C2300 1.395 . S
C2302 C2305 1.403 1_554 S
C2303 C2300 1.403 . S
C2303 C2304 1.524 . S
C2303 C2307 1.400 1_554 S
C2304 H2289 0.960 . S
C2304 H2290 0.960 . S
C2304 H2291 0.960 . S
C2304 C2303 1.524 . S
C2305 C2302 1.403 1_556 S
C2305 C2306 1.392 . S
C2305 C2309 1.495 . S
C2306 C2305 1.392 . S
C2306 C2307 1.385 . S
C2306 C2308 1.478 . S
C2307 H2301 0.930 . S
C2307 C2303 1.400 1_556 S
C2307 C2306 1.385 . S
C2308 C2306 1.478 . S
C2308 C2310 1.381 . S
C2308 C2314 1.383 . S
C2309 C2305 1.495 . S
C2309 H2315 0.959 . S
C2309 H2316 0.961 . S
C2309 H2317 0.960 . S
C2310 C2308 1.381 . S
C2310 C2311 1.394 . S
C2310 H2318 0.930 . S
C2311 C2310 1.394 . S
C2311 C2312 1.383 . S
C2311 H2319 0.929 . S
C2312 C2311 1.383 . S
C2312 C2313 1.377 . S
C2313 H2297 0.930 . S
C2313 C2312 1.377 . S
C2313 C2314 1.379 . S
C2314 H2298 0.931 . S
C2314 C2308 1.383 . S
C2314 C2313 1.379 . S
H2315 C2309 0.959 . S
H2316 C2309 0.961 . S
H2317 C2309 0.960 . S
H2318 C2310 0.930 . S
H2319 C2311 0.929 . S
H2320 C2328 0.929 . S
H2321 C2330 0.930 . S
H2322 C2332 0.930 . S
H2323 C2335 0.929 . S
H2324 C2338 0.930 . S
H2325 C2340 0.960 . S
H2326 C2340 0.960 . S
H2327 C2340 0.960 . S
C2328 H2320 0.929 . S
C2328 C2329 1.377 . S
C2328 C2330 1.384 . S
C2329 C2328 1.377 . S
C2329 C2335 1.390 . S
C2330 H2321 0.930 . S
C2330 C2328 1.384 . S
C2330 C2331 1.372 . S
C2331 C2330 1.372 . S
C2331 C2332 1.400 . S
C2331 C2336 1.490 . S
C2332 H2322 0.930 . S
C2332 C2331 1.400 . S
C2332 C2335 1.386 . S
H2333 C2349 0.930 . S
H2334 C2350 0.931 . S
C2335 H2323 0.929 . S
C2335 C2329 1.390 . S
C2335 C2332 1.386 . S
C2336 C2331 1.490 . S
C2336 C2338 1.395 . S
C2336 C2339 1.403 . S
H2337 C2343 0.930 . S
C2338 H2324 0.930 . S
C2338 C2336 1.395 . S
C2338 C2341 1.403 1_554 S
C2339 C2336 1.403 . S
C2339 C2340 1.524 . S
C2339 C2343 1.400 1_554 S
C2340 H2325 0.960 . S
C2340 H2326 0.960 . S
C2340 H2327 0.960 . S
C2340 C2339 1.524 . S
C2341 C2338 1.403 1_556 S
C2341 C2342 1.392 . S
C2341 C2345 1.495 . S
C2342 C2341 1.392 . S
C2342 C2343 1.385 . S
C2342 C2344 1.478 . S
C2343 H2337 0.930 . S
C2343 C2339 1.400 1_556 S
C2343 C2342 1.385 . S
C2344 C2342 1.478 . S
C2344 C2346 1.381 . S
C2344 C2350 1.383 . S
C2345 C2341 1.495 . S
C2345 H2351 0.959 . S
C2345 H2352 0.961 . S
C2345 H2353 0.960 . S
C2346 C2344 1.381 . S
C2346 C2347 1.394 . S
C2346 H2354 0.930 . S
C2347 C2346 1.394 . S
C2347 C2348 1.383 . S
C2347 H2355 0.929 . S
C2348 C2347 1.383 . S
C2348 C2349 1.377 . S
C2349 H2333 0.930 . S
C2349 C2348 1.377 . S
C2349 C2350 1.379 . S
C2350 H2334 0.931 . S
C2350 C2344 1.383 . S
C2350 C2349 1.379 . S
H2351 C2345 0.959 . S
H2352 C2345 0.961 . S
H2353 C2345 0.960 . S
H2354 C2346 0.930 . S
H2355 C2347 0.929 . S
H2356 C2364 0.929 . S
H2357 C2366 0.930 . S
H2358 C2368 0.930 . S
H2359 C2371 0.929 . S
H2360 C2374 0.930 . S
H2361 C2376 0.960 . S
H2362 C2376 0.960 . S
H2363 C2376 0.960 . S
C2364 H2356 0.929 . S
C2364 C2365 1.377 . S
C2364 C2366 1.384 . S
C2365 C2364 1.377 . S
C2365 C2371 1.390 . S
C2366 H2357 0.930 . S
C2366 C2364 1.384 . S
C2366 C2367 1.372 . S
C2367 C2366 1.372 . S
C2367 C2368 1.400 . S
C2367 C2372 1.490 . S
C2368 H2358 0.930 . S
C2368 C2367 1.400 . S
C2368 C2371 1.386 . S
H2369 C2385 0.930 . S
H2370 C2386 0.931 . S
C2371 H2359 0.929 . S
C2371 C2365 1.390 . S
C2371 C2368 1.386 . S
C2372 C2367 1.490 . S
C2372 C2374 1.395 . S
C2372 C2375 1.403 . S
H2373 C2379 0.930 . S
C2374 H2360 0.930 . S
C2374 C2372 1.395 . S
C2374 C2377 1.403 1_554 S
C2375 C2372 1.403 . S
C2375 C2376 1.524 . S
C2375 C2379 1.400 1_554 S
C2376 H2361 0.960 . S
C2376 H2362 0.960 . S
C2376 H2363 0.960 . S
C2376 C2375 1.524 . S
C2377 C2374 1.403 1_556 S
C2377 C2378 1.392 . S
C2377 C2381 1.495 . S
C2378 C2377 1.392 . S
C2378 C2379 1.385 . S
C2378 C2380 1.478 . S
C2379 H2373 0.930 . S
C2379 C2375 1.400 1_556 S
C2379 C2378 1.385 . S
C2380 C2378 1.478 . S
C2380 C2382 1.381 . S
C2380 C2386 1.383 . S
C2381 C2377 1.495 . S
C2381 H2387 0.959 . S
C2381 H2388 0.961 . S
C2381 H2389 0.960 . S
C2382 C2380 1.381 . S
C2382 C2383 1.394 . S
C2382 H2390 0.930 . S
C2383 C2382 1.394 . S
C2383 C2384 1.383 . S
C2383 H2391 0.929 . S
C2384 C2383 1.383 . S
C2384 C2385 1.377 . S
C2385 H2369 0.930 . S
C2385 C2384 1.377 . S
C2385 C2386 1.379 . S
C2386 H2370 0.931 . S
C2386 C2380 1.383 . S
C2386 C2385 1.379 . S
H2387 C2381 0.959 . S
H2388 C2381 0.961 . S
H2389 C2381 0.960 . S
H2390 C2382 0.930 . S
H2391 C2383 0.929 . S
H2392 C2400 0.929 . S
H2393 C2402 0.930 . S
H2394 C2404 0.930 . S
H2395 C2407 0.929 . S
H2396 C2410 0.930 . S
H2397 C2412 0.960 . S
H2398 C2412 0.960 . S
H2399 C2412 0.960 . S
C2400 H2392 0.929 . S
C2400 C2401 1.377 . S
C2400 C2402 1.384 . S
C2401 C2400 1.377 . S
C2401 C2407 1.390 . S
C2402 H2393 0.930 . S
C2402 C2400 1.384 . S
C2402 C2403 1.372 . S
C2403 C2402 1.372 . S
C2403 C2404 1.400 . S
C2403 C2408 1.490 . S
C2404 H2394 0.930 . S
C2404 C2403 1.400 . S
C2404 C2407 1.386 . S
H2405 C2421 0.930 . S
H2406 C2422 0.931 . S
C2407 H2395 0.929 . S
C2407 C2401 1.390 . S
C2407 C2404 1.386 . S
C2408 C2403 1.490 . S
C2408 C2410 1.395 . S
C2408 C2411 1.403 . S
H2409 C2415 0.930 . S
C2410 H2396 0.930 . S
C2410 C2408 1.395 . S
C2410 C2413 1.403 1_556 S
C2411 C2408 1.403 . S
C2411 C2412 1.524 . S
C2411 C2415 1.400 1_556 S
C2412 H2397 0.960 . S
C2412 H2398 0.960 . S
C2412 H2399 0.960 . S
C2412 C2411 1.524 . S
C2413 C2410 1.403 1_554 S
C2413 C2414 1.392 . S
C2413 C2417 1.495 . S
C2414 C2413 1.392 . S
C2414 C2415 1.385 . S
C2414 C2416 1.478 . S
C2415 H2409 0.930 . S
C2415 C2411 1.400 1_554 S
C2415 C2414 1.385 . S
C2416 C2414 1.478 . S
C2416 C2418 1.381 . S
C2416 C2422 1.383 . S
C2417 C2413 1.495 . S
C2417 H2423 0.959 . S
C2417 H2424 0.961 . S
C2417 H2425 0.960 . S
C2418 C2416 1.381 . S
C2418 C2419 1.394 . S
C2418 H2426 0.930 . S
C2419 C2418 1.394 . S
C2419 C2420 1.383 . S
C2419 H2427 0.929 . S
C2420 C2419 1.383 . S
C2420 C2421 1.377 . S
C2421 H2405 0.930 . S
C2421 C2420 1.377 . S
C2421 C2422 1.379 . S
C2422 H2406 0.931 . S
C2422 C2416 1.383 . S
C2422 C2421 1.379 . S
H2423 C2417 0.959 . S
H2424 C2417 0.961 . S
H2425 C2417 0.960 . S
H2426 C2418 0.930 . S
H2427 C2419 0.929 . S
H2428 C2436 0.929 . S
H2429 C2438 0.930 . S
H2430 C2440 0.930 . S
H2431 C2443 0.929 . S
H2432 C2446 0.930 . S
H2433 C2448 0.960 . S
H2434 C2448 0.960 . S
H2435 C2448 0.960 . S
C2436 H2428 0.929 . S
C2436 C2437 1.377 . S
C2436 C2438 1.384 . S
C2437 C2436 1.377 . S
C2437 C2443 1.390 . S
C2438 H2429 0.930 . S
C2438 C2436 1.384 . S
C2438 C2439 1.372 . S
C2439 C2438 1.372 . S
C2439 C2440 1.400 . S
C2439 C2444 1.490 . S
C2440 H2430 0.930 . S
C2440 C2439 1.400 . S
C2440 C2443 1.386 . S
H2441 C2457 0.930 . S
H2442 C2458 0.931 . S
C2443 H2431 0.929 . S
C2443 C2437 1.390 . S
C2443 C2440 1.386 . S
C2444 C2439 1.490 . S
C2444 C2446 1.395 . S
C2444 C2447 1.403 . S
H2445 C2451 0.930 . S
C2446 H2432 0.930 . S
C2446 C2444 1.395 . S
C2446 C2449 1.403 1_556 S
C2447 C2444 1.403 . S
C2447 C2448 1.524 . S
C2447 C2451 1.400 1_556 S
C2448 H2433 0.960 . S
C2448 H2434 0.960 . S
C2448 H2435 0.960 . S
C2448 C2447 1.524 . S
C2449 C2446 1.403 1_554 S
C2449 C2450 1.392 . S
C2449 C2453 1.495 . S
C2450 C2449 1.392 . S
C2450 C2451 1.385 . S
C2450 C2452 1.478 . S
C2451 H2445 0.930 . S
C2451 C2447 1.400 1_554 S
C2451 C2450 1.385 . S
C2452 C2450 1.478 . S
C2452 C2454 1.381 . S
C2452 C2458 1.383 . S
C2453 C2449 1.495 . S
C2453 H2459 0.959 . S
C2453 H2460 0.961 . S
C2453 H2461 0.960 . S
C2454 C2452 1.381 . S
C2454 C2455 1.394 . S
C2454 H2462 0.930 . S
C2455 C2454 1.394 . S
C2455 C2456 1.383 . S
C2455 H2463 0.929 . S
C2456 C2455 1.383 . S
C2456 C2457 1.377 . S
C2457 H2441 0.930 . S
C2457 C2456 1.377 . S
C2457 C2458 1.379 . S
C2458 H2442 0.931 . S
C2458 C2452 1.383 . S
C2458 C2457 1.379 . S
H2459 C2453 0.959 . S
H2460 C2453 0.961 . S
H2461 C2453 0.960 . S
H2462 C2454 0.930 . S
H2463 C2455 0.929 . S
H2464 C2472 0.929 . S
H2465 C2474 0.930 . S
H2466 C2476 0.930 . S
H2467 C2479 0.929 . S
H2468 C2482 0.930 . S
H2469 C2484 0.960 . S
H2470 C2484 0.960 . S
H2471 C2484 0.960 . S
C2472 H2464 0.929 . S
C2472 C2473 1.377 . S
C2472 C2474 1.384 . S
C2473 C2472 1.377 . S
C2473 C2479 1.390 . S
C2474 H2465 0.930 . S
C2474 C2472 1.384 . S
C2474 C2475 1.372 . S
C2475 C2474 1.372 . S
C2475 C2476 1.400 . S
C2475 C2480 1.490 . S
C2476 H2466 0.930 . S
C2476 C2475 1.400 . S
C2476 C2479 1.386 . S
H2477 C2493 0.930 . S
H2478 C2494 0.931 . S
C2479 H2467 0.929 . S
C2479 C2473 1.390 . S
C2479 C2476 1.386 . S
C2480 C2475 1.490 . S
C2480 C2482 1.395 . S
C2480 C2483 1.403 . S
H2481 C2487 0.930 . S
C2482 H2468 0.930 . S
C2482 C2480 1.395 . S
C2482 C2485 1.403 . S
C2483 C2480 1.403 . S
C2483 C2484 1.524 . S
C2483 C2487 1.400 . S
C2484 H2469 0.960 . S
C2484 H2470 0.960 . S
C2484 H2471 0.960 . S
C2484 C2483 1.524 . S
C2485 C2482 1.403 . S
C2485 C2486 1.392 . S
C2485 C2489 1.495 . S
C2486 C2485 1.392 . S
C2486 C2487 1.385 . S
C2486 C2488 1.478 . S
C2487 H2481 0.930 . S
C2487 C2483 1.400 . S
C2487 C2486 1.385 . S
C2488 C2486 1.478 . S
C2488 C2490 1.381 . S
C2488 C2494 1.383 . S
C2489 C2485 1.495 . S
C2489 H2495 0.959 . S
C2489 H2496 0.961 . S
C2489 H2497 0.960 . S
C2490 C2488 1.381 . S
C2490 C2491 1.394 . S
C2490 H2498 0.930 . S
C2491 C2490 1.394 . S
C2491 C2492 1.383 . S
C2491 H2499 0.929 . S
C2492 C2491 1.383 . S
C2492 C2493 1.377 . S
C2493 H2477 0.930 . S
C2493 C2492 1.377 . S
C2493 C2494 1.379 . S
C2494 H2478 0.931 . S
C2494 C2488 1.383 . S
C2494 C2493 1.379 . S
H2495 C2489 0.959 . S
H2496 C2489 0.961 . S
H2497 C2489 0.960 . S
H2498 C2490 0.930 . S
H2499 C2491 0.929 . S
H2500 C2508 0.929 . S
H2501 C2510 0.930 . S
H2502 C2512 0.930 . S
H2503 C2515 0.929 . S
H2504 C2518 0.930 . S
H2505 C2520 0.960 . S
H2506 C2520 0.960 . S
H2507 C2520 0.960 . S
C2508 H2500 0.929 . S
C2508 C2509 1.377 . S
C2508 C2510 1.384 . S
C2509 C2508 1.377 . S
C2509 C2515 1.390 . S
C2510 H2501 0.930 . S
C2510 C2508 1.384 . S
C2510 C2511 1.372 . S
C2511 C2510 1.372 . S
C2511 C2512 1.400 . S
C2511 C2516 1.490 . S
C2512 H2502 0.930 . S
C2512 C2511 1.400 . S
C2512 C2515 1.386 . S
H2513 C2529 0.930 . S
H2514 C2530 0.931 . S
C2515 H2503 0.929 . S
C2515 C2509 1.390 . S
C2515 C2512 1.386 . S
C2516 C2511 1.490 . S
C2516 C2518 1.395 . S
C2516 C2519 1.403 . S
H2517 C2523 0.930 . S
C2518 H2504 0.930 . S
C2518 C2516 1.395 . S
C2518 C2521 1.403 . S
C2519 C2516 1.403 . S
C2519 C2520 1.524 . S
C2519 C2523 1.400 . S
C2520 H2505 0.960 . S
C2520 H2506 0.960 . S
C2520 H2507 0.960 . S
C2520 C2519 1.524 . S
C2521 C2518 1.403 . S
C2521 C2522 1.392 . S
C2521 C2525 1.495 . S
C2522 C2521 1.392 . S
C2522 C2523 1.385 . S
C2522 C2524 1.478 . S
C2523 H2517 0.930 . S
C2523 C2519 1.400 . S
C2523 C2522 1.385 . S
C2524 C2522 1.478 . S
C2524 C2526 1.381 . S
C2524 C2530 1.383 . S
C2525 C2521 1.495 . S
C2525 H2531 0.959 . S
C2525 H2532 0.961 . S
C2525 H2533 0.960 . S
C2526 C2524 1.381 . S
C2526 C2527 1.394 . S
C2526 H2534 0.930 . S
C2527 C2526 1.394 . S
C2527 C2528 1.383 . S
C2527 H2535 0.929 . S
C2528 C2527 1.383 . S
C2528 C2529 1.377 . S
C2529 H2513 0.930 . S
C2529 C2528 1.377 . S
C2529 C2530 1.379 . S
C2530 H2514 0.931 . S
C2530 C2524 1.383 . S
C2530 C2529 1.379 . S
H2531 C2525 0.959 . S
H2532 C2525 0.961 . S
H2533 C2525 0.960 . S
H2534 C2526 0.930 . S
H2535 C2527 0.929 . S
H2536 C2544 0.929 . S
H2537 C2546 0.930 . S
H2538 C2548 0.930 . S
H2539 C2551 0.929 . S
H2540 C2554 0.930 . S
H2541 C2556 0.960 . S
H2542 C2556 0.960 . S
H2543 C2556 0.960 . S
C2544 H2536 0.929 . S
C2544 C2545 1.377 . S
C2544 C2546 1.384 . S
C2545 C2544 1.377 . S
C2545 C2551 1.390 . S
C2546 H2537 0.930 . S
C2546 C2544 1.384 . S
C2546 C2547 1.372 . S
C2547 C2546 1.372 . S
C2547 C2548 1.400 . S
C2547 C2552 1.490 . S
C2548 H2538 0.930 . S
C2548 C2547 1.400 . S
C2548 C2551 1.386 . S
H2549 C2565 0.930 . S
H2550 C2566 0.931 . S
C2551 H2539 0.929 . S
C2551 C2545 1.390 . S
C2551 C2548 1.386 . S
C2552 C2547 1.490 . S
C2552 C2554 1.395 . S
C2552 C2555 1.403 . S
H2553 C2559 0.930 . S
C2554 H2540 0.930 . S
C2554 C2552 1.395 . S
C2554 C2557 1.403 . S
C2555 C2552 1.403 . S
C2555 C2556 1.524 . S
C2555 C2559 1.400 . S
C2556 H2541 0.960 . S
C2556 H2542 0.960 . S
C2556 H2543 0.960 . S
C2556 C2555 1.524 . S
C2557 C2554 1.403 . S
C2557 C2558 1.392 . S
C2557 C2561 1.495 . S
C2558 C2557 1.392 . S
C2558 C2559 1.385 . S
C2558 C2560 1.478 . S
C2559 H2553 0.930 . S
C2559 C2555 1.400 . S
C2559 C2558 1.385 . S
C2560 C2558 1.478 . S
C2560 C2562 1.381 . S
C2560 C2566 1.383 . S
C2561 C2557 1.495 . S
C2561 H2567 0.959 . S
C2561 H2568 0.961 . S
C2561 H2569 0.960 . S
C2562 C2560 1.381 . S
C2562 C2563 1.394 . S
C2562 H2570 0.930 . S
C2563 C2562 1.394 . S
C2563 C2564 1.383 . S
C2563 H2571 0.929 . S
C2564 C2563 1.383 . S
C2564 C2565 1.377 . S
C2565 H2549 0.930 . S
C2565 C2564 1.377 . S
C2565 C2566 1.379 . S
C2566 H2550 0.931 . S
C2566 C2560 1.383 . S
C2566 C2565 1.379 . S
H2567 C2561 0.959 . S
H2568 C2561 0.961 . S
H2569 C2561 0.960 . S
H2570 C2562 0.930 . S
H2571 C2563 0.929 . S
H2572 C2580 0.929 . S
H2573 C2582 0.930 . S
H2574 C2584 0.930 . S
H2575 C2587 0.929 . S
H2576 C2590 0.930 . S
H2577 C2592 0.960 . S
H2578 C2592 0.960 . S
H2579 C2592 0.960 . S
C2580 H2572 0.929 . S
C2580 C2581 1.377 . S
C2580 C2582 1.384 . S
C2581 C2580 1.377 . S
C2581 C2587 1.390 . S
C2582 H2573 0.930 . S
C2582 C2580 1.384 . S
C2582 C2583 1.372 . S
C2583 C2582 1.372 . S
C2583 C2584 1.400 . S
C2583 C2588 1.490 . S
C2584 H2574 0.930 . S
C2584 C2583 1.400 . S
C2584 C2587 1.386 . S
H2585 C2601 0.930 . S
H2586 C2602 0.931 . S
C2587 H2575 0.929 . S
C2587 C2581 1.390 . S
C2587 C2584 1.386 . S
C2588 C2583 1.490 . S
C2588 C2590 1.395 . S
C2588 C2591 1.403 . S
H2589 C2595 0.930 . S
C2590 H2576 0.930 . S
C2590 C2588 1.395 . S
C2590 C2593 1.403 . S
C2591 C2588 1.403 . S
C2591 C2592 1.524 . S
C2591 C2595 1.400 . S
C2592 H2577 0.960 . S
C2592 H2578 0.960 . S
C2592 H2579 0.960 . S
C2592 C2591 1.524 . S
C2593 C2590 1.403 . S
C2593 C2594 1.392 . S
C2593 C2597 1.495 . S
C2594 C2593 1.392 . S
C2594 C2595 1.385 . S
C2594 C2596 1.478 . S
C2595 H2589 0.930 . S
C2595 C2591 1.400 . S
C2595 C2594 1.385 . S
C2596 C2594 1.478 . S
C2596 C2598 1.381 . S
C2596 C2602 1.383 . S
C2597 C2593 1.495 . S
C2597 H2603 0.959 . S
C2597 H2604 0.961 . S
C2597 H2605 0.960 . S
C2598 C2596 1.381 . S
C2598 C2599 1.394 . S
C2598 H2606 0.930 . S
C2599 C2598 1.394 . S
C2599 C2600 1.383 . S
C2599 H2607 0.929 . S
C2600 C2599 1.383 . S
C2600 C2601 1.377 . S
C2601 H2585 0.930 . S
C2601 C2600 1.377 . S
C2601 C2602 1.379 . S
C2602 H2586 0.931 . S
C2602 C2596 1.383 . S
C2602 C2601 1.379 . S
H2603 C2597 0.959 . S
H2604 C2597 0.961 . S
H2605 C2597 0.960 . S
H2606 C2598 0.930 . S
H2607 C2599 0.929 . S
H2608 C2616 0.929 . S
H2609 C2618 0.930 . S
H2610 C2620 0.930 . S
H2611 C2623 0.929 . S
H2612 C2626 0.930 . S
H2613 C2628 0.960 . S
H2614 C2628 0.960 . S
H2615 C2628 0.960 . S
C2616 H2608 0.929 . S
C2616 C2617 1.377 . S
C2616 C2618 1.384 . S
C2617 C2616 1.377 . S
C2617 C2623 1.390 . S
C2618 H2609 0.930 . S
C2618 C2616 1.384 . S
C2618 C2619 1.372 . S
C2619 C2618 1.372 . S
C2619 C2620 1.400 . S
C2619 C2624 1.490 . S
C2620 H2610 0.930 . S
C2620 C2619 1.400 . S
C2620 C2623 1.386 . S
H2621 C2637 0.930 . S
H2622 C2638 0.931 . S
C2623 H2611 0.929 . S
C2623 C2617 1.390 . S
C2623 C2620 1.386 . S
C2624 C2619 1.490 . S
C2624 C2626 1.395 . S
C2624 C2627 1.403 . S
H2625 C2631 0.930 . S
C2626 H2612 0.930 . S
C2626 C2624 1.395 . S
C2626 C2629 1.403 . S
C2627 C2624 1.403 . S
C2627 C2628 1.524 . S
C2627 C2631 1.400 . S
C2628 H2613 0.960 . S
C2628 H2614 0.960 . S
C2628 H2615 0.960 . S
C2628 C2627 1.524 . S
C2629 C2626 1.403 . S
C2629 C2630 1.392 . S
C2629 C2633 1.495 . S
C2630 C2629 1.392 . S
C2630 C2631 1.385 . S
C2630 C2632 1.478 . S
C2631 H2625 0.930 . S
C2631 C2627 1.400 . S
C2631 C2630 1.385 . S
C2632 C2630 1.478 . S
C2632 C2634 1.381 . S
C2632 C2638 1.383 . S
C2633 C2629 1.495 . S
C2633 H2639 0.959 . S
C2633 H2640 0.961 . S
C2633 H2641 0.960 . S
C2634 C2632 1.381 . S
C2634 C2635 1.394 . S
C2634 H2642 0.930 . S
C2635 C2634 1.394 . S
C2635 C2636 1.383 . S
C2635 H2643 0.929 . S
C2636 C2635 1.383 . S
C2636 C2637 1.377 . S
C2637 H2621 0.930 . S
C2637 C2636 1.377 . S
C2637 C2638 1.379 . S
C2638 H2622 0.931 . S
C2638 C2632 1.383 . S
C2638 C2637 1.379 . S
H2639 C2633 0.959 . S
H2640 C2633 0.961 . S
H2641 C2633 0.960 . S
H2642 C2634 0.930 . S
H2643 C2635 0.929 . S
H2644 C2652 0.929 . S
H2645 C2654 0.930 . S
H2646 C2656 0.930 . S
H2647 C2659 0.929 . S
H2648 C2662 0.930 . S
H2649 C2664 0.960 . S
H2650 C2664 0.960 . S
H2651 C2664 0.960 . S
C2652 H2644 0.929 . S
C2652 C2653 1.377 . S
C2652 C2654 1.384 . S
C2653 C2652 1.377 . S
C2653 C2659 1.390 . S
C2654 H2645 0.930 . S
C2654 C2652 1.384 . S
C2654 C2655 1.372 . S
C2655 C2654 1.372 . S
C2655 C2656 1.400 . S
C2655 C2660 1.490 . S
C2656 H2646 0.930 . S
C2656 C2655 1.400 . S
C2656 C2659 1.386 . S
H2657 C2673 0.930 . S
H2658 C2674 0.931 . S
C2659 H2647 0.929 . S
C2659 C2653 1.390 . S
C2659 C2656 1.386 . S
C2660 C2655 1.490 . S
C2660 C2662 1.395 . S
C2660 C2663 1.403 . S
H2661 C2667 0.930 . S
C2662 H2648 0.930 . S
C2662 C2660 1.395 . S
C2662 C2665 1.403 . S
C2663 C2660 1.403 . S
C2663 C2664 1.524 . S
C2663 C2667 1.400 . S
C2664 H2649 0.960 . S
C2664 H2650 0.960 . S
C2664 H2651 0.960 . S
C2664 C2663 1.524 . S
C2665 C2662 1.403 . S
C2665 C2666 1.392 . S
C2665 C2669 1.495 . S
C2666 C2665 1.392 . S
C2666 C2667 1.385 . S
C2666 C2668 1.478 . S
C2667 H2661 0.930 . S
C2667 C2663 1.400 . S
C2667 C2666 1.385 . S
C2668 C2666 1.478 . S
C2668 C2670 1.381 . S
C2668 C2674 1.383 . S
C2669 C2665 1.495 . S
C2669 H2675 0.959 . S
C2669 H2676 0.961 . S
C2669 H2677 0.960 . S
C2670 C2668 1.381 . S
C2670 C2671 1.394 . S
C2670 H2678 0.930 . S
C2671 C2670 1.394 . S
C2671 C2672 1.383 . S
C2671 H2679 0.929 . S
C2672 C2671 1.383 . S
C2672 C2673 1.377 . S
C2673 H2657 0.930 . S
C2673 C2672 1.377 . S
C2673 C2674 1.379 . S
C2674 H2658 0.931 . S
C2674 C2668 1.383 . S
C2674 C2673 1.379 . S
H2675 C2669 0.959 . S
H2676 C2669 0.961 . S
H2677 C2669 0.960 . S
H2678 C2670 0.930 . S
H2679 C2671 0.929 . S
H2680 C2688 0.929 . S
H2681 C2690 0.930 . S
H2682 C2692 0.930 . S
H2683 C2695 0.929 . S
H2684 C2698 0.930 . S
H2685 C2700 0.960 . S
H2686 C2700 0.960 . S
H2687 C2700 0.960 . S
C2688 H2680 0.929 . S
C2688 C2689 1.377 . S
C2688 C2690 1.384 . S
C2689 C2688 1.377 . S
C2689 C2695 1.390 . S
C2690 H2681 0.930 . S
C2690 C2688 1.384 . S
C2690 C2691 1.372 . S
C2691 C2690 1.372 . S
C2691 C2692 1.400 . S
C2691 C2696 1.490 . S
C2692 H2682 0.930 . S
C2692 C2691 1.400 . S
C2692 C2695 1.386 . S
H2693 C2709 0.930 . S
H2694 C2710 0.931 . S
C2695 H2683 0.929 . S
C2695 C2689 1.390 . S
C2695 C2692 1.386 . S
C2696 C2691 1.490 . S
C2696 C2698 1.395 . S
C2696 C2699 1.403 . S
H2697 C2703 0.930 . S
C2698 H2684 0.930 . S
C2698 C2696 1.395 . S
C2698 C2701 1.403 . S
C2699 C2696 1.403 . S
C2699 C2700 1.524 . S
C2699 C2703 1.400 . S
C2700 H2685 0.960 . S
C2700 H2686 0.960 . S
C2700 H2687 0.960 . S
C2700 C2699 1.524 . S
C2701 C2698 1.403 . S
C2701 C2702 1.392 . S
C2701 C2705 1.495 . S
C2702 C2701 1.392 . S
C2702 C2703 1.385 . S
C2702 C2704 1.478 . S
C2703 H2697 0.930 . S
C2703 C2699 1.400 . S
C2703 C2702 1.385 . S
C2704 C2702 1.478 . S
C2704 C2706 1.381 . S
C2704 C2710 1.383 . S
C2705 C2701 1.495 . S
C2705 H2711 0.959 . S
C2705 H2712 0.961 . S
C2705 H2713 0.960 . S
C2706 C2704 1.381 . S
C2706 C2707 1.394 . S
C2706 H2714 0.930 . S
C2707 C2706 1.394 . S
C2707 C2708 1.383 . S
C2707 H2715 0.929 . S
C2708 C2707 1.383 . S
C2708 C2709 1.377 . S
C2709 H2693 0.930 . S
C2709 C2708 1.377 . S
C2709 C2710 1.379 . S
C2710 H2694 0.931 . S
C2710 C2704 1.383 . S
C2710 C2709 1.379 . S
H2711 C2705 0.959 . S
H2712 C2705 0.961 . S
H2713 C2705 0.960 . S
H2714 C2706 0.930 . S
H2715 C2707 0.929 . S
H2716 C2724 0.929 . S
H2717 C2726 0.930 . S
H2718 C2728 0.930 . S
H2719 C2731 0.929 . S
H2720 C2734 0.930 . S
H2721 C2736 0.960 . S
H2722 C2736 0.960 . S
H2723 C2736 0.960 . S
C2724 H2716 0.929 . S
C2724 C2725 1.377 . S
C2724 C2726 1.384 . S
C2725 C2724 1.377 . S
C2725 C2731 1.390 . S
C2726 H2717 0.930 . S
C2726 C2724 1.384 . S
C2726 C2727 1.372 . S
C2727 C2726 1.372 . S
C2727 C2728 1.400 . S
C2727 C2732 1.490 . S
C2728 H2718 0.930 . S
C2728 C2727 1.400 . S
C2728 C2731 1.386 . S
H2729 C2745 0.930 . S
H2730 C2746 0.931 . S
C2731 H2719 0.929 . S
C2731 C2725 1.390 . S
C2731 C2728 1.386 . S
C2732 C2727 1.490 . S
C2732 C2734 1.395 . S
C2732 C2735 1.403 . S
H2733 C2739 0.930 . S
C2734 H2720 0.930 . S
C2734 C2732 1.395 . S
C2734 C2737 1.403 . S
C2735 C2732 1.403 . S
C2735 C2736 1.524 . S
C2735 C2739 1.400 . S
C2736 H2721 0.960 . S
C2736 H2722 0.960 . S
C2736 H2723 0.960 . S
C2736 C2735 1.524 . S
C2737 C2734 1.403 . S
C2737 C2738 1.392 . S
C2737 C2741 1.495 . S
C2738 C2737 1.392 . S
C2738 C2739 1.385 . S
C2738 C2740 1.478 . S
C2739 H2733 0.930 . S
C2739 C2735 1.400 . S
C2739 C2738 1.385 . S
C2740 C2738 1.478 . S
C2740 C2742 1.381 . S
C2740 C2746 1.383 . S
C2741 C2737 1.495 . S
C2741 H2747 0.959 . S
C2741 H2748 0.961 . S
C2741 H2749 0.960 . S
C2742 C2740 1.381 . S
C2742 C2743 1.394 . S
C2742 H2750 0.930 . S
C2743 C2742 1.394 . S
C2743 C2744 1.383 . S
C2743 H2751 0.929 . S
C2744 C2743 1.383 . S
C2744 C2745 1.377 . S
C2745 H2729 0.930 . S
C2745 C2744 1.377 . S
C2745 C2746 1.379 . S
C2746 H2730 0.931 . S
C2746 C2740 1.383 . S
C2746 C2745 1.379 . S
H2747 C2741 0.959 . S
H2748 C2741 0.961 . S
H2749 C2741 0.960 . S
H2750 C2742 0.930 . S
H2751 C2743 0.929 . S
H2752 C2760 0.929 . S
H2753 C2762 0.930 . S
H2754 C2764 0.930 . S
H2755 C2767 0.929 . S
H2756 C2770 0.930 . S
H2757 C2772 0.960 . S
H2758 C2772 0.960 . S
H2759 C2772 0.960 . S
C2760 H2752 0.929 . S
C2760 C2761 1.377 . S
C2760 C2762 1.384 . S
C2761 C2760 1.377 . S
C2761 C2767 1.390 . S
C2762 H2753 0.930 . S
C2762 C2760 1.384 . S
C2762 C2763 1.372 . S
C2763 C2762 1.372 . S
C2763 C2764 1.400 . S
C2763 C2768 1.490 . S
C2764 H2754 0.930 . S
C2764 C2763 1.400 . S
C2764 C2767 1.386 . S
H2765 C2781 0.930 . S
H2766 C2782 0.931 . S
C2767 H2755 0.929 . S
C2767 C2761 1.390 . S
C2767 C2764 1.386 . S
C2768 C2763 1.490 . S
C2768 C2770 1.395 . S
C2768 C2771 1.403 . S
H2769 C2775 0.930 . S
C2770 H2756 0.930 . S
C2770 C2768 1.395 . S
C2770 C2773 1.403 . S
C2771 C2768 1.403 . S
C2771 C2772 1.524 . S
C2771 C2775 1.400 . S
C2772 H2757 0.960 . S
C2772 H2758 0.960 . S
C2772 H2759 0.960 . S
C2772 C2771 1.524 . S
C2773 C2770 1.403 . S
C2773 C2774 1.392 . S
C2773 C2777 1.495 . S
C2774 C2773 1.392 . S
C2774 C2775 1.385 . S
C2774 C2776 1.478 . S
C2775 H2769 0.930 . S
C2775 C2771 1.400 . S
C2775 C2774 1.385 . S
C2776 C2774 1.478 . S
C2776 C2778 1.381 . S
C2776 C2782 1.383 . S
C2777 C2773 1.495 . S
C2777 H2783 0.959 . S
C2777 H2784 0.961 . S
C2777 H2785 0.960 . S
C2778 C2776 1.381 . S
C2778 C2779 1.394 . S
C2778 H2786 0.930 . S
C2779 C2778 1.394 . S
C2779 C2780 1.383 . S
C2779 H2787 0.929 . S
C2780 C2779 1.383 . S
C2780 C2781 1.377 . S
C2781 H2765 0.930 . S
C2781 C2780 1.377 . S
C2781 C2782 1.379 . S
C2782 H2766 0.931 . S
C2782 C2776 1.383 . S
C2782 C2781 1.379 . S
H2783 C2777 0.959 . S
H2784 C2777 0.961 . S
H2785 C2777 0.960 . S
H2786 C2778 0.930 . S
H2787 C2779 0.929 . S
H2788 C2796 0.929 . S
H2789 C2798 0.930 . S
H2790 C2800 0.930 . S
H2791 C2803 0.929 . S
H2792 C2806 0.930 . S
H2793 C2808 0.960 . S
H2794 C2808 0.960 . S
H2795 C2808 0.960 . S
C2796 H2788 0.929 . S
C2796 C2797 1.377 . S
C2796 C2798 1.384 . S
C2797 C2796 1.377 . S
C2797 C2803 1.390 . S
C2798 H2789 0.930 . S
C2798 C2796 1.384 . S
C2798 C2799 1.372 . S
C2799 C2798 1.372 . S
C2799 C2800 1.400 . S
C2799 C2804 1.490 . S
C2800 H2790 0.930 . S
C2800 C2799 1.400 . S
C2800 C2803 1.386 . S
H2801 C2817 0.930 . S
H2802 C2818 0.931 . S
C2803 H2791 0.929 . S
C2803 C2797 1.390 . S
C2803 C2800 1.386 . S
C2804 C2799 1.490 . S
C2804 C2806 1.395 . S
C2804 C2807 1.403 . S
H2805 C2811 0.930 . S
C2806 H2792 0.930 . S
C2806 C2804 1.395 . S
C2806 C2809 1.403 . S
C2807 C2804 1.403 . S
C2807 C2808 1.524 . S
C2807 C2811 1.400 . S
C2808 H2793 0.960 . S
C2808 H2794 0.960 . S
C2808 H2795 0.960 . S
C2808 C2807 1.524 . S
C2809 C2806 1.403 . S
C2809 C2810 1.392 . S
C2809 C2813 1.495 . S
C2810 C2809 1.392 . S
C2810 C2811 1.385 . S
C2810 C2812 1.478 . S
C2811 H2805 0.930 . S
C2811 C2807 1.400 . S
C2811 C2810 1.385 . S
C2812 C2810 1.478 . S
C2812 C2814 1.381 . S
C2812 C2818 1.383 . S
C2813 C2809 1.495 . S
C2813 H2819 0.959 . S
C2813 H2820 0.961 . S
C2813 H2821 0.960 . S
C2814 C2812 1.381 . S
C2814 C2815 1.394 . S
C2814 H2822 0.930 . S
C2815 C2814 1.394 . S
C2815 C2816 1.383 . S
C2815 H2823 0.929 . S
C2816 C2815 1.383 . S
C2816 C2817 1.377 . S
C2817 H2801 0.930 . S
C2817 C2816 1.377 . S
C2817 C2818 1.379 . S
C2818 H2802 0.931 . S
C2818 C2812 1.383 . S
C2818 C2817 1.379 . S
H2819 C2813 0.959 . S
H2820 C2813 0.961 . S
H2821 C2813 0.960 . S
H2822 C2814 0.930 . S
H2823 C2815 0.929 . S
H2824 C2832 0.929 . S
H2825 C2834 0.930 . S
H2826 C2836 0.930 . S
H2827 C2839 0.929 . S
H2828 C2842 0.930 . S
H2829 C2844 0.960 . S
H2830 C2844 0.960 . S
H2831 C2844 0.960 . S
C2832 H2824 0.929 . S
C2832 C2833 1.377 . S
C2832 C2834 1.384 . S
C2833 C2832 1.377 . S
C2833 C2839 1.390 . S
C2834 H2825 0.930 . S
C2834 C2832 1.384 . S
C2834 C2835 1.372 . S
C2835 C2834 1.372 . S
C2835 C2836 1.400 . S
C2835 C2840 1.490 . S
C2836 H2826 0.930 . S
C2836 C2835 1.400 . S
C2836 C2839 1.386 . S
H2837 C2853 0.930 . S
H2838 C2854 0.931 . S
C2839 H2827 0.929 . S
C2839 C2833 1.390 . S
C2839 C2836 1.386 . S
C2840 C2835 1.490 . S
C2840 C2842 1.395 . S
C2840 C2843 1.403 . S
H2841 C2847 0.930 . S
C2842 H2828 0.930 . S
C2842 C2840 1.395 . S
C2842 C2845 1.403 . S
C2843 C2840 1.403 . S
C2843 C2844 1.524 . S
C2843 C2847 1.400 . S
C2844 H2829 0.960 . S
C2844 H2830 0.960 . S
C2844 H2831 0.960 . S
C2844 C2843 1.524 . S
C2845 C2842 1.403 . S
C2845 C2846 1.392 . S
C2845 C2849 1.495 . S
C2846 C2845 1.392 . S
C2846 C2847 1.385 . S
C2846 C2848 1.478 . S
C2847 H2841 0.930 . S
C2847 C2843 1.400 . S
C2847 C2846 1.385 . S
C2848 C2846 1.478 . S
C2848 C2850 1.381 . S
C2848 C2854 1.383 . S
C2849 C2845 1.495 . S
C2849 H2855 0.959 . S
C2849 H2856 0.961 . S
C2849 H2857 0.960 . S
C2850 C2848 1.381 . S
C2850 C2851 1.394 . S
C2850 H2858 0.930 . S
C2851 C2850 1.394 . S
C2851 C2852 1.383 . S
C2851 H2859 0.929 . S
C2852 C2851 1.383 . S
C2852 C2853 1.377 . S
C2853 H2837 0.930 . S
C2853 C2852 1.377 . S
C2853 C2854 1.379 . S
C2854 H2838 0.931 . S
C2854 C2848 1.383 . S
C2854 C2853 1.379 . S
H2855 C2849 0.959 . S
H2856 C2849 0.961 . S
H2857 C2849 0.960 . S
H2858 C2850 0.930 . S
H2859 C2851 0.929 . S
H2860 C2868 0.929 . S
H2861 C2870 0.930 . S
H2862 C2872 0.930 . S
H2863 C2875 0.929 . S
H2864 C2878 0.930 . S
H2865 C2880 0.960 . S
H2866 C2880 0.960 . S
H2867 C2880 0.960 . S
C2868 H2860 0.929 . S
C2868 C2869 1.377 . S
C2868 C2870 1.384 . S
C2869 C2868 1.377 . S
C2869 C2875 1.390 . S
C2870 H2861 0.930 . S
C2870 C2868 1.384 . S
C2870 C2871 1.372 . S
C2871 C2870 1.372 . S
C2871 C2872 1.400 . S
C2871 C2876 1.490 . S
C2872 H2862 0.930 . S
C2872 C2871 1.400 . S
C2872 C2875 1.386 . S
H2873 C2889 0.930 . S
H2874 C2890 0.931 . S
C2875 H2863 0.929 . S
C2875 C2869 1.390 . S
C2875 C2872 1.386 . S
C2876 C2871 1.490 . S
C2876 C2878 1.395 . S
C2876 C2879 1.403 . S
H2877 C2883 0.930 . S
C2878 H2864 0.930 . S
C2878 C2876 1.395 . S
C2878 C2881 1.403 . S
C2879 C2876 1.403 . S
C2879 C2880 1.524 . S
C2879 C2883 1.400 . S
C2880 H2865 0.960 . S
C2880 H2866 0.960 . S
C2880 H2867 0.960 . S
C2880 C2879 1.524 . S
C2881 C2878 1.403 . S
C2881 C2882 1.392 . S
C2881 C2885 1.495 . S
C2882 C2881 1.392 . S
C2882 C2883 1.385 . S
C2882 C2884 1.478 . S
C2883 H2877 0.930 . S
C2883 C2879 1.400 . S
C2883 C2882 1.385 . S
C2884 C2882 1.478 . S
C2884 C2886 1.381 . S
C2884 C2890 1.383 . S
C2885 C2881 1.495 . S
C2885 H2891 0.959 . S
C2885 H2892 0.961 . S
C2885 H2893 0.960 . S
C2886 C2884 1.381 . S
C2886 C2887 1.394 . S
C2886 H2894 0.930 . S
C2887 C2886 1.394 . S
C2887 C2888 1.383 . S
C2887 H2895 0.929 . S
C2888 C2887 1.383 . S
C2888 C2889 1.377 . S
C2889 H2873 0.930 . S
C2889 C2888 1.377 . S
C2889 C2890 1.379 . S
C2890 H2874 0.931 . S
C2890 C2884 1.383 . S
C2890 C2889 1.379 . S
H2891 C2885 0.959 . S
H2892 C2885 0.961 . S
H2893 C2885 0.960 . S
H2894 C2886 0.930 . S
H2895 C2887 0.929 . S
H2896 C2904 0.929 . S
H2897 C2906 0.930 . S
H2898 C2908 0.930 . S
H2899 C2911 0.929 . S
H2900 C2914 0.930 . S
H2901 C2916 0.960 . S
H2902 C2916 0.960 . S
H2903 C2916 0.960 . S
C2904 H2896 0.929 . S
C2904 C2905 1.377 . S
C2904 C2906 1.384 . S
C2905 C2904 1.377 . S
C2905 C2911 1.390 . S
C2906 H2897 0.930 . S
C2906 C2904 1.384 . S
C2906 C2907 1.372 . S
C2907 C2906 1.372 . S
C2907 C2908 1.400 . S
C2907 C2912 1.490 . S
C2908 H2898 0.930 . S
C2908 C2907 1.400 . S
C2908 C2911 1.386 . S
H2909 C2925 0.930 . S
H2910 C2926 0.931 . S
C2911 H2899 0.929 . S
C2911 C2905 1.390 . S
C2911 C2908 1.386 . S
C2912 C2907 1.490 . S
C2912 C2914 1.395 . S
C2912 C2915 1.403 . S
H2913 C2919 0.930 . S
C2914 H2900 0.930 . S
C2914 C2912 1.395 . S
C2914 C2917 1.403 . S
C2915 C2912 1.403 . S
C2915 C2916 1.524 . S
C2915 C2919 1.400 . S
C2916 H2901 0.960 . S
C2916 H2902 0.960 . S
C2916 H2903 0.960 . S
C2916 C2915 1.524 . S
C2917 C2914 1.403 . S
C2917 C2918 1.392 . S
C2917 C2921 1.495 . S
C2918 C2917 1.392 . S
C2918 C2919 1.385 . S
C2918 C2920 1.478 . S
C2919 H2913 0.930 . S
C2919 C2915 1.400 . S
C2919 C2918 1.385 . S
C2920 C2918 1.478 . S
C2920 C2922 1.381 . S
C2920 C2926 1.383 . S
C2921 C2917 1.495 . S
C2921 H2927 0.959 . S
C2921 H2928 0.961 . S
C2921 H2929 0.960 . S
C2922 C2920 1.381 . S
C2922 C2923 1.394 . S
C2922 H2930 0.930 . S
C2923 C2922 1.394 . S
C2923 C2924 1.383 . S
C2923 H2931 0.929 . S
C2924 C2923 1.383 . S
C2924 C2925 1.377 . S
C2925 H2909 0.930 . S
C2925 C2924 1.377 . S
C2925 C2926 1.379 . S
C2926 H2910 0.931 . S
C2926 C2920 1.383 . S
C2926 C2925 1.379 . S
H2927 C2921 0.959 . S
H2928 C2921 0.961 . S
H2929 C2921 0.960 . S
H2930 C2922 0.930 . S
H2931 C2923 0.929 . S
H2932 C2940 0.929 . S
H2933 C2942 0.930 . S
H2934 C2944 0.930 . S
H2935 C2947 0.929 . S
H2936 C2950 0.930 . S
H2937 C2952 0.960 . S
H2938 C2952 0.960 . S
H2939 C2952 0.960 . S
C2940 H2932 0.929 . S
C2940 C2941 1.377 . S
C2940 C2942 1.384 . S
C2941 C2940 1.377 . S
C2941 C2947 1.390 . S
C2942 H2933 0.930 . S
C2942 C2940 1.384 . S
C2942 C2943 1.372 . S
C2943 C2942 1.372 . S
C2943 C2944 1.400 . S
C2943 C2948 1.490 . S
C2944 H2934 0.930 . S
C2944 C2943 1.400 . S
C2944 C2947 1.386 . S
H2945 C2961 0.930 . S
H2946 C2962 0.931 . S
C2947 H2935 0.929 . S
C2947 C2941 1.390 . S
C2947 C2944 1.386 . S
C2948 C2943 1.490 . S
C2948 C2950 1.395 . S
C2948 C2951 1.403 . S
H2949 C2955 0.930 . S
C2950 H2936 0.930 . S
C2950 C2948 1.395 . S
C2950 C2953 1.403 . S
C2951 C2948 1.403 . S
C2951 C2952 1.524 . S
C2951 C2955 1.400 . S
C2952 H2937 0.960 . S
C2952 H2938 0.960 . S
C2952 H2939 0.960 . S
C2952 C2951 1.524 . S
C2953 C2950 1.403 . S
C2953 C2954 1.392 . S
C2953 C2957 1.495 . S
C2954 C2953 1.392 . S
C2954 C2955 1.385 . S
C2954 C2956 1.478 . S
C2955 H2949 0.930 . S
C2955 C2951 1.400 . S
C2955 C2954 1.385 . S
C2956 C2954 1.478 . S
C2956 C2958 1.381 . S
C2956 C2962 1.383 . S
C2957 C2953 1.495 . S
C2957 H2963 0.959 . S
C2957 H2964 0.961 . S
C2957 H2965 0.960 . S
C2958 C2956 1.381 . S
C2958 C2959 1.394 . S
C2958 H2966 0.930 . S
C2959 C2958 1.394 . S
C2959 C2960 1.383 . S
C2959 H2967 0.929 . S
C2960 C2959 1.383 . S
C2960 C2961 1.377 . S
C2961 H2945 0.930 . S
C2961 C2960 1.377 . S
C2961 C2962 1.379 . S
C2962 H2946 0.931 . S
C2962 C2956 1.383 . S
C2962 C2961 1.379 . S
H2963 C2957 0.959 . S
H2964 C2957 0.961 . S
H2965 C2957 0.960 . S
H2966 C2958 0.930 . S
H2967 C2959 0.929 . S
H2968 C2976 0.929 . S
H2969 C2978 0.930 . S
H2970 C2980 0.930 . S
H2971 C2983 0.929 . S
H2972 C2986 0.930 . S
H2973 C2988 0.960 . S
H2974 C2988 0.960 . S
H2975 C2988 0.960 . S
C2976 H2968 0.929 . S
C2976 C2977 1.377 . S
C2976 C2978 1.384 . S
C2977 C2976 1.377 . S
C2977 C2983 1.390 . S
C2978 H2969 0.930 . S
C2978 C2976 1.384 . S
C2978 C2979 1.372 . S
C2979 C2978 1.372 . S
C2979 C2980 1.400 . S
C2979 C2984 1.490 . S
C2980 H2970 0.930 . S
C2980 C2979 1.400 . S
C2980 C2983 1.386 . S
H2981 C2997 0.930 . S
H2982 C2998 0.931 . S
C2983 H2971 0.929 . S
C2983 C2977 1.390 . S
C2983 C2980 1.386 . S
C2984 C2979 1.490 . S
C2984 C2986 1.395 . S
C2984 C2987 1.403 . S
H2985 C2991 0.930 . S
C2986 H2972 0.930 . S
C2986 C2984 1.395 . S
C2986 C2989 1.403 . S
C2987 C2984 1.403 . S
C2987 C2988 1.524 . S
C2987 C2991 1.400 . S
C2988 H2973 0.960 . S
C2988 H2974 0.960 . S
C2988 H2975 0.960 . S
C2988 C2987 1.524 . S
C2989 C2986 1.403 . S
C2989 C2990 1.392 . S
C2989 C2993 1.495 . S
C2990 C2989 1.392 . S
C2990 C2991 1.385 . S
C2990 C2992 1.478 . S
C2991 H2985 0.930 . S
C2991 C2987 1.400 . S
C2991 C2990 1.385 . S
C2992 C2990 1.478 . S
C2992 C2994 1.381 . S
C2992 C2998 1.383 . S
C2993 C2989 1.495 . S
C2993 H2999 0.959 . S
C2993 H3000 0.961 . S
C2993 H3001 0.960 . S
C2994 C2992 1.381 . S
C2994 C2995 1.394 . S
C2994 H3002 0.930 . S
C2995 C2994 1.394 . S
C2995 C2996 1.383 . S
C2995 H3003 0.929 . S
C2996 C2995 1.383 . S
C2996 C2997 1.377 . S
C2997 H2981 0.930 . S
C2997 C2996 1.377 . S
C2997 C2998 1.379 . S
C2998 H2982 0.931 . S
C2998 C2992 1.383 . S
C2998 C2997 1.379 . S
H2999 C2993 0.959 . S
H3000 C2993 0.961 . S
H3001 C2993 0.960 . S
H3002 C2994 0.930 . S
H3003 C2995 0.929 . S
H3004 C3012 0.929 . S
H3005 C3014 0.930 . S
H3006 C3016 0.930 . S
H3007 C3019 0.929 . S
H3008 C3022 0.930 . S
H3009 C3024 0.960 . S
H3010 C3024 0.960 . S
H3011 C3024 0.960 . S
C3012 H3004 0.929 . S
C3012 C3013 1.377 . S
C3012 C3014 1.384 . S
C3013 C3012 1.377 . S
C3013 C3019 1.390 . S
C3014 H3005 0.930 . S
C3014 C3012 1.384 . S
C3014 C3015 1.372 . S
C3015 C3014 1.372 . S
C3015 C3016 1.400 . S
C3015 C3020 1.490 . S
C3016 H3006 0.930 . S
C3016 C3015 1.400 . S
C3016 C3019 1.386 . S
H3017 C3033 0.930 . S
H3018 C3034 0.931 . S
C3019 H3007 0.929 . S
C3019 C3013 1.390 . S
C3019 C3016 1.386 . S
C3020 C3015 1.490 . S
C3020 C3022 1.395 . S
C3020 C3023 1.403 . S
H3021 C3027 0.930 . S
C3022 H3008 0.930 . S
C3022 C3020 1.395 . S
C3022 C3025 1.403 . S
C3023 C3020 1.403 . S
C3023 C3024 1.524 . S
C3023 C3027 1.400 . S
C3024 H3009 0.960 . S
C3024 H3010 0.960 . S
C3024 H3011 0.960 . S
C3024 C3023 1.524 . S
C3025 C3022 1.403 . S
C3025 C3026 1.392 . S
C3025 C3029 1.495 . S
C3026 C3025 1.392 . S
C3026 C3027 1.385 . S
C3026 C3028 1.478 . S
C3027 H3021 0.930 . S
C3027 C3023 1.400 . S
C3027 C3026 1.385 . S
C3028 C3026 1.478 . S
C3028 C3030 1.381 . S
C3028 C3034 1.383 . S
C3029 C3025 1.495 . S
C3029 H3035 0.959 . S
C3029 H3036 0.961 . S
C3029 H3037 0.960 . S
C3030 C3028 1.381 . S
C3030 C3031 1.394 . S
C3030 H3038 0.930 . S
C3031 C3030 1.394 . S
C3031 C3032 1.383 . S
C3031 H3039 0.929 . S
C3032 C3031 1.383 . S
C3032 C3033 1.377 . S
C3033 H3017 0.930 . S
C3033 C3032 1.377 . S
C3033 C3034 1.379 . S
C3034 H3018 0.931 . S
C3034 C3028 1.383 . S
C3034 C3033 1.379 . S
H3035 C3029 0.959 . S
H3036 C3029 0.961 . S
H3037 C3029 0.960 . S
H3038 C3030 0.930 . S
H3039 C3031 0.929 . S
C745 N347 2.035 . S
C764 N2 2.005 . S
C781 N25 2.030 . S
C800 N278 2.057 . S
C817 N48 2.036 . S
C836 N301 2.050 . S
C853 N324 2.036 . S
C872 N71 2.004 . S
C889 N94 2.034 . S
C908 N209 2.007 . S
C925 N117 2.030 . S
C944 N232 2.027 . S
C961 N255 2.031 . S
C980 N140 2.058 . S
C997 N186 2.038 . S
C1016 N163 2.003 . S
C1033 N370 2.035 . S
C1052 N715 2.005 . S
C1069 N393 2.032 . S
C1088 N646 2.015 . S
C1105 N416 2.039 . S
C1124 N669 2.039 . S
C1141 N692 2.034 . S
C1160 N439 2.008 . S
C1177 N462 2.035 . S
C1196 N577 2.005 . S
C1213 N485 2.039 . S
C1232 N600 2.004 . S
C1249 N623 2.039 . S
C1268 N508 2.004 . S
C1285 N531 2.033 . S
C1304 N554 2.058 . S
C1321 N288 2.122 . S
C1340 N12 2.133 . S
C1357 N35 2.122 . S
C1376 N311 2.126 . S
C1393 N334 2.128 . S
C1412 N58 2.106 . S
C1429 N81 2.122 . S
C1448 N357 2.135 . S
C1465 N104 2.127 . S
C1484 N196 2.131 . S
C1501 N219 2.129 . S
C1520 N127 2.110 . S
C1537 N242 2.124 . S
C1556 N150 2.138 . S
C1573 N265 2.129 . S
C1592 N173 2.106 . S
C1609 N380 2.126 . S
C1628 N656 2.134 . S
C1645 N679 2.129 . S
C1664 N403 2.109 . S
C1681 N426 2.129 . S
C1700 N702 2.117 . S
C1717 N449 2.123 . S
C1736 N725 2.137 . S
C1753 N564 2.123 . S
C1772 N472 2.115 . S
C1789 N495 2.123 . S
C1808 N587 2.117 . S
C1825 N518 2.122 . S
C1844 N610 2.135 . S
C1861 N541 2.129 . S
C1880 N633 2.108 . S
C1897 C7 1.597 . S
C1916 C237 1.583 . S
C1933 C260 1.593 . S
C1952 C30 1.604 . S
C1969 C53 1.592 . S
C1988 C191 1.589 . S
C2005 C214 1.597 . S
C2024 C76 1.580 . S
C2041 C329 1.595 . S
C2060 C99 1.600 . S
C2077 C352 1.594 . S
C2096 C122 1.579 . S
C2113 C283 1.592 . S
C2132 C145 1.591 . S
C2149 C168 1.593 . S
C2168 C306 1.604 . S
C2185 C605 1.592 . S
C2204 C375 1.594 . S
C2221 C398 1.593 . S
C2240 C628 1.604 . S
C2257 C559 1.592 . S
C2276 C421 1.590 . S
C2293 C582 1.592 . S
C2312 C444 1.600 . S
C2329 C467 1.593 . S
C2348 C697 1.587 . S
C2365 C490 1.592 . S
C2384 C720 1.591 . S
C2401 C651 1.592 . S
C2420 C513 1.587 . S
C2437 C674 1.597 . S
C2456 C536 1.593 . S
C2473 C545 1.558 . S
C2492 C16 1.555 . S
C2509 C476 1.559 . S
C2528 C39 1.549 . S
C2545 C499 1.559 . S
C2564 C62 1.533 . S
C2581 C522 1.556 . S
C2600 C85 1.561 . S
C2617 C407 1.558 . S
C2636 C108 1.554 . S
C2653 C131 1.557 . S
C2672 C430 1.557 . S
C2689 C154 1.556 . S
C2708 C453 1.538 . S
C2725 C177 1.559 . S
C2744 C384 1.533 . S
C2761 C200 1.556 . S
C2780 C729 1.546 . S
C2797 C660 1.553 . S
C2816 C223 1.534 . S
C2833 C246 1.556 . S
C2852 C683 1.562 . S
C2869 C269 1.559 . S
C2888 C706 1.567 . S
C2905 C591 1.560 . S
C2924 C292 1.571 . S
C2941 C614 1.552 . S
C2960 C315 1.534 . S
C2977 C338 1.556 . S
C2996 C637 1.546 . S
C3013 C361 1.556 . S
C3032 C568 1.561 . S
