# Generated by pormake.
# Topology ure, (4)-cn, num edge types: 1
# Building blocks:
#     Node 0, Type 0, BuildingBlock: CEKHIL_clean_sbu_0, # of connection points: 4
#     Node 1, Type 0, BuildingBlock: CEKHIL_clean_sbu_0, # of connection points: 4
#     Node 2, Type 0, BuildingBlock: CEKHIL_clean_sbu_0, # of connection points: 4
#     Node 3, Type 0, BuildingBlock: CEKHIL_clean_sbu_0, # of connection points: 4
#     Node 4, Type 0, BuildingBlock: CEKHIL_clean_sbu_0, # of connection points: 4
#     Node 5, Type 0, BuildingBlock: CEKHIL_clean_sbu_0, # of connection points: 4
#     Node 6, Type 0, BuildingBlock: CEKHIL_clean_sbu_0, # of connection points: 4
#     Node 7, Type 0, BuildingBlock: CEKHIL_clean_sbu_0, # of connection points: 4
#     Node 8, Type 0, BuildingBlock: CEKHIL_clean_sbu_0, # of connection points: 4
#     Node 9, Type 0, BuildingBlock: CEKHIL_clean_sbu_0, # of connection points: 4
#     Node 10, Type 0, BuildingBlock: CEKHIL_clean_sbu_0, # of connection points: 4
#     Node 11, Type 0, BuildingBlock: CEKHIL_clean_sbu_0, # of connection points: 4
#     Node 12, Type 0, BuildingBlock: CEKHIL_clean_sbu_0, # of connection points: 4
#     Node 13, Type 0, BuildingBlock: CEKHIL_clean_sbu_0, # of connection points: 4
#     Node 14, Type 0, BuildingBlock: CEKHIL_clean_sbu_0, # of connection points: 4
#     Node 15, Type 0, BuildingBlock: CEKHIL_clean_sbu_0, # of connection points: 4
#     Edge 16, Type (0, 0), BuildingBlock: XUDNAN_clean_linker_2, # of connection points: 2
#     Edge 17, Type (0, 0), BuildingBlock: XUDNAN_clean_linker_2, # of connection points: 2
#     Edge 18, Type (0, 0), BuildingBlock: XUDNAN_clean_linker_2, # of connection points: 2
#     Edge 19, Type (0, 0), BuildingBlock: XUDNAN_clean_linker_2, # of connection points: 2
#     Edge 20, Type (0, 0), BuildingBlock: XUDNAN_clean_linker_2, # of connection points: 2
#     Edge 21, Type (0, 0), BuildingBlock: XUDNAN_clean_linker_2, # of connection points: 2
#     Edge 22, Type (0, 0), BuildingBlock: XUDNAN_clean_linker_2, # of connection points: 2
#     Edge 23, Type (0, 0), BuildingBlock: XUDNAN_clean_linker_2, # of connection points: 2
#     Edge 24, Type (0, 0), BuildingBlock: XUDNAN_clean_linker_2, # of connection points: 2
#     Edge 25, Type (0, 0), BuildingBlock: XUDNAN_clean_linker_2, # of connection points: 2
#     Edge 26, Type (0, 0), BuildingBlock: XUDNAN_clean_linker_2, # of connection points: 2
#     Edge 27, Type (0, 0), BuildingBlock: XUDNAN_clean_linker_2, # of connection points: 2
#     Edge 28, Type (0, 0), BuildingBlock: XUDNAN_clean_linker_2, # of connection points: 2
#     Edge 29, Type (0, 0), BuildingBlock: XUDNAN_clean_linker_2, # of connection points: 2
#     Edge 30, Type (0, 0), BuildingBlock: XUDNAN_clean_linker_2, # of connection points: 2
#     Edge 31, Type (0, 0), BuildingBlock: XUDNAN_clean_linker_2, # of connection points: 2
#     Edge 32, Type (0, 0), BuildingBlock: XUDNAN_clean_linker_2, # of connection points: 2
#     Edge 33, Type (0, 0), BuildingBlock: XUDNAN_clean_linker_2, # of connection points: 2
#     Edge 34, Type (0, 0), BuildingBlock: XUDNAN_clean_linker_2, # of connection points: 2
#     Edge 35, Type (0, 0), BuildingBlock: XUDNAN_clean_linker_2, # of connection points: 2
#     Edge 36, Type (0, 0), BuildingBlock: XUDNAN_clean_linker_2, # of connection points: 2
#     Edge 37, Type (0, 0), BuildingBlock: XUDNAN_clean_linker_2, # of connection points: 2
#     Edge 38, Type (0, 0), BuildingBlock: XUDNAN_clean_linker_2, # of connection points: 2
#     Edge 39, Type (0, 0), BuildingBlock: XUDNAN_clean_linker_2, # of connection points: 2
#     Edge 40, Type (0, 0), BuildingBlock: XUDNAN_clean_linker_2, # of connection points: 2
#     Edge 41, Type (0, 0), BuildingBlock: XUDNAN_clean_linker_2, # of connection points: 2
#     Edge 42, Type (0, 0), BuildingBlock: XUDNAN_clean_linker_2, # of connection points: 2
#     Edge 43, Type (0, 0), BuildingBlock: XUDNAN_clean_linker_2, # of connection points: 2
#     Edge 44, Type (0, 0), BuildingBlock: XUDNAN_clean_linker_2, # of connection points: 2
#     Edge 45, Type (0, 0), BuildingBlock: XUDNAN_clean_linker_2, # of connection points: 2
#     Edge 46, Type (0, 0), BuildingBlock: XUDNAN_clean_linker_2, # of connection points: 2
#     Edge 47, Type (0, 0), BuildingBlock: XUDNAN_clean_linker_2, # of connection points: 2
# Relax obj value: 0.224
# Max RMSD: 0.160
# Mean RMSD: 0.160
data_MOF--net-ure--node1-CEKHIL_clean_sbu_0--edge1-XUDNAN_clean_linker_2
_symmetry_space_group_name_H-M    P1
_symmetry_Int_Tables_number       1
_symmetry_cell_setting            triclinic
loop_
_symmetry_equiv_pos_as_xyz
'x, y, z'
_cell_length_a     33.986309
_cell_length_b     28.90629
_cell_length_c     28.955804
_cell_angle_alpha  90.045908
_cell_angle_beta   90.021906
_cell_angle_gamma 89.953781
loop_
_atom_site_label
_atom_site_type_symbol
_atom_site_fract_x
_atom_site_fract_y
_atom_site_fract_z
_atom_type_partial_charge
Co0 Co 0.2797 0.24085 0.27421 0.0
O1 O 0.22434 0.23164 0.26143 0.0
O2 O 0.27155 0.21635 0.21159 0.0
C3 C 0.27882 0.20675 0.3447 0.0
O4 O 0.3403 0.24542 0.27609 0.0
Co5 Co 0.30423 0.30166 0.35829 0.0
O6 O 0.35861 0.28459 0.33995 0.0
C7 C 0.27301 0.34613 0.27487 0.0
C8 C 0.23405 0.2164 0.22096 0.0
C9 C 0.36701 0.26262 0.30301 0.0
O10 O 0.27604 0.30764 0.25232 0.0
O11 O 0.27794 0.3492 0.31857 0.0
O12 O 0.28241 0.18157 0.30777 0.0
O13 O 0.27285 0.25013 0.33771 0.0
Co14 Co 0.99992 0.02714 0.48565 0.0
O15 O 0.05482 0.01171 0.47528 0.0
O16 O 1.0062 0.96257 0.46513 0.0
C17 C 1.00401 0.09546 0.44702 0.0
O18 O 0.93911 0.03097 0.49278 0.0
Co19 Co 0.97623 0.11857 0.53701 0.0
O20 O 0.92189 0.10118 0.52037 0.0
C21 C 1.00555 0.0374 0.59006 0.0
C22 C 0.04386 0.97066 0.46297 0.0
C23 C 0.91291 0.06117 0.50526 0.0
O24 O 1.00554 0.01088 0.55391 0.0
O25 O 0.99811 0.0808 0.58862 0.0
O26 O 0.99736 0.05752 0.42418 0.0
O27 O 1.00867 0.09048 0.49065 0.0
Co28 Co 0.24844 0.77743 0.78914 0.0
O29 O 0.30413 0.7846 0.77707 0.0
O30 O 0.25843 0.78828 0.72322 0.0
C31 C 0.2477 0.82612 0.85044 0.0
O32 O 0.1875 0.77256 0.78969 0.0
Co33 Co 0.2213 0.7372 0.88446 0.0
O34 O 0.16807 0.75318 0.86161 0.0
C35 C 0.25765 0.67622 0.81495 0.0
C36 C 0.29553 0.79154 0.73409 0.0
C37 C 0.16024 0.76452 0.82003 0.0
O38 O 0.25351 0.70734 0.78317 0.0
O39 O 0.25116 0.68378 0.85781 0.0
O40 O 0.2455 0.84282 0.80891 0.0
O41 O 0.25303 0.78223 0.85308 0.0
Co42 Co 0.53229 0.97569 0.98457 0.0
O43 O 0.47775 0.99485 0.97518 0.0
O44 O 0.52871 0.04137 0.96986 0.0
C45 C 0.52546 0.91119 0.94074 0.0
O46 O 0.59308 0.96999 0.98896 0.0
Co47 Co 0.55798 0.88117 0.02597 0.0
O48 O 0.6112 0.89676 0.00362 0.0
C49 C 0.53019 0.95696 0.08773 0.0
C50 C 0.49088 0.03587 0.96562 0.0
C51 C 0.61986 0.93839 0.99363 0.0
O52 O 0.5278 0.9864 0.05406 0.0
O53 O 0.53932 0.91438 0.08223 0.0
O54 O 0.53315 0.95053 0.92097 0.0
O55 O 0.52211 0.91223 0.98487 0.0
Co56 Co 0.27985 0.77586 0.22513 0.0
O57 O 0.22512 0.7805 0.24482 0.0
O58 O 0.2757 0.78419 0.29197 0.0
C59 C 0.27071 0.82657 0.16629 0.0
O60 O 0.3406 0.77498 0.21858 0.0
Co61 Co 0.30519 0.7479 0.1253 0.0
O62 O 0.35838 0.76809 0.14414 0.0
C63 C 0.28432 0.67542 0.19494 0.0
C64 C 0.23781 0.78801 0.28636 0.0
C65 C 0.36719 0.77362 0.18654 0.0
O66 O 0.27951 0.70498 0.22829 0.0
O67 O 0.29084 0.68721 0.15304 0.0
O68 O 0.27812 0.84201 0.20749 0.0
O69 O 0.26881 0.78247 0.16217 0.0
Co70 Co 0.53705 0.00976 0.51888 0.0
O71 O 0.48239 0.9935 0.53182 0.0
O72 O 0.53308 0.94789 0.54481 0.0
C73 C 0.53311 0.08184 0.54981 0.0
O74 O 0.59784 0.01429 0.5139 0.0
Co75 Co 0.56224 0.0931 0.45732 0.0
O76 O 0.61702 0.07694 0.47343 0.0
C77 C 0.52318 0.01193 0.41642 0.0
C78 C 0.4953 0.95441 0.54789 0.0
C79 C 0.62486 0.04093 0.49693 0.0
O80 O 0.53104 0.98681 0.45233 0.0
O81 O 0.52885 0.0556 0.41502 0.0
O82 O 0.53864 0.04648 0.57685 0.0
O83 O 0.52863 0.072 0.50689 0.0
Co84 Co 0.24653 0.24113 0.74295 0.0
O85 O 0.30232 0.23654 0.75622 0.0
O86 O 0.25583 0.21876 0.80605 0.0
C87 C 0.25126 0.20483 0.67365 0.0
O88 O 0.18526 0.24031 0.74114 0.0
Co89 Co 0.21586 0.29398 0.65618 0.0
O90 O 0.16507 0.26468 0.67121 0.0
C91 C 0.24205 0.34666 0.73872 0.0
C92 C 0.29326 0.22069 0.79665 0.0
C93 C 0.15776 0.2478 0.7109 0.0
O94 O 0.24686 0.30904 0.76235 0.0
O95 O 0.23221 0.34712 0.69604 0.0
O96 O 0.24888 0.18076 0.71136 0.0
O97 O 0.25279 0.24897 0.67903 0.0
Co98 Co 0.99739 0.98131 0.0185 0.0
O99 O 0.05139 0.99938 0.03166 0.0
O100 O 1.00108 0.04731 0.03226 0.0
C101 C 1.00043 0.91814 0.06437 0.0
O102 O 0.93703 0.97561 0.0094 0.0
Co103 Co 0.97576 0.88591 0.9757 0.0
O104 O 0.921 0.90205 0.9925 0.0
C105 C 1.01225 0.95907 0.9181 0.0
C106 C 0.0385 0.04082 0.03958 0.0
C107 C 0.91115 0.94343 1.00238 0.0
O108 O 1.00613 0.99035 0.94936 0.0
O109 O 1.00599 0.91592 0.92468 0.0
O110 O 0.99223 0.95816 0.08242 0.0
O111 O 1.00717 0.91794 0.02076 0.0
Co112 Co 0.77819 0.26087 0.73277 0.0
O113 O 0.72233 0.26918 0.74384 0.0
O114 O 0.76804 0.28065 0.79653 0.0
C115 C 0.77849 0.30051 0.6651 0.0
O116 O 0.8393 0.25684 0.73363 0.0
Co117 Co 0.8082 0.20937 0.64435 0.0
O118 O 0.86031 0.23239 0.66395 0.0
C119 C 0.77484 0.15574 0.72227 0.0
C120 C 0.73092 0.28202 0.78551 0.0
C121 C 0.86724 0.24757 0.70447 0.0
O122 O 0.77348 0.19219 0.74835 0.0
O123 O 0.78465 0.15694 0.67961 0.0
O124 O 0.78043 0.32284 0.70397 0.0
O125 O 0.77405 0.25651 0.66857 0.0
Co126 Co 0.02863 0.53347 0.022 0.0
O127 O 0.97296 0.52186 0.02868 0.0
O128 O 0.01886 0.46845 0.03697 0.0
C129 C 0.02827 0.59796 0.06601 0.0
O130 O 0.0896 0.53343 0.01855 0.0
Co131 Co 0.05779 0.62501 0.97607 0.0
O132 O 0.10996 0.60477 0.99838 0.0
C133 C 0.02477 0.5501 0.91815 0.0
C134 C 0.98169 0.47935 0.03833 0.0
C135 C 0.11722 0.56352 0.01136 0.0
O136 O 0.02419 0.52212 0.95297 0.0
O137 O 0.03435 0.59281 0.92143 0.0
O138 O 0.03042 0.55764 0.08557 0.0
O139 O 0.02394 0.59778 0.02188 0.0
Co140 Co 0.74329 0.73722 0.23123 0.0
O141 O 0.79712 0.72995 0.25297 0.0
O142 O 0.74471 0.72212 0.29689 0.0
C143 C 0.75371 0.6933 0.16732 0.0
O144 O 0.68305 0.7404 0.22185 0.0
Co145 Co 0.72301 0.77878 0.13464 0.0
O146 O 0.66798 0.7614 0.1492 0.0
C147 C 0.7442 0.84033 0.21298 0.0
C148 C 0.78281 0.71916 0.29302 0.0
C149 C 0.65765 0.74915 0.1897 0.0
O150 O 0.74394 0.8068 0.24261 0.0
O151 O 0.74112 0.83457 0.1693 0.0
O152 O 0.74502 0.67345 0.20623 0.0
O153 O 0.75644 0.73754 0.16861 0.0
Co154 Co 0.02383 0.48756 0.49203 0.0
O155 O 0.96866 0.49931 0.48025 0.0
O156 O 0.01474 0.5528 0.47656 0.0
C157 C 0.02617 0.42276 0.44791 0.0
O158 O 0.0845 0.4872 0.50183 0.0
Co159 Co 0.04879 0.39462 0.53988 0.0
O160 O 0.10294 0.41822 0.53168 0.0
C161 C 1.00846 0.46793 0.59293 0.0
C162 C 0.97777 0.54193 0.47181 0.0
C163 C 0.11107 0.4586 0.51686 0.0
O164 O 0.01497 0.49814 0.56087 0.0
O165 O 0.01513 0.42462 0.58792 0.0
O166 O 0.02982 0.46298 0.4284 0.0
O167 O 0.01915 0.42359 0.49142 0.0
Co168 Co 0.49423 0.52318 0.98324 0.0
O169 O 0.54862 0.505 0.97116 0.0
O170 O 0.49795 0.45778 0.96769 0.0
C171 C 0.49653 0.58835 0.93963 0.0
O172 O 0.43373 0.52829 0.99067 0.0
Co173 Co 0.47159 0.6171 0.03015 0.0
O174 O 0.41701 0.59998 0.0138 0.0
C175 C 0.50054 0.53915 0.0872 0.0
C176 C 0.53553 0.46388 0.96174 0.0
C177 C 0.40761 0.55943 1.00061 0.0
O178 O 0.50059 0.51103 0.05234 0.0
O179 O 0.49276 0.58233 0.08424 0.0
O180 O 0.49082 0.54852 0.91997 0.0
O181 O 0.50285 0.58716 0.98339 0.0
Co182 Co 0.78248 0.72853 0.78347 0.0
O183 O 0.72793 0.71455 0.76777 0.0
O184 O 0.77664 0.7155 0.71776 0.0
C185 C 0.7843 0.68255 0.84681 0.0
O186 O 0.84297 0.73872 0.78621 0.0
Co187 Co 0.80582 0.77349 0.87796 0.0
O188 O 0.86051 0.76159 0.85767 0.0
C189 C 0.76549 0.82873 0.80655 0.0
C190 C 0.73953 0.70767 0.72564 0.0
C191 C 0.86945 0.74924 0.81674 0.0
O192 O 0.77254 0.79776 0.77523 0.0
O193 O 0.772 0.82223 0.84955 0.0
O194 O 0.78922 0.66432 0.80618 0.0
O195 O 0.77621 0.7259 0.84725 0.0
Co196 Co 0.74237 0.27594 0.26648 0.0
O197 O 0.79659 0.28681 0.24801 0.0
O198 O 0.74489 0.29954 0.20378 0.0
C199 C 0.74948 0.30967 0.33671 0.0
O200 O 0.68223 0.27083 0.27228 0.0
Co201 Co 0.7191 0.21873 0.35309 0.0
O202 O 0.66447 0.2402 0.34052 0.0
C203 C 0.74822 0.17172 0.26904 0.0
C204 C 0.78288 0.30168 0.2089 0.0
C205 C 0.65586 0.25879 0.30194 0.0
O206 O 0.74487 0.20922 0.24508 0.0
O207 O 0.74401 0.17019 0.31294 0.0
O208 O 0.74221 0.33516 0.3007 0.0
O209 O 0.75317 0.26613 0.3289 0.0
Co210 Co 0.48851 0.48925 0.52262 0.0
O211 O 0.54479 0.49952 0.52751 0.0
O212 O 0.5001 0.54985 0.55011 0.0
C213 C 0.49128 0.41612 0.55152 0.0
O214 O 0.42738 0.49031 0.52463 0.0
Co215 Co 0.45381 0.40892 0.46254 0.0
O216 O 0.40201 0.4301 0.48481 0.0
C217 C 0.48779 0.49151 0.41773 0.0
C218 C 0.53718 0.53916 0.54645 0.0
C219 C 0.39786 0.46628 0.50938 0.0
O220 O 0.48966 0.51394 0.45645 0.0
O221 O 0.47786 0.44901 0.4144 0.0
O222 O 0.49003 0.45122 0.57961 0.0
O223 O 0.49212 0.42663 0.50844 0.0
H224 H 0.23362 0.13871 0.16423 0.0
H225 H 0.16327 0.25662 0.20601 0.0
H226 H 0.10786 0.22799 0.15878 0.0
H227 H 0.19373 0.12579 0.0457 0.0
H228 H 0.1934 0.06349 0.04839 0.0
H229 H 0.22934 0.09582 0.08087 0.0
H230 H 0.20665 0.05524 0.15594 0.0
H231 H 0.17066 0.02291 0.12368 0.0
H232 H 0.15549 0.05763 0.17226 0.0
H233 H 0.05848 0.1848 0.11035 0.0
H234 H 0.01772 0.12801 0.06814 0.0
H235 H 0.11789 0.03516 0.06023 0.0
C236 C 0.20688 0.15901 0.16234 0.0
C237 C 0.20305 0.20051 0.1881 0.0
C238 C 0.16704 0.22513 0.18616 0.0
C239 C 0.13538 0.20913 0.15936 0.0
C240 C 0.1397 0.16784 0.13495 0.0
C241 C 0.17444 0.14287 0.13636 0.0
C242 C 0.16994 0.09748 0.11011 0.0
C243 C 0.19829 0.09555 0.06881 0.0
C244 C 0.17604 0.05587 0.14243 0.0
C245 C 0.12732 0.10084 0.09408 0.0
C246 C 0.11063 0.142 0.10835 0.0
C247 C 0.07135 0.15256 0.09878 0.0
C248 C 0.04837 0.12006 0.07463 0.0
C249 C 0.06442 0.07708 0.06048 0.0
C250 C 0.10467 0.0678 0.07008 0.0
H251 H 0.04405 0.91614 0.38383 0.0
H252 H 0.11256 0.9496 0.5055 0.0
H253 H 0.16677 0.90003 0.47725 0.0
H254 H 0.07974 0.79552 0.36742 0.0
H255 H 0.08189 0.80086 0.30545 0.0
H256 H 0.0463 0.83384 0.33786 0.0
H257 H 0.07281 0.90944 0.30152 0.0
H258 H 0.10844 0.8767 0.26913 0.0
H259 H 0.12442 0.92297 0.30643 0.0
H260 H 0.2158 0.851 0.43346 0.0
H261 H 0.25684 0.81028 0.37586 0.0
H262 H 0.15873 0.81066 0.27996 0.0
C263 C 0.07002 0.91181 0.40506 0.0
C264 C 0.07367 0.9359 0.44756 0.0
C265 C 0.10884 0.93094 0.47332 0.0
C266 C 0.13984 0.90281 0.4575 0.0
C267 C 0.13576 0.88012 0.41522 0.0
C268 C 0.10181 0.88446 0.38914 0.0
C269 C 0.10664 0.85988 0.34289 0.0
C270 C 0.07687 0.82016 0.33814 0.0
C271 C 0.10285 0.8943 0.30262 0.0
C272 C 0.14854 0.84144 0.34695 0.0
C273 C 0.1646 0.85308 0.38921 0.0
C274 C 0.20335 0.84143 0.4004 0.0
C275 C 0.22652 0.81811 0.3674 0.0
C276 C 0.2112 0.80669 0.32332 0.0
C277 C 0.17135 0.81812 0.31348 0.0
H278 H 0.4149 0.96067 0.56432 0.0
H279 H 0.51591 0.87139 0.58623 0.0
H280 H 0.47435 0.8175 0.63064 0.0
H281 H 0.37306 0.94664 0.6757 0.0
H282 H 0.32264 0.9465 0.65637 0.0
H283 H 0.35951 0.97674 0.62354 0.0
H284 H 0.34071 0.92962 0.55079 0.0
H285 H 0.30376 0.89916 0.58343 0.0
H286 H 0.34134 0.8673 0.55307 0.0
H287 H 0.42376 0.77689 0.67905 0.0
H288 H 0.36698 0.75097 0.72559 0.0
H289 H 0.29661 0.86303 0.67028 0.0
C290 C 0.42814 0.92941 0.57784 0.0
C291 C 0.46888 0.92034 0.57143 0.0
C292 C 0.48494 0.87922 0.5903 0.0
C293 C 0.46148 0.84829 0.61567 0.0
C294 C 0.42169 0.85848 0.62182 0.0
C295 C 0.40498 0.89785 0.60319 0.0
C296 C 0.36167 0.90125 0.61645 0.0
C297 C 0.35377 0.9454 0.64469 0.0
C298 C 0.33531 0.8992 0.57336 0.0
C299 C 0.35683 0.85804 0.64599 0.0
C300 C 0.39196 0.83399 0.64861 0.0
C301 C 0.39594 0.79494 0.67649 0.0
C302 C 0.36349 0.78038 0.70278 0.0
C303 C 0.32709 0.80413 0.70068 0.0
C304 C 0.32364 0.8432 0.67135 0.0
H305 H 0.41063 0.03238 0.94778 0.0
H306 H 0.51189 0.12326 0.93875 0.0
H307 H 0.47088 0.18226 0.90023 0.0
H308 H 0.37047 0.05917 0.83838 0.0
H309 H 0.31973 0.0574 0.85639 0.0
H310 H 0.35601 0.02348 0.88651 0.0
H311 H 0.33609 0.06221 0.96361 0.0
H312 H 0.29964 0.09626 0.93374 0.0
H313 H 0.33669 0.12441 0.96832 0.0
H314 H 0.42093 0.22832 0.85547 0.0
H315 H 0.36483 0.25958 0.811 0.0
H316 H 0.29384 0.14196 0.85146 0.0
C317 C 0.42403 0.06503 0.93847 0.0
C318 C 0.4647 0.07307 0.94667 0.0
C319 C 0.48096 0.11614 0.93325 0.0
C320 C 0.45782 0.14997 0.91124 0.0
C321 C 0.41813 0.14069 0.90302 0.0
C322 C 0.40118 0.09946 0.91661 0.0
C323 C 0.35808 0.0977 0.90203 0.0
C324 C 0.35065 0.05703 0.86886 0.0
C325 C 0.33103 0.09499 0.94446 0.0
C326 C 0.35367 0.14399 0.87742 0.0
C327 C 0.3888 0.16813 0.87842 0.0
C328 C 0.39312 0.21011 0.85526 0.0
C329 C 0.36105 0.22766 0.83006 0.0
C330 C 0.32466 0.20388 0.82854 0.0
C331 C 0.32087 0.16169 0.85316 0.0
H332 H 0.73108 0.3591 0.84262 0.0
H333 H 0.65856 0.2444 0.79758 0.0
H334 H 0.6028 0.27512 0.84306 0.0
H335 H 0.68868 0.37342 0.95965 0.0
H336 H 0.69019 0.4357 0.95716 0.0
H337 H 0.72596 0.40198 0.92582 0.0
H338 H 0.70629 0.44365 0.85015 0.0
H339 H 0.67046 0.47737 0.88124 0.0
H340 H 0.65552 0.4434 0.83205 0.0
H341 H 0.55366 0.31996 0.89035 0.0
H342 H 0.51357 0.37789 0.9317 0.0
H343 H 0.6157 0.46718 0.94311 0.0
C344 C 0.70375 0.33989 0.84347 0.0
C345 C 0.69944 0.29864 0.81737 0.0
C346 C 0.66271 0.27557 0.8178 0.0
C347 C 0.63085 0.29281 0.84358 0.0
C348 C 0.63573 0.33382 0.86836 0.0
C349 C 0.67116 0.35734 0.86831 0.0
C350 C 0.66729 0.40285 0.89455 0.0
C351 C 0.69466 0.40351 0.93681 0.0
C352 C 0.67537 0.44426 0.86259 0.0
C353 C 0.62422 0.40126 0.9091 0.0
C354 C 0.60679 0.3608 0.89408 0.0
C355 C 0.5671 0.35167 0.90242 0.0
C356 C 0.5445 0.38487 0.92609 0.0
C357 C 0.56126 0.42722 0.94101 0.0
C358 C 0.60191 0.4351 0.93261 0.0
H359 H 0.98098 0.41764 0.11111 0.0
H360 H 0.91022 0.46995 0.99811 0.0
H361 H 0.8535 0.42422 0.02563 0.0
H362 H 0.93589 0.3005 0.11916 0.0
H363 H 0.93725 0.30038 0.18139 0.0
H364 H 0.97397 0.33176 0.14927 0.0
H365 H 0.95619 0.40642 0.19412 0.0
H366 H 0.91934 0.37536 0.22614 0.0
H367 H 0.90597 0.42655 0.19427 0.0
H368 H 0.80292 0.3779 0.06835 0.0
H369 H 0.7614 0.33654 0.12472 0.0
H370 H 0.86321 0.31644 0.21299 0.0
C371 C 0.95388 0.41814 0.09144 0.0
C372 C 0.95019 0.44646 0.05179 0.0
C373 C 0.91379 0.44791 0.02808 0.0
C374 C 0.88141 0.42205 0.04349 0.0
C375 C 0.88559 0.39525 0.0832 0.0
C376 C 0.92085 0.39315 0.10702 0.0
C377 C 0.91617 0.36523 0.15121 0.0
C378 C 0.94238 0.32189 0.15017 0.0
C379 C 0.92493 0.39519 0.19395 0.0
C380 C 0.87281 0.35246 0.14866 0.0
C381 C 0.8559 0.36971 0.10884 0.0
C382 C 0.81594 0.36391 0.09947 0.0
C383 C 0.79252 0.34033 0.13177 0.0
C384 C 0.8089 0.32296 0.1733 0.0
C385 C 0.84977 0.32884 0.18143 0.0
H386 H 0.97827 0.60107 0.39672 0.0
H387 H 0.90616 0.55448 0.51084 0.0
H388 H 0.85039 0.60094 0.48151 0.0
H389 H 0.93591 0.71897 0.38441 0.0
H390 H 0.93728 0.71699 0.32221 0.0
H391 H 0.97318 0.68534 0.35543 0.0
H392 H 0.95352 0.60989 0.31311 0.0
H393 H 0.91754 0.64124 0.27991 0.0
H394 H 0.9028 0.59168 0.31343 0.0
H395 H 0.80075 0.64811 0.43699 0.0
H396 H 0.76034 0.68899 0.37893 0.0
H397 H 0.86293 0.70252 0.29083 0.0
C398 C 0.95109 0.60196 0.41621 0.0
C399 C 0.94682 0.57514 0.45682 0.0
C400 C 0.91025 0.57543 0.4802 0.0
C401 C 0.87839 0.60172 0.46374 0.0
C402 C 0.88316 0.62716 0.42322 0.0
C403 C 0.91854 0.62736 0.39955 0.0
C404 C 0.91455 0.65399 0.35446 0.0
C405 C 0.94185 0.69634 0.35413 0.0
C406 C 0.92257 0.62231 0.31277 0.0
C407 C 0.87149 0.66846 0.35642 0.0
C408 C 0.85407 0.65302 0.39664 0.0
C409 C 0.81421 0.66067 0.40554 0.0
C410 C 0.79142 0.68406 0.37232 0.0
C411 C 0.80829 0.69943 0.33031 0.0
C412 C 0.84909 0.69184 0.32276 0.0
H413 H 0.5401 0.59334 0.62574 0.0
H414 H 0.60886 0.55099 0.50696 0.0
H415 H 0.66594 0.59459 0.53688 0.0
H416 H 0.58411 0.70938 0.64149 0.0
H417 H 0.5843 0.70531 0.70361 0.0
H418 H 0.5473 0.67527 0.67058 0.0
H419 H 0.56737 0.59815 0.70944 0.0
H420 H 0.60438 0.62798 0.74249 0.0
H421 H 0.61792 0.57939 0.7068 0.0
H422 H 0.71677 0.64015 0.58091 0.0
H423 H 0.75883 0.67969 0.63814 0.0
H424 H 0.65948 0.68941 0.73174 0.0
C425 C 0.56692 0.59424 0.6056 0.0
C426 C 0.56976 0.56938 0.56345 0.0
C427 C 0.60583 0.57008 0.53898 0.0
C428 C 0.63844 0.59485 0.55571 0.0
C429 C 0.63501 0.61842 0.59758 0.0
C430 C 0.60027 0.6181 0.62247 0.0
C431 C 0.60566 0.64315 0.66837 0.0
C432 C 0.57874 0.68581 0.67116 0.0
C433 C 0.59841 0.61019 0.70918 0.0
C434 C 0.6488 0.65721 0.66547 0.0
C435 C 0.66493 0.64312 0.62399 0.0
C436 C 0.70437 0.65143 0.61344 0.0
C437 C 0.7281 0.67408 0.64624 0.0
C438 C 0.7127 0.68793 0.68959 0.0
C439 C 0.67226 0.6796 0.69892 0.0
H440 H 0.22057 0.21728 0.40636 0.0
H441 H 0.33563 0.15568 0.38921 0.0
H442 H 0.33709 0.13629 0.47296 0.0
H443 H 0.23245 0.272 0.50728 0.0
H444 H 0.18459 0.25861 0.53058 0.0
H445 H 0.19188 0.25962 0.4692 0.0
H446 H 0.16711 0.17181 0.4634 0.0
H447 H 0.15797 0.17585 0.52497 0.0
H448 H 0.18836 0.13029 0.502 0.0
H449 H 0.32856 0.13425 0.56146 0.0
H450 H 0.31229 0.15175 0.64326 0.0
H451 H 0.20311 0.21534 0.59997 0.0
C452 C 0.24558 0.19859 0.42017 0.0
C453 C 0.27788 0.18768 0.39182 0.0
C454 C 0.31036 0.16359 0.4106 0.0
C455 C 0.31137 0.15253 0.45803 0.0
C456 C 0.2792 0.16486 0.48556 0.0
C457 C 0.24663 0.1866 0.46688 0.0
C458 C 0.21667 0.19849 0.50352 0.0
C459 C 0.20579 0.25023 0.5026 0.0
C460 C 0.18029 0.16739 0.49821 0.0
C461 C 0.23926 0.18555 0.54646 0.0
C462 C 0.27446 0.16399 0.53562 0.0
C463 C 0.30075 0.15032 0.57011 0.0
C464 C 0.29123 0.16014 0.61644 0.0
C465 C 0.25624 0.18425 0.62753 0.0
C466 C 0.22971 0.1962 0.59222 0.0
H467 H 0.98895 0.03359 0.86504 0.0
H468 H 0.06121 0.90988 0.86316 0.0
H469 H 0.06972 0.91746 0.77906 0.0
H470 H 0.93779 0.00946 0.76464 0.0
H471 H 0.93526 0.06795 0.74335 0.0
H472 H 0.93929 0.05746 0.8044 0.0
H473 H 1.00184 0.10863 0.80843 0.0
H474 H 0.99749 0.12002 0.74748 0.0
H475 H 0.04257 0.09654 0.77041 0.0
H476 H 0.063 0.9321 0.6936 0.0
H477 H 0.04768 0.95903 0.61415 0.0
H478 H 0.98069 0.07316 0.67197 0.0
C479 C 1.00791 0.00937 0.84715 0.0
C480 C 0.02477 0.97148 0.87072 0.0
C481 C 0.04826 0.93941 0.84581 0.0
C482 C 0.05318 0.94329 0.79796 0.0
C483 C 0.03466 0.97967 0.77528 0.0
C484 C 1.01311 0.01273 0.79908 0.0
C485 C 0.99412 0.04657 0.76589 0.0
C486 C 0.94895 0.04525 0.76982 0.0
C487 C 1.00996 0.09584 0.7735 0.0
C488 C 1.00786 0.02686 0.72009 0.0
C489 C 0.03111 0.98823 0.72606 0.0
C490 C 0.04535 0.96284 0.68844 0.0
C491 C 0.03627 0.97806 0.64347 0.0
C492 C 0.01339 0.01837 0.63674 0.0
C493 C 0.99886 0.04259 0.67579 0.0
H494 H 0.19446 0.82061 0.91882 0.0
H495 H 0.30148 0.8901 0.87829 0.0
H496 H 0.31142 0.91635 0.95896 0.0
H497 H 0.16718 0.90713 0.01584 0.0
H498 H 0.14832 0.86126 0.05127 0.0
H499 H 0.14306 0.85835 0.98936 0.0
H500 H 0.17731 0.77918 0.9867 0.0
H501 H 0.1831 0.77936 0.04808 0.0
H502 H 0.22564 0.77255 0.01166 0.0
H503 H 0.31867 0.91565 0.0458 0.0
H504 H 0.3212 0.88966 0.12743 0.0
H505 H 0.20827 0.82311 0.11069 0.0
C506 C 0.21871 0.84355 0.92665 0.0
C507 C 0.24674 0.85431 0.89263 0.0
C508 C 0.27909 0.88283 0.9039 0.0
C509 C 0.28499 0.89768 0.94967 0.0
C510 C 0.25773 0.88446 0.9833 0.0
C511 C 0.2246 0.85897 0.9719 0.0
C512 C 0.20254 0.84357 0.01449 0.0
C513 C 0.16292 0.86904 0.01793 0.0
C514 C 0.19689 0.79058 0.01524 0.0
C515 C 0.23059 0.8598 0.0517 0.0
C516 C 0.2616 0.88484 0.03343 0.0
C517 C 0.29382 0.89768 0.06072 0.0
C518 C 0.29503 0.88307 0.10712 0.0
C519 C 0.26443 0.8555 0.12522 0.0
C520 C 0.23133 0.84547 0.09771 0.0
H521 H 0.55722 0.9457 0.36088 0.0
H522 H 0.45796 0.03906 0.37182 0.0
H523 H 0.44696 0.0335 0.28794 0.0
H524 H 0.59659 0.9876 0.26365 0.0
H525 H 0.6101 0.93376 0.23644 0.0
H526 H 0.60586 0.93684 0.29821 0.0
H527 H 0.55537 0.86946 0.29724 0.0
H528 H 0.56053 0.86584 0.2354 0.0
H529 H 0.51255 0.87344 0.2607 0.0
H530 H 0.45596 0.03197 0.20171 0.0
H531 H 0.47506 0.01929 0.11984 0.0
H532 H 0.56609 0.92419 0.16482 0.0
C533 C 0.53171 0.96246 0.34595 0.0
C534 C 0.50798 0.99215 0.3729 0.0
C535 C 0.47593 0.0154 0.35183 0.0
C536 C 0.46971 0.01287 0.30409 0.0
C537 C 0.4953 0.98607 0.27782 0.0
C538 C 0.52469 0.95969 0.29809 0.0
C539 C 0.54937 0.93585 0.26144 0.0
C540 C 0.59305 0.94939 0.26522 0.0
C541 C 0.54413 0.88304 0.26385 0.0
C542 C 0.53086 0.95539 0.21793 0.0
C543 C 0.49964 0.98418 0.22796 0.0
C544 C 0.47976 0.00854 0.19331 0.0
C545 C 0.49111 1.00178 0.14701 0.0
C546 C 0.52187 0.97075 0.13601 0.0
C547 C 0.54217 0.94789 0.17216 0.0
H548 H 0.4282 0.31519 0.33556 0.0
H549 H 0.40264 0.20096 0.243 0.0
H550 H 0.47392 0.19289 0.22658 0.0
H551 H 0.51064 0.3628 0.26589 0.0
H552 H 0.53771 0.38008 0.31655 0.0
H553 H 0.48471 0.37947 0.31757 0.0
H554 H 0.48561 0.32486 0.38867 0.0
H555 H 0.53843 0.32697 0.38787 0.0
H556 H 0.51363 0.27179 0.38561 0.0
H557 H 0.54902 0.19432 0.2246 0.0
H558 H 0.62045 0.20268 0.23975 0.0
H559 H 0.59654 0.31458 0.33518 0.0
C560 C 0.43742 0.28858 0.31154 0.0
C561 C 0.40959 0.25846 0.29078 0.0
C562 C 0.42318 0.2245 0.25928 0.0
C563 C 0.46367 0.21978 0.24967 0.0
C564 C 0.49024 0.24982 0.27115 0.0
C565 C 0.47752 0.28383 0.30116 0.0
C566 C 0.51195 0.31076 0.32107 0.0
C567 C 0.5112 0.36125 0.30426 0.0
C568 C 0.51238 0.3084 0.374 0.0
C569 C 0.5463 0.28451 0.30025 0.0
C570 C 0.53317 0.25043 0.27035 0.0
C571 C 0.55948 0.22114 0.24761 0.0
C572 C 0.59998 0.22618 0.25632 0.0
C573 C 0.61385 0.25952 0.28821 0.0
C574 C 0.58665 0.28923 0.31019 0.0
H575 H 0.06995 0.3516 0.47556 0.0
H576 H 0.98678 0.39231 0.37024 0.0
H577 H 0.97806 0.30965 0.34813 0.0
H578 H 0.11254 0.247 0.4179 0.0
H579 H 0.11398 0.21872 0.47332 0.0
H580 H 0.12002 0.28042 0.46988 0.0
H581 H 0.06326 0.28822 0.52915 0.0
H582 H 0.05702 0.22666 0.53055 0.0
H583 H 0.01592 0.26329 0.51602 0.0
H584 H 0.9705 0.21908 0.34886 0.0
H585 H 0.96624 0.13592 0.37155 0.0
H586 H 0.05333 0.16 0.47805 0.0
C587 C 0.0512 0.34331 0.44649 0.0
C588 C 0.02964 0.37801 0.42403 0.0
C589 C 1.00447 0.36601 0.38694 0.0
C590 C 0.9991 0.31913 0.37455 0.0
C591 C 0.01936 0.28517 0.39952 0.0
C592 C 0.04528 0.29728 0.43438 0.0
C593 C 0.05975 0.25582 0.46064 0.0
C594 C 0.1043 0.25022 0.45493 0.0
C595 C 0.04823 0.25869 0.51208 0.0
C596 C 0.03761 0.21801 0.43612 0.0
C597 C 0.01457 0.23488 0.40056 0.0
C598 C 0.98911 0.20563 0.37606 0.0
C599 C 0.98688 0.15849 0.38898 0.0
C600 C 1.00953 0.14174 0.42643 0.0
C601 C 0.03574 0.17182 0.44913 0.0
H602 H 0.93137 0.75076 0.877 0.0
H603 H 0.90553 0.7468 0.73033 0.0
H604 H 0.97716 0.75177 0.71351 0.0
H605 H 1.0089 0.83215 0.87274 0.0
H606 H 0.03734 0.80437 0.91738 0.0
H607 H 0.9846 0.79898 0.91705 0.0
H608 H 0.99077 0.70945 0.91654 0.0
H609 H 0.04353 0.71462 0.91744 0.0
H610 H 0.01985 0.68172 0.87241 0.0
H611 H 0.05426 0.76059 0.7143 0.0
H612 H 0.1256 0.76618 0.7327 0.0
H613 H 0.09731 0.76438 0.87879 0.0
C614 C 0.94048 0.7508 0.84116 0.0
C615 C 0.91242 0.74862 0.80499 0.0
C616 C 0.92621 0.74832 0.75874 0.0
C617 C 0.96693 0.75136 0.74889 0.0
C618 C 0.99363 0.7544 0.78563 0.0
C619 C 0.98066 0.75362 0.83086 0.0
C620 C 0.01457 0.75699 0.8646 0.0
C621 C 1.01113 0.80072 0.89471 0.0
C622 C 0.01734 0.71309 0.89449 0.0
C623 C 0.0489 0.76041 0.83154 0.0
C624 C 0.03664 0.75891 0.78606 0.0
C625 C 0.06391 0.76163 0.7499 0.0
C626 C 0.10446 0.76511 0.76064 0.0
C627 C 0.11749 0.7657 0.8072 0.0
C628 C 0.08884 0.76387 0.84273 0.0
H629 H 0.4499 0.66052 0.96055 0.0
H630 H 0.54255 0.61768 0.86771 0.0
H631 H 0.55246 0.69946 0.84411 0.0
H632 H 0.41281 0.7628 0.88891 0.0
H633 H 0.4036 0.79522 0.94101 0.0
H634 H 0.39775 0.73323 0.94076 0.0
H635 H 0.44616 0.72685 0.00973 0.0
H636 H 0.45221 0.78839 0.01005 0.0
H637 H 0.49472 0.75151 0.00455 0.0
H638 H 0.5618 0.78776 0.84538 0.0
H639 H 0.56767 0.8701 0.8698 0.0
H640 H 0.46742 0.85252 0.96006 0.0
C641 C 0.47093 0.66814 0.93363 0.0
C642 C 0.49498 0.63305 0.91532 0.0
C643 C 0.52315 0.64419 0.88117 0.0
C644 C 0.52903 0.69057 0.86779 0.0
C645 C 0.50589 0.72497 0.88828 0.0
C646 C 0.4767 0.71387 0.91976 0.0
C647 C 0.45901 0.75657 0.94152 0.0
C648 C 0.41573 0.76229 0.92717 0.0
C649 C 0.46333 0.75575 0.99455 0.0
C650 C 0.48449 0.79344 0.91995 0.0
C651 C 0.51091 0.77512 0.88853 0.0
C652 C 0.54044 0.80258 0.86883 0.0
C653 C 0.54357 0.8493 0.88266 0.0
C654 C 0.51767 0.86742 0.9163 0.0
C655 C 0.48714 0.83951 0.93366 0.0
H656 H 0.59616 0.75481 0.12838 0.0
H657 H 0.62089 0.74528 0.27508 0.0
H658 H 0.5496 0.75333 0.29166 0.0
H659 H 0.52025 0.83951 0.13548 0.0
H660 H 0.49145 0.81425 0.08965 0.0
H661 H 0.54407 0.80712 0.09013 0.0
H662 H 0.53489 0.7186 0.08627 0.0
H663 H 0.4821 0.72395 0.0881 0.0
H664 H 0.50713 0.68951 0.13065 0.0
H665 H 0.47343 0.76449 0.29115 0.0
H666 H 0.40226 0.772 0.27328 0.0
H667 H 0.42999 0.77453 0.12701 0.0
C668 C 0.5868 0.75405 0.16412 0.0
C669 C 0.6145 0.74922 0.20038 0.0
C670 C 0.60047 0.74847 0.24655 0.0
C671 C 0.55994 0.75334 0.25632 0.0
C672 C 0.53361 0.75879 0.21961 0.0
C673 C 0.54669 0.75873 0.17442 0.0
C674 C 0.51287 0.76445 0.14085 0.0
C675 C 0.51745 0.80897 0.11232 0.0
C676 C 0.50906 0.7216 0.10961 0.0
C677 C 0.47855 0.76812 0.17396 0.0
C678 C 0.49081 0.76492 0.21933 0.0
C679 C 0.46372 0.767 0.25564 0.0
C680 C 0.42326 0.77155 0.24517 0.0
C681 C 0.41009 0.774 0.19871 0.0
C682 C 0.4386 0.77287 0.16298 0.0
H683 H 0.52992 0.15545 0.4938 0.0
H684 H 0.52928 0.11929 0.63907 0.0
H685 H 0.51822 0.20248 0.65877 0.0
H686 H 0.57932 0.26123 0.50384 0.0
H687 H 0.55113 0.29063 0.46049 0.0
H688 H 0.55894 0.22916 0.45607 0.0
H689 H 0.48558 0.21211 0.45264 0.0
H690 H 0.47285 0.27245 0.45645 0.0
H691 H 0.45333 0.23232 0.49779 0.0
H692 H 0.50508 0.29421 0.6591 0.0
H693 H 0.49326 0.37735 0.64012 0.0
H694 H 0.50008 0.34379 0.4944 0.0
C695 C 0.52794 0.16451 0.53001 0.0
C696 C 0.5306 0.13078 0.56488 0.0
C697 C 0.52762 0.14472 0.61171 0.0
C698 C 0.52115 0.19182 0.6231 0.0
C699 C 0.51772 0.22407 0.58719 0.0
C700 C 0.52123 0.21033 0.54166 0.0
C701 C 0.51559 0.2496 0.50845 0.0
C702 C 0.55344 0.2581 0.48052 0.0
C703 C 0.47978 0.24108 0.47695 0.0
C704 C 0.50792 0.28827 0.54186 0.0
C705 C 0.50944 0.27384 0.58732 0.0
C706 C 0.50378 0.3054 0.62348 0.0
C707 C 0.49692 0.35248 0.61247 0.0
C708 C 0.49546 0.36709 0.56575 0.0
C709 C 0.50067 0.3341 0.53052 0.0
H710 H 0.09658 0.24204 0.65015 0.0
H711 H 0.12161 0.24014 0.79699 0.0
H712 H 0.04971 0.2408 0.81318 0.0
H713 H 0.01659 0.32058 0.65482 0.0
H714 H 0.9907 0.29206 0.60853 0.0
H715 H 0.04355 0.28911 0.61149 0.0
H716 H 0.03876 0.19839 0.61005 0.0
H717 H 0.98598 0.203 0.60741 0.0
H718 H 1.0089 0.1698 0.65274 0.0
H719 H 0.9722 0.2471 0.81154 0.0
H720 H 0.90092 0.25103 0.79223 0.0
H721 H 0.93053 0.25036 0.64655 0.0
C722 C 0.08723 0.24118 0.68589 0.0
C723 C 0.11512 0.24102 0.72229 0.0
C724 C 0.10106 0.23983 0.76841 0.0
C725 C 0.06017 0.24056 0.77789 0.0
C726 C 0.03361 0.24232 0.74091 0.0
C727 C 0.04693 0.24204 0.69582 0.0
C728 C 0.01327 0.24505 0.66174 0.0
C729 C 0.01619 0.28931 0.63242 0.0
C730 C 1.01162 0.20148 0.63119 0.0
C731 C 0.97861 0.24729 0.69438 0.0
C732 C 0.9905 0.24584 0.74001 0.0
C733 C 0.96286 0.24802 0.77583 0.0
C734 C 0.92235 0.25066 0.76458 0.0
C735 C 0.90975 0.25097 0.71786 0.0
C736 C 0.93872 0.24996 0.6827 0.0
H737 H 0.06195 0.86127 0.05857 0.0
H738 H 0.94879 0.87691 0.12497 0.0
H739 H 0.9514 0.79462 0.14961 0.0
H740 H 0.04566 0.76347 0.00716 0.0
H741 H 0.09356 0.73747 0.01397 0.0
H742 H 0.0887 0.7991 0.01489 0.0
H743 H 0.12191 0.80252 0.09648 0.0
H744 H 0.12778 0.74056 0.09391 0.0
H745 H 0.103 0.76696 0.14221 0.0
H746 H 0.96021 0.70734 0.15132 0.0
H747 H 0.97274 0.62613 0.1277 0.0
H748 H 0.07871 0.66902 0.05729 0.0
C749 C 0.03867 0.8478 0.08029 0.0
C750 C 1.00551 0.8751 0.09067 0.0
C751 C 0.97488 0.85656 0.11785 0.0
C752 C 0.97618 0.80989 0.13182 0.0
C753 C 1.00863 0.78295 0.1189 0.0
C754 C 0.03972 0.80171 0.09438 0.0
C755 C 0.06825 0.76488 0.07833 0.0
C756 C 0.07432 0.76633 0.0255 0.0
C757 C 0.10757 0.76898 0.10423 0.0
C758 C 0.04651 0.72203 0.09339 0.0
C759 C 1.01314 0.73286 0.11864 0.0
C760 C 0.98683 0.69856 0.13277 0.0
C761 C 0.99422 0.65254 0.11945 0.0
C762 C 0.02709 0.64173 0.09156 0.0
C763 C 0.05398 0.67658 0.07959 0.0
H764 H 0.23423 0.42507 0.30146 0.0
H765 H 0.30824 0.36805 0.19346 0.0
H766 H 0.31815 0.44654 0.1619 0.0
H767 H 0.18883 0.51795 0.22589 0.0
H768 H 0.18674 0.55828 0.27335 0.0
H769 H 0.18191 0.4971 0.28398 0.0
H770 H 0.23922 0.50178 0.34174 0.0
H771 H 0.24545 0.56262 0.33076 0.0
H772 H 0.28641 0.52353 0.32352 0.0
H773 H 0.32864 0.53037 0.15021 0.0
H774 H 0.32929 0.61489 0.1478 0.0
H775 H 0.24439 0.62043 0.25987 0.0
C776 C 0.25135 0.42903 0.27016 0.0
C777 C 0.27024 0.39045 0.24957 0.0
C778 C 0.29294 0.39692 0.20918 0.0
C779 C 0.29902 0.44145 0.19132 0.0
C780 C 0.28132 0.4789 0.21357 0.0
C781 C 0.25685 0.47316 0.2511 0.0
C782 C 0.24203 0.5196 0.26875 0.0
C783 C 0.19721 0.52346 0.26262 0.0
C784 C 0.25406 0.52737 0.31921 0.0
C785 C 0.26353 0.55253 0.23678 0.0
C786 C 0.28602 0.52794 0.20534 0.0
C787 C 0.31029 0.5499 0.17376 0.0
C788 C 0.31045 0.59815 0.17291 0.0
C789 C 0.28615 0.62462 0.203 0.0
C790 C 0.26299 0.60136 0.23621 0.0
H791 H 0.79515 0.07193 0.68551 0.0
H792 H 0.73419 0.13378 0.80201 0.0
H793 H 0.7184 0.05528 0.83114 0.0
H794 H 0.73048 0.97385 0.66859 0.0
H795 H 0.76925 0.93299 0.6564 0.0
H796 H 0.77531 0.99271 0.64136 0.0
H797 H 0.83889 1.00027 0.68856 0.0
H798 H 0.8356 0.93965 0.702 0.0
H799 H 0.83951 0.98154 0.74794 0.0
H800 H 0.7109 0.96994 0.84819 0.0
H801 H 0.71872 0.88567 0.85711 0.0
H802 H 0.78638 0.88001 0.73028 0.0
C803 C 0.77798 0.06922 0.71688 0.0
C804 C 0.76555 0.10924 0.74129 0.0
C805 C 0.74399 0.10379 0.78273 0.0
C806 C 0.73464 0.05935 0.79927 0.0
C807 C 0.74714 0.02079 0.77402 0.0
C808 C 0.76866 0.02536 0.73389 0.0
C809 C 0.78133 0.97861 0.71508 0.0
C810 C 0.76293 0.96903 0.66757 0.0
C811 C 0.8265 0.9748 0.71333 0.0
C812 C 0.76401 0.94685 0.75117 0.0
C813 C 0.74383 0.97181 0.78444 0.0
C814 C 0.72641 0.9502 0.82214 0.0
C815 C 0.73091 0.90223 0.82677 0.0
C816 C 0.75293 0.87619 0.79414 0.0
C817 C 0.76866 0.89873 0.75513 0.0
H818 H 0.34605 0.62023 0.00629 0.0
H819 H 0.37117 0.47363 0.99308 0.0
H820 H 0.29956 0.45694 0.99751 0.0
H821 H 0.26702 0.61078 0.08744 0.0
H822 H 0.24018 0.65813 0.06211 0.0
H823 H 0.29303 0.65648 0.05806 0.0
H824 H 0.28722 0.66292 0.96853 0.0
H825 H 0.23442 0.66376 0.97308 0.0
H826 H 0.25827 0.62088 0.93752 0.0
H827 H 0.22276 0.45757 0.00581 0.0
H828 H 0.15138 0.47601 0.01035 0.0
H829 H 0.17991 0.62205 0.01821 0.0
C830 C 0.33678 0.58446 0.00417 0.0
C831 C 0.3646 0.54824 0.99944 0.0
C832 C 0.35064 0.50209 0.99653 0.0
C833 C 0.30995 0.49228 0.99929 0.0
C834 C 0.28347 0.52898 0.0048 0.0
C835 C 0.2966 0.57418 0.00674 0.0
C836 C 0.2628 0.60788 0.012 0.0
C837 C 0.26598 0.63492 0.05761 0.0
C838 C 0.26054 0.64078 0.97031 0.0
C839 C 0.22836 0.57481 0.01289 0.0
C840 C 0.2405 0.52935 0.00896 0.0
C841 C 0.21316 0.49314 0.00887 0.0
C842 C 0.17261 0.50387 0.01182 0.0
C843 C 0.15973 0.55047 0.01462 0.0
C844 C 0.1884 0.58599 0.01593 0.0
H845 H 0.80243 0.10149 0.27584 0.0
H846 H 0.69044 0.13931 0.21493 0.0
H847 H 0.6768 0.05706 0.19856 0.0
H848 H 0.82205 1.00397 0.18925 0.0
H849 H 0.84665 0.96977 0.23257 0.0
H850 H 0.8491 0.03201 0.23494 0.0
H851 H 0.82257 0.02881 0.31841 0.0
H852 H 0.8177 0.96682 0.31591 0.0
H853 H 0.77547 1.00221 0.32917 0.0
H854 H 0.67014 0.97228 0.20173 0.0
H855 H 0.67786 0.88761 0.20225 0.0
H856 H 0.79756 0.90211 0.25214 0.0
C857 C 0.776 0.09243 0.257 0.0
C858 C 0.74769 0.12656 0.24577 0.0
C859 C 0.71283 0.11369 0.22255 0.0
C860 C 0.70463 0.06706 0.21376 0.0
C861 C 0.73221 0.034 0.22718 0.0
C862 C 0.76804 0.04601 0.24619 0.0
C863 C 0.7925 1.00313 0.25657 0.0
C864 C 0.82978 1.00216 0.22653 0.0
C865 C 0.80271 1.00008 0.30811 0.0
C866 C 0.76394 0.96522 0.24263 0.0
C867 C 0.72918 0.98419 0.22646 0.0
C868 C 0.6974 0.95695 0.21353 0.0
C869 C 0.7019 0.90895 0.2146 0.0
C870 C 0.73808 0.8885 0.22772 0.0
C871 C 0.76936 0.9169 0.24288 0.0
H872 H 0.84977 0.88184 0.00368 0.0
H873 H 0.87416 0.02915 1.00233 0.0
H874 H 0.80245 0.04502 0.99795 0.0
H875 H 0.77097 0.88353 0.92381 0.0
H876 H 0.74293 0.83938 0.95291 0.0
H877 H 0.79576 0.83999 0.95751 0.0
H878 H 0.79126 0.84327 0.04712 0.0
H879 H 0.73848 0.8409 0.04253 0.0
H880 H 0.76158 0.88739 0.07396 0.0
H881 H 0.72594 0.04357 0.99127 0.0
H882 H 0.65466 0.02514 0.98841 0.0
H883 H 0.68283 0.8788 0.99422 0.0
C884 C 0.84028 0.9176 1.00271 0.0
C885 C 0.868 0.95425 0.00326 0.0
C886 C 0.85377 1.00039 1.00213 0.0
C887 C 0.81299 0.00972 0.99943 0.0
C888 C 0.78662 0.97259 0.99818 0.0
C889 C 0.79993 0.92745 1.00029 0.0
C890 C 0.7661 0.89338 0.99859 0.0
C891 C 0.76911 0.86221 0.95566 0.0
C892 C 0.76424 0.86455 0.04319 0.0
C893 C 0.73145 0.92618 0.99501 0.0
C894 C 0.74361 0.97178 0.99465 0.0
C895 C 0.7163 0.0079 0.99164 0.0
C896 C 0.67577 0.9971 0.98979 0.0
C897 C 0.66271 0.9505 0.9911 0.0
C898 C 0.69137 0.91487 0.9932 0.0
H899 H 0.2167 0.62041 0.75633 0.0
H900 H 0.31536 0.62215 0.85093 0.0
H901 H 0.32156 0.53703 0.84402 0.0
H902 H 0.17542 0.51815 0.80552 0.0
H903 H 0.156 0.49653 0.75179 0.0
H904 H 0.16165 0.55791 0.76039 0.0
H905 H 0.20655 0.56521 0.68728 0.0
H906 H 0.19586 0.50512 0.67821 0.0
H907 H 0.24643 0.52457 0.6802 0.0
H908 H 0.31416 0.45035 0.82978 0.0
H909 H 0.2973 0.37082 0.804 0.0
H910 H 0.20248 0.42658 0.72058 0.0
C911 C 0.24056 0.60296 0.77402 0.0
C912 C 0.26652 0.62779 0.80275 0.0
C913 C 0.29597 0.60365 0.82765 0.0
C914 C 0.29943 0.55533 0.8243 0.0
C915 C 0.27266 0.53154 0.79661 0.0
C916 C 0.24385 0.55463 0.77184 0.0
C917 C 0.21689 0.52093 0.74745 0.0
C918 C 0.17502 0.52355 0.7675 0.0
C919 C 0.21657 0.52947 0.69512 0.0
C920 C 0.23644 0.47544 0.75988 0.0
C921 C 0.26792 0.48206 0.7893 0.0
C922 C 0.28968 0.44479 0.80651 0.0
C923 C 0.27975 0.39973 0.79207 0.0
C924 C 0.24875 0.39255 0.76025 0.0
C925 C 0.22653 0.431 0.74474 0.0
H926 H 0.16818 0.48114 0.45171 0.0
H927 H 0.14847 0.46369 0.59842 0.0
H928 H 0.2198 0.47189 0.61266 0.0
H929 H 0.25445 0.41543 0.44709 0.0
H930 H 0.2788 0.45096 0.4047 0.0
H931 H 0.2259 0.4494 0.40713 0.0
H932 H 0.2254 0.5398 0.41656 0.0
H933 H 0.27862 0.54013 0.41484 0.0
H934 H 0.25299 0.56552 0.46295 0.0
H935 H 0.29324 0.48194 0.61261 0.0
H936 H 0.36455 0.47681 0.59481 0.0
H937 H 0.33785 0.48215 0.44862 0.0
C938 C 0.17872 0.48146 0.487 0.0
C939 C 0.15249 0.4736 0.52415 0.0
C940 C 0.16777 0.47138 0.56965 0.0
C941 C 0.20818 0.47642 0.57828 0.0
C942 C 0.23333 0.48433 0.54129 0.0
C943 C 0.21934 0.48638 0.49643 0.0
C944 C 0.25343 0.48969 0.46265 0.0
C945 C 0.25313 0.44897 0.42837 0.0
C946 C 0.25255 0.53653 0.43768 0.0
C947 C 0.28845 0.48706 0.4953 0.0
C948 C 0.2762 0.48569 0.54069 0.0
C949 C 0.30318 0.48319 0.57713 0.0
C950 C 0.34365 0.48068 0.56682 0.0
C951 C 0.35671 0.47961 0.52048 0.0
C952 C 0.32866 0.48348 0.48442 0.0
H953 H 0.83186 0.70587 0.91674 0.0
H954 H 0.74232 0.60753 0.87726 0.0
H955 H 0.73315 0.58636 0.95966 0.0
H956 H 0.87008 0.64335 0.02414 0.0
H957 H 0.87583 0.69813 0.05314 0.0
H958 H 0.88325 0.69419 0.99161 0.0
H959 H 0.83184 0.75934 0.97941 0.0
H960 H 0.82388 0.76298 0.04042 0.0
H961 H 0.78289 0.75233 1.00236 0.0
H962 H 0.72345 0.59033 0.0476 0.0
H963 H 0.71543 0.61813 0.12847 0.0
H964 H 0.81023 0.71567 0.10735 0.0
C965 C 0.81189 0.67811 0.92523 0.0
C966 C 0.78842 0.65762 0.89085 0.0
C967 C 0.76146 0.62252 0.90316 0.0
C968 C 0.75592 0.61062 0.94994 0.0
C969 C 0.77794 0.63385 0.98358 0.0
C970 C 0.80602 0.66633 0.97139 0.0
C971 C 0.82149 0.69214 0.01297 0.0
C972 C 0.86526 0.68127 0.02093 0.0
C973 C 0.81455 0.74474 0.00848 0.0
C974 C 0.7962 0.67124 0.05033 0.0
C975 C 0.77185 0.63686 0.03338 0.0
C976 C 0.74314 0.61633 0.06136 0.0
C977 C 0.73875 0.63217 0.10721 0.0
C978 C 0.76242 0.66873 0.12387 0.0
C979 C 0.79206 0.68728 0.09543 0.0
H980 H 0.43727 0.51341 0.34914 0.0
H981 H 0.56083 0.51125 0.38508 0.0
H982 H 0.57834 0.51866 0.30227 0.0
H983 H 0.44329 0.44529 0.2523 0.0
H984 H 0.40764 0.4762 0.21797 0.0
H985 H 0.40441 0.47747 0.27998 0.0
H986 H 0.40689 0.56706 0.28019 0.0
H987 H 0.40829 0.56604 0.21804 0.0
H988 H 0.44597 0.59624 0.24986 0.0
H989 H 0.58178 0.51751 0.21417 0.0
H990 H 0.57082 0.52215 0.12948 0.0
H991 H 0.44498 0.52476 0.15214 0.0
C992 C 0.46796 0.517 0.33965 0.0
C993 C 0.49777 0.51349 0.37345 0.0
C994 C 0.53766 0.51582 0.35978 0.0
C995 C 0.54779 0.51916 0.31277 0.0
C996 C 0.51761 0.52027 0.28003 0.0
C997 C 0.47846 0.5206 0.29302 0.0
C998 C 0.45152 0.52059 0.25127 0.0
C999 C 0.42519 0.4773 0.25036 0.0
C1000 C 0.42673 0.56514 0.24974 0.0
C1001 C 0.48159 0.51939 0.21269 0.0
C1002 C 0.51956 0.51888 0.22984 0.0
C1003 C 0.55216 0.51795 0.20045 0.0
C1004 C 0.54575 0.51979 0.15244 0.0
C1005 C 0.50711 0.52226 0.1345 0.0
C1006 C 0.47476 0.52129 0.16505 0.0
H1007 H 0.8004 0.2755 0.3985 0.0
H1008 H 0.71248 0.38258 0.38144 0.0
H1009 H 0.71832 0.40199 0.46501 0.0
H1010 H 0.76814 0.23216 0.4994 0.0
H1011 H 0.81594 0.22027 0.52367 0.0
H1012 H 0.80974 0.22172 0.46217 0.0
H1013 H 0.86442 0.28398 0.45579 0.0
H1014 H 0.8708 0.28271 0.5176 0.0
H1015 H 0.86044 0.33664 0.48885 0.0
H1016 H 0.72786 0.40067 0.55375 0.0
H1017 H 0.738 0.37726 0.63551 0.0
H1018 H 0.8191 0.27082 0.59094 0.0
C1019 C 0.78305 0.30387 0.4121 0.0
C1020 C 0.75605 0.32766 0.38381 0.0
C1021 C 0.73369 0.36438 0.40264 0.0
C1022 C 0.73689 0.37553 0.44999 0.0
C1023 C 0.76319 0.35024 0.47739 0.0
C1024 C 0.78624 0.31553 0.45863 0.0
C1025 C 0.80962 0.29025 0.49511 0.0
C1026 C 0.80025 0.23806 0.49508 0.0
C1027 C 0.85395 0.29893 0.48896 0.0
C1028 C 0.79434 0.31389 0.53797 0.0
C1029 C 0.76844 0.34933 0.5274 0.0
C1030 C 0.74871 0.37364 0.56218 0.0
C1031 C 0.75476 0.36036 0.60852 0.0
C1032 C 0.77963 0.32259 0.61925 0.0
C1033 C 0.80033 0.30017 0.58361 0.0
H1034 H 0.03099 0.54495 0.64261 0.0
H1035 H 0.96011 0.42049 0.64991 0.0
H1036 H 0.95249 0.43106 0.73375 0.0
H1037 H 0.08387 0.52524 0.7407 0.0
H1038 H 0.08623 0.58408 0.76119 0.0
H1039 H 0.08054 0.57266 0.70049 0.0
H1040 H 0.01706 0.62239 0.6983 0.0
H1041 H 0.02309 0.63493 0.75888 0.0
H1042 H 0.97772 0.61018 0.7382 0.0
H1043 H 0.96188 0.44691 0.81766 0.0
H1044 H 0.98103 0.47329 0.89583 0.0
H1045 H 0.04446 0.5884 0.83486 0.0
C1046 C 1.01236 0.52129 0.6616 0.0
C1047 C 0.9958 0.48219 0.6397 0.0
C1048 C 0.97281 0.45088 0.66598 0.0
C1049 C 0.96836 0.45651 0.71368 0.0
C1050 C 0.98674 0.49394 0.73475 0.0
C1051 C 1.00756 0.52648 0.70956 0.0
C1052 C 0.02708 0.56129 0.74143 0.0
C1053 C 0.07209 0.56076 0.73558 0.0
C1054 C 1.01022 0.61008 0.73375 0.0
C1055 C 0.01503 0.5422 0.78812 0.0
C1056 C 0.99171 0.50344 0.78354 0.0
C1057 C 0.97942 0.47786 0.82179 0.0
C1058 C 0.99072 0.49281 0.86602 0.0
C1059 C 0.01394 0.53304 0.87157 0.0
C1060 C 0.02615 0.55788 0.83191 0.0
H1061 H 0.85611 0.03605 0.4399 0.0
H1062 H 0.87466 0.06032 0.58598 0.0
H1063 H 0.80377 0.05164 0.60022 0.0
H1064 H 0.76762 0.09958 0.43192 0.0
H1065 H 0.74437 0.06133 0.391 0.0
H1066 H 0.79719 0.0651 0.39344 0.0
H1067 H 0.80087 0.97528 0.40694 0.0
H1068 H 0.7478 0.97289 0.40392 0.0
H1069 H 0.77321 0.95041 0.45367 0.0
H1070 H 0.73019 0.04109 0.59954 0.0
H1071 H 0.65903 0.03925 0.58172 0.0
H1072 H 0.68589 0.02739 0.43596 0.0
C1073 C 0.84527 0.03759 0.47502 0.0
C1074 C 0.87112 0.04755 0.51208 0.0
C1075 C 0.85556 0.05154 0.5573 0.0
C1076 C 0.81524 0.0463 0.56585 0.0
C1077 C 0.79037 0.03651 0.52892 0.0
C1078 C 0.80463 0.0325 0.4843 0.0
C1079 C 0.77078 0.02613 0.45048 0.0
C1080 C 0.76994 0.06535 0.41459 0.0
C1081 C 0.77331 0.97837 0.42731 0.0
C1082 C 0.73551 0.02863 0.4828 0.0
C1083 C 0.7476 0.03334 0.5281 0.0
C1084 C 0.72051 0.03652 0.56427 0.0
C1085 C 0.68008 0.03531 0.55391 0.0
C1086 C 0.66698 0.03242 0.50767 0.0
C1087 C 0.69515 0.02885 0.47173 0.0
loop_
_geom_bond_atom_site_label_1
_geom_bond_atom_site_label_2
_geom_bond_distance
_geom_bond_site_symmetry_2
_ccdc_geom_bond_type
Co0 O1 2.216 . S
Co0 O2 2.091 . S
Co0 O4 2.004 . S
Co0 O10 2.021 . S
Co0 O12 2.137 . S
Co0 O13 2.244 . S
O1 Co0 2.216 . S
O1 C8 1.247 . S
O2 Co0 2.091 . S
O2 C8 1.261 . S
C3 O12 1.247 . S
C3 O13 1.272 . S
O4 Co0 2.004 . S
O4 C9 1.259 . S
Co5 O6 2.061 . S
Co5 O11 2.052 . S
Co5 O13 2.135 . S
O6 Co5 2.061 . S
O6 C9 1.235 . S
C7 O10 1.238 . S
C7 O11 1.241 . S
C8 O1 1.247 . S
C8 O2 1.261 . S
C9 O4 1.259 . S
C9 O6 1.235 . S
O10 Co0 2.021 . S
O10 C7 1.238 . S
O11 Co5 2.052 . S
O11 C7 1.241 . S
O12 Co0 2.137 . S
O12 C3 1.247 . S
O13 Co0 2.244 . S
O13 C3 1.272 . S
O13 Co5 2.135 . S
Co14 O15 2.216 1_655 S
Co14 O16 2.091 1_545 S
Co14 O18 2.004 . S
Co14 O24 2.021 1_545 S
Co14 O26 2.137 . S
Co14 O27 2.244 . S
O15 Co14 2.216 1_455 S
O15 C22 1.247 1_545 S
O16 Co14 2.091 1_565 S
O16 C22 1.261 1_655 S
C17 O26 1.247 . S
C17 O27 1.272 . S
O18 Co14 2.004 . S
O18 C23 1.259 . S
Co19 O20 2.061 . S
Co19 O25 2.052 . S
Co19 O27 2.135 . S
O20 Co19 2.061 . S
O20 C23 1.235 . S
C21 O24 1.238 1_545 S
C21 O25 1.241 . S
C22 O15 1.247 1_565 S
C22 O16 1.261 1_455 S
C23 O18 1.259 . S
C23 O20 1.235 . S
O24 Co14 2.021 1_565 S
O24 C21 1.238 1_565 S
O25 Co19 2.052 . S
O25 C21 1.241 . S
O26 Co14 2.137 . S
O26 C17 1.247 . S
O27 Co14 2.244 . S
O27 C17 1.272 . S
O27 Co19 2.135 . S
Co28 O29 2.216 . S
Co28 O30 2.091 . S
Co28 O32 2.004 . S
Co28 O38 2.021 . S
Co28 O40 2.137 . S
Co28 O41 2.244 . S
O29 Co28 2.216 . S
O29 C36 1.247 . S
O30 Co28 2.091 . S
O30 C36 1.261 . S
C31 O40 1.247 . S
C31 O41 1.272 . S
O32 Co28 2.004 . S
O32 C37 1.259 . S
Co33 O34 2.061 . S
Co33 O39 2.052 . S
Co33 O41 2.135 . S
O34 Co33 2.061 . S
O34 C37 1.235 . S
C35 O38 1.238 . S
C35 O39 1.241 . S
C36 O29 1.247 . S
C36 O30 1.261 . S
C37 O32 1.259 . S
C37 O34 1.235 . S
O38 Co28 2.021 . S
O38 C35 1.238 . S
O39 Co33 2.052 . S
O39 C35 1.241 . S
O40 Co28 2.137 . S
O40 C31 1.247 . S
O41 Co28 2.244 . S
O41 C31 1.272 . S
O41 Co33 2.135 . S
Co42 O43 2.216 . S
Co42 O44 2.091 1_565 S
Co42 O46 2.004 . S
Co42 O52 2.021 1_566 S
Co42 O54 2.137 . S
Co42 O55 2.244 1_556 S
O43 Co42 2.216 . S
O43 C50 1.247 1_565 S
O44 Co42 2.091 1_545 S
O44 C50 1.261 . S
C45 O54 1.247 . S
C45 O55 1.272 1_556 S
O46 Co42 2.004 . S
O46 C51 1.259 . S
Co47 O48 2.061 . S
Co47 O53 2.052 . S
Co47 O55 2.135 . S
O48 Co47 2.061 . S
O48 C51 1.235 1_554 S
C49 O52 1.238 1_565 S
C49 O53 1.241 . S
C50 O43 1.247 1_545 S
C50 O44 1.261 . S
C51 O46 1.259 . S
C51 O48 1.235 1_556 S
O52 Co42 2.021 1_544 S
O52 C49 1.238 1_545 S
O53 Co47 2.052 . S
O53 C49 1.241 . S
O54 Co42 2.137 . S
O54 C45 1.247 . S
O55 Co42 2.244 1_554 S
O55 C45 1.272 1_554 S
O55 Co47 2.135 . S
Co56 O57 2.216 . S
Co56 O58 2.091 . S
Co56 O60 2.004 . S
Co56 O66 2.021 . S
Co56 O68 2.137 . S
Co56 O69 2.244 . S
O57 Co56 2.216 . S
O57 C64 1.247 . S
O58 Co56 2.091 . S
O58 C64 1.261 . S
C59 O68 1.247 . S
C59 O69 1.272 . S
O60 Co56 2.004 . S
O60 C65 1.259 . S
Co61 O62 2.061 . S
Co61 O67 2.052 . S
Co61 O69 2.135 . S
O62 Co61 2.061 . S
O62 C65 1.235 . S
C63 O66 1.238 . S
C63 O67 1.241 . S
C64 O57 1.247 . S
C64 O58 1.261 . S
C65 O60 1.259 . S
C65 O62 1.235 . S
O66 Co56 2.021 . S
O66 C63 1.238 . S
O67 Co61 2.052 . S
O67 C63 1.241 . S
O68 Co56 2.137 . S
O68 C59 1.247 . S
O69 Co56 2.244 . S
O69 C59 1.272 . S
O69 Co61 2.135 . S
Co70 O71 2.216 . S
Co70 O72 2.091 1_545 S
Co70 O74 2.004 . S
Co70 O80 2.021 1_545 S
Co70 O82 2.137 . S
Co70 O83 2.244 . S
O71 Co70 2.216 . S
O71 C78 1.247 1_545 S
O72 Co70 2.091 1_565 S
O72 C78 1.261 . S
C73 O82 1.247 . S
C73 O83 1.272 . S
O74 Co70 2.004 . S
O74 C79 1.259 . S
Co75 O76 2.061 . S
Co75 O81 2.052 . S
Co75 O83 2.135 . S
O76 Co75 2.061 . S
O76 C79 1.235 . S
C77 O80 1.238 1_545 S
C77 O81 1.241 . S
C78 O71 1.247 1_565 S
C78 O72 1.261 . S
C79 O74 1.259 . S
C79 O76 1.235 . S
O80 Co70 2.021 1_565 S
O80 C77 1.238 1_565 S
O81 Co75 2.052 . S
O81 C77 1.241 . S
O82 Co70 2.137 . S
O82 C73 1.247 . S
O83 Co70 2.244 . S
O83 C73 1.272 . S
O83 Co75 2.135 . S
Co84 O85 2.216 . S
Co84 O86 2.091 . S
Co84 O88 2.004 . S
Co84 O94 2.021 . S
Co84 O96 2.137 . S
Co84 O97 2.244 . S
O85 Co84 2.216 . S
O85 C92 1.247 . S
O86 Co84 2.091 . S
O86 C92 1.261 . S
C87 O96 1.247 . S
C87 O97 1.272 . S
O88 Co84 2.004 . S
O88 C93 1.259 . S
Co89 O90 2.061 . S
Co89 O95 2.052 . S
Co89 O97 2.135 . S
O90 Co89 2.061 . S
O90 C93 1.235 . S
C91 O94 1.238 . S
C91 O95 1.241 . S
C92 O85 1.247 . S
C92 O86 1.261 . S
C93 O88 1.259 . S
C93 O90 1.235 . S
O94 Co84 2.021 . S
O94 C91 1.238 . S
O95 Co89 2.052 . S
O95 C91 1.241 . S
O96 Co84 2.137 . S
O96 C87 1.247 . S
O97 Co84 2.244 . S
O97 C87 1.272 . S
O97 Co89 2.135 . S
Co98 O99 2.216 1_655 S
Co98 O100 2.091 1_565 S
Co98 O102 2.004 . S
Co98 O108 2.021 1_564 S
Co98 O110 2.137 . S
Co98 O111 2.244 1_554 S
O99 Co98 2.216 1_455 S
O99 C106 1.247 1_565 S
O100 Co98 2.091 1_545 S
O100 C106 1.261 1_655 S
C101 O110 1.247 . S
C101 O111 1.272 1_554 S
O102 Co98 2.004 . S
O102 C107 1.259 . S
Co103 O104 2.061 . S
Co103 O109 2.052 . S
Co103 O111 2.135 . S
O104 Co103 2.061 . S
O104 C107 1.235 1_556 S
C105 O108 1.238 1_565 S
C105 O109 1.241 . S
C106 O99 1.247 1_545 S
C106 O100 1.261 1_455 S
C107 O102 1.259 . S
C107 O104 1.235 1_554 S
O108 Co98 2.021 1_546 S
O108 C105 1.238 1_545 S
O109 Co103 2.052 . S
O109 C105 1.241 . S
O110 Co98 2.137 . S
O110 C101 1.247 . S
O111 Co98 2.244 1_556 S
O111 C101 1.272 1_556 S
O111 Co103 2.135 . S
Co112 O113 2.216 . S
Co112 O114 2.091 . S
Co112 O116 2.004 . S
Co112 O122 2.021 . S
Co112 O124 2.137 . S
Co112 O125 2.244 . S
O113 Co112 2.216 . S
O113 C120 1.247 . S
O114 Co112 2.091 . S
O114 C120 1.261 . S
C115 O124 1.247 . S
C115 O125 1.272 . S
O116 Co112 2.004 . S
O116 C121 1.259 . S
Co117 O118 2.061 . S
Co117 O123 2.052 . S
Co117 O125 2.135 . S
O118 Co117 2.061 . S
O118 C121 1.235 . S
C119 O122 1.238 . S
C119 O123 1.241 . S
C120 O113 1.247 . S
C120 O114 1.261 . S
C121 O116 1.259 . S
C121 O118 1.235 . S
O122 Co112 2.021 . S
O122 C119 1.238 . S
O123 Co117 2.052 . S
O123 C119 1.241 . S
O124 Co112 2.137 . S
O124 C115 1.247 . S
O125 Co112 2.244 . S
O125 C115 1.272 . S
O125 Co117 2.135 . S
Co126 O127 2.216 1_455 S
Co126 O128 2.091 . S
Co126 O130 2.004 . S
Co126 O136 2.021 1_554 S
Co126 O138 2.137 . S
Co126 O139 2.244 1_554 S
O127 Co126 2.216 1_655 S
O127 C134 1.247 . S
O128 Co126 2.091 . S
O128 C134 1.261 1_455 S
C129 O138 1.247 . S
C129 O139 1.272 1_554 S
O130 Co126 2.004 . S
O130 C135 1.259 . S
Co131 O132 2.061 . S
Co131 O137 2.052 . S
Co131 O139 2.135 . S
O132 Co131 2.061 . S
O132 C135 1.235 1_556 S
C133 O136 1.238 . S
C133 O137 1.241 . S
C134 O127 1.247 . S
C134 O128 1.261 1_655 S
C135 O130 1.259 . S
C135 O132 1.235 1_554 S
O136 Co126 2.021 1_556 S
O136 C133 1.238 . S
O137 Co131 2.052 . S
O137 C133 1.241 . S
O138 Co126 2.137 . S
O138 C129 1.247 . S
O139 Co126 2.244 1_556 S
O139 C129 1.272 1_556 S
O139 Co131 2.135 . S
Co140 O141 2.216 . S
Co140 O142 2.091 . S
Co140 O144 2.004 . S
Co140 O150 2.021 . S
Co140 O152 2.137 . S
Co140 O153 2.244 . S
O141 Co140 2.216 . S
O141 C148 1.247 . S
O142 Co140 2.091 . S
O142 C148 1.261 . S
C143 O152 1.247 . S
C143 O153 1.272 . S
O144 Co140 2.004 . S
O144 C149 1.259 . S
Co145 O146 2.061 . S
Co145 O151 2.052 . S
Co145 O153 2.135 . S
O146 Co145 2.061 . S
O146 C149 1.235 . S
C147 O150 1.238 . S
C147 O151 1.241 . S
C148 O141 1.247 . S
C148 O142 1.261 . S
C149 O144 1.259 . S
C149 O146 1.235 . S
O150 Co140 2.021 . S
O150 C147 1.238 . S
O151 Co145 2.052 . S
O151 C147 1.241 . S
O152 Co140 2.137 . S
O152 C143 1.247 . S
O153 Co140 2.244 . S
O153 C143 1.272 . S
O153 Co145 2.135 . S
Co154 O155 2.216 1_455 S
Co154 O156 2.091 . S
Co154 O158 2.004 . S
Co154 O164 2.021 . S
Co154 O166 2.137 . S
Co154 O167 2.244 . S
O155 Co154 2.216 1_655 S
O155 C162 1.247 . S
O156 Co154 2.091 . S
O156 C162 1.261 1_455 S
C157 O166 1.247 . S
C157 O167 1.272 . S
O158 Co154 2.004 . S
O158 C163 1.259 . S
Co159 O160 2.061 . S
Co159 O165 2.052 . S
Co159 O167 2.135 . S
O160 Co159 2.061 . S
O160 C163 1.235 . S
C161 O164 1.238 . S
C161 O165 1.241 . S
C162 O155 1.247 . S
C162 O156 1.261 1_655 S
C163 O158 1.259 . S
C163 O160 1.235 . S
O164 Co154 2.021 . S
O164 C161 1.238 . S
O165 Co159 2.052 . S
O165 C161 1.241 . S
O166 Co154 2.137 . S
O166 C157 1.247 . S
O167 Co154 2.244 . S
O167 C157 1.272 . S
O167 Co159 2.135 . S
Co168 O169 2.216 . S
Co168 O170 2.091 . S
Co168 O172 2.004 . S
Co168 O178 2.021 1_556 S
Co168 O180 2.137 . S
Co168 O181 2.244 1_556 S
O169 Co168 2.216 . S
O169 C176 1.247 . S
O170 Co168 2.091 . S
O170 C176 1.261 . S
C171 O180 1.247 . S
C171 O181 1.272 1_556 S
O172 Co168 2.004 . S
O172 C177 1.259 . S
Co173 O174 2.061 . S
Co173 O179 2.052 . S
Co173 O181 2.135 . S
O174 Co173 2.061 . S
O174 C177 1.235 1_554 S
C175 O178 1.238 . S
C175 O179 1.241 . S
C176 O169 1.247 . S
C176 O170 1.261 . S
C177 O172 1.259 . S
C177 O174 1.235 1_556 S
O178 Co168 2.021 1_554 S
O178 C175 1.238 . S
O179 Co173 2.052 . S
O179 C175 1.241 . S
O180 Co168 2.137 . S
O180 C171 1.247 . S
O181 Co168 2.244 1_554 S
O181 C171 1.272 1_554 S
O181 Co173 2.135 . S
Co182 O183 2.216 . S
Co182 O184 2.091 . S
Co182 O186 2.004 . S
Co182 O192 2.021 . S
Co182 O194 2.137 . S
Co182 O195 2.244 . S
O183 Co182 2.216 . S
O183 C190 1.247 . S
O184 Co182 2.091 . S
O184 C190 1.261 . S
C185 O194 1.247 . S
C185 O195 1.272 . S
O186 Co182 2.004 . S
O186 C191 1.259 . S
Co187 O188 2.061 . S
Co187 O193 2.052 . S
Co187 O195 2.135 . S
O188 Co187 2.061 . S
O188 C191 1.235 . S
C189 O192 1.238 . S
C189 O193 1.241 . S
C190 O183 1.247 . S
C190 O184 1.261 . S
C191 O186 1.259 . S
C191 O188 1.235 . S
O192 Co182 2.021 . S
O192 C189 1.238 . S
O193 Co187 2.052 . S
O193 C189 1.241 . S
O194 Co182 2.137 . S
O194 C185 1.247 . S
O195 Co182 2.244 . S
O195 C185 1.272 . S
O195 Co187 2.135 . S
Co196 O197 2.216 . S
Co196 O198 2.091 . S
Co196 O200 2.004 . S
Co196 O206 2.021 . S
Co196 O208 2.137 . S
Co196 O209 2.244 . S
O197 Co196 2.216 . S
O197 C204 1.247 . S
O198 Co196 2.091 . S
O198 C204 1.261 . S
C199 O208 1.247 . S
C199 O209 1.272 . S
O200 Co196 2.004 . S
O200 C205 1.259 . S
Co201 O202 2.061 . S
Co201 O207 2.052 . S
Co201 O209 2.135 . S
O202 Co201 2.061 . S
O202 C205 1.235 . S
C203 O206 1.238 . S
C203 O207 1.241 . S
C204 O197 1.247 . S
C204 O198 1.261 . S
C205 O200 1.259 . S
C205 O202 1.235 . S
O206 Co196 2.021 . S
O206 C203 1.238 . S
O207 Co201 2.052 . S
O207 C203 1.241 . S
O208 Co196 2.137 . S
O208 C199 1.247 . S
O209 Co196 2.244 . S
O209 C199 1.272 . S
O209 Co201 2.135 . S
Co210 O211 2.216 . S
Co210 O212 2.091 . S
Co210 O214 2.004 . S
Co210 O220 2.021 . S
Co210 O222 2.137 . S
Co210 O223 2.244 . S
O211 Co210 2.216 . S
O211 C218 1.247 . S
O212 Co210 2.091 . S
O212 C218 1.261 . S
C213 O222 1.247 . S
C213 O223 1.272 . S
O214 Co210 2.004 . S
O214 C219 1.259 . S
Co215 O216 2.061 . S
Co215 O221 2.052 . S
Co215 O223 2.135 . S
O216 Co215 2.061 . S
O216 C219 1.235 . S
C217 O220 1.238 . S
C217 O221 1.241 . S
C218 O211 1.247 . S
C218 O212 1.261 . S
C219 O214 1.259 . S
C219 O216 1.235 . S
O220 Co210 2.021 . S
O220 C217 1.238 . S
O221 Co215 2.052 . S
O221 C217 1.241 . S
O222 Co210 2.137 . S
O222 C213 1.247 . S
O223 Co210 2.244 . S
O223 C213 1.272 . S
O223 Co215 2.135 . S
H224 C236 0.930 . S
H225 C238 0.930 . S
H226 C239 0.930 . S
H227 C243 0.959 . S
H228 C243 0.959 . S
H229 C243 0.961 . S
H230 C244 0.960 . S
H231 C244 0.961 . S
H232 C244 0.959 . S
H233 C247 0.929 . S
H234 C248 0.931 . S
H235 C250 0.930 . S
C236 H224 0.930 . S
C236 C237 1.399 . S
C236 C241 1.399 . S
C237 C236 1.399 . S
C237 C238 1.376 . S
C238 H225 0.930 . S
C238 C237 1.376 . S
C238 C239 1.388 . S
C239 H226 0.930 . S
C239 C238 1.388 . S
C239 C240 1.390 . S
C240 C239 1.390 . S
C240 C241 1.394 . S
C240 C246 1.465 . S
C241 C236 1.399 . S
C241 C240 1.394 . S
C241 C242 1.516 . S
C242 C241 1.516 . S
C242 C243 1.502 . S
C242 C244 1.561 . S
C242 C245 1.526 . S
C243 H227 0.959 . S
C243 H228 0.959 . S
C243 H229 0.961 . S
C243 C242 1.502 . S
C244 H230 0.960 . S
C244 H231 0.961 . S
C244 H232 0.959 . S
C244 C242 1.561 . S
C245 C242 1.526 . S
C245 C246 1.396 . S
C245 C250 1.390 . S
C246 C240 1.465 . S
C246 C245 1.396 . S
C246 C247 1.399 . S
C247 H233 0.929 . S
C247 C246 1.399 . S
C247 C248 1.385 . S
C248 H234 0.931 . S
C248 C247 1.385 . S
C248 C249 1.389 . S
C249 C248 1.389 . S
C249 C250 1.387 . S
C250 H235 0.930 . S
C250 C245 1.390 . S
C250 C249 1.387 . S
H251 C263 0.930 . S
H252 C265 0.930 . S
H253 C266 0.930 . S
H254 C270 0.959 . S
H255 C270 0.959 . S
H256 C270 0.961 . S
H257 C271 0.960 . S
H258 C271 0.961 . S
H259 C271 0.959 . S
H260 C274 0.929 . S
H261 C275 0.931 . S
H262 C277 0.930 . S
C263 H251 0.930 . S
C263 C264 1.399 . S
C263 C268 1.399 . S
C264 C263 1.399 . S
C264 C265 1.376 . S
C265 H252 0.930 . S
C265 C264 1.376 . S
C265 C266 1.388 . S
C266 H253 0.930 . S
C266 C265 1.388 . S
C266 C267 1.390 . S
C267 C266 1.390 . S
C267 C268 1.394 . S
C267 C273 1.465 . S
C268 C263 1.399 . S
C268 C267 1.394 . S
C268 C269 1.516 . S
C269 C268 1.516 . S
C269 C270 1.502 . S
C269 C271 1.561 . S
C269 C272 1.526 . S
C270 H254 0.959 . S
C270 H255 0.959 . S
C270 H256 0.961 . S
C270 C269 1.502 . S
C271 H257 0.960 . S
C271 H258 0.961 . S
C271 H259 0.959 . S
C271 C269 1.561 . S
C272 C269 1.526 . S
C272 C273 1.396 . S
C272 C277 1.390 . S
C273 C267 1.465 . S
C273 C272 1.396 . S
C273 C274 1.399 . S
C274 H260 0.929 . S
C274 C273 1.399 . S
C274 C275 1.385 . S
C275 H261 0.931 . S
C275 C274 1.385 . S
C275 C276 1.389 . S
C276 C275 1.389 . S
C276 C277 1.387 . S
C277 H262 0.930 . S
C277 C272 1.390 . S
C277 C276 1.387 . S
H278 C290 0.930 . S
H279 C292 0.930 . S
H280 C293 0.930 . S
H281 C297 0.959 . S
H282 C297 0.959 . S
H283 C297 0.961 . S
H284 C298 0.960 . S
H285 C298 0.961 . S
H286 C298 0.959 . S
H287 C301 0.929 . S
H288 C302 0.931 . S
H289 C304 0.930 . S
C290 H278 0.930 . S
C290 C291 1.399 . S
C290 C295 1.399 . S
C291 C290 1.399 . S
C291 C292 1.376 . S
C292 H279 0.930 . S
C292 C291 1.376 . S
C292 C293 1.388 . S
C293 H280 0.930 . S
C293 C292 1.388 . S
C293 C294 1.390 . S
C294 C293 1.390 . S
C294 C295 1.394 . S
C294 C300 1.465 . S
C295 C290 1.399 . S
C295 C294 1.394 . S
C295 C296 1.516 . S
C296 C295 1.516 . S
C296 C297 1.502 . S
C296 C298 1.561 . S
C296 C299 1.526 . S
C297 H281 0.959 . S
C297 H282 0.959 . S
C297 H283 0.961 . S
C297 C296 1.502 . S
C298 H284 0.960 . S
C298 H285 0.961 . S
C298 H286 0.959 . S
C298 C296 1.561 . S
C299 C296 1.526 . S
C299 C300 1.396 . S
C299 C304 1.390 . S
C300 C294 1.465 . S
C300 C299 1.396 . S
C300 C301 1.399 . S
C301 H287 0.929 . S
C301 C300 1.399 . S
C301 C302 1.385 . S
C302 H288 0.931 . S
C302 C301 1.385 . S
C302 C303 1.389 . S
C303 C302 1.389 . S
C303 C304 1.387 . S
C304 H289 0.930 . S
C304 C299 1.390 . S
C304 C303 1.387 . S
H305 C317 0.930 . S
H306 C319 0.930 . S
H307 C320 0.930 . S
H308 C324 0.959 . S
H309 C324 0.959 . S
H310 C324 0.961 . S
H311 C325 0.960 . S
H312 C325 0.961 . S
H313 C325 0.959 . S
H314 C328 0.929 . S
H315 C329 0.931 . S
H316 C331 0.930 . S
C317 H305 0.930 . S
C317 C318 1.399 . S
C317 C322 1.399 . S
C318 C317 1.399 . S
C318 C319 1.376 . S
C319 H306 0.930 . S
C319 C318 1.376 . S
C319 C320 1.388 . S
C320 H307 0.930 . S
C320 C319 1.388 . S
C320 C321 1.390 . S
C321 C320 1.390 . S
C321 C322 1.394 . S
C321 C327 1.465 . S
C322 C317 1.399 . S
C322 C321 1.394 . S
C322 C323 1.516 . S
C323 C322 1.516 . S
C323 C324 1.502 . S
C323 C325 1.561 . S
C323 C326 1.526 . S
C324 H308 0.959 . S
C324 H309 0.959 . S
C324 H310 0.961 . S
C324 C323 1.502 . S
C325 H311 0.960 . S
C325 H312 0.961 . S
C325 H313 0.959 . S
C325 C323 1.561 . S
C326 C323 1.526 . S
C326 C327 1.396 . S
C326 C331 1.390 . S
C327 C321 1.465 . S
C327 C326 1.396 . S
C327 C328 1.399 . S
C328 H314 0.929 . S
C328 C327 1.399 . S
C328 C329 1.385 . S
C329 H315 0.931 . S
C329 C328 1.385 . S
C329 C330 1.389 . S
C330 C329 1.389 . S
C330 C331 1.387 . S
C331 H316 0.930 . S
C331 C326 1.390 . S
C331 C330 1.387 . S
H332 C344 0.930 . S
H333 C346 0.930 . S
H334 C347 0.930 . S
H335 C351 0.959 . S
H336 C351 0.959 . S
H337 C351 0.961 . S
H338 C352 0.960 . S
H339 C352 0.961 . S
H340 C352 0.959 . S
H341 C355 0.929 . S
H342 C356 0.931 . S
H343 C358 0.930 . S
C344 H332 0.930 . S
C344 C345 1.399 . S
C344 C349 1.399 . S
C345 C344 1.399 . S
C345 C346 1.376 . S
C346 H333 0.930 . S
C346 C345 1.376 . S
C346 C347 1.388 . S
C347 H334 0.930 . S
C347 C346 1.388 . S
C347 C348 1.390 . S
C348 C347 1.390 . S
C348 C349 1.394 . S
C348 C354 1.465 . S
C349 C344 1.399 . S
C349 C348 1.394 . S
C349 C350 1.516 . S
C350 C349 1.516 . S
C350 C351 1.502 . S
C350 C352 1.561 . S
C350 C353 1.526 . S
C351 H335 0.959 . S
C351 H336 0.959 . S
C351 H337 0.961 . S
C351 C350 1.502 . S
C352 H338 0.960 . S
C352 H339 0.961 . S
C352 H340 0.959 . S
C352 C350 1.561 . S
C353 C350 1.526 . S
C353 C354 1.396 . S
C353 C358 1.390 . S
C354 C348 1.465 . S
C354 C353 1.396 . S
C354 C355 1.399 . S
C355 H341 0.929 . S
C355 C354 1.399 . S
C355 C356 1.385 . S
C356 H342 0.931 . S
C356 C355 1.385 . S
C356 C357 1.389 . S
C357 C356 1.389 . S
C357 C358 1.387 . S
C358 H343 0.930 . S
C358 C353 1.390 . S
C358 C357 1.387 . S
H359 C371 0.930 . S
H360 C373 0.930 . S
H361 C374 0.930 . S
H362 C378 0.959 . S
H363 C378 0.959 . S
H364 C378 0.961 . S
H365 C379 0.960 . S
H366 C379 0.961 . S
H367 C379 0.959 . S
H368 C382 0.929 . S
H369 C383 0.931 . S
H370 C385 0.930 . S
C371 H359 0.930 . S
C371 C372 1.399 . S
C371 C376 1.399 . S
C372 C371 1.399 . S
C372 C373 1.376 . S
C373 H360 0.930 . S
C373 C372 1.376 . S
C373 C374 1.388 . S
C374 H361 0.930 . S
C374 C373 1.388 . S
C374 C375 1.390 . S
C375 C374 1.390 . S
C375 C376 1.394 . S
C375 C381 1.465 . S
C376 C371 1.399 . S
C376 C375 1.394 . S
C376 C377 1.516 . S
C377 C376 1.516 . S
C377 C378 1.502 . S
C377 C379 1.561 . S
C377 C380 1.526 . S
C378 H362 0.959 . S
C378 H363 0.959 . S
C378 H364 0.961 . S
C378 C377 1.502 . S
C379 H365 0.960 . S
C379 H366 0.961 . S
C379 H367 0.959 . S
C379 C377 1.561 . S
C380 C377 1.526 . S
C380 C381 1.396 . S
C380 C385 1.390 . S
C381 C375 1.465 . S
C381 C380 1.396 . S
C381 C382 1.399 . S
C382 H368 0.929 . S
C382 C381 1.399 . S
C382 C383 1.385 . S
C383 H369 0.931 . S
C383 C382 1.385 . S
C383 C384 1.389 . S
C384 C383 1.389 . S
C384 C385 1.387 . S
C385 H370 0.930 . S
C385 C380 1.390 . S
C385 C384 1.387 . S
H386 C398 0.930 . S
H387 C400 0.930 . S
H388 C401 0.930 . S
H389 C405 0.959 . S
H390 C405 0.959 . S
H391 C405 0.961 . S
H392 C406 0.960 . S
H393 C406 0.961 . S
H394 C406 0.959 . S
H395 C409 0.929 . S
H396 C410 0.931 . S
H397 C412 0.930 . S
C398 H386 0.930 . S
C398 C399 1.399 . S
C398 C403 1.399 . S
C399 C398 1.399 . S
C399 C400 1.376 . S
C400 H387 0.930 . S
C400 C399 1.376 . S
C400 C401 1.388 . S
C401 H388 0.930 . S
C401 C400 1.388 . S
C401 C402 1.390 . S
C402 C401 1.390 . S
C402 C403 1.394 . S
C402 C408 1.465 . S
C403 C398 1.399 . S
C403 C402 1.394 . S
C403 C404 1.516 . S
C404 C403 1.516 . S
C404 C405 1.502 . S
C404 C406 1.561 . S
C404 C407 1.526 . S
C405 H389 0.959 . S
C405 H390 0.959 . S
C405 H391 0.961 . S
C405 C404 1.502 . S
C406 H392 0.960 . S
C406 H393 0.961 . S
C406 H394 0.959 . S
C406 C404 1.561 . S
C407 C404 1.526 . S
C407 C408 1.396 . S
C407 C412 1.390 . S
C408 C402 1.465 . S
C408 C407 1.396 . S
C408 C409 1.399 . S
C409 H395 0.929 . S
C409 C408 1.399 . S
C409 C410 1.385 . S
C410 H396 0.931 . S
C410 C409 1.385 . S
C410 C411 1.389 . S
C411 C410 1.389 . S
C411 C412 1.387 . S
C412 H397 0.930 . S
C412 C407 1.390 . S
C412 C411 1.387 . S
H413 C425 0.930 . S
H414 C427 0.930 . S
H415 C428 0.930 . S
H416 C432 0.959 . S
H417 C432 0.959 . S
H418 C432 0.961 . S
H419 C433 0.960 . S
H420 C433 0.961 . S
H421 C433 0.959 . S
H422 C436 0.929 . S
H423 C437 0.931 . S
H424 C439 0.930 . S
C425 H413 0.930 . S
C425 C426 1.399 . S
C425 C430 1.399 . S
C426 C425 1.399 . S
C426 C427 1.376 . S
C427 H414 0.930 . S
C427 C426 1.376 . S
C427 C428 1.388 . S
C428 H415 0.930 . S
C428 C427 1.388 . S
C428 C429 1.390 . S
C429 C428 1.390 . S
C429 C430 1.394 . S
C429 C435 1.465 . S
C430 C425 1.399 . S
C430 C429 1.394 . S
C430 C431 1.516 . S
C431 C430 1.516 . S
C431 C432 1.502 . S
C431 C433 1.561 . S
C431 C434 1.526 . S
C432 H416 0.959 . S
C432 H417 0.959 . S
C432 H418 0.961 . S
C432 C431 1.502 . S
C433 H419 0.960 . S
C433 H420 0.961 . S
C433 H421 0.959 . S
C433 C431 1.561 . S
C434 C431 1.526 . S
C434 C435 1.396 . S
C434 C439 1.390 . S
C435 C429 1.465 . S
C435 C434 1.396 . S
C435 C436 1.399 . S
C436 H422 0.929 . S
C436 C435 1.399 . S
C436 C437 1.385 . S
C437 H423 0.931 . S
C437 C436 1.385 . S
C437 C438 1.389 . S
C438 C437 1.389 . S
C438 C439 1.387 . S
C439 H424 0.930 . S
C439 C434 1.390 . S
C439 C438 1.387 . S
H440 C452 0.930 . S
H441 C454 0.930 . S
H442 C455 0.930 . S
H443 C459 0.959 . S
H444 C459 0.959 . S
H445 C459 0.961 . S
H446 C460 0.960 . S
H447 C460 0.961 . S
H448 C460 0.959 . S
H449 C463 0.929 . S
H450 C464 0.931 . S
H451 C466 0.930 . S
C452 H440 0.930 . S
C452 C453 1.399 . S
C452 C457 1.399 . S
C453 C452 1.399 . S
C453 C454 1.376 . S
C454 H441 0.930 . S
C454 C453 1.376 . S
C454 C455 1.388 . S
C455 H442 0.930 . S
C455 C454 1.388 . S
C455 C456 1.390 . S
C456 C455 1.390 . S
C456 C457 1.394 . S
C456 C462 1.465 . S
C457 C452 1.399 . S
C457 C456 1.394 . S
C457 C458 1.516 . S
C458 C457 1.516 . S
C458 C459 1.502 . S
C458 C460 1.561 . S
C458 C461 1.526 . S
C459 H443 0.959 . S
C459 H444 0.959 . S
C459 H445 0.961 . S
C459 C458 1.502 . S
C460 H446 0.960 . S
C460 H447 0.961 . S
C460 H448 0.959 . S
C460 C458 1.561 . S
C461 C458 1.526 . S
C461 C462 1.396 . S
C461 C466 1.390 . S
C462 C456 1.465 . S
C462 C461 1.396 . S
C462 C463 1.399 . S
C463 H449 0.929 . S
C463 C462 1.399 . S
C463 C464 1.385 . S
C464 H450 0.931 . S
C464 C463 1.385 . S
C464 C465 1.389 . S
C465 C464 1.389 . S
C465 C466 1.387 . S
C466 H451 0.930 . S
C466 C461 1.390 . S
C466 C465 1.387 . S
H467 C479 0.930 . S
H468 C481 0.930 . S
H469 C482 0.930 . S
H470 C486 0.959 . S
H471 C486 0.959 . S
H472 C486 0.961 . S
H473 C487 0.960 . S
H474 C487 0.961 . S
H475 C487 0.955 1_455 S
H476 C490 0.929 . S
H477 C491 0.931 . S
H478 C493 0.930 . S
C479 H467 0.930 . S
C479 C480 1.399 . S
C479 C484 1.399 . S
C480 C479 1.399 . S
C480 C481 1.376 1_545 S
C481 H468 0.930 . S
C481 C480 1.376 1_565 S
C481 C482 1.388 . S
C482 H469 0.930 . S
C482 C481 1.388 . S
C482 C483 1.390 . S
C483 C482 1.390 . S
C483 C484 1.394 1_565 S
C483 C489 1.465 . S
C484 C479 1.399 . S
C484 C483 1.394 1_545 S
C484 C485 1.516 . S
C485 C484 1.516 . S
C485 C486 1.502 . S
C485 C487 1.565 . S
C485 C488 1.526 . S
C486 H470 0.959 . S
C486 H471 0.959 . S
C486 H472 0.961 . S
C486 C485 1.502 . S
C487 H473 0.960 . S
C487 H474 0.961 . S
C487 H475 0.955 1_655 S
C487 C485 1.565 . S
C488 C485 1.526 . S
C488 C489 1.396 1_545 S
C488 C493 1.390 . S
C489 C483 1.465 . S
C489 C488 1.396 1_565 S
C489 C490 1.399 . S
C490 H476 0.929 . S
C490 C489 1.399 . S
C490 C491 1.385 . S
C491 H477 0.931 . S
C491 C490 1.385 . S
C491 C492 1.389 . S
C492 C491 1.389 . S
C492 C493 1.387 1_565 S
C493 H478 0.930 . S
C493 C488 1.390 . S
C493 C492 1.387 1_545 S
H494 C506 0.930 . S
H495 C508 0.930 . S
H496 C509 0.930 . S
H497 C513 0.959 . S
H498 C513 0.959 1_554 S
H499 C513 0.961 . S
H500 C514 0.960 1_556 S
H501 C514 0.961 . S
H502 C514 0.959 . S
H503 C517 0.929 . S
H504 C518 0.931 . S
H505 C520 0.930 . S
C506 H494 0.930 . S
C506 C507 1.399 . S
C506 C511 1.399 . S
C507 C506 1.399 . S
C507 C508 1.376 . S
C508 H495 0.930 . S
C508 C507 1.376 . S
C508 C509 1.388 . S
C509 H496 0.930 . S
C509 C508 1.388 . S
C509 C510 1.390 . S
C510 C509 1.390 . S
C510 C511 1.394 . S
C510 C516 1.465 1_556 S
C511 C506 1.399 . S
C511 C510 1.394 . S
C511 C512 1.516 1_556 S
C512 C511 1.516 1_554 S
C512 C513 1.502 1_554 S
C512 C514 1.561 . S
C512 C515 1.526 . S
C513 H497 0.959 . S
C513 H498 0.959 1_556 S
C513 H499 0.961 . S
C513 C512 1.502 1_556 S
C514 H500 0.960 1_554 S
C514 H501 0.961 . S
C514 H502 0.959 . S
C514 C512 1.561 . S
C515 C512 1.526 . S
C515 C516 1.396 . S
C515 C520 1.390 . S
C516 C510 1.465 1_554 S
C516 C515 1.396 . S
C516 C517 1.399 . S
C517 H503 0.929 . S
C517 C516 1.399 . S
C517 C518 1.385 . S
C518 H504 0.931 . S
C518 C517 1.385 . S
C518 C519 1.389 . S
C519 C518 1.389 . S
C519 C520 1.387 . S
C520 H505 0.930 . S
C520 C515 1.390 . S
C520 C519 1.387 . S
H521 C533 0.930 . S
H522 C535 0.930 . S
H523 C536 0.930 . S
H524 C540 0.959 . S
H525 C540 0.959 . S
H526 C540 0.961 . S
H527 C541 0.960 . S
H528 C541 0.961 . S
H529 C541 0.959 . S
H530 C544 0.929 . S
H531 C545 0.931 . S
H532 C547 0.930 . S
C533 H521 0.930 . S
C533 C534 1.399 . S
C533 C538 1.399 . S
C534 C533 1.399 . S
C534 C535 1.376 1_565 S
C535 H522 0.930 . S
C535 C534 1.376 1_545 S
C535 C536 1.388 . S
C536 H523 0.930 . S
C536 C535 1.388 . S
C536 C537 1.390 . S
C537 C536 1.390 . S
C537 C538 1.394 1_545 S
C537 C543 1.465 . S
C538 C533 1.399 . S
C538 C537 1.394 1_565 S
C538 C539 1.516 . S
C539 C538 1.516 . S
C539 C540 1.502 . S
C539 C541 1.561 . S
C539 C542 1.526 . S
C540 H524 0.959 . S
C540 H525 0.959 . S
C540 H526 0.961 . S
C540 C539 1.502 . S
C541 H527 0.960 . S
C541 H528 0.961 . S
C541 H529 0.959 . S
C541 C539 1.561 . S
C542 C539 1.526 . S
C542 C543 1.396 1_565 S
C542 C547 1.390 . S
C543 C537 1.465 . S
C543 C542 1.396 1_545 S
C543 C544 1.399 . S
C544 H530 0.929 . S
C544 C543 1.399 . S
C544 C545 1.385 . S
C545 H531 0.931 . S
C545 C544 1.385 . S
C545 C546 1.389 . S
C546 C545 1.389 . S
C546 C547 1.387 1_545 S
C547 H532 0.930 . S
C547 C542 1.390 . S
C547 C546 1.387 1_565 S
H548 C560 0.930 . S
H549 C562 0.930 . S
H550 C563 0.930 . S
H551 C567 0.959 . S
H552 C567 0.959 . S
H553 C567 0.961 . S
H554 C568 0.960 . S
H555 C568 0.961 . S
H556 C568 0.959 . S
H557 C571 0.929 . S
H558 C572 0.931 . S
H559 C574 0.930 . S
C560 H548 0.930 . S
C560 C561 1.399 . S
C560 C565 1.399 . S
C561 C560 1.399 . S
C561 C562 1.376 . S
C562 H549 0.930 . S
C562 C561 1.376 . S
C562 C563 1.388 . S
C563 H550 0.930 . S
C563 C562 1.388 . S
C563 C564 1.390 . S
C564 C563 1.390 . S
C564 C565 1.394 . S
C564 C570 1.465 . S
C565 C560 1.399 . S
C565 C564 1.394 . S
C565 C566 1.516 . S
C566 C565 1.516 . S
C566 C567 1.502 . S
C566 C568 1.561 . S
C566 C569 1.526 . S
C567 H551 0.959 . S
C567 H552 0.959 . S
C567 H553 0.961 . S
C567 C566 1.502 . S
C568 H554 0.960 . S
C568 H555 0.961 . S
C568 H556 0.959 . S
C568 C566 1.561 . S
C569 C566 1.526 . S
C569 C570 1.396 . S
C569 C574 1.390 . S
C570 C564 1.465 . S
C570 C569 1.396 . S
C570 C571 1.399 . S
C571 H557 0.929 . S
C571 C570 1.399 . S
C571 C572 1.385 . S
C572 H558 0.931 . S
C572 C571 1.385 . S
C572 C573 1.389 . S
C573 C572 1.389 . S
C573 C574 1.387 . S
C574 H559 0.930 . S
C574 C569 1.390 . S
C574 C573 1.387 . S
H575 C587 0.930 . S
H576 C589 0.930 . S
H577 C590 0.930 . S
H578 C594 0.959 . S
H579 C594 0.959 . S
H580 C594 0.961 . S
H581 C595 0.960 . S
H582 C595 0.961 . S
H583 C595 0.959 . S
H584 C598 0.929 . S
H585 C599 0.931 . S
H586 C601 0.930 1_455 S
C587 H575 0.930 . S
C587 C588 1.399 . S
C587 C592 1.399 . S
C588 C587 1.399 . S
C588 C589 1.376 1_455 S
C589 H576 0.930 . S
C589 C588 1.376 1_655 S
C589 C590 1.388 . S
C590 H577 0.930 . S
C590 C589 1.388 . S
C590 C591 1.390 . S
C591 C590 1.390 . S
C591 C592 1.394 1_655 S
C591 C597 1.465 . S
C592 C587 1.399 . S
C592 C591 1.394 1_455 S
C592 C593 1.516 . S
C593 C592 1.516 . S
C593 C594 1.502 . S
C593 C595 1.561 1_455 S
C593 C596 1.519 1_455 S
C594 H578 0.959 . S
C594 H579 0.959 . S
C594 H580 0.961 . S
C594 C593 1.502 . S
C595 H581 0.960 . S
C595 H582 0.961 . S
C595 H583 0.959 . S
C595 C593 1.561 1_655 S
C596 C593 1.519 1_655 S
C596 C597 1.403 . S
C596 C601 1.390 . S
C597 C591 1.465 . S
C597 C596 1.403 . S
C597 C598 1.399 . S
C598 H584 0.929 . S
C598 C597 1.399 . S
C598 C599 1.385 . S
C599 H585 0.931 . S
C599 C598 1.385 . S
C599 C600 1.389 . S
C600 C599 1.389 . S
C600 C601 1.387 . S
C601 H586 0.930 1_655 S
C601 C596 1.390 . S
C601 C600 1.387 . S
H602 C614 0.930 . S
H603 C616 0.930 . S
H604 C617 0.930 . S
H605 C621 0.960 . S
H606 C621 0.980 . S
H607 C621 0.940 1_655 S
H608 C622 0.960 1_655 S
H609 C622 0.961 . S
H610 C622 0.959 . S
H611 C625 0.929 . S
H612 C626 0.931 . S
H613 C628 0.930 . S
C614 H602 0.930 . S
C614 C615 1.399 . S
C614 C619 1.399 . S
C615 C614 1.399 . S
C615 C616 1.376 . S
C616 H603 0.930 . S
C616 C615 1.376 . S
C616 C617 1.388 . S
C617 H604 0.930 . S
C617 C616 1.388 . S
C617 C618 1.390 . S
C618 C617 1.390 . S
C618 C619 1.394 . S
C618 C624 1.465 1_655 S
C619 C614 1.399 . S
C619 C618 1.394 . S
C619 C620 1.516 1_655 S
C620 C619 1.516 1_455 S
C620 C621 1.502 . S
C620 C622 1.561 . S
C620 C623 1.526 . S
C621 H605 0.960 . S
C621 H606 0.980 . S
C621 H607 0.940 1_455 S
C621 C620 1.502 . S
C622 H608 0.960 1_455 S
C622 H609 0.961 . S
C622 H610 0.959 . S
C622 C620 1.561 . S
C623 C620 1.526 . S
C623 C624 1.396 . S
C623 C628 1.390 . S
C624 C618 1.465 1_455 S
C624 C623 1.396 . S
C624 C625 1.399 . S
C625 H611 0.929 . S
C625 C624 1.399 . S
C625 C626 1.385 . S
C626 H612 0.931 . S
C626 C625 1.385 . S
C626 C627 1.389 . S
C627 C626 1.389 . S
C627 C628 1.387 . S
C628 H613 0.930 . S
C628 C623 1.390 . S
C628 C627 1.387 . S
H629 C641 0.930 . S
H630 C643 0.930 . S
H631 C644 0.930 . S
H632 C648 0.959 . S
H633 C648 0.959 . S
H634 C648 0.961 . S
H635 C649 0.960 . S
H636 C649 0.961 . S
H637 C649 0.959 . S
H638 C652 0.929 . S
H639 C653 0.931 . S
H640 C655 0.930 . S
C641 H629 0.930 . S
C641 C642 1.399 . S
C641 C646 1.399 . S
C642 C641 1.399 . S
C642 C643 1.376 1_556 S
C643 H630 0.930 . S
C643 C642 1.376 1_554 S
C643 C644 1.388 . S
C644 H631 0.930 . S
C644 C643 1.388 . S
C644 C645 1.390 1_554 S
C645 C644 1.390 1_556 S
C645 C646 1.394 . S
C645 C651 1.465 . S
C646 C641 1.399 . S
C646 C645 1.394 . S
C646 C647 1.516 . S
C647 C646 1.516 . S
C647 C648 1.502 . S
C647 C649 1.561 . S
C647 C650 1.526 . S
C648 H632 0.959 . S
C648 H633 0.959 . S
C648 H634 0.961 . S
C648 C647 1.502 . S
C649 H635 0.960 . S
C649 H636 0.961 . S
C649 H637 0.959 . S
C649 C647 1.561 . S
C650 C647 1.526 . S
C650 C651 1.396 . S
C650 C655 1.390 . S
C651 C645 1.465 . S
C651 C650 1.396 . S
C651 C652 1.399 1_556 S
C652 H638 0.929 . S
C652 C651 1.399 1_554 S
C652 C653 1.385 . S
C653 H639 0.931 . S
C653 C652 1.385 . S
C653 C654 1.389 1_554 S
C654 C653 1.389 1_556 S
C654 C655 1.387 . S
C655 H640 0.930 . S
C655 C650 1.390 . S
C655 C654 1.387 . S
H656 C668 0.930 . S
H657 C670 0.930 . S
H658 C671 0.930 . S
H659 C675 0.959 . S
H660 C675 0.959 . S
H661 C675 0.961 . S
H662 C676 0.960 . S
H663 C676 0.961 . S
H664 C676 0.959 . S
H665 C679 0.929 . S
H666 C680 0.931 . S
H667 C682 0.930 . S
C668 H656 0.930 . S
C668 C669 1.399 . S
C668 C673 1.399 . S
C669 C668 1.399 . S
C669 C670 1.376 . S
C670 H657 0.930 . S
C670 C669 1.376 . S
C670 C671 1.388 . S
C671 H658 0.930 . S
C671 C670 1.388 . S
C671 C672 1.390 . S
C672 C671 1.390 . S
C672 C673 1.394 . S
C672 C678 1.465 . S
C673 C668 1.399 . S
C673 C672 1.394 . S
C673 C674 1.516 . S
C674 C673 1.516 . S
C674 C675 1.502 . S
C674 C676 1.561 . S
C674 C677 1.526 . S
C675 H659 0.959 . S
C675 H660 0.959 . S
C675 H661 0.961 . S
C675 C674 1.502 . S
C676 H662 0.960 . S
C676 H663 0.961 . S
C676 H664 0.959 . S
C676 C674 1.561 . S
C677 C674 1.526 . S
C677 C678 1.396 . S
C677 C682 1.390 . S
C678 C672 1.465 . S
C678 C677 1.396 . S
C678 C679 1.399 . S
C679 H665 0.929 . S
C679 C678 1.399 . S
C679 C680 1.385 . S
C680 H666 0.931 . S
C680 C679 1.385 . S
C680 C681 1.389 . S
C681 C680 1.389 . S
C681 C682 1.387 . S
C682 H667 0.930 . S
C682 C677 1.390 . S
C682 C681 1.387 . S
H683 C695 0.930 . S
H684 C697 0.930 . S
H685 C698 0.930 . S
H686 C702 0.959 . S
H687 C702 0.959 . S
H688 C702 0.961 . S
H689 C703 0.960 . S
H690 C703 0.961 . S
H691 C703 0.959 . S
H692 C706 0.929 . S
H693 C707 0.931 . S
H694 C709 0.930 . S
C695 H683 0.930 . S
C695 C696 1.399 . S
C695 C700 1.399 . S
C696 C695 1.399 . S
C696 C697 1.376 . S
C697 H684 0.930 . S
C697 C696 1.376 . S
C697 C698 1.388 . S
C698 H685 0.930 . S
C698 C697 1.388 . S
C698 C699 1.390 . S
C699 C698 1.390 . S
C699 C700 1.394 . S
C699 C705 1.465 . S
C700 C695 1.399 . S
C700 C699 1.394 . S
C700 C701 1.516 . S
C701 C700 1.516 . S
C701 C702 1.502 . S
C701 C703 1.561 . S
C701 C704 1.526 . S
C702 H686 0.959 . S
C702 H687 0.959 . S
C702 H688 0.961 . S
C702 C701 1.502 . S
C703 H689 0.960 . S
C703 H690 0.961 . S
C703 H691 0.959 . S
C703 C701 1.561 . S
C704 C701 1.526 . S
C704 C705 1.396 . S
C704 C709 1.390 . S
C705 C699 1.465 . S
C705 C704 1.396 . S
C705 C706 1.399 . S
C706 H692 0.929 . S
C706 C705 1.399 . S
C706 C707 1.385 . S
C707 H693 0.931 . S
C707 C706 1.385 . S
C707 C708 1.389 . S
C708 C707 1.389 . S
C708 C709 1.387 . S
C709 H694 0.930 . S
C709 C704 1.390 . S
C709 C708 1.387 . S
H710 C722 0.930 . S
H711 C724 0.930 . S
H712 C725 0.930 . S
H713 C729 0.959 . S
H714 C729 0.959 1_655 S
H715 C729 0.961 . S
H716 C730 0.960 1_455 S
H717 C730 0.961 . S
H718 C730 0.959 . S
H719 C733 0.929 . S
H720 C734 0.931 . S
H721 C736 0.930 . S
C722 H710 0.930 . S
C722 C723 1.399 . S
C722 C727 1.399 . S
C723 C722 1.399 . S
C723 C724 1.376 . S
C724 H711 0.930 . S
C724 C723 1.376 . S
C724 C725 1.388 . S
C725 H712 0.930 . S
C725 C724 1.388 . S
C725 C726 1.390 . S
C726 C725 1.390 . S
C726 C727 1.394 . S
C726 C732 1.465 1_455 S
C727 C722 1.399 . S
C727 C726 1.394 . S
C727 C728 1.523 . S
C728 C727 1.523 . S
C728 C729 1.502 . S
C728 C730 1.561 1_455 S
C728 C731 1.519 1_455 S
C729 H713 0.959 . S
C729 H714 0.959 1_455 S
C729 H715 0.961 . S
C729 C728 1.502 . S
C730 H716 0.960 1_655 S
C730 H717 0.961 . S
C730 H718 0.959 . S
C730 C728 1.561 1_655 S
C731 C728 1.519 1_655 S
C731 C732 1.396 . S
C731 C736 1.390 . S
C732 C726 1.465 1_655 S
C732 C731 1.396 . S
C732 C733 1.399 . S
C733 H719 0.929 . S
C733 C732 1.399 . S
C733 C734 1.385 . S
C734 H720 0.931 . S
C734 C733 1.385 . S
C734 C735 1.389 . S
C735 C734 1.389 . S
C735 C736 1.387 . S
C736 H721 0.930 . S
C736 C731 1.390 . S
C736 C735 1.387 . S
H737 C749 0.930 1_455 S
H738 C751 0.930 . S
H739 C752 0.930 . S
H740 C756 0.959 . S
H741 C756 0.959 . S
H742 C756 0.961 . S
H743 C757 0.960 . S
H744 C757 0.961 . S
H745 C757 0.959 . S
H746 C760 0.929 . S
H747 C761 0.935 . S
H748 C763 0.930 . S
C749 H737 0.930 1_655 S
C749 C750 1.399 . S
C749 C754 1.399 . S
C750 C749 1.399 . S
C750 C751 1.376 1_554 S
C751 H738 0.930 . S
C751 C750 1.376 1_556 S
C751 C752 1.388 . S
C752 H739 0.930 . S
C752 C751 1.388 . S
C752 C753 1.390 1_556 S
C753 C752 1.390 1_554 S
C753 C754 1.394 . S
C753 C759 1.465 . S
C754 C749 1.399 . S
C754 C753 1.394 . S
C754 C755 1.516 1_655 S
C755 C754 1.516 1_455 S
C755 C756 1.502 . S
C755 C757 1.561 1_455 S
C755 C758 1.526 . S
C756 H740 0.959 . S
C756 H741 0.959 . S
C756 H742 0.961 . S
C756 C755 1.502 . S
C757 H743 0.960 . S
C757 H744 0.961 . S
C757 H745 0.959 . S
C757 C755 1.561 1_655 S
C758 C755 1.526 . S
C758 C759 1.396 1_455 S
C758 C763 1.390 . S
C759 C753 1.465 . S
C759 C758 1.396 1_655 S
C759 C760 1.399 1_554 S
C760 H746 0.929 . S
C760 C759 1.399 1_556 S
C760 C761 1.394 . S
C761 H747 0.935 . S
C761 C760 1.394 . S
C761 C762 1.378 1_656 S
C762 C761 1.378 1_454 S
C762 C763 1.387 . S
C763 H748 0.930 . S
C763 C758 1.390 . S
C763 C762 1.387 . S
H764 C776 0.930 . S
H765 C778 0.930 . S
H766 C779 0.930 . S
H767 C783 0.959 . S
H768 C783 0.959 . S
H769 C783 0.961 . S
H770 C784 0.960 . S
H771 C784 0.961 . S
H772 C784 0.959 . S
H773 C787 0.929 . S
H774 C788 0.931 . S
H775 C790 0.930 . S
C776 H764 0.930 . S
C776 C777 1.399 . S
C776 C781 1.399 . S
C777 C776 1.399 . S
C777 C778 1.376 . S
C778 H765 0.930 . S
C778 C777 1.376 . S
C778 C779 1.388 . S
C779 H766 0.930 . S
C779 C778 1.388 . S
C779 C780 1.390 . S
C780 C779 1.390 . S
C780 C781 1.394 . S
C780 C786 1.465 . S
C781 C776 1.399 . S
C781 C780 1.394 . S
C781 C782 1.516 . S
C782 C781 1.516 . S
C782 C783 1.502 . S
C782 C784 1.561 . S
C782 C785 1.526 . S
C783 H767 0.959 . S
C783 H768 0.959 . S
C783 H769 0.961 . S
C783 C782 1.502 . S
C784 H770 0.960 . S
C784 H771 0.961 . S
C784 H772 0.959 . S
C784 C782 1.561 . S
C785 C782 1.526 . S
C785 C786 1.396 . S
C785 C790 1.390 . S
C786 C780 1.465 . S
C786 C785 1.396 . S
C786 C787 1.399 . S
C787 H773 0.929 . S
C787 C786 1.399 . S
C787 C788 1.385 . S
C788 H774 0.931 . S
C788 C787 1.385 . S
C788 C789 1.389 . S
C789 C788 1.389 . S
C789 C790 1.387 . S
C790 H775 0.930 . S
C790 C785 1.390 . S
C790 C789 1.387 . S
H791 C803 0.930 . S
H792 C805 0.930 . S
H793 C806 0.930 . S
H794 C810 0.959 . S
H795 C810 0.959 1_565 S
H796 C810 0.961 . S
H797 C811 0.960 . S
H798 C811 0.961 1_565 S
H799 C811 0.959 . S
H800 C814 0.929 . S
H801 C815 0.931 . S
H802 C817 0.930 . S
C803 H791 0.930 . S
C803 C804 1.399 . S
C803 C808 1.399 . S
C804 C803 1.399 . S
C804 C805 1.376 . S
C805 H792 0.930 . S
C805 C804 1.376 . S
C805 C806 1.388 . S
C806 H793 0.930 . S
C806 C805 1.388 . S
C806 C807 1.390 . S
C807 C806 1.390 . S
C807 C808 1.394 . S
C807 C813 1.465 1_545 S
C808 C803 1.399 . S
C808 C807 1.394 . S
C808 C809 1.516 . S
C809 C808 1.516 . S
C809 C810 1.502 . S
C809 C811 1.561 . S
C809 C812 1.526 1_545 S
C810 H794 0.959 . S
C810 H795 0.959 1_545 S
C810 H796 0.961 . S
C810 C809 1.502 . S
C811 H797 0.960 . S
C811 H798 0.961 1_545 S
C811 H799 0.959 . S
C811 C809 1.561 . S
C812 C809 1.526 1_565 S
C812 C813 1.396 . S
C812 C817 1.390 . S
C813 C807 1.465 1_565 S
C813 C812 1.396 . S
C813 C814 1.399 . S
C814 H800 0.929 . S
C814 C813 1.399 . S
C814 C815 1.385 . S
C815 H801 0.931 . S
C815 C814 1.385 . S
C815 C816 1.389 . S
C816 C815 1.389 . S
C816 C817 1.387 . S
C817 H802 0.930 . S
C817 C812 1.390 . S
C817 C816 1.387 . S
H818 C830 0.930 . S
H819 C832 0.930 . S
H820 C833 0.930 . S
H821 C837 0.959 . S
H822 C837 0.959 . S
H823 C837 0.961 . S
H824 C838 0.960 . S
H825 C838 0.961 1_554 S
H826 C838 0.959 . S
H827 C841 0.929 . S
H828 C842 0.931 . S
H829 C844 0.930 . S
C830 H818 0.930 . S
C830 C831 1.399 1_554 S
C830 C835 1.399 . S
C831 C830 1.399 1_556 S
C831 C832 1.376 . S
C832 H819 0.930 . S
C832 C831 1.376 . S
C832 C833 1.388 . S
C833 H820 0.930 . S
C833 C832 1.388 . S
C833 C834 1.390 . S
C834 C833 1.390 . S
C834 C835 1.394 1_556 S
C834 C840 1.465 . S
C835 C830 1.399 . S
C835 C834 1.394 1_554 S
C835 C836 1.516 . S
C836 C835 1.516 . S
C836 C837 1.502 . S
C836 C838 1.561 1_554 S
C836 C839 1.526 . S
C837 H821 0.959 . S
C837 H822 0.959 . S
C837 H823 0.961 . S
C837 C836 1.502 . S
C838 H824 0.960 . S
C838 H825 0.961 1_556 S
C838 H826 0.959 . S
C838 C836 1.561 1_556 S
C839 C836 1.526 . S
C839 C840 1.396 1_554 S
C839 C844 1.390 . S
C840 C834 1.465 . S
C840 C839 1.396 1_556 S
C840 C841 1.399 . S
C841 H827 0.929 . S
C841 C840 1.399 . S
C841 C842 1.385 . S
C842 H828 0.931 . S
C842 C841 1.385 . S
C842 C843 1.389 1_556 S
C843 C842 1.389 1_554 S
C843 C844 1.387 . S
C844 H829 0.930 . S
C844 C839 1.390 . S
C844 C843 1.387 . S
H845 C857 0.930 . S
H846 C859 0.930 . S
H847 C860 0.930 . S
H848 C864 0.955 1_565 S
H849 C864 0.941 1_565 S
H850 C864 0.983 . S
H851 C865 0.960 . S
H852 C865 0.961 1_565 S
H853 C865 0.959 . S
H854 C868 0.929 . S
H855 C869 0.931 . S
H856 C871 0.930 . S
C857 H845 0.930 . S
C857 C858 1.399 . S
C857 C862 1.399 . S
C858 C857 1.399 . S
C858 C859 1.376 . S
C859 H846 0.930 . S
C859 C858 1.376 . S
C859 C860 1.388 . S
C860 H847 0.930 . S
C860 C859 1.388 . S
C860 C861 1.390 . S
C861 C860 1.390 . S
C861 C862 1.394 . S
C861 C867 1.465 1_545 S
C862 C857 1.399 . S
C862 C861 1.394 . S
C862 C863 1.516 . S
C863 C862 1.516 . S
C863 C864 1.503 . S
C863 C865 1.561 . S
C863 C866 1.526 1_545 S
C864 H848 0.955 1_545 S
C864 H849 0.941 1_545 S
C864 H850 0.983 . S
C864 C863 1.503 . S
C865 H851 0.960 . S
C865 H852 0.961 1_545 S
C865 H853 0.959 . S
C865 C863 1.561 . S
C866 C863 1.526 1_565 S
C866 C867 1.396 . S
C866 C871 1.390 . S
C867 C861 1.465 1_565 S
C867 C866 1.396 . S
C867 C868 1.399 . S
C868 H854 0.929 . S
C868 C867 1.399 . S
C868 C869 1.385 . S
C869 H855 0.931 . S
C869 C868 1.385 . S
C869 C870 1.389 . S
C870 C869 1.389 . S
C870 C871 1.387 . S
C871 H856 0.930 . S
C871 C866 1.390 . S
C871 C870 1.387 . S
H872 C884 0.930 1_556 S
H873 C886 0.930 . S
H874 C887 0.930 . S
H875 C891 0.959 . S
H876 C891 0.959 . S
H877 C891 0.961 . S
H878 C892 0.960 . S
H879 C892 0.961 . S
H880 C892 0.959 . S
H881 C895 0.929 . S
H882 C896 0.931 . S
H883 C898 0.930 . S
C884 H872 0.930 1_554 S
C884 C885 1.399 . S
C884 C889 1.399 . S
C885 C884 1.399 . S
C885 C886 1.376 1_565 S
C886 H873 0.930 . S
C886 C885 1.376 1_545 S
C886 C887 1.388 . S
C887 H874 0.930 . S
C887 C886 1.388 . S
C887 C888 1.390 1_545 S
C888 C887 1.390 1_565 S
C888 C889 1.394 . S
C888 C894 1.465 . S
C889 C884 1.399 . S
C889 C888 1.394 . S
C889 C890 1.516 1_554 S
C890 C889 1.516 1_556 S
C890 C891 1.502 . S
C890 C892 1.561 1_556 S
C890 C893 1.526 . S
C891 H875 0.959 . S
C891 H876 0.959 . S
C891 H877 0.961 . S
C891 C890 1.502 . S
C892 H878 0.960 . S
C892 H879 0.961 . S
C892 H880 0.959 . S
C892 C890 1.561 1_554 S
C893 C890 1.526 . S
C893 C894 1.396 1_556 S
C893 C898 1.390 . S
C894 C888 1.465 . S
C894 C893 1.396 1_554 S
C894 C895 1.399 1_565 S
C895 H881 0.929 . S
C895 C894 1.399 1_545 S
C895 C896 1.385 . S
C896 H882 0.931 . S
C896 C895 1.385 . S
C896 C897 1.389 1_544 S
C897 C896 1.389 1_566 S
C897 C898 1.387 . S
C898 H883 0.930 . S
C898 C893 1.390 . S
C898 C897 1.387 . S
H899 C911 0.930 . S
H900 C913 0.930 . S
H901 C914 0.930 . S
H902 C918 0.959 . S
H903 C918 0.959 . S
H904 C918 0.961 . S
H905 C919 0.960 . S
H906 C919 0.961 . S
H907 C919 0.959 . S
H908 C922 0.929 . S
H909 C923 0.931 . S
H910 C925 0.930 . S
C911 H899 0.930 . S
C911 C912 1.399 . S
C911 C916 1.399 . S
C912 C911 1.399 . S
C912 C913 1.376 . S
C913 H900 0.930 . S
C913 C912 1.376 . S
C913 C914 1.388 . S
C914 H901 0.930 . S
C914 C913 1.388 . S
C914 C915 1.390 . S
C915 C914 1.390 . S
C915 C916 1.394 . S
C915 C921 1.465 . S
C916 C911 1.399 . S
C916 C915 1.394 . S
C916 C917 1.516 . S
C917 C916 1.516 . S
C917 C918 1.502 . S
C917 C919 1.561 . S
C917 C920 1.526 . S
C918 H902 0.959 . S
C918 H903 0.959 . S
C918 H904 0.961 . S
C918 C917 1.502 . S
C919 H905 0.960 . S
C919 H906 0.961 . S
C919 H907 0.959 . S
C919 C917 1.561 . S
C920 C917 1.526 . S
C920 C921 1.396 . S
C920 C925 1.390 . S
C921 C915 1.465 . S
C921 C920 1.396 . S
C921 C922 1.399 . S
C922 H908 0.929 . S
C922 C921 1.399 . S
C922 C923 1.385 . S
C923 H909 0.931 . S
C923 C922 1.385 . S
C923 C924 1.389 . S
C924 C923 1.389 . S
C924 C925 1.387 . S
C925 H910 0.930 . S
C925 C920 1.390 . S
C925 C924 1.387 . S
H926 C938 0.930 . S
H927 C940 0.930 . S
H928 C941 0.930 . S
H929 C945 0.959 . S
H930 C945 0.959 . S
H931 C945 0.961 . S
H932 C946 0.960 . S
H933 C946 0.961 . S
H934 C946 0.959 . S
H935 C949 0.929 . S
H936 C950 0.931 . S
H937 C952 0.930 . S
C938 H926 0.930 . S
C938 C939 1.399 . S
C938 C943 1.399 . S
C939 C938 1.399 . S
C939 C940 1.376 . S
C940 H927 0.930 . S
C940 C939 1.376 . S
C940 C941 1.388 . S
C941 H928 0.930 . S
C941 C940 1.388 . S
C941 C942 1.390 . S
C942 C941 1.390 . S
C942 C943 1.394 . S
C942 C948 1.465 . S
C943 C938 1.399 . S
C943 C942 1.394 . S
C943 C944 1.516 . S
C944 C943 1.516 . S
C944 C945 1.502 . S
C944 C946 1.561 . S
C944 C947 1.526 . S
C945 H929 0.959 . S
C945 H930 0.959 . S
C945 H931 0.961 . S
C945 C944 1.502 . S
C946 H932 0.960 . S
C946 H933 0.961 . S
C946 H934 0.959 . S
C946 C944 1.561 . S
C947 C944 1.526 . S
C947 C948 1.396 . S
C947 C952 1.390 . S
C948 C942 1.465 . S
C948 C947 1.396 . S
C948 C949 1.399 . S
C949 H935 0.929 . S
C949 C948 1.399 . S
C949 C950 1.385 . S
C950 H936 0.931 . S
C950 C949 1.385 . S
C950 C951 1.389 . S
C951 C950 1.389 . S
C951 C952 1.387 . S
C952 H937 0.930 . S
C952 C947 1.390 . S
C952 C951 1.387 . S
H953 C965 0.930 . S
H954 C967 0.930 . S
H955 C968 0.930 . S
H956 C972 0.959 . S
H957 C972 0.959 . S
H958 C972 0.961 1_556 S
H959 C973 0.960 . S
H960 C973 0.961 1_554 S
H961 C973 0.959 . S
H962 C976 0.929 . S
H963 C977 0.931 . S
H964 C979 0.930 . S
C965 H953 0.930 . S
C965 C966 1.399 . S
C965 C970 1.399 . S
C966 C965 1.399 . S
C966 C967 1.376 . S
C967 H954 0.930 . S
C967 C966 1.376 . S
C967 C968 1.388 . S
C968 H955 0.930 . S
C968 C967 1.388 . S
C968 C969 1.390 . S
C969 C968 1.390 . S
C969 C970 1.394 . S
C969 C975 1.465 1_556 S
C970 C965 1.399 . S
C970 C969 1.394 . S
C970 C971 1.516 1_556 S
C971 C970 1.516 1_554 S
C971 C972 1.502 . S
C971 C973 1.561 1_554 S
C971 C974 1.526 . S
C972 H956 0.959 . S
C972 H957 0.959 . S
C972 H958 0.961 1_554 S
C972 C971 1.502 . S
C973 H959 0.960 . S
C973 H960 0.961 1_556 S
C973 H961 0.959 . S
C973 C971 1.561 1_556 S
C974 C971 1.526 . S
C974 C975 1.396 . S
C974 C979 1.390 . S
C975 C969 1.465 1_554 S
C975 C974 1.396 . S
C975 C976 1.399 . S
C976 H962 0.929 . S
C976 C975 1.399 . S
C976 C977 1.385 . S
C977 H963 0.931 . S
C977 C976 1.385 . S
C977 C978 1.389 . S
C978 C977 1.389 . S
C978 C979 1.387 . S
C979 H964 0.930 . S
C979 C974 1.390 . S
C979 C978 1.387 . S
H980 C992 0.930 . S
H981 C994 0.930 . S
H982 C995 0.930 . S
H983 C999 0.959 . S
H984 C999 0.959 . S
H985 C999 0.961 . S
H986 C1000 0.960 . S
H987 C1000 0.961 . S
H988 C1000 0.959 . S
H989 C1003 0.929 . S
H990 C1004 0.931 . S
H991 C1006 0.930 . S
C992 H980 0.930 . S
C992 C993 1.399 . S
C992 C997 1.399 . S
C993 C992 1.399 . S
C993 C994 1.376 . S
C994 H981 0.930 . S
C994 C993 1.376 . S
C994 C995 1.388 . S
C995 H982 0.930 . S
C995 C994 1.388 . S
C995 C996 1.390 . S
C996 C995 1.390 . S
C996 C997 1.394 . S
C996 C1002 1.465 . S
C997 C992 1.399 . S
C997 C996 1.394 . S
C997 C998 1.516 . S
C998 C997 1.516 . S
C998 C999 1.502 . S
C998 C1000 1.561 . S
C998 C1001 1.526 . S
C999 H983 0.959 . S
C999 H984 0.959 . S
C999 H985 0.961 . S
C999 C998 1.502 . S
C1000 H986 0.960 . S
C1000 H987 0.961 . S
C1000 H988 0.959 . S
C1000 C998 1.561 . S
C1001 C998 1.526 . S
C1001 C1002 1.396 . S
C1001 C1006 1.390 . S
C1002 C996 1.465 . S
C1002 C1001 1.396 . S
C1002 C1003 1.399 . S
C1003 H989 0.929 . S
C1003 C1002 1.399 . S
C1003 C1004 1.385 . S
C1004 H990 0.931 . S
C1004 C1003 1.385 . S
C1004 C1005 1.389 . S
C1005 C1004 1.389 . S
C1005 C1006 1.387 . S
C1006 H991 0.930 . S
C1006 C1001 1.390 . S
C1006 C1005 1.387 . S
H1007 C1019 0.930 . S
H1008 C1021 0.930 . S
H1009 C1022 0.930 . S
H1010 C1026 0.959 . S
H1011 C1026 0.959 . S
H1012 C1026 0.961 . S
H1013 C1027 0.960 . S
H1014 C1027 0.961 . S
H1015 C1027 0.959 . S
H1016 C1030 0.929 . S
H1017 C1031 0.931 . S
H1018 C1033 0.930 . S
C1019 H1007 0.930 . S
C1019 C1020 1.399 . S
C1019 C1024 1.399 . S
C1020 C1019 1.399 . S
C1020 C1021 1.376 . S
C1021 H1008 0.930 . S
C1021 C1020 1.376 . S
C1021 C1022 1.388 . S
C1022 H1009 0.930 . S
C1022 C1021 1.388 . S
C1022 C1023 1.390 . S
C1023 C1022 1.390 . S
C1023 C1024 1.394 . S
C1023 C1029 1.465 . S
C1024 C1019 1.399 . S
C1024 C1023 1.394 . S
C1024 C1025 1.516 . S
C1025 C1024 1.516 . S
C1025 C1026 1.502 . S
C1025 C1027 1.561 . S
C1025 C1028 1.526 . S
C1026 H1010 0.959 . S
C1026 H1011 0.959 . S
C1026 H1012 0.961 . S
C1026 C1025 1.502 . S
C1027 H1013 0.960 . S
C1027 H1014 0.961 . S
C1027 H1015 0.959 . S
C1027 C1025 1.561 . S
C1028 C1025 1.526 . S
C1028 C1029 1.396 . S
C1028 C1033 1.390 . S
C1029 C1023 1.465 . S
C1029 C1028 1.396 . S
C1029 C1030 1.399 . S
C1030 H1016 0.929 . S
C1030 C1029 1.399 . S
C1030 C1031 1.385 . S
C1031 H1017 0.931 . S
C1031 C1030 1.385 . S
C1031 C1032 1.389 . S
C1032 C1031 1.389 . S
C1032 C1033 1.387 . S
C1033 H1018 0.930 . S
C1033 C1028 1.390 . S
C1033 C1032 1.387 . S
H1034 C1046 0.930 . S
H1035 C1048 0.930 1_655 S
H1036 C1049 0.930 1_655 S
H1037 C1053 0.959 . S
H1038 C1053 0.959 . S
H1039 C1053 0.961 . S
H1040 C1054 0.960 . S
H1041 C1054 0.961 . S
H1042 C1054 0.959 1_655 S
H1043 C1057 0.929 1_655 S
H1044 C1058 0.931 . S
H1045 C1060 0.930 . S
C1046 H1034 0.930 . S
C1046 C1047 1.399 . S
C1046 C1051 1.399 . S
C1047 C1046 1.399 . S
C1047 C1048 1.376 . S
C1048 H1035 0.930 1_455 S
C1048 C1047 1.376 . S
C1048 C1049 1.388 . S
C1049 H1036 0.930 1_455 S
C1049 C1048 1.388 . S
C1049 C1050 1.390 . S
C1050 C1049 1.390 . S
C1050 C1051 1.394 . S
C1050 C1056 1.465 . S
C1051 C1046 1.399 . S
C1051 C1050 1.394 . S
C1051 C1052 1.516 . S
C1052 C1051 1.516 . S
C1052 C1053 1.502 . S
C1052 C1054 1.561 . S
C1052 C1055 1.526 . S
C1053 H1037 0.959 . S
C1053 H1038 0.959 . S
C1053 H1039 0.961 . S
C1053 C1052 1.502 . S
C1054 H1040 0.960 . S
C1054 H1041 0.961 . S
C1054 H1042 0.959 1_455 S
C1054 C1052 1.561 . S
C1055 C1052 1.526 . S
C1055 C1056 1.396 . S
C1055 C1060 1.390 . S
C1056 C1050 1.465 . S
C1056 C1055 1.396 . S
C1056 C1057 1.399 . S
C1057 H1043 0.929 1_455 S
C1057 C1056 1.399 . S
C1057 C1058 1.385 . S
C1058 H1044 0.931 . S
C1058 C1057 1.385 . S
C1058 C1059 1.389 . S
C1059 C1058 1.389 . S
C1059 C1060 1.387 . S
C1060 H1045 0.930 . S
C1060 C1055 1.390 . S
C1060 C1059 1.387 . S
H1061 C1073 0.930 . S
H1062 C1075 0.930 . S
H1063 C1076 0.930 . S
H1064 C1080 0.959 . S
H1065 C1080 0.959 . S
H1066 C1080 0.961 . S
H1067 C1081 0.960 . S
H1068 C1081 0.961 . S
H1069 C1081 0.959 . S
H1070 C1084 0.929 . S
H1071 C1085 0.931 . S
H1072 C1087 0.938 . S
C1073 H1061 0.930 . S
C1073 C1074 1.399 1_565 S
C1073 C1078 1.399 1_565 S
C1074 C1073 1.399 1_545 S
C1074 C1075 1.376 . S
C1075 H1062 0.930 . S
C1075 C1074 1.376 . S
C1075 C1076 1.388 . S
C1076 H1063 0.930 . S
C1076 C1075 1.388 . S
C1076 C1077 1.390 . S
C1077 C1076 1.390 . S
C1077 C1078 1.394 . S
C1077 C1083 1.465 . S
C1078 C1073 1.399 1_545 S
C1078 C1077 1.394 . S
C1078 C1079 1.516 1_545 S
C1079 C1078 1.516 1_565 S
C1079 C1080 1.502 . S
C1079 C1081 1.561 . S
C1079 C1082 1.526 1_565 S
C1080 H1064 0.959 . S
C1080 H1065 0.959 . S
C1080 H1066 0.961 . S
C1080 C1079 1.502 . S
C1081 H1067 0.960 . S
C1081 H1068 0.961 . S
C1081 H1069 0.959 . S
C1081 C1079 1.561 . S
C1082 C1079 1.526 1_545 S
C1082 C1083 1.396 . S
C1082 C1087 1.388 1_545 S
C1083 C1077 1.465 . S
C1083 C1082 1.396 . S
C1083 C1084 1.399 . S
C1084 H1070 0.929 . S
C1084 C1083 1.399 . S
C1084 C1085 1.385 . S
C1085 H1071 0.931 . S
C1085 C1084 1.385 . S
C1085 C1086 1.389 . S
C1086 C1085 1.389 . S
C1086 C1087 1.380 1_545 S
C1087 H1072 0.938 . S
C1087 C1082 1.388 1_565 S
C1087 C1086 1.380 1_565 S
C237 C8 1.760 . S
C249 C106 1.748 . S
C264 C22 1.760 . S
C276 C64 1.749 . S
C291 C78 1.756 . S
C303 C36 1.758 . S
C318 C50 1.754 . S
C330 C92 1.759 . S
C345 C120 1.760 . S
C357 C176 1.751 . S
C372 C134 1.760 . S
C384 C204 1.749 . S
C399 C162 1.760 . S
C411 C148 1.748 . S
C426 C218 1.760 . S
C438 C190 1.749 . S
C453 C3 0.757 . S
C465 C87 0.756 . S
C480 C105 1.419 1_545 S
C492 C21 1.503 1_565 S
C507 C31 0.753 . S
C519 C59 0.753 . S
C534 C77 1.430 1_565 S
C546 C49 1.502 1_545 S
C561 C9 1.398 . S
C573 C205 1.351 . S
C588 C157 0.796 . S
C600 C17 0.799 . S
C615 C191 1.396 . S
C627 C37 1.397 . S
C642 C171 0.752 . S
C654 C45 0.753 . S
C669 C149 1.406 . S
C681 C65 1.380 . S
C696 C73 0.801 . S
C708 C213 0.803 . S
C723 C93 1.406 . S
C735 C121 1.382 . S
C750 C101 0.759 . S
C762 C129 0.757 . S
C777 C7 1.462 . S
C789 C63 1.392 . S
C804 C119 1.485 . S
C816 C189 1.390 . S
C831 C177 1.407 . S
C843 C135 1.373 . S
C858 C203 1.432 . S
C870 C147 1.407 . S
C885 C107 1.405 . S
C897 C51 1.384 . S
C912 C35 1.434 . S
C924 C91 1.501 . S
C939 C163 1.346 . S
C951 C219 1.373 . S
C966 C185 0.798 . S
C978 C143 0.800 . S
C993 C217 1.469 . S
C1005 C175 1.482 . S
C1020 C199 0.755 . S
C1032 C115 0.754 . S
C1047 C161 1.427 . S
C1059 C133 1.503 . S
C1074 C23 1.347 . S
C1086 C79 1.370 . S
