# Generated by pormake.
# Topology mmt, (4)-cn, num edge types: 1
# Building blocks:
#     Node 0, Type 0, BuildingBlock: QUQFOY_clean_sbu_1, # of connection points: 4
#     Node 1, Type 0, BuildingBlock: QUQFOY_clean_sbu_1, # of connection points: 4
#     Node 2, Type 0, BuildingBlock: QUQFOY_clean_sbu_1, # of connection points: 4
#     Node 3, Type 0, BuildingBlock: QUQFOY_clean_sbu_1, # of connection points: 4
#     Node 4, Type 0, BuildingBlock: QUQFOY_clean_sbu_1, # of connection points: 4
#     Node 5, Type 0, BuildingBlock: QUQFOY_clean_sbu_1, # of connection points: 4
#     Node 6, Type 0, BuildingBlock: QUQFOY_clean_sbu_1, # of connection points: 4
#     Node 7, Type 0, BuildingBlock: QUQFOY_clean_sbu_1, # of connection points: 4
#     Edge 8, Type (0, 0), BuildingBlock: FUNLAD_clean_linker_0, # of connection points: 2
#     Edge 9, Type (0, 0), BuildingBlock: FUNLAD_clean_linker_0, # of connection points: 2
#     Edge 10, Type (0, 0), BuildingBlock: FUNLAD_clean_linker_0, # of connection points: 2
#     Edge 11, Type (0, 0), BuildingBlock: FUNLAD_clean_linker_0, # of connection points: 2
#     Edge 12, Type (0, 0), BuildingBlock: FUNLAD_clean_linker_0, # of connection points: 2
#     Edge 13, Type (0, 0), BuildingBlock: FUNLAD_clean_linker_0, # of connection points: 2
#     Edge 14, Type (0, 0), BuildingBlock: FUNLAD_clean_linker_0, # of connection points: 2
#     Edge 15, Type (0, 0), BuildingBlock: FUNLAD_clean_linker_0, # of connection points: 2
#     Edge 16, Type (0, 0), BuildingBlock: FUNLAD_clean_linker_0, # of connection points: 2
#     Edge 17, Type (0, 0), BuildingBlock: FUNLAD_clean_linker_0, # of connection points: 2
#     Edge 18, Type (0, 0), BuildingBlock: FUNLAD_clean_linker_0, # of connection points: 2
#     Edge 19, Type (0, 0), BuildingBlock: FUNLAD_clean_linker_0, # of connection points: 2
#     Edge 20, Type (0, 0), BuildingBlock: FUNLAD_clean_linker_0, # of connection points: 2
#     Edge 21, Type (0, 0), BuildingBlock: FUNLAD_clean_linker_0, # of connection points: 2
#     Edge 22, Type (0, 0), BuildingBlock: FUNLAD_clean_linker_0, # of connection points: 2
#     Edge 23, Type (0, 0), BuildingBlock: FUNLAD_clean_linker_0, # of connection points: 2
# Relax obj value: 0.022
# Max RMSD: 0.102
# Mean RMSD: 0.102
data_MOF--net-mmt--node1-QUQFOY_clean_sbu_1--edge1-FUNLAD_clean_linker_0
_symmetry_space_group_name_H-M    P1
_symmetry_Int_Tables_number       1
_symmetry_cell_setting            triclinic
loop_
_symmetry_equiv_pos_as_xyz
'x, y, z'
_cell_length_a     25.892668
_cell_length_b     48.714041
_cell_length_c     53.562901
_cell_angle_alpha  90.071529
_cell_angle_beta   90.104908
_cell_angle_gamma 89.935448
loop_
_atom_site_label
_atom_site_type_symbol
_atom_site_fract_x
_atom_site_fract_y
_atom_site_fract_z
_atom_type_partial_charge
O0 O 0.18742 0.56987 0.3256 0.0
Cd1 Cd 0.12659 0.59409 0.33697 0.0
Cd2 Cd 0.10877 0.5466 0.36593 0.0
O3 O 0.17852 0.53451 0.35093 0.0
O4 O 0.14199 0.62976 0.32055 0.0
O5 O 0.13932 0.62514 0.3615 0.0
C6 C 0.14692 0.64065 0.34232 0.0
C7 C 0.08997 0.5357 0.40742 0.0
C8 C 0.20288 0.54674 0.33365 0.0
C9 C 0.0296 0.5626 0.32668 0.0
O10 O 0.04552 0.5453 0.34268 0.0
O11 O 0.05505 0.58436 0.32239 0.0
O12 O 0.09282 0.51711 0.39039 0.0
O13 O 0.09965 0.56075 0.40109 0.0
O14 O 0.29455 0.94083 0.32666 0.0
Cd15 Cd 0.35719 0.91828 0.33876 0.0
Cd16 Cd 0.37474 0.9675 0.36329 0.0
O17 O 0.30458 0.97901 0.34831 0.0
O18 O 0.34077 0.88128 0.32515 0.0
O19 O 0.34681 0.88942 0.36556 0.0
C20 C 0.33728 0.87236 0.34768 0.0
C21 C 0.3936 0.97562 0.40527 0.0
C22 C 0.27917 0.96471 0.33271 0.0
C23 C 0.45228 0.94955 0.32451 0.0
O24 O 0.43669 0.96813 0.33937 0.0
O25 O 0.42755 0.92714 0.32241 0.0
O26 O 0.39197 0.99532 0.38925 0.0
O27 O 0.38288 0.95112 0.39755 0.0
O28 O 0.68704 0.45099 0.19027 0.0
Cd29 Cd 0.62769 0.4253 0.17995 0.0
Cd30 Cd 0.60673 0.47325 0.15036 0.0
O31 O 0.67627 0.48631 0.16501 0.0
O32 O 0.64749 0.39136 0.19829 0.0
O33 O 0.64288 0.39285 0.15722 0.0
C34 C 0.65348 0.37913 0.1772 0.0
C35 C 0.5847 0.48501 0.10936 0.0
C36 C 0.70146 0.47425 0.18218 0.0
C37 C 0.52939 0.45568 0.19013 0.0
O38 O 0.54435 0.47306 0.17404 0.0
O39 O 0.55581 0.43422 0.19456 0.0
O40 O 0.58744 0.50314 0.1268 0.0
O41 O 0.59663 0.46 0.11493 0.0
O42 O 0.79228 0.07339 0.19157 0.0
Cd43 Cd 0.85462 0.09659 0.18045 0.0
Cd44 Cd 0.87344 0.04765 0.15518 0.0
O45 O 0.80354 0.03542 0.16976 0.0
O46 O 0.83631 0.13278 0.19528 0.0
O47 O 0.84398 0.12661 0.15467 0.0
C48 C 0.83295 0.14269 0.17309 0.0
C49 C 0.89272 0.04038 0.11315 0.0
C50 C 0.77752 0.0495 0.18527 0.0
C51 C 0.95028 0.0654 0.19454 0.0
O52 O 0.93528 0.04708 0.17926 0.0
O53 O 0.92495 0.08762 0.197 0.0
O54 O 0.89159 0.0204 0.12889 0.0
O55 O 0.88127 0.06467 0.12119 0.0
O56 O 0.77743 0.44834 0.68537 0.0
Cd57 Cd 0.84063 0.42504 0.67541 0.0
Cd58 Cd 0.86288 0.47604 0.65235 0.0
O59 O 0.79118 0.48725 0.66543 0.0
O60 O 0.82029 0.38928 0.69027 0.0
O61 O 0.83156 0.39458 0.6498 0.0
C62 C 0.81861 0.37894 0.66819 0.0
C63 C 0.88768 0.48808 0.61196 0.0
C64 C 0.76338 0.4725 0.67956 0.0
C65 C 0.93503 0.45548 0.69281 0.0
O66 O 0.92156 0.47469 0.67815 0.0
O67 O 0.90952 0.43321 0.69362 0.0
O68 O 0.88358 0.50617 0.62941 0.0
O69 O 0.8762 0.46294 0.61727 0.0
O70 O 0.68202 0.07198 0.68801 0.0
Cd71 Cd 0.61931 0.09585 0.67836 0.0
Cd72 Cd 0.59759 0.0454 0.65389 0.0
O73 O 0.66855 0.03334 0.66747 0.0
O74 O 0.63873 0.13029 0.69598 0.0
O75 O 0.63076 0.12829 0.65508 0.0
C76 C 0.6423 0.14237 0.67474 0.0
C77 C 0.57521 0.03737 0.61231 0.0
C78 C 0.69609 0.04787 0.682 0.0
C79 C 0.52396 0.06478 0.69393 0.0
O80 O 0.53779 0.04583 0.67904 0.0
O81 O 0.54956 0.08699 0.69538 0.0
O82 O 0.5771 0.01771 0.62838 0.0
O83 O 0.58748 0.06176 0.61976 0.0
O84 O 0.2774 0.57214 0.82779 0.0
Cd85 Cd 0.34003 0.59622 0.83702 0.0
Cd86 Cd 0.36321 0.54498 0.86116 0.0
O87 O 0.29124 0.53364 0.84845 0.0
O88 O 0.31951 0.63056 0.81959 0.0
O89 O 0.32884 0.62867 0.86041 0.0
C90 C 0.31645 0.64267 0.84086 0.0
C91 C 0.39002 0.53306 0.90135 0.0
C92 C 0.26338 0.54814 0.83405 0.0
C93 C 0.43478 0.56528 0.82046 0.0
O94 O 0.42119 0.54614 0.83512 0.0
O95 O 0.40941 0.58762 0.81951 0.0
O96 O 0.38515 0.51493 0.88399 0.0
O97 O 0.37782 0.55814 0.89613 0.0
O98 O 0.18234 0.94871 0.83052 0.0
Cd99 Cd 0.11931 0.92565 0.84099 0.0
Cd100 Cd 0.09824 0.97571 0.86412 0.0
O101 O 0.1691 0.98769 0.85052 0.0
O102 O 0.13898 0.88971 0.82616 0.0
O103 O 0.12887 0.89538 0.86668 0.0
C104 C 0.14118 0.87955 0.84828 0.0
C105 C 0.07618 0.98304 0.90577 0.0
C106 C 0.19649 0.97291 0.83616 0.0
C107 C 0.0245 0.95619 0.82421 0.0
O108 O 0.03833 0.97531 0.83893 0.0
O109 O 0.05002 0.93391 0.82315 0.0
O110 O 0.07781 1.00298 0.88998 0.0
O111 O 0.0886 0.95878 0.898 0.0
C112 C 0.27051 0.54555 0.30047 0.0
C113 C 0.24682 0.53301 0.3211 0.0
C114 C 0.30775 0.53157 0.28664 0.0
C115 C 0.32216 0.50465 0.29306 0.0
C116 C 0.30078 0.49264 0.31447 0.0
C117 C 0.2631 0.50659 0.32828 0.0
C118 C 0.35983 0.48908 0.27772 0.0
C119 C 0.36138 0.49183 0.2527 0.0
C120 C 0.40171 0.47976 0.23632 0.0
C121 C 0.40894 0.49155 0.2127 0.0
C122 C 0.44917 0.48291 0.19733 0.0
C123 C 0.48288 0.46197 0.20508 0.0
H124 H 0.4286 0.44758 0.26135 0.0
C125 C 0.47397 0.44897 0.22809 0.0
C126 C 0.4338 0.45781 0.24364 0.0
H127 H 0.49915 0.43266 0.23451 0.0
H128 H 0.25948 0.56599 0.29457 0.0
H129 H 0.32507 0.54189 0.27085 0.0
H130 H 0.312 0.4721 0.32004 0.0
H131 H 0.24587 0.49641 0.34418 0.0
H132 H 0.38634 0.47546 0.28734 0.0
H133 H 0.33311 0.50507 0.24371 0.0
H134 H 0.38449 0.50825 0.20643 0.0
H135 H 0.4546 0.49318 0.1796 0.0
C136 C 0.02148 0.03444 0.20871 0.0
C137 C -0.00508 0.0595 0.21103 0.0
C138 C 0.05941 0.02707 0.22594 0.0
C139 C 0.07162 0.04452 0.24602 0.0
C140 C 0.0474 0.07025 0.24757 0.0
C141 C 0.0091 0.07764 0.23033 0.0
C142 C 0.1096 0.03613 0.26537 0.0
C143 C 0.11383 0.00978 0.27279 0.0
C144 C 0.15384 0.9991 0.29021 0.0
C145 C 0.16272 0.97068 0.29049 0.0
C146 C 0.2022 0.95948 0.30499 0.0
C147 C 0.23359 0.97644 0.31983 0.0
H148 H 0.17736 0.03795 0.30683 0.0
C149 C 0.22322 1.00477 0.3206 0.0
C150 C 0.18376 0.01605 0.3059 0.0
H151 H 0.24659 0.01837 0.33195 0.0
H152 H 0.01219 0.02013 0.19388 0.0
H153 H 0.07892 1.00757 0.22355 0.0
H154 H 0.05686 0.08425 0.26263 0.0
H155 H -0.01036 0.09718 0.23256 0.0
H156 H 0.13372 0.05199 0.2735 0.0
H157 H 0.0877 0.99469 0.26477 0.0
H158 H 0.14 0.95706 0.27883 0.0
H159 H 0.2088 0.93754 0.3041 0.0
C160 C 0.77229 0.47466 0.21382 0.0
C161 C 0.74538 0.48816 0.1946 0.0
C162 C 0.80949 0.48848 0.22781 0.0
C163 C 0.8206 0.51621 0.22302 0.0
C164 C 0.79607 0.5293 0.2029 0.0
C165 C 0.75846 0.51546 0.18889 0.0
C166 C 0.85795 0.53151 0.23878 0.0
C167 C 0.86182 0.52673 0.26351 0.0
C168 C 0.9021 0.53851 0.28013 0.0
C169 C 0.91143 0.52535 0.303 0.0
C170 C 0.95162 0.53386 0.31851 0.0
C171 C 0.98323 0.556 0.31166 0.0
H172 H 0.92536 0.57278 0.25667 0.0
C173 C 0.97229 0.5702 0.28942 0.0
C174 C 0.93214 0.56153 0.27375 0.0
H175 H -0.00421 0.58746 0.28369 0.0
H176 H 0.76387 0.45352 0.21852 0.0
H177 H 0.82932 0.47739 0.24249 0.0
H178 H 0.80474 0.55052 0.19856 0.0
H179 H 0.73868 0.5264 0.17409 0.0
H180 H 0.88222 0.54663 0.22974 0.0
H181 H 0.83555 0.51204 0.27195 0.0
H182 H 0.8886 0.50776 0.30856 0.0
H183 H 0.95864 0.52262 0.33562 0.0
C184 C 0.72313 0.00906 0.19769 0.0
C185 C 0.73194 0.03754 0.19781 0.0
C186 C 0.6838 0.9977 0.21232 0.0
C187 C 0.65245 0.01472 0.22726 0.0
C188 C 0.65969 0.04324 0.22624 0.0
C189 C 0.69905 0.05452 0.21183 0.0
C190 C 0.61274 1.00405 0.24473 0.0
C191 C 0.61031 0.97801 0.25313 0.0
C192 C 0.57276 0.96988 0.27267 0.0
C193 C 0.54986 0.9438 0.27192 0.0
C194 C 0.51187 0.93662 0.28932 0.0
C195 C 0.49675 0.95533 0.30798 0.0
H196 H 0.57817 1.00778 0.2939 0.0
C197 C 0.52207 0.98079 0.30953 0.0
C198 C 0.55965 0.98795 0.29214 0.0
H199 H 0.51202 0.99557 0.32386 0.0
H200 H 0.7477 0.99545 0.18697 0.0
H201 H 0.67865 0.97569 0.21198 0.0
H202 H 0.63583 0.0569 0.2373 0.0
H203 H 0.70443 0.07657 0.21217 0.0
H204 H 0.5854 0.01898 0.25204 0.0
H205 H 0.63568 0.96227 0.24574 0.0
H206 H 0.56004 0.92933 0.25735 0.0
H207 H 0.49339 0.91677 0.28769 0.0
C208 C 0.50369 0.5349 0.80314 0.0
C209 C 0.47815 0.56038 0.80301 0.0
C210 C 0.54076 0.52878 0.78516 0.0
C211 C 0.55317 0.54795 0.76653 0.0
C212 C 0.52989 0.57397 0.76713 0.0
C213 C 0.49235 0.58009 0.78511 0.0
C214 C 0.59076 0.54103 0.74662 0.0
C215 C 0.59322 0.51552 0.73691 0.0
C216 C 0.63401 0.5056 0.71963 0.0
C217 C 0.64093 0.47713 0.71739 0.0
C218 C 0.6817 0.46643 0.7035 0.0
C219 C 0.71634 0.48396 0.69123 0.0
H220 H 0.66225 0.54526 0.70691 0.0
C221 C 0.70779 0.51246 0.69217 0.0
C222 C 0.66704 0.52323 0.7063 0.0
H223 H 0.73371 0.52649 0.68279 0.0
H224 H 0.49435 0.51934 0.81683 0.0
H225 H 0.55958 0.50893 0.78586 0.0
H226 H 0.53957 0.58925 0.75323 0.0
H227 H 0.47367 0.59999 0.78461 0.0
H228 H 0.61654 0.5571 0.74032 0.0
H229 H 0.56538 0.50034 0.7432 0.0
H230 H 0.6158 0.46302 0.7272 0.0
H231 H 0.68685 0.44436 0.70295 0.0
C232 C 0.75091 1.00782 0.69524 0.0
C233 C 0.74298 0.03633 0.69381 0.0
C234 C 0.79155 0.99713 0.70957 0.0
C235 C 0.82511 0.01487 0.72259 0.0
C236 C 0.81879 0.04332 0.71983 0.0
C237 C 0.77812 0.05393 0.70577 0.0
C238 C 0.86589 1.00514 0.74003 0.0
C239 C 0.86797 0.97987 0.75021 0.0
C240 C 0.90575 0.97319 0.77017 0.0
C241 C 0.92829 0.94701 0.77123 0.0
C242 C 0.96593 0.94103 0.78925 0.0
C243 C 0.98097 0.96106 0.80678 0.0
H244 H 0.90085 0.01275 0.78876 0.0
C245 C 0.9562 0.98674 0.80646 0.0
C246 C 0.91905 0.99273 0.78841 0.0
H247 H 0.96626 1.00256 0.81983 0.0
H248 H 0.72458 0.99374 0.68612 0.0
H249 H 0.79586 0.97509 0.71059 0.0
H250 H 0.84431 0.0575 0.72938 0.0
H251 H 0.77346 0.07601 0.70483 0.0
H252 H 0.89412 0.02031 0.746 0.0
H253 H 0.84176 0.96381 0.74422 0.0
H254 H 0.91795 0.93146 0.75763 0.0
H255 H 0.984 0.92097 0.78908 0.0
C256 C 0.20808 0.50803 0.82157 0.0
C257 C 0.21622 0.53654 0.82256 0.0
C258 C 0.16728 0.49718 0.80747 0.0
C259 C 0.13378 0.51475 0.79424 0.0
C260 C 0.14028 0.54323 0.79658 0.0
C261 C 0.1811 0.55401 0.81042 0.0
C262 C 0.093 0.50479 0.77692 0.0
C263 C 0.09066 0.47929 0.76718 0.0
C264 C 0.05318 0.47244 0.74714 0.0
C265 C 0.02971 0.4465 0.74647 0.0
C266 C -0.00774 0.44049 0.72836 0.0
C267 C 0.97835 0.46024 0.71038 0.0
H268 H 0.06004 0.51142 0.7278 0.0
C269 C 0.00411 0.48562 0.71033 0.0
C270 C 0.04107 0.49163 0.72844 0.0
H271 H -0.00501 0.50119 0.69659 0.0
H272 H 0.23438 0.49405 0.83085 0.0
H273 H 0.16285 0.47513 0.80678 0.0
H274 H 0.11481 0.5573 0.78685 0.0
H275 H 0.18594 0.57609 0.81101 0.0
H276 H 0.06508 0.51996 0.77058 0.0
H277 H 0.11646 0.4632 0.77353 0.0
H278 H 0.03916 0.43121 0.76042 0.0
H279 H 0.97341 0.42066 0.72881 0.0
C280 C 0.25137 0.01275 0.8227 0.0
C281 C 0.2431 0.98427 0.82406 0.0
C282 C 0.29167 0.02332 0.80819 0.0
C283 C 0.32454 1.0055 0.79487 0.0
C284 C 0.31789 0.97706 0.79751 0.0
C285 C 0.27757 0.96657 0.81178 0.0
C286 C 0.36502 0.01515 0.77732 0.0
C287 C 0.3673 0.04053 0.76738 0.0
C288 C 0.40504 0.04735 0.74752 0.0
C289 C 0.42757 0.07351 0.74673 0.0
C290 C 0.46523 0.07963 0.72884 0.0
C291 C 0.48031 0.05978 0.71117 0.0
H292 H 0.40017 1.00799 0.72857 0.0
C293 C 0.45554 0.03412 0.71121 0.0
C294 C 0.41836 0.02798 0.72913 0.0
H295 H 0.46565 0.01842 0.69773 0.0
H296 H 0.22557 0.02691 0.83207 0.0
H297 H 0.29627 0.04534 0.80729 0.0
H298 H 0.3429 0.96281 0.78773 0.0
H299 H 0.27265 0.9445 0.81263 0.0
H300 H 0.39291 0.9999 0.77114 0.0
H301 H 0.3414 0.05665 0.77358 0.0
H302 H 0.41722 0.08893 0.76043 0.0
H303 H 0.48329 0.09967 0.72922 0.0
C304 C 0.05985 0.54877 0.45037 0.0
C305 C 0.07313 0.52839 0.43294 0.0
C306 C 0.03935 0.54155 0.47363 0.0
C307 C 0.03174 0.51375 0.47986 0.0
C308 C 0.04709 0.49346 0.46281 0.0
C309 C 0.06722 0.50066 0.43957 0.0
C310 C 0.00834 0.50494 0.50389 0.0
C311 C 0.9756 0.52065 0.51724 0.0
C312 C 0.95158 0.51152 0.541 0.0
C313 C 0.93681 0.53147 0.55849 0.0
C314 C 0.91525 0.52383 0.58132 0.0
C315 C 0.90725 0.496 0.58705 0.0
H316 H 0.95134 0.4677 0.53305 0.0
C317 C 0.92029 0.47601 0.56922 0.0
C318 C 0.94224 0.48366 0.54641 0.0
H319 H 0.91427 0.45441 0.57302 0.0
H320 H 0.06427 0.57031 0.44587 0.0
H321 H 0.02975 0.55781 0.48659 0.0
H322 H 0.04231 0.47191 0.46722 0.0
H323 H 0.07738 0.48443 0.42664 0.0
H324 H 0.01745 0.48435 0.51029 0.0
H325 H 0.96651 0.54127 0.51094 0.0
H326 H 0.94292 0.55307 0.5547 0.0
H327 H 0.90533 0.53978 0.59458 0.0
C328 C 0.42182 1.00788 0.43901 0.0
C329 C 0.40963 0.98103 0.43137 0.0
C330 C 0.44009 0.01304 0.46312 0.0
C331 C 0.44695 0.99138 0.48017 0.0
C332 C 0.43318 0.96467 0.47278 0.0
C333 C 0.41493 0.9595 0.44861 0.0
C334 C 0.46741 0.99584 0.50586 0.0
C335 C 0.49749 0.01735 0.51233 0.0
C336 C 0.51832 0.02177 0.53796 0.0
C337 C 0.53313 0.04839 0.54515 0.0
C338 C 0.55233 0.05351 0.56916 0.0
C339 C 0.55753 0.03202 0.58644 0.0
H340 H 0.51585 0.97917 0.55012 0.0
C341 C 0.54404 1.00526 0.57905 0.0
C342 C 0.52484 1.00015 0.55509 0.0
H343 H 0.54804 0.98817 0.59182 0.0
H344 H 0.41767 0.025 0.42627 0.0
H345 H 0.44825 0.03407 0.46826 0.0
H346 H 0.43744 0.94764 0.48561 0.0
H347 H 0.40571 0.93859 0.44336 0.0
H348 H 0.45781 0.98042 0.51968 0.0
H349 H 0.5071 0.03274 0.49848 0.0
H350 H 0.52914 0.06539 0.53227 0.0
H351 H 0.56252 0.07434 0.57423 0.0
C352 C 0.55371 0.47259 0.06634 0.0
C353 C 0.56514 0.49268 0.08433 0.0
C354 C 0.53047 0.4799 0.04366 0.0
C355 C 0.51857 0.50758 0.03845 0.0
C356 C 0.53104 0.5276 0.05632 0.0
C357 C 0.5541 0.5203 0.07893 0.0
C358 C 0.49116 0.51652 0.01536 0.0
C359 C 0.4878 0.50133 0.99437 0.0
C360 C 0.46012 0.51031 0.97135 0.0
C361 C 0.44705 0.49033 0.95354 0.0
C362 C 0.42303 0.49768 0.93116 0.0
C363 C 0.41162 0.52531 0.92596 0.0
H364 H 0.45867 0.55428 0.97902 0.0
C365 C 0.42399 0.54537 0.94384 0.0
C366 C 0.4482 0.53801 0.96626 0.0
H367 H 0.4162 0.56686 0.94027 0.0
H368 H 0.56127 0.4511 0.07005 0.0
H369 H 0.52053 0.46362 0.0308 0.0
H370 H 0.52233 0.54904 0.05293 0.0
H371 H 0.56232 0.53633 0.09239 0.0
H372 H 0.47315 0.53661 0.01595 0.0
H373 H 0.50573 0.48121 0.99377 0.0
H374 H 0.45582 0.46888 0.95684 0.0
H375 H 0.41414 0.48169 0.91777 0.0
C376 C 0.04462 0.0145 0.93943 0.0
C377 C 0.05854 0.98792 0.93169 0.0
C378 C 0.02534 0.01914 0.96342 0.0
C379 C 0.01916 0.9972 0.98023 0.0
C380 C 0.03444 0.97077 0.9727 0.0
C381 C 0.05371 0.96612 0.94867 0.0
C382 C -0.00183 1.00111 1.00586 0.0
C383 C 0.96756 0.02234 0.01253 0.0
C384 C 0.94685 0.02624 0.03821 0.0
C385 C 0.93245 0.05274 0.04595 0.0
C386 C 0.91393 0.05739 0.07013 0.0
C387 C 0.90901 0.03553 0.08703 0.0
H388 H 0.949 0.98335 0.04949 0.0
C389 C 0.92184 0.00888 0.07904 0.0
C390 C 0.94036 1.00424 0.05492 0.0
H391 H 0.91798 0.99151 0.0915 0.0
H392 H 0.04833 0.03182 0.9269 0.0
H393 H 0.01597 0.03999 0.96867 0.0
H394 H 0.03071 0.95353 0.98534 0.0
H395 H 0.06423 0.94541 0.94332 0.0
H396 H 0.00808 0.98554 0.01953 0.0
H397 H 0.95767 0.03794 0.99889 0.0
H398 H 0.93641 0.07003 0.03339 0.0
H399 H 0.90422 0.07815 0.07566 0.0
C400 C 0.18125 0.68051 0.36737 0.0
C401 C 0.16256 0.66976 0.34472 0.0
C402 C 0.19999 0.70752 0.36859 0.0
C403 C 0.19996 0.72426 0.34713 0.0
C404 C 0.1794 0.71366 0.32485 0.0
C405 C 0.16125 0.68678 0.3236 0.0
C406 C 0.22147 0.75258 0.34646 0.0
C407 C 0.25336 0.76364 0.36369 0.0
C408 C 0.27769 0.79099 0.35982 0.0
C409 C 0.28769 0.80828 0.38028 0.0
C410 C 0.30843 0.83457 0.37661 0.0
C411 C 0.32005 0.84384 0.3524 0.0
H412 H 0.28675 0.78669 0.31967 0.0
C413 C 0.31231 0.82596 0.33214 0.0
C414 C 0.29166 0.79987 0.33579 0.0
H415 H 0.32156 0.83223 0.31327 0.0
H416 H 0.18257 0.66788 0.38399 0.0
H417 H 0.21446 0.715 0.38627 0.0
H418 H 0.17844 0.72604 0.30806 0.0
H419 H 0.14675 0.67924 0.3059 0.0
H420 H 0.21204 0.76467 0.33002 0.0
H421 H 0.26216 0.75277 0.38084 0.0
H422 H 0.27812 0.80174 0.39903 0.0
H423 H 0.3142 0.84782 0.39262 0.0
C424 C 0.79846 0.1867 0.19002 0.0
C425 C 0.81431 0.17116 0.16929 0.0
C426 C 0.77771 0.2129 0.18696 0.0
C427 C 0.773 0.22461 0.16304 0.0
C428 C 0.78877 0.20907 0.14225 0.0
C429 C 0.80937 0.18262 0.14533 0.0
C430 C 0.74947 0.2523 0.15932 0.0
C431 C 0.74921 0.27157 0.17743 0.0
C432 C 0.72214 0.29849 0.17605 0.0
C433 C 0.71174 0.31205 0.19861 0.0
C434 C 0.68814 0.33775 0.19882 0.0
C435 C 0.67465 0.35086 0.17639 0.0
H436 H 0.7159 0.30174 0.13565 0.0
C437 C 0.68435 0.33728 0.15367 0.0
C438 C 0.70786 0.31128 0.15347 0.0
H439 H 0.6747 0.34694 0.13607 0.0
H440 H 0.8009 0.17841 0.20874 0.0
H441 H 0.76408 0.22341 0.20347 0.0
H442 H 0.78501 0.21738 0.12358 0.0
H443 H 0.82082 0.17107 0.12895 0.0
H444 H 0.73146 0.25652 0.14142 0.0
H445 H 0.76882 0.26728 0.19492 0.0
H446 H 0.72217 0.30275 0.2163 0.0
H447 H 0.68136 0.34755 0.21668 0.0
C448 C 0.67162 0.18394 0.65049 0.0
C449 C 0.66205 0.17086 0.67343 0.0
C450 C 0.69441 0.2101 0.64989 0.0
C451 C 0.70803 0.22352 0.67228 0.0
C452 C 0.69751 0.2105 0.69505 0.0
C453 C 0.67469 0.18465 0.69565 0.0
C454 C 0.73451 0.25058 0.67333 0.0
C455 C 0.73568 0.26926 0.65477 0.0
C456 C 0.75857 0.2971 0.65834 0.0
C457 C 0.77698 0.31188 0.63766 0.0
C458 C 0.7975 0.33835 0.64067 0.0
C459 C 0.7997 0.35053 0.66447 0.0
H460 H 0.74448 0.29967 0.69836 0.0
C461 C 0.78099 0.33578 0.68505 0.0
C462 C 0.76031 0.3096 0.68204 0.0
H463 H 0.78121 0.34466 0.7036 0.0
H464 H 0.6626 0.17375 0.63304 0.0
H465 H 0.70247 0.21923 0.63193 0.0
H466 H 0.70735 0.2203 0.7126 0.0
H467 H 0.6679 0.17527 0.71367 0.0
H468 H 0.75302 0.25553 0.69096 0.0
H469 H 0.7191 0.26446 0.63667 0.0
H470 H 0.7755 0.30294 0.61914 0.0
H471 H 0.81118 0.34931 0.6244 0.0
C472 C 0.28791 0.68433 0.86535 0.0
C473 C 0.29637 0.67112 0.84234 0.0
C474 C 0.26495 0.71047 0.86616 0.0
C475 C 0.25002 0.72372 0.8439 0.0
C476 C 0.25937 0.71055 0.82105 0.0
C477 C 0.28238 0.68473 0.82024 0.0
C478 C 0.22343 0.75079 0.84309 0.0
C479 C 0.22353 0.76968 0.86152 0.0
C480 C 0.20071 0.79755 0.85803 0.0
C481 C 0.18342 0.81263 0.87881 0.0
C482 C 0.16304 0.83915 0.87584 0.0
C483 C 0.1599 0.85109 0.85199 0.0
H484 H 0.21298 0.79963 0.81786 0.0
C485 C 0.17749 0.83603 0.83131 0.0
C486 C 0.19801 0.80981 0.83428 0.0
H487 H 0.17652 0.84472 0.81271 0.0
H488 H 0.29799 0.67428 0.88271 0.0
H489 H 0.25781 0.71974 0.88418 0.0
H490 H 0.2485 0.72023 0.80359 0.0
H491 H 0.28827 0.67524 0.80217 0.0
H492 H 0.20382 0.75559 0.8257 0.0
H493 H 0.24122 0.76504 0.8794 0.0
H494 H 0.18567 0.80388 0.89737 0.0
H495 H 0.15024 0.85035 0.89218 0.0
loop_
_geom_bond_atom_site_label_1
_geom_bond_atom_site_label_2
_geom_bond_distance
_geom_bond_site_symmetry_2
_ccdc_geom_bond_type
O0 Cd1 2.223 . S
O0 C8 1.315 . S
Cd1 O0 2.223 . S
Cd1 O4 2.297 . S
Cd1 O5 2.439 . S
Cd1 O11 2.240 . S
Cd2 O3 2.240 . S
Cd2 O10 2.223 . S
Cd2 O12 2.297 . S
Cd2 O13 2.439 . S
O3 Cd2 2.240 . S
O3 C8 1.279 . S
O4 Cd1 2.297 . S
O4 C6 1.247 . S
O5 Cd1 2.439 . S
O5 C6 1.208 . S
C6 O4 1.247 . S
C6 O5 1.208 . S
C7 O12 1.247 . S
C7 O13 1.208 . S
C8 O0 1.315 . S
C8 O3 1.279 . S
C9 O10 1.315 . S
C9 O11 1.279 . S
O10 Cd2 2.223 . S
O10 C9 1.315 . S
O11 Cd1 2.240 . S
O11 C9 1.279 . S
O12 Cd2 2.297 . S
O12 C7 1.247 . S
O13 Cd2 2.439 . S
O13 C7 1.208 . S
O14 Cd15 2.223 . S
O14 C22 1.315 . S
Cd15 O14 2.223 . S
Cd15 O18 2.297 . S
Cd15 O19 2.439 . S
Cd15 O25 2.240 . S
Cd16 O17 2.240 . S
Cd16 O24 2.223 . S
Cd16 O26 2.297 . S
Cd16 O27 2.439 . S
O17 Cd16 2.240 . S
O17 C22 1.279 . S
O18 Cd15 2.297 . S
O18 C20 1.247 . S
O19 Cd15 2.439 . S
O19 C20 1.208 . S
C20 O18 1.247 . S
C20 O19 1.208 . S
C21 O26 1.247 . S
C21 O27 1.208 . S
C22 O14 1.315 . S
C22 O17 1.279 . S
C23 O24 1.315 . S
C23 O25 1.279 . S
O24 Cd16 2.223 . S
O24 C23 1.315 . S
O25 Cd15 2.240 . S
O25 C23 1.279 . S
O26 Cd16 2.297 . S
O26 C21 1.247 . S
O27 Cd16 2.439 . S
O27 C21 1.208 . S
O28 Cd29 2.223 . S
O28 C36 1.315 . S
Cd29 O28 2.223 . S
Cd29 O32 2.297 . S
Cd29 O33 2.439 . S
Cd29 O39 2.240 . S
Cd30 O31 2.240 . S
Cd30 O38 2.223 . S
Cd30 O40 2.297 . S
Cd30 O41 2.439 . S
O31 Cd30 2.240 . S
O31 C36 1.279 . S
O32 Cd29 2.297 . S
O32 C34 1.247 . S
O33 Cd29 2.439 . S
O33 C34 1.208 . S
C34 O32 1.247 . S
C34 O33 1.208 . S
C35 O40 1.247 . S
C35 O41 1.208 . S
C36 O28 1.315 . S
C36 O31 1.279 . S
C37 O38 1.315 . S
C37 O39 1.279 . S
O38 Cd30 2.223 . S
O38 C37 1.315 . S
O39 Cd29 2.240 . S
O39 C37 1.279 . S
O40 Cd30 2.297 . S
O40 C35 1.247 . S
O41 Cd30 2.439 . S
O41 C35 1.208 . S
O42 Cd43 2.223 . S
O42 C50 1.315 . S
Cd43 O42 2.223 . S
Cd43 O46 2.297 . S
Cd43 O47 2.439 . S
Cd43 O53 2.240 . S
Cd44 O45 2.240 . S
Cd44 O52 2.223 . S
Cd44 O54 2.297 . S
Cd44 O55 2.439 . S
O45 Cd44 2.240 . S
O45 C50 1.279 . S
O46 Cd43 2.297 . S
O46 C48 1.247 . S
O47 Cd43 2.439 . S
O47 C48 1.208 . S
C48 O46 1.247 . S
C48 O47 1.208 . S
C49 O54 1.247 . S
C49 O55 1.208 . S
C50 O42 1.315 . S
C50 O45 1.279 . S
C51 O52 1.315 . S
C51 O53 1.279 . S
O52 Cd44 2.223 . S
O52 C51 1.315 . S
O53 Cd43 2.240 . S
O53 C51 1.279 . S
O54 Cd44 2.297 . S
O54 C49 1.247 . S
O55 Cd44 2.439 . S
O55 C49 1.208 . S
O56 Cd57 2.223 . S
O56 C64 1.315 . S
Cd57 O56 2.223 . S
Cd57 O60 2.297 . S
Cd57 O61 2.439 . S
Cd57 O67 2.240 . S
Cd58 O59 2.240 . S
Cd58 O66 2.223 . S
Cd58 O68 2.297 . S
Cd58 O69 2.439 . S
O59 Cd58 2.240 . S
O59 C64 1.279 . S
O60 Cd57 2.297 . S
O60 C62 1.247 . S
O61 Cd57 2.439 . S
O61 C62 1.208 . S
C62 O60 1.247 . S
C62 O61 1.208 . S
C63 O68 1.247 . S
C63 O69 1.208 . S
C64 O56 1.315 . S
C64 O59 1.279 . S
C65 O66 1.315 . S
C65 O67 1.279 . S
O66 Cd58 2.223 . S
O66 C65 1.315 . S
O67 Cd57 2.240 . S
O67 C65 1.279 . S
O68 Cd58 2.297 . S
O68 C63 1.247 . S
O69 Cd58 2.439 . S
O69 C63 1.208 . S
O70 Cd71 2.223 . S
O70 C78 1.315 . S
Cd71 O70 2.223 . S
Cd71 O74 2.297 . S
Cd71 O75 2.439 . S
Cd71 O81 2.240 . S
Cd72 O73 2.240 . S
Cd72 O80 2.223 . S
Cd72 O82 2.297 . S
Cd72 O83 2.439 . S
O73 Cd72 2.240 . S
O73 C78 1.279 . S
O74 Cd71 2.297 . S
O74 C76 1.247 . S
O75 Cd71 2.439 . S
O75 C76 1.208 . S
C76 O74 1.247 . S
C76 O75 1.208 . S
C77 O82 1.247 . S
C77 O83 1.208 . S
C78 O70 1.315 . S
C78 O73 1.279 . S
C79 O80 1.315 . S
C79 O81 1.279 . S
O80 Cd72 2.223 . S
O80 C79 1.315 . S
O81 Cd71 2.240 . S
O81 C79 1.279 . S
O82 Cd72 2.297 . S
O82 C77 1.247 . S
O83 Cd72 2.439 . S
O83 C77 1.208 . S
O84 Cd85 2.223 . S
O84 C92 1.315 . S
Cd85 O84 2.223 . S
Cd85 O88 2.297 . S
Cd85 O89 2.439 . S
Cd85 O95 2.240 . S
Cd86 O87 2.240 . S
Cd86 O94 2.223 . S
Cd86 O96 2.297 . S
Cd86 O97 2.439 . S
O87 Cd86 2.240 . S
O87 C92 1.279 . S
O88 Cd85 2.297 . S
O88 C90 1.247 . S
O89 Cd85 2.439 . S
O89 C90 1.208 . S
C90 O88 1.247 . S
C90 O89 1.208 . S
C91 O96 1.247 . S
C91 O97 1.208 . S
C92 O84 1.315 . S
C92 O87 1.279 . S
C93 O94 1.315 . S
C93 O95 1.279 . S
O94 Cd86 2.223 . S
O94 C93 1.315 . S
O95 Cd85 2.240 . S
O95 C93 1.279 . S
O96 Cd86 2.297 . S
O96 C91 1.247 . S
O97 Cd86 2.439 . S
O97 C91 1.208 . S
O98 Cd99 2.223 . S
O98 C106 1.315 . S
Cd99 O98 2.223 . S
Cd99 O102 2.297 . S
Cd99 O103 2.439 . S
Cd99 O109 2.240 . S
Cd100 O101 2.240 . S
Cd100 O108 2.223 . S
Cd100 O110 2.297 . S
Cd100 O111 2.439 . S
O101 Cd100 2.240 . S
O101 C106 1.279 . S
O102 Cd99 2.297 . S
O102 C104 1.247 . S
O103 Cd99 2.439 . S
O103 C104 1.208 . S
C104 O102 1.247 . S
C104 O103 1.208 . S
C105 O110 1.247 . S
C105 O111 1.208 . S
C106 O98 1.315 . S
C106 O101 1.279 . S
C107 O108 1.315 . S
C107 O109 1.279 . S
O108 Cd100 2.223 . S
O108 C107 1.315 . S
O109 Cd99 2.240 . S
O109 C107 1.279 . S
O110 Cd100 2.297 . S
O110 C105 1.247 . S
O111 Cd100 2.439 . S
O111 C105 1.208 . S
C112 C113 1.386 . S
C112 C114 1.383 . S
C112 H128 0.951 . S
C113 C112 1.386 . S
C113 C117 1.383 . S
C114 C112 1.383 . S
C114 C115 1.402 . S
C114 H129 0.951 . S
C115 C114 1.402 . S
C115 C116 1.375 . S
C115 C118 1.481 . S
C116 C115 1.375 . S
C116 C117 1.367 . S
C116 H130 0.951 . S
C117 C113 1.383 . S
C117 C116 1.367 . S
C117 H131 0.950 . S
C118 C115 1.481 . S
C118 C119 1.297 . S
C118 H132 0.950 . S
C119 C118 1.297 . S
C119 C120 1.479 . S
C119 H133 0.950 . S
C120 C119 1.479 . S
C120 C121 1.375 . S
C120 C126 1.404 . S
C121 C120 1.375 . S
C121 C122 1.369 . S
C121 H134 0.950 . S
C122 C121 1.369 . S
C122 C123 1.392 . S
C122 H135 0.951 . S
C123 C122 1.392 . S
C123 C125 1.384 . S
H124 C126 0.949 . S
C125 C123 1.384 . S
C125 C126 1.385 . S
C125 H127 0.950 . S
C126 C120 1.404 . S
C126 H124 0.949 . S
C126 C125 1.385 . S
H127 C125 0.950 . S
H128 C112 0.951 . S
H129 C114 0.951 . S
H130 C116 0.951 . S
H131 C117 0.950 . S
H132 C118 0.950 . S
H133 C119 0.950 . S
H134 C121 0.950 . S
H135 C122 0.951 . S
C136 C137 1.386 1_455 S
C136 C138 1.383 . S
C136 H152 0.951 . S
C137 C136 1.386 1_655 S
C137 C141 1.383 . S
C138 C136 1.383 . S
C138 C139 1.402 . S
C138 H153 0.951 . S
C139 C138 1.402 . S
C139 C140 1.375 . S
C139 C142 1.481 . S
C140 C139 1.375 . S
C140 C141 1.367 1_455 S
C140 H154 0.951 . S
C141 C137 1.383 . S
C141 C140 1.367 1_655 S
C141 H155 0.950 . S
C142 C139 1.481 . S
C142 C143 1.297 . S
C142 H156 0.950 . S
C143 C142 1.297 . S
C143 C144 1.479 1_545 S
C143 H157 0.950 . S
C144 C143 1.479 1_565 S
C144 C145 1.375 . S
C144 C150 1.404 . S
C145 C144 1.375 . S
C145 C146 1.369 . S
C145 H158 0.950 . S
C146 C145 1.369 . S
C146 C147 1.392 . S
C146 H159 0.951 . S
C147 C146 1.392 . S
C147 C149 1.384 . S
H148 C150 0.954 . S
C149 C147 1.384 . S
C149 C150 1.385 . S
C149 H151 0.950 . S
C150 C144 1.404 . S
C150 H148 0.954 . S
C150 C149 1.385 . S
H151 C149 0.950 . S
H152 C136 0.951 . S
H153 C138 0.951 . S
H154 C140 0.951 . S
H155 C141 0.950 . S
H156 C142 0.950 . S
H157 C143 0.950 . S
H158 C145 0.950 . S
H159 C146 0.951 . S
C160 C161 1.386 . S
C160 C162 1.383 . S
C160 H176 0.951 . S
C161 C160 1.386 . S
C161 C165 1.383 . S
C162 C160 1.383 . S
C162 C163 1.402 . S
C162 H177 0.951 . S
C163 C162 1.402 . S
C163 C164 1.375 . S
C163 C166 1.481 . S
C164 C163 1.375 . S
C164 C165 1.367 . S
C164 H178 0.951 . S
C165 C161 1.383 . S
C165 C164 1.367 . S
C165 H179 0.950 . S
C166 C163 1.481 . S
C166 C167 1.297 . S
C166 H180 0.950 . S
C167 C166 1.297 . S
C167 C168 1.479 . S
C167 H181 0.950 . S
C168 C167 1.479 . S
C168 C169 1.375 . S
C168 C174 1.404 . S
C169 C168 1.375 . S
C169 C170 1.369 . S
C169 H182 0.950 . S
C170 C169 1.369 . S
C170 C171 1.392 1_655 S
C170 H183 0.951 . S
C171 C170 1.392 1_455 S
C171 C173 1.384 . S
H172 C174 0.949 . S
C173 C171 1.384 . S
C173 C174 1.385 1_455 S
C173 H175 0.950 . S
C174 C168 1.404 . S
C174 H172 0.949 . S
C174 C173 1.385 1_655 S
H175 C173 0.950 . S
H176 C160 0.951 . S
H177 C162 0.951 . S
H178 C164 0.951 . S
H179 C165 0.950 . S
H180 C166 0.950 . S
H181 C167 0.950 . S
H182 C169 0.950 . S
H183 C170 0.951 . S
C184 C185 1.386 . S
C184 C186 1.383 . S
C184 H200 0.951 . S
C185 C184 1.386 . S
C185 C189 1.383 . S
C186 C184 1.383 . S
C186 C187 1.402 . S
C186 H201 0.928 1_545 S
C187 C186 1.402 . S
C187 C188 1.375 . S
C187 C190 1.481 . S
C188 C187 1.375 . S
C188 C189 1.367 . S
C188 H202 0.951 . S
C189 C185 1.383 . S
C189 C188 1.367 . S
C189 H203 0.950 . S
C190 C187 1.481 . S
C190 C191 1.297 1_545 S
C190 H204 0.950 . S
C191 C190 1.297 1_565 S
C191 C192 1.479 . S
C191 H205 0.950 . S
C192 C191 1.479 . S
C192 C193 1.375 . S
C192 C198 1.404 . S
C193 C192 1.375 . S
C193 C194 1.369 . S
C193 H206 0.950 . S
C194 C193 1.369 . S
C194 C195 1.392 . S
C194 H207 0.951 . S
C195 C194 1.392 . S
C195 C197 1.384 . S
H196 C198 0.949 . S
C197 C195 1.384 . S
C197 C198 1.385 . S
C197 H199 0.950 . S
C198 C192 1.404 . S
C198 H196 0.949 . S
C198 C197 1.385 . S
H199 C197 0.950 . S
H200 C184 0.951 . S
H201 C186 0.928 1_565 S
H202 C188 0.951 . S
H203 C189 0.950 . S
H204 C190 0.950 . S
H205 C191 0.950 . S
H206 C193 0.950 . S
H207 C194 0.951 . S
C208 C209 1.386 . S
C208 C210 1.383 . S
C208 H224 0.951 . S
C209 C208 1.386 . S
C209 C213 1.383 . S
C210 C208 1.383 . S
C210 C211 1.402 . S
C210 H225 0.951 . S
C211 C210 1.402 . S
C211 C212 1.375 . S
C211 C214 1.481 . S
C212 C211 1.375 . S
C212 C213 1.367 . S
C212 H226 0.951 . S
C213 C209 1.383 . S
C213 C212 1.367 . S
C213 H227 0.950 . S
C214 C211 1.481 . S
C214 C215 1.297 . S
C214 H228 0.950 . S
C215 C214 1.297 . S
C215 C216 1.479 . S
C215 H229 0.950 . S
C216 C215 1.479 . S
C216 C217 1.375 . S
C216 C222 1.404 . S
C217 C216 1.375 . S
C217 C218 1.369 . S
C217 H230 0.950 . S
C218 C217 1.369 . S
C218 C219 1.392 . S
C218 H231 0.951 . S
C219 C218 1.392 . S
C219 C221 1.384 . S
H220 C222 0.949 . S
C221 C219 1.384 . S
C221 C222 1.385 . S
C221 H223 0.950 . S
C222 C216 1.404 . S
C222 H220 0.949 . S
C222 C221 1.385 . S
H223 C221 0.950 . S
H224 C208 0.951 . S
H225 C210 0.951 . S
H226 C212 0.951 . S
H227 C213 0.950 . S
H228 C214 0.950 . S
H229 C215 0.950 . S
H230 C217 0.950 . S
H231 C218 0.951 . S
C232 C233 1.386 . S
C232 C234 1.383 . S
C232 H248 0.951 . S
C233 C232 1.386 . S
C233 C237 1.383 . S
C234 C232 1.383 . S
C234 C235 1.402 . S
C234 H249 0.951 1_545 S
C235 C234 1.402 . S
C235 C236 1.375 . S
C235 C238 1.481 . S
C236 C235 1.375 . S
C236 C237 1.367 . S
C236 H250 0.951 . S
C237 C233 1.383 . S
C237 C236 1.367 . S
C237 H251 0.950 . S
C238 C235 1.481 . S
C238 C239 1.270 1_545 S
C238 H252 0.950 . S
C239 C238 1.270 1_565 S
C239 C240 1.488 . S
C239 H253 0.971 . S
C240 C239 1.488 . S
C240 C241 1.375 . S
C240 C246 1.404 1_565 S
C241 C240 1.375 . S
C241 C242 1.369 . S
C241 H254 0.950 . S
C242 C241 1.369 . S
C242 C243 1.392 1_655 S
C242 H255 0.951 1_655 S
C243 C242 1.392 1_455 S
C243 C245 1.384 . S
H244 C246 0.949 . S
C245 C243 1.384 . S
C245 C246 1.385 1_465 S
C245 H247 0.950 1_565 S
C246 C240 1.404 1_545 S
C246 H244 0.949 . S
C246 C245 1.385 1_645 S
H247 C245 0.950 1_545 S
H248 C232 0.951 . S
H249 C234 0.951 1_565 S
H250 C236 0.951 . S
H251 C237 0.950 . S
H252 C238 0.950 . S
H253 C239 0.971 . S
H254 C241 0.950 . S
H255 C242 0.951 1_455 S
C256 C257 1.386 . S
C256 C258 1.383 . S
C256 H272 0.951 . S
C257 C256 1.386 . S
C257 C261 1.383 . S
C258 C256 1.383 . S
C258 C259 1.402 . S
C258 H273 0.951 . S
C259 C258 1.402 . S
C259 C260 1.375 . S
C259 C262 1.481 . S
C260 C259 1.375 . S
C260 C261 1.367 . S
C260 H274 0.951 . S
C261 C257 1.383 . S
C261 C260 1.367 . S
C261 H275 0.950 . S
C262 C259 1.481 . S
C262 C263 1.297 . S
C262 H276 0.950 . S
C263 C262 1.297 . S
C263 C264 1.479 . S
C263 H277 0.950 . S
C264 C263 1.479 . S
C264 C265 1.375 . S
C264 C270 1.404 . S
C265 C264 1.375 . S
C265 C266 1.369 1_455 S
C265 H278 0.950 . S
C266 C265 1.369 1_655 S
C266 C267 1.392 . S
C266 H279 0.951 . S
C267 C266 1.392 . S
C267 C269 1.384 1_655 S
H268 C270 0.949 . S
C269 C267 1.384 1_455 S
C269 C270 1.385 . S
C269 H271 0.950 1_455 S
C270 C264 1.404 . S
C270 H268 0.949 . S
C270 C269 1.385 . S
H271 C269 0.950 1_655 S
H272 C256 0.951 . S
H273 C258 0.951 . S
H274 C260 0.951 . S
H275 C261 0.950 . S
H276 C262 0.950 . S
H277 C263 0.950 . S
H278 C265 0.950 . S
H279 C266 0.951 . S
C280 C281 1.386 . S
C280 C282 1.383 . S
C280 H296 0.973 . S
C281 C280 1.386 . S
C281 C285 1.383 . S
C282 C280 1.383 . S
C282 C283 1.402 . S
C282 H297 0.951 1_565 S
C283 C282 1.402 . S
C283 C284 1.375 . S
C283 C286 1.481 . S
C284 C283 1.375 . S
C284 C285 1.367 . S
C284 H298 0.951 . S
C285 C281 1.383 . S
C285 C284 1.367 . S
C285 H299 0.950 . S
C286 C283 1.481 . S
C286 C287 1.297 1_565 S
C286 H300 0.950 . S
C287 C286 1.297 1_545 S
C287 C288 1.479 . S
C287 H301 0.950 . S
C288 C287 1.479 . S
C288 C289 1.375 . S
C288 C294 1.404 1_545 S
C289 C288 1.375 . S
C289 C290 1.369 . S
C289 H302 0.950 . S
C290 C289 1.369 . S
C290 C291 1.392 . S
C290 H303 0.951 . S
C291 C290 1.392 . S
C291 C293 1.384 . S
H292 C294 0.949 . S
C293 C291 1.384 . S
C293 C294 1.385 1_545 S
C293 H295 0.950 1_545 S
C294 C288 1.404 1_565 S
C294 H292 0.949 . S
C294 C293 1.385 1_565 S
H295 C293 0.950 1_565 S
H296 C280 0.973 . S
H297 C282 0.951 1_545 S
H298 C284 0.951 . S
H299 C285 0.950 . S
H300 C286 0.950 . S
H301 C287 0.950 . S
H302 C289 0.950 . S
H303 C290 0.951 . S
C304 C305 1.386 . S
C304 C306 1.383 1_455 S
C304 H320 0.951 1_455 S
C305 C304 1.386 . S
C305 C309 1.383 . S
C306 C304 1.383 1_655 S
C306 C307 1.402 1_655 S
C306 H321 0.951 . S
C307 C306 1.402 1_455 S
C307 C308 1.375 . S
C307 C310 1.481 . S
C308 C307 1.375 . S
C308 C309 1.367 . S
C308 H322 0.951 . S
C309 C305 1.383 . S
C309 C308 1.367 . S
C309 H323 0.950 . S
C310 C307 1.481 . S
C310 C311 1.297 1_455 S
C310 H324 0.950 . S
C311 C310 1.297 1_655 S
C311 C312 1.479 . S
C311 H325 0.950 . S
C312 C311 1.479 . S
C312 C313 1.375 . S
C312 C318 1.404 . S
C313 C312 1.375 . S
C313 C314 1.369 . S
C313 H326 0.950 . S
C314 C313 1.369 . S
C314 C315 1.392 . S
C314 H327 0.951 . S
C315 C314 1.392 . S
C315 C317 1.384 . S
H316 C318 0.949 1_455 S
C317 C315 1.384 . S
C317 C318 1.385 . S
C317 H319 0.950 . S
C318 C312 1.404 . S
C318 H316 0.949 1_655 S
C318 C317 1.385 . S
H319 C317 0.950 . S
H320 C304 0.951 1_655 S
H321 C306 0.951 . S
H322 C308 0.951 . S
H323 C309 0.950 . S
H324 C310 0.950 . S
H325 C311 0.950 . S
H326 C313 0.950 . S
H327 C314 0.951 . S
C328 C329 1.386 . S
C328 C330 1.383 . S
C328 H344 0.951 1_565 S
C329 C328 1.386 . S
C329 C333 1.383 . S
C330 C328 1.383 . S
C330 C331 1.402 . S
C330 H345 0.951 1_565 S
C331 C330 1.402 . S
C331 C332 1.375 . S
C331 C334 1.481 . S
C332 C331 1.375 . S
C332 C333 1.367 . S
C332 H346 0.951 . S
C333 C329 1.383 . S
C333 C332 1.367 . S
C333 H347 0.950 . S
C334 C331 1.481 . S
C334 C335 1.297 1_565 S
C334 H348 0.950 . S
C335 C334 1.297 1_545 S
C335 C336 1.479 . S
C335 H349 0.950 . S
C336 C335 1.479 . S
C336 C337 1.375 . S
C336 C342 1.405 . S
C337 C336 1.375 . S
C337 C338 1.369 . S
C337 H350 0.950 . S
C338 C337 1.369 . S
C338 C339 1.392 . S
C338 H351 0.951 . S
C339 C338 1.392 . S
C339 C341 1.384 . S
H340 C342 0.947 1_565 S
C341 C339 1.384 . S
C341 C342 1.385 . S
C341 H343 0.950 1_545 S
C342 C336 1.405 . S
C342 H340 0.947 1_545 S
C342 C341 1.385 . S
H343 C341 0.950 1_565 S
H344 C328 0.951 1_545 S
H345 C330 0.951 1_545 S
H346 C332 0.951 . S
H347 C333 0.950 . S
H348 C334 0.950 . S
H349 C335 0.950 . S
H350 C337 0.950 . S
H351 C338 0.951 . S
C352 C353 1.386 . S
C352 C354 1.383 . S
C352 H368 0.951 . S
C353 C352 1.386 . S
C353 C357 1.383 . S
C354 C352 1.383 . S
C354 C355 1.402 . S
C354 H369 0.951 . S
C355 C354 1.402 . S
C355 C356 1.375 . S
C355 C358 1.481 . S
C356 C355 1.375 . S
C356 C357 1.367 . S
C356 H370 0.951 . S
C357 C353 1.383 . S
C357 C356 1.367 . S
C357 H371 0.950 . S
C358 C355 1.481 . S
C358 C359 1.297 1_554 S
C358 H372 0.950 . S
C359 C358 1.297 1_556 S
C359 C360 1.479 . S
C359 H373 0.950 . S
C360 C359 1.479 . S
C360 C361 1.375 . S
C360 C366 1.404 . S
C361 C360 1.375 . S
C361 C362 1.369 . S
C361 H374 0.950 . S
C362 C361 1.369 . S
C362 C363 1.392 . S
C362 H375 0.951 . S
C363 C362 1.392 . S
C363 C365 1.384 . S
H364 C366 0.949 . S
C365 C363 1.384 . S
C365 C366 1.385 . S
C365 H367 0.950 . S
C366 C360 1.404 . S
C366 H364 0.949 . S
C366 C365 1.385 . S
H367 C365 0.950 . S
H368 C352 0.951 . S
H369 C354 0.951 . S
H370 C356 0.951 . S
H371 C357 0.950 . S
H372 C358 0.950 . S
H373 C359 0.950 . S
H374 C361 0.950 . S
H375 C362 0.951 . S
C376 C377 1.386 . S
C376 C378 1.383 . S
C376 H392 0.951 . S
C377 C376 1.386 . S
C377 C381 1.383 1_455 S
C378 C376 1.383 . S
C378 C379 1.402 . S
C378 H393 0.951 1_565 S
C379 C378 1.402 . S
C379 C380 1.375 1_455 S
C379 C382 1.481 1_455 S
C380 C379 1.375 1_655 S
C380 C381 1.367 . S
C380 H394 0.951 . S
C381 C377 1.383 1_655 S
C381 C380 1.367 . S
C381 H395 0.950 . S
C382 C379 1.481 1_655 S
C382 C383 1.297 1_566 S
C382 H396 0.950 . S
C383 C382 1.297 1_544 S
C383 C384 1.479 . S
C383 H397 0.950 1_654 S
C384 C383 1.479 . S
C384 C385 1.375 1_655 S
C384 C390 1.404 . S
C385 C384 1.375 1_455 S
C385 C386 1.369 1_455 S
C385 H398 0.950 . S
C386 C385 1.369 1_655 S
C386 C387 1.392 . S
C386 H399 0.951 1_655 S
C387 C386 1.392 . S
C387 C389 1.384 . S
H388 C390 0.949 . S
C389 C387 1.384 . S
C389 C390 1.385 . S
C389 H391 0.950 . S
C390 C384 1.404 . S
C390 H388 0.949 . S
C390 C389 1.385 . S
H391 C389 0.950 . S
H392 C376 0.951 . S
H393 C378 0.951 1_545 S
H394 C380 0.951 . S
H395 C381 0.950 . S
H396 C382 0.950 . S
H397 C383 0.950 1_456 S
H398 C385 0.950 . S
H399 C386 0.951 1_455 S
C400 C401 1.386 . S
C400 C402 1.383 . S
C400 H416 0.951 . S
C401 C400 1.386 . S
C401 C405 1.383 . S
C402 C400 1.383 . S
C402 C403 1.402 . S
C402 H417 0.951 . S
C403 C402 1.402 . S
C403 C404 1.375 . S
C403 C406 1.481 . S
C404 C403 1.375 . S
C404 C405 1.367 . S
C404 H418 0.951 . S
C405 C401 1.383 . S
C405 C404 1.367 . S
C405 H419 0.950 . S
C406 C403 1.481 . S
C406 C407 1.297 . S
C406 H420 0.950 . S
C407 C406 1.297 . S
C407 C408 1.479 . S
C407 H421 0.950 . S
C408 C407 1.479 . S
C408 C409 1.375 . S
C408 C414 1.404 . S
C409 C408 1.375 . S
C409 C410 1.369 . S
C409 H422 0.950 . S
C410 C409 1.369 . S
C410 C411 1.392 . S
C410 H423 0.951 . S
C411 C410 1.392 . S
C411 C413 1.384 . S
H412 C414 0.949 . S
C413 C411 1.384 . S
C413 C414 1.385 . S
C413 H415 0.950 . S
C414 C408 1.404 . S
C414 H412 0.949 . S
C414 C413 1.385 . S
H415 C413 0.950 . S
H416 C400 0.951 . S
H417 C402 0.951 . S
H418 C404 0.951 . S
H419 C405 0.950 . S
H420 C406 0.950 . S
H421 C407 0.950 . S
H422 C409 0.950 . S
H423 C410 0.951 . S
C424 C425 1.386 . S
C424 C426 1.383 . S
C424 H440 0.951 . S
C425 C424 1.386 . S
C425 C429 1.383 . S
C426 C424 1.383 . S
C426 C427 1.402 . S
C426 H441 0.951 . S
C427 C426 1.402 . S
C427 C428 1.375 . S
C427 C430 1.481 . S
C428 C427 1.375 . S
C428 C429 1.367 . S
C428 H442 0.951 . S
C429 C425 1.383 . S
C429 C428 1.367 . S
C429 H443 0.950 . S
C430 C427 1.481 . S
C430 C431 1.297 . S
C430 H444 0.950 . S
C431 C430 1.297 . S
C431 C432 1.479 . S
C431 H445 0.950 . S
C432 C431 1.479 . S
C432 C433 1.375 . S
C432 C438 1.404 . S
C433 C432 1.375 . S
C433 C434 1.369 . S
C433 H446 0.950 . S
C434 C433 1.369 . S
C434 C435 1.392 . S
C434 H447 0.951 . S
C435 C434 1.392 . S
C435 C437 1.384 . S
H436 C438 0.949 . S
C437 C435 1.384 . S
C437 C438 1.385 . S
C437 H439 0.950 . S
C438 C432 1.404 . S
C438 H436 0.949 . S
C438 C437 1.385 . S
H439 C437 0.950 . S
H440 C424 0.951 . S
H441 C426 0.951 . S
H442 C428 0.951 . S
H443 C429 0.950 . S
H444 C430 0.950 . S
H445 C431 0.950 . S
H446 C433 0.950 . S
H447 C434 0.951 . S
C448 C449 1.386 . S
C448 C450 1.383 . S
C448 H464 0.951 . S
C449 C448 1.386 . S
C449 C453 1.383 . S
C450 C448 1.383 . S
C450 C451 1.402 . S
C450 H465 0.951 . S
C451 C450 1.402 . S
C451 C452 1.375 . S
C451 C454 1.481 . S
C452 C451 1.375 . S
C452 C453 1.367 . S
C452 H466 0.951 . S
C453 C449 1.383 . S
C453 C452 1.367 . S
C453 H467 0.950 . S
C454 C451 1.481 . S
C454 C455 1.297 . S
C454 H468 0.950 . S
C455 C454 1.297 . S
C455 C456 1.479 . S
C455 H469 0.950 . S
C456 C455 1.479 . S
C456 C457 1.375 . S
C456 C462 1.404 . S
C457 C456 1.375 . S
C457 C458 1.369 . S
C457 H470 0.950 . S
C458 C457 1.369 . S
C458 C459 1.392 . S
C458 H471 0.951 . S
C459 C458 1.392 . S
C459 C461 1.384 . S
H460 C462 0.949 . S
C461 C459 1.384 . S
C461 C462 1.385 . S
C461 H463 0.950 . S
C462 C456 1.404 . S
C462 H460 0.949 . S
C462 C461 1.385 . S
H463 C461 0.950 . S
H464 C448 0.951 . S
H465 C450 0.951 . S
H466 C452 0.951 . S
H467 C453 0.950 . S
H468 C454 0.950 . S
H469 C455 0.950 . S
H470 C457 0.950 . S
H471 C458 0.951 . S
C472 C473 1.386 . S
C472 C474 1.383 . S
C472 H488 0.951 . S
C473 C472 1.386 . S
C473 C477 1.383 . S
C474 C472 1.383 . S
C474 C475 1.402 . S
C474 H489 0.951 . S
C475 C474 1.402 . S
C475 C476 1.375 . S
C475 C478 1.481 . S
C476 C475 1.375 . S
C476 C477 1.367 . S
C476 H490 0.951 . S
C477 C473 1.383 . S
C477 C476 1.367 . S
C477 H491 0.950 . S
C478 C475 1.481 . S
C478 C479 1.297 . S
C478 H492 0.950 . S
C479 C478 1.297 . S
C479 C480 1.479 . S
C479 H493 0.950 . S
C480 C479 1.479 . S
C480 C481 1.375 . S
C480 C486 1.404 . S
C481 C480 1.375 . S
C481 C482 1.369 . S
C481 H494 0.950 . S
C482 C481 1.369 . S
C482 C483 1.392 . S
C482 H495 0.951 . S
C483 C482 1.392 . S
C483 C485 1.384 . S
H484 C486 0.949 . S
C485 C483 1.384 . S
C485 C486 1.385 . S
C485 H487 0.950 . S
C486 C480 1.404 . S
C486 H484 0.949 . S
C486 C485 1.385 . S
H487 C485 0.950 . S
H488 C472 0.951 . S
H489 C474 0.951 . S
H490 C476 0.951 . S
H491 C477 0.950 . S
H492 C478 0.950 . S
H493 C479 0.950 . S
H494 C481 0.950 . S
H495 C482 0.951 . S
C113 C8 1.684 . S
C123 C37 1.667 . S
C137 C51 1.708 . S
C147 C22 1.703 . S
C161 C36 1.690 . S
C171 C9 1.673 . S
C185 C50 1.689 . S
C195 C23 1.699 . S
C209 C93 1.706 . S
C219 C64 1.701 . S
C233 C78 1.679 . S
C243 C107 1.695 . S
C257 C92 1.677 . S
C267 C65 1.690 . S
C281 C106 1.680 . S
C291 C79 1.697 . S
C305 C7 1.465 . S
C315 C63 1.484 . S
C329 C21 1.498 . S
C339 C77 1.505 . S
C353 C35 1.487 . S
C363 C91 1.444 . S
C377 C105 1.493 . S
C387 C49 1.512 . S
C401 C6 1.464 . S
C411 C20 1.438 . S
C425 C48 1.512 . S
C435 C34 1.523 . S
C449 C76 1.464 . S
C459 C62 1.510 . S
C473 C90 1.465 . S
C483 C104 1.497 . S
