# Generated by pormake.
# Topology unf, (4)-cn, num edge types: 1
# Building blocks:
#     Node 0, Type 0, BuildingBlock: QUQFOY_clean_sbu_1, # of connection points: 4
#     Node 1, Type 0, BuildingBlock: QUQFOY_clean_sbu_1, # of connection points: 4
#     Node 2, Type 0, BuildingBlock: QUQFOY_clean_sbu_1, # of connection points: 4
#     Node 3, Type 0, BuildingBlock: QUQFOY_clean_sbu_1, # of connection points: 4
#     Node 4, Type 0, BuildingBlock: QUQFOY_clean_sbu_1, # of connection points: 4
#     Node 5, Type 0, BuildingBlock: QUQFOY_clean_sbu_1, # of connection points: 4
#     Node 6, Type 0, BuildingBlock: QUQFOY_clean_sbu_1, # of connection points: 4
#     Node 7, Type 0, BuildingBlock: QUQFOY_clean_sbu_1, # of connection points: 4
#     Node 8, Type 0, BuildingBlock: QUQFOY_clean_sbu_1, # of connection points: 4
#     Node 9, Type 0, BuildingBlock: QUQFOY_clean_sbu_1, # of connection points: 4
#     Node 10, Type 0, BuildingBlock: QUQFOY_clean_sbu_1, # of connection points: 4
#     Node 11, Type 0, BuildingBlock: QUQFOY_clean_sbu_1, # of connection points: 4
#     Edge 12, Type (0, 0), BuildingBlock: XUDNAN_clean_linker_2, # of connection points: 2
#     Edge 13, Type (0, 0), BuildingBlock: XUDNAN_clean_linker_2, # of connection points: 2
#     Edge 14, Type (0, 0), BuildingBlock: XUDNAN_clean_linker_2, # of connection points: 2
#     Edge 15, Type (0, 0), BuildingBlock: XUDNAN_clean_linker_2, # of connection points: 2
#     Edge 16, Type (0, 0), BuildingBlock: XUDNAN_clean_linker_2, # of connection points: 2
#     Edge 17, Type (0, 0), BuildingBlock: XUDNAN_clean_linker_2, # of connection points: 2
#     Edge 18, Type (0, 0), BuildingBlock: XUDNAN_clean_linker_2, # of connection points: 2
#     Edge 19, Type (0, 0), BuildingBlock: XUDNAN_clean_linker_2, # of connection points: 2
#     Edge 20, Type (0, 0), BuildingBlock: XUDNAN_clean_linker_2, # of connection points: 2
#     Edge 21, Type (0, 0), BuildingBlock: XUDNAN_clean_linker_2, # of connection points: 2
#     Edge 22, Type (0, 0), BuildingBlock: XUDNAN_clean_linker_2, # of connection points: 2
#     Edge 23, Type (0, 0), BuildingBlock: XUDNAN_clean_linker_2, # of connection points: 2
#     Edge 24, Type (0, 0), BuildingBlock: XUDNAN_clean_linker_2, # of connection points: 2
#     Edge 25, Type (0, 0), BuildingBlock: XUDNAN_clean_linker_2, # of connection points: 2
#     Edge 26, Type (0, 0), BuildingBlock: XUDNAN_clean_linker_2, # of connection points: 2
#     Edge 27, Type (0, 0), BuildingBlock: XUDNAN_clean_linker_2, # of connection points: 2
#     Edge 28, Type (0, 0), BuildingBlock: XUDNAN_clean_linker_2, # of connection points: 2
#     Edge 29, Type (0, 0), BuildingBlock: XUDNAN_clean_linker_2, # of connection points: 2
#     Edge 30, Type (0, 0), BuildingBlock: XUDNAN_clean_linker_2, # of connection points: 2
#     Edge 31, Type (0, 0), BuildingBlock: XUDNAN_clean_linker_2, # of connection points: 2
#     Edge 32, Type (0, 0), BuildingBlock: XUDNAN_clean_linker_2, # of connection points: 2
#     Edge 33, Type (0, 0), BuildingBlock: XUDNAN_clean_linker_2, # of connection points: 2
#     Edge 34, Type (0, 0), BuildingBlock: XUDNAN_clean_linker_2, # of connection points: 2
#     Edge 35, Type (0, 0), BuildingBlock: XUDNAN_clean_linker_2, # of connection points: 2
# Relax obj value: 0.128
# Max RMSD: 0.160
# Mean RMSD: 0.160
data_MOF--net-unf--node1-QUQFOY_clean_sbu_1--edge1-XUDNAN_clean_linker_2
_symmetry_space_group_name_H-M    P1
_symmetry_Int_Tables_number       1
_symmetry_cell_setting            triclinic
loop_
_symmetry_equiv_pos_as_xyz
'x, y, z'
_cell_length_a     40.243571
_cell_length_b     40.104044
_cell_length_c     40.655205
_cell_angle_alpha  90.089003
_cell_angle_beta   89.927555
_cell_angle_gamma 120.05994
loop_
_atom_site_label
_atom_site_type_symbol
_atom_site_fract_x
_atom_site_fract_y
_atom_site_fract_z
_atom_type_partial_charge
O0 O 0.14754 0.37322 0.0577 0.0
Cd1 Cd 0.11234 0.37557 0.09416 0.0
Cd2 Cd 0.09223 0.40082 0.03319 0.0
O3 O 0.14444 0.40963 0.01846 0.0
O4 O 0.12627 0.35491 0.13319 0.0
O5 O 0.13769 0.41467 0.13085 0.0
C6 C 0.14009 0.38819 0.14688 0.0
C7 C 0.06688 0.43678 0.01021 0.0
C8 C 0.15928 0.39089 0.03039 0.0
C9 C 0.03471 0.32772 0.06517 0.0
O10 O 0.04951 0.34492 0.0384 0.0
O11 O 0.05312 0.33959 0.09201 0.0
O12 O 0.07341 0.41397 0.9927 0.0
O13 O 0.07729 0.44143 0.04068 0.0
O14 O 0.61191 0.76713 0.05386 0.0
Cd15 Cd 0.61997 0.73661 0.09137 0.0
Cd16 Cd 0.5914 0.68904 0.02571 0.0
O17 O 0.57931 0.73043 0.01164 0.0
O18 O 0.6578 0.78164 0.11793 0.0
O19 O 0.59991 0.74106 0.13637 0.0
C20 C 0.63242 0.77223 0.14065 0.0
C21 C 0.55872 0.62657 0.00379 0.0
C22 C 0.59518 0.76268 0.02629 0.0
C23 C 0.66306 0.70423 0.05751 0.0
O24 O 0.64832 0.7074 0.03105 0.0
O25 O 0.64965 0.70658 0.0852 0.0
O26 O 0.57993 0.6561 0.9858 0.0
O27 O 0.5538 0.63262 0.03414 0.0
O28 O 0.20694 0.8521 0.06322 0.0
Cd29 Cd 0.2439 0.89839 0.09264 0.0
Cd30 Cd 0.28922 0.89427 0.04724 0.0
O31 O 0.24753 0.83892 0.03792 0.0
O32 O 0.20864 0.89786 0.12736 0.0
O33 O 0.25523 0.88561 0.13808 0.0
C34 C 0.22621 0.88817 0.14833 0.0
C35 C 0.35436 0.91817 0.05402 0.0
C36 C 0.21333 0.83042 0.04452 0.0
C37 C 0.27459 0.95867 0.04233 0.0
O38 O 0.27881 0.93408 0.02611 0.0
O39 O 0.26679 0.95361 0.07285 0.0
O40 O 0.33792 0.90513 0.02597 0.0
O41 O 0.33291 0.91393 0.0792 0.0
O42 O 0.65096 0.866 0.42524 0.0
Cd43 Cd 0.6463 0.91037 0.40438 0.0
Cd44 Cd 0.59516 0.88615 0.45106 0.0
O45 O 0.59569 0.83536 0.45166 0.0
O46 O 0.67866 0.92211 0.36422 0.0
O47 O 0.61548 0.89533 0.36224 0.0
C48 C 0.64754 0.90611 0.3471 0.0
C49 C 0.54542 0.89846 0.4454 0.0
C50 C 0.62617 0.83685 0.44123 0.0
C51 C 0.66424 0.96113 0.46163 0.0
O52 O 0.63953 0.93021 0.4754 0.0
O53 O 0.66848 0.96205 0.43054 0.0
O54 O 0.54934 0.88315 0.472 0.0
O55 O 0.56699 0.90212 0.42042 0.0
O56 O 0.12748 0.76746 0.45087 0.0
Cd57 Cd 0.09383 0.73545 0.41207 0.0
Cd58 Cd 0.08714 0.67572 0.47242 0.0
O59 O 0.12823 0.72912 0.48985 0.0
O60 O 0.09812 0.77737 0.38286 0.0
O61 O 0.11993 0.73897 0.36819 0.0
C62 C 0.1154 0.76787 0.3614 0.0
C63 C 0.07672 0.62087 0.50137 0.0
C64 C 0.1392 0.76259 0.4785 0.0
C65 C 0.01688 0.67601 0.43896 0.0
O66 O 0.03387 0.66543 0.45898 0.0
O67 O 0.03512 0.70306 0.4185 0.0
O68 O 0.07156 0.64695 0.51476 0.0
O69 O 0.09116 0.62733 0.47214 0.0
O70 O 0.21432 0.35352 0.4508 0.0
Cd71 Cd 0.25395 0.3591 0.41513 0.0
Cd72 Cd 0.29807 0.39184 0.46842 0.0
O73 O 0.2535 0.39687 0.48644 0.0
O74 O 0.22345 0.34186 0.37364 0.0
O75 O 0.27024 0.40169 0.38161 0.0
C76 C 0.24333 0.37665 0.3629 0.0
C77 C 0.36241 0.43835 0.47093 0.0
C78 C 0.21967 0.3734 0.47678 0.0
C79 C 0.28976 0.31842 0.44635 0.0
O80 O 0.29203 0.33833 0.47137 0.0
O81 O 0.27996 0.32558 0.41873 0.0
O82 O 0.34307 0.42248 0.49727 0.0
O83 O 0.34409 0.43059 0.44331 0.0
O84 O 0.85449 0.64409 0.94642 0.0
Cd85 Cd 0.88974 0.64161 0.91002 0.0
Cd86 Cd 0.88945 0.59587 0.9614 0.0
O87 O 0.84018 0.59326 0.97703 0.0
O88 O 0.88976 0.67858 0.8772 0.0
O89 O 0.8645 0.61672 0.86644 0.0
C90 C 0.87155 0.65039 0.85706 0.0
C91 C 0.90233 0.54565 0.96204 0.0
C92 C 0.83507 0.62105 0.96952 0.0
C93 C 0.96101 0.66674 0.94797 0.0
O94 O 0.93854 0.64647 0.97078 0.0
O95 O 0.94826 0.66422 0.91894 0.0
O96 O 0.89772 0.55993 0.98892 0.0
O97 O 0.89555 0.55726 0.93452 0.0
O98 O 0.34 0.21702 0.91837 0.0
Cd99 Cd 0.35852 0.26739 0.89214 0.0
Cd100 Cd 0.38841 0.29148 0.95097 0.0
O101 O 0.38134 0.2379 0.95936 0.0
O102 O 0.34165 0.24711 0.84674 0.0
O103 O 0.40272 0.28126 0.86092 0.0
C104 C 0.37724 0.26095 0.83904 0.0
C105 C 0.44268 0.35144 0.9548 0.0
C106 C 0.35488 0.21022 0.9432 0.0
C107 C 0.32587 0.30493 0.93221 0.0
O108 O 0.34026 0.29577 0.95582 0.0
O109 O 0.33413 0.3013 0.90269 0.0
O110 O 0.42593 0.33182 0.98092 0.0
O111 O 0.4311 0.33481 0.92646 0.0
O112 O 0.77193 0.13648 0.97007 0.0
Cd113 Cd 0.73 0.1071 0.9348 0.0
Cd114 Cd 0.68827 0.09772 0.99561 0.0
O115 O 0.73933 0.14337 0.01068 0.0
O116 O 0.76208 0.11698 0.89455 0.0
O117 O 0.72221 0.13924 0.90051 0.0
C118 C 0.74806 0.13725 0.88313 0.0
C119 C 0.62946 0.08592 0.01676 0.0
C120 C 0.77106 0.15105 0.99767 0.0
C121 C 0.68551 0.0289 0.96362 0.0
O122 O 0.68622 0.04617 0.98999 0.0
O123 O 0.69709 0.04737 0.93674 0.0
O124 O 0.65529 0.08595 0.03536 0.0
O125 O 0.63826 0.09607 0.98642 0.0
O126 O 0.3626 0.13171 0.54935 0.0
Cd127 Cd 0.36856 0.09839 0.58524 0.0
Cd128 Cd 0.39499 0.08107 0.52258 0.0
O129 O 0.39721 0.13075 0.50747 0.0
O130 O 0.34821 0.11305 0.62413 0.0
O131 O 0.40837 0.12669 0.62086 0.0
C132 C 0.38203 0.12939 0.63677 0.0
C133 C 0.43406 0.06003 0.49822 0.0
C134 C 0.37766 0.14375 0.52117 0.0
C135 C 0.32334 0.02016 0.55663 0.0
O136 O 0.34143 0.03505 0.53017 0.0
O137 O 0.33346 0.0388 0.58355 0.0
O138 O 0.40904 0.06373 0.48147 0.0
O139 O 0.43902 0.0709 0.52859 0.0
O140 O 0.8586 0.20885 0.59354 0.0
Cd141 Cd 0.89892 0.25588 0.62027 0.0
Cd142 Cd 0.89998 0.28445 0.56093 0.0
O143 O 0.8477 0.23714 0.55181 0.0
O144 O 0.89354 0.23278 0.66469 0.0
O145 O 0.87677 0.27635 0.65412 0.0
C146 C 0.87807 0.25241 0.6746 0.0
C147 C 0.91793 0.34869 0.55791 0.0
C148 C 0.83908 0.20704 0.5683 0.0
C149 C 0.96889 0.28349 0.57948 0.0
O150 O 0.94621 0.27717 0.55566 0.0
O151 O 0.95727 0.28207 0.60884 0.0
O152 O 0.9114 0.32825 0.53158 0.0
O153 O 0.91007 0.33136 0.58609 0.0
O154 O 0.77724 0.63585 0.55521 0.0
Cd155 Cd 0.73867 0.63985 0.58668 0.0
Cd156 Cd 0.69546 0.58556 0.54056 0.0
O157 O 0.74055 0.57569 0.53939 0.0
O158 O 0.77307 0.67725 0.62053 0.0
O159 O 0.73179 0.61649 0.63222 0.0
C160 C 0.75897 0.6498 0.6418 0.0
C161 C 0.63333 0.53982 0.52447 0.0
C162 C 0.7734 0.60576 0.54111 0.0
C163 C 0.70441 0.66306 0.53663 0.0
O164 O 0.7067 0.63705 0.52084 0.0
O165 O 0.70867 0.66523 0.56766 0.0
O166 O 0.66197 0.55196 0.50464 0.0
O167 O 0.64048 0.55055 0.55483 0.0
H168 H 0.2005 0.35691 0.04955 0.0
H169 H 0.18139 0.41324 0.96653 0.0
H170 H 0.22269 0.39819 0.93196 0.0
H171 H 0.30066 0.38765 0.03052 0.0
H172 H 0.29578 0.34265 0.04411 0.0
H173 H 0.26682 0.36033 0.0625 0.0
H174 H 0.20538 0.29608 0.04779 0.0
H175 H 0.2341 0.27843 0.02896 0.0
H176 H 0.19684 0.27996 0.00562 0.0
H177 H 0.26231 0.37223 0.90534 0.0
H178 H 0.30132 0.34232 0.89051 0.0
H179 H 0.29416 0.30427 0.99152 0.0
C180 C 0.2054 0.36663 0.02424 0.0
C181 C 0.18767 0.38622 0.01078 0.0
C182 C 0.1948 0.39832 0.97748 0.0
C183 C 0.2181 0.38979 0.95758 0.0
C184 C 0.23429 0.36947 0.97145 0.0
C185 C 0.22864 0.35854 0.00415 0.0
C186 C 0.24853 0.33633 0.01303 0.0
C187 C 0.27981 0.35805 0.03908 0.0
C188 C 0.21947 0.29527 0.02452 0.0
C189 C 0.26578 0.33594 0.98011 0.0
C190 C 0.25729 0.3551 0.95635 0.0
C191 C 0.26944 0.35745 0.92383 0.0
C192 C 0.29135 0.34021 0.91559 0.0
C193 C 0.30088 0.32111 0.93986 0.0
C194 C 0.28762 0.31889 0.9724 0.0
H195 H 0.61154 0.83023 0.0553 0.0
H196 H 0.58851 0.77348 0.96032 0.0
H197 H 0.60682 0.83547 0.93288 0.0
H198 H 0.57878 0.89873 0.03435 0.0
H199 H 0.61611 0.93622 0.05888 0.0
H200 H 0.5965 0.88647 0.07037 0.0
H201 H 0.6651 0.8958 0.06983 0.0
H202 H 0.68484 0.94527 0.05772 0.0
H203 H 0.69377 0.91321 0.03302 0.0
H204 H 0.63555 0.90628 0.91606 0.0
H205 H 0.66558 0.97736 0.91199 0.0
H206 H 0.66891 0.98502 0.01858 0.0
C207 C 0.60943 0.83055 0.02876 0.0
C208 C 0.5986 0.7971 0.00993 0.0
C209 C 0.59638 0.79876 0.97524 0.0
C210 C 0.60695 0.83387 0.95945 0.0
C211 C 0.61912 0.86673 0.9788 0.0
C212 C 0.61967 0.86506 0.01276 0.0
C213 C 0.63557 0.90438 0.02815 0.0
C214 C 0.6049 0.90657 0.04917 0.0
C215 C 0.67197 0.91528 0.04835 0.0
C216 C 0.64482 0.92871 0.99758 0.0
C217 C 0.63516 0.90675 0.96926 0.0
C218 C 0.64273 0.92367 0.93812 0.0
C219 C 0.66003 0.96401 0.93603 0.0
C220 C 0.66945 0.98674 0.96493 0.0
C221 C 0.66182 0.96858 0.99594 0.0
H222 H 0.1391 0.78944 0.06494 0.0
H223 H 0.21397 0.80267 0.98313 0.0
H224 H 0.15723 0.76087 0.94891 0.0
H225 H 0.06586 0.68745 0.04712 0.0
H226 H 0.02731 0.69495 0.0603 0.0
H227 H 0.07412 0.72233 0.07876 0.0
H228 H 0.07495 0.78546 0.0634 0.0
H229 H 0.02865 0.75839 0.04419 0.0
H230 H 0.06881 0.79445 0.02102 0.0
H231 H 0.09151 0.72516 0.92161 0.0
H232 H 0.02254 0.68962 0.90633 0.0
H233 H 0.99212 0.69818 0.00713 0.0
C234 C 0.14357 0.78266 0.04011 0.0
C235 C 0.18078 0.79912 0.02665 0.0
C236 C 0.18563 0.78988 0.99401 0.0
C237 C 0.15358 0.76646 0.97432 0.0
C238 C 0.11711 0.75202 0.98795 0.0
C239 C 0.11205 0.75895 0.02039 0.0
C240 C 0.07002 0.74096 0.02905 0.0
C241 C 0.05866 0.70955 0.05536 0.0
C242 C 0.06005 0.77166 0.04005 0.0
C243 C 0.05217 0.72382 0.99617 0.0
C244 C 0.07965 0.73057 0.97264 0.0
C245 C 0.06973 0.71912 0.93998 0.0
C246 C 0.03061 0.69936 0.93144 0.0
C247 C 0.00216 0.69107 0.9556 0.0
C248 C 0.01328 0.70379 0.98821 0.0
H249 H 0.6671 0.7013 0.55767 0.0
H250 H 0.72287 0.684 0.47315 0.0
H251 H 0.70519 0.72337 0.43917 0.0
H252 H 0.58728 0.69566 0.51256 0.0
H253 H 0.58492 0.73245 0.53625 0.0
H254 H 0.60265 0.70365 0.55489 0.0
H255 H 0.66598 0.76538 0.57068 0.0
H256 H 0.6482 0.79435 0.55254 0.0
H257 H 0.69348 0.8 0.53923 0.0
H258 H 0.68333 0.76487 0.41447 0.0
H259 H 0.6595 0.80901 0.40045 0.0
H260 H 0.61437 0.79768 0.49931 0.0
C261 C 0.67594 0.7063 0.53214 0.0
C262 C 0.69645 0.68977 0.51802 0.0
C263 C 0.70707 0.69637 0.48441 0.0
C264 C 0.6971 0.71859 0.46487 0.0
C265 C 0.67617 0.73375 0.4792 0.0
C266 C 0.66571 0.72812 0.51201 0.0
C267 C 0.64299 0.74772 0.52088 0.0
C268 C 0.60203 0.71809 0.53179 0.0
C269 C 0.66392 0.77871 0.5474 0.0
C270 C 0.64285 0.76554 0.48801 0.0
C271 C 0.66217 0.75696 0.4644 0.0
C272 C 0.66779 0.77156 0.43258 0.0
C273 C 0.65413 0.79647 0.42484 0.0
C274 C 0.63472 0.80612 0.44868 0.0
C275 C 0.6283 0.78987 0.48047 0.0
H276 H 0.17412 0.83712 0.45805 0.0
H277 H 0.16336 0.76661 0.54278 0.0
H278 H 0.20544 0.82576 0.57472 0.0
H279 H 0.27206 0.90543 0.4685 0.0
H280 H 0.2669 0.94522 0.45449 0.0
H281 H 0.23468 0.89734 0.43973 0.0
H282 H 0.17665 0.90342 0.45967 0.0
H283 H 0.20879 0.95122 0.47488 0.0
H284 H 0.17412 0.91507 0.50211 0.0
H285 H 0.25051 0.89433 0.59675 0.0
H286 H 0.29789 0.96388 0.6045 0.0
H287 H 0.27722 0.98627 0.5045 0.0
C288 C 0.18032 0.83386 0.48337 0.0
C289 C 0.16531 0.79719 0.49792 0.0
C290 C 0.1746 0.79445 0.53107 0.0
C291 C 0.19825 0.82787 0.54945 0.0
C292 C 0.21225 0.86364 0.53428 0.0
C293 C 0.20371 0.8666 0.50187 0.0
C294 C 0.22342 0.90787 0.4904 0.0
C295 C 0.2509 0.91432 0.4616 0.0
C296 C 0.19398 0.9201 0.48124 0.0
C297 C 0.24501 0.92788 0.52123 0.0
C298 C 0.238 0.90223 0.54656 0.0
C299 C 0.25601 0.91463 0.5771 0.0
C300 C 0.28264 0.9541 0.58138 0.0
C301 C 0.29112 0.98022 0.55506 0.0
C302 C 0.27132 0.96688 0.52504 0.0
H303 H -0.00175 0.27586 0.52149 0.0
H304 H 0.03132 0.32161 0.62036 0.0
H305 H 0.09982 0.351 0.60468 0.0
H306 H 0.07469 0.25387 0.50852 0.0
H307 H 0.07976 0.26715 0.4657 0.0
H308 H 0.03388 0.24844 0.4857 0.0
H309 H 0.03149 0.30928 0.46796 0.0
H310 H 0.07766 0.32853 0.44843 0.0
H311 H 0.07016 0.35625 0.47945 0.0
H312 H 0.16472 0.37906 0.57648 0.0
H313 H 0.22058 0.3974 0.5402 0.0
H314 H 0.14363 0.33207 0.4604 0.0
C315 C 0.01984 0.29162 0.54005 0.0
C316 C 0.00952 0.2965 0.57215 0.0
C317 C 0.03863 0.31729 0.59569 0.0
C318 C 0.07756 0.33428 0.58693 0.0
C319 C 0.08667 0.32985 0.5547 0.0
C320 C 0.05857 0.30849 0.53181 0.0
C321 C 0.0756 0.30812 0.49876 0.0
C322 C 0.06538 0.26695 0.48912 0.0
C323 C 0.06298 0.32666 0.47209 0.0
C324 C 0.11781 0.33288 0.50645 0.0
C325 C 0.1237 0.34539 0.53874 0.0
C326 C 0.16043 0.36918 0.55123 0.0
C327 C 0.19196 0.37965 0.53036 0.0
C328 C 0.18647 0.36609 0.49747 0.0
C329 C 0.14882 0.34282 0.48541 0.0
H330 H 0.71402 0.72294 0.00785 0.0
H331 H 0.67856 0.66042 0.10003 0.0
H332 H 0.72066 0.63297 0.08861 0.0
H333 H 0.71303 0.65079 0.96119 0.0
H334 H 0.75454 0.68185 0.9367 0.0
H335 H 0.72568 0.70012 0.95407 0.0
H336 H 0.78536 0.75507 0.98319 0.0
H337 H 0.81468 0.73751 0.96532 0.0
H338 H 0.81432 0.74341 0.00925 0.0
H339 H 0.76092 0.60657 0.06302 0.0
H340 H 0.80132 0.58948 0.02901 0.0
H341 H 0.80958 0.67058 0.95437 0.0
C342 C 0.71579 0.70418 0.02605 0.0
C343 C 0.69319 0.69376 0.05482 0.0
C344 C 0.69608 0.66906 0.07801 0.0
C345 C 0.71966 0.65317 0.07159 0.0
C346 C 0.74037 0.66284 0.04217 0.0
C347 C 0.73918 0.68843 0.02015 0.0
C348 C 0.76267 0.69316 0.9897 0.0
C349 C 0.73746 0.68072 0.9586 0.0
C350 C 0.79625 0.73475 0.98671 0.0
C351 C 0.77665 0.66551 0.99753 0.0
C352 C 0.76359 0.64821 0.02784 0.0
C353 C 0.77171 0.62037 0.03948 0.0
C354 C 0.7944 0.61063 0.01988 0.0
C355 C 0.80869 0.6288 0.98908 0.0
C356 C 0.79936 0.65636 0.97787 0.0
H357 H 0.36248 0.18254 0.00325 0.0
H358 H 0.31285 0.14651 0.9058 0.0
H359 H 0.28416 0.07868 0.92227 0.0
H360 H 0.38508 0.10697 0.01547 0.0
H361 H 0.37273 0.10091 0.05853 0.0
H362 H 0.38966 0.14705 0.03925 0.0
H363 H 0.32831 0.14707 0.05866 0.0
H364 H 0.311 0.1007 0.07769 0.0
H365 H 0.28182 0.10731 0.04773 0.0
H366 H 0.26247 0.01564 0.94766 0.0
H367 H 0.2496 0.95921 0.98106 0.0
H368 H 0.31023 0.0341 0.0634 0.0
C369 C 0.34578 0.16033 0.98538 0.0
C370 C 0.3399 0.16981 0.95324 0.0
C371 C 0.31762 0.13996 0.9306 0.0
C372 C 0.30114 0.10132 0.9397 0.0
C373 C 0.30692 0.09292 0.97161 0.0
C374 C 0.32869 0.12138 0.99417 0.0
C375 C 0.33036 0.104 0.02685 0.0
C376 C 0.37192 0.11541 0.03552 0.0
C377 C 0.31176 0.11546 0.05436 0.0
C378 C 0.30646 0.0614 0.01886 0.0
C379 C 0.29329 0.0559 0.9868 0.0
C380 C 0.27226 0.01945 0.97289 0.0
C381 C 0.26509 0.98765 0.99202 0.0
C382 C 0.27858 0.99247 0.02478 0.0
C383 C 0.29893 0.02974 0.03862 0.0
H384 H -0.00302 0.28219 0.01308 0.0
H385 H 0.9816 0.30285 0.11523 0.0
H386 H 0.91168 0.25725 0.11011 0.0
H387 H 0.91633 0.28045 0.98237 0.0
H388 H 0.90474 0.24274 0.9527 0.0
H389 H 0.95368 0.27316 0.96554 0.0
H390 H 0.95789 0.21331 0.98328 0.0
H391 H 0.9091 0.18257 0.96994 0.0
H392 H 0.92276 0.17909 0.01144 0.0
H393 H 0.84246 0.21526 0.09119 0.0
H394 H 0.78094 0.17554 0.062 0.0
H395 H 0.8436 0.1827 0.9728 0.0
C396 C 0.97905 0.27653 0.03461 0.0
C397 C 0.99455 0.29597 0.06454 0.0
C398 C 0.97024 0.2879 0.09216 0.0
C399 C 0.93054 0.26225 0.0894 0.0
C400 C 0.916 0.24465 0.05905 0.0
C401 C 0.93972 0.25097 0.03235 0.0
C402 C 0.91722 0.22996 0.00207 0.0
C403 C 0.92336 0.25828 0.97404 0.0
C404 C 0.92734 0.19941 0.99105 0.0
C405 C 0.87691 0.21158 0.01555 0.0
C406 C 0.87663 0.22025 0.04844 0.0
C407 C 0.84239 0.20784 0.06558 0.0
C408 C 0.80762 0.18553 0.04874 0.0
C409 C 0.80748 0.17588 0.01516 0.0
C410 C 0.84268 0.18925 0.99853 0.0
H411 H 0.34991 0.18779 0.54695 0.0
H412 H 0.38606 0.16042 0.45509 0.0
H413 H 0.36563 0.20074 0.42501 0.0
H414 H 0.2665 0.18558 0.51676 0.0
H415 H 0.27236 0.22548 0.54154 0.0
H416 H 0.29093 0.19551 0.55578 0.0
H417 H 0.35885 0.25545 0.56171 0.0
H418 H 0.34038 0.28569 0.54798 0.0
H419 H 0.38046 0.28696 0.52696 0.0
H420 H 0.33772 0.24185 0.40491 0.0
H421 H 0.31139 0.28556 0.39746 0.0
H422 H 0.29523 0.28567 0.50302 0.0
C423 C 0.35385 0.19046 0.52053 0.0
C424 C 0.36947 0.1709 0.50335 0.0
C425 C 0.37431 0.17534 0.46878 0.0
C426 C 0.36258 0.19796 0.45147 0.0
C427 C 0.34642 0.21613 0.46917 0.0
C428 C 0.34262 0.21303 0.503 0.0
C429 C 0.32482 0.23561 0.51645 0.0
C430 C 0.28637 0.20894 0.53364 0.0
C431 C 0.3528 0.26784 0.53963 0.0
C432 C 0.3189 0.25175 0.4849 0.0
C433 C 0.33121 0.24007 0.4578 0.0
C434 C 0.32817 0.25132 0.42599 0.0
C435 C 0.31296 0.27589 0.42197 0.0
C436 C 0.30139 0.28905 0.44966 0.0
C437 C 0.30399 0.27626 0.48136 0.0
H438 H 0.81304 0.18202 0.50553 0.0
H439 H 0.79477 0.14645 0.60786 0.0
H440 H 0.74601 0.08076 0.59119 0.0
H441 H 0.71269 0.12014 0.47781 0.0
H442 H 0.72684 0.10929 0.43899 0.0
H443 H 0.7574 0.15477 0.45895 0.0
H444 H 0.81382 0.14108 0.45693 0.0
H445 H 0.78337 0.09542 0.43728 0.0
H446 H 0.8079 0.09736 0.47493 0.0
H447 H 0.70296 0.01911 0.5643 0.0
H448 H 0.66665 0.96321 0.52838 0.0
H449 H 0.71336 0.03657 0.44233 0.0
C450 C 0.79806 0.16055 0.52438 0.0
C451 C 0.80732 0.16923 0.558 0.0
C452 C 0.78796 0.14029 0.582 0.0
C453 C 0.76021 0.10298 0.57279 0.0
C454 C 0.75236 0.09503 0.53946 0.0
C455 C 0.77055 0.12283 0.51554 0.0
C456 C 0.75838 0.10565 0.48137 0.0
C457 C 0.73759 0.12353 0.46321 0.0
C458 C 0.79293 0.11015 0.46147 0.0
C459 C 0.73099 0.06381 0.48995 0.0
C460 C 0.72782 0.05863 0.52364 0.0
C461 C 0.70494 0.02274 0.53787 0.0
C462 C 0.68448 0.99113 0.51715 0.0
C463 C 0.68711 0.99544 0.48246 0.0
C464 C 0.7108 0.03235 0.46871 0.0
H465 H 0.97699 0.71213 0.453 0.0
H466 H 0.96482 0.5998 0.43704 0.0
H467 H 0.89797 0.56865 0.45749 0.0
H468 H 0.93362 0.69048 0.52795 0.0
H469 H 0.90988 0.7183 0.52431 0.0
H470 H 0.95308 0.73203 0.5014 0.0
H471 H 0.91833 0.72845 0.44677 0.0
H472 H 0.87515 0.71568 0.46959 0.0
H473 H 0.87423 0.68512 0.43662 0.0
H474 H 0.83568 0.55016 0.48589 0.0
H475 H 0.78211 0.54578 0.51925 0.0
H476 H 0.8378 0.67059 0.52063 0.0
C477 C 0.95945 0.68101 0.45229 0.0
C478 C 0.97521 0.65816 0.44254 0.0
C479 C 0.95252 0.61754 0.44363 0.0
C480 C 0.91471 0.59968 0.45532 0.0
C481 C 0.90039 0.623 0.46622 0.0
C482 C 0.92197 0.66281 0.46463 0.0
C483 C 0.90189 0.6813 0.4818 0.0
C484 C 0.92607 0.70703 0.51056 0.0
C485 C 0.89179 0.70397 0.45722 0.0
C486 C 0.86625 0.64579 0.49403 0.0
C487 C 0.86553 0.61243 0.48433 0.0
C488 C 0.83575 0.5761 0.49338 0.0
C489 C 0.80562 0.57388 0.51247 0.0
C490 C 0.80601 0.60781 0.52276 0.0
C491 C 0.83687 0.64412 0.51346 0.0
H492 H 0.19752 0.32792 0.31464 0.0
H493 H 0.26815 0.44927 0.3383 0.0
H494 H 0.24904 0.46612 0.28574 0.0
H495 H 0.21849 0.33731 0.22756 0.0
H496 H 0.17063 0.30033 0.2165 0.0
H497 H 0.19042 0.29848 0.2557 0.0
H498 H 0.13196 0.2958 0.28516 0.0
H499 H 0.11215 0.29796 0.24608 0.0
H500 H 0.12036 0.33306 0.27746 0.0
H501 H 0.21926 0.46905 0.23096 0.0
H502 H 0.18574 0.45787 0.17747 0.0
H503 H 0.13681 0.33463 0.19011 0.0
C504 C 0.20917 0.35809 0.30876 0.0
C505 C 0.23426 0.3873 0.33062 0.0
C506 C 0.24897 0.4264 0.32187 0.0
C507 C 0.23815 0.43623 0.29214 0.0
C508 C 0.2129 0.40661 0.27134 0.0
C509 C 0.19899 0.36835 0.27919 0.0
C510 C 0.1726 0.34184 0.25267 0.0
C511 C 0.18903 0.3181 0.23719 0.0
C512 C 0.13186 0.31563 0.26616 0.0
C513 C 0.17355 0.37108 0.22868 0.0
C514 C 0.19671 0.40832 0.23986 0.0
C515 C 0.20126 0.44 0.22193 0.0
C516 C 0.182 0.43339 0.19165 0.0
C517 C 0.15878 0.39542 0.17955 0.0
C518 C 0.15452 0.36403 0.19854 0.0
H519 H 0.58404 0.76424 0.19245 0.0
H520 H 0.6988 0.83875 0.15401 0.0
H521 H 0.7124 0.88375 0.19991 0.0
H522 H 0.56792 0.84092 0.22187 0.0
H523 H 0.54287 0.81539 0.2585 0.0
H524 H 0.54105 0.78899 0.22197 0.0
H525 H 0.56672 0.75128 0.25483 0.0
H526 H 0.56812 0.7772 0.29149 0.0
H527 H 0.61084 0.77749 0.27766 0.0
H528 H 0.71515 0.91964 0.25054 0.0
H529 H 0.70788 0.94234 0.30504 0.0
H530 H 0.59123 0.84629 0.31127 0.0
C531 C 0.61201 0.79001 0.19374 0.0
C532 C 0.64033 0.79786 0.16953 0.0
C533 C 0.67658 0.83195 0.17216 0.0
C534 C 0.68458 0.85789 0.1981 0.0
C535 C 0.65605 0.84956 0.22131 0.0
C536 C 0.62055 0.81641 0.21959 0.0
C537 C 0.59561 0.81394 0.24862 0.0
C538 C 0.55974 0.81487 0.23703 0.0
C539 C 0.5847 0.77784 0.26938 0.0
C540 C 0.62291 0.85056 0.26707 0.0
C541 C 0.65749 0.87075 0.25064 0.0
C542 C 0.68808 0.90433 0.2635 0.0
C543 C 0.68365 0.91707 0.29443 0.0
C544 C 0.64886 0.89643 0.31217 0.0
C545 C 0.61781 0.86322 0.2979 0.0
H546 H 0.23225 0.83828 0.19125 0.0
H547 H 0.18566 0.91473 0.18161 0.0
H548 H 0.15439 0.89357 0.23573 0.0
H549 H 0.14906 0.76101 0.22663 0.0
H550 H 0.17407 0.74617 0.25441 0.0
H551 H 0.19645 0.76995 0.21646 0.0
H552 H 0.25511 0.82209 0.24861 0.0
H553 H 0.23309 0.79823 0.28668 0.0
H554 H 0.2478 0.84834 0.28116 0.0
H555 H 0.12547 0.8623 0.28882 0.0
H556 H 0.10063 0.82292 0.3388 0.0
H557 H 0.16336 0.76411 0.3144 0.0
C558 C 0.21621 0.85117 0.20097 0.0
C559 C 0.21168 0.87847 0.18243 0.0
C560 C 0.18964 0.89395 0.19548 0.0
C561 C 0.17177 0.88211 0.2262 0.0
C562 C 0.17595 0.85452 0.24352 0.0
C563 C 0.19764 0.83922 0.23154 0.0
C564 C 0.19544 0.80827 0.25446 0.0
C565 C 0.17769 0.76903 0.23693 0.0
C566 C 0.23523 0.81994 0.26857 0.0
C567 C 0.16882 0.80838 0.28092 0.0
C568 C 0.15826 0.83554 0.27411 0.0
C569 C 0.13365 0.84105 0.29453 0.0
C570 C 0.11963 0.81842 0.32287 0.0
C571 C 0.12995 0.79034 0.33057 0.0
C572 C 0.15482 0.78522 0.30915 0.0
H573 H 0.82279 0.59634 0.81168 0.0
H574 H 0.88982 0.7195 0.82998 0.0
H575 H 0.86602 0.73187 0.77839 0.0
H576 H 0.83691 0.60158 0.72344 0.0
H577 H 0.78888 0.56331 0.71458 0.0
H578 H 0.81122 0.56378 0.75307 0.0
H579 H 0.75378 0.56078 0.78453 0.0
H580 H 0.73142 0.56065 0.74612 0.0
H581 H 0.74047 0.5968 0.77672 0.0
H582 H 0.83608 0.7317 0.72515 0.0
H583 H 0.80286 0.71892 0.67185 0.0
H584 H 0.75349 0.59593 0.68716 0.0
C585 C 0.83261 0.62589 0.8047 0.0
C586 C 0.85827 0.65695 0.82495 0.0
C587 C 0.87021 0.69519 0.815 0.0
C588 C 0.85679 0.70257 0.78572 0.0
C589 C 0.83125 0.67143 0.76655 0.0
C590 C 0.81929 0.63384 0.77545 0.0
C591 C 0.79172 0.60583 0.75005 0.0
C592 C 0.80818 0.58224 0.73435 0.0
C593 C 0.75199 0.57946 0.76527 0.0
C594 C 0.79036 0.63365 0.72549 0.0
C595 C 0.81338 0.67132 0.73567 0.0
C596 C 0.81784 0.70233 0.71694 0.0
C597 C 0.7988 0.69475 0.68669 0.0
C598 C 0.77539 0.65646 0.67539 0.0
C599 C 0.77074 0.62549 0.69534 0.0
H600 H 0.32893 0.21849 0.78925 0.0
H601 H 0.44886 0.27707 0.81799 0.0
H602 H 0.46403 0.25058 0.76883 0.0
H603 H 0.3236 0.13298 0.76253 0.0
H604 H 0.29177 0.12531 0.72858 0.0
H605 H 0.29108 0.15157 0.76426 0.0
H606 H 0.30397 0.20973 0.72766 0.0
H607 H 0.30412 0.18342 0.69177 0.0
H608 H 0.34475 0.2303 0.70033 0.0
H609 H 0.46473 0.2133 0.71781 0.0
H610 H 0.45152 0.17239 0.66829 0.0
H611 H 0.33101 0.13855 0.67454 0.0
C612 C 0.35855 0.22643 0.78498 0.0
C613 C 0.38774 0.25004 0.80744 0.0
C614 C 0.42605 0.25931 0.801 0.0
C615 C 0.4349 0.24423 0.7732 0.0
C616 C 0.40514 0.22009 0.75207 0.0
C617 C 0.36781 0.21165 0.75752 0.0
C618 C 0.34072 0.18408 0.7319 0.0
C619 C 0.30999 0.14625 0.74778 0.0
C620 C 0.32232 0.20303 0.71172 0.0
C621 C 0.36846 0.17783 0.71132 0.0
C622 C 0.40552 0.19881 0.72319 0.0
C623 C 0.43582 0.19696 0.70824 0.0
C624 C 0.42803 0.1735 0.68023 0.0
C625 C 0.39024 0.15219 0.66752 0.0
C626 C 0.36023 0.15439 0.68356 0.0
H627 H 0.80027 0.13537 0.84134 0.0
H628 H 0.73007 0.1885 0.85457 0.0
H629 H 0.75831 0.22699 0.80402 0.0
H630 H 0.88463 0.21923 0.81178 0.0
H631 H 0.89636 0.19273 0.78269 0.0
H632 H 0.87069 0.16972 0.81983 0.0
H633 H 0.81608 0.11542 0.78549 0.0
H634 H 0.8418 0.13801 0.74831 0.0
H635 H 0.79314 0.12791 0.75362 0.0
H636 H 0.79509 0.25984 0.75135 0.0
H637 H 0.8333 0.28038 0.69996 0.0
H638 H 0.87878 0.2052 0.72258 0.0
C639 C 0.79065 0.15499 0.83365 0.0
C640 C 0.76291 0.15889 0.85194 0.0
C641 C 0.75119 0.18492 0.8409 0.0
C642 C 0.76722 0.20704 0.81231 0.0
C643 C 0.7949 0.20277 0.7951 0.0
C644 C 0.80626 0.17715 0.80532 0.0
C645 C 0.83586 0.17716 0.78233 0.0
C646 C 0.87415 0.19052 0.80024 0.0
C647 C 0.82081 0.13726 0.7665 0.0
C648 C 0.83931 0.20663 0.75736 0.0
C649 C 0.81573 0.22137 0.76515 0.0
C650 C 0.8137 0.24852 0.74512 0.0
C651 C 0.83566 0.26018 0.71605 0.0
C652 C 0.85916 0.24454 0.70726 0.0
C653 C 0.86132 0.21792 0.72861 0.0
H654 H 0.0329 0.47154 0.04344 0.0
H655 H 0.04915 0.43843 0.94565 0.0
H656 H 0.00531 0.45882 0.9229 0.0
H657 H 0.93306 0.43904 0.03488 0.0
H658 H 0.93482 0.47832 0.05795 0.0
H659 H 0.96863 0.4625 0.06663 0.0
H660 H 0.02545 0.53164 0.05681 0.0
H661 H 0.9918 0.54779 0.04879 0.0
H662 H 0.02803 0.55584 0.01874 0.0
H663 H 0.95903 0.48226 0.91083 0.0
H664 H 0.91782 0.51176 0.91001 0.0
H665 H 0.93038 0.5273 0.01588 0.0
C666 C 0.02772 0.46915 0.01717 0.0
C667 C 0.0446 0.45358 0.9963 0.0
C668 C 0.03664 0.45041 0.96211 0.0
C669 C 0.01162 0.46172 0.94896 0.0
C670 C 0.99463 0.47598 0.97033 0.0
C671 C 0.00259 0.48004 0.00366 0.0
C672 C 0.98052 0.49611 0.02128 0.0
C673 C 0.9526 0.46726 0.04668 0.0
C674 C 0.00809 0.53516 0.03734 0.0
C675 C 0.95911 0.50067 0.99264 0.0
C676 C 0.96748 0.48876 0.96347 0.0
C677 C 0.95211 0.49153 0.93355 0.0
C678 C 0.92855 0.5081 0.93334 0.0
C679 C 0.92061 0.52157 0.96287 0.0
C680 C 0.93541 0.51682 0.99292 0.0
H681 H 0.52028 0.55743 0.03682 0.0
H682 H 0.56365 0.60674 0.94045 0.0
H683 H 0.54382 0.54207 0.9186 0.0
H684 H 0.54888 0.4855 0.03365 0.0
H685 H 0.50648 0.44915 0.05429 0.0
H686 H 0.52416 0.49939 0.06276 0.0
H687 H 0.45806 0.49135 0.04723 0.0
H688 H 0.44003 0.44098 0.03934 0.0
H689 H 0.43718 0.47101 0.00783 0.0
H690 H 0.51861 0.47201 0.90683 0.0
H691 H 0.48481 0.40088 0.90514 0.0
H692 H 0.45908 0.39726 0.00925 0.0
C693 C 0.52534 0.55459 0.01107 0.0
C694 C 0.54348 0.5872 0.99037 0.0
C695 C 0.54975 0.58223 0.95683 0.0
C696 C 0.53879 0.54561 0.94419 0.0
C697 C 0.52168 0.51419 0.96537 0.0
C698 C 0.51466 0.51821 0.99803 0.0
C699 C 0.49494 0.47957 0.01531 0.0
C700 C 0.52013 0.47835 0.04315 0.0
C701 C 0.4552 0.47018 0.02817 0.0
C702 C 0.49162 0.45322 0.98718 0.0
C703 C 0.50749 0.47379 0.95865 0.0
C704 C 0.50631 0.45557 0.92908 0.0
C705 C 0.48723 0.41516 0.92838 0.0
C706 C 0.46959 0.39345 0.95709 0.0
C707 C 0.47284 0.41295 0.987 0.0
H708 H 0.40496 0.94508 0.00281 0.0
H709 H 0.39917 0.94645 0.10939 0.0
H710 H 0.46894 0.9932 0.11145 0.0
H711 H 0.49841 0.95332 0.99647 0.0
H712 H 0.51162 0.98393 0.96075 0.0
H713 H 0.46194 0.94933 0.9684 0.0
H714 H 0.44575 0.00426 0.96588 0.0
H715 H 0.49556 0.03915 0.95899 0.0
H716 H 0.47021 0.04512 0.993 0.0
H717 H 0.53948 0.03993 0.10147 0.0
H718 H 0.60567 0.08 0.0805 0.0
H719 H 0.56367 0.05051 0.98042 0.0
C720 C 0.41838 0.95464 0.02667 0.0
C721 C 0.39667 0.94183 0.056 0.0
C722 C 0.41531 0.95563 0.08664 0.0
C723 C 0.45484 0.98236 0.08803 0.0
C724 C 0.47512 0.9952 0.05854 0.0
C725 C 0.45752 0.98159 0.02846 0.0
C726 C 0.48547 0.00024 1.00031 0.0
C727 C 0.48961 0.9699 0.98032 0.0
C728 C 0.47352 0.02357 0.97826 0.0
C729 C 0.52174 0.02638 0.01921 0.0
C730 C 0.51521 0.02308 0.05277 0.0
C731 C 0.54484 0.04298 0.07525 0.0
C732 C 0.58227 0.06582 0.06312 0.0
C733 C 0.58965 0.06883 0.02885 0.0
C734 C 0.55877 0.0496 0.00669 0.0
H735 H 0.51902 0.91861 0.49921 0.0
H736 H 0.52197 0.92414 0.39259 0.0
H737 H 0.49391 0.96674 0.39444 0.0
H738 H 0.43042 0.92212 0.51159 0.0
H739 H 0.44917 0.95209 0.54762 0.0
H740 H 0.46501 0.91858 0.53728 0.0
H741 H 0.53552 0.97465 0.53802 0.0
H742 H 0.51989 0.00848 0.54758 0.0
H743 H 0.54946 0.01589 0.51192 0.0
H744 H 0.46839 0.01126 0.40837 0.0
H745 H 0.44508 0.05218 0.43305 0.0
H746 H 0.46344 0.02072 0.53059 0.0
C747 C 0.51271 0.92778 0.47616 0.0
C748 C 0.5221 0.91755 0.44569 0.0
C749 C 0.51451 0.93121 0.41617 0.0
C750 C 0.49879 0.95557 0.41701 0.0
C751 C 0.49125 0.96625 0.44757 0.0
C752 C 0.49775 0.95259 0.47659 0.0
C753 C 0.48944 0.97014 0.50626 0.0
C754 C 0.45654 0.93887 0.52689 0.0
C755 C 0.52575 0.99368 0.52717 0.0
C756 C 0.47735 0.996 0.48944 0.0
C757 C 0.47834 0.99317 0.45559 0.0
C758 C 0.46758 0.01373 0.43483 0.0
C759 C 0.45458 0.03703 0.44907 0.0
C760 C 0.45294 0.03997 0.4837 0.0
C761 C 0.46511 0.01964 0.50405 0.0
H762 H 0.9506 0.39297 0.50332 0.0
H763 H 0.93443 0.40051 0.60811 0.0
H764 H 0.97765 0.4711 0.60574 0.0
H765 H 0.05003 0.46296 0.50145 0.0
H766 H 0.04809 0.48257 0.4621 0.0
H767 H 0.01452 0.4329 0.47152 0.0
H768 H 0.95735 0.44363 0.45925 0.0
H769 H 0.99075 0.49305 0.44901 0.0
H770 H 0.95456 0.48195 0.47996 0.0
H771 H 0.02302 0.54069 0.59186 0.0
H772 H 0.06283 0.60481 0.56671 0.0
H773 H 0.05149 0.55111 0.47153 0.0
C774 C 0.95556 0.40946 0.52571 0.0
C775 C 0.93888 0.39123 0.55589 0.0
C776 C 0.94664 0.41388 0.58468 0.0
C777 C 0.97138 0.45394 0.58361 0.0
C778 C 0.98827 0.47078 0.55363 0.0
C779 C 0.98041 0.4493 0.52515 0.0
C780 C 0.00234 0.4743 0.49609 0.0
C781 C 0.03041 0.46246 0.48197 0.0
C782 C 0.97459 0.47317 0.46952 0.0
C783 C 0.02359 0.51334 0.51259 0.0
C784 C 0.0152 0.51066 0.54582 0.0
C785 C 0.02999 0.54311 0.56593 0.0
C786 C 0.05274 0.57937 0.55148 0.0
C787 C 0.06065 0.58284 0.51729 0.0
C788 C 0.04675 0.54928 0.49786 0.0
H789 H 0.40849 0.46484 0.52543 0.0
H790 H 0.41192 0.45758 0.41902 0.0
H791 H 0.48128 0.48014 0.42176 0.0
H792 H 0.50389 0.55184 0.53412 0.0
H793 H 0.51366 0.53509 0.57202 0.0
H794 H 0.46498 0.52096 0.56115 0.0
H795 H 0.44624 0.44932 0.56729 0.0
H796 H 0.49507 0.46318 0.57728 0.0
H797 H 0.47128 0.43083 0.54342 0.0
H798 H 0.54828 0.49709 0.43637 0.0
H799 H 0.61179 0.51873 0.46081 0.0
H800 H 0.56561 0.517 0.55783 0.0
C801 C 0.424 0.46885 0.50263 0.0
C802 C 0.40481 0.45949 0.47198 0.0
C803 C 0.42607 0.4649 0.44274 0.0
C804 C 0.4654 0.47734 0.44407 0.0
C805 C 0.48304 0.48466 0.47479 0.0
C806 C 0.4633 0.48156 0.50349 0.0
C807 C 0.48913 0.49124 0.53332 0.0
C808 C 0.49316 0.52691 0.5512 0.0
C809 C 0.47455 0.45657 0.55669 0.0
C810 C 0.52638 0.49976 0.51691 0.0
C811 C 0.52205 0.49539 0.48318 0.0
C812 C 0.55214 0.50104 0.46271 0.0
C813 C 0.58807 0.51305 0.47692 0.0
C814 C 0.59376 0.51965 0.51127 0.0
C815 C 0.56218 0.51202 0.53155 0.0
loop_
_geom_bond_atom_site_label_1
_geom_bond_atom_site_label_2
_geom_bond_distance
_geom_bond_site_symmetry_2
_ccdc_geom_bond_type
O0 Cd1 2.223 . S
O0 C8 1.315 . S
Cd1 O0 2.223 . S
Cd1 O4 2.297 . S
Cd1 O5 2.439 . S
Cd1 O11 2.240 . S
Cd2 O3 2.240 . S
Cd2 O10 2.223 . S
Cd2 O12 2.297 . S
Cd2 O13 2.439 . S
O3 Cd2 2.240 . S
O3 C8 1.279 . S
O4 Cd1 2.297 . S
O4 C6 1.247 . S
O5 Cd1 2.439 . S
O5 C6 1.208 . S
C6 O4 1.247 . S
C6 O5 1.208 . S
C7 O12 1.247 . S
C7 O13 1.208 . S
C8 O0 1.315 . S
C8 O3 1.279 . S
C9 O10 1.315 . S
C9 O11 1.279 . S
O10 Cd2 2.223 . S
O10 C9 1.315 . S
O11 Cd1 2.240 . S
O11 C9 1.279 . S
O12 Cd2 2.297 . S
O12 C7 1.247 . S
O13 Cd2 2.439 . S
O13 C7 1.208 . S
O14 Cd15 2.223 . S
O14 C22 1.315 . S
Cd15 O14 2.223 . S
Cd15 O18 2.297 . S
Cd15 O19 2.439 . S
Cd15 O25 2.240 . S
Cd16 O17 2.240 . S
Cd16 O24 2.223 . S
Cd16 O26 2.297 . S
Cd16 O27 2.439 . S
O17 Cd16 2.240 . S
O17 C22 1.279 . S
O18 Cd15 2.297 . S
O18 C20 1.247 . S
O19 Cd15 2.439 . S
O19 C20 1.208 . S
C20 O18 1.247 . S
C20 O19 1.208 . S
C21 O26 1.247 . S
C21 O27 1.208 . S
C22 O14 1.315 . S
C22 O17 1.279 . S
C23 O24 1.315 . S
C23 O25 1.279 . S
O24 Cd16 2.223 . S
O24 C23 1.315 . S
O25 Cd15 2.240 . S
O25 C23 1.279 . S
O26 Cd16 2.297 . S
O26 C21 1.247 . S
O27 Cd16 2.439 . S
O27 C21 1.208 . S
O28 Cd29 2.223 . S
O28 C36 1.315 . S
Cd29 O28 2.223 . S
Cd29 O32 2.297 . S
Cd29 O33 2.439 . S
Cd29 O39 2.240 . S
Cd30 O31 2.240 . S
Cd30 O38 2.223 . S
Cd30 O40 2.297 . S
Cd30 O41 2.439 . S
O31 Cd30 2.240 . S
O31 C36 1.279 . S
O32 Cd29 2.297 . S
O32 C34 1.247 . S
O33 Cd29 2.439 . S
O33 C34 1.208 . S
C34 O32 1.247 . S
C34 O33 1.208 . S
C35 O40 1.247 . S
C35 O41 1.208 . S
C36 O28 1.315 . S
C36 O31 1.279 . S
C37 O38 1.315 . S
C37 O39 1.279 . S
O38 Cd30 2.223 . S
O38 C37 1.315 . S
O39 Cd29 2.240 . S
O39 C37 1.279 . S
O40 Cd30 2.297 . S
O40 C35 1.247 . S
O41 Cd30 2.439 . S
O41 C35 1.208 . S
O42 Cd43 2.223 . S
O42 C50 1.315 . S
Cd43 O42 2.223 . S
Cd43 O46 2.297 . S
Cd43 O47 2.439 . S
Cd43 O53 2.240 . S
Cd44 O45 2.240 . S
Cd44 O52 2.223 . S
Cd44 O54 2.297 . S
Cd44 O55 2.439 . S
O45 Cd44 2.240 . S
O45 C50 1.279 . S
O46 Cd43 2.297 . S
O46 C48 1.247 . S
O47 Cd43 2.439 . S
O47 C48 1.208 . S
C48 O46 1.247 . S
C48 O47 1.208 . S
C49 O54 1.247 . S
C49 O55 1.208 . S
C50 O42 1.315 . S
C50 O45 1.279 . S
C51 O52 1.315 . S
C51 O53 1.279 . S
O52 Cd44 2.223 . S
O52 C51 1.315 . S
O53 Cd43 2.240 . S
O53 C51 1.279 . S
O54 Cd44 2.297 . S
O54 C49 1.247 . S
O55 Cd44 2.439 . S
O55 C49 1.208 . S
O56 Cd57 2.223 . S
O56 C64 1.315 . S
Cd57 O56 2.223 . S
Cd57 O60 2.297 . S
Cd57 O61 2.439 . S
Cd57 O67 2.240 . S
Cd58 O59 2.240 . S
Cd58 O66 2.223 . S
Cd58 O68 2.297 . S
Cd58 O69 2.439 . S
O59 Cd58 2.240 . S
O59 C64 1.279 . S
O60 Cd57 2.297 . S
O60 C62 1.247 . S
O61 Cd57 2.439 . S
O61 C62 1.208 . S
C62 O60 1.247 . S
C62 O61 1.208 . S
C63 O68 1.247 . S
C63 O69 1.208 . S
C64 O56 1.315 . S
C64 O59 1.279 . S
C65 O66 1.315 . S
C65 O67 1.279 . S
O66 Cd58 2.223 . S
O66 C65 1.315 . S
O67 Cd57 2.240 . S
O67 C65 1.279 . S
O68 Cd58 2.297 . S
O68 C63 1.247 . S
O69 Cd58 2.439 . S
O69 C63 1.208 . S
O70 Cd71 2.223 . S
O70 C78 1.315 . S
Cd71 O70 2.223 . S
Cd71 O74 2.297 . S
Cd71 O75 2.439 . S
Cd71 O81 2.240 . S
Cd72 O73 2.240 . S
Cd72 O80 2.223 . S
Cd72 O82 2.297 . S
Cd72 O83 2.439 . S
O73 Cd72 2.240 . S
O73 C78 1.279 . S
O74 Cd71 2.297 . S
O74 C76 1.247 . S
O75 Cd71 2.439 . S
O75 C76 1.208 . S
C76 O74 1.247 . S
C76 O75 1.208 . S
C77 O82 1.247 . S
C77 O83 1.208 . S
C78 O70 1.315 . S
C78 O73 1.279 . S
C79 O80 1.315 . S
C79 O81 1.279 . S
O80 Cd72 2.223 . S
O80 C79 1.315 . S
O81 Cd71 2.240 . S
O81 C79 1.279 . S
O82 Cd72 2.297 . S
O82 C77 1.247 . S
O83 Cd72 2.439 . S
O83 C77 1.208 . S
O84 Cd85 2.223 . S
O84 C92 1.315 . S
Cd85 O84 2.223 . S
Cd85 O88 2.297 . S
Cd85 O89 2.439 . S
Cd85 O95 2.240 . S
Cd86 O87 2.240 . S
Cd86 O94 2.223 . S
Cd86 O96 2.297 . S
Cd86 O97 2.439 . S
O87 Cd86 2.240 . S
O87 C92 1.279 . S
O88 Cd85 2.297 . S
O88 C90 1.247 . S
O89 Cd85 2.439 . S
O89 C90 1.208 . S
C90 O88 1.247 . S
C90 O89 1.208 . S
C91 O96 1.247 . S
C91 O97 1.208 . S
C92 O84 1.315 . S
C92 O87 1.279 . S
C93 O94 1.315 . S
C93 O95 1.279 . S
O94 Cd86 2.223 . S
O94 C93 1.315 . S
O95 Cd85 2.240 . S
O95 C93 1.279 . S
O96 Cd86 2.297 . S
O96 C91 1.247 . S
O97 Cd86 2.439 . S
O97 C91 1.208 . S
O98 Cd99 2.223 . S
O98 C106 1.315 . S
Cd99 O98 2.223 . S
Cd99 O102 2.297 . S
Cd99 O103 2.439 . S
Cd99 O109 2.240 . S
Cd100 O101 2.240 . S
Cd100 O108 2.223 . S
Cd100 O110 2.297 . S
Cd100 O111 2.439 . S
O101 Cd100 2.240 . S
O101 C106 1.279 . S
O102 Cd99 2.297 . S
O102 C104 1.247 . S
O103 Cd99 2.439 . S
O103 C104 1.208 . S
C104 O102 1.247 . S
C104 O103 1.208 . S
C105 O110 1.247 . S
C105 O111 1.208 . S
C106 O98 1.315 . S
C106 O101 1.279 . S
C107 O108 1.315 . S
C107 O109 1.279 . S
O108 Cd100 2.223 . S
O108 C107 1.315 . S
O109 Cd99 2.240 . S
O109 C107 1.279 . S
O110 Cd100 2.297 . S
O110 C105 1.247 . S
O111 Cd100 2.439 . S
O111 C105 1.208 . S
O112 Cd113 2.223 . S
O112 C120 1.315 . S
Cd113 O112 2.223 . S
Cd113 O116 2.297 . S
Cd113 O117 2.439 . S
Cd113 O123 2.240 . S
Cd114 O115 2.240 . S
Cd114 O122 2.223 . S
Cd114 O124 2.297 . S
Cd114 O125 2.439 . S
O115 Cd114 2.240 . S
O115 C120 1.279 . S
O116 Cd113 2.297 . S
O116 C118 1.247 . S
O117 Cd113 2.439 . S
O117 C118 1.208 . S
C118 O116 1.247 . S
C118 O117 1.208 . S
C119 O124 1.247 . S
C119 O125 1.208 . S
C120 O112 1.315 . S
C120 O115 1.279 . S
C121 O122 1.315 . S
C121 O123 1.279 . S
O122 Cd114 2.223 . S
O122 C121 1.315 . S
O123 Cd113 2.240 . S
O123 C121 1.279 . S
O124 Cd114 2.297 . S
O124 C119 1.247 . S
O125 Cd114 2.439 . S
O125 C119 1.208 . S
O126 Cd127 2.223 . S
O126 C134 1.315 . S
Cd127 O126 2.223 . S
Cd127 O130 2.297 . S
Cd127 O131 2.439 . S
Cd127 O137 2.240 . S
Cd128 O129 2.240 . S
Cd128 O136 2.223 . S
Cd128 O138 2.297 . S
Cd128 O139 2.439 . S
O129 Cd128 2.240 . S
O129 C134 1.279 . S
O130 Cd127 2.297 . S
O130 C132 1.247 . S
O131 Cd127 2.439 . S
O131 C132 1.208 . S
C132 O130 1.247 . S
C132 O131 1.208 . S
C133 O138 1.247 . S
C133 O139 1.208 . S
C134 O126 1.315 . S
C134 O129 1.279 . S
C135 O136 1.315 . S
C135 O137 1.279 . S
O136 Cd128 2.223 . S
O136 C135 1.315 . S
O137 Cd127 2.240 . S
O137 C135 1.279 . S
O138 Cd128 2.297 . S
O138 C133 1.247 . S
O139 Cd128 2.439 . S
O139 C133 1.208 . S
O140 Cd141 2.223 . S
O140 C148 1.315 . S
Cd141 O140 2.223 . S
Cd141 O144 2.297 . S
Cd141 O145 2.439 . S
Cd141 O151 2.240 . S
Cd142 O143 2.240 . S
Cd142 O150 2.223 . S
Cd142 O152 2.297 . S
Cd142 O153 2.439 . S
O143 Cd142 2.240 . S
O143 C148 1.279 . S
O144 Cd141 2.297 . S
O144 C146 1.247 . S
O145 Cd141 2.439 . S
O145 C146 1.208 . S
C146 O144 1.247 . S
C146 O145 1.208 . S
C147 O152 1.247 . S
C147 O153 1.208 . S
C148 O140 1.315 . S
C148 O143 1.279 . S
C149 O150 1.315 . S
C149 O151 1.279 . S
O150 Cd142 2.223 . S
O150 C149 1.315 . S
O151 Cd141 2.240 . S
O151 C149 1.279 . S
O152 Cd142 2.297 . S
O152 C147 1.247 . S
O153 Cd142 2.439 . S
O153 C147 1.208 . S
O154 Cd155 2.223 . S
O154 C162 1.315 . S
Cd155 O154 2.223 . S
Cd155 O158 2.297 . S
Cd155 O159 2.439 . S
Cd155 O165 2.240 . S
Cd156 O157 2.240 . S
Cd156 O164 2.223 . S
Cd156 O166 2.297 . S
Cd156 O167 2.439 . S
O157 Cd156 2.240 . S
O157 C162 1.279 . S
O158 Cd155 2.297 . S
O158 C160 1.247 . S
O159 Cd155 2.439 . S
O159 C160 1.208 . S
C160 O158 1.247 . S
C160 O159 1.208 . S
C161 O166 1.247 . S
C161 O167 1.208 . S
C162 O154 1.315 . S
C162 O157 1.279 . S
C163 O164 1.315 . S
C163 O165 1.279 . S
O164 Cd156 2.223 . S
O164 C163 1.315 . S
O165 Cd155 2.240 . S
O165 C163 1.279 . S
O166 Cd156 2.297 . S
O166 C161 1.247 . S
O167 Cd156 2.439 . S
O167 C161 1.208 . S
H168 C180 0.930 . S
H169 C182 0.930 . S
H170 C183 0.930 . S
H171 C187 0.959 . S
H172 C187 0.959 . S
H173 C187 0.961 . S
H174 C188 0.960 . S
H175 C188 0.961 . S
H176 C188 0.959 . S
H177 C191 0.929 . S
H178 C192 0.931 . S
H179 C194 0.930 . S
C180 H168 0.930 . S
C180 C181 1.399 . S
C180 C185 1.399 . S
C181 C180 1.399 . S
C181 C182 1.376 . S
C182 H169 0.930 . S
C182 C181 1.376 . S
C182 C183 1.388 . S
C183 H170 0.930 . S
C183 C182 1.388 . S
C183 C184 1.390 . S
C184 C183 1.390 . S
C184 C185 1.394 . S
C184 C190 1.465 1_554 S
C185 C180 1.399 . S
C185 C184 1.394 . S
C185 C186 1.516 1_554 S
C186 C185 1.516 1_556 S
C186 C187 1.502 1_556 S
C186 C188 1.561 . S
C186 C189 1.526 . S
C187 H171 0.959 . S
C187 H172 0.959 . S
C187 H173 0.961 . S
C187 C186 1.502 1_554 S
C188 H174 0.960 . S
C188 H175 0.961 . S
C188 H176 0.959 . S
C188 C186 1.561 . S
C189 C186 1.526 . S
C189 C190 1.396 . S
C189 C194 1.390 . S
C190 C184 1.465 1_556 S
C190 C189 1.396 . S
C190 C191 1.399 . S
C191 H177 0.929 . S
C191 C190 1.399 . S
C191 C192 1.385 . S
C192 H178 0.931 . S
C192 C191 1.385 . S
C192 C193 1.389 . S
C193 C192 1.389 . S
C193 C194 1.387 . S
C194 H179 0.930 . S
C194 C189 1.390 . S
C194 C193 1.387 . S
H195 C207 0.930 . S
H196 C209 0.930 . S
H197 C210 0.930 . S
H198 C214 0.959 . S
H199 C214 0.959 . S
H200 C214 0.961 . S
H201 C215 0.960 1_554 S
H202 C215 0.961 . S
H203 C215 0.959 . S
H204 C218 0.929 . S
H205 C219 0.931 . S
H206 C221 0.927 1_545 S
C207 H195 0.930 . S
C207 C208 1.399 . S
C207 C212 1.399 . S
C208 C207 1.399 . S
C208 C209 1.376 . S
C209 H196 0.930 . S
C209 C208 1.376 . S
C209 C210 1.388 1_554 S
C210 H197 0.930 . S
C210 C209 1.388 1_556 S
C210 C211 1.390 . S
C211 C210 1.390 . S
C211 C212 1.394 1_556 S
C211 C217 1.465 . S
C212 C207 1.399 . S
C212 C211 1.394 1_554 S
C212 C213 1.516 . S
C213 C212 1.516 . S
C213 C214 1.502 . S
C213 C215 1.561 1_554 S
C213 C216 1.526 1_554 S
C214 H198 0.959 . S
C214 H199 0.959 . S
C214 H200 0.961 . S
C214 C213 1.502 . S
C215 H201 0.960 1_556 S
C215 H202 0.961 . S
C215 H203 0.959 . S
C215 C213 1.561 1_556 S
C216 C213 1.526 1_556 S
C216 C217 1.396 . S
C216 C221 1.390 . S
C217 C211 1.465 . S
C217 C216 1.396 . S
C217 C218 1.399 . S
C218 H204 0.929 . S
C218 C217 1.399 . S
C218 C219 1.385 . S
C219 H205 0.931 . S
C219 C218 1.385 . S
C219 C220 1.389 . S
C220 C219 1.389 . S
C220 C221 1.387 . S
C221 H206 0.927 1_565 S
C221 C216 1.390 . S
C221 C220 1.387 . S
H222 C234 0.930 . S
H223 C236 0.930 . S
H224 C237 0.930 . S
H225 C241 0.959 . S
H226 C241 0.959 . S
H227 C241 0.961 . S
H228 C242 0.960 . S
H229 C242 0.961 . S
H230 C242 0.959 . S
H231 C245 0.929 . S
H232 C246 0.931 . S
H233 C248 0.925 1_554 S
C234 H222 0.930 . S
C234 C235 1.399 . S
C234 C239 1.399 . S
C235 C234 1.399 . S
C235 C236 1.376 1_554 S
C236 H223 0.930 . S
C236 C235 1.376 1_556 S
C236 C237 1.388 . S
C237 H224 0.930 . S
C237 C236 1.388 . S
C237 C238 1.390 . S
C238 C237 1.390 . S
C238 C239 1.394 1_556 S
C238 C244 1.465 . S
C239 C234 1.399 . S
C239 C238 1.394 1_554 S
C239 C240 1.516 . S
C240 C239 1.516 . S
C240 C241 1.502 . S
C240 C242 1.561 . S
C240 C243 1.526 . S
C241 H225 0.959 . S
C241 H226 0.959 . S
C241 H227 0.961 . S
C241 C240 1.502 . S
C242 H228 0.960 . S
C242 H229 0.961 . S
C242 H230 0.959 . S
C242 C240 1.561 . S
C243 C240 1.526 . S
C243 C244 1.396 1_554 S
C243 C248 1.388 1_554 S
C244 C238 1.465 . S
C244 C243 1.396 1_556 S
C244 C245 1.399 . S
C245 H231 0.929 . S
C245 C244 1.399 . S
C245 C246 1.385 . S
C246 H232 0.931 . S
C246 C245 1.385 . S
C246 C247 1.389 . S
C247 C246 1.389 . S
C247 C248 1.393 . S
C248 H233 0.925 1_556 S
C248 C243 1.388 1_556 S
C248 C247 1.393 . S
H249 C261 0.930 . S
H250 C263 0.930 . S
H251 C264 0.930 . S
H252 C268 0.959 . S
H253 C268 0.959 . S
H254 C268 0.961 . S
H255 C269 0.960 . S
H256 C269 0.961 . S
H257 C269 0.959 . S
H258 C272 0.929 . S
H259 C273 0.931 . S
H260 C275 0.930 . S
C261 H249 0.930 . S
C261 C262 1.399 . S
C261 C266 1.399 . S
C262 C261 1.399 . S
C262 C263 1.376 . S
C263 H250 0.930 . S
C263 C262 1.376 . S
C263 C264 1.388 . S
C264 H251 0.930 . S
C264 C263 1.388 . S
C264 C265 1.390 . S
C265 C264 1.390 . S
C265 C266 1.394 . S
C265 C271 1.465 . S
C266 C261 1.399 . S
C266 C265 1.394 . S
C266 C267 1.516 . S
C267 C266 1.516 . S
C267 C268 1.502 . S
C267 C269 1.561 . S
C267 C270 1.526 . S
C268 H252 0.959 . S
C268 H253 0.959 . S
C268 H254 0.961 . S
C268 C267 1.502 . S
C269 H255 0.960 . S
C269 H256 0.961 . S
C269 H257 0.959 . S
C269 C267 1.561 . S
C270 C267 1.526 . S
C270 C271 1.396 . S
C270 C275 1.390 . S
C271 C265 1.465 . S
C271 C270 1.396 . S
C271 C272 1.399 . S
C272 H258 0.929 . S
C272 C271 1.399 . S
C272 C273 1.385 . S
C273 H259 0.931 . S
C273 C272 1.385 . S
C273 C274 1.389 . S
C274 C273 1.389 . S
C274 C275 1.387 . S
C275 H260 0.930 . S
C275 C270 1.390 . S
C275 C274 1.387 . S
H276 C288 0.930 . S
H277 C290 0.930 . S
H278 C291 0.930 . S
H279 C295 0.959 . S
H280 C295 0.959 . S
H281 C295 0.961 . S
H282 C296 0.960 . S
H283 C296 0.961 . S
H284 C296 0.959 . S
H285 C299 0.929 . S
H286 C300 0.931 . S
H287 C302 0.930 1_545 S
C288 H276 0.930 . S
C288 C289 1.399 . S
C288 C293 1.399 . S
C289 C288 1.399 . S
C289 C290 1.376 . S
C290 H277 0.930 . S
C290 C289 1.376 . S
C290 C291 1.388 . S
C291 H278 0.930 . S
C291 C290 1.388 . S
C291 C292 1.390 . S
C292 C291 1.390 . S
C292 C293 1.394 . S
C292 C298 1.465 . S
C293 C288 1.399 . S
C293 C292 1.394 . S
C293 C294 1.516 . S
C294 C293 1.516 . S
C294 C295 1.502 . S
C294 C296 1.561 . S
C294 C297 1.526 . S
C295 H279 0.959 . S
C295 H280 0.959 . S
C295 H281 0.961 . S
C295 C294 1.502 . S
C296 H282 0.960 . S
C296 H283 0.961 . S
C296 H284 0.959 . S
C296 C294 1.561 . S
C297 C294 1.526 . S
C297 C298 1.396 . S
C297 C302 1.390 . S
C298 C292 1.465 . S
C298 C297 1.396 . S
C298 C299 1.399 . S
C299 H285 0.929 . S
C299 C298 1.399 . S
C299 C300 1.385 . S
C300 H286 0.931 . S
C300 C299 1.385 . S
C300 C301 1.389 . S
C301 C300 1.389 . S
C301 C302 1.387 . S
C302 H287 0.930 1_565 S
C302 C297 1.390 . S
C302 C301 1.387 . S
H303 C315 0.930 . S
H304 C317 0.930 . S
H305 C318 0.930 . S
H306 C322 0.959 . S
H307 C322 0.959 . S
H308 C322 0.961 . S
H309 C323 0.960 . S
H310 C323 0.961 . S
H311 C323 0.959 . S
H312 C326 0.929 . S
H313 C327 0.931 . S
H314 C329 0.930 . S
C315 H303 0.930 . S
C315 C316 1.399 . S
C315 C320 1.399 . S
C316 C315 1.399 . S
C316 C317 1.376 . S
C317 H304 0.930 . S
C317 C316 1.376 . S
C317 C318 1.388 . S
C318 H305 0.930 . S
C318 C317 1.388 . S
C318 C319 1.390 . S
C319 C318 1.390 . S
C319 C320 1.394 . S
C319 C325 1.465 . S
C320 C315 1.399 . S
C320 C319 1.394 . S
C320 C321 1.516 . S
C321 C320 1.516 . S
C321 C322 1.502 . S
C321 C323 1.561 . S
C321 C324 1.526 . S
C322 H306 0.959 . S
C322 H307 0.959 . S
C322 H308 0.961 . S
C322 C321 1.502 . S
C323 H309 0.960 . S
C323 H310 0.961 . S
C323 H311 0.959 . S
C323 C321 1.561 . S
C324 C321 1.526 . S
C324 C325 1.396 . S
C324 C329 1.390 . S
C325 C319 1.465 . S
C325 C324 1.396 . S
C325 C326 1.399 . S
C326 H312 0.929 . S
C326 C325 1.399 . S
C326 C327 1.385 . S
C327 H313 0.931 . S
C327 C326 1.385 . S
C327 C328 1.389 . S
C328 C327 1.389 . S
C328 C329 1.387 . S
C329 H314 0.930 . S
C329 C324 1.390 . S
C329 C328 1.387 . S
H330 C342 0.930 . S
H331 C344 0.930 . S
H332 C345 0.930 . S
H333 C349 0.959 . S
H334 C349 0.959 . S
H335 C349 0.961 . S
H336 C350 0.960 . S
H337 C350 0.961 . S
H338 C350 0.959 . S
H339 C353 0.929 1_554 S
H340 C354 0.931 . S
H341 C356 0.930 . S
C342 H330 0.930 . S
C342 C343 1.399 . S
C342 C347 1.399 . S
C343 C342 1.399 . S
C343 C344 1.376 . S
C344 H331 0.930 . S
C344 C343 1.376 . S
C344 C345 1.388 . S
C345 H332 0.930 . S
C345 C344 1.388 . S
C345 C346 1.390 . S
C346 C345 1.390 . S
C346 C347 1.394 . S
C346 C352 1.453 1_554 S
C347 C342 1.399 . S
C347 C346 1.394 . S
C347 C348 1.516 1_554 S
C348 C347 1.516 1_556 S
C348 C349 1.502 . S
C348 C350 1.561 1_556 S
C348 C351 1.526 . S
C349 H333 0.959 . S
C349 H334 0.959 . S
C349 H335 0.961 . S
C349 C348 1.502 . S
C350 H336 0.960 . S
C350 H337 0.961 . S
C350 H338 0.959 . S
C350 C348 1.561 1_554 S
C351 C348 1.526 . S
C351 C352 1.410 . S
C351 C356 1.390 . S
C352 C346 1.453 1_556 S
C352 C351 1.410 . S
C352 C353 1.400 . S
C353 H339 0.929 1_556 S
C353 C352 1.400 . S
C353 C354 1.385 . S
C354 H340 0.931 . S
C354 C353 1.385 . S
C354 C355 1.389 . S
C355 C354 1.389 . S
C355 C356 1.387 . S
C356 H341 0.930 . S
C356 C351 1.390 . S
C356 C355 1.387 . S
H357 C369 0.930 1_554 S
H358 C371 0.930 . S
H359 C372 0.930 . S
H360 C376 0.959 . S
H361 C376 0.959 . S
H362 C376 0.961 . S
H363 C377 0.960 . S
H364 C377 0.961 . S
H365 C377 0.959 . S
H366 C380 0.929 . S
H367 C381 0.909 1_565 S
H368 C383 0.930 . S
C369 H357 0.930 1_556 S
C369 C370 1.399 . S
C369 C374 1.399 1_556 S
C370 C369 1.399 . S
C370 C371 1.376 . S
C371 H358 0.930 . S
C371 C370 1.376 . S
C371 C372 1.388 . S
C372 H359 0.930 . S
C372 C371 1.388 . S
C372 C373 1.390 . S
C373 C372 1.390 . S
C373 C374 1.394 1_556 S
C373 C379 1.465 . S
C374 C369 1.399 1_554 S
C374 C373 1.394 1_554 S
C374 C375 1.516 . S
C375 C374 1.516 . S
C375 C376 1.502 . S
C375 C377 1.561 . S
C375 C378 1.526 . S
C376 H360 0.959 . S
C376 H361 0.959 . S
C376 H362 0.961 . S
C376 C375 1.502 . S
C377 H363 0.960 . S
C377 H364 0.961 . S
C377 H365 0.959 . S
C377 C375 1.561 . S
C378 C375 1.526 . S
C378 C379 1.396 1_554 S
C378 C383 1.390 . S
C379 C373 1.465 . S
C379 C378 1.396 1_556 S
C379 C380 1.399 . S
C380 H366 0.929 . S
C380 C379 1.399 . S
C380 C381 1.407 . S
C381 H367 0.909 1_545 S
C381 C380 1.407 . S
C381 C382 1.389 1_556 S
C382 C381 1.389 1_554 S
C382 C383 1.387 . S
C383 H368 0.930 . S
C383 C378 1.390 . S
C383 C382 1.387 . S
H384 C396 0.930 . S
H385 C398 0.930 . S
H386 C399 0.930 1_556 S
H387 C403 0.948 1_556 S
H388 C403 0.959 . S
H389 C403 0.967 . S
H390 C404 0.960 . S
H391 C404 0.961 . S
H392 C404 0.959 . S
H393 C407 0.929 . S
H394 C408 0.931 . S
H395 C410 0.930 . S
C396 H384 0.930 . S
C396 C397 1.399 . S
C396 C401 1.399 . S
C397 C396 1.399 . S
C397 C398 1.376 . S
C398 H385 0.930 . S
C398 C397 1.376 . S
C398 C399 1.388 . S
C399 H386 0.930 1_554 S
C399 C398 1.388 . S
C399 C400 1.390 . S
C400 C399 1.390 . S
C400 C401 1.394 . S
C400 C406 1.465 1_554 S
C401 C396 1.399 . S
C401 C400 1.394 . S
C401 C402 1.516 . S
C402 C401 1.516 . S
C402 C403 1.506 . S
C402 C404 1.561 . S
C402 C405 1.526 1_554 S
C403 H387 0.948 1_554 S
C403 H388 0.959 . S
C403 H389 0.967 . S
C403 C402 1.506 . S
C404 H390 0.960 . S
C404 H391 0.961 . S
C404 H392 0.959 . S
C404 C402 1.561 . S
C405 C402 1.526 1_556 S
C405 C406 1.396 . S
C405 C410 1.390 . S
C406 C400 1.465 1_556 S
C406 C405 1.396 . S
C406 C407 1.399 . S
C407 H393 0.929 . S
C407 C406 1.399 . S
C407 C408 1.385 . S
C408 H394 0.931 . S
C408 C407 1.385 . S
C408 C409 1.389 . S
C409 C408 1.389 . S
C409 C410 1.387 . S
C410 H395 0.930 . S
C410 C405 1.390 . S
C410 C409 1.387 . S
H411 C423 0.930 . S
H412 C425 0.930 . S
H413 C426 0.930 . S
H414 C430 0.959 . S
H415 C430 0.959 . S
H416 C430 0.961 . S
H417 C431 0.960 . S
H418 C431 0.961 . S
H419 C431 0.959 . S
H420 C434 0.929 . S
H421 C435 0.931 . S
H422 C437 0.930 . S
C423 H411 0.930 . S
C423 C424 1.399 . S
C423 C428 1.399 . S
C424 C423 1.399 . S
C424 C425 1.376 . S
C425 H412 0.930 . S
C425 C424 1.376 . S
C425 C426 1.388 . S
C426 H413 0.930 . S
C426 C425 1.388 . S
C426 C427 1.390 . S
C427 C426 1.390 . S
C427 C428 1.394 . S
C427 C433 1.465 . S
C428 C423 1.399 . S
C428 C427 1.394 . S
C428 C429 1.516 . S
C429 C428 1.516 . S
C429 C430 1.502 . S
C429 C431 1.561 . S
C429 C432 1.526 . S
C430 H414 0.959 . S
C430 H415 0.959 . S
C430 H416 0.961 . S
C430 C429 1.502 . S
C431 H417 0.960 . S
C431 H418 0.961 . S
C431 H419 0.959 . S
C431 C429 1.561 . S
C432 C429 1.526 . S
C432 C433 1.396 . S
C432 C437 1.390 . S
C433 C427 1.465 . S
C433 C432 1.396 . S
C433 C434 1.399 . S
C434 H420 0.929 . S
C434 C433 1.399 . S
C434 C435 1.385 . S
C435 H421 0.931 . S
C435 C434 1.385 . S
C435 C436 1.389 . S
C436 C435 1.389 . S
C436 C437 1.387 . S
C437 H422 0.930 . S
C437 C432 1.390 . S
C437 C436 1.387 . S
H438 C450 0.930 . S
H439 C452 0.930 . S
H440 C453 0.930 . S
H441 C457 0.959 . S
H442 C457 0.959 . S
H443 C457 0.961 . S
H444 C458 0.960 . S
H445 C458 0.961 . S
H446 C458 0.959 . S
H447 C461 0.929 . S
H448 C462 0.931 1_565 S
H449 C464 0.930 . S
C450 H438 0.930 . S
C450 C451 1.399 . S
C450 C455 1.399 . S
C451 C450 1.399 . S
C451 C452 1.376 . S
C452 H439 0.930 . S
C452 C451 1.376 . S
C452 C453 1.388 . S
C453 H440 0.930 . S
C453 C452 1.388 . S
C453 C454 1.390 . S
C454 C453 1.390 . S
C454 C455 1.394 . S
C454 C460 1.465 . S
C455 C450 1.399 . S
C455 C454 1.394 . S
C455 C456 1.516 . S
C456 C455 1.516 . S
C456 C457 1.502 . S
C456 C458 1.561 . S
C456 C459 1.526 . S
C457 H441 0.959 . S
C457 H442 0.959 . S
C457 H443 0.961 . S
C457 C456 1.502 . S
C458 H444 0.960 . S
C458 H445 0.961 . S
C458 H446 0.959 . S
C458 C456 1.561 . S
C459 C456 1.526 . S
C459 C460 1.396 . S
C459 C464 1.390 . S
C460 C454 1.465 . S
C460 C459 1.396 . S
C460 C461 1.399 . S
C461 H447 0.929 . S
C461 C460 1.399 . S
C461 C462 1.385 . S
C462 H448 0.931 1_545 S
C462 C461 1.385 . S
C462 C463 1.389 . S
C463 C462 1.389 . S
C463 C464 1.387 . S
C464 H449 0.930 . S
C464 C459 1.390 . S
C464 C463 1.387 . S
H465 C477 0.930 . S
H466 C479 0.930 . S
H467 C480 0.930 . S
H468 C484 0.959 . S
H469 C484 0.959 . S
H470 C484 0.961 . S
H471 C485 0.960 . S
H472 C485 0.961 . S
H473 C485 0.959 . S
H474 C488 0.929 . S
H475 C489 0.931 . S
H476 C491 0.930 . S
C477 H465 0.930 . S
C477 C478 1.399 . S
C477 C482 1.399 . S
C478 C477 1.399 . S
C478 C479 1.376 . S
C479 H466 0.930 . S
C479 C478 1.376 . S
C479 C480 1.388 . S
C480 H467 0.930 . S
C480 C479 1.388 . S
C480 C481 1.390 . S
C481 C480 1.390 . S
C481 C482 1.394 . S
C481 C487 1.465 . S
C482 C477 1.399 . S
C482 C481 1.394 . S
C482 C483 1.516 . S
C483 C482 1.516 . S
C483 C484 1.502 . S
C483 C485 1.561 . S
C483 C486 1.526 . S
C484 H468 0.959 . S
C484 H469 0.959 . S
C484 H470 0.961 . S
C484 C483 1.502 . S
C485 H471 0.960 . S
C485 H472 0.961 . S
C485 H473 0.959 . S
C485 C483 1.561 . S
C486 C483 1.526 . S
C486 C487 1.396 . S
C486 C491 1.390 . S
C487 C481 1.465 . S
C487 C486 1.396 . S
C487 C488 1.399 . S
C488 H474 0.929 . S
C488 C487 1.399 . S
C488 C489 1.385 . S
C489 H475 0.931 . S
C489 C488 1.385 . S
C489 C490 1.389 . S
C490 C489 1.389 . S
C490 C491 1.387 . S
C491 H476 0.930 . S
C491 C486 1.390 . S
C491 C490 1.387 . S
H492 C504 0.930 . S
H493 C506 0.930 . S
H494 C507 0.930 . S
H495 C511 0.959 . S
H496 C511 0.959 . S
H497 C511 0.961 . S
H498 C512 0.960 . S
H499 C512 0.961 . S
H500 C512 0.959 . S
H501 C515 0.929 . S
H502 C516 0.931 . S
H503 C518 0.930 . S
C504 H492 0.930 . S
C504 C505 1.399 . S
C504 C509 1.399 . S
C505 C504 1.399 . S
C505 C506 1.376 . S
C506 H493 0.930 . S
C506 C505 1.376 . S
C506 C507 1.388 . S
C507 H494 0.930 . S
C507 C506 1.388 . S
C507 C508 1.390 . S
C508 C507 1.390 . S
C508 C509 1.394 . S
C508 C514 1.465 . S
C509 C504 1.399 . S
C509 C508 1.394 . S
C509 C510 1.516 . S
C510 C509 1.516 . S
C510 C511 1.502 . S
C510 C512 1.561 . S
C510 C513 1.526 . S
C511 H495 0.959 . S
C511 H496 0.959 . S
C511 H497 0.961 . S
C511 C510 1.502 . S
C512 H498 0.960 . S
C512 H499 0.961 . S
C512 H500 0.959 . S
C512 C510 1.561 . S
C513 C510 1.526 . S
C513 C514 1.396 . S
C513 C518 1.390 . S
C514 C508 1.465 . S
C514 C513 1.396 . S
C514 C515 1.399 . S
C515 H501 0.929 . S
C515 C514 1.399 . S
C515 C516 1.385 . S
C516 H502 0.931 . S
C516 C515 1.385 . S
C516 C517 1.389 . S
C517 C516 1.389 . S
C517 C518 1.387 . S
C518 H503 0.930 . S
C518 C513 1.390 . S
C518 C517 1.387 . S
H519 C531 0.930 . S
H520 C533 0.930 . S
H521 C534 0.930 . S
H522 C538 0.959 . S
H523 C538 0.959 . S
H524 C538 0.961 . S
H525 C539 0.960 . S
H526 C539 0.961 . S
H527 C539 0.959 . S
H528 C542 0.929 . S
H529 C543 0.931 . S
H530 C545 0.930 . S
C531 H519 0.930 . S
C531 C532 1.399 . S
C531 C536 1.399 . S
C532 C531 1.399 . S
C532 C533 1.376 . S
C533 H520 0.930 . S
C533 C532 1.376 . S
C533 C534 1.388 . S
C534 H521 0.930 . S
C534 C533 1.388 . S
C534 C535 1.390 . S
C535 C534 1.390 . S
C535 C536 1.394 . S
C535 C541 1.465 . S
C536 C531 1.399 . S
C536 C535 1.394 . S
C536 C537 1.516 . S
C537 C536 1.516 . S
C537 C538 1.502 . S
C537 C539 1.561 . S
C537 C540 1.526 . S
C538 H522 0.959 . S
C538 H523 0.959 . S
C538 H524 0.961 . S
C538 C537 1.502 . S
C539 H525 0.960 . S
C539 H526 0.961 . S
C539 H527 0.959 . S
C539 C537 1.561 . S
C540 C537 1.526 . S
C540 C541 1.396 . S
C540 C545 1.390 . S
C541 C535 1.465 . S
C541 C540 1.396 . S
C541 C542 1.399 . S
C542 H528 0.929 . S
C542 C541 1.399 . S
C542 C543 1.385 . S
C543 H529 0.931 . S
C543 C542 1.385 . S
C543 C544 1.389 . S
C544 C543 1.389 . S
C544 C545 1.387 . S
C545 H530 0.930 . S
C545 C540 1.390 . S
C545 C544 1.387 . S
H546 C558 0.930 . S
H547 C560 0.930 . S
H548 C561 0.930 . S
H549 C565 0.959 . S
H550 C565 0.959 . S
H551 C565 0.961 . S
H552 C566 0.960 . S
H553 C566 0.961 . S
H554 C566 0.959 . S
H555 C569 0.929 . S
H556 C570 0.931 . S
H557 C572 0.930 . S
C558 H546 0.930 . S
C558 C559 1.399 . S
C558 C563 1.399 . S
C559 C558 1.399 . S
C559 C560 1.376 . S
C560 H547 0.930 . S
C560 C559 1.376 . S
C560 C561 1.388 . S
C561 H548 0.930 . S
C561 C560 1.388 . S
C561 C562 1.390 . S
C562 C561 1.390 . S
C562 C563 1.394 . S
C562 C568 1.465 . S
C563 C558 1.399 . S
C563 C562 1.394 . S
C563 C564 1.516 . S
C564 C563 1.516 . S
C564 C565 1.502 . S
C564 C566 1.561 . S
C564 C567 1.526 . S
C565 H549 0.959 . S
C565 H550 0.959 . S
C565 H551 0.961 . S
C565 C564 1.502 . S
C566 H552 0.960 . S
C566 H553 0.961 . S
C566 H554 0.959 . S
C566 C564 1.561 . S
C567 C564 1.526 . S
C567 C568 1.396 . S
C567 C572 1.390 . S
C568 C562 1.465 . S
C568 C567 1.396 . S
C568 C569 1.399 . S
C569 H555 0.929 . S
C569 C568 1.399 . S
C569 C570 1.385 . S
C570 H556 0.931 . S
C570 C569 1.385 . S
C570 C571 1.389 . S
C571 C570 1.389 . S
C571 C572 1.387 . S
C572 H557 0.930 . S
C572 C567 1.390 . S
C572 C571 1.387 . S
H573 C585 0.930 . S
H574 C587 0.930 . S
H575 C588 0.930 . S
H576 C592 0.959 . S
H577 C592 0.959 . S
H578 C592 0.961 . S
H579 C593 0.960 . S
H580 C593 0.961 . S
H581 C593 0.959 . S
H582 C596 0.929 . S
H583 C597 0.931 . S
H584 C599 0.930 . S
C585 H573 0.930 . S
C585 C586 1.399 . S
C585 C590 1.399 . S
C586 C585 1.399 . S
C586 C587 1.376 . S
C587 H574 0.930 . S
C587 C586 1.376 . S
C587 C588 1.388 . S
C588 H575 0.930 . S
C588 C587 1.388 . S
C588 C589 1.390 . S
C589 C588 1.390 . S
C589 C590 1.394 . S
C589 C595 1.465 . S
C590 C585 1.399 . S
C590 C589 1.394 . S
C590 C591 1.516 . S
C591 C590 1.516 . S
C591 C592 1.502 . S
C591 C593 1.561 . S
C591 C594 1.526 . S
C592 H576 0.959 . S
C592 H577 0.959 . S
C592 H578 0.961 . S
C592 C591 1.502 . S
C593 H579 0.960 . S
C593 H580 0.961 . S
C593 H581 0.959 . S
C593 C591 1.561 . S
C594 C591 1.526 . S
C594 C595 1.396 . S
C594 C599 1.390 . S
C595 C589 1.465 . S
C595 C594 1.396 . S
C595 C596 1.399 . S
C596 H582 0.929 . S
C596 C595 1.399 . S
C596 C597 1.385 . S
C597 H583 0.931 . S
C597 C596 1.385 . S
C597 C598 1.389 . S
C598 C597 1.389 . S
C598 C599 1.387 . S
C599 H584 0.930 . S
C599 C594 1.390 . S
C599 C598 1.387 . S
H600 C612 0.930 . S
H601 C614 0.930 . S
H602 C615 0.930 . S
H603 C619 0.959 . S
H604 C619 0.959 . S
H605 C619 0.961 . S
H606 C620 0.960 . S
H607 C620 0.961 . S
H608 C620 0.959 . S
H609 C623 0.929 . S
H610 C624 0.931 . S
H611 C626 0.930 . S
C612 H600 0.930 . S
C612 C613 1.399 . S
C612 C617 1.399 . S
C613 C612 1.399 . S
C613 C614 1.376 . S
C614 H601 0.930 . S
C614 C613 1.376 . S
C614 C615 1.388 . S
C615 H602 0.930 . S
C615 C614 1.388 . S
C615 C616 1.390 . S
C616 C615 1.390 . S
C616 C617 1.394 . S
C616 C622 1.465 . S
C617 C612 1.399 . S
C617 C616 1.394 . S
C617 C618 1.516 . S
C618 C617 1.516 . S
C618 C619 1.502 . S
C618 C620 1.561 . S
C618 C621 1.526 . S
C619 H603 0.959 . S
C619 H604 0.959 . S
C619 H605 0.961 . S
C619 C618 1.502 . S
C620 H606 0.960 . S
C620 H607 0.961 . S
C620 H608 0.959 . S
C620 C618 1.561 . S
C621 C618 1.526 . S
C621 C622 1.396 . S
C621 C626 1.390 . S
C622 C616 1.465 . S
C622 C621 1.396 . S
C622 C623 1.399 . S
C623 H609 0.929 . S
C623 C622 1.399 . S
C623 C624 1.385 . S
C624 H610 0.931 . S
C624 C623 1.385 . S
C624 C625 1.389 . S
C625 C624 1.389 . S
C625 C626 1.387 . S
C626 H611 0.930 . S
C626 C621 1.390 . S
C626 C625 1.387 . S
H627 C639 0.930 . S
H628 C641 0.930 . S
H629 C642 0.930 . S
H630 C646 0.959 . S
H631 C646 0.959 . S
H632 C646 0.961 . S
H633 C647 0.960 . S
H634 C647 0.961 . S
H635 C647 0.959 . S
H636 C650 0.929 . S
H637 C651 0.931 . S
H638 C653 0.930 . S
C639 H627 0.930 . S
C639 C640 1.399 . S
C639 C644 1.399 . S
C640 C639 1.399 . S
C640 C641 1.376 . S
C641 H628 0.930 . S
C641 C640 1.376 . S
C641 C642 1.388 . S
C642 H629 0.930 . S
C642 C641 1.388 . S
C642 C643 1.390 . S
C643 C642 1.390 . S
C643 C644 1.394 . S
C643 C649 1.465 . S
C644 C639 1.399 . S
C644 C643 1.394 . S
C644 C645 1.516 . S
C645 C644 1.516 . S
C645 C646 1.502 . S
C645 C647 1.561 . S
C645 C648 1.526 . S
C646 H630 0.959 . S
C646 H631 0.959 . S
C646 H632 0.961 . S
C646 C645 1.502 . S
C647 H633 0.960 . S
C647 H634 0.961 . S
C647 H635 0.959 . S
C647 C645 1.561 . S
C648 C645 1.526 . S
C648 C649 1.396 . S
C648 C653 1.390 . S
C649 C643 1.465 . S
C649 C648 1.396 . S
C649 C650 1.399 . S
C650 H636 0.929 . S
C650 C649 1.399 . S
C650 C651 1.385 . S
C651 H637 0.931 . S
C651 C650 1.385 . S
C651 C652 1.389 . S
C652 C651 1.389 . S
C652 C653 1.387 . S
C653 H638 0.930 . S
C653 C648 1.390 . S
C653 C652 1.387 . S
H654 C666 0.930 . S
H655 C668 0.930 . S
H656 C669 0.930 . S
H657 C673 0.959 1_655 S
H658 C673 0.959 . S
H659 C673 0.961 . S
H660 C674 0.960 . S
H661 C674 0.961 . S
H662 C674 0.959 1_556 S
H663 C677 0.929 . S
H664 C678 0.931 . S
H665 C680 0.930 . S
C666 H654 0.930 . S
C666 C667 1.399 . S
C666 C671 1.399 . S
C667 C666 1.399 . S
C667 C668 1.376 . S
C668 H655 0.930 . S
C668 C667 1.376 . S
C668 C669 1.388 1_454 S
C669 H656 0.930 . S
C669 C668 1.388 1_656 S
C669 C670 1.390 1_655 S
C670 C669 1.390 1_455 S
C670 C671 1.394 1_556 S
C670 C676 1.465 1_455 S
C671 C666 1.399 . S
C671 C670 1.394 1_554 S
C671 C672 1.516 . S
C672 C671 1.516 . S
C672 C673 1.502 . S
C672 C674 1.561 . S
C672 C675 1.521 1_454 S
C673 H657 0.959 1_455 S
C673 H658 0.959 . S
C673 H659 0.961 . S
C673 C672 1.502 . S
C674 H660 0.960 . S
C674 H661 0.961 . S
C674 H662 0.959 1_554 S
C674 C672 1.561 . S
C675 C672 1.521 1_656 S
C675 C676 1.395 . S
C675 C680 1.395 . S
C676 C670 1.465 1_655 S
C676 C675 1.395 . S
C676 C677 1.399 . S
C677 H663 0.929 . S
C677 C676 1.399 . S
C677 C678 1.385 . S
C678 H664 0.931 . S
C678 C677 1.385 . S
C678 C679 1.389 . S
C679 C678 1.389 . S
C679 C680 1.387 . S
C680 H665 0.930 . S
C680 C675 1.395 . S
C680 C679 1.387 . S
H681 C693 0.930 . S
H682 C695 0.928 1_556 S
H683 C696 0.930 . S
H684 C700 0.959 . S
H685 C700 0.959 . S
H686 C700 0.961 . S
H687 C701 0.960 . S
H688 C701 0.961 . S
H689 C701 0.959 . S
H690 C704 0.929 . S
H691 C705 0.931 . S
H692 C707 0.930 1_554 S
C693 H681 0.930 . S
C693 C694 1.399 . S
C693 C698 1.399 . S
C694 C693 1.399 . S
C694 C695 1.376 . S
C695 H682 0.928 1_554 S
C695 C694 1.376 . S
C695 C696 1.388 1_554 S
C696 H683 0.930 . S
C696 C695 1.388 1_556 S
C696 C697 1.390 . S
C697 C696 1.390 . S
C697 C698 1.394 1_556 S
C697 C703 1.465 . S
C698 C693 1.399 . S
C698 C697 1.394 1_554 S
C698 C699 1.516 . S
C699 C698 1.516 . S
C699 C700 1.502 . S
C699 C701 1.561 . S
C699 C702 1.527 1_554 S
C700 H684 0.959 . S
C700 H685 0.959 . S
C700 H686 0.961 . S
C700 C699 1.502 . S
C701 H687 0.960 . S
C701 H688 0.961 . S
C701 H689 0.959 . S
C701 C699 1.561 . S
C702 C699 1.527 1_556 S
C702 C703 1.395 . S
C702 C707 1.389 . S
C703 C697 1.465 . S
C703 C702 1.395 . S
C703 C704 1.399 . S
C704 H690 0.929 . S
C704 C703 1.399 . S
C704 C705 1.385 . S
C705 H691 0.931 . S
C705 C704 1.385 . S
C705 C706 1.389 . S
C706 C705 1.389 . S
C706 C707 1.387 . S
C707 H692 0.930 1_556 S
C707 C702 1.389 . S
C707 C706 1.387 . S
H708 C720 0.930 . S
H709 C722 0.930 . S
H710 C723 0.930 . S
H711 C727 0.959 . S
H712 C727 0.959 . S
H713 C727 0.961 . S
H714 C728 0.960 . S
H715 C728 0.961 . S
H716 C728 0.959 . S
H717 C731 0.929 . S
H718 C732 0.931 . S
H719 C734 0.930 . S
C720 H708 0.930 . S
C720 C721 1.399 . S
C720 C725 1.399 . S
C721 C720 1.399 . S
C721 C722 1.376 1_565 S
C722 H709 0.930 . S
C722 C721 1.376 1_545 S
C722 C723 1.388 . S
C723 H710 0.930 . S
C723 C722 1.388 . S
C723 C724 1.390 . S
C724 C723 1.390 . S
C724 C725 1.394 1_545 S
C724 C730 1.465 1_554 S
C725 C720 1.399 . S
C725 C724 1.394 1_565 S
C725 C726 1.516 1_554 S
C726 C725 1.516 1_556 S
C726 C727 1.502 1_556 S
C726 C728 1.561 . S
C726 C729 1.526 . S
C727 H711 0.959 . S
C727 H712 0.959 . S
C727 H713 0.961 . S
C727 C726 1.502 1_554 S
C728 H714 0.960 . S
C728 H715 0.961 . S
C728 H716 0.959 . S
C728 C726 1.561 . S
C729 C726 1.526 . S
C729 C730 1.396 1_565 S
C729 C734 1.390 . S
C730 C724 1.465 1_556 S
C730 C729 1.396 1_545 S
C730 C731 1.399 . S
C731 H717 0.929 . S
C731 C730 1.399 . S
C731 C732 1.385 . S
C732 H718 0.931 . S
C732 C731 1.385 . S
C732 C733 1.389 . S
C733 C732 1.389 . S
C733 C734 1.387 1_545 S
C734 H719 0.930 . S
C734 C729 1.390 . S
C734 C733 1.387 1_565 S
H735 C747 0.930 . S
H736 C749 0.930 . S
H737 C750 0.930 . S
H738 C754 0.959 . S
H739 C754 0.959 . S
H740 C754 0.961 . S
H741 C755 0.960 . S
H742 C755 0.961 . S
H743 C755 0.959 . S
H744 C758 0.929 . S
H745 C759 0.931 . S
H746 C761 0.930 . S
C747 H735 0.930 . S
C747 C748 1.399 . S
C747 C752 1.399 . S
C748 C747 1.399 . S
C748 C749 1.376 1_565 S
C749 H736 0.930 . S
C749 C748 1.376 1_545 S
C749 C750 1.388 . S
C750 H737 0.930 . S
C750 C749 1.388 . S
C750 C751 1.390 . S
C751 C750 1.390 . S
C751 C752 1.394 1_545 S
C751 C757 1.465 . S
C752 C747 1.399 . S
C752 C751 1.394 1_565 S
C752 C753 1.516 . S
C753 C752 1.516 . S
C753 C754 1.502 . S
C753 C755 1.561 . S
C753 C756 1.526 . S
C754 H738 0.959 . S
C754 H739 0.959 . S
C754 H740 0.961 . S
C754 C753 1.502 . S
C755 H741 0.960 . S
C755 H742 0.961 . S
C755 H743 0.959 . S
C755 C753 1.561 . S
C756 C753 1.526 . S
C756 C757 1.396 1_565 S
C756 C761 1.390 . S
C757 C751 1.465 . S
C757 C756 1.396 1_545 S
C757 C758 1.399 . S
C758 H744 0.929 . S
C758 C757 1.399 . S
C758 C759 1.385 . S
C759 H745 0.931 . S
C759 C758 1.385 . S
C759 C760 1.389 . S
C760 C759 1.389 . S
C760 C761 1.387 1_545 S
C761 H746 0.930 . S
C761 C756 1.390 . S
C761 C760 1.387 1_565 S
H762 C774 0.930 . S
H763 C776 0.930 . S
H764 C777 0.930 . S
H765 C781 0.959 . S
H766 C781 0.959 . S
H767 C781 0.961 . S
H768 C782 0.960 . S
H769 C782 0.961 . S
H770 C782 0.959 . S
H771 C785 0.933 . S
H772 C786 0.931 . S
H773 C788 0.930 . S
C774 H762 0.930 . S
C774 C775 1.399 . S
C774 C779 1.399 . S
C775 C774 1.399 . S
C775 C776 1.376 . S
C776 H763 0.930 . S
C776 C775 1.376 . S
C776 C777 1.388 . S
C777 H764 0.930 . S
C777 C776 1.388 . S
C777 C778 1.390 . S
C778 C777 1.390 . S
C778 C779 1.394 . S
C778 C784 1.465 1_655 S
C779 C774 1.399 . S
C779 C778 1.394 . S
C779 C780 1.516 . S
C780 C779 1.516 . S
C780 C781 1.500 1_655 S
C780 C782 1.562 . S
C780 C783 1.526 1_655 S
C781 H765 0.959 . S
C781 H766 0.959 . S
C781 H767 0.961 . S
C781 C780 1.500 1_455 S
C782 H768 0.960 . S
C782 H769 0.961 . S
C782 H770 0.959 . S
C782 C780 1.562 . S
C783 C780 1.526 1_455 S
C783 C784 1.396 . S
C783 C788 1.390 . S
C784 C778 1.465 1_455 S
C784 C783 1.396 . S
C784 C785 1.399 . S
C785 H771 0.933 . S
C785 C784 1.399 . S
C785 C786 1.385 . S
C786 H772 0.931 . S
C786 C785 1.385 . S
C786 C787 1.389 . S
C787 C786 1.389 . S
C787 C788 1.387 . S
C788 H773 0.930 . S
C788 C783 1.390 . S
C788 C787 1.387 . S
H789 C801 0.930 . S
H790 C803 0.930 . S
H791 C804 0.930 . S
H792 C808 0.959 . S
H793 C808 0.959 . S
H794 C808 0.961 . S
H795 C809 0.960 . S
H796 C809 0.961 . S
H797 C809 0.959 . S
H798 C812 0.929 . S
H799 C813 0.931 . S
H800 C815 0.930 . S
C801 H789 0.930 . S
C801 C802 1.399 . S
C801 C806 1.399 . S
C802 C801 1.399 . S
C802 C803 1.376 . S
C803 H790 0.930 . S
C803 C802 1.376 . S
C803 C804 1.388 . S
C804 H791 0.930 . S
C804 C803 1.388 . S
C804 C805 1.390 . S
C805 C804 1.390 . S
C805 C806 1.394 . S
C805 C811 1.465 . S
C806 C801 1.399 . S
C806 C805 1.394 . S
C806 C807 1.516 . S
C807 C806 1.516 . S
C807 C808 1.502 . S
C807 C809 1.561 . S
C807 C810 1.526 . S
C808 H792 0.959 . S
C808 H793 0.959 . S
C808 H794 0.961 . S
C808 C807 1.502 . S
C809 H795 0.960 . S
C809 H796 0.961 . S
C809 H797 0.959 . S
C809 C807 1.561 . S
C810 C807 1.526 . S
C810 C811 1.396 . S
C810 C815 1.390 . S
C811 C805 1.465 . S
C811 C810 1.396 . S
C811 C812 1.399 . S
C812 H798 0.929 . S
C812 C811 1.399 . S
C812 C813 1.385 . S
C813 H799 0.931 . S
C813 C812 1.385 . S
C813 C814 1.389 . S
C814 C813 1.389 . S
C814 C815 1.387 . S
C815 H800 0.930 . S
C815 C810 1.390 . S
C815 C814 1.387 . S
C181 C8 1.095 . S
C193 C107 1.046 . S
C208 C22 1.107 . S
C220 C121 1.059 1_565 S
C235 C36 1.102 . S
C247 C93 1.102 1_455 S
C262 C163 1.077 . S
C274 C50 1.035 . S
C289 C64 1.110 . S
C301 C135 1.066 1_565 S
C316 C149 1.042 1_455 S
C328 C78 1.057 . S
C343 C23 1.064 . S
C355 C92 1.095 . S
C370 C106 1.040 . S
C382 C37 1.074 1_545 S
C397 C9 1.044 1_655 S
C409 C120 1.070 . S
C424 C134 1.108 . S
C436 C79 1.082 . S
C451 C148 1.034 . S
C463 C51 1.055 1_545 S
C478 C65 1.048 1_655 S
C490 C162 1.076 . S
C505 C76 1.481 . S
C517 C6 1.496 . S
C532 C20 1.442 . S
C544 C48 1.427 . S
C559 C34 1.428 . S
C571 C62 1.448 . S
C586 C90 1.435 . S
C598 C160 1.439 . S
C613 C104 1.476 . S
C625 C132 1.479 . S
C640 C118 1.488 . S
C652 C146 1.490 . S
C667 C7 1.583 . S
C679 C91 1.662 . S
C694 C21 1.594 . S
C706 C105 1.663 . S
C721 C35 1.609 . S
C733 C119 1.630 . S
C748 C49 1.616 . S
C760 C133 1.623 . S
C775 C147 1.658 . S
C787 C63 1.587 . S
C802 C77 1.665 . S
C814 C161 1.584 . S
