# Generated by pormake.
# Topology qtz-e, (6)-cn, num edge types: 1
# Building blocks:
#     Node 0, Type 0, BuildingBlock: KUMJIN_clean_sbu_0, # of connection points: 6
#     Node 1, Type 0, BuildingBlock: KUMJIN_clean_sbu_0, # of connection points: 6
#     Node 2, Type 0, BuildingBlock: KUMJIN_clean_sbu_0, # of connection points: 6
#     Node 3, Type 0, BuildingBlock: KUMJIN_clean_sbu_0, # of connection points: 6
#     Node 4, Type 0, BuildingBlock: KUMJIN_clean_sbu_0, # of connection points: 6
#     Node 5, Type 0, BuildingBlock: KUMJIN_clean_sbu_0, # of connection points: 6
#     Edge 6, Type (0, 0), BuildingBlock: CIFDUS_clean_linker_0, # of connection points: 2
#     Edge 7, Type (0, 0), BuildingBlock: CIFDUS_clean_linker_0, # of connection points: 2
#     Edge 8, Type (0, 0), BuildingBlock: CIFDUS_clean_linker_0, # of connection points: 2
#     Edge 9, Type (0, 0), BuildingBlock: CIFDUS_clean_linker_0, # of connection points: 2
#     Edge 10, Type (0, 0), BuildingBlock: CIFDUS_clean_linker_0, # of connection points: 2
#     Edge 11, Type (0, 0), BuildingBlock: CIFDUS_clean_linker_0, # of connection points: 2
#     Edge 12, Type (0, 0), BuildingBlock: CIFDUS_clean_linker_0, # of connection points: 2
#     Edge 13, Type (0, 0), BuildingBlock: CIFDUS_clean_linker_0, # of connection points: 2
#     Edge 14, Type (0, 0), BuildingBlock: CIFDUS_clean_linker_0, # of connection points: 2
#     Edge 15, Type (0, 0), BuildingBlock: CIFDUS_clean_linker_0, # of connection points: 2
#     Edge 16, Type (0, 0), BuildingBlock: CIFDUS_clean_linker_0, # of connection points: 2
#     Edge 17, Type (0, 0), BuildingBlock: CIFDUS_clean_linker_0, # of connection points: 2
#     Edge 18, Type (0, 0), BuildingBlock: CIFDUS_clean_linker_0, # of connection points: 2
#     Edge 19, Type (0, 0), BuildingBlock: CIFDUS_clean_linker_0, # of connection points: 2
#     Edge 20, Type (0, 0), BuildingBlock: CIFDUS_clean_linker_0, # of connection points: 2
#     Edge 21, Type (0, 0), BuildingBlock: CIFDUS_clean_linker_0, # of connection points: 2
#     Edge 22, Type (0, 0), BuildingBlock: CIFDUS_clean_linker_0, # of connection points: 2
#     Edge 23, Type (0, 0), BuildingBlock: CIFDUS_clean_linker_0, # of connection points: 2
# Relax obj value: 0.060
# Max RMSD: 0.148
# Mean RMSD: 0.148
data_MOF--net-qtz-e--node1-KUMJIN_clean_sbu_0--edge1-CIFDUS_clean_linker_0
_symmetry_space_group_name_H-M    P1
_symmetry_Int_Tables_number       1
_symmetry_cell_setting            triclinic
loop_
_symmetry_equiv_pos_as_xyz
'x, y, z'
_cell_length_a     26.338684
_cell_length_b     26.234485
_cell_length_c     42.42134
_cell_angle_alpha  90.170386
_cell_angle_beta   89.647705
_cell_angle_gamma 119.87317
loop_
_atom_site_label
_atom_site_type_symbol
_atom_site_fract_x
_atom_site_fract_y
_atom_site_fract_z
_atom_type_partial_charge
Eu0 Eu 0.26604 0.52588 0.05264 0.0
C1 C 0.09911 0.27917 0.02353 0.0
C2 C 0.13031 0.23531 0.06369 0.0
C3 C 0.02767 0.18843 0.0492 0.0
C4 C 0.14311 0.28052 0.04175 0.0
C5 C 0.04115 0.23211 0.02639 0.0
C6 C 0.07218 0.19003 0.06782 0.0
C7 C 0.01553 0.27093 0.98149 0.0
N8 N 0.11366 0.32171 1.00153 0.0
C9 C 0.07367 0.31637 0.97943 0.0
C10 C 0.99892 0.22916 1.00544 0.0
Eu11 Eu 0.21295 0.39812 1.0002 0.0
N12 N 0.19875 0.32513 0.0374 0.0
C13 C 0.24415 0.32567 0.05304 0.0
C14 C 0.17648 0.23642 0.08041 0.0
C15 C 0.23374 0.28144 0.07477 0.0
H16 H 0.08651 0.34823 0.96059 0.0
H17 H 0.26983 0.28243 0.08737 0.0
H18 H 0.0614 0.15533 0.08483 0.0
H19 H 0.98368 0.26797 0.9645 0.0
H20 H 0.28847 0.36047 0.04916 0.0
H21 H 0.13323 0.62838 0.07854 0.0
H22 H 0.16849 0.20246 0.09742 0.0
H23 H 0.41363 0.60179 0.03009 0.0
H24 H 0.16458 0.55441 0.08355 0.0
H25 H 0.48039 0.69185 1.00307 0.0
H26 H 0.98327 0.15234 0.052 0.0
H27 H 0.1898 0.71585 0.04488 0.0
H28 H 0.27857 0.77621 1.01135 0.0
H29 H 0.95394 0.1937 1.00685 0.0
H30 H 0.37316 0.79324 0.99072 0.0
N31 N 0.23759 0.59893 0.05247 0.0
C32 C 0.19002 0.59283 0.06908 0.0
C33 C 0.20388 0.68363 0.04711 0.0
C34 C 0.25491 0.69184 0.03214 0.0
C35 C 0.17199 0.63448 0.06623 0.0
C36 C 0.27135 0.6485 0.03572 0.0
H37 H 0.44933 0.76311 0.98844 0.0
N38 N 0.34059 0.61686 0.03002 0.0
C39 C 0.43638 0.68257 1.0085 0.0
C40 C 0.32452 0.65788 0.0242 0.0
C41 C 0.39707 0.63021 0.0237 0.0
C42 C 0.41876 0.72269 1.00031 0.0
C43 C 0.36274 0.71128 1.0087 0.0
O44 O 0.30634 0.50796 0.093 0.0
O45 O 0.21865 0.4263 0.05108 0.0
O46 O 0.13955 0.42213 1.00457 0.0
O47 O 0.18653 0.51646 0.02663 0.0
O48 O 0.17822 0.46589 0.07469 0.0
O49 O 0.27641 0.57033 0.09778 0.0
O50 O 0.19983 0.37242 0.9503 0.0
O51 O 0.27013 0.49548 1.00425 0.0
O52 O 0.34269 0.51099 0.04414 0.0
O53 O 0.31178 0.43466 1.00761 0.0
O54 O 0.21655 0.46354 0.96453 0.0
O55 O 0.25402 0.35112 0.97829 0.0
C56 C 0.17451 0.41627 0.06819 0.0
C57 C 0.34771 0.57904 0.13405 0.0
C58 C 0.37463 0.62619 0.18569 0.0
C59 C 0.33198 0.59253 0.16319 0.0
C60 C 0.43379 0.64577 0.17864 0.0
C61 C 0.40682 0.59905 0.12722 0.0
C62 C 0.44963 0.63204 0.1496 0.0
C63 C 0.14105 0.47195 1.01288 0.0
C64 C 0.30067 0.54409 0.11169 0.0
C65 C 0.34478 0.75263 1.00309 0.0
C66 C 0.29094 0.74294 1.01481 0.0
C67 C 0.25582 0.50983 0.97878 0.0
C68 C 0.20684 0.28933 0.93389 0.0
C69 C 0.23575 0.2812 0.90746 0.0
C70 C 0.21139 0.22575 0.89209 0.0
C71 C 0.15759 0.17975 0.90319 0.0
C72 C 0.15358 0.24197 0.94425 0.0
C73 C 0.12905 0.18789 0.92888 0.0
C74 C 0.35257 0.4759 0.02585 0.0
C75 C 0.23134 0.34688 0.95054 0.0
H76 H 0.28626 0.57805 0.16794 0.0
H77 H 0.46771 0.67179 0.1955 0.0
H78 H 0.41979 0.58952 0.10471 0.0
H79 H 0.49526 0.64743 0.14432 0.0
H80 H 0.27734 0.31717 0.89944 0.0
H81 H 0.1377 0.13692 0.89204 0.0
H82 H 0.13082 0.24671 0.96432 0.0
H83 H 0.08781 0.15178 0.93712 0.0
Eu84 Eu 0.76909 0.26833 0.38688 0.0
C85 C 0.8302 0.07238 0.35826 0.0
C86 C 0.90884 0.09815 0.3952 0.0
C87 C 0.84558 0.99591 0.38059 0.0
C88 C 0.87621 0.11436 0.37553 0.0
C89 C 0.81497 0.01275 0.36003 0.0
C90 C 0.89248 0.03858 0.39817 0.0
C91 C 0.74345 0.99172 0.31929 0.0
N92 N 0.80219 0.09031 0.33843 0.0
C93 C 0.76041 0.0514 0.31834 0.0
C94 C 0.77042 0.97215 0.34049 0.0
Eu95 Eu 0.82877 0.19078 0.33948 0.0
N96 N 0.89097 0.17143 0.3718 0.0
C97 C 0.94045 0.21495 0.38564 0.0
C98 C 0.95795 0.14243 0.41053 0.0
C99 C 0.97434 0.20113 0.40531 0.0
H100 H 0.73906 0.06637 0.30214 0.0
H101 H 0.01283 0.23582 0.41664 0.0
H102 H 0.91667 0.02523 0.41339 0.0
H103 H 0.70952 0.96088 0.30376 0.0
H104 H 0.95371 0.26056 0.38232 0.0
H105 H 0.59845 0.28232 0.32133 0.0
H106 H 0.98421 0.13186 0.42583 0.0
H107 H 0.8813 0.37451 0.42778 0.0
H108 H 0.64365 0.23279 0.34945 0.0
H109 H 0.93029 0.48208 0.43472 0.0
H110 H 0.83425 0.95026 0.38251 0.0
H111 H 0.64976 0.39089 0.31858 0.0
H112 H 0.73379 0.48763 0.33609 0.0
H113 H 0.75739 0.92594 0.34114 0.0
H114 H 0.82263 0.54185 0.3681 0.0
N115 N 0.72149 0.31213 0.36041 0.0
C116 C 0.66688 0.28012 0.34787 0.0
C117 C 0.67017 0.36933 0.33053 0.0
C118 C 0.72388 0.40206 0.34584 0.0
C119 C 0.64099 0.30807 0.33212 0.0
C120 C 0.7487 0.37182 0.36091 0.0
H121 H 0.89512 0.54 0.40564 0.0
N122 N 0.81986 0.37165 0.39447 0.0
C123 C 0.89341 0.46023 0.41894 0.0
C124 C 0.79858 0.40246 0.3791 0.0
C125 C 0.86557 0.39927 0.41493 0.0
C126 C 0.87342 0.49278 0.40248 0.0
C127 C 0.82518 0.46396 0.38245 0.0
O128 O 0.76125 0.26661 0.43803 0.0
O129 O 0.80038 0.20277 0.38743 0.0
O130 O 0.73501 0.12235 0.35537 0.0
O131 O 0.69337 0.17927 0.372 0.0
O132 O 0.83473 0.2671 0.42112 0.0
O133 O 0.68571 0.24675 0.40947 0.0
O134 O 0.83696 0.17259 0.28967 0.0
O135 O 0.78522 0.24399 0.33923 0.0
O136 O 0.84514 0.33603 0.35855 0.0
O137 O 0.89777 0.28771 0.35078 0.0
O138 O 0.75964 0.17998 0.30445 0.0
O139 O 0.90958 0.24537 0.3126 0.0
C140 C 0.83157 0.21874 0.41187 0.0
C141 C 0.70032 0.30046 0.457 0.0
C142 C 0.69503 0.33658 0.50933 0.0
C143 C 0.6938 0.29252 0.48968 0.0
C144 C 0.70572 0.38988 0.49552 0.0
C145 C 0.70581 0.35178 0.4437 0.0
C146 C 0.7099 0.39681 0.46288 0.0
C147 C 0.68924 0.1283 0.36394 0.0
C148 C 0.70821 0.25825 0.43772 0.0
C149 C 0.80235 0.4945 0.36613 0.0
C150 C 0.7519 0.46364 0.3478 0.0
C151 C 0.75202 0.22127 0.31586 0.0
C152 C 0.93162 0.20643 0.26698 0.0
C153 C 0.95424 0.23708 0.23817 0.0
C154 C 0.99401 0.22799 0.21944 0.0
C155 C 0.00999 0.18727 0.23034 0.0
C156 C 0.94889 0.1666 0.27702 0.0
C157 C 0.98775 0.15715 0.25878 0.0
C158 C 0.894 0.33652 0.35122 0.0
C159 C 0.89014 0.21636 0.28632 0.0
H160 H 0.68658 0.25133 0.49945 0.0
H161 H 0.70936 0.42582 0.50977 0.0
H162 H 0.7076 0.35746 0.41861 0.0
H163 H 0.71604 0.43708 0.4524 0.0
H164 H 0.94133 0.26839 0.23064 0.0
H165 H 0.03909 0.17776 0.21664 0.0
H166 H 0.93217 0.14273 0.29895 0.0
H167 H 1.00057 0.12599 0.26664 0.0
Eu168 Eu 0.49391 0.73923 0.71872 0.0
C169 C 0.73843 0.79993 0.67429 0.0
C170 C 0.79807 0.86255 0.7167 0.0
C171 C 0.82744 0.79995 0.68909 0.0
C172 C 0.74784 0.84026 0.69763 0.0
C173 C 0.77899 0.78056 0.66904 0.0
C174 C 0.83695 0.84088 0.71293 0.0
C175 C 0.72451 0.7302 0.62244 0.0
N176 N 0.69175 0.78303 0.65517 0.0
C177 C 0.68583 0.7511 0.62853 0.0
C178 C 0.77079 0.7442 0.64309 0.0
Eu179 Eu 0.62576 0.8168 0.66799 0.0
N180 N 0.70986 0.86071 0.70022 0.0
C181 C 0.72154 0.90654 0.71982 0.0
C182 C 0.80878 0.90749 0.7381 0.0
C183 C 0.77096 0.93041 0.73919 0.0
H184 H 0.64992 0.74014 0.61261 0.0
H185 H 0.77943 0.96596 0.7552 0.0
H186 H 0.87545 0.85691 0.7276 0.0
H187 H 0.71867 0.70344 0.60183 0.0
H188 H 0.69205 0.9239 0.7211 0.0
H189 H 0.40305 0.5041 0.74281 0.0
H190 H 0.84689 0.92587 0.7532 0.0
H191 H 0.40451 0.79845 0.71256 0.0
H192 H 0.47171 0.61048 0.74934 0.0
H193 H 0.3128 0.77511 0.68562 0.0
H194 H 0.85878 0.78505 0.68571 0.0
H195 H 0.31649 0.47005 0.70842 0.0
H196 H 0.25274 0.49569 0.67569 0.0
H197 H 0.80095 0.72833 0.63822 0.0
H198 H 0.22866 0.57101 0.65903 0.0
N199 N 0.42523 0.63627 0.71834 0.0
C200 C 0.43358 0.59606 0.73466 0.0
C201 C 0.34639 0.51672 0.71129 0.0
C202 C 0.33529 0.55822 0.69705 0.0
C203 C 0.39497 0.53578 0.73089 0.0
C204 C 0.37563 0.61839 0.70159 0.0
H205 H 0.25021 0.67579 0.66328 0.0
N206 N 0.39894 0.71673 0.70124 0.0
C207 C 0.32674 0.74269 0.68667 0.0
C208 C 0.36212 0.66041 0.69247 0.0
C209 C 0.37961 0.75635 0.70118 0.0
C210 C 0.29151 0.6866 0.67414 0.0
C211 C 0.30779 0.6438 0.67824 0.0
O212 O 0.50728 0.8057 0.75418 0.0
O213 O 0.59289 0.79473 0.7181 0.0
O214 O 0.60431 0.7198 0.67387 0.0
O215 O 0.50718 0.67105 0.69232 0.0
O216 O 0.55538 0.71575 0.74273 0.0
O217 O 0.4608 0.71412 0.76687 0.0
O218 O 0.6322 0.84168 0.61796 0.0
O219 O 0.52913 0.77373 0.67165 0.0
O220 O 0.49899 0.81998 0.69551 0.0
O221 O 0.59899 0.88043 0.69048 0.0
O222 O 0.56243 0.75896 0.63034 0.0
O223 O 0.67834 0.90864 0.65224 0.0
C224 C 0.60385 0.76252 0.73601 0.0
C225 C 0.44509 0.77831 0.79967 0.0
C226 C 0.40347 0.75996 0.85292 0.0
C227 C 0.43347 0.74903 0.82868 0.0
C228 C 0.38458 0.80074 0.84745 0.0
C229 C 0.42608 0.81893 0.79459 0.0
C230 C 0.39582 0.8299 0.81844 0.0
C231 C 0.55362 0.67089 0.68022 0.0
C232 C 0.4805 0.76766 0.77645 0.0
C233 C 0.27002 0.58451 0.67058 0.0
C234 C 0.28371 0.54163 0.68008 0.0
C235 C 0.51548 0.74835 0.64535 0.0
C236 C 0.71876 0.9266 0.60021 0.0
C237 C 0.71791 0.95946 0.57375 0.0
C238 C 0.76731 0.98826 0.55327 0.0
C239 C 0.81649 0.98231 0.55966 0.0
C240 C 0.76876 0.92199 0.60557 0.0
C241 C 0.81705 0.94951 0.58541 0.0
C242 C 0.54552 0.87313 0.69357 0.0
C243 C 0.66799 0.89732 0.62232 0.0
H244 H 0.44761 0.71708 0.83219 0.0
H245 H 0.36154 0.81043 0.8656 0.0
H246 H 0.43493 0.84239 0.77244 0.0
H247 H 0.38131 0.86137 0.8145 0.0
H248 H 0.67948 0.96336 0.56949 0.0
H249 H 0.85464 1.00248 0.5444 0.0
H250 H 0.77051 0.8971 0.62544 0.0
H251 H 0.8553 0.94541 0.58978 0.0
Eu252 Eu 0.76383 0.51564 0.05142 0.0
C253 C 0.9467 0.76313 0.02305 0.0
C254 C 0.92147 0.81125 0.06397 0.0
C255 C 0.023 0.85208 0.04768 0.0
C256 C 0.90515 0.76496 0.04221 0.0
C257 C 1.00592 0.80764 0.02488 0.0
C258 C 0.98081 0.85387 0.06722 0.0
C259 C 0.02558 0.76486 0.9792 0.0
N260 N 0.92857 0.72003 1.00111 0.0
C261 C 0.9663 0.72191 0.97828 0.0
C262 C 0.04572 0.80734 1.00296 0.0
Eu263 Eu 0.82831 0.64666 1.00209 0.0
N264 N 0.8483 0.72306 0.03845 0.0
C265 C 0.80503 0.72727 0.054 0.0
C266 C 0.87746 0.81423 0.08111 0.0
C267 C 0.81889 0.7726 0.07568 0.0
H268 H 0.9508 0.68898 0.95989 0.0
H269 H 0.78441 0.77519 0.08829 0.0
H270 H 0.99429 0.88932 0.0841 0.0
H271 H 0.05565 0.76513 0.9616 0.0
H272 H 0.75976 0.69576 0.04988 0.0
H273 H 0.76568 0.34836 0.97321 0.0
H274 H 0.88811 0.84916 0.098 0.0
H275 H 0.64463 0.49599 0.09419 0.0
H276 H 0.80692 0.43109 1.00945 0.0
H277 H 0.53757 0.44106 0.09038 0.0
H278 H 0.0684 0.88625 0.04974 0.0
H279 H 0.6599 0.29647 0.9616 0.0
H280 H 0.561 0.2839 0.97233 0.0
H281 H 0.09159 0.84076 1.00355 0.0
H282 H 0.49886 0.3108 1.0034 0.0
N283 N 0.72693 0.43057 0.01807 0.0
C284 C 0.76123 0.41061 1.00474 0.0
C285 C 0.67802 0.33349 0.97767 0.0
C286 C 0.64216 0.35109 0.99291 0.0
C287 C 0.73766 0.36268 0.98414 0.0
C288 C 0.66803 0.39995 1.01353 0.0
H289 H 0.48958 0.36883 0.04763 0.0
N290 N 0.65881 0.4593 0.05221 0.0
C291 C 0.56381 0.4339 0.07313 0.0
C292 C 0.63306 0.41543 0.03072 0.0
C293 C 0.62487 0.46525 0.07499 0.0
C294 C 0.53694 0.39334 0.04895 0.0
C295 C 0.57141 0.38198 0.02812 0.0
O296 O 0.74285 0.5043 0.10177 0.0
O297 O 0.81413 0.61539 0.05261 0.0
O298 O 0.89822 0.61812 1.00761 0.0
O299 O 0.84754 0.52404 0.03021 0.0
O300 O 0.84921 0.57072 0.07635 0.0
O301 O 0.77432 0.45142 0.07839 0.0
O302 O 0.83964 0.67083 0.95195 0.0
O303 O 0.76747 0.55057 1.00322 0.0
O304 O 0.71625 0.56737 0.05759 0.0
O305 O 0.72913 0.60905 1.00858 0.0
O306 O 0.82944 0.58261 0.96703 0.0
O307 O 0.78555 0.69189 0.98114 0.0
C308 C 0.85574 0.6217 0.07041 0.0
C309 C 0.70925 0.4083 0.121 0.0
C310 C 0.68124 0.35247 0.17018 0.0
C311 C 0.7141 0.40578 0.15368 0.0
C312 C 0.63909 0.30315 0.15311 0.0
C313 C 0.66698 0.35904 0.10467 0.0
C314 C 0.63126 0.30705 0.12086 0.0
C315 C 0.89483 0.56776 0.01673 0.0
C316 C 0.75302 0.4607 0.10424 0.0
C317 C 0.54597 0.3361 1.00611 0.0
C318 C 0.5813 0.3206 0.98856 0.0
C319 C 0.78411 0.53665 0.97826 0.0
C320 C 0.81919 0.74388 0.93241 0.0
C321 C 0.78906 0.73535 0.90366 0.0
C322 C 0.80047 0.78345 0.88398 0.0
C323 C 0.84296 0.84019 0.89373 0.0
C324 C 0.86135 0.80082 0.94139 0.0
C325 C 0.87309 0.84862 0.9221 0.0
C326 C 0.69684 0.5856 0.0341 0.0
C327 C 0.80497 0.69275 0.95275 0.0
H328 H 0.7457 0.44535 0.16563 0.0
H329 H 0.61351 0.26045 0.16389 0.0
H330 H 0.66284 0.36011 0.07937 0.0
H331 H 0.59925 0.26874 0.10811 0.0
H332 H 0.75602 0.69126 0.89695 0.0
H333 H 0.85363 0.87813 0.8792 0.0
H334 H 0.88496 0.80823 0.96331 0.0
H335 H 0.9058 0.89254 0.92915 0.0
Eu336 Eu 0.26651 0.74362 0.38354 0.0
C337 C 0.2107 0.94164 0.35599 0.0
C338 C 0.1313 0.91661 0.39283 0.0
C339 C 0.19761 0.01897 0.37954 0.0
C340 C 0.16345 0.89984 0.37283 0.0
C341 C 0.22753 1.00162 0.35847 0.0
C342 C 0.14956 0.97649 0.39672 0.0
C343 C 0.29865 0.02202 0.31712 0.0
N344 N 0.23807 0.92324 0.3357 0.0
C345 C 0.28016 0.96201 0.31551 0.0
C346 C 0.27276 0.04207 0.33902 0.0
Eu347 Eu 0.20898 0.82205 0.33596 0.0
N348 N 0.14696 0.84248 0.36828 0.0
C349 C 0.09602 0.79937 0.38134 0.0
C350 C 0.08075 0.87263 0.4075 0.0
C351 C 0.06248 0.81375 0.40126 0.0
H352 H 0.30075 0.94664 0.29881 0.0
H353 H 0.02283 0.77934 0.41202 0.0
H354 H 0.12584 0.99027 0.41227 0.0
H355 H 0.33297 0.05275 0.30158 0.0
H356 H 0.08136 0.75362 0.37721 0.0
H357 H 0.44316 0.7351 0.31965 0.0
H358 H 0.05481 0.88364 0.42303 0.0
H359 H 0.15419 0.6357 0.42362 0.0
H360 H 0.39452 0.78261 0.34668 0.0
H361 H 0.10656 0.52794 0.42992 0.0
H362 H 0.21027 0.0649 0.38207 0.0
H363 H 0.39383 0.62668 0.31637 0.0
H364 H 0.30932 0.52882 0.33222 0.0
H365 H 0.28701 0.08854 0.3402 0.0
H366 H 0.21863 0.47247 0.36301 0.0
N367 N 0.3172 0.70223 0.35737 0.0
C368 C 0.37234 0.73534 0.34527 0.0
C369 C 0.37205 0.64733 0.32809 0.0
C370 C 0.31728 0.61349 0.34248 0.0
C371 C 0.40014 0.70852 0.32999 0.0
C372 C 0.29065 0.64254 0.35728 0.0
H373 H 0.14396 0.47195 0.40035 0.0
N374 N 0.21659 0.64021 0.39003 0.0
C375 C 0.14369 0.55063 0.41418 0.0
C376 C 0.23941 0.6106 0.37458 0.0
C377 C 0.17067 0.6116 0.41053 0.0
C378 C 0.16492 0.51917 0.39741 0.0
C379 C 0.21368 0.54912 0.37757 0.0
O380 O 0.27071 0.74586 0.43485 0.0
O381 O 0.23573 0.80967 0.3839 0.0
O382 O 0.30244 0.88978 0.35186 0.0
O383 O 0.34291 0.83226 0.36862 0.0
O384 O 0.19956 0.74483 0.41742 0.0
O385 O 0.34698 0.76136 0.40789 0.0
O386 O 0.20264 0.84099 0.28626 0.0
O387 O 0.25082 0.76697 0.33558 0.0
O388 O 0.19025 0.6759 0.35578 0.0
O389 O 0.13887 0.72515 0.34706 0.0
O390 O 0.2768 0.83001 0.30029 0.0
O391 O 0.12707 0.77178 0.30976 0.0
C392 C 0.20334 0.79335 0.40805 0.0
C393 C 0.32407 0.70489 0.4551 0.0
C394 C 0.31224 0.65948 0.50699 0.0
C395 C 0.32223 0.70797 0.48808 0.0
C396 C 0.29986 0.60665 0.49173 0.0
C397 C 0.31918 0.6543 0.44105 0.0
C398 C 0.30507 0.6048 0.45911 0.0
C399 C 0.34769 0.88337 0.3605 0.0
C400 C 0.32215 0.75041 0.43571 0.0
C401 C 0.23827 0.51979 0.36137 0.0
C402 C 0.28985 0.55189 0.34378 0.0
C403 C 0.28342 0.78817 0.31161 0.0
C404 C 0.10942 0.81613 0.26543 0.0
C405 C 0.08463 0.78762 0.23654 0.0
C406 C 0.04811 0.80223 0.21881 0.0
C407 C 0.03735 0.84612 0.23081 0.0
C408 C 0.09747 0.85931 0.27667 0.0
C409 C 0.06168 0.87412 0.25941 0.0
C410 C 0.14187 0.67593 0.34828 0.0
C411 C 0.14783 0.80065 0.28349 0.0
H412 H 0.32982 0.74878 0.4986 0.0
H413 H 0.28815 0.56701 0.50487 0.0
H414 H 0.32492 0.6525 0.41608 0.0
H415 H 0.2984 0.5649 0.44779 0.0
H416 H 0.09339 0.75368 0.22817 0.0
H417 H 0.01079 0.85969 0.21786 0.0
H418 H 0.11599 0.88165 0.29872 0.0
H419 H 0.05295 0.90781 0.26818 0.0
Eu420 Eu 0.48582 0.24582 0.7273 0.0
C421 C 0.25578 0.18644 0.67592 0.0
C422 C 0.19316 0.11016 0.7129 0.0
C423 C 0.16352 0.17808 0.69314 0.0
C424 C 0.24524 0.13906 0.69485 0.0
C425 C 0.21377 0.20483 0.674 0.0
C426 C 0.15336 0.13101 0.71265 0.0
C427 C 0.27027 0.26993 0.6316 0.0
N428 N 0.30479 0.21175 0.65767 0.0
C429 C 0.31074 0.25052 0.6344 0.0
C430 C 0.22225 0.24799 0.65197 0.0
Eu431 Eu 0.37318 0.17905 0.66632 0.0
N432 N 0.28409 0.1192 0.69436 0.0
C433 C 0.27097 0.068 0.7095 0.0
C434 C 0.18165 0.06006 0.73002 0.0
C435 C 0.22024 0.03837 0.72787 0.0
H436 H 0.34803 0.26831 0.61859 0.0
H437 H 0.21097 0.99874 0.74039 0.0
H438 H 0.11358 0.10976 0.72666 0.0
H439 H 0.27635 0.30202 0.61382 0.0
H440 H 0.29958 0.04983 0.70834 0.0
H441 H 0.68496 0.40493 0.66412 0.0
H442 H 0.14228 0.03684 0.74422 0.0
H443 H 0.47305 0.14936 0.78413 0.0
H444 H 0.58504 0.36418 0.68411 0.0
H445 H 0.5295 0.10515 0.80453 0.0
H446 H 0.13132 0.19228 0.69231 0.0
H447 H 0.74295 0.35757 0.67743 0.0
H448 H 0.75149 0.28075 0.70787 0.0
H449 H 0.19092 0.2631 0.64975 0.0
H450 H 0.70971 0.19997 0.74631 0.0
N451 N 0.58377 0.29231 0.70796 0.0
C452 C 0.609 0.34269 0.69043 0.0
C453 C 0.69862 0.33918 0.68636 0.0
C454 C 0.67434 0.29017 0.70624 0.0
C455 C 0.66613 0.36614 0.67889 0.0
C456 C 0.61622 0.26767 0.71711 0.0
H457 H 0.62764 0.13504 0.78273 0.0
N458 N 0.53731 0.2022 0.74982 0.0
C459 C 0.54755 0.13755 0.78588 0.0
C460 C 0.59274 0.22202 0.7389 0.0
C461 C 0.51552 0.1626 0.77409 0.0
C462 C 0.60298 0.15462 0.77355 0.0
C463 C 0.62667 0.19798 0.75018 0.0
O464 O 0.4582 0.28995 0.76149 0.0
O465 O 0.3903 0.20801 0.71691 0.0
O466 O 0.4063 0.28016 0.66758 0.0
O467 O 0.4878 0.32229 0.701 0.0
O468 O 0.41013 0.17234 0.7542 0.0
O469 O 0.54466 0.30225 0.76459 0.0
O470 O 0.36489 0.18145 0.61475 0.0
O471 O 0.46844 0.23968 0.67606 0.0
O472 O 0.48096 0.16054 0.71265 0.0
O473 O 0.39139 0.10889 0.68698 0.0
O474 O 0.44986 0.18079 0.64077 0.0
O475 O 0.33041 0.09793 0.63875 0.0
C476 C 0.36816 0.17606 0.741 0.0
C477 C 0.49565 0.29544 0.81243 0.0
C478 C 0.52461 0.32308 0.86684 0.0
C479 C 0.53361 0.33603 0.83449 0.0
C480 C 0.47718 0.26971 0.87711 0.0
C481 C 0.44967 0.24127 0.82309 0.0
C482 C 0.44006 0.22875 0.85519 0.0
C483 C 0.45045 0.32674 0.68189 0.0
C484 C 0.50484 0.30954 0.77855 0.0
C485 C 0.68336 0.21848 0.73822 0.0
C486 C 0.70711 0.2644 0.71628 0.0
C487 C 0.49183 0.22331 0.65558 0.0
C488 C 0.28993 0.0955 0.58838 0.0
C489 C 0.29387 0.06256 0.56273 0.0
C490 C 0.24596 0.03117 0.54196 0.0
C491 C 0.19491 0.03457 0.54715 0.0
C492 C 0.23826 0.09761 0.59269 0.0
C493 C 0.19132 0.06762 0.57211 0.0
C494 C 0.43922 0.1124 0.69941 0.0
C495 C 0.3383 0.12424 0.61158 0.0
H496 H 0.57 0.37756 0.82658 0.0
H497 H 0.46992 0.25915 0.902 0.0
H498 H 0.42139 0.20837 0.80678 0.0
H499 H 0.4042 0.18695 0.86303 0.0
H500 H 0.33343 0.0601 0.55948 0.0
H501 H 0.15764 0.01192 0.53165 0.0
H502 H 0.23392 0.12189 0.6122 0.0
H503 H 0.15161 0.0696 0.57566 0.0
H504 H 0.2442 0.67363 0.29705 0.0
H505 H 0.38905 0.84933 0.28433 0.0
H506 H 0.43427 0.81347 0.24639 0.0
H507 H 0.42691 0.73428 0.21268 0.0
H508 H 0.28175 0.55824 0.22459 0.0
H509 H 0.24288 0.59169 0.26742 0.0
C510 C 0.28638 0.70353 0.28653 0.0
C511 C 0.31406 0.7637 0.29371 0.0
C512 C 0.31166 0.68268 0.26437 0.0
C513 C 0.36768 0.80265 0.2793 0.0
C514 C 0.39337 0.78223 0.2576 0.0
C515 C 0.38758 0.70293 0.22514 0.0
C516 C 0.3569 0.64408 0.21517 0.0
C517 C 0.36504 0.7226 0.24937 0.0
C518 C 0.30563 0.60409 0.23144 0.0
C519 C 0.28332 0.62315 0.2559 0.0
H520 H 0.5837 0.21143 0.63716 0.0
H521 H 0.50851 0.32393 0.62967 0.0
H522 H 0.57461 0.37756 0.58665 0.0
H523 H 0.63673 0.37757 0.54474 0.0
H524 H 0.71517 0.26722 0.55082 0.0
H525 H 0.66434 0.22724 0.60073 0.0
C526 C 0.58353 0.24901 0.62667 0.0
C527 C 0.5421 0.26438 0.63666 0.0
C528 C 0.62081 0.27878 0.60119 0.0
C529 C 0.5411 0.3124 0.62286 0.0
C530 C 0.57841 0.3426 0.59794 0.0
C531 C 0.64511 0.34664 0.5573 0.0
C532 C 0.6783 0.32412 0.54321 0.0
C533 C 0.61624 0.32418 0.58595 0.0
C534 C 0.68777 0.28361 0.56029 0.0
C535 C 0.65905 0.26094 0.589 0.0
H536 H 0.36736 0.58129 0.96072 0.0
H537 H 0.19628 0.56416 0.96197 0.0
H538 H 0.22959 0.64752 0.92607 0.0
H539 H 0.30268 0.71366 0.88771 0.0
H540 H 0.47436 0.73071 0.88606 0.0
H541 H 0.4459 0.65953 0.92881 0.0
C542 C 0.33838 0.59775 0.95418 0.0
C543 C 0.28021 0.56848 0.96483 0.0
C544 C 0.35752 0.64453 0.93271 0.0
C545 C 0.24186 0.58774 0.95495 0.0
C546 C 0.26073 0.63484 0.93408 0.0
C547 C 0.33449 0.7032 0.89725 0.0
C548 C 0.39002 0.72634 0.883 0.0
C549 C 0.31786 0.66209 0.92185 0.0
C550 C 0.43059 0.71207 0.89581 0.0
C551 C 0.41449 0.67151 0.92037 0.0
H552 H 0.80071 0.33085 0.29328 0.0
H553 H 0.64032 0.16452 0.29597 0.0
H554 H 0.59798 0.19834 0.25549 0.0
H555 H 0.61256 0.26894 0.21451 0.0
H556 H 0.78464 0.42261 0.20301 0.0
H557 H 0.81427 0.40255 0.25264 0.0
C558 C 0.75592 0.30299 0.28554 0.0
C559 C 0.72289 0.24611 0.29771 0.0
C560 C 0.73389 0.32076 0.26051 0.0
C561 C 0.66579 0.20894 0.28695 0.0
C562 C 0.64186 0.22815 0.2638 0.0
C563 C 0.657 0.29788 0.22217 0.0
C564 C 0.69602 0.34641 0.20361 0.0
C565 C 0.6766 0.28297 0.24938 0.0
C566 C 0.75224 0.38491 0.21594 0.0
C567 C 0.77014 0.37309 0.2445 0.0
H568 H 0.42934 0.77309 0.63392 0.0
H569 H 0.47623 0.63813 0.62603 0.0
H570 H 0.40109 0.58711 0.58677 0.0
H571 H 0.34749 0.59891 0.54483 0.0
H572 H 0.30119 0.73553 0.54899 0.0
H573 H 0.35135 0.76833 0.59935 0.0
C574 C 0.42064 0.73089 0.62471 0.0
C575 C 0.45715 0.70845 0.63317 0.0
C576 C 0.37977 0.70385 0.60038 0.0
C577 C 0.44717 0.65484 0.62061 0.0
C578 C 0.40498 0.62637 0.59761 0.0
C579 C 0.34546 0.63423 0.55692 0.0
C580 C 0.32303 0.6665 0.54178 0.0
C581 C 0.37444 0.65301 0.58571 0.0
C582 C 0.32119 0.71182 0.55884 0.0
C583 C 0.34946 0.73042 0.58792 0.0
H584 H 0.66876 0.49646 0.9755 0.0
H585 H 0.80877 0.48386 0.93021 0.0
H586 H 0.74041 0.41755 0.89035 0.0
H587 H 0.64043 0.36342 0.86893 0.0
H588 H 0.50012 0.3727 0.91648 0.0
H589 H 0.56905 0.44006 0.95559 0.0
C590 C 0.68398 0.47864 0.95709 0.0
C591 C 0.74287 0.49336 0.95601 0.0
C592 C 0.64461 0.44063 0.93476 0.0
C593 C 0.763 0.47166 0.93165 0.0
C594 C 0.72413 0.43413 0.90894 0.0
C595 C 0.62537 0.38077 0.88778 0.0
C596 C 0.56599 0.36425 0.88991 0.0
C597 C 0.66486 0.41841 0.91031 0.0
C598 C 0.546 0.38556 0.91454 0.0
C599 C 0.58523 0.42402 0.9367 0.0
H600 H 0.44017 0.52999 0.06899 0.0
H601 H 0.40547 0.45302 0.97615 0.0
H602 H 0.50947 0.48533 0.96918 0.0
H603 H 0.61129 0.53675 0.98935 0.0
H604 H 0.64424 0.60717 0.08359 0.0
H605 H 0.54073 0.57812 0.08978 0.0
C606 C 0.45525 0.52003 0.04727 0.0
C607 C 0.41466 0.48915 0.02311 0.0
C608 C 0.51529 0.53862 0.04348 0.0
C609 C 0.43526 0.47615 0.99528 0.0
C610 C 0.49502 0.49511 0.99118 0.0
C611 C 0.5959 0.54616 1.0111 0.0
C612 C 0.63571 0.57476 0.03587 0.0
C613 C 0.53561 0.52684 1.015 0.0
C614 C 0.61473 0.58592 0.06407 0.0
C615 C 0.55541 0.56881 0.0677 0.0
H616 H 0.13811 0.57127 0.33891 0.0
H617 H 0.0259 0.64713 0.34489 0.0
H618 H 0.93979 0.54846 0.3421 0.0
H619 H 0.89711 0.44099 0.34221 0.0
H620 H 0.0097 0.36542 0.3451 0.0
H621 H 0.09541 0.46385 0.3398 0.0
C622 C 0.09497 0.56653 0.34035 0.0
C623 C 0.08889 0.617 0.3432 0.0
C624 C 0.04586 0.5096 0.3405 0.0
C625 C 0.03225 0.60949 0.34311 0.0
C626 C 0.98296 0.55293 0.34173 0.0
C627 C 0.94027 0.44578 0.34258 0.0
C628 C 0.94658 0.39545 0.34525 0.0
C629 C 0.98934 0.5027 0.34132 0.0
C630 C 1.00318 0.40297 0.3436 0.0
C631 C 0.05227 0.45941 0.34076 0.0
H632 H 0.54041 0.11051 0.71009 0.0
H633 H 0.36108 0.99862 0.68177 0.0
H634 H 0.37925 0.91613 0.67604 0.0
H635 H 0.44641 0.87633 0.67855 0.0
H636 H 0.62419 0.98709 0.70954 0.0
H637 H 0.60663 0.07021 0.71414 0.0
C638 C 0.50479 0.06799 0.70329 0.0
C639 C 0.449 0.06101 0.69699 0.0
C640 C 0.51558 0.02074 0.70016 0.0
C641 C 0.40425 0.00556 0.68706 0.0
C642 C 0.4147 0.95832 0.68371 0.0
C643 C 0.48101 0.91815 0.68705 0.0
C644 C 0.53625 0.92481 0.69443 0.0
C645 C 0.47018 0.9654 0.69023 0.0
C646 C 0.58131 0.98047 0.70377 0.0
C647 C 0.57113 0.02795 0.70658 0.0
H648 H 0.45361 0.56858 0.66682 0.0
H649 H 0.63794 0.63824 0.68336 0.0
H650 H 0.62256 0.5379 0.68384 0.0
H651 H 0.55514 0.43056 0.68413 0.0
H652 H 0.3714 0.36157 0.66613 0.0
H653 H 0.38827 0.46176 0.66133 0.0
C654 C 0.49079 0.56214 0.67006 0.0
C655 C 0.54699 0.61134 0.67529 0.0
C656 C 0.48151 0.50434 0.67024 0.0
C657 C 0.59439 0.60161 0.67919 0.0
C658 C 0.58542 0.54408 0.6797 0.0
C659 C 0.51872 0.43701 0.67869 0.0
C660 C 0.46181 0.38773 0.67533 0.0
C661 C 0.52893 0.49506 0.67595 0.0
C662 C 0.41559 0.39798 0.66833 0.0
C663 C 0.42523 0.45551 0.66591 0.0
H664 H 0.13802 0.57312 1.00312 0.0
H665 H 0.02559 0.38625 1.01524 0.0
H666 H 0.93999 0.39964 0.01739 0.0
H667 H 0.8987 0.4651 0.01998 0.0
H668 H 0.00981 0.65151 1.00538 0.0
H669 H 0.09487 0.63779 1.00082 0.0
C670 C 0.09472 0.53512 1.00581 0.0
C671 C 0.0884 0.47859 1.00902 0.0
C672 C 0.04571 0.54327 1.00704 0.0
C673 C 0.03184 0.43001 1.01233 0.0
C674 C 0.98292 0.43783 1.0139 0.0
C675 C 0.94088 0.50284 1.01504 0.0
C676 C 0.94684 0.55936 1.01248 0.0
C677 C 0.98947 0.49436 1.01182 0.0
C678 C 1.00312 0.60745 1.00695 0.0
C679 C 0.052 0.5996 1.00446 0.0
H680 H 0.45197 0.88458 0.36087 0.0
H681 H 0.37947 1.00026 0.36019 0.0
H682 H 0.47831 0.08555 0.36098 0.0
H683 H 0.58508 0.12719 0.36265 0.0
H684 H 0.65759 0.01148 0.36271 0.0
H685 H 0.55874 0.92619 0.36134 0.0
C686 C 0.4575 0.92834 0.36089 0.0
C687 C 0.40785 0.93565 0.3604 0.0
C688 C 0.51456 0.97723 0.36128 0.0
C689 C 0.4165 0.99302 0.36024 0.0
C690 C 0.47314 0.0419 0.36086 0.0
C691 C 0.57952 0.0834 0.36245 0.0
C692 C 0.62916 0.07604 0.36286 0.0
C693 C 0.52248 0.03452 0.3615 0.0
C694 C 0.62055 0.01871 0.36224 0.0
C695 C 0.56391 0.96984 0.36156 0.0
H696 H 0.31996 0.11904 0.79612 0.0
H697 H 0.32651 0.25353 0.73542 0.0
H698 H 0.28057 0.2827 0.77667 0.0
H699 H 0.24481 0.27498 0.83233 0.0
H700 H 0.24405 0.14314 0.89303 0.0
H701 H 0.28307 0.1099 0.85035 0.0
C702 C 0.31026 0.15399 0.79167 0.0
C703 C 0.32702 0.18391 0.76256 0.0
C704 C 0.28654 0.1726 0.81615 0.0
C705 C 0.31406 0.22926 0.75739 0.0
C706 C 0.28853 0.24669 0.78127 0.0
C707 C 0.25397 0.23954 0.83625 0.0
C708 C 0.24201 0.2121 0.86615 0.0
C709 C 0.27613 0.2199 0.81119 0.0
C710 C 0.25315 0.16539 0.87048 0.0
C711 C 0.27504 0.14595 0.84594 0.0
H712 H 0.10458 0.26938 0.19426 0.0
H713 H 0.93883 0.25817 0.17422 0.0
H714 H 0.97779 0.30851 0.124 0.0
H715 H 0.06065 0.36019 0.08646 0.0
H716 H 0.22721 0.37601 0.10823 0.0
H717 H 0.18571 0.31724 0.15596 0.0
C718 C 0.07641 0.27702 0.17882 0.0
C719 C 0.01844 0.25967 0.18852 0.0
C720 C 0.0991 0.3059 0.14969 0.0
C721 C 0.9837 0.27156 0.16804 0.0
C722 C 1.00585 0.29995 0.13901 0.0
C723 C 0.08723 0.34906 0.1012 0.0
C724 C 0.14626 0.36971 0.09273 0.0
C725 C 0.0636 0.31767 0.12962 0.0
C726 C 0.18092 0.35759 0.11298 0.0
C727 C 0.15741 0.32511 0.14076 0.0
H728 H 0.85725 0.09494 0.53378 0.0
H729 H 0.68179 0.9629 0.50874 0.0
H730 H 0.68813 0.01843 0.46095 0.0
H731 H 0.74358 0.10632 0.42632 0.0
H732 H 0.91581 0.24087 0.45453 0.0
H733 H 0.91159 0.18193 0.50006 0.0
C734 C 0.82032 0.07795 0.51786 0.0
C735 C 0.76906 0.0243 0.52511 0.0
C736 C 0.82424 0.11034 0.49046 0.0
C737 C 0.72156 1.00407 0.5042 0.0
C738 C 0.72542 0.03568 0.47661 0.0
C739 C 0.78066 0.12205 0.44207 0.0
C740 C 0.83094 0.17742 0.43634 0.0
C741 C 0.77664 0.08892 0.46937 0.0
C742 C 0.87742 0.19798 0.45782 0.0
C743 C 0.8747 0.16448 0.48411 0.0
H744 H 0.66349 0.70834 0.75363 0.0
H745 H 0.64323 0.85785 0.77453 0.0
H746 H 0.70475 0.87942 0.8213 0.0
H747 H 0.75731 0.85065 0.85885 0.0
H748 H 0.77189 0.69679 0.83979 0.0
H749 H 0.71905 0.68144 0.79032 0.0
C750 C 0.67416 0.74666 0.76798 0.0
C751 C 0.65128 0.78323 0.75973 0.0
C752 C 0.70739 0.75709 0.7957 0.0
C753 C 0.66276 0.83087 0.77943 0.0
C754 C 0.69713 0.84255 0.80651 0.0
C755 C 0.74964 0.81414 0.84373 0.0
C756 C 0.76862 0.77481 0.85337 0.0
C757 C 0.71878 0.80531 0.81524 0.0
C758 C 0.75721 0.72729 0.83345 0.0
C759 C 0.72731 0.71871 0.80494 0.0
H760 H 0.93947 0.77152 0.1948 0.0
H761 H 0.09703 0.76646 0.17237 0.0
H762 H 0.05412 0.7174 0.12256 0.0
H763 H 0.96945 0.67027 0.08651 0.0
H764 H 0.81087 0.67117 0.11021 0.0
H765 H 0.8573 0.72984 0.15732 0.0
C766 C 0.96505 0.76067 0.17889 0.0
C767 C 0.02169 0.7727 0.18785 0.0
C768 C 0.94014 0.73259 0.15 0.0
C769 C 0.05312 0.75696 0.16678 0.0
C770 C 0.02876 0.72933 0.138 0.0
C771 C 0.94584 0.68506 0.10153 0.0
C772 C 0.88765 0.66889 0.09398 0.0
C773 C 0.9721 0.71636 0.12947 0.0
C774 C 0.85663 0.6859 0.11442 0.0
C775 C 0.88287 0.71831 0.1418 0.0
H776 H 0.16305 0.91923 0.52562 0.0
H777 H 0.33227 0.06037 0.49707 0.0
H778 H 0.33173 1.00259 0.45128 0.0
H779 H 0.28352 0.91014 0.41958 0.0
H780 H 0.11851 0.76671 0.45166 0.0
H781 H 0.11631 0.82721 0.49504 0.0
C782 C 0.19988 0.93752 0.50938 0.0
C783 C 0.24767 0.99442 0.51499 0.0
C784 C 0.19959 0.9036 0.48331 0.0
C785 C 0.29518 0.01671 0.49371 0.0
C786 C 0.29464 0.98373 0.46731 0.0
C787 C 0.24667 0.89254 0.43579 0.0
C788 C 0.20036 0.83413 0.43183 0.0
C789 C 0.24706 0.92699 0.4618 0.0
C790 C 0.15406 0.81162 0.45377 0.0
C791 C 0.15301 0.84616 0.47875 0.0
loop_
_geom_bond_atom_site_label_1
_geom_bond_atom_site_label_2
_geom_bond_distance
_geom_bond_site_symmetry_2
_ccdc_geom_bond_type
Eu0 N31 2.657 . S
Eu0 N38 2.609 . S
Eu0 O44 2.558 . S
Eu0 O45 2.612 . S
Eu0 O47 2.339 . S
Eu0 O48 2.563 . S
Eu0 O49 2.419 . S
Eu0 O51 2.380 1_554 S
Eu0 O52 2.432 . S
Eu0 C64 2.848 . S
C1 C4 1.429 . S
C1 C5 1.411 1_455 S
C1 N8 1.377 1_554 S
C2 C4 1.420 . S
C2 C6 1.423 . S
C2 C14 1.392 . S
C3 C5 1.420 . S
C3 C6 1.351 1_655 S
C3 H26 0.931 . S
C4 C1 1.429 . S
C4 C2 1.420 . S
C4 N12 1.362 . S
C5 C1 1.411 1_655 S
C5 C3 1.420 . S
C5 C10 1.395 1_554 S
C6 C2 1.423 . S
C6 C3 1.351 1_455 S
C6 H18 0.930 . S
C7 C9 1.400 1_655 S
C7 C10 1.386 . S
C7 H19 0.930 . S
N8 C1 1.377 1_556 S
N8 C9 1.321 . S
N8 Eu11 2.609 . S
C9 C7 1.400 1_455 S
C9 N8 1.321 . S
C9 H16 0.930 . S
C10 C5 1.395 1_556 S
C10 C7 1.386 . S
C10 H29 0.930 . S
Eu11 N8 2.609 . S
Eu11 N12 2.657 1_556 S
Eu11 O45 2.380 1_556 S
Eu11 O46 2.432 . S
Eu11 O50 2.558 . S
Eu11 O51 2.612 . S
Eu11 O53 2.339 1_556 S
Eu11 O54 2.563 . S
Eu11 O55 2.419 . S
Eu11 C75 2.848 . S
N12 C4 1.362 . S
N12 Eu11 2.657 1_554 S
N12 C13 1.334 . S
C13 N12 1.334 . S
C13 C15 1.413 . S
C13 H20 0.929 . S
C14 C2 1.392 . S
C14 C15 1.367 . S
C14 H22 0.930 . S
C15 C13 1.413 . S
C15 C14 1.367 . S
C15 H17 0.930 . S
H16 C9 0.930 . S
H17 C15 0.930 . S
H18 C6 0.930 . S
H19 C7 0.930 . S
H20 C13 0.929 . S
H21 C35 0.930 . S
H22 C14 0.930 . S
H23 C41 0.930 . S
H24 C32 0.929 . S
H25 C39 0.930 . S
H26 C3 0.931 . S
H27 C33 0.930 . S
H28 C66 0.930 . S
H29 C10 0.930 . S
H30 C65 0.931 . S
N31 Eu0 2.657 . S
N31 C32 1.334 1_554 S
N31 C36 1.362 . S
C32 H24 0.929 . S
C32 N31 1.334 1_556 S
C32 C35 1.413 . S
C33 H27 0.930 . S
C33 C34 1.392 . S
C33 C35 1.367 . S
C34 C33 1.392 . S
C34 C36 1.420 1_556 S
C34 C66 1.423 . S
C35 H21 0.930 . S
C35 C32 1.413 . S
C35 C33 1.367 . S
C36 N31 1.362 . S
C36 C34 1.420 1_554 S
C36 C40 1.429 . S
H37 C42 0.930 . S
N38 Eu0 2.609 . S
N38 C40 1.377 . S
N38 C41 1.321 . S
C39 H25 0.930 . S
C39 C41 1.400 . S
C39 C42 1.386 . S
C40 C36 1.429 . S
C40 N38 1.377 . S
C40 C43 1.411 . S
C41 H23 0.930 . S
C41 N38 1.321 . S
C41 C39 1.400 . S
C42 H37 0.930 . S
C42 C39 1.386 . S
C42 C43 1.395 . S
C43 C40 1.411 . S
C43 C42 1.395 . S
C43 C65 1.420 . S
O44 Eu0 2.558 . S
O44 C64 1.257 . S
O45 Eu0 2.612 . S
O45 Eu11 2.380 1_554 S
O45 C56 1.276 . S
O46 Eu11 2.432 . S
O46 C63 1.264 1_556 S
O47 Eu0 2.339 . S
O47 C63 1.254 . S
O48 Eu0 2.563 . S
O48 C56 1.235 . S
O49 Eu0 2.419 . S
O49 C64 1.249 . S
O50 Eu11 2.558 . S
O50 C75 1.257 . S
O51 Eu0 2.380 1_556 S
O51 Eu11 2.612 . S
O51 C67 1.276 . S
O52 Eu0 2.432 . S
O52 C74 1.264 . S
O53 Eu11 2.339 1_554 S
O53 C74 1.254 . S
O54 Eu11 2.563 . S
O54 C67 1.235 . S
O55 Eu11 2.419 . S
O55 C75 1.249 . S
C56 O45 1.276 . S
C56 O48 1.235 . S
C57 C59 1.393 . S
C57 C61 1.395 . S
C57 C64 1.492 . S
C58 C59 1.392 . S
C58 C60 1.386 . S
C59 C57 1.393 . S
C59 C58 1.392 . S
C59 H76 0.930 . S
C60 C58 1.386 . S
C60 C62 1.395 . S
C60 H77 0.930 . S
C61 C57 1.395 . S
C61 C62 1.379 . S
C61 H78 0.930 . S
C62 C60 1.395 . S
C62 C61 1.379 . S
C62 H79 0.930 . S
C63 O46 1.264 1_554 S
C63 O47 1.254 . S
C64 Eu0 2.848 . S
C64 O44 1.257 . S
C64 O49 1.249 . S
C64 C57 1.492 . S
C65 H30 0.931 . S
C65 C43 1.420 . S
C65 C66 1.351 1_554 S
C66 H28 0.930 . S
C66 C34 1.423 . S
C66 C65 1.351 1_556 S
C67 O51 1.276 . S
C67 O54 1.235 . S
C68 C69 1.393 . S
C68 C72 1.395 . S
C68 C75 1.492 . S
C69 C68 1.393 . S
C69 C70 1.392 . S
C69 H80 0.930 . S
C70 C69 1.392 . S
C70 C71 1.386 . S
C71 C70 1.386 . S
C71 C73 1.395 . S
C71 H81 0.930 . S
C72 C68 1.395 . S
C72 C73 1.379 . S
C72 H82 0.930 . S
C73 C71 1.395 . S
C73 C72 1.379 . S
C73 H83 0.930 . S
C74 O52 1.264 . S
C74 O53 1.254 . S
C75 Eu11 2.848 . S
C75 O50 1.257 . S
C75 O55 1.249 . S
C75 C68 1.492 . S
H76 C59 0.930 . S
H77 C60 0.930 . S
H78 C61 0.930 . S
H79 C62 0.930 . S
H80 C69 0.930 . S
H81 C71 0.930 . S
H82 C72 0.930 . S
H83 C73 0.930 . S
Eu84 N115 2.657 . S
Eu84 N122 2.609 . S
Eu84 O128 2.558 . S
Eu84 O129 2.612 . S
Eu84 O131 2.339 . S
Eu84 O132 2.563 . S
Eu84 O133 2.419 . S
Eu84 O135 2.380 . S
Eu84 O136 2.432 . S
Eu84 C148 2.848 . S
C85 C88 1.429 . S
C85 C89 1.411 1_545 S
C85 N92 1.377 . S
C86 C88 1.420 . S
C86 C90 1.423 . S
C86 C98 1.392 . S
C87 C89 1.420 . S
C87 C90 1.351 1_565 S
C87 H110 0.931 . S
C88 C85 1.429 . S
C88 C86 1.420 . S
C88 N96 1.362 . S
C89 C85 1.411 1_565 S
C89 C87 1.420 . S
C89 C94 1.395 . S
C90 C86 1.423 . S
C90 C87 1.351 1_545 S
C90 H102 0.930 . S
C91 C93 1.400 1_565 S
C91 C94 1.386 . S
C91 H103 0.930 . S
N92 C85 1.377 . S
N92 C93 1.321 . S
N92 Eu95 2.609 . S
C93 C91 1.400 1_545 S
C93 N92 1.321 . S
C93 H100 0.930 . S
C94 C89 1.395 . S
C94 C91 1.386 . S
C94 H113 0.930 . S
Eu95 N92 2.609 . S
Eu95 N96 2.657 . S
Eu95 O129 2.380 . S
Eu95 O130 2.432 . S
Eu95 O134 2.558 . S
Eu95 O135 2.612 . S
Eu95 O137 2.339 . S
Eu95 O138 2.563 . S
Eu95 O139 2.419 . S
Eu95 C159 2.848 . S
N96 C88 1.362 . S
N96 Eu95 2.657 . S
N96 C97 1.334 . S
C97 N96 1.334 . S
C97 C99 1.413 . S
C97 H104 0.929 . S
C98 C86 1.392 . S
C98 C99 1.367 . S
C98 H106 0.930 . S
C99 C97 1.413 . S
C99 C98 1.367 . S
C99 H101 0.929 1_655 S
H100 C93 0.930 . S
H101 C99 0.929 1_455 S
H102 C90 0.930 . S
H103 C91 0.930 . S
H104 C97 0.929 . S
H105 C119 0.930 . S
H106 C98 0.930 . S
H107 C125 0.930 . S
H108 C116 0.929 . S
H109 C123 0.930 . S
H110 C87 0.931 . S
H111 C117 0.930 . S
H112 C150 0.930 . S
H113 C94 0.930 . S
H114 C149 0.931 . S
N115 Eu84 2.657 . S
N115 C116 1.334 . S
N115 C120 1.362 . S
C116 H108 0.929 . S
C116 N115 1.334 . S
C116 C119 1.413 . S
C117 H111 0.930 . S
C117 C118 1.392 . S
C117 C119 1.367 . S
C118 C117 1.392 . S
C118 C120 1.420 . S
C118 C150 1.423 . S
C119 H105 0.930 . S
C119 C116 1.413 . S
C119 C117 1.367 . S
C120 N115 1.362 . S
C120 C118 1.420 . S
C120 C124 1.429 . S
H121 C126 0.930 . S
N122 Eu84 2.609 . S
N122 C124 1.377 . S
N122 C125 1.321 . S
C123 H109 0.930 . S
C123 C125 1.400 . S
C123 C126 1.386 . S
C124 C120 1.429 . S
C124 N122 1.377 . S
C124 C127 1.411 . S
C125 H107 0.930 . S
C125 N122 1.321 . S
C125 C123 1.400 . S
C126 H121 0.930 . S
C126 C123 1.386 . S
C126 C127 1.395 . S
C127 C124 1.411 . S
C127 C126 1.395 . S
C127 C149 1.420 . S
O128 Eu84 2.558 . S
O128 C148 1.257 . S
O129 Eu84 2.612 . S
O129 Eu95 2.380 . S
O129 C140 1.276 . S
O130 Eu95 2.432 . S
O130 C147 1.264 . S
O131 Eu84 2.339 . S
O131 C147 1.254 . S
O132 Eu84 2.563 . S
O132 C140 1.235 . S
O133 Eu84 2.419 . S
O133 C148 1.249 . S
O134 Eu95 2.558 . S
O134 C159 1.257 . S
O135 Eu84 2.380 . S
O135 Eu95 2.612 . S
O135 C151 1.276 . S
O136 Eu84 2.432 . S
O136 C158 1.264 . S
O137 Eu95 2.339 . S
O137 C158 1.254 . S
O138 Eu95 2.563 . S
O138 C151 1.235 . S
O139 Eu95 2.419 . S
O139 C159 1.249 . S
C140 O129 1.276 . S
C140 O132 1.235 . S
C141 C143 1.393 . S
C141 C145 1.395 . S
C141 C148 1.492 . S
C142 C143 1.392 . S
C142 C144 1.386 . S
C143 C141 1.393 . S
C143 C142 1.392 . S
C143 H160 0.930 . S
C144 C142 1.386 . S
C144 C146 1.395 . S
C144 H161 0.930 . S
C145 C141 1.395 . S
C145 C146 1.379 . S
C145 H162 0.930 . S
C146 C144 1.395 . S
C146 C145 1.379 . S
C146 H163 0.930 . S
C147 O130 1.264 . S
C147 O131 1.254 . S
C148 Eu84 2.848 . S
C148 O128 1.257 . S
C148 O133 1.249 . S
C148 C141 1.492 . S
C149 H114 0.931 . S
C149 C127 1.420 . S
C149 C150 1.351 . S
C150 H112 0.930 . S
C150 C118 1.423 . S
C150 C149 1.351 . S
C151 O135 1.276 . S
C151 O138 1.235 . S
C152 C153 1.393 . S
C152 C156 1.395 . S
C152 C159 1.492 . S
C153 C152 1.393 . S
C153 C154 1.392 . S
C153 H164 0.930 . S
C154 C153 1.392 . S
C154 C155 1.386 . S
C155 C154 1.386 . S
C155 C157 1.395 . S
C155 H165 0.930 . S
C156 C152 1.395 . S
C156 C157 1.379 . S
C156 H166 0.930 . S
C157 C155 1.395 . S
C157 C156 1.379 . S
C157 H167 0.930 . S
C158 O136 1.264 . S
C158 O137 1.254 . S
C159 Eu95 2.848 . S
C159 O134 1.257 . S
C159 O139 1.249 . S
C159 C152 1.492 . S
H160 C143 0.930 . S
H161 C144 0.930 . S
H162 C145 0.930 . S
H163 C146 0.930 . S
H164 C153 0.930 . S
H165 C155 0.930 . S
H166 C156 0.930 . S
H167 C157 0.930 . S
Eu168 N199 2.657 . S
Eu168 N206 2.609 . S
Eu168 O212 2.558 . S
Eu168 O213 2.612 . S
Eu168 O215 2.339 . S
Eu168 O216 2.563 . S
Eu168 O217 2.419 . S
Eu168 O219 2.380 . S
Eu168 O220 2.432 . S
Eu168 C232 2.848 . S
C169 C172 1.429 . S
C169 C173 1.411 . S
C169 N176 1.377 . S
C170 C172 1.420 . S
C170 C174 1.423 . S
C170 C182 1.392 . S
C171 C173 1.420 . S
C171 C174 1.351 . S
C171 H194 0.931 . S
C172 C169 1.429 . S
C172 C170 1.420 . S
C172 N180 1.362 . S
C173 C169 1.411 . S
C173 C171 1.420 . S
C173 C178 1.395 . S
C174 C170 1.423 . S
C174 C171 1.351 . S
C174 H186 0.930 . S
C175 C177 1.400 . S
C175 C178 1.386 . S
C175 H187 0.930 . S
N176 C169 1.377 . S
N176 C177 1.321 . S
N176 Eu179 2.609 . S
C177 C175 1.400 . S
C177 N176 1.321 . S
C177 H184 0.930 . S
C178 C173 1.395 . S
C178 C175 1.386 . S
C178 H197 0.930 . S
Eu179 N176 2.609 . S
Eu179 N180 2.657 . S
Eu179 O213 2.380 . S
Eu179 O214 2.432 . S
Eu179 O218 2.558 . S
Eu179 O219 2.612 . S
Eu179 O221 2.339 . S
Eu179 O222 2.563 . S
Eu179 O223 2.419 . S
Eu179 C243 2.848 . S
N180 C172 1.362 . S
N180 Eu179 2.657 . S
N180 C181 1.334 . S
C181 N180 1.334 . S
C181 C183 1.413 . S
C181 H188 0.929 . S
C182 C170 1.392 . S
C182 C183 1.367 . S
C182 H190 0.930 . S
C183 C181 1.413 . S
C183 C182 1.367 . S
C183 H185 0.927 1_565 S
H184 C177 0.930 . S
H185 C183 0.927 1_545 S
H186 C174 0.930 . S
H187 C175 0.930 . S
H188 C181 0.929 . S
H189 C203 0.930 . S
H190 C182 0.930 . S
H191 C209 0.930 . S
H192 C200 0.929 . S
H193 C207 0.930 . S
H194 C171 0.931 . S
H195 C201 0.930 . S
H196 C234 0.930 . S
H197 C178 0.930 . S
H198 C233 0.931 . S
N199 Eu168 2.657 . S
N199 C200 1.334 . S
N199 C204 1.362 . S
C200 H192 0.929 . S
C200 N199 1.334 . S
C200 C203 1.413 . S
C201 H195 0.930 . S
C201 C202 1.392 . S
C201 C203 1.367 . S
C202 C201 1.392 . S
C202 C204 1.420 . S
C202 C234 1.423 . S
C203 H189 0.930 . S
C203 C200 1.413 . S
C203 C201 1.367 . S
C204 N199 1.362 . S
C204 C202 1.420 . S
C204 C208 1.429 . S
H205 C210 0.930 . S
N206 Eu168 2.609 . S
N206 C208 1.377 . S
N206 C209 1.321 . S
C207 H193 0.930 . S
C207 C209 1.400 . S
C207 C210 1.386 . S
C208 C204 1.429 . S
C208 N206 1.377 . S
C208 C211 1.411 . S
C209 H191 0.930 . S
C209 N206 1.321 . S
C209 C207 1.400 . S
C210 H205 0.930 . S
C210 C207 1.386 . S
C210 C211 1.395 . S
C211 C208 1.411 . S
C211 C210 1.395 . S
C211 C233 1.420 . S
O212 Eu168 2.558 . S
O212 C232 1.257 . S
O213 Eu168 2.612 . S
O213 Eu179 2.380 . S
O213 C224 1.276 . S
O214 Eu179 2.432 . S
O214 C231 1.264 . S
O215 Eu168 2.339 . S
O215 C231 1.254 . S
O216 Eu168 2.563 . S
O216 C224 1.235 . S
O217 Eu168 2.419 . S
O217 C232 1.249 . S
O218 Eu179 2.558 . S
O218 C243 1.257 . S
O219 Eu168 2.380 . S
O219 Eu179 2.612 . S
O219 C235 1.276 . S
O220 Eu168 2.432 . S
O220 C242 1.264 . S
O221 Eu179 2.339 . S
O221 C242 1.254 . S
O222 Eu179 2.563 . S
O222 C235 1.235 . S
O223 Eu179 2.419 . S
O223 C243 1.249 . S
C224 O213 1.276 . S
C224 O216 1.235 . S
C225 C227 1.393 . S
C225 C229 1.395 . S
C225 C232 1.492 . S
C226 C227 1.392 . S
C226 C228 1.386 . S
C227 C225 1.393 . S
C227 C226 1.392 . S
C227 H244 0.930 . S
C228 C226 1.386 . S
C228 C230 1.395 . S
C228 H245 0.930 . S
C229 C225 1.395 . S
C229 C230 1.379 . S
C229 H246 0.930 . S
C230 C228 1.395 . S
C230 C229 1.379 . S
C230 H247 0.930 . S
C231 O214 1.264 . S
C231 O215 1.254 . S
C232 Eu168 2.848 . S
C232 O212 1.257 . S
C232 O217 1.249 . S
C232 C225 1.492 . S
C233 H198 0.931 . S
C233 C211 1.420 . S
C233 C234 1.351 . S
C234 H196 0.930 . S
C234 C202 1.423 . S
C234 C233 1.351 . S
C235 O219 1.276 . S
C235 O222 1.235 . S
C236 C237 1.393 . S
C236 C240 1.395 . S
C236 C243 1.492 . S
C237 C236 1.393 . S
C237 C238 1.392 . S
C237 H248 0.930 . S
C238 C237 1.392 . S
C238 C239 1.386 . S
C239 C238 1.386 . S
C239 C241 1.395 . S
C239 H249 0.930 . S
C240 C236 1.395 . S
C240 C241 1.379 . S
C240 H250 0.930 . S
C241 C239 1.395 . S
C241 C240 1.379 . S
C241 H251 0.930 . S
C242 O220 1.264 . S
C242 O221 1.254 . S
C243 Eu179 2.848 . S
C243 O218 1.257 . S
C243 O223 1.249 . S
C243 C236 1.492 . S
H244 C227 0.930 . S
H245 C228 0.930 . S
H246 C229 0.930 . S
H247 C230 0.930 . S
H248 C237 0.930 . S
H249 C239 0.930 . S
H250 C240 0.930 . S
H251 C241 0.930 . S
Eu252 N283 2.657 . S
Eu252 N290 2.609 . S
Eu252 O296 2.558 . S
Eu252 O297 2.612 . S
Eu252 O299 2.339 . S
Eu252 O300 2.563 . S
Eu252 O301 2.419 . S
Eu252 O303 2.380 1_554 S
Eu252 O304 2.432 . S
Eu252 C316 2.848 . S
C253 C256 1.429 . S
C253 C257 1.411 1_655 S
C253 N260 1.377 1_554 S
C254 C256 1.420 . S
C254 C258 1.423 . S
C254 C266 1.392 . S
C255 C257 1.420 . S
C255 C258 1.351 1_455 S
C255 H278 0.931 . S
C256 C253 1.429 . S
C256 C254 1.420 . S
C256 N264 1.362 . S
C257 C253 1.411 1_455 S
C257 C255 1.420 . S
C257 C262 1.395 1_554 S
C258 C254 1.423 . S
C258 C255 1.351 1_655 S
C258 H270 0.930 . S
C259 C261 1.400 1_455 S
C259 C262 1.386 . S
C259 H271 0.930 . S
N260 C253 1.377 1_556 S
N260 C261 1.321 . S
N260 Eu263 2.609 . S
C261 C259 1.400 1_655 S
C261 N260 1.321 . S
C261 H268 0.930 . S
C262 C257 1.395 1_556 S
C262 C259 1.386 . S
C262 H281 0.930 . S
Eu263 N260 2.609 . S
Eu263 N264 2.657 1_556 S
Eu263 O297 2.380 1_556 S
Eu263 O298 2.432 . S
Eu263 O302 2.558 . S
Eu263 O303 2.612 . S
Eu263 O305 2.339 1_556 S
Eu263 O306 2.563 . S
Eu263 O307 2.419 . S
Eu263 C327 2.848 . S
N264 C256 1.362 . S
N264 Eu263 2.657 1_554 S
N264 C265 1.334 . S
C265 N264 1.334 . S
C265 C267 1.413 . S
C265 H272 0.929 . S
C266 C254 1.392 . S
C266 C267 1.367 . S
C266 H274 0.930 . S
C267 C265 1.413 . S
C267 C266 1.367 . S
C267 H269 0.930 . S
H268 C261 0.930 . S
H269 C267 0.930 . S
H270 C258 0.930 . S
H271 C259 0.930 . S
H272 C265 0.929 . S
H273 C287 0.930 . S
H274 C266 0.930 . S
H275 C293 0.930 . S
H276 C284 0.929 . S
H277 C291 0.930 . S
H278 C255 0.931 . S
H279 C285 0.930 . S
H280 C318 0.930 . S
H281 C262 0.930 . S
H282 C317 0.931 . S
N283 Eu252 2.657 . S
N283 C284 1.334 1_554 S
N283 C288 1.362 . S
C284 H276 0.929 . S
C284 N283 1.334 1_556 S
C284 C287 1.413 . S
C285 H279 0.930 . S
C285 C286 1.392 . S
C285 C287 1.367 . S
C286 C285 1.392 . S
C286 C288 1.420 1_556 S
C286 C318 1.423 . S
C287 H273 0.930 . S
C287 C284 1.413 . S
C287 C285 1.367 . S
C288 N283 1.362 . S
C288 C286 1.420 1_554 S
C288 C292 1.429 . S
H289 C294 0.930 . S
N290 Eu252 2.609 . S
N290 C292 1.377 . S
N290 C293 1.321 . S
C291 H277 0.930 . S
C291 C293 1.400 . S
C291 C294 1.386 . S
C292 C288 1.429 . S
C292 N290 1.377 . S
C292 C295 1.411 . S
C293 H275 0.930 . S
C293 N290 1.321 . S
C293 C291 1.400 . S
C294 H289 0.930 . S
C294 C291 1.386 . S
C294 C295 1.395 . S
C295 C292 1.411 . S
C295 C294 1.395 . S
C295 C317 1.420 . S
O296 Eu252 2.558 . S
O296 C316 1.257 . S
O297 Eu252 2.612 . S
O297 Eu263 2.380 1_554 S
O297 C308 1.276 . S
O298 Eu263 2.432 . S
O298 C315 1.264 1_556 S
O299 Eu252 2.339 . S
O299 C315 1.254 . S
O300 Eu252 2.563 . S
O300 C308 1.235 . S
O301 Eu252 2.419 . S
O301 C316 1.249 . S
O302 Eu263 2.558 . S
O302 C327 1.257 . S
O303 Eu252 2.380 1_556 S
O303 Eu263 2.612 . S
O303 C319 1.276 . S
O304 Eu252 2.432 . S
O304 C326 1.264 . S
O305 Eu263 2.339 1_554 S
O305 C326 1.254 . S
O306 Eu263 2.563 . S
O306 C319 1.235 . S
O307 Eu263 2.419 . S
O307 C327 1.249 . S
C308 O297 1.276 . S
C308 O300 1.235 . S
C309 C311 1.393 . S
C309 C313 1.395 . S
C309 C316 1.492 . S
C310 C311 1.392 . S
C310 C312 1.386 . S
C311 C309 1.393 . S
C311 C310 1.392 . S
C311 H328 0.930 . S
C312 C310 1.386 . S
C312 C314 1.395 . S
C312 H329 0.930 . S
C313 C309 1.395 . S
C313 C314 1.379 . S
C313 H330 0.930 . S
C314 C312 1.395 . S
C314 C313 1.379 . S
C314 H331 0.930 . S
C315 O298 1.264 1_554 S
C315 O299 1.254 . S
C316 Eu252 2.848 . S
C316 O296 1.257 . S
C316 O301 1.249 . S
C316 C309 1.492 . S
C317 H282 0.931 . S
C317 C295 1.420 . S
C317 C318 1.351 1_554 S
C318 H280 0.930 . S
C318 C286 1.423 . S
C318 C317 1.351 1_556 S
C319 O303 1.276 . S
C319 O306 1.235 . S
C320 C321 1.393 . S
C320 C324 1.395 . S
C320 C327 1.492 . S
C321 C320 1.393 . S
C321 C322 1.392 . S
C321 H332 0.930 . S
C322 C321 1.392 . S
C322 C323 1.386 . S
C323 C322 1.386 . S
C323 C325 1.395 . S
C323 H333 0.930 . S
C324 C320 1.395 . S
C324 C325 1.379 . S
C324 H334 0.930 . S
C325 C323 1.395 . S
C325 C324 1.379 . S
C325 H335 0.930 . S
C326 O304 1.264 . S
C326 O305 1.254 . S
C327 Eu263 2.848 . S
C327 O302 1.257 . S
C327 O307 1.249 . S
C327 C320 1.492 . S
H328 C311 0.930 . S
H329 C312 0.930 . S
H330 C313 0.930 . S
H331 C314 0.930 . S
H332 C321 0.930 . S
H333 C323 0.930 . S
H334 C324 0.930 . S
H335 C325 0.930 . S
Eu336 N367 2.657 . S
Eu336 N374 2.609 . S
Eu336 O380 2.558 . S
Eu336 O381 2.612 . S
Eu336 O383 2.339 . S
Eu336 O384 2.563 . S
Eu336 O385 2.419 . S
Eu336 O387 2.380 . S
Eu336 O388 2.432 . S
Eu336 C400 2.848 . S
C337 C340 1.429 . S
C337 C341 1.411 1_565 S
C337 N344 1.377 . S
C338 C340 1.420 . S
C338 C342 1.423 . S
C338 C350 1.392 . S
C339 C341 1.420 . S
C339 C342 1.351 1_545 S
C339 H362 0.931 . S
C340 C337 1.429 . S
C340 C338 1.420 . S
C340 N348 1.362 . S
C341 C337 1.411 1_545 S
C341 C339 1.420 . S
C341 C346 1.395 . S
C342 C338 1.423 . S
C342 C339 1.351 1_565 S
C342 H354 0.930 . S
C343 C345 1.400 1_545 S
C343 C346 1.386 . S
C343 H355 0.930 . S
N344 C337 1.377 . S
N344 C345 1.321 . S
N344 Eu347 2.609 . S
C345 C343 1.400 1_565 S
C345 N344 1.321 . S
C345 H352 0.930 . S
C346 C341 1.395 . S
C346 C343 1.386 . S
C346 H365 0.930 . S
Eu347 N344 2.609 . S
Eu347 N348 2.657 . S
Eu347 O381 2.380 . S
Eu347 O382 2.432 . S
Eu347 O386 2.558 . S
Eu347 O387 2.612 . S
Eu347 O389 2.339 . S
Eu347 O390 2.563 . S
Eu347 O391 2.419 . S
Eu347 C411 2.848 . S
N348 C340 1.362 . S
N348 Eu347 2.657 . S
N348 C349 1.334 . S
C349 N348 1.334 . S
C349 C351 1.413 . S
C349 H356 0.929 . S
C350 C338 1.392 . S
C350 C351 1.367 . S
C350 H358 0.930 . S
C351 C349 1.413 . S
C351 C350 1.367 . S
C351 H353 0.929 1_455 S
H352 C345 0.930 . S
H353 C351 0.929 1_655 S
H354 C342 0.930 . S
H355 C343 0.930 . S
H356 C349 0.929 . S
H357 C371 0.930 . S
H358 C350 0.930 . S
H359 C377 0.930 . S
H360 C368 0.929 . S
H361 C375 0.930 . S
H362 C339 0.931 . S
H363 C369 0.930 . S
H364 C402 0.930 . S
H365 C346 0.930 . S
H366 C401 0.931 . S
N367 Eu336 2.657 . S
N367 C368 1.334 . S
N367 C372 1.362 . S
C368 H360 0.929 . S
C368 N367 1.334 . S
C368 C371 1.413 . S
C369 H363 0.930 . S
C369 C370 1.392 . S
C369 C371 1.367 . S
C370 C369 1.392 . S
C370 C372 1.420 . S
C370 C402 1.423 . S
C371 H357 0.930 . S
C371 C368 1.413 . S
C371 C369 1.367 . S
C372 N367 1.362 . S
C372 C370 1.420 . S
C372 C376 1.429 . S
H373 C378 0.930 . S
N374 Eu336 2.609 . S
N374 C376 1.377 . S
N374 C377 1.321 . S
C375 H361 0.930 . S
C375 C377 1.400 . S
C375 C378 1.386 . S
C376 C372 1.429 . S
C376 N374 1.377 . S
C376 C379 1.411 . S
C377 H359 0.930 . S
C377 N374 1.321 . S
C377 C375 1.400 . S
C378 H373 0.930 . S
C378 C375 1.386 . S
C378 C379 1.395 . S
C379 C376 1.411 . S
C379 C378 1.395 . S
C379 C401 1.420 . S
O380 Eu336 2.558 . S
O380 C400 1.257 . S
O381 Eu336 2.612 . S
O381 Eu347 2.380 . S
O381 C392 1.276 . S
O382 Eu347 2.432 . S
O382 C399 1.264 . S
O383 Eu336 2.339 . S
O383 C399 1.254 . S
O384 Eu336 2.563 . S
O384 C392 1.235 . S
O385 Eu336 2.419 . S
O385 C400 1.249 . S
O386 Eu347 2.558 . S
O386 C411 1.257 . S
O387 Eu336 2.380 . S
O387 Eu347 2.612 . S
O387 C403 1.276 . S
O388 Eu336 2.432 . S
O388 C410 1.264 . S
O389 Eu347 2.339 . S
O389 C410 1.254 . S
O390 Eu347 2.563 . S
O390 C403 1.235 . S
O391 Eu347 2.419 . S
O391 C411 1.249 . S
C392 O381 1.276 . S
C392 O384 1.235 . S
C393 C395 1.393 . S
C393 C397 1.395 . S
C393 C400 1.492 . S
C394 C395 1.392 . S
C394 C396 1.386 . S
C395 C393 1.393 . S
C395 C394 1.392 . S
C395 H412 0.930 . S
C396 C394 1.386 . S
C396 C398 1.395 . S
C396 H413 0.930 . S
C397 C393 1.395 . S
C397 C398 1.379 . S
C397 H414 0.930 . S
C398 C396 1.395 . S
C398 C397 1.379 . S
C398 H415 0.930 . S
C399 O382 1.264 . S
C399 O383 1.254 . S
C400 Eu336 2.848 . S
C400 O380 1.257 . S
C400 O385 1.249 . S
C400 C393 1.492 . S
C401 H366 0.931 . S
C401 C379 1.420 . S
C401 C402 1.351 . S
C402 H364 0.930 . S
C402 C370 1.423 . S
C402 C401 1.351 . S
C403 O387 1.276 . S
C403 O390 1.235 . S
C404 C405 1.393 . S
C404 C408 1.395 . S
C404 C411 1.492 . S
C405 C404 1.393 . S
C405 C406 1.392 . S
C405 H416 0.930 . S
C406 C405 1.392 . S
C406 C407 1.386 . S
C407 C406 1.386 . S
C407 C409 1.395 . S
C407 H417 0.930 . S
C408 C404 1.395 . S
C408 C409 1.379 . S
C408 H418 0.930 . S
C409 C407 1.395 . S
C409 C408 1.379 . S
C409 H419 0.930 . S
C410 O388 1.264 . S
C410 O389 1.254 . S
C411 Eu347 2.848 . S
C411 O386 1.257 . S
C411 O391 1.249 . S
C411 C404 1.492 . S
H412 C395 0.930 . S
H413 C396 0.930 . S
H414 C397 0.930 . S
H415 C398 0.930 . S
H416 C405 0.930 . S
H417 C407 0.930 . S
H418 C408 0.930 . S
H419 C409 0.930 . S
Eu420 N451 2.657 . S
Eu420 N458 2.609 . S
Eu420 O464 2.558 . S
Eu420 O465 2.612 . S
Eu420 O467 2.339 . S
Eu420 O468 2.563 . S
Eu420 O469 2.419 . S
Eu420 O471 2.380 . S
Eu420 O472 2.432 . S
Eu420 C484 2.848 . S
C421 C424 1.429 . S
C421 C425 1.411 . S
C421 N428 1.377 . S
C422 C424 1.420 . S
C422 C426 1.423 . S
C422 C434 1.392 . S
C423 C425 1.420 . S
C423 C426 1.351 . S
C423 H446 0.931 . S
C424 C421 1.429 . S
C424 C422 1.420 . S
C424 N432 1.362 . S
C425 C421 1.411 . S
C425 C423 1.420 . S
C425 C430 1.395 . S
C426 C422 1.423 . S
C426 C423 1.351 . S
C426 H438 0.930 . S
C427 C429 1.400 . S
C427 C430 1.386 . S
C427 H439 0.930 . S
N428 C421 1.377 . S
N428 C429 1.321 . S
N428 Eu431 2.609 . S
C429 C427 1.400 . S
C429 N428 1.321 . S
C429 H436 0.930 . S
C430 C425 1.395 . S
C430 C427 1.386 . S
C430 H449 0.930 . S
Eu431 N428 2.609 . S
Eu431 N432 2.657 . S
Eu431 O465 2.380 . S
Eu431 O466 2.432 . S
Eu431 O470 2.558 . S
Eu431 O471 2.612 . S
Eu431 O473 2.339 . S
Eu431 O474 2.563 . S
Eu431 O475 2.419 . S
Eu431 C495 2.848 . S
N432 C424 1.362 . S
N432 Eu431 2.657 . S
N432 C433 1.334 . S
C433 N432 1.334 . S
C433 C435 1.413 . S
C433 H440 0.929 . S
C434 C422 1.392 . S
C434 C435 1.367 . S
C434 H442 0.930 . S
C435 C433 1.413 . S
C435 C434 1.367 . S
C435 H437 0.927 1_545 S
H436 C429 0.930 . S
H437 C435 0.927 1_565 S
H438 C426 0.930 . S
H439 C427 0.930 . S
H440 C433 0.929 . S
H441 C455 0.930 . S
H442 C434 0.930 . S
H443 C461 0.930 . S
H444 C452 0.929 . S
H445 C459 0.930 . S
H446 C423 0.931 . S
H447 C453 0.930 . S
H448 C486 0.930 . S
H449 C430 0.930 . S
H450 C485 0.931 . S
N451 Eu420 2.657 . S
N451 C452 1.334 . S
N451 C456 1.362 . S
C452 H444 0.929 . S
C452 N451 1.334 . S
C452 C455 1.413 . S
C453 H447 0.930 . S
C453 C454 1.392 . S
C453 C455 1.367 . S
C454 C453 1.392 . S
C454 C456 1.420 . S
C454 C486 1.423 . S
C455 H441 0.930 . S
C455 C452 1.413 . S
C455 C453 1.367 . S
C456 N451 1.362 . S
C456 C454 1.420 . S
C456 C460 1.429 . S
H457 C462 0.930 . S
N458 Eu420 2.609 . S
N458 C460 1.377 . S
N458 C461 1.321 . S
C459 H445 0.930 . S
C459 C461 1.400 . S
C459 C462 1.386 . S
C460 C456 1.429 . S
C460 N458 1.377 . S
C460 C463 1.411 . S
C461 H443 0.930 . S
C461 N458 1.321 . S
C461 C459 1.400 . S
C462 H457 0.930 . S
C462 C459 1.386 . S
C462 C463 1.395 . S
C463 C460 1.411 . S
C463 C462 1.395 . S
C463 C485 1.420 . S
O464 Eu420 2.558 . S
O464 C484 1.257 . S
O465 Eu420 2.612 . S
O465 Eu431 2.380 . S
O465 C476 1.276 . S
O466 Eu431 2.432 . S
O466 C483 1.264 . S
O467 Eu420 2.339 . S
O467 C483 1.254 . S
O468 Eu420 2.563 . S
O468 C476 1.235 . S
O469 Eu420 2.419 . S
O469 C484 1.249 . S
O470 Eu431 2.558 . S
O470 C495 1.257 . S
O471 Eu420 2.380 . S
O471 Eu431 2.612 . S
O471 C487 1.276 . S
O472 Eu420 2.432 . S
O472 C494 1.264 . S
O473 Eu431 2.339 . S
O473 C494 1.254 . S
O474 Eu431 2.563 . S
O474 C487 1.235 . S
O475 Eu431 2.419 . S
O475 C495 1.249 . S
C476 O465 1.276 . S
C476 O468 1.235 . S
C477 C479 1.393 . S
C477 C481 1.395 . S
C477 C484 1.492 . S
C478 C479 1.392 . S
C478 C480 1.386 . S
C479 C477 1.393 . S
C479 C478 1.392 . S
C479 H496 0.930 . S
C480 C478 1.386 . S
C480 C482 1.395 . S
C480 H497 0.930 . S
C481 C477 1.395 . S
C481 C482 1.379 . S
C481 H498 0.930 . S
C482 C480 1.395 . S
C482 C481 1.379 . S
C482 H499 0.930 . S
C483 O466 1.264 . S
C483 O467 1.254 . S
C484 Eu420 2.848 . S
C484 O464 1.257 . S
C484 O469 1.249 . S
C484 C477 1.492 . S
C485 H450 0.931 . S
C485 C463 1.420 . S
C485 C486 1.351 . S
C486 H448 0.930 . S
C486 C454 1.423 . S
C486 C485 1.351 . S
C487 O471 1.276 . S
C487 O474 1.235 . S
C488 C489 1.393 . S
C488 C492 1.395 . S
C488 C495 1.492 . S
C489 C488 1.393 . S
C489 C490 1.392 . S
C489 H500 0.930 . S
C490 C489 1.392 . S
C490 C491 1.386 . S
C491 C490 1.386 . S
C491 C493 1.395 . S
C491 H501 0.930 . S
C492 C488 1.395 . S
C492 C493 1.379 . S
C492 H502 0.930 . S
C493 C491 1.395 . S
C493 C492 1.379 . S
C493 H503 0.930 . S
C494 O472 1.264 . S
C494 O473 1.254 . S
C495 Eu431 2.848 . S
C495 O470 1.257 . S
C495 O475 1.249 . S
C495 C488 1.492 . S
H496 C479 0.930 . S
H497 C480 0.930 . S
H498 C481 0.930 . S
H499 C482 0.930 . S
H500 C489 0.930 . S
H501 C491 0.930 . S
H502 C492 0.930 . S
H503 C493 0.930 . S
H504 C510 0.930 . S
H505 C513 0.930 . S
H506 C514 0.930 . S
H507 C515 0.930 . S
H508 C518 0.930 . S
H509 C519 0.930 . S
C510 H504 0.930 . S
C510 C511 1.355 . S
C510 C512 1.415 . S
C511 C510 1.355 . S
C511 C513 1.419 . S
C512 C510 1.415 . S
C512 C517 1.425 . S
C512 C519 1.409 . S
C513 H505 0.930 . S
C513 C511 1.419 . S
C513 C514 1.362 . S
C514 H506 0.930 . S
C514 C513 1.362 . S
C514 C517 1.409 . S
C515 H507 0.930 . S
C515 C516 1.355 . S
C515 C517 1.415 . S
C516 C515 1.355 . S
C516 C518 1.419 . S
C517 C512 1.425 . S
C517 C514 1.409 . S
C517 C515 1.415 . S
C518 H508 0.930 . S
C518 C516 1.419 . S
C518 C519 1.362 . S
C519 H509 0.930 . S
C519 C512 1.409 . S
C519 C518 1.362 . S
H520 C526 0.930 . S
H521 C529 0.930 . S
H522 C530 0.930 . S
H523 C531 0.930 . S
H524 C534 0.930 . S
H525 C535 0.930 . S
C526 H520 0.930 . S
C526 C527 1.355 . S
C526 C528 1.415 . S
C527 C526 1.355 . S
C527 C529 1.419 . S
C528 C526 1.415 . S
C528 C533 1.425 . S
C528 C535 1.409 . S
C529 H521 0.930 . S
C529 C527 1.419 . S
C529 C530 1.362 . S
C530 H522 0.930 . S
C530 C529 1.362 . S
C530 C533 1.409 . S
C531 H523 0.930 . S
C531 C532 1.355 . S
C531 C533 1.415 . S
C532 C531 1.355 . S
C532 C534 1.419 . S
C533 C528 1.425 . S
C533 C530 1.409 . S
C533 C531 1.415 . S
C534 H524 0.930 . S
C534 C532 1.419 . S
C534 C535 1.362 . S
C535 H525 0.930 . S
C535 C528 1.409 . S
C535 C534 1.362 . S
H536 C542 0.930 . S
H537 C545 0.930 . S
H538 C546 0.930 . S
H539 C547 0.930 . S
H540 C550 0.930 . S
H541 C551 0.930 . S
C542 H536 0.930 . S
C542 C543 1.355 . S
C542 C544 1.415 . S
C543 C542 1.355 . S
C543 C545 1.419 . S
C544 C542 1.415 . S
C544 C549 1.425 . S
C544 C551 1.409 . S
C545 H537 0.930 . S
C545 C543 1.419 . S
C545 C546 1.362 . S
C546 H538 0.930 . S
C546 C545 1.362 . S
C546 C549 1.409 . S
C547 H539 0.930 . S
C547 C548 1.355 . S
C547 C549 1.415 . S
C548 C547 1.355 . S
C548 C550 1.419 . S
C549 C544 1.425 . S
C549 C546 1.409 . S
C549 C547 1.415 . S
C550 H540 0.930 . S
C550 C548 1.419 . S
C550 C551 1.362 . S
C551 H541 0.930 . S
C551 C544 1.409 . S
C551 C550 1.362 . S
H552 C558 0.930 . S
H553 C561 0.930 . S
H554 C562 0.930 . S
H555 C563 0.930 . S
H556 C566 0.930 . S
H557 C567 0.930 . S
C558 H552 0.930 . S
C558 C559 1.355 . S
C558 C560 1.415 . S
C559 C558 1.355 . S
C559 C561 1.419 . S
C560 C558 1.415 . S
C560 C565 1.425 . S
C560 C567 1.409 . S
C561 H553 0.930 . S
C561 C559 1.419 . S
C561 C562 1.362 . S
C562 H554 0.930 . S
C562 C561 1.362 . S
C562 C565 1.409 . S
C563 H555 0.930 . S
C563 C564 1.355 . S
C563 C565 1.415 . S
C564 C563 1.355 . S
C564 C566 1.419 . S
C565 C560 1.425 . S
C565 C562 1.409 . S
C565 C563 1.415 . S
C566 H556 0.930 . S
C566 C564 1.419 . S
C566 C567 1.362 . S
C567 H557 0.930 . S
C567 C560 1.409 . S
C567 C566 1.362 . S
H568 C574 0.930 . S
H569 C577 0.930 . S
H570 C578 0.930 . S
H571 C579 0.930 . S
H572 C582 0.930 . S
H573 C583 0.930 . S
C574 H568 0.930 . S
C574 C575 1.355 . S
C574 C576 1.415 . S
C575 C574 1.355 . S
C575 C577 1.419 . S
C576 C574 1.415 . S
C576 C581 1.425 . S
C576 C583 1.409 . S
C577 H569 0.930 . S
C577 C575 1.419 . S
C577 C578 1.362 . S
C578 H570 0.930 . S
C578 C577 1.362 . S
C578 C581 1.409 . S
C579 H571 0.930 . S
C579 C580 1.355 . S
C579 C581 1.415 . S
C580 C579 1.355 . S
C580 C582 1.419 . S
C581 C576 1.425 . S
C581 C578 1.409 . S
C581 C579 1.415 . S
C582 H572 0.930 . S
C582 C580 1.419 . S
C582 C583 1.362 . S
C583 H573 0.930 . S
C583 C576 1.409 . S
C583 C582 1.362 . S
H584 C590 0.930 . S
H585 C593 0.930 . S
H586 C594 0.930 . S
H587 C595 0.930 . S
H588 C598 0.930 . S
H589 C599 0.930 . S
C590 H584 0.930 . S
C590 C591 1.355 . S
C590 C592 1.415 . S
C591 C590 1.355 . S
C591 C593 1.419 . S
C592 C590 1.415 . S
C592 C597 1.425 . S
C592 C599 1.409 . S
C593 H585 0.930 . S
C593 C591 1.419 . S
C593 C594 1.362 . S
C594 H586 0.930 . S
C594 C593 1.362 . S
C594 C597 1.409 . S
C595 H587 0.930 . S
C595 C596 1.355 . S
C595 C597 1.415 . S
C596 C595 1.355 . S
C596 C598 1.419 . S
C597 C592 1.425 . S
C597 C594 1.409 . S
C597 C595 1.415 . S
C598 H588 0.930 . S
C598 C596 1.419 . S
C598 C599 1.362 . S
C599 H589 0.930 . S
C599 C592 1.409 . S
C599 C598 1.362 . S
H600 C606 0.930 . S
H601 C609 0.930 . S
H602 C610 0.930 . S
H603 C611 0.930 . S
H604 C614 0.930 . S
H605 C615 0.930 . S
C606 H600 0.930 . S
C606 C607 1.355 . S
C606 C608 1.415 . S
C607 C606 1.355 . S
C607 C609 1.419 . S
C608 C606 1.415 . S
C608 C613 1.425 . S
C608 C615 1.409 . S
C609 H601 0.930 . S
C609 C607 1.419 . S
C609 C610 1.362 . S
C610 H602 0.930 . S
C610 C609 1.362 . S
C610 C613 1.409 . S
C611 H603 0.930 . S
C611 C612 1.355 . S
C611 C613 1.415 . S
C612 C611 1.355 . S
C612 C614 1.419 . S
C613 C608 1.425 . S
C613 C610 1.409 . S
C613 C611 1.415 . S
C614 H604 0.930 . S
C614 C612 1.419 . S
C614 C615 1.362 . S
C615 H605 0.930 . S
C615 C608 1.409 . S
C615 C614 1.362 . S
H616 C622 0.930 . S
H617 C625 0.930 . S
H618 C626 0.930 . S
H619 C627 0.930 . S
H620 C630 0.930 . S
H621 C631 0.930 . S
C622 H616 0.930 . S
C622 C623 1.355 . S
C622 C624 1.415 . S
C623 C622 1.355 . S
C623 C625 1.419 1_455 S
C624 C622 1.415 . S
C624 C629 1.425 1_455 S
C624 C631 1.409 . S
C625 H617 0.930 . S
C625 C623 1.419 1_655 S
C625 C626 1.362 . S
C626 H618 0.930 . S
C626 C625 1.362 . S
C626 C629 1.409 . S
C627 H619 0.930 . S
C627 C628 1.355 . S
C627 C629 1.415 . S
C628 C627 1.355 . S
C628 C630 1.419 1_655 S
C629 C624 1.425 1_655 S
C629 C626 1.409 . S
C629 C627 1.415 . S
C630 H620 0.930 . S
C630 C628 1.419 1_455 S
C630 C631 1.362 . S
C631 H621 0.930 . S
C631 C624 1.409 . S
C631 C630 1.362 . S
H632 C638 0.930 . S
H633 C641 0.930 . S
H634 C642 0.930 . S
H635 C643 0.930 . S
H636 C646 0.930 . S
H637 C647 0.930 . S
C638 H632 0.930 . S
C638 C639 1.355 . S
C638 C640 1.415 . S
C639 C638 1.355 . S
C639 C641 1.419 . S
C640 C638 1.415 . S
C640 C645 1.425 1_545 S
C640 C647 1.409 . S
C641 H633 0.930 . S
C641 C639 1.419 . S
C641 C642 1.362 1_545 S
C642 H634 0.930 . S
C642 C641 1.362 1_565 S
C642 C645 1.409 . S
C643 H635 0.930 . S
C643 C644 1.355 . S
C643 C645 1.415 . S
C644 C643 1.355 . S
C644 C646 1.419 . S
C645 C640 1.425 1_565 S
C645 C642 1.409 . S
C645 C643 1.415 . S
C646 H636 0.930 . S
C646 C644 1.419 . S
C646 C647 1.362 1_565 S
C647 H637 0.930 . S
C647 C640 1.409 . S
C647 C646 1.362 1_545 S
H648 C654 0.930 . S
H649 C657 0.930 . S
H650 C658 0.930 . S
H651 C659 0.930 . S
H652 C662 0.930 . S
H653 C663 0.930 . S
C654 H648 0.930 . S
C654 C655 1.355 . S
C654 C656 1.415 . S
C655 C654 1.355 . S
C655 C657 1.419 . S
C656 C654 1.415 . S
C656 C661 1.425 . S
C656 C663 1.409 . S
C657 H649 0.930 . S
C657 C655 1.419 . S
C657 C658 1.362 . S
C658 H650 0.930 . S
C658 C657 1.362 . S
C658 C661 1.409 . S
C659 H651 0.930 . S
C659 C660 1.355 . S
C659 C661 1.415 . S
C660 C659 1.355 . S
C660 C662 1.419 . S
C661 C656 1.425 . S
C661 C658 1.409 . S
C661 C659 1.415 . S
C662 H652 0.930 . S
C662 C660 1.419 . S
C662 C663 1.362 . S
C663 H653 0.930 . S
C663 C656 1.409 . S
C663 C662 1.362 . S
H664 C670 0.930 . S
H665 C673 0.939 . S
H666 C674 0.930 1_556 S
H667 C675 0.930 . S
H668 C678 0.930 . S
H669 C679 0.930 . S
C670 H664 0.930 . S
C670 C671 1.355 . S
C670 C672 1.415 . S
C671 C670 1.355 . S
C671 C673 1.419 1_455 S
C672 C670 1.415 . S
C672 C677 1.425 1_455 S
C672 C679 1.409 . S
C673 H665 0.939 . S
C673 C671 1.419 1_655 S
C673 C674 1.362 . S
C674 H666 0.930 1_554 S
C674 C673 1.362 . S
C674 C677 1.409 . S
C675 H667 0.930 . S
C675 C676 1.355 . S
C675 C677 1.415 . S
C676 C675 1.355 . S
C676 C678 1.419 1_655 S
C677 C672 1.425 1_655 S
C677 C674 1.409 . S
C677 C675 1.415 . S
C678 H668 0.930 . S
C678 C676 1.419 1_455 S
C678 C679 1.362 . S
C679 H669 0.930 . S
C679 C672 1.409 . S
C679 C678 1.362 . S
H680 C686 0.930 1_545 S
H681 C689 0.930 . S
H682 C690 0.930 . S
H683 C691 0.930 1_565 S
H684 C694 0.930 . S
H685 C695 0.930 . S
C686 H680 0.930 1_565 S
C686 C687 1.355 . S
C686 C688 1.415 1_565 S
C687 C686 1.355 . S
C687 C689 1.419 . S
C688 C686 1.415 1_545 S
C688 C693 1.425 1_545 S
C688 C695 1.409 . S
C689 H681 0.930 . S
C689 C687 1.419 . S
C689 C690 1.362 . S
C690 H682 0.930 . S
C690 C689 1.362 . S
C690 C693 1.409 . S
C691 H683 0.930 1_545 S
C691 C692 1.355 . S
C691 C693 1.415 1_545 S
C692 C691 1.355 . S
C692 C694 1.419 . S
C693 C688 1.425 1_565 S
C693 C690 1.409 . S
C693 C691 1.415 1_565 S
C694 H684 0.930 . S
C694 C692 1.419 . S
C694 C695 1.362 . S
C695 H685 0.930 . S
C695 C688 1.409 . S
C695 C694 1.362 . S
H696 C702 0.930 . S
H697 C705 0.930 . S
H698 C706 0.930 . S
H699 C707 0.930 . S
H700 C710 0.930 . S
H701 C711 0.930 . S
C702 H696 0.930 . S
C702 C703 1.355 . S
C702 C704 1.415 . S
C703 C702 1.355 . S
C703 C705 1.419 . S
C704 C702 1.415 . S
C704 C709 1.425 . S
C704 C711 1.409 . S
C705 H697 0.930 . S
C705 C703 1.419 . S
C705 C706 1.362 . S
C706 H698 0.930 . S
C706 C705 1.362 . S
C706 C709 1.409 . S
C707 H699 0.930 . S
C707 C708 1.355 . S
C707 C709 1.415 . S
C708 C707 1.355 . S
C708 C710 1.419 . S
C709 C704 1.425 . S
C709 C706 1.409 . S
C709 C707 1.415 . S
C710 H700 0.930 . S
C710 C708 1.419 . S
C710 C711 1.362 . S
C711 H701 0.930 . S
C711 C704 1.409 . S
C711 C710 1.362 . S
H712 C718 0.930 . S
H713 C721 0.930 . S
H714 C722 0.930 . S
H715 C723 0.930 . S
H716 C726 0.930 . S
H717 C727 0.930 . S
C718 H712 0.930 . S
C718 C719 1.355 . S
C718 C720 1.415 . S
C719 C718 1.355 . S
C719 C721 1.419 1_455 S
C720 C718 1.415 . S
C720 C725 1.425 . S
C720 C727 1.409 . S
C721 H713 0.930 . S
C721 C719 1.419 1_655 S
C721 C722 1.362 . S
C722 H714 0.930 . S
C722 C721 1.362 . S
C722 C725 1.409 1_655 S
C723 H715 0.930 . S
C723 C724 1.355 . S
C723 C725 1.415 . S
C724 C723 1.355 . S
C724 C726 1.419 . S
C725 C720 1.425 . S
C725 C722 1.409 1_455 S
C725 C723 1.415 . S
C726 H716 0.930 . S
C726 C724 1.419 . S
C726 C727 1.362 . S
C727 H717 0.930 . S
C727 C720 1.409 . S
C727 C726 1.362 . S
H728 C734 0.930 . S
H729 C737 0.930 . S
H730 C738 0.930 . S
H731 C739 0.930 . S
H732 C742 0.930 . S
H733 C743 0.930 . S
C734 H728 0.930 . S
C734 C735 1.355 . S
C734 C736 1.415 . S
C735 C734 1.355 . S
C735 C737 1.419 . S
C736 C734 1.415 . S
C736 C741 1.425 . S
C736 C743 1.409 . S
C737 H729 0.930 . S
C737 C735 1.419 . S
C737 C738 1.362 . S
C738 H730 0.930 . S
C738 C737 1.362 . S
C738 C741 1.409 . S
C739 H731 0.930 . S
C739 C740 1.355 . S
C739 C741 1.415 . S
C740 C739 1.355 . S
C740 C742 1.419 . S
C741 C736 1.425 . S
C741 C738 1.409 . S
C741 C739 1.415 . S
C742 H732 0.930 . S
C742 C740 1.419 . S
C742 C743 1.362 . S
C743 H733 0.930 . S
C743 C736 1.409 . S
C743 C742 1.362 . S
H744 C750 0.930 . S
H745 C753 0.930 . S
H746 C754 0.930 . S
H747 C755 0.930 . S
H748 C758 0.930 . S
H749 C759 0.930 . S
C750 H744 0.930 . S
C750 C751 1.355 . S
C750 C752 1.415 . S
C751 C750 1.355 . S
C751 C753 1.419 . S
C752 C750 1.415 . S
C752 C757 1.425 . S
C752 C759 1.409 . S
C753 H745 0.930 . S
C753 C751 1.419 . S
C753 C754 1.362 . S
C754 H746 0.930 . S
C754 C753 1.362 . S
C754 C757 1.409 . S
C755 H747 0.930 . S
C755 C756 1.355 . S
C755 C757 1.415 . S
C756 C755 1.355 . S
C756 C758 1.419 . S
C757 C752 1.425 . S
C757 C754 1.409 . S
C757 C755 1.415 . S
C758 H748 0.930 . S
C758 C756 1.419 . S
C758 C759 1.362 . S
C759 H749 0.930 . S
C759 C752 1.409 . S
C759 C758 1.362 . S
H760 C766 0.930 . S
H761 C769 0.930 . S
H762 C770 0.939 . S
H763 C771 0.930 . S
H764 C774 0.930 . S
H765 C775 0.930 . S
C766 H760 0.930 . S
C766 C767 1.355 . S
C766 C768 1.415 . S
C767 C766 1.355 . S
C767 C769 1.419 1_655 S
C768 C766 1.415 . S
C768 C773 1.425 . S
C768 C775 1.409 . S
C769 H761 0.930 . S
C769 C767 1.419 1_455 S
C769 C770 1.364 . S
C770 H762 0.939 . S
C770 C769 1.364 . S
C770 C773 1.398 1_455 S
C771 H763 0.930 . S
C771 C772 1.355 . S
C771 C773 1.415 . S
C772 C771 1.355 . S
C772 C774 1.419 . S
C773 C768 1.425 . S
C773 C770 1.398 1_655 S
C773 C771 1.415 . S
C774 H764 0.930 . S
C774 C772 1.419 . S
C774 C775 1.362 . S
C775 H765 0.930 . S
C775 C768 1.409 . S
C775 C774 1.362 . S
H776 C782 0.930 . S
H777 C785 0.930 . S
H778 C786 0.930 . S
H779 C787 0.930 . S
H780 C790 0.930 . S
H781 C791 0.930 . S
C782 H776 0.930 . S
C782 C783 1.355 . S
C782 C784 1.415 . S
C783 C782 1.355 . S
C783 C785 1.419 . S
C784 C782 1.415 . S
C784 C789 1.425 . S
C784 C791 1.409 . S
C785 H777 0.930 . S
C785 C783 1.419 . S
C785 C786 1.362 . S
C786 H778 0.930 . S
C786 C785 1.362 . S
C786 C789 1.409 . S
C787 H779 0.930 . S
C787 C788 1.355 . S
C787 C789 1.415 . S
C788 C787 1.355 . S
C788 C790 1.419 . S
C789 C784 1.425 . S
C789 C786 1.409 . S
C789 C787 1.415 . S
C790 H780 0.930 . S
C790 C788 1.419 . S
C790 C791 1.362 . S
C791 H781 0.930 . S
C791 C784 1.409 . S
C791 C790 1.362 . S
C511 C403 1.102 . S
C516 C58 1.022 . S
C527 C487 1.142 . S
C532 C142 1.100 . S
C543 C67 1.196 . S
C548 C226 1.123 . S
C559 C151 1.205 . S
C564 C310 1.119 . S
C575 C235 1.202 . S
C580 C394 1.121 . S
C591 C319 1.165 . S
C596 C478 1.117 . S
C607 C74 1.874 . S
C612 C326 1.885 . S
C623 C410 1.927 . S
C628 C158 1.897 . S
C639 C494 1.924 . S
C644 C242 1.889 . S
C655 C231 1.878 . S
C660 C483 1.891 . S
C671 C63 1.888 . S
C676 C315 1.887 . S
C687 C399 1.831 . S
C692 C147 1.828 . S
C703 C476 1.273 . S
C708 C70 1.260 . S
C719 C154 1.215 1_455 S
C724 C56 1.223 . S
C735 C238 1.281 1_545 S
C740 C140 1.287 . S
C751 C224 1.188 . S
C756 C322 1.175 . S
C767 C406 1.225 1_655 S
C772 C308 1.232 . S
C783 C490 1.283 1_565 S
C788 C392 1.290 . S
