# Generated by pormake.
# Topology noz, (5)-cn, num edge types: 1
# Building blocks:
#     Node 0, Type 0, BuildingBlock: XOMCOT_clean_sbu_0, # of connection points: 5
#     Node 1, Type 0, BuildingBlock: XOMCOT_clean_sbu_0, # of connection points: 5
#     Node 2, Type 0, BuildingBlock: XOMCOT_clean_sbu_0, # of connection points: 5
#     Node 3, Type 0, BuildingBlock: XOMCOT_clean_sbu_0, # of connection points: 5
#     Node 4, Type 0, BuildingBlock: XOMCOT_clean_sbu_0, # of connection points: 5
#     Node 5, Type 0, BuildingBlock: XOMCOT_clean_sbu_0, # of connection points: 5
#     Node 6, Type 0, BuildingBlock: XOMCOT_clean_sbu_0, # of connection points: 5
#     Node 7, Type 0, BuildingBlock: XOMCOT_clean_sbu_0, # of connection points: 5
#     Edge 8, Type (0, 0), BuildingBlock: CIFDUS_clean_linker_0, # of connection points: 2
#     Edge 9, Type (0, 0), BuildingBlock: CIFDUS_clean_linker_0, # of connection points: 2
#     Edge 10, Type (0, 0), BuildingBlock: CIFDUS_clean_linker_0, # of connection points: 2
#     Edge 11, Type (0, 0), BuildingBlock: CIFDUS_clean_linker_0, # of connection points: 2
#     Edge 12, Type (0, 0), BuildingBlock: CIFDUS_clean_linker_0, # of connection points: 2
#     Edge 13, Type (0, 0), BuildingBlock: CIFDUS_clean_linker_0, # of connection points: 2
#     Edge 14, Type (0, 0), BuildingBlock: CIFDUS_clean_linker_0, # of connection points: 2
#     Edge 15, Type (0, 0), BuildingBlock: CIFDUS_clean_linker_0, # of connection points: 2
#     Edge 16, Type (0, 0), BuildingBlock: CIFDUS_clean_linker_0, # of connection points: 2
#     Edge 17, Type (0, 0), BuildingBlock: CIFDUS_clean_linker_0, # of connection points: 2
#     Edge 18, Type (0, 0), BuildingBlock: CIFDUS_clean_linker_0, # of connection points: 2
#     Edge 19, Type (0, 0), BuildingBlock: CIFDUS_clean_linker_0, # of connection points: 2
#     Edge 20, Type (0, 0), BuildingBlock: CIFDUS_clean_linker_0, # of connection points: 2
#     Edge 21, Type (0, 0), BuildingBlock: CIFDUS_clean_linker_0, # of connection points: 2
#     Edge 22, Type (0, 0), BuildingBlock: CIFDUS_clean_linker_0, # of connection points: 2
#     Edge 23, Type (0, 0), BuildingBlock: CIFDUS_clean_linker_0, # of connection points: 2
#     Edge 24, Type (0, 0), BuildingBlock: CIFDUS_clean_linker_0, # of connection points: 2
#     Edge 25, Type (0, 0), BuildingBlock: CIFDUS_clean_linker_0, # of connection points: 2
#     Edge 26, Type (0, 0), BuildingBlock: CIFDUS_clean_linker_0, # of connection points: 2
#     Edge 27, Type (0, 0), BuildingBlock: CIFDUS_clean_linker_0, # of connection points: 2
# Relax obj value: 0.104
# Max RMSD: 0.191
# Mean RMSD: 0.190
data_MOF--net-noz--node1-XOMCOT_clean_sbu_0--edge1-CIFDUS_clean_linker_0
_symmetry_space_group_name_H-M    P1
_symmetry_Int_Tables_number       1
_symmetry_cell_setting            triclinic
loop_
_symmetry_equiv_pos_as_xyz
'x, y, z'
_cell_length_a     21.426212
_cell_length_b     45.418506
_cell_length_c     31.858126
_cell_angle_alpha  88.900655
_cell_angle_beta   90.208398
_cell_angle_gamma 89.343924
loop_
_atom_site_label
_atom_site_type_symbol
_atom_site_fract_x
_atom_site_fract_y
_atom_site_fract_z
_atom_type_partial_charge
Co0 Co 0.18293 0.32263 0.40403 0.0
C1 C 0.28446 0.29186 0.45457 0.0
C2 C 0.19614 0.29204 0.48586 0.0
C3 C 0.23766 0.276 0.50998 0.0
N4 N 0.22493 0.30221 0.45094 0.0
N5 N 0.29309 0.27555 0.49026 0.0
H6 H 0.32007 0.295 0.431 0.0
H7 H 0.1474 0.29478 0.49314 0.0
C8 C 0.04685 0.3159 0.42506 0.0
O9 O 0.03764 0.34364 0.41392 0.0
N10 N 0.1397 0.34181 0.35661 0.0
C11 C 0.14973 0.36835 0.33826 0.0
C12 C 0.10475 0.37357 0.30796 0.0
C13 C 0.09108 0.33062 0.33512 0.0
N14 N 0.06717 0.35 0.30649 0.0
C15 C 0.20725 0.38169 0.42898 0.0
C16 C 0.12755 0.38467 0.49655 0.0
C17 C 0.1597 0.40997 0.48392 0.0
C18 C 0.20064 0.4081 0.45011 0.0
C19 C 0.1345 0.3587 0.47379 0.0
N20 N 0.17192 0.35767 0.439 0.0
H21 H 0.24129 0.38089 0.40428 0.0
H22 H 0.10918 0.33977 0.48458 0.0
H23 H 0.18655 0.38326 0.34591 0.0
H24 H 0.07114 0.30932 0.34211 0.0
O25 O 0.26169 0.33308 0.3797 0.0
O26 O 0.21142 0.29231 0.36525 0.0
O27 O 0.1015 0.30435 0.42307 0.0
C28 C 0.25916 0.30927 0.35808 0.0
H29 H 0.22731 0.265 0.53954 0.0
H30 H 0.09945 0.39352 0.28909 0.0
H31 H 0.09669 0.38507 0.52339 0.0
H32 H 0.22833 0.42686 0.44048 0.0
Co33 Co 0.61461 0.69476 0.91312 0.0
C34 C 0.72643 0.68872 0.85733 0.0
C35 C 0.64431 0.66929 0.83147 0.0
C36 C 0.69189 0.66674 0.80286 0.0
N37 N 0.66545 0.68351 0.8654 0.0
N38 N 0.74327 0.67891 0.81924 0.0
H39 H 0.7579 0.69982 0.87819 0.0
H40 H 0.59746 0.66121 0.82772 0.0
C41 C 0.48209 0.70401 0.87732 0.0
O42 O 0.45734 0.70558 0.91477 0.0
N43 N 0.56471 0.70647 0.96093 0.0
C44 C 0.55005 0.69074 0.99572 0.0
C45 C 0.51019 0.70738 0.0198 0.0
C46 C 0.53713 0.73302 0.9658 0.0
N47 N 0.50112 0.73389 1.00058 0.0
C48 C 0.65039 0.63629 0.93344 0.0
C49 C 0.53304 0.61242 0.94161 0.0
C50 C 0.58543 0.5953 0.9535 0.0
C51 C 0.64474 0.60738 0.94807 0.0
C52 C 0.54084 0.6414 0.92695 0.0
N53 N 0.59898 0.6533 0.9245 0.0
H54 H 0.69653 0.64546 0.93074 0.0
H55 H 0.4999 0.65442 0.91993 0.0
H56 H 0.56553 0.66845 1.00272 0.0
H57 H 0.5402 0.75056 0.94251 0.0
O58 O 0.68711 0.69824 0.94818 0.0
O59 O 0.6466 0.73456 0.90893 0.0
O60 O 0.54067 0.69889 0.87264 0.0
C61 C 0.68896 0.72565 0.93599 0.0
H62 H 0.68926 0.65648 0.77252 0.0
H63 H 0.48717 0.69975 0.04807 0.0
H64 H 0.48633 0.6038 0.94469 0.0
H65 H 0.68659 0.5952 0.95703 0.0
Co66 Co 0.19775 0.66653 0.62737 0.0
C67 C 0.29474 0.70103 0.58131 0.0
C68 C 0.25544 0.66777 0.54276 0.0
C69 C 0.29903 0.68288 0.51956 0.0
N70 N 0.25336 0.67868 0.58193 0.0
N71 N 0.32354 0.70378 0.54379 0.0
H72 H 0.30349 0.71527 0.60743 0.0
H73 H 0.22617 0.65059 0.53089 0.0
C74 C 0.07108 0.69451 0.60088 0.0
O75 O 0.03877 0.67903 0.6281 0.0
N76 N 0.14348 0.65433 0.67297 0.0
C77 C 0.13824 0.62662 0.68846 0.0
C78 C 0.09788 0.62679 0.72193 0.0
C79 C 0.10826 0.67116 0.69847 0.0
N80 N 0.07862 0.65471 0.72785 0.0
C81 C 0.22506 0.60913 0.59719 0.0
C82 C 0.11037 0.59741 0.56176 0.0
C83 C 0.15691 0.5755 0.56192 0.0
C84 C 0.21483 0.58165 0.57982 0.0
C85 C 0.12206 0.62451 0.58037 0.0
N86 N 0.17895 0.63019 0.5979 0.0
H87 H 0.27064 0.61344 0.60998 0.0
H88 H 0.08488 0.64046 0.5807 0.0
H89 H 0.16165 0.60747 0.67611 0.0
H90 H 0.10242 0.69477 0.69459 0.0
O91 O 0.26786 0.65185 0.65978 0.0
O92 O 0.23009 0.69733 0.66304 0.0
O93 O 0.12998 0.69033 0.59684 0.0
C94 C 0.27123 0.67776 0.6759 0.0
H95 H 0.31004 0.67956 0.48684 0.0
H96 H 0.08146 0.60769 0.7393 0.0
H97 H 0.06497 0.5934 0.54809 0.0
H98 H 0.25236 0.56545 0.57983 0.0
Co99 Co 0.587 0.3432 0.13223 0.0
C100 C 0.48629 0.31022 0.08711 0.0
C101 C 0.53474 0.33984 0.04601 0.0
C102 C 0.4881 0.32715 0.02364 0.0
N103 N 0.53424 0.32951 0.08613 0.0
N104 N 0.45712 0.30872 0.04939 0.0
H105 H 0.47153 0.29823 0.11491 0.0
H106 H 0.56442 0.35679 0.03346 0.0
C107 C 0.69013 0.32464 0.0716 0.0
O108 O 0.67007 0.34308 0.04234 0.0
N109 N 0.63938 0.35724 0.17731 0.0
C110 C 0.62641 0.38095 0.20064 0.0
C111 C 0.67794 0.38739 0.22438 0.0
C112 C 0.69891 0.34952 0.18727 0.0
N113 N 0.72375 0.36783 0.21572 0.0
C114 C 0.54764 0.39672 0.09281 0.0
C115 C 0.664 0.4193 0.07513 0.0
C116 C 0.61054 0.43528 0.06212 0.0
C117 C 0.55185 0.4237 0.07171 0.0
C118 C 0.65758 0.39209 0.09604 0.0
N119 N 0.59983 0.38052 0.10274 0.0
H120 H 0.50191 0.38815 0.09979 0.0
H121 H 0.69897 0.38026 0.10655 0.0
H122 H 0.5835 0.39368 0.19894 0.0
H123 H 0.72492 0.33215 0.17224 0.0
O124 O 0.51405 0.35486 0.16344 0.0
O125 O 0.55973 0.31094 0.16888 0.0
O126 O 0.66256 0.32281 0.1071 0.0
C127 C 0.51647 0.32906 0.18164 0.0
H128 H 0.47742 0.33147 0.99085 0.0
H129 H 0.68197 0.40571 0.24541 0.0
H130 H 0.71029 0.42783 0.06961 0.0
H131 H 0.50918 0.43503 0.06229 0.0
Co132 Co 0.69096 0.82701 0.39029 0.0
C133 C 0.79023 0.80293 0.44981 0.0
C134 C 0.77901 0.77694 0.39487 0.0
C135 C 0.82516 0.7643 0.4191 0.0
N136 N 0.75754 0.80163 0.4133 0.0
N137 N 0.8323 0.78051 0.45356 0.0
H138 H 0.78351 0.81956 0.47325 0.0
H139 H 0.76169 0.76783 0.36611 0.0
C140 C 0.57267 0.80769 0.43404 0.0
O141 O 0.54975 0.83458 0.43059 0.0
N142 N 0.62414 0.85126 0.36606 0.0
C143 C 0.61253 0.88031 0.37041 0.0
C144 C 0.55826 0.88763 0.34909 0.0
C145 C 0.57765 0.84156 0.34123 0.0
N146 N 0.53647 0.86324 0.33083 0.0
C147 C 0.74451 0.87713 0.42868 0.0
C148 C 0.66662 0.88094 0.4971 0.0
C149 C 0.70295 0.90535 0.48586 0.0
C150 C 0.74485 0.90242 0.45268 0.0
C151 C 0.66785 0.85578 0.47205 0.0
N152 N 0.7024 0.85519 0.43598 0.0
H153 H 0.77626 0.87637 0.40266 0.0
H154 H 0.64032 0.83733 0.48186 0.0
H155 H 0.64047 0.89527 0.3882 0.0
H156 H 0.57257 0.8188 0.3325 0.0
O157 O 0.74841 0.84451 0.35096 0.0
O158 O 0.69329 0.80488 0.33804 0.0
O159 O 0.62837 0.80187 0.42194 0.0
C160 C 0.73446 0.82389 0.32533 0.0
H161 H 0.85003 0.74398 0.41275 0.0
H162 H 0.53642 0.90922 0.3472 0.0
H163 H 0.63557 0.88173 0.52381 0.0
H164 H 0.77625 0.92009 0.44422 0.0
Co165 Co 0.11087 0.19561 0.90922 0.0
C166 C 0.22907 0.1933 0.85794 0.0
C167 C 0.15582 0.16602 0.8348 0.0
C168 C 0.20567 0.16382 0.80817 0.0
N169 N 0.1698 0.18471 0.86579 0.0
N170 N 0.25143 0.18087 0.82276 0.0
H171 H 0.2551 0.20847 0.87679 0.0
H172 H 0.1122 0.15451 0.83192 0.0
C173 C 0.98655 0.20254 0.8602 0.0
O174 O 0.95277 0.20659 0.89385 0.0
N175 N 0.0519 0.20634 0.9527 0.0
C176 C 0.03775 0.19057 0.98756 0.0
C177 C 0.99385 0.20589 1.01008 0.0
C178 C 1.01918 0.23179 0.95585 0.0
N179 N 0.9815 0.23174 0.9899 0.0
C180 C 0.14752 0.1379 0.93236 0.0
C181 C 0.0314 0.11213 0.93167 0.0
C182 C 0.08317 0.09564 0.94644 0.0
C183 C 0.14193 0.10881 0.94581 0.0
C184 C 0.03911 0.14143 0.91842 0.0
N185 N 0.09653 0.15409 0.91995 0.0
H186 H 0.19307 0.14784 0.93306 0.0
H187 H 0.99856 0.15415 0.90904 0.0
H188 H 0.0573 0.16922 0.99601 0.0
H189 H 0.02131 0.24944 0.93264 0.0
O190 O 0.17661 0.20045 0.94956 0.0
O191 O 0.1401 0.23596 0.90721 0.0
O192 O 0.04544 0.19776 0.86282 0.0
C193 C 0.1783 0.22785 0.93743 0.0
H194 H 0.20853 0.15053 0.78037 0.0
H195 H 0.97119 0.19793 0.03831 0.0
H196 H 0.98519 0.10273 0.93127 0.0
H197 H 0.18315 0.09725 0.95743 0.0
Co198 Co 0.68871 0.16821 0.61975 0.0
C199 C 0.78886 0.19552 0.56663 0.0
C200 C 0.70303 0.19028 0.53296 0.0
C201 C 0.74399 0.20493 0.50732 0.0
N202 N 0.73071 0.1843 0.57036 0.0
N203 N 0.79776 0.20843 0.52851 0.0
H204 H 0.82299 0.19565 0.59171 0.0
H205 H 0.65525 0.18565 0.52492 0.0
C206 C 0.55213 0.17136 0.59704 0.0
O207 O 0.5447 0.14535 0.615 0.0
N208 N 0.64582 0.15335 0.66939 0.0
C209 C 0.65659 0.12875 0.69286 0.0
C210 C 0.6164 0.12861 0.72657 0.0
C211 C 0.60093 0.16822 0.69011 0.0
N212 N 0.58113 0.15337 0.72454 0.0
C213 C 0.72425 0.10789 0.60676 0.0
C214 C 0.64485 0.09653 0.54087 0.0
C215 C 0.68305 0.07359 0.55671 0.0
C216 C 0.7235 0.07971 0.58991 0.0
C217 C 0.6467 0.12439 0.5589 0.0
N218 N 0.68445 0.1297 0.59262 0.0
H219 H 0.75735 0.11197 0.63145 0.0
H220 H 0.61781 0.14144 0.545 0.0
H221 H 0.69136 0.11208 0.68681 0.0
H222 H 0.58293 0.18957 0.67997 0.0
O223 O 0.76736 0.16267 0.64882 0.0
O224 O 0.70864 0.20302 0.65139 0.0
O225 O 0.60629 0.18282 0.59532 0.0
C226 C 0.75796 0.18852 0.66455 0.0
H227 H 0.73435 0.21307 0.47577 0.0
H228 H 0.61247 0.11128 0.75018 0.0
H229 H 0.61351 0.093 0.51474 0.0
H230 H 0.75552 0.06303 0.60222 0.0
Co231 Co 0.09229 0.84407 0.1243 0.0
C232 C 1.00667 0.80658 0.07392 0.0
C233 C 0.05728 0.83631 0.0343 0.0
C234 C 1.01539 0.82174 1.00995 0.0
N235 N 0.052 0.82717 0.07484 0.0
N236 N 0.98321 0.80325 0.03488 0.0
H237 H 0.98862 0.79522 0.1013 0.0
H238 H 0.08597 0.85398 0.02274 0.0
C239 C 0.20813 0.82846 0.07432 0.0
O240 O 0.19049 0.84643 0.0438 0.0
N241 N 0.13198 0.86083 0.1729 0.0
C242 C 0.11363 0.88567 0.19181 0.0
C243 C 0.15669 0.89228 0.22218 0.0
C244 C 0.18588 0.85251 0.19214 0.0
N245 N 0.20237 0.87149 0.22249 0.0
C246 C 0.05294 0.89469 0.07807 0.0
C247 C 0.16681 0.92235 0.07231 0.0
C248 C 0.11401 0.93579 0.05354 0.0
C249 C 0.05654 0.92164 0.05697 0.0
C250 C 0.16109 0.8951 0.09317 0.0
N251 N 0.1051 0.88102 0.09405 0.0
H252 H 1.00802 0.88423 0.08057 0.0
H253 H 0.20156 0.88525 0.10846 0.0
H254 H 0.07302 0.89875 0.18294 0.0
H255 H 0.21281 0.83328 0.18362 0.0
O256 O 1.01171 0.85392 0.14696 0.0
O257 O 0.06234 0.81191 0.15984 0.0
O258 O 0.17525 0.82581 0.10757 0.0
C259 C 1.01325 0.8285 0.16625 0.0
H260 H 1.00775 0.82524 0.97661 0.0
H261 H 0.15543 0.91172 0.24127 0.0
H262 H 0.21178 0.93298 0.07144 0.0
H263 H 1.01453 0.93106 0.04299 0.0
H264 H 0.3694 0.33622 0.35034 0.0
H265 H 0.256 0.27061 0.29204 0.0
H266 H 0.32951 0.26847 0.23297 0.0
H267 H 0.42152 0.28947 0.19467 0.0
H268 H 0.52824 0.35718 0.25378 0.0
H269 H 0.46215 0.35431 0.31568 0.0
C270 C 0.36088 0.32115 0.32498 0.0
C271 C 0.307 0.30377 0.32546 0.0
C272 C 0.40219 0.32063 0.29102 0.0
C273 C 0.2972 0.2842 0.29249 0.0
C274 C 0.33904 0.28315 0.25858 0.0
C275 C 0.4306 0.30311 0.22153 0.0
C276 C 0.47967 0.32349 0.21992 0.0
C277 C 0.39103 0.30183 0.25698 0.0
C278 C 0.49076 0.34139 0.25446 0.0
C279 C 0.45293 0.33978 0.28983 0.0
H280 H 0.49863 0.67885 0.80118 0.0
H281 H 0.36992 0.73242 0.87114 0.0
H282 H 0.29528 0.73184 0.81297 0.0
H283 H 0.26314 0.71289 0.74405 0.0
H284 H 0.38874 0.65573 0.67745 0.0
H285 H 0.46807 0.66113 0.73194 0.0
C286 C 0.45466 0.69071 0.80347 0.0
C287 C 0.43987 0.70558 0.84044 0.0
C288 C 0.41115 0.68953 0.77042 0.0
C289 C 0.38227 0.7206 0.84307 0.0
C290 C 0.33954 0.72032 0.80981 0.0
C291 C 0.3083 0.70206 0.74131 0.0
C292 C 0.32033 0.68402 0.70692 0.0
C293 C 0.35295 0.7044 0.7736 0.0
C294 C 0.37852 0.66967 0.70385 0.0
C295 C 0.42385 0.67272 0.73498 0.0
H296 H 0.97627 0.6839 0.70166 0.0
H297 H 0.06275 0.6427 0.81008 0.0
H298 H 0.96665 0.64978 0.85063 0.0
H299 H 0.8543 0.66321 0.85253 0.0
H300 H 0.76553 0.69885 0.74104 0.0
H301 H 0.86564 0.69868 0.7041 0.0
C302 C 0.97428 0.67718 0.73444 0.0
C303 C 0.02636 0.66319 0.75322 0.0
C304 C 0.91807 0.68 0.75665 0.0
C305 C 0.02309 0.65376 0.79535 0.0
C306 C 0.96816 0.65765 0.81832 0.0
C307 C 0.85751 0.67133 0.82039 0.0
C308 C 0.80315 0.68109 0.79935 0.0
C309 C 0.91481 0.67006 0.79897 0.0
C310 C 0.80706 0.69116 0.75754 0.0
C311 C 0.86415 0.69107 0.73653 0.0
H312 H 0.80416 0.32201 0.22846 0.0
H313 H 0.78808 0.4166 0.23444 0.0
H314 H 0.89437 0.41938 0.261 0.0
H315 H 0.9902 0.39518 0.28544 0.0
H316 H 1.00854 0.30068 0.28093 0.0
H317 H 0.90346 0.2976 0.25085 0.0
C318 C 0.82423 0.34319 0.23529 0.0
C319 C 0.78774 0.36901 0.22994 0.0
C320 C 0.88581 0.34467 0.25089 0.0
C321 C 0.8144 0.39632 0.23911 0.0
C322 C 0.87547 0.39797 0.25405 0.0
C323 C 0.97192 0.37391 0.27716 0.0
C324 C 1.00757 0.34822 0.2853 0.0
C325 C 0.91137 0.37232 0.26045 0.0
C326 C 0.98208 0.32081 0.27524 0.0
C327 C 0.92198 0.31905 0.25799 0.0
H328 H 0.82743 0.78556 0.30711 0.0
H329 H 0.72158 0.85955 0.25738 0.0
H330 H 0.79698 0.86575 0.20044 0.0
H331 H 0.89941 0.85432 0.17097 0.0
H332 H 1.00931 0.78205 0.22252 0.0
H333 H 0.92591 0.77075 0.2726 0.0
C334 C 0.81985 0.80228 0.28284 0.0
C335 C 0.76858 0.82173 0.28564 0.0
C336 C 0.86486 0.8064 0.25126 0.0
C337 C 0.76013 0.84401 0.25506 0.0
C338 C 0.80359 0.84775 0.22291 0.0
C339 C 0.90497 0.8359 0.19288 0.0
C340 C 0.96087 0.81932 0.19351 0.0
C341 C 0.85725 0.82978 0.22167 0.0
C342 C 0.96691 0.79527 0.22164 0.0
C343 C 0.91925 0.78883 0.25028 0.0
H344 H 0.87716 0.17218 0.68233 0.0
H345 H 0.72624 0.22731 0.72539 0.0
H346 H 0.78462 0.23744 0.78963 0.0
H347 H 0.87511 0.22711 0.83613 0.0
H348 H 0.02749 0.17358 0.7911 0.0
H349 H 0.97222 0.1664 0.72518 0.0
C350 C 0.85752 0.18679 0.70551 0.0
C351 C 0.79742 0.19886 0.6993 0.0
C352 C 0.89134 0.19251 0.74226 0.0
C353 C 0.77262 0.21791 0.72937 0.0
C354 C 0.80576 0.22349 0.76626 0.0
C355 C 0.89632 0.21402 0.81176 0.0
C356 C 0.955 0.20052 0.81887 0.0
C357 C 0.86456 0.21034 0.77349 0.0
C358 C 0.98235 0.18409 0.78668 0.0
C359 C 0.95068 0.17993 0.7489 0.0
H360 H 0.36217 0.16358 0.85432 0.0
H361 H 0.2725 0.20422 0.7467 0.0
H362 H 0.37029 0.20188 0.70715 0.0
H363 H 0.47739 0.18324 0.70099 0.0
H364 H 0.56638 0.13956 0.80697 0.0
H365 H 0.4731 0.14783 0.84952 0.0
C366 C 0.36505 0.1726 0.82263 0.0
C367 C 0.31113 0.18442 0.80334 0.0
C368 C 0.42085 0.17009 0.79971 0.0
C369 C 0.3141 0.19538 0.76196 0.0
C370 C 0.3697 0.19383 0.7394 0.0
C371 C 0.47695 0.17611 0.73365 0.0
C372 C 0.52873 0.16075 0.75076 0.0
C373 C 0.42289 0.18051 0.75759 0.0
C374 C 0.52683 0.15112 0.79294 0.0
C375 C 0.47361 0.15595 0.81731 0.0
H376 H 0.31126 0.84163 0.20865 0.0
H377 H 0.22125 0.9007 0.29495 0.0
H378 H 0.31714 0.9038 0.33525 0.0
H379 H 0.42744 0.89059 0.34599 0.0
H380 H 0.51689 0.82955 0.26306 0.0
H381 H 0.42026 0.82594 0.22203 0.0
C382 C 0.31208 0.85491 0.2365 0.0
C383 C 0.25859 0.87128 0.24799 0.0
C384 C 0.36757 0.85628 0.26029 0.0
C385 C 0.26151 0.8884 0.28436 0.0
C386 C 0.31648 0.89009 0.30778 0.0
C387 C 0.42575 0.87664 0.31879 0.0
C388 C 0.47929 0.86061 0.30726 0.0
C389 C 0.36994 0.87441 0.29582 0.0
C390 C 0.47617 0.84206 0.27253 0.0
C391 C 0.42101 0.84008 0.24904 0.0
H392 H 0.17269 0.5215 0.59851 0.0
H393 H 0.11792 0.56478 0.48236 0.0
H394 H 0.11086 0.51703 0.44824 0.0
H395 H 0.12732 0.46319 0.45043 0.0
H396 H 0.17785 0.41965 0.56721 0.0
H397 H 0.17904 0.46718 0.60242 0.0
C398 C 0.15871 0.52034 0.56583 0.0
C399 C 0.14632 0.5465 0.54277 0.0
C400 C 0.15419 0.49283 0.54664 0.0
C401 C 0.12752 0.54487 0.50064 0.0
C402 C 0.12378 0.51762 0.48114 0.0
C403 C 0.13793 0.46419 0.48369 0.0
C404 C 0.1529 0.43813 0.50626 0.0
C405 C 0.13802 0.49151 0.50365 0.0
C406 C 0.16599 0.43949 0.54937 0.0
C407 C 0.16701 0.46664 0.56937 0.0
H408 H 0.65696 0.54583 0.943 0.0
H409 H 0.49977 0.5793 1.01264 0.0
H410 H 0.49447 0.53308 0.05257 0.0
H411 H 0.53725 0.48425 0.07008 0.0
H412 H 0.69396 0.45026 1.00047 0.0
H413 H 0.69844 0.49623 0.95954 0.0
C414 C 0.62157 0.54304 0.96694 0.0
C415 C 0.57878 0.56606 0.9747 0.0
C416 C 0.61947 0.51657 0.99039 0.0
C417 C 0.53265 0.56185 1.00545 0.0
C418 C 0.53003 0.53553 0.02868 0.0
C419 C 0.57201 0.48667 0.04564 0.0
C420 C 0.61514 0.46371 0.0384 0.0
C421 C 0.57356 0.51288 0.0217 0.0
C422 C 0.66072 0.46766 1.0072 0.0
C423 C 0.66292 0.49384 0.98346 0.0
H424 H 0.68529 0.01969 0.59669 0.0
H425 H 0.68121 0.0608 0.47342 0.0
H426 H 0.68498 0.01253 0.44121 0.0
H427 H 0.69237 0.95883 0.44771 0.0
H428 H 0.69652 0.9169 0.57026 0.0
H429 H 0.68945 0.96525 0.60315 0.0
C430 C 0.68539 0.01805 0.56278 0.0
C431 C 0.68304 0.04391 0.53753 0.0
C432 C 0.68763 0.99009 0.54436 0.0
C433 C 0.68229 0.04135 0.49363 0.0
C434 C 0.68483 0.01373 0.47516 0.0
C435 C 0.69208 0.96026 0.48167 0.0
C436 C 0.69581 0.93432 0.50653 0.0
C437 C 0.68797 0.98801 0.50018 0.0
C438 C 0.69373 0.93652 0.55044 0.0
C439 C 0.68996 0.96416 0.5692 0.0
H440 H 0.03168 0.98163 0.0559 0.0
H441 H 0.20477 0.95405 0.99907 0.0
H442 H 0.20821 1.00031 0.95864 0.0
H443 H 0.16172 0.04834 0.93939 0.0
H444 H 0.98965 0.07607 0.99762 0.0
H445 H 0.9844 0.02913 0.03581 0.0
C446 C 0.0699 0.98558 0.03436 0.0
C447 C 0.11786 0.96439 0.03046 0.0
C448 C 0.07114 0.01197 1.0109 0.0
C449 C 0.16769 0.97015 1.00307 0.0
C450 C 0.16935 0.99645 0.97964 0.0
C451 C 0.1231 0.04417 0.96051 0.0
C452 C 0.07625 0.0658 0.96565 0.0
C453 C 0.12129 0.01749 0.98332 0.0
C454 C 0.0259 0.05973 0.99251 0.0
C455 C 0.02325 0.03303 0.01481 0.0
H456 H 0.29446 0.22465 0.53465 0.0
H457 H 0.41471 0.28876 0.47624 0.0
H458 H 0.50664 0.26179 0.50355 0.0
H459 H 0.55213 0.22085 0.54652 0.0
H460 H 0.42945 0.15751 0.60505 0.0
H461 H 0.33903 0.18368 0.57569 0.0
C462 C 0.3407 0.23295 0.52814 0.0
C463 C 0.34763 0.25895 0.5039 0.0
C464 C 0.39286 0.21752 0.54416 0.0
C465 C 0.40809 0.2688 0.49472 0.0
C466 C 0.46057 0.25347 0.51056 0.0
C467 C 0.50561 0.21275 0.55282 0.0
C468 C 0.49772 0.18721 0.57809 0.0
C469 C 0.45346 0.22794 0.53571 0.0
C470 C 0.43707 0.17699 0.58567 0.0
C471 C 0.38522 0.19197 0.56893 0.0
H472 H 0.43895 0.74042 0.07424 0.0
H473 H 0.45423 0.77709 0.94842 0.0
H474 H 0.36838 0.81049 0.9617 0.0
H475 H 0.2838 0.82722 1.00641 0.0
H476 H 0.26309 0.78973 0.13105 0.0
H477 H 0.35548 0.7586 0.12042 0.0
C478 C 0.4237 0.75563 0.04961 0.0
C479 C 0.45379 0.75577 1.01024 0.0
C480 C 0.37258 0.77458 0.05701 0.0
C481 C 0.43339 0.77628 0.97922 0.0
C482 C 0.38348 0.79541 0.9866 0.0
C483 C 0.29949 0.81239 0.03147 0.0
C484 C 0.2661 0.8107 0.06935 0.0
C485 C 0.35208 0.7944 0.02503 0.0
C486 C 0.28758 0.79138 0.10143 0.0
C487 C 0.34046 0.77356 0.09537 0.0
H488 H 0.42301 0.69565 0.49424 0.0
H489 H 0.32264 0.76131 0.56364 0.0
H490 H 0.39209 0.79957 0.53632 0.0
H491 H 0.47826 0.81456 0.48988 0.0
H492 H 0.58187 0.74844 0.42303 0.0
H493 H 0.51444 0.71008 0.4521 0.0
C494 C 0.41669 0.71835 0.50341 0.0
C495 C 0.36763 0.72576 0.53061 0.0
C496 C 0.45716 0.74008 0.48789 0.0
C497 C 0.36031 0.75512 0.54292 0.0
C498 C 0.39975 0.77698 0.5271 0.0
C499 C 0.48617 0.79174 0.48179 0.0
C500 C 0.53457 0.78437 0.454 0.0
C501 C 0.44783 0.76977 0.49914 0.0
C502 C 0.54492 0.75466 0.44434 0.0
C503 C 0.50627 0.73274 0.46085 0.0
H504 H 0.25445 0.21623 1.00392 0.0
H505 H 0.20331 0.28476 0.91407 0.0
H506 H 0.28273 0.3168 0.94348 0.0
H507 H 0.3697 0.32421 0.99213 0.0
H508 H 0.42305 0.2554 0.0807 0.0
H509 H 0.33824 0.22468 0.05504 0.0
C510 C 0.26044 0.23823 0.99082 0.0
C511 C 0.22342 0.24805 0.95655 0.0
C512 C 0.30628 0.25641 1.00776 0.0
C513 C 0.23136 0.27668 0.94028 0.0
C514 C 0.27676 0.29496 0.95708 0.0
C515 C 0.36299 0.30244 1.00575 0.0
C516 C 0.40332 0.29187 0.03783 0.0
C517 C 0.31503 0.28487 0.99036 0.0
C518 C 0.39268 0.26401 0.05605 0.0
C519 C 0.34453 0.24641 0.04115 0.0
H520 H 0.95854 0.72198 0.6115 0.0
H521 H 0.10887 0.71201 0.52285 0.0
H522 H 0.05028 0.74113 0.47062 0.0
H523 H 0.95231 0.76526 0.44787 0.0
H524 H 0.80249 0.77651 0.5358 0.0
H525 H 0.86516 0.75169 0.59107 0.0
C526 C 0.97858 0.72638 0.58083 0.0
C527 C 0.03759 0.71444 0.57085 0.0
C528 C 0.94482 0.74348 0.55099 0.0
C529 C 0.06348 0.72078 0.53128 0.0
C530 C 0.02997 0.73742 0.50136 0.0
C531 C 0.93419 0.76281 0.47947 0.0
C532 C 0.87309 0.77251 0.48796 0.0
C533 C 0.97017 0.74832 0.51058 0.0
C534 C 0.84969 0.76942 0.52885 0.0
C535 C 0.88524 0.75493 0.56017 0.0
H536 H 0.7566 0.32128 0.99916 0.0
H537 H 0.75127 0.28693 0.12642 0.0
H538 H 0.84361 0.25658 0.11306 0.0
H539 H 0.92424 0.23892 0.06484 0.0
H540 H 0.92601 0.27173 0.93667 0.0
H541 H 0.83786 0.30403 0.95131 0.0
C542 C 0.77559 0.30722 0.02409 0.0
C543 C 0.74668 0.30639 0.06372 0.0
C544 C 0.82849 0.28965 0.01614 0.0
C545 C 0.77224 0.28801 0.09556 0.0
C546 C 0.82519 0.27064 0.08796 0.0
C547 C 0.90539 0.25298 0.03995 0.0
C548 C 0.93227 0.2526 0.9996 0.0
C549 C 0.85342 0.27112 0.04827 0.0
C550 C 0.90741 0.2716 0.96817 0.0
C551 C 0.85634 0.28998 0.97639 0.0
H552 H 0.05136 0.26617 0.47473 0.0
H553 H 0.92333 0.32657 0.41186 0.0
H554 H 0.83502 0.2986 0.43868 0.0
H555 H 0.79398 0.2573 0.48001 0.0
H556 H 0.92 0.19759 0.54535 0.0
H557 H 1.00952 0.22527 0.51823 0.0
C558 C 1.00413 0.27316 0.46685 0.0
C559 C 0.99395 0.2984 0.44122 0.0
C560 C 0.95333 0.25723 0.48305 0.0
C561 C 0.93247 0.30731 0.43161 0.0
C562 C 0.88191 0.29131 0.44691 0.0
C563 C 0.84106 0.25021 0.48806 0.0
C564 C 0.8505 0.22524 0.51422 0.0
C565 C 0.8918 0.26629 0.47262 0.0
C566 C 0.91169 0.21677 0.52532 0.0
C567 C 0.96274 0.2325 0.50965 0.0
H568 H 0.77079 0.71351 0.99881 0.0
H569 H 0.71934 0.78078 0.90718 0.0
H570 H 0.80629 0.81107 0.93039 0.0
H571 H 0.89797 0.81771 0.97563 0.0
H572 H 0.94878 0.75057 0.06739 0.0
H573 H 0.86018 0.72087 0.04547 0.0
C574 C 0.77846 0.73484 0.98394 0.0
C575 C 0.73897 0.74487 0.95115 0.0
C576 C 0.82827 0.75204 0.99746 0.0
C577 C 0.74913 0.77262 0.93247 0.0
C578 C 0.79888 0.78987 0.94565 0.0
C579 C 0.88995 0.79646 0.99057 0.0
C580 C 0.93025 0.78613 0.02275 0.0
C581 C 0.83901 0.77966 0.97785 0.0
C582 C 0.9183 0.75895 0.04264 0.0
C583 C 0.86788 0.74197 0.03 0.0
loop_
_geom_bond_atom_site_label_1
_geom_bond_atom_site_label_2
_geom_bond_distance
_geom_bond_site_symmetry_2
_ccdc_geom_bond_type
Co0 N4 2.148 . S
Co0 N10 2.128 . S
Co0 N20 2.194 . S
Co0 O25 2.351 . S
Co0 O26 2.155 . S
Co0 O27 2.096 . S
C1 N4 1.301 . S
C1 N5 1.328 . S
C1 H6 0.930 . S
C2 C3 1.333 . S
C2 N4 1.317 . S
C2 H7 0.930 . S
C3 C2 1.333 . S
C3 N5 1.350 . S
C3 H29 0.931 . S
N4 Co0 2.148 . S
N4 C1 1.301 . S
N4 C2 1.317 . S
N5 C1 1.328 . S
N5 C3 1.350 . S
H6 C1 0.930 . S
H7 C2 0.930 . S
C8 O9 1.224 . S
C8 O27 1.247 . S
O9 C8 1.224 . S
N10 Co0 2.128 . S
N10 C11 1.355 . S
N10 C13 1.311 . S
C11 N10 1.355 . S
C11 C12 1.363 . S
C11 H23 0.929 . S
C12 C11 1.363 . S
C12 N14 1.375 . S
C12 H30 0.931 . S
C13 N10 1.311 . S
C13 N14 1.347 . S
C13 H24 0.929 . S
N14 C12 1.375 . S
N14 C13 1.347 . S
C15 C18 1.365 . S
C15 N20 1.328 . S
C15 H21 0.929 . S
C16 C17 1.362 . S
C16 C19 1.378 . S
C16 H31 0.929 . S
C17 C16 1.362 . S
C17 C18 1.366 . S
C18 C15 1.365 . S
C18 C17 1.366 . S
C18 H32 0.930 . S
C19 C16 1.378 . S
C19 N20 1.315 . S
C19 H22 0.930 . S
N20 Co0 2.194 . S
N20 C15 1.328 . S
N20 C19 1.315 . S
H21 C15 0.929 . S
H22 C19 0.930 . S
H23 C11 0.929 . S
H24 C13 0.929 . S
O25 Co0 2.351 . S
O25 C28 1.244 . S
O26 Co0 2.155 . S
O26 C28 1.240 . S
O27 Co0 2.096 . S
O27 C8 1.247 . S
C28 O25 1.244 . S
C28 O26 1.240 . S
H29 C3 0.931 . S
H30 C12 0.931 . S
H31 C16 0.929 . S
H32 C18 0.930 . S
Co33 N37 2.148 . S
Co33 N43 2.128 . S
Co33 N53 2.194 . S
Co33 O58 2.351 . S
Co33 O59 2.155 . S
Co33 O60 2.096 . S
C34 N37 1.301 . S
C34 N38 1.328 . S
C34 H39 0.930 . S
C35 C36 1.333 . S
C35 N37 1.317 . S
C35 H40 0.930 . S
C36 C35 1.333 . S
C36 N38 1.350 . S
C36 H62 0.931 . S
N37 Co33 2.148 . S
N37 C34 1.301 . S
N37 C35 1.317 . S
N38 C34 1.328 . S
N38 C36 1.350 . S
H39 C34 0.930 . S
H40 C35 0.930 . S
C41 O42 1.224 . S
C41 O60 1.247 . S
O42 C41 1.224 . S
N43 Co33 2.128 . S
N43 C44 1.355 . S
N43 C46 1.311 . S
C44 N43 1.355 . S
C44 C45 1.363 . S
C44 H56 0.929 . S
C45 C44 1.363 . S
C45 N47 1.375 . S
C45 H63 0.931 1_556 S
C46 N43 1.311 . S
C46 N47 1.347 . S
C46 H57 0.929 . S
N47 C45 1.375 . S
N47 C46 1.347 . S
C48 C51 1.365 . S
C48 N53 1.328 . S
C48 H54 0.929 . S
C49 C50 1.362 . S
C49 C52 1.378 . S
C49 H64 0.929 . S
C50 C49 1.362 . S
C50 C51 1.366 . S
C51 C48 1.365 . S
C51 C50 1.366 . S
C51 H65 0.930 . S
C52 C49 1.378 . S
C52 N53 1.315 . S
C52 H55 0.930 . S
N53 Co33 2.194 . S
N53 C48 1.328 . S
N53 C52 1.315 . S
H54 C48 0.929 . S
H55 C52 0.930 . S
H56 C44 0.929 . S
H57 C46 0.929 . S
O58 Co33 2.351 . S
O58 C61 1.244 . S
O59 Co33 2.155 . S
O59 C61 1.240 . S
O60 Co33 2.096 . S
O60 C41 1.247 . S
C61 O58 1.244 . S
C61 O59 1.240 . S
H62 C36 0.931 . S
H63 C45 0.931 1_554 S
H64 C49 0.929 . S
H65 C51 0.930 . S
Co66 N70 2.148 . S
Co66 N76 2.128 . S
Co66 N86 2.194 . S
Co66 O91 2.351 . S
Co66 O92 2.155 . S
Co66 O93 2.096 . S
C67 N70 1.301 . S
C67 N71 1.328 . S
C67 H72 0.930 . S
C68 C69 1.333 . S
C68 N70 1.317 . S
C68 H73 0.930 . S
C69 C68 1.333 . S
C69 N71 1.350 . S
C69 H95 0.931 . S
N70 Co66 2.148 . S
N70 C67 1.301 . S
N70 C68 1.317 . S
N71 C67 1.328 . S
N71 C69 1.350 . S
H72 C67 0.930 . S
H73 C68 0.930 . S
C74 O75 1.224 . S
C74 O93 1.247 . S
O75 C74 1.224 . S
N76 Co66 2.128 . S
N76 C77 1.355 . S
N76 C79 1.311 . S
C77 N76 1.355 . S
C77 C78 1.363 . S
C77 H89 0.929 . S
C78 C77 1.363 . S
C78 N80 1.375 . S
C78 H96 0.931 . S
C79 N76 1.311 . S
C79 N80 1.347 . S
C79 H90 0.929 . S
N80 C78 1.375 . S
N80 C79 1.347 . S
C81 C84 1.365 . S
C81 N86 1.328 . S
C81 H87 0.929 . S
C82 C83 1.362 . S
C82 C85 1.378 . S
C82 H97 0.929 . S
C83 C82 1.362 . S
C83 C84 1.366 . S
C84 C81 1.365 . S
C84 C83 1.366 . S
C84 H98 0.930 . S
C85 C82 1.378 . S
C85 N86 1.315 . S
C85 H88 0.930 . S
N86 Co66 2.194 . S
N86 C81 1.328 . S
N86 C85 1.315 . S
H87 C81 0.929 . S
H88 C85 0.930 . S
H89 C77 0.929 . S
H90 C79 0.929 . S
O91 Co66 2.351 . S
O91 C94 1.244 . S
O92 Co66 2.155 . S
O92 C94 1.240 . S
O93 Co66 2.096 . S
O93 C74 1.247 . S
C94 O91 1.244 . S
C94 O92 1.240 . S
H95 C69 0.931 . S
H96 C78 0.931 . S
H97 C82 0.929 . S
H98 C84 0.930 . S
Co99 N103 2.148 . S
Co99 N109 2.128 . S
Co99 N119 2.194 . S
Co99 O124 2.351 . S
Co99 O125 2.155 . S
Co99 O126 2.096 . S
C100 N103 1.301 . S
C100 N104 1.328 . S
C100 H105 0.930 . S
C101 C102 1.333 . S
C101 N103 1.317 . S
C101 H106 0.930 . S
C102 C101 1.333 . S
C102 N104 1.350 . S
C102 H128 0.931 1_554 S
N103 Co99 2.148 . S
N103 C100 1.301 . S
N103 C101 1.317 . S
N104 C100 1.328 . S
N104 C102 1.350 . S
H105 C100 0.930 . S
H106 C101 0.930 . S
C107 O108 1.224 . S
C107 O126 1.247 . S
O108 C107 1.224 . S
N109 Co99 2.128 . S
N109 C110 1.355 . S
N109 C112 1.311 . S
C110 N109 1.355 . S
C110 C111 1.363 . S
C110 H122 0.929 . S
C111 C110 1.363 . S
C111 N113 1.375 . S
C111 H129 0.931 . S
C112 N109 1.311 . S
C112 N113 1.347 . S
C112 H123 0.929 . S
N113 C111 1.375 . S
N113 C112 1.347 . S
C114 C117 1.365 . S
C114 N119 1.328 . S
C114 H120 0.929 . S
C115 C116 1.362 . S
C115 C118 1.378 . S
C115 H130 0.929 . S
C116 C115 1.362 . S
C116 C117 1.366 . S
C117 C114 1.365 . S
C117 C116 1.366 . S
C117 H131 0.930 . S
C118 C115 1.378 . S
C118 N119 1.315 . S
C118 H121 0.930 . S
N119 Co99 2.194 . S
N119 C114 1.328 . S
N119 C118 1.315 . S
H120 C114 0.929 . S
H121 C118 0.930 . S
H122 C110 0.929 . S
H123 C112 0.929 . S
O124 Co99 2.351 . S
O124 C127 1.244 . S
O125 Co99 2.155 . S
O125 C127 1.240 . S
O126 Co99 2.096 . S
O126 C107 1.247 . S
C127 O124 1.244 . S
C127 O125 1.240 . S
H128 C102 0.931 1_556 S
H129 C111 0.931 . S
H130 C115 0.929 . S
H131 C117 0.930 . S
Co132 N136 2.148 . S
Co132 N142 2.128 . S
Co132 N152 2.194 . S
Co132 O157 2.351 . S
Co132 O158 2.155 . S
Co132 O159 2.096 . S
C133 N136 1.301 . S
C133 N137 1.328 . S
C133 H138 0.930 . S
C134 C135 1.333 . S
C134 N136 1.317 . S
C134 H139 0.930 . S
C135 C134 1.333 . S
C135 N137 1.350 . S
C135 H161 0.931 . S
N136 Co132 2.148 . S
N136 C133 1.301 . S
N136 C134 1.317 . S
N137 C133 1.328 . S
N137 C135 1.350 . S
H138 C133 0.930 . S
H139 C134 0.930 . S
C140 O141 1.224 . S
C140 O159 1.247 . S
O141 C140 1.224 . S
N142 Co132 2.128 . S
N142 C143 1.355 . S
N142 C145 1.311 . S
C143 N142 1.355 . S
C143 C144 1.363 . S
C143 H155 0.929 . S
C144 C143 1.363 . S
C144 N146 1.375 . S
C144 H162 0.931 . S
C145 N142 1.311 . S
C145 N146 1.347 . S
C145 H156 0.929 . S
N146 C144 1.375 . S
N146 C145 1.347 . S
C147 C150 1.365 . S
C147 N152 1.328 . S
C147 H153 0.929 . S
C148 C149 1.362 . S
C148 C151 1.378 . S
C148 H163 0.929 . S
C149 C148 1.362 . S
C149 C150 1.366 . S
C150 C147 1.365 . S
C150 C149 1.366 . S
C150 H164 0.930 . S
C151 C148 1.378 . S
C151 N152 1.315 . S
C151 H154 0.930 . S
N152 Co132 2.194 . S
N152 C147 1.328 . S
N152 C151 1.315 . S
H153 C147 0.929 . S
H154 C151 0.930 . S
H155 C143 0.929 . S
H156 C145 0.929 . S
O157 Co132 2.351 . S
O157 C160 1.244 . S
O158 Co132 2.155 . S
O158 C160 1.240 . S
O159 Co132 2.096 . S
O159 C140 1.247 . S
C160 O157 1.244 . S
C160 O158 1.240 . S
H161 C135 0.931 . S
H162 C144 0.931 . S
H163 C148 0.929 . S
H164 C150 0.930 . S
Co165 N169 2.148 . S
Co165 N175 2.128 . S
Co165 N185 2.194 . S
Co165 O190 2.351 . S
Co165 O191 2.155 . S
Co165 O192 2.096 . S
C166 N169 1.301 . S
C166 N170 1.328 . S
C166 H171 0.930 . S
C167 C168 1.333 . S
C167 N169 1.317 . S
C167 H172 0.930 . S
C168 C167 1.333 . S
C168 N170 1.350 . S
C168 H194 0.931 . S
N169 Co165 2.148 . S
N169 C166 1.301 . S
N169 C167 1.317 . S
N170 C166 1.328 . S
N170 C168 1.350 . S
H171 C166 0.930 . S
H172 C167 0.930 . S
C173 O174 1.224 . S
C173 O192 1.247 1_655 S
O174 C173 1.224 . S
N175 Co165 2.128 . S
N175 C176 1.355 . S
N175 C178 1.311 1_455 S
C176 N175 1.355 . S
C176 C177 1.363 1_455 S
C176 H188 0.929 . S
C177 C176 1.363 1_655 S
C177 N179 1.375 . S
C177 H195 0.931 1_556 S
C178 N175 1.311 1_655 S
C178 N179 1.347 . S
C178 H189 0.929 . S
N179 C177 1.375 . S
N179 C178 1.347 . S
C180 C183 1.365 . S
C180 N185 1.328 . S
C180 H186 0.929 . S
C181 C182 1.362 . S
C181 C184 1.378 . S
C181 H196 0.929 1_455 S
C182 C181 1.362 . S
C182 C183 1.366 . S
C183 C180 1.365 . S
C183 C182 1.366 . S
C183 H197 0.930 . S
C184 C181 1.378 . S
C184 N185 1.315 . S
C184 H187 0.930 . S
N185 Co165 2.194 . S
N185 C180 1.328 . S
N185 C184 1.315 . S
H186 C180 0.929 . S
H187 C184 0.930 . S
H188 C176 0.929 . S
H189 C178 0.929 . S
O190 Co165 2.351 . S
O190 C193 1.244 . S
O191 Co165 2.155 . S
O191 C193 1.240 . S
O192 Co165 2.096 . S
O192 C173 1.247 1_455 S
C193 O190 1.244 . S
C193 O191 1.240 . S
H194 C168 0.931 . S
H195 C177 0.931 1_554 S
H196 C181 0.929 1_655 S
H197 C183 0.930 . S
Co198 N202 2.148 . S
Co198 N208 2.128 . S
Co198 N218 2.194 . S
Co198 O223 2.351 . S
Co198 O224 2.155 . S
Co198 O225 2.096 . S
C199 N202 1.301 . S
C199 N203 1.328 . S
C199 H204 0.930 . S
C200 C201 1.333 . S
C200 N202 1.317 . S
C200 H205 0.930 . S
C201 C200 1.333 . S
C201 N203 1.350 . S
C201 H227 0.931 . S
N202 Co198 2.148 . S
N202 C199 1.301 . S
N202 C200 1.317 . S
N203 C199 1.328 . S
N203 C201 1.350 . S
H204 C199 0.930 . S
H205 C200 0.930 . S
C206 O207 1.224 . S
C206 O225 1.247 . S
O207 C206 1.224 . S
N208 Co198 2.128 . S
N208 C209 1.355 . S
N208 C211 1.311 . S
C209 N208 1.355 . S
C209 C210 1.363 . S
C209 H221 0.929 . S
C210 C209 1.363 . S
C210 N212 1.375 . S
C210 H228 0.931 . S
C211 N208 1.311 . S
C211 N212 1.347 . S
C211 H222 0.929 . S
N212 C210 1.375 . S
N212 C211 1.347 . S
C213 C216 1.365 . S
C213 N218 1.328 . S
C213 H219 0.929 . S
C214 C215 1.362 . S
C214 C217 1.378 . S
C214 H229 0.929 . S
C215 C214 1.362 . S
C215 C216 1.366 . S
C216 C213 1.365 . S
C216 C215 1.366 . S
C216 H230 0.930 . S
C217 C214 1.378 . S
C217 N218 1.315 . S
C217 H220 0.930 . S
N218 Co198 2.194 . S
N218 C213 1.328 . S
N218 C217 1.315 . S
H219 C213 0.929 . S
H220 C217 0.930 . S
H221 C209 0.929 . S
H222 C211 0.929 . S
O223 Co198 2.351 . S
O223 C226 1.244 . S
O224 Co198 2.155 . S
O224 C226 1.240 . S
O225 Co198 2.096 . S
O225 C206 1.247 . S
C226 O223 1.244 . S
C226 O224 1.240 . S
H227 C201 0.931 . S
H228 C210 0.931 . S
H229 C214 0.929 . S
H230 C216 0.930 . S
Co231 N235 2.139 1_455 S
Co231 N241 2.128 . S
Co231 N251 2.194 . S
Co231 O256 2.351 1_455 S
Co231 O257 2.155 . S
Co231 O258 2.096 . S
C232 N235 1.313 . S
C232 N236 1.328 . S
C232 H237 0.930 . S
C233 C234 1.333 1_455 S
C233 N235 1.315 1_455 S
C233 H238 0.930 . S
C234 C233 1.333 1_655 S
C234 N236 1.350 . S
C234 H260 0.931 1_554 S
N235 Co231 2.139 1_655 S
N235 C232 1.313 . S
N235 C233 1.315 1_655 S
N236 C232 1.328 . S
N236 C234 1.350 . S
H237 C232 0.930 . S
H238 C233 0.930 . S
C239 O240 1.224 . S
C239 O258 1.247 . S
O240 C239 1.224 . S
N241 Co231 2.128 . S
N241 C242 1.355 . S
N241 C244 1.311 . S
C242 N241 1.355 . S
C242 C243 1.363 . S
C242 H254 0.929 . S
C243 C242 1.363 . S
C243 N245 1.375 . S
C243 H261 0.931 . S
C244 N241 1.311 . S
C244 N245 1.347 . S
C244 H255 0.929 . S
N245 C243 1.375 . S
N245 C244 1.347 . S
C246 C249 1.365 . S
C246 N251 1.328 . S
C246 H252 0.929 1_455 S
C247 C248 1.362 . S
C247 C250 1.378 . S
C247 H262 0.929 . S
C248 C247 1.362 . S
C248 C249 1.366 . S
C249 C246 1.365 . S
C249 C248 1.366 . S
C249 H263 0.930 1_455 S
C250 C247 1.378 . S
C250 N251 1.315 . S
C250 H253 0.930 . S
N251 Co231 2.194 . S
N251 C246 1.328 . S
N251 C250 1.315 . S
H252 C246 0.929 1_655 S
H253 C250 0.930 . S
H254 C242 0.929 . S
H255 C244 0.929 . S
O256 Co231 2.351 1_655 S
O256 C259 1.244 . S
O257 Co231 2.155 . S
O257 C259 1.240 1_455 S
O258 Co231 2.096 . S
O258 C239 1.247 . S
C259 O256 1.244 . S
C259 O257 1.240 1_655 S
H260 C234 0.931 1_556 S
H261 C243 0.931 . S
H262 C247 0.929 . S
H263 C249 0.930 1_655 S
H264 C270 0.930 . S
H265 C273 0.930 . S
H266 C274 0.930 . S
H267 C275 0.930 . S
H268 C278 0.930 . S
H269 C279 0.930 . S
C270 H264 0.930 . S
C270 C271 1.355 . S
C270 C272 1.415 . S
C271 C270 1.355 . S
C271 C273 1.419 . S
C272 C270 1.415 . S
C272 C277 1.425 . S
C272 C279 1.409 . S
C273 H265 0.930 . S
C273 C271 1.419 . S
C273 C274 1.362 . S
C274 H266 0.930 . S
C274 C273 1.362 . S
C274 C277 1.409 . S
C275 H267 0.930 . S
C275 C276 1.355 . S
C275 C277 1.415 . S
C276 C275 1.355 . S
C276 C278 1.419 . S
C277 C272 1.425 . S
C277 C274 1.409 . S
C277 C275 1.415 . S
C278 H268 0.930 . S
C278 C276 1.419 . S
C278 C279 1.362 . S
C279 H269 0.930 . S
C279 C272 1.409 . S
C279 C278 1.362 . S
H280 C286 0.930 . S
H281 C289 0.930 . S
H282 C290 0.930 . S
H283 C291 0.930 . S
H284 C294 0.930 . S
H285 C295 0.930 . S
C286 H280 0.930 . S
C286 C287 1.355 . S
C286 C288 1.415 . S
C287 C286 1.355 . S
C287 C289 1.419 . S
C288 C286 1.415 . S
C288 C293 1.425 . S
C288 C295 1.409 . S
C289 H281 0.930 . S
C289 C287 1.419 . S
C289 C290 1.362 . S
C290 H282 0.930 . S
C290 C289 1.362 . S
C290 C293 1.409 . S
C291 H283 0.930 . S
C291 C292 1.355 . S
C291 C293 1.415 . S
C292 C291 1.355 . S
C292 C294 1.419 . S
C293 C288 1.425 . S
C293 C290 1.409 . S
C293 C291 1.415 . S
C294 H284 0.930 . S
C294 C292 1.419 . S
C294 C295 1.362 . S
C295 H285 0.930 . S
C295 C288 1.409 . S
C295 C294 1.362 . S
H296 C302 0.930 . S
H297 C305 0.930 1_455 S
H298 C306 0.930 . S
H299 C307 0.930 . S
H300 C310 0.930 . S
H301 C311 0.930 . S
C302 H296 0.930 . S
C302 C303 1.355 . S
C302 C304 1.415 . S
C303 C302 1.355 . S
C303 C305 1.419 . S
C304 C302 1.415 . S
C304 C309 1.425 . S
C304 C311 1.409 . S
C305 H297 0.930 1_655 S
C305 C303 1.419 . S
C305 C306 1.362 . S
C306 H298 0.930 . S
C306 C305 1.362 . S
C306 C309 1.409 . S
C307 H299 0.930 . S
C307 C308 1.355 . S
C307 C309 1.415 . S
C308 C307 1.355 . S
C308 C310 1.419 . S
C309 C304 1.425 . S
C309 C306 1.409 . S
C309 C307 1.415 . S
C310 H300 0.930 . S
C310 C308 1.419 . S
C310 C311 1.362 . S
C311 H301 0.930 . S
C311 C304 1.409 . S
C311 C310 1.362 . S
H312 C318 0.930 . S
H313 C321 0.930 . S
H314 C322 0.930 . S
H315 C323 0.930 . S
H316 C326 0.930 . S
H317 C327 0.930 . S
C318 H312 0.930 . S
C318 C319 1.355 . S
C318 C320 1.415 . S
C319 C318 1.355 . S
C319 C321 1.419 . S
C320 C318 1.415 . S
C320 C325 1.425 . S
C320 C327 1.409 . S
C321 H313 0.930 . S
C321 C319 1.419 . S
C321 C322 1.362 . S
C322 H314 0.930 . S
C322 C321 1.362 . S
C322 C325 1.409 . S
C323 H315 0.930 . S
C323 C324 1.355 . S
C323 C325 1.415 . S
C324 C323 1.355 . S
C324 C326 1.419 . S
C325 C320 1.425 . S
C325 C322 1.409 . S
C325 C323 1.415 . S
C326 H316 0.930 . S
C326 C324 1.419 . S
C326 C327 1.362 . S
C327 H317 0.930 . S
C327 C320 1.409 . S
C327 C326 1.362 . S
H328 C334 0.930 . S
H329 C337 0.930 . S
H330 C338 0.930 . S
H331 C339 0.930 . S
H332 C342 0.930 . S
H333 C343 0.930 . S
C334 H328 0.930 . S
C334 C335 1.355 . S
C334 C336 1.415 . S
C335 C334 1.355 . S
C335 C337 1.419 . S
C336 C334 1.415 . S
C336 C341 1.425 . S
C336 C343 1.409 . S
C337 H329 0.930 . S
C337 C335 1.419 . S
C337 C338 1.362 . S
C338 H330 0.930 . S
C338 C337 1.362 . S
C338 C341 1.409 . S
C339 H331 0.930 . S
C339 C340 1.355 . S
C339 C341 1.415 . S
C340 C339 1.355 . S
C340 C342 1.419 . S
C341 C336 1.425 . S
C341 C338 1.409 . S
C341 C339 1.415 . S
C342 H332 0.930 . S
C342 C340 1.419 . S
C342 C343 1.362 . S
C343 H333 0.930 . S
C343 C336 1.409 . S
C343 C342 1.362 . S
H344 C350 0.930 . S
H345 C353 0.930 . S
H346 C354 0.930 . S
H347 C355 0.930 . S
H348 C358 0.930 . S
H349 C359 0.930 . S
C350 H344 0.930 . S
C350 C351 1.355 . S
C350 C352 1.415 . S
C351 C350 1.355 . S
C351 C353 1.419 . S
C352 C350 1.415 . S
C352 C357 1.425 . S
C352 C359 1.409 . S
C353 H345 0.930 . S
C353 C351 1.419 . S
C353 C354 1.362 . S
C354 H346 0.930 . S
C354 C353 1.362 . S
C354 C357 1.409 . S
C355 H347 0.930 . S
C355 C356 1.355 . S
C355 C357 1.415 . S
C356 C355 1.355 . S
C356 C358 1.419 . S
C357 C352 1.425 . S
C357 C354 1.409 . S
C357 C355 1.415 . S
C358 H348 0.930 . S
C358 C356 1.419 . S
C358 C359 1.362 . S
C359 H349 0.930 . S
C359 C352 1.409 . S
C359 C358 1.362 . S
H360 C366 0.930 . S
H361 C369 0.930 . S
H362 C370 0.930 . S
H363 C371 0.930 . S
H364 C374 0.930 . S
H365 C375 0.930 . S
C366 H360 0.930 . S
C366 C367 1.355 . S
C366 C368 1.415 . S
C367 C366 1.355 . S
C367 C369 1.419 . S
C368 C366 1.415 . S
C368 C373 1.425 . S
C368 C375 1.409 . S
C369 H361 0.930 . S
C369 C367 1.419 . S
C369 C370 1.362 . S
C370 H362 0.930 . S
C370 C369 1.362 . S
C370 C373 1.409 . S
C371 H363 0.930 . S
C371 C372 1.355 . S
C371 C373 1.415 . S
C372 C371 1.355 . S
C372 C374 1.419 . S
C373 C368 1.425 . S
C373 C370 1.409 . S
C373 C371 1.415 . S
C374 H364 0.930 . S
C374 C372 1.419 . S
C374 C375 1.362 . S
C375 H365 0.930 . S
C375 C368 1.409 . S
C375 C374 1.362 . S
H376 C382 0.930 . S
H377 C385 0.930 . S
H378 C386 0.930 . S
H379 C387 0.930 . S
H380 C390 0.930 . S
H381 C391 0.930 . S
C382 H376 0.930 . S
C382 C383 1.355 . S
C382 C384 1.415 . S
C383 C382 1.355 . S
C383 C385 1.419 . S
C384 C382 1.415 . S
C384 C389 1.425 . S
C384 C391 1.409 . S
C385 H377 0.930 . S
C385 C383 1.419 . S
C385 C386 1.362 . S
C386 H378 0.930 . S
C386 C385 1.362 . S
C386 C389 1.409 . S
C387 H379 0.930 . S
C387 C388 1.355 . S
C387 C389 1.415 . S
C388 C387 1.355 . S
C388 C390 1.419 . S
C389 C384 1.425 . S
C389 C386 1.409 . S
C389 C387 1.415 . S
C390 H380 0.930 . S
C390 C388 1.419 . S
C390 C391 1.362 . S
C391 H381 0.930 . S
C391 C384 1.409 . S
C391 C390 1.362 . S
H392 C398 0.930 . S
H393 C401 0.930 . S
H394 C402 0.930 . S
H395 C403 0.930 . S
H396 C406 0.930 . S
H397 C407 0.930 . S
C398 H392 0.930 . S
C398 C399 1.355 . S
C398 C400 1.415 . S
C399 C398 1.355 . S
C399 C401 1.419 . S
C400 C398 1.415 . S
C400 C405 1.425 . S
C400 C407 1.409 . S
C401 H393 0.930 . S
C401 C399 1.419 . S
C401 C402 1.362 . S
C402 H394 0.930 . S
C402 C401 1.362 . S
C402 C405 1.409 . S
C403 H395 0.930 . S
C403 C404 1.355 . S
C403 C405 1.415 . S
C404 C403 1.355 . S
C404 C406 1.419 . S
C405 C400 1.425 . S
C405 C402 1.409 . S
C405 C403 1.415 . S
C406 H396 0.930 . S
C406 C404 1.419 . S
C406 C407 1.362 . S
C407 H397 0.930 . S
C407 C400 1.409 . S
C407 C406 1.362 . S
H408 C414 0.930 . S
H409 C417 0.930 . S
H410 C418 0.930 . S
H411 C419 0.930 . S
H412 C422 0.930 . S
H413 C423 0.930 . S
C414 H408 0.930 . S
C414 C415 1.355 . S
C414 C416 1.415 . S
C415 C414 1.355 . S
C415 C417 1.419 1_556 S
C416 C414 1.415 . S
C416 C421 1.425 1_556 S
C416 C423 1.409 . S
C417 H409 0.930 . S
C417 C415 1.419 1_554 S
C417 C418 1.362 . S
C418 H410 0.930 . S
C418 C417 1.362 . S
C418 C421 1.409 . S
C419 H411 0.930 . S
C419 C420 1.355 . S
C419 C421 1.415 . S
C420 C419 1.355 . S
C420 C422 1.419 1_554 S
C421 C416 1.425 1_554 S
C421 C418 1.409 . S
C421 C419 1.415 . S
C422 H412 0.930 . S
C422 C420 1.419 1_556 S
C422 C423 1.362 . S
C423 H413 0.930 . S
C423 C416 1.409 . S
C423 C422 1.362 . S
H424 C430 0.930 . S
H425 C433 0.930 . S
H426 C434 0.930 . S
H427 C435 0.930 . S
H428 C438 0.930 . S
H429 C439 0.930 . S
C430 H424 0.930 . S
C430 C431 1.355 . S
C430 C432 1.415 1_545 S
C431 C430 1.355 . S
C431 C433 1.419 . S
C432 C430 1.415 1_565 S
C432 C437 1.425 . S
C432 C439 1.409 . S
C433 H425 0.930 . S
C433 C431 1.419 . S
C433 C434 1.362 . S
C434 H426 0.930 . S
C434 C433 1.362 . S
C434 C437 1.409 1_545 S
C435 H427 0.930 . S
C435 C436 1.355 . S
C435 C437 1.415 . S
C436 C435 1.355 . S
C436 C438 1.419 . S
C437 C432 1.425 . S
C437 C434 1.409 1_565 S
C437 C435 1.415 . S
C438 H428 0.930 . S
C438 C436 1.419 . S
C438 C439 1.362 . S
C439 H429 0.930 . S
C439 C432 1.409 . S
C439 C438 1.362 . S
H440 C446 0.930 . S
H441 C449 0.930 . S
H442 C450 0.930 . S
H443 C451 0.930 . S
H444 C454 0.930 . S
H445 C455 0.930 . S
C446 H440 0.930 . S
C446 C447 1.355 . S
C446 C448 1.410 1_565 S
C447 C446 1.355 . S
C447 C449 1.419 1_554 S
C448 C446 1.410 1_545 S
C448 C453 1.425 1_554 S
C448 C455 1.414 . S
C449 H441 0.930 . S
C449 C447 1.419 1_556 S
C449 C450 1.362 . S
C450 H442 0.930 . S
C450 C449 1.362 . S
C450 C453 1.384 1_565 S
C451 H443 0.930 . S
C451 C452 1.355 . S
C451 C453 1.440 . S
C452 C451 1.355 . S
C452 C454 1.419 1_556 S
C453 C448 1.425 1_556 S
C453 C450 1.384 1_545 S
C453 C451 1.440 . S
C454 H444 0.930 . S
C454 C452 1.419 1_554 S
C454 C455 1.362 . S
C455 H445 0.930 . S
C455 C448 1.414 . S
C455 C454 1.362 . S
H456 C462 0.930 . S
H457 C465 0.930 . S
H458 C466 0.930 . S
H459 C467 0.930 . S
H460 C470 0.930 . S
H461 C471 0.930 . S
C462 H456 0.930 . S
C462 C463 1.355 . S
C462 C464 1.415 . S
C463 C462 1.355 . S
C463 C465 1.419 . S
C464 C462 1.415 . S
C464 C469 1.425 . S
C464 C471 1.409 . S
C465 H457 0.930 . S
C465 C463 1.419 . S
C465 C466 1.362 . S
C466 H458 0.930 . S
C466 C465 1.362 . S
C466 C469 1.409 . S
C467 H459 0.930 . S
C467 C468 1.355 . S
C467 C469 1.415 . S
C468 C467 1.355 . S
C468 C470 1.419 . S
C469 C464 1.425 . S
C469 C466 1.409 . S
C469 C467 1.415 . S
C470 H460 0.930 . S
C470 C468 1.419 . S
C470 C471 1.362 . S
C471 H461 0.930 . S
C471 C464 1.409 . S
C471 C470 1.362 . S
H472 C478 0.930 . S
H473 C481 0.930 . S
H474 C482 0.930 . S
H475 C483 0.930 . S
H476 C486 0.930 . S
H477 C487 0.930 . S
C478 H472 0.930 . S
C478 C479 1.355 1_554 S
C478 C480 1.415 . S
C479 C478 1.355 1_556 S
C479 C481 1.419 . S
C480 C478 1.415 . S
C480 C485 1.425 . S
C480 C487 1.409 . S
C481 H473 0.930 . S
C481 C479 1.419 . S
C481 C482 1.362 . S
C482 H474 0.930 . S
C482 C481 1.362 . S
C482 C485 1.409 1_556 S
C483 H475 0.930 . S
C483 C484 1.355 . S
C483 C485 1.415 . S
C484 C483 1.355 . S
C484 C486 1.419 . S
C485 C480 1.425 . S
C485 C482 1.409 1_554 S
C485 C483 1.415 . S
C486 H476 0.930 . S
C486 C484 1.419 . S
C486 C487 1.362 . S
C487 H477 0.930 . S
C487 C480 1.409 . S
C487 C486 1.362 . S
H488 C494 0.930 . S
H489 C497 0.930 . S
H490 C498 0.930 . S
H491 C499 0.930 . S
H492 C502 0.930 . S
H493 C503 0.930 . S
C494 H488 0.930 . S
C494 C495 1.355 . S
C494 C496 1.415 . S
C495 C494 1.355 . S
C495 C497 1.419 . S
C496 C494 1.415 . S
C496 C501 1.425 . S
C496 C503 1.409 . S
C497 H489 0.930 . S
C497 C495 1.419 . S
C497 C498 1.362 . S
C498 H490 0.930 . S
C498 C497 1.362 . S
C498 C501 1.409 . S
C499 H491 0.930 . S
C499 C500 1.355 . S
C499 C501 1.415 . S
C500 C499 1.355 . S
C500 C502 1.419 . S
C501 C496 1.425 . S
C501 C498 1.409 . S
C501 C499 1.415 . S
C502 H492 0.930 . S
C502 C500 1.419 . S
C502 C503 1.362 . S
C503 H493 0.930 . S
C503 C496 1.409 . S
C503 C502 1.362 . S
H504 C510 0.930 . S
H505 C513 0.930 . S
H506 C514 0.930 . S
H507 C515 0.930 . S
H508 C518 0.930 . S
H509 C519 0.930 . S
C510 H504 0.930 . S
C510 C511 1.355 . S
C510 C512 1.415 . S
C511 C510 1.355 . S
C511 C513 1.419 . S
C512 C510 1.415 . S
C512 C517 1.425 . S
C512 C519 1.409 1_556 S
C513 H505 0.930 . S
C513 C511 1.419 . S
C513 C514 1.362 . S
C514 H506 0.930 . S
C514 C513 1.362 . S
C514 C517 1.409 . S
C515 H507 0.930 . S
C515 C516 1.355 1_556 S
C515 C517 1.415 . S
C516 C515 1.355 1_554 S
C516 C518 1.419 . S
C517 C512 1.425 . S
C517 C514 1.409 . S
C517 C515 1.415 . S
C518 H508 0.930 . S
C518 C516 1.419 . S
C518 C519 1.362 . S
C519 H509 0.930 . S
C519 C512 1.409 1_554 S
C519 C518 1.362 . S
H520 C526 0.930 . S
H521 C529 0.930 . S
H522 C530 0.930 . S
H523 C531 0.930 . S
H524 C534 0.930 . S
H525 C535 0.930 . S
C526 H520 0.930 . S
C526 C527 1.355 1_655 S
C526 C528 1.415 . S
C527 C526 1.355 1_455 S
C527 C529 1.419 . S
C528 C526 1.415 . S
C528 C533 1.425 . S
C528 C535 1.409 . S
C529 H521 0.930 . S
C529 C527 1.419 . S
C529 C530 1.362 . S
C530 H522 0.930 . S
C530 C529 1.362 . S
C530 C533 1.409 1_455 S
C531 H523 0.930 . S
C531 C532 1.355 . S
C531 C533 1.415 . S
C532 C531 1.355 . S
C532 C534 1.419 . S
C533 C528 1.425 . S
C533 C530 1.409 1_655 S
C533 C531 1.415 . S
C534 H524 0.930 . S
C534 C532 1.419 . S
C534 C535 1.362 . S
C535 H525 0.930 . S
C535 C528 1.409 . S
C535 C534 1.362 . S
H536 C542 0.930 . S
H537 C545 0.930 . S
H538 C546 0.930 . S
H539 C547 0.930 . S
H540 C550 0.930 . S
H541 C551 0.930 . S
C542 H536 0.930 . S
C542 C543 1.355 . S
C542 C544 1.415 . S
C543 C542 1.355 . S
C543 C545 1.419 . S
C544 C542 1.415 . S
C544 C549 1.425 . S
C544 C551 1.409 . S
C545 H537 0.930 . S
C545 C543 1.419 . S
C545 C546 1.362 . S
C546 H538 0.930 . S
C546 C545 1.362 . S
C546 C549 1.409 . S
C547 H539 0.930 . S
C547 C548 1.355 . S
C547 C549 1.415 1_556 S
C548 C547 1.355 . S
C548 C550 1.419 . S
C549 C544 1.425 . S
C549 C546 1.409 . S
C549 C547 1.415 1_554 S
C550 H540 0.930 . S
C550 C548 1.419 . S
C550 C551 1.362 1_556 S
C551 H541 0.930 . S
C551 C544 1.409 . S
C551 C550 1.362 1_554 S
H552 C558 0.930 . S
H553 C561 0.930 . S
H554 C562 0.930 . S
H555 C563 0.930 . S
H556 C566 0.930 . S
H557 C567 0.930 . S
C558 H552 0.930 . S
C558 C559 1.355 . S
C558 C560 1.415 1_455 S
C559 C558 1.355 . S
C559 C561 1.419 . S
C560 C558 1.415 1_655 S
C560 C565 1.425 . S
C560 C567 1.409 . S
C561 H553 0.930 . S
C561 C559 1.419 . S
C561 C562 1.362 1_455 S
C562 H554 0.930 . S
C562 C561 1.362 1_655 S
C562 C565 1.409 . S
C563 H555 0.930 . S
C563 C564 1.355 . S
C563 C565 1.415 . S
C564 C563 1.355 . S
C564 C566 1.419 . S
C565 C560 1.425 . S
C565 C562 1.409 . S
C565 C563 1.415 . S
C566 H556 0.930 . S
C566 C564 1.419 . S
C566 C567 1.362 . S
C567 H557 0.930 . S
C567 C560 1.409 . S
C567 C566 1.362 . S
H568 C574 0.930 . S
H569 C577 0.930 . S
H570 C578 0.930 . S
H571 C579 0.930 . S
H572 C582 0.930 . S
H573 C583 0.930 . S
C574 H568 0.930 . S
C574 C575 1.355 . S
C574 C576 1.415 . S
C575 C574 1.355 . S
C575 C577 1.419 . S
C576 C574 1.415 . S
C576 C581 1.425 . S
C576 C583 1.409 1_556 S
C577 H569 0.930 . S
C577 C575 1.419 . S
C577 C578 1.362 . S
C578 H570 0.930 . S
C578 C577 1.362 . S
C578 C581 1.409 . S
C579 H571 0.930 . S
C579 C580 1.355 1_556 S
C579 C581 1.415 . S
C580 C579 1.355 1_554 S
C580 C582 1.419 . S
C581 C576 1.425 . S
C581 C578 1.409 . S
C581 C579 1.415 . S
C582 H572 0.930 . S
C582 C580 1.419 . S
C582 C583 1.362 . S
C583 H573 0.930 . S
C583 C576 1.409 1_554 S
C583 C582 1.362 . S
C271 C28 1.280 . S
C276 C127 1.255 . S
C287 C41 1.275 . S
C292 C94 1.248 . S
C303 N80 1.628 1_655 S
C308 N38 1.579 . S
C319 N113 1.717 . S
C324 N14 1.726 1_655 S
C335 C160 1.263 . S
C340 C259 1.274 . S
C351 C226 1.275 . S
C356 C173 1.231 . S
C367 N170 1.576 . S
C372 N212 1.629 . S
C383 N245 1.688 . S
C388 N146 1.689 . S
C399 C83 1.537 . S
C404 C17 1.536 . S
C415 C50 1.477 . S
C420 C116 1.475 . S
C431 C215 1.532 . S
C436 C149 1.539 . S
C447 C248 1.469 . S
C452 C182 1.469 . S
C463 N5 1.419 . S
C468 C206 1.479 . S
C479 N47 1.492 . S
C484 C239 1.485 . S
C495 N71 1.370 . S
C500 C140 1.492 . S
C511 C193 1.482 . S
C516 N104 1.365 . S
C527 C74 1.485 . S
C532 N137 1.401 . S
C543 C107 1.491 . S
C548 N179 1.499 . S
C559 C8 1.461 . S
C564 N203 1.441 . S
C575 C61 1.475 . S
C580 N236 1.436 . S
