# Generated by pormake.
# Topology uns, (4)-cn, num edge types: 1
# Building blocks:
#     Node 0, Type 0, BuildingBlock: MUDLON_clean_sbu_0, # of connection points: 4
#     Node 1, Type 0, BuildingBlock: MUDLON_clean_sbu_0, # of connection points: 4
#     Node 2, Type 0, BuildingBlock: MUDLON_clean_sbu_0, # of connection points: 4
#     Node 3, Type 0, BuildingBlock: MUDLON_clean_sbu_0, # of connection points: 4
#     Node 4, Type 0, BuildingBlock: MUDLON_clean_sbu_0, # of connection points: 4
#     Node 5, Type 0, BuildingBlock: MUDLON_clean_sbu_0, # of connection points: 4
#     Node 6, Type 0, BuildingBlock: MUDLON_clean_sbu_0, # of connection points: 4
#     Node 7, Type 0, BuildingBlock: MUDLON_clean_sbu_0, # of connection points: 4
#     Node 8, Type 0, BuildingBlock: MUDLON_clean_sbu_0, # of connection points: 4
#     Node 9, Type 0, BuildingBlock: MUDLON_clean_sbu_0, # of connection points: 4
#     Node 10, Type 0, BuildingBlock: MUDLON_clean_sbu_0, # of connection points: 4
#     Node 11, Type 0, BuildingBlock: MUDLON_clean_sbu_0, # of connection points: 4
#     Node 12, Type 0, BuildingBlock: MUDLON_clean_sbu_0, # of connection points: 4
#     Node 13, Type 0, BuildingBlock: MUDLON_clean_sbu_0, # of connection points: 4
#     Node 14, Type 0, BuildingBlock: MUDLON_clean_sbu_0, # of connection points: 4
#     Node 15, Type 0, BuildingBlock: MUDLON_clean_sbu_0, # of connection points: 4
#     Node 16, Type 0, BuildingBlock: MUDLON_clean_sbu_0, # of connection points: 4
#     Node 17, Type 0, BuildingBlock: MUDLON_clean_sbu_0, # of connection points: 4
#     Node 18, Type 0, BuildingBlock: MUDLON_clean_sbu_0, # of connection points: 4
#     Node 19, Type 0, BuildingBlock: MUDLON_clean_sbu_0, # of connection points: 4
#     Node 20, Type 0, BuildingBlock: MUDLON_clean_sbu_0, # of connection points: 4
#     Node 21, Type 0, BuildingBlock: MUDLON_clean_sbu_0, # of connection points: 4
#     Node 22, Type 0, BuildingBlock: MUDLON_clean_sbu_0, # of connection points: 4
#     Node 23, Type 0, BuildingBlock: MUDLON_clean_sbu_0, # of connection points: 4
#     Node 24, Type 0, BuildingBlock: MUDLON_clean_sbu_0, # of connection points: 4
#     Node 25, Type 0, BuildingBlock: MUDLON_clean_sbu_0, # of connection points: 4
#     Node 26, Type 0, BuildingBlock: MUDLON_clean_sbu_0, # of connection points: 4
#     Node 27, Type 0, BuildingBlock: MUDLON_clean_sbu_0, # of connection points: 4
#     Node 28, Type 0, BuildingBlock: MUDLON_clean_sbu_0, # of connection points: 4
#     Node 29, Type 0, BuildingBlock: MUDLON_clean_sbu_0, # of connection points: 4
#     Node 30, Type 0, BuildingBlock: MUDLON_clean_sbu_0, # of connection points: 4
#     Node 31, Type 0, BuildingBlock: MUDLON_clean_sbu_0, # of connection points: 4
#     Node 32, Type 0, BuildingBlock: MUDLON_clean_sbu_0, # of connection points: 4
#     Node 33, Type 0, BuildingBlock: MUDLON_clean_sbu_0, # of connection points: 4
#     Node 34, Type 0, BuildingBlock: MUDLON_clean_sbu_0, # of connection points: 4
#     Node 35, Type 0, BuildingBlock: MUDLON_clean_sbu_0, # of connection points: 4
#     Edge 36, Type (0, 0), BuildingBlock: CIFDUS_clean_linker_0, # of connection points: 2
#     Edge 37, Type (0, 0), BuildingBlock: CIFDUS_clean_linker_0, # of connection points: 2
#     Edge 38, Type (0, 0), BuildingBlock: CIFDUS_clean_linker_0, # of connection points: 2
#     Edge 39, Type (0, 0), BuildingBlock: CIFDUS_clean_linker_0, # of connection points: 2
#     Edge 40, Type (0, 0), BuildingBlock: CIFDUS_clean_linker_0, # of connection points: 2
#     Edge 41, Type (0, 0), BuildingBlock: CIFDUS_clean_linker_0, # of connection points: 2
#     Edge 42, Type (0, 0), BuildingBlock: CIFDUS_clean_linker_0, # of connection points: 2
#     Edge 43, Type (0, 0), BuildingBlock: CIFDUS_clean_linker_0, # of connection points: 2
#     Edge 44, Type (0, 0), BuildingBlock: CIFDUS_clean_linker_0, # of connection points: 2
#     Edge 45, Type (0, 0), BuildingBlock: CIFDUS_clean_linker_0, # of connection points: 2
#     Edge 46, Type (0, 0), BuildingBlock: CIFDUS_clean_linker_0, # of connection points: 2
#     Edge 47, Type (0, 0), BuildingBlock: CIFDUS_clean_linker_0, # of connection points: 2
#     Edge 48, Type (0, 0), BuildingBlock: CIFDUS_clean_linker_0, # of connection points: 2
#     Edge 49, Type (0, 0), BuildingBlock: CIFDUS_clean_linker_0, # of connection points: 2
#     Edge 50, Type (0, 0), BuildingBlock: CIFDUS_clean_linker_0, # of connection points: 2
#     Edge 51, Type (0, 0), BuildingBlock: CIFDUS_clean_linker_0, # of connection points: 2
#     Edge 52, Type (0, 0), BuildingBlock: CIFDUS_clean_linker_0, # of connection points: 2
#     Edge 53, Type (0, 0), BuildingBlock: CIFDUS_clean_linker_0, # of connection points: 2
#     Edge 54, Type (0, 0), BuildingBlock: CIFDUS_clean_linker_0, # of connection points: 2
#     Edge 55, Type (0, 0), BuildingBlock: CIFDUS_clean_linker_0, # of connection points: 2
#     Edge 56, Type (0, 0), BuildingBlock: CIFDUS_clean_linker_0, # of connection points: 2
#     Edge 57, Type (0, 0), BuildingBlock: CIFDUS_clean_linker_0, # of connection points: 2
#     Edge 58, Type (0, 0), BuildingBlock: CIFDUS_clean_linker_0, # of connection points: 2
#     Edge 59, Type (0, 0), BuildingBlock: CIFDUS_clean_linker_0, # of connection points: 2
#     Edge 60, Type (0, 0), BuildingBlock: CIFDUS_clean_linker_0, # of connection points: 2
#     Edge 61, Type (0, 0), BuildingBlock: CIFDUS_clean_linker_0, # of connection points: 2
#     Edge 62, Type (0, 0), BuildingBlock: CIFDUS_clean_linker_0, # of connection points: 2
#     Edge 63, Type (0, 0), BuildingBlock: CIFDUS_clean_linker_0, # of connection points: 2
#     Edge 64, Type (0, 0), BuildingBlock: CIFDUS_clean_linker_0, # of connection points: 2
#     Edge 65, Type (0, 0), BuildingBlock: CIFDUS_clean_linker_0, # of connection points: 2
#     Edge 66, Type (0, 0), BuildingBlock: CIFDUS_clean_linker_0, # of connection points: 2
#     Edge 67, Type (0, 0), BuildingBlock: CIFDUS_clean_linker_0, # of connection points: 2
#     Edge 68, Type (0, 0), BuildingBlock: CIFDUS_clean_linker_0, # of connection points: 2
#     Edge 69, Type (0, 0), BuildingBlock: CIFDUS_clean_linker_0, # of connection points: 2
#     Edge 70, Type (0, 0), BuildingBlock: CIFDUS_clean_linker_0, # of connection points: 2
#     Edge 71, Type (0, 0), BuildingBlock: CIFDUS_clean_linker_0, # of connection points: 2
#     Edge 72, Type (0, 0), BuildingBlock: CIFDUS_clean_linker_0, # of connection points: 2
#     Edge 73, Type (0, 0), BuildingBlock: CIFDUS_clean_linker_0, # of connection points: 2
#     Edge 74, Type (0, 0), BuildingBlock: CIFDUS_clean_linker_0, # of connection points: 2
#     Edge 75, Type (0, 0), BuildingBlock: CIFDUS_clean_linker_0, # of connection points: 2
#     Edge 76, Type (0, 0), BuildingBlock: CIFDUS_clean_linker_0, # of connection points: 2
#     Edge 77, Type (0, 0), BuildingBlock: CIFDUS_clean_linker_0, # of connection points: 2
#     Edge 78, Type (0, 0), BuildingBlock: CIFDUS_clean_linker_0, # of connection points: 2
#     Edge 79, Type (0, 0), BuildingBlock: CIFDUS_clean_linker_0, # of connection points: 2
#     Edge 80, Type (0, 0), BuildingBlock: CIFDUS_clean_linker_0, # of connection points: 2
#     Edge 81, Type (0, 0), BuildingBlock: CIFDUS_clean_linker_0, # of connection points: 2
#     Edge 82, Type (0, 0), BuildingBlock: CIFDUS_clean_linker_0, # of connection points: 2
#     Edge 83, Type (0, 0), BuildingBlock: CIFDUS_clean_linker_0, # of connection points: 2
#     Edge 84, Type (0, 0), BuildingBlock: CIFDUS_clean_linker_0, # of connection points: 2
#     Edge 85, Type (0, 0), BuildingBlock: CIFDUS_clean_linker_0, # of connection points: 2
#     Edge 86, Type (0, 0), BuildingBlock: CIFDUS_clean_linker_0, # of connection points: 2
#     Edge 87, Type (0, 0), BuildingBlock: CIFDUS_clean_linker_0, # of connection points: 2
#     Edge 88, Type (0, 0), BuildingBlock: CIFDUS_clean_linker_0, # of connection points: 2
#     Edge 89, Type (0, 0), BuildingBlock: CIFDUS_clean_linker_0, # of connection points: 2
#     Edge 90, Type (0, 0), BuildingBlock: CIFDUS_clean_linker_0, # of connection points: 2
#     Edge 91, Type (0, 0), BuildingBlock: CIFDUS_clean_linker_0, # of connection points: 2
#     Edge 92, Type (0, 0), BuildingBlock: CIFDUS_clean_linker_0, # of connection points: 2
#     Edge 93, Type (0, 0), BuildingBlock: CIFDUS_clean_linker_0, # of connection points: 2
#     Edge 94, Type (0, 0), BuildingBlock: CIFDUS_clean_linker_0, # of connection points: 2
#     Edge 95, Type (0, 0), BuildingBlock: CIFDUS_clean_linker_0, # of connection points: 2
#     Edge 96, Type (0, 0), BuildingBlock: CIFDUS_clean_linker_0, # of connection points: 2
#     Edge 97, Type (0, 0), BuildingBlock: CIFDUS_clean_linker_0, # of connection points: 2
#     Edge 98, Type (0, 0), BuildingBlock: CIFDUS_clean_linker_0, # of connection points: 2
#     Edge 99, Type (0, 0), BuildingBlock: CIFDUS_clean_linker_0, # of connection points: 2
#     Edge 100, Type (0, 0), BuildingBlock: CIFDUS_clean_linker_0, # of connection points: 2
#     Edge 101, Type (0, 0), BuildingBlock: CIFDUS_clean_linker_0, # of connection points: 2
#     Edge 102, Type (0, 0), BuildingBlock: CIFDUS_clean_linker_0, # of connection points: 2
#     Edge 103, Type (0, 0), BuildingBlock: CIFDUS_clean_linker_0, # of connection points: 2
#     Edge 104, Type (0, 0), BuildingBlock: CIFDUS_clean_linker_0, # of connection points: 2
#     Edge 105, Type (0, 0), BuildingBlock: CIFDUS_clean_linker_0, # of connection points: 2
#     Edge 106, Type (0, 0), BuildingBlock: CIFDUS_clean_linker_0, # of connection points: 2
#     Edge 107, Type (0, 0), BuildingBlock: CIFDUS_clean_linker_0, # of connection points: 2
# Relax obj value: 0.027
# Max RMSD: 0.173
# Mean RMSD: 0.173
data_MOF--net-uns--node1-MUDLON_clean_sbu_0--edge1-CIFDUS_clean_linker_0
_symmetry_space_group_name_H-M    P1
_symmetry_Int_Tables_number       1
_symmetry_cell_setting            triclinic
loop_
_symmetry_equiv_pos_as_xyz
'x, y, z'
_cell_length_a     51.606073
_cell_length_b     51.639339
_cell_length_c     50.462456
_cell_angle_alpha  89.88063
_cell_angle_beta   90.191769
_cell_angle_gamma 120.02936
loop_
_atom_site_label
_atom_site_type_symbol
_atom_site_fract_x
_atom_site_fract_y
_atom_site_fract_z
_atom_type_partial_charge
Mg0 Mg 0.29725 0.20201 0.06379 0.0
C1 C 0.35026 0.26369 0.07389 0.0
O2 O 0.35347 0.24967 0.09425 0.0
C3 C 0.27123 0.14859 0.02842 0.0
O4 O 0.24714 0.14558 0.04006 0.0
C5 C 0.30491 0.19649 0.12355 0.0
O6 O 0.29092 0.21178 0.12569 0.0
O7 O 0.30877 0.18867 0.10073 0.0
O8 O 0.33022 0.24872 0.05666 0.0
O9 O 0.25383 0.19944 0.06351 0.0
C10 C 0.25227 0.2232 0.06532 0.0
O11 O 0.27679 0.24863 0.07031 0.0
O12 O 0.29641 0.1715 0.03373 0.0
Mg13 Mg 0.8356 0.08809 0.07827 0.0
C14 C 0.84839 0.03837 0.06485 0.0
O15 O 0.8752 0.06153 0.06102 0.0
C16 C 0.84273 0.1292 0.12143 0.0
O17 O 0.83461 0.13936 0.10102 0.0
C18 C 0.87149 0.13756 0.03715 0.0
O19 O 0.84821 0.14146 0.03775 0.0
O20 O 0.8715 0.11732 0.05151 0.0
O21 O 0.8279 0.04276 0.0738 0.0
O22 O 0.79258 0.08437 0.07073 0.0
C23 C 0.77471 0.06649 0.05344 0.0
O24 O 0.7842 0.05316 0.0372 0.0
O25 O 0.84625 0.1067 0.11808 0.0
Mg26 Mg 0.93245 0.74148 0.06163 0.0
C27 C 0.99957 0.77861 0.05467 0.0
O28 O 0.99534 0.75174 0.0501 0.0
C29 C 0.87998 0.7278 0.09773 0.0
O30 O 0.86947 0.73245 0.07561 0.0
C31 C 0.88595 0.72925 0.01694 0.0
O32 O 0.87774 0.70099 0.02076 0.0
O33 O 0.90785 0.74922 0.03014 0.0
O34 O 0.97728 0.78127 0.06163 0.0
O35 O 0.93892 0.70298 0.05736 0.0
C36 C 0.94222 0.69223 0.07905 0.0
O37 O 0.93903 0.70321 0.10146 0.0
O38 O 0.90664 0.73244 0.09821 0.0
Mg39 Mg 0.20648 0.26797 0.45352 0.0
C40 C 0.23706 0.23152 0.46396 0.0
O41 O 0.26002 0.25859 0.46704 0.0
C42 C 0.19359 0.30134 0.41286 0.0
O43 O 0.20138 0.31881 0.43376 0.0
C44 C 0.17264 0.2821 0.49645 0.0
O45 O 0.19584 0.30929 0.49517 0.0
O46 O 0.17213 0.26168 0.48204 0.0
O47 O 0.21197 0.22852 0.4568 0.0
O48 O 0.25039 0.30721 0.4598 0.0
C49 C 0.26639 0.3163 0.43897 0.0
O50 O 0.25499 0.30219 0.41656 0.0
O51 O 0.19237 0.27614 0.41497 0.0
Mg52 Mg 0.75033 0.93544 0.45113 0.0
C53 C 0.79262 1.00191 0.45845 0.0
O54 O 0.76698 1.00151 0.45888 0.0
C55 C 0.71812 0.88619 0.41346 0.0
O56 O 0.70448 0.87507 0.43609 0.0
C57 C 0.77524 0.90978 0.49059 0.0
O58 O 0.80005 0.93367 0.48305 0.0
O59 O 0.75042 0.90516 0.48106 0.0
O60 O 0.79261 0.97766 0.4539 0.0
O61 O 0.71408 0.94474 0.45644 0.0
C62 C 0.70419 0.95044 0.43541 0.0
O63 O 0.71573 0.94947 0.41253 0.0
O64 O 0.7409 0.91239 0.4133 0.0
Mg65 Mg 0.09935 0.82282 0.45243 0.0
C66 C 0.08525 0.76487 0.42784 0.0
O67 O 0.08622 0.78093 0.40726 0.0
C68 C 0.12995 0.87299 0.4919 0.0
O69 O 0.10665 0.87563 0.48561 0.0
C70 C 0.14394 0.84139 0.41076 0.0
O71 O 0.15464 0.83277 0.43041 0.0
O72 O 0.11962 0.84158 0.41435 0.0
O73 O 0.09074 0.77685 0.45077 0.0
O74 O 0.05649 0.8202 0.46049 0.0
C75 C 0.03212 0.79554 0.45748 0.0
O76 O 0.03306 0.77269 0.4472 0.0
O77 O 0.13216 0.85151 0.48199 0.0
Mg78 Mg 0.75119 0.82563 0.96045 0.0
C79 C 0.78812 0.79501 0.95579 0.0
O80 O 0.76189 0.77287 0.94846 0.0
C81 C 0.73965 0.83041 0.90092 0.0
O82 O 0.74928 0.81138 0.89788 0.0
C83 C 0.78494 0.87927 0.99536 0.0
O84 O 0.80683 0.87845 0.98289 0.0
O85 O 0.75814 0.85877 0.9907 0.0
O86 O 0.79092 0.82064 0.95985 0.0
O87 O 0.71456 0.78063 0.96885 0.0
C88 C 0.69321 0.76687 0.9524 0.0
O89 O 0.69059 0.7817 0.93241 0.0
O90 O 0.73998 0.84059 0.92392 0.0
Mg91 Mg 0.20795 0.92721 0.95384 0.0
C92 C 0.26804 0.94448 0.93352 0.0
O93 O 0.25491 0.94948 0.9134 0.0
C94 C 0.15592 0.8982 0.99173 0.0
O95 O 0.15549 0.92278 0.98582 0.0
C96 C 0.19495 0.88573 0.91005 0.0
O97 O 0.20443 0.87525 0.92922 0.0
O98 O 0.19234 0.90853 0.9147 0.0
O99 O 0.25343 0.93445 0.95502 0.0
O100 O 0.20991 0.96995 0.96022 0.0
C101 C 0.23492 0.99408 0.96242 0.0
O102 O 0.25975 0.99329 0.9593 0.0
O103 O 0.17656 0.89441 0.98205 0.0
Mg104 Mg 0.09885 0.27669 0.96515 0.0
C105 C 0.03132 0.23895 0.96996 0.0
O106 O 0.03346 0.2638 0.96089 0.0
C107 C 0.14289 0.30484 0.92272 0.0
O108 O 0.15436 0.32337 0.94282 0.0
C109 C 0.12855 0.2524 1.00031 0.0
O110 O 0.10662 0.22755 0.99033 0.0
O111 O 0.13056 0.27717 0.99384 0.0
O112 O 0.055 0.23723 0.9722 0.0
O113 O 0.09326 0.31555 0.96872 0.0
C114 C 0.08824 0.32549 0.94737 0.0
O115 O 0.08765 0.31247 0.92486 0.0
O116 O 0.1183 0.28052 0.92612 0.0
Mg117 Mg 0.84103 0.7564 0.56898 0.0
C118 C 0.81209 0.79451 0.56196 0.0
O119 O 0.78797 0.76794 0.5625 0.0
C120 C 0.8537 0.72475 0.61103 0.0
O121 O 0.8455 0.70616 0.5909 0.0
C122 C 0.87387 0.74065 0.52621 0.0
O123 O 0.85056 0.71355 0.52771 0.0
O124 O 0.87469 0.76131 0.54044 0.0
O125 O 0.83751 0.79664 0.56564 0.0
O126 O 0.79629 0.71797 0.56353 0.0
C127 C 0.78064 0.70907 0.58458 0.0
O128 O 0.79284 0.72258 0.60702 0.0
O129 O 0.85541 0.74999 0.60769 0.0
Mg130 Mg 0.29603 0.08798 0.57456 0.0
C131 C 0.32823 0.06196 0.59885 0.0
O132 O 0.3051 0.05549 0.61401 0.0
C133 C 0.27389 0.11502 0.53403 0.0
O134 O 0.24872 0.09205 0.54225 0.0
C135 C 0.32542 0.1382 0.61129 0.0
O136 O 0.33987 0.1484 0.58885 0.0
O137 O 0.30261 0.112 0.61167 0.0
O138 O 0.33161 0.07697 0.57777 0.0
O139 O 0.25397 0.04555 0.56993 0.0
C140 C 0.25529 0.02408 0.55884 0.0
O141 O 0.28159 0.02807 0.55208 0.0
O142 O 0.29851 0.11848 0.54311 0.0
Mg143 Mg 0.94672 0.19863 0.57004 0.0
C144 C 1.01407 0.22637 0.56516 0.0
O145 O 1.01279 0.24943 0.57447 0.0
C146 C 0.90003 0.17957 0.60999 0.0
O147 O 0.89004 0.1879 0.58959 0.0
C148 C 0.9172 0.14926 0.53019 0.0
O149 O 0.9391 0.14526 0.53851 0.0
O150 O 0.91533 0.17125 0.53926 0.0
O151 O 0.98989 0.20139 0.56285 0.0
O152 O 0.95507 0.24434 0.57122 0.0
C153 C 0.95933 0.25624 0.59408 0.0
O154 O 0.95748 0.24025 0.615 0.0
O155 O 0.92461 0.1796 0.60756 0.0
Mg156 Mg 0.94748 0.52949 0.40663 0.0
C157 C 0.98943 0.58771 0.42925 0.0
O158 O 0.97093 0.57265 0.44856 0.0
C159 C 0.9245 0.48505 0.36113 0.0
O160 O 0.90436 0.49349 0.36031 0.0
C161 C 0.97827 0.51522 0.44713 0.0
O162 O 0.99669 0.52513 0.42688 0.0
O163 O 0.95245 0.51243 0.44448 0.0
O164 O 0.98575 0.57496 0.40683 0.0
O165 O 0.90719 0.53291 0.40221 0.0
C166 C 0.91031 0.55785 0.39463 0.0
O167 O 0.93744 0.5807 0.39159 0.0
O168 O 0.94646 0.49812 0.37714 0.0
Mg169 Mg 0.5029 0.43271 0.401 0.0
C170 C 0.47758 0.36557 0.39745 0.0
O171 O 0.45366 0.36563 0.40615 0.0
C172 C 0.51634 0.47561 0.44441 0.0
O173 O 0.50755 0.48652 0.42507 0.0
C174 C 0.55505 0.46215 0.36369 0.0
O175 O 0.55757 0.43941 0.37207 0.0
O176 O 0.53326 0.4649 0.37198 0.0
O177 O 0.50186 0.39037 0.39493 0.0
O178 O 0.45681 0.42307 0.39751 0.0
C179 C 0.44159 0.41666 0.41879 0.0
O180 O 0.45484 0.41788 0.4414 0.0
O181 O 0.51799 0.45221 0.44004 0.0
Mg182 Mg 0.5949 0.07909 0.4024 0.0
C183 C 0.66178 0.12192 0.39881 0.0
O184 O 0.66201 0.0972 0.40446 0.0
C185 C 0.54801 0.0469 0.44219 0.0
O186 O 0.536 0.03211 0.42017 0.0
C187 C 0.56649 0.10245 0.36433 0.0
O188 O 0.58954 0.12769 0.37237 0.0
O189 O 0.56327 0.07791 0.37315 0.0
O190 O 0.63686 0.12141 0.39833 0.0
O191 O 0.60522 0.04351 0.39679 0.0
C192 C 0.6107 0.03325 0.4177 0.0
O193 O 0.6085 0.04366 0.44079 0.0
O194 O 0.57364 0.07042 0.44105 0.0
Mg195 Mg 0.87417 0.61573 0.78757 0.0
C196 C 0.89923 0.57427 0.79535 0.0
O197 O 0.92413 0.59908 0.78983 0.0
C198 C 0.86184 0.64599 0.74468 0.0
O199 O 0.86982 0.66464 0.76475 0.0
C200 C 0.82174 0.59359 0.82433 0.0
O201 O 0.82044 0.56828 0.81805 0.0
O202 O 0.84309 0.61793 0.81522 0.0
O203 O 0.87454 0.57419 0.79436 0.0
O204 O 0.92004 0.65238 0.79149 0.0
C205 C 0.93532 0.66053 0.77022 0.0
O206 O 0.92233 0.64732 0.74789 0.0
O207 O 0.86009 0.62076 0.74827 0.0
Mg208 Mg 0.42102 0.25854 0.79162 0.0
C209 C 0.45902 0.32627 0.79489 0.0
O210 O 0.43235 0.32356 0.79396 0.0
C211 C 0.38737 0.20821 0.75467 0.0
O212 O 0.37468 0.19727 0.77766 0.0
C213 C 0.40874 0.21314 0.83674 0.0
O214 O 0.38173 0.20968 0.83672 0.0
O215 O 0.42824 0.23168 0.82079 0.0
O216 O 0.46128 0.30291 0.79239 0.0
O217 O 0.38359 0.2653 0.80023 0.0
C218 C 0.37048 0.26837 0.78006 0.0
O219 O 0.37874 0.26485 0.75639 0.0
O220 O 0.40989 0.23458 0.75393 0.0
Mg221 Mg 0.77197 0.16889 0.78511 0.0
C222 C 0.75493 0.1083 0.77421 0.0
O223 O 0.74428 0.11767 0.7551 0.0
C224 C 0.81462 0.23197 0.79634 0.0
O225 O 0.80657 0.23163 0.77156 0.0
C226 C 0.81128 0.17452 0.74116 0.0
O227 O 0.8231 0.16908 0.76204 0.0
O228 O 0.78821 0.17712 0.74436 0.0
O229 O 0.76913 0.12619 0.7931 0.0
O230 O 0.7265 0.16008 0.79145 0.0
C231 C 0.71887 0.15514 0.8157 0.0
O232 O 0.7389 0.15744 0.83313 0.0
O233 O 0.80332 0.20733 0.80893 0.0
Mg234 Mg 0.4041 0.15732 0.29217 0.0
C235 C 0.44638 0.13271 0.29327 0.0
O236 O 0.42092 0.10757 0.29039 0.0
C237 C 0.4001 0.16739 0.23261 0.0
O238 O 0.415 0.15305 0.23012 0.0
C239 C 0.4327 0.21103 0.32662 0.0
O240 O 0.45535 0.21386 0.31254 0.0
O241 O 0.40705 0.18803 0.32306 0.0
O242 O 0.44633 0.15733 0.29269 0.0
O243 O 0.36891 0.11105 0.29813 0.0
C244 C 0.35135 0.09655 0.2791 0.0
O245 O 0.35212 0.11088 0.25735 0.0
O246 O 0.39438 0.17303 0.25565 0.0
Mg247 Mg 0.86934 0.26529 0.29459 0.0
C248 C 0.92875 0.27707 0.27749 0.0
O249 O 0.91715 0.28085 0.25563 0.0
C250 C 0.81499 0.23867 0.32948 0.0
O251 O 0.81285 0.2606 0.31845 0.0
C252 C 0.85442 0.22114 0.25266 0.0
O253 O 0.86189 0.21043 0.27311 0.0
O254 O 0.85387 0.24536 0.25559 0.0
O255 O 0.91287 0.26875 0.29837 0.0
O256 O 0.87866 0.31116 0.30061 0.0
C257 C 0.89856 0.32507 0.31828 0.0
O258 O 0.90999 0.31068 0.33067 0.0
O259 O 0.83727 0.23556 0.32374 0.0
Mg260 Mg 0.77097 0.62167 0.28301 0.0
C261 C 0.70418 0.5806 0.28959 0.0
O262 O 0.705 0.60636 0.28753 0.0
C263 C 0.78392 0.637 0.22409 0.0
O264 O 0.75797 0.63597 0.22484 0.0
C265 C 0.79621 0.59624 0.32275 0.0
O266 O 0.77132 0.57169 0.3165 0.0
O267 O 0.80157 0.62088 0.3123 0.0
O268 O 0.72832 0.57989 0.28657 0.0
O269 O 0.76165 0.65762 0.29057 0.0
C270 C 0.77264 0.68166 0.27713 0.0
O271 O 0.79357 0.68736 0.25959 0.0
O272 O 0.79324 0.62999 0.24474 0.0
Mg273 Mg 0.50034 0.0763 0.90075 0.0
C274 C 0.46958 0.11301 0.90158 0.0
O275 O 0.44706 0.08702 0.90886 0.0
C276 C 0.50115 0.07209 0.96193 0.0
O277 O 0.48851 0.08875 0.96164 0.0
C278 C 0.56373 0.10303 0.89017 0.0
O279 O 0.56136 0.11175 0.91404 0.0
O280 O 0.53981 0.08612 0.87738 0.0
O281 O 0.49526 0.1156 0.89862 0.0
O282 O 0.4568 0.03912 0.88894 0.0
C283 C 0.44233 0.01816 0.90555 0.0
O284 O 0.45628 0.01652 0.92673 0.0
O285 O 0.50888 0.06552 0.94025 0.0
Mg286 Mg 0.96153 0.43363 0.90753 0.0
C287 C 1.00784 0.41994 0.92479 0.0
O288 O 0.99492 0.42008 0.94713 0.0
C289 C 0.93552 0.46093 0.87166 0.0
O290 O 0.91126 0.43947 0.88283 0.0
C291 C 0.98931 0.48213 0.94625 0.0
O292 O 1.00216 0.49461 0.92368 0.0
O293 O 0.96818 0.45501 0.94607 0.0
O294 O 0.99917 0.42636 0.9034 0.0
O295 O 0.92273 0.38935 0.90088 0.0
C296 C 0.92296 0.38088 0.87724 0.0
O297 O 0.94467 0.39927 0.86148 0.0
O298 O 0.96075 0.46378 0.87782 0.0
Mg299 Mg 0.60111 0.5338 0.89969 0.0
C300 C 0.66676 0.56111 0.88683 0.0
O301 O 0.66335 0.58439 0.88301 0.0
C302 C 0.55897 0.52127 0.94316 0.0
O303 O 0.54937 0.53198 0.92428 0.0
C304 C 0.57398 0.48165 0.86239 0.0
O305 O 0.59757 0.48071 0.87096 0.0
O306 O 0.56989 0.50272 0.87037 0.0
O307 O 0.64449 0.53668 0.89473 0.0
O308 O 0.60816 0.57908 0.89868 0.0
C309 C 0.61967 0.59361 0.91997 0.0
O310 O 0.62582 0.58032 0.9392 0.0
O311 O 0.58123 0.51777 0.93841 0.0
Mg312 Mg 0.63562 0.87547 0.73907 0.0
C313 C 0.69168 0.93553 0.74952 0.0
O314 O 0.69299 0.92172 0.7709 0.0
C315 C 0.60754 0.82148 0.70405 0.0
O316 O 0.58402 0.81846 0.71679 0.0
C317 C 0.64436 0.86918 0.79922 0.0
O318 O 0.63437 0.88791 0.80234 0.0
O319 O 0.64507 0.85985 0.77609 0.0
O320 O 0.67183 0.92085 0.73205 0.0
O321 O 0.59501 0.87871 0.73607 0.0
C322 C 0.59648 0.9038 0.73989 0.0
O323 O 0.62138 0.92609 0.74945 0.0
O324 O 0.63296 0.84436 0.70872 0.0
Mg325 Mg 0.1716 0.76024 0.7302 0.0
C326 C 0.14588 0.69333 0.7233 0.0
O327 O 0.12076 0.69354 0.72661 0.0
C328 C 0.18395 0.80273 0.7736 0.0
O329 O 0.1749 0.81336 0.75422 0.0
C330 C 0.22484 0.78958 0.69459 0.0
O331 O 0.22689 0.7668 0.70366 0.0
O332 O 0.20274 0.79238 0.70173 0.0
O333 O 0.1706 0.71784 0.72497 0.0
O334 O 0.12602 0.75181 0.72637 0.0
C335 C 0.11073 0.74452 0.74763 0.0
O336 O 0.12347 0.74332 0.76982 0.0
O337 O 0.18626 0.77971 0.76925 0.0
Mg338 Mg 0.27644 0.41104 0.74684 0.0
C339 C 0.34192 0.4502 0.73316 0.0
O340 O 0.33934 0.42368 0.73095 0.0
C341 C 0.23347 0.38023 0.78971 0.0
O342 O 0.22293 0.36129 0.76982 0.0
C343 C 0.2488 0.43354 0.70657 0.0
O344 O 0.27405 0.4585 0.71093 0.0
O345 O 0.24414 0.40976 0.71833 0.0
O346 O 0.31936 0.452 0.74077 0.0
O347 O 0.28346 0.37317 0.74285 0.0
C348 C 0.29196 0.36563 0.76372 0.0
O349 O 0.29539 0.38065 0.78568 0.0
O350 O 0.25684 0.40556 0.786 0.0
Mg351 Mg 0.54659 0.95838 0.12031 0.0
C352 C 0.54749 0.91067 0.15133 0.0
O353 O 0.54468 0.92744 0.1693 0.0
C354 C 0.52524 0.98575 0.08232 0.0
O355 O 0.53025 1.00132 0.10421 0.0
C356 C 0.49207 0.93599 0.15203 0.0
O357 O 0.48736 0.91322 0.13707 0.0
O358 O 0.51704 0.96023 0.15012 0.0
O359 O 0.54855 0.91761 0.12699 0.0
O360 O 0.59303 0.99402 0.11907 0.0
C361 C 0.60487 0.99371 0.09706 0.0
O362 O 0.58814 0.97353 0.07936 0.0
O363 O 0.52886 0.96311 0.08269 0.0
Mg364 Mg 0.07807 0.5952 0.12952 0.0
C365 C 0.10949 0.65652 0.15026 0.0
O366 O 0.08354 0.64342 0.16245 0.0
C367 C 0.05141 0.54645 0.09101 0.0
O368 O 0.03842 0.534 0.11355 0.0
C369 C 0.1083 0.57498 0.16953 0.0
O370 O 0.13056 0.60185 0.16407 0.0
O371 O 0.08282 0.56653 0.15898 0.0
O372 O 0.115 0.64127 0.13375 0.0
O373 O 0.038 0.59932 0.13161 0.0
C374 C 0.03238 0.60833 0.10996 0.0
O375 O 0.04951 0.61232 0.08937 0.0
O376 O 0.07234 0.57366 0.0912 0.0
Mg377 Mg 0.43449 0.49677 0.12387 0.0
C378 C 0.41538 0.43633 0.10466 0.0
O379 O 0.40849 0.44881 0.08523 0.0
C380 C 0.46526 0.54853 0.16177 0.0
O381 O 0.44068 0.54943 0.15696 0.0
C382 C 0.47481 0.50792 0.07946 0.0
O383 O 0.48499 0.49791 0.09845 0.0
O384 O 0.4526 0.51145 0.0844 0.0
O385 O 0.42722 0.45152 0.12557 0.0
O386 O 0.392 0.49523 0.13099 0.0
C387 C 0.36967 0.47099 0.13913 0.0
O388 O 0.3725 0.44723 0.1419 0.0
O389 O 0.46829 0.52775 0.15143 0.0
Mg390 Mg 0.0927 0.49128 0.61706 0.0
C391 C 0.13091 0.46573 0.6332 0.0
O392 O 0.1039 0.44347 0.63815 0.0
C393 C 0.06227 0.50617 0.57691 0.0
O394 O 0.04355 0.4953 0.59691 0.0
C395 C 0.1145 0.54148 0.65514 0.0
O396 O 0.13949 0.54495 0.64506 0.0
O397 O 0.08982 0.51907 0.64785 0.0
O398 O 0.13372 0.48954 0.62294 0.0
O399 O 0.05595 0.44541 0.61528 0.0
C400 C 0.05331 0.43331 0.59272 0.0
O401 O 0.07192 0.44924 0.57377 0.0
O402 O 0.08827 0.50943 0.57966 0.0
Mg403 Mg 0.54383 0.60248 0.62449 0.0
C404 C 0.605 0.61883 0.60626 0.0
O405 O 0.59196 0.61921 0.58399 0.0
C406 C 0.49191 0.57178 0.66207 0.0
O407 O 0.48995 0.5954 0.65562 0.0
C408 C 0.53072 0.56051 0.58062 0.0
O409 O 0.53942 0.54946 0.59993 0.0
O410 O 0.52897 0.58383 0.58514 0.0
O411 O 0.58982 0.61169 0.62759 0.0
O412 O 0.54436 0.64441 0.63174 0.0
C413 C 0.56885 0.66926 0.63151 0.0
O414 O 0.59355 0.66963 0.62463 0.0
O415 O 0.5133 0.56909 0.65261 0.0
Mg416 Mg 0.44679 0.94962 0.62675 0.0
C417 C 0.37925 0.90911 0.629 0.0
O418 O 0.38021 0.93477 0.62537 0.0
C419 C 0.45079 0.9538 0.56687 0.0
O420 O 0.42152 0.94015 0.56909 0.0
C421 C 0.47351 0.91829 0.65448 0.0
O422 O 0.45402 0.89831 0.638 0.0
O423 O 0.47621 0.94421 0.65486 0.0
O424 O 0.40359 0.90847 0.62882 0.0
O425 O 0.43717 0.98565 0.63364 0.0
C426 C 0.44759 1.00804 0.61803 0.0
O427 O 0.46888 1.01223 0.60142 0.0
O428 O 0.46665 0.95852 0.58756 0.0
Mg429 Mg 0.16393 0.41566 0.24356 0.0
C430 C 0.17179 0.48031 0.24238 0.0
O431 O 0.19729 0.48941 0.25488 0.0
C432 C 0.17752 0.38473 0.28518 0.0
O433 O 0.1708 0.3675 0.26418 0.0
C434 C 0.21682 0.44047 0.20548 0.0
O435 O 0.21749 0.46568 0.21082 0.0
O436 O 0.19625 0.41627 0.21552 0.0
O437 O 0.15549 0.45274 0.23674 0.0
O438 O 0.11996 0.37663 0.23833 0.0
C439 C 0.10388 0.36766 0.25908 0.0
O440 O 0.11525 0.38156 0.28157 0.0
O441 O 0.17786 0.4095 0.28291 0.0
Mg442 Mg 0.62857 0.77055 0.23106 0.0
C443 C 0.67283 0.75558 0.24838 0.0
O444 O 0.65531 0.75094 0.26881 0.0
C445 C 0.59838 0.79835 0.20514 0.0
O446 O 0.58055 0.78204 0.2244 0.0
C447 C 0.65923 0.82016 0.26856 0.0
O448 O 0.67285 0.83141 0.24595 0.0
O449 O 0.63688 0.79371 0.26875 0.0
O450 O 0.66739 0.76497 0.2269 0.0
O451 O 0.58837 0.7264 0.22986 0.0
C452 C 0.59027 0.70413 0.22159 0.0
O453 O 0.61673 0.708 0.21565 0.0
O454 O 0.62269 0.79815 0.20175 0.0
Mg455 Mg 0.27156 0.86413 0.23274 0.0
C456 C 0.33889 0.89443 0.22361 0.0
O457 O 0.33663 0.91853 0.22596 0.0
C458 C 0.22981 0.85176 0.27625 0.0
O459 O 0.21854 0.85943 0.25636 0.0
C460 C 0.24777 0.81534 0.19083 0.0
O461 O 0.27626 0.8234 0.1898 0.0
O462 O 0.23965 0.82978 0.20584 0.0
O463 O 0.31565 0.86887 0.22679 0.0
O464 O 0.27601 0.9083 0.22938 0.0
C465 C 0.28552 0.9236 0.25061 0.0
O466 O 0.29159 0.91173 0.27106 0.0
O467 O 0.25325 0.85003 0.27227 0.0
H468 H 0.34408 0.1758 0.12383 0.0
H469 H 0.29939 0.20741 0.17565 0.0
H470 H 0.32589 0.20235 0.21375 0.0
H471 H 0.36165 0.189 0.23226 0.0
H472 H 0.40641 0.15749 0.18041 0.0
H473 H 0.38018 0.16289 0.14229 0.0
C474 C 0.33995 0.18142 0.14347 0.0
C475 C 0.31963 0.19184 0.14687 0.0
C476 C 0.35549 0.17877 0.16523 0.0
C477 C 0.31481 0.19925 0.17245 0.0
C478 C 0.33003 0.19646 0.19424 0.0
C479 C 0.36588 0.1835 0.21262 0.0
C480 C 0.38604 0.17288 0.20924 0.0
C481 C 0.3505 0.18636 0.19083 0.0
C482 C 0.39108 0.16576 0.18361 0.0
C483 C 0.37599 0.16872 0.16181 0.0
H484 H 0.83504 0.17606 0.13406 0.0
H485 H 0.85826 0.11362 0.16831 0.0
H486 H 0.863 0.13612 0.21192 0.0
H487 H 0.86076 0.1735 0.24018 0.0
H488 H 0.83805 0.2363 0.20596 0.0
H489 H 0.83268 0.21342 0.1624 0.0
C490 C 0.84119 0.16734 0.15103 0.0
C491 C 0.84633 0.14316 0.14786 0.0
C492 C 0.84382 0.18035 0.17604 0.0
C493 C 0.85423 0.13221 0.17013 0.0
C494 C 0.85689 0.14504 0.19509 0.0
C495 C 0.85448 0.18215 0.22326 0.0
C496 C 0.84974 0.20658 0.22639 0.0
C497 C 0.85171 0.16907 0.19827 0.0
C498 C 0.84177 0.21752 0.20416 0.0
C499 C 0.83876 0.20447 0.17923 0.0
H500 H 0.77598 0.66488 0.18155 0.0
H501 H 0.83853 0.6418 0.21584 0.0
H502 H 0.87433 0.66906 0.18063 0.0
H503 H 0.88819 0.69992 0.14026 0.0
H504 H 0.82536 0.72253 0.10585 0.0
H505 H 0.78964 0.69535 0.14112 0.0
C506 C 0.79732 0.66554 0.18122 0.0
C507 C 0.80444 0.65118 0.20132 0.0
C508 C 0.81798 0.68154 0.16105 0.0
C509 C 0.83235 0.65254 0.20061 0.0
C510 C 0.85295 0.66827 0.18053 0.0
C511 C 0.86681 0.69918 0.14062 0.0
C512 C 0.85958 0.71344 0.1205 0.0
C513 C 0.84611 0.68307 0.16076 0.0
C514 C 0.83159 0.71186 0.12112 0.0
C515 C 0.81106 0.6962 0.14123 0.0
H516 H 0.19792 0.3551 0.40249 0.0
H517 H 0.17866 0.27219 0.36508 0.0
H518 H 0.17257 0.29104 0.3224 0.0
H519 H 0.17301 0.33102 0.29574 0.0
H520 H 0.1921 0.41393 0.33303 0.0
H521 H 0.19816 0.3951 0.37579 0.0
C522 C 0.19229 0.34105 0.38504 0.0
C523 C 0.18871 0.31218 0.38706 0.0
C524 C 0.18896 0.35209 0.36054 0.0
C525 C 0.18148 0.29441 0.36417 0.0
C526 C 0.17806 0.30522 0.33973 0.0
C527 C 0.1786 0.3451 0.31317 0.0
C528 C 0.18218 0.37395 0.3111 0.0
C529 C 0.18185 0.33405 0.33768 0.0
C530 C 0.18929 0.39171 0.33399 0.0
C531 C 0.19269 0.38091 0.35846 0.0
H532 H 0.64529 0.79947 0.31927 0.0
H533 H 0.70252 0.87861 0.27373 0.0
H534 H 0.72656 0.90574 0.3143 0.0
H535 H 0.73178 0.90701 0.36277 0.0
H536 H 0.67452 0.82788 0.40831 0.0
H537 H 0.65037 0.80079 0.36775 0.0
C538 C 0.66284 0.82272 0.31824 0.0
C539 C 0.672 0.83696 0.29348 0.0
C540 C 0.67684 0.83817 0.34166 0.0
C541 C 0.69498 0.86706 0.29251 0.0
C542 C 0.70884 0.88261 0.31571 0.0
C543 C 0.71419 0.88377 0.3638 0.0
C544 C 0.70509 0.8695 0.38855 0.0
C545 C 0.70012 0.86835 0.34039 0.0
C546 C 0.68203 0.83944 0.38953 0.0
C547 C 0.66811 0.82391 0.36634 0.0
H548 H 0.19104 0.83498 0.39639 0.0
H549 H 0.12758 0.85863 0.36526 0.0
H550 H 0.14839 0.86343 0.32087 0.0
H551 H 0.18386 0.85996 0.29092 0.0
H552 H 0.24708 0.83597 0.32204 0.0
H553 H 0.22679 0.83196 0.36653 0.0
C554 C 0.18184 0.84139 0.37996 0.0
C555 C 0.15778 0.84649 0.38419 0.0
C556 C 0.19366 0.84376 0.35449 0.0
C557 C 0.14611 0.85465 0.3626 0.0
C558 C 0.15793 0.85728 0.3372 0.0
C559 C 0.19318 0.85374 0.30739 0.0
C560 C 0.2169 0.84815 0.3031 0.0
C561 C 0.18154 0.85165 0.3329 0.0
C562 C 0.22876 0.84028 0.32473 0.0
C563 C 0.21723 0.83808 0.35019 0.0
H564 H 0.67599 0.83991 0.79712 0.0
H565 H 0.64688 0.88471 0.8514 0.0
H566 H 0.67461 0.87762 0.88731 0.0
H567 H 0.70758 0.85925 0.90321 0.0
H568 H 0.73666 0.81448 0.84887 0.0
H569 H 0.70875 0.82139 0.81303 0.0
C570 C 0.67547 0.84795 0.81684 0.0
C571 C 0.65922 0.86276 0.82151 0.0
C572 C 0.69176 0.84411 0.83735 0.0
C573 C 0.65907 0.87316 0.8472 0.0
C574 C 0.67505 0.86923 0.86775 0.0
C575 C 0.70803 0.85118 0.88349 0.0
C576 C 0.72437 0.83647 0.87877 0.0
C577 C 0.69165 0.85493 0.86301 0.0
C578 C 0.72441 0.82596 0.85311 0.0
C579 C 0.70834 0.8298 0.83259 0.0
H580 H 0.2043 0.84103 0.89388 0.0
H581 H 0.17578 0.9018 0.86557 0.0
H582 H 0.17058 0.88186 0.82075 0.0
H583 H 0.17444 0.84745 0.78968 0.0
H584 H 0.20301 0.78675 0.81811 0.0
H585 H 0.20814 0.80667 0.86289 0.0
C586 C 0.19681 0.84987 0.87796 0.0
C587 C 0.19036 0.87284 0.88311 0.0
C588 C 0.19409 0.83848 0.85226 0.0
C589 C 0.18081 0.88407 0.86219 0.0
C590 C 0.17792 0.87274 0.83654 0.0
C591 C 0.18193 0.83863 0.80563 0.0
C592 C 0.1884 0.81567 0.80051 0.0
C593 C 0.18462 0.85004 0.83134 0.0
C594 C 0.19793 0.80445 0.82146 0.0
C595 C 0.2008 0.81578 0.84709 0.0
H596 H 0.19089 0.3581 0.90893 0.0
H597 H 0.1262 0.27214 0.87679 0.0
H598 H 0.1483 0.28821 0.83279 0.0
H599 H 0.18569 0.32672 0.80352 0.0
H600 H 0.25013 0.41278 0.83568 0.0
H601 H 0.22818 0.3966 0.87968 0.0
C602 C 0.18165 0.34277 0.89236 0.0
C603 C 0.15694 0.31388 0.89622 0.0
C604 C 0.19429 0.35224 0.86711 0.0
C605 C 0.14523 0.29444 0.87443 0.0
C606 C 0.15782 0.30365 0.84925 0.0
C607 C 0.19492 0.34203 0.82011 0.0
C608 C 0.21953 0.37098 0.81624 0.0
C609 C 0.18227 0.33253 0.84536 0.0
C610 C 0.23119 0.39042 0.83803 0.0
C611 C 0.21868 0.38115 0.86322 0.0
H612 H 0.84533 0.67023 0.62488 0.0
H613 H 0.87046 0.75715 0.65701 0.0
H614 H 0.87444 0.74005 0.70121 0.0
H615 H 0.87042 0.70046 0.73067 0.0
H616 H 0.84535 0.61352 0.69866 0.0
H617 H 0.84144 0.63061 0.65438 0.0
C618 C 0.85183 0.68553 0.6415 0.0
C619 C 0.85765 0.71498 0.6376 0.0
C620 C 0.85386 0.67549 0.66688 0.0
C621 C 0.86591 0.73441 0.65942 0.0
C622 C 0.86811 0.72462 0.68472 0.0
C623 C 0.86397 0.68515 0.71406 0.0
C624 C 0.8581 0.6557 0.71801 0.0
C625 C 0.862 0.69518 0.68868 0.0
C626 C 0.84991 0.63626 0.6962 0.0
C627 C 0.84776 0.64605 0.67087 0.0
H628 H 0.3991 0.22793 0.70348 0.0
H629 H 0.34382 0.14971 0.75079 0.0
H630 H 0.31857 0.12157 0.71098 0.0
H631 H 0.31225 0.11887 0.66252 0.0
H632 H 0.36771 0.19705 0.61523 0.0
H633 H 0.3924 0.22541 0.65511 0.0
C634 C 0.38168 0.20468 0.70506 0.0
C635 C 0.37352 0.19098 0.73011 0.0
C636 C 0.36699 0.1886 0.68205 0.0
C637 C 0.35065 0.16087 0.73178 0.0
C638 C 0.33608 0.14472 0.709 0.0
C639 C 0.32949 0.1422 0.66098 0.0
C640 C 0.33803 0.15578 0.6359 0.0
C641 C 0.34397 0.15837 0.68402 0.0
C642 C 0.36067 0.18598 0.63427 0.0
C643 C 0.37492 0.20225 0.65707 0.0
H644 H 0.85172 0.18511 0.62176 0.0
H645 H 0.91531 0.16405 0.65704 0.0
H646 H 0.89324 0.16057 0.70063 0.0
H647 H 0.85707 0.16512 0.7288 0.0
H648 H 0.79387 0.18678 0.69361 0.0
H649 H 0.81485 0.18861 0.6498 0.0
C650 C 0.86066 0.17951 0.63892 0.0
C651 C 0.88518 0.17484 0.63609 0.0
C652 C 0.84812 0.17794 0.66394 0.0
C653 C 0.89645 0.16771 0.65861 0.0
C654 C 0.88391 0.16583 0.68356 0.0
C655 C 0.84785 0.17029 0.71158 0.0
C656 C 0.82399 0.17596 0.71454 0.0
C657 C 0.85997 0.17123 0.68648 0.0
C658 C 0.81227 0.18243 0.69194 0.0
C659 C 0.82423 0.18342 0.66688 0.0
H660 H 0.0342 0.52659 0.45947 0.0
H661 H 0.94659 0.49466 0.49329 0.0
H662 H 0.96533 0.49005 0.53658 0.0
H663 H 1.00649 0.49525 0.56467 0.0
H664 H 0.0941 0.52719 0.53087 0.0
H665 H 0.07541 0.53199 0.48761 0.0
C666 C 1.0191 0.51847 0.47625 0.0
C667 C 0.98897 0.51087 0.4731 0.0
C668 C 0.03007 0.51614 0.50108 0.0
C669 C 0.96983 0.50056 0.49513 0.0
C670 C 0.98056 0.49802 0.5199 0.0
C671 C 0.0216 0.50343 0.54791 0.0
C672 C 0.0517 0.51092 0.55104 0.0
C673 C 1.01065 0.50586 0.5231 0.0
C674 C 0.07088 0.52136 0.52904 0.0
C675 C 0.06017 0.524 0.50428 0.0
H676 H 0.50889 0.52167 0.46036 0.0
H677 H 0.5346 0.45885 0.48899 0.0
H678 H 0.54064 0.47925 0.53369 0.0
H679 H 0.53832 0.51461 0.56458 0.0
H680 H 0.51263 0.57745 0.53601 0.0
H681 H 0.50664 0.5571 0.49128 0.0
C682 C 0.51595 0.51249 0.47633 0.0
C683 C 0.52134 0.48878 0.47129 0.0
C684 C 0.51918 0.52418 0.502 0.0
C685 C 0.53035 0.47712 0.49228 0.0
C686 C 0.53374 0.48873 0.51786 0.0
C687 C 0.53129 0.52382 0.54863 0.0
C688 C 0.52586 0.5475 0.55369 0.0
C689 C 0.52809 0.51216 0.52295 0.0
C690 C 0.51689 0.5592 0.5327 0.0
C691 C 0.51354 0.54762 0.5071 0.0
H692 H 0.49197 1.00026 0.45028 0.0
H693 H 0.57165 0.06431 0.49198 0.0
H694 H 0.54904 0.04025 0.5341 0.0
H695 H 0.50692 1.00057 0.55899 0.0
H696 H 0.42664 0.93771 0.51739 0.0
H697 H 0.4494 0.96156 0.47523 0.0
C698 C 0.50437 1.00908 0.46858 0.0
C699 C 0.53349 0.03406 0.46794 0.0
C700 C 0.49126 0.99514 0.4927 0.0
C701 C 0.54916 0.04523 0.49189 0.0
C702 C 0.53631 0.03137 0.51597 0.0
C703 C 0.49451 0.99191 0.54067 0.0
C704 C 0.46524 0.96718 0.54127 0.0
C705 C 0.50748 1.00616 0.51659 0.0
C706 C 0.44924 0.95661 0.51742 0.0
C707 C 0.46221 0.97029 0.49334 0.0
H708 H 0.51114 0.02551 0.96741 0.0
H709 H 0.49769 0.08868 1.01263 0.0
H710 H 0.5027 0.06655 0.05386 0.0
H711 H 0.51193 0.03006 0.07691 0.0
H712 H 0.52452 0.96632 0.03171 0.0
H713 H 0.5184 0.98772 0.9905 0.0
C714 C 0.50942 0.03455 0.98628 0.0
C715 C 0.50434 0.05893 0.98695 0.0
C716 C 0.51195 0.0215 1.00985 0.0
C717 C 0.5017 0.07002 1.01157 0.0
C718 C 0.50453 0.05736 0.03513 0.0
C719 C 0.51318 0.0207 0.05806 0.0
C720 C 0.51879 0.99668 0.0574 0.0
C721 C 0.50975 0.03317 0.03449 0.0
C722 C 0.52014 0.98473 0.03279 0.0
C723 C 0.5168 0.99707 1.00922 0.0
H724 H 0.98034 0.45939 0.99641 0.0
H725 H 0.02765 0.54181 0.95232 0.0
H726 H 0.05222 0.5688 0.99281 0.0
H727 H 0.0606 0.56913 0.04083 0.0
H728 H 1.0133 0.48671 0.08493 0.0
H729 H 0.98882 0.45969 0.04443 0.0
C730 C 0.99578 0.4833 0.99571 0.0
C731 C 1.002 0.49854 0.97137 0.0
C732 C 1.01019 0.4987 0.01907 0.0
C733 C 0.02239 0.52949 0.97079 0.0
C734 C 0.03657 0.54498 0.99394 0.0
C735 C 0.04519 0.5452 0.04153 0.0
C736 C 0.03892 0.52999 0.06588 0.0
C737 C 0.03083 0.52979 0.01817 0.0
C738 C 1.01859 0.49902 0.06645 0.0
C739 C 1.00446 0.48352 0.0433 0.0
H740 H 0.51477 0.5314 0.95961 0.0
H741 H 0.57341 0.49978 0.98704 0.0
H742 H 0.55277 0.49339 0.03165 0.0
H743 H 0.51852 0.49722 0.06282 0.0
H744 H 0.45988 0.52886 0.03546 0.0
H745 H 0.48033 0.53501 0.99076 0.0
C746 C 0.52299 0.52298 0.97528 0.0
C747 C 0.5456 0.51603 0.96994 0.0
C748 C 0.51118 0.51956 1.0009 0.0
C749 C 0.556 0.50524 0.99056 0.0
C750 C 0.54426 0.50166 0.0161 0.0
C751 C 0.51023 0.50557 0.04713 0.0
C752 C 0.48773 0.51266 0.05253 0.0
C753 C 0.52195 0.50888 0.0215 0.0
C754 C 0.47722 0.52331 0.03189 0.0
C755 C 0.48886 0.52677 1.00632 0.0
H756 H 0.2845 0.04885 0.96859 0.0
H757 H 0.1883 1.00219 0.97654 0.0
H758 H 0.19104 0.04682 0.99582 0.0
H759 H 0.22094 0.09764 0.01354 0.0
H760 H 0.31719 0.14405 1.00632 0.0
H761 H 0.31414 0.10099 0.9834 0.0
C762 C 0.26407 0.04848 0.9743 0.0
C763 C 0.23625 0.02206 0.97134 0.0
C764 C 0.26582 0.07413 0.98563 0.0
C765 C 0.21003 0.02213 0.97867 0.0
C766 C 0.21157 0.04764 0.98978 0.0
C767 C 0.24127 0.0985 1.00676 0.0
C768 C 0.26928 0.12397 1.0119 0.0
C769 C 0.23939 0.07355 0.99384 0.0
C770 C 0.29534 0.12472 1.00274 0.0
C771 C 0.29363 0.10005 0.98969 0.0
H772 H 0.97801 0.23775 0.9705 0.0
H773 H 1.01952 0.18648 0.9939 0.0
H774 H 0.97328 0.14991 0.01571 0.0
H775 H 0.92212 0.13415 0.03046 0.0
H776 H 0.88098 0.18591 1.00751 0.0
H777 H 0.92604 0.22055 0.98319 0.0
C778 C 0.97692 0.21844 0.98014 0.0
C779 C 1.00235 0.21502 0.98065 0.0
C780 C 0.95037 0.19767 0.99292 0.0
C781 C 1.00038 0.18976 0.9932 0.0
C782 C 0.97395 0.16886 1.00578 0.0
C783 C 0.92291 0.15291 0.02004 0.0
C784 C 0.8982 0.15749 0.02103 0.0
C785 C 0.94898 0.17287 1.00615 0.0
C786 C 0.89963 0.18185 1.00721 0.0
C787 C 0.92543 0.20172 0.99329 0.0
H788 H 0.89359 0.78499 1.00898 0.0
H789 H 0.83629 0.69232 0.98762 0.0
H790 H 0.80253 0.7051 0.96455 0.0
H791 H 0.78697 0.74172 0.9538 0.0
H792 H 0.84347 0.83417 0.97622 0.0
H793 H 0.87995 0.82233 0.99518 0.0
C794 C 0.87391 0.76759 0.99903 0.0
C795 C 0.86742 0.73764 1.0003 0.0
C796 C 0.85433 0.77504 0.98605 0.0
C797 C 0.84183 0.7155 0.98715 0.0
C798 C 0.82244 0.72279 0.97396 0.0
C799 C 0.80744 0.75942 0.9625 0.0
C800 C 0.81227 0.78879 0.96372 0.0
C801 C 0.82811 0.75237 0.97379 0.0
C802 C 0.83904 0.81137 0.97503 0.0
C803 C 0.8599 0.80458 0.98599 0.0
H804 H 0.06822 0.27753 0.56493 0.0
H805 H 0.02422 0.18509 0.54033 0.0
H806 H 0.06991 0.19387 0.51806 0.0
H807 H 0.12128 0.22853 0.50315 0.0
H808 H 0.16479 0.32114 0.52723 0.0
H809 H 0.12036 0.31145 0.55214 0.0
C810 C 0.06864 0.25917 0.55493 0.0
C811 C 0.04267 0.2307 0.55422 0.0
C812 C 0.09487 0.26445 0.54188 0.0
C813 C 0.04379 0.20723 0.5412 0.0
C814 C 0.06991 0.21226 0.52836 0.0
C815 C 0.12116 0.24659 0.51398 0.0
C816 C 0.14637 0.27561 0.51311 0.0
C817 C 0.09542 0.24091 0.52817 0.0
C818 C 0.14576 0.29863 0.52741 0.0
C819 C 0.12031 0.29311 0.54167 0.0
H820 H 0.76161 0.7961 0.54969 0.0
H821 H 0.85769 0.85201 0.55448 0.0
H822 H 0.8544 0.89348 0.53469 0.0
H823 H 0.82471 0.91237 0.51253 0.0
H824 H 0.72877 0.85589 0.50671 0.0
H825 H 0.7316 0.81622 0.53058 0.0
C826 C 0.78185 0.81745 0.54671 0.0
C827 C 0.80989 0.8208 0.55334 0.0
C828 C 0.77984 0.84105 0.53495 0.0
C829 C 0.83582 0.84871 0.54946 0.0
C830 C 0.83397 0.87244 0.53805 0.0
C831 C 0.80436 0.8915 0.51669 0.0
C832 C 0.7766 0.88705 0.50758 0.0
C833 C 0.80617 0.86862 0.53016 0.0
C834 C 0.75046 0.85991 0.51335 0.0
C835 C 0.75205 0.83716 0.52696 0.0
H836 H 0.25141 0.97237 0.542 0.0
H837 H 0.1974 1.01278 0.55807 0.0
H838 H 0.15327 0.9685 0.54046 0.0
H839 H 0.13098 0.92004 0.51734 0.0
H840 H 0.18532 0.87993 0.50129 0.0
H841 H 0.22828 0.92229 0.52227 0.0
C842 C 0.22994 0.97144 0.54188 0.0
C843 C 0.22781 0.99603 0.55112 0.0
C844 C 0.20473 0.946 0.53161 0.0
C845 C 0.19972 0.99423 0.55107 0.0
C846 C 0.17448 0.96894 0.54089 0.0
C847 C 0.15213 0.92038 0.51865 0.0
C848 C 0.15492 0.89689 0.50749 0.0
C849 C 0.17686 0.94495 0.53063 0.0
C850 C 0.18248 0.89767 0.50961 0.0
C851 C 0.20712 0.92197 0.52154 0.0
H852 H 0.83961 0.925 1.0095 0.0
H853 H 0.74518 0.89225 0.0195 0.0
H854 H 0.75651 0.93762 0.04392 0.0
H855 H 0.79327 0.98829 0.05948 0.0
H856 H 0.88757 0.02101 0.04825 0.0
H857 H 0.87618 0.97387 0.02748 0.0
C858 C 0.82144 0.9276 0.01719 0.0
C859 C 0.79156 0.90528 1.01245 0.0
C860 C 0.8281 0.95385 0.03095 0.0
C861 C 0.76838 0.90905 0.02276 0.0
C862 C 0.77485 0.93506 0.03669 0.0
C863 C 0.81136 0.98497 0.05284 0.0
C864 C 0.84126 1.00832 0.05532 0.0
C865 C 0.80463 0.95786 0.04049 0.0
C866 C 0.86437 1.00356 0.0465 0.0
C867 C 0.85788 0.97659 0.03455 0.0
H868 H 0.10946 0.90003 0.0154 0.0
H869 H 0.14554 0.84169 1.00184 0.0
H870 H 0.10135 0.80023 0.02223 0.0
H871 H 0.05084 0.77957 0.04057 0.0
H872 H 1.01423 0.83754 0.05355 0.0
H873 H 0.06044 0.88016 0.03702 0.0
C874 C 0.10784 0.87833 0.01712 0.0
C875 C 0.13075 0.87398 1.00683 0.0
C876 C 0.0822 0.85446 0.02868 0.0
C877 C 0.12828 0.84572 1.00946 0.0
C878 C 0.10294 0.82194 0.02108 0.0
C879 C 0.05302 0.80157 0.04007 0.0
C880 C 0.02889 0.80522 0.04808 0.0
C881 C 0.07951 0.8259 0.03025 0.0
C882 C 0.03233 0.834 0.04747 0.0
C883 C 0.05874 0.85838 0.0379 0.0
H884 H 0.13161 0.20345 0.01562 0.0
H885 H 0.17861 0.29977 0.0217 0.0
H886 H 0.2198 0.29888 0.0448 0.0
H887 H 0.24425 0.27116 0.0599 0.0
H888 H 0.19792 0.17496 0.05254 0.0
H889 H 0.15455 0.17544 0.03363 0.0
C890 C 0.15071 0.22426 0.02221 0.0
C891 C 0.15209 0.25166 0.01668 0.0
C892 C 0.17451 0.22362 0.0352 0.0
C893 C 0.17698 0.27837 0.02553 0.0
C894 C 0.2006 0.27788 0.03873 0.0
C895 C 0.22453 0.25022 0.05452 0.0
C896 C 0.22449 0.22308 0.05746 0.0
C897 C 0.19987 0.2507 0.04318 0.0
C898 C 0.19867 0.1962 0.0504 0.0
C899 C 0.17386 0.19645 0.03949 0.0
H900 H 0.92541 0.79389 0.51966 0.0
H901 H 0.8812 0.70139 0.49518 0.0
H902 H 0.92554 0.71087 0.47017 0.0
H903 H 0.97779 0.74459 0.45747 0.0
H904 H 0.0224 0.83684 0.48272 0.0
H905 H 0.9768 0.82827 0.50498 0.0
C906 C 0.92534 0.7758 0.50872 0.0
C907 C 0.9 0.74688 0.5095 0.0
C908 C 0.95101 0.78134 0.49454 0.0
C909 C 0.90036 0.72381 0.49506 0.0
C910 C 0.92575 0.72921 0.48076 0.0
C911 C 0.97752 0.76295 0.46761 0.0
C912 C 1.00362 0.7913 0.46851 0.0
C913 C 0.95135 0.75777 0.48067 0.0
C914 C 1.00272 0.81478 0.48172 0.0
C915 C 0.97666 0.80988 0.49454 0.0
H916 H 0.28762 0.2309 0.47854 0.0
H917 H 0.1924 0.17302 0.46829 0.0
H918 H 0.19594 0.13128 0.48718 0.0
H919 H 0.22531 0.11235 0.50997 0.0
H920 H 0.32043 0.17037 0.52074 0.0
H921 H 0.31767 0.2108 0.49805 0.0
C922 C 0.26764 0.20909 0.48015 0.0
C923 C 0.23971 0.20526 0.4722 0.0
C924 C 0.2698 0.18522 0.49127 0.0
C925 C 0.21416 0.17671 0.47428 0.0
C926 C 0.21616 0.15282 0.48519 0.0
C927 C 0.24554 0.13373 0.50713 0.0
C928 C 0.27302 0.13833 0.51731 0.0
C929 C 0.24375 0.15699 0.49428 0.0
C930 C 0.29898 0.16615 0.5132 0.0
C931 C 0.2974 0.18935 0.5003 0.0
H932 H 0.79934 0.05618 0.47089 0.0
H933 H 0.84832 1.00878 0.46587 0.0
H934 H 0.89207 0.05135 0.48574 0.0
H935 H 0.91487 0.10013 0.50805 0.0
H936 H 0.86546 0.14703 0.51392 0.0
H937 H 0.82355 0.10661 0.49003 0.0
C938 C 0.81968 0.05524 0.47383 0.0
C939 C 0.82038 0.02914 0.46709 0.0
C940 C 0.84465 0.07965 0.48561 0.0
C941 C 0.84705 0.02849 0.47092 0.0
C942 C 0.87208 0.05281 0.4824 0.0
C943 C 0.89507 0.1017 0.50389 0.0
C944 C 0.89326 0.1265 0.51303 0.0
C945 C 0.87089 0.07821 0.49038 0.0
C946 C 0.86747 0.12819 0.50725 0.0
C947 C 0.84343 0.10502 0.49363 0.0
H948 H 0.95445 0.45449 0.36694 0.0
H949 H 0.8812 0.45303 0.32415 0.0
H950 H 0.86753 0.40409 0.30565 0.0
H951 H 0.87407 0.35977 0.30434 0.0
H952 H 0.94658 0.36143 0.34871 0.0
H953 H 0.96268 0.41196 0.36371 0.0
C954 C 0.93575 0.44372 0.35326 0.0
C955 C 0.91885 0.45744 0.34708 0.0
C956 C 0.9276 0.4153 0.34314 0.0
C957 C 0.8946 0.44299 0.32936 0.0
C958 C 0.88667 0.4149 0.31883 0.0
C959 C 0.89353 0.37132 0.3171 0.0
C960 C 0.90887 0.35661 0.32554 0.0
C961 C 0.90261 0.40052 0.32602 0.0
C962 C 0.93409 0.37197 0.34207 0.0
C963 C 0.94342 0.40098 0.35067 0.0
H964 H 0.60381 0.46232 0.34309 0.0
H965 H 0.55962 0.5145 0.34613 0.0
H966 H 0.6008 0.5547 0.32145 0.0
H967 H 0.65089 0.57645 0.30184 0.0
H968 H 0.69559 0.5247 0.29973 0.0
H969 H 0.65248 0.48281 0.32095 0.0
C970 C 0.60302 0.48237 0.3382 0.0
C971 C 0.5787 0.48543 0.34668 0.0
C972 C 0.62692 0.50553 0.3242 0.0
C973 C 0.57806 0.51154 0.33997 0.0
C974 C 0.60165 0.53458 0.32587 0.0
C975 C 0.65112 0.5559 0.30572 0.0
C976 C 0.67661 0.55387 0.29931 0.0
C977 C 0.62642 0.53203 0.31829 0.0
C978 C 0.67637 0.52698 0.30446 0.0
C979 C 0.65174 0.50302 0.3167 0.0
H980 H 0.56602 0.15109 0.3441 0.0
H981 H 0.51447 0.05461 0.34632 0.0
H982 H 0.47395 0.0555 0.322 0.0
H983 H 0.45149 0.08372 0.3035 0.0
H984 H 0.50237 0.18026 0.30261 0.0
H985 H 0.54495 0.1792 0.32269 0.0
C986 C 0.54605 0.13021 0.33907 0.0
C987 C 0.54322 0.10283 0.34728 0.0
C988 C 0.52266 0.13089 0.32536 0.0
C989 C 0.51723 0.07602 0.3404 0.0
C990 C 0.494 0.0765 0.32651 0.0
C991 C 0.47201 0.10456 0.30734 0.0
C992 C 0.47358 0.13204 0.30173 0.0
C993 C 0.49622 0.10382 0.31937 0.0
C994 C 0.50044 0.15878 0.30681 0.0
C995 C 0.52479 0.15821 0.3184 0.0
H996 H 0.71884 0.61056 0.87286 0.0
H997 H 0.67884 0.51523 0.88401 0.0
H998 H 0.72427 0.51732 0.86741 0.0
H999 H 0.7738 0.5456 0.84668 0.0
H1000 H 0.81348 0.64086 0.83512 0.0
H1001 H 0.76977 0.63939 0.85516 0.0
C1002 C 0.7201 0.59024 0.87187 0.0
C1003 C 0.69532 0.56273 0.87944 0.0
C1004 C 0.7462 0.59157 0.86213 0.0
C1005 C 0.69751 0.5367 0.87826 0.0
C1006 C 0.72347 0.53786 0.86868 0.0
C1007 C 0.77305 0.56612 0.84875 0.0
C1008 C 0.79682 0.59326 0.83915 0.0
C1009 C 0.74772 0.56508 0.86009 0.0
C1010 C 0.79551 0.61964 0.84222 0.0
C1011 C 0.77046 0.61881 0.85362 0.0
H1012 H 0.46338 0.21863 0.84506 0.0
H1013 H 0.37021 0.16429 0.86607 0.0
H1014 H 0.38134 0.12986 0.89009 0.0
H1015 H 0.41681 0.11308 0.90206 0.0
H1016 H 0.5099 0.16734 0.88062 0.0
H1017 H 0.4995 0.20404 0.86015 0.0
C1018 C 0.4455 0.19938 0.85505 0.0
C1019 C 0.41593 0.1939 0.85348 0.0
C1020 C 0.45203 0.1796 0.86873 0.0
C1021 C 0.39315 0.16902 0.86683 0.0
C1022 C 0.39949 0.14926 0.88054 0.0
C1023 C 0.43493 0.13311 0.89322 0.0
C1024 C 0.46405 0.13723 0.89268 0.0
C1025 C 0.42875 0.15402 0.88118 0.0
C1026 C 0.48725 0.16346 0.88125 0.0
C1027 C 0.48131 0.18444 0.86943 0.0
H1028 H 0.91366 0.36287 0.82635 0.0
H1029 H 0.88093 0.33188 0.9053 0.0
H1030 H 0.84505 0.2823 0.88758 0.0
H1031 H 0.8231 0.24771 0.84908 0.0
H1032 H 0.85598 0.28109 0.77055 0.0
H1033 H 0.89185 0.32963 0.78875 0.0
C1034 C 0.89873 0.34534 0.8398 0.0
C1035 C 0.90008 0.35108 0.86714 0.0
C1036 C 0.87824 0.31719 0.8295 0.0
C1037 C 0.88031 0.32808 0.88415 0.0
C1038 C 0.85988 0.29971 0.87402 0.0
C1039 C 0.83828 0.2656 0.83606 0.0
C1040 C 0.8369 0.26074 0.80848 0.0
C1041 C 0.8587 0.29394 0.84668 0.0
C1042 C 0.85646 0.28423 0.79181 0.0
C1043 C 0.87703 0.31204 0.80219 0.0
H1044 H 0.48451 0.26221 0.33777 0.0
H1045 H 0.38993 0.21545 0.35508 0.0
H1046 H 0.39608 0.25839 0.38056 0.0
H1047 H 0.42759 0.31052 0.39493 0.0
H1048 H 0.52192 0.3576 0.37648 0.0
H1049 H 0.51656 0.31303 0.35466 0.0
C1050 C 0.46523 0.26125 0.34728 0.0
C1051 C 0.43674 0.23571 0.34428 0.0
C1052 C 0.46887 0.28613 0.36163 0.0
C1053 C 0.4121 0.23484 0.35695 0.0
C1054 C 0.41559 0.25943 0.37149 0.0
C1055 C 0.44708 0.31098 0.38642 0.0
C1056 C 0.47509 0.33752 0.38719 0.0
C1057 C 0.44377 0.2854 0.37352 0.0
C1058 C 0.50008 0.33758 0.37611 0.0
C1059 C 0.49702 0.31211 0.36354 0.0
H1060 H 0.71693 0.12793 0.39335 0.0
H1061 H 0.6689 0.17571 0.38243 0.0
H1062 H 0.71291 0.21702 0.36163 0.0
H1063 H 0.7636 0.23776 0.34345 0.0
H1064 H 0.81102 0.18923 0.3534 0.0
H1065 H 0.76867 0.15012 0.37777 0.0
C1066 C 0.71613 0.14751 0.38672 0.0
C1067 C 0.68951 0.14856 0.38931 0.0
C1068 C 0.74136 0.17098 0.37439 0.0
C1069 C 0.68902 0.17421 0.38064 0.0
C1070 C 0.71417 0.19783 0.36865 0.0
C1071 C 0.76482 0.21878 0.35114 0.0
C1072 C 0.79042 0.21637 0.34637 0.0
C1073 C 0.74024 0.19617 0.36492 0.0
C1074 C 0.79159 0.19164 0.35663 0.0
C1075 C 0.76735 0.16921 0.37056 0.0
H1076 H 0.91013 0.60843 0.3805 0.0
H1077 H 0.85196 0.5131 0.38894 0.0
H1078 H 0.81071 0.517 0.36919 0.0
H1079 H 0.79253 0.54689 0.34612 0.0
H1080 H 0.85135 0.64208 0.337 0.0
H1081 H 0.89093 0.63876 0.36058 0.0
C1082 C 0.88836 0.5885 0.37828 0.0
C1083 C 0.88425 0.56046 0.38596 0.0
C1084 C 0.86491 0.59085 0.36661 0.0
C1085 C 0.85579 0.53495 0.38316 0.0
C1086 C 0.83222 0.53715 0.37175 0.0
C1087 C 0.8139 0.56698 0.3495 0.0
C1088 C 0.81902 0.59465 0.33952 0.0
C1089 C 0.83672 0.56489 0.36286 0.0
C1090 C 0.84681 0.62046 0.34428 0.0
C1091 C 0.86951 0.61859 0.35774 0.0
H1092 H 0.58093 0.10617 0.83809 0.0
H1093 H 0.61454 0.12183 0.9184 0.0
H1094 H 0.665 0.13956 0.90236 0.0
H1095 H 0.69983 0.15096 0.86605 0.0
H1096 H 0.66826 0.13727 0.78524 0.0
H1097 H 0.61697 0.1188 0.80088 0.0
C1098 C 0.59933 0.11332 0.852 0.0
C1099 C 0.5939 0.1126 0.87942 0.0
C1100 C 0.62872 0.12408 0.84258 0.0
C1101 C 0.61802 0.12224 0.8972 0.0
C1102 C 0.64696 0.13241 0.88807 0.0
C1103 C 0.6818 0.14399 0.85176 0.0
C1104 C 0.68792 0.14545 0.82451 0.0
C1105 C 0.65259 0.13354 0.86086 0.0
C1106 C 0.66421 0.13648 0.80635 0.0
C1107 C 0.63485 0.1258 0.8153 0.0
H1108 H 0.88519 0.46068 0.85513 0.0
H1109 H 0.98148 0.51035 0.84823 0.0
H1110 H 0.97843 0.54854 0.82202 0.0
H1111 H 0.94876 0.56956 0.80385 0.0
H1112 H 0.85255 0.52052 0.81167 0.0
H1113 H 0.85528 0.4802 0.83448 0.0
C1114 C 0.90553 0.47973 0.84774 0.0
C1115 C 0.93355 0.48274 0.85386 0.0
C1116 C 0.90364 0.50177 0.83289 0.0
C1117 C 0.95963 0.5075 0.84394 0.0
C1118 C 0.95791 0.5294 0.82897 0.0
C1119 C 0.92832 0.54992 0.81026 0.0
C1120 C 0.9005 0.54822 0.8062 0.0
C1121 C 0.93008 0.52702 0.82372 0.0
C1122 C 0.87427 0.52251 0.81459 0.0
C1123 C 0.87582 0.49946 0.82773 0.0
H1124 H 0.57667 0.43406 0.84259 0.0
H1125 H 0.51968 0.473 0.84554 0.0
H1126 H 0.48006 0.42939 0.82269 0.0
H1127 H 0.46022 0.37859 0.80514 0.0
H1128 H 0.51679 0.33913 0.80317 0.0
H1129 H 0.55805 0.38474 0.82208 0.0
C1130 C 0.5557 0.43319 0.83804 0.0
C1131 C 0.55112 0.45673 0.84603 0.0
C1132 C 0.53287 0.40788 0.82513 0.0
C1133 C 0.52383 0.45522 0.83975 0.0
C1134 C 0.50111 0.43022 0.82672 0.0
C1135 C 0.48166 0.38003 0.80853 0.0
C1136 C 0.48524 0.35527 0.80291 0.0
C1137 C 0.50517 0.40617 0.81979 0.0
C1138 C 0.5133 0.35772 0.80736 0.0
C1139 C 0.5369 0.38379 0.81828 0.0
H1140 H 0.61814 0.72446 0.63662 0.0
H1141 H 0.52286 0.67574 0.65072 0.0
H1142 H 0.52625 0.71935 0.67284 0.0
H1143 H 0.55674 0.76992 0.69103 0.0
H1144 H 0.65216 0.81825 0.67776 0.0
H1145 H 0.64814 0.7762 0.65234 0.0
C1146 C 0.59803 0.72343 0.64427 0.0
C1147 C 0.57031 0.69672 0.64215 0.0
C1148 C 0.60018 0.74847 0.65729 0.0
C1149 C 0.54451 0.69592 0.65212 0.0
C1150 C 0.54643 0.72084 0.66486 0.0
C1151 C 0.57666 0.77141 0.6824 0.0
C1152 C 0.60476 0.79717 0.68653 0.0
C1153 C 0.57424 0.74702 0.66801 0.0
C1154 C 0.63027 0.7987 0.67503 0.0
C1155 C 0.628 0.77461 0.66051 0.0
H1156 H 0.27463 0.7898 0.67688 0.0
H1157 H 0.23064 0.84224 0.67636 0.0
H1158 H 0.27364 0.8829 0.65382 0.0
H1159 H 0.32522 0.90502 0.63746 0.0
H1160 H 0.36956 0.8529 0.63914 0.0
H1161 H 0.32476 0.81058 0.65778 0.0
C1162 C 0.27427 0.81 0.67165 0.0
C1163 C 0.2495 0.81302 0.67855 0.0
C1164 C 0.2992 0.83342 0.65896 0.0
C1165 C 0.24943 0.83932 0.67141 0.0
C1166 C 0.27406 0.86263 0.65856 0.0
C1167 C 0.32501 0.8843 0.64158 0.0
C1168 C 0.35087 0.88229 0.63707 0.0
C1169 C 0.2993 0.86015 0.6527 0.0
C1170 C 0.35008 0.85518 0.6425 0.0
C1171 C 0.32447 0.83095 0.65324 0.0
H1172 H 0.25121 0.48063 0.67984 0.0
H1173 H 0.19253 0.38694 0.69688 0.0
H1174 H 0.15161 0.38833 0.67388 0.0
H1175 H 0.13151 0.41678 0.65183 0.0
H1176 H 0.18959 0.51061 0.63517 0.0
H1177 H 0.23181 0.50839 0.65488 0.0
C1178 C 0.22955 0.46043 0.67833 0.0
C1179 C 0.22493 0.43378 0.69032 0.0
C1180 C 0.20598 0.46142 0.66522 0.0
C1181 C 0.19674 0.4078 0.68799 0.0
C1182 C 0.17327 0.40857 0.67486 0.0
C1183 C 0.15345 0.43674 0.65228 0.0
C1184 C 0.1573 0.46389 0.64225 0.0
C1185 C 0.17749 0.43537 0.66386 0.0
C1186 C 0.18597 0.48943 0.64279 0.0
C1187 C 0.2101 0.4882 0.65416 0.0
H1188 H 0.39259 0.9453 0.21653 0.0
H1189 H 0.34867 0.84926 0.2084 0.0
H1190 H 0.39313 0.85379 0.1871 0.0
H1191 H 0.44274 0.88506 0.16763 0.0
H1192 H 0.48697 0.98106 0.17549 0.0
H1193 H 0.44414 0.97646 0.20026 0.0
C1194 C 0.39282 0.92532 0.21036 0.0
C1195 C 0.36715 0.89699 0.21384 0.0
C1196 C 0.41843 0.92809 0.19793 0.0
C1197 C 0.36801 0.87135 0.20592 0.0
C1198 C 0.39341 0.87392 0.19363 0.0
C1199 C 0.44314 0.90501 0.17491 0.0
C1200 C 0.46786 0.9334 0.16946 0.0
C1201 C 0.41846 0.90218 0.18902 0.0
C1202 C 0.46819 0.95896 0.17937 0.0
C1203 C 0.44366 0.95634 0.19345 0.0
H1204 H 0.11842 0.46852 0.22075 0.0
H1205 H 0.20572 0.5414 0.24209 0.0
H1206 H 0.19311 0.57714 0.22282 0.0
H1207 H 0.15846 0.58752 0.19757 0.0
H1208 H 0.07104 0.51473 0.17644 0.0
H1209 H 0.08248 0.47927 0.19816 0.0
C1210 C 0.13466 0.49224 0.22136 0.0
C1211 C 0.16312 0.50217 0.23271 0.0
C1212 C 0.12726 0.51273 0.21021 0.0
C1213 C 0.1837 0.53305 0.23348 0.0
C1214 C 0.17652 0.55354 0.22239 0.0
C1215 C 0.14177 0.56393 0.19789 0.0
C1216 C 0.11397 0.55386 0.18518 0.0
C1217 C 0.14854 0.54361 0.21035 0.0
C1218 C 0.0926 0.52319 0.18602 0.0
C1219 C 0.09918 0.50284 0.19836 0.0
H1220 H 0.58737 0.65221 0.20671 0.0
H1221 H 0.53184 0.69101 0.22262 0.0
H1222 H 0.48776 0.6452 0.20738 0.0
H1223 H 0.46577 0.59584 0.18609 0.0
H1224 H 0.52161 0.55747 0.16974 0.0
H1225 H 0.56469 0.60134 0.18882 0.0
C1226 C 0.56559 0.65059 0.2071 0.0
C1227 C 0.56301 0.67518 0.21555 0.0
C1228 C 0.54039 0.6243 0.19809 0.0
C1229 C 0.53454 0.67251 0.21615 0.0
C1230 C 0.50931 0.64633 0.20735 0.0
C1231 C 0.48729 0.5969 0.18693 0.0
C1232 C 0.49046 0.57346 0.17622 0.0
C1233 C 0.51208 0.62235 0.19773 0.0
C1234 C 0.51849 0.57518 0.17771 0.0
C1235 C 0.5432 0.60033 0.18856 0.0
H1236 H 0.0968 0.63868 0.7147 0.0
H1237 H 0.19338 0.68569 0.71182 0.0
H1238 H 0.19205 0.64175 0.69249 0.0
H1239 H 0.16353 0.59166 0.67311 0.0
H1240 H 0.06694 0.54499 0.67486 0.0
H1241 H 0.06829 0.58708 0.69818 0.0
C1242 C 0.1176 0.63925 0.71012 0.0
C1243 C 0.14515 0.6656 0.71451 0.0
C1244 C 0.11668 0.61402 0.69867 0.0
C1245 C 0.17185 0.66581 0.70856 0.0
C1246 C 0.17112 0.64069 0.69743 0.0
C1247 C 0.14273 0.59051 0.6788 0.0
C1248 C 0.11516 0.56528 0.672 0.0
C1249 C 0.14366 0.61493 0.69188 0.0
C1250 C 0.08847 0.56415 0.67974 0.0
C1251 C 0.08922 0.58827 0.69301 0.0
H1252 H 0.39372 0.45339 0.71723 0.0
H1253 H 0.35238 0.50749 0.72811 0.0
H1254 H 0.39605 0.5504 0.70854 0.0
H1255 H 0.44438 0.57152 0.68559 0.0
H1256 H 0.48535 0.51713 0.67426 0.0
H1257 H 0.44345 0.47545 0.69691 0.0
C1258 C 0.39432 0.47462 0.71556 0.0
C1259 C 0.36964 0.47709 0.72397 0.0
C1260 C 0.41939 0.49913 0.70406 0.0
C1261 C 0.37098 0.50488 0.72178 0.0
C1262 C 0.39593 0.52943 0.71049 0.0
C1263 C 0.4443 0.55064 0.68824 0.0
C1264 C 0.46793 0.54745 0.67801 0.0
C1265 C 0.42002 0.52665 0.70113 0.0
C1266 C 0.46748 0.52025 0.68183 0.0
C1267 C 0.44347 0.49634 0.69474 0.0
H1268 H 0.547 0.86608 0.71102 0.0
H1269 H 0.59329 0.95491 0.7444 0.0
H1270 H 0.55875 0.96708 0.72195 0.0
H1271 H 0.5174 0.95369 0.69016 0.0
H1272 H 0.47193 0.86488 0.65656 0.0
H1273 H 0.50402 0.85174 0.68166 0.0
C1274 C 0.54931 0.88797 0.71372 0.0
C1275 C 0.57287 0.90954 0.72932 0.0
C1276 C 0.52964 0.89504 0.7004 0.0
C1277 C 0.57546 0.93782 0.73248 0.0
C1278 C 0.55576 0.94489 0.71953 0.0
C1279 C 0.5144 0.93142 0.68846 0.0
C1280 C 0.49237 0.91046 0.67125 0.0
C1281 C 0.53311 0.92389 0.70298 0.0
C1282 C 0.48877 0.88163 0.66946 0.0
C1283 C 0.50713 0.874 0.68386 0.0
H1284 H 0.26489 0.48838 0.18289 0.0
H1285 H 0.2245 0.393 0.19421 0.0
H1286 H 0.26745 0.39392 0.17321 0.0
H1287 H 0.31778 0.42212 0.15433 0.0
H1288 H 0.35869 0.51755 0.14333 0.0
H1289 H 0.3141 0.51619 0.16132 0.0
C1290 C 0.26532 0.46773 0.18056 0.0
C1291 C 0.24154 0.4407 0.19034 0.0
C1292 C 0.29026 0.46843 0.16863 0.0
C1293 C 0.24249 0.41416 0.18699 0.0
C1294 C 0.2671 0.41466 0.17502 0.0
C1295 C 0.31692 0.44263 0.15567 0.0
C1296 C 0.34169 0.46994 0.14767 0.0
C1297 C 0.29132 0.44173 0.1662 0.0
C1298 C 0.34001 0.49623 0.14938 0.0
C1299 C 0.31453 0.49548 0.15974 0.0
H1300 H 0.58707 0.89384 0.13445 0.0
H1301 H 0.51432 0.87065 0.18873 0.0
H1302 H 0.5222 0.83201 0.20863 0.0
H1303 H 0.55217 0.80795 0.21321 0.0
H1304 H 0.62777 0.83309 0.16181 0.0
H1305 H 0.61647 0.86781 0.13814 0.0
C1306 C 0.57265 0.87983 0.15026 0.0
C1307 C 0.55002 0.8848 0.16007 0.0
C1308 C 0.5781 0.85837 0.16235 0.0
C1309 C 0.53181 0.86707 0.1809 0.0
C1310 C 0.53638 0.84509 0.19233 0.0
C1311 C 0.5661 0.82079 0.19668 0.0
C1312 C 0.59087 0.818 0.18938 0.0
C1313 C 0.55988 0.84105 0.18365 0.0
C1314 C 0.60864 0.8349 0.16792 0.0
C1315 C 0.60217 0.85475 0.15439 0.0
H1316 H 0.18715 0.7871 0.19573 0.0
H1317 H 0.25764 0.78011 0.15663 0.0
H1318 H 0.22104 0.73109 0.13911 0.0
H1319 H 0.16917 0.68841 0.1375 0.0
H1320 H 0.09946 0.69562 0.17796 0.0
H1321 H 0.13547 0.74609 0.19214 0.0
C1322 C 0.19452 0.77507 0.1831 0.0
C1323 C 0.22516 0.7873 0.17765 0.0
C1324 C 0.17344 0.74665 0.17346 0.0
C1325 C 0.23421 0.77125 0.16127 0.0
C1326 C 0.21328 0.74312 0.15127 0.0
C1327 C 0.16186 0.70116 0.14919 0.0
C1328 C 0.13165 0.68805 0.15679 0.0
C1329 C 0.18287 0.73031 0.15765 0.0
C1330 C 0.12258 0.70493 0.17199 0.0
C1331 C 0.14317 0.73391 0.18013 0.0
H1332 H 0.38309 0.30159 0.11361 0.0
H1333 H 0.35107 0.30006 0.03413 0.0
H1334 H 0.37008 0.35383 0.03631 0.0
H1335 H 0.39215 0.40025 0.06188 0.0
H1336 H 0.42261 0.40174 0.14195 0.0
H1337 H 0.40782 0.34886 0.13839 0.0
C1338 C 0.38065 0.31306 0.09659 0.0
C1339 C 0.36555 0.29676 0.07376 0.0
C1340 C 0.39103 0.34387 0.0982 0.0
C1341 C 0.36252 0.31202 0.05195 0.0
C1342 C 0.37328 0.34276 0.05323 0.0
C1343 C 0.39572 0.38911 0.07856 0.0
C1344 C 0.40822 0.40487 0.10225 0.0
C1345 C 0.38694 0.35873 0.07645 0.0
C1346 C 0.41289 0.3901 0.12354 0.0
C1347 C 0.40444 0.35987 0.12151 0.0
H1348 H 0.63431 0.99697 0.05183 0.0
H1349 H 0.64805 0.03516 0.13017 0.0
H1350 H 0.70204 0.06413 0.12215 0.0
H1351 H 0.74541 0.0748 0.09439 0.0
H1352 H 0.73121 0.03411 0.01708 0.0
H1353 H 0.67712 1.01017 0.0231 0.0
C1354 C 0.64902 1.0118 0.06714 0.0
C1355 C 0.63716 1.01364 0.0917 0.0
C1356 C 0.67993 0.02789 0.06256 0.0
C1357 C 0.65659 0.03319 0.11116 0.0
C1358 C 0.68746 0.04972 0.10658 0.0
C1359 C 0.73051 0.06113 0.07864 0.0
C1360 C 0.74235 0.05612 0.05533 0.0
C1361 C 0.69941 0.04673 0.08256 0.0
C1362 C 0.72269 0.03822 0.03523 0.0
C1363 C 0.69176 0.02444 0.0387 0.0
H1364 H 0.94969 0.66491 0.12207 0.0
H1365 H 0.96206 0.67308 0.03726 0.0
H1366 H 0.98863 0.64503 0.0393 0.0
H1367 H 1.01262 0.62282 0.06562 0.0
H1368 H 1.00157 0.61589 0.15056 0.0
H1369 H 0.96988 0.63862 0.14796 0.0
C1370 C 0.95786 0.66027 0.10395 0.0
C1371 C 0.95416 0.6714 0.07956 0.0
C1372 C 0.97352 0.64454 0.10533 0.0
C1373 C 0.96465 0.66488 0.05629 0.0
C1374 C 0.97998 0.64895 0.05746 0.0
C1375 C 1.00304 0.62596 0.08358 0.0
C1376 C 1.00976 0.61798 0.10831 0.0
C1377 C 0.98522 0.6394 0.08195 0.0
C1378 C 0.99684 0.62189 0.1313 0.0
C1379 C 0.97882 0.63501 0.12982 0.0
H1380 H 0.30308 0.34355 0.39735 0.0
H1381 H 0.30147 0.34168 0.48287 0.0
H1382 H 0.35567 0.37539 0.48402 0.0
H1383 H 0.40379 0.40113 0.46069 0.0
H1384 H 0.4053 0.40176 0.37512 0.0
H1385 H 0.35068 0.373 0.37408 0.0
C1386 C 0.31451 0.35073 0.41628 0.0
C1387 C 0.29831 0.3398 0.44 0.0
C1388 C 0.34564 0.36975 0.41677 0.0
C1389 C 0.31341 0.34966 0.46433 0.0
C1390 C 0.34442 0.36884 0.46499 0.0
C1391 C 0.3922 0.39531 0.44178 0.0
C1392 C 0.40866 0.40328 0.41801 0.0
C1393 C 0.36082 0.37838 0.44132 0.0
C1394 C 0.39323 0.3958 0.39371 0.0
C1395 C 0.36199 0.37925 0.39309 0.0
H1396 H 0.62509 1.0089 0.4588 0.0
H1397 H 0.62536 1.01298 0.37331 0.0
H1398 H 0.6523 0.98532 0.37138 0.0
H1399 H 0.67943 0.96398 0.39402 0.0
H1400 H 0.68044 0.96132 0.47954 0.0
H1401 H 0.64907 0.98432 0.48136 0.0
C1402 C 0.63075 1.00351 0.4397 0.0
C1403 C 0.6235 1.01328 0.41624 0.0
C1404 C 0.64662 0.98804 0.43875 0.0
C1405 C 0.63079 1.00584 0.39168 0.0
C1406 C 0.64628 0.99012 0.39056 0.0
C1407 C 0.67259 0.96817 0.41308 0.0
C1408 C 0.68255 0.96124 0.43662 0.0
C1409 C 0.6549 0.98174 0.41398 0.0
C1410 C 0.67323 0.96657 0.46113 0.0
C1411 C 0.65535 0.97979 0.46218 0.0
H1412 H 0.06574 0.72169 0.46597 0.0
H1413 H 0.07811 0.73515 0.3815 0.0
H1414 H 0.05205 0.68123 0.37442 0.0
H1415 H 0.02114 0.63019 0.39184 0.0
H1416 H 1.00754 0.617 0.47624 0.0
H1417 H 0.03879 0.67058 0.48365 0.0
C1418 C 0.06319 0.71283 0.44606 0.0
C1419 C 0.07358 0.73243 0.42432 0.0
C1420 C 0.04766 0.68172 0.44205 0.0
C1421 C 0.07006 0.72056 0.39862 0.0
C1422 C 0.0551 0.68968 0.39451 0.0
C1423 C 0.02543 0.63901 0.41185 0.0
C1424 C 1.01174 0.61965 0.43338 0.0
C1425 C 0.04308 0.67003 0.41601 0.0
C1426 C 1.01752 0.63144 0.45924 0.0
C1427 C 0.0354 0.66213 0.46354 0.0
H1428 H 0.64378 0.62872 0.96321 0.0
H1429 H 0.61409 0.62993 0.88337 0.0
H1430 H 0.63133 0.68334 0.88761 0.0
H1431 H 0.65836 0.73026 0.91275 0.0
H1432 H 0.68992 0.72902 0.99185 0.0
H1433 H 0.66796 0.67482 0.98922 0.0
C1434 C 0.64086 0.64055 0.94674 0.0
C1435 C 0.6279 0.62537 0.9229 0.0
C1436 C 0.65114 0.67124 0.9492 0.0
C1437 C 0.62413 0.64108 0.90188 0.0
C1438 C 0.634 0.67163 0.9043 0.0
C1439 C 0.66001 0.71811 0.92962 0.0
C1440 C 0.67587 0.73374 0.95246 0.0
C1441 C 0.648 0.68703 0.92771 0.0
C1442 C 0.6779 0.71759 0.97403 0.0
C1443 C 0.66547 0.68661 0.9725 0.0
H1444 H 0.30428 0.96817 0.89084 0.0
H1445 H 0.30351 0.93941 0.97139 0.0
H1446 H 0.35703 0.95663 0.96853 0.0
H1447 H 0.40453 0.98337 0.94442 0.0
H1448 H 0.40556 0.01438 0.86468 0.0
H1449 H 0.3512 0.99224 0.86586 0.0
C1450 C 0.3157 0.96543 0.90776 0.0
C1451 C 0.29991 0.95272 0.9314 0.0
C1452 C 0.3465 0.97575 0.9061 0.0
C1453 C 0.31512 0.94924 0.95302 0.0
C1454 C 0.34573 0.95909 0.95139 0.0
C1455 C 0.39287 0.98489 0.92709 0.0
C1456 C 0.40919 1.00063 0.90449 0.0
C1457 C 0.36173 0.97285 0.92819 0.0
C1458 C 0.39362 1.00244 0.88232 0.0
C1459 C 0.36254 0.98991 0.88304 0.0
H1460 H 0.0786 0.35216 0.90518 0.0
H1461 H 0.07688 0.34996 0.99073 0.0
H1462 H 0.05472 0.38211 0.99113 0.0
H1463 H 0.03104 0.40615 0.96716 0.0
H1464 H 0.03124 0.40695 0.88159 0.0
H1465 H 0.05922 0.3803 0.88127 0.0
C1466 C 0.0737 0.35897 0.92395 0.0
C1467 C 0.07898 0.34832 0.94789 0.0
C1468 C 0.06055 0.37705 0.92402 0.0
C1469 C 0.07287 0.35768 0.97202 0.0
C1470 C 0.0601 0.37599 0.97226 0.0
C1471 C 0.0375 0.40083 0.94841 0.0
C1472 C 0.02869 0.40815 0.92442 0.0
C1473 C 0.05309 0.38508 0.94837 0.0
C1474 C 0.03758 0.40143 0.90033 0.0
C1475 C 0.05347 0.38607 0.90013 0.0
H1476 H 0.7438 0.68307 0.62639 0.0
H1477 H 0.74451 0.6861 0.54089 0.0
H1478 H 0.68988 0.6558 0.54017 0.0
H1479 H 0.64202 0.63288 0.56395 0.0
H1480 H 0.64147 0.63104 0.6495 0.0
H1481 H 0.69609 0.6563 0.65004 0.0
C1482 C 0.73206 0.67685 0.60755 0.0
C1483 C 0.74819 0.68716 0.58372 0.0
C1484 C 0.70071 0.65984 0.60732 0.0
C1485 C 0.73265 0.67856 0.55951 0.0
C1486 C 0.7014 0.66135 0.5591 0.0
C1487 C 0.6538 0.63772 0.58274 0.0
C1488 C 0.63767 0.63042 0.60667 0.0
C1489 C 0.6852 0.65256 0.5829 0.0
C1490 C 0.65331 0.63653 0.63081 0.0
C1491 C 0.68455 0.65106 0.63113 0.0
H1492 H 0.38295 0.07726 0.57753 0.0
H1493 H 0.31992 0.02209 0.63762 0.0
H1494 H 0.35243 1.00273 0.65048 0.0
H1495 H 0.39743 0.99933 0.64349 0.0
H1496 H 0.46087 0.05395 0.58349 0.0
H1497 H 0.42993 0.07594 0.57227 0.0
C1498 C 0.3764 0.06104 0.59344 0.0
C1499 C 0.34889 0.05104 0.60641 0.0
C1500 C 0.39538 0.04997 0.60096 0.0
C1501 C 0.34089 0.0302 0.62719 0.0
C1502 C 0.3595 0.01908 0.63464 0.0
C1503 C 0.40478 0.01637 0.62822 0.0
C1504 C 0.43142 0.02482 0.61432 0.0
C1505 C 0.38667 0.02859 0.62155 0.0
C1506 C 0.44047 0.04695 0.59456 0.0
C1507 C 0.42268 0.05944 0.58798 0.0
H1508 H 1.01997 0.39078 0.62938 0.0
H1509 H 0.03876 0.40386 0.54559 0.0
H1510 H 1.00845 0.35018 0.53809 0.0
H1511 H 0.98076 0.29917 0.55582 0.0
H1512 H 0.9634 0.28591 0.63979 0.0
H1513 H 0.98858 0.33986 0.64661 0.0
C1514 C 1.01707 0.38192 0.60945 0.0
C1515 C 0.03189 0.40126 0.58816 0.0
C1516 C 0.99997 0.35091 0.60528 0.0
C1517 C 0.02787 0.38942 0.56241 0.0
C1518 C 1.01052 0.3587 0.55806 0.0
C1519 C 0.98203 0.30808 0.57553 0.0
C1520 C 0.97051 0.28857 0.59727 0.0
C1521 C 0.99709 0.33916 0.57942 0.0
C1522 C 0.97237 0.30047 0.62272 0.0
C1523 C 0.98681 0.33133 0.62667 0.0
H1524 H 0.97215 0.68449 0.72802 0.0
H1525 H 0.972 0.68291 0.81357 0.0
H1526 H 0.02669 0.71136 0.81396 0.0
H1527 H 0.07424 0.73229 0.78998 0.0
H1528 H 0.07432 0.73285 0.70442 0.0
H1529 H 1.0198 0.70935 0.70409 0.0
C1530 C 0.98404 0.69062 0.74679 0.0
C1531 C 0.96802 0.68126 0.77074 0.0
C1532 C 1.01542 0.7066 0.74685 0.0
C1533 C 0.98378 0.68972 0.79486 0.0
C1534 C 1.01505 0.70588 0.79509 0.0
C1535 C 0.06238 0.72754 0.77123 0.0
C1536 C 0.0783 0.73396 0.74725 0.0
C1537 C 0.03107 0.71374 0.7712 0.0
C1538 C 0.06262 0.72802 0.72315 0.0
C1539 C 0.03143 0.71449 0.72296 0.0
H1540 H 0.30876 0.34383 0.80523 0.0
H1541 H 0.29498 0.33536 0.72051 0.0
H1542 H 0.31496 0.30137 0.71877 0.0
H1543 H 0.34074 0.27821 0.7406 0.0
H1544 H 0.35621 0.28809 0.82507 0.0
H1545 H 0.33061 0.31702 0.82765 0.0
C1546 C 0.30985 0.33435 0.78639 0.0
C1547 C 0.30076 0.34245 0.76297 0.0
C1548 C 0.3217 0.31514 0.78549 0.0
C1549 C 0.302 0.32966 0.7388 0.0
C1550 C 0.31348 0.31027 0.73779 0.0
C1551 C 0.33819 0.28634 0.75967 0.0
C1552 C 0.35071 0.28131 0.78256 0.0
C1553 C 0.32405 0.30346 0.76091 0.0
C1554 C 0.34691 0.29174 0.80712 0.0
C1555 C 0.33242 0.30843 0.80859 0.0
H1556 H 0.72313 0.9744 0.7893 0.0
H1557 H 0.69718 0.97095 0.70733 0.0
H1558 H 0.71695 0.02484 0.70749 0.0
H1559 H 0.73666 0.07161 0.73192 0.0
H1560 H 0.76129 0.07566 0.81424 0.0
H1561 H 0.74712 0.02271 0.81288 0.0
C1562 C 0.7223 0.9855 0.77132 0.0
C1563 C 0.70844 0.96859 0.74838 0.0
C1564 C 0.7331 0.01646 0.77172 0.0
C1565 C 0.70754 0.98337 0.72528 0.0
C1566 C 0.71873 0.01417 0.72539 0.0
C1567 C 0.73912 0.06102 0.74958 0.0
C1568 C 0.74955 0.07738 0.77328 0.0
C1569 C 0.7307 0.03072 0.74869 0.0
C1570 C 0.75313 0.06346 0.79581 0.0
C1571 C 0.74497 0.0332 0.79504 0.0
H1572 H 0.30289 0.95906 0.294 0.0
H1573 H 0.28316 0.95865 0.21075 0.0
H1574 H 0.29886 1.01187 0.21307 0.0
H1575 H 0.32217 0.05916 0.23792 0.0
H1576 H 0.34372 0.05947 0.32074 0.0
H1577 H 0.32289 1.00538 0.31944 0.0
C1578 C 0.3018 0.9705 0.27635 0.0
C1579 C 0.29218 0.95496 0.25215 0.0
C1580 C 0.31121 1.00106 0.27776 0.0
C1581 C 0.29061 0.97011 0.22959 0.0
C1582 C 0.29964 1.00054 0.23091 0.0
C1583 C 0.32192 0.04737 0.25582 0.0
C1584 C 0.33469 0.06343 0.27938 0.0
C1585 C 0.31054 0.01635 0.25478 0.0
C1586 C 0.33416 0.04773 0.30234 0.0
C1587 C 0.32236 0.01681 0.30158 0.0
H1588 H 0.9663 0.29022 0.23586 0.0
H1589 H 0.96373 0.28681 0.32136 0.0
H1590 H 1.01831 0.31178 0.32293 0.0
H1591 H 0.06652 0.33992 0.30021 0.0
H1592 H 0.06913 0.34445 0.21475 0.0
H1593 H 1.01466 0.31331 0.21298 0.0
C1594 C 0.97765 0.29456 0.25484 0.0
C1595 C 0.96103 0.28711 0.27847 0.0
C1596 C 1.00901 0.30932 0.2556 0.0
C1597 C 0.97601 0.29245 0.30289 0.0
C1598 C 1.00723 0.30687 0.3038 0.0
C1599 C 0.05522 0.33379 0.28116 0.0
C1600 C 0.07178 0.3449 0.25766 0.0
C1601 C 0.02393 0.31626 0.28032 0.0
C1602 C 0.05688 0.33635 0.23314 0.0
C1603 C 0.02572 0.31866 0.23212 0.0
H1604 H 0.76952 0.71552 0.23733 0.0
H1605 H 0.74106 0.68685 0.31768 0.0
H1606 H 0.70954 0.7097 0.31635 0.0
H1607 H 0.68673 0.73348 0.29123 0.0
H1608 H 0.71223 0.75954 0.20989 0.0
H1609 H 0.74846 0.74214 0.21276 0.0
C1610 C 0.75689 0.71485 0.25472 0.0
C1611 C 0.75761 0.69958 0.27761 0.0
C1612 C 0.73804 0.72718 0.2535 0.0
C1613 C 0.74082 0.69847 0.29986 0.0
C1614 C 0.72273 0.71141 0.29907 0.0
C1615 C 0.70034 0.73562 0.27412 0.0
C1616 C 0.69658 0.74756 0.25029 0.0
C1617 C 0.72059 0.72511 0.27579 0.0
C1618 C 0.71456 0.75029 0.22842 0.0
C1619 C 0.73526 0.74033 0.23006 0.0
loop_
_geom_bond_atom_site_label_1
_geom_bond_atom_site_label_2
_geom_bond_distance
_geom_bond_site_symmetry_2
_ccdc_geom_bond_type
Mg0 O7 2.141 . S
Mg0 O8 2.048 . S
Mg0 O9 2.048 . S
Mg0 O12 2.141 . S
C1 O2 1.313 . S
C1 O8 1.195 . S
O2 C1 1.313 . S
C3 O4 1.245 . S
C3 O12 1.289 . S
O4 C3 1.245 . S
C5 O6 1.245 . S
C5 O7 1.289 . S
O6 C5 1.245 . S
O7 Mg0 2.141 . S
O7 C5 1.289 . S
O8 Mg0 2.048 . S
O8 C1 1.195 . S
O9 Mg0 2.048 . S
O9 C10 1.195 . S
C10 O9 1.195 . S
C10 O11 1.313 . S
O11 C10 1.313 . S
O12 Mg0 2.141 . S
O12 C3 1.289 . S
Mg13 O20 2.141 . S
Mg13 O21 2.048 . S
Mg13 O22 2.048 . S
Mg13 O25 2.141 . S
C14 O15 1.313 . S
C14 O21 1.195 . S
O15 C14 1.313 . S
C16 O17 1.245 . S
C16 O25 1.289 . S
O17 C16 1.245 . S
C18 O19 1.245 . S
C18 O20 1.289 . S
O19 C18 1.245 . S
O20 Mg13 2.141 . S
O20 C18 1.289 . S
O21 Mg13 2.048 . S
O21 C14 1.195 . S
O22 Mg13 2.048 . S
O22 C23 1.195 . S
C23 O22 1.195 . S
C23 O24 1.313 . S
O24 C23 1.313 . S
O25 Mg13 2.141 . S
O25 C16 1.289 . S
Mg26 O33 2.141 . S
Mg26 O34 2.048 . S
Mg26 O35 2.048 . S
Mg26 O38 2.141 . S
C27 O28 1.313 . S
C27 O34 1.195 . S
O28 C27 1.313 . S
C29 O30 1.245 . S
C29 O38 1.289 . S
O30 C29 1.245 . S
C31 O32 1.245 . S
C31 O33 1.289 . S
O32 C31 1.245 . S
O33 Mg26 2.141 . S
O33 C31 1.289 . S
O34 Mg26 2.048 . S
O34 C27 1.195 . S
O35 Mg26 2.048 . S
O35 C36 1.195 . S
C36 O35 1.195 . S
C36 O37 1.313 . S
O37 C36 1.313 . S
O38 Mg26 2.141 . S
O38 C29 1.289 . S
Mg39 O46 2.141 . S
Mg39 O47 2.048 . S
Mg39 O48 2.048 . S
Mg39 O51 2.141 . S
C40 O41 1.313 . S
C40 O47 1.195 . S
O41 C40 1.313 . S
C42 O43 1.245 . S
C42 O51 1.289 . S
O43 C42 1.245 . S
C44 O45 1.245 . S
C44 O46 1.289 . S
O45 C44 1.245 . S
O46 Mg39 2.141 . S
O46 C44 1.289 . S
O47 Mg39 2.048 . S
O47 C40 1.195 . S
O48 Mg39 2.048 . S
O48 C49 1.195 . S
C49 O48 1.195 . S
C49 O50 1.313 . S
O50 C49 1.313 . S
O51 Mg39 2.141 . S
O51 C42 1.289 . S
Mg52 O59 2.141 . S
Mg52 O60 2.048 . S
Mg52 O61 2.048 . S
Mg52 O64 2.141 . S
C53 O54 1.313 . S
C53 O60 1.195 . S
O54 C53 1.313 . S
C55 O56 1.245 . S
C55 O64 1.289 . S
O56 C55 1.245 . S
C57 O58 1.245 . S
C57 O59 1.289 . S
O58 C57 1.245 . S
O59 Mg52 2.141 . S
O59 C57 1.289 . S
O60 Mg52 2.048 . S
O60 C53 1.195 . S
O61 Mg52 2.048 . S
O61 C62 1.195 . S
C62 O61 1.195 . S
C62 O63 1.313 . S
O63 C62 1.313 . S
O64 Mg52 2.141 . S
O64 C55 1.289 . S
Mg65 O72 2.141 . S
Mg65 O73 2.048 . S
Mg65 O74 2.048 . S
Mg65 O77 2.141 . S
C66 O67 1.313 . S
C66 O73 1.195 . S
O67 C66 1.313 . S
C68 O69 1.245 . S
C68 O77 1.289 . S
O69 C68 1.245 . S
C70 O71 1.245 . S
C70 O72 1.289 . S
O71 C70 1.245 . S
O72 Mg65 2.141 . S
O72 C70 1.289 . S
O73 Mg65 2.048 . S
O73 C66 1.195 . S
O74 Mg65 2.048 . S
O74 C75 1.195 . S
C75 O74 1.195 . S
C75 O76 1.313 . S
O76 C75 1.313 . S
O77 Mg65 2.141 . S
O77 C68 1.289 . S
Mg78 O85 2.141 . S
Mg78 O86 2.048 . S
Mg78 O87 2.048 . S
Mg78 O90 2.141 . S
C79 O80 1.313 . S
C79 O86 1.195 . S
O80 C79 1.313 . S
C81 O82 1.245 . S
C81 O90 1.289 . S
O82 C81 1.245 . S
C83 O84 1.245 . S
C83 O85 1.289 . S
O84 C83 1.245 . S
O85 Mg78 2.141 . S
O85 C83 1.289 . S
O86 Mg78 2.048 . S
O86 C79 1.195 . S
O87 Mg78 2.048 . S
O87 C88 1.195 . S
C88 O87 1.195 . S
C88 O89 1.313 . S
O89 C88 1.313 . S
O90 Mg78 2.141 . S
O90 C81 1.289 . S
Mg91 O98 2.141 . S
Mg91 O99 2.048 . S
Mg91 O100 2.048 . S
Mg91 O103 2.141 . S
C92 O93 1.313 . S
C92 O99 1.195 . S
O93 C92 1.313 . S
C94 O95 1.245 . S
C94 O103 1.289 . S
O95 C94 1.245 . S
C96 O97 1.245 . S
C96 O98 1.289 . S
O97 C96 1.245 . S
O98 Mg91 2.141 . S
O98 C96 1.289 . S
O99 Mg91 2.048 . S
O99 C92 1.195 . S
O100 Mg91 2.048 . S
O100 C101 1.195 . S
C101 O100 1.195 . S
C101 O102 1.313 . S
O102 C101 1.313 . S
O103 Mg91 2.141 . S
O103 C94 1.289 . S
Mg104 O111 2.141 . S
Mg104 O112 2.048 . S
Mg104 O113 2.048 . S
Mg104 O116 2.141 . S
C105 O106 1.313 . S
C105 O112 1.195 . S
O106 C105 1.313 . S
C107 O108 1.245 . S
C107 O116 1.289 . S
O108 C107 1.245 . S
C109 O110 1.245 . S
C109 O111 1.289 . S
O110 C109 1.245 . S
O111 Mg104 2.141 . S
O111 C109 1.289 . S
O112 Mg104 2.048 . S
O112 C105 1.195 . S
O113 Mg104 2.048 . S
O113 C114 1.195 . S
C114 O113 1.195 . S
C114 O115 1.313 . S
O115 C114 1.313 . S
O116 Mg104 2.141 . S
O116 C107 1.289 . S
Mg117 O124 2.141 . S
Mg117 O125 2.048 . S
Mg117 O126 2.048 . S
Mg117 O129 2.141 . S
C118 O119 1.313 . S
C118 O125 1.195 . S
O119 C118 1.313 . S
C120 O121 1.245 . S
C120 O129 1.289 . S
O121 C120 1.245 . S
C122 O123 1.245 . S
C122 O124 1.289 . S
O123 C122 1.245 . S
O124 Mg117 2.141 . S
O124 C122 1.289 . S
O125 Mg117 2.048 . S
O125 C118 1.195 . S
O126 Mg117 2.048 . S
O126 C127 1.195 . S
C127 O126 1.195 . S
C127 O128 1.313 . S
O128 C127 1.313 . S
O129 Mg117 2.141 . S
O129 C120 1.289 . S
Mg130 O137 2.141 . S
Mg130 O138 2.048 . S
Mg130 O139 2.048 . S
Mg130 O142 2.141 . S
C131 O132 1.313 . S
C131 O138 1.195 . S
O132 C131 1.313 . S
C133 O134 1.245 . S
C133 O142 1.289 . S
O134 C133 1.245 . S
C135 O136 1.245 . S
C135 O137 1.289 . S
O136 C135 1.245 . S
O137 Mg130 2.141 . S
O137 C135 1.289 . S
O138 Mg130 2.048 . S
O138 C131 1.195 . S
O139 Mg130 2.048 . S
O139 C140 1.195 . S
C140 O139 1.195 . S
C140 O141 1.313 . S
O141 C140 1.313 . S
O142 Mg130 2.141 . S
O142 C133 1.289 . S
Mg143 O150 2.141 . S
Mg143 O151 2.048 . S
Mg143 O152 2.048 . S
Mg143 O155 2.141 . S
C144 O145 1.313 . S
C144 O151 1.195 . S
O145 C144 1.313 . S
C146 O147 1.245 . S
C146 O155 1.289 . S
O147 C146 1.245 . S
C148 O149 1.245 . S
C148 O150 1.289 . S
O149 C148 1.245 . S
O150 Mg143 2.141 . S
O150 C148 1.289 . S
O151 Mg143 2.048 . S
O151 C144 1.195 . S
O152 Mg143 2.048 . S
O152 C153 1.195 . S
C153 O152 1.195 . S
C153 O154 1.313 . S
O154 C153 1.313 . S
O155 Mg143 2.141 . S
O155 C146 1.289 . S
Mg156 O163 2.141 . S
Mg156 O164 2.048 . S
Mg156 O165 2.048 . S
Mg156 O168 2.141 . S
C157 O158 1.313 . S
C157 O164 1.195 . S
O158 C157 1.313 . S
C159 O160 1.245 . S
C159 O168 1.289 . S
O160 C159 1.245 . S
C161 O162 1.245 . S
C161 O163 1.289 . S
O162 C161 1.245 . S
O163 Mg156 2.141 . S
O163 C161 1.289 . S
O164 Mg156 2.048 . S
O164 C157 1.195 . S
O165 Mg156 2.048 . S
O165 C166 1.195 . S
C166 O165 1.195 . S
C166 O167 1.313 . S
O167 C166 1.313 . S
O168 Mg156 2.141 . S
O168 C159 1.289 . S
Mg169 O176 2.141 . S
Mg169 O177 2.048 . S
Mg169 O178 2.048 . S
Mg169 O181 2.141 . S
C170 O171 1.313 . S
C170 O177 1.195 . S
O171 C170 1.313 . S
C172 O173 1.245 . S
C172 O181 1.289 . S
O173 C172 1.245 . S
C174 O175 1.245 . S
C174 O176 1.289 . S
O175 C174 1.245 . S
O176 Mg169 2.141 . S
O176 C174 1.289 . S
O177 Mg169 2.048 . S
O177 C170 1.195 . S
O178 Mg169 2.048 . S
O178 C179 1.195 . S
C179 O178 1.195 . S
C179 O180 1.313 . S
O180 C179 1.313 . S
O181 Mg169 2.141 . S
O181 C172 1.289 . S
Mg182 O189 2.141 . S
Mg182 O190 2.048 . S
Mg182 O191 2.048 . S
Mg182 O194 2.141 . S
C183 O184 1.313 . S
C183 O190 1.195 . S
O184 C183 1.313 . S
C185 O186 1.245 . S
C185 O194 1.289 . S
O186 C185 1.245 . S
C187 O188 1.245 . S
C187 O189 1.289 . S
O188 C187 1.245 . S
O189 Mg182 2.141 . S
O189 C187 1.289 . S
O190 Mg182 2.048 . S
O190 C183 1.195 . S
O191 Mg182 2.048 . S
O191 C192 1.195 . S
C192 O191 1.195 . S
C192 O193 1.313 . S
O193 C192 1.313 . S
O194 Mg182 2.141 . S
O194 C185 1.289 . S
Mg195 O202 2.141 . S
Mg195 O203 2.048 . S
Mg195 O204 2.048 . S
Mg195 O207 2.141 . S
C196 O197 1.313 . S
C196 O203 1.195 . S
O197 C196 1.313 . S
C198 O199 1.245 . S
C198 O207 1.289 . S
O199 C198 1.245 . S
C200 O201 1.245 . S
C200 O202 1.289 . S
O201 C200 1.245 . S
O202 Mg195 2.141 . S
O202 C200 1.289 . S
O203 Mg195 2.048 . S
O203 C196 1.195 . S
O204 Mg195 2.048 . S
O204 C205 1.195 . S
C205 O204 1.195 . S
C205 O206 1.313 . S
O206 C205 1.313 . S
O207 Mg195 2.141 . S
O207 C198 1.289 . S
Mg208 O215 2.141 . S
Mg208 O216 2.048 . S
Mg208 O217 2.048 . S
Mg208 O220 2.141 . S
C209 O210 1.313 . S
C209 O216 1.195 . S
O210 C209 1.313 . S
C211 O212 1.245 . S
C211 O220 1.289 . S
O212 C211 1.245 . S
C213 O214 1.245 . S
C213 O215 1.289 . S
O214 C213 1.245 . S
O215 Mg208 2.141 . S
O215 C213 1.289 . S
O216 Mg208 2.048 . S
O216 C209 1.195 . S
O217 Mg208 2.048 . S
O217 C218 1.195 . S
C218 O217 1.195 . S
C218 O219 1.313 . S
O219 C218 1.313 . S
O220 Mg208 2.141 . S
O220 C211 1.289 . S
Mg221 O228 2.141 . S
Mg221 O229 2.048 . S
Mg221 O230 2.048 . S
Mg221 O233 2.141 . S
C222 O223 1.313 . S
C222 O229 1.195 . S
O223 C222 1.313 . S
C224 O225 1.245 . S
C224 O233 1.289 . S
O225 C224 1.245 . S
C226 O227 1.245 . S
C226 O228 1.289 . S
O227 C226 1.245 . S
O228 Mg221 2.141 . S
O228 C226 1.289 . S
O229 Mg221 2.048 . S
O229 C222 1.195 . S
O230 Mg221 2.048 . S
O230 C231 1.195 . S
C231 O230 1.195 . S
C231 O232 1.313 . S
O232 C231 1.313 . S
O233 Mg221 2.141 . S
O233 C224 1.289 . S
Mg234 O241 2.141 . S
Mg234 O242 2.048 . S
Mg234 O243 2.048 . S
Mg234 O246 2.141 . S
C235 O236 1.313 . S
C235 O242 1.195 . S
O236 C235 1.313 . S
C237 O238 1.245 . S
C237 O246 1.289 . S
O238 C237 1.245 . S
C239 O240 1.245 . S
C239 O241 1.289 . S
O240 C239 1.245 . S
O241 Mg234 2.141 . S
O241 C239 1.289 . S
O242 Mg234 2.048 . S
O242 C235 1.195 . S
O243 Mg234 2.048 . S
O243 C244 1.195 . S
C244 O243 1.195 . S
C244 O245 1.313 . S
O245 C244 1.313 . S
O246 Mg234 2.141 . S
O246 C237 1.289 . S
Mg247 O254 2.141 . S
Mg247 O255 2.048 . S
Mg247 O256 2.048 . S
Mg247 O259 2.141 . S
C248 O249 1.313 . S
C248 O255 1.195 . S
O249 C248 1.313 . S
C250 O251 1.245 . S
C250 O259 1.289 . S
O251 C250 1.245 . S
C252 O253 1.245 . S
C252 O254 1.289 . S
O253 C252 1.245 . S
O254 Mg247 2.141 . S
O254 C252 1.289 . S
O255 Mg247 2.048 . S
O255 C248 1.195 . S
O256 Mg247 2.048 . S
O256 C257 1.195 . S
C257 O256 1.195 . S
C257 O258 1.313 . S
O258 C257 1.313 . S
O259 Mg247 2.141 . S
O259 C250 1.289 . S
Mg260 O267 2.141 . S
Mg260 O268 2.048 . S
Mg260 O269 2.048 . S
Mg260 O272 2.141 . S
C261 O262 1.313 . S
C261 O268 1.195 . S
O262 C261 1.313 . S
C263 O264 1.245 . S
C263 O272 1.289 . S
O264 C263 1.245 . S
C265 O266 1.245 . S
C265 O267 1.289 . S
O266 C265 1.245 . S
O267 Mg260 2.141 . S
O267 C265 1.289 . S
O268 Mg260 2.048 . S
O268 C261 1.195 . S
O269 Mg260 2.048 . S
O269 C270 1.195 . S
C270 O269 1.195 . S
C270 O271 1.313 . S
O271 C270 1.313 . S
O272 Mg260 2.141 . S
O272 C263 1.289 . S
Mg273 O280 2.141 . S
Mg273 O281 2.048 . S
Mg273 O282 2.048 . S
Mg273 O285 2.141 . S
C274 O275 1.313 . S
C274 O281 1.195 . S
O275 C274 1.313 . S
C276 O277 1.245 . S
C276 O285 1.289 . S
O277 C276 1.245 . S
C278 O279 1.245 . S
C278 O280 1.289 . S
O279 C278 1.245 . S
O280 Mg273 2.141 . S
O280 C278 1.289 . S
O281 Mg273 2.048 . S
O281 C274 1.195 . S
O282 Mg273 2.048 . S
O282 C283 1.195 . S
C283 O282 1.195 . S
C283 O284 1.313 . S
O284 C283 1.313 . S
O285 Mg273 2.141 . S
O285 C276 1.289 . S
Mg286 O293 2.141 . S
Mg286 O294 2.048 . S
Mg286 O295 2.048 . S
Mg286 O298 2.141 . S
C287 O288 1.313 . S
C287 O294 1.195 . S
O288 C287 1.313 . S
C289 O290 1.245 . S
C289 O298 1.289 . S
O290 C289 1.245 . S
C291 O292 1.245 . S
C291 O293 1.289 . S
O292 C291 1.245 . S
O293 Mg286 2.141 . S
O293 C291 1.289 . S
O294 Mg286 2.048 . S
O294 C287 1.195 . S
O295 Mg286 2.048 . S
O295 C296 1.195 . S
C296 O295 1.195 . S
C296 O297 1.313 . S
O297 C296 1.313 . S
O298 Mg286 2.141 . S
O298 C289 1.289 . S
Mg299 O306 2.141 . S
Mg299 O307 2.048 . S
Mg299 O308 2.048 . S
Mg299 O311 2.141 . S
C300 O301 1.313 . S
C300 O307 1.195 . S
O301 C300 1.313 . S
C302 O303 1.245 . S
C302 O311 1.289 . S
O303 C302 1.245 . S
C304 O305 1.245 . S
C304 O306 1.289 . S
O305 C304 1.245 . S
O306 Mg299 2.141 . S
O306 C304 1.289 . S
O307 Mg299 2.048 . S
O307 C300 1.195 . S
O308 Mg299 2.048 . S
O308 C309 1.195 . S
C309 O308 1.195 . S
C309 O310 1.313 . S
O310 C309 1.313 . S
O311 Mg299 2.141 . S
O311 C302 1.289 . S
Mg312 O319 2.141 . S
Mg312 O320 2.048 . S
Mg312 O321 2.048 . S
Mg312 O324 2.141 . S
C313 O314 1.313 . S
C313 O320 1.195 . S
O314 C313 1.313 . S
C315 O316 1.245 . S
C315 O324 1.289 . S
O316 C315 1.245 . S
C317 O318 1.245 . S
C317 O319 1.289 . S
O318 C317 1.245 . S
O319 Mg312 2.141 . S
O319 C317 1.289 . S
O320 Mg312 2.048 . S
O320 C313 1.195 . S
O321 Mg312 2.048 . S
O321 C322 1.195 . S
C322 O321 1.195 . S
C322 O323 1.313 . S
O323 C322 1.313 . S
O324 Mg312 2.141 . S
O324 C315 1.289 . S
Mg325 O332 2.141 . S
Mg325 O333 2.048 . S
Mg325 O334 2.048 . S
Mg325 O337 2.141 . S
C326 O327 1.313 . S
C326 O333 1.195 . S
O327 C326 1.313 . S
C328 O329 1.245 . S
C328 O337 1.289 . S
O329 C328 1.245 . S
C330 O331 1.245 . S
C330 O332 1.289 . S
O331 C330 1.245 . S
O332 Mg325 2.141 . S
O332 C330 1.289 . S
O333 Mg325 2.048 . S
O333 C326 1.195 . S
O334 Mg325 2.048 . S
O334 C335 1.195 . S
C335 O334 1.195 . S
C335 O336 1.313 . S
O336 C335 1.313 . S
O337 Mg325 2.141 . S
O337 C328 1.289 . S
Mg338 O345 2.141 . S
Mg338 O346 2.048 . S
Mg338 O347 2.048 . S
Mg338 O350 2.141 . S
C339 O340 1.313 . S
C339 O346 1.195 . S
O340 C339 1.313 . S
C341 O342 1.245 . S
C341 O350 1.289 . S
O342 C341 1.245 . S
C343 O344 1.245 . S
C343 O345 1.289 . S
O344 C343 1.245 . S
O345 Mg338 2.141 . S
O345 C343 1.289 . S
O346 Mg338 2.048 . S
O346 C339 1.195 . S
O347 Mg338 2.048 . S
O347 C348 1.195 . S
C348 O347 1.195 . S
C348 O349 1.313 . S
O349 C348 1.313 . S
O350 Mg338 2.141 . S
O350 C341 1.289 . S
Mg351 O358 2.141 . S
Mg351 O359 2.048 . S
Mg351 O360 2.048 . S
Mg351 O363 2.141 . S
C352 O353 1.313 . S
C352 O359 1.195 . S
O353 C352 1.313 . S
C354 O355 1.245 . S
C354 O363 1.289 . S
O355 C354 1.245 . S
C356 O357 1.245 . S
C356 O358 1.289 . S
O357 C356 1.245 . S
O358 Mg351 2.141 . S
O358 C356 1.289 . S
O359 Mg351 2.048 . S
O359 C352 1.195 . S
O360 Mg351 2.048 . S
O360 C361 1.195 . S
C361 O360 1.195 . S
C361 O362 1.313 . S
O362 C361 1.313 . S
O363 Mg351 2.141 . S
O363 C354 1.289 . S
Mg364 O371 2.141 . S
Mg364 O372 2.048 . S
Mg364 O373 2.048 . S
Mg364 O376 2.141 . S
C365 O366 1.313 . S
C365 O372 1.195 . S
O366 C365 1.313 . S
C367 O368 1.245 . S
C367 O376 1.289 . S
O368 C367 1.245 . S
C369 O370 1.245 . S
C369 O371 1.289 . S
O370 C369 1.245 . S
O371 Mg364 2.141 . S
O371 C369 1.289 . S
O372 Mg364 2.048 . S
O372 C365 1.195 . S
O373 Mg364 2.048 . S
O373 C374 1.195 . S
C374 O373 1.195 . S
C374 O375 1.313 . S
O375 C374 1.313 . S
O376 Mg364 2.141 . S
O376 C367 1.289 . S
Mg377 O384 2.141 . S
Mg377 O385 2.048 . S
Mg377 O386 2.048 . S
Mg377 O389 2.141 . S
C378 O379 1.313 . S
C378 O385 1.195 . S
O379 C378 1.313 . S
C380 O381 1.245 . S
C380 O389 1.289 . S
O381 C380 1.245 . S
C382 O383 1.245 . S
C382 O384 1.289 . S
O383 C382 1.245 . S
O384 Mg377 2.141 . S
O384 C382 1.289 . S
O385 Mg377 2.048 . S
O385 C378 1.195 . S
O386 Mg377 2.048 . S
O386 C387 1.195 . S
C387 O386 1.195 . S
C387 O388 1.313 . S
O388 C387 1.313 . S
O389 Mg377 2.141 . S
O389 C380 1.289 . S
Mg390 O397 2.141 . S
Mg390 O398 2.048 . S
Mg390 O399 2.048 . S
Mg390 O402 2.141 . S
C391 O392 1.313 . S
C391 O398 1.195 . S
O392 C391 1.313 . S
C393 O394 1.245 . S
C393 O402 1.289 . S
O394 C393 1.245 . S
C395 O396 1.245 . S
C395 O397 1.289 . S
O396 C395 1.245 . S
O397 Mg390 2.141 . S
O397 C395 1.289 . S
O398 Mg390 2.048 . S
O398 C391 1.195 . S
O399 Mg390 2.048 . S
O399 C400 1.195 . S
C400 O399 1.195 . S
C400 O401 1.313 . S
O401 C400 1.313 . S
O402 Mg390 2.141 . S
O402 C393 1.289 . S
Mg403 O410 2.141 . S
Mg403 O411 2.048 . S
Mg403 O412 2.048 . S
Mg403 O415 2.141 . S
C404 O405 1.313 . S
C404 O411 1.195 . S
O405 C404 1.313 . S
C406 O407 1.245 . S
C406 O415 1.289 . S
O407 C406 1.245 . S
C408 O409 1.245 . S
C408 O410 1.289 . S
O409 C408 1.245 . S
O410 Mg403 2.141 . S
O410 C408 1.289 . S
O411 Mg403 2.048 . S
O411 C404 1.195 . S
O412 Mg403 2.048 . S
O412 C413 1.195 . S
C413 O412 1.195 . S
C413 O414 1.313 . S
O414 C413 1.313 . S
O415 Mg403 2.141 . S
O415 C406 1.289 . S
Mg416 O423 2.141 . S
Mg416 O424 2.048 . S
Mg416 O425 2.048 . S
Mg416 O428 2.141 . S
C417 O418 1.313 . S
C417 O424 1.195 . S
O418 C417 1.313 . S
C419 O420 1.245 . S
C419 O428 1.289 . S
O420 C419 1.245 . S
C421 O422 1.245 . S
C421 O423 1.289 . S
O422 C421 1.245 . S
O423 Mg416 2.141 . S
O423 C421 1.289 . S
O424 Mg416 2.048 . S
O424 C417 1.195 . S
O425 Mg416 2.048 . S
O425 C426 1.195 . S
C426 O425 1.195 . S
C426 O427 1.313 . S
O427 C426 1.313 . S
O428 Mg416 2.141 . S
O428 C419 1.289 . S
Mg429 O436 2.141 . S
Mg429 O437 2.048 . S
Mg429 O438 2.048 . S
Mg429 O441 2.141 . S
C430 O431 1.313 . S
C430 O437 1.195 . S
O431 C430 1.313 . S
C432 O433 1.245 . S
C432 O441 1.289 . S
O433 C432 1.245 . S
C434 O435 1.245 . S
C434 O436 1.289 . S
O435 C434 1.245 . S
O436 Mg429 2.141 . S
O436 C434 1.289 . S
O437 Mg429 2.048 . S
O437 C430 1.195 . S
O438 Mg429 2.048 . S
O438 C439 1.195 . S
C439 O438 1.195 . S
C439 O440 1.313 . S
O440 C439 1.313 . S
O441 Mg429 2.141 . S
O441 C432 1.289 . S
Mg442 O449 2.141 . S
Mg442 O450 2.048 . S
Mg442 O451 2.048 . S
Mg442 O454 2.141 . S
C443 O444 1.313 . S
C443 O450 1.195 . S
O444 C443 1.313 . S
C445 O446 1.245 . S
C445 O454 1.289 . S
O446 C445 1.245 . S
C447 O448 1.245 . S
C447 O449 1.289 . S
O448 C447 1.245 . S
O449 Mg442 2.141 . S
O449 C447 1.289 . S
O450 Mg442 2.048 . S
O450 C443 1.195 . S
O451 Mg442 2.048 . S
O451 C452 1.195 . S
C452 O451 1.195 . S
C452 O453 1.313 . S
O453 C452 1.313 . S
O454 Mg442 2.141 . S
O454 C445 1.289 . S
Mg455 O462 2.141 . S
Mg455 O463 2.048 . S
Mg455 O464 2.048 . S
Mg455 O467 2.141 . S
C456 O457 1.313 . S
C456 O463 1.195 . S
O457 C456 1.313 . S
C458 O459 1.245 . S
C458 O467 1.289 . S
O459 C458 1.245 . S
C460 O461 1.245 . S
C460 O462 1.289 . S
O461 C460 1.245 . S
O462 Mg455 2.141 . S
O462 C460 1.289 . S
O463 Mg455 2.048 . S
O463 C456 1.195 . S
O464 Mg455 2.048 . S
O464 C465 1.195 . S
C465 O464 1.195 . S
C465 O466 1.313 . S
O466 C465 1.313 . S
O467 Mg455 2.141 . S
O467 C458 1.289 . S
H468 C474 0.930 . S
H469 C477 0.930 . S
H470 C478 0.930 . S
H471 C479 0.930 . S
H472 C482 0.930 . S
H473 C483 0.930 . S
C474 H468 0.930 . S
C474 C475 1.355 . S
C474 C476 1.415 . S
C475 C474 1.355 . S
C475 C477 1.419 . S
C476 C474 1.415 . S
C476 C481 1.425 . S
C476 C483 1.409 . S
C477 H469 0.930 . S
C477 C475 1.419 . S
C477 C478 1.362 . S
C478 H470 0.930 . S
C478 C477 1.362 . S
C478 C481 1.409 . S
C479 H471 0.930 . S
C479 C480 1.355 . S
C479 C481 1.415 . S
C480 C479 1.355 . S
C480 C482 1.419 . S
C481 C476 1.425 . S
C481 C478 1.409 . S
C481 C479 1.415 . S
C482 H472 0.930 . S
C482 C480 1.419 . S
C482 C483 1.362 . S
C483 H473 0.930 . S
C483 C476 1.409 . S
C483 C482 1.362 . S
H484 C490 0.930 . S
H485 C493 0.930 . S
H486 C494 0.930 . S
H487 C495 0.930 . S
H488 C498 0.930 . S
H489 C499 0.930 . S
C490 H484 0.930 . S
C490 C491 1.355 . S
C490 C492 1.415 . S
C491 C490 1.355 . S
C491 C493 1.419 . S
C492 C490 1.415 . S
C492 C497 1.425 . S
C492 C499 1.409 . S
C493 H485 0.930 . S
C493 C491 1.419 . S
C493 C494 1.362 . S
C494 H486 0.930 . S
C494 C493 1.362 . S
C494 C497 1.409 . S
C495 H487 0.930 . S
C495 C496 1.355 . S
C495 C497 1.415 . S
C496 C495 1.355 . S
C496 C498 1.419 . S
C497 C492 1.425 . S
C497 C494 1.409 . S
C497 C495 1.415 . S
C498 H488 0.930 . S
C498 C496 1.419 . S
C498 C499 1.362 . S
C499 H489 0.930 . S
C499 C492 1.409 . S
C499 C498 1.362 . S
H500 C506 0.930 . S
H501 C509 0.930 . S
H502 C510 0.930 . S
H503 C511 0.930 . S
H504 C514 0.930 . S
H505 C515 0.930 . S
C506 H500 0.930 . S
C506 C507 1.355 . S
C506 C508 1.415 . S
C507 C506 1.355 . S
C507 C509 1.419 . S
C508 C506 1.415 . S
C508 C513 1.425 . S
C508 C515 1.409 . S
C509 H501 0.930 . S
C509 C507 1.419 . S
C509 C510 1.362 . S
C510 H502 0.930 . S
C510 C509 1.362 . S
C510 C513 1.409 . S
C511 H503 0.930 . S
C511 C512 1.355 . S
C511 C513 1.415 . S
C512 C511 1.355 . S
C512 C514 1.419 . S
C513 C508 1.425 . S
C513 C510 1.409 . S
C513 C511 1.415 . S
C514 H504 0.930 . S
C514 C512 1.419 . S
C514 C515 1.362 . S
C515 H505 0.930 . S
C515 C508 1.409 . S
C515 C514 1.362 . S
H516 C522 0.930 . S
H517 C525 0.930 . S
H518 C526 0.930 . S
H519 C527 0.930 . S
H520 C530 0.930 . S
H521 C531 0.930 . S
C522 H516 0.930 . S
C522 C523 1.355 . S
C522 C524 1.415 . S
C523 C522 1.355 . S
C523 C525 1.419 . S
C524 C522 1.415 . S
C524 C529 1.425 . S
C524 C531 1.409 . S
C525 H517 0.930 . S
C525 C523 1.419 . S
C525 C526 1.362 . S
C526 H518 0.930 . S
C526 C525 1.362 . S
C526 C529 1.409 . S
C527 H519 0.930 . S
C527 C528 1.355 . S
C527 C529 1.415 . S
C528 C527 1.355 . S
C528 C530 1.419 . S
C529 C524 1.425 . S
C529 C526 1.409 . S
C529 C527 1.415 . S
C530 H520 0.930 . S
C530 C528 1.419 . S
C530 C531 1.362 . S
C531 H521 0.930 . S
C531 C524 1.409 . S
C531 C530 1.362 . S
H532 C538 0.930 . S
H533 C541 0.930 . S
H534 C542 0.930 . S
H535 C543 0.930 . S
H536 C546 0.930 . S
H537 C547 0.930 . S
C538 H532 0.930 . S
C538 C539 1.355 . S
C538 C540 1.415 . S
C539 C538 1.355 . S
C539 C541 1.419 . S
C540 C538 1.415 . S
C540 C545 1.425 . S
C540 C547 1.409 . S
C541 H533 0.930 . S
C541 C539 1.419 . S
C541 C542 1.362 . S
C542 H534 0.930 . S
C542 C541 1.362 . S
C542 C545 1.409 . S
C543 H535 0.930 . S
C543 C544 1.355 . S
C543 C545 1.415 . S
C544 C543 1.355 . S
C544 C546 1.419 . S
C545 C540 1.425 . S
C545 C542 1.409 . S
C545 C543 1.415 . S
C546 H536 0.930 . S
C546 C544 1.419 . S
C546 C547 1.362 . S
C547 H537 0.930 . S
C547 C540 1.409 . S
C547 C546 1.362 . S
H548 C554 0.930 . S
H549 C557 0.930 . S
H550 C558 0.930 . S
H551 C559 0.930 . S
H552 C562 0.930 . S
H553 C563 0.930 . S
C554 H548 0.930 . S
C554 C555 1.355 . S
C554 C556 1.415 . S
C555 C554 1.355 . S
C555 C557 1.419 . S
C556 C554 1.415 . S
C556 C561 1.425 . S
C556 C563 1.409 . S
C557 H549 0.930 . S
C557 C555 1.419 . S
C557 C558 1.362 . S
C558 H550 0.930 . S
C558 C557 1.362 . S
C558 C561 1.409 . S
C559 H551 0.930 . S
C559 C560 1.355 . S
C559 C561 1.415 . S
C560 C559 1.355 . S
C560 C562 1.419 . S
C561 C556 1.425 . S
C561 C558 1.409 . S
C561 C559 1.415 . S
C562 H552 0.930 . S
C562 C560 1.419 . S
C562 C563 1.362 . S
C563 H553 0.930 . S
C563 C556 1.409 . S
C563 C562 1.362 . S
H564 C570 0.930 . S
H565 C573 0.930 . S
H566 C574 0.930 . S
H567 C575 0.930 . S
H568 C578 0.930 . S
H569 C579 0.930 . S
C570 H564 0.930 . S
C570 C571 1.355 . S
C570 C572 1.415 . S
C571 C570 1.355 . S
C571 C573 1.419 . S
C572 C570 1.415 . S
C572 C577 1.425 . S
C572 C579 1.409 . S
C573 H565 0.930 . S
C573 C571 1.419 . S
C573 C574 1.362 . S
C574 H566 0.930 . S
C574 C573 1.362 . S
C574 C577 1.409 . S
C575 H567 0.930 . S
C575 C576 1.355 . S
C575 C577 1.415 . S
C576 C575 1.355 . S
C576 C578 1.419 . S
C577 C572 1.425 . S
C577 C574 1.409 . S
C577 C575 1.415 . S
C578 H568 0.930 . S
C578 C576 1.419 . S
C578 C579 1.362 . S
C579 H569 0.930 . S
C579 C572 1.409 . S
C579 C578 1.362 . S
H580 C586 0.930 . S
H581 C589 0.930 . S
H582 C590 0.930 . S
H583 C591 0.930 . S
H584 C594 0.930 . S
H585 C595 0.930 . S
C586 H580 0.930 . S
C586 C587 1.355 . S
C586 C588 1.415 . S
C587 C586 1.355 . S
C587 C589 1.419 . S
C588 C586 1.415 . S
C588 C593 1.425 . S
C588 C595 1.409 . S
C589 H581 0.930 . S
C589 C587 1.419 . S
C589 C590 1.362 . S
C590 H582 0.930 . S
C590 C589 1.362 . S
C590 C593 1.409 . S
C591 H583 0.930 . S
C591 C592 1.355 . S
C591 C593 1.415 . S
C592 C591 1.355 . S
C592 C594 1.419 . S
C593 C588 1.425 . S
C593 C590 1.409 . S
C593 C591 1.415 . S
C594 H584 0.930 . S
C594 C592 1.419 . S
C594 C595 1.362 . S
C595 H585 0.930 . S
C595 C588 1.409 . S
C595 C594 1.362 . S
H596 C602 0.930 . S
H597 C605 0.930 . S
H598 C606 0.930 . S
H599 C607 0.930 . S
H600 C610 0.930 . S
H601 C611 0.930 . S
C602 H596 0.930 . S
C602 C603 1.355 . S
C602 C604 1.415 . S
C603 C602 1.355 . S
C603 C605 1.419 . S
C604 C602 1.415 . S
C604 C609 1.425 . S
C604 C611 1.409 . S
C605 H597 0.930 . S
C605 C603 1.419 . S
C605 C606 1.362 . S
C606 H598 0.930 . S
C606 C605 1.362 . S
C606 C609 1.409 . S
C607 H599 0.930 . S
C607 C608 1.355 . S
C607 C609 1.415 . S
C608 C607 1.355 . S
C608 C610 1.419 . S
C609 C604 1.425 . S
C609 C606 1.409 . S
C609 C607 1.415 . S
C610 H600 0.930 . S
C610 C608 1.419 . S
C610 C611 1.362 . S
C611 H601 0.930 . S
C611 C604 1.409 . S
C611 C610 1.362 . S
H612 C618 0.930 . S
H613 C621 0.930 . S
H614 C622 0.930 . S
H615 C623 0.930 . S
H616 C626 0.930 . S
H617 C627 0.930 . S
C618 H612 0.930 . S
C618 C619 1.355 . S
C618 C620 1.415 . S
C619 C618 1.355 . S
C619 C621 1.419 . S
C620 C618 1.415 . S
C620 C625 1.425 . S
C620 C627 1.409 . S
C621 H613 0.930 . S
C621 C619 1.419 . S
C621 C622 1.362 . S
C622 H614 0.930 . S
C622 C621 1.362 . S
C622 C625 1.409 . S
C623 H615 0.930 . S
C623 C624 1.355 . S
C623 C625 1.415 . S
C624 C623 1.355 . S
C624 C626 1.419 . S
C625 C620 1.425 . S
C625 C622 1.409 . S
C625 C623 1.415 . S
C626 H616 0.930 . S
C626 C624 1.419 . S
C626 C627 1.362 . S
C627 H617 0.930 . S
C627 C620 1.409 . S
C627 C626 1.362 . S
H628 C634 0.930 . S
H629 C637 0.930 . S
H630 C638 0.930 . S
H631 C639 0.930 . S
H632 C642 0.930 . S
H633 C643 0.930 . S
C634 H628 0.930 . S
C634 C635 1.355 . S
C634 C636 1.415 . S
C635 C634 1.355 . S
C635 C637 1.419 . S
C636 C634 1.415 . S
C636 C641 1.425 . S
C636 C643 1.409 . S
C637 H629 0.930 . S
C637 C635 1.419 . S
C637 C638 1.362 . S
C638 H630 0.930 . S
C638 C637 1.362 . S
C638 C641 1.409 . S
C639 H631 0.930 . S
C639 C640 1.355 . S
C639 C641 1.415 . S
C640 C639 1.355 . S
C640 C642 1.419 . S
C641 C636 1.425 . S
C641 C638 1.409 . S
C641 C639 1.415 . S
C642 H632 0.930 . S
C642 C640 1.419 . S
C642 C643 1.362 . S
C643 H633 0.930 . S
C643 C636 1.409 . S
C643 C642 1.362 . S
H644 C650 0.930 . S
H645 C653 0.930 . S
H646 C654 0.930 . S
H647 C655 0.930 . S
H648 C658 0.930 . S
H649 C659 0.930 . S
C650 H644 0.930 . S
C650 C651 1.355 . S
C650 C652 1.415 . S
C651 C650 1.355 . S
C651 C653 1.419 . S
C652 C650 1.415 . S
C652 C657 1.425 . S
C652 C659 1.409 . S
C653 H645 0.930 . S
C653 C651 1.419 . S
C653 C654 1.362 . S
C654 H646 0.930 . S
C654 C653 1.362 . S
C654 C657 1.409 . S
C655 H647 0.930 . S
C655 C656 1.355 . S
C655 C657 1.415 . S
C656 C655 1.355 . S
C656 C658 1.419 . S
C657 C652 1.425 . S
C657 C654 1.409 . S
C657 C655 1.415 . S
C658 H648 0.930 . S
C658 C656 1.419 . S
C658 C659 1.362 . S
C659 H649 0.930 . S
C659 C652 1.409 . S
C659 C658 1.362 . S
H660 C666 0.930 . S
H661 C669 0.927 1_455 S
H662 C670 0.930 . S
H663 C671 0.930 . S
H664 C674 0.927 1_655 S
H665 C675 0.930 . S
C666 H660 0.930 . S
C666 C667 1.355 . S
C666 C668 1.415 . S
C667 C666 1.355 . S
C667 C669 1.419 . S
C668 C666 1.415 . S
C668 C673 1.425 1_655 S
C668 C675 1.409 . S
C669 H661 0.927 1_655 S
C669 C667 1.419 . S
C669 C670 1.362 1_655 S
C670 H662 0.930 . S
C670 C669 1.362 1_455 S
C670 C673 1.409 . S
C671 H663 0.930 . S
C671 C672 1.355 . S
C671 C673 1.415 . S
C672 C671 1.355 . S
C672 C674 1.419 . S
C673 C668 1.425 1_455 S
C673 C670 1.409 . S
C673 C671 1.415 . S
C674 H664 0.927 1_455 S
C674 C672 1.419 . S
C674 C675 1.362 1_455 S
C675 H665 0.930 . S
C675 C668 1.409 . S
C675 C674 1.362 1_655 S
H676 C682 0.930 . S
H677 C685 0.930 . S
H678 C686 0.930 . S
H679 C687 0.930 . S
H680 C690 0.930 . S
H681 C691 0.930 . S
C682 H676 0.930 . S
C682 C683 1.355 . S
C682 C684 1.415 . S
C683 C682 1.355 . S
C683 C685 1.419 . S
C684 C682 1.415 . S
C684 C689 1.425 . S
C684 C691 1.409 . S
C685 H677 0.930 . S
C685 C683 1.419 . S
C685 C686 1.362 . S
C686 H678 0.930 . S
C686 C685 1.362 . S
C686 C689 1.409 . S
C687 H679 0.930 . S
C687 C688 1.355 . S
C687 C689 1.415 . S
C688 C687 1.355 . S
C688 C690 1.419 . S
C689 C684 1.425 . S
C689 C686 1.409 . S
C689 C687 1.415 . S
C690 H680 0.930 . S
C690 C688 1.419 . S
C690 C691 1.362 . S
C691 H681 0.930 . S
C691 C684 1.409 . S
C691 C690 1.362 . S
H692 C698 0.930 1_565 S
H693 C701 0.930 . S
H694 C702 0.930 . S
H695 C703 0.930 1_545 S
H696 C706 0.930 . S
H697 C707 0.930 . S
C698 H692 0.930 1_545 S
C698 C699 1.355 . S
C698 C700 1.415 1_545 S
C699 C698 1.355 . S
C699 C701 1.419 . S
C700 C698 1.415 1_565 S
C700 C705 1.425 1_565 S
C700 C707 1.409 . S
C701 H693 0.930 . S
C701 C699 1.419 . S
C701 C702 1.362 . S
C702 H694 0.930 . S
C702 C701 1.362 . S
C702 C705 1.409 . S
C703 H695 0.930 1_565 S
C703 C704 1.355 . S
C703 C705 1.415 1_565 S
C704 C703 1.355 . S
C704 C706 1.419 . S
C705 C700 1.425 1_545 S
C705 C702 1.409 . S
C705 C703 1.415 1_545 S
C706 H696 0.930 . S
C706 C704 1.419 . S
C706 C707 1.362 . S
C707 H697 0.930 . S
C707 C700 1.409 . S
C707 C706 1.362 . S
H708 C714 0.912 1_565 S
H709 C717 0.930 . S
H710 C718 0.930 . S
H711 C719 0.912 1_545 S
H712 C722 0.930 . S
H713 C723 0.930 . S
C714 H708 0.912 1_545 S
C714 C715 1.395 . S
C714 C716 1.393 1_545 S
C715 C714 1.395 . S
C715 C717 1.419 . S
C716 C714 1.393 1_565 S
C716 C721 1.425 1_566 S
C716 C723 1.409 . S
C717 H709 0.930 . S
C717 C715 1.419 . S
C717 C718 1.362 1_556 S
C718 H710 0.930 . S
C718 C717 1.362 1_554 S
C718 C721 1.409 . S
C719 H711 0.912 1_565 S
C719 C720 1.395 . S
C719 C721 1.393 1_565 S
C720 C719 1.395 . S
C720 C722 1.419 . S
C721 C716 1.425 1_544 S
C721 C718 1.409 . S
C721 C719 1.393 1_545 S
C722 H712 0.930 . S
C722 C720 1.419 . S
C722 C723 1.362 1_554 S
C723 H713 0.930 . S
C723 C716 1.409 . S
C723 C722 1.362 1_556 S
H724 C730 0.930 . S
H725 C733 0.930 . S
H726 C734 0.930 . S
H727 C735 0.930 . S
H728 C738 0.930 . S
H729 C739 0.930 . S
C730 H724 0.930 . S
C730 C731 1.355 . S
C730 C732 1.415 1_556 S
C731 C730 1.355 . S
C731 C733 1.419 . S
C732 C730 1.415 1_554 S
C732 C737 1.425 1_654 S
C732 C739 1.409 1_655 S
C733 H725 0.930 . S
C733 C731 1.419 . S
C733 C734 1.362 . S
C734 H726 0.930 . S
C734 C733 1.362 . S
C734 C737 1.409 1_655 S
C735 H727 0.930 . S
C735 C736 1.355 . S
C735 C737 1.415 1_554 S
C736 C735 1.355 . S
C736 C738 1.419 . S
C737 C732 1.425 1_456 S
C737 C734 1.409 1_455 S
C737 C735 1.415 1_556 S
C738 H728 0.930 . S
C738 C736 1.419 . S
C738 C739 1.362 . S
C739 H729 0.930 . S
C739 C732 1.409 1_455 S
C739 C738 1.362 . S
H740 C746 0.930 . S
H741 C749 0.930 . S
H742 C750 0.930 . S
H743 C751 0.930 . S
H744 C754 0.930 . S
H745 C755 0.930 . S
C746 H740 0.930 . S
C746 C747 1.355 . S
C746 C748 1.415 1_556 S
C747 C746 1.355 . S
C747 C749 1.419 . S
C748 C746 1.415 1_554 S
C748 C753 1.425 1_554 S
C748 C755 1.409 . S
C749 H741 0.930 . S
C749 C747 1.419 . S
C749 C750 1.362 . S
C750 H742 0.930 . S
C750 C749 1.362 . S
C750 C753 1.409 . S
C751 H743 0.930 . S
C751 C752 1.355 . S
C751 C753 1.415 1_554 S
C752 C751 1.355 . S
C752 C754 1.419 . S
C753 C748 1.425 1_556 S
C753 C750 1.409 . S
C753 C751 1.415 1_556 S
C754 H744 0.930 . S
C754 C752 1.419 . S
C754 C755 1.362 . S
C755 H745 0.930 . S
C755 C748 1.409 . S
C755 C754 1.362 . S
H756 C762 0.930 . S
H757 C765 0.930 1_565 S
H758 C766 0.930 . S
H759 C767 0.930 . S
H760 C770 0.930 . S
H761 C771 0.930 . S
C762 H756 0.930 . S
C762 C763 1.355 . S
C762 C764 1.415 . S
C763 C762 1.355 . S
C763 C765 1.419 1_556 S
C764 C762 1.415 . S
C764 C769 1.425 1_556 S
C764 C771 1.409 . S
C765 H757 0.930 1_545 S
C765 C763 1.419 1_554 S
C765 C766 1.362 . S
C766 H758 0.930 . S
C766 C765 1.362 . S
C766 C769 1.409 . S
C767 H759 0.930 . S
C767 C768 1.355 . S
C767 C769 1.415 . S
C768 C767 1.355 . S
C768 C770 1.419 . S
C769 C764 1.425 1_554 S
C769 C766 1.409 . S
C769 C767 1.415 . S
C770 H760 0.930 . S
C770 C768 1.419 . S
C770 C771 1.362 1_554 S
C771 H761 0.930 . S
C771 C764 1.409 . S
C771 C770 1.362 1_556 S
H772 C778 0.930 . S
H773 C781 0.930 . S
H774 C782 0.930 . S
H775 C783 0.930 . S
H776 C786 0.930 . S
H777 C787 0.930 . S
C778 H772 0.930 . S
C778 C779 1.355 . S
C778 C780 1.415 . S
C779 C778 1.355 . S
C779 C781 1.419 1_656 S
C780 C778 1.415 . S
C780 C785 1.425 1_556 S
C780 C787 1.409 . S
C781 H773 0.930 . S
C781 C779 1.419 1_454 S
C781 C782 1.362 1_455 S
C782 H774 0.930 . S
C782 C781 1.362 1_655 S
C782 C785 1.409 . S
C783 H775 0.930 . S
C783 C784 1.355 . S
C783 C785 1.415 . S
C784 C783 1.355 . S
C784 C786 1.419 . S
C785 C780 1.425 1_554 S
C785 C782 1.409 . S
C785 C783 1.415 . S
C786 H776 0.930 . S
C786 C784 1.419 . S
C786 C787 1.362 1_554 S
C787 H777 0.930 . S
C787 C780 1.409 . S
C787 C786 1.362 1_556 S
H788 C794 0.930 . S
H789 C797 0.930 . S
H790 C798 0.930 . S
H791 C799 0.930 . S
H792 C802 0.930 . S
H793 C803 0.930 . S
C794 H788 0.930 . S
C794 C795 1.355 . S
C794 C796 1.415 . S
C795 C794 1.355 . S
C795 C797 1.419 . S
C796 C794 1.415 . S
C796 C801 1.403 1_554 S
C796 C803 1.409 . S
C797 H789 0.930 . S
C797 C795 1.419 . S
C797 C798 1.362 1_554 S
C798 H790 0.930 . S
C798 C797 1.362 1_556 S
C798 C801 1.410 . S
C799 H791 0.930 . S
C799 C800 1.355 . S
C799 C801 1.435 . S
C800 C799 1.355 . S
C800 C802 1.419 1_556 S
C801 C796 1.403 1_556 S
C801 C798 1.410 . S
C801 C799 1.435 . S
C802 H792 0.930 . S
C802 C800 1.419 1_554 S
C802 C803 1.362 . S
C803 H793 0.930 . S
C803 C796 1.409 . S
C803 C802 1.362 . S
H804 C810 0.930 . S
H805 C813 0.930 . S
H806 C814 0.930 . S
H807 C815 0.930 . S
H808 C818 0.930 . S
H809 C819 0.930 . S
C810 H804 0.930 . S
C810 C811 1.355 . S
C810 C812 1.415 . S
C811 C810 1.355 . S
C811 C813 1.419 1_455 S
C812 C810 1.415 . S
C812 C817 1.425 . S
C812 C819 1.409 . S
C813 H805 0.930 . S
C813 C811 1.419 1_655 S
C813 C814 1.362 1_655 S
C814 H806 0.930 . S
C814 C813 1.362 1_455 S
C814 C817 1.409 . S
C815 H807 0.930 . S
C815 C816 1.355 . S
C815 C817 1.415 . S
C816 C815 1.355 . S
C816 C818 1.419 . S
C817 C812 1.425 . S
C817 C814 1.409 . S
C817 C815 1.415 . S
C818 H808 0.930 . S
C818 C816 1.419 . S
C818 C819 1.362 . S
C819 H809 0.930 . S
C819 C812 1.409 . S
C819 C818 1.362 . S
H820 C826 0.930 . S
H821 C829 0.930 . S
H822 C830 0.930 . S
H823 C831 0.930 . S
H824 C834 0.930 . S
H825 C835 0.930 . S
C826 H820 0.930 . S
C826 C827 1.355 . S
C826 C828 1.415 . S
C827 C826 1.355 . S
C827 C829 1.419 . S
C828 C826 1.415 . S
C828 C833 1.425 . S
C828 C835 1.409 . S
C829 H821 0.930 . S
C829 C827 1.419 . S
C829 C830 1.362 . S
C830 H822 0.930 . S
C830 C829 1.362 . S
C830 C833 1.409 . S
C831 H823 0.930 . S
C831 C832 1.355 . S
C831 C833 1.415 . S
C832 C831 1.355 . S
C832 C834 1.419 . S
C833 C828 1.425 . S
C833 C830 1.409 . S
C833 C831 1.415 . S
C834 H824 0.930 . S
C834 C832 1.419 . S
C834 C835 1.362 . S
C835 H825 0.930 . S
C835 C828 1.409 . S
C835 C834 1.362 . S
H836 C842 0.930 . S
H837 C845 0.930 1_545 S
H838 C846 0.930 . S
H839 C847 0.930 . S
H840 C850 0.930 . S
H841 C851 0.930 . S
C842 H836 0.930 . S
C842 C843 1.355 . S
C842 C844 1.415 . S
C843 C842 1.355 . S
C843 C845 1.419 . S
C844 C842 1.415 . S
C844 C849 1.425 . S
C844 C851 1.409 . S
C845 H837 0.930 1_565 S
C845 C843 1.419 . S
C845 C846 1.362 . S
C846 H838 0.930 . S
C846 C845 1.362 . S
C846 C849 1.409 . S
C847 H839 0.930 . S
C847 C848 1.355 . S
C847 C849 1.415 . S
C848 C847 1.355 . S
C848 C850 1.419 . S
C849 C844 1.425 . S
C849 C846 1.409 . S
C849 C847 1.415 . S
C850 H840 0.930 . S
C850 C848 1.419 . S
C850 C851 1.362 . S
C851 H841 0.930 . S
C851 C844 1.409 . S
C851 C850 1.362 . S
H852 C858 0.930 . S
H853 C861 0.930 . S
H854 C862 0.930 . S
H855 C863 0.930 . S
H856 C866 0.930 1_545 S
H857 C867 0.930 . S
C858 H852 0.930 . S
C858 C859 1.355 . S
C858 C860 1.415 . S
C859 C858 1.355 . S
C859 C861 1.419 . S
C860 C858 1.415 . S
C860 C865 1.425 1_556 S
C860 C867 1.409 . S
C861 H853 0.930 . S
C861 C859 1.419 . S
C861 C862 1.362 1_556 S
C862 H854 0.930 . S
C862 C861 1.362 1_554 S
C862 C865 1.409 . S
C863 H855 0.930 . S
C863 C864 1.355 . S
C863 C865 1.415 . S
C864 C863 1.355 . S
C864 C866 1.419 1_554 S
C865 C860 1.425 1_554 S
C865 C862 1.409 . S
C865 C863 1.415 . S
C866 H856 0.930 1_565 S
C866 C864 1.419 1_556 S
C866 C867 1.362 . S
C867 H857 0.930 . S
C867 C860 1.409 . S
C867 C866 1.362 . S
H868 C874 0.930 . S
H869 C877 0.930 . S
H870 C878 0.930 . S
H871 C879 0.930 1_656 S
H872 C882 0.930 . S
H873 C883 0.930 . S
C874 H868 0.930 . S
C874 C875 1.355 . S
C874 C876 1.415 . S
C875 C874 1.355 . S
C875 C877 1.419 . S
C876 C874 1.415 . S
C876 C881 1.425 . S
C876 C883 1.409 1_556 S
C877 H869 0.930 . S
C877 C875 1.419 . S
C877 C878 1.362 . S
C878 H870 0.930 . S
C878 C877 1.362 . S
C878 C881 1.409 . S
C879 H871 0.930 1_454 S
C879 C880 1.355 . S
C879 C881 1.415 1_554 S
C880 C879 1.355 . S
C880 C882 1.419 . S
C881 C876 1.425 . S
C881 C878 1.409 . S
C881 C879 1.415 1_556 S
C882 H872 0.930 . S
C882 C880 1.419 . S
C882 C883 1.362 . S
C883 H873 0.930 . S
C883 C876 1.409 1_554 S
C883 C882 1.362 . S
H884 C890 0.930 . S
H885 C893 0.930 . S
H886 C894 0.930 . S
H887 C895 0.930 . S
H888 C898 0.930 . S
H889 C899 0.930 . S
C890 H884 0.930 . S
C890 C891 1.355 . S
C890 C892 1.415 . S
C891 C890 1.355 . S
C891 C893 1.419 . S
C892 C890 1.415 . S
C892 C897 1.425 1_556 S
C892 C899 1.409 . S
C893 H885 0.930 . S
C893 C891 1.419 . S
C893 C894 1.362 1_556 S
C894 H886 0.930 . S
C894 C893 1.362 1_554 S
C894 C897 1.409 . S
C895 H887 0.930 . S
C895 C896 1.355 . S
C895 C897 1.415 . S
C896 C895 1.355 . S
C896 C898 1.419 1_554 S
C897 C892 1.425 1_554 S
C897 C894 1.409 . S
C897 C895 1.415 . S
C898 H888 0.930 . S
C898 C896 1.419 1_556 S
C898 C899 1.362 . S
C899 H889 0.930 . S
C899 C892 1.409 . S
C899 C898 1.362 . S
H900 C906 0.930 . S
H901 C909 0.930 . S
H902 C910 0.930 . S
H903 C911 0.930 . S
H904 C914 0.947 . S
H905 C915 0.930 . S
C906 H900 0.930 . S
C906 C907 1.355 . S
C906 C908 1.415 . S
C907 C906 1.355 . S
C907 C909 1.419 . S
C908 C906 1.415 . S
C908 C913 1.425 . S
C908 C915 1.409 . S
C909 H901 0.930 . S
C909 C907 1.419 . S
C909 C910 1.362 . S
C910 H902 0.930 . S
C910 C909 1.362 . S
C910 C913 1.409 . S
C911 H903 0.930 . S
C911 C912 1.355 . S
C911 C913 1.415 . S
C912 C911 1.355 . S
C912 C914 1.419 . S
C913 C908 1.425 . S
C913 C910 1.409 . S
C913 C911 1.415 . S
C914 H904 0.947 . S
C914 C912 1.419 . S
C914 C915 1.362 . S
C915 H905 0.930 . S
C915 C908 1.409 . S
C915 C914 1.362 . S
H916 C922 0.930 . S
H917 C925 0.930 . S
H918 C926 0.930 . S
H919 C927 0.930 . S
H920 C930 0.930 . S
H921 C931 0.930 . S
C922 H916 0.930 . S
C922 C923 1.355 . S
C922 C924 1.415 . S
C923 C922 1.355 . S
C923 C925 1.419 . S
C924 C922 1.415 . S
C924 C929 1.425 . S
C924 C931 1.409 . S
C925 H917 0.930 . S
C925 C923 1.419 . S
C925 C926 1.362 . S
C926 H918 0.930 . S
C926 C925 1.362 . S
C926 C929 1.409 . S
C927 H919 0.930 . S
C927 C928 1.355 . S
C927 C929 1.415 . S
C928 C927 1.355 . S
C928 C930 1.419 . S
C929 C924 1.425 . S
C929 C926 1.409 . S
C929 C927 1.415 . S
C930 H920 0.930 . S
C930 C928 1.419 . S
C930 C931 1.362 . S
C931 H921 0.930 . S
C931 C924 1.409 . S
C931 C930 1.362 . S
H932 C938 0.930 . S
H933 C941 0.926 . S
H934 C942 0.930 . S
H935 C943 0.930 . S
H936 C946 0.930 . S
H937 C947 0.930 . S
C938 H932 0.930 . S
C938 C939 1.355 . S
C938 C940 1.415 . S
C939 C938 1.355 . S
C939 C941 1.422 1_545 S
C940 C938 1.415 . S
C940 C945 1.425 . S
C940 C947 1.409 . S
C941 H933 0.926 . S
C941 C939 1.422 1_565 S
C941 C942 1.364 1_565 S
C942 H934 0.930 . S
C942 C941 1.364 1_545 S
C942 C945 1.409 . S
C943 H935 0.930 . S
C943 C944 1.355 . S
C943 C945 1.415 . S
C944 C943 1.355 . S
C944 C946 1.419 . S
C945 C940 1.425 . S
C945 C942 1.409 . S
C945 C943 1.415 . S
C946 H936 0.930 . S
C946 C944 1.419 . S
C946 C947 1.362 . S
C947 H937 0.930 . S
C947 C940 1.409 . S
C947 C946 1.362 . S
H948 C954 0.930 . S
H949 C957 0.930 . S
H950 C958 0.930 . S
H951 C959 0.930 . S
H952 C962 0.930 . S
H953 C963 0.930 . S
C954 H948 0.930 . S
C954 C955 1.355 . S
C954 C956 1.415 . S
C955 C954 1.355 . S
C955 C957 1.419 . S
C956 C954 1.415 . S
C956 C961 1.425 . S
C956 C963 1.409 . S
C957 H949 0.930 . S
C957 C955 1.419 . S
C957 C958 1.362 . S
C958 H950 0.930 . S
C958 C957 1.362 . S
C958 C961 1.409 . S
C959 H951 0.930 . S
C959 C960 1.355 . S
C959 C961 1.415 . S
C960 C959 1.355 . S
C960 C962 1.419 . S
C961 C956 1.425 . S
C961 C958 1.409 . S
C961 C959 1.415 . S
C962 H952 0.930 . S
C962 C960 1.419 . S
C962 C963 1.362 . S
C963 H953 0.930 . S
C963 C956 1.409 . S
C963 C962 1.362 . S
H964 C970 0.930 . S
H965 C973 0.930 . S
H966 C974 0.930 . S
H967 C975 0.930 . S
H968 C978 0.930 . S
H969 C979 0.930 . S
C970 H964 0.930 . S
C970 C971 1.355 . S
C970 C972 1.415 . S
C971 C970 1.355 . S
C971 C973 1.419 . S
C972 C970 1.415 . S
C972 C977 1.425 . S
C972 C979 1.409 . S
C973 H965 0.930 . S
C973 C971 1.419 . S
C973 C974 1.362 . S
C974 H966 0.930 . S
C974 C973 1.362 . S
C974 C977 1.409 . S
C975 H967 0.930 . S
C975 C976 1.355 . S
C975 C977 1.415 . S
C976 C975 1.355 . S
C976 C978 1.419 . S
C977 C972 1.425 . S
C977 C974 1.409 . S
C977 C975 1.415 . S
C978 H968 0.930 . S
C978 C976 1.419 . S
C978 C979 1.362 . S
C979 H969 0.930 . S
C979 C972 1.409 . S
C979 C978 1.362 . S
H980 C986 0.930 . S
H981 C989 0.930 . S
H982 C990 0.930 . S
H983 C991 0.930 . S
H984 C994 0.930 . S
H985 C995 0.930 . S
C986 H980 0.930 . S
C986 C987 1.355 . S
C986 C988 1.415 . S
C987 C986 1.355 . S
C987 C989 1.419 . S
C988 C986 1.415 . S
C988 C993 1.425 . S
C988 C995 1.409 . S
C989 H981 0.930 . S
C989 C987 1.419 . S
C989 C990 1.362 . S
C990 H982 0.930 . S
C990 C989 1.362 . S
C990 C993 1.409 . S
C991 H983 0.930 . S
C991 C992 1.355 . S
C991 C993 1.415 . S
C992 C991 1.355 . S
C992 C994 1.419 . S
C993 C988 1.425 . S
C993 C990 1.409 . S
C993 C991 1.415 . S
C994 H984 0.930 . S
C994 C992 1.419 . S
C994 C995 1.362 . S
C995 H985 0.930 . S
C995 C988 1.409 . S
C995 C994 1.362 . S
H996 C1002 0.930 . S
H997 C1005 0.930 . S
H998 C1006 0.930 . S
H999 C1007 0.930 . S
H1000 C1010 0.930 . S
H1001 C1011 0.930 . S
C1002 H996 0.930 . S
C1002 C1003 1.355 . S
C1002 C1004 1.415 . S
C1003 C1002 1.355 . S
C1003 C1005 1.419 . S
C1004 C1002 1.415 . S
C1004 C1009 1.425 . S
C1004 C1011 1.409 . S
C1005 H997 0.930 . S
C1005 C1003 1.419 . S
C1005 C1006 1.362 . S
C1006 H998 0.930 . S
C1006 C1005 1.362 . S
C1006 C1009 1.409 . S
C1007 H999 0.930 . S
C1007 C1008 1.355 . S
C1007 C1009 1.415 . S
C1008 C1007 1.355 . S
C1008 C1010 1.419 . S
C1009 C1004 1.425 . S
C1009 C1006 1.409 . S
C1009 C1007 1.415 . S
C1010 H1000 0.930 . S
C1010 C1008 1.419 . S
C1010 C1011 1.362 . S
C1011 H1001 0.930 . S
C1011 C1004 1.409 . S
C1011 C1010 1.362 . S
H1012 C1018 0.930 . S
H1013 C1021 0.930 . S
H1014 C1022 0.930 . S
H1015 C1023 0.930 . S
H1016 C1026 0.930 . S
H1017 C1027 0.930 . S
C1018 H1012 0.930 . S
C1018 C1019 1.355 . S
C1018 C1020 1.415 . S
C1019 C1018 1.355 . S
C1019 C1021 1.419 . S
C1020 C1018 1.415 . S
C1020 C1025 1.425 . S
C1020 C1027 1.409 . S
C1021 H1013 0.930 . S
C1021 C1019 1.419 . S
C1021 C1022 1.362 . S
C1022 H1014 0.930 . S
C1022 C1021 1.362 . S
C1022 C1025 1.409 . S
C1023 H1015 0.930 . S
C1023 C1024 1.355 . S
C1023 C1025 1.415 . S
C1024 C1023 1.355 . S
C1024 C1026 1.419 . S
C1025 C1020 1.425 . S
C1025 C1022 1.409 . S
C1025 C1023 1.415 . S
C1026 H1016 0.930 . S
C1026 C1024 1.419 . S
C1026 C1027 1.362 . S
C1027 H1017 0.930 . S
C1027 C1020 1.409 . S
C1027 C1026 1.362 . S
H1028 C1034 0.930 . S
H1029 C1037 0.930 . S
H1030 C1038 0.930 . S
H1031 C1039 0.930 . S
H1032 C1042 0.930 . S
H1033 C1043 0.930 . S
C1034 H1028 0.930 . S
C1034 C1035 1.355 . S
C1034 C1036 1.415 . S
C1035 C1034 1.355 . S
C1035 C1037 1.419 . S
C1036 C1034 1.415 . S
C1036 C1041 1.425 . S
C1036 C1043 1.409 . S
C1037 H1029 0.930 . S
C1037 C1035 1.419 . S
C1037 C1038 1.362 . S
C1038 H1030 0.930 . S
C1038 C1037 1.362 . S
C1038 C1041 1.409 . S
C1039 H1031 0.930 . S
C1039 C1040 1.355 . S
C1039 C1041 1.415 . S
C1040 C1039 1.355 . S
C1040 C1042 1.419 . S
C1041 C1036 1.425 . S
C1041 C1038 1.409 . S
C1041 C1039 1.415 . S
C1042 H1032 0.930 . S
C1042 C1040 1.419 . S
C1042 C1043 1.362 . S
C1043 H1033 0.930 . S
C1043 C1036 1.409 . S
C1043 C1042 1.362 . S
H1044 C1050 0.930 . S
H1045 C1053 0.930 . S
H1046 C1054 0.930 . S
H1047 C1055 0.930 . S
H1048 C1058 0.930 . S
H1049 C1059 0.930 . S
C1050 H1044 0.930 . S
C1050 C1051 1.355 . S
C1050 C1052 1.415 . S
C1051 C1050 1.355 . S
C1051 C1053 1.419 . S
C1052 C1050 1.415 . S
C1052 C1057 1.425 . S
C1052 C1059 1.409 . S
C1053 H1045 0.930 . S
C1053 C1051 1.419 . S
C1053 C1054 1.362 . S
C1054 H1046 0.930 . S
C1054 C1053 1.362 . S
C1054 C1057 1.409 . S
C1055 H1047 0.930 . S
C1055 C1056 1.355 . S
C1055 C1057 1.415 . S
C1056 C1055 1.355 . S
C1056 C1058 1.419 . S
C1057 C1052 1.425 . S
C1057 C1054 1.409 . S
C1057 C1055 1.415 . S
C1058 H1048 0.930 . S
C1058 C1056 1.419 . S
C1058 C1059 1.362 . S
C1059 H1049 0.930 . S
C1059 C1052 1.409 . S
C1059 C1058 1.362 . S
H1060 C1066 0.930 . S
H1061 C1069 0.930 . S
H1062 C1070 0.930 . S
H1063 C1071 0.930 . S
H1064 C1074 0.930 . S
H1065 C1075 0.930 . S
C1066 H1060 0.930 . S
C1066 C1067 1.355 . S
C1066 C1068 1.415 . S
C1067 C1066 1.355 . S
C1067 C1069 1.419 . S
C1068 C1066 1.415 . S
C1068 C1073 1.425 . S
C1068 C1075 1.409 . S
C1069 H1061 0.930 . S
C1069 C1067 1.419 . S
C1069 C1070 1.362 . S
C1070 H1062 0.930 . S
C1070 C1069 1.362 . S
C1070 C1073 1.409 . S
C1071 H1063 0.930 . S
C1071 C1072 1.355 . S
C1071 C1073 1.415 . S
C1072 C1071 1.355 . S
C1072 C1074 1.419 . S
C1073 C1068 1.425 . S
C1073 C1070 1.409 . S
C1073 C1071 1.415 . S
C1074 H1064 0.930 . S
C1074 C1072 1.419 . S
C1074 C1075 1.362 . S
C1075 H1065 0.930 . S
C1075 C1068 1.409 . S
C1075 C1074 1.362 . S
H1076 C1082 0.930 . S
H1077 C1085 0.930 . S
H1078 C1086 0.930 . S
H1079 C1087 0.930 . S
H1080 C1090 0.930 . S
H1081 C1091 0.930 . S
C1082 H1076 0.930 . S
C1082 C1083 1.355 . S
C1082 C1084 1.415 . S
C1083 C1082 1.355 . S
C1083 C1085 1.419 . S
C1084 C1082 1.415 . S
C1084 C1089 1.425 . S
C1084 C1091 1.409 . S
C1085 H1077 0.930 . S
C1085 C1083 1.419 . S
C1085 C1086 1.362 . S
C1086 H1078 0.930 . S
C1086 C1085 1.362 . S
C1086 C1089 1.409 . S
C1087 H1079 0.930 . S
C1087 C1088 1.355 . S
C1087 C1089 1.415 . S
C1088 C1087 1.355 . S
C1088 C1090 1.419 . S
C1089 C1084 1.425 . S
C1089 C1086 1.409 . S
C1089 C1087 1.415 . S
C1090 H1080 0.930 . S
C1090 C1088 1.419 . S
C1090 C1091 1.362 . S
C1091 H1081 0.930 . S
C1091 C1084 1.409 . S
C1091 C1090 1.362 . S
H1092 C1098 0.930 . S
H1093 C1101 0.930 . S
H1094 C1102 0.930 . S
H1095 C1103 0.930 . S
H1096 C1106 0.930 . S
H1097 C1107 0.930 . S
C1098 H1092 0.930 . S
C1098 C1099 1.355 . S
C1098 C1100 1.415 . S
C1099 C1098 1.355 . S
C1099 C1101 1.419 . S
C1100 C1098 1.415 . S
C1100 C1105 1.425 . S
C1100 C1107 1.409 . S
C1101 H1093 0.930 . S
C1101 C1099 1.419 . S
C1101 C1102 1.362 . S
C1102 H1094 0.930 . S
C1102 C1101 1.362 . S
C1102 C1105 1.409 . S
C1103 H1095 0.930 . S
C1103 C1104 1.355 . S
C1103 C1105 1.415 . S
C1104 C1103 1.355 . S
C1104 C1106 1.419 . S
C1105 C1100 1.425 . S
C1105 C1102 1.409 . S
C1105 C1103 1.415 . S
C1106 H1096 0.930 . S
C1106 C1104 1.419 . S
C1106 C1107 1.362 . S
C1107 H1097 0.930 . S
C1107 C1100 1.409 . S
C1107 C1106 1.362 . S
H1108 C1114 0.930 . S
H1109 C1117 0.930 . S
H1110 C1118 0.930 . S
H1111 C1119 0.930 . S
H1112 C1122 0.930 . S
H1113 C1123 0.930 . S
C1114 H1108 0.930 . S
C1114 C1115 1.355 . S
C1114 C1116 1.415 . S
C1115 C1114 1.355 . S
C1115 C1117 1.419 . S
C1116 C1114 1.415 . S
C1116 C1121 1.425 . S
C1116 C1123 1.409 . S
C1117 H1109 0.930 . S
C1117 C1115 1.419 . S
C1117 C1118 1.362 . S
C1118 H1110 0.930 . S
C1118 C1117 1.362 . S
C1118 C1121 1.409 . S
C1119 H1111 0.930 . S
C1119 C1120 1.355 . S
C1119 C1121 1.415 . S
C1120 C1119 1.355 . S
C1120 C1122 1.419 . S
C1121 C1116 1.425 . S
C1121 C1118 1.409 . S
C1121 C1119 1.415 . S
C1122 H1112 0.930 . S
C1122 C1120 1.419 . S
C1122 C1123 1.362 . S
C1123 H1113 0.930 . S
C1123 C1116 1.409 . S
C1123 C1122 1.362 . S
H1124 C1130 0.930 . S
H1125 C1133 0.930 . S
H1126 C1134 0.930 . S
H1127 C1135 0.930 . S
H1128 C1138 0.930 . S
H1129 C1139 0.930 . S
C1130 H1124 0.930 . S
C1130 C1131 1.355 . S
C1130 C1132 1.415 . S
C1131 C1130 1.355 . S
C1131 C1133 1.419 . S
C1132 C1130 1.415 . S
C1132 C1137 1.425 . S
C1132 C1139 1.409 . S
C1133 H1125 0.930 . S
C1133 C1131 1.419 . S
C1133 C1134 1.362 . S
C1134 H1126 0.930 . S
C1134 C1133 1.362 . S
C1134 C1137 1.409 . S
C1135 H1127 0.930 . S
C1135 C1136 1.355 . S
C1135 C1137 1.415 . S
C1136 C1135 1.355 . S
C1136 C1138 1.419 . S
C1137 C1132 1.425 . S
C1137 C1134 1.409 . S
C1137 C1135 1.415 . S
C1138 H1128 0.930 . S
C1138 C1136 1.419 . S
C1138 C1139 1.362 . S
C1139 H1129 0.930 . S
C1139 C1132 1.409 . S
C1139 C1138 1.362 . S
H1140 C1146 0.930 . S
H1141 C1149 0.930 . S
H1142 C1150 0.930 . S
H1143 C1151 0.930 . S
H1144 C1154 0.930 . S
H1145 C1155 0.930 . S
C1146 H1140 0.930 . S
C1146 C1147 1.355 . S
C1146 C1148 1.415 . S
C1147 C1146 1.355 . S
C1147 C1149 1.419 . S
C1148 C1146 1.415 . S
C1148 C1153 1.425 . S
C1148 C1155 1.409 . S
C1149 H1141 0.930 . S
C1149 C1147 1.419 . S
C1149 C1150 1.362 . S
C1150 H1142 0.930 . S
C1150 C1149 1.362 . S
C1150 C1153 1.409 . S
C1151 H1143 0.930 . S
C1151 C1152 1.355 . S
C1151 C1153 1.415 . S
C1152 C1151 1.355 . S
C1152 C1154 1.419 . S
C1153 C1148 1.425 . S
C1153 C1150 1.409 . S
C1153 C1151 1.415 . S
C1154 H1144 0.930 . S
C1154 C1152 1.419 . S
C1154 C1155 1.362 . S
C1155 H1145 0.930 . S
C1155 C1148 1.409 . S
C1155 C1154 1.362 . S
H1156 C1162 0.930 . S
H1157 C1165 0.930 . S
H1158 C1166 0.930 . S
H1159 C1167 0.930 . S
H1160 C1170 0.930 . S
H1161 C1171 0.930 . S
C1162 H1156 0.930 . S
C1162 C1163 1.355 . S
C1162 C1164 1.415 . S
C1163 C1162 1.355 . S
C1163 C1165 1.419 . S
C1164 C1162 1.415 . S
C1164 C1169 1.425 . S
C1164 C1171 1.409 . S
C1165 H1157 0.930 . S
C1165 C1163 1.419 . S
C1165 C1166 1.362 . S
C1166 H1158 0.930 . S
C1166 C1165 1.362 . S
C1166 C1169 1.409 . S
C1167 H1159 0.930 . S
C1167 C1168 1.355 . S
C1167 C1169 1.415 . S
C1168 C1167 1.355 . S
C1168 C1170 1.419 . S
C1169 C1164 1.425 . S
C1169 C1166 1.409 . S
C1169 C1167 1.415 . S
C1170 H1160 0.930 . S
C1170 C1168 1.419 . S
C1170 C1171 1.362 . S
C1171 H1161 0.930 . S
C1171 C1164 1.409 . S
C1171 C1170 1.362 . S
H1172 C1178 0.930 . S
H1173 C1181 0.930 . S
H1174 C1182 0.930 . S
H1175 C1183 0.930 . S
H1176 C1186 0.930 . S
H1177 C1187 0.930 . S
C1178 H1172 0.930 . S
C1178 C1179 1.355 . S
C1178 C1180 1.415 . S
C1179 C1178 1.355 . S
C1179 C1181 1.419 . S
C1180 C1178 1.415 . S
C1180 C1185 1.425 . S
C1180 C1187 1.409 . S
C1181 H1173 0.930 . S
C1181 C1179 1.419 . S
C1181 C1182 1.362 . S
C1182 H1174 0.930 . S
C1182 C1181 1.362 . S
C1182 C1185 1.409 . S
C1183 H1175 0.930 . S
C1183 C1184 1.355 . S
C1183 C1185 1.415 . S
C1184 C1183 1.355 . S
C1184 C1186 1.419 . S
C1185 C1180 1.425 . S
C1185 C1182 1.409 . S
C1185 C1183 1.415 . S
C1186 H1176 0.930 . S
C1186 C1184 1.419 . S
C1186 C1187 1.362 . S
C1187 H1177 0.930 . S
C1187 C1180 1.409 . S
C1187 C1186 1.362 . S
H1188 C1194 0.930 . S
H1189 C1197 0.930 . S
H1190 C1198 0.930 . S
H1191 C1199 0.930 . S
H1192 C1202 0.930 . S
H1193 C1203 0.930 . S
C1194 H1188 0.930 . S
C1194 C1195 1.355 . S
C1194 C1196 1.415 . S
C1195 C1194 1.355 . S
C1195 C1197 1.419 . S
C1196 C1194 1.415 . S
C1196 C1201 1.425 . S
C1196 C1203 1.409 . S
C1197 H1189 0.930 . S
C1197 C1195 1.419 . S
C1197 C1198 1.362 . S
C1198 H1190 0.930 . S
C1198 C1197 1.362 . S
C1198 C1201 1.409 . S
C1199 H1191 0.930 . S
C1199 C1200 1.355 . S
C1199 C1201 1.415 . S
C1200 C1199 1.355 . S
C1200 C1202 1.419 . S
C1201 C1196 1.425 . S
C1201 C1198 1.409 . S
C1201 C1199 1.415 . S
C1202 H1192 0.930 . S
C1202 C1200 1.419 . S
C1202 C1203 1.362 . S
C1203 H1193 0.930 . S
C1203 C1196 1.409 . S
C1203 C1202 1.362 . S
H1204 C1210 0.930 . S
H1205 C1213 0.930 . S
H1206 C1214 0.930 . S
H1207 C1215 0.930 . S
H1208 C1218 0.930 . S
H1209 C1219 0.930 . S
C1210 H1204 0.930 . S
C1210 C1211 1.355 . S
C1210 C1212 1.415 . S
C1211 C1210 1.355 . S
C1211 C1213 1.419 . S
C1212 C1210 1.415 . S
C1212 C1217 1.425 . S
C1212 C1219 1.409 . S
C1213 H1205 0.930 . S
C1213 C1211 1.419 . S
C1213 C1214 1.362 . S
C1214 H1206 0.930 . S
C1214 C1213 1.362 . S
C1214 C1217 1.409 . S
C1215 H1207 0.930 . S
C1215 C1216 1.355 . S
C1215 C1217 1.415 . S
C1216 C1215 1.355 . S
C1216 C1218 1.419 . S
C1217 C1212 1.425 . S
C1217 C1214 1.409 . S
C1217 C1215 1.415 . S
C1218 H1208 0.930 . S
C1218 C1216 1.419 . S
C1218 C1219 1.362 . S
C1219 H1209 0.930 . S
C1219 C1212 1.409 . S
C1219 C1218 1.362 . S
H1220 C1226 0.930 . S
H1221 C1229 0.930 . S
H1222 C1230 0.930 . S
H1223 C1231 0.930 . S
H1224 C1234 0.930 . S
H1225 C1235 0.930 . S
C1226 H1220 0.930 . S
C1226 C1227 1.355 . S
C1226 C1228 1.415 . S
C1227 C1226 1.355 . S
C1227 C1229 1.419 . S
C1228 C1226 1.415 . S
C1228 C1233 1.425 . S
C1228 C1235 1.409 . S
C1229 H1221 0.930 . S
C1229 C1227 1.419 . S
C1229 C1230 1.362 . S
C1230 H1222 0.930 . S
C1230 C1229 1.362 . S
C1230 C1233 1.409 . S
C1231 H1223 0.930 . S
C1231 C1232 1.355 . S
C1231 C1233 1.415 . S
C1232 C1231 1.355 . S
C1232 C1234 1.419 . S
C1233 C1228 1.425 . S
C1233 C1230 1.409 . S
C1233 C1231 1.415 . S
C1234 H1224 0.930 . S
C1234 C1232 1.419 . S
C1234 C1235 1.362 . S
C1235 H1225 0.930 . S
C1235 C1228 1.409 . S
C1235 C1234 1.362 . S
H1236 C1242 0.930 . S
H1237 C1245 0.930 . S
H1238 C1246 0.930 . S
H1239 C1247 0.930 . S
H1240 C1250 0.930 . S
H1241 C1251 0.930 . S
C1242 H1236 0.930 . S
C1242 C1243 1.355 . S
C1242 C1244 1.415 . S
C1243 C1242 1.355 . S
C1243 C1245 1.419 . S
C1244 C1242 1.415 . S
C1244 C1249 1.425 . S
C1244 C1251 1.409 . S
C1245 H1237 0.930 . S
C1245 C1243 1.419 . S
C1245 C1246 1.362 . S
C1246 H1238 0.930 . S
C1246 C1245 1.362 . S
C1246 C1249 1.409 . S
C1247 H1239 0.930 . S
C1247 C1248 1.355 . S
C1247 C1249 1.415 . S
C1248 C1247 1.355 . S
C1248 C1250 1.419 . S
C1249 C1244 1.425 . S
C1249 C1246 1.409 . S
C1249 C1247 1.415 . S
C1250 H1240 0.930 . S
C1250 C1248 1.419 . S
C1250 C1251 1.362 . S
C1251 H1241 0.930 . S
C1251 C1244 1.409 . S
C1251 C1250 1.362 . S
H1252 C1258 0.930 . S
H1253 C1261 0.930 . S
H1254 C1262 0.930 . S
H1255 C1263 0.930 . S
H1256 C1266 0.930 . S
H1257 C1267 0.930 . S
C1258 H1252 0.930 . S
C1258 C1259 1.355 . S
C1258 C1260 1.415 . S
C1259 C1258 1.355 . S
C1259 C1261 1.419 . S
C1260 C1258 1.415 . S
C1260 C1265 1.425 . S
C1260 C1267 1.409 . S
C1261 H1253 0.930 . S
C1261 C1259 1.419 . S
C1261 C1262 1.362 . S
C1262 H1254 0.930 . S
C1262 C1261 1.362 . S
C1262 C1265 1.409 . S
C1263 H1255 0.930 . S
C1263 C1264 1.355 . S
C1263 C1265 1.415 . S
C1264 C1263 1.355 . S
C1264 C1266 1.419 . S
C1265 C1260 1.425 . S
C1265 C1262 1.409 . S
C1265 C1263 1.415 . S
C1266 H1256 0.930 . S
C1266 C1264 1.419 . S
C1266 C1267 1.362 . S
C1267 H1257 0.930 . S
C1267 C1260 1.409 . S
C1267 C1266 1.362 . S
H1268 C1274 0.930 . S
H1269 C1277 0.930 . S
H1270 C1278 0.930 . S
H1271 C1279 0.930 . S
H1272 C1282 0.930 . S
H1273 C1283 0.930 . S
C1274 H1268 0.930 . S
C1274 C1275 1.355 . S
C1274 C1276 1.415 . S
C1275 C1274 1.355 . S
C1275 C1277 1.419 . S
C1276 C1274 1.415 . S
C1276 C1281 1.425 . S
C1276 C1283 1.409 . S
C1277 H1269 0.930 . S
C1277 C1275 1.419 . S
C1277 C1278 1.362 . S
C1278 H1270 0.930 . S
C1278 C1277 1.362 . S
C1278 C1281 1.409 . S
C1279 H1271 0.930 . S
C1279 C1280 1.355 . S
C1279 C1281 1.415 . S
C1280 C1279 1.355 . S
C1280 C1282 1.419 . S
C1281 C1276 1.425 . S
C1281 C1278 1.409 . S
C1281 C1279 1.415 . S
C1282 H1272 0.930 . S
C1282 C1280 1.419 . S
C1282 C1283 1.362 . S
C1283 H1273 0.930 . S
C1283 C1276 1.409 . S
C1283 C1282 1.362 . S
H1284 C1290 0.930 . S
H1285 C1293 0.930 . S
H1286 C1294 0.930 . S
H1287 C1295 0.930 . S
H1288 C1298 0.930 . S
H1289 C1299 0.930 . S
C1290 H1284 0.930 . S
C1290 C1291 1.355 . S
C1290 C1292 1.415 . S
C1291 C1290 1.355 . S
C1291 C1293 1.419 . S
C1292 C1290 1.415 . S
C1292 C1297 1.425 . S
C1292 C1299 1.409 . S
C1293 H1285 0.930 . S
C1293 C1291 1.419 . S
C1293 C1294 1.362 . S
C1294 H1286 0.930 . S
C1294 C1293 1.362 . S
C1294 C1297 1.409 . S
C1295 H1287 0.930 . S
C1295 C1296 1.355 . S
C1295 C1297 1.415 . S
C1296 C1295 1.355 . S
C1296 C1298 1.419 . S
C1297 C1292 1.425 . S
C1297 C1294 1.409 . S
C1297 C1295 1.415 . S
C1298 H1288 0.930 . S
C1298 C1296 1.419 . S
C1298 C1299 1.362 . S
C1299 H1289 0.930 . S
C1299 C1292 1.409 . S
C1299 C1298 1.362 . S
H1300 C1306 0.930 . S
H1301 C1309 0.930 . S
H1302 C1310 0.930 . S
H1303 C1311 0.930 . S
H1304 C1314 0.930 . S
H1305 C1315 0.930 . S
C1306 H1300 0.930 . S
C1306 C1307 1.355 . S
C1306 C1308 1.415 . S
C1307 C1306 1.355 . S
C1307 C1309 1.419 . S
C1308 C1306 1.415 . S
C1308 C1313 1.425 . S
C1308 C1315 1.409 . S
C1309 H1301 0.930 . S
C1309 C1307 1.419 . S
C1309 C1310 1.362 . S
C1310 H1302 0.930 . S
C1310 C1309 1.362 . S
C1310 C1313 1.409 . S
C1311 H1303 0.930 . S
C1311 C1312 1.355 . S
C1311 C1313 1.415 . S
C1312 C1311 1.355 . S
C1312 C1314 1.419 . S
C1313 C1308 1.425 . S
C1313 C1310 1.409 . S
C1313 C1311 1.415 . S
C1314 H1304 0.930 . S
C1314 C1312 1.419 . S
C1314 C1315 1.362 . S
C1315 H1305 0.930 . S
C1315 C1308 1.409 . S
C1315 C1314 1.362 . S
H1316 C1322 0.930 . S
H1317 C1325 0.930 . S
H1318 C1326 0.930 . S
H1319 C1327 0.930 . S
H1320 C1330 0.930 . S
H1321 C1331 0.930 . S
C1322 H1316 0.930 . S
C1322 C1323 1.355 . S
C1322 C1324 1.415 . S
C1323 C1322 1.355 . S
C1323 C1325 1.419 . S
C1324 C1322 1.415 . S
C1324 C1329 1.425 . S
C1324 C1331 1.409 . S
C1325 H1317 0.930 . S
C1325 C1323 1.419 . S
C1325 C1326 1.362 . S
C1326 H1318 0.930 . S
C1326 C1325 1.362 . S
C1326 C1329 1.409 . S
C1327 H1319 0.930 . S
C1327 C1328 1.355 . S
C1327 C1329 1.415 . S
C1328 C1327 1.355 . S
C1328 C1330 1.419 . S
C1329 C1324 1.425 . S
C1329 C1326 1.409 . S
C1329 C1327 1.415 . S
C1330 H1320 0.930 . S
C1330 C1328 1.419 . S
C1330 C1331 1.362 . S
C1331 H1321 0.930 . S
C1331 C1324 1.409 . S
C1331 C1330 1.362 . S
H1332 C1338 0.930 . S
H1333 C1341 0.930 . S
H1334 C1342 0.930 . S
H1335 C1343 0.930 . S
H1336 C1346 0.930 . S
H1337 C1347 0.930 . S
C1338 H1332 0.930 . S
C1338 C1339 1.355 . S
C1338 C1340 1.415 . S
C1339 C1338 1.355 . S
C1339 C1341 1.419 . S
C1340 C1338 1.415 . S
C1340 C1345 1.425 . S
C1340 C1347 1.409 . S
C1341 H1333 0.930 . S
C1341 C1339 1.419 . S
C1341 C1342 1.362 . S
C1342 H1334 0.930 . S
C1342 C1341 1.362 . S
C1342 C1345 1.409 . S
C1343 H1335 0.930 . S
C1343 C1344 1.355 . S
C1343 C1345 1.415 . S
C1344 C1343 1.355 . S
C1344 C1346 1.419 . S
C1345 C1340 1.425 . S
C1345 C1342 1.409 . S
C1345 C1343 1.415 . S
C1346 H1336 0.930 . S
C1346 C1344 1.419 . S
C1346 C1347 1.362 . S
C1347 H1337 0.930 . S
C1347 C1340 1.409 . S
C1347 C1346 1.362 . S
H1348 C1354 0.930 . S
H1349 C1357 0.930 . S
H1350 C1358 0.930 . S
H1351 C1359 0.930 . S
H1352 C1362 0.930 . S
H1353 C1363 0.930 . S
C1354 H1348 0.930 . S
C1354 C1355 1.355 . S
C1354 C1356 1.415 . S
C1355 C1354 1.355 . S
C1355 C1357 1.419 . S
C1356 C1354 1.415 . S
C1356 C1361 1.425 . S
C1356 C1363 1.409 . S
C1357 H1349 0.930 . S
C1357 C1355 1.419 . S
C1357 C1358 1.362 . S
C1358 H1350 0.930 . S
C1358 C1357 1.362 . S
C1358 C1361 1.409 . S
C1359 H1351 0.930 . S
C1359 C1360 1.355 1_565 S
C1359 C1361 1.415 . S
C1360 C1359 1.355 1_545 S
C1360 C1362 1.419 . S
C1361 C1356 1.425 . S
C1361 C1358 1.409 . S
C1361 C1359 1.415 . S
C1362 H1352 0.930 . S
C1362 C1360 1.419 . S
C1362 C1363 1.362 1_545 S
C1363 H1353 0.930 . S
C1363 C1356 1.409 . S
C1363 C1362 1.362 1_565 S
H1364 C1370 0.930 . S
H1365 C1373 0.930 . S
H1366 C1374 0.930 . S
H1367 C1375 0.930 . S
H1368 C1378 0.930 . S
H1369 C1379 0.930 . S
C1370 H1364 0.930 . S
C1370 C1371 1.355 1_455 S
C1370 C1372 1.415 . S
C1371 C1370 1.355 1_655 S
C1371 C1373 1.419 . S
C1372 C1370 1.415 . S
C1372 C1377 1.425 . S
C1372 C1379 1.409 . S
C1373 H1365 0.930 . S
C1373 C1371 1.419 . S
C1373 C1374 1.362 . S
C1374 H1366 0.930 . S
C1374 C1373 1.362 . S
C1374 C1377 1.409 1_655 S
C1375 H1367 0.930 . S
C1375 C1376 1.355 . S
C1375 C1377 1.415 . S
C1376 C1375 1.355 . S
C1376 C1378 1.419 . S
C1377 C1372 1.425 . S
C1377 C1374 1.409 1_455 S
C1377 C1375 1.415 . S
C1378 H1368 0.930 . S
C1378 C1376 1.419 . S
C1378 C1379 1.362 . S
C1379 H1369 0.930 . S
C1379 C1372 1.409 . S
C1379 C1378 1.362 . S
H1380 C1386 0.930 . S
H1381 C1389 0.930 . S
H1382 C1390 0.930 . S
H1383 C1391 0.930 . S
H1384 C1394 0.930 . S
H1385 C1395 0.930 . S
C1386 H1380 0.930 . S
C1386 C1387 1.355 . S
C1386 C1388 1.415 . S
C1387 C1386 1.355 . S
C1387 C1389 1.419 . S
C1388 C1386 1.415 . S
C1388 C1393 1.425 . S
C1388 C1395 1.409 . S
C1389 H1381 0.930 . S
C1389 C1387 1.419 . S
C1389 C1390 1.362 . S
C1390 H1382 0.930 . S
C1390 C1389 1.362 . S
C1390 C1393 1.409 . S
C1391 H1383 0.930 . S
C1391 C1392 1.355 . S
C1391 C1393 1.415 . S
C1392 C1391 1.355 . S
C1392 C1394 1.419 . S
C1393 C1388 1.425 . S
C1393 C1390 1.409 . S
C1393 C1391 1.415 . S
C1394 H1384 0.930 . S
C1394 C1392 1.419 . S
C1394 C1395 1.362 . S
C1395 H1385 0.930 . S
C1395 C1388 1.409 . S
C1395 C1394 1.362 . S
H1396 C1402 0.930 . S
H1397 C1405 0.930 . S
H1398 C1406 0.930 . S
H1399 C1407 0.930 . S
H1400 C1410 0.930 . S
H1401 C1411 0.930 . S
C1402 H1396 0.930 . S
C1402 C1403 1.355 . S
C1402 C1404 1.415 . S
C1403 C1402 1.355 . S
C1403 C1405 1.419 . S
C1404 C1402 1.415 . S
C1404 C1409 1.425 . S
C1404 C1411 1.409 1_545 S
C1405 H1397 0.930 . S
C1405 C1403 1.419 . S
C1405 C1406 1.362 . S
C1406 H1398 0.930 . S
C1406 C1405 1.362 . S
C1406 C1409 1.409 . S
C1407 H1399 0.930 . S
C1407 C1408 1.355 1_545 S
C1407 C1409 1.415 . S
C1408 C1407 1.355 1_565 S
C1408 C1410 1.419 . S
C1409 C1404 1.425 . S
C1409 C1406 1.409 . S
C1409 C1407 1.415 . S
C1410 H1400 0.930 . S
C1410 C1408 1.419 . S
C1410 C1411 1.362 . S
C1411 H1401 0.930 . S
C1411 C1404 1.409 1_565 S
C1411 C1410 1.362 . S
H1412 C1418 0.930 . S
H1413 C1421 0.930 . S
H1414 C1422 0.930 . S
H1415 C1423 0.930 . S
H1416 C1426 0.930 . S
H1417 C1427 0.930 . S
C1418 H1412 0.930 . S
C1418 C1419 1.355 1_655 S
C1418 C1420 1.415 . S
C1419 C1418 1.355 1_455 S
C1419 C1421 1.419 . S
C1420 C1418 1.415 . S
C1420 C1425 1.425 . S
C1420 C1427 1.409 . S
C1421 H1413 0.930 . S
C1421 C1419 1.419 . S
C1421 C1422 1.362 . S
C1422 H1414 0.930 . S
C1422 C1421 1.362 . S
C1422 C1425 1.409 1_455 S
C1423 H1415 0.930 . S
C1423 C1424 1.355 . S
C1423 C1425 1.415 . S
C1424 C1423 1.355 . S
C1424 C1426 1.419 . S
C1425 C1420 1.425 . S
C1425 C1422 1.409 1_655 S
C1425 C1423 1.415 . S
C1426 H1416 0.930 . S
C1426 C1424 1.419 . S
C1426 C1427 1.362 . S
C1427 H1417 0.930 . S
C1427 C1420 1.409 . S
C1427 C1426 1.362 . S
H1428 C1434 0.930 . S
H1429 C1437 0.930 . S
H1430 C1438 0.930 . S
H1431 C1439 0.930 . S
H1432 C1442 0.930 . S
H1433 C1443 0.930 . S
C1434 H1428 0.930 . S
C1434 C1435 1.355 . S
C1434 C1436 1.415 . S
C1435 C1434 1.355 . S
C1435 C1437 1.419 . S
C1436 C1434 1.415 . S
C1436 C1441 1.425 . S
C1436 C1443 1.409 . S
C1437 H1429 0.930 . S
C1437 C1435 1.419 . S
C1437 C1438 1.362 . S
C1438 H1430 0.930 . S
C1438 C1437 1.362 . S
C1438 C1441 1.409 . S
C1439 H1431 0.930 . S
C1439 C1440 1.355 . S
C1439 C1441 1.415 . S
C1440 C1439 1.355 . S
C1440 C1442 1.419 . S
C1441 C1436 1.425 . S
C1441 C1438 1.409 . S
C1441 C1439 1.415 . S
C1442 H1432 0.930 . S
C1442 C1440 1.419 . S
C1442 C1443 1.362 . S
C1443 H1433 0.930 . S
C1443 C1436 1.409 . S
C1443 C1442 1.362 . S
H1444 C1450 0.930 . S
H1445 C1453 0.930 . S
H1446 C1454 0.930 . S
H1447 C1455 0.930 . S
H1448 C1458 0.930 . S
H1449 C1459 0.930 . S
C1450 H1444 0.930 . S
C1450 C1451 1.355 . S
C1450 C1452 1.415 1_565 S
C1451 C1450 1.355 . S
C1451 C1453 1.419 1_565 S
C1452 C1450 1.415 1_545 S
C1452 C1457 1.425 . S
C1452 C1459 1.409 1_545 S
C1453 H1445 0.930 . S
C1453 C1451 1.419 1_545 S
C1453 C1454 1.362 . S
C1454 H1446 0.930 . S
C1454 C1453 1.362 . S
C1454 C1457 1.409 . S
C1455 H1447 0.930 . S
C1455 C1456 1.355 . S
C1455 C1457 1.415 . S
C1456 C1455 1.355 . S
C1456 C1458 1.419 . S
C1457 C1452 1.425 . S
C1457 C1454 1.409 . S
C1457 C1455 1.415 . S
C1458 H1448 0.930 . S
C1458 C1456 1.419 . S
C1458 C1459 1.362 1_545 S
C1459 H1449 0.930 . S
C1459 C1452 1.409 1_565 S
C1459 C1458 1.362 1_565 S
H1460 C1466 0.930 . S
H1461 C1469 0.930 . S
H1462 C1470 0.930 . S
H1463 C1471 0.930 . S
H1464 C1474 0.930 . S
H1465 C1475 0.936 . S
C1466 H1460 0.930 . S
C1466 C1467 1.355 . S
C1466 C1468 1.415 1_455 S
C1467 C1466 1.355 . S
C1467 C1469 1.419 1_455 S
C1468 C1466 1.415 1_655 S
C1468 C1473 1.425 . S
C1468 C1475 1.412 1_655 S
C1469 H1461 0.930 . S
C1469 C1467 1.419 1_655 S
C1469 C1470 1.362 . S
C1470 H1462 0.930 . S
C1470 C1469 1.362 . S
C1470 C1473 1.409 . S
C1471 H1463 0.930 . S
C1471 C1472 1.355 . S
C1471 C1473 1.415 . S
C1472 C1471 1.355 . S
C1472 C1474 1.419 . S
C1473 C1468 1.425 . S
C1473 C1470 1.409 . S
C1473 C1471 1.415 . S
C1474 H1464 0.930 . S
C1474 C1472 1.419 . S
C1474 C1475 1.354 1_655 S
C1475 H1465 0.936 . S
C1475 C1468 1.412 1_455 S
C1475 C1474 1.354 1_455 S
H1476 C1482 0.930 . S
H1477 C1485 0.930 . S
H1478 C1486 0.930 . S
H1479 C1487 0.930 . S
H1480 C1490 0.930 . S
H1481 C1491 0.930 . S
C1482 H1476 0.930 . S
C1482 C1483 1.355 . S
C1482 C1484 1.415 . S
C1483 C1482 1.355 . S
C1483 C1485 1.419 . S
C1484 C1482 1.415 . S
C1484 C1489 1.425 . S
C1484 C1491 1.409 . S
C1485 H1477 0.930 . S
C1485 C1483 1.419 . S
C1485 C1486 1.362 . S
C1486 H1478 0.930 . S
C1486 C1485 1.362 . S
C1486 C1489 1.409 . S
C1487 H1479 0.930 . S
C1487 C1488 1.355 . S
C1487 C1489 1.415 . S
C1488 C1487 1.355 . S
C1488 C1490 1.419 . S
C1489 C1484 1.425 . S
C1489 C1486 1.409 . S
C1489 C1487 1.415 . S
C1490 H1480 0.930 . S
C1490 C1488 1.419 . S
C1490 C1491 1.362 . S
C1491 H1481 0.930 . S
C1491 C1484 1.409 . S
C1491 C1490 1.362 . S
H1492 C1498 0.930 . S
H1493 C1501 0.930 . S
H1494 C1502 0.930 . S
H1495 C1503 0.930 . S
H1496 C1506 0.930 . S
H1497 C1507 0.930 . S
C1498 H1492 0.930 . S
C1498 C1499 1.355 1_565 S
C1498 C1500 1.415 . S
C1499 C1498 1.355 1_545 S
C1499 C1501 1.419 . S
C1500 C1498 1.415 . S
C1500 C1505 1.425 . S
C1500 C1507 1.409 . S
C1501 H1493 0.930 . S
C1501 C1499 1.419 . S
C1501 C1502 1.362 1_545 S
C1502 H1494 0.930 . S
C1502 C1501 1.362 1_565 S
C1502 C1505 1.409 . S
C1503 H1495 0.930 . S
C1503 C1504 1.355 . S
C1503 C1505 1.415 . S
C1504 C1503 1.355 . S
C1504 C1506 1.419 . S
C1505 C1500 1.425 . S
C1505 C1502 1.409 . S
C1505 C1503 1.415 . S
C1506 H1496 0.930 . S
C1506 C1504 1.419 . S
C1506 C1507 1.362 . S
C1507 H1497 0.930 . S
C1507 C1500 1.409 . S
C1507 C1506 1.362 . S
H1508 C1514 0.930 . S
H1509 C1517 0.930 . S
H1510 C1518 0.930 . S
H1511 C1519 0.930 . S
H1512 C1522 0.930 . S
H1513 C1523 0.930 . S
C1514 H1508 0.930 . S
C1514 C1515 1.355 . S
C1514 C1516 1.415 . S
C1515 C1514 1.355 . S
C1515 C1517 1.419 . S
C1516 C1514 1.415 . S
C1516 C1521 1.425 . S
C1516 C1523 1.409 1_455 S
C1517 H1509 0.930 . S
C1517 C1515 1.419 . S
C1517 C1518 1.362 . S
C1518 H1510 0.930 . S
C1518 C1517 1.362 . S
C1518 C1521 1.409 . S
C1519 H1511 0.930 . S
C1519 C1520 1.355 1_455 S
C1519 C1521 1.415 . S
C1520 C1519 1.355 1_655 S
C1520 C1522 1.419 . S
C1521 C1516 1.425 . S
C1521 C1518 1.409 . S
C1521 C1519 1.415 . S
C1522 H1512 0.930 . S
C1522 C1520 1.419 . S
C1522 C1523 1.362 . S
C1523 H1513 0.930 . S
C1523 C1516 1.409 1_655 S
C1523 C1522 1.362 . S
H1524 C1530 0.930 . S
H1525 C1533 0.930 . S
H1526 C1534 0.930 . S
H1527 C1535 0.930 . S
H1528 C1538 0.930 . S
H1529 C1539 0.930 . S
C1530 H1524 0.930 . S
C1530 C1531 1.355 . S
C1530 C1532 1.415 . S
C1531 C1530 1.355 . S
C1531 C1533 1.419 . S
C1532 C1530 1.415 . S
C1532 C1537 1.425 1_655 S
C1532 C1539 1.409 1_655 S
C1533 H1525 0.930 . S
C1533 C1531 1.419 . S
C1533 C1534 1.362 . S
C1534 H1526 0.930 . S
C1534 C1533 1.362 . S
C1534 C1537 1.409 1_655 S
C1535 H1527 0.930 . S
C1535 C1536 1.355 . S
C1535 C1537 1.415 . S
C1536 C1535 1.355 . S
C1536 C1538 1.419 . S
C1537 C1532 1.425 1_455 S
C1537 C1534 1.409 1_455 S
C1537 C1535 1.415 . S
C1538 H1528 0.930 . S
C1538 C1536 1.419 . S
C1538 C1539 1.362 . S
C1539 H1529 0.930 . S
C1539 C1532 1.409 1_455 S
C1539 C1538 1.362 . S
H1540 C1546 0.930 . S
H1541 C1549 0.930 . S
H1542 C1550 0.930 . S
H1543 C1551 0.930 . S
H1544 C1554 0.930 . S
H1545 C1555 0.930 . S
C1546 H1540 0.930 . S
C1546 C1547 1.355 . S
C1546 C1548 1.415 . S
C1547 C1546 1.355 . S
C1547 C1549 1.419 . S
C1548 C1546 1.415 . S
C1548 C1553 1.425 . S
C1548 C1555 1.409 . S
C1549 H1541 0.930 . S
C1549 C1547 1.419 . S
C1549 C1550 1.362 . S
C1550 H1542 0.930 . S
C1550 C1549 1.362 . S
C1550 C1553 1.409 . S
C1551 H1543 0.930 . S
C1551 C1552 1.355 . S
C1551 C1553 1.415 . S
C1552 C1551 1.355 . S
C1552 C1554 1.419 . S
C1553 C1548 1.425 . S
C1553 C1550 1.409 . S
C1553 C1551 1.415 . S
C1554 H1544 0.930 . S
C1554 C1552 1.419 . S
C1554 C1555 1.362 . S
C1555 H1545 0.930 . S
C1555 C1548 1.409 . S
C1555 C1554 1.362 . S
H1556 C1562 0.930 . S
H1557 C1565 0.930 . S
H1558 C1566 0.930 . S
H1559 C1567 0.930 . S
H1560 C1570 0.930 . S
H1561 C1571 0.930 . S
C1562 H1556 0.930 . S
C1562 C1563 1.355 . S
C1562 C1564 1.415 . S
C1563 C1562 1.355 . S
C1563 C1565 1.419 . S
C1564 C1562 1.415 . S
C1564 C1569 1.425 1_565 S
C1564 C1571 1.409 1_565 S
C1565 H1557 0.930 . S
C1565 C1563 1.419 . S
C1565 C1566 1.362 . S
C1566 H1558 0.930 . S
C1566 C1565 1.362 . S
C1566 C1569 1.409 1_565 S
C1567 H1559 0.930 . S
C1567 C1568 1.355 . S
C1567 C1569 1.415 . S
C1568 C1567 1.355 . S
C1568 C1570 1.419 . S
C1569 C1564 1.425 1_545 S
C1569 C1566 1.409 1_545 S
C1569 C1567 1.415 . S
C1570 H1560 0.930 . S
C1570 C1568 1.419 . S
C1570 C1571 1.362 . S
C1571 H1561 0.930 . S
C1571 C1564 1.409 1_545 S
C1571 C1570 1.362 . S
H1572 C1578 0.930 . S
H1573 C1581 0.930 . S
H1574 C1582 0.930 . S
H1575 C1583 0.930 . S
H1576 C1586 0.930 . S
H1577 C1587 0.930 . S
C1578 H1572 0.930 . S
C1578 C1579 1.355 . S
C1578 C1580 1.415 . S
C1579 C1578 1.355 . S
C1579 C1581 1.419 . S
C1580 C1578 1.415 . S
C1580 C1585 1.425 1_565 S
C1580 C1587 1.409 1_565 S
C1581 H1573 0.930 . S
C1581 C1579 1.419 . S
C1581 C1582 1.362 . S
C1582 H1574 0.930 . S
C1582 C1581 1.362 . S
C1582 C1585 1.409 1_565 S
C1583 H1575 0.930 . S
C1583 C1584 1.355 . S
C1583 C1585 1.415 . S
C1584 C1583 1.355 . S
C1584 C1586 1.419 . S
C1585 C1580 1.425 1_545 S
C1585 C1582 1.409 1_545 S
C1585 C1583 1.415 . S
C1586 H1576 0.930 . S
C1586 C1584 1.419 . S
C1586 C1587 1.362 . S
C1587 H1577 0.930 . S
C1587 C1580 1.409 1_545 S
C1587 C1586 1.362 . S
H1588 C1594 0.930 . S
H1589 C1597 0.930 . S
H1590 C1598 0.930 . S
H1591 C1599 0.930 . S
H1592 C1602 0.930 . S
H1593 C1603 0.930 . S
C1594 H1588 0.930 . S
C1594 C1595 1.355 . S
C1594 C1596 1.415 . S
C1595 C1594 1.355 . S
C1595 C1597 1.419 . S
C1596 C1594 1.415 . S
C1596 C1601 1.425 1_655 S
C1596 C1603 1.409 1_655 S
C1597 H1589 0.930 . S
C1597 C1595 1.419 . S
C1597 C1598 1.362 . S
C1598 H1590 0.930 . S
C1598 C1597 1.362 . S
C1598 C1601 1.409 1_655 S
C1599 H1591 0.930 . S
C1599 C1600 1.355 . S
C1599 C1601 1.415 . S
C1600 C1599 1.355 . S
C1600 C1602 1.419 . S
C1601 C1596 1.425 1_455 S
C1601 C1598 1.409 1_455 S
C1601 C1599 1.415 . S
C1602 H1592 0.930 . S
C1602 C1600 1.419 . S
C1602 C1603 1.362 . S
C1603 H1593 0.930 . S
C1603 C1596 1.409 1_455 S
C1603 C1602 1.362 . S
H1604 C1610 0.930 . S
H1605 C1613 0.930 . S
H1606 C1614 0.930 . S
H1607 C1615 0.930 . S
H1608 C1618 0.930 . S
H1609 C1619 0.930 . S
C1610 H1604 0.930 . S
C1610 C1611 1.355 . S
C1610 C1612 1.415 . S
C1611 C1610 1.355 . S
C1611 C1613 1.419 . S
C1612 C1610 1.415 . S
C1612 C1617 1.425 . S
C1612 C1619 1.409 . S
C1613 H1605 0.930 . S
C1613 C1611 1.419 . S
C1613 C1614 1.362 . S
C1614 H1606 0.930 . S
C1614 C1613 1.362 . S
C1614 C1617 1.409 . S
C1615 H1607 0.930 . S
C1615 C1616 1.355 . S
C1615 C1617 1.415 . S
C1616 C1615 1.355 . S
C1616 C1618 1.419 . S
C1617 C1612 1.425 . S
C1617 C1614 1.409 . S
C1617 C1615 1.415 . S
C1618 H1608 0.930 . S
C1618 C1616 1.419 . S
C1618 C1619 1.362 . S
C1619 H1609 0.930 . S
C1619 C1612 1.409 . S
C1619 C1618 1.362 . S
C475 C5 1.624 . S
C480 C237 1.624 . S
C491 C16 1.681 . S
C496 C252 1.681 . S
C507 C263 1.669 . S
C512 C29 1.677 . S
C523 C42 1.684 . S
C528 C432 1.633 . S
C539 C447 1.676 . S
C544 C55 1.676 . S
C555 C70 1.648 . S
C560 C458 1.648 . S
C571 C317 1.621 . S
C576 C81 1.621 . S
C587 C96 1.683 . S
C592 C328 1.683 . S
C603 C107 1.652 . S
C608 C341 1.681 . S
C619 C120 1.670 . S
C624 C198 1.676 . S
C635 C211 1.677 . S
C640 C135 1.677 . S
C651 C146 1.651 . S
C656 C226 1.651 . S
C667 C161 1.670 . S
C672 C393 1.670 . S
C683 C172 1.683 . S
C688 C408 1.683 . S
C699 C185 1.684 . S
C704 C419 1.634 . S
C715 C276 1.621 . S
C720 C354 1.683 . S
C731 C291 1.681 . S
C736 C367 1.681 . S
C747 C302 1.650 . S
C752 C382 1.650 . S
C763 C101 1.578 1_545 S
C768 C3 1.589 . S
C779 C105 1.590 1_655 S
C784 C18 1.492 . S
C795 C31 1.488 . S
C800 C79 1.580 . S
C811 C144 1.590 1_455 S
C816 C44 1.493 . S
C827 C118 1.588 . S
C832 C57 1.489 . S
C843 C140 1.592 1_565 S
C848 C68 1.580 . S
C859 C83 1.589 . S
C864 C14 1.578 1_565 S
C875 C94 1.559 . S
C880 C27 1.584 1_455 S
C891 C109 1.585 . S
C896 C10 1.592 . S
C907 C122 1.592 . S
C912 C75 1.584 1_655 S
C923 C40 1.579 . S
C928 C133 1.557 . S
C939 C53 1.593 1_545 S
C944 C148 1.580 . S
C955 C159 1.588 . S
C960 C257 1.579 . S
C971 C174 1.529 . S
C976 C261 1.588 . S
C987 C187 1.514 . S
C992 C235 1.591 . S
C1003 C300 1.571 . S
C1008 C200 1.497 . S
C1019 C213 1.490 . S
C1024 C274 1.578 . S
C1035 C296 1.589 . S
C1040 C224 1.589 . S
C1051 C239 1.588 . S
C1056 C170 1.579 . S
C1067 C183 1.592 . S
C1072 C250 1.530 . S
C1083 C166 1.592 . S
C1088 C265 1.586 . S
C1099 C278 1.594 . S
C1104 C231 1.568 . S
C1115 C289 1.559 . S
C1120 C196 1.584 . S
C1131 C304 1.586 . S
C1136 C209 1.581 . S
C1147 C413 1.593 . S
C1152 C315 1.580 . S
C1163 C330 1.512 . S
C1168 C417 1.591 . S
C1179 C343 1.510 . S
C1184 C391 1.592 . S
C1195 C456 1.592 . S
C1200 C356 1.501 . S
C1211 C430 1.570 . S
C1216 C369 1.499 . S
C1227 C452 1.578 . S
C1232 C380 1.589 . S
C1243 C326 1.594 . S
C1248 C395 1.580 . S
C1259 C339 1.579 . S
C1264 C406 1.557 . S
C1275 C322 1.559 . S
C1280 C421 1.592 . S
C1291 C434 1.581 . S
C1296 C387 1.588 . S
C1307 C352 1.580 . S
C1312 C445 1.514 . S
C1323 C460 1.591 . S
C1328 C365 1.577 . S
C1339 C1 1.718 . S
C1344 C378 1.721 . S
C1355 C361 1.645 . S
C1360 C23 1.636 . S
C1371 C36 1.645 . S
C1376 C374 1.661 . S
C1387 C49 1.649 . S
C1392 C179 1.667 . S
C1403 C192 1.699 . S
C1408 C62 1.682 . S
C1419 C66 1.758 . S
C1424 C157 1.752 . S
C1435 C309 1.760 . S
C1440 C88 1.755 . S
C1451 C92 1.675 . S
C1456 C283 1.739 . S
C1467 C114 1.721 . S
C1472 C287 1.639 . S
C1483 C127 1.757 . S
C1488 C404 1.705 . S
C1499 C131 1.710 . S
C1504 C426 1.762 . S
C1515 C400 1.749 . S
C1520 C153 1.755 . S
C1531 C205 1.675 . S
C1536 C335 1.656 . S
C1547 C348 1.646 . S
C1552 C218 1.662 . S
C1563 C313 1.755 . S
C1568 C222 1.759 . S
C1579 C465 1.721 . S
C1584 C244 1.718 . S
C1595 C248 1.684 . S
C1600 C439 1.748 . S
C1611 C270 1.737 . S
C1616 C443 1.672 . S
