# Generated by pormake.
# Topology cbo, (4)-cn, num edge types: 1
# Building blocks:
#     Node 0, Type 0, BuildingBlock: ICAMEG_clean_sbu_1, # of connection points: 4
#     Node 1, Type 0, BuildingBlock: ICAMEG_clean_sbu_1, # of connection points: 4
#     Node 2, Type 0, BuildingBlock: ICAMEG_clean_sbu_1, # of connection points: 4
#     Node 3, Type 0, BuildingBlock: ICAMEG_clean_sbu_1, # of connection points: 4
#     Node 4, Type 0, BuildingBlock: ICAMEG_clean_sbu_1, # of connection points: 4
#     Node 5, Type 0, BuildingBlock: ICAMEG_clean_sbu_1, # of connection points: 4
#     Node 6, Type 0, BuildingBlock: ICAMEG_clean_sbu_1, # of connection points: 4
#     Node 7, Type 0, BuildingBlock: ICAMEG_clean_sbu_1, # of connection points: 4
#     Node 8, Type 0, BuildingBlock: ICAMEG_clean_sbu_1, # of connection points: 4
#     Node 9, Type 0, BuildingBlock: ICAMEG_clean_sbu_1, # of connection points: 4
#     Node 10, Type 0, BuildingBlock: ICAMEG_clean_sbu_1, # of connection points: 4
#     Node 11, Type 0, BuildingBlock: ICAMEG_clean_sbu_1, # of connection points: 4
#     Node 12, Type 0, BuildingBlock: ICAMEG_clean_sbu_1, # of connection points: 4
#     Node 13, Type 0, BuildingBlock: ICAMEG_clean_sbu_1, # of connection points: 4
#     Node 14, Type 0, BuildingBlock: ICAMEG_clean_sbu_1, # of connection points: 4
#     Node 15, Type 0, BuildingBlock: ICAMEG_clean_sbu_1, # of connection points: 4
#     Node 16, Type 0, BuildingBlock: ICAMEG_clean_sbu_1, # of connection points: 4
#     Node 17, Type 0, BuildingBlock: ICAMEG_clean_sbu_1, # of connection points: 4
#     Node 18, Type 0, BuildingBlock: ICAMEG_clean_sbu_1, # of connection points: 4
#     Node 19, Type 0, BuildingBlock: ICAMEG_clean_sbu_1, # of connection points: 4
#     Node 20, Type 0, BuildingBlock: ICAMEG_clean_sbu_1, # of connection points: 4
#     Node 21, Type 0, BuildingBlock: ICAMEG_clean_sbu_1, # of connection points: 4
#     Node 22, Type 0, BuildingBlock: ICAMEG_clean_sbu_1, # of connection points: 4
#     Node 23, Type 0, BuildingBlock: ICAMEG_clean_sbu_1, # of connection points: 4
#     Edge 24, Type (0, 0), BuildingBlock: KIFKEQ_clean_linker_1, # of connection points: 2
#     Edge 25, Type (0, 0), BuildingBlock: KIFKEQ_clean_linker_1, # of connection points: 2
#     Edge 26, Type (0, 0), BuildingBlock: KIFKEQ_clean_linker_1, # of connection points: 2
#     Edge 27, Type (0, 0), BuildingBlock: KIFKEQ_clean_linker_1, # of connection points: 2
#     Edge 28, Type (0, 0), BuildingBlock: KIFKEQ_clean_linker_1, # of connection points: 2
#     Edge 29, Type (0, 0), BuildingBlock: KIFKEQ_clean_linker_1, # of connection points: 2
#     Edge 30, Type (0, 0), BuildingBlock: KIFKEQ_clean_linker_1, # of connection points: 2
#     Edge 31, Type (0, 0), BuildingBlock: KIFKEQ_clean_linker_1, # of connection points: 2
#     Edge 32, Type (0, 0), BuildingBlock: KIFKEQ_clean_linker_1, # of connection points: 2
#     Edge 33, Type (0, 0), BuildingBlock: KIFKEQ_clean_linker_1, # of connection points: 2
#     Edge 34, Type (0, 0), BuildingBlock: KIFKEQ_clean_linker_1, # of connection points: 2
#     Edge 35, Type (0, 0), BuildingBlock: KIFKEQ_clean_linker_1, # of connection points: 2
#     Edge 36, Type (0, 0), BuildingBlock: KIFKEQ_clean_linker_1, # of connection points: 2
#     Edge 37, Type (0, 0), BuildingBlock: KIFKEQ_clean_linker_1, # of connection points: 2
#     Edge 38, Type (0, 0), BuildingBlock: KIFKEQ_clean_linker_1, # of connection points: 2
#     Edge 39, Type (0, 0), BuildingBlock: KIFKEQ_clean_linker_1, # of connection points: 2
#     Edge 40, Type (0, 0), BuildingBlock: KIFKEQ_clean_linker_1, # of connection points: 2
#     Edge 41, Type (0, 0), BuildingBlock: KIFKEQ_clean_linker_1, # of connection points: 2
#     Edge 42, Type (0, 0), BuildingBlock: KIFKEQ_clean_linker_1, # of connection points: 2
#     Edge 43, Type (0, 0), BuildingBlock: KIFKEQ_clean_linker_1, # of connection points: 2
#     Edge 44, Type (0, 0), BuildingBlock: KIFKEQ_clean_linker_1, # of connection points: 2
#     Edge 45, Type (0, 0), BuildingBlock: KIFKEQ_clean_linker_1, # of connection points: 2
#     Edge 46, Type (0, 0), BuildingBlock: KIFKEQ_clean_linker_1, # of connection points: 2
#     Edge 47, Type (0, 0), BuildingBlock: KIFKEQ_clean_linker_1, # of connection points: 2
#     Edge 48, Type (0, 0), BuildingBlock: KIFKEQ_clean_linker_1, # of connection points: 2
#     Edge 49, Type (0, 0), BuildingBlock: KIFKEQ_clean_linker_1, # of connection points: 2
#     Edge 50, Type (0, 0), BuildingBlock: KIFKEQ_clean_linker_1, # of connection points: 2
#     Edge 51, Type (0, 0), BuildingBlock: KIFKEQ_clean_linker_1, # of connection points: 2
#     Edge 52, Type (0, 0), BuildingBlock: KIFKEQ_clean_linker_1, # of connection points: 2
#     Edge 53, Type (0, 0), BuildingBlock: KIFKEQ_clean_linker_1, # of connection points: 2
#     Edge 54, Type (0, 0), BuildingBlock: KIFKEQ_clean_linker_1, # of connection points: 2
#     Edge 55, Type (0, 0), BuildingBlock: KIFKEQ_clean_linker_1, # of connection points: 2
#     Edge 56, Type (0, 0), BuildingBlock: KIFKEQ_clean_linker_1, # of connection points: 2
#     Edge 57, Type (0, 0), BuildingBlock: KIFKEQ_clean_linker_1, # of connection points: 2
#     Edge 58, Type (0, 0), BuildingBlock: KIFKEQ_clean_linker_1, # of connection points: 2
#     Edge 59, Type (0, 0), BuildingBlock: KIFKEQ_clean_linker_1, # of connection points: 2
#     Edge 60, Type (0, 0), BuildingBlock: KIFKEQ_clean_linker_1, # of connection points: 2
#     Edge 61, Type (0, 0), BuildingBlock: KIFKEQ_clean_linker_1, # of connection points: 2
#     Edge 62, Type (0, 0), BuildingBlock: KIFKEQ_clean_linker_1, # of connection points: 2
#     Edge 63, Type (0, 0), BuildingBlock: KIFKEQ_clean_linker_1, # of connection points: 2
#     Edge 64, Type (0, 0), BuildingBlock: KIFKEQ_clean_linker_1, # of connection points: 2
#     Edge 65, Type (0, 0), BuildingBlock: KIFKEQ_clean_linker_1, # of connection points: 2
#     Edge 66, Type (0, 0), BuildingBlock: KIFKEQ_clean_linker_1, # of connection points: 2
#     Edge 67, Type (0, 0), BuildingBlock: KIFKEQ_clean_linker_1, # of connection points: 2
#     Edge 68, Type (0, 0), BuildingBlock: KIFKEQ_clean_linker_1, # of connection points: 2
#     Edge 69, Type (0, 0), BuildingBlock: KIFKEQ_clean_linker_1, # of connection points: 2
#     Edge 70, Type (0, 0), BuildingBlock: KIFKEQ_clean_linker_1, # of connection points: 2
#     Edge 71, Type (0, 0), BuildingBlock: KIFKEQ_clean_linker_1, # of connection points: 2
# Relax obj value: 0.090
# Max RMSD: 0.120
# Mean RMSD: 0.120
data_MOF--net-cbo--node1-ICAMEG_clean_sbu_1--edge1-KIFKEQ_clean_linker_1
_symmetry_space_group_name_H-M    P1
_symmetry_Int_Tables_number       1
_symmetry_cell_setting            triclinic
loop_
_symmetry_equiv_pos_as_xyz
'x, y, z'
_cell_length_a     56.487209
_cell_length_b     56.502429
_cell_length_c     56.541294
_cell_angle_alpha  89.989524
_cell_angle_beta   90.008668
_cell_angle_gamma 89.985866
loop_
_atom_site_label
_atom_site_type_symbol
_atom_site_fract_x
_atom_site_fract_y
_atom_site_fract_z
_atom_type_partial_charge
Co0 Co 0.16315 0.21015 0.36325 0.0
Co1 Co 0.12514 0.17681 0.32949 0.0
O2 O 0.13445 0.1912 0.35947 0.0
C3 C 0.17065 0.17537 0.40257 0.0
O4 O 0.17107 0.15793 0.38723 0.0
C5 C 0.07601 0.19322 0.32361 0.0
O6 O 0.08311 0.20134 0.30303 0.0
O7 O 0.12778 0.20812 0.31332 0.0
O8 O 0.15914 0.2246 0.33124 0.0
H9 H 0.13056 0.16259 0.24191 0.0
H10 H 0.12545 0.212 0.39972 0.0
O11 O 0.1676 0.19663 0.39569 0.0
H12 H 0.1346 0.29417 0.37176 0.0
H13 H 0.22027 0.26099 0.409 0.0
H14 H 0.20398 0.22227 0.33256 0.0
H15 H 0.15936 0.26224 0.35527 0.0
H16 H 0.18382 0.23765 0.40329 0.0
O17 O 0.09093 0.18338 0.33746 0.0
H18 H 0.14219 0.18031 0.28003 0.0
H19 H 0.08742 0.14256 0.31505 0.0
H20 H 0.24055 0.24557 0.33747 0.0
H21 H 0.10048 0.24344 0.41686 0.0
H22 H 0.24889 0.26515 0.37591 0.0
H23 H 0.10496 0.28487 0.40285 0.0
O24 O 0.18291 0.18458 0.34903 0.0
H25 H 0.10082 0.12233 0.39537 0.0
H26 H 0.1436 0.12824 0.31957 0.0
H27 H 0.14208 0.08994 0.34043 0.0
H28 H 0.12051 0.08679 0.37858 0.0
H29 H 0.10296 0.16035 0.37403 0.0
H30 H 0.07518 0.12445 0.27728 0.0
H31 H 0.09683 0.13443 0.24037 0.0
O32 O 0.15881 0.17002 0.32103 0.0
C33 C 0.14382 0.22396 0.31468 0.0
C34 C 0.12101 0.15807 0.25788 0.0
C35 C 0.08993 0.13666 0.27773 0.0
N36 N 0.11557 0.16241 0.29976 0.0
C37 C 0.12753 0.16803 0.27952 0.0
C38 C 0.09696 0.14695 0.29906 0.0
C39 C 0.10208 0.14228 0.25703 0.0
C40 C 0.12761 0.23001 0.39363 0.0
N41 N 0.14393 0.23528 0.37661 0.0
C42 C 0.11337 0.24772 0.40336 0.0
C43 C 0.11588 0.27096 0.39548 0.0
C44 C 0.1325 0.27619 0.37803 0.0
C45 C 0.14642 0.25802 0.36871 0.0
C46 C 0.21682 0.25259 0.39216 0.0
C47 C 0.20742 0.23083 0.34931 0.0
C48 C 0.19623 0.2393 0.38883 0.0
N49 N 0.19169 0.22875 0.36755 0.0
C50 C 0.22819 0.24396 0.352 0.0
C51 C 0.23286 0.25492 0.37358 0.0
C52 C 0.1792 0.17223 0.33048 0.0
C53 C 0.1102 0.12345 0.37872 0.0
C54 C 0.13424 0.12704 0.3362 0.0
C55 C 0.13339 0.10529 0.3479 0.0
C56 C 0.12128 0.10353 0.3693 0.0
N57 N 0.12321 0.14648 0.34549 0.0
C58 C 0.11139 0.14491 0.36651 0.0
Co59 Co 0.34622 0.79696 0.86149 0.0
Co60 Co 0.38227 0.83107 0.82685 0.0
O61 O 0.37373 0.81741 0.85737 0.0
C62 C 0.33688 0.83134 0.90083 0.0
O63 O 0.33497 0.84873 0.88554 0.0
C64 C 0.4282 0.80925 0.84094 0.0
O65 O 0.41745 0.78871 0.84264 0.0
O66 O 0.38208 0.7991 0.81177 0.0
O67 O 0.35072 0.78253 0.82957 0.0
H68 H 0.3764 0.84188 0.73882 0.0
H69 H 0.38438 0.79745 0.89751 0.0
O70 O 0.34133 0.81037 0.89388 0.0
H71 H 0.37959 0.71473 0.87012 0.0
H72 H 0.29231 0.74336 0.90799 0.0
H73 H 0.30579 0.78257 0.83124 0.0
H74 H 0.35269 0.74505 0.85393 0.0
H75 H 0.32741 0.76857 0.90183 0.0
O76 O 0.41664 0.8277 0.83508 0.0
H77 H 0.36518 0.82529 0.77758 0.0
H78 H 0.41909 0.86551 0.81115 0.0
H79 H 0.27056 0.75738 0.83658 0.0
H80 H 0.41149 0.76764 0.91432 0.0
H81 H 0.26364 0.73755 0.87518 0.0
H82 H 0.40922 0.72595 0.90058 0.0
O83 O 0.32514 0.82143 0.84718 0.0
H84 H 0.40165 0.89005 0.89046 0.0
H85 H 0.36125 0.87784 0.81411 0.0
H86 H 0.36002 0.91717 0.83298 0.0
H87 H 0.38037 0.92348 0.87141 0.0
H88 H 0.40229 0.85096 0.87105 0.0
H89 H 0.43101 0.8824 0.77272 0.0
H90 H 0.40953 0.87066 0.73622 0.0
O91 O 0.34823 0.8352 0.81798 0.0
C92 C 0.36629 0.78298 0.81325 0.0
C93 C 0.38584 0.8472 0.75461 0.0
C94 C 0.41651 0.86991 0.77363 0.0
N95 N 0.39133 0.84457 0.79663 0.0
C96 C 0.37953 0.83791 0.77661 0.0
C97 C 0.40971 0.86025 0.79533 0.0
C98 C 0.40445 0.86332 0.75316 0.0
C99 C 0.38316 0.7793 0.89158 0.0
N100 N 0.36688 0.77299 0.87485 0.0
C101 C 0.39861 0.76252 0.9011 0.0
C102 C 0.39734 0.73914 0.89336 0.0
C103 C 0.38073 0.73283 0.87627 0.0
C104 C 0.36558 0.7501 0.86713 0.0
C105 C 0.29515 0.75187 0.89107 0.0
C106 C 0.30297 0.77392 0.84805 0.0
C107 C 0.31497 0.76621 0.8875 0.0
N108 N 0.31874 0.7769 0.86614 0.0
C109 C 0.28296 0.75971 0.85099 0.0
C110 C 0.27908 0.74861 0.87266 0.0
C111 C 0.32808 0.83291 0.82794 0.0
C112 C 0.39277 0.88754 0.87369 0.0
C113 C 0.3701 0.88043 0.83086 0.0
C114 C 0.36938 0.90275 0.84144 0.0
C115 C 0.38081 0.90628 0.863 0.0
N116 N 0.38195 0.86216 0.84141 0.0
C117 C 0.39313 0.86546 0.86258 0.0
Co118 Co 0.66115 0.29666 0.63987 0.0
Co119 Co 0.62408 0.3311 0.67355 0.0
O120 O 0.63336 0.31711 0.64325 0.0
C121 C 0.66735 0.33175 0.60094 0.0
O122 O 0.66113 0.34866 0.61559 0.0
C123 C 0.57794 0.30881 0.66023 0.0
O124 O 0.5884 0.28806 0.6597 0.0
O125 O 0.62426 0.29936 0.6891 0.0
O126 O 0.65534 0.28204 0.6715 0.0
H127 H 0.62824 0.34298 0.76154 0.0
H128 H 0.62459 0.29757 0.60233 0.0
O129 O 0.66793 0.31032 0.60786 0.0
H130 H 0.62772 0.21468 0.62949 0.0
H131 H 0.71662 0.24287 0.59543 0.0
H132 H 0.70036 0.28215 0.6716 0.0
H133 H 0.6541 0.24475 0.64692 0.0
H134 H 0.68137 0.26818 0.60026 0.0
O135 O 0.5898 0.32742 0.66487 0.0
H136 H 0.64025 0.32597 0.72321 0.0
H137 H 0.58681 0.36558 0.68814 0.0
H138 H 0.73571 0.25686 0.66759 0.0
H139 H 0.59799 0.26802 0.58427 0.0
H140 H 0.74403 0.237 0.62929 0.0
H141 H 0.59944 0.22624 0.59788 0.0
O142 O 0.68179 0.32104 0.65485 0.0
H143 H 0.60429 0.38936 0.60937 0.0
H144 H 0.64496 0.37809 0.68573 0.0
H145 H 0.64596 0.41722 0.66644 0.0
H146 H 0.62548 0.42306 0.628 0.0
H147 H 0.60394 0.35045 0.62915 0.0
H148 H 0.57411 0.38288 0.72612 0.0
H149 H 0.59494 0.37165 0.76316 0.0
O150 O 0.65795 0.33558 0.68305 0.0
C151 C 0.63974 0.28294 0.68778 0.0
C152 C 0.61907 0.34807 0.74551 0.0
C153 C 0.58868 0.37044 0.72564 0.0
N154 N 0.61439 0.34493 0.70343 0.0
C155 C 0.62584 0.33855 0.72374 0.0
C156 C 0.59593 0.36055 0.70419 0.0
C157 C 0.60037 0.36414 0.74641 0.0
C158 C 0.62543 0.27938 0.60821 0.0
N159 N 0.64097 0.27287 0.62555 0.0
C160 C 0.61029 0.26275 0.59798 0.0
C161 C 0.61109 0.23932 0.60564 0.0
C162 C 0.62694 0.23282 0.62338 0.0
C163 C 0.6418 0.24994 0.63323 0.0
C164 C 0.71317 0.2514 0.61222 0.0
C165 C 0.70379 0.27348 0.65491 0.0
C166 C 0.69326 0.26579 0.61505 0.0
N167 N 0.68872 0.27651 0.63624 0.0
C168 C 0.72387 0.25922 0.65273 0.0
C169 C 0.72853 0.24811 0.63123 0.0
C170 C 0.67837 0.33288 0.67378 0.0
C171 C 0.61322 0.38706 0.62615 0.0
C172 C 0.6361 0.38045 0.66895 0.0
C173 C 0.63667 0.40267 0.65815 0.0
C174 C 0.62515 0.40594 0.63659 0.0
N175 N 0.62434 0.36202 0.65861 0.0
C176 C 0.613 0.36509 0.63748 0.0
Co177 Co 0.84337 0.70847 0.14016 0.0
Co178 Co 0.8789 0.67107 0.17296 0.0
O179 O 0.87007 0.68659 0.14328 0.0
C180 C 0.83495 0.6733 0.10181 0.0
O181 O 0.841 0.65635 0.1165 0.0
C182 C 0.9248 0.69417 0.1607 0.0
O183 O 0.91391 0.7147 0.16011 0.0
O184 O 0.87853 0.70191 0.1904 0.0
O185 O 0.85067 0.7229 0.17139 0.0
H186 H 0.87286 0.65395 0.25997 0.0
H187 H 0.87898 0.70499 0.10185 0.0
O188 O 0.83516 0.6948 0.10851 0.0
H189 H 0.88147 0.78815 0.1282 0.0
H190 H 0.79024 0.76476 0.09593 0.0
H191 H 0.80603 0.72615 0.17255 0.0
H192 H 0.85371 0.75989 0.1465 0.0
H193 H 0.82392 0.73735 0.10045 0.0
O194 O 0.91329 0.6753 0.16512 0.0
H195 H 0.86158 0.67313 0.22244 0.0
H196 H 0.91612 0.63604 0.18635 0.0
H197 H 0.77227 0.75358 0.16887 0.0
H198 H 0.90691 0.7327 0.08292 0.0
H199 H 0.7642 0.7731 0.13033 0.0
H200 H 0.9083 0.7746 0.09613 0.0
O201 O 0.8215 0.68564 0.15593 0.0
H202 H 0.89959 0.61682 0.10566 0.0
H203 H 0.85839 0.62326 0.18226 0.0
H204 H 0.8577 0.58536 0.16067 0.0
H205 H 0.87846 0.58195 0.12209 0.0
H206 H 0.89959 0.65446 0.12774 0.0
H207 H 0.92811 0.61661 0.22354 0.0
H208 H 0.90636 0.62546 0.26067 0.0
O209 O 0.8449 0.66608 0.18146 0.0
C210 C 0.86497 0.71992 0.18855 0.0
C211 C 0.88243 0.64989 0.24389 0.0
C212 C 0.91346 0.62896 0.22345 0.0
N213 N 0.88806 0.65558 0.20219 0.0
C214 C 0.87608 0.66065 0.22257 0.0
C215 C 0.90662 0.64006 0.20245 0.0
C216 C 0.90124 0.63393 0.24428 0.0
C217 C 0.87935 0.72324 0.10755 0.0
N218 N 0.86463 0.73084 0.12514 0.0
C219 C 0.89526 0.73883 0.09683 0.0
C220 C 0.89605 0.76233 0.10427 0.0
C221 C 0.88101 0.76994 0.12227 0.0
C222 C 0.86535 0.75385 0.13259 0.0
C223 C 0.79359 0.75638 0.11282 0.0
C224 C 0.80269 0.73464 0.15575 0.0
C225 C 0.81259 0.74078 0.11547 0.0
N226 N 0.81699 0.73021 0.13677 0.0
C227 C 0.78352 0.75012 0.15376 0.0
C228 C 0.77899 0.76106 0.13213 0.0
C229 C 0.82455 0.67147 0.17327 0.0
C230 C 0.89052 0.61806 0.12247 0.0
C231 C 0.86731 0.62197 0.16542 0.0
C232 C 0.86695 0.60043 0.15331 0.0
C233 C 0.87862 0.59852 0.13168 0.0
N234 N 0.879 0.64106 0.15627 0.0
C235 C 0.89053 0.63931 0.1351 0.0
Co236 Co 0.36273 0.15947 0.20759 0.0
Co237 Co 0.3279 0.12469 0.17252 0.0
O238 O 0.35863 0.13267 0.18618 0.0
C239 C 0.40221 0.16938 0.17355 0.0
O240 O 0.38695 0.17134 0.15613 0.0
C241 C 0.34386 0.07792 0.19122 0.0
O242 O 0.34801 0.08782 0.21182 0.0
O243 O 0.31342 0.12317 0.20468 0.0
O244 O 0.3307 0.15449 0.22182 0.0
H245 H 0.23961 0.13082 0.16354 0.0
H246 H 0.39889 0.12146 0.20594 0.0
O247 O 0.39519 0.1648 0.19445 0.0
H248 H 0.37114 0.12331 0.28861 0.0
H249 H 0.40912 0.21145 0.26314 0.0
H250 H 0.33243 0.19937 0.22326 0.0
H251 H 0.35497 0.15118 0.25919 0.0
H252 H 0.40304 0.17727 0.2367 0.0
O253 O 0.33608 0.09027 0.17406 0.0
H254 H 0.27865 0.14127 0.18002 0.0
H255 H 0.3117 0.08975 0.13641 0.0
H256 H 0.33769 0.23369 0.24967 0.0
H257 H 0.41571 0.09341 0.23485 0.0
H258 H 0.37627 0.2399 0.26984 0.0
H259 H 0.40178 0.09419 0.27651 0.0
O260 O 0.34855 0.18136 0.18379 0.0
H261 H 0.39081 0.10847 0.11185 0.0
H262 H 0.31438 0.14785 0.12699 0.0
H263 H 0.33274 0.15106 0.08755 0.0
H264 H 0.37121 0.13123 0.07977 0.0
H265 H 0.3719 0.10585 0.1511 0.0
H266 H 0.27299 0.07861 0.11958 0.0
H267 H 0.2366 0.09928 0.13308 0.0
O268 O 0.31888 0.15884 0.17011 0.0
C269 C 0.31469 0.13857 0.22115 0.0
C270 C 0.25534 0.12173 0.15746 0.0
C271 C 0.27407 0.09241 0.13281 0.0
N272 N 0.29746 0.11626 0.15907 0.0
C273 C 0.27751 0.12761 0.16669 0.0
C274 C 0.29594 0.09876 0.14244 0.0
C275 C 0.25367 0.10402 0.14039 0.0
C276 C 0.39289 0.12204 0.22408 0.0
N277 N 0.37605 0.13801 0.23088 0.0
C278 C 0.40242 0.10606 0.24035 0.0
C279 C 0.39457 0.10648 0.26371 0.0
C280 C 0.37737 0.1228 0.27051 0.0
C281 C 0.36823 0.13851 0.25375 0.0
C282 C 0.39222 0.20892 0.25448 0.0
C283 C 0.34923 0.20188 0.23205 0.0
C284 C 0.38868 0.18962 0.23946 0.0
N285 N 0.36734 0.18623 0.22858 0.0
C286 C 0.35212 0.22138 0.24695 0.0
C287 C 0.37377 0.22487 0.25824 0.0
C288 C 0.32909 0.17883 0.17255 0.0
C289 C 0.37402 0.11713 0.11501 0.0
C290 C 0.33116 0.13923 0.12377 0.0
C291 C 0.34144 0.14107 0.10138 0.0
C292 C 0.36302 0.12993 0.09702 0.0
N293 N 0.34201 0.12657 0.1413 0.0
C294 C 0.3632 0.11565 0.13717 0.0
Co295 Co 0.14149 0.84434 0.70857 0.0
Co296 Co 0.17469 0.88101 0.67329 0.0
O297 O 0.14458 0.87191 0.68782 0.0
C298 C 0.10199 0.83794 0.6742 0.0
O299 O 0.11642 0.84398 0.65704 0.0
C300 C 0.16106 0.92707 0.69536 0.0
O301 O 0.16026 0.91653 0.71605 0.0
O302 O 0.19072 0.88117 0.70478 0.0
O303 O 0.1734 0.85023 0.72261 0.0
H304 H 0.26257 0.87665 0.66012 0.0
H305 H 0.10396 0.88095 0.70795 0.0
O306 O 0.10923 0.83751 0.69551 0.0
H307 H 0.13251 0.87856 0.79034 0.0
H308 H 0.09781 0.78947 0.76355 0.0
H309 H 0.17342 0.80522 0.7229 0.0
H310 H 0.14941 0.85186 0.76027 0.0
H311 H 0.10228 0.82447 0.73787 0.0
O312 O 0.16607 0.91531 0.67681 0.0
H313 H 0.22446 0.86485 0.67782 0.0
H314 H 0.18879 0.91793 0.63828 0.0
H315 H 0.16977 0.77011 0.74856 0.0
H316 H 0.08643 0.90787 0.73751 0.0
H317 H 0.13175 0.76206 0.76911 0.0
H318 H 0.10075 0.90679 0.77904 0.0
O319 O 0.15603 0.82347 0.68415 0.0
H320 H 0.10961 0.90029 0.61584 0.0
H321 H 0.18617 0.85966 0.62637 0.0
H322 H 0.16628 0.85829 0.58757 0.0
H323 H 0.12774 0.87875 0.5821 0.0
H324 H 0.12999 0.90101 0.65442 0.0
H325 H 0.22655 0.93042 0.62028 0.0
H326 H 0.26377 0.90966 0.63112 0.0
O327 O 0.18411 0.84709 0.66899 0.0
C328 C 0.18965 0.86583 0.72135 0.0
C329 C 0.24646 0.88578 0.65519 0.0
C330 C 0.22625 0.91597 0.63286 0.0
N331 N 0.20439 0.89054 0.65894 0.0
C332 C 0.22481 0.87914 0.66511 0.0
C333 C 0.20493 0.90885 0.64314 0.0
C334 C 0.24712 0.90432 0.63894 0.0
C335 C 0.11015 0.88027 0.72603 0.0
N336 N 0.12758 0.86477 0.73239 0.0
C337 C 0.10021 0.8956 0.74267 0.0
C338 C 0.10827 0.895 0.76596 0.0
C339 C 0.1261 0.87918 0.77231 0.0
C340 C 0.13564 0.86413 0.75519 0.0
C341 C 0.11448 0.79281 0.75473 0.0
C342 C 0.15685 0.8019 0.73187 0.0
C343 C 0.1171 0.81257 0.74012 0.0
N344 N 0.13814 0.81697 0.72902 0.0
C345 C 0.15487 0.78196 0.74634 0.0
C346 C 0.13353 0.77744 0.75785 0.0
C347 C 0.17479 0.82673 0.67199 0.0
C348 C 0.12643 0.89136 0.61798 0.0
C349 C 0.16935 0.86851 0.62417 0.0
C350 C 0.1582 0.86774 0.60214 0.0
C351 C 0.13659 0.87924 0.59907 0.0
N352 N 0.15928 0.88046 0.64263 0.0
C353 C 0.1381 0.89179 0.63976 0.0
Co354 Co 0.86351 0.34358 0.79598 0.0
Co355 Co 0.82905 0.37925 0.83092 0.0
O356 O 0.85978 0.37071 0.81727 0.0
C357 C 0.90258 0.33671 0.83089 0.0
O358 O 0.88791 0.3424 0.84797 0.0
C359 C 0.84507 0.42608 0.81198 0.0
O360 O 0.84941 0.41622 0.7914 0.0
O361 O 0.81446 0.38066 0.7988 0.0
O362 O 0.83175 0.34948 0.78142 0.0
H363 H 0.74069 0.37416 0.83992 0.0
H364 H 0.90078 0.38036 0.79801 0.0
O365 O 0.89561 0.33668 0.80947 0.0
H366 H 0.87371 0.37955 0.71509 0.0
H367 H 0.90864 0.29018 0.7407 0.0
H368 H 0.83219 0.3045 0.7803 0.0
H369 H 0.85644 0.35213 0.74431 0.0
H370 H 0.9034 0.32461 0.76699 0.0
O371 O 0.83741 0.41363 0.82912 0.0
H372 H 0.77961 0.3632 0.8235 0.0
H373 H 0.81322 0.41449 0.86695 0.0
H374 H 0.8366 0.26995 0.75402 0.0
H375 H 0.91869 0.40796 0.76932 0.0
H376 H 0.87505 0.26262 0.734 0.0
H377 H 0.9051 0.40769 0.72753 0.0
O378 O 0.8487 0.32211 0.81974 0.0
H379 H 0.89163 0.39652 0.89165 0.0
H380 H 0.81569 0.3562 0.87658 0.0
H381 H 0.83398 0.35347 0.91608 0.0
H382 H 0.8722 0.37377 0.92384 0.0
H383 H 0.87285 0.39857 0.85231 0.0
H384 H 0.77463 0.42614 0.8837 0.0
H385 H 0.73802 0.40585 0.87025 0.0
O386 O 0.81963 0.34523 0.83365 0.0
C387 C 0.81568 0.36533 0.78226 0.0
C388 C 0.75652 0.3831 0.84597 0.0
C389 C 0.77557 0.41228 0.87052 0.0
N390 N 0.79869 0.38809 0.84435 0.0
C391 C 0.77862 0.37693 0.83677 0.0
C392 C 0.79736 0.40565 0.86092 0.0
C393 C 0.75503 0.40089 0.86297 0.0
C394 C 0.89493 0.38001 0.77981 0.0
N395 N 0.87769 0.36458 0.77282 0.0
C396 C 0.90507 0.39573 0.76367 0.0
C397 C 0.89742 0.3956 0.74023 0.0
C398 C 0.87979 0.37982 0.73324 0.0
C399 C 0.87004 0.36437 0.74988 0.0
C400 C 0.89179 0.29321 0.74929 0.0
C401 C 0.84894 0.30149 0.77157 0.0
C402 C 0.88873 0.31265 0.76424 0.0
N403 N 0.86746 0.31665 0.77505 0.0
C404 C 0.85135 0.28187 0.75674 0.0
C405 C 0.87293 0.27775 0.74553 0.0
C406 C 0.82938 0.32504 0.83107 0.0
C407 C 0.87495 0.38765 0.8885 0.0
C408 C 0.83239 0.36498 0.87976 0.0
C409 C 0.84262 0.36343 0.9022 0.0
C410 C 0.86405 0.37485 0.90654 0.0
N411 N 0.84318 0.37759 0.86216 0.0
C412 C 0.86418 0.38883 0.86629 0.0
Co413 Co 0.64012 0.65769 0.29342 0.0
Co414 Co 0.67301 0.62289 0.33153 0.0
O415 O 0.64333 0.63143 0.31579 0.0
C416 C 0.60197 0.66683 0.32876 0.0
O417 O 0.61662 0.66071 0.3457 0.0
C418 C 0.66015 0.57677 0.30929 0.0
O419 O 0.65925 0.58738 0.28864 0.0
O420 O 0.69059 0.62283 0.30081 0.0
O421 O 0.67121 0.64962 0.27861 0.0
H422 H 0.75999 0.62927 0.34914 0.0
H423 H 0.60219 0.62186 0.29849 0.0
O424 O 0.60865 0.66646 0.30726 0.0
H425 H 0.62549 0.61898 0.2145 0.0
H426 H 0.59574 0.71046 0.2369 0.0
H427 H 0.67271 0.69432 0.27479 0.0
H428 H 0.64442 0.64723 0.24183 0.0
H429 H 0.6002 0.67713 0.26472 0.0
O430 O 0.66513 0.58848 0.32788 0.0
H431 H 0.72255 0.64025 0.32959 0.0
H432 H 0.68622 0.58623 0.36716 0.0
H433 H 0.66908 0.72771 0.24691 0.0
H434 H 0.58258 0.59348 0.27175 0.0
H435 H 0.63037 0.73596 0.22776 0.0
H436 H 0.59428 0.59186 0.22944 0.0
O437 O 0.65625 0.67994 0.31569 0.0
H438 H 0.6058 0.60291 0.38623 0.0
H439 H 0.68201 0.64481 0.3787 0.0
H440 H 0.6604 0.64617 0.41657 0.0
H441 H 0.62203 0.62507 0.42052 0.0
H442 H 0.62788 0.60221 0.3486 0.0
H443 H 0.72332 0.57455 0.38699 0.0
H444 H 0.76054 0.59619 0.37808 0.0
O445 O 0.68152 0.65684 0.33586 0.0
C446 C 0.68854 0.63558 0.28224 0.0
C447 C 0.74389 0.61973 0.35321 0.0
C448 C 0.7233 0.58901 0.37443 0.0
N449 N 0.7022 0.61398 0.34729 0.0
C450 C 0.72262 0.6259 0.34222 0.0
C451 C 0.70236 0.59567 0.36309 0.0
C452 C 0.74418 0.60116 0.36943 0.0
C453 C 0.6073 0.62133 0.28008 0.0
N454 N 0.62451 0.63613 0.27174 0.0
C455 C 0.59616 0.60519 0.26503 0.0
C456 C 0.60275 0.60428 0.2413 0.0
C457 C 0.62028 0.61947 0.23291 0.0
C458 C 0.63103 0.63535 0.24848 0.0
C459 C 0.6127 0.70702 0.24511 0.0
C460 C 0.65584 0.69771 0.26642 0.0
C461 C 0.61533 0.68822 0.26092 0.0
N462 N 0.63674 0.68369 0.27125 0.0
C463 C 0.65388 0.71668 0.2507 0.0
C464 C 0.63215 0.72132 0.23998 0.0
C465 C 0.67346 0.6771 0.33007 0.0
C466 C 0.62254 0.61211 0.38475 0.0
C467 C 0.66527 0.63567 0.38024 0.0
C468 C 0.65315 0.63644 0.40175 0.0
C469 C 0.63163 0.62458 0.40397 0.0
N470 N 0.65625 0.62337 0.36148 0.0
C471 C 0.63517 0.61169 0.36352 0.0
Co472 Co 0.21106 0.3662 0.15769 0.0
Co473 Co 0.17565 0.33156 0.12274 0.0
O474 O 0.18948 0.36208 0.13106 0.0
C475 C 0.1761 0.40443 0.16889 0.0
O476 O 0.15928 0.38852 0.1709 0.0
C477 C 0.19583 0.34641 0.07641 0.0
O478 O 0.21659 0.34854 0.08666 0.0
O479 O 0.20764 0.3165 0.12177 0.0
O480 O 0.22581 0.33458 0.15208 0.0
H481 H 0.16521 0.24342 0.1284 0.0
H482 H 0.20816 0.40289 0.12029 0.0
O483 O 0.19716 0.39825 0.1637 0.0
H484 H 0.29146 0.37675 0.12068 0.0
H485 H 0.26619 0.41303 0.20971 0.0
H486 H 0.22791 0.33565 0.19692 0.0
H487 H 0.2627 0.35959 0.14865 0.0
H488 H 0.23947 0.40686 0.17576 0.0
O489 O 0.17784 0.34002 0.08838 0.0
H490 H 0.1821 0.28215 0.1393 0.0
H491 H 0.14001 0.31603 0.08703 0.0
H492 H 0.25463 0.341 0.23099 0.0
H493 H 0.23638 0.42066 0.09214 0.0
H494 H 0.27399 0.37992 0.23756 0.0
H495 H 0.27836 0.40755 0.09219 0.0
O496 O 0.18791 0.35113 0.17967 0.0
H497 H 0.11589 0.39523 0.10581 0.0
H498 H 0.12964 0.3186 0.14524 0.0
H499 H 0.09034 0.33741 0.14794 0.0
H500 H 0.08325 0.37599 0.12809 0.0
H501 H 0.15498 0.37587 0.10369 0.0
H502 H 0.12279 0.27763 0.07545 0.0
H503 H 0.13532 0.24099 0.09626 0.0
O504 O 0.17273 0.32246 0.15677 0.0
C505 C 0.22452 0.31809 0.13673 0.0
C506 C 0.15955 0.25927 0.11925 0.0
C507 C 0.13576 0.27847 0.08951 0.0
N508 N 0.16191 0.30135 0.11395 0.0
C509 C 0.16901 0.28126 0.12538 0.0
C510 C 0.14561 0.30015 0.09612 0.0
C511 C 0.14279 0.25791 0.1012 0.0
C512 C 0.22644 0.39723 0.12055 0.0
N513 N 0.23379 0.38032 0.13619 0.0
C514 C 0.24232 0.4073 0.10451 0.0
C515 C 0.26586 0.39992 0.10453 0.0
C516 C 0.27322 0.38263 0.1205 0.0
C517 C 0.25684 0.37294 0.13627 0.0
C518 C 0.25789 0.39597 0.20701 0.0
C519 C 0.23636 0.3526 0.19958 0.0
C520 C 0.24271 0.39239 0.18785 0.0
N521 N 0.23228 0.37086 0.18426 0.0
C522 C 0.25143 0.35554 0.21894 0.0
C523 C 0.26227 0.37739 0.22263 0.0
C524 C 0.17615 0.33202 0.17693 0.0
C525 C 0.11874 0.37839 0.11448 0.0
C526 C 0.12672 0.33541 0.1366 0.0
C527 C 0.10441 0.34596 0.13816 0.0
C528 C 0.10044 0.3676 0.127 0.0
N529 N 0.14455 0.34607 0.12421 0.0
C530 C 0.14081 0.36731 0.11328 0.0
Co531 Co 0.70786 0.13989 0.84314 0.0
Co532 Co 0.67326 0.17449 0.87904 0.0
O533 O 0.68663 0.1437 0.87032 0.0
C534 C 0.67247 0.10134 0.83608 0.0
O535 O 0.65553 0.11613 0.84192 0.0
C536 C 0.6924 0.15831 0.92573 0.0
O537 O 0.71295 0.15394 0.91577 0.0
O538 O 0.70553 0.18882 0.88035 0.0
O539 O 0.72278 0.17138 0.8492 0.0
H540 H 0.6649 0.26292 0.87437 0.0
H541 H 0.70541 0.10242 0.87967 0.0
O542 O 0.69397 0.10805 0.83607 0.0
H543 H 0.78873 0.12846 0.87894 0.0
H544 H 0.7626 0.09445 0.78946 0.0
H545 H 0.72387 0.17126 0.80425 0.0
H546 H 0.75966 0.14626 0.85168 0.0
H547 H 0.73639 0.09978 0.82392 0.0
O548 O 0.67518 0.16598 0.91337 0.0
H549 H 0.68099 0.22393 0.86318 0.0
H550 H 0.63749 0.19044 0.91451 0.0
H551 H 0.75009 0.16675 0.76968 0.0
H552 H 0.73395 0.08399 0.90712 0.0
H553 H 0.76967 0.12812 0.7621 0.0
H554 H 0.77593 0.09705 0.90689 0.0
O555 O 0.68423 0.15513 0.82179 0.0
H556 H 0.6121 0.11232 0.89636 0.0
H557 H 0.62755 0.18829 0.85629 0.0
H558 H 0.58787 0.17032 0.85367 0.0
H559 H 0.57992 0.13209 0.87385 0.0
H560 H 0.65162 0.1308 0.89831 0.0
H561 H 0.62107 0.22909 0.92638 0.0
H562 H 0.63471 0.26568 0.9062 0.0
O563 O 0.67044 0.18408 0.84511 0.0
C564 C 0.72208 0.18742 0.86505 0.0
C565 C 0.65877 0.2471 0.88326 0.0
C566 C 0.63419 0.22812 0.91247 0.0
N567 N 0.66009 0.2049 0.88807 0.0
C568 C 0.66777 0.22496 0.87696 0.0
C569 C 0.6436 0.20628 0.90571 0.0
C570 C 0.64185 0.24864 0.90113 0.0
C571 C 0.7237 0.10805 0.87934 0.0
N572 N 0.73088 0.1253 0.86401 0.0
C573 C 0.73975 0.09761 0.89498 0.0
C574 C 0.7633 0.10497 0.89486 0.0
C575 C 0.77049 0.1226 0.87919 0.0
C576 C 0.75393 0.13266 0.86383 0.0
C577 C 0.7542 0.11138 0.79259 0.0
C578 C 0.73241 0.15443 0.80114 0.0
C579 C 0.7393 0.11449 0.81205 0.0
N580 N 0.72872 0.13586 0.81618 0.0
C581 C 0.7472 0.15196 0.7815 0.0
C582 C 0.75817 0.13028 0.77725 0.0
C583 C 0.67301 0.1745 0.82486 0.0
C584 C 0.61533 0.12902 0.88755 0.0
C585 C 0.62428 0.17159 0.86501 0.0
C586 C 0.60174 0.16154 0.86353 0.0
C587 C 0.59729 0.1401 0.87488 0.0
N588 N 0.64188 0.16062 0.87749 0.0
C589 C 0.63764 0.13961 0.88867 0.0
Co590 Co 0.79636 0.86165 0.34342 0.0
Co591 Co 0.82946 0.82687 0.38031 0.0
O592 O 0.81671 0.85784 0.37126 0.0
C593 C 0.83161 0.90064 0.33783 0.0
O594 O 0.84852 0.8861 0.34436 0.0
C595 C 0.81013 0.84349 0.42682 0.0
O596 O 0.78954 0.84777 0.41691 0.0
O597 O 0.7969 0.81318 0.38118 0.0
O598 O 0.78139 0.83004 0.34884 0.0
H599 H 0.83624 0.73827 0.37632 0.0
H600 H 0.79732 0.89891 0.38022 0.0
O601 O 0.81022 0.89362 0.33695 0.0
H602 H 0.7142 0.8725 0.37635 0.0
H603 H 0.7432 0.90697 0.28803 0.0
H604 H 0.78197 0.83038 0.30384 0.0
H605 H 0.74431 0.85498 0.35007 0.0
H606 H 0.7682 0.90165 0.32339 0.0
O607 O 0.82729 0.83564 0.41452 0.0
H608 H 0.82104 0.77748 0.36465 0.0
H609 H 0.86444 0.81047 0.41639 0.0
H610 H 0.75698 0.83488 0.26836 0.0
H611 H 0.76774 0.91706 0.40672 0.0
H612 H 0.73737 0.8734 0.26027 0.0
H613 H 0.72585 0.90382 0.4049 0.0
O614 O 0.82084 0.84665 0.32293 0.0
H615 H 0.89155 0.88794 0.39826 0.0
H616 H 0.87525 0.81208 0.35834 0.0
H617 H 0.91531 0.82925 0.35627 0.0
H618 H 0.92369 0.86742 0.37639 0.0
H619 H 0.85165 0.87027 0.39964 0.0
H620 H 0.87997 0.7716 0.42874 0.0
H621 H 0.86593 0.73515 0.40858 0.0
O622 O 0.83263 0.81702 0.34648 0.0
C623 C 0.78112 0.81434 0.36505 0.0
C624 C 0.84255 0.75403 0.38519 0.0
C625 C 0.86707 0.77273 0.41463 0.0
N626 N 0.84195 0.79627 0.38971 0.0
C627 C 0.83404 0.77629 0.37863 0.0
C628 C 0.85816 0.79469 0.40759 0.0
C629 C 0.85919 0.75229 0.40331 0.0
C630 C 0.77908 0.8932 0.37921 0.0
N631 N 0.77253 0.87601 0.36354 0.0
C632 C 0.76243 0.90348 0.3943 0.0
C633 C 0.73894 0.89602 0.3933 0.0
C634 C 0.73239 0.87844 0.37729 0.0
C635 C 0.74953 0.86855 0.36249 0.0
C636 C 0.75161 0.89009 0.29138 0.0
C637 C 0.77342 0.84716 0.3005 0.0
C638 C 0.76583 0.88698 0.31135 0.0
N639 N 0.77641 0.86567 0.31577 0.0
C640 C 0.75932 0.84962 0.28036 0.0
C641 C 0.74834 0.87124 0.27582 0.0
C642 C 0.83132 0.82692 0.32625 0.0
C643 C 0.88813 0.87127 0.38947 0.0
C644 C 0.8787 0.82877 0.36702 0.0
C645 C 0.90145 0.83836 0.36586 0.0
C646 C 0.90615 0.85977 0.37717 0.0
N647 N 0.86112 0.84015 0.37914 0.0
C648 C 0.8656 0.86113 0.39028 0.0
Co649 Co 0.29434 0.64004 0.65999 0.0
Co650 Co 0.32925 0.67371 0.62358 0.0
O651 O 0.3153 0.64328 0.63256 0.0
C652 C 0.32899 0.60074 0.66667 0.0
O653 O 0.34612 0.61531 0.66085 0.0
C654 C 0.30932 0.65797 0.57711 0.0
O655 O 0.28855 0.65477 0.58707 0.0
O656 O 0.29729 0.68877 0.62254 0.0
O657 O 0.28007 0.6719 0.65403 0.0
H658 H 0.33968 0.76194 0.62773 0.0
H659 H 0.29545 0.6025 0.62347 0.0
O660 O 0.3076 0.60784 0.66691 0.0
H661 H 0.21277 0.63048 0.62529 0.0
H662 H 0.23929 0.59597 0.71449 0.0
H663 H 0.27952 0.67185 0.69898 0.0
H664 H 0.24259 0.6476 0.65214 0.0
H665 H 0.26519 0.60063 0.67968 0.0
O666 O 0.32686 0.665 0.58937 0.0
H667 H 0.32284 0.72339 0.63929 0.0
H668 H 0.36492 0.68869 0.58758 0.0
H669 H 0.25363 0.66801 0.73389 0.0
H670 H 0.26614 0.58473 0.59642 0.0
H671 H 0.2333 0.62985 0.74183 0.0
H672 H 0.22447 0.59877 0.5972 0.0
O673 O 0.31859 0.65477 0.68099 0.0
H674 H 0.38891 0.61011 0.60609 0.0
H675 H 0.37547 0.68665 0.64578 0.0
H676 H 0.41478 0.66784 0.64815 0.0
H677 H 0.42172 0.62931 0.62816 0.0
H678 H 0.34978 0.62942 0.6044 0.0
H679 H 0.38208 0.72689 0.57534 0.0
H680 H 0.36954 0.76387 0.59553 0.0
O681 O 0.33259 0.68339 0.6574 0.0
C682 C 0.28093 0.68787 0.63809 0.0
C683 C 0.34534 0.74595 0.61884 0.0
C684 C 0.36912 0.72628 0.58942 0.0
N685 N 0.343 0.70378 0.61425 0.0
C686 C 0.3359 0.72405 0.62535 0.0
C687 C 0.35929 0.7047 0.5964 0.0
C688 C 0.36208 0.74702 0.60076 0.0
C689 C 0.27731 0.60855 0.62403 0.0
N690 N 0.27072 0.62596 0.63945 0.0
C691 C 0.26081 0.59849 0.60862 0.0
C692 C 0.23744 0.6064 0.60905 0.0
C693 C 0.23086 0.62419 0.6248 0.0
C694 C 0.24785 0.63386 0.63993 0.0
C695 C 0.24802 0.6127 0.7112 0.0
C696 C 0.27065 0.65522 0.70225 0.0
C697 C 0.26275 0.61543 0.69155 0.0
N698 N 0.27374 0.63654 0.68722 0.0
C699 C 0.25605 0.65314 0.72208 0.0
C700 C 0.24466 0.63172 0.72653 0.0
C701 C 0.33014 0.6739 0.67771 0.0
C702 C 0.38613 0.62693 0.61482 0.0
C703 C 0.37829 0.66983 0.63715 0.0
C704 C 0.40063 0.6593 0.63848 0.0
C705 C 0.40451 0.63769 0.62724 0.0
N706 N 0.36035 0.65917 0.62492 0.0
C707 C 0.36403 0.63799 0.61384 0.0
Co708 Co 0.846 0.79644 0.64183 0.0
Co709 Co 0.88016 0.83415 0.6753 0.0
O710 O 0.87221 0.81864 0.6455 0.0
C711 C 0.83442 0.83048 0.60287 0.0
O712 O 0.83266 0.84772 0.61834 0.0
C713 C 0.9265 0.81224 0.66288 0.0
O714 O 0.91593 0.79158 0.66173 0.0
O715 O 0.88029 0.80314 0.69248 0.0
O716 O 0.85211 0.7825 0.67358 0.0
H717 H 0.87238 0.85053 0.7623 0.0
H718 H 0.88325 0.7996 0.60499 0.0
O719 O 0.83954 0.80957 0.60956 0.0
H720 H 0.88507 0.71684 0.63267 0.0
H721 H 0.79517 0.73932 0.59608 0.0
H722 H 0.80757 0.77871 0.67291 0.0
H723 H 0.8564 0.74519 0.64936 0.0
H724 H 0.82839 0.76708 0.60167 0.0
O725 O 0.91471 0.83079 0.66785 0.0
H726 H 0.86211 0.83138 0.72446 0.0
H727 H 0.91641 0.86985 0.68949 0.0
H728 H 0.77423 0.75095 0.66814 0.0
H729 H 0.91209 0.77177 0.58768 0.0
H730 H 0.76786 0.73103 0.6295 0.0
H731 H 0.91316 0.73008 0.60156 0.0
O732 O 0.82337 0.81925 0.65658 0.0
H733 H 0.89945 0.88901 0.60807 0.0
H734 H 0.859 0.8816 0.68496 0.0
H735 H 0.85748 0.91958 0.66352 0.0
H736 H 0.87787 0.92347 0.62479 0.0
H737 H 0.90031 0.8513 0.63004 0.0
H738 H 0.9274 0.88926 0.72699 0.0
H739 H 0.90525 0.8797 0.76372 0.0
O740 O 0.84593 0.8383 0.68326 0.0
C741 C 0.86648 0.78531 0.69072 0.0
C742 C 0.88212 0.8549 0.7464 0.0
C743 C 0.91302 0.87661 0.72659 0.0
N744 N 0.88852 0.84962 0.70476 0.0
C745 C 0.87634 0.84417 0.72491 0.0
C746 C 0.90675 0.86552 0.70542 0.0
C747 C 0.90057 0.87124 0.74719 0.0
C748 C 0.88348 0.78143 0.61099 0.0
N749 N 0.86806 0.77401 0.62806 0.0
C750 C 0.8999 0.76578 0.60118 0.0
C751 C 0.90051 0.74239 0.60899 0.0
C752 C 0.88476 0.73496 0.62645 0.0
C753 C 0.86859 0.75111 0.63587 0.0
C754 C 0.79777 0.74788 0.61301 0.0
C755 C 0.80497 0.77005 0.65606 0.0
C756 C 0.81651 0.76367 0.61626 0.0
N757 N 0.81997 0.77445 0.63763 0.0
C758 C 0.78603 0.75438 0.65346 0.0
C759 C 0.78246 0.74323 0.63177 0.0
C760 C 0.82585 0.83308 0.6743 0.0
C761 C 0.89052 0.88754 0.62494 0.0
C762 C 0.86776 0.88311 0.66807 0.0
C763 C 0.86693 0.90468 0.65604 0.0
C764 C 0.87838 0.90686 0.63432 0.0
N765 N 0.87971 0.86425 0.65877 0.0
C766 C 0.89099 0.86625 0.63749 0.0
Co767 Co 0.65927 0.20658 0.14115 0.0
Co768 Co 0.62606 0.16838 0.17508 0.0
O769 O 0.63344 0.18391 0.14511 0.0
C770 C 0.67054 0.17252 0.10213 0.0
O771 O 0.67219 0.15526 0.1176 0.0
C772 C 0.57918 0.18867 0.16139 0.0
O773 O 0.58944 0.20912 0.15728 0.0
O774 O 0.62544 0.19949 0.19203 0.0
O775 O 0.6532 0.22051 0.17294 0.0
H776 H 0.63524 0.15295 0.26211 0.0
H777 H 0.62191 0.20271 0.10447 0.0
O778 O 0.66569 0.19348 0.10886 0.0
H779 H 0.61863 0.28541 0.13212 0.0
H780 H 0.70865 0.26446 0.09476 0.0
H781 H 0.69756 0.22524 0.17188 0.0
H782 H 0.64792 0.25762 0.14871 0.0
H783 H 0.67603 0.23608 0.10071 0.0
O784 O 0.5914 0.17103 0.16829 0.0
H785 H 0.64463 0.17196 0.22398 0.0
H786 H 0.59086 0.13188 0.19002 0.0
H787 H 0.73031 0.25362 0.16674 0.0
H788 H 0.59248 0.22998 0.08726 0.0
H789 H 0.73602 0.27345 0.12795 0.0
H790 H 0.59067 0.27164 0.10113 0.0
O791 O 0.6825 0.18421 0.15578 0.0
H792 H 0.6072 0.11314 0.10808 0.0
H793 H 0.6476 0.1211 0.18493 0.0
H794 H 0.64953 0.08311 0.16356 0.0
H795 H 0.62917 0.07894 0.12484 0.0
H796 H 0.60596 0.15087 0.12998 0.0
H797 H 0.58073 0.11262 0.22783 0.0
H798 H 0.60307 0.12306 0.26421 0.0
O799 O 0.66042 0.16482 0.18259 0.0
C800 C 0.63896 0.21752 0.19016 0.0
C801 C 0.62542 0.14821 0.24638 0.0
C802 C 0.5948 0.1256 0.22714 0.0
N803 N 0.61841 0.15294 0.20477 0.0
C804 C 0.6307 0.15886 0.22472 0.0
C805 C 0.60057 0.13662 0.20579 0.0
C806 C 0.60735 0.13146 0.24754 0.0
C807 C 0.62138 0.22087 0.11045 0.0
N808 N 0.63671 0.22858 0.12749 0.0
C809 C 0.60462 0.2362 0.1007 0.0
C810 C 0.60359 0.25957 0.10852 0.0
C811 C 0.61926 0.2673 0.12592 0.0
C812 C 0.63578 0.25146 0.13528 0.0
C813 C 0.70635 0.25593 0.11174 0.0
C814 C 0.69989 0.23383 0.15496 0.0
C815 C 0.68795 0.23978 0.11521 0.0
N816 N 0.68486 0.22904 0.13665 0.0
C817 C 0.71849 0.24987 0.15215 0.0
C818 C 0.72169 0.26098 0.13038 0.0
C819 C 0.68033 0.1703 0.17348 0.0
C820 C 0.61615 0.11474 0.12493 0.0
C821 C 0.63891 0.11949 0.16801 0.0
C822 C 0.63995 0.0979 0.15604 0.0
C823 C 0.6285 0.09556 0.13433 0.0
N824 N 0.62679 0.13822 0.15868 0.0
C825 C 0.61548 0.13604 0.13743 0.0
Co826 Co 0.34426 0.70491 0.36234 0.0
Co827 Co 0.38096 0.6729 0.32644 0.0
O828 O 0.37209 0.68504 0.35749 0.0
C829 C 0.33177 0.67001 0.40079 0.0
O830 O 0.32546 0.65412 0.38507 0.0
C831 C 0.427 0.69436 0.34115 0.0
O832 O 0.41645 0.71498 0.34307 0.0
O833 O 0.38052 0.70557 0.31297 0.0
O834 O 0.34855 0.72071 0.33098 0.0
H835 H 0.37588 0.66637 0.23794 0.0
H836 H 0.3825 0.70361 0.39829 0.0
O837 O 0.33972 0.69011 0.39431 0.0
H838 H 0.37618 0.78727 0.37424 0.0
H839 H 0.28947 0.75569 0.41093 0.0
H840 H 0.3036 0.71987 0.33267 0.0
H841 H 0.34982 0.75716 0.35686 0.0
H842 H 0.32497 0.7313 0.40379 0.0
O843 O 0.41528 0.67608 0.33508 0.0
H844 H 0.36425 0.68099 0.27736 0.0
H845 H 0.41815 0.6395 0.3094 0.0
H846 H 0.26796 0.74426 0.339 0.0
H847 H 0.40909 0.73319 0.41626 0.0
H848 H 0.26071 0.76238 0.37836 0.0
H849 H 0.40605 0.77536 0.40421 0.0
O850 O 0.32364 0.68078 0.34689 0.0
H851 H 0.40048 0.61107 0.38727 0.0
H852 H 0.36045 0.62662 0.31132 0.0
H853 H 0.3595 0.58641 0.32826 0.0
H854 H 0.37967 0.57841 0.36648 0.0
H855 H 0.40084 0.65107 0.36978 0.0
H856 H 0.43049 0.62457 0.27031 0.0
H857 H 0.40923 0.63794 0.23424 0.0
O858 O 0.34701 0.6689 0.31709 0.0
C859 C 0.36436 0.72127 0.31488 0.0
C860 C 0.38523 0.66035 0.25353 0.0
C861 C 0.4159 0.63691 0.2717 0.0
N862 N 0.39036 0.66095 0.29567 0.0
C863 C 0.37868 0.66852 0.27591 0.0
C864 C 0.40886 0.64546 0.29378 0.0
C865 C 0.40396 0.64442 0.25147 0.0
C866 C 0.38094 0.72196 0.39309 0.0
N867 N 0.36452 0.72866 0.37666 0.0
C868 C 0.3961 0.73862 0.40327 0.0
C869 C 0.3944 0.76227 0.39648 0.0
C870 C 0.37765 0.76896 0.37966 0.0
C871 C 0.3628 0.75182 0.36985 0.0
C872 C 0.29245 0.74793 0.39369 0.0
C873 C 0.30064 0.72779 0.34981 0.0
C874 C 0.3125 0.73406 0.38955 0.0
N875 N 0.31645 0.72432 0.36777 0.0
C876 C 0.28039 0.74154 0.35331 0.0
C877 C 0.27633 0.75168 0.3754 0.0
C878 C 0.3268 0.67035 0.32709 0.0
C879 C 0.39168 0.61431 0.37057 0.0
C880 C 0.36921 0.6233 0.32799 0.0
C881 C 0.36865 0.60048 0.33747 0.0
C882 C 0.37998 0.596 0.35891 0.0
N883 N 0.38081 0.64114 0.33949 0.0
C884 C 0.39189 0.63691 0.36055 0.0
Co885 Co 0.16203 0.29889 0.86326 0.0
Co886 Co 0.12346 0.33097 0.82917 0.0
O887 O 0.13353 0.31833 0.85983 0.0
C888 C 0.16729 0.33456 0.90186 0.0
O889 O 0.16003 0.35117 0.88733 0.0
C890 C 0.07764 0.30868 0.84385 0.0
O891 O 0.08803 0.28789 0.8444 0.0
O892 O 0.12391 0.29859 0.815 0.0
O893 O 0.1565 0.28356 0.83192 0.0
H894 H 0.12567 0.33917 0.74069 0.0
H895 H 0.12578 0.29903 0.90108 0.0
O896 O 0.16866 0.31317 0.89498 0.0
H897 H 0.13174 0.21589 0.87521 0.0
H898 H 0.21982 0.24771 0.90788 0.0
H899 H 0.20152 0.28548 0.8314 0.0
H900 H 0.15685 0.24663 0.85708 0.0
H901 H 0.18361 0.27162 0.90304 0.0
O902 O 0.08942 0.32719 0.8387 0.0
H903 H 0.13871 0.32399 0.77945 0.0
H904 H 0.08536 0.36424 0.81389 0.0
H905 H 0.23783 0.26159 0.83543 0.0
H906 H 0.10044 0.26881 0.91983 0.0
H907 H 0.24718 0.24249 0.87389 0.0
H908 H 0.10332 0.22691 0.90687 0.0
O909 O 0.18154 0.32381 0.84772 0.0
H910 H 0.10384 0.39159 0.89117 0.0
H911 H 0.14328 0.37774 0.8146 0.0
H912 H 0.14391 0.41768 0.83216 0.0
H913 H 0.12403 0.42482 0.87069 0.0
H914 H 0.10386 0.35185 0.87311 0.0
H915 H 0.07163 0.37972 0.77548 0.0
H916 H 0.0919 0.36726 0.73853 0.0
O917 O 0.15707 0.33563 0.8188 0.0
C918 C 0.14029 0.28305 0.81624 0.0
C919 C 0.11675 0.3448 0.75667 0.0
C920 C 0.0864 0.36754 0.77619 0.0
N921 N 0.11296 0.34337 0.79893 0.0
C922 C 0.12409 0.33631 0.77868 0.0
C923 C 0.09424 0.35868 0.79789 0.0
C924 C 0.09778 0.36054 0.75547 0.0
C925 C 0.12725 0.2808 0.89548 0.0
N926 N 0.14287 0.27458 0.87812 0.0
C927 C 0.11281 0.26378 0.9061 0.0
C928 C 0.11441 0.24028 0.8988 0.0
C929 C 0.13035 0.23409 0.88104 0.0
C930 C 0.14449 0.25158 0.8708 0.0
C931 C 0.21592 0.25591 0.89102 0.0
C932 C 0.2054 0.27714 0.84817 0.0
C933 C 0.19547 0.26951 0.88819 0.0
N934 N 0.19037 0.27981 0.86691 0.0
C935 C 0.22602 0.26367 0.85035 0.0
C936 C 0.23126 0.25298 0.87194 0.0
C937 C 0.1776 0.33442 0.82817 0.0
C938 C 0.1125 0.38871 0.87434 0.0
C939 C 0.1347 0.38066 0.83144 0.0
C940 C 0.13505 0.40334 0.84125 0.0
C941 C 0.12387 0.40734 0.86286 0.0
N942 N 0.12349 0.36249 0.84279 0.0
C943 C 0.11249 0.36627 0.86398 0.0
Co944 Co 0.64084 0.84542 0.79337 0.0
Co945 Co 0.67344 0.88046 0.83148 0.0
O946 O 0.64382 0.87163 0.81581 0.0
C947 C 0.6031 0.83571 0.82893 0.0
O948 O 0.61783 0.8419 0.84578 0.0
C949 C 0.66003 0.92642 0.80927 0.0
O950 O 0.65913 0.91577 0.78864 0.0
O951 O 0.69094 0.88072 0.80072 0.0
O952 O 0.67172 0.85389 0.77845 0.0
H953 H 0.76052 0.87494 0.84889 0.0
H954 H 0.60244 0.88072 0.79876 0.0
O955 O 0.60959 0.83624 0.80738 0.0
H956 H 0.62536 0.8843 0.71468 0.0
H957 H 0.59677 0.79235 0.73693 0.0
H958 H 0.67376 0.80924 0.77444 0.0
H959 H 0.64479 0.85618 0.74182 0.0
H960 H 0.60099 0.82562 0.76485 0.0
O961 O 0.66519 0.91478 0.82785 0.0
H962 H 0.72315 0.86359 0.82943 0.0
H963 H 0.68635 0.91723 0.86708 0.0
H964 H 0.67038 0.77592 0.74646 0.0
H965 H 0.58233 0.90896 0.77221 0.0
H966 H 0.63166 0.7673 0.72749 0.0
H967 H 0.59382 0.91092 0.72986 0.0
O968 O 0.65738 0.82327 0.81547 0.0
H969 H 0.60614 0.89971 0.88633 0.0
H970 H 0.68278 0.8586 0.87862 0.0
H971 H 0.66127 0.857 0.91654 0.0
H972 H 0.62268 0.87769 0.92058 0.0
H973 H 0.62812 0.90067 0.84866 0.0
H974 H 0.72336 0.92928 0.88682 0.0
H975 H 0.76079 0.90802 0.87782 0.0
O976 O 0.68232 0.8466 0.83577 0.0
C977 C 0.68893 0.86805 0.7821 0.0
C978 C 0.74433 0.88431 0.853 0.0
C979 C 0.72347 0.91483 0.87426 0.0
N980 N 0.70257 0.88965 0.84718 0.0
C981 C 0.7231 0.87794 0.84206 0.0
C982 C 0.70258 0.90796 0.86298 0.0
C983 C 0.74446 0.90289 0.86921 0.0
C984 C 0.60746 0.8814 0.78032 0.0
N985 N 0.62484 0.86687 0.77185 0.0
C986 C 0.59604 0.89745 0.76539 0.0
C987 C 0.60252 0.89856 0.74163 0.0
C988 C 0.62022 0.88365 0.73311 0.0
C989 C 0.63126 0.86784 0.74858 0.0
C990 C 0.61375 0.79595 0.74505 0.0
C991 C 0.65689 0.80568 0.76615 0.0
C992 C 0.61623 0.81473 0.76092 0.0
N993 N 0.63765 0.81946 0.77114 0.0
C994 C 0.65506 0.78676 0.75037 0.0
C995 C 0.63333 0.78191 0.73976 0.0
C996 C 0.67455 0.82627 0.82986 0.0
C997 C 0.62297 0.89068 0.88481 0.0
C998 C 0.66595 0.86757 0.88021 0.0
C999 C 0.65389 0.86666 0.90175 0.0
C1000 C 0.63225 0.87829 0.90401 0.0
N1001 N 0.65676 0.87979 0.86146 0.0
C1002 C 0.63555 0.89125 0.86356 0.0
Co1003 Co 0.86166 0.15707 0.29898 0.0
Co1004 Co 0.82677 0.12176 0.33489 0.0
O1005 O 0.8574 0.13058 0.32104 0.0
C1006 C 0.90182 0.16186 0.33406 0.0
O1007 O 0.89088 0.14857 0.34959 0.0
C1008 C 0.84146 0.07603 0.31306 0.0
O1009 O 0.84379 0.08694 0.29268 0.0
O1010 O 0.81108 0.12183 0.30321 0.0
O1011 O 0.8314 0.14908 0.28264 0.0
H1012 H 0.73885 0.12789 0.34712 0.0
H1013 H 0.89922 0.12091 0.30545 0.0
O1014 O 0.89244 0.1664 0.31409 0.0
H1015 H 0.88004 0.11925 0.22041 0.0
H1016 H 0.90807 0.21045 0.24469 0.0
H1017 H 0.82973 0.19379 0.27938 0.0
H1018 H 0.85981 0.14715 0.24714 0.0
H1019 H 0.90265 0.17688 0.27202 0.0
O1020 O 0.83495 0.08741 0.33136 0.0
H1021 H 0.77741 0.13909 0.33004 0.0
H1022 H 0.81144 0.08472 0.36926 0.0
H1023 H 0.83434 0.22742 0.25195 0.0
H1024 H 0.9201 0.09292 0.27933 0.0
H1025 H 0.87374 0.23593 0.2344 0.0
H1026 H 0.9105 0.09191 0.23648 0.0
O1027 O 0.84449 0.17898 0.32072 0.0
H1028 H 0.88902 0.09929 0.39438 0.0
H1029 H 0.81514 0.14394 0.38135 0.0
H1030 H 0.83375 0.14426 0.42079 0.0
H1031 H 0.87091 0.12173 0.42753 0.0
H1032 H 0.87008 0.09981 0.3551 0.0
H1033 H 0.77321 0.07282 0.38664 0.0
H1034 H 0.73658 0.09452 0.37565 0.0
O1035 O 0.81792 0.15571 0.33896 0.0
C1036 C 0.81402 0.13491 0.28503 0.0
C1037 C 0.75469 0.11833 0.3521 0.0
C1038 C 0.77398 0.08741 0.37425 0.0
N1039 N 0.79668 0.11267 0.34873 0.0
C1040 C 0.77659 0.12462 0.34252 0.0
C1041 C 0.79557 0.09419 0.36431 0.0
C1042 C 0.75343 0.09959 0.36808 0.0
C1043 C 0.89507 0.12074 0.2868 0.0
N1044 N 0.87834 0.13573 0.27784 0.0
C1045 C 0.9069 0.10478 0.27211 0.0
C1046 C 0.90148 0.10419 0.24807 0.0
C1047 C 0.88438 0.11951 0.23905 0.0
C1048 C 0.8729 0.13522 0.25429 0.0
C1049 C 0.89081 0.2069 0.25219 0.0
C1050 C 0.8469 0.19729 0.2717 0.0
C1051 C 0.88763 0.18794 0.26772 0.0
N1052 N 0.86585 0.18327 0.27716 0.0
C1053 C 0.84942 0.2164 0.25624 0.0
C1054 C 0.87153 0.22118 0.24642 0.0
C1055 C 0.82642 0.17602 0.33397 0.0
C1056 C 0.87281 0.10915 0.39167 0.0
C1057 C 0.83146 0.13432 0.38405 0.0
C1058 C 0.84184 0.13445 0.40647 0.0
C1059 C 0.86267 0.12178 0.41025 0.0
N1060 N 0.84154 0.12192 0.36589 0.0
C1061 C 0.86193 0.10941 0.36949 0.0
Co1062 Co 0.13889 0.6612 0.20992 0.0
Co1063 Co 0.17202 0.62711 0.17152 0.0
O1064 O 0.14222 0.63511 0.18731 0.0
C1065 C 0.1003 0.67006 0.17511 0.0
O1066 O 0.11516 0.6649 0.15803 0.0
C1067 C 0.15848 0.5802 0.19211 0.0
O1068 O 0.15509 0.59018 0.21281 0.0
O1069 O 0.18931 0.62646 0.20242 0.0
O1070 O 0.17038 0.6539 0.22401 0.0
H1071 H 0.25914 0.63472 0.15531 0.0
H1072 H 0.10091 0.62527 0.2057 0.0
O1073 O 0.10701 0.66932 0.1966 0.0
H1074 H 0.12787 0.62077 0.28853 0.0
H1075 H 0.09417 0.71221 0.2677 0.0
H1076 H 0.17095 0.69835 0.22858 0.0
H1077 H 0.1457 0.6495 0.26096 0.0
H1078 H 0.09901 0.67937 0.23938 0.0
O1079 O 0.1648 0.5926 0.17441 0.0
H1080 H 0.22131 0.64483 0.17459 0.0
H1081 H 0.18605 0.59157 0.13499 0.0
H1082 H 0.16695 0.73128 0.25691 0.0
H1083 H 0.08245 0.59639 0.23274 0.0
H1084 H 0.12833 0.73839 0.27669 0.0
H1085 H 0.09598 0.59398 0.27447 0.0
O1086 O 0.15428 0.68393 0.18765 0.0
H1087 H 0.10465 0.60787 0.1168 0.0
H1088 H 0.1814 0.64869 0.12419 0.0
H1089 H 0.15973 0.65045 0.08637 0.0
H1090 H 0.12106 0.62988 0.08249 0.0
H1091 H 0.12681 0.60686 0.15438 0.0
H1092 H 0.22353 0.58073 0.11545 0.0
H1093 H 0.26042 0.60244 0.12551 0.0
O1094 O 0.18009 0.66126 0.16762 0.0
C1095 C 0.18755 0.63965 0.2207 0.0
C1096 C 0.24318 0.62517 0.15073 0.0
C1097 C 0.2232 0.59484 0.12839 0.0
N1098 N 0.20146 0.6189 0.15584 0.0
C1099 C 0.22169 0.63085 0.16155 0.0
C1100 C 0.20204 0.60101 0.13957 0.0
C1101 C 0.24389 0.60704 0.13403 0.0
C1102 C 0.10674 0.62446 0.22389 0.0
N1103 N 0.12425 0.63915 0.23177 0.0
C1104 C 0.09629 0.60802 0.23909 0.0
C1105 C 0.10391 0.60665 0.2625 0.0
C1106 C 0.12181 0.62167 0.2704 0.0
C1107 C 0.13187 0.63787 0.25468 0.0
C1108 C 0.11109 0.70929 0.2592 0.0
C1109 C 0.15411 0.70128 0.23717 0.0
C1110 C 0.11392 0.69076 0.24309 0.0
N1111 N 0.13526 0.68691 0.23238 0.0
C1112 C 0.15194 0.71998 0.25317 0.0
C1113 C 0.13026 0.72396 0.26425 0.0
C1114 C 0.17163 0.68136 0.17339 0.0
C1115 C 0.12148 0.6169 0.11826 0.0
C1116 C 0.16449 0.63993 0.12271 0.0
C1117 C 0.15236 0.64086 0.10121 0.0
C1118 C 0.13068 0.62928 0.09903 0.0
N1119 N 0.15534 0.62781 0.14151 0.0
C1120 C 0.13414 0.61633 0.13947 0.0
Co1121 Co 0.36383 0.34429 0.70897 0.0
Co1122 Co 0.33104 0.37893 0.67073 0.0
O1123 O 0.36068 0.37061 0.68666 0.0
C1124 C 0.40268 0.33572 0.6743 0.0
O1125 O 0.38801 0.34125 0.65717 0.0
C1126 C 0.34284 0.42536 0.69303 0.0
O1127 O 0.34337 0.41488 0.71376 0.0
O1128 O 0.31331 0.37897 0.70141 0.0
O1129 O 0.33232 0.35155 0.72297 0.0
H1130 H 0.24416 0.37189 0.65297 0.0
H1131 H 0.40188 0.3802 0.70531 0.0
O1132 O 0.39578 0.33619 0.69574 0.0
H1133 H 0.37465 0.38374 0.78809 0.0
H1134 H 0.40806 0.29248 0.76644 0.0
H1135 H 0.33155 0.30703 0.72703 0.0
H1136 H 0.35687 0.35538 0.76011 0.0
H1137 H 0.40349 0.32565 0.73846 0.0
O1138 O 0.33859 0.41344 0.67439 0.0
H1139 H 0.28165 0.36126 0.67266 0.0
H1140 H 0.31765 0.4154 0.63495 0.0
H1141 H 0.33529 0.27377 0.75502 0.0
H1142 H 0.42029 0.40872 0.73275 0.0
H1143 H 0.37377 0.26631 0.77495 0.0
H1144 H 0.40664 0.41064 0.77446 0.0
O1145 O 0.34846 0.32191 0.68637 0.0
H1146 H 0.39878 0.39911 0.61679 0.0
H1147 H 0.3223 0.35758 0.62322 0.0
H1148 H 0.34427 0.35637 0.58556 0.0
H1149 H 0.3828 0.37729 0.58216 0.0
H1150 H 0.37632 0.39962 0.65419 0.0
H1151 H 0.28051 0.42674 0.61499 0.0
H1152 H 0.24344 0.40485 0.6239 0.0
O1153 O 0.32285 0.34479 0.66627 0.0
C1154 C 0.31505 0.36568 0.71961 0.0
C1155 C 0.26021 0.38151 0.64888 0.0
C1156 C 0.28061 0.41232 0.6276 0.0
N1157 N 0.30185 0.38757 0.65484 0.0
C1158 C 0.28151 0.37553 0.65993 0.0
C1159 C 0.30158 0.40585 0.63899 0.0
C1160 C 0.25982 0.40003 0.6326 0.0
C1161 C 0.39599 0.38081 0.72348 0.0
N1162 N 0.37844 0.36604 0.73113 0.0
C1163 C 0.40641 0.39705 0.73892 0.0
C1164 C 0.39873 0.39813 0.76231 0.0
C1165 C 0.38077 0.38305 0.76997 0.0
C1166 C 0.37074 0.36706 0.75403 0.0
C1167 C 0.3912 0.29555 0.75788 0.0
C1168 C 0.34833 0.30395 0.73568 0.0
C1169 C 0.38853 0.31426 0.74196 0.0
N1170 N 0.36725 0.31831 0.73116 0.0
C1171 C 0.35035 0.28506 0.75149 0.0
C1172 C 0.37195 0.28088 0.76265 0.0
C1173 C 0.33118 0.3246 0.67204 0.0
C1174 C 0.38199 0.38996 0.61803 0.0
C1175 C 0.33911 0.36657 0.62193 0.0
C1176 C 0.35144 0.36591 0.60053 0.0
C1177 C 0.37304 0.37768 0.59862 0.0
N1178 N 0.34802 0.37863 0.64089 0.0
C1179 C 0.36916 0.39026 0.63914 0.0
Co1180 Co 0.79878 0.64216 0.84404 0.0
Co1181 Co 0.83165 0.67646 0.88145 0.0
O1182 O 0.81846 0.64594 0.87215 0.0
C1183 C 0.83326 0.60274 0.83452 0.0
O1184 O 0.85062 0.61804 0.83237 0.0
C1185 C 0.80923 0.66174 0.92691 0.0
O1186 O 0.78873 0.66041 0.91604 0.0
O1187 O 0.79949 0.69118 0.88089 0.0
O1188 O 0.78419 0.6741 0.84852 0.0
H1189 H 0.84151 0.76475 0.8774 0.0
H1190 H 0.79817 0.60569 0.88176 0.0
O1191 O 0.81233 0.60973 0.83918 0.0
H1192 H 0.7156 0.6332 0.87485 0.0
H1193 H 0.7467 0.59633 0.78812 0.0
H1194 H 0.78556 0.67292 0.80361 0.0
H1195 H 0.7467 0.6497 0.84908 0.0
H1196 H 0.77093 0.60204 0.82396 0.0
O1197 O 0.82781 0.66758 0.91557 0.0
H1198 H 0.82555 0.72601 0.8652 0.0
H1199 H 0.86531 0.69186 0.91909 0.0
H1200 H 0.76136 0.66802 0.76764 0.0
H1201 H 0.76758 0.58857 0.90775 0.0
H1202 H 0.74171 0.6295 0.75972 0.0
H1203 H 0.72596 0.60236 0.90442 0.0
O1204 O 0.82383 0.65679 0.82389 0.0
H1205 H 0.89098 0.61306 0.90072 0.0
H1206 H 0.87866 0.69008 0.86156 0.0
H1207 H 0.91822 0.67162 0.86071 0.0
H1208 H 0.92459 0.63285 0.88044 0.0
H1209 H 0.85167 0.63207 0.901 0.0
H1210 H 0.88156 0.73026 0.93198 0.0
H1211 H 0.86973 0.76705 0.91101 0.0
O1212 O 0.83629 0.686 0.8477 0.0
C1213 C 0.78398 0.69005 0.86448 0.0
C1214 C 0.84686 0.74884 0.88662 0.0
C1215 C 0.86931 0.72949 0.91728 0.0
N1216 N 0.84465 0.70667 0.89128 0.0
C1217 C 0.83793 0.72684 0.87976 0.0
C1218 C 0.86002 0.7078 0.90993 0.0
C1219 C 0.86268 0.75012 0.9055 0.0
C1220 C 0.78006 0.61165 0.88007 0.0
N1221 N 0.77422 0.62856 0.86382 0.0
C1222 C 0.76283 0.60195 0.89489 0.0
C1223 C 0.73949 0.60971 0.89303 0.0
C1224 C 0.73367 0.62702 0.87645 0.0
C1225 C 0.75137 0.63633 0.86194 0.0
C1226 C 0.75513 0.61321 0.7914 0.0
C1227 C 0.77698 0.65614 0.80035 0.0
C1228 C 0.76892 0.61654 0.81164 0.0
N1229 N 0.77951 0.63786 0.81596 0.0
C1230 C 0.76334 0.65345 0.77992 0.0
C1231 C 0.75234 0.63183 0.77547 0.0
C1232 C 0.8348 0.67625 0.82739 0.0
C1233 C 0.88845 0.62998 0.89212 0.0
C1234 C 0.88127 0.67318 0.87013 0.0
C1235 C 0.90372 0.66283 0.86963 0.0
C1236 C 0.90729 0.64108 0.88071 0.0
N1237 N 0.86291 0.66222 0.88144 0.0
C1238 C 0.86625 0.64086 0.89228 0.0
Co1239 Co 0.29552 0.86382 0.15697 0.0
Co1240 Co 0.33258 0.82811 0.12443 0.0
O1241 O 0.31826 0.85878 0.13142 0.0
C1242 C 0.33074 0.90177 0.16888 0.0
O1243 O 0.34749 0.88588 0.17162 0.0
C1244 C 0.31396 0.84267 0.0772 0.0
O1245 O 0.29341 0.84741 0.08699 0.0
O1246 O 0.30082 0.81255 0.12328 0.0
O1247 O 0.28017 0.8326 0.15074 0.0
H1248 H 0.34442 0.74047 0.13405 0.0
H1249 H 0.30173 0.89942 0.11892 0.0
O1250 O 0.30982 0.89556 0.16331 0.0
H1251 H 0.21727 0.87756 0.1164 0.0
H1252 H 0.23933 0.91268 0.20598 0.0
H1253 H 0.27563 0.83402 0.19527 0.0
H1254 H 0.24393 0.85988 0.14608 0.0
H1255 H 0.26754 0.90552 0.17347 0.0
O1256 O 0.33104 0.83505 0.08976 0.0
H1257 H 0.32675 0.77935 0.14302 0.0
H1258 H 0.36917 0.81166 0.09007 0.0
H1259 H 0.24736 0.84036 0.22789 0.0
H1260 H 0.27567 0.91778 0.08913 0.0
H1261 H 0.229 0.87993 0.23341 0.0
H1262 H 0.23312 0.9068 0.08767 0.0
O1263 O 0.31716 0.84844 0.18047 0.0
H1264 H 0.39179 0.89194 0.10634 0.0
H1265 H 0.3783 0.81663 0.14833 0.0
H1266 H 0.41727 0.8361 0.15114 0.0
H1267 H 0.42422 0.87401 0.13 0.0
H1268 H 0.35303 0.87195 0.10415 0.0
H1269 H 0.38716 0.7731 0.08039 0.0
H1270 H 0.37486 0.73716 0.10251 0.0
O1271 O 0.33488 0.82041 0.15865 0.0
C1272 C 0.2827 0.81523 0.13655 0.0
C1273 C 0.34995 0.756 0.1243 0.0
C1274 C 0.37392 0.77431 0.09416 0.0
N1275 N 0.34693 0.79777 0.11712 0.0
C1276 C 0.34003 0.77807 0.12932 0.0
C1277 C 0.3636 0.79609 0.09967 0.0
C1278 C 0.36702 0.75415 0.10659 0.0
C1279 C 0.28321 0.89463 0.11849 0.0
N1280 N 0.27438 0.87846 0.13416 0.0
C1281 C 0.26855 0.90505 0.10154 0.0
C1282 C 0.24469 0.89886 0.10071 0.0
C1283 C 0.23579 0.88244 0.11681 0.0
C1284 C 0.25099 0.87236 0.13349 0.0
C1285 C 0.24719 0.89535 0.20374 0.0
C1286 C 0.26761 0.85125 0.19747 0.0
C1287 C 0.26322 0.89121 0.1854 0.0
N1288 N 0.2731 0.86933 0.18237 0.0
C1289 C 0.25167 0.85475 0.21602 0.0
C1290 C 0.24139 0.87696 0.21912 0.0
C1291 C 0.32997 0.82989 0.17849 0.0
C1292 C 0.38899 0.87539 0.11558 0.0
C1293 C 0.38116 0.83316 0.13913 0.0
C1294 C 0.40328 0.84407 0.14075 0.0
C1295 C 0.40718 0.86534 0.12888 0.0
N1296 N 0.36344 0.84309 0.12598 0.0
C1297 C 0.36711 0.86396 0.11434 0.0
Co1298 Co 0.20975 0.14023 0.65945 0.0
Co1299 Co 0.17165 0.17446 0.62599 0.0
O1300 O 0.18683 0.14422 0.63367 0.0
C1301 C 0.17416 0.10217 0.66857 0.0
O1302 O 0.15717 0.11697 0.6629 0.0
C1303 C 0.19123 0.16008 0.57899 0.0
O1304 O 0.2117 0.15546 0.589 0.0
O1305 O 0.2029 0.19103 0.62501 0.0
O1306 O 0.22483 0.17129 0.6517 0.0
H1307 H 0.15718 0.26184 0.6342 0.0
H1308 H 0.20348 0.10287 0.62325 0.0
O1309 O 0.1957 0.10876 0.66794 0.0
H1310 H 0.28766 0.12548 0.61865 0.0
H1311 H 0.26693 0.09417 0.71004 0.0
H1312 H 0.22953 0.17184 0.6963 0.0
H1313 H 0.26116 0.14425 0.64779 0.0
H1314 H 0.23843 0.09961 0.67745 0.0
O1315 O 0.17388 0.16732 0.5914 0.0
H1316 H 0.1759 0.22363 0.64389 0.0
H1317 H 0.13482 0.18934 0.59114 0.0
H1318 H 0.2581 0.16723 0.72897 0.0
H1319 H 0.22939 0.08341 0.594 0.0
H1320 H 0.27702 0.12816 0.73601 0.0
H1321 H 0.27179 0.09477 0.59151 0.0
O1322 O 0.18812 0.15622 0.68248 0.0
H1323 H 0.11438 0.10919 0.60681 0.0
H1324 H 0.12541 0.18445 0.64958 0.0
H1325 H 0.08698 0.1639 0.65183 0.0
H1326 H 0.08126 0.12601 0.6303 0.0
H1327 H 0.15262 0.13021 0.60523 0.0
H1328 H 0.11579 0.22722 0.58074 0.0
H1329 H 0.1269 0.26381 0.6024 0.0
O1330 O 0.16863 0.18255 0.66006 0.0
C1331 C 0.22149 0.18866 0.63766 0.0
C1332 C 0.15218 0.24602 0.62465 0.0
C1333 C 0.12897 0.22659 0.59463 0.0
N1334 N 0.15646 0.20425 0.61812 0.0
C1335 C 0.1627 0.22432 0.63007 0.0
C1336 C 0.13987 0.2052 0.60054 0.0
C1337 C 0.1352 0.24711 0.60679 0.0
C1338 C 0.22195 0.1078 0.62236 0.0
N1339 N 0.23079 0.12474 0.63716 0.0
C1340 C 0.23651 0.09676 0.60573 0.0
C1341 C 0.2603 0.10316 0.60432 0.0
C1342 C 0.26921 0.12041 0.61952 0.0
C1343 C 0.2541 0.13108 0.63591 0.0
C1344 C 0.25883 0.11129 0.70713 0.0
C1345 C 0.23779 0.15482 0.69917 0.0
C1346 C 0.24263 0.11446 0.68874 0.0
N1347 N 0.23243 0.13607 0.68488 0.0
C1348 C 0.25391 0.1523 0.71773 0.0
C1349 C 0.26449 0.13037 0.72169 0.0
C1350 C 0.17431 0.17397 0.68009 0.0
C1351 C 0.11664 0.12573 0.61621 0.0
C1352 C 0.12311 0.16791 0.64025 0.0
C1353 C 0.10127 0.15639 0.64153 0.0
C1354 C 0.09807 0.13515 0.62943 0.0
N1355 N 0.14123 0.15857 0.62722 0.0
C1356 C 0.13821 0.13776 0.6153 0.0
Co1357 Co 0.70536 0.36202 0.34234 0.0
Co1358 Co 0.67108 0.32955 0.38047 0.0
O1359 O 0.68516 0.35955 0.37036 0.0
C1360 C 0.67083 0.40142 0.33572 0.0
O1361 O 0.65373 0.38715 0.34233 0.0
C1362 C 0.69346 0.3445 0.42595 0.0
O1363 O 0.71412 0.34508 0.41531 0.0
O1364 O 0.70281 0.31393 0.38069 0.0
O1365 O 0.71957 0.33026 0.34867 0.0
H1366 H 0.65904 0.24143 0.37892 0.0
H1367 H 0.70546 0.40036 0.37805 0.0
O1368 O 0.69213 0.39411 0.33504 0.0
H1369 H 0.78792 0.37187 0.37454 0.0
H1370 H 0.75918 0.40443 0.28535 0.0
H1371 H 0.71889 0.32922 0.3037 0.0
H1372 H 0.75726 0.35432 0.34893 0.0
H1373 H 0.73422 0.40076 0.32096 0.0
O1374 O 0.67485 0.33917 0.41442 0.0
H1375 H 0.67614 0.27938 0.36581 0.0
H1376 H 0.63656 0.3161 0.4181 0.0
H1377 H 0.74381 0.33207 0.26801 0.0
H1378 H 0.73561 0.41854 0.40387 0.0
H1379 H 0.76418 0.36989 0.25864 0.0
H1380 H 0.77717 0.40426 0.40223 0.0
O1381 O 0.68049 0.34695 0.32237 0.0
H1382 H 0.61299 0.39444 0.39852 0.0
H1383 H 0.62403 0.31691 0.36 0.0
H1384 H 0.58493 0.33628 0.35849 0.0
H1385 H 0.57921 0.3753 0.37789 0.0
H1386 H 0.65186 0.37456 0.39938 0.0
H1387 H 0.61918 0.27852 0.43189 0.0
H1388 H 0.63033 0.24084 0.41219 0.0
O1389 O 0.66654 0.31909 0.34694 0.0
C1390 C 0.71889 0.31454 0.36484 0.0
C1391 C 0.65398 0.25774 0.38759 0.0
C1392 C 0.63162 0.27856 0.41733 0.0
N1393 N 0.6572 0.29997 0.39102 0.0
C1394 C 0.66355 0.2793 0.3802 0.0
C1395 C 0.64156 0.29978 0.40947 0.0
C1396 C 0.63789 0.25742 0.40627 0.0
C1397 C 0.72355 0.39418 0.37712 0.0
N1398 N 0.72962 0.37641 0.36191 0.0
C1399 C 0.74053 0.40449 0.39183 0.0
C1400 C 0.76384 0.39644 0.39092 0.0
C1401 C 0.76988 0.37826 0.3754 0.0
C1402 C 0.75243 0.36836 0.36097 0.0
C1403 C 0.75043 0.38785 0.28926 0.0
C1404 C 0.72778 0.3457 0.29981 0.0
C1405 C 0.73623 0.38567 0.30937 0.0
N1406 N 0.72523 0.36474 0.31449 0.0
C1407 C 0.74183 0.34723 0.27954 0.0
C1408 C 0.75323 0.36846 0.27429 0.0
C1409 C 0.66887 0.32798 0.32632 0.0
C1410 C 0.61524 0.3774 0.39005 0.0
C1411 C 0.62172 0.33394 0.36838 0.0
C1412 C 0.59951 0.34479 0.36753 0.0
C1413 C 0.59631 0.36668 0.37845 0.0
N1414 N 0.6402 0.34457 0.37983 0.0
C1415 C 0.63719 0.36602 0.39057 0.0
H1416 H 0.18061 0.34417 0.22389 0.0
H1417 H 0.15212 0.29009 0.17787 0.0
H1418 H 0.16957 0.32045 0.25824 0.0
H1419 H 0.1421 0.26617 0.21189 0.0
H1420 H 0.17817 0.25758 0.3092 0.0
H1421 H 0.183 0.28552 0.27709 0.0
H1422 H 0.118 0.26046 0.24545 0.0
H1423 H 0.11366 0.23165 0.27724 0.0
C1424 C 0.17186 0.32735 0.22107 0.0
C1425 C 0.16744 0.31904 0.19805 0.0
C1426 C 0.16569 0.31363 0.24077 0.0
C1427 C 0.1551 0.29123 0.23791 0.0
C1428 C 0.14992 0.2834 0.2149 0.0
C1429 C 0.15589 0.29713 0.19528 0.0
C1430 C 0.16478 0.25803 0.2955 0.0
C1431 C 0.14559 0.24214 0.29579 0.0
C1432 C 0.16746 0.27431 0.27712 0.0
C1433 C 0.15093 0.27533 0.25856 0.0
C1434 C 0.13131 0.25995 0.25922 0.0
C1435 C 0.12873 0.24348 0.27755 0.0
H1436 H 0.39543 0.776 0.77476 0.0
H1437 H 0.33346 0.74775 0.80967 0.0
H1438 H 0.39069 0.7468 0.74326 0.0
H1439 H 0.32823 0.71953 0.77802 0.0
H1440 H 0.35339 0.71628 0.67744 0.0
H1441 H 0.3651 0.74021 0.7109 0.0
H1442 H 0.34155 0.68517 0.75852 0.0
H1443 H 0.32877 0.66146 0.72479 0.0
C1444 C 0.38089 0.76356 0.7758 0.0
C1445 C 0.36478 0.76441 0.79472 0.0
C1446 C 0.37807 0.74687 0.75766 0.0
C1447 C 0.35899 0.73078 0.75796 0.0
C1448 C 0.34336 0.73127 0.77728 0.0
C1449 C 0.34626 0.74774 0.79541 0.0
C1450 C 0.35083 0.70908 0.695 0.0
C1451 C 0.33981 0.68697 0.69835 0.0
C1452 C 0.35781 0.72281 0.71429 0.0
C1453 C 0.35419 0.71478 0.73752 0.0
C1454 C 0.34421 0.69216 0.74089 0.0
C1455 C 0.33701 0.67845 0.72153 0.0
H1456 H 0.61043 0.27697 0.7263 0.0
H1457 H 0.67184 0.24703 0.69183 0.0
H1458 H 0.61459 0.24813 0.75822 0.0
H1459 H 0.67652 0.21915 0.72388 0.0
H1460 H 0.6745 0.16165 0.7779 0.0
H1461 H 0.66251 0.18533 0.74385 0.0
H1462 H 0.63995 0.24138 0.79074 0.0
H1463 H 0.65088 0.2175 0.82454 0.0
C1464 C 0.62473 0.26423 0.72544 0.0
C1465 C 0.64085 0.26451 0.70651 0.0
C1466 C 0.62722 0.24775 0.74382 0.0
C1467 C 0.64599 0.23129 0.74378 0.0
C1468 C 0.66162 0.2312 0.72446 0.0
C1469 C 0.65904 0.24747 0.70608 0.0
C1470 C 0.66665 0.17888 0.78093 0.0
C1471 C 0.66387 0.18767 0.80402 0.0
C1472 C 0.65991 0.19256 0.76138 0.0
C1473 C 0.65043 0.21544 0.76444 0.0
C1474 C 0.64687 0.22379 0.78758 0.0
C1475 C 0.65339 0.21008 0.80706 0.0
H1476 H 0.89197 0.72199 0.22917 0.0
H1477 H 0.83674 0.75902 0.19125 0.0
H1478 H 0.88832 0.75034 0.2616 0.0
H1479 H 0.83238 0.78631 0.22373 0.0
H1480 H 0.84992 0.7823 0.32605 0.0
H1481 H 0.86155 0.75867 0.29235 0.0
H1482 H 0.84737 0.81785 0.24597 0.0
H1483 H 0.83453 0.84131 0.27984 0.0
C1484 C 0.87916 0.73618 0.22766 0.0
C1485 C 0.86456 0.73802 0.20761 0.0
C1486 C 0.87693 0.75237 0.24633 0.0
C1487 C 0.85992 0.77063 0.24545 0.0
C1488 C 0.84594 0.77284 0.22502 0.0
C1489 C 0.84831 0.75689 0.20637 0.0
C1490 C 0.8494 0.79044 0.30871 0.0
C1491 C 0.84094 0.81369 0.30569 0.0
C1492 C 0.85635 0.77686 0.28931 0.0
C1493 C 0.85531 0.78619 0.26629 0.0
C1494 C 0.84795 0.80986 0.26337 0.0
C1495 C 0.84071 0.8234 0.28281 0.0
H1496 H 0.27666 0.10864 0.22746 0.0
H1497 H 0.31067 0.17037 0.25723 0.0
H1498 H 0.24513 0.11208 0.25685 0.0
H1499 H 0.27901 0.17433 0.28563 0.0
H1500 H 0.22617 0.17253 0.34335 0.0
H1501 H 0.2599 0.15991 0.31961 0.0
H1502 H 0.21226 0.13678 0.26442 0.0
H1503 H 0.17873 0.14828 0.28845 0.0
C1504 C 0.2775 0.12285 0.24029 0.0
C1505 C 0.29618 0.13928 0.23981 0.0
C1506 C 0.25935 0.12492 0.25708 0.0
C1507 C 0.25939 0.14355 0.27367 0.0
C1508 C 0.27847 0.1595 0.27352 0.0
C1509 C 0.29661 0.15734 0.25694 0.0
C1510 C 0.22289 0.16433 0.32635 0.0
C1511 C 0.19969 0.16172 0.31777 0.0
C1512 C 0.24226 0.15725 0.31261 0.0
C1513 C 0.23891 0.14763 0.28986 0.0
C1514 C 0.21565 0.14389 0.28187 0.0
C1515 C 0.19632 0.15072 0.29568 0.0
H1516 H 0.32731 0.85556 0.78523 0.0
H1517 H 0.2813 0.83186 0.84156 0.0
H1518 H 0.2932 0.86657 0.76182 0.0
H1519 H 0.24694 0.84396 0.81837 0.0
H1520 H 0.19431 0.834 0.75737 0.0
H1521 H 0.22671 0.8297 0.78491 0.0
H1522 H 0.26041 0.89161 0.75517 0.0
H1523 H 0.22813 0.89538 0.72665 0.0
C1524 C 0.30991 0.85308 0.79287 0.0
C1525 C 0.30713 0.84248 0.81525 0.0
C1526 C 0.29024 0.85965 0.77943 0.0
C1527 C 0.26719 0.85603 0.78803 0.0
C1528 C 0.26441 0.84657 0.81093 0.0
C1529 C 0.28413 0.83978 0.82434 0.0
C1530 C 0.20849 0.84687 0.75669 0.0
C1531 C 0.20863 0.86494 0.73953 0.0
C1532 C 0.22707 0.84451 0.77277 0.0
C1533 C 0.24631 0.86026 0.77238 0.0
C1534 C 0.24608 0.8789 0.75579 0.0
C1535 C 0.2275 0.88117 0.7395 0.0
H1536 H 0.81156 0.33381 0.74588 0.0
H1537 H 0.77709 0.39474 0.77678 0.0
H1538 H 0.77935 0.32948 0.71811 0.0
H1539 H 0.74502 0.39095 0.74804 0.0
H1540 H 0.6785 0.35518 0.71673 0.0
H1541 H 0.71233 0.36598 0.74073 0.0
H1542 H 0.75934 0.34381 0.68462 0.0
H1543 H 0.72533 0.33193 0.6609 0.0
C1544 C 0.79728 0.34659 0.74655 0.0
C1545 C 0.79692 0.36454 0.76381 0.0
C1546 C 0.7788 0.34421 0.73034 0.0
C1547 C 0.75943 0.35982 0.73071 0.0
C1548 C 0.75944 0.37835 0.74742 0.0
C1549 C 0.77793 0.38063 0.76383 0.0
C1550 C 0.69602 0.35276 0.70933 0.0
C1551 C 0.69911 0.34236 0.68691 0.0
C1552 C 0.71552 0.35919 0.72311 0.0
C1553 C 0.73871 0.35563 0.71481 0.0
C1554 C 0.74179 0.34636 0.69187 0.0
C1555 C 0.72225 0.3397 0.67814 0.0
H1556 H 0.82241 0.6338 0.20369 0.0
H1557 H 0.77912 0.6884 0.17222 0.0
H1558 H 0.78912 0.62117 0.22778 0.0
H1559 H 0.74627 0.67685 0.19732 0.0
H1560 H 0.68511 0.64555 0.23515 0.0
H1561 H 0.71688 0.65027 0.20675 0.0
H1562 H 0.7678 0.63217 0.26098 0.0
H1563 H 0.73564 0.62595 0.28894 0.0
C1564 C 0.80574 0.64307 0.20181 0.0
C1565 C 0.80351 0.66215 0.18597 0.0
C1566 C 0.78665 0.63598 0.21588 0.0
C1567 C 0.76488 0.64806 0.21485 0.0
C1568 C 0.76251 0.66675 0.19848 0.0
C1569 C 0.78148 0.67353 0.18408 0.0
C1570 C 0.70304 0.64218 0.24093 0.0
C1571 C 0.70779 0.63549 0.2644 0.0
C1572 C 0.72139 0.64515 0.22464 0.0
C1573 C 0.74514 0.64208 0.23149 0.0
C1574 C 0.74982 0.63448 0.2548 0.0
C1575 C 0.73134 0.631 0.27098 0.0
H1576 H 0.34368 0.22536 0.17284 0.0
H1577 H 0.28591 0.18023 0.1509 0.0
H1578 H 0.32125 0.25998 0.15993 0.0
H1579 H 0.2633 0.21457 0.13912 0.0
H1580 H 0.22935 0.2788 0.10824 0.0
H1581 H 0.25749 0.24634 0.11289 0.0
H1582 H 0.28844 0.28188 0.17312 0.0
H1583 H 0.2613 0.31451 0.16787 0.0
C1584 C 0.32629 0.22278 0.1652 0.0
C1585 C 0.3166 0.19997 0.16313 0.0
C1586 C 0.31333 0.24265 0.15792 0.0
C1587 C 0.2903 0.24019 0.14859 0.0
C1588 C 0.28104 0.21728 0.14583 0.0
C1589 C 0.29402 0.19748 0.15287 0.0
C1590 C 0.24241 0.27983 0.12223 0.0
C1591 C 0.24284 0.29923 0.13777 0.0
C1592 C 0.25848 0.26112 0.12502 0.0
C1593 C 0.2752 0.26128 0.14354 0.0
C1594 C 0.27614 0.28115 0.15846 0.0
C1595 C 0.26029 0.29987 0.15555 0.0
H1596 H 0.78631 0.32437 0.85303 0.0
H1597 H 0.84291 0.27821 0.83016 0.0
H1598 H 0.76292 0.29036 0.86434 0.0
H1599 H 0.81973 0.24395 0.84256 0.0
H1600 H 0.75861 0.19102 0.83364 0.0
H1601 H 0.78634 0.22322 0.82887 0.0
H1602 H 0.75647 0.25813 0.89001 0.0
H1603 H 0.72776 0.2261 0.89421 0.0
C1604 C 0.794 0.30696 0.85076 0.0
C1605 C 0.81647 0.3041 0.84037 0.0
C1606 C 0.78057 0.28735 0.85752 0.0
C1607 C 0.78928 0.26428 0.85431 0.0
C1608 C 0.81222 0.26143 0.84491 0.0
C1609 C 0.82562 0.28109 0.83792 0.0
C1610 C 0.75797 0.20542 0.84626 0.0
C1611 C 0.74068 0.20601 0.86419 0.0
C1612 C 0.77414 0.22389 0.84363 0.0
C1613 C 0.77371 0.24344 0.85897 0.0
C1614 C 0.75709 0.24357 0.87758 0.0
C1615 C 0.74071 0.22511 0.88011 0.0
H1616 H 0.74739 0.80932 0.33088 0.0
H1617 H 0.77245 0.77736 0.3957 0.0
H1618 H 0.71948 0.77742 0.32569 0.0
H1619 H 0.74339 0.74569 0.39106 0.0
H1620 H 0.71402 0.67802 0.35646 0.0
H1621 H 0.73748 0.71201 0.36763 0.0
H1622 H 0.68471 0.75843 0.33731 0.0
H1623 H 0.66168 0.7241 0.32494 0.0
C1624 C 0.7467 0.79568 0.34432 0.0
C1625 C 0.76244 0.79587 0.36363 0.0
C1626 C 0.73039 0.77738 0.34143 0.0
C1627 C 0.72905 0.7588 0.3579 0.0
C1628 C 0.74415 0.75945 0.37776 0.0
C1629 C 0.76073 0.77771 0.38054 0.0
C1630 C 0.70723 0.69545 0.35227 0.0
C1631 C 0.68603 0.69822 0.33945 0.0
C1632 C 0.72068 0.71507 0.35894 0.0
C1633 C 0.71321 0.73812 0.35327 0.0
C1634 C 0.69136 0.74096 0.34154 0.0
C1635 C 0.67801 0.72126 0.33457 0.0
H1636 H 0.16122 0.77999 0.67276 0.0
H1637 H 0.21772 0.82606 0.64957 0.0
H1638 H 0.18434 0.7457 0.66052 0.0
H1639 H 0.24114 0.79192 0.63839 0.0
H1640 H 0.27591 0.72671 0.60894 0.0
H1641 H 0.24775 0.75926 0.61313 0.0
H1642 H 0.21759 0.72507 0.67453 0.0
H1643 H 0.24477 0.69241 0.6698 0.0
C1644 C 0.17849 0.78285 0.66494 0.0
C1645 C 0.18762 0.80585 0.66239 0.0
C1646 C 0.19187 0.76314 0.65807 0.0
C1647 C 0.21482 0.76591 0.64869 0.0
C1648 C 0.2235 0.78898 0.64526 0.0
C1649 C 0.21005 0.80865 0.6519 0.0
C1650 C 0.26302 0.726 0.62311 0.0
C1651 C 0.26278 0.70691 0.63907 0.0
C1652 C 0.24696 0.74477 0.62563 0.0
C1653 C 0.23036 0.74496 0.64426 0.0
C1654 C 0.22974 0.72549 0.65973 0.0
C1655 C 0.24561 0.70674 0.65712 0.0
H1656 H 0.83634 0.66285 0.78059 0.0
H1657 H 0.85527 0.72006 0.82771 0.0
H1658 H 0.84852 0.68688 0.74689 0.0
H1659 H 0.86621 0.74431 0.79422 0.0
H1660 H 0.89465 0.78204 0.73049 0.0
H1661 H 0.89157 0.75313 0.7625 0.0
H1662 H 0.8333 0.71933 0.72621 0.0
H1663 H 0.83705 0.74718 0.69411 0.0
C1664 C 0.84322 0.68046 0.78381 0.0
C1665 C 0.84455 0.68953 0.8069 0.0
C1666 C 0.85004 0.69436 0.76445 0.0
C1667 C 0.8581 0.71776 0.7677 0.0
C1668 C 0.86039 0.72636 0.7909 0.0
C1669 C 0.85385 0.71242 0.81021 0.0
C1670 C 0.8814 0.76823 0.72926 0.0
C1671 C 0.86604 0.76713 0.70973 0.0
C1672 C 0.87953 0.7517 0.74768 0.0
C1673 C 0.86211 0.73382 0.74709 0.0
C1674 C 0.84723 0.73245 0.72723 0.0
C1675 C 0.84924 0.74873 0.70881 0.0
H1676 H 0.61094 0.22038 0.23006 0.0
H1677 H 0.66796 0.25598 0.19351 0.0
H1678 H 0.61372 0.24934 0.26204 0.0
H1679 H 0.67144 0.28388 0.22558 0.0
H1680 H 0.66732 0.34072 0.2794 0.0
H1681 H 0.65571 0.31615 0.24594 0.0
H1682 H 0.63874 0.25896 0.29383 0.0
H1683 H 0.64911 0.2838 0.32713 0.0
C1684 C 0.624 0.23436 0.22878 0.0
C1685 C 0.63927 0.23568 0.20919 0.0
C1686 C 0.62571 0.25091 0.2472 0.0
C1687 C 0.64287 0.26904 0.24655 0.0
C1688 C 0.6577 0.27057 0.22666 0.0
C1689 C 0.65584 0.25427 0.20824 0.0
C1690 C 0.66074 0.32304 0.2828 0.0
C1691 C 0.65941 0.31424 0.306 0.0
C1692 C 0.65424 0.30883 0.26358 0.0
C1693 C 0.64657 0.28534 0.26704 0.0
C1694 C 0.64428 0.27696 0.29034 0.0
C1695 C 0.65047 0.29125 0.30953 0.0
H1696 H 0.32898 0.75385 0.30986 0.0
H1697 H 0.39565 0.73216 0.27919 0.0
H1698 H 0.3237 0.78258 0.27858 0.0
H1699 H 0.39087 0.76192 0.24829 0.0
H1700 H 0.35703 0.78996 0.18026 0.0
H1701 H 0.36774 0.76671 0.21433 0.0
H1702 H 0.33462 0.81831 0.26008 0.0
H1703 H 0.32278 0.84136 0.22543 0.0
C1704 C 0.34277 0.75546 0.29665 0.0
C1705 C 0.36263 0.74039 0.29692 0.0
C1706 C 0.33982 0.77222 0.27875 0.0
C1707 C 0.35675 0.77461 0.26071 0.0
C1708 C 0.37718 0.76028 0.26159 0.0
C1709 C 0.38002 0.74327 0.2794 0.0
C1710 C 0.3521 0.79661 0.19753 0.0
C1711 C 0.33875 0.81753 0.19997 0.0
C1712 C 0.35853 0.78326 0.21723 0.0
C1713 C 0.35206 0.79048 0.2401 0.0
C1714 C 0.33959 0.81196 0.24271 0.0
C1715 C 0.33293 0.8253 0.22286 0.0
H1716 H 0.14702 0.21384 0.68133 0.0
H1717 H 0.18123 0.16294 0.72711 0.0
H1718 H 0.13622 0.23744 0.71521 0.0
H1719 H 0.16924 0.1862 0.76147 0.0
H1720 H 0.10888 0.27274 0.78036 0.0
H1721 H 0.11341 0.24306 0.7493 0.0
H1722 H 0.18043 0.22176 0.77953 0.0
H1723 H 0.17539 0.25032 0.81087 0.0
C1724 C 0.15191 0.20738 0.69869 0.0
C1725 C 0.16533 0.18654 0.70137 0.0
C1726 C 0.14543 0.22092 0.71827 0.0
C1727 C 0.15191 0.21393 0.74122 0.0
C1728 C 0.16433 0.19245 0.74404 0.0
C1729 C 0.17108 0.17897 0.72434 0.0
C1730 C 0.12441 0.26149 0.78051 0.0
C1731 C 0.14181 0.26412 0.79807 0.0
C1732 C 0.12711 0.24453 0.76261 0.0
C1733 C 0.1474 0.23 0.76171 0.0
C1734 C 0.16438 0.23224 0.77972 0.0
C1735 C 0.16157 0.24892 0.79767 0.0
H1736 H 0.73587 0.8783 0.78875 0.0
H1737 H 0.6856 0.85783 0.73504 0.0
H1738 H 0.76809 0.87229 0.76087 0.0
H1739 H 0.71746 0.85331 0.70668 0.0
H1740 H 0.78057 0.81573 0.67262 0.0
H1741 H 0.74729 0.82711 0.69731 0.0
H1742 H 0.78919 0.88349 0.72773 0.0
H1743 H 0.82284 0.87101 0.70419 0.0
C1744 C 0.73163 0.87312 0.77081 0.0
C1745 C 0.70815 0.86832 0.76423 0.0
C1746 C 0.75014 0.86975 0.75467 0.0
C1747 C 0.74558 0.862 0.73139 0.0
C1748 C 0.72188 0.8586 0.72454 0.0
C1749 C 0.70348 0.86146 0.7408 0.0
C1750 C 0.7826 0.83071 0.68439 0.0
C1751 C 0.80448 0.8423 0.68649 0.0
C1752 C 0.7634 0.8374 0.69854 0.0
C1753 C 0.76542 0.8562 0.71483 0.0
C1754 C 0.787 0.86856 0.71594 0.0
C1755 C 0.80631 0.86156 0.70216 0.0
H1756 H 0.68436 0.13062 0.20071 0.0
H1757 H 0.72483 0.18972 0.17419 0.0
H1758 H 0.71762 0.11836 0.2248 0.0
H1759 H 0.75772 0.17851 0.19959 0.0
H1760 H 0.81911 0.14861 0.23897 0.0
H1761 H 0.7885 0.15348 0.2093 0.0
H1762 H 0.73626 0.12876 0.2595 0.0
H1763 H 0.76728 0.12243 0.2886 0.0
C1764 C 0.70043 0.14097 0.19991 0.0
C1765 C 0.70183 0.16124 0.18554 0.0
C1766 C 0.71951 0.13408 0.21403 0.0
C1767 C 0.7404 0.14759 0.21465 0.0
C1768 C 0.74213 0.16739 0.19952 0.0
C1769 C 0.72316 0.17396 0.18496 0.0
C1770 C 0.80116 0.14378 0.24354 0.0
C1771 C 0.79569 0.13515 0.26623 0.0
C1772 C 0.78347 0.14685 0.22654 0.0
C1773 C 0.75967 0.14188 0.2319 0.0
C1774 C 0.75434 0.13251 0.25441 0.0
C1775 C 0.77216 0.12896 0.27127 0.0
H1776 H 0.32608 0.65201 0.28238 0.0
H1777 H 0.28037 0.6677 0.34165 0.0
H1778 H 0.29202 0.6413 0.25877 0.0
H1779 H 0.24613 0.65578 0.31822 0.0
H1780 H 0.19094 0.6675 0.26001 0.0
H1781 H 0.22379 0.67126 0.28704 0.0
H1782 H 0.26076 0.61532 0.25018 0.0
H1783 H 0.22801 0.61231 0.22214 0.0
C1784 C 0.30878 0.65278 0.29058 0.0
C1785 C 0.30602 0.66106 0.31391 0.0
C1786 C 0.28915 0.64637 0.277 0.0
C1787 C 0.26615 0.64778 0.28641 0.0
C1788 C 0.26349 0.65494 0.31015 0.0
C1789 C 0.28316 0.66163 0.32369 0.0
C1790 C 0.20595 0.65581 0.25763 0.0
C1791 C 0.20683 0.63974 0.23862 0.0
C1792 C 0.22482 0.65783 0.27342 0.0
C1793 C 0.24511 0.64366 0.27091 0.0
C1794 C 0.24563 0.62686 0.25247 0.0
C1795 C 0.22676 0.62499 0.23645 0.0
H1796 H 0.31209 0.33805 0.7591 0.0
H1797 H 0.27417 0.39245 0.72088 0.0
H1798 H 0.27952 0.33427 0.78641 0.0
H1799 H 0.24163 0.38937 0.7492 0.0
H1800 H 0.17711 0.35226 0.78319 0.0
H1801 H 0.21061 0.36315 0.75878 0.0
H1802 H 0.25774 0.35034 0.81766 0.0
H1803 H 0.22415 0.33825 0.84185 0.0
C1804 C 0.29694 0.34956 0.75669 0.0
C1805 C 0.29578 0.36545 0.73753 0.0
C1806 C 0.27823 0.34753 0.77264 0.0
C1807 C 0.25779 0.36149 0.77017 0.0
C1808 C 0.25691 0.37803 0.7515 0.0
C1809 C 0.27565 0.37994 0.73532 0.0
C1810 C 0.19457 0.35192 0.79109 0.0
C1811 C 0.19789 0.34403 0.81448 0.0
C1812 C 0.21387 0.35842 0.77705 0.0
C1813 C 0.23705 0.35746 0.78606 0.0
C1814 C 0.24024 0.35079 0.80988 0.0
C1815 C 0.22093 0.344 0.82386 0.0
H1816 H 0.75135 0.69565 0.82934 0.0
H1817 H 0.77445 0.72664 0.89532 0.0
H1818 H 0.72309 0.72728 0.82412 0.0
H1819 H 0.7451 0.75805 0.89059 0.0
H1820 H 0.71478 0.82578 0.85677 0.0
H1821 H 0.7389 0.79211 0.8676 0.0
H1822 H 0.6876 0.7451 0.83578 0.0
H1823 H 0.66389 0.77912 0.82381 0.0
C1824 C 0.75018 0.70903 0.843 0.0
C1825 C 0.76542 0.70862 0.8627 0.0
C1826 C 0.73368 0.72716 0.84008 0.0
C1827 C 0.73165 0.74536 0.8569 0.0
C1828 C 0.74636 0.74457 0.87705 0.0
C1829 C 0.76313 0.72647 0.87986 0.0
C1830 C 0.70845 0.80829 0.85218 0.0
C1831 C 0.68746 0.80527 0.83908 0.0
C1832 C 0.72228 0.78885 0.85864 0.0
C1833 C 0.71542 0.76576 0.85245 0.0
C1834 C 0.69377 0.76264 0.84042 0.0
C1835 C 0.68004 0.78216 0.83368 0.0
H1836 H 0.19927 0.68475 0.13389 0.0
H1837 H 0.17276 0.72591 0.19251 0.0
H1838 H 0.22345 0.71786 0.12131 0.0
H1839 H 0.19821 0.75859 0.181 0.0
H1840 H 0.23667 0.81982 0.15048 0.0
H1841 H 0.20736 0.78901 0.15561 0.0
H1842 H 0.25805 0.7371 0.13111 0.0
H1843 H 0.28679 0.76841 0.12434 0.0
C1844 C 0.1985 0.70093 0.14407 0.0
C1845 C 0.18405 0.70261 0.16425 0.0
C1846 C 0.21266 0.71992 0.137 0.0
C1847 C 0.21322 0.74098 0.15023 0.0
C1848 C 0.19813 0.74289 0.17003 0.0
C1849 C 0.18354 0.72404 0.17679 0.0
C1850 C 0.24144 0.80192 0.14571 0.0
C1851 C 0.26416 0.79664 0.13702 0.0
C1852 C 0.22464 0.78409 0.14897 0.0
C1853 C 0.23025 0.76033 0.1442 0.0
C1854 C 0.25279 0.75515 0.13474 0.0
C1855 C 0.26943 0.77313 0.13095 0.0
H1856 H 0.30171 0.32145 0.63371 0.0
H1857 H 0.33162 0.27968 0.69027 0.0
H1858 H 0.27767 0.28799 0.62155 0.0
H1859 H 0.30646 0.2467 0.67923 0.0
H1860 H 0.26826 0.18499 0.64942 0.0
H1861 H 0.297 0.2165 0.65378 0.0
H1862 H 0.24404 0.26745 0.63221 0.0
H1863 H 0.21582 0.23551 0.62626 0.0
C1864 C 0.30326 0.30507 0.64352 0.0
C1865 C 0.31864 0.30333 0.66302 0.0
C1866 C 0.28919 0.28588 0.6367 0.0
C1867 C 0.28972 0.26451 0.64948 0.0
C1868 C 0.30568 0.2626 0.66858 0.0
C1869 C 0.32012 0.28165 0.67508 0.0
C1870 C 0.26285 0.20285 0.64517 0.0
C1871 C 0.23964 0.20766 0.63756 0.0
C1872 C 0.27933 0.22107 0.64796 0.0
C1873 C 0.27294 0.24478 0.6438 0.0
C1874 C 0.2499 0.24949 0.63536 0.0
C1875 C 0.23356 0.23113 0.63205 0.0
H1876 H 0.72545 0.2771 0.39548 0.0
H1877 H 0.75371 0.30884 0.33188 0.0
H1878 H 0.75406 0.24487 0.39185 0.0
H1879 H 0.78128 0.27646 0.32774 0.0
H1880 H 0.78434 0.17698 0.35791 0.0
H1881 H 0.76056 0.21113 0.36814 0.0
H1882 H 0.81542 0.25732 0.34147 0.0
H1883 H 0.83884 0.22293 0.33012 0.0
C1884 C 0.73777 0.27729 0.3808 0.0
C1885 C 0.73711 0.29557 0.36395 0.0
C1886 C 0.7541 0.25872 0.37861 0.0
C1887 C 0.77004 0.25792 0.35943 0.0
C1888 C 0.76969 0.27656 0.34298 0.0
C1889 C 0.75359 0.29513 0.34527 0.0
C1890 C 0.7915 0.19439 0.35435 0.0
C1891 C 0.81345 0.19711 0.34285 0.0
C1892 C 0.77787 0.21409 0.36046 0.0
C1893 C 0.78587 0.23711 0.3555 0.0
C1894 C 0.80839 0.23987 0.3451 0.0
C1895 C 0.82194 0.22012 0.33873 0.0
H1896 H 0.22382 0.14663 0.54518 0.0
H1897 H 0.1515 0.17022 0.55368 0.0
H1898 H 0.21885 0.14792 0.50202 0.0
H1899 H 0.14679 0.17157 0.51106 0.0
H1900 H 0.16046 0.20539 0.43869 0.0
H1901 H 0.1658 0.19905 0.48085 0.0
H1902 H 0.19339 0.12913 0.46726 0.0
H1903 H 0.18788 0.13538 0.42456 0.0
C1904 C 0.20687 0.15186 0.53792 0.0
C1905 C 0.18819 0.15861 0.55294 0.0
C1906 C 0.20401 0.15249 0.51325 0.0
C1907 C 0.18251 0.1601 0.50324 0.0
C1908 C 0.16366 0.16596 0.51828 0.0
C1909 C 0.1664 0.16514 0.54276 0.0
C1910 C 0.16764 0.1886 0.44457 0.0
C1911 C 0.17368 0.17085 0.42823 0.0
C1912 C 0.17061 0.18496 0.46877 0.0
C1913 C 0.17992 0.16357 0.47733 0.0
C1914 C 0.18625 0.14582 0.46109 0.0
C1915 C 0.18295 0.14935 0.43672 0.0
H1916 H 0.35443 0.83424 0.05245 0.0
H1917 H 0.2816 0.8559 0.04311 0.0
H1918 H 0.35997 0.83415 0.00991 0.0
H1919 H 0.28734 0.85573 1.00006 0.0
H1920 H 0.31744 0.87009 0.92325 0.0
H1921 H 0.31158 0.8755 0.966 0.0
H1922 H 0.34335 0.8072 0.97881 0.0
H1923 H 0.34913 0.80175 0.93664 0.0
C1924 C 0.33957 0.83912 0.04136 0.0
C1925 C 0.31743 0.84475 0.05126 0.0
C1926 C 0.34279 0.83903 0.01692 0.0
C1927 C 0.32403 0.84466 0.00166 0.0
C1928 C 0.30213 0.85137 0.01144 0.0
C1929 C 0.29883 0.85134 0.03606 0.0
C1930 C 0.32324 0.85633 0.93526 0.0
C1931 C 0.33379 0.83552 0.92653 0.0
C1932 C 0.31975 0.85936 0.95966 0.0
C1933 C 0.32712 0.84182 0.97572 0.0
C1934 C 0.33775 0.82116 0.96692 0.0
C1935 C 0.34096 0.81801 0.94269 0.0
H1936 H 0.65396 0.35517 0.45154 0.0
H1937 H 0.72867 0.34066 0.4591 0.0
H1938 H 0.64963 0.35556 0.49449 0.0
H1939 H 0.72421 0.34081 0.50219 0.0
H1940 H 0.69379 0.3049 0.57101 0.0
H1941 H 0.70207 0.31192 0.52931 0.0
H1942 H 0.66282 0.37741 0.53238 0.0
H1943 H 0.6547 0.37052 0.57449 0.0
C1944 C 0.66953 0.35238 0.46238 0.0
C1945 C 0.69165 0.34773 0.45191 0.0
C1946 C 0.66705 0.35275 0.48699 0.0
C1947 C 0.68655 0.34811 0.50169 0.0
C1948 C 0.70885 0.3443 0.49126 0.0
C1949 C 0.71142 0.34432 0.46661 0.0
C1950 C 0.68708 0.32092 0.56289 0.0
C1951 C 0.67349 0.33711 0.57603 0.0
C1952 C 0.692 0.32502 0.53904 0.0
C1953 C 0.68314 0.34523 0.5276 0.0
C1954 C 0.66983 0.36165 0.54077 0.0
C1955 C 0.66525 0.35775 0.56484 0.0
H1956 H 0.80822 0.70021 0.07222 0.0
H1957 H 0.84723 0.63451 0.07531 0.0
H1958 H 0.79986 0.69341 0.03047 0.0
H1959 H 0.83906 0.62788 0.03317 0.0
H1960 H 0.84867 0.65146 0.95271 0.0
H1961 H 0.85265 0.65061 0.99569 0.0
H1962 H 0.77785 0.6644 0.00293 0.0
H1963 H 0.77372 0.66496 0.95979 0.0
C1964 C 0.81485 0.6842 0.064 0.0
C1965 C 0.82847 0.66793 0.07702 0.0
C1966 C 0.8099 0.68024 0.04013 0.0
C1967 C 0.81877 0.66011 0.02858 0.0
C1968 C 0.83204 0.64357 0.04166 0.0
C1969 C 0.83663 0.64732 0.06574 0.0
C1970 C 0.83298 0.65395 0.96345 0.0
C1971 C 0.81089 0.65844 0.95286 0.0
C1972 C 0.83526 0.65331 0.98806 0.0
C1973 C 0.81558 0.65751 0.00264 0.0
C1974 C 0.79333 0.66121 0.99208 0.0
C1975 C 0.79096 0.66144 0.96742 0.0
H1976 H 0.43792 0.15706 0.20326 0.0
H1977 H 0.42487 0.18852 0.13479 0.0
H1978 H 0.4802 0.16216 0.1977 0.0
H1979 H 0.46775 0.19372 0.1293 0.0
H1980 H 0.54582 0.22204 0.14874 0.0
H1981 H 0.50258 0.21745 0.14922 0.0
H1982 H 0.51067 0.14447 0.17024 0.0
H1983 H 0.55338 0.14885 0.16977 0.0
C1984 C 0.44406 0.16507 0.18697 0.0
C1985 C 0.42797 0.17233 0.16943 0.0
C1986 C 0.46835 0.16789 0.18376 0.0
C1987 C 0.47728 0.17822 0.16302 0.0
C1988 C 0.4613 0.18576 0.14549 0.0
C1989 C 0.43682 0.18266 0.14858 0.0
C1990 C 0.53833 0.20498 0.15324 0.0
C1991 C 0.55311 0.18593 0.15953 0.0
C1992 C 0.51361 0.20234 0.15339 0.0
C1993 C 0.50329 0.18068 0.16002 0.0
C1994 C 0.51811 0.16147 0.1654 0.0
C1995 C 0.54264 0.16403 0.16509 0.0
H1996 H 0.95214 0.85191 0.65299 0.0
H1997 H 0.95972 0.77708 0.6668 0.0
H1998 H 0.99514 0.85619 0.65244 0.0
H1999 H 0.00286 0.78151 0.66652 0.0
H2000 H 0.07239 0.81166 0.70156 0.0
H2001 H 0.03048 0.80359 0.69524 0.0
H2002 H 0.03265 0.84278 0.62975 0.0
H2003 H 0.07495 0.85068 0.6359 0.0
C2004 C 0.96299 0.83632 0.65566 0.0
C2005 C 0.95252 0.81416 0.6601 0.0
C2006 C 0.98762 0.83877 0.65519 0.0
C2007 C 0.00234 0.81921 0.65951 0.0
C2008 C 0.99191 0.79691 0.66326 0.0
C2009 C 0.96724 0.79437 0.66332 0.0
C2010 C 0.06402 0.8184 0.68568 0.0
C2011 C 0.07695 0.83191 0.66927 0.0
C2012 C 0.04005 0.81361 0.682 0.0
C2013 C 0.02831 0.82252 0.66199 0.0
C2014 C 0.04128 0.83574 0.64535 0.0
C2015 C 0.06546 0.84019 0.64883 0.0
H2016 H 0.04402 0.274 0.83915 0.0
H2017 H 0.05241 0.34834 0.85487 0.0
H2018 H 1.00095 0.27902 0.83902 0.0
H2019 H 0.00946 0.35321 0.85501 0.0
H2020 H 0.92913 0.34839 0.86988 0.0
H2021 H 0.97124 0.33988 0.87661 0.0
H2022 H 0.97419 0.30217 0.8103 0.0
H2023 H 0.9325 0.31087 0.80341 0.0
C2024 C 0.03669 0.29129 0.84302 0.0
C2025 C 0.05164 0.31079 0.84687 0.0
C2026 C 0.01205 0.29418 0.84284 0.0
C2027 C 1.00186 0.31653 0.84693 0.0
C2028 C 0.01678 0.33576 0.85197 0.0
C2029 C 0.04139 0.33296 0.85176 0.0
C2030 C 0.93876 0.33811 0.85688 0.0
C2031 C 0.92753 0.33042 0.83607 0.0
C2032 C 0.96283 0.33331 0.8607 0.0
C2033 C 0.97596 0.32029 0.84401 0.0
C2034 C 0.9645 0.31201 0.82359 0.0
C2035 C 0.94064 0.31717 0.81958 0.0
H2036 H 0.45239 0.65439 0.35046 0.0
H2037 H 0.46039 0.72941 0.33811 0.0
H2038 H 0.49539 0.64984 0.35096 0.0
H2039 H 0.50352 0.72471 0.33828 0.0
H2040 H 0.57255 0.69394 0.30199 0.0
H2041 H 0.53079 0.70257 0.3088 0.0
H2042 H 0.53314 0.66293 0.37401 0.0
H2043 H 0.57528 0.65453 0.36739 0.0
C2044 C 0.46334 0.66996 0.34813 0.0
C2045 C 0.45299 0.69225 0.34411 0.0
C2046 C 0.48796 0.66735 0.34856 0.0
C2047 C 0.50278 0.6869 0.3446 0.0
C2048 C 0.49248 0.70933 0.34129 0.0
C2049 C 0.46782 0.71202 0.34129 0.0
C2050 C 0.56425 0.68727 0.31793 0.0
C2051 C 0.57717 0.67348 0.33412 0.0
C2052 C 0.54038 0.69236 0.32189 0.0
C2053 C 0.52873 0.68345 0.34194 0.0
C2054 C 0.5417 0.66999 0.35839 0.0
C2055 C 0.56579 0.66526 0.35465 0.0
H2056 H 0.1375 0.42497 0.19049 0.0
H2057 H 0.20361 0.44159 0.15577 0.0
H2058 H 0.13045 0.46744 0.19694 0.0
H2059 H 0.19645 0.48352 0.16204 0.0
H2060 H 0.1639 0.55528 0.15129 0.0
H2061 H 0.16571 0.51271 0.14622 0.0
H2062 H 0.15109 0.50284 0.22047 0.0
H2063 H 0.14939 0.54598 0.22581 0.0
C2064 C 0.15043 0.43763 0.18417 0.0
C2065 C 0.17107 0.42991 0.17257 0.0
C2066 C 0.14646 0.46186 0.188 0.0
C2067 C 0.16285 0.47873 0.17989 0.0
C2068 C 0.18339 0.47094 0.16827 0.0
C2069 C 0.18751 0.44687 0.16476 0.0
C2070 C 0.16091 0.54419 0.16662 0.0
C2071 C 0.15687 0.55415 0.18908 0.0
C2072 C 0.16196 0.51974 0.16366 0.0
C2073 C 0.15882 0.5045 0.18298 0.0
C2074 C 0.15354 0.51424 0.20526 0.0
C2075 C 0.15266 0.5389 0.20832 0.0
H2076 H 0.64941 0.95195 0.84876 0.0
H2077 H 0.66402 0.95965 0.77416 0.0
H2078 H 0.64884 0.99493 0.85313 0.0
H2079 H 0.66371 0.00277 0.77867 0.0
H2080 H 0.69946 0.0716 0.80962 0.0
H2081 H 0.69253 0.02992 0.80107 0.0
H2082 H 0.62673 0.03277 0.83978 0.0
H2083 H 0.63352 0.07488 0.84816 0.0
C2084 C 0.65221 0.96283 0.83323 0.0
C2085 C 0.65693 0.9524 0.81113 0.0
C2086 C 0.65173 0.98744 0.83573 0.0
C2087 C 0.65631 0.00218 0.81627 0.0
C2088 C 0.66024 0.9918 0.79399 0.0
C2089 C 0.66032 0.96714 0.7914 0.0
C2090 C 0.68338 0.06344 0.81614 0.0
C2091 C 0.66708 0.0765 0.82968 0.0
C2092 C 0.67934 0.0396 0.81107 0.0
C2093 C 0.65908 0.02811 0.81972 0.0
C2094 C 0.64252 0.04121 0.83293 0.0
C2095 C 0.64637 0.06528 0.83766 0.0
H2096 H 0.84038 0.04309 0.27746 0.0
H2097 H 0.8499 0.05028 0.35293 0.0
H2098 H 0.84147 0.99993 0.28158 0.0
H2099 H 0.85127 0.00729 0.35692 0.0
H2100 H 0.8692 0.92789 0.35222 0.0
H2101 H 0.87539 0.97023 0.34452 0.0
H2102 H 0.81196 0.97175 0.30198 0.0
H2103 H 0.80559 0.92984 0.30985 0.0
C2104 C 0.84311 0.03549 0.29484 0.0
C2105 C 0.84485 0.05008 0.31489 0.0
C2106 C 0.84365 0.01081 0.2972 0.0
C2107 C 0.84642 1.00027 0.31958 0.0
C2108 C 0.84932 0.0149 0.33944 0.0
C2109 C 0.84836 0.03952 0.33715 0.0
C2110 C 0.85677 0.93725 0.34101 0.0
C2111 C 0.83684 0.9256 0.33177 0.0
C2112 C 0.86026 0.96145 0.33668 0.0
C2113 C 0.84418 0.97425 0.32261 0.0
C2114 C 0.82478 0.96232 0.31267 0.0
C2115 C 0.82105 0.93834 0.31735 0.0
H2116 H 0.35355 0.45107 0.65362 0.0
H2117 H 0.33712 0.45863 0.72785 0.0
H2118 H 0.35326 0.49405 0.64913 0.0
H2119 H 0.33657 0.50174 0.72321 0.0
H2120 H 0.30131 0.57059 0.69206 0.0
H2121 H 0.3081 0.52879 0.70029 0.0
H2122 H 0.37463 0.53206 0.66291 0.0
H2123 H 0.36799 0.57423 0.65484 0.0
C2124 C 0.35014 0.46192 0.66905 0.0
C2125 C 0.34522 0.45143 0.69108 0.0
C2126 C 0.35012 0.48654 0.66648 0.0
C2127 C 0.34481 0.50124 0.68579 0.0
C2128 C 0.34058 0.49081 0.70799 0.0
C2129 C 0.341 0.46615 0.71066 0.0
C2130 C 0.3175 0.56249 0.68573 0.0
C2131 C 0.33408 0.57571 0.6727 0.0
C2132 C 0.32145 0.53857 0.69062 0.0
C2133 C 0.3419 0.52717 0.68229 0.0
C2134 C 0.35867 0.54041 0.6695 0.0
C2135 C 0.35492 0.56453 0.66496 0.0
H2136 H 0.85097 0.83701 0.45153 0.0
H2137 H 0.77725 0.85528 0.46102 0.0
H2138 H 0.85644 0.83638 0.49407 0.0
H2139 H 0.78297 0.85472 0.50411 0.0
H2140 H 0.81371 0.86906 0.5813 0.0
H2141 H 0.8072 0.87506 0.5387 0.0
H2142 H 0.8401 0.80762 0.52441 0.0
H2143 H 0.84645 0.80154 0.56644 0.0
C2144 C 0.83591 0.84108 0.46265 0.0
C2145 C 0.81354 0.84584 0.45277 0.0
C2146 C 0.8391 0.84069 0.48709 0.0
C2147 C 0.82008 0.8452 0.5024 0.0
C2148 C 0.79795 0.8512 0.49268 0.0
C2149 C 0.79467 0.85143 0.46804 0.0
C2150 C 0.81958 0.85559 0.56901 0.0
C2151 C 0.83064 0.83486 0.57728 0.0
C2152 C 0.81572 0.85897 0.54469 0.0
C2153 C 0.82326 0.84186 0.52827 0.0
C2154 C 0.83434 0.82123 0.53662 0.0
C2155 C 0.83788 0.81772 0.56076 0.0
H2156 H 0.72526 0.14577 0.95966 0.0
H2157 H 0.65207 0.16642 0.95086 0.0
H2158 H 0.72007 0.14674 0.00278 0.0
H2159 H 0.64712 0.16743 0.99347 0.0
H2160 H 0.65878 0.20176 0.06582 0.0
H2161 H 0.6644 0.19551 0.02371 0.0
H2162 H 0.69592 0.12733 0.03765 0.0
H2163 H 0.69015 0.1335 0.08032 0.0
C2164 C 0.70805 0.15025 0.96684 0.0
C2165 C 0.6892 0.15633 0.95174 0.0
C2166 C 0.70508 0.15071 0.99151 0.0
C2167 C 0.68327 0.15745 1.00145 0.0
C2168 C 0.66424 0.16253 0.98632 0.0
C2169 C 0.66712 0.16191 0.96184 0.0
C2170 C 0.6669 0.18538 0.06004 0.0
C2171 C 0.67397 0.16809 0.07649 0.0
C2172 C 0.67002 0.18177 0.03585 0.0
C2173 C 0.68049 0.16088 0.02737 0.0
C2174 C 0.68786 0.14363 0.04373 0.0
C2175 C 0.68444 0.14711 0.06809 0.0
H2176 H 0.34977 0.69585 0.43718 0.0
H2177 H 0.30717 0.634 0.4226 0.0
H2178 H 0.34403 0.68996 0.47931 0.0
H2179 H 0.30146 0.62809 0.46525 0.0
H2180 H 0.27554 0.64919 0.54297 0.0
H2181 H 0.28118 0.6494 0.49993 0.0
H2182 H 0.35607 0.66085 0.50988 0.0
H2183 H 0.35059 0.66076 0.55244 0.0
C2184 C 0.33927 0.68088 0.44295 0.0
C2185 C 0.32897 0.66536 0.42646 0.0
C2186 C 0.33607 0.67745 0.46716 0.0
C2187 C 0.32238 0.6585 0.47562 0.0
C2188 C 0.31202 0.64291 0.45922 0.0
C2189 C 0.31543 0.64621 0.43485 0.0
C2190 C 0.29323 0.65146 0.53594 0.0
C2191 C 0.31253 0.65531 0.55118 0.0
C2192 C 0.29646 0.65149 0.51131 0.0
C2193 C 0.31903 0.65547 0.50154 0.0
C2194 C 0.33841 0.65819 0.51685 0.0
C2195 C 0.33522 0.65808 0.5413 0.0
H2196 H 0.23062 0.34574 0.04263 0.0
H2197 H 0.15513 0.35407 0.05163 0.0
H2198 H 0.22542 0.34644 0.99963 0.0
H2199 H 0.15005 0.35502 0.00877 0.0
H2200 H 0.15253 0.37204 0.92907 0.0
H2201 H 0.16098 0.3788 0.97116 0.0
H2202 H 0.20504 0.31639 0.97232 0.0
H2203 H 0.19645 0.30946 0.93068 0.0
C2204 C 0.213 0.34812 0.03546 0.0
C2205 C 0.19327 0.34964 0.05053 0.0
C2206 C 0.21002 0.34844 0.01087 0.0
C2207 C 0.18732 0.35072 1.00087 0.0
C2208 C 0.16776 0.35343 0.01595 0.0
C2209 C 0.17068 0.35272 0.0405 0.0
C2210 C 0.16422 0.35996 0.9383 0.0
C2211 C 0.17371 0.34015 0.92663 0.0
C2212 C 0.16898 0.36378 0.96235 0.0
C2213 C 0.18372 0.34814 0.97497 0.0
C2214 C 0.19384 0.32887 0.96302 0.0
C2215 C 0.18875 0.32482 0.9392 0.0
H2216 H 0.57657 0.848 0.86766 0.0
H2217 H 0.57371 0.80844 0.80236 0.0
H2218 H 0.53443 0.8397 0.87434 0.0
H2219 H 0.53196 0.79992 0.80922 0.0
H2220 H 0.46124 0.77385 0.83804 0.0
H2221 H 0.50441 0.77811 0.83852 0.0
H2222 H 0.49692 0.85304 0.85125 0.0
H2223 H 0.4539 0.84893 0.85046 0.0
C2224 C 0.56706 0.83723 0.85497 0.0
C2225 C 0.57839 0.82897 0.83444 0.0
C2226 C 0.54297 0.83257 0.85874 0.0
C2227 C 0.52996 0.81913 0.84231 0.0
C2228 C 0.54158 0.81011 0.8223 0.0
C2229 C 0.56545 0.81514 0.8183 0.0
C2230 C 0.46882 0.79115 0.84129 0.0
C2231 C 0.45418 0.81108 0.84403 0.0
C2232 C 0.4935 0.79359 0.84148 0.0
C2233 C 0.50399 0.81591 0.84488 0.0
C2234 C 0.48934 0.83561 0.84878 0.0
C2235 C 0.46471 0.83325 0.84817 0.0
H2236 H 0.92233 0.20199 0.31774 0.0
H2237 H 0.9368 0.13947 0.35909 0.0
H2238 H 0.96393 0.21284 0.31925 0.0
H2239 H 0.97891 0.14945 0.35948 0.0
H2240 H 0.05387 0.17807 0.36429 0.0
H2241 H 0.01132 0.17346 0.37089 0.0
H2242 H 0.99788 0.19993 0.30037 0.0
H2243 H 0.03982 0.20549 0.29435 0.0
C2244 C 0.93448 0.19063 0.3273 0.0
C2245 C 0.9264 0.16982 0.33815 0.0
C2246 C 0.95841 0.19671 0.32799 0.0
C2247 C 0.97505 0.18177 0.339 0.0
C2248 C 0.96671 0.16151 0.35095 0.0
C2249 C 0.94256 0.1557 0.35069 0.0
C2250 C 0.04173 0.18325 0.35039 0.0
C2251 C 0.05029 0.1922 0.32881 0.0
C2252 C 0.01732 0.18043 0.35409 0.0
C2253 C 1.00097 0.18633 0.33621 0.0
C2254 C 0.00969 0.19567 0.31484 0.0
C2255 C 0.03393 0.19872 0.31128 0.0
H2256 H 0.07441 0.65897 0.13558 0.0
H2257 H 0.06967 0.69468 0.20295 0.0
H2258 H 0.03218 0.66665 0.12872 0.0
H2259 H 0.02781 0.70258 0.19593 0.0
H2260 H 0.9574 0.72958 0.16677 0.0
H2261 H 1.00059 0.72571 0.16741 0.0
H2262 H 0.9943 0.65164 0.14991 0.0
H2263 H 0.95123 0.65534 0.14957 0.0
C2264 C 0.06445 0.66872 0.14874 0.0
C2265 C 0.07533 0.67613 0.16984 0.0
C2266 C 0.04031 0.67303 0.14486 0.0
C2267 C 0.02675 0.68527 0.16177 0.0
C2268 C 0.03785 0.69334 0.18248 0.0
C2269 C 0.0618 0.68865 0.18656 0.0
C2270 C 0.96525 0.71256 0.16271 0.0
C2271 C 0.95089 0.69274 0.15827 0.0
C2272 C 0.98995 0.71033 0.16318 0.0
C2273 C 1.00079 0.68836 0.15876 0.0
C2274 C 0.98646 0.66882 0.15321 0.0
C2275 C 0.96179 0.67094 0.15315 0.0
H2276 H 0.42896 0.34688 0.63503 0.0
H2277 H 0.43291 0.31056 0.70214 0.0
H2278 H 0.4711 0.33866 0.62829 0.0
H2279 H 0.47469 0.30213 0.69524 0.0
H2280 H 0.54463 0.27402 0.66599 0.0
H2281 H 0.50152 0.27873 0.66663 0.0
H2282 H 0.50928 0.35278 0.64959 0.0
H2283 H 0.55228 0.34822 0.64925 0.0
C2284 C 0.43872 0.3369 0.64817 0.0
C2285 C 0.42764 0.32946 0.66915 0.0
C2286 C 0.46282 0.33228 0.64435 0.0
C2287 C 0.47614 0.31969 0.66122 0.0
C2288 C 0.46484 0.31164 0.68182 0.0
C2289 C 0.44094 0.31663 0.68583 0.0
C2290 C 0.53713 0.29121 0.66203 0.0
C2291 C 0.55188 0.31077 0.65771 0.0
C2292 C 0.51247 0.29392 0.66251 0.0
C2293 C 0.50206 0.31614 0.65823 0.0
C2294 C 0.51677 0.33542 0.65279 0.0
C2295 C 0.5414 0.33281 0.65272 0.0
H2296 H 0.80386 0.5668 0.84707 0.0
H2297 H 0.87184 0.58034 0.81471 0.0
H2298 H 0.80943 0.52459 0.84136 0.0
H2299 H 0.87735 0.53758 0.8089 0.0
H2300 H 0.85787 0.46016 0.77941 0.0
H2301 H 0.85748 0.50327 0.78497 0.0
H2302 H 0.83682 0.49359 0.8578 0.0
H2303 H 0.83721 0.45099 0.85246 0.0
C2304 C 0.82006 0.56078 0.83876 0.0
C2305 C 0.83744 0.577 0.83141 0.0
C2306 C 0.82328 0.53653 0.83558 0.0
C2307 C 0.84388 0.52775 0.82478 0.0
C2308 C 0.86127 0.54388 0.8172 0.0
C2309 C 0.85817 0.5683 0.82068 0.0
C2310 C 0.8535 0.46726 0.79666 0.0
C2311 C 0.84725 0.45207 0.81537 0.0
C2312 C 0.85338 0.49192 0.79985 0.0
C2313 C 0.84684 0.50178 0.82175 0.0
C2314 C 0.84156 0.48653 0.84063 0.0
C2315 C 0.84183 0.46205 0.83752 0.0
H2316 H 0.36909 0.9232 0.19028 0.0
H2317 H 0.30311 0.93836 0.15461 0.0
H2318 H 0.37552 0.9659 0.19596 0.0
H2319 H 0.30956 0.98039 0.16022 0.0
H2320 H 0.33838 0.05315 0.1503 0.0
H2321 H 0.33833 0.01055 0.14491 0.0
H2322 H 0.35519 1.00081 0.21872 0.0
H2323 H 0.35533 0.0439 0.2243 0.0
C2324 C 0.35607 0.93557 0.18357 0.0
C2325 C 0.33561 0.92737 0.17199 0.0
C2326 C 0.35969 0.95994 0.18694 0.0
C2327 C 0.34311 0.97645 0.1784 0.0
C2328 C 0.32281 0.96815 0.16673 0.0
C2329 C 0.31907 0.94399 0.16364 0.0
C2330 C 0.34227 0.04206 0.16544 0.0
C2331 C 0.34648 0.052 0.18786 0.0
C2332 C 0.34223 0.0176 0.1623 0.0
C2333 C 0.34646 0.00235 0.18145 0.0
C2334 C 0.35193 0.01217 0.20364 0.0
C2335 C 0.35189 0.03682 0.20684 0.0
H2336 H 0.15054 0.95272 0.65585 0.0
H2337 H 0.1656 0.96031 0.73037 0.0
H2338 H 0.15032 0.99572 0.65146 0.0
H2339 H 0.16568 0.00343 0.72583 0.0
H2340 H 0.20142 0.0723 0.69468 0.0
H2341 H 0.19453 0.03056 0.70313 0.0
H2342 H 0.1283 0.03367 0.66518 0.0
H2343 H 0.13502 0.07582 0.65694 0.0
C2344 C 0.15352 0.96357 0.67136 0.0
C2345 C 0.15823 0.95309 0.69344 0.0
C2346 C 0.15325 0.9882 0.66885 0.0
C2347 C 0.15806 0.00292 0.68828 0.0
C2348 C 0.16203 0.99249 0.71053 0.0
C2349 C 0.16189 0.96783 0.71313 0.0
C2350 C 0.18525 0.06418 0.68833 0.0
C2351 C 0.16879 0.07734 0.67506 0.0
C2352 C 0.18124 0.0403 0.69333 0.0
C2353 C 0.16087 0.02886 0.68485 0.0
C2354 C 0.14418 0.04206 0.6719 0.0
C2355 C 0.14798 0.06616 0.66727 0.0
H2356 H 0.63262 0.42865 0.34844 0.0
H2357 H 0.69802 0.43071 0.30889 0.0
H2358 H 0.62651 0.47088 0.34023 0.0
H2359 H 0.69177 0.47256 0.30056 0.0
H2360 H 0.66395 0.5435 0.27419 0.0
H2361 H 0.66341 0.50038 0.27868 0.0
H2362 H 0.64909 0.50827 0.35324 0.0
H2363 H 0.64986 0.55123 0.34888 0.0
C2364 C 0.6455 0.43801 0.33776 0.0
C2365 C 0.66586 0.42639 0.32943 0.0
C2366 C 0.64205 0.46216 0.33314 0.0
C2367 C 0.65865 0.47499 0.31971 0.0
C2368 C 0.67855 0.46312 0.31074 0.0
C2369 C 0.6822 0.43917 0.31568 0.0
C2370 C 0.66035 0.53602 0.29145 0.0
C2371 C 0.65714 0.55078 0.3112 0.0
C2372 C 0.66014 0.51136 0.29404 0.0
C2373 C 0.65627 0.50097 0.31633 0.0
C2374 C 0.65193 0.51574 0.33582 0.0
C2375 C 0.65253 0.54035 0.33333 0.0
loop_
_geom_bond_atom_site_label_1
_geom_bond_atom_site_label_2
_geom_bond_distance
_geom_bond_site_symmetry_2
_ccdc_geom_bond_type
Co0 O2 2.143 . S
Co0 O8 2.074 . S
Co0 O11 2.093 . S
Co0 O24 2.097 . S
Co0 N41 2.151 . S
Co0 N49 2.214 . S
Co1 O2 2.160 . S
Co1 O7 2.058 . S
Co1 O17 2.057 . S
Co1 O32 2.037 . S
Co1 N36 2.145 . S
Co1 N57 2.257 . S
O2 Co0 2.143 . S
O2 Co1 2.160 . S
C3 O4 1.278 . S
C3 O11 1.224 . S
O4 C3 1.278 . S
C5 O6 1.245 . S
C5 O17 1.232 . S
O6 C5 1.245 . S
O7 Co1 2.058 . S
O7 C33 1.269 . S
O8 Co0 2.074 . S
O8 C33 1.257 . S
H9 C34 0.930 . S
H10 C40 0.930 . S
O11 Co0 2.093 . S
O11 C3 1.224 . S
H12 C44 0.929 . S
H13 C46 0.930 . S
H14 C47 0.930 . S
H15 C45 0.929 . S
H16 C48 0.928 . S
O17 Co1 2.057 . S
O17 C5 1.232 . S
H18 C37 0.929 . S
H19 C38 0.929 . S
H20 C50 0.931 . S
H21 C42 0.929 . S
H22 C51 0.930 . S
H23 C43 0.931 . S
O24 Co0 2.097 . S
O24 C52 1.214 . S
H25 C53 0.929 . S
H26 C54 0.929 . S
H27 C55 0.930 . S
H28 C56 0.929 . S
H29 C58 0.930 . S
H30 C35 0.930 . S
H31 C39 0.930 . S
O32 Co1 2.037 . S
O32 C52 1.234 . S
C33 O7 1.269 . S
C33 O8 1.257 . S
C34 H9 0.930 . S
C34 C37 1.388 . S
C34 C39 1.418 . S
C35 H30 0.930 . S
C35 C38 1.404 . S
C35 C39 1.353 . S
N36 Co1 2.145 . S
N36 C37 1.397 . S
N36 C38 1.334 . S
C37 H18 0.929 . S
C37 C34 1.388 . S
C37 N36 1.397 . S
C38 H19 0.929 . S
C38 C35 1.404 . S
C38 N36 1.334 . S
C39 H31 0.930 . S
C39 C34 1.418 . S
C39 C35 1.353 . S
C40 H10 0.930 . S
C40 N41 1.330 . S
C40 C42 1.446 . S
N41 Co0 2.151 . S
N41 C40 1.330 . S
N41 C45 1.418 . S
C42 H21 0.929 . S
C42 C40 1.446 . S
C42 C43 1.332 . S
C43 H23 0.931 . S
C43 C42 1.332 . S
C43 C44 1.267 . S
C44 H12 0.929 . S
C44 C43 1.267 . S
C44 C45 1.251 . S
C45 H15 0.929 . S
C45 N41 1.418 . S
C45 C44 1.251 . S
C46 H13 0.930 . S
C46 C48 1.406 . S
C46 C51 1.261 . S
C47 H14 0.930 . S
C47 N49 1.325 . S
C47 C50 1.357 . S
C48 H16 0.928 . S
C48 C46 1.406 . S
C48 N49 1.261 . S
N49 Co0 2.214 . S
N49 C47 1.325 . S
N49 C48 1.261 . S
C50 H20 0.931 . S
C50 C47 1.357 . S
C50 C51 1.312 . S
C51 H22 0.930 . S
C51 C46 1.261 . S
C51 C50 1.312 . S
C52 O24 1.214 . S
C52 O32 1.234 . S
C53 H25 0.929 . S
C53 C56 1.391 . S
C53 C58 1.391 . S
C54 H26 0.929 . S
C54 C55 1.390 . S
C54 N57 1.391 . S
C55 H27 0.930 . S
C55 C54 1.390 . S
C55 C56 1.392 . S
C56 H28 0.929 . S
C56 C53 1.391 . S
C56 C55 1.392 . S
N57 Co1 2.257 . S
N57 C54 1.391 . S
N57 C58 1.388 . S
C58 H29 0.930 . S
C58 C53 1.391 . S
C58 N57 1.388 . S
Co59 O61 2.143 . S
Co59 O67 2.074 . S
Co59 O70 2.093 . S
Co59 O83 2.097 . S
Co59 N100 2.151 . S
Co59 N108 2.214 . S
Co60 O61 2.160 . S
Co60 O66 2.058 . S
Co60 O76 2.057 . S
Co60 O91 2.037 . S
Co60 N95 2.145 . S
Co60 N116 2.257 . S
O61 Co59 2.143 . S
O61 Co60 2.160 . S
C62 O63 1.278 . S
C62 O70 1.224 . S
O63 C62 1.278 . S
C64 O65 1.245 . S
C64 O76 1.232 . S
O65 C64 1.245 . S
O66 Co60 2.058 . S
O66 C92 1.269 . S
O67 Co59 2.074 . S
O67 C92 1.257 . S
H68 C93 0.930 . S
H69 C99 0.930 . S
O70 Co59 2.093 . S
O70 C62 1.224 . S
H71 C103 0.929 . S
H72 C105 0.930 . S
H73 C106 0.930 . S
H74 C104 0.929 . S
H75 C107 0.928 . S
O76 Co60 2.057 . S
O76 C64 1.232 . S
H77 C96 0.929 . S
H78 C97 0.929 . S
H79 C109 0.931 . S
H80 C101 0.929 . S
H81 C110 0.930 . S
H82 C102 0.931 . S
O83 Co59 2.097 . S
O83 C111 1.214 . S
H84 C112 0.929 . S
H85 C113 0.929 . S
H86 C114 0.930 . S
H87 C115 0.929 . S
H88 C117 0.930 . S
H89 C94 0.930 . S
H90 C98 0.930 . S
O91 Co60 2.037 . S
O91 C111 1.234 . S
C92 O66 1.269 . S
C92 O67 1.257 . S
C93 H68 0.930 . S
C93 C96 1.388 . S
C93 C98 1.418 . S
C94 H89 0.930 . S
C94 C97 1.404 . S
C94 C98 1.353 . S
N95 Co60 2.145 . S
N95 C96 1.397 . S
N95 C97 1.334 . S
C96 H77 0.929 . S
C96 C93 1.388 . S
C96 N95 1.397 . S
C97 H78 0.929 . S
C97 C94 1.404 . S
C97 N95 1.334 . S
C98 H90 0.930 . S
C98 C93 1.418 . S
C98 C94 1.353 . S
C99 H69 0.930 . S
C99 N100 1.330 . S
C99 C101 1.446 . S
N100 Co59 2.151 . S
N100 C99 1.330 . S
N100 C104 1.418 . S
C101 H80 0.929 . S
C101 C99 1.446 . S
C101 C102 1.332 . S
C102 H82 0.931 . S
C102 C101 1.332 . S
C102 C103 1.267 . S
C103 H71 0.929 . S
C103 C102 1.267 . S
C103 C104 1.251 . S
C104 H74 0.929 . S
C104 N100 1.418 . S
C104 C103 1.251 . S
C105 H72 0.930 . S
C105 C107 1.406 . S
C105 C110 1.261 . S
C106 H73 0.930 . S
C106 N108 1.325 . S
C106 C109 1.357 . S
C107 H75 0.928 . S
C107 C105 1.406 . S
C107 N108 1.261 . S
N108 Co59 2.214 . S
N108 C106 1.325 . S
N108 C107 1.261 . S
C109 H79 0.931 . S
C109 C106 1.357 . S
C109 C110 1.312 . S
C110 H81 0.930 . S
C110 C105 1.261 . S
C110 C109 1.312 . S
C111 O83 1.214 . S
C111 O91 1.234 . S
C112 H84 0.929 . S
C112 C115 1.391 . S
C112 C117 1.391 . S
C113 H85 0.929 . S
C113 C114 1.390 . S
C113 N116 1.391 . S
C114 H86 0.930 . S
C114 C113 1.390 . S
C114 C115 1.392 . S
C115 H87 0.929 . S
C115 C112 1.391 . S
C115 C114 1.392 . S
N116 Co60 2.257 . S
N116 C113 1.391 . S
N116 C117 1.388 . S
C117 H88 0.930 . S
C117 C112 1.391 . S
C117 N116 1.388 . S
Co118 O120 2.143 . S
Co118 O126 2.074 . S
Co118 O129 2.093 . S
Co118 O142 2.097 . S
Co118 N159 2.151 . S
Co118 N167 2.214 . S
Co119 O120 2.160 . S
Co119 O125 2.058 . S
Co119 O135 2.057 . S
Co119 O150 2.037 . S
Co119 N154 2.145 . S
Co119 N175 2.257 . S
O120 Co118 2.143 . S
O120 Co119 2.160 . S
C121 O122 1.278 . S
C121 O129 1.224 . S
O122 C121 1.278 . S
C123 O124 1.245 . S
C123 O135 1.232 . S
O124 C123 1.245 . S
O125 Co119 2.058 . S
O125 C151 1.269 . S
O126 Co118 2.074 . S
O126 C151 1.257 . S
H127 C152 0.930 . S
H128 C158 0.930 . S
O129 Co118 2.093 . S
O129 C121 1.224 . S
H130 C162 0.929 . S
H131 C164 0.930 . S
H132 C165 0.930 . S
H133 C163 0.929 . S
H134 C166 0.928 . S
O135 Co119 2.057 . S
O135 C123 1.232 . S
H136 C155 0.929 . S
H137 C156 0.929 . S
H138 C168 0.931 . S
H139 C160 0.929 . S
H140 C169 0.930 . S
H141 C161 0.931 . S
O142 Co118 2.097 . S
O142 C170 1.214 . S
H143 C171 0.929 . S
H144 C172 0.929 . S
H145 C173 0.930 . S
H146 C174 0.929 . S
H147 C176 0.930 . S
H148 C153 0.930 . S
H149 C157 0.930 . S
O150 Co119 2.037 . S
O150 C170 1.234 . S
C151 O125 1.269 . S
C151 O126 1.257 . S
C152 H127 0.930 . S
C152 C155 1.388 . S
C152 C157 1.418 . S
C153 H148 0.930 . S
C153 C156 1.404 . S
C153 C157 1.353 . S
N154 Co119 2.145 . S
N154 C155 1.397 . S
N154 C156 1.334 . S
C155 H136 0.929 . S
C155 C152 1.388 . S
C155 N154 1.397 . S
C156 H137 0.929 . S
C156 C153 1.404 . S
C156 N154 1.334 . S
C157 H149 0.930 . S
C157 C152 1.418 . S
C157 C153 1.353 . S
C158 H128 0.930 . S
C158 N159 1.330 . S
C158 C160 1.446 . S
N159 Co118 2.151 . S
N159 C158 1.330 . S
N159 C163 1.418 . S
C160 H139 0.929 . S
C160 C158 1.446 . S
C160 C161 1.332 . S
C161 H141 0.931 . S
C161 C160 1.332 . S
C161 C162 1.267 . S
C162 H130 0.929 . S
C162 C161 1.267 . S
C162 C163 1.251 . S
C163 H133 0.929 . S
C163 N159 1.418 . S
C163 C162 1.251 . S
C164 H131 0.930 . S
C164 C166 1.406 . S
C164 C169 1.261 . S
C165 H132 0.930 . S
C165 N167 1.325 . S
C165 C168 1.357 . S
C166 H134 0.928 . S
C166 C164 1.406 . S
C166 N167 1.261 . S
N167 Co118 2.214 . S
N167 C165 1.325 . S
N167 C166 1.261 . S
C168 H138 0.931 . S
C168 C165 1.357 . S
C168 C169 1.312 . S
C169 H140 0.930 . S
C169 C164 1.261 . S
C169 C168 1.312 . S
C170 O142 1.214 . S
C170 O150 1.234 . S
C171 H143 0.929 . S
C171 C174 1.391 . S
C171 C176 1.391 . S
C172 H144 0.929 . S
C172 C173 1.390 . S
C172 N175 1.391 . S
C173 H145 0.930 . S
C173 C172 1.390 . S
C173 C174 1.392 . S
C174 H146 0.929 . S
C174 C171 1.391 . S
C174 C173 1.392 . S
N175 Co119 2.257 . S
N175 C172 1.391 . S
N175 C176 1.388 . S
C176 H147 0.930 . S
C176 C171 1.391 . S
C176 N175 1.388 . S
Co177 O179 2.143 . S
Co177 O185 2.074 . S
Co177 O188 2.093 . S
Co177 O201 2.097 . S
Co177 N218 2.151 . S
Co177 N226 2.214 . S
Co178 O179 2.160 . S
Co178 O184 2.058 . S
Co178 O194 2.057 . S
Co178 O209 2.037 . S
Co178 N213 2.145 . S
Co178 N234 2.257 . S
O179 Co177 2.143 . S
O179 Co178 2.160 . S
C180 O181 1.278 . S
C180 O188 1.224 . S
O181 C180 1.278 . S
C182 O183 1.245 . S
C182 O194 1.232 . S
O183 C182 1.245 . S
O184 Co178 2.058 . S
O184 C210 1.269 . S
O185 Co177 2.074 . S
O185 C210 1.257 . S
H186 C211 0.930 . S
H187 C217 0.930 . S
O188 Co177 2.093 . S
O188 C180 1.224 . S
H189 C221 0.929 . S
H190 C223 0.930 . S
H191 C224 0.930 . S
H192 C222 0.929 . S
H193 C225 0.928 . S
O194 Co178 2.057 . S
O194 C182 1.232 . S
H195 C214 0.929 . S
H196 C215 0.929 . S
H197 C227 0.931 . S
H198 C219 0.929 . S
H199 C228 0.930 . S
H200 C220 0.931 . S
O201 Co177 2.097 . S
O201 C229 1.214 . S
H202 C230 0.929 . S
H203 C231 0.929 . S
H204 C232 0.930 . S
H205 C233 0.929 . S
H206 C235 0.930 . S
H207 C212 0.930 . S
H208 C216 0.930 . S
O209 Co178 2.037 . S
O209 C229 1.234 . S
C210 O184 1.269 . S
C210 O185 1.257 . S
C211 H186 0.930 . S
C211 C214 1.388 . S
C211 C216 1.418 . S
C212 H207 0.930 . S
C212 C215 1.404 . S
C212 C216 1.353 . S
N213 Co178 2.145 . S
N213 C214 1.397 . S
N213 C215 1.334 . S
C214 H195 0.929 . S
C214 C211 1.388 . S
C214 N213 1.397 . S
C215 H196 0.929 . S
C215 C212 1.404 . S
C215 N213 1.334 . S
C216 H208 0.930 . S
C216 C211 1.418 . S
C216 C212 1.353 . S
C217 H187 0.930 . S
C217 N218 1.330 . S
C217 C219 1.446 . S
N218 Co177 2.151 . S
N218 C217 1.330 . S
N218 C222 1.418 . S
C219 H198 0.929 . S
C219 C217 1.446 . S
C219 C220 1.332 . S
C220 H200 0.931 . S
C220 C219 1.332 . S
C220 C221 1.267 . S
C221 H189 0.929 . S
C221 C220 1.267 . S
C221 C222 1.251 . S
C222 H192 0.929 . S
C222 N218 1.418 . S
C222 C221 1.251 . S
C223 H190 0.930 . S
C223 C225 1.406 . S
C223 C228 1.261 . S
C224 H191 0.930 . S
C224 N226 1.325 . S
C224 C227 1.357 . S
C225 H193 0.928 . S
C225 C223 1.406 . S
C225 N226 1.261 . S
N226 Co177 2.214 . S
N226 C224 1.325 . S
N226 C225 1.261 . S
C227 H197 0.931 . S
C227 C224 1.357 . S
C227 C228 1.312 . S
C228 H199 0.930 . S
C228 C223 1.261 . S
C228 C227 1.312 . S
C229 O201 1.214 . S
C229 O209 1.234 . S
C230 H202 0.929 . S
C230 C233 1.391 . S
C230 C235 1.391 . S
C231 H203 0.929 . S
C231 C232 1.390 . S
C231 N234 1.391 . S
C232 H204 0.930 . S
C232 C231 1.390 . S
C232 C233 1.392 . S
C233 H205 0.929 . S
C233 C230 1.391 . S
C233 C232 1.392 . S
N234 Co178 2.257 . S
N234 C231 1.391 . S
N234 C235 1.388 . S
C235 H206 0.930 . S
C235 C230 1.391 . S
C235 N234 1.388 . S
Co236 O238 2.143 . S
Co236 O244 2.074 . S
Co236 O247 2.093 . S
Co236 O260 2.097 . S
Co236 N277 2.151 . S
Co236 N285 2.214 . S
Co237 O238 2.160 . S
Co237 O243 2.058 . S
Co237 O253 2.057 . S
Co237 O268 2.037 . S
Co237 N272 2.145 . S
Co237 N293 2.257 . S
O238 Co236 2.143 . S
O238 Co237 2.160 . S
C239 O240 1.278 . S
C239 O247 1.224 . S
O240 C239 1.278 . S
C241 O242 1.245 . S
C241 O253 1.232 . S
O242 C241 1.245 . S
O243 Co237 2.058 . S
O243 C269 1.269 . S
O244 Co236 2.074 . S
O244 C269 1.257 . S
H245 C270 0.930 . S
H246 C276 0.930 . S
O247 Co236 2.093 . S
O247 C239 1.224 . S
H248 C280 0.929 . S
H249 C282 0.930 . S
H250 C283 0.930 . S
H251 C281 0.929 . S
H252 C284 0.928 . S
O253 Co237 2.057 . S
O253 C241 1.232 . S
H254 C273 0.929 . S
H255 C274 0.929 . S
H256 C286 0.931 . S
H257 C278 0.929 . S
H258 C287 0.930 . S
H259 C279 0.931 . S
O260 Co236 2.097 . S
O260 C288 1.214 . S
H261 C289 0.929 . S
H262 C290 0.929 . S
H263 C291 0.930 . S
H264 C292 0.929 . S
H265 C294 0.930 . S
H266 C271 0.930 . S
H267 C275 0.930 . S
O268 Co237 2.037 . S
O268 C288 1.234 . S
C269 O243 1.269 . S
C269 O244 1.257 . S
C270 H245 0.930 . S
C270 C273 1.388 . S
C270 C275 1.418 . S
C271 H266 0.930 . S
C271 C274 1.404 . S
C271 C275 1.353 . S
N272 Co237 2.145 . S
N272 C273 1.397 . S
N272 C274 1.334 . S
C273 H254 0.929 . S
C273 C270 1.388 . S
C273 N272 1.397 . S
C274 H255 0.929 . S
C274 C271 1.404 . S
C274 N272 1.334 . S
C275 H267 0.930 . S
C275 C270 1.418 . S
C275 C271 1.353 . S
C276 H246 0.930 . S
C276 N277 1.330 . S
C276 C278 1.446 . S
N277 Co236 2.151 . S
N277 C276 1.330 . S
N277 C281 1.418 . S
C278 H257 0.929 . S
C278 C276 1.446 . S
C278 C279 1.332 . S
C279 H259 0.931 . S
C279 C278 1.332 . S
C279 C280 1.267 . S
C280 H248 0.929 . S
C280 C279 1.267 . S
C280 C281 1.251 . S
C281 H251 0.929 . S
C281 N277 1.418 . S
C281 C280 1.251 . S
C282 H249 0.930 . S
C282 C284 1.406 . S
C282 C287 1.261 . S
C283 H250 0.930 . S
C283 N285 1.325 . S
C283 C286 1.357 . S
C284 H252 0.928 . S
C284 C282 1.406 . S
C284 N285 1.261 . S
N285 Co236 2.214 . S
N285 C283 1.325 . S
N285 C284 1.261 . S
C286 H256 0.931 . S
C286 C283 1.357 . S
C286 C287 1.312 . S
C287 H258 0.930 . S
C287 C282 1.261 . S
C287 C286 1.312 . S
C288 O260 1.214 . S
C288 O268 1.234 . S
C289 H261 0.929 . S
C289 C292 1.391 . S
C289 C294 1.391 . S
C290 H262 0.929 . S
C290 C291 1.390 . S
C290 N293 1.391 . S
C291 H263 0.930 . S
C291 C290 1.390 . S
C291 C292 1.392 . S
C292 H264 0.929 . S
C292 C289 1.391 . S
C292 C291 1.392 . S
N293 Co237 2.257 . S
N293 C290 1.391 . S
N293 C294 1.388 . S
C294 H265 0.930 . S
C294 C289 1.391 . S
C294 N293 1.388 . S
Co295 O297 2.143 . S
Co295 O303 2.074 . S
Co295 O306 2.093 . S
Co295 O319 2.097 . S
Co295 N336 2.151 . S
Co295 N344 2.214 . S
Co296 O297 2.160 . S
Co296 O302 2.058 . S
Co296 O312 2.057 . S
Co296 O327 2.037 . S
Co296 N331 2.145 . S
Co296 N352 2.257 . S
O297 Co295 2.143 . S
O297 Co296 2.160 . S
C298 O299 1.278 . S
C298 O306 1.224 . S
O299 C298 1.278 . S
C300 O301 1.245 . S
C300 O312 1.232 . S
O301 C300 1.245 . S
O302 Co296 2.058 . S
O302 C328 1.269 . S
O303 Co295 2.074 . S
O303 C328 1.257 . S
H304 C329 0.930 . S
H305 C335 0.930 . S
O306 Co295 2.093 . S
O306 C298 1.224 . S
H307 C339 0.929 . S
H308 C341 0.930 . S
H309 C342 0.930 . S
H310 C340 0.929 . S
H311 C343 0.928 . S
O312 Co296 2.057 . S
O312 C300 1.232 . S
H313 C332 0.929 . S
H314 C333 0.929 . S
H315 C345 0.931 . S
H316 C337 0.929 . S
H317 C346 0.930 . S
H318 C338 0.931 . S
O319 Co295 2.097 . S
O319 C347 1.214 . S
H320 C348 0.929 . S
H321 C349 0.929 . S
H322 C350 0.930 . S
H323 C351 0.929 . S
H324 C353 0.930 . S
H325 C330 0.930 . S
H326 C334 0.930 . S
O327 Co296 2.037 . S
O327 C347 1.234 . S
C328 O302 1.269 . S
C328 O303 1.257 . S
C329 H304 0.930 . S
C329 C332 1.388 . S
C329 C334 1.418 . S
C330 H325 0.930 . S
C330 C333 1.404 . S
C330 C334 1.353 . S
N331 Co296 2.145 . S
N331 C332 1.397 . S
N331 C333 1.334 . S
C332 H313 0.929 . S
C332 C329 1.388 . S
C332 N331 1.397 . S
C333 H314 0.929 . S
C333 C330 1.404 . S
C333 N331 1.334 . S
C334 H326 0.930 . S
C334 C329 1.418 . S
C334 C330 1.353 . S
C335 H305 0.930 . S
C335 N336 1.330 . S
C335 C337 1.446 . S
N336 Co295 2.151 . S
N336 C335 1.330 . S
N336 C340 1.418 . S
C337 H316 0.929 . S
C337 C335 1.446 . S
C337 C338 1.332 . S
C338 H318 0.931 . S
C338 C337 1.332 . S
C338 C339 1.267 . S
C339 H307 0.929 . S
C339 C338 1.267 . S
C339 C340 1.251 . S
C340 H310 0.929 . S
C340 N336 1.418 . S
C340 C339 1.251 . S
C341 H308 0.930 . S
C341 C343 1.406 . S
C341 C346 1.261 . S
C342 H309 0.930 . S
C342 N344 1.325 . S
C342 C345 1.357 . S
C343 H311 0.928 . S
C343 C341 1.406 . S
C343 N344 1.261 . S
N344 Co295 2.214 . S
N344 C342 1.325 . S
N344 C343 1.261 . S
C345 H315 0.931 . S
C345 C342 1.357 . S
C345 C346 1.312 . S
C346 H317 0.930 . S
C346 C341 1.261 . S
C346 C345 1.312 . S
C347 O319 1.214 . S
C347 O327 1.234 . S
C348 H320 0.929 . S
C348 C351 1.391 . S
C348 C353 1.391 . S
C349 H321 0.929 . S
C349 C350 1.390 . S
C349 N352 1.391 . S
C350 H322 0.930 . S
C350 C349 1.390 . S
C350 C351 1.392 . S
C351 H323 0.929 . S
C351 C348 1.391 . S
C351 C350 1.392 . S
N352 Co296 2.257 . S
N352 C349 1.391 . S
N352 C353 1.388 . S
C353 H324 0.930 . S
C353 C348 1.391 . S
C353 N352 1.388 . S
Co354 O356 2.143 . S
Co354 O362 2.074 . S
Co354 O365 2.093 . S
Co354 O378 2.097 . S
Co354 N395 2.151 . S
Co354 N403 2.214 . S
Co355 O356 2.160 . S
Co355 O361 2.058 . S
Co355 O371 2.057 . S
Co355 O386 2.037 . S
Co355 N390 2.145 . S
Co355 N411 2.257 . S
O356 Co354 2.143 . S
O356 Co355 2.160 . S
C357 O358 1.278 . S
C357 O365 1.224 . S
O358 C357 1.278 . S
C359 O360 1.245 . S
C359 O371 1.232 . S
O360 C359 1.245 . S
O361 Co355 2.058 . S
O361 C387 1.269 . S
O362 Co354 2.074 . S
O362 C387 1.257 . S
H363 C388 0.930 . S
H364 C394 0.930 . S
O365 Co354 2.093 . S
O365 C357 1.224 . S
H366 C398 0.929 . S
H367 C400 0.930 . S
H368 C401 0.930 . S
H369 C399 0.929 . S
H370 C402 0.928 . S
O371 Co355 2.057 . S
O371 C359 1.232 . S
H372 C391 0.929 . S
H373 C392 0.929 . S
H374 C404 0.931 . S
H375 C396 0.929 . S
H376 C405 0.930 . S
H377 C397 0.931 . S
O378 Co354 2.097 . S
O378 C406 1.214 . S
H379 C407 0.929 . S
H380 C408 0.929 . S
H381 C409 0.930 . S
H382 C410 0.929 . S
H383 C412 0.930 . S
H384 C389 0.930 . S
H385 C393 0.930 . S
O386 Co355 2.037 . S
O386 C406 1.234 . S
C387 O361 1.269 . S
C387 O362 1.257 . S
C388 H363 0.930 . S
C388 C391 1.388 . S
C388 C393 1.418 . S
C389 H384 0.930 . S
C389 C392 1.404 . S
C389 C393 1.353 . S
N390 Co355 2.145 . S
N390 C391 1.397 . S
N390 C392 1.334 . S
C391 H372 0.929 . S
C391 C388 1.388 . S
C391 N390 1.397 . S
C392 H373 0.929 . S
C392 C389 1.404 . S
C392 N390 1.334 . S
C393 H385 0.930 . S
C393 C388 1.418 . S
C393 C389 1.353 . S
C394 H364 0.930 . S
C394 N395 1.330 . S
C394 C396 1.446 . S
N395 Co354 2.151 . S
N395 C394 1.330 . S
N395 C399 1.418 . S
C396 H375 0.929 . S
C396 C394 1.446 . S
C396 C397 1.332 . S
C397 H377 0.931 . S
C397 C396 1.332 . S
C397 C398 1.267 . S
C398 H366 0.929 . S
C398 C397 1.267 . S
C398 C399 1.251 . S
C399 H369 0.929 . S
C399 N395 1.418 . S
C399 C398 1.251 . S
C400 H367 0.930 . S
C400 C402 1.406 . S
C400 C405 1.261 . S
C401 H368 0.930 . S
C401 N403 1.325 . S
C401 C404 1.357 . S
C402 H370 0.928 . S
C402 C400 1.406 . S
C402 N403 1.261 . S
N403 Co354 2.214 . S
N403 C401 1.325 . S
N403 C402 1.261 . S
C404 H374 0.931 . S
C404 C401 1.357 . S
C404 C405 1.312 . S
C405 H376 0.930 . S
C405 C400 1.261 . S
C405 C404 1.312 . S
C406 O378 1.214 . S
C406 O386 1.234 . S
C407 H379 0.929 . S
C407 C410 1.391 . S
C407 C412 1.391 . S
C408 H380 0.929 . S
C408 C409 1.390 . S
C408 N411 1.391 . S
C409 H381 0.930 . S
C409 C408 1.390 . S
C409 C410 1.392 . S
C410 H382 0.929 . S
C410 C407 1.391 . S
C410 C409 1.392 . S
N411 Co355 2.257 . S
N411 C408 1.391 . S
N411 C412 1.388 . S
C412 H383 0.930 . S
C412 C407 1.391 . S
C412 N411 1.388 . S
Co413 O415 2.143 . S
Co413 O421 2.074 . S
Co413 O424 2.093 . S
Co413 O437 2.097 . S
Co413 N454 2.151 . S
Co413 N462 2.214 . S
Co414 O415 2.160 . S
Co414 O420 2.058 . S
Co414 O430 2.057 . S
Co414 O445 2.037 . S
Co414 N449 2.145 . S
Co414 N470 2.257 . S
O415 Co413 2.143 . S
O415 Co414 2.160 . S
C416 O417 1.278 . S
C416 O424 1.224 . S
O417 C416 1.278 . S
C418 O419 1.245 . S
C418 O430 1.232 . S
O419 C418 1.245 . S
O420 Co414 2.058 . S
O420 C446 1.269 . S
O421 Co413 2.074 . S
O421 C446 1.257 . S
H422 C447 0.930 . S
H423 C453 0.930 . S
O424 Co413 2.093 . S
O424 C416 1.224 . S
H425 C457 0.929 . S
H426 C459 0.930 . S
H427 C460 0.930 . S
H428 C458 0.929 . S
H429 C461 0.928 . S
O430 Co414 2.057 . S
O430 C418 1.232 . S
H431 C450 0.929 . S
H432 C451 0.929 . S
H433 C463 0.931 . S
H434 C455 0.929 . S
H435 C464 0.930 . S
H436 C456 0.931 . S
O437 Co413 2.097 . S
O437 C465 1.214 . S
H438 C466 0.929 . S
H439 C467 0.929 . S
H440 C468 0.930 . S
H441 C469 0.929 . S
H442 C471 0.930 . S
H443 C448 0.930 . S
H444 C452 0.930 . S
O445 Co414 2.037 . S
O445 C465 1.234 . S
C446 O420 1.269 . S
C446 O421 1.257 . S
C447 H422 0.930 . S
C447 C450 1.388 . S
C447 C452 1.418 . S
C448 H443 0.930 . S
C448 C451 1.404 . S
C448 C452 1.353 . S
N449 Co414 2.145 . S
N449 C450 1.397 . S
N449 C451 1.334 . S
C450 H431 0.929 . S
C450 C447 1.388 . S
C450 N449 1.397 . S
C451 H432 0.929 . S
C451 C448 1.404 . S
C451 N449 1.334 . S
C452 H444 0.930 . S
C452 C447 1.418 . S
C452 C448 1.353 . S
C453 H423 0.930 . S
C453 N454 1.330 . S
C453 C455 1.446 . S
N454 Co413 2.151 . S
N454 C453 1.330 . S
N454 C458 1.418 . S
C455 H434 0.929 . S
C455 C453 1.446 . S
C455 C456 1.332 . S
C456 H436 0.931 . S
C456 C455 1.332 . S
C456 C457 1.267 . S
C457 H425 0.929 . S
C457 C456 1.267 . S
C457 C458 1.251 . S
C458 H428 0.929 . S
C458 N454 1.418 . S
C458 C457 1.251 . S
C459 H426 0.930 . S
C459 C461 1.406 . S
C459 C464 1.261 . S
C460 H427 0.930 . S
C460 N462 1.325 . S
C460 C463 1.357 . S
C461 H429 0.928 . S
C461 C459 1.406 . S
C461 N462 1.261 . S
N462 Co413 2.214 . S
N462 C460 1.325 . S
N462 C461 1.261 . S
C463 H433 0.931 . S
C463 C460 1.357 . S
C463 C464 1.312 . S
C464 H435 0.930 . S
C464 C459 1.261 . S
C464 C463 1.312 . S
C465 O437 1.214 . S
C465 O445 1.234 . S
C466 H438 0.929 . S
C466 C469 1.391 . S
C466 C471 1.391 . S
C467 H439 0.929 . S
C467 C468 1.390 . S
C467 N470 1.391 . S
C468 H440 0.930 . S
C468 C467 1.390 . S
C468 C469 1.392 . S
C469 H441 0.929 . S
C469 C466 1.391 . S
C469 C468 1.392 . S
N470 Co414 2.257 . S
N470 C467 1.391 . S
N470 C471 1.388 . S
C471 H442 0.930 . S
C471 C466 1.391 . S
C471 N470 1.388 . S
Co472 O474 2.143 . S
Co472 O480 2.074 . S
Co472 O483 2.093 . S
Co472 O496 2.097 . S
Co472 N513 2.151 . S
Co472 N521 2.214 . S
Co473 O474 2.160 . S
Co473 O479 2.058 . S
Co473 O489 2.057 . S
Co473 O504 2.037 . S
Co473 N508 2.145 . S
Co473 N529 2.257 . S
O474 Co472 2.143 . S
O474 Co473 2.160 . S
C475 O476 1.278 . S
C475 O483 1.224 . S
O476 C475 1.278 . S
C477 O478 1.245 . S
C477 O489 1.232 . S
O478 C477 1.245 . S
O479 Co473 2.058 . S
O479 C505 1.269 . S
O480 Co472 2.074 . S
O480 C505 1.257 . S
H481 C506 0.930 . S
H482 C512 0.930 . S
O483 Co472 2.093 . S
O483 C475 1.224 . S
H484 C516 0.929 . S
H485 C518 0.930 . S
H486 C519 0.930 . S
H487 C517 0.929 . S
H488 C520 0.928 . S
O489 Co473 2.057 . S
O489 C477 1.232 . S
H490 C509 0.929 . S
H491 C510 0.929 . S
H492 C522 0.931 . S
H493 C514 0.929 . S
H494 C523 0.930 . S
H495 C515 0.931 . S
O496 Co472 2.097 . S
O496 C524 1.214 . S
H497 C525 0.929 . S
H498 C526 0.929 . S
H499 C527 0.930 . S
H500 C528 0.929 . S
H501 C530 0.930 . S
H502 C507 0.930 . S
H503 C511 0.930 . S
O504 Co473 2.037 . S
O504 C524 1.234 . S
C505 O479 1.269 . S
C505 O480 1.257 . S
C506 H481 0.930 . S
C506 C509 1.388 . S
C506 C511 1.418 . S
C507 H502 0.930 . S
C507 C510 1.404 . S
C507 C511 1.353 . S
N508 Co473 2.145 . S
N508 C509 1.397 . S
N508 C510 1.334 . S
C509 H490 0.929 . S
C509 C506 1.388 . S
C509 N508 1.397 . S
C510 H491 0.929 . S
C510 C507 1.404 . S
C510 N508 1.334 . S
C511 H503 0.930 . S
C511 C506 1.418 . S
C511 C507 1.353 . S
C512 H482 0.930 . S
C512 N513 1.330 . S
C512 C514 1.446 . S
N513 Co472 2.151 . S
N513 C512 1.330 . S
N513 C517 1.418 . S
C514 H493 0.929 . S
C514 C512 1.446 . S
C514 C515 1.332 . S
C515 H495 0.931 . S
C515 C514 1.332 . S
C515 C516 1.267 . S
C516 H484 0.929 . S
C516 C515 1.267 . S
C516 C517 1.251 . S
C517 H487 0.929 . S
C517 N513 1.418 . S
C517 C516 1.251 . S
C518 H485 0.930 . S
C518 C520 1.406 . S
C518 C523 1.261 . S
C519 H486 0.930 . S
C519 N521 1.325 . S
C519 C522 1.357 . S
C520 H488 0.928 . S
C520 C518 1.406 . S
C520 N521 1.261 . S
N521 Co472 2.214 . S
N521 C519 1.325 . S
N521 C520 1.261 . S
C522 H492 0.931 . S
C522 C519 1.357 . S
C522 C523 1.312 . S
C523 H494 0.930 . S
C523 C518 1.261 . S
C523 C522 1.312 . S
C524 O496 1.214 . S
C524 O504 1.234 . S
C525 H497 0.929 . S
C525 C528 1.391 . S
C525 C530 1.391 . S
C526 H498 0.929 . S
C526 C527 1.390 . S
C526 N529 1.391 . S
C527 H499 0.930 . S
C527 C526 1.390 . S
C527 C528 1.392 . S
C528 H500 0.929 . S
C528 C525 1.391 . S
C528 C527 1.392 . S
N529 Co473 2.257 . S
N529 C526 1.391 . S
N529 C530 1.388 . S
C530 H501 0.930 . S
C530 C525 1.391 . S
C530 N529 1.388 . S
Co531 O533 2.143 . S
Co531 O539 2.074 . S
Co531 O542 2.093 . S
Co531 O555 2.097 . S
Co531 N572 2.151 . S
Co531 N580 2.214 . S
Co532 O533 2.160 . S
Co532 O538 2.058 . S
Co532 O548 2.057 . S
Co532 O563 2.037 . S
Co532 N567 2.145 . S
Co532 N588 2.257 . S
O533 Co531 2.143 . S
O533 Co532 2.160 . S
C534 O535 1.278 . S
C534 O542 1.224 . S
O535 C534 1.278 . S
C536 O537 1.245 . S
C536 O548 1.232 . S
O537 C536 1.245 . S
O538 Co532 2.058 . S
O538 C564 1.269 . S
O539 Co531 2.074 . S
O539 C564 1.257 . S
H540 C565 0.930 . S
H541 C571 0.930 . S
O542 Co531 2.093 . S
O542 C534 1.224 . S
H543 C575 0.929 . S
H544 C577 0.930 . S
H545 C578 0.930 . S
H546 C576 0.929 . S
H547 C579 0.928 . S
O548 Co532 2.057 . S
O548 C536 1.232 . S
H549 C568 0.929 . S
H550 C569 0.929 . S
H551 C581 0.931 . S
H552 C573 0.929 . S
H553 C582 0.930 . S
H554 C574 0.931 . S
O555 Co531 2.097 . S
O555 C583 1.214 . S
H556 C584 0.929 . S
H557 C585 0.929 . S
H558 C586 0.930 . S
H559 C587 0.929 . S
H560 C589 0.930 . S
H561 C566 0.930 . S
H562 C570 0.930 . S
O563 Co532 2.037 . S
O563 C583 1.234 . S
C564 O538 1.269 . S
C564 O539 1.257 . S
C565 H540 0.930 . S
C565 C568 1.388 . S
C565 C570 1.418 . S
C566 H561 0.930 . S
C566 C569 1.404 . S
C566 C570 1.353 . S
N567 Co532 2.145 . S
N567 C568 1.397 . S
N567 C569 1.334 . S
C568 H549 0.929 . S
C568 C565 1.388 . S
C568 N567 1.397 . S
C569 H550 0.929 . S
C569 C566 1.404 . S
C569 N567 1.334 . S
C570 H562 0.930 . S
C570 C565 1.418 . S
C570 C566 1.353 . S
C571 H541 0.930 . S
C571 N572 1.330 . S
C571 C573 1.446 . S
N572 Co531 2.151 . S
N572 C571 1.330 . S
N572 C576 1.418 . S
C573 H552 0.929 . S
C573 C571 1.446 . S
C573 C574 1.332 . S
C574 H554 0.931 . S
C574 C573 1.332 . S
C574 C575 1.267 . S
C575 H543 0.929 . S
C575 C574 1.267 . S
C575 C576 1.251 . S
C576 H546 0.929 . S
C576 N572 1.418 . S
C576 C575 1.251 . S
C577 H544 0.930 . S
C577 C579 1.406 . S
C577 C582 1.261 . S
C578 H545 0.930 . S
C578 N580 1.325 . S
C578 C581 1.357 . S
C579 H547 0.928 . S
C579 C577 1.406 . S
C579 N580 1.261 . S
N580 Co531 2.214 . S
N580 C578 1.325 . S
N580 C579 1.261 . S
C581 H551 0.931 . S
C581 C578 1.357 . S
C581 C582 1.312 . S
C582 H553 0.930 . S
C582 C577 1.261 . S
C582 C581 1.312 . S
C583 O555 1.214 . S
C583 O563 1.234 . S
C584 H556 0.929 . S
C584 C587 1.391 . S
C584 C589 1.391 . S
C585 H557 0.929 . S
C585 C586 1.390 . S
C585 N588 1.391 . S
C586 H558 0.930 . S
C586 C585 1.390 . S
C586 C587 1.392 . S
C587 H559 0.929 . S
C587 C584 1.391 . S
C587 C586 1.392 . S
N588 Co532 2.257 . S
N588 C585 1.391 . S
N588 C589 1.388 . S
C589 H560 0.930 . S
C589 C584 1.391 . S
C589 N588 1.388 . S
Co590 O592 2.143 . S
Co590 O598 2.074 . S
Co590 O601 2.093 . S
Co590 O614 2.097 . S
Co590 N631 2.151 . S
Co590 N639 2.214 . S
Co591 O592 2.160 . S
Co591 O597 2.058 . S
Co591 O607 2.057 . S
Co591 O622 2.037 . S
Co591 N626 2.145 . S
Co591 N647 2.257 . S
O592 Co590 2.143 . S
O592 Co591 2.160 . S
C593 O594 1.278 . S
C593 O601 1.224 . S
O594 C593 1.278 . S
C595 O596 1.245 . S
C595 O607 1.232 . S
O596 C595 1.245 . S
O597 Co591 2.058 . S
O597 C623 1.269 . S
O598 Co590 2.074 . S
O598 C623 1.257 . S
H599 C624 0.930 . S
H600 C630 0.930 . S
O601 Co590 2.093 . S
O601 C593 1.224 . S
H602 C634 0.929 . S
H603 C636 0.930 . S
H604 C637 0.930 . S
H605 C635 0.929 . S
H606 C638 0.928 . S
O607 Co591 2.057 . S
O607 C595 1.232 . S
H608 C627 0.929 . S
H609 C628 0.929 . S
H610 C640 0.931 . S
H611 C632 0.929 . S
H612 C641 0.930 . S
H613 C633 0.931 . S
O614 Co590 2.097 . S
O614 C642 1.214 . S
H615 C643 0.929 . S
H616 C644 0.929 . S
H617 C645 0.930 . S
H618 C646 0.929 . S
H619 C648 0.930 . S
H620 C625 0.930 . S
H621 C629 0.930 . S
O622 Co591 2.037 . S
O622 C642 1.234 . S
C623 O597 1.269 . S
C623 O598 1.257 . S
C624 H599 0.930 . S
C624 C627 1.388 . S
C624 C629 1.418 . S
C625 H620 0.930 . S
C625 C628 1.404 . S
C625 C629 1.353 . S
N626 Co591 2.145 . S
N626 C627 1.397 . S
N626 C628 1.334 . S
C627 H608 0.929 . S
C627 C624 1.388 . S
C627 N626 1.397 . S
C628 H609 0.929 . S
C628 C625 1.404 . S
C628 N626 1.334 . S
C629 H621 0.930 . S
C629 C624 1.418 . S
C629 C625 1.353 . S
C630 H600 0.930 . S
C630 N631 1.330 . S
C630 C632 1.446 . S
N631 Co590 2.151 . S
N631 C630 1.330 . S
N631 C635 1.418 . S
C632 H611 0.929 . S
C632 C630 1.446 . S
C632 C633 1.332 . S
C633 H613 0.931 . S
C633 C632 1.332 . S
C633 C634 1.267 . S
C634 H602 0.929 . S
C634 C633 1.267 . S
C634 C635 1.251 . S
C635 H605 0.929 . S
C635 N631 1.418 . S
C635 C634 1.251 . S
C636 H603 0.930 . S
C636 C638 1.406 . S
C636 C641 1.261 . S
C637 H604 0.930 . S
C637 N639 1.325 . S
C637 C640 1.357 . S
C638 H606 0.928 . S
C638 C636 1.406 . S
C638 N639 1.261 . S
N639 Co590 2.214 . S
N639 C637 1.325 . S
N639 C638 1.261 . S
C640 H610 0.931 . S
C640 C637 1.357 . S
C640 C641 1.312 . S
C641 H612 0.930 . S
C641 C636 1.261 . S
C641 C640 1.312 . S
C642 O614 1.214 . S
C642 O622 1.234 . S
C643 H615 0.929 . S
C643 C646 1.391 . S
C643 C648 1.391 . S
C644 H616 0.929 . S
C644 C645 1.390 . S
C644 N647 1.391 . S
C645 H617 0.930 . S
C645 C644 1.390 . S
C645 C646 1.392 . S
C646 H618 0.929 . S
C646 C643 1.391 . S
C646 C645 1.392 . S
N647 Co591 2.257 . S
N647 C644 1.391 . S
N647 C648 1.388 . S
C648 H619 0.930 . S
C648 C643 1.391 . S
C648 N647 1.388 . S
Co649 O651 2.143 . S
Co649 O657 2.074 . S
Co649 O660 2.093 . S
Co649 O673 2.097 . S
Co649 N690 2.151 . S
Co649 N698 2.214 . S
Co650 O651 2.160 . S
Co650 O656 2.058 . S
Co650 O666 2.057 . S
Co650 O681 2.037 . S
Co650 N685 2.145 . S
Co650 N706 2.257 . S
O651 Co649 2.143 . S
O651 Co650 2.160 . S
C652 O653 1.278 . S
C652 O660 1.224 . S
O653 C652 1.278 . S
C654 O655 1.245 . S
C654 O666 1.232 . S
O655 C654 1.245 . S
O656 Co650 2.058 . S
O656 C682 1.269 . S
O657 Co649 2.074 . S
O657 C682 1.257 . S
H658 C683 0.930 . S
H659 C689 0.930 . S
O660 Co649 2.093 . S
O660 C652 1.224 . S
H661 C693 0.929 . S
H662 C695 0.930 . S
H663 C696 0.930 . S
H664 C694 0.929 . S
H665 C697 0.928 . S
O666 Co650 2.057 . S
O666 C654 1.232 . S
H667 C686 0.929 . S
H668 C687 0.929 . S
H669 C699 0.931 . S
H670 C691 0.929 . S
H671 C700 0.930 . S
H672 C692 0.931 . S
O673 Co649 2.097 . S
O673 C701 1.214 . S
H674 C702 0.929 . S
H675 C703 0.929 . S
H676 C704 0.930 . S
H677 C705 0.929 . S
H678 C707 0.930 . S
H679 C684 0.930 . S
H680 C688 0.930 . S
O681 Co650 2.037 . S
O681 C701 1.234 . S
C682 O656 1.269 . S
C682 O657 1.257 . S
C683 H658 0.930 . S
C683 C686 1.388 . S
C683 C688 1.418 . S
C684 H679 0.930 . S
C684 C687 1.404 . S
C684 C688 1.353 . S
N685 Co650 2.145 . S
N685 C686 1.397 . S
N685 C687 1.334 . S
C686 H667 0.929 . S
C686 C683 1.388 . S
C686 N685 1.397 . S
C687 H668 0.929 . S
C687 C684 1.404 . S
C687 N685 1.334 . S
C688 H680 0.930 . S
C688 C683 1.418 . S
C688 C684 1.353 . S
C689 H659 0.930 . S
C689 N690 1.330 . S
C689 C691 1.446 . S
N690 Co649 2.151 . S
N690 C689 1.330 . S
N690 C694 1.418 . S
C691 H670 0.929 . S
C691 C689 1.446 . S
C691 C692 1.332 . S
C692 H672 0.931 . S
C692 C691 1.332 . S
C692 C693 1.267 . S
C693 H661 0.929 . S
C693 C692 1.267 . S
C693 C694 1.251 . S
C694 H664 0.929 . S
C694 N690 1.418 . S
C694 C693 1.251 . S
C695 H662 0.930 . S
C695 C697 1.406 . S
C695 C700 1.261 . S
C696 H663 0.930 . S
C696 N698 1.325 . S
C696 C699 1.357 . S
C697 H665 0.928 . S
C697 C695 1.406 . S
C697 N698 1.261 . S
N698 Co649 2.214 . S
N698 C696 1.325 . S
N698 C697 1.261 . S
C699 H669 0.931 . S
C699 C696 1.357 . S
C699 C700 1.312 . S
C700 H671 0.930 . S
C700 C695 1.261 . S
C700 C699 1.312 . S
C701 O673 1.214 . S
C701 O681 1.234 . S
C702 H674 0.929 . S
C702 C705 1.391 . S
C702 C707 1.391 . S
C703 H675 0.929 . S
C703 C704 1.390 . S
C703 N706 1.391 . S
C704 H676 0.930 . S
C704 C703 1.390 . S
C704 C705 1.392 . S
C705 H677 0.929 . S
C705 C702 1.391 . S
C705 C704 1.392 . S
N706 Co650 2.257 . S
N706 C703 1.391 . S
N706 C707 1.388 . S
C707 H678 0.930 . S
C707 C702 1.391 . S
C707 N706 1.388 . S
Co708 O710 2.143 . S
Co708 O716 2.074 . S
Co708 O719 2.093 . S
Co708 O732 2.097 . S
Co708 N749 2.151 . S
Co708 N757 2.214 . S
Co709 O710 2.160 . S
Co709 O715 2.058 . S
Co709 O725 2.057 . S
Co709 O740 2.037 . S
Co709 N744 2.145 . S
Co709 N765 2.257 . S
O710 Co708 2.143 . S
O710 Co709 2.160 . S
C711 O712 1.278 . S
C711 O719 1.224 . S
O712 C711 1.278 . S
C713 O714 1.245 . S
C713 O725 1.232 . S
O714 C713 1.245 . S
O715 Co709 2.058 . S
O715 C741 1.269 . S
O716 Co708 2.074 . S
O716 C741 1.257 . S
H717 C742 0.930 . S
H718 C748 0.930 . S
O719 Co708 2.093 . S
O719 C711 1.224 . S
H720 C752 0.929 . S
H721 C754 0.930 . S
H722 C755 0.930 . S
H723 C753 0.929 . S
H724 C756 0.928 . S
O725 Co709 2.057 . S
O725 C713 1.232 . S
H726 C745 0.929 . S
H727 C746 0.929 . S
H728 C758 0.931 . S
H729 C750 0.929 . S
H730 C759 0.930 . S
H731 C751 0.931 . S
O732 Co708 2.097 . S
O732 C760 1.214 . S
H733 C761 0.929 . S
H734 C762 0.929 . S
H735 C763 0.930 . S
H736 C764 0.929 . S
H737 C766 0.930 . S
H738 C743 0.930 . S
H739 C747 0.930 . S
O740 Co709 2.037 . S
O740 C760 1.234 . S
C741 O715 1.269 . S
C741 O716 1.257 . S
C742 H717 0.930 . S
C742 C745 1.388 . S
C742 C747 1.418 . S
C743 H738 0.930 . S
C743 C746 1.404 . S
C743 C747 1.353 . S
N744 Co709 2.145 . S
N744 C745 1.397 . S
N744 C746 1.334 . S
C745 H726 0.929 . S
C745 C742 1.388 . S
C745 N744 1.397 . S
C746 H727 0.929 . S
C746 C743 1.404 . S
C746 N744 1.334 . S
C747 H739 0.930 . S
C747 C742 1.418 . S
C747 C743 1.353 . S
C748 H718 0.930 . S
C748 N749 1.330 . S
C748 C750 1.446 . S
N749 Co708 2.151 . S
N749 C748 1.330 . S
N749 C753 1.418 . S
C750 H729 0.929 . S
C750 C748 1.446 . S
C750 C751 1.332 . S
C751 H731 0.931 . S
C751 C750 1.332 . S
C751 C752 1.267 . S
C752 H720 0.929 . S
C752 C751 1.267 . S
C752 C753 1.251 . S
C753 H723 0.929 . S
C753 N749 1.418 . S
C753 C752 1.251 . S
C754 H721 0.930 . S
C754 C756 1.406 . S
C754 C759 1.261 . S
C755 H722 0.930 . S
C755 N757 1.325 . S
C755 C758 1.357 . S
C756 H724 0.928 . S
C756 C754 1.406 . S
C756 N757 1.261 . S
N757 Co708 2.214 . S
N757 C755 1.325 . S
N757 C756 1.261 . S
C758 H728 0.931 . S
C758 C755 1.357 . S
C758 C759 1.312 . S
C759 H730 0.930 . S
C759 C754 1.261 . S
C759 C758 1.312 . S
C760 O732 1.214 . S
C760 O740 1.234 . S
C761 H733 0.929 . S
C761 C764 1.391 . S
C761 C766 1.391 . S
C762 H734 0.929 . S
C762 C763 1.390 . S
C762 N765 1.391 . S
C763 H735 0.930 . S
C763 C762 1.390 . S
C763 C764 1.392 . S
C764 H736 0.929 . S
C764 C761 1.391 . S
C764 C763 1.392 . S
N765 Co709 2.257 . S
N765 C762 1.391 . S
N765 C766 1.388 . S
C766 H737 0.930 . S
C766 C761 1.391 . S
C766 N765 1.388 . S
Co767 O769 2.143 . S
Co767 O775 2.074 . S
Co767 O778 2.093 . S
Co767 O791 2.097 . S
Co767 N808 2.151 . S
Co767 N816 2.214 . S
Co768 O769 2.160 . S
Co768 O774 2.058 . S
Co768 O784 2.057 . S
Co768 O799 2.037 . S
Co768 N803 2.145 . S
Co768 N824 2.257 . S
O769 Co767 2.143 . S
O769 Co768 2.160 . S
C770 O771 1.278 . S
C770 O778 1.224 . S
O771 C770 1.278 . S
C772 O773 1.245 . S
C772 O784 1.232 . S
O773 C772 1.245 . S
O774 Co768 2.058 . S
O774 C800 1.269 . S
O775 Co767 2.074 . S
O775 C800 1.257 . S
H776 C801 0.930 . S
H777 C807 0.930 . S
O778 Co767 2.093 . S
O778 C770 1.224 . S
H779 C811 0.929 . S
H780 C813 0.930 . S
H781 C814 0.930 . S
H782 C812 0.929 . S
H783 C815 0.928 . S
O784 Co768 2.057 . S
O784 C772 1.232 . S
H785 C804 0.929 . S
H786 C805 0.929 . S
H787 C817 0.931 . S
H788 C809 0.929 . S
H789 C818 0.930 . S
H790 C810 0.931 . S
O791 Co767 2.097 . S
O791 C819 1.214 . S
H792 C820 0.929 . S
H793 C821 0.929 . S
H794 C822 0.930 . S
H795 C823 0.929 . S
H796 C825 0.930 . S
H797 C802 0.930 . S
H798 C806 0.930 . S
O799 Co768 2.037 . S
O799 C819 1.234 . S
C800 O774 1.269 . S
C800 O775 1.257 . S
C801 H776 0.930 . S
C801 C804 1.388 . S
C801 C806 1.418 . S
C802 H797 0.930 . S
C802 C805 1.404 . S
C802 C806 1.353 . S
N803 Co768 2.145 . S
N803 C804 1.397 . S
N803 C805 1.334 . S
C804 H785 0.929 . S
C804 C801 1.388 . S
C804 N803 1.397 . S
C805 H786 0.929 . S
C805 C802 1.404 . S
C805 N803 1.334 . S
C806 H798 0.930 . S
C806 C801 1.418 . S
C806 C802 1.353 . S
C807 H777 0.930 . S
C807 N808 1.330 . S
C807 C809 1.446 . S
N808 Co767 2.151 . S
N808 C807 1.330 . S
N808 C812 1.418 . S
C809 H788 0.929 . S
C809 C807 1.446 . S
C809 C810 1.332 . S
C810 H790 0.931 . S
C810 C809 1.332 . S
C810 C811 1.267 . S
C811 H779 0.929 . S
C811 C810 1.267 . S
C811 C812 1.251 . S
C812 H782 0.929 . S
C812 N808 1.418 . S
C812 C811 1.251 . S
C813 H780 0.930 . S
C813 C815 1.406 . S
C813 C818 1.261 . S
C814 H781 0.930 . S
C814 N816 1.325 . S
C814 C817 1.357 . S
C815 H783 0.928 . S
C815 C813 1.406 . S
C815 N816 1.261 . S
N816 Co767 2.214 . S
N816 C814 1.325 . S
N816 C815 1.261 . S
C817 H787 0.931 . S
C817 C814 1.357 . S
C817 C818 1.312 . S
C818 H789 0.930 . S
C818 C813 1.261 . S
C818 C817 1.312 . S
C819 O791 1.214 . S
C819 O799 1.234 . S
C820 H792 0.929 . S
C820 C823 1.391 . S
C820 C825 1.391 . S
C821 H793 0.929 . S
C821 C822 1.390 . S
C821 N824 1.391 . S
C822 H794 0.930 . S
C822 C821 1.390 . S
C822 C823 1.392 . S
C823 H795 0.929 . S
C823 C820 1.391 . S
C823 C822 1.392 . S
N824 Co768 2.257 . S
N824 C821 1.391 . S
N824 C825 1.388 . S
C825 H796 0.930 . S
C825 C820 1.391 . S
C825 N824 1.388 . S
Co826 O828 2.143 . S
Co826 O834 2.074 . S
Co826 O837 2.093 . S
Co826 O850 2.097 . S
Co826 N867 2.151 . S
Co826 N875 2.214 . S
Co827 O828 2.160 . S
Co827 O833 2.058 . S
Co827 O843 2.057 . S
Co827 O858 2.037 . S
Co827 N862 2.145 . S
Co827 N883 2.257 . S
O828 Co826 2.143 . S
O828 Co827 2.160 . S
C829 O830 1.278 . S
C829 O837 1.224 . S
O830 C829 1.278 . S
C831 O832 1.245 . S
C831 O843 1.232 . S
O832 C831 1.245 . S
O833 Co827 2.058 . S
O833 C859 1.269 . S
O834 Co826 2.074 . S
O834 C859 1.257 . S
H835 C860 0.930 . S
H836 C866 0.930 . S
O837 Co826 2.093 . S
O837 C829 1.224 . S
H838 C870 0.929 . S
H839 C872 0.930 . S
H840 C873 0.930 . S
H841 C871 0.929 . S
H842 C874 0.928 . S
O843 Co827 2.057 . S
O843 C831 1.232 . S
H844 C863 0.929 . S
H845 C864 0.929 . S
H846 C876 0.931 . S
H847 C868 0.929 . S
H848 C877 0.930 . S
H849 C869 0.931 . S
O850 Co826 2.097 . S
O850 C878 1.214 . S
H851 C879 0.929 . S
H852 C880 0.929 . S
H853 C881 0.930 . S
H854 C882 0.929 . S
H855 C884 0.930 . S
H856 C861 0.930 . S
H857 C865 0.930 . S
O858 Co827 2.037 . S
O858 C878 1.234 . S
C859 O833 1.269 . S
C859 O834 1.257 . S
C860 H835 0.930 . S
C860 C863 1.388 . S
C860 C865 1.418 . S
C861 H856 0.930 . S
C861 C864 1.404 . S
C861 C865 1.353 . S
N862 Co827 2.145 . S
N862 C863 1.397 . S
N862 C864 1.334 . S
C863 H844 0.929 . S
C863 C860 1.388 . S
C863 N862 1.397 . S
C864 H845 0.929 . S
C864 C861 1.404 . S
C864 N862 1.334 . S
C865 H857 0.930 . S
C865 C860 1.418 . S
C865 C861 1.353 . S
C866 H836 0.930 . S
C866 N867 1.330 . S
C866 C868 1.446 . S
N867 Co826 2.151 . S
N867 C866 1.330 . S
N867 C871 1.418 . S
C868 H847 0.929 . S
C868 C866 1.446 . S
C868 C869 1.332 . S
C869 H849 0.931 . S
C869 C868 1.332 . S
C869 C870 1.267 . S
C870 H838 0.929 . S
C870 C869 1.267 . S
C870 C871 1.251 . S
C871 H841 0.929 . S
C871 N867 1.418 . S
C871 C870 1.251 . S
C872 H839 0.930 . S
C872 C874 1.406 . S
C872 C877 1.261 . S
C873 H840 0.930 . S
C873 N875 1.325 . S
C873 C876 1.357 . S
C874 H842 0.928 . S
C874 C872 1.406 . S
C874 N875 1.261 . S
N875 Co826 2.214 . S
N875 C873 1.325 . S
N875 C874 1.261 . S
C876 H846 0.931 . S
C876 C873 1.357 . S
C876 C877 1.312 . S
C877 H848 0.930 . S
C877 C872 1.261 . S
C877 C876 1.312 . S
C878 O850 1.214 . S
C878 O858 1.234 . S
C879 H851 0.929 . S
C879 C882 1.391 . S
C879 C884 1.391 . S
C880 H852 0.929 . S
C880 C881 1.390 . S
C880 N883 1.391 . S
C881 H853 0.930 . S
C881 C880 1.390 . S
C881 C882 1.392 . S
C882 H854 0.929 . S
C882 C879 1.391 . S
C882 C881 1.392 . S
N883 Co827 2.257 . S
N883 C880 1.391 . S
N883 C884 1.388 . S
C884 H855 0.930 . S
C884 C879 1.391 . S
C884 N883 1.388 . S
Co885 O887 2.143 . S
Co885 O893 2.074 . S
Co885 O896 2.093 . S
Co885 O909 2.097 . S
Co885 N926 2.151 . S
Co885 N934 2.214 . S
Co886 O887 2.160 . S
Co886 O892 2.058 . S
Co886 O902 2.057 . S
Co886 O917 2.037 . S
Co886 N921 2.145 . S
Co886 N942 2.257 . S
O887 Co885 2.143 . S
O887 Co886 2.160 . S
C888 O889 1.278 . S
C888 O896 1.224 . S
O889 C888 1.278 . S
C890 O891 1.245 . S
C890 O902 1.232 . S
O891 C890 1.245 . S
O892 Co886 2.058 . S
O892 C918 1.269 . S
O893 Co885 2.074 . S
O893 C918 1.257 . S
H894 C919 0.930 . S
H895 C925 0.930 . S
O896 Co885 2.093 . S
O896 C888 1.224 . S
H897 C929 0.929 . S
H898 C931 0.930 . S
H899 C932 0.930 . S
H900 C930 0.929 . S
H901 C933 0.928 . S
O902 Co886 2.057 . S
O902 C890 1.232 . S
H903 C922 0.929 . S
H904 C923 0.929 . S
H905 C935 0.931 . S
H906 C927 0.929 . S
H907 C936 0.930 . S
H908 C928 0.931 . S
O909 Co885 2.097 . S
O909 C937 1.214 . S
H910 C938 0.929 . S
H911 C939 0.929 . S
H912 C940 0.930 . S
H913 C941 0.929 . S
H914 C943 0.930 . S
H915 C920 0.930 . S
H916 C924 0.930 . S
O917 Co886 2.037 . S
O917 C937 1.234 . S
C918 O892 1.269 . S
C918 O893 1.257 . S
C919 H894 0.930 . S
C919 C922 1.388 . S
C919 C924 1.418 . S
C920 H915 0.930 . S
C920 C923 1.404 . S
C920 C924 1.353 . S
N921 Co886 2.145 . S
N921 C922 1.397 . S
N921 C923 1.334 . S
C922 H903 0.929 . S
C922 C919 1.388 . S
C922 N921 1.397 . S
C923 H904 0.929 . S
C923 C920 1.404 . S
C923 N921 1.334 . S
C924 H916 0.930 . S
C924 C919 1.418 . S
C924 C920 1.353 . S
C925 H895 0.930 . S
C925 N926 1.330 . S
C925 C927 1.446 . S
N926 Co885 2.151 . S
N926 C925 1.330 . S
N926 C930 1.418 . S
C927 H906 0.929 . S
C927 C925 1.446 . S
C927 C928 1.332 . S
C928 H908 0.931 . S
C928 C927 1.332 . S
C928 C929 1.267 . S
C929 H897 0.929 . S
C929 C928 1.267 . S
C929 C930 1.251 . S
C930 H900 0.929 . S
C930 N926 1.418 . S
C930 C929 1.251 . S
C931 H898 0.930 . S
C931 C933 1.406 . S
C931 C936 1.261 . S
C932 H899 0.930 . S
C932 N934 1.325 . S
C932 C935 1.357 . S
C933 H901 0.928 . S
C933 C931 1.406 . S
C933 N934 1.261 . S
N934 Co885 2.214 . S
N934 C932 1.325 . S
N934 C933 1.261 . S
C935 H905 0.931 . S
C935 C932 1.357 . S
C935 C936 1.312 . S
C936 H907 0.930 . S
C936 C931 1.261 . S
C936 C935 1.312 . S
C937 O909 1.214 . S
C937 O917 1.234 . S
C938 H910 0.929 . S
C938 C941 1.391 . S
C938 C943 1.391 . S
C939 H911 0.929 . S
C939 C940 1.390 . S
C939 N942 1.391 . S
C940 H912 0.930 . S
C940 C939 1.390 . S
C940 C941 1.392 . S
C941 H913 0.929 . S
C941 C938 1.391 . S
C941 C940 1.392 . S
N942 Co886 2.257 . S
N942 C939 1.391 . S
N942 C943 1.388 . S
C943 H914 0.930 . S
C943 C938 1.391 . S
C943 N942 1.388 . S
Co944 O946 2.143 . S
Co944 O952 2.074 . S
Co944 O955 2.093 . S
Co944 O968 2.097 . S
Co944 N985 2.151 . S
Co944 N993 2.214 . S
Co945 O946 2.160 . S
Co945 O951 2.058 . S
Co945 O961 2.057 . S
Co945 O976 2.037 . S
Co945 N980 2.145 . S
Co945 N1001 2.257 . S
O946 Co944 2.143 . S
O946 Co945 2.160 . S
C947 O948 1.278 . S
C947 O955 1.224 . S
O948 C947 1.278 . S
C949 O950 1.245 . S
C949 O961 1.232 . S
O950 C949 1.245 . S
O951 Co945 2.058 . S
O951 C977 1.269 . S
O952 Co944 2.074 . S
O952 C977 1.257 . S
H953 C978 0.930 . S
H954 C984 0.930 . S
O955 Co944 2.093 . S
O955 C947 1.224 . S
H956 C988 0.929 . S
H957 C990 0.930 . S
H958 C991 0.930 . S
H959 C989 0.929 . S
H960 C992 0.928 . S
O961 Co945 2.057 . S
O961 C949 1.232 . S
H962 C981 0.929 . S
H963 C982 0.929 . S
H964 C994 0.931 . S
H965 C986 0.929 . S
H966 C995 0.930 . S
H967 C987 0.931 . S
O968 Co944 2.097 . S
O968 C996 1.214 . S
H969 C997 0.929 . S
H970 C998 0.929 . S
H971 C999 0.930 . S
H972 C1000 0.929 . S
H973 C1002 0.930 . S
H974 C979 0.930 . S
H975 C983 0.930 . S
O976 Co945 2.037 . S
O976 C996 1.234 . S
C977 O951 1.269 . S
C977 O952 1.257 . S
C978 H953 0.930 . S
C978 C981 1.388 . S
C978 C983 1.418 . S
C979 H974 0.930 . S
C979 C982 1.404 . S
C979 C983 1.353 . S
N980 Co945 2.145 . S
N980 C981 1.397 . S
N980 C982 1.334 . S
C981 H962 0.929 . S
C981 C978 1.388 . S
C981 N980 1.397 . S
C982 H963 0.929 . S
C982 C979 1.404 . S
C982 N980 1.334 . S
C983 H975 0.930 . S
C983 C978 1.418 . S
C983 C979 1.353 . S
C984 H954 0.930 . S
C984 N985 1.330 . S
C984 C986 1.446 . S
N985 Co944 2.151 . S
N985 C984 1.330 . S
N985 C989 1.418 . S
C986 H965 0.929 . S
C986 C984 1.446 . S
C986 C987 1.332 . S
C987 H967 0.931 . S
C987 C986 1.332 . S
C987 C988 1.267 . S
C988 H956 0.929 . S
C988 C987 1.267 . S
C988 C989 1.251 . S
C989 H959 0.929 . S
C989 N985 1.418 . S
C989 C988 1.251 . S
C990 H957 0.930 . S
C990 C992 1.406 . S
C990 C995 1.261 . S
C991 H958 0.930 . S
C991 N993 1.325 . S
C991 C994 1.357 . S
C992 H960 0.928 . S
C992 C990 1.406 . S
C992 N993 1.261 . S
N993 Co944 2.214 . S
N993 C991 1.325 . S
N993 C992 1.261 . S
C994 H964 0.931 . S
C994 C991 1.357 . S
C994 C995 1.312 . S
C995 H966 0.930 . S
C995 C990 1.261 . S
C995 C994 1.312 . S
C996 O968 1.214 . S
C996 O976 1.234 . S
C997 H969 0.929 . S
C997 C1000 1.391 . S
C997 C1002 1.391 . S
C998 H970 0.929 . S
C998 C999 1.390 . S
C998 N1001 1.391 . S
C999 H971 0.930 . S
C999 C998 1.390 . S
C999 C1000 1.392 . S
C1000 H972 0.929 . S
C1000 C997 1.391 . S
C1000 C999 1.392 . S
N1001 Co945 2.257 . S
N1001 C998 1.391 . S
N1001 C1002 1.388 . S
C1002 H973 0.930 . S
C1002 C997 1.391 . S
C1002 N1001 1.388 . S
Co1003 O1005 2.143 . S
Co1003 O1011 2.074 . S
Co1003 O1014 2.093 . S
Co1003 O1027 2.097 . S
Co1003 N1044 2.151 . S
Co1003 N1052 2.214 . S
Co1004 O1005 2.160 . S
Co1004 O1010 2.058 . S
Co1004 O1020 2.057 . S
Co1004 O1035 2.037 . S
Co1004 N1039 2.145 . S
Co1004 N1060 2.257 . S
O1005 Co1003 2.143 . S
O1005 Co1004 2.160 . S
C1006 O1007 1.278 . S
C1006 O1014 1.224 . S
O1007 C1006 1.278 . S
C1008 O1009 1.245 . S
C1008 O1020 1.232 . S
O1009 C1008 1.245 . S
O1010 Co1004 2.058 . S
O1010 C1036 1.269 . S
O1011 Co1003 2.074 . S
O1011 C1036 1.257 . S
H1012 C1037 0.930 . S
H1013 C1043 0.930 . S
O1014 Co1003 2.093 . S
O1014 C1006 1.224 . S
H1015 C1047 0.929 . S
H1016 C1049 0.930 . S
H1017 C1050 0.930 . S
H1018 C1048 0.929 . S
H1019 C1051 0.928 . S
O1020 Co1004 2.057 . S
O1020 C1008 1.232 . S
H1021 C1040 0.929 . S
H1022 C1041 0.929 . S
H1023 C1053 0.931 . S
H1024 C1045 0.929 . S
H1025 C1054 0.930 . S
H1026 C1046 0.931 . S
O1027 Co1003 2.097 . S
O1027 C1055 1.214 . S
H1028 C1056 0.929 . S
H1029 C1057 0.929 . S
H1030 C1058 0.930 . S
H1031 C1059 0.929 . S
H1032 C1061 0.930 . S
H1033 C1038 0.930 . S
H1034 C1042 0.930 . S
O1035 Co1004 2.037 . S
O1035 C1055 1.234 . S
C1036 O1010 1.269 . S
C1036 O1011 1.257 . S
C1037 H1012 0.930 . S
C1037 C1040 1.388 . S
C1037 C1042 1.418 . S
C1038 H1033 0.930 . S
C1038 C1041 1.404 . S
C1038 C1042 1.353 . S
N1039 Co1004 2.145 . S
N1039 C1040 1.397 . S
N1039 C1041 1.334 . S
C1040 H1021 0.929 . S
C1040 C1037 1.388 . S
C1040 N1039 1.397 . S
C1041 H1022 0.929 . S
C1041 C1038 1.404 . S
C1041 N1039 1.334 . S
C1042 H1034 0.930 . S
C1042 C1037 1.418 . S
C1042 C1038 1.353 . S
C1043 H1013 0.930 . S
C1043 N1044 1.330 . S
C1043 C1045 1.446 . S
N1044 Co1003 2.151 . S
N1044 C1043 1.330 . S
N1044 C1048 1.418 . S
C1045 H1024 0.929 . S
C1045 C1043 1.446 . S
C1045 C1046 1.332 . S
C1046 H1026 0.931 . S
C1046 C1045 1.332 . S
C1046 C1047 1.267 . S
C1047 H1015 0.929 . S
C1047 C1046 1.267 . S
C1047 C1048 1.251 . S
C1048 H1018 0.929 . S
C1048 N1044 1.418 . S
C1048 C1047 1.251 . S
C1049 H1016 0.930 . S
C1049 C1051 1.406 . S
C1049 C1054 1.261 . S
C1050 H1017 0.930 . S
C1050 N1052 1.325 . S
C1050 C1053 1.357 . S
C1051 H1019 0.928 . S
C1051 C1049 1.406 . S
C1051 N1052 1.261 . S
N1052 Co1003 2.214 . S
N1052 C1050 1.325 . S
N1052 C1051 1.261 . S
C1053 H1023 0.931 . S
C1053 C1050 1.357 . S
C1053 C1054 1.312 . S
C1054 H1025 0.930 . S
C1054 C1049 1.261 . S
C1054 C1053 1.312 . S
C1055 O1027 1.214 . S
C1055 O1035 1.234 . S
C1056 H1028 0.929 . S
C1056 C1059 1.391 . S
C1056 C1061 1.391 . S
C1057 H1029 0.929 . S
C1057 C1058 1.390 . S
C1057 N1060 1.391 . S
C1058 H1030 0.930 . S
C1058 C1057 1.390 . S
C1058 C1059 1.392 . S
C1059 H1031 0.929 . S
C1059 C1056 1.391 . S
C1059 C1058 1.392 . S
N1060 Co1004 2.257 . S
N1060 C1057 1.391 . S
N1060 C1061 1.388 . S
C1061 H1032 0.930 . S
C1061 C1056 1.391 . S
C1061 N1060 1.388 . S
Co1062 O1064 2.143 . S
Co1062 O1070 2.074 . S
Co1062 O1073 2.093 . S
Co1062 O1086 2.097 . S
Co1062 N1103 2.151 . S
Co1062 N1111 2.214 . S
Co1063 O1064 2.160 . S
Co1063 O1069 2.058 . S
Co1063 O1079 2.057 . S
Co1063 O1094 2.037 . S
Co1063 N1098 2.145 . S
Co1063 N1119 2.257 . S
O1064 Co1062 2.143 . S
O1064 Co1063 2.160 . S
C1065 O1066 1.278 . S
C1065 O1073 1.224 . S
O1066 C1065 1.278 . S
C1067 O1068 1.245 . S
C1067 O1079 1.232 . S
O1068 C1067 1.245 . S
O1069 Co1063 2.058 . S
O1069 C1095 1.269 . S
O1070 Co1062 2.074 . S
O1070 C1095 1.257 . S
H1071 C1096 0.930 . S
H1072 C1102 0.930 . S
O1073 Co1062 2.093 . S
O1073 C1065 1.224 . S
H1074 C1106 0.929 . S
H1075 C1108 0.930 . S
H1076 C1109 0.930 . S
H1077 C1107 0.929 . S
H1078 C1110 0.928 . S
O1079 Co1063 2.057 . S
O1079 C1067 1.232 . S
H1080 C1099 0.929 . S
H1081 C1100 0.929 . S
H1082 C1112 0.931 . S
H1083 C1104 0.929 . S
H1084 C1113 0.930 . S
H1085 C1105 0.931 . S
O1086 Co1062 2.097 . S
O1086 C1114 1.214 . S
H1087 C1115 0.929 . S
H1088 C1116 0.929 . S
H1089 C1117 0.930 . S
H1090 C1118 0.929 . S
H1091 C1120 0.930 . S
H1092 C1097 0.930 . S
H1093 C1101 0.930 . S
O1094 Co1063 2.037 . S
O1094 C1114 1.234 . S
C1095 O1069 1.269 . S
C1095 O1070 1.257 . S
C1096 H1071 0.930 . S
C1096 C1099 1.388 . S
C1096 C1101 1.418 . S
C1097 H1092 0.930 . S
C1097 C1100 1.404 . S
C1097 C1101 1.353 . S
N1098 Co1063 2.145 . S
N1098 C1099 1.397 . S
N1098 C1100 1.334 . S
C1099 H1080 0.929 . S
C1099 C1096 1.388 . S
C1099 N1098 1.397 . S
C1100 H1081 0.929 . S
C1100 C1097 1.404 . S
C1100 N1098 1.334 . S
C1101 H1093 0.930 . S
C1101 C1096 1.418 . S
C1101 C1097 1.353 . S
C1102 H1072 0.930 . S
C1102 N1103 1.330 . S
C1102 C1104 1.446 . S
N1103 Co1062 2.151 . S
N1103 C1102 1.330 . S
N1103 C1107 1.418 . S
C1104 H1083 0.929 . S
C1104 C1102 1.446 . S
C1104 C1105 1.332 . S
C1105 H1085 0.931 . S
C1105 C1104 1.332 . S
C1105 C1106 1.267 . S
C1106 H1074 0.929 . S
C1106 C1105 1.267 . S
C1106 C1107 1.251 . S
C1107 H1077 0.929 . S
C1107 N1103 1.418 . S
C1107 C1106 1.251 . S
C1108 H1075 0.930 . S
C1108 C1110 1.406 . S
C1108 C1113 1.261 . S
C1109 H1076 0.930 . S
C1109 N1111 1.325 . S
C1109 C1112 1.357 . S
C1110 H1078 0.928 . S
C1110 C1108 1.406 . S
C1110 N1111 1.261 . S
N1111 Co1062 2.214 . S
N1111 C1109 1.325 . S
N1111 C1110 1.261 . S
C1112 H1082 0.931 . S
C1112 C1109 1.357 . S
C1112 C1113 1.312 . S
C1113 H1084 0.930 . S
C1113 C1108 1.261 . S
C1113 C1112 1.312 . S
C1114 O1086 1.214 . S
C1114 O1094 1.234 . S
C1115 H1087 0.929 . S
C1115 C1118 1.391 . S
C1115 C1120 1.391 . S
C1116 H1088 0.929 . S
C1116 C1117 1.390 . S
C1116 N1119 1.391 . S
C1117 H1089 0.930 . S
C1117 C1116 1.390 . S
C1117 C1118 1.392 . S
C1118 H1090 0.929 . S
C1118 C1115 1.391 . S
C1118 C1117 1.392 . S
N1119 Co1063 2.257 . S
N1119 C1116 1.391 . S
N1119 C1120 1.388 . S
C1120 H1091 0.930 . S
C1120 C1115 1.391 . S
C1120 N1119 1.388 . S
Co1121 O1123 2.143 . S
Co1121 O1129 2.074 . S
Co1121 O1132 2.093 . S
Co1121 O1145 2.097 . S
Co1121 N1162 2.151 . S
Co1121 N1170 2.214 . S
Co1122 O1123 2.160 . S
Co1122 O1128 2.058 . S
Co1122 O1138 2.057 . S
Co1122 O1153 2.037 . S
Co1122 N1157 2.145 . S
Co1122 N1178 2.257 . S
O1123 Co1121 2.143 . S
O1123 Co1122 2.160 . S
C1124 O1125 1.278 . S
C1124 O1132 1.224 . S
O1125 C1124 1.278 . S
C1126 O1127 1.245 . S
C1126 O1138 1.232 . S
O1127 C1126 1.245 . S
O1128 Co1122 2.058 . S
O1128 C1154 1.269 . S
O1129 Co1121 2.074 . S
O1129 C1154 1.257 . S
H1130 C1155 0.930 . S
H1131 C1161 0.930 . S
O1132 Co1121 2.093 . S
O1132 C1124 1.224 . S
H1133 C1165 0.929 . S
H1134 C1167 0.930 . S
H1135 C1168 0.930 . S
H1136 C1166 0.929 . S
H1137 C1169 0.928 . S
O1138 Co1122 2.057 . S
O1138 C1126 1.232 . S
H1139 C1158 0.929 . S
H1140 C1159 0.929 . S
H1141 C1171 0.931 . S
H1142 C1163 0.929 . S
H1143 C1172 0.930 . S
H1144 C1164 0.931 . S
O1145 Co1121 2.097 . S
O1145 C1173 1.214 . S
H1146 C1174 0.929 . S
H1147 C1175 0.929 . S
H1148 C1176 0.930 . S
H1149 C1177 0.929 . S
H1150 C1179 0.930 . S
H1151 C1156 0.930 . S
H1152 C1160 0.930 . S
O1153 Co1122 2.037 . S
O1153 C1173 1.234 . S
C1154 O1128 1.269 . S
C1154 O1129 1.257 . S
C1155 H1130 0.930 . S
C1155 C1158 1.388 . S
C1155 C1160 1.418 . S
C1156 H1151 0.930 . S
C1156 C1159 1.404 . S
C1156 C1160 1.353 . S
N1157 Co1122 2.145 . S
N1157 C1158 1.397 . S
N1157 C1159 1.334 . S
C1158 H1139 0.929 . S
C1158 C1155 1.388 . S
C1158 N1157 1.397 . S
C1159 H1140 0.929 . S
C1159 C1156 1.404 . S
C1159 N1157 1.334 . S
C1160 H1152 0.930 . S
C1160 C1155 1.418 . S
C1160 C1156 1.353 . S
C1161 H1131 0.930 . S
C1161 N1162 1.330 . S
C1161 C1163 1.446 . S
N1162 Co1121 2.151 . S
N1162 C1161 1.330 . S
N1162 C1166 1.418 . S
C1163 H1142 0.929 . S
C1163 C1161 1.446 . S
C1163 C1164 1.332 . S
C1164 H1144 0.931 . S
C1164 C1163 1.332 . S
C1164 C1165 1.267 . S
C1165 H1133 0.929 . S
C1165 C1164 1.267 . S
C1165 C1166 1.251 . S
C1166 H1136 0.929 . S
C1166 N1162 1.418 . S
C1166 C1165 1.251 . S
C1167 H1134 0.930 . S
C1167 C1169 1.406 . S
C1167 C1172 1.261 . S
C1168 H1135 0.930 . S
C1168 N1170 1.325 . S
C1168 C1171 1.357 . S
C1169 H1137 0.928 . S
C1169 C1167 1.406 . S
C1169 N1170 1.261 . S
N1170 Co1121 2.214 . S
N1170 C1168 1.325 . S
N1170 C1169 1.261 . S
C1171 H1141 0.931 . S
C1171 C1168 1.357 . S
C1171 C1172 1.312 . S
C1172 H1143 0.930 . S
C1172 C1167 1.261 . S
C1172 C1171 1.312 . S
C1173 O1145 1.214 . S
C1173 O1153 1.234 . S
C1174 H1146 0.929 . S
C1174 C1177 1.391 . S
C1174 C1179 1.391 . S
C1175 H1147 0.929 . S
C1175 C1176 1.390 . S
C1175 N1178 1.391 . S
C1176 H1148 0.930 . S
C1176 C1175 1.390 . S
C1176 C1177 1.392 . S
C1177 H1149 0.929 . S
C1177 C1174 1.391 . S
C1177 C1176 1.392 . S
N1178 Co1122 2.257 . S
N1178 C1175 1.391 . S
N1178 C1179 1.388 . S
C1179 H1150 0.930 . S
C1179 C1174 1.391 . S
C1179 N1178 1.388 . S
Co1180 O1182 2.143 . S
Co1180 O1188 2.074 . S
Co1180 O1191 2.093 . S
Co1180 O1204 2.097 . S
Co1180 N1221 2.151 . S
Co1180 N1229 2.214 . S
Co1181 O1182 2.160 . S
Co1181 O1187 2.058 . S
Co1181 O1197 2.057 . S
Co1181 O1212 2.037 . S
Co1181 N1216 2.145 . S
Co1181 N1237 2.257 . S
O1182 Co1180 2.143 . S
O1182 Co1181 2.160 . S
C1183 O1184 1.278 . S
C1183 O1191 1.224 . S
O1184 C1183 1.278 . S
C1185 O1186 1.245 . S
C1185 O1197 1.232 . S
O1186 C1185 1.245 . S
O1187 Co1181 2.058 . S
O1187 C1213 1.269 . S
O1188 Co1180 2.074 . S
O1188 C1213 1.257 . S
H1189 C1214 0.930 . S
H1190 C1220 0.930 . S
O1191 Co1180 2.093 . S
O1191 C1183 1.224 . S
H1192 C1224 0.929 . S
H1193 C1226 0.930 . S
H1194 C1227 0.930 . S
H1195 C1225 0.929 . S
H1196 C1228 0.928 . S
O1197 Co1181 2.057 . S
O1197 C1185 1.232 . S
H1198 C1217 0.929 . S
H1199 C1218 0.929 . S
H1200 C1230 0.931 . S
H1201 C1222 0.929 . S
H1202 C1231 0.930 . S
H1203 C1223 0.931 . S
O1204 Co1180 2.097 . S
O1204 C1232 1.214 . S
H1205 C1233 0.929 . S
H1206 C1234 0.929 . S
H1207 C1235 0.930 . S
H1208 C1236 0.929 . S
H1209 C1238 0.930 . S
H1210 C1215 0.930 . S
H1211 C1219 0.930 . S
O1212 Co1181 2.037 . S
O1212 C1232 1.234 . S
C1213 O1187 1.269 . S
C1213 O1188 1.257 . S
C1214 H1189 0.930 . S
C1214 C1217 1.388 . S
C1214 C1219 1.418 . S
C1215 H1210 0.930 . S
C1215 C1218 1.404 . S
C1215 C1219 1.353 . S
N1216 Co1181 2.145 . S
N1216 C1217 1.397 . S
N1216 C1218 1.334 . S
C1217 H1198 0.929 . S
C1217 C1214 1.388 . S
C1217 N1216 1.397 . S
C1218 H1199 0.929 . S
C1218 C1215 1.404 . S
C1218 N1216 1.334 . S
C1219 H1211 0.930 . S
C1219 C1214 1.418 . S
C1219 C1215 1.353 . S
C1220 H1190 0.930 . S
C1220 N1221 1.330 . S
C1220 C1222 1.446 . S
N1221 Co1180 2.151 . S
N1221 C1220 1.330 . S
N1221 C1225 1.418 . S
C1222 H1201 0.929 . S
C1222 C1220 1.446 . S
C1222 C1223 1.332 . S
C1223 H1203 0.931 . S
C1223 C1222 1.332 . S
C1223 C1224 1.267 . S
C1224 H1192 0.929 . S
C1224 C1223 1.267 . S
C1224 C1225 1.251 . S
C1225 H1195 0.929 . S
C1225 N1221 1.418 . S
C1225 C1224 1.251 . S
C1226 H1193 0.930 . S
C1226 C1228 1.406 . S
C1226 C1231 1.261 . S
C1227 H1194 0.930 . S
C1227 N1229 1.325 . S
C1227 C1230 1.357 . S
C1228 H1196 0.928 . S
C1228 C1226 1.406 . S
C1228 N1229 1.261 . S
N1229 Co1180 2.214 . S
N1229 C1227 1.325 . S
N1229 C1228 1.261 . S
C1230 H1200 0.931 . S
C1230 C1227 1.357 . S
C1230 C1231 1.312 . S
C1231 H1202 0.930 . S
C1231 C1226 1.261 . S
C1231 C1230 1.312 . S
C1232 O1204 1.214 . S
C1232 O1212 1.234 . S
C1233 H1205 0.929 . S
C1233 C1236 1.391 . S
C1233 C1238 1.391 . S
C1234 H1206 0.929 . S
C1234 C1235 1.390 . S
C1234 N1237 1.391 . S
C1235 H1207 0.930 . S
C1235 C1234 1.390 . S
C1235 C1236 1.392 . S
C1236 H1208 0.929 . S
C1236 C1233 1.391 . S
C1236 C1235 1.392 . S
N1237 Co1181 2.257 . S
N1237 C1234 1.391 . S
N1237 C1238 1.388 . S
C1238 H1209 0.930 . S
C1238 C1233 1.391 . S
C1238 N1237 1.388 . S
Co1239 O1241 2.143 . S
Co1239 O1247 2.074 . S
Co1239 O1250 2.093 . S
Co1239 O1263 2.097 . S
Co1239 N1280 2.151 . S
Co1239 N1288 2.214 . S
Co1240 O1241 2.160 . S
Co1240 O1246 2.058 . S
Co1240 O1256 2.057 . S
Co1240 O1271 2.037 . S
Co1240 N1275 2.145 . S
Co1240 N1296 2.257 . S
O1241 Co1239 2.143 . S
O1241 Co1240 2.160 . S
C1242 O1243 1.278 . S
C1242 O1250 1.224 . S
O1243 C1242 1.278 . S
C1244 O1245 1.245 . S
C1244 O1256 1.232 . S
O1245 C1244 1.245 . S
O1246 Co1240 2.058 . S
O1246 C1272 1.269 . S
O1247 Co1239 2.074 . S
O1247 C1272 1.257 . S
H1248 C1273 0.930 . S
H1249 C1279 0.930 . S
O1250 Co1239 2.093 . S
O1250 C1242 1.224 . S
H1251 C1283 0.929 . S
H1252 C1285 0.930 . S
H1253 C1286 0.930 . S
H1254 C1284 0.929 . S
H1255 C1287 0.928 . S
O1256 Co1240 2.057 . S
O1256 C1244 1.232 . S
H1257 C1276 0.929 . S
H1258 C1277 0.929 . S
H1259 C1289 0.931 . S
H1260 C1281 0.929 . S
H1261 C1290 0.930 . S
H1262 C1282 0.931 . S
O1263 Co1239 2.097 . S
O1263 C1291 1.214 . S
H1264 C1292 0.929 . S
H1265 C1293 0.929 . S
H1266 C1294 0.930 . S
H1267 C1295 0.929 . S
H1268 C1297 0.930 . S
H1269 C1274 0.930 . S
H1270 C1278 0.930 . S
O1271 Co1240 2.037 . S
O1271 C1291 1.234 . S
C1272 O1246 1.269 . S
C1272 O1247 1.257 . S
C1273 H1248 0.930 . S
C1273 C1276 1.388 . S
C1273 C1278 1.418 . S
C1274 H1269 0.930 . S
C1274 C1277 1.404 . S
C1274 C1278 1.353 . S
N1275 Co1240 2.145 . S
N1275 C1276 1.397 . S
N1275 C1277 1.334 . S
C1276 H1257 0.929 . S
C1276 C1273 1.388 . S
C1276 N1275 1.397 . S
C1277 H1258 0.929 . S
C1277 C1274 1.404 . S
C1277 N1275 1.334 . S
C1278 H1270 0.930 . S
C1278 C1273 1.418 . S
C1278 C1274 1.353 . S
C1279 H1249 0.930 . S
C1279 N1280 1.330 . S
C1279 C1281 1.446 . S
N1280 Co1239 2.151 . S
N1280 C1279 1.330 . S
N1280 C1284 1.418 . S
C1281 H1260 0.929 . S
C1281 C1279 1.446 . S
C1281 C1282 1.332 . S
C1282 H1262 0.931 . S
C1282 C1281 1.332 . S
C1282 C1283 1.267 . S
C1283 H1251 0.929 . S
C1283 C1282 1.267 . S
C1283 C1284 1.251 . S
C1284 H1254 0.929 . S
C1284 N1280 1.418 . S
C1284 C1283 1.251 . S
C1285 H1252 0.930 . S
C1285 C1287 1.406 . S
C1285 C1290 1.261 . S
C1286 H1253 0.930 . S
C1286 N1288 1.325 . S
C1286 C1289 1.357 . S
C1287 H1255 0.928 . S
C1287 C1285 1.406 . S
C1287 N1288 1.261 . S
N1288 Co1239 2.214 . S
N1288 C1286 1.325 . S
N1288 C1287 1.261 . S
C1289 H1259 0.931 . S
C1289 C1286 1.357 . S
C1289 C1290 1.312 . S
C1290 H1261 0.930 . S
C1290 C1285 1.261 . S
C1290 C1289 1.312 . S
C1291 O1263 1.214 . S
C1291 O1271 1.234 . S
C1292 H1264 0.929 . S
C1292 C1295 1.391 . S
C1292 C1297 1.391 . S
C1293 H1265 0.929 . S
C1293 C1294 1.390 . S
C1293 N1296 1.391 . S
C1294 H1266 0.930 . S
C1294 C1293 1.390 . S
C1294 C1295 1.392 . S
C1295 H1267 0.929 . S
C1295 C1292 1.391 . S
C1295 C1294 1.392 . S
N1296 Co1240 2.257 . S
N1296 C1293 1.391 . S
N1296 C1297 1.388 . S
C1297 H1268 0.930 . S
C1297 C1292 1.391 . S
C1297 N1296 1.388 . S
Co1298 O1300 2.143 . S
Co1298 O1306 2.074 . S
Co1298 O1309 2.093 . S
Co1298 O1322 2.097 . S
Co1298 N1339 2.151 . S
Co1298 N1347 2.214 . S
Co1299 O1300 2.160 . S
Co1299 O1305 2.058 . S
Co1299 O1315 2.057 . S
Co1299 O1330 2.037 . S
Co1299 N1334 2.145 . S
Co1299 N1355 2.257 . S
O1300 Co1298 2.143 . S
O1300 Co1299 2.160 . S
C1301 O1302 1.278 . S
C1301 O1309 1.224 . S
O1302 C1301 1.278 . S
C1303 O1304 1.245 . S
C1303 O1315 1.232 . S
O1304 C1303 1.245 . S
O1305 Co1299 2.058 . S
O1305 C1331 1.269 . S
O1306 Co1298 2.074 . S
O1306 C1331 1.257 . S
H1307 C1332 0.930 . S
H1308 C1338 0.930 . S
O1309 Co1298 2.093 . S
O1309 C1301 1.224 . S
H1310 C1342 0.929 . S
H1311 C1344 0.930 . S
H1312 C1345 0.930 . S
H1313 C1343 0.929 . S
H1314 C1346 0.928 . S
O1315 Co1299 2.057 . S
O1315 C1303 1.232 . S
H1316 C1335 0.929 . S
H1317 C1336 0.929 . S
H1318 C1348 0.931 . S
H1319 C1340 0.929 . S
H1320 C1349 0.930 . S
H1321 C1341 0.931 . S
O1322 Co1298 2.097 . S
O1322 C1350 1.214 . S
H1323 C1351 0.929 . S
H1324 C1352 0.929 . S
H1325 C1353 0.930 . S
H1326 C1354 0.929 . S
H1327 C1356 0.930 . S
H1328 C1333 0.930 . S
H1329 C1337 0.930 . S
O1330 Co1299 2.037 . S
O1330 C1350 1.234 . S
C1331 O1305 1.269 . S
C1331 O1306 1.257 . S
C1332 H1307 0.930 . S
C1332 C1335 1.388 . S
C1332 C1337 1.418 . S
C1333 H1328 0.930 . S
C1333 C1336 1.404 . S
C1333 C1337 1.353 . S
N1334 Co1299 2.145 . S
N1334 C1335 1.397 . S
N1334 C1336 1.334 . S
C1335 H1316 0.929 . S
C1335 C1332 1.388 . S
C1335 N1334 1.397 . S
C1336 H1317 0.929 . S
C1336 C1333 1.404 . S
C1336 N1334 1.334 . S
C1337 H1329 0.930 . S
C1337 C1332 1.418 . S
C1337 C1333 1.353 . S
C1338 H1308 0.930 . S
C1338 N1339 1.330 . S
C1338 C1340 1.446 . S
N1339 Co1298 2.151 . S
N1339 C1338 1.330 . S
N1339 C1343 1.418 . S
C1340 H1319 0.929 . S
C1340 C1338 1.446 . S
C1340 C1341 1.332 . S
C1341 H1321 0.931 . S
C1341 C1340 1.332 . S
C1341 C1342 1.267 . S
C1342 H1310 0.929 . S
C1342 C1341 1.267 . S
C1342 C1343 1.251 . S
C1343 H1313 0.929 . S
C1343 N1339 1.418 . S
C1343 C1342 1.251 . S
C1344 H1311 0.930 . S
C1344 C1346 1.406 . S
C1344 C1349 1.261 . S
C1345 H1312 0.930 . S
C1345 N1347 1.325 . S
C1345 C1348 1.357 . S
C1346 H1314 0.928 . S
C1346 C1344 1.406 . S
C1346 N1347 1.261 . S
N1347 Co1298 2.214 . S
N1347 C1345 1.325 . S
N1347 C1346 1.261 . S
C1348 H1318 0.931 . S
C1348 C1345 1.357 . S
C1348 C1349 1.312 . S
C1349 H1320 0.930 . S
C1349 C1344 1.261 . S
C1349 C1348 1.312 . S
C1350 O1322 1.214 . S
C1350 O1330 1.234 . S
C1351 H1323 0.929 . S
C1351 C1354 1.391 . S
C1351 C1356 1.391 . S
C1352 H1324 0.929 . S
C1352 C1353 1.390 . S
C1352 N1355 1.391 . S
C1353 H1325 0.930 . S
C1353 C1352 1.390 . S
C1353 C1354 1.392 . S
C1354 H1326 0.929 . S
C1354 C1351 1.391 . S
C1354 C1353 1.392 . S
N1355 Co1299 2.257 . S
N1355 C1352 1.391 . S
N1355 C1356 1.388 . S
C1356 H1327 0.930 . S
C1356 C1351 1.391 . S
C1356 N1355 1.388 . S
Co1357 O1359 2.143 . S
Co1357 O1365 2.074 . S
Co1357 O1368 2.093 . S
Co1357 O1381 2.097 . S
Co1357 N1398 2.151 . S
Co1357 N1406 2.214 . S
Co1358 O1359 2.160 . S
Co1358 O1364 2.058 . S
Co1358 O1374 2.057 . S
Co1358 O1389 2.037 . S
Co1358 N1393 2.145 . S
Co1358 N1414 2.257 . S
O1359 Co1357 2.143 . S
O1359 Co1358 2.160 . S
C1360 O1361 1.278 . S
C1360 O1368 1.224 . S
O1361 C1360 1.278 . S
C1362 O1363 1.245 . S
C1362 O1374 1.232 . S
O1363 C1362 1.245 . S
O1364 Co1358 2.058 . S
O1364 C1390 1.269 . S
O1365 Co1357 2.074 . S
O1365 C1390 1.257 . S
H1366 C1391 0.930 . S
H1367 C1397 0.930 . S
O1368 Co1357 2.093 . S
O1368 C1360 1.224 . S
H1369 C1401 0.929 . S
H1370 C1403 0.930 . S
H1371 C1404 0.930 . S
H1372 C1402 0.929 . S
H1373 C1405 0.928 . S
O1374 Co1358 2.057 . S
O1374 C1362 1.232 . S
H1375 C1394 0.929 . S
H1376 C1395 0.929 . S
H1377 C1407 0.931 . S
H1378 C1399 0.929 . S
H1379 C1408 0.930 . S
H1380 C1400 0.931 . S
O1381 Co1357 2.097 . S
O1381 C1409 1.214 . S
H1382 C1410 0.929 . S
H1383 C1411 0.929 . S
H1384 C1412 0.930 . S
H1385 C1413 0.929 . S
H1386 C1415 0.930 . S
H1387 C1392 0.930 . S
H1388 C1396 0.930 . S
O1389 Co1358 2.037 . S
O1389 C1409 1.234 . S
C1390 O1364 1.269 . S
C1390 O1365 1.257 . S
C1391 H1366 0.930 . S
C1391 C1394 1.388 . S
C1391 C1396 1.418 . S
C1392 H1387 0.930 . S
C1392 C1395 1.404 . S
C1392 C1396 1.353 . S
N1393 Co1358 2.145 . S
N1393 C1394 1.397 . S
N1393 C1395 1.334 . S
C1394 H1375 0.929 . S
C1394 C1391 1.388 . S
C1394 N1393 1.397 . S
C1395 H1376 0.929 . S
C1395 C1392 1.404 . S
C1395 N1393 1.334 . S
C1396 H1388 0.930 . S
C1396 C1391 1.418 . S
C1396 C1392 1.353 . S
C1397 H1367 0.930 . S
C1397 N1398 1.330 . S
C1397 C1399 1.446 . S
N1398 Co1357 2.151 . S
N1398 C1397 1.330 . S
N1398 C1402 1.418 . S
C1399 H1378 0.929 . S
C1399 C1397 1.446 . S
C1399 C1400 1.332 . S
C1400 H1380 0.931 . S
C1400 C1399 1.332 . S
C1400 C1401 1.267 . S
C1401 H1369 0.929 . S
C1401 C1400 1.267 . S
C1401 C1402 1.251 . S
C1402 H1372 0.929 . S
C1402 N1398 1.418 . S
C1402 C1401 1.251 . S
C1403 H1370 0.930 . S
C1403 C1405 1.406 . S
C1403 C1408 1.261 . S
C1404 H1371 0.930 . S
C1404 N1406 1.325 . S
C1404 C1407 1.357 . S
C1405 H1373 0.928 . S
C1405 C1403 1.406 . S
C1405 N1406 1.261 . S
N1406 Co1357 2.214 . S
N1406 C1404 1.325 . S
N1406 C1405 1.261 . S
C1407 H1377 0.931 . S
C1407 C1404 1.357 . S
C1407 C1408 1.312 . S
C1408 H1379 0.930 . S
C1408 C1403 1.261 . S
C1408 C1407 1.312 . S
C1409 O1381 1.214 . S
C1409 O1389 1.234 . S
C1410 H1382 0.929 . S
C1410 C1413 1.391 . S
C1410 C1415 1.391 . S
C1411 H1383 0.929 . S
C1411 C1412 1.390 . S
C1411 N1414 1.391 . S
C1412 H1384 0.930 . S
C1412 C1411 1.390 . S
C1412 C1413 1.392 . S
C1413 H1385 0.929 . S
C1413 C1410 1.391 . S
C1413 C1412 1.392 . S
N1414 Co1358 2.257 . S
N1414 C1411 1.391 . S
N1414 C1415 1.388 . S
C1415 H1386 0.930 . S
C1415 C1410 1.391 . S
C1415 N1414 1.388 . S
H1416 C1424 0.950 . S
H1417 C1429 0.950 . S
H1418 C1426 0.950 . S
H1419 C1428 0.950 . S
H1420 C1430 0.950 . S
H1421 C1432 0.950 . S
H1422 C1434 0.950 . S
H1423 C1435 0.950 . S
C1424 H1416 0.950 . S
C1424 C1425 1.386 . S
C1424 C1426 1.391 . S
C1425 C1424 1.386 . S
C1425 C1429 1.393 . S
C1426 H1418 0.950 . S
C1426 C1424 1.391 . S
C1426 C1427 1.400 . S
C1427 C1426 1.400 . S
C1427 C1428 1.398 . S
C1427 C1433 1.491 . S
C1428 H1419 0.950 . S
C1428 C1427 1.398 . S
C1428 C1429 1.391 . S
C1429 H1417 0.950 . S
C1429 C1425 1.393 . S
C1429 C1428 1.391 . S
C1430 H1420 0.950 . S
C1430 C1431 1.386 . S
C1430 C1432 1.391 . S
C1431 C1430 1.386 . S
C1431 C1435 1.393 . S
C1432 H1421 0.950 . S
C1432 C1430 1.391 . S
C1432 C1433 1.400 . S
C1433 C1427 1.491 . S
C1433 C1432 1.400 . S
C1433 C1434 1.398 . S
C1434 H1422 0.950 . S
C1434 C1433 1.398 . S
C1434 C1435 1.391 . S
C1435 H1423 0.950 . S
C1435 C1431 1.393 . S
C1435 C1434 1.391 . S
H1436 C1444 0.950 . S
H1437 C1449 0.950 . S
H1438 C1446 0.950 . S
H1439 C1448 0.950 . S
H1440 C1450 0.950 . S
H1441 C1452 0.950 . S
H1442 C1454 0.950 . S
H1443 C1455 0.950 . S
C1444 H1436 0.950 . S
C1444 C1445 1.386 . S
C1444 C1446 1.391 . S
C1445 C1444 1.386 . S
C1445 C1449 1.393 . S
C1446 H1438 0.950 . S
C1446 C1444 1.391 . S
C1446 C1447 1.400 . S
C1447 C1446 1.400 . S
C1447 C1448 1.398 . S
C1447 C1453 1.491 . S
C1448 H1439 0.950 . S
C1448 C1447 1.398 . S
C1448 C1449 1.391 . S
C1449 H1437 0.950 . S
C1449 C1445 1.393 . S
C1449 C1448 1.391 . S
C1450 H1440 0.950 . S
C1450 C1451 1.386 . S
C1450 C1452 1.391 . S
C1451 C1450 1.386 . S
C1451 C1455 1.393 . S
C1452 H1441 0.950 . S
C1452 C1450 1.391 . S
C1452 C1453 1.400 . S
C1453 C1447 1.491 . S
C1453 C1452 1.400 . S
C1453 C1454 1.398 . S
C1454 H1442 0.950 . S
C1454 C1453 1.398 . S
C1454 C1455 1.391 . S
C1455 H1443 0.950 . S
C1455 C1451 1.393 . S
C1455 C1454 1.391 . S
H1456 C1464 0.950 . S
H1457 C1469 0.950 . S
H1458 C1466 0.950 . S
H1459 C1468 0.950 . S
H1460 C1470 0.950 . S
H1461 C1472 0.950 . S
H1462 C1474 0.950 . S
H1463 C1475 0.950 . S
C1464 H1456 0.950 . S
C1464 C1465 1.386 . S
C1464 C1466 1.391 . S
C1465 C1464 1.386 . S
C1465 C1469 1.393 . S
C1466 H1458 0.950 . S
C1466 C1464 1.391 . S
C1466 C1467 1.400 . S
C1467 C1466 1.400 . S
C1467 C1468 1.398 . S
C1467 C1473 1.491 . S
C1468 H1459 0.950 . S
C1468 C1467 1.398 . S
C1468 C1469 1.391 . S
C1469 H1457 0.950 . S
C1469 C1465 1.393 . S
C1469 C1468 1.391 . S
C1470 H1460 0.950 . S
C1470 C1471 1.386 . S
C1470 C1472 1.391 . S
C1471 C1470 1.386 . S
C1471 C1475 1.393 . S
C1472 H1461 0.950 . S
C1472 C1470 1.391 . S
C1472 C1473 1.400 . S
C1473 C1467 1.491 . S
C1473 C1472 1.400 . S
C1473 C1474 1.398 . S
C1474 H1462 0.950 . S
C1474 C1473 1.398 . S
C1474 C1475 1.391 . S
C1475 H1463 0.950 . S
C1475 C1471 1.393 . S
C1475 C1474 1.391 . S
H1476 C1484 0.950 . S
H1477 C1489 0.950 . S
H1478 C1486 0.950 . S
H1479 C1488 0.950 . S
H1480 C1490 0.950 . S
H1481 C1492 0.950 . S
H1482 C1494 0.950 . S
H1483 C1495 0.950 . S
C1484 H1476 0.950 . S
C1484 C1485 1.386 . S
C1484 C1486 1.391 . S
C1485 C1484 1.386 . S
C1485 C1489 1.393 . S
C1486 H1478 0.950 . S
C1486 C1484 1.391 . S
C1486 C1487 1.400 . S
C1487 C1486 1.400 . S
C1487 C1488 1.398 . S
C1487 C1493 1.491 . S
C1488 H1479 0.950 . S
C1488 C1487 1.398 . S
C1488 C1489 1.391 . S
C1489 H1477 0.950 . S
C1489 C1485 1.393 . S
C1489 C1488 1.391 . S
C1490 H1480 0.950 . S
C1490 C1491 1.386 . S
C1490 C1492 1.391 . S
C1491 C1490 1.386 . S
C1491 C1495 1.393 . S
C1492 H1481 0.950 . S
C1492 C1490 1.391 . S
C1492 C1493 1.400 . S
C1493 C1487 1.491 . S
C1493 C1492 1.400 . S
C1493 C1494 1.398 . S
C1494 H1482 0.950 . S
C1494 C1493 1.398 . S
C1494 C1495 1.391 . S
C1495 H1483 0.950 . S
C1495 C1491 1.393 . S
C1495 C1494 1.391 . S
H1496 C1504 0.950 . S
H1497 C1509 0.950 . S
H1498 C1506 0.950 . S
H1499 C1508 0.950 . S
H1500 C1510 0.950 . S
H1501 C1512 0.950 . S
H1502 C1514 0.950 . S
H1503 C1515 0.950 . S
C1504 H1496 0.950 . S
C1504 C1505 1.386 . S
C1504 C1506 1.391 . S
C1505 C1504 1.386 . S
C1505 C1509 1.393 . S
C1506 H1498 0.950 . S
C1506 C1504 1.391 . S
C1506 C1507 1.400 . S
C1507 C1506 1.400 . S
C1507 C1508 1.398 . S
C1507 C1513 1.491 . S
C1508 H1499 0.950 . S
C1508 C1507 1.398 . S
C1508 C1509 1.391 . S
C1509 H1497 0.950 . S
C1509 C1505 1.393 . S
C1509 C1508 1.391 . S
C1510 H1500 0.950 . S
C1510 C1511 1.386 . S
C1510 C1512 1.391 . S
C1511 C1510 1.386 . S
C1511 C1515 1.393 . S
C1512 H1501 0.950 . S
C1512 C1510 1.391 . S
C1512 C1513 1.400 . S
C1513 C1507 1.491 . S
C1513 C1512 1.400 . S
C1513 C1514 1.398 . S
C1514 H1502 0.950 . S
C1514 C1513 1.398 . S
C1514 C1515 1.391 . S
C1515 H1503 0.950 . S
C1515 C1511 1.393 . S
C1515 C1514 1.391 . S
H1516 C1524 0.950 . S
H1517 C1529 0.950 . S
H1518 C1526 0.950 . S
H1519 C1528 0.950 . S
H1520 C1530 0.950 . S
H1521 C1532 0.950 . S
H1522 C1534 0.950 . S
H1523 C1535 0.950 . S
C1524 H1516 0.950 . S
C1524 C1525 1.386 . S
C1524 C1526 1.391 . S
C1525 C1524 1.386 . S
C1525 C1529 1.393 . S
C1526 H1518 0.950 . S
C1526 C1524 1.391 . S
C1526 C1527 1.400 . S
C1527 C1526 1.400 . S
C1527 C1528 1.398 . S
C1527 C1533 1.491 . S
C1528 H1519 0.950 . S
C1528 C1527 1.398 . S
C1528 C1529 1.391 . S
C1529 H1517 0.950 . S
C1529 C1525 1.393 . S
C1529 C1528 1.391 . S
C1530 H1520 0.950 . S
C1530 C1531 1.386 . S
C1530 C1532 1.391 . S
C1531 C1530 1.386 . S
C1531 C1535 1.393 . S
C1532 H1521 0.950 . S
C1532 C1530 1.391 . S
C1532 C1533 1.400 . S
C1533 C1527 1.491 . S
C1533 C1532 1.400 . S
C1533 C1534 1.398 . S
C1534 H1522 0.950 . S
C1534 C1533 1.398 . S
C1534 C1535 1.391 . S
C1535 H1523 0.950 . S
C1535 C1531 1.393 . S
C1535 C1534 1.391 . S
H1536 C1544 0.950 . S
H1537 C1549 0.950 . S
H1538 C1546 0.950 . S
H1539 C1548 0.950 . S
H1540 C1550 0.950 . S
H1541 C1552 0.950 . S
H1542 C1554 0.950 . S
H1543 C1555 0.950 . S
C1544 H1536 0.950 . S
C1544 C1545 1.386 . S
C1544 C1546 1.391 . S
C1545 C1544 1.386 . S
C1545 C1549 1.393 . S
C1546 H1538 0.950 . S
C1546 C1544 1.391 . S
C1546 C1547 1.400 . S
C1547 C1546 1.400 . S
C1547 C1548 1.398 . S
C1547 C1553 1.491 . S
C1548 H1539 0.950 . S
C1548 C1547 1.398 . S
C1548 C1549 1.391 . S
C1549 H1537 0.950 . S
C1549 C1545 1.393 . S
C1549 C1548 1.391 . S
C1550 H1540 0.950 . S
C1550 C1551 1.386 . S
C1550 C1552 1.391 . S
C1551 C1550 1.386 . S
C1551 C1555 1.393 . S
C1552 H1541 0.950 . S
C1552 C1550 1.391 . S
C1552 C1553 1.400 . S
C1553 C1547 1.491 . S
C1553 C1552 1.400 . S
C1553 C1554 1.398 . S
C1554 H1542 0.950 . S
C1554 C1553 1.398 . S
C1554 C1555 1.391 . S
C1555 H1543 0.950 . S
C1555 C1551 1.393 . S
C1555 C1554 1.391 . S
H1556 C1564 0.950 . S
H1557 C1569 0.950 . S
H1558 C1566 0.950 . S
H1559 C1568 0.950 . S
H1560 C1570 0.950 . S
H1561 C1572 0.950 . S
H1562 C1574 0.950 . S
H1563 C1575 0.950 . S
C1564 H1556 0.950 . S
C1564 C1565 1.386 . S
C1564 C1566 1.391 . S
C1565 C1564 1.386 . S
C1565 C1569 1.393 . S
C1566 H1558 0.950 . S
C1566 C1564 1.391 . S
C1566 C1567 1.400 . S
C1567 C1566 1.400 . S
C1567 C1568 1.398 . S
C1567 C1573 1.491 . S
C1568 H1559 0.950 . S
C1568 C1567 1.398 . S
C1568 C1569 1.391 . S
C1569 H1557 0.950 . S
C1569 C1565 1.393 . S
C1569 C1568 1.391 . S
C1570 H1560 0.950 . S
C1570 C1571 1.386 . S
C1570 C1572 1.391 . S
C1571 C1570 1.386 . S
C1571 C1575 1.393 . S
C1572 H1561 0.950 . S
C1572 C1570 1.391 . S
C1572 C1573 1.400 . S
C1573 C1567 1.491 . S
C1573 C1572 1.400 . S
C1573 C1574 1.398 . S
C1574 H1562 0.950 . S
C1574 C1573 1.398 . S
C1574 C1575 1.391 . S
C1575 H1563 0.950 . S
C1575 C1571 1.393 . S
C1575 C1574 1.391 . S
H1576 C1584 0.950 . S
H1577 C1589 0.950 . S
H1578 C1586 0.950 . S
H1579 C1588 0.950 . S
H1580 C1590 0.950 . S
H1581 C1592 0.950 . S
H1582 C1594 0.950 . S
H1583 C1595 0.950 . S
C1584 H1576 0.950 . S
C1584 C1585 1.386 . S
C1584 C1586 1.391 . S
C1585 C1584 1.386 . S
C1585 C1589 1.393 . S
C1586 H1578 0.950 . S
C1586 C1584 1.391 . S
C1586 C1587 1.400 . S
C1587 C1586 1.400 . S
C1587 C1588 1.398 . S
C1587 C1593 1.491 . S
C1588 H1579 0.950 . S
C1588 C1587 1.398 . S
C1588 C1589 1.391 . S
C1589 H1577 0.950 . S
C1589 C1585 1.393 . S
C1589 C1588 1.391 . S
C1590 H1580 0.950 . S
C1590 C1591 1.386 . S
C1590 C1592 1.391 . S
C1591 C1590 1.386 . S
C1591 C1595 1.393 . S
C1592 H1581 0.950 . S
C1592 C1590 1.391 . S
C1592 C1593 1.400 . S
C1593 C1587 1.491 . S
C1593 C1592 1.400 . S
C1593 C1594 1.398 . S
C1594 H1582 0.950 . S
C1594 C1593 1.398 . S
C1594 C1595 1.391 . S
C1595 H1583 0.950 . S
C1595 C1591 1.393 . S
C1595 C1594 1.391 . S
H1596 C1604 0.950 . S
H1597 C1609 0.950 . S
H1598 C1606 0.950 . S
H1599 C1608 0.950 . S
H1600 C1610 0.950 . S
H1601 C1612 0.950 . S
H1602 C1614 0.950 . S
H1603 C1615 0.950 . S
C1604 H1596 0.950 . S
C1604 C1605 1.386 . S
C1604 C1606 1.391 . S
C1605 C1604 1.386 . S
C1605 C1609 1.393 . S
C1606 H1598 0.950 . S
C1606 C1604 1.391 . S
C1606 C1607 1.400 . S
C1607 C1606 1.400 . S
C1607 C1608 1.398 . S
C1607 C1613 1.491 . S
C1608 H1599 0.950 . S
C1608 C1607 1.398 . S
C1608 C1609 1.391 . S
C1609 H1597 0.950 . S
C1609 C1605 1.393 . S
C1609 C1608 1.391 . S
C1610 H1600 0.950 . S
C1610 C1611 1.386 . S
C1610 C1612 1.391 . S
C1611 C1610 1.386 . S
C1611 C1615 1.393 . S
C1612 H1601 0.950 . S
C1612 C1610 1.391 . S
C1612 C1613 1.400 . S
C1613 C1607 1.491 . S
C1613 C1612 1.400 . S
C1613 C1614 1.398 . S
C1614 H1602 0.950 . S
C1614 C1613 1.398 . S
C1614 C1615 1.391 . S
C1615 H1603 0.950 . S
C1615 C1611 1.393 . S
C1615 C1614 1.391 . S
H1616 C1624 0.950 . S
H1617 C1629 0.950 . S
H1618 C1626 0.950 . S
H1619 C1628 0.950 . S
H1620 C1630 0.950 . S
H1621 C1632 0.950 . S
H1622 C1634 0.950 . S
H1623 C1635 0.950 . S
C1624 H1616 0.950 . S
C1624 C1625 1.386 . S
C1624 C1626 1.391 . S
C1625 C1624 1.386 . S
C1625 C1629 1.393 . S
C1626 H1618 0.950 . S
C1626 C1624 1.391 . S
C1626 C1627 1.400 . S
C1627 C1626 1.400 . S
C1627 C1628 1.398 . S
C1627 C1633 1.491 . S
C1628 H1619 0.950 . S
C1628 C1627 1.398 . S
C1628 C1629 1.391 . S
C1629 H1617 0.950 . S
C1629 C1625 1.393 . S
C1629 C1628 1.391 . S
C1630 H1620 0.950 . S
C1630 C1631 1.386 . S
C1630 C1632 1.391 . S
C1631 C1630 1.386 . S
C1631 C1635 1.393 . S
C1632 H1621 0.950 . S
C1632 C1630 1.391 . S
C1632 C1633 1.400 . S
C1633 C1627 1.491 . S
C1633 C1632 1.400 . S
C1633 C1634 1.398 . S
C1634 H1622 0.950 . S
C1634 C1633 1.398 . S
C1634 C1635 1.391 . S
C1635 H1623 0.950 . S
C1635 C1631 1.393 . S
C1635 C1634 1.391 . S
H1636 C1644 0.950 . S
H1637 C1649 0.950 . S
H1638 C1646 0.950 . S
H1639 C1648 0.950 . S
H1640 C1650 0.950 . S
H1641 C1652 0.950 . S
H1642 C1654 0.950 . S
H1643 C1655 0.950 . S
C1644 H1636 0.950 . S
C1644 C1645 1.386 . S
C1644 C1646 1.391 . S
C1645 C1644 1.386 . S
C1645 C1649 1.393 . S
C1646 H1638 0.950 . S
C1646 C1644 1.391 . S
C1646 C1647 1.400 . S
C1647 C1646 1.400 . S
C1647 C1648 1.398 . S
C1647 C1653 1.491 . S
C1648 H1639 0.950 . S
C1648 C1647 1.398 . S
C1648 C1649 1.391 . S
C1649 H1637 0.950 . S
C1649 C1645 1.393 . S
C1649 C1648 1.391 . S
C1650 H1640 0.950 . S
C1650 C1651 1.386 . S
C1650 C1652 1.391 . S
C1651 C1650 1.386 . S
C1651 C1655 1.393 . S
C1652 H1641 0.950 . S
C1652 C1650 1.391 . S
C1652 C1653 1.400 . S
C1653 C1647 1.491 . S
C1653 C1652 1.400 . S
C1653 C1654 1.398 . S
C1654 H1642 0.950 . S
C1654 C1653 1.398 . S
C1654 C1655 1.391 . S
C1655 H1643 0.950 . S
C1655 C1651 1.393 . S
C1655 C1654 1.391 . S
H1656 C1664 0.950 . S
H1657 C1669 0.950 . S
H1658 C1666 0.950 . S
H1659 C1668 0.950 . S
H1660 C1670 0.950 . S
H1661 C1672 0.950 . S
H1662 C1674 0.950 . S
H1663 C1675 0.950 . S
C1664 H1656 0.950 . S
C1664 C1665 1.386 . S
C1664 C1666 1.391 . S
C1665 C1664 1.386 . S
C1665 C1669 1.393 . S
C1666 H1658 0.950 . S
C1666 C1664 1.391 . S
C1666 C1667 1.400 . S
C1667 C1666 1.400 . S
C1667 C1668 1.398 . S
C1667 C1673 1.491 . S
C1668 H1659 0.950 . S
C1668 C1667 1.398 . S
C1668 C1669 1.391 . S
C1669 H1657 0.950 . S
C1669 C1665 1.393 . S
C1669 C1668 1.391 . S
C1670 H1660 0.950 . S
C1670 C1671 1.386 . S
C1670 C1672 1.391 . S
C1671 C1670 1.386 . S
C1671 C1675 1.393 . S
C1672 H1661 0.950 . S
C1672 C1670 1.391 . S
C1672 C1673 1.400 . S
C1673 C1667 1.491 . S
C1673 C1672 1.400 . S
C1673 C1674 1.398 . S
C1674 H1662 0.950 . S
C1674 C1673 1.398 . S
C1674 C1675 1.391 . S
C1675 H1663 0.950 . S
C1675 C1671 1.393 . S
C1675 C1674 1.391 . S
H1676 C1684 0.950 . S
H1677 C1689 0.950 . S
H1678 C1686 0.950 . S
H1679 C1688 0.950 . S
H1680 C1690 0.950 . S
H1681 C1692 0.950 . S
H1682 C1694 0.950 . S
H1683 C1695 0.950 . S
C1684 H1676 0.950 . S
C1684 C1685 1.386 . S
C1684 C1686 1.391 . S
C1685 C1684 1.386 . S
C1685 C1689 1.393 . S
C1686 H1678 0.950 . S
C1686 C1684 1.391 . S
C1686 C1687 1.400 . S
C1687 C1686 1.400 . S
C1687 C1688 1.398 . S
C1687 C1693 1.491 . S
C1688 H1679 0.950 . S
C1688 C1687 1.398 . S
C1688 C1689 1.391 . S
C1689 H1677 0.950 . S
C1689 C1685 1.393 . S
C1689 C1688 1.391 . S
C1690 H1680 0.950 . S
C1690 C1691 1.386 . S
C1690 C1692 1.391 . S
C1691 C1690 1.386 . S
C1691 C1695 1.393 . S
C1692 H1681 0.950 . S
C1692 C1690 1.391 . S
C1692 C1693 1.400 . S
C1693 C1687 1.491 . S
C1693 C1692 1.400 . S
C1693 C1694 1.398 . S
C1694 H1682 0.950 . S
C1694 C1693 1.398 . S
C1694 C1695 1.391 . S
C1695 H1683 0.950 . S
C1695 C1691 1.393 . S
C1695 C1694 1.391 . S
H1696 C1704 0.950 . S
H1697 C1709 0.950 . S
H1698 C1706 0.950 . S
H1699 C1708 0.950 . S
H1700 C1710 0.950 . S
H1701 C1712 0.950 . S
H1702 C1714 0.950 . S
H1703 C1715 0.950 . S
C1704 H1696 0.950 . S
C1704 C1705 1.386 . S
C1704 C1706 1.391 . S
C1705 C1704 1.386 . S
C1705 C1709 1.393 . S
C1706 H1698 0.950 . S
C1706 C1704 1.391 . S
C1706 C1707 1.400 . S
C1707 C1706 1.400 . S
C1707 C1708 1.398 . S
C1707 C1713 1.491 . S
C1708 H1699 0.950 . S
C1708 C1707 1.398 . S
C1708 C1709 1.391 . S
C1709 H1697 0.950 . S
C1709 C1705 1.393 . S
C1709 C1708 1.391 . S
C1710 H1700 0.950 . S
C1710 C1711 1.386 . S
C1710 C1712 1.391 . S
C1711 C1710 1.386 . S
C1711 C1715 1.393 . S
C1712 H1701 0.950 . S
C1712 C1710 1.391 . S
C1712 C1713 1.400 . S
C1713 C1707 1.491 . S
C1713 C1712 1.400 . S
C1713 C1714 1.398 . S
C1714 H1702 0.950 . S
C1714 C1713 1.398 . S
C1714 C1715 1.391 . S
C1715 H1703 0.950 . S
C1715 C1711 1.393 . S
C1715 C1714 1.391 . S
H1716 C1724 0.950 . S
H1717 C1729 0.950 . S
H1718 C1726 0.950 . S
H1719 C1728 0.950 . S
H1720 C1730 0.950 . S
H1721 C1732 0.950 . S
H1722 C1734 0.950 . S
H1723 C1735 0.950 . S
C1724 H1716 0.950 . S
C1724 C1725 1.386 . S
C1724 C1726 1.391 . S
C1725 C1724 1.386 . S
C1725 C1729 1.393 . S
C1726 H1718 0.950 . S
C1726 C1724 1.391 . S
C1726 C1727 1.400 . S
C1727 C1726 1.400 . S
C1727 C1728 1.398 . S
C1727 C1733 1.491 . S
C1728 H1719 0.950 . S
C1728 C1727 1.398 . S
C1728 C1729 1.391 . S
C1729 H1717 0.950 . S
C1729 C1725 1.393 . S
C1729 C1728 1.391 . S
C1730 H1720 0.950 . S
C1730 C1731 1.386 . S
C1730 C1732 1.391 . S
C1731 C1730 1.386 . S
C1731 C1735 1.393 . S
C1732 H1721 0.950 . S
C1732 C1730 1.391 . S
C1732 C1733 1.400 . S
C1733 C1727 1.491 . S
C1733 C1732 1.400 . S
C1733 C1734 1.398 . S
C1734 H1722 0.950 . S
C1734 C1733 1.398 . S
C1734 C1735 1.391 . S
C1735 H1723 0.950 . S
C1735 C1731 1.393 . S
C1735 C1734 1.391 . S
H1736 C1744 0.950 . S
H1737 C1749 0.950 . S
H1738 C1746 0.950 . S
H1739 C1748 0.950 . S
H1740 C1750 0.950 . S
H1741 C1752 0.950 . S
H1742 C1754 0.950 . S
H1743 C1755 0.950 . S
C1744 H1736 0.950 . S
C1744 C1745 1.386 . S
C1744 C1746 1.391 . S
C1745 C1744 1.386 . S
C1745 C1749 1.393 . S
C1746 H1738 0.950 . S
C1746 C1744 1.391 . S
C1746 C1747 1.400 . S
C1747 C1746 1.400 . S
C1747 C1748 1.398 . S
C1747 C1753 1.491 . S
C1748 H1739 0.950 . S
C1748 C1747 1.398 . S
C1748 C1749 1.391 . S
C1749 H1737 0.950 . S
C1749 C1745 1.393 . S
C1749 C1748 1.391 . S
C1750 H1740 0.950 . S
C1750 C1751 1.386 . S
C1750 C1752 1.391 . S
C1751 C1750 1.386 . S
C1751 C1755 1.393 . S
C1752 H1741 0.950 . S
C1752 C1750 1.391 . S
C1752 C1753 1.400 . S
C1753 C1747 1.491 . S
C1753 C1752 1.400 . S
C1753 C1754 1.398 . S
C1754 H1742 0.950 . S
C1754 C1753 1.398 . S
C1754 C1755 1.391 . S
C1755 H1743 0.950 . S
C1755 C1751 1.393 . S
C1755 C1754 1.391 . S
H1756 C1764 0.950 . S
H1757 C1769 0.950 . S
H1758 C1766 0.950 . S
H1759 C1768 0.950 . S
H1760 C1770 0.950 . S
H1761 C1772 0.950 . S
H1762 C1774 0.950 . S
H1763 C1775 0.950 . S
C1764 H1756 0.950 . S
C1764 C1765 1.386 . S
C1764 C1766 1.391 . S
C1765 C1764 1.386 . S
C1765 C1769 1.393 . S
C1766 H1758 0.950 . S
C1766 C1764 1.391 . S
C1766 C1767 1.400 . S
C1767 C1766 1.400 . S
C1767 C1768 1.398 . S
C1767 C1773 1.491 . S
C1768 H1759 0.950 . S
C1768 C1767 1.398 . S
C1768 C1769 1.391 . S
C1769 H1757 0.950 . S
C1769 C1765 1.393 . S
C1769 C1768 1.391 . S
C1770 H1760 0.950 . S
C1770 C1771 1.386 . S
C1770 C1772 1.391 . S
C1771 C1770 1.386 . S
C1771 C1775 1.393 . S
C1772 H1761 0.950 . S
C1772 C1770 1.391 . S
C1772 C1773 1.400 . S
C1773 C1767 1.491 . S
C1773 C1772 1.400 . S
C1773 C1774 1.398 . S
C1774 H1762 0.950 . S
C1774 C1773 1.398 . S
C1774 C1775 1.391 . S
C1775 H1763 0.950 . S
C1775 C1771 1.393 . S
C1775 C1774 1.391 . S
H1776 C1784 0.950 . S
H1777 C1789 0.950 . S
H1778 C1786 0.950 . S
H1779 C1788 0.950 . S
H1780 C1790 0.950 . S
H1781 C1792 0.950 . S
H1782 C1794 0.950 . S
H1783 C1795 0.950 . S
C1784 H1776 0.950 . S
C1784 C1785 1.386 . S
C1784 C1786 1.391 . S
C1785 C1784 1.386 . S
C1785 C1789 1.393 . S
C1786 H1778 0.950 . S
C1786 C1784 1.391 . S
C1786 C1787 1.400 . S
C1787 C1786 1.400 . S
C1787 C1788 1.398 . S
C1787 C1793 1.491 . S
C1788 H1779 0.950 . S
C1788 C1787 1.398 . S
C1788 C1789 1.391 . S
C1789 H1777 0.950 . S
C1789 C1785 1.393 . S
C1789 C1788 1.391 . S
C1790 H1780 0.950 . S
C1790 C1791 1.386 . S
C1790 C1792 1.391 . S
C1791 C1790 1.386 . S
C1791 C1795 1.393 . S
C1792 H1781 0.950 . S
C1792 C1790 1.391 . S
C1792 C1793 1.400 . S
C1793 C1787 1.491 . S
C1793 C1792 1.400 . S
C1793 C1794 1.398 . S
C1794 H1782 0.950 . S
C1794 C1793 1.398 . S
C1794 C1795 1.391 . S
C1795 H1783 0.950 . S
C1795 C1791 1.393 . S
C1795 C1794 1.391 . S
H1796 C1804 0.950 . S
H1797 C1809 0.950 . S
H1798 C1806 0.950 . S
H1799 C1808 0.950 . S
H1800 C1810 0.950 . S
H1801 C1812 0.950 . S
H1802 C1814 0.950 . S
H1803 C1815 0.950 . S
C1804 H1796 0.950 . S
C1804 C1805 1.386 . S
C1804 C1806 1.391 . S
C1805 C1804 1.386 . S
C1805 C1809 1.393 . S
C1806 H1798 0.950 . S
C1806 C1804 1.391 . S
C1806 C1807 1.400 . S
C1807 C1806 1.400 . S
C1807 C1808 1.398 . S
C1807 C1813 1.491 . S
C1808 H1799 0.950 . S
C1808 C1807 1.398 . S
C1808 C1809 1.391 . S
C1809 H1797 0.950 . S
C1809 C1805 1.393 . S
C1809 C1808 1.391 . S
C1810 H1800 0.950 . S
C1810 C1811 1.386 . S
C1810 C1812 1.391 . S
C1811 C1810 1.386 . S
C1811 C1815 1.393 . S
C1812 H1801 0.950 . S
C1812 C1810 1.391 . S
C1812 C1813 1.400 . S
C1813 C1807 1.491 . S
C1813 C1812 1.400 . S
C1813 C1814 1.398 . S
C1814 H1802 0.950 . S
C1814 C1813 1.398 . S
C1814 C1815 1.391 . S
C1815 H1803 0.950 . S
C1815 C1811 1.393 . S
C1815 C1814 1.391 . S
H1816 C1824 0.950 . S
H1817 C1829 0.950 . S
H1818 C1826 0.950 . S
H1819 C1828 0.950 . S
H1820 C1830 0.950 . S
H1821 C1832 0.950 . S
H1822 C1834 0.950 . S
H1823 C1835 0.950 . S
C1824 H1816 0.950 . S
C1824 C1825 1.386 . S
C1824 C1826 1.391 . S
C1825 C1824 1.386 . S
C1825 C1829 1.393 . S
C1826 H1818 0.950 . S
C1826 C1824 1.391 . S
C1826 C1827 1.400 . S
C1827 C1826 1.400 . S
C1827 C1828 1.398 . S
C1827 C1833 1.491 . S
C1828 H1819 0.950 . S
C1828 C1827 1.398 . S
C1828 C1829 1.391 . S
C1829 H1817 0.950 . S
C1829 C1825 1.393 . S
C1829 C1828 1.391 . S
C1830 H1820 0.950 . S
C1830 C1831 1.386 . S
C1830 C1832 1.391 . S
C1831 C1830 1.386 . S
C1831 C1835 1.393 . S
C1832 H1821 0.950 . S
C1832 C1830 1.391 . S
C1832 C1833 1.400 . S
C1833 C1827 1.491 . S
C1833 C1832 1.400 . S
C1833 C1834 1.398 . S
C1834 H1822 0.950 . S
C1834 C1833 1.398 . S
C1834 C1835 1.391 . S
C1835 H1823 0.950 . S
C1835 C1831 1.393 . S
C1835 C1834 1.391 . S
H1836 C1844 0.950 . S
H1837 C1849 0.950 . S
H1838 C1846 0.950 . S
H1839 C1848 0.950 . S
H1840 C1850 0.950 . S
H1841 C1852 0.950 . S
H1842 C1854 0.950 . S
H1843 C1855 0.950 . S
C1844 H1836 0.950 . S
C1844 C1845 1.386 . S
C1844 C1846 1.391 . S
C1845 C1844 1.386 . S
C1845 C1849 1.393 . S
C1846 H1838 0.950 . S
C1846 C1844 1.391 . S
C1846 C1847 1.400 . S
C1847 C1846 1.400 . S
C1847 C1848 1.398 . S
C1847 C1853 1.491 . S
C1848 H1839 0.950 . S
C1848 C1847 1.398 . S
C1848 C1849 1.391 . S
C1849 H1837 0.950 . S
C1849 C1845 1.393 . S
C1849 C1848 1.391 . S
C1850 H1840 0.950 . S
C1850 C1851 1.386 . S
C1850 C1852 1.391 . S
C1851 C1850 1.386 . S
C1851 C1855 1.393 . S
C1852 H1841 0.950 . S
C1852 C1850 1.391 . S
C1852 C1853 1.400 . S
C1853 C1847 1.491 . S
C1853 C1852 1.400 . S
C1853 C1854 1.398 . S
C1854 H1842 0.950 . S
C1854 C1853 1.398 . S
C1854 C1855 1.391 . S
C1855 H1843 0.950 . S
C1855 C1851 1.393 . S
C1855 C1854 1.391 . S
H1856 C1864 0.950 . S
H1857 C1869 0.950 . S
H1858 C1866 0.950 . S
H1859 C1868 0.950 . S
H1860 C1870 0.950 . S
H1861 C1872 0.950 . S
H1862 C1874 0.950 . S
H1863 C1875 0.950 . S
C1864 H1856 0.950 . S
C1864 C1865 1.386 . S
C1864 C1866 1.391 . S
C1865 C1864 1.386 . S
C1865 C1869 1.393 . S
C1866 H1858 0.950 . S
C1866 C1864 1.391 . S
C1866 C1867 1.400 . S
C1867 C1866 1.400 . S
C1867 C1868 1.398 . S
C1867 C1873 1.491 . S
C1868 H1859 0.950 . S
C1868 C1867 1.398 . S
C1868 C1869 1.391 . S
C1869 H1857 0.950 . S
C1869 C1865 1.393 . S
C1869 C1868 1.391 . S
C1870 H1860 0.950 . S
C1870 C1871 1.386 . S
C1870 C1872 1.391 . S
C1871 C1870 1.386 . S
C1871 C1875 1.393 . S
C1872 H1861 0.950 . S
C1872 C1870 1.391 . S
C1872 C1873 1.400 . S
C1873 C1867 1.491 . S
C1873 C1872 1.400 . S
C1873 C1874 1.398 . S
C1874 H1862 0.950 . S
C1874 C1873 1.398 . S
C1874 C1875 1.391 . S
C1875 H1863 0.950 . S
C1875 C1871 1.393 . S
C1875 C1874 1.391 . S
H1876 C1884 0.950 . S
H1877 C1889 0.950 . S
H1878 C1886 0.950 . S
H1879 C1888 0.950 . S
H1880 C1890 0.950 . S
H1881 C1892 0.950 . S
H1882 C1894 0.950 . S
H1883 C1895 0.950 . S
C1884 H1876 0.950 . S
C1884 C1885 1.386 . S
C1884 C1886 1.391 . S
C1885 C1884 1.386 . S
C1885 C1889 1.393 . S
C1886 H1878 0.950 . S
C1886 C1884 1.391 . S
C1886 C1887 1.400 . S
C1887 C1886 1.400 . S
C1887 C1888 1.398 . S
C1887 C1893 1.491 . S
C1888 H1879 0.950 . S
C1888 C1887 1.398 . S
C1888 C1889 1.391 . S
C1889 H1877 0.950 . S
C1889 C1885 1.393 . S
C1889 C1888 1.391 . S
C1890 H1880 0.950 . S
C1890 C1891 1.386 . S
C1890 C1892 1.391 . S
C1891 C1890 1.386 . S
C1891 C1895 1.393 . S
C1892 H1881 0.950 . S
C1892 C1890 1.391 . S
C1892 C1893 1.400 . S
C1893 C1887 1.491 . S
C1893 C1892 1.400 . S
C1893 C1894 1.398 . S
C1894 H1882 0.950 . S
C1894 C1893 1.398 . S
C1894 C1895 1.391 . S
C1895 H1883 0.950 . S
C1895 C1891 1.393 . S
C1895 C1894 1.391 . S
H1896 C1904 0.950 . S
H1897 C1909 0.950 . S
H1898 C1906 0.950 . S
H1899 C1908 0.950 . S
H1900 C1910 0.950 . S
H1901 C1912 0.950 . S
H1902 C1914 0.950 . S
H1903 C1915 0.950 . S
C1904 H1896 0.950 . S
C1904 C1905 1.386 . S
C1904 C1906 1.391 . S
C1905 C1904 1.386 . S
C1905 C1909 1.393 . S
C1906 H1898 0.950 . S
C1906 C1904 1.391 . S
C1906 C1907 1.400 . S
C1907 C1906 1.400 . S
C1907 C1908 1.398 . S
C1907 C1913 1.491 . S
C1908 H1899 0.950 . S
C1908 C1907 1.398 . S
C1908 C1909 1.391 . S
C1909 H1897 0.950 . S
C1909 C1905 1.393 . S
C1909 C1908 1.391 . S
C1910 H1900 0.950 . S
C1910 C1911 1.386 . S
C1910 C1912 1.391 . S
C1911 C1910 1.386 . S
C1911 C1915 1.393 . S
C1912 H1901 0.950 . S
C1912 C1910 1.391 . S
C1912 C1913 1.400 . S
C1913 C1907 1.491 . S
C1913 C1912 1.400 . S
C1913 C1914 1.398 . S
C1914 H1902 0.950 . S
C1914 C1913 1.398 . S
C1914 C1915 1.391 . S
C1915 H1903 0.950 . S
C1915 C1911 1.393 . S
C1915 C1914 1.391 . S
H1916 C1924 0.950 . S
H1917 C1929 0.950 . S
H1918 C1926 0.950 . S
H1919 C1928 0.950 1_556 S
H1920 C1930 0.950 . S
H1921 C1932 0.950 . S
H1922 C1934 0.950 . S
H1923 C1935 0.950 . S
C1924 H1916 0.950 . S
C1924 C1925 1.386 . S
C1924 C1926 1.391 . S
C1925 C1924 1.386 . S
C1925 C1929 1.393 . S
C1926 H1918 0.950 . S
C1926 C1924 1.391 . S
C1926 C1927 1.400 1_554 S
C1927 C1926 1.400 1_556 S
C1927 C1928 1.398 1_556 S
C1927 C1933 1.491 . S
C1928 H1919 0.950 1_554 S
C1928 C1927 1.398 1_554 S
C1928 C1929 1.391 . S
C1929 H1917 0.950 . S
C1929 C1925 1.393 . S
C1929 C1928 1.391 . S
C1930 H1920 0.950 . S
C1930 C1931 1.386 . S
C1930 C1932 1.391 . S
C1931 C1930 1.386 . S
C1931 C1935 1.393 . S
C1932 H1921 0.950 . S
C1932 C1930 1.391 . S
C1932 C1933 1.400 . S
C1933 C1927 1.491 . S
C1933 C1932 1.400 . S
C1933 C1934 1.398 . S
C1934 H1922 0.950 . S
C1934 C1933 1.398 . S
C1934 C1935 1.391 . S
C1935 H1923 0.950 . S
C1935 C1931 1.393 . S
C1935 C1934 1.391 . S
H1936 C1944 0.950 . S
H1937 C1949 0.950 . S
H1938 C1946 0.950 . S
H1939 C1948 0.950 . S
H1940 C1950 0.950 . S
H1941 C1952 0.950 . S
H1942 C1954 0.950 . S
H1943 C1955 0.950 . S
C1944 H1936 0.950 . S
C1944 C1945 1.386 . S
C1944 C1946 1.391 . S
C1945 C1944 1.386 . S
C1945 C1949 1.393 . S
C1946 H1938 0.950 . S
C1946 C1944 1.391 . S
C1946 C1947 1.400 . S
C1947 C1946 1.400 . S
C1947 C1948 1.398 . S
C1947 C1953 1.491 . S
C1948 H1939 0.950 . S
C1948 C1947 1.398 . S
C1948 C1949 1.391 . S
C1949 H1937 0.950 . S
C1949 C1945 1.393 . S
C1949 C1948 1.391 . S
C1950 H1940 0.950 . S
C1950 C1951 1.386 . S
C1950 C1952 1.391 . S
C1951 C1950 1.386 . S
C1951 C1955 1.393 . S
C1952 H1941 0.950 . S
C1952 C1950 1.391 . S
C1952 C1953 1.400 . S
C1953 C1947 1.491 . S
C1953 C1952 1.400 . S
C1953 C1954 1.398 . S
C1954 H1942 0.950 . S
C1954 C1953 1.398 . S
C1954 C1955 1.391 . S
C1955 H1943 0.950 . S
C1955 C1951 1.393 . S
C1955 C1954 1.391 . S
H1956 C1964 0.950 . S
H1957 C1969 0.950 . S
H1958 C1966 0.950 . S
H1959 C1968 0.950 . S
H1960 C1970 0.950 . S
H1961 C1972 0.950 . S
H1962 C1974 0.950 1_554 S
H1963 C1975 0.950 . S
C1964 H1956 0.950 . S
C1964 C1965 1.386 . S
C1964 C1966 1.391 . S
C1965 C1964 1.386 . S
C1965 C1969 1.393 . S
C1966 H1958 0.950 . S
C1966 C1964 1.391 . S
C1966 C1967 1.400 . S
C1967 C1966 1.400 . S
C1967 C1968 1.398 . S
C1967 C1973 1.491 . S
C1968 H1959 0.950 . S
C1968 C1967 1.398 . S
C1968 C1969 1.391 . S
C1969 H1957 0.950 . S
C1969 C1965 1.393 . S
C1969 C1968 1.391 . S
C1970 H1960 0.950 . S
C1970 C1971 1.386 . S
C1970 C1972 1.391 . S
C1971 C1970 1.386 . S
C1971 C1975 1.393 . S
C1972 H1961 0.950 . S
C1972 C1970 1.391 . S
C1972 C1973 1.400 1_556 S
C1973 C1967 1.491 . S
C1973 C1972 1.400 1_554 S
C1973 C1974 1.398 1_554 S
C1974 H1962 0.950 1_556 S
C1974 C1973 1.398 1_556 S
C1974 C1975 1.391 . S
C1975 H1963 0.950 . S
C1975 C1971 1.393 . S
C1975 C1974 1.391 . S
H1976 C1984 0.950 . S
H1977 C1989 0.950 . S
H1978 C1986 0.950 . S
H1979 C1988 0.950 . S
H1980 C1990 0.950 . S
H1981 C1992 0.950 . S
H1982 C1994 0.950 . S
H1983 C1995 0.950 . S
C1984 H1976 0.950 . S
C1984 C1985 1.386 . S
C1984 C1986 1.391 . S
C1985 C1984 1.386 . S
C1985 C1989 1.393 . S
C1986 H1978 0.950 . S
C1986 C1984 1.391 . S
C1986 C1987 1.400 . S
C1987 C1986 1.400 . S
C1987 C1988 1.398 . S
C1987 C1993 1.491 . S
C1988 H1979 0.950 . S
C1988 C1987 1.398 . S
C1988 C1989 1.391 . S
C1989 H1977 0.950 . S
C1989 C1985 1.393 . S
C1989 C1988 1.391 . S
C1990 H1980 0.950 . S
C1990 C1991 1.386 . S
C1990 C1992 1.391 . S
C1991 C1990 1.386 . S
C1991 C1995 1.393 . S
C1992 H1981 0.950 . S
C1992 C1990 1.391 . S
C1992 C1993 1.400 . S
C1993 C1987 1.491 . S
C1993 C1992 1.400 . S
C1993 C1994 1.398 . S
C1994 H1982 0.950 . S
C1994 C1993 1.398 . S
C1994 C1995 1.391 . S
C1995 H1983 0.950 . S
C1995 C1991 1.393 . S
C1995 C1994 1.391 . S
H1996 C2004 0.950 . S
H1997 C2009 0.950 . S
H1998 C2006 0.950 . S
H1999 C2008 0.950 1_455 S
H2000 C2010 0.950 . S
H2001 C2012 0.950 . S
H2002 C2014 0.950 . S
H2003 C2015 0.950 . S
C2004 H1996 0.950 . S
C2004 C2005 1.386 . S
C2004 C2006 1.391 . S
C2005 C2004 1.386 . S
C2005 C2009 1.393 . S
C2006 H1998 0.950 . S
C2006 C2004 1.391 . S
C2006 C2007 1.400 1_655 S
C2007 C2006 1.400 1_455 S
C2007 C2008 1.398 1_455 S
C2007 C2013 1.491 . S
C2008 H1999 0.950 1_655 S
C2008 C2007 1.398 1_655 S
C2008 C2009 1.391 . S
C2009 H1997 0.950 . S
C2009 C2005 1.393 . S
C2009 C2008 1.391 . S
C2010 H2000 0.950 . S
C2010 C2011 1.386 . S
C2010 C2012 1.391 . S
C2011 C2010 1.386 . S
C2011 C2015 1.393 . S
C2012 H2001 0.950 . S
C2012 C2010 1.391 . S
C2012 C2013 1.400 . S
C2013 C2007 1.491 . S
C2013 C2012 1.400 . S
C2013 C2014 1.398 . S
C2014 H2002 0.950 . S
C2014 C2013 1.398 . S
C2014 C2015 1.391 . S
C2015 H2003 0.950 . S
C2015 C2011 1.393 . S
C2015 C2014 1.391 . S
H2016 C2024 0.950 . S
H2017 C2029 0.950 . S
H2018 C2026 0.950 1_655 S
H2019 C2028 0.950 . S
H2020 C2030 0.950 . S
H2021 C2032 0.950 . S
H2022 C2034 0.950 . S
H2023 C2035 0.950 . S
C2024 H2016 0.950 . S
C2024 C2025 1.386 . S
C2024 C2026 1.391 . S
C2025 C2024 1.386 . S
C2025 C2029 1.393 . S
C2026 H2018 0.950 1_455 S
C2026 C2024 1.391 . S
C2026 C2027 1.400 1_455 S
C2027 C2026 1.400 1_655 S
C2027 C2028 1.398 1_655 S
C2027 C2033 1.491 . S
C2028 H2019 0.950 . S
C2028 C2027 1.398 1_455 S
C2028 C2029 1.391 . S
C2029 H2017 0.950 . S
C2029 C2025 1.393 . S
C2029 C2028 1.391 . S
C2030 H2020 0.950 . S
C2030 C2031 1.386 . S
C2030 C2032 1.391 . S
C2031 C2030 1.386 . S
C2031 C2035 1.393 . S
C2032 H2021 0.950 . S
C2032 C2030 1.391 . S
C2032 C2033 1.400 . S
C2033 C2027 1.491 . S
C2033 C2032 1.400 . S
C2033 C2034 1.398 . S
C2034 H2022 0.950 . S
C2034 C2033 1.398 . S
C2034 C2035 1.391 . S
C2035 H2023 0.950 . S
C2035 C2031 1.393 . S
C2035 C2034 1.391 . S
H2036 C2044 0.950 . S
H2037 C2049 0.950 . S
H2038 C2046 0.950 . S
H2039 C2048 0.950 . S
H2040 C2050 0.950 . S
H2041 C2052 0.950 . S
H2042 C2054 0.950 . S
H2043 C2055 0.950 . S
C2044 H2036 0.950 . S
C2044 C2045 1.386 . S
C2044 C2046 1.391 . S
C2045 C2044 1.386 . S
C2045 C2049 1.393 . S
C2046 H2038 0.950 . S
C2046 C2044 1.391 . S
C2046 C2047 1.400 . S
C2047 C2046 1.400 . S
C2047 C2048 1.398 . S
C2047 C2053 1.491 . S
C2048 H2039 0.950 . S
C2048 C2047 1.398 . S
C2048 C2049 1.391 . S
C2049 H2037 0.950 . S
C2049 C2045 1.393 . S
C2049 C2048 1.391 . S
C2050 H2040 0.950 . S
C2050 C2051 1.386 . S
C2050 C2052 1.391 . S
C2051 C2050 1.386 . S
C2051 C2055 1.393 . S
C2052 H2041 0.950 . S
C2052 C2050 1.391 . S
C2052 C2053 1.400 . S
C2053 C2047 1.491 . S
C2053 C2052 1.400 . S
C2053 C2054 1.398 . S
C2054 H2042 0.950 . S
C2054 C2053 1.398 . S
C2054 C2055 1.391 . S
C2055 H2043 0.950 . S
C2055 C2051 1.393 . S
C2055 C2054 1.391 . S
H2056 C2064 0.950 . S
H2057 C2069 0.950 . S
H2058 C2066 0.950 . S
H2059 C2068 0.950 . S
H2060 C2070 0.950 . S
H2061 C2072 0.950 . S
H2062 C2074 0.950 . S
H2063 C2075 0.950 . S
C2064 H2056 0.950 . S
C2064 C2065 1.386 . S
C2064 C2066 1.391 . S
C2065 C2064 1.386 . S
C2065 C2069 1.393 . S
C2066 H2058 0.950 . S
C2066 C2064 1.391 . S
C2066 C2067 1.400 . S
C2067 C2066 1.400 . S
C2067 C2068 1.398 . S
C2067 C2073 1.491 . S
C2068 H2059 0.950 . S
C2068 C2067 1.398 . S
C2068 C2069 1.391 . S
C2069 H2057 0.950 . S
C2069 C2065 1.393 . S
C2069 C2068 1.391 . S
C2070 H2060 0.950 . S
C2070 C2071 1.386 . S
C2070 C2072 1.391 . S
C2071 C2070 1.386 . S
C2071 C2075 1.393 . S
C2072 H2061 0.950 . S
C2072 C2070 1.391 . S
C2072 C2073 1.400 . S
C2073 C2067 1.491 . S
C2073 C2072 1.400 . S
C2073 C2074 1.398 . S
C2074 H2062 0.950 . S
C2074 C2073 1.398 . S
C2074 C2075 1.391 . S
C2075 H2063 0.950 . S
C2075 C2071 1.393 . S
C2075 C2074 1.391 . S
H2076 C2084 0.950 . S
H2077 C2089 0.950 . S
H2078 C2086 0.950 . S
H2079 C2088 0.950 1_545 S
H2080 C2090 0.950 . S
H2081 C2092 0.950 . S
H2082 C2094 0.950 . S
H2083 C2095 0.950 . S
C2084 H2076 0.950 . S
C2084 C2085 1.386 . S
C2084 C2086 1.391 . S
C2085 C2084 1.386 . S
C2085 C2089 1.393 . S
C2086 H2078 0.950 . S
C2086 C2084 1.391 . S
C2086 C2087 1.400 1_565 S
C2087 C2086 1.400 1_545 S
C2087 C2088 1.398 1_545 S
C2087 C2093 1.491 . S
C2088 H2079 0.950 1_565 S
C2088 C2087 1.398 1_565 S
C2088 C2089 1.391 . S
C2089 H2077 0.950 . S
C2089 C2085 1.393 . S
C2089 C2088 1.391 . S
C2090 H2080 0.950 . S
C2090 C2091 1.386 . S
C2090 C2092 1.391 . S
C2091 C2090 1.386 . S
C2091 C2095 1.393 . S
C2092 H2081 0.950 . S
C2092 C2090 1.391 . S
C2092 C2093 1.400 . S
C2093 C2087 1.491 . S
C2093 C2092 1.400 . S
C2093 C2094 1.398 . S
C2094 H2082 0.950 . S
C2094 C2093 1.398 . S
C2094 C2095 1.391 . S
C2095 H2083 0.950 . S
C2095 C2091 1.393 . S
C2095 C2094 1.391 . S
H2096 C2104 0.950 . S
H2097 C2109 0.950 . S
H2098 C2106 0.950 1_565 S
H2099 C2108 0.950 . S
H2100 C2110 0.950 . S
H2101 C2112 0.950 . S
H2102 C2114 0.950 . S
H2103 C2115 0.950 . S
C2104 H2096 0.950 . S
C2104 C2105 1.386 . S
C2104 C2106 1.391 . S
C2105 C2104 1.386 . S
C2105 C2109 1.393 . S
C2106 H2098 0.950 1_545 S
C2106 C2104 1.391 . S
C2106 C2107 1.400 1_545 S
C2107 C2106 1.400 1_565 S
C2107 C2108 1.398 1_565 S
C2107 C2113 1.491 . S
C2108 H2099 0.950 . S
C2108 C2107 1.398 1_545 S
C2108 C2109 1.391 . S
C2109 H2097 0.950 . S
C2109 C2105 1.393 . S
C2109 C2108 1.391 . S
C2110 H2100 0.950 . S
C2110 C2111 1.386 . S
C2110 C2112 1.391 . S
C2111 C2110 1.386 . S
C2111 C2115 1.393 . S
C2112 H2101 0.950 . S
C2112 C2110 1.391 . S
C2112 C2113 1.400 . S
C2113 C2107 1.491 . S
C2113 C2112 1.400 . S
C2113 C2114 1.398 . S
C2114 H2102 0.950 . S
C2114 C2113 1.398 . S
C2114 C2115 1.391 . S
C2115 H2103 0.950 . S
C2115 C2111 1.393 . S
C2115 C2114 1.391 . S
H2116 C2124 0.950 . S
H2117 C2129 0.950 . S
H2118 C2126 0.950 . S
H2119 C2128 0.950 . S
H2120 C2130 0.950 . S
H2121 C2132 0.950 . S
H2122 C2134 0.950 . S
H2123 C2135 0.950 . S
C2124 H2116 0.950 . S
C2124 C2125 1.386 . S
C2124 C2126 1.391 . S
C2125 C2124 1.386 . S
C2125 C2129 1.393 . S
C2126 H2118 0.950 . S
C2126 C2124 1.391 . S
C2126 C2127 1.400 . S
C2127 C2126 1.400 . S
C2127 C2128 1.398 . S
C2127 C2133 1.491 . S
C2128 H2119 0.950 . S
C2128 C2127 1.398 . S
C2128 C2129 1.391 . S
C2129 H2117 0.950 . S
C2129 C2125 1.393 . S
C2129 C2128 1.391 . S
C2130 H2120 0.950 . S
C2130 C2131 1.386 . S
C2130 C2132 1.391 . S
C2131 C2130 1.386 . S
C2131 C2135 1.393 . S
C2132 H2121 0.950 . S
C2132 C2130 1.391 . S
C2132 C2133 1.400 . S
C2133 C2127 1.491 . S
C2133 C2132 1.400 . S
C2133 C2134 1.398 . S
C2134 H2122 0.950 . S
C2134 C2133 1.398 . S
C2134 C2135 1.391 . S
C2135 H2123 0.950 . S
C2135 C2131 1.393 . S
C2135 C2134 1.391 . S
H2136 C2144 0.950 . S
H2137 C2149 0.950 . S
H2138 C2146 0.950 . S
H2139 C2148 0.950 . S
H2140 C2150 0.950 . S
H2141 C2152 0.950 . S
H2142 C2154 0.950 . S
H2143 C2155 0.950 . S
C2144 H2136 0.950 . S
C2144 C2145 1.386 . S
C2144 C2146 1.391 . S
C2145 C2144 1.386 . S
C2145 C2149 1.393 . S
C2146 H2138 0.950 . S
C2146 C2144 1.391 . S
C2146 C2147 1.400 . S
C2147 C2146 1.400 . S
C2147 C2148 1.398 . S
C2147 C2153 1.491 . S
C2148 H2139 0.950 . S
C2148 C2147 1.398 . S
C2148 C2149 1.391 . S
C2149 H2137 0.950 . S
C2149 C2145 1.393 . S
C2149 C2148 1.391 . S
C2150 H2140 0.950 . S
C2150 C2151 1.386 . S
C2150 C2152 1.391 . S
C2151 C2150 1.386 . S
C2151 C2155 1.393 . S
C2152 H2141 0.950 . S
C2152 C2150 1.391 . S
C2152 C2153 1.400 . S
C2153 C2147 1.491 . S
C2153 C2152 1.400 . S
C2153 C2154 1.398 . S
C2154 H2142 0.950 . S
C2154 C2153 1.398 . S
C2154 C2155 1.391 . S
C2155 H2143 0.950 . S
C2155 C2151 1.393 . S
C2155 C2154 1.391 . S
H2156 C2164 0.950 . S
H2157 C2169 0.950 . S
H2158 C2166 0.950 1_554 S
H2159 C2168 0.950 . S
H2160 C2170 0.950 . S
H2161 C2172 0.950 . S
H2162 C2174 0.950 . S
H2163 C2175 0.950 . S
C2164 H2156 0.950 . S
C2164 C2165 1.386 . S
C2164 C2166 1.391 . S
C2165 C2164 1.386 . S
C2165 C2169 1.393 . S
C2166 H2158 0.950 1_556 S
C2166 C2164 1.391 . S
C2166 C2167 1.400 1_556 S
C2167 C2166 1.400 1_554 S
C2167 C2168 1.398 1_554 S
C2167 C2173 1.491 . S
C2168 H2159 0.950 . S
C2168 C2167 1.398 1_556 S
C2168 C2169 1.391 . S
C2169 H2157 0.950 . S
C2169 C2165 1.393 . S
C2169 C2168 1.391 . S
C2170 H2160 0.950 . S
C2170 C2171 1.386 . S
C2170 C2172 1.391 . S
C2171 C2170 1.386 . S
C2171 C2175 1.393 . S
C2172 H2161 0.950 . S
C2172 C2170 1.391 . S
C2172 C2173 1.400 . S
C2173 C2167 1.491 . S
C2173 C2172 1.400 . S
C2173 C2174 1.398 . S
C2174 H2162 0.950 . S
C2174 C2173 1.398 . S
C2174 C2175 1.391 . S
C2175 H2163 0.950 . S
C2175 C2171 1.393 . S
C2175 C2174 1.391 . S
H2176 C2184 0.950 . S
H2177 C2189 0.950 . S
H2178 C2186 0.950 . S
H2179 C2188 0.950 . S
H2180 C2190 0.950 . S
H2181 C2192 0.950 . S
H2182 C2194 0.950 . S
H2183 C2195 0.950 . S
C2184 H2176 0.950 . S
C2184 C2185 1.386 . S
C2184 C2186 1.391 . S
C2185 C2184 1.386 . S
C2185 C2189 1.393 . S
C2186 H2178 0.950 . S
C2186 C2184 1.391 . S
C2186 C2187 1.400 . S
C2187 C2186 1.400 . S
C2187 C2188 1.398 . S
C2187 C2193 1.491 . S
C2188 H2179 0.950 . S
C2188 C2187 1.398 . S
C2188 C2189 1.391 . S
C2189 H2177 0.950 . S
C2189 C2185 1.393 . S
C2189 C2188 1.391 . S
C2190 H2180 0.950 . S
C2190 C2191 1.386 . S
C2190 C2192 1.391 . S
C2191 C2190 1.386 . S
C2191 C2195 1.393 . S
C2192 H2181 0.950 . S
C2192 C2190 1.391 . S
C2192 C2193 1.400 . S
C2193 C2187 1.491 . S
C2193 C2192 1.400 . S
C2193 C2194 1.398 . S
C2194 H2182 0.950 . S
C2194 C2193 1.398 . S
C2194 C2195 1.391 . S
C2195 H2183 0.950 . S
C2195 C2191 1.393 . S
C2195 C2194 1.391 . S
H2196 C2204 0.950 . S
H2197 C2209 0.950 . S
H2198 C2206 0.950 1_556 S
H2199 C2208 0.950 . S
H2200 C2210 0.950 . S
H2201 C2212 0.950 . S
H2202 C2214 0.950 . S
H2203 C2215 0.950 . S
C2204 H2196 0.950 . S
C2204 C2205 1.386 . S
C2204 C2206 1.391 . S
C2205 C2204 1.386 . S
C2205 C2209 1.393 . S
C2206 H2198 0.950 1_554 S
C2206 C2204 1.391 . S
C2206 C2207 1.400 1_554 S
C2207 C2206 1.400 1_556 S
C2207 C2208 1.398 1_556 S
C2207 C2213 1.491 . S
C2208 H2199 0.950 . S
C2208 C2207 1.398 1_554 S
C2208 C2209 1.391 . S
C2209 H2197 0.950 . S
C2209 C2205 1.393 . S
C2209 C2208 1.391 . S
C2210 H2200 0.950 . S
C2210 C2211 1.386 . S
C2210 C2212 1.391 . S
C2211 C2210 1.386 . S
C2211 C2215 1.393 . S
C2212 H2201 0.950 . S
C2212 C2210 1.391 . S
C2212 C2213 1.400 . S
C2213 C2207 1.491 . S
C2213 C2212 1.400 . S
C2213 C2214 1.398 . S
C2214 H2202 0.950 . S
C2214 C2213 1.398 . S
C2214 C2215 1.391 . S
C2215 H2203 0.950 . S
C2215 C2211 1.393 . S
C2215 C2214 1.391 . S
H2216 C2224 0.950 . S
H2217 C2229 0.950 . S
H2218 C2226 0.950 . S
H2219 C2228 0.950 . S
H2220 C2230 0.950 . S
H2221 C2232 0.950 . S
H2222 C2234 0.950 . S
H2223 C2235 0.950 . S
C2224 H2216 0.950 . S
C2224 C2225 1.386 . S
C2224 C2226 1.391 . S
C2225 C2224 1.386 . S
C2225 C2229 1.393 . S
C2226 H2218 0.950 . S
C2226 C2224 1.391 . S
C2226 C2227 1.400 . S
C2227 C2226 1.400 . S
C2227 C2228 1.398 . S
C2227 C2233 1.491 . S
C2228 H2219 0.950 . S
C2228 C2227 1.398 . S
C2228 C2229 1.391 . S
C2229 H2217 0.950 . S
C2229 C2225 1.393 . S
C2229 C2228 1.391 . S
C2230 H2220 0.950 . S
C2230 C2231 1.386 . S
C2230 C2232 1.391 . S
C2231 C2230 1.386 . S
C2231 C2235 1.393 . S
C2232 H2221 0.950 . S
C2232 C2230 1.391 . S
C2232 C2233 1.400 . S
C2233 C2227 1.491 . S
C2233 C2232 1.400 . S
C2233 C2234 1.398 . S
C2234 H2222 0.950 . S
C2234 C2233 1.398 . S
C2234 C2235 1.391 . S
C2235 H2223 0.950 . S
C2235 C2231 1.393 . S
C2235 C2234 1.391 . S
H2236 C2244 0.950 . S
H2237 C2249 0.950 . S
H2238 C2246 0.950 . S
H2239 C2248 0.950 . S
H2240 C2250 0.950 . S
H2241 C2252 0.950 . S
H2242 C2254 0.950 1_655 S
H2243 C2255 0.950 . S
C2244 H2236 0.950 . S
C2244 C2245 1.386 . S
C2244 C2246 1.391 . S
C2245 C2244 1.386 . S
C2245 C2249 1.393 . S
C2246 H2238 0.950 . S
C2246 C2244 1.391 . S
C2246 C2247 1.400 . S
C2247 C2246 1.400 . S
C2247 C2248 1.398 . S
C2247 C2253 1.491 . S
C2248 H2239 0.950 . S
C2248 C2247 1.398 . S
C2248 C2249 1.391 . S
C2249 H2237 0.950 . S
C2249 C2245 1.393 . S
C2249 C2248 1.391 . S
C2250 H2240 0.950 . S
C2250 C2251 1.386 . S
C2250 C2252 1.391 . S
C2251 C2250 1.386 . S
C2251 C2255 1.393 . S
C2252 H2241 0.950 . S
C2252 C2250 1.391 . S
C2252 C2253 1.400 1_455 S
C2253 C2247 1.491 . S
C2253 C2252 1.400 1_655 S
C2253 C2254 1.398 1_655 S
C2254 H2242 0.950 1_455 S
C2254 C2253 1.398 1_455 S
C2254 C2255 1.391 . S
C2255 H2243 0.950 . S
C2255 C2251 1.393 . S
C2255 C2254 1.391 . S
H2256 C2264 0.950 . S
H2257 C2269 0.950 . S
H2258 C2266 0.950 . S
H2259 C2268 0.950 . S
H2260 C2270 0.950 . S
H2261 C2272 0.950 1_455 S
H2262 C2274 0.950 . S
H2263 C2275 0.950 . S
C2264 H2256 0.950 . S
C2264 C2265 1.386 . S
C2264 C2266 1.391 . S
C2265 C2264 1.386 . S
C2265 C2269 1.393 . S
C2266 H2258 0.950 . S
C2266 C2264 1.391 . S
C2266 C2267 1.400 . S
C2267 C2266 1.400 . S
C2267 C2268 1.398 . S
C2267 C2273 1.491 . S
C2268 H2259 0.950 . S
C2268 C2267 1.398 . S
C2268 C2269 1.391 . S
C2269 H2257 0.950 . S
C2269 C2265 1.393 . S
C2269 C2268 1.391 . S
C2270 H2260 0.950 . S
C2270 C2271 1.386 . S
C2270 C2272 1.391 . S
C2271 C2270 1.386 . S
C2271 C2275 1.393 . S
C2272 H2261 0.950 1_655 S
C2272 C2270 1.391 . S
C2272 C2273 1.400 1_655 S
C2273 C2267 1.491 . S
C2273 C2272 1.400 1_455 S
C2273 C2274 1.398 1_455 S
C2274 H2262 0.950 . S
C2274 C2273 1.398 1_655 S
C2274 C2275 1.391 . S
C2275 H2263 0.950 . S
C2275 C2271 1.393 . S
C2275 C2274 1.391 . S
H2276 C2284 0.950 . S
H2277 C2289 0.950 . S
H2278 C2286 0.950 . S
H2279 C2288 0.950 . S
H2280 C2290 0.950 . S
H2281 C2292 0.950 . S
H2282 C2294 0.950 . S
H2283 C2295 0.950 . S
C2284 H2276 0.950 . S
C2284 C2285 1.386 . S
C2284 C2286 1.391 . S
C2285 C2284 1.386 . S
C2285 C2289 1.393 . S
C2286 H2278 0.950 . S
C2286 C2284 1.391 . S
C2286 C2287 1.400 . S
C2287 C2286 1.400 . S
C2287 C2288 1.398 . S
C2287 C2293 1.491 . S
C2288 H2279 0.950 . S
C2288 C2287 1.398 . S
C2288 C2289 1.391 . S
C2289 H2277 0.950 . S
C2289 C2285 1.393 . S
C2289 C2288 1.391 . S
C2290 H2280 0.950 . S
C2290 C2291 1.386 . S
C2290 C2292 1.391 . S
C2291 C2290 1.386 . S
C2291 C2295 1.393 . S
C2292 H2281 0.950 . S
C2292 C2290 1.391 . S
C2292 C2293 1.400 . S
C2293 C2287 1.491 . S
C2293 C2292 1.400 . S
C2293 C2294 1.398 . S
C2294 H2282 0.950 . S
C2294 C2293 1.398 . S
C2294 C2295 1.391 . S
C2295 H2283 0.950 . S
C2295 C2291 1.393 . S
C2295 C2294 1.391 . S
H2296 C2304 0.950 . S
H2297 C2309 0.950 . S
H2298 C2306 0.950 . S
H2299 C2308 0.950 . S
H2300 C2310 0.950 . S
H2301 C2312 0.950 . S
H2302 C2314 0.950 . S
H2303 C2315 0.950 . S
C2304 H2296 0.950 . S
C2304 C2305 1.386 . S
C2304 C2306 1.391 . S
C2305 C2304 1.386 . S
C2305 C2309 1.393 . S
C2306 H2298 0.950 . S
C2306 C2304 1.391 . S
C2306 C2307 1.400 . S
C2307 C2306 1.400 . S
C2307 C2308 1.398 . S
C2307 C2313 1.491 . S
C2308 H2299 0.950 . S
C2308 C2307 1.398 . S
C2308 C2309 1.391 . S
C2309 H2297 0.950 . S
C2309 C2305 1.393 . S
C2309 C2308 1.391 . S
C2310 H2300 0.950 . S
C2310 C2311 1.386 . S
C2310 C2312 1.391 . S
C2311 C2310 1.386 . S
C2311 C2315 1.393 . S
C2312 H2301 0.950 . S
C2312 C2310 1.391 . S
C2312 C2313 1.400 . S
C2313 C2307 1.491 . S
C2313 C2312 1.400 . S
C2313 C2314 1.398 . S
C2314 H2302 0.950 . S
C2314 C2313 1.398 . S
C2314 C2315 1.391 . S
C2315 H2303 0.950 . S
C2315 C2311 1.393 . S
C2315 C2314 1.391 . S
H2316 C2324 0.950 . S
H2317 C2329 0.950 . S
H2318 C2326 0.950 . S
H2319 C2328 0.950 . S
H2320 C2330 0.950 . S
H2321 C2332 0.950 . S
H2322 C2334 0.950 1_565 S
H2323 C2335 0.950 . S
C2324 H2316 0.950 . S
C2324 C2325 1.386 . S
C2324 C2326 1.391 . S
C2325 C2324 1.386 . S
C2325 C2329 1.393 . S
C2326 H2318 0.950 . S
C2326 C2324 1.391 . S
C2326 C2327 1.400 . S
C2327 C2326 1.400 . S
C2327 C2328 1.398 . S
C2327 C2333 1.491 . S
C2328 H2319 0.950 . S
C2328 C2327 1.398 . S
C2328 C2329 1.391 . S
C2329 H2317 0.950 . S
C2329 C2325 1.393 . S
C2329 C2328 1.391 . S
C2330 H2320 0.950 . S
C2330 C2331 1.386 . S
C2330 C2332 1.391 . S
C2331 C2330 1.386 . S
C2331 C2335 1.393 . S
C2332 H2321 0.950 . S
C2332 C2330 1.391 . S
C2332 C2333 1.400 1_545 S
C2333 C2327 1.491 . S
C2333 C2332 1.400 1_565 S
C2333 C2334 1.398 1_565 S
C2334 H2322 0.950 1_545 S
C2334 C2333 1.398 1_545 S
C2334 C2335 1.391 . S
C2335 H2323 0.950 . S
C2335 C2331 1.393 . S
C2335 C2334 1.391 . S
H2336 C2344 0.950 . S
H2337 C2349 0.950 . S
H2338 C2346 0.950 . S
H2339 C2348 0.950 1_545 S
H2340 C2350 0.950 . S
H2341 C2352 0.950 . S
H2342 C2354 0.950 . S
H2343 C2355 0.950 . S
C2344 H2336 0.950 . S
C2344 C2345 1.386 . S
C2344 C2346 1.391 . S
C2345 C2344 1.386 . S
C2345 C2349 1.393 . S
C2346 H2338 0.950 . S
C2346 C2344 1.391 . S
C2346 C2347 1.400 1_565 S
C2347 C2346 1.400 1_545 S
C2347 C2348 1.398 1_545 S
C2347 C2353 1.491 . S
C2348 H2339 0.950 1_565 S
C2348 C2347 1.398 1_565 S
C2348 C2349 1.391 . S
C2349 H2337 0.950 . S
C2349 C2345 1.393 . S
C2349 C2348 1.391 . S
C2350 H2340 0.950 . S
C2350 C2351 1.386 . S
C2350 C2352 1.391 . S
C2351 C2350 1.386 . S
C2351 C2355 1.393 . S
C2352 H2341 0.950 . S
C2352 C2350 1.391 . S
C2352 C2353 1.400 . S
C2353 C2347 1.491 . S
C2353 C2352 1.400 . S
C2353 C2354 1.398 . S
C2354 H2342 0.950 . S
C2354 C2353 1.398 . S
C2354 C2355 1.391 . S
C2355 H2343 0.950 . S
C2355 C2351 1.393 . S
C2355 C2354 1.391 . S
H2356 C2364 0.950 . S
H2357 C2369 0.950 . S
H2358 C2366 0.950 . S
H2359 C2368 0.950 . S
H2360 C2370 0.950 . S
H2361 C2372 0.950 . S
H2362 C2374 0.950 . S
H2363 C2375 0.950 . S
C2364 H2356 0.950 . S
C2364 C2365 1.386 . S
C2364 C2366 1.391 . S
C2365 C2364 1.386 . S
C2365 C2369 1.393 . S
C2366 H2358 0.950 . S
C2366 C2364 1.391 . S
C2366 C2367 1.400 . S
C2367 C2366 1.400 . S
C2367 C2368 1.398 . S
C2367 C2373 1.491 . S
C2368 H2359 0.950 . S
C2368 C2367 1.398 . S
C2368 C2369 1.391 . S
C2369 H2357 0.950 . S
C2369 C2365 1.393 . S
C2369 C2368 1.391 . S
C2370 H2360 0.950 . S
C2370 C2371 1.386 . S
C2370 C2372 1.391 . S
C2371 C2370 1.386 . S
C2371 C2375 1.393 . S
C2372 H2361 0.950 . S
C2372 C2370 1.391 . S
C2372 C2373 1.400 . S
C2373 C2367 1.491 . S
C2373 C2372 1.400 . S
C2373 C2374 1.398 . S
C2374 H2362 0.950 . S
C2374 C2373 1.398 . S
C2374 C2375 1.391 . S
C2375 H2363 0.950 . S
C2375 C2371 1.393 . S
C2375 C2374 1.391 . S
C1425 C524 1.242 . S
C1431 C33 1.234 . S
C1445 C92 1.234 . S
C1451 C701 1.242 . S
C1465 C151 1.242 . S
C1471 C583 1.240 . S
C1485 C210 1.237 . S
C1491 C642 1.241 . S
C1505 C269 1.242 . S
C1511 C52 1.241 . S
C1525 C111 1.246 . S
C1531 C328 1.235 . S
C1545 C387 1.225 . S
C1551 C170 1.249 . S
C1565 C229 1.240 . S
C1571 C446 1.242 . S
C1585 C288 1.249 . S
C1591 C505 1.223 . S
C1605 C406 1.241 . S
C1611 C564 1.242 . S
C1625 C623 1.223 . S
C1631 C465 1.249 . S
C1645 C347 1.243 . S
C1651 C682 1.231 . S
C1665 C1232 1.245 . S
C1671 C741 1.237 . S
C1685 C800 1.223 . S
C1691 C1409 1.249 . S
C1705 C859 1.235 . S
C1711 C1291 1.246 . S
C1725 C1350 1.242 . S
C1731 C918 1.233 . S
C1745 C977 1.224 . S
C1751 C760 1.248 . S
C1765 C819 1.249 . S
C1771 C1036 1.223 . S
C1785 C878 1.249 . S
C1791 C1095 1.223 . S
C1805 C1154 1.239 . S
C1811 C937 1.244 . S
C1825 C1213 1.232 . S
C1831 C996 1.247 . S
C1845 C1114 1.248 . S
C1851 C1272 1.224 . S
C1865 C1173 1.248 . S
C1871 C1331 1.223 . S
C1885 C1390 1.231 . S
C1891 C1055 1.248 . S
C1905 C1303 1.503 . S
C1911 C3 1.485 . S
C1925 C1244 1.509 . S
C1931 C62 1.500 . S
C1945 C1362 1.503 . S
C1951 C121 1.486 . S
C1965 C180 1.498 . S
C1971 C1185 1.511 . S
C1985 C239 1.497 . S
C1991 C772 1.506 . S
C2005 C713 1.503 . S
C2011 C298 1.489 . S
C2025 C890 1.510 . S
C2031 C357 1.491 . S
C2045 C831 1.503 . S
C2051 C416 1.488 . S
C2065 C475 1.490 . S
C2071 C1067 1.510 . S
C2085 C949 1.502 . S
C2091 C534 1.487 . S
C2105 C1008 1.511 . S
C2111 C593 1.495 . S
C2125 C1126 1.503 . S
C2131 C652 1.486 . S
C2145 C595 1.510 . S
C2151 C711 1.490 . S
C2165 C536 1.504 . S
C2171 C770 1.495 . S
C2185 C829 1.485 . S
C2191 C654 1.503 . S
C2205 C477 1.503 . S
C2211 C888 1.485 . S
C2225 C947 1.494 . S
C2231 C64 1.511 . S
C2245 C1006 1.493 . S
C2251 C5 1.503 . S
C2265 C1065 1.496 . S
C2271 C182 1.511 . S
C2285 C1124 1.496 . S
C2291 C123 1.511 . S
C2305 C1183 1.485 . S
C2311 C359 1.506 . S
C2325 C1242 1.500 . S
C2331 C241 1.508 . S
C2345 C300 1.510 . S
C2351 C1301 1.500 . S
C2365 C1360 1.495 . S
C2371 C418 1.511 . S
