# Generated by pormake.
# Topology lhb, (8)-cn, num edge types: 1
# Building blocks:
#     Node 0, Type 0, BuildingBlock: GIZVER_clean_sbu_0, # of connection points: 8
#     Node 1, Type 0, BuildingBlock: GIZVER_clean_sbu_0, # of connection points: 8
#     Node 2, Type 0, BuildingBlock: GIZVER_clean_sbu_0, # of connection points: 8
#     Node 3, Type 0, BuildingBlock: GIZVER_clean_sbu_0, # of connection points: 8
#     Node 4, Type 0, BuildingBlock: GIZVER_clean_sbu_0, # of connection points: 8
#     Node 5, Type 0, BuildingBlock: GIZVER_clean_sbu_0, # of connection points: 8
#     Node 6, Type 0, BuildingBlock: GIZVER_clean_sbu_0, # of connection points: 8
#     Node 7, Type 0, BuildingBlock: GIZVER_clean_sbu_0, # of connection points: 8
#     Edge 8, Type (0, 0), None
#     Edge 9, Type (0, 0), None
#     Edge 10, Type (0, 0), None
#     Edge 11, Type (0, 0), None
#     Edge 12, Type (0, 0), None
#     Edge 13, Type (0, 0), None
#     Edge 14, Type (0, 0), None
#     Edge 15, Type (0, 0), None
#     Edge 16, Type (0, 0), None
#     Edge 17, Type (0, 0), None
#     Edge 18, Type (0, 0), None
#     Edge 19, Type (0, 0), None
#     Edge 20, Type (0, 0), None
#     Edge 21, Type (0, 0), None
#     Edge 22, Type (0, 0), None
#     Edge 23, Type (0, 0), None
#     Edge 24, Type (0, 0), None
#     Edge 25, Type (0, 0), None
#     Edge 26, Type (0, 0), None
#     Edge 27, Type (0, 0), None
#     Edge 28, Type (0, 0), None
#     Edge 29, Type (0, 0), None
#     Edge 30, Type (0, 0), None
#     Edge 31, Type (0, 0), None
#     Edge 32, Type (0, 0), None
#     Edge 33, Type (0, 0), None
#     Edge 34, Type (0, 0), None
#     Edge 35, Type (0, 0), None
#     Edge 36, Type (0, 0), None
#     Edge 37, Type (0, 0), None
#     Edge 38, Type (0, 0), None
#     Edge 39, Type (0, 0), None
# Relax obj value: 0.061
# Max RMSD: 0.163
# Mean RMSD: 0.163
data_MOF--net-lhb--node1-GIZVER_clean_sbu_0--edge1-none
_symmetry_space_group_name_H-M    P1
_symmetry_Int_Tables_number       1
_symmetry_cell_setting            triclinic
loop_
_symmetry_equiv_pos_as_xyz
'x, y, z'
_cell_length_a     12.196243
_cell_length_b     7.1723274
_cell_length_c     42.109531
_cell_angle_alpha  94.185237
_cell_angle_beta   89.999708
_cell_angle_gamma 90.000128
loop_
_atom_site_label
_atom_site_type_symbol
_atom_site_fract_x
_atom_site_fract_y
_atom_site_fract_z
_atom_type_partial_charge
Co0 Co 0.15199 0.9617 1.00914 0.0
Co1 Co 0.05657 0.23272 1.01822 0.0
Co2 Co 0.00775 0.02817 0.07953 0.0
O3 O 0.02258 0.01196 1.03287 0.0
H4 H 0.95784 0.96079 1.02226 0.0
O5 O 0.98314 0.05742 0.12634 0.0
Co6 Co 0.85656 0.96747 0.14815 0.0
Co7 Co 0.04435 0.85209 0.14375 0.0
H8 H 0.01253 0.17304 0.13608 0.0
O9 O 0.9604 0.32171 0.9933 0.0
O10 O 0.12261 0.17686 0.97995 0.0
O11 O 0.09673 0.42079 1.0484 0.0
O12 O 0.97331 0.30479 0.08108 0.0
O13 O 0.85186 0.93956 0.07312 0.0
O14 O 0.7419 0.88589 0.16957 0.0
O15 O 0.84369 0.14382 0.18082 0.0
O16 O 0.84402 0.76714 0.1152 0.0
O17 O 0.04921 0.7561 0.07597 0.0
O18 O 0.03755 0.61713 0.12157 0.0
O19 O 0.96582 0.85296 0.17877 0.0
O20 O 0.14952 0.90723 0.17088 0.0
C21 C 0.18783 0.77965 0.96979 0.0
C22 C 0.23924 0.16153 1.06957 0.0
C23 C 0.04116 0.43295 0.0738 0.0
C24 C 0.03297 0.26739 0.97228 0.0
C25 C 0.76711 0.027 0.18891 0.0
C26 C 0.81904 0.79269 0.08614 0.0
C27 C 0.04418 0.61087 0.09171 0.0
C28 C 0.06244 0.9212 0.18881 0.0
O29 O 0.26439 0.88409 0.98328 0.0
O30 O 0.08826 0.79748 0.9807 0.0
O31 O 0.1646 0.0996 0.08724 0.0
O32 O 0.23815 0.1321 1.03899 0.0
Co33 Co 0.41054 0.21746 0.39815 0.0
Co34 Co 0.22275 0.10206 0.39375 0.0
Co35 Co 0.25934 0.27816 0.32953 0.0
O36 O 0.28395 0.30741 0.37634 0.0
H37 H 0.25456 0.42302 0.38608 0.0
O38 O 0.24451 0.26195 0.28287 0.0
Co39 Co 0.1151 0.21169 0.25914 0.0
Co40 Co 0.21052 0.4827 0.26822 0.0
H41 H 0.30925 0.21077 0.27226 0.0
O42 O 0.11758 0.15719 0.42088 0.0
O43 O 0.30128 0.10294 0.42877 0.0
O44 O 0.22956 0.86711 0.37157 0.0
O45 O 0.21788 1.0061 0.32598 0.0
O46 O 0.1025 0.3496 0.33724 0.0
O47 O 0.0027 0.1341 0.23328 0.0
O48 O 0.17883 0.04747 0.2307 0.0
O49 O 0.02894 0.38209 0.28899 0.0
O50 O 0.29379 0.55478 0.33108 0.0
O51 O 0.17037 0.67077 0.29841 0.0
O52 O 0.14449 0.42686 0.22995 0.0
O53 O 0.3067 0.57169 0.2433 0.0
C54 C 0.49998 0.27701 0.43891 0.0
C55 C 0.44805 0.04268 0.33614 0.0
C56 C 0.22293 0.86086 0.34171 0.0
C57 C 0.20466 0.17115 0.43882 0.0
C58 C 0.07927 0.02968 0.21979 0.0
C59 C 0.02786 0.41153 0.31957 0.0
C60 C 0.22595 0.68296 0.3238 0.0
C61 C 0.23414 0.51735 0.22228 0.0
O62 O 0.52519 0.1359 0.41957 0.0
O63 O 0.42339 0.39382 0.43083 0.0
O64 O 0.41523 0.18956 0.32312 0.0
O65 O 0.42308 0.01714 0.3652 0.0
Co66 Co 0.91054 0.71745 0.39815 0.0
Co67 Co 0.72275 0.60207 0.39375 0.0
Co68 Co 0.75933 0.77816 0.32953 0.0
O69 O 0.78396 0.80741 0.37634 0.0
H70 H 0.75456 0.92302 0.38608 0.0
O71 O 0.74451 0.76195 0.28287 0.0
Co72 Co 0.61509 0.7117 0.25914 0.0
Co73 Co 0.71051 0.98271 0.26822 0.0
H74 H 0.80925 0.71078 0.27226 0.0
O75 O 0.61758 0.6572 0.42088 0.0
O76 O 0.80128 0.60294 0.42877 0.0
O77 O 0.72956 0.36712 0.37157 0.0
O78 O 0.71787 0.50609 0.32598 0.0
O79 O 0.6025 0.8496 0.33724 0.0
O80 O 0.5027 0.6341 0.23328 0.0
O81 O 0.67882 0.54748 0.2307 0.0
O82 O 0.52893 0.8821 0.28899 0.0
O83 O 0.79378 0.05478 0.33108 0.0
O84 O 0.67035 0.17076 0.29841 0.0
O85 O 0.64449 0.92686 0.22995 0.0
O86 O 0.8067 0.07172 0.24331 0.0
C87 C 0.99998 0.777 0.43891 0.0
C88 C 0.94804 0.54268 0.33614 0.0
C89 C 0.72292 0.36086 0.34171 0.0
C90 C 0.70466 0.67116 0.43882 0.0
C91 C 0.57926 0.52966 0.21979 0.0
C92 C 0.52784 0.91149 0.31957 0.0
C93 C 0.72594 0.18296 0.3238 0.0
C94 C 0.73413 0.01742 0.22229 0.0
O95 O 0.02519 0.63589 0.41957 0.0
O96 O 0.9234 0.89381 0.43082 0.0
O97 O 0.91522 0.68956 0.32312 0.0
O98 O 0.92308 0.51713 0.3652 0.0
Co99 Co 0.15199 0.46167 0.50914 0.0
Co100 Co 0.05657 0.73268 0.51822 0.0
Co101 Co 0.00775 0.52813 0.57953 0.0
O102 O 0.02258 0.51192 0.53287 0.0
H103 H 0.95784 0.46075 0.52226 0.0
O104 O 0.98314 0.55739 0.62634 0.0
Co105 Co 0.85655 0.46744 0.64815 0.0
Co106 Co 0.04435 0.35205 0.64375 0.0
H107 H 0.01252 0.673 0.63608 0.0
O108 O 0.96039 0.82169 0.49331 0.0
O109 O 0.12261 0.67684 0.47995 0.0
O110 O 0.09673 0.92075 0.54841 0.0
O111 O 0.9733 0.80475 0.58108 0.0
O112 O 0.85186 0.43953 0.57312 0.0
O113 O 0.7419 0.38587 0.66957 0.0
O114 O 0.84369 0.64379 0.68082 0.0
O115 O 0.84402 0.2671 0.6152 0.0
O116 O 0.04921 0.25606 0.57598 0.0
O117 O 0.03754 0.1171 0.62158 0.0
O118 O 0.96581 0.35294 0.67877 0.0
O119 O 0.14951 0.40719 0.67089 0.0
C120 C 0.18782 0.27966 0.46979 0.0
C121 C 0.23924 0.6615 0.56957 0.0
C122 C 0.04116 0.93292 0.5738 0.0
C123 C 0.03298 0.76743 0.47229 0.0
C124 C 0.76711 0.52698 0.68891 0.0
C125 C 0.81904 0.29265 0.58614 0.0
C126 C 0.04417 0.11083 0.59171 0.0
C127 C 0.06243 0.42117 0.68882 0.0
O128 O 0.26439 0.38407 0.48328 0.0
O129 O 0.08826 0.29746 0.4807 0.0
O130 O 0.1646 0.59957 0.58724 0.0
O131 O 0.23815 0.63206 0.53899 0.0
Co132 Co 0.41053 0.71746 0.89815 0.0
Co133 Co 0.22274 0.60206 0.89375 0.0
Co134 Co 0.25933 0.77815 0.82953 0.0
O135 O 0.28395 0.8074 0.87634 0.0
H136 H 0.25455 0.92301 0.88608 0.0
O137 O 0.24451 0.76194 0.78287 0.0
Co138 Co 0.11509 0.71167 0.75914 0.0
Co139 Co 0.21051 0.98269 0.76822 0.0
H140 H 0.30925 0.71076 0.77226 0.0
O141 O 0.11758 0.65719 0.92089 0.0
O142 O 0.30128 0.60294 0.92877 0.0
O143 O 0.22956 0.36711 0.87157 0.0
O144 O 0.21787 0.50609 0.82598 0.0
O145 O 0.10249 0.84959 0.83724 0.0
O146 O 0.00269 0.63408 0.73328 0.0
O147 O 0.17883 0.54745 0.7307 0.0
O148 O 0.02893 0.88208 0.78899 0.0
O149 O 0.29378 0.05477 0.83108 0.0
O150 O 0.17036 0.17076 0.79841 0.0
O151 O 0.14449 0.92684 0.72995 0.0
O152 O 0.30669 0.07168 0.7433 0.0
C153 C 0.49998 0.77702 0.93891 0.0
C154 C 0.44805 0.54268 0.83614 0.0
C155 C 0.22292 0.36085 0.84171 0.0
C156 C 0.20466 0.67113 0.93882 0.0
C157 C 0.07926 0.52966 0.71979 0.0
C158 C 0.02785 0.91152 0.81957 0.0
C159 C 0.22594 0.18295 0.8238 0.0
C160 C 0.23414 0.01733 0.72228 0.0
O161 O 0.52519 0.6359 0.91957 0.0
O162 O 0.42339 0.89382 0.93082 0.0
O163 O 0.41522 0.68955 0.82312 0.0
O164 O 0.42307 0.51713 0.8652 0.0
Co165 Co 0.91054 0.21745 0.89815 0.0
Co166 Co 0.72275 0.10207 0.89375 0.0
Co167 Co 0.75933 0.27816 0.82953 0.0
O168 O 0.78395 0.30741 0.87634 0.0
H169 H 0.75457 0.42302 0.88608 0.0
O170 O 0.7445 0.26195 0.78287 0.0
Co171 Co 0.61509 0.21168 0.75914 0.0
Co172 Co 0.7105 0.4827 0.76822 0.0
H173 H 0.80924 0.21077 0.77226 0.0
O174 O 0.61758 0.15721 0.92089 0.0
O175 O 0.80129 0.10295 0.92877 0.0
O176 O 0.72955 0.86711 0.87157 0.0
O177 O 0.71787 1.00609 0.82598 0.0
O178 O 0.60249 0.34959 0.83724 0.0
O179 O 0.5027 0.13408 0.73328 0.0
O180 O 0.67882 0.04746 0.7307 0.0
O181 O 0.52893 0.38209 0.78899 0.0
O182 O 0.79378 0.55478 0.83108 0.0
O183 O 0.67034 0.67075 0.79841 0.0
O184 O 0.64448 0.42685 0.72995 0.0
O185 O 0.80669 0.57172 0.74331 0.0
C186 C 0.99999 0.27699 0.9389 0.0
C187 C 0.94804 0.04267 0.83614 0.0
C188 C 0.72292 0.86086 0.84171 0.0
C189 C 0.70466 0.17116 0.93882 0.0
C190 C 0.57925 0.02964 0.71979 0.0
C191 C 0.52784 0.41148 0.81958 0.0
C192 C 0.72593 0.68295 0.8238 0.0
C193 C 0.73412 0.51741 0.72229 0.0
O194 O 0.0252 0.13586 0.91956 0.0
O195 O 0.9234 0.39382 0.93082 0.0
O196 O 0.91522 0.18956 0.82312 0.0
O197 O 0.92307 0.01712 0.8652 0.0
Co198 Co 0.652 0.96168 0.50914 0.0
Co199 Co 0.55657 0.23269 0.51822 0.0
Co200 Co 0.50775 0.02813 0.57953 0.0
O201 O 0.52258 0.01193 0.53287 0.0
H202 H 0.45784 0.96076 0.52226 0.0
O203 O 0.48313 0.05739 0.62634 0.0
Co204 Co 0.35655 0.96742 0.64815 0.0
Co205 Co 0.54435 0.85206 0.64375 0.0
H206 H 0.51252 0.17301 0.63608 0.0
O207 O 0.46039 0.32171 0.49331 0.0
O208 O 0.62261 0.17686 0.47995 0.0
O209 O 0.59674 0.42075 0.54841 0.0
O210 O 0.47331 0.30476 0.58108 0.0
O211 O 0.35187 0.93954 0.57312 0.0
O212 O 0.24189 0.88582 0.66956 0.0
O213 O 0.34368 0.14378 0.68082 0.0
O214 O 0.34402 0.76709 0.6152 0.0
O215 O 0.54921 0.75606 0.57598 0.0
O216 O 0.53755 0.6171 0.62158 0.0
O217 O 0.4658 0.85292 0.67877 0.0
O218 O 0.64951 0.90721 0.67089 0.0
C219 C 0.68782 0.77967 0.46979 0.0
C220 C 0.73925 0.16146 0.56957 0.0
C221 C 0.54117 0.43292 0.57381 0.0
C222 C 0.53298 0.26744 0.47229 0.0
C223 C 0.2671 0.02696 0.6889 0.0
C224 C 0.31905 0.79265 0.58614 0.0
C225 C 0.54418 0.61084 0.59171 0.0
C226 C 0.56242 0.92116 0.68882 0.0
O227 O 0.76439 0.88408 0.48328 0.0
O228 O 0.58826 0.79747 0.4807 0.0
O229 O 0.6646 0.09956 0.58724 0.0
O230 O 0.73816 0.13207 0.53899 0.0
Co231 Co 0.652 0.4617 1.00914 0.0
Co232 Co 0.55658 0.73272 1.01822 0.0
Co233 Co 0.50776 0.52817 0.07953 0.0
O234 O 0.52258 0.51196 1.03287 0.0
H235 H 0.45784 0.46079 1.02226 0.0
O236 O 0.48313 0.55742 0.12634 0.0
Co237 Co 0.35655 0.46745 0.14815 0.0
Co238 Co 0.54435 0.35209 0.14375 0.0
H239 H 0.51252 0.67304 0.13608 0.0
O240 O 0.46039 0.82173 0.99331 0.0
O241 O 0.62261 0.67688 0.97995 0.0
O242 O 0.59674 0.92078 1.04841 0.0
O243 O 0.47331 0.80479 0.08108 0.0
O244 O 0.35187 0.43957 0.07312 0.0
O245 O 0.24189 0.38585 0.16956 0.0
O246 O 0.34369 0.64381 0.18082 0.0
O247 O 0.34402 0.26712 0.1152 0.0
O248 O 0.54921 0.2561 0.07597 0.0
O249 O 0.53755 0.11713 0.12157 0.0
O250 O 0.46581 0.35295 0.17876 0.0
O251 O 0.64951 0.40723 0.17088 0.0
C252 C 0.68783 0.27969 0.96979 0.0
C253 C 0.73925 0.6615 1.06957 0.0
C254 C 0.54117 0.93295 0.0738 0.0
C255 C 0.53298 0.76746 0.97229 0.0
C256 C 0.26711 0.52698 0.1889 0.0
C257 C 0.31905 0.29269 0.08614 0.0
C258 C 0.54418 0.11087 0.09171 0.0
C259 C 0.56243 0.42118 0.18882 0.0
O260 O 0.7644 0.38411 0.98328 0.0
O261 O 0.58826 0.29749 0.9807 0.0
O262 O 0.6646 0.5996 0.08724 0.0
O263 O 0.73816 0.6321 1.03899 0.0
loop_
_geom_bond_atom_site_label_1
_geom_bond_atom_site_label_2
_geom_bond_distance
_geom_bond_site_symmetry_2
_ccdc_geom_bond_type
Co0 O3 2.042 1_455 S
Co0 O10 2.264 1_455 S
Co0 O29 2.286 . S
Co0 O30 2.069 1_545 S
Co0 O32 2.015 . S
Co1 O3 2.122 . S
Co1 O9 2.073 . S
Co1 O10 2.327 . S
Co1 O11 1.976 . S
Co2 O3 2.087 1_454 S
Co2 O5 2.087 1_545 S
Co2 O12 2.114 1_455 S
Co2 O13 2.137 1_445 S
Co2 O17 2.109 1_544 S
Co2 O31 2.150 . S
O3 Co0 2.042 1_655 S
O3 Co1 2.122 . S
O3 Co2 2.087 1_656 S
O3 H4 0.980 1_545 S
H4 O3 0.980 1_565 S
O5 Co2 2.087 1_565 S
O5 Co6 2.043 1_455 S
O5 Co7 2.124 . S
O5 H8 0.978 1_565 S
Co6 O5 2.043 1_655 S
Co6 O14 2.286 . S
Co6 O15 2.069 1_565 S
Co6 O16 2.015 . S
Co6 O19 2.264 1_655 S
Co7 O5 2.124 . S
Co7 O18 1.976 . S
Co7 O19 2.327 . S
Co7 O20 2.073 . S
H8 O5 0.978 1_545 S
O9 Co1 2.073 . S
O9 C24 1.245 . S
O10 Co0 2.264 1_655 S
O10 Co1 2.327 . S
O10 C24 1.257 . S
O11 Co1 1.976 . S
O11 C23 1.251 1_556 S
O12 Co2 2.114 1_655 S
O12 C23 1.274 . S
O13 Co2 2.137 1_665 S
O13 C26 1.246 . S
O14 Co6 2.286 . S
O14 C25 1.259 1_565 S
O15 Co6 2.069 1_545 S
O15 C25 1.289 . S
O16 Co6 2.015 . S
O16 C26 1.257 . S
O17 Co2 2.109 1_566 S
O17 C27 1.274 1_556 S
O18 Co7 1.976 . S
O18 C27 1.251 . S
O19 Co6 2.264 1_455 S
O19 Co7 2.327 . S
O19 C28 1.257 . S
O20 Co7 2.073 . S
O20 C28 1.245 . S
C21 O29 1.259 1_565 S
C21 O30 1.289 . S
C22 O31 1.246 1_556 S
C22 O32 1.257 . S
C23 O11 1.251 1_554 S
C23 O12 1.274 . S
C24 O9 1.245 . S
C24 O10 1.257 . S
C25 O14 1.259 1_545 S
C25 O15 1.289 . S
C26 O13 1.246 . S
C26 O16 1.257 . S
C27 O17 1.274 1_554 S
C27 O18 1.251 . S
C28 O19 1.257 . S
C28 O20 1.245 . S
O29 Co0 2.286 . S
O29 C21 1.259 1_545 S
O30 Co0 2.069 1_565 S
O30 C21 1.289 . S
O31 Co2 2.150 . S
O31 C22 1.246 1_554 S
O32 Co0 2.015 . S
O32 C22 1.257 . S
Co33 O36 2.042 . S
Co33 O43 2.264 . S
Co33 O62 2.286 . S
Co33 O63 2.069 . S
Co33 O65 2.015 . S
Co34 O36 2.122 . S
Co34 O42 2.073 . S
Co34 O43 2.327 . S
Co34 O44 1.976 1_545 S
Co35 O36 2.087 . S
Co35 O38 2.087 . S
Co35 O45 2.111 1_545 S
Co35 O46 2.143 . S
Co35 O50 2.111 . S
Co35 O64 2.143 . S
O36 Co33 2.042 . S
O36 Co34 2.122 . S
O36 Co35 2.087 . S
O36 H37 0.980 . S
H37 O36 0.980 . S
O38 Co35 2.087 . S
O38 Co39 2.042 . S
O38 Co40 2.122 . S
O38 H41 0.980 . S
Co39 O38 2.042 . S
Co39 O47 2.286 . S
Co39 O48 2.069 . S
Co39 O49 2.015 . S
Co39 O52 2.264 . S
Co40 O38 2.122 . S
Co40 O51 1.976 . S
Co40 O52 2.327 . S
Co40 O53 2.073 . S
H41 O38 0.980 . S
O42 Co34 2.073 . S
O42 C57 1.245 . S
O43 Co33 2.264 . S
O43 Co34 2.327 . S
O43 C57 1.257 . S
O44 Co34 1.976 1_565 S
O44 C56 1.251 . S
O45 Co35 2.111 1_565 S
O45 C56 1.274 . S
O46 Co35 2.143 . S
O46 C59 1.246 . S
O47 Co39 2.286 . S
O47 C58 1.259 . S
O48 Co39 2.069 . S
O48 C58 1.289 . S
O49 Co39 2.015 . S
O49 C59 1.257 . S
O50 Co35 2.111 . S
O50 C60 1.274 . S
O51 Co40 1.976 . S
O51 C60 1.251 . S
O52 Co39 2.264 . S
O52 Co40 2.327 . S
O52 C61 1.257 . S
O53 Co40 2.073 . S
O53 C61 1.245 . S
C54 O62 1.259 . S
C54 O63 1.289 . S
C55 O64 1.246 . S
C55 O65 1.257 . S
C56 O44 1.251 . S
C56 O45 1.274 . S
C57 O42 1.245 . S
C57 O43 1.257 . S
C58 O47 1.259 . S
C58 O48 1.289 . S
C59 O46 1.246 . S
C59 O49 1.257 . S
C60 O50 1.274 . S
C60 O51 1.251 . S
C61 O52 1.257 . S
C61 O53 1.245 . S
O62 Co33 2.286 . S
O62 C54 1.259 . S
O63 Co33 2.069 . S
O63 C54 1.289 . S
O64 Co35 2.143 . S
O64 C55 1.246 . S
O65 Co33 2.015 . S
O65 C55 1.257 . S
Co66 O69 2.042 . S
Co66 O76 2.264 . S
Co66 O95 2.286 . S
Co66 O96 2.069 . S
Co66 O98 2.015 . S
Co67 O69 2.122 . S
Co67 O75 2.073 . S
Co67 O76 2.327 . S
Co67 O77 1.976 . S
Co68 O69 2.087 . S
Co68 O71 2.087 . S
Co68 O78 2.111 . S
Co68 O79 2.143 . S
Co68 O83 2.111 1_565 S
Co68 O97 2.143 . S
O69 Co66 2.042 . S
O69 Co67 2.122 . S
O69 Co68 2.087 . S
O69 H70 0.980 . S
H70 O69 0.980 . S
O71 Co68 2.087 . S
O71 Co72 2.042 . S
O71 Co73 2.122 . S
O71 H74 0.980 . S
Co72 O71 2.042 . S
Co72 O80 2.286 . S
Co72 O81 2.069 . S
Co72 O82 2.015 . S
Co72 O85 2.264 . S
Co73 O71 2.122 . S
Co73 O84 1.976 1_565 S
Co73 O85 2.327 . S
Co73 O86 2.073 . S
H74 O71 0.980 . S
O75 Co67 2.073 . S
O75 C90 1.245 . S
O76 Co66 2.264 . S
O76 Co67 2.327 . S
O76 C90 1.257 . S
O77 Co67 1.976 . S
O77 C89 1.251 . S
O78 Co68 2.111 . S
O78 C89 1.274 . S
O79 Co68 2.143 . S
O79 C92 1.246 . S
O80 Co72 2.286 . S
O80 C91 1.259 . S
O81 Co72 2.069 . S
O81 C91 1.289 . S
O82 Co72 2.015 . S
O82 C92 1.257 . S
O83 Co68 2.111 1_545 S
O83 C93 1.274 . S
O84 Co73 1.976 1_545 S
O84 C93 1.251 . S
O85 Co72 2.264 . S
O85 Co73 2.327 . S
O85 C94 1.257 . S
O86 Co73 2.073 . S
O86 C94 1.245 . S
C87 O95 1.259 . S
C87 O96 1.289 . S
C88 O97 1.246 . S
C88 O98 1.257 . S
C89 O77 1.251 . S
C89 O78 1.274 . S
C90 O75 1.245 . S
C90 O76 1.257 . S
C91 O80 1.259 . S
C91 O81 1.289 . S
C92 O79 1.246 . S
C92 O82 1.257 . S
C93 O83 1.274 . S
C93 O84 1.251 . S
C94 O85 1.257 . S
C94 O86 1.245 . S
O95 Co66 2.286 . S
O95 C87 1.259 . S
O96 Co66 2.069 . S
O96 C87 1.289 . S
O97 Co68 2.143 . S
O97 C88 1.246 . S
O98 Co66 2.015 . S
O98 C88 1.257 . S
Co99 O102 2.042 1_455 S
Co99 O109 2.264 1_455 S
Co99 O128 2.286 . S
Co99 O129 2.069 . S
Co99 O131 2.015 . S
Co100 O102 2.122 . S
Co100 O108 2.073 . S
Co100 O109 2.327 . S
Co100 O110 1.976 . S
Co101 O102 2.086 1_455 S
Co101 O104 2.088 . S
Co101 O111 2.110 1_455 S
Co101 O112 2.138 1_455 S
Co101 O116 2.113 . S
Co101 O130 2.149 . S
O102 Co99 2.042 1_655 S
O102 Co100 2.122 . S
O102 Co101 2.086 1_655 S
O102 H103 0.980 . S
H103 O102 0.980 . S
O104 Co101 2.088 . S
O104 Co105 2.042 1_455 S
O104 Co106 2.122 . S
O104 H107 0.980 . S
Co105 O104 2.042 1_655 S
Co105 O113 2.286 . S
Co105 O114 2.069 . S
Co105 O115 2.015 . S
Co105 O118 2.264 1_655 S
Co106 O104 2.122 . S
Co106 O117 1.976 . S
Co106 O118 2.327 . S
Co106 O119 2.073 . S
H107 O104 0.980 . S
O108 Co100 2.073 . S
O108 C123 1.245 . S
O109 Co99 2.264 1_655 S
O109 Co100 2.327 . S
O109 C123 1.257 . S
O110 Co100 1.976 . S
O110 C122 1.251 . S
O111 Co101 2.110 1_655 S
O111 C122 1.274 . S
O112 Co101 2.138 1_655 S
O112 C125 1.246 . S
O113 Co105 2.286 . S
O113 C124 1.259 . S
O114 Co105 2.069 . S
O114 C124 1.289 . S
O115 Co105 2.015 . S
O115 C125 1.257 . S
O116 Co101 2.113 . S
O116 C126 1.274 . S
O117 Co106 1.976 . S
O117 C126 1.251 . S
O118 Co105 2.264 1_455 S
O118 Co106 2.327 . S
O118 C127 1.257 . S
O119 Co106 2.073 . S
O119 C127 1.245 . S
C120 O128 1.259 . S
C120 O129 1.289 . S
C121 O130 1.246 . S
C121 O131 1.257 . S
C122 O110 1.251 . S
C122 O111 1.274 . S
C123 O108 1.245 . S
C123 O109 1.257 . S
C124 O113 1.259 . S
C124 O114 1.289 . S
C125 O112 1.246 . S
C125 O115 1.257 . S
C126 O116 1.274 . S
C126 O117 1.251 . S
C127 O118 1.257 . S
C127 O119 1.245 . S
O128 Co99 2.286 . S
O128 C120 1.259 . S
O129 Co99 2.069 . S
O129 C120 1.289 . S
O130 Co101 2.149 . S
O130 C121 1.246 . S
O131 Co99 2.015 . S
O131 C121 1.257 . S
Co132 O135 2.042 . S
Co132 O142 2.264 . S
Co132 O161 2.286 . S
Co132 O162 2.069 . S
Co132 O164 2.015 . S
Co133 O135 2.122 . S
Co133 O141 2.073 . S
Co133 O142 2.327 . S
Co133 O143 1.976 . S
Co134 O135 2.087 . S
Co134 O137 2.087 . S
Co134 O144 2.111 . S
Co134 O145 2.143 . S
Co134 O149 2.111 1_565 S
Co134 O163 2.143 . S
O135 Co132 2.042 . S
O135 Co133 2.122 . S
O135 Co134 2.087 . S
O135 H136 0.980 . S
H136 O135 0.980 . S
O137 Co134 2.087 . S
O137 Co138 2.042 . S
O137 Co139 2.122 . S
O137 H140 0.980 . S
Co138 O137 2.042 . S
Co138 O146 2.286 . S
Co138 O147 2.069 . S
Co138 O148 2.015 . S
Co138 O151 2.264 . S
Co139 O137 2.122 . S
Co139 O150 1.976 1_565 S
Co139 O151 2.327 . S
Co139 O152 2.073 . S
H140 O137 0.980 . S
O141 Co133 2.073 . S
O141 C156 1.245 . S
O142 Co132 2.264 . S
O142 Co133 2.327 . S
O142 C156 1.257 . S
O143 Co133 1.976 . S
O143 C155 1.251 . S
O144 Co134 2.111 . S
O144 C155 1.274 . S
O145 Co134 2.143 . S
O145 C158 1.246 . S
O146 Co138 2.286 . S
O146 C157 1.259 . S
O147 Co138 2.069 . S
O147 C157 1.289 . S
O148 Co138 2.015 . S
O148 C158 1.257 . S
O149 Co134 2.111 1_545 S
O149 C159 1.274 . S
O150 Co139 1.976 1_545 S
O150 C159 1.251 . S
O151 Co138 2.264 . S
O151 Co139 2.327 . S
O151 C160 1.257 . S
O152 Co139 2.073 . S
O152 C160 1.245 . S
C153 O161 1.259 . S
C153 O162 1.289 . S
C154 O163 1.246 . S
C154 O164 1.257 . S
C155 O143 1.251 . S
C155 O144 1.274 . S
C156 O141 1.245 . S
C156 O142 1.257 . S
C157 O146 1.259 . S
C157 O147 1.289 . S
C158 O145 1.246 . S
C158 O148 1.257 . S
C159 O149 1.274 . S
C159 O150 1.251 . S
C160 O151 1.257 . S
C160 O152 1.245 . S
O161 Co132 2.286 . S
O161 C153 1.259 . S
O162 Co132 2.069 . S
O162 C153 1.289 . S
O163 Co134 2.143 . S
O163 C154 1.246 . S
O164 Co132 2.015 . S
O164 C154 1.257 . S
Co165 O168 2.042 . S
Co165 O175 2.264 . S
Co165 O194 2.286 . S
Co165 O195 2.069 . S
Co165 O197 2.015 . S
Co166 O168 2.122 . S
Co166 O174 2.073 . S
Co166 O175 2.327 . S
Co166 O176 1.976 1_545 S
Co167 O168 2.087 . S
Co167 O170 2.087 . S
Co167 O177 2.111 1_545 S
Co167 O178 2.143 . S
Co167 O182 2.111 . S
Co167 O196 2.143 . S
O168 Co165 2.042 . S
O168 Co166 2.122 . S
O168 Co167 2.087 . S
O168 H169 0.980 . S
H169 O168 0.980 . S
O170 Co167 2.087 . S
O170 Co171 2.042 . S
O170 Co172 2.122 . S
O170 H173 0.980 . S
Co171 O170 2.042 . S
Co171 O179 2.286 . S
Co171 O180 2.069 . S
Co171 O181 2.015 . S
Co171 O184 2.264 . S
Co172 O170 2.122 . S
Co172 O183 1.976 . S
Co172 O184 2.327 . S
Co172 O185 2.073 . S
H173 O170 0.980 . S
O174 Co166 2.073 . S
O174 C189 1.245 . S
O175 Co165 2.264 . S
O175 Co166 2.327 . S
O175 C189 1.257 . S
O176 Co166 1.976 1_565 S
O176 C188 1.251 . S
O177 Co167 2.111 1_565 S
O177 C188 1.274 . S
O178 Co167 2.143 . S
O178 C191 1.246 . S
O179 Co171 2.286 . S
O179 C190 1.259 . S
O180 Co171 2.069 . S
O180 C190 1.289 . S
O181 Co171 2.015 . S
O181 C191 1.257 . S
O182 Co167 2.111 . S
O182 C192 1.274 . S
O183 Co172 1.976 . S
O183 C192 1.251 . S
O184 Co171 2.264 . S
O184 Co172 2.327 . S
O184 C193 1.257 . S
O185 Co172 2.073 . S
O185 C193 1.245 . S
C186 O194 1.259 . S
C186 O195 1.289 . S
C187 O196 1.246 . S
C187 O197 1.257 . S
C188 O176 1.251 . S
C188 O177 1.274 . S
C189 O174 1.245 . S
C189 O175 1.257 . S
C190 O179 1.259 . S
C190 O180 1.289 . S
C191 O178 1.246 . S
C191 O181 1.257 . S
C192 O182 1.274 . S
C192 O183 1.251 . S
C193 O184 1.257 . S
C193 O185 1.245 . S
O194 Co165 2.286 . S
O194 C186 1.259 . S
O195 Co165 2.069 . S
O195 C186 1.289 . S
O196 Co167 2.143 . S
O196 C187 1.246 . S
O197 Co165 2.015 . S
O197 C187 1.257 . S
Co198 O201 2.042 . S
Co198 O208 2.264 . S
Co198 O227 2.286 . S
Co198 O228 2.069 1_545 S
Co198 O230 2.015 . S
Co199 O201 2.122 . S
Co199 O207 2.073 . S
Co199 O208 2.327 . S
Co199 O209 1.976 . S
Co200 O201 2.087 . S
Co200 O203 2.086 1_545 S
Co200 O210 2.112 . S
Co200 O211 2.143 1_545 S
Co200 O215 2.110 1_545 S
Co200 O229 2.144 . S
O201 Co198 2.042 . S
O201 Co199 2.122 . S
O201 Co200 2.087 . S
O201 H202 0.980 1_545 S
H202 O201 0.980 1_565 S
O203 Co200 2.086 1_565 S
O203 Co204 2.044 . S
O203 Co205 2.127 . S
O203 H206 0.975 1_565 S
Co204 O203 2.044 . S
Co204 O212 2.286 . S
Co204 O213 2.069 1_565 S
Co204 O214 2.015 . S
Co204 O217 2.264 . S
Co205 O203 2.127 . S
Co205 O216 1.976 . S
Co205 O217 2.327 . S
Co205 O218 2.073 . S
H206 O203 0.975 1_545 S
O207 Co199 2.073 . S
O207 C222 1.245 . S
O208 Co198 2.264 . S
O208 Co199 2.327 . S
O208 C222 1.257 . S
O209 Co199 1.976 . S
O209 C221 1.251 . S
O210 Co200 2.112 . S
O210 C221 1.274 . S
O211 Co200 2.143 1_565 S
O211 C224 1.246 . S
O212 Co204 2.286 . S
O212 C223 1.259 1_565 S
O213 Co204 2.069 1_545 S
O213 C223 1.289 . S
O214 Co204 2.015 . S
O214 C224 1.257 . S
O215 Co200 2.110 1_565 S
O215 C225 1.274 . S
O216 Co205 1.976 . S
O216 C225 1.251 . S
O217 Co204 2.264 . S
O217 Co205 2.327 . S
O217 C226 1.257 . S
O218 Co205 2.073 . S
O218 C226 1.245 . S
C219 O227 1.259 1_565 S
C219 O228 1.289 . S
C220 O229 1.246 . S
C220 O230 1.257 . S
C221 O209 1.251 . S
C221 O210 1.274 . S
C222 O207 1.245 . S
C222 O208 1.257 . S
C223 O212 1.259 1_545 S
C223 O213 1.289 . S
C224 O211 1.246 . S
C224 O214 1.257 . S
C225 O215 1.274 . S
C225 O216 1.251 . S
C226 O217 1.257 . S
C226 O218 1.245 . S
O227 Co198 2.286 . S
O227 C219 1.259 1_545 S
O228 Co198 2.069 1_565 S
O228 C219 1.289 . S
O229 Co200 2.144 . S
O229 C220 1.246 . S
O230 Co198 2.015 . S
O230 C220 1.257 . S
Co231 O234 2.042 . S
Co231 O241 2.264 . S
Co231 O260 2.286 . S
Co231 O261 2.069 . S
Co231 O263 2.015 . S
Co232 O234 2.122 . S
Co232 O240 2.073 . S
Co232 O241 2.327 . S
Co232 O242 1.976 . S
Co233 O234 2.087 1_554 S
Co233 O236 2.087 . S
Co233 O243 2.111 . S
Co233 O244 2.143 . S
Co233 O248 2.111 1_554 S
Co233 O262 2.143 . S
O234 Co231 2.042 . S
O234 Co232 2.122 . S
O234 Co233 2.087 1_556 S
O234 H235 0.980 . S
H235 O234 0.980 . S
O236 Co233 2.087 . S
O236 Co237 2.042 . S
O236 Co238 2.122 . S
O236 H239 0.980 . S
Co237 O236 2.042 . S
Co237 O245 2.286 . S
Co237 O246 2.069 . S
Co237 O247 2.015 . S
Co237 O250 2.264 . S
Co238 O236 2.122 . S
Co238 O249 1.976 . S
Co238 O250 2.327 . S
Co238 O251 2.073 . S
H239 O236 0.980 . S
O240 Co232 2.073 . S
O240 C255 1.245 . S
O241 Co231 2.264 . S
O241 Co232 2.327 . S
O241 C255 1.257 . S
O242 Co232 1.976 . S
O242 C254 1.251 1_556 S
O243 Co233 2.111 . S
O243 C254 1.274 . S
O244 Co233 2.143 . S
O244 C257 1.246 . S
O245 Co237 2.286 . S
O245 C256 1.259 . S
O246 Co237 2.069 . S
O246 C256 1.289 . S
O247 Co237 2.015 . S
O247 C257 1.257 . S
O248 Co233 2.111 1_556 S
O248 C258 1.274 1_556 S
O249 Co238 1.976 . S
O249 C258 1.251 . S
O250 Co237 2.264 . S
O250 Co238 2.327 . S
O250 C259 1.257 . S
O251 Co238 2.073 . S
O251 C259 1.245 . S
C252 O260 1.259 . S
C252 O261 1.289 . S
C253 O262 1.246 1_556 S
C253 O263 1.257 . S
C254 O242 1.251 1_554 S
C254 O243 1.274 . S
C255 O240 1.245 . S
C255 O241 1.257 . S
C256 O245 1.259 . S
C256 O246 1.289 . S
C257 O244 1.246 . S
C257 O247 1.257 . S
C258 O248 1.274 1_554 S
C258 O249 1.251 . S
C259 O250 1.257 . S
C259 O251 1.245 . S
O260 Co231 2.286 . S
O260 C252 1.259 . S
O261 Co231 2.069 . S
O261 C252 1.289 . S
O262 Co233 2.143 . S
O262 C253 1.246 1_554 S
O263 Co231 2.015 . S
O263 C253 1.257 . S
C28 C58 2.283 1_565 S
C25 C94 2.241 1_545 S
C120 C57 2.286 . S
C87 C123 2.238 . S
C127 C157 2.285 . S
C193 C124 2.239 . S
C156 C21 2.289 . S
C186 C24 2.237 . S
C190 C226 2.285 1_545 S
C223 C160 2.239 1_545 S
C252 C189 2.285 . S
C255 C153 2.239 . S
C259 C91 2.286 . S
C61 C256 2.238 . S
C219 C90 2.286 . S
C222 C54 2.239 . S
C27 C23 1.049 1_455 S
C60 C56 1.049 . S
C93 C89 1.049 . S
C122 C126 1.049 1_665 S
C159 C155 1.049 . S
C192 C188 1.049 . S
C225 C221 1.049 . S
C254 C258 1.049 1_565 S
C257 C22 1.968 1_554 S
C26 C253 1.968 1_554 S
C59 C88 1.968 1_455 S
C224 C121 1.968 . S
C125 C220 1.968 . S
C187 C158 1.968 1_645 S
C191 C154 1.968 . S
C92 C55 1.968 1_565 S
