# Generated by pormake.
# Topology ecf, (8)-cn, num edge types: 1
# Building blocks:
#     Node 0, Type 0, BuildingBlock: VETTIZ_charged_sbu_0, # of connection points: 8
#     Node 1, Type 0, BuildingBlock: VETTIZ_charged_sbu_0, # of connection points: 8
#     Node 2, Type 0, BuildingBlock: VETTIZ_charged_sbu_0, # of connection points: 8
#     Node 3, Type 0, BuildingBlock: VETTIZ_charged_sbu_0, # of connection points: 8
#     Node 4, Type 0, BuildingBlock: VETTIZ_charged_sbu_0, # of connection points: 8
#     Node 5, Type 0, BuildingBlock: VETTIZ_charged_sbu_0, # of connection points: 8
#     Edge 6, Type (0, 0), BuildingBlock: XIVTED_clean_linker_0, # of connection points: 2
#     Edge 7, Type (0, 0), BuildingBlock: XIVTED_clean_linker_0, # of connection points: 2
#     Edge 8, Type (0, 0), BuildingBlock: XIVTED_clean_linker_0, # of connection points: 2
#     Edge 9, Type (0, 0), BuildingBlock: XIVTED_clean_linker_0, # of connection points: 2
#     Edge 10, Type (0, 0), BuildingBlock: XIVTED_clean_linker_0, # of connection points: 2
#     Edge 11, Type (0, 0), BuildingBlock: XIVTED_clean_linker_0, # of connection points: 2
#     Edge 12, Type (0, 0), BuildingBlock: XIVTED_clean_linker_0, # of connection points: 2
#     Edge 13, Type (0, 0), BuildingBlock: XIVTED_clean_linker_0, # of connection points: 2
#     Edge 14, Type (0, 0), BuildingBlock: XIVTED_clean_linker_0, # of connection points: 2
#     Edge 15, Type (0, 0), BuildingBlock: XIVTED_clean_linker_0, # of connection points: 2
#     Edge 16, Type (0, 0), BuildingBlock: XIVTED_clean_linker_0, # of connection points: 2
#     Edge 17, Type (0, 0), BuildingBlock: XIVTED_clean_linker_0, # of connection points: 2
#     Edge 18, Type (0, 0), BuildingBlock: XIVTED_clean_linker_0, # of connection points: 2
#     Edge 19, Type (0, 0), BuildingBlock: XIVTED_clean_linker_0, # of connection points: 2
#     Edge 20, Type (0, 0), BuildingBlock: XIVTED_clean_linker_0, # of connection points: 2
#     Edge 21, Type (0, 0), BuildingBlock: XIVTED_clean_linker_0, # of connection points: 2
#     Edge 22, Type (0, 0), BuildingBlock: XIVTED_clean_linker_0, # of connection points: 2
#     Edge 23, Type (0, 0), BuildingBlock: XIVTED_clean_linker_0, # of connection points: 2
#     Edge 24, Type (0, 0), BuildingBlock: XIVTED_clean_linker_0, # of connection points: 2
#     Edge 25, Type (0, 0), BuildingBlock: XIVTED_clean_linker_0, # of connection points: 2
#     Edge 26, Type (0, 0), BuildingBlock: XIVTED_clean_linker_0, # of connection points: 2
#     Edge 27, Type (0, 0), BuildingBlock: XIVTED_clean_linker_0, # of connection points: 2
#     Edge 28, Type (0, 0), BuildingBlock: XIVTED_clean_linker_0, # of connection points: 2
#     Edge 29, Type (0, 0), BuildingBlock: XIVTED_clean_linker_0, # of connection points: 2
# Relax obj value: 0.148
# Max RMSD: 0.140
# Mean RMSD: 0.140
data_MOF--net-ecf--node1-VETTIZ_charged_sbu_0--edge1-XIVTED_clean_linker_0
_symmetry_space_group_name_H-M    P1
_symmetry_Int_Tables_number       1
_symmetry_cell_setting            triclinic
loop_
_symmetry_equiv_pos_as_xyz
'x, y, z'
_cell_length_a     33.767145
_cell_length_b     33.670024
_cell_length_c     27.305996
_cell_angle_alpha  91.16967
_cell_angle_beta   89.169446
_cell_angle_gamma 120.51167
loop_
_atom_site_label
_atom_site_type_symbol
_atom_site_fract_x
_atom_site_fract_y
_atom_site_fract_z
_atom_type_partial_charge
Fe0 Fe 0.10186 0.25971 0.20498 0.0
O1 O 0.13139 0.30137 0.2604 0.0
Fe2 Fe 0.19056 0.36418 0.24833 0.0
Fe3 Fe 0.1507 0.28371 0.32094 0.0
O4 O 0.13261 0.30461 0.25756 0.0
O5 O 0.20999 0.34728 0.30991 0.0
O6 O 0.2085 0.34395 0.31318 0.0
Fe7 Fe 0.23523 0.38917 0.36724 0.0
C8 C 0.05044 0.21308 0.29816 0.0
O9 O 0.12145 0.21429 0.22611 0.0
O10 O 0.17821 0.25078 0.28046 0.0
O11 O 0.28982 0.42098 0.3198 0.0
O12 O 0.25543 0.4251 0.2487 0.0
O13 O 0.21872 0.33252 0.20678 0.0
O14 O 0.15841 0.28935 0.15846 0.0
O15 O 0.17868 0.27309 0.38468 0.0
O16 O 0.24839 0.3401 0.39478 0.0
C17 C 0.20129 0.3089 0.16772 0.0
O18 O 0.21668 0.43515 0.34286 0.0
O19 O 0.16213 0.39598 0.2876 0.0
O20 O 0.04922 0.22852 0.25531 0.0
O21 O 0.08736 0.2237 0.32238 0.0
C22 C 0.15746 0.2201 0.2471 0.0
C23 C 0.21934 0.29714 0.40436 0.0
C24 C 0.13426 0.33848 0.399 0.0
O25 O 0.12039 0.31348 0.36061 0.0
O26 O 0.17653 0.36012 0.41101 0.0
C27 C 0.29095 0.43809 0.27714 0.0
O28 O 0.16066 0.37408 0.18448 0.0
O29 O 0.0883 0.30901 0.18212 0.0
C30 C 0.18163 0.4284 0.31902 0.0
C31 C 0.11799 0.35066 0.1693 0.0
Fe32 Fe 0.93862 0.21482 0.70204 0.0
O33 O 0.91082 0.23118 0.75603 0.0
Fe34 Fe 0.85242 0.23521 0.74013 0.0
Fe35 Fe 0.88964 0.19533 0.81782 0.0
O36 O 0.90946 0.23345 0.75247 0.0
O37 O 0.83303 0.20306 0.80503 0.0
O38 O 0.83501 0.20205 0.80902 0.0
Fe39 Fe 0.80989 0.22309 0.86158 0.0
C40 C 0.87862 0.12046 0.74926 0.0
O41 O 0.9903 0.23643 0.75243 0.0
O42 O 0.94986 0.19269 0.81826 0.0
O43 O 0.83155 0.28752 0.83422 0.0
O44 O 0.88096 0.29977 0.77319 0.0
O45 O 0.88326 0.27039 0.67362 0.0
O46 O 0.95509 0.27775 0.67579 0.0
O47 O 0.92405 0.25599 0.857 0.0
O48 O 0.86837 0.2511 0.90544 0.0
C49 C 0.92618 0.28872 0.65924 0.0
O50 O 0.75561 0.20057 0.8144 0.0
O51 O 0.78841 0.23163 0.73875 0.0
O52 O 0.91501 0.14892 0.72639 0.0
O53 O 0.85799 0.1337 0.77906 0.0
C54 C 0.9867 0.21339 0.79129 0.0
C55 C 0.9109 0.26706 0.89602 0.0
C56 C 0.81858 0.14397 0.90244 0.0
O57 O 0.85886 0.1577 0.88253 0.0
O58 O 0.79232 0.16028 0.89158 0.0
C59 C 0.86209 0.31416 0.80391 0.0
O60 O 0.8227 0.17158 0.70228 0.0
O61 O 0.88332 0.18787 0.65533 0.0
C62 C 0.75405 0.21213 0.76962 0.0
C63 C 0.84066 0.16285 0.66495 0.0
Fe64 Fe 0.73114 0.83994 0.20683 0.0
O65 O 0.68132 0.82419 0.25493 0.0
Fe66 Fe 0.62717 0.83364 0.23362 0.0
Fe67 Fe 0.69412 0.85692 0.31966 0.0
O68 O 0.67972 0.82534 0.25043 0.0
O69 O 0.63786 0.86333 0.30081 0.0
O70 O 0.63954 0.86234 0.30516 0.0
Fe71 Fe 0.59033 0.84576 0.35301 0.0
C72 C 0.76125 0.8199 0.30122 0.0
O73 O 0.77828 0.89958 0.2436 0.0
O74 O 0.73286 0.91762 0.28565 0.0
O75 O 0.56494 0.87303 0.30286 0.0
O76 O 0.57063 0.84342 0.22739 0.0
O77 O 0.66985 0.89732 0.20083 0.0
O78 O 0.71716 0.87912 0.16148 0.0
O79 O 0.70176 0.89498 0.38544 0.0
O80 O 0.63965 0.90617 0.38794 0.0
C81 C 0.70053 0.90533 0.1681 0.0
O82 O 0.54543 0.78242 0.32135 0.0
O83 O 0.58449 0.77034 0.2615 0.0
O84 O 0.74787 0.80607 0.2566 0.0
O85 O 0.75052 0.84627 0.32704 0.0
C86 C 0.77149 0.92856 0.26736 0.0
C87 C 0.68019 0.91555 0.40255 0.0
C88 C 0.63411 0.79182 0.39381 0.0
O89 O 0.6556 0.79561 0.3542 0.0
O90 O 0.61273 0.81359 0.40078 0.0
C91 C 0.55317 0.86142 0.25722 0.0
O92 O 0.62243 0.79977 0.16561 0.0
O93 O 0.68133 0.7837 0.16832 0.0
C94 C 0.55021 0.75652 0.29003 0.0
C95 C 0.64348 0.77823 0.15016 0.0
Fe96 Fe 0.82362 0.71579 0.73192 0.0
O97 O 0.80658 0.70564 0.80293 0.0
Fe98 Fe 0.76092 0.60069 0.68649 0.0
Fe99 Fe 0.83414 0.74865 0.85701 0.0
O100 O 0.79191 0.64721 0.7373 0.0
O101 O 0.77383 0.64301 0.74167 0.0
O102 O 0.81734 0.69912 0.809 0.0
Fe103 Fe 0.77129 0.63155 0.81385 0.0
C104 C 0.91492 0.75826 0.79267 0.0
O105 O 0.84639 0.78559 0.7334 0.0
O106 O 0.82941 0.79417 0.81179 0.0
O107 O 0.71627 0.56397 0.80843 0.0
O108 O 0.70195 0.55881 0.72673 0.0
O109 O 0.73193 0.6368 0.65754 0.0
O110 O 0.76035 0.7032 0.7039 0.0
O111 O 0.76701 0.7221 0.87815 0.0
O112 O 0.72463 0.65368 0.83584 0.0
C113 C 0.73383 0.67503 0.67001 0.0
O114 O 0.81518 0.60525 0.79619 0.0
O115 O 0.79269 0.56993 0.72069 0.0
O116 O 0.89 0.73291 0.75617 0.0
O117 O 0.89931 0.77015 0.83022 0.0
C118 C 0.83839 0.80752 0.76737 0.0
C119 C 0.72864 0.68688 0.86445 0.0
C120 C 0.81513 0.66095 0.91479 0.0
O121 O 0.83792 0.70362 0.90339 0.0
O122 O 0.78358 0.62859 0.88803 0.0
C123 C 0.69026 0.54442 0.77086 0.0
O124 O 0.82 0.64186 0.64521 0.0
O125 O 0.84395 0.71709 0.66053 0.0
C126 C 0.81439 0.57769 0.76166 0.0
C127 C 0.84457 0.68493 0.6351 0.0
Fe128 Fe 0.12225 0.82949 0.23092 0.0
O129 O 0.16302 0.85171 0.28927 0.0
Fe130 Fe 0.13433 0.73735 0.18998 0.0
Fe131 Fe 0.15598 0.88646 0.34343 0.0
O132 O 0.12028 0.77001 0.24213 0.0
O133 O 0.12243 0.76871 0.24485 0.0
O134 O 0.16412 0.84984 0.2927 0.0
Fe135 Fe 0.15915 0.78969 0.3066 0.0
C136 C 0.16152 0.9346 0.24917 0.0
O137 O 0.06444 0.80887 0.27396 0.0
O138 O 0.09104 0.8709 0.32302 0.0
O139 O 0.14996 0.7237 0.31196 0.0
O140 O 0.11241 0.6854 0.24095 0.0
O141 O 0.07108 0.72377 0.16598 0.0
O142 O 0.07733 0.79557 0.17093 0.0
O143 O 0.12644 0.83297 0.39175 0.0
O144 O 0.09907 0.76854 0.34698 0.0
C145 C 0.0572 0.75237 0.15603 0.0
O146 O 0.21961 0.81174 0.2692 0.0
O147 O 0.20092 0.75757 0.21127 0.0
O148 O 0.13226 0.89667 0.22592 0.0
O149 O 0.1799 0.93625 0.29116 0.0
C150 C 0.05785 0.83453 0.30395 0.0
C151 C 0.09542 0.79144 0.38291 0.0
C152 C 0.22318 0.86277 0.38308 0.0
O153 O 0.21778 0.89546 0.36625 0.0
O154 O 0.1989 0.81957 0.36982 0.0
C155 C 0.12743 0.68666 0.28489 0.0
O156 O 0.16147 0.79156 0.14086 0.0
O157 O 0.17974 0.85266 0.18824 0.0
C158 C 0.23076 0.79144 0.23693 0.0
C159 C 0.1846 0.83485 0.14902 0.0
Fe160 Fe 0.27675 0.09201 0.75156 0.0
O161 O 0.28237 0.12634 0.81441 0.0
Fe162 Fe 0.39046 0.14495 0.71166 0.0
Fe163 Fe 0.23899 0.09913 0.86938 0.0
O164 O 0.3432 0.1149 0.76253 0.0
O165 O 0.34647 0.11805 0.7657 0.0
O166 O 0.28607 0.12962 0.81811 0.0
Fe167 Fe 0.3519 0.14965 0.83031 0.0
C168 C 0.18529 0.08732 0.77667 0.0
O169 O 0.25807 0.03142 0.78708 0.0
O170 O 0.21011 0.03257 0.84311 0.0
O171 O 0.42057 0.16547 0.83336 0.0
O172 O 0.43077 0.13576 0.76003 0.0
O173 O 0.35708 0.07952 0.68204 0.0
O174 O 0.28055 0.05818 0.68758 0.0
O175 O 0.28059 0.0884 0.91468 0.0
O176 O 0.3328 0.08807 0.86472 0.0
C177 C 0.31413 0.05309 0.67079 0.0
O178 O 0.37431 0.21275 0.79838 0.0
O179 O 0.4203 0.21115 0.73965 0.0
O180 O 0.2079 0.0742 0.74826 0.0
O181 O 0.19671 0.10456 0.82065 0.0
C182 C 0.22335 0.01077 0.81532 0.0
C183 C 0.30754 0.07395 0.90275 0.0
C184 C 0.31464 0.18891 0.91137 0.0
O185 O 0.27211 0.16493 0.89753 0.0
O186 O 0.34755 0.1816 0.89678 0.0
C187 C 0.44267 0.15211 0.80423 0.0
O188 O 0.35035 0.15875 0.66632 0.0
O189 O 0.29124 0.14948 0.71227 0.0
C190 C 0.40835 0.23304 0.76909 0.0
C191 C 0.3161 0.16422 0.67394 0.0
H192 H 0.21518 0.50421 0.38019 0.0
H193 H 0.07069 0.59871 0.25047 0.0
H194 H 0.1103 0.42776 0.27178 0.0
H195 H 0.17467 0.67593 0.35943 0.0
H196 H 0.07533 0.53071 0.26879 0.0
H197 H 0.19228 0.56232 0.38316 0.0
C198 C 0.1871 0.4994 0.3573 0.0
C199 C 0.16525 0.46145 0.32498 0.0
C200 C 0.09669 0.56234 0.28921 0.0
C201 C 0.13885 0.52785 0.32829 0.0
C202 C 0.09403 0.60124 0.27879 0.0
C203 C 0.12301 0.64341 0.30273 0.0
C204 C 0.12891 0.56567 0.32345 0.0
C205 C 0.15199 0.64431 0.33967 0.0
C206 C 0.17397 0.53257 0.35912 0.0
C207 C 0.12865 0.45676 0.29672 0.0
N208 N 0.15479 0.60622 0.34829 0.0
N209 N 0.11699 0.48985 0.29864 0.0
H210 H 0.51612 0.23577 0.82634 0.0
H211 H 0.73352 0.27886 0.75506 0.0
H212 H 0.47333 0.09241 0.80506 0.0
H213 H 0.67451 0.13176 0.76161 0.0
H214 H 0.65774 0.26903 0.77096 0.0
H215 H 0.59563 0.25621 0.81112 0.0
C216 C 0.52396 0.20855 0.82041 0.0
C217 C 0.48864 0.16243 0.8171 0.0
C218 C 0.66094 0.23872 0.76864 0.0
C219 C 0.57843 0.18529 0.79588 0.0
C220 C 0.70401 0.24434 0.75785 0.0
C221 C 0.70967 0.20596 0.75663 0.0
C222 C 0.62389 0.19436 0.77877 0.0
C223 C 0.67106 0.16205 0.76179 0.0
C224 C 0.56918 0.22023 0.81001 0.0
C225 C 0.49996 0.12836 0.80817 0.0
N226 N 0.62986 0.15748 0.7733 0.0
N227 N 0.54384 0.14053 0.79718 0.0
H228 H 0.30762 0.50323 0.20776 0.0
H229 H 0.50294 0.69506 0.36188 0.0
H230 H 0.37428 0.46892 0.31954 0.0
H231 H 0.51507 0.70981 0.20489 0.0
H232 H 0.44373 0.61356 0.35018 0.0
H233 H 0.3752 0.58135 0.20563 0.0
C234 C 0.33671 0.5116 0.23089 0.0
C235 C 0.33476 0.47988 0.26483 0.0
C236 C 0.45957 0.63484 0.31843 0.0
C237 C 0.41055 0.56861 0.26343 0.0
C238 C 0.4928 0.68107 0.3251 0.0
C239 C 0.51355 0.70854 0.28428 0.0
C240 C 0.44645 0.61679 0.27074 0.0
C241 C 0.49973 0.68919 0.23716 0.0
C242 C 0.37498 0.55612 0.2298 0.0
C243 C 0.37363 0.4926 0.29378 0.0
N244 N 0.46643 0.64433 0.23154 0.0
N245 N 0.40946 0.53641 0.29338 0.0
H246 H 0.89502 0.37269 0.72554 0.0
H247 H 0.83433 0.55363 0.84977 0.0
H248 H 0.84798 0.36439 0.8748 0.0
H249 H 0.84386 0.53726 0.69366 0.0
H250 H 0.85785 0.49665 0.86266 0.0
H251 H 0.89501 0.44508 0.71701 0.0
C252 C 0.88571 0.38657 0.75687 0.0
C253 C 0.87107 0.36211 0.80083 0.0
C254 C 0.85542 0.50607 0.82561 0.0
C255 C 0.87071 0.44485 0.79119 0.0
C256 C 0.84231 0.53887 0.81823 0.0
C257 C 0.83661 0.54999 0.77054 0.0
C258 C 0.86334 0.48452 0.78506 0.0
C259 C 0.84722 0.5294 0.73109 0.0
C260 C 0.88537 0.42773 0.75185 0.0
C261 C 0.85907 0.38175 0.84005 0.0
N262 N 0.85971 0.49752 0.73921 0.0
N263 N 0.85883 0.42167 0.8342 0.0
H264 H 0.27101 0.75426 0.17756 0.0
H265 H 0.51991 0.91532 0.29343 0.0
H266 H 0.30416 0.8646 0.28219 0.0
H267 H 0.49091 0.80811 0.1862 0.0
H268 H 0.44335 0.90359 0.28081 0.0
H269 H 0.35274 0.77847 0.17266 0.0
C270 C 0.29538 0.78371 0.19925 0.0
C271 C 0.28038 0.80701 0.23077 0.0
C272 C 0.45386 0.88303 0.25943 0.0
C273 C 0.37412 0.83501 0.22518 0.0
C274 C 0.49777 0.88991 0.26646 0.0
C275 C 0.51187 0.86243 0.24115 0.0
C276 C 0.42333 0.84798 0.22728 0.0
C277 C 0.48163 0.83019 0.20649 0.0
C278 C 0.3421 0.79757 0.19635 0.0
C279 C 0.31378 0.84515 0.25773 0.0
N280 N 0.43852 0.82332 0.20116 0.0
N281 N 0.35882 0.85766 0.25454 0.0
H282 H 0.44469 0.29334 0.69452 0.0
H283 H 0.65156 0.48809 0.85199 0.0
H284 H 0.44606 0.28625 0.85177 0.0
H285 H 0.6223 0.50439 0.70268 0.0
H286 H 0.57678 0.41557 0.85539 0.0
H287 H 0.5093 0.37236 0.69881 0.0
C288 C 0.45802 0.30898 0.7301 0.0
C289 C 0.43971 0.28352 0.77283 0.0
C290 C 0.58678 0.43545 0.82216 0.0
C291 C 0.51524 0.37367 0.77819 0.0
C292 C 0.62949 0.47682 0.82017 0.0
C293 C 0.64392 0.50233 0.77676 0.0
C294 C 0.55851 0.41953 0.78042 0.0
C295 C 0.61351 0.48589 0.73679 0.0
C296 C 0.49516 0.35404 0.73263 0.0
C297 C 0.45877 0.30512 0.81803 0.0
N298 N 0.57281 0.44568 0.73952 0.0
N299 N 0.49605 0.34876 0.81953 0.0
H300 H 0.13991 0.16972 0.16291 0.0
H301 H 0.11127 0.95318 0.18474 0.0
H302 H 0.20761 0.19371 0.30237 0.0
H303 H 0.23442 0.01908 0.27239 0.0
H304 H 0.11971 0.02862 0.17146 0.0
H305 H 0.15013 0.10389 0.14796 0.0
C306 C 0.15715 0.16121 0.19036 0.0
C307 C 0.1717 0.18632 0.23471 0.0
C308 C 0.14578 0.02683 0.19225 0.0
C309 C 0.18264 0.11045 0.21811 0.0
C310 C 0.14082 0.9836 0.19991 0.0
C311 C 0.17158 0.9797 0.23052 0.0
C312 C 0.18172 0.06616 0.21549 0.0
C313 C 0.20922 0.02034 0.24944 0.0
C314 C 0.16267 0.12341 0.18185 0.0
C315 C 0.19524 0.17483 0.26809 0.0
N316 N 0.21264 0.06171 0.24254 0.0
N317 N 0.19942 0.1372 0.25938 0.0
H318 H 0.07213 0.25193 0.75019 0.0
H319 H 0.09658 0.03507 0.80384 0.0
H320 H 0.97419 0.13601 0.8359 0.0
H321 H 0.18852 0.14658 0.71077 0.0
H322 H 0.04404 0.06487 0.80522 0.0
H323 H 0.11326 0.21143 0.73186 0.0
C324 C 0.05991 0.21843 0.76612 0.0
C325 C 0.01947 0.19717 0.79422 0.0
C326 C 0.07493 0.08198 0.78304 0.0
C327 C 0.06544 0.15013 0.77222 0.0
C328 C 0.10429 0.06437 0.78142 0.0
C329 C 0.14642 0.0885 0.75688 0.0
C330 C 0.08876 0.12427 0.76067 0.0
C331 C 0.1558 0.12673 0.72919 0.0
C332 C 0.08288 0.19496 0.75488 0.0
C333 C 0.00526 0.15381 0.8141 0.0
N334 N 0.12765 0.1443 0.73282 0.0
N335 N 0.02803 0.13147 0.80226 0.0
H336 H 0.0362 0.1406 0.35321 0.0
H337 H 0.77051 0.00644 0.29164 0.0
H338 H 0.96629 0.20376 0.28794 0.0
H339 H 0.85889 0.94841 0.28363 0.0
H340 H 0.83475 0.07841 0.32405 0.0
H341 H 0.962 0.07029 0.36528 0.0
C342 C 0.00509 0.14011 0.34289 0.0
C343 C 0.00693 0.17691 0.31785 0.0
C344 C 0.83969 0.04962 0.31565 0.0
C345 C 0.92321 0.09769 0.33157 0.0
C346 C 0.80353 0.00903 0.29663 0.0
C347 C 0.81023 0.97236 0.28363 0.0
C348 C 0.88235 0.05302 0.32207 0.0
C349 C 0.85303 0.97665 0.2917 0.0
C350 C 0.963 0.10013 0.3497 0.0
C351 C 0.96597 0.17517 0.3058 0.0
N352 N 0.88778 0.01661 0.31024 0.0
N353 N 0.92547 0.13557 0.31193 0.0
H354 H 0.81433 0.04841 0.8043 0.0
H355 H 0.8801 0.8677 0.69064 0.0
H356 H 0.90886 0.07944 0.68323 0.0
H357 H 0.79483 0.84411 0.81871 0.0
H358 H 0.88284 0.94137 0.6793 0.0
H359 H 0.79791 0.96889 0.8017 0.0
C360 C 0.83122 0.03843 0.7768 0.0
C361 C 0.86354 0.07088 0.74448 0.0
C362 C 0.86329 0.91977 0.70964 0.0
C363 C 0.84527 0.97996 0.74152 0.0
C364 C 0.8617 0.87777 0.71603 0.0
C365 C 0.838 0.85016 0.75618 0.0
C366 C 0.84069 0.9338 0.74343 0.0
C367 C 0.81445 0.86471 0.78781 0.0
C368 C 0.82198 0.99303 0.77541 0.0
C369 C 0.88422 0.0558 0.70945 0.0
N370 N 0.81664 0.9055 0.78093 0.0
N371 N 0.87509 0.01159 0.70921 0.0
H372 H 0.77223 0.74721 0.27714 0.0
H373 H 0.03093 0.8776 0.37125 0.0
H374 H 0.83199 0.87211 0.36493 0.0
H375 H 0.97639 0.767 0.26353 0.0
H376 H 0.95395 0.86526 0.3843 0.0
H377 H 0.84131 0.74272 0.2887 0.0
C378 C 0.79955 0.77319 0.2998 0.0
C379 C 0.79671 0.81056 0.31941 0.0
C380 C 0.95874 0.84342 0.35814 0.0
C381 C 0.87627 0.80598 0.3321 0.0
C382 C 0.00276 0.85049 0.35046 0.0
C383 C 0.01043 0.82391 0.3154 0.0
C384 C 0.92192 0.80953 0.33059 0.0
C385 C 0.9723 0.78873 0.29045 0.0
C386 C 0.83908 0.77069 0.30618 0.0
C387 C 0.83282 0.84283 0.34899 0.0
N388 N 0.92979 0.78292 0.29815 0.0
N389 N 0.87155 0.84027 0.35369 0.0
H390 H 0.1934 0.96073 0.72992 0.0
H391 H 0.97054 0.77038 0.86924 0.0
H392 H 0.1771 0.94842 0.88659 0.0
H393 H 0.97424 0.79301 0.71402 0.0
H394 H 0.05381 0.8204 0.87224 0.0
H395 H 0.12222 0.88586 0.72027 0.0
C396 C 0.17588 0.94134 0.76226 0.0
C397 C 0.191 0.96074 0.80913 0.0
C398 C 0.03672 0.8139 0.83726 0.0
C399 C 0.10926 0.87579 0.79848 0.0
C400 C 0.98912 0.78514 0.8355 0.0
C401 C 0.96539 0.77802 0.79143 0.0
C402 C 0.06099 0.83658 0.79479 0.0
C403 C 0.99123 0.79768 0.74877 0.0
C404 C 0.13493 0.8989 0.75675 0.0
C405 C 0.16648 0.93471 0.84982 0.0
N406 N 0.03763 0.82692 0.75166 0.0
N407 N 0.12663 0.89394 0.84356 0.0
H408 H 0.19672 0.31305 0.06914 0.0
H409 H 0.33881 0.1929 1.00742 0.0
H410 H 0.27283 0.29356 0.1821 0.0
H411 H 0.30459 0.26252 0.90018 0.0
H412 H 0.32214 0.23382 0.07284 0.0
H413 H 0.24013 0.29759 1.0072 0.0
C414 C 0.22303 0.30596 0.0808 0.0
C415 C 0.23126 0.30455 0.13067 0.0
C416 C 0.31987 0.24136 0.03497 0.0
C417 C 0.28072 0.28586 0.0599 0.0
C418 C 0.32999 0.21849 0.99769 0.0
C419 C 0.32339 0.22477 0.94848 0.0
C420 C 0.30237 0.26989 1.02259 0.0
C421 C 0.31039 0.25707 0.93773 0.0
C422 C 0.24801 0.29733 0.04545 0.0
C423 C 0.26578 0.29525 0.14388 0.0
N424 N 0.29951 0.27774 0.9744 0.0
N425 N 0.28875 0.28539 0.10868 0.0
H426 H -0.00013 0.37456 0.64931 0.0
H427 H 0.04043 0.29081 0.38909 0.0
H428 H 0.89359 0.26077 0.56709 0.0
H429 H 0.14853 0.3925 0.48156 0.0
H430 H 0.98354 0.29227 0.44406 0.0
H431 H 0.04986 0.39688 0.57718 0.0
C432 C 0.98613 0.35584 0.61514 0.0
C433 C 0.94258 0.31572 0.61416 0.0
C434 C 0.0197 0.31462 0.45208 0.0
C435 C 0.00041 0.33945 0.5322 0.0
C436 C 0.05234 0.31371 0.42079 0.0
C437 C 0.09956 0.34101 0.43107 0.0
C438 C 0.03412 0.34308 0.49412 0.0
C439 C 0.11261 0.37029 0.47249 0.0
C440 C 0.01507 0.36795 0.57423 0.0
C441 C 0.9268 0.29214 0.56927 0.0
N442 N 0.08011 0.37023 0.50266 0.0
N443 N 0.95616 0.30354 0.53042 0.0
H444 H 0.65789 0.95235 0.13578 0.0
H445 H 0.8617 0.10152 0.94359 0.0
H446 H 0.78359 0.9489 0.12274 0.0
H447 H 0.73642 0.10635 0.95276 0.0
H448 H 0.83375 0.04678 1.01092 0.0
H449 H 0.68673 0.0115 0.0718 0.0
C450 C 0.69165 0.96437 0.12003 0.0
C451 C 0.71806 0.9452 0.13443 0.0
C452 C 0.81234 0.05982 0.99819 0.0
C453 C 0.75115 0.01242 0.061 0.0
C454 C 0.82831 0.09106 0.95949 0.0
C455 C 0.80159 0.10886 0.94206 0.0
C456 C 0.76923 0.04602 1.01993 0.0
C457 C 0.75849 0.0938 0.96464 0.0
C458 C 0.70802 0.99788 0.08325 0.0
C459 C 0.7616 0.96206 0.11245 0.0
N460 N 0.74376 0.06344 1.00221 0.0
N461 N 0.77653 0.99429 0.07695 0.0
H462 H 0.6525 0.62281 0.62018 0.0
H463 H 0.7124 0.79087 0.41244 0.0
H464 H 0.76126 0.76327 0.64509 0.0
H465 H 0.57711 0.7454 0.47179 0.0
H466 H 0.73077 0.76247 0.4854 0.0
H467 H 0.6221 0.64982 0.55529 0.0
C468 C 0.66935 0.65933 0.61279 0.0
C469 C 0.70936 0.69086 0.63828 0.0
C470 C 0.69696 0.75842 0.48211 0.0
C471 C 0.67576 0.7213 0.56348 0.0
C472 C 0.68622 0.77419 0.44041 0.0
C473 C 0.643 0.7703 0.43591 0.0
C474 C 0.66394 0.73741 0.51909 0.0
C475 C 0.61077 0.749 0.47387 0.0
C476 C 0.65199 0.67458 0.57588 0.0
C477 C 0.73009 0.73779 0.62683 0.0
N478 N 0.62171 0.73281 0.51387 0.0
N479 N 0.71373 0.75143 0.58947 0.0
H480 H 0.85792 0.61173 0.92789 0.0
H481 H -0.00331 0.78407 0.14617 0.0
H482 H 0.81162 0.69388 1.00448 0.0
H483 H 0.02158 0.67616 0.09604 0.0
H484 H 0.92673 0.74932 0.09632 0.0
H485 H 0.91335 0.62868 0.99357 0.0
C486 C 0.85774 0.63126 0.95984 0.0
C487 C 0.82994 0.65109 0.96109 0.0
C488 C 0.9474 0.73311 0.09656 0.0
C489 C 0.89494 0.67302 0.03476 0.0
C490 C 0.98762 0.75327 0.12461 0.0
C491 C 0.01533 0.73329 0.12517 0.0
C492 C 0.9351 0.69301 0.06836 0.0
C493 C 0.0014 0.6929 0.0969 0.0
C494 C 0.89006 0.64182 0.99688 0.0
C495 C 0.83223 0.67759 1.00252 0.0
N496 N 0.96261 0.6744 0.06945 0.0
N497 N 0.8649 0.68869 0.03711 0.0
H498 H 0.23019 0.97738 0.64731 0.0
H499 H 0.31084 0.93149 0.39986 0.0
H500 H 0.37506 0.04313 0.61267 0.0
H501 H 0.1904 0.82334 0.47068 0.0
H502 H 0.3384 0.97003 0.47931 0.0
H503 H 0.21511 0.91858 0.58429 0.0
C504 C 0.25879 0.97929 0.62686 0.0
C505 C 0.30383 0.01559 0.63496 0.0
C506 C 0.30673 0.93702 0.47782 0.0
C507 C 0.28688 0.9487 0.56307 0.0
C508 C 0.29135 0.91487 0.43259 0.0
C509 C 0.2485 0.87437 0.42911 0.0
C510 C 0.2781 0.91925 0.51913 0.0
C511 C 0.22386 0.85445 0.47222 0.0
C512 C 0.25025 0.94549 0.59129 0.0
C513 C 0.33967 0.01605 0.60756 0.0
N514 N 0.23827 0.87792 0.51547 0.0
N515 N 0.33033 0.9836 0.57231 0.0
H516 H 0.70022 0.74912 0.86309 0.0
H517 H 0.63201 0.69302 0.13518 0.0
H518 H 0.66861 0.61983 0.92552 0.0
H519 H 0.62289 0.80014 0.06189 0.0
H520 H 0.63018 0.65731 0.05583 0.0
H521 H 0.65678 0.76011 0.92896 0.0
C522 C 0.68218 0.72197 0.88948 0.0
C523 C 0.6878 0.68343 0.88884 0.0
C524 C 0.62718 0.68784 0.05689 0.0
C525 C 0.64011 0.69688 0.96597 0.0
C526 C 0.62805 0.70813 0.10229 0.0
C527 C 0.6277 0.7496 0.10498 0.0
C528 C 0.62748 0.70998 1.0137 0.0
C529 C 0.62296 0.76801 0.06134 0.0
C530 C 0.65777 0.72846 0.92748 0.0
C531 C 0.66467 0.64978 0.92446 0.0
N532 N 0.62425 0.74875 1.01738 0.0
N533 N 0.64292 0.65788 0.9624 0.0
H534 H 0.03001 0.69955 0.39961 0.0
H535 H 0.89739 0.77089 0.59665 0.0
H536 H 0.06647 0.83884 0.43909 0.0
H537 H 0.86588 0.63016 0.57706 0.0
H538 H 0.95389 0.79396 0.53119 0.0
H539 H 0.9644 0.67098 0.45721 0.0
C540 C 0.0242 0.724 0.42015 0.0
C541 C 0.05428 0.77162 0.41516 0.0
C542 C 0.93461 0.75794 0.54099 0.0
C543 C 0.97957 0.73948 0.4802 0.0
C544 C 0.90218 0.7447 0.57852 0.0
C545 C 0.87694 0.69852 0.5929 0.0
C546 C 0.94237 0.72496 0.51744 0.0
C547 C 0.88464 0.66621 0.56743 0.0
C548 C 0.98689 0.70776 0.45297 0.0
C549 C 0.04493 0.80183 0.44236 0.0
N550 N 0.9169 0.68009 0.53114 0.0
N551 N 0.00868 0.78529 0.47353 0.0
H552 H 0.3329 0.08657 0.99756 0.0
H553 H 0.18629 0.81829 0.04975 0.0
H554 H 0.28025 0.98405 0.88189 0.0
H555 H 0.25231 0.92441 0.16102 0.0
H556 H 0.22936 0.87603 0.98687 0.0
H557 H 0.31429 0.02618 0.05679 0.0
C558 C 0.31867 0.0513 0.98461 0.0
C559 C 0.30847 0.0401 0.93501 0.0
C560 C 0.23492 0.88642 1.02511 0.0
C561 C 0.28486 0.97031 1.00265 0.0
C562 C 0.2104 0.85346 0.06101 0.0
C563 C 0.21507 0.86668 0.11069 0.0
C564 C 0.26425 0.93276 0.03914 0.0
C565 C 0.24689 0.91273 0.12316 0.0
C566 C 0.30763 0.0167 1.01839 0.0
C567 C 0.28917 0.99391 0.91991 0.0
N568 N 0.26977 0.94404 0.0877 0.0
N569 N 0.27712 0.96044 0.95379 0.0
H570 H 0.37224 0.23401 0.61209 0.0
H571 H 0.16508 0.21607 0.45365 0.0
H572 H 0.22954 0.14019 0.64519 0.0
H573 H 0.30536 0.32824 0.44196 0.0
H574 H 0.18852 0.18376 0.5192 0.0
H575 H 0.34892 0.26536 0.5453 0.0
C576 C 0.33598 0.22031 0.60554 0.0
C577 C 0.30273 0.18519 0.63496 0.0
C578 C 0.21415 0.21541 0.50218 0.0
C579 C 0.27567 0.22025 0.55803 0.0
C580 C 0.20084 0.23378 0.4645 0.0
C581 C 0.23318 0.27513 0.44211 0.0
C582 C 0.26026 0.2382 0.51742 0.0
C583 C 0.27903 0.29648 0.45814 0.0
C584 C 0.32265 0.23819 0.56744 0.0
C585 C 0.25621 0.16836 0.62453 0.0
N586 N 0.29113 0.2778 0.49462 0.0
N587 N 0.24405 0.18587 0.58689 0.0
H588 H 0.15092 0.37049 0.0758 0.0
H589 H 0.89833 0.29613 0.98701 0.0
H590 H 0.04439 0.36241 0.17094 0.0
H591 H 0.00443 0.30312 0.89116 0.0
H592 H 0.95573 0.33474 0.05136 0.0
H593 H 0.10378 0.3629 1.00471 0.0
C594 C 0.11866 0.36958 0.08163 0.0
C595 C 0.1017 0.36753 0.12926 0.0
C596 C 0.96661 0.32838 1.01604 0.0
C597 C 0.04649 0.35652 0.04836 0.0
C598 C 0.93374 0.30624 0.97918 0.0
C599 C 0.94621 0.29566 0.93357 0.0
C600 C 0.01244 0.33995 1.00756 0.0
C601 C -0.00711 0.31003 0.92577 0.0
C602 C 0.09126 0.36429 0.04106 0.0
C603 C 0.05888 0.3646 0.13476 0.0
N604 N 0.02405 0.33084 0.96246 0.0
N605 N 0.03244 0.35835 0.09495 0.0
H606 H 0.74628 0.11523 0.64582 0.0
H607 H 0.76877 0.95486 0.43679 0.0
H608 H 0.8724 0.11991 0.60469 0.0
H609 H 0.64365 0.9579 0.4603 0.0
H610 H 0.805 0.01205 0.50245 0.0
H611 H 0.70561 0.054 0.58312 0.0
C612 C 0.76535 0.10329 0.62401 0.0
C613 C 0.81303 0.12333 0.63038 0.0
C614 C 0.76958 0.00028 0.49338 0.0
C615 C 0.7668 0.05328 0.55867 0.0
C616 C 0.74874 0.9674 0.4557 0.0
C617 C 0.70288 0.95119 0.44252 0.0
C618 C 0.74462 0.0174 0.51877 0.0
C619 C 0.67909 0.9693 0.46876 0.0
C620 C 0.74219 0.0685 0.58804 0.0
C621 C 0.83583 0.10626 0.60087 0.0
N622 N 0.70013 0.00124 0.50552 0.0
N623 N 0.81269 0.07261 0.56663 0.0
loop_
_geom_bond_atom_site_label_1
_geom_bond_atom_site_label_2
_geom_bond_distance
_geom_bond_site_symmetry_2
_ccdc_geom_bond_type
Fe0 O1 1.886 . S
Fe0 O4 1.715 . S
Fe0 O9 2.077 . S
Fe0 O14 1.935 . S
Fe0 O20 2.077 . S
Fe0 O29 1.935 . S
O1 Fe0 1.886 . S
O1 Fe3 1.715 . S
Fe2 O4 1.886 . S
Fe2 O5 1.715 . S
Fe2 O12 1.935 . S
Fe2 O13 2.077 . S
Fe2 O19 1.935 . S
Fe2 O28 2.077 . S
Fe3 O1 1.715 . S
Fe3 O6 1.886 . S
Fe3 O10 1.935 . S
Fe3 O15 2.077 . S
Fe3 O21 1.935 . S
Fe3 O25 2.077 . S
O4 Fe0 1.715 . S
O4 Fe2 1.886 . S
O5 Fe2 1.715 . S
O5 Fe7 1.886 . S
O6 Fe3 1.886 . S
O6 Fe7 1.715 . S
Fe7 O5 1.886 . S
Fe7 O6 1.715 . S
Fe7 O11 2.077 . S
Fe7 O16 1.935 . S
Fe7 O18 2.077 . S
Fe7 O26 1.935 . S
C8 O20 1.381 . S
C8 O21 1.421 . S
O9 Fe0 2.077 . S
O9 C22 1.381 . S
O10 Fe3 1.935 . S
O10 C22 1.421 . S
O11 Fe7 2.077 . S
O11 C27 1.381 . S
O12 Fe2 1.935 . S
O12 C27 1.421 . S
O13 Fe2 2.077 . S
O13 C17 1.381 . S
O14 Fe0 1.935 . S
O14 C17 1.421 . S
O15 Fe3 2.077 . S
O15 C23 1.381 . S
O16 Fe7 1.935 . S
O16 C23 1.421 . S
C17 O13 1.381 . S
C17 O14 1.421 . S
O18 Fe7 2.077 . S
O18 C30 1.381 . S
O19 Fe2 1.935 . S
O19 C30 1.421 . S
O20 Fe0 2.077 . S
O20 C8 1.381 . S
O21 Fe3 1.935 . S
O21 C8 1.421 . S
C22 O9 1.381 . S
C22 O10 1.421 . S
C23 O15 1.381 . S
C23 O16 1.421 . S
C24 O25 1.381 . S
C24 O26 1.421 . S
O25 Fe3 2.077 . S
O25 C24 1.381 . S
O26 Fe7 1.935 . S
O26 C24 1.421 . S
C27 O11 1.381 . S
C27 O12 1.421 . S
O28 Fe2 2.077 . S
O28 C31 1.381 . S
O29 Fe0 1.935 . S
O29 C31 1.421 . S
C30 O18 1.381 . S
C30 O19 1.421 . S
C31 O28 1.381 . S
C31 O29 1.421 . S
Fe32 O33 1.886 . S
Fe32 O36 1.715 . S
Fe32 O41 2.077 . S
Fe32 O46 1.935 . S
Fe32 O52 2.077 . S
Fe32 O61 1.935 . S
O33 Fe32 1.886 . S
O33 Fe35 1.715 . S
Fe34 O36 1.886 . S
Fe34 O37 1.715 . S
Fe34 O44 1.935 . S
Fe34 O45 2.077 . S
Fe34 O51 1.935 . S
Fe34 O60 2.077 . S
Fe35 O33 1.715 . S
Fe35 O38 1.886 . S
Fe35 O42 1.935 . S
Fe35 O47 2.077 . S
Fe35 O53 1.935 . S
Fe35 O57 2.077 . S
O36 Fe32 1.715 . S
O36 Fe34 1.886 . S
O37 Fe34 1.715 . S
O37 Fe39 1.886 . S
O38 Fe35 1.886 . S
O38 Fe39 1.715 . S
Fe39 O37 1.886 . S
Fe39 O38 1.715 . S
Fe39 O43 2.077 . S
Fe39 O48 1.935 . S
Fe39 O50 2.077 . S
Fe39 O58 1.935 . S
C40 O52 1.381 . S
C40 O53 1.421 . S
O41 Fe32 2.077 . S
O41 C54 1.381 . S
O42 Fe35 1.935 . S
O42 C54 1.421 . S
O43 Fe39 2.077 . S
O43 C59 1.381 . S
O44 Fe34 1.935 . S
O44 C59 1.421 . S
O45 Fe34 2.077 . S
O45 C49 1.381 . S
O46 Fe32 1.935 . S
O46 C49 1.421 . S
O47 Fe35 2.077 . S
O47 C55 1.381 . S
O48 Fe39 1.935 . S
O48 C55 1.421 . S
C49 O45 1.381 . S
C49 O46 1.421 . S
O50 Fe39 2.077 . S
O50 C62 1.381 . S
O51 Fe34 1.935 . S
O51 C62 1.421 . S
O52 Fe32 2.077 . S
O52 C40 1.381 . S
O53 Fe35 1.935 . S
O53 C40 1.421 . S
C54 O41 1.381 . S
C54 O42 1.421 . S
C55 O47 1.381 . S
C55 O48 1.421 . S
C56 O57 1.381 . S
C56 O58 1.421 . S
O57 Fe35 2.077 . S
O57 C56 1.381 . S
O58 Fe39 1.935 . S
O58 C56 1.421 . S
C59 O43 1.381 . S
C59 O44 1.421 . S
O60 Fe34 2.077 . S
O60 C63 1.381 . S
O61 Fe32 1.935 . S
O61 C63 1.421 . S
C62 O50 1.381 . S
C62 O51 1.421 . S
C63 O60 1.381 . S
C63 O61 1.421 . S
Fe64 O65 1.886 . S
Fe64 O68 1.715 . S
Fe64 O73 2.077 . S
Fe64 O78 1.935 . S
Fe64 O84 2.077 . S
Fe64 O93 1.935 . S
O65 Fe64 1.886 . S
O65 Fe67 1.715 . S
Fe66 O68 1.886 . S
Fe66 O69 1.715 . S
Fe66 O76 1.935 . S
Fe66 O77 2.077 . S
Fe66 O83 1.935 . S
Fe66 O92 2.077 . S
Fe67 O65 1.715 . S
Fe67 O70 1.886 . S
Fe67 O74 1.935 . S
Fe67 O79 2.077 . S
Fe67 O85 1.935 . S
Fe67 O89 2.077 . S
O68 Fe64 1.715 . S
O68 Fe66 1.886 . S
O69 Fe66 1.715 . S
O69 Fe71 1.886 . S
O70 Fe67 1.886 . S
O70 Fe71 1.715 . S
Fe71 O69 1.886 . S
Fe71 O70 1.715 . S
Fe71 O75 2.077 . S
Fe71 O80 1.935 . S
Fe71 O82 2.077 . S
Fe71 O90 1.935 . S
C72 O84 1.381 . S
C72 O85 1.421 . S
O73 Fe64 2.077 . S
O73 C86 1.381 . S
O74 Fe67 1.935 . S
O74 C86 1.421 . S
O75 Fe71 2.077 . S
O75 C91 1.381 . S
O76 Fe66 1.935 . S
O76 C91 1.421 . S
O77 Fe66 2.077 . S
O77 C81 1.381 . S
O78 Fe64 1.935 . S
O78 C81 1.421 . S
O79 Fe67 2.077 . S
O79 C87 1.381 . S
O80 Fe71 1.935 . S
O80 C87 1.421 . S
C81 O77 1.381 . S
C81 O78 1.421 . S
O82 Fe71 2.077 . S
O82 C94 1.381 . S
O83 Fe66 1.935 . S
O83 C94 1.421 . S
O84 Fe64 2.077 . S
O84 C72 1.381 . S
O85 Fe67 1.935 . S
O85 C72 1.421 . S
C86 O73 1.381 . S
C86 O74 1.421 . S
C87 O79 1.381 . S
C87 O80 1.421 . S
C88 O89 1.381 . S
C88 O90 1.421 . S
O89 Fe67 2.077 . S
O89 C88 1.381 . S
O90 Fe71 1.935 . S
O90 C88 1.421 . S
C91 O75 1.381 . S
C91 O76 1.421 . S
O92 Fe66 2.077 . S
O92 C95 1.381 . S
O93 Fe64 1.935 . S
O93 C95 1.421 . S
C94 O82 1.381 . S
C94 O83 1.421 . S
C95 O92 1.381 . S
C95 O93 1.421 . S
Fe96 O97 1.886 . S
Fe96 O100 1.715 . S
Fe96 O105 2.077 . S
Fe96 O110 1.935 . S
Fe96 O116 2.077 . S
Fe96 O125 1.935 . S
O97 Fe96 1.886 . S
O97 Fe99 1.715 . S
Fe98 O100 1.886 . S
Fe98 O101 1.715 . S
Fe98 O108 1.935 . S
Fe98 O109 2.077 . S
Fe98 O115 1.935 . S
Fe98 O124 2.077 . S
Fe99 O97 1.715 . S
Fe99 O102 1.886 . S
Fe99 O106 1.935 . S
Fe99 O111 2.077 . S
Fe99 O117 1.935 . S
Fe99 O121 2.077 . S
O100 Fe96 1.715 . S
O100 Fe98 1.886 . S
O101 Fe98 1.715 . S
O101 Fe103 1.886 . S
O102 Fe99 1.886 . S
O102 Fe103 1.715 . S
Fe103 O101 1.886 . S
Fe103 O102 1.715 . S
Fe103 O107 2.077 . S
Fe103 O112 1.935 . S
Fe103 O114 2.077 . S
Fe103 O122 1.935 . S
C104 O116 1.381 . S
C104 O117 1.421 . S
O105 Fe96 2.077 . S
O105 C118 1.381 . S
O106 Fe99 1.935 . S
O106 C118 1.421 . S
O107 Fe103 2.077 . S
O107 C123 1.381 . S
O108 Fe98 1.935 . S
O108 C123 1.421 . S
O109 Fe98 2.077 . S
O109 C113 1.381 . S
O110 Fe96 1.935 . S
O110 C113 1.421 . S
O111 Fe99 2.077 . S
O111 C119 1.381 . S
O112 Fe103 1.935 . S
O112 C119 1.421 . S
C113 O109 1.381 . S
C113 O110 1.421 . S
O114 Fe103 2.077 . S
O114 C126 1.381 . S
O115 Fe98 1.935 . S
O115 C126 1.421 . S
O116 Fe96 2.077 . S
O116 C104 1.381 . S
O117 Fe99 1.935 . S
O117 C104 1.421 . S
C118 O105 1.381 . S
C118 O106 1.421 . S
C119 O111 1.381 . S
C119 O112 1.421 . S
C120 O121 1.381 . S
C120 O122 1.421 . S
O121 Fe99 2.077 . S
O121 C120 1.381 . S
O122 Fe103 1.935 . S
O122 C120 1.421 . S
C123 O107 1.381 . S
C123 O108 1.421 . S
O124 Fe98 2.077 . S
O124 C127 1.381 . S
O125 Fe96 1.935 . S
O125 C127 1.421 . S
C126 O114 1.381 . S
C126 O115 1.421 . S
C127 O124 1.381 . S
C127 O125 1.421 . S
Fe128 O129 1.886 . S
Fe128 O132 1.715 . S
Fe128 O137 2.077 . S
Fe128 O142 1.935 . S
Fe128 O148 2.077 . S
Fe128 O157 1.935 . S
O129 Fe128 1.886 . S
O129 Fe131 1.715 . S
Fe130 O132 1.886 . S
Fe130 O133 1.715 . S
Fe130 O140 1.935 . S
Fe130 O141 2.077 . S
Fe130 O147 1.935 . S
Fe130 O156 2.077 . S
Fe131 O129 1.715 . S
Fe131 O134 1.886 . S
Fe131 O138 1.935 . S
Fe131 O143 2.077 . S
Fe131 O149 1.935 . S
Fe131 O153 2.077 . S
O132 Fe128 1.715 . S
O132 Fe130 1.886 . S
O133 Fe130 1.715 . S
O133 Fe135 1.886 . S
O134 Fe131 1.886 . S
O134 Fe135 1.715 . S
Fe135 O133 1.886 . S
Fe135 O134 1.715 . S
Fe135 O139 2.077 . S
Fe135 O144 1.935 . S
Fe135 O146 2.077 . S
Fe135 O154 1.935 . S
C136 O148 1.381 . S
C136 O149 1.421 . S
O137 Fe128 2.077 . S
O137 C150 1.381 . S
O138 Fe131 1.935 . S
O138 C150 1.421 . S
O139 Fe135 2.077 . S
O139 C155 1.381 . S
O140 Fe130 1.935 . S
O140 C155 1.421 . S
O141 Fe130 2.077 . S
O141 C145 1.381 . S
O142 Fe128 1.935 . S
O142 C145 1.421 . S
O143 Fe131 2.077 . S
O143 C151 1.381 . S
O144 Fe135 1.935 . S
O144 C151 1.421 . S
C145 O141 1.381 . S
C145 O142 1.421 . S
O146 Fe135 2.077 . S
O146 C158 1.381 . S
O147 Fe130 1.935 . S
O147 C158 1.421 . S
O148 Fe128 2.077 . S
O148 C136 1.381 . S
O149 Fe131 1.935 . S
O149 C136 1.421 . S
C150 O137 1.381 . S
C150 O138 1.421 . S
C151 O143 1.381 . S
C151 O144 1.421 . S
C152 O153 1.381 . S
C152 O154 1.421 . S
O153 Fe131 2.077 . S
O153 C152 1.381 . S
O154 Fe135 1.935 . S
O154 C152 1.421 . S
C155 O139 1.381 . S
C155 O140 1.421 . S
O156 Fe130 2.077 . S
O156 C159 1.381 . S
O157 Fe128 1.935 . S
O157 C159 1.421 . S
C158 O146 1.381 . S
C158 O147 1.421 . S
C159 O156 1.381 . S
C159 O157 1.421 . S
Fe160 O161 1.886 . S
Fe160 O164 1.715 . S
Fe160 O169 2.077 . S
Fe160 O174 1.935 . S
Fe160 O180 2.077 . S
Fe160 O189 1.935 . S
O161 Fe160 1.886 . S
O161 Fe163 1.715 . S
Fe162 O164 1.886 . S
Fe162 O165 1.715 . S
Fe162 O172 1.935 . S
Fe162 O173 2.077 . S
Fe162 O179 1.935 . S
Fe162 O188 2.077 . S
Fe163 O161 1.715 . S
Fe163 O166 1.886 . S
Fe163 O170 1.935 . S
Fe163 O175 2.077 . S
Fe163 O181 1.935 . S
Fe163 O185 2.077 . S
O164 Fe160 1.715 . S
O164 Fe162 1.886 . S
O165 Fe162 1.715 . S
O165 Fe167 1.886 . S
O166 Fe163 1.886 . S
O166 Fe167 1.715 . S
Fe167 O165 1.886 . S
Fe167 O166 1.715 . S
Fe167 O171 2.077 . S
Fe167 O176 1.935 . S
Fe167 O178 2.077 . S
Fe167 O186 1.935 . S
C168 O180 1.381 . S
C168 O181 1.421 . S
O169 Fe160 2.077 . S
O169 C182 1.381 . S
O170 Fe163 1.935 . S
O170 C182 1.421 . S
O171 Fe167 2.077 . S
O171 C187 1.381 . S
O172 Fe162 1.935 . S
O172 C187 1.421 . S
O173 Fe162 2.077 . S
O173 C177 1.381 . S
O174 Fe160 1.935 . S
O174 C177 1.421 . S
O175 Fe163 2.077 . S
O175 C183 1.381 . S
O176 Fe167 1.935 . S
O176 C183 1.421 . S
C177 O173 1.381 . S
C177 O174 1.421 . S
O178 Fe167 2.077 . S
O178 C190 1.381 . S
O179 Fe162 1.935 . S
O179 C190 1.421 . S
O180 Fe160 2.077 . S
O180 C168 1.381 . S
O181 Fe163 1.935 . S
O181 C168 1.421 . S
C182 O169 1.381 . S
C182 O170 1.421 . S
C183 O175 1.381 . S
C183 O176 1.421 . S
C184 O185 1.381 . S
C184 O186 1.421 . S
O185 Fe163 2.077 . S
O185 C184 1.381 . S
O186 Fe167 1.935 . S
O186 C184 1.421 . S
C187 O171 1.381 . S
C187 O172 1.421 . S
O188 Fe162 2.077 . S
O188 C191 1.381 . S
O189 Fe160 1.935 . S
O189 C191 1.421 . S
C190 O178 1.381 . S
C190 O179 1.421 . S
C191 O188 1.381 . S
C191 O189 1.421 . S
H192 C198 0.930 . S
H193 C202 0.930 . S
H194 C207 0.929 . S
H195 C205 0.929 . S
H196 C200 0.929 . S
H197 C206 0.929 . S
C198 H192 0.930 . S
C198 C199 1.367 . S
C198 C206 1.378 . S
C199 C198 1.367 . S
C199 C207 1.433 . S
C200 H196 0.929 . S
C200 C202 1.378 . S
C200 C204 1.350 . S
C201 C204 1.463 . S
C201 C206 1.350 . S
C201 N209 1.427 . S
C202 H193 0.930 . S
C202 C200 1.378 . S
C202 C203 1.367 . S
C203 C202 1.367 . S
C203 C205 1.433 . S
C204 C200 1.350 . S
C204 C201 1.463 . S
C204 N208 1.427 . S
C205 H195 0.929 . S
C205 C203 1.433 . S
C205 N208 1.384 . S
C206 H197 0.929 . S
C206 C198 1.378 . S
C206 C201 1.350 . S
C207 H194 0.929 . S
C207 C199 1.433 . S
C207 N209 1.384 . S
N208 C204 1.427 . S
N208 C205 1.384 . S
N209 C201 1.427 . S
N209 C207 1.384 . S
H210 C216 0.930 . S
H211 C220 0.930 . S
H212 C225 0.929 . S
H213 C223 0.929 . S
H214 C218 0.929 . S
H215 C224 0.929 . S
C216 H210 0.930 . S
C216 C217 1.367 . S
C216 C224 1.378 . S
C217 C216 1.367 . S
C217 C225 1.433 . S
C218 H214 0.929 . S
C218 C220 1.378 . S
C218 C222 1.350 . S
C219 C222 1.463 . S
C219 C224 1.350 . S
C219 N227 1.427 . S
C220 H211 0.930 . S
C220 C218 1.378 . S
C220 C221 1.367 . S
C221 C220 1.367 . S
C221 C223 1.433 . S
C222 C218 1.350 . S
C222 C219 1.463 . S
C222 N226 1.427 . S
C223 H213 0.929 . S
C223 C221 1.433 . S
C223 N226 1.384 . S
C224 H215 0.929 . S
C224 C216 1.378 . S
C224 C219 1.350 . S
C225 H212 0.929 . S
C225 C217 1.433 . S
C225 N227 1.384 . S
N226 C222 1.427 . S
N226 C223 1.384 . S
N227 C219 1.427 . S
N227 C225 1.384 . S
H228 C234 0.930 . S
H229 C238 0.930 . S
H230 C243 0.929 . S
H231 C241 0.929 . S
H232 C236 0.929 . S
H233 C242 0.929 . S
C234 H228 0.930 . S
C234 C235 1.367 . S
C234 C242 1.378 . S
C235 C234 1.367 . S
C235 C243 1.433 . S
C236 H232 0.929 . S
C236 C238 1.378 . S
C236 C240 1.350 . S
C237 C240 1.463 . S
C237 C242 1.350 . S
C237 N245 1.427 . S
C238 H229 0.930 . S
C238 C236 1.378 . S
C238 C239 1.367 . S
C239 C238 1.367 . S
C239 C241 1.433 . S
C240 C236 1.350 . S
C240 C237 1.463 . S
C240 N244 1.427 . S
C241 H231 0.929 . S
C241 C239 1.433 . S
C241 N244 1.384 . S
C242 H233 0.929 . S
C242 C234 1.378 . S
C242 C237 1.350 . S
C243 H230 0.929 . S
C243 C235 1.433 . S
C243 N245 1.384 . S
N244 C240 1.427 . S
N244 C241 1.384 . S
N245 C237 1.427 . S
N245 C243 1.384 . S
H246 C252 0.930 . S
H247 C256 0.930 . S
H248 C261 0.929 . S
H249 C259 0.929 . S
H250 C254 0.929 . S
H251 C260 0.929 . S
C252 H246 0.930 . S
C252 C253 1.367 . S
C252 C260 1.378 . S
C253 C252 1.367 . S
C253 C261 1.433 . S
C254 H250 0.929 . S
C254 C256 1.378 . S
C254 C258 1.350 . S
C255 C258 1.463 . S
C255 C260 1.350 . S
C255 N263 1.427 . S
C256 H247 0.930 . S
C256 C254 1.378 . S
C256 C257 1.367 . S
C257 C256 1.367 . S
C257 C259 1.433 . S
C258 C254 1.350 . S
C258 C255 1.463 . S
C258 N262 1.427 . S
C259 H249 0.929 . S
C259 C257 1.433 . S
C259 N262 1.384 . S
C260 H251 0.929 . S
C260 C252 1.378 . S
C260 C255 1.350 . S
C261 H248 0.929 . S
C261 C253 1.433 . S
C261 N263 1.384 . S
N262 C258 1.427 . S
N262 C259 1.384 . S
N263 C255 1.427 . S
N263 C261 1.384 . S
H264 C270 0.930 . S
H265 C274 0.930 . S
H266 C279 0.929 . S
H267 C277 0.929 . S
H268 C272 0.929 . S
H269 C278 0.929 . S
C270 H264 0.930 . S
C270 C271 1.367 . S
C270 C278 1.378 . S
C271 C270 1.367 . S
C271 C279 1.433 . S
C272 H268 0.929 . S
C272 C274 1.378 . S
C272 C276 1.350 . S
C273 C276 1.463 . S
C273 C278 1.350 . S
C273 N281 1.427 . S
C274 H265 0.930 . S
C274 C272 1.378 . S
C274 C275 1.367 . S
C275 C274 1.367 . S
C275 C277 1.433 . S
C276 C272 1.350 . S
C276 C273 1.463 . S
C276 N280 1.427 . S
C277 H267 0.929 . S
C277 C275 1.433 . S
C277 N280 1.384 . S
C278 H269 0.929 . S
C278 C270 1.378 . S
C278 C273 1.350 . S
C279 H266 0.929 . S
C279 C271 1.433 . S
C279 N281 1.384 . S
N280 C276 1.427 . S
N280 C277 1.384 . S
N281 C273 1.427 . S
N281 C279 1.384 . S
H282 C288 0.930 . S
H283 C292 0.930 . S
H284 C297 0.929 . S
H285 C295 0.929 . S
H286 C290 0.929 . S
H287 C296 0.929 . S
C288 H282 0.930 . S
C288 C289 1.367 . S
C288 C296 1.378 . S
C289 C288 1.367 . S
C289 C297 1.433 . S
C290 H286 0.929 . S
C290 C292 1.378 . S
C290 C294 1.350 . S
C291 C294 1.463 . S
C291 C296 1.350 . S
C291 N299 1.427 . S
C292 H283 0.930 . S
C292 C290 1.378 . S
C292 C293 1.367 . S
C293 C292 1.367 . S
C293 C295 1.433 . S
C294 C290 1.350 . S
C294 C291 1.463 . S
C294 N298 1.427 . S
C295 H285 0.929 . S
C295 C293 1.433 . S
C295 N298 1.384 . S
C296 H287 0.929 . S
C296 C288 1.378 . S
C296 C291 1.350 . S
C297 H284 0.929 . S
C297 C289 1.433 . S
C297 N299 1.384 . S
N298 C294 1.427 . S
N298 C295 1.384 . S
N299 C291 1.427 . S
N299 C297 1.384 . S
H300 C306 0.930 . S
H301 C310 0.930 . S
H302 C315 0.929 . S
H303 C313 0.929 . S
H304 C308 0.929 . S
H305 C314 0.929 . S
C306 H300 0.930 . S
C306 C307 1.367 . S
C306 C314 1.378 . S
C307 C306 1.367 . S
C307 C315 1.433 . S
C308 H304 0.929 . S
C308 C310 1.378 1_545 S
C308 C312 1.350 . S
C309 C312 1.463 . S
C309 C314 1.350 . S
C309 N317 1.427 . S
C310 H301 0.930 . S
C310 C308 1.378 1_565 S
C310 C311 1.367 . S
C311 C310 1.367 . S
C311 C313 1.433 1_565 S
C312 C308 1.350 . S
C312 C309 1.463 . S
C312 N316 1.427 . S
C313 H303 0.929 . S
C313 C311 1.433 1_545 S
C313 N316 1.384 . S
C314 H305 0.929 . S
C314 C306 1.378 . S
C314 C309 1.350 . S
C315 H302 0.929 . S
C315 C307 1.433 . S
C315 N317 1.384 . S
N316 C312 1.427 . S
N316 C313 1.384 . S
N317 C309 1.427 . S
N317 C315 1.384 . S
H318 C324 0.930 . S
H319 C328 0.930 . S
H320 C333 0.929 . S
H321 C331 0.929 . S
H322 C326 0.929 . S
H323 C332 0.929 . S
C324 H318 0.930 . S
C324 C325 1.367 1_455 S
C324 C332 1.378 . S
C325 C324 1.367 1_655 S
C325 C333 1.433 . S
C326 H322 0.929 . S
C326 C328 1.378 . S
C326 C330 1.350 . S
C327 C330 1.463 . S
C327 C332 1.350 . S
C327 N335 1.427 . S
C328 H319 0.930 . S
C328 C326 1.378 . S
C328 C329 1.367 . S
C329 C328 1.367 . S
C329 C331 1.433 . S
C330 C326 1.350 . S
C330 C327 1.463 . S
C330 N334 1.427 . S
C331 H321 0.929 . S
C331 C329 1.433 . S
C331 N334 1.384 . S
C332 H323 0.929 . S
C332 C324 1.378 . S
C332 C327 1.350 . S
C333 H320 0.929 . S
C333 C325 1.433 . S
C333 N335 1.384 1_655 S
N334 C330 1.427 . S
N334 C331 1.384 . S
N335 C327 1.427 . S
N335 C333 1.384 1_455 S
H336 C342 0.930 1_455 S
H337 C346 0.930 1_565 S
H338 C351 0.929 1_455 S
H339 C349 0.929 1_565 S
H340 C344 0.929 . S
H341 C350 0.929 . S
C342 H336 0.930 1_655 S
C342 C343 1.367 1_655 S
C342 C350 1.378 . S
C343 C342 1.367 1_455 S
C343 C351 1.433 1_455 S
C344 H340 0.929 . S
C344 C346 1.378 . S
C344 C348 1.350 . S
C345 C348 1.463 . S
C345 C350 1.350 . S
C345 N353 1.427 . S
C346 H337 0.930 1_545 S
C346 C344 1.378 . S
C346 C347 1.367 1_545 S
C347 C346 1.367 1_565 S
C347 C349 1.433 1_565 S
C348 C344 1.350 . S
C348 C345 1.463 . S
C348 N352 1.427 . S
C349 H339 0.929 1_545 S
C349 C347 1.433 1_545 S
C349 N352 1.384 . S
C350 H341 0.929 . S
C350 C342 1.378 . S
C350 C345 1.350 . S
C351 H338 0.929 1_655 S
C351 C343 1.433 1_655 S
C351 N353 1.384 . S
N352 C348 1.427 . S
N352 C349 1.384 . S
N353 C345 1.427 . S
N353 C351 1.384 . S
H354 C360 0.930 1_545 S
H355 C364 0.930 . S
H356 C369 0.929 1_545 S
H357 C367 0.929 . S
H358 C362 0.929 . S
H359 C368 0.929 . S
C360 H354 0.930 1_565 S
C360 C361 1.367 1_565 S
C360 C368 1.378 . S
C361 C360 1.367 1_545 S
C361 C369 1.433 1_545 S
C362 H358 0.929 . S
C362 C364 1.378 . S
C362 C366 1.350 . S
C363 C366 1.463 . S
C363 C368 1.350 . S
C363 N371 1.427 . S
C364 H355 0.930 . S
C364 C362 1.378 . S
C364 C365 1.367 . S
C365 C364 1.367 . S
C365 C367 1.433 . S
C366 C362 1.350 . S
C366 C363 1.463 . S
C366 N370 1.427 . S
C367 H357 0.929 . S
C367 C365 1.433 . S
C367 N370 1.384 . S
C368 H359 0.929 . S
C368 C360 1.378 . S
C368 C363 1.350 . S
C369 H356 0.929 1_565 S
C369 C361 1.433 1_565 S
C369 N371 1.384 . S
N370 C366 1.427 . S
N370 C367 1.384 . S
N371 C363 1.427 . S
N371 C369 1.384 . S
H372 C378 0.930 . S
H373 C382 0.930 . S
H374 C387 0.929 . S
H375 C385 0.929 . S
H376 C380 0.929 . S
H377 C386 0.929 . S
C378 H372 0.930 . S
C378 C379 1.367 . S
C378 C386 1.378 . S
C379 C378 1.367 . S
C379 C387 1.433 . S
C380 H376 0.929 . S
C380 C382 1.378 . S
C380 C384 1.350 . S
C381 C384 1.463 . S
C381 C386 1.350 . S
C381 N389 1.427 . S
C382 H373 0.930 . S
C382 C380 1.378 . S
C382 C383 1.367 1_655 S
C383 C382 1.367 1_455 S
C383 C385 1.433 . S
C384 C380 1.350 . S
C384 C381 1.463 . S
C384 N388 1.427 . S
C385 H375 0.929 . S
C385 C383 1.433 . S
C385 N388 1.384 1_455 S
C386 H377 0.929 . S
C386 C378 1.378 . S
C386 C381 1.350 . S
C387 H374 0.929 . S
C387 C379 1.433 . S
C387 N389 1.384 . S
N388 C384 1.427 . S
N388 C385 1.384 1_655 S
N389 C381 1.427 . S
N389 C387 1.384 . S
H390 C396 0.930 . S
H391 C400 0.930 . S
H392 C405 0.929 . S
H393 C403 0.929 . S
H394 C398 0.929 . S
H395 C404 0.929 . S
C396 H390 0.930 . S
C396 C397 1.367 . S
C396 C404 1.378 1_545 S
C397 C396 1.367 . S
C397 C405 1.433 1_545 S
C398 H394 0.929 . S
C398 C400 1.378 . S
C398 C402 1.350 . S
C399 C402 1.463 . S
C399 C404 1.350 . S
C399 N407 1.427 . S
C400 H391 0.930 . S
C400 C398 1.378 . S
C400 C401 1.367 1_455 S
C401 C400 1.367 1_655 S
C401 C403 1.433 . S
C402 C398 1.350 . S
C402 C399 1.463 . S
C402 N406 1.427 . S
C403 H393 0.929 . S
C403 C401 1.433 . S
C403 N406 1.384 1_655 S
C404 H395 0.929 . S
C404 C396 1.378 1_565 S
C404 C399 1.350 . S
C405 H392 0.929 . S
C405 C397 1.433 1_565 S
C405 N407 1.384 . S
N406 C402 1.427 . S
N406 C403 1.384 1_455 S
N407 C399 1.427 . S
N407 C405 1.384 . S
H408 C414 0.930 . S
H409 C418 0.930 . S
H410 C423 0.929 . S
H411 C421 0.929 . S
H412 C416 0.929 1_554 S
H413 C422 0.929 1_556 S
C414 H408 0.930 . S
C414 C415 1.367 . S
C414 C422 1.378 . S
C415 C414 1.367 . S
C415 C423 1.433 . S
C416 H412 0.929 1_556 S
C416 C418 1.378 . S
C416 C420 1.350 . S
C417 C420 1.463 1_554 S
C417 C422 1.350 . S
C417 N425 1.427 . S
C418 H409 0.930 . S
C418 C416 1.378 . S
C418 C419 1.367 . S
C419 C418 1.367 . S
C419 C421 1.433 . S
C420 C416 1.350 . S
C420 C417 1.463 1_556 S
C420 N424 1.427 . S
C421 H411 0.929 . S
C421 C419 1.433 . S
C421 N424 1.384 . S
C422 H413 0.929 1_554 S
C422 C414 1.378 . S
C422 C417 1.350 . S
C423 H410 0.929 . S
C423 C415 1.433 . S
C423 N425 1.384 . S
N424 C420 1.427 . S
N424 C421 1.384 . S
N425 C417 1.427 . S
N425 C423 1.384 . S
H426 C432 0.930 . S
H427 C436 0.930 . S
H428 C441 0.929 . S
H429 C439 0.929 . S
H430 C434 0.929 . S
H431 C440 0.929 . S
C432 H426 0.930 . S
C432 C433 1.367 . S
C432 C440 1.378 . S
C433 C432 1.367 . S
C433 C441 1.433 . S
C434 H430 0.929 . S
C434 C436 1.378 . S
C434 C438 1.350 . S
C435 C438 1.463 1_655 S
C435 C440 1.350 . S
C435 N443 1.427 . S
C436 H427 0.930 . S
C436 C434 1.378 . S
C436 C437 1.367 . S
C437 C436 1.367 . S
C437 C439 1.433 . S
C438 C434 1.350 . S
C438 C435 1.463 1_455 S
C438 N442 1.427 . S
C439 H429 0.929 . S
C439 C437 1.433 . S
C439 N442 1.384 . S
C440 H431 0.929 . S
C440 C432 1.378 . S
C440 C435 1.350 . S
C441 H428 0.929 . S
C441 C433 1.433 . S
C441 N443 1.384 . S
N442 C438 1.427 . S
N442 C439 1.384 . S
N443 C435 1.427 . S
N443 C441 1.384 . S
H444 C450 0.930 . S
H445 C454 0.930 . S
H446 C459 0.929 . S
H447 C457 0.929 . S
H448 C452 0.929 1_554 S
H449 C458 0.929 1_556 S
C450 H444 0.930 . S
C450 C451 1.367 . S
C450 C458 1.378 . S
C451 C450 1.367 . S
C451 C459 1.433 . S
C452 H448 0.929 1_556 S
C452 C454 1.378 . S
C452 C456 1.350 . S
C453 C456 1.463 1_564 S
C453 C458 1.350 . S
C453 N461 1.427 1_565 S
C454 H445 0.930 . S
C454 C452 1.378 . S
C454 C455 1.367 . S
C455 C454 1.367 . S
C455 C457 1.433 . S
C456 C452 1.350 . S
C456 C453 1.463 1_546 S
C456 N460 1.427 1_545 S
C457 H447 0.929 . S
C457 C455 1.433 . S
C457 N460 1.384 1_545 S
C458 H449 0.929 1_554 S
C458 C450 1.378 . S
C458 C453 1.350 . S
C459 H446 0.929 . S
C459 C451 1.433 . S
C459 N461 1.384 1_565 S
N460 C456 1.427 1_565 S
N460 C457 1.384 1_565 S
N461 C453 1.427 1_545 S
N461 C459 1.384 1_545 S
H462 C468 0.930 . S
H463 C472 0.930 . S
H464 C477 0.929 . S
H465 C475 0.929 . S
H466 C470 0.929 . S
H467 C476 0.929 . S
C468 H462 0.930 . S
C468 C469 1.367 . S
C468 C476 1.378 . S
C469 C468 1.367 . S
C469 C477 1.433 . S
C470 H466 0.929 . S
C470 C472 1.378 . S
C470 C474 1.350 . S
C471 C474 1.463 . S
C471 C476 1.350 . S
C471 N479 1.427 . S
C472 H463 0.930 . S
C472 C470 1.378 . S
C472 C473 1.367 . S
C473 C472 1.367 . S
C473 C475 1.433 . S
C474 C470 1.350 . S
C474 C471 1.463 . S
C474 N478 1.427 . S
C475 H465 0.929 . S
C475 C473 1.433 . S
C475 N478 1.384 . S
C476 H467 0.929 . S
C476 C468 1.378 . S
C476 C471 1.350 . S
C477 H464 0.929 . S
C477 C469 1.433 . S
C477 N479 1.384 . S
N478 C474 1.427 . S
N478 C475 1.384 . S
N479 C471 1.427 . S
N479 C477 1.384 . S
H480 C486 0.930 . S
H481 C490 0.930 . S
H482 C495 0.929 . S
H483 C493 0.929 . S
H484 C488 0.929 . S
H485 C494 0.929 . S
C486 H480 0.930 . S
C486 C487 1.367 . S
C486 C494 1.378 . S
C487 C486 1.367 . S
C487 C495 1.433 . S
C488 H484 0.929 . S
C488 C490 1.378 . S
C488 C492 1.350 . S
C489 C492 1.463 1_656 S
C489 C494 1.350 . S
C489 N497 1.427 . S
C490 H481 0.930 . S
C490 C488 1.378 . S
C490 C491 1.367 . S
C491 C490 1.367 . S
C491 C493 1.433 . S
C492 C488 1.350 . S
C492 C489 1.463 1_454 S
C492 N496 1.427 . S
C493 H483 0.929 . S
C493 C491 1.433 . S
C493 N496 1.384 . S
C494 H485 0.929 . S
C494 C486 1.378 . S
C494 C489 1.350 . S
C495 H482 0.929 . S
C495 C487 1.433 . S
C495 N497 1.384 . S
N496 C492 1.427 . S
N496 C493 1.384 . S
N497 C489 1.427 . S
N497 C495 1.384 . S
H498 C504 0.930 . S
H499 C508 0.930 . S
H500 C513 0.929 . S
H501 C511 0.929 . S
H502 C506 0.929 1_545 S
H503 C512 0.929 1_565 S
C504 H498 0.930 . S
C504 C505 1.367 . S
C504 C512 1.378 . S
C505 C504 1.367 . S
C505 C513 1.433 . S
C506 H502 0.929 1_565 S
C506 C508 1.378 . S
C506 C510 1.350 . S
C507 C510 1.463 1_545 S
C507 C512 1.350 . S
C507 N515 1.427 . S
C508 H499 0.930 . S
C508 C506 1.378 . S
C508 C509 1.367 . S
C509 C508 1.367 . S
C509 C511 1.433 . S
C510 C506 1.350 . S
C510 C507 1.463 1_565 S
C510 N514 1.427 . S
C511 H501 0.929 . S
C511 C509 1.433 . S
C511 N514 1.384 . S
C512 H503 0.929 1_545 S
C512 C504 1.378 . S
C512 C507 1.350 . S
C513 H500 0.929 . S
C513 C505 1.433 . S
C513 N515 1.384 . S
N514 C510 1.427 . S
N514 C511 1.384 . S
N515 C507 1.427 . S
N515 C513 1.384 . S
H516 C522 0.930 . S
H517 C526 0.930 . S
H518 C531 0.929 . S
H519 C529 0.929 . S
H520 C524 0.929 . S
H521 C530 0.929 . S
C522 H516 0.930 . S
C522 C523 1.367 . S
C522 C530 1.378 . S
C523 C522 1.367 . S
C523 C531 1.433 . S
C524 H520 0.929 . S
C524 C526 1.378 . S
C524 C528 1.350 . S
C525 C528 1.463 1_556 S
C525 C530 1.350 . S
C525 N533 1.427 . S
C526 H517 0.930 . S
C526 C524 1.378 . S
C526 C527 1.367 . S
C527 C526 1.367 . S
C527 C529 1.433 . S
C528 C524 1.350 . S
C528 C525 1.463 1_554 S
C528 N532 1.427 . S
C529 H519 0.929 . S
C529 C527 1.433 . S
C529 N532 1.384 . S
C530 H521 0.929 . S
C530 C522 1.378 . S
C530 C525 1.350 . S
C531 H518 0.929 . S
C531 C523 1.433 . S
C531 N533 1.384 . S
N532 C528 1.427 . S
N532 C529 1.384 . S
N533 C525 1.427 . S
N533 C531 1.384 . S
H534 C540 0.930 . S
H535 C544 0.930 . S
H536 C549 0.929 . S
H537 C547 0.929 . S
H538 C542 0.929 1_455 S
H539 C548 0.929 1_655 S
C540 H534 0.930 . S
C540 C541 1.367 . S
C540 C548 1.378 . S
C541 C540 1.367 . S
C541 C549 1.433 . S
C542 H538 0.929 1_655 S
C542 C544 1.378 . S
C542 C546 1.350 . S
C543 C546 1.463 1_455 S
C543 C548 1.350 . S
C543 N551 1.427 . S
C544 H535 0.930 . S
C544 C542 1.378 . S
C544 C545 1.367 . S
C545 C544 1.367 . S
C545 C547 1.433 . S
C546 C542 1.350 . S
C546 C543 1.463 1_655 S
C546 N550 1.427 . S
C547 H537 0.929 . S
C547 C545 1.433 . S
C547 N550 1.384 . S
C548 H539 0.929 1_455 S
C548 C540 1.378 . S
C548 C543 1.350 . S
C549 H536 0.929 . S
C549 C541 1.433 . S
C549 N551 1.384 . S
N550 C546 1.427 . S
N550 C547 1.384 . S
N551 C543 1.427 . S
N551 C549 1.384 . S
H552 C558 0.930 . S
H553 C562 0.930 . S
H554 C567 0.929 . S
H555 C565 0.929 . S
H556 C560 0.929 1_556 S
H557 C566 0.929 1_554 S
C558 H552 0.930 . S
C558 C559 1.367 . S
C558 C566 1.378 . S
C559 C558 1.367 . S
C559 C567 1.433 . S
C560 H556 0.929 1_554 S
C560 C562 1.378 . S
C560 C564 1.350 . S
C561 C564 1.463 1_546 S
C561 C566 1.350 . S
C561 N569 1.427 1_545 S
C562 H553 0.930 . S
C562 C560 1.378 . S
C562 C563 1.367 . S
C563 C562 1.367 . S
C563 C565 1.433 . S
C564 C560 1.350 . S
C564 C561 1.463 1_564 S
C564 N568 1.427 1_565 S
C565 H555 0.929 . S
C565 C563 1.433 . S
C565 N568 1.384 1_565 S
C566 H557 0.929 1_556 S
C566 C558 1.378 . S
C566 C561 1.350 . S
C567 H554 0.929 . S
C567 C559 1.433 . S
C567 N569 1.384 1_545 S
N568 C564 1.427 1_545 S
N568 C565 1.384 1_545 S
N569 C561 1.427 1_565 S
N569 C567 1.384 1_565 S
H570 C576 0.930 . S
H571 C580 0.930 . S
H572 C585 0.929 . S
H573 C583 0.929 . S
H574 C578 0.929 . S
H575 C584 0.929 . S
C576 H570 0.930 . S
C576 C577 1.367 . S
C576 C584 1.378 . S
C577 C576 1.367 . S
C577 C585 1.433 . S
C578 H574 0.929 . S
C578 C580 1.378 . S
C578 C582 1.350 . S
C579 C582 1.463 . S
C579 C584 1.350 . S
C579 N587 1.427 . S
C580 H571 0.930 . S
C580 C578 1.378 . S
C580 C581 1.367 . S
C581 C580 1.367 . S
C581 C583 1.433 . S
C582 C578 1.350 . S
C582 C579 1.463 . S
C582 N586 1.427 . S
C583 H573 0.929 . S
C583 C581 1.433 . S
C583 N586 1.384 . S
C584 H575 0.929 . S
C584 C576 1.378 . S
C584 C579 1.350 . S
C585 H572 0.929 . S
C585 C577 1.433 . S
C585 N587 1.384 . S
N586 C582 1.427 . S
N586 C583 1.384 . S
N587 C579 1.427 . S
N587 C585 1.384 . S
H588 C594 0.930 . S
H589 C598 0.930 . S
H590 C603 0.929 . S
H591 C601 0.929 . S
H592 C596 0.929 1_554 S
H593 C602 0.929 1_556 S
C594 H588 0.930 . S
C594 C595 1.367 . S
C594 C602 1.378 . S
C595 C594 1.367 . S
C595 C603 1.433 . S
C596 H592 0.929 1_556 S
C596 C598 1.378 . S
C596 C600 1.350 . S
C597 C600 1.463 1_454 S
C597 C602 1.350 . S
C597 N605 1.427 1_455 S
C598 H589 0.930 . S
C598 C596 1.378 . S
C598 C599 1.367 . S
C599 C598 1.367 . S
C599 C601 1.433 . S
C600 C596 1.350 . S
C600 C597 1.463 1_656 S
C600 N604 1.427 1_655 S
C601 H591 0.929 . S
C601 C599 1.433 . S
C601 N604 1.382 1_655 S
C602 H593 0.929 1_554 S
C602 C594 1.378 . S
C602 C597 1.350 . S
C603 H590 0.929 . S
C603 C595 1.433 . S
C603 N605 1.381 1_455 S
N604 C600 1.427 1_455 S
N604 C601 1.382 1_455 S
N605 C597 1.427 1_655 S
N605 C603 1.381 1_655 S
H606 C612 0.930 . S
H607 C616 0.930 . S
H608 C621 0.929 . S
H609 C619 0.929 . S
H610 C614 0.929 1_545 S
H611 C620 0.929 1_565 S
C612 H606 0.930 . S
C612 C613 1.367 . S
C612 C620 1.378 . S
C613 C612 1.367 . S
C613 C621 1.433 . S
C614 H610 0.929 1_565 S
C614 C616 1.378 . S
C614 C618 1.350 . S
C615 C618 1.463 1_545 S
C615 C620 1.350 . S
C615 N623 1.427 . S
C616 H607 0.930 . S
C616 C614 1.378 . S
C616 C617 1.367 . S
C617 C616 1.367 . S
C617 C619 1.433 . S
C618 C614 1.350 . S
C618 C615 1.463 1_565 S
C618 N622 1.427 . S
C619 H609 0.929 . S
C619 C617 1.433 . S
C619 N622 1.384 . S
C620 H611 0.929 1_545 S
C620 C612 1.378 . S
C620 C615 1.350 . S
C621 H608 0.929 . S
C621 C613 1.433 . S
C621 N623 1.384 . S
N622 C618 1.427 . S
N622 C619 1.384 . S
N623 C615 1.427 . S
N623 C621 1.384 . S
C199 C30 1.138 . S
C203 C155 1.147 . S
C217 C187 1.149 . S
C221 C62 1.136 . S
C235 C27 1.135 . S
C239 C94 1.151 . S
C253 C59 1.153 . S
C257 C126 1.132 . S
C271 C158 1.137 . S
C275 C91 1.149 . S
C289 C190 1.148 . S
C293 C123 1.137 . S
C307 C22 1.002 . S
C311 C136 0.982 . S
C325 C54 1.000 . S
C329 C168 0.983 . S
C343 C8 0.991 . S
C347 C86 0.993 . S
C361 C40 0.990 . S
C365 C118 0.993 . S
C379 C72 0.989 . S
C383 C150 0.994 . S
C397 C182 0.988 . S
C401 C104 0.995 . S
C415 C17 1.504 . S
C419 C184 1.536 . S
C433 C49 1.519 . S
C437 C24 1.530 . S
C451 C81 1.511 . S
C455 C56 1.529 . S
C469 C113 1.521 . S
C473 C88 1.531 . S
C487 C120 1.542 . S
C491 C145 1.507 . S
C505 C177 1.511 . S
C509 C152 1.544 . S
C523 C119 1.535 . S
C527 C95 1.522 . S
C541 C151 1.544 . S
C545 C127 1.511 . S
C559 C183 1.530 . S
C563 C159 1.509 . S
C577 C191 1.521 . S
C581 C23 1.532 . S
C595 C31 1.513 . S
C599 C55 1.529 . S
C613 C63 1.522 . S
C617 C87 1.535 . S
