# Generated by pormake.
# Topology vmz, (8)-cn, num edge types: 1
# Building blocks:
#     Node 0, Type 0, BuildingBlock: TAGTUT_clean_sbu_3, # of connection points: 8
#     Node 1, Type 0, BuildingBlock: TAGTUT_clean_sbu_3, # of connection points: 8
#     Node 2, Type 0, BuildingBlock: TAGTUT_clean_sbu_3, # of connection points: 8
#     Node 3, Type 0, BuildingBlock: TAGTUT_clean_sbu_3, # of connection points: 8
#     Edge 4, Type (0, 0), BuildingBlock: UVAHIK_clean_linker_0, # of connection points: 2
#     Edge 5, Type (0, 0), BuildingBlock: UVAHIK_clean_linker_0, # of connection points: 2
#     Edge 6, Type (0, 0), BuildingBlock: UVAHIK_clean_linker_0, # of connection points: 2
#     Edge 7, Type (0, 0), BuildingBlock: UVAHIK_clean_linker_0, # of connection points: 2
#     Edge 8, Type (0, 0), BuildingBlock: UVAHIK_clean_linker_0, # of connection points: 2
#     Edge 9, Type (0, 0), BuildingBlock: UVAHIK_clean_linker_0, # of connection points: 2
#     Edge 10, Type (0, 0), BuildingBlock: UVAHIK_clean_linker_0, # of connection points: 2
#     Edge 11, Type (0, 0), BuildingBlock: UVAHIK_clean_linker_0, # of connection points: 2
#     Edge 12, Type (0, 0), BuildingBlock: UVAHIK_clean_linker_0, # of connection points: 2
#     Edge 13, Type (0, 0), BuildingBlock: UVAHIK_clean_linker_0, # of connection points: 2
#     Edge 14, Type (0, 0), BuildingBlock: UVAHIK_clean_linker_0, # of connection points: 2
#     Edge 15, Type (0, 0), BuildingBlock: UVAHIK_clean_linker_0, # of connection points: 2
#     Edge 16, Type (0, 0), BuildingBlock: UVAHIK_clean_linker_0, # of connection points: 2
#     Edge 17, Type (0, 0), BuildingBlock: UVAHIK_clean_linker_0, # of connection points: 2
#     Edge 18, Type (0, 0), BuildingBlock: UVAHIK_clean_linker_0, # of connection points: 2
#     Edge 19, Type (0, 0), BuildingBlock: UVAHIK_clean_linker_0, # of connection points: 2
# Relax obj value: 0.217
# Max RMSD: 0.272
# Mean RMSD: 0.270
data_MOF--net-vmz--node1-TAGTUT_clean_sbu_3--edge1-UVAHIK_clean_linker_0
_symmetry_space_group_name_H-M    P1
_symmetry_Int_Tables_number       1
_symmetry_cell_setting            triclinic
loop_
_symmetry_equiv_pos_as_xyz
'x, y, z'
_cell_length_a     31.909792
_cell_length_b     23.595931
_cell_length_c     41.509302
_cell_angle_alpha  89.653547
_cell_angle_beta   98.586622
_cell_angle_gamma 90.444716
loop_
_atom_site_label
_atom_site_type_symbol
_atom_site_fract_x
_atom_site_fract_y
_atom_site_fract_z
_atom_type_partial_charge
C0 C 0.2126 0.18477 0.15642 0.0
C1 C 0.22694 0.34627 0.07163 0.0
C2 C 0.2219 0.2046 0.00266 0.0
Mg3 Mg 0.23623 0.05432 0.15387 0.0
Mg4 Mg 0.31451 0.01139 0.11691 0.0
O5 O 0.26302 0.04916 0.11278 0.0
Mg6 Mg 0.26159 0.13144 0.10072 0.0
O7 O 0.25459 0.21364 0.09021 0.0
Mg8 Mg 0.1909 0.21422 0.07802 0.0
Mg9 Mg 0.28597 0.24566 0.06001 0.0
C10 C 0.31415 0.07102 0.04785 0.0
O11 O 0.33119 0.15092 0.11975 0.0
O12 O 0.23615 0.95652 0.15457 0.0
O13 O 0.34769 0.21825 0.08469 0.0
O14 O 0.30069 0.05405 0.18793 0.0
O15 O 0.29024 0.93012 0.12882 0.0
O16 O 0.35377 0.04262 0.15937 0.0
O17 O 0.19277 0.11783 0.08185 0.0
O18 O 0.17299 0.05836 0.11893 0.0
C19 C 0.1643 0.08852 0.09299 0.0
C20 C 0.25905 0.91834 0.14399 0.0
O21 O 0.2869 0.10836 0.05323 0.0
O22 O 0.19738 0.31098 0.07575 0.0
O23 O 0.32923 0.03368 0.06904 0.0
O24 O 0.19381 0.20771 0.0217 0.0
O25 O 0.26329 0.3305 0.06538 0.0
O26 O 0.26109 0.21273 0.01309 0.0
O27 O 0.23975 0.15046 0.14817 0.0
O28 O 0.19018 0.21594 0.13494 0.0
C29 C 0.34034 0.05214 0.18623 0.0
C30 C 0.35808 0.18357 0.10852 0.0
C31 C 0.65778 0.64641 0.45458 0.0
C32 C 0.76035 0.80146 0.4996 0.0
C33 C 0.74188 0.87449 0.40154 0.0
Mg34 Mg 0.64289 0.58249 0.3861 0.0
Mg35 Mg 0.71946 0.57289 0.34281 0.0
O36 O 0.68404 0.62191 0.36115 0.0
Mg37 Mg 0.712 0.67587 0.39493 0.0
O38 O 0.73534 0.72954 0.43043 0.0
Mg39 Mg 0.68415 0.77454 0.43607 0.0
Mg40 Mg 0.78673 0.76935 0.43283 0.0
C41 C 0.76053 0.69155 0.32993 0.0
O42 O 0.77455 0.62663 0.40734 0.0
O43 O 0.61569 0.53826 0.33762 0.0
O44 O 0.82285 0.69705 0.42012 0.0
O45 O 0.68415 0.50123 0.39742 0.0
O46 O 0.67049 0.53314 0.30923 0.0
O47 O 0.74398 0.50738 0.37615 0.0
O48 O 0.65411 0.73197 0.38679 0.0
O49 O 0.60355 0.66568 0.37515 0.0
C50 C 0.61512 0.71796 0.37897 0.0
C51 C 0.63183 0.52284 0.31245 0.0
O52 O 0.74347 0.71673 0.35231 0.0
O53 O 0.72138 0.80236 0.48601 0.0
O54 O 0.75923 0.63755 0.32612 0.0
O55 O 0.70881 0.85344 0.41116 0.0
O56 O 0.79072 0.78963 0.48379 0.0
O57 O 0.7767 0.84723 0.40497 0.0
O58 O 0.67651 0.62791 0.43158 0.0
O59 O 0.65913 0.699 0.46149 0.0
C60 C 0.71992 0.48073 0.39304 0.0
C61 C 0.81308 0.64469 0.41421 0.0
C62 C 0.64697 0.89117 0.92002 0.0
C63 C 0.73558 0.74075 0.9898 0.0
C64 C 0.73417 0.64961 0.89707 0.0
Mg65 Mg 0.64053 0.93509 0.84643 0.0
Mg66 Mg 0.74732 0.92844 0.82163 0.0
O67 O 0.69475 0.89161 0.83388 0.0
Mg68 Mg 0.71173 0.84386 0.87438 0.0
O69 O 0.72532 0.79957 0.91574 0.0
Mg70 Mg 0.67171 0.75704 0.91742 0.0
Mg71 Mg 0.77582 0.75927 0.92639 0.0
C72 C 0.78457 0.80867 0.83146 0.0
O73 O 0.7718 0.89546 0.89121 0.0
O74 O 0.67849 0.90933 0.80553 0.0
O75 O 0.81691 0.82781 0.91404 0.0
O76 O 0.68109 0.01843 0.85334 0.0
O77 O 0.71936 0.93463 0.77057 0.0
O78 O 0.74851 0.01283 0.84378 0.0
O79 O 0.65306 0.7864 0.8626 0.0
O80 O 0.60487 0.84979 0.84077 0.0
C81 C 0.61538 0.79886 0.8493 0.0
C82 C 0.68167 0.92734 0.7765 0.0
O83 O 0.75315 0.79085 0.84495 0.0
O84 O 0.69844 0.73848 0.97259 0.0
O85 O 0.79405 0.8615 0.83059 0.0
O86 O 0.6992 0.67195 0.90189 0.0
O87 O 0.76928 0.74869 0.97693 0.0
O88 O 0.769 0.67745 0.90242 0.0
O89 O 0.66949 0.90106 0.89753 0.0
O90 O 0.64496 0.84136 0.9321 0.0
C91 C 0.71777 0.04086 0.85256 0.0
C92 C 0.80897 0.87867 0.90358 0.0
C93 C 0.34804 0.27126 0.63457 0.0
C94 C 0.29044 0.41596 0.70568 0.0
C95 C 0.24065 0.50559 0.6269 0.0
Mg96 Mg 0.28553 0.21724 0.57377 0.0
Mg97 Mg 0.18192 0.21695 0.56823 0.0
O98 O 0.23228 0.25923 0.57613 0.0
Mg99 Mg 0.24955 0.30919 0.61494 0.0
O100 O 0.27106 0.3618 0.65264 0.0
Mg101 Mg 0.32077 0.40621 0.63286 0.0
Mg102 Mg 0.22038 0.3979 0.66666 0.0
C103 C 0.14873 0.3366 0.58886 0.0
O104 O 0.21433 0.25762 0.65079 0.0
O105 O 0.25553 0.18964 0.52125 0.0
O106 O 0.17676 0.32737 0.66902 0.0
O107 O 0.2601 0.13487 0.59504 0.0
O108 O 0.18497 0.19912 0.51754 0.0
O109 O 0.19053 0.139 0.5958 0.0
O110 O 0.28771 0.36466 0.58496 0.0
O111 O 0.30911 0.29836 0.55313 0.0
C112 C 0.30813 0.35011 0.56189 0.0
C113 C 0.21812 0.18867 0.50458 0.0
O114 O 0.18607 0.35585 0.59969 0.0
O115 O 0.29172 0.38748 0.67939 0.0
O116 O 0.14137 0.28498 0.57976 0.0
O117 O 0.27763 0.48583 0.62501 0.0
O118 O 0.25386 0.42119 0.71398 0.0
O119 O 0.21217 0.47649 0.63858 0.0
O120 O 0.30951 0.25618 0.62518 0.0
O121 O 0.35849 0.32336 0.64005 0.0
C122 C 0.22567 0.11266 0.60171 0.0
C123 C 0.18645 0.27486 0.66786 0.0
C124 C 0.25591 0.44331 0.08396 0.0
C125 C 0.22081 0.40647 0.07888 0.0
C126 C 0.252 0.49706 0.09671 0.0
C127 C 0.18101 0.61118 0.10627 0.0
H128 H 0.2681 0.65084 0.17839 0.0
C129 C 0.20685 0.841 0.15045 0.0
C130 C 0.24861 0.85831 0.14837 0.0
C131 C 0.1964 0.78334 0.15022 0.0
C132 C 0.24326 0.64015 0.15856 0.0
H133 H 0.15336 0.39861 0.08099 0.0
H134 H 0.14657 0.49374 0.10268 0.0
H135 H 0.26251 0.55358 0.15848 0.0
H136 H 0.31268 0.82959 0.14691 0.0
H137 H 0.29464 0.72956 0.14665 0.0
H138 H 0.16356 0.69864 0.10495 0.0
C139 C 0.1771 0.48015 0.09728 0.0
C140 C 0.24018 0.58476 0.14713 0.0
C141 C 0.18107 0.42593 0.08482 0.0
C142 C 0.28017 0.81736 0.14819 0.0
C143 C 0.26989 0.76007 0.14842 0.0
C144 C 0.18426 0.66687 0.11761 0.0
C145 C 0.21289 0.51524 0.10429 0.0
C146 C 0.21032 0.57056 0.11999 0.0
C147 C 0.22777 0.74251 0.14855 0.0
C148 C 0.21673 0.68224 0.14284 0.0
H149 H 0.28693 0.42983 0.07957 0.0
H150 H 0.27983 0.52413 0.10126 0.0
H151 H 0.15764 0.6009 0.08538 0.0
H152 H 0.18195 0.87188 0.15063 0.0
H153 H 0.16372 0.7707 0.15037 0.0
C154 C 0.70331 0.96627 0.39033 0.0
C155 C 0.74109 0.93536 0.39179 0.0
C156 C 0.70361 0.0254 0.3883 0.0
C157 C 0.77678 0.14812 0.40708 0.0
H158 H 0.67885 0.23252 0.36678 0.0
C159 C 0.76742 0.39548 0.39581 0.0
C160 C 0.72909 0.42018 0.40135 0.0
C161 C 0.77198 0.33639 0.39603 0.0
C162 C 0.70632 0.2095 0.37839 0.0
H163 H 0.80844 0.94279 0.38976 0.0
H164 H 0.80872 0.04599 0.38506 0.0
H165 H 0.68076 0.13034 0.35961 0.0
H166 H 0.6667 0.40168 0.41387 0.0
H167 H 0.67476 0.29914 0.41415 0.0
H168 H 0.80247 0.22817 0.42526 0.0
C169 C 0.77899 0.02445 0.38656 0.0
C170 C 0.70745 0.15078 0.37431 0.0
C171 C 0.77874 0.96508 0.38881 0.0
C172 C 0.69665 0.38442 0.4094 0.0
C173 C 0.70105 0.3255 0.40923 0.0
C174 C 0.77585 0.20713 0.4108 0.0
C175 C 0.74163 0.05557 0.38731 0.0
C176 C 0.74235 0.11896 0.38904 0.0
C177 C 0.73818 0.30077 0.40147 0.0
C178 C 0.74027 0.23832 0.39697 0.0
H179 H 0.67362 0.94504 0.3925 0.0
H180 H 0.67419 0.04743 0.38923 0.0
H181 H 0.80398 0.12526 0.41923 0.0
H182 H 0.79313 0.42165 0.38962 0.0
H183 H 0.80106 0.31858 0.39011 0.0
C184 C 0.77242 0.56015 0.88543 0.0
C185 C 0.73438 0.58836 0.88819 0.0
C186 C 0.77284 0.50118 0.88095 0.0
C187 C 0.7119 0.3726 0.89641 0.0
H188 H 0.77648 0.29848 0.83697 0.0
C189 C 0.6887 0.13504 0.86625 0.0
C190 C 0.72341 0.10259 0.85999 0.0
C191 C 0.69243 0.19372 0.87059 0.0
C192 C 0.75877 0.31831 0.8541 0.0
H193 H 0.66661 0.57628 0.88685 0.0
H194 H 0.66745 0.47422 0.87907 0.0
H195 H 0.77826 0.40181 0.84131 0.0
H196 H 0.78983 0.10712 0.8543 0.0
H197 H 0.7966 0.20948 0.86262 0.0
H198 H 0.69273 0.28971 0.90963 0.0
C199 C 0.6971 0.49749 0.88085 0.0
C200 C 0.75969 0.3777 0.85647 0.0
C201 C 0.69662 0.55627 0.88509 0.0
C202 C 0.76234 0.13058 0.85898 0.0
C203 C 0.76612 0.1895 0.86349 0.0
C204 C 0.71124 0.31341 0.89425 0.0
C205 C 0.73528 0.46893 0.87936 0.0
C206 C 0.73579 0.40565 0.87735 0.0
C207 C 0.73108 0.22206 0.86908 0.0
C208 C 0.73417 0.28526 0.87275 0.0
H209 H 0.80214 0.58332 0.88768 0.0
H210 H 0.80282 0.4806 0.87994 0.0
H211 H 0.69386 0.39253 0.91331 0.0
H212 H 0.65809 0.11538 0.86708 0.0
H213 H 0.66446 0.21704 0.87428 0.0
C214 C 0.26313 0.02007 0.61294 0.0
C215 C 0.2258 0.05194 0.61157 0.0
C216 C 0.262 0.96104 0.61557 0.0
C217 C 0.20085 0.83747 0.63728 0.0
H218 H 0.25604 0.76122 0.57269 0.0
C219 C 0.19476 0.59271 0.62374 0.0
C220 C 0.23289 0.5666 0.61904 0.0
C221 C 0.19035 0.65173 0.62104 0.0
C222 C 0.24085 0.78159 0.59116 0.0
H223 H 0.15852 0.04654 0.61448 0.0
H224 H 0.15687 0.94324 0.61968 0.0
H225 H 0.25706 0.86419 0.57514 0.0
H226 H 0.29561 0.58246 0.60644 0.0
H227 H 0.28825 0.68429 0.60234 0.0
H228 H 0.18561 0.75478 0.65392 0.0
C229 C 0.18686 0.96423 0.61831 0.0
C230 C 0.24143 0.84074 0.59252 0.0
C231 C 0.18787 0.02344 0.61534 0.0
C232 C 0.2657 0.60076 0.61018 0.0
C233 C 0.26139 0.65954 0.60767 0.0
C234 C 0.20069 0.77806 0.63618 0.0
C235 C 0.22366 0.93233 0.61728 0.0
C236 C 0.22188 0.86937 0.6158 0.0
C237 C 0.22397 0.68606 0.61361 0.0
C238 C 0.22113 0.74928 0.61332 0.0
H239 H 0.29303 0.04038 0.61037 0.0
H240 H 0.29104 0.93764 0.61538 0.0
H241 H 0.18555 0.85841 0.6555 0.0
H242 H 0.16874 0.56781 0.63049 0.0
H243 H 0.16077 0.67047 0.62518 0.0
C244 C 0.54314 0.75267 0.35484 0.0
C245 C 0.58346 0.76364 0.37239 0.0
C246 C 0.51559 0.79728 0.34485 0.0
C247 C 0.45674 0.8975 0.33323 0.0
H248 H 0.51122 0.02303 0.29471 0.0
C249 C 0.35648 0.04783 0.2471 0.0
C250 C 0.37096 0.0509 0.21674 0.0
C251 C 0.38367 0.03028 0.27486 0.0
C252 C 0.49549 0.98858 0.30559 0.0
H253 H 0.62514 0.82961 0.39543 0.0
H254 H 0.57693 0.90708 0.37847 0.0
H255 H 0.55436 0.95292 0.32731 0.0
H256 H 0.42667 0.04591 0.19266 0.0
H257 H 0.47365 0.01457 0.24062 0.0
H258 H 0.39808 0.93063 0.30942 0.0
C259 C 0.56697 0.86425 0.37168 0.0
C260 C 0.52021 0.94859 0.32458 0.0
C261 C 0.59458 0.81974 0.38147 0.0
C262 C 0.41428 0.04292 0.21553 0.0
C263 C 0.44139 0.0253 0.24322 0.0
C264 C 0.43205 0.93731 0.3141 0.0
C265 C 0.52766 0.85375 0.35244 0.0
C266 C 0.50117 0.90139 0.33758 0.0
C267 C 0.42581 0.01567 0.27276 0.0
C268 C 0.45124 0.98209 0.299 0.0
H269 H 0.53361 0.70996 0.34746 0.0
H270 H 0.48575 0.78762 0.32972 0.0
H271 H 0.44105 0.86228 0.34343 0.0
H272 H 0.32344 0.05479 0.24904 0.0
H273 H 0.371 0.02473 0.29748 0.0
C274 C 0.62017 0.47706 0.25773 0.0
C275 C 0.60709 0.48545 0.28822 0.0
C276 C 0.60106 0.43528 0.23672 0.0
C277 C 0.54357 0.30069 0.23648 0.0
H278 H 0.4998 0.33835 0.14688 0.0
C279 C 0.40735 0.18211 0.16087 0.0
C280 C 0.40108 0.18891 0.12688 0.0
C281 C 0.44352 0.20455 0.17961 0.0
C282 C 0.5129 0.32623 0.1715 0.0
H283 H 0.56307 0.45754 0.32028 0.0
H284 H 0.52961 0.38458 0.2834 0.0
H285 H 0.53916 0.40909 0.18141 0.0
H286 H 0.43026 0.21591 0.08541 0.0
H287 H 0.49441 0.25282 0.11803 0.0
H288 H 0.51691 0.21796 0.22677 0.0
C289 C 0.5549 0.41014 0.276 0.0
C290 C 0.53513 0.36718 0.19136 0.0
C291 C 0.57362 0.45242 0.29685 0.0
C292 C 0.43402 0.21133 0.11167 0.0
C293 C 0.47057 0.23282 0.13038 0.0
C294 C 0.52178 0.25935 0.21648 0.0
C295 C 0.56891 0.40069 0.24599 0.0
C296 C 0.5495 0.35532 0.22424 0.0
C297 C 0.47426 0.23342 0.16458 0.0
C298 C 0.50498 0.2722 0.184 0.0
H299 H 0.64592 0.50182 0.25042 0.0
H300 H 0.61227 0.4289 0.21364 0.0
H301 H 0.55513 0.29031 0.26169 0.0
H302 H 0.38249 0.16486 0.17324 0.0
H303 H 0.44515 0.20393 0.20584 0.0
C304 C 0.42346 0.24383 0.65125 0.0
C305 C 0.38158 0.22799 0.6391 0.0
C306 C 0.45485 0.20301 0.65778 0.0
C307 C 0.52057 0.11278 0.65919 0.0
H308 H 0.491 0.98036 0.70698 0.0
C309 C 0.64975 0.96559 0.72236 0.0
C310 C 0.64523 0.9498 0.75433 0.0
C311 C 0.61585 0.98929 0.70171 0.0
C312 C 0.49978 0.01712 0.69368 0.0
H313 H 0.3402 0.15698 0.62305 0.0
H314 H 0.39543 0.08557 0.63406 0.0
H315 H 0.43538 0.04353 0.68203 0.0
H316 H 0.6013 0.94397 0.78933 0.0
H317 H 0.54278 0.98768 0.75399 0.0
H318 H 0.58511 0.08908 0.67291 0.0
C319 C 0.40369 0.12959 0.63897 0.0
C320 C 0.46782 0.0529 0.67895 0.0
C321 C 0.37212 0.17055 0.63257 0.0
C322 C 0.60583 0.95626 0.76493 0.0
C323 C 0.57209 0.98068 0.74445 0.0
C324 C 0.55252 0.07744 0.67422 0.0
C325 C 0.44528 0.14537 0.65212 0.0
C326 C 0.47804 0.10217 0.6625 0.0
C327 C 0.57689 -0.00172 0.71275 0.0
C328 C 0.5426 0.0302 0.69253 0.0
H329 H 0.4319 0.28763 0.65661 0.0
H330 H 0.48634 0.21662 0.66851 0.0
H331 H 0.52938 0.14979 0.6461 0.0
H332 H 0.67963 0.96011 0.71337 0.0
H333 H 0.62038 0.00134 0.67724 0.0
C334 C 0.5404 0.766 0.83723 0.0
C335 C 0.58373 0.75339 0.84082 0.0
C336 C 0.51018 0.72592 0.82451 0.0
C337 C 0.49396 0.57387 0.80113 0.0
H338 H 0.39772 0.63616 0.7441 0.0
C339 C 0.36771 0.44152 0.71545 0.0
C340 C 0.3259 0.45244 0.72037 0.0
C341 C 0.40116 0.47572 0.73022 0.0
C342 C 0.42444 0.61825 0.75997 0.0
H343 H 0.62953 0.68812 0.83534 0.0
H344 H 0.57678 0.61851 0.81194 0.0
H345 H 0.45224 0.69957 0.77093 0.0
H346 H 0.28621 0.50792 0.74421 0.0
H347 H 0.34431 0.56824 0.76907 0.0
H348 H 0.466 0.49215 0.78903 0.0
C349 C 0.56596 0.65898 0.81953 0.0
C350 C 0.45554 0.65453 0.77566 0.0
C351 C 0.59625 0.69889 0.83291 0.0
C352 C 0.31808 0.49836 0.73997 0.0
C353 C 0.35127 0.53301 0.75415 0.0
C354 C 0.46303 0.53742 0.78493 0.0
C355 C 0.52257 0.67261 0.81433 0.0
C356 C 0.49036 0.63301 0.79695 0.0
C357 C 0.39307 0.52195 0.7495 0.0
C358 C 0.42771 0.55948 0.76463 0.0
H359 H 0.52984 0.80744 0.84359 0.0
H360 H 0.47704 0.73733 0.82201 0.0
H361 H 0.52011 0.55574 0.81746 0.0
H362 H 0.37457 0.40625 0.70052 0.0
H363 H 0.4332 0.46662 0.72622 0.0
C364 C 0.08703 0.06579 0.08893 0.0
C365 C 0.12082 0.08927 0.07514 0.0
C366 C 0.04707 0.06042 0.07028 0.0
C367 C 0.98294 0.09393 0.98983 0.0
H368 H 0.94794 0.93697 0.99565 0.0
C369 C 0.88552 0.90209 0.91343 0.0
C370 C 0.84342 0.92051 0.90993 0.0
C371 C 0.91787 0.93609 0.92919 0.0
C372 C 0.95742 0.98092 0.99372 0.0
H373 H 0.1386 0.12911 0.03183 0.0
H374 H 0.06949 0.11841 -0.0008 0.0
H375 H 0.00309 0.97456 0.03644 0.0
H376 H 0.80251 -0.00844 0.91587 0.0
H377 H 0.85952 0.05091 0.9442 0.0
H378 H 0.93747 0.09878 0.94609 0.0
C379 C 0.07344 0.10512 0.02449 0.0
C380 C -0.01155 0.00279 0.01742 0.0
C381 C 0.11323 0.1108 0.04317 0.0
C382 C 0.83478 0.97628 0.91859 0.0
C383 C 0.86729 0.01025 0.93473 0.0
C384 C 0.95142 0.0719 0.96603 0.0
C385 C 0.04043 0.07787 0.03746 0.0
C386 C 0.00229 0.05909 0.01538 0.0
C387 C 0.90848 0.98866 0.94192 0.0
C388 C 0.93951 0.01472 0.96739 0.0
H389 H 0.09176 0.04977 0.11371 0.0
H390 H 0.0219 0.04005 0.08102 0.0
H391 H -0.00706 0.13762 0.98783 0.0
H392 H 0.89302 0.85969 0.90629 0.0
H393 H 0.94973 0.91928 0.93391 0.0
C394 C 0.12033 0.43169 0.57096 0.0
C395 C 0.11314 0.37622 0.58141 0.0
C396 C 0.08686 0.46305 0.55425 0.0
C397 C 0.97027 0.46815 0.53091 0.0
H398 H -0.00209 0.52357 0.44836 0.0
C399 C 0.83954 0.54883 0.43279 0.0
C400 C 0.84774 0.60342 0.42144 0.0
C401 C 0.87261 0.51638 0.44915 0.0
C402 C -0.01026 0.5085 0.47135 0.0
H403 H 0.06498 0.31274 0.58635 0.0
H404 H 0.00672 0.36755 0.55762 0.0
H405 H 0.05369 0.48499 0.48895 0.0
H406 H 0.89727 0.66381 0.41453 0.0
H407 H 0.95463 0.60756 0.44302 0.0
H408 H 0.90639 0.49194 0.51344 0.0
C409 C 0.03802 0.38668 0.56182 0.0
C410 C 0.02172 0.48694 0.4947 0.0
C411 C 0.07142 0.35523 0.57822 0.0
C412 C 0.88994 0.62216 0.42341 0.0
C413 C 0.9229 0.58978 0.43967 0.0
C414 C 0.9383 0.48988 0.50759 0.0
C415 C 0.04579 0.43961 0.5482 0.0
C416 C 0.01231 0.46663 0.52473 0.0
C417 C 0.91429 0.53792 0.45419 0.0
C418 C 0.94769 0.51031 0.47756 0.0
H419 H 0.15218 0.44897 0.57316 0.0
H420 H 0.09349 0.50434 0.54455 0.0
H421 H 0.96216 0.4529 0.55387 0.0
H422 H 0.80737 0.53311 0.43155 0.0
H423 H 0.86523 0.47585 0.45942 0.0
C424 C 0.34271 0.02557 0.00215 0.0
C425 C 0.33398 0.07522 0.01821 0.0
C426 C 0.37248 0.02627 0.98074 0.0
C427 C 0.473 0.08747 0.98165 0.0
H428 H 0.47516 0.00082 0.90282 0.0
C429 C 0.59716 0.9258 0.95645 0.0
C430 C 0.6172 0.9344 0.92883 0.0
C431 C 0.56479 0.96158 0.96272 0.0
C432 C 0.47493 0.02628 0.92443 0.0
H433 H 0.34675 0.1653 0.0229 0.0
H434 H 0.4003 0.1661 0.98624 0.0
H435 H 0.40703 0.03079 0.91751 0.0
H436 H 0.62099 -0.00923 0.88784 0.0
H437 H 0.56253 0.05123 0.89786 0.0
H438 H 0.54055 0.07768 0.99031 0.0
C439 C 0.38339 0.12706 0.98967 0.0
C440 C 0.43611 0.04329 0.93281 0.0
C441 C 0.35269 0.12662 0.01046 0.0
C442 C 0.60569 0.98177 0.90875 0.0
C443 C 0.57242 0.01675 0.91456 0.0
C444 C 0.51169 0.06942 0.97363 0.0
C445 C 0.39476 0.07636 0.97577 0.0
C446 C 0.43479 0.0723 0.96208 0.0
C447 C 0.55137 0.00616 0.94129 0.0
C448 C 0.51272 0.03715 0.94553 0.0
H449 H 0.32879 0.98545 0.00797 0.0
H450 H 0.38098 0.98651 0.97058 0.0
H451 H 0.47278 0.10902 0.00461 0.0
H452 H 0.60558 0.89031 0.97275 0.0
H453 H 0.54879 0.95273 0.98348 0.0
C454 C 0.353 0.43961 0.56471 0.0
C455 C 0.33806 0.38944 0.54868 0.0
C456 C 0.38728 0.46955 0.55501 0.0
C457 C 0.47974 0.44318 0.51335 0.0
H458 H 0.48895 0.60668 0.50893 0.0
C459 C 0.61246 0.55836 0.45621 0.0
C460 C 0.62738 0.61056 0.46965 0.0
C461 C 0.57851 0.53034 0.46749 0.0
C462 C 0.4872 0.56092 0.5105 0.0
H463 H 0.34456 0.33506 0.50766 0.0
H464 H 0.4032 0.38732 0.49073 0.0
H465 H 0.42522 0.56337 0.52458 0.0
H466 H 0.62071 0.67144 0.5076 0.0
H467 H 0.56279 0.62209 0.52764 0.0
H468 H 0.54163 0.4405 0.49943 0.0
C469 C 0.38974 0.40245 0.51152 0.0
C470 C 0.45057 0.53618 0.51941 0.0
C471 C 0.35583 0.3727 0.52118 0.0
C472 C 0.60957 0.63188 0.49614 0.0
C473 C 0.576 0.60381 0.50752 0.0
C474 C 0.51639 0.46787 0.50457 0.0
C475 C 0.40694 0.44999 0.52899 0.0
C476 C 0.44625 0.477 0.52063 0.0
C477 C 0.55911 0.55361 0.49272 0.0
C478 C 0.52055 0.52707 0.50287 0.0
H479 H 0.33966 0.45446 0.58553 0.0
H480 H 0.39958 0.50646 0.56878 0.0
H481 H 0.47777 0.39739 0.51468 0.0
H482 H 0.62569 0.54018 0.43616 0.0
H483 H 0.5664 0.49164 0.45553 0.0
C484 C 0.13765 0.25073 0.70785 0.0
C485 C 0.17409 0.23807 0.69404 0.0
C486 C 0.13324 0.23114 0.73908 0.0
C487 C 0.18585 0.14312 0.80986 0.0
H488 H 0.14462 0.26318 0.86001 0.0
C489 C 0.23918 0.17624 0.94799 0.0
C490 C 0.20894 0.19339 0.96734 0.0
C491 C 0.22825 0.1704 0.91425 0.0
C492 C 0.15561 0.22874 0.84636 0.0
H493 H 0.23256 0.19049 0.70103 0.0
H494 H 0.22565 0.15773 0.75554 0.0
H495 H 0.13613 0.27093 0.80111 0.0
H496 H 0.14299 0.21576 0.96637 0.0
H497 H 0.1241 0.20658 0.90723 0.0
H498 H 0.20759 0.10289 0.8558 0.0
C499 C 0.19992 0.18199 0.74233 0.0
C500 C 0.15056 0.23294 0.81237 0.0
C501 C 0.2039 0.20068 0.7108 0.0
C502 C 0.16708 0.20266 0.95221 0.0
C503 C 0.15629 0.19762 0.91832 0.0
C504 C 0.19142 0.13934 0.84397 0.0
C505 C 0.1656 0.19941 0.75761 0.0
C506 C 0.16623 0.19069 0.79352 0.0
C507 C 0.18692 0.18221 0.8989 0.0
C508 C 0.17697 0.1826 0.86264 0.0
H509 H 0.11397 0.27918 0.69545 0.0
H510 H 0.10552 0.24375 0.74937 0.0
H511 H 0.19768 0.10914 0.79638 0.0
H512 H 0.27165 0.16828 0.95884 0.0
H513 H 0.25268 0.15889 0.90002 0.0
C514 C 0.83914 0.78737 0.79643 0.0
C515 C 0.80042 0.77319 0.80678 0.0
C516 C 0.84587 0.77509 0.76471 0.0
C517 C 0.79303 0.71317 0.68525 0.0
H518 H 0.83516 0.85184 0.65039 0.0
C519 C 0.73787 0.79098 0.55449 0.0
C520 C 0.76982 0.804 0.53561 0.0
C521 C 0.74797 0.78179 0.588 0.0
C522 C 0.82376 0.81261 0.65978 0.0
H523 H 0.74123 0.72739 0.79388 0.0
H524 H 0.75217 0.70738 0.73873 0.0
H525 H 0.84539 0.83619 0.70895 0.0
H526 H 0.83711 0.82071 0.53752 0.0
H527 H 0.85439 0.80673 0.59651 0.0
H528 H 0.76896 0.69191 0.63575 0.0
C529 C 0.77771 0.72773 0.7547 0.0
C530 C 0.82997 0.80314 0.69342 0.0
C531 C 0.77141 0.73901 0.78664 0.0
C532 C 0.81176 0.81084 0.55137 0.0
C533 C 0.82172 0.80262 0.58506 0.0
C534 C 0.7862 0.72319 0.65164 0.0
C535 C 0.81366 0.74932 0.74263 0.0
C536 C 0.81383 0.75386 0.70674 0.0
C537 C 0.79007 0.78639 0.60348 0.0
C538 C 0.8007 0.77356 0.6387 0.0
H539 H 0.86232 0.81316 0.81164 0.0
H540 H 0.87478 0.79019 0.75673 0.0
H541 H 0.78088 0.67426 0.6944 0.0
H542 H 0.7053 0.78492 0.54318 0.0
H543 H 0.7229 0.77024 0.6018 0.0
C544 C 0.74781 0.76674 0.28705 0.0
C545 C 0.77393 0.72373 0.30245 0.0
C546 C 0.74804 0.77926 0.25393 0.0
C547 C 0.75702 0.69841 0.18292 0.0
H548 H 0.76484 0.83799 0.13442 0.0
C549 C 0.70802 0.71734 0.04235 0.0
C550 C 0.73986 0.74013 0.02596 0.0
C551 C 0.71219 0.71943 0.07648 0.0
C552 C 0.76241 0.79878 0.14775 0.0
H553 H 0.82461 0.66585 0.29663 0.0
H554 H 0.82504 0.68783 0.23922 0.0
H555 H 0.77614 0.83972 0.1944 0.0
H556 H 0.8006 0.78409 0.03271 0.0
H557 H 0.80718 0.78861 0.09187 0.0
H558 H 0.7426 0.65748 0.13657 0.0
C559 C 0.804 0.71116 0.25244 0.0
C560 C 0.76883 0.79986 0.18194 0.0
C561 C 0.80405 0.69908 0.2854 0.0
C562 C 0.77562 0.76553 0.04447 0.0
C563 C 0.77929 0.76871 0.07838 0.0
C564 C 0.74969 0.69754 0.14888 0.0
C565 C 0.77435 0.74887 0.23596 0.0
C566 C 0.76682 0.74946 0.1998 0.0
C567 C 0.74772 0.74563 0.09476 0.0
C568 C 0.75277 0.74755 0.13092 0.0
H569 H 0.72393 0.78598 0.29939 0.0
H570 H 0.72499 0.80874 0.24174 0.0
H571 H 0.75481 0.65904 0.19616 0.0
H572 H 0.68004 0.69772 0.02883 0.0
H573 H 0.68738 0.70127 0.08858 0.0
C574 C 0.24881 0.16757 0.45358 0.0
C575 C 0.21358 0.18126 0.46863 0.0
C576 C 0.24578 0.16747 0.41959 0.0
C577 C 0.1693 0.16848 0.34212 0.0
H578 H 0.26649 0.22878 0.30699 0.0
C579 C 0.17265 0.2094 0.20286 0.0
C580 C 0.20888 0.18821 0.19161 0.0
C581 C 0.17036 0.21053 0.23646 0.0
C582 C 0.23911 0.21165 0.31639 0.0
H583 H 0.14699 0.20375 0.45938 0.0
H584 H 0.14196 0.2044 0.40028 0.0
H585 H 0.26802 0.22409 0.36567 0.0
H586 H 0.27147 0.15315 0.20698 0.0
H587 H 0.26741 0.15507 0.2647 0.0
H588 H 0.14047 0.15654 0.29241 0.0
C589 C 0.17186 0.19304 0.41471 0.0
C590 C 0.24007 0.20857 0.35011 0.0
C591 C 0.17481 0.19278 0.44873 0.0
C592 C 0.2428 0.16907 0.21461 0.0
C593 C 0.24071 0.17071 0.24787 0.0
C594 C 0.16825 0.17192 0.30824 0.0
C595 C 0.20753 0.1815 0.39967 0.0
C596 C 0.2055 0.18608 0.36353 0.0
C597 C 0.20458 0.19144 0.2593 0.0
C598 C 0.20346 0.1927 0.29503 0.0
H599 H 0.27909 0.15807 0.46804 0.0
H600 H 0.27369 0.15695 0.40894 0.0
H601 H 0.14215 0.15063 0.3515 0.0
H602 H 0.14601 0.22441 0.18577 0.0
H603 H 0.14215 0.22695 0.2446 0.0
loop_
_geom_bond_atom_site_label_1
_geom_bond_atom_site_label_2
_geom_bond_distance
_geom_bond_site_symmetry_2
_ccdc_geom_bond_type
C0 O27 1.312 . S
C0 O28 1.208 . S
C1 O22 1.331 . S
C1 O25 1.244 . S
C2 O24 1.264 . S
C2 O26 1.273 . S
Mg3 O5 1.938 . S
Mg3 O12 2.072 1_545 S
Mg3 O14 2.023 1_545 S
Mg3 O18 2.032 . S
Mg3 O27 2.300 . S
Mg4 O5 1.963 1_565 S
Mg4 O15 1.942 . S
Mg4 O16 1.955 . S
Mg4 O23 1.986 1_565 S
O5 Mg3 1.938 . S
O5 Mg4 1.963 1_545 S
O5 Mg6 1.915 . S
Mg6 O5 1.915 . S
Mg6 O7 1.915 . S
Mg6 O11 2.013 . S
Mg6 O17 2.114 . S
Mg6 O21 2.013 . S
Mg6 O27 2.114 . S
O7 Mg6 1.915 . S
O7 Mg8 1.936 . S
O7 Mg9 1.963 . S
Mg8 O7 1.936 . S
Mg8 O17 2.291 . S
Mg8 O22 2.081 . S
Mg8 O24 2.023 . S
Mg8 O28 2.031 . S
Mg9 O7 1.963 . S
Mg9 O13 1.986 . S
Mg9 O25 1.942 . S
Mg9 O26 1.955 . S
C10 O21 1.191 . S
C10 O23 1.307 . S
O11 Mg6 2.013 . S
O11 C30 1.191 . S
O12 Mg3 2.072 1_565 S
O12 C20 1.331 . S
O13 Mg9 1.986 . S
O13 C30 1.307 . S
O14 Mg3 2.023 1_565 S
O14 C29 1.264 . S
O15 Mg4 1.942 . S
O15 C20 1.244 . S
O16 Mg4 1.955 . S
O16 C29 1.273 . S
O17 Mg6 2.114 . S
O17 Mg8 2.291 . S
O17 C19 1.312 . S
O18 Mg3 2.032 . S
O18 C19 1.208 . S
C19 O17 1.312 . S
C19 O18 1.208 . S
C20 O12 1.331 . S
C20 O15 1.244 . S
O21 Mg6 2.013 . S
O21 C10 1.191 . S
O22 C1 1.331 . S
O22 Mg8 2.081 . S
O23 Mg4 1.986 1_545 S
O23 C10 1.307 . S
O24 C2 1.264 . S
O24 Mg8 2.023 . S
O25 C1 1.244 . S
O25 Mg9 1.942 . S
O26 C2 1.273 . S
O26 Mg9 1.955 . S
O27 C0 1.312 . S
O27 Mg3 2.300 . S
O27 Mg6 2.114 . S
O28 C0 1.208 . S
O28 Mg8 2.031 . S
C29 O14 1.264 . S
C29 O16 1.273 . S
C30 O11 1.191 . S
C30 O13 1.307 . S
C31 O58 1.312 . S
C31 O59 1.208 . S
C32 O53 1.331 . S
C32 O56 1.244 . S
C33 O55 1.264 . S
C33 O57 1.273 . S
Mg34 O36 1.936 . S
Mg34 O43 2.081 . S
Mg34 O45 2.023 . S
Mg34 O49 2.031 . S
Mg34 O58 2.291 . S
Mg35 O36 1.963 . S
Mg35 O46 1.942 . S
Mg35 O47 1.955 . S
Mg35 O54 1.986 . S
O36 Mg34 1.936 . S
O36 Mg35 1.963 . S
O36 Mg37 1.915 . S
Mg37 O36 1.915 . S
Mg37 O38 1.915 . S
Mg37 O42 2.013 . S
Mg37 O48 2.114 . S
Mg37 O52 2.013 . S
Mg37 O58 2.114 . S
O38 Mg37 1.915 . S
O38 Mg39 1.936 . S
O38 Mg40 1.963 . S
Mg39 O38 1.936 . S
Mg39 O48 2.291 . S
Mg39 O53 2.081 . S
Mg39 O55 2.023 . S
Mg39 O59 2.031 . S
Mg40 O38 1.963 . S
Mg40 O44 1.986 . S
Mg40 O56 1.942 . S
Mg40 O57 1.955 . S
C41 O52 1.191 . S
C41 O54 1.307 . S
O42 Mg37 2.013 . S
O42 C61 1.191 . S
O43 Mg34 2.081 . S
O43 C51 1.331 . S
O44 Mg40 1.986 . S
O44 C61 1.307 . S
O45 Mg34 2.023 . S
O45 C60 1.264 . S
O46 Mg35 1.942 . S
O46 C51 1.244 . S
O47 Mg35 1.955 . S
O47 C60 1.273 . S
O48 Mg37 2.114 . S
O48 Mg39 2.291 . S
O48 C50 1.312 . S
O49 Mg34 2.031 . S
O49 C50 1.208 . S
C50 O48 1.312 . S
C50 O49 1.208 . S
C51 O43 1.331 . S
C51 O46 1.244 . S
O52 Mg37 2.013 . S
O52 C41 1.191 . S
O53 C32 1.331 . S
O53 Mg39 2.081 . S
O54 Mg35 1.986 . S
O54 C41 1.307 . S
O55 C33 1.264 . S
O55 Mg39 2.023 . S
O56 C32 1.244 . S
O56 Mg40 1.942 . S
O57 C33 1.273 . S
O57 Mg40 1.955 . S
O58 C31 1.312 . S
O58 Mg34 2.291 . S
O58 Mg37 2.114 . S
O59 C31 1.208 . S
O59 Mg39 2.031 . S
C60 O45 1.264 . S
C60 O47 1.273 . S
C61 O42 1.191 . S
C61 O44 1.307 . S
C62 O89 1.312 . S
C62 O90 1.208 . S
C63 O84 1.331 . S
C63 O87 1.244 . S
C64 O86 1.264 . S
C64 O88 1.273 . S
Mg65 O67 1.936 . S
Mg65 O74 2.081 1_565 S
Mg65 O76 2.023 1_565 S
Mg65 O80 2.031 . S
Mg65 O89 2.291 . S
Mg66 O67 1.963 . S
Mg66 O77 1.942 1_565 S
Mg66 O78 1.955 1_565 S
Mg66 O85 1.986 . S
O67 Mg65 1.936 . S
O67 Mg66 1.963 . S
O67 Mg68 1.915 . S
Mg68 O67 1.915 . S
Mg68 O69 1.915 . S
Mg68 O73 2.013 . S
Mg68 O79 2.114 . S
Mg68 O83 2.013 . S
Mg68 O89 2.114 . S
O69 Mg68 1.915 . S
O69 Mg70 1.936 . S
O69 Mg71 1.963 . S
Mg70 O69 1.936 . S
Mg70 O79 2.291 . S
Mg70 O84 2.081 . S
Mg70 O86 2.023 . S
Mg70 O90 2.031 . S
Mg71 O69 1.963 . S
Mg71 O75 1.986 . S
Mg71 O87 1.942 . S
Mg71 O88 1.955 . S
C72 O83 1.191 . S
C72 O85 1.307 . S
O73 Mg68 2.013 . S
O73 C92 1.191 . S
O74 Mg65 2.081 1_545 S
O74 C82 1.331 . S
O75 Mg71 1.986 . S
O75 C92 1.307 . S
O76 Mg65 2.023 1_545 S
O76 C91 1.264 . S
O77 Mg66 1.942 1_545 S
O77 C82 1.244 . S
O78 Mg66 1.955 1_545 S
O78 C91 1.273 . S
O79 Mg68 2.114 . S
O79 Mg70 2.291 . S
O79 C81 1.312 . S
O80 Mg65 2.031 . S
O80 C81 1.208 . S
C81 O79 1.312 . S
C81 O80 1.208 . S
C82 O74 1.331 . S
C82 O77 1.244 . S
O83 Mg68 2.013 . S
O83 C72 1.191 . S
O84 C63 1.331 . S
O84 Mg70 2.081 . S
O85 Mg66 1.986 . S
O85 C72 1.307 . S
O86 C64 1.264 . S
O86 Mg70 2.023 . S
O87 C63 1.244 . S
O87 Mg71 1.942 . S
O88 C64 1.273 . S
O88 Mg71 1.955 . S
O89 C62 1.312 . S
O89 Mg65 2.291 . S
O89 Mg68 2.114 . S
O90 C62 1.208 . S
O90 Mg70 2.031 . S
C91 O76 1.264 . S
C91 O78 1.273 . S
C92 O73 1.191 . S
C92 O75 1.307 . S
C93 O120 1.312 . S
C93 O121 1.208 . S
C94 O115 1.331 . S
C94 O118 1.244 . S
C95 O117 1.264 . S
C95 O119 1.273 . S
Mg96 O98 1.936 . S
Mg96 O105 2.081 . S
Mg96 O107 2.023 . S
Mg96 O111 2.031 . S
Mg96 O120 2.291 . S
Mg97 O98 1.963 . S
Mg97 O108 1.942 . S
Mg97 O109 1.955 . S
Mg97 O116 1.986 . S
O98 Mg96 1.936 . S
O98 Mg97 1.963 . S
O98 Mg99 1.915 . S
Mg99 O98 1.915 . S
Mg99 O100 1.915 . S
Mg99 O104 2.013 . S
Mg99 O110 2.114 . S
Mg99 O114 2.013 . S
Mg99 O120 2.114 . S
O100 Mg99 1.915 . S
O100 Mg101 1.936 . S
O100 Mg102 1.963 . S
Mg101 O100 1.936 . S
Mg101 O110 2.291 . S
Mg101 O115 2.081 . S
Mg101 O117 2.023 . S
Mg101 O121 2.031 . S
Mg102 O100 1.963 . S
Mg102 O106 1.986 . S
Mg102 O118 1.942 . S
Mg102 O119 1.955 . S
C103 O114 1.191 . S
C103 O116 1.307 . S
O104 Mg99 2.013 . S
O104 C123 1.191 . S
O105 Mg96 2.081 . S
O105 C113 1.331 . S
O106 Mg102 1.986 . S
O106 C123 1.307 . S
O107 Mg96 2.023 . S
O107 C122 1.264 . S
O108 Mg97 1.942 . S
O108 C113 1.244 . S
O109 Mg97 1.955 . S
O109 C122 1.273 . S
O110 Mg99 2.114 . S
O110 Mg101 2.291 . S
O110 C112 1.312 . S
O111 Mg96 2.031 . S
O111 C112 1.208 . S
C112 O110 1.312 . S
C112 O111 1.208 . S
C113 O105 1.331 . S
C113 O108 1.244 . S
O114 Mg99 2.013 . S
O114 C103 1.191 . S
O115 C94 1.331 . S
O115 Mg101 2.081 . S
O116 Mg97 1.986 . S
O116 C103 1.307 . S
O117 C95 1.264 . S
O117 Mg101 2.023 . S
O118 C94 1.244 . S
O118 Mg102 1.942 . S
O119 C95 1.273 . S
O119 Mg102 1.955 . S
O120 C93 1.312 . S
O120 Mg96 2.291 . S
O120 Mg99 2.114 . S
O121 C93 1.208 . S
O121 Mg101 2.031 . S
C122 O107 1.264 . S
C122 O109 1.273 . S
C123 O104 1.191 . S
C123 O106 1.307 . S
C124 C125 1.349 . S
C124 C126 1.327 . S
C124 H149 0.950 . S
C125 C124 1.349 . S
C125 C141 1.349 . S
C126 C124 1.327 . S
C126 C145 1.429 . S
C126 H150 0.950 . S
C127 C144 1.574 . S
C127 C146 1.368 . S
C127 H151 0.949 . S
H128 C132 0.949 . S
C129 C130 1.349 . S
C129 C131 1.327 . S
C129 H152 0.950 . S
C130 C129 1.349 . S
C130 C142 1.349 . S
C131 C129 1.327 . S
C131 C147 1.429 . S
C131 H153 0.950 . S
C132 H128 0.949 . S
C132 C140 1.574 . S
C132 C148 1.368 . S
H133 C141 0.950 . S
H134 C139 0.950 . S
H135 C140 0.949 . S
H136 C142 0.950 . S
H137 C143 0.950 . S
H138 C144 0.949 . S
C139 H134 0.950 . S
C139 C141 1.327 . S
C139 C145 1.429 . S
C140 C132 1.574 . S
C140 H135 0.949 . S
C140 C146 1.368 . S
C141 C125 1.349 . S
C141 H133 0.950 . S
C141 C139 1.327 . S
C142 C130 1.349 . S
C142 H136 0.950 . S
C142 C143 1.327 . S
C143 H137 0.950 . S
C143 C142 1.327 . S
C143 C147 1.429 . S
C144 C127 1.574 . S
C144 H138 0.949 . S
C144 C148 1.368 . S
C145 C126 1.429 . S
C145 C139 1.429 . S
C145 C146 1.523 . S
C146 C127 1.368 . S
C146 C140 1.368 . S
C146 C145 1.523 . S
C147 C131 1.429 . S
C147 C143 1.429 . S
C147 C148 1.523 . S
C148 C132 1.368 . S
C148 C144 1.368 . S
C148 C147 1.523 . S
H149 C124 0.950 . S
H150 C126 0.950 . S
H151 C127 0.949 . S
H152 C129 0.950 . S
H153 C131 0.950 . S
C154 C155 1.349 . S
C154 C156 1.327 . S
C154 H179 0.950 . S
C155 C154 1.349 . S
C155 C171 1.349 . S
C156 C154 1.327 . S
C156 C175 1.429 . S
C156 H180 0.950 . S
C157 C174 1.574 . S
C157 C176 1.368 . S
C157 H181 0.949 . S
H158 C162 0.949 . S
C159 C160 1.349 . S
C159 C161 1.327 . S
C159 H182 0.950 . S
C160 C159 1.349 . S
C160 C172 1.349 . S
C161 C159 1.327 . S
C161 C177 1.429 . S
C161 H183 0.950 . S
C162 H158 0.949 . S
C162 C170 1.574 . S
C162 C178 1.368 . S
H163 C171 0.950 . S
H164 C169 0.950 . S
H165 C170 0.949 . S
H166 C172 0.950 . S
H167 C173 0.950 . S
H168 C174 0.949 . S
C169 H164 0.950 . S
C169 C171 1.327 . S
C169 C175 1.429 . S
C170 C162 1.574 . S
C170 H165 0.949 . S
C170 C176 1.368 . S
C171 C155 1.349 . S
C171 H163 0.950 . S
C171 C169 1.327 . S
C172 C160 1.349 . S
C172 H166 0.950 . S
C172 C173 1.327 . S
C173 H167 0.950 . S
C173 C172 1.327 . S
C173 C177 1.429 . S
C174 C157 1.574 . S
C174 H168 0.949 . S
C174 C178 1.368 . S
C175 C156 1.429 . S
C175 C169 1.429 . S
C175 C176 1.523 1_565 S
C176 C157 1.368 . S
C176 C170 1.368 . S
C176 C175 1.523 1_545 S
C177 C161 1.429 . S
C177 C173 1.429 . S
C177 C178 1.523 . S
C178 C162 1.368 . S
C178 C174 1.368 . S
C178 C177 1.523 . S
H179 C154 0.950 . S
H180 C156 0.950 . S
H181 C157 0.949 . S
H182 C159 0.950 . S
H183 C161 0.950 . S
C184 C185 1.349 . S
C184 C186 1.327 . S
C184 H209 0.950 . S
C185 C184 1.349 . S
C185 C201 1.349 . S
C186 C184 1.327 . S
C186 C205 1.429 . S
C186 H210 0.950 . S
C187 C204 1.574 . S
C187 C206 1.368 . S
C187 H211 0.949 . S
H188 C192 0.949 . S
C189 C190 1.349 . S
C189 C191 1.327 . S
C189 H212 0.950 . S
C190 C189 1.349 . S
C190 C202 1.349 . S
C191 C189 1.327 . S
C191 C207 1.429 . S
C191 H213 0.950 . S
C192 H188 0.949 . S
C192 C200 1.574 . S
C192 C208 1.368 . S
H193 C201 0.950 . S
H194 C199 0.950 . S
H195 C200 0.949 . S
H196 C202 0.950 . S
H197 C203 0.950 . S
H198 C204 0.949 . S
C199 H194 0.950 . S
C199 C201 1.327 . S
C199 C205 1.429 . S
C200 C192 1.574 . S
C200 H195 0.949 . S
C200 C206 1.368 . S
C201 C185 1.349 . S
C201 H193 0.950 . S
C201 C199 1.327 . S
C202 C190 1.349 . S
C202 H196 0.950 . S
C202 C203 1.327 . S
C203 H197 0.950 . S
C203 C202 1.327 . S
C203 C207 1.429 . S
C204 C187 1.574 . S
C204 H198 0.949 . S
C204 C208 1.368 . S
C205 C186 1.429 . S
C205 C199 1.429 . S
C205 C206 1.523 . S
C206 C187 1.368 . S
C206 C200 1.368 . S
C206 C205 1.523 . S
C207 C191 1.429 . S
C207 C203 1.429 . S
C207 C208 1.523 . S
C208 C192 1.368 . S
C208 C204 1.368 . S
C208 C207 1.523 . S
H209 C184 0.950 . S
H210 C186 0.950 . S
H211 C187 0.949 . S
H212 C189 0.950 . S
H213 C191 0.950 . S
C214 C215 1.349 . S
C214 C216 1.327 . S
C214 H239 0.950 . S
C215 C214 1.349 . S
C215 C231 1.349 . S
C216 C214 1.327 . S
C216 C235 1.429 . S
C216 H240 0.950 . S
C217 C234 1.574 . S
C217 C236 1.368 . S
C217 H241 0.949 . S
H218 C222 0.949 . S
C219 C220 1.349 . S
C219 C221 1.327 . S
C219 H242 0.950 . S
C220 C219 1.349 . S
C220 C232 1.349 . S
C221 C219 1.327 . S
C221 C237 1.429 . S
C221 H243 0.950 . S
C222 H218 0.949 . S
C222 C230 1.574 . S
C222 C238 1.368 . S
H223 C231 0.950 . S
H224 C229 0.950 . S
H225 C230 0.949 . S
H226 C232 0.950 . S
H227 C233 0.950 . S
H228 C234 0.949 . S
C229 H224 0.950 . S
C229 C231 1.327 . S
C229 C235 1.429 . S
C230 C222 1.574 . S
C230 H225 0.949 . S
C230 C236 1.368 . S
C231 C215 1.349 . S
C231 H223 0.950 . S
C231 C229 1.327 . S
C232 C220 1.349 . S
C232 H226 0.950 . S
C232 C233 1.327 . S
C233 H227 0.950 . S
C233 C232 1.327 . S
C233 C237 1.429 . S
C234 C217 1.574 . S
C234 H228 0.949 . S
C234 C238 1.368 . S
C235 C216 1.429 . S
C235 C229 1.429 . S
C235 C236 1.523 1_545 S
C236 C217 1.368 . S
C236 C230 1.368 . S
C236 C235 1.523 1_565 S
C237 C221 1.429 . S
C237 C233 1.429 . S
C237 C238 1.523 . S
C238 C222 1.368 . S
C238 C234 1.368 . S
C238 C237 1.523 . S
H239 C214 0.950 . S
H240 C216 0.950 . S
H241 C217 0.949 . S
H242 C219 0.950 . S
H243 C221 0.950 . S
C244 C245 1.349 . S
C244 C246 1.327 . S
C244 H269 0.950 . S
C245 C244 1.349 . S
C245 C261 1.349 . S
C246 C244 1.327 . S
C246 C265 1.429 . S
C246 H270 0.950 . S
C247 C264 1.574 . S
C247 C266 1.368 . S
C247 H271 0.949 . S
H248 C252 0.949 . S
C249 C250 1.349 . S
C249 C251 1.327 . S
C249 H272 0.950 1_565 S
C250 C249 1.349 . S
C250 C262 1.349 . S
C251 C249 1.327 . S
C251 C267 1.429 . S
C251 H273 0.950 . S
C252 H248 0.949 . S
C252 C260 1.574 . S
C252 C268 1.368 . S
H253 C261 0.950 . S
H254 C259 0.950 . S
H255 C260 0.949 . S
H256 C262 0.950 . S
H257 C263 0.950 . S
H258 C264 0.949 . S
C259 H254 0.950 . S
C259 C261 1.327 . S
C259 C265 1.429 . S
C260 C252 1.574 . S
C260 H255 0.949 . S
C260 C266 1.368 . S
C261 C245 1.349 . S
C261 H253 0.950 . S
C261 C259 1.327 . S
C262 C250 1.349 . S
C262 H256 0.950 . S
C262 C263 1.327 . S
C263 H257 0.950 . S
C263 C262 1.327 . S
C263 C267 1.429 . S
C264 C247 1.574 . S
C264 H258 0.949 . S
C264 C268 1.368 . S
C265 C246 1.429 . S
C265 C259 1.429 . S
C265 C266 1.523 . S
C266 C247 1.368 . S
C266 C260 1.368 . S
C266 C265 1.523 . S
C267 C251 1.429 . S
C267 C263 1.429 . S
C267 C268 1.523 . S
C268 C252 1.368 . S
C268 C264 1.368 . S
C268 C267 1.523 . S
H269 C244 0.950 . S
H270 C246 0.950 . S
H271 C247 0.949 . S
H272 C249 0.950 1_545 S
H273 C251 0.950 . S
C274 C275 1.349 . S
C274 C276 1.327 . S
C274 H299 0.950 . S
C275 C274 1.349 . S
C275 C291 1.349 . S
C276 C274 1.327 . S
C276 C295 1.429 . S
C276 H300 0.950 . S
C277 C294 1.574 . S
C277 C296 1.368 . S
C277 H301 0.949 . S
H278 C282 0.949 . S
C279 C280 1.349 . S
C279 C281 1.327 . S
C279 H302 0.950 . S
C280 C279 1.349 . S
C280 C292 1.349 . S
C281 C279 1.327 . S
C281 C297 1.429 . S
C281 H303 0.950 . S
C282 H278 0.949 . S
C282 C290 1.574 . S
C282 C298 1.368 . S
H283 C291 0.950 . S
H284 C289 0.950 . S
H285 C290 0.949 . S
H286 C292 0.950 . S
H287 C293 0.950 . S
H288 C294 0.949 . S
C289 H284 0.950 . S
C289 C291 1.327 . S
C289 C295 1.429 . S
C290 C282 1.574 . S
C290 H285 0.949 . S
C290 C296 1.368 . S
C291 C275 1.349 . S
C291 H283 0.950 . S
C291 C289 1.327 . S
C292 C280 1.349 . S
C292 H286 0.950 . S
C292 C293 1.327 . S
C293 H287 0.950 . S
C293 C292 1.327 . S
C293 C297 1.429 . S
C294 C277 1.574 . S
C294 H288 0.949 . S
C294 C298 1.368 . S
C295 C276 1.429 . S
C295 C289 1.429 . S
C295 C296 1.523 . S
C296 C277 1.368 . S
C296 C290 1.368 . S
C296 C295 1.523 . S
C297 C281 1.429 . S
C297 C293 1.429 . S
C297 C298 1.523 . S
C298 C282 1.368 . S
C298 C294 1.368 . S
C298 C297 1.523 . S
H299 C274 0.950 . S
H300 C276 0.950 . S
H301 C277 0.949 . S
H302 C279 0.950 . S
H303 C281 0.950 . S
C304 C305 1.349 . S
C304 C306 1.327 . S
C304 H329 0.950 . S
C305 C304 1.349 . S
C305 C321 1.349 . S
C306 C304 1.327 . S
C306 C325 1.429 . S
C306 H330 0.950 . S
C307 C324 1.574 . S
C307 C326 1.368 . S
C307 H331 0.949 . S
H308 C312 0.949 . S
C309 C310 1.349 . S
C309 C311 1.327 . S
C309 H332 0.950 . S
C310 C309 1.349 . S
C310 C322 1.349 . S
C311 C309 1.327 . S
C311 C327 1.429 . S
C311 H333 0.950 . S
C312 H308 0.949 . S
C312 C320 1.574 . S
C312 C328 1.368 . S
H313 C321 0.950 . S
H314 C319 0.950 . S
H315 C320 0.949 . S
H316 C322 0.950 . S
H317 C323 0.950 . S
H318 C324 0.949 . S
C319 H314 0.950 . S
C319 C321 1.327 . S
C319 C325 1.429 . S
C320 C312 1.574 . S
C320 H315 0.949 . S
C320 C326 1.368 . S
C321 C305 1.349 . S
C321 H313 0.950 . S
C321 C319 1.327 . S
C322 C310 1.349 . S
C322 H316 0.950 . S
C322 C323 1.327 . S
C323 H317 0.950 . S
C323 C322 1.327 . S
C323 C327 1.429 . S
C324 C307 1.574 . S
C324 H318 0.949 . S
C324 C328 1.368 . S
C325 C306 1.429 . S
C325 C319 1.429 . S
C325 C326 1.523 . S
C326 C307 1.368 . S
C326 C320 1.368 . S
C326 C325 1.523 . S
C327 C311 1.429 . S
C327 C323 1.429 . S
C327 C328 1.523 . S
C328 C312 1.368 . S
C328 C324 1.368 . S
C328 C327 1.523 . S
H329 C304 0.950 . S
H330 C306 0.950 . S
H331 C307 0.949 . S
H332 C309 0.950 . S
H333 C311 0.950 . S
C334 C335 1.349 . S
C334 C336 1.327 . S
C334 H359 0.950 . S
C335 C334 1.349 . S
C335 C351 1.349 . S
C336 C334 1.327 . S
C336 C355 1.429 . S
C336 H360 0.950 . S
C337 C354 1.574 . S
C337 C356 1.368 . S
C337 H361 0.949 . S
H338 C342 0.949 . S
C339 C340 1.349 . S
C339 C341 1.327 . S
C339 H362 0.950 . S
C340 C339 1.349 . S
C340 C352 1.349 . S
C341 C339 1.327 . S
C341 C357 1.429 . S
C341 H363 0.950 . S
C342 H338 0.949 . S
C342 C350 1.574 . S
C342 C358 1.368 . S
H343 C351 0.950 . S
H344 C349 0.950 . S
H345 C350 0.949 . S
H346 C352 0.950 . S
H347 C353 0.950 . S
H348 C354 0.949 . S
C349 H344 0.950 . S
C349 C351 1.327 . S
C349 C355 1.429 . S
C350 C342 1.574 . S
C350 H345 0.949 . S
C350 C356 1.368 . S
C351 C335 1.349 . S
C351 H343 0.950 . S
C351 C349 1.327 . S
C352 C340 1.349 . S
C352 H346 0.950 . S
C352 C353 1.327 . S
C353 H347 0.950 . S
C353 C352 1.327 . S
C353 C357 1.429 . S
C354 C337 1.574 . S
C354 H348 0.949 . S
C354 C358 1.368 . S
C355 C336 1.429 . S
C355 C349 1.429 . S
C355 C356 1.523 . S
C356 C337 1.368 . S
C356 C350 1.368 . S
C356 C355 1.523 . S
C357 C341 1.429 . S
C357 C353 1.429 . S
C357 C358 1.523 . S
C358 C342 1.368 . S
C358 C354 1.368 . S
C358 C357 1.523 . S
H359 C334 0.950 . S
H360 C336 0.950 . S
H361 C337 0.949 . S
H362 C339 0.950 . S
H363 C341 0.950 . S
C364 C365 1.349 . S
C364 C366 1.327 . S
C364 H389 0.950 . S
C365 C364 1.349 . S
C365 C381 1.349 . S
C366 C364 1.327 . S
C366 C385 1.429 . S
C366 H390 0.950 . S
C367 C384 1.574 1_445 S
C367 C386 1.368 1_556 S
C367 H391 0.949 . S
H368 C372 0.949 . S
C369 C370 1.349 . S
C369 C371 1.327 . S
C369 H392 0.950 . S
C370 C369 1.349 . S
C370 C382 1.349 . S
C371 C369 1.327 . S
C371 C387 1.429 . S
C371 H393 0.950 . S
C372 H368 0.949 . S
C372 C380 1.574 1_665 S
C372 C388 1.368 1_554 S
H373 C381 0.950 . S
H374 C379 0.950 1_556 S
H375 C380 0.949 . S
H376 C382 0.950 . S
H377 C383 0.950 1_554 S
H378 C384 0.949 . S
C379 H374 0.950 1_554 S
C379 C381 1.327 . S
C379 C385 1.429 . S
C380 C372 1.574 1_445 S
C380 H375 0.949 . S
C380 C386 1.368 . S
C381 C365 1.349 . S
C381 H373 0.950 . S
C381 C379 1.327 . S
C382 C370 1.349 . S
C382 H376 0.950 . S
C382 C383 1.327 . S
C383 H377 0.950 1_556 S
C383 C382 1.327 . S
C383 C387 1.429 . S
C384 C367 1.574 1_665 S
C384 H378 0.949 . S
C384 C388 1.368 . S
C385 C366 1.429 . S
C385 C379 1.429 . S
C385 C386 1.523 . S
C386 C367 1.368 1_554 S
C386 C380 1.368 . S
C386 C385 1.523 . S
C387 C371 1.429 . S
C387 C383 1.429 . S
C387 C388 1.523 . S
C388 C372 1.368 1_556 S
C388 C384 1.368 . S
C388 C387 1.523 . S
H389 C364 0.950 . S
H390 C366 0.950 . S
H391 C367 0.949 . S
H392 C369 0.950 . S
H393 C371 0.950 . S
C394 C395 1.349 . S
C394 C396 1.327 . S
C394 H419 0.950 . S
C395 C394 1.349 . S
C395 C411 1.349 . S
C396 C394 1.327 . S
C396 C415 1.429 . S
C396 H420 0.950 . S
C397 C414 1.574 1_455 S
C397 C416 1.368 . S
C397 H421 0.949 . S
H398 C402 0.949 . S
C399 C400 1.349 . S
C399 C401 1.327 . S
C399 H422 0.950 . S
C400 C399 1.349 . S
C400 C412 1.349 . S
C401 C399 1.327 . S
C401 C417 1.429 . S
C401 H423 0.950 . S
C402 H398 0.949 . S
C402 C410 1.574 1_655 S
C402 C418 1.368 . S
H403 C411 0.950 . S
H404 C409 0.950 . S
H405 C410 0.949 . S
H406 C412 0.950 . S
H407 C413 0.950 . S
H408 C414 0.949 . S
C409 H404 0.950 . S
C409 C411 1.327 . S
C409 C415 1.429 . S
C410 C402 1.574 1_455 S
C410 H405 0.949 . S
C410 C416 1.368 . S
C411 C395 1.349 . S
C411 H403 0.950 . S
C411 C409 1.327 . S
C412 C400 1.349 . S
C412 H406 0.950 . S
C412 C413 1.327 . S
C413 H407 0.950 . S
C413 C412 1.327 . S
C413 C417 1.429 . S
C414 C397 1.574 1_655 S
C414 H408 0.949 . S
C414 C418 1.368 . S
C415 C396 1.429 . S
C415 C409 1.429 . S
C415 C416 1.523 . S
C416 C397 1.368 . S
C416 C410 1.368 . S
C416 C415 1.523 . S
C417 C401 1.429 . S
C417 C413 1.429 . S
C417 C418 1.523 . S
C418 C402 1.368 . S
C418 C414 1.368 . S
C418 C417 1.523 . S
H419 C394 0.950 . S
H420 C396 0.950 . S
H421 C397 0.949 . S
H422 C399 0.950 . S
H423 C401 0.950 . S
C424 C425 1.355 . S
C424 C426 1.326 1_545 S
C424 H449 0.946 1_545 S
C425 C424 1.355 . S
C425 C441 1.349 . S
C426 C424 1.326 1_565 S
C426 C445 1.429 1_565 S
C426 H450 0.950 . S
C427 C444 1.574 . S
C427 C446 1.368 . S
C427 H451 0.949 . S
H428 C432 0.949 . S
C429 C430 1.349 . S
C429 C431 1.327 1_565 S
C429 H452 0.950 1_565 S
C430 C429 1.349 . S
C430 C442 1.349 . S
C431 C429 1.327 1_545 S
C431 C447 1.429 1_545 S
C431 H453 0.950 . S
C432 H428 0.949 . S
C432 C440 1.574 . S
C432 C448 1.368 . S
H433 C441 0.950 . S
H434 C439 0.950 . S
H435 C440 0.949 . S
H436 C442 0.950 . S
H437 C443 0.950 . S
H438 C444 0.949 . S
C439 H434 0.950 . S
C439 C441 1.327 . S
C439 C445 1.429 . S
C440 C432 1.574 . S
C440 H435 0.949 . S
C440 C446 1.368 1_566 S
C441 C425 1.349 . S
C441 H433 0.950 . S
C441 C439 1.327 . S
C442 C430 1.349 . S
C442 H436 0.950 . S
C442 C443 1.327 . S
C443 H437 0.950 . S
C443 C442 1.327 . S
C443 C447 1.429 . S
C444 C427 1.574 . S
C444 H438 0.949 . S
C444 C448 1.368 1_544 S
C445 C426 1.429 1_545 S
C445 C439 1.429 . S
C445 C446 1.523 . S
C446 C427 1.368 . S
C446 C440 1.368 1_544 S
C446 C445 1.523 . S
C447 C431 1.429 1_565 S
C447 C443 1.429 . S
C447 C448 1.523 . S
C448 C432 1.368 . S
C448 C444 1.368 1_566 S
C448 C447 1.523 . S
H449 C424 0.946 1_565 S
H450 C426 0.950 . S
H451 C427 0.949 . S
H452 C429 0.950 1_545 S
H453 C431 0.950 . S
C454 C455 1.349 . S
C454 C456 1.327 . S
C454 H479 0.950 . S
C455 C454 1.349 . S
C455 C471 1.349 . S
C456 C454 1.327 . S
C456 C475 1.429 . S
C456 H480 0.950 . S
C457 C474 1.574 . S
C457 C476 1.368 . S
C457 H481 0.949 . S
H458 C462 0.949 . S
C459 C460 1.349 . S
C459 C461 1.327 . S
C459 H482 0.950 . S
C460 C459 1.349 . S
C460 C472 1.349 . S
C461 C459 1.327 . S
C461 C477 1.429 . S
C461 H483 0.950 . S
C462 H458 0.949 . S
C462 C470 1.574 . S
C462 C478 1.368 . S
H463 C471 0.950 . S
H464 C469 0.950 . S
H465 C470 0.949 . S
H466 C472 0.950 . S
H467 C473 0.950 . S
H468 C474 0.949 . S
C469 H464 0.950 . S
C469 C471 1.327 . S
C469 C475 1.429 . S
C470 C462 1.574 . S
C470 H465 0.949 . S
C470 C476 1.368 . S
C471 C455 1.349 . S
C471 H463 0.950 . S
C471 C469 1.327 . S
C472 C460 1.349 . S
C472 H466 0.950 . S
C472 C473 1.327 . S
C473 H467 0.950 . S
C473 C472 1.327 . S
C473 C477 1.429 . S
C474 C457 1.574 . S
C474 H468 0.949 . S
C474 C478 1.368 . S
C475 C456 1.429 . S
C475 C469 1.429 . S
C475 C476 1.523 . S
C476 C457 1.368 . S
C476 C470 1.368 . S
C476 C475 1.523 . S
C477 C461 1.429 . S
C477 C473 1.429 . S
C477 C478 1.523 . S
C478 C462 1.368 . S
C478 C474 1.368 . S
C478 C477 1.523 . S
H479 C454 0.950 . S
H480 C456 0.950 . S
H481 C457 0.949 . S
H482 C459 0.950 . S
H483 C461 0.950 . S
C484 C485 1.349 . S
C484 C486 1.327 . S
C484 H509 0.950 . S
C485 C484 1.349 . S
C485 C501 1.349 . S
C486 C484 1.327 . S
C486 C505 1.429 . S
C486 H510 0.950 . S
C487 C504 1.574 . S
C487 C506 1.368 . S
C487 H511 0.949 . S
H488 C492 0.949 . S
C489 C490 1.349 . S
C489 C491 1.327 . S
C489 H512 0.950 . S
C490 C489 1.349 . S
C490 C502 1.349 . S
C491 C489 1.327 . S
C491 C507 1.429 . S
C491 H513 0.950 . S
C492 H488 0.949 . S
C492 C500 1.574 . S
C492 C508 1.368 . S
H493 C501 0.950 . S
H494 C499 0.950 . S
H495 C500 0.949 . S
H496 C502 0.950 . S
H497 C503 0.950 . S
H498 C504 0.949 . S
C499 H494 0.950 . S
C499 C501 1.327 . S
C499 C505 1.429 . S
C500 C492 1.574 . S
C500 H495 0.949 . S
C500 C506 1.368 . S
C501 C485 1.349 . S
C501 H493 0.950 . S
C501 C499 1.327 . S
C502 C490 1.349 . S
C502 H496 0.950 . S
C502 C503 1.327 . S
C503 H497 0.950 . S
C503 C502 1.327 . S
C503 C507 1.429 . S
C504 C487 1.574 . S
C504 H498 0.949 . S
C504 C508 1.368 . S
C505 C486 1.429 . S
C505 C499 1.429 . S
C505 C506 1.523 . S
C506 C487 1.368 . S
C506 C500 1.368 . S
C506 C505 1.523 . S
C507 C491 1.429 . S
C507 C503 1.429 . S
C507 C508 1.523 . S
C508 C492 1.368 . S
C508 C504 1.368 . S
C508 C507 1.523 . S
H509 C484 0.950 . S
H510 C486 0.950 . S
H511 C487 0.949 . S
H512 C489 0.950 . S
H513 C491 0.950 . S
C514 C515 1.349 . S
C514 C516 1.327 . S
C514 H539 0.950 . S
C515 C514 1.349 . S
C515 C531 1.349 . S
C516 C514 1.327 . S
C516 C535 1.429 . S
C516 H540 0.950 . S
C517 C534 1.574 . S
C517 C536 1.368 . S
C517 H541 0.949 . S
H518 C522 0.949 . S
C519 C520 1.349 . S
C519 C521 1.327 . S
C519 H542 0.950 . S
C520 C519 1.349 . S
C520 C532 1.349 . S
C521 C519 1.327 . S
C521 C537 1.429 . S
C521 H543 0.950 . S
C522 H518 0.949 . S
C522 C530 1.574 . S
C522 C538 1.368 . S
H523 C531 0.950 . S
H524 C529 0.950 . S
H525 C530 0.949 . S
H526 C532 0.950 . S
H527 C533 0.950 . S
H528 C534 0.949 . S
C529 H524 0.950 . S
C529 C531 1.327 . S
C529 C535 1.429 . S
C530 C522 1.574 . S
C530 H525 0.949 . S
C530 C536 1.368 . S
C531 C515 1.349 . S
C531 H523 0.950 . S
C531 C529 1.327 . S
C532 C520 1.349 . S
C532 H526 0.950 . S
C532 C533 1.327 . S
C533 H527 0.950 . S
C533 C532 1.327 . S
C533 C537 1.429 . S
C534 C517 1.574 . S
C534 H528 0.949 . S
C534 C538 1.368 . S
C535 C516 1.429 . S
C535 C529 1.429 . S
C535 C536 1.523 . S
C536 C517 1.368 . S
C536 C530 1.368 . S
C536 C535 1.523 . S
C537 C521 1.429 . S
C537 C533 1.429 . S
C537 C538 1.523 . S
C538 C522 1.368 . S
C538 C534 1.368 . S
C538 C537 1.523 . S
H539 C514 0.950 . S
H540 C516 0.950 . S
H541 C517 0.949 . S
H542 C519 0.950 . S
H543 C521 0.950 . S
C544 C545 1.349 . S
C544 C546 1.327 . S
C544 H569 0.950 . S
C545 C544 1.349 . S
C545 C561 1.349 . S
C546 C544 1.327 . S
C546 C565 1.429 . S
C546 H570 0.950 . S
C547 C564 1.574 . S
C547 C566 1.368 . S
C547 H571 0.949 . S
H548 C552 0.949 . S
C549 C550 1.349 . S
C549 C551 1.327 . S
C549 H572 0.950 . S
C550 C549 1.349 . S
C550 C562 1.349 . S
C551 C549 1.327 . S
C551 C567 1.429 . S
C551 H573 0.950 . S
C552 H548 0.949 . S
C552 C560 1.574 . S
C552 C568 1.368 . S
H553 C561 0.950 . S
H554 C559 0.950 . S
H555 C560 0.949 . S
H556 C562 0.950 . S
H557 C563 0.950 . S
H558 C564 0.949 . S
C559 H554 0.950 . S
C559 C561 1.327 . S
C559 C565 1.429 . S
C560 C552 1.574 . S
C560 H555 0.949 . S
C560 C566 1.368 . S
C561 C545 1.349 . S
C561 H553 0.950 . S
C561 C559 1.327 . S
C562 C550 1.349 . S
C562 H556 0.950 . S
C562 C563 1.327 . S
C563 H557 0.950 . S
C563 C562 1.327 . S
C563 C567 1.429 . S
C564 C547 1.574 . S
C564 H558 0.949 . S
C564 C568 1.368 . S
C565 C546 1.429 . S
C565 C559 1.429 . S
C565 C566 1.523 . S
C566 C547 1.368 . S
C566 C560 1.368 . S
C566 C565 1.523 . S
C567 C551 1.429 . S
C567 C563 1.429 . S
C567 C568 1.523 . S
C568 C552 1.368 . S
C568 C564 1.368 . S
C568 C567 1.523 . S
H569 C544 0.950 . S
H570 C546 0.950 . S
H571 C547 0.949 . S
H572 C549 0.950 . S
H573 C551 0.950 . S
C574 C575 1.349 . S
C574 C576 1.327 . S
C574 H599 0.950 . S
C575 C574 1.349 . S
C575 C591 1.349 . S
C576 C574 1.327 . S
C576 C595 1.429 . S
C576 H600 0.950 . S
C577 C594 1.574 . S
C577 C596 1.368 . S
C577 H601 0.949 . S
H578 C582 0.949 . S
C579 C580 1.349 . S
C579 C581 1.327 . S
C579 H602 0.950 . S
C580 C579 1.349 . S
C580 C592 1.349 . S
C581 C579 1.327 . S
C581 C597 1.429 . S
C581 H603 0.950 . S
C582 H578 0.949 . S
C582 C590 1.574 . S
C582 C598 1.368 . S
H583 C591 0.950 . S
H584 C589 0.950 . S
H585 C590 0.949 . S
H586 C592 0.950 . S
H587 C593 0.950 . S
H588 C594 0.949 . S
C589 H584 0.950 . S
C589 C591 1.327 . S
C589 C595 1.429 . S
C590 C582 1.574 . S
C590 H585 0.949 . S
C590 C596 1.368 . S
C591 C575 1.349 . S
C591 H583 0.950 . S
C591 C589 1.327 . S
C592 C580 1.349 . S
C592 H586 0.950 . S
C592 C593 1.327 . S
C593 H587 0.950 . S
C593 C592 1.327 . S
C593 C597 1.429 . S
C594 C577 1.574 . S
C594 H588 0.949 . S
C594 C598 1.368 . S
C595 C576 1.429 . S
C595 C589 1.429 . S
C595 C596 1.523 . S
C596 C577 1.368 . S
C596 C590 1.368 . S
C596 C595 1.523 . S
C597 C581 1.429 . S
C597 C593 1.429 . S
C597 C598 1.523 . S
C598 C582 1.368 . S
C598 C594 1.368 . S
C598 C597 1.523 . S
H599 C574 0.950 . S
H600 C576 0.950 . S
H601 C577 0.949 . S
H602 C579 0.950 . S
H603 C581 0.950 . S
C125 C1 1.151 . S
C130 C20 1.160 . S
C155 C33 1.680 . S
C160 C60 1.685 . S
C185 C64 1.682 . S
C190 C91 1.687 . S
C215 C122 1.680 . S
C220 C95 1.685 . S
C245 C50 0.962 . S
C250 C29 0.899 . S
C275 C51 0.747 . S
C280 C30 0.746 . S
C305 C93 0.792 . S
C310 C82 0.778 . S
C335 C81 0.815 . S
C340 C94 0.794 . S
C365 C19 1.131 . S
C370 C92 1.113 . S
C395 C103 1.091 . S
C400 C61 1.090 . S
C425 C10 0.788 . S
C430 C62 0.787 . S
C455 C112 0.817 . S
C460 C31 0.818 . S
C485 C123 1.969 . S
C490 C2 2.027 1_556 S
C515 C72 1.777 . S
C520 C32 1.846 . S
C545 C41 1.743 . S
C550 C63 1.808 1_554 S
C575 C113 1.952 . S
C580 C0 1.970 . S
