# Generated by pormake.
# Topology umh, (4)-cn, num edge types: 1
# Building blocks:
#     Node 0, Type 0, BuildingBlock: ESEHIV_clean_sbu_0, # of connection points: 4
#     Node 1, Type 0, BuildingBlock: ESEHIV_clean_sbu_0, # of connection points: 4
#     Node 2, Type 0, BuildingBlock: ESEHIV_clean_sbu_0, # of connection points: 4
#     Node 3, Type 0, BuildingBlock: ESEHIV_clean_sbu_0, # of connection points: 4
#     Node 4, Type 0, BuildingBlock: ESEHIV_clean_sbu_0, # of connection points: 4
#     Node 5, Type 0, BuildingBlock: ESEHIV_clean_sbu_0, # of connection points: 4
#     Node 6, Type 0, BuildingBlock: ESEHIV_clean_sbu_0, # of connection points: 4
#     Node 7, Type 0, BuildingBlock: ESEHIV_clean_sbu_0, # of connection points: 4
#     Node 8, Type 0, BuildingBlock: ESEHIV_clean_sbu_0, # of connection points: 4
#     Node 9, Type 0, BuildingBlock: ESEHIV_clean_sbu_0, # of connection points: 4
#     Node 10, Type 0, BuildingBlock: ESEHIV_clean_sbu_0, # of connection points: 4
#     Node 11, Type 0, BuildingBlock: ESEHIV_clean_sbu_0, # of connection points: 4
#     Node 12, Type 0, BuildingBlock: ESEHIV_clean_sbu_0, # of connection points: 4
#     Node 13, Type 0, BuildingBlock: ESEHIV_clean_sbu_0, # of connection points: 4
#     Node 14, Type 0, BuildingBlock: ESEHIV_clean_sbu_0, # of connection points: 4
#     Node 15, Type 0, BuildingBlock: ESEHIV_clean_sbu_0, # of connection points: 4
#     Edge 16, Type (0, 0), BuildingBlock: EZIPEK_clean_linker_0, # of connection points: 2
#     Edge 17, Type (0, 0), BuildingBlock: EZIPEK_clean_linker_0, # of connection points: 2
#     Edge 18, Type (0, 0), BuildingBlock: EZIPEK_clean_linker_0, # of connection points: 2
#     Edge 19, Type (0, 0), BuildingBlock: EZIPEK_clean_linker_0, # of connection points: 2
#     Edge 20, Type (0, 0), BuildingBlock: EZIPEK_clean_linker_0, # of connection points: 2
#     Edge 21, Type (0, 0), BuildingBlock: EZIPEK_clean_linker_0, # of connection points: 2
#     Edge 22, Type (0, 0), BuildingBlock: EZIPEK_clean_linker_0, # of connection points: 2
#     Edge 23, Type (0, 0), BuildingBlock: EZIPEK_clean_linker_0, # of connection points: 2
#     Edge 24, Type (0, 0), BuildingBlock: EZIPEK_clean_linker_0, # of connection points: 2
#     Edge 25, Type (0, 0), BuildingBlock: EZIPEK_clean_linker_0, # of connection points: 2
#     Edge 26, Type (0, 0), BuildingBlock: EZIPEK_clean_linker_0, # of connection points: 2
#     Edge 27, Type (0, 0), BuildingBlock: EZIPEK_clean_linker_0, # of connection points: 2
#     Edge 28, Type (0, 0), BuildingBlock: EZIPEK_clean_linker_0, # of connection points: 2
#     Edge 29, Type (0, 0), BuildingBlock: EZIPEK_clean_linker_0, # of connection points: 2
#     Edge 30, Type (0, 0), BuildingBlock: EZIPEK_clean_linker_0, # of connection points: 2
#     Edge 31, Type (0, 0), BuildingBlock: EZIPEK_clean_linker_0, # of connection points: 2
#     Edge 32, Type (0, 0), BuildingBlock: EZIPEK_clean_linker_0, # of connection points: 2
#     Edge 33, Type (0, 0), BuildingBlock: EZIPEK_clean_linker_0, # of connection points: 2
#     Edge 34, Type (0, 0), BuildingBlock: EZIPEK_clean_linker_0, # of connection points: 2
#     Edge 35, Type (0, 0), BuildingBlock: EZIPEK_clean_linker_0, # of connection points: 2
#     Edge 36, Type (0, 0), BuildingBlock: EZIPEK_clean_linker_0, # of connection points: 2
#     Edge 37, Type (0, 0), BuildingBlock: EZIPEK_clean_linker_0, # of connection points: 2
#     Edge 38, Type (0, 0), BuildingBlock: EZIPEK_clean_linker_0, # of connection points: 2
#     Edge 39, Type (0, 0), BuildingBlock: EZIPEK_clean_linker_0, # of connection points: 2
#     Edge 40, Type (0, 0), BuildingBlock: EZIPEK_clean_linker_0, # of connection points: 2
#     Edge 41, Type (0, 0), BuildingBlock: EZIPEK_clean_linker_0, # of connection points: 2
#     Edge 42, Type (0, 0), BuildingBlock: EZIPEK_clean_linker_0, # of connection points: 2
#     Edge 43, Type (0, 0), BuildingBlock: EZIPEK_clean_linker_0, # of connection points: 2
#     Edge 44, Type (0, 0), BuildingBlock: EZIPEK_clean_linker_0, # of connection points: 2
#     Edge 45, Type (0, 0), BuildingBlock: EZIPEK_clean_linker_0, # of connection points: 2
#     Edge 46, Type (0, 0), BuildingBlock: EZIPEK_clean_linker_0, # of connection points: 2
#     Edge 47, Type (0, 0), BuildingBlock: EZIPEK_clean_linker_0, # of connection points: 2
# Relax obj value: 0.061
# Max RMSD: 0.086
# Mean RMSD: 0.086
data_MOF--net-umh--node1-ESEHIV_clean_sbu_0--edge1-EZIPEK_clean_linker_0
_symmetry_space_group_name_H-M    P1
_symmetry_Int_Tables_number       1
_symmetry_cell_setting            triclinic
loop_
_symmetry_equiv_pos_as_xyz
'x, y, z'
_cell_length_a     36.405385
_cell_length_b     36.822318
_cell_length_c     36.398958
_cell_angle_alpha  89.919952
_cell_angle_beta   90.154261
_cell_angle_gamma 89.951061
loop_
_atom_site_label
_atom_site_type_symbol
_atom_site_fract_x
_atom_site_fract_y
_atom_site_fract_z
_atom_type_partial_charge
Cu0 Cu 0.37126 0.13343 0.1868 0.0
N1 N 0.37209 0.18304 0.19694 0.0
N2 N 0.34653 0.23714 0.20655 0.0
C3 C 0.34288 0.20106 0.20994 0.0
C4 C 0.38007 0.24251 0.19188 0.0
C5 C 0.39592 0.20881 0.18599 0.0
O6 O 0.32595 0.11551 0.20986 0.0
C7 C 0.36047 0.14928 0.11097 0.0
O8 O 0.33786 0.17416 0.12332 0.0
H9 H 0.31806 0.18804 0.21895 0.0
H10 H 0.42139 0.20347 0.17174 0.0
N11 N 0.41206 0.11157 0.20901 0.0
N12 N 0.46022 0.07542 0.21953 0.0
C13 C 0.43104 0.08219 0.19758 0.0
C14 C 0.42987 0.12354 0.23912 0.0
C15 C 0.45965 0.10126 0.24568 0.0
C16 C 0.29317 0.12211 0.19913 0.0
O17 O 0.28744 0.13554 0.16622 0.0
H18 H 0.42404 0.0665 0.17343 0.0
H19 H 0.42199 0.14718 0.25486 0.0
O20 O 0.37552 0.12735 0.13358 0.0
H21 H 0.39066 0.26847 0.18282 0.0
H22 H 0.47954 0.10389 0.26768 0.0
Cu23 Cu 0.42206 0.3745 0.68918 0.0
N24 N 0.37132 0.36964 0.69068 0.0
N25 N 0.31726 0.34167 0.68993 0.0
C26 C 0.3539 0.33757 0.68856 0.0
C27 C 0.31106 0.37761 0.69308 0.0
C28 C 0.34473 0.39496 0.69341 0.0
O29 O 0.44013 0.33505 0.71978 0.0
C30 C 0.42214 0.39656 0.61678 0.0
O31 O 0.40304 0.42313 0.63132 0.0
H32 H 0.3678 0.31167 0.68624 0.0
H33 H 0.34948 0.42388 0.69548 0.0
N34 N 0.43647 0.4188 0.70915 0.0
N35 N 0.46827 0.46928 0.71996 0.0
C36 C 0.4651 0.43948 0.69874 0.0
C37 C 0.42129 0.43602 0.73799 0.0
C38 C 0.44087 0.46736 0.74468 0.0
C39 C 0.46836 0.33591 0.74046 0.0
O40 O 0.49207 0.3626 0.73735 0.0
H41 H 0.48344 0.4327 0.67642 0.0
H42 H 0.39788 0.42619 0.75329 0.0
O43 O 0.43527 0.37183 0.63755 0.0
H44 H 0.28427 0.39019 0.69515 0.0
H45 H 0.43581 0.48698 0.76621 0.0
Cu46 Cu 0.1671 0.41476 0.19535 0.0
N47 N 0.17755 0.3665 0.20633 0.0
N48 N 0.21514 0.31951 0.21401 0.0
C49 C 0.21042 0.35213 0.19831 0.0
C50 C 0.18378 0.31227 0.23216 0.0
C51 C 0.16038 0.34157 0.22733 0.0
O52 O 0.21016 0.44055 0.21446 0.0
C53 C 0.13803 0.39772 0.12625 0.0
O54 O 0.1153 0.37867 0.14656 0.0
H55 H 0.23108 0.36588 0.18224 0.0
H56 H 0.13352 0.34489 0.2394 0.0
N57 N 0.12387 0.43083 0.21782 0.0
N58 N 0.07141 0.46069 0.22755 0.0
C59 C 0.09983 0.45541 0.20442 0.0
C60 C 0.11023 0.42058 0.25061 0.0
C61 C 0.07774 0.43885 0.2566 0.0
C62 C 0.21986 0.43313 0.24738 0.0
O63 O 0.19775 0.41362 0.26788 0.0
H64 H 0.10308 0.4692 0.17834 0.0
H65 H 0.12314 0.40147 0.26914 0.0
O66 O 0.1624 0.41725 0.14194 0.0
H67 H 0.17872 0.28818 0.24844 0.0
H68 H 0.06035 0.43676 0.28059 0.0
Cu69 Cu 0.11445 0.18465 0.68591 0.0
N70 N 0.1651 0.19269 0.68911 0.0
N71 N 0.21817 0.22266 0.68931 0.0
C72 C 0.18205 0.22435 0.68189 0.0
C73 C 0.22476 0.18856 0.70094 0.0
C74 C 0.19188 0.16995 0.70052 0.0
O75 O 0.09124 0.21566 0.72306 0.0
C76 C 0.11917 0.17096 0.61211 0.0
O77 O 0.14207 0.14689 0.62579 0.0
H78 H 0.16835 0.24841 0.67184 0.0
H79 H 0.18787 0.142 0.70856 0.0
N80 N 0.10396 0.13713 0.70068 0.0
N81 N 0.07576 0.0839 0.70822 0.0
C82 C 0.07826 0.1142 0.68744 0.0
C83 C 0.11747 0.12091 0.73103 0.0
C84 C 0.10033 0.08795 0.7356 0.0
C85 C 0.09681 0.24954 0.72743 0.0
O86 O 0.11167 0.26857 0.70089 0.0
H87 H 0.06063 0.12025 0.66424 0.0
H88 H 0.13711 0.13307 0.74964 0.0
O89 O 0.10141 0.19148 0.63407 0.0
H90 H 0.25115 0.17832 0.71003 0.0
H91 H 0.1042 0.06916 0.7582 0.0
Cu92 Cu 0.3978 0.39582 0.38474 0.0
N93 N 0.39627 0.34583 0.37533 0.0
N94 N 0.37642 0.28855 0.37963 0.0
C95 C 0.38036 0.32066 0.39697 0.0
C96 C 0.39058 0.29344 0.34584 0.0
C97 C 0.40261 0.32889 0.34317 0.0
O98 O 0.35552 0.41627 0.35861 0.0
C99 C 0.41857 0.38787 0.45804 0.0
O100 O 0.44483 0.36865 0.44279 0.0
H101 H 0.36905 0.32648 0.4237 0.0
H102 H 0.41269 0.34204 0.31862 0.0
N103 N 0.44212 0.41653 0.36885 0.0
N104 N 0.48872 0.45544 0.36257 0.0
C105 C 0.45529 0.44973 0.37745 0.0
C106 C 0.46834 0.40088 0.34813 0.0
C107 C 0.49707 0.42491 0.3441 0.0
C108 C 0.35755 0.42583 0.32499 0.0
O109 O 0.38971 0.42615 0.30871 0.0
H110 H 0.44094 0.46909 0.39457 0.0
H111 H 0.46707 0.37367 0.3372 0.0
O112 O 0.39445 0.40296 0.43767 0.0
H113 H 0.3901 0.27352 0.32404 0.0
H114 H 0.52236 0.42024 0.32925 0.0
Cu115 Cu 0.1343 0.39433 0.89389 0.0
N116 N 0.18452 0.38467 0.89157 0.0
N117 N 0.23523 0.3511 0.88622 0.0
C118 C 0.19959 0.35469 0.87682 0.0
C119 C 0.24319 0.3802 0.9072 0.0
C120 C 0.21178 0.40104 0.9103 0.0
O121 O 0.11101 0.3602 0.85993 0.0
C122 C 0.13337 0.3704 0.96861 0.0
O123 O 0.15014 0.34145 0.95597 0.0
H124 H 0.18424 0.33462 0.86158 0.0
H125 H 0.20833 0.42492 0.92722 0.0
N126 N 0.12463 0.44093 0.87631 0.0
N127 N 0.09415 0.49173 0.86276 0.0
C128 C 0.0924 0.45873 0.87871 0.0
C129 C 0.14745 0.46346 0.85822 0.0
C130 C 0.12862 0.49498 0.8498 0.0
C131 C 0.10098 0.32758 0.86555 0.0
O132 O 0.10025 0.31455 0.89913 0.0
H133 H 0.06811 0.4477 0.89168 0.0
H134 H 0.17569 0.45729 0.8515 0.0
O135 O 0.12083 0.39379 0.94597 0.0
H136 H 0.26919 0.38487 0.92091 0.0
H137 H 0.13923 0.51837 0.83525 0.0
Cu138 Cu 0.19044 0.12139 0.40403 0.0
N139 N 0.23802 0.1329 0.41978 0.0
N140 N 0.28784 0.16822 0.42297 0.0
C141 C 0.25765 0.15939 0.40358 0.0
C142 C 0.28743 0.14647 0.45283 0.0
C143 C 0.25657 0.12453 0.45075 0.0
O144 O 0.19074 0.13071 0.3508 0.0
C145 C 0.15508 0.13884 0.46834 0.0
O146 O 0.17242 0.10896 0.4777 0.0
H147 H 0.24863 0.17379 0.37923 0.0
H148 H 0.24726 0.10551 0.47137 0.0
N149 N 0.17647 0.07265 0.40894 0.0
N150 N 0.13688 0.02661 0.40233 0.0
C151 C 0.14101 0.06223 0.40998 0.0
C152 C 0.19565 0.04228 0.40142 0.0
C153 C 0.17124 1.01388 0.39707 0.0
C154 C 0.21693 0.11465 0.33392 0.0
O155 O 0.23959 0.09422 0.35299 0.0
H156 H 0.11839 0.08109 0.41289 0.0
H157 H 0.22492 0.04127 0.39666 0.0
O158 O 0.15757 0.15029 0.43524 0.0
H159 H 0.30697 0.14766 0.47527 0.0
H160 H 0.17799 0.9865 0.38865 0.0
Cu161 Cu 0.41427 0.16979 0.88425 0.0
N162 N 0.3686 0.1861 0.86733 0.0
N163 N 0.32215 0.225 0.86053 0.0
C164 C 0.34816 0.21206 0.88342 0.0
C165 C 0.32577 0.20633 0.82896 0.0
C166 C 0.3546 0.18229 0.83324 0.0
O167 O 0.45029 0.20091 0.86018 0.0
C168 C 0.38901 0.15413 0.95419 0.0
O169 O 0.36439 0.13678 0.93446 0.0
H170 H 0.3543 0.22357 0.91007 0.0
H171 H 0.36639 0.16539 0.81204 0.0
N172 N 0.4226 0.1219 0.86973 0.0
N173 N 0.45071 0.06881 0.86118 0.0
C174 C 0.45432 0.10328 0.87305 0.0
C175 C 0.39822 0.09828 0.85545 0.0
C176 C 0.41558 0.0654 0.85006 0.0
C177 C 0.44411 0.23488 0.858 0.0
O178 O 0.41938 0.24943 0.87965 0.0
H179 H 0.47935 0.11455 0.88439 0.0
H180 H 0.36967 0.10435 0.84993 0.0
O181 O 0.41461 0.17129 0.93779 0.0
H182 H 0.31039 0.21152 0.804 0.0
H183 H 0.40336 0.04078 0.83938 0.0
Cu184 Cu 0.65328 0.90777 0.88016 0.0
N185 N 0.66406 0.85909 0.87195 0.0
N186 N 0.70235 0.81218 0.86729 0.0
C187 C 0.69549 0.84401 0.88392 0.0
C188 C 0.6739 0.8064 0.84425 0.0
C189 C 0.65037 0.83578 0.84689 0.0
O190 O 0.68748 0.93209 0.84693 0.0
C191 C 0.63957 0.89497 0.95352 0.0
O192 O 0.61937 0.86958 0.93827 0.0
H193 H 0.71435 0.85741 0.90249 0.0
H194 H 0.62683 0.8411 0.82954 0.0
N195 N 0.60497 0.91957 0.86743 0.0
N196 N 0.55409 0.95275 0.86094 0.0
C197 C 0.59077 0.95337 0.86605 0.0
C198 C 0.57616 0.89697 0.86333 0.0
C199 C 0.54466 0.91744 0.85919 0.0
C200 C 0.72102 0.93875 0.85427 0.0
O201 O 0.73208 0.93829 0.88866 0.0
H202 H 0.60668 0.97782 0.87039 0.0
H203 H 0.5776 0.86771 0.86514 0.0
O204 O 0.65841 0.9161 0.93303 0.0
H205 H 0.67185 0.78409 0.82503 0.0
H206 H 0.51686 0.90733 0.85661 0.0
Cu207 Cu 0.63304 0.67109 0.39098 0.0
N208 N 0.68321 0.68088 0.38383 0.0
N209 N 0.73441 0.71397 0.37838 0.0
C210 C 0.69816 0.71191 0.37092 0.0
C211 C 0.74302 0.68274 0.39566 0.0
C212 C 0.71147 0.66234 0.39883 0.0
O213 O 0.60427 0.70426 0.35996 0.0
C214 C 0.63744 0.64906 0.46435 0.0
O215 O 0.65148 0.62007 0.44881 0.0
H216 H 0.68269 0.73373 0.35849 0.0
H217 H 0.70903 0.63678 0.41318 0.0
N218 N 0.62168 0.62378 0.37604 0.0
N219 N 0.59112 0.57191 0.3678 0.0
C220 C 0.58988 0.60584 0.38168 0.0
C221 C 0.64355 0.60037 0.35794 0.0
C222 C 0.62472 0.56824 0.35286 0.0
C223 C 0.60668 0.73875 0.36091 0.0
O224 O 0.6242 0.75418 0.38837 0.0
H225 H 0.56646 0.61727 0.39583 0.0
H226 H 0.67129 0.60623 0.3492 0.0
O227 O 0.625 0.67471 0.44412 0.0
H228 H 0.76978 0.67612 0.40686 0.0
H229 H 0.63479 0.54407 0.3393 0.0
Cu230 Cu 0.8818 0.63604 0.888 0.0
N231 N 0.872 0.68545 0.88318 0.0
N232 N 0.83734 0.73513 0.87843 0.0
C233 C 0.83873 0.69886 0.87443 0.0
C234 C 0.87098 0.74521 0.89018 0.0
C235 C 0.8925 0.71432 0.89294 0.0
O236 O 0.84132 0.61299 0.86176 0.0
C237 C 0.86687 0.64067 0.96446 0.0
O238 O 0.83814 0.65954 0.9538 0.0
H239 H 0.81525 0.68216 0.86754 0.0
H240 H 0.92031 0.71274 0.90335 0.0
N241 N 0.92587 0.62413 0.86509 0.0
N242 N 0.9779 0.59492 0.85241 0.0
C243 C 0.94949 0.59802 0.87584 0.0
C244 C 0.93984 0.63795 0.83384 0.0
C245 C 0.97213 0.61989 0.82592 0.0
C246 C 0.84383 0.58542 0.84083 0.0
O247 O 0.87294 0.56441 0.84284 0.0
H248 H 0.94563 0.58118 0.89992 0.0
H249 H 0.92709 0.65921 0.8177 0.0
O250 O 0.88713 0.62564 0.9404 0.0
H251 H 0.87874 0.77254 0.89785 0.0
H252 H 0.98973 0.62429 0.8024 0.0
Cu253 Cu 0.93367 0.86809 0.39149 0.0
N254 N 0.88454 0.86404 0.37648 0.0
N255 N 0.83144 0.83502 0.36765 0.0
C256 C 0.86161 0.8381 0.38886 0.0
C257 C 0.83483 0.86052 0.3413 0.0
C258 C 0.86759 0.87866 0.34699 0.0
O259 O 0.96071 0.83015 0.36495 0.0
C260 C 0.91344 0.89111 0.46066 0.0
O261 O 0.89371 0.91306 0.44007 0.0
H262 H 0.86836 0.81966 0.41104 0.0
H263 H 0.87949 0.89892 0.32912 0.0
N264 N 0.95601 0.91108 0.37581 0.0
N265 N 1.00263 0.9506 0.37256 0.0
C266 C 0.98186 0.92953 0.39476 0.0
C267 C 0.9602 0.92138 0.34058 0.0
C268 C 0.98888 0.94565 0.33849 0.0
C269 C 0.94812 0.79851 0.35857 0.0
O270 O 0.9222 0.78535 0.37966 0.0
H271 H 0.98786 0.92473 0.4235 0.0
H272 H 0.9459 0.90949 0.31751 0.0
O273 O 0.93416 0.86763 0.44522 0.0
H274 H 0.81623 0.8641 0.31833 0.0
H275 H 1.00037 0.95697 0.31358 0.0
Cu276 Cu 0.67298 0.62645 0.69356 0.0
N277 N 0.68513 0.6726 0.71074 0.0
N278 N 0.72223 0.71955 0.72081 0.0
C279 C 0.71193 0.69363 0.69692 0.0
C280 C 0.70076 0.71543 0.75058 0.0
C281 C 0.67785 0.68623 0.7443 0.0
O282 O 0.70677 0.59354 0.71914 0.0
C283 C 0.65548 0.64966 0.62279 0.0
O284 O 0.63696 0.67388 0.64163 0.0
H285 H 0.72617 0.68781 0.67153 0.0
H286 H 0.65968 0.67377 0.7641 0.0
N287 N 0.62513 0.6148 0.70712 0.0
N288 N 0.5738 0.58299 0.71511 0.0
C289 C 0.60949 0.58172 0.70552 0.0
C290 C 0.59832 0.63765 0.71786 0.0
C291 C 0.5665 0.61799 0.72292 0.0
C292 C 0.74069 0.60173 0.72167 0.0
O293 O 0.75423 0.6263 0.69935 0.0
H294 H 0.62372 0.55739 0.69685 0.0
H295 H 0.60148 0.66668 0.72097 0.0
O296 O 0.67463 0.62592 0.63985 0.0
H297 H 0.70354 0.73052 0.77595 0.0
H298 H 0.53996 0.62851 0.73103 0.0
Cu299 Cu 0.90707 0.65576 0.19372 0.0
N300 N 0.85881 0.67023 0.20221 0.0
N301 N 0.81251 0.70978 0.20452 0.0
C302 C 0.84479 0.70139 0.18879 0.0
C303 C 0.80585 0.68314 0.22904 0.0
C304 C 0.83467 0.65871 0.22766 0.0
O305 O 0.93481 0.68519 0.22832 0.0
C306 C 0.89348 0.64294 0.12115 0.0
O307 O 0.86935 0.62185 0.13736 0.0
H308 H 0.85927 0.71898 0.16992 0.0
H309 H 0.83893 0.6358 0.24578 0.0
N310 N 0.91638 0.60724 0.20529 0.0
N311 N 0.94901 0.55668 0.21407 0.0
C312 C 0.95015 0.59233 0.20585 0.0
C313 C 0.89304 0.57995 0.21318 0.0
C314 C 0.91323 0.54861 0.2188 0.0
C315 C 0.94818 0.71658 0.22303 0.0
O316 O 0.95057 0.72945 0.18943 0.0
H317 H 0.9751 0.60729 0.20024 0.0
H318 H 0.86348 0.58249 0.21427 0.0
O319 O 0.91536 0.66166 0.14105 0.0
H320 H 0.78298 0.68262 0.24799 0.0
H321 H 0.90258 0.52199 0.22553 0.0
Cu322 Cu 0.8847 0.90898 0.69205 0.0
N323 N 0.88061 0.85882 0.70016 0.0
N324 N 0.85049 0.80634 0.70613 0.0
C325 C 0.85109 0.84195 0.71443 0.0
C326 C 0.88126 0.80003 0.68673 0.0
C327 C 0.89997 0.83243 0.68334 0.0
O328 O 0.85005 0.93408 0.72463 0.0
C329 C 0.90581 0.90688 0.61873 0.0
O330 O 0.93675 0.89664 0.63415 0.0
H331 H 0.82846 0.85576 0.72738 0.0
H332 H 0.9242 0.83684 0.66689 0.0
N333 N 0.93136 0.92561 0.70476 0.0
N334 N 0.97953 0.96255 0.70937 0.0
C335 C 0.94457 0.95905 0.69776 0.0
C336 C 0.95891 0.90743 0.72137 0.0
C337 C 0.98883 0.9303 0.72428 0.0
C338 C 0.81551 0.92874 0.72592 0.0
O339 O 0.79931 0.91104 0.69909 0.0
H340 H 0.92897 0.98032 0.68432 0.0
H341 H 0.95736 0.87952 0.73051 0.0
O342 O 0.87862 0.91588 0.63896 0.0
H343 H 0.8881 0.77459 0.67354 0.0
H344 H 1.01524 0.92392 0.73639 0.0
Cu345 Cu 0.62514 0.87644 0.18532 0.0
N346 N 0.67568 0.87055 0.18998 0.0
N347 N 0.72797 0.83924 0.19291 0.0
C348 C 0.69113 0.83746 0.19195 0.0
C349 C 0.73637 0.8749 0.1915 0.0
C350 C 0.7038 0.89432 0.1898 0.0
O351 O 0.60716 0.83648 0.2157 0.0
C352 C 0.63146 0.89802 0.1127 0.0
O353 O 0.65083 0.92353 0.12882 0.0
H354 H 0.67564 0.81237 0.19197 0.0
H355 H 0.70088 0.92349 0.18795 0.0
N356 N 0.60901 0.92073 0.20447 0.0
N357 N 0.57377 0.96905 0.21557 0.0
C358 C 0.57889 0.93958 0.19422 0.0
C359 C 0.62327 0.93894 0.23321 0.0
C360 C 0.60152 0.96887 0.24013 0.0
C361 C 0.58036 0.83675 0.23811 0.0
O362 O 0.55562 0.86265 0.23591 0.0
H363 H 0.56061 0.9314 0.17224 0.0
H364 H 0.6473 0.93052 0.24856 0.0
O365 O 0.61524 0.87428 0.13251 0.0
H366 H 0.76392 0.88591 0.19144 0.0
H367 H 0.60526 0.98856 0.26187 0.0
C368 C 0.38538 0.18526 1.01604 0.0
C369 C 0.38643 0.15283 0.99504 0.0
C370 C 0.36997 0.11758 0.05001 0.0
C371 C 0.37131 0.14971 0.07147 0.0
N372 N 0.39118 0.21216 0.07634 0.0
N373 N 0.38969 0.08737 0.99436 0.0
C374 C 0.38229 0.18298 0.05492 0.0
C375 C 0.38178 0.11873 1.01277 0.0
N376 N 0.38542 0.21837 0.99901 0.0
N377 N 0.35573 0.08634 0.06443 0.0
H378 H 0.3997 0.08718 0.96752 0.0
H379 H 0.39018 0.06195 1.00697 0.0
H380 H 0.3458 0.08449 0.0912 0.0
H381 H 0.35053 0.06327 0.04873 0.0
H382 H 0.38042 0.2426 1.0129 0.0
H383 H 0.38702 0.22157 0.97064 0.0
H384 H 0.40269 0.23588 0.06583 0.0
H385 H 0.39107 0.21121 0.10496 0.0
C386 C 0.39114 0.37405 0.51984 0.0
C387 C 0.41819 0.39221 0.49865 0.0
C388 C 0.44795 0.41386 0.55532 0.0
C389 C 0.42285 0.39297 0.57626 0.0
N390 N 0.37349 0.34948 0.5791 0.0
N391 N 0.47354 0.42802 0.49542 0.0
C392 C 0.39533 0.37194 0.55866 0.0
C393 C 0.44703 0.41166 0.51622 0.0
N394 N 0.36096 0.35952 0.50298 0.0
N395 N 0.47207 0.43645 0.57289 0.0
H396 H 0.47213 0.42956 0.46684 0.0
H397 H 0.49769 0.43879 0.5062 0.0
H398 H 0.47445 0.43755 0.60145 0.0
H399 H 0.48829 0.45555 0.55948 0.0
H400 H 0.3384 0.34928 0.51711 0.0
H401 H 0.35674 0.36069 0.47473 0.0
H402 H 0.35582 0.33031 0.56773 0.0
H403 H 0.37511 0.34783 0.60766 0.0
C404 C 0.16845 0.37666 1.02822 0.0
C405 C 0.13445 0.37861 1.00886 0.0
C406 C 0.10443 0.39948 0.06556 0.0
C407 C 0.13737 0.39301 0.08558 0.0
N408 N 0.19853 0.36748 0.08679 0.0
N409 N 0.06869 0.38655 1.01075 0.0
C410 C 0.16881 0.37947 0.06716 0.0
C411 C 0.10202 0.38873 1.02796 0.0
N412 N 0.20081 0.37379 1.00949 0.0
N413 N 0.07573 0.41679 0.08221 0.0
H414 H 0.06567 0.37801 0.98361 0.0
H415 H 0.04378 0.3899 1.02436 0.0
H416 H 0.07671 0.42551 0.10946 0.0
H417 H 0.05241 0.42556 0.06811 0.0
H418 H 0.22642 0.37614 1.02213 0.0
H419 H 0.20235 0.37311 0.98097 0.0
H420 H 0.22036 0.35354 0.07485 0.0
H421 H 0.19981 0.36802 0.11539 0.0
C422 C 0.14445 0.19591 0.55364 0.0
C423 C 0.11729 0.17474 0.57146 0.0
C424 C 0.10391 0.14363 0.51334 0.0
C425 C 0.13593 0.15921 0.49794 0.0
N426 N 0.18503 0.20267 0.50101 0.0
N427 N 0.06816 0.13141 0.56844 0.0
C428 C 0.15512 0.18691 0.51705 0.0
C429 C 0.0955 0.15006 0.55104 0.0
N430 N 0.16056 0.22387 0.57233 0.0
N431 N 0.08218 0.12217 0.49178 0.0
H432 H 0.06061 0.13708 0.59549 0.0
H433 H 0.0536 0.11006 0.55671 0.0
H434 H 0.08808 0.11772 0.46408 0.0
H435 H 0.05716 0.11136 0.50011 0.0
H436 H 0.17907 0.24203 0.56071 0.0
H437 H 0.15297 0.2306 0.59911 0.0
H438 H 0.20307 0.22003 0.51454 0.0
H439 H 0.19235 0.19744 0.47384 0.0
C440 C 0.65124 0.86795 0.05384 0.0
C441 C 0.63158 0.89619 0.07178 0.0
C442 C 0.61874 0.92503 1.01193 0.0
C443 C 0.6399 0.8978 0.99429 0.0
N444 N 0.68044 0.8463 0.99792 0.0
N445 N 0.59939 0.95341 0.06892 0.0
C446 C 0.6572 0.86999 1.01514 0.0
C447 C 0.61624 0.92531 0.05107 0.0
N448 N 0.66432 0.83919 0.07382 0.0
N449 N 0.59977 0.94972 0.99111 0.0
H450 H 0.59438 0.95326 0.09713 0.0
H451 H 0.59179 0.97762 0.05623 0.0
H452 H 0.60198 0.9511 0.96258 0.0
H453 H 0.58026 0.96751 1.00165 0.0
H454 H 0.67522 0.81576 0.0622 0.0
H455 H 0.66238 0.83754 0.10232 0.0
H456 H 0.69696 0.82754 1.01157 0.0
H457 H 0.68559 0.84728 0.96975 0.0
C458 C 0.67178 0.67369 0.56029 0.0
C459 C 0.65138 0.64896 0.58212 0.0
C460 C 0.61977 0.62624 0.52694 0.0
C461 C 0.63917 0.6519 0.50516 0.0
N462 N 0.6813 0.7023 0.5008 0.0
N463 N 0.60265 0.60513 0.58785 0.0
C464 C 0.66433 0.67648 0.52182 0.0
C465 C 0.62449 0.62611 0.56586 0.0
N466 N 0.69922 0.69358 0.57629 0.0
N467 N 0.5971 0.60162 0.51023 0.0
H468 H 0.6061 0.60342 0.61627 0.0
H469 H 0.57968 0.59107 0.5785 0.0
H470 H 0.59064 0.60265 0.48231 0.0
H471 H 0.58588 0.57921 0.52353 0.0
H472 H 0.71784 0.70947 0.56182 0.0
H473 H 0.70515 0.6923 0.60432 0.0
H474 H 0.69681 0.72353 0.51147 0.0
H475 H 0.67828 0.70398 0.47238 0.0
C476 C 0.88263 0.67545 1.02189 0.0
C477 C 0.87841 0.64145 1.00383 0.0
C478 C 0.89625 0.61043 0.06091 0.0
C479 C 0.89404 0.64386 0.08023 0.0
N480 N 0.88122 0.70822 0.07947 0.0
N481 N 0.87794 0.576 1.0072 0.0
C482 C 0.88656 0.67649 0.0608 0.0
C483 C 0.88476 0.60873 1.0235 0.0
N484 N 0.88418 0.70678 1.00176 0.0
N485 N 0.90996 0.58038 0.07829 0.0
H486 H 0.86892 0.57352 0.98011 0.0
H487 H 0.87816 0.55145 1.02144 0.0
H488 H 0.91939 0.58099 0.10539 0.0
H489 H 0.91552 0.55605 0.06483 0.0
H490 H 0.89084 0.7319 1.0131 0.0
H491 H 0.88277 0.70717 0.97316 0.0
H492 H 0.87109 0.73173 0.0671 0.0
H493 H 0.88425 0.71047 0.10782 0.0
C494 C 0.92579 0.92695 0.51813 0.0
C495 C 0.91159 0.89503 0.50133 0.0
C496 C 0.88649 0.87524 0.56084 0.0
C497 C 0.90333 0.9056 0.57802 0.0
N498 N 0.94143 0.95888 0.57441 0.0
N499 N 0.88036 0.83757 0.50629 0.0
C500 C 0.92353 0.93112 0.55698 0.0
C501 C 0.89245 0.86881 0.52261 0.0
N502 N 0.94113 0.95353 0.49685 0.0
N503 N 0.86467 0.85267 0.58117 0.0
H504 H 0.88302 0.83258 0.47824 0.0
H505 H 0.86965 0.81553 0.52057 0.0
H506 H 0.86043 0.85614 0.60926 0.0
H507 H 0.84863 0.83203 0.57009 0.0
H508 H 0.94785 0.97927 0.50654 0.0
H509 H 0.94538 0.95073 0.4687 0.0
H510 H 0.96059 0.97565 0.56171 0.0
H511 H 0.93848 0.96417 0.60241 0.0
C512 C 0.25791 0.28115 0.17952 0.0
C513 C 0.24835 0.29854 0.21271 0.0
C514 C 0.30556 0.27768 0.24128 0.0
C515 C 0.316 0.26189 0.20749 0.0
N516 N 0.3057 0.25354 0.14273 0.0
N517 N 0.26517 0.31972 0.27289 0.0
C518 C 0.29324 0.26528 0.176 0.0
C519 C 0.27279 0.29861 0.24305 0.0
N520 N 0.23258 0.27908 0.15184 0.0
N521 N 0.32666 0.27176 0.27174 0.0
H522 H 0.24139 0.33544 0.2747 0.0
H523 H 0.28358 0.32384 0.29444 0.0
H524 H 0.35136 0.2574 0.27056 0.0
H525 H 0.31876 0.27918 0.29816 0.0
H526 H 0.23624 0.26379 0.1281 0.0
H527 H 0.2064 0.29042 0.15401 0.0
H528 H 0.29189 0.25795 0.11805 0.0
H529 H 0.33164 0.24218 0.13929 0.0
C530 C 0.27925 0.2979 0.65575 0.0
C531 C 0.29071 0.31289 0.68967 0.0
C532 C 0.25226 0.2697 0.72314 0.0
C533 C 0.24314 0.25279 0.68943 0.0
N534 N 0.24912 0.24798 0.62399 0.0
N535 N 0.29236 0.31139 0.75552 0.0
C536 C 0.25691 0.26622 0.65572 0.0
C537 C 0.27828 0.29836 0.72337 0.0
N538 N 0.28951 0.3145 0.62382 0.0
N539 N 0.23495 0.25905 0.75464 0.0
H540 H 0.31103 0.33285 0.75644 0.0
H541 H 0.28749 0.29937 0.78088 0.0
H542 H 0.2156 0.23819 0.75515 0.0
H543 H 0.2375 0.27255 0.77963 0.0
H544 H 0.28007 0.30693 0.59795 0.0
H545 H 0.30588 0.33775 0.62354 0.0
H546 H 0.26046 0.25433 0.59858 0.0
H547 H 0.23274 0.22474 0.62356 0.0
C548 C 0.37132 0.22385 0.39775 0.0
C549 C 0.35461 0.25813 0.39175 0.0
C550 C 0.29606 0.23407 0.41376 0.0
C551 C 0.3115 0.19879 0.41556 0.0
N552 N 0.36257 0.15881 0.40473 0.0
N553 N 0.29935 0.29372 0.3861 0.0
C554 C 0.34893 0.1933 0.4065 0.0
C555 C 0.31646 0.26271 0.39765 0.0
N556 N 0.40862 0.22082 0.39579 0.0
N557 N 0.26215 0.2403 0.42836 0.0
H558 H 0.31315 0.31449 0.37239 0.0
H559 H 0.27094 0.29708 0.38654 0.0
H560 H 0.24727 0.22004 0.44172 0.0
H561 H 0.25072 0.26614 0.43072 0.0
H562 H 0.42291 0.1974 0.40319 0.0
H563 H 0.42548 0.24288 0.38957 0.0
H564 H 0.38861 0.15267 0.39472 0.0
H565 H 0.34666 0.13602 0.41066 0.0
C566 C 0.26737 0.25393 0.88684 0.0
C567 C 0.30017 0.25688 0.86648 0.0
C568 C 0.28966 0.32218 0.85816 0.0
C569 C 0.25792 0.31955 0.88039 0.0
N570 N 0.22106 0.28504 0.92261 0.0
N571 N 0.34599 0.29366 0.83697 0.0
C572 C 0.24791 0.28591 0.89653 0.0
C573 C 0.31242 0.29107 0.85344 0.0
N574 N 0.25475 0.22034 0.89645 0.0
N575 N 0.29713 0.35412 0.8406 0.0
H576 H 0.36272 0.27113 0.83241 0.0
H577 H 0.35829 0.31819 0.8299 0.0
H578 H 0.28044 0.37701 0.84314 0.0
H579 H 0.31817 0.35732 0.82158 0.0
H580 H 0.22904 0.21586 0.90807 0.0
H581 H 0.26902 0.19657 0.8901 0.0
H582 H 0.21447 0.26197 0.93777 0.0
H583 H 0.2079 0.30845 0.93174 0.0
C584 C 0.76301 0.79622 0.84144 0.0
C585 C 0.73637 0.79244 0.8696 0.0
C586 C 0.77857 0.75452 0.90549 0.0
C587 C 0.80451 0.75686 0.87667 0.0
N588 N 0.82517 0.78371 0.82045 0.0
N589 N 0.71646 0.76669 0.9267 0.0
C590 C 0.7977 0.77874 0.84542 0.0
C591 C 0.74364 0.77132 0.90129 0.0
N592 N 0.75477 0.81632 0.81091 0.0
N593 N 0.78829 0.7374 0.9374 0.0
H594 H 0.69065 0.77877 0.92398 0.0
H595 H 0.71835 0.74935 0.9492 0.0
H596 H 0.81431 0.72622 0.94139 0.0
H597 H 0.77207 0.73663 0.96086 0.0
H598 H 0.77108 0.81756 0.78753 0.0
H599 H 0.73069 0.83146 0.80847 0.0
H600 H 0.82393 0.80188 0.79859 0.0
H601 H 0.85061 0.77088 0.82293 0.0
C602 C 0.75028 0.77767 0.39388 0.0
C603 C 0.75795 0.74521 0.37429 0.0
C604 C 0.81518 0.77184 0.35151 0.0
C605 C 0.80582 0.80525 0.36837 0.0
N606 N 0.76299 0.842 0.40166 0.0
N607 N 0.79435 0.71295 0.33011 0.0
C608 C 0.7727 0.8088 0.38817 0.0
C609 C 0.78958 0.74272 0.35191 0.0
N610 N 0.72308 0.77797 0.41965 0.0
N611 N 0.84891 0.76784 0.33578 0.0
H612 H 0.7754 0.69173 0.32918 0.0
H613 H 0.81531 0.71059 0.31087 0.0
H614 H 0.86699 0.78952 0.33248 0.0
H615 H 0.85943 0.74295 0.32722 0.0
H616 H 0.71828 0.79972 0.43725 0.0
H617 H 0.70751 0.75509 0.42601 0.0
H618 H 0.73747 0.84746 0.41327 0.0
H619 H 0.77967 0.86485 0.39865 0.0
C620 C 0.8199 0.75177 0.73124 0.0
C621 C 0.81883 0.78306 0.7086 0.0
C622 C 0.7534 0.77333 0.69631 0.0
C623 C 0.75467 0.74148 0.71785 0.0
N624 N 0.7891 0.69683 0.75181 0.0
N625 N 0.78773 0.81854 0.66241 0.0
C626 C 0.78801 0.72963 0.73423 0.0
C627 C 0.78638 0.79249 0.68913 0.0
N628 N 0.85122 0.74395 0.75042 0.0
N629 N 0.72038 0.78536 0.6832 0.0
H630 H 0.81201 0.83164 0.65509 0.0
H631 H 0.76585 0.82455 0.64496 0.0
H632 H 0.69591 0.77133 0.68778 0.0
H633 H 0.71678 0.81041 0.67038 0.0
H634 H 0.85329 0.72326 0.76982 0.0
H635 H 0.87477 0.75995 0.74872 0.0
H636 H 0.81307 0.68473 0.76152 0.0
H637 H 0.76598 0.6804 0.75477 0.0
C638 C 0.77084 0.74954 0.16902 0.0
C639 C 0.79287 0.74347 0.20049 0.0
C640 C 0.77333 0.80164 0.22632 0.0
C641 C 0.75247 0.80856 0.19424 0.0
N642 N 0.73702 0.79324 0.13197 0.0
N643 N 0.82313 0.76766 0.25375 0.0
C644 C 0.75295 0.78365 0.16457 0.0
C645 C 0.79649 0.77069 0.22759 0.0
N646 N 0.76651 0.72232 0.14397 0.0
N647 N 0.7695 0.82346 0.25635 0.0
H648 H 0.84057 0.74522 0.25549 0.0
H649 H 0.83038 0.78931 0.27063 0.0
H650 H 0.75233 0.84613 0.25656 0.0
H651 H 0.78086 0.81714 0.28189 0.0
H652 H 0.74811 0.72359 0.12206 0.0
H653 H 0.77971 0.69728 0.14666 0.0
H654 H 0.73875 0.77767 0.10819 0.0
H655 H 0.72487 0.81861 0.12794 0.0
C656 C 0.23027 0.15136 0.27627 0.0
C657 C 0.22354 0.11744 0.29356 0.0
C658 C 0.25416 0.0858 0.2427 0.0
C659 C 0.26267 0.11971 0.22643 0.0
N660 N 0.24616 0.18317 0.22024 0.0
N661 N 0.21701 0.0528 0.28688 0.0
C662 C 0.24632 0.15196 0.24057 0.0
C663 C 0.23143 0.08477 0.27445 0.0
N664 N 0.22397 0.18304 0.2947 0.0
N665 N 0.26856 0.05465 0.22833 0.0
H666 H 0.1995 0.05169 0.30954 0.0
H667 H 0.21925 0.02832 0.27278 0.0
H668 H 0.28332 0.05433 0.20378 0.0
H669 H 0.26717 0.02953 0.24143 0.0
H670 H 0.23325 0.20821 0.28546 0.0
H671 H 0.21142 0.18411 0.32032 0.0
H672 H 0.23184 0.20645 0.22796 0.0
H673 H 0.25707 0.18485 0.19391 0.0
C674 C 0.47375 0.31963 0.80797 0.0
C675 C 0.4714 0.30862 0.77058 0.0
C676 C 0.45586 0.24679 0.79024 0.0
C677 C 0.45958 0.25745 0.8277 0.0
N678 N 0.48313 0.30087 0.87117 0.0
N679 N 0.47169 0.2596 0.7269 0.0
C680 C 0.47238 0.29283 0.83613 0.0
C681 C 0.46641 0.27142 0.76205 0.0
N682 N 0.47434 0.35563 0.81706 0.0
N683 N 0.43959 0.21461 0.78105 0.0
H684 H 0.47999 0.27694 0.70579 0.0
H685 H 0.47177 0.2322 0.71974 0.0
H686 H 0.43011 0.19577 0.80006 0.0
H687 H 0.43237 0.20799 0.75416 0.0
H688 H 0.47181 0.36484 0.84399 0.0
H689 H 0.47382 0.37657 0.79783 0.0
H690 H 0.49579 0.32525 0.87825 0.0
H691 H 0.48303 0.28156 0.8922 0.0
C692 C 0.28753 0.42053 0.24692 0.0
C693 C 0.25762 0.44032 0.26168 0.0
C694 C 0.29642 0.45718 0.31453 0.0
C695 C 0.32347 0.43187 0.30289 0.0
N696 N 0.34028 0.38339 0.26134 0.0
N697 N 0.23304 0.47752 0.31008 0.0
C698 C 0.31801 0.41209 0.26981 0.0
C699 C 0.26202 0.45881 0.29564 0.0
N700 N 0.28706 0.40966 0.21111 0.0
N701 N 0.30393 0.48029 0.3429 0.0
H702 H 0.20852 0.48143 0.29567 0.0
H703 H 0.23279 0.48776 0.33673 0.0
H704 H 0.32901 0.48026 0.35683 0.0
H705 H 0.28671 0.50159 0.35044 0.0
H706 H 0.30945 0.39731 0.19843 0.0
H707 H 0.26641 0.41727 0.19285 0.0
H708 H 0.33488 0.36574 0.23962 0.0
H709 H 0.36153 0.37447 0.27834 0.0
C710 C 0.06924 0.29509 0.77126 0.0
C711 C 0.09399 0.26596 0.76482 0.0
C712 C 0.1208 0.27445 0.82649 0.0
C713 C 0.09567 0.30332 0.83311 0.0
N714 N 0.04155 0.33651 0.81526 0.0
N715 N 0.14013 0.22439 0.78797 0.0
C716 C 0.06857 0.31224 0.80643 0.0
C717 C 0.11845 0.25433 0.79311 0.0
N718 N 0.04679 0.30674 0.74347 0.0
N719 N 0.14873 0.26782 0.85086 0.0
H720 H 0.14259 0.21087 0.76302 0.0
H721 H 0.15437 0.21147 0.80911 0.0
H722 H 0.1512 0.28073 0.87615 0.0
H723 H 0.1712 0.25127 0.84516 0.0
H724 H 0.03132 0.33049 0.74459 0.0
H725 H 0.04494 0.29346 0.71823 0.0
H726 H 1.0189 0.34195 0.79866 0.0
H727 H 0.04009 0.34905 0.84092 0.0
C728 C 0.74206 0.9633 0.79286 0.0
C729 C 0.74825 0.94001 0.82344 0.0
C730 C 0.80398 0.91654 0.79331 0.0
C731 C 0.79473 0.93586 0.76064 0.0
N732 N 0.7539 0.97662 0.72857 0.0
N733 N 0.78203 0.8894 0.84951 0.0
C734 C 0.76342 0.95896 0.76024 0.0
C735 C 0.77866 0.91564 0.82306 0.0
N736 N 0.71655 0.99043 0.79548 0.0
N737 N 0.83661 0.89826 0.79607 0.0
H738 H 0.76352 0.88585 0.87087 0.0
H739 H 0.80115 0.86839 0.8483 0.0
H740 H 0.85531 0.89556 0.77475 0.0
H741 H 0.84676 0.88812 0.82083 0.0
H742 H 0.71305 1.01056 0.77567 0.0
H743 H 0.70119 0.99492 0.8192 0.0
H744 H 0.72902 0.99014 0.72497 0.0
H745 H 0.77021 0.9762 0.70504 0.0
C746 C 0.57711 0.79539 0.33521 0.0
C747 C 0.59446 0.76144 0.32886 0.0
C748 C 0.59081 0.77353 0.26247 0.0
C749 C 0.58052 0.81008 0.26931 0.0
N750 N 0.57144 0.85748 0.31477 0.0
N751 N 0.62521 0.72215 0.28506 0.0
C752 C 0.57528 0.82152 0.30635 0.0
C753 C 0.60304 0.75128 0.29208 0.0
N754 N 0.56202 0.80271 0.3687 0.0
N755 N 0.58876 0.75985 0.22767 0.0
H756 H 0.63759 0.70648 0.30543 0.0
H757 H 0.63492 0.71618 0.25883 0.0
H758 H 0.57868 0.77494 0.20554 0.0
H759 H 0.593 0.73246 0.22179 0.0
H760 H 0.54624 0.82582 0.37369 0.0
H761 H 0.56171 0.7838 0.39007 0.0
H762 H 0.57125 0.86701 0.34172 0.0
H763 H 0.57272 0.87827 0.29545 0.0
C764 C 0.77842 0.58425 0.81864 0.0
C765 C 0.81638 0.58121 0.81052 0.0
C766 C 0.80077 0.57787 0.74488 0.0
C767 C 0.76419 0.58848 0.75266 0.0
N768 N 0.71951 0.60688 0.79843 0.0
N769 N 0.86412 0.5814 0.76409 0.0
C770 C 0.75306 0.59253 0.78996 0.0
C771 C 0.82778 0.57912 0.77317 0.0
N772 N 0.76654 0.57916 0.85384 0.0
N773 N 0.80981 0.56677 0.71027 0.0
H774 H 0.88515 0.58472 0.7832 0.0
H775 H 0.87317 0.58392 0.73707 0.0
H776 H 0.79043 0.56497 0.68916 0.0
H777 H 0.83531 0.55564 0.7038 0.0
H778 H 0.73883 0.57773 0.86079 0.0
H779 H 0.78436 0.57243 0.87531 0.0
H780 H 0.71222 0.61435 0.82504 0.0
H781 H 0.70003 0.6145 0.77896 0.0
C782 C 0.97287 0.74677 0.32031 0.0
C783 C 0.9548 0.78087 0.32224 0.0
C784 C 0.93396 0.77383 0.25834 0.0
C785 C 0.95362 0.74058 0.25563 0.0
N786 N 0.99799 0.69918 0.28153 0.0
N787 N 0.92593 0.83083 0.28992 0.0
C788 C 0.97502 0.72822 0.28593 0.0
C789 C 0.9383 0.79581 0.29011 0.0
N790 N 0.98744 0.73183 0.35149 0.0
N791 N 0.90859 0.78319 0.23216 0.0
H792 H 0.92717 0.84769 0.31268 0.0
H793 H 0.91765 0.84431 0.2661 0.0
H794 H 0.90217 0.76708 0.20958 0.0
H795 H 0.89071 0.80511 0.23485 0.0
H796 H 0.99708 0.70523 0.35299 0.0
H797 H 0.98809 0.74556 0.37654 0.0
H798 H 1.01679 0.69076 0.3014 0.0
H799 H 1.00068 0.68554 0.25657 0.0
C800 C 0.48408 1.0152 0.23756 0.0
C801 C 0.48725 0.04702 0.21587 0.0
C802 C 0.5468 0.02617 0.19232 0.0
C803 C 0.54369 0.99448 0.21417 0.0
N804 N 0.50912 0.9561 0.25456 0.0
N805 N 0.51885 0.08242 0.17053 0.0
C806 C 0.5121 0.98819 0.23588 0.0
C807 C 0.51781 0.05226 0.19243 0.0
N808 N 0.45445 1.01152 0.26023 0.0
N809 N 0.57808 0.03139 0.17233 0.0
H810 H 0.49842 0.10228 0.1711 0.0
H811 H 0.53885 0.08738 0.15084 0.0
H812 H 0.59916 1.01219 0.17146 0.0
H813 H 0.58399 0.05483 0.15755 0.0
H814 H 0.45126 0.99069 0.27926 0.0
H815 H 0.43307 0.0304 0.26075 0.0
H816 H 0.48597 0.94806 0.2691 0.0
H817 H 0.52969 0.93636 0.25411 0.0
C818 C 0.52239 0.54982 0.68651 0.0
C819 C 0.54818 0.55332 0.71546 0.0
C820 C 0.52398 0.49844 0.74469 0.0
C821 C 0.49599 0.49697 0.71767 0.0
N822 N 0.46557 0.52251 0.66499 0.0
N823 N 0.57199 0.53404 0.77388 0.0
C824 C 0.49448 0.52293 0.68897 0.0
C825 C 0.54865 0.52834 0.74503 0.0
N826 N 0.5253 0.57179 0.6564 0.0
N827 N 0.52738 0.47061 0.76931 0.0
H828 H 0.59042 0.55572 0.77457 0.0
H829 H 0.5714 0.519 0.79809 0.0
H830 H 0.50979 0.44825 0.76926 0.0
H831 H 0.54916 0.46814 0.78774 0.0
H832 H 0.50967 0.56856 0.63264 0.0
H833 H 0.54552 0.59172 0.65416 0.0
H834 H 0.46075 0.54268 0.64549 0.0
H835 H 0.44475 0.50311 0.66634 0.0
C836 C 1.01435 0.47939 0.19552 0.0
C837 C 0.04111 0.48556 0.22316 0.0
C838 C 1.00523 0.53687 0.24649 0.0
C839 C 0.97995 0.53243 0.21723 0.0
N840 N 0.96346 0.50402 0.16012 0.0
N841 N 0.06611 0.52392 0.27036 0.0
C842 C 0.98535 0.5049 0.19063 0.0
C843 C 0.03768 0.51542 0.2474 0.0
N844 N 1.01598 0.44845 0.17496 0.0
N845 N 0.99747 0.5608 0.27404 0.0
H846 H 0.0906 0.5092 0.27082 0.0
H847 H 0.06683 0.54735 0.28633 0.0
H848 H 0.97354 0.57639 0.27434 0.0
H849 H 1.01299 0.56287 0.29801 0.0
H850 H 0.9954 0.44057 0.15673 0.0
H851 H 0.03662 0.42906 0.17837 0.0
H852 H 0.96813 0.48687 0.13791 0.0
H853 H 0.94239 0.52275 0.15568 0.0
C854 C 0.02875 0.99745 0.67913 0.0
C855 C 1.00207 0.99453 0.70719 0.0
C856 C 1.01965 0.05421 0.73096 0.0
C857 C 0.04899 0.05529 0.70553 0.0
N858 N 0.08358 0.02793 0.65682 0.0
N859 N 0.9732 1.01784 0.76149 0.0
C860 C 0.05394 0.02701 0.6797 0.0
C861 C 0.99763 0.02246 0.73346 0.0
N862 N 0.02938 0.97214 0.65175 0.0
N863 N 1.01266 0.084 0.75213 0.0
H864 H 0.9566 0.99486 0.76371 0.0
H865 H 0.97103 0.03539 0.78376 0.0
H866 H 0.02829 0.10768 0.75037 0.0
H867 H 0.9898 0.08649 0.76906 0.0
H868 H 0.04588 0.97414 0.62853 0.0
H869 H 1.01123 0.95022 0.65109 0.0
H870 H 0.09107 1.00659 0.63968 0.0
H871 H 0.10207 0.04956 0.65657 0.0
C872 C 0.56175 0.51925 0.39767 0.0
C873 C 0.56264 0.54476 0.36856 0.0
C874 C 0.51047 0.51438 0.33885 0.0
C875 C 0.51179 0.48702 0.36618 0.0
N876 N 0.5389 0.46138 0.42049 0.0
N877 N 0.53971 0.56704 0.31095 0.0
C878 C 0.53734 0.48908 0.39554 0.0
C879 C 0.53724 0.54259 0.3391 0.0
N880 N 0.58427 0.52425 0.42731 0.0
N881 N 0.48335 0.51315 0.31288 0.0
H882 H 0.55855 0.58837 0.31115 0.0
H883 H 0.52449 0.56546 0.28678 0.0
H884 H 0.46391 0.49235 0.31206 0.0
H885 H 0.47858 0.53352 0.29363 0.0
H886 H 0.58321 0.50864 0.45112 0.0
H887 H 0.60275 0.54584 0.42895 0.0
H888 H 0.55885 0.45911 0.44086 0.0
H889 H 0.52095 0.43933 0.41956 0.0
C890 C 0.03676 0.51294 0.83353 0.0
C891 C 0.06498 0.51799 0.85987 0.0
C892 C 0.03696 0.57538 0.87927 0.0
C893 C 1.00752 0.56911 0.85462 0.0
N894 N 0.97615 0.53056 0.81167 0.0
N895 N 0.09039 0.55079 0.91088 0.0
C896 C 1.00655 0.53747 0.83258 0.0
C897 C 0.06469 0.54844 0.88358 0.0
N898 N 0.03957 0.48515 0.80888 0.0
N899 N 0.03861 0.60756 0.8978 0.0
H900 H 0.11094 0.53133 0.91446 0.0
H901 H 0.08994 0.5704 0.93143 0.0
H902 H 1.01842 0.62753 0.89512 0.0
H903 H 0.06096 0.61559 0.91371 0.0
H904 H 1.02186 0.48169 0.78668 0.0
H905 H 0.06146 0.46684 0.80918 0.0
H906 H 0.97189 0.50636 0.79757 0.0
H907 H 0.95377 0.54825 0.81052 0.0
C908 C 0.04073 1.00621 0.36917 0.0
C909 C 0.03601 0.97005 0.38165 0.0
C910 C 0.09594 0.97358 0.41243 0.0
C911 C 0.10275 1.00757 0.39544 0.0
N912 N 0.08479 0.0507 0.34862 0.0
N913 N 0.06463 0.91608 0.40663 0.0
C914 C 0.07599 0.02248 0.37128 0.0
C915 C 0.06509 0.95273 0.40107 0.0
N916 N 1.01139 0.02534 0.35603 0.0
N917 N 0.11829 0.96158 0.44002 0.0
H918 H 0.04441 0.89925 0.39567 0.0
H919 H 0.08673 0.90199 0.41807 0.0
H920 H 0.14011 0.97696 0.45014 0.0
H921 H 0.11261 0.93832 0.45535 0.0
H922 H 1.01291 0.05283 0.34933 0.0
H923 H 0.98481 1.01479 0.35582 0.0
H924 H 0.06691 0.06054 0.32852 0.0
H925 H 0.11134 0.06107 0.34665 0.0
C926 C 0.52247 1.00273 0.8286 0.0
C927 C 0.52937 0.98326 0.86145 0.0
C928 C 0.48428 1.02051 0.89423 0.0
C929 C 0.4782 0.04071 0.86165 0.0
N930 N 0.49372 0.05501 0.79931 0.0
N931 N 0.52136 0.97558 0.92643 0.0
C932 C 0.49803 0.03294 0.8292 0.0
C933 C 0.51155 0.9928 0.89461 0.0
N934 N 0.53868 0.99148 0.79679 0.0
N935 N 0.46302 0.02729 0.92433 0.0
H936 H 0.54083 0.95479 0.92712 0.0
H937 H 0.51216 0.98322 0.95233 0.0
H938 H 0.4432 0.04776 0.92471 0.0
H939 H 0.46333 1.01152 0.94807 0.0
H940 H 0.53256 1.00212 0.771 0.0
H941 H 0.5571 0.96977 0.79602 0.0
H942 H 0.50944 0.05311 0.77557 0.0
H943 H 0.47565 0.07703 0.79923 0.0
loop_
_geom_bond_atom_site_label_1
_geom_bond_atom_site_label_2
_geom_bond_distance
_geom_bond_site_symmetry_2
_ccdc_geom_bond_type
Cu0 N1 1.999 . S
Cu0 O6 1.974 . S
Cu0 N11 1.985 . S
Cu0 O20 1.959 . S
N1 Cu0 1.999 . S
N1 C3 1.263 . S
N1 C5 1.389 . S
N2 C3 1.358 . S
N2 C4 1.400 . S
C3 N1 1.263 . S
C3 N2 1.358 . S
C3 H9 0.930 . S
C4 N2 1.400 . S
C4 C5 1.351 . S
C4 H21 0.930 . S
C5 N1 1.389 . S
C5 C4 1.351 . S
C5 H10 0.930 . S
O6 Cu0 1.974 . S
O6 C16 1.282 . S
C7 O8 1.261 . S
C7 O20 1.251 . S
O8 C7 1.261 . S
H9 C3 0.930 . S
H10 C5 0.930 . S
N11 Cu0 1.985 . S
N11 C13 1.335 . S
N11 C14 1.390 . S
N12 C13 1.345 . S
N12 C15 1.336 . S
C13 N11 1.335 . S
C13 N12 1.345 . S
C13 H18 0.930 . S
C14 N11 1.390 . S
C14 C15 1.346 . S
C14 H19 0.930 . S
C15 N12 1.336 . S
C15 C14 1.346 . S
C15 H22 0.929 1_545 S
C16 O6 1.282 . S
C16 O17 1.216 . S
O17 C16 1.216 . S
H18 C13 0.930 . S
H19 C14 0.930 . S
O20 Cu0 1.959 . S
O20 C7 1.251 . S
H21 C4 0.930 . S
H22 C15 0.929 1_565 S
Cu23 N24 1.999 . S
Cu23 O29 1.974 . S
Cu23 N34 1.985 . S
Cu23 O43 1.959 . S
N24 Cu23 1.999 . S
N24 C26 1.263 . S
N24 C28 1.389 . S
N25 C26 1.358 . S
N25 C27 1.400 . S
C26 N24 1.263 . S
C26 N25 1.358 . S
C26 H32 0.930 . S
C27 N25 1.400 . S
C27 C28 1.351 . S
C27 H44 0.930 . S
C28 N24 1.389 . S
C28 C27 1.351 . S
C28 H33 0.930 . S
O29 Cu23 1.974 . S
O29 C39 1.282 . S
C30 O31 1.261 . S
C30 O43 1.251 . S
O31 C30 1.261 . S
H32 C26 0.930 . S
H33 C28 0.930 . S
N34 Cu23 1.985 . S
N34 C36 1.335 . S
N34 C37 1.390 . S
N35 C36 1.345 . S
N35 C38 1.336 . S
C36 N34 1.335 . S
C36 N35 1.345 . S
C36 H41 0.930 . S
C37 N34 1.390 . S
C37 C38 1.346 . S
C37 H42 0.930 . S
C38 N35 1.336 . S
C38 C37 1.346 . S
C38 H45 0.929 . S
C39 O29 1.282 . S
C39 O40 1.216 . S
O40 C39 1.216 . S
H41 C36 0.930 . S
H42 C37 0.930 . S
O43 Cu23 1.959 . S
O43 C30 1.251 . S
H44 C27 0.930 . S
H45 C38 0.929 . S
Cu46 N47 1.999 . S
Cu46 O52 1.974 . S
Cu46 N57 1.985 . S
Cu46 O66 1.959 . S
N47 Cu46 1.999 . S
N47 C49 1.263 . S
N47 C51 1.389 . S
N48 C49 1.358 . S
N48 C50 1.400 . S
C49 N47 1.263 . S
C49 N48 1.358 . S
C49 H55 0.930 . S
C50 N48 1.400 . S
C50 C51 1.351 . S
C50 H67 0.930 . S
C51 N47 1.389 . S
C51 C50 1.351 . S
C51 H56 0.930 . S
O52 Cu46 1.974 . S
O52 C62 1.282 . S
C53 O54 1.261 . S
C53 O66 1.251 . S
O54 C53 1.261 . S
H55 C49 0.930 . S
H56 C51 0.930 . S
N57 Cu46 1.985 . S
N57 C59 1.335 . S
N57 C60 1.390 . S
N58 C59 1.345 . S
N58 C61 1.336 . S
C59 N57 1.335 . S
C59 N58 1.345 . S
C59 H64 0.930 . S
C60 N57 1.390 . S
C60 C61 1.346 . S
C60 H65 0.930 . S
C61 N58 1.336 . S
C61 C60 1.346 . S
C61 H68 0.929 . S
C62 O52 1.282 . S
C62 O63 1.216 . S
O63 C62 1.216 . S
H64 C59 0.930 . S
H65 C60 0.930 . S
O66 Cu46 1.959 . S
O66 C53 1.251 . S
H67 C50 0.930 . S
H68 C61 0.929 . S
Cu69 N70 1.999 . S
Cu69 O75 1.974 . S
Cu69 N80 1.985 . S
Cu69 O89 1.959 . S
N70 Cu69 1.999 . S
N70 C72 1.263 . S
N70 C74 1.389 . S
N71 C72 1.358 . S
N71 C73 1.400 . S
C72 N70 1.263 . S
C72 N71 1.358 . S
C72 H78 0.930 . S
C73 N71 1.400 . S
C73 C74 1.351 . S
C73 H90 0.930 . S
C74 N70 1.389 . S
C74 C73 1.351 . S
C74 H79 0.930 . S
O75 Cu69 1.974 . S
O75 C85 1.282 . S
C76 O77 1.261 . S
C76 O89 1.251 . S
O77 C76 1.261 . S
H78 C72 0.930 . S
H79 C74 0.930 . S
N80 Cu69 1.985 . S
N80 C82 1.335 . S
N80 C83 1.390 . S
N81 C82 1.345 . S
N81 C84 1.336 . S
C82 N80 1.335 . S
C82 N81 1.345 . S
C82 H87 0.930 . S
C83 N80 1.390 . S
C83 C84 1.346 . S
C83 H88 0.930 . S
C84 N81 1.336 . S
C84 C83 1.346 . S
C84 H91 0.929 1_455 S
C85 O75 1.282 . S
C85 O86 1.216 . S
O86 C85 1.216 . S
H87 C82 0.930 . S
H88 C83 0.930 . S
O89 Cu69 1.959 . S
O89 C76 1.251 . S
H90 C73 0.930 . S
H91 C84 0.929 1_655 S
Cu92 N93 1.999 . S
Cu92 O98 1.974 . S
Cu92 N103 1.985 . S
Cu92 O112 1.959 . S
N93 Cu92 1.999 . S
N93 C95 1.263 . S
N93 C97 1.389 . S
N94 C95 1.358 . S
N94 C96 1.400 . S
C95 N93 1.263 . S
C95 N94 1.358 . S
C95 H101 0.930 . S
C96 N94 1.400 . S
C96 C97 1.351 . S
C96 H113 0.930 . S
C97 N93 1.389 . S
C97 C96 1.351 . S
C97 H102 0.930 . S
O98 Cu92 1.974 . S
O98 C108 1.282 . S
C99 O100 1.261 . S
C99 O112 1.251 . S
O100 C99 1.261 . S
H101 C95 0.930 . S
H102 C97 0.930 . S
N103 Cu92 1.985 . S
N103 C105 1.335 . S
N103 C106 1.390 . S
N104 C105 1.345 . S
N104 C107 1.336 . S
C105 N103 1.335 . S
C105 N104 1.345 . S
C105 H110 0.930 . S
C106 N103 1.390 . S
C106 C107 1.346 . S
C106 H111 0.930 . S
C107 N104 1.336 . S
C107 C106 1.346 . S
C107 H114 0.929 . S
C108 O98 1.282 . S
C108 O109 1.216 . S
O109 C108 1.216 . S
H110 C105 0.930 . S
H111 C106 0.930 . S
O112 Cu92 1.959 . S
O112 C99 1.251 . S
H113 C96 0.930 . S
H114 C107 0.929 . S
Cu115 N116 1.999 . S
Cu115 O121 1.974 . S
Cu115 N126 1.985 . S
Cu115 O135 1.959 . S
N116 Cu115 1.999 . S
N116 C118 1.263 . S
N116 C120 1.389 . S
N117 C118 1.358 . S
N117 C119 1.400 . S
C118 N116 1.263 . S
C118 N117 1.358 . S
C118 H124 0.930 . S
C119 N117 1.400 . S
C119 C120 1.351 . S
C119 H136 0.930 . S
C120 N116 1.389 . S
C120 C119 1.351 . S
C120 H125 0.930 . S
O121 Cu115 1.974 . S
O121 C131 1.282 . S
C122 O123 1.261 . S
C122 O135 1.251 . S
O123 C122 1.261 . S
H124 C118 0.930 . S
H125 C120 0.930 . S
N126 Cu115 1.985 . S
N126 C128 1.335 . S
N126 C129 1.390 . S
N127 C128 1.345 . S
N127 C130 1.336 . S
C128 N126 1.335 . S
C128 N127 1.345 . S
C128 H133 0.930 . S
C129 N126 1.390 . S
C129 C130 1.346 . S
C129 H134 0.930 . S
C130 N127 1.336 . S
C130 C129 1.346 . S
C130 H137 0.929 1_455 S
C131 O121 1.282 . S
C131 O132 1.216 . S
O132 C131 1.216 . S
H133 C128 0.930 . S
H134 C129 0.930 . S
O135 Cu115 1.959 . S
O135 C122 1.251 . S
H136 C119 0.930 . S
H137 C130 0.929 1_655 S
Cu138 N139 1.999 . S
Cu138 O144 1.974 . S
Cu138 N149 1.985 . S
Cu138 O158 1.959 . S
N139 Cu138 1.999 . S
N139 C141 1.263 . S
N139 C143 1.389 . S
N140 C141 1.358 . S
N140 C142 1.400 . S
C141 N139 1.263 . S
C141 N140 1.358 . S
C141 H147 0.930 . S
C142 N140 1.400 . S
C142 C143 1.351 . S
C142 H159 0.930 . S
C143 N139 1.389 . S
C143 C142 1.351 . S
C143 H148 0.930 . S
O144 Cu138 1.974 . S
O144 C154 1.282 . S
C145 O146 1.261 . S
C145 O158 1.251 . S
O146 C145 1.261 . S
H147 C141 0.930 . S
H148 C143 0.930 . S
N149 Cu138 1.985 . S
N149 C151 1.335 . S
N149 C152 1.390 . S
N150 C151 1.345 . S
N150 C153 1.336 . S
C151 N149 1.335 . S
C151 N150 1.345 . S
C151 H156 0.930 . S
C152 N149 1.390 . S
C152 C153 1.346 . S
C152 H157 0.930 . S
C153 N150 1.336 . S
C153 C152 1.346 . S
C153 H160 0.929 1_545 S
C154 O144 1.282 . S
C154 O155 1.216 . S
O155 C154 1.216 . S
H156 C151 0.930 . S
H157 C152 0.930 . S
O158 Cu138 1.959 . S
O158 C145 1.251 . S
H159 C142 0.930 . S
H160 C153 0.929 1_565 S
Cu161 N162 1.999 . S
Cu161 O167 1.974 . S
Cu161 N172 1.985 . S
Cu161 O181 1.959 . S
N162 Cu161 1.999 . S
N162 C164 1.263 . S
N162 C166 1.389 . S
N163 C164 1.358 . S
N163 C165 1.400 . S
C164 N162 1.263 . S
C164 N163 1.358 . S
C164 H170 0.930 . S
C165 N163 1.400 . S
C165 C166 1.351 . S
C165 H182 0.930 . S
C166 N162 1.389 . S
C166 C165 1.351 . S
C166 H171 0.930 . S
O167 Cu161 1.974 . S
O167 C177 1.282 . S
C168 O169 1.261 . S
C168 O181 1.251 . S
O169 C168 1.261 . S
H170 C164 0.930 . S
H171 C166 0.930 . S
N172 Cu161 1.985 . S
N172 C174 1.335 . S
N172 C175 1.390 . S
N173 C174 1.345 . S
N173 C176 1.336 . S
C174 N172 1.335 . S
C174 N173 1.345 . S
C174 H179 0.930 . S
C175 N172 1.390 . S
C175 C176 1.346 . S
C175 H180 0.930 . S
C176 N173 1.336 . S
C176 C175 1.346 . S
C176 H183 0.929 . S
C177 O167 1.282 . S
C177 O178 1.216 . S
O178 C177 1.216 . S
H179 C174 0.930 . S
H180 C175 0.930 . S
O181 Cu161 1.959 . S
O181 C168 1.251 . S
H182 C165 0.930 . S
H183 C176 0.929 . S
Cu184 N185 1.999 . S
Cu184 O190 1.974 . S
Cu184 N195 1.985 . S
Cu184 O204 1.959 . S
N185 Cu184 1.999 . S
N185 C187 1.263 . S
N185 C189 1.389 . S
N186 C187 1.358 . S
N186 C188 1.400 . S
C187 N185 1.263 . S
C187 N186 1.358 . S
C187 H193 0.930 . S
C188 N186 1.400 . S
C188 C189 1.351 . S
C188 H205 0.930 . S
C189 N185 1.389 . S
C189 C188 1.351 . S
C189 H194 0.930 . S
O190 Cu184 1.974 . S
O190 C200 1.282 . S
C191 O192 1.261 . S
C191 O204 1.251 . S
O192 C191 1.261 . S
H193 C187 0.930 . S
H194 C189 0.930 . S
N195 Cu184 1.985 . S
N195 C197 1.335 . S
N195 C198 1.390 . S
N196 C197 1.345 . S
N196 C199 1.336 . S
C197 N195 1.335 . S
C197 N196 1.345 . S
C197 H202 0.930 . S
C198 N195 1.390 . S
C198 C199 1.346 . S
C198 H203 0.930 . S
C199 N196 1.336 . S
C199 C198 1.346 . S
C199 H206 0.929 1_565 S
C200 O190 1.282 . S
C200 O201 1.216 . S
O201 C200 1.216 . S
H202 C197 0.930 . S
H203 C198 0.930 . S
O204 Cu184 1.959 . S
O204 C191 1.251 . S
H205 C188 0.930 . S
H206 C199 0.929 1_545 S
Cu207 N208 1.999 . S
Cu207 O213 1.974 . S
Cu207 N218 1.985 . S
Cu207 O227 1.959 . S
N208 Cu207 1.999 . S
N208 C210 1.263 . S
N208 C212 1.389 . S
N209 C210 1.358 . S
N209 C211 1.400 . S
C210 N208 1.263 . S
C210 N209 1.358 . S
C210 H216 0.930 . S
C211 N209 1.400 . S
C211 C212 1.351 . S
C211 H228 0.930 . S
C212 N208 1.389 . S
C212 C211 1.351 . S
C212 H217 0.930 . S
O213 Cu207 1.974 . S
O213 C223 1.282 . S
C214 O215 1.261 . S
C214 O227 1.251 . S
O215 C214 1.261 . S
H216 C210 0.930 . S
H217 C212 0.930 . S
N218 Cu207 1.985 . S
N218 C220 1.335 . S
N218 C221 1.390 . S
N219 C220 1.345 . S
N219 C222 1.336 . S
C220 N218 1.335 . S
C220 N219 1.345 . S
C220 H225 0.930 . S
C221 N218 1.390 . S
C221 C222 1.346 . S
C221 H226 0.930 . S
C222 N219 1.336 . S
C222 C221 1.346 . S
C222 H229 0.929 . S
C223 O213 1.282 . S
C223 O224 1.216 . S
O224 C223 1.216 . S
H225 C220 0.930 . S
H226 C221 0.930 . S
O227 Cu207 1.959 . S
O227 C214 1.251 . S
H228 C211 0.930 . S
H229 C222 0.929 . S
Cu230 N231 1.999 . S
Cu230 O236 1.974 . S
Cu230 N241 1.985 . S
Cu230 O250 1.959 . S
N231 Cu230 1.999 . S
N231 C233 1.263 . S
N231 C235 1.389 . S
N232 C233 1.358 . S
N232 C234 1.400 . S
C233 N231 1.263 . S
C233 N232 1.358 . S
C233 H239 0.930 . S
C234 N232 1.400 . S
C234 C235 1.351 . S
C234 H251 0.930 . S
C235 N231 1.389 . S
C235 C234 1.351 . S
C235 H240 0.930 . S
O236 Cu230 1.974 . S
O236 C246 1.282 . S
C237 O238 1.261 . S
C237 O250 1.251 . S
O238 C237 1.261 . S
H239 C233 0.930 . S
H240 C235 0.930 . S
N241 Cu230 1.985 . S
N241 C243 1.335 . S
N241 C244 1.390 . S
N242 C243 1.345 . S
N242 C245 1.336 . S
C243 N241 1.335 . S
C243 N242 1.345 . S
C243 H248 0.930 . S
C244 N241 1.390 . S
C244 C245 1.346 . S
C244 H249 0.930 . S
C245 N242 1.336 . S
C245 C244 1.346 . S
C245 H252 0.929 . S
C246 O236 1.282 . S
C246 O247 1.216 . S
O247 C246 1.216 . S
H248 C243 0.930 . S
H249 C244 0.930 . S
O250 Cu230 1.959 . S
O250 C237 1.251 . S
H251 C234 0.930 . S
H252 C245 0.929 . S
Cu253 N254 1.999 . S
Cu253 O259 1.974 . S
Cu253 N264 1.985 . S
Cu253 O273 1.959 . S
N254 Cu253 1.999 . S
N254 C256 1.263 . S
N254 C258 1.389 . S
N255 C256 1.358 . S
N255 C257 1.400 . S
C256 N254 1.263 . S
C256 N255 1.358 . S
C256 H262 0.930 . S
C257 N255 1.400 . S
C257 C258 1.351 . S
C257 H274 0.930 . S
C258 N254 1.389 . S
C258 C257 1.351 . S
C258 H263 0.930 . S
O259 Cu253 1.974 . S
O259 C269 1.282 . S
C260 O261 1.261 . S
C260 O273 1.251 . S
O261 C260 1.261 . S
H262 C256 0.930 . S
H263 C258 0.930 . S
N264 Cu253 1.985 . S
N264 C266 1.335 . S
N264 C267 1.390 . S
N265 C266 1.345 . S
N265 C268 1.336 . S
C266 N264 1.335 . S
C266 N265 1.345 . S
C266 H271 0.930 . S
C267 N264 1.390 . S
C267 C268 1.346 . S
C267 H272 0.930 . S
C268 N265 1.336 . S
C268 C267 1.346 . S
C268 H275 0.929 1_655 S
C269 O259 1.282 . S
C269 O270 1.216 . S
O270 C269 1.216 . S
H271 C266 0.930 . S
H272 C267 0.930 . S
O273 Cu253 1.959 . S
O273 C260 1.251 . S
H274 C257 0.930 . S
H275 C268 0.929 1_455 S
Cu276 N277 1.999 . S
Cu276 O282 1.974 . S
Cu276 N287 1.985 . S
Cu276 O296 1.959 . S
N277 Cu276 1.999 . S
N277 C279 1.263 . S
N277 C281 1.389 . S
N278 C279 1.358 . S
N278 C280 1.400 . S
C279 N277 1.263 . S
C279 N278 1.358 . S
C279 H285 0.930 . S
C280 N278 1.400 . S
C280 C281 1.351 . S
C280 H297 0.930 . S
C281 N277 1.389 . S
C281 C280 1.351 . S
C281 H286 0.930 . S
O282 Cu276 1.974 . S
O282 C292 1.282 . S
C283 O284 1.261 . S
C283 O296 1.251 . S
O284 C283 1.261 . S
H285 C279 0.930 . S
H286 C281 0.930 . S
N287 Cu276 1.985 . S
N287 C289 1.335 . S
N287 C290 1.390 . S
N288 C289 1.345 . S
N288 C291 1.336 . S
C289 N287 1.335 . S
C289 N288 1.345 . S
C289 H294 0.930 . S
C290 N287 1.390 . S
C290 C291 1.346 . S
C290 H295 0.930 . S
C291 N288 1.336 . S
C291 C290 1.346 . S
C291 H298 0.929 . S
C292 O282 1.282 . S
C292 O293 1.216 . S
O293 C292 1.216 . S
H294 C289 0.930 . S
H295 C290 0.930 . S
O296 Cu276 1.959 . S
O296 C283 1.251 . S
H297 C280 0.930 . S
H298 C291 0.929 . S
Cu299 N300 1.999 . S
Cu299 O305 1.974 . S
Cu299 N310 1.985 . S
Cu299 O319 1.959 . S
N300 Cu299 1.999 . S
N300 C302 1.263 . S
N300 C304 1.389 . S
N301 C302 1.358 . S
N301 C303 1.400 . S
C302 N300 1.263 . S
C302 N301 1.358 . S
C302 H308 0.930 . S
C303 N301 1.400 . S
C303 C304 1.351 . S
C303 H320 0.930 . S
C304 N300 1.389 . S
C304 C303 1.351 . S
C304 H309 0.930 . S
O305 Cu299 1.974 . S
O305 C315 1.282 . S
C306 O307 1.261 . S
C306 O319 1.251 . S
O307 C306 1.261 . S
H308 C302 0.930 . S
H309 C304 0.930 . S
N310 Cu299 1.985 . S
N310 C312 1.335 . S
N310 C313 1.390 . S
N311 C312 1.345 . S
N311 C314 1.336 . S
C312 N310 1.335 . S
C312 N311 1.345 . S
C312 H317 0.930 . S
C313 N310 1.390 . S
C313 C314 1.346 . S
C313 H318 0.930 . S
C314 N311 1.336 . S
C314 C313 1.346 . S
C314 H321 0.929 1_655 S
C315 O305 1.282 . S
C315 O316 1.216 . S
O316 C315 1.216 . S
H317 C312 0.930 . S
H318 C313 0.930 . S
O319 Cu299 1.959 . S
O319 C306 1.251 . S
H320 C303 0.930 . S
H321 C314 0.929 1_455 S
Cu322 N323 1.999 . S
Cu322 O328 1.974 . S
Cu322 N333 1.985 . S
Cu322 O342 1.959 . S
N323 Cu322 1.999 . S
N323 C325 1.263 . S
N323 C327 1.389 . S
N324 C325 1.358 . S
N324 C326 1.400 . S
C325 N323 1.263 . S
C325 N324 1.358 . S
C325 H331 0.930 . S
C326 N324 1.400 . S
C326 C327 1.351 . S
C326 H343 0.930 . S
C327 N323 1.389 . S
C327 C326 1.351 . S
C327 H332 0.930 . S
O328 Cu322 1.974 . S
O328 C338 1.282 . S
C329 O330 1.261 . S
C329 O342 1.251 . S
O330 C329 1.261 . S
H331 C325 0.930 . S
H332 C327 0.930 . S
N333 Cu322 1.985 . S
N333 C335 1.335 . S
N333 C336 1.390 . S
N334 C335 1.345 . S
N334 C337 1.336 . S
C335 N333 1.335 . S
C335 N334 1.345 . S
C335 H340 0.930 . S
C336 N333 1.390 . S
C336 C337 1.346 . S
C336 H341 0.930 . S
C337 N334 1.336 . S
C337 C336 1.346 . S
C337 H344 0.929 1_565 S
C338 O328 1.282 . S
C338 O339 1.216 . S
O339 C338 1.216 . S
H340 C335 0.930 . S
H341 C336 0.930 . S
O342 Cu322 1.959 . S
O342 C329 1.251 . S
H343 C326 0.930 . S
H344 C337 0.929 1_545 S
Cu345 N346 1.999 . S
Cu345 O351 1.974 . S
Cu345 N356 1.985 . S
Cu345 O365 1.959 . S
N346 Cu345 1.999 . S
N346 C348 1.263 . S
N346 C350 1.389 . S
N347 C348 1.358 . S
N347 C349 1.400 . S
C348 N346 1.263 . S
C348 N347 1.358 . S
C348 H354 0.930 . S
C349 N347 1.400 . S
C349 C350 1.351 . S
C349 H366 0.930 . S
C350 N346 1.389 . S
C350 C349 1.351 . S
C350 H355 0.930 . S
O351 Cu345 1.974 . S
O351 C361 1.282 . S
C352 O353 1.261 . S
C352 O365 1.251 . S
O353 C352 1.261 . S
H354 C348 0.930 . S
H355 C350 0.930 . S
N356 Cu345 1.985 . S
N356 C358 1.335 . S
N356 C359 1.390 . S
N357 C358 1.345 . S
N357 C360 1.336 . S
C358 N356 1.335 . S
C358 N357 1.345 . S
C358 H363 0.930 . S
C359 N356 1.390 . S
C359 C360 1.346 . S
C359 H364 0.930 . S
C360 N357 1.336 . S
C360 C359 1.346 . S
C360 H367 0.929 . S
C361 O351 1.282 . S
C361 O362 1.216 . S
O362 C361 1.216 . S
H363 C358 0.930 . S
H364 C359 0.930 . S
O365 Cu345 1.959 . S
O365 C352 1.251 . S
H366 C349 0.930 . S
H367 C360 0.929 . S
C368 C369 1.363 . S
C368 C374 1.379 1_556 S
C368 N376 1.356 . S
C369 C368 1.363 . S
C369 C375 1.363 . S
C370 C371 1.363 . S
C370 C375 1.379 1_554 S
C370 N377 1.356 . S
C371 C370 1.363 . S
C371 C374 1.363 . S
N372 C374 1.356 . S
N372 H384 0.984 . S
N372 H385 0.985 . S
N373 C375 1.356 . S
N373 H378 0.984 . S
N373 H379 0.985 . S
C374 C368 1.379 1_554 S
C374 C371 1.363 . S
C374 N372 1.356 . S
C375 C369 1.363 . S
C375 C370 1.379 1_556 S
C375 N373 1.356 . S
N376 C368 1.356 . S
N376 H382 0.984 . S
N376 H383 0.984 . S
N377 C370 1.356 . S
N377 H380 0.984 . S
N377 H381 0.985 . S
H378 N373 0.984 . S
H379 N373 0.985 . S
H380 N377 0.984 . S
H381 N377 0.985 . S
H382 N376 0.984 . S
H383 N376 0.984 . S
H384 N372 0.984 . S
H385 N372 0.985 . S
C386 C387 1.363 . S
C386 C392 1.379 . S
C386 N394 1.356 . S
C387 C386 1.363 . S
C387 C393 1.363 . S
C388 C389 1.363 . S
C388 C393 1.379 . S
C388 N395 1.356 . S
C389 C388 1.363 . S
C389 C392 1.363 . S
N390 C392 1.356 . S
N390 H402 0.984 . S
N390 H403 0.985 . S
N391 C393 1.356 . S
N391 H396 0.984 . S
N391 H397 0.985 . S
C392 C386 1.379 . S
C392 C389 1.363 . S
C392 N390 1.356 . S
C393 C387 1.363 . S
C393 C388 1.379 . S
C393 N391 1.356 . S
N394 C386 1.356 . S
N394 H400 0.984 . S
N394 H401 0.984 . S
N395 C388 1.356 . S
N395 H398 0.984 . S
N395 H399 0.985 . S
H396 N391 0.984 . S
H397 N391 0.985 . S
H398 N395 0.984 . S
H399 N395 0.985 . S
H400 N394 0.984 . S
H401 N394 0.984 . S
H402 N390 0.984 . S
H403 N390 0.985 . S
C404 C405 1.363 . S
C404 C410 1.379 1_556 S
C404 N412 1.356 . S
C405 C404 1.363 . S
C405 C411 1.363 . S
C406 C407 1.363 . S
C406 C411 1.379 1_554 S
C406 N413 1.356 . S
C407 C406 1.363 . S
C407 C410 1.363 . S
N408 C410 1.356 . S
N408 H420 0.984 . S
N408 H421 0.985 . S
N409 C411 1.356 . S
N409 H414 0.984 . S
N409 H415 0.985 . S
C410 C404 1.379 1_554 S
C410 C407 1.363 . S
C410 N408 1.356 . S
C411 C405 1.363 . S
C411 C406 1.379 1_556 S
C411 N409 1.356 . S
N412 C404 1.356 . S
N412 H418 0.984 . S
N412 H419 0.984 . S
N413 C406 1.356 . S
N413 H416 0.984 . S
N413 H417 0.985 . S
H414 N409 0.984 . S
H415 N409 0.985 . S
H416 N413 0.984 . S
H417 N413 0.985 . S
H418 N412 0.984 . S
H419 N412 0.984 . S
H420 N408 0.984 . S
H421 N408 0.985 . S
C422 C423 1.363 . S
C422 C428 1.379 . S
C422 N430 1.356 . S
C423 C422 1.363 . S
C423 C429 1.363 . S
C424 C425 1.363 . S
C424 C429 1.379 . S
C424 N431 1.356 . S
C425 C424 1.363 . S
C425 C428 1.363 . S
N426 C428 1.356 . S
N426 H438 0.984 . S
N426 H439 0.985 . S
N427 C429 1.356 . S
N427 H432 0.984 . S
N427 H433 0.985 . S
C428 C422 1.379 . S
C428 C425 1.363 . S
C428 N426 1.356 . S
C429 C423 1.363 . S
C429 C424 1.379 . S
C429 N427 1.356 . S
N430 C422 1.356 . S
N430 H436 0.984 . S
N430 H437 0.984 . S
N431 C424 1.356 . S
N431 H434 0.984 . S
N431 H435 0.985 . S
H432 N427 0.984 . S
H433 N427 0.985 . S
H434 N431 0.984 . S
H435 N431 0.985 . S
H436 N430 0.984 . S
H437 N430 0.984 . S
H438 N426 0.984 . S
H439 N426 0.985 . S
C440 C441 1.363 . S
C440 C446 1.379 1_554 S
C440 N448 1.356 . S
C441 C440 1.363 . S
C441 C447 1.363 . S
C442 C443 1.363 . S
C442 C447 1.379 1_556 S
C442 N449 1.356 . S
C443 C442 1.363 . S
C443 C446 1.363 . S
N444 C446 1.356 . S
N444 H456 0.984 . S
N444 H457 0.985 . S
N445 C447 1.356 . S
N445 H450 0.984 . S
N445 H451 0.985 . S
C446 C440 1.379 1_556 S
C446 C443 1.363 . S
C446 N444 1.356 . S
C447 C441 1.363 . S
C447 C442 1.379 1_554 S
C447 N445 1.356 . S
N448 C440 1.356 . S
N448 H454 0.984 . S
N448 H455 0.984 . S
N449 C442 1.356 . S
N449 H452 0.984 . S
N449 H453 0.985 . S
H450 N445 0.984 . S
H451 N445 0.985 . S
H452 N449 0.984 . S
H453 N449 0.985 . S
H454 N448 0.984 . S
H455 N448 0.984 . S
H456 N444 0.984 . S
H457 N444 0.985 . S
C458 C459 1.363 . S
C458 C464 1.379 . S
C458 N466 1.356 . S
C459 C458 1.363 . S
C459 C465 1.363 . S
C460 C461 1.363 . S
C460 C465 1.379 . S
C460 N467 1.356 . S
C461 C460 1.363 . S
C461 C464 1.363 . S
N462 C464 1.356 . S
N462 H474 0.984 . S
N462 H475 0.985 . S
N463 C465 1.356 . S
N463 H468 0.984 . S
N463 H469 0.985 . S
C464 C458 1.379 . S
C464 C461 1.363 . S
C464 N462 1.356 . S
C465 C459 1.363 . S
C465 C460 1.379 . S
C465 N463 1.356 . S
N466 C458 1.356 . S
N466 H472 0.984 . S
N466 H473 0.984 . S
N467 C460 1.356 . S
N467 H470 0.984 . S
N467 H471 0.985 . S
H468 N463 0.984 . S
H469 N463 0.985 . S
H470 N467 0.984 . S
H471 N467 0.985 . S
H472 N466 0.984 . S
H473 N466 0.984 . S
H474 N462 0.984 . S
H475 N462 0.985 . S
C476 C477 1.363 . S
C476 C482 1.379 1_556 S
C476 N484 1.356 . S
C477 C476 1.363 . S
C477 C483 1.363 . S
C478 C479 1.363 . S
C478 C483 1.379 1_554 S
C478 N485 1.356 . S
C479 C478 1.363 . S
C479 C482 1.363 . S
N480 C482 1.356 . S
N480 H492 0.984 . S
N480 H493 0.985 . S
N481 C483 1.356 . S
N481 H486 0.984 . S
N481 H487 0.985 . S
C482 C476 1.379 1_554 S
C482 C479 1.363 . S
C482 N480 1.356 . S
C483 C477 1.363 . S
C483 C478 1.379 1_556 S
C483 N481 1.356 . S
N484 C476 1.356 . S
N484 H490 0.984 . S
N484 H491 0.984 . S
N485 C478 1.356 . S
N485 H488 0.984 . S
N485 H489 0.985 . S
H486 N481 0.984 . S
H487 N481 0.985 . S
H488 N485 0.984 . S
H489 N485 0.985 . S
H490 N484 0.984 . S
H491 N484 0.984 . S
H492 N480 0.984 . S
H493 N480 0.985 . S
C494 C495 1.363 . S
C494 C500 1.379 . S
C494 N502 1.356 . S
C495 C494 1.363 . S
C495 C501 1.363 . S
C496 C497 1.363 . S
C496 C501 1.379 . S
C496 N503 1.356 . S
C497 C496 1.363 . S
C497 C500 1.363 . S
N498 C500 1.356 . S
N498 H510 0.984 . S
N498 H511 0.985 . S
N499 C501 1.356 . S
N499 H504 0.984 . S
N499 H505 0.985 . S
C500 C494 1.379 . S
C500 C497 1.363 . S
C500 N498 1.356 . S
C501 C495 1.363 . S
C501 C496 1.379 . S
C501 N499 1.356 . S
N502 C494 1.356 . S
N502 H508 0.984 . S
N502 H509 0.984 . S
N503 C496 1.356 . S
N503 H506 0.984 . S
N503 H507 0.985 . S
H504 N499 0.984 . S
H505 N499 0.985 . S
H506 N503 0.984 . S
H507 N503 0.985 . S
H508 N502 0.984 . S
H509 N502 0.984 . S
H510 N498 0.984 . S
H511 N498 0.985 . S
C512 C513 1.363 . S
C512 C518 1.379 . S
C512 N520 1.356 . S
C513 C512 1.363 . S
C513 C519 1.363 . S
C514 C515 1.363 . S
C514 C519 1.379 . S
C514 N521 1.356 . S
C515 C514 1.363 . S
C515 C518 1.363 . S
N516 C518 1.356 . S
N516 H528 0.984 . S
N516 H529 0.985 . S
N517 C519 1.356 . S
N517 H522 0.984 . S
N517 H523 0.985 . S
C518 C512 1.379 . S
C518 C515 1.363 . S
C518 N516 1.356 . S
C519 C513 1.363 . S
C519 C514 1.379 . S
C519 N517 1.356 . S
N520 C512 1.356 . S
N520 H526 0.984 . S
N520 H527 0.984 . S
N521 C514 1.356 . S
N521 H524 0.984 . S
N521 H525 0.985 . S
H522 N517 0.984 . S
H523 N517 0.985 . S
H524 N521 0.984 . S
H525 N521 0.985 . S
H526 N520 0.984 . S
H527 N520 0.984 . S
H528 N516 0.984 . S
H529 N516 0.985 . S
C530 C531 1.363 . S
C530 C536 1.379 . S
C530 N538 1.356 . S
C531 C530 1.363 . S
C531 C537 1.363 . S
C532 C533 1.363 . S
C532 C537 1.379 . S
C532 N539 1.356 . S
C533 C532 1.363 . S
C533 C536 1.363 . S
N534 C536 1.356 . S
N534 H546 0.984 . S
N534 H547 0.985 . S
N535 C537 1.356 . S
N535 H540 0.984 . S
N535 H541 0.985 . S
C536 C530 1.379 . S
C536 C533 1.363 . S
C536 N534 1.356 . S
C537 C531 1.363 . S
C537 C532 1.379 . S
C537 N535 1.356 . S
N538 C530 1.356 . S
N538 H544 0.984 . S
N538 H545 0.984 . S
N539 C532 1.356 . S
N539 H542 0.984 . S
N539 H543 0.985 . S
H540 N535 0.984 . S
H541 N535 0.985 . S
H542 N539 0.984 . S
H543 N539 0.985 . S
H544 N538 0.984 . S
H545 N538 0.984 . S
H546 N534 0.984 . S
H547 N534 0.985 . S
C548 C549 1.363 . S
C548 C554 1.379 . S
C548 N556 1.356 . S
C549 C548 1.363 . S
C549 C555 1.363 . S
C550 C551 1.363 . S
C550 C555 1.379 . S
C550 N557 1.356 . S
C551 C550 1.363 . S
C551 C554 1.363 . S
N552 C554 1.356 . S
N552 H564 0.984 . S
N552 H565 0.985 . S
N553 C555 1.356 . S
N553 H558 0.984 . S
N553 H559 0.985 . S
C554 C548 1.379 . S
C554 C551 1.363 . S
C554 N552 1.356 . S
C555 C549 1.363 . S
C555 C550 1.379 . S
C555 N553 1.356 . S
N556 C548 1.356 . S
N556 H562 0.984 . S
N556 H563 0.984 . S
N557 C550 1.356 . S
N557 H560 0.984 . S
N557 H561 0.985 . S
H558 N553 0.984 . S
H559 N553 0.985 . S
H560 N557 0.984 . S
H561 N557 0.985 . S
H562 N556 0.984 . S
H563 N556 0.984 . S
H564 N552 0.984 . S
H565 N552 0.985 . S
C566 C567 1.363 . S
C566 C572 1.379 . S
C566 N574 1.356 . S
C567 C566 1.363 . S
C567 C573 1.363 . S
C568 C569 1.363 . S
C568 C573 1.379 . S
C568 N575 1.356 . S
C569 C568 1.363 . S
C569 C572 1.363 . S
N570 C572 1.356 . S
N570 H582 0.984 . S
N570 H583 0.985 . S
N571 C573 1.356 . S
N571 H576 0.984 . S
N571 H577 0.985 . S
C572 C566 1.379 . S
C572 C569 1.363 . S
C572 N570 1.356 . S
C573 C567 1.363 . S
C573 C568 1.379 . S
C573 N571 1.356 . S
N574 C566 1.356 . S
N574 H580 0.984 . S
N574 H581 0.984 . S
N575 C568 1.356 . S
N575 H578 0.984 . S
N575 H579 0.985 . S
H576 N571 0.984 . S
H577 N571 0.985 . S
H578 N575 0.984 . S
H579 N575 0.985 . S
H580 N574 0.984 . S
H581 N574 0.984 . S
H582 N570 0.984 . S
H583 N570 0.985 . S
C584 C585 1.363 . S
C584 C590 1.379 . S
C584 N592 1.356 . S
C585 C584 1.363 . S
C585 C591 1.363 . S
C586 C587 1.363 . S
C586 C591 1.379 . S
C586 N593 1.356 . S
C587 C586 1.363 . S
C587 C590 1.363 . S
N588 C590 1.356 . S
N588 H600 0.984 . S
N588 H601 0.985 . S
N589 C591 1.356 . S
N589 H594 0.984 . S
N589 H595 0.985 . S
C590 C584 1.379 . S
C590 C587 1.363 . S
C590 N588 1.356 . S
C591 C585 1.363 . S
C591 C586 1.379 . S
C591 N589 1.356 . S
N592 C584 1.356 . S
N592 H598 0.984 . S
N592 H599 0.984 . S
N593 C586 1.356 . S
N593 H596 0.984 . S
N593 H597 0.985 . S
H594 N589 0.984 . S
H595 N589 0.985 . S
H596 N593 0.984 . S
H597 N593 0.985 . S
H598 N592 0.984 . S
H599 N592 0.984 . S
H600 N588 0.984 . S
H601 N588 0.985 . S
C602 C603 1.363 . S
C602 C608 1.379 . S
C602 N610 1.356 . S
C603 C602 1.363 . S
C603 C609 1.363 . S
C604 C605 1.363 . S
C604 C609 1.379 . S
C604 N611 1.356 . S
C605 C604 1.363 . S
C605 C608 1.363 . S
N606 C608 1.356 . S
N606 H618 0.984 . S
N606 H619 0.985 . S
N607 C609 1.356 . S
N607 H612 0.984 . S
N607 H613 0.985 . S
C608 C602 1.379 . S
C608 C605 1.363 . S
C608 N606 1.356 . S
C609 C603 1.363 . S
C609 C604 1.379 . S
C609 N607 1.356 . S
N610 C602 1.356 . S
N610 H616 0.984 . S
N610 H617 0.984 . S
N611 C604 1.356 . S
N611 H614 0.984 . S
N611 H615 0.985 . S
H612 N607 0.984 . S
H613 N607 0.985 . S
H614 N611 0.984 . S
H615 N611 0.985 . S
H616 N610 0.984 . S
H617 N610 0.984 . S
H618 N606 0.984 . S
H619 N606 0.985 . S
C620 C621 1.363 . S
C620 C626 1.379 . S
C620 N628 1.356 . S
C621 C620 1.363 . S
C621 C627 1.363 . S
C622 C623 1.363 . S
C622 C627 1.379 . S
C622 N629 1.356 . S
C623 C622 1.363 . S
C623 C626 1.363 . S
N624 C626 1.356 . S
N624 H636 0.984 . S
N624 H637 0.985 . S
N625 C627 1.356 . S
N625 H630 0.984 . S
N625 H631 0.985 . S
C626 C620 1.379 . S
C626 C623 1.363 . S
C626 N624 1.356 . S
C627 C621 1.363 . S
C627 C622 1.379 . S
C627 N625 1.356 . S
N628 C620 1.356 . S
N628 H634 0.984 . S
N628 H635 0.984 . S
N629 C622 1.356 . S
N629 H632 0.984 . S
N629 H633 0.985 . S
H630 N625 0.984 . S
H631 N625 0.985 . S
H632 N629 0.984 . S
H633 N629 0.985 . S
H634 N628 0.984 . S
H635 N628 0.984 . S
H636 N624 0.984 . S
H637 N624 0.985 . S
C638 C639 1.363 . S
C638 C644 1.379 . S
C638 N646 1.356 . S
C639 C638 1.363 . S
C639 C645 1.363 . S
C640 C641 1.363 . S
C640 C645 1.379 . S
C640 N647 1.356 . S
C641 C640 1.363 . S
C641 C644 1.363 . S
N642 C644 1.356 . S
N642 H654 0.984 . S
N642 H655 0.985 . S
N643 C645 1.356 . S
N643 H648 0.984 . S
N643 H649 0.985 . S
C644 C638 1.379 . S
C644 C641 1.363 . S
C644 N642 1.356 . S
C645 C639 1.363 . S
C645 C640 1.379 . S
C645 N643 1.356 . S
N646 C638 1.356 . S
N646 H652 0.984 . S
N646 H653 0.984 . S
N647 C640 1.356 . S
N647 H650 0.984 . S
N647 H651 0.985 . S
H648 N643 0.984 . S
H649 N643 0.985 . S
H650 N647 0.984 . S
H651 N647 0.985 . S
H652 N646 0.984 . S
H653 N646 0.984 . S
H654 N642 0.984 . S
H655 N642 0.985 . S
C656 C657 1.363 . S
C656 C662 1.379 . S
C656 N664 1.356 . S
C657 C656 1.363 . S
C657 C663 1.363 . S
C658 C659 1.363 . S
C658 C663 1.379 . S
C658 N665 1.356 . S
C659 C658 1.363 . S
C659 C662 1.363 . S
N660 C662 1.356 . S
N660 H672 0.984 . S
N660 H673 0.985 . S
N661 C663 1.356 . S
N661 H666 0.984 . S
N661 H667 0.985 . S
C662 C656 1.379 . S
C662 C659 1.363 . S
C662 N660 1.356 . S
C663 C657 1.363 . S
C663 C658 1.379 . S
C663 N661 1.356 . S
N664 C656 1.356 . S
N664 H670 0.984 . S
N664 H671 0.984 . S
N665 C658 1.356 . S
N665 H668 0.984 . S
N665 H669 0.985 . S
H666 N661 0.984 . S
H667 N661 0.985 . S
H668 N665 0.984 . S
H669 N665 0.985 . S
H670 N664 0.984 . S
H671 N664 0.984 . S
H672 N660 0.984 . S
H673 N660 0.985 . S
C674 C675 1.363 . S
C674 C680 1.379 . S
C674 N682 1.356 . S
C675 C674 1.363 . S
C675 C681 1.363 . S
C676 C677 1.363 . S
C676 C681 1.379 . S
C676 N683 1.356 . S
C677 C676 1.363 . S
C677 C680 1.363 . S
N678 C680 1.356 . S
N678 H690 0.984 . S
N678 H691 0.985 . S
N679 C681 1.356 . S
N679 H684 0.984 . S
N679 H685 0.985 . S
C680 C674 1.379 . S
C680 C677 1.363 . S
C680 N678 1.356 . S
C681 C675 1.363 . S
C681 C676 1.379 . S
C681 N679 1.356 . S
N682 C674 1.356 . S
N682 H688 0.984 . S
N682 H689 0.984 . S
N683 C676 1.356 . S
N683 H686 0.984 . S
N683 H687 0.985 . S
H684 N679 0.984 . S
H685 N679 0.985 . S
H686 N683 0.984 . S
H687 N683 0.985 . S
H688 N682 0.984 . S
H689 N682 0.984 . S
H690 N678 0.984 . S
H691 N678 0.985 . S
C692 C693 1.363 . S
C692 C698 1.379 . S
C692 N700 1.356 . S
C693 C692 1.363 . S
C693 C699 1.363 . S
C694 C695 1.363 . S
C694 C699 1.379 . S
C694 N701 1.356 . S
C695 C694 1.363 . S
C695 C698 1.363 . S
N696 C698 1.356 . S
N696 H708 0.984 . S
N696 H709 0.985 . S
N697 C699 1.356 . S
N697 H702 0.984 . S
N697 H703 0.985 . S
C698 C692 1.379 . S
C698 C695 1.363 . S
C698 N696 1.356 . S
C699 C693 1.363 . S
C699 C694 1.379 . S
C699 N697 1.356 . S
N700 C692 1.356 . S
N700 H706 0.984 . S
N700 H707 0.984 . S
N701 C694 1.356 . S
N701 H704 0.984 . S
N701 H705 0.985 . S
H702 N697 0.984 . S
H703 N697 0.985 . S
H704 N701 0.984 . S
H705 N701 0.985 . S
H706 N700 0.984 . S
H707 N700 0.984 . S
H708 N696 0.984 . S
H709 N696 0.985 . S
C710 C711 1.363 . S
C710 C716 1.379 . S
C710 N718 1.356 . S
C711 C710 1.363 . S
C711 C717 1.363 . S
C712 C713 1.363 . S
C712 C717 1.379 . S
C712 N719 1.356 . S
C713 C712 1.363 . S
C713 C716 1.363 . S
N714 C716 1.356 . S
N714 H726 0.984 . S
N714 H727 0.985 . S
N715 C717 1.356 . S
N715 H720 0.984 . S
N715 H721 0.985 . S
C716 C710 1.379 . S
C716 C713 1.363 . S
C716 N714 1.356 . S
C717 C711 1.363 . S
C717 C712 1.379 . S
C717 N715 1.356 . S
N718 C710 1.356 . S
N718 H724 0.984 . S
N718 H725 0.984 . S
N719 C712 1.356 . S
N719 H722 0.984 . S
N719 H723 0.985 . S
H720 N715 0.984 . S
H721 N715 0.985 . S
H722 N719 0.984 . S
H723 N719 0.985 . S
H724 N718 0.984 . S
H725 N718 0.984 . S
H726 N714 0.984 . S
H727 N714 0.985 . S
C728 C729 1.363 . S
C728 C734 1.379 . S
C728 N736 1.356 . S
C729 C728 1.363 . S
C729 C735 1.363 . S
C730 C731 1.363 . S
C730 C735 1.379 . S
C730 N737 1.356 . S
C731 C730 1.363 . S
C731 C734 1.363 . S
N732 C734 1.356 . S
N732 H744 0.984 . S
N732 H745 0.985 . S
N733 C735 1.356 . S
N733 H738 0.984 . S
N733 H739 0.985 . S
C734 C728 1.379 . S
C734 C731 1.363 . S
C734 N732 1.356 . S
C735 C729 1.363 . S
C735 C730 1.379 . S
C735 N733 1.356 . S
N736 C728 1.356 . S
N736 H742 0.984 . S
N736 H743 0.984 . S
N737 C730 1.356 . S
N737 H740 0.984 . S
N737 H741 0.985 . S
H738 N733 0.984 . S
H739 N733 0.985 . S
H740 N737 0.984 . S
H741 N737 0.985 . S
H742 N736 0.984 . S
H743 N736 0.984 . S
H744 N732 0.984 . S
H745 N732 0.985 . S
C746 C747 1.363 . S
C746 C752 1.379 . S
C746 N754 1.356 . S
C747 C746 1.363 . S
C747 C753 1.363 . S
C748 C749 1.363 . S
C748 C753 1.379 . S
C748 N755 1.356 . S
C749 C748 1.363 . S
C749 C752 1.363 . S
N750 C752 1.356 . S
N750 H762 0.984 . S
N750 H763 0.985 . S
N751 C753 1.356 . S
N751 H756 0.984 . S
N751 H757 0.985 . S
C752 C746 1.379 . S
C752 C749 1.363 . S
C752 N750 1.356 . S
C753 C747 1.363 . S
C753 C748 1.379 . S
C753 N751 1.356 . S
N754 C746 1.356 . S
N754 H760 0.984 . S
N754 H761 0.984 . S
N755 C748 1.356 . S
N755 H758 0.984 . S
N755 H759 0.985 . S
H756 N751 0.984 . S
H757 N751 0.985 . S
H758 N755 0.984 . S
H759 N755 0.985 . S
H760 N754 0.984 . S
H761 N754 0.984 . S
H762 N750 0.984 . S
H763 N750 0.985 . S
C764 C765 1.363 . S
C764 C770 1.379 . S
C764 N772 1.356 . S
C765 C764 1.363 . S
C765 C771 1.363 . S
C766 C767 1.363 . S
C766 C771 1.379 . S
C766 N773 1.356 . S
C767 C766 1.363 . S
C767 C770 1.363 . S
N768 C770 1.356 . S
N768 H780 0.984 . S
N768 H781 0.985 . S
N769 C771 1.356 . S
N769 H774 0.984 . S
N769 H775 0.985 . S
C770 C764 1.379 . S
C770 C767 1.363 . S
C770 N768 1.356 . S
C771 C765 1.363 . S
C771 C766 1.379 . S
C771 N769 1.356 . S
N772 C764 1.356 . S
N772 H778 0.984 . S
N772 H779 0.984 . S
N773 C766 1.356 . S
N773 H776 0.984 . S
N773 H777 0.985 . S
H774 N769 0.984 . S
H775 N769 0.985 . S
H776 N773 0.984 . S
H777 N773 0.985 . S
H778 N772 0.984 . S
H779 N772 0.984 . S
H780 N768 0.984 . S
H781 N768 0.985 . S
C782 C783 1.363 . S
C782 C788 1.379 . S
C782 N790 1.356 . S
C783 C782 1.363 . S
C783 C789 1.363 . S
C784 C785 1.363 . S
C784 C789 1.379 . S
C784 N791 1.356 . S
C785 C784 1.363 . S
C785 C788 1.363 . S
N786 C788 1.356 . S
N786 H798 0.984 . S
N786 H799 0.985 . S
N787 C789 1.356 . S
N787 H792 0.984 . S
N787 H793 0.985 . S
C788 C782 1.379 . S
C788 C785 1.363 . S
C788 N786 1.356 . S
C789 C783 1.363 . S
C789 C784 1.379 . S
C789 N787 1.356 . S
N790 C782 1.356 . S
N790 H796 0.984 . S
N790 H797 0.984 . S
N791 C784 1.356 . S
N791 H794 0.984 . S
N791 H795 0.985 . S
H792 N787 0.984 . S
H793 N787 0.985 . S
H794 N791 0.984 . S
H795 N791 0.985 . S
H796 N790 0.984 . S
H797 N790 0.984 . S
H798 N786 0.984 . S
H799 N786 0.985 . S
C800 C801 1.363 . S
C800 C806 1.379 . S
C800 N808 1.356 . S
C801 C800 1.363 . S
C801 C807 1.363 . S
C802 C803 1.363 . S
C802 C807 1.379 . S
C802 N809 1.356 . S
C803 C802 1.363 . S
C803 C806 1.363 . S
N804 C806 1.356 . S
N804 H816 0.984 . S
N804 H817 0.985 . S
N805 C807 1.356 1_545 S
N805 H810 0.984 . S
N805 H811 0.985 . S
C806 C800 1.379 . S
C806 C803 1.363 . S
C806 N804 1.356 . S
C807 C801 1.363 . S
C807 C802 1.379 . S
C807 N805 1.356 1_565 S
N808 C800 1.356 . S
N808 H814 0.984 . S
N808 H815 0.984 . S
N809 C802 1.356 . S
N809 H812 0.984 . S
N809 H813 0.985 . S
H810 N805 0.984 . S
H811 N805 0.985 . S
H812 N809 0.984 . S
H813 N809 0.985 . S
H814 N808 0.984 . S
H815 N808 0.984 . S
H816 N804 0.984 . S
H817 N804 0.985 . S
C818 C819 1.363 . S
C818 C824 1.379 . S
C818 N826 1.356 . S
C819 C818 1.363 . S
C819 C825 1.363 . S
C820 C821 1.363 . S
C820 C825 1.379 . S
C820 N827 1.356 . S
C821 C820 1.363 . S
C821 C824 1.363 . S
N822 C824 1.356 . S
N822 H834 0.984 . S
N822 H835 0.985 . S
N823 C825 1.356 . S
N823 H828 0.984 . S
N823 H829 0.985 . S
C824 C818 1.379 . S
C824 C821 1.363 . S
C824 N822 1.356 . S
C825 C819 1.363 . S
C825 C820 1.379 . S
C825 N823 1.356 . S
N826 C818 1.356 . S
N826 H832 0.984 . S
N826 H833 0.984 . S
N827 C820 1.356 . S
N827 H830 0.984 . S
N827 H831 0.985 . S
H828 N823 0.984 . S
H829 N823 0.985 . S
H830 N827 0.984 . S
H831 N827 0.985 . S
H832 N826 0.984 . S
H833 N826 0.984 . S
H834 N822 0.984 . S
H835 N822 0.985 . S
C836 C837 1.363 . S
C836 C842 1.379 . S
C836 N844 1.356 . S
C837 C836 1.363 . S
C837 C843 1.363 . S
C838 C839 1.363 . S
C838 C843 1.379 . S
C838 N845 1.356 . S
C839 C838 1.363 . S
C839 C842 1.363 . S
N840 C842 1.356 1_655 S
N840 H852 0.984 . S
N840 H853 0.985 . S
N841 C843 1.356 . S
N841 H846 0.984 . S
N841 H847 0.985 . S
C842 C836 1.379 . S
C842 C839 1.363 . S
C842 N840 1.356 1_455 S
C843 C837 1.363 . S
C843 C838 1.379 . S
C843 N841 1.356 . S
N844 C836 1.356 . S
N844 H850 0.984 . S
N844 H851 0.984 . S
N845 C838 1.356 . S
N845 H848 0.984 . S
N845 H849 0.985 . S
H846 N841 0.984 . S
H847 N841 0.985 . S
H848 N845 0.984 . S
H849 N845 0.985 . S
H850 N844 0.984 . S
H851 N844 0.984 . S
H852 N840 0.984 . S
H853 N840 0.985 . S
C854 C855 1.363 . S
C854 C860 1.379 . S
C854 N862 1.356 . S
C855 C854 1.363 . S
C855 C861 1.363 . S
C856 C857 1.363 . S
C856 C861 1.379 . S
C856 N863 1.356 1_655 S
C857 C856 1.363 . S
C857 C860 1.363 . S
N858 C860 1.356 . S
N858 H870 0.984 . S
N858 H871 0.985 . S
N859 C861 1.356 1_565 S
N859 H864 0.984 . S
N859 H865 0.985 . S
C860 C854 1.379 . S
C860 C857 1.363 . S
C860 N858 1.356 . S
C861 C855 1.363 . S
C861 C856 1.379 . S
C861 N859 1.356 1_545 S
N862 C854 1.356 . S
N862 H868 0.984 . S
N862 H869 0.984 . S
N863 C856 1.356 1_455 S
N863 H866 0.984 . S
N863 H867 0.985 . S
H864 N859 0.984 . S
H865 N859 0.985 . S
H866 N863 0.984 . S
H867 N863 0.985 . S
H868 N862 0.984 . S
H869 N862 0.984 . S
H870 N858 0.984 . S
H871 N858 0.985 . S
C872 C873 1.363 . S
C872 C878 1.379 . S
C872 N880 1.356 . S
C873 C872 1.363 . S
C873 C879 1.363 . S
C874 C875 1.363 . S
C874 C879 1.379 . S
C874 N881 1.356 . S
C875 C874 1.363 . S
C875 C878 1.363 . S
N876 C878 1.356 . S
N876 H888 0.984 . S
N876 H889 0.985 . S
N877 C879 1.356 . S
N877 H882 0.984 . S
N877 H883 0.985 . S
C878 C872 1.379 . S
C878 C875 1.363 . S
C878 N876 1.356 . S
C879 C873 1.363 . S
C879 C874 1.379 . S
C879 N877 1.356 . S
N880 C872 1.356 . S
N880 H886 0.984 . S
N880 H887 0.984 . S
N881 C874 1.356 . S
N881 H884 0.984 . S
N881 H885 0.985 . S
H882 N877 0.984 . S
H883 N877 0.985 . S
H884 N881 0.984 . S
H885 N881 0.985 . S
H886 N880 0.984 . S
H887 N880 0.984 . S
H888 N876 0.984 . S
H889 N876 0.985 . S
C890 C891 1.363 . S
C890 C896 1.379 . S
C890 N898 1.356 . S
C891 C890 1.363 . S
C891 C897 1.363 . S
C892 C893 1.363 . S
C892 C897 1.379 . S
C892 N899 1.356 . S
C893 C892 1.363 . S
C893 C896 1.363 . S
N894 C896 1.356 . S
N894 H906 0.984 . S
N894 H907 0.985 . S
N895 C897 1.356 1_455 S
N895 H900 0.984 . S
N895 H901 0.985 . S
C896 C890 1.379 . S
C896 C893 1.363 . S
C896 N894 1.356 . S
C897 C891 1.363 . S
C897 C892 1.379 . S
C897 N895 1.356 1_655 S
N898 C890 1.356 . S
N898 H904 0.984 . S
N898 H905 0.984 . S
N899 C892 1.356 . S
N899 H902 0.984 . S
N899 H903 0.985 . S
H900 N895 0.984 . S
H901 N895 0.985 . S
H902 N899 0.984 . S
H903 N899 0.985 . S
H904 N898 0.984 . S
H905 N898 0.984 . S
H906 N894 0.984 . S
H907 N894 0.985 . S
C908 C909 1.363 . S
C908 C914 1.379 . S
C908 N916 1.356 . S
C909 C908 1.363 . S
C909 C915 1.363 . S
C910 C911 1.363 . S
C910 C915 1.379 . S
C910 N917 1.356 1_565 S
C911 C910 1.363 . S
C911 C914 1.363 . S
N912 C914 1.356 . S
N912 H924 0.984 . S
N912 H925 0.985 . S
N913 C915 1.356 1_655 S
N913 H918 0.984 . S
N913 H919 0.985 . S
C914 C908 1.379 . S
C914 C911 1.363 . S
C914 N912 1.356 . S
C915 C909 1.363 . S
C915 C910 1.379 . S
C915 N913 1.356 1_455 S
N916 C908 1.356 . S
N916 H922 0.984 . S
N916 H923 0.984 . S
N917 C910 1.356 1_545 S
N917 H920 0.984 . S
N917 H921 0.985 . S
H918 N913 0.984 . S
H919 N913 0.985 . S
H920 N917 0.984 . S
H921 N917 0.985 . S
H922 N916 0.984 . S
H923 N916 0.984 . S
H924 N912 0.984 . S
H925 N912 0.985 . S
C926 C927 1.363 . S
C926 C932 1.379 . S
C926 N934 1.356 1_545 S
C927 C926 1.363 . S
C927 C933 1.363 . S
C928 C929 1.363 . S
C928 C933 1.379 . S
C928 N935 1.356 . S
C929 C928 1.363 . S
C929 C932 1.363 . S
N930 C932 1.356 . S
N930 H942 0.984 . S
N930 H943 0.985 . S
N931 C933 1.356 . S
N931 H936 0.984 . S
N931 H937 0.985 . S
C932 C926 1.379 . S
C932 C929 1.363 . S
C932 N930 1.356 . S
C933 C927 1.363 . S
C933 C928 1.379 . S
C933 N931 1.356 . S
N934 C926 1.356 1_565 S
N934 H940 0.984 . S
N934 H941 0.984 . S
N935 C928 1.356 . S
N935 H938 0.984 . S
N935 H939 0.985 . S
H936 N931 0.984 . S
H937 N931 0.985 . S
H938 N935 0.984 . S
H939 N935 0.985 . S
H940 N934 0.984 . S
H941 N934 0.984 . S
H942 N930 0.984 . S
H943 N930 0.985 . S
C369 C168 1.645 . S
C371 C7 1.645 . S
C387 C99 1.645 . S
C389 C30 1.645 . S
C405 C122 1.645 . S
C407 C53 1.645 . S
C423 C76 1.645 . S
C425 C145 1.645 . S
C441 C352 1.645 . S
C443 C191 1.645 . S
C459 C283 1.645 . S
C461 C214 1.645 . S
C477 C237 1.645 . S
C479 C306 1.645 . S
C495 C260 1.645 . S
C497 C329 1.645 . S
C513 N48 1.328 . S
C515 N2 1.328 . S
C531 N25 1.328 . S
C533 N71 1.328 . S
C549 N94 1.328 . S
C551 N140 1.328 . S
C567 N163 1.328 . S
C569 N117 1.328 . S
C585 N186 1.328 . S
C587 N232 1.328 . S
C603 N209 1.328 . S
C605 N255 1.328 . S
C621 N324 1.328 . S
C623 N278 1.328 . S
C639 N301 1.328 . S
C641 N347 1.328 . S
C657 C154 1.615 . S
C659 C16 1.615 . S
C675 C39 1.615 . S
C677 C177 1.615 . S
C693 C62 1.615 . S
C695 C108 1.615 . S
C711 C85 1.615 . S
C713 C131 1.615 . S
C729 C200 1.615 . S
C731 C338 1.615 . S
C747 C223 1.615 . S
C749 C361 1.615 . S
C765 C246 1.615 . S
C767 C292 1.615 . S
C783 C269 1.615 . S
C785 C315 1.615 . S
C801 N12 1.469 1_565 S
C803 N357 1.469 . S
C819 N288 1.469 . S
C821 N35 1.469 . S
C837 N58 1.469 . S
C839 N311 1.469 1_455 S
C855 N334 1.469 1_545 S
C857 N81 1.469 1_655 S
C873 N219 1.469 . S
C875 N104 1.469 . S
C891 N127 1.469 1_655 S
C893 N242 1.469 . S
C909 N265 1.469 1_455 S
C911 N150 1.469 1_565 S
C927 N196 1.469 1_545 S
C929 N173 1.469 . S
