# Generated by pormake.
# Topology rob, (6)-cn, num edge types: 1
# Building blocks:
#     Node 0, Type 0, BuildingBlock: JUFBIX_clean_sbu_0, # of connection points: 6
#     Node 1, Type 0, BuildingBlock: JUFBIX_clean_sbu_0, # of connection points: 6
#     Node 2, Type 0, BuildingBlock: JUFBIX_clean_sbu_0, # of connection points: 6
#     Node 3, Type 0, BuildingBlock: JUFBIX_clean_sbu_0, # of connection points: 6
#     Edge 4, Type (0, 0), BuildingBlock: KIFKEQ_clean_linker_1, # of connection points: 2
#     Edge 5, Type (0, 0), BuildingBlock: KIFKEQ_clean_linker_1, # of connection points: 2
#     Edge 6, Type (0, 0), BuildingBlock: KIFKEQ_clean_linker_1, # of connection points: 2
#     Edge 7, Type (0, 0), BuildingBlock: KIFKEQ_clean_linker_1, # of connection points: 2
#     Edge 8, Type (0, 0), BuildingBlock: KIFKEQ_clean_linker_1, # of connection points: 2
#     Edge 9, Type (0, 0), BuildingBlock: KIFKEQ_clean_linker_1, # of connection points: 2
#     Edge 10, Type (0, 0), BuildingBlock: KIFKEQ_clean_linker_1, # of connection points: 2
#     Edge 11, Type (0, 0), BuildingBlock: KIFKEQ_clean_linker_1, # of connection points: 2
#     Edge 12, Type (0, 0), BuildingBlock: KIFKEQ_clean_linker_1, # of connection points: 2
#     Edge 13, Type (0, 0), BuildingBlock: KIFKEQ_clean_linker_1, # of connection points: 2
#     Edge 14, Type (0, 0), BuildingBlock: KIFKEQ_clean_linker_1, # of connection points: 2
#     Edge 15, Type (0, 0), BuildingBlock: KIFKEQ_clean_linker_1, # of connection points: 2
# Relax obj value: 0.349
# Max RMSD: 0.258
# Mean RMSD: 0.258
data_MOF--net-rob--node1-JUFBIX_clean_sbu_0--edge1-KIFKEQ_clean_linker_1
_symmetry_space_group_name_H-M    P1
_symmetry_Int_Tables_number       1
_symmetry_cell_setting            triclinic
loop_
_symmetry_equiv_pos_as_xyz
'x, y, z'
_cell_length_a     17.466472
_cell_length_b     24.841968
_cell_length_c     28.65526
_cell_angle_alpha  94.984341
_cell_angle_beta   89.913975
_cell_angle_gamma 89.986933
loop_
_atom_site_label
_atom_site_type_symbol
_atom_site_fract_x
_atom_site_fract_y
_atom_site_fract_z
_atom_type_partial_charge
Co0 Co 0.20303 0.27028 0.98195 0.0
C1 C 0.17587 0.16338 0.00098 0.0
Co2 Co 0.29963 0.23099 0.01594 0.0
C3 C 0.11331 0.31361 0.90878 0.0
C4 C 0.04763 0.30459 0.97062 0.0
N5 N 0.11935 0.29994 0.95325 0.0
N6 N 0.04051 0.3256 0.89741 0.0
C7 C 0.99929 0.32039 0.93658 0.0
H8 H 0.16099 0.31253 0.88461 0.0
H9 H 0.03043 0.2939 0.00489 0.0
C10 C 0.32677 0.33785 0.99697 0.0
N11 N 0.38346 0.20148 0.04473 0.0
C12 C 0.3901 0.18937 0.08962 0.0
C13 C 0.45503 0.19647 0.02718 0.0
N14 N 0.46315 0.17819 0.10111 0.0
C15 C 0.50387 0.18212 0.06154 0.0
C16 C 0.3049 0.21767 0.91892 0.0
O17 O 0.25931 0.33589 0.98011 0.0
O18 O 0.35427 0.29645 0.01404 0.0
O19 O 0.3394 0.20637 0.9558 0.0
O20 O 0.24345 0.24498 0.92256 0.0
O21 O 0.24333 0.1654 0.01786 0.0
H22 H 0.47188 0.20622 0.99258 0.0
H23 H 0.34272 0.19123 0.11402 0.0
O24 O 0.14836 0.20472 0.9838 0.0
O25 O 0.16324 0.29491 0.04201 0.0
O26 O 0.25919 0.25644 0.07532 0.0
C27 C 0.19781 0.28382 0.07891 0.0
H28 H 0.9377 0.32392 0.93961 0.0
H29 H 0.56548 0.17893 0.05837 0.0
Co30 Co 0.70558 0.77278 0.98307 0.0
C31 C 0.66667 0.66712 0.99769 0.0
Co32 Co 0.79704 0.7284 0.01695 0.0
C33 C 0.62276 0.81882 0.90804 0.0
C34 C 0.55677 0.81877 0.97087 0.0
N35 N 0.62734 0.80781 0.95333 0.0
N36 N 0.55185 0.83505 0.89639 0.0
C37 C 0.51061 0.83554 0.93623 0.0
H38 H 0.66963 0.8125 0.88352 0.0
H39 H 0.53802 0.81138 0.00571 0.0
C40 C 0.83564 0.8342 0.00216 0.0
N41 N 0.8723 0.69247 0.04748 0.0
C42 C 0.90826 0.71059 0.08742 0.0
C43 C 0.89679 0.64115 0.03828 0.0
N44 N 0.95337 0.67251 0.10399 0.0
C45 C 0.94645 0.62867 0.07312 0.0
C46 C 0.8084 0.71788 0.92072 0.0
O47 O 0.76902 0.83512 0.9842 0.0
O48 O 0.85907 0.79136 0.01891 0.0
O49 O 0.84042 0.70463 0.95786 0.0
O50 O 0.74813 0.74669 0.92405 0.0
O51 O 0.73398 0.66568 0.01435 0.0
H52 H 0.87763 0.61399 0.00908 0.0
H53 H 0.8984 0.7502 0.10529 0.0
O54 O 0.6427 0.71047 0.98233 0.0
O55 O 0.66503 0.79805 0.04238 0.0
O56 O 0.75341 0.75265 0.07609 0.0
C57 C 0.69537 0.78351 0.07944 0.0
H58 H 0.44981 0.84331 0.9395 0.0
H59 H 0.97423 0.59013 0.07591 0.0
Co60 Co 0.20863 0.73865 0.51672 0.0
C61 C 0.17555 0.84548 0.49963 0.0
Co62 Co 0.30263 0.7817 0.4836 0.0
C63 C 0.12133 0.69459 0.59082 0.0
C64 C 0.05558 0.69913 0.52844 0.0
N65 N 0.12687 0.70657 0.5458 0.0
N66 N 0.04918 0.68116 0.60258 0.0
C67 C 0.00798 0.68349 0.56304 0.0
H68 H 0.16872 0.69804 0.6151 0.0
H69 H 0.03789 0.70802 0.49378 0.0
C70 C 0.33532 0.67462 0.50051 0.0
N71 N 0.38439 0.81374 0.45476 0.0
C72 C 0.38918 0.82726 0.4102 0.0
C73 C 0.4565 0.81871 0.47133 0.0
N74 N 0.46165 0.83896 0.39781 0.0
C75 C 0.50386 0.83422 0.43661 0.0
C76 C 0.30934 0.7931 0.58005 0.0
O77 O 0.26841 0.67494 0.51819 0.0
O78 O 0.36022 0.71678 0.48335 0.0
O79 O 0.34277 0.80525 0.5431 0.0
O80 O 0.24861 0.76493 0.57648 0.0
O81 O 0.24385 0.84629 0.4841 0.0
H82 H 0.4748 0.80777 0.50528 0.0
H83 H 0.34098 0.82571 0.38653 0.0
O84 O 0.14982 0.80251 0.51498 0.0
O85 O 0.17013 0.71305 0.45623 0.0
O86 O 0.26156 0.75774 0.42437 0.0
C87 C 0.20284 0.72773 0.41975 0.0
H88 H 0.94665 0.67822 0.56001 0.0
H89 H 0.56557 0.83726 0.43882 0.0
Co90 Co 0.70457 0.23721 0.51605 0.0
C91 C 0.67364 0.34401 0.49676 0.0
Co92 Co 0.79951 0.27915 0.48253 0.0
C93 C 0.60976 0.19557 0.58863 0.0
C94 C 0.55067 0.19849 0.52356 0.0
N95 N 0.62032 0.20601 0.54349 0.0
N96 N 0.53628 0.18301 0.59759 0.0
C97 C 0.49914 0.18446 0.55663 0.0
H98 H 0.65341 0.20123 0.61536 0.0
H99 H 0.53657 0.20643 0.48809 0.0
C100 C 0.83053 0.17238 0.50151 0.0
N101 N 0.88387 0.31027 0.45497 0.0
C102 C 0.89485 0.31935 0.40955 0.0
C103 C 0.95331 0.31865 0.47501 0.0
N104 N 0.96832 0.33183 0.40055 0.0
C105 C 0.0051 0.33177 0.44174 0.0
C106 C 0.80237 0.29155 0.57999 0.0
O107 O 0.76336 0.17304 0.51893 0.0
O108 O 0.8558 0.21415 0.48391 0.0
O109 O 0.83682 0.30319 0.54316 0.0
O110 O 0.74167 0.26344 0.5761 0.0
O111 O 0.74208 0.34398 0.4814 0.0
H112 H 0.96728 0.31179 0.51074 0.0
H113 H 0.85162 0.31266 0.38267 0.0
O114 O 0.64707 0.30165 0.51281 0.0
O115 O 0.6688 0.21142 0.45554 0.0
O116 O 0.76061 0.25446 0.42245 0.0
C117 C 0.70159 0.22459 0.41866 0.0
H118 H 0.43816 0.17877 0.55158 0.0
H119 H 0.06604 0.33762 0.44684 0.0
H120 H 0.51187 0.66319 0.98482 0.0
H121 H 0.70778 0.56272 0.00767 0.0
H122 H 0.42829 0.58474 0.98494 0.0
H123 H 0.62501 0.48377 0.00559 0.0
H124 H 0.45275 0.36317 0.04985 0.0
H125 H 0.53275 0.44299 0.04999 0.0
H126 H 0.38994 0.50339 0.94293 0.0
H127 H 0.30749 0.42413 0.94453 0.0
C128 C 0.53716 0.62417 0.9894 0.0
C129 C 0.61636 0.61915 0.99649 0.0
C130 C 0.48927 0.57906 0.98915 0.0
C131 C 0.51958 0.52771 0.99541 0.0
C132 C 0.59917 0.52274 0.00169 0.0
C133 C 0.64687 0.56797 0.0026 0.0
C134 C 0.43826 0.39355 0.02639 0.0
C135 C 0.37386 0.38732 0.99709 0.0
C136 C 0.4846 0.43925 0.02618 0.0
C137 C 0.46857 0.47964 0.99613 0.0
C138 C 0.40367 0.47353 0.96698 0.0
C139 C 0.35652 0.42799 0.96769 0.0
H140 H 0.46366 0.65255 0.44812 0.0
H141 H 0.31797 0.58695 0.55111 0.0
H142 H 0.54458 0.57273 0.4461 0.0
H143 H 0.40093 0.50804 0.55087 0.0
H144 H 0.51866 0.34942 0.50625 0.0
H145 H 0.43702 0.4286 0.50611 0.0
H146 H 0.63639 0.52809 0.48843 0.0
H147 H 0.71767 0.44809 0.48638 0.0
C148 C 0.44929 0.62119 0.47066 0.0
C149 C 0.3843 0.62597 0.4997 0.0
C150 C 0.49609 0.57551 0.46977 0.0
C151 C 0.47971 0.53374 0.4984 0.0
C152 C 0.41475 0.53881 0.52768 0.0
C153 C 0.36731 0.58422 0.52807 0.0
C154 C 0.54506 0.38821 0.50223 0.0
C155 C 0.62465 0.39252 0.49631 0.0
C156 C 0.49823 0.43379 0.50251 0.0
C157 C 0.52985 0.48505 0.49753 0.0
C158 C 0.60968 0.48926 0.49162 0.0
C159 C 0.65646 0.44345 0.49069 0.0
H160 H 0.05109 0.13701 0.9473 0.0
H161 H 0.19393 0.07819 0.05477 0.0
H162 H 0.97104 0.05724 0.94758 0.0
H163 H 0.11136 0.9991 0.05689 0.0
H164 H 0.98997 0.83875 0.01714 0.0
H165 H 0.07362 0.91707 0.01643 0.0
H166 H 0.87775 0.01705 0.99124 0.0
H167 H 0.79504 0.93812 0.98964 0.0
C168 C 0.06502 0.10711 0.97132 0.0
C169 C 0.12878 0.11392 0.00108 0.0
C170 C 0.01863 0.06144 0.97179 0.0
C171 C 0.03392 0.02167 0.0026 0.0
C172 C 0.09819 0.0284 0.03223 0.0
C173 C 0.14543 0.07386 0.03123 0.0
C174 C 0.96487 0.87751 0.01143 0.0
C175 C 0.88594 0.88221 0.00317 0.0
C176 C 0.01281 0.92259 0.01134 0.0
C177 C 0.98282 0.97364 0.00363 0.0
C178 C 0.90344 0.97831 0.99624 0.0
C179 C 0.85574 0.93309 0.99563 0.0
H180 H 0.95847 0.15007 0.44914 0.0
H181 H 0.81417 0.08537 0.5533 0.0
H182 H 0.04084 0.07127 0.4483 0.0
H183 H 0.89877 0.00727 0.55417 0.0
H184 H 0.02069 0.84923 0.51034 0.0
H185 H 0.9371 0.92742 0.51034 0.0
H186 H 0.13379 0.02913 0.49164 0.0
H187 H 0.21702 0.95013 0.48948 0.0
C188 C 0.94469 0.11911 0.4722 0.0
C189 C 0.87973 0.12391 0.50128 0.0
C190 C 0.99238 0.07402 0.47199 0.0
C191 C 0.97701 0.0328 0.50134 0.0
C192 C 0.91191 0.03771 0.53053 0.0
C193 C 0.86351 0.0826 0.53026 0.0
C194 C 0.04611 0.88831 0.50617 0.0
C195 C 0.1255 0.89352 0.49982 0.0
C196 C 0.99813 0.93331 0.50653 0.0
C197 C 0.02841 0.98485 0.50114 0.0
C198 C 0.10809 0.99001 0.49508 0.0
C199 C 0.15601 0.94479 0.49409 0.0
H200 H 0.76483 0.2363 0.33278 0.0
H201 H 0.56386 0.17558 0.39908 0.0
H202 H 0.70575 0.216 0.25616 0.0
H203 H 0.505 0.15533 0.32236 0.0
H204 H 0.60005 0.13505 0.12324 0.0
H205 H 0.65918 0.13868 0.20049 0.0
H206 H 0.45562 0.21388 0.26179 0.0
H207 H 0.39707 0.21165 0.18492 0.0
C208 C 0.70843 0.21811 0.331 0.0
C209 C 0.66885 0.2079 0.37205 0.0
C210 C 0.67481 0.20617 0.28708 0.0
C211 C 0.60067 0.18423 0.28332 0.0
C212 C 0.56194 0.17266 0.32426 0.0
C213 C 0.59583 0.18408 0.36816 0.0
C214 C 0.56772 0.15231 0.1531 0.0
C215 C 0.49394 0.17362 0.14741 0.0
C216 C 0.60163 0.15425 0.19738 0.0
C217 C 0.56221 0.17689 0.23708 0.0
C218 C 0.48715 0.19571 0.23187 0.0
C219 C 0.45348 0.19427 0.18759 0.0
H220 H 0.75739 0.77223 0.16545 0.0
H221 H 0.55815 0.83381 0.09827 0.0
H222 H 0.69905 0.79557 0.24193 0.0
H223 H 0.49992 0.85711 0.17494 0.0
H224 H 0.59797 0.88145 0.37363 0.0
H225 H 0.65543 0.8757 0.29574 0.0
H226 H 0.44941 0.80138 0.23753 0.0
H227 H 0.39252 0.80572 0.315 0.0
C228 C 0.70144 0.79114 0.16701 0.0
C229 C 0.66217 0.80085 0.12581 0.0
C230 C 0.6683 0.80488 0.21083 0.0
C231 C 0.59494 0.82815 0.21435 0.0
C232 C 0.55633 0.83891 0.17321 0.0
C233 C 0.5898 0.82569 0.12937 0.0
C234 C 0.56469 0.86404 0.34429 0.0
C235 C 0.49085 0.84337 0.35107 0.0
C236 C 0.59765 0.86088 0.29966 0.0
C237 C 0.55714 0.83765 0.26069 0.0
C238 C 0.4818 0.81989 0.26689 0.0
C239 C 0.44909 0.82255 0.31153 0.0
H240 H 0.42035 0.88519 0.87356 0.0
H241 H 0.61421 0.79586 0.81288 0.0
H242 H 0.36065 0.88201 0.79655 0.0
H243 H 0.5553 0.7944 0.73615 0.0
H244 H 0.24567 0.78453 0.66639 0.0
H245 H 0.30672 0.80367 0.74269 0.0
H246 H 0.51141 0.85554 0.67483 0.0
H247 H 0.45061 0.83672 0.59855 0.0
C248 C 0.45064 0.86521 0.84399 0.0
C249 C 0.52185 0.84009 0.84997 0.0
C250 C 0.41638 0.86357 0.79985 0.0
C251 C 0.45308 0.8376 0.76053 0.0
C252 C 0.52594 0.81506 0.76586 0.0
C253 C 0.55984 0.81609 0.81005 0.0
C254 C 0.30337 0.80059 0.66777 0.0
C255 C 0.34342 0.80885 0.62643 0.0
C256 C 0.33813 0.81182 0.71144 0.0
C257 C 0.41385 0.83095 0.71458 0.0
C258 C 0.4532 0.84045 0.67335 0.0
C259 C 0.41819 0.82985 0.62973 0.0
H260 H 0.59264 0.13452 0.6712 0.0
H261 H 0.40261 0.22812 0.62672 0.0
H262 H 0.5349 0.13372 0.74905 0.0
H263 H 0.34681 0.2303 0.70428 0.0
H264 H 0.22887 0.20107 0.8362 0.0
H265 H 0.28337 0.18378 0.75822 0.0
H266 H 0.51083 0.18708 0.81815 0.0
H267 H 0.45524 0.20059 0.8963 0.0
C268 C 0.53854 0.15494 0.67827 0.0
C269 C 0.50162 0.18084 0.64296 0.0
C270 C 0.50554 0.15487 0.72287 0.0
C271 C 0.43566 0.18176 0.73331 0.0
C272 C 0.39928 0.20774 0.69762 0.0
C273 C 0.43145 0.2068 0.653 0.0
C274 C 0.29045 0.19726 0.83261 0.0
C275 C 0.33787 0.20238 0.8722 0.0
C276 C 0.32197 0.18788 0.78783 0.0
C277 C 0.40192 0.18497 0.78141 0.0
C278 C 0.4491 0.18839 0.8214 0.0
C279 C 0.41732 0.19646 0.86632 0.0
H280 H 0.97982 0.59291 0.16101 0.0
H281 H 0.01893 0.76218 0.14641 0.0
H282 H 0.04422 0.60182 0.23713 0.0
H283 H 0.08221 0.7713 0.22251 0.0
H284 H 0.25809 0.75666 0.33652 0.0
H285 H 0.20148 0.73967 0.25919 0.0
H286 H 0.01912 0.64923 0.31766 0.0
H287 H 0.07595 0.66616 0.39561 0.0
C288 C 1.00282 0.63184 0.17385 0.0
C289 C 0.9944 0.67687 0.14775 0.0
C290 C 0.03895 0.63705 0.21759 0.0
C291 C 0.06824 0.68723 0.23575 0.0
C292 C 0.06084 0.73198 0.20926 0.0
C293 C 0.02408 0.7269 0.16587 0.0
C294 C 0.20619 0.73282 0.33304 0.0
C295 C 0.17121 0.71311 0.3724 0.0
C296 C 0.17363 0.7233 0.28866 0.0
C297 C 0.10554 0.69355 0.28243 0.0
C298 C 0.07188 0.67208 0.3214 0.0
C299 C 0.10426 0.68194 0.36603 0.0
H300 H 0.91326 0.37812 0.32552 0.0
H301 H 0.10132 0.28468 0.3728 0.0
H302 H 0.97093 0.37522 0.24743 0.0
H303 H 0.15694 0.27871 0.29502 0.0
H304 H 0.2747 0.30127 0.16126 0.0
H305 H 0.22114 0.32166 0.23916 0.0
H306 H 0.99321 0.31901 0.1799 0.0
H307 H 0.04794 0.30243 0.10176 0.0
C308 C 0.96694 0.35697 0.319 0.0
C309 C 0.00332 0.33216 0.35512 0.0
C310 C 0.99987 0.35487 0.27427 0.0
C311 C 0.06906 0.32682 0.26453 0.0
C312 C 0.105 0.30206 0.30107 0.0
C313 C 0.07295 0.30518 0.34581 0.0
C314 C 0.21322 0.30579 0.16498 0.0
C315 C 0.16542 0.30006 0.12559 0.0
C316 C 0.18225 0.31699 0.20972 0.0
C317 C 0.10243 0.32117 0.21632 0.0
C318 C 0.05488 0.31685 0.1765 0.0
C319 C 0.08615 0.30698 0.13159 0.0
H320 H 0.73781 0.28058 0.6656 0.0
H321 H 0.9418 0.33787 0.60011 0.0
H322 H 0.79729 0.29834 0.74233 0.0
H323 H 1.00106 0.35569 0.67699 0.0
H324 H 0.10596 0.29381 0.81315 0.0
H325 H 0.04785 0.29525 0.73637 0.0
H326 H 0.84693 0.37254 0.79931 0.0
H327 H 0.90562 0.37227 0.87646 0.0
C328 C 0.79494 0.29758 0.66759 0.0
C329 C 0.83526 0.30744 0.62672 0.0
C330 C 0.82883 0.30806 0.71159 0.0
C331 C 0.90394 0.32822 0.71562 0.0
C332 C 0.94337 0.33968 0.67488 0.0
C333 C 0.90924 0.32966 0.6309 0.0
C334 C 0.05028 0.3124 0.81084 0.0
C335 C 0.01031 0.33244 0.85138 0.0
C336 C 0.01686 0.31311 0.76663 0.0
C337 C 0.94257 0.33359 0.76188 0.0
C338 C 0.90382 0.35572 0.80202 0.0
C339 C 0.93747 0.35543 0.84623 0.0
H340 H 0.11381 0.7165 0.68632 0.0
H341 H 0.91543 0.63372 0.62515 0.0
H342 H 0.05601 0.71655 0.76344 0.0
H343 H 0.85707 0.63506 0.70257 0.0
H344 H 0.95028 0.67459 0.90133 0.0
H345 H 0.01089 0.65706 0.82454 0.0
H346 H 0.80556 0.70999 0.75829 0.0
H347 H 0.74495 0.72749 0.83479 0.0
C348 C 0.05863 0.69735 0.68914 0.0
C349 C 0.01915 0.67558 0.64901 0.0
C350 C 0.02538 0.69751 0.73357 0.0
C351 C 0.9517 0.67625 0.73902 0.0
C352 C 0.91346 0.65252 0.69934 0.0
C353 C 0.94694 0.6519 0.65493 0.0
C354 C 0.91777 0.68189 0.87034 0.0
C355 C 0.84291 0.70268 0.87418 0.0
C356 C 0.95264 0.67209 0.82642 0.0
C357 C 0.91305 0.68223 0.78541 0.0
C358 C 0.83729 0.70124 0.7892 0.0
C359 C 0.80274 0.71158 0.83308 0.0
loop_
_geom_bond_atom_site_label_1
_geom_bond_atom_site_label_2
_geom_bond_distance
_geom_bond_site_symmetry_2
_ccdc_geom_bond_type
Co0 N5 2.057 . S
Co0 O17 2.021 . S
Co0 O20 2.062 . S
Co0 O24 2.117 . S
Co0 O25 2.020 1_556 S
C1 O21 1.272 . S
C1 O24 1.245 1_554 S
Co2 N11 2.057 . S
Co2 O18 2.117 . S
Co2 O19 2.020 1_554 S
Co2 O21 2.021 . S
Co2 O26 2.062 . S
C3 N5 1.316 . S
C3 N6 1.347 . S
C3 H8 0.931 . S
C4 N5 1.375 . S
C4 C7 1.350 . S
C4 H9 0.930 . S
N5 Co0 2.057 . S
N5 C3 1.316 . S
N5 C4 1.375 . S
N6 C3 1.347 . S
N6 C7 1.373 . S
C7 C4 1.350 . S
C7 N6 1.373 . S
C7 H28 0.931 1_455 S
H8 C3 0.931 . S
H9 C4 0.930 . S
C10 O17 1.269 . S
C10 O18 1.249 1_556 S
N11 Co2 2.057 . S
N11 C12 1.316 . S
N11 C13 1.375 . S
C12 N11 1.316 . S
C12 N14 1.347 . S
C12 H23 0.931 . S
C13 N11 1.375 . S
C13 C15 1.350 . S
C13 H22 0.930 . S
N14 C12 1.347 . S
N14 C15 1.373 . S
C15 C13 1.350 . S
C15 N14 1.373 . S
C15 H29 0.931 . S
C16 O19 1.256 . S
C16 O20 1.255 . S
O17 Co0 2.021 . S
O17 C10 1.269 . S
O18 Co2 2.117 . S
O18 C10 1.249 1_554 S
O19 Co2 2.020 1_556 S
O19 C16 1.256 . S
O20 Co0 2.062 . S
O20 C16 1.255 . S
O21 C1 1.272 . S
O21 Co2 2.021 . S
H22 C13 0.930 . S
H23 C12 0.931 . S
O24 Co0 2.117 . S
O24 C1 1.245 1_556 S
O25 Co0 2.020 1_554 S
O25 C27 1.256 . S
O26 Co2 2.062 . S
O26 C27 1.255 . S
C27 O25 1.256 . S
C27 O26 1.255 . S
H28 C7 0.931 1_655 S
H29 C15 0.931 . S
Co30 N35 2.057 . S
Co30 O47 2.021 . S
Co30 O50 2.062 . S
Co30 O54 2.117 . S
Co30 O55 2.020 1_556 S
C31 O51 1.272 . S
C31 O54 1.245 1_554 S
Co32 N41 2.057 . S
Co32 O48 2.117 . S
Co32 O49 2.020 1_554 S
Co32 O51 2.021 . S
Co32 O56 2.062 . S
C33 N35 1.316 . S
C33 N36 1.347 . S
C33 H38 0.931 . S
C34 N35 1.375 . S
C34 C37 1.350 . S
C34 H39 0.930 . S
N35 Co30 2.057 . S
N35 C33 1.316 . S
N35 C34 1.375 . S
N36 C33 1.347 . S
N36 C37 1.373 . S
C37 C34 1.350 . S
C37 N36 1.373 . S
C37 H58 0.931 . S
H38 C33 0.931 . S
H39 C34 0.930 . S
C40 O47 1.269 . S
C40 O48 1.249 1_556 S
N41 Co32 2.057 . S
N41 C42 1.316 . S
N41 C43 1.375 . S
C42 N41 1.316 . S
C42 N44 1.347 . S
C42 H53 0.931 . S
C43 N41 1.375 . S
C43 C45 1.350 . S
C43 H52 0.930 . S
N44 C42 1.347 . S
N44 C45 1.373 . S
C45 C43 1.350 . S
C45 N44 1.373 . S
C45 H59 0.931 1_655 S
C46 O49 1.256 . S
C46 O50 1.255 . S
O47 Co30 2.021 . S
O47 C40 1.269 . S
O48 Co32 2.117 . S
O48 C40 1.249 1_554 S
O49 Co32 2.020 1_556 S
O49 C46 1.256 . S
O50 Co30 2.062 . S
O50 C46 1.255 . S
O51 C31 1.272 . S
O51 Co32 2.021 . S
H52 C43 0.930 . S
H53 C42 0.931 . S
O54 Co30 2.117 . S
O54 C31 1.245 1_556 S
O55 Co30 2.020 1_554 S
O55 C57 1.256 . S
O56 Co32 2.062 . S
O56 C57 1.255 . S
C57 O55 1.256 . S
C57 O56 1.255 . S
H58 C37 0.931 . S
H59 C45 0.931 1_455 S
Co60 N65 2.057 . S
Co60 O77 2.021 . S
Co60 O80 2.062 . S
Co60 O84 2.117 . S
Co60 O85 2.020 . S
C61 O81 1.259 . S
C61 O84 1.258 . S
Co62 N71 2.057 . S
Co62 O78 2.117 . S
Co62 O79 2.020 . S
Co62 O81 2.021 . S
Co62 O86 2.062 . S
C63 N65 1.316 . S
C63 N66 1.347 . S
C63 H68 0.931 . S
C64 N65 1.375 . S
C64 C67 1.350 . S
C64 H69 0.930 . S
N65 Co60 2.057 . S
N65 C63 1.316 . S
N65 C64 1.375 . S
N66 C63 1.347 . S
N66 C67 1.373 . S
C67 C64 1.350 . S
C67 N66 1.373 . S
C67 H88 0.931 1_455 S
H68 C63 0.931 . S
H69 C64 0.930 . S
C70 O77 1.259 . S
C70 O78 1.258 . S
N71 Co62 2.057 . S
N71 C72 1.316 . S
N71 C73 1.375 . S
C72 N71 1.316 . S
C72 N74 1.347 . S
C72 H83 0.931 . S
C73 N71 1.375 . S
C73 C75 1.350 . S
C73 H82 0.930 . S
N74 C72 1.347 . S
N74 C75 1.373 . S
C75 C73 1.350 . S
C75 N74 1.373 . S
C75 H89 0.931 . S
C76 O79 1.256 . S
C76 O80 1.255 . S
O77 Co60 2.021 . S
O77 C70 1.259 . S
O78 Co62 2.117 . S
O78 C70 1.258 . S
O79 Co62 2.020 . S
O79 C76 1.256 . S
O80 Co60 2.062 . S
O80 C76 1.255 . S
O81 C61 1.259 . S
O81 Co62 2.021 . S
H82 C73 0.930 . S
H83 C72 0.931 . S
O84 Co60 2.117 . S
O84 C61 1.258 . S
O85 Co60 2.020 . S
O85 C87 1.256 . S
O86 Co62 2.062 . S
O86 C87 1.255 . S
C87 O85 1.256 . S
C87 O86 1.255 . S
H88 C67 0.931 1_655 S
H89 C75 0.931 . S
Co90 N95 2.057 . S
Co90 O107 2.021 . S
Co90 O110 2.062 . S
Co90 O114 2.117 . S
Co90 O115 2.020 . S
C91 O111 1.259 . S
C91 O114 1.258 . S
Co92 N101 2.057 . S
Co92 O108 2.117 . S
Co92 O109 2.020 . S
Co92 O111 2.021 . S
Co92 O116 2.062 . S
C93 N95 1.316 . S
C93 N96 1.347 . S
C93 H98 0.931 . S
C94 N95 1.375 . S
C94 C97 1.350 . S
C94 H99 0.930 . S
N95 Co90 2.057 . S
N95 C93 1.316 . S
N95 C94 1.375 . S
N96 C93 1.347 . S
N96 C97 1.373 . S
C97 C94 1.350 . S
C97 N96 1.373 . S
C97 H118 0.931 . S
H98 C93 0.931 . S
H99 C94 0.930 . S
C100 O107 1.259 . S
C100 O108 1.258 . S
N101 Co92 2.057 . S
N101 C102 1.316 . S
N101 C103 1.375 . S
C102 N101 1.316 . S
C102 N104 1.347 . S
C102 H113 0.931 . S
C103 N101 1.375 . S
C103 C105 1.350 . S
C103 H112 0.930 . S
N104 C102 1.347 . S
N104 C105 1.373 . S
C105 C103 1.350 . S
C105 N104 1.373 . S
C105 H119 0.931 1_655 S
C106 O109 1.256 . S
C106 O110 1.255 . S
O107 Co90 2.021 . S
O107 C100 1.259 . S
O108 Co92 2.117 . S
O108 C100 1.258 . S
O109 Co92 2.020 . S
O109 C106 1.256 . S
O110 Co90 2.062 . S
O110 C106 1.255 . S
O111 C91 1.259 . S
O111 Co92 2.021 . S
H112 C103 0.930 . S
H113 C102 0.931 . S
O114 Co90 2.117 . S
O114 C91 1.258 . S
O115 Co90 2.020 . S
O115 C117 1.256 . S
O116 Co92 2.062 . S
O116 C117 1.255 . S
C117 O115 1.256 . S
C117 O116 1.255 . S
H118 C97 0.931 . S
H119 C105 0.931 1_455 S
H120 C128 0.950 . S
H121 C133 0.950 . S
H122 C130 0.950 . S
H123 C132 0.950 . S
H124 C134 0.950 . S
H125 C136 0.950 . S
H126 C138 0.950 . S
H127 C139 0.950 . S
C128 H120 0.950 . S
C128 C129 1.404 . S
C128 C130 1.391 . S
C129 C128 1.404 . S
C129 C133 1.373 1_556 S
C130 H122 0.950 . S
C130 C128 1.391 . S
C130 C131 1.404 . S
C131 C130 1.404 . S
C131 C132 1.394 1_556 S
C131 C137 1.490 1_556 S
C132 H123 0.950 . S
C132 C131 1.394 1_554 S
C132 C133 1.391 . S
C133 H121 0.950 . S
C133 C129 1.373 1_554 S
C133 C132 1.391 . S
C134 H124 0.950 . S
C134 C135 1.386 . S
C134 C136 1.391 . S
C135 C134 1.386 . S
C135 C139 1.393 1_554 S
C136 H125 0.950 . S
C136 C134 1.391 . S
C136 C137 1.409 . S
C137 C131 1.490 1_554 S
C137 C136 1.409 . S
C137 C138 1.390 1_554 S
C138 H126 0.950 . S
C138 C137 1.390 1_556 S
C138 C139 1.391 . S
C139 H127 0.950 . S
C139 C135 1.393 1_556 S
C139 C138 1.391 . S
H140 C148 0.950 . S
H141 C153 0.950 . S
H142 C150 0.950 . S
H143 C152 0.950 . S
H144 C154 0.950 . S
H145 C156 0.950 . S
H146 C158 0.950 . S
H147 C159 0.950 . S
C148 H140 0.950 . S
C148 C149 1.386 . S
C148 C150 1.391 . S
C149 C148 1.386 . S
C149 C153 1.393 . S
C150 H142 0.950 . S
C150 C148 1.391 . S
C150 C151 1.400 . S
C151 C150 1.400 . S
C151 C152 1.398 . S
C151 C157 1.491 . S
C152 H143 0.950 . S
C152 C151 1.398 . S
C152 C153 1.391 . S
C153 H141 0.950 . S
C153 C149 1.393 . S
C153 C152 1.391 . S
C154 H144 0.950 . S
C154 C155 1.386 . S
C154 C156 1.391 . S
C155 C154 1.386 . S
C155 C159 1.393 . S
C156 H145 0.950 . S
C156 C154 1.391 . S
C156 C157 1.400 . S
C157 C151 1.491 . S
C157 C156 1.400 . S
C157 C158 1.398 . S
C158 H146 0.950 . S
C158 C157 1.398 . S
C158 C159 1.391 . S
C159 H147 0.950 . S
C159 C155 1.393 . S
C159 C158 1.391 . S
H160 C168 0.950 . S
H161 C173 0.950 . S
H162 C170 0.950 1_654 S
H163 C172 0.950 1_565 S
H164 C174 0.950 . S
H165 C176 0.950 1_456 S
H166 C178 0.950 1_545 S
H167 C179 0.950 . S
C168 H160 0.950 . S
C168 C169 1.386 . S
C168 C170 1.392 . S
C169 C168 1.386 . S
C169 C173 1.393 . S
C170 H162 0.950 1_456 S
C170 C168 1.392 . S
C170 C171 1.401 . S
C171 C170 1.401 . S
C171 C172 1.399 . S
C171 C177 1.489 1_446 S
C172 H163 0.950 1_545 S
C172 C171 1.399 . S
C172 C173 1.391 . S
C173 H161 0.950 . S
C173 C169 1.393 . S
C173 C172 1.391 . S
C174 H164 0.950 . S
C174 C175 1.386 . S
C174 C176 1.392 . S
C175 C174 1.386 . S
C175 C179 1.393 . S
C176 H165 0.950 1_654 S
C176 C174 1.392 . S
C176 C177 1.399 . S
C177 C171 1.489 1_664 S
C177 C176 1.399 . S
C177 C178 1.398 . S
C178 H166 0.950 1_565 S
C178 C177 1.398 . S
C178 C179 1.391 . S
C179 H167 0.950 . S
C179 C175 1.393 . S
C179 C178 1.391 . S
H180 C188 0.950 . S
H181 C193 0.950 . S
H182 C190 0.950 1_455 S
H183 C192 0.950 . S
H184 C194 0.950 . S
H185 C196 0.950 1_655 S
H186 C198 0.950 . S
H187 C199 0.950 . S
C188 H180 0.950 . S
C188 C189 1.386 . S
C188 C190 1.391 . S
C189 C188 1.386 . S
C189 C193 1.393 . S
C190 H182 0.950 1_655 S
C190 C188 1.391 . S
C190 C191 1.400 . S
C191 C190 1.400 . S
C191 C192 1.398 . S
C191 C197 1.491 1_645 S
C192 H183 0.950 . S
C192 C191 1.398 . S
C192 C193 1.391 . S
C193 H181 0.950 . S
C193 C189 1.393 . S
C193 C192 1.391 . S
C194 H184 0.950 . S
C194 C195 1.386 . S
C194 C196 1.391 . S
C195 C194 1.386 . S
C195 C199 1.393 . S
C196 H185 0.950 1_455 S
C196 C194 1.391 . S
C196 C197 1.400 . S
C197 C191 1.491 1_465 S
C197 C196 1.400 . S
C197 C198 1.398 . S
C198 H186 0.950 . S
C198 C197 1.398 . S
C198 C199 1.391 . S
C199 H187 0.950 . S
C199 C195 1.393 . S
C199 C198 1.391 . S
H200 C208 0.950 . S
H201 C213 0.950 . S
H202 C210 0.950 . S
H203 C212 0.950 . S
H204 C214 0.950 . S
H205 C216 0.950 . S
H206 C218 0.950 . S
H207 C219 0.950 . S
C208 H200 0.950 . S
C208 C209 1.386 . S
C208 C210 1.391 . S
C209 C208 1.386 . S
C209 C213 1.393 . S
C210 H202 0.950 . S
C210 C208 1.391 . S
C210 C211 1.400 . S
C211 C210 1.400 . S
C211 C212 1.398 . S
C211 C217 1.491 . S
C212 H203 0.950 . S
C212 C211 1.398 . S
C212 C213 1.391 . S
C213 H201 0.950 . S
C213 C209 1.393 . S
C213 C212 1.391 . S
C214 H204 0.950 . S
C214 C215 1.386 . S
C214 C216 1.391 . S
C215 C214 1.386 . S
C215 C219 1.393 . S
C216 H205 0.950 . S
C216 C214 1.391 . S
C216 C217 1.400 . S
C217 C211 1.491 . S
C217 C216 1.400 . S
C217 C218 1.398 . S
C218 H206 0.950 . S
C218 C217 1.398 . S
C218 C219 1.391 . S
C219 H207 0.950 . S
C219 C215 1.393 . S
C219 C218 1.391 . S
H220 C228 0.950 . S
H221 C233 0.950 . S
H222 C230 0.950 . S
H223 C232 0.950 . S
H224 C234 0.950 . S
H225 C236 0.950 . S
H226 C238 0.950 . S
H227 C239 0.950 . S
C228 H220 0.950 . S
C228 C229 1.386 . S
C228 C230 1.391 . S
C229 C228 1.386 . S
C229 C233 1.393 . S
C230 H222 0.950 . S
C230 C228 1.391 . S
C230 C231 1.400 . S
C231 C230 1.400 . S
C231 C232 1.398 . S
C231 C237 1.491 . S
C232 H223 0.950 . S
C232 C231 1.398 . S
C232 C233 1.391 . S
C233 H221 0.950 . S
C233 C229 1.393 . S
C233 C232 1.391 . S
C234 H224 0.950 . S
C234 C235 1.386 . S
C234 C236 1.391 . S
C235 C234 1.386 . S
C235 C239 1.393 . S
C236 H225 0.950 . S
C236 C234 1.391 . S
C236 C237 1.400 . S
C237 C231 1.491 . S
C237 C236 1.400 . S
C237 C238 1.398 . S
C238 H226 0.950 . S
C238 C237 1.398 . S
C238 C239 1.391 . S
C239 H227 0.950 . S
C239 C235 1.393 . S
C239 C238 1.391 . S
H240 C248 0.950 . S
H241 C253 0.950 . S
H242 C250 0.950 . S
H243 C252 0.950 . S
H244 C254 0.950 . S
H245 C256 0.950 . S
H246 C258 0.950 . S
H247 C259 0.950 . S
C248 H240 0.950 . S
C248 C249 1.386 . S
C248 C250 1.391 . S
C249 C248 1.386 . S
C249 C253 1.393 . S
C250 H242 0.950 . S
C250 C248 1.391 . S
C250 C251 1.400 . S
C251 C250 1.400 . S
C251 C252 1.398 . S
C251 C257 1.491 . S
C252 H243 0.950 . S
C252 C251 1.398 . S
C252 C253 1.391 . S
C253 H241 0.950 . S
C253 C249 1.393 . S
C253 C252 1.391 . S
C254 H244 0.950 . S
C254 C255 1.386 . S
C254 C256 1.391 . S
C255 C254 1.386 . S
C255 C259 1.393 . S
C256 H245 0.950 . S
C256 C254 1.391 . S
C256 C257 1.400 . S
C257 C251 1.491 . S
C257 C256 1.400 . S
C257 C258 1.398 . S
C258 H246 0.950 . S
C258 C257 1.398 . S
C258 C259 1.391 . S
C259 H247 0.950 . S
C259 C255 1.393 . S
C259 C258 1.391 . S
H260 C268 0.950 . S
H261 C273 0.950 . S
H262 C270 0.950 . S
H263 C272 0.950 . S
H264 C274 0.950 . S
H265 C276 0.950 . S
H266 C278 0.950 . S
H267 C279 0.950 . S
C268 H260 0.950 . S
C268 C269 1.386 . S
C268 C270 1.391 . S
C269 C268 1.386 . S
C269 C273 1.393 . S
C270 H262 0.950 . S
C270 C268 1.391 . S
C270 C271 1.400 . S
C271 C270 1.400 . S
C271 C272 1.398 . S
C271 C277 1.491 . S
C272 H263 0.950 . S
C272 C271 1.398 . S
C272 C273 1.391 . S
C273 H261 0.950 . S
C273 C269 1.393 . S
C273 C272 1.391 . S
C274 H264 0.950 . S
C274 C275 1.386 . S
C274 C276 1.391 . S
C275 C274 1.386 . S
C275 C279 1.393 . S
C276 H265 0.950 . S
C276 C274 1.391 . S
C276 C277 1.400 . S
C277 C271 1.491 . S
C277 C276 1.400 . S
C277 C278 1.398 . S
C278 H266 0.950 . S
C278 C277 1.398 . S
C278 C279 1.391 . S
C279 H267 0.950 . S
C279 C275 1.393 . S
C279 C278 1.391 . S
H280 C288 0.950 . S
H281 C293 0.950 . S
H282 C290 0.950 . S
H283 C292 0.950 . S
H284 C294 0.950 . S
H285 C296 0.950 . S
H286 C298 0.950 . S
H287 C299 0.950 . S
C288 H280 0.950 . S
C288 C289 1.386 1_455 S
C288 C290 1.391 . S
C289 C288 1.386 1_655 S
C289 C293 1.393 . S
C290 H282 0.950 . S
C290 C288 1.391 . S
C290 C291 1.400 . S
C291 C290 1.400 . S
C291 C292 1.398 1_455 S
C291 C297 1.491 . S
C292 H283 0.950 . S
C292 C291 1.398 1_655 S
C292 C293 1.391 . S
C293 H281 0.950 . S
C293 C289 1.393 . S
C293 C292 1.391 . S
C294 H284 0.950 . S
C294 C295 1.386 . S
C294 C296 1.391 . S
C295 C294 1.386 . S
C295 C299 1.393 . S
C296 H285 0.950 . S
C296 C294 1.391 . S
C296 C297 1.400 . S
C297 C291 1.491 . S
C297 C296 1.400 . S
C297 C298 1.398 . S
C298 H286 0.950 . S
C298 C297 1.398 . S
C298 C299 1.391 . S
C299 H287 0.950 . S
C299 C295 1.393 . S
C299 C298 1.391 . S
H300 C308 0.950 . S
H301 C313 0.950 . S
H302 C310 0.950 . S
H303 C312 0.950 . S
H304 C314 0.950 . S
H305 C316 0.950 . S
H306 C318 0.950 1_655 S
H307 C319 0.950 . S
C308 H300 0.950 . S
C308 C309 1.386 . S
C308 C310 1.391 . S
C309 C308 1.386 . S
C309 C313 1.393 1_655 S
C310 H302 0.950 . S
C310 C308 1.391 . S
C310 C311 1.400 1_655 S
C311 C310 1.400 1_455 S
C311 C312 1.398 . S
C311 C317 1.491 . S
C312 H303 0.950 . S
C312 C311 1.398 . S
C312 C313 1.391 . S
C313 H301 0.950 . S
C313 C309 1.393 1_455 S
C313 C312 1.391 . S
C314 H304 0.950 . S
C314 C315 1.386 . S
C314 C316 1.391 . S
C315 C314 1.386 . S
C315 C319 1.393 . S
C316 H305 0.950 . S
C316 C314 1.391 . S
C316 C317 1.400 . S
C317 C311 1.491 . S
C317 C316 1.400 . S
C317 C318 1.398 . S
C318 H306 0.950 1_455 S
C318 C317 1.398 . S
C318 C319 1.391 . S
C319 H307 0.950 . S
C319 C315 1.393 . S
C319 C318 1.391 . S
H320 C328 0.950 . S
H321 C333 0.950 . S
H322 C330 0.950 . S
H323 C332 0.950 1_455 S
H324 C334 0.950 . S
H325 C336 0.950 . S
H326 C338 0.950 . S
H327 C339 0.950 . S
C328 H320 0.950 . S
C328 C329 1.386 . S
C328 C330 1.391 . S
C329 C328 1.386 . S
C329 C333 1.393 . S
C330 H322 0.950 . S
C330 C328 1.391 . S
C330 C331 1.400 . S
C331 C330 1.400 . S
C331 C332 1.398 . S
C331 C337 1.491 . S
C332 H323 0.950 1_655 S
C332 C331 1.398 . S
C332 C333 1.391 . S
C333 H321 0.950 . S
C333 C329 1.393 . S
C333 C332 1.391 . S
C334 H324 0.950 . S
C334 C335 1.386 . S
C334 C336 1.391 . S
C335 C334 1.386 . S
C335 C339 1.393 1_455 S
C336 H325 0.950 . S
C336 C334 1.391 . S
C336 C337 1.400 1_455 S
C337 C331 1.491 . S
C337 C336 1.400 1_655 S
C337 C338 1.398 . S
C338 H326 0.950 . S
C338 C337 1.398 . S
C338 C339 1.391 . S
C339 H327 0.950 . S
C339 C335 1.393 1_655 S
C339 C338 1.391 . S
H340 C348 0.950 . S
H341 C353 0.950 . S
H342 C350 0.950 . S
H343 C352 0.950 . S
H344 C354 0.950 . S
H345 C356 0.950 . S
H346 C358 0.950 . S
H347 C359 0.950 . S
C348 H340 0.950 . S
C348 C349 1.386 . S
C348 C350 1.391 1_455 S
C349 C348 1.386 . S
C349 C353 1.393 . S
C350 H342 0.950 . S
C350 C348 1.391 1_655 S
C350 C351 1.400 . S
C351 C350 1.400 . S
C351 C352 1.398 . S
C351 C357 1.491 . S
C352 H343 0.950 . S
C352 C351 1.398 . S
C352 C353 1.391 1_655 S
C353 H341 0.950 . S
C353 C349 1.393 . S
C353 C352 1.391 1_455 S
C354 H344 0.950 . S
C354 C355 1.386 . S
C354 C356 1.391 . S
C355 C354 1.386 . S
C355 C359 1.393 . S
C356 H345 0.950 . S
C356 C354 1.391 . S
C356 C357 1.400 . S
C357 C351 1.491 . S
C357 C356 1.400 . S
C357 C358 1.398 . S
C358 H346 0.950 . S
C358 C357 1.398 . S
C358 C359 1.391 . S
C359 H347 0.950 . S
C359 C355 1.393 . S
C359 C358 1.391 . S
C129 C31 1.665 1_556 S
C135 C10 1.663 1_554 S
C149 C70 1.655 . S
C155 C91 1.655 . S
C169 C1 1.658 1_556 S
C175 C40 1.658 1_554 S
C189 C100 1.651 . S
C195 C61 1.651 . S
C209 C117 0.971 . S
C215 N14 0.969 . S
C229 C57 0.971 . S
C235 N74 0.973 . S
C249 N36 0.960 . S
C255 C76 0.976 . S
C269 N96 0.938 . S
C275 C16 0.993 . S
C289 N44 0.945 . S
C295 C87 0.991 . S
C309 N104 0.980 . S
C315 C27 0.970 . S
C329 C106 0.985 . S
C335 N6 0.973 . S
C349 N66 0.960 . S
C355 C46 0.993 . S
