# Generated by pormake.
# Topology wjf, (4)-cn, num edge types: 1
# Building blocks:
#     Node 0, Type 0, BuildingBlock: AZAVOO_clean_sbu_0, # of connection points: 4
#     Node 1, Type 0, BuildingBlock: AZAVOO_clean_sbu_0, # of connection points: 4
#     Node 2, Type 0, BuildingBlock: AZAVOO_clean_sbu_0, # of connection points: 4
#     Node 3, Type 0, BuildingBlock: AZAVOO_clean_sbu_0, # of connection points: 4
#     Node 4, Type 0, BuildingBlock: AZAVOO_clean_sbu_0, # of connection points: 4
#     Node 5, Type 0, BuildingBlock: AZAVOO_clean_sbu_0, # of connection points: 4
#     Node 6, Type 0, BuildingBlock: AZAVOO_clean_sbu_0, # of connection points: 4
#     Node 7, Type 0, BuildingBlock: AZAVOO_clean_sbu_0, # of connection points: 4
#     Node 8, Type 0, BuildingBlock: AZAVOO_clean_sbu_0, # of connection points: 4
#     Node 9, Type 0, BuildingBlock: AZAVOO_clean_sbu_0, # of connection points: 4
#     Node 10, Type 0, BuildingBlock: AZAVOO_clean_sbu_0, # of connection points: 4
#     Node 11, Type 0, BuildingBlock: AZAVOO_clean_sbu_0, # of connection points: 4
#     Edge 12, Type (0, 0), BuildingBlock: AJUNOK_clean_linker_0, # of connection points: 2
#     Edge 13, Type (0, 0), BuildingBlock: AJUNOK_clean_linker_0, # of connection points: 2
#     Edge 14, Type (0, 0), BuildingBlock: AJUNOK_clean_linker_0, # of connection points: 2
#     Edge 15, Type (0, 0), BuildingBlock: AJUNOK_clean_linker_0, # of connection points: 2
#     Edge 16, Type (0, 0), BuildingBlock: AJUNOK_clean_linker_0, # of connection points: 2
#     Edge 17, Type (0, 0), BuildingBlock: AJUNOK_clean_linker_0, # of connection points: 2
#     Edge 18, Type (0, 0), BuildingBlock: AJUNOK_clean_linker_0, # of connection points: 2
#     Edge 19, Type (0, 0), BuildingBlock: AJUNOK_clean_linker_0, # of connection points: 2
#     Edge 20, Type (0, 0), BuildingBlock: AJUNOK_clean_linker_0, # of connection points: 2
#     Edge 21, Type (0, 0), BuildingBlock: AJUNOK_clean_linker_0, # of connection points: 2
#     Edge 22, Type (0, 0), BuildingBlock: AJUNOK_clean_linker_0, # of connection points: 2
#     Edge 23, Type (0, 0), BuildingBlock: AJUNOK_clean_linker_0, # of connection points: 2
#     Edge 24, Type (0, 0), BuildingBlock: AJUNOK_clean_linker_0, # of connection points: 2
#     Edge 25, Type (0, 0), BuildingBlock: AJUNOK_clean_linker_0, # of connection points: 2
#     Edge 26, Type (0, 0), BuildingBlock: AJUNOK_clean_linker_0, # of connection points: 2
#     Edge 27, Type (0, 0), BuildingBlock: AJUNOK_clean_linker_0, # of connection points: 2
#     Edge 28, Type (0, 0), BuildingBlock: AJUNOK_clean_linker_0, # of connection points: 2
#     Edge 29, Type (0, 0), BuildingBlock: AJUNOK_clean_linker_0, # of connection points: 2
#     Edge 30, Type (0, 0), BuildingBlock: AJUNOK_clean_linker_0, # of connection points: 2
#     Edge 31, Type (0, 0), BuildingBlock: AJUNOK_clean_linker_0, # of connection points: 2
#     Edge 32, Type (0, 0), BuildingBlock: AJUNOK_clean_linker_0, # of connection points: 2
#     Edge 33, Type (0, 0), BuildingBlock: AJUNOK_clean_linker_0, # of connection points: 2
#     Edge 34, Type (0, 0), BuildingBlock: AJUNOK_clean_linker_0, # of connection points: 2
#     Edge 35, Type (0, 0), BuildingBlock: AJUNOK_clean_linker_0, # of connection points: 2
# Relax obj value: 0.271
# Max RMSD: 0.298
# Mean RMSD: 0.282
data_MOF--net-wjf--node1-AZAVOO_clean_sbu_0--edge1-AJUNOK_clean_linker_0
_symmetry_space_group_name_H-M    P1
_symmetry_Int_Tables_number       1
_symmetry_cell_setting            triclinic
loop_
_symmetry_equiv_pos_as_xyz
'x, y, z'
_cell_length_a     37.348212
_cell_length_b     38.137678
_cell_length_c     19.394493
_cell_angle_alpha  89.908919
_cell_angle_beta   89.790645
_cell_angle_gamma 119.3924
loop_
_atom_site_label
_atom_site_type_symbol
_atom_site_fract_x
_atom_site_fract_y
_atom_site_fract_z
_atom_type_partial_charge
Mg0 Mg 0.32819 0.36444 0.10487 0.0
O1 O 0.32204 0.33151 0.0048 0.0
O2 O 0.36922 0.31198 0.00103 0.0
Mg3 Mg 0.40856 0.33623 0.09797 0.0
C4 C 0.33887 0.31368 0.97465 0.0
C5 C 0.25913 0.38667 0.09911 0.0
O6 O 0.28832 0.41816 0.13061 0.0
O7 O 0.3016 0.30639 0.16779 0.0
O8 O 0.35513 0.29566 0.17011 0.0
O9 O 0.37184 0.42265 0.05467 0.0
O10 O 0.39131 0.3839 0.10857 0.0
C11 C 0.31906 0.28702 0.19016 0.0
C12 C 0.4013 0.41617 0.07351 0.0
O13 O 0.26529 0.3577 0.08381 0.0
Mg14 Mg 0.91435 0.32689 0.44827 0.0
O15 O 0.93676 0.31154 0.34894 0.0
O16 O 0.00518 0.34522 0.34769 0.0
Mg17 Mg 0.02684 0.38257 0.44598 0.0
C18 C 0.97098 0.32107 0.3197 0.0
C19 C 0.83516 0.27437 0.369 0.0
O20 O 0.85849 0.301 0.32261 0.0
O21 O 0.93203 0.28794 0.51366 0.0
O22 O 7e-05 0.327 0.51688 0.0
O23 O 0.91457 0.37866 0.39538 0.0
O24 O 0.96799 0.3831 0.45119 0.0
C25 C 0.96719 0.29569 0.53654 0.0
C26 C 0.95254 0.40024 0.41361 0.0
O27 O 0.84946 0.2756 0.42889 0.0
Mg28 Mg 0.65088 0.95606 0.6993 0.0
O29 O 0.60241 0.97476 0.67814 0.0
O30 O 0.58444 0.9644 0.5676 0.0
Mg31 Mg 0.61753 0.93363 0.51896 0.0
C32 C 0.58194 0.97683 0.6275 0.0
C33 C 0.64801 0.00063 0.82826 0.0
O34 O 0.65514 0.0265 0.7782 0.0
O35 O 0.60114 0.88953 0.70358 0.0
O36 O 0.5851 0.87995 0.59174 0.0
O37 O 0.69911 0.01628 0.65929 0.0
O38 O 0.66685 0.96195 0.59506 0.0
C39 C 0.58051 0.86681 0.65355 0.0
C40 C 0.69189 -0.00012 0.5989 0.0
O41 O 0.64477 0.96668 0.81348 0.0
Mg42 Mg 0.64353 0.5944 0.10304 0.0
O43 O 0.64318 0.62676 0.00491 0.0
O44 O 0.591 0.63932 0.00939 0.0
Mg45 Mg 0.55553 0.61194 0.10954 0.0
C46 C 0.62211 0.64125 0.97831 0.0
C47 C 0.71745 0.58039 0.08464 0.0
O48 O 0.6907 0.54716 0.1161 0.0
O49 O 0.66655 0.65125 0.16868 0.0
O50 O 0.60891 0.65486 0.17803 0.0
O51 O 0.60312 0.535 0.05318 0.0
O52 O 0.57966 0.56938 0.11144 0.0
C53 C 0.64623 0.667 0.19461 0.0
C54 C 0.57218 0.53864 0.07415 0.0
O55 O 0.70824 0.6079 0.07471 0.0
Mg56 Mg 0.07673 0.64676 0.42027 0.0
O57 O 0.05104 0.65802 0.32114 0.0
O58 O 0.98267 0.62183 0.32489 0.0
Mg59 Mg 0.96441 0.58479 0.4245 0.0
C60 C 0.01591 0.64672 0.2944 0.0
C61 C 0.15541 0.70999 0.33815 0.0
O62 O 0.13567 0.68721 0.28549 0.0
O63 O 0.05556 0.68356 0.48525 0.0
O64 O 0.98829 0.64056 0.49307 0.0
O65 O 0.08022 0.59538 0.37179 0.0
O66 O 0.02569 0.58949 0.42729 0.0
C67 C 0.02 0.67346 0.51009 0.0
C68 C 0.04259 0.57293 0.39199 0.0
O69 O 0.13921 0.70141 0.39801 0.0
Mg70 Mg 0.45641 0.11563 0.75115 0.0
O71 O 0.48756 0.07902 0.71245 0.0
O72 O 0.50933 0.09787 0.60363 0.0
Mg73 Mg 0.50573 0.15399 0.5796 0.0
C74 C 0.50353 0.07533 0.65609 0.0
C75 C 0.41025 0.08075 0.88178 0.0
O76 O 0.38867 0.09277 0.84525 0.0
O77 O 0.51872 0.1689 0.77922 0.0
O78 O 0.54377 0.17665 0.6773 0.0
O79 O 0.39985 0.07362 0.69756 0.0
O80 O 0.44916 0.12729 0.64551 0.0
C81 C 0.53015 0.18996 0.72449 0.0
C82 C 0.41472 0.09407 0.64135 0.0
O83 O 0.44489 0.0875 0.85822 0.0
Mg84 Mg 0.54459 0.63807 0.56295 0.0
O85 O 0.58402 0.65238 0.65964 0.0
O86 O 0.61934 0.6194 0.65483 0.0
Mg87 Mg 0.60104 0.58221 0.55609 0.0
C88 C 0.60972 0.64322 0.68541 0.0
C89 C 0.52733 0.69944 0.64582 0.0
O90 O 0.52365 0.67585 0.69789 0.0
O91 O 0.60047 0.67699 0.49459 0.0
O92 O 0.6295 0.63816 0.48676 0.0
O93 O 0.49297 0.58523 0.61588 0.0
O94 O 0.54181 0.58229 0.5559 0.0
C95 C 0.62768 0.66956 0.4693 0.0
C96 C 0.50934 0.56423 0.59383 0.0
O97 O 0.53484 0.69124 0.58576 0.0
Mg98 Mg 0.93309 0.59042 0.87923 0.0
O99 O 0.96585 0.62483 0.97568 0.0
O100 O 0.03212 0.64271 0.9691 0.0
Mg101 Mg 0.04176 0.61704 0.86862 0.0
C102 C 0.00185 0.64204 0.00104 0.0
C103 C 0.86283 0.58277 0.96958 0.0
O104 O 0.87856 0.56383 0.0038 0.0
O105 O 0.96223 0.64745 0.812 0.0
O106 O 0.02572 0.6566 0.80114 0.0
O107 O 0.91987 0.53227 0.92917 0.0
O108 O 0.97623 0.57041 0.86906 0.0
C109 C 0.99815 0.66572 0.78499 0.0
C110 C 0.95543 0.53913 0.9072 0.0
O111 O 0.87844 0.59835 0.91135 0.0
Mg112 Mg 0.33266 0.96271 0.28388 0.0
O113 O 0.3957 0.96779 0.29722 0.0
O114 O 0.40219 0.95092 0.40465 0.0
Mg115 Mg 0.34211 0.93435 0.46115 0.0
C116 C 0.4165 0.96253 0.344 0.0
C117 C 0.34062 -0.00015 0.14276 0.0
O118 O 0.32257 0.0153 0.18056 0.0
O119 O 0.30113 0.89355 0.2789 0.0
O120 O 0.30668 0.88117 0.38985 0.0
O121 O 0.35852 0.02571 0.32355 0.0
O122 O 0.32934 0.9714 0.38916 0.0
C123 C 0.29414 0.86896 0.32886 0.0
C124 C 0.34882 0.01 0.38457 0.0
O125 O 0.34654 0.97258 0.16896 0.0
Mg126 Mg 0.40739 0.31863 0.56163 0.0
O127 O 0.36618 0.30032 0.65739 0.0
O128 O 0.32626 0.32847 0.65004 0.0
Mg129 Mg 0.3422 0.36535 0.55079 0.0
C130 C 0.33826 0.30683 0.68196 0.0
C131 C 0.43827 0.27036 0.64689 0.0
O132 O 0.43468 0.29266 0.69492 0.0
O133 O 0.3544 0.2756 0.49303 0.0
O134 O 0.32064 0.3099 0.48194 0.0
O135 O 0.45469 0.37274 0.61557 0.0
O136 O 0.40438 0.37211 0.55493 0.0
C137 C 0.32585 0.28024 0.46595 0.0
C138 C 0.43581 0.39147 0.59435 0.0
O139 O 0.42747 0.27232 0.58553 0.0
Mg140 Mg 0.04424 0.37834 0.89998 0.0
O141 O 0.01346 0.34466 -0.00168 0.0
O142 O 0.94624 0.32217 0.99435 0.0
Mg143 Mg 0.93403 0.34462 0.89222 0.0
C144 C 0.97787 0.32563 0.02538 0.0
C145 C 0.11637 0.39149 0.99057 0.0
O146 O 0.09935 0.40953 0.02392 0.0
O147 O 0.01821 0.32022 0.83731 0.0
O148 O 0.95316 0.30656 0.82657 0.0
O149 O 0.0532 0.43592 0.94543 0.0
O150 O 0.99836 0.39449 0.88631 0.0
C151 C 0.98239 0.29959 0.8113 0.0
C152 C 0.0176 0.42724 0.92113 0.0
O153 O 0.10098 0.37475 0.93325 0.0
Mg154 Mg 0.67996 0.1059 0.24041 0.0
O155 O 0.6135 0.05984 0.27283 0.0
O156 O 0.6041 0.06228 0.38681 0.0
Mg157 Mg 0.65803 0.12199 0.42181 0.0
C158 C 0.59172 0.04621 0.32762 0.0
C159 C 0.65508 0.04986 0.11384 0.0
O160 O 0.65277 0.0254 0.16359 0.0
O161 O 0.66062 0.15388 0.22814 0.0
O162 O 0.63896 0.14784 0.33239 0.0
O163 O 0.70268 0.06657 0.28434 0.0
O164 O 0.69736 0.11222 0.34629 0.0
C165 C 0.66572 0.16937 0.28768 0.0
C166 C 0.70493 0.08277 0.34386 0.0
O167 O 0.66508 0.08598 0.12871 0.0
C168 C 0.32752 0.2484 0.28652 0.0
C169 C 0.30344 0.263 0.25482 0.0
C170 C 0.32934 0.24656 0.35852 0.0
C171 C 0.30699 0.2591 0.40059 0.0
H172 H 0.34939 0.24384 0.25646 0.0
H173 H 0.35274 0.241 0.38047 0.0
S174 S 0.22422 0.27909 0.34241 0.0
N175 N 0.24551 0.27487 0.27038 0.0
N176 N 0.24895 0.27129 0.40576 0.0
C177 C 0.2758 0.26406 0.36934 0.0
C178 C 0.27396 0.266 0.29604 0.0
C179 C 0.00829 0.28904 0.63156 0.0
C180 C 0.96951 0.27559 0.60098 0.0
C181 C 0.01238 0.28974 0.70345 0.0
C182 C 0.97777 0.27699 0.74657 0.0
H183 H 0.03609 0.30426 0.60078 0.0
H184 H 0.0431 0.30583 0.72458 0.0
S185 S 0.86901 0.22037 0.6912 0.0
N186 N 0.89553 0.23526 0.61848 0.0
N187 N 0.90335 0.23662 0.75362 0.0
C188 C 0.93878 0.25469 0.71626 0.0
C189 C 0.93457 0.25399 0.64307 0.0
C190 C 0.64926 0.98915 0.95517 0.0
C191 C 0.64625 0.01198 0.90079 0.0
C192 C 0.65093 0.00107 0.02393 0.0
C193 C 0.64969 0.03633 0.0411 0.0
H194 H 0.65146 0.96238 0.94462 0.0
H195 H 0.65437 0.983 0.06374 0.0
S196 S 0.63649 0.10395 0.91853 0.0
N197 N 0.63824 0.06959 0.86922 0.0
N198 N 0.64153 0.09199 -0.00165 0.0
C199 C 0.64487 0.05851 0.98745 0.0
C200 C 0.6431 0.04633 0.91738 0.0
C201 C 0.68393 0.68029 0.30522 0.0
C202 C 0.66048 0.68979 0.26009 0.0
C203 C 0.67869 0.68061 0.3768 0.0
C204 C 0.64996 0.69052 0.40513 0.0
H205 H 0.70166 0.66688 0.28575 0.0
H206 H 0.69297 0.6678 0.40913 0.0
S207 S 0.59704 0.7361 0.3094 0.0
N208 N 0.61952 0.72309 0.24897 0.0
N209 N 0.60969 0.72384 0.38352 0.0
C210 C 0.63405 0.70891 0.36119 0.0
C211 C 0.63936 0.70851 0.28829 0.0
C212 C 0.04499 0.70808 0.69083 0.0
C213 C 0.00512 0.6889 0.71978 0.0
C214 C 0.0508 0.71001 0.61915 0.0
C215 C 0.01686 0.69292 0.57449 0.0
H216 H 0.07151 0.71646 0.72328 0.0
H217 H 0.08148 0.71957 0.59976 0.0
S218 S 0.90844 0.65783 0.62386 0.0
N219 N 0.93287 0.66625 0.69802 0.0
N220 N 0.94387 0.67012 0.56331 0.0
C221 C 0.97805 0.68256 0.60251 0.0
C222 C 0.97212 0.68055 0.67552 0.0
C223 C 0.34214 0.03983 0.0401 0.0
C224 C 0.35757 0.01753 0.07418 0.0
C225 C 0.35944 0.05994 0.97811 0.0
C226 C 0.39331 0.05908 0.94783 0.0
H227 H 0.31653 0.04206 0.06168 0.0
H228 H 0.34633 0.07675 0.95427 0.0
S229 S 0.44527 0.00467 0.01601 0.0
N230 N 0.40852 0.99528 0.07273 0.0
N231 N 0.44133 0.03344 0.95618 0.0
C232 C 0.40898 0.03664 0.981 0.0
C233 C 0.39099 0.0157 0.04403 0.0
C234 C 0.1652 0.36412 0.99234 0.0
C235 C 0.15222 0.39007 0.02031 0.0
C236 C 0.19904 0.36235 0.01946 0.0
C237 C 0.22157 0.38683 0.07511 0.0
H238 H 0.14915 0.34497 0.94905 0.0
H239 H 0.20816 0.34228 0.99547 0.0
S240 S 0.1994 0.45877 0.16904 0.0
N241 N 0.16392 0.43989 0.10866 0.0
N242 N 0.22762 0.43675 0.15889 0.0
C243 C 0.20861 0.41248 0.10424 0.0
C244 C 0.17393 0.41404 0.07708 0.0
C245 C 0.78249 0.23031 0.28441 0.0
C246 C 0.79221 0.24526 0.35186 0.0
C247 C 0.74171 0.2053 0.26453 0.0
C248 C 0.70886 0.19465 0.31115 0.0
H249 H 0.80665 0.23819 0.24645 0.0
H250 H 0.73603 0.19471 0.2118 0.0
S251 S 0.71831 0.22894 0.49279 0.0
N252 N 0.76621 0.24881 0.46503 0.0
N253 N 0.68923 0.20349 0.42706 0.0
C254 C 0.71832 0.21004 0.37872 0.0
C255 C 0.76004 0.23478 0.39931 0.0
C256 C 0.56639 0.8039 0.71652 0.0
C257 C 0.55625 0.82261 0.66331 0.0
C258 C 0.55365 0.76263 0.71397 0.0
C259 C 0.53069 0.73904 0.65794 0.0
H260 H 0.58713 0.8217 0.75721 0.0
H261 H 0.56477 0.74999 0.75294 0.0
S262 S 0.4875 0.77113 0.51536 0.0
N263 N 0.51481 0.81241 0.5607 0.0
N264 N 0.49218 0.7353 0.55516 0.0
C265 C 0.51665 0.75633 0.60874 0.0
C266 C 0.52899 0.79803 0.61177 0.0
C267 C 0.77001 0.55811 0.0817 0.0
C268 C 0.75613 0.58393 0.05675 0.0
C269 C 0.80478 0.55854 0.05365 0.0
C270 C 0.82692 0.58443 -0.00129 0.0
H271 H 0.75374 0.53709 0.12313 0.0
H272 H 0.81388 0.53777 0.07466 0.0
S273 S 0.80425 0.6591 0.91582 0.0
N274 N 0.76799 0.63717 0.97505 0.0
N275 N 0.83321 0.6376 0.92173 0.0
C276 C 0.81382 0.61092 0.97376 0.0
C277 C 0.77853 0.61081 0.00299 0.0
C278 C 0.20014 0.77319 0.27252 0.0
C279 C 0.1949 0.74709 0.32769 0.0
C280 C 0.23462 0.8119 0.26919 0.0
C281 C 0.26503 0.82536 0.32057 0.0
H282 H 0.17618 0.76472 0.23439 0.0
H283 H 0.23586 0.83223 0.229 0.0
S284 S 0.26968 0.76418 0.46611 0.0
N285 N 0.22547 0.73455 0.42817 0.0
N286 N 0.29093 0.80642 0.421 0.0
C287 C 0.26199 0.79764 0.37166 0.0
C288 C 0.22665 0.75874 0.37562 0.0
C289 C 0.47522 0.20872 0.74592 0.0
C290 C 0.50598 0.20951 0.70252 0.0
C291 C 0.45276 0.22768 0.72668 0.0
C292 C 0.45957 0.2475 0.66294 0.0
H293 H 0.46855 0.19368 0.79553 0.0
H294 H 0.42999 0.22693 0.76214 0.0
S295 S 0.53842 0.26148 0.53281 0.0
N296 N 0.54417 0.23508 0.595 0.0
N297 N 0.49998 0.26836 0.55744 0.0
C298 C 0.48997 0.24856 0.61891 0.0
C299 C 0.51375 0.23031 0.6392 0.0
C300 C 0.30906 0.31733 0.79068 0.0
C301 C 0.32627 0.29683 0.75544 0.0
C302 C 0.30972 0.31943 0.86264 0.0
C303 C 0.32766 0.30116 0.90212 0.0
H304 H 0.29818 0.33487 0.76273 0.0
H305 H 0.2992 0.33836 0.8868 0.0
S306 S 0.3639 0.23276 0.83625 0.0
N307 N 0.35209 0.24957 0.76625 0.0
N308 N 0.35393 0.25414 0.90193 0.0
C309 C 0.33977 0.27612 0.86819 0.0
C310 C 0.33884 0.27372 0.79471 0.0
C311 C 0.93521 0.29873 0.20647 0.0
C312 C 0.97086 0.31049 0.24602 0.0
C313 C 0.93693 0.30023 0.13435 0.0
C314 C 0.97429 0.31318 0.09889 0.0
H315 H 0.90629 0.29136 0.23103 0.0
H316 H 0.90927 0.29394 0.1067 0.0
S317 S 0.07379 0.33552 0.17801 0.0
N318 N 0.04269 0.32727 0.2442 0.0
N319 N 0.04583 0.32926 0.10865 0.0
C320 C 0.00894 0.31974 0.1376 0.0
C321 C 0.00725 0.3186 0.21117 0.0
C322 C 0.70908 0.06302 0.53455 0.0
C323 C 0.70422 0.0241 0.53499 0.0
C324 C 0.71164 0.08279 0.47221 0.0
C325 C 0.70926 0.06426 0.40825 0.0
H326 H 0.70848 0.07736 0.58239 0.0
H327 H 0.71391 0.11218 0.47439 0.0
S328 S 0.70423 0.96548 0.38251 0.0
N329 N 0.7031 0.9701 0.46697 0.0
N330 N 0.70736 0.00689 0.34986 0.0
C331 C 0.70786 0.02672 0.40834 0.0
C332 C 0.7054 0.00672 0.47175 0.0
C333 C 0.60015 0.66644 0.80089 0.0
C334 C 0.62269 0.65445 0.75803 0.0
C335 C 0.60309 0.6659 0.87272 0.0
C336 C 0.62896 0.65366 0.90461 0.0
H337 H 0.57757 0.67324 0.77944 0.0
H338 H 0.58266 0.67232 0.90323 0.0
S339 S 0.70349 0.63112 0.81501 0.0
N340 N 0.67816 0.63845 0.75218 0.0
N341 N 0.68421 0.63787 0.88727 0.0
C342 C 0.65578 0.64696 0.86221 0.0
C343 C 0.65249 0.64721 0.78889 0.0
C344 C 0.04865 0.66862 0.17833 0.0
C345 C 0.01402 0.65684 0.22106 0.0
C346 C 0.04528 0.66749 0.10648 0.0
C347 C 0.00716 0.65481 0.07439 0.0
H348 H 0.07803 0.67567 0.20002 0.0
H349 H 0.07225 0.67381 0.07627 0.0
S350 S 0.90972 0.63235 0.16306 0.0
N351 N 0.94229 0.64019 0.22623 0.0
N352 N 0.93598 0.63886 0.09105 0.0
C353 C 0.97348 0.64817 0.11645 0.0
C354 C 0.97688 0.64893 0.18982 0.0
C355 C 0.34817 0.01544 0.51193 0.0
C356 C 0.36334 0.03446 0.44797 0.0
C357 C 0.36406 0.03564 0.57372 0.0
C358 C 0.39568 0.07595 0.57451 0.0
H359 H 0.32427 0.98424 0.51471 0.0
H360 H 0.35207 0.01886 0.62126 0.0
S361 S 0.44114 0.14181 0.42128 0.0
N362 N 0.40865 0.09738 0.38889 0.0
N363 N 0.43767 0.13597 0.50586 0.0
C364 C 0.40916 0.09639 0.51108 0.0
C365 C 0.39314 0.07553 0.44762 0.0
C366 C 0.47615 0.43726 0.0796 0.0
C367 C 0.44511 0.4463 0.06114 0.0
C368 C 0.51769 0.46697 0.07913 0.0
C369 C 0.52962 0.50691 0.06131 0.0
H370 H 0.46836 0.40741 0.09724 0.0
H371 H 0.54036 0.45911 0.0967 0.0
S372 S 0.46181 0.54544 -0.00118 0.0
N373 N 0.4302 0.49754 0.01661 0.0
N374 N 0.50832 0.55324 0.01686 0.0
C375 C 0.49948 0.51597 0.03865 0.0
C376 C 0.45719 0.48566 0.03814 0.0
C377 C 0.04081 0.50747 0.4049 0.0
C378 C 0.02138 0.52903 0.38305 0.0
C379 C 0.01873 0.4655 0.41162 0.0
C380 C 0.97661 0.44359 0.39562 0.0
H381 H 0.07261 0.52332 0.42117 0.0
H382 H 0.03453 0.45047 0.43223 0.0
S383 S 0.91374 0.48626 0.32475 0.0
N384 N 0.95945 0.52576 0.33757 0.0
N385 N 0.91773 0.44677 0.34889 0.0
C386 C 0.95775 0.4648 0.36847 0.0
C387 C 0.9802 0.5076 0.36263 0.0
C388 C 0.55033 0.01576 0.57931 0.0
C389 C 0.55781 -0.00211 0.63676 0.0
C390 C 0.53096 0.0389 0.58613 0.0
C391 C 0.51876 0.04599 0.65109 0.0
H392 H 0.56121 0.0135 0.52872 0.0
H393 H 0.52682 0.05243 0.53984 0.0
S394 S 0.53005 0.0049 0.81836 0.0
N395 N 0.55007 0.98741 0.761 0.0
N396 N 0.5144 0.03194 0.77431 0.0
C397 C 0.52504 0.02746 0.70917 0.0
C398 C 0.5446 0.00344 0.70198 0.0
C399 C 0.51436 0.50156 0.60291 0.0
C400 C 0.49026 0.52049 0.60715 0.0
C401 C 0.49635 0.45961 0.60332 0.0
C402 C 0.45349 0.43499 0.60681 0.0
H403 H 0.54733 0.5191 0.59717 0.0
H404 H 0.51609 0.44644 0.59695 0.0
S405 S 0.37702 0.46931 0.62982 0.0
N406 N 0.42152 0.51131 0.62333 0.0
N407 N 0.38771 0.43224 0.62361 0.0
C408 C 0.42915 0.45334 0.61576 0.0
C409 C 0.44756 0.4962 0.6163 0.0
C410 C 0.94501 0.46974 0.90508 0.0
C411 C 0.97028 0.51051 0.92106 0.0
C412 C 0.96008 0.44261 0.908 0.0
C413 C 0.00075 0.45512 0.92833 0.0
H414 H 0.91398 0.45912 0.88685 0.0
H415 H 0.93996 0.41194 0.89203 0.0
S416 S 0.07709 0.55799 0.98555 0.0
N417 N 0.03617 0.56155 0.96467 0.0
N418 N 0.06469 0.51067 0.9714 0.0
C419 C 0.02544 0.49546 0.94886 0.0
C420 C 0.01018 0.52317 0.94477 0.0
C421 C 0.52426 0.02466 0.27335 0.0
C422 C 0.54776 0.01675 0.32077 0.0
C423 C 0.48132 0.00462 0.27797 0.0
C424 C 0.46044 0.97597 0.33029 0.0
H425 H 0.53919 0.04874 0.23587 0.0
H426 H 0.46474 0.0138 0.24329 0.0
S427 S 0.5078 0.93637 0.45353 0.0
N428 N 0.54724 0.97284 0.41189 0.0
N429 N 0.46629 0.93494 0.42106 0.0
C430 C 0.48351 0.96474 0.37309 0.0
C431 C 0.52729 0.98525 0.36829 0.0
loop_
_geom_bond_atom_site_label_1
_geom_bond_atom_site_label_2
_geom_bond_distance
_geom_bond_site_symmetry_2
_ccdc_geom_bond_type
Mg0 O1 2.028 1_554 S
Mg0 O7 1.986 . S
Mg0 O9 2.114 . S
Mg0 O10 2.251 . S
Mg0 O13 2.010 . S
O1 Mg0 2.028 1_556 S
O1 C4 1.250 . S
O2 Mg3 2.028 1_556 S
O2 C4 1.248 . S
Mg3 O2 2.028 1_554 S
Mg3 O8 2.032 . S
Mg3 O10 2.079 . S
C4 O1 1.250 . S
C4 O2 1.248 . S
C5 O6 1.264 . S
C5 O13 1.249 . S
O6 C5 1.264 . S
O7 Mg0 1.986 . S
O7 C11 1.246 . S
O8 Mg3 2.032 . S
O8 C11 1.259 . S
O9 Mg0 2.114 . S
O9 C12 1.252 . S
O10 Mg0 2.251 . S
O10 Mg3 2.079 . S
O10 C12 1.273 . S
C11 O7 1.246 . S
C11 O8 1.259 . S
C12 O9 1.252 . S
C12 O10 1.273 . S
O13 Mg0 2.010 . S
O13 C5 1.249 . S
Mg14 O15 2.028 . S
Mg14 O21 1.986 . S
Mg14 O23 2.114 . S
Mg14 O24 2.251 . S
Mg14 O27 2.010 . S
O15 Mg14 2.028 . S
O15 C18 1.250 . S
O16 Mg17 2.028 . S
O16 C18 1.248 1_455 S
Mg17 O16 2.028 . S
Mg17 O22 2.032 . S
Mg17 O24 2.079 1_455 S
C18 O15 1.250 . S
C18 O16 1.248 1_655 S
C19 O20 1.264 . S
C19 O27 1.249 . S
O20 C19 1.264 . S
O21 Mg14 1.986 . S
O21 C25 1.246 . S
O22 Mg17 2.032 . S
O22 C25 1.259 1_455 S
O23 Mg14 2.114 . S
O23 C26 1.252 . S
O24 Mg14 2.251 . S
O24 Mg17 2.079 1_655 S
O24 C26 1.273 . S
C25 O21 1.246 . S
C25 O22 1.259 1_655 S
C26 O23 1.252 . S
C26 O24 1.273 . S
O27 Mg14 2.010 . S
O27 C19 1.249 . S
Mg28 O29 2.028 . S
Mg28 O35 1.986 . S
Mg28 O37 2.114 1_565 S
Mg28 O38 2.251 . S
Mg28 O41 2.010 . S
O29 Mg28 2.028 . S
O29 C32 1.250 . S
O30 Mg31 2.028 . S
O30 C32 1.248 . S
Mg31 O30 2.028 . S
Mg31 O36 2.032 . S
Mg31 O38 2.079 . S
C32 O29 1.250 . S
C32 O30 1.248 . S
C33 O34 1.264 1_565 S
C33 O41 1.249 . S
O34 C33 1.264 1_545 S
O35 Mg28 1.986 . S
O35 C39 1.246 . S
O36 Mg31 2.032 . S
O36 C39 1.259 . S
O37 Mg28 2.114 1_545 S
O37 C40 1.252 1_545 S
O38 Mg28 2.251 . S
O38 Mg31 2.079 . S
O38 C40 1.273 . S
C39 O35 1.246 . S
C39 O36 1.259 . S
C40 O37 1.252 1_565 S
C40 O38 1.273 . S
O41 Mg28 2.010 . S
O41 C33 1.249 . S
Mg42 O43 2.028 1_554 S
Mg42 O49 1.986 . S
Mg42 O51 2.114 . S
Mg42 O52 2.251 . S
Mg42 O55 2.010 . S
O43 Mg42 2.028 1_556 S
O43 C46 1.250 . S
O44 Mg45 2.028 1_556 S
O44 C46 1.248 . S
Mg45 O44 2.028 1_554 S
Mg45 O50 2.032 . S
Mg45 O52 2.079 . S
C46 O43 1.250 . S
C46 O44 1.248 . S
C47 O48 1.264 . S
C47 O55 1.249 . S
O48 C47 1.264 . S
O49 Mg42 1.986 . S
O49 C53 1.246 . S
O50 Mg45 2.032 . S
O50 C53 1.259 . S
O51 Mg42 2.114 . S
O51 C54 1.252 . S
O52 Mg42 2.251 . S
O52 Mg45 2.079 . S
O52 C54 1.273 . S
C53 O49 1.246 . S
C53 O50 1.259 . S
C54 O51 1.252 . S
C54 O52 1.273 . S
O55 Mg42 2.010 . S
O55 C47 1.249 . S
Mg56 O57 2.028 . S
Mg56 O63 1.986 . S
Mg56 O65 2.114 . S
Mg56 O66 2.251 . S
Mg56 O69 2.010 . S
O57 Mg56 2.028 . S
O57 C60 1.250 . S
O58 Mg59 2.028 . S
O58 C60 1.248 1_655 S
Mg59 O58 2.028 . S
Mg59 O64 2.032 . S
Mg59 O66 2.079 1_655 S
C60 O57 1.250 . S
C60 O58 1.248 1_455 S
C61 O62 1.264 . S
C61 O69 1.249 . S
O62 C61 1.264 . S
O63 Mg56 1.986 . S
O63 C67 1.246 . S
O64 Mg59 2.032 . S
O64 C67 1.259 1_655 S
O65 Mg56 2.114 . S
O65 C68 1.252 . S
O66 Mg56 2.251 . S
O66 Mg59 2.079 1_455 S
O66 C68 1.273 . S
C67 O63 1.246 . S
C67 O64 1.259 1_455 S
C68 O65 1.252 . S
C68 O66 1.273 . S
O69 Mg56 2.010 . S
O69 C61 1.249 . S
Mg70 O71 2.028 . S
Mg70 O77 1.986 . S
Mg70 O79 2.114 1_545 S
Mg70 O80 2.251 . S
Mg70 O83 2.010 . S
O71 Mg70 2.028 . S
O71 C74 1.250 . S
O72 Mg73 2.028 . S
O72 C74 1.248 . S
Mg73 O72 2.028 . S
Mg73 O78 2.032 . S
Mg73 O80 2.079 . S
C74 O71 1.250 . S
C74 O72 1.248 . S
C75 O76 1.264 1_545 S
C75 O83 1.249 . S
O76 C75 1.264 1_565 S
O77 Mg70 1.986 . S
O77 C81 1.246 . S
O78 Mg73 2.032 . S
O78 C81 1.259 . S
O79 Mg70 2.114 1_565 S
O79 C82 1.252 1_565 S
O80 Mg70 2.251 . S
O80 Mg73 2.079 . S
O80 C82 1.273 . S
C81 O77 1.246 . S
C81 O78 1.259 . S
C82 O79 1.252 1_545 S
C82 O80 1.273 . S
O83 Mg70 2.010 . S
O83 C75 1.249 . S
Mg84 O85 2.028 . S
Mg84 O91 1.986 . S
Mg84 O93 2.114 . S
Mg84 O94 2.251 . S
Mg84 O97 2.010 . S
O85 Mg84 2.028 . S
O85 C88 1.250 . S
O86 Mg87 2.028 . S
O86 C88 1.248 . S
Mg87 O86 2.028 . S
Mg87 O92 2.032 . S
Mg87 O94 2.079 . S
C88 O85 1.250 . S
C88 O86 1.248 . S
C89 O90 1.264 . S
C89 O97 1.249 . S
O90 C89 1.264 . S
O91 Mg84 1.986 . S
O91 C95 1.246 . S
O92 Mg87 2.032 . S
O92 C95 1.259 . S
O93 Mg84 2.114 . S
O93 C96 1.252 . S
O94 Mg84 2.251 . S
O94 Mg87 2.079 . S
O94 C96 1.273 . S
C95 O91 1.246 . S
C95 O92 1.259 . S
C96 O93 1.252 . S
C96 O94 1.273 . S
O97 Mg84 2.010 . S
O97 C89 1.249 . S
Mg98 O99 2.028 1_556 S
Mg98 O105 1.986 . S
Mg98 O107 2.114 . S
Mg98 O108 2.251 . S
Mg98 O111 2.010 . S
O99 Mg98 2.028 1_554 S
O99 C102 1.250 1_655 S
O100 Mg101 2.028 1_554 S
O100 C102 1.248 . S
Mg101 O100 2.028 1_556 S
Mg101 O106 2.032 . S
Mg101 O108 2.079 1_455 S
C102 O99 1.250 1_455 S
C102 O100 1.248 . S
C103 O104 1.264 . S
C103 O111 1.249 . S
O104 C103 1.264 . S
O105 Mg98 1.986 . S
O105 C109 1.246 1_655 S
O106 Mg101 2.032 . S
O106 C109 1.259 . S
O107 Mg98 2.114 . S
O107 C110 1.252 . S
O108 Mg98 2.251 . S
O108 Mg101 2.079 1_655 S
O108 C110 1.273 . S
C109 O105 1.246 1_455 S
C109 O106 1.259 . S
C110 O107 1.252 . S
C110 O108 1.273 . S
O111 Mg98 2.010 . S
O111 C103 1.249 . S
Mg112 O113 2.028 . S
Mg112 O119 1.986 . S
Mg112 O121 2.114 1_565 S
Mg112 O122 2.251 . S
Mg112 O125 2.010 . S
O113 Mg112 2.028 . S
O113 C116 1.250 . S
O114 Mg115 2.028 . S
O114 C116 1.248 . S
Mg115 O114 2.028 . S
Mg115 O120 2.032 . S
Mg115 O122 2.079 . S
C116 O113 1.250 . S
C116 O114 1.248 . S
C117 O118 1.264 1_565 S
C117 O125 1.249 . S
O118 C117 1.264 1_545 S
O119 Mg112 1.986 . S
O119 C123 1.246 . S
O120 Mg115 2.032 . S
O120 C123 1.259 . S
O121 Mg112 2.114 1_545 S
O121 C124 1.252 1_545 S
O122 Mg112 2.251 . S
O122 Mg115 2.079 . S
O122 C124 1.273 . S
C123 O119 1.246 . S
C123 O120 1.259 . S
C124 O121 1.252 1_565 S
C124 O122 1.273 . S
O125 Mg112 2.010 . S
O125 C117 1.249 . S
Mg126 O127 2.028 . S
Mg126 O133 1.986 . S
Mg126 O135 2.114 . S
Mg126 O136 2.251 . S
Mg126 O139 2.010 . S
O127 Mg126 2.028 . S
O127 C130 1.250 . S
O128 Mg129 2.028 . S
O128 C130 1.248 . S
Mg129 O128 2.028 . S
Mg129 O134 2.032 . S
Mg129 O136 2.079 . S
C130 O127 1.250 . S
C130 O128 1.248 . S
C131 O132 1.264 . S
C131 O139 1.249 . S
O132 C131 1.264 . S
O133 Mg126 1.986 . S
O133 C137 1.246 . S
O134 Mg129 2.032 . S
O134 C137 1.259 . S
O135 Mg126 2.114 . S
O135 C138 1.252 . S
O136 Mg126 2.251 . S
O136 Mg129 2.079 . S
O136 C138 1.273 . S
C137 O133 1.246 . S
C137 O134 1.259 . S
C138 O135 1.252 . S
C138 O136 1.273 . S
O139 Mg126 2.010 . S
O139 C131 1.249 . S
Mg140 O141 2.028 1_556 S
Mg140 O147 1.986 . S
Mg140 O149 2.114 . S
Mg140 O150 2.251 . S
Mg140 O153 2.010 . S
O141 Mg140 2.028 1_554 S
O141 C144 1.250 1_455 S
O142 Mg143 2.028 1_554 S
O142 C144 1.248 . S
Mg143 O142 2.028 1_556 S
Mg143 O148 2.032 . S
Mg143 O150 2.079 1_655 S
C144 O141 1.250 1_655 S
C144 O142 1.248 . S
C145 O146 1.264 . S
C145 O153 1.249 . S
O146 C145 1.264 . S
O147 Mg140 1.986 . S
O147 C151 1.246 1_455 S
O148 Mg143 2.032 . S
O148 C151 1.259 . S
O149 Mg140 2.114 . S
O149 C152 1.252 . S
O150 Mg140 2.251 . S
O150 Mg143 2.079 1_455 S
O150 C152 1.273 . S
C151 O147 1.246 1_655 S
C151 O148 1.259 . S
C152 O149 1.252 . S
C152 O150 1.273 . S
O153 Mg140 2.010 . S
O153 C145 1.249 . S
Mg154 O155 2.028 . S
Mg154 O161 1.986 . S
Mg154 O163 2.114 1_545 S
Mg154 O164 2.251 . S
Mg154 O167 2.010 . S
O155 Mg154 2.028 . S
O155 C158 1.250 . S
O156 Mg157 2.028 . S
O156 C158 1.248 . S
Mg157 O156 2.028 . S
Mg157 O162 2.032 . S
Mg157 O164 2.079 . S
C158 O155 1.250 . S
C158 O156 1.248 . S
C159 O160 1.264 1_545 S
C159 O167 1.249 . S
O160 C159 1.264 1_565 S
O161 Mg154 1.986 . S
O161 C165 1.246 . S
O162 Mg157 2.032 . S
O162 C165 1.259 . S
O163 Mg154 2.114 1_565 S
O163 C166 1.252 1_565 S
O164 Mg154 2.251 . S
O164 Mg157 2.079 . S
O164 C166 1.273 . S
C165 O161 1.246 . S
C165 O162 1.259 . S
C166 O163 1.252 1_545 S
C166 O164 1.273 . S
O167 Mg154 2.010 . S
O167 C159 1.249 . S
C168 C169 1.369 . S
C168 C170 1.419 . S
C168 H172 0.930 . S
C169 C168 1.369 . S
C169 C178 1.429 . S
C170 C168 1.419 . S
C170 C171 1.363 . S
C170 H173 0.929 . S
C171 C170 1.363 . S
C171 C177 1.428 . S
H172 C168 0.930 . S
H173 C170 0.929 . S
S174 N175 1.613 . S
S174 N176 1.610 . S
N175 S174 1.613 . S
N175 C178 1.350 . S
N176 S174 1.610 . S
N176 C177 1.351 . S
C177 C171 1.428 . S
C177 N176 1.351 . S
C177 C178 1.434 . S
C178 C169 1.429 . S
C178 N175 1.350 . S
C178 C177 1.434 . S
C179 C180 1.369 1_455 S
C179 C181 1.419 . S
C179 H183 0.930 . S
C180 C179 1.369 1_655 S
C180 C189 1.429 . S
C181 C179 1.419 . S
C181 C182 1.363 1_455 S
C181 H184 0.929 . S
C182 C181 1.363 1_655 S
C182 C188 1.428 . S
H183 C179 0.930 . S
H184 C181 0.929 . S
S185 N186 1.613 . S
S185 N187 1.610 . S
N186 S185 1.613 . S
N186 C189 1.350 . S
N187 S185 1.610 . S
N187 C188 1.351 . S
C188 C182 1.428 . S
C188 N187 1.351 . S
C188 C189 1.434 . S
C189 C180 1.429 . S
C189 N186 1.350 . S
C189 C188 1.434 . S
C190 C191 1.369 . S
C190 C192 1.419 1_556 S
C190 H194 0.930 . S
C191 C190 1.369 . S
C191 C200 1.429 1_565 S
C192 C190 1.419 1_554 S
C192 C193 1.363 1_565 S
C192 H195 0.929 . S
C193 C192 1.363 1_545 S
C193 C199 1.428 . S
H194 C190 0.930 . S
H195 C192 0.929 . S
S196 N197 1.613 . S
S196 N198 1.610 1_556 S
N197 S196 1.613 . S
N197 C200 1.350 . S
N198 S196 1.610 1_554 S
N198 C199 1.351 . S
C199 C193 1.428 . S
C199 N198 1.351 . S
C199 C200 1.434 1_554 S
C200 C191 1.429 1_545 S
C200 N197 1.350 . S
C200 C199 1.434 1_556 S
C201 C202 1.369 . S
C201 C203 1.419 . S
C201 H205 0.930 . S
C202 C201 1.369 . S
C202 C211 1.429 . S
C203 C201 1.419 . S
C203 C204 1.363 . S
C203 H206 0.929 . S
C204 C203 1.363 . S
C204 C210 1.428 . S
H205 C201 0.930 . S
H206 C203 0.929 . S
S207 N208 1.613 . S
S207 N209 1.610 . S
N208 S207 1.613 . S
N208 C211 1.350 . S
N209 S207 1.610 . S
N209 C210 1.351 . S
C210 C204 1.428 . S
C210 N209 1.351 . S
C210 C211 1.434 . S
C211 C202 1.429 . S
C211 N208 1.350 . S
C211 C210 1.434 . S
C212 C213 1.369 . S
C212 C214 1.419 . S
C212 H216 0.930 . S
C213 C212 1.369 . S
C213 C222 1.429 1_455 S
C214 C212 1.419 . S
C214 C215 1.363 . S
C214 H217 0.929 . S
C215 C214 1.363 . S
C215 C221 1.428 1_455 S
H216 C212 0.930 . S
H217 C214 0.929 . S
S218 N219 1.613 . S
S218 N220 1.610 . S
N219 S218 1.613 . S
N219 C222 1.350 . S
N220 S218 1.610 . S
N220 C221 1.351 . S
C221 C215 1.428 1_655 S
C221 N220 1.351 . S
C221 C222 1.434 . S
C222 C213 1.429 1_655 S
C222 N219 1.350 . S
C222 C221 1.434 . S
C223 C224 1.369 . S
C223 C225 1.419 1_554 S
C223 H227 0.930 . S
C224 C223 1.369 . S
C224 C233 1.429 1_565 S
C225 C223 1.419 1_556 S
C225 C226 1.363 1_565 S
C225 H228 0.929 . S
C226 C225 1.363 1_545 S
C226 C232 1.428 . S
H227 C223 0.930 . S
H228 C225 0.929 . S
S229 N230 1.613 . S
S229 N231 1.610 1_554 S
N230 S229 1.613 . S
N230 C233 1.350 . S
N231 S229 1.610 1_556 S
N231 C232 1.351 . S
C232 C226 1.428 . S
C232 N231 1.351 . S
C232 C233 1.434 1_556 S
C233 C224 1.429 1_545 S
C233 N230 1.350 . S
C233 C232 1.434 1_554 S
C234 C235 1.369 . S
C234 C236 1.419 . S
C234 H238 0.930 . S
C235 C234 1.369 . S
C235 C244 1.429 1_556 S
C236 C234 1.419 . S
C236 C237 1.363 1_556 S
C236 H239 0.929 . S
C237 C236 1.363 1_554 S
C237 C243 1.428 . S
H238 C234 0.930 . S
H239 C236 0.929 . S
S240 N241 1.613 . S
S240 N242 1.610 . S
N241 S240 1.613 . S
N241 C244 1.350 . S
N242 S240 1.610 . S
N242 C243 1.351 . S
C243 C237 1.428 . S
C243 N242 1.351 . S
C243 C244 1.434 . S
C244 C235 1.429 1_554 S
C244 N241 1.350 . S
C244 C243 1.434 . S
C245 C246 1.369 . S
C245 C247 1.419 . S
C245 H249 0.930 . S
C246 C245 1.369 . S
C246 C255 1.429 . S
C247 C245 1.419 . S
C247 C248 1.363 . S
C247 H250 0.929 . S
C248 C247 1.363 . S
C248 C254 1.428 . S
H249 C245 0.930 . S
H250 C247 0.929 . S
S251 N252 1.613 . S
S251 N253 1.610 . S
N252 S251 1.613 . S
N252 C255 1.350 . S
N253 S251 1.610 . S
N253 C254 1.351 . S
C254 C248 1.428 . S
C254 N253 1.351 . S
C254 C255 1.434 . S
C255 C246 1.429 . S
C255 N252 1.350 . S
C255 C254 1.434 . S
C256 C257 1.369 . S
C256 C258 1.419 . S
C256 H260 0.930 . S
C257 C256 1.369 . S
C257 C266 1.429 . S
C258 C256 1.419 . S
C258 C259 1.363 . S
C258 H261 0.929 . S
C259 C258 1.363 . S
C259 C265 1.428 . S
H260 C256 0.930 . S
H261 C258 0.929 . S
S262 N263 1.613 . S
S262 N264 1.610 . S
N263 S262 1.613 . S
N263 C266 1.350 . S
N264 S262 1.610 . S
N264 C265 1.351 . S
C265 C259 1.428 . S
C265 N264 1.351 . S
C265 C266 1.434 . S
C266 C257 1.429 . S
C266 N263 1.350 . S
C266 C265 1.434 . S
C267 C268 1.369 . S
C267 C269 1.419 . S
C267 H271 0.930 . S
C268 C267 1.369 . S
C268 C277 1.429 1_554 S
C269 C267 1.419 . S
C269 C270 1.363 1_554 S
C269 H272 0.929 . S
C270 C269 1.363 1_556 S
C270 C276 1.428 . S
H271 C267 0.930 . S
H272 C269 0.929 . S
S273 N274 1.613 . S
S273 N275 1.610 . S
N274 S273 1.613 . S
N274 C277 1.350 . S
N275 S273 1.610 . S
N275 C276 1.351 . S
C276 C270 1.428 . S
C276 N275 1.351 . S
C276 C277 1.434 . S
C277 C268 1.429 1_556 S
C277 N274 1.350 . S
C277 C276 1.434 . S
C278 C279 1.369 . S
C278 C280 1.419 . S
C278 H282 0.930 . S
C279 C278 1.369 . S
C279 C288 1.429 . S
C280 C278 1.419 . S
C280 C281 1.363 . S
C280 H283 0.929 . S
C281 C280 1.363 . S
C281 C287 1.428 . S
H282 C278 0.930 . S
H283 C280 0.929 . S
S284 N285 1.613 . S
S284 N286 1.610 . S
N285 S284 1.613 . S
N285 C288 1.350 . S
N286 S284 1.610 . S
N286 C287 1.351 . S
C287 C281 1.428 . S
C287 N286 1.351 . S
C287 C288 1.434 . S
C288 C279 1.429 . S
C288 N285 1.350 . S
C288 C287 1.434 . S
C289 C290 1.369 . S
C289 C291 1.419 . S
C289 H293 0.930 . S
C290 C289 1.369 . S
C290 C299 1.429 . S
C291 C289 1.419 . S
C291 C292 1.363 . S
C291 H294 0.929 . S
C292 C291 1.363 . S
C292 C298 1.428 . S
H293 C289 0.930 . S
H294 C291 0.929 . S
S295 N296 1.613 . S
S295 N297 1.610 . S
N296 S295 1.613 . S
N296 C299 1.350 . S
N297 S295 1.610 . S
N297 C298 1.351 . S
C298 C292 1.428 . S
C298 N297 1.351 . S
C298 C299 1.434 . S
C299 C290 1.429 . S
C299 N296 1.350 . S
C299 C298 1.434 . S
C300 C301 1.369 . S
C300 C302 1.419 . S
C300 H304 0.930 . S
C301 C300 1.369 . S
C301 C310 1.429 . S
C302 C300 1.419 . S
C302 C303 1.363 . S
C302 H305 0.929 . S
C303 C302 1.363 . S
C303 C309 1.428 . S
H304 C300 0.930 . S
H305 C302 0.929 . S
S306 N307 1.613 . S
S306 N308 1.610 . S
N307 S306 1.613 . S
N307 C310 1.350 . S
N308 S306 1.610 . S
N308 C309 1.351 . S
C309 C303 1.428 . S
C309 N308 1.351 . S
C309 C310 1.434 . S
C310 C301 1.429 . S
C310 N307 1.350 . S
C310 C309 1.434 . S
C311 C312 1.369 . S
C311 C313 1.419 . S
C311 H315 0.930 . S
C312 C311 1.369 . S
C312 C321 1.429 1_655 S
C313 C311 1.419 . S
C313 C314 1.363 . S
C313 H316 0.929 . S
C314 C313 1.363 . S
C314 C320 1.428 1_655 S
H315 C311 0.930 . S
H316 C313 0.929 . S
S317 N318 1.613 . S
S317 N319 1.610 . S
N318 S317 1.613 . S
N318 C321 1.350 . S
N319 S317 1.610 . S
N319 C320 1.351 . S
C320 C314 1.428 1_455 S
C320 N319 1.351 . S
C320 C321 1.434 . S
C321 C312 1.429 1_455 S
C321 N318 1.350 . S
C321 C320 1.434 . S
C322 C323 1.369 . S
C322 C324 1.419 . S
C322 H326 0.930 . S
C323 C322 1.369 . S
C323 C332 1.429 1_545 S
C324 C322 1.419 . S
C324 C325 1.363 1_545 S
C324 H327 0.929 . S
C325 C324 1.363 1_565 S
C325 C331 1.428 . S
H326 C322 0.930 . S
H327 C324 0.929 . S
S328 N329 1.613 . S
S328 N330 1.610 . S
N329 S328 1.613 . S
N329 C332 1.350 . S
N330 S328 1.610 . S
N330 C331 1.351 . S
C331 C325 1.428 . S
C331 N330 1.351 . S
C331 C332 1.434 . S
C332 C323 1.429 1_565 S
C332 N329 1.350 . S
C332 C331 1.434 . S
C333 C334 1.369 . S
C333 C335 1.419 . S
C333 H337 0.930 . S
C334 C333 1.369 . S
C334 C343 1.429 . S
C335 C333 1.419 . S
C335 C336 1.363 . S
C335 H338 0.929 . S
C336 C335 1.363 . S
C336 C342 1.428 . S
H337 C333 0.930 . S
H338 C335 0.929 . S
S339 N340 1.613 . S
S339 N341 1.610 . S
N340 S339 1.613 . S
N340 C343 1.350 . S
N341 S339 1.610 . S
N341 C342 1.351 . S
C342 C336 1.428 . S
C342 N341 1.351 . S
C342 C343 1.434 . S
C343 C334 1.429 . S
C343 N340 1.350 . S
C343 C342 1.434 . S
C344 C345 1.369 . S
C344 C346 1.419 . S
C344 H348 0.930 . S
C345 C344 1.369 . S
C345 C354 1.429 1_455 S
C346 C344 1.419 . S
C346 C347 1.363 . S
C346 H349 0.929 . S
C347 C346 1.363 . S
C347 C353 1.428 1_455 S
H348 C344 0.930 . S
H349 C346 0.929 . S
S350 N351 1.613 . S
S350 N352 1.610 . S
N351 S350 1.613 . S
N351 C354 1.350 . S
N352 S350 1.610 . S
N352 C353 1.351 . S
C353 C347 1.428 1_655 S
C353 N352 1.351 . S
C353 C354 1.434 . S
C354 C345 1.429 1_655 S
C354 N351 1.350 . S
C354 C353 1.434 . S
C355 C356 1.369 1_565 S
C355 C357 1.419 . S
C355 H359 0.930 . S
C356 C355 1.369 1_545 S
C356 C365 1.429 . S
C357 C355 1.419 . S
C357 C358 1.363 . S
C357 H360 0.929 . S
C358 C357 1.363 . S
C358 C364 1.428 1_565 S
H359 C355 0.930 . S
H360 C357 0.929 . S
S361 N362 1.613 . S
S361 N363 1.610 . S
N362 S361 1.613 . S
N362 C365 1.350 . S
N363 S361 1.610 . S
N363 C364 1.351 . S
C364 C358 1.428 1_545 S
C364 N363 1.351 . S
C364 C365 1.434 . S
C365 C356 1.429 . S
C365 N362 1.350 . S
C365 C364 1.434 . S
C366 C367 1.369 . S
C366 C368 1.419 . S
C366 H370 0.930 . S
C367 C366 1.369 . S
C367 C376 1.429 1_554 S
C368 C366 1.419 . S
C368 C369 1.363 . S
C368 H371 0.929 . S
C369 C368 1.363 . S
C369 C375 1.428 1_554 S
H370 C366 0.930 . S
H371 C368 0.929 . S
S372 N373 1.613 . S
S372 N374 1.610 . S
N373 S372 1.613 . S
N373 C376 1.350 . S
N374 S372 1.610 . S
N374 C375 1.351 . S
C375 C369 1.428 1_556 S
C375 N374 1.351 . S
C375 C376 1.434 . S
C376 C367 1.429 1_556 S
C376 N373 1.350 . S
C376 C375 1.434 . S
C377 C378 1.369 . S
C377 C379 1.418 1_455 S
C377 H381 0.930 . S
C378 C377 1.369 . S
C378 C387 1.424 1_455 S
C379 C377 1.418 1_655 S
C379 C380 1.363 . S
C379 H382 0.929 1_655 S
C380 C379 1.363 . S
C380 C386 1.428 . S
H381 C377 0.930 . S
H382 C379 0.929 1_455 S
S383 N384 1.613 . S
S383 N385 1.610 . S
N384 S383 1.613 . S
N384 C387 1.353 . S
N385 S383 1.610 . S
N385 C386 1.351 . S
C386 C380 1.428 . S
C386 N385 1.351 . S
C386 C387 1.436 . S
C387 C378 1.424 1_655 S
C387 N384 1.353 . S
C387 C386 1.436 . S
C388 C389 1.355 1_545 S
C388 C390 1.439 . S
C388 H392 0.924 . S
C389 C388 1.355 1_565 S
C389 C398 1.429 . S
C390 C388 1.439 . S
C390 C391 1.363 . S
C390 H393 0.929 . S
C391 C390 1.363 . S
C391 C397 1.428 1_545 S
H392 C388 0.924 . S
H393 C390 0.929 . S
S394 N395 1.613 . S
S394 N396 1.610 . S
N395 S394 1.613 . S
N395 C398 1.350 . S
N396 S394 1.610 . S
N396 C397 1.351 . S
C397 C391 1.428 1_565 S
C397 N396 1.351 . S
C397 C398 1.434 . S
C398 C389 1.429 . S
C398 N395 1.350 . S
C398 C397 1.434 . S
C399 C400 1.369 . S
C399 C401 1.419 . S
C399 H403 0.930 . S
C400 C399 1.369 . S
C400 C409 1.429 . S
C401 C399 1.419 . S
C401 C402 1.363 . S
C401 H404 0.929 . S
C402 C401 1.363 . S
C402 C408 1.428 . S
H403 C399 0.930 . S
H404 C401 0.929 . S
S405 N406 1.613 . S
S405 N407 1.610 . S
N406 S405 1.613 . S
N406 C409 1.350 . S
N407 S405 1.610 . S
N407 C408 1.351 . S
C408 C402 1.428 . S
C408 N407 1.351 . S
C408 C409 1.434 . S
C409 C400 1.429 . S
C409 N406 1.350 . S
C409 C408 1.434 . S
C410 C411 1.369 . S
C410 C412 1.419 . S
C410 H414 0.930 . S
C411 C410 1.369 . S
C411 C420 1.429 1_655 S
C412 C410 1.419 . S
C412 C413 1.363 1_655 S
C412 H415 0.929 . S
C413 C412 1.363 1_455 S
C413 C419 1.428 . S
H414 C410 0.930 . S
H415 C412 0.929 . S
S416 N417 1.613 . S
S416 N418 1.610 . S
N417 S416 1.613 . S
N417 C420 1.350 . S
N418 S416 1.610 . S
N418 C419 1.351 . S
C419 C413 1.428 . S
C419 N418 1.351 . S
C419 C420 1.434 . S
C420 C411 1.429 1_455 S
C420 N417 1.350 . S
C420 C419 1.434 . S
C421 C422 1.369 . S
C421 C423 1.419 1_545 S
C421 H425 0.930 . S
C422 C421 1.369 . S
C422 C431 1.429 . S
C423 C421 1.419 1_565 S
C423 C424 1.363 . S
C423 H426 0.929 . S
C424 C423 1.363 . S
C424 C430 1.428 . S
H425 C421 0.930 . S
H426 C423 0.929 . S
S427 N428 1.613 1_565 S
S427 N429 1.610 . S
N428 S427 1.613 1_545 S
N428 C431 1.350 . S
N429 S427 1.610 . S
N429 C430 1.351 . S
C430 C424 1.428 . S
C430 N429 1.351 . S
C430 C431 1.434 1_565 S
C431 C422 1.429 . S
C431 N428 1.350 . S
C431 C430 1.434 1_545 S
C169 C11 1.643 . S
C171 C137 1.652 . S
C180 C25 1.645 . S
C182 C151 1.638 . S
C191 C33 1.113 . S
C193 C159 1.109 . S
C202 C53 1.640 . S
C204 C95 1.646 . S
C213 C109 1.637 . S
C215 C67 1.648 . S
C224 C117 1.115 . S
C226 C75 1.111 . S
C235 C145 1.201 . S
C237 C5 1.201 . S
C246 C19 1.194 . S
C248 C165 1.332 . S
C257 C39 1.339 . S
C259 C89 1.201 . S
C268 C47 1.213 . S
C270 C103 1.200 . S
C279 C61 1.198 . S
C281 C123 1.332 . S
C290 C81 1.331 . S
C292 C131 1.192 . S
C301 C130 1.179 . S
C303 C4 1.174 . S
C312 C18 1.172 . S
C314 C144 1.164 . S
C323 C40 0.881 1_545 S
C325 C166 0.890 1_565 S
C334 C88 1.181 . S
C336 C46 1.170 . S
C345 C60 1.179 . S
C347 C102 1.169 . S
C356 C124 0.893 1_545 S
C358 C82 0.879 1_565 S
C367 C12 1.445 . S
C369 C54 1.445 . S
C378 C68 1.492 . S
C380 C26 1.494 . S
C389 C32 1.478 . S
C391 C74 1.470 . S
C400 C96 1.492 . S
C402 C138 1.494 . S
C411 C110 1.440 . S
C413 C152 1.448 . S
C422 C158 1.467 . S
C424 C116 1.473 . S
