# Generated by pormake.
# Topology unm, (4)-cn, num edge types: 1
# Building blocks:
#     Node 0, Type 0, BuildingBlock: NAHDIM_clean_sbu_0, # of connection points: 4
#     Node 1, Type 0, BuildingBlock: NAHDIM_clean_sbu_0, # of connection points: 4
#     Node 2, Type 0, BuildingBlock: NAHDIM_clean_sbu_0, # of connection points: 4
#     Node 3, Type 0, BuildingBlock: NAHDIM_clean_sbu_0, # of connection points: 4
#     Node 4, Type 0, BuildingBlock: NAHDIM_clean_sbu_0, # of connection points: 4
#     Node 5, Type 0, BuildingBlock: NAHDIM_clean_sbu_0, # of connection points: 4
#     Node 6, Type 0, BuildingBlock: NAHDIM_clean_sbu_0, # of connection points: 4
#     Node 7, Type 0, BuildingBlock: NAHDIM_clean_sbu_0, # of connection points: 4
#     Edge 8, Type (0, 0), BuildingBlock: FUNLAD_clean_linker_0, # of connection points: 2
#     Edge 9, Type (0, 0), BuildingBlock: FUNLAD_clean_linker_0, # of connection points: 2
#     Edge 10, Type (0, 0), BuildingBlock: FUNLAD_clean_linker_0, # of connection points: 2
#     Edge 11, Type (0, 0), BuildingBlock: FUNLAD_clean_linker_0, # of connection points: 2
#     Edge 12, Type (0, 0), BuildingBlock: FUNLAD_clean_linker_0, # of connection points: 2
#     Edge 13, Type (0, 0), BuildingBlock: FUNLAD_clean_linker_0, # of connection points: 2
#     Edge 14, Type (0, 0), BuildingBlock: FUNLAD_clean_linker_0, # of connection points: 2
#     Edge 15, Type (0, 0), BuildingBlock: FUNLAD_clean_linker_0, # of connection points: 2
#     Edge 16, Type (0, 0), BuildingBlock: FUNLAD_clean_linker_0, # of connection points: 2
#     Edge 17, Type (0, 0), BuildingBlock: FUNLAD_clean_linker_0, # of connection points: 2
#     Edge 18, Type (0, 0), BuildingBlock: FUNLAD_clean_linker_0, # of connection points: 2
#     Edge 19, Type (0, 0), BuildingBlock: FUNLAD_clean_linker_0, # of connection points: 2
#     Edge 20, Type (0, 0), BuildingBlock: FUNLAD_clean_linker_0, # of connection points: 2
#     Edge 21, Type (0, 0), BuildingBlock: FUNLAD_clean_linker_0, # of connection points: 2
#     Edge 22, Type (0, 0), BuildingBlock: FUNLAD_clean_linker_0, # of connection points: 2
#     Edge 23, Type (0, 0), BuildingBlock: FUNLAD_clean_linker_0, # of connection points: 2
# Relax obj value: 0.219
# Max RMSD: 0.179
# Mean RMSD: 0.179
data_MOF--net-unm--node1-NAHDIM_clean_sbu_0--edge1-FUNLAD_clean_linker_0
_symmetry_space_group_name_H-M    P1
_symmetry_Int_Tables_number       1
_symmetry_cell_setting            triclinic
loop_
_symmetry_equiv_pos_as_xyz
'x, y, z'
_cell_length_a     30.467119
_cell_length_b     30.481682
_cell_length_c     48.511935
_cell_angle_alpha  90.068547
_cell_angle_beta   90.027434
_cell_angle_gamma 89.941842
loop_
_atom_site_label
_atom_site_type_symbol
_atom_site_fract_x
_atom_site_fract_y
_atom_site_fract_z
_atom_type_partial_charge
C0 C 0.16448 0.24457 0.20162 0.0
O1 O 0.12992 0.25516 0.21639 0.0
O2 O 0.05439 0.20642 0.18621 0.0
Zn3 Zn 0.09954 0.22892 0.15933 0.0
O4 O 0.1039 0.19267 0.1246 0.0
C5 C 0.04303 0.30324 0.14872 0.0
O6 O 0.01198 0.27462 0.15398 0.0
O7 O 0.15917 0.2314 0.17698 0.0
C8 C 0.07866 0.19891 0.10409 0.0
O9 O 0.04697 0.22795 0.10607 0.0
C10 C 0.02154 0.18321 0.17929 0.0
O11 O 0.0184 0.16909 0.15377 0.0
O12 O 0.08294 0.29105 0.14948 0.0
C13 C 0.23949 0.69695 0.66451 0.0
O14 O 0.22163 0.68901 0.64036 0.0
O15 O 0.2952 0.56464 0.68035 0.0
Zn16 Zn 0.2726 0.61146 0.65484 0.0
O17 O 0.31023 0.61891 0.62124 0.0
C18 C 0.18659 0.58149 0.66264 0.0
O19 O 0.20037 0.58461 0.68824 0.0
O20 O 0.26495 0.66844 0.67502 0.0
C21 C 0.30747 0.59083 0.60193 0.0
O22 O 0.28114 0.55705 0.60494 0.0
C23 C 0.32602 0.53778 0.67515 0.0
O24 O 0.34874 0.54213 0.65232 0.0
O25 O 0.21254 0.59185 0.64324 0.0
C26 C 0.82963 0.72488 0.19781 0.0
O27 O 0.86439 0.70224 0.20526 0.0
O28 O 0.93305 0.79275 0.19213 0.0
Zn29 Zn 0.89341 0.76557 0.16369 0.0
O30 O 0.88739 0.80186 0.12927 0.0
C31 C 0.95841 0.69694 0.1559 0.0
O32 O 0.98606 0.72724 0.16421 0.0
O33 O 0.83393 0.75533 0.18015 0.0
C34 C 0.91626 0.80035 0.11037 0.0
O35 O 0.95167 0.77648 0.11411 0.0
C36 C 0.96101 0.82259 0.18714 0.0
O37 O 0.96283 0.83979 0.16236 0.0
O38 O 0.9179 0.70632 0.15369 0.0
C39 C 0.76124 0.28588 0.67652 0.0
O40 O 0.78054 0.29046 0.65248 0.0
O41 O 0.71344 0.4235 0.68701 0.0
Zn42 Zn 0.73989 0.37425 0.66507 0.0
O43 O 0.71118 0.36643 0.62818 0.0
C44 C 0.8132 0.4268 0.6485 0.0
O45 O 0.78196 0.45357 0.64039 0.0
O46 O 0.73952 0.31789 0.68637 0.0
C47 C 0.68944 0.39624 0.61597 0.0
O48 O 0.68321 0.43412 0.6283 0.0
C49 C 0.73038 0.4304 0.71056 0.0
O50 O 0.76059 0.4032 0.71963 0.0
O51 O 0.80287 0.3902 0.65914 0.0
C52 C 0.69826 0.26433 0.32252 0.0
O53 O 0.69763 0.2657 0.3496 0.0
O54 O 0.55433 0.28468 0.30806 0.0
Zn55 Zn 0.60667 0.27022 0.33162 0.0
O56 O 0.61367 0.3114 0.36363 0.0
C57 C 0.5604 0.19856 0.35678 0.0
O58 O 0.52873 0.22773 0.35841 0.0
O59 O 0.66226 0.26747 0.30941 0.0
C60 C 0.582 0.32976 0.37619 0.0
O61 O 0.54177 0.32424 0.36706 0.0
C62 C 0.54602 0.25782 0.2887 0.0
O63 O 0.57342 0.22525 0.28423 0.0
O64 O 0.59708 0.20971 0.34654 0.0
C65 C 0.25098 0.18013 0.77985 0.0
O66 O 0.27783 0.14777 0.77379 0.0
O67 O 0.1861 0.07049 0.78289 0.0
Zn68 Zn 0.21076 0.11211 0.81099 0.0
O69 O 0.17484 0.11462 0.84568 0.0
C70 C 0.27652 0.05393 0.83379 0.0
O71 O 0.24225 0.03138 0.84204 0.0
O72 O 0.21809 0.17257 0.79524 0.0
C73 C 0.19429 0.13095 0.86646 0.0
O74 O 0.23453 0.1457 0.86349 0.0
C75 C 0.16495 0.03657 0.79022 0.0
O76 O 0.15499 0.03144 0.81636 0.0
O77 O 0.27074 0.08945 0.82061 0.0
C78 C 0.30371 0.77748 0.31229 0.0
O79 O 0.30951 0.79193 0.33756 0.0
O80 O 0.43744 0.72747 0.29444 0.0
Zn81 Zn 0.39057 0.74618 0.32118 0.0
O82 O 0.38228 0.70353 0.35233 0.0
C83 C 0.44754 0.81729 0.33822 0.0
O84 O 0.47878 0.79095 0.32954 0.0
O85 O 0.33401 0.75528 0.30088 0.0
C86 C 0.41185 0.69955 0.37065 0.0
O87 O 0.44841 0.722 0.36815 0.0
C88 C 0.46109 0.69323 0.29616 0.0
O89 O 0.45409 0.66508 0.31615 0.0
O90 O 0.40784 0.80473 0.33694 0.0
C91 C 0.70394 0.80854 0.79967 0.0
O92 O 0.68362 0.84105 0.78726 0.0
O93 O 0.76144 0.91632 0.80394 0.0
Zn94 Zn 0.73456 0.87878 0.83368 0.0
O95 O 0.77005 0.8792 0.86877 0.0
C96 C 0.66502 0.94247 0.83755 0.0
O97 O 0.69603 0.96886 0.82876 0.0
O98 O 0.7285 0.81682 0.82019 0.0
C99 C 0.76624 0.90978 0.88647 0.0
O100 O 0.73966 0.94273 0.88137 0.0
C101 C 0.79053 0.94528 0.80855 0.0
O102 O 0.80721 0.94887 0.83341 0.0
O103 O 0.67388 0.90219 0.84148 0.0
C104 C 0.06366 0.18884 0.05377 0.0
C105 C 0.08826 0.17784 0.07728 0.0
C106 C 0.07629 0.17378 0.02775 0.0
C107 C 0.11369 0.14703 0.02472 0.0
C108 C 0.13692 0.13435 0.04842 0.0
C109 C 0.12433 0.14946 0.07443 0.0
C110 C 0.13246 0.13593 -0.00268 0.0
C111 C 0.11058 0.13968 0.9733 0.0
C112 C 0.13281 0.13575 0.94619 0.0
C113 C 0.10878 0.12218 0.92301 0.0
C114 C 0.12867 0.12021 0.89703 0.0
C115 C 0.17282 0.13251 0.89375 0.0
H116 H 0.19611 0.16042 0.95995 0.0
C117 C 0.19667 0.14651 0.91691 0.0
C118 C 0.17693 0.14821 0.9428 0.0
H119 H 0.23066 0.15646 0.91509 0.0
H120 H 0.03567 0.21065 0.05526 0.0
H121 H 0.05784 0.18514 0.01011 0.0
H122 H 0.1659 0.11388 0.04674 0.0
H123 H 0.1439 0.1402 0.09215 0.0
H124 H 0.16653 0.12536 -0.00304 0.0
H125 H 0.07553 0.14598 0.97322 0.0
H126 H 0.07457 0.11302 0.925 0.0
H127 H 0.10938 0.10942 0.87954 0.0
C128 C 0.3272 0.56719 0.55408 0.0
C129 C 0.33148 0.59743 0.57581 0.0
C130 C 0.34702 0.5752 0.52862 0.0
C131 C 0.3713 0.61385 0.52433 0.0
C132 C 0.37734 0.64291 0.54648 0.0
C133 C 0.35753 0.63492 0.57192 0.0
C134 C 0.38952 0.62589 0.49699 0.0
C135 C 0.37193 0.61216 0.47299 0.0
C136 C 0.3849 0.63059 0.44588 0.0
C137 C 0.35376 0.63142 0.42456 0.0
C138 C 0.36297 0.65256 0.39971 0.0
C139 C 0.40374 0.67306 0.39562 0.0
H140 H 0.45211 0.64737 0.45669 0.0
C141 C 0.43585 0.67002 0.41633 0.0
C142 C 0.42663 0.64885 0.44118 0.0
H143 H 0.46786 0.68484 0.41363 0.0
H144 H 0.30789 0.53764 0.55655 0.0
H145 H 0.34296 0.55117 0.51239 0.0
H146 H 0.39629 0.67268 0.54384 0.0
H147 H 0.36183 0.65868 0.58832 0.0
H148 H 0.41506 0.65071 0.49677 0.0
H149 H 0.34367 0.5905 0.47324 0.0
H150 H 0.32155 0.61712 0.4275 0.0
H151 H 0.33765 0.65394 0.38405 0.0
C152 C 0.86814 0.84322 0.07841 0.0
C153 C 0.90811 0.82172 0.08351 0.0
C154 C 0.85837 0.85921 0.05215 0.0
C155 C 0.88867 0.85442 0.03042 0.0
C156 C 0.92922 0.83426 0.03582 0.0
C157 C 0.93893 0.81819 0.06208 0.0
C158 C 0.8775 0.86583 0.00147 0.0
C159 C 0.84454 0.89309 0.99443 0.0
C160 C 0.8287 0.89868 0.96568 0.0
C161 C 0.80311 0.93558 0.95923 0.0
C162 C 0.78386 0.93986 0.93322 0.0
C163 C 0.78952 0.90706 0.91315 0.0
H164 H 0.85345 0.83665 0.94961 0.0
C165 C 0.81592 0.87058 0.91935 0.0
C166 C 0.83515 0.86628 0.94534 0.0
H167 H 0.82077 0.84462 0.90439 0.0
H168 H 0.8436 0.84633 0.09445 0.0
H169 H 0.82626 0.87339 0.04887 0.0
H170 H 0.95307 0.82989 0.01948 0.0
H171 H 0.9701 0.80187 0.06534 0.0
H172 H 0.89694 0.85037 0.98542 0.0
H173 H 0.82782 0.91188 0.01028 0.0
H174 H 0.79729 0.96084 0.97454 0.0
H175 H 0.76371 0.96841 0.92911 0.0
C176 C 0.63328 0.35556 0.41293 0.0
C177 C 0.59017 0.35167 0.40292 0.0
C178 C 0.64106 0.3703 0.43971 0.0
C179 C 0.60586 0.38129 0.45713 0.0
C180 C 0.563 0.38049 0.44654 0.0
C181 C 0.55515 0.36557 0.41969 0.0
C182 C 0.61317 0.39168 0.48666 0.0
C183 C 0.64426 0.37071 0.50137 0.0
C184 C 0.65234 0.37754 0.53122 0.0
C185 C 0.67437 0.34444 0.54579 0.0
C186 C 0.68521 0.35009 0.57348 0.0
C187 C 0.67468 0.38929 0.58724 0.0
H188 H 0.62477 0.44317 0.53437 0.0
C189 C 0.65202 0.42231 0.57283 0.0
C190 C 0.64094 0.41653 0.54505 0.0
H191 H 0.64362 0.45298 0.58282 0.0
H192 H 0.66109 0.34587 0.40041 0.0
H193 H 0.67465 0.37219 0.44691 0.0
H194 H 0.53541 0.38944 0.45947 0.0
H195 H 0.52157 0.36334 0.41249 0.0
H196 H 0.59039 0.41387 0.49677 0.0
H197 H 0.66367 0.34536 0.49134 0.0
H198 H 0.68365 0.31414 0.53564 0.0
H199 H 0.7027 0.32398 0.58392 0.0
C200 C 0.24611 0.24612 0.19575 0.0
C201 C 0.20925 0.24981 0.21301 0.0
C202 C 0.28839 0.25222 0.20622 0.0
C203 C 0.29487 0.26152 0.23439 0.0
C204 C 0.25792 0.26547 0.25155 0.0
C205 C 0.21559 0.2597 0.24101 0.0
C206 C 0.33926 0.26796 0.24664 0.0
C207 C 0.37675 0.25409 0.23468 0.0
C208 C 0.42067 0.25796 0.24785 0.0
C209 C 0.45388 0.22875 0.23971 0.0
C210 C 0.49497 0.22957 0.25245 0.0
C211 C 0.50396 0.25996 0.27349 0.0
H212 H 0.40612 0.31381 0.27431 0.0
C213 C 0.47143 0.29053 0.28087 0.0
C214 C 0.43022 0.28964 0.26814 0.0
H215 H 0.47746 0.31463 0.29685 0.0
H216 H 0.24232 0.23916 0.17398 0.0
H217 H 0.31555 0.25031 0.19196 0.0
H218 H 0.26179 0.27289 0.27326 0.0
H219 H 0.18788 0.26293 0.25484 0.0
H220 H 0.34057 0.28246 0.26707 0.0
H221 H 0.37535 0.23619 0.21537 0.0
H222 H 0.44768 0.20439 0.22389 0.0
H223 H 0.51938 0.20575 0.24612 0.0
C224 C 0.19812 0.76767 0.66882 0.0
C225 C 0.22748 0.73692 0.68009 0.0
C226 C 0.18504 0.80438 0.68405 0.0
C227 C 0.20128 0.81118 0.71087 0.0
C228 C 0.23056 0.78041 0.72209 0.0
C229 C 0.2437 0.74379 0.70685 0.0
C230 C 0.18788 0.84921 0.72809 0.0
C231 C 0.17284 0.88739 0.71775 0.0
C232 C 0.16445 0.92607 0.73557 0.0
C233 C 0.17373 0.96811 0.72541 0.0
C234 C 0.17162 0.00461 0.74281 0.0
C235 C 0.15957 -0.00024 0.77062 0.0
H236 H 0.14036 0.88984 0.77098 0.0
C237 C 0.1469 0.95815 0.78016 0.0
C238 C 0.14935 0.92162 0.76282 0.0
H239 H 0.13696 0.95335 0.80138 0.0
H240 H 0.18469 0.76312 0.64834 0.0
H241 H 0.16153 0.82665 0.67491 0.0
H242 H 0.24343 0.78472 0.74274 0.0
H243 H 0.26618 0.72063 0.71622 0.0
H244 H 0.1937 0.84661 0.75013 0.0
H245 H 0.17098 0.89209 0.69561 0.0
H246 H 0.18477 0.97245 0.70436 0.0
H247 H 0.18114 0.03633 0.73474 0.0
C248 C 0.53296 0.65815 0.28399 0.0
C249 C 0.49967 0.68859 0.27793 0.0
C250 C 0.572 0.65795 0.26884 0.0
C251 C 0.57835 0.6882 0.2473 0.0
C252 C 0.54395 0.7166 0.24017 0.0
C253 C 0.50514 0.71705 0.25542 0.0
C254 C 0.62074 0.69248 0.23251 0.0
C255 C 0.65975 0.68387 0.24442 0.0
C256 C 0.70259 0.69391 0.23127 0.0
C257 C 0.74015 0.67137 0.24023 0.0
C258 C 0.78139 0.68128 0.22931 0.0
C259 C 0.78599 0.71436 0.20937 0.0
H260 H 0.67948 0.74652 0.20462 0.0
C261 C 0.74848 0.73719 0.20052 0.0
C262 C 0.70724 0.7272 0.21139 0.0
H263 H 0.75094 0.76306 0.18532 0.0
H264 H 0.52955 0.63549 0.30103 0.0
H265 H 0.59719 0.63446 0.27428 0.0
H266 H 0.54778 0.73982 0.22344 0.0
H267 H 0.47992 0.74059 0.25001 0.0
H268 H 0.61964 0.70627 0.2119 0.0
H269 H 0.66077 0.67003 0.26502 0.0
H270 H 0.7376 0.64597 0.25576 0.0
H271 H 0.80966 0.66313 0.23663 0.0
C272 C 0.7906 0.20952 0.68153 0.0
C273 C 0.76741 0.24525 0.69271 0.0
C274 C 0.79828 0.17189 0.69726 0.0
C275 C 0.78281 0.16924 0.72453 0.0
C276 C 0.75973 0.20498 0.73566 0.0
C277 C 0.75185 0.24247 0.7199 0.0
C278 C 0.79103 0.13045 0.74227 0.0
C279 C 0.79769 0.08965 0.73241 0.0
C280 C 0.80139 0.05115 0.75092 0.0
C281 C 0.78302 0.01107 0.74267 0.0
C282 C 0.78135 0.97574 0.76097 0.0
C283 C 0.79872 0.97968 0.78772 0.0
H284 H 0.83706 0.08428 0.78362 0.0
C285 C 0.82004 0.01879 0.79521 0.0
C286 C 0.82129 0.05423 0.77701 0.0
H287 H 0.83412 0.02277 0.81557 0.0
H288 H 0.80333 0.21076 0.6607 0.0
H289 H 0.81718 0.14553 0.68817 0.0
H290 H 0.74765 0.20389 0.75666 0.0
H291 H 0.73411 0.26951 0.7292 0.0
H292 H 0.78838 0.13529 0.76441 0.0
H293 H 0.79594 0.08351 0.71038 0.0
H294 H 0.76804 0.00772 0.72252 0.0
H295 H 0.76506 0.94588 0.75448 0.0
C296 C 0.73973 0.24342 0.27989 0.0
C297 C 0.73989 0.25597 0.30777 0.0
C298 C 0.77899 0.23312 0.26644 0.0
C299 C 0.81924 0.23538 0.28062 0.0
C300 C 0.81945 0.24911 0.30823 0.0
C301 C 0.78018 0.25888 0.32177 0.0
C302 C 0.86165 0.22563 0.2669 0.0
C303 C 0.86578 0.19604 0.24637 0.0
C304 C 0.90737 0.18827 0.23103 0.0
C305 C 0.90511 0.16911 0.20472 0.0
C306 C 0.94269 0.16517 0.18839 0.0
C307 C 0.98344 0.18025 0.19809 0.0
H308 H 0.9525 0.21358 0.26205 0.0
C309 C 0.98627 0.19674 0.2251 0.0
C310 C 0.94874 0.20052 0.24146 0.0
H311 H 0.01732 0.20802 0.23336 0.0
H312 H 0.70923 0.24102 0.26851 0.0
H313 H 0.77772 0.2241 0.24487 0.0
H314 H 0.85007 0.2517 0.31948 0.0
H315 H 0.78142 0.26869 0.34322 0.0
H316 H 0.89003 0.24365 0.27422 0.0
H317 H 0.83698 0.17804 0.23957 0.0
H318 H 0.87385 0.15872 0.1963 0.0
H319 H 0.93937 0.15205 0.16774 0.0
C320 C 0.30383 0.4921 0.71555 0.0
C321 C 0.33065 0.49791 0.69226 0.0
C322 C 0.30275 0.45188 0.72923 0.0
C323 C 0.32832 0.41648 0.7198 0.0
C324 C 0.35753 0.42326 0.69786 0.0
C325 C 0.35858 0.46354 0.6841 0.0
C326 C 0.324 0.37184 0.73168 0.0
C327 C 0.28562 0.35667 0.74171 0.0
C328 C 0.27845 0.3111 0.75162 0.0
C329 C 0.24136 0.30253 0.76792 0.0
C330 C 0.23228 0.26004 0.77702 0.0
C331 C 0.26003 0.22503 0.76984 0.0
H332 H 0.33422 0.2806 0.73103 0.0
C333 C 0.29697 0.23342 0.75334 0.0
C334 C 0.30607 0.27593 0.74424 0.0
H335 H 0.31889 0.20711 0.74731 0.0
H336 H 0.28244 0.51815 0.72269 0.0
H337 H 0.28126 0.44847 0.74686 0.0
H338 H 0.37811 0.39671 0.6905 0.0
H339 H 0.37991 0.46707 0.66639 0.0
H340 H 0.35243 0.3505 0.73046 0.0
H341 H 0.25737 0.37841 0.74233 0.0
H342 H 0.21926 0.32885 0.77371 0.0
H343 H 0.20352 0.25471 0.78969 0.0
C344 C 0.22956 0.81286 0.30946 0.0
C345 C 0.26351 0.78894 0.2968 0.0
C346 C 0.19208 0.82466 0.29456 0.0
C347 C 0.18782 0.81265 0.26667 0.0
C348 C 0.22197 0.7892 0.254 0.0
C349 C 0.25929 0.77724 0.26891 0.0
C350 C 0.1486 0.82402 0.24999 0.0
C351 C 0.10842 0.83053 0.26081 0.0
C352 C 0.06893 0.83493 0.24317 0.0
C353 C 0.02943 0.81598 0.25196 0.0
C354 C 0.9934 0.81397 0.23421 0.0
C355 C 0.99603 0.83152 0.20746 0.0
H356 H 0.10014 0.87153 0.2102 0.0
C357 C 0.03441 0.85365 0.19951 0.0
C358 C 0.07059 0.8553 0.21719 0.0
H359 H 0.03732 0.86793 0.17916 0.0
H360 H 0.232 0.82274 0.33086 0.0
H361 H 0.167 0.84374 0.30486 0.0
H362 H 0.21963 0.77971 0.23252 0.0
H363 H 0.28496 0.75908 0.25847 0.0
H364 H 0.1523 0.82299 0.22771 0.0
H365 H 0.1034 0.82724 0.28287 0.0
H366 H 0.02717 0.80062 0.27204 0.0
H367 H 0.96408 0.79713 0.24107 0.0
C368 C 0.69516 0.50459 0.71391 0.0
C369 C 0.72098 0.47139 0.7258 0.0
C370 C 0.69091 0.54541 0.72684 0.0
C371 C 0.71219 0.55374 0.75211 0.0
C372 C 0.73661 0.51991 0.76439 0.0
C373 C 0.7409 0.4792 0.75145 0.0
C374 C 0.71296 0.59785 0.7653 0.0
C375 C 0.68483 0.63064 0.75926 0.0
C376 C 0.68901 0.67574 0.77077 0.0
C377 C 0.66986 0.71079 0.75634 0.0
C378 C 0.67447 0.7539 0.76576 0.0
C379 C 0.69825 0.76288 0.78993 0.0
H380 H 0.72553 0.65868 0.80788 0.0
C381 C 0.71646 0.72777 0.8048 0.0
C382 C 0.71169 0.68467 0.79546 0.0
H383 H 0.73437 0.7335 0.82376 0.0
H384 H 0.67958 0.49968 0.69407 0.0
H385 H 0.67252 0.5706 0.71624 0.0
H386 H 0.7534 0.5253 0.7838 0.0
H387 H 0.76096 0.45431 0.76122 0.0
H388 H 0.73913 0.60354 0.78004 0.0
H389 H 0.65877 0.62526 0.74441 0.0
H390 H 0.65188 0.70491 0.73742 0.0
H391 H 0.65976 0.78018 0.75391 0.0
C392 C 0.94359 0.6185 0.14404 0.0
C393 C 0.97377 0.65171 0.1506 0.0
C394 C 0.95751 0.57517 0.14079 0.0
C395 C 0.00217 0.5641 0.14377 0.0
C396 C 0.03237 0.59751 0.14987 0.0
C397 C 0.01839 0.64087 0.15319 0.0
C398 C 0.0181 0.518 0.14278 0.0
C399 C 0.99514 0.48457 0.1317 0.0
C400 C 0.00885 0.43807 0.13432 0.0
C401 C 0.97627 0.40563 0.13524 0.0
C402 C 0.98743 0.36177 0.13956 0.0
C403 C 0.03157 0.34934 0.14268 0.0
H404 H 0.0793 0.4494 0.13493 0.0
C405 C 0.06439 0.38153 0.14062 0.0
C406 C 0.05318 0.4255 0.13647 0.0
H407 H 0.09874 0.37291 0.14262 0.0
H408 H 0.9089 0.62572 0.14208 0.0
H409 H 0.93273 0.55059 0.13693 0.0
H410 H 0.06689 0.58997 0.15249 0.0
H411 H 0.0425 0.6657 0.15825 0.0
H412 H 0.04942 0.51134 0.15262 0.0
H413 H 0.96371 0.49067 0.12193 0.0
H414 H 0.94191 0.4144 0.13337 0.0
H415 H 0.96137 0.3377 0.14078 0.0
C416 C 0.87142 0.48178 0.63702 0.0
C417 C 0.85968 0.44052 0.64757 0.0
C418 C 0.91495 0.49611 0.63823 0.0
C419 C 0.94762 0.46929 0.64996 0.0
C420 C 0.93595 0.42775 0.65995 0.0
C421 C 0.89254 0.41338 0.65866 0.0
C422 C 0.99329 0.4847 0.65418 0.0
C423 C 0.01212 0.51694 0.63941 0.0
C424 C 0.05687 0.5333 0.6456 0.0
C425 C 0.08296 0.54989 0.6242 0.0
C426 C 0.12524 0.56551 0.62962 0.0
C427 C 0.14186 0.56544 0.65666 0.0
H428 H 0.05351 0.5228 0.68986 0.0
C429 C 0.11532 0.54973 0.67814 0.0
C430 C 0.07328 0.53389 0.6727 0.0
H431 H 0.12699 0.54957 0.69924 0.0
H432 H 0.84683 0.50353 0.62845 0.0
H433 H 0.92236 0.52879 0.63093 0.0
H434 H 0.9604 0.40654 0.66922 0.0
H435 H 0.88462 0.3814 0.66699 0.0
H436 H 0.0124 0.46812 0.66997 0.0
H437 H 0.99516 0.53081 0.62176 0.0
H438 H 0.07081 0.55029 0.60321 0.0
H439 H 0.14482 0.5777 0.61265 0.0
C440 C 0.51021 0.13852 0.37233 0.0
C441 C 0.55219 0.15223 0.36406 0.0
C442 C 0.50128 0.09402 0.37628 0.0
C443 C 0.53421 0.06234 0.37189 0.0
C444 C 0.57677 0.07634 0.36529 0.0
C445 C 0.58567 0.12078 0.36128 0.0
C446 C 0.52515 0.01452 0.37258 0.0
C447 C 0.48568 -0.00251 0.36609 0.0
C448 C 0.47761 0.94993 0.36175 0.0
C449 C 0.43417 0.93468 0.36227 0.0
C450 C 0.42449 0.89124 0.35544 0.0
C451 C 0.45811 0.86215 0.3477 0.0
H452 H 0.54521 0.93096 0.35315 0.0
C453 C 0.50172 0.87702 0.3478 0.0
C454 C 0.51142 0.92046 0.35464 0.0
H455 H 0.52837 0.85546 0.34182 0.0
H456 H 0.48387 0.16201 0.37505 0.0
H457 H 0.46848 0.08467 0.38244 0.0
H458 H 0.60286 0.05267 0.36211 0.0
H459 H 0.61852 0.1303 0.35522 0.0
H460 H 0.55284 0.99292 0.37629 0.0
H461 H 0.45811 0.01927 0.36234 0.0
H462 H 0.40747 0.95669 0.36746 0.0
H463 H 0.39051 0.88082 0.3556 0.0
C464 C 0.35788 0.06251 0.8306 0.0
C465 C 0.32146 0.03742 0.83868 0.0
C466 C 0.40038 0.0463 0.83394 0.0
C467 C 0.40743 0.00464 0.84562 0.0
C468 C 0.37104 0.97963 0.85377 0.0
C469 C 0.32845 0.99594 0.85051 0.0
C470 C 0.452 0.98524 0.84774 0.0
C471 C 0.48863 0.00975 0.84986 0.0
C472 C 0.53381 0.99154 0.84845 0.0
C473 C 0.56805 0.01977 0.84081 0.0
C474 C 0.61071 0.00392 0.83761 0.0
C475 C 0.62018 0.95942 0.8422 0.0
H476 H 0.5185 0.9246 0.86077 0.0
C477 C 0.58628 0.93134 0.85076 0.0
C478 C 0.54352 0.94722 0.85394 0.0
H479 H 0.59266 0.89698 0.85478 0.0
H480 H 0.35363 0.09447 0.82122 0.0
H481 H 0.42736 0.06601 0.82646 0.0
H482 H 0.37555 0.94725 0.86253 0.0
H483 H 0.30104 0.97571 0.85682 0.0
H484 H 0.45424 0.94977 0.8468 0.0
H485 H 0.48572 0.04519 0.85121 0.0
H486 H 0.56163 0.05411 0.83667 0.0
H487 H 0.63613 0.02653 0.8312 0.0
loop_
_geom_bond_atom_site_label_1
_geom_bond_atom_site_label_2
_geom_bond_distance
_geom_bond_site_symmetry_2
_ccdc_geom_bond_type
C0 O1 1.160 . S
C0 O7 1.185 . S
O1 C0 1.160 . S
O2 Zn3 1.899 . S
O2 C10 1.284 . S
Zn3 O2 1.899 . S
Zn3 O4 2.032 . S
Zn3 O7 2.086 . S
Zn3 O12 1.977 . S
O4 Zn3 2.032 . S
O4 C8 1.278 . S
C5 O6 1.203 . S
C5 O12 1.267 . S
O6 C5 1.203 . S
O7 C0 1.185 . S
O7 Zn3 2.086 . S
C8 O4 1.278 . S
C8 O9 1.211 . S
O9 C8 1.211 . S
C10 O2 1.284 . S
C10 O11 1.273 . S
O11 C10 1.273 . S
O12 Zn3 1.977 . S
O12 C5 1.267 . S
C13 O14 1.160 . S
C13 O20 1.185 . S
O14 C13 1.160 . S
O15 Zn16 1.899 . S
O15 C23 1.284 . S
Zn16 O15 1.899 . S
Zn16 O17 2.032 . S
Zn16 O20 2.086 . S
Zn16 O25 1.977 . S
O17 Zn16 2.032 . S
O17 C21 1.278 . S
C18 O19 1.203 . S
C18 O25 1.267 . S
O19 C18 1.203 . S
O20 C13 1.185 . S
O20 Zn16 2.086 . S
C21 O17 1.278 . S
C21 O22 1.211 . S
O22 C21 1.211 . S
C23 O15 1.284 . S
C23 O24 1.273 . S
O24 C23 1.273 . S
O25 Zn16 1.977 . S
O25 C18 1.267 . S
C26 O27 1.160 . S
C26 O33 1.185 . S
O27 C26 1.160 . S
O28 Zn29 1.899 . S
O28 C36 1.284 . S
Zn29 O28 1.899 . S
Zn29 O30 2.032 . S
Zn29 O33 2.086 . S
Zn29 O38 1.977 . S
O30 Zn29 2.032 . S
O30 C34 1.278 . S
C31 O32 1.203 . S
C31 O38 1.267 . S
O32 C31 1.203 . S
O33 C26 1.185 . S
O33 Zn29 2.086 . S
C34 O30 1.278 . S
C34 O35 1.211 . S
O35 C34 1.211 . S
C36 O28 1.284 . S
C36 O37 1.273 . S
O37 C36 1.273 . S
O38 Zn29 1.977 . S
O38 C31 1.267 . S
C39 O40 1.160 . S
C39 O46 1.185 . S
O40 C39 1.160 . S
O41 Zn42 1.899 . S
O41 C49 1.284 . S
Zn42 O41 1.899 . S
Zn42 O43 2.032 . S
Zn42 O46 2.086 . S
Zn42 O51 1.977 . S
O43 Zn42 2.032 . S
O43 C47 1.278 . S
C44 O45 1.203 . S
C44 O51 1.267 . S
O45 C44 1.203 . S
O46 C39 1.185 . S
O46 Zn42 2.086 . S
C47 O43 1.278 . S
C47 O48 1.211 . S
O48 C47 1.211 . S
C49 O41 1.284 . S
C49 O50 1.273 . S
O50 C49 1.273 . S
O51 Zn42 1.977 . S
O51 C44 1.267 . S
C52 O53 1.160 . S
C52 O59 1.185 . S
O53 C52 1.160 . S
O54 Zn55 1.899 . S
O54 C62 1.284 . S
Zn55 O54 1.899 . S
Zn55 O56 2.032 . S
Zn55 O59 2.086 . S
Zn55 O64 1.977 . S
O56 Zn55 2.032 . S
O56 C60 1.278 . S
C57 O58 1.203 . S
C57 O64 1.267 . S
O58 C57 1.203 . S
O59 C52 1.185 . S
O59 Zn55 2.086 . S
C60 O56 1.278 . S
C60 O61 1.211 . S
O61 C60 1.211 . S
C62 O54 1.284 . S
C62 O63 1.273 . S
O63 C62 1.273 . S
O64 Zn55 1.977 . S
O64 C57 1.267 . S
C65 O66 1.160 . S
C65 O72 1.185 . S
O66 C65 1.160 . S
O67 Zn68 1.899 . S
O67 C75 1.284 . S
Zn68 O67 1.899 . S
Zn68 O69 2.032 . S
Zn68 O72 2.086 . S
Zn68 O77 1.977 . S
O69 Zn68 2.032 . S
O69 C73 1.278 . S
C70 O71 1.203 . S
C70 O77 1.267 . S
O71 C70 1.203 . S
O72 C65 1.185 . S
O72 Zn68 2.086 . S
C73 O69 1.278 . S
C73 O74 1.211 . S
O74 C73 1.211 . S
C75 O67 1.284 . S
C75 O76 1.273 . S
O76 C75 1.273 . S
O77 Zn68 1.977 . S
O77 C70 1.267 . S
C78 O79 1.160 . S
C78 O85 1.185 . S
O79 C78 1.160 . S
O80 Zn81 1.899 . S
O80 C88 1.284 . S
Zn81 O80 1.899 . S
Zn81 O82 2.032 . S
Zn81 O85 2.086 . S
Zn81 O90 1.977 . S
O82 Zn81 2.032 . S
O82 C86 1.278 . S
C83 O84 1.203 . S
C83 O90 1.267 . S
O84 C83 1.203 . S
O85 C78 1.185 . S
O85 Zn81 2.086 . S
C86 O82 1.278 . S
C86 O87 1.211 . S
O87 C86 1.211 . S
C88 O80 1.284 . S
C88 O89 1.273 . S
O89 C88 1.273 . S
O90 Zn81 1.977 . S
O90 C83 1.267 . S
C91 O92 1.160 . S
C91 O98 1.185 . S
O92 C91 1.160 . S
O93 Zn94 1.899 . S
O93 C101 1.284 . S
Zn94 O93 1.899 . S
Zn94 O95 2.032 . S
Zn94 O98 2.086 . S
Zn94 O103 1.977 . S
O95 Zn94 2.032 . S
O95 C99 1.278 . S
C96 O97 1.203 . S
C96 O103 1.267 . S
O97 C96 1.203 . S
O98 C91 1.185 . S
O98 Zn94 2.086 . S
C99 O95 1.278 . S
C99 O100 1.211 . S
O100 C99 1.211 . S
C101 O93 1.284 . S
C101 O102 1.273 . S
O102 C101 1.273 . S
O103 Zn94 1.977 . S
O103 C96 1.267 . S
C104 C105 1.386 . S
C104 C106 1.383 . S
C104 H120 0.951 . S
C105 C104 1.386 . S
C105 C109 1.383 . S
C106 C104 1.383 . S
C106 C107 1.402 . S
C106 H121 0.951 . S
C107 C106 1.402 . S
C107 C108 1.375 . S
C107 C110 1.481 . S
C108 C107 1.375 . S
C108 C109 1.367 . S
C108 H122 0.951 . S
C109 C105 1.383 . S
C109 C108 1.367 . S
C109 H123 0.950 . S
C110 C107 1.481 . S
C110 C111 1.297 1_554 S
C110 H124 0.950 . S
C111 C110 1.297 1_556 S
C111 C112 1.479 . S
C111 H125 0.950 . S
C112 C111 1.479 . S
C112 C113 1.375 . S
C112 C118 1.404 . S
C113 C112 1.375 . S
C113 C114 1.369 . S
C113 H126 0.950 . S
C114 C113 1.369 . S
C114 C115 1.392 . S
C114 H127 0.951 . S
C115 C114 1.392 . S
C115 C117 1.384 . S
H116 C118 0.949 . S
C117 C115 1.384 . S
C117 C118 1.385 . S
C117 H119 0.950 . S
C118 C112 1.404 . S
C118 H116 0.949 . S
C118 C117 1.385 . S
H119 C117 0.950 . S
H120 C104 0.951 . S
H121 C106 0.951 . S
H122 C108 0.951 . S
H123 C109 0.950 . S
H124 C110 0.950 . S
H125 C111 0.950 . S
H126 C113 0.950 . S
H127 C114 0.951 . S
C128 C129 1.386 . S
C128 C130 1.383 . S
C128 H144 0.951 . S
C129 C128 1.386 . S
C129 C133 1.383 . S
C130 C128 1.383 . S
C130 C131 1.402 . S
C130 H145 0.951 . S
C131 C130 1.402 . S
C131 C132 1.375 . S
C131 C134 1.481 . S
C132 C131 1.375 . S
C132 C133 1.367 . S
C132 H146 0.951 . S
C133 C129 1.383 . S
C133 C132 1.367 . S
C133 H147 0.950 . S
C134 C131 1.481 . S
C134 C135 1.297 . S
C134 H148 0.950 . S
C135 C134 1.297 . S
C135 C136 1.479 . S
C135 H149 0.950 . S
C136 C135 1.479 . S
C136 C137 1.375 . S
C136 C142 1.404 . S
C137 C136 1.375 . S
C137 C138 1.369 . S
C137 H150 0.950 . S
C138 C137 1.369 . S
C138 C139 1.392 . S
C138 H151 0.951 . S
C139 C138 1.392 . S
C139 C141 1.384 . S
H140 C142 0.949 . S
C141 C139 1.384 . S
C141 C142 1.385 . S
C141 H143 0.950 . S
C142 C136 1.404 . S
C142 H140 0.949 . S
C142 C141 1.385 . S
H143 C141 0.950 . S
H144 C128 0.951 . S
H145 C130 0.951 . S
H146 C132 0.951 . S
H147 C133 0.950 . S
H148 C134 0.950 . S
H149 C135 0.950 . S
H150 C137 0.950 . S
H151 C138 0.951 . S
C152 C153 1.386 . S
C152 C154 1.383 . S
C152 H168 0.951 . S
C153 C152 1.386 . S
C153 C157 1.383 . S
C154 C152 1.383 . S
C154 C155 1.402 . S
C154 H169 0.951 . S
C155 C154 1.402 . S
C155 C156 1.375 . S
C155 C158 1.481 . S
C156 C155 1.375 . S
C156 C157 1.367 . S
C156 H170 0.951 . S
C157 C153 1.383 . S
C157 C156 1.367 . S
C157 H171 0.950 . S
C158 C155 1.481 . S
C158 C159 1.297 1_554 S
C158 H172 0.950 1_554 S
C159 C158 1.297 1_556 S
C159 C160 1.479 . S
C159 H173 0.950 1_556 S
C160 C159 1.479 . S
C160 C161 1.375 . S
C160 C166 1.404 . S
C161 C160 1.375 . S
C161 C162 1.369 . S
C161 H174 0.950 . S
C162 C161 1.369 . S
C162 C163 1.392 . S
C162 H175 0.951 . S
C163 C162 1.392 . S
C163 C165 1.384 . S
H164 C166 0.949 . S
C165 C163 1.384 . S
C165 C166 1.385 . S
C165 H167 0.950 . S
C166 C160 1.404 . S
C166 H164 0.949 . S
C166 C165 1.385 . S
H167 C165 0.950 . S
H168 C152 0.951 . S
H169 C154 0.951 . S
H170 C156 0.951 . S
H171 C157 0.950 . S
H172 C158 0.950 1_556 S
H173 C159 0.950 1_554 S
H174 C161 0.950 . S
H175 C162 0.951 . S
C176 C177 1.386 . S
C176 C178 1.383 . S
C176 H192 0.951 . S
C177 C176 1.386 . S
C177 C181 1.383 . S
C178 C176 1.383 . S
C178 C179 1.402 . S
C178 H193 0.951 . S
C179 C178 1.402 . S
C179 C180 1.375 . S
C179 C182 1.481 . S
C180 C179 1.375 . S
C180 C181 1.367 . S
C180 H194 0.951 . S
C181 C177 1.383 . S
C181 C180 1.367 . S
C181 H195 0.950 . S
C182 C179 1.481 . S
C182 C183 1.297 . S
C182 H196 0.950 . S
C183 C182 1.297 . S
C183 C184 1.479 . S
C183 H197 0.950 . S
C184 C183 1.479 . S
C184 C185 1.375 . S
C184 C190 1.404 . S
C185 C184 1.375 . S
C185 C186 1.369 . S
C185 H198 0.950 . S
C186 C185 1.369 . S
C186 C187 1.392 . S
C186 H199 0.951 . S
C187 C186 1.392 . S
C187 C189 1.384 . S
H188 C190 0.949 . S
C189 C187 1.384 . S
C189 C190 1.385 . S
C189 H191 0.950 . S
C190 C184 1.404 . S
C190 H188 0.949 . S
C190 C189 1.385 . S
H191 C189 0.950 . S
H192 C176 0.951 . S
H193 C178 0.951 . S
H194 C180 0.951 . S
H195 C181 0.950 . S
H196 C182 0.950 . S
H197 C183 0.950 . S
H198 C185 0.950 . S
H199 C186 0.951 . S
C200 C201 1.386 . S
C200 C202 1.383 . S
C200 H216 0.951 . S
C201 C200 1.386 . S
C201 C205 1.383 . S
C202 C200 1.383 . S
C202 C203 1.402 . S
C202 H217 0.951 . S
C203 C202 1.402 . S
C203 C204 1.375 . S
C203 C206 1.481 . S
C204 C203 1.375 . S
C204 C205 1.367 . S
C204 H218 0.951 . S
C205 C201 1.383 . S
C205 C204 1.367 . S
C205 H219 0.950 . S
C206 C203 1.481 . S
C206 C207 1.297 . S
C206 H220 0.950 . S
C207 C206 1.297 . S
C207 C208 1.479 . S
C207 H221 0.950 . S
C208 C207 1.479 . S
C208 C209 1.375 . S
C208 C214 1.404 . S
C209 C208 1.375 . S
C209 C210 1.369 . S
C209 H222 0.950 . S
C210 C209 1.369 . S
C210 C211 1.392 . S
C210 H223 0.951 . S
C211 C210 1.392 . S
C211 C213 1.384 . S
H212 C214 0.949 . S
C213 C211 1.384 . S
C213 C214 1.385 . S
C213 H215 0.950 . S
C214 C208 1.404 . S
C214 H212 0.949 . S
C214 C213 1.385 . S
H215 C213 0.950 . S
H216 C200 0.951 . S
H217 C202 0.951 . S
H218 C204 0.951 . S
H219 C205 0.950 . S
H220 C206 0.950 . S
H221 C207 0.950 . S
H222 C209 0.950 . S
H223 C210 0.951 . S
C224 C225 1.386 . S
C224 C226 1.383 . S
C224 H240 0.951 . S
C225 C224 1.386 . S
C225 C229 1.383 . S
C226 C224 1.383 . S
C226 C227 1.402 . S
C226 H241 0.951 . S
C227 C226 1.402 . S
C227 C228 1.375 . S
C227 C230 1.481 . S
C228 C227 1.375 . S
C228 C229 1.367 . S
C228 H242 0.951 . S
C229 C225 1.383 . S
C229 C228 1.367 . S
C229 H243 0.950 . S
C230 C227 1.481 . S
C230 C231 1.297 . S
C230 H244 0.950 . S
C231 C230 1.297 . S
C231 C232 1.479 . S
C231 H245 0.950 . S
C232 C231 1.479 . S
C232 C233 1.375 . S
C232 C238 1.404 . S
C233 C232 1.375 . S
C233 C234 1.369 . S
C233 H246 0.950 . S
C234 C233 1.369 . S
C234 C235 1.392 1_565 S
C234 H247 0.951 . S
C235 C234 1.392 1_545 S
C235 C237 1.384 1_545 S
H236 C238 0.949 . S
C237 C235 1.384 1_565 S
C237 C238 1.385 . S
C237 H239 0.960 . S
C238 C232 1.404 . S
C238 H236 0.949 . S
C238 C237 1.385 . S
H239 C237 0.960 . S
H240 C224 0.951 . S
H241 C226 0.951 . S
H242 C228 0.951 . S
H243 C229 0.950 . S
H244 C230 0.950 . S
H245 C231 0.950 . S
H246 C233 0.950 . S
H247 C234 0.951 . S
C248 C249 1.386 . S
C248 C250 1.383 . S
C248 H264 0.951 . S
C249 C248 1.386 . S
C249 C253 1.383 . S
C250 C248 1.383 . S
C250 C251 1.402 . S
C250 H265 0.951 . S
C251 C250 1.402 . S
C251 C252 1.375 . S
C251 C254 1.481 . S
C252 C251 1.375 . S
C252 C253 1.367 . S
C252 H266 0.951 . S
C253 C249 1.383 . S
C253 C252 1.367 . S
C253 H267 0.950 . S
C254 C251 1.481 . S
C254 C255 1.297 . S
C254 H268 0.950 . S
C255 C254 1.297 . S
C255 C256 1.479 . S
C255 H269 0.950 . S
C256 C255 1.479 . S
C256 C257 1.375 . S
C256 C262 1.404 . S
C257 C256 1.375 . S
C257 C258 1.369 . S
C257 H270 0.950 . S
C258 C257 1.369 . S
C258 C259 1.392 . S
C258 H271 0.951 . S
C259 C258 1.392 . S
C259 C261 1.384 . S
H260 C262 0.949 . S
C261 C259 1.384 . S
C261 C262 1.385 . S
C261 H263 0.950 . S
C262 C256 1.404 . S
C262 H260 0.949 . S
C262 C261 1.385 . S
H263 C261 0.950 . S
H264 C248 0.951 . S
H265 C250 0.951 . S
H266 C252 0.951 . S
H267 C253 0.950 . S
H268 C254 0.950 . S
H269 C255 0.950 . S
H270 C257 0.950 . S
H271 C258 0.951 . S
C272 C273 1.386 . S
C272 C274 1.383 . S
C272 H288 0.951 . S
C273 C272 1.386 . S
C273 C277 1.383 . S
C274 C272 1.383 . S
C274 C275 1.402 . S
C274 H289 0.951 . S
C275 C274 1.402 . S
C275 C276 1.375 . S
C275 C278 1.481 . S
C276 C275 1.375 . S
C276 C277 1.367 . S
C276 H290 0.951 . S
C277 C273 1.383 . S
C277 C276 1.367 . S
C277 H291 0.950 . S
C278 C275 1.481 . S
C278 C279 1.297 . S
C278 H292 0.950 . S
C279 C278 1.297 . S
C279 C280 1.479 . S
C279 H293 0.950 . S
C280 C279 1.479 . S
C280 C281 1.375 . S
C280 C286 1.404 . S
C281 C280 1.375 . S
C281 C282 1.369 . S
C281 H294 0.950 . S
C282 C281 1.369 . S
C282 C283 1.392 1_545 S
C282 H295 0.951 1_545 S
C283 C282 1.392 1_565 S
C283 C285 1.384 1_565 S
H284 C286 0.949 . S
C285 C283 1.384 1_545 S
C285 C286 1.385 . S
C285 H287 0.950 . S
C286 C280 1.404 . S
C286 H284 0.949 . S
C286 C285 1.385 . S
H287 C285 0.950 . S
H288 C272 0.951 . S
H289 C274 0.951 . S
H290 C276 0.951 . S
H291 C277 0.950 . S
H292 C278 0.950 . S
H293 C279 0.950 . S
H294 C281 0.950 . S
H295 C282 0.951 1_565 S
C296 C297 1.386 . S
C296 C298 1.383 . S
C296 H312 0.951 . S
C297 C296 1.386 . S
C297 C301 1.383 . S
C298 C296 1.383 . S
C298 C299 1.402 . S
C298 H313 0.951 . S
C299 C298 1.402 . S
C299 C300 1.375 . S
C299 C302 1.481 . S
C300 C299 1.375 . S
C300 C301 1.367 . S
C300 H314 0.951 . S
C301 C297 1.383 . S
C301 C300 1.367 . S
C301 H315 0.950 . S
C302 C299 1.481 . S
C302 C303 1.297 . S
C302 H316 0.950 . S
C303 C302 1.297 . S
C303 C304 1.479 . S
C303 H317 0.950 . S
C304 C303 1.479 . S
C304 C305 1.375 . S
C304 C310 1.404 . S
C305 C304 1.375 . S
C305 C306 1.369 . S
C305 H318 0.950 . S
C306 C305 1.369 . S
C306 C307 1.392 . S
C306 H319 0.951 . S
C307 C306 1.392 . S
C307 C309 1.384 . S
H308 C310 0.949 . S
C309 C307 1.384 . S
C309 C310 1.385 . S
C309 H311 0.950 1_655 S
C310 C304 1.404 . S
C310 H308 0.949 . S
C310 C309 1.385 . S
H311 C309 0.950 1_455 S
H312 C296 0.951 . S
H313 C298 0.951 . S
H314 C300 0.951 . S
H315 C301 0.950 . S
H316 C302 0.950 . S
H317 C303 0.950 . S
H318 C305 0.950 . S
H319 C306 0.951 . S
C320 C321 1.386 . S
C320 C322 1.383 . S
C320 H336 0.951 . S
C321 C320 1.386 . S
C321 C325 1.383 . S
C322 C320 1.383 . S
C322 C323 1.402 . S
C322 H337 0.951 . S
C323 C322 1.402 . S
C323 C324 1.375 . S
C323 C326 1.481 . S
C324 C323 1.375 . S
C324 C325 1.367 . S
C324 H338 0.951 . S
C325 C321 1.383 . S
C325 C324 1.367 . S
C325 H339 0.950 . S
C326 C323 1.481 . S
C326 C327 1.297 . S
C326 H340 0.950 . S
C327 C326 1.297 . S
C327 C328 1.479 . S
C327 H341 0.950 . S
C328 C327 1.479 . S
C328 C329 1.375 . S
C328 C334 1.404 . S
C329 C328 1.375 . S
C329 C330 1.369 . S
C329 H342 0.950 . S
C330 C329 1.369 . S
C330 C331 1.392 . S
C330 H343 0.951 . S
C331 C330 1.392 . S
C331 C333 1.384 . S
H332 C334 0.949 . S
C333 C331 1.384 . S
C333 C334 1.385 . S
C333 H335 0.950 . S
C334 C328 1.404 . S
C334 H332 0.949 . S
C334 C333 1.385 . S
H335 C333 0.950 . S
H336 C320 0.951 . S
H337 C322 0.951 . S
H338 C324 0.951 . S
H339 C325 0.950 . S
H340 C326 0.950 . S
H341 C327 0.950 . S
H342 C329 0.950 . S
H343 C330 0.951 . S
C344 C345 1.386 . S
C344 C346 1.383 . S
C344 H360 0.951 . S
C345 C344 1.386 . S
C345 C349 1.383 . S
C346 C344 1.383 . S
C346 C347 1.402 . S
C346 H361 0.951 . S
C347 C346 1.402 . S
C347 C348 1.375 . S
C347 C350 1.481 . S
C348 C347 1.375 . S
C348 C349 1.367 . S
C348 H362 0.951 . S
C349 C345 1.383 . S
C349 C348 1.367 . S
C349 H363 0.950 . S
C350 C347 1.481 . S
C350 C351 1.297 . S
C350 H364 0.950 . S
C351 C350 1.297 . S
C351 C352 1.479 . S
C351 H365 0.950 . S
C352 C351 1.479 . S
C352 C353 1.375 . S
C352 C358 1.404 . S
C353 C352 1.375 . S
C353 C354 1.366 1_455 S
C353 H366 0.950 . S
C354 C353 1.366 1_655 S
C354 C355 1.392 . S
C354 H367 0.953 . S
C355 C354 1.392 . S
C355 C357 1.384 1_655 S
H356 C358 0.949 . S
C357 C355 1.384 1_455 S
C357 C358 1.385 . S
C357 H359 0.950 . S
C358 C352 1.404 . S
C358 H356 0.949 . S
C358 C357 1.385 . S
H359 C357 0.950 . S
H360 C344 0.951 . S
H361 C346 0.951 . S
H362 C348 0.951 . S
H363 C349 0.950 . S
H364 C350 0.950 . S
H365 C351 0.950 . S
H366 C353 0.950 . S
H367 C354 0.953 . S
C368 C369 1.386 . S
C368 C370 1.383 . S
C368 H384 0.951 . S
C369 C368 1.386 . S
C369 C373 1.383 . S
C370 C368 1.383 . S
C370 C371 1.402 . S
C370 H385 0.951 . S
C371 C370 1.402 . S
C371 C372 1.375 . S
C371 C374 1.481 . S
C372 C371 1.375 . S
C372 C373 1.367 . S
C372 H386 0.951 . S
C373 C369 1.383 . S
C373 C372 1.367 . S
C373 H387 0.950 . S
C374 C371 1.481 . S
C374 C375 1.297 . S
C374 H388 0.950 . S
C375 C374 1.297 . S
C375 C376 1.479 . S
C375 H389 0.950 . S
C376 C375 1.479 . S
C376 C377 1.375 . S
C376 C382 1.404 . S
C377 C376 1.375 . S
C377 C378 1.369 . S
C377 H390 0.950 . S
C378 C377 1.369 . S
C378 C379 1.392 . S
C378 H391 0.951 . S
C379 C378 1.392 . S
C379 C381 1.384 . S
H380 C382 0.949 . S
C381 C379 1.384 . S
C381 C382 1.385 . S
C381 H383 0.950 . S
C382 C376 1.404 . S
C382 H380 0.949 . S
C382 C381 1.385 . S
H383 C381 0.950 . S
H384 C368 0.951 . S
H385 C370 0.951 . S
H386 C372 0.951 . S
H387 C373 0.950 . S
H388 C374 0.950 . S
H389 C375 0.950 . S
H390 C377 0.950 . S
H391 C378 0.951 . S
C392 C393 1.386 . S
C392 C394 1.383 . S
C392 H408 0.951 . S
C393 C392 1.386 . S
C393 C397 1.383 . S
C394 C392 1.383 . S
C394 C395 1.402 . S
C394 H409 0.951 . S
C395 C394 1.402 . S
C395 C396 1.375 . S
C395 C398 1.481 1_655 S
C396 C395 1.375 . S
C396 C397 1.367 . S
C396 H410 0.951 1_655 S
C397 C393 1.383 . S
C397 C396 1.367 . S
C397 H411 0.950 . S
C398 C395 1.481 1_455 S
C398 C399 1.297 . S
C398 H412 0.950 . S
C399 C398 1.297 . S
C399 C400 1.479 . S
C399 H413 0.950 1_455 S
C400 C399 1.479 . S
C400 C401 1.375 . S
C400 C406 1.404 . S
C401 C400 1.375 . S
C401 C402 1.369 . S
C401 H414 0.950 1_455 S
C402 C401 1.369 . S
C402 C403 1.392 . S
C402 H415 0.951 . S
C403 C402 1.392 . S
C403 C405 1.384 . S
H404 C406 0.949 . S
C405 C403 1.384 . S
C405 C406 1.385 . S
C405 H407 0.950 . S
C406 C400 1.404 . S
C406 H404 0.949 . S
C406 C405 1.385 . S
H407 C405 0.950 . S
H408 C392 0.951 . S
H409 C394 0.951 . S
H410 C396 0.951 1_455 S
H411 C397 0.950 . S
H412 C398 0.950 . S
H413 C399 0.950 1_655 S
H414 C401 0.950 1_655 S
H415 C402 0.951 . S
C416 C417 1.386 . S
C416 C418 1.383 . S
C416 H432 0.951 . S
C417 C416 1.386 . S
C417 C421 1.383 . S
C418 C416 1.383 . S
C418 C419 1.402 . S
C418 H433 0.951 . S
C419 C418 1.402 . S
C419 C420 1.375 . S
C419 C422 1.481 . S
C420 C419 1.375 . S
C420 C421 1.367 . S
C420 H434 0.951 . S
C421 C417 1.383 . S
C421 C420 1.367 . S
C421 H435 0.950 . S
C422 C419 1.481 . S
C422 C423 1.297 1_655 S
C422 H436 0.950 . S
C423 C422 1.297 1_455 S
C423 C424 1.479 . S
C423 H437 0.950 1_455 S
C424 C423 1.479 . S
C424 C425 1.375 . S
C424 C430 1.404 . S
C425 C424 1.375 . S
C425 C426 1.369 . S
C425 H438 0.950 . S
C426 C425 1.369 . S
C426 C427 1.392 . S
C426 H439 0.951 . S
C427 C426 1.392 . S
C427 C429 1.384 . S
H428 C430 0.949 . S
C429 C427 1.384 . S
C429 C430 1.385 . S
C429 H431 0.950 . S
C430 C424 1.404 . S
C430 H428 0.949 . S
C430 C429 1.385 . S
H431 C429 0.950 . S
H432 C416 0.951 . S
H433 C418 0.951 . S
H434 C420 0.951 . S
H435 C421 0.950 . S
H436 C422 0.950 . S
H437 C423 0.950 1_655 S
H438 C425 0.950 . S
H439 C426 0.951 . S
C440 C441 1.386 . S
C440 C442 1.383 . S
C440 H456 0.951 . S
C441 C440 1.386 . S
C441 C445 1.383 . S
C442 C440 1.383 . S
C442 C443 1.402 . S
C442 H457 0.951 . S
C443 C442 1.402 . S
C443 C444 1.375 . S
C443 C446 1.481 . S
C444 C443 1.375 . S
C444 C445 1.367 . S
C444 H458 0.951 . S
C445 C441 1.383 . S
C445 C444 1.367 . S
C445 H459 0.950 . S
C446 C443 1.481 . S
C446 C447 1.297 1_545 S
C446 H460 0.942 1_545 S
C447 C446 1.297 1_565 S
C447 C448 1.479 . S
C447 H461 0.950 1_565 S
C448 C447 1.479 . S
C448 C449 1.375 . S
C448 C454 1.404 . S
C449 C448 1.375 . S
C449 C450 1.369 . S
C449 H462 0.950 . S
C450 C449 1.369 . S
C450 C451 1.392 . S
C450 H463 0.951 . S
C451 C450 1.392 . S
C451 C453 1.384 . S
H452 C454 0.949 . S
C453 C451 1.384 . S
C453 C454 1.385 . S
C453 H455 0.950 . S
C454 C448 1.404 . S
C454 H452 0.949 . S
C454 C453 1.385 . S
H455 C453 0.950 . S
H456 C440 0.951 . S
H457 C442 0.951 . S
H458 C444 0.951 . S
H459 C445 0.950 . S
H460 C446 0.942 1_565 S
H461 C447 0.950 1_545 S
H462 C449 0.950 . S
H463 C450 0.951 . S
C464 C465 1.386 . S
C464 C466 1.383 . S
C464 H480 0.951 . S
C465 C464 1.386 . S
C465 C469 1.383 . S
C466 C464 1.383 . S
C466 C467 1.402 . S
C466 H481 0.951 . S
C467 C466 1.402 . S
C467 C468 1.375 . S
C467 C470 1.481 1_545 S
C468 C467 1.375 . S
C468 C469 1.367 . S
C468 H482 0.951 1_545 S
C469 C465 1.383 . S
C469 C468 1.367 . S
C469 H483 0.950 . S
C470 C467 1.481 1_565 S
C470 C471 1.297 . S
C470 H484 0.950 . S
C471 C470 1.297 . S
C471 C472 1.479 . S
C471 H485 0.950 1_565 S
C472 C471 1.479 . S
C472 C473 1.375 . S
C472 C478 1.404 . S
C473 C472 1.375 . S
C473 C474 1.369 . S
C473 H486 0.950 . S
C474 C473 1.369 . S
C474 C475 1.392 . S
C474 H487 0.951 . S
C475 C474 1.392 . S
C475 C477 1.384 . S
H476 C478 0.949 . S
C477 C475 1.384 . S
C477 C478 1.385 . S
C477 H479 0.950 . S
C478 C472 1.404 . S
C478 H476 0.949 . S
C478 C477 1.385 . S
H479 C477 0.950 . S
H480 C464 0.951 . S
H481 C466 0.951 . S
H482 C468 0.951 1_565 S
H483 C469 0.950 . S
H484 C470 0.950 . S
H485 C471 0.950 1_545 S
H486 C473 0.950 . S
H487 C474 0.951 . S
C105 C8 1.221 . S
C115 C73 1.230 . S
C129 C21 1.229 . S
C139 C86 1.216 . S
C153 C34 1.212 . S
C163 C99 1.267 . S
C177 C60 1.259 . S
C187 C47 1.185 . S
C201 C0 1.512 . S
C211 C62 1.448 . S
C225 C13 1.516 . S
C235 C75 1.495 . S
C249 C88 1.514 . S
C259 C26 1.481 . S
C273 C39 1.508 . S
C283 C101 1.512 . S
C297 C52 1.514 . S
C307 C10 1.448 1_655 S
C321 C23 1.474 . S
C331 C65 1.499 . S
C345 C78 1.500 . S
C355 C36 1.520 . S
C369 C49 1.509 . S
C379 C91 1.472 . S
C393 C31 0.419 . S
C403 C5 0.575 . S
C417 C44 0.453 . S
C427 C18 0.649 . S
C441 C57 0.460 . S
C451 C83 0.645 . S
C465 C70 0.400 . S
C475 C96 0.638 . S
