# Generated by pormake.
# Topology uli, (4)-cn, num edge types: 1
# Building blocks:
#     Node 0, Type 0, BuildingBlock: QUQFOY_clean_sbu_1, # of connection points: 4
#     Node 1, Type 0, BuildingBlock: QUQFOY_clean_sbu_1, # of connection points: 4
#     Node 2, Type 0, BuildingBlock: QUQFOY_clean_sbu_1, # of connection points: 4
#     Node 3, Type 0, BuildingBlock: QUQFOY_clean_sbu_1, # of connection points: 4
#     Node 4, Type 0, BuildingBlock: QUQFOY_clean_sbu_1, # of connection points: 4
#     Node 5, Type 0, BuildingBlock: QUQFOY_clean_sbu_1, # of connection points: 4
#     Node 6, Type 0, BuildingBlock: QUQFOY_clean_sbu_1, # of connection points: 4
#     Node 7, Type 0, BuildingBlock: QUQFOY_clean_sbu_1, # of connection points: 4
#     Node 8, Type 0, BuildingBlock: QUQFOY_clean_sbu_1, # of connection points: 4
#     Node 9, Type 0, BuildingBlock: QUQFOY_clean_sbu_1, # of connection points: 4
#     Node 10, Type 0, BuildingBlock: QUQFOY_clean_sbu_1, # of connection points: 4
#     Node 11, Type 0, BuildingBlock: QUQFOY_clean_sbu_1, # of connection points: 4
#     Node 12, Type 0, BuildingBlock: QUQFOY_clean_sbu_1, # of connection points: 4
#     Node 13, Type 0, BuildingBlock: QUQFOY_clean_sbu_1, # of connection points: 4
#     Node 14, Type 0, BuildingBlock: QUQFOY_clean_sbu_1, # of connection points: 4
#     Node 15, Type 0, BuildingBlock: QUQFOY_clean_sbu_1, # of connection points: 4
#     Node 16, Type 0, BuildingBlock: QUQFOY_clean_sbu_1, # of connection points: 4
#     Node 17, Type 0, BuildingBlock: QUQFOY_clean_sbu_1, # of connection points: 4
#     Node 18, Type 0, BuildingBlock: QUQFOY_clean_sbu_1, # of connection points: 4
#     Node 19, Type 0, BuildingBlock: QUQFOY_clean_sbu_1, # of connection points: 4
#     Node 20, Type 0, BuildingBlock: QUQFOY_clean_sbu_1, # of connection points: 4
#     Node 21, Type 0, BuildingBlock: QUQFOY_clean_sbu_1, # of connection points: 4
#     Node 22, Type 0, BuildingBlock: QUQFOY_clean_sbu_1, # of connection points: 4
#     Node 23, Type 0, BuildingBlock: QUQFOY_clean_sbu_1, # of connection points: 4
#     Node 24, Type 0, BuildingBlock: QUQFOY_clean_sbu_1, # of connection points: 4
#     Node 25, Type 0, BuildingBlock: QUQFOY_clean_sbu_1, # of connection points: 4
#     Node 26, Type 0, BuildingBlock: QUQFOY_clean_sbu_1, # of connection points: 4
#     Node 27, Type 0, BuildingBlock: QUQFOY_clean_sbu_1, # of connection points: 4
#     Node 28, Type 0, BuildingBlock: QUQFOY_clean_sbu_1, # of connection points: 4
#     Node 29, Type 0, BuildingBlock: QUQFOY_clean_sbu_1, # of connection points: 4
#     Node 30, Type 0, BuildingBlock: QUQFOY_clean_sbu_1, # of connection points: 4
#     Node 31, Type 0, BuildingBlock: QUQFOY_clean_sbu_1, # of connection points: 4
#     Node 32, Type 0, BuildingBlock: QUQFOY_clean_sbu_1, # of connection points: 4
#     Node 33, Type 0, BuildingBlock: QUQFOY_clean_sbu_1, # of connection points: 4
#     Node 34, Type 0, BuildingBlock: QUQFOY_clean_sbu_1, # of connection points: 4
#     Node 35, Type 0, BuildingBlock: QUQFOY_clean_sbu_1, # of connection points: 4
#     Node 36, Type 0, BuildingBlock: QUQFOY_clean_sbu_1, # of connection points: 4
#     Node 37, Type 0, BuildingBlock: QUQFOY_clean_sbu_1, # of connection points: 4
#     Node 38, Type 0, BuildingBlock: QUQFOY_clean_sbu_1, # of connection points: 4
#     Node 39, Type 0, BuildingBlock: QUQFOY_clean_sbu_1, # of connection points: 4
#     Node 40, Type 0, BuildingBlock: QUQFOY_clean_sbu_1, # of connection points: 4
#     Node 41, Type 0, BuildingBlock: QUQFOY_clean_sbu_1, # of connection points: 4
#     Node 42, Type 0, BuildingBlock: QUQFOY_clean_sbu_1, # of connection points: 4
#     Node 43, Type 0, BuildingBlock: QUQFOY_clean_sbu_1, # of connection points: 4
#     Node 44, Type 0, BuildingBlock: QUQFOY_clean_sbu_1, # of connection points: 4
#     Node 45, Type 0, BuildingBlock: QUQFOY_clean_sbu_1, # of connection points: 4
#     Node 46, Type 0, BuildingBlock: QUQFOY_clean_sbu_1, # of connection points: 4
#     Node 47, Type 0, BuildingBlock: QUQFOY_clean_sbu_1, # of connection points: 4
#     Edge 48, Type (0, 0), BuildingBlock: AJUNOK_clean_linker_0, # of connection points: 2
#     Edge 49, Type (0, 0), BuildingBlock: AJUNOK_clean_linker_0, # of connection points: 2
#     Edge 50, Type (0, 0), BuildingBlock: AJUNOK_clean_linker_0, # of connection points: 2
#     Edge 51, Type (0, 0), BuildingBlock: AJUNOK_clean_linker_0, # of connection points: 2
#     Edge 52, Type (0, 0), BuildingBlock: AJUNOK_clean_linker_0, # of connection points: 2
#     Edge 53, Type (0, 0), BuildingBlock: AJUNOK_clean_linker_0, # of connection points: 2
#     Edge 54, Type (0, 0), BuildingBlock: AJUNOK_clean_linker_0, # of connection points: 2
#     Edge 55, Type (0, 0), BuildingBlock: AJUNOK_clean_linker_0, # of connection points: 2
#     Edge 56, Type (0, 0), BuildingBlock: AJUNOK_clean_linker_0, # of connection points: 2
#     Edge 57, Type (0, 0), BuildingBlock: AJUNOK_clean_linker_0, # of connection points: 2
#     Edge 58, Type (0, 0), BuildingBlock: AJUNOK_clean_linker_0, # of connection points: 2
#     Edge 59, Type (0, 0), BuildingBlock: AJUNOK_clean_linker_0, # of connection points: 2
#     Edge 60, Type (0, 0), BuildingBlock: AJUNOK_clean_linker_0, # of connection points: 2
#     Edge 61, Type (0, 0), BuildingBlock: AJUNOK_clean_linker_0, # of connection points: 2
#     Edge 62, Type (0, 0), BuildingBlock: AJUNOK_clean_linker_0, # of connection points: 2
#     Edge 63, Type (0, 0), BuildingBlock: AJUNOK_clean_linker_0, # of connection points: 2
#     Edge 64, Type (0, 0), BuildingBlock: AJUNOK_clean_linker_0, # of connection points: 2
#     Edge 65, Type (0, 0), BuildingBlock: AJUNOK_clean_linker_0, # of connection points: 2
#     Edge 66, Type (0, 0), BuildingBlock: AJUNOK_clean_linker_0, # of connection points: 2
#     Edge 67, Type (0, 0), BuildingBlock: AJUNOK_clean_linker_0, # of connection points: 2
#     Edge 68, Type (0, 0), BuildingBlock: AJUNOK_clean_linker_0, # of connection points: 2
#     Edge 69, Type (0, 0), BuildingBlock: AJUNOK_clean_linker_0, # of connection points: 2
#     Edge 70, Type (0, 0), BuildingBlock: AJUNOK_clean_linker_0, # of connection points: 2
#     Edge 71, Type (0, 0), BuildingBlock: AJUNOK_clean_linker_0, # of connection points: 2
#     Edge 72, Type (0, 0), BuildingBlock: AJUNOK_clean_linker_0, # of connection points: 2
#     Edge 73, Type (0, 0), BuildingBlock: AJUNOK_clean_linker_0, # of connection points: 2
#     Edge 74, Type (0, 0), BuildingBlock: AJUNOK_clean_linker_0, # of connection points: 2
#     Edge 75, Type (0, 0), BuildingBlock: AJUNOK_clean_linker_0, # of connection points: 2
#     Edge 76, Type (0, 0), BuildingBlock: AJUNOK_clean_linker_0, # of connection points: 2
#     Edge 77, Type (0, 0), BuildingBlock: AJUNOK_clean_linker_0, # of connection points: 2
#     Edge 78, Type (0, 0), BuildingBlock: AJUNOK_clean_linker_0, # of connection points: 2
#     Edge 79, Type (0, 0), BuildingBlock: AJUNOK_clean_linker_0, # of connection points: 2
#     Edge 80, Type (0, 0), BuildingBlock: AJUNOK_clean_linker_0, # of connection points: 2
#     Edge 81, Type (0, 0), BuildingBlock: AJUNOK_clean_linker_0, # of connection points: 2
#     Edge 82, Type (0, 0), BuildingBlock: AJUNOK_clean_linker_0, # of connection points: 2
#     Edge 83, Type (0, 0), BuildingBlock: AJUNOK_clean_linker_0, # of connection points: 2
#     Edge 84, Type (0, 0), BuildingBlock: AJUNOK_clean_linker_0, # of connection points: 2
#     Edge 85, Type (0, 0), BuildingBlock: AJUNOK_clean_linker_0, # of connection points: 2
#     Edge 86, Type (0, 0), BuildingBlock: AJUNOK_clean_linker_0, # of connection points: 2
#     Edge 87, Type (0, 0), BuildingBlock: AJUNOK_clean_linker_0, # of connection points: 2
#     Edge 88, Type (0, 0), BuildingBlock: AJUNOK_clean_linker_0, # of connection points: 2
#     Edge 89, Type (0, 0), BuildingBlock: AJUNOK_clean_linker_0, # of connection points: 2
#     Edge 90, Type (0, 0), BuildingBlock: AJUNOK_clean_linker_0, # of connection points: 2
#     Edge 91, Type (0, 0), BuildingBlock: AJUNOK_clean_linker_0, # of connection points: 2
#     Edge 92, Type (0, 0), BuildingBlock: AJUNOK_clean_linker_0, # of connection points: 2
#     Edge 93, Type (0, 0), BuildingBlock: AJUNOK_clean_linker_0, # of connection points: 2
#     Edge 94, Type (0, 0), BuildingBlock: AJUNOK_clean_linker_0, # of connection points: 2
#     Edge 95, Type (0, 0), BuildingBlock: AJUNOK_clean_linker_0, # of connection points: 2
#     Edge 96, Type (0, 0), BuildingBlock: AJUNOK_clean_linker_0, # of connection points: 2
#     Edge 97, Type (0, 0), BuildingBlock: AJUNOK_clean_linker_0, # of connection points: 2
#     Edge 98, Type (0, 0), BuildingBlock: AJUNOK_clean_linker_0, # of connection points: 2
#     Edge 99, Type (0, 0), BuildingBlock: AJUNOK_clean_linker_0, # of connection points: 2
#     Edge 100, Type (0, 0), BuildingBlock: AJUNOK_clean_linker_0, # of connection points: 2
#     Edge 101, Type (0, 0), BuildingBlock: AJUNOK_clean_linker_0, # of connection points: 2
#     Edge 102, Type (0, 0), BuildingBlock: AJUNOK_clean_linker_0, # of connection points: 2
#     Edge 103, Type (0, 0), BuildingBlock: AJUNOK_clean_linker_0, # of connection points: 2
#     Edge 104, Type (0, 0), BuildingBlock: AJUNOK_clean_linker_0, # of connection points: 2
#     Edge 105, Type (0, 0), BuildingBlock: AJUNOK_clean_linker_0, # of connection points: 2
#     Edge 106, Type (0, 0), BuildingBlock: AJUNOK_clean_linker_0, # of connection points: 2
#     Edge 107, Type (0, 0), BuildingBlock: AJUNOK_clean_linker_0, # of connection points: 2
#     Edge 108, Type (0, 0), BuildingBlock: AJUNOK_clean_linker_0, # of connection points: 2
#     Edge 109, Type (0, 0), BuildingBlock: AJUNOK_clean_linker_0, # of connection points: 2
#     Edge 110, Type (0, 0), BuildingBlock: AJUNOK_clean_linker_0, # of connection points: 2
#     Edge 111, Type (0, 0), BuildingBlock: AJUNOK_clean_linker_0, # of connection points: 2
#     Edge 112, Type (0, 0), BuildingBlock: AJUNOK_clean_linker_0, # of connection points: 2
#     Edge 113, Type (0, 0), BuildingBlock: AJUNOK_clean_linker_0, # of connection points: 2
#     Edge 114, Type (0, 0), BuildingBlock: AJUNOK_clean_linker_0, # of connection points: 2
#     Edge 115, Type (0, 0), BuildingBlock: AJUNOK_clean_linker_0, # of connection points: 2
#     Edge 116, Type (0, 0), BuildingBlock: AJUNOK_clean_linker_0, # of connection points: 2
#     Edge 117, Type (0, 0), BuildingBlock: AJUNOK_clean_linker_0, # of connection points: 2
#     Edge 118, Type (0, 0), BuildingBlock: AJUNOK_clean_linker_0, # of connection points: 2
#     Edge 119, Type (0, 0), BuildingBlock: AJUNOK_clean_linker_0, # of connection points: 2
#     Edge 120, Type (0, 0), BuildingBlock: AJUNOK_clean_linker_0, # of connection points: 2
#     Edge 121, Type (0, 0), BuildingBlock: AJUNOK_clean_linker_0, # of connection points: 2
#     Edge 122, Type (0, 0), BuildingBlock: AJUNOK_clean_linker_0, # of connection points: 2
#     Edge 123, Type (0, 0), BuildingBlock: AJUNOK_clean_linker_0, # of connection points: 2
#     Edge 124, Type (0, 0), BuildingBlock: AJUNOK_clean_linker_0, # of connection points: 2
#     Edge 125, Type (0, 0), BuildingBlock: AJUNOK_clean_linker_0, # of connection points: 2
#     Edge 126, Type (0, 0), BuildingBlock: AJUNOK_clean_linker_0, # of connection points: 2
#     Edge 127, Type (0, 0), BuildingBlock: AJUNOK_clean_linker_0, # of connection points: 2
#     Edge 128, Type (0, 0), BuildingBlock: AJUNOK_clean_linker_0, # of connection points: 2
#     Edge 129, Type (0, 0), BuildingBlock: AJUNOK_clean_linker_0, # of connection points: 2
#     Edge 130, Type (0, 0), BuildingBlock: AJUNOK_clean_linker_0, # of connection points: 2
#     Edge 131, Type (0, 0), BuildingBlock: AJUNOK_clean_linker_0, # of connection points: 2
#     Edge 132, Type (0, 0), BuildingBlock: AJUNOK_clean_linker_0, # of connection points: 2
#     Edge 133, Type (0, 0), BuildingBlock: AJUNOK_clean_linker_0, # of connection points: 2
#     Edge 134, Type (0, 0), BuildingBlock: AJUNOK_clean_linker_0, # of connection points: 2
#     Edge 135, Type (0, 0), BuildingBlock: AJUNOK_clean_linker_0, # of connection points: 2
#     Edge 136, Type (0, 0), BuildingBlock: AJUNOK_clean_linker_0, # of connection points: 2
#     Edge 137, Type (0, 0), BuildingBlock: AJUNOK_clean_linker_0, # of connection points: 2
#     Edge 138, Type (0, 0), BuildingBlock: AJUNOK_clean_linker_0, # of connection points: 2
#     Edge 139, Type (0, 0), BuildingBlock: AJUNOK_clean_linker_0, # of connection points: 2
#     Edge 140, Type (0, 0), BuildingBlock: AJUNOK_clean_linker_0, # of connection points: 2
#     Edge 141, Type (0, 0), BuildingBlock: AJUNOK_clean_linker_0, # of connection points: 2
#     Edge 142, Type (0, 0), BuildingBlock: AJUNOK_clean_linker_0, # of connection points: 2
#     Edge 143, Type (0, 0), BuildingBlock: AJUNOK_clean_linker_0, # of connection points: 2
# Relax obj value: 0.313
# Max RMSD: 0.115
# Mean RMSD: 0.115
data_MOF--net-uli--node1-QUQFOY_clean_sbu_1--edge1-AJUNOK_clean_linker_0
_symmetry_space_group_name_H-M    P1
_symmetry_Int_Tables_number       1
_symmetry_cell_setting            triclinic
loop_
_symmetry_equiv_pos_as_xyz
'x, y, z'
_cell_length_a     54.860253
_cell_length_b     54.83526
_cell_length_c     54.82296
_cell_angle_alpha  89.971398
_cell_angle_beta   90.034813
_cell_angle_gamma 89.97932
loop_
_atom_site_label
_atom_site_type_symbol
_atom_site_fract_x
_atom_site_fract_y
_atom_site_fract_z
_atom_type_partial_charge
O0 O 0.11097 0.22087 0.23275 0.0
Cd1 Cd 0.09601 0.24971 0.21437 0.0
Cd2 Cd 0.12714 0.27041 0.24263 0.0
O3 O 0.12428 0.2403 0.26511 0.0
O4 O 0.06927 0.23224 0.19769 0.0
O5 O 0.06272 0.26002 0.22604 0.0
C6 C 0.05421 0.2431 0.21202 0.0
C7 C 0.13174 0.31105 0.25256 0.0
C8 C 0.1196 0.22039 0.2542 0.0
C9 C 0.14009 0.26527 0.19051 0.0
O10 O 0.14799 0.26444 0.21225 0.0
O11 O 0.11728 0.26381 0.18661 0.0
O12 O 0.14684 0.29479 0.26032 0.0
O13 O 0.11199 0.30381 0.24195 0.0
O14 O 0.78837 0.1095 0.23698 0.0
Cd15 Cd 0.75683 0.09674 0.22155 0.0
Cd16 Cd 0.74028 0.12653 0.25211 0.0
O17 O 0.77233 0.12189 0.27148 0.0
O18 O 0.76823 0.06687 0.20483 0.0
O19 O 0.7432 0.06622 0.23647 0.0
C20 C 0.75681 0.05446 0.22123 0.0
C21 C 0.69984 0.12773 0.26319 0.0
C22 C 0.79106 0.11718 0.25863 0.0
C23 C 0.7404 0.14247 0.2011 0.0
O24 O 0.74387 0.14938 0.22292 0.0
O25 O 0.74085 0.1198 0.19616 0.0
O26 O 0.71534 0.14295 0.27228 0.0
O27 O 0.70806 0.10941 0.2508 0.0
O28 O 0.88874 0.78733 0.22906 0.0
Cd29 Cd 0.90573 0.75778 0.21388 0.0
Cd30 Cd 0.87526 0.73537 0.24046 0.0
O31 O 0.8736 0.76745 0.26035 0.0
O32 O 0.93839 0.76991 0.20471 0.0
O33 O 0.93226 0.74249 0.23379 0.0
C34 C 0.94706 0.75679 0.22227 0.0
C35 C 0.87345 0.69566 0.25487 0.0
C36 C 0.87796 0.78752 0.24952 0.0
C37 C 0.8655 0.7369 0.18703 0.0
O38 O 0.85631 0.73625 0.20825 0.0
O39 O 0.88783 0.74252 0.18435 0.0
O40 O 0.85635 0.71111 0.25934 0.0
O41 O 0.89316 0.7035 0.24467 0.0
O42 O 0.2047 0.88033 0.23066 0.0
Cd43 Cd 0.22299 0.90375 0.20827 0.0
Cd44 Cd 0.26092 0.86439 0.2182 0.0
O45 O 0.23332 0.85443 0.24205 0.0
O46 O 0.19789 0.92968 0.2056 0.0
O47 O 0.23412 0.93625 0.22164 0.0
C48 C 0.21261 0.94429 0.21648 0.0
C49 C 0.29763 0.84251 0.22419 0.0
C50 C 0.21146 0.86209 0.24317 0.0
C51 C 0.23939 0.87411 0.16631 0.0
O52 O 0.25265 0.86303 0.18171 0.0
O53 O 0.2265 0.89223 0.17272 0.0
O54 O 0.27776 0.8323 0.21745 0.0
O55 O 0.29687 0.86557 0.22864 0.0
O56 O 0.10662 0.78173 0.772 0.0
Cd57 Cd 0.09686 0.74916 0.78749 0.0
Cd58 Cd 0.12289 0.73393 0.75397 0.0
O59 O 0.11409 0.76599 0.73599 0.0
O60 O 0.06598 0.75593 0.80485 0.0
O61 O 0.06839 0.73334 0.7714 0.0
C62 C 0.0551 0.74442 0.78739 0.0
C63 C 0.12174 0.69338 0.74336 0.0
C64 C 0.1109 0.78465 0.74942 0.0
C65 C 0.14477 0.73327 0.80252 0.0
O66 O 0.14923 0.73759 0.78021 0.0
O67 O 0.12273 0.73296 0.80977 0.0
O68 O 0.13578 0.70847 0.73192 0.0
O69 O 0.10556 0.70216 0.75808 0.0
O70 O 0.20941 0.10524 0.7674 0.0
Cd71 Cd 0.23855 0.09028 0.78533 0.0
Cd72 Cd 0.2604 0.1165 0.75426 0.0
O73 O 0.22915 0.11271 0.73346 0.0
O74 O 0.22305 0.06267 0.80237 0.0
O75 O 0.24956 0.05796 0.77231 0.0
C76 C 0.23383 0.04844 0.78708 0.0
C77 C 0.30025 0.11746 0.74045 0.0
C78 C 0.20913 0.11093 0.74498 0.0
C79 C 0.25877 0.13431 0.80531 0.0
O80 O 0.25791 0.14052 0.783 0.0
O81 O 0.25516 0.11216 0.81107 0.0
O82 O 0.28424 0.13288 0.73282 0.0
O83 O 0.29293 0.09944 0.75375 0.0
O84 O 0.88189 0.2076 0.77448 0.0
Cd85 Cd 0.90422 0.22756 0.79645 0.0
Cd86 Cd 0.86519 0.26358 0.78454 0.0
O87 O 0.85801 0.23624 0.75939 0.0
O88 O 0.93261 0.20536 0.79852 0.0
O89 O 0.93461 0.24184 0.7816 0.0
C90 C 0.94502 0.22131 0.7866 0.0
C91 C 0.84207 0.29948 0.77864 0.0
C92 C 0.86524 0.21419 0.75987 0.0
C93 C 0.87311 0.24237 0.83703 0.0
O94 O 0.86198 0.25452 0.82077 0.0
O95 O 0.89249 0.23084 0.83189 0.0
O96 O 0.83239 0.27887 0.7837 0.0
O97 O 0.86533 0.29993 0.7754 0.0
O98 O 0.81033 0.89925 0.80035 0.0
Cd99 Cd 0.77801 0.91497 0.81057 0.0
Cd100 Cd 0.75989 0.88906 0.77556 0.0
O101 O 0.79573 0.89231 0.76376 0.0
O102 O 0.78459 0.94941 0.81869 0.0
O103 O 0.7642 0.9376 0.7857 0.0
C104 C 0.77453 0.95486 0.79804 0.0
C105 C 0.72895 0.88109 0.7475 0.0
C106 C 0.81385 0.89347 0.77824 0.0
C107 C 0.75009 0.87446 0.82807 0.0
O108 O 0.75266 0.86816 0.80594 0.0
O109 O 0.75687 0.89553 0.83489 0.0
O110 O 0.74717 0.86665 0.75033 0.0
O111 O 0.72904 0.90146 0.75925 0.0
O112 O 0.19221 0.09846 0.19863 0.0
Cd113 Cd 0.17964 0.08573 0.23156 0.0
Cd114 Cd 0.21729 0.10693 0.24818 0.0
O115 O 0.22945 0.10046 0.21298 0.0
O116 O 0.16528 0.05316 0.22637 0.0
O117 O 0.20026 0.05951 0.24582 0.0
C118 C 0.1847 0.04441 0.23652 0.0
C119 C 0.24413 0.11077 0.28075 0.0
C120 C 0.21492 0.10084 0.19489 0.0
C121 C 0.16852 0.12993 0.25706 0.0
O122 O 0.19104 0.13327 0.25305 0.0
O123 O 0.15899 0.10938 0.25226 0.0
O124 O 0.24553 0.12451 0.26181 0.0
O125 O 0.22882 0.09292 0.28041 0.0
O126 O 0.90082 0.20141 0.19513 0.0
Cd127 Cd 0.91706 0.1915 0.2273 0.0
Cd128 Cd 0.88982 0.2259 0.24514 0.0
O129 O 0.89406 0.23808 0.20947 0.0
O130 O 0.95082 0.18239 0.21917 0.0
O131 O 0.941 0.2159 0.23972 0.0
C132 C 0.95732 0.20303 0.22855 0.0
C133 C 0.87828 0.25328 0.2756 0.0
C134 C 0.89531 0.22356 0.19141 0.0
C135 C 0.87704 0.17285 0.25476 0.0
O136 O 0.86997 0.19466 0.25158 0.0
O137 O 0.89853 0.16675 0.2487 0.0
O138 O 0.86521 0.24971 0.2565 0.0
O139 O 0.89935 0.24289 0.27666 0.0
O140 O 0.77922 0.89545 0.20043 0.0
Cd141 Cd 0.793 0.91151 0.23125 0.0
Cd142 Cd 0.76258 0.88395 0.25153 0.0
O143 O 0.74492 0.88495 0.2181 0.0
O144 O 0.80318 0.94479 0.22179 0.0
O145 O 0.77187 0.93711 0.24624 0.0
C146 C 0.78455 0.9527 0.23388 0.0
C147 C 0.74543 0.8823 0.29012 0.0
C148 C 0.75762 0.88733 0.19881 0.0
C149 C 0.81478 0.8696 0.25416 0.0
O150 O 0.79293 0.86215 0.25266 0.0
O151 O 0.81967 0.89174 0.24929 0.0
O152 O 0.74039 0.8662 0.27378 0.0
O153 O 0.75777 0.90126 0.28361 0.0
O154 O 0.10341 0.75621 0.21848 0.0
Cd155 Cd 0.09061 0.77271 0.24945 0.0
Cd156 Cd 0.12026 0.74279 0.2671 0.0
O157 O 0.11552 0.72223 0.23585 0.0
O158 O 0.06038 0.78858 0.23783 0.0
O159 O 0.06055 0.75768 0.26384 0.0
C160 C 0.04839 0.7723 0.24987 0.0
C161 C 0.12177 0.73369 0.30793 0.0
C162 C 0.11105 0.73445 0.21662 0.0
C163 C 0.13613 0.79373 0.26536 0.0
O164 O 0.14308 0.77186 0.26249 0.0
O165 O 0.11349 0.79873 0.2645 0.0
O166 O 0.13684 0.72377 0.29279 0.0
O167 O 0.1032 0.74537 0.29922 0.0
O168 O 0.19707 0.89364 0.79915 0.0
Cd169 Cd 0.18381 0.91114 0.76909 0.0
Cd170 Cd 0.21671 0.88221 0.74611 0.0
O171 O 0.23181 0.88625 0.78079 0.0
O172 O 0.17534 0.94406 0.78059 0.0
O173 O 0.20619 0.93634 0.75547 0.0
C174 C 0.19463 0.95157 0.76933 0.0
C175 C 0.24138 0.86465 0.71596 0.0
C176 C 0.21935 0.88769 0.80033 0.0
C177 C 0.16129 0.87294 0.74225 0.0
O178 O 0.18325 0.8657 0.74184 0.0
O179 O 0.15611 0.89383 0.75073 0.0
O180 O 0.23632 0.8536 0.73594 0.0
O181 O 0.2341 0.88689 0.71357 0.0
O182 O 0.10176 0.20387 0.7832 0.0
Cd183 Cd 0.08417 0.18803 0.7544 0.0
Cd184 Cd 0.11053 0.21968 0.72908 0.0
O185 O 0.10923 0.2373 0.76253 0.0
O186 O 0.05288 0.17657 0.76774 0.0
O187 O 0.0561 0.20701 0.7412 0.0
C188 C 0.04273 0.19424 0.75587 0.0
C189 C 0.12174 0.24352 0.6956 0.0
C190 C 0.10842 0.226 0.78276 0.0
C191 C 0.12357 0.16556 0.72873 0.0
O192 O 0.13008 0.18768 0.72687 0.0
O193 O 0.10266 0.1604 0.73718 0.0
O194 O 0.13547 0.24102 0.71435 0.0
O195 O 0.10049 0.23352 0.69599 0.0
O196 O 0.75669 0.10772 0.77721 0.0
Cd197 Cd 0.77636 0.09357 0.74879 0.0
Cd198 Cd 0.74676 0.12417 0.72764 0.0
O199 O 0.72414 0.12005 0.75742 0.0
O200 O 0.79493 0.06865 0.76717 0.0
O201 O 0.76769 0.05914 0.73916 0.0
C202 C 0.78223 0.05218 0.75635 0.0
C203 C 0.73701 0.12975 0.68701 0.0
C204 C 0.73497 0.11563 0.77744 0.0
C205 C 0.79822 0.13888 0.73331 0.0
O206 O 0.77624 0.146 0.73431 0.0
O207 O 0.80294 0.11622 0.73456 0.0
O208 O 0.72864 0.14407 0.70364 0.0
O209 O 0.74814 0.1101 0.69377 0.0
O210 O 0.88962 0.76335 0.7854 0.0
Cd211 Cd 0.9139 0.78396 0.76626 0.0
Cd212 Cd 0.87451 0.77753 0.7291 0.0
O213 O 0.86303 0.75419 0.75661 0.0
O214 O 0.94289 0.78263 0.78787 0.0
O215 O 0.94275 0.76769 0.75048 0.0
C216 C 0.95413 0.77104 0.77083 0.0
C217 C 0.85207 0.77357 0.69244 0.0
C218 C 0.87059 0.75225 0.77849 0.0
C219 C 0.88768 0.8283 0.75113 0.0
O220 O 0.87566 0.81392 0.73758 0.0
O221 O 0.90523 0.82042 0.76403 0.0
O222 O 0.84247 0.78076 0.71245 0.0
O223 O 0.87474 0.76744 0.69302 0.0
O224 O 0.20752 0.22323 0.1056 0.0
Cd225 Cd 0.22816 0.20066 0.08441 0.0
Cd226 Cd 0.26369 0.21323 0.12295 0.0
O227 O 0.23595 0.23801 0.12991 0.0
O228 O 0.208 0.19795 0.05457 0.0
O229 O 0.24464 0.21467 0.05476 0.0
C230 C 0.22499 0.20924 0.04296 0.0
C231 C 0.29979 0.22011 0.1454 0.0
C232 C 0.21399 0.23774 0.12239 0.0
C233 C 0.24315 0.16054 0.11634 0.0
O234 O 0.25545 0.17692 0.12708 0.0
O235 O 0.23127 0.1655 0.09711 0.0
O236 O 0.27941 0.21496 0.15552 0.0
O237 O 0.29984 0.22297 0.12207 0.0
O238 O 0.2184 0.76396 0.8845 0.0
Cd239 Cd 0.23607 0.78661 0.90812 0.0
Cd240 Cd 0.2739 0.7755 0.86963 0.0
O241 O 0.24691 0.75128 0.85908 0.0
O242 O 0.20934 0.79014 0.93221 0.0
O243 O 0.24473 0.77373 0.94165 0.0
C244 C 0.22275 0.77923 0.94801 0.0
C245 C 0.31177 0.77029 0.85011 0.0
C246 C 0.22501 0.75081 0.86668 0.0
C247 C 0.25214 0.82753 0.87721 0.0
O248 O 0.26501 0.81161 0.8665 0.0
O249 O 0.23988 0.82196 0.89604 0.0
O250 O 0.29237 0.77621 0.83858 0.0
O251 O 0.30989 0.76579 0.8731 0.0
O252 O 0.22401 0.21156 0.88152 0.0
Cd253 Cd 0.20329 0.23693 0.8994 0.0
Cd254 Cd 0.22528 0.26568 0.86715 0.0
O255 O 0.24925 0.23679 0.86326 0.0
O256 O 0.19356 0.21924 0.92928 0.0
O257 O 0.21719 0.25192 0.92983 0.0
C258 C 0.20694 0.23419 0.94149 0.0
C259 C 0.23716 0.30598 0.86072 0.0
C260 C 0.24295 0.21515 0.86876 0.0
C261 C 0.17186 0.25368 0.86027 0.0
O262 O 0.19196 0.26034 0.85099 0.0
O263 O 0.1712 0.246 0.8821 0.0
O264 O 0.23895 0.28974 0.84396 0.0
O265 O 0.23029 0.2992 0.88217 0.0
O266 O 0.78998 0.19039 0.8974 0.0
Cd267 Cd 0.75691 0.17866 0.91045 0.0
Cd268 Cd 0.74059 0.21607 0.88735 0.0
O269 O 0.77587 0.22768 0.89444 0.0
O270 O 0.76213 0.16569 0.94361 0.0
O271 O 0.74307 0.20061 0.93577 0.0
C272 C 0.75243 0.18569 0.9515 0.0
C273 C 0.70967 0.24424 0.88011 0.0
C274 C 0.79388 0.21305 0.89469 0.0
C275 C 0.7313 0.16593 0.86682 0.0
O276 O 0.73537 0.18832 0.86263 0.0
O277 O 0.73614 0.15711 0.88769 0.0
O278 O 0.72905 0.24346 0.86699 0.0
O279 O 0.70857 0.23035 0.89908 0.0
O280 O 0.76669 0.7831 0.88826 0.0
Cd281 Cd 0.78109 0.75071 0.90013 0.0
Cd282 Cd 0.74987 0.73589 0.87045 0.0
O283 O 0.73154 0.76839 0.87606 0.0
O284 O 0.79825 0.76047 0.93032 0.0
O285 O 0.76552 0.73687 0.93019 0.0
C286 C 0.78129 0.74947 0.94237 0.0
C287 C 0.73815 0.69564 0.86928 0.0
C288 C 0.74502 0.78663 0.88099 0.0
C289 C 0.80056 0.73476 0.85389 0.0
O290 O 0.77883 0.73914 0.84726 0.0
O291 O 0.80568 0.73439 0.87654 0.0
O292 O 0.72894 0.71138 0.85435 0.0
O293 O 0.75099 0.70358 0.88743 0.0
O294 O 0.79362 0.77189 0.10459 0.0
Cd295 Cd 0.76754 0.78938 0.08435 0.0
Cd296 Cd 0.73858 0.76615 0.11422 0.0
O297 O 0.76894 0.74432 0.11986 0.0
O298 O 0.78275 0.79498 0.05215 0.0
O299 O 0.75142 0.77011 0.05784 0.0
C300 C 0.76784 0.77898 0.04342 0.0
C301 C 0.69898 0.752 0.12051 0.0
C302 C 0.79043 0.75247 0.11677 0.0
C303 C 0.74555 0.82066 0.1204 0.0
O304 O 0.74031 0.80016 0.12974 0.0
O305 O 0.75484 0.82161 0.09919 0.0
O306 O 0.7152 0.75136 0.13738 0.0
O307 O 0.7056 0.75865 0.09895 0.0
O308 O 0.18903 0.79388 0.10033 0.0
Cd309 Cd 0.17747 0.76139 0.08585 0.0
Cd310 Cd 0.21401 0.74363 0.11051 0.0
O311 O 0.2259 0.7792 0.10523 0.0
O312 O 0.16614 0.76769 0.05231 0.0
O313 O 0.2002 0.74759 0.06119 0.0
C314 C 0.18616 0.75758 0.04504 0.0
C315 C 0.242 0.71314 0.12026 0.0
C316 C 0.2115 0.79739 0.10454 0.0
C317 C 0.16224 0.73433 0.12769 0.0
O318 O 0.18455 0.73742 0.13291 0.0
O319 O 0.15431 0.74058 0.10685 0.0
O320 O 0.23958 0.73241 0.13332 0.0
O321 O 0.23016 0.71201 0.09995 0.0
O322 O 0.76943 0.21192 0.11306 0.0
Cd323 Cd 0.78947 0.23058 0.08794 0.0
Cd324 Cd 0.77987 0.26872 0.12804 0.0
O325 O 0.75696 0.24053 0.13849 0.0
O326 O 0.79125 0.20488 0.06255 0.0
O327 O 0.77335 0.2403 0.05621 0.0
C328 C 0.77857 0.21869 0.04848 0.0
C329 C 0.77489 0.30453 0.15164 0.0
C330 C 0.75689 0.21846 0.13133 0.0
C331 C 0.83196 0.24869 0.11533 0.0
O332 O 0.81644 0.26106 0.1272 0.0
O333 O 0.82544 0.23573 0.09729 0.0
O334 O 0.78232 0.28433 0.16069 0.0
O335 O 0.76913 0.30461 0.12885 0.0
O336 O 0.61531 0.724 0.72903 0.0
Cd337 Cd 0.5915 0.74184 0.7067 0.0
Cd338 Cd 0.63098 0.78031 0.71543 0.0
O339 O 0.64172 0.75271 0.73895 0.0
O340 O 0.56556 0.71674 0.7048 0.0
O341 O 0.55925 0.75325 0.72037 0.0
C342 C 0.55109 0.73171 0.71556 0.0
C343 C 0.65408 0.81636 0.71999 0.0
C344 C 0.63392 0.73095 0.74083 0.0
C345 C 0.61979 0.75858 0.66393 0.0
O346 O 0.63088 0.77219 0.67896 0.0
O347 O 0.60244 0.74496 0.67091 0.0
O348 O 0.66336 0.79619 0.71286 0.0
O349 O 0.63135 0.81629 0.7259 0.0
O350 O 0.28222 0.60903 0.738 0.0
Cd351 Cd 0.25319 0.59191 0.72213 0.0
Cd352 Cd 0.23233 0.62304 0.74864 0.0
O353 O 0.26322 0.62302 0.77027 0.0
O354 O 0.26975 0.56288 0.7089 0.0
O355 O 0.24233 0.56098 0.73847 0.0
C356 C 0.25891 0.55033 0.72554 0.0
C357 C 0.19163 0.62457 0.75886 0.0
C358 C 0.28298 0.61881 0.75893 0.0
C359 C 0.23518 0.63332 0.69577 0.0
O360 O 0.23617 0.64253 0.717 0.0
O361 O 0.2377 0.61042 0.69319 0.0
O362 O 0.20657 0.64134 0.76581 0.0
O363 O 0.20048 0.60501 0.7491 0.0
O364 O 0.38111 0.28292 0.73162 0.0
Cd365 Cd 0.39772 0.25619 0.71153 0.0
Cd366 Cd 0.36749 0.2306 0.7362 0.0
O367 O 0.36635 0.25941 0.76045 0.0
O368 O 0.42649 0.2737 0.69875 0.0
O369 O 0.42924 0.24284 0.72459 0.0
C370 C 0.43981 0.26013 0.71255 0.0
C371 C 0.36653 0.18947 0.746 0.0
C372 C 0.37059 0.28061 0.75208 0.0
C373 C 0.35589 0.23993 0.6839 0.0
O374 O 0.34736 0.23631 0.70511 0.0
O375 O 0.3784 0.24477 0.68136 0.0
O376 O 0.34925 0.20405 0.75232 0.0
O377 O 0.38582 0.19864 0.73611 0.0
O378 O 0.68991 0.40605 0.71058 0.0
Cd379 Cd 0.72062 0.42224 0.69708 0.0
Cd380 Cd 0.74283 0.39126 0.72903 0.0
O381 O 0.70845 0.39552 0.74447 0.0
O382 O 0.71012 0.45532 0.68769 0.0
O383 O 0.7353 0.44782 0.7185 0.0
C384 C 0.72204 0.46319 0.70643 0.0
C385 C 0.77259 0.37324 0.75396 0.0
C386 C 0.68885 0.39865 0.73246 0.0
C387 C 0.74553 0.3828 0.67348 0.0
O388 O 0.74627 0.37501 0.69528 0.0
O389 O 0.73788 0.40421 0.66907 0.0
O390 O 0.75262 0.36239 0.74849 0.0
O391 O 0.77544 0.39536 0.74652 0.0
O392 O 0.6147 0.28544 0.26966 0.0
Cd393 Cd 0.60246 0.2538 0.28518 0.0
Cd394 Cd 0.6309 0.23757 0.25369 0.0
O395 O 0.62501 0.26956 0.23441 0.0
O396 O 0.5737 0.26545 0.30336 0.0
O397 O 0.57112 0.24129 0.27113 0.0
C398 C 0.56038 0.25492 0.28709 0.0
C399 C 0.62979 0.19676 0.24492 0.0
C400 C 0.62085 0.28825 0.24754 0.0
C401 C 0.64864 0.23673 0.30379 0.0
O402 O 0.65498 0.24104 0.28195 0.0
O403 O 0.62614 0.23711 0.30941 0.0
O404 O 0.64495 0.21103 0.23386 0.0
O405 O 0.61233 0.2065 0.25747 0.0
O406 O 0.71562 0.61309 0.27216 0.0
Cd407 Cd 0.74422 0.59688 0.28994 0.0
Cd408 Cd 0.76699 0.62197 0.25898 0.0
O409 O 0.73565 0.61946 0.23814 0.0
O410 O 0.72907 0.56796 0.30512 0.0
O411 O 0.75586 0.5657 0.27495 0.0
C412 C 0.74022 0.55496 0.28896 0.0
C413 C 0.80728 0.62265 0.24697 0.0
C414 C 0.71559 0.61886 0.24974 0.0
C415 C 0.76614 0.64008 0.30968 0.0
O416 O 0.76496 0.64616 0.28738 0.0
O417 O 0.7616 0.61817 0.3158 0.0
O418 O 0.79171 0.63795 0.23827 0.0
O419 O 0.79919 0.60444 0.25958 0.0
O420 O 0.3982 0.69155 0.29854 0.0
Cd421 Cd 0.41388 0.72341 0.31004 0.0
Cd422 Cd 0.38564 0.74273 0.27587 0.0
O423 O 0.39036 0.70748 0.26267 0.0
O424 O 0.44784 0.71559 0.31888 0.0
O425 O 0.43758 0.7376 0.28642 0.0
C426 C 0.4542 0.72633 0.29885 0.0
C427 C 0.37061 0.77264 0.24937 0.0
C428 C 0.39221 0.68881 0.27636 0.0
C429 C 0.37361 0.74954 0.32998 0.0
O430 O 0.36677 0.74793 0.30793 0.0
O431 O 0.39497 0.74294 0.33596 0.0
O432 O 0.35897 0.75282 0.25371 0.0
O433 O 0.39224 0.77482 0.25833 0.0
O434 O 0.29494 0.38657 0.27213 0.0
Cd435 Cd 0.26239 0.39717 0.28708 0.0
Cd436 Cd 0.24676 0.3718 0.25284 0.0
O437 O 0.27977 0.37891 0.23587 0.0
O438 O 0.26953 0.42772 0.30503 0.0
O439 O 0.24742 0.42629 0.2712 0.0
C440 C 0.25826 0.43911 0.28774 0.0
C441 C 0.20668 0.37528 0.24078 0.0
C442 C 0.2982 0.38184 0.2497 0.0
C443 C 0.24426 0.34957 0.30129 0.0
O444 O 0.24836 0.34513 0.27894 0.0
O445 O 0.24512 0.37151 0.30883 0.0
O446 O 0.22133 0.36039 0.22986 0.0
O447 O 0.21583 0.39081 0.25598 0.0
O448 O 0.73201 0.61671 0.70988 0.0
Cd449 Cd 0.71602 0.60523 0.74156 0.0
Cd450 Cd 0.74904 0.63175 0.7575 0.0
O451 O 0.7679 0.62511 0.72544 0.0
O452 O 0.69597 0.5778 0.72966 0.0
O453 O 0.72797 0.57286 0.75372 0.0
C454 C 0.71139 0.56332 0.73994 0.0
C455 C 0.75641 0.62792 0.79842 0.0
C456 C 0.75437 0.62173 0.70687 0.0
C457 C 0.70023 0.65258 0.75845 0.0
O458 O 0.7224 0.65762 0.75412 0.0
O459 O 0.69347 0.63038 0.75845 0.0
O460 O 0.769 0.64296 0.78529 0.0
O461 O 0.743 0.61192 0.78738 0.0
O462 O 0.39838 0.69883 0.69635 0.0
Cd463 Cd 0.41217 0.68853 0.72974 0.0
Cd464 Cd 0.38729 0.72446 0.74513 0.0
O465 O 0.39221 0.73609 0.70951 0.0
O466 O 0.44625 0.67777 0.72546 0.0
O467 O 0.43565 0.7124 0.74361 0.0
C468 C 0.45257 0.69838 0.73506 0.0
C469 C 0.38118 0.75067 0.77773 0.0
C470 C 0.3935 0.72105 0.6919 0.0
C471 C 0.36942 0.67413 0.75611 0.0
O472 O 0.36378 0.69599 0.75109 0.0
O473 O 0.39072 0.66641 0.75136 0.0
O474 O 0.36729 0.75102 0.75883 0.0
O475 O 0.40064 0.73746 0.77697 0.0
O476 O 0.28291 0.3984 0.70891 0.0
Cd477 Cd 0.29579 0.41009 0.742 0.0
Cd478 Cd 0.26188 0.38442 0.75727 0.0
O479 O 0.24631 0.39235 0.72371 0.0
O480 O 0.3096 0.4427 0.73613 0.0
O481 O 0.27542 0.43622 0.75682 0.0
C482 C 0.29032 0.45136 0.74656 0.0
C483 C 0.24358 0.381 0.79493 0.0
C484 C 0.26036 0.39458 0.70537 0.0
C485 C 0.31167 0.36472 0.76236 0.0
O486 O 0.28972 0.35939 0.75733 0.0
O487 O 0.31874 0.38672 0.76062 0.0
O488 O 0.23698 0.36742 0.77692 0.0
O489 O 0.25805 0.39908 0.7906 0.0
O490 O 0.60269 0.27778 0.71881 0.0
Cd491 Cd 0.58042 0.29835 0.74037 0.0
Cd492 Cd 0.6183 0.28353 0.77553 0.0
O493 O 0.62736 0.26153 0.74612 0.0
O494 O 0.55186 0.30238 0.71863 0.0
O495 O 0.54995 0.28286 0.75379 0.0
C496 C 0.53936 0.28966 0.73385 0.0
C497 C 0.63899 0.27459 0.81209 0.0
C498 C 0.62002 0.26343 0.72419 0.0
C499 C 0.61116 0.33759 0.75938 0.0
O500 O 0.62192 0.32035 0.77041 0.0
O501 O 0.59235 0.33338 0.74658 0.0
O502 O 0.65 0.28166 0.79276 0.0
O503 O 0.61586 0.27078 0.81065 0.0
O504 O 0.70314 0.40071 0.30603 0.0
Cd505 Cd 0.69222 0.41658 0.27399 0.0
Cd506 Cd 0.72662 0.38884 0.25547 0.0
O507 O 0.73939 0.39326 0.2909 0.0
O508 O 0.68348 0.45062 0.28168 0.0
O509 O 0.71622 0.44017 0.26024 0.0
C510 C 0.70371 0.45686 0.27129 0.0
C511 C 0.75294 0.37527 0.22487 0.0
C512 C 0.72527 0.39484 0.30926 0.0
C513 C 0.67309 0.37616 0.24745 0.0
O514 O 0.69506 0.36938 0.2499 0.0
O515 O 0.66688 0.39758 0.25367 0.0
O516 O 0.7494 0.36307 0.24453 0.0
O517 O 0.74351 0.39678 0.22344 0.0
O518 O 0.61184 0.72304 0.28148 0.0
Cd519 Cd 0.59329 0.7042 0.25518 0.0
Cd520 Cd 0.62069 0.73233 0.22765 0.0
O521 O 0.6216 0.75428 0.25841 0.0
O522 O 0.56498 0.69168 0.27358 0.0
O523 O 0.56177 0.71913 0.24412 0.0
C524 C 0.55167 0.70697 0.26162 0.0
C525 C 0.6267 0.74729 0.18834 0.0
C526 C 0.61999 0.74457 0.27942 0.0
C527 C 0.63337 0.67909 0.23257 0.0
O528 O 0.64076 0.70083 0.22985 0.0
O529 O 0.61183 0.67511 0.2401 0.0
O530 O 0.64225 0.75088 0.20547 0.0
O531 O 0.60619 0.73722 0.1939 0.0
O532 O 0.26567 0.60558 0.28268 0.0
Cd533 Cd 0.28813 0.58264 0.26388 0.0
Cd534 Cd 0.27866 0.62112 0.22629 0.0
O535 O 0.25558 0.63208 0.25412 0.0
O536 O 0.28994 0.55471 0.28691 0.0
O537 O 0.2746 0.55146 0.24987 0.0
C538 C 0.27931 0.5415 0.27071 0.0
C539 C 0.27165 0.64212 0.18928 0.0
C540 C 0.2539 0.62431 0.27591 0.0
C541 C 0.33038 0.61207 0.24775 0.0
O542 O 0.31523 0.6227 0.23385 0.0
O543 O 0.32368 0.59438 0.26111 0.0
O544 O 0.27934 0.65273 0.2086 0.0
O545 O 0.26697 0.61914 0.19075 0.0
O546 O 0.40331 0.28722 0.29852 0.0
Cd547 Cd 0.42152 0.3012 0.26924 0.0
Cd548 Cd 0.39155 0.27014 0.24449 0.0
O549 O 0.39461 0.25368 0.27856 0.0
O550 O 0.45404 0.30934 0.28212 0.0
O551 O 0.44737 0.27951 0.25552 0.0
C552 C 0.46208 0.29064 0.27025 0.0
C553 C 0.37357 0.24588 0.21419 0.0
C554 C 0.39631 0.26521 0.29861 0.0
C555 C 0.38387 0.326 0.2431 0.0
O556 O 0.37601 0.3043 0.2413 0.0
O557 O 0.40491 0.33 0.25187 0.0
O558 O 0.36246 0.25153 0.23395 0.0
O559 O 0.39585 0.25293 0.21172 0.0
O560 O 0.69677 0.70718 0.59496 0.0
Cd561 Cd 0.72809 0.69449 0.57899 0.0
Cd562 Cd 0.74882 0.72836 0.60639 0.0
O563 O 0.71395 0.74257 0.60224 0.0
O564 O 0.71987 0.68568 0.54508 0.0
O565 O 0.74279 0.71755 0.55503 0.0
C566 C 0.73119 0.7053 0.53851 0.0
C567 C 0.78004 0.75384 0.62019 0.0
C568 C 0.69485 0.7295 0.60075 0.0
C569 C 0.75462 0.67443 0.61917 0.0
O570 O 0.75352 0.69657 0.6258 0.0
O571 O 0.74744 0.66839 0.598 0.0
O572 O 0.76031 0.75064 0.63233 0.0
O573 O 0.78132 0.74446 0.59865 0.0
O574 O 0.71836 0.26701 0.39054 0.0
Cd575 Cd 0.73647 0.2892 0.41431 0.0
Cd576 Cd 0.77443 0.28035 0.37387 0.0
O577 O 0.7468 0.2565 0.36407 0.0
O578 O 0.71196 0.29089 0.44093 0.0
O579 O 0.74862 0.27536 0.44625 0.0
C580 C 0.72729 0.28008 0.455 0.0
C581 C 0.80995 0.27647 0.34975 0.0
C582 C 0.72504 0.255 0.37194 0.0
C583 C 0.75245 0.33181 0.38539 0.0
O584 O 0.76576 0.31669 0.37405 0.0
O585 O 0.7395 0.325 0.40332 0.0
O586 O 0.78932 0.28289 0.34095 0.0
O587 O 0.81063 0.27075 0.37254 0.0
O588 O 0.7318 0.72103 0.38011 0.0
Cd589 Cd 0.71253 0.74752 0.39804 0.0
Cd590 Cd 0.73834 0.77363 0.36776 0.0
O591 O 0.76174 0.74404 0.36689 0.0
O592 O 0.69991 0.72886 0.42624 0.0
O593 O 0.72644 0.75895 0.43002 0.0
C594 C 0.71445 0.74124 0.43992 0.0
C595 C 0.74926 0.8142 0.36235 0.0
C596 C 0.7526 0.723 0.37022 0.0
C597 C 0.68541 0.76628 0.35701 0.0
O598 O 0.70674 0.76876 0.34843 0.0
O599 O 0.68262 0.76094 0.3794 0.0
O600 O 0.75467 0.79778 0.34652 0.0
O601 O 0.74009 0.80725 0.38289 0.0
O602 O 0.28316 0.72523 0.3888 0.0
Cd603 Cd 0.25124 0.70927 0.39986 0.0
Cd604 Cd 0.23517 0.74162 0.37192 0.0
O605 O 0.26724 0.76044 0.37834 0.0
O606 O 0.2616 0.69022 0.42869 0.0
O607 O 0.23734 0.72242 0.43099 0.0
C608 C 0.25019 0.70594 0.44194 0.0
C609 C 0.19464 0.75192 0.37373 0.0
C610 C 0.28593 0.74738 0.38269 0.0
C611 C 0.23451 0.69195 0.35278 0.0
O612 O 0.23829 0.71405 0.347 0.0
O613 O 0.23513 0.68574 0.37513 0.0
O614 O 0.20913 0.76262 0.35853 0.0
O615 O 0.20406 0.73826 0.39054 0.0
O616 O 0.2718 0.27365 0.38221 0.0
Cd617 Cd 0.29363 0.25417 0.40522 0.0
Cd618 Cd 0.27974 0.21752 0.36764 0.0
O619 O 0.25721 0.24595 0.35693 0.0
O620 O 0.29953 0.27994 0.42983 0.0
O621 O 0.28067 0.24561 0.43866 0.0
C622 C 0.28813 0.26685 0.44553 0.0
C623 C 0.27153 0.17924 0.35025 0.0
C624 C 0.25809 0.26785 0.36453 0.0
C625 C 0.33311 0.23528 0.37404 0.0
O626 O 0.3163 0.22358 0.36336 0.0
O627 O 0.32847 0.24805 0.39276 0.0
O628 O 0.27806 0.1977 0.33754 0.0
O629 O 0.26783 0.18249 0.37323 0.0
O630 O 0.28797 0.28987 0.60403 0.0
Cd631 Cd 0.26483 0.31105 0.58395 0.0
Cd632 Cd 0.23031 0.28841 0.6141 0.0
O633 O 0.26017 0.26599 0.62046 0.0
O634 O 0.28265 0.31733 0.55337 0.0
O635 O 0.24886 0.29519 0.55528 0.0
C636 C 0.26694 0.30352 0.54262 0.0
C637 C 0.19294 0.27463 0.62951 0.0
C638 C 0.28243 0.27123 0.61654 0.0
C639 C 0.24221 0.34373 0.61822 0.0
O640 O 0.23278 0.32396 0.62554 0.0
O641 O 0.25553 0.34391 0.59933 0.0
O642 O 0.2112 0.27946 0.64324 0.0
O643 O 0.19604 0.27568 0.60624 0.0
O644 O 0.71734 0.29531 0.60968 0.0
Cd645 Cd 0.70207 0.26329 0.59798 0.0
Cd646 Cd 0.73446 0.24613 0.62506 0.0
O647 O 0.75247 0.27893 0.61971 0.0
O648 O 0.68647 0.27102 0.56634 0.0
O649 O 0.71925 0.24761 0.57001 0.0
C650 C 0.70398 0.25903 0.55613 0.0
C651 C 0.74748 0.20614 0.62342 0.0
C652 C 0.73944 0.29782 0.61606 0.0
C653 C 0.68445 0.24511 0.64427 0.0
O654 O 0.70671 0.24786 0.64993 0.0
O655 O 0.67795 0.24708 0.62207 0.0
O656 O 0.75674 0.22128 0.6389 0.0
O657 O 0.73334 0.21464 0.60656 0.0
O658 O 0.27099 0.69919 0.60645 0.0
Cd659 Cd 0.29118 0.72064 0.58379 0.0
Cd660 Cd 0.27742 0.75701 0.62191 0.0
O661 O 0.25528 0.72747 0.63033 0.0
O662 O 0.29293 0.70063 0.55375 0.0
O663 O 0.27453 0.73646 0.55517 0.0
C664 C 0.27997 0.71702 0.543 0.0
C665 C 0.26841 0.79217 0.64526 0.0
C666 C 0.25672 0.70532 0.62355 0.0
C667 C 0.33131 0.74034 0.61303 0.0
O668 O 0.31449 0.75201 0.62377 0.0
O669 O 0.3265 0.72659 0.59504 0.0
O670 O 0.27622 0.77231 0.65474 0.0
O671 O 0.26451 0.79219 0.62208 0.0
C672 C 0.99032 0.23354 0.23715 0.0
C673 C 0.98218 0.21281 0.22438 0.0
C674 C 0.01326 0.24386 0.23242 0.0
C675 C 0.02884 0.23402 0.21455 0.0
H676 H 0.97897 0.2418 0.25103 0.0
H677 H 0.01896 0.25941 0.24318 0.0
S678 S 0.01543 0.18073 0.17482 0.0
N679 N 0.99118 0.18341 0.19236 0.0
N680 N 0.03392 0.20288 0.18327 0.0
C681 C 0.02062 0.21365 0.20122 0.0
C682 C 0.99744 0.203 0.20622 0.0
C683 C 0.78799 0.99332 0.21382 0.0
C684 C 0.77692 0.97857 0.23165 0.0
C685 C 0.78056 0.01741 0.21003 0.0
C686 C 0.76186 0.028 0.22404 0.0
H687 H 0.80248 0.98622 0.20245 0.0
H688 H 0.79003 0.02792 0.19625 0.0
S689 S 0.72655 0.99715 0.27288 0.0
N690 N 0.74585 0.97616 0.26323 0.0
N691 N 0.73209 0.0217 0.25632 0.0
C692 C 0.75041 0.01346 0.24184 0.0
C693 C 0.7579 0.98872 0.2456 0.0
C694 C 0.01057 0.78339 0.22729 0.0
C695 C 0.02197 0.76885 0.24511 0.0
C696 C 0.98661 0.77896 0.21986 0.0
C697 C 0.9728 0.75988 0.23002 0.0
H698 H 0.02035 0.79812 0.21849 0.0
H699 H 0.97888 0.79076 0.20602 0.0
S700 S 0.99366 0.71689 0.27805 0.0
N701 N 0.01737 0.73479 0.27322 0.0
N702 N 0.97208 0.72663 0.25942 0.0
C703 C 0.98372 0.74542 0.24824 0.0
C704 C 0.00832 0.74989 0.25576 0.0
C705 C 0.22157 0.98607 0.23273 0.0
C706 C 0.2047 0.96927 0.2232 0.0
C707 C 0.21461 0.01003 0.23832 0.0
C708 C 0.19051 0.01811 0.2346 0.0
H709 H 0.24044 0.98088 0.23538 0.0
H710 H 0.22849 0.02253 0.24473 0.0
S711 S 0.13866 0.98051 0.21275 0.0
N712 N 0.16228 0.96188 0.21224 0.0
N713 N 0.14932 0.0068 0.22275 0.0
C714 C 0.17322 0.00118 0.22618 0.0
C715 C 0.18028 0.97681 0.22045 0.0
C716 C 0.99077 0.76679 0.79743 0.0
C717 C 0.97922 0.76187 0.77503 0.0
C718 C 0.01483 0.75962 0.80181 0.0
C719 C 0.02843 0.74718 0.784 0.0
H720 H 0.9814 0.77682 0.81163 0.0
H721 H 0.02306 0.7647 0.81903 0.0
S722 S 0.00592 0.72757 0.72316 0.0
N723 N 0.9826 0.74205 0.73548 0.0
N724 N 0.02794 0.72855 0.74367 0.0
C725 C 0.01674 0.74097 0.76196 0.0
C726 C 0.99215 0.74837 0.75746 0.0
C727 C 0.23289 0.00911 0.76383 0.0
C728 C 0.2257 0.0228 0.78433 0.0
C729 C 0.2226 0.9862 0.75891 0.0
C730 C 0.20457 0.97622 0.77417 0.0
H731 H 0.24609 0.01638 0.75107 0.0
H732 H 0.22861 0.9764 0.74284 0.0
S733 S 0.18102 0.00361 0.83151 0.0
N734 N 0.20066 0.0238 0.82098 0.0
N735 N 0.1812 0.98106 0.81161 0.0
C736 C 0.19773 0.98941 0.79511 0.0
C737 C 0.20836 0.01257 0.80025 0.0
C738 C 0.00321 0.18567 0.77636 0.0
C739 C 0.01715 0.20099 0.76126 0.0
C740 C 0.98013 0.19262 0.78452 0.0
C741 C 0.96989 0.21523 0.77798 0.0
H742 H 0.01031 0.16823 0.78237 0.0
H743 H 0.97033 0.18008 0.79622 0.0
S744 S -0.00155 0.26183 0.73803 0.0
N745 N 0.0188 0.23968 0.73951 0.0
N746 N 0.97519 0.25272 0.75481 0.0
C747 C 0.98338 0.23062 0.7625 0.0
C748 C 0.007 0.22348 0.75409 0.0
C749 C 0.76494 0.00984 0.75683 0.0
C750 C 0.7821 0.02676 0.76568 0.0
C751 C 0.76238 0.98674 0.76756 0.0
C752 C 0.7767 0.97975 0.7877 0.0
H753 H 0.75301 0.01462 0.74183 0.0
H754 H 0.74889 0.97437 0.76014 0.0
S755 S 0.82554 0.01659 0.81676 0.0
N756 N 0.81463 0.03428 0.795 0.0
N757 N 0.80959 0.99115 0.81524 0.0
C758 C 0.79427 0.99629 0.79641 0.0
C759 C 0.79706 0.01968 0.78535 0.0
C760 C 0.20125 0.2065 0.00438 0.0
C761 C 0.22123 0.21627 0.01714 0.0
C762 C 0.19651 0.21301 0.98021 0.0
C763 C 0.21141 0.22973 0.96775 0.0
H764 H 0.18916 0.19349 0.01302 0.0
H765 H 0.18106 0.20464 0.97118 0.0
S766 S 0.26571 0.26122 0.99304 0.0
N767 N 0.25584 0.24398 0.01568 0.0
N768 N 0.24685 0.25631 0.97008 0.0
C769 C 0.23126 0.24002 0.98034 0.0
C770 C 0.23623 0.23321 0.00504 0.0
C771 C 0.22795 0.76221 0.99015 0.0
C772 C 0.21277 0.77254 0.97223 0.0
C773 C 0.21888 0.75617 0.0133 0.0
C774 C 0.19428 0.76024 0.01941 0.0
H775 H 0.24711 0.75915 0.98648 0.0
H776 H 0.2315 0.74907 0.02674 0.0
S777 S 0.14631 0.78452 0.97821 0.0
N778 N 0.1714 0.78488 0.96165 0.0
N779 N 0.15448 0.77354 0.00502 0.0
C780 C 0.17868 0.76961 0.00133 0.0
C781 C 0.18789 0.77579 0.9778 0.0
C782 C 0.7532 0.21769 0.98398 0.0
C783 C 0.75535 0.19296 0.97736 0.0
C784 C 0.76033 0.22585 0.00716 0.0
C785 C 0.76991 0.20961 0.02454 0.0
H786 H 0.74699 0.23108 0.97084 0.0
H787 H 0.75899 0.24515 0.01117 0.0
S788 S 0.77595 0.14245 0.01748 0.0
N789 N 0.76535 0.15194 0.99095 0.0
N790 N 0.77872 0.16717 0.0344 0.0
C791 C 0.77087 0.18462 0.0186 0.0
C792 C 0.76357 0.17632 0.99506 0.0
C793 C 0.79494 0.77002 0.9805 0.0
C794 C 0.77847 0.75414 0.96889 0.0
C795 C 0.79113 0.77793 0.00443 0.0
C796 C 0.77076 0.77024 0.01796 0.0
H797 H 0.81069 0.77702 0.97087 0.0
H798 H 0.80435 0.79033 0.01227 0.0
S799 S 0.72277 0.72751 0.99666 0.0
N800 N 0.74137 0.73017 0.97314 0.0
N801 N 0.73436 0.74489 0.01835 0.0
C802 C 0.75446 0.75375 0.00692 0.0
C803 C 0.75831 0.74572 0.98238 0.0
C804 C 0.51919 0.6995 0.71771 0.0
C805 C 0.52622 0.72373 0.72243 0.0
C806 C 0.49574 0.6912 0.72311 0.0
C807 C 0.4782 0.70675 0.73346 0.0
H808 H 0.53177 0.68676 0.70938 0.0
H809 H 0.49119 0.67256 0.71843 0.0
S810 S 0.48783 0.77142 0.75126 0.0
N811 N 0.51418 0.76286 0.73951 0.0
N812 N 0.46991 0.74729 0.74963 0.0
C813 C 0.48521 0.7308 0.73924 0.0
C814 C 0.50923 0.73929 0.7337 0.0
C815 C 0.26036 0.48565 0.75045 0.0
C816 C 0.28375 0.47743 0.74367 0.0
C817 C 0.25233 0.50922 0.74448 0.0
C818 C 0.26726 0.52531 0.73127 0.0
H819 H 0.24786 0.4736 0.75985 0.0
H820 H 0.23414 0.5147 0.74989 0.0
S821 S 0.33103 0.51374 0.71153 0.0
N822 N 0.32244 0.48813 0.72478 0.0
N823 N 0.30729 0.53212 0.71335 0.0
C824 C 0.29097 0.51763 0.72512 0.0
C825 C 0.29924 0.4938 0.73142 0.0
C826 C 0.47825 0.25712 0.73697 0.0
C827 C 0.46585 0.26611 0.71637 0.0
C828 C 0.5019 0.26501 0.74267 0.0
C829 C 0.51409 0.2821 0.72791 0.0
H830 H 0.46942 0.24438 0.74921 0.0
H831 H 0.51064 0.25767 0.7588 0.0
S832 S 0.49002 0.31035 0.67113 0.0
N833 N 0.46789 0.29235 0.68062 0.0
N834 N 0.51215 0.30721 0.69127 0.0
C835 C 0.50206 0.29084 0.70694 0.0
C836 C 0.47802 0.28283 0.70118 0.0
C837 C 0.73424 0.49825 0.73318 0.0
C838 C 0.71889 0.48866 0.71499 0.0
C839 C 0.73103 0.52206 0.74202 0.0
C840 C 0.71217 0.53712 0.73319 0.0
H841 H 0.74907 0.48742 0.74048 0.0
H842 H 0.74379 0.52886 0.75548 0.0
S843 S 0.66573 0.51997 0.68687 0.0
N844 N 0.68331 0.49569 0.68935 0.0
N845 N 0.67711 0.54011 0.70608 0.0
C846 C 0.6962 0.52742 0.71557 0.0
C847 C 0.69962 0.50332 0.7064 0.0
C848 C 0.49805 0.26487 0.25863 0.0
C849 C 0.48684 0.281 0.27512 0.0
C850 C 0.52138 0.25538 0.26323 0.0
C851 C 0.53425 0.26147 0.28463 0.0
H852 H 0.48896 0.25991 0.24181 0.0
H853 H 0.52965 0.24383 0.24952 0.0
S854 S 0.51155 0.30047 0.33515 0.0
N855 N 0.4895 0.30096 0.31469 0.0
N856 N 0.53303 0.28297 0.32345 0.0
C857 C 0.5227 0.27665 0.3018 0.0
C858 C 0.49912 0.28649 0.297 0.0
C859 C 0.7024 0.49733 0.2918 0.0
C860 C 0.71337 0.48192 0.27449 0.0
C861 C 0.71191 0.5204 0.29694 0.0
C862 C 0.7327 0.5293 0.28484 0.0
H863 H 0.68642 0.49149 0.30181 0.0
H864 H 0.70247 0.53149 0.31028 0.0
S865 S 0.76849 0.49618 0.23788 0.0
N866 N 0.74645 0.47707 0.24533 0.0
N867 N 0.76414 0.52075 0.25473 0.0
C868 C 0.74397 0.51411 0.26748 0.0
C869 C 0.73435 0.49039 0.26236 0.0
C870 C 0.51818 0.70156 0.29175 0.0
C871 C 0.52638 0.712 0.26979 0.0
C872 C 0.49524 0.7071 0.30131 0.0
C873 C 0.47929 0.7232 0.28928 0.0
H874 H 0.52964 0.6891 0.30195 0.0
H875 H 0.4899 0.69828 0.31816 0.0
S876 S 0.49192 0.7557 0.23118 0.0
N877 N 0.51681 0.73954 0.23631 0.0
N878 N 0.47339 0.74975 0.25415 0.0
C879 C 0.48721 0.7339 0.26729 0.0
C880 C 0.51078 0.72834 0.25758 0.0
C881 C 0.2614 0.50143 0.25802 0.0
C882 C 0.27246 0.51588 0.27611 0.0
C883 C 0.25555 0.47694 0.26243 0.0
C884 C 0.2606 0.4659 0.28508 0.0
H885 H 0.25766 0.50891 0.24012 0.0
H886 H 0.24789 0.46637 0.24761 0.0
S887 S 0.287 0.49639 0.33944 0.0
N888 N 0.28646 0.51777 0.31827 0.0
N889 N 0.27553 0.47181 0.32643 0.0
C890 C 0.27064 0.48041 0.30367 0.0
C891 C 0.27658 0.50535 0.29922 0.0
C892 C 0.7126 0.70261 0.49715 0.0
C893 C 0.72858 0.71461 0.51322 0.0
C894 C 0.70775 0.71184 0.47389 0.0
C895 C 0.71876 0.73345 0.46549 0.0
H896 H 0.70339 0.68601 0.50261 0.0
H897 H 0.69536 0.70168 0.46234 0.0
S898 S 0.76229 0.77191 0.50026 0.0
N899 N 0.75554 0.74938 0.51908 0.0
N900 N 0.7466 0.76662 0.4751 0.0
C901 C 0.73491 0.74567 0.48127 0.0
C902 C 0.73979 0.73627 0.50515 0.0
C903 C 0.73758 0.26223 0.49584 0.0
C904 C 0.72035 0.27308 0.48021 0.0
C905 C 0.73167 0.25636 0.52003 0.0
C906 C 0.70834 0.26121 0.52955 0.0
H907 H 0.75596 0.2587 0.48955 0.0
H908 H 0.74586 0.24892 0.53159 0.0
S909 S 0.65575 0.28684 0.49548 0.0
N910 N 0.67825 0.28653 0.47552 0.0
N911 N 0.66731 0.27559 0.52091 0.0
C912 C 0.69061 0.27099 0.51382 0.0
C913 C 0.69658 0.27693 0.4892 0.0
C914 C 0.25022 0.7288 0.48142 0.0
C915 C 0.25468 0.70704 0.46856 0.0
C916 C 0.25826 0.73183 0.50553 0.0
C917 C 0.27105 0.7132 0.51772 0.0
H918 H 0.24132 0.74403 0.47251 0.0
H919 H 0.25485 0.74911 0.51445 0.0
S920 S 0.28494 0.6516 0.49302 0.0
N921 N 0.27094 0.66581 0.47049 0.0
N922 N 0.28603 0.6714 0.51565 0.0
C923 C 0.27465 0.69093 0.50541 0.0
C924 C 0.26645 0.68786 0.4809 0.0
C925 C 0.2602 0.27403 0.50851 0.0
C926 C 0.27102 0.29562 0.51717 0.0
C927 C 0.26607 0.26463 0.48546 0.0
C928 C 0.28282 0.27659 0.47015 0.0
H929 H 0.24758 0.26393 0.51985 0.0
H930 H 0.25736 0.24789 0.47962 0.0
S931 S 0.31535 0.33445 0.48388 0.0
N932 N 0.29864 0.32916 0.50832 0.0
N933 N 0.30965 0.31164 0.46512 0.0
C934 C 0.2934 0.29848 0.47844 0.0
C935 C 0.28749 0.30797 0.5019 0.0
C936 C 0.12927 0.1528 0.25521 0.0
C937 C 0.15332 0.15115 0.26382 0.0
C938 C 0.11706 0.17523 0.2549 0.0
C939 C 0.12839 0.19666 0.26343 0.0
H940 H 0.12064 0.13727 0.24658 0.0
H941 H 0.09944 0.17619 0.24601 0.0
S942 S 0.18886 0.20061 0.29337 0.0
N943 N 0.18628 0.17171 0.28529 0.0
N944 N 0.16323 0.21388 0.28473 0.0
C945 C 0.15113 0.19458 0.275 0.0
C946 C 0.16367 0.17178 0.27512 0.0
C947 C 0.83848 0.16273 0.27635 0.0
C948 C 0.85874 0.15471 0.26273 0.0
C949 C 0.81722 0.14868 0.27796 0.0
C950 C 0.81543 0.12628 0.26569 0.0
H951 H 0.83832 0.18086 0.28422 0.0
H952 H 0.80136 0.15664 0.28662 0.0
S953 S 0.86516 0.09461 0.23255 0.0
N954 N 0.87719 0.121 0.24068 0.0
N955 N 0.83709 0.09464 0.24344 0.0
C956 C 0.83656 0.11672 0.25468 0.0
C957 C 0.85831 0.13095 0.25325 0.0
C958 C 0.84359 0.80913 0.26979 0.0
C959 C 0.86599 0.81037 0.25746 0.0
C960 C 0.8279 0.82927 0.27041 0.0
C961 C 0.83416 0.85143 0.259 0.0
H962 H 0.8371 0.79196 0.2771 0.0
H963 H 0.81005 0.82693 0.27855 0.0
S964 S 0.89321 0.86562 0.22938 0.0
N965 N 0.89551 0.83666 0.23734 0.0
N966 N 0.86602 0.87459 0.23869 0.0
C967 C 0.85769 0.85376 0.24922 0.0
C968 C 0.87362 0.83317 0.2484 0.0
C969 C 0.16765 0.85325 0.25194 0.0
C970 C 0.19243 0.84726 0.25548 0.0
C971 C 0.14911 0.83653 0.2572 0.0
C972 C 0.15467 0.81325 0.26626 0.0
H973 H 0.1625 0.87029 0.24335 0.0
H974 H 0.13054 0.84125 0.25237 0.0
S975 S 0.21572 0.79106 0.28528 0.0
N976 N 0.22093 0.81821 0.27331 0.0
N977 N 0.18599 0.78686 0.28336 0.0
C978 C 0.17898 0.80814 0.2727 0.0
C979 C 0.1979 0.82515 0.26731 0.0
C980 C 0.11032 0.82973 0.75517 0.0
C981 C 0.11707 0.8095 0.74076 0.0
C982 C 0.12267 0.85203 0.75328 0.0
C983 C 0.14223 0.8547 0.73703 0.0
H984 H 0.09696 0.82767 0.76957 0.0
H985 H 0.11866 0.86619 0.76646 0.0
S986 S 0.16264 0.80979 0.6908 0.0
N987 N 0.14111 0.79545 0.70621 0.0
N988 N 0.16442 0.83731 0.70286 0.0
C989 C 0.14679 0.83586 0.72022 0.0
C990 C 0.13413 0.81322 0.722 0.0
C991 C 0.16382 0.11311 0.74589 0.0
C992 C 0.18585 0.11938 0.73423 0.0
C993 C 0.14243 0.12641 0.74172 0.0
C994 C 0.14244 0.14655 0.7259 0.0
H995 H 0.16354 0.09909 0.75982 0.0
H996 H 0.12658 0.12237 0.75278 0.0
S997 S 0.19349 0.16649 0.68628 0.0
N998 N 0.20501 0.14397 0.70266 0.0
N999 N 0.16477 0.16907 0.6949 0.0
C1000 C 0.16342 0.15096 0.71179 0.0
C1001 C 0.18517 0.1373 0.71592 0.0
C1002 C 0.82806 0.20072 0.73737 0.0
C1003 C 0.85128 0.19514 0.7467 0.0
C1004 C 0.81168 0.18222 0.73113 0.0
C1005 C 0.81784 0.15743 0.73395 0.0
H1006 H 0.82175 0.21942 0.73655 0.0
H1007 H 0.79348 0.18748 0.72549 0.0
S1008 S 0.87849 0.13326 0.75172 0.0
N1009 N 0.88128 0.16314 0.75396 0.0
N1010 N 0.85029 0.12837 0.74241 0.0
C1011 C 0.84193 0.15162 0.7405 0.0
C1012 C 0.85869 0.17051 0.74684 0.0
C1013 C 0.86006 0.8618 0.73861 0.0
C1014 C 0.87653 0.8524 0.75593 0.0
C1015 C 0.84107 0.87733 0.74557 0.0
C1016 C 0.83793 0.88414 0.7701 0.0
H1017 H 0.86027 0.8551 0.72001 0.0
H1018 H 0.82762 0.88225 0.73195 0.0
S1019 S 0.8805 0.8704 0.82101 0.0
N1020 N 0.89173 0.85533 0.79749 0.0
N1021 N 0.8562 0.88484 0.81063 0.0
C1022 C 0.85648 0.87795 0.78682 0.0
C1023 C 0.87584 0.86204 0.77968 0.0
C1024 C 0.24823 0.11673 0.16826 0.0
C1025 C 0.22401 0.1086 0.17057 0.0
C1026 C 0.25542 0.13106 0.14841 0.0
C1027 C 0.23871 0.13773 0.13009 0.0
H1028 H 0.26123 0.11393 0.18288 0.0
H1029 H 0.27356 0.13889 0.14867 0.0
S1030 S 0.17529 0.11515 0.12395 0.0
N1031 N 0.18491 0.10364 0.15007 0.0
N1032 N 0.19848 0.13076 0.11281 0.0
C1033 C 0.21557 0.12672 0.13031 0.0
C1034 C 0.20817 0.11214 0.15061 0.0
C1035 C 0.86366 0.26244 0.14441 0.0
C1036 C 0.85587 0.24498 0.12727 0.0
C1037 C 0.87864 0.25589 0.164 0.0
C1038 C 0.8865 0.23166 0.16709 0.0
H1039 H 0.85604 0.28067 0.14418 0.0
H1040 H 0.88227 0.26948 0.17787 0.0
S1041 S 0.87741 0.18101 0.12304 0.0
N1042 N 0.86165 0.20394 0.11152 0.0
N1043 N 0.89016 0.19161 0.14818 0.0
C1044 C 0.88202 0.21503 0.148 0.0
C1045 C 0.86668 0.22174 0.12801 0.0
C1046 C 0.73124 0.85802 0.17613 0.0
C1047 C 0.74958 0.87591 0.17562 0.0
C1048 C 0.72845 0.84157 0.15682 0.0
C1049 C 0.74373 0.84249 0.1362 0.0
H1050 H 0.72034 0.85527 0.19237 0.0
H1051 H 0.71536 0.82692 0.1589 0.0
S1052 S 0.7903 0.88973 0.12329 0.0
N1053 N 0.78006 0.89654 0.15077 0.0
N1054 N 0.77476 0.86549 0.11449 0.0
C1055 C 0.75998 0.86216 0.13409 0.0
C1056 C 0.76293 0.8789 0.15384 0.0
C1057 C 0.10965 0.73751 0.1714 0.0
C1058 C 0.11949 0.72626 0.19235 0.0
C1059 C 0.1224 0.73774 0.14926 0.0
C1060 C 0.14552 0.72692 0.14747 0.0
H1061 H 0.09298 0.74805 0.17268 0.0
H1062 H 0.1152 0.74848 0.13431 0.0
S1063 S 0.17657 0.69009 0.19505 0.0
N1064 N 0.15155 0.70016 0.20845 0.0
N1065 N 0.17558 0.70067 0.16686 0.0
C1066 C 0.15408 0.713 0.16729 0.0
C1067 C 0.14099 0.71258 0.18977 0.0
C1068 C 0.25402 0.87028 0.82421 0.0
C1069 C 0.22996 0.87911 0.82374 0.0
C1070 C 0.26248 0.85623 0.84376 0.0
C1071 C 0.24713 0.85028 0.86349 0.0
H1072 H 0.26587 0.87257 0.80858 0.0
H1073 H 0.28039 0.84804 0.84223 0.0
S1074 S 0.18512 0.87494 0.87435 0.0
N1075 N 0.19285 0.88564 0.84729 0.0
N1076 N 0.20869 0.85881 0.88385 0.0
C1077 C 0.22435 0.86193 0.8649 0.0
C1078 C 0.21572 0.87638 0.84499 0.0
C1079 C 0.13515 0.25707 0.80242 0.0
C1080 C 0.1192 0.23715 0.80489 0.0
C1081 C 0.1506 0.26392 0.82152 0.0
C1082 C 0.15056 0.25126 0.84387 0.0
H1083 H 0.13717 0.26626 0.78505 0.0
H1084 H 0.16387 0.27816 0.81812 0.0
S1085 S 0.10808 0.20168 0.8615 0.0
N1086 N 0.10115 0.20774 0.83282 0.0
N1087 N 0.13025 0.22069 0.86879 0.0
C1088 C 0.13268 0.23327 0.84757 0.0
C1089 C 0.11701 0.22616 0.82802 0.0
C1090 C 0.73418 0.11358 0.82266 0.0
C1091 C 0.72534 0.12436 0.80104 0.0
C1092 C 0.73366 0.12617 0.84489 0.0
C1093 C 0.72451 0.15005 0.84611 0.0
H1094 H 0.74353 0.09618 0.82198 0.0
H1095 H 0.74259 0.11805 0.86054 0.0
S1096 S 0.69398 0.18405 0.79611 0.0
N1097 N 0.70315 0.15839 0.78327 0.0
N1098 N 0.7022 0.18214 0.82503 0.0
C1099 C 0.71286 0.15975 0.82535 0.0
C1100 C 0.7132 0.14683 0.80277 0.0
C1101 C 0.81296 0.73263 0.81021 0.0
C1102 C 0.8198 0.73303 0.835 0.0
C1103 C 0.83005 0.73648 0.7917 0.0
C1104 C 0.85467 0.74096 0.79721 0.0
H1105 H 0.794 0.73076 0.80503 0.0
H1106 H 0.82348 0.73773 0.77309 0.0
S1107 S 0.88294 0.73792 0.85876 0.0
N1108 N 0.85356 0.73388 0.86378 0.0
N1109 N 0.88579 0.741 0.82895 0.0
C1110 C 0.86222 0.73862 0.82172 0.0
C1111 C 0.84474 0.73469 0.84061 0.0
C1112 C 0.1828 0.26828 0.17547 0.0
C1113 C 0.15795 0.26449 0.17026 0.0
C1114 C 0.20094 0.26173 0.15881 0.0
C1115 C 0.19495 0.25109 0.13625 0.0
H1116 H 0.18845 0.27493 0.1932 0.0
H1117 H 0.21978 0.26341 0.16448 0.0
S1118 S 0.13241 0.24306 0.11138 0.0
N1119 N 0.12816 0.25365 0.13923 0.0
N1120 N 0.16224 0.2415 0.10771 0.0
C1121 C 0.17011 0.24996 0.12965 0.0
C1122 C 0.15159 0.25664 0.1467 0.0
C1123 C 0.20929 0.73576 0.82677 0.0
C1124 C 0.20572 0.73899 0.85194 0.0
C1125 C 0.18948 0.73211 0.81109 0.0
C1126 C 0.16537 0.73146 0.81998 0.0
H1127 H 0.22721 0.73805 0.81881 0.0
H1128 H 0.19305 0.7313 0.79168 0.0
S1129 S 0.14705 0.7329 0.88513 0.0
N1130 N 0.17688 0.73676 0.88559 0.0
N1131 N 0.13962 0.72994 0.8561 0.0
C1132 C 0.16188 0.73184 0.84539 0.0
C1133 C 0.18208 0.73558 0.86137 0.0
C1134 C 0.26419 0.19726 0.83282 0.0
C1135 C 0.25403 0.19403 0.85613 0.0
C1136 C 0.26747 0.1774 0.81711 0.0
C1137 C 0.26092 0.15358 0.82418 0.0
H1138 H 0.26767 0.21541 0.82582 0.0
H1139 H 0.27378 0.18103 0.79874 0.0
S1140 S 0.23922 0.13487 0.88551 0.0
N1141 N 0.24162 0.16484 0.88715 0.0
N1142 N 0.24791 0.12747 0.85765 0.0
C1143 C 0.2535 0.14979 0.84844 0.0
C1144 C 0.25003 0.17005 0.86441 0.0
C1145 C 0.82126 0.24658 0.88064 0.0
C1146 C 0.81843 0.22203 0.8876 0.0
C1147 C 0.84141 0.2541 0.86696 0.0
C1148 C 0.8595 0.23739 0.85977 0.0
H1149 H 0.80684 0.25969 0.88384 0.0
H1150 H 0.84154 0.27256 0.85989 0.0
S1151 S 0.86428 0.17286 0.87944 0.0
N1152 N 0.83819 0.18237 0.89104 0.0
N1153 N 0.87602 0.19659 0.86511 0.0
C1154 C 0.85878 0.21377 0.86973 0.0
C1155 C 0.83816 0.20604 0.88366 0.0
C1156 C 0.72784 0.83598 0.83717 0.0
C1157 C 0.74199 0.85567 0.84568 0.0
C1158 C 0.72596 0.81427 0.85054 0.0
C1159 C 0.7385 0.81145 0.8727 0.0
H1160 H 0.71971 0.83662 0.81916 0.0
H1161 H 0.71684 0.79887 0.84218 0.0
S1162 S 0.77316 0.85935 0.90556 0.0
N1163 N 0.76492 0.87246 0.8797 0.0
N1164 N 0.76167 0.83152 0.90473 0.0
C1165 C 0.75012 0.832 0.8828 0.0
C1166 C 0.75181 0.8542 0.86929 0.0
C1167 C 0.83468 0.75256 0.12767 0.0
C1168 C 0.81128 0.74234 0.13081 0.0
C1169 C 0.85322 0.74879 0.14485 0.0
C1170 C 0.84899 0.73472 0.16582 0.0
H1171 H 0.83826 0.76502 0.11275 0.0
H1172 H 0.87022 0.7586 0.14267 0.0
S1173 S 0.79325 0.69897 0.17962 0.0
N1174 N 0.7866 0.7138 0.15424 0.0
N1175 N 0.82147 0.70681 0.18653 0.0
C1176 C 0.82673 0.72212 0.16774 0.0
C1177 C 0.80787 0.72586 0.15019 0.0
C1178 C 0.24465 0.8242 0.12046 0.0
C1179 C 0.22029 0.82164 0.11284 0.0
C1180 C 0.25182 0.84376 0.13517 0.0
C1181 C 0.23489 0.86144 0.14289 0.0
H1182 H 0.25787 0.80997 0.11687 0.0
H1183 H 0.27014 0.84362 0.14257 0.0
S1184 S 0.17089 0.86711 0.12175 0.0
N1185 N 0.18072 0.84154 0.10927 0.0
N1186 N 0.19422 0.8782 0.13721 0.0
C1187 C 0.21153 0.86116 0.1323 0.0
C1188 C 0.20418 0.84119 0.11726 0.0
C1189 C 0.7367 0.18596 0.18837 0.0
C1190 C 0.73861 0.16122 0.1817 0.0
C1191 C 0.7403 0.2046 0.17135 0.0
C1192 C 0.74601 0.19924 0.14694 0.0
H1193 H 0.7338 0.19109 0.20724 0.0
H1194 H 0.74035 0.22326 0.17784 0.0
S1195 S 0.74736 0.13755 0.11891 0.0
N1196 N 0.74238 0.13242 0.14816 0.0
N1197 N 0.74897 0.16747 0.11601 0.0
C1198 C 0.74525 0.17464 0.13946 0.0
C1199 C 0.74159 0.15561 0.15686 0.0
C1200 C 0.69061 0.69704 0.75923 0.0
C1201 C 0.68234 0.67275 0.76047 0.0
C1202 C 0.6744 0.71637 0.75544 0.0
C1203 C 0.64929 0.71213 0.75267 0.0
H1204 H 0.70993 0.70113 0.75961 0.0
H1205 H 0.68191 0.73443 0.75269 0.0
S1206 S 0.6177 0.65282 0.76098 0.0
N1207 N 0.64694 0.64616 0.76347 0.0
N1208 N 0.61641 0.68254 0.75634 0.0
C1209 C 0.6405 0.68835 0.75684 0.0
C1210 C 0.65704 0.66863 0.76074 0.0
C1211 C 0.32818 0.61946 0.75725 0.0
C1212 C 0.30647 0.62938 0.7668 0.0
C1213 C 0.34964 0.63324 0.75613 0.0
C1214 C 0.34997 0.65746 0.76436 0.0
H1215 H 0.32804 0.60167 0.74863 0.0
H1216 H 0.36525 0.62566 0.74671 0.0
S1217 S 0.29996 0.68975 0.79651 0.0
N1218 N 0.28806 0.66317 0.78883 0.0
N1219 N 0.32842 0.68913 0.78676 0.0
C1220 C 0.32937 0.66646 0.77676 0.0
C1221 C 0.30757 0.65235 0.77806 0.0
C1222 C 0.36772 0.32571 0.75586 0.0
C1223 C 0.35903 0.30253 0.76277 0.0
C1224 C 0.35307 0.34653 0.75802 0.0
C1225 C 0.32916 0.34476 0.76693 0.0
H1226 H 0.38523 0.32751 0.74689 0.0
H1227 H 0.35976 0.3636 0.75066 0.0
S1228 S 0.29991 0.28959 0.79295 0.0
N1229 N 0.32668 0.27996 0.78311 0.0
N1230 N 0.29905 0.31908 0.78692 0.0
C1231 C 0.32133 0.3223 0.77656 0.0
C1232 C 0.33635 0.30115 0.77463 0.0
C1233 C 0.62532 0.37215 0.73373 0.0
C1234 C 0.62488 0.36061 0.75663 0.0
C1235 C 0.64523 0.3866 0.72679 0.0
C1236 C 0.66529 0.38997 0.74253 0.0
H1237 H 0.61166 0.36788 0.72012 0.0
H1238 H 0.64578 0.39329 0.70821 0.0
S1239 S 0.66905 0.36978 0.80705 0.0
N1240 N 0.64324 0.35805 0.79691 0.0
N1241 N 0.68063 0.38523 0.78395 0.0
C1242 C 0.66326 0.38147 0.76666 0.0
C1243 C 0.64299 0.36682 0.7737 0.0
C1244 C 0.66288 0.33745 0.22622 0.0
C1245 C 0.65503 0.35745 0.24035 0.0
C1246 C 0.64972 0.31557 0.22579 0.0
C1247 C 0.62843 0.31291 0.23973 0.0
H1248 H 0.6804 0.338 0.2171 0.0
H1249 H 0.65771 0.29997 0.21667 0.0
S1250 S 0.5971 0.36155 0.27478 0.0
N1251 N 0.62227 0.37464 0.2647 0.0
N1252 N 0.59755 0.33341 0.26406 0.0
C1253 C 0.61875 0.33374 0.25124 0.0
C1254 C 0.63206 0.3561 0.25151 0.0
C1255 C 0.67055 0.62455 0.25108 0.0
C1256 C 0.6929 0.62904 0.2392 0.0
C1257 C 0.65013 0.63932 0.24687 0.0
C1258 C 0.65147 0.65921 0.2308 0.0
H1259 H 0.66932 0.61068 0.26511 0.0
H1260 H 0.63401 0.63647 0.25792 0.0
S1261 S 0.70378 0.67529 0.19101 0.0
N1262 N 0.71368 0.65207 0.20746 0.0
N1263 N 0.67536 0.67996 0.19973 0.0
C1264 C 0.67274 0.66209 0.21672 0.0
C1265 C 0.69346 0.64692 0.22084 0.0
C1266 C 0.36116 0.64296 0.23567 0.0
C1267 C 0.35366 0.62497 0.2524 0.0
C1268 C 0.37577 0.66253 0.24302 0.0
C1269 C 0.3836 0.66476 0.26735 0.0
H1270 H 0.35372 0.64329 0.21735 0.0
H1271 H 0.37923 0.67696 0.22997 0.0
S1272 S 0.37516 0.61861 0.31626 0.0
N1273 N 0.35965 0.60774 0.29286 0.0
N1274 N 0.38745 0.64436 0.30667 0.0
C1275 C 0.37934 0.64498 0.28325 0.0
C1276 C 0.36435 0.62503 0.27573 0.0
C1277 C 0.34647 0.34167 0.22282 0.0
C1278 C 0.3663 0.34599 0.23859 0.0
C1279 C 0.32514 0.35565 0.22425 0.0
C1280 C 0.32284 0.37424 0.24172 0.0
H1281 H 0.3466 0.32602 0.21075 0.0
H1282 H 0.30959 0.35013 0.21338 0.0
S1283 S 0.37166 0.39681 0.28281 0.0
N1284 N 0.38401 0.37322 0.26874 0.0
N1285 N 0.34385 0.39948 0.27156 0.0
C1286 C 0.34368 0.38082 0.25524 0.0
C1287 C 0.36549 0.36669 0.25363 0.0
C1288 C 0.77654 0.65015 0.67944 0.0
C1289 C 0.76217 0.62915 0.68217 0.0
C1290 C 0.77605 0.6635 0.65765 0.0
C1291 C 0.76142 0.65613 0.63781 0.0
H1292 H 0.78606 0.65781 0.69497 0.0
H1293 H 0.78558 0.68079 0.65707 0.0
S1294 S 0.72561 0.59899 0.63388 0.0
N1295 N 0.7368 0.59899 0.66186 0.0
N1296 N 0.73605 0.62403 0.62079 0.0
C1297 C 0.74976 0.6334 0.63919 0.0
C1298 C 0.7501 0.6199 0.66146 0.0
C1299 C 0.38018 0.71028 0.64953 0.0
C1300 C 0.385 0.72835 0.6672 0.0
C1301 C 0.36533 0.71523 0.62927 0.0
C1302 C 0.3548 0.73839 0.62609 0.0
H1303 H 0.38599 0.69163 0.65245 0.0
H1304 H 0.3599 0.70015 0.61773 0.0
S1305 S 0.36763 0.79366 0.66281 0.0
N1306 N 0.38262 0.77164 0.67688 0.0
N1307 N 0.35453 0.78074 0.63897 0.0
C1308 C 0.3624 0.75737 0.64154 0.0
C1309 C 0.37753 0.75239 0.66211 0.0
C1310 C 0.26834 0.38998 0.66073 0.0
C1311 C 0.25176 0.38875 0.68036 0.0
C1312 C 0.26362 0.37803 0.63864 0.0
C1313 C 0.24219 0.36439 0.6355 0.0
H1314 H 0.28602 0.39847 0.66307 0.0
H1315 H 0.27799 0.3773 0.62511 0.0
S1316 S 0.18992 0.36138 0.67829 0.0
N1317 N 0.21077 0.37735 0.69301 0.0
N1318 N 0.20199 0.35485 0.6515 0.0
C1319 C 0.22402 0.36602 0.65355 0.0
C1320 C 0.22879 0.3782 0.67603 0.0
C1321 C 0.6424 0.25213 0.66003 0.0
C1322 C 0.66611 0.24333 0.66396 0.0
C1323 C 0.62668 0.2565 0.67965 0.0
C1324 C 0.63408 0.25223 0.70394 0.0
H1325 H 0.63652 0.25741 0.64192 0.0
H1326 H 0.6092 0.26485 0.67576 0.0
S1327 S 0.69216 0.22317 0.72316 0.0
N1328 N 0.69461 0.22604 0.69328 0.0
N1329 N 0.6651 0.2343 0.73022 0.0
C1330 C 0.65671 0.24074 0.7078 0.0
C1331 C 0.67274 0.23634 0.68778 0.0
C1332 C 0.7581 0.37841 0.33621 0.0
C1333 C 0.73375 0.38596 0.33343 0.0
C1334 C 0.76509 0.36349 0.3557 0.0
C1335 C 0.74797 0.35543 0.37305 0.0
H1336 H 0.77147 0.3823 0.32221 0.0
H1337 H 0.78346 0.35622 0.35573 0.0
S1338 S 0.6837 0.37584 0.37793 0.0
N1339 N 0.69384 0.38884 0.35273 0.0
N1340 N 0.707 0.36044 0.38919 0.0
C1341 C 0.72454 0.36581 0.37253 0.0
C1342 C 0.71738 0.38111 0.35266 0.0
C1343 C 0.6517 0.77173 0.29734 0.0
C1344 C 0.63184 0.75595 0.30083 0.0
C1345 C 0.66787 0.77679 0.31644 0.0
C1346 C 0.66465 0.76642 0.33975 0.0
H1347 H 0.65604 0.77856 0.27931 0.0
H1348 H 0.68391 0.7876 0.31244 0.0
S1349 S 0.61212 0.72881 0.35964 0.0
N1350 N 0.60729 0.73365 0.33031 0.0
N1351 N 0.6377 0.74323 0.36625 0.0
C1352 C 0.64325 0.75307 0.34419 0.0
C1353 C 0.62684 0.74779 0.32468 0.0
C1354 C 0.23949 0.64909 0.33844 0.0
C1355 C 0.23292 0.67332 0.33335 0.0
C1356 C 0.24395 0.63251 0.31958 0.0
C1357 C 0.24204 0.63954 0.2949 0.0
H1358 H 0.24298 0.64331 0.35702 0.0
H1359 H 0.25064 0.61457 0.32448 0.0
S1360 S 0.21888 0.69906 0.27228 0.0
N1361 N 0.2199 0.70218 0.30221 0.0
N1362 N 0.22836 0.67104 0.26667 0.0
C1363 C 0.23262 0.66286 0.28969 0.0
C1364 C 0.2281 0.67976 0.30896 0.0
C1365 C 0.36763 0.26165 0.36114 0.0
C1366 C 0.35612 0.23877 0.36046 0.0
C1367 C 0.38261 0.26932 0.34192 0.0
C1368 C 0.3866 0.25434 0.32142 0.0
H1369 H 0.36309 0.27473 0.37524 0.0
H1370 H 0.38937 0.28787 0.34228 0.0
S1371 S 0.36654 0.19006 0.3147 0.0
N1372 N 0.35407 0.19922 0.34052 0.0
N1373 N 0.38227 0.21356 0.3044 0.0
C1374 C 0.37798 0.23019 0.32227 0.0
C1375 C 0.36276 0.2224 0.34185 0.0
C1376 C 0.65243 0.72284 0.61612 0.0
C1377 C 0.67123 0.73915 0.60974 0.0
C1378 C 0.63312 0.73023 0.63116 0.0
C1379 C 0.63206 0.75415 0.64032 0.0
H1380 H 0.65372 0.70371 0.61139 0.0
H1381 H 0.62063 0.71643 0.63778 0.0
S1382 S 0.67243 0.80553 0.62292 0.0
N1383 N 0.68433 0.78157 0.60911 0.0
N1384 N 0.64808 0.79537 0.63739 0.0
C1385 C 0.64864 0.7714 0.63108 0.0
C1386 C 0.6683 0.7639 0.61583 0.0
C1387 C 0.68123 0.24589 0.36356 0.0
C1388 C 0.70592 0.24317 0.35685 0.0
C1389 C 0.66243 0.2417 0.34682 0.0
C1390 C 0.66762 0.2346 0.3228 0.0
H1391 H 0.67634 0.25309 0.38129 0.0
H1392 H 0.64391 0.24591 0.35225 0.0
S1393 S 0.72838 0.21795 0.29817 0.0
N1394 N 0.73401 0.22788 0.32604 0.0
N1395 N 0.69856 0.21987 0.29464 0.0
C1396 C 0.69187 0.2288 0.31678 0.0
C1397 C 0.71107 0.23307 0.33382 0.0
C1398 C 0.75766 0.65737 0.35087 0.0
C1399 C 0.76932 0.65941 0.32819 0.0
C1400 C 0.75458 0.67784 0.36582 0.0
C1401 C 0.76322 0.701 0.35869 0.0
H1402 H 0.74904 0.64041 0.35621 0.0
H1403 H 0.74374 0.67585 0.38222 0.0
S1404 S 0.80044 0.71435 0.3038 0.0
N1405 N 0.79351 0.68516 0.30135 0.0
N1406 N 0.78791 0.72361 0.32957 0.0
C1407 C 0.77759 0.70253 0.33753 0.0
C1408 C 0.78053 0.68172 0.32219 0.0
C1409 C 0.31306 0.77009 0.35437 0.0
C1410 C 0.31055 0.75537 0.37518 0.0
C1411 C 0.33487 0.77023 0.3411 0.0
C1412 C 0.35495 0.75593 0.34837 0.0
H1413 H 0.29741 0.77947 0.34678 0.0
H1414 H 0.33529 0.77998 0.3239 0.0
S1415 S 0.3595 0.71943 0.40508 0.0
N1416 N 0.33131 0.73003 0.40512 0.0
N1417 N 0.3724 0.73048 0.3802 0.0
C1418 C 0.35375 0.74392 0.37095 0.0
C1419 C 0.33146 0.74359 0.38436 0.0
C1420 C 0.24381 0.28468 0.32478 0.0
C1421 C 0.24715 0.28781 0.34999 0.0
C1422 C 0.24103 0.30483 0.30932 0.0
C1423 C 0.24142 0.32885 0.3185 0.0
H1424 H 0.24534 0.26676 0.31661 0.0
H1425 H 0.24011 0.30151 0.28987 0.0
S1426 S 0.24347 0.34631 0.38387 0.0
N1427 N 0.24609 0.31632 0.38398 0.0
N1428 N 0.24089 0.35422 0.35492 0.0
C1429 C 0.24189 0.33202 0.34395 0.0
C1430 C 0.24474 0.31148 0.35969 0.0
C1431 C 0.314 0.23614 0.66665 0.0
C1432 C 0.33867 0.24234 0.66317 0.0
C1433 C 0.29599 0.24375 0.65024 0.0
C1434 C 0.30195 0.25794 0.62973 0.0
H1435 H 0.30825 0.22662 0.68299 0.0
H1436 H 0.27714 0.23994 0.65469 0.0
S1437 S 0.36442 0.27412 0.60923 0.0
N1438 N 0.36855 0.25982 0.63541 0.0
N1439 N 0.3347 0.2741 0.60448 0.0
C1440 C 0.3268 0.26194 0.6246 0.0
C1441 C 0.34518 0.25411 0.64132 0.0
C1442 C 0.76383 0.32354 0.64441 0.0
C1443 C 0.74758 0.32209 0.62464 0.0
C1444 C 0.76504 0.34461 0.65878 0.0
C1445 C 0.7503 0.36504 0.65372 0.0
H1446 H 0.77383 0.30757 0.65037 0.0
H1447 H 0.77613 0.34413 0.67514 0.0
S1448 S 0.70966 0.37259 0.60022 0.0
N1449 N 0.72012 0.34444 0.59787 0.0
N1450 N 0.72255 0.38413 0.62487 0.0
C1451 C 0.73656 0.365 0.6321 0.0
C1452 C 0.73516 0.34345 0.61755 0.0
C1453 C 0.22867 0.67471 0.67833 0.0
C1454 C 0.2345 0.64999 0.67453 0.0
C1455 C 0.2338 0.69237 0.66067 0.0
C1456 C 0.24502 0.68602 0.6385 0.0
H1457 H 0.22149 0.68076 0.69572 0.0
H1458 H 0.23053 0.7113 0.66525 0.0
S1459 S 0.25839 0.62303 0.61729 0.0
N1460 N 0.24798 0.61948 0.64532 0.0
N1461 N 0.25749 0.65264 0.61191 0.0
C1462 C 0.24823 0.66101 0.63333 0.0
C1463 C 0.24298 0.64298 0.65139 0.0
C1464 C 0.17028 0.36524 0.26522 0.0
C1465 C 0.18059 0.36889 0.24195 0.0
C1466 C 0.15124 0.3485 0.26863 0.0
C1467 C 0.14126 0.33582 0.24877 0.0
H1468 H 0.17912 0.37264 0.28128 0.0
H1469 H 0.14615 0.34355 0.28707 0.0
S1470 S 0.1581 0.34317 0.18374 0.0
N1471 N 0.17697 0.36142 0.19851 0.0
N1472 N 0.14017 0.33113 0.20474 0.0
C1473 C 0.14888 0.34222 0.22513 0.0
C1474 C 0.16884 0.35853 0.22174 0.0
C1475 C 0.66577 0.13966 0.23635 0.0
C1476 C 0.67442 0.136 0.26028 0.0
C1477 C 0.64817 0.1576 0.23132 0.0
C1478 C 0.638 0.17165 0.25016 0.0
H1479 H 0.67494 0.13109 0.2211 0.0
H1480 H 0.64441 0.16218 0.21246 0.0
S1481 S 0.65087 0.16532 0.31628 0.0
N1482 N 0.66919 0.14536 0.30314 0.0
N1483 N 0.63492 0.1778 0.29397 0.0
C1484 C 0.64391 0.16553 0.2744 0.0
C1485 C 0.66248 0.14799 0.27942 0.0
C1486 C 0.8446 0.64062 0.22908 0.0
C1487 C 0.83257 0.63117 0.24961 0.0
C1488 C 0.8619 0.65931 0.23151 0.0
C1489 C 0.86691 0.66968 0.25446 0.0
H1490 H 0.83865 0.63553 0.21093 0.0
H1491 H 0.86871 0.66793 0.21507 0.0
S1492 S 0.84342 0.64855 0.31404 0.0
N1493 N 0.83002 0.63063 0.29387 0.0
N1494 N 0.86127 0.66692 0.29819 0.0
C1495 C 0.85714 0.65852 0.27524 0.0
C1496 C 0.84028 0.63887 0.27286 0.0
C1497 C 0.33874 0.78748 0.22122 0.0
C1498 C 0.35735 0.79305 0.23788 0.0
C1499 C 0.32046 0.80435 0.21579 0.0
C1500 C 0.31993 0.82748 0.22691 0.0
H1501 H 0.33736 0.76932 0.21353 0.0
H1502 H 0.30591 0.79866 0.2037 0.0
S1503 S 0.36639 0.85222 0.26934 0.0
N1504 N 0.37578 0.82419 0.2635 0.0
N1505 N 0.34122 0.85612 0.25322 0.0
C1506 C 0.33962 0.83414 0.24194 0.0
C1507 C 0.35841 0.81685 0.24743 0.0
C1508 C 0.13446 0.65919 0.76967 0.0
C1509 C 0.12996 0.66789 0.74589 0.0
C1510 C 0.15273 0.64179 0.77404 0.0
C1511 C 0.16616 0.63182 0.75469 0.0
H1512 H 0.12641 0.66827 0.78526 0.0
H1513 H 0.15811 0.63814 0.79271 0.0
S1514 S 0.15739 0.64445 0.68887 0.0
N1515 N 0.13767 0.66255 0.70268 0.0
N1516 N 0.17087 0.62871 0.71076 0.0
C1517 C 0.15912 0.63758 0.7307 0.0
C1518 C 0.14122 0.65593 0.7263 0.0
C1519 C 0.35283 0.1509 0.76498 0.0
C1520 C 0.36069 0.1634 0.74407 0.0
C1521 C 0.33603 0.13169 0.76316 0.0
C1522 C 0.32588 0.12529 0.74046 0.0
H1523 H 0.35746 0.15778 0.78292 0.0
H1524 H 0.32827 0.1245 0.77986 0.0
S1525 S 0.34405 0.14943 0.68014 0.0
N1526 N 0.36064 0.16507 0.69983 0.0
N1527 N 0.32785 0.13005 0.69655 0.0
C1528 C 0.33598 0.1355 0.71932 0.0
C1529 C 0.35373 0.1544 0.72112 0.0
C1530 C 0.81601 0.35952 0.75566 0.0
C1531 C 0.79229 0.35901 0.76545 0.0
C1532 C 0.83289 0.34093 0.7611 0.0
C1533 C 0.82642 0.32139 0.77644 0.0
H1534 H 0.82089 0.37319 0.74225 0.0
H1535 H 0.85042 0.34104 0.75203 0.0
S1536 S 0.76829 0.31477 0.81051 0.0
N1537 N 0.76451 0.33956 0.79384 0.0
N1538 N 0.79607 0.30498 0.80438 0.0
C1539 C 0.80356 0.32211 0.78807 0.0
C1540 C 0.78652 0.34086 0.7825 0.0
C1541 C 0.68461 0.87184 0.74731 0.0
C1542 C 0.70713 0.87178 0.73499 0.0
C1543 C 0.66618 0.85515 0.74103 0.0
C1544 C 0.66988 0.83806 0.72227 0.0
H1545 H 0.68215 0.88303 0.76341 0.0
H1546 H 0.64996 0.85423 0.75225 0.0
S1547 S 0.72327 0.83487 0.68083 0.0
N1548 N 0.73037 0.85636 0.70069 0.0
N1549 N 0.69575 0.82542 0.6885 0.0
C1550 C 0.69113 0.83998 0.70803 0.0
C1551 C 0.70979 0.85678 0.71449 0.0
C1552 C 0.24719 0.14175 0.34105 0.0
C1553 C 0.26857 0.15552 0.33803 0.0
C1554 C 0.2408 0.12379 0.32389 0.0
C1555 C 0.25564 0.11934 0.30339 0.0
H1556 H 0.23425 0.14652 0.35518 0.0
H1557 H 0.2229 0.11553 0.32513 0.0
S1558 S 0.31618 0.14632 0.29098 0.0
N1559 N 0.30667 0.16021 0.31594 0.0
N1560 N 0.2945 0.12674 0.2837 0.0
C1561 C 0.27843 0.13074 0.30214 0.0
C1562 C 0.28492 0.14888 0.31948 0.0
C1563 C 0.86775 0.25317 0.31979 0.0
C1564 C 0.86684 0.2649 0.29694 0.0
C1565 C 0.85027 0.25822 0.33787 0.0
C1566 C 0.83146 0.27512 0.33352 0.0
H1567 H 0.88055 0.23844 0.32288 0.0
H1568 H 0.85041 0.24753 0.35449 0.0
S1569 S 0.82478 0.31455 0.2788 0.0
N1570 N 0.84828 0.2968 0.27255 0.0
N1571 N 0.81577 0.30666 0.30643 0.0
C1572 C 0.83213 0.2888 0.31178 0.0
C1573 C 0.84978 0.2836 0.2935 0.0
C1574 C 0.76604 0.87025 0.32808 0.0
C1575 C 0.74392 0.87481 0.31584 0.0
C1576 C 0.7675 0.85235 0.34636 0.0
C1577 C 0.74668 0.83937 0.35358 0.0
H1578 H 0.78288 0.87799 0.32123 0.0
H1579 H 0.7853 0.8469 0.35297 0.0
S1580 S 0.6838 0.84803 0.33052 0.0
N1581 N 0.70041 0.86729 0.31437 0.0
N1582 N 0.70283 0.83483 0.34981 0.0
C1583 C 0.72399 0.84631 0.34391 0.0
C1584 C 0.72265 0.86382 0.32473 0.0
C1585 C 0.16001 0.7251 0.36343 0.0
C1586 C 0.16886 0.74902 0.36661 0.0
C1587 C 0.14164 0.72007 0.34631 0.0
C1588 C 0.13087 0.7389 0.33268 0.0
H1589 H 0.16953 0.70983 0.37161 0.0
H1590 H 0.13769 0.70122 0.34191 0.0
S1591 S 0.14402 0.80499 0.33817 0.0
N1592 N 0.16316 0.79188 0.35741 0.0
N1593 N 0.12756 0.78266 0.32646 0.0
C1594 C 0.13705 0.76313 0.33844 0.0
C1595 C 0.15636 0.76816 0.35515 0.0
C1596 C 0.27416 0.8134 0.68485 0.0
C1597 C 0.2643 0.81367 0.66113 0.0
C1598 C 0.26827 0.83138 0.70186 0.0
C1599 C 0.25244 0.85057 0.69587 0.0
H1600 H 0.28585 0.79859 0.69076 0.0
H1601 H 0.27522 0.82955 0.72028 0.0
S1602 S 0.22356 0.86129 0.63564 0.0
N1603 N 0.23944 0.83596 0.63189 0.0
N1604 N 0.22835 0.86998 0.6641 0.0
C1605 C 0.24378 0.85218 0.67176 0.0
C1606 C 0.24971 0.83366 0.65432 0.0
C1607 C 0.16265 0.28462 0.66099 0.0
C1608 C 0.16923 0.26993 0.64105 0.0
C1609 C 0.14439 0.27738 0.67716 0.0
C1610 C 0.13205 0.25524 0.67388 0.0
H1611 H 0.17297 0.30095 0.6652 0.0
H1612 H 0.14148 0.28806 0.69353 0.0
S1613 S 0.14029 0.21181 0.62279 0.0
N1614 N 0.16027 0.23369 0.61728 0.0
N1615 N 0.12574 0.21989 0.64792 0.0
C1616 C 0.13668 0.24159 0.65267 0.0
C1617 C 0.1554 0.24901 0.63612 0.0
C1618 C 0.72084 0.1498 0.64979 0.0
C1619 C 0.74082 0.14019 0.6626 0.0
C1620 C 0.72391 0.16912 0.63327 0.0
C1621 C 0.74691 0.18007 0.62996 0.0
H1622 H 0.70251 0.14407 0.6544 0.0
H1623 H 0.70773 0.17757 0.62569 0.0
S1624 S 0.80533 0.15924 0.65658 0.0
N1625 N 0.78475 0.1405 0.66807 0.0
N1626 N 0.79027 0.17783 0.63824 0.0
C1627 C 0.76728 0.16892 0.64065 0.0
C1628 C 0.76427 0.14868 0.65672 0.0
C1629 C 0.79721 0.78106 0.65165 0.0
C1630 C 0.80137 0.76407 0.63298 0.0
C1631 C 0.81458 0.78512 0.66983 0.0
C1632 C 0.83679 0.77224 0.67018 0.0
H1633 H 0.77967 0.79004 0.65322 0.0
H1634 H 0.80991 0.79752 0.68449 0.0
S1635 S 0.85793 0.72827 0.62341 0.0
N1636 N 0.83036 0.73626 0.61424 0.0
N1637 N 0.86321 0.74396 0.64858 0.0
C1638 C 0.84216 0.75688 0.65038 0.0
C1639 C 0.82438 0.75279 0.63169 0.0
C1640 C 0.34079 0.23875 0.15417 0.0
C1641 C 0.3219 0.22266 0.16066 0.0
C1642 C 0.35943 0.24451 0.17089 0.0
C1643 C 0.35962 0.23424 0.19443 0.0
H1644 H 0.34029 0.24817 0.1368 0.0
H1645 H 0.37253 0.25848 0.16607 0.0
S1646 S 0.31736 0.18731 0.21831 0.0
N1647 N 0.30693 0.19362 0.19076 0.0
N1648 N 0.34161 0.20473 0.22201 0.0
C1649 C 0.34217 0.2165 0.20017 0.0
C1650 C 0.32337 0.21062 0.18331 0.0
C1651 C 0.35639 0.78114 0.79951 0.0
C1652 C 0.37137 0.76043 0.80073 0.0
C1653 C 0.33849 0.78534 0.81712 0.0
C1654 C 0.33496 0.76901 0.83659 0.0
H1655 H 0.35694 0.7929 0.78363 0.0
H1656 H 0.32612 0.80053 0.81445 0.0
S1657 S 0.37188 0.71413 0.85009 0.0
N1658 N 0.38362 0.72505 0.82457 0.0
N1659 N 0.34985 0.73315 0.85788 0.0
C1660 C 0.35155 0.74977 0.83958 0.0
C1661 C 0.36988 0.74545 0.82156 0.0
C1662 C 0.21711 0.34223 0.8438 0.0
C1663 C 0.23839 0.33171 0.8535 0.0
C1664 C 0.21845 0.36136 0.82686 0.0
C1665 C 0.24109 0.37085 0.81964 0.0
H1666 H 0.19956 0.33375 0.84703 0.0
H1667 H 0.20196 0.36695 0.81752 0.0
S1668 S 0.30176 0.35194 0.84271 0.0
N1669 N 0.28238 0.33368 0.85679 0.0
N1670 N 0.28497 0.37046 0.82587 0.0
C1671 C 0.26221 0.3625 0.8316 0.0
C1672 C 0.26087 0.34258 0.8483 0.0
C1673 C 0.64881 0.25087 0.84998 0.0
C1674 C 0.65318 0.27094 0.83466 0.0
C1675 C 0.66613 0.24388 0.86759 0.0
C1676 C 0.68815 0.25683 0.87022 0.0
H1677 H 0.63307 0.23933 0.84696 0.0
H1678 H 0.6634 0.2269 0.87733 0.0
S1679 S 0.70515 0.31403 0.83862 0.0
N1680 N 0.67876 0.30623 0.82644 0.0
N1681 N 0.71127 0.29288 0.85919 0.0
C1682 C 0.69123 0.27847 0.85698 0.0
C1683 C 0.67373 0.28557 0.83921 0.0
C1684 C 0.76978 0.64456 0.83844 0.0
C1685 C 0.75099 0.63508 0.82383 0.0
C1686 C 0.76474 0.66158 0.85691 0.0
C1687 C 0.74087 0.67031 0.86061 0.0
H1688 H 0.78863 0.64085 0.83389 0.0
H1689 H 0.78 0.67037 0.86587 0.0
S1690 S 0.68491 0.64789 0.83034 0.0
N1691 N 0.7072 0.63231 0.81742 0.0
N1692 N 0.69804 0.66549 0.85095 0.0
C1693 C 0.72174 0.6588 0.8482 0.0
C1694 C 0.72675 0.64081 0.83006 0.0
C1695 C 0.66311 0.77248 0.13736 0.0
C1696 C 0.67331 0.75093 0.1279 0.0
C1697 C 0.64461 0.77159 0.15496 0.0
C1698 C 0.63537 0.74915 0.16308 0.0
H1699 H 0.67155 0.78993 0.13351 0.0
H1700 H 0.63945 0.7883 0.16416 0.0
S1701 S 0.65292 0.68794 0.14055 0.0
N1702 N 0.67088 0.70689 0.12552 0.0
N1703 N 0.63519 0.70518 0.15775 0.0
C1704 C 0.64316 0.72775 0.15131 0.0
C1705 C 0.66248 0.72862 0.13391 0.0
C1706 C 0.28058 0.67892 0.16458 0.0
C1707 C 0.26789 0.65673 0.1669 0.0
C1708 C 0.2739 0.69618 0.14707 0.0
C1709 C 0.25437 0.69189 0.13111 0.0
H1710 H 0.29482 0.6837 0.17741 0.0
H1711 H 0.28286 0.71379 0.14731 0.0
S1712 S 0.21762 0.63529 0.12717 0.0
N1713 N 0.23684 0.63014 0.14982 0.0
N1714 N 0.22421 0.66278 0.11672 0.0
C1715 C 0.24314 0.66882 0.13151 0.0
C1716 C 0.24992 0.65116 0.1495 0.0
C1717 C 0.78014 0.34352 0.2081 0.0
C1718 C 0.76365 0.3626 0.20368 0.0
C1719 C 0.78472 0.32576 0.19043 0.0
C1720 C 0.7729 0.32624 0.16763 0.0
H1721 H 0.78835 0.34135 0.22596 0.0
H1722 H 0.79673 0.31083 0.19525 0.0
S1723 S 0.7306 0.37428 0.14579 0.0
N1724 N 0.73745 0.38255 0.17395 0.0
N1725 N 0.74613 0.349 0.14055 0.0
C1726 C 0.75802 0.3464 0.16213 0.0
C1727 C 0.7534 0.36466 0.18022 0.0
loop_
_geom_bond_atom_site_label_1
_geom_bond_atom_site_label_2
_geom_bond_distance
_geom_bond_site_symmetry_2
_ccdc_geom_bond_type
O0 Cd1 2.223 . S
O0 C8 1.315 . S
Cd1 O0 2.223 . S
Cd1 O4 2.297 . S
Cd1 O5 2.439 . S
Cd1 O11 2.240 . S
Cd2 O3 2.240 . S
Cd2 O10 2.223 . S
Cd2 O12 2.297 . S
Cd2 O13 2.439 . S
O3 Cd2 2.240 . S
O3 C8 1.279 . S
O4 Cd1 2.297 . S
O4 C6 1.247 . S
O5 Cd1 2.439 . S
O5 C6 1.208 . S
C6 O4 1.247 . S
C6 O5 1.208 . S
C7 O12 1.247 . S
C7 O13 1.208 . S
C8 O0 1.315 . S
C8 O3 1.279 . S
C9 O10 1.315 . S
C9 O11 1.279 . S
O10 Cd2 2.223 . S
O10 C9 1.315 . S
O11 Cd1 2.240 . S
O11 C9 1.279 . S
O12 Cd2 2.297 . S
O12 C7 1.247 . S
O13 Cd2 2.439 . S
O13 C7 1.208 . S
O14 Cd15 2.223 . S
O14 C22 1.315 . S
Cd15 O14 2.223 . S
Cd15 O18 2.297 . S
Cd15 O19 2.439 . S
Cd15 O25 2.240 . S
Cd16 O17 2.240 . S
Cd16 O24 2.223 . S
Cd16 O26 2.297 . S
Cd16 O27 2.439 . S
O17 Cd16 2.240 . S
O17 C22 1.279 . S
O18 Cd15 2.297 . S
O18 C20 1.247 . S
O19 Cd15 2.439 . S
O19 C20 1.208 . S
C20 O18 1.247 . S
C20 O19 1.208 . S
C21 O26 1.247 . S
C21 O27 1.208 . S
C22 O14 1.315 . S
C22 O17 1.279 . S
C23 O24 1.315 . S
C23 O25 1.279 . S
O24 Cd16 2.223 . S
O24 C23 1.315 . S
O25 Cd15 2.240 . S
O25 C23 1.279 . S
O26 Cd16 2.297 . S
O26 C21 1.247 . S
O27 Cd16 2.439 . S
O27 C21 1.208 . S
O28 Cd29 2.223 . S
O28 C36 1.315 . S
Cd29 O28 2.223 . S
Cd29 O32 2.297 . S
Cd29 O33 2.439 . S
Cd29 O39 2.240 . S
Cd30 O31 2.240 . S
Cd30 O38 2.223 . S
Cd30 O40 2.297 . S
Cd30 O41 2.439 . S
O31 Cd30 2.240 . S
O31 C36 1.279 . S
O32 Cd29 2.297 . S
O32 C34 1.247 . S
O33 Cd29 2.439 . S
O33 C34 1.208 . S
C34 O32 1.247 . S
C34 O33 1.208 . S
C35 O40 1.247 . S
C35 O41 1.208 . S
C36 O28 1.315 . S
C36 O31 1.279 . S
C37 O38 1.315 . S
C37 O39 1.279 . S
O38 Cd30 2.223 . S
O38 C37 1.315 . S
O39 Cd29 2.240 . S
O39 C37 1.279 . S
O40 Cd30 2.297 . S
O40 C35 1.247 . S
O41 Cd30 2.439 . S
O41 C35 1.208 . S
O42 Cd43 2.223 . S
O42 C50 1.315 . S
Cd43 O42 2.223 . S
Cd43 O46 2.297 . S
Cd43 O47 2.439 . S
Cd43 O53 2.240 . S
Cd44 O45 2.240 . S
Cd44 O52 2.223 . S
Cd44 O54 2.297 . S
Cd44 O55 2.439 . S
O45 Cd44 2.240 . S
O45 C50 1.279 . S
O46 Cd43 2.297 . S
O46 C48 1.247 . S
O47 Cd43 2.439 . S
O47 C48 1.208 . S
C48 O46 1.247 . S
C48 O47 1.208 . S
C49 O54 1.247 . S
C49 O55 1.208 . S
C50 O42 1.315 . S
C50 O45 1.279 . S
C51 O52 1.315 . S
C51 O53 1.279 . S
O52 Cd44 2.223 . S
O52 C51 1.315 . S
O53 Cd43 2.240 . S
O53 C51 1.279 . S
O54 Cd44 2.297 . S
O54 C49 1.247 . S
O55 Cd44 2.439 . S
O55 C49 1.208 . S
O56 Cd57 2.223 . S
O56 C64 1.315 . S
Cd57 O56 2.223 . S
Cd57 O60 2.297 . S
Cd57 O61 2.439 . S
Cd57 O67 2.240 . S
Cd58 O59 2.240 . S
Cd58 O66 2.223 . S
Cd58 O68 2.297 . S
Cd58 O69 2.439 . S
O59 Cd58 2.240 . S
O59 C64 1.279 . S
O60 Cd57 2.297 . S
O60 C62 1.247 . S
O61 Cd57 2.439 . S
O61 C62 1.208 . S
C62 O60 1.247 . S
C62 O61 1.208 . S
C63 O68 1.247 . S
C63 O69 1.208 . S
C64 O56 1.315 . S
C64 O59 1.279 . S
C65 O66 1.315 . S
C65 O67 1.279 . S
O66 Cd58 2.223 . S
O66 C65 1.315 . S
O67 Cd57 2.240 . S
O67 C65 1.279 . S
O68 Cd58 2.297 . S
O68 C63 1.247 . S
O69 Cd58 2.439 . S
O69 C63 1.208 . S
O70 Cd71 2.223 . S
O70 C78 1.315 . S
Cd71 O70 2.223 . S
Cd71 O74 2.297 . S
Cd71 O75 2.439 . S
Cd71 O81 2.240 . S
Cd72 O73 2.240 . S
Cd72 O80 2.223 . S
Cd72 O82 2.297 . S
Cd72 O83 2.439 . S
O73 Cd72 2.240 . S
O73 C78 1.279 . S
O74 Cd71 2.297 . S
O74 C76 1.247 . S
O75 Cd71 2.439 . S
O75 C76 1.208 . S
C76 O74 1.247 . S
C76 O75 1.208 . S
C77 O82 1.247 . S
C77 O83 1.208 . S
C78 O70 1.315 . S
C78 O73 1.279 . S
C79 O80 1.315 . S
C79 O81 1.279 . S
O80 Cd72 2.223 . S
O80 C79 1.315 . S
O81 Cd71 2.240 . S
O81 C79 1.279 . S
O82 Cd72 2.297 . S
O82 C77 1.247 . S
O83 Cd72 2.439 . S
O83 C77 1.208 . S
O84 Cd85 2.223 . S
O84 C92 1.315 . S
Cd85 O84 2.223 . S
Cd85 O88 2.297 . S
Cd85 O89 2.439 . S
Cd85 O95 2.240 . S
Cd86 O87 2.240 . S
Cd86 O94 2.223 . S
Cd86 O96 2.297 . S
Cd86 O97 2.439 . S
O87 Cd86 2.240 . S
O87 C92 1.279 . S
O88 Cd85 2.297 . S
O88 C90 1.247 . S
O89 Cd85 2.439 . S
O89 C90 1.208 . S
C90 O88 1.247 . S
C90 O89 1.208 . S
C91 O96 1.247 . S
C91 O97 1.208 . S
C92 O84 1.315 . S
C92 O87 1.279 . S
C93 O94 1.315 . S
C93 O95 1.279 . S
O94 Cd86 2.223 . S
O94 C93 1.315 . S
O95 Cd85 2.240 . S
O95 C93 1.279 . S
O96 Cd86 2.297 . S
O96 C91 1.247 . S
O97 Cd86 2.439 . S
O97 C91 1.208 . S
O98 Cd99 2.223 . S
O98 C106 1.315 . S
Cd99 O98 2.223 . S
Cd99 O102 2.297 . S
Cd99 O103 2.439 . S
Cd99 O109 2.240 . S
Cd100 O101 2.240 . S
Cd100 O108 2.223 . S
Cd100 O110 2.297 . S
Cd100 O111 2.439 . S
O101 Cd100 2.240 . S
O101 C106 1.279 . S
O102 Cd99 2.297 . S
O102 C104 1.247 . S
O103 Cd99 2.439 . S
O103 C104 1.208 . S
C104 O102 1.247 . S
C104 O103 1.208 . S
C105 O110 1.247 . S
C105 O111 1.208 . S
C106 O98 1.315 . S
C106 O101 1.279 . S
C107 O108 1.315 . S
C107 O109 1.279 . S
O108 Cd100 2.223 . S
O108 C107 1.315 . S
O109 Cd99 2.240 . S
O109 C107 1.279 . S
O110 Cd100 2.297 . S
O110 C105 1.247 . S
O111 Cd100 2.439 . S
O111 C105 1.208 . S
O112 Cd113 2.223 . S
O112 C120 1.315 . S
Cd113 O112 2.223 . S
Cd113 O116 2.297 . S
Cd113 O117 2.439 . S
Cd113 O123 2.240 . S
Cd114 O115 2.240 . S
Cd114 O122 2.223 . S
Cd114 O124 2.297 . S
Cd114 O125 2.439 . S
O115 Cd114 2.240 . S
O115 C120 1.279 . S
O116 Cd113 2.297 . S
O116 C118 1.247 . S
O117 Cd113 2.439 . S
O117 C118 1.208 . S
C118 O116 1.247 . S
C118 O117 1.208 . S
C119 O124 1.247 . S
C119 O125 1.208 . S
C120 O112 1.315 . S
C120 O115 1.279 . S
C121 O122 1.315 . S
C121 O123 1.279 . S
O122 Cd114 2.223 . S
O122 C121 1.315 . S
O123 Cd113 2.240 . S
O123 C121 1.279 . S
O124 Cd114 2.297 . S
O124 C119 1.247 . S
O125 Cd114 2.439 . S
O125 C119 1.208 . S
O126 Cd127 2.223 . S
O126 C134 1.315 . S
Cd127 O126 2.223 . S
Cd127 O130 2.297 . S
Cd127 O131 2.439 . S
Cd127 O137 2.240 . S
Cd128 O129 2.240 . S
Cd128 O136 2.223 . S
Cd128 O138 2.297 . S
Cd128 O139 2.439 . S
O129 Cd128 2.240 . S
O129 C134 1.279 . S
O130 Cd127 2.297 . S
O130 C132 1.247 . S
O131 Cd127 2.439 . S
O131 C132 1.208 . S
C132 O130 1.247 . S
C132 O131 1.208 . S
C133 O138 1.247 . S
C133 O139 1.208 . S
C134 O126 1.315 . S
C134 O129 1.279 . S
C135 O136 1.315 . S
C135 O137 1.279 . S
O136 Cd128 2.223 . S
O136 C135 1.315 . S
O137 Cd127 2.240 . S
O137 C135 1.279 . S
O138 Cd128 2.297 . S
O138 C133 1.247 . S
O139 Cd128 2.439 . S
O139 C133 1.208 . S
O140 Cd141 2.223 . S
O140 C148 1.315 . S
Cd141 O140 2.223 . S
Cd141 O144 2.297 . S
Cd141 O145 2.439 . S
Cd141 O151 2.240 . S
Cd142 O143 2.240 . S
Cd142 O150 2.223 . S
Cd142 O152 2.297 . S
Cd142 O153 2.439 . S
O143 Cd142 2.240 . S
O143 C148 1.279 . S
O144 Cd141 2.297 . S
O144 C146 1.247 . S
O145 Cd141 2.439 . S
O145 C146 1.208 . S
C146 O144 1.247 . S
C146 O145 1.208 . S
C147 O152 1.247 . S
C147 O153 1.208 . S
C148 O140 1.315 . S
C148 O143 1.279 . S
C149 O150 1.315 . S
C149 O151 1.279 . S
O150 Cd142 2.223 . S
O150 C149 1.315 . S
O151 Cd141 2.240 . S
O151 C149 1.279 . S
O152 Cd142 2.297 . S
O152 C147 1.247 . S
O153 Cd142 2.439 . S
O153 C147 1.208 . S
O154 Cd155 2.223 . S
O154 C162 1.315 . S
Cd155 O154 2.223 . S
Cd155 O158 2.297 . S
Cd155 O159 2.439 . S
Cd155 O165 2.240 . S
Cd156 O157 2.240 . S
Cd156 O164 2.223 . S
Cd156 O166 2.297 . S
Cd156 O167 2.439 . S
O157 Cd156 2.240 . S
O157 C162 1.279 . S
O158 Cd155 2.297 . S
O158 C160 1.247 . S
O159 Cd155 2.439 . S
O159 C160 1.208 . S
C160 O158 1.247 . S
C160 O159 1.208 . S
C161 O166 1.247 . S
C161 O167 1.208 . S
C162 O154 1.315 . S
C162 O157 1.279 . S
C163 O164 1.315 . S
C163 O165 1.279 . S
O164 Cd156 2.223 . S
O164 C163 1.315 . S
O165 Cd155 2.240 . S
O165 C163 1.279 . S
O166 Cd156 2.297 . S
O166 C161 1.247 . S
O167 Cd156 2.439 . S
O167 C161 1.208 . S
O168 Cd169 2.223 . S
O168 C176 1.315 . S
Cd169 O168 2.223 . S
Cd169 O172 2.297 . S
Cd169 O173 2.439 . S
Cd169 O179 2.240 . S
Cd170 O171 2.240 . S
Cd170 O178 2.223 . S
Cd170 O180 2.297 . S
Cd170 O181 2.439 . S
O171 Cd170 2.240 . S
O171 C176 1.279 . S
O172 Cd169 2.297 . S
O172 C174 1.247 . S
O173 Cd169 2.439 . S
O173 C174 1.208 . S
C174 O172 1.247 . S
C174 O173 1.208 . S
C175 O180 1.247 . S
C175 O181 1.208 . S
C176 O168 1.315 . S
C176 O171 1.279 . S
C177 O178 1.315 . S
C177 O179 1.279 . S
O178 Cd170 2.223 . S
O178 C177 1.315 . S
O179 Cd169 2.240 . S
O179 C177 1.279 . S
O180 Cd170 2.297 . S
O180 C175 1.247 . S
O181 Cd170 2.439 . S
O181 C175 1.208 . S
O182 Cd183 2.223 . S
O182 C190 1.315 . S
Cd183 O182 2.223 . S
Cd183 O186 2.297 . S
Cd183 O187 2.439 . S
Cd183 O193 2.240 . S
Cd184 O185 2.240 . S
Cd184 O192 2.223 . S
Cd184 O194 2.297 . S
Cd184 O195 2.439 . S
O185 Cd184 2.240 . S
O185 C190 1.279 . S
O186 Cd183 2.297 . S
O186 C188 1.247 . S
O187 Cd183 2.439 . S
O187 C188 1.208 . S
C188 O186 1.247 . S
C188 O187 1.208 . S
C189 O194 1.247 . S
C189 O195 1.208 . S
C190 O182 1.315 . S
C190 O185 1.279 . S
C191 O192 1.315 . S
C191 O193 1.279 . S
O192 Cd184 2.223 . S
O192 C191 1.315 . S
O193 Cd183 2.240 . S
O193 C191 1.279 . S
O194 Cd184 2.297 . S
O194 C189 1.247 . S
O195 Cd184 2.439 . S
O195 C189 1.208 . S
O196 Cd197 2.223 . S
O196 C204 1.315 . S
Cd197 O196 2.223 . S
Cd197 O200 2.297 . S
Cd197 O201 2.439 . S
Cd197 O207 2.240 . S
Cd198 O199 2.240 . S
Cd198 O206 2.223 . S
Cd198 O208 2.297 . S
Cd198 O209 2.439 . S
O199 Cd198 2.240 . S
O199 C204 1.279 . S
O200 Cd197 2.297 . S
O200 C202 1.247 . S
O201 Cd197 2.439 . S
O201 C202 1.208 . S
C202 O200 1.247 . S
C202 O201 1.208 . S
C203 O208 1.247 . S
C203 O209 1.208 . S
C204 O196 1.315 . S
C204 O199 1.279 . S
C205 O206 1.315 . S
C205 O207 1.279 . S
O206 Cd198 2.223 . S
O206 C205 1.315 . S
O207 Cd197 2.240 . S
O207 C205 1.279 . S
O208 Cd198 2.297 . S
O208 C203 1.247 . S
O209 Cd198 2.439 . S
O209 C203 1.208 . S
O210 Cd211 2.223 . S
O210 C218 1.315 . S
Cd211 O210 2.223 . S
Cd211 O214 2.297 . S
Cd211 O215 2.439 . S
Cd211 O221 2.240 . S
Cd212 O213 2.240 . S
Cd212 O220 2.223 . S
Cd212 O222 2.297 . S
Cd212 O223 2.439 . S
O213 Cd212 2.240 . S
O213 C218 1.279 . S
O214 Cd211 2.297 . S
O214 C216 1.247 . S
O215 Cd211 2.439 . S
O215 C216 1.208 . S
C216 O214 1.247 . S
C216 O215 1.208 . S
C217 O222 1.247 . S
C217 O223 1.208 . S
C218 O210 1.315 . S
C218 O213 1.279 . S
C219 O220 1.315 . S
C219 O221 1.279 . S
O220 Cd212 2.223 . S
O220 C219 1.315 . S
O221 Cd211 2.240 . S
O221 C219 1.279 . S
O222 Cd212 2.297 . S
O222 C217 1.247 . S
O223 Cd212 2.439 . S
O223 C217 1.208 . S
O224 Cd225 2.223 . S
O224 C232 1.315 . S
Cd225 O224 2.223 . S
Cd225 O228 2.297 . S
Cd225 O229 2.439 . S
Cd225 O235 2.240 . S
Cd226 O227 2.240 . S
Cd226 O234 2.223 . S
Cd226 O236 2.297 . S
Cd226 O237 2.439 . S
O227 Cd226 2.240 . S
O227 C232 1.279 . S
O228 Cd225 2.297 . S
O228 C230 1.247 . S
O229 Cd225 2.439 . S
O229 C230 1.208 . S
C230 O228 1.247 . S
C230 O229 1.208 . S
C231 O236 1.247 . S
C231 O237 1.208 . S
C232 O224 1.315 . S
C232 O227 1.279 . S
C233 O234 1.315 . S
C233 O235 1.279 . S
O234 Cd226 2.223 . S
O234 C233 1.315 . S
O235 Cd225 2.240 . S
O235 C233 1.279 . S
O236 Cd226 2.297 . S
O236 C231 1.247 . S
O237 Cd226 2.439 . S
O237 C231 1.208 . S
O238 Cd239 2.223 . S
O238 C246 1.315 . S
Cd239 O238 2.223 . S
Cd239 O242 2.297 . S
Cd239 O243 2.439 . S
Cd239 O249 2.240 . S
Cd240 O241 2.240 . S
Cd240 O248 2.223 . S
Cd240 O250 2.297 . S
Cd240 O251 2.439 . S
O241 Cd240 2.240 . S
O241 C246 1.279 . S
O242 Cd239 2.297 . S
O242 C244 1.247 . S
O243 Cd239 2.439 . S
O243 C244 1.208 . S
C244 O242 1.247 . S
C244 O243 1.208 . S
C245 O250 1.247 . S
C245 O251 1.208 . S
C246 O238 1.315 . S
C246 O241 1.279 . S
C247 O248 1.315 . S
C247 O249 1.279 . S
O248 Cd240 2.223 . S
O248 C247 1.315 . S
O249 Cd239 2.240 . S
O249 C247 1.279 . S
O250 Cd240 2.297 . S
O250 C245 1.247 . S
O251 Cd240 2.439 . S
O251 C245 1.208 . S
O252 Cd253 2.223 . S
O252 C260 1.315 . S
Cd253 O252 2.223 . S
Cd253 O256 2.297 . S
Cd253 O257 2.439 . S
Cd253 O263 2.240 . S
Cd254 O255 2.240 . S
Cd254 O262 2.223 . S
Cd254 O264 2.297 . S
Cd254 O265 2.439 . S
O255 Cd254 2.240 . S
O255 C260 1.279 . S
O256 Cd253 2.297 . S
O256 C258 1.247 . S
O257 Cd253 2.439 . S
O257 C258 1.208 . S
C258 O256 1.247 . S
C258 O257 1.208 . S
C259 O264 1.247 . S
C259 O265 1.208 . S
C260 O252 1.315 . S
C260 O255 1.279 . S
C261 O262 1.315 . S
C261 O263 1.279 . S
O262 Cd254 2.223 . S
O262 C261 1.315 . S
O263 Cd253 2.240 . S
O263 C261 1.279 . S
O264 Cd254 2.297 . S
O264 C259 1.247 . S
O265 Cd254 2.439 . S
O265 C259 1.208 . S
O266 Cd267 2.223 . S
O266 C274 1.315 . S
Cd267 O266 2.223 . S
Cd267 O270 2.297 . S
Cd267 O271 2.439 . S
Cd267 O277 2.240 . S
Cd268 O269 2.240 . S
Cd268 O276 2.223 . S
Cd268 O278 2.297 . S
Cd268 O279 2.439 . S
O269 Cd268 2.240 . S
O269 C274 1.279 . S
O270 Cd267 2.297 . S
O270 C272 1.247 . S
O271 Cd267 2.439 . S
O271 C272 1.208 . S
C272 O270 1.247 . S
C272 O271 1.208 . S
C273 O278 1.247 . S
C273 O279 1.208 . S
C274 O266 1.315 . S
C274 O269 1.279 . S
C275 O276 1.315 . S
C275 O277 1.279 . S
O276 Cd268 2.223 . S
O276 C275 1.315 . S
O277 Cd267 2.240 . S
O277 C275 1.279 . S
O278 Cd268 2.297 . S
O278 C273 1.247 . S
O279 Cd268 2.439 . S
O279 C273 1.208 . S
O280 Cd281 2.223 . S
O280 C288 1.315 . S
Cd281 O280 2.223 . S
Cd281 O284 2.297 . S
Cd281 O285 2.439 . S
Cd281 O291 2.240 . S
Cd282 O283 2.240 . S
Cd282 O290 2.223 . S
Cd282 O292 2.297 . S
Cd282 O293 2.439 . S
O283 Cd282 2.240 . S
O283 C288 1.279 . S
O284 Cd281 2.297 . S
O284 C286 1.247 . S
O285 Cd281 2.439 . S
O285 C286 1.208 . S
C286 O284 1.247 . S
C286 O285 1.208 . S
C287 O292 1.247 . S
C287 O293 1.208 . S
C288 O280 1.315 . S
C288 O283 1.279 . S
C289 O290 1.315 . S
C289 O291 1.279 . S
O290 Cd282 2.223 . S
O290 C289 1.315 . S
O291 Cd281 2.240 . S
O291 C289 1.279 . S
O292 Cd282 2.297 . S
O292 C287 1.247 . S
O293 Cd282 2.439 . S
O293 C287 1.208 . S
O294 Cd295 2.223 . S
O294 C302 1.315 . S
Cd295 O294 2.223 . S
Cd295 O298 2.297 . S
Cd295 O299 2.439 . S
Cd295 O305 2.240 . S
Cd296 O297 2.240 . S
Cd296 O304 2.223 . S
Cd296 O306 2.297 . S
Cd296 O307 2.439 . S
O297 Cd296 2.240 . S
O297 C302 1.279 . S
O298 Cd295 2.297 . S
O298 C300 1.247 . S
O299 Cd295 2.439 . S
O299 C300 1.208 . S
C300 O298 1.247 . S
C300 O299 1.208 . S
C301 O306 1.247 . S
C301 O307 1.208 . S
C302 O294 1.315 . S
C302 O297 1.279 . S
C303 O304 1.315 . S
C303 O305 1.279 . S
O304 Cd296 2.223 . S
O304 C303 1.315 . S
O305 Cd295 2.240 . S
O305 C303 1.279 . S
O306 Cd296 2.297 . S
O306 C301 1.247 . S
O307 Cd296 2.439 . S
O307 C301 1.208 . S
O308 Cd309 2.223 . S
O308 C316 1.315 . S
Cd309 O308 2.223 . S
Cd309 O312 2.297 . S
Cd309 O313 2.439 . S
Cd309 O319 2.240 . S
Cd310 O311 2.240 . S
Cd310 O318 2.223 . S
Cd310 O320 2.297 . S
Cd310 O321 2.439 . S
O311 Cd310 2.240 . S
O311 C316 1.279 . S
O312 Cd309 2.297 . S
O312 C314 1.247 . S
O313 Cd309 2.439 . S
O313 C314 1.208 . S
C314 O312 1.247 . S
C314 O313 1.208 . S
C315 O320 1.247 . S
C315 O321 1.208 . S
C316 O308 1.315 . S
C316 O311 1.279 . S
C317 O318 1.315 . S
C317 O319 1.279 . S
O318 Cd310 2.223 . S
O318 C317 1.315 . S
O319 Cd309 2.240 . S
O319 C317 1.279 . S
O320 Cd310 2.297 . S
O320 C315 1.247 . S
O321 Cd310 2.439 . S
O321 C315 1.208 . S
O322 Cd323 2.223 . S
O322 C330 1.315 . S
Cd323 O322 2.223 . S
Cd323 O326 2.297 . S
Cd323 O327 2.439 . S
Cd323 O333 2.240 . S
Cd324 O325 2.240 . S
Cd324 O332 2.223 . S
Cd324 O334 2.297 . S
Cd324 O335 2.439 . S
O325 Cd324 2.240 . S
O325 C330 1.279 . S
O326 Cd323 2.297 . S
O326 C328 1.247 . S
O327 Cd323 2.439 . S
O327 C328 1.208 . S
C328 O326 1.247 . S
C328 O327 1.208 . S
C329 O334 1.247 . S
C329 O335 1.208 . S
C330 O322 1.315 . S
C330 O325 1.279 . S
C331 O332 1.315 . S
C331 O333 1.279 . S
O332 Cd324 2.223 . S
O332 C331 1.315 . S
O333 Cd323 2.240 . S
O333 C331 1.279 . S
O334 Cd324 2.297 . S
O334 C329 1.247 . S
O335 Cd324 2.439 . S
O335 C329 1.208 . S
O336 Cd337 2.223 . S
O336 C344 1.315 . S
Cd337 O336 2.223 . S
Cd337 O340 2.297 . S
Cd337 O341 2.439 . S
Cd337 O347 2.240 . S
Cd338 O339 2.240 . S
Cd338 O346 2.223 . S
Cd338 O348 2.297 . S
Cd338 O349 2.439 . S
O339 Cd338 2.240 . S
O339 C344 1.279 . S
O340 Cd337 2.297 . S
O340 C342 1.247 . S
O341 Cd337 2.439 . S
O341 C342 1.208 . S
C342 O340 1.247 . S
C342 O341 1.208 . S
C343 O348 1.247 . S
C343 O349 1.208 . S
C344 O336 1.315 . S
C344 O339 1.279 . S
C345 O346 1.315 . S
C345 O347 1.279 . S
O346 Cd338 2.223 . S
O346 C345 1.315 . S
O347 Cd337 2.240 . S
O347 C345 1.279 . S
O348 Cd338 2.297 . S
O348 C343 1.247 . S
O349 Cd338 2.439 . S
O349 C343 1.208 . S
O350 Cd351 2.223 . S
O350 C358 1.315 . S
Cd351 O350 2.223 . S
Cd351 O354 2.297 . S
Cd351 O355 2.439 . S
Cd351 O361 2.240 . S
Cd352 O353 2.240 . S
Cd352 O360 2.223 . S
Cd352 O362 2.297 . S
Cd352 O363 2.439 . S
O353 Cd352 2.240 . S
O353 C358 1.279 . S
O354 Cd351 2.297 . S
O354 C356 1.247 . S
O355 Cd351 2.439 . S
O355 C356 1.208 . S
C356 O354 1.247 . S
C356 O355 1.208 . S
C357 O362 1.247 . S
C357 O363 1.208 . S
C358 O350 1.315 . S
C358 O353 1.279 . S
C359 O360 1.315 . S
C359 O361 1.279 . S
O360 Cd352 2.223 . S
O360 C359 1.315 . S
O361 Cd351 2.240 . S
O361 C359 1.279 . S
O362 Cd352 2.297 . S
O362 C357 1.247 . S
O363 Cd352 2.439 . S
O363 C357 1.208 . S
O364 Cd365 2.223 . S
O364 C372 1.315 . S
Cd365 O364 2.223 . S
Cd365 O368 2.297 . S
Cd365 O369 2.439 . S
Cd365 O375 2.240 . S
Cd366 O367 2.240 . S
Cd366 O374 2.223 . S
Cd366 O376 2.297 . S
Cd366 O377 2.439 . S
O367 Cd366 2.240 . S
O367 C372 1.279 . S
O368 Cd365 2.297 . S
O368 C370 1.247 . S
O369 Cd365 2.439 . S
O369 C370 1.208 . S
C370 O368 1.247 . S
C370 O369 1.208 . S
C371 O376 1.247 . S
C371 O377 1.208 . S
C372 O364 1.315 . S
C372 O367 1.279 . S
C373 O374 1.315 . S
C373 O375 1.279 . S
O374 Cd366 2.223 . S
O374 C373 1.315 . S
O375 Cd365 2.240 . S
O375 C373 1.279 . S
O376 Cd366 2.297 . S
O376 C371 1.247 . S
O377 Cd366 2.439 . S
O377 C371 1.208 . S
O378 Cd379 2.223 . S
O378 C386 1.315 . S
Cd379 O378 2.223 . S
Cd379 O382 2.297 . S
Cd379 O383 2.439 . S
Cd379 O389 2.240 . S
Cd380 O381 2.240 . S
Cd380 O388 2.223 . S
Cd380 O390 2.297 . S
Cd380 O391 2.439 . S
O381 Cd380 2.240 . S
O381 C386 1.279 . S
O382 Cd379 2.297 . S
O382 C384 1.247 . S
O383 Cd379 2.439 . S
O383 C384 1.208 . S
C384 O382 1.247 . S
C384 O383 1.208 . S
C385 O390 1.247 . S
C385 O391 1.208 . S
C386 O378 1.315 . S
C386 O381 1.279 . S
C387 O388 1.315 . S
C387 O389 1.279 . S
O388 Cd380 2.223 . S
O388 C387 1.315 . S
O389 Cd379 2.240 . S
O389 C387 1.279 . S
O390 Cd380 2.297 . S
O390 C385 1.247 . S
O391 Cd380 2.439 . S
O391 C385 1.208 . S
O392 Cd393 2.223 . S
O392 C400 1.315 . S
Cd393 O392 2.223 . S
Cd393 O396 2.297 . S
Cd393 O397 2.439 . S
Cd393 O403 2.240 . S
Cd394 O395 2.240 . S
Cd394 O402 2.223 . S
Cd394 O404 2.297 . S
Cd394 O405 2.439 . S
O395 Cd394 2.240 . S
O395 C400 1.279 . S
O396 Cd393 2.297 . S
O396 C398 1.247 . S
O397 Cd393 2.439 . S
O397 C398 1.208 . S
C398 O396 1.247 . S
C398 O397 1.208 . S
C399 O404 1.247 . S
C399 O405 1.208 . S
C400 O392 1.315 . S
C400 O395 1.279 . S
C401 O402 1.315 . S
C401 O403 1.279 . S
O402 Cd394 2.223 . S
O402 C401 1.315 . S
O403 Cd393 2.240 . S
O403 C401 1.279 . S
O404 Cd394 2.297 . S
O404 C399 1.247 . S
O405 Cd394 2.439 . S
O405 C399 1.208 . S
O406 Cd407 2.223 . S
O406 C414 1.315 . S
Cd407 O406 2.223 . S
Cd407 O410 2.297 . S
Cd407 O411 2.439 . S
Cd407 O417 2.240 . S
Cd408 O409 2.240 . S
Cd408 O416 2.223 . S
Cd408 O418 2.297 . S
Cd408 O419 2.439 . S
O409 Cd408 2.240 . S
O409 C414 1.279 . S
O410 Cd407 2.297 . S
O410 C412 1.247 . S
O411 Cd407 2.439 . S
O411 C412 1.208 . S
C412 O410 1.247 . S
C412 O411 1.208 . S
C413 O418 1.247 . S
C413 O419 1.208 . S
C414 O406 1.315 . S
C414 O409 1.279 . S
C415 O416 1.315 . S
C415 O417 1.279 . S
O416 Cd408 2.223 . S
O416 C415 1.315 . S
O417 Cd407 2.240 . S
O417 C415 1.279 . S
O418 Cd408 2.297 . S
O418 C413 1.247 . S
O419 Cd408 2.439 . S
O419 C413 1.208 . S
O420 Cd421 2.223 . S
O420 C428 1.315 . S
Cd421 O420 2.223 . S
Cd421 O424 2.297 . S
Cd421 O425 2.439 . S
Cd421 O431 2.240 . S
Cd422 O423 2.240 . S
Cd422 O430 2.223 . S
Cd422 O432 2.297 . S
Cd422 O433 2.439 . S
O423 Cd422 2.240 . S
O423 C428 1.279 . S
O424 Cd421 2.297 . S
O424 C426 1.247 . S
O425 Cd421 2.439 . S
O425 C426 1.208 . S
C426 O424 1.247 . S
C426 O425 1.208 . S
C427 O432 1.247 . S
C427 O433 1.208 . S
C428 O420 1.315 . S
C428 O423 1.279 . S
C429 O430 1.315 . S
C429 O431 1.279 . S
O430 Cd422 2.223 . S
O430 C429 1.315 . S
O431 Cd421 2.240 . S
O431 C429 1.279 . S
O432 Cd422 2.297 . S
O432 C427 1.247 . S
O433 Cd422 2.439 . S
O433 C427 1.208 . S
O434 Cd435 2.223 . S
O434 C442 1.315 . S
Cd435 O434 2.223 . S
Cd435 O438 2.297 . S
Cd435 O439 2.439 . S
Cd435 O445 2.240 . S
Cd436 O437 2.240 . S
Cd436 O444 2.223 . S
Cd436 O446 2.297 . S
Cd436 O447 2.439 . S
O437 Cd436 2.240 . S
O437 C442 1.279 . S
O438 Cd435 2.297 . S
O438 C440 1.247 . S
O439 Cd435 2.439 . S
O439 C440 1.208 . S
C440 O438 1.247 . S
C440 O439 1.208 . S
C441 O446 1.247 . S
C441 O447 1.208 . S
C442 O434 1.315 . S
C442 O437 1.279 . S
C443 O444 1.315 . S
C443 O445 1.279 . S
O444 Cd436 2.223 . S
O444 C443 1.315 . S
O445 Cd435 2.240 . S
O445 C443 1.279 . S
O446 Cd436 2.297 . S
O446 C441 1.247 . S
O447 Cd436 2.439 . S
O447 C441 1.208 . S
O448 Cd449 2.223 . S
O448 C456 1.315 . S
Cd449 O448 2.223 . S
Cd449 O452 2.297 . S
Cd449 O453 2.439 . S
Cd449 O459 2.240 . S
Cd450 O451 2.240 . S
Cd450 O458 2.223 . S
Cd450 O460 2.297 . S
Cd450 O461 2.439 . S
O451 Cd450 2.240 . S
O451 C456 1.279 . S
O452 Cd449 2.297 . S
O452 C454 1.247 . S
O453 Cd449 2.439 . S
O453 C454 1.208 . S
C454 O452 1.247 . S
C454 O453 1.208 . S
C455 O460 1.247 . S
C455 O461 1.208 . S
C456 O448 1.315 . S
C456 O451 1.279 . S
C457 O458 1.315 . S
C457 O459 1.279 . S
O458 Cd450 2.223 . S
O458 C457 1.315 . S
O459 Cd449 2.240 . S
O459 C457 1.279 . S
O460 Cd450 2.297 . S
O460 C455 1.247 . S
O461 Cd450 2.439 . S
O461 C455 1.208 . S
O462 Cd463 2.223 . S
O462 C470 1.315 . S
Cd463 O462 2.223 . S
Cd463 O466 2.297 . S
Cd463 O467 2.439 . S
Cd463 O473 2.240 . S
Cd464 O465 2.240 . S
Cd464 O472 2.223 . S
Cd464 O474 2.297 . S
Cd464 O475 2.439 . S
O465 Cd464 2.240 . S
O465 C470 1.279 . S
O466 Cd463 2.297 . S
O466 C468 1.247 . S
O467 Cd463 2.439 . S
O467 C468 1.208 . S
C468 O466 1.247 . S
C468 O467 1.208 . S
C469 O474 1.247 . S
C469 O475 1.208 . S
C470 O462 1.315 . S
C470 O465 1.279 . S
C471 O472 1.315 . S
C471 O473 1.279 . S
O472 Cd464 2.223 . S
O472 C471 1.315 . S
O473 Cd463 2.240 . S
O473 C471 1.279 . S
O474 Cd464 2.297 . S
O474 C469 1.247 . S
O475 Cd464 2.439 . S
O475 C469 1.208 . S
O476 Cd477 2.223 . S
O476 C484 1.315 . S
Cd477 O476 2.223 . S
Cd477 O480 2.297 . S
Cd477 O481 2.439 . S
Cd477 O487 2.240 . S
Cd478 O479 2.240 . S
Cd478 O486 2.223 . S
Cd478 O488 2.297 . S
Cd478 O489 2.439 . S
O479 Cd478 2.240 . S
O479 C484 1.279 . S
O480 Cd477 2.297 . S
O480 C482 1.247 . S
O481 Cd477 2.439 . S
O481 C482 1.208 . S
C482 O480 1.247 . S
C482 O481 1.208 . S
C483 O488 1.247 . S
C483 O489 1.208 . S
C484 O476 1.315 . S
C484 O479 1.279 . S
C485 O486 1.315 . S
C485 O487 1.279 . S
O486 Cd478 2.223 . S
O486 C485 1.315 . S
O487 Cd477 2.240 . S
O487 C485 1.279 . S
O488 Cd478 2.297 . S
O488 C483 1.247 . S
O489 Cd478 2.439 . S
O489 C483 1.208 . S
O490 Cd491 2.223 . S
O490 C498 1.315 . S
Cd491 O490 2.223 . S
Cd491 O494 2.297 . S
Cd491 O495 2.439 . S
Cd491 O501 2.240 . S
Cd492 O493 2.240 . S
Cd492 O500 2.223 . S
Cd492 O502 2.297 . S
Cd492 O503 2.439 . S
O493 Cd492 2.240 . S
O493 C498 1.279 . S
O494 Cd491 2.297 . S
O494 C496 1.247 . S
O495 Cd491 2.439 . S
O495 C496 1.208 . S
C496 O494 1.247 . S
C496 O495 1.208 . S
C497 O502 1.247 . S
C497 O503 1.208 . S
C498 O490 1.315 . S
C498 O493 1.279 . S
C499 O500 1.315 . S
C499 O501 1.279 . S
O500 Cd492 2.223 . S
O500 C499 1.315 . S
O501 Cd491 2.240 . S
O501 C499 1.279 . S
O502 Cd492 2.297 . S
O502 C497 1.247 . S
O503 Cd492 2.439 . S
O503 C497 1.208 . S
O504 Cd505 2.223 . S
O504 C512 1.315 . S
Cd505 O504 2.223 . S
Cd505 O508 2.297 . S
Cd505 O509 2.439 . S
Cd505 O515 2.240 . S
Cd506 O507 2.240 . S
Cd506 O514 2.223 . S
Cd506 O516 2.297 . S
Cd506 O517 2.439 . S
O507 Cd506 2.240 . S
O507 C512 1.279 . S
O508 Cd505 2.297 . S
O508 C510 1.247 . S
O509 Cd505 2.439 . S
O509 C510 1.208 . S
C510 O508 1.247 . S
C510 O509 1.208 . S
C511 O516 1.247 . S
C511 O517 1.208 . S
C512 O504 1.315 . S
C512 O507 1.279 . S
C513 O514 1.315 . S
C513 O515 1.279 . S
O514 Cd506 2.223 . S
O514 C513 1.315 . S
O515 Cd505 2.240 . S
O515 C513 1.279 . S
O516 Cd506 2.297 . S
O516 C511 1.247 . S
O517 Cd506 2.439 . S
O517 C511 1.208 . S
O518 Cd519 2.223 . S
O518 C526 1.315 . S
Cd519 O518 2.223 . S
Cd519 O522 2.297 . S
Cd519 O523 2.439 . S
Cd519 O529 2.240 . S
Cd520 O521 2.240 . S
Cd520 O528 2.223 . S
Cd520 O530 2.297 . S
Cd520 O531 2.439 . S
O521 Cd520 2.240 . S
O521 C526 1.279 . S
O522 Cd519 2.297 . S
O522 C524 1.247 . S
O523 Cd519 2.439 . S
O523 C524 1.208 . S
C524 O522 1.247 . S
C524 O523 1.208 . S
C525 O530 1.247 . S
C525 O531 1.208 . S
C526 O518 1.315 . S
C526 O521 1.279 . S
C527 O528 1.315 . S
C527 O529 1.279 . S
O528 Cd520 2.223 . S
O528 C527 1.315 . S
O529 Cd519 2.240 . S
O529 C527 1.279 . S
O530 Cd520 2.297 . S
O530 C525 1.247 . S
O531 Cd520 2.439 . S
O531 C525 1.208 . S
O532 Cd533 2.223 . S
O532 C540 1.315 . S
Cd533 O532 2.223 . S
Cd533 O536 2.297 . S
Cd533 O537 2.439 . S
Cd533 O543 2.240 . S
Cd534 O535 2.240 . S
Cd534 O542 2.223 . S
Cd534 O544 2.297 . S
Cd534 O545 2.439 . S
O535 Cd534 2.240 . S
O535 C540 1.279 . S
O536 Cd533 2.297 . S
O536 C538 1.247 . S
O537 Cd533 2.439 . S
O537 C538 1.208 . S
C538 O536 1.247 . S
C538 O537 1.208 . S
C539 O544 1.247 . S
C539 O545 1.208 . S
C540 O532 1.315 . S
C540 O535 1.279 . S
C541 O542 1.315 . S
C541 O543 1.279 . S
O542 Cd534 2.223 . S
O542 C541 1.315 . S
O543 Cd533 2.240 . S
O543 C541 1.279 . S
O544 Cd534 2.297 . S
O544 C539 1.247 . S
O545 Cd534 2.439 . S
O545 C539 1.208 . S
O546 Cd547 2.223 . S
O546 C554 1.315 . S
Cd547 O546 2.223 . S
Cd547 O550 2.297 . S
Cd547 O551 2.439 . S
Cd547 O557 2.240 . S
Cd548 O549 2.240 . S
Cd548 O556 2.223 . S
Cd548 O558 2.297 . S
Cd548 O559 2.439 . S
O549 Cd548 2.240 . S
O549 C554 1.279 . S
O550 Cd547 2.297 . S
O550 C552 1.247 . S
O551 Cd547 2.439 . S
O551 C552 1.208 . S
C552 O550 1.247 . S
C552 O551 1.208 . S
C553 O558 1.247 . S
C553 O559 1.208 . S
C554 O546 1.315 . S
C554 O549 1.279 . S
C555 O556 1.315 . S
C555 O557 1.279 . S
O556 Cd548 2.223 . S
O556 C555 1.315 . S
O557 Cd547 2.240 . S
O557 C555 1.279 . S
O558 Cd548 2.297 . S
O558 C553 1.247 . S
O559 Cd548 2.439 . S
O559 C553 1.208 . S
O560 Cd561 2.223 . S
O560 C568 1.315 . S
Cd561 O560 2.223 . S
Cd561 O564 2.297 . S
Cd561 O565 2.439 . S
Cd561 O571 2.240 . S
Cd562 O563 2.240 . S
Cd562 O570 2.223 . S
Cd562 O572 2.297 . S
Cd562 O573 2.439 . S
O563 Cd562 2.240 . S
O563 C568 1.279 . S
O564 Cd561 2.297 . S
O564 C566 1.247 . S
O565 Cd561 2.439 . S
O565 C566 1.208 . S
C566 O564 1.247 . S
C566 O565 1.208 . S
C567 O572 1.247 . S
C567 O573 1.208 . S
C568 O560 1.315 . S
C568 O563 1.279 . S
C569 O570 1.315 . S
C569 O571 1.279 . S
O570 Cd562 2.223 . S
O570 C569 1.315 . S
O571 Cd561 2.240 . S
O571 C569 1.279 . S
O572 Cd562 2.297 . S
O572 C567 1.247 . S
O573 Cd562 2.439 . S
O573 C567 1.208 . S
O574 Cd575 2.223 . S
O574 C582 1.315 . S
Cd575 O574 2.223 . S
Cd575 O578 2.297 . S
Cd575 O579 2.439 . S
Cd575 O585 2.240 . S
Cd576 O577 2.240 . S
Cd576 O584 2.223 . S
Cd576 O586 2.297 . S
Cd576 O587 2.439 . S
O577 Cd576 2.240 . S
O577 C582 1.279 . S
O578 Cd575 2.297 . S
O578 C580 1.247 . S
O579 Cd575 2.439 . S
O579 C580 1.208 . S
C580 O578 1.247 . S
C580 O579 1.208 . S
C581 O586 1.247 . S
C581 O587 1.208 . S
C582 O574 1.315 . S
C582 O577 1.279 . S
C583 O584 1.315 . S
C583 O585 1.279 . S
O584 Cd576 2.223 . S
O584 C583 1.315 . S
O585 Cd575 2.240 . S
O585 C583 1.279 . S
O586 Cd576 2.297 . S
O586 C581 1.247 . S
O587 Cd576 2.439 . S
O587 C581 1.208 . S
O588 Cd589 2.223 . S
O588 C596 1.315 . S
Cd589 O588 2.223 . S
Cd589 O592 2.297 . S
Cd589 O593 2.439 . S
Cd589 O599 2.240 . S
Cd590 O591 2.240 . S
Cd590 O598 2.223 . S
Cd590 O600 2.297 . S
Cd590 O601 2.439 . S
O591 Cd590 2.240 . S
O591 C596 1.279 . S
O592 Cd589 2.297 . S
O592 C594 1.247 . S
O593 Cd589 2.439 . S
O593 C594 1.208 . S
C594 O592 1.247 . S
C594 O593 1.208 . S
C595 O600 1.247 . S
C595 O601 1.208 . S
C596 O588 1.315 . S
C596 O591 1.279 . S
C597 O598 1.315 . S
C597 O599 1.279 . S
O598 Cd590 2.223 . S
O598 C597 1.315 . S
O599 Cd589 2.240 . S
O599 C597 1.279 . S
O600 Cd590 2.297 . S
O600 C595 1.247 . S
O601 Cd590 2.439 . S
O601 C595 1.208 . S
O602 Cd603 2.223 . S
O602 C610 1.315 . S
Cd603 O602 2.223 . S
Cd603 O606 2.297 . S
Cd603 O607 2.439 . S
Cd603 O613 2.240 . S
Cd604 O605 2.240 . S
Cd604 O612 2.223 . S
Cd604 O614 2.297 . S
Cd604 O615 2.439 . S
O605 Cd604 2.240 . S
O605 C610 1.279 . S
O606 Cd603 2.297 . S
O606 C608 1.247 . S
O607 Cd603 2.439 . S
O607 C608 1.208 . S
C608 O606 1.247 . S
C608 O607 1.208 . S
C609 O614 1.247 . S
C609 O615 1.208 . S
C610 O602 1.315 . S
C610 O605 1.279 . S
C611 O612 1.315 . S
C611 O613 1.279 . S
O612 Cd604 2.223 . S
O612 C611 1.315 . S
O613 Cd603 2.240 . S
O613 C611 1.279 . S
O614 Cd604 2.297 . S
O614 C609 1.247 . S
O615 Cd604 2.439 . S
O615 C609 1.208 . S
O616 Cd617 2.223 . S
O616 C624 1.315 . S
Cd617 O616 2.223 . S
Cd617 O620 2.297 . S
Cd617 O621 2.439 . S
Cd617 O627 2.240 . S
Cd618 O619 2.240 . S
Cd618 O626 2.223 . S
Cd618 O628 2.297 . S
Cd618 O629 2.439 . S
O619 Cd618 2.240 . S
O619 C624 1.279 . S
O620 Cd617 2.297 . S
O620 C622 1.247 . S
O621 Cd617 2.439 . S
O621 C622 1.208 . S
C622 O620 1.247 . S
C622 O621 1.208 . S
C623 O628 1.247 . S
C623 O629 1.208 . S
C624 O616 1.315 . S
C624 O619 1.279 . S
C625 O626 1.315 . S
C625 O627 1.279 . S
O626 Cd618 2.223 . S
O626 C625 1.315 . S
O627 Cd617 2.240 . S
O627 C625 1.279 . S
O628 Cd618 2.297 . S
O628 C623 1.247 . S
O629 Cd618 2.439 . S
O629 C623 1.208 . S
O630 Cd631 2.223 . S
O630 C638 1.315 . S
Cd631 O630 2.223 . S
Cd631 O634 2.297 . S
Cd631 O635 2.439 . S
Cd631 O641 2.240 . S
Cd632 O633 2.240 . S
Cd632 O640 2.223 . S
Cd632 O642 2.297 . S
Cd632 O643 2.439 . S
O633 Cd632 2.240 . S
O633 C638 1.279 . S
O634 Cd631 2.297 . S
O634 C636 1.247 . S
O635 Cd631 2.439 . S
O635 C636 1.208 . S
C636 O634 1.247 . S
C636 O635 1.208 . S
C637 O642 1.247 . S
C637 O643 1.208 . S
C638 O630 1.315 . S
C638 O633 1.279 . S
C639 O640 1.315 . S
C639 O641 1.279 . S
O640 Cd632 2.223 . S
O640 C639 1.315 . S
O641 Cd631 2.240 . S
O641 C639 1.279 . S
O642 Cd632 2.297 . S
O642 C637 1.247 . S
O643 Cd632 2.439 . S
O643 C637 1.208 . S
O644 Cd645 2.223 . S
O644 C652 1.315 . S
Cd645 O644 2.223 . S
Cd645 O648 2.297 . S
Cd645 O649 2.439 . S
Cd645 O655 2.240 . S
Cd646 O647 2.240 . S
Cd646 O654 2.223 . S
Cd646 O656 2.297 . S
Cd646 O657 2.439 . S
O647 Cd646 2.240 . S
O647 C652 1.279 . S
O648 Cd645 2.297 . S
O648 C650 1.247 . S
O649 Cd645 2.439 . S
O649 C650 1.208 . S
C650 O648 1.247 . S
C650 O649 1.208 . S
C651 O656 1.247 . S
C651 O657 1.208 . S
C652 O644 1.315 . S
C652 O647 1.279 . S
C653 O654 1.315 . S
C653 O655 1.279 . S
O654 Cd646 2.223 . S
O654 C653 1.315 . S
O655 Cd645 2.240 . S
O655 C653 1.279 . S
O656 Cd646 2.297 . S
O656 C651 1.247 . S
O657 Cd646 2.439 . S
O657 C651 1.208 . S
O658 Cd659 2.223 . S
O658 C666 1.315 . S
Cd659 O658 2.223 . S
Cd659 O662 2.297 . S
Cd659 O663 2.439 . S
Cd659 O669 2.240 . S
Cd660 O661 2.240 . S
Cd660 O668 2.223 . S
Cd660 O670 2.297 . S
Cd660 O671 2.439 . S
O661 Cd660 2.240 . S
O661 C666 1.279 . S
O662 Cd659 2.297 . S
O662 C664 1.247 . S
O663 Cd659 2.439 . S
O663 C664 1.208 . S
C664 O662 1.247 . S
C664 O663 1.208 . S
C665 O670 1.247 . S
C665 O671 1.208 . S
C666 O658 1.315 . S
C666 O661 1.279 . S
C667 O668 1.315 . S
C667 O669 1.279 . S
O668 Cd660 2.223 . S
O668 C667 1.315 . S
O669 Cd659 2.240 . S
O669 C667 1.279 . S
O670 Cd660 2.297 . S
O670 C665 1.247 . S
O671 Cd660 2.439 . S
O671 C665 1.208 . S
C672 C673 1.369 1_455 S
C672 C674 1.419 . S
C672 H676 0.930 . S
C673 C672 1.369 1_655 S
C673 C682 1.429 . S
C674 C672 1.419 . S
C674 C675 1.363 . S
C674 H677 0.929 . S
C675 C674 1.363 . S
C675 C681 1.428 1_455 S
H676 C672 0.930 . S
H677 C674 0.929 . S
S678 N679 1.613 . S
S678 N680 1.610 . S
N679 S678 1.613 . S
N679 C682 1.350 . S
N680 S678 1.610 . S
N680 C681 1.351 . S
C681 C675 1.428 1_655 S
C681 N680 1.351 . S
C681 C682 1.434 . S
C682 C673 1.429 . S
C682 N679 1.350 . S
C682 C681 1.434 . S
C683 C684 1.369 . S
C683 C685 1.419 1_565 S
C683 H687 0.930 . S
C684 C683 1.369 . S
C684 C693 1.429 . S
C685 C683 1.419 1_545 S
C685 C686 1.363 . S
C685 H688 0.929 . S
C686 C685 1.363 . S
C686 C692 1.428 . S
H687 C683 0.930 . S
H688 C685 0.929 . S
S689 N690 1.613 1_545 S
S689 N691 1.610 . S
N690 S689 1.613 1_565 S
N690 C693 1.350 . S
N691 S689 1.610 . S
N691 C692 1.351 . S
C692 C686 1.428 . S
C692 N691 1.351 . S
C692 C693 1.434 1_545 S
C693 C684 1.429 . S
C693 N690 1.350 . S
C693 C692 1.434 1_565 S
C694 C695 1.369 . S
C694 C696 1.419 . S
C694 H698 0.930 . S
C695 C694 1.369 . S
C695 C704 1.429 1_455 S
C696 C694 1.419 . S
C696 C697 1.363 1_455 S
C696 H699 0.929 . S
C697 C696 1.363 1_655 S
C697 C703 1.428 . S
H698 C694 0.930 . S
H699 C696 0.929 . S
S700 N701 1.613 . S
S700 N702 1.610 . S
N701 S700 1.613 . S
N701 C704 1.350 . S
N702 S700 1.610 . S
N702 C703 1.351 . S
C703 C697 1.428 . S
C703 N702 1.351 . S
C703 C704 1.434 . S
C704 C695 1.429 1_655 S
C704 N701 1.350 . S
C704 C703 1.434 . S
C705 C706 1.369 . S
C705 C707 1.419 . S
C705 H709 0.930 . S
C706 C705 1.369 . S
C706 C715 1.429 1_565 S
C707 C705 1.419 . S
C707 C708 1.363 1_565 S
C707 H710 0.929 . S
C708 C707 1.363 1_545 S
C708 C714 1.428 . S
H709 C705 0.930 . S
H710 C707 0.929 . S
S711 N712 1.613 . S
S711 N713 1.610 . S
N712 S711 1.613 . S
N712 C715 1.350 . S
N713 S711 1.610 . S
N713 C714 1.351 . S
C714 C708 1.428 . S
C714 N713 1.351 . S
C714 C715 1.434 . S
C715 C706 1.429 1_545 S
C715 N712 1.350 . S
C715 C714 1.434 . S
C716 C717 1.369 . S
C716 C718 1.419 . S
C716 H720 0.930 . S
C717 C716 1.369 . S
C717 C726 1.429 1_655 S
C718 C716 1.419 . S
C718 C719 1.363 1_655 S
C718 H721 0.929 . S
C719 C718 1.363 1_455 S
C719 C725 1.428 . S
H720 C716 0.930 . S
H721 C718 0.929 . S
S722 N723 1.613 . S
S722 N724 1.610 . S
N723 S722 1.613 . S
N723 C726 1.350 . S
N724 S722 1.610 . S
N724 C725 1.351 . S
C725 C719 1.428 . S
C725 N724 1.351 . S
C725 C726 1.434 . S
C726 C717 1.429 1_455 S
C726 N723 1.350 . S
C726 C725 1.434 . S
C727 C728 1.369 1_565 S
C727 C729 1.419 . S
C727 H731 0.930 . S
C728 C727 1.369 1_545 S
C728 C737 1.429 . S
C729 C727 1.419 . S
C729 C730 1.363 . S
C729 H732 0.929 . S
C730 C729 1.363 . S
C730 C736 1.428 1_565 S
H731 C727 0.930 . S
H732 C729 0.929 . S
S733 N734 1.613 . S
S733 N735 1.610 . S
N734 S733 1.613 . S
N734 C737 1.350 . S
N735 S733 1.610 . S
N735 C736 1.351 . S
C736 C730 1.428 1_545 S
C736 N735 1.351 . S
C736 C737 1.434 . S
C737 C728 1.429 . S
C737 N734 1.350 . S
C737 C736 1.434 . S
C738 C739 1.369 . S
C738 C740 1.419 . S
C738 H742 0.930 . S
C739 C738 1.369 . S
C739 C748 1.429 1_455 S
C740 C738 1.419 . S
C740 C741 1.363 1_455 S
C740 H743 0.929 . S
C741 C740 1.363 1_655 S
C741 C747 1.428 . S
H742 C738 0.930 . S
H743 C740 0.929 . S
S744 N745 1.613 . S
S744 N746 1.610 . S
N745 S744 1.613 . S
N745 C748 1.350 . S
N746 S744 1.610 . S
N746 C747 1.351 . S
C747 C741 1.428 . S
C747 N746 1.351 . S
C747 C748 1.434 . S
C748 C739 1.429 1_655 S
C748 N745 1.350 . S
C748 C747 1.434 . S
C749 C750 1.369 . S
C749 C751 1.419 . S
C749 H753 0.930 . S
C750 C749 1.369 . S
C750 C759 1.429 1_545 S
C751 C749 1.419 . S
C751 C752 1.363 1_545 S
C751 H754 0.929 . S
C752 C751 1.363 1_565 S
C752 C758 1.428 . S
H753 C749 0.930 . S
H754 C751 0.929 . S
S755 N756 1.613 . S
S755 N757 1.610 . S
N756 S755 1.613 . S
N756 C759 1.350 . S
N757 S755 1.610 . S
N757 C758 1.351 . S
C758 C752 1.428 . S
C758 N757 1.351 . S
C758 C759 1.434 . S
C759 C750 1.429 1_565 S
C759 N756 1.350 . S
C759 C758 1.434 . S
C760 C761 1.369 . S
C760 C762 1.419 1_554 S
C760 H764 0.930 . S
C761 C760 1.369 . S
C761 C770 1.429 . S
C762 C760 1.419 1_556 S
C762 C763 1.363 . S
C762 H765 0.929 . S
C763 C762 1.363 . S
C763 C769 1.428 . S
H764 C760 0.930 . S
H765 C762 0.929 . S
S766 N767 1.613 . S
S766 N768 1.610 1_554 S
N767 S766 1.613 . S
N767 C770 1.350 . S
N768 S766 1.610 1_556 S
N768 C769 1.351 . S
C769 C763 1.428 . S
C769 N768 1.351 . S
C769 C770 1.434 1_556 S
C770 C761 1.429 . S
C770 N767 1.350 . S
C770 C769 1.434 1_554 S
C771 C772 1.369 . S
C771 C773 1.419 . S
C771 H775 0.930 . S
C772 C771 1.369 . S
C772 C781 1.429 1_556 S
C773 C771 1.419 . S
C773 C774 1.363 1_556 S
C773 H776 0.929 . S
C774 C773 1.363 1_554 S
C774 C780 1.428 . S
H775 C771 0.930 . S
H776 C773 0.929 . S
S777 N778 1.613 . S
S777 N779 1.610 . S
N778 S777 1.613 . S
N778 C781 1.350 . S
N779 S777 1.610 . S
N779 C780 1.351 . S
C780 C774 1.428 . S
C780 N779 1.351 . S
C780 C781 1.434 . S
C781 C772 1.429 1_554 S
C781 N778 1.350 . S
C781 C780 1.434 . S
C782 C783 1.369 . S
C782 C784 1.419 . S
C782 H786 0.930 . S
C783 C782 1.369 . S
C783 C792 1.429 1_556 S
C784 C782 1.419 . S
C784 C785 1.363 1_556 S
C784 H787 0.929 . S
C785 C784 1.363 1_554 S
C785 C791 1.428 . S
H786 C782 0.930 . S
H787 C784 0.929 . S
S788 N789 1.613 . S
S788 N790 1.610 . S
N789 S788 1.613 . S
N789 C792 1.350 . S
N790 S788 1.610 . S
N790 C791 1.351 . S
C791 C785 1.428 . S
C791 N790 1.351 . S
C791 C792 1.434 . S
C792 C783 1.429 1_554 S
C792 N789 1.350 . S
C792 C791 1.434 . S
C793 C794 1.369 1_554 S
C793 C795 1.419 . S
C793 H797 0.930 . S
C794 C793 1.369 1_556 S
C794 C803 1.429 . S
C795 C793 1.419 . S
C795 C796 1.363 . S
C795 H798 0.929 . S
C796 C795 1.363 . S
C796 C802 1.428 1_554 S
H797 C793 0.930 . S
H798 C795 0.929 . S
S799 N800 1.613 . S
S799 N801 1.610 . S
N800 S799 1.613 . S
N800 C803 1.350 . S
N801 S799 1.610 . S
N801 C802 1.351 . S
C802 C796 1.428 1_556 S
C802 N801 1.351 . S
C802 C803 1.434 . S
C803 C794 1.429 . S
C803 N800 1.350 . S
C803 C802 1.434 . S
C804 C805 1.369 . S
C804 C806 1.419 . S
C804 H808 0.930 . S
C805 C804 1.369 . S
C805 C814 1.429 . S
C806 C804 1.419 . S
C806 C807 1.363 . S
C806 H809 0.929 . S
C807 C806 1.363 . S
C807 C813 1.428 . S
H808 C804 0.930 . S
H809 C806 0.929 . S
S810 N811 1.613 . S
S810 N812 1.610 . S
N811 S810 1.613 . S
N811 C814 1.350 . S
N812 S810 1.610 . S
N812 C813 1.351 . S
C813 C807 1.428 . S
C813 N812 1.351 . S
C813 C814 1.434 . S
C814 C805 1.429 . S
C814 N811 1.350 . S
C814 C813 1.434 . S
C815 C816 1.369 . S
C815 C817 1.419 . S
C815 H819 0.930 . S
C816 C815 1.369 . S
C816 C825 1.429 . S
C817 C815 1.419 . S
C817 C818 1.363 . S
C817 H820 0.929 . S
C818 C817 1.363 . S
C818 C824 1.428 . S
H819 C815 0.930 . S
H820 C817 0.929 . S
S821 N822 1.613 . S
S821 N823 1.610 . S
N822 S821 1.613 . S
N822 C825 1.350 . S
N823 S821 1.610 . S
N823 C824 1.351 . S
C824 C818 1.428 . S
C824 N823 1.351 . S
C824 C825 1.434 . S
C825 C816 1.429 . S
C825 N822 1.350 . S
C825 C824 1.434 . S
C826 C827 1.369 . S
C826 C828 1.419 . S
C826 H830 0.930 . S
C827 C826 1.369 . S
C827 C836 1.429 . S
C828 C826 1.419 . S
C828 C829 1.363 . S
C828 H831 0.929 . S
C829 C828 1.363 . S
C829 C835 1.428 . S
H830 C826 0.930 . S
H831 C828 0.929 . S
S832 N833 1.613 . S
S832 N834 1.610 . S
N833 S832 1.613 . S
N833 C836 1.350 . S
N834 S832 1.610 . S
N834 C835 1.351 . S
C835 C829 1.428 . S
C835 N834 1.351 . S
C835 C836 1.434 . S
C836 C827 1.429 . S
C836 N833 1.350 . S
C836 C835 1.434 . S
C837 C838 1.369 . S
C837 C839 1.419 . S
C837 H841 0.930 . S
C838 C837 1.369 . S
C838 C847 1.429 . S
C839 C837 1.419 . S
C839 C840 1.363 . S
C839 H842 0.929 . S
C840 C839 1.363 . S
C840 C846 1.428 . S
H841 C837 0.930 . S
H842 C839 0.929 . S
S843 N844 1.613 . S
S843 N845 1.610 . S
N844 S843 1.613 . S
N844 C847 1.350 . S
N845 S843 1.610 . S
N845 C846 1.351 . S
C846 C840 1.428 . S
C846 N845 1.351 . S
C846 C847 1.434 . S
C847 C838 1.429 . S
C847 N844 1.350 . S
C847 C846 1.434 . S
C848 C849 1.369 . S
C848 C850 1.419 . S
C848 H852 0.930 . S
C849 C848 1.369 . S
C849 C858 1.429 . S
C850 C848 1.419 . S
C850 C851 1.363 . S
C850 H853 0.929 . S
C851 C850 1.363 . S
C851 C857 1.428 . S
H852 C848 0.930 . S
H853 C850 0.929 . S
S854 N855 1.613 . S
S854 N856 1.610 . S
N855 S854 1.613 . S
N855 C858 1.350 . S
N856 S854 1.610 . S
N856 C857 1.351 . S
C857 C851 1.428 . S
C857 N856 1.351 . S
C857 C858 1.434 . S
C858 C849 1.429 . S
C858 N855 1.350 . S
C858 C857 1.434 . S
C859 C860 1.369 . S
C859 C861 1.419 . S
C859 H863 0.930 . S
C860 C859 1.369 . S
C860 C869 1.429 . S
C861 C859 1.419 . S
C861 C862 1.363 . S
C861 H864 0.929 . S
C862 C861 1.363 . S
C862 C868 1.428 . S
H863 C859 0.930 . S
H864 C861 0.929 . S
S865 N866 1.613 . S
S865 N867 1.610 . S
N866 S865 1.613 . S
N866 C869 1.350 . S
N867 S865 1.610 . S
N867 C868 1.351 . S
C868 C862 1.428 . S
C868 N867 1.351 . S
C868 C869 1.434 . S
C869 C860 1.429 . S
C869 N866 1.350 . S
C869 C868 1.434 . S
C870 C871 1.369 . S
C870 C872 1.419 . S
C870 H874 0.930 . S
C871 C870 1.369 . S
C871 C880 1.429 . S
C872 C870 1.419 . S
C872 C873 1.363 . S
C872 H875 0.929 . S
C873 C872 1.363 . S
C873 C879 1.428 . S
H874 C870 0.930 . S
H875 C872 0.929 . S
S876 N877 1.613 . S
S876 N878 1.610 . S
N877 S876 1.613 . S
N877 C880 1.350 . S
N878 S876 1.610 . S
N878 C879 1.351 . S
C879 C873 1.428 . S
C879 N878 1.351 . S
C879 C880 1.434 . S
C880 C871 1.429 . S
C880 N877 1.350 . S
C880 C879 1.434 . S
C881 C882 1.369 . S
C881 C883 1.419 . S
C881 H885 0.930 . S
C882 C881 1.369 . S
C882 C891 1.429 . S
C883 C881 1.419 . S
C883 C884 1.363 . S
C883 H886 0.929 . S
C884 C883 1.363 . S
C884 C890 1.428 . S
H885 C881 0.930 . S
H886 C883 0.929 . S
S887 N888 1.613 . S
S887 N889 1.610 . S
N888 S887 1.613 . S
N888 C891 1.350 . S
N889 S887 1.610 . S
N889 C890 1.351 . S
C890 C884 1.428 . S
C890 N889 1.351 . S
C890 C891 1.434 . S
C891 C882 1.429 . S
C891 N888 1.350 . S
C891 C890 1.434 . S
C892 C893 1.369 . S
C892 C894 1.419 . S
C892 H896 0.930 . S
C893 C892 1.369 . S
C893 C902 1.429 . S
C894 C892 1.419 . S
C894 C895 1.363 . S
C894 H897 0.929 . S
C895 C894 1.363 . S
C895 C901 1.428 . S
H896 C892 0.930 . S
H897 C894 0.929 . S
S898 N899 1.613 . S
S898 N900 1.610 . S
N899 S898 1.613 . S
N899 C902 1.350 . S
N900 S898 1.610 . S
N900 C901 1.351 . S
C901 C895 1.428 . S
C901 N900 1.351 . S
C901 C902 1.434 . S
C902 C893 1.429 . S
C902 N899 1.350 . S
C902 C901 1.434 . S
C903 C904 1.369 . S
C903 C905 1.419 . S
C903 H907 0.930 . S
C904 C903 1.369 . S
C904 C913 1.429 . S
C905 C903 1.419 . S
C905 C906 1.363 . S
C905 H908 0.929 . S
C906 C905 1.363 . S
C906 C912 1.428 . S
H907 C903 0.930 . S
H908 C905 0.929 . S
S909 N910 1.613 . S
S909 N911 1.610 . S
N910 S909 1.613 . S
N910 C913 1.350 . S
N911 S909 1.610 . S
N911 C912 1.351 . S
C912 C906 1.428 . S
C912 N911 1.351 . S
C912 C913 1.434 . S
C913 C904 1.429 . S
C913 N910 1.350 . S
C913 C912 1.434 . S
C914 C915 1.369 . S
C914 C916 1.419 . S
C914 H918 0.930 . S
C915 C914 1.369 . S
C915 C924 1.429 . S
C916 C914 1.419 . S
C916 C917 1.363 . S
C916 H919 0.929 . S
C917 C916 1.363 . S
C917 C923 1.428 . S
H918 C914 0.930 . S
H919 C916 0.929 . S
S920 N921 1.613 . S
S920 N922 1.610 . S
N921 S920 1.613 . S
N921 C924 1.350 . S
N922 S920 1.610 . S
N922 C923 1.351 . S
C923 C917 1.428 . S
C923 N922 1.351 . S
C923 C924 1.434 . S
C924 C915 1.429 . S
C924 N921 1.350 . S
C924 C923 1.434 . S
C925 C926 1.369 . S
C925 C927 1.419 . S
C925 H929 0.930 . S
C926 C925 1.369 . S
C926 C935 1.429 . S
C927 C925 1.419 . S
C927 C928 1.363 . S
C927 H930 0.929 . S
C928 C927 1.363 . S
C928 C934 1.428 . S
H929 C925 0.930 . S
H930 C927 0.929 . S
S931 N932 1.613 . S
S931 N933 1.610 . S
N932 S931 1.613 . S
N932 C935 1.350 . S
N933 S931 1.610 . S
N933 C934 1.351 . S
C934 C928 1.428 . S
C934 N933 1.351 . S
C934 C935 1.434 . S
C935 C926 1.429 . S
C935 N932 1.350 . S
C935 C934 1.434 . S
C936 C937 1.369 . S
C936 C938 1.419 . S
C936 H940 0.930 . S
C937 C936 1.369 . S
C937 C946 1.429 . S
C938 C936 1.419 . S
C938 C939 1.363 . S
C938 H941 0.929 . S
C939 C938 1.363 . S
C939 C945 1.428 . S
H940 C936 0.930 . S
H941 C938 0.929 . S
S942 N943 1.613 . S
S942 N944 1.610 . S
N943 S942 1.613 . S
N943 C946 1.350 . S
N944 S942 1.610 . S
N944 C945 1.351 . S
C945 C939 1.428 . S
C945 N944 1.351 . S
C945 C946 1.434 . S
C946 C937 1.429 . S
C946 N943 1.350 . S
C946 C945 1.434 . S
C947 C948 1.369 . S
C947 C949 1.419 . S
C947 H951 0.930 . S
C948 C947 1.369 . S
C948 C957 1.429 . S
C949 C947 1.419 . S
C949 C950 1.363 . S
C949 H952 0.929 . S
C950 C949 1.363 . S
C950 C956 1.428 . S
H951 C947 0.930 . S
H952 C949 0.929 . S
S953 N954 1.613 . S
S953 N955 1.610 . S
N954 S953 1.613 . S
N954 C957 1.350 . S
N955 S953 1.610 . S
N955 C956 1.351 . S
C956 C950 1.428 . S
C956 N955 1.351 . S
C956 C957 1.434 . S
C957 C948 1.429 . S
C957 N954 1.350 . S
C957 C956 1.434 . S
C958 C959 1.369 . S
C958 C960 1.419 . S
C958 H962 0.930 . S
C959 C958 1.369 . S
C959 C968 1.429 . S
C960 C958 1.419 . S
C960 C961 1.363 . S
C960 H963 0.929 . S
C961 C960 1.363 . S
C961 C967 1.428 . S
H962 C958 0.930 . S
H963 C960 0.929 . S
S964 N965 1.613 . S
S964 N966 1.610 . S
N965 S964 1.613 . S
N965 C968 1.350 . S
N966 S964 1.610 . S
N966 C967 1.351 . S
C967 C961 1.428 . S
C967 N966 1.351 . S
C967 C968 1.434 . S
C968 C959 1.429 . S
C968 N965 1.350 . S
C968 C967 1.434 . S
C969 C970 1.369 . S
C969 C971 1.419 . S
C969 H973 0.930 . S
C970 C969 1.369 . S
C970 C979 1.429 . S
C971 C969 1.419 . S
C971 C972 1.363 . S
C971 H974 0.929 . S
C972 C971 1.363 . S
C972 C978 1.428 . S
H973 C969 0.930 . S
H974 C971 0.929 . S
S975 N976 1.613 . S
S975 N977 1.610 . S
N976 S975 1.613 . S
N976 C979 1.350 . S
N977 S975 1.610 . S
N977 C978 1.351 . S
C978 C972 1.428 . S
C978 N977 1.351 . S
C978 C979 1.434 . S
C979 C970 1.429 . S
C979 N976 1.350 . S
C979 C978 1.434 . S
C980 C981 1.369 . S
C980 C982 1.419 . S
C980 H984 0.930 . S
C981 C980 1.369 . S
C981 C990 1.429 . S
C982 C980 1.419 . S
C982 C983 1.363 . S
C982 H985 0.929 . S
C983 C982 1.363 . S
C983 C989 1.428 . S
H984 C980 0.930 . S
H985 C982 0.929 . S
S986 N987 1.613 . S
S986 N988 1.610 . S
N987 S986 1.613 . S
N987 C990 1.350 . S
N988 S986 1.610 . S
N988 C989 1.351 . S
C989 C983 1.428 . S
C989 N988 1.351 . S
C989 C990 1.434 . S
C990 C981 1.429 . S
C990 N987 1.350 . S
C990 C989 1.434 . S
C991 C992 1.369 . S
C991 C993 1.419 . S
C991 H995 0.930 . S
C992 C991 1.369 . S
C992 C1001 1.429 . S
C993 C991 1.419 . S
C993 C994 1.363 . S
C993 H996 0.929 . S
C994 C993 1.363 . S
C994 C1000 1.428 . S
H995 C991 0.930 . S
H996 C993 0.929 . S
S997 N998 1.613 . S
S997 N999 1.610 . S
N998 S997 1.613 . S
N998 C1001 1.350 . S
N999 S997 1.610 . S
N999 C1000 1.351 . S
C1000 C994 1.428 . S
C1000 N999 1.351 . S
C1000 C1001 1.434 . S
C1001 C992 1.429 . S
C1001 N998 1.350 . S
C1001 C1000 1.434 . S
C1002 C1003 1.369 . S
C1002 C1004 1.419 . S
C1002 H1006 0.930 . S
C1003 C1002 1.369 . S
C1003 C1012 1.429 . S
C1004 C1002 1.419 . S
C1004 C1005 1.363 . S
C1004 H1007 0.929 . S
C1005 C1004 1.363 . S
C1005 C1011 1.428 . S
H1006 C1002 0.930 . S
H1007 C1004 0.929 . S
S1008 N1009 1.613 . S
S1008 N1010 1.610 . S
N1009 S1008 1.613 . S
N1009 C1012 1.350 . S
N1010 S1008 1.610 . S
N1010 C1011 1.351 . S
C1011 C1005 1.428 . S
C1011 N1010 1.351 . S
C1011 C1012 1.434 . S
C1012 C1003 1.429 . S
C1012 N1009 1.350 . S
C1012 C1011 1.434 . S
C1013 C1014 1.369 . S
C1013 C1015 1.419 . S
C1013 H1017 0.930 . S
C1014 C1013 1.369 . S
C1014 C1023 1.429 . S
C1015 C1013 1.419 . S
C1015 C1016 1.363 . S
C1015 H1018 0.929 . S
C1016 C1015 1.363 . S
C1016 C1022 1.428 . S
H1017 C1013 0.930 . S
H1018 C1015 0.929 . S
S1019 N1020 1.613 . S
S1019 N1021 1.610 . S
N1020 S1019 1.613 . S
N1020 C1023 1.350 . S
N1021 S1019 1.610 . S
N1021 C1022 1.351 . S
C1022 C1016 1.428 . S
C1022 N1021 1.351 . S
C1022 C1023 1.434 . S
C1023 C1014 1.429 . S
C1023 N1020 1.350 . S
C1023 C1022 1.434 . S
C1024 C1025 1.369 . S
C1024 C1026 1.419 . S
C1024 H1028 0.930 . S
C1025 C1024 1.369 . S
C1025 C1034 1.429 . S
C1026 C1024 1.419 . S
C1026 C1027 1.363 . S
C1026 H1029 0.929 . S
C1027 C1026 1.363 . S
C1027 C1033 1.428 . S
H1028 C1024 0.930 . S
H1029 C1026 0.929 . S
S1030 N1031 1.613 . S
S1030 N1032 1.610 . S
N1031 S1030 1.613 . S
N1031 C1034 1.350 . S
N1032 S1030 1.610 . S
N1032 C1033 1.351 . S
C1033 C1027 1.428 . S
C1033 N1032 1.351 . S
C1033 C1034 1.434 . S
C1034 C1025 1.429 . S
C1034 N1031 1.350 . S
C1034 C1033 1.434 . S
C1035 C1036 1.369 . S
C1035 C1037 1.419 . S
C1035 H1039 0.930 . S
C1036 C1035 1.369 . S
C1036 C1045 1.429 . S
C1037 C1035 1.419 . S
C1037 C1038 1.363 . S
C1037 H1040 0.929 . S
C1038 C1037 1.363 . S
C1038 C1044 1.428 . S
H1039 C1035 0.930 . S
H1040 C1037 0.929 . S
S1041 N1042 1.613 . S
S1041 N1043 1.610 . S
N1042 S1041 1.613 . S
N1042 C1045 1.350 . S
N1043 S1041 1.610 . S
N1043 C1044 1.351 . S
C1044 C1038 1.428 . S
C1044 N1043 1.351 . S
C1044 C1045 1.434 . S
C1045 C1036 1.429 . S
C1045 N1042 1.350 . S
C1045 C1044 1.434 . S
C1046 C1047 1.369 . S
C1046 C1048 1.419 . S
C1046 H1050 0.930 . S
C1047 C1046 1.369 . S
C1047 C1056 1.429 . S
C1048 C1046 1.419 . S
C1048 C1049 1.363 . S
C1048 H1051 0.929 . S
C1049 C1048 1.363 . S
C1049 C1055 1.428 . S
H1050 C1046 0.930 . S
H1051 C1048 0.929 . S
S1052 N1053 1.613 . S
S1052 N1054 1.610 . S
N1053 S1052 1.613 . S
N1053 C1056 1.350 . S
N1054 S1052 1.610 . S
N1054 C1055 1.351 . S
C1055 C1049 1.428 . S
C1055 N1054 1.351 . S
C1055 C1056 1.434 . S
C1056 C1047 1.429 . S
C1056 N1053 1.350 . S
C1056 C1055 1.434 . S
C1057 C1058 1.369 . S
C1057 C1059 1.419 . S
C1057 H1061 0.930 . S
C1058 C1057 1.369 . S
C1058 C1067 1.429 . S
C1059 C1057 1.419 . S
C1059 C1060 1.363 . S
C1059 H1062 0.929 . S
C1060 C1059 1.363 . S
C1060 C1066 1.428 . S
H1061 C1057 0.930 . S
H1062 C1059 0.929 . S
S1063 N1064 1.613 . S
S1063 N1065 1.610 . S
N1064 S1063 1.613 . S
N1064 C1067 1.350 . S
N1065 S1063 1.610 . S
N1065 C1066 1.351 . S
C1066 C1060 1.428 . S
C1066 N1065 1.351 . S
C1066 C1067 1.434 . S
C1067 C1058 1.429 . S
C1067 N1064 1.350 . S
C1067 C1066 1.434 . S
C1068 C1069 1.369 . S
C1068 C1070 1.419 . S
C1068 H1072 0.930 . S
C1069 C1068 1.369 . S
C1069 C1078 1.429 . S
C1070 C1068 1.419 . S
C1070 C1071 1.363 . S
C1070 H1073 0.929 . S
C1071 C1070 1.363 . S
C1071 C1077 1.428 . S
H1072 C1068 0.930 . S
H1073 C1070 0.929 . S
S1074 N1075 1.613 . S
S1074 N1076 1.610 . S
N1075 S1074 1.613 . S
N1075 C1078 1.350 . S
N1076 S1074 1.610 . S
N1076 C1077 1.351 . S
C1077 C1071 1.428 . S
C1077 N1076 1.351 . S
C1077 C1078 1.434 . S
C1078 C1069 1.429 . S
C1078 N1075 1.350 . S
C1078 C1077 1.434 . S
C1079 C1080 1.369 . S
C1079 C1081 1.419 . S
C1079 H1083 0.930 . S
C1080 C1079 1.369 . S
C1080 C1089 1.429 . S
C1081 C1079 1.419 . S
C1081 C1082 1.363 . S
C1081 H1084 0.929 . S
C1082 C1081 1.363 . S
C1082 C1088 1.428 . S
H1083 C1079 0.930 . S
H1084 C1081 0.929 . S
S1085 N1086 1.613 . S
S1085 N1087 1.610 . S
N1086 S1085 1.613 . S
N1086 C1089 1.350 . S
N1087 S1085 1.610 . S
N1087 C1088 1.351 . S
C1088 C1082 1.428 . S
C1088 N1087 1.351 . S
C1088 C1089 1.434 . S
C1089 C1080 1.429 . S
C1089 N1086 1.350 . S
C1089 C1088 1.434 . S
C1090 C1091 1.369 . S
C1090 C1092 1.419 . S
C1090 H1094 0.930 . S
C1091 C1090 1.369 . S
C1091 C1100 1.429 . S
C1092 C1090 1.419 . S
C1092 C1093 1.363 . S
C1092 H1095 0.929 . S
C1093 C1092 1.363 . S
C1093 C1099 1.428 . S
H1094 C1090 0.930 . S
H1095 C1092 0.929 . S
S1096 N1097 1.613 . S
S1096 N1098 1.610 . S
N1097 S1096 1.613 . S
N1097 C1100 1.350 . S
N1098 S1096 1.610 . S
N1098 C1099 1.351 . S
C1099 C1093 1.428 . S
C1099 N1098 1.351 . S
C1099 C1100 1.434 . S
C1100 C1091 1.429 . S
C1100 N1097 1.350 . S
C1100 C1099 1.434 . S
C1101 C1102 1.369 . S
C1101 C1103 1.419 . S
C1101 H1105 0.930 . S
C1102 C1101 1.369 . S
C1102 C1111 1.429 . S
C1103 C1101 1.419 . S
C1103 C1104 1.363 . S
C1103 H1106 0.929 . S
C1104 C1103 1.363 . S
C1104 C1110 1.428 . S
H1105 C1101 0.930 . S
H1106 C1103 0.929 . S
S1107 N1108 1.613 . S
S1107 N1109 1.610 . S
N1108 S1107 1.613 . S
N1108 C1111 1.350 . S
N1109 S1107 1.610 . S
N1109 C1110 1.351 . S
C1110 C1104 1.428 . S
C1110 N1109 1.351 . S
C1110 C1111 1.434 . S
C1111 C1102 1.429 . S
C1111 N1108 1.350 . S
C1111 C1110 1.434 . S
C1112 C1113 1.369 . S
C1112 C1114 1.419 . S
C1112 H1116 0.930 . S
C1113 C1112 1.369 . S
C1113 C1122 1.429 . S
C1114 C1112 1.419 . S
C1114 C1115 1.363 . S
C1114 H1117 0.929 . S
C1115 C1114 1.363 . S
C1115 C1121 1.428 . S
H1116 C1112 0.930 . S
H1117 C1114 0.929 . S
S1118 N1119 1.613 . S
S1118 N1120 1.610 . S
N1119 S1118 1.613 . S
N1119 C1122 1.350 . S
N1120 S1118 1.610 . S
N1120 C1121 1.351 . S
C1121 C1115 1.428 . S
C1121 N1120 1.351 . S
C1121 C1122 1.434 . S
C1122 C1113 1.429 . S
C1122 N1119 1.350 . S
C1122 C1121 1.434 . S
C1123 C1124 1.369 . S
C1123 C1125 1.419 . S
C1123 H1127 0.930 . S
C1124 C1123 1.369 . S
C1124 C1133 1.429 . S
C1125 C1123 1.419 . S
C1125 C1126 1.363 . S
C1125 H1128 0.929 . S
C1126 C1125 1.363 . S
C1126 C1132 1.428 . S
H1127 C1123 0.930 . S
H1128 C1125 0.929 . S
S1129 N1130 1.613 . S
S1129 N1131 1.610 . S
N1130 S1129 1.613 . S
N1130 C1133 1.350 . S
N1131 S1129 1.610 . S
N1131 C1132 1.351 . S
C1132 C1126 1.428 . S
C1132 N1131 1.351 . S
C1132 C1133 1.434 . S
C1133 C1124 1.429 . S
C1133 N1130 1.350 . S
C1133 C1132 1.434 . S
C1134 C1135 1.369 . S
C1134 C1136 1.419 . S
C1134 H1138 0.930 . S
C1135 C1134 1.369 . S
C1135 C1144 1.429 . S
C1136 C1134 1.419 . S
C1136 C1137 1.363 . S
C1136 H1139 0.929 . S
C1137 C1136 1.363 . S
C1137 C1143 1.428 . S
H1138 C1134 0.930 . S
H1139 C1136 0.929 . S
S1140 N1141 1.613 . S
S1140 N1142 1.610 . S
N1141 S1140 1.613 . S
N1141 C1144 1.350 . S
N1142 S1140 1.610 . S
N1142 C1143 1.351 . S
C1143 C1137 1.428 . S
C1143 N1142 1.351 . S
C1143 C1144 1.434 . S
C1144 C1135 1.429 . S
C1144 N1141 1.350 . S
C1144 C1143 1.434 . S
C1145 C1146 1.369 . S
C1145 C1147 1.419 . S
C1145 H1149 0.930 . S
C1146 C1145 1.369 . S
C1146 C1155 1.429 . S
C1147 C1145 1.419 . S
C1147 C1148 1.363 . S
C1147 H1150 0.929 . S
C1148 C1147 1.363 . S
C1148 C1154 1.428 . S
H1149 C1145 0.930 . S
H1150 C1147 0.929 . S
S1151 N1152 1.613 . S
S1151 N1153 1.610 . S
N1152 S1151 1.613 . S
N1152 C1155 1.350 . S
N1153 S1151 1.610 . S
N1153 C1154 1.351 . S
C1154 C1148 1.428 . S
C1154 N1153 1.351 . S
C1154 C1155 1.434 . S
C1155 C1146 1.429 . S
C1155 N1152 1.350 . S
C1155 C1154 1.434 . S
C1156 C1157 1.369 . S
C1156 C1158 1.419 . S
C1156 H1160 0.930 . S
C1157 C1156 1.369 . S
C1157 C1166 1.429 . S
C1158 C1156 1.419 . S
C1158 C1159 1.363 . S
C1158 H1161 0.929 . S
C1159 C1158 1.363 . S
C1159 C1165 1.428 . S
H1160 C1156 0.930 . S
H1161 C1158 0.929 . S
S1162 N1163 1.613 . S
S1162 N1164 1.610 . S
N1163 S1162 1.613 . S
N1163 C1166 1.350 . S
N1164 S1162 1.610 . S
N1164 C1165 1.351 . S
C1165 C1159 1.428 . S
C1165 N1164 1.351 . S
C1165 C1166 1.434 . S
C1166 C1157 1.429 . S
C1166 N1163 1.350 . S
C1166 C1165 1.434 . S
C1167 C1168 1.369 . S
C1167 C1169 1.419 . S
C1167 H1171 0.930 . S
C1168 C1167 1.369 . S
C1168 C1177 1.429 . S
C1169 C1167 1.419 . S
C1169 C1170 1.363 . S
C1169 H1172 0.929 . S
C1170 C1169 1.363 . S
C1170 C1176 1.428 . S
H1171 C1167 0.930 . S
H1172 C1169 0.929 . S
S1173 N1174 1.613 . S
S1173 N1175 1.610 . S
N1174 S1173 1.613 . S
N1174 C1177 1.350 . S
N1175 S1173 1.610 . S
N1175 C1176 1.351 . S
C1176 C1170 1.428 . S
C1176 N1175 1.351 . S
C1176 C1177 1.434 . S
C1177 C1168 1.429 . S
C1177 N1174 1.350 . S
C1177 C1176 1.434 . S
C1178 C1179 1.369 . S
C1178 C1180 1.419 . S
C1178 H1182 0.930 . S
C1179 C1178 1.369 . S
C1179 C1188 1.429 . S
C1180 C1178 1.419 . S
C1180 C1181 1.363 . S
C1180 H1183 0.929 . S
C1181 C1180 1.363 . S
C1181 C1187 1.428 . S
H1182 C1178 0.930 . S
H1183 C1180 0.929 . S
S1184 N1185 1.613 . S
S1184 N1186 1.610 . S
N1185 S1184 1.613 . S
N1185 C1188 1.350 . S
N1186 S1184 1.610 . S
N1186 C1187 1.351 . S
C1187 C1181 1.428 . S
C1187 N1186 1.351 . S
C1187 C1188 1.434 . S
C1188 C1179 1.429 . S
C1188 N1185 1.350 . S
C1188 C1187 1.434 . S
C1189 C1190 1.369 . S
C1189 C1191 1.419 . S
C1189 H1193 0.930 . S
C1190 C1189 1.369 . S
C1190 C1199 1.429 . S
C1191 C1189 1.419 . S
C1191 C1192 1.363 . S
C1191 H1194 0.929 . S
C1192 C1191 1.363 . S
C1192 C1198 1.428 . S
H1193 C1189 0.930 . S
H1194 C1191 0.929 . S
S1195 N1196 1.613 . S
S1195 N1197 1.610 . S
N1196 S1195 1.613 . S
N1196 C1199 1.350 . S
N1197 S1195 1.610 . S
N1197 C1198 1.351 . S
C1198 C1192 1.428 . S
C1198 N1197 1.351 . S
C1198 C1199 1.434 . S
C1199 C1190 1.429 . S
C1199 N1196 1.350 . S
C1199 C1198 1.434 . S
C1200 C1201 1.369 . S
C1200 C1202 1.419 . S
C1200 H1204 0.930 . S
C1201 C1200 1.369 . S
C1201 C1210 1.429 . S
C1202 C1200 1.419 . S
C1202 C1203 1.363 . S
C1202 H1205 0.929 . S
C1203 C1202 1.363 . S
C1203 C1209 1.428 . S
H1204 C1200 0.930 . S
H1205 C1202 0.929 . S
S1206 N1207 1.613 . S
S1206 N1208 1.610 . S
N1207 S1206 1.613 . S
N1207 C1210 1.350 . S
N1208 S1206 1.610 . S
N1208 C1209 1.351 . S
C1209 C1203 1.428 . S
C1209 N1208 1.351 . S
C1209 C1210 1.434 . S
C1210 C1201 1.429 . S
C1210 N1207 1.350 . S
C1210 C1209 1.434 . S
C1211 C1212 1.369 . S
C1211 C1213 1.419 . S
C1211 H1215 0.930 . S
C1212 C1211 1.369 . S
C1212 C1221 1.429 . S
C1213 C1211 1.419 . S
C1213 C1214 1.363 . S
C1213 H1216 0.929 . S
C1214 C1213 1.363 . S
C1214 C1220 1.428 . S
H1215 C1211 0.930 . S
H1216 C1213 0.929 . S
S1217 N1218 1.613 . S
S1217 N1219 1.610 . S
N1218 S1217 1.613 . S
N1218 C1221 1.350 . S
N1219 S1217 1.610 . S
N1219 C1220 1.351 . S
C1220 C1214 1.428 . S
C1220 N1219 1.351 . S
C1220 C1221 1.434 . S
C1221 C1212 1.429 . S
C1221 N1218 1.350 . S
C1221 C1220 1.434 . S
C1222 C1223 1.369 . S
C1222 C1224 1.419 . S
C1222 H1226 0.930 . S
C1223 C1222 1.369 . S
C1223 C1232 1.429 . S
C1224 C1222 1.419 . S
C1224 C1225 1.363 . S
C1224 H1227 0.929 . S
C1225 C1224 1.363 . S
C1225 C1231 1.428 . S
H1226 C1222 0.930 . S
H1227 C1224 0.929 . S
S1228 N1229 1.613 . S
S1228 N1230 1.610 . S
N1229 S1228 1.613 . S
N1229 C1232 1.350 . S
N1230 S1228 1.610 . S
N1230 C1231 1.351 . S
C1231 C1225 1.428 . S
C1231 N1230 1.351 . S
C1231 C1232 1.434 . S
C1232 C1223 1.429 . S
C1232 N1229 1.350 . S
C1232 C1231 1.434 . S
C1233 C1234 1.369 . S
C1233 C1235 1.419 . S
C1233 H1237 0.930 . S
C1234 C1233 1.369 . S
C1234 C1243 1.429 . S
C1235 C1233 1.419 . S
C1235 C1236 1.363 . S
C1235 H1238 0.929 . S
C1236 C1235 1.363 . S
C1236 C1242 1.428 . S
H1237 C1233 0.930 . S
H1238 C1235 0.929 . S
S1239 N1240 1.613 . S
S1239 N1241 1.610 . S
N1240 S1239 1.613 . S
N1240 C1243 1.350 . S
N1241 S1239 1.610 . S
N1241 C1242 1.351 . S
C1242 C1236 1.428 . S
C1242 N1241 1.351 . S
C1242 C1243 1.434 . S
C1243 C1234 1.429 . S
C1243 N1240 1.350 . S
C1243 C1242 1.434 . S
C1244 C1245 1.369 . S
C1244 C1246 1.419 . S
C1244 H1248 0.930 . S
C1245 C1244 1.369 . S
C1245 C1254 1.429 . S
C1246 C1244 1.419 . S
C1246 C1247 1.363 . S
C1246 H1249 0.929 . S
C1247 C1246 1.363 . S
C1247 C1253 1.428 . S
H1248 C1244 0.930 . S
H1249 C1246 0.929 . S
S1250 N1251 1.613 . S
S1250 N1252 1.610 . S
N1251 S1250 1.613 . S
N1251 C1254 1.350 . S
N1252 S1250 1.610 . S
N1252 C1253 1.351 . S
C1253 C1247 1.428 . S
C1253 N1252 1.351 . S
C1253 C1254 1.434 . S
C1254 C1245 1.429 . S
C1254 N1251 1.350 . S
C1254 C1253 1.434 . S
C1255 C1256 1.369 . S
C1255 C1257 1.419 . S
C1255 H1259 0.930 . S
C1256 C1255 1.369 . S
C1256 C1265 1.429 . S
C1257 C1255 1.419 . S
C1257 C1258 1.363 . S
C1257 H1260 0.929 . S
C1258 C1257 1.363 . S
C1258 C1264 1.428 . S
H1259 C1255 0.930 . S
H1260 C1257 0.929 . S
S1261 N1262 1.613 . S
S1261 N1263 1.610 . S
N1262 S1261 1.613 . S
N1262 C1265 1.350 . S
N1263 S1261 1.610 . S
N1263 C1264 1.351 . S
C1264 C1258 1.428 . S
C1264 N1263 1.351 . S
C1264 C1265 1.434 . S
C1265 C1256 1.429 . S
C1265 N1262 1.350 . S
C1265 C1264 1.434 . S
C1266 C1267 1.369 . S
C1266 C1268 1.419 . S
C1266 H1270 0.930 . S
C1267 C1266 1.369 . S
C1267 C1276 1.429 . S
C1268 C1266 1.419 . S
C1268 C1269 1.363 . S
C1268 H1271 0.929 . S
C1269 C1268 1.363 . S
C1269 C1275 1.428 . S
H1270 C1266 0.930 . S
H1271 C1268 0.929 . S
S1272 N1273 1.613 . S
S1272 N1274 1.610 . S
N1273 S1272 1.613 . S
N1273 C1276 1.350 . S
N1274 S1272 1.610 . S
N1274 C1275 1.351 . S
C1275 C1269 1.428 . S
C1275 N1274 1.351 . S
C1275 C1276 1.434 . S
C1276 C1267 1.429 . S
C1276 N1273 1.350 . S
C1276 C1275 1.434 . S
C1277 C1278 1.369 . S
C1277 C1279 1.419 . S
C1277 H1281 0.930 . S
C1278 C1277 1.369 . S
C1278 C1287 1.429 . S
C1279 C1277 1.419 . S
C1279 C1280 1.363 . S
C1279 H1282 0.929 . S
C1280 C1279 1.363 . S
C1280 C1286 1.428 . S
H1281 C1277 0.930 . S
H1282 C1279 0.929 . S
S1283 N1284 1.613 . S
S1283 N1285 1.610 . S
N1284 S1283 1.613 . S
N1284 C1287 1.350 . S
N1285 S1283 1.610 . S
N1285 C1286 1.351 . S
C1286 C1280 1.428 . S
C1286 N1285 1.351 . S
C1286 C1287 1.434 . S
C1287 C1278 1.429 . S
C1287 N1284 1.350 . S
C1287 C1286 1.434 . S
C1288 C1289 1.369 . S
C1288 C1290 1.419 . S
C1288 H1292 0.930 . S
C1289 C1288 1.369 . S
C1289 C1298 1.429 . S
C1290 C1288 1.419 . S
C1290 C1291 1.363 . S
C1290 H1293 0.929 . S
C1291 C1290 1.363 . S
C1291 C1297 1.428 . S
H1292 C1288 0.930 . S
H1293 C1290 0.929 . S
S1294 N1295 1.613 . S
S1294 N1296 1.610 . S
N1295 S1294 1.613 . S
N1295 C1298 1.350 . S
N1296 S1294 1.610 . S
N1296 C1297 1.351 . S
C1297 C1291 1.428 . S
C1297 N1296 1.351 . S
C1297 C1298 1.434 . S
C1298 C1289 1.429 . S
C1298 N1295 1.350 . S
C1298 C1297 1.434 . S
C1299 C1300 1.369 . S
C1299 C1301 1.419 . S
C1299 H1303 0.930 . S
C1300 C1299 1.369 . S
C1300 C1309 1.429 . S
C1301 C1299 1.419 . S
C1301 C1302 1.363 . S
C1301 H1304 0.929 . S
C1302 C1301 1.363 . S
C1302 C1308 1.428 . S
H1303 C1299 0.930 . S
H1304 C1301 0.929 . S
S1305 N1306 1.613 . S
S1305 N1307 1.610 . S
N1306 S1305 1.613 . S
N1306 C1309 1.350 . S
N1307 S1305 1.610 . S
N1307 C1308 1.351 . S
C1308 C1302 1.428 . S
C1308 N1307 1.351 . S
C1308 C1309 1.434 . S
C1309 C1300 1.429 . S
C1309 N1306 1.350 . S
C1309 C1308 1.434 . S
C1310 C1311 1.369 . S
C1310 C1312 1.419 . S
C1310 H1314 0.930 . S
C1311 C1310 1.369 . S
C1311 C1320 1.429 . S
C1312 C1310 1.419 . S
C1312 C1313 1.363 . S
C1312 H1315 0.929 . S
C1313 C1312 1.363 . S
C1313 C1319 1.428 . S
H1314 C1310 0.930 . S
H1315 C1312 0.929 . S
S1316 N1317 1.613 . S
S1316 N1318 1.610 . S
N1317 S1316 1.613 . S
N1317 C1320 1.350 . S
N1318 S1316 1.610 . S
N1318 C1319 1.351 . S
C1319 C1313 1.428 . S
C1319 N1318 1.351 . S
C1319 C1320 1.434 . S
C1320 C1311 1.429 . S
C1320 N1317 1.350 . S
C1320 C1319 1.434 . S
C1321 C1322 1.369 . S
C1321 C1323 1.419 . S
C1321 H1325 0.930 . S
C1322 C1321 1.369 . S
C1322 C1331 1.429 . S
C1323 C1321 1.419 . S
C1323 C1324 1.363 . S
C1323 H1326 0.929 . S
C1324 C1323 1.363 . S
C1324 C1330 1.428 . S
H1325 C1321 0.930 . S
H1326 C1323 0.929 . S
S1327 N1328 1.613 . S
S1327 N1329 1.610 . S
N1328 S1327 1.613 . S
N1328 C1331 1.350 . S
N1329 S1327 1.610 . S
N1329 C1330 1.351 . S
C1330 C1324 1.428 . S
C1330 N1329 1.351 . S
C1330 C1331 1.434 . S
C1331 C1322 1.429 . S
C1331 N1328 1.350 . S
C1331 C1330 1.434 . S
C1332 C1333 1.369 . S
C1332 C1334 1.419 . S
C1332 H1336 0.930 . S
C1333 C1332 1.369 . S
C1333 C1342 1.429 . S
C1334 C1332 1.419 . S
C1334 C1335 1.363 . S
C1334 H1337 0.929 . S
C1335 C1334 1.363 . S
C1335 C1341 1.428 . S
H1336 C1332 0.930 . S
H1337 C1334 0.929 . S
S1338 N1339 1.613 . S
S1338 N1340 1.610 . S
N1339 S1338 1.613 . S
N1339 C1342 1.350 . S
N1340 S1338 1.610 . S
N1340 C1341 1.351 . S
C1341 C1335 1.428 . S
C1341 N1340 1.351 . S
C1341 C1342 1.434 . S
C1342 C1333 1.429 . S
C1342 N1339 1.350 . S
C1342 C1341 1.434 . S
C1343 C1344 1.369 . S
C1343 C1345 1.419 . S
C1343 H1347 0.930 . S
C1344 C1343 1.369 . S
C1344 C1353 1.429 . S
C1345 C1343 1.419 . S
C1345 C1346 1.363 . S
C1345 H1348 0.929 . S
C1346 C1345 1.363 . S
C1346 C1352 1.428 . S
H1347 C1343 0.930 . S
H1348 C1345 0.929 . S
S1349 N1350 1.613 . S
S1349 N1351 1.610 . S
N1350 S1349 1.613 . S
N1350 C1353 1.350 . S
N1351 S1349 1.610 . S
N1351 C1352 1.351 . S
C1352 C1346 1.428 . S
C1352 N1351 1.351 . S
C1352 C1353 1.434 . S
C1353 C1344 1.429 . S
C1353 N1350 1.350 . S
C1353 C1352 1.434 . S
C1354 C1355 1.369 . S
C1354 C1356 1.419 . S
C1354 H1358 0.930 . S
C1355 C1354 1.369 . S
C1355 C1364 1.429 . S
C1356 C1354 1.419 . S
C1356 C1357 1.363 . S
C1356 H1359 0.929 . S
C1357 C1356 1.363 . S
C1357 C1363 1.428 . S
H1358 C1354 0.930 . S
H1359 C1356 0.929 . S
S1360 N1361 1.613 . S
S1360 N1362 1.610 . S
N1361 S1360 1.613 . S
N1361 C1364 1.350 . S
N1362 S1360 1.610 . S
N1362 C1363 1.351 . S
C1363 C1357 1.428 . S
C1363 N1362 1.351 . S
C1363 C1364 1.434 . S
C1364 C1355 1.429 . S
C1364 N1361 1.350 . S
C1364 C1363 1.434 . S
C1365 C1366 1.369 . S
C1365 C1367 1.419 . S
C1365 H1369 0.930 . S
C1366 C1365 1.369 . S
C1366 C1375 1.429 . S
C1367 C1365 1.419 . S
C1367 C1368 1.363 . S
C1367 H1370 0.929 . S
C1368 C1367 1.363 . S
C1368 C1374 1.428 . S
H1369 C1365 0.930 . S
H1370 C1367 0.929 . S
S1371 N1372 1.613 . S
S1371 N1373 1.610 . S
N1372 S1371 1.613 . S
N1372 C1375 1.350 . S
N1373 S1371 1.610 . S
N1373 C1374 1.351 . S
C1374 C1368 1.428 . S
C1374 N1373 1.351 . S
C1374 C1375 1.434 . S
C1375 C1366 1.429 . S
C1375 N1372 1.350 . S
C1375 C1374 1.434 . S
C1376 C1377 1.369 . S
C1376 C1378 1.419 . S
C1376 H1380 0.930 . S
C1377 C1376 1.369 . S
C1377 C1386 1.429 . S
C1378 C1376 1.419 . S
C1378 C1379 1.363 . S
C1378 H1381 0.929 . S
C1379 C1378 1.363 . S
C1379 C1385 1.428 . S
H1380 C1376 0.930 . S
H1381 C1378 0.929 . S
S1382 N1383 1.613 . S
S1382 N1384 1.610 . S
N1383 S1382 1.613 . S
N1383 C1386 1.350 . S
N1384 S1382 1.610 . S
N1384 C1385 1.351 . S
C1385 C1379 1.428 . S
C1385 N1384 1.351 . S
C1385 C1386 1.434 . S
C1386 C1377 1.429 . S
C1386 N1383 1.350 . S
C1386 C1385 1.434 . S
C1387 C1388 1.369 . S
C1387 C1389 1.419 . S
C1387 H1391 0.930 . S
C1388 C1387 1.369 . S
C1388 C1397 1.429 . S
C1389 C1387 1.419 . S
C1389 C1390 1.363 . S
C1389 H1392 0.929 . S
C1390 C1389 1.363 . S
C1390 C1396 1.428 . S
H1391 C1387 0.930 . S
H1392 C1389 0.929 . S
S1393 N1394 1.613 . S
S1393 N1395 1.610 . S
N1394 S1393 1.613 . S
N1394 C1397 1.350 . S
N1395 S1393 1.610 . S
N1395 C1396 1.351 . S
C1396 C1390 1.428 . S
C1396 N1395 1.351 . S
C1396 C1397 1.434 . S
C1397 C1388 1.429 . S
C1397 N1394 1.350 . S
C1397 C1396 1.434 . S
C1398 C1399 1.369 . S
C1398 C1400 1.419 . S
C1398 H1402 0.930 . S
C1399 C1398 1.369 . S
C1399 C1408 1.429 . S
C1400 C1398 1.419 . S
C1400 C1401 1.363 . S
C1400 H1403 0.929 . S
C1401 C1400 1.363 . S
C1401 C1407 1.428 . S
H1402 C1398 0.930 . S
H1403 C1400 0.929 . S
S1404 N1405 1.613 . S
S1404 N1406 1.610 . S
N1405 S1404 1.613 . S
N1405 C1408 1.350 . S
N1406 S1404 1.610 . S
N1406 C1407 1.351 . S
C1407 C1401 1.428 . S
C1407 N1406 1.351 . S
C1407 C1408 1.434 . S
C1408 C1399 1.429 . S
C1408 N1405 1.350 . S
C1408 C1407 1.434 . S
C1409 C1410 1.369 . S
C1409 C1411 1.419 . S
C1409 H1413 0.930 . S
C1410 C1409 1.369 . S
C1410 C1419 1.429 . S
C1411 C1409 1.419 . S
C1411 C1412 1.363 . S
C1411 H1414 0.929 . S
C1412 C1411 1.363 . S
C1412 C1418 1.428 . S
H1413 C1409 0.930 . S
H1414 C1411 0.929 . S
S1415 N1416 1.613 . S
S1415 N1417 1.610 . S
N1416 S1415 1.613 . S
N1416 C1419 1.350 . S
N1417 S1415 1.610 . S
N1417 C1418 1.351 . S
C1418 C1412 1.428 . S
C1418 N1417 1.351 . S
C1418 C1419 1.434 . S
C1419 C1410 1.429 . S
C1419 N1416 1.350 . S
C1419 C1418 1.434 . S
C1420 C1421 1.369 . S
C1420 C1422 1.419 . S
C1420 H1424 0.930 . S
C1421 C1420 1.369 . S
C1421 C1430 1.429 . S
C1422 C1420 1.419 . S
C1422 C1423 1.363 . S
C1422 H1425 0.929 . S
C1423 C1422 1.363 . S
C1423 C1429 1.428 . S
H1424 C1420 0.930 . S
H1425 C1422 0.929 . S
S1426 N1427 1.613 . S
S1426 N1428 1.610 . S
N1427 S1426 1.613 . S
N1427 C1430 1.350 . S
N1428 S1426 1.610 . S
N1428 C1429 1.351 . S
C1429 C1423 1.428 . S
C1429 N1428 1.351 . S
C1429 C1430 1.434 . S
C1430 C1421 1.429 . S
C1430 N1427 1.350 . S
C1430 C1429 1.434 . S
C1431 C1432 1.369 . S
C1431 C1433 1.419 . S
C1431 H1435 0.930 . S
C1432 C1431 1.369 . S
C1432 C1441 1.429 . S
C1433 C1431 1.419 . S
C1433 C1434 1.363 . S
C1433 H1436 0.929 . S
C1434 C1433 1.363 . S
C1434 C1440 1.428 . S
H1435 C1431 0.930 . S
H1436 C1433 0.929 . S
S1437 N1438 1.613 . S
S1437 N1439 1.610 . S
N1438 S1437 1.613 . S
N1438 C1441 1.350 . S
N1439 S1437 1.610 . S
N1439 C1440 1.351 . S
C1440 C1434 1.428 . S
C1440 N1439 1.351 . S
C1440 C1441 1.434 . S
C1441 C1432 1.429 . S
C1441 N1438 1.350 . S
C1441 C1440 1.434 . S
C1442 C1443 1.369 . S
C1442 C1444 1.419 . S
C1442 H1446 0.930 . S
C1443 C1442 1.369 . S
C1443 C1452 1.429 . S
C1444 C1442 1.419 . S
C1444 C1445 1.363 . S
C1444 H1447 0.929 . S
C1445 C1444 1.363 . S
C1445 C1451 1.428 . S
H1446 C1442 0.930 . S
H1447 C1444 0.929 . S
S1448 N1449 1.613 . S
S1448 N1450 1.610 . S
N1449 S1448 1.613 . S
N1449 C1452 1.350 . S
N1450 S1448 1.610 . S
N1450 C1451 1.351 . S
C1451 C1445 1.428 . S
C1451 N1450 1.351 . S
C1451 C1452 1.434 . S
C1452 C1443 1.429 . S
C1452 N1449 1.350 . S
C1452 C1451 1.434 . S
C1453 C1454 1.369 . S
C1453 C1455 1.419 . S
C1453 H1457 0.930 . S
C1454 C1453 1.369 . S
C1454 C1463 1.429 . S
C1455 C1453 1.419 . S
C1455 C1456 1.363 . S
C1455 H1458 0.929 . S
C1456 C1455 1.363 . S
C1456 C1462 1.428 . S
H1457 C1453 0.930 . S
H1458 C1455 0.929 . S
S1459 N1460 1.613 . S
S1459 N1461 1.610 . S
N1460 S1459 1.613 . S
N1460 C1463 1.350 . S
N1461 S1459 1.610 . S
N1461 C1462 1.351 . S
C1462 C1456 1.428 . S
C1462 N1461 1.351 . S
C1462 C1463 1.434 . S
C1463 C1454 1.429 . S
C1463 N1460 1.350 . S
C1463 C1462 1.434 . S
C1464 C1465 1.369 . S
C1464 C1466 1.419 . S
C1464 H1468 0.930 . S
C1465 C1464 1.369 . S
C1465 C1474 1.429 . S
C1466 C1464 1.419 . S
C1466 C1467 1.363 . S
C1466 H1469 0.929 . S
C1467 C1466 1.363 . S
C1467 C1473 1.428 . S
H1468 C1464 0.930 . S
H1469 C1466 0.929 . S
S1470 N1471 1.613 . S
S1470 N1472 1.610 . S
N1471 S1470 1.613 . S
N1471 C1474 1.350 . S
N1472 S1470 1.610 . S
N1472 C1473 1.351 . S
C1473 C1467 1.428 . S
C1473 N1472 1.351 . S
C1473 C1474 1.434 . S
C1474 C1465 1.429 . S
C1474 N1471 1.350 . S
C1474 C1473 1.434 . S
C1475 C1476 1.369 . S
C1475 C1477 1.419 . S
C1475 H1479 0.930 . S
C1476 C1475 1.369 . S
C1476 C1485 1.429 . S
C1477 C1475 1.419 . S
C1477 C1478 1.363 . S
C1477 H1480 0.929 . S
C1478 C1477 1.363 . S
C1478 C1484 1.428 . S
H1479 C1475 0.930 . S
H1480 C1477 0.929 . S
S1481 N1482 1.613 . S
S1481 N1483 1.610 . S
N1482 S1481 1.613 . S
N1482 C1485 1.350 . S
N1483 S1481 1.610 . S
N1483 C1484 1.351 . S
C1484 C1478 1.428 . S
C1484 N1483 1.351 . S
C1484 C1485 1.434 . S
C1485 C1476 1.429 . S
C1485 N1482 1.350 . S
C1485 C1484 1.434 . S
C1486 C1487 1.369 . S
C1486 C1488 1.419 . S
C1486 H1490 0.930 . S
C1487 C1486 1.369 . S
C1487 C1496 1.429 . S
C1488 C1486 1.419 . S
C1488 C1489 1.363 . S
C1488 H1491 0.929 . S
C1489 C1488 1.363 . S
C1489 C1495 1.428 . S
H1490 C1486 0.930 . S
H1491 C1488 0.929 . S
S1492 N1493 1.613 . S
S1492 N1494 1.610 . S
N1493 S1492 1.613 . S
N1493 C1496 1.350 . S
N1494 S1492 1.610 . S
N1494 C1495 1.351 . S
C1495 C1489 1.428 . S
C1495 N1494 1.351 . S
C1495 C1496 1.434 . S
C1496 C1487 1.429 . S
C1496 N1493 1.350 . S
C1496 C1495 1.434 . S
C1497 C1498 1.369 . S
C1497 C1499 1.419 . S
C1497 H1501 0.930 . S
C1498 C1497 1.369 . S
C1498 C1507 1.429 . S
C1499 C1497 1.419 . S
C1499 C1500 1.363 . S
C1499 H1502 0.929 . S
C1500 C1499 1.363 . S
C1500 C1506 1.428 . S
H1501 C1497 0.930 . S
H1502 C1499 0.929 . S
S1503 N1504 1.613 . S
S1503 N1505 1.610 . S
N1504 S1503 1.613 . S
N1504 C1507 1.350 . S
N1505 S1503 1.610 . S
N1505 C1506 1.351 . S
C1506 C1500 1.428 . S
C1506 N1505 1.351 . S
C1506 C1507 1.434 . S
C1507 C1498 1.429 . S
C1507 N1504 1.350 . S
C1507 C1506 1.434 . S
C1508 C1509 1.369 . S
C1508 C1510 1.419 . S
C1508 H1512 0.930 . S
C1509 C1508 1.369 . S
C1509 C1518 1.429 . S
C1510 C1508 1.419 . S
C1510 C1511 1.363 . S
C1510 H1513 0.929 . S
C1511 C1510 1.363 . S
C1511 C1517 1.428 . S
H1512 C1508 0.930 . S
H1513 C1510 0.929 . S
S1514 N1515 1.613 . S
S1514 N1516 1.610 . S
N1515 S1514 1.613 . S
N1515 C1518 1.350 . S
N1516 S1514 1.610 . S
N1516 C1517 1.351 . S
C1517 C1511 1.428 . S
C1517 N1516 1.351 . S
C1517 C1518 1.434 . S
C1518 C1509 1.429 . S
C1518 N1515 1.350 . S
C1518 C1517 1.434 . S
C1519 C1520 1.369 . S
C1519 C1521 1.419 . S
C1519 H1523 0.930 . S
C1520 C1519 1.369 . S
C1520 C1529 1.429 . S
C1521 C1519 1.419 . S
C1521 C1522 1.363 . S
C1521 H1524 0.929 . S
C1522 C1521 1.363 . S
C1522 C1528 1.428 . S
H1523 C1519 0.930 . S
H1524 C1521 0.929 . S
S1525 N1526 1.613 . S
S1525 N1527 1.610 . S
N1526 S1525 1.613 . S
N1526 C1529 1.350 . S
N1527 S1525 1.610 . S
N1527 C1528 1.351 . S
C1528 C1522 1.428 . S
C1528 N1527 1.351 . S
C1528 C1529 1.434 . S
C1529 C1520 1.429 . S
C1529 N1526 1.350 . S
C1529 C1528 1.434 . S
C1530 C1531 1.369 . S
C1530 C1532 1.419 . S
C1530 H1534 0.930 . S
C1531 C1530 1.369 . S
C1531 C1540 1.429 . S
C1532 C1530 1.419 . S
C1532 C1533 1.363 . S
C1532 H1535 0.929 . S
C1533 C1532 1.363 . S
C1533 C1539 1.428 . S
H1534 C1530 0.930 . S
H1535 C1532 0.929 . S
S1536 N1537 1.613 . S
S1536 N1538 1.610 . S
N1537 S1536 1.613 . S
N1537 C1540 1.350 . S
N1538 S1536 1.610 . S
N1538 C1539 1.351 . S
C1539 C1533 1.428 . S
C1539 N1538 1.351 . S
C1539 C1540 1.434 . S
C1540 C1531 1.429 . S
C1540 N1537 1.350 . S
C1540 C1539 1.434 . S
C1541 C1542 1.369 . S
C1541 C1543 1.419 . S
C1541 H1545 0.930 . S
C1542 C1541 1.369 . S
C1542 C1551 1.429 . S
C1543 C1541 1.419 . S
C1543 C1544 1.363 . S
C1543 H1546 0.929 . S
C1544 C1543 1.363 . S
C1544 C1550 1.428 . S
H1545 C1541 0.930 . S
H1546 C1543 0.929 . S
S1547 N1548 1.613 . S
S1547 N1549 1.610 . S
N1548 S1547 1.613 . S
N1548 C1551 1.350 . S
N1549 S1547 1.610 . S
N1549 C1550 1.351 . S
C1550 C1544 1.428 . S
C1550 N1549 1.351 . S
C1550 C1551 1.434 . S
C1551 C1542 1.429 . S
C1551 N1548 1.350 . S
C1551 C1550 1.434 . S
C1552 C1553 1.369 . S
C1552 C1554 1.419 . S
C1552 H1556 0.930 . S
C1553 C1552 1.369 . S
C1553 C1562 1.429 . S
C1554 C1552 1.419 . S
C1554 C1555 1.363 . S
C1554 H1557 0.929 . S
C1555 C1554 1.363 . S
C1555 C1561 1.428 . S
H1556 C1552 0.930 . S
H1557 C1554 0.929 . S
S1558 N1559 1.613 . S
S1558 N1560 1.610 . S
N1559 S1558 1.613 . S
N1559 C1562 1.350 . S
N1560 S1558 1.610 . S
N1560 C1561 1.351 . S
C1561 C1555 1.428 . S
C1561 N1560 1.351 . S
C1561 C1562 1.434 . S
C1562 C1553 1.429 . S
C1562 N1559 1.350 . S
C1562 C1561 1.434 . S
C1563 C1564 1.369 . S
C1563 C1565 1.419 . S
C1563 H1567 0.930 . S
C1564 C1563 1.369 . S
C1564 C1573 1.429 . S
C1565 C1563 1.419 . S
C1565 C1566 1.363 . S
C1565 H1568 0.929 . S
C1566 C1565 1.363 . S
C1566 C1572 1.428 . S
H1567 C1563 0.930 . S
H1568 C1565 0.929 . S
S1569 N1570 1.613 . S
S1569 N1571 1.610 . S
N1570 S1569 1.613 . S
N1570 C1573 1.350 . S
N1571 S1569 1.610 . S
N1571 C1572 1.351 . S
C1572 C1566 1.428 . S
C1572 N1571 1.351 . S
C1572 C1573 1.434 . S
C1573 C1564 1.429 . S
C1573 N1570 1.350 . S
C1573 C1572 1.434 . S
C1574 C1575 1.369 . S
C1574 C1576 1.419 . S
C1574 H1578 0.930 . S
C1575 C1574 1.369 . S
C1575 C1584 1.429 . S
C1576 C1574 1.419 . S
C1576 C1577 1.363 . S
C1576 H1579 0.929 . S
C1577 C1576 1.363 . S
C1577 C1583 1.428 . S
H1578 C1574 0.930 . S
H1579 C1576 0.929 . S
S1580 N1581 1.613 . S
S1580 N1582 1.610 . S
N1581 S1580 1.613 . S
N1581 C1584 1.350 . S
N1582 S1580 1.610 . S
N1582 C1583 1.351 . S
C1583 C1577 1.428 . S
C1583 N1582 1.351 . S
C1583 C1584 1.434 . S
C1584 C1575 1.429 . S
C1584 N1581 1.350 . S
C1584 C1583 1.434 . S
C1585 C1586 1.369 . S
C1585 C1587 1.419 . S
C1585 H1589 0.930 . S
C1586 C1585 1.369 . S
C1586 C1595 1.429 . S
C1587 C1585 1.419 . S
C1587 C1588 1.363 . S
C1587 H1590 0.929 . S
C1588 C1587 1.363 . S
C1588 C1594 1.428 . S
H1589 C1585 0.930 . S
H1590 C1587 0.929 . S
S1591 N1592 1.613 . S
S1591 N1593 1.610 . S
N1592 S1591 1.613 . S
N1592 C1595 1.350 . S
N1593 S1591 1.610 . S
N1593 C1594 1.351 . S
C1594 C1588 1.428 . S
C1594 N1593 1.351 . S
C1594 C1595 1.434 . S
C1595 C1586 1.429 . S
C1595 N1592 1.350 . S
C1595 C1594 1.434 . S
C1596 C1597 1.369 . S
C1596 C1598 1.419 . S
C1596 H1600 0.930 . S
C1597 C1596 1.369 . S
C1597 C1606 1.429 . S
C1598 C1596 1.419 . S
C1598 C1599 1.363 . S
C1598 H1601 0.929 . S
C1599 C1598 1.363 . S
C1599 C1605 1.428 . S
H1600 C1596 0.930 . S
H1601 C1598 0.929 . S
S1602 N1603 1.613 . S
S1602 N1604 1.610 . S
N1603 S1602 1.613 . S
N1603 C1606 1.350 . S
N1604 S1602 1.610 . S
N1604 C1605 1.351 . S
C1605 C1599 1.428 . S
C1605 N1604 1.351 . S
C1605 C1606 1.434 . S
C1606 C1597 1.429 . S
C1606 N1603 1.350 . S
C1606 C1605 1.434 . S
C1607 C1608 1.369 . S
C1607 C1609 1.419 . S
C1607 H1611 0.930 . S
C1608 C1607 1.369 . S
C1608 C1617 1.429 . S
C1609 C1607 1.419 . S
C1609 C1610 1.363 . S
C1609 H1612 0.929 . S
C1610 C1609 1.363 . S
C1610 C1616 1.428 . S
H1611 C1607 0.930 . S
H1612 C1609 0.929 . S
S1613 N1614 1.613 . S
S1613 N1615 1.610 . S
N1614 S1613 1.613 . S
N1614 C1617 1.350 . S
N1615 S1613 1.610 . S
N1615 C1616 1.351 . S
C1616 C1610 1.428 . S
C1616 N1615 1.351 . S
C1616 C1617 1.434 . S
C1617 C1608 1.429 . S
C1617 N1614 1.350 . S
C1617 C1616 1.434 . S
C1618 C1619 1.369 . S
C1618 C1620 1.419 . S
C1618 H1622 0.930 . S
C1619 C1618 1.369 . S
C1619 C1628 1.429 . S
C1620 C1618 1.419 . S
C1620 C1621 1.363 . S
C1620 H1623 0.929 . S
C1621 C1620 1.363 . S
C1621 C1627 1.428 . S
H1622 C1618 0.930 . S
H1623 C1620 0.929 . S
S1624 N1625 1.613 . S
S1624 N1626 1.610 . S
N1625 S1624 1.613 . S
N1625 C1628 1.350 . S
N1626 S1624 1.610 . S
N1626 C1627 1.351 . S
C1627 C1621 1.428 . S
C1627 N1626 1.351 . S
C1627 C1628 1.434 . S
C1628 C1619 1.429 . S
C1628 N1625 1.350 . S
C1628 C1627 1.434 . S
C1629 C1630 1.369 . S
C1629 C1631 1.419 . S
C1629 H1633 0.930 . S
C1630 C1629 1.369 . S
C1630 C1639 1.429 . S
C1631 C1629 1.419 . S
C1631 C1632 1.363 . S
C1631 H1634 0.929 . S
C1632 C1631 1.363 . S
C1632 C1638 1.428 . S
H1633 C1629 0.930 . S
H1634 C1631 0.929 . S
S1635 N1636 1.613 . S
S1635 N1637 1.610 . S
N1636 S1635 1.613 . S
N1636 C1639 1.350 . S
N1637 S1635 1.610 . S
N1637 C1638 1.351 . S
C1638 C1632 1.428 . S
C1638 N1637 1.351 . S
C1638 C1639 1.434 . S
C1639 C1630 1.429 . S
C1639 N1636 1.350 . S
C1639 C1638 1.434 . S
C1640 C1641 1.369 . S
C1640 C1642 1.419 . S
C1640 H1644 0.930 . S
C1641 C1640 1.369 . S
C1641 C1650 1.429 . S
C1642 C1640 1.419 . S
C1642 C1643 1.363 . S
C1642 H1645 0.929 . S
C1643 C1642 1.363 . S
C1643 C1649 1.428 . S
H1644 C1640 0.930 . S
H1645 C1642 0.929 . S
S1646 N1647 1.613 . S
S1646 N1648 1.610 . S
N1647 S1646 1.613 . S
N1647 C1650 1.350 . S
N1648 S1646 1.610 . S
N1648 C1649 1.351 . S
C1649 C1643 1.428 . S
C1649 N1648 1.351 . S
C1649 C1650 1.434 . S
C1650 C1641 1.429 . S
C1650 N1647 1.350 . S
C1650 C1649 1.434 . S
C1651 C1652 1.369 . S
C1651 C1653 1.419 . S
C1651 H1655 0.930 . S
C1652 C1651 1.369 . S
C1652 C1661 1.429 . S
C1653 C1651 1.419 . S
C1653 C1654 1.363 . S
C1653 H1656 0.929 . S
C1654 C1653 1.363 . S
C1654 C1660 1.428 . S
H1655 C1651 0.930 . S
H1656 C1653 0.929 . S
S1657 N1658 1.613 . S
S1657 N1659 1.610 . S
N1658 S1657 1.613 . S
N1658 C1661 1.350 . S
N1659 S1657 1.610 . S
N1659 C1660 1.351 . S
C1660 C1654 1.428 . S
C1660 N1659 1.351 . S
C1660 C1661 1.434 . S
C1661 C1652 1.429 . S
C1661 N1658 1.350 . S
C1661 C1660 1.434 . S
C1662 C1663 1.369 . S
C1662 C1664 1.419 . S
C1662 H1666 0.930 . S
C1663 C1662 1.369 . S
C1663 C1672 1.429 . S
C1664 C1662 1.419 . S
C1664 C1665 1.363 . S
C1664 H1667 0.929 . S
C1665 C1664 1.363 . S
C1665 C1671 1.428 . S
H1666 C1662 0.930 . S
H1667 C1664 0.929 . S
S1668 N1669 1.613 . S
S1668 N1670 1.610 . S
N1669 S1668 1.613 . S
N1669 C1672 1.350 . S
N1670 S1668 1.610 . S
N1670 C1671 1.351 . S
C1671 C1665 1.428 . S
C1671 N1670 1.351 . S
C1671 C1672 1.434 . S
C1672 C1663 1.429 . S
C1672 N1669 1.350 . S
C1672 C1671 1.434 . S
C1673 C1674 1.369 . S
C1673 C1675 1.419 . S
C1673 H1677 0.930 . S
C1674 C1673 1.369 . S
C1674 C1683 1.429 . S
C1675 C1673 1.419 . S
C1675 C1676 1.363 . S
C1675 H1678 0.929 . S
C1676 C1675 1.363 . S
C1676 C1682 1.428 . S
H1677 C1673 0.930 . S
H1678 C1675 0.929 . S
S1679 N1680 1.613 . S
S1679 N1681 1.610 . S
N1680 S1679 1.613 . S
N1680 C1683 1.350 . S
N1681 S1679 1.610 . S
N1681 C1682 1.351 . S
C1682 C1676 1.428 . S
C1682 N1681 1.351 . S
C1682 C1683 1.434 . S
C1683 C1674 1.429 . S
C1683 N1680 1.350 . S
C1683 C1682 1.434 . S
C1684 C1685 1.369 . S
C1684 C1686 1.419 . S
C1684 H1688 0.930 . S
C1685 C1684 1.369 . S
C1685 C1694 1.429 . S
C1686 C1684 1.419 . S
C1686 C1687 1.363 . S
C1686 H1689 0.929 . S
C1687 C1686 1.363 . S
C1687 C1693 1.428 . S
H1688 C1684 0.930 . S
H1689 C1686 0.929 . S
S1690 N1691 1.613 . S
S1690 N1692 1.610 . S
N1691 S1690 1.613 . S
N1691 C1694 1.350 . S
N1692 S1690 1.610 . S
N1692 C1693 1.351 . S
C1693 C1687 1.428 . S
C1693 N1692 1.351 . S
C1693 C1694 1.434 . S
C1694 C1685 1.429 . S
C1694 N1691 1.350 . S
C1694 C1693 1.434 . S
C1695 C1696 1.369 . S
C1695 C1697 1.419 . S
C1695 H1699 0.930 . S
C1696 C1695 1.369 . S
C1696 C1705 1.429 . S
C1697 C1695 1.419 . S
C1697 C1698 1.363 . S
C1697 H1700 0.929 . S
C1698 C1697 1.363 . S
C1698 C1704 1.428 . S
H1699 C1695 0.930 . S
H1700 C1697 0.929 . S
S1701 N1702 1.613 . S
S1701 N1703 1.610 . S
N1702 S1701 1.613 . S
N1702 C1705 1.350 . S
N1703 S1701 1.610 . S
N1703 C1704 1.351 . S
C1704 C1698 1.428 . S
C1704 N1703 1.351 . S
C1704 C1705 1.434 . S
C1705 C1696 1.429 . S
C1705 N1702 1.350 . S
C1705 C1704 1.434 . S
C1706 C1707 1.369 . S
C1706 C1708 1.419 . S
C1706 H1710 0.930 . S
C1707 C1706 1.369 . S
C1707 C1716 1.429 . S
C1708 C1706 1.419 . S
C1708 C1709 1.363 . S
C1708 H1711 0.929 . S
C1709 C1708 1.363 . S
C1709 C1715 1.428 . S
H1710 C1706 0.930 . S
H1711 C1708 0.929 . S
S1712 N1713 1.613 . S
S1712 N1714 1.610 . S
N1713 S1712 1.613 . S
N1713 C1716 1.350 . S
N1714 S1712 1.610 . S
N1714 C1715 1.351 . S
C1715 C1709 1.428 . S
C1715 N1714 1.351 . S
C1715 C1716 1.434 . S
C1716 C1707 1.429 . S
C1716 N1713 1.350 . S
C1716 C1715 1.434 . S
C1717 C1718 1.369 . S
C1717 C1719 1.419 . S
C1717 H1721 0.930 . S
C1718 C1717 1.369 . S
C1718 C1727 1.429 . S
C1719 C1717 1.419 . S
C1719 C1720 1.363 . S
C1719 H1722 0.929 . S
C1720 C1719 1.363 . S
C1720 C1726 1.428 . S
H1721 C1717 0.930 . S
H1722 C1719 0.929 . S
S1723 N1724 1.613 . S
S1723 N1725 1.610 . S
N1724 S1723 1.613 . S
N1724 C1727 1.350 . S
N1725 S1723 1.610 . S
N1725 C1726 1.351 . S
C1726 C1720 1.428 . S
C1726 N1725 1.351 . S
C1726 C1727 1.434 . S
C1727 C1718 1.429 . S
C1727 N1724 1.350 . S
C1727 C1726 1.434 . S
C673 C132 1.635 . S
C675 C6 1.640 . S
C684 C146 1.641 . S
C686 C20 1.643 . S
C695 C160 1.644 . S
C697 C34 1.641 . S
C706 C48 1.642 . S
C708 C118 1.636 . S
C717 C216 1.645 . S
C719 C62 1.637 . S
C728 C76 1.636 . S
C730 C174 1.639 . S
C739 C188 1.645 . S
C741 C90 1.638 . S
C750 C202 1.643 . S
C752 C104 1.636 . S
C761 C230 1.640 . S
C763 C258 1.644 . S
C772 C244 1.642 . S
C774 C314 1.636 . S
C783 C272 1.644 . S
C785 C328 1.636 . S
C794 C286 1.635 . S
C796 C300 1.642 . S
C805 C342 1.645 . S
C807 C468 1.638 . S
C816 C482 1.644 . S
C818 C356 1.636 . S
C827 C370 1.635 . S
C829 C496 1.640 . S
C838 C384 1.641 . S
C840 C454 1.636 . S
C849 C552 1.635 . S
C851 C398 1.641 . S
C860 C510 1.636 . S
C862 C412 1.644 . S
C871 C524 1.644 . S
C873 C426 1.641 . S
C882 C538 1.644 . S
C884 C440 1.636 . S
C893 C566 1.644 . S
C895 C594 1.641 . S
C904 C580 1.640 . S
C906 C650 1.636 . S
C915 C608 1.639 . S
C917 C664 1.637 . S
C926 C636 1.640 . S
C928 C622 1.636 . S
C937 C121 1.478 . S
C939 C8 1.596 . S
C948 C135 1.483 . S
C950 C22 1.597 . S
C959 C36 1.597 . S
C961 C149 1.484 . S
C970 C50 1.598 . S
C972 C163 1.477 . S
C981 C64 1.597 . S
C983 C177 1.476 . S
C992 C78 1.596 . S
C994 C191 1.477 . S
C1003 C92 1.595 . S
C1005 C205 1.485 . S
C1014 C219 1.475 . S
C1016 C106 1.598 . S
C1025 C120 1.595 . S
C1027 C233 1.485 . S
C1036 C331 1.479 . S
C1038 C134 1.598 . S
C1047 C148 1.598 . S
C1049 C303 1.479 . S
C1058 C162 1.594 . S
C1060 C317 1.484 . S
C1069 C176 1.598 . S
C1071 C247 1.478 . S
C1080 C190 1.595 . S
C1082 C261 1.486 . S
C1091 C204 1.595 . S
C1093 C275 1.481 . S
C1102 C289 1.484 . S
C1104 C218 1.597 . S
C1113 C9 1.485 . S
C1115 C232 1.596 . S
C1124 C246 1.595 . S
C1126 C65 1.486 . S
C1135 C260 1.595 . S
C1137 C79 1.486 . S
C1146 C274 1.597 . S
C1148 C93 1.482 . S
C1157 C107 1.486 . S
C1159 C288 1.596 . S
C1168 C302 1.598 . S
C1170 C37 1.476 . S
C1179 C316 1.596 . S
C1181 C51 1.484 . S
C1190 C23 1.481 . S
C1192 C330 1.597 . S
C1201 C457 1.485 . S
C1203 C344 1.596 . S
C1212 C358 1.596 . S
C1214 C471 1.478 . S
C1223 C372 1.595 . S
C1225 C485 1.478 . S
C1234 C499 1.477 . S
C1236 C386 1.596 . S
C1245 C513 1.484 . S
C1247 C400 1.597 . S
C1256 C414 1.594 . S
C1258 C527 1.484 . S
C1267 C541 1.478 . S
C1269 C428 1.598 . S
C1278 C555 1.477 . S
C1280 C442 1.598 . S
C1289 C456 1.595 . S
C1291 C569 1.485 . S
C1300 C470 1.597 . S
C1302 C667 1.476 . S
C1311 C484 1.594 . S
C1313 C639 1.484 . S
C1322 C653 1.475 . S
C1324 C498 1.597 . S
C1333 C512 1.598 . S
C1335 C583 1.477 . S
C1344 C526 1.594 . S
C1346 C597 1.485 . S
C1355 C611 1.478 . S
C1357 C540 1.596 . S
C1366 C625 1.477 . S
C1368 C554 1.596 . S
C1377 C568 1.596 . S
C1379 C345 1.476 . S
C1388 C582 1.597 . S
C1390 C401 1.476 . S
C1399 C415 1.483 . S
C1401 C596 1.595 . S
C1410 C610 1.596 . S
C1412 C429 1.484 . S
C1421 C624 1.598 . S
C1423 C443 1.476 . S
C1432 C373 1.475 . S
C1434 C638 1.598 . S
C1443 C652 1.598 . S
C1445 C387 1.478 . S
C1454 C359 1.474 . S
C1456 C666 1.598 . S
C1465 C441 1.703 . S
C1467 C7 1.708 . S
C1476 C21 1.707 . S
C1478 C399 1.709 . S
C1487 C413 1.704 . S
C1489 C35 1.700 . S
C1498 C427 1.710 . S
C1500 C49 1.707 . S
C1509 C63 1.702 . S
C1511 C357 1.707 . S
C1520 C371 1.699 . S
C1522 C77 1.700 . S
C1531 C385 1.700 . S
C1533 C91 1.706 . S
C1542 C105 1.698 . S
C1544 C343 1.703 . S
C1553 C623 1.699 . S
C1555 C119 1.700 . S
C1564 C133 1.699 . S
C1566 C581 1.704 . S
C1575 C147 1.702 . S
C1577 C595 1.707 . S
C1586 C609 1.698 . S
C1588 C161 1.702 . S
C1597 C665 1.708 . S
C1599 C175 1.709 . S
C1608 C637 1.706 . S
C1610 C189 1.709 . S
C1619 C203 1.698 . S
C1621 C651 1.700 . S
C1630 C567 1.709 . S
C1632 C217 1.704 . S
C1641 C231 1.698 . S
C1643 C553 1.701 . S
C1652 C469 1.702 . S
C1654 C245 1.699 . S
C1663 C259 1.703 . S
C1665 C483 1.708 . S
C1674 C497 1.698 . S
C1676 C273 1.700 . S
C1685 C455 1.705 . S
C1687 C287 1.700 . S
C1696 C301 1.701 . S
C1698 C525 1.707 . S
C1707 C539 1.706 . S
C1709 C315 1.709 . S
C1718 C511 1.709 . S
C1720 C329 1.704 . S
