# Generated by pormake.
# Topology wfu, (7)-cn, num edge types: 1
# Building blocks:
#     Node 0, Type 0, BuildingBlock: NUHQUE_clean_sbu_2, # of connection points: 7
#     Node 1, Type 0, BuildingBlock: NUHQUE_clean_sbu_2, # of connection points: 7
#     Node 2, Type 0, BuildingBlock: NUHQUE_clean_sbu_2, # of connection points: 7
#     Node 3, Type 0, BuildingBlock: NUHQUE_clean_sbu_2, # of connection points: 7
#     Node 4, Type 0, BuildingBlock: NUHQUE_clean_sbu_2, # of connection points: 7
#     Node 5, Type 0, BuildingBlock: NUHQUE_clean_sbu_2, # of connection points: 7
#     Node 6, Type 0, BuildingBlock: NUHQUE_clean_sbu_2, # of connection points: 7
#     Node 7, Type 0, BuildingBlock: NUHQUE_clean_sbu_2, # of connection points: 7
#     Edge 8, Type (0, 0), BuildingBlock: ZUJKAS_clean_linker_0, # of connection points: 2
#     Edge 9, Type (0, 0), BuildingBlock: ZUJKAS_clean_linker_0, # of connection points: 2
#     Edge 10, Type (0, 0), BuildingBlock: ZUJKAS_clean_linker_0, # of connection points: 2
#     Edge 11, Type (0, 0), BuildingBlock: ZUJKAS_clean_linker_0, # of connection points: 2
#     Edge 12, Type (0, 0), BuildingBlock: ZUJKAS_clean_linker_0, # of connection points: 2
#     Edge 13, Type (0, 0), BuildingBlock: ZUJKAS_clean_linker_0, # of connection points: 2
#     Edge 14, Type (0, 0), BuildingBlock: ZUJKAS_clean_linker_0, # of connection points: 2
#     Edge 15, Type (0, 0), BuildingBlock: ZUJKAS_clean_linker_0, # of connection points: 2
#     Edge 16, Type (0, 0), BuildingBlock: ZUJKAS_clean_linker_0, # of connection points: 2
#     Edge 17, Type (0, 0), BuildingBlock: ZUJKAS_clean_linker_0, # of connection points: 2
#     Edge 18, Type (0, 0), BuildingBlock: ZUJKAS_clean_linker_0, # of connection points: 2
#     Edge 19, Type (0, 0), BuildingBlock: ZUJKAS_clean_linker_0, # of connection points: 2
#     Edge 20, Type (0, 0), BuildingBlock: ZUJKAS_clean_linker_0, # of connection points: 2
#     Edge 21, Type (0, 0), BuildingBlock: ZUJKAS_clean_linker_0, # of connection points: 2
#     Edge 22, Type (0, 0), BuildingBlock: ZUJKAS_clean_linker_0, # of connection points: 2
#     Edge 23, Type (0, 0), BuildingBlock: ZUJKAS_clean_linker_0, # of connection points: 2
#     Edge 24, Type (0, 0), BuildingBlock: ZUJKAS_clean_linker_0, # of connection points: 2
#     Edge 25, Type (0, 0), BuildingBlock: ZUJKAS_clean_linker_0, # of connection points: 2
#     Edge 26, Type (0, 0), BuildingBlock: ZUJKAS_clean_linker_0, # of connection points: 2
#     Edge 27, Type (0, 0), BuildingBlock: ZUJKAS_clean_linker_0, # of connection points: 2
#     Edge 28, Type (0, 0), BuildingBlock: ZUJKAS_clean_linker_0, # of connection points: 2
#     Edge 29, Type (0, 0), BuildingBlock: ZUJKAS_clean_linker_0, # of connection points: 2
#     Edge 30, Type (0, 0), BuildingBlock: ZUJKAS_clean_linker_0, # of connection points: 2
#     Edge 31, Type (0, 0), BuildingBlock: ZUJKAS_clean_linker_0, # of connection points: 2
#     Edge 32, Type (0, 0), BuildingBlock: ZUJKAS_clean_linker_0, # of connection points: 2
#     Edge 33, Type (0, 0), BuildingBlock: ZUJKAS_clean_linker_0, # of connection points: 2
#     Edge 34, Type (0, 0), BuildingBlock: ZUJKAS_clean_linker_0, # of connection points: 2
#     Edge 35, Type (0, 0), BuildingBlock: ZUJKAS_clean_linker_0, # of connection points: 2
# Relax obj value: 0.189
# Max RMSD: 0.200
# Mean RMSD: 0.200
data_MOF--net-wfu--node1-NUHQUE_clean_sbu_2--edge1-ZUJKAS_clean_linker_0
_symmetry_space_group_name_H-M    P1
_symmetry_Int_Tables_number       1
_symmetry_cell_setting            triclinic
loop_
_symmetry_equiv_pos_as_xyz
'x, y, z'
_cell_length_a     45.824324
_cell_length_b     45.787753
_cell_length_c     38.912594
_cell_angle_alpha  89.99658
_cell_angle_beta   90.018018
_cell_angle_gamma 90.088382
loop_
_atom_site_label
_atom_site_type_symbol
_atom_site_fract_x
_atom_site_fract_y
_atom_site_fract_z
_atom_type_partial_charge
O0 O 0.28861 0.46674 0.21033 0.0
Tb1 Tb 0.31157 0.43345 0.18088 0.0
Eu2 Eu 0.34743 0.37332 0.2309 0.0
C3 C 0.29958 0.47986 0.23752 0.0
O4 O 0.32416 0.47042 0.25076 0.0
C5 C 0.37427 0.43896 0.21895 0.0
O6 O 0.38361 0.34397 0.21214 0.0
C7 C 0.32137 0.35422 0.28589 0.0
C8 C 0.4104 0.35397 0.20907 0.0
O9 O 0.41666 0.37976 0.22176 0.0
C10 C 0.29899 0.36881 0.17311 0.0
C11 C 0.30334 0.32977 0.29866 0.0
C12 C 0.29041 0.33162 0.33151 0.0
C13 C 0.27323 0.3085 0.34428 0.0
C14 C 0.26939 0.28356 0.32382 0.0
C15 C 0.2825 0.28116 0.29135 0.0
C16 C 0.29954 0.30437 0.27883 0.0
O17 O 0.35673 0.44529 0.19302 0.0
O18 O 0.37035 0.4165 0.23974 0.0
O19 O 0.28915 0.45707 0.1399 0.0
O20 O 0.32448 0.42932 0.12686 0.0
C21 C 0.30486 0.44706 0.11475 0.0
O22 O 0.32476 0.35933 0.18232 0.0
O23 O 0.28851 0.39239 0.18769 0.0
O24 O 0.34868 0.34811 0.27819 0.0
O25 O 0.30898 0.37228 0.2639 0.0
H26 H 0.29368 0.35101 0.34704 0.0
H27 H 0.25712 0.26521 0.33395 0.0
H28 H 0.30984 0.30267 0.25383 0.0
O29 O 0.46973 0.72836 0.80802 0.0
Tb30 Tb 0.43458 0.71416 0.8416 0.0
Eu31 Eu 0.37618 0.67831 0.78701 0.0
C32 C 0.49528 0.71587 0.81242 0.0
O33 O 0.49773 0.69556 0.83606 0.0
C34 C 0.43967 0.65278 0.8043 0.0
O35 O 0.35624 0.63677 0.8074 0.0
C36 C 0.35447 0.69801 0.7298 0.0
C37 C 0.36725 0.62773 0.83673 0.0
O38 O 0.3877 0.6436 0.85123 0.0
C39 C 0.36958 0.72747 0.84418 0.0
C40 C 0.32971 0.71466 0.71554 0.0
C41 C 0.33148 0.72559 0.68172 0.0
C42 C 0.30759 0.74013 0.66685 0.0
C43 C 0.28234 0.74437 0.68652 0.0
C44 C 0.28039 0.73411 0.72045 0.0
C45 C 0.30408 0.71893 0.7348 0.0
O46 O 0.44156 0.66747 0.83336 0.0
O47 O 0.42177 0.6605 0.77942 0.0
O48 O 0.45739 0.74024 0.88027 0.0
O49 O 0.43282 0.70327 0.89626 0.0
C50 C 0.44929 0.72471 0.90658 0.0
O51 O 0.35901 0.70258 0.83309 0.0
O52 O 0.3942 0.73733 0.83142 0.0
O53 O 0.34861 0.67187 0.74219 0.0
O54 O 0.37354 0.7127 0.7484 0.0
H55 H 0.35107 0.72203 0.66667 0.0
H56 H 0.26385 0.7555 0.67508 0.0
H57 H 0.30266 0.71057 0.76081 0.0
O58 O 0.72158 0.55983 0.21683 0.0
Tb59 Tb 0.70869 0.59674 0.18498 0.0
Eu60 Eu 0.67803 0.65884 0.23998 0.0
C61 C 0.70682 0.53528 0.21374 0.0
O62 O 0.68418 0.53476 0.19307 0.0
C63 C 0.64784 0.59715 0.22329 0.0
O64 O 0.64004 0.67937 0.21242 0.0
C65 C 0.69285 0.68389 0.29734 0.0
C66 C 0.63605 0.67059 0.1806 0.0
O67 O 0.65425 0.65129 0.16787 0.0
C68 C 0.73079 0.65942 0.18621 0.0
C69 C 0.70869 0.70927 0.31188 0.0
C70 C 0.72353 0.70598 0.34341 0.0
C71 C 0.73779 0.72986 0.35883 0.0
C72 C 0.73644 0.75723 0.34269 0.0
C73 C 0.72154 0.76107 0.31151 0.0
C74 C 0.70809 0.73687 0.29579 0.0
O75 O 0.66173 0.59458 0.1938 0.0
O76 O 0.65744 0.61425 0.24816 0.0
O77 O 0.72851 0.5694 0.14544 0.0
O78 O 0.7015 0.60467 0.13006 0.0
C79 C 0.71742 0.58304 0.11924 0.0
O80 O 0.70751 0.67332 0.19691 0.0
O81 O 0.73661 0.6333 0.19827 0.0
O82 O 0.66806 0.6891 0.28132 0.0
O83 O 0.70861 0.66328 0.2827 0.0
H84 H 0.724 0.68481 0.35587 0.0
H85 H 0.74683 0.77591 0.35473 0.0
H86 H 0.69651 0.7397 0.27173 0.0
O87 O 0.55888 0.30134 0.80891 0.0
Tb88 Tb 0.59273 0.31509 0.8448 0.0
Eu89 Eu 0.65443 0.34697 0.79172 0.0
C90 C 0.53574 0.31787 0.80433 0.0
O91 O 0.53453 0.34329 0.81979 0.0
C92 C 0.59321 0.37647 0.80832 0.0
O93 O 0.67224 0.3874 0.81727 0.0
C94 C 0.67957 0.33221 0.73436 0.0
C95 C 0.6655 0.3906 0.8499 0.0
O96 O 0.64968 0.37023 0.8647 0.0
C97 C 0.65635 0.29465 0.84674 0.0
C98 C 0.7043 0.31496 0.72075 0.0
C99 C 0.70263 0.30339 0.68717 0.0
C100 C 0.72575 0.28675 0.67361 0.0
C101 C 0.75058 0.28215 0.69398 0.0
C102 C 0.75279 0.29369 0.72728 0.0
C103 C 0.72957 0.31022 0.7406 0.0
O104 O 0.59119 0.36236 0.83771 0.0
O105 O 0.60981 0.36686 0.78312 0.0
O106 O 0.56282 0.29391 0.88082 0.0
O107 O 0.59615 0.32142 0.90049 0.0
C108 C 0.57416 0.3048 0.90861 0.0
O109 O 0.66944 0.3183 0.83546 0.0
O110 O 0.63038 0.28751 0.83519 0.0
O111 O 0.68601 0.35621 0.75144 0.0
O112 O 0.65774 0.31741 0.74793 0.0
H113 H 0.68329 0.30715 0.67175 0.0
H114 H 0.76893 0.27025 0.68334 0.0
H115 H 0.73111 0.3192 0.76632 0.0
O116 O 0.79159 0.06817 0.30622 0.0
Tb117 Tb 0.82198 0.08499 0.34454 0.0
Eu118 Eu 0.83873 0.14685 0.28938 0.0
C119 C 0.8009 0.051 0.28137 0.0
O120 O 0.82886 0.05067 0.27415 0.0
C121 C 0.87917 0.08616 0.29772 0.0
O122 O 0.86854 0.17435 0.3225 0.0
C123 C 0.82529 0.1719 0.23151 0.0
C124 C 0.88363 0.16096 0.34652 0.0
O125 O 0.88147 0.13249 0.349 0.0
C126 C 0.80487 0.14842 0.3593 0.0
C127 C 0.80652 0.19492 0.21642 0.0
C128 C 0.79564 0.19123 0.18277 0.0
C129 C 0.77998 0.21378 0.16665 0.0
C130 C 0.77457 0.23964 0.18467 0.0
C131 C 0.78478 0.24366 0.21834 0.0
C132 C 0.80102 0.22128 0.23409 0.0
O133 O 0.865 0.07579 0.32456 0.0
O134 O 0.87089 0.10937 0.27977 0.0
O135 O 0.79397 0.06992 0.38646 0.0
O136 O 0.83663 0.05247 0.38181 0.0
C137 C 0.8128 0.05214 0.39991 0.0
O138 O 0.80156 0.15505 0.32673 0.0
O139 O 0.8232 0.12785 0.36777 0.0
O140 O 0.84688 0.18058 0.25137 0.0
O141 O 0.81243 0.14789 0.2425 0.0
H142 H 0.80026 0.17133 0.16871 0.0
H143 H 0.76283 0.25714 0.17194 0.0
H144 H 0.80945 0.22443 0.25986 0.0
O145 O 0.06043 0.22241 0.72285 0.0
Tb146 Tb 0.09015 0.21049 0.68158 0.0
Eu147 Eu 0.15126 0.17837 0.73137 0.0
C148 C 0.03568 0.20794 0.72543 0.0
O149 O 0.03159 0.1852 0.70543 0.0
C150 C 0.09007 0.14771 0.71417 0.0
O151 O 0.18097 0.14306 0.71129 0.0
C152 C 0.17091 0.2028 0.78716 0.0
C153 C 0.17255 0.11561 0.71064 0.0
O154 O 0.14841 0.10825 0.72656 0.0
C155 C 0.15451 0.22624 0.67115 0.0
C156 C 0.19652 0.21787 0.802 0.0
C157 C 0.19502 0.22868 0.83595 0.0
C158 C 0.22004 0.24011 0.85216 0.0
C159 C 0.24634 0.24099 0.83381 0.0
C160 C 0.24805 0.23082 0.79991 0.0
C161 C 0.22307 0.21939 0.78387 0.0
O162 O 0.08817 0.16291 0.68553 0.0
O163 O 0.10777 0.15564 0.73916 0.0
O164 O 0.05787 0.23531 0.65225 0.0
O165 O 0.08481 0.20499 0.62605 0.0
C166 C 0.06391 0.22393 0.62253 0.0
O167 O 0.16506 0.20146 0.6827 0.0
O168 O 0.12986 0.23648 0.68335 0.0
O169 O 0.1744 0.17494 0.77983 0.0
O170 O 0.15527 0.21698 0.7641 0.0
H171 H 0.1747 0.22725 0.85011 0.0
H172 H 0.26571 0.24999 0.84589 0.0
H173 H 0.22448 0.21098 0.75788 0.0
O174 O 0.22839 0.96937 0.30762 0.0
Tb175 Tb 0.21508 0.93512 0.34302 0.0
Eu176 Eu 0.18415 0.87486 0.28694 0.0
C177 C 0.21392 0.99415 0.30852 0.0
O178 O 0.1916 0.99635 0.32953 0.0
C179 C 0.15585 0.93728 0.30233 0.0
O180 O 0.14427 0.85388 0.31028 0.0
C181 C 0.20243 0.85093 0.23028 0.0
C182 C 0.13699 0.86395 0.34073 0.0
O183 O 0.15345 0.88422 0.35466 0.0
C184 C 0.23282 0.87078 0.3461 0.0
C185 C 0.21658 0.82488 0.21523 0.0
C186 C 0.22816 0.82664 0.18168 0.0
C187 C 0.23905 0.80158 0.16515 0.0
C188 C 0.23865 0.77491 0.18283 0.0
C189 C 0.22755 0.77277 0.21634 0.0
C190 C 0.21674 0.79792 0.23268 0.0
O191 O 0.16841 0.93841 0.33274 0.0
O192 O 0.16597 0.92027 0.27775 0.0
O193 O 0.23699 0.9631 0.38061 0.0
O194 O 0.20449 0.93343 0.39785 0.0
C195 C 0.22287 0.95356 0.40735 0.0
O196 O 0.20911 0.85892 0.33327 0.0
O197 O 0.24168 0.89643 0.33516 0.0
O198 O 0.17583 0.84747 0.24245 0.0
O199 O 0.21869 0.86864 0.24895 0.0
H200 H 0.22778 0.84729 0.16804 0.0
H201 H 0.24741 0.75556 0.1705 0.0
H202 H 0.2077 0.79634 0.25836 0.0
O203 O 0.97046 0.79561 0.71987 0.0
Tb204 Tb 0.93665 0.8077 0.68339 0.0
Eu205 Eu 0.87841 0.83684 0.74016 0.0
C206 C 0.99526 0.81006 0.71887 0.0
O207 O 0.99777 0.83189 0.6972 0.0
C208 C 0.93754 0.8695 0.7195 0.0
O209 O 0.85401 0.87362 0.71486 0.0
C210 C 0.85758 0.81861 0.79835 0.0
C211 C 0.86026 0.87711 0.68214 0.0
O212 O 0.88035 0.86028 0.66852 0.0
C213 C 0.87299 0.78637 0.68269 0.0
C214 C 0.833 0.80118 0.81188 0.0
C215 C 0.83547 0.78783 0.8444 0.0
C216 C 0.8124 0.77095 0.85771 0.0
C217 C 0.78681 0.76792 0.83822 0.0
C218 C 0.78385 0.78126 0.80592 0.0
C219 C 0.8071 0.79791 0.7928 0.0
O220 O 0.93875 0.85503 0.69029 0.0
O221 O 0.92175 0.8602 0.74559 0.0
O222 O 0.96602 0.78628 0.64702 0.0
O223 O 0.93419 0.81583 0.62807 0.0
C224 C 0.95543 0.79847 0.61955 0.0
O225 O 0.86088 0.8094 0.69668 0.0
O226 O 0.89964 0.77872 0.69103 0.0
O227 O 0.85107 0.84422 0.7849 0.0
O228 O 0.87756 0.8042 0.78085 0.0
H229 H 0.85535 0.79046 0.85919 0.0
H230 H 0.7685 0.75599 0.84897 0.0
H231 H 0.80509 0.80824 0.76784 0.0
H232 H 0.31453 0.31901 0.13926 0.0
H233 H 0.29285 0.2982 0.08752 0.0
H234 H 0.22779 0.36612 0.08702 0.0
H235 H 0.24981 0.38756 0.13873 0.0
H236 H 0.23795 0.2767 0.07423 0.0
H237 H 0.26142 0.3723 0.99042 0.0
H238 H 0.27738 0.3683 0.03255 0.0
H239 H 0.24015 0.37993 0.02813 0.0
C240 C 0.29555 0.32958 0.1283 0.0
C241 C 0.28404 0.3551 0.14317 0.0
C242 C 0.28313 0.31757 0.09865 0.0
C243 C 0.25893 0.33078 0.08294 0.0
C244 C 0.2468 0.35582 0.09821 0.0
H245 H 0.18304 0.27989 0.88218 0.0
H246 H 0.18757 0.30177 0.93982 0.0
C247 C 0.25927 0.36792 0.12799 0.0
C248 C 0.24695 0.31821 0.05045 0.0
H249 H 0.23822 0.33198 0.96461 0.0
C250 C 0.23778 0.28891 0.05034 0.0
C251 C 0.2466 0.3341 0.01919 0.0
C252 C 0.25711 0.36532 0.01729 0.0
C253 C 0.22895 0.27491 0.01986 0.0
C254 C 0.2296 0.29046 0.98844 0.0
C255 C 0.23764 0.32009 0.9887 0.0
C256 C 0.22482 0.27569 0.95475 0.0
C257 C 0.2193 0.24343 0.02151 0.0
C258 C 0.24405 0.25366 0.94407 0.0
C259 C 0.24155 0.2413 0.91136 0.0
C260 C 0.21975 0.25065 0.88841 0.0
C261 C 0.19985 0.27205 0.89943 0.0
C262 C 0.20254 0.28467 0.93223 0.0
H263 H 0.21159 0.23747 0.04765 0.0
H264 H 0.20155 0.23898 1.00279 0.0
H265 H 0.23807 0.22914 0.01512 0.0
H266 H 0.26169 0.24666 0.96067 0.0
H267 H 0.2572 0.22485 0.90362 0.0
H268 H 0.3174 0.71385 0.87407 0.0
H269 H 0.29567 0.73504 0.92546 0.0
H270 H 0.36736 0.79576 0.93341 0.0
H271 H 0.38969 0.7742 0.88202 0.0
H272 H 0.35554 0.7694 0.99466 0.0
H273 H 0.25243 0.81073 0.93959 0.0
H274 H 0.25793 0.77291 0.92963 0.0
H275 H 0.28289 0.7999 0.91311 0.0
C276 C 0.32846 0.73196 0.8864 0.0
C277 C 0.35527 0.74239 0.87368 0.0
C278 C 0.31583 0.74423 0.91576 0.0
C279 C 0.32952 0.76742 0.93307 0.0
C280 C 0.35621 0.77808 0.92034 0.0
H281 H 0.27923 0.83925 0.13672 0.0
H282 H 0.30191 0.83576 0.07948 0.0
C283 C 0.3689 0.7658 0.89086 0.0
C284 C 0.31674 0.77901 0.96561 0.0
H285 H 0.25305 0.80369 1.00099 0.0
C286 C 0.33332 0.77744 0.99595 0.0
C287 C 0.28775 0.78962 0.96739 0.0
C288 C 0.26933 0.79369 0.93561 0.0
C289 C 0.32119 0.78456 0.02813 0.0
C290 C 0.29177 0.79382 0.03003 0.0
C291 C 0.27557 0.79651 0.99957 0.0
C292 C 0.27668 0.7981 0.06357 0.0
C293 C 0.33946 0.78067 0.06006 0.0
C294 C 0.2543 0.77883 0.07315 0.0
C295 C 0.24138 0.78082 0.1056 0.0
C296 C 0.25037 0.80229 0.12923 0.0
C297 C 0.27182 0.82253 0.11905 0.0
C298 C 0.28495 0.82038 0.08651 0.0
H299 H 0.36026 0.7691 0.0547 0.0
H300 H 0.34477 0.80242 0.07099 0.0
H301 H 0.32715 0.76822 0.07983 0.0
H302 H 0.24742 0.76159 0.05586 0.0
H303 H 0.2247 0.7651 0.11253 0.0
H304 H 0.79676 0.71543 0.87543 0.0
H305 H 0.79001 0.69569 0.93328 0.0
H306 H 0.82357 0.77554 0.97671 0.0
H307 H 0.83029 0.79561 0.91862 0.0
H308 H 0.8416 0.71917 1.01125 0.0
H309 H 0.72206 0.73205 0.99207 0.0
H310 H 0.74089 0.7122 0.95899 0.0
H311 H 0.74861 0.75028 0.9653 0.0
C312 C 0.80311 0.72867 0.89727 0.0
C313 C 0.81371 0.75725 0.89245 0.0
C314 C 0.79926 0.71733 0.93031 0.0
C315 C 0.80587 0.7343 0.95929 0.0
C316 C 0.81829 0.7621 0.95466 0.0
H317 H 0.72762 0.71448 0.15991 0.0
H318 H 0.7489 0.73274 0.10662 0.0
C319 C 0.82221 0.7735 0.92147 0.0
C320 C 0.79723 0.72398 0.99406 0.0
H321 H 0.73724 0.70833 0.04282 0.0
C322 C 0.81881 0.71682 0.01826 0.0
C323 C 0.76748 0.72119 1.00323 0.0
C324 C 0.74334 0.72953 0.97872 0.0
C325 C 0.81134 0.70654 0.05128 0.0
C326 C 0.78155 0.70323 0.06014 0.0
C327 C 0.76007 0.71072 0.03599 0.0
C328 C 0.77182 0.69279 0.09453 0.0
C329 C 0.8353 0.69975 0.0766 0.0
C330 C 0.77796 0.6643 0.10588 0.0
C331 C 0.76581 0.65373 0.13659 0.0
C332 C 0.7471 0.6714 0.15633 0.0
C333 C 0.74184 0.70021 0.14538 0.0
C334 C 0.754 0.71073 0.11485 0.0
H335 H 0.85648 0.70949 0.0687 0.0
H336 H 0.82959 0.70792 0.10261 0.0
H337 H 0.83811 0.67573 0.07827 0.0
H338 H 0.7912 0.64985 0.09035 0.0
H339 H 0.77008 0.63135 0.14407 0.0
H340 H 0.79893 0.24662 0.11331 0.0
H341 H 0.77744 0.25033 0.05581 0.0
H342 H 0.71648 0.1818 0.0811 0.0
H343 H 0.73825 0.17791 0.13889 0.0
H344 H 0.76679 0.20622 1.00151 0.0
H345 H 0.66589 0.25567 0.05606 0.0
H346 H 0.69951 0.25367 0.08015 0.0
H347 H 0.67792 0.22142 0.07375 0.0
C348 C 0.78138 0.2319 0.10627 0.0
C349 C 0.7703 0.21188 0.13034 0.0
C350 C 0.76908 0.23407 0.07349 0.0
C351 C 0.74517 0.21658 0.06428 0.0
C352 C 0.7348 0.19565 0.08779 0.0
H353 H 0.63206 0.25078 0.88571 0.0
H354 H 0.65312 0.22707 0.93648 0.0
C355 C 0.74736 0.19326 0.1206 0.0
C356 C 0.73024 0.22184 0.03089 0.0
H357 H 0.66956 0.25349 0.99602 0.0
C358 C 0.74538 0.21622 1.00025 0.0
C359 C 0.70228 0.23486 0.02928 0.0
C360 C 0.68536 0.24199 0.06146 0.0
C361 C 0.73354 0.22376 0.96808 0.0
C362 C 0.70614 0.238 0.96652 0.0
C363 C 0.69055 0.24261 0.99713 0.0
C364 C 0.69425 0.25026 0.93389 0.0
C365 C 0.75059 0.21646 0.93607 0.0
C366 C 0.7103 0.27116 0.9154 0.0
C367 C 0.69838 0.28466 0.88637 0.0
C368 C 0.66998 0.27776 0.87519 0.0
C369 C 0.65409 0.25641 0.89334 0.0
C370 C 0.66606 0.24292 0.92249 0.0
H371 H 0.76526 0.19751 0.94037 0.0
H372 H 0.73587 0.21143 0.91417 0.0
H373 H 0.76442 0.23543 0.92894 0.0
H374 H 0.73176 0.27779 0.92407 0.0
H375 H 0.71122 0.30111 0.87324 0.0
H376 H 0.77563 0.20138 0.3554 0.0
H377 H 0.75716 0.23072 0.40393 0.0
H378 H 0.78506 0.16389 0.47462 0.0
H379 H 0.80338 0.13484 0.42707 0.0
H380 H 0.71556 0.21555 0.46015 0.0
H381 H 0.82709 0.23936 0.50762 0.0
H382 H 0.82001 0.22687 0.46438 0.0
H383 H 0.82091 0.20127 0.49942 0.0
C384 C 0.7776 0.19292 0.38129 0.0
C385 C 0.79135 0.16591 0.38731 0.0
C386 C 0.76706 0.20969 0.40896 0.0
C387 C 0.77022 0.19971 0.44296 0.0
C388 C 0.78288 0.17231 0.44872 0.0
H389 H 0.74087 0.23181 0.65348 0.0
H390 H 0.74858 0.21399 0.59504 0.0
C391 C 0.79335 0.15569 0.42136 0.0
C392 C 0.7612 0.21769 0.47301 0.0
H393 H 0.78809 0.24593 0.54789 0.0
C394 C 0.73139 0.22278 0.47905 0.0
C395 C 0.7819 0.22718 0.49762 0.0
C396 C 0.81429 0.22367 0.49186 0.0
C397 C 0.72173 0.23553 0.51004 0.0
C398 C 0.7424 0.24346 0.53539 0.0
C399 C 0.77223 0.23964 0.52855 0.0
C400 C 0.73382 0.25358 0.57031 0.0
C401 C 0.68948 0.23912 0.51632 0.0
C402 C 0.72223 0.2816 0.5759 0.0
C403 C 0.71786 0.29196 0.60953 0.0
C404 C 0.72519 0.27451 0.63804 0.0
C405 C 0.73535 0.24595 0.63213 0.0
C406 C 0.73972 0.2357 0.59872 0.0
H407 H 0.67609 0.22943 0.49541 0.0
H408 H 0.68333 0.22871 0.54107 0.0
H409 H 0.68421 0.26271 0.5183 0.0
H410 H 0.71777 0.29588 0.55435 0.0
H411 H 0.71024 0.31412 0.61321 0.0
H412 H 0.20762 0.21344 0.64281 0.0
H413 H 0.22918 0.23355 0.59051 0.0
H414 H 0.15562 0.2913 0.57883 0.0
H415 H 0.13402 0.27156 0.63151 0.0
H416 H 0.20574 0.23018 0.52686 0.0
H417 H 0.22354 0.34651 0.56042 0.0
H418 H 0.21631 0.31886 0.59241 0.0
H419 H 0.18687 0.3341 0.56771 0.0
C420 C 0.19618 0.23077 0.62949 0.0
C421 C 0.16905 0.24088 0.64152 0.0
C422 C 0.20857 0.24225 0.5995 0.0
C423 C 0.19425 0.26419 0.58076 0.0
C424 C 0.16748 0.27486 0.59313 0.0
H425 H 0.21756 0.29404 0.36257 0.0
H426 H 0.19847 0.28589 0.42046 0.0
C427 C 0.15507 0.26344 0.62326 0.0
C428 C 0.20621 0.27398 0.54696 0.0
H429 H 0.22862 0.33385 0.50118 0.0
C430 C 0.21085 0.25285 0.52139 0.0
C431 C 0.21318 0.30353 0.53976 0.0
C432 C 0.21001 0.32706 0.5666 0.0
C433 C 0.22172 0.2604 0.48881 0.0
C434 C 0.22773 0.29005 0.48117 0.0
C435 C 0.22371 0.31119 0.5069 0.0
C436 C 0.23807 0.29914 0.44644 0.0
C437 C 0.22699 0.23643 0.46291 0.0
C438 C 0.26619 0.31081 0.44174 0.0
C439 C 0.27716 0.31568 0.40849 0.0
C440 C 0.26016 0.30893 0.37942 0.0
C441 C 0.23136 0.29907 0.3844 0.0
C442 C 0.22043 0.29432 0.41749 0.0
H443 H 0.22843 0.21465 0.47537 0.0
H444 H 0.20858 0.23585 0.44438 0.0
H445 H 0.24741 0.24042 0.44829 0.0
H446 H 0.28015 0.31484 0.4637 0.0
H447 H 0.29945 0.32315 0.40553 0.0
H448 H 0.21793 0.81934 0.37715 0.0
H449 H 0.23882 0.79773 0.42881 0.0
H450 H 0.3025 0.86704 0.43368 0.0
H451 H 0.2811 0.8894 0.38228 0.0
H452 H 0.29207 0.77663 0.44458 0.0
H453 H 0.26739 0.87165 0.52854 0.0
H454 H 0.253 0.86841 0.48558 0.0
H455 H 0.29012 0.87986 0.49224 0.0
C456 C 0.23648 0.83002 0.389 0.0
C457 C 0.24767 0.85628 0.37555 0.0
C458 C 0.24845 0.81756 0.41864 0.0
C459 C 0.27193 0.83098 0.43566 0.0
C460 C 0.28394 0.85661 0.42158 0.0
H461 H 0.34693 0.77686 0.63559 0.0
H462 H 0.34301 0.79865 0.57783 0.0
C463 C 0.27184 0.86924 0.39195 0.0
C464 C 0.28316 0.81815 0.46836 0.0
H465 H 0.29086 0.83155 0.55444 0.0
C466 C 0.292 0.78876 0.46852 0.0
C467 C 0.28313 0.8339 0.49975 0.0
C468 C 0.27268 0.86511 0.50176 0.0
C469 C 0.30015 0.77458 0.49913 0.0
C470 C 0.29936 0.7901 0.53052 0.0
C471 C 0.29161 0.81975 0.53029 0.0
C472 C 0.30362 0.77525 0.56418 0.0
C473 C 0.30914 0.74293 0.49777 0.0
C474 C 0.28294 0.75478 0.57552 0.0
C475 C 0.28503 0.74259 0.60836 0.0
C476 C 0.30794 0.75044 0.63058 0.0
C477 C 0.32924 0.7702 0.61885 0.0
C478 C 0.32692 0.78275 0.586 0.0
H479 H 0.31583 0.73633 0.47146 0.0
H480 H 0.32744 0.73862 0.51578 0.0
H481 H 0.29039 0.72907 0.50558 0.0
H482 H 0.26459 0.74894 0.55935 0.0
H483 H 0.26829 0.72744 0.61675 0.0
H484 H 0.81547 0.79094 0.66524 0.0
H485 H 0.79184 0.7737 0.6128 0.0
H486 H 0.87209 0.73275 0.581 0.0
H487 H 0.89585 0.74957 0.63383 0.0
H488 H 0.80816 0.7907 0.54926 0.0
H489 H 0.81244 0.66988 0.55718 0.0
H490 H 0.81829 0.69312 0.59406 0.0
H491 H 0.84714 0.68736 0.56352 0.0
C492 C 0.82798 0.7777 0.64751 0.0
C493 C 0.85759 0.77163 0.65384 0.0
C494 C 0.81441 0.76788 0.61745 0.0
C495 C 0.83005 0.75174 0.59293 0.0
C496 C 0.85932 0.74463 0.59977 0.0
H497 H 0.7917 0.75107 0.37526 0.0
H498 H 0.81432 0.75373 0.43208 0.0
C499 C 0.87293 0.75433 0.63002 0.0
C500 C 0.81653 0.74517 0.55892 0.0
H501 H 0.79961 0.69021 0.50265 0.0
C502 C 0.80617 0.76868 0.53923 0.0
C503 C 0.8137 0.71644 0.54581 0.0
C504 C 0.82322 0.6902 0.56634 0.0
C505 C 0.79354 0.76438 0.50674 0.0
C506 C 0.7916 0.73579 0.4931 0.0
C507 C 0.80138 0.71214 0.51298 0.0
C508 C 0.77964 0.73048 0.45807 0.0
C509 C 0.78213 0.79056 0.48738 0.0
C510 C 0.75326 0.71528 0.45345 0.0
C511 C 0.74025 0.71364 0.42081 0.0
C512 C 0.75344 0.72721 0.39231 0.0
C513 C 0.78073 0.74085 0.39679 0.0
C514 C 0.79369 0.74239 0.42926 0.0
H515 H 0.77858 0.80957 0.50463 0.0
H516 H 0.79827 0.79708 0.46755 0.0
H517 H 0.76125 0.78534 0.47423 0.0
H518 H 0.74209 0.70582 0.47532 0.0
H519 H 0.7192 0.70307 0.41823 0.0
H520 H 0.59044 0.33324 0.96715 0.0
H521 H 0.56581 0.33205 0.02295 0.0
H522 H 0.50551 0.26745 0.98431 0.0
H523 H 0.52962 0.26919 0.92821 0.0
H524 H 0.47773 0.3126 1.01261 0.0
H525 H 0.56363 0.27578 0.10256 0.0
H526 H 0.5751 0.30641 0.07719 0.0
H527 H 0.56712 0.27213 0.05654 0.0
C528 C 0.57227 0.31841 0.97081 0.0
C529 C 0.56185 0.30138 0.94341 0.0
C530 C 0.55834 0.31755 1.00279 0.0
C531 C 0.53403 0.29935 1.00804 0.0
C532 C 0.52431 0.28155 0.98094 0.0
H533 H 0.40273 0.30335 0.17238 0.0
H534 H 0.43376 0.28496 0.12598 0.0
C535 C 0.53808 0.28256 0.94892 0.0
C536 C 0.51681 0.30132 0.0403 0.0
H537 H 0.52205 0.29961 0.1279 0.0
C538 C 0.4873 0.30925 0.0378 0.0
C539 C 0.52933 0.29706 0.07318 0.0
C540 C 0.56046 0.28709 0.07757 0.0
C541 C 0.47031 0.31429 0.06717 0.0
C542 C 0.48303 0.31083 0.10007 0.0
C543 C 0.51233 0.30217 0.10266 0.0
C544 C 0.46677 0.31845 0.13178 0.0
C545 C 0.43925 0.32461 0.06269 0.0
C546 C 0.47589 0.34231 0.15168 0.0
C547 C 0.45837 0.35271 0.17837 0.0
C548 C 0.43136 0.33944 0.18566 0.0
C549 C 0.42328 0.31423 0.16728 0.0
C550 C 0.44091 0.30378 0.14062 0.0
H551 H 0.43476 0.33183 0.03594 0.0
H552 H 0.42408 0.30643 0.0688 0.0
H553 H 0.43441 0.343 0.08039 0.0
H554 H 0.49585 0.35385 0.1454 0.0
H555 H 0.46537 0.37207 0.19212 0.0
H556 H 0.34346 0.4371 0.06274 0.0
H557 H 0.34504 0.4619 1.00693 0.0
H558 H 0.26388 0.50516 0.03027 0.0
H559 H 0.26263 0.48106 0.08644 0.0
H560 H 0.30791 0.46886 0.94874 0.0
H561 H 0.32273 0.57214 0.02224 0.0
H562 H 0.32477 0.53675 0.04235 0.0
H563 H 0.28991 0.55226 0.03171 0.0
C564 C 0.32571 0.4515 0.05566 0.0
C565 C 0.3032 0.45762 0.07903 0.0
C566 C 0.32657 0.46556 0.02376 0.0
C567 C 0.30485 0.48578 0.01478 0.0
C568 C 0.28112 0.49004 0.037 0.0
H569 H 0.31301 0.6019 0.83301 0.0
H570 H 0.29386 0.56394 0.87197 0.0
C571 C 0.28041 0.47624 0.06901 0.0
C572 C 0.30898 0.50484 0.98438 0.0
H573 H 0.32395 0.57542 0.96222 0.0
C574 C 0.31102 0.49222 0.95154 0.0
C575 C 0.31335 0.53529 0.98824 0.0
C576 C 0.31285 0.54998 0.023 0.0
C577 C 0.31792 0.50927 0.92255 0.0
C578 C 0.32281 0.53949 0.9267 0.0
C579 C 0.31987 0.55221 0.95925 0.0
C580 C 0.33473 0.55796 0.89891 0.0
C581 C 0.32127 0.4949 0.88795 0.0
C582 C 0.36404 0.56647 0.90081 0.0
C583 C 0.37482 0.58806 0.87906 0.0
C584 C 0.3565 0.60156 0.85488 0.0
C585 C 0.32757 0.59174 0.85137 0.0
C586 C 0.31665 0.57012 0.87352 0.0
H587 H 0.31651 0.47112 0.88889 0.0
H588 H 0.30632 0.50535 0.86918 0.0
H589 H 0.3439 0.49814 0.87845 0.0
H590 H 0.37826 0.55734 0.9203 0.0
H591 H 0.3973 0.59497 0.88209 0.0
H592 H 0.44503 0.6863 0.95959 0.0
H593 H 0.47075 0.68853 0.01444 0.0
H594 H 0.50426 0.77381 0.98813 0.0
H595 H 0.4795 0.771 0.93245 0.0
H596 H 0.54664 0.7404 1.00509 0.0
H597 H 0.46313 0.7268 0.1055 0.0
H598 H 0.45941 0.69819 0.07443 0.0
H599 H 0.45369 0.73563 0.06165 0.0
C600 C 0.45733 0.7058 0.96588 0.0
C601 C 0.4605 0.72839 0.94179 0.0
C602 C 0.47181 0.70722 0.99744 0.0
C603 C 0.48917 0.73154 1.00579 0.0
C604 C 0.49092 0.75488 0.9824 0.0
H605 H 0.59839 0.71618 0.19375 0.0
H606 H 0.56154 0.73647 0.15431 0.0
C607 C 0.4768 0.75326 0.9506 0.0
C608 C 0.50888 0.73046 0.0361 0.0
H609 H 0.51213 0.70899 0.12014 0.0
C610 C 0.53891 0.73429 0.03044 0.0
C611 C 0.499 0.72293 0.06945 0.0
C612 C 0.46699 0.721 0.07814 0.0
C613 C 0.55935 0.72862 0.05633 0.0
C614 C 0.5496 0.71815 0.08851 0.0
C615 C 0.51956 0.71652 0.0952 0.0
C616 C 0.57038 0.70558 0.11356 0.0
C617 C 0.59135 0.73281 0.04853 0.0
C618 C 0.5868 0.68112 0.10399 0.0
C619 C 0.60767 0.66966 0.12615 0.0
C620 C 0.61247 0.68225 0.15861 0.0
C621 C 0.59525 0.70613 0.16883 0.0
C622 C 0.57425 0.71772 0.1464 0.0
H623 H 0.59467 0.74938 0.02803 0.0
H624 H 0.60361 0.7397 0.07179 0.0
H625 H 0.60063 0.71186 0.0393 0.0
H626 H 0.58368 0.67105 0.07905 0.0
H627 H 0.62025 0.65102 0.11758 0.0
H628 H 0.69283 0.44084 0.82737 0.0
H629 H 0.70566 0.48394 0.86213 0.0
H630 H 0.67157 0.44126 0.95244 0.0
H631 H 0.65849 0.39882 0.91833 0.0
H632 H 0.65108 0.49857 0.94272 0.0
H633 H 0.77226 0.49136 0.93424 0.0
H634 H 0.75156 0.49159 0.8949 0.0
H635 H 0.74899 0.46089 0.92335 0.0
C636 C 0.68826 0.44068 0.85468 0.0
C637 C 0.67462 0.41644 0.87008 0.0
C638 C 0.69566 0.46525 0.87447 0.0
C639 C 0.68964 0.46571 0.90988 0.0
C640 C 0.6763 0.44141 0.92515 0.0
H641 H 0.74244 0.53304 0.09657 0.0
H642 H 0.73789 0.51121 0.03963 0.0
C643 C 0.66888 0.4171 0.90555 0.0
C644 C 0.69647 0.4913 0.93177 0.0
H645 H 0.75276 0.52479 0.97368 0.0
C646 C 0.67329 0.50484 0.94905 0.0
C647 C 0.72547 0.49926 0.93988 0.0
C648 C 0.75114 0.48503 0.92235 0.0
C649 C 0.67827 0.52454 0.97602 0.0
C650 C 0.70734 0.53153 0.98532 0.0
C651 C 0.73053 0.51948 0.96642 0.0
C652 C 0.714 0.54745 0.01764 0.0
C653 C 0.65235 0.53583 0.99597 0.0
C654 C 0.70308 0.57562 0.02391 0.0
C655 C 0.70529 0.58798 0.05674 0.0
C656 C 0.71888 0.57252 0.08349 0.0
C657 C 0.73171 0.54537 0.07644 0.0
C658 C 0.72921 0.53291 0.04385 0.0
H659 H 0.63189 0.52406 0.98934 0.0
H660 H 0.65608 0.53368 0.02405 0.0
H661 H 0.6491 0.5593 0.99003 0.0
H662 H 0.69187 0.58753 1.00384 0.0
H663 H 0.69548 0.60911 0.06147 0.0
H664 H 0.91132 0.1382 0.40189 0.0
H665 H 0.93959 0.16368 0.44535 0.0
H666 H 0.92497 0.24549 0.39335 0.0
H667 H 0.89603 0.21993 0.34914 0.0
H668 H 0.98681 0.23075 0.41546 0.0
H669 H 0.90463 0.22148 0.5192 0.0
H670 H 0.90954 0.18817 0.49553 0.0
H671 H 0.89518 0.21986 0.47413 0.0
C672 C 0.91399 0.16162 0.39947 0.0
C673 C 0.90135 0.17707 0.37203 0.0
C674 C 0.93009 0.17615 0.4245 0.0
C675 C 0.93399 0.20644 0.42274 0.0
C676 C 0.92193 0.22208 0.39517 0.0
H677 H 0.01945 0.26248 0.61273 0.0
H678 H 0.9886 0.26742 0.56158 0.0
C679 C 0.90548 0.20748 0.37001 0.0
C680 C 0.95135 0.22089 0.44986 0.0
H681 H 0.95484 0.22558 0.53712 0.0
C682 C 0.97966 0.23044 0.44203 0.0
C683 C 0.94177 0.2209 0.48435 0.0
C684 C 0.911 0.21232 0.49386 0.0
C685 C 0.99951 0.23763 0.46824 0.0
C686 C 0.99084 0.23459 0.50299 0.0
C687 C 0.96169 0.22755 0.51054 0.0
C688 C 1.01209 0.23521 0.53177 0.0
C689 C 0.02979 0.24749 0.45844 0.0
C690 C 0.03573 0.21569 0.53192 0.0
C691 C 0.0534 0.21294 0.561 0.0
C692 C 0.0475 0.22938 0.59061 0.0
C693 C 0.02445 0.24956 0.59017 0.0
C694 C 1.00685 0.25242 0.56099 0.0
H695 H 0.02958 0.25918 0.43341 0.0
H696 H 0.03938 0.26208 0.47826 0.0
H697 H 0.04405 0.22808 0.45553 0.0
H698 H 0.03974 0.20154 0.51014 0.0
H699 H 0.07094 0.19711 0.56076 0.0
H700 H 0.1556 0.05974 0.69584 0.0
H701 H 0.17289 0.02907 0.64887 0.0
H702 H 0.23819 0.09349 0.62356 0.0
H703 H 0.22066 0.12466 0.67021 0.0
H704 H 0.20421 0.07936 0.56908 0.0
H705 H 0.243 0.97771 0.63086 0.0
H706 H 0.20695 0.9877 0.6444 0.0
H707 H 0.23733 1.01112 0.65461 0.0
C708 C 0.17413 0.06712 0.68088 0.0
C709 C 0.18664 0.09476 0.6867 0.0
C710 C 0.18412 0.04942 0.65409 0.0
C711 C 0.20704 0.05881 0.63285 0.0
C712 C 0.22055 0.08574 0.63972 0.0
H713 H 0.26045 0.99561 0.42969 0.0
H714 H 0.26047 0.02011 0.48567 0.0
C715 C 0.21052 0.10352 0.66645 0.0
C716 C 0.2143 0.04236 0.60108 0.0
H717 H 0.23217 0.97475 0.57048 0.0
C718 C 0.2108 0.05662 0.56941 0.0
C719 C 0.22265 0.01262 0.60152 0.0
C720 C 0.22798 0.99646 0.6347 0.0
C721 C 0.21431 0.04172 0.53818 0.0
C722 C 0.2221 1.01182 0.53858 0.0
C723 C 0.22621 0.99767 0.57023 0.0
C724 C 0.22466 0.99471 0.50633 0.0
C725 C 0.20842 0.05787 0.50506 0.0
C726 C 0.20548 0.97139 0.49998 0.0
C727 C 0.20563 0.95718 0.46815 0.0
C728 C 0.22499 0.96609 0.4422 0.0
C729 C 0.24513 0.98848 0.44917 0.0
C730 C 0.24507 1.00257 0.48105 0.0
H731 H 0.19614 0.07843 0.50946 0.0
H732 H 0.22948 0.06362 0.49272 0.0
H733 H 0.19582 0.04403 0.48688 0.0
H734 H 0.18964 0.96489 0.5192 0.0
H735 H 0.18995 0.93991 0.46346 0.0
H736 H 0.11154 0.80946 0.33747 0.0
H737 H 0.07558 0.78931 0.37823 0.0
H738 H 0.07069 0.8729 0.429 0.0
H739 H 0.1065 0.89279 0.38916 0.0
H740 H 0.08715 0.82451 0.47132 0.0
H741 H 0.98575 0.80381 0.39606 0.0
H742 H 0.02009 0.79151 0.37878 0.0
H743 H 0.01297 0.82986 0.38218 0.0
C744 C 0.1022 0.8236 0.35686 0.0
C745 C 0.11199 0.85255 0.36048 0.0
C746 C 0.08169 0.81212 0.38005 0.0
C747 C 0.07056 0.82966 0.40662 0.0
C748 C 0.07909 0.859 0.40875 0.0
H749 H 0.94288 0.83156 0.56335 0.0
H750 H 0.96986 0.83305 0.50906 0.0
C751 C 0.09961 0.8703 0.38601 0.0
C752 C 0.05267 0.81732 0.43477 0.0
H753 H 0.98387 0.79479 0.45569 0.0
C754 C 0.06468 0.81759 0.46791 0.0
C755 C 0.0234 0.80853 0.43007 0.0
C756 C 1.00954 0.80843 0.39494 0.0
C757 C 0.04786 0.81059 0.4968 0.0
C758 C 0.01834 0.80223 0.49233 0.0
C759 C 1.00656 0.80096 0.45899 0.0
C760 C 0.99893 0.79757 0.52233 0.0
C761 C 0.06148 0.81388 0.53196 0.0
C762 C 1.00556 0.77637 0.54719 0.0
C763 C 0.9905 0.77583 0.57843 0.0
C764 C 0.96823 0.79611 0.58494 0.0
C765 C 0.96008 0.81579 0.559 0.0
C766 C 0.97539 0.81657 0.52795 0.0
H767 H 0.0821 0.82666 0.53109 0.0
H768 H 0.04625 0.82487 0.54998 0.0
H769 H 0.06663 0.79195 0.54244 0.0
H770 H 0.02324 0.7611 0.54307 0.0
H771 H 0.99697 0.76022 0.59791 0.0
H772 H 0.85204 0.01699 0.43161 0.0
H773 H 0.84722 0.99341 0.48772 0.0
H774 H 0.76063 0.02901 0.49867 0.0
H775 H 0.76529 0.05268 0.44222 0.0
H776 H 0.83378 0.02412 0.553 0.0
H777 H 0.75317 0.9382 0.51618 0.0
H778 H 0.77541 0.95633 0.48434 0.0
H779 H 0.74622 0.9757 0.50476 0.0
C780 C 0.8319 0.0196 0.44583 0.0
C781 C 0.809 0.0365 0.43263 0.0
C782 C 0.82922 1.00628 0.4779 0.0
C783 C 0.80359 1.00953 0.49721 0.0
C784 C 0.7805 0.02615 0.48398 0.0
H785 H 0.8267 0.92452 0.70093 0.0
H786 H 0.80447 0.96066 0.66186 0.0
C787 C 0.78319 0.03958 0.45182 0.0
C788 C 0.80162 0.9953 0.53118 0.0
H789 H 0.7766 0.93315 0.56943 0.0
C790 C 0.82069 1.00468 0.55715 0.0
C791 C 0.78435 0.97011 0.53632 0.0
C792 C 0.76361 0.95925 0.50902 0.0
C793 C 0.82473 0.98812 0.5871 0.0
C794 C 0.80916 0.96167 0.59102 0.0
C795 C 0.7883 0.9536 0.56634 0.0
C796 C 0.81923 0.93917 0.61547 0.0
C797 C 0.84748 0.99759 0.61285 0.0
C798 C 0.83427 0.91511 0.6022 0.0
C799 C 0.84697 0.89487 0.62413 0.0
C800 C 0.8448 0.8981 0.65994 0.0
C801 C 0.82876 0.92161 0.67342 0.0
C802 C 0.81612 0.9422 0.65122 0.0
H803 H 0.85827 0.01839 0.60541 0.0
H804 H 0.83716 1.00057 0.6384 0.0
H805 H 0.86443 0.98042 0.61545 0.0
H806 H 0.83698 0.91247 0.5747 0.0
H807 H 0.85888 0.87682 0.61287 0.0
H808 H 0.38476 0.49372 0.19291 0.0
H809 H 0.42909 0.52303 0.19819 0.0
H810 H 0.46815 0.45594 0.26086 0.0
H811 H 0.42311 0.42759 0.25789 0.0
H812 H 0.48476 0.5053 0.28428 0.0
H813 H 0.5001 0.51075 0.14344 0.0
H814 H 0.46645 0.52732 0.15626 0.0
H815 H 0.47199 0.48871 0.16277 0.0
C816 C 0.40272 0.48521 0.20796 0.0
C817 C 0.40049 0.45782 0.22423 0.0
C818 C 0.42827 0.50194 0.21069 0.0
C819 C 0.45263 0.49133 0.2288 0.0
C820 C 0.44996 0.46459 0.2463 0.0
H821 H 0.62891 0.54954 0.18742 0.0
H822 H 0.58242 0.52418 0.19189 0.0
C823 C 0.42414 0.44821 0.24436 0.0
C824 C 0.48097 0.50773 0.22917 0.0
H825 H 0.53153 0.54026 0.17707 0.0
C826 C 0.49504 0.51281 0.26078 0.0
C827 C 0.49486 0.51724 0.19857 0.0
C828 C 0.48273 0.51045 0.16336 0.0
C829 C 0.52239 0.52688 0.26263 0.0
C830 C 0.53568 0.5374 0.23212 0.0
C831 C 0.52146 0.53251 0.20059 0.0
C832 C 0.56489 0.5522 0.23168 0.0
C833 C 0.53713 0.52924 0.29721 0.0
C834 C 0.57112 0.57644 0.25276 0.0
C835 C 0.59836 0.59053 0.25099 0.0
C836 C 0.61966 0.58124 0.22737 0.0
C837 C 0.61325 0.55721 0.20614 0.0
C838 C 0.58643 0.54274 0.20852 0.0
H839 H 0.52888 0.51245 0.3154 0.0
H840 H 0.56114 0.52674 0.29492 0.0
H841 H 0.53241 0.55098 0.30848 0.0
H842 H 0.55474 0.58494 0.27008 0.0
H843 H 0.60235 0.60927 0.26732 0.0
H844 H 0.42509 0.60363 0.76787 0.0
H845 H 0.45086 0.55679 0.76673 0.0
H846 H 0.51887 0.59333 0.83034 0.0
H847 H 0.49214 0.63921 0.83363 0.0
H848 H 0.49953 0.53735 0.74469 0.0
H849 H 0.50261 0.52365 0.88555 0.0
H850 H 0.48226 0.55258 0.86543 0.0
H851 H 0.52088 0.55661 0.87331 0.0
C852 C 0.44557 0.60164 0.78159 0.0
C853 C 0.45647 0.62517 0.80099 0.0
C854 C 0.46032 0.5748 0.78094 0.0
C855 C 0.48657 0.57102 0.79923 0.0
C856 C 0.49816 0.59507 0.81713 0.0
H857 H 0.60382 0.42158 0.76324 0.0
H858 H 0.57861 0.46861 0.75993 0.0
C859 C 0.483 0.62156 0.81862 0.0
C860 C 0.5017 0.54203 0.79971 0.0
H861 H 0.53367 0.49229 0.85325 0.0
C862 C 0.50676 0.52739 0.7685 0.0
C863 C 0.51072 0.52848 0.83073 0.0
C864 C 0.50353 0.54101 0.86561 0.0
C865 C 0.52071 0.49998 0.76738 0.0
C866 C 0.53126 0.48729 0.79824 0.0
C867 C 0.52602 0.50191 0.82943 0.0
C868 C 0.54674 0.45846 0.79935 0.0
C869 C 0.52301 0.48463 0.73317 0.0
C870 C 0.53829 0.43722 0.82349 0.0
C871 C 0.55342 0.41083 0.82633 0.0
C872 C 0.577 0.40446 0.80446 0.0
C873 C 0.5854 0.42551 0.78004 0.0
C874 C 0.57076 0.45239 0.77791 0.0
H875 H 0.50578 0.49209 0.71511 0.0
H876 H 0.54443 0.48981 0.72134 0.0
H877 H 0.52114 0.46059 0.73609 0.0
H878 H 0.51998 0.44111 0.84049 0.0
H879 H 0.5465 0.39539 0.84577 0.0
H880 H 0.93043 0.10978 0.27357 0.0
H881 H 0.97779 0.08513 0.26855 0.0
H882 H 0.93728 1.00338 0.29651 0.0
H883 H 0.89049 0.02812 0.30294 0.0
H884 H 0.98294 1.01086 0.33377 0.0
H885 H 0.01565 0.03335 0.19947 0.0
H886 H 1.00825 0.06614 0.22309 0.0
H887 H 0.97926 0.04044 0.21503 0.0
C888 C 0.93158 0.08643 0.27783 0.0
C889 C 0.90672 0.0709 0.28863 0.0
C890 C 0.95869 0.07228 0.27487 0.0
C891 C 0.9613 0.04219 0.28184 0.0
C892 C 0.93607 0.02656 0.29108 0.0
H893 H 0.11585 0.93228 0.24969 0.0
H894 H 0.0691 0.95788 0.24382 0.0
C895 C 0.90924 0.04073 0.29465 0.0
C896 C 0.99039 0.02729 0.28262 0.0
H897 H 0.05273 0.01443 0.23654 0.0
C898 C 0.99804 1.01156 0.31233 0.0
C899 C 1.01021 0.02776 0.25464 0.0
C900 C 1.00283 0.04257 0.22113 0.0
C901 C 0.02472 0.99661 0.31499 0.0
C902 C 0.04509 0.99815 0.28766 0.0
C903 C 0.03738 0.01351 0.25771 0.0
C904 C 0.07436 0.98386 0.28989 0.0
C905 C 0.03039 0.9787 0.34689 0.0
C906 C 0.09337 0.99038 0.31717 0.0
C907 C 0.11986 0.97553 0.32083 0.0
C908 C 0.12842 0.95415 0.29687 0.0
C909 C 0.10999 0.94854 0.26867 0.0
C910 C 0.08323 0.96321 0.26525 0.0
H911 H 1.00972 0.97235 0.35982 0.0
H912 H 0.0428 0.95855 0.34081 0.0
H913 H 0.04331 0.99189 0.36538 0.0
H914 H 0.08756 1.00679 0.33599 0.0
H915 H 0.13352 0.98071 0.34271 0.0
H916 H 0.09831 0.10229 0.7595 0.0
H917 H 0.07283 0.05543 0.76104 0.0
H918 H 0.01504 0.08504 0.68075 0.0
H919 H 0.04236 0.13063 0.6767 0.0
H920 H 0.02359 0.03672 0.77603 0.0
H921 H 0.03537 1.01106 0.63824 0.0
H922 H 0.05332 0.042 0.65743 0.0
H923 H 0.01581 0.04454 0.64348 0.0
C924 C 0.08051 0.09865 0.74172 0.0
C925 C 0.07298 0.12006 0.71733 0.0
C926 C 0.06571 0.07181 0.74281 0.0
C927 C 0.04241 0.06594 0.72021 0.0
C928 C 0.03373 0.08812 0.69736 0.0
H929 H 0.92355 0.91737 0.75868 0.0
H930 H 0.94786 0.965 0.75949 0.0
C931 C 0.0492 0.1145 0.69539 0.0
C932 C 0.02719 0.03685 0.72082 0.0
H933 H 1.00092 0.98236 0.66923 0.0
C934 C 0.01895 0.02473 0.75263 0.0
C935 C 0.02144 0.02058 0.69051 0.0
C936 C 0.03227 0.03008 0.65559 0.0
C937 C 1.00523 0.99721 0.75498 0.0
C938 C 0.99787 0.98181 0.72451 0.0
C939 C 1.00612 0.99398 0.69274 0.0
C940 C 0.98266 0.95269 0.72462 0.0
C941 C 0.99993 0.98465 0.7903 0.0
C942 C 0.99294 0.9299 0.7036 0.0
C943 C 0.97824 0.90312 0.70193 0.0
C944 C 0.95331 0.89789 0.72207 0.0
C945 C 0.94307 0.92045 0.7434 0.0
C946 C 0.95721 0.9477 0.74412 0.0
H947 H 0.01553 0.99371 0.80941 0.0
H948 H 0.97763 0.99057 0.7989 0.0
H949 H 1.00202 0.9605 0.79038 0.0
H950 H 0.01238 0.93284 0.68815 0.0
H951 H 0.98654 0.88647 0.68482 0.0
H952 H 0.26626 1.00249 0.27528 0.0
H953 H 0.28527 0.0487 0.25218 0.0
H954 H 0.20409 0.09113 0.27731 0.0
H955 H 0.18492 0.04534 0.29988 0.0
H956 H 0.22886 0.10914 0.21298 0.0
H957 H 0.30844 0.11316 0.32141 0.0
H958 H 0.30925 0.08176 0.29367 0.0
H959 H 0.27832 0.08777 0.32105 0.0
C960 C 0.25231 0.02156 0.27526 0.0
C961 C 0.22424 0.02037 0.28985 0.0
C962 C 0.26324 0.04794 0.26221 0.0
C963 C 0.24623 0.07342 0.26353 0.0
C964 C 0.21761 0.07176 0.2761 0.0
H965 H 0.23246 0.25155 0.27733 0.0
H966 H 0.22814 0.20073 0.25946 0.0
C967 C 0.20674 0.04555 0.28917 0.0
C968 C 0.25858 0.10253 0.25514 0.0
H969 H 0.30217 0.1556 0.28923 0.0
C970 C 0.24537 0.11916 0.22913 0.0
C971 C 0.28027 0.1155 0.27607 0.0
C972 C 0.29489 0.09882 0.30477 0.0
C973 C 0.25206 0.14889 0.22482 0.0
C974 C 0.27202 0.16242 0.24756 0.0
C975 C 0.28685 0.14524 0.27181 0.0
C976 C 0.27442 0.19468 0.25067 0.0
C977 C 0.23695 0.16571 0.19667 0.0
C978 C 0.30183 0.20852 0.25125 0.0
C979 C 0.30434 0.23769 0.26176 0.0
C980 C 0.27949 0.25328 0.27227 0.0
C981 C 0.25195 0.24 0.26941 0.0
C982 C 0.24945 0.21099 0.25886 0.0
H983 H 0.23222 0.15137 0.1743 0.0
H984 H 0.21578 0.17402 0.20643 0.0
H985 H 0.25029 0.18454 0.18786 0.0
H986 H 0.32142 0.1963 0.24534 0.0
H987 H 0.32585 0.24734 0.26403 0.0
H988 H 0.24799 0.69356 0.7557 0.0
H989 H 0.19776 0.6996 0.77673 0.0
H990 H 0.20021 0.79054 0.74791 0.0
H991 H 0.2503 0.78479 0.72776 0.0
H992 H 0.16871 0.77999 0.80918 0.0
H993 H 0.13455 0.70624 0.70232 0.0
H994 H 0.15962 0.69184 0.73353 0.0
H995 H 0.17111 0.72062 0.70524 0.0
C996 C 0.23803 0.71499 0.75484 0.0
C997 C 0.2528 0.73862 0.73963 0.0
C998 C 0.20931 0.71836 0.76657 0.0
C999 C 0.19507 0.74538 0.76319 0.0
C1000 C 0.2107 0.76946 0.75061 0.0
H1001 H 0.04577 0.83981 0.72952 0.0
H1002 H 0.09181 0.82051 0.75082 0.0
C1003 C 0.23925 0.76613 0.73893 0.0
C1004 C 0.16319 0.74837 0.76871 0.0
H1005 H 0.09819 0.73288 0.72986 0.0
C1006 C 0.15317 0.7692 0.79239 0.0
C1007 C 0.14289 0.7342 0.74688 0.0
C1008 C 0.15242 0.71208 0.72038 0.0
C1009 C 0.12367 0.77749 0.79339 0.0
C1010 C 0.10385 0.76494 0.76974 0.0
C1011 C 0.11343 0.7425 0.74795 0.0
C1012 C 0.07461 0.77771 0.76316 0.0
C1013 C 0.11425 0.80038 0.81892 0.0
C1014 C 0.04943 0.76015 0.76312 0.0
C1015 C 0.02292 0.77117 0.75073 0.0
C1016 C 0.02136 0.79977 0.73767 0.0
C1017 C 0.04626 0.81766 0.73932 0.0
C1018 C 0.07259 0.80673 0.75185 0.0
H1019 H 0.12796 0.7996 0.84247 0.0
H1020 H 0.11699 0.82234 0.80727 0.0
H1021 H 0.09102 0.79757 0.82633 0.0
H1022 H 0.05058 0.73759 0.77139 0.0
H1023 H 1.00412 0.75683 0.74966 0.0
H1024 H 0.73714 0.77856 0.2466 0.0
H1025 H 0.74289 0.82917 0.22623 0.0
H1026 H 0.7092 0.86098 0.32264 0.0
H1027 H 0.70338 0.81075 0.34291 0.0
H1028 H 0.6899 0.89309 0.26063 0.0
H1029 H 0.81028 0.87822 0.27131 0.0
H1030 H 0.79033 0.85251 0.24537 0.0
H1031 H 0.78482 0.85321 0.291 0.0
C1032 C 0.73031 0.79639 0.26301 0.0
C1033 C 0.72009 0.79083 0.29642 0.0
C1034 C 0.73374 0.82524 0.25147 0.0
C1035 C 0.72678 0.84882 0.27311 0.0
C1036 C 0.71473 0.84315 0.30555 0.0
H1037 H 0.75123 0.02938 0.31114 0.0
H1038 H 0.72987 0.9813 0.30148 0.0
C1039 C 0.71152 0.81447 0.31714 0.0
C1040 C 0.73469 0.8793 0.26395 0.0
H1041 H 0.79327 0.92525 0.25997 0.0
C1042 C 0.7125 0.90014 0.25991 0.0
C1043 C 0.76418 0.88843 0.26305 0.0
C1044 C 0.78889 0.86708 0.26808 0.0
C1045 C 0.71902 0.92999 0.25572 0.0
C1046 C 0.74851 0.93932 0.25655 0.0
C1047 C 0.77067 0.91823 0.25923 0.0
C1048 C 0.75714 0.97073 0.25776 0.0
C1049 C 0.69422 0.95116 0.25062 0.0
C1050 C 0.77933 0.98129 0.23613 0.0
C1051 C 0.79194 1.0087 0.24199 0.0
C1052 C 0.78257 0.02621 0.26955 0.0
C1053 C 0.75879 0.01664 0.28946 0.0
C1054 C 0.74643 0.98905 0.28385 0.0
H1055 H 0.67539 0.94039 0.23782 0.0
H1056 H 0.68666 0.95905 0.27606 0.0
H1057 H 0.70102 0.97028 0.23499 0.0
H1058 H 0.78801 0.96765 0.21583 0.0
H1059 H 0.8102 0.01543 0.22616 0.0
H1060 H 0.02852 0.26341 0.751 0.0
H1061 H 0.98288 0.28506 0.77185 0.0
H1062 H 0.94022 0.2014 0.76265 0.0
H1063 H 0.9855 0.17971 0.74236 0.0
H1064 H 0.93487 0.28739 0.73159 0.0
H1065 H 0.90544 0.23045 0.85145 0.0
H1066 H 0.94209 0.23002 0.83431 0.0
H1067 H 0.915 0.20471 0.81865 0.0
C1068 C 1.00965 0.24946 0.75453 0.0
C1069 C 1.01057 0.21988 0.74485 0.0
C1070 C 0.98356 0.26188 0.76636 0.0
C1071 C 0.95813 0.24483 0.76919 0.0
C1072 C 0.95961 0.21492 0.7615 0.0
H1073 H 0.78043 0.24219 0.73888 0.0
H1074 H 0.83071 0.23536 0.75803 0.0
C1075 C 0.98553 0.20257 0.74957 0.0
C1076 C 0.92915 0.25862 0.77481 0.0
H1077 H 0.86461 0.24863 0.81717 0.0
C1078 C 0.91973 0.2796 0.75096 0.0
C1079 C 0.90939 0.24847 0.80008 0.0
C1080 C 0.91864 0.22739 0.82777 0.0
C1081 C 0.89051 0.28877 0.74978 0.0
C1082 C 0.87024 0.277 0.77353 0.0
C1083 C 0.88012 0.25758 0.79892 0.0
C1084 C 0.83833 0.28109 0.76888 0.0
C1085 C 0.88112 0.30921 0.72141 0.0
C1086 C 0.82539 0.3089 0.77023 0.0
C1087 C 0.79651 0.31285 0.7592 0.0
C1088 C 0.78029 0.28904 0.74669 0.0
C1089 C 0.79256 0.26095 0.74811 0.0
C1090 C 0.82126 0.25702 0.75914 0.0
H1091 H 0.8987 0.31294 0.70223 0.0
H1092 H 0.86169 0.30038 0.70785 0.0
H1093 H 0.87509 0.33064 0.73263 0.0
H1094 H 0.83805 0.32771 0.77818 0.0
H1095 H 0.78758 0.33473 0.75831 0.0
H1096 H 0.73319 0.27252 0.22392 0.0
H1097 H 0.72597 0.32363 0.23962 0.0
H1098 H 0.81698 0.33088 0.26661 0.0
H1099 H 0.82448 0.27961 0.25008 0.0
H1100 H 0.73555 0.3586 0.29782 0.0
H1101 H 0.80763 0.39041 0.18867 0.0
H1102 H 0.79462 0.35352 0.19423 0.0
H1103 H 0.8234 0.36733 0.22105 0.0
C1104 C 0.75157 0.28486 0.23378 0.0
C1105 C 0.77948 0.27222 0.23534 0.0
C1106 C 0.7474 0.31405 0.24284 0.0
C1107 C 0.77105 0.33127 0.25359 0.0
C1108 C 0.79854 0.31813 0.25776 0.0
H1109 H 0.76056 0.52334 0.24187 0.0
H1110 H 0.77906 0.47538 0.2599 0.0
C1111 C 0.80274 0.28877 0.24868 0.0
C1112 C 0.76698 0.36334 0.25706 0.0
H1113 H 0.78203 0.42772 0.21627 0.0
C1114 C 0.7461 0.37381 0.28041 0.0
C1115 C 0.78076 0.38322 0.23434 0.0
C1116 C 0.80272 0.3732 0.20795 0.0
C1117 C 0.73777 0.40335 0.28068 0.0
C1118 C 0.75033 0.42284 0.25663 0.0
C1119 C 0.77244 0.41276 0.23471 0.0
C1120 C 0.7384 0.45259 0.25064 0.0
C1121 C 0.71507 0.41325 0.30617 0.0
C1122 C 0.70939 0.45577 0.23974 0.0
C1123 C 0.69888 0.48296 0.22931 0.0
C1124 C 0.71715 0.50766 0.22944 0.0
C1125 C 0.7459 0.50477 0.24166 0.0
C1126 C 0.75651 0.47738 0.2519 0.0
H1127 H 0.7152 0.39933 0.32955 0.0
H1128 H 0.71861 0.43634 0.3139 0.0
H1129 H 0.69313 0.41143 0.29426 0.0
H1130 H 0.69518 0.43692 0.23778 0.0
H1131 H 0.67663 0.48441 0.22006 0.0
H1132 H 0.51844 0.26098 0.79731 0.0
H1133 H 0.47007 0.24367 0.78012 0.0
H1134 H 0.44501 0.33196 0.75504 0.0
H1135 H 0.49286 0.34943 0.77369 0.0
H1136 H 0.40802 0.30968 0.79754 0.0
H1137 H 0.42453 0.22803 0.69487 0.0
H1138 H 0.44612 0.21972 0.732 0.0
H1139 H 0.45307 0.25278 0.70822 0.0
C1140 C 0.50289 0.27655 0.78718 0.0
C1141 C 0.50932 0.30656 0.78701 0.0
C1142 C 0.47523 0.26661 0.77713 0.0
C1143 C 0.45382 0.28644 0.76594 0.0
C1144 C 0.46107 0.3162 0.76357 0.0
H1145 H 0.26403 0.26672 0.74737 0.0
H1146 H 0.31441 0.27895 0.7308 0.0
C1147 C 0.48844 0.32617 0.77421 0.0
C1148 C 0.4229 0.27702 0.76172 0.0
H1149 H 0.37856 0.22522 0.72556 0.0
C1150 C 0.40159 0.29161 0.78118 0.0
C1151 C 0.41435 0.2533 0.74056 0.0
C1152 C 0.43572 0.23777 0.71747 0.0
C1153 C 0.37238 0.28256 0.78107 0.0
C1154 C 0.36409 0.25823 0.76099 0.0
C1155 C 0.38506 0.24393 0.74086 0.0
C1156 C 0.33415 0.24625 0.76347 0.0
C1157 C 0.35065 0.29835 0.80353 0.0
C1158 C 0.32872 0.2231 0.78617 0.0
C1159 C 0.30014 0.21627 0.79572 0.0
C1160 C 0.27659 0.23229 0.78241 0.0
C1161 C 0.28187 0.25383 0.7575 0.0
C1162 C 0.31056 0.26085 0.74814 0.0
H1163 H 0.36107 0.31553 0.81956 0.0
H1164 H 0.33379 0.30878 0.78716 0.0
H1165 H 0.3394 0.2826 0.82074 0.0
H1166 H 0.34666 0.2118 0.79848 0.0
H1167 H 0.29651 0.19982 0.81529 0.0
H1168 H 0.25131 0.75716 0.27836 0.0
H1169 H 0.25912 0.70707 0.29953 0.0
H1170 H 0.21182 0.67312 0.21238 0.0
H1171 H 0.20388 0.72279 0.19145 0.0
H1172 H 0.20117 0.64262 0.27655 0.0
H1173 H 0.31922 0.65653 0.24578 0.0
H1174 H 0.30293 0.68234 0.27484 0.0
H1175 H 0.29195 0.68181 0.23058 0.0
C1176 C 0.24195 0.73898 0.26435 0.0
C1177 C 0.22724 0.74371 0.23315 0.0
C1178 C 0.24658 0.71043 0.27627 0.0
C1179 C 0.23643 0.68639 0.2572 0.0
C1180 C 0.21991 0.69132 0.22744 0.0
H1181 H 0.25147 0.50769 0.21213 0.0
H1182 H 0.23482 0.5569 0.22536 0.0
C1183 C 0.21544 0.71968 0.21547 0.0
C1184 C 0.24525 0.65605 0.26568 0.0
H1185 H 0.30313 0.60952 0.25928 0.0
C1186 C 0.22355 0.6354 0.27342 0.0
C1187 C 0.27447 0.6467 0.26163 0.0
C1188 C 0.29858 0.66785 0.25257 0.0
C1189 C 0.23012 0.60549 0.27597 0.0
C1190 C 0.25902 0.59594 0.2698 0.0
C1191 C 0.28097 0.6168 0.26396 0.0
C1192 C 0.26658 0.56454 0.2656 0.0
C1193 C 0.20591 0.58442 0.28472 0.0
C1194 C 0.2901 0.55227 0.28369 0.0
C1195 C 0.29995 0.52409 0.27586 0.0
C1196 C 0.28656 0.5077 0.24962 0.0
C1197 C 0.26224 0.51959 0.23259 0.0
C1198 C 0.2525 0.54774 0.24034 0.0
H1199 H 0.18893 0.59512 0.30072 0.0
H1200 H 0.19529 0.57695 0.26064 0.0
H1201 H 0.2143 0.56502 0.29869 0.0
H1202 H 0.30145 0.56486 0.30312 0.0
H1203 H 0.31875 0.51565 0.28947 0.0
H1204 H 0.50517 0.76892 0.7815 0.0
H1205 H 0.55212 0.78737 0.7598 0.0
H1206 H 0.59178 0.70399 0.78134 0.0
H1207 H 0.54537 0.68562 0.80293 0.0
H1208 H 0.60121 0.79015 0.80248 0.0
H1209 H 0.62634 0.72438 0.68742 0.0
H1210 H 0.58969 0.72835 0.70393 0.0
H1211 H 0.61421 0.70199 0.72247 0.0
C1212 C 0.52376 0.75436 0.78071 0.0
C1213 C 0.5217 0.7259 0.79407 0.0
C1214 C 0.55053 0.76491 0.76836 0.0
C1215 C 0.57536 0.74693 0.76851 0.0
C1216 C 0.57282 0.71807 0.78024 0.0
H1217 H 0.75181 0.73193 0.79546 0.0
H1218 H 0.70098 0.72892 0.77719 0.0
C1219 C 0.54631 0.70767 0.7929 0.0
C1220 C 0.60482 0.75896 0.7614 0.0
H1221 H 0.66817 0.74258 0.71955 0.0
C1222 C 0.61572 0.78047 0.78365 0.0
C1223 C 0.62364 0.74625 0.73682 0.0
C1224 C 0.61277 0.72417 0.71107 0.0
C1225 C 0.64553 0.78761 0.78423 0.0
C1226 C 0.66481 0.77331 0.76129 0.0
C1227 C 0.65344 0.75349 0.73718 0.0
C1228 C 0.69695 0.77502 0.76583 0.0
C1229 C 0.65644 0.80855 0.81135 0.0
C1230 C 0.71207 0.8017 0.76393 0.0
C1231 C 0.7412 0.80352 0.77476 0.0
C1232 C 0.75558 0.77864 0.78745 0.0
C1233 C 0.74111 0.75156 0.7864 0.0
C1234 C 0.7121 0.74979 0.77575 0.0
H1235 H 0.6393 0.8141 0.83044 0.0
H1236 H 0.67538 0.79913 0.82525 0.0
H1237 H 0.66367 0.82912 0.79889 0.0
H1238 H 0.70096 0.82133 0.75565 0.0
H1239 H 0.75182 0.82467 0.77521 0.0
loop_
_geom_bond_atom_site_label_1
_geom_bond_atom_site_label_2
_geom_bond_distance
_geom_bond_site_symmetry_2
_ccdc_geom_bond_type
O0 Tb1 2.292 . S
O0 C3 1.255 . S
Tb1 O0 2.292 . S
Tb1 O17 2.326 . S
Tb1 O19 2.500 . S
Tb1 O20 2.473 . S
Tb1 O23 2.324 . S
Eu2 O6 2.292 . S
Eu2 C7 2.852 . S
Eu2 O18 2.324 . S
Eu2 O22 2.326 . S
Eu2 O24 2.500 . S
Eu2 O25 2.473 . S
C3 O0 1.255 . S
C3 O4 1.247 . S
O4 C3 1.247 . S
C5 O17 1.242 . S
C5 O18 1.258 . S
O6 Eu2 2.292 . S
O6 C8 1.255 . S
C7 Eu2 2.852 . S
C7 C11 1.503 . S
C7 O24 1.273 . S
C7 O25 1.257 . S
C8 O6 1.255 . S
C8 O9 1.247 . S
O9 C8 1.247 . S
C10 O22 1.242 . S
C10 O23 1.258 . S
C11 C7 1.503 . S
C11 C12 1.379 . S
C11 C16 1.392 . S
C12 C11 1.379 . S
C12 C13 1.404 . S
C12 H26 0.929 . S
C13 C12 1.404 . S
C13 C14 1.389 . S
C14 C13 1.389 . S
C14 C15 1.399 . S
C14 H27 0.931 . S
C15 C14 1.399 . S
C15 C16 1.390 . S
C16 C11 1.392 . S
C16 C15 1.390 . S
C16 H28 0.929 . S
O17 Tb1 2.326 . S
O17 C5 1.242 . S
O18 Eu2 2.324 . S
O18 C5 1.258 . S
O19 Tb1 2.500 . S
O19 C21 1.273 . S
O20 Tb1 2.473 . S
O20 C21 1.257 . S
C21 O19 1.273 . S
C21 O20 1.257 . S
O22 Eu2 2.326 . S
O22 C10 1.242 . S
O23 Tb1 2.324 . S
O23 C10 1.258 . S
O24 Eu2 2.500 . S
O24 C7 1.273 . S
O25 Eu2 2.473 . S
O25 C7 1.257 . S
H26 C12 0.929 . S
H27 C14 0.931 . S
H28 C16 0.929 . S
O29 Tb30 2.292 . S
O29 C32 1.255 . S
Tb30 O29 2.292 . S
Tb30 O46 2.326 . S
Tb30 O48 2.500 . S
Tb30 O49 2.473 . S
Tb30 O52 2.324 . S
Eu31 O35 2.292 . S
Eu31 C36 2.852 . S
Eu31 O47 2.324 . S
Eu31 O51 2.326 . S
Eu31 O53 2.500 . S
Eu31 O54 2.473 . S
C32 O29 1.255 . S
C32 O33 1.247 . S
O33 C32 1.247 . S
C34 O46 1.242 . S
C34 O47 1.258 . S
O35 Eu31 2.292 . S
O35 C37 1.255 . S
C36 Eu31 2.852 . S
C36 C40 1.503 . S
C36 O53 1.273 . S
C36 O54 1.257 . S
C37 O35 1.255 . S
C37 O38 1.247 . S
O38 C37 1.247 . S
C39 O51 1.242 . S
C39 O52 1.258 . S
C40 C36 1.503 . S
C40 C41 1.379 . S
C40 C45 1.392 . S
C41 C40 1.379 . S
C41 C42 1.404 . S
C41 H55 0.929 . S
C42 C41 1.404 . S
C42 C43 1.389 . S
C43 C42 1.389 . S
C43 C44 1.399 . S
C43 H56 0.931 . S
C44 C43 1.399 . S
C44 C45 1.390 . S
C45 C40 1.392 . S
C45 C44 1.390 . S
C45 H57 0.929 . S
O46 Tb30 2.326 . S
O46 C34 1.242 . S
O47 Eu31 2.324 . S
O47 C34 1.258 . S
O48 Tb30 2.500 . S
O48 C50 1.273 . S
O49 Tb30 2.473 . S
O49 C50 1.257 . S
C50 O48 1.273 . S
C50 O49 1.257 . S
O51 Eu31 2.326 . S
O51 C39 1.242 . S
O52 Tb30 2.324 . S
O52 C39 1.258 . S
O53 Eu31 2.500 . S
O53 C36 1.273 . S
O54 Eu31 2.473 . S
O54 C36 1.257 . S
H55 C41 0.929 . S
H56 C43 0.931 . S
H57 C45 0.929 . S
O58 Tb59 2.292 . S
O58 C61 1.255 . S
Tb59 O58 2.292 . S
Tb59 O75 2.326 . S
Tb59 O77 2.500 . S
Tb59 O78 2.473 . S
Tb59 O81 2.324 . S
Eu60 O64 2.292 . S
Eu60 C65 2.852 . S
Eu60 O76 2.324 . S
Eu60 O80 2.326 . S
Eu60 O82 2.500 . S
Eu60 O83 2.473 . S
C61 O58 1.255 . S
C61 O62 1.247 . S
O62 C61 1.247 . S
C63 O75 1.242 . S
C63 O76 1.258 . S
O64 Eu60 2.292 . S
O64 C66 1.255 . S
C65 Eu60 2.852 . S
C65 C69 1.503 . S
C65 O82 1.273 . S
C65 O83 1.257 . S
C66 O64 1.255 . S
C66 O67 1.247 . S
O67 C66 1.247 . S
C68 O80 1.242 . S
C68 O81 1.258 . S
C69 C65 1.503 . S
C69 C70 1.379 . S
C69 C74 1.392 . S
C70 C69 1.379 . S
C70 C71 1.404 . S
C70 H84 0.929 . S
C71 C70 1.404 . S
C71 C72 1.389 . S
C72 C71 1.389 . S
C72 C73 1.399 . S
C72 H85 0.931 . S
C73 C72 1.399 . S
C73 C74 1.390 . S
C74 C69 1.392 . S
C74 C73 1.390 . S
C74 H86 0.929 . S
O75 Tb59 2.326 . S
O75 C63 1.242 . S
O76 Eu60 2.324 . S
O76 C63 1.258 . S
O77 Tb59 2.500 . S
O77 C79 1.273 . S
O78 Tb59 2.473 . S
O78 C79 1.257 . S
C79 O77 1.273 . S
C79 O78 1.257 . S
O80 Eu60 2.326 . S
O80 C68 1.242 . S
O81 Tb59 2.324 . S
O81 C68 1.258 . S
O82 Eu60 2.500 . S
O82 C65 1.273 . S
O83 Eu60 2.473 . S
O83 C65 1.257 . S
H84 C70 0.929 . S
H85 C72 0.931 . S
H86 C74 0.929 . S
O87 Tb88 2.292 . S
O87 C90 1.255 . S
Tb88 O87 2.292 . S
Tb88 O104 2.326 . S
Tb88 O106 2.500 . S
Tb88 O107 2.473 . S
Tb88 O110 2.324 . S
Eu89 O93 2.292 . S
Eu89 C94 2.852 . S
Eu89 O105 2.324 . S
Eu89 O109 2.326 . S
Eu89 O111 2.500 . S
Eu89 O112 2.473 . S
C90 O87 1.255 . S
C90 O91 1.247 . S
O91 C90 1.247 . S
C92 O104 1.242 . S
C92 O105 1.258 . S
O93 Eu89 2.292 . S
O93 C95 1.255 . S
C94 Eu89 2.852 . S
C94 C98 1.503 . S
C94 O111 1.273 . S
C94 O112 1.257 . S
C95 O93 1.255 . S
C95 O96 1.247 . S
O96 C95 1.247 . S
C97 O109 1.242 . S
C97 O110 1.258 . S
C98 C94 1.503 . S
C98 C99 1.379 . S
C98 C103 1.392 . S
C99 C98 1.379 . S
C99 C100 1.404 . S
C99 H113 0.929 . S
C100 C99 1.404 . S
C100 C101 1.389 . S
C101 C100 1.389 . S
C101 C102 1.399 . S
C101 H114 0.931 . S
C102 C101 1.399 . S
C102 C103 1.390 . S
C103 C98 1.392 . S
C103 C102 1.390 . S
C103 H115 0.929 . S
O104 Tb88 2.326 . S
O104 C92 1.242 . S
O105 Eu89 2.324 . S
O105 C92 1.258 . S
O106 Tb88 2.500 . S
O106 C108 1.273 . S
O107 Tb88 2.473 . S
O107 C108 1.257 . S
C108 O106 1.273 . S
C108 O107 1.257 . S
O109 Eu89 2.326 . S
O109 C97 1.242 . S
O110 Tb88 2.324 . S
O110 C97 1.258 . S
O111 Eu89 2.500 . S
O111 C94 1.273 . S
O112 Eu89 2.473 . S
O112 C94 1.257 . S
H113 C99 0.929 . S
H114 C101 0.931 . S
H115 C103 0.929 . S
O116 Tb117 2.292 . S
O116 C119 1.255 . S
Tb117 O116 2.292 . S
Tb117 O133 2.326 . S
Tb117 O135 2.500 . S
Tb117 O136 2.473 . S
Tb117 O139 2.324 . S
Eu118 O122 2.292 . S
Eu118 C123 2.852 . S
Eu118 O134 2.324 . S
Eu118 O138 2.326 . S
Eu118 O140 2.500 . S
Eu118 O141 2.473 . S
C119 O116 1.255 . S
C119 O120 1.247 . S
O120 C119 1.247 . S
C121 O133 1.242 . S
C121 O134 1.258 . S
O122 Eu118 2.292 . S
O122 C124 1.255 . S
C123 Eu118 2.852 . S
C123 C127 1.503 . S
C123 O140 1.273 . S
C123 O141 1.257 . S
C124 O122 1.255 . S
C124 O125 1.247 . S
O125 C124 1.247 . S
C126 O138 1.242 . S
C126 O139 1.258 . S
C127 C123 1.503 . S
C127 C128 1.379 . S
C127 C132 1.392 . S
C128 C127 1.379 . S
C128 C129 1.404 . S
C128 H142 0.929 . S
C129 C128 1.404 . S
C129 C130 1.389 . S
C130 C129 1.389 . S
C130 C131 1.399 . S
C130 H143 0.931 . S
C131 C130 1.399 . S
C131 C132 1.390 . S
C132 C127 1.392 . S
C132 C131 1.390 . S
C132 H144 0.929 . S
O133 Tb117 2.326 . S
O133 C121 1.242 . S
O134 Eu118 2.324 . S
O134 C121 1.258 . S
O135 Tb117 2.500 . S
O135 C137 1.273 . S
O136 Tb117 2.473 . S
O136 C137 1.257 . S
C137 O135 1.273 . S
C137 O136 1.257 . S
O138 Eu118 2.326 . S
O138 C126 1.242 . S
O139 Tb117 2.324 . S
O139 C126 1.258 . S
O140 Eu118 2.500 . S
O140 C123 1.273 . S
O141 Eu118 2.473 . S
O141 C123 1.257 . S
H142 C128 0.929 . S
H143 C130 0.931 . S
H144 C132 0.929 . S
O145 Tb146 2.292 . S
O145 C148 1.255 . S
Tb146 O145 2.292 . S
Tb146 O162 2.326 . S
Tb146 O164 2.500 . S
Tb146 O165 2.473 . S
Tb146 O168 2.324 . S
Eu147 O151 2.292 . S
Eu147 C152 2.852 . S
Eu147 O163 2.324 . S
Eu147 O167 2.326 . S
Eu147 O169 2.500 . S
Eu147 O170 2.473 . S
C148 O145 1.255 . S
C148 O149 1.247 . S
O149 C148 1.247 . S
C150 O162 1.242 . S
C150 O163 1.258 . S
O151 Eu147 2.292 . S
O151 C153 1.255 . S
C152 Eu147 2.852 . S
C152 C156 1.503 . S
C152 O169 1.273 . S
C152 O170 1.257 . S
C153 O151 1.255 . S
C153 O154 1.247 . S
O154 C153 1.247 . S
C155 O167 1.242 . S
C155 O168 1.258 . S
C156 C152 1.503 . S
C156 C157 1.379 . S
C156 C161 1.392 . S
C157 C156 1.379 . S
C157 C158 1.404 . S
C157 H171 0.929 . S
C158 C157 1.404 . S
C158 C159 1.389 . S
C159 C158 1.389 . S
C159 C160 1.399 . S
C159 H172 0.931 . S
C160 C159 1.399 . S
C160 C161 1.390 . S
C161 C156 1.392 . S
C161 C160 1.390 . S
C161 H173 0.929 . S
O162 Tb146 2.326 . S
O162 C150 1.242 . S
O163 Eu147 2.324 . S
O163 C150 1.258 . S
O164 Tb146 2.500 . S
O164 C166 1.273 . S
O165 Tb146 2.473 . S
O165 C166 1.257 . S
C166 O164 1.273 . S
C166 O165 1.257 . S
O167 Eu147 2.326 . S
O167 C155 1.242 . S
O168 Tb146 2.324 . S
O168 C155 1.258 . S
O169 Eu147 2.500 . S
O169 C152 1.273 . S
O170 Eu147 2.473 . S
O170 C152 1.257 . S
H171 C157 0.929 . S
H172 C159 0.931 . S
H173 C161 0.929 . S
O174 Tb175 2.292 . S
O174 C177 1.255 . S
Tb175 O174 2.292 . S
Tb175 O191 2.326 . S
Tb175 O193 2.500 . S
Tb175 O194 2.473 . S
Tb175 O197 2.324 . S
Eu176 O180 2.292 . S
Eu176 C181 2.852 . S
Eu176 O192 2.324 . S
Eu176 O196 2.326 . S
Eu176 O198 2.500 . S
Eu176 O199 2.473 . S
C177 O174 1.255 . S
C177 O178 1.247 . S
O178 C177 1.247 . S
C179 O191 1.242 . S
C179 O192 1.258 . S
O180 Eu176 2.292 . S
O180 C182 1.255 . S
C181 Eu176 2.852 . S
C181 C185 1.503 . S
C181 O198 1.273 . S
C181 O199 1.257 . S
C182 O180 1.255 . S
C182 O183 1.247 . S
O183 C182 1.247 . S
C184 O196 1.242 . S
C184 O197 1.258 . S
C185 C181 1.503 . S
C185 C186 1.379 . S
C185 C190 1.392 . S
C186 C185 1.379 . S
C186 C187 1.404 . S
C186 H200 0.929 . S
C187 C186 1.404 . S
C187 C188 1.389 . S
C188 C187 1.389 . S
C188 C189 1.399 . S
C188 H201 0.931 . S
C189 C188 1.399 . S
C189 C190 1.390 . S
C190 C185 1.392 . S
C190 C189 1.390 . S
C190 H202 0.929 . S
O191 Tb175 2.326 . S
O191 C179 1.242 . S
O192 Eu176 2.324 . S
O192 C179 1.258 . S
O193 Tb175 2.500 . S
O193 C195 1.273 . S
O194 Tb175 2.473 . S
O194 C195 1.257 . S
C195 O193 1.273 . S
C195 O194 1.257 . S
O196 Eu176 2.326 . S
O196 C184 1.242 . S
O197 Tb175 2.324 . S
O197 C184 1.258 . S
O198 Eu176 2.500 . S
O198 C181 1.273 . S
O199 Eu176 2.473 . S
O199 C181 1.257 . S
H200 C186 0.929 . S
H201 C188 0.931 . S
H202 C190 0.929 . S
O203 Tb204 2.292 . S
O203 C206 1.255 . S
Tb204 O203 2.292 . S
Tb204 O220 2.326 . S
Tb204 O222 2.500 . S
Tb204 O223 2.473 . S
Tb204 O226 2.324 . S
Eu205 O209 2.292 . S
Eu205 C210 2.852 . S
Eu205 O221 2.324 . S
Eu205 O225 2.326 . S
Eu205 O227 2.500 . S
Eu205 O228 2.473 . S
C206 O203 1.255 . S
C206 O207 1.247 . S
O207 C206 1.247 . S
C208 O220 1.242 . S
C208 O221 1.258 . S
O209 Eu205 2.292 . S
O209 C211 1.255 . S
C210 Eu205 2.852 . S
C210 C214 1.503 . S
C210 O227 1.273 . S
C210 O228 1.257 . S
C211 O209 1.255 . S
C211 O212 1.247 . S
O212 C211 1.247 . S
C213 O225 1.242 . S
C213 O226 1.258 . S
C214 C210 1.503 . S
C214 C215 1.379 . S
C214 C219 1.392 . S
C215 C214 1.379 . S
C215 C216 1.404 . S
C215 H229 0.929 . S
C216 C215 1.404 . S
C216 C217 1.389 . S
C217 C216 1.389 . S
C217 C218 1.399 . S
C217 H230 0.931 . S
C218 C217 1.399 . S
C218 C219 1.390 . S
C219 C214 1.392 . S
C219 C218 1.390 . S
C219 H231 0.929 . S
O220 Tb204 2.326 . S
O220 C208 1.242 . S
O221 Eu205 2.324 . S
O221 C208 1.258 . S
O222 Tb204 2.500 . S
O222 C224 1.273 . S
O223 Tb204 2.473 . S
O223 C224 1.257 . S
C224 O222 1.273 . S
C224 O223 1.257 . S
O225 Eu205 2.326 . S
O225 C213 1.242 . S
O226 Tb204 2.324 . S
O226 C213 1.258 . S
O227 Eu205 2.500 . S
O227 C210 1.273 . S
O228 Eu205 2.473 . S
O228 C210 1.257 . S
H229 C215 0.929 . S
H230 C217 0.931 . S
H231 C219 0.929 . S
H232 C240 0.929 . S
H233 C242 0.930 . S
H234 C244 0.930 1_556 S
H235 C247 0.929 . S
H236 C250 0.930 . S
H237 C252 0.960 . S
H238 C252 0.960 . S
H239 C252 0.960 . S
C240 H232 0.929 . S
C240 C241 1.377 . S
C240 C242 1.384 . S
C241 C240 1.377 . S
C241 C247 1.390 . S
C242 H233 0.930 . S
C242 C240 1.384 . S
C242 C243 1.349 1_554 S
C243 C242 1.349 1_556 S
C243 C244 1.392 1_556 S
C243 C248 1.520 . S
C244 H234 0.930 1_554 S
C244 C243 1.392 1_554 S
C244 C247 1.386 . S
H245 C261 0.930 . S
H246 C262 0.931 . S
C247 H235 0.929 . S
C247 C241 1.390 . S
C247 C244 1.386 . S
C248 C243 1.520 . S
C248 C250 1.395 . S
C248 C251 1.403 . S
H249 C255 0.930 . S
C250 H236 0.930 . S
C250 C248 1.395 . S
C250 C253 1.403 . S
C251 C248 1.403 . S
C251 C252 1.524 . S
C251 C255 1.400 . S
C252 H237 0.960 . S
C252 H238 0.960 . S
C252 H239 0.960 . S
C252 C251 1.524 . S
C253 C250 1.403 . S
C253 C254 1.392 . S
C253 C257 1.495 . S
C254 C253 1.392 . S
C254 C255 1.385 . S
C254 C256 1.478 . S
C255 H249 0.930 . S
C255 C251 1.400 . S
C255 C254 1.385 . S
C256 C254 1.478 . S
C256 C258 1.381 . S
C256 C262 1.383 . S
C257 C253 1.495 . S
C257 H263 0.959 . S
C257 H264 0.961 . S
C257 H265 0.960 . S
C258 C256 1.381 . S
C258 C259 1.394 . S
C258 H266 0.930 . S
C259 C258 1.394 . S
C259 C260 1.383 . S
C259 H267 0.929 . S
C260 C259 1.383 . S
C260 C261 1.377 . S
C261 H245 0.930 . S
C261 C260 1.377 . S
C261 C262 1.379 . S
C262 H246 0.931 . S
C262 C256 1.383 . S
C262 C261 1.379 . S
H263 C257 0.959 . S
H264 C257 0.961 . S
H265 C257 0.960 . S
H266 C258 0.930 . S
H267 C259 0.929 . S
H268 C276 0.929 . S
H269 C278 0.930 1_554 S
H270 C280 0.930 . S
H271 C283 0.929 . S
H272 C286 0.930 . S
H273 C288 0.960 . S
H274 C288 0.960 . S
H275 C288 0.960 1_556 S
C276 H268 0.929 . S
C276 C277 1.377 . S
C276 C278 1.384 . S
C277 C276 1.377 . S
C277 C283 1.390 . S
C278 H269 0.930 1_556 S
C278 C276 1.384 . S
C278 C279 1.372 1_556 S
C279 C278 1.372 1_554 S
C279 C280 1.400 1_554 S
C279 C284 1.490 . S
C280 H270 0.930 . S
C280 C279 1.400 1_556 S
C280 C283 1.386 . S
H281 C297 0.930 . S
H282 C298 0.931 . S
C283 H271 0.929 . S
C283 C277 1.390 . S
C283 C280 1.386 . S
C284 C279 1.490 . S
C284 C286 1.395 . S
C284 C287 1.403 . S
H285 C291 0.930 . S
C286 H272 0.930 . S
C286 C284 1.395 . S
C286 C289 1.403 . S
C287 C284 1.403 . S
C287 C288 1.524 . S
C287 C291 1.400 . S
C288 H273 0.960 . S
C288 H274 0.960 . S
C288 H275 0.960 1_554 S
C288 C287 1.524 . S
C289 C286 1.403 . S
C289 C290 1.392 . S
C289 C293 1.495 . S
C290 C289 1.392 . S
C290 C291 1.385 . S
C290 C292 1.478 . S
C291 H285 0.930 . S
C291 C287 1.400 . S
C291 C290 1.385 . S
C292 C290 1.478 . S
C292 C294 1.381 . S
C292 C298 1.383 . S
C293 C289 1.495 . S
C293 H299 0.959 . S
C293 H300 0.961 . S
C293 H301 0.960 . S
C294 C292 1.381 . S
C294 C295 1.394 . S
C294 H302 0.930 . S
C295 C294 1.394 . S
C295 C296 1.383 . S
C295 H303 0.929 . S
C296 C295 1.383 . S
C296 C297 1.377 . S
C297 H281 0.930 . S
C297 C296 1.377 . S
C297 C298 1.379 . S
C298 H282 0.931 . S
C298 C292 1.383 . S
C298 C297 1.379 . S
H299 C293 0.959 . S
H300 C293 0.961 . S
H301 C293 0.960 . S
H302 C294 0.930 . S
H303 C295 0.929 . S
H304 C312 0.929 . S
H305 C314 0.930 . S
H306 C316 0.930 . S
H307 C319 0.929 . S
H308 C322 0.930 . S
H309 C324 0.960 . S
H310 C324 0.960 . S
H311 C324 0.960 . S
C312 H304 0.929 . S
C312 C313 1.377 . S
C312 C314 1.384 . S
C313 C312 1.377 . S
C313 C319 1.390 . S
C314 H305 0.930 . S
C314 C312 1.384 . S
C314 C315 1.372 . S
C315 C314 1.372 . S
C315 C316 1.400 . S
C315 C320 1.490 . S
C316 H306 0.930 . S
C316 C315 1.400 . S
C316 C319 1.386 . S
H317 C333 0.930 . S
H318 C334 0.931 . S
C319 H307 0.929 . S
C319 C313 1.390 . S
C319 C316 1.386 . S
C320 C315 1.490 . S
C320 C322 1.395 . S
C320 C323 1.403 . S
H321 C327 0.930 . S
C322 H308 0.930 . S
C322 C320 1.395 . S
C322 C325 1.403 . S
C323 C320 1.403 . S
C323 C324 1.524 . S
C323 C327 1.400 . S
C324 H309 0.960 . S
C324 H310 0.960 . S
C324 H311 0.960 . S
C324 C323 1.524 . S
C325 C322 1.403 . S
C325 C326 1.392 . S
C325 C329 1.495 . S
C326 C325 1.392 . S
C326 C327 1.385 . S
C326 C328 1.478 1_556 S
C327 H321 0.930 . S
C327 C323 1.400 . S
C327 C326 1.385 . S
C328 C326 1.478 1_554 S
C328 C330 1.381 . S
C328 C334 1.383 . S
C329 C325 1.495 . S
C329 H335 0.959 . S
C329 H336 0.961 1_556 S
C329 H337 0.960 . S
C330 C328 1.381 . S
C330 C331 1.394 . S
C330 H338 0.934 . S
C331 C330 1.394 . S
C331 C332 1.383 . S
C331 H339 0.929 . S
C332 C331 1.383 . S
C332 C333 1.377 . S
C333 H317 0.930 . S
C333 C332 1.377 . S
C333 C334 1.379 . S
C334 H318 0.931 . S
C334 C328 1.383 . S
C334 C333 1.379 . S
H335 C329 0.959 . S
H336 C329 0.961 1_554 S
H337 C329 0.960 . S
H338 C330 0.934 . S
H339 C331 0.929 . S
H340 C348 0.929 . S
H341 C350 0.930 . S
H342 C352 0.930 . S
H343 C355 0.929 . S
H344 C358 0.930 . S
H345 C360 0.960 . S
H346 C360 0.960 . S
H347 C360 0.960 . S
C348 H340 0.929 . S
C348 C349 1.377 . S
C348 C350 1.384 . S
C349 C348 1.377 . S
C349 C355 1.390 . S
C350 H341 0.930 . S
C350 C348 1.384 . S
C350 C351 1.372 . S
C351 C350 1.372 . S
C351 C352 1.400 . S
C351 C356 1.490 . S
C352 H342 0.930 . S
C352 C351 1.400 . S
C352 C355 1.386 . S
H353 C369 0.930 . S
H354 C370 0.931 1_554 S
C355 H343 0.929 . S
C355 C349 1.390 . S
C355 C352 1.386 . S
C356 C351 1.490 . S
C356 C358 1.395 . S
C356 C359 1.403 . S
H357 C363 0.930 . S
C358 H344 0.930 . S
C358 C356 1.395 . S
C358 C361 1.403 . S
C359 C356 1.403 . S
C359 C360 1.524 . S
C359 C363 1.400 . S
C360 H345 0.960 . S
C360 H346 0.960 . S
C360 H347 0.960 . S
C360 C359 1.524 . S
C361 C358 1.403 . S
C361 C362 1.392 . S
C361 C365 1.495 . S
C362 C361 1.392 . S
C362 C363 1.385 . S
C362 C364 1.478 1_554 S
C363 H357 0.930 . S
C363 C359 1.400 . S
C363 C362 1.385 . S
C364 C362 1.478 1_556 S
C364 C366 1.381 . S
C364 C370 1.383 . S
C365 C361 1.495 . S
C365 H371 0.959 . S
C365 H372 0.961 1_554 S
C365 H373 0.960 1_554 S
C366 C364 1.381 . S
C366 C367 1.394 . S
C366 H374 0.930 . S
C367 C366 1.394 . S
C367 C368 1.383 . S
C367 H375 0.929 . S
C368 C367 1.383 . S
C368 C369 1.377 . S
C369 H353 0.930 . S
C369 C368 1.377 . S
C369 C370 1.379 . S
C370 H354 0.931 1_556 S
C370 C364 1.383 . S
C370 C369 1.379 . S
H371 C365 0.959 . S
H372 C365 0.961 1_556 S
H373 C365 0.960 1_556 S
H374 C366 0.930 . S
H375 C367 0.929 . S
H376 C384 0.929 . S
H377 C386 0.930 . S
H378 C388 0.930 . S
H379 C391 0.929 . S
H380 C394 0.930 . S
H381 C396 0.960 . S
H382 C396 0.960 . S
H383 C396 0.960 . S
C384 H376 0.929 . S
C384 C385 1.377 . S
C384 C386 1.384 . S
C385 C384 1.377 . S
C385 C391 1.390 . S
C386 H377 0.930 . S
C386 C384 1.384 . S
C386 C387 1.372 . S
C387 C386 1.372 . S
C387 C388 1.400 . S
C387 C392 1.490 . S
C388 H378 0.930 . S
C388 C387 1.400 . S
C388 C391 1.386 . S
H389 C405 0.930 . S
H390 C406 0.931 . S
C391 H379 0.929 . S
C391 C385 1.390 . S
C391 C388 1.386 . S
C392 C387 1.490 . S
C392 C394 1.395 . S
C392 C395 1.403 . S
H393 C399 0.930 . S
C394 H380 0.930 . S
C394 C392 1.395 . S
C394 C397 1.403 . S
C395 C392 1.403 . S
C395 C396 1.524 . S
C395 C399 1.400 . S
C396 H381 0.960 . S
C396 H382 0.960 . S
C396 H383 0.960 . S
C396 C395 1.524 . S
C397 C394 1.403 . S
C397 C398 1.392 . S
C397 C401 1.495 . S
C398 C397 1.392 . S
C398 C399 1.385 . S
C398 C400 1.478 . S
C399 H393 0.930 . S
C399 C395 1.400 . S
C399 C398 1.385 . S
C400 C398 1.478 . S
C400 C402 1.381 . S
C400 C406 1.383 . S
C401 C397 1.495 . S
C401 H407 0.959 . S
C401 H408 0.961 . S
C401 H409 0.960 . S
C402 C400 1.381 . S
C402 C403 1.394 . S
C402 H410 0.930 . S
C403 C402 1.394 . S
C403 C404 1.383 . S
C403 H411 0.929 . S
C404 C403 1.383 . S
C404 C405 1.377 . S
C405 H389 0.930 . S
C405 C404 1.377 . S
C405 C406 1.379 . S
C406 H390 0.931 . S
C406 C400 1.383 . S
C406 C405 1.379 . S
H407 C401 0.959 . S
H408 C401 0.961 . S
H409 C401 0.960 . S
H410 C402 0.930 . S
H411 C403 0.929 . S
H412 C420 0.929 . S
H413 C422 0.930 . S
H414 C424 0.930 . S
H415 C427 0.929 . S
H416 C430 0.930 . S
H417 C432 0.960 . S
H418 C432 0.960 . S
H419 C432 0.960 . S
C420 H412 0.929 . S
C420 C421 1.377 . S
C420 C422 1.384 . S
C421 C420 1.377 . S
C421 C427 1.390 . S
C422 H413 0.930 . S
C422 C420 1.384 . S
C422 C423 1.372 . S
C423 C422 1.372 . S
C423 C424 1.400 . S
C423 C428 1.490 . S
C424 H414 0.930 . S
C424 C423 1.400 . S
C424 C427 1.386 . S
H425 C441 0.930 . S
H426 C442 0.931 . S
C427 H415 0.929 . S
C427 C421 1.390 . S
C427 C424 1.386 . S
C428 C423 1.490 . S
C428 C430 1.395 . S
C428 C431 1.403 . S
H429 C435 0.930 . S
C430 H416 0.930 . S
C430 C428 1.395 . S
C430 C433 1.403 . S
C431 C428 1.403 . S
C431 C432 1.524 . S
C431 C435 1.400 . S
C432 H417 0.960 . S
C432 H418 0.960 . S
C432 H419 0.960 . S
C432 C431 1.524 . S
C433 C430 1.403 . S
C433 C434 1.392 . S
C433 C437 1.495 . S
C434 C433 1.392 . S
C434 C435 1.385 . S
C434 C436 1.478 . S
C435 H429 0.930 . S
C435 C431 1.400 . S
C435 C434 1.385 . S
C436 C434 1.478 . S
C436 C438 1.381 . S
C436 C442 1.383 . S
C437 C433 1.495 . S
C437 H443 0.959 . S
C437 H444 0.961 . S
C437 H445 0.960 . S
C438 C436 1.381 . S
C438 C439 1.394 . S
C438 H446 0.930 . S
C439 C438 1.394 . S
C439 C440 1.383 . S
C439 H447 0.929 . S
C440 C439 1.383 . S
C440 C441 1.377 . S
C441 H425 0.930 . S
C441 C440 1.377 . S
C441 C442 1.379 . S
C442 H426 0.931 . S
C442 C436 1.383 . S
C442 C441 1.379 . S
H443 C437 0.959 . S
H444 C437 0.961 . S
H445 C437 0.960 . S
H446 C438 0.930 . S
H447 C439 0.929 . S
H448 C456 0.929 . S
H449 C458 0.930 . S
H450 C460 0.930 . S
H451 C463 0.929 . S
H452 C466 0.930 . S
H453 C468 0.960 . S
H454 C468 0.960 . S
H455 C468 0.960 . S
C456 H448 0.929 . S
C456 C457 1.377 . S
C456 C458 1.384 . S
C457 C456 1.377 . S
C457 C463 1.390 . S
C458 H449 0.930 . S
C458 C456 1.384 . S
C458 C459 1.372 . S
C459 C458 1.372 . S
C459 C460 1.400 . S
C459 C464 1.490 . S
C460 H450 0.930 . S
C460 C459 1.400 . S
C460 C463 1.386 . S
H461 C477 0.930 . S
H462 C478 0.931 . S
C463 H451 0.929 . S
C463 C457 1.390 . S
C463 C460 1.386 . S
C464 C459 1.490 . S
C464 C466 1.395 . S
C464 C467 1.403 . S
H465 C471 0.930 . S
C466 H452 0.930 . S
C466 C464 1.395 . S
C466 C469 1.403 . S
C467 C464 1.403 . S
C467 C468 1.524 . S
C467 C471 1.400 . S
C468 H453 0.960 . S
C468 H454 0.960 . S
C468 H455 0.960 . S
C468 C467 1.524 . S
C469 C466 1.403 . S
C469 C470 1.392 . S
C469 C473 1.495 . S
C470 C469 1.392 . S
C470 C471 1.385 . S
C470 C472 1.478 . S
C471 H465 0.930 . S
C471 C467 1.400 . S
C471 C470 1.385 . S
C472 C470 1.478 . S
C472 C474 1.381 . S
C472 C478 1.383 . S
C473 C469 1.495 . S
C473 H479 0.959 . S
C473 H480 0.961 . S
C473 H481 0.960 . S
C474 C472 1.381 . S
C474 C475 1.394 . S
C474 H482 0.930 . S
C475 C474 1.394 . S
C475 C476 1.383 . S
C475 H483 0.929 . S
C476 C475 1.383 . S
C476 C477 1.377 . S
C477 H461 0.930 . S
C477 C476 1.377 . S
C477 C478 1.379 . S
C478 H462 0.931 . S
C478 C472 1.383 . S
C478 C477 1.379 . S
H479 C473 0.959 . S
H480 C473 0.961 . S
H481 C473 0.960 . S
H482 C474 0.930 . S
H483 C475 0.929 . S
H484 C492 0.929 . S
H485 C494 0.930 . S
H486 C496 0.930 . S
H487 C499 0.929 . S
H488 C502 0.930 . S
H489 C504 0.960 . S
H490 C504 0.960 . S
H491 C504 0.960 . S
C492 H484 0.929 . S
C492 C493 1.377 . S
C492 C494 1.384 . S
C493 C492 1.377 . S
C493 C499 1.390 . S
C494 H485 0.930 . S
C494 C492 1.384 . S
C494 C495 1.372 . S
C495 C494 1.372 . S
C495 C496 1.400 . S
C495 C500 1.490 . S
C496 H486 0.930 . S
C496 C495 1.400 . S
C496 C499 1.386 . S
H497 C513 0.930 . S
H498 C514 0.931 . S
C499 H487 0.929 . S
C499 C493 1.390 . S
C499 C496 1.386 . S
C500 C495 1.490 . S
C500 C502 1.395 . S
C500 C503 1.403 . S
H501 C507 0.930 . S
C502 H488 0.930 . S
C502 C500 1.395 . S
C502 C505 1.403 . S
C503 C500 1.403 . S
C503 C504 1.524 . S
C503 C507 1.400 . S
C504 H489 0.960 . S
C504 H490 0.960 . S
C504 H491 0.960 . S
C504 C503 1.524 . S
C505 C502 1.403 . S
C505 C506 1.392 . S
C505 C509 1.495 . S
C506 C505 1.392 . S
C506 C507 1.385 . S
C506 C508 1.478 . S
C507 H501 0.930 . S
C507 C503 1.400 . S
C507 C506 1.385 . S
C508 C506 1.478 . S
C508 C510 1.381 . S
C508 C514 1.383 . S
C509 C505 1.495 . S
C509 H515 0.959 . S
C509 H516 0.961 . S
C509 H517 0.960 . S
C510 C508 1.381 . S
C510 C511 1.394 . S
C510 H518 0.930 . S
C511 C510 1.394 . S
C511 C512 1.383 . S
C511 H519 0.929 . S
C512 C511 1.383 . S
C512 C513 1.377 . S
C513 H497 0.930 . S
C513 C512 1.377 . S
C513 C514 1.379 . S
C514 H498 0.931 . S
C514 C508 1.383 . S
C514 C513 1.379 . S
H515 C509 0.959 . S
H516 C509 0.961 . S
H517 C509 0.960 . S
H518 C510 0.930 . S
H519 C511 0.929 . S
H520 C528 0.929 . S
H521 C530 0.930 . S
H522 C532 0.930 . S
H523 C535 0.929 . S
H524 C538 0.930 . S
H525 C540 0.960 . S
H526 C540 0.960 . S
H527 C540 0.960 . S
C528 H520 0.929 . S
C528 C529 1.377 . S
C528 C530 1.384 . S
C529 C528 1.377 . S
C529 C535 1.390 . S
C530 H521 0.930 . S
C530 C528 1.384 . S
C530 C531 1.372 . S
C531 C530 1.372 . S
C531 C532 1.400 . S
C531 C536 1.490 . S
C532 H522 0.930 . S
C532 C531 1.400 . S
C532 C535 1.386 . S
H533 C549 0.930 . S
H534 C550 0.931 . S
C535 H523 0.929 . S
C535 C529 1.390 . S
C535 C532 1.386 . S
C536 C531 1.490 . S
C536 C538 1.395 . S
C536 C539 1.403 1_556 S
H537 C543 0.930 . S
C538 H524 0.930 . S
C538 C536 1.395 . S
C538 C541 1.403 . S
C539 C536 1.403 1_554 S
C539 C540 1.524 . S
C539 C543 1.400 . S
C540 H525 0.960 . S
C540 H526 0.960 . S
C540 H527 0.960 . S
C540 C539 1.524 . S
C541 C538 1.403 . S
C541 C542 1.392 1_556 S
C541 C545 1.495 . S
C542 C541 1.392 1_554 S
C542 C543 1.385 . S
C542 C544 1.478 . S
C543 H537 0.930 . S
C543 C539 1.400 . S
C543 C542 1.385 . S
C544 C542 1.478 . S
C544 C546 1.381 . S
C544 C550 1.383 . S
C545 C541 1.495 . S
C545 H551 0.959 . S
C545 H552 0.961 . S
C545 H553 0.960 . S
C546 C544 1.381 . S
C546 C547 1.394 . S
C546 H554 0.930 . S
C547 C546 1.394 . S
C547 C548 1.383 . S
C547 H555 0.929 . S
C548 C547 1.383 . S
C548 C549 1.377 . S
C549 H533 0.930 . S
C549 C548 1.377 . S
C549 C550 1.379 . S
C550 H534 0.931 . S
C550 C544 1.383 . S
C550 C549 1.379 . S
H551 C545 0.959 . S
H552 C545 0.961 . S
H553 C545 0.960 . S
H554 C546 0.930 . S
H555 C547 0.929 . S
H556 C564 0.929 . S
H557 C566 0.930 . S
H558 C568 0.930 . S
H559 C571 0.929 . S
H560 C574 0.930 . S
H561 C576 0.960 . S
H562 C576 0.960 . S
H563 C576 0.960 . S
C564 H556 0.929 . S
C564 C565 1.377 . S
C564 C566 1.384 . S
C565 C564 1.377 . S
C565 C571 1.390 . S
C566 H557 0.930 . S
C566 C564 1.384 . S
C566 C567 1.372 . S
C567 C566 1.372 . S
C567 C568 1.400 . S
C567 C572 1.490 . S
C568 H558 0.930 . S
C568 C567 1.400 . S
C568 C571 1.386 . S
H569 C585 0.930 . S
H570 C586 0.931 . S
C571 H559 0.929 . S
C571 C565 1.390 . S
C571 C568 1.386 . S
C572 C567 1.490 . S
C572 C574 1.395 . S
C572 C575 1.403 . S
H573 C579 0.932 . S
C574 H560 0.930 . S
C574 C572 1.395 . S
C574 C577 1.403 1_554 S
C575 C572 1.403 . S
C575 C576 1.524 . S
C575 C579 1.400 . S
C576 H561 0.960 . S
C576 H562 0.960 . S
C576 H563 0.960 . S
C576 C575 1.524 . S
C577 C574 1.403 1_556 S
C577 C578 1.392 . S
C577 C581 1.495 . S
C578 C577 1.392 . S
C578 C579 1.385 1_556 S
C578 C580 1.478 . S
C579 H573 0.932 . S
C579 C575 1.400 . S
C579 C578 1.385 1_554 S
C580 C578 1.478 . S
C580 C582 1.381 . S
C580 C586 1.383 . S
C581 C577 1.495 . S
C581 H587 0.959 . S
C581 H588 0.961 . S
C581 H589 0.960 . S
C582 C580 1.381 . S
C582 C583 1.394 . S
C582 H590 0.930 . S
C583 C582 1.394 . S
C583 C584 1.383 . S
C583 H591 0.929 . S
C584 C583 1.383 . S
C584 C585 1.377 . S
C585 H569 0.930 . S
C585 C584 1.377 . S
C585 C586 1.379 . S
C586 H570 0.931 . S
C586 C580 1.383 . S
C586 C585 1.379 . S
H587 C581 0.959 . S
H588 C581 0.961 . S
H589 C581 0.960 . S
H590 C582 0.930 . S
H591 C583 0.929 . S
H592 C600 0.929 . S
H593 C602 0.930 . S
H594 C604 0.930 . S
H595 C607 0.929 . S
H596 C610 0.930 . S
H597 C612 0.960 . S
H598 C612 0.960 . S
H599 C612 0.960 . S
C600 H592 0.929 . S
C600 C601 1.377 . S
C600 C602 1.384 . S
C601 C600 1.377 . S
C601 C607 1.390 . S
C602 H593 0.930 . S
C602 C600 1.384 . S
C602 C603 1.372 . S
C603 C602 1.372 . S
C603 C604 1.400 . S
C603 C608 1.490 . S
C604 H594 0.930 . S
C604 C603 1.400 . S
C604 C607 1.386 . S
H605 C621 0.930 . S
H606 C622 0.931 . S
C607 H595 0.929 . S
C607 C601 1.390 . S
C607 C604 1.386 . S
C608 C603 1.490 . S
C608 C610 1.395 . S
C608 C611 1.403 1_556 S
H609 C615 0.930 . S
C610 H596 0.930 . S
C610 C608 1.395 . S
C610 C613 1.403 . S
C611 C608 1.403 1_554 S
C611 C612 1.524 . S
C611 C615 1.400 . S
C612 H597 0.960 . S
C612 H598 0.960 . S
C612 H599 0.960 . S
C612 C611 1.524 . S
C613 C610 1.403 . S
C613 C614 1.392 1_556 S
C613 C617 1.495 . S
C614 C613 1.392 1_554 S
C614 C615 1.385 . S
C614 C616 1.478 . S
C615 H609 0.930 . S
C615 C611 1.400 . S
C615 C614 1.385 . S
C616 C614 1.478 . S
C616 C618 1.381 . S
C616 C622 1.383 . S
C617 C613 1.495 . S
C617 H623 0.959 . S
C617 H624 0.961 . S
C617 H625 0.960 . S
C618 C616 1.381 . S
C618 C619 1.394 . S
C618 H626 0.930 . S
C619 C618 1.394 . S
C619 C620 1.383 . S
C619 H627 0.929 . S
C620 C619 1.383 . S
C620 C621 1.377 . S
C621 H605 0.930 . S
C621 C620 1.377 . S
C621 C622 1.379 . S
C622 H606 0.931 . S
C622 C616 1.383 . S
C622 C621 1.379 . S
H623 C617 0.959 . S
H624 C617 0.961 . S
H625 C617 0.960 . S
H626 C618 0.930 . S
H627 C619 0.929 . S
H628 C636 0.929 . S
H629 C638 0.930 . S
H630 C640 0.930 1_554 S
H631 C643 0.929 . S
H632 C646 0.930 . S
H633 C648 0.960 . S
H634 C648 0.960 . S
H635 C648 0.960 . S
C636 H628 0.929 . S
C636 C637 1.377 . S
C636 C638 1.384 . S
C637 C636 1.377 . S
C637 C643 1.390 . S
C638 H629 0.930 . S
C638 C636 1.384 . S
C638 C639 1.372 . S
C639 C638 1.372 . S
C639 C640 1.400 . S
C639 C644 1.490 . S
C640 H630 0.930 1_556 S
C640 C639 1.400 . S
C640 C643 1.386 . S
H641 C657 0.930 . S
H642 C658 0.931 . S
C643 H631 0.929 . S
C643 C637 1.390 . S
C643 C640 1.386 . S
C644 C639 1.490 . S
C644 C646 1.395 . S
C644 C647 1.403 1_556 S
H645 C651 0.930 . S
C646 H632 0.930 . S
C646 C644 1.395 . S
C646 C649 1.403 . S
C647 C644 1.403 1_554 S
C647 C648 1.524 . S
C647 C651 1.400 . S
C648 H633 0.960 . S
C648 H634 0.960 . S
C648 H635 0.960 . S
C648 C647 1.524 . S
C649 C646 1.403 . S
C649 C650 1.392 1_556 S
C649 C653 1.495 . S
C650 C649 1.392 1_554 S
C650 C651 1.385 . S
C650 C652 1.478 . S
C651 H645 0.930 . S
C651 C647 1.400 . S
C651 C650 1.385 . S
C652 C650 1.478 . S
C652 C654 1.381 . S
C652 C658 1.383 . S
C653 C649 1.495 . S
C653 H659 0.959 . S
C653 H660 0.961 . S
C653 H661 0.960 . S
C654 C652 1.381 . S
C654 C655 1.394 . S
C654 H662 0.930 . S
C655 C654 1.394 . S
C655 C656 1.383 . S
C655 H663 0.929 . S
C656 C655 1.383 . S
C656 C657 1.377 . S
C657 H641 0.930 . S
C657 C656 1.377 . S
C657 C658 1.379 . S
C658 H642 0.931 . S
C658 C652 1.383 . S
C658 C657 1.379 . S
H659 C653 0.959 . S
H660 C653 0.961 . S
H661 C653 0.960 . S
H662 C654 0.930 . S
H663 C655 0.929 . S
H664 C672 0.929 . S
H665 C674 0.930 . S
H666 C676 0.930 . S
H667 C679 0.929 . S
H668 C682 0.930 . S
H669 C684 0.960 . S
H670 C684 0.960 . S
H671 C684 0.960 . S
C672 H664 0.929 . S
C672 C673 1.377 . S
C672 C674 1.384 . S
C673 C672 1.377 . S
C673 C679 1.390 . S
C674 H665 0.930 . S
C674 C672 1.384 . S
C674 C675 1.372 . S
C675 C674 1.372 . S
C675 C676 1.400 . S
C675 C680 1.490 . S
C676 H666 0.930 . S
C676 C675 1.400 . S
C676 C679 1.386 . S
H677 C693 0.930 . S
H678 C694 0.931 . S
C679 H667 0.929 . S
C679 C673 1.390 . S
C679 C676 1.386 . S
C680 C675 1.490 . S
C680 C682 1.395 . S
C680 C683 1.403 . S
H681 C687 0.930 . S
C682 H668 0.930 . S
C682 C680 1.395 . S
C682 C685 1.403 . S
C683 C680 1.403 . S
C683 C684 1.524 . S
C683 C687 1.400 . S
C684 H669 0.960 . S
C684 H670 0.960 . S
C684 H671 0.960 . S
C684 C683 1.524 . S
C685 C682 1.403 . S
C685 C686 1.392 . S
C685 C689 1.495 . S
C686 C685 1.392 . S
C686 C687 1.385 . S
C686 C688 1.478 . S
C687 H681 0.930 . S
C687 C683 1.400 . S
C687 C686 1.385 . S
C688 C686 1.478 . S
C688 C690 1.381 . S
C688 C694 1.383 . S
C689 C685 1.495 . S
C689 H695 0.959 . S
C689 H696 0.961 . S
C689 H697 0.960 . S
C690 C688 1.381 . S
C690 C691 1.394 1_655 S
C690 H698 0.930 . S
C691 C690 1.394 1_455 S
C691 C692 1.383 . S
C691 H699 0.929 . S
C692 C691 1.383 . S
C692 C693 1.377 . S
C693 H677 0.930 . S
C693 C692 1.377 . S
C693 C694 1.379 1_455 S
C694 H678 0.931 . S
C694 C688 1.383 . S
C694 C693 1.379 1_655 S
H695 C689 0.959 . S
H696 C689 0.961 . S
H697 C689 0.960 . S
H698 C690 0.930 . S
H699 C691 0.929 . S
H700 C708 0.929 . S
H701 C710 0.930 . S
H702 C712 0.930 . S
H703 C715 0.929 . S
H704 C718 0.930 . S
H705 C720 0.960 . S
H706 C720 0.960 . S
H707 C720 0.960 . S
C708 H700 0.929 . S
C708 C709 1.377 . S
C708 C710 1.384 . S
C709 C708 1.377 . S
C709 C715 1.390 . S
C710 H701 0.930 . S
C710 C708 1.384 . S
C710 C711 1.372 . S
C711 C710 1.372 . S
C711 C712 1.400 . S
C711 C716 1.490 . S
C712 H702 0.930 . S
C712 C711 1.400 . S
C712 C715 1.386 . S
H713 C729 0.930 . S
H714 C730 0.931 . S
C715 H703 0.929 . S
C715 C709 1.390 . S
C715 C712 1.386 . S
C716 C711 1.490 . S
C716 C718 1.395 . S
C716 C719 1.403 . S
H717 C723 0.930 . S
C718 H704 0.930 . S
C718 C716 1.395 . S
C718 C721 1.403 . S
C719 C716 1.403 . S
C719 C720 1.524 . S
C719 C723 1.400 . S
C720 H705 0.960 . S
C720 H706 0.960 . S
C720 H707 0.960 . S
C720 C719 1.524 . S
C721 C718 1.403 . S
C721 C722 1.392 . S
C721 C725 1.495 . S
C722 C721 1.392 . S
C722 C723 1.385 . S
C722 C724 1.478 . S
C723 H717 0.930 . S
C723 C719 1.400 . S
C723 C722 1.385 . S
C724 C722 1.478 . S
C724 C726 1.381 . S
C724 C730 1.383 . S
C725 C721 1.495 . S
C725 H731 0.959 . S
C725 H732 0.961 . S
C725 H733 0.960 . S
C726 C724 1.381 . S
C726 C727 1.394 1_545 S
C726 H734 0.930 . S
C727 C726 1.394 1_565 S
C727 C728 1.383 . S
C727 H735 0.929 . S
C728 C727 1.383 . S
C728 C729 1.377 . S
C729 H713 0.930 . S
C729 C728 1.377 . S
C729 C730 1.379 1_565 S
C730 H714 0.931 . S
C730 C724 1.383 . S
C730 C729 1.379 1_545 S
H731 C725 0.959 . S
H732 C725 0.961 . S
H733 C725 0.960 . S
H734 C726 0.930 . S
H735 C727 0.929 . S
H736 C744 0.929 . S
H737 C746 0.930 . S
H738 C748 0.930 . S
H739 C751 0.929 . S
H740 C754 0.930 . S
H741 C756 0.960 . S
H742 C756 0.960 . S
H743 C756 0.960 . S
C744 H736 0.929 . S
C744 C745 1.377 . S
C744 C746 1.384 . S
C745 C744 1.377 . S
C745 C751 1.390 . S
C746 H737 0.930 . S
C746 C744 1.384 . S
C746 C747 1.372 . S
C747 C746 1.372 . S
C747 C748 1.400 . S
C747 C752 1.490 . S
C748 H738 0.930 . S
C748 C747 1.400 . S
C748 C751 1.386 . S
H749 C765 0.930 . S
H750 C766 0.931 . S
C751 H739 0.929 . S
C751 C745 1.390 . S
C751 C748 1.386 . S
C752 C747 1.490 . S
C752 C754 1.395 . S
C752 C755 1.403 . S
H753 C759 0.930 . S
C754 H740 0.930 . S
C754 C752 1.395 . S
C754 C757 1.403 . S
C755 C752 1.403 . S
C755 C756 1.524 . S
C755 C759 1.400 . S
C756 H741 0.960 . S
C756 H742 0.960 . S
C756 H743 0.960 . S
C756 C755 1.524 . S
C757 C754 1.403 . S
C757 C758 1.392 . S
C757 C761 1.495 . S
C758 C757 1.392 . S
C758 C759 1.385 . S
C758 C760 1.478 . S
C759 H753 0.930 . S
C759 C755 1.400 . S
C759 C758 1.385 . S
C760 C758 1.478 . S
C760 C762 1.381 1_455 S
C760 C766 1.383 . S
C761 C757 1.495 . S
C761 H767 0.959 . S
C761 H768 0.961 . S
C761 H769 0.960 . S
C762 C760 1.381 1_655 S
C762 C763 1.394 . S
C762 H770 0.931 . S
C763 C762 1.394 . S
C763 C764 1.383 . S
C763 H771 0.929 . S
C764 C763 1.383 . S
C764 C765 1.377 . S
C765 H749 0.930 . S
C765 C764 1.377 . S
C765 C766 1.379 1_655 S
C766 H750 0.931 . S
C766 C760 1.383 . S
C766 C765 1.379 1_455 S
H767 C761 0.959 . S
H768 C761 0.961 . S
H769 C761 0.960 . S
H770 C762 0.931 . S
H771 C763 0.929 . S
H772 C780 0.929 . S
H773 C782 0.930 . S
H774 C784 0.930 . S
H775 C787 0.929 . S
H776 C790 0.930 . S
H777 C792 0.960 . S
H778 C792 0.960 . S
H779 C792 0.960 . S
C780 H772 0.929 . S
C780 C781 1.377 . S
C780 C782 1.384 1_545 S
C781 C780 1.377 . S
C781 C787 1.390 . S
C782 H773 0.930 . S
C782 C780 1.384 1_565 S
C782 C783 1.372 . S
C783 C782 1.372 . S
C783 C784 1.400 . S
C783 C788 1.490 . S
C784 H774 0.930 . S
C784 C783 1.400 . S
C784 C787 1.386 1_565 S
H785 C801 0.930 . S
H786 C802 0.931 . S
C787 H775 0.929 . S
C787 C781 1.390 . S
C787 C784 1.386 1_545 S
C788 C783 1.490 . S
C788 C790 1.395 . S
C788 C791 1.403 . S
H789 C795 0.930 . S
C790 H776 0.930 . S
C790 C788 1.395 . S
C790 C793 1.403 . S
C791 C788 1.403 . S
C791 C792 1.524 . S
C791 C795 1.400 . S
C792 H777 0.960 . S
C792 H778 0.960 . S
C792 H779 0.960 . S
C792 C791 1.524 . S
C793 C790 1.403 . S
C793 C794 1.392 . S
C793 C797 1.495 . S
C794 C793 1.392 . S
C794 C795 1.385 . S
C794 C796 1.478 . S
C795 H789 0.930 . S
C795 C791 1.400 . S
C795 C794 1.385 . S
C796 C794 1.478 . S
C796 C798 1.381 . S
C796 C802 1.383 . S
C797 C793 1.495 . S
C797 H803 0.959 . S
C797 H804 0.961 . S
C797 H805 0.960 . S
C798 C796 1.381 . S
C798 C799 1.394 . S
C798 H806 0.930 . S
C799 C798 1.394 . S
C799 C800 1.383 . S
C799 H807 0.929 . S
C800 C799 1.383 . S
C800 C801 1.377 . S
C801 H785 0.930 . S
C801 C800 1.377 . S
C801 C802 1.379 . S
C802 H786 0.931 . S
C802 C796 1.383 . S
C802 C801 1.379 . S
H803 C797 0.959 . S
H804 C797 0.961 . S
H805 C797 0.960 . S
H806 C798 0.930 . S
H807 C799 0.929 . S
H808 C816 0.929 . S
H809 C818 0.930 . S
H810 C820 0.930 . S
H811 C823 0.929 . S
H812 C826 0.930 . S
H813 C828 0.960 . S
H814 C828 0.960 . S
H815 C828 0.960 . S
C816 H808 0.929 . S
C816 C817 1.377 . S
C816 C818 1.384 . S
C817 C816 1.377 . S
C817 C823 1.390 . S
C818 H809 0.930 . S
C818 C816 1.384 . S
C818 C819 1.372 . S
C819 C818 1.372 . S
C819 C820 1.400 . S
C819 C824 1.490 . S
C820 H810 0.930 . S
C820 C819 1.400 . S
C820 C823 1.386 . S
H821 C837 0.930 . S
H822 C838 0.931 . S
C823 H811 0.929 . S
C823 C817 1.390 . S
C823 C820 1.386 . S
C824 C819 1.490 . S
C824 C826 1.395 . S
C824 C827 1.403 . S
H825 C831 0.930 . S
C826 H812 0.930 . S
C826 C824 1.395 . S
C826 C829 1.403 . S
C827 C824 1.403 . S
C827 C828 1.524 . S
C827 C831 1.400 . S
C828 H813 0.960 . S
C828 H814 0.960 . S
C828 H815 0.960 . S
C828 C827 1.524 . S
C829 C826 1.403 . S
C829 C830 1.392 . S
C829 C833 1.495 . S
C830 C829 1.392 . S
C830 C831 1.385 . S
C830 C832 1.478 . S
C831 H825 0.930 . S
C831 C827 1.400 . S
C831 C830 1.385 . S
C832 C830 1.478 . S
C832 C834 1.381 . S
C832 C838 1.383 . S
C833 C829 1.495 . S
C833 H839 0.959 . S
C833 H840 0.961 . S
C833 H841 0.960 . S
C834 C832 1.381 . S
C834 C835 1.394 . S
C834 H842 0.930 . S
C835 C834 1.394 . S
C835 C836 1.383 . S
C835 H843 0.929 . S
C836 C835 1.383 . S
C836 C837 1.377 . S
C837 H821 0.930 . S
C837 C836 1.377 . S
C837 C838 1.379 . S
C838 H822 0.931 . S
C838 C832 1.383 . S
C838 C837 1.379 . S
H839 C833 0.959 . S
H840 C833 0.961 . S
H841 C833 0.960 . S
H842 C834 0.930 . S
H843 C835 0.929 . S
H844 C852 0.929 . S
H845 C854 0.930 . S
H846 C856 0.930 . S
H847 C859 0.929 . S
H848 C862 0.930 . S
H849 C864 0.960 . S
H850 C864 0.960 . S
H851 C864 0.960 . S
C852 H844 0.929 . S
C852 C853 1.377 . S
C852 C854 1.384 . S
C853 C852 1.377 . S
C853 C859 1.390 . S
C854 H845 0.930 . S
C854 C852 1.384 . S
C854 C855 1.372 . S
C855 C854 1.372 . S
C855 C856 1.400 . S
C855 C860 1.490 . S
C856 H846 0.930 . S
C856 C855 1.400 . S
C856 C859 1.386 . S
H857 C873 0.930 . S
H858 C874 0.931 . S
C859 H847 0.929 . S
C859 C853 1.390 . S
C859 C856 1.386 . S
C860 C855 1.490 . S
C860 C862 1.395 . S
C860 C863 1.403 . S
H861 C867 0.930 . S
C862 H848 0.930 . S
C862 C860 1.395 . S
C862 C865 1.403 . S
C863 C860 1.403 . S
C863 C864 1.524 . S
C863 C867 1.400 . S
C864 H849 0.960 . S
C864 H850 0.960 . S
C864 H851 0.960 . S
C864 C863 1.524 . S
C865 C862 1.403 . S
C865 C866 1.392 . S
C865 C869 1.495 . S
C866 C865 1.392 . S
C866 C867 1.385 . S
C866 C868 1.478 . S
C867 H861 0.930 . S
C867 C863 1.400 . S
C867 C866 1.385 . S
C868 C866 1.478 . S
C868 C870 1.381 . S
C868 C874 1.383 . S
C869 C865 1.495 . S
C869 H875 0.959 . S
C869 H876 0.961 . S
C869 H877 0.960 . S
C870 C868 1.381 . S
C870 C871 1.394 . S
C870 H878 0.930 . S
C871 C870 1.394 . S
C871 C872 1.383 . S
C871 H879 0.929 . S
C872 C871 1.383 . S
C872 C873 1.377 . S
C873 H857 0.930 . S
C873 C872 1.377 . S
C873 C874 1.379 . S
C874 H858 0.931 . S
C874 C868 1.383 . S
C874 C873 1.379 . S
H875 C869 0.959 . S
H876 C869 0.961 . S
H877 C869 0.960 . S
H878 C870 0.930 . S
H879 C871 0.929 . S
H880 C888 0.929 . S
H881 C890 0.930 . S
H882 C892 0.932 1_565 S
H883 C895 0.929 1_565 S
H884 C898 0.930 . S
H885 C900 0.960 . S
H886 C900 0.960 1_545 S
H887 C900 0.960 . S
C888 H880 0.929 . S
C888 C889 1.377 . S
C888 C890 1.384 . S
C889 C888 1.377 . S
C889 C895 1.390 . S
C890 H881 0.930 . S
C890 C888 1.384 . S
C890 C891 1.372 . S
C891 C890 1.372 . S
C891 C892 1.398 . S
C891 C896 1.490 . S
C892 H882 0.932 1_545 S
C892 C891 1.398 . S
C892 C895 1.385 . S
H893 C909 0.930 . S
H894 C910 0.931 . S
C895 H883 0.929 1_545 S
C895 C889 1.390 . S
C895 C892 1.385 . S
C896 C891 1.490 . S
C896 C898 1.395 . S
C896 C899 1.401 . S
H897 C903 0.930 . S
C898 H884 0.930 . S
C898 C896 1.395 . S
C898 C901 1.403 1_655 S
C899 C896 1.401 . S
C899 C900 1.524 1_545 S
C899 C903 1.401 1_645 S
C900 H885 0.960 . S
C900 H886 0.960 1_565 S
C900 H887 0.960 . S
C900 C899 1.524 1_565 S
C901 C898 1.403 1_455 S
C901 C902 1.392 1_545 S
C901 C905 1.495 . S
C902 C901 1.392 1_565 S
C902 C903 1.385 . S
C902 C904 1.478 . S
C903 H897 0.930 . S
C903 C899 1.401 1_465 S
C903 C902 1.385 . S
C904 C902 1.478 . S
C904 C906 1.381 1_565 S
C904 C910 1.383 . S
C905 C901 1.495 . S
C905 H911 0.959 . S
C905 H912 0.961 1_545 S
C905 H913 0.960 . S
C906 C904 1.381 1_545 S
C906 C907 1.394 1_545 S
C906 H914 0.930 . S
C907 C906 1.394 1_565 S
C907 C908 1.383 . S
C907 H915 0.929 1_565 S
C908 C907 1.383 . S
C908 C909 1.377 . S
C909 H893 0.930 . S
C909 C908 1.377 . S
C909 C910 1.379 . S
C910 H894 0.931 . S
C910 C904 1.383 . S
C910 C909 1.379 . S
H911 C905 0.959 . S
H912 C905 0.961 1_565 S
H913 C905 0.960 . S
H914 C906 0.930 . S
H915 C907 0.929 1_545 S
H916 C924 0.929 . S
H917 C926 0.930 . S
H918 C928 0.967 . S
H919 C931 0.929 1_655 S
H920 C934 0.930 . S
H921 C936 0.960 . S
H922 C936 0.960 . S
H923 C936 0.960 . S
C924 H916 0.929 . S
C924 C925 1.377 . S
C924 C926 1.384 . S
C925 C924 1.377 . S
C925 C931 1.390 . S
C926 H917 0.930 . S
C926 C924 1.384 . S
C926 C927 1.372 . S
C927 C926 1.372 . S
C927 C928 1.374 1_455 S
C927 C932 1.490 . S
C928 H918 0.967 . S
C928 C927 1.374 1_655 S
C928 C931 1.376 1_655 S
H929 C945 0.930 . S
H930 C946 0.931 . S
C931 H919 0.929 1_455 S
C931 C925 1.390 . S
C931 C928 1.376 1_455 S
C932 C927 1.490 . S
C932 C934 1.395 . S
C932 C935 1.403 1_455 S
H933 C939 0.930 . S
C934 H920 0.930 . S
C934 C932 1.395 . S
C934 C937 1.403 1_545 S
C935 C932 1.403 1_655 S
C935 C936 1.524 . S
C935 C939 1.400 1_545 S
C936 H921 0.960 . S
C936 H922 0.960 . S
C936 H923 0.960 . S
C936 C935 1.524 . S
C937 C934 1.403 1_565 S
C937 C938 1.392 1_455 S
C937 C941 1.495 . S
C938 C937 1.392 1_655 S
C938 C939 1.385 . S
C938 C940 1.478 . S
C939 H933 0.930 . S
C939 C935 1.400 1_565 S
C939 C938 1.385 . S
C940 C938 1.478 . S
C940 C942 1.381 1_655 S
C940 C946 1.383 . S
C941 C937 1.495 . S
C941 H947 0.959 . S
C941 H948 0.961 . S
C941 H949 0.960 . S
C942 C940 1.381 1_455 S
C942 C943 1.394 1_455 S
C942 H950 0.930 . S
C943 C942 1.394 1_655 S
C943 C944 1.383 . S
C943 H951 0.929 1_655 S
C944 C943 1.383 . S
C944 C945 1.377 . S
C945 H929 0.930 . S
C945 C944 1.377 . S
C945 C946 1.379 . S
C946 H930 0.931 . S
C946 C940 1.383 . S
C946 C945 1.379 . S
H947 C941 0.959 . S
H948 C941 0.961 . S
H949 C941 0.960 . S
H950 C942 0.930 . S
H951 C943 0.929 1_455 S
H952 C960 0.929 . S
H953 C962 0.930 . S
H954 C964 0.930 . S
H955 C967 0.929 . S
H956 C970 0.930 . S
H957 C972 0.960 . S
H958 C972 0.960 . S
H959 C972 0.960 . S
C960 H952 0.929 . S
C960 C961 1.377 . S
C960 C962 1.384 . S
C961 C960 1.377 . S
C961 C967 1.390 . S
C962 H953 0.930 . S
C962 C960 1.384 . S
C962 C963 1.372 . S
C963 C962 1.372 . S
C963 C964 1.400 . S
C963 C968 1.490 . S
C964 H954 0.930 . S
C964 C963 1.400 . S
C964 C967 1.386 . S
H965 C981 0.930 . S
H966 C982 0.931 . S
C967 H955 0.929 . S
C967 C961 1.390 . S
C967 C964 1.386 . S
C968 C963 1.490 . S
C968 C970 1.395 . S
C968 C971 1.403 . S
H969 C975 0.930 . S
C970 H956 0.930 . S
C970 C968 1.395 . S
C970 C973 1.403 . S
C971 C968 1.403 . S
C971 C972 1.524 . S
C971 C975 1.400 . S
C972 H957 0.960 . S
C972 H958 0.960 . S
C972 H959 0.960 . S
C972 C971 1.524 . S
C973 C970 1.403 . S
C973 C974 1.392 . S
C973 C977 1.495 . S
C974 C973 1.392 . S
C974 C975 1.385 . S
C974 C976 1.478 . S
C975 H969 0.930 . S
C975 C971 1.400 . S
C975 C974 1.385 . S
C976 C974 1.478 . S
C976 C978 1.381 . S
C976 C982 1.383 . S
C977 C973 1.495 . S
C977 H983 0.959 . S
C977 H984 0.961 . S
C977 H985 0.960 . S
C978 C976 1.381 . S
C978 C979 1.394 . S
C978 H986 0.930 . S
C979 C978 1.394 . S
C979 C980 1.383 . S
C979 H987 0.929 . S
C980 C979 1.383 . S
C980 C981 1.377 . S
C981 H965 0.930 . S
C981 C980 1.377 . S
C981 C982 1.379 . S
C982 H966 0.931 . S
C982 C976 1.383 . S
C982 C981 1.379 . S
H983 C977 0.959 . S
H984 C977 0.961 . S
H985 C977 0.960 . S
H986 C978 0.930 . S
H987 C979 0.929 . S
H988 C996 0.929 . S
H989 C998 0.930 . S
H990 C1000 0.930 . S
H991 C1003 0.929 . S
H992 C1006 0.930 . S
H993 C1008 0.960 . S
H994 C1008 0.960 . S
H995 C1008 0.960 . S
C996 H988 0.929 . S
C996 C997 1.377 . S
C996 C998 1.384 . S
C997 C996 1.377 . S
C997 C1003 1.390 . S
C998 H989 0.930 . S
C998 C996 1.384 . S
C998 C999 1.372 . S
C999 C998 1.372 . S
C999 C1000 1.400 . S
C999 C1004 1.490 . S
C1000 H990 0.930 . S
C1000 C999 1.400 . S
C1000 C1003 1.386 . S
H1001 C1017 0.930 . S
H1002 C1018 0.931 . S
C1003 H991 0.929 . S
C1003 C997 1.390 . S
C1003 C1000 1.386 . S
C1004 C999 1.490 . S
C1004 C1006 1.395 . S
C1004 C1007 1.403 . S
H1005 C1011 0.930 . S
C1006 H992 0.930 . S
C1006 C1004 1.395 . S
C1006 C1009 1.403 . S
C1007 C1004 1.403 . S
C1007 C1008 1.524 . S
C1007 C1011 1.400 . S
C1008 H993 0.960 . S
C1008 H994 0.960 . S
C1008 H995 0.960 . S
C1008 C1007 1.524 . S
C1009 C1006 1.403 . S
C1009 C1010 1.392 . S
C1009 C1013 1.495 . S
C1010 C1009 1.392 . S
C1010 C1011 1.385 . S
C1010 C1012 1.478 . S
C1011 H1005 0.930 . S
C1011 C1007 1.400 . S
C1011 C1010 1.385 . S
C1012 C1010 1.478 . S
C1012 C1014 1.381 . S
C1012 C1018 1.383 . S
C1013 C1009 1.495 . S
C1013 H1019 0.959 . S
C1013 H1020 0.961 . S
C1013 H1021 0.960 . S
C1014 C1012 1.381 . S
C1014 C1015 1.394 . S
C1014 H1022 0.930 . S
C1015 C1014 1.394 . S
C1015 C1016 1.383 . S
C1015 H1023 0.929 . S
C1016 C1015 1.383 . S
C1016 C1017 1.377 . S
C1017 H1001 0.930 . S
C1017 C1016 1.377 . S
C1017 C1018 1.379 . S
C1018 H1002 0.931 . S
C1018 C1012 1.383 . S
C1018 C1017 1.379 . S
H1019 C1013 0.959 . S
H1020 C1013 0.961 . S
H1021 C1013 0.960 . S
H1022 C1014 0.930 . S
H1023 C1015 0.929 . S
H1024 C1032 0.929 . S
H1025 C1034 0.930 . S
H1026 C1036 0.930 . S
H1027 C1039 0.929 . S
H1028 C1042 0.930 . S
H1029 C1044 0.960 . S
H1030 C1044 0.960 . S
H1031 C1044 0.960 . S
C1032 H1024 0.929 . S
C1032 C1033 1.377 . S
C1032 C1034 1.384 . S
C1033 C1032 1.377 . S
C1033 C1039 1.390 . S
C1034 H1025 0.930 . S
C1034 C1032 1.384 . S
C1034 C1035 1.372 . S
C1035 C1034 1.372 . S
C1035 C1036 1.400 . S
C1035 C1040 1.490 . S
C1036 H1026 0.930 . S
C1036 C1035 1.400 . S
C1036 C1039 1.386 . S
H1037 C1053 0.930 . S
H1038 C1054 0.931 . S
C1039 H1027 0.929 . S
C1039 C1033 1.390 . S
C1039 C1036 1.386 . S
C1040 C1035 1.490 . S
C1040 C1042 1.395 . S
C1040 C1043 1.403 . S
H1041 C1047 0.930 . S
C1042 H1028 0.930 . S
C1042 C1040 1.395 . S
C1042 C1045 1.403 . S
C1043 C1040 1.403 . S
C1043 C1044 1.524 . S
C1043 C1047 1.400 . S
C1044 H1029 0.960 . S
C1044 H1030 0.960 . S
C1044 H1031 0.960 . S
C1044 C1043 1.524 . S
C1045 C1042 1.403 . S
C1045 C1046 1.392 . S
C1045 C1049 1.495 . S
C1046 C1045 1.392 . S
C1046 C1047 1.385 . S
C1046 C1048 1.478 . S
C1047 H1041 0.930 . S
C1047 C1043 1.400 . S
C1047 C1046 1.385 . S
C1048 C1046 1.478 . S
C1048 C1050 1.381 . S
C1048 C1054 1.383 . S
C1049 C1045 1.495 . S
C1049 H1055 0.959 . S
C1049 H1056 0.961 . S
C1049 H1057 0.960 . S
C1050 C1048 1.381 . S
C1050 C1051 1.394 . S
C1050 H1058 0.930 . S
C1051 C1050 1.394 . S
C1051 C1052 1.383 . S
C1051 H1059 0.929 . S
C1052 C1051 1.383 . S
C1052 C1053 1.377 . S
C1053 H1037 0.930 . S
C1053 C1052 1.377 . S
C1053 C1054 1.379 . S
C1054 H1038 0.931 . S
C1054 C1048 1.383 . S
C1054 C1053 1.379 . S
H1055 C1049 0.959 . S
H1056 C1049 0.961 . S
H1057 C1049 0.960 . S
H1058 C1050 0.930 . S
H1059 C1051 0.929 . S
H1060 C1068 0.929 . S
H1061 C1070 0.930 . S
H1062 C1072 0.930 . S
H1063 C1075 0.929 . S
H1064 C1078 0.930 . S
H1065 C1080 0.960 . S
H1066 C1080 0.960 . S
H1067 C1080 0.960 . S
C1068 H1060 0.929 . S
C1068 C1069 1.377 . S
C1068 C1070 1.384 . S
C1069 C1068 1.377 . S
C1069 C1075 1.390 . S
C1070 H1061 0.930 . S
C1070 C1068 1.384 . S
C1070 C1071 1.372 . S
C1071 C1070 1.372 . S
C1071 C1072 1.400 . S
C1071 C1076 1.490 . S
C1072 H1062 0.930 . S
C1072 C1071 1.400 . S
C1072 C1075 1.386 . S
H1073 C1089 0.930 . S
H1074 C1090 0.931 . S
C1075 H1063 0.929 . S
C1075 C1069 1.390 . S
C1075 C1072 1.386 . S
C1076 C1071 1.490 . S
C1076 C1078 1.395 . S
C1076 C1079 1.403 . S
H1077 C1083 0.930 . S
C1078 H1064 0.930 . S
C1078 C1076 1.395 . S
C1078 C1081 1.403 . S
C1079 C1076 1.403 . S
C1079 C1080 1.524 . S
C1079 C1083 1.400 . S
C1080 H1065 0.960 . S
C1080 H1066 0.960 . S
C1080 H1067 0.960 . S
C1080 C1079 1.524 . S
C1081 C1078 1.403 . S
C1081 C1082 1.392 . S
C1081 C1085 1.495 . S
C1082 C1081 1.392 . S
C1082 C1083 1.385 . S
C1082 C1084 1.478 . S
C1083 H1077 0.930 . S
C1083 C1079 1.400 . S
C1083 C1082 1.385 . S
C1084 C1082 1.478 . S
C1084 C1086 1.381 . S
C1084 C1090 1.383 . S
C1085 C1081 1.495 . S
C1085 H1091 0.959 . S
C1085 H1092 0.961 . S
C1085 H1093 0.960 . S
C1086 C1084 1.381 . S
C1086 C1087 1.394 . S
C1086 H1094 0.930 . S
C1087 C1086 1.394 . S
C1087 C1088 1.383 . S
C1087 H1095 0.929 . S
C1088 C1087 1.383 . S
C1088 C1089 1.377 . S
C1089 H1073 0.930 . S
C1089 C1088 1.377 . S
C1089 C1090 1.379 . S
C1090 H1074 0.931 . S
C1090 C1084 1.383 . S
C1090 C1089 1.379 . S
H1091 C1085 0.959 . S
H1092 C1085 0.961 . S
H1093 C1085 0.960 . S
H1094 C1086 0.930 . S
H1095 C1087 0.929 . S
H1096 C1104 0.929 . S
H1097 C1106 0.930 . S
H1098 C1108 0.930 . S
H1099 C1111 0.929 . S
H1100 C1114 0.930 . S
H1101 C1116 0.960 . S
H1102 C1116 0.960 . S
H1103 C1116 0.960 . S
C1104 H1096 0.929 . S
C1104 C1105 1.377 . S
C1104 C1106 1.384 . S
C1105 C1104 1.377 . S
C1105 C1111 1.390 . S
C1106 H1097 0.930 . S
C1106 C1104 1.384 . S
C1106 C1107 1.372 . S
C1107 C1106 1.372 . S
C1107 C1108 1.400 . S
C1107 C1112 1.490 . S
C1108 H1098 0.930 . S
C1108 C1107 1.400 . S
C1108 C1111 1.386 . S
H1109 C1125 0.930 . S
H1110 C1126 0.931 . S
C1111 H1099 0.929 . S
C1111 C1105 1.390 . S
C1111 C1108 1.386 . S
C1112 C1107 1.490 . S
C1112 C1114 1.395 . S
C1112 C1115 1.403 . S
H1113 C1119 0.930 . S
C1114 H1100 0.930 . S
C1114 C1112 1.395 . S
C1114 C1117 1.403 . S
C1115 C1112 1.403 . S
C1115 C1116 1.524 . S
C1115 C1119 1.400 . S
C1116 H1101 0.960 . S
C1116 H1102 0.960 . S
C1116 H1103 0.960 . S
C1116 C1115 1.524 . S
C1117 C1114 1.403 . S
C1117 C1118 1.392 . S
C1117 C1121 1.495 . S
C1118 C1117 1.392 . S
C1118 C1119 1.385 . S
C1118 C1120 1.478 . S
C1119 H1113 0.930 . S
C1119 C1115 1.400 . S
C1119 C1118 1.385 . S
C1120 C1118 1.478 . S
C1120 C1122 1.381 . S
C1120 C1126 1.383 . S
C1121 C1117 1.495 . S
C1121 H1127 0.959 . S
C1121 H1128 0.961 . S
C1121 H1129 0.960 . S
C1122 C1120 1.381 . S
C1122 C1123 1.394 . S
C1122 H1130 0.930 . S
C1123 C1122 1.394 . S
C1123 C1124 1.383 . S
C1123 H1131 0.929 . S
C1124 C1123 1.383 . S
C1124 C1125 1.377 . S
C1125 H1109 0.930 . S
C1125 C1124 1.377 . S
C1125 C1126 1.379 . S
C1126 H1110 0.931 . S
C1126 C1120 1.383 . S
C1126 C1125 1.379 . S
H1127 C1121 0.959 . S
H1128 C1121 0.961 . S
H1129 C1121 0.960 . S
H1130 C1122 0.930 . S
H1131 C1123 0.929 . S
H1132 C1140 0.929 . S
H1133 C1142 0.930 . S
H1134 C1144 0.930 . S
H1135 C1147 0.929 . S
H1136 C1150 0.930 . S
H1137 C1152 0.960 . S
H1138 C1152 0.960 . S
H1139 C1152 0.960 . S
C1140 H1132 0.929 . S
C1140 C1141 1.377 . S
C1140 C1142 1.384 . S
C1141 C1140 1.377 . S
C1141 C1147 1.390 . S
C1142 H1133 0.930 . S
C1142 C1140 1.384 . S
C1142 C1143 1.372 . S
C1143 C1142 1.372 . S
C1143 C1144 1.400 . S
C1143 C1148 1.490 . S
C1144 H1134 0.930 . S
C1144 C1143 1.400 . S
C1144 C1147 1.386 . S
H1145 C1161 0.930 . S
H1146 C1162 0.931 . S
C1147 H1135 0.929 . S
C1147 C1141 1.390 . S
C1147 C1144 1.386 . S
C1148 C1143 1.490 . S
C1148 C1150 1.395 . S
C1148 C1151 1.403 . S
H1149 C1155 0.930 . S
C1150 H1136 0.930 . S
C1150 C1148 1.395 . S
C1150 C1153 1.403 . S
C1151 C1148 1.403 . S
C1151 C1152 1.524 . S
C1151 C1155 1.400 . S
C1152 H1137 0.960 . S
C1152 H1138 0.960 . S
C1152 H1139 0.960 . S
C1152 C1151 1.524 . S
C1153 C1150 1.403 . S
C1153 C1154 1.392 . S
C1153 C1157 1.495 . S
C1154 C1153 1.392 . S
C1154 C1155 1.385 . S
C1154 C1156 1.478 . S
C1155 H1149 0.930 . S
C1155 C1151 1.400 . S
C1155 C1154 1.385 . S
C1156 C1154 1.478 . S
C1156 C1158 1.381 . S
C1156 C1162 1.383 . S
C1157 C1153 1.495 . S
C1157 H1163 0.959 . S
C1157 H1164 0.961 . S
C1157 H1165 0.960 . S
C1158 C1156 1.381 . S
C1158 C1159 1.394 . S
C1158 H1166 0.930 . S
C1159 C1158 1.394 . S
C1159 C1160 1.383 . S
C1159 H1167 0.929 . S
C1160 C1159 1.383 . S
C1160 C1161 1.377 . S
C1161 H1145 0.930 . S
C1161 C1160 1.377 . S
C1161 C1162 1.379 . S
C1162 H1146 0.931 . S
C1162 C1156 1.383 . S
C1162 C1161 1.379 . S
H1163 C1157 0.959 . S
H1164 C1157 0.961 . S
H1165 C1157 0.960 . S
H1166 C1158 0.930 . S
H1167 C1159 0.929 . S
H1168 C1176 0.929 . S
H1169 C1178 0.930 . S
H1170 C1180 0.930 . S
H1171 C1183 0.929 . S
H1172 C1186 0.930 . S
H1173 C1188 0.960 . S
H1174 C1188 0.960 . S
H1175 C1188 0.960 . S
C1176 H1168 0.929 . S
C1176 C1177 1.377 . S
C1176 C1178 1.384 . S
C1177 C1176 1.377 . S
C1177 C1183 1.390 . S
C1178 H1169 0.930 . S
C1178 C1176 1.384 . S
C1178 C1179 1.372 . S
C1179 C1178 1.372 . S
C1179 C1180 1.400 . S
C1179 C1184 1.490 . S
C1180 H1170 0.930 . S
C1180 C1179 1.400 . S
C1180 C1183 1.386 . S
H1181 C1197 0.930 . S
H1182 C1198 0.931 . S
C1183 H1171 0.929 . S
C1183 C1177 1.390 . S
C1183 C1180 1.386 . S
C1184 C1179 1.490 . S
C1184 C1186 1.395 . S
C1184 C1187 1.403 . S
H1185 C1191 0.930 . S
C1186 H1172 0.930 . S
C1186 C1184 1.395 . S
C1186 C1189 1.403 . S
C1187 C1184 1.403 . S
C1187 C1188 1.524 . S
C1187 C1191 1.400 . S
C1188 H1173 0.960 . S
C1188 H1174 0.960 . S
C1188 H1175 0.960 . S
C1188 C1187 1.524 . S
C1189 C1186 1.403 . S
C1189 C1190 1.392 . S
C1189 C1193 1.495 . S
C1190 C1189 1.392 . S
C1190 C1191 1.385 . S
C1190 C1192 1.478 . S
C1191 H1185 0.930 . S
C1191 C1187 1.400 . S
C1191 C1190 1.385 . S
C1192 C1190 1.478 . S
C1192 C1194 1.381 . S
C1192 C1198 1.383 . S
C1193 C1189 1.495 . S
C1193 H1199 0.959 . S
C1193 H1200 0.961 . S
C1193 H1201 0.960 . S
C1194 C1192 1.381 . S
C1194 C1195 1.394 . S
C1194 H1202 0.930 . S
C1195 C1194 1.394 . S
C1195 C1196 1.383 . S
C1195 H1203 0.929 . S
C1196 C1195 1.383 . S
C1196 C1197 1.377 . S
C1197 H1181 0.930 . S
C1197 C1196 1.377 . S
C1197 C1198 1.379 . S
C1198 H1182 0.931 . S
C1198 C1192 1.383 . S
C1198 C1197 1.379 . S
H1199 C1193 0.959 . S
H1200 C1193 0.961 . S
H1201 C1193 0.960 . S
H1202 C1194 0.930 . S
H1203 C1195 0.929 . S
H1204 C1212 0.929 . S
H1205 C1214 0.930 . S
H1206 C1216 0.930 . S
H1207 C1219 0.929 . S
H1208 C1222 0.930 . S
H1209 C1224 0.960 . S
H1210 C1224 0.960 . S
H1211 C1224 0.960 . S
C1212 H1204 0.929 . S
C1212 C1213 1.377 . S
C1212 C1214 1.384 . S
C1213 C1212 1.377 . S
C1213 C1219 1.390 . S
C1214 H1205 0.930 . S
C1214 C1212 1.384 . S
C1214 C1215 1.372 . S
C1215 C1214 1.372 . S
C1215 C1216 1.400 . S
C1215 C1220 1.490 . S
C1216 H1206 0.930 . S
C1216 C1215 1.400 . S
C1216 C1219 1.386 . S
H1217 C1233 0.930 . S
H1218 C1234 0.931 . S
C1219 H1207 0.929 . S
C1219 C1213 1.390 . S
C1219 C1216 1.386 . S
C1220 C1215 1.490 . S
C1220 C1222 1.395 . S
C1220 C1223 1.403 . S
H1221 C1227 0.930 . S
C1222 H1208 0.930 . S
C1222 C1220 1.395 . S
C1222 C1225 1.403 . S
C1223 C1220 1.403 . S
C1223 C1224 1.524 . S
C1223 C1227 1.400 . S
C1224 H1209 0.960 . S
C1224 H1210 0.960 . S
C1224 H1211 0.960 . S
C1224 C1223 1.524 . S
C1225 C1222 1.403 . S
C1225 C1226 1.392 . S
C1225 C1229 1.495 . S
C1226 C1225 1.392 . S
C1226 C1227 1.385 . S
C1226 C1228 1.478 . S
C1227 H1221 0.930 . S
C1227 C1223 1.400 . S
C1227 C1226 1.385 . S
C1228 C1226 1.478 . S
C1228 C1230 1.381 . S
C1228 C1234 1.383 . S
C1229 C1225 1.495 . S
C1229 H1235 0.959 . S
C1229 H1236 0.961 . S
C1229 H1237 0.960 . S
C1230 C1228 1.381 . S
C1230 C1231 1.394 . S
C1230 H1238 0.930 . S
C1231 C1230 1.394 . S
C1231 C1232 1.383 . S
C1231 H1239 0.929 . S
C1232 C1231 1.383 . S
C1232 C1233 1.377 . S
C1233 H1217 0.930 . S
C1233 C1232 1.377 . S
C1233 C1234 1.379 . S
C1234 H1218 0.931 . S
C1234 C1228 1.383 . S
C1234 C1233 1.379 . S
H1235 C1229 0.959 . S
H1236 C1229 0.961 . S
H1237 C1229 0.960 . S
H1238 C1230 0.930 . S
H1239 C1231 0.929 . S
C241 C10 2.386 . S
C260 C158 2.252 . S
C277 C39 2.388 . S
C296 C187 2.242 . S
C313 C216 2.245 . S
C332 C68 2.390 . S
C349 C129 2.239 . S
C368 C97 2.393 . S
C385 C126 2.386 . S
C404 C100 2.251 . S
C421 C155 2.390 . S
C440 C13 2.214 . S
C457 C184 2.384 . S
C476 C42 2.237 . S
C493 C213 2.389 . S
C512 C71 2.213 . S
C529 C108 0.530 . S
C548 C8 0.844 . S
C565 C21 0.502 . S
C584 C37 0.734 . S
C601 C50 0.530 . S
C620 C66 0.844 . S
C637 C95 0.829 . S
C656 C79 0.604 . S
C673 C124 0.813 . S
C692 C166 0.601 . S
C709 C153 0.796 . S
C728 C195 0.456 . S
C745 C182 0.806 . S
C764 C224 0.416 . S
C781 C137 0.501 . S
C800 C211 0.734 . S
C817 C5 2.758 . S
C836 C63 2.745 . S
C853 C34 2.757 . S
C872 C92 2.773 . S
C889 C121 2.760 . S
C908 C179 2.745 . S
C925 C150 2.757 . S
C944 C208 2.777 . S
C961 C177 1.558 1_545 S
C980 C15 1.558 . S
C997 C44 1.544 . S
C1016 C206 1.566 1_455 S
C1033 C73 1.551 . S
C1052 C119 1.561 1_565 S
C1069 C148 1.559 1_655 S
C1088 C102 1.533 . S
C1105 C131 1.547 . S
C1124 C61 1.565 . S
C1141 C90 1.556 . S
C1160 C160 1.553 . S
C1177 C189 1.551 . S
C1196 C3 1.554 . S
C1213 C32 1.560 . S
C1232 C218 1.528 . S
