# Generated by pormake.
# Topology sra, (4)-cn, num edge types: 1
# Building blocks:
#     Node 0, Type 0, BuildingBlock: UXUYUI_clean_sbu_0, # of connection points: 4
#     Node 1, Type 0, BuildingBlock: UXUYUI_clean_sbu_0, # of connection points: 4
#     Node 2, Type 0, BuildingBlock: UXUYUI_clean_sbu_0, # of connection points: 4
#     Node 3, Type 0, BuildingBlock: UXUYUI_clean_sbu_0, # of connection points: 4
#     Node 4, Type 0, BuildingBlock: UXUYUI_clean_sbu_0, # of connection points: 4
#     Node 5, Type 0, BuildingBlock: UXUYUI_clean_sbu_0, # of connection points: 4
#     Node 6, Type 0, BuildingBlock: UXUYUI_clean_sbu_0, # of connection points: 4
#     Node 7, Type 0, BuildingBlock: UXUYUI_clean_sbu_0, # of connection points: 4
#     Edge 8, Type (0, 0), BuildingBlock: XUDNAN_clean_linker_2, # of connection points: 2
#     Edge 9, Type (0, 0), BuildingBlock: XUDNAN_clean_linker_2, # of connection points: 2
#     Edge 10, Type (0, 0), BuildingBlock: XUDNAN_clean_linker_2, # of connection points: 2
#     Edge 11, Type (0, 0), BuildingBlock: XUDNAN_clean_linker_2, # of connection points: 2
#     Edge 12, Type (0, 0), BuildingBlock: XUDNAN_clean_linker_2, # of connection points: 2
#     Edge 13, Type (0, 0), BuildingBlock: XUDNAN_clean_linker_2, # of connection points: 2
#     Edge 14, Type (0, 0), BuildingBlock: XUDNAN_clean_linker_2, # of connection points: 2
#     Edge 15, Type (0, 0), BuildingBlock: XUDNAN_clean_linker_2, # of connection points: 2
#     Edge 16, Type (0, 0), BuildingBlock: XUDNAN_clean_linker_2, # of connection points: 2
#     Edge 17, Type (0, 0), BuildingBlock: XUDNAN_clean_linker_2, # of connection points: 2
#     Edge 18, Type (0, 0), BuildingBlock: XUDNAN_clean_linker_2, # of connection points: 2
#     Edge 19, Type (0, 0), BuildingBlock: XUDNAN_clean_linker_2, # of connection points: 2
#     Edge 20, Type (0, 0), BuildingBlock: XUDNAN_clean_linker_2, # of connection points: 2
#     Edge 21, Type (0, 0), BuildingBlock: XUDNAN_clean_linker_2, # of connection points: 2
#     Edge 22, Type (0, 0), BuildingBlock: XUDNAN_clean_linker_2, # of connection points: 2
#     Edge 23, Type (0, 0), BuildingBlock: XUDNAN_clean_linker_2, # of connection points: 2
# Relax obj value: 0.133
# Max RMSD: 0.099
# Mean RMSD: 0.099
data_MOF--net-sra--node1-UXUYUI_clean_sbu_0--edge1-XUDNAN_clean_linker_2
_symmetry_space_group_name_H-M    P1
_symmetry_Int_Tables_number       1
_symmetry_cell_setting            triclinic
loop_
_symmetry_equiv_pos_as_xyz
'x, y, z'
_cell_length_a     37.581014
_cell_length_b     63.152786
_cell_length_c     62.42667
_cell_angle_alpha  90.076758
_cell_angle_beta   89.883385
_cell_angle_gamma 89.975268
loop_
_atom_site_label
_atom_site_type_symbol
_atom_site_fract_x
_atom_site_fract_y
_atom_site_fract_z
_atom_type_partial_charge
Li0 Li 0.00844 0.10113 0.1571 0.0
Li1 Li 0.04198 0.07288 0.17525 0.0
Li2 Li 1.00335 0.06507 0.14285 0.0
Li3 Li 0.97657 0.0726 0.17804 0.0
C4 C 0.06851 0.09534 0.13279 0.0
N5 N 0.11187 0.12076 0.10793 0.0
C6 C 0.10065 0.10293 0.14099 0.0
C7 C 0.05876 0.10035 0.11181 0.0
C8 C 0.12211 0.11586 0.12821 0.0
C9 C 0.08094 0.11331 0.09953 0.0
C10 C 0.02337 0.10096 0.20761 0.0
C11 C 0.03833 0.09325 0.24434 0.0
N12 N 0.05027 0.11343 0.24682 0.0
C13 C 0.03549 0.12168 0.21058 0.0
C14 C 0.02453 0.08667 0.22467 0.0
C15 C 0.0491 0.12766 0.2305 0.0
C16 C 0.97736 0.13939 0.14338 0.0
N17 N 0.00825 0.13054 0.15027 0.0
C18 C 0.03756 0.16411 0.14874 0.0
C19 C 0.03801 0.14244 0.15317 0.0
C20 C 0.00609 0.17364 0.14139 0.0
C21 C 0.97572 0.16096 0.13872 0.0
H22 H 0.95374 0.12978 0.14186 0.0
H23 H 0.06193 0.1352 0.1593 0.0
C24 C 0.09686 0.04593 0.19021 0.0
N25 N 0.08549 0.06635 0.18966 0.0
C26 C 0.12825 0.04062 0.20093 0.0
C27 C 0.13566 0.07747 0.2103 0.0
C28 C 0.10454 0.08208 0.1991 0.0
C29 C 0.14806 0.05648 0.21139 0.0
H30 H 0.08154 0.03374 0.18227 0.0
H31 H 0.09558 0.09828 0.19797 0.0
C32 C 0.94024 0.08556 0.1335 0.0
N33 N 0.89197 0.08572 0.10015 0.0
C34 C 0.90617 0.07715 0.13641 0.0
C35 C 0.94955 0.09433 0.11373 0.0
C36 C 0.8822 0.0773 0.11933 0.0
C37 C 0.92485 0.09418 0.09704 0.0
C38 C 0.99615 0.03102 0.18003 0.0
C39 C 0.97374 0.01706 0.16911 0.0
C40 C 0.00582 0.02666 0.20117 0.0
C41 C 0.96068 0.9992 0.17971 0.0
C42 C 0.99222 0.00864 0.21122 0.0
N43 N 0.97007 0.99541 0.20038 0.0
C44 C 0.02889 0.04581 0.10483 0.0
C45 C 0.9676 0.04016 0.11155 0.0
C46 C 0.02686 0.03419 0.08579 0.0
N47 N 0.99944 0.04869 0.11718 0.0
C48 C 0.96425 0.02865 0.09257 0.0
C49 C 0.99414 0.02546 0.07935 0.0
H50 H 0.05405 0.05247 0.10982 0.0
H51 H 0.9447 0.04226 0.1218 0.0
C52 C 0.93344 0.08 0.21416 0.0
N53 N 0.93701 0.06727 0.19671 0.0
C54 C 0.90547 0.07699 0.22853 0.0
C55 C 0.88399 0.04844 0.20625 0.0
C56 C 0.91278 0.05183 0.19241 0.0
C57 C 0.88038 0.06099 0.22471 0.0
H58 H 0.95209 0.0927 0.21686 0.0
H59 H 0.91552 0.04229 0.17813 0.0
O60 O 0.04708 0.08274 0.14511 0.0
O61 O 0.01028 0.09478 0.18814 0.0
O62 O 0.96419 0.08533 0.14998 0.0
O63 O 0.00906 0.04864 0.16993 0.0
H64 H 0.10881 0.09905 0.1571 0.0
H65 H 0.03449 0.09417 0.105 0.0
H66 H 0.14691 0.12199 0.13443 0.0
H67 H 0.07362 0.11738 0.0833 0.0
H68 H 0.03949 0.08232 0.25765 0.0
H69 H 0.03446 0.13302 0.19764 0.0
H70 H 0.01474 0.07072 0.22276 0.0
H71 H 0.05872 0.14361 0.23299 0.0
H72 H 0.0616 0.17329 0.15102 0.0
H73 H 0.95067 0.16773 0.13357 0.0
H74 H 0.13698 0.02429 0.20082 0.0
H75 H 0.14949 0.09028 0.21826 0.0
H76 H 0.89835 0.07051 0.15165 0.0
H77 H 0.9755 0.10127 0.11134 0.0
H78 H 0.85582 0.07074 0.12132 0.0
H79 H 0.93178 0.10084 0.08163 0.0
H80 H 0.96623 0.02008 0.1527 0.0
H81 H 0.02385 0.03698 0.20969 0.0
H82 H 0.94306 0.98836 0.1715 0.0
H83 H 0.99937 0.00512 0.22761 0.0
H84 H 0.05079 0.03185 0.07639 0.0
H85 H 0.93834 0.02253 0.08824 0.0
H86 H 0.90315 0.08731 0.24233 0.0
H87 H 0.86504 0.03601 0.20271 0.0
Li88 Li 0.00658 0.43717 0.14335 0.0
Li89 Li 0.03896 0.43204 0.17556 0.0
Li90 Li 0.00835 0.40165 0.15871 0.0
Li91 Li 0.9739 0.43217 0.17701 0.0
C92 C 0.07329 0.41365 0.13291 0.0
N93 N 0.12436 0.40378 0.10257 0.0
C94 C 0.10576 0.42446 0.13265 0.0
C95 C 0.06696 0.39769 0.11785 0.0
C96 C 0.13118 0.41928 0.11715 0.0
C97 C 0.09307 0.39297 0.10262 0.0
C98 C 0.02359 0.47442 0.16613 0.0
C99 C 0.03115 0.51166 0.17334 0.0
N100 N 0.06008 0.51192 0.16021 0.0
C101 C 0.05332 0.47506 0.15268 0.0
C102 C 0.01231 0.49285 0.17652 0.0
C103 C 0.07143 0.49417 0.1499 0.0
C104 C 0.97768 0.46715 0.11498 0.0
N105 N 1.00362 0.45221 0.11656 0.0
C106 C 0.01973 0.45739 0.07984 0.0
C107 C 0.02488 0.44747 0.09955 0.0
C108 C 0.99218 0.47219 0.07752 0.0
C109 C 0.97124 0.47725 0.09547 0.0
H110 H 0.96127 0.47075 0.12877 0.0
H111 H 0.04531 0.43565 0.10096 0.0
C112 C 0.10857 0.42494 0.19032 0.0
N113 N 0.08071 0.43862 0.19161 0.0
C114 C 0.13846 0.42777 0.20325 0.0
C115 C 0.11064 0.45891 0.21841 0.0
C116 C 0.08131 0.45549 0.20515 0.0
C117 C 0.13956 0.44479 0.21776 0.0
H118 H 0.10704 0.41141 0.17972 0.0
H119 H 0.05855 0.46591 0.20616 0.0
C120 C 0.94649 0.41941 0.13046 0.0
N121 N 0.90961 0.42417 0.09253 0.0
C122 C 0.91583 0.43191 0.12981 0.0
C123 C 0.95814 0.4091 0.1119 0.0
C124 C 0.8976 0.43417 0.11046 0.0
C125 C 0.93922 0.41178 0.09286 0.0
C126 C 0.02447 0.40771 0.20834 0.0
C127 C 0.04745 0.39049 0.21086 0.0
C128 C 0.02058 0.42239 0.22495 0.0
C129 C 0.06644 0.38835 0.22995 0.0
C130 C 0.04006 0.41969 0.24379 0.0
N131 N 0.06242 0.40288 0.24587 0.0
C132 C 0.0381 0.36043 0.15511 0.0
C133 C 0.97662 0.36331 0.14713 0.0
C134 C 0.03745 0.33874 0.15066 0.0
N135 N 0.00794 0.37217 0.15324 0.0
C136 C 0.97481 0.34176 0.14239 0.0
C137 C 0.00551 0.32918 0.14409 0.0
H138 H 0.06269 0.36797 0.15986 0.0
H139 H 0.95303 0.37304 0.1459 0.0
C140 C 0.91067 0.45446 0.18921 0.0
N141 N 0.93302 0.43821 0.19405 0.0
C142 C 0.8809 0.45853 0.20211 0.0
C143 C 0.89833 0.42942 0.2249 0.0
C144 C 0.9272 0.42563 0.21135 0.0
C145 C 0.87479 0.44603 0.22033 0.0
H146 H 0.91603 0.46428 0.17538 0.0
H147 H 0.94512 0.41266 0.21471 0.0
O148 O 0.0482 0.41837 0.14811 0.0
O149 O 0.00551 0.45589 0.16924 0.0
O150 O 0.96533 0.41753 0.14909 0.0
O151 O 0.00658 0.4105 0.18949 0.0
H152 H 0.11136 0.4367 0.1443 0.0
H153 H 0.04211 0.3891 0.11781 0.0
H154 H 0.15637 0.42755 0.11673 0.0
H155 H 0.08845 0.38072 0.09082 0.0
H156 H 0.02278 0.52605 0.18132 0.0
H157 H 0.0622 0.461 0.14442 0.0
H158 H 0.9893 0.49259 0.18698 0.0
H159 H 0.09449 0.49489 0.13953 0.0
H160 H 0.03628 0.45293 0.06634 0.0
H161 H 0.94991 0.48873 0.09437 0.0
H162 H 0.15985 0.4163 0.20247 0.0
H163 H 0.11048 0.47231 0.22926 0.0
H164 H 0.9064 0.43995 0.14403 0.0
H165 H 0.98176 0.39934 0.11215 0.0
H166 H 0.87396 0.44392 0.10968 0.0
H167 H 0.94812 0.40405 0.07833 0.0
H168 H 0.05083 0.37903 0.19813 0.0
H169 H 1.00319 0.43594 0.22316 0.0
H170 H 0.08448 0.37517 0.23208 0.0
H171 H 0.03756 0.43103 0.25671 0.0
H172 H 0.06176 0.32962 0.15199 0.0
H173 H 0.94955 0.33496 0.13768 0.0
H174 H 0.86328 0.47153 0.19817 0.0
H175 H 0.89423 0.41934 0.23871 0.0
Li176 Li 1.00354 0.93697 0.86463 0.0
Li177 Li 0.97125 0.9297 0.83223 0.0
Li178 Li 0.00933 0.90225 0.84652 0.0
Li179 Li 0.0349 0.93453 0.82807 0.0
C180 C 0.95394 0.90856 0.87937 0.0
N181 N 0.92881 0.8966 0.9192 0.0
C182 C 0.91913 0.91355 0.88553 0.0
C183 C 0.97587 0.89743 0.89346 0.0
C184 C 0.90695 0.90739 0.90574 0.0
C185 C 0.96271 0.89152 0.91351 0.0
C186 C 0.9819 0.97241 0.83074 0.0
C187 C 0.97544 0.99969 0.80405 0.0
N188 N 0.94536 0.00654 0.81406 0.0
C189 C 0.95112 0.97981 0.84088 0.0
C190 C 0.99434 0.98247 0.81226 0.0
C191 C 0.93293 0.99704 0.83214 0.0
C192 C 0.03217 0.95356 0.90374 0.0
N193 N 1.00219 0.95066 0.89192 0.0
C194 C 0.96595 0.96337 0.92067 0.0
C195 C 0.96963 0.95609 0.8997 0.0
C196 C 0.99619 0.96556 0.93361 0.0
C197 C 0.02978 0.96115 0.92477 0.0
H198 H 0.05783 0.94944 0.89706 0.0
H199 H 0.94632 0.95414 0.88981 0.0
C200 C 0.89947 0.92035 0.82633 0.0
N201 N 0.92545 0.93336 0.81885 0.0
C202 C 0.86497 0.92166 0.81827 0.0
C203 C 0.88468 0.9491 0.7941 0.0
C204 C 0.91885 0.94733 0.80275 0.0
C205 C 0.8571 0.93634 0.8021 0.0
H206 H 0.9056 0.90878 0.8385 0.0
H207 H 0.94006 0.957 0.79643 0.0
C208 C 0.07745 0.91195 0.86457 0.0
N209 N 0.13725 0.89214 0.88073 0.0
C210 C 0.10681 0.9081 0.85133 0.0
C211 C 0.07874 0.90597 0.88611 0.0
C212 C 0.13673 0.898 0.85977 0.0
C213 C 0.10914 0.8959 0.89395 0.0
C214 C 0.9839 0.90515 0.79967 0.0
C215 C 0.96452 0.88633 0.80113 0.0
C216 C 0.98002 0.91805 0.78163 0.0
C217 C 0.9415 0.88072 0.78452 0.0
C218 C 0.95673 0.91188 0.76536 0.0
N219 N 0.9381 0.89351 0.76713 0.0
C220 C 0.98685 0.86042 0.85589 0.0
C221 C 0.04799 0.86347 0.84708 0.0
C222 C 0.99044 0.83859 0.85872 0.0
N223 N 0.01554 0.87242 0.85044 0.0
C224 C 0.05292 0.84178 0.8501 0.0
C225 C 0.02391 0.8291 0.85603 0.0
H226 H 0.96109 0.86779 0.85788 0.0
H227 H 0.06999 0.87306 0.84178 0.0
C228 C 0.10012 0.95605 0.8198 0.0
N229 N 0.07389 0.94397 0.81108 0.0
C230 C 0.1301 0.96145 0.80763 0.0
C231 C 0.10484 0.94246 0.77765 0.0
C232 C 0.07583 0.93707 0.79049 0.0
C233 C 0.13256 0.95464 0.78626 0.0
H234 H 0.09811 0.96104 0.83635 0.0
H235 H 0.05528 0.92695 0.78414 0.0
O236 O 0.96661 0.91497 0.85983 0.0
O237 O 1.00022 0.95566 0.83905 0.0
O238 O 0.04802 0.92199 0.85658 0.0
O239 O 0.0059 0.91114 0.81604 0.0
H240 H 0.90187 0.92242 0.87498 0.0
H241 H 1.00273 0.89333 0.88892 0.0
H242 H 0.88016 0.91127 0.91076 0.0
H243 H 0.97946 0.8829 0.92456 0.0
H244 H 0.98464 0.00759 0.78971 0.0
H245 H 0.94119 0.97217 0.85519 0.0
H246 H 0.01824 0.97697 0.8043 0.0
H247 H 0.90892 0.00285 0.83971 0.0
H248 H 0.93965 0.96694 0.92684 0.0
H249 H 0.0537 0.96271 0.9343 0.0
H250 H 0.84471 0.91113 0.82451 0.0
H251 H 0.87978 0.96056 0.78155 0.0
H252 H 0.10632 0.91252 0.83461 0.0
H253 H 0.05666 0.90917 0.89675 0.0
H254 H 0.1595 0.89478 0.84966 0.0
H255 H 0.11042 0.89114 0.91057 0.0
H256 H 0.967 0.87622 0.815 0.0
H257 H 0.99411 0.93293 0.78043 0.0
H258 H 0.92625 0.86622 0.78549 0.0
H259 H 0.95325 0.92179 0.7514 0.0
H260 H 0.96741 0.82927 0.86321 0.0
H261 H 0.07898 0.83492 0.84742 0.0
H262 H 0.15107 0.97083 0.8148 0.0
H263 H 0.10613 0.93661 0.76135 0.0
Li264 Li 0.97097 0.5713 0.83072 0.0
Li265 Li 1.00433 0.6001 0.84689 0.0
Li266 Li 0.03618 0.56887 0.83243 0.0
Li267 Li 1.00107 0.56647 0.86549 0.0
C268 C 0.99149 0.60455 0.80313 0.0
N269 N 0.96125 0.63413 0.77612 0.0
C270 C 0.9577 0.61271 0.80754 0.0
C271 C 0.00986 0.61138 0.78492 0.0
C272 C 0.94287 0.62766 0.79372 0.0
C273 C 0.99414 0.62636 0.77148 0.0
C274 C 0.94209 0.60014 0.8697 0.0
C275 C 0.93668 0.62416 0.89961 0.0
N276 N 0.90357 0.62966 0.89283 0.0
C277 C 0.90791 0.60592 0.86311 0.0
C278 C 0.95653 0.60924 0.88816 0.0
C279 C 0.8889 0.62091 0.875 0.0
C280 C 0.90068 0.55774 0.82703 0.0
N281 N 0.92925 0.56378 0.81517 0.0
C282 C 0.89594 0.55996 0.7828 0.0
C283 C 0.92765 0.56476 0.79343 0.0
C284 C 0.86572 0.55401 0.79467 0.0
C285 C 0.8685 0.55281 0.81709 0.0
H286 H 0.90279 0.55707 0.84429 0.0
H287 H 0.95086 0.56944 0.78434 0.0
C288 C 0.04257 0.63747 0.85279 0.0
N289 N 0.00889 0.63008 0.85023 0.0
C290 C 0.04879 0.6591 0.85546 0.0
C291 C 0.98551 0.66522 0.85278 0.0
C292 C 0.98059 0.64351 0.84984 0.0
C293 C 0.02001 0.67334 0.85568 0.0
H294 H 0.06469 0.6265 0.85265 0.0
H295 H 0.95409 0.63746 0.84734 0.0
C296 C 0.99996 0.53114 0.82512 0.0
N297 N 0.99798 0.49983 0.79419 0.0
C298 C 0.99413 0.51008 0.83097 0.0
C299 C 1.00481 0.53629 0.80353 0.0
C300 C 0.99322 0.49447 0.8151 0.0
C301 C 1.0037 0.52023 0.78814 0.0
C302 C 0.06635 0.58186 0.87669 0.0
C303 C 0.09215 0.56592 0.87664 0.0
C304 C 0.06399 0.59572 0.8941 0.0
C305 C 0.11472 0.56382 0.89426 0.0
C306 C 0.08704 0.5931 0.91142 0.0
N307 N 0.11169 0.57733 0.91116 0.0
C308 C 0.09458 0.57589 0.80587 0.0
C309 C 0.09255 0.54088 0.81939 0.0
C310 C 0.12584 0.57144 0.79463 0.0
N311 N 0.07859 0.56068 0.81785 0.0
C312 C 0.12399 0.53575 0.80851 0.0
C313 C 0.14112 0.55116 0.79589 0.0
H314 H 0.08298 0.59154 0.80508 0.0
H315 H 0.07944 0.52912 0.82922 0.0
C316 C 0.96659 0.55697 0.90439 0.0
N317 N 0.99658 0.55292 0.89289 0.0
C318 C 0.96132 0.54768 0.92437 0.0
C319 C 0.01728 0.52933 0.9202 0.0
C320 C 0.02156 0.53914 0.90025 0.0
C321 C 0.98675 0.53356 0.93257 0.0
H322 H 0.94634 0.56724 0.89799 0.0
H323 H 0.04455 0.53547 0.89051 0.0
O324 O 0.0066 0.58991 0.81646 0.0
O325 O 0.96121 0.58557 0.8582 0.0
O326 O 1.00088 0.54654 0.84054 0.0
O327 O 0.04403 0.58417 0.85957 0.0
H328 H 0.94302 0.6075 0.82144 0.0
H329 H 0.03597 0.60515 0.78117 0.0
H330 H 0.91674 0.6341 0.79698 0.0
H331 H 0.00807 0.6318 0.75734 0.0
H332 H 0.9476 0.63137 0.91388 0.0
H333 H 0.89622 0.59901 0.84891 0.0
H334 H 0.98275 0.60477 0.89359 0.0
H335 H 0.86249 0.6256 0.87003 0.0
H336 H 0.89514 0.56083 0.76548 0.0
H337 H 0.84583 0.54859 0.82692 0.0
H338 H 0.07595 0.66456 0.85709 0.0
H339 H 0.96239 0.67545 0.85304 0.0
H340 H 0.99035 0.50586 0.84763 0.0
H341 H 0.00946 0.55247 0.79867 0.0
H342 H 0.98874 0.4781 0.8194 0.0
H343 H 0.00742 0.52399 0.77138 0.0
H344 H 0.09446 0.55512 0.86326 0.0
H345 H 0.04475 0.60845 0.89419 0.0
H346 H 0.13462 0.55144 0.89452 0.0
H347 H 0.08543 0.60367 0.92505 0.0
H348 H 0.13763 0.58375 0.78487 0.0
H349 H 0.13499 0.52 0.81024 0.0
H350 H 0.93749 0.55162 0.93331 0.0
H351 H 0.03726 0.51822 0.92564 0.0
Li352 Li 0.53542 0.57092 0.67719 0.0
Li353 Li 0.50098 0.60032 0.66217 0.0
Li354 Li 0.47112 0.5687 0.67872 0.0
Li355 Li 0.49944 0.56577 0.64335 0.0
C356 C 0.51887 0.59609 0.7107 0.0
N357 N 0.55441 0.60762 0.74764 0.0
C358 C 0.53307 0.61645 0.71275 0.0
C359 C 0.52235 0.5817 0.72756 0.0
C360 C 0.55102 0.62195 0.73153 0.0
C361 C 0.54054 0.58779 0.74606 0.0
C362 C 0.56139 0.59622 0.63464 0.0
C363 C 0.57041 0.61182 0.59978 0.0
N364 N 0.60251 0.61935 0.60631 0.0
C365 C 0.59471 0.60386 0.64089 0.0
C366 C 0.54934 0.60001 0.61383 0.0
C367 C 0.615 0.61562 0.62639 0.0
C368 C 0.58723 0.54378 0.69578 0.0
N369 N 0.57876 0.5643 0.69169 0.0
C370 C 0.63103 0.5762 0.70985 0.0
C371 C 0.60019 0.5804 0.69819 0.0
C372 C 0.64031 0.55517 0.71465 0.0
C373 C 0.61806 0.53883 0.70724 0.0
H374 H 0.56998 0.53124 0.69022 0.0
H375 H 0.59301 0.59658 0.69463 0.0
C376 C 0.4641 0.63829 0.6634 0.0
N377 N 0.49715 0.63031 0.65981 0.0
C378 C 0.45867 0.66011 0.66427 0.0
C379 C 0.5214 0.66525 0.65744 0.0
C380 C 0.5256 0.64326 0.65667 0.0
C381 C 0.48765 0.67391 0.66166 0.0
H382 H 0.44204 0.62763 0.66614 0.0
H383 H 0.55178 0.63661 0.65445 0.0
C384 C 0.4893 0.52853 0.67622 0.0
N385 N 0.45585 0.49286 0.69205 0.0
C386 C 0.47003 0.51535 0.6625 0.0
C387 C 0.49196 0.52342 0.69793 0.0
C388 C 0.45322 0.49741 0.67082 0.0
C389 C 0.47474 0.50537 0.70565 0.0
C390 C 0.43724 0.59066 0.63576 0.0
C391 C 0.40227 0.58324 0.63438 0.0
C392 C 0.44965 0.60525 0.6207 0.0
C393 C 0.3806 0.59016 0.61763 0.0
C394 C 0.42716 0.61183 0.60421 0.0
N395 N 0.3934 0.60418 0.603 0.0
C396 C 0.42605 0.56733 0.71527 0.0
C397 C 0.40542 0.54775 0.68539 0.0
C398 C 0.39535 0.56229 0.72685 0.0
N399 N 0.43044 0.5601 0.69492 0.0
C400 C 0.37429 0.54234 0.69636 0.0
C401 C 0.36874 0.54979 0.71733 0.0
H402 H 0.44609 0.57735 0.7224 0.0
H403 H 0.40933 0.54243 0.66909 0.0
C404 C 0.52644 0.54761 0.60471 0.0
N405 N 0.49651 0.55185 0.61623 0.0
C406 C 0.52418 0.53675 0.5852 0.0
C407 C 0.46045 0.53473 0.58992 0.0
C408 C 0.46394 0.5456 0.60926 0.0
C409 C 0.49083 0.53 0.57765 0.0
H410 H 0.55212 0.55243 0.61079 0.0
H411 H 0.44067 0.54863 0.61895 0.0
O412 O 0.50155 0.59035 0.69233 0.0
O413 O 0.54132 0.58455 0.64864 0.0
O414 O 0.50539 0.54638 0.66845 0.0
O415 O 0.45879 0.58401 0.6521 0.0
H416 H 0.53048 0.62785 0.69995 0.0
H417 H 0.51132 0.56595 0.72633 0.0
H418 H 0.56232 0.63761 0.73327 0.0
H419 H 0.54365 0.57675 0.75916 0.0
H420 H 0.56132 0.6149 0.58366 0.0
H421 H 0.60476 0.60085 0.6568 0.0
H422 H 0.5242 0.59368 0.60843 0.0
H423 H 0.6407 0.62175 0.63108 0.0
H424 H 0.64694 0.58938 0.71544 0.0
H425 H 0.62439 0.52236 0.71018 0.0
H426 H 0.43213 0.6661 0.66731 0.0
H427 H 0.54455 0.6753 0.65566 0.0
H428 H 0.46788 0.51897 0.64564 0.0
H429 H 0.50704 0.53333 0.70873 0.0
H430 H 0.43803 0.48714 0.6604 0.0
H431 H 0.47639 0.5013 0.72244 0.0
H432 H 0.39201 0.57216 0.64603 0.0
H433 H 0.47616 0.6117 0.62188 0.0
H434 H 0.35358 0.58442 0.61629 0.0
H435 H 0.4365 0.62309 0.59243 0.0
H436 H 0.39244 0.56821 0.74304 0.0
H437 H 0.35434 0.53295 0.68822 0.0
H438 H 0.54834 0.5332 0.57641 0.0
H439 H 0.43416 0.53002 0.58468 0.0
Li440 Li 0.50501 0.93811 0.64377 0.0
Li441 Li 0.53315 0.93189 0.67746 0.0
Li442 Li 0.50066 0.9035 0.66189 0.0
Li443 Li 0.46919 0.93521 0.67861 0.0
C444 C 0.55631 0.90852 0.63143 0.0
N445 N 0.5807 0.89105 0.59353 0.0
C446 C 0.59211 0.91048 0.62564 0.0
C447 C 0.53298 0.89762 0.61797 0.0
C448 C 0.60392 0.90157 0.6064 0.0
C449 C 0.54579 0.88889 0.59889 0.0
C450 C 0.52529 0.9742 0.67211 0.0
C451 C 0.53942 0.00685 0.69021 0.0
N452 N 0.56936 0.00866 0.67806 0.0
C453 C 0.55609 0.97639 0.65974 0.0
C454 C 0.51674 0.98954 0.68742 0.0
C455 C 0.57807 0.99392 0.66302 0.0
C456 C 0.47239 0.96246 0.61261 0.0
N457 N 0.50375 0.95276 0.61713 0.0
C458 C 0.5292 0.96542 0.58442 0.0
C459 C 0.53204 0.95409 0.60357 0.0
C460 C 0.4971 0.97568 0.57937 0.0
C461 C 0.46843 0.97402 0.59373 0.0
H462 H 0.45041 0.96123 0.62376 0.0
H463 H 0.55694 0.94663 0.6077 0.0
C464 C 0.60484 0.92698 0.68991 0.0
N465 N 0.57432 0.93765 0.69445 0.0
C466 C 0.63434 0.92879 0.70336 0.0
C467 C 0.6007 0.95294 0.72564 0.0
C468 C 0.57188 0.95065 0.71176 0.0
C469 C 0.63229 0.94164 0.72172 0.0
H470 H 0.60581 0.91643 0.67627 0.0
H471 H 0.54709 0.95863 0.71526 0.0
C472 C 0.43356 0.91353 0.63897 0.0
N473 N 0.37604 0.89784 0.61643 0.0
C474 C 0.40225 0.90801 0.64971 0.0
C475 C 0.43535 0.91142 0.61668 0.0
C476 C 0.37354 0.9 0.63806 0.0
C477 C 0.40606 0.90336 0.6056 0.0
C478 C 0.51538 0.90828 0.71054 0.0
C479 C 0.5419 0.89277 0.71069 0.0
C480 C 0.50736 0.91936 0.72933 0.0
C481 C 0.56039 0.88879 0.72965 0.0
C482 C 0.52643 0.91489 0.74798 0.0
N483 N 0.55236 0.89986 0.74774 0.0
C484 C 0.52437 0.86074 0.65614 0.0
C485 C 0.46312 0.86541 0.66387 0.0
C486 C 0.52056 0.83872 0.65704 0.0
N487 N 0.4958 0.87354 0.65959 0.0
C488 C 0.45807 0.84357 0.66484 0.0
C489 C 0.48713 0.82989 0.66178 0.0
H490 H 0.55034 0.8676 0.65344 0.0
H491 H 0.44117 0.87589 0.66732 0.0
C492 C 0.41153 0.96249 0.68795 0.0
N493 N 0.42727 0.94382 0.69307 0.0
C494 C 0.37893 0.96806 0.6972 0.0
C495 C 0.37988 0.93525 0.71711 0.0
C496 C 0.41247 0.93036 0.70752 0.0
C497 C 0.36238 0.9542 0.71177 0.0
H498 H 0.42396 0.97284 0.67634 0.0
H499 H 0.42548 0.91549 0.71108 0.0
O500 O 0.5444 0.91752 0.65005 0.0
O501 O 0.50376 0.95699 0.66937 0.0
O502 O 0.46177 0.92166 0.65013 0.0
O503 O 0.49776 0.91285 0.69199 0.0
H504 H 0.61051 0.91899 0.63581 0.0
H505 H 0.50538 0.89571 0.62232 0.0
H506 H 0.63152 0.90304 0.60169 0.0
H507 H 0.52799 0.88038 0.58835 0.0
H508 H 0.53324 0.01882 0.70205 0.0
H509 H 0.56314 0.96455 0.64791 0.0
H510 H 0.49297 0.988 0.69712 0.0
H511 H 0.6021 0.9958 0.65364 0.0
H512 H 0.5521 0.96656 0.57392 0.0
H513 H 0.4431 0.98148 0.59038 0.0
H514 H 0.65793 0.91954 0.6999 0.0
H515 H 0.59804 0.96317 0.73948 0.0
H516 H 0.40022 0.90972 0.66691 0.0
H517 H 0.45896 0.91609 0.60796 0.0
H518 H 0.34927 0.89552 0.64622 0.0
H519 H 0.40715 0.90158 0.58838 0.0
H520 H 0.54848 0.88413 0.69623 0.0
H521 H 0.48699 0.93148 0.72942 0.0
H522 H 0.58122 0.87697 0.72997 0.0
H523 H 0.52073 0.92345 0.76261 0.0
H524 H 0.5438 0.82879 0.65493 0.0
H525 H 0.43176 0.8375 0.66835 0.0
H526 H 0.36665 0.98295 0.69281 0.0
H527 H 0.36794 0.92393 0.72797 0.0
Li528 Li 0.47511 0.42999 0.33133 0.0
Li529 Li 0.50372 0.43805 0.36442 0.0
Li530 Li 0.53827 0.43434 0.32891 0.0
Li531 Li 0.50948 0.40271 0.34699 0.0
C532 C 0.48381 0.47219 0.33006 0.0
N533 N 0.44379 0.50479 0.31319 0.0
C534 C 0.45229 0.47846 0.34014 0.0
C535 C 0.49527 0.48262 0.31157 0.0
C536 C 0.43232 0.49493 0.33129 0.0
C537 C 0.47459 0.49906 0.30326 0.0
C538 C 0.45897 0.40692 0.37877 0.0
C539 C 0.47868 0.39047 0.41156 0.0
N540 N 0.4443 0.38885 0.41817 0.0
C541 C 0.42381 0.40512 0.38595 0.0
C542 C 0.48662 0.39959 0.39176 0.0
C543 C 0.41695 0.39594 0.40588 0.0
C544 C 0.40206 0.42479 0.32534 0.0
N545 N 0.43071 0.43451 0.31641 0.0
C546 C 0.39381 0.44947 0.28907 0.0
C547 C 0.42726 0.4465 0.29841 0.0
C548 C 0.3637 0.44016 0.29849 0.0
C549 C 0.36819 0.42752 0.31673 0.0
H550 H 0.40548 0.41487 0.33922 0.0
H551 H 0.45034 0.45388 0.29132 0.0
C552 C 0.53015 0.45844 0.4023 0.0
N553 N 0.50068 0.45235 0.39129 0.0
C554 C 0.52697 0.4664 0.42316 0.0
C555 C 0.46313 0.46277 0.42037 0.0
C556 C 0.46755 0.45496 0.39964 0.0
C557 C 0.49312 0.4681 0.43264 0.0
H558 H 0.55617 0.45657 0.39512 0.0
H559 H 0.4445 0.4504 0.39039 0.0
C560 C 0.49233 0.40815 0.29747 0.0
N561 N 0.45556 0.40283 0.25955 0.0
C562 C 0.46717 0.39198 0.29551 0.0
C563 C 0.4989 0.42157 0.28012 0.0
C564 C 0.44879 0.38958 0.27623 0.0
C565 C 0.48005 0.41861 0.26108 0.0
C566 C 0.58 0.41435 0.36491 0.0
C567 C 0.60525 0.40726 0.35006 0.0
C568 C 0.58793 0.41374 0.38678 0.0
C569 C 0.63812 0.39986 0.35732 0.0
C570 C 0.62107 0.40618 0.3934 0.0
N571 N 0.64529 0.39949 0.37866 0.0
C572 C 0.59954 0.45937 0.32198 0.0
C573 C 0.59134 0.43168 0.2968 0.0
C574 C 0.63285 0.46409 0.31319 0.0
N575 N 0.57987 0.44318 0.3139 0.0
C576 C 0.62439 0.4359 0.28748 0.0
C577 C 0.64599 0.45199 0.29597 0.0
H578 H 0.58991 0.46807 0.33576 0.0
H579 H 0.57567 0.41849 0.29108 0.0
C580 C 0.48243 0.36135 0.34975 0.0
N581 N 0.51281 0.37281 0.35217 0.0
C582 C 0.4824 0.33952 0.35345 0.0
C583 C 0.54473 0.34172 0.36256 0.0
C584 C 0.54365 0.36341 0.35844 0.0
C585 C 0.51385 0.3295 0.36005 0.0
H586 H 0.45807 0.36923 0.34515 0.0
H587 H 0.56745 0.37262 0.36041 0.0
O588 O 0.50368 0.45609 0.3384 0.0
O589 O 0.46605 0.41631 0.35941 0.0
O590 O 0.51023 0.41094 0.31633 0.0
O591 O 0.54783 0.42199 0.3581 0.0
H592 H 0.44315 0.47053 0.35449 0.0
H593 H 0.51972 0.47796 0.30367 0.0
H594 H 0.4077 0.49985 0.3388 0.0
H595 H 0.48298 0.50721 0.28889 0.0
H596 H 0.49988 0.38471 0.4217 0.0
H597 H 0.40198 0.41097 0.37637 0.0
H598 H 0.51392 0.40084 0.38665 0.0
H599 H 0.38987 0.39451 0.41161 0.0
H600 H 0.39141 0.45931 0.27495 0.0
H601 H 0.34572 0.41972 0.32422 0.0
H602 H 0.55078 0.47036 0.43205 0.0
H603 H 0.4365 0.46429 0.42685 0.0
H604 H 0.46169 0.38149 0.30877 0.0
H605 H 0.51782 0.43441 0.28146 0.0
H606 H 0.42911 0.3772 0.27453 0.0
H607 H 0.4847 0.42896 0.24757 0.0
H608 H 0.5993 0.407 0.33316 0.0
H609 H 0.56866 0.41888 0.39857 0.0
H610 H 0.65785 0.3943 0.34599 0.0
H611 H 0.62751 0.40562 0.41027 0.0
H612 H 0.6485 0.47675 0.32013 0.0
H613 H 0.63368 0.42592 0.2745 0.0
H614 H 0.45794 0.33066 0.35157 0.0
H615 H 0.56959 0.33454 0.36746 0.0
Li616 Li 0.50789 0.10043 0.34757 0.0
Li617 Li 0.47756 0.06986 0.32871 0.0
Li618 Li 0.50593 0.06618 0.36557 0.0
Li619 Li 0.54147 0.07055 0.33407 0.0
C620 C 0.44018 0.09878 0.36247 0.0
N621 N 0.39058 0.12903 0.37411 0.0
C622 C 0.41188 0.10358 0.3488 0.0
C623 C 0.44308 0.10926 0.38213 0.0
C624 C 0.38711 0.11894 0.35497 0.0
C625 C 0.41781 0.12454 0.38769 0.0
C626 C 0.53388 0.09527 0.30074 0.0
C627 C 0.55828 0.08675 0.26603 0.0
N628 N 0.58166 0.10306 0.26801 0.0
C629 C 0.55804 0.112 0.30242 0.0
C630 C 0.53389 0.08255 0.2824 0.0
C631 C 0.58203 0.11567 0.2857 0.0
C632 C 0.5376 0.13883 0.36106 0.0
N633 N 0.50829 0.13041 0.35162 0.0
C634 C 0.48176 0.16473 0.34883 0.0
C635 C 0.48099 0.14291 0.34501 0.0
C636 C 0.5113 0.1738 0.35915 0.0
C637 C 0.53968 0.16053 0.365 0.0
H638 H 0.55957 0.12869 0.36543 0.0
H639 H 0.45851 0.13598 0.33685 0.0
C640 C 0.41253 0.04968 0.32136 0.0
N641 N 0.43764 0.06201 0.31192 0.0
C642 C 0.38109 0.04479 0.31054 0.0
C643 C 0.40242 0.06494 0.28023 0.0
C644 C 0.43328 0.06963 0.29176 0.0
C645 C 0.37552 0.05255 0.28969 0.0
H646 H 0.41655 0.04412 0.33757 0.0
H647 H 0.45343 0.0797 0.28477 0.0
C648 C 0.56325 0.08462 0.38116 0.0
N649 N 0.5951 0.08269 0.42098 0.0
C650 C 0.59292 0.07165 0.38439 0.0
C651 C 0.54992 0.09669 0.39817 0.0
C652 C 0.60863 0.07089 0.40464 0.0
C653 C 0.56633 0.09545 0.41818 0.0
C654 C 0.52415 0.0293 0.33208 0.0
C655 C 0.55395 0.02067 0.34217 0.0
C656 C 0.51081 0.01985 0.3135 0.0
C657 C 0.57023 0.00278 0.33335 0.0
C658 C 0.5278 0.00193 0.30521 0.0
N659 N 0.55693 0.99385 0.31521 0.0
C660 C 0.46978 0.05732 0.40409 0.0
C661 C 0.52631 0.04093 0.40178 0.0
C662 C 0.46549 0.05017 0.42507 0.0
N663 N 0.50022 0.05311 0.3931 0.0
C664 C 0.52335 0.03365 0.42285 0.0
C665 C 0.49288 0.03861 0.43498 0.0
H666 H 0.44894 0.06649 0.39667 0.0
H667 H 0.54994 0.03734 0.39262 0.0
C668 C 0.61418 0.0766 0.32877 0.0
N669 N 0.58703 0.06464 0.32102 0.0
C670 C 0.64857 0.07419 0.32077 0.0
C671 C 0.62651 0.0479 0.29602 0.0
C672 C 0.59241 0.05075 0.30463 0.0
C673 C 0.6552 0.05953 0.30433 0.0
H674 H 0.60908 0.08824 0.3411 0.0
H675 H 0.5703 0.04205 0.29801 0.0
O676 O 0.46476 0.08382 0.35669 0.0
O677 O 0.5109 0.09109 0.3172 0.0
O678 O 0.54725 0.08544 0.36149 0.0
O679 O 0.50767 0.04672 0.34049 0.0
H680 H 0.4092 0.09571 0.33351 0.0
H681 H 0.46464 0.10567 0.39296 0.0
H682 H 0.36517 0.12287 0.34451 0.0
H683 H 0.41983 0.13283 0.40282 0.0
H684 H 0.55878 0.07694 0.25181 0.0
H685 H 0.55852 0.12191 0.31657 0.0
H686 H 0.51574 0.06932 0.28101 0.0
H687 H 0.60102 0.12849 0.28682 0.0
H688 H 0.45924 0.17429 0.34401 0.0
H689 H 0.56349 0.16683 0.37236 0.0
H690 H 0.36098 0.03557 0.31873 0.0
H691 H 0.39965 0.07107 0.26414 0.0
H692 H 0.60336 0.06197 0.37152 0.0
H693 H 0.52711 0.10686 0.39595 0.0
H694 H 0.63146 0.06083 0.40739 0.0
H695 H 0.55619 0.10464 0.4315 0.0
H696 H 0.56469 0.02789 0.35648 0.0
H697 H 0.48767 0.02632 0.30555 0.0
H698 H 0.59349 0.99601 0.34089 0.0
H699 H 0.51787 0.99446 0.29081 0.0
H700 H 0.44104 0.05384 0.43349 0.0
H701 H 0.54523 0.02485 0.42974 0.0
H702 H 0.6697 0.08395 0.32721 0.0
H703 H 0.63044 0.03657 0.28319 0.0
H704 H 0.03501 0.2964 0.16677 0.0
H705 H 0.97224 0.31016 0.1102 0.0
H706 H 0.96749 0.27188 0.10257 0.0
H707 H 0.08377 0.25153 0.14443 0.0
H708 H 0.08296 0.2369 0.1692 0.0
H709 H 0.08275 0.26543 0.16967 0.0
H710 H 0.02509 0.26504 0.19251 0.0
H711 H 0.0251 0.23654 0.19211 0.0
H712 H 0.98665 0.2509 0.18285 0.0
H713 H 0.96795 0.23217 0.10174 0.0
H714 H 0.97312 0.19368 0.10795 0.0
H715 H 0.03512 0.20584 0.16526 0.0
C716 C 0.02074 0.29136 0.1526 0.0
C717 C 1.00401 0.30624 0.13906 0.0
C718 C 0.98498 0.29901 0.12089 0.0
C719 C 0.98232 0.27733 0.11636 0.0
C720 C 0.99885 0.26308 0.13014 0.0
C721 C 0.01771 0.26977 0.14788 0.0
C722 C 0.03186 0.25116 0.16055 0.0
C723 C 0.07277 0.25127 0.16098 0.0
C724 C 0.01623 0.2509 0.18335 0.0
C725 C 0.01778 0.23295 0.14724 0.0
C726 C 0.99895 0.24017 0.12972 0.0
C727 C 0.98271 0.22632 0.11537 0.0
C728 C 0.98561 0.2045 0.11911 0.0
C729 C 1.00453 0.19674 0.13708 0.0
C730 C 0.02097 0.21124 0.1512 0.0
H731 H 0.984 0.79709 0.83887 0.0
H732 H 0.07463 0.80926 0.87996 0.0
H733 H 0.083 0.77071 0.88492 0.0
H734 H 0.94966 0.75171 0.86738 0.0
H735 H 0.93705 0.73775 0.84337 0.0
H736 H 0.93755 0.76627 0.84366 0.0
H737 H 0.98023 0.76638 0.81099 0.0
H738 H 0.97982 0.73787 0.81058 0.0
H739 H 0.0215 0.75187 0.81238 0.0
H740 H 0.08073 0.73092 0.88579 0.0
H741 H 0.07007 0.6927 0.88119 0.0
H742 H 0.98327 0.7066 0.8375 0.0
C743 C 0.00538 0.79159 0.84906 0.0
C744 C 0.02858 0.80605 0.85916 0.0
C745 C 0.05668 0.79836 0.87206 0.0
C746 C 0.06153 0.77654 0.87503 0.0
C747 C 0.03824 0.76268 0.86479 0.0
C748 C 0.01088 0.76988 0.85195 0.0
C749 C 0.9904 0.75165 0.84216 0.0
C750 C 0.95135 0.75186 0.8496 0.0
C751 C 0.99317 0.75197 0.81757 0.0
C752 C 0.01043 0.73307 0.85156 0.0
C753 C 0.03775 0.73976 0.86469 0.0
C754 C 0.05962 0.72548 0.87539 0.0
C755 C 0.0535 0.70376 0.87251 0.0
C756 C 0.02597 0.69647 0.85884 0.0
C757 C 1.00425 0.71148 0.84828 0.0
H758 H 0.51725 0.70639 0.63807 0.0
H759 H 0.44787 0.69384 0.69231 0.0
H760 H 0.43995 0.73218 0.69781 0.0
H761 H 0.56108 0.7518 0.66101 0.0
H762 H 0.56366 0.76606 0.63606 0.0
H763 H 0.56355 0.73754 0.63601 0.0
H764 H 0.50916 0.73754 0.61056 0.0
H765 H 0.50913 0.76606 0.61052 0.0
H766 H 0.46953 0.75182 0.61814 0.0
H767 H 0.44016 0.77154 0.698 0.0
H768 H 0.44801 0.80987 0.69266 0.0
H769 H 0.51695 0.7974 0.63814 0.0
C770 C 0.50051 0.71172 0.65115 0.0
C771 C 0.48294 0.69708 0.66465 0.0
C772 C 0.46106 0.70472 0.6815 0.0
C773 C 0.45658 0.72647 0.68486 0.0
C774 C 0.47418 0.74044 0.67126 0.0
C775 C 0.49568 0.73344 0.65473 0.0
C776 C 0.51153 0.75191 0.64249 0.0
C777 C 0.55238 0.75182 0.64399 0.0
C778 C 0.49908 0.75182 0.61904 0.0
C779 C 0.49564 0.77035 0.6548 0.0
C780 C 0.47418 0.76332 0.67132 0.0
C781 C 0.45669 0.77727 0.68503 0.0
C782 C 0.46113 0.79902 0.68175 0.0
C783 C 0.4828 0.8067 0.66484 0.0
C784 C 0.50035 0.79207 0.65126 0.0
H785 H 0.48735 0.29745 0.33505 0.0
H786 H 0.54251 0.30965 0.39479 0.0
H787 H 0.54578 0.27117 0.40169 0.0
H788 H 0.43569 0.2521 0.35345 0.0
H789 H 0.44006 0.23804 0.32844 0.0
H790 H 0.44037 0.26658 0.32873 0.0
H791 H 0.50111 0.26657 0.30899 0.0
H792 H 0.50098 0.23807 0.30864 0.0
H793 H 0.53797 0.25212 0.32025 0.0
H794 H 0.54379 0.23156 0.40185 0.0
H795 H 0.53872 0.1933 0.39478 0.0
H796 H 0.48715 0.20676 0.33407 0.0
C797 C 0.49967 0.29199 0.34971 0.0
C798 C 0.51459 0.30646 0.36445 0.0
C799 C 0.53111 0.29877 0.38326 0.0
C800 C 0.53292 0.27698 0.38736 0.0
C801 C 0.51822 0.26312 0.37244 0.0
C802 C 0.50201 0.27028 0.35396 0.0
C803 C 0.48973 0.25198 0.3401 0.0
C804 C 0.44905 0.25219 0.33754 0.0
C805 C 0.50859 0.25221 0.3182 0.0
C806 C 0.50179 0.23342 0.35362 0.0
C807 C 0.51788 0.24022 0.37228 0.0
C808 C 0.53137 0.22604 0.38726 0.0
C809 C 0.5286 0.20432 0.38299 0.0
C810 C 0.51278 0.19692 0.36377 0.0
C811 C 0.49902 0.21179 0.34901 0.0
H812 H 0.33872 0.0793 0.26279 0.0
H813 H 0.33466 0.01635 0.29069 0.0
H814 H 0.27657 0.0103 0.27344 0.0
H815 H 0.24744 0.09155 0.26756 0.0
H816 H 0.24457 0.1051 0.24224 0.0
H817 H 0.28613 0.10444 0.25652 0.0
H818 H 0.3174 0.08816 0.22332 0.0
H819 H 0.27599 0.08893 0.20886 0.0
H820 H 0.29983 0.0643 0.2115 0.0
H821 H 0.21728 0.01187 0.25461 0.0
H822 H 0.16288 0.02027 0.23437 0.0
H823 H 0.20855 0.08088 0.21619 0.0
C824 C 0.32608 0.06406 0.26501 0.0
C825 C 0.34142 0.04836 0.27826 0.0
C826 C 0.32333 0.02882 0.28098 0.0
C827 C 0.29038 0.02516 0.27111 0.0
C828 C 0.27597 0.04106 0.25835 0.0
C829 C 0.29342 0.06003 0.2551 0.0
C830 C 0.27217 0.07457 0.24069 0.0
C831 C 0.26198 0.09512 0.25246 0.0
C832 C 0.29256 0.07926 0.21985 0.0
C833 C 0.23983 0.06088 0.23654 0.0
C834 C 0.24246 0.04166 0.24692 0.0
C835 C 0.21517 0.02676 0.24614 0.0
C836 C 0.18441 0.03164 0.23442 0.0
C837 C 0.1812 0.05121 0.22343 0.0
C838 C 0.20964 0.06588 0.22451 0.0
H839 H 0.67006 0.45125 0.25421 0.0
H840 H 0.70589 0.45851 0.31988 0.0
H841 H 0.76805 0.46027 0.3073 0.0
H842 H 0.73931 0.41738 0.23745 0.0
H843 H 0.74339 0.4285 0.21098 0.0
H844 H 0.70142 0.42966 0.22487 0.0
H845 H 0.7001 0.47042 0.22032 0.0
H846 H 0.74208 0.46939 0.20635 0.0
H847 H 0.73714 0.48602 0.22966 0.0
H848 H 0.8264 0.45771 0.28816 0.0
H849 H 0.87713 0.45279 0.26333 0.0
H850 H 0.804 0.44806 0.20993 0.0
C851 C 0.69097 0.45342 0.26592 0.0
C852 C 0.68302 0.4549 0.28804 0.0
C853 C 0.71118 0.45775 0.30284 0.0
C854 C 0.74663 0.45864 0.29586 0.0
C855 C 0.75354 0.45683 0.274 0.0
C856 C 0.72653 0.45447 0.25921 0.0
C857 C 0.74133 0.4521 0.23672 0.0
C858 C 0.73073 0.43063 0.22694 0.0
C859 C 0.72946 0.47059 0.22242 0.0
C860 C 0.78091 0.45308 0.24124 0.0
C861 C 0.78733 0.45581 0.26287 0.0
C862 C 0.82173 0.45589 0.27116 0.0
C863 C 0.85032 0.45302 0.25699 0.0
C864 C 0.84435 0.45028 0.23479 0.0
C865 C 0.80922 0.45054 0.22681 0.0
H866 H 0.20252 0.94763 0.79621 0.0
H867 H 0.1337 0.97165 0.74616 0.0
H868 H 0.18595 0.97676 0.72258 0.0
H869 H 0.27999 0.98182 0.78495 0.0
H870 H 0.31147 0.96095 0.79028 0.0
H871 H 0.26922 0.96135 0.80399 0.0
H872 H 0.25623 0.92333 0.79045 0.0
H873 H 0.29829 0.92286 0.77662 0.0
H874 H 0.25773 0.91787 0.76211 0.0
H875 H 0.24471 0.97691 0.70369 0.0
H876 H 0.30576 0.97134 0.69031 0.0
H877 H 0.33679 0.94696 0.75255 0.0
C878 C 0.19867 0.95444 0.78046 0.0
C879 C 0.16424 0.95948 0.77301 0.0
C880 C 0.15995 0.96778 0.75212 0.0
C881 C 0.18944 0.97079 0.73868 0.0
C882 C 0.223 0.96532 0.74635 0.0
C883 C 0.22781 0.95732 0.76675 0.0
C884 C 0.26633 0.95124 0.77047 0.0
C885 C 0.28272 0.96465 0.78849 0.0
C886 C 0.26983 0.92741 0.77518 0.0
C887 C 0.2823 0.9568 0.74889 0.0
C888 C 0.25691 0.9651 0.7353 0.0
C889 C 0.26495 0.97069 0.71427 0.0
C890 C 0.2998 0.96757 0.70685 0.0
C891 C 0.32625 0.95884 0.72039 0.0
C892 C 0.31724 0.9536 0.74176 0.0
H893 H 0.70523 0.57551 0.7139 0.0
H894 H 0.64831 0.52433 0.74531 0.0
H895 H 0.70093 0.51719 0.76769 0.0
H896 H 0.79263 0.55138 0.71419 0.0
H897 H 0.81525 0.57592 0.71986 0.0
H898 H 0.77394 0.57613 0.70526 0.0
H899 H 0.74687 0.60204 0.7331 0.0
H900 H 0.7881 0.60196 0.74773 0.0
H901 H 0.74717 0.59502 0.76109 0.0
H902 H 0.75892 0.5165 0.78771 0.0
H903 H 0.81767 0.52266 0.8042 0.0
H904 H 0.83554 0.57535 0.76089 0.0
C905 C 0.70369 0.56282 0.7255 0.0
C906 C 0.67252 0.55042 0.72768 0.0
C907 C 0.67199 0.53381 0.74296 0.0
C908 C 0.70171 0.5297 0.75587 0.0
C909 C 0.7318 0.54234 0.75338 0.0
C910 C 0.73299 0.55858 0.7386 0.0
C911 C 0.76805 0.57037 0.73968 0.0
C912 C 0.78868 0.56832 0.71849 0.0
C913 C 0.76218 0.59373 0.74577 0.0
C914 C 0.78628 0.55833 0.75753 0.0
C915 C 0.765 0.54215 0.76513 0.0
C916 C 0.77582 0.52912 0.78188 0.0
C917 C 0.80915 0.53283 0.79123 0.0
C918 C 0.83126 0.54951 0.78389 0.0
C919 C 0.81959 0.56227 0.76668 0.0
H920 H 0.7043 0.9432 0.71332 0.0
H921 H 0.62773 0.941 0.76546 0.0
H922 H 0.67687 0.94081 0.79156 0.0
H923 H 0.76722 0.90784 0.73682 0.0
H924 H 0.8057 0.92186 0.72702 0.0
H925 H 0.76451 0.92292 0.71237 0.0
H926 H 0.76555 0.96391 0.71419 0.0
H927 H 0.80676 0.96298 0.72886 0.0
H928 H 0.76898 0.97686 0.73987 0.0
H929 H 0.73396 0.93935 0.81197 0.0
H930 H 0.79556 0.9372 0.82542 0.0
H931 H 0.83536 0.93982 0.76016 0.0
C932 C 0.69786 0.9427 0.73023 0.0
C933 C 0.6621 0.9423 0.73733 0.0
C934 C 0.65485 0.94175 0.75962 0.0
C935 C 0.6826 0.9415 0.77458 0.0
C936 C 0.71748 0.94182 0.76703 0.0
C937 C 0.72525 0.94246 0.7454 0.0
C938 C 0.7651 0.94224 0.74157 0.0
C939 C 0.77628 0.92254 0.72869 0.0
C940 C 0.77731 0.96272 0.73047 0.0
C941 C 0.77847 0.94118 0.76442 0.0
C942 C 0.75053 0.94098 0.77884 0.0
C943 C 0.75607 0.93955 0.80084 0.0
C944 C 0.79113 0.93822 0.80832 0.0
C945 C 0.82023 0.93832 0.79385 0.0
C946 C 0.81369 0.93996 0.77162 0.0
H947 H 0.33006 0.57663 0.74312 0.0
H948 H 0.33048 0.51267 0.71753 0.0
H949 H 0.27295 0.50572 0.73539 0.0
H950 H 0.29173 0.56325 0.79497 0.0
H951 H 0.26594 0.58729 0.7964 0.0
H952 H 0.3075 0.58695 0.78197 0.0
H953 H 0.2753 0.60061 0.74801 0.0
H954 H 0.23363 0.60087 0.76229 0.0
H955 H 0.23773 0.58612 0.73766 0.0
H956 H 0.21413 0.50623 0.75512 0.0
H957 H 0.15916 0.51405 0.77536 0.0
H958 H 0.19901 0.57711 0.78935 0.0
C959 C 0.31844 0.56102 0.74154 0.0
C960 C 0.33491 0.5452 0.72889 0.0
C961 C 0.31824 0.52515 0.72691 0.0
C962 C 0.28565 0.521 0.7371 0.0
C963 C 0.27009 0.53702 0.74931 0.0
C964 C 0.28603 0.55659 0.75164 0.0
C965 C 0.26353 0.57124 0.76532 0.0
C966 C 0.28336 0.57755 0.78589 0.0
C967 C 0.25186 0.59086 0.75255 0.0
C968 C 0.23228 0.5569 0.77017 0.0
C969 C 0.23654 0.53723 0.76083 0.0
C970 C 0.21067 0.52152 0.76268 0.0
C971 C 0.1796 0.52609 0.77434 0.0
C972 C 0.17461 0.54619 0.78406 0.0
C973 C 0.20162 0.56167 0.78197 0.0
H974 H 0.67717 0.05648 0.2623 0.0
H975 H 0.71629 0.05646 0.32767 0.0
H976 H 0.77796 0.05448 0.31425 0.0
H977 H 0.745 0.02003 0.24036 0.0
H978 H 0.74815 0.03415 0.21535 0.0
H979 H 0.70682 0.03395 0.23005 0.0
H980 H 0.70628 0.07497 0.23024 0.0
H981 H 0.7476 0.07531 0.21561 0.0
H982 H 0.74405 0.08911 0.24082 0.0
H983 H 0.83511 0.05522 0.29408 0.0
H984 H 0.8846 0.05811 0.26816 0.0
H985 H 0.80912 0.05701 0.21569 0.0
C986 C 0.6987 0.05561 0.27377 0.0
C987 C 0.69195 0.05666 0.29604 0.0
C988 C 0.72088 0.0559 0.31054 0.0
C989 C 0.75598 0.05464 0.30308 0.0
C990 C 0.76177 0.05401 0.28106 0.0
C991 C 0.73401 0.05436 0.26658 0.0
C992 C 0.74778 0.05456 0.24372 0.0
C993 C 0.73625 0.03447 0.23166 0.0
C994 C 0.73571 0.07469 0.23191 0.0
C995 C 0.78758 0.05468 0.24767 0.0
C996 C 0.795 0.05425 0.26934 0.0
C997 C 0.82969 0.05533 0.27706 0.0
C998 C 0.85758 0.05707 0.26225 0.0
C999 C 0.85065 0.05769 0.23997 0.0
C1000 C 0.81518 0.0562 0.23262 0.0
H1001 H 0.21105 0.43946 0.20951 0.0
H1002 H 0.13636 0.45482 0.26036 0.0
H1003 H 0.18601 0.45707 0.28605 0.0
H1004 H 0.26694 0.40622 0.24072 0.0
H1005 H 0.30772 0.41471 0.22816 0.0
H1006 H 0.2666 0.41555 0.21344 0.0
H1007 H 0.27624 0.45547 0.20585 0.0
H1008 H 0.31743 0.45475 0.22056 0.0
H1009 H 0.28322 0.47342 0.22792 0.0
H1010 H 0.24294 0.45553 0.30663 0.0
H1011 H 0.30391 0.45115 0.32065 0.0
H1012 H 0.34199 0.4369 0.25659 0.0
C1013 C 0.20516 0.44336 0.22604 0.0
C1014 C 0.1698 0.4471 0.23289 0.0
C1015 C 0.16325 0.45227 0.25464 0.0
C1016 C 0.19126 0.45347 0.26938 0.0
C1017 C 0.22571 0.44955 0.26213 0.0
C1018 C 0.23283 0.4447 0.24096 0.0
C1019 C 0.27219 0.44066 0.23747 0.0
C1020 C 0.27873 0.41793 0.22948 0.0
C1021 C 0.28821 0.45706 0.22204 0.0
C1022 C 0.28601 0.44372 0.26005 0.0
C1023 C 0.25872 0.44886 0.27401 0.0
C1024 C 0.26457 0.45167 0.29584 0.0
C1025 C 0.29921 0.44905 0.30367 0.0
C1026 C 0.32759 0.44374 0.28969 0.0
C1027 C 0.32087 0.44125 0.26757 0.0
H1028 H 0.02864 0.03221 0.04081 0.0
H1029 H 0.95288 0.9903 0.07196 0.0
H1030 H 0.94556 0.97064 0.03819 0.0
H1031 H 0.98646 0.03448 0.99003 0.0
H1032 H 0.02726 0.03402 0.9748 0.0
H1033 H 0.02683 0.04494 1.00146 0.0
H1034 H 0.07709 0.01916 0.01265 0.0
H1035 H 0.07779 0.00821 0.98598 0.0
H1036 H 0.07121 0.99109 0.00873 0.0
H1037 H 0.94442 0.95636 1.00088 0.0
H1038 H 0.95209 0.94716 0.96267 0.0
H1039 H 0.03119 0.99673 0.95607 0.0
C1040 C 0.01088 0.01872 0.04069 0.0
C1041 C 0.99107 0.01302 0.05913 0.0
C1042 C 0.96777 0.99538 0.05802 0.0
C1043 C 0.96362 0.98396 0.03893 0.0
C1044 C 0.98325 0.99016 0.02108 0.0
C1045 C 0.00669 0.00698 0.02181 0.0
C1046 C 0.02465 0.01027 1.00029 0.0
C1047 C 0.01575 0.03223 0.99111 0.0
C1048 C 0.06509 0.00698 1.00202 0.0
C1049 C 0.00738 0.99278 0.98732 0.0
C1050 C 0.98345 0.98145 0.99964 0.0
C1051 C 0.96325 0.965 0.99111 0.0
C1052 C 0.96765 0.95997 0.96941 0.0
C1053 C 0.99223 0.97123 0.95652 0.0
C1054 C 0.01249 0.98775 0.96566 0.0
H1055 H 0.03631 0.52455 0.96389 0.0
H1056 H 0.92379 0.51883 0.94914 0.0
H1057 H 0.91302 0.50348 0.98478 0.0
H1058 H 0.04288 0.4748 0.99272 0.0
H1059 H 0.07405 0.485 0.01206 0.0
H1060 H 0.07296 0.49582 0.98538 0.0
H1061 H 0.06346 0.53337 1.00118 0.0
H1062 H 0.06427 0.52265 0.0279 0.0
H1063 H 0.02666 0.53807 0.01914 0.0
H1064 H 0.91389 0.4896 0.02229 0.0
H1065 H 0.92723 0.47582 0.05842 0.0
H1066 H 0.03933 0.48907 0.04846 0.0
C1067 C 0.00946 0.51985 0.96802 0.0
C1068 C 0.98085 0.52319 0.95371 0.0
C1069 C 0.94608 0.51694 0.95993 0.0
C1070 C 0.93968 0.50806 0.98012 0.0
C1071 C 0.96834 0.50531 0.99392 0.0
C1072 C 1.0026 0.5108 0.98809 0.0
C1073 C 0.0287 0.5059 0.0059 0.0
C1074 C 0.05627 0.4894 0.99857 0.0
C1075 C 0.04683 0.52621 0.01401 0.0
C1076 C 1.0037 0.49684 0.02262 0.0
C1077 C 0.96897 0.49679 0.01542 0.0
C1078 C 0.941 0.4895 0.0281 0.0
C1079 C 0.94878 0.48185 0.04864 0.0
C1080 C 0.98426 0.48142 0.05622 0.0
C1081 C 0.01199 0.48908 0.043 0.0
H1082 H 0.5276 0.5 0.45469 0.0
H1083 H 0.44935 0.45 0.46233 0.0
H1084 H 0.4412 0.46009 0.50016 0.0
H1085 H 0.56767 0.49445 0.5073 0.0
H1086 H 0.57424 0.52251 0.51087 0.0
H1087 H 0.57446 0.51126 0.48433 0.0
H1088 H 0.52465 0.53724 0.4729 0.0
H1089 H 0.5243 0.54858 0.49938 0.0
H1090 H 0.4838 0.53821 0.48806 0.0
H1091 H 0.44101 0.47548 0.53688 0.0
H1092 H 0.44823 0.49564 0.5704 0.0
H1093 H 0.52622 0.53606 0.53934 0.0
C1094 C 0.50897 0.49108 0.46439 0.0
C1095 C 0.48891 0.47429 0.45549 0.0
C1096 C 0.46456 0.46314 0.46867 0.0
C1097 C 0.45992 0.46865 0.49022 0.0
C1098 C 0.47987 0.48534 0.49844 0.0
C1099 C 0.50391 0.49642 0.48599 0.0
C1100 C 0.52149 0.51394 0.49881 0.0
C1101 C 0.56186 0.51031 0.50042 0.0
C1102 C 0.51304 0.53579 0.48921 0.0
C1103 C 0.50344 0.51099 0.52035 0.0
C1104 C 0.47962 0.49434 0.51975 0.0
C1105 C 0.4595 0.4886 0.53755 0.0
C1106 C 0.46362 0.50025 0.55649 0.0
C1107 C 0.48759 0.51755 0.55751 0.0
C1108 C 0.50791 0.52283 0.53916 0.0
H1109 H 0.52016 0.96566 0.5387 0.0
H1110 H 0.4662 0.01464 0.57525 0.0
H1111 H 0.45928 0.03586 0.54237 0.0
H1112 H 0.56832 1.0009 0.50332 0.0
H1113 H 0.5636 0.98397 0.48023 0.0
H1114 H 0.56464 0.97264 0.50669 0.0
H1115 H 0.50417 0.95424 0.49961 0.0
H1116 H 0.50293 0.96553 0.47314 0.0
H1117 H 0.46649 0.96993 0.49144 0.0
H1118 H 0.45874 0.05194 0.50584 0.0
H1119 H 0.46367 0.06172 0.46781 0.0
H1120 H 0.51639 0.00187 0.45447 0.0
C1121 C 0.50716 0.98093 0.5398 0.0
C1122 C 0.49363 0.98848 0.55954 0.0
C1123 C 0.47637 0.00842 0.56026 0.0
C1124 C 0.47249 0.02065 0.5417 0.0
C1125 C 0.48594 0.0127 0.5225 0.0
C1126 C 0.50288 0.99331 0.52137 0.0
C1127 C 0.51446 0.98838 0.49862 0.0
C1128 C 0.55517 0.98636 0.49714 0.0
C1129 C 0.49589 0.96833 0.49021 0.0
C1130 C 0.50133 0.00803 0.48717 0.0
C1131 C 0.48509 0.02186 0.50128 0.0
C1132 C 0.47116 0.04117 0.49459 0.0
C1133 C 0.47383 0.04649 0.47287 0.0
C1134 C 0.49009 0.03251 0.45797 0.0
C1135 C 0.50403 0.01302 0.46537 0.0
loop_
_geom_bond_atom_site_label_1
_geom_bond_atom_site_label_2
_geom_bond_distance
_geom_bond_site_symmetry_2
_ccdc_geom_bond_type
Li0 N17 1.990 . S
Li0 O60 1.956 . S
Li0 O61 1.970 1_455 S
Li0 O62 1.961 1_455 S
Li1 N25 1.990 . S
Li1 O60 1.970 . S
Li1 O61 1.943 1_455 S
Li1 O63 1.961 . S
Li2 N47 1.990 . S
Li2 O60 1.948 1_655 S
Li2 O62 1.969 . S
Li2 O63 1.970 1_655 S
Li3 N53 1.990 . S
Li3 O61 1.973 . S
Li3 O62 1.970 . S
Li3 O63 1.956 1_655 S
C4 C6 1.348 . S
C4 C7 1.356 . S
C4 O60 1.325 . S
N5 C8 1.314 . S
N5 C9 1.279 . S
C6 C4 1.348 . S
C6 C8 1.353 . S
C6 H64 0.929 . S
C7 C4 1.356 . S
C7 C9 1.358 . S
C7 H65 0.930 . S
C8 N5 1.314 . S
C8 C6 1.353 . S
C8 H66 0.930 . S
C9 N5 1.279 . S
C9 C7 1.358 . S
C9 H67 0.930 . S
C10 C13 1.350 . S
C10 C14 1.355 1_455 S
C10 O61 1.324 1_455 S
C11 N12 1.279 1_655 S
C11 C14 1.358 . S
C11 H68 0.930 . S
N12 C11 1.279 1_455 S
N12 C15 1.314 . S
C13 C10 1.350 . S
C13 C15 1.353 . S
C13 H69 0.929 . S
C14 C10 1.355 1_655 S
C14 C11 1.358 . S
C14 H70 0.930 . S
C15 N12 1.314 . S
C15 C13 1.353 . S
C15 H71 0.930 . S
C16 N17 1.314 1_655 S
C16 C21 1.353 . S
C16 H22 0.930 . S
N17 Li0 1.990 . S
N17 C16 1.314 1_455 S
N17 C19 1.279 . S
C18 C19 1.358 . S
C18 C20 1.368 . S
C18 H72 0.930 . S
C19 N17 1.279 . S
C19 C18 1.358 . S
C19 H23 0.930 . S
C20 C18 1.368 . S
C20 C21 1.336 1_455 S
C21 C16 1.353 . S
C21 C20 1.336 1_655 S
C21 H73 0.929 . S
H22 C16 0.930 . S
H23 C19 0.930 . S
C24 N25 1.314 . S
C24 C26 1.353 . S
C24 H30 0.930 . S
N25 Li1 1.990 . S
N25 C24 1.314 . S
N25 C28 1.279 . S
C26 C24 1.353 . S
C26 C29 1.348 . S
C26 H74 0.929 . S
C27 C28 1.358 . S
C27 C29 1.356 . S
C27 H75 0.930 . S
C28 N25 1.279 . S
C28 C27 1.358 . S
C28 H31 0.930 . S
C29 C26 1.348 . S
C29 C27 1.356 . S
H30 C24 0.930 . S
H31 C28 0.930 . S
C32 C34 1.348 . S
C32 C35 1.356 . S
C32 O62 1.325 . S
N33 C36 1.314 . S
N33 C37 1.279 . S
C34 C32 1.348 . S
C34 C36 1.353 . S
C34 H76 0.929 . S
C35 C32 1.356 . S
C35 C37 1.358 . S
C35 H77 0.930 . S
C36 N33 1.314 . S
C36 C34 1.353 . S
C36 H78 0.930 . S
C37 N33 1.279 . S
C37 C35 1.358 . S
C37 H79 0.930 . S
C38 C39 1.343 1_455 S
C38 C40 1.359 . S
C38 O63 1.325 . S
C39 C38 1.343 1_655 S
C39 C41 1.353 1_545 S
C39 H80 0.929 . S
C40 C38 1.359 . S
C40 C42 1.358 1_545 S
C40 H81 0.930 . S
C41 C39 1.353 1_565 S
C41 N43 1.314 . S
C41 H82 0.930 . S
C42 C40 1.358 1_565 S
C42 N43 1.279 1_455 S
C42 H83 0.930 . S
N43 C41 1.314 . S
N43 C42 1.279 1_655 S
C44 C46 1.353 . S
C44 N47 1.314 1_455 S
C44 H50 0.930 . S
C45 N47 1.279 . S
C45 C48 1.358 . S
C45 H51 0.930 . S
C46 C44 1.353 . S
C46 C49 1.356 . S
C46 H84 0.929 . S
N47 Li2 1.990 . S
N47 C44 1.314 1_655 S
N47 C45 1.279 . S
C48 C45 1.358 . S
C48 C49 1.348 1_655 S
C48 H85 0.930 . S
C49 C46 1.356 . S
C49 C48 1.348 1_455 S
H50 C44 0.930 . S
H51 C45 0.930 . S
C52 N53 1.314 . S
C52 C54 1.353 . S
C52 H58 0.930 . S
N53 Li3 1.990 . S
N53 C52 1.314 . S
N53 C56 1.279 . S
C54 C52 1.353 . S
C54 C57 1.348 . S
C54 H86 0.929 . S
C55 C56 1.358 . S
C55 C57 1.356 . S
C55 H87 0.930 . S
C56 N53 1.279 . S
C56 C55 1.358 . S
C56 H59 0.930 . S
C57 C54 1.348 . S
C57 C55 1.356 . S
H58 C52 0.930 . S
H59 C56 0.930 . S
O60 Li0 1.956 . S
O60 Li1 1.970 . S
O60 Li2 1.948 1_455 S
O60 C4 1.325 . S
O61 Li0 1.970 1_655 S
O61 Li1 1.943 1_655 S
O61 Li3 1.973 . S
O61 C10 1.324 1_655 S
O62 Li0 1.961 1_655 S
O62 Li2 1.969 . S
O62 Li3 1.970 . S
O62 C32 1.325 . S
O63 Li1 1.961 . S
O63 Li2 1.970 1_455 S
O63 Li3 1.956 1_455 S
O63 C38 1.325 . S
H64 C6 0.929 . S
H65 C7 0.930 . S
H66 C8 0.930 . S
H67 C9 0.930 . S
H68 C11 0.930 . S
H69 C13 0.929 . S
H70 C14 0.930 . S
H71 C15 0.930 . S
H72 C18 0.930 . S
H73 C21 0.929 . S
H74 C26 0.929 . S
H75 C27 0.930 . S
H76 C34 0.929 . S
H77 C35 0.930 . S
H78 C36 0.930 . S
H79 C37 0.930 . S
H80 C39 0.929 . S
H81 C40 0.930 . S
H82 C41 0.930 . S
H83 C42 0.930 . S
H84 C46 0.929 . S
H85 C48 0.930 . S
H86 C54 0.929 . S
H87 C55 0.930 . S
Li88 N105 1.990 . S
Li88 O148 1.956 . S
Li88 O149 1.969 1_455 S
Li88 O150 1.961 1_455 S
Li89 N113 1.990 . S
Li89 O148 1.970 . S
Li89 O149 1.937 1_455 S
Li89 O151 1.961 . S
Li90 N135 1.991 . S
Li90 O148 1.940 1_655 S
Li90 O150 1.976 . S
Li90 O151 1.970 1_655 S
Li91 N141 1.990 . S
Li91 O149 1.979 . S
Li91 O150 1.970 . S
Li91 O151 1.956 1_655 S
C92 C94 1.348 . S
C92 C95 1.356 . S
C92 O148 1.325 . S
N93 C96 1.314 . S
N93 C97 1.279 . S
C94 C92 1.348 . S
C94 C96 1.353 . S
C94 H152 0.929 . S
C95 C92 1.356 . S
C95 C97 1.358 . S
C95 H153 0.930 . S
C96 N93 1.314 . S
C96 C94 1.353 . S
C96 H154 0.930 . S
C97 N93 1.279 . S
C97 C95 1.358 . S
C97 H155 0.930 . S
C98 C101 1.347 . S
C98 C102 1.356 1_455 S
C98 O149 1.324 1_455 S
C99 N100 1.279 1_655 S
C99 C102 1.358 . S
C99 H156 0.930 . S
N100 C99 1.279 1_455 S
N100 C103 1.314 . S
C101 C98 1.347 . S
C101 C103 1.353 . S
C101 H157 0.929 . S
C102 C98 1.356 1_655 S
C102 C99 1.358 . S
C102 H158 0.930 . S
C103 N100 1.314 . S
C103 C101 1.353 . S
C103 H159 0.930 . S
C104 N105 1.314 1_655 S
C104 C109 1.353 . S
C104 H110 0.930 . S
N105 Li88 1.990 . S
N105 C104 1.314 1_455 S
N105 C107 1.279 . S
C106 C107 1.358 . S
C106 C108 1.360 . S
C106 H160 0.930 . S
C107 N105 1.279 . S
C107 C106 1.358 . S
C107 H111 0.930 . S
C108 C106 1.360 . S
C108 C109 1.344 1_455 S
C109 C104 1.353 . S
C109 C108 1.344 1_655 S
C109 H161 0.929 . S
H110 C104 0.930 . S
H111 C107 0.930 . S
C112 N113 1.314 . S
C112 C114 1.353 . S
C112 H118 0.930 . S
N113 Li89 1.990 . S
N113 C112 1.314 . S
N113 C116 1.279 . S
C114 C112 1.353 . S
C114 C117 1.348 . S
C114 H162 0.929 . S
C115 C116 1.358 . S
C115 C117 1.356 . S
C115 H163 0.930 . S
C116 N113 1.279 . S
C116 C115 1.358 . S
C116 H119 0.930 . S
C117 C114 1.348 . S
C117 C115 1.356 . S
H118 C112 0.930 . S
H119 C116 0.930 . S
C120 C122 1.348 . S
C120 C123 1.356 . S
C120 O150 1.325 . S
N121 C124 1.314 . S
N121 C125 1.279 . S
C122 C120 1.348 . S
C122 C124 1.353 . S
C122 H164 0.929 . S
C123 C120 1.356 . S
C123 C125 1.358 . S
C123 H165 0.930 . S
C124 N121 1.314 . S
C124 C122 1.353 . S
C124 H166 0.930 . S
C125 N121 1.279 . S
C125 C123 1.358 . S
C125 H167 0.930 . S
C126 C127 1.346 1_455 S
C126 C128 1.357 . S
C126 O151 1.325 . S
C127 C126 1.346 1_655 S
C127 C129 1.353 . S
C127 H168 0.929 . S
C128 C126 1.357 . S
C128 C130 1.358 . S
C128 H169 0.930 . S
C129 C127 1.353 . S
C129 N131 1.314 . S
C129 H170 0.930 . S
C130 C128 1.358 . S
C130 N131 1.279 1_455 S
C130 H171 0.930 . S
N131 C129 1.314 . S
N131 C130 1.279 1_655 S
C132 C134 1.353 . S
C132 N135 1.314 1_455 S
C132 H138 0.930 . S
C133 N135 1.279 . S
C133 C136 1.358 . S
C133 H139 0.930 . S
C134 C132 1.353 . S
C134 C137 1.347 . S
C134 H172 0.929 . S
N135 Li90 1.991 . S
N135 C132 1.314 1_655 S
N135 C133 1.279 . S
C136 C133 1.358 . S
C136 C137 1.356 1_655 S
C136 H173 0.930 . S
C137 C134 1.347 . S
C137 C136 1.356 1_455 S
H138 C132 0.930 . S
H139 C133 0.930 . S
C140 N141 1.314 . S
C140 C142 1.353 . S
C140 H146 0.930 . S
N141 Li91 1.990 . S
N141 C140 1.314 . S
N141 C144 1.279 . S
C142 C140 1.353 . S
C142 C145 1.348 . S
C142 H174 0.929 . S
C143 C144 1.358 . S
C143 C145 1.356 . S
C143 H175 0.930 . S
C144 N141 1.279 . S
C144 C143 1.358 . S
C144 H147 0.930 . S
C145 C142 1.348 . S
C145 C143 1.356 . S
H146 C140 0.930 . S
H147 C144 0.930 . S
O148 Li88 1.956 . S
O148 Li89 1.970 . S
O148 Li90 1.940 1_455 S
O148 C92 1.325 . S
O149 Li88 1.969 1_655 S
O149 Li89 1.937 1_655 S
O149 Li91 1.979 . S
O149 C98 1.324 1_655 S
O150 Li88 1.961 1_655 S
O150 Li90 1.976 . S
O150 Li91 1.970 . S
O150 C120 1.325 . S
O151 Li89 1.961 . S
O151 Li90 1.970 1_455 S
O151 Li91 1.956 1_455 S
O151 C126 1.325 . S
H152 C94 0.929 . S
H153 C95 0.930 . S
H154 C96 0.930 . S
H155 C97 0.930 . S
H156 C99 0.930 . S
H157 C101 0.929 . S
H158 C102 0.930 . S
H159 C103 0.930 . S
H160 C106 0.930 . S
H161 C109 0.929 . S
H162 C114 0.929 . S
H163 C115 0.930 . S
H164 C122 0.929 . S
H165 C123 0.930 . S
H166 C124 0.930 . S
H167 C125 0.930 . S
H168 C127 0.929 . S
H169 C128 0.930 . S
H170 C129 0.930 . S
H171 C130 0.930 . S
H172 C134 0.929 . S
H173 C136 0.930 . S
H174 C142 0.929 . S
H175 C143 0.930 . S
Li176 N193 1.990 . S
Li176 O236 1.969 . S
Li176 O237 1.970 1_655 S
Li176 O238 1.948 1_655 S
Li177 N201 1.990 . S
Li177 O236 1.970 . S
Li177 O237 1.956 1_655 S
Li177 O239 1.973 . S
Li178 N223 1.990 . S
Li178 O236 1.961 1_455 S
Li178 O238 1.956 . S
Li178 O239 1.970 1_455 S
Li179 N229 1.990 . S
Li179 O237 1.961 . S
Li179 O238 1.970 . S
Li179 O239 1.943 1_455 S
C180 C182 1.348 . S
C180 C183 1.356 . S
C180 O236 1.325 . S
N181 C184 1.314 . S
N181 C185 1.279 . S
C182 C180 1.348 . S
C182 C184 1.353 . S
C182 H240 0.929 . S
C183 C180 1.356 . S
C183 C185 1.358 . S
C183 H241 0.930 . S
C184 N181 1.314 . S
C184 C182 1.353 . S
C184 H242 0.930 . S
C185 N181 1.279 . S
C185 C183 1.358 . S
C185 H243 0.930 . S
C186 C189 1.343 1_455 S
C186 C190 1.359 . S
C186 O237 1.325 . S
C187 N188 1.279 1_455 S
C187 C190 1.358 1_545 S
C187 H244 0.930 . S
N188 C187 1.279 1_655 S
N188 C191 1.314 . S
C189 C186 1.343 1_655 S
C189 C191 1.353 1_565 S
C189 H245 0.929 . S
C190 C186 1.359 . S
C190 C187 1.358 1_565 S
C190 H246 0.930 . S
C191 N188 1.314 . S
C191 C189 1.353 1_545 S
C191 H247 0.930 . S
C192 N193 1.314 1_455 S
C192 C197 1.353 . S
C192 H198 0.930 . S
N193 Li176 1.990 . S
N193 C192 1.314 1_655 S
N193 C195 1.279 . S
C194 C195 1.358 . S
C194 C196 1.348 1_655 S
C194 H248 0.930 . S
C195 N193 1.279 . S
C195 C194 1.358 . S
C195 H199 0.930 . S
C196 C194 1.348 1_455 S
C196 C197 1.356 . S
C197 C192 1.353 . S
C197 C196 1.356 . S
C197 H249 0.929 . S
H198 C192 0.930 . S
H199 C195 0.930 . S
C200 N201 1.314 . S
C200 C202 1.353 . S
C200 H206 0.930 . S
N201 Li177 1.990 . S
N201 C200 1.314 . S
N201 C204 1.279 . S
C202 C200 1.353 . S
C202 C205 1.348 . S
C202 H250 0.929 . S
C203 C204 1.358 . S
C203 C205 1.356 . S
C203 H251 0.930 . S
C204 N201 1.279 . S
C204 C203 1.358 . S
C204 H207 0.930 . S
C205 C202 1.348 . S
C205 C203 1.356 . S
H206 C200 0.930 . S
H207 C204 0.930 . S
C208 C210 1.348 . S
C208 C211 1.356 . S
C208 O238 1.325 . S
N209 C212 1.314 . S
N209 C213 1.279 . S
C210 C208 1.348 . S
C210 C212 1.353 . S
C210 H252 0.929 . S
C211 C208 1.356 . S
C211 C213 1.358 . S
C211 H253 0.930 . S
C212 N209 1.314 . S
C212 C210 1.353 . S
C212 H254 0.930 . S
C213 N209 1.279 . S
C213 C211 1.358 . S
C213 H255 0.930 . S
C214 C215 1.350 . S
C214 C216 1.355 1_455 S
C214 O239 1.324 1_455 S
C215 C214 1.350 . S
C215 C217 1.353 . S
C215 H256 0.929 . S
C216 C214 1.355 1_655 S
C216 C218 1.358 . S
C216 H257 0.930 . S
C217 C215 1.353 . S
C217 N219 1.314 . S
C217 H258 0.930 . S
C218 C216 1.358 . S
C218 N219 1.279 1_655 S
C218 H259 0.930 . S
N219 C217 1.314 . S
N219 C218 1.279 1_455 S
C220 C222 1.353 . S
C220 N223 1.314 1_655 S
C220 H226 0.930 . S
C221 N223 1.279 . S
C221 C224 1.358 . S
C221 H227 0.930 . S
C222 C220 1.353 . S
C222 C225 1.336 1_655 S
C222 H260 0.929 . S
N223 Li178 1.990 . S
N223 C220 1.314 1_455 S
N223 C221 1.279 . S
C224 C221 1.358 . S
C224 C225 1.368 . S
C224 H261 0.930 . S
C225 C222 1.336 1_455 S
C225 C224 1.368 . S
H226 C220 0.930 . S
H227 C221 0.930 . S
C228 N229 1.314 . S
C228 C230 1.353 . S
C228 H234 0.930 . S
N229 Li179 1.990 . S
N229 C228 1.314 . S
N229 C232 1.279 . S
C230 C228 1.353 . S
C230 C233 1.348 . S
C230 H262 0.929 . S
C231 C232 1.358 . S
C231 C233 1.356 . S
C231 H263 0.930 . S
C232 N229 1.279 . S
C232 C231 1.358 . S
C232 H235 0.930 . S
C233 C230 1.348 . S
C233 C231 1.356 . S
H234 C228 0.930 . S
H235 C232 0.930 . S
O236 Li176 1.969 . S
O236 Li177 1.970 . S
O236 Li178 1.961 1_655 S
O236 C180 1.325 . S
O237 Li176 1.970 1_455 S
O237 Li177 1.956 1_455 S
O237 Li179 1.961 . S
O237 C186 1.325 . S
O238 Li176 1.948 1_455 S
O238 Li178 1.956 . S
O238 Li179 1.970 . S
O238 C208 1.325 . S
O239 Li177 1.973 . S
O239 Li178 1.970 1_655 S
O239 Li179 1.943 1_655 S
O239 C214 1.324 1_655 S
H240 C182 0.929 . S
H241 C183 0.930 . S
H242 C184 0.930 . S
H243 C185 0.930 . S
H244 C187 0.930 . S
H245 C189 0.929 . S
H246 C190 0.930 . S
H247 C191 0.930 . S
H248 C194 0.930 . S
H249 C197 0.929 . S
H250 C202 0.929 . S
H251 C203 0.930 . S
H252 C210 0.929 . S
H253 C211 0.930 . S
H254 C212 0.930 . S
H255 C213 0.930 . S
H256 C215 0.929 . S
H257 C216 0.930 . S
H258 C217 0.930 . S
H259 C218 0.930 . S
H260 C222 0.929 . S
H261 C224 0.930 . S
H262 C230 0.929 . S
H263 C231 0.930 . S
Li264 N281 1.990 . S
Li264 O324 1.956 1_655 S
Li264 O325 1.970 . S
Li264 O326 1.979 . S
Li265 N289 1.991 . S
Li265 O324 1.970 1_655 S
Li265 O325 1.976 . S
Li265 O327 1.940 1_655 S
Li266 N311 1.990 . S
Li266 O324 1.961 . S
Li266 O326 1.937 1_455 S
Li266 O327 1.970 . S
Li267 N317 1.990 . S
Li267 O325 1.961 1_455 S
Li267 O326 1.969 1_455 S
Li267 O327 1.956 . S
C268 C270 1.346 1_455 S
C268 C271 1.357 . S
C268 O324 1.325 . S
N269 C272 1.314 . S
N269 C273 1.279 1_655 S
C270 C268 1.346 1_655 S
C270 C272 1.353 . S
C270 H328 0.929 . S
C271 C268 1.357 . S
C271 C273 1.358 . S
C271 H329 0.930 . S
C272 N269 1.314 . S
C272 C270 1.353 . S
C272 H330 0.930 . S
C273 N269 1.279 1_455 S
C273 C271 1.358 . S
C273 H331 0.930 . S
C274 C277 1.348 . S
C274 C278 1.356 . S
C274 O325 1.325 . S
C275 N276 1.279 . S
C275 C278 1.358 . S
C275 H332 0.930 . S
N276 C275 1.279 . S
N276 C279 1.314 . S
C277 C274 1.348 . S
C277 C279 1.353 . S
C277 H333 0.929 . S
C278 C274 1.356 . S
C278 C275 1.358 . S
C278 H334 0.930 . S
C279 N276 1.314 . S
C279 C277 1.353 . S
C279 H335 0.930 . S
C280 N281 1.314 . S
C280 C285 1.353 . S
C280 H286 0.930 . S
N281 Li264 1.990 . S
N281 C280 1.314 . S
N281 C283 1.279 . S
C282 C283 1.358 . S
C282 C284 1.356 . S
C282 H336 0.930 . S
C283 N281 1.279 . S
C283 C282 1.358 . S
C283 H287 0.930 . S
C284 C282 1.356 . S
C284 C285 1.348 . S
C285 C280 1.353 . S
C285 C284 1.348 . S
C285 H337 0.929 . S
H286 C280 0.930 . S
H287 C283 0.930 . S
C288 N289 1.314 1_455 S
C288 C290 1.353 . S
C288 H294 0.930 . S
N289 Li265 1.991 . S
N289 C288 1.314 1_655 S
N289 C292 1.279 . S
C290 C288 1.353 . S
C290 C293 1.347 . S
C290 H338 0.929 . S
C291 C292 1.358 . S
C291 C293 1.356 1_655 S
C291 H339 0.930 . S
C292 N289 1.279 . S
C292 C291 1.358 . S
C292 H295 0.930 . S
C293 C290 1.347 . S
C293 C291 1.356 1_455 S
H294 C288 0.930 . S
H295 C292 0.930 . S
C296 C298 1.347 . S
C296 C299 1.356 1_455 S
C296 O326 1.324 1_455 S
N297 C300 1.314 . S
N297 C301 1.279 1_455 S
C298 C296 1.347 . S
C298 C300 1.353 . S
C298 H340 0.929 . S
C299 C296 1.356 1_655 S
C299 C301 1.358 . S
C299 H341 0.930 . S
C300 N297 1.314 . S
C300 C298 1.353 . S
C300 H342 0.930 . S
C301 N297 1.279 1_655 S
C301 C299 1.358 . S
C301 H343 0.930 . S
C302 C303 1.348 . S
C302 C304 1.356 . S
C302 O327 1.325 . S
C303 C302 1.348 . S
C303 C305 1.353 . S
C303 H344 0.929 . S
C304 C302 1.356 . S
C304 C306 1.358 . S
C304 H345 0.930 . S
C305 C303 1.353 . S
C305 N307 1.314 . S
C305 H346 0.930 . S
C306 C304 1.358 . S
C306 N307 1.279 . S
C306 H347 0.930 . S
N307 C305 1.314 . S
N307 C306 1.279 . S
C308 C310 1.353 . S
C308 N311 1.314 . S
C308 H314 0.930 . S
C309 N311 1.279 . S
C309 C312 1.358 . S
C309 H315 0.930 . S
C310 C308 1.353 . S
C310 C313 1.348 . S
C310 H348 0.929 . S
N311 Li266 1.990 . S
N311 C308 1.314 . S
N311 C309 1.279 . S
C312 C309 1.358 . S
C312 C313 1.356 . S
C312 H349 0.930 . S
C313 C310 1.348 . S
C313 C312 1.356 . S
H314 C308 0.930 . S
H315 C309 0.930 . S
C316 N317 1.314 1_655 S
C316 C318 1.353 . S
C316 H322 0.930 . S
N317 Li267 1.990 . S
N317 C316 1.314 1_455 S
N317 C320 1.279 . S
C318 C316 1.353 . S
C318 C321 1.344 1_655 S
C318 H350 0.929 . S
C319 C320 1.358 . S
C319 C321 1.360 . S
C319 H351 0.930 . S
C320 N317 1.279 . S
C320 C319 1.358 . S
C320 H323 0.930 . S
C321 C318 1.344 1_455 S
C321 C319 1.360 . S
H322 C316 0.930 . S
H323 C320 0.930 . S
O324 Li264 1.956 1_455 S
O324 Li265 1.970 1_455 S
O324 Li266 1.961 . S
O324 C268 1.325 . S
O325 Li264 1.970 . S
O325 Li265 1.976 . S
O325 Li267 1.961 1_655 S
O325 C274 1.325 . S
O326 Li264 1.979 . S
O326 Li266 1.937 1_655 S
O326 Li267 1.969 1_655 S
O326 C296 1.324 1_655 S
O327 Li265 1.940 1_455 S
O327 Li266 1.970 . S
O327 Li267 1.956 . S
O327 C302 1.325 . S
H328 C270 0.929 . S
H329 C271 0.930 . S
H330 C272 0.930 . S
H331 C273 0.930 . S
H332 C275 0.930 . S
H333 C277 0.929 . S
H334 C278 0.930 . S
H335 C279 0.930 . S
H336 C282 0.930 . S
H337 C285 0.929 . S
H338 C290 0.929 . S
H339 C291 0.930 . S
H340 C298 0.929 . S
H341 C299 0.930 . S
H342 C300 0.930 . S
H343 C301 0.930 . S
H344 C303 0.929 . S
H345 C304 0.930 . S
H346 C305 0.930 . S
H347 C306 0.930 . S
H348 C310 0.929 . S
H349 C312 0.930 . S
H350 C318 0.929 . S
H351 C319 0.930 . S
Li352 N369 1.990 . S
Li352 O412 1.956 . S
Li352 O413 1.970 . S
Li352 O414 1.961 . S
Li353 N377 1.990 . S
Li353 O412 1.970 . S
Li353 O413 1.956 . S
Li353 O415 1.961 . S
Li354 N399 1.990 . S
Li354 O412 1.961 . S
Li354 O414 1.956 . S
Li354 O415 1.970 . S
Li355 N405 1.990 . S
Li355 O413 1.961 . S
Li355 O414 1.970 . S
Li355 O415 1.956 . S
C356 C358 1.348 . S
C356 C359 1.356 . S
C356 O412 1.325 . S
N357 C360 1.314 . S
N357 C361 1.279 . S
C358 C356 1.348 . S
C358 C360 1.353 . S
C358 H416 0.929 . S
C359 C356 1.356 . S
C359 C361 1.358 . S
C359 H417 0.930 . S
C360 N357 1.314 . S
C360 C358 1.353 . S
C360 H418 0.930 . S
C361 N357 1.279 . S
C361 C359 1.358 . S
C361 H419 0.930 . S
C362 C365 1.348 . S
C362 C366 1.356 . S
C362 O413 1.325 . S
C363 N364 1.279 . S
C363 C366 1.358 . S
C363 H420 0.930 . S
N364 C363 1.279 . S
N364 C367 1.314 . S
C365 C362 1.348 . S
C365 C367 1.353 . S
C365 H421 0.929 . S
C366 C362 1.356 . S
C366 C363 1.358 . S
C366 H422 0.930 . S
C367 N364 1.314 . S
C367 C365 1.353 . S
C367 H423 0.930 . S
C368 N369 1.314 . S
C368 C373 1.353 . S
C368 H374 0.930 . S
N369 Li352 1.990 . S
N369 C368 1.314 . S
N369 C371 1.279 . S
C370 C371 1.358 . S
C370 C372 1.356 . S
C370 H424 0.930 . S
C371 N369 1.279 . S
C371 C370 1.358 . S
C371 H375 0.930 . S
C372 C370 1.356 . S
C372 C373 1.348 . S
C373 C368 1.353 . S
C373 C372 1.348 . S
C373 H425 0.929 . S
H374 C368 0.930 . S
H375 C371 0.930 . S
C376 N377 1.314 . S
C376 C378 1.353 . S
C376 H382 0.930 . S
N377 Li353 1.990 . S
N377 C376 1.314 . S
N377 C380 1.279 . S
C378 C376 1.353 . S
C378 C381 1.348 . S
C378 H426 0.929 . S
C379 C380 1.358 . S
C379 C381 1.356 . S
C379 H427 0.930 . S
C380 N377 1.279 . S
C380 C379 1.358 . S
C380 H383 0.930 . S
C381 C378 1.348 . S
C381 C379 1.356 . S
H382 C376 0.930 . S
H383 C380 0.930 . S
C384 C386 1.348 . S
C384 C387 1.356 . S
C384 O414 1.325 . S
N385 C388 1.314 . S
N385 C389 1.279 . S
C386 C384 1.348 . S
C386 C388 1.353 . S
C386 H428 0.929 . S
C387 C384 1.356 . S
C387 C389 1.358 . S
C387 H429 0.930 . S
C388 N385 1.314 . S
C388 C386 1.353 . S
C388 H430 0.930 . S
C389 N385 1.279 . S
C389 C387 1.358 . S
C389 H431 0.930 . S
C390 C391 1.348 . S
C390 C392 1.356 . S
C390 O415 1.325 . S
C391 C390 1.348 . S
C391 C393 1.353 . S
C391 H432 0.929 . S
C392 C390 1.356 . S
C392 C394 1.358 . S
C392 H433 0.930 . S
C393 C391 1.353 . S
C393 N395 1.314 . S
C393 H434 0.930 . S
C394 C392 1.358 . S
C394 N395 1.279 . S
C394 H435 0.930 . S
N395 C393 1.314 . S
N395 C394 1.279 . S
C396 C398 1.353 . S
C396 N399 1.314 . S
C396 H402 0.930 . S
C397 N399 1.279 . S
C397 C400 1.358 . S
C397 H403 0.930 . S
C398 C396 1.353 . S
C398 C401 1.348 . S
C398 H436 0.929 . S
N399 Li354 1.990 . S
N399 C396 1.314 . S
N399 C397 1.279 . S
C400 C397 1.358 . S
C400 C401 1.356 . S
C400 H437 0.930 . S
C401 C398 1.348 . S
C401 C400 1.356 . S
H402 C396 0.930 . S
H403 C397 0.930 . S
C404 N405 1.314 . S
C404 C406 1.353 . S
C404 H410 0.930 . S
N405 Li355 1.990 . S
N405 C404 1.314 . S
N405 C408 1.279 . S
C406 C404 1.353 . S
C406 C409 1.348 . S
C406 H438 0.929 . S
C407 C408 1.358 . S
C407 C409 1.356 . S
C407 H439 0.930 . S
C408 N405 1.279 . S
C408 C407 1.358 . S
C408 H411 0.930 . S
C409 C406 1.348 . S
C409 C407 1.356 . S
H410 C404 0.930 . S
H411 C408 0.930 . S
O412 Li352 1.956 . S
O412 Li353 1.970 . S
O412 Li354 1.961 . S
O412 C356 1.325 . S
O413 Li352 1.970 . S
O413 Li353 1.956 . S
O413 Li355 1.961 . S
O413 C362 1.325 . S
O414 Li352 1.961 . S
O414 Li354 1.956 . S
O414 Li355 1.970 . S
O414 C384 1.325 . S
O415 Li353 1.961 . S
O415 Li354 1.970 . S
O415 Li355 1.956 . S
O415 C390 1.325 . S
H416 C358 0.929 . S
H417 C359 0.930 . S
H418 C360 0.930 . S
H419 C361 0.930 . S
H420 C363 0.930 . S
H421 C365 0.929 . S
H422 C366 0.930 . S
H423 C367 0.930 . S
H424 C370 0.930 . S
H425 C373 0.929 . S
H426 C378 0.929 . S
H427 C379 0.930 . S
H428 C386 0.929 . S
H429 C387 0.930 . S
H430 C388 0.930 . S
H431 C389 0.930 . S
H432 C391 0.929 . S
H433 C392 0.930 . S
H434 C393 0.930 . S
H435 C394 0.930 . S
H436 C398 0.929 . S
H437 C400 0.930 . S
H438 C406 0.929 . S
H439 C407 0.930 . S
Li440 N457 1.990 . S
Li440 O500 1.956 . S
Li440 O501 1.970 . S
Li440 O502 1.961 . S
Li441 N465 1.990 . S
Li441 O500 1.970 . S
Li441 O501 1.956 . S
Li441 O503 1.961 . S
Li442 N487 1.990 . S
Li442 O500 1.961 . S
Li442 O502 1.956 . S
Li442 O503 1.970 . S
Li443 N493 1.990 . S
Li443 O501 1.961 . S
Li443 O502 1.970 . S
Li443 O503 1.956 . S
C444 C446 1.348 . S
C444 C447 1.356 . S
C444 O500 1.325 . S
N445 C448 1.314 . S
N445 C449 1.279 . S
C446 C444 1.348 . S
C446 C448 1.353 . S
C446 H504 0.929 . S
C447 C444 1.356 . S
C447 C449 1.358 . S
C447 H505 0.930 . S
C448 N445 1.314 . S
C448 C446 1.353 . S
C448 H506 0.930 . S
C449 N445 1.279 . S
C449 C447 1.358 . S
C449 H507 0.930 . S
C450 C453 1.348 . S
C450 C454 1.356 . S
C450 O501 1.325 . S
C451 N452 1.279 . S
C451 C454 1.358 1_545 S
C451 H508 0.930 . S
N452 C451 1.279 . S
N452 C455 1.314 . S
C453 C450 1.348 . S
C453 C455 1.353 1_565 S
C453 H509 0.929 . S
C454 C450 1.356 . S
C454 C451 1.358 1_565 S
C454 H510 0.930 . S
C455 N452 1.314 . S
C455 C453 1.353 1_545 S
C455 H511 0.930 . S
C456 N457 1.314 . S
C456 C461 1.353 . S
C456 H462 0.930 . S
N457 Li440 1.990 . S
N457 C456 1.314 . S
N457 C459 1.279 . S
C458 C459 1.358 . S
C458 C460 1.356 . S
C458 H512 0.930 . S
C459 N457 1.279 . S
C459 C458 1.358 . S
C459 H463 0.930 . S
C460 C458 1.356 . S
C460 C461 1.348 . S
C461 C456 1.353 . S
C461 C460 1.348 . S
C461 H513 0.929 . S
H462 C456 0.930 . S
H463 C459 0.930 . S
C464 N465 1.314 . S
C464 C466 1.353 . S
C464 H470 0.930 . S
N465 Li441 1.990 . S
N465 C464 1.314 . S
N465 C468 1.279 . S
C466 C464 1.353 . S
C466 C469 1.348 . S
C466 H514 0.929 . S
C467 C468 1.358 . S
C467 C469 1.356 . S
C467 H515 0.930 . S
C468 N465 1.279 . S
C468 C467 1.358 . S
C468 H471 0.930 . S
C469 C466 1.348 . S
C469 C467 1.356 . S
H470 C464 0.930 . S
H471 C468 0.930 . S
C472 C474 1.348 . S
C472 C475 1.356 . S
C472 O502 1.325 . S
N473 C476 1.314 . S
N473 C477 1.279 . S
C474 C472 1.348 . S
C474 C476 1.353 . S
C474 H516 0.929 . S
C475 C472 1.356 . S
C475 C477 1.358 . S
C475 H517 0.930 . S
C476 N473 1.314 . S
C476 C474 1.353 . S
C476 H518 0.930 . S
C477 N473 1.279 . S
C477 C475 1.358 . S
C477 H519 0.930 . S
C478 C479 1.348 . S
C478 C480 1.356 . S
C478 O503 1.325 . S
C479 C478 1.348 . S
C479 C481 1.353 . S
C479 H520 0.929 . S
C480 C478 1.356 . S
C480 C482 1.358 . S
C480 H521 0.930 . S
C481 C479 1.353 . S
C481 N483 1.314 . S
C481 H522 0.930 . S
C482 C480 1.358 . S
C482 N483 1.279 . S
C482 H523 0.930 . S
N483 C481 1.314 . S
N483 C482 1.279 . S
C484 C486 1.353 . S
C484 N487 1.314 . S
C484 H490 0.930 . S
C485 N487 1.279 . S
C485 C488 1.358 . S
C485 H491 0.930 . S
C486 C484 1.353 . S
C486 C489 1.348 . S
C486 H524 0.929 . S
N487 Li442 1.990 . S
N487 C484 1.314 . S
N487 C485 1.279 . S
C488 C485 1.358 . S
C488 C489 1.356 . S
C488 H525 0.930 . S
C489 C486 1.348 . S
C489 C488 1.356 . S
H490 C484 0.930 . S
H491 C485 0.930 . S
C492 N493 1.314 . S
C492 C494 1.353 . S
C492 H498 0.930 . S
N493 Li443 1.990 . S
N493 C492 1.314 . S
N493 C496 1.279 . S
C494 C492 1.353 . S
C494 C497 1.348 . S
C494 H526 0.929 . S
C495 C496 1.358 . S
C495 C497 1.356 . S
C495 H527 0.930 . S
C496 N493 1.279 . S
C496 C495 1.358 . S
C496 H499 0.930 . S
C497 C494 1.348 . S
C497 C495 1.356 . S
H498 C492 0.930 . S
H499 C496 0.930 . S
O500 Li440 1.956 . S
O500 Li441 1.970 . S
O500 Li442 1.961 . S
O500 C444 1.325 . S
O501 Li440 1.970 . S
O501 Li441 1.956 . S
O501 Li443 1.961 . S
O501 C450 1.325 . S
O502 Li440 1.961 . S
O502 Li442 1.956 . S
O502 Li443 1.970 . S
O502 C472 1.325 . S
O503 Li441 1.961 . S
O503 Li442 1.970 . S
O503 Li443 1.956 . S
O503 C478 1.325 . S
H504 C446 0.929 . S
H505 C447 0.930 . S
H506 C448 0.930 . S
H507 C449 0.930 . S
H508 C451 0.930 . S
H509 C453 0.929 . S
H510 C454 0.930 . S
H511 C455 0.930 . S
H512 C458 0.930 . S
H513 C461 0.929 . S
H514 C466 0.929 . S
H515 C467 0.930 . S
H516 C474 0.929 . S
H517 C475 0.930 . S
H518 C476 0.930 . S
H519 C477 0.930 . S
H520 C479 0.929 . S
H521 C480 0.930 . S
H522 C481 0.930 . S
H523 C482 0.930 . S
H524 C486 0.929 . S
H525 C488 0.930 . S
H526 C494 0.929 . S
H527 C495 0.930 . S
Li528 N545 1.990 . S
Li528 O588 1.956 . S
Li528 O589 1.970 . S
Li528 O590 1.961 . S
Li529 N553 1.990 . S
Li529 O588 1.970 . S
Li529 O589 1.956 . S
Li529 O591 1.961 . S
Li530 N575 1.990 . S
Li530 O588 1.961 . S
Li530 O590 1.956 . S
Li530 O591 1.970 . S
Li531 N581 1.990 . S
Li531 O589 1.961 . S
Li531 O590 1.970 . S
Li531 O591 1.956 . S
C532 C534 1.348 . S
C532 C535 1.356 . S
C532 O588 1.325 . S
N533 C536 1.314 . S
N533 C537 1.279 . S
C534 C532 1.348 . S
C534 C536 1.353 . S
C534 H592 0.929 . S
C535 C532 1.356 . S
C535 C537 1.358 . S
C535 H593 0.930 . S
C536 N533 1.314 . S
C536 C534 1.353 . S
C536 H594 0.930 . S
C537 N533 1.279 . S
C537 C535 1.358 . S
C537 H595 0.930 . S
C538 C541 1.348 . S
C538 C542 1.356 . S
C538 O589 1.325 . S
C539 N540 1.279 . S
C539 C542 1.358 . S
C539 H596 0.930 . S
N540 C539 1.279 . S
N540 C543 1.314 . S
C541 C538 1.348 . S
C541 C543 1.353 . S
C541 H597 0.929 . S
C542 C538 1.356 . S
C542 C539 1.358 . S
C542 H598 0.930 . S
C543 N540 1.314 . S
C543 C541 1.353 . S
C543 H599 0.930 . S
C544 N545 1.314 . S
C544 C549 1.353 . S
C544 H550 0.930 . S
N545 Li528 1.990 . S
N545 C544 1.314 . S
N545 C547 1.279 . S
C546 C547 1.358 . S
C546 C548 1.356 . S
C546 H600 0.930 . S
C547 N545 1.279 . S
C547 C546 1.358 . S
C547 H551 0.930 . S
C548 C546 1.356 . S
C548 C549 1.348 . S
C549 C544 1.353 . S
C549 C548 1.348 . S
C549 H601 0.929 . S
H550 C544 0.930 . S
H551 C547 0.930 . S
C552 N553 1.314 . S
C552 C554 1.353 . S
C552 H558 0.930 . S
N553 Li529 1.990 . S
N553 C552 1.314 . S
N553 C556 1.279 . S
C554 C552 1.353 . S
C554 C557 1.348 . S
C554 H602 0.929 . S
C555 C556 1.358 . S
C555 C557 1.356 . S
C555 H603 0.930 . S
C556 N553 1.279 . S
C556 C555 1.358 . S
C556 H559 0.930 . S
C557 C554 1.348 . S
C557 C555 1.356 . S
H558 C552 0.930 . S
H559 C556 0.930 . S
C560 C562 1.348 . S
C560 C563 1.356 . S
C560 O590 1.325 . S
N561 C564 1.314 . S
N561 C565 1.279 . S
C562 C560 1.348 . S
C562 C564 1.353 . S
C562 H604 0.929 . S
C563 C560 1.356 . S
C563 C565 1.358 . S
C563 H605 0.930 . S
C564 N561 1.314 . S
C564 C562 1.353 . S
C564 H606 0.930 . S
C565 N561 1.279 . S
C565 C563 1.358 . S
C565 H607 0.930 . S
C566 C567 1.348 . S
C566 C568 1.356 . S
C566 O591 1.325 . S
C567 C566 1.348 . S
C567 C569 1.353 . S
C567 H608 0.929 . S
C568 C566 1.356 . S
C568 C570 1.358 . S
C568 H609 0.930 . S
C569 C567 1.353 . S
C569 N571 1.314 . S
C569 H610 0.930 . S
C570 C568 1.358 . S
C570 N571 1.279 . S
C570 H611 0.930 . S
N571 C569 1.314 . S
N571 C570 1.279 . S
C572 C574 1.353 . S
C572 N575 1.314 . S
C572 H578 0.930 . S
C573 N575 1.279 . S
C573 C576 1.358 . S
C573 H579 0.930 . S
C574 C572 1.353 . S
C574 C577 1.348 . S
C574 H612 0.929 . S
N575 Li530 1.990 . S
N575 C572 1.314 . S
N575 C573 1.279 . S
C576 C573 1.358 . S
C576 C577 1.356 . S
C576 H613 0.930 . S
C577 C574 1.348 . S
C577 C576 1.356 . S
H578 C572 0.930 . S
H579 C573 0.930 . S
C580 N581 1.314 . S
C580 C582 1.353 . S
C580 H586 0.930 . S
N581 Li531 1.990 . S
N581 C580 1.314 . S
N581 C584 1.279 . S
C582 C580 1.353 . S
C582 C585 1.348 . S
C582 H614 0.929 . S
C583 C584 1.358 . S
C583 C585 1.356 . S
C583 H615 0.930 . S
C584 N581 1.279 . S
C584 C583 1.358 . S
C584 H587 0.930 . S
C585 C582 1.348 . S
C585 C583 1.356 . S
H586 C580 0.930 . S
H587 C584 0.930 . S
O588 Li528 1.956 . S
O588 Li529 1.970 . S
O588 Li530 1.961 . S
O588 C532 1.325 . S
O589 Li528 1.970 . S
O589 Li529 1.956 . S
O589 Li531 1.961 . S
O589 C538 1.325 . S
O590 Li528 1.961 . S
O590 Li530 1.956 . S
O590 Li531 1.970 . S
O590 C560 1.325 . S
O591 Li529 1.961 . S
O591 Li530 1.970 . S
O591 Li531 1.956 . S
O591 C566 1.325 . S
H592 C534 0.929 . S
H593 C535 0.930 . S
H594 C536 0.930 . S
H595 C537 0.930 . S
H596 C539 0.930 . S
H597 C541 0.929 . S
H598 C542 0.930 . S
H599 C543 0.930 . S
H600 C546 0.930 . S
H601 C549 0.929 . S
H602 C554 0.929 . S
H603 C555 0.930 . S
H604 C562 0.929 . S
H605 C563 0.930 . S
H606 C564 0.930 . S
H607 C565 0.930 . S
H608 C567 0.929 . S
H609 C568 0.930 . S
H610 C569 0.930 . S
H611 C570 0.930 . S
H612 C574 0.929 . S
H613 C576 0.930 . S
H614 C582 0.929 . S
H615 C583 0.930 . S
Li616 N633 1.990 . S
Li616 O676 1.956 . S
Li616 O677 1.970 . S
Li616 O678 1.961 . S
Li617 N641 1.990 . S
Li617 O676 1.970 . S
Li617 O677 1.956 . S
Li617 O679 1.961 . S
Li618 N663 1.990 . S
Li618 O676 1.961 . S
Li618 O678 1.956 . S
Li618 O679 1.970 . S
Li619 N669 1.990 . S
Li619 O677 1.961 . S
Li619 O678 1.970 . S
Li619 O679 1.956 . S
C620 C622 1.348 . S
C620 C623 1.356 . S
C620 O676 1.325 . S
N621 C624 1.314 . S
N621 C625 1.279 . S
C622 C620 1.348 . S
C622 C624 1.353 . S
C622 H680 0.929 . S
C623 C620 1.356 . S
C623 C625 1.358 . S
C623 H681 0.930 . S
C624 N621 1.314 . S
C624 C622 1.353 . S
C624 H682 0.930 . S
C625 N621 1.279 . S
C625 C623 1.358 . S
C625 H683 0.930 . S
C626 C629 1.348 . S
C626 C630 1.356 . S
C626 O677 1.325 . S
C627 N628 1.279 . S
C627 C630 1.358 . S
C627 H684 0.930 . S
N628 C627 1.279 . S
N628 C631 1.314 . S
C629 C626 1.348 . S
C629 C631 1.353 . S
C629 H685 0.929 . S
C630 C626 1.356 . S
C630 C627 1.358 . S
C630 H686 0.930 . S
C631 N628 1.314 . S
C631 C629 1.353 . S
C631 H687 0.930 . S
C632 N633 1.314 . S
C632 C637 1.353 . S
C632 H638 0.930 . S
N633 Li616 1.990 . S
N633 C632 1.314 . S
N633 C635 1.279 . S
C634 C635 1.358 . S
C634 C636 1.356 . S
C634 H688 0.930 . S
C635 N633 1.279 . S
C635 C634 1.358 . S
C635 H639 0.930 . S
C636 C634 1.356 . S
C636 C637 1.348 . S
C637 C632 1.353 . S
C637 C636 1.348 . S
C637 H689 0.929 . S
H638 C632 0.930 . S
H639 C635 0.930 . S
C640 N641 1.314 . S
C640 C642 1.353 . S
C640 H646 0.930 . S
N641 Li617 1.990 . S
N641 C640 1.314 . S
N641 C644 1.279 . S
C642 C640 1.353 . S
C642 C645 1.348 . S
C642 H690 0.929 . S
C643 C644 1.358 . S
C643 C645 1.356 . S
C643 H691 0.930 . S
C644 N641 1.279 . S
C644 C643 1.358 . S
C644 H647 0.930 . S
C645 C642 1.348 . S
C645 C643 1.356 . S
H646 C640 0.930 . S
H647 C644 0.930 . S
C648 C650 1.348 . S
C648 C651 1.356 . S
C648 O678 1.325 . S
N649 C652 1.314 . S
N649 C653 1.279 . S
C650 C648 1.348 . S
C650 C652 1.353 . S
C650 H692 0.929 . S
C651 C648 1.356 . S
C651 C653 1.358 . S
C651 H693 0.930 . S
C652 N649 1.314 . S
C652 C650 1.353 . S
C652 H694 0.930 . S
C653 N649 1.279 . S
C653 C651 1.358 . S
C653 H695 0.930 . S
C654 C655 1.348 . S
C654 C656 1.356 . S
C654 O679 1.325 . S
C655 C654 1.348 . S
C655 C657 1.353 1_545 S
C655 H696 0.929 . S
C656 C654 1.356 . S
C656 C658 1.358 1_545 S
C656 H697 0.930 . S
C657 C655 1.353 1_565 S
C657 N659 1.314 . S
C657 H698 0.930 . S
C658 C656 1.358 1_565 S
C658 N659 1.279 . S
C658 H699 0.930 . S
N659 C657 1.314 . S
N659 C658 1.279 . S
C660 C662 1.353 . S
C660 N663 1.314 . S
C660 H666 0.930 . S
C661 N663 1.279 . S
C661 C664 1.358 . S
C661 H667 0.930 . S
C662 C660 1.353 . S
C662 C665 1.348 . S
C662 H700 0.929 . S
N663 Li618 1.990 . S
N663 C660 1.314 . S
N663 C661 1.279 . S
C664 C661 1.358 . S
C664 C665 1.356 . S
C664 H701 0.930 . S
C665 C662 1.348 . S
C665 C664 1.356 . S
H666 C660 0.930 . S
H667 C661 0.930 . S
C668 N669 1.314 . S
C668 C670 1.353 . S
C668 H674 0.930 . S
N669 Li619 1.990 . S
N669 C668 1.314 . S
N669 C672 1.279 . S
C670 C668 1.353 . S
C670 C673 1.348 . S
C670 H702 0.929 . S
C671 C672 1.358 . S
C671 C673 1.356 . S
C671 H703 0.930 . S
C672 N669 1.279 . S
C672 C671 1.358 . S
C672 H675 0.930 . S
C673 C670 1.348 . S
C673 C671 1.356 . S
H674 C668 0.930 . S
H675 C672 0.930 . S
O676 Li616 1.956 . S
O676 Li617 1.970 . S
O676 Li618 1.961 . S
O676 C620 1.325 . S
O677 Li616 1.970 . S
O677 Li617 1.956 . S
O677 Li619 1.961 . S
O677 C626 1.325 . S
O678 Li616 1.961 . S
O678 Li618 1.956 . S
O678 Li619 1.970 . S
O678 C648 1.325 . S
O679 Li617 1.961 . S
O679 Li618 1.970 . S
O679 Li619 1.956 . S
O679 C654 1.325 . S
H680 C622 0.929 . S
H681 C623 0.930 . S
H682 C624 0.930 . S
H683 C625 0.930 . S
H684 C627 0.930 . S
H685 C629 0.929 . S
H686 C630 0.930 . S
H687 C631 0.930 . S
H688 C634 0.930 . S
H689 C637 0.929 . S
H690 C642 0.929 . S
H691 C643 0.930 . S
H692 C650 0.929 . S
H693 C651 0.930 . S
H694 C652 0.930 . S
H695 C653 0.930 . S
H696 C655 0.929 . S
H697 C656 0.930 . S
H698 C657 0.930 . S
H699 C658 0.930 . S
H700 C662 0.929 . S
H701 C664 0.930 . S
H702 C670 0.929 . S
H703 C671 0.930 . S
H704 C716 0.930 . S
H705 C718 0.930 . S
H706 C719 0.930 . S
H707 C723 0.959 . S
H708 C723 0.959 . S
H709 C723 0.961 . S
H710 C724 0.960 . S
H711 C724 0.961 . S
H712 C724 0.959 . S
H713 C727 0.929 . S
H714 C728 0.931 . S
H715 C730 0.930 . S
C716 H704 0.930 . S
C716 C717 1.399 1_455 S
C716 C721 1.399 . S
C717 C716 1.399 1_655 S
C717 C718 1.376 . S
C718 H705 0.930 . S
C718 C717 1.376 . S
C718 C719 1.388 . S
C719 H706 0.930 . S
C719 C718 1.388 . S
C719 C720 1.390 . S
C720 C719 1.390 . S
C720 C721 1.394 1_655 S
C720 C726 1.465 . S
C721 C716 1.399 . S
C721 C720 1.394 1_455 S
C721 C722 1.516 . S
C722 C721 1.516 . S
C722 C723 1.502 . S
C722 C724 1.561 1_455 S
C722 C725 1.526 . S
C723 H707 0.959 . S
C723 H708 0.959 . S
C723 H709 0.961 . S
C723 C722 1.502 . S
C724 H710 0.960 . S
C724 H711 0.961 . S
C724 H712 0.959 . S
C724 C722 1.561 1_655 S
C725 C722 1.526 . S
C725 C726 1.396 1_455 S
C725 C730 1.390 . S
C726 C720 1.465 . S
C726 C725 1.396 1_655 S
C726 C727 1.399 . S
C727 H713 0.929 . S
C727 C726 1.399 . S
C727 C728 1.385 . S
C728 H714 0.931 . S
C728 C727 1.385 . S
C728 C729 1.389 . S
C729 C728 1.389 . S
C729 C730 1.387 1_655 S
C730 H715 0.930 . S
C730 C725 1.390 . S
C730 C729 1.387 1_455 S
H731 C743 0.930 . S
H732 C745 0.930 . S
H733 C746 0.930 . S
H734 C750 0.959 . S
H735 C750 0.959 . S
H736 C750 0.961 . S
H737 C751 0.960 . S
H738 C751 0.961 . S
H739 C751 0.959 1_455 S
H740 C754 0.929 . S
H741 C755 0.931 . S
H742 C757 0.930 . S
C743 H731 0.930 . S
C743 C744 1.399 1_655 S
C743 C748 1.399 . S
C744 C743 1.399 1_455 S
C744 C745 1.376 . S
C745 H732 0.930 . S
C745 C744 1.376 . S
C745 C746 1.388 . S
C746 H733 0.930 . S
C746 C745 1.388 . S
C746 C747 1.390 . S
C747 C746 1.390 . S
C747 C748 1.394 1_455 S
C747 C753 1.465 . S
C748 C743 1.399 . S
C748 C747 1.394 1_655 S
C748 C749 1.516 . S
C749 C748 1.516 . S
C749 C750 1.502 . S
C749 C751 1.561 . S
C749 C752 1.526 . S
C750 H734 0.959 . S
C750 H735 0.959 . S
C750 H736 0.961 . S
C750 C749 1.502 . S
C751 H737 0.960 . S
C751 H738 0.961 . S
C751 H739 0.959 1_655 S
C751 C749 1.561 . S
C752 C749 1.526 . S
C752 C753 1.396 1_655 S
C752 C757 1.390 . S
C753 C747 1.465 . S
C753 C752 1.396 1_455 S
C753 C754 1.399 . S
C754 H740 0.929 . S
C754 C753 1.399 . S
C754 C755 1.385 . S
C755 H741 0.931 . S
C755 C754 1.385 . S
C755 C756 1.389 . S
C756 C755 1.389 . S
C756 C757 1.387 1_455 S
C757 H742 0.930 . S
C757 C752 1.390 . S
C757 C756 1.387 1_655 S
H758 C770 0.930 . S
H759 C772 0.930 . S
H760 C773 0.930 . S
H761 C777 0.959 . S
H762 C777 0.959 . S
H763 C777 0.961 . S
H764 C778 0.960 . S
H765 C778 0.961 . S
H766 C778 0.959 . S
H767 C781 0.929 . S
H768 C782 0.931 . S
H769 C784 0.930 . S
C770 H758 0.930 . S
C770 C771 1.399 . S
C770 C775 1.399 . S
C771 C770 1.399 . S
C771 C772 1.376 . S
C772 H759 0.930 . S
C772 C771 1.376 . S
C772 C773 1.388 . S
C773 H760 0.930 . S
C773 C772 1.388 . S
C773 C774 1.390 . S
C774 C773 1.390 . S
C774 C775 1.394 . S
C774 C780 1.465 . S
C775 C770 1.399 . S
C775 C774 1.394 . S
C775 C776 1.516 . S
C776 C775 1.516 . S
C776 C777 1.502 . S
C776 C778 1.561 . S
C776 C779 1.526 . S
C777 H761 0.959 . S
C777 H762 0.959 . S
C777 H763 0.961 . S
C777 C776 1.502 . S
C778 H764 0.960 . S
C778 H765 0.961 . S
C778 H766 0.959 . S
C778 C776 1.561 . S
C779 C776 1.526 . S
C779 C780 1.396 . S
C779 C784 1.390 . S
C780 C774 1.465 . S
C780 C779 1.396 . S
C780 C781 1.399 . S
C781 H767 0.929 . S
C781 C780 1.399 . S
C781 C782 1.385 . S
C782 H768 0.931 . S
C782 C781 1.385 . S
C782 C783 1.389 . S
C783 C782 1.389 . S
C783 C784 1.387 . S
C784 H769 0.930 . S
C784 C779 1.390 . S
C784 C783 1.387 . S
H785 C797 0.930 . S
H786 C799 0.930 . S
H787 C800 0.930 . S
H788 C804 0.959 . S
H789 C804 0.959 . S
H790 C804 0.961 . S
H791 C805 0.960 . S
H792 C805 0.961 . S
H793 C805 0.959 . S
H794 C808 0.929 . S
H795 C809 0.931 . S
H796 C811 0.930 . S
C797 H785 0.930 . S
C797 C798 1.399 . S
C797 C802 1.399 . S
C798 C797 1.399 . S
C798 C799 1.376 . S
C799 H786 0.930 . S
C799 C798 1.376 . S
C799 C800 1.388 . S
C800 H787 0.930 . S
C800 C799 1.388 . S
C800 C801 1.390 . S
C801 C800 1.390 . S
C801 C802 1.394 . S
C801 C807 1.465 . S
C802 C797 1.399 . S
C802 C801 1.394 . S
C802 C803 1.516 . S
C803 C802 1.516 . S
C803 C804 1.502 . S
C803 C805 1.561 . S
C803 C806 1.526 . S
C804 H788 0.959 . S
C804 H789 0.959 . S
C804 H790 0.961 . S
C804 C803 1.502 . S
C805 H791 0.960 . S
C805 H792 0.961 . S
C805 H793 0.959 . S
C805 C803 1.561 . S
C806 C803 1.526 . S
C806 C807 1.396 . S
C806 C811 1.390 . S
C807 C801 1.465 . S
C807 C806 1.396 . S
C807 C808 1.399 . S
C808 H794 0.929 . S
C808 C807 1.399 . S
C808 C809 1.385 . S
C809 H795 0.931 . S
C809 C808 1.385 . S
C809 C810 1.389 . S
C810 C809 1.389 . S
C810 C811 1.387 . S
C811 H796 0.930 . S
C811 C806 1.390 . S
C811 C810 1.387 . S
H812 C824 0.930 . S
H813 C826 0.930 . S
H814 C827 0.930 . S
H815 C831 0.959 . S
H816 C831 0.959 . S
H817 C831 0.961 . S
H818 C832 0.960 . S
H819 C832 0.961 . S
H820 C832 0.959 . S
H821 C835 0.929 . S
H822 C836 0.931 . S
H823 C838 0.930 . S
C824 H812 0.930 . S
C824 C825 1.399 . S
C824 C829 1.399 . S
C825 C824 1.399 . S
C825 C826 1.376 . S
C826 H813 0.930 . S
C826 C825 1.376 . S
C826 C827 1.388 . S
C827 H814 0.930 . S
C827 C826 1.388 . S
C827 C828 1.390 . S
C828 C827 1.390 . S
C828 C829 1.394 . S
C828 C834 1.465 . S
C829 C824 1.399 . S
C829 C828 1.394 . S
C829 C830 1.516 . S
C830 C829 1.516 . S
C830 C831 1.502 . S
C830 C832 1.561 . S
C830 C833 1.526 . S
C831 H815 0.959 . S
C831 H816 0.959 . S
C831 H817 0.961 . S
C831 C830 1.502 . S
C832 H818 0.960 . S
C832 H819 0.961 . S
C832 H820 0.959 . S
C832 C830 1.561 . S
C833 C830 1.526 . S
C833 C834 1.396 . S
C833 C838 1.390 . S
C834 C828 1.465 . S
C834 C833 1.396 . S
C834 C835 1.399 . S
C835 H821 0.929 . S
C835 C834 1.399 . S
C835 C836 1.385 . S
C836 H822 0.931 . S
C836 C835 1.385 . S
C836 C837 1.389 . S
C837 C836 1.389 . S
C837 C838 1.387 . S
C838 H823 0.930 . S
C838 C833 1.390 . S
C838 C837 1.387 . S
H839 C851 0.930 . S
H840 C853 0.930 . S
H841 C854 0.930 . S
H842 C858 0.959 . S
H843 C858 0.959 . S
H844 C858 0.961 . S
H845 C859 0.960 . S
H846 C859 0.961 . S
H847 C859 0.959 . S
H848 C862 0.929 . S
H849 C863 0.931 . S
H850 C865 0.930 . S
C851 H839 0.930 . S
C851 C852 1.399 . S
C851 C856 1.399 . S
C852 C851 1.399 . S
C852 C853 1.376 . S
C853 H840 0.930 . S
C853 C852 1.376 . S
C853 C854 1.388 . S
C854 H841 0.930 . S
C854 C853 1.388 . S
C854 C855 1.390 . S
C855 C854 1.390 . S
C855 C856 1.394 . S
C855 C861 1.465 . S
C856 C851 1.399 . S
C856 C855 1.394 . S
C856 C857 1.516 . S
C857 C856 1.516 . S
C857 C858 1.502 . S
C857 C859 1.561 . S
C857 C860 1.526 . S
C858 H842 0.959 . S
C858 H843 0.959 . S
C858 H844 0.961 . S
C858 C857 1.502 . S
C859 H845 0.960 . S
C859 H846 0.961 . S
C859 H847 0.959 . S
C859 C857 1.561 . S
C860 C857 1.526 . S
C860 C861 1.396 . S
C860 C865 1.390 . S
C861 C855 1.465 . S
C861 C860 1.396 . S
C861 C862 1.399 . S
C862 H848 0.929 . S
C862 C861 1.399 . S
C862 C863 1.385 . S
C863 H849 0.931 . S
C863 C862 1.385 . S
C863 C864 1.389 . S
C864 C863 1.389 . S
C864 C865 1.387 . S
C865 H850 0.930 . S
C865 C860 1.390 . S
C865 C864 1.387 . S
H866 C878 0.930 . S
H867 C880 0.930 . S
H868 C881 0.930 . S
H869 C885 0.959 . S
H870 C885 0.959 . S
H871 C885 0.961 . S
H872 C886 0.960 . S
H873 C886 0.961 . S
H874 C886 0.959 . S
H875 C889 0.929 . S
H876 C890 0.931 . S
H877 C892 0.930 . S
C878 H866 0.930 . S
C878 C879 1.399 . S
C878 C883 1.399 . S
C879 C878 1.399 . S
C879 C880 1.376 . S
C880 H867 0.930 . S
C880 C879 1.376 . S
C880 C881 1.388 . S
C881 H868 0.930 . S
C881 C880 1.388 . S
C881 C882 1.390 . S
C882 C881 1.390 . S
C882 C883 1.394 . S
C882 C888 1.465 . S
C883 C878 1.399 . S
C883 C882 1.394 . S
C883 C884 1.516 . S
C884 C883 1.516 . S
C884 C885 1.502 . S
C884 C886 1.561 . S
C884 C887 1.526 . S
C885 H869 0.959 . S
C885 H870 0.959 . S
C885 H871 0.961 . S
C885 C884 1.502 . S
C886 H872 0.960 . S
C886 H873 0.961 . S
C886 H874 0.959 . S
C886 C884 1.561 . S
C887 C884 1.526 . S
C887 C888 1.396 . S
C887 C892 1.390 . S
C888 C882 1.465 . S
C888 C887 1.396 . S
C888 C889 1.399 . S
C889 H875 0.929 . S
C889 C888 1.399 . S
C889 C890 1.385 . S
C890 H876 0.931 . S
C890 C889 1.385 . S
C890 C891 1.389 . S
C891 C890 1.389 . S
C891 C892 1.387 . S
C892 H877 0.930 . S
C892 C887 1.390 . S
C892 C891 1.387 . S
H893 C905 0.930 . S
H894 C907 0.930 . S
H895 C908 0.930 . S
H896 C912 0.959 . S
H897 C912 0.959 . S
H898 C912 0.961 . S
H899 C913 0.960 . S
H900 C913 0.961 . S
H901 C913 0.959 . S
H902 C916 0.929 . S
H903 C917 0.931 . S
H904 C919 0.930 . S
C905 H893 0.930 . S
C905 C906 1.399 . S
C905 C910 1.399 . S
C906 C905 1.399 . S
C906 C907 1.376 . S
C907 H894 0.930 . S
C907 C906 1.376 . S
C907 C908 1.388 . S
C908 H895 0.930 . S
C908 C907 1.388 . S
C908 C909 1.390 . S
C909 C908 1.390 . S
C909 C910 1.394 . S
C909 C915 1.465 . S
C910 C905 1.399 . S
C910 C909 1.394 . S
C910 C911 1.516 . S
C911 C910 1.516 . S
C911 C912 1.502 . S
C911 C913 1.561 . S
C911 C914 1.526 . S
C912 H896 0.959 . S
C912 H897 0.959 . S
C912 H898 0.961 . S
C912 C911 1.502 . S
C913 H899 0.960 . S
C913 H900 0.961 . S
C913 H901 0.959 . S
C913 C911 1.561 . S
C914 C911 1.526 . S
C914 C915 1.396 . S
C914 C919 1.390 . S
C915 C909 1.465 . S
C915 C914 1.396 . S
C915 C916 1.399 . S
C916 H902 0.929 . S
C916 C915 1.399 . S
C916 C917 1.385 . S
C917 H903 0.931 . S
C917 C916 1.385 . S
C917 C918 1.389 . S
C918 C917 1.389 . S
C918 C919 1.387 . S
C919 H904 0.930 . S
C919 C914 1.390 . S
C919 C918 1.387 . S
H920 C932 0.930 . S
H921 C934 0.930 . S
H922 C935 0.930 . S
H923 C939 0.959 . S
H924 C939 0.959 1_545 S
H925 C939 0.965 . S
H926 C940 0.959 . S
H927 C940 0.960 . S
H928 C940 0.960 1_565 S
H929 C943 0.929 . S
H930 C944 0.931 . S
H931 C946 0.930 . S
C932 H920 0.930 . S
C932 C933 1.399 . S
C932 C937 1.399 . S
C933 C932 1.399 . S
C933 C934 1.376 . S
C934 H921 0.930 . S
C934 C933 1.376 . S
C934 C935 1.388 . S
C935 H922 0.930 . S
C935 C934 1.388 . S
C935 C936 1.390 . S
C936 C935 1.390 . S
C936 C937 1.394 . S
C936 C942 1.465 . S
C937 C932 1.399 . S
C937 C936 1.394 . S
C937 C938 1.516 . S
C938 C937 1.516 . S
C938 C939 1.502 . S
C938 C940 1.563 1_565 S
C938 C941 1.526 . S
C939 H923 0.959 . S
C939 H924 0.959 1_565 S
C939 H925 0.965 . S
C939 C938 1.502 . S
C940 H926 0.959 . S
C940 H927 0.960 . S
C940 H928 0.960 1_545 S
C940 C938 1.563 1_545 S
C941 C938 1.526 . S
C941 C942 1.396 . S
C941 C946 1.390 . S
C942 C936 1.465 . S
C942 C941 1.396 . S
C942 C943 1.399 . S
C943 H929 0.929 . S
C943 C942 1.399 . S
C943 C944 1.385 . S
C944 H930 0.931 . S
C944 C943 1.385 . S
C944 C945 1.389 . S
C945 C944 1.389 . S
C945 C946 1.387 . S
C946 H931 0.930 . S
C946 C941 1.390 . S
C946 C945 1.387 . S
H947 C959 0.930 . S
H948 C961 0.930 . S
H949 C962 0.930 . S
H950 C966 0.959 . S
H951 C966 0.959 . S
H952 C966 0.961 . S
H953 C967 0.960 . S
H954 C967 0.961 . S
H955 C967 0.959 . S
H956 C970 0.929 . S
H957 C971 0.931 . S
H958 C973 0.930 . S
C959 H947 0.930 . S
C959 C960 1.399 . S
C959 C964 1.399 . S
C960 C959 1.399 . S
C960 C961 1.376 . S
C961 H948 0.930 . S
C961 C960 1.376 . S
C961 C962 1.388 . S
C962 H949 0.930 . S
C962 C961 1.388 . S
C962 C963 1.390 . S
C963 C962 1.390 . S
C963 C964 1.394 . S
C963 C969 1.465 . S
C964 C959 1.399 . S
C964 C963 1.394 . S
C964 C965 1.516 . S
C965 C964 1.516 . S
C965 C966 1.502 . S
C965 C967 1.561 . S
C965 C968 1.526 . S
C966 H950 0.959 . S
C966 H951 0.959 . S
C966 H952 0.961 . S
C966 C965 1.502 . S
C967 H953 0.960 . S
C967 H954 0.961 . S
C967 H955 0.959 . S
C967 C965 1.561 . S
C968 C965 1.526 . S
C968 C969 1.396 . S
C968 C973 1.390 . S
C969 C963 1.465 . S
C969 C968 1.396 . S
C969 C970 1.399 . S
C970 H956 0.929 . S
C970 C969 1.399 . S
C970 C971 1.385 . S
C971 H957 0.931 . S
C971 C970 1.385 . S
C971 C972 1.389 . S
C972 C971 1.389 . S
C972 C973 1.387 . S
C973 H958 0.930 . S
C973 C968 1.390 . S
C973 C972 1.387 . S
H974 C986 0.930 . S
H975 C988 0.930 . S
H976 C989 0.930 . S
H977 C993 0.963 . S
H978 C993 0.959 . S
H979 C993 0.961 . S
H980 C994 0.960 . S
H981 C994 0.961 . S
H982 C994 0.959 . S
H983 C997 0.929 . S
H984 C998 0.931 . S
H985 C1000 0.930 . S
C986 H974 0.930 . S
C986 C987 1.399 . S
C986 C991 1.399 . S
C987 C986 1.399 . S
C987 C988 1.376 . S
C988 H975 0.930 . S
C988 C987 1.376 . S
C988 C989 1.388 . S
C989 H976 0.930 . S
C989 C988 1.388 . S
C989 C990 1.390 . S
C990 C989 1.390 . S
C990 C991 1.394 . S
C990 C996 1.465 . S
C991 C986 1.399 . S
C991 C990 1.394 . S
C991 C992 1.516 . S
C992 C991 1.516 . S
C992 C993 1.502 . S
C992 C994 1.561 . S
C992 C995 1.526 . S
C993 H977 0.963 . S
C993 H978 0.959 . S
C993 H979 0.961 . S
C993 C992 1.502 . S
C994 H980 0.960 . S
C994 H981 0.961 . S
C994 H982 0.959 . S
C994 C992 1.561 . S
C995 C992 1.526 . S
C995 C996 1.396 . S
C995 C1000 1.390 . S
C996 C990 1.465 . S
C996 C995 1.396 . S
C996 C997 1.399 . S
C997 H983 0.929 . S
C997 C996 1.399 . S
C997 C998 1.385 . S
C998 H984 0.931 . S
C998 C997 1.385 . S
C998 C999 1.389 . S
C999 C998 1.389 . S
C999 C1000 1.387 . S
C1000 H985 0.930 . S
C1000 C995 1.390 . S
C1000 C999 1.387 . S
H1001 C1013 0.930 . S
H1002 C1015 0.930 . S
H1003 C1016 0.930 . S
H1004 C1020 0.959 . S
H1005 C1020 0.959 . S
H1006 C1020 0.961 . S
H1007 C1021 0.960 . S
H1008 C1021 0.961 . S
H1009 C1021 0.959 . S
H1010 C1024 0.929 . S
H1011 C1025 0.931 . S
H1012 C1027 0.930 . S
C1013 H1001 0.930 . S
C1013 C1014 1.399 . S
C1013 C1018 1.399 . S
C1014 C1013 1.399 . S
C1014 C1015 1.376 . S
C1015 H1002 0.930 . S
C1015 C1014 1.376 . S
C1015 C1016 1.388 . S
C1016 H1003 0.930 . S
C1016 C1015 1.388 . S
C1016 C1017 1.390 . S
C1017 C1016 1.390 . S
C1017 C1018 1.394 . S
C1017 C1023 1.465 . S
C1018 C1013 1.399 . S
C1018 C1017 1.394 . S
C1018 C1019 1.516 . S
C1019 C1018 1.516 . S
C1019 C1020 1.502 . S
C1019 C1021 1.561 . S
C1019 C1022 1.526 . S
C1020 H1004 0.959 . S
C1020 H1005 0.959 . S
C1020 H1006 0.961 . S
C1020 C1019 1.502 . S
C1021 H1007 0.960 . S
C1021 H1008 0.961 . S
C1021 H1009 0.959 . S
C1021 C1019 1.561 . S
C1022 C1019 1.526 . S
C1022 C1023 1.396 . S
C1022 C1027 1.390 . S
C1023 C1017 1.465 . S
C1023 C1022 1.396 . S
C1023 C1024 1.399 . S
C1024 H1010 0.929 . S
C1024 C1023 1.399 . S
C1024 C1025 1.385 . S
C1025 H1011 0.931 . S
C1025 C1024 1.385 . S
C1025 C1026 1.389 . S
C1026 C1025 1.389 . S
C1026 C1027 1.387 . S
C1027 H1012 0.930 . S
C1027 C1022 1.390 . S
C1027 C1026 1.387 . S
H1028 C1040 0.930 . S
H1029 C1042 0.930 . S
H1030 C1043 0.930 . S
H1031 C1047 0.959 1_655 S
H1032 C1047 0.959 . S
H1033 C1047 0.961 . S
H1034 C1048 0.960 1_554 S
H1035 C1048 0.961 . S
H1036 C1048 0.959 . S
H1037 C1051 0.929 . S
H1038 C1052 0.931 . S
H1039 C1054 0.971 . S
C1040 H1028 0.930 . S
C1040 C1041 1.403 . S
C1040 C1045 1.399 . S
C1041 C1040 1.403 . S
C1041 C1042 1.372 1_445 S
C1042 H1029 0.930 . S
C1042 C1041 1.372 1_665 S
C1042 C1043 1.388 . S
C1043 H1030 0.930 . S
C1043 C1042 1.388 . S
C1043 C1044 1.390 . S
C1044 C1043 1.390 . S
C1044 C1045 1.394 1_665 S
C1044 C1050 1.465 1_554 S
C1045 C1040 1.399 . S
C1045 C1044 1.394 1_445 S
C1045 C1046 1.516 1_554 S
C1046 C1045 1.516 1_556 S
C1046 C1047 1.502 . S
C1046 C1048 1.561 . S
C1046 C1049 1.526 . S
C1047 H1031 0.959 1_455 S
C1047 H1032 0.959 . S
C1047 H1033 0.961 . S
C1047 C1046 1.502 . S
C1048 H1034 0.960 1_556 S
C1048 H1035 0.961 . S
C1048 H1036 0.959 . S
C1048 C1046 1.561 . S
C1049 C1046 1.526 . S
C1049 C1050 1.396 1_445 S
C1049 C1054 1.395 . S
C1050 C1044 1.465 1_556 S
C1050 C1049 1.396 1_665 S
C1050 C1051 1.399 . S
C1051 H1037 0.929 . S
C1051 C1050 1.399 . S
C1051 C1052 1.385 . S
C1052 H1038 0.931 . S
C1052 C1051 1.385 . S
C1052 C1053 1.400 . S
C1053 C1052 1.400 . S
C1053 C1054 1.332 1_665 S
C1054 H1039 0.971 . S
C1054 C1049 1.395 . S
C1054 C1053 1.332 1_445 S
H1055 C1067 0.930 . S
H1056 C1069 0.930 . S
H1057 C1070 0.930 . S
H1058 C1074 0.959 . S
H1059 C1074 0.959 . S
H1060 C1074 0.957 1_556 S
H1061 C1075 0.994 . S
H1062 C1075 0.961 . S
H1063 C1075 0.959 . S
H1064 C1078 0.929 . S
H1065 C1079 0.931 . S
H1066 C1081 0.930 . S
C1067 H1055 0.930 . S
C1067 C1068 1.399 1_455 S
C1067 C1072 1.399 . S
C1068 C1067 1.399 1_655 S
C1068 C1069 1.376 . S
C1069 H1056 0.930 . S
C1069 C1068 1.376 . S
C1069 C1070 1.388 . S
C1070 H1057 0.930 . S
C1070 C1069 1.388 . S
C1070 C1071 1.390 . S
C1071 C1070 1.390 . S
C1071 C1072 1.394 1_655 S
C1071 C1077 1.465 1_556 S
C1072 C1067 1.399 . S
C1072 C1071 1.394 1_455 S
C1072 C1073 1.516 1_556 S
C1073 C1072 1.516 1_554 S
C1073 C1074 1.502 . S
C1073 C1075 1.561 1_455 S
C1073 C1076 1.526 . S
C1074 H1058 0.959 . S
C1074 H1059 0.959 . S
C1074 H1060 0.957 1_554 S
C1074 C1073 1.502 . S
C1075 H1061 0.994 . S
C1075 H1062 0.961 . S
C1075 H1063 0.959 . S
C1075 C1073 1.561 1_655 S
C1076 C1073 1.526 . S
C1076 C1077 1.396 1_455 S
C1076 C1081 1.390 . S
C1077 C1071 1.465 1_554 S
C1077 C1076 1.396 1_655 S
C1077 C1078 1.399 . S
C1078 H1064 0.929 . S
C1078 C1077 1.399 . S
C1078 C1079 1.385 . S
C1079 H1065 0.931 . S
C1079 C1078 1.385 . S
C1079 C1080 1.389 . S
C1080 C1079 1.389 . S
C1080 C1081 1.387 1_655 S
C1081 H1066 0.930 . S
C1081 C1076 1.390 . S
C1081 C1080 1.387 1_455 S
H1082 C1094 0.930 . S
H1083 C1096 0.930 . S
H1084 C1097 0.930 . S
H1085 C1101 0.959 . S
H1086 C1101 0.959 . S
H1087 C1101 0.961 . S
H1088 C1102 0.960 . S
H1089 C1102 0.961 . S
H1090 C1102 0.959 . S
H1091 C1105 0.929 . S
H1092 C1106 0.931 . S
H1093 C1108 0.930 . S
C1094 H1082 0.930 . S
C1094 C1095 1.399 . S
C1094 C1099 1.399 . S
C1095 C1094 1.399 . S
C1095 C1096 1.376 . S
C1096 H1083 0.930 . S
C1096 C1095 1.376 . S
C1096 C1097 1.388 . S
C1097 H1084 0.930 . S
C1097 C1096 1.388 . S
C1097 C1098 1.390 . S
C1098 C1097 1.390 . S
C1098 C1099 1.394 . S
C1098 C1104 1.465 . S
C1099 C1094 1.399 . S
C1099 C1098 1.394 . S
C1099 C1100 1.516 . S
C1100 C1099 1.516 . S
C1100 C1101 1.502 . S
C1100 C1102 1.561 . S
C1100 C1103 1.526 . S
C1101 H1085 0.959 . S
C1101 H1086 0.959 . S
C1101 H1087 0.961 . S
C1101 C1100 1.502 . S
C1102 H1088 0.960 . S
C1102 H1089 0.961 . S
C1102 H1090 0.959 . S
C1102 C1100 1.561 . S
C1103 C1100 1.526 . S
C1103 C1104 1.396 . S
C1103 C1108 1.390 . S
C1104 C1098 1.465 . S
C1104 C1103 1.396 . S
C1104 C1105 1.399 . S
C1105 H1091 0.929 . S
C1105 C1104 1.399 . S
C1105 C1106 1.385 . S
C1106 H1092 0.931 . S
C1106 C1105 1.385 . S
C1106 C1107 1.389 . S
C1107 C1106 1.389 . S
C1107 C1108 1.387 . S
C1108 H1093 0.930 . S
C1108 C1103 1.390 . S
C1108 C1107 1.387 . S
H1109 C1121 0.930 . S
H1110 C1123 0.930 1_545 S
H1111 C1124 0.930 . S
H1112 C1128 0.959 1_545 S
H1113 C1128 0.959 . S
H1114 C1128 0.961 . S
H1115 C1129 0.960 . S
H1116 C1129 0.961 . S
H1117 C1129 0.959 . S
H1118 C1132 0.929 . S
H1119 C1133 0.931 . S
H1120 C1135 0.930 1_565 S
C1121 H1109 0.930 . S
C1121 C1122 1.399 . S
C1121 C1126 1.399 . S
C1122 C1121 1.399 . S
C1122 C1123 1.376 . S
C1123 H1110 0.930 1_565 S
C1123 C1122 1.376 . S
C1123 C1124 1.388 1_565 S
C1124 H1111 0.930 . S
C1124 C1123 1.388 1_545 S
C1124 C1125 1.390 . S
C1125 C1124 1.390 . S
C1125 C1126 1.394 1_545 S
C1125 C1131 1.465 . S
C1126 C1121 1.399 . S
C1126 C1125 1.394 1_565 S
C1126 C1127 1.516 . S
C1127 C1126 1.516 . S
C1127 C1128 1.502 . S
C1127 C1129 1.561 . S
C1127 C1130 1.526 . S
C1128 H1112 0.959 1_565 S
C1128 H1113 0.959 . S
C1128 H1114 0.961 . S
C1128 C1127 1.502 . S
C1129 H1115 0.960 . S
C1129 H1116 0.961 . S
C1129 H1117 0.959 . S
C1129 C1127 1.561 . S
C1130 C1127 1.526 . S
C1130 C1131 1.396 1_565 S
C1130 C1135 1.390 1_565 S
C1131 C1125 1.465 . S
C1131 C1130 1.396 1_545 S
C1131 C1132 1.399 . S
C1132 H1118 0.929 . S
C1132 C1131 1.399 . S
C1132 C1133 1.385 . S
C1133 H1119 0.931 . S
C1133 C1132 1.385 . S
C1133 C1134 1.389 . S
C1134 C1133 1.389 . S
C1134 C1135 1.387 . S
C1135 H1120 0.930 1_545 S
C1135 C1130 1.390 1_545 S
C1135 C1134 1.387 . S
C717 C137 1.525 1_655 S
C729 C20 1.527 1_655 S
C744 C225 1.524 . S
C756 C293 1.527 . S
C771 C381 1.514 . S
C783 C489 1.511 . S
C798 C585 1.526 . S
C810 C636 1.528 . S
C825 C645 1.444 . S
C837 C29 1.444 . S
C852 C577 1.428 . S
C864 C145 1.424 . S
C879 C233 1.417 . S
C891 C497 1.421 . S
C906 C372 1.436 . S
C918 C284 1.439 . S
C933 C469 1.419 . S
C945 C205 1.415 . S
C960 C401 1.446 . S
C972 C313 1.448 . S
C987 C673 1.414 . S
C999 C57 1.420 . S
C1014 C117 1.423 . S
C1026 C548 1.416 . S
C1041 C49 1.200 . S
C1053 C196 1.151 1_655 S
C1068 C321 1.195 1_655 S
C1080 C108 1.153 1_655 S
C1095 C557 1.165 . S
C1107 C409 1.190 . S
C1122 C460 1.182 . S
C1134 C665 1.165 . S
