# Generated by pormake.
# Topology umc, (4)-cn, num edge types: 1
# Building blocks:
#     Node 0, Type 0, BuildingBlock: NAWXER_clean_sbu_0, # of connection points: 4
#     Node 1, Type 0, BuildingBlock: NAWXER_clean_sbu_0, # of connection points: 4
#     Node 2, Type 0, BuildingBlock: NAWXER_clean_sbu_0, # of connection points: 4
#     Node 3, Type 0, BuildingBlock: NAWXER_clean_sbu_0, # of connection points: 4
#     Node 4, Type 0, BuildingBlock: NAWXER_clean_sbu_0, # of connection points: 4
#     Node 5, Type 0, BuildingBlock: NAWXER_clean_sbu_0, # of connection points: 4
#     Node 6, Type 0, BuildingBlock: NAWXER_clean_sbu_0, # of connection points: 4
#     Node 7, Type 0, BuildingBlock: NAWXER_clean_sbu_0, # of connection points: 4
#     Node 8, Type 0, BuildingBlock: NAWXER_clean_sbu_0, # of connection points: 4
#     Node 9, Type 0, BuildingBlock: NAWXER_clean_sbu_0, # of connection points: 4
#     Node 10, Type 0, BuildingBlock: NAWXER_clean_sbu_0, # of connection points: 4
#     Node 11, Type 0, BuildingBlock: NAWXER_clean_sbu_0, # of connection points: 4
#     Node 12, Type 0, BuildingBlock: NAWXER_clean_sbu_0, # of connection points: 4
#     Node 13, Type 0, BuildingBlock: NAWXER_clean_sbu_0, # of connection points: 4
#     Node 14, Type 0, BuildingBlock: NAWXER_clean_sbu_0, # of connection points: 4
#     Node 15, Type 0, BuildingBlock: NAWXER_clean_sbu_0, # of connection points: 4
#     Edge 16, Type (0, 0), BuildingBlock: MIFKUJ_clean_linker_0, # of connection points: 2
#     Edge 17, Type (0, 0), BuildingBlock: MIFKUJ_clean_linker_0, # of connection points: 2
#     Edge 18, Type (0, 0), BuildingBlock: MIFKUJ_clean_linker_0, # of connection points: 2
#     Edge 19, Type (0, 0), BuildingBlock: MIFKUJ_clean_linker_0, # of connection points: 2
#     Edge 20, Type (0, 0), BuildingBlock: MIFKUJ_clean_linker_0, # of connection points: 2
#     Edge 21, Type (0, 0), BuildingBlock: MIFKUJ_clean_linker_0, # of connection points: 2
#     Edge 22, Type (0, 0), BuildingBlock: MIFKUJ_clean_linker_0, # of connection points: 2
#     Edge 23, Type (0, 0), BuildingBlock: MIFKUJ_clean_linker_0, # of connection points: 2
#     Edge 24, Type (0, 0), BuildingBlock: MIFKUJ_clean_linker_0, # of connection points: 2
#     Edge 25, Type (0, 0), BuildingBlock: MIFKUJ_clean_linker_0, # of connection points: 2
#     Edge 26, Type (0, 0), BuildingBlock: MIFKUJ_clean_linker_0, # of connection points: 2
#     Edge 27, Type (0, 0), BuildingBlock: MIFKUJ_clean_linker_0, # of connection points: 2
#     Edge 28, Type (0, 0), BuildingBlock: MIFKUJ_clean_linker_0, # of connection points: 2
#     Edge 29, Type (0, 0), BuildingBlock: MIFKUJ_clean_linker_0, # of connection points: 2
#     Edge 30, Type (0, 0), BuildingBlock: MIFKUJ_clean_linker_0, # of connection points: 2
#     Edge 31, Type (0, 0), BuildingBlock: MIFKUJ_clean_linker_0, # of connection points: 2
#     Edge 32, Type (0, 0), BuildingBlock: MIFKUJ_clean_linker_0, # of connection points: 2
#     Edge 33, Type (0, 0), BuildingBlock: MIFKUJ_clean_linker_0, # of connection points: 2
#     Edge 34, Type (0, 0), BuildingBlock: MIFKUJ_clean_linker_0, # of connection points: 2
#     Edge 35, Type (0, 0), BuildingBlock: MIFKUJ_clean_linker_0, # of connection points: 2
#     Edge 36, Type (0, 0), BuildingBlock: MIFKUJ_clean_linker_0, # of connection points: 2
#     Edge 37, Type (0, 0), BuildingBlock: MIFKUJ_clean_linker_0, # of connection points: 2
#     Edge 38, Type (0, 0), BuildingBlock: MIFKUJ_clean_linker_0, # of connection points: 2
#     Edge 39, Type (0, 0), BuildingBlock: MIFKUJ_clean_linker_0, # of connection points: 2
#     Edge 40, Type (0, 0), BuildingBlock: MIFKUJ_clean_linker_0, # of connection points: 2
#     Edge 41, Type (0, 0), BuildingBlock: MIFKUJ_clean_linker_0, # of connection points: 2
#     Edge 42, Type (0, 0), BuildingBlock: MIFKUJ_clean_linker_0, # of connection points: 2
#     Edge 43, Type (0, 0), BuildingBlock: MIFKUJ_clean_linker_0, # of connection points: 2
#     Edge 44, Type (0, 0), BuildingBlock: MIFKUJ_clean_linker_0, # of connection points: 2
#     Edge 45, Type (0, 0), BuildingBlock: MIFKUJ_clean_linker_0, # of connection points: 2
#     Edge 46, Type (0, 0), BuildingBlock: MIFKUJ_clean_linker_0, # of connection points: 2
#     Edge 47, Type (0, 0), BuildingBlock: MIFKUJ_clean_linker_0, # of connection points: 2
# Relax obj value: 0.015
# Max RMSD: 0.104
# Mean RMSD: 0.104
data_MOF--net-umc--node1-NAWXER_clean_sbu_0--edge1-MIFKUJ_clean_linker_0
_symmetry_space_group_name_H-M    P1
_symmetry_Int_Tables_number       1
_symmetry_cell_setting            triclinic
loop_
_symmetry_equiv_pos_as_xyz
'x, y, z'
_cell_length_a     71.396325
_cell_length_b     28.50677
_cell_length_c     76.71161
_cell_angle_alpha  90.032018
_cell_angle_beta   90.124775
_cell_angle_gamma 90.022091
loop_
_atom_site_label
_atom_site_type_symbol
_atom_site_fract_x
_atom_site_fract_y
_atom_site_fract_z
_atom_type_partial_charge
C0 C 0.36718 0.03055 0.40527 0.0
C1 C 0.36675 0.02814 0.34175 0.0
O2 O 0.37295 0.06921 0.39861 0.0
Zn3 Zn 0.37731 0.09838 0.37308 0.0
O4 O 0.36217 0.9972 0.39529 0.0
Zn5 Zn 0.36691 0.0288 0.37351 0.0
O6 O 0.39695 0.0348 0.37341 0.0
O7 O 0.40403 0.11005 0.37284 0.0
O8 O 0.36216 0.99531 0.3521 0.0
O9 O 0.37245 0.06744 0.34793 0.0
O10 O 0.3604 0.15118 0.37279 0.0
O11 O 0.34581 0.08297 0.37319 0.0
C12 C 0.4093 0.06748 0.37313 0.0
C13 C 0.34519 0.12797 0.3729 0.0
C14 C 0.66792 0.87235 0.37152 0.0
C15 C 0.60423 0.93549 0.37092 0.0
O16 O 0.66757 0.91737 0.37187 0.0
Zn17 Zn 0.6468 0.97247 0.37191 0.0
O18 O 0.65259 0.84969 0.37106 0.0
Zn19 Zn 0.63603 0.9032 0.37116 0.0
O20 O 0.64155 0.93417 0.34617 0.0
O21 O 0.65215 0.00591 0.35064 0.0
O22 O 0.60924 0.89273 0.37064 0.0
O23 O 0.61677 0.96769 0.37137 0.0
O24 O 0.65142 0.00354 0.39388 0.0
O25 O 0.64049 0.93157 0.39679 0.0
C26 C 0.64762 0.97328 0.34016 0.0
C27 C 0.64635 0.96992 0.40366 0.0
C28 C 0.36837 0.96757 0.0921 0.0
C29 C 0.36777 0.9704 0.15561 0.0
O30 O 0.37445 0.92926 0.09882 0.0
Zn31 Zn 0.37906 0.90053 0.1244 0.0
O32 O 0.36319 0.00079 0.10203 0.0
Zn33 Zn 0.36818 0.96956 0.12386 0.0
O34 O 0.39829 0.96505 0.12409 0.0
O35 O 0.40583 0.89011 0.12483 0.0
O36 O 0.36302 0.00292 0.14518 0.0
O37 O 0.37383 0.93135 0.14951 0.0
O38 O 0.36257 0.84681 0.12448 0.0
O39 O 0.34748 0.9143 0.12408 0.0
C40 C 0.41085 0.93288 0.12449 0.0
C41 C 0.34719 0.86927 0.12429 0.0
C42 C 0.64965 0.02986 0.15408 0.0
C43 C 0.64762 0.03123 0.09058 0.0
O44 O 0.64339 0.06872 0.14798 0.0
Zn45 Zn 0.6375 0.09882 0.12285 0.0
O46 O 0.65415 0.99709 0.14367 0.0
Zn47 Zn 0.64841 0.02982 0.12234 0.0
O48 O 0.66906 0.0852 0.12204 0.0
O49 O 0.65393 0.15265 0.12259 0.0
O50 O 0.65295 0.99815 0.10051 0.0
O51 O 0.64167 0.06965 0.0973 0.0
O52 O 0.61071 0.10898 0.12355 0.0
O53 O 0.61832 0.03408 0.12319 0.0
C54 C 0.66932 0.13023 0.12217 0.0
C55 C 0.60574 0.06618 0.12361 0.0
C56 C 0.64725 0.96662 0.59063 0.0
C57 C 0.64711 0.97069 0.65413 0.0
O58 O 0.65207 0.00017 0.60058 0.0
Zn59 Zn 0.64693 0.96927 0.62242 0.0
O60 O 0.64123 0.92824 0.59732 0.0
Zn61 Zn 0.63624 0.90008 0.62291 0.0
O62 O 0.60944 0.88938 0.62296 0.0
O63 O 0.61688 0.96438 0.62248 0.0
O64 O 0.64124 0.93135 0.64807 0.0
O65 O 0.65175 0.00321 0.64367 0.0
O66 O 0.66777 0.91432 0.62329 0.0
O67 O 0.6528 0.84659 0.62344 0.0
C68 C 0.60437 0.93209 0.62272 0.0
C69 C 0.66813 0.86929 0.62364 0.0
C70 C 0.36756 0.03123 0.59219 0.0
C71 C 0.36642 0.02902 0.65568 0.0
O72 O 0.36217 0.99824 0.60212 0.0
Zn73 Zn 0.36701 0.02969 0.62395 0.0
O74 O 0.37358 0.06962 0.59891 0.0
Zn75 Zn 0.37787 0.09874 0.62447 0.0
O76 O 0.40465 0.10931 0.62502 0.0
O77 O 0.39711 0.03435 0.62434 0.0
O78 O 0.37247 0.06813 0.64962 0.0
O79 O 0.36181 0.9964 0.64522 0.0
O80 O 0.34627 0.08478 0.62416 0.0
O81 O 0.36134 0.15234 0.62431 0.0
C82 C 0.40967 0.06654 0.62475 0.0
C83 C 0.34598 0.1298 0.62427 0.0
C84 C 0.64809 0.03227 0.90361 0.0
C85 C 0.6494 0.03069 0.84011 0.0
O86 O 0.65322 0.99914 0.89363 0.0
Zn87 Zn 0.64868 0.03102 0.87184 0.0
O88 O 0.6423 0.07094 0.89696 0.0
Zn89 Zn 0.63812 0.10033 0.87143 0.0
O90 O 0.61144 0.11173 0.87091 0.0
O91 O 0.61857 0.0365 0.8711 0.0
O92 O 0.6434 0.06975 0.84626 0.0
O93 O 0.65401 0.99796 0.85051 0.0
O94 O 0.66965 0.08564 0.872 0.0
O95 O 0.65485 0.15353 0.87155 0.0
C96 C 0.6062 0.06913 0.87079 0.0
C97 C 0.67013 0.13066 0.87186 0.0
C98 C 0.36952 0.96959 0.9052 0.0
C99 C 0.36759 0.97128 0.84173 0.0
O100 O 0.36412 0.00261 0.89527 0.0
Zn101 Zn 0.3688 0.9711 0.87347 0.0
O102 O 0.37558 0.93126 0.89848 0.0
Zn103 Zn 0.37986 0.90229 0.87287 0.0
O104 O 0.40664 0.89242 0.87205 0.0
O105 O 0.3989 0.96721 0.87288 0.0
O106 O 0.37387 0.93244 0.8478 0.0
O107 O 0.36309 0.00401 0.85216 0.0
O108 O 0.34827 0.91533 0.87373 0.0
O109 O 0.36362 0.84819 0.87304 0.0
C110 C 0.41154 0.93526 0.87232 0.0
C111 C 0.34817 0.87029 0.87353 0.0
C112 C 0.86661 0.53526 0.40452 0.0
C113 C 0.86681 0.53263 0.34097 0.0
O114 O 0.87282 0.57349 0.39786 0.0
Zn115 Zn 0.87785 0.6022 0.37242 0.0
O116 O 0.86149 0.50204 0.39453 0.0
Zn117 Zn 0.86679 0.53323 0.37274 0.0
O118 O 0.89686 0.53734 0.37292 0.0
O119 O 0.90467 0.61216 0.37261 0.0
O120 O 0.86182 0.50015 0.35131 0.0
O121 O 0.8729 0.57157 0.34719 0.0
O122 O 0.86144 0.65608 0.37214 0.0
O123 O 0.84624 0.58869 0.37225 0.0
C124 C 0.90952 0.56928 0.37287 0.0
C125 C 0.84603 0.63371 0.37208 0.0
C126 C 0.14742 0.46404 0.40533 0.0
C127 C 0.14545 0.4678 0.34178 0.0
O128 O 0.14104 0.42585 0.39873 0.0
Zn129 Zn 0.13536 0.39753 0.37321 0.0
O130 O 0.15225 0.49735 0.39529 0.0
Zn131 Zn 0.1463 0.46646 0.37358 0.0
O132 O 0.11625 0.46208 0.37461 0.0
O133 O 0.10855 0.38725 0.37371 0.0
O134 O 0.15038 0.5003 0.35216 0.0
O135 O 0.13977 0.42846 0.34794 0.0
O136 O 0.15169 0.34371 0.37251 0.0
O137 O 0.16694 0.41104 0.37246 0.0
C138 C 0.10364 0.43003 0.37456 0.0
C139 C 0.16711 0.36599 0.37217 0.0
C140 C 0.86952 0.46876 0.09163 0.0
C141 C 0.8665 0.47106 0.15505 0.0
O142 O 0.8754 0.43048 0.0985 0.0
Zn143 Zn 0.87904 0.40151 0.12412 0.0
O144 O 0.86386 0.50178 0.10141 0.0
Zn145 Zn 0.8681 0.47046 0.1234 0.0
O146 O 0.89819 0.46618 0.12491 0.0
O147 O 0.90578 0.39121 0.12522 0.0
O148 O 0.86211 0.50364 0.14451 0.0
O149 O 0.87283 0.43206 0.14914 0.0
O150 O 0.86261 0.3477 0.12361 0.0
O151 O 0.84745 0.41508 0.12303 0.0
C152 C 0.91075 0.43401 0.1255 0.0
C153 C 0.84722 0.37005 0.12315 0.0
C154 C 0.10514 0.56859 0.12429 0.0
C155 C 0.16901 0.63038 0.12375 0.0
O156 O 0.11752 0.53592 0.12394 0.0
Zn157 Zn 0.14775 0.53071 0.12398 0.0
O158 O 0.11038 0.61119 0.12464 0.0
Zn159 Zn 0.13699 0.59966 0.12408 0.0
O160 O 0.1409 0.56893 0.0986 0.0
O161 O 0.15285 0.49827 0.10248 0.0
O162 O 0.15369 0.65303 0.12379 0.0
O163 O 0.16861 0.58538 0.12382 0.0
O164 O 0.15285 0.49827 0.14553 0.0
O165 O 0.142 0.56989 0.14944 0.0
C166 C 0.14711 0.53026 0.09226 0.0
C167 C 0.14801 0.53106 0.15579 0.0
C168 C 0.14673 0.46767 0.59226 0.0
C169 C 0.14804 0.46827 0.65589 0.0
O170 O 0.15191 0.50078 0.60228 0.0
Zn171 Zn 0.14721 0.4688 0.62403 0.0
O172 O 0.14074 0.42917 0.59888 0.0
Zn173 Zn 0.13626 0.39977 0.62439 0.0
O174 O 0.10947 0.38953 0.62478 0.0
O175 O 0.11712 0.46444 0.62446 0.0
O176 O 0.14177 0.4296 0.64962 0.0
O177 O 0.15281 0.50101 0.64557 0.0
O178 O 0.16782 0.4135 0.62355 0.0
O179 O 0.15272 0.346 0.62423 0.0
C180 C 0.10452 0.43234 0.62473 0.0
C181 C 0.16809 0.36848 0.62367 0.0
C182 C 0.84624 0.63077 0.62363 0.0
C183 C 0.90986 0.56726 0.62435 0.0
O184 O 0.86162 0.65319 0.62399 0.0
Zn185 Zn 0.87806 0.5995 0.62393 0.0
O186 O 0.84649 0.58573 0.62332 0.0
Zn187 Zn 0.86721 0.53046 0.62324 0.0
O188 O 0.86182 0.49698 0.64448 0.0
O189 O 0.87247 0.56867 0.64897 0.0
O190 O 0.89732 0.53504 0.62384 0.0
O191 O 0.90483 0.61 0.62458 0.0
O192 O 0.87369 0.57089 0.59828 0.0
O193 O 0.86246 0.49928 0.60134 0.0
C194 C 0.86636 0.52957 0.65497 0.0
C195 C 0.8677 0.53255 0.59148 0.0
C196 C 0.14882 0.53045 0.90572 0.0
C197 C 0.14998 0.52782 0.8422 0.0
O198 O 0.15461 0.49789 0.8958 0.0
Zn199 Zn 0.14954 0.52893 0.87393 0.0
O200 O 0.14258 0.56863 0.89904 0.0
Zn201 Zn 0.13868 0.59787 0.87342 0.0
O202 O 0.11198 0.60876 0.87271 0.0
O203 O 0.11938 0.5337 0.87346 0.0
O204 O 0.14406 0.56709 0.84824 0.0
O205 O 0.15456 0.49522 0.85267 0.0
O206 O 0.17029 0.58391 0.8736 0.0
O207 O 0.15524 0.65143 0.87361 0.0
C208 C 0.10689 0.56604 0.87295 0.0
C209 C 0.1706 0.62892 0.87355 0.0
C210 C 0.87028 0.46691 0.90443 0.0
C211 C 0.86839 0.46965 0.84094 0.0
O212 O 0.86469 0.49987 0.89457 0.0
Zn213 Zn 0.8694 0.46877 0.87266 0.0
O214 O 0.87632 0.42868 0.89763 0.0
Zn215 Zn 0.88032 0.39981 0.872 0.0
O216 O 0.90709 0.38945 0.87124 0.0
O217 O 0.8995 0.46436 0.87199 0.0
O218 O 0.87458 0.43058 0.84692 0.0
O219 O 0.86386 0.50215 0.85145 0.0
O220 O 0.84872 0.41357 0.87252 0.0
O221 O 0.8638 0.34608 0.87214 0.0
C222 C 0.91208 0.43225 0.87144 0.0
C223 C 0.84842 0.36855 0.87233 0.0
H224 H 0.37645 0.09602 0.4297 0.0
H225 H 0.37638 0.08758 0.46127 0.0
H226 H 0.3569 0.94498 0.45617 0.0
H227 H 0.35671 0.95328 0.42433 0.0
H228 H 0.33828 0.99292 0.48191 0.0
H229 H 0.40196 0.96487 0.46599 0.0
H230 H 0.4319 0.98095 0.45118 0.0
H231 H 0.43734 0.11044 0.47936 0.0
H232 H 0.40729 0.09549 0.49415 0.0
H233 H 0.35651 0.95451 0.57304 0.0
H234 H 0.35636 0.94647 0.54123 0.0
H235 H 0.37732 0.08777 0.53625 0.0
H236 H 0.37775 0.0959 0.56785 0.0
H237 H 0.39604 0.02901 0.51544 0.0
H238 H 0.33123 0.06155 0.52886 0.0
H239 H 0.30095 0.04758 0.54336 0.0
H240 H 0.29757 0.9111 0.51984 0.0
H241 H 0.32798 0.92406 0.50537 0.0
C242 C 0.37213 0.06279 0.43522 0.0
C243 C 0.36668 0.02521 0.42446 0.0
C244 C 0.37217 0.05799 0.45331 0.0
C245 C 0.36692 0.01542 0.46106 0.0
C246 C 0.36109 0.97805 0.45042 0.0
C247 C 0.36103 0.98283 0.43225 0.0
C248 C 0.36757 0.01047 0.48029 0.0
C249 C 0.35099 0.99988 0.48925 0.0
C250 C 0.3841 0.02027 0.48985 0.0
C251 C 0.40229 0.02918 0.4811 0.0
C252 C 0.40947 0.99692 0.46895 0.0
C253 C 0.42648 0.00582 0.46057 0.0
C254 C 0.4365 0.04672 0.46431 0.0
C255 C 0.42956 0.07877 0.47647 0.0
C256 C 0.41255 0.07007 0.48488 0.0
C257 C 0.36106 0.98386 0.56516 0.0
C258 C 0.36713 0.02586 0.57299 0.0
C259 C 0.36091 0.97925 0.54699 0.0
C260 C 0.36673 0.01663 0.53637 0.0
C261 C 0.37282 0.05844 0.54418 0.0
C262 C 0.373 0.06305 0.56228 0.0
C263 C 0.36664 0.01262 0.51708 0.0
C264 C 0.38338 0.02141 0.5081 0.0
C265 C 0.35026 0.00132 0.50754 0.0
C266 C 0.33198 0.99355 0.5162 0.0
C267 C 0.32411 0.02841 0.5269 0.0
C268 C 0.30691 0.02071 0.53509 0.0
C269 C 0.29737 0.97842 0.53257 0.0
C270 C 0.30499 0.9438 0.52181 0.0
C271 C 0.3222 0.95131 0.5136 0.0
H272 H 0.28406 0.97252 0.53892 0.0
H273 H 0.44965 0.05355 0.4578 0.0
H274 H 0.64094 0.89871 0.56627 0.0
H275 H 0.64285 0.9056 0.53466 0.0
H276 H 0.65835 0.05123 0.53967 0.0
H277 H 0.65638 0.04476 0.5715 0.0
H278 H 0.63121 0.03686 0.51447 0.0
H279 H 0.69125 0.97271 0.52911 0.0
H280 H 0.71378 0.91798 0.54248 0.0
H281 H 0.6892 0.80332 0.51422 0.0
H282 H 0.66635 0.85728 0.50082 0.0
H283 H 0.65475 0.0479 0.42327 0.0
H284 H 0.65636 0.05332 0.45516 0.0
H285 H 0.64162 0.90699 0.45922 0.0
H286 H 0.64004 0.90118 0.42757 0.0
H287 H 0.67116 0.92919 0.4799 0.0
H288 H 0.60965 0.98903 0.46758 0.0
H289 H 0.58667 0.04127 0.45353 0.0
H290 H 0.613 0.16099 0.47716 0.0
H291 H 0.63634 0.10938 0.49119 0.0
C292 C 0.64479 0.93227 0.56071 0.0
C293 C 0.64855 0.97118 0.57144 0.0
C294 C 0.64596 0.93606 0.54261 0.0
C295 C 0.65095 0.97877 0.53483 0.0
C296 C 0.65454 0.0179 0.54544 0.0
C297 C 0.65345 0.01409 0.56361 0.0
C298 C 0.65208 0.98233 0.51558 0.0
C299 C 0.64022 0.014 0.50691 0.0
C300 C 0.66352 0.95174 0.50571 0.0
C301 C 0.677 0.91903 0.51405 0.0
C302 C 0.69052 0.93575 0.52588 0.0
C303 C 0.70338 0.90486 0.53343 0.0
C304 C 0.70292 0.85718 0.52921 0.0
C305 C 0.68955 0.84026 0.51747 0.0
C306 C 0.67665 0.87099 0.50988 0.0
C307 C 0.65185 0.01692 0.43097 0.0
C308 C 0.64726 0.97412 0.42288 0.0
C309 C 0.65271 0.02012 0.44917 0.0
C310 C 0.64904 0.98058 0.45953 0.0
C311 C 0.64454 0.93789 0.45146 0.0
C312 C 0.64358 0.93471 0.43335 0.0
C313 C 0.65006 0.98303 0.47881 0.0
C314 C 0.66233 0.9525 0.48747 0.0
C315 C 0.63889 0.0143 0.48863 0.0
C316 C 0.62488 0.04542 0.48025 0.0
C317 C 0.61065 0.02654 0.46965 0.0
C318 C 0.59753 0.05603 0.46171 0.0
C319 C 0.5984 0.10446 0.46439 0.0
C320 C 0.61237 0.12348 0.47506 0.0
C321 C 0.62554 0.09412 0.48302 0.0
H322 H 0.58823 0.12725 0.45824 0.0
H323 H 0.71296 0.83332 0.53497 0.0
H324 H 0.37766 0.90199 0.06776 0.0
H325 H 0.37614 0.90899 0.03615 0.0
H326 H 0.35518 0.05026 0.04111 0.0
H327 H 0.35684 0.04375 0.07294 0.0
H328 H 0.34666 0.92344 0.01502 0.0
H329 H 0.37171 0.11371 0.00555 0.0
H330 H 0.39146 0.17268 0.02034 0.0
H331 H 0.42377 0.0629 0.04413 0.0
H332 H 0.40437 0.00335 0.02931 0.0
H333 H 0.35738 0.04522 0.92431 0.0
H334 H 0.35507 0.05111 0.95614 0.0
H335 H 0.37747 0.91128 0.96116 0.0
H336 H 0.37967 0.90487 0.92958 0.0
H337 H 0.38177 0.04466 0.98212 0.0
H338 H 0.35535 0.85466 0.99361 0.0
H339 H 0.33632 0.79494 0.97846 0.0
H340 H 0.30736 0.9031 0.95032 0.0
H341 H 0.326 0.9635 0.96548 0.0
C342 C 0.37275 0.93466 0.06219 0.0
C343 C 0.3674 0.97237 0.0729 0.0
C344 C 0.37183 0.93851 0.04409 0.0
C345 C 0.36564 0.98018 0.03627 0.0
C346 C 0.3602 0.01794 0.04688 0.0
C347 C 0.3611 0.0141 0.06506 0.0
C348 C 0.36486 0.98349 0.01699 0.0
C349 C 0.35443 0.94977 0.00782 0.0
C350 C 0.37456 0.01869 0.00763 0.0
C351 C 0.38642 0.05414 0.0165 0.0
C352 C 0.38305 0.1022 0.01391 0.0
C353 C 0.39419 0.13571 0.0223 0.0
C354 C 0.40881 0.12154 0.03323 0.0
C355 C 0.41238 0.07383 0.03573 0.0
C356 C 0.4013 0.04019 0.02736 0.0
C357 C 0.36183 0.01576 0.93221 0.0
C358 C 0.36859 0.97445 0.92439 0.0
C359 C 0.36054 0.01925 0.95037 0.0
C360 C 0.36585 0.98139 0.96098 0.0
C361 C 0.37299 0.9406 0.95321 0.0
C362 C 0.37429 0.93709 0.93512 0.0
C363 C 0.36394 0.98392 0.98019 0.0
C364 C 0.3738 0.01874 0.98933 0.0
C365 C 0.35375 0.94965 0.98956 0.0
C366 C 0.3422 0.91359 0.9806 0.0
C367 C 0.34485 0.86572 0.98426 0.0
C368 C 0.33414 0.83174 0.97566 0.0
C369 C 0.32068 0.84521 0.9634 0.0
C370 C 0.31784 0.89271 0.95977 0.0
C371 C 0.32849 0.92683 0.96836 0.0
H372 H 0.31242 0.81885 0.95673 0.0
H373 H 0.41741 0.14754 0.03971 0.0
H374 H 0.63688 0.09565 0.92805 0.0
H375 H 0.63874 0.08871 0.95964 0.0
H376 H 0.66304 0.95091 0.9545 0.0
H377 H 0.661 0.95726 0.92266 0.0
H378 H 0.63636 0.9539 0.98009 0.0
H379 H 0.69071 0.04215 0.96468 0.0
H380 H 0.70841 0.1051 0.95007 0.0
H381 H 0.67701 0.20894 0.97813 0.0
H382 H 0.65892 0.14662 0.99271 0.0
H383 H 0.66023 0.95621 0.07138 0.0
H384 H 0.6621 0.95014 0.03955 0.0
H385 H 0.63865 0.08896 0.03465 0.0
H386 H 0.63694 0.09555 0.06626 0.0
H387 H 0.66859 0.07845 0.01399 0.0
H388 H 0.61233 0.99098 0.02708 0.0
H389 H 0.59404 0.92861 0.04141 0.0
H390 H 0.6289 0.8238 0.01773 0.0
H391 H 0.64756 0.88565 0.00343 0.0
C392 C 0.64262 0.06377 0.93358 0.0
C393 C 0.64891 0.02711 0.92281 0.0
C394 C 0.64373 0.05995 0.95167 0.0
C395 C 0.65131 0.01962 0.95942 0.0
C396 C 0.65723 0.98243 0.94876 0.0
C397 C 0.65609 0.98618 0.93059 0.0
C398 C 0.653 0.01682 0.97866 0.0
C399 C 0.64371 0.9806 0.98752 0.0
C400 C 0.66238 0.05204 0.98833 0.0
C401 C 0.67337 0.08967 0.97971 0.0
C402 C 0.68749 0.07841 0.96765 0.0
C403 C 0.69761 0.11399 0.95939 0.0
C404 C 0.69382 0.16099 0.96315 0.0
C405 C 0.67993 0.17251 0.97522 0.0
C406 C 0.66976 0.13707 0.98351 0.0
C407 C 0.65543 0.98537 0.06351 0.0
C408 C 0.64844 0.02636 0.07137 0.0
C409 C 0.65646 0.98179 0.04533 0.0
C410 C 0.65043 0.01904 0.03473 0.0
C411 C 0.64344 0.05986 0.04257 0.0
C412 C 0.64241 0.06348 0.06067 0.0
C413 C 0.65154 0.01624 0.01545 0.0
C414 C 0.66143 0.0514 0.00658 0.0
C415 C 0.6427 0.98009 0.0058 0.0
C416 C 0.63147 0.94293 0.01436 0.0
C417 C 0.61619 0.95465 0.02505 0.0
C418 C 0.60574 0.91939 0.03314 0.0
C419 C 0.61034 0.87228 0.03052 0.0
C420 C 0.62537 0.86032 0.01977 0.0
C421 C 0.63589 0.89545 0.01166 0.0
H422 H 0.60223 0.84503 0.0368 0.0
H423 H 0.70166 0.18848 0.95673 0.0
H424 H 0.87803 0.59742 0.56725 0.0
H425 H 0.87593 0.59132 0.53564 0.0
H426 H 0.85318 0.45174 0.54032 0.0
H427 H 0.85541 0.4573 0.57218 0.0
H428 H 0.88018 0.45854 0.51445 0.0
H429 H 0.82432 0.54026 0.53112 0.0
H430 H 0.80608 0.60117 0.54634 0.0
H431 H 0.8355 0.70857 0.51829 0.0
H432 H 0.85412 0.64833 0.50308 0.0
H433 H 0.85509 0.45907 0.42367 0.0
H434 H 0.85341 0.45272 0.4555 0.0
H435 H 0.87405 0.59436 0.46045 0.0
H436 H 0.87559 0.60119 0.42885 0.0
H437 H 0.8448 0.57965 0.48162 0.0
H438 H 0.9026 0.5018 0.4675 0.0
H439 H 0.92233 0.44357 0.45249 0.0
H440 H 0.89075 0.33172 0.47572 0.0
H441 H 0.87064 0.38944 0.4907 0.0
C442 C 0.87259 0.56532 0.56162 0.0
C443 C 0.86677 0.52793 0.57227 0.0
C444 C 0.87135 0.56198 0.54352 0.0
C445 C 0.86414 0.52135 0.53565 0.0
C446 C 0.8587 0.48347 0.54617 0.0
C447 C 0.85994 0.48677 0.56435 0.0
C448 C 0.86225 0.51906 0.51642 0.0
C449 C 0.87214 0.48441 0.50726 0.0
C450 C 0.85205 0.55342 0.50706 0.0
C451 C 0.8407 0.58974 0.51604 0.0
C452 C 0.82698 0.57687 0.52827 0.0
C453 C 0.81657 0.61128 0.53689 0.0
C454 C 0.81965 0.65871 0.53331 0.0
C455 C 0.83313 0.67182 0.52106 0.0
C456 C 0.8436 0.63755 0.51241 0.0
C457 C 0.85926 0.48884 0.43155 0.0
C458 C 0.8655 0.53061 0.42371 0.0
C459 C 0.85834 0.48511 0.44973 0.0
C460 C 0.8637 0.52301 0.46034 0.0
C461 C 0.86979 0.56474 0.45252 0.0
C462 C 0.87073 0.56848 0.43442 0.0
C463 C 0.86303 0.5197 0.47962 0.0
C464 C 0.85262 0.55332 0.4888 0.0
C465 C 0.87288 0.48468 0.48896 0.0
C466 C 0.88498 0.44992 0.48005 0.0
C467 C 0.89977 0.46479 0.4693 0.0
C468 C 0.91104 0.43188 0.46081 0.0
C469 C 0.90777 0.38395 0.4631 0.0
C470 C 0.89324 0.36886 0.47393 0.0
C471 C 0.88191 0.40166 0.48243 0.0
H472 H 0.91651 0.35852 0.45653 0.0
H473 H 0.81158 0.6853 0.54 0.0
H474 H 0.1377 0.40205 0.5678 0.0
H475 H 0.14019 0.40836 0.53624 0.0
H476 H 0.16082 0.54991 0.54136 0.0
H477 H 0.15824 0.54408 0.57319 0.0
H478 H 0.13434 0.54109 0.51519 0.0
H479 H 0.19101 0.46483 0.5321 0.0
H480 H 0.21042 0.40625 0.54737 0.0
H481 H 0.18309 0.29536 0.51922 0.0
H482 H 0.1633 0.35323 0.50396 0.0
H483 H 0.15865 0.54095 0.42429 0.0
H484 H 0.16076 0.54786 0.45609 0.0
H485 H 0.14168 0.40501 0.46144 0.0
H486 H 0.13971 0.39764 0.42985 0.0
H487 H 0.17101 0.42232 0.48252 0.0
H488 H 0.11225 0.4971 0.46816 0.0
H489 H 0.09207 0.55471 0.45322 0.0
H490 H 0.12302 0.66759 0.47668 0.0
H491 H 0.14355 0.61057 0.49157 0.0
C492 C 0.14276 0.43463 0.56229 0.0
C493 C 0.14787 0.4725 0.57306 0.0
C494 C 0.14424 0.43809 0.54421 0.0
C495 C 0.15095 0.47934 0.53647 0.0
C496 C 0.15569 0.51767 0.5471 0.0
C497 C 0.15424 0.51423 0.56527 0.0
C498 C 0.15294 0.4819 0.51725 0.0
C499 C 0.14265 0.51575 0.50803 0.0
C500 C 0.16358 0.44835 0.50793 0.0
C501 C 0.17558 0.4134 0.51697 0.0
C502 C 0.18904 0.42794 0.52925 0.0
C503 C 0.20013 0.39485 0.53789 0.0
C504 C 0.19797 0.34711 0.53429 0.0
C505 C 0.18474 0.33235 0.522 0.0
C506 C 0.1736 0.36529 0.51334 0.0
C507 C 0.15494 0.51101 0.43225 0.0
C508 C 0.14897 0.46878 0.42451 0.0
C509 C 0.15609 0.51507 0.45041 0.0
C510 C 0.15125 0.47703 0.46114 0.0
C511 C 0.14551 0.43478 0.45342 0.0
C512 C 0.14432 0.43071 0.43533 0.0
C513 C 0.15205 0.48079 0.48043 0.0
C514 C 0.1629 0.44811 0.48966 0.0
C515 C 0.14191 0.51533 0.48973 0.0
C516 C 0.12957 0.5496 0.4808 0.0
C517 C 0.11485 0.53421 0.47 0.0
C518 C 0.10333 0.56675 0.46157 0.0
C519 C 0.1063 0.61478 0.46395 0.0
C520 C 0.12076 0.63037 0.47481 0.0
C521 C 0.13234 0.59796 0.48326 0.0
H522 H 0.09736 0.63992 0.45742 0.0
H523 H 0.20656 0.32155 0.541 0.0
H524 H 0.88499 0.4073 0.92859 0.0
H525 H 0.88346 0.41348 0.96022 0.0
H526 H 0.85264 0.54302 0.95563 0.0
H527 H 0.85445 0.53763 0.92377 0.0
H528 H 0.87896 0.54848 0.98099 0.0
H529 H 0.83014 0.44033 0.96544 0.0
H530 H 0.81647 0.37073 0.95116 0.0
H531 H 0.85389 0.28131 0.97977 0.0
H532 H 0.86797 0.35041 0.99404 0.0
H533 H 0.85456 0.54019 0.07197 0.0
H534 H 0.85335 0.5455 0.0401 0.0
H535 H 0.88285 0.41388 0.03612 0.0
H536 H 0.8838 0.40787 0.06776 0.0
H537 H 0.8538 0.41453 0.01492 0.0
H538 H 0.90443 0.52063 0.02846 0.0
H539 H 0.91915 0.58893 0.04271 0.0
H540 H 0.87942 0.68062 0.01807 0.0
H541 H 0.86431 0.61274 0.00384 0.0
C542 C 0.87788 0.43719 0.93425 0.0
C543 C 0.86971 0.4718 0.92364 0.0
C544 C 0.87696 0.44056 0.95237 0.0
C545 C 0.86762 0.47823 0.96029 0.0
C546 C 0.85982 0.51351 0.94977 0.0
C547 C 0.86084 0.51032 0.93158 0.0
C548 C 0.86601 0.48031 0.97956 0.0
C549 C 0.87315 0.51957 0.98842 0.0
C550 C 0.85872 0.44224 0.98926 0.0
C551 C 0.85019 0.40061 0.98073 0.0
C552 C 0.83554 0.40585 0.9686 0.0
C553 C 0.8277 0.36647 0.96052 0.0
C554 C 0.83433 0.32163 0.96454 0.0
C555 C 0.84878 0.31607 0.97667 0.0
C556 C 0.85667 0.35532 0.98477 0.0
C557 C 0.86085 0.51251 0.06429 0.0
C558 C 0.86924 0.47356 0.07241 0.0
C559 C 0.8602 0.51567 0.04608 0.0
C560 C 0.8681 0.48019 0.03571 0.0
C561 C 0.8766 0.44158 0.04383 0.0
C562 C 0.87717 0.43827 0.06196 0.0
C563 C 0.86718 0.48214 0.01639 0.0
C564 C 0.85945 0.44367 0.00751 0.0
C565 C 0.87404 0.52076 0.00672 0.0
C566 C 0.88311 0.56157 0.01526 0.0
C567 C 0.89874 0.55532 0.0262 0.0
C568 C 0.90717 0.59396 0.03425 0.0
C569 C 0.90019 0.63907 0.03134 0.0
C570 C 0.88479 0.64565 0.02034 0.0
C571 C 0.87629 0.60711 0.01227 0.0
H572 H 0.90674 0.66895 0.03758 0.0
H573 H 0.82826 0.29115 0.95831 0.0
H574 H 0.12681 0.57726 0.06779 0.0
H575 H 0.12769 0.56728 0.03616 0.0
H576 H 0.16934 0.4588 0.04175 0.0
H577 H 0.1683 0.46796 0.07357 0.0
H578 H 0.178 0.53 0.01634 0.0
H579 H 0.12956 0.42331 0.03087 0.0
H580 H 0.10058 0.39486 0.04469 0.0
H581 H 0.06868 0.49859 0.017 0.0
H582 H 0.09754 0.5283 0.00325 0.0
H583 H 0.16973 0.46904 0.92518 0.0
H584 H 0.17036 0.46167 0.95708 0.0
H585 H 0.1289 0.57101 0.96128 0.0
H586 H 0.12843 0.57921 0.92956 0.0
H587 H 0.12144 0.48902 0.98182 0.0
H588 H 0.17075 0.60003 0.96975 0.0
H589 H 0.19994 0.62844 0.9563 0.0
H590 H 0.23037 0.51447 0.97951 0.0
H591 H 0.20125 0.48499 0.99292 0.0
C592 C 0.13613 0.55116 0.06232 0.0
C593 C 0.1475 0.52338 0.07316 0.0
C594 C 0.13655 0.54539 0.04425 0.0
C595 C 0.14852 0.51218 0.03666 0.0
C596 C 0.15999 0.48454 0.0474 0.0
C597 C 0.15933 0.48971 0.06554 0.0
C598 C 0.14923 0.50752 0.01745 0.0
C599 C 0.16576 0.52006 0.00878 0.0
C600 C 0.13315 0.49532 0.00765 0.0
C601 C 0.11576 0.47832 0.01614 0.0
C602 C 0.1164 0.44047 0.02789 0.0
C603 C 0.09999 0.42402 0.03568 0.0
C604 C 0.08281 0.44492 0.03175 0.0
C605 C 0.08201 0.48244 0.02005 0.0
C606 C 0.09839 0.4991 0.01224 0.0
C607 C 0.16073 0.49141 0.93292 0.0
C608 C 0.14906 0.52478 0.92489 0.0
C609 C 0.16115 0.48724 0.9511 0.0
C610 C 0.1497 0.51586 0.96148 0.0
C611 C 0.13782 0.54858 0.95347 0.0
C612 C 0.13763 0.55333 0.93536 0.0
C613 C 0.1501 0.51223 0.98073 0.0
C614 C 0.13375 0.49824 0.98939 0.0
C615 C 0.16636 0.52294 0.99051 0.0
C616 C 0.18378 0.53995 0.98214 0.0
C617 C 0.18361 0.58066 0.97179 0.0
C618 C 0.20016 0.59704 0.96422 0.0
C619 C 0.21699 0.5732 0.96701 0.0
C620 C 0.21731 0.53284 0.97734 0.0
C621 C 0.20079 0.51629 0.98493 0.0
H622 H 0.22981 0.58615 0.96127 0.0
H623 H 0.07012 0.43186 0.03771 0.0
H624 H 0.58937 0.02367 0.36969 0.0
H625 H 0.55643 0.04605 0.37003 0.0
H626 H 0.54048 0.90026 0.37263 0.0
H627 H 0.57354 0.87739 0.37199 0.0
H628 H 0.51901 0.94706 0.34972 0.0
H629 H 0.53922 0.97138 0.40886 0.0
H630 H 0.55933 0.00319 0.43222 0.0
H631 H 0.5455 0.14355 0.41654 0.0
H632 H 0.52551 0.1126 0.39292 0.0
H633 H 0.42467 0.97989 0.37443 0.0
H634 H 0.45773 0.95868 0.37394 0.0
H635 H 0.47285 0.10495 0.37094 0.0
H636 H 0.43965 0.12667 0.37168 0.0
H637 H 0.49478 0.0587 0.3939 0.0
H638 H 0.47474 0.03533 0.33495 0.0
H639 H 0.4546 0.00448 0.31143 0.0
H640 H 0.46821 0.86348 0.32649 0.0
H641 H 0.48823 0.8935 0.35027 0.0
C642 C 0.57889 0.99625 0.37034 0.0
C643 C 0.58413 0.94868 0.3709 0.0
C644 C 0.56003 0.00918 0.37061 0.0
C645 C 0.54596 0.9749 0.37163 0.0
C646 C 0.5511 0.92733 0.37191 0.0
C647 C 0.57001 0.91432 0.37157 0.0
C648 C 0.5259 0.9888 0.37225 0.0
C649 C 0.51366 0.97093 0.35954 0.0
C650 C 0.51901 0.021 0.38477 0.0
C651 C 0.531 0.03965 0.39901 0.0
C652 C 0.54058 0.00903 0.4103 0.0
C653 C 0.55194 0.02691 0.42361 0.0
C654 C 0.55372 0.07536 0.42584 0.0
C655 C 0.54412 0.10603 0.41479 0.0
C656 C 0.53276 0.08834 0.40145 0.0
C657 C 0.43498 0.00768 0.37366 0.0
C658 C 0.42947 0.05504 0.37301 0.0
C659 C 0.45391 0.99542 0.37331 0.0
C660 C 0.46778 0.03016 0.37215 0.0
C661 C 0.46238 0.07754 0.37178 0.0
C662 C 0.4434 0.08989 0.37216 0.0
C663 C 0.48789 0.01685 0.37142 0.0
C664 C 0.50014 0.03483 0.38409 0.0
C665 C 0.4948 0.98485 0.35885 0.0
C666 C 0.48285 0.96668 0.3445 0.0
C667 C 0.47332 0.99774 0.33333 0.0
C668 C 0.46195 0.9804 0.31994 0.0
C669 C 0.46009 0.93205 0.3175 0.0
C670 C 0.46965 0.90093 0.32842 0.0
C671 C 0.48102 0.91809 0.34184 0.0
H672 H 0.45128 0.9187 0.30712 0.0
H673 H 0.56249 0.08918 0.43615 0.0
H674 H 0.44145 0.87497 0.12728 0.0
H675 H 0.47454 0.89763 0.12744 0.0
H676 H 0.45884 0.04299 0.12208 0.0
H677 H 0.42582 0.02074 0.12177 0.0
H678 H 0.48712 0.02082 0.10034 0.0
H679 H 0.47315 0.00053 0.16101 0.0
H680 H 0.46165 0.95837 0.18692 0.0
H681 H 0.50271 0.85052 0.17891 0.0
H682 H 0.51429 0.89174 0.15278 0.0
H683 H 0.57503 0.12395 0.12181 0.0
H684 H 0.54197 0.10108 0.12222 0.0
H685 H 0.55791 0.95572 0.12688 0.0
H686 H 0.59092 0.97818 0.12658 0.0
H687 H 0.52956 0.9777 0.14906 0.0
H688 H 0.54343 0.99806 0.08834 0.0
H689 H 0.55486 0.04029 0.06241 0.0
H690 H 0.51386 0.1482 0.07059 0.0
H691 H 0.50235 0.10692 0.09673 0.0
C692 C 0.44504 0.91176 0.12613 0.0
C693 C 0.43096 0.94602 0.12455 0.0
C694 C 0.46396 0.92468 0.1263 0.0
C695 C 0.46917 0.97208 0.12492 0.0
C696 C 0.45516 0.00623 0.12316 0.0
C697 C 0.43627 0.9934 0.12304 0.0
C698 C 0.48921 0.98621 0.12522 0.0
C699 C 0.49633 0.01191 0.1111 0.0
C700 C 0.50135 0.97376 0.13909 0.0
C701 C 0.49446 0.94898 0.15483 0.0
C702 C 0.47962 0.96762 0.16468 0.0
C703 C 0.47311 0.94394 0.17943 0.0
C704 C 0.4814 0.90173 0.18453 0.0
C705 C 0.49627 0.88319 0.17492 0.0
C706 C 0.50283 0.90672 0.16015 0.0
C707 C 0.57151 0.08713 0.12295 0.0
C708 C 0.58565 0.05291 0.12409 0.0
C709 C 0.5526 0.07409 0.12313 0.0
C710 C 0.54747 0.02663 0.12444 0.0
C711 C 0.56154 0.99252 0.12586 0.0
C712 C 0.58042 0.00547 0.12561 0.0
C713 C 0.52744 0.01238 0.12419 0.0
C714 C 0.52033 0.98663 0.13831 0.0
C715 C 0.5153 0.02481 0.11033 0.0
C716 C 0.52216 0.04965 0.0946 0.0
C717 C 0.53696 0.031 0.08469 0.0
C718 C 0.54343 0.05473 0.06995 0.0
C719 C 0.53513 0.09697 0.06489 0.0
C720 C 0.5203 0.11551 0.07454 0.0
C721 C 0.51379 0.09195 0.08932 0.0
H722 H 0.54016 0.11528 0.05346 0.0
H723 H 0.47634 0.88345 0.19595 0.0
H724 H 0.58938 0.02018 0.6235 0.0
H725 H 0.55639 0.0422 0.62401 0.0
H726 H 0.54061 0.89618 0.62292 0.0
H727 H 0.57374 0.87368 0.62224 0.0
H728 H 0.51959 0.94832 0.60043 0.0
H729 H 0.53803 0.9577 0.66044 0.0
H730 H 0.55762 0.98277 0.68527 0.0
H731 H 0.54489 0.12695 0.67424 0.0
H732 H 0.52542 0.10277 0.64918 0.0
H733 H 0.42456 0.97836 0.62388 0.0
H734 H 0.45754 0.95613 0.62357 0.0
H735 H 0.47345 0.10203 0.62518 0.0
H736 H 0.44035 0.12472 0.6257 0.0
H737 H 0.49441 0.04984 0.64744 0.0
H738 H 0.47609 0.04072 0.58742 0.0
H739 H 0.45652 0.01589 0.56255 0.0
H740 H 0.46909 0.87158 0.5735 0.0
H741 H 0.48853 0.89552 0.59861 0.0
C742 C 0.57894 0.99262 0.62337 0.0
C743 C 0.58424 0.94509 0.62289 0.0
C744 C 0.56005 0.00533 0.62373 0.0
C745 C 0.54602 0.97086 0.62372 0.0
C746 C 0.55122 0.92337 0.62299 0.0
C747 C 0.57015 0.91057 0.62265 0.0
C748 C 0.52595 0.98456 0.62436 0.0
C749 C 0.51402 0.96994 0.61085 0.0
C750 C 0.51878 0.01378 0.63772 0.0
C751 C 0.53041 0.02843 0.65283 0.0
C752 C 0.53952 0.99478 0.66323 0.0
C753 C 0.55058 0.00882 0.67735 0.0
C754 C 0.55254 0.05643 0.6813 0.0
C755 C 0.54338 0.09009 0.67115 0.0
C756 C 0.53232 0.07623 0.657 0.0
C757 C 0.43504 0.00584 0.62417 0.0
C758 C 0.42978 0.0534 0.62474 0.0
C759 C 0.45391 0.99302 0.62392 0.0
C760 C 0.46798 0.0274 0.62412 0.0
C761 C 0.46283 0.0749 0.62497 0.0
C762 C 0.4439 0.08782 0.62522 0.0
C763 C 0.48805 0.0136 0.62351 0.0
C764 C 0.49998 0.02821 0.63703 0.0
C765 C 0.49522 0.98441 0.61015 0.0
C766 C 0.48362 0.9699 0.595 0.0
C767 C 0.47457 0.00367 0.58461 0.0
C768 C 0.46352 0.98976 0.57046 0.0
C769 C 0.46153 0.94218 0.56647 0.0
C770 C 0.47063 0.90842 0.57661 0.0
C771 C 0.48168 0.92214 0.5908 0.0
H772 H 0.45296 0.93148 0.55551 0.0
H773 H 0.56111 0.06723 0.69225 0.0
H774 H 0.59079 0.9821 0.86675 0.0
H775 H 0.55766 0.96099 0.8664 0.0
H776 H 0.54266 0.10628 0.87346 0.0
H777 H 0.5759 0.12784 0.87387 0.0
H778 H 0.52293 0.04837 0.89515 0.0
H779 H 0.53645 0.05688 0.83428 0.0
H780 H 0.55361 0.04057 0.80712 0.0
H781 H 0.54263 0.89328 0.81292 0.0
H782 H 0.52547 0.90874 0.84022 0.0
H783 H 0.42634 0.02328 0.87523 0.0
H784 H 0.45929 0.04598 0.87475 0.0
H785 H 0.47525 0.90114 0.86825 0.0
H786 H 0.44219 0.87799 0.86862 0.0
H787 H 0.49439 0.95983 0.8461 0.0
H788 H 0.48028 0.95295 0.90721 0.0
H789 H 0.46243 0.97128 0.93384 0.0
H790 H 0.47432 0.11785 0.92721 0.0
H791 H 0.49202 0.10046 0.90039 0.0
C792 C 0.58048 0.00968 0.8682 0.0
C793 C 0.58602 0.05672 0.87033 0.0
C794 C 0.56152 0.99753 0.86791 0.0
C795 C 0.54768 0.03209 0.86975 0.0
C796 C 0.55312 0.07906 0.87199 0.0
C797 C 0.57212 0.09133 0.87217 0.0
C798 C 0.52755 0.01885 0.86968 0.0
C799 C 0.51661 0.02963 0.88432 0.0
C800 C 0.51941 0.99348 0.85571 0.0
C801 C 0.52984 0.98392 0.83938 0.0
C802 C 0.53784 0.02096 0.82985 0.0
C803 C 0.54753 0.01188 0.8144 0.0
C804 C 0.54928 0.96588 0.80832 0.0
C805 C 0.54128 0.92888 0.81766 0.0
C806 C 0.53154 0.9378 0.8331 0.0
C807 C 0.43682 0.99614 0.87371 0.0
C808 C 0.4316 0.94874 0.87202 0.0
C809 C 0.45568 0.00921 0.8735 0.0
C810 C 0.46975 0.97522 0.87164 0.0
C811 C 0.46461 0.92793 0.86973 0.0
C812 C 0.44572 0.91475 0.87001 0.0
C813 C 0.48979 0.98922 0.8716 0.0
C814 C 0.50071 0.97856 0.85694 0.0
C815 C 0.49788 0.0149 0.88552 0.0
C816 C 0.48732 0.02543 0.9017 0.0
C817 C 0.47896 0.98913 0.91135 0.0
C818 C 0.46889 0.99935 0.9265 0.0
C819 C 0.4672 0.04571 0.93219 0.0
C820 C 0.47562 0.08196 0.92277 0.0
C821 C 0.48569 0.07193 0.90761 0.0
H822 H 0.4594 0.05355 0.94392 0.0
H823 H 0.55677 0.9589 0.79635 0.0
H824 H 0.92416 0.48113 0.37022 0.0
H825 H 0.95701 0.458 0.37116 0.0
H826 H 0.97325 0.60275 0.37768 0.0
H827 H 0.94029 0.62641 0.37634 0.0
H828 H 0.99546 0.56078 0.35488 0.0
H829 H 0.97321 0.52425 0.41218 0.0
H830 H 0.95223 0.48843 0.43395 0.0
H831 H 0.9661 0.35121 0.41483 0.0
H832 H 0.98694 0.38623 0.39277 0.0
H833 H 0.08909 0.51744 0.37969 0.0
H834 H 0.05621 0.54044 0.38032 0.0
H835 H 0.03975 0.39665 0.37176 0.0
H836 H 0.07276 0.37305 0.37146 0.0
H837 H 0.01776 0.43842 0.39596 0.0
H838 H 0.04002 0.476 0.33855 0.0
H839 H 0.06181 0.51235 0.31769 0.0
H840 H 0.04805 0.6489 0.33753 0.0
H841 H 0.02646 0.61323 0.35882 0.0
C842 C 0.93469 0.50815 0.37187 0.0
C843 C 0.92957 0.55566 0.37328 0.0
C844 C 0.95349 0.49479 0.37249 0.0
C845 C 0.96762 0.52851 0.37479 0.0
C846 C 0.96259 0.57607 0.37597 0.0
C847 C 0.94374 0.58954 0.37523 0.0
C848 C 0.98762 0.51412 0.3757 0.0
C849 C 1.00037 0.53453 0.36404 0.0
C850 C 0.99399 0.47906 0.38739 0.0
C851 C 0.98151 0.45791 0.40071 0.0
C852 C 0.97168 0.48645 0.41253 0.0
C853 C 0.95983 0.46629 0.42493 0.0
C854 C 0.95781 0.41758 0.42574 0.0
C855 C 0.96766 0.38894 0.41417 0.0
C856 C 0.97951 0.40892 0.40173 0.0
C857 C 0.07851 0.49058 0.37797 0.0
C858 C 0.08359 0.4434 0.37538 0.0
C859 C 0.05969 0.50386 0.37829 0.0
C860 C 0.04551 0.47041 0.37581 0.0
C861 C 0.05047 0.42309 0.37364 0.0
C862 C 0.06934 0.40968 0.37342 0.0
C863 C 0.02553 0.48509 0.37514 0.0
C864 C 0.01281 0.46471 0.38682 0.0
C865 C 0.01918 0.52028 0.36352 0.0
C866 C 0.03175 0.54189 0.35039 0.0
C867 C 0.04171 0.51376 0.33854 0.0
C868 C 0.05403 0.53426 0.32663 0.0
C869 C 0.05634 0.58293 0.3263 0.0
C870 C 0.04626 0.61121 0.33782 0.0
C871 C 0.03398 0.59087 0.34981 0.0
H872 H 0.06594 0.59876 0.31712 0.0
H873 H 0.94865 0.40201 0.43536 0.0
H874 H 0.08933 0.48378 0.11672 0.0
H875 H 0.05614 0.46292 0.11702 0.0
H876 H 0.04202 0.60404 0.13239 0.0
H877 H 0.0753 0.62543 0.13199 0.0
H878 H 0.02352 0.53603 0.15202 0.0
H879 H 0.03311 0.57444 0.0926 0.0
H880 H 0.04806 0.57352 0.06368 0.0
H881 H 0.03697 0.42602 0.05898 0.0
H882 H 0.02215 0.42589 0.08803 0.0
H883 H 0.92555 0.51982 0.13328 0.0
H884 H 0.95857 0.54253 0.13385 0.0
H885 H 0.97441 0.40147 0.11995 0.0
H886 H 0.94134 0.37823 0.11949 0.0
H887 H 0.99184 0.47128 0.09963 0.0
H888 H 0.98133 0.4362 0.16015 0.0
H889 H 0.96578 0.44186 0.18875 0.0
H890 H 0.97779 0.58935 0.19076 0.0
H891 H 0.99319 0.58473 0.16204 0.0
C892 C 0.07919 0.51046 0.12015 0.0
C893 C 0.08496 0.55631 0.12432 0.0
C894 C 0.06021 0.49849 0.12025 0.0
C895 C 0.04661 0.53198 0.12464 0.0
C896 C 0.0523 0.57769 0.12896 0.0
C897 C 0.0713 0.58988 0.12866 0.0
C898 C 0.02648 0.5189 0.12483 0.0
C899 C 0.0165 0.52249 0.14051 0.0
C900 C 0.01744 0.50057 0.10988 0.0
C901 C 0.02669 0.50007 0.09257 0.0
C902 C 0.03405 0.54167 0.0855 0.0
C903 C 0.04245 0.54138 0.06906 0.0
C904 C 0.04347 0.49975 0.05952 0.0
C905 C 0.03616 0.45824 0.06641 0.0
C906 C 0.02775 0.45834 0.08285 0.0
C907 C 0.93605 0.49352 0.1304 0.0
C908 C 0.93082 0.44719 0.12632 0.0
C909 C 0.95492 0.50655 0.13081 0.0
C910 C 0.96894 0.47364 0.12703 0.0
C911 C 0.96379 0.42737 0.12293 0.0
C912 C 0.94491 0.41413 0.12273 0.0
C913 C 0.98892 0.48796 0.12686 0.0
C914 C 0.99887 0.4847 0.11115 0.0
C915 C 0.99784 0.50716 0.14175 0.0
C916 C 0.98827 0.51018 0.15886 0.0
C917 C 0.98048 0.46995 0.16659 0.0
C918 C 0.97174 0.47294 0.18285 0.0
C919 C 0.97082 0.51592 0.19156 0.0
C920 C 0.97854 0.55607 0.184 0.0
C921 C 0.98728 0.55328 0.16774 0.0
H922 H 0.96419 0.5181 0.20421 0.0
H923 H 0.04982 0.49978 0.04673 0.0
H924 H 0.92484 0.47911 0.62439 0.0
H925 H 0.95784 0.45708 0.62474 0.0
H926 H 0.97359 0.60315 0.62542 0.0
H927 H 0.94047 0.62565 0.62486 0.0
H928 H 0.99452 0.55401 0.60245 0.0
H929 H 0.97708 0.53774 0.66238 0.0
H930 H 0.95791 0.51039 0.68704 0.0
H931 H 0.96933 0.36725 0.67325 0.0
H932 H 0.98851 0.39379 0.64841 0.0
H933 H 0.08973 0.52067 0.62521 0.0
H934 H 0.05677 0.54313 0.62526 0.0
H935 H 0.04071 0.39727 0.62448 0.0
H936 H 0.07378 0.37433 0.62468 0.0
H937 H 0.01996 0.44661 0.64754 0.0
H938 H 0.03807 0.464 0.58768 0.0
H939 H 0.05756 0.49254 0.5634 0.0
H940 H 0.04491 0.63496 0.57729 0.0
H941 H 0.02554 0.60727 0.60182 0.0
C942 C 0.93528 0.50667 0.62464 0.0
C943 C 0.92998 0.55421 0.62464 0.0
C944 C 0.95417 0.49396 0.62492 0.0
C945 C 0.9682 0.52843 0.62532 0.0
C946 C 0.963 0.57595 0.62515 0.0
C947 C 0.94406 0.58874 0.62488 0.0
C948 C 0.98829 0.51472 0.62569 0.0
C949 C 1.00015 0.53108 0.61245 0.0
C950 C 0.99555 0.4839 0.6385 0.0
C951 C 0.98408 0.46776 0.65344 0.0
C952 C 0.97539 0.50043 0.66453 0.0
C953 C 0.96454 0.48507 0.67855 0.0
C954 C 0.96232 0.43711 0.68167 0.0
C955 C 0.97103 0.40439 0.6708 0.0
C956 C 0.98193 0.41957 0.65677 0.0
C957 C 0.07922 0.49325 0.62504 0.0
C958 C 0.08443 0.44564 0.62487 0.0
C959 C 0.06036 0.50621 0.62499 0.0
C960 C 0.04625 0.47192 0.62463 0.0
C961 C 0.05136 0.42434 0.62471 0.0
C962 C 0.07027 0.41129 0.62478 0.0
C963 C 0.02619 0.48586 0.62429 0.0
C964 C 0.01433 0.46952 0.63753 0.0
C965 C 0.01895 0.51681 0.6115 0.0
C966 C 0.03049 0.53355 0.59669 0.0
C967 C 0.03955 0.50141 0.58564 0.0
C968 C 0.05056 0.51743 0.57182 0.0
C969 C 0.05251 0.56553 0.56883 0.0
C970 C 0.0434 0.59771 0.57963 0.0
C971 C 0.03239 0.58187 0.59349 0.0
H972 H 0.06104 0.57787 0.55812 0.0
H973 H 0.9539 0.4253 0.69253 0.0
H974 H 0.09176 0.47801 0.8728 0.0
H975 H 0.05871 0.45631 0.87212 0.0
H976 H 0.04324 0.60253 0.87151 0.0
H977 H 0.07639 0.62471 0.87238 0.0
H978 H 0.02197 0.55298 0.89423 0.0
H979 H 0.04069 0.53781 0.83463 0.0
H980 H 0.06048 0.51044 0.81037 0.0
H981 H 0.04748 0.3674 0.82303 0.0
H982 H 0.02782 0.3939 0.84754 0.0
H983 H 0.92692 0.52055 0.87098 0.0
H984 H 0.95988 0.54298 0.87087 0.0
H985 H 0.97588 0.3971 0.87127 0.0
H986 H 0.94279 0.3742 0.87114 0.0
H987 H 0.99686 0.44705 0.84844 0.0
H988 H 0.97829 0.46277 0.90829 0.0
H989 H 0.95859 0.49068 0.93253 0.0
H990 H 0.97134 0.63346 0.91926 0.0
H991 H 0.99092 0.60641 0.89477 0.0
C992 C 0.08136 0.50567 0.87251 0.0
C993 C 0.08675 0.55316 0.87259 0.0
C994 C 0.06245 0.49314 0.87205 0.0
C995 C 0.04849 0.52777 0.87155 0.0
C996 C 0.05378 0.57523 0.87185 0.0
C997 C 0.07274 0.58783 0.8723 0.0
C998 C 0.02839 0.51428 0.87089 0.0
C999 C 0.01642 0.53038 0.88408 0.0
C1000 C 0.02124 0.48391 0.85786 0.0
C1001 C 0.03292 0.46784 0.84303 0.0
C1002 C 0.04216 0.5005 0.83232 0.0
C1003 C 0.05334 0.48515 0.81851 0.0
C1004 C 0.05528 0.43721 0.81519 0.0
C1005 C 0.04599 0.40452 0.82563 0.0
C1006 C 0.03481 0.41969 0.83948 0.0
C1007 C 0.93741 0.49312 0.87105 0.0
C1008 C 0.93218 0.44551 0.87116 0.0
C1009 C 0.95628 0.50606 0.87104 0.0
C1010 C 0.97037 0.47176 0.8713 0.0
C1011 C 0.96524 0.42418 0.87112 0.0
C1012 C 0.94632 0.41115 0.8711 0.0
C1013 C 0.99044 0.48569 0.87181 0.0
C1014 C 1.00241 0.46967 0.85859 0.0
C1015 C 0.99759 0.51622 0.8848 0.0
C1016 C 0.98593 0.53256 0.89959 0.0
C1017 C 0.97678 0.50013 0.91046 0.0
C1018 C 0.96566 0.51579 0.92426 0.0
C1019 C 0.96368 0.56381 0.92741 0.0
C1020 C 0.97287 0.59627 0.91679 0.0
C1021 C 0.984 0.5808 0.90296 0.0
H1022 H 0.95505 0.57587 0.9381 0.0
H1023 H 0.06395 0.42539 0.80449 0.0
H1024 H 0.1731 0.27104 0.374 0.0
H1025 H 0.20317 0.22981 0.37355 0.0
H1026 H 0.23212 0.36191 0.36857 0.0
H1027 H 0.20219 0.40337 0.3689 0.0
H1028 H 0.24625 0.29559 0.34647 0.0
H1029 H 0.23046 0.30715 0.40734 0.0
H1030 H 0.21033 0.29687 0.43314 0.0
H1031 H 0.21017 0.14775 0.42519 0.0
H1032 H 0.2301 0.15721 0.39918 0.0
H1033 H 0.33828 0.22222 0.36951 0.0
H1034 H 0.30778 0.26142 0.36873 0.0
H1035 H 0.28009 0.12792 0.37466 0.0
H1036 H 0.31044 0.08851 0.37555 0.0
H1037 H 0.26503 0.19354 0.39588 0.0
H1038 H 0.28076 0.18038 0.33554 0.0
H1039 H 0.30053 0.189 0.30942 0.0
H1040 H 0.30045 0.33865 0.31586 0.0
H1041 H 0.28086 0.33087 0.34216 0.0
C1042 C 0.18586 0.29133 0.37277 0.0
C1043 C 0.18522 0.34055 0.37156 0.0
C1044 C 0.20304 0.26771 0.37256 0.0
C1045 C 0.21991 0.29283 0.37118 0.0
C1046 C 0.21929 0.34184 0.36965 0.0
C1047 C 0.20214 0.36548 0.36992 0.0
C1048 C 0.23823 0.26817 0.37152 0.0
C1049 C 0.25046 0.27373 0.35736 0.0
C1050 C 0.24353 0.2387 0.38554 0.0
C1051 C 0.23161 0.23294 0.40121 0.0
C1052 C 0.22601 0.2722 0.41101 0.0
C1053 C 0.21465 0.26652 0.42568 0.0
C1054 C 0.20893 0.2217 0.43077 0.0
C1055 C 0.21459 0.18245 0.42122 0.0
C1056 C 0.22592 0.18795 0.40652 0.0
C1057 C 0.3257 0.20119 0.37066 0.0
C1058 C 0.32682 0.1522 0.37256 0.0
C1059 C 0.30828 0.22363 0.37013 0.0
C1060 C 0.29165 0.19754 0.37148 0.0
C1061 C 0.29273 0.14874 0.37358 0.0
C1062 C 0.31012 0.12627 0.37404 0.0
C1063 C 0.2731 0.22112 0.37086 0.0
C1064 C 0.26083 0.21535 0.38497 0.0
C1065 C 0.26773 0.25016 0.35675 0.0
C1066 C 0.2795 0.25501 0.34093 0.0
C1067 C 0.28509 0.21511 0.33148 0.0
C1068 C 0.29623 0.21984 0.31662 0.0
C1069 C 0.30178 0.26434 0.31101 0.0
C1070 C 0.29616 0.3042 0.32023 0.0
C1071 C 0.28502 0.29965 0.3351 0.0
H1072 H 0.31041 0.26794 0.2995 0.0
H1073 H 0.20014 0.21737 0.44214 0.0
H1074 H 0.67434 0.77751 0.36972 0.0
H1075 H 0.7046 0.73724 0.36976 0.0
H1076 H 0.733 0.87042 0.3738 0.0
H1077 H 0.7029 0.91092 0.37348 0.0
H1078 H 0.74971 0.816 0.35027 0.0
H1079 H 0.72826 0.79775 0.4092 0.0
H1080 H 0.70605 0.77523 0.43231 0.0
H1081 H 0.70775 0.63211 0.41489 0.0
H1082 H 0.72979 0.65392 0.39152 0.0
H1083 H 0.83985 0.72872 0.37353 0.0
H1084 H 0.80967 0.76942 0.37342 0.0
H1085 H 0.78098 0.63656 0.36976 0.0
H1086 H 0.81098 0.59566 0.37018 0.0
H1087 H 0.76445 0.69109 0.39315 0.0
H1088 H 0.78583 0.7093 0.33418 0.0
H1089 H 0.80802 0.73177 0.31105 0.0
H1090 H 0.80643 0.87487 0.32849 0.0
H1091 H 0.78441 0.85312 0.35189 0.0
C1092 C 0.68702 0.79823 0.37063 0.0
C1093 C 0.68616 0.84745 0.37164 0.0
C1094 C 0.70432 0.77514 0.37072 0.0
C1095 C 0.72109 0.80078 0.37197 0.0
C1096 C 0.72026 0.84989 0.37283 0.0
C1097 C 0.70301 0.87298 0.3727 0.0
C1098 C 0.73953 0.77657 0.37225 0.0
C1099 C 0.75302 0.78911 0.35979 0.0
C1100 C 0.74374 0.74077 0.38443 0.0
C1101 C 0.73053 0.72756 0.39851 0.0
C1102 C 0.72379 0.76155 0.41022 0.0
C1103 C 0.71125 0.7489 0.42337 0.0
C1104 C 0.70546 0.70229 0.42504 0.0
C1105 C 0.71223 0.66821 0.41357 0.0
C1106 C 0.72476 0.68069 0.40038 0.0
C1107 C 0.82712 0.70817 0.37267 0.0
C1108 C 0.82786 0.65892 0.37183 0.0
C1109 C 0.80987 0.7315 0.37254 0.0
C1110 C 0.79303 0.70607 0.3714 0.0
C1111 C 0.79376 0.65693 0.37066 0.0
C1112 C 0.81096 0.63361 0.37085 0.0
C1113 C 0.77463 0.73047 0.37115 0.0
C1114 C 0.76115 0.71799 0.38362 0.0
C1115 C 0.77043 0.7663 0.35898 0.0
C1116 C 0.78362 0.77948 0.34489 0.0
C1117 C 0.79033 0.74549 0.33317 0.0
C1118 C 0.80285 0.75811 0.31999 0.0
C1119 C 0.80867 0.8047 0.31833 0.0
C1120 C 0.80193 0.83879 0.32981 0.0
C1121 C 0.78942 0.82634 0.34302 0.0
H1122 H 0.81836 0.8144 0.30812 0.0
H1123 H 0.69575 0.69257 0.43524 0.0
H1124 H 0.17543 0.72527 0.12504 0.0
H1125 H 0.2057 0.76558 0.12514 0.0
H1126 H 0.23412 0.63231 0.12224 0.0
H1127 H 0.204 0.59177 0.12243 0.0
H1128 H 0.25064 0.68758 0.1456 0.0
H1129 H 0.22973 0.70388 0.08634 0.0
H1130 H 0.20774 0.7256 0.06287 0.0
H1131 H 0.20926 0.86927 0.07967 0.0
H1132 H 0.23108 0.84828 0.1034 0.0
H1133 H 0.34097 0.77426 0.12309 0.0
H1134 H 0.31078 0.73358 0.12297 0.0
H1135 H 0.2821 0.86654 0.12568 0.0
H1136 H 0.31213 0.90743 0.12548 0.0
H1137 H 0.26575 0.81118 0.10236 0.0
H1138 H 0.28662 0.79493 0.16164 0.0
H1139 H 0.30858 0.77325 0.18514 0.0
H1140 H 0.30712 0.62958 0.16835 0.0
H1141 H 0.28533 0.65052 0.14459 0.0
C1142 C 0.18812 0.70453 0.1244 0.0
C1143 C 0.18727 0.65527 0.12368 0.0
C1144 C 0.20542 0.72765 0.12439 0.0
C1145 C 0.2222 0.702 0.12351 0.0
C1146 C 0.22138 0.65285 0.12292 0.0
C1147 C 0.20411 0.62973 0.12298 0.0
C1148 C 0.24066 0.72625 0.12332 0.0
C1149 C 0.25403 0.71418 0.136 0.0
C1150 C 0.24496 0.76169 0.11105 0.0
C1151 C 0.23189 0.77441 0.09675 0.0
C1152 C 0.22526 0.74004 0.08511 0.0
C1153 C 0.21285 0.75223 0.07175 0.0
C1154 C 0.20707 0.79876 0.06981 0.0
C1155 C 0.21373 0.83323 0.0812 0.0
C1156 C 0.22613 0.82121 0.0946 0.0
C1157 C 0.32824 0.79485 0.12368 0.0
C1158 C 0.329 0.84413 0.12433 0.0
C1159 C 0.31098 0.77152 0.12368 0.0
C1160 C 0.29415 0.79697 0.1245 0.0
C1161 C 0.29488 0.84614 0.12503 0.0
C1162 C 0.3121 0.86946 0.12497 0.0
C1163 C 0.27573 0.77254 0.12465 0.0
C1164 C 0.26236 0.78458 0.11196 0.0
C1165 C 0.27143 0.73708 0.13692 0.0
C1166 C 0.28449 0.72439 0.15123 0.0
C1167 C 0.29109 0.75878 0.16288 0.0
C1168 C 0.30349 0.74661 0.17626 0.0
C1169 C 0.30928 0.70009 0.17821 0.0
C1170 C 0.30264 0.66561 0.16681 0.0
C1171 C 0.29026 0.6776 0.15339 0.0
H1172 H 0.31888 0.69074 0.18858 0.0
H1173 H 0.19746 0.80814 0.05945 0.0
H1174 H 0.70434 0.09216 0.12005 0.0
H1175 H 0.73436 0.13301 0.11995 0.0
H1176 H 0.70579 0.26588 0.12379 0.0
H1177 H 0.67555 0.22522 0.12361 0.0
H1178 H 0.73383 0.26946 0.10022 0.0
H1179 H 0.72676 0.21594 0.15923 0.0
H1180 H 0.72113 0.15726 0.18222 0.0
H1181 H 0.76976 0.08038 0.16595 0.0
H1182 H 0.77548 0.13815 0.14262 0.0
H1183 H 0.81209 0.40794 0.12399 0.0
H1184 H 0.78213 0.36686 0.12357 0.0
H1185 H 0.81097 0.23411 0.12099 0.0
H1186 H 0.84113 0.27502 0.12172 0.0
H1187 H 0.78282 0.23016 0.14381 0.0
H1188 H 0.78993 0.28183 0.08482 0.0
H1189 H 0.79566 0.33893 0.0613 0.0
H1190 H 0.74733 0.41777 0.07705 0.0
H1191 H 0.74146 0.36147 0.10083 0.0
C1192 C 0.70438 0.13009 0.12087 0.0
C1193 C 0.68751 0.1554 0.12192 0.0
C1194 C 0.7216 0.15339 0.12087 0.0
C1195 C 0.72236 0.20248 0.1221 0.0
C1196 C 0.70554 0.22796 0.12288 0.0
C1197 C 0.68827 0.20465 0.12283 0.0
C1198 C 0.74071 0.22712 0.12257 0.0
C1199 C 0.74444 0.26136 0.1099 0.0
C1200 C 0.75476 0.21565 0.13492 0.0
C1201 C 0.75145 0.18116 0.14907 0.0
C1202 C 0.73618 0.18634 0.16047 0.0
C1203 C 0.73298 0.15325 0.17357 0.0
C1204 C 0.74507 0.11507 0.17553 0.0
C1205 C 0.7604 0.10995 0.1644 0.0
C1206 C 0.76363 0.14286 0.15124 0.0
C1207 C 0.81211 0.36999 0.1233 0.0
C1208 C 0.82905 0.34479 0.12281 0.0
C1209 C 0.79493 0.34655 0.12299 0.0
C1210 C 0.79426 0.2974 0.122 0.0
C1211 C 0.81113 0.27206 0.1217 0.0
C1212 C 0.82836 0.29551 0.12208 0.0
C1213 C 0.77595 0.27255 0.12146 0.0
C1214 C 0.77221 0.23829 0.13412 0.0
C1215 C 0.76193 0.28386 0.10906 0.0
C1216 C 0.76536 0.31766 0.09471 0.0
C1217 C 0.78061 0.31153 0.08335 0.0
C1218 C 0.78387 0.34373 0.06996 0.0
C1219 C 0.7719 0.38202 0.0677 0.0
C1220 C 0.75661 0.38813 0.07882 0.0
C1221 C 0.7533 0.35606 0.09225 0.0
H1222 H 0.77444 0.40691 0.05733 0.0
H1223 H 0.7426 0.08948 0.18567 0.0
H1224 H 0.70299 0.90783 0.62704 0.0
H1225 H 0.7331 0.86746 0.62771 0.0
H1226 H 0.70495 0.73434 0.62222 0.0
H1227 H 0.67463 0.7745 0.62188 0.0
H1228 H 0.73267 0.72926 0.64605 0.0
H1229 H 0.72593 0.78853 0.58786 0.0
H1230 H 0.72029 0.84969 0.56584 0.0
H1231 H 0.76933 0.92389 0.58299 0.0
H1232 H 0.77493 0.86386 0.60555 0.0
H1233 H 0.81113 0.59296 0.62149 0.0
H1234 H 0.78115 0.63397 0.62195 0.0
H1235 H 0.80996 0.76642 0.62667 0.0
H1236 H 0.84012 0.72562 0.62591 0.0
H1237 H 0.78204 0.77239 0.60353 0.0
H1238 H 0.78867 0.7154 0.66189 0.0
H1239 H 0.79419 0.65617 0.68475 0.0
H1240 H 0.74592 0.57897 0.66753 0.0
H1241 H 0.74026 0.63741 0.6444 0.0
C1242 C 0.70315 0.86995 0.62598 0.0
C1243 C 0.68637 0.84443 0.62428 0.0
C1244 C 0.72042 0.84692 0.62633 0.0
C1245 C 0.72133 0.7979 0.62476 0.0
C1246 C 0.70459 0.7722 0.62341 0.0
C1247 C 0.68728 0.79523 0.62315 0.0
C1248 C 0.73975 0.77359 0.62432 0.0
C1249 C 0.74337 0.73825 0.6366 0.0
C1250 C 0.75392 0.78616 0.61228 0.0
C1251 C 0.75075 0.82189 0.59852 0.0
C1252 C 0.73544 0.81806 0.58703 0.0
C1253 C 0.73226 0.85253 0.57443 0.0
C1254 C 0.74446 0.89064 0.57297 0.0
C1255 C 0.75988 0.89436 0.58413 0.0
C1256 C 0.76305 0.86016 0.59686 0.0
C1257 C 0.81114 0.63083 0.62263 0.0
C1258 C 0.82806 0.65598 0.62374 0.0
C1259 C 0.79395 0.65422 0.62298 0.0
C1260 C 0.79327 0.70324 0.62461 0.0
C1261 C 0.81014 0.72856 0.62546 0.0
C1262 C 0.82737 0.70517 0.62506 0.0
C1263 C 0.77496 0.72803 0.62525 0.0
C1264 C 0.77135 0.76343 0.61299 0.0
C1265 C 0.76084 0.71566 0.63735 0.0
C1266 C 0.76415 0.68056 0.65131 0.0
C1267 C 0.77932 0.6856 0.66289 0.0
C1268 C 0.78246 0.6522 0.67591 0.0
C1269 C 0.77044 0.61377 0.67756 0.0
C1270 C 0.75523 0.60873 0.66622 0.0
C1271 C 0.75204 0.642 0.65316 0.0
H1272 H 0.7729 0.58795 0.68765 0.0
H1273 H 0.74199 0.91728 0.56319 0.0
H1274 H 0.17464 0.27443 0.62827 0.0
H1275 H 0.20493 0.23409 0.62816 0.0
H1276 H 0.23288 0.3653 0.61787 0.0
H1277 H 0.20275 0.40584 0.61795 0.0
H1278 H 0.2466 0.2942 0.59761 0.0
H1279 H 0.23322 0.32231 0.65756 0.0
H1280 H 0.21416 0.3206 0.68424 0.0
H1281 H 0.21475 0.16997 0.68363 0.0
H1282 H 0.23342 0.17079 0.65659 0.0
H1283 H 0.33956 0.22395 0.61982 0.0
H1284 H 0.30929 0.26442 0.61956 0.0
H1285 H 0.28104 0.13303 0.6287 0.0
H1286 H 0.31114 0.09231 0.62897 0.0
H1287 H 0.26757 0.20461 0.64956 0.0
H1288 H 0.28098 0.17808 0.5889 0.0
H1289 H 0.30005 0.18191 0.56218 0.0
H1290 H 0.30007 0.33238 0.56484 0.0
H1291 H 0.28122 0.32941 0.59174 0.0
C1292 C 0.18722 0.29467 0.62594 0.0
C1293 C 0.18627 0.3434 0.62321 0.0
C1294 C 0.20452 0.2716 0.62592 0.0
C1295 C 0.22117 0.29678 0.62314 0.0
C1296 C 0.22022 0.3452 0.62005 0.0
C1297 C 0.20297 0.36833 0.62018 0.0
C1298 C 0.23963 0.27285 0.62374 0.0
C1299 C 0.25128 0.27506 0.60904 0.0
C1300 C 0.24562 0.24736 0.63857 0.0
C1301 C 0.23454 0.24662 0.65492 0.0
C1302 C 0.22914 0.2888 0.66301 0.0
C1303 C 0.21843 0.28799 0.67822 0.0
C1304 C 0.21323 0.2452 0.68565 0.0
C1305 C 0.21876 0.2031 0.67785 0.0
C1306 C 0.22939 0.20372 0.66256 0.0
C1307 C 0.32691 0.20367 0.6218 0.0
C1308 C 0.32778 0.15486 0.62435 0.0
C1309 C 0.30962 0.22683 0.6216 0.0
C1310 C 0.29291 0.20166 0.62398 0.0
C1311 C 0.29376 0.15311 0.62682 0.0
C1312 C 0.31099 0.12989 0.62689 0.0
C1313 C 0.27449 0.22579 0.62341 0.0
C1314 C 0.26286 0.22368 0.63813 0.0
C1315 C 0.26857 0.25163 0.60864 0.0
C1316 C 0.27986 0.2535 0.59244 0.0
C1317 C 0.28519 0.21197 0.58387 0.0
C1318 C 0.29593 0.21399 0.56868 0.0
C1319 C 0.30131 0.25736 0.56184 0.0
C1320 C 0.29592 0.29881 0.57017 0.0
C1321 C 0.28519 0.29698 0.58538 0.0
H1322 H 0.30962 0.25885 0.55008 0.0
H1323 H 0.20496 0.24467 0.69745 0.0
H1324 H 0.67673 0.22539 0.86999 0.0
H1325 H 0.70708 0.26535 0.8699 0.0
H1326 H 0.73524 0.13191 0.87369 0.0
H1327 H 0.70503 0.09175 0.87397 0.0
H1328 H 0.75032 0.19514 0.89579 0.0
H1329 H 0.7333 0.19027 0.83523 0.0
H1330 H 0.71292 0.20336 0.8097 0.0
H1331 H 0.71381 0.35177 0.81929 0.0
H1332 H 0.73399 0.33949 0.84504 0.0
H1333 H 0.84212 0.27364 0.87409 0.0
H1334 H 0.81187 0.23308 0.87393 0.0
H1335 H 0.78333 0.36603 0.87023 0.0
H1336 H 0.81341 0.40677 0.87026 0.0
H1337 H 0.76853 0.30269 0.8479 0.0
H1338 H 0.78466 0.30825 0.90852 0.0
H1339 H 0.80466 0.29635 0.93432 0.0
H1340 H 0.80522 0.14787 0.92484 0.0
H1341 H 0.78533 0.15901 0.89881 0.0
C1342 C 0.68937 0.20453 0.87082 0.0
C1343 C 0.68843 0.15534 0.87193 0.0
C1344 C 0.70672 0.22742 0.87068 0.0
C1345 C 0.72345 0.20158 0.87161 0.0
C1346 C 0.72253 0.15256 0.87295 0.0
C1347 C 0.70522 0.12966 0.87305 0.0
C1348 C 0.74193 0.22556 0.87129 0.0
C1349 C 0.7544 0.21814 0.88519 0.0
C1350 C 0.7471 0.25643 0.85767 0.0
C1351 C 0.735 0.26391 0.84217 0.0
C1352 C 0.72902 0.22566 0.83198 0.0
C1353 C 0.71753 0.23294 0.81746 0.0
C1354 C 0.71203 0.27836 0.81291 0.0
C1355 C 0.71806 0.3166 0.82285 0.0
C1356 C 0.72953 0.30951 0.8374 0.0
C1357 C 0.82941 0.29425 0.87324 0.0
C1358 C 0.83021 0.34348 0.87224 0.0
C1359 C 0.81213 0.27102 0.87321 0.0
C1360 C 0.79532 0.29655 0.87221 0.0
C1361 C 0.7961 0.34561 0.87101 0.0
C1362 C 0.81334 0.36884 0.8711 0.0
C1363 C 0.7769 0.27225 0.87239 0.0
C1364 C 0.76445 0.27961 0.85847 0.0
C1365 C 0.77172 0.24141 0.88601 0.0
C1366 C 0.78368 0.23453 0.90162 0.0
C1367 C 0.78918 0.27311 0.91185 0.0
C1368 C 0.80048 0.26648 0.92654 0.0
C1369 C 0.80629 0.22139 0.9312 0.0
C1370 C 0.80074 0.18279 0.9212 0.0
C1371 C 0.78944 0.18923 0.90648 0.0
H1372 H 0.81503 0.21631 0.94258 0.0
H1373 H 0.70314 0.28392 0.80165 0.0
H1374 H 0.20552 0.59103 0.86999 0.0
H1375 H 0.23556 0.6318 0.86985 0.0
H1376 H 0.2072 0.76406 0.87681 0.0
H1377 H 0.17695 0.72354 0.87657 0.0
H1378 H 0.23428 0.77152 0.85292 0.0
H1379 H 0.22979 0.70768 0.91097 0.0
H1380 H 0.22518 0.6445 0.93249 0.0
H1381 H 0.27285 0.57108 0.9121 0.0
H1382 H 0.27759 0.63351 0.89029 0.0
H1383 H 0.31307 0.90724 0.87691 0.0
H1384 H 0.2832 0.86566 0.87689 0.0
H1385 H 0.31218 0.73408 0.8704 0.0
H1386 H 0.34225 0.77543 0.87074 0.0
H1387 H 0.28494 0.72566 0.89389 0.0
H1388 H 0.28976 0.78717 0.83608 0.0
H1389 H 0.29455 0.84807 0.81371 0.0
H1390 H 0.24669 0.92348 0.8327 0.0
H1391 H 0.24178 0.86334 0.85535 0.0
C1392 C 0.20563 0.62881 0.87152 0.0
C1393 C 0.18881 0.65399 0.87339 0.0
C1394 C 0.22285 0.65206 0.8715 0.0
C1395 C 0.22369 0.70094 0.8736 0.0
C1396 C 0.20691 0.7263 0.87523 0.0
C1397 C 0.18963 0.70307 0.87513 0.0
C1398 C 0.24205 0.72557 0.87401 0.0
C1399 C 0.24526 0.76196 0.86206 0.0
C1400 C 0.25659 0.7122 0.88558 0.0
C1401 C 0.25394 0.67508 0.8989 0.0
C1402 C 0.23923 0.67793 0.91101 0.0
C1403 C 0.2366 0.64226 0.92327 0.0
C1404 C 0.24869 0.60372 0.92362 0.0
C1405 C 0.26349 0.60091 0.91179 0.0
C1406 C 0.26616 0.63645 0.89949 0.0
C1407 C 0.31314 0.86944 0.87547 0.0
C1408 C 0.33008 0.84469 0.87373 0.0
C1409 C 0.29601 0.84572 0.87539 0.0
C1410 C 0.29541 0.79679 0.87338 0.0
C1411 C 0.3123 0.77186 0.87192 0.0
C1412 C 0.32948 0.79557 0.87207 0.0
C1413 C 0.27714 0.77175 0.87286 0.0
C1414 C 0.27395 0.73528 0.88478 0.0
C1415 C 0.26265 0.78484 0.86119 0.0
C1416 C 0.26551 0.82096 0.84752 0.0
C1417 C 0.28034 0.81692 0.83557 0.0
C1418 C 0.28306 0.85128 0.82283 0.0
C1419 C 0.27096 0.88968 0.82181 0.0
C1420 C 0.25607 0.89374 0.83351 0.0
C1421 C 0.2533 0.85951 0.8463 0.0
H1422 H 0.27309 0.91625 0.81194 0.0
H1423 H 0.24661 0.57603 0.93306 0.0
H1424 H 0.36744 0.09593 0.31676 0.0
H1425 H 0.3665 0.0856 0.28515 0.0
H1426 H 0.36312 0.93565 0.2918 0.0
H1427 H 0.36386 0.94565 0.32357 0.0
H1428 H 0.39084 0.968 0.26709 0.0
H1429 H 0.3252 0.98888 0.28069 0.0
H1430 H 0.2987 0.03075 0.29417 0.0
H1431 H 0.31102 0.15293 0.26355 0.0
H1432 H 0.33775 0.11195 0.25004 0.0
H1433 H 0.37075 0.90346 0.1808 0.0
H1434 H 0.36957 0.91401 0.21229 0.0
H1435 H 0.36124 0.06275 0.20532 0.0
H1436 H 0.36187 0.05221 0.17363 0.0
H1437 H 0.33952 0.03232 0.23048 0.0
H1438 H 0.40417 0.01794 0.21707 0.0
H1439 H 0.43251 0.98337 0.20408 0.0
H1440 H 0.42476 0.85843 0.23447 0.0
H1441 H 0.39616 0.89203 0.24747 0.0
C1442 C 0.36645 0.06072 0.31153 0.0
C1443 C 0.36571 0.02156 0.32266 0.0
C1444 C 0.36586 0.05493 0.29347 0.0
C1445 C 0.36466 0.00991 0.2862 0.0
C1446 C 0.36402 0.97068 0.29723 0.0
C1447 C 0.36437 0.97646 0.31533 0.0
C1448 C 0.36435 0.00396 0.26705 0.0
C1449 C 0.37949 0.98129 0.25906 0.0
C1450 C 0.3499 0.02316 0.25664 0.0
C1451 C 0.33357 0.04747 0.26446 0.0
C1452 C 0.32233 0.02477 0.27691 0.0
C1453 C 0.30725 0.04833 0.28454 0.0
C1454 C 0.30321 0.09452 0.27975 0.0
C1455 C 0.31418 0.11716 0.26725 0.0
C1456 C 0.32927 0.09376 0.25959 0.0
C1457 C 0.36865 0.93847 0.18593 0.0
C1458 C 0.36654 0.97709 0.1747 0.0
C1459 C 0.36804 0.94446 0.20397 0.0
C1460 C 0.36567 0.9893 0.2112 0.0
C1461 C 0.36315 0.02784 0.20003 0.0
C1462 C 0.36356 0.02179 0.18193 0.0
C1463 C 0.36595 0.99575 0.23041 0.0
C1464 C 0.35086 0.01872 0.23844 0.0
C1465 C 0.38068 0.97774 0.24086 0.0
C1466 C 0.3979 0.95733 0.23311 0.0
C1467 C 0.40841 0.98294 0.22088 0.0
C1468 C 0.42455 0.96353 0.21353 0.0
C1469 C 0.43041 0.91866 0.2184 0.0
C1470 C 0.42018 0.89316 0.23068 0.0
C1471 C 0.40401 0.91238 0.23806 0.0
H1472 H 0.44291 0.9037 0.2127 0.0
H1473 H 0.29156 0.11273 0.2857 0.0
H1474 H 0.64884 0.09779 0.17909 0.0
H1475 H 0.6504 0.0876 0.21069 0.0
H1476 H 0.65553 0.93798 0.20393 0.0
H1477 H 0.65415 0.94785 0.1722 0.0
H1478 H 0.62776 0.96567 0.22812 0.0
H1479 H 0.69268 0.99639 0.21578 0.0
H1480 H 0.71939 0.04049 0.20378 0.0
H1481 H 0.70465 0.15998 0.23496 0.0
H1482 H 0.67766 0.11678 0.24698 0.0
H1483 H 0.64691 0.90552 0.31515 0.0
H1484 H 0.64874 0.91554 0.28366 0.0
H1485 H 0.65325 0.06544 0.29036 0.0
H1486 H 0.65207 0.05547 0.32207 0.0
H1487 H 0.67633 0.03793 0.26593 0.0
H1488 H 0.61155 0.01178 0.27778 0.0
H1489 H 0.58406 0.97115 0.29001 0.0
H1490 H 0.59689 0.84862 0.25973 0.0
H1491 H 0.62462 0.8883 0.2475 0.0
C1492 C 0.6504 0.06269 0.1843 0.0
C1493 C 0.65134 0.02357 0.17315 0.0
C1494 C 0.65137 0.057 0.20236 0.0
C1495 C 0.65317 0.01209 0.2096 0.0
C1496 C 0.65418 0.97294 0.19854 0.0
C1497 C 0.65344 0.97865 0.18045 0.0
C1498 C 0.65325 0.00598 0.22876 0.0
C1499 C 0.63853 0.98079 0.2364 0.0
C1500 C 0.66694 0.02726 0.23952 0.0
C1501 C 0.68304 0.05347 0.23216 0.0
C1502 C 0.69501 0.03223 0.21994 0.0
C1503 C 0.71023 0.05705 0.21316 0.0
C1504 C 0.71371 0.10305 0.21859 0.0
C1505 C 0.70194 0.12435 0.23077 0.0
C1506 C 0.68669 0.0997 0.23758 0.0
C1507 C 0.6483 0.94067 0.30995 0.0
C1508 C 0.6492 0.97977 0.32109 0.0
C1509 C 0.64927 0.94635 0.29191 0.0
C1510 C 0.65074 0.99132 0.2846 0.0
C1511 C 0.65203 0.03041 0.29571 0.0
C1512 C 0.65132 0.02469 0.31381 0.0
C1513 C 0.65086 0.99736 0.26537 0.0
C1514 C 0.66556 0.02267 0.2577 0.0
C1515 C 0.63698 0.97681 0.25456 0.0
C1516 C 0.62027 0.95287 0.26185 0.0
C1517 C 0.60859 0.97605 0.27383 0.0
C1518 C 0.59295 0.95321 0.28074 0.0
C1519 C 0.58876 0.90729 0.27568 0.0
C1520 C 0.60017 0.88416 0.26366 0.0
C1521 C 0.61584 0.90683 0.25671 0.0
H1522 H 0.57665 0.88967 0.28105 0.0
H1523 H 0.72555 0.12214 0.21342 0.0
H1524 H 0.64636 0.09777 0.81497 0.0
H1525 H 0.64726 0.08723 0.78345 0.0
H1526 H 0.65577 0.93854 0.79035 0.0
H1527 H 0.65539 0.94902 0.82205 0.0
H1528 H 0.67718 0.96988 0.76478 0.0
H1529 H 0.61288 0.98286 0.77978 0.0
H1530 H 0.58504 0.01756 0.79357 0.0
H1531 H 0.59123 0.14137 0.76225 0.0
H1532 H 0.61945 0.1078 0.74854 0.0
H1533 H 0.64708 0.90334 0.67932 0.0
H1534 H 0.64886 0.91434 0.71088 0.0
H1535 H 0.65157 0.0642 0.70373 0.0
H1536 H 0.65004 0.05353 0.67202 0.0
H1537 H 0.62454 0.03147 0.72916 0.0
H1538 H 0.68975 0.01322 0.71406 0.0
H1539 H 0.71654 0.97303 0.70039 0.0
H1540 H 0.70642 0.8512 0.7319 0.0
H1541 H 0.67938 0.89044 0.74557 0.0
C1542 C 0.64847 0.06279 0.80982 0.0
C1543 C 0.65065 0.02414 0.82102 0.0
C1544 C 0.64893 0.05681 0.79177 0.0
C1545 C 0.65124 0.01198 0.78453 0.0
C1546 C 0.65391 0.97344 0.79566 0.0
C1547 C 0.65364 0.97947 0.81376 0.0
C1548 C 0.65055 0.00541 0.76534 0.0
C1549 C 0.66556 0.98286 0.75703 0.0
C1550 C 0.63546 0.02274 0.75518 0.0
C1551 C 0.61841 0.04299 0.76326 0.0
C1552 C 0.60841 0.01765 0.77593 0.0
C1553 C 0.59253 0.0371 0.78372 0.0
C1554 C 0.58635 0.08167 0.7788 0.0
C1555 C 0.59604 0.10686 0.76606 0.0
C1556 C 0.61199 0.08764 0.75828 0.0
C1557 C 0.64809 0.93867 0.68444 0.0
C1558 C 0.64843 0.97761 0.67319 0.0
C1559 C 0.64917 0.94484 0.70246 0.0
C1560 C 0.65043 0.99003 0.70958 0.0
C1561 C 0.65063 0.02904 0.69843 0.0
C1562 C 0.64982 0.02288 0.68036 0.0
C1563 C 0.65122 0.99644 0.7287 0.0
C1564 C 0.63617 0.01875 0.73696 0.0
C1565 C 0.66608 0.97811 0.73883 0.0
C1566 C 0.68243 0.95462 0.73071 0.0
C1567 C 0.69313 0.97772 0.71797 0.0
C1568 C 0.70839 0.95513 0.71024 0.0
C1569 C 0.71315 0.90954 0.71524 0.0
C1570 C 0.7027 0.88649 0.72802 0.0
C1571 C 0.68742 0.90891 0.73577 0.0
H1572 H 0.72496 0.89212 0.70924 0.0
H1573 H 0.57405 0.09665 0.78484 0.0
H1574 H 0.36742 0.90307 0.81688 0.0
H1575 H 0.36559 0.91274 0.78535 0.0
H1576 H 0.36246 0.06295 0.79177 0.0
H1577 H 0.3636 0.05334 0.82349 0.0
H1578 H 0.33937 0.0367 0.7671 0.0
H1579 H 0.4038 0.00641 0.77985 0.0
H1580 H 0.43066 0.96389 0.79248 0.0
H1581 H 0.41675 0.8422 0.76208 0.0
H1582 H 0.38964 0.88379 0.74944 0.0
H1583 H 0.36826 0.09623 0.68093 0.0
H1584 H 0.36668 0.08539 0.71248 0.0
H1585 H 0.36002 0.93628 0.70524 0.0
H1586 H 0.36145 0.94679 0.67355 0.0
H1587 H 0.38773 0.96169 0.73001 0.0
H1588 H 0.32333 0.99659 0.71663 0.0
H1589 H 0.29767 0.04304 0.70378 0.0
H1590 H 0.31332 0.16145 0.73522 0.0
H1591 H 0.33927 0.1159 0.74808 0.0
C1592 C 0.3663 0.93819 0.8116 0.0
C1593 C 0.36582 0.9775 0.82266 0.0
C1594 C 0.36534 0.94368 0.79355 0.0
C1595 C 0.3643 0.98863 0.78615 0.0
C1596 C 0.36334 0.02792 0.79718 0.0
C1597 C 0.36403 0.02241 0.8153 0.0
C1598 C 0.36441 0.99451 0.76691 0.0
C1599 C 0.35008 0.02078 0.75903 0.0
C1600 C 0.37823 0.97315 0.75631 0.0
C1601 C 0.39458 0.94808 0.76383 0.0
C1602 C 0.40639 0.97047 0.77596 0.0
C1603 C 0.42167 0.94655 0.7831 0.0
C1604 C 0.42538 0.90033 0.77812 0.0
C1605 C 0.41384 0.87798 0.76594 0.0
C1606 C 0.39852 0.90172 0.75878 0.0
C1607 C 0.3664 0.0611 0.68602 0.0
C1608 C 0.36499 0.02233 0.67475 0.0
C1609 C 0.36542 0.05504 0.70405 0.0
C1610 C 0.36312 0.0101 0.71115 0.0
C1611 C 0.36176 0.97126 0.69997 0.0
C1612 C 0.36252 0.97735 0.6819 0.0
C1613 C 0.36269 0.00365 0.73029 0.0
C1614 C 0.377 0.97741 0.73813 0.0
C1615 C 0.34904 0.02561 0.74084 0.0
C1616 C 0.33336 0.05296 0.7332 0.0
C1617 C 0.3214 0.03266 0.7207 0.0
C1618 C 0.30678 0.0588 0.71343 0.0
C1619 C 0.30389 0.1052 0.71864 0.0
C1620 C 0.31559 0.12551 0.73118 0.0
C1621 C 0.33025 0.09954 0.73847 0.0
H1622 H 0.29257 0.12538 0.713 0.0
H1623 H 0.43722 0.88188 0.78366 0.0
H1624 H 0.86294 0.55371 0.17293 0.0
H1625 H 0.86161 0.5643 0.20462 0.0
H1626 H 0.86431 0.41441 0.21174 0.0
H1627 H 0.86588 0.40349 0.18015 0.0
H1628 H 0.83697 0.4614 0.23303 0.0
H1629 H 0.90205 0.47058 0.21693 0.0
H1630 H 0.92854 0.50129 0.19987 0.0
H1631 H 0.91855 0.63947 0.22014 0.0
H1632 H 0.89165 0.60973 0.237 0.0
H1633 H 0.86081 0.45106 0.32286 0.0
H1634 H 0.85963 0.44089 0.29121 0.0
H1635 H 0.86856 0.58945 0.2843 0.0
H1636 H 0.87033 0.59961 0.31583 0.0
H1637 H 0.88951 0.54364 0.2625 0.0
H1638 H 0.82476 0.53683 0.27854 0.0
H1639 H 0.79714 0.5087 0.29472 0.0
H1640 H 0.80547 0.36991 0.27439 0.0
H1641 H 0.8333 0.39708 0.25827 0.0
C1642 C 0.86311 0.52302 0.18124 0.0
C1643 C 0.86463 0.47779 0.17407 0.0
C1644 C 0.86238 0.52912 0.19931 0.0
C1645 C 0.86295 0.49011 0.21046 0.0
C1646 C 0.86384 0.4449 0.20332 0.0
C1647 C 0.86484 0.43879 0.18529 0.0
C1648 C 0.8634 0.49643 0.22959 0.0
C1649 C 0.84852 0.47894 0.23955 0.0
C1650 C 0.87831 0.52022 0.23794 0.0
C1651 C 0.8947 0.53802 0.22807 0.0
C1652 C 0.90539 0.5076 0.21763 0.0
C1653 C 0.9205 0.52483 0.20801 0.0
C1654 C 0.92522 0.57234 0.20889 0.0
C1655 C 0.91486 0.60269 0.21944 0.0
C1656 C 0.89967 0.58566 0.22903 0.0
C1657 C 0.86247 0.48155 0.31459 0.0
C1658 C 0.86565 0.52613 0.32186 0.0
C1659 C 0.86171 0.47574 0.2965 0.0
C1660 C 0.86377 0.51452 0.28535 0.0
C1661 C 0.86695 0.55901 0.29261 0.0
C1662 C 0.86792 0.56476 0.31066 0.0
C1663 C 0.86298 0.50875 0.26611 0.0
C1664 C 0.87787 0.52625 0.25608 0.0
C1665 C 0.84797 0.48533 0.25769 0.0
C1666 C 0.83122 0.4689 0.26733 0.0
C1667 C 0.82078 0.50023 0.27763 0.0
C1668 C 0.80508 0.48447 0.28677 0.0
C1669 C 0.79958 0.43752 0.28562 0.0
C1670 C 0.80975 0.40625 0.27528 0.0
C1671 C 0.82549 0.42182 0.26613 0.0
H1672 H 0.78741 0.42539 0.2927 0.0
H1673 H 0.93692 0.58564 0.20143 0.0
H1674 H 0.14524 0.55071 0.3238 0.0
H1675 H 0.14595 0.56134 0.29206 0.0
H1676 H 0.14862 0.41143 0.28504 0.0
H1677 H 0.14747 0.40042 0.31667 0.0
H1678 H 0.17571 0.46639 0.26509 0.0
H1679 H 0.10973 0.45527 0.27706 0.0
H1680 H 0.07959 0.4753 0.29079 0.0
H1681 H 0.08422 0.61658 0.2719 0.0
H1682 H 0.11454 0.59753 0.25823 0.0
H1683 H 0.15672 0.45123 0.17404 0.0
H1684 H 0.15724 0.44105 0.2057 0.0
H1685 H 0.14233 0.58658 0.21246 0.0
H1686 H 0.14139 0.59678 0.18091 0.0
H1687 H 0.12176 0.53388 0.23288 0.0
H1688 H 0.18719 0.54618 0.22038 0.0
H1689 H 0.21689 0.52673 0.20572 0.0
H1690 H 0.21386 0.38601 0.22546 0.0
H1691 H 0.18398 0.40444 0.24004 0.0
C1692 C 0.146 0.52005 0.31548 0.0
C1693 C 0.14626 0.47474 0.3227 0.0
C1694 C 0.14635 0.52617 0.29739 0.0
C1695 C 0.1473 0.48713 0.28627 0.0
C1696 C 0.14788 0.44194 0.29344 0.0
C1697 C 0.14716 0.43575 0.31149 0.0
C1698 C 0.14765 0.4934 0.26712 0.0
C1699 C 0.16386 0.48067 0.25798 0.0
C1700 C 0.13235 0.51306 0.258 0.0
C1701 C 0.11451 0.52511 0.2668 0.0
C1702 C 0.10447 0.49079 0.27605 0.0
C1703 C 0.08731 0.50192 0.28376 0.0
C1704 C 0.08001 0.5472 0.28222 0.0
C1705 C 0.08991 0.58154 0.27309 0.0
C1706 C 0.10707 0.57058 0.26535 0.0
C1707 C 0.15364 0.48111 0.18227 0.0
C1708 C 0.149 0.5248 0.17493 0.0
C1709 C 0.15402 0.4753 0.20038 0.0
C1710 C 0.15 0.51318 0.21148 0.0
C1711 C 0.14547 0.55684 0.20417 0.0
C1712 C 0.14498 0.56262 0.1861 0.0
C1713 C 0.14989 0.50711 0.23072 0.0
C1714 C 0.13369 0.51982 0.23993 0.0
C1715 C 0.16528 0.48779 0.23991 0.0
C1716 C 0.18324 0.47656 0.23115 0.0
C1717 C 0.19277 0.51097 0.22147 0.0
C1718 C 0.20966 0.50016 0.2132 0.0
C1719 C 0.21723 0.45513 0.21462 0.0
C1720 C 0.20796 0.42086 0.22435 0.0
C1721 C 0.19105 0.43148 0.23263 0.0
H1722 H 0.23031 0.44683 0.20821 0.0
H1723 H 0.06662 0.55561 0.288 0.0
H1724 H 0.15281 0.59506 0.81718 0.0
H1725 H 0.15378 0.58425 0.78565 0.0
H1726 H 0.14991 0.43426 0.79253 0.0
H1727 H 0.14986 0.44491 0.82421 0.0
H1728 H 0.17307 0.45065 0.76786 0.0
H1729 H 0.11131 0.50495 0.78001 0.0
H1730 H 0.08714 0.55702 0.79232 0.0
H1731 H 0.10801 0.67171 0.76172 0.0
H1732 H 0.13248 0.62046 0.74939 0.0
H1733 H 0.14279 0.40172 0.68099 0.0
H1734 H 0.14449 0.41155 0.71257 0.0
H1735 H 0.15822 0.55775 0.70586 0.0
H1736 H 0.15653 0.5483 0.67414 0.0
H1737 H 0.13007 0.54251 0.73018 0.0
H1738 H 0.19165 0.48071 0.71735 0.0
H1739 H 0.21418 0.42346 0.70548 0.0
H1740 H 0.19052 0.31537 0.73757 0.0
H1741 H 0.16767 0.37177 0.74945 0.0
C1742 C 0.15221 0.55976 0.81197 0.0
C1743 C 0.15114 0.52082 0.82315 0.0
C1744 C 0.15266 0.55361 0.79392 0.0
C1745 C 0.15148 0.50848 0.78663 0.0
C1746 C 0.15078 0.46945 0.79781 0.0
C1747 C 0.15072 0.47555 0.81591 0.0
C1748 C 0.15096 0.5021 0.76738 0.0
C1749 C 0.16348 0.47031 0.75966 0.0
C1750 C 0.1386 0.52807 0.75659 0.0
C1751 C 0.12384 0.55896 0.7639 0.0
C1752 C 0.11083 0.54136 0.77599 0.0
C1753 C 0.09706 0.57071 0.78296 0.0
C1754 C 0.09607 0.61767 0.77783 0.0
C1755 C 0.10881 0.63534 0.76569 0.0
C1756 C 0.12262 0.60615 0.7587 0.0
C1757 C 0.14624 0.43599 0.68619 0.0
C1758 C 0.14952 0.47428 0.67503 0.0
C1759 C 0.14729 0.44145 0.70426 0.0
C1760 C 0.15164 0.48526 0.71155 0.0
C1761 C 0.15489 0.5236 0.70047 0.0
C1762 C 0.15396 0.51812 0.68237 0.0
C1763 C 0.15222 0.49134 0.73074 0.0
C1764 C 0.13966 0.52299 0.73842 0.0
C1765 C 0.16422 0.46441 0.7415 0.0
C1766 C 0.17785 0.43042 0.7342 0.0
C1767 C 0.19113 0.44464 0.72176 0.0
C1768 C 0.20399 0.41235 0.71505 0.0
C1769 C 0.20378 0.36582 0.72077 0.0
C1770 C 0.19067 0.35143 0.73316 0.0
C1771 C 0.17778 0.38354 0.73989 0.0
H1772 H 0.21382 0.34095 0.71568 0.0
H1773 H 0.0854 0.64035 0.78325 0.0
H1774 H 0.86632 0.59727 0.68001 0.0
H1775 H 0.865 0.58691 0.71152 0.0
H1776 H 0.86216 0.43679 0.70471 0.0
H1777 H 0.86282 0.44707 0.673 0.0
H1778 H 0.83946 0.46218 0.72981 0.0
H1779 H 0.9034 0.49339 0.71614 0.0
H1780 H 0.92983 0.53628 0.70308 0.0
H1781 H 0.91678 0.6573 0.73409 0.0
H1782 H 0.89001 0.61538 0.74713 0.0
H1783 H 0.87005 0.40258 0.81563 0.0
H1784 H 0.86795 0.41347 0.7841 0.0
H1785 H 0.86101 0.56243 0.79147 0.0
H1786 H 0.86297 0.55186 0.82314 0.0
H1787 H 0.8884 0.53745 0.76638 0.0
H1788 H 0.82429 0.50132 0.78051 0.0
H1789 H 0.79903 0.45416 0.79364 0.0
H1790 H 0.8145 0.33638 0.76187 0.0
H1791 H 0.84004 0.38265 0.74873 0.0
C1792 C 0.86537 0.56202 0.6852 0.0
C1793 C 0.86485 0.52293 0.67403 0.0
C1794 C 0.86468 0.55614 0.70324 0.0
C1795 C 0.86388 0.51102 0.71052 0.0
C1796 C 0.86285 0.47194 0.69939 0.0
C1797 C 0.86327 0.47784 0.68128 0.0
C1798 C 0.86441 0.50477 0.72974 0.0
C1799 C 0.8503 0.47817 0.73777 0.0
C1800 C 0.87841 0.52613 0.74019 0.0
C1801 C 0.89458 0.55138 0.73248 0.0
C1802 C 0.90608 0.52926 0.72008 0.0
C1803 C 0.92114 0.55339 0.71269 0.0
C1804 C 0.92498 0.59951 0.71773 0.0
C1805 C 0.91378 0.62158 0.73019 0.0
C1806 C 0.89866 0.59765 0.73759 0.0
C1807 C 0.86802 0.43768 0.81057 0.0
C1808 C 0.86669 0.4764 0.82188 0.0
C1809 C 0.86675 0.44378 0.79256 0.0
C1810 C 0.86422 0.48869 0.7855 0.0
C1811 C 0.86293 0.52747 0.79671 0.0
C1812 C 0.864 0.52135 0.81477 0.0
C1813 C 0.86343 0.49519 0.76637 0.0
C1814 C 0.87754 0.52168 0.75838 0.0
C1815 C 0.84963 0.4731 0.75596 0.0
C1816 C 0.83419 0.44534 0.76376 0.0
C1817 C 0.8224 0.46525 0.77643 0.0
C1818 C 0.80802 0.4387 0.78385 0.0
C1819 C 0.80519 0.39227 0.77862 0.0
C1820 C 0.81672 0.37233 0.76592 0.0
C1821 C 0.83114 0.39872 0.75847 0.0
H1822 H 0.79405 0.37176 0.78439 0.0
H1823 H 0.93666 0.61812 0.71199 0.0
loop_
_geom_bond_atom_site_label_1
_geom_bond_atom_site_label_2
_geom_bond_distance
_geom_bond_site_symmetry_2
_ccdc_geom_bond_type
C0 O2 1.247 . S
C0 O4 1.258 . S
C1 O8 1.247 . S
C1 O9 1.258 . S
O2 C0 1.247 . S
O2 Zn3 2.028 . S
Zn3 O2 2.028 . S
Zn3 O7 2.035 . S
Zn3 O9 2.035 . S
Zn3 O10 2.028 . S
O4 C0 1.258 . S
O4 Zn5 2.035 . S
Zn5 O4 2.035 . S
Zn5 O6 2.028 . S
Zn5 O8 2.028 . S
Zn5 O11 2.035 . S
O6 Zn5 2.028 . S
O6 C12 1.247 . S
O7 Zn3 2.035 . S
O7 C12 1.258 . S
O8 C1 1.247 . S
O8 Zn5 2.028 . S
O9 C1 1.258 . S
O9 Zn3 2.035 . S
O10 Zn3 2.028 . S
O10 C13 1.247 . S
O11 Zn5 2.035 . S
O11 C13 1.258 . S
C12 O6 1.247 . S
C12 O7 1.258 . S
C13 O10 1.247 . S
C13 O11 1.258 . S
C14 O16 1.247 . S
C14 O18 1.258 . S
C15 O22 1.247 . S
C15 O23 1.258 . S
O16 C14 1.247 . S
O16 Zn17 2.028 . S
Zn17 O16 2.028 . S
Zn17 O21 2.035 . S
Zn17 O23 2.035 . S
Zn17 O24 2.028 . S
O18 C14 1.258 . S
O18 Zn19 2.035 . S
Zn19 O18 2.035 . S
Zn19 O20 2.028 . S
Zn19 O22 2.028 . S
Zn19 O25 2.035 . S
O20 Zn19 2.028 . S
O20 C26 1.247 . S
O21 Zn17 2.035 . S
O21 C26 1.258 . S
O22 C15 1.247 . S
O22 Zn19 2.028 . S
O23 C15 1.258 . S
O23 Zn17 2.035 . S
O24 Zn17 2.028 . S
O24 C27 1.247 . S
O25 Zn19 2.035 . S
O25 C27 1.258 . S
C26 O20 1.247 . S
C26 O21 1.258 . S
C27 O24 1.247 . S
C27 O25 1.258 . S
C28 O30 1.247 . S
C28 O32 1.258 . S
C29 O36 1.247 . S
C29 O37 1.258 . S
O30 C28 1.247 . S
O30 Zn31 2.028 . S
Zn31 O30 2.028 . S
Zn31 O35 2.035 . S
Zn31 O37 2.035 . S
Zn31 O38 2.028 . S
O32 C28 1.258 . S
O32 Zn33 2.035 . S
Zn33 O32 2.035 . S
Zn33 O34 2.028 . S
Zn33 O36 2.028 . S
Zn33 O39 2.035 . S
O34 Zn33 2.028 . S
O34 C40 1.247 . S
O35 Zn31 2.035 . S
O35 C40 1.258 . S
O36 C29 1.247 . S
O36 Zn33 2.028 . S
O37 C29 1.258 . S
O37 Zn31 2.035 . S
O38 Zn31 2.028 . S
O38 C41 1.247 . S
O39 Zn33 2.035 . S
O39 C41 1.258 . S
C40 O34 1.247 . S
C40 O35 1.258 . S
C41 O38 1.247 . S
C41 O39 1.258 . S
C42 O44 1.247 . S
C42 O46 1.258 . S
C43 O50 1.247 . S
C43 O51 1.258 . S
O44 C42 1.247 . S
O44 Zn45 2.028 . S
Zn45 O44 2.028 . S
Zn45 O49 2.035 . S
Zn45 O51 2.035 . S
Zn45 O52 2.028 . S
O46 C42 1.258 . S
O46 Zn47 2.035 . S
Zn47 O46 2.035 . S
Zn47 O48 2.028 . S
Zn47 O50 2.028 . S
Zn47 O53 2.035 . S
O48 Zn47 2.028 . S
O48 C54 1.247 . S
O49 Zn45 2.035 . S
O49 C54 1.258 . S
O50 C43 1.247 . S
O50 Zn47 2.028 . S
O51 C43 1.258 . S
O51 Zn45 2.035 . S
O52 Zn45 2.028 . S
O52 C55 1.247 . S
O53 Zn47 2.035 . S
O53 C55 1.258 . S
C54 O48 1.247 . S
C54 O49 1.258 . S
C55 O52 1.247 . S
C55 O53 1.258 . S
C56 O58 1.247 . S
C56 O60 1.258 . S
C57 O64 1.247 . S
C57 O65 1.258 . S
O58 C56 1.247 . S
O58 Zn59 2.028 . S
Zn59 O58 2.028 . S
Zn59 O63 2.035 . S
Zn59 O65 2.035 . S
Zn59 O66 2.028 . S
O60 C56 1.258 . S
O60 Zn61 2.035 . S
Zn61 O60 2.035 . S
Zn61 O62 2.028 . S
Zn61 O64 2.028 . S
Zn61 O67 2.035 . S
O62 Zn61 2.028 . S
O62 C68 1.247 . S
O63 Zn59 2.035 . S
O63 C68 1.258 . S
O64 C57 1.247 . S
O64 Zn61 2.028 . S
O65 C57 1.258 . S
O65 Zn59 2.035 . S
O66 Zn59 2.028 . S
O66 C69 1.247 . S
O67 Zn61 2.035 . S
O67 C69 1.258 . S
C68 O62 1.247 . S
C68 O63 1.258 . S
C69 O66 1.247 . S
C69 O67 1.258 . S
C70 O72 1.247 . S
C70 O74 1.258 . S
C71 O78 1.247 . S
C71 O79 1.258 . S
O72 C70 1.247 . S
O72 Zn73 2.028 . S
Zn73 O72 2.028 . S
Zn73 O77 2.035 . S
Zn73 O79 2.035 . S
Zn73 O80 2.028 . S
O74 C70 1.258 . S
O74 Zn75 2.035 . S
Zn75 O74 2.035 . S
Zn75 O76 2.028 . S
Zn75 O78 2.028 . S
Zn75 O81 2.035 . S
O76 Zn75 2.028 . S
O76 C82 1.247 . S
O77 Zn73 2.035 . S
O77 C82 1.258 . S
O78 C71 1.247 . S
O78 Zn75 2.028 . S
O79 C71 1.258 . S
O79 Zn73 2.035 . S
O80 Zn73 2.028 . S
O80 C83 1.247 . S
O81 Zn75 2.035 . S
O81 C83 1.258 . S
C82 O76 1.247 . S
C82 O77 1.258 . S
C83 O80 1.247 . S
C83 O81 1.258 . S
C84 O86 1.247 . S
C84 O88 1.258 . S
C85 O92 1.247 . S
C85 O93 1.258 . S
O86 C84 1.247 . S
O86 Zn87 2.028 . S
Zn87 O86 2.028 . S
Zn87 O91 2.035 . S
Zn87 O93 2.035 . S
Zn87 O94 2.028 . S
O88 C84 1.258 . S
O88 Zn89 2.035 . S
Zn89 O88 2.035 . S
Zn89 O90 2.028 . S
Zn89 O92 2.028 . S
Zn89 O95 2.035 . S
O90 Zn89 2.028 . S
O90 C96 1.247 . S
O91 Zn87 2.035 . S
O91 C96 1.258 . S
O92 C85 1.247 . S
O92 Zn89 2.028 . S
O93 C85 1.258 . S
O93 Zn87 2.035 . S
O94 Zn87 2.028 . S
O94 C97 1.247 . S
O95 Zn89 2.035 . S
O95 C97 1.258 . S
C96 O90 1.247 . S
C96 O91 1.258 . S
C97 O94 1.247 . S
C97 O95 1.258 . S
C98 O100 1.247 . S
C98 O102 1.258 . S
C99 O106 1.247 . S
C99 O107 1.258 . S
O100 C98 1.247 . S
O100 Zn101 2.028 . S
Zn101 O100 2.028 . S
Zn101 O105 2.035 . S
Zn101 O107 2.035 . S
Zn101 O108 2.028 . S
O102 C98 1.258 . S
O102 Zn103 2.035 . S
Zn103 O102 2.035 . S
Zn103 O104 2.028 . S
Zn103 O106 2.028 . S
Zn103 O109 2.035 . S
O104 Zn103 2.028 . S
O104 C110 1.247 . S
O105 Zn101 2.035 . S
O105 C110 1.258 . S
O106 C99 1.247 . S
O106 Zn103 2.028 . S
O107 C99 1.258 . S
O107 Zn101 2.035 . S
O108 Zn101 2.028 . S
O108 C111 1.247 . S
O109 Zn103 2.035 . S
O109 C111 1.258 . S
C110 O104 1.247 . S
C110 O105 1.258 . S
C111 O108 1.247 . S
C111 O109 1.258 . S
C112 O114 1.247 . S
C112 O116 1.258 . S
C113 O120 1.247 . S
C113 O121 1.258 . S
O114 C112 1.247 . S
O114 Zn115 2.028 . S
Zn115 O114 2.028 . S
Zn115 O119 2.035 . S
Zn115 O121 2.035 . S
Zn115 O122 2.028 . S
O116 C112 1.258 . S
O116 Zn117 2.035 . S
Zn117 O116 2.035 . S
Zn117 O118 2.028 . S
Zn117 O120 2.028 . S
Zn117 O123 2.035 . S
O118 Zn117 2.028 . S
O118 C124 1.247 . S
O119 Zn115 2.035 . S
O119 C124 1.258 . S
O120 C113 1.247 . S
O120 Zn117 2.028 . S
O121 C113 1.258 . S
O121 Zn115 2.035 . S
O122 Zn115 2.028 . S
O122 C125 1.247 . S
O123 Zn117 2.035 . S
O123 C125 1.258 . S
C124 O118 1.247 . S
C124 O119 1.258 . S
C125 O122 1.247 . S
C125 O123 1.258 . S
C126 O128 1.247 . S
C126 O130 1.258 . S
C127 O134 1.247 . S
C127 O135 1.258 . S
O128 C126 1.247 . S
O128 Zn129 2.028 . S
Zn129 O128 2.028 . S
Zn129 O133 2.035 . S
Zn129 O135 2.035 . S
Zn129 O136 2.028 . S
O130 C126 1.258 . S
O130 Zn131 2.035 . S
Zn131 O130 2.035 . S
Zn131 O132 2.028 . S
Zn131 O134 2.028 . S
Zn131 O137 2.035 . S
O132 Zn131 2.028 . S
O132 C138 1.247 . S
O133 Zn129 2.035 . S
O133 C138 1.258 . S
O134 C127 1.247 . S
O134 Zn131 2.028 . S
O135 C127 1.258 . S
O135 Zn129 2.035 . S
O136 Zn129 2.028 . S
O136 C139 1.247 . S
O137 Zn131 2.035 . S
O137 C139 1.258 . S
C138 O132 1.247 . S
C138 O133 1.258 . S
C139 O136 1.247 . S
C139 O137 1.258 . S
C140 O142 1.247 . S
C140 O144 1.258 . S
C141 O148 1.247 . S
C141 O149 1.258 . S
O142 C140 1.247 . S
O142 Zn143 2.028 . S
Zn143 O142 2.028 . S
Zn143 O147 2.035 . S
Zn143 O149 2.035 . S
Zn143 O150 2.028 . S
O144 C140 1.258 . S
O144 Zn145 2.035 . S
Zn145 O144 2.035 . S
Zn145 O146 2.028 . S
Zn145 O148 2.028 . S
Zn145 O151 2.035 . S
O146 Zn145 2.028 . S
O146 C152 1.247 . S
O147 Zn143 2.035 . S
O147 C152 1.258 . S
O148 C141 1.247 . S
O148 Zn145 2.028 . S
O149 C141 1.258 . S
O149 Zn143 2.035 . S
O150 Zn143 2.028 . S
O150 C153 1.247 . S
O151 Zn145 2.035 . S
O151 C153 1.258 . S
C152 O146 1.247 . S
C152 O147 1.258 . S
C153 O150 1.247 . S
C153 O151 1.258 . S
C154 O156 1.247 . S
C154 O158 1.258 . S
C155 O162 1.247 . S
C155 O163 1.258 . S
O156 C154 1.247 . S
O156 Zn157 2.028 . S
Zn157 O156 2.028 . S
Zn157 O161 2.035 . S
Zn157 O163 2.035 . S
Zn157 O164 2.028 . S
O158 C154 1.258 . S
O158 Zn159 2.035 . S
Zn159 O158 2.035 . S
Zn159 O160 2.028 . S
Zn159 O162 2.028 . S
Zn159 O165 2.035 . S
O160 Zn159 2.028 . S
O160 C166 1.247 . S
O161 Zn157 2.035 . S
O161 C166 1.258 . S
O162 C155 1.247 . S
O162 Zn159 2.028 . S
O163 C155 1.258 . S
O163 Zn157 2.035 . S
O164 Zn157 2.028 . S
O164 C167 1.247 . S
O165 Zn159 2.035 . S
O165 C167 1.258 . S
C166 O160 1.247 . S
C166 O161 1.258 . S
C167 O164 1.247 . S
C167 O165 1.258 . S
C168 O170 1.247 . S
C168 O172 1.258 . S
C169 O176 1.247 . S
C169 O177 1.258 . S
O170 C168 1.247 . S
O170 Zn171 2.028 . S
Zn171 O170 2.028 . S
Zn171 O175 2.035 . S
Zn171 O177 2.035 . S
Zn171 O178 2.028 . S
O172 C168 1.258 . S
O172 Zn173 2.035 . S
Zn173 O172 2.035 . S
Zn173 O174 2.028 . S
Zn173 O176 2.028 . S
Zn173 O179 2.035 . S
O174 Zn173 2.028 . S
O174 C180 1.247 . S
O175 Zn171 2.035 . S
O175 C180 1.258 . S
O176 C169 1.247 . S
O176 Zn173 2.028 . S
O177 C169 1.258 . S
O177 Zn171 2.035 . S
O178 Zn171 2.028 . S
O178 C181 1.247 . S
O179 Zn173 2.035 . S
O179 C181 1.258 . S
C180 O174 1.247 . S
C180 O175 1.258 . S
C181 O178 1.247 . S
C181 O179 1.258 . S
C182 O184 1.247 . S
C182 O186 1.258 . S
C183 O190 1.247 . S
C183 O191 1.258 . S
O184 C182 1.247 . S
O184 Zn185 2.028 . S
Zn185 O184 2.028 . S
Zn185 O189 2.035 . S
Zn185 O191 2.035 . S
Zn185 O192 2.028 . S
O186 C182 1.258 . S
O186 Zn187 2.035 . S
Zn187 O186 2.035 . S
Zn187 O188 2.028 . S
Zn187 O190 2.028 . S
Zn187 O193 2.035 . S
O188 Zn187 2.028 . S
O188 C194 1.247 . S
O189 Zn185 2.035 . S
O189 C194 1.258 . S
O190 C183 1.247 . S
O190 Zn187 2.028 . S
O191 C183 1.258 . S
O191 Zn185 2.035 . S
O192 Zn185 2.028 . S
O192 C195 1.247 . S
O193 Zn187 2.035 . S
O193 C195 1.258 . S
C194 O188 1.247 . S
C194 O189 1.258 . S
C195 O192 1.247 . S
C195 O193 1.258 . S
C196 O198 1.247 . S
C196 O200 1.258 . S
C197 O204 1.247 . S
C197 O205 1.258 . S
O198 C196 1.247 . S
O198 Zn199 2.028 . S
Zn199 O198 2.028 . S
Zn199 O203 2.035 . S
Zn199 O205 2.035 . S
Zn199 O206 2.028 . S
O200 C196 1.258 . S
O200 Zn201 2.035 . S
Zn201 O200 2.035 . S
Zn201 O202 2.028 . S
Zn201 O204 2.028 . S
Zn201 O207 2.035 . S
O202 Zn201 2.028 . S
O202 C208 1.247 . S
O203 Zn199 2.035 . S
O203 C208 1.258 . S
O204 C197 1.247 . S
O204 Zn201 2.028 . S
O205 C197 1.258 . S
O205 Zn199 2.035 . S
O206 Zn199 2.028 . S
O206 C209 1.247 . S
O207 Zn201 2.035 . S
O207 C209 1.258 . S
C208 O202 1.247 . S
C208 O203 1.258 . S
C209 O206 1.247 . S
C209 O207 1.258 . S
C210 O212 1.247 . S
C210 O214 1.258 . S
C211 O218 1.247 . S
C211 O219 1.258 . S
O212 C210 1.247 . S
O212 Zn213 2.028 . S
Zn213 O212 2.028 . S
Zn213 O217 2.035 . S
Zn213 O219 2.035 . S
Zn213 O220 2.028 . S
O214 C210 1.258 . S
O214 Zn215 2.035 . S
Zn215 O214 2.035 . S
Zn215 O216 2.028 . S
Zn215 O218 2.028 . S
Zn215 O221 2.035 . S
O216 Zn215 2.028 . S
O216 C222 1.247 . S
O217 Zn213 2.035 . S
O217 C222 1.258 . S
O218 C211 1.247 . S
O218 Zn215 2.028 . S
O219 C211 1.258 . S
O219 Zn213 2.035 . S
O220 Zn213 2.028 . S
O220 C223 1.247 . S
O221 Zn215 2.035 . S
O221 C223 1.258 . S
C222 O216 1.247 . S
C222 O217 1.258 . S
C223 O220 1.247 . S
C223 O221 1.258 . S
H224 C242 0.951 . S
H225 C244 0.951 . S
H226 C246 0.950 . S
H227 C247 0.950 . S
H228 C249 0.950 . S
H229 C252 0.950 . S
H230 C253 0.950 . S
H231 C255 0.950 . S
H232 C256 0.950 . S
H233 C257 0.951 . S
H234 C259 0.951 . S
H235 C261 0.950 . S
H236 C262 0.950 . S
H237 C264 0.950 . S
H238 C267 0.950 . S
H239 C268 0.950 . S
H240 C270 0.950 . S
H241 C271 0.950 . S
C242 H224 0.951 . S
C242 C243 1.366 . S
C242 C244 1.388 . S
C243 C242 1.366 . S
C243 C247 1.385 . S
C244 H225 0.951 . S
C244 C242 1.388 . S
C244 C245 1.366 . S
C245 C244 1.366 . S
C245 C246 1.414 . S
C245 C248 1.499 . S
C246 H226 0.950 . S
C246 C245 1.414 . S
C246 C247 1.374 . S
C247 H227 0.950 . S
C247 C243 1.385 . S
C247 C246 1.374 . S
C248 C245 1.499 . S
C248 C249 1.373 . S
C248 C250 1.389 . S
C249 H228 0.950 . S
C249 C248 1.373 . S
C249 C265 1.377 . S
C250 C248 1.389 . S
C250 C251 1.524 . S
C250 C264 1.377 . S
C251 C250 1.524 . S
C251 C252 1.397 . S
C251 C256 1.363 . S
C252 H229 0.950 . S
C252 C251 1.397 . S
C252 C253 1.334 . S
C253 H230 0.950 . S
C253 C252 1.334 . S
C253 C254 1.287 . S
C254 C253 1.287 . S
C254 C255 1.524 . S
C254 H273 0.913 . S
C255 H231 0.950 . S
C255 C254 1.524 . S
C255 C256 1.415 . S
C256 H232 0.950 . S
C256 C251 1.363 . S
C256 C255 1.415 . S
C257 H233 0.951 . S
C257 C258 1.366 . S
C257 C259 1.388 . S
C258 C257 1.366 . S
C258 C262 1.385 . S
C259 H234 0.951 . S
C259 C257 1.388 . S
C259 C260 1.366 . S
C260 C259 1.366 . S
C260 C261 1.414 . S
C260 C263 1.499 . S
C261 H235 0.950 . S
C261 C260 1.414 . S
C261 C262 1.374 . S
C262 H236 0.950 . S
C262 C258 1.385 . S
C262 C261 1.374 . S
C263 C260 1.499 . S
C263 C264 1.373 . S
C263 C265 1.389 . S
C264 H237 0.950 . S
C264 C250 1.377 . S
C264 C263 1.373 . S
C265 C249 1.377 . S
C265 C263 1.389 . S
C265 C266 1.524 . S
C266 C265 1.524 . S
C266 C267 1.397 . S
C266 C271 1.363 . S
C267 H238 0.950 . S
C267 C266 1.397 . S
C267 C268 1.334 . S
C268 H239 0.950 . S
C268 C267 1.334 . S
C268 C269 1.287 1_545 S
C269 C268 1.287 1_565 S
C269 C270 1.524 . S
C269 H272 0.999 . S
C270 H240 0.950 . S
C270 C269 1.524 . S
C270 C271 1.415 1_565 S
C271 H241 0.950 . S
C271 C266 1.363 . S
C271 C270 1.415 1_545 S
H272 C269 0.999 . S
H273 C254 0.913 . S
H274 C292 0.951 . S
H275 C294 0.951 . S
H276 C296 0.950 . S
H277 C297 0.950 . S
H278 C299 0.950 . S
H279 C302 0.950 . S
H280 C303 0.950 . S
H281 C305 0.950 . S
H282 C306 0.950 . S
H283 C307 0.951 . S
H284 C309 0.951 . S
H285 C311 0.950 . S
H286 C312 0.950 . S
H287 C314 0.950 . S
H288 C317 0.950 . S
H289 C318 0.950 . S
H290 C320 0.950 1_545 S
H291 C321 0.950 . S
C292 H274 0.951 . S
C292 C293 1.366 . S
C292 C294 1.388 . S
C293 C292 1.366 . S
C293 C297 1.385 . S
C294 H275 0.951 . S
C294 C292 1.388 . S
C294 C295 1.366 . S
C295 C294 1.366 . S
C295 C296 1.414 . S
C295 C298 1.499 . S
C296 H276 0.950 . S
C296 C295 1.414 . S
C296 C297 1.374 . S
C297 H277 0.950 . S
C297 C293 1.385 . S
C297 C296 1.374 . S
C298 C295 1.499 . S
C298 C299 1.373 . S
C298 C300 1.389 . S
C299 H278 0.950 . S
C299 C298 1.373 . S
C299 C315 1.377 . S
C300 C298 1.389 . S
C300 C301 1.524 . S
C300 C314 1.377 . S
C301 C300 1.524 . S
C301 C302 1.397 . S
C301 C306 1.363 . S
C302 H279 0.950 . S
C302 C301 1.397 . S
C302 C303 1.334 . S
C303 H280 0.950 . S
C303 C302 1.334 . S
C303 C304 1.287 . S
C304 C303 1.287 . S
C304 C305 1.524 . S
C304 H323 0.913 . S
C305 H281 0.950 . S
C305 C304 1.524 . S
C305 C306 1.415 . S
C306 H282 0.950 . S
C306 C301 1.363 . S
C306 C305 1.415 . S
C307 H283 0.951 . S
C307 C308 1.366 . S
C307 C309 1.388 . S
C308 C307 1.366 . S
C308 C312 1.385 . S
C309 H284 0.951 . S
C309 C307 1.388 . S
C309 C310 1.366 . S
C310 C309 1.366 . S
C310 C311 1.414 . S
C310 C313 1.499 . S
C311 H285 0.950 . S
C311 C310 1.414 . S
C311 C312 1.374 . S
C312 H286 0.950 . S
C312 C308 1.385 . S
C312 C311 1.374 . S
C313 C310 1.499 . S
C313 C314 1.373 . S
C313 C315 1.389 . S
C314 H287 0.950 . S
C314 C300 1.377 . S
C314 C313 1.373 . S
C315 C299 1.377 . S
C315 C313 1.389 . S
C315 C316 1.524 . S
C316 C315 1.524 . S
C316 C317 1.397 . S
C316 C321 1.363 . S
C317 H288 0.950 . S
C317 C316 1.397 . S
C317 C318 1.334 . S
C318 H289 0.950 . S
C318 C317 1.334 . S
C318 C319 1.287 . S
C319 C318 1.287 . S
C319 C320 1.524 . S
C319 H322 0.999 . S
C320 H290 0.950 1_565 S
C320 C319 1.524 . S
C320 C321 1.415 . S
C321 H291 0.950 . S
C321 C316 1.363 . S
C321 C320 1.415 . S
H322 C319 0.999 . S
H323 C304 0.913 . S
H324 C342 0.951 . S
H325 C344 0.951 . S
H326 C346 0.950 . S
H327 C347 0.950 . S
H328 C349 0.950 . S
H329 C352 0.950 . S
H330 C353 0.950 . S
H331 C355 0.950 . S
H332 C356 0.950 . S
H333 C357 0.951 . S
H334 C359 0.951 . S
H335 C361 0.950 . S
H336 C362 0.950 . S
H337 C364 0.950 . S
H338 C367 0.950 . S
H339 C368 0.950 . S
H340 C370 0.950 . S
H341 C371 0.950 . S
C342 H324 0.951 . S
C342 C343 1.366 . S
C342 C344 1.388 . S
C343 C342 1.366 . S
C343 C347 1.385 . S
C344 H325 0.951 . S
C344 C342 1.388 . S
C344 C345 1.366 . S
C345 C344 1.366 . S
C345 C346 1.414 . S
C345 C348 1.499 . S
C346 H326 0.950 . S
C346 C345 1.414 . S
C346 C347 1.374 . S
C347 H327 0.950 . S
C347 C343 1.385 . S
C347 C346 1.374 . S
C348 C345 1.499 . S
C348 C349 1.373 . S
C348 C350 1.389 . S
C349 H328 0.950 . S
C349 C348 1.373 . S
C349 C365 1.377 1_554 S
C350 C348 1.389 . S
C350 C351 1.524 . S
C350 C364 1.377 1_554 S
C351 C350 1.524 . S
C351 C352 1.397 . S
C351 C356 1.363 . S
C352 H329 0.950 . S
C352 C351 1.397 . S
C352 C353 1.334 1_565 S
C353 H330 0.950 . S
C353 C352 1.334 1_545 S
C353 C354 1.287 . S
C354 C353 1.287 . S
C354 C355 1.524 . S
C354 H373 0.913 . S
C355 H331 0.950 . S
C355 C354 1.524 . S
C355 C356 1.415 1_545 S
C356 H332 0.950 . S
C356 C351 1.363 . S
C356 C355 1.415 1_565 S
C357 H333 0.951 . S
C357 C358 1.366 . S
C357 C359 1.388 . S
C358 C357 1.366 . S
C358 C362 1.385 . S
C359 H334 0.951 . S
C359 C357 1.388 . S
C359 C360 1.366 . S
C360 C359 1.366 . S
C360 C361 1.414 . S
C360 C363 1.499 . S
C361 H335 0.950 . S
C361 C360 1.414 . S
C361 C362 1.374 . S
C362 H336 0.950 . S
C362 C358 1.385 . S
C362 C361 1.374 . S
C363 C360 1.499 . S
C363 C364 1.373 . S
C363 C365 1.389 . S
C364 H337 0.950 . S
C364 C350 1.377 1_556 S
C364 C363 1.373 . S
C365 C349 1.377 1_556 S
C365 C363 1.389 . S
C365 C366 1.524 . S
C366 C365 1.524 . S
C366 C367 1.397 . S
C366 C371 1.363 . S
C367 H338 0.950 . S
C367 C366 1.397 . S
C367 C368 1.334 . S
C368 H339 0.950 . S
C368 C367 1.334 . S
C368 C369 1.287 . S
C369 C368 1.287 . S
C369 C370 1.524 . S
C369 H372 0.999 . S
C370 H340 0.950 . S
C370 C369 1.524 . S
C370 C371 1.415 . S
C371 H341 0.950 . S
C371 C366 1.363 . S
C371 C370 1.415 . S
H372 C369 0.999 . S
H373 C354 0.913 . S
H374 C392 0.951 . S
H375 C394 0.951 . S
H376 C396 0.950 . S
H377 C397 0.950 . S
H378 C399 0.950 . S
H379 C402 0.950 . S
H380 C403 0.950 . S
H381 C405 0.950 . S
H382 C406 0.950 . S
H383 C407 0.951 . S
H384 C409 0.951 . S
H385 C411 0.950 . S
H386 C412 0.950 . S
H387 C414 0.950 . S
H388 C417 0.950 . S
H389 C418 0.950 . S
H390 C420 0.950 . S
H391 C421 0.950 . S
C392 H374 0.951 . S
C392 C393 1.366 . S
C392 C394 1.388 . S
C393 C392 1.366 . S
C393 C397 1.385 . S
C394 H375 0.951 . S
C394 C392 1.388 . S
C394 C395 1.366 . S
C395 C394 1.366 . S
C395 C396 1.414 . S
C395 C398 1.499 . S
C396 H376 0.950 . S
C396 C395 1.414 . S
C396 C397 1.374 . S
C397 H377 0.950 . S
C397 C393 1.385 . S
C397 C396 1.374 . S
C398 C395 1.499 . S
C398 C399 1.373 . S
C398 C400 1.389 . S
C399 H378 0.950 . S
C399 C398 1.373 . S
C399 C415 1.377 1_556 S
C400 C398 1.389 . S
C400 C401 1.524 . S
C400 C414 1.377 1_556 S
C401 C400 1.524 . S
C401 C402 1.397 . S
C401 C406 1.363 . S
C402 H379 0.950 . S
C402 C401 1.397 . S
C402 C403 1.334 . S
C403 H380 0.950 . S
C403 C402 1.334 . S
C403 C404 1.287 . S
C404 C403 1.287 . S
C404 C405 1.524 . S
C404 H423 0.913 . S
C405 H381 0.950 . S
C405 C404 1.524 . S
C405 C406 1.415 . S
C406 H382 0.950 . S
C406 C401 1.363 . S
C406 C405 1.415 . S
C407 H383 0.951 . S
C407 C408 1.366 . S
C407 C409 1.388 . S
C408 C407 1.366 . S
C408 C412 1.385 . S
C409 H384 0.951 . S
C409 C407 1.388 . S
C409 C410 1.366 . S
C410 C409 1.366 . S
C410 C411 1.414 . S
C410 C413 1.499 . S
C411 H385 0.950 . S
C411 C410 1.414 . S
C411 C412 1.374 . S
C412 H386 0.950 . S
C412 C408 1.385 . S
C412 C411 1.374 . S
C413 C410 1.499 . S
C413 C414 1.373 . S
C413 C415 1.389 . S
C414 H387 0.950 . S
C414 C400 1.377 1_554 S
C414 C413 1.373 . S
C415 C399 1.377 1_554 S
C415 C413 1.389 . S
C415 C416 1.524 . S
C416 C415 1.524 . S
C416 C417 1.397 . S
C416 C421 1.363 . S
C417 H388 0.950 . S
C417 C416 1.397 . S
C417 C418 1.334 1_545 S
C418 H389 0.950 . S
C418 C417 1.334 1_565 S
C418 C419 1.287 . S
C419 C418 1.287 . S
C419 C420 1.524 . S
C419 H422 0.999 . S
C420 H390 0.950 . S
C420 C419 1.524 . S
C420 C421 1.415 1_565 S
C421 H391 0.950 . S
C421 C416 1.363 . S
C421 C420 1.415 1_545 S
H422 C419 0.999 . S
H423 C404 0.913 . S
H424 C442 0.951 . S
H425 C444 0.951 . S
H426 C446 0.950 . S
H427 C447 0.950 . S
H428 C449 0.950 . S
H429 C452 0.950 . S
H430 C453 0.950 . S
H431 C455 0.950 . S
H432 C456 0.950 . S
H433 C457 0.951 . S
H434 C459 0.951 . S
H435 C461 0.950 . S
H436 C462 0.950 . S
H437 C464 0.950 . S
H438 C467 0.950 . S
H439 C468 0.950 . S
H440 C470 0.950 . S
H441 C471 0.950 . S
C442 H424 0.951 . S
C442 C443 1.366 . S
C442 C444 1.388 . S
C443 C442 1.366 . S
C443 C447 1.385 . S
C444 H425 0.951 . S
C444 C442 1.388 . S
C444 C445 1.366 . S
C445 C444 1.366 . S
C445 C446 1.414 . S
C445 C448 1.499 . S
C446 H426 0.950 . S
C446 C445 1.414 . S
C446 C447 1.374 . S
C447 H427 0.950 . S
C447 C443 1.385 . S
C447 C446 1.374 . S
C448 C445 1.499 . S
C448 C449 1.373 . S
C448 C450 1.389 . S
C449 H428 0.950 . S
C449 C448 1.373 . S
C449 C465 1.377 . S
C450 C448 1.389 . S
C450 C451 1.524 . S
C450 C464 1.377 . S
C451 C450 1.524 . S
C451 C452 1.397 . S
C451 C456 1.363 . S
C452 H429 0.950 . S
C452 C451 1.397 . S
C452 C453 1.334 . S
C453 H430 0.950 . S
C453 C452 1.334 . S
C453 C454 1.287 . S
C454 C453 1.287 . S
C454 C455 1.524 . S
C454 H473 0.913 . S
C455 H431 0.950 . S
C455 C454 1.524 . S
C455 C456 1.415 . S
C456 H432 0.950 . S
C456 C451 1.363 . S
C456 C455 1.415 . S
C457 H433 0.951 . S
C457 C458 1.366 . S
C457 C459 1.388 . S
C458 C457 1.366 . S
C458 C462 1.385 . S
C459 H434 0.951 . S
C459 C457 1.388 . S
C459 C460 1.366 . S
C460 C459 1.366 . S
C460 C461 1.414 . S
C460 C463 1.499 . S
C461 H435 0.950 . S
C461 C460 1.414 . S
C461 C462 1.374 . S
C462 H436 0.950 . S
C462 C458 1.385 . S
C462 C461 1.374 . S
C463 C460 1.499 . S
C463 C464 1.373 . S
C463 C465 1.389 . S
C464 H437 0.950 . S
C464 C450 1.377 . S
C464 C463 1.373 . S
C465 C449 1.377 . S
C465 C463 1.389 . S
C465 C466 1.524 . S
C466 C465 1.524 . S
C466 C467 1.397 . S
C466 C471 1.363 . S
C467 H438 0.950 . S
C467 C466 1.397 . S
C467 C468 1.334 . S
C468 H439 0.950 . S
C468 C467 1.334 . S
C468 C469 1.287 . S
C469 C468 1.287 . S
C469 C470 1.524 . S
C469 H472 0.999 . S
C470 H440 0.950 . S
C470 C469 1.524 . S
C470 C471 1.415 . S
C471 H441 0.950 . S
C471 C466 1.363 . S
C471 C470 1.415 . S
H472 C469 0.999 . S
H473 C454 0.913 . S
H474 C492 0.951 . S
H475 C494 0.951 . S
H476 C496 0.950 . S
H477 C497 0.950 . S
H478 C499 0.950 . S
H479 C502 0.950 . S
H480 C503 0.950 . S
H481 C505 0.950 . S
H482 C506 0.950 . S
H483 C507 0.951 . S
H484 C509 0.951 . S
H485 C511 0.950 . S
H486 C512 0.950 . S
H487 C514 0.950 . S
H488 C517 0.950 . S
H489 C518 0.950 . S
H490 C520 0.950 . S
H491 C521 0.950 . S
C492 H474 0.951 . S
C492 C493 1.366 . S
C492 C494 1.388 . S
C493 C492 1.366 . S
C493 C497 1.385 . S
C494 H475 0.951 . S
C494 C492 1.388 . S
C494 C495 1.366 . S
C495 C494 1.366 . S
C495 C496 1.414 . S
C495 C498 1.499 . S
C496 H476 0.950 . S
C496 C495 1.414 . S
C496 C497 1.374 . S
C497 H477 0.950 . S
C497 C493 1.385 . S
C497 C496 1.374 . S
C498 C495 1.499 . S
C498 C499 1.373 . S
C498 C500 1.389 . S
C499 H478 0.950 . S
C499 C498 1.373 . S
C499 C515 1.377 . S
C500 C498 1.389 . S
C500 C501 1.524 . S
C500 C514 1.377 . S
C501 C500 1.524 . S
C501 C502 1.397 . S
C501 C506 1.363 . S
C502 H479 0.950 . S
C502 C501 1.397 . S
C502 C503 1.334 . S
C503 H480 0.950 . S
C503 C502 1.334 . S
C503 C504 1.287 . S
C504 C503 1.287 . S
C504 C505 1.524 . S
C504 H523 0.913 . S
C505 H481 0.950 . S
C505 C504 1.524 . S
C505 C506 1.415 . S
C506 H482 0.950 . S
C506 C501 1.363 . S
C506 C505 1.415 . S
C507 H483 0.951 . S
C507 C508 1.366 . S
C507 C509 1.388 . S
C508 C507 1.366 . S
C508 C512 1.385 . S
C509 H484 0.951 . S
C509 C507 1.388 . S
C509 C510 1.366 . S
C510 C509 1.366 . S
C510 C511 1.414 . S
C510 C513 1.499 . S
C511 H485 0.950 . S
C511 C510 1.414 . S
C511 C512 1.374 . S
C512 H486 0.950 . S
C512 C508 1.385 . S
C512 C511 1.374 . S
C513 C510 1.499 . S
C513 C514 1.373 . S
C513 C515 1.389 . S
C514 H487 0.950 . S
C514 C500 1.377 . S
C514 C513 1.373 . S
C515 C499 1.377 . S
C515 C513 1.389 . S
C515 C516 1.524 . S
C516 C515 1.524 . S
C516 C517 1.397 . S
C516 C521 1.363 . S
C517 H488 0.950 . S
C517 C516 1.397 . S
C517 C518 1.334 . S
C518 H489 0.950 . S
C518 C517 1.334 . S
C518 C519 1.287 . S
C519 C518 1.287 . S
C519 C520 1.524 . S
C519 H522 0.999 . S
C520 H490 0.950 . S
C520 C519 1.524 . S
C520 C521 1.415 . S
C521 H491 0.950 . S
C521 C516 1.363 . S
C521 C520 1.415 . S
H522 C519 0.999 . S
H523 C504 0.913 . S
H524 C542 0.951 . S
H525 C544 0.951 . S
H526 C546 0.950 . S
H527 C547 0.950 . S
H528 C549 0.950 . S
H529 C552 0.950 . S
H530 C553 0.950 . S
H531 C555 0.950 . S
H532 C556 0.950 . S
H533 C557 0.951 . S
H534 C559 0.951 . S
H535 C561 0.950 . S
H536 C562 0.950 . S
H537 C564 0.950 . S
H538 C567 0.950 . S
H539 C568 0.950 . S
H540 C570 0.950 . S
H541 C571 0.950 . S
C542 H524 0.951 . S
C542 C543 1.366 . S
C542 C544 1.388 . S
C543 C542 1.366 . S
C543 C547 1.385 . S
C544 H525 0.951 . S
C544 C542 1.388 . S
C544 C545 1.366 . S
C545 C544 1.366 . S
C545 C546 1.414 . S
C545 C548 1.499 . S
C546 H526 0.950 . S
C546 C545 1.414 . S
C546 C547 1.374 . S
C547 H527 0.950 . S
C547 C543 1.385 . S
C547 C546 1.374 . S
C548 C545 1.499 . S
C548 C549 1.373 . S
C548 C550 1.389 . S
C549 H528 0.950 . S
C549 C548 1.373 . S
C549 C565 1.377 1_556 S
C550 C548 1.389 . S
C550 C551 1.524 . S
C550 C564 1.377 1_556 S
C551 C550 1.524 . S
C551 C552 1.397 . S
C551 C556 1.363 . S
C552 H529 0.950 . S
C552 C551 1.397 . S
C552 C553 1.334 . S
C553 H530 0.950 . S
C553 C552 1.334 . S
C553 C554 1.287 . S
C554 C553 1.287 . S
C554 C555 1.524 . S
C554 H573 0.913 . S
C555 H531 0.950 . S
C555 C554 1.524 . S
C555 C556 1.415 . S
C556 H532 0.950 . S
C556 C551 1.363 . S
C556 C555 1.415 . S
C557 H533 0.951 . S
C557 C558 1.366 . S
C557 C559 1.388 . S
C558 C557 1.366 . S
C558 C562 1.385 . S
C559 H534 0.951 . S
C559 C557 1.388 . S
C559 C560 1.366 . S
C560 C559 1.366 . S
C560 C561 1.414 . S
C560 C563 1.499 . S
C561 H535 0.950 . S
C561 C560 1.414 . S
C561 C562 1.374 . S
C562 H536 0.950 . S
C562 C558 1.385 . S
C562 C561 1.374 . S
C563 C560 1.499 . S
C563 C564 1.373 . S
C563 C565 1.389 . S
C564 H537 0.950 . S
C564 C550 1.377 1_554 S
C564 C563 1.373 . S
C565 C549 1.377 1_554 S
C565 C563 1.389 . S
C565 C566 1.524 . S
C566 C565 1.524 . S
C566 C567 1.397 . S
C566 C571 1.363 . S
C567 H538 0.950 . S
C567 C566 1.397 . S
C567 C568 1.334 . S
C568 H539 0.950 . S
C568 C567 1.334 . S
C568 C569 1.287 . S
C569 C568 1.287 . S
C569 C570 1.524 . S
C569 H572 0.999 . S
C570 H540 0.950 . S
C570 C569 1.524 . S
C570 C571 1.415 . S
C571 H541 0.950 . S
C571 C566 1.363 . S
C571 C570 1.415 . S
H572 C569 0.999 . S
H573 C554 0.913 . S
H574 C592 0.951 . S
H575 C594 0.951 . S
H576 C596 0.950 . S
H577 C597 0.950 . S
H578 C599 0.950 . S
H579 C602 0.950 . S
H580 C603 0.950 . S
H581 C605 0.950 . S
H582 C606 0.950 . S
H583 C607 0.951 . S
H584 C609 0.951 . S
H585 C611 0.950 . S
H586 C612 0.950 . S
H587 C614 0.950 . S
H588 C617 0.950 . S
H589 C618 0.950 . S
H590 C620 0.950 . S
H591 C621 0.950 . S
C592 H574 0.951 . S
C592 C593 1.366 . S
C592 C594 1.388 . S
C593 C592 1.366 . S
C593 C597 1.385 . S
C594 H575 0.951 . S
C594 C592 1.388 . S
C594 C595 1.366 . S
C595 C594 1.366 . S
C595 C596 1.414 . S
C595 C598 1.499 . S
C596 H576 0.950 . S
C596 C595 1.414 . S
C596 C597 1.374 . S
C597 H577 0.950 . S
C597 C593 1.385 . S
C597 C596 1.374 . S
C598 C595 1.499 . S
C598 C599 1.373 . S
C598 C600 1.389 . S
C599 H578 0.950 . S
C599 C598 1.373 . S
C599 C615 1.377 1_554 S
C600 C598 1.389 . S
C600 C601 1.524 . S
C600 C614 1.377 1_554 S
C601 C600 1.524 . S
C601 C602 1.397 . S
C601 C606 1.363 . S
C602 H579 0.950 . S
C602 C601 1.397 . S
C602 C603 1.334 . S
C603 H580 0.950 . S
C603 C602 1.334 . S
C603 C604 1.287 . S
C604 C603 1.287 . S
C604 C605 1.524 . S
C604 H623 0.913 . S
C605 H581 0.950 . S
C605 C604 1.524 . S
C605 C606 1.415 . S
C606 H582 0.950 . S
C606 C601 1.363 . S
C606 C605 1.415 . S
C607 H583 0.951 . S
C607 C608 1.366 . S
C607 C609 1.388 . S
C608 C607 1.366 . S
C608 C612 1.385 . S
C609 H584 0.951 . S
C609 C607 1.388 . S
C609 C610 1.366 . S
C610 C609 1.366 . S
C610 C611 1.414 . S
C610 C613 1.499 . S
C611 H585 0.950 . S
C611 C610 1.414 . S
C611 C612 1.374 . S
C612 H586 0.950 . S
C612 C608 1.385 . S
C612 C611 1.374 . S
C613 C610 1.499 . S
C613 C614 1.373 . S
C613 C615 1.389 . S
C614 H587 0.950 . S
C614 C600 1.377 1_556 S
C614 C613 1.373 . S
C615 C599 1.377 1_556 S
C615 C613 1.389 . S
C615 C616 1.524 . S
C616 C615 1.524 . S
C616 C617 1.397 . S
C616 C621 1.363 . S
C617 H588 0.950 . S
C617 C616 1.397 . S
C617 C618 1.334 . S
C618 H589 0.950 . S
C618 C617 1.334 . S
C618 C619 1.287 . S
C619 C618 1.287 . S
C619 C620 1.524 . S
C619 H622 0.999 . S
C620 H590 0.950 . S
C620 C619 1.524 . S
C620 C621 1.415 . S
C621 H591 0.950 . S
C621 C616 1.363 . S
C621 C620 1.415 . S
H622 C619 0.999 . S
H623 C604 0.913 . S
H624 C642 0.944 1_545 S
H625 C644 0.951 1_545 S
H626 C646 0.950 . S
H627 C647 0.950 . S
H628 C649 0.950 . S
H629 C652 0.950 . S
H630 C653 0.950 . S
H631 C655 0.950 . S
H632 C656 0.950 . S
H633 C657 0.944 1_565 S
H634 C659 0.951 1_565 S
H635 C661 0.950 . S
H636 C662 0.950 . S
H637 C664 0.950 . S
H638 C667 0.950 . S
H639 C668 0.950 . S
H640 C670 0.950 . S
H641 C671 0.950 . S
C642 H624 0.944 1_565 S
C642 C643 1.366 . S
C642 C644 1.388 . S
C643 C642 1.366 . S
C643 C647 1.385 . S
C644 H625 0.951 1_565 S
C644 C642 1.388 . S
C644 C645 1.366 . S
C645 C644 1.366 . S
C645 C646 1.414 . S
C645 C648 1.499 . S
C646 H626 0.950 . S
C646 C645 1.414 . S
C646 C647 1.374 . S
C647 H627 0.950 . S
C647 C643 1.385 . S
C647 C646 1.374 . S
C648 C645 1.499 . S
C648 C649 1.373 . S
C648 C650 1.389 1_565 S
C649 H628 0.950 . S
C649 C648 1.373 . S
C649 C665 1.377 . S
C650 C648 1.389 1_545 S
C650 C651 1.524 . S
C650 C664 1.377 . S
C651 C650 1.524 . S
C651 C652 1.397 . S
C651 C656 1.363 . S
C652 H629 0.950 . S
C652 C651 1.397 . S
C652 C653 1.334 . S
C653 H630 0.950 . S
C653 C652 1.334 . S
C653 C654 1.287 . S
C654 C653 1.287 . S
C654 C655 1.524 . S
C654 H673 0.913 . S
C655 H631 0.950 . S
C655 C654 1.524 . S
C655 C656 1.415 . S
C656 H632 0.950 . S
C656 C651 1.363 . S
C656 C655 1.415 . S
C657 H633 0.944 1_545 S
C657 C658 1.366 . S
C657 C659 1.388 . S
C658 C657 1.366 . S
C658 C662 1.385 . S
C659 H634 0.951 1_545 S
C659 C657 1.388 . S
C659 C660 1.366 . S
C660 C659 1.366 . S
C660 C661 1.414 . S
C660 C663 1.499 . S
C661 H635 0.950 . S
C661 C660 1.414 . S
C661 C662 1.374 . S
C662 H636 0.950 . S
C662 C658 1.385 . S
C662 C661 1.374 . S
C663 C660 1.499 . S
C663 C664 1.373 . S
C663 C665 1.389 1_545 S
C664 H637 0.950 . S
C664 C650 1.377 . S
C664 C663 1.373 . S
C665 C649 1.377 . S
C665 C663 1.389 1_565 S
C665 C666 1.524 . S
C666 C665 1.524 . S
C666 C667 1.397 . S
C666 C671 1.363 . S
C667 H638 0.950 . S
C667 C666 1.397 . S
C667 C668 1.334 . S
C668 H639 0.950 . S
C668 C667 1.334 . S
C668 C669 1.287 . S
C669 C668 1.287 . S
C669 C670 1.524 . S
C669 H672 0.999 . S
C670 H640 0.950 . S
C670 C669 1.524 . S
C670 C671 1.415 . S
C671 H641 0.950 . S
C671 C666 1.363 . S
C671 C670 1.415 . S
H672 C669 0.999 . S
H673 C654 0.913 . S
H674 C692 0.951 . S
H675 C694 0.951 . S
H676 C696 0.950 1_545 S
H677 C697 0.950 . S
H678 C699 0.950 . S
H679 C702 0.950 . S
H680 C703 0.950 1_545 S
H681 C705 0.950 . S
H682 C706 0.950 . S
H683 C707 0.951 . S
H684 C709 0.951 . S
H685 C711 0.950 1_565 S
H686 C712 0.950 . S
H687 C714 0.950 . S
H688 C717 0.950 . S
H689 C718 0.950 1_565 S
H690 C720 0.950 . S
H691 C721 0.950 . S
C692 H674 0.951 . S
C692 C693 1.366 . S
C692 C694 1.388 . S
C693 C692 1.366 . S
C693 C697 1.385 . S
C694 H675 0.951 . S
C694 C692 1.388 . S
C694 C695 1.366 . S
C695 C694 1.366 . S
C695 C696 1.414 . S
C695 C698 1.499 . S
C696 H676 0.950 1_565 S
C696 C695 1.414 . S
C696 C697 1.374 . S
C697 H677 0.950 . S
C697 C693 1.385 . S
C697 C696 1.374 . S
C698 C695 1.499 . S
C698 C699 1.373 1_565 S
C698 C700 1.389 . S
C699 H678 0.950 . S
C699 C698 1.373 1_545 S
C699 C715 1.377 . S
C700 C698 1.389 . S
C700 C701 1.524 . S
C700 C714 1.377 . S
C701 C700 1.524 . S
C701 C702 1.397 1_565 S
C701 C706 1.363 . S
C702 H679 0.950 . S
C702 C701 1.397 1_545 S
C702 C703 1.334 1_545 S
C703 H680 0.950 1_565 S
C703 C702 1.334 1_565 S
C703 C704 1.287 . S
C704 C703 1.287 . S
C704 C705 1.524 . S
C704 H723 0.913 . S
C705 H681 0.950 . S
C705 C704 1.524 . S
C705 C706 1.415 . S
C706 H682 0.950 . S
C706 C701 1.363 . S
C706 C705 1.415 . S
C707 H683 0.951 . S
C707 C708 1.366 . S
C707 C709 1.388 . S
C708 C707 1.366 . S
C708 C712 1.385 . S
C709 H684 0.951 . S
C709 C707 1.388 . S
C709 C710 1.366 . S
C710 C709 1.366 . S
C710 C711 1.414 . S
C710 C713 1.499 . S
C711 H685 0.950 1_545 S
C711 C710 1.414 . S
C711 C712 1.374 . S
C712 H686 0.950 . S
C712 C708 1.385 . S
C712 C711 1.374 . S
C713 C710 1.499 . S
C713 C714 1.373 1_545 S
C713 C715 1.389 . S
C714 H687 0.950 . S
C714 C700 1.377 . S
C714 C713 1.373 1_565 S
C715 C699 1.377 . S
C715 C713 1.389 . S
C715 C716 1.524 . S
C716 C715 1.524 . S
C716 C717 1.397 1_545 S
C716 C721 1.363 . S
C717 H688 0.950 . S
C717 C716 1.397 1_565 S
C717 C718 1.334 1_565 S
C718 H689 0.950 1_545 S
C718 C717 1.334 1_545 S
C718 C719 1.287 . S
C719 C718 1.287 . S
C719 C720 1.524 . S
C719 H722 0.999 . S
C720 H690 0.950 . S
C720 C719 1.524 . S
C720 C721 1.415 . S
C721 H691 0.950 . S
C721 C716 1.363 . S
C721 C720 1.415 . S
H722 C719 0.999 . S
H723 C704 0.913 . S
H724 C742 0.951 1_545 S
H725 C744 0.951 1_545 S
H726 C746 0.950 . S
H727 C747 0.950 . S
H728 C749 0.950 . S
H729 C752 0.950 . S
H730 C753 0.950 . S
H731 C755 0.950 . S
H732 C756 0.950 . S
H733 C757 0.951 1_565 S
H734 C759 0.951 1_565 S
H735 C761 0.950 . S
H736 C762 0.950 . S
H737 C764 0.950 . S
H738 C767 0.950 . S
H739 C768 0.950 . S
H740 C770 0.950 . S
H741 C771 0.950 . S
C742 H724 0.951 1_565 S
C742 C743 1.366 . S
C742 C744 1.388 . S
C743 C742 1.366 . S
C743 C747 1.385 . S
C744 H725 0.951 1_565 S
C744 C742 1.388 . S
C744 C745 1.366 . S
C745 C744 1.366 . S
C745 C746 1.414 . S
C745 C748 1.499 . S
C746 H726 0.950 . S
C746 C745 1.414 . S
C746 C747 1.374 . S
C747 H727 0.950 . S
C747 C743 1.385 . S
C747 C746 1.374 . S
C748 C745 1.499 . S
C748 C749 1.373 . S
C748 C750 1.389 1_565 S
C749 H728 0.950 . S
C749 C748 1.373 . S
C749 C765 1.377 . S
C750 C748 1.389 1_545 S
C750 C751 1.524 . S
C750 C764 1.377 . S
C751 C750 1.524 . S
C751 C752 1.397 1_545 S
C751 C756 1.363 . S
C752 H729 0.950 . S
C752 C751 1.397 1_565 S
C752 C753 1.334 . S
C753 H730 0.950 . S
C753 C752 1.334 . S
C753 C754 1.287 1_565 S
C754 C753 1.287 1_545 S
C754 C755 1.524 . S
C754 H773 0.913 . S
C755 H731 0.950 . S
C755 C754 1.524 . S
C755 C756 1.415 . S
C756 H732 0.950 . S
C756 C751 1.363 . S
C756 C755 1.415 . S
C757 H733 0.951 1_545 S
C757 C758 1.366 . S
C757 C759 1.388 . S
C758 C757 1.366 . S
C758 C762 1.385 . S
C759 H734 0.951 1_545 S
C759 C757 1.388 . S
C759 C760 1.366 . S
C760 C759 1.366 . S
C760 C761 1.414 . S
C760 C763 1.499 . S
C761 H735 0.950 . S
C761 C760 1.414 . S
C761 C762 1.374 . S
C762 H736 0.950 . S
C762 C758 1.385 . S
C762 C761 1.374 . S
C763 C760 1.499 . S
C763 C764 1.373 . S
C763 C765 1.389 1_545 S
C764 H737 0.950 . S
C764 C750 1.377 . S
C764 C763 1.373 . S
C765 C749 1.377 . S
C765 C763 1.389 1_565 S
C765 C766 1.524 . S
C766 C765 1.524 . S
C766 C767 1.397 1_565 S
C766 C771 1.363 . S
C767 H738 0.950 . S
C767 C766 1.397 1_545 S
C767 C768 1.334 . S
C768 H739 0.950 . S
C768 C767 1.334 . S
C768 C769 1.287 1_545 S
C769 C768 1.287 1_565 S
C769 C770 1.524 . S
C769 H772 0.999 . S
C770 H740 0.950 . S
C770 C769 1.524 . S
C770 C771 1.415 . S
C771 H741 0.950 . S
C771 C766 1.363 . S
C771 C770 1.415 . S
H772 C769 0.999 . S
H773 C754 0.913 . S
H774 C792 0.961 . S
H775 C794 0.951 1_565 S
H776 C796 0.950 . S
H777 C797 0.950 . S
H778 C799 0.950 . S
H779 C802 0.950 . S
H780 C803 0.950 . S
H781 C805 0.950 . S
H782 C806 0.950 . S
H783 C807 0.961 . S
H784 C809 0.951 1_545 S
H785 C811 0.950 . S
H786 C812 0.950 . S
H787 C814 0.950 . S
H788 C817 0.950 . S
H789 C818 0.950 . S
H790 C820 0.950 . S
H791 C821 0.950 . S
C792 H774 0.961 . S
C792 C793 1.366 . S
C792 C794 1.388 . S
C793 C792 1.366 . S
C793 C797 1.385 . S
C794 H775 0.951 1_545 S
C794 C792 1.388 . S
C794 C795 1.366 . S
C795 C794 1.366 . S
C795 C796 1.414 . S
C795 C798 1.499 . S
C796 H776 0.950 . S
C796 C795 1.414 . S
C796 C797 1.374 . S
C797 H777 0.950 . S
C797 C793 1.385 . S
C797 C796 1.374 . S
C798 C795 1.499 . S
C798 C799 1.373 . S
C798 C800 1.389 1_545 S
C799 H778 0.950 . S
C799 C798 1.373 . S
C799 C815 1.377 . S
C800 C798 1.389 1_565 S
C800 C801 1.524 . S
C800 C814 1.377 . S
C801 C800 1.524 . S
C801 C802 1.397 1_565 S
C801 C806 1.363 . S
C802 H779 0.950 . S
C802 C801 1.397 1_545 S
C802 C803 1.334 . S
C803 H780 0.950 . S
C803 C802 1.334 . S
C803 C804 1.287 . S
C804 C803 1.287 . S
C804 C805 1.524 1_545 S
C804 H823 0.913 . S
C805 H781 0.950 . S
C805 C804 1.524 1_565 S
C805 C806 1.415 . S
C806 H782 0.950 . S
C806 C801 1.363 . S
C806 C805 1.415 . S
C807 H783 0.961 . S
C807 C808 1.366 . S
C807 C809 1.388 . S
C808 C807 1.366 . S
C808 C812 1.385 . S
C809 H784 0.951 1_565 S
C809 C807 1.388 . S
C809 C810 1.366 . S
C810 C809 1.366 . S
C810 C811 1.414 . S
C810 C813 1.499 . S
C811 H785 0.950 . S
C811 C810 1.414 . S
C811 C812 1.374 . S
C812 H786 0.950 . S
C812 C808 1.385 . S
C812 C811 1.374 . S
C813 C810 1.499 . S
C813 C814 1.373 . S
C813 C815 1.389 1_565 S
C814 H787 0.950 . S
C814 C800 1.377 . S
C814 C813 1.373 . S
C815 C799 1.377 . S
C815 C813 1.389 1_545 S
C815 C816 1.524 . S
C816 C815 1.524 . S
C816 C817 1.397 1_545 S
C816 C821 1.363 . S
C817 H788 0.950 . S
C817 C816 1.397 1_565 S
C817 C818 1.334 . S
C818 H789 0.950 . S
C818 C817 1.334 . S
C818 C819 1.287 . S
C819 C818 1.287 . S
C819 C820 1.524 1_565 S
C819 H822 0.999 . S
C820 H790 0.950 . S
C820 C819 1.524 1_545 S
C820 C821 1.415 . S
C821 H791 0.950 . S
C821 C816 1.363 . S
C821 C820 1.415 . S
H822 C819 0.999 . S
H823 C804 0.913 . S
H824 C842 0.951 . S
H825 C844 0.951 . S
H826 C846 0.950 . S
H827 C847 0.950 . S
H828 C849 0.950 . S
H829 C852 0.950 . S
H830 C853 0.950 . S
H831 C855 0.950 . S
H832 C856 0.950 . S
H833 C857 0.951 . S
H834 C859 0.951 . S
H835 C861 0.950 . S
H836 C862 0.950 . S
H837 C864 0.950 . S
H838 C867 0.950 . S
H839 C868 0.950 . S
H840 C870 0.950 . S
H841 C871 0.950 . S
C842 H824 0.951 . S
C842 C843 1.366 . S
C842 C844 1.388 . S
C843 C842 1.366 . S
C843 C847 1.385 . S
C844 H825 0.951 . S
C844 C842 1.388 . S
C844 C845 1.366 . S
C845 C844 1.366 . S
C845 C846 1.414 . S
C845 C848 1.499 . S
C846 H826 0.950 . S
C846 C845 1.414 . S
C846 C847 1.374 . S
C847 H827 0.950 . S
C847 C843 1.385 . S
C847 C846 1.374 . S
C848 C845 1.499 . S
C848 C849 1.373 . S
C848 C850 1.389 . S
C849 H828 0.950 . S
C849 C848 1.373 . S
C849 C865 1.377 1_655 S
C850 C848 1.389 . S
C850 C851 1.524 . S
C850 C864 1.377 1_655 S
C851 C850 1.524 . S
C851 C852 1.397 . S
C851 C856 1.363 . S
C852 H829 0.950 . S
C852 C851 1.397 . S
C852 C853 1.334 . S
C853 H830 0.950 . S
C853 C852 1.334 . S
C853 C854 1.287 . S
C854 C853 1.287 . S
C854 C855 1.524 . S
C854 H873 0.913 . S
C855 H831 0.950 . S
C855 C854 1.524 . S
C855 C856 1.415 . S
C856 H832 0.950 . S
C856 C851 1.363 . S
C856 C855 1.415 . S
C857 H833 0.951 . S
C857 C858 1.366 . S
C857 C859 1.388 . S
C858 C857 1.366 . S
C858 C862 1.385 . S
C859 H834 0.951 . S
C859 C857 1.388 . S
C859 C860 1.366 . S
C860 C859 1.366 . S
C860 C861 1.414 . S
C860 C863 1.499 . S
C861 H835 0.950 . S
C861 C860 1.414 . S
C861 C862 1.374 . S
C862 H836 0.950 . S
C862 C858 1.385 . S
C862 C861 1.374 . S
C863 C860 1.499 . S
C863 C864 1.373 . S
C863 C865 1.389 . S
C864 H837 0.950 . S
C864 C850 1.377 1_455 S
C864 C863 1.373 . S
C865 C849 1.377 1_455 S
C865 C863 1.389 . S
C865 C866 1.524 . S
C866 C865 1.524 . S
C866 C867 1.397 . S
C866 C871 1.363 . S
C867 H838 0.950 . S
C867 C866 1.397 . S
C867 C868 1.334 . S
C868 H839 0.950 . S
C868 C867 1.334 . S
C868 C869 1.287 . S
C869 C868 1.287 . S
C869 C870 1.524 . S
C869 H872 0.999 . S
C870 H840 0.950 . S
C870 C869 1.524 . S
C870 C871 1.415 . S
C871 H841 0.950 . S
C871 C866 1.363 . S
C871 C870 1.415 . S
H872 C869 0.999 . S
H873 C854 0.913 . S
H874 C892 0.951 . S
H875 C894 0.951 . S
H876 C896 0.950 . S
H877 C897 0.950 . S
H878 C899 0.950 . S
H879 C902 0.950 . S
H880 C903 0.950 . S
H881 C905 0.950 . S
H882 C906 0.950 . S
H883 C907 0.951 . S
H884 C909 0.951 . S
H885 C911 0.950 . S
H886 C912 0.950 . S
H887 C914 0.950 . S
H888 C917 0.950 . S
H889 C918 0.950 . S
H890 C920 0.950 . S
H891 C921 0.950 . S
C892 H874 0.951 . S
C892 C893 1.366 . S
C892 C894 1.388 . S
C893 C892 1.366 . S
C893 C897 1.385 . S
C894 H875 0.951 . S
C894 C892 1.388 . S
C894 C895 1.366 . S
C895 C894 1.366 . S
C895 C896 1.414 . S
C895 C898 1.499 . S
C896 H876 0.950 . S
C896 C895 1.414 . S
C896 C897 1.374 . S
C897 H877 0.950 . S
C897 C893 1.385 . S
C897 C896 1.374 . S
C898 C895 1.499 . S
C898 C899 1.373 . S
C898 C900 1.389 . S
C899 H878 0.950 . S
C899 C898 1.373 . S
C899 C915 1.377 1_455 S
C900 C898 1.389 . S
C900 C901 1.524 . S
C900 C914 1.377 1_455 S
C901 C900 1.524 . S
C901 C902 1.397 . S
C901 C906 1.363 . S
C902 H879 0.950 . S
C902 C901 1.397 . S
C902 C903 1.334 . S
C903 H880 0.950 . S
C903 C902 1.334 . S
C903 C904 1.287 . S
C904 C903 1.287 . S
C904 C905 1.524 . S
C904 H923 0.913 . S
C905 H881 0.950 . S
C905 C904 1.524 . S
C905 C906 1.415 . S
C906 H882 0.950 . S
C906 C901 1.363 . S
C906 C905 1.415 . S
C907 H883 0.951 . S
C907 C908 1.366 . S
C907 C909 1.388 . S
C908 C907 1.366 . S
C908 C912 1.385 . S
C909 H884 0.951 . S
C909 C907 1.388 . S
C909 C910 1.366 . S
C910 C909 1.366 . S
C910 C911 1.414 . S
C910 C913 1.499 . S
C911 H885 0.950 . S
C911 C910 1.414 . S
C911 C912 1.374 . S
C912 H886 0.950 . S
C912 C908 1.385 . S
C912 C911 1.374 . S
C913 C910 1.499 . S
C913 C914 1.373 . S
C913 C915 1.389 . S
C914 H887 0.950 . S
C914 C900 1.377 1_655 S
C914 C913 1.373 . S
C915 C899 1.377 1_655 S
C915 C913 1.389 . S
C915 C916 1.524 . S
C916 C915 1.524 . S
C916 C917 1.397 . S
C916 C921 1.363 . S
C917 H888 0.950 . S
C917 C916 1.397 . S
C917 C918 1.334 . S
C918 H889 0.950 . S
C918 C917 1.334 . S
C918 C919 1.287 . S
C919 C918 1.287 . S
C919 C920 1.524 . S
C919 H922 0.999 . S
C920 H890 0.950 . S
C920 C919 1.524 . S
C920 C921 1.415 . S
C921 H891 0.950 . S
C921 C916 1.363 . S
C921 C920 1.415 . S
H922 C919 0.999 . S
H923 C904 0.913 . S
H924 C942 0.951 . S
H925 C944 0.951 . S
H926 C946 0.950 . S
H927 C947 0.950 . S
H928 C949 0.950 . S
H929 C952 0.950 . S
H930 C953 0.950 . S
H931 C955 0.950 . S
H932 C956 0.950 . S
H933 C957 0.951 . S
H934 C959 0.951 . S
H935 C961 0.950 . S
H936 C962 0.950 . S
H937 C964 0.950 . S
H938 C967 0.950 . S
H939 C968 0.950 . S
H940 C970 0.950 . S
H941 C971 0.950 . S
C942 H924 0.951 . S
C942 C943 1.366 . S
C942 C944 1.388 . S
C943 C942 1.366 . S
C943 C947 1.385 . S
C944 H925 0.951 . S
C944 C942 1.388 . S
C944 C945 1.366 . S
C945 C944 1.366 . S
C945 C946 1.414 . S
C945 C948 1.499 . S
C946 H926 0.950 . S
C946 C945 1.414 . S
C946 C947 1.374 . S
C947 H927 0.950 . S
C947 C943 1.385 . S
C947 C946 1.374 . S
C948 C945 1.499 . S
C948 C949 1.373 . S
C948 C950 1.389 . S
C949 H928 0.950 . S
C949 C948 1.373 . S
C949 C965 1.377 1_655 S
C950 C948 1.389 . S
C950 C951 1.524 . S
C950 C964 1.377 1_655 S
C951 C950 1.524 . S
C951 C952 1.397 . S
C951 C956 1.363 . S
C952 H929 0.950 . S
C952 C951 1.397 . S
C952 C953 1.334 . S
C953 H930 0.950 . S
C953 C952 1.334 . S
C953 C954 1.287 . S
C954 C953 1.287 . S
C954 C955 1.524 . S
C954 H973 0.913 . S
C955 H931 0.950 . S
C955 C954 1.524 . S
C955 C956 1.415 . S
C956 H932 0.950 . S
C956 C951 1.363 . S
C956 C955 1.415 . S
C957 H933 0.951 . S
C957 C958 1.366 . S
C957 C959 1.388 . S
C958 C957 1.366 . S
C958 C962 1.385 . S
C959 H934 0.951 . S
C959 C957 1.388 . S
C959 C960 1.366 . S
C960 C959 1.366 . S
C960 C961 1.414 . S
C960 C963 1.499 . S
C961 H935 0.950 . S
C961 C960 1.414 . S
C961 C962 1.374 . S
C962 H936 0.950 . S
C962 C958 1.385 . S
C962 C961 1.374 . S
C963 C960 1.499 . S
C963 C964 1.373 . S
C963 C965 1.389 . S
C964 H937 0.950 . S
C964 C950 1.377 1_455 S
C964 C963 1.373 . S
C965 C949 1.377 1_455 S
C965 C963 1.389 . S
C965 C966 1.524 . S
C966 C965 1.524 . S
C966 C967 1.397 . S
C966 C971 1.363 . S
C967 H938 0.950 . S
C967 C966 1.397 . S
C967 C968 1.334 . S
C968 H939 0.950 . S
C968 C967 1.334 . S
C968 C969 1.287 . S
C969 C968 1.287 . S
C969 C970 1.524 . S
C969 H972 0.999 . S
C970 H940 0.950 . S
C970 C969 1.524 . S
C970 C971 1.415 . S
C971 H941 0.950 . S
C971 C966 1.363 . S
C971 C970 1.415 . S
H972 C969 0.999 . S
H973 C954 0.913 . S
H974 C992 0.951 . S
H975 C994 0.951 . S
H976 C996 0.950 . S
H977 C997 0.950 . S
H978 C999 0.950 . S
H979 C1002 0.950 . S
H980 C1003 0.950 . S
H981 C1005 0.950 . S
H982 C1006 0.950 . S
H983 C1007 0.951 . S
H984 C1009 0.951 . S
H985 C1011 0.950 . S
H986 C1012 0.950 . S
H987 C1014 0.950 . S
H988 C1017 0.950 . S
H989 C1018 0.950 . S
H990 C1020 0.950 . S
H991 C1021 0.950 . S
C992 H974 0.951 . S
C992 C993 1.366 . S
C992 C994 1.388 . S
C993 C992 1.366 . S
C993 C997 1.385 . S
C994 H975 0.951 . S
C994 C992 1.388 . S
C994 C995 1.366 . S
C995 C994 1.366 . S
C995 C996 1.414 . S
C995 C998 1.499 . S
C996 H976 0.950 . S
C996 C995 1.414 . S
C996 C997 1.374 . S
C997 H977 0.950 . S
C997 C993 1.385 . S
C997 C996 1.374 . S
C998 C995 1.499 . S
C998 C999 1.373 . S
C998 C1000 1.389 . S
C999 H978 0.950 . S
C999 C998 1.373 . S
C999 C1015 1.377 1_455 S
C1000 C998 1.389 . S
C1000 C1001 1.524 . S
C1000 C1014 1.377 1_455 S
C1001 C1000 1.524 . S
C1001 C1002 1.397 . S
C1001 C1006 1.363 . S
C1002 H979 0.950 . S
C1002 C1001 1.397 . S
C1002 C1003 1.334 . S
C1003 H980 0.950 . S
C1003 C1002 1.334 . S
C1003 C1004 1.287 . S
C1004 C1003 1.287 . S
C1004 C1005 1.524 . S
C1004 H1023 0.913 . S
C1005 H981 0.950 . S
C1005 C1004 1.524 . S
C1005 C1006 1.415 . S
C1006 H982 0.950 . S
C1006 C1001 1.363 . S
C1006 C1005 1.415 . S
C1007 H983 0.951 . S
C1007 C1008 1.366 . S
C1007 C1009 1.388 . S
C1008 C1007 1.366 . S
C1008 C1012 1.385 . S
C1009 H984 0.951 . S
C1009 C1007 1.388 . S
C1009 C1010 1.366 . S
C1010 C1009 1.366 . S
C1010 C1011 1.414 . S
C1010 C1013 1.499 . S
C1011 H985 0.950 . S
C1011 C1010 1.414 . S
C1011 C1012 1.374 . S
C1012 H986 0.950 . S
C1012 C1008 1.385 . S
C1012 C1011 1.374 . S
C1013 C1010 1.499 . S
C1013 C1014 1.373 . S
C1013 C1015 1.389 . S
C1014 H987 0.950 . S
C1014 C1000 1.377 1_655 S
C1014 C1013 1.373 . S
C1015 C999 1.377 1_655 S
C1015 C1013 1.389 . S
C1015 C1016 1.524 . S
C1016 C1015 1.524 . S
C1016 C1017 1.397 . S
C1016 C1021 1.363 . S
C1017 H988 0.950 . S
C1017 C1016 1.397 . S
C1017 C1018 1.334 . S
C1018 H989 0.950 . S
C1018 C1017 1.334 . S
C1018 C1019 1.287 . S
C1019 C1018 1.287 . S
C1019 C1020 1.524 . S
C1019 H1022 0.999 . S
C1020 H990 0.950 . S
C1020 C1019 1.524 . S
C1020 C1021 1.415 . S
C1021 H991 0.950 . S
C1021 C1016 1.363 . S
C1021 C1020 1.415 . S
H1022 C1019 0.999 . S
H1023 C1004 0.913 . S
H1024 C1042 0.951 . S
H1025 C1044 0.951 . S
H1026 C1046 0.950 . S
H1027 C1047 0.950 . S
H1028 C1049 0.950 . S
H1029 C1052 0.950 . S
H1030 C1053 0.950 . S
H1031 C1055 0.950 . S
H1032 C1056 0.950 . S
H1033 C1057 0.951 . S
H1034 C1059 0.951 . S
H1035 C1061 0.950 . S
H1036 C1062 0.950 . S
H1037 C1064 0.950 . S
H1038 C1067 0.950 . S
H1039 C1068 0.950 . S
H1040 C1070 0.950 . S
H1041 C1071 0.950 . S
C1042 H1024 0.951 . S
C1042 C1043 1.366 . S
C1042 C1044 1.388 . S
C1043 C1042 1.366 . S
C1043 C1047 1.385 . S
C1044 H1025 0.951 . S
C1044 C1042 1.388 . S
C1044 C1045 1.366 . S
C1045 C1044 1.366 . S
C1045 C1046 1.414 . S
C1045 C1048 1.499 . S
C1046 H1026 0.950 . S
C1046 C1045 1.414 . S
C1046 C1047 1.374 . S
C1047 H1027 0.950 . S
C1047 C1043 1.385 . S
C1047 C1046 1.374 . S
C1048 C1045 1.499 . S
C1048 C1049 1.373 . S
C1048 C1050 1.389 . S
C1049 H1028 0.950 . S
C1049 C1048 1.373 . S
C1049 C1065 1.377 . S
C1050 C1048 1.389 . S
C1050 C1051 1.524 . S
C1050 C1064 1.377 . S
C1051 C1050 1.524 . S
C1051 C1052 1.397 . S
C1051 C1056 1.363 . S
C1052 H1029 0.950 . S
C1052 C1051 1.397 . S
C1052 C1053 1.334 . S
C1053 H1030 0.950 . S
C1053 C1052 1.334 . S
C1053 C1054 1.287 . S
C1054 C1053 1.287 . S
C1054 C1055 1.524 . S
C1054 H1073 0.913 . S
C1055 H1031 0.950 . S
C1055 C1054 1.524 . S
C1055 C1056 1.415 . S
C1056 H1032 0.950 . S
C1056 C1051 1.363 . S
C1056 C1055 1.415 . S
C1057 H1033 0.951 . S
C1057 C1058 1.366 . S
C1057 C1059 1.388 . S
C1058 C1057 1.366 . S
C1058 C1062 1.385 . S
C1059 H1034 0.951 . S
C1059 C1057 1.388 . S
C1059 C1060 1.366 . S
C1060 C1059 1.366 . S
C1060 C1061 1.414 . S
C1060 C1063 1.499 . S
C1061 H1035 0.950 . S
C1061 C1060 1.414 . S
C1061 C1062 1.374 . S
C1062 H1036 0.950 . S
C1062 C1058 1.385 . S
C1062 C1061 1.374 . S
C1063 C1060 1.499 . S
C1063 C1064 1.373 . S
C1063 C1065 1.389 . S
C1064 H1037 0.950 . S
C1064 C1050 1.377 . S
C1064 C1063 1.373 . S
C1065 C1049 1.377 . S
C1065 C1063 1.389 . S
C1065 C1066 1.524 . S
C1066 C1065 1.524 . S
C1066 C1067 1.397 . S
C1066 C1071 1.363 . S
C1067 H1038 0.950 . S
C1067 C1066 1.397 . S
C1067 C1068 1.334 . S
C1068 H1039 0.950 . S
C1068 C1067 1.334 . S
C1068 C1069 1.287 . S
C1069 C1068 1.287 . S
C1069 C1070 1.524 . S
C1069 H1072 0.999 . S
C1070 H1040 0.950 . S
C1070 C1069 1.524 . S
C1070 C1071 1.415 . S
C1071 H1041 0.950 . S
C1071 C1066 1.363 . S
C1071 C1070 1.415 . S
H1072 C1069 0.999 . S
H1073 C1054 0.913 . S
H1074 C1092 0.951 . S
H1075 C1094 0.951 . S
H1076 C1096 0.950 . S
H1077 C1097 0.950 . S
H1078 C1099 0.950 . S
H1079 C1102 0.950 . S
H1080 C1103 0.950 . S
H1081 C1105 0.950 . S
H1082 C1106 0.950 . S
H1083 C1107 0.951 . S
H1084 C1109 0.951 . S
H1085 C1111 0.950 . S
H1086 C1112 0.950 . S
H1087 C1114 0.950 . S
H1088 C1117 0.950 . S
H1089 C1118 0.950 . S
H1090 C1120 0.950 . S
H1091 C1121 0.950 . S
C1092 H1074 0.951 . S
C1092 C1093 1.366 . S
C1092 C1094 1.388 . S
C1093 C1092 1.366 . S
C1093 C1097 1.385 . S
C1094 H1075 0.951 . S
C1094 C1092 1.388 . S
C1094 C1095 1.366 . S
C1095 C1094 1.366 . S
C1095 C1096 1.414 . S
C1095 C1098 1.499 . S
C1096 H1076 0.950 . S
C1096 C1095 1.414 . S
C1096 C1097 1.374 . S
C1097 H1077 0.950 . S
C1097 C1093 1.385 . S
C1097 C1096 1.374 . S
C1098 C1095 1.499 . S
C1098 C1099 1.373 . S
C1098 C1100 1.389 . S
C1099 H1078 0.950 . S
C1099 C1098 1.373 . S
C1099 C1115 1.377 . S
C1100 C1098 1.389 . S
C1100 C1101 1.524 . S
C1100 C1114 1.377 . S
C1101 C1100 1.524 . S
C1101 C1102 1.397 . S
C1101 C1106 1.363 . S
C1102 H1079 0.950 . S
C1102 C1101 1.397 . S
C1102 C1103 1.334 . S
C1103 H1080 0.950 . S
C1103 C1102 1.334 . S
C1103 C1104 1.287 . S
C1104 C1103 1.287 . S
C1104 C1105 1.524 . S
C1104 H1123 0.913 . S
C1105 H1081 0.950 . S
C1105 C1104 1.524 . S
C1105 C1106 1.415 . S
C1106 H1082 0.950 . S
C1106 C1101 1.363 . S
C1106 C1105 1.415 . S
C1107 H1083 0.951 . S
C1107 C1108 1.366 . S
C1107 C1109 1.388 . S
C1108 C1107 1.366 . S
C1108 C1112 1.385 . S
C1109 H1084 0.951 . S
C1109 C1107 1.388 . S
C1109 C1110 1.366 . S
C1110 C1109 1.366 . S
C1110 C1111 1.414 . S
C1110 C1113 1.499 . S
C1111 H1085 0.950 . S
C1111 C1110 1.414 . S
C1111 C1112 1.374 . S
C1112 H1086 0.950 . S
C1112 C1108 1.385 . S
C1112 C1111 1.374 . S
C1113 C1110 1.499 . S
C1113 C1114 1.373 . S
C1113 C1115 1.389 . S
C1114 H1087 0.950 . S
C1114 C1100 1.377 . S
C1114 C1113 1.373 . S
C1115 C1099 1.377 . S
C1115 C1113 1.389 . S
C1115 C1116 1.524 . S
C1116 C1115 1.524 . S
C1116 C1117 1.397 . S
C1116 C1121 1.363 . S
C1117 H1088 0.950 . S
C1117 C1116 1.397 . S
C1117 C1118 1.334 . S
C1118 H1089 0.950 . S
C1118 C1117 1.334 . S
C1118 C1119 1.287 . S
C1119 C1118 1.287 . S
C1119 C1120 1.524 . S
C1119 H1122 0.999 . S
C1120 H1090 0.950 . S
C1120 C1119 1.524 . S
C1120 C1121 1.415 . S
C1121 H1091 0.950 . S
C1121 C1116 1.363 . S
C1121 C1120 1.415 . S
H1122 C1119 0.999 . S
H1123 C1104 0.913 . S
H1124 C1142 0.951 . S
H1125 C1144 0.951 . S
H1126 C1146 0.950 . S
H1127 C1147 0.950 . S
H1128 C1149 0.950 . S
H1129 C1152 0.950 . S
H1130 C1153 0.950 . S
H1131 C1155 0.950 . S
H1132 C1156 0.950 . S
H1133 C1157 0.951 . S
H1134 C1159 0.951 . S
H1135 C1161 0.950 . S
H1136 C1162 0.950 . S
H1137 C1164 0.950 . S
H1138 C1167 0.950 . S
H1139 C1168 0.950 . S
H1140 C1170 0.950 . S
H1141 C1171 0.950 . S
C1142 H1124 0.951 . S
C1142 C1143 1.366 . S
C1142 C1144 1.388 . S
C1143 C1142 1.366 . S
C1143 C1147 1.385 . S
C1144 H1125 0.951 . S
C1144 C1142 1.388 . S
C1144 C1145 1.366 . S
C1145 C1144 1.366 . S
C1145 C1146 1.414 . S
C1145 C1148 1.499 . S
C1146 H1126 0.950 . S
C1146 C1145 1.414 . S
C1146 C1147 1.374 . S
C1147 H1127 0.950 . S
C1147 C1143 1.385 . S
C1147 C1146 1.374 . S
C1148 C1145 1.499 . S
C1148 C1149 1.373 . S
C1148 C1150 1.389 . S
C1149 H1128 0.950 . S
C1149 C1148 1.373 . S
C1149 C1165 1.377 . S
C1150 C1148 1.389 . S
C1150 C1151 1.524 . S
C1150 C1164 1.377 . S
C1151 C1150 1.524 . S
C1151 C1152 1.397 . S
C1151 C1156 1.363 . S
C1152 H1129 0.950 . S
C1152 C1151 1.397 . S
C1152 C1153 1.334 . S
C1153 H1130 0.950 . S
C1153 C1152 1.334 . S
C1153 C1154 1.287 . S
C1154 C1153 1.287 . S
C1154 C1155 1.524 . S
C1154 H1173 0.913 . S
C1155 H1131 0.950 . S
C1155 C1154 1.524 . S
C1155 C1156 1.415 . S
C1156 H1132 0.950 . S
C1156 C1151 1.363 . S
C1156 C1155 1.415 . S
C1157 H1133 0.951 . S
C1157 C1158 1.366 . S
C1157 C1159 1.388 . S
C1158 C1157 1.366 . S
C1158 C1162 1.385 . S
C1159 H1134 0.951 . S
C1159 C1157 1.388 . S
C1159 C1160 1.366 . S
C1160 C1159 1.366 . S
C1160 C1161 1.414 . S
C1160 C1163 1.499 . S
C1161 H1135 0.950 . S
C1161 C1160 1.414 . S
C1161 C1162 1.374 . S
C1162 H1136 0.950 . S
C1162 C1158 1.385 . S
C1162 C1161 1.374 . S
C1163 C1160 1.499 . S
C1163 C1164 1.373 . S
C1163 C1165 1.389 . S
C1164 H1137 0.950 . S
C1164 C1150 1.377 . S
C1164 C1163 1.373 . S
C1165 C1149 1.377 . S
C1165 C1163 1.389 . S
C1165 C1166 1.524 . S
C1166 C1165 1.524 . S
C1166 C1167 1.397 . S
C1166 C1171 1.363 . S
C1167 H1138 0.950 . S
C1167 C1166 1.397 . S
C1167 C1168 1.334 . S
C1168 H1139 0.950 . S
C1168 C1167 1.334 . S
C1168 C1169 1.287 . S
C1169 C1168 1.287 . S
C1169 C1170 1.524 . S
C1169 H1172 0.999 . S
C1170 H1140 0.950 . S
C1170 C1169 1.524 . S
C1170 C1171 1.415 . S
C1171 H1141 0.950 . S
C1171 C1166 1.363 . S
C1171 C1170 1.415 . S
H1172 C1169 0.999 . S
H1173 C1154 0.913 . S
H1174 C1192 0.951 . S
H1175 C1194 0.951 . S
H1176 C1196 0.950 . S
H1177 C1197 0.950 . S
H1178 C1199 0.950 . S
H1179 C1202 0.950 . S
H1180 C1203 0.950 . S
H1181 C1205 0.950 . S
H1182 C1206 0.950 . S
H1183 C1207 0.951 . S
H1184 C1209 0.951 . S
H1185 C1211 0.950 . S
H1186 C1212 0.950 . S
H1187 C1214 0.950 . S
H1188 C1217 0.950 . S
H1189 C1218 0.950 . S
H1190 C1220 0.950 . S
H1191 C1221 0.950 . S
C1192 H1174 0.951 . S
C1192 C1193 1.366 . S
C1192 C1194 1.388 . S
C1193 C1192 1.366 . S
C1193 C1197 1.385 . S
C1194 H1175 0.951 . S
C1194 C1192 1.388 . S
C1194 C1195 1.366 . S
C1195 C1194 1.366 . S
C1195 C1196 1.414 . S
C1195 C1198 1.499 . S
C1196 H1176 0.950 . S
C1196 C1195 1.414 . S
C1196 C1197 1.374 . S
C1197 H1177 0.950 . S
C1197 C1193 1.385 . S
C1197 C1196 1.374 . S
C1198 C1195 1.499 . S
C1198 C1199 1.373 . S
C1198 C1200 1.389 . S
C1199 H1178 0.950 . S
C1199 C1198 1.373 . S
C1199 C1215 1.377 . S
C1200 C1198 1.389 . S
C1200 C1201 1.524 . S
C1200 C1214 1.377 . S
C1201 C1200 1.524 . S
C1201 C1202 1.397 . S
C1201 C1206 1.363 . S
C1202 H1179 0.950 . S
C1202 C1201 1.397 . S
C1202 C1203 1.334 . S
C1203 H1180 0.950 . S
C1203 C1202 1.334 . S
C1203 C1204 1.287 . S
C1204 C1203 1.287 . S
C1204 C1205 1.524 . S
C1204 H1223 0.913 . S
C1205 H1181 0.950 . S
C1205 C1204 1.524 . S
C1205 C1206 1.415 . S
C1206 H1182 0.950 . S
C1206 C1201 1.363 . S
C1206 C1205 1.415 . S
C1207 H1183 0.951 . S
C1207 C1208 1.366 . S
C1207 C1209 1.388 . S
C1208 C1207 1.366 . S
C1208 C1212 1.385 . S
C1209 H1184 0.951 . S
C1209 C1207 1.388 . S
C1209 C1210 1.366 . S
C1210 C1209 1.366 . S
C1210 C1211 1.414 . S
C1210 C1213 1.499 . S
C1211 H1185 0.950 . S
C1211 C1210 1.414 . S
C1211 C1212 1.374 . S
C1212 H1186 0.950 . S
C1212 C1208 1.385 . S
C1212 C1211 1.374 . S
C1213 C1210 1.499 . S
C1213 C1214 1.373 . S
C1213 C1215 1.389 . S
C1214 H1187 0.950 . S
C1214 C1200 1.377 . S
C1214 C1213 1.373 . S
C1215 C1199 1.377 . S
C1215 C1213 1.389 . S
C1215 C1216 1.524 . S
C1216 C1215 1.524 . S
C1216 C1217 1.397 . S
C1216 C1221 1.363 . S
C1217 H1188 0.950 . S
C1217 C1216 1.397 . S
C1217 C1218 1.334 . S
C1218 H1189 0.950 . S
C1218 C1217 1.334 . S
C1218 C1219 1.287 . S
C1219 C1218 1.287 . S
C1219 C1220 1.524 . S
C1219 H1222 0.999 . S
C1220 H1190 0.950 . S
C1220 C1219 1.524 . S
C1220 C1221 1.415 . S
C1221 H1191 0.950 . S
C1221 C1216 1.363 . S
C1221 C1220 1.415 . S
H1222 C1219 0.999 . S
H1223 C1204 0.913 . S
H1224 C1242 0.951 . S
H1225 C1244 0.951 . S
H1226 C1246 0.950 . S
H1227 C1247 0.950 . S
H1228 C1249 0.950 . S
H1229 C1252 0.950 . S
H1230 C1253 0.950 . S
H1231 C1255 0.950 . S
H1232 C1256 0.950 . S
H1233 C1257 0.951 . S
H1234 C1259 0.951 . S
H1235 C1261 0.950 . S
H1236 C1262 0.950 . S
H1237 C1264 0.950 . S
H1238 C1267 0.950 . S
H1239 C1268 0.950 . S
H1240 C1270 0.950 . S
H1241 C1271 0.950 . S
C1242 H1224 0.951 . S
C1242 C1243 1.366 . S
C1242 C1244 1.388 . S
C1243 C1242 1.366 . S
C1243 C1247 1.385 . S
C1244 H1225 0.951 . S
C1244 C1242 1.388 . S
C1244 C1245 1.366 . S
C1245 C1244 1.366 . S
C1245 C1246 1.414 . S
C1245 C1248 1.499 . S
C1246 H1226 0.950 . S
C1246 C1245 1.414 . S
C1246 C1247 1.374 . S
C1247 H1227 0.950 . S
C1247 C1243 1.385 . S
C1247 C1246 1.374 . S
C1248 C1245 1.499 . S
C1248 C1249 1.373 . S
C1248 C1250 1.389 . S
C1249 H1228 0.950 . S
C1249 C1248 1.373 . S
C1249 C1265 1.377 . S
C1250 C1248 1.389 . S
C1250 C1251 1.524 . S
C1250 C1264 1.377 . S
C1251 C1250 1.524 . S
C1251 C1252 1.397 . S
C1251 C1256 1.363 . S
C1252 H1229 0.950 . S
C1252 C1251 1.397 . S
C1252 C1253 1.334 . S
C1253 H1230 0.950 . S
C1253 C1252 1.334 . S
C1253 C1254 1.287 . S
C1254 C1253 1.287 . S
C1254 C1255 1.524 . S
C1254 H1273 0.913 . S
C1255 H1231 0.950 . S
C1255 C1254 1.524 . S
C1255 C1256 1.415 . S
C1256 H1232 0.950 . S
C1256 C1251 1.363 . S
C1256 C1255 1.415 . S
C1257 H1233 0.951 . S
C1257 C1258 1.366 . S
C1257 C1259 1.388 . S
C1258 C1257 1.366 . S
C1258 C1262 1.385 . S
C1259 H1234 0.951 . S
C1259 C1257 1.388 . S
C1259 C1260 1.366 . S
C1260 C1259 1.366 . S
C1260 C1261 1.414 . S
C1260 C1263 1.499 . S
C1261 H1235 0.950 . S
C1261 C1260 1.414 . S
C1261 C1262 1.374 . S
C1262 H1236 0.950 . S
C1262 C1258 1.385 . S
C1262 C1261 1.374 . S
C1263 C1260 1.499 . S
C1263 C1264 1.373 . S
C1263 C1265 1.389 . S
C1264 H1237 0.950 . S
C1264 C1250 1.377 . S
C1264 C1263 1.373 . S
C1265 C1249 1.377 . S
C1265 C1263 1.389 . S
C1265 C1266 1.524 . S
C1266 C1265 1.524 . S
C1266 C1267 1.397 . S
C1266 C1271 1.363 . S
C1267 H1238 0.950 . S
C1267 C1266 1.397 . S
C1267 C1268 1.334 . S
C1268 H1239 0.950 . S
C1268 C1267 1.334 . S
C1268 C1269 1.287 . S
C1269 C1268 1.287 . S
C1269 C1270 1.524 . S
C1269 H1272 0.999 . S
C1270 H1240 0.950 . S
C1270 C1269 1.524 . S
C1270 C1271 1.415 . S
C1271 H1241 0.950 . S
C1271 C1266 1.363 . S
C1271 C1270 1.415 . S
H1272 C1269 0.999 . S
H1273 C1254 0.913 . S
H1274 C1292 0.951 . S
H1275 C1294 0.951 . S
H1276 C1296 0.950 . S
H1277 C1297 0.950 . S
H1278 C1299 0.950 . S
H1279 C1302 0.950 . S
H1280 C1303 0.950 . S
H1281 C1305 0.950 . S
H1282 C1306 0.950 . S
H1283 C1307 0.951 . S
H1284 C1309 0.951 . S
H1285 C1311 0.950 . S
H1286 C1312 0.950 . S
H1287 C1314 0.950 . S
H1288 C1317 0.950 . S
H1289 C1318 0.950 . S
H1290 C1320 0.950 . S
H1291 C1321 0.950 . S
C1292 H1274 0.951 . S
C1292 C1293 1.366 . S
C1292 C1294 1.388 . S
C1293 C1292 1.366 . S
C1293 C1297 1.385 . S
C1294 H1275 0.951 . S
C1294 C1292 1.388 . S
C1294 C1295 1.366 . S
C1295 C1294 1.366 . S
C1295 C1296 1.414 . S
C1295 C1298 1.499 . S
C1296 H1276 0.950 . S
C1296 C1295 1.414 . S
C1296 C1297 1.374 . S
C1297 H1277 0.950 . S
C1297 C1293 1.385 . S
C1297 C1296 1.374 . S
C1298 C1295 1.499 . S
C1298 C1299 1.373 . S
C1298 C1300 1.389 . S
C1299 H1278 0.950 . S
C1299 C1298 1.373 . S
C1299 C1315 1.377 . S
C1300 C1298 1.389 . S
C1300 C1301 1.524 . S
C1300 C1314 1.377 . S
C1301 C1300 1.524 . S
C1301 C1302 1.397 . S
C1301 C1306 1.363 . S
C1302 H1279 0.950 . S
C1302 C1301 1.397 . S
C1302 C1303 1.334 . S
C1303 H1280 0.950 . S
C1303 C1302 1.334 . S
C1303 C1304 1.287 . S
C1304 C1303 1.287 . S
C1304 C1305 1.524 . S
C1304 H1323 0.913 . S
C1305 H1281 0.950 . S
C1305 C1304 1.524 . S
C1305 C1306 1.415 . S
C1306 H1282 0.950 . S
C1306 C1301 1.363 . S
C1306 C1305 1.415 . S
C1307 H1283 0.951 . S
C1307 C1308 1.366 . S
C1307 C1309 1.388 . S
C1308 C1307 1.366 . S
C1308 C1312 1.385 . S
C1309 H1284 0.951 . S
C1309 C1307 1.388 . S
C1309 C1310 1.366 . S
C1310 C1309 1.366 . S
C1310 C1311 1.414 . S
C1310 C1313 1.499 . S
C1311 H1285 0.950 . S
C1311 C1310 1.414 . S
C1311 C1312 1.374 . S
C1312 H1286 0.950 . S
C1312 C1308 1.385 . S
C1312 C1311 1.374 . S
C1313 C1310 1.499 . S
C1313 C1314 1.373 . S
C1313 C1315 1.389 . S
C1314 H1287 0.950 . S
C1314 C1300 1.377 . S
C1314 C1313 1.373 . S
C1315 C1299 1.377 . S
C1315 C1313 1.389 . S
C1315 C1316 1.524 . S
C1316 C1315 1.524 . S
C1316 C1317 1.397 . S
C1316 C1321 1.363 . S
C1317 H1288 0.950 . S
C1317 C1316 1.397 . S
C1317 C1318 1.334 . S
C1318 H1289 0.950 . S
C1318 C1317 1.334 . S
C1318 C1319 1.287 . S
C1319 C1318 1.287 . S
C1319 C1320 1.524 . S
C1319 H1322 0.999 . S
C1320 H1290 0.950 . S
C1320 C1319 1.524 . S
C1320 C1321 1.415 . S
C1321 H1291 0.950 . S
C1321 C1316 1.363 . S
C1321 C1320 1.415 . S
H1322 C1319 0.999 . S
H1323 C1304 0.913 . S
H1324 C1342 0.951 . S
H1325 C1344 0.951 . S
H1326 C1346 0.950 . S
H1327 C1347 0.950 . S
H1328 C1349 0.950 . S
H1329 C1352 0.950 . S
H1330 C1353 0.950 . S
H1331 C1355 0.950 . S
H1332 C1356 0.950 . S
H1333 C1357 0.951 . S
H1334 C1359 0.951 . S
H1335 C1361 0.950 . S
H1336 C1362 0.950 . S
H1337 C1364 0.950 . S
H1338 C1367 0.950 . S
H1339 C1368 0.950 . S
H1340 C1370 0.950 . S
H1341 C1371 0.950 . S
C1342 H1324 0.951 . S
C1342 C1343 1.366 . S
C1342 C1344 1.388 . S
C1343 C1342 1.366 . S
C1343 C1347 1.385 . S
C1344 H1325 0.951 . S
C1344 C1342 1.388 . S
C1344 C1345 1.366 . S
C1345 C1344 1.366 . S
C1345 C1346 1.414 . S
C1345 C1348 1.499 . S
C1346 H1326 0.950 . S
C1346 C1345 1.414 . S
C1346 C1347 1.374 . S
C1347 H1327 0.950 . S
C1347 C1343 1.385 . S
C1347 C1346 1.374 . S
C1348 C1345 1.499 . S
C1348 C1349 1.373 . S
C1348 C1350 1.389 . S
C1349 H1328 0.950 . S
C1349 C1348 1.373 . S
C1349 C1365 1.377 . S
C1350 C1348 1.389 . S
C1350 C1351 1.524 . S
C1350 C1364 1.377 . S
C1351 C1350 1.524 . S
C1351 C1352 1.397 . S
C1351 C1356 1.363 . S
C1352 H1329 0.950 . S
C1352 C1351 1.397 . S
C1352 C1353 1.334 . S
C1353 H1330 0.950 . S
C1353 C1352 1.334 . S
C1353 C1354 1.287 . S
C1354 C1353 1.287 . S
C1354 C1355 1.524 . S
C1354 H1373 0.913 . S
C1355 H1331 0.950 . S
C1355 C1354 1.524 . S
C1355 C1356 1.415 . S
C1356 H1332 0.950 . S
C1356 C1351 1.363 . S
C1356 C1355 1.415 . S
C1357 H1333 0.951 . S
C1357 C1358 1.366 . S
C1357 C1359 1.388 . S
C1358 C1357 1.366 . S
C1358 C1362 1.385 . S
C1359 H1334 0.951 . S
C1359 C1357 1.388 . S
C1359 C1360 1.366 . S
C1360 C1359 1.366 . S
C1360 C1361 1.414 . S
C1360 C1363 1.499 . S
C1361 H1335 0.950 . S
C1361 C1360 1.414 . S
C1361 C1362 1.374 . S
C1362 H1336 0.950 . S
C1362 C1358 1.385 . S
C1362 C1361 1.374 . S
C1363 C1360 1.499 . S
C1363 C1364 1.373 . S
C1363 C1365 1.389 . S
C1364 H1337 0.950 . S
C1364 C1350 1.377 . S
C1364 C1363 1.373 . S
C1365 C1349 1.377 . S
C1365 C1363 1.389 . S
C1365 C1366 1.524 . S
C1366 C1365 1.524 . S
C1366 C1367 1.397 . S
C1366 C1371 1.363 . S
C1367 H1338 0.950 . S
C1367 C1366 1.397 . S
C1367 C1368 1.334 . S
C1368 H1339 0.950 . S
C1368 C1367 1.334 . S
C1368 C1369 1.287 . S
C1369 C1368 1.287 . S
C1369 C1370 1.524 . S
C1369 H1372 0.999 . S
C1370 H1340 0.950 . S
C1370 C1369 1.524 . S
C1370 C1371 1.415 . S
C1371 H1341 0.950 . S
C1371 C1366 1.363 . S
C1371 C1370 1.415 . S
H1372 C1369 0.999 . S
H1373 C1354 0.913 . S
H1374 C1392 0.951 . S
H1375 C1394 0.951 . S
H1376 C1396 0.950 . S
H1377 C1397 0.950 . S
H1378 C1399 0.950 . S
H1379 C1402 0.950 . S
H1380 C1403 0.950 . S
H1381 C1405 0.950 . S
H1382 C1406 0.950 . S
H1383 C1407 0.951 . S
H1384 C1409 0.951 . S
H1385 C1411 0.950 . S
H1386 C1412 0.950 . S
H1387 C1414 0.950 . S
H1388 C1417 0.950 . S
H1389 C1418 0.950 . S
H1390 C1420 0.950 . S
H1391 C1421 0.950 . S
C1392 H1374 0.951 . S
C1392 C1393 1.366 . S
C1392 C1394 1.388 . S
C1393 C1392 1.366 . S
C1393 C1397 1.385 . S
C1394 H1375 0.951 . S
C1394 C1392 1.388 . S
C1394 C1395 1.366 . S
C1395 C1394 1.366 . S
C1395 C1396 1.414 . S
C1395 C1398 1.499 . S
C1396 H1376 0.950 . S
C1396 C1395 1.414 . S
C1396 C1397 1.374 . S
C1397 H1377 0.950 . S
C1397 C1393 1.385 . S
C1397 C1396 1.374 . S
C1398 C1395 1.499 . S
C1398 C1399 1.373 . S
C1398 C1400 1.389 . S
C1399 H1378 0.950 . S
C1399 C1398 1.373 . S
C1399 C1415 1.377 . S
C1400 C1398 1.389 . S
C1400 C1401 1.524 . S
C1400 C1414 1.377 . S
C1401 C1400 1.524 . S
C1401 C1402 1.397 . S
C1401 C1406 1.363 . S
C1402 H1379 0.950 . S
C1402 C1401 1.397 . S
C1402 C1403 1.334 . S
C1403 H1380 0.950 . S
C1403 C1402 1.334 . S
C1403 C1404 1.287 . S
C1404 C1403 1.287 . S
C1404 C1405 1.524 . S
C1404 H1423 0.913 . S
C1405 H1381 0.950 . S
C1405 C1404 1.524 . S
C1405 C1406 1.415 . S
C1406 H1382 0.950 . S
C1406 C1401 1.363 . S
C1406 C1405 1.415 . S
C1407 H1383 0.951 . S
C1407 C1408 1.366 . S
C1407 C1409 1.388 . S
C1408 C1407 1.366 . S
C1408 C1412 1.385 . S
C1409 H1384 0.951 . S
C1409 C1407 1.388 . S
C1409 C1410 1.366 . S
C1410 C1409 1.366 . S
C1410 C1411 1.414 . S
C1410 C1413 1.499 . S
C1411 H1385 0.950 . S
C1411 C1410 1.414 . S
C1411 C1412 1.374 . S
C1412 H1386 0.950 . S
C1412 C1408 1.385 . S
C1412 C1411 1.374 . S
C1413 C1410 1.499 . S
C1413 C1414 1.373 . S
C1413 C1415 1.389 . S
C1414 H1387 0.950 . S
C1414 C1400 1.377 . S
C1414 C1413 1.373 . S
C1415 C1399 1.377 . S
C1415 C1413 1.389 . S
C1415 C1416 1.524 . S
C1416 C1415 1.524 . S
C1416 C1417 1.397 . S
C1416 C1421 1.363 . S
C1417 H1388 0.950 . S
C1417 C1416 1.397 . S
C1417 C1418 1.334 . S
C1418 H1389 0.950 . S
C1418 C1417 1.334 . S
C1418 C1419 1.287 . S
C1419 C1418 1.287 . S
C1419 C1420 1.524 . S
C1419 H1422 0.999 . S
C1420 H1390 0.950 . S
C1420 C1419 1.524 . S
C1420 C1421 1.415 . S
C1421 H1391 0.950 . S
C1421 C1416 1.363 . S
C1421 C1420 1.415 . S
H1422 C1419 0.999 . S
H1423 C1404 0.913 . S
H1424 C1442 0.951 . S
H1425 C1444 0.951 . S
H1426 C1446 0.950 . S
H1427 C1447 0.950 . S
H1428 C1449 0.950 . S
H1429 C1452 0.950 . S
H1430 C1453 0.950 . S
H1431 C1455 0.946 1_545 S
H1432 C1456 0.950 . S
H1433 C1457 0.951 . S
H1434 C1459 0.951 . S
H1435 C1461 0.950 . S
H1436 C1462 0.950 . S
H1437 C1464 0.950 . S
H1438 C1467 0.950 . S
H1439 C1468 0.950 . S
H1440 C1470 0.946 1_565 S
H1441 C1471 0.950 . S
C1442 H1424 0.951 . S
C1442 C1443 1.366 . S
C1442 C1444 1.388 . S
C1443 C1442 1.366 . S
C1443 C1447 1.385 . S
C1444 H1425 0.951 . S
C1444 C1442 1.388 . S
C1444 C1445 1.366 . S
C1445 C1444 1.366 . S
C1445 C1446 1.414 . S
C1445 C1448 1.499 . S
C1446 H1426 0.950 . S
C1446 C1445 1.414 . S
C1446 C1447 1.374 . S
C1447 H1427 0.950 . S
C1447 C1443 1.385 . S
C1447 C1446 1.374 . S
C1448 C1445 1.499 . S
C1448 C1449 1.373 . S
C1448 C1450 1.389 1_545 S
C1449 H1428 0.950 . S
C1449 C1448 1.373 . S
C1449 C1465 1.377 . S
C1450 C1448 1.389 1_565 S
C1450 C1451 1.524 . S
C1450 C1464 1.377 . S
C1451 C1450 1.524 . S
C1451 C1452 1.397 . S
C1451 C1456 1.363 1_565 S
C1452 H1429 0.950 . S
C1452 C1451 1.397 . S
C1452 C1453 1.334 . S
C1453 H1430 0.950 . S
C1453 C1452 1.334 . S
C1453 C1454 1.287 . S
C1454 C1453 1.287 . S
C1454 C1455 1.530 . S
C1454 H1473 0.913 . S
C1455 H1431 0.946 1_565 S
C1455 C1454 1.530 . S
C1455 C1456 1.413 1_565 S
C1456 H1432 0.950 . S
C1456 C1451 1.363 1_545 S
C1456 C1455 1.413 1_545 S
C1457 H1433 0.951 . S
C1457 C1458 1.366 . S
C1457 C1459 1.388 . S
C1458 C1457 1.366 . S
C1458 C1462 1.385 . S
C1459 H1434 0.951 . S
C1459 C1457 1.388 . S
C1459 C1460 1.366 . S
C1460 C1459 1.366 . S
C1460 C1461 1.414 . S
C1460 C1463 1.499 . S
C1461 H1435 0.950 . S
C1461 C1460 1.414 . S
C1461 C1462 1.374 . S
C1462 H1436 0.950 . S
C1462 C1458 1.385 . S
C1462 C1461 1.374 . S
C1463 C1460 1.499 . S
C1463 C1464 1.373 . S
C1463 C1465 1.389 1_565 S
C1464 H1437 0.950 . S
C1464 C1450 1.377 . S
C1464 C1463 1.373 . S
C1465 C1449 1.377 . S
C1465 C1463 1.389 1_545 S
C1465 C1466 1.524 . S
C1466 C1465 1.524 . S
C1466 C1467 1.397 . S
C1466 C1471 1.363 1_545 S
C1467 H1438 0.950 . S
C1467 C1466 1.397 . S
C1467 C1468 1.334 . S
C1468 H1439 0.950 . S
C1468 C1467 1.334 . S
C1468 C1469 1.287 . S
C1469 C1468 1.287 . S
C1469 C1470 1.530 . S
C1469 H1472 0.999 . S
C1470 H1440 0.946 1_545 S
C1470 C1469 1.530 . S
C1470 C1471 1.413 1_545 S
C1471 H1441 0.950 . S
C1471 C1466 1.363 1_565 S
C1471 C1470 1.413 1_565 S
H1472 C1469 0.999 . S
H1473 C1454 0.913 . S
H1474 C1492 0.951 . S
H1475 C1494 0.951 . S
H1476 C1496 0.950 1_565 S
H1477 C1497 0.950 . S
H1478 C1499 0.950 . S
H1479 C1502 0.950 . S
H1480 C1503 0.950 . S
H1481 C1505 0.950 . S
H1482 C1506 0.950 . S
H1483 C1507 0.951 . S
H1484 C1509 0.951 . S
H1485 C1511 0.950 1_545 S
H1486 C1512 0.950 . S
H1487 C1514 0.950 . S
H1488 C1517 0.950 . S
H1489 C1518 0.950 . S
H1490 C1520 0.950 . S
H1491 C1521 0.950 . S
C1492 H1474 0.951 . S
C1492 C1493 1.366 . S
C1492 C1494 1.388 . S
C1493 C1492 1.366 . S
C1493 C1497 1.385 . S
C1494 H1475 0.951 . S
C1494 C1492 1.388 . S
C1494 C1495 1.366 . S
C1495 C1494 1.366 . S
C1495 C1496 1.414 . S
C1495 C1498 1.499 . S
C1496 H1476 0.950 1_545 S
C1496 C1495 1.414 . S
C1496 C1497 1.374 . S
C1497 H1477 0.950 . S
C1497 C1493 1.385 . S
C1497 C1496 1.374 . S
C1498 C1495 1.499 . S
C1498 C1499 1.373 1_545 S
C1498 C1500 1.389 . S
C1499 H1478 0.950 . S
C1499 C1498 1.373 1_565 S
C1499 C1515 1.377 . S
C1500 C1498 1.389 . S
C1500 C1501 1.524 . S
C1500 C1514 1.377 . S
C1501 C1500 1.524 . S
C1501 C1502 1.397 . S
C1501 C1506 1.363 . S
C1502 H1479 0.950 . S
C1502 C1501 1.397 . S
C1502 C1503 1.334 . S
C1503 H1480 0.950 . S
C1503 C1502 1.334 . S
C1503 C1504 1.287 . S
C1504 C1503 1.287 . S
C1504 C1505 1.524 . S
C1504 H1523 0.913 . S
C1505 H1481 0.950 . S
C1505 C1504 1.524 . S
C1505 C1506 1.415 . S
C1506 H1482 0.950 . S
C1506 C1501 1.363 . S
C1506 C1505 1.415 . S
C1507 H1483 0.951 . S
C1507 C1508 1.366 . S
C1507 C1509 1.388 . S
C1508 C1507 1.366 . S
C1508 C1512 1.385 . S
C1509 H1484 0.951 . S
C1509 C1507 1.388 . S
C1509 C1510 1.366 . S
C1510 C1509 1.366 . S
C1510 C1511 1.414 . S
C1510 C1513 1.499 . S
C1511 H1485 0.950 1_565 S
C1511 C1510 1.414 . S
C1511 C1512 1.374 . S
C1512 H1486 0.950 . S
C1512 C1508 1.385 . S
C1512 C1511 1.374 . S
C1513 C1510 1.499 . S
C1513 C1514 1.373 1_565 S
C1513 C1515 1.389 . S
C1514 H1487 0.950 . S
C1514 C1500 1.377 . S
C1514 C1513 1.373 1_545 S
C1515 C1499 1.377 . S
C1515 C1513 1.389 . S
C1515 C1516 1.524 . S
C1516 C1515 1.524 . S
C1516 C1517 1.397 . S
C1516 C1521 1.363 . S
C1517 H1488 0.950 . S
C1517 C1516 1.397 . S
C1517 C1518 1.334 . S
C1518 H1489 0.950 . S
C1518 C1517 1.334 . S
C1518 C1519 1.287 . S
C1519 C1518 1.287 . S
C1519 C1520 1.524 . S
C1519 H1522 0.999 . S
C1520 H1490 0.950 . S
C1520 C1519 1.524 . S
C1520 C1521 1.415 . S
C1521 H1491 0.950 . S
C1521 C1516 1.363 . S
C1521 C1520 1.415 . S
H1522 C1519 0.999 . S
H1523 C1504 0.913 . S
H1524 C1542 0.951 . S
H1525 C1544 0.951 . S
H1526 C1546 0.950 1_565 S
H1527 C1547 0.950 . S
H1528 C1549 0.950 . S
H1529 C1552 0.950 . S
H1530 C1553 0.950 . S
H1531 C1555 0.950 . S
H1532 C1556 0.950 . S
H1533 C1557 0.951 . S
H1534 C1559 0.951 . S
H1535 C1561 0.950 1_545 S
H1536 C1562 0.950 . S
H1537 C1564 0.950 . S
H1538 C1567 0.950 . S
H1539 C1568 0.950 . S
H1540 C1570 0.950 . S
H1541 C1571 0.950 . S
C1542 H1524 0.951 . S
C1542 C1543 1.366 . S
C1542 C1544 1.388 . S
C1543 C1542 1.366 . S
C1543 C1547 1.385 . S
C1544 H1525 0.951 . S
C1544 C1542 1.388 . S
C1544 C1545 1.366 . S
C1545 C1544 1.366 . S
C1545 C1546 1.414 . S
C1545 C1548 1.499 . S
C1546 H1526 0.950 1_545 S
C1546 C1545 1.414 . S
C1546 C1547 1.374 . S
C1547 H1527 0.950 . S
C1547 C1543 1.385 . S
C1547 C1546 1.374 . S
C1548 C1545 1.499 . S
C1548 C1549 1.373 1_545 S
C1548 C1550 1.389 . S
C1549 H1528 0.950 . S
C1549 C1548 1.373 1_565 S
C1549 C1565 1.377 . S
C1550 C1548 1.389 . S
C1550 C1551 1.524 . S
C1550 C1564 1.377 . S
C1551 C1550 1.524 . S
C1551 C1552 1.397 . S
C1551 C1556 1.363 . S
C1552 H1529 0.950 . S
C1552 C1551 1.397 . S
C1552 C1553 1.334 . S
C1553 H1530 0.950 . S
C1553 C1552 1.334 . S
C1553 C1554 1.287 . S
C1554 C1553 1.287 . S
C1554 C1555 1.524 . S
C1554 H1573 0.913 . S
C1555 H1531 0.950 . S
C1555 C1554 1.524 . S
C1555 C1556 1.415 . S
C1556 H1532 0.950 . S
C1556 C1551 1.363 . S
C1556 C1555 1.415 . S
C1557 H1533 0.951 . S
C1557 C1558 1.366 . S
C1557 C1559 1.388 . S
C1558 C1557 1.366 . S
C1558 C1562 1.385 . S
C1559 H1534 0.951 . S
C1559 C1557 1.388 . S
C1559 C1560 1.366 . S
C1560 C1559 1.366 . S
C1560 C1561 1.414 . S
C1560 C1563 1.499 . S
C1561 H1535 0.950 1_565 S
C1561 C1560 1.414 . S
C1561 C1562 1.374 . S
C1562 H1536 0.950 . S
C1562 C1558 1.385 . S
C1562 C1561 1.374 . S
C1563 C1560 1.499 . S
C1563 C1564 1.373 1_565 S
C1563 C1565 1.389 . S
C1564 H1537 0.950 . S
C1564 C1550 1.377 . S
C1564 C1563 1.373 1_545 S
C1565 C1549 1.377 . S
C1565 C1563 1.389 . S
C1565 C1566 1.524 . S
C1566 C1565 1.524 . S
C1566 C1567 1.397 . S
C1566 C1571 1.363 . S
C1567 H1538 0.950 . S
C1567 C1566 1.397 . S
C1567 C1568 1.334 . S
C1568 H1539 0.950 . S
C1568 C1567 1.334 . S
C1568 C1569 1.287 . S
C1569 C1568 1.287 . S
C1569 C1570 1.524 . S
C1569 H1572 0.999 . S
C1570 H1540 0.950 . S
C1570 C1569 1.524 . S
C1570 C1571 1.415 . S
C1571 H1541 0.950 . S
C1571 C1566 1.363 . S
C1571 C1570 1.415 . S
H1572 C1569 0.999 . S
H1573 C1554 0.913 . S
H1574 C1592 0.951 . S
H1575 C1594 0.951 . S
H1576 C1596 0.950 1_545 S
H1577 C1597 0.950 . S
H1578 C1599 0.950 . S
H1579 C1602 0.950 . S
H1580 C1603 0.950 . S
H1581 C1605 0.950 . S
H1582 C1606 0.950 . S
H1583 C1607 0.951 . S
H1584 C1609 0.951 . S
H1585 C1611 0.950 1_565 S
H1586 C1612 0.950 . S
H1587 C1614 0.950 . S
H1588 C1617 0.950 . S
H1589 C1618 0.950 . S
H1590 C1620 0.950 . S
H1591 C1621 0.950 . S
C1592 H1574 0.951 . S
C1592 C1593 1.366 . S
C1592 C1594 1.388 . S
C1593 C1592 1.366 . S
C1593 C1597 1.385 . S
C1594 H1575 0.951 . S
C1594 C1592 1.388 . S
C1594 C1595 1.366 . S
C1595 C1594 1.366 . S
C1595 C1596 1.414 . S
C1595 C1598 1.499 . S
C1596 H1576 0.950 1_565 S
C1596 C1595 1.414 . S
C1596 C1597 1.374 . S
C1597 H1577 0.950 . S
C1597 C1593 1.385 . S
C1597 C1596 1.374 . S
C1598 C1595 1.499 . S
C1598 C1599 1.373 1_565 S
C1598 C1600 1.389 . S
C1599 H1578 0.950 . S
C1599 C1598 1.373 1_545 S
C1599 C1615 1.377 . S
C1600 C1598 1.389 . S
C1600 C1601 1.524 . S
C1600 C1614 1.377 . S
C1601 C1600 1.524 . S
C1601 C1602 1.397 . S
C1601 C1606 1.363 . S
C1602 H1579 0.950 . S
C1602 C1601 1.397 . S
C1602 C1603 1.334 . S
C1603 H1580 0.950 . S
C1603 C1602 1.334 . S
C1603 C1604 1.287 . S
C1604 C1603 1.287 . S
C1604 C1605 1.524 . S
C1604 H1623 0.913 . S
C1605 H1581 0.950 . S
C1605 C1604 1.524 . S
C1605 C1606 1.415 . S
C1606 H1582 0.950 . S
C1606 C1601 1.363 . S
C1606 C1605 1.415 . S
C1607 H1583 0.951 . S
C1607 C1608 1.366 . S
C1607 C1609 1.388 . S
C1608 C1607 1.366 . S
C1608 C1612 1.385 . S
C1609 H1584 0.951 . S
C1609 C1607 1.388 . S
C1609 C1610 1.366 . S
C1610 C1609 1.366 . S
C1610 C1611 1.414 . S
C1610 C1613 1.499 . S
C1611 H1585 0.950 1_545 S
C1611 C1610 1.414 . S
C1611 C1612 1.374 . S
C1612 H1586 0.950 . S
C1612 C1608 1.385 . S
C1612 C1611 1.374 . S
C1613 C1610 1.499 . S
C1613 C1614 1.373 1_545 S
C1613 C1615 1.389 . S
C1614 H1587 0.950 . S
C1614 C1600 1.377 . S
C1614 C1613 1.373 1_565 S
C1615 C1599 1.377 . S
C1615 C1613 1.389 . S
C1615 C1616 1.524 . S
C1616 C1615 1.524 . S
C1616 C1617 1.397 . S
C1616 C1621 1.363 . S
C1617 H1588 0.950 . S
C1617 C1616 1.397 . S
C1617 C1618 1.334 . S
C1618 H1589 0.950 . S
C1618 C1617 1.334 . S
C1618 C1619 1.287 . S
C1619 C1618 1.287 . S
C1619 C1620 1.524 . S
C1619 H1622 0.999 . S
C1620 H1590 0.950 . S
C1620 C1619 1.524 . S
C1620 C1621 1.415 . S
C1621 H1591 0.950 . S
C1621 C1616 1.363 . S
C1621 C1620 1.415 . S
H1622 C1619 0.999 . S
H1623 C1604 0.913 . S
H1624 C1642 0.951 . S
H1625 C1644 0.951 . S
H1626 C1646 0.950 . S
H1627 C1647 0.950 . S
H1628 C1649 0.950 . S
H1629 C1652 0.950 . S
H1630 C1653 0.950 . S
H1631 C1655 0.950 . S
H1632 C1656 0.950 . S
H1633 C1657 0.951 . S
H1634 C1659 0.951 . S
H1635 C1661 0.950 . S
H1636 C1662 0.950 . S
H1637 C1664 0.950 . S
H1638 C1667 0.950 . S
H1639 C1668 0.950 . S
H1640 C1670 0.950 . S
H1641 C1671 0.950 . S
C1642 H1624 0.951 . S
C1642 C1643 1.366 . S
C1642 C1644 1.388 . S
C1643 C1642 1.366 . S
C1643 C1647 1.385 . S
C1644 H1625 0.951 . S
C1644 C1642 1.388 . S
C1644 C1645 1.366 . S
C1645 C1644 1.366 . S
C1645 C1646 1.414 . S
C1645 C1648 1.499 . S
C1646 H1626 0.950 . S
C1646 C1645 1.414 . S
C1646 C1647 1.374 . S
C1647 H1627 0.950 . S
C1647 C1643 1.385 . S
C1647 C1646 1.374 . S
C1648 C1645 1.499 . S
C1648 C1649 1.373 . S
C1648 C1650 1.389 . S
C1649 H1628 0.950 . S
C1649 C1648 1.373 . S
C1649 C1665 1.377 . S
C1650 C1648 1.389 . S
C1650 C1651 1.524 . S
C1650 C1664 1.377 . S
C1651 C1650 1.524 . S
C1651 C1652 1.397 . S
C1651 C1656 1.363 . S
C1652 H1629 0.950 . S
C1652 C1651 1.397 . S
C1652 C1653 1.334 . S
C1653 H1630 0.950 . S
C1653 C1652 1.334 . S
C1653 C1654 1.287 . S
C1654 C1653 1.287 . S
C1654 C1655 1.524 . S
C1654 H1673 0.913 . S
C1655 H1631 0.950 . S
C1655 C1654 1.524 . S
C1655 C1656 1.415 . S
C1656 H1632 0.950 . S
C1656 C1651 1.363 . S
C1656 C1655 1.415 . S
C1657 H1633 0.951 . S
C1657 C1658 1.366 . S
C1657 C1659 1.388 . S
C1658 C1657 1.366 . S
C1658 C1662 1.385 . S
C1659 H1634 0.951 . S
C1659 C1657 1.388 . S
C1659 C1660 1.366 . S
C1660 C1659 1.366 . S
C1660 C1661 1.414 . S
C1660 C1663 1.499 . S
C1661 H1635 0.950 . S
C1661 C1660 1.414 . S
C1661 C1662 1.374 . S
C1662 H1636 0.950 . S
C1662 C1658 1.385 . S
C1662 C1661 1.374 . S
C1663 C1660 1.499 . S
C1663 C1664 1.373 . S
C1663 C1665 1.389 . S
C1664 H1637 0.950 . S
C1664 C1650 1.377 . S
C1664 C1663 1.373 . S
C1665 C1649 1.377 . S
C1665 C1663 1.389 . S
C1665 C1666 1.524 . S
C1666 C1665 1.524 . S
C1666 C1667 1.397 . S
C1666 C1671 1.363 . S
C1667 H1638 0.950 . S
C1667 C1666 1.397 . S
C1667 C1668 1.334 . S
C1668 H1639 0.950 . S
C1668 C1667 1.334 . S
C1668 C1669 1.287 . S
C1669 C1668 1.287 . S
C1669 C1670 1.524 . S
C1669 H1672 0.999 . S
C1670 H1640 0.950 . S
C1670 C1669 1.524 . S
C1670 C1671 1.415 . S
C1671 H1641 0.950 . S
C1671 C1666 1.363 . S
C1671 C1670 1.415 . S
H1672 C1669 0.999 . S
H1673 C1654 0.913 . S
H1674 C1692 0.951 . S
H1675 C1694 0.951 . S
H1676 C1696 0.950 . S
H1677 C1697 0.950 . S
H1678 C1699 0.950 . S
H1679 C1702 0.950 . S
H1680 C1703 0.950 . S
H1681 C1705 0.950 . S
H1682 C1706 0.950 . S
H1683 C1707 0.951 . S
H1684 C1709 0.951 . S
H1685 C1711 0.950 . S
H1686 C1712 0.950 . S
H1687 C1714 0.950 . S
H1688 C1717 0.950 . S
H1689 C1718 0.950 . S
H1690 C1720 0.950 . S
H1691 C1721 0.950 . S
C1692 H1674 0.951 . S
C1692 C1693 1.366 . S
C1692 C1694 1.388 . S
C1693 C1692 1.366 . S
C1693 C1697 1.385 . S
C1694 H1675 0.951 . S
C1694 C1692 1.388 . S
C1694 C1695 1.366 . S
C1695 C1694 1.366 . S
C1695 C1696 1.414 . S
C1695 C1698 1.499 . S
C1696 H1676 0.950 . S
C1696 C1695 1.414 . S
C1696 C1697 1.374 . S
C1697 H1677 0.950 . S
C1697 C1693 1.385 . S
C1697 C1696 1.374 . S
C1698 C1695 1.499 . S
C1698 C1699 1.373 . S
C1698 C1700 1.389 . S
C1699 H1678 0.950 . S
C1699 C1698 1.373 . S
C1699 C1715 1.377 . S
C1700 C1698 1.389 . S
C1700 C1701 1.524 . S
C1700 C1714 1.377 . S
C1701 C1700 1.524 . S
C1701 C1702 1.397 . S
C1701 C1706 1.363 . S
C1702 H1679 0.950 . S
C1702 C1701 1.397 . S
C1702 C1703 1.334 . S
C1703 H1680 0.950 . S
C1703 C1702 1.334 . S
C1703 C1704 1.287 . S
C1704 C1703 1.287 . S
C1704 C1705 1.524 . S
C1704 H1723 0.913 . S
C1705 H1681 0.950 . S
C1705 C1704 1.524 . S
C1705 C1706 1.415 . S
C1706 H1682 0.950 . S
C1706 C1701 1.363 . S
C1706 C1705 1.415 . S
C1707 H1683 0.951 . S
C1707 C1708 1.366 . S
C1707 C1709 1.388 . S
C1708 C1707 1.366 . S
C1708 C1712 1.385 . S
C1709 H1684 0.951 . S
C1709 C1707 1.388 . S
C1709 C1710 1.366 . S
C1710 C1709 1.366 . S
C1710 C1711 1.414 . S
C1710 C1713 1.499 . S
C1711 H1685 0.950 . S
C1711 C1710 1.414 . S
C1711 C1712 1.374 . S
C1712 H1686 0.950 . S
C1712 C1708 1.385 . S
C1712 C1711 1.374 . S
C1713 C1710 1.499 . S
C1713 C1714 1.373 . S
C1713 C1715 1.389 . S
C1714 H1687 0.950 . S
C1714 C1700 1.377 . S
C1714 C1713 1.373 . S
C1715 C1699 1.377 . S
C1715 C1713 1.389 . S
C1715 C1716 1.524 . S
C1716 C1715 1.524 . S
C1716 C1717 1.397 . S
C1716 C1721 1.363 . S
C1717 H1688 0.950 . S
C1717 C1716 1.397 . S
C1717 C1718 1.334 . S
C1718 H1689 0.950 . S
C1718 C1717 1.334 . S
C1718 C1719 1.287 . S
C1719 C1718 1.287 . S
C1719 C1720 1.524 . S
C1719 H1722 0.999 . S
C1720 H1690 0.950 . S
C1720 C1719 1.524 . S
C1720 C1721 1.415 . S
C1721 H1691 0.950 . S
C1721 C1716 1.363 . S
C1721 C1720 1.415 . S
H1722 C1719 0.999 . S
H1723 C1704 0.913 . S
H1724 C1742 0.951 . S
H1725 C1744 0.951 . S
H1726 C1746 0.950 . S
H1727 C1747 0.950 . S
H1728 C1749 0.950 . S
H1729 C1752 0.950 . S
H1730 C1753 0.950 . S
H1731 C1755 0.950 . S
H1732 C1756 0.950 . S
H1733 C1757 0.951 . S
H1734 C1759 0.951 . S
H1735 C1761 0.950 . S
H1736 C1762 0.950 . S
H1737 C1764 0.950 . S
H1738 C1767 0.950 . S
H1739 C1768 0.950 . S
H1740 C1770 0.950 . S
H1741 C1771 0.950 . S
C1742 H1724 0.951 . S
C1742 C1743 1.366 . S
C1742 C1744 1.388 . S
C1743 C1742 1.366 . S
C1743 C1747 1.385 . S
C1744 H1725 0.951 . S
C1744 C1742 1.388 . S
C1744 C1745 1.366 . S
C1745 C1744 1.366 . S
C1745 C1746 1.414 . S
C1745 C1748 1.499 . S
C1746 H1726 0.950 . S
C1746 C1745 1.414 . S
C1746 C1747 1.374 . S
C1747 H1727 0.950 . S
C1747 C1743 1.385 . S
C1747 C1746 1.374 . S
C1748 C1745 1.499 . S
C1748 C1749 1.373 . S
C1748 C1750 1.389 . S
C1749 H1728 0.950 . S
C1749 C1748 1.373 . S
C1749 C1765 1.377 . S
C1750 C1748 1.389 . S
C1750 C1751 1.524 . S
C1750 C1764 1.377 . S
C1751 C1750 1.524 . S
C1751 C1752 1.397 . S
C1751 C1756 1.363 . S
C1752 H1729 0.950 . S
C1752 C1751 1.397 . S
C1752 C1753 1.334 . S
C1753 H1730 0.950 . S
C1753 C1752 1.334 . S
C1753 C1754 1.287 . S
C1754 C1753 1.287 . S
C1754 C1755 1.524 . S
C1754 H1773 0.913 . S
C1755 H1731 0.950 . S
C1755 C1754 1.524 . S
C1755 C1756 1.415 . S
C1756 H1732 0.950 . S
C1756 C1751 1.363 . S
C1756 C1755 1.415 . S
C1757 H1733 0.951 . S
C1757 C1758 1.366 . S
C1757 C1759 1.388 . S
C1758 C1757 1.366 . S
C1758 C1762 1.385 . S
C1759 H1734 0.951 . S
C1759 C1757 1.388 . S
C1759 C1760 1.366 . S
C1760 C1759 1.366 . S
C1760 C1761 1.414 . S
C1760 C1763 1.499 . S
C1761 H1735 0.950 . S
C1761 C1760 1.414 . S
C1761 C1762 1.374 . S
C1762 H1736 0.950 . S
C1762 C1758 1.385 . S
C1762 C1761 1.374 . S
C1763 C1760 1.499 . S
C1763 C1764 1.373 . S
C1763 C1765 1.389 . S
C1764 H1737 0.950 . S
C1764 C1750 1.377 . S
C1764 C1763 1.373 . S
C1765 C1749 1.377 . S
C1765 C1763 1.389 . S
C1765 C1766 1.524 . S
C1766 C1765 1.524 . S
C1766 C1767 1.397 . S
C1766 C1771 1.363 . S
C1767 H1738 0.950 . S
C1767 C1766 1.397 . S
C1767 C1768 1.334 . S
C1768 H1739 0.950 . S
C1768 C1767 1.334 . S
C1768 C1769 1.287 . S
C1769 C1768 1.287 . S
C1769 C1770 1.524 . S
C1769 H1772 0.999 . S
C1770 H1740 0.950 . S
C1770 C1769 1.524 . S
C1770 C1771 1.415 . S
C1771 H1741 0.950 . S
C1771 C1766 1.363 . S
C1771 C1770 1.415 . S
H1772 C1769 0.999 . S
H1773 C1754 0.913 . S
H1774 C1792 0.951 . S
H1775 C1794 0.951 . S
H1776 C1796 0.950 . S
H1777 C1797 0.950 . S
H1778 C1799 0.950 . S
H1779 C1802 0.950 . S
H1780 C1803 0.950 . S
H1781 C1805 0.950 . S
H1782 C1806 0.950 . S
H1783 C1807 0.951 . S
H1784 C1809 0.951 . S
H1785 C1811 0.950 . S
H1786 C1812 0.950 . S
H1787 C1814 0.950 . S
H1788 C1817 0.950 . S
H1789 C1818 0.950 . S
H1790 C1820 0.950 . S
H1791 C1821 0.950 . S
C1792 H1774 0.951 . S
C1792 C1793 1.366 . S
C1792 C1794 1.388 . S
C1793 C1792 1.366 . S
C1793 C1797 1.385 . S
C1794 H1775 0.951 . S
C1794 C1792 1.388 . S
C1794 C1795 1.366 . S
C1795 C1794 1.366 . S
C1795 C1796 1.414 . S
C1795 C1798 1.499 . S
C1796 H1776 0.950 . S
C1796 C1795 1.414 . S
C1796 C1797 1.374 . S
C1797 H1777 0.950 . S
C1797 C1793 1.385 . S
C1797 C1796 1.374 . S
C1798 C1795 1.499 . S
C1798 C1799 1.373 . S
C1798 C1800 1.389 . S
C1799 H1778 0.950 . S
C1799 C1798 1.373 . S
C1799 C1815 1.377 . S
C1800 C1798 1.389 . S
C1800 C1801 1.524 . S
C1800 C1814 1.377 . S
C1801 C1800 1.524 . S
C1801 C1802 1.397 . S
C1801 C1806 1.363 . S
C1802 H1779 0.950 . S
C1802 C1801 1.397 . S
C1802 C1803 1.334 . S
C1803 H1780 0.950 . S
C1803 C1802 1.334 . S
C1803 C1804 1.287 . S
C1804 C1803 1.287 . S
C1804 C1805 1.524 . S
C1804 H1823 0.913 . S
C1805 H1781 0.950 . S
C1805 C1804 1.524 . S
C1805 C1806 1.415 . S
C1806 H1782 0.950 . S
C1806 C1801 1.363 . S
C1806 C1805 1.415 . S
C1807 H1783 0.951 . S
C1807 C1808 1.366 . S
C1807 C1809 1.388 . S
C1808 C1807 1.366 . S
C1808 C1812 1.385 . S
C1809 H1784 0.951 . S
C1809 C1807 1.388 . S
C1809 C1810 1.366 . S
C1810 C1809 1.366 . S
C1810 C1811 1.414 . S
C1810 C1813 1.499 . S
C1811 H1785 0.950 . S
C1811 C1810 1.414 . S
C1811 C1812 1.374 . S
C1812 H1786 0.950 . S
C1812 C1808 1.385 . S
C1812 C1811 1.374 . S
C1813 C1810 1.499 . S
C1813 C1814 1.373 . S
C1813 C1815 1.389 . S
C1814 H1787 0.950 . S
C1814 C1800 1.377 . S
C1814 C1813 1.373 . S
C1815 C1799 1.377 . S
C1815 C1813 1.389 . S
C1815 C1816 1.524 . S
C1816 C1815 1.524 . S
C1816 C1817 1.397 . S
C1816 C1821 1.363 . S
C1817 H1788 0.950 . S
C1817 C1816 1.397 . S
C1817 C1818 1.334 . S
C1818 H1789 0.950 . S
C1818 C1817 1.334 . S
C1818 C1819 1.287 . S
C1819 C1818 1.287 . S
C1819 C1820 1.524 . S
C1819 H1822 0.999 . S
C1820 H1790 0.950 . S
C1820 C1819 1.524 . S
C1820 C1821 1.415 . S
C1821 H1791 0.950 . S
C1821 C1816 1.363 . S
C1821 C1820 1.415 . S
H1822 C1819 0.999 . S
H1823 C1804 0.913 . S
C243 C0 1.633 . S
C258 C70 1.633 . S
C293 C56 1.632 . S
C308 C27 1.633 . S
C343 C28 1.634 . S
C358 C98 1.632 . S
C393 C84 1.632 . S
C408 C43 1.633 . S
C443 C195 1.633 . S
C458 C112 1.634 . S
C493 C168 1.632 . S
C508 C126 1.634 . S
C543 C210 1.633 . S
C558 C140 1.634 . S
C593 C166 1.634 . S
C608 C196 1.632 . S
C643 C15 1.504 . S
C658 C12 1.504 . S
C693 C40 1.504 . S
C708 C55 1.505 . S
C743 C68 1.504 . S
C758 C82 1.505 . S
C793 C96 1.504 . S
C808 C110 1.505 . S
C843 C124 1.505 . S
C858 C138 1.504 . S
C893 C154 1.505 . S
C908 C152 1.504 . S
C943 C183 1.505 . S
C958 C180 1.504 . S
C993 C208 1.504 . S
C1008 C222 1.504 . S
C1043 C139 1.504 . S
C1058 C13 1.505 . S
C1093 C14 1.505 . S
C1108 C125 1.505 . S
C1143 C155 1.504 . S
C1158 C41 1.504 . S
C1193 C54 1.505 . S
C1208 C153 1.504 . S
C1243 C69 1.505 . S
C1258 C182 1.505 . S
C1293 C181 1.505 . S
C1308 C83 1.505 . S
C1343 C97 1.505 . S
C1358 C223 1.504 . S
C1393 C209 1.504 . S
C1408 C111 1.505 . S
C1443 C1 1.651 . S
C1458 C29 1.651 . S
C1493 C42 1.652 . S
C1508 C26 1.651 . S
C1543 C85 1.651 . S
C1558 C57 1.651 . S
C1593 C99 1.651 . S
C1608 C71 1.652 . S
C1643 C141 1.650 . S
C1658 C113 1.651 . S
C1693 C127 1.650 . S
C1708 C167 1.650 . S
C1743 C197 1.651 . S
C1758 C169 1.651 . S
C1793 C194 1.650 . S
C1808 C211 1.652 . S
