# Generated by pormake.
# Topology mon, (4)-cn, num edge types: 1
# Building blocks:
#     Node 0, Type 0, BuildingBlock: NAHDIM_clean_sbu_0, # of connection points: 4
#     Node 1, Type 0, BuildingBlock: NAHDIM_clean_sbu_0, # of connection points: 4
#     Node 2, Type 0, BuildingBlock: NAHDIM_clean_sbu_0, # of connection points: 4
#     Node 3, Type 0, BuildingBlock: NAHDIM_clean_sbu_0, # of connection points: 4
#     Node 4, Type 0, BuildingBlock: NAHDIM_clean_sbu_0, # of connection points: 4
#     Node 5, Type 0, BuildingBlock: NAHDIM_clean_sbu_0, # of connection points: 4
#     Node 6, Type 0, BuildingBlock: NAHDIM_clean_sbu_0, # of connection points: 4
#     Node 7, Type 0, BuildingBlock: NAHDIM_clean_sbu_0, # of connection points: 4
#     Node 8, Type 0, BuildingBlock: NAHDIM_clean_sbu_0, # of connection points: 4
#     Node 9, Type 0, BuildingBlock: NAHDIM_clean_sbu_0, # of connection points: 4
#     Node 10, Type 0, BuildingBlock: NAHDIM_clean_sbu_0, # of connection points: 4
#     Node 11, Type 0, BuildingBlock: NAHDIM_clean_sbu_0, # of connection points: 4
#     Node 12, Type 0, BuildingBlock: NAHDIM_clean_sbu_0, # of connection points: 4
#     Node 13, Type 0, BuildingBlock: NAHDIM_clean_sbu_0, # of connection points: 4
#     Node 14, Type 0, BuildingBlock: NAHDIM_clean_sbu_0, # of connection points: 4
#     Node 15, Type 0, BuildingBlock: NAHDIM_clean_sbu_0, # of connection points: 4
#     Edge 16, Type (0, 0), BuildingBlock: KIFKEQ_clean_linker_1, # of connection points: 2
#     Edge 17, Type (0, 0), BuildingBlock: KIFKEQ_clean_linker_1, # of connection points: 2
#     Edge 18, Type (0, 0), BuildingBlock: KIFKEQ_clean_linker_1, # of connection points: 2
#     Edge 19, Type (0, 0), BuildingBlock: KIFKEQ_clean_linker_1, # of connection points: 2
#     Edge 20, Type (0, 0), BuildingBlock: KIFKEQ_clean_linker_1, # of connection points: 2
#     Edge 21, Type (0, 0), BuildingBlock: KIFKEQ_clean_linker_1, # of connection points: 2
#     Edge 22, Type (0, 0), BuildingBlock: KIFKEQ_clean_linker_1, # of connection points: 2
#     Edge 23, Type (0, 0), BuildingBlock: KIFKEQ_clean_linker_1, # of connection points: 2
#     Edge 24, Type (0, 0), BuildingBlock: KIFKEQ_clean_linker_1, # of connection points: 2
#     Edge 25, Type (0, 0), BuildingBlock: KIFKEQ_clean_linker_1, # of connection points: 2
#     Edge 26, Type (0, 0), BuildingBlock: KIFKEQ_clean_linker_1, # of connection points: 2
#     Edge 27, Type (0, 0), BuildingBlock: KIFKEQ_clean_linker_1, # of connection points: 2
#     Edge 28, Type (0, 0), BuildingBlock: KIFKEQ_clean_linker_1, # of connection points: 2
#     Edge 29, Type (0, 0), BuildingBlock: KIFKEQ_clean_linker_1, # of connection points: 2
#     Edge 30, Type (0, 0), BuildingBlock: KIFKEQ_clean_linker_1, # of connection points: 2
#     Edge 31, Type (0, 0), BuildingBlock: KIFKEQ_clean_linker_1, # of connection points: 2
#     Edge 32, Type (0, 0), BuildingBlock: KIFKEQ_clean_linker_1, # of connection points: 2
#     Edge 33, Type (0, 0), BuildingBlock: KIFKEQ_clean_linker_1, # of connection points: 2
#     Edge 34, Type (0, 0), BuildingBlock: KIFKEQ_clean_linker_1, # of connection points: 2
#     Edge 35, Type (0, 0), BuildingBlock: KIFKEQ_clean_linker_1, # of connection points: 2
#     Edge 36, Type (0, 0), BuildingBlock: KIFKEQ_clean_linker_1, # of connection points: 2
#     Edge 37, Type (0, 0), BuildingBlock: KIFKEQ_clean_linker_1, # of connection points: 2
#     Edge 38, Type (0, 0), BuildingBlock: KIFKEQ_clean_linker_1, # of connection points: 2
#     Edge 39, Type (0, 0), BuildingBlock: KIFKEQ_clean_linker_1, # of connection points: 2
#     Edge 40, Type (0, 0), BuildingBlock: KIFKEQ_clean_linker_1, # of connection points: 2
#     Edge 41, Type (0, 0), BuildingBlock: KIFKEQ_clean_linker_1, # of connection points: 2
#     Edge 42, Type (0, 0), BuildingBlock: KIFKEQ_clean_linker_1, # of connection points: 2
#     Edge 43, Type (0, 0), BuildingBlock: KIFKEQ_clean_linker_1, # of connection points: 2
#     Edge 44, Type (0, 0), BuildingBlock: KIFKEQ_clean_linker_1, # of connection points: 2
#     Edge 45, Type (0, 0), BuildingBlock: KIFKEQ_clean_linker_1, # of connection points: 2
#     Edge 46, Type (0, 0), BuildingBlock: KIFKEQ_clean_linker_1, # of connection points: 2
#     Edge 47, Type (0, 0), BuildingBlock: KIFKEQ_clean_linker_1, # of connection points: 2
# Relax obj value: 0.123
# Max RMSD: 0.120
# Mean RMSD: 0.120
data_MOF--net-mon--node1-NAHDIM_clean_sbu_0--edge1-KIFKEQ_clean_linker_1
_symmetry_space_group_name_H-M    P1
_symmetry_Int_Tables_number       1
_symmetry_cell_setting            triclinic
loop_
_symmetry_equiv_pos_as_xyz
'x, y, z'
_cell_length_a     35.416864
_cell_length_b     35.389762
_cell_length_c     82.86296
_cell_angle_alpha  90.15347
_cell_angle_beta   90.076292
_cell_angle_gamma 90.086652
loop_
_atom_site_label
_atom_site_type_symbol
_atom_site_fract_x
_atom_site_fract_y
_atom_site_fract_z
_atom_type_partial_charge
C0 C 0.97412 0.11005 0.59458 0.0
O1 O 0.94239 0.09771 0.58822 0.0
O2 O 0.94368 0.01364 0.60135 0.0
Zn3 Zn 0.99209 0.03255 0.59155 0.0
O4 O 0.99006 0.02911 0.56727 0.0
C5 C 0.06858 0.00583 0.59519 0.0
O6 O 0.07595 0.03229 0.58455 0.0
O7 O 0.00028 0.08661 0.59755 0.0
C8 C 0.00295 0.00083 0.55956 0.0
O9 O 0.0176 0.97246 0.5676 0.0
C10 C 0.92573 0.98674 0.59464 0.0
O11 O 0.93859 0.97245 0.58109 0.0
O12 O 0.03485 0.00125 0.60001 0.0
C13 C 0.14483 0.71991 0.83874 0.0
O14 O 0.15669 0.68872 0.83177 0.0
O15 O 0.2382 0.68714 0.84277 0.0
Zn16 Zn 0.22174 0.738 0.83467 0.0
O17 O 0.2238 0.73947 0.81037 0.0
C18 C 0.28987 0.77008 0.84728 0.0
O19 O 0.30307 0.73712 0.84265 0.0
O20 O 0.1683 0.74632 0.84147 0.0
C21 C 0.24957 0.75612 0.80244 0.0
O22 O 0.27662 0.77388 0.81023 0.0
C23 C 0.25807 0.66454 0.83441 0.0
O24 O 0.26739 0.67385 0.81961 0.0
O25 O 0.25527 0.77768 0.84481 0.0
C26 C 0.51821 0.87896 0.08784 0.0
O27 O 0.53622 0.89153 0.07508 0.0
O28 O 0.55156 0.97948 0.10073 0.0
Zn29 Zn 0.50444 0.95729 0.09103 0.0
O30 O 0.50442 0.96234 0.06686 0.0
C31 C 0.46004 0.00281 0.11282 0.0
O32 O 0.49009 0.0 0.12205 0.0
O33 O 0.50138 0.9024 0.09696 0.0
C34 C 0.5155 0.99201 0.05968 0.0
O35 O 0.52832 0.02061 0.06823 0.0
C36 C 0.58431 0.97672 0.09461 0.0
O37 O 0.58871 0.95866 0.08087 0.0
O38 O 0.45946 0.98582 0.0993 0.0
C39 C 0.37581 0.26453 0.33922 0.0
O40 O 0.3632 0.29215 0.33014 0.0
O41 O 0.27705 0.2941 0.35151 0.0
Zn42 Zn 0.29753 0.2482 0.3402 0.0
O43 O 0.29147 0.25244 0.31621 0.0
C44 C 0.2546 0.20018 0.36142 0.0
O45 O 0.26091 0.22754 0.37183 0.0
O46 O 0.35236 0.24148 0.34532 0.0
C47 C 0.26103 0.26369 0.30969 0.0
O48 O 0.23267 0.27408 0.31888 0.0
C49 C 0.27733 0.32732 0.34573 0.0
O50 O 0.2923 0.33327 0.33147 0.0
O51 O 0.26823 0.20266 0.34729 0.0
C52 C 0.98916 0.88321 0.40219 0.0
O53 O 0.95689 0.89557 0.40794 0.0
O54 O 0.96387 0.9818 0.39484 0.0
Zn55 Zn 0.0085 0.96035 0.40661 0.0
O56 O 0.00076 0.96299 0.43055 0.0
C57 C 0.0596 0.00198 0.38664 0.0
O58 O 0.03522 0.99223 0.37541 0.0
O59 O 0.01616 0.90639 0.40026 0.0
C60 C 0.00407 -0.00569 0.43794 0.0
O61 O 0.01176 0.02497 0.42965 0.0
C62 C 0.93145 0.98604 0.40113 0.0
O63 O 0.92588 0.97555 0.41614 0.0
O64 O 0.05438 0.99083 0.40102 0.0
C65 C 0.36165 0.72736 0.64651 0.0
O66 O 0.34747 0.69677 0.65312 0.0
O67 O 0.26221 0.70504 0.63798 0.0
Zn68 Zn 0.28535 0.74982 0.64921 0.0
O69 O 0.28222 0.74462 0.67328 0.0
C70 C 0.25634 0.80763 0.62823 0.0
O71 O 0.27504 0.78866 0.61719 0.0
O72 O 0.33978 0.75468 0.64322 0.0
C73 C 0.25127 0.7495 0.68072 0.0
O74 O 0.22056 0.75694 0.67242 0.0
C75 C 0.25762 0.67319 0.64475 0.0
O76 O 0.26858 0.6687 0.65978 0.0
O77 O 0.25721 0.79641 0.64277 0.0
C78 C 0.52737 0.09775 0.9036 0.0
O79 O 0.55911 0.08612 0.91013 0.0
O80 O 0.55835 0.00159 0.89465 0.0
Zn81 Zn 0.51139 0.01964 0.90576 0.0
O82 O 0.51694 0.01494 0.92983 0.0
C83 C 0.4694 0.95235 0.90111 0.0
O84 O 0.49734 0.93914 0.90988 0.0
O85 O 0.50185 0.07371 0.90031 0.0
C86 C 0.48817 0.0118 0.93886 0.0
O87 O 0.45438 0.01129 0.9323 0.0
C88 C 0.58971 -0.003 0.90184 0.0
O89 O 0.5925 0.00548 0.91724 0.0
O90 O 0.46857 0.98738 0.89786 0.0
C91 C 0.15032 0.27409 0.15216 0.0
O92 O 0.16006 0.30661 0.15862 0.0
O93 O 0.25043 0.30324 0.14379 0.0
Zn94 Zn 0.22897 0.25956 0.15613 0.0
O95 O 0.23111 0.26943 0.18 0.0
C96 C 0.26839 0.20477 0.13685 0.0
O97 O 0.25523 0.22543 0.12496 0.0
O98 O 0.17554 0.24933 0.14964 0.0
C99 C 0.23048 0.24092 0.18927 0.0
O100 O 0.22794 0.20696 0.18291 0.0
C101 C 0.25045 0.33733 0.14863 0.0
O102 O 0.23458 0.34583 0.16249 0.0
O103 O 0.26049 0.21388 0.15128 0.0
C104 C 0.87475 0.20943 0.14835 0.0
O105 O 0.86363 0.17834 0.15557 0.0
O106 O 0.77789 0.17618 0.13995 0.0
Zn107 Zn 0.79605 0.22501 0.14978 0.0
O108 O 0.79097 0.22567 0.17397 0.0
C109 C 0.73025 0.26096 0.13745 0.0
O110 O 0.71615 0.22725 0.14021 0.0
O111 O 0.85028 0.23381 0.1443 0.0
C112 C 0.76109 0.21628 0.18144 0.0
O113 O 0.73171 0.20424 0.17321 0.0
C114 C 0.77461 0.14475 0.14719 0.0
O115 O 0.78531 0.14195 0.16233 0.0
O116 O 0.76481 0.26721 0.14063 0.0
C117 C 0.64141 0.76557 0.65327 0.0
O118 O 0.65371 0.79766 0.65933 0.0
O119 O 0.73579 0.79619 0.6482 0.0
Zn120 Zn 0.718 0.74735 0.65801 0.0
O121 O 0.72006 0.74871 0.68231 0.0
C122 C 0.78509 0.71174 0.64632 0.0
O123 O 0.79826 0.74626 0.64796 0.0
O124 O 0.66451 0.73855 0.65133 0.0
C125 C 0.75107 0.7501 0.69002 0.0
O126 O 0.78297 0.75132 0.68198 0.0
C127 C 0.74641 0.82531 0.65598 0.0
O128 O 0.74512 0.82536 0.67182 0.0
O129 O 0.75079 0.70504 0.6498 0.0
C130 C 0.65502 0.21649 0.33931 0.0
O131 O 0.66708 0.1828 0.33509 0.0
O132 O 0.75063 0.18725 0.34708 0.0
Zn133 Zn 0.73272 0.23329 0.33524 0.0
O134 O 0.73767 0.22577 0.31126 0.0
C135 C 0.80049 0.27382 0.34017 0.0
O136 O 0.81357 0.24387 0.33263 0.0
O137 O 0.6786 0.24343 0.34046 0.0
C138 C 0.74328 0.25349 0.30186 0.0
O139 O 0.74612 0.28769 0.30795 0.0
C140 C 0.75765 0.15591 0.34021 0.0
O141 O 0.75167 0.15233 0.32463 0.0
O142 O 0.76518 0.27654 0.34257 0.0
C143 C 0.86577 0.7608 0.84657 0.0
O144 O 0.85237 0.79251 0.8407 0.0
O145 O 0.76866 0.78813 0.85336 0.0
Zn146 Zn 0.78889 0.74064 0.84324 0.0
O147 O 0.78519 0.74245 0.81911 0.0
C148 C 0.75002 0.69491 0.86613 0.0
O149 O 0.76406 0.72016 0.87614 0.0
O150 O 0.8432 0.73359 0.84919 0.0
C151 C 0.75454 0.74976 0.8118 0.0
O152 O 0.724 0.75702 0.82024 0.0
C153 C 0.76572 0.81994 0.8464 0.0
O154 O 0.77716 0.82361 0.83141 0.0
O155 O 0.75777 0.69729 0.85121 0.0
C156 C 0.50556 0.59783 0.10289 0.0
O157 O 0.48052 0.58092 0.11206 0.0
O158 O 0.46878 0.50231 0.09702 0.0
Zn159 Zn 0.51539 0.52418 0.08692 0.0
O160 O 0.51347 0.51853 0.06272 0.0
C161 C 0.55738 0.45836 0.09082 0.0
O162 O 0.5294 0.44678 0.08163 0.0
O163 O 0.52314 0.579 0.09222 0.0
C164 C 0.48892 0.49882 0.05529 0.0
O165 O 0.46238 0.48157 0.06354 0.0
C166 C 0.43487 0.51392 0.09652 0.0
O167 O 0.42676 0.54538 0.08889 0.0
O168 O 0.55866 0.49292 0.095 0.0
C169 C 0.02465 0.38847 0.59104 0.0
O170 O 0.05647 0.40003 0.58456 0.0
O171 O 0.05377 0.48643 0.59591 0.0
Zn172 Zn 0.00576 0.46568 0.58643 0.0
O173 O 0.00648 0.46757 0.56223 0.0
C174 C 0.96478 0.50972 0.60906 0.0
O175 O -0.00645 0.49996 0.61816 0.0
O176 O -0.0017 0.41216 0.59333 0.0
C177 C 0.00892 0.49875 0.55476 0.0
O178 O 0.01173 0.53031 0.56307 0.0
C179 C 0.08461 0.49214 0.5885 0.0
O180 O 0.08739 0.48297 0.57318 0.0
O181 O 0.96304 0.49749 0.59465 0.0
C182 C 0.47727 0.37666 0.90027 0.0
O183 O 0.44547 0.38942 0.90634 0.0
O184 O 0.44932 0.47346 0.89042 0.0
Zn185 Zn 0.49495 0.45428 0.90225 0.0
O186 O 0.48768 0.45925 0.92617 0.0
C187 C 0.54257 0.51869 0.90105 0.0
O188 O 0.51573 0.53194 0.91042 0.0
O189 O 0.5035 0.39992 0.89706 0.0
C190 C 0.51564 0.455 0.93559 0.0
O191 O 0.54881 0.44665 0.92947 0.0
C192 C 0.42606 0.4953 0.89743 0.0
O193 O 0.43169 0.50442 0.91262 0.0
O194 O 0.53999 0.48506 0.89577 0.0
C195 C 0.03457 0.60361 0.39956 0.0
O196 O 0.06544 0.59094 0.40649 0.0
O197 O 0.06726 0.50922 0.39117 0.0
Zn198 Zn 0.01799 0.52591 0.4008 0.0
O199 O 0.01961 0.52074 0.42501 0.0
C200 C 0.98331 0.45782 0.39087 0.0
O201 O 0.01477 0.44469 0.39713 0.0
O202 O 0.00899 0.58023 0.39553 0.0
C203 C -0.00633 0.5052 0.43324 0.0
O204 O 0.96394 0.49122 0.42584 0.0
C205 C 0.09648 0.50199 0.39951 0.0
O206 O 0.09553 0.50697 0.41522 0.0
O207 O 0.97731 0.4932 0.39121 0.0
H208 H 0.03721 0.1448 0.60658 0.0
H209 H 0.92566 0.16778 0.5878 0.0
H210 H 0.04969 0.21246 0.60829 0.0
H211 H 0.93846 0.23529 0.58921 0.0
H212 H 0.96194 0.35546 0.60407 0.0
H213 H 0.94965 0.28819 0.60752 0.0
H214 H 0.06047 0.26268 0.58869 0.0
H215 H 0.07309 0.3299 0.58554 0.0
C216 C 0.01526 0.16427 0.60292 0.0
C217 C 0.98053 0.15094 0.59694 0.0
C218 C 0.02251 0.20301 0.60383 0.0
C219 C -0.00483 0.22919 0.5988 0.0
C220 C 0.95997 0.21585 0.59335 0.0
C221 C 0.95272 0.17713 0.59244 0.0
C222 C 0.98384 0.33552 0.60082 0.0
C223 C 0.01839 0.34798 0.5944 0.0
C224 C 0.97671 0.29699 0.60274 0.0
C225 C 0.00397 0.27013 0.59828 0.0
C226 C 0.03902 0.28268 0.5924 0.0
C227 C 0.04617 0.32121 0.5905 0.0
H228 H 0.90313 0.69777 0.85697 0.0
H229 H 0.9214 0.81218 0.84053 0.0
H230 H 0.97121 0.68761 0.85767 0.0
H231 H 0.98923 0.80174 0.84091 0.0
H232 H 0.11119 0.78056 0.85328 0.0
H233 H 0.04395 0.79035 0.85799 0.0
H234 H 0.01997 0.68083 0.83716 0.0
H235 H 0.08711 0.67067 0.83278 0.0
C236 C 0.92165 0.72084 0.85363 0.0
C237 C 0.90688 0.75568 0.84856 0.0
C238 C 0.96062 0.71494 0.85395 0.0
C239 C 0.98557 0.74377 0.84923 0.0
C240 C 0.9708 0.77907 0.84478 0.0
C241 C 0.93187 0.78498 0.84446 0.0
C242 C 0.09158 0.75843 0.84984 0.0
C243 C 0.10443 0.72495 0.84254 0.0
C244 C 0.05307 0.76411 0.85248 0.0
C245 C 0.02665 0.73644 0.84788 0.0
C246 C 0.03964 0.7025 0.84103 0.0
C247 C 0.07812 0.6968 0.8384 0.0
H248 H 0.56462 0.63876 0.09135 0.0
H249 H 0.45757 0.65027 0.11579 0.0
H250 H 0.56977 0.70713 0.08948 0.0
H251 H 0.46192 0.71884 0.11335 0.0
H252 H 0.49355 0.84392 0.11534 0.0
H253 H 0.49337 0.77624 0.12106 0.0
H254 H 0.54005 0.75437 0.07376 0.0
H255 H 0.54146 0.82168 0.06834 0.0
C256 C 0.54224 0.65597 0.09639 0.0
C257 C 0.51052 0.6392 0.10357 0.0
C258 C 0.54504 0.69516 0.09521 0.0
C259 C 0.51592 0.7185 0.10099 0.0
C260 C 0.48497 0.70175 0.10886 0.0
C261 C 0.4824 0.66244 0.11022 0.0
C262 C 0.50387 0.82457 0.10621 0.0
C263 C 0.51761 0.83811 0.0914 0.0
C264 C 0.50364 0.7858 0.10946 0.0
C265 C 0.51692 0.75983 0.09792 0.0
C266 C 0.53043 0.77355 0.08309 0.0
C267 C 0.53096 0.81219 0.07991 0.0
H268 H 0.62072 0.28338 0.34681 0.0
H269 H 0.59724 0.16557 0.33709 0.0
H270 H 0.55321 0.29578 0.34887 0.0
H271 H 0.52978 0.17817 0.33889 0.0
H272 H 0.41148 0.20772 0.35554 0.0
H273 H 0.47931 0.1967 0.35765 0.0
H274 H 0.50046 0.2974 0.3297 0.0
H275 H 0.43286 0.30879 0.3278 0.0
C276 C 0.60118 0.2601 0.34519 0.0
C277 C 0.61431 0.22353 0.34167 0.0
C278 C 0.56253 0.26726 0.34631 0.0
C279 C 0.53621 0.238 0.34396 0.0
C280 C 0.54938 0.20123 0.34093 0.0
C281 C 0.58804 0.19407 0.33979 0.0
C282 C 0.43063 0.22768 0.34997 0.0
C283 C 0.41681 0.25903 0.34143 0.0
C284 C 0.46944 0.22125 0.35112 0.0
C285 C 0.49518 0.24611 0.3438 0.0
C286 C 0.48136 0.27798 0.33563 0.0
C287 C 0.44259 0.28436 0.33446 0.0
H288 H 0.05252 0.84849 0.39065 0.0
H289 H 0.93886 0.82579 0.40698 0.0
H290 H 0.06357 0.78087 0.38768 0.0
H291 H 0.95021 0.75823 0.40431 0.0
H292 H 0.97302 0.63932 0.38675 0.0
H293 H 0.96191 0.70721 0.38503 0.0
H294 H 0.0714 0.7283 0.40632 0.0
H295 H 0.08284 0.66063 0.40775 0.0
C296 C 0.02983 0.8291 0.39352 0.0
C297 C -0.00509 0.84247 0.39917 0.0
C298 C 0.03623 0.79037 0.39189 0.0
C299 C 0.00786 0.76422 0.39586 0.0
C300 C 0.97252 0.77766 0.40099 0.0
C301 C 0.9661 0.8164 0.40262 0.0
C302 C -0.00514 0.65847 0.39092 0.0
C303 C 0.02873 0.64462 0.39747 0.0
C304 C 0.9884 0.69733 0.39 0.0
C305 C 0.01571 0.72309 0.39559 0.0
C306 C 0.04999 0.7092 0.40172 0.0
C307 C 0.05643 0.67039 0.40265 0.0
H308 H 0.41628 0.67638 0.65444 0.0
H309 H 0.40021 0.78751 0.63403 0.0
H310 H 0.48434 0.68566 0.65382 0.0
H311 H 0.46845 0.79643 0.6331 0.0
H312 H 0.58451 0.81649 0.65747 0.0
H313 H 0.51721 0.80639 0.65343 0.0
H314 H 0.53932 0.69299 0.63648 0.0
H315 H 0.60674 0.70279 0.64085 0.0
C316 C 0.42728 0.70256 0.64959 0.0
C317 C 0.40285 0.73137 0.64444 0.0
C318 C 0.46632 0.70778 0.64914 0.0
C319 C 0.48175 0.74188 0.6435 0.0
C320 C 0.45736 0.77008 0.63774 0.0
C321 C 0.41829 0.76488 0.6382 0.0
C322 C 0.57508 0.78949 0.65276 0.0
C323 C 0.60092 0.76033 0.64962 0.0
C324 C 0.53651 0.7838 0.65033 0.0
C325 C 0.52294 0.74885 0.64466 0.0
C326 C 0.54889 0.72006 0.64105 0.0
C327 C 0.58751 0.72574 0.6435 0.0
H328 H 0.42851 0.31935 0.90751 0.0
H329 H 0.54034 0.34126 0.88885 0.0
H330 H 0.4409 0.25171 0.90656 0.0
H331 H 0.55241 0.27353 0.88763 0.0
H332 H 0.57519 0.15635 0.91016 0.0
H333 H 0.56251 0.22364 0.90752 0.0
H334 H 0.45186 0.19853 0.88822 0.0
H335 H 0.46423 0.13113 0.89113 0.0
C336 C 0.45556 0.30973 0.90302 0.0
C337 C 0.48355 0.33566 0.89838 0.0
C338 C 0.46257 0.27095 0.90238 0.0
C339 C 0.4977 0.25732 0.89709 0.0
C340 C 0.52527 0.28323 0.89198 0.0
C341 C 0.51826 0.322 0.89261 0.0
C342 C 0.54825 0.16514 0.90525 0.0
C343 C 0.52063 0.13842 0.90095 0.0
C344 C 0.54108 0.20371 0.90364 0.0
C345 C 0.50615 0.21636 0.89769 0.0
C346 C 0.47886 0.18962 0.89303 0.0
C347 C 0.48604 0.15103 0.89463 0.0
H348 H 0.1206 0.20825 0.14037 0.0
H349 H 0.08932 0.31985 0.1569 0.0
H350 H 0.05408 0.1921 0.13709 0.0
H351 H 0.02288 0.30344 0.15386 0.0
H352 H 0.90701 0.27249 0.13526 0.0
H353 H 0.97401 0.288 0.13387 0.0
H354 H 0.00126 0.18057 0.15559 0.0
H355 H 0.93437 0.16474 0.15675 0.0
C356 C 0.09956 0.22941 0.14321 0.0
C357 C 0.11021 0.26526 0.149 0.0
C358 C 0.06147 0.22008 0.1414 0.0
C359 C 0.03328 0.24643 0.1453 0.0
C360 C 0.04397 0.28266 0.15059 0.0
C361 C 0.08204 0.29198 0.15243 0.0
C362 C 0.92731 0.252 0.13959 0.0
C363 C 0.91538 0.21748 0.14623 0.0
C364 C 0.96566 0.26099 0.13886 0.0
C365 C -0.00714 0.23562 0.14471 0.0
C366 C 0.98099 0.20056 0.15083 0.0
C367 C 0.94264 0.19159 0.15159 0.0
H368 H 0.98618 0.93663 0.4584 0.0
H369 H 0.01523 0.05529 0.45769 0.0
H370 H 0.98379 0.93839 0.48778 0.0
H371 H 0.01363 0.05681 0.48709 0.0
H372 H 0.97291 0.05384 0.53932 0.0
H373 H 0.97072 0.05227 0.50992 0.0
H374 H 0.02784 0.94447 0.51011 0.0
H375 H 0.02934 0.94561 0.53949 0.0
C376 C 0.99205 0.96311 0.46451 0.0
C377 C 0.00104 -0.0042 0.45572 0.0
C378 C 0.99089 0.96404 0.48135 0.0
C379 C -0.00127 -0.00232 0.48977 0.0
C380 C 0.00705 0.03055 0.48096 0.0
C381 C 0.00816 0.02963 0.46411 0.0
C382 C 0.98492 0.02974 0.53309 0.0
C383 C 0.00132 -0.00016 0.54174 0.0
C384 C 0.98383 0.02895 0.51624 0.0
C385 C -0.00089 -0.00175 0.50768 0.0
C386 C 0.01533 0.96828 0.51635 0.0
C387 C 0.01641 0.96905 0.53319 0.0
H388 H 0.30148 0.7865 0.78181 0.0
H389 H 0.19727 0.72278 0.78269 0.0
H390 H 0.30131 0.78409 0.75241 0.0
H391 H 0.19749 0.71991 0.75329 0.0
H392 H 0.19047 0.76041 0.70051 0.0
H393 H 0.18984 0.76185 0.72995 0.0
H394 H 0.30935 0.73766 0.73069 0.0
H395 H 0.31018 0.73678 0.7013 0.0
C396 C 0.27858 0.77192 0.77575 0.0
C397 C 0.24939 0.75485 0.78459 0.0
C398 C 0.27862 0.77034 0.7589 0.0
C399 C 0.24943 0.75173 0.75053 0.0
C400 C 0.22015 0.7348 0.75938 0.0
C401 C 0.22015 0.7363 0.77623 0.0
C402 C 0.21658 0.75526 0.70695 0.0
C403 C 0.25039 0.74861 0.69856 0.0
C404 C 0.21618 0.75593 0.72382 0.0
C405 C 0.24958 0.75003 0.73264 0.0
C406 C 0.28327 0.74288 0.72424 0.0
C407 C 0.28367 0.74214 0.70739 0.0
H408 H 0.54404 0.04714 0.04005 0.0
H409 H 0.48075 0.94261 0.0391 0.0
H410 H 0.53792 0.05189 0.01074 0.0
H411 H 0.47476 0.94744 0.00987 0.0
H412 H 0.43401 -0.00498 0.96115 0.0
H413 H 0.44148 0.99024 0.99035 0.0
H414 H 0.55995 0.01714 0.9858 0.0
H415 H 0.55259 0.02201 0.95657 0.0
C416 C 0.52892 0.02516 0.0336 0.0
C417 C 0.5128 -0.00544 0.0419 0.0
C418 C 0.52558 0.0278 0.01682 0.0
C419 C 0.50575 0.0001 0.00806 0.0
C420 C 0.48983 0.96942 0.01635 0.0
C421 C 0.49347 0.96658 0.03308 0.0
C422 C 0.46166 -7e-05 0.96637 0.0
C423 C 0.49271 0.00886 0.95655 0.0
C424 C 0.46595 -0.003 0.98308 0.0
C425 C 0.5013 0.00328 0.99033 0.0
C426 C 0.53231 0.01246 0.98054 0.0
C427 C 0.52811 0.01504 0.9638 0.0
H428 H 0.22409 0.30608 0.20696 0.0
H429 H 0.24479 0.18622 0.21148 0.0
H430 H 0.23141 0.3134 0.23619 0.0
H431 H 0.25227 0.1937 0.24055 0.0
H432 H 0.30835 0.23093 0.28786 0.0
H433 H 0.30042 0.22688 0.25868 0.0
H434 H 0.19708 0.29092 0.26207 0.0
H435 H 0.20478 0.29492 0.29139 0.0
C436 C 0.23015 0.28135 0.21418 0.0
C437 C 0.23395 0.24559 0.20693 0.0
C438 C 0.23417 0.28553 0.23088 0.0
C439 C 0.24259 0.25414 0.24057 0.0
C440 C 0.24619 0.21842 0.23332 0.0
C441 C 0.24169 0.21414 0.21669 0.0
C442 C 0.28402 0.24435 0.28241 0.0
C443 C 0.25707 0.26309 0.29193 0.0
C444 C 0.27942 0.24184 0.26572 0.0
C445 C 0.24804 0.25839 0.25818 0.0
C446 C 0.2216 0.27804 0.26761 0.0
C447 C 0.22594 0.28016 0.28437 0.0
H448 H 0.81293 0.24917 0.20147 0.0
H449 H 0.7049 0.19214 0.20157 0.0
H450 H 0.80895 0.25734 0.23064 0.0
H451 H 0.70097 0.2005 0.23079 0.0
H452 H 0.7293 0.1884 0.28502 0.0
H453 H 0.73409 0.17839 0.25593 0.0
H454 H 0.76877 0.2945 0.24982 0.0
H455 H 0.76413 0.30459 0.27889 0.0
C456 C 0.78838 0.23827 0.20771 0.0
C457 C 0.75917 0.22008 0.1992 0.0
C458 C 0.78603 0.24317 0.22441 0.0
C459 C 0.7546 0.22969 0.23296 0.0
C460 C 0.72567 0.21094 0.22451 0.0
C461 C 0.72785 0.20632 0.20777 0.0
C462 C 0.73799 0.21179 0.27748 0.0
C463 C 0.74634 0.24731 0.28426 0.0
C464 C 0.74053 0.20608 0.26082 0.0
C465 C 0.75182 0.23566 0.25063 0.0
C466 C 0.76036 0.27109 0.25741 0.0
C467 C 0.7575 0.27691 0.27405 0.0
H468 H 0.81067 0.76458 0.71 0.0
H469 H 0.69172 0.73724 0.71033 0.0
H470 H 0.811 0.76577 0.73936 0.0
H471 H 0.69231 0.73704 0.73972 0.0
H472 H 0.69821 0.77594 0.7922 0.0
H473 H 0.6973 0.77725 0.76278 0.0
H474 H 0.80725 0.72439 0.76179 0.0
H475 H 0.8087 0.72439 0.79111 0.0
C476 C 0.78464 0.75857 0.71635 0.0
C477 C 0.75119 0.75078 0.70785 0.0
C478 C 0.78486 0.75903 0.7332 0.0
C479 C 0.75171 0.75135 0.74194 0.0
C480 C 0.71822 0.74364 0.7334 0.0
C481 C 0.71793 0.74351 0.71654 0.0
C482 C 0.72217 0.76464 0.78568 0.0
C483 C 0.75355 0.75016 0.79397 0.0
C484 C 0.72158 0.7652 0.76881 0.0
C485 C 0.75223 0.75097 0.75988 0.0
C486 C 0.78346 0.73624 0.76824 0.0
C487 C 0.7842 0.73602 0.78508 0.0
H488 H 0.57029 0.45204 0.95884 0.0
H489 H 0.45081 0.47125 0.95205 0.0
H490 H 0.56305 0.4629 0.98773 0.0
H491 H 0.44375 0.4826 0.98092 0.0
H492 H 0.44115 0.45902 0.03562 0.0
H493 H 0.44735 0.44803 0.00668 0.0
H494 H 0.54884 0.51586 0.00606 0.0
H495 H 0.54302 0.52647 0.03501 0.0
C496 C 0.54249 0.45857 0.9635 0.0
C497 C 0.51113 0.46079 0.95315 0.0
C498 C 0.5384 0.46503 0.98004 0.0
C499 C 0.50286 0.47373 0.98658 0.0
C500 C 0.47143 0.4756 0.97625 0.0
C501 C 0.47553 0.46926 0.9597 0.0
C502 C 0.46472 0.47169 0.02931 0.0
C503 C 0.49164 0.49354 0.03763 0.0
C504 C 0.46817 0.46552 0.01272 0.0
C505 C 0.49866 0.48096 0.00412 0.0
C506 C 0.52533 0.50315 0.01241 0.0
C507 C 0.52183 0.50943 0.02898 0.0
H508 H 0.01843 0.55963 0.5349 0.0
H509 H -0.00286 0.43932 0.53424 0.0
H510 H 0.01529 0.56075 0.50547 0.0
H511 H -0.0057 0.44051 0.50485 0.0
H512 H 0.9473 0.46813 0.45429 0.0
H513 H 0.95181 0.46644 0.48366 0.0
H514 H 0.05148 0.53675 0.4818 0.0
H515 H 0.04693 0.5387 0.45244 0.0
C516 C 0.01321 0.53342 0.52849 0.0
C517 C 0.00795 0.49941 0.53691 0.0
C518 C 0.01161 0.53404 0.51164 0.0
C519 C 0.00447 0.50072 0.50288 0.0
C520 C -0.0006 0.4667 0.51129 0.0
C521 C 0.00124 0.46602 0.52813 0.0
C522 C 0.9702 0.4832 0.46013 0.0
C523 C -0.00328 0.50359 0.45103 0.0
C524 C 0.97289 0.48206 0.47695 0.0
C525 C 0.00198 0.50149 0.48502 0.0
C526 C 0.02853 0.52183 0.47592 0.0
C527 C 0.02602 0.52275 0.4591 0.0
H528 H 0.24478 0.83711 0.59812 0.0
H529 H 0.21389 0.85186 0.6482 0.0
H530 H 0.20153 0.88777 0.5906 0.0
H531 H 0.17124 0.90275 0.64069 0.0
H532 H 0.06295 0.95099 0.6181 0.0
H533 H 0.1109 0.90583 0.62629 0.0
H534 H 0.19014 0.95658 0.59317 0.0
H535 H 0.14183 0.0017 0.58476 0.0
C536 C 0.22911 0.85142 0.60754 0.0
C537 C 0.23252 0.84023 0.62373 0.0
C538 C 0.2045 0.88057 0.60324 0.0
C539 C 0.18281 0.89905 0.61505 0.0
C540 C 0.18714 0.88863 0.63129 0.0
C541 C 0.21172 0.85957 0.63559 0.0
C542 C 0.09064 0.95273 0.61261 0.0
C543 C 0.09855 0.9799 0.60075 0.0
C544 C 0.11821 0.92697 0.61739 0.0
C545 C 0.15432 0.9277 0.6104 0.0
C546 C 0.16244 0.95515 0.59867 0.0
C547 C 0.13485 0.98109 0.59393 0.0
H548 H 0.36499 0.76237 0.85358 0.0
H549 H 0.27172 0.83985 0.8594 0.0
H550 H 0.40664 0.80692 0.86716 0.0
H551 H 0.31343 0.88425 0.87334 0.0
H552 H 0.41138 0.96951 0.88057 0.0
H553 H 0.36696 0.92585 0.8679 0.0
H554 H 0.41766 0.83305 0.89383 0.0
H555 H 0.46258 0.8765 0.90622 0.0
C556 C 0.35331 0.78887 0.85781 0.0
C557 C 0.31503 0.79756 0.8554 0.0
C558 C 0.37716 0.81431 0.86571 0.0
C559 C 0.3633 0.84903 0.87143 0.0
C560 C 0.32503 0.85785 0.86895 0.0
C561 C 0.30112 0.83236 0.86102 0.0
C562 C 0.41291 0.93982 0.88364 0.0
C563 C 0.44069 0.92642 0.89431 0.0
C564 C 0.38732 0.91483 0.87644 0.0
C565 C 0.38896 0.87595 0.87977 0.0
C566 C 0.4161 0.86276 0.89079 0.0
C567 C 0.44171 0.8877 0.89796 0.0
H568 H 0.3941 0.01502 0.09646 0.0
H569 H 0.45542 0.04883 0.13928 0.0
H570 H 0.34508 0.061 0.10271 0.0
H571 H 0.40685 0.09538 0.14531 0.0
H572 H 0.29827 0.15527 0.15865 0.0
H573 H 0.3416 0.10326 0.15341 0.0
H574 H 0.33919 0.12926 0.10249 0.0
H575 H 0.29521 0.18072 0.10768 0.0
C576 C 0.39704 0.03212 0.10726 0.0
C577 C 0.42878 0.0284 0.11734 0.0
C578 C 0.36906 0.05864 0.11077 0.0
C579 C 0.37219 0.08206 0.12444 0.0
C580 C 0.40336 0.07752 0.13478 0.0
C581 C 0.43132 0.05094 0.13128 0.0
C582 C 0.3068 0.14975 0.14632 0.0
C583 C 0.29341 0.17223 0.13358 0.0
C584 C 0.33178 0.12005 0.14333 0.0
C585 C 0.34395 0.11218 0.12754 0.0
C586 C 0.32999 0.13424 0.11477 0.0
C587 C 0.30495 0.16391 0.11776 0.0
H588 H 0.11499 0.02714 0.40704 0.0
H589 H 0.07584 0.03512 0.35773 0.0
H590 H 0.1652 0.07221 0.40117 0.0
H591 H 0.12548 0.08079 0.35198 0.0
H592 H 0.23732 0.13847 0.34293 0.0
H593 H 0.19321 0.08773 0.34919 0.0
H594 H 0.17059 0.13922 0.39552 0.0
H595 H 0.21536 0.1895 0.38942 0.0
C596 C 0.11715 0.03842 0.39494 0.0
C597 C 0.09134 0.02764 0.38286 0.0
C598 C 0.1458 0.06441 0.3916 0.0
C599 C 0.14925 0.08021 0.37613 0.0
C600 C 0.12391 0.0688 0.36398 0.0
C601 C 0.09531 0.04277 0.3673 0.0
C602 C 0.22317 0.13881 0.35451 0.0
C603 C 0.22971 0.16813 0.36565 0.0
C604 C 0.19773 0.10983 0.35805 0.0
C605 C 0.17821 0.10955 0.3728 0.0
C606 C 0.18548 0.13836 0.38411 0.0
C607 C 0.211 0.16731 0.38058 0.0
H608 H 0.93319 0.00788 0.3696 0.0
H609 H 0.86126 0.00681 0.41171 0.0
H610 H 0.88584 0.04384 0.35498 0.0
H611 H 0.81352 0.04249 0.39692 0.0
H612 H 0.7727 0.15421 0.37251 0.0
H613 H 0.81018 0.10791 0.38707 0.0
H614 H 0.82194 0.04198 0.34341 0.0
H615 H 0.78481 0.0887 0.32871 0.0
C616 C 0.90705 0.01489 0.37568 0.0
C617 C 0.90114 0.00481 0.39188 0.0
C618 C 0.87977 0.03525 0.36724 0.0
C619 C 0.84598 0.04606 0.37481 0.0
C620 C 0.83947 0.03487 0.39083 0.0
C621 C 0.86676 0.01434 0.39928 0.0
C622 C 0.78284 0.12961 0.36604 0.0
C623 C 0.77617 0.12536 0.3494 0.0
C624 C 0.80411 0.10292 0.37442 0.0
C625 C 0.81922 0.07143 0.36636 0.0
C626 C 0.81106 0.06625 0.34989 0.0
C627 C 0.78967 0.09292 0.3415 0.0
H628 H 0.65519 0.98886 0.08248 0.0
H629 H 0.58662 0.0065 0.12495 0.0
H630 H 0.707 0.02361 0.09528 0.0
H631 H 0.63818 0.04114 0.13762 0.0
H632 H 0.74558 0.08088 0.16102 0.0
H633 H 0.70395 0.03427 0.14836 0.0
H634 H 0.71522 0.09186 0.10273 0.0
H635 H 0.75684 0.13825 0.11529 0.0
C636 C 0.65131 -0.00021 0.09459 0.0
C637 C 0.61672 -0.00478 0.10266 0.0
C638 C 0.68092 0.01972 0.10189 0.0
C639 C 0.67661 0.03504 0.11744 0.0
C640 C 0.6425 0.02926 0.12571 0.0
C641 C 0.61284 0.0097 0.11838 0.0
C642 C 0.73974 0.08317 0.14822 0.0
C643 C 0.75416 0.11346 0.13919 0.0
C644 C 0.71577 0.05661 0.14101 0.0
C645 C 0.70614 0.05963 0.1246 0.0
C646 C 0.72235 0.08864 0.11537 0.0
C647 C 0.746 0.11535 0.1226 0.0
H648 H 0.7446 0.88832 0.83393 0.0
H649 H 0.74379 0.82284 0.87789 0.0
H650 H 0.70767 0.93755 0.84729 0.0
H651 H 0.70664 0.87161 0.89108 0.0
H652 H 0.65753 0.97444 0.91437 0.0
H653 H 0.70625 0.93725 0.9009 0.0
H654 H 0.64168 0.94014 0.85666 0.0
H655 H 0.59336 0.97765 0.86998 0.0
C656 C 0.73694 0.88462 0.84647 0.0
C657 C 0.74679 0.85153 0.8548 0.0
C658 C 0.71569 0.91273 0.85409 0.0
C659 C 0.70414 0.90837 0.87021 0.0
C660 C 0.71546 0.87603 0.87872 0.0
C661 C 0.7365 0.84791 0.8711 0.0
C662 C 0.65402 0.96764 0.9017 0.0
C663 C 0.62136 0.97859 0.8933 0.0
C664 C 0.68186 0.94623 0.89402 0.0
C665 C 0.67764 0.93553 0.87776 0.0
C666 C 0.64594 0.94821 0.86915 0.0
C667 C 0.61808 0.96948 0.87683 0.0
H668 H 0.73862 0.84317 0.62423 0.0
H669 H 0.79578 0.87766 0.66793 0.0
H670 H 0.77545 0.88875 0.60888 0.0
H671 H 0.83389 0.92205 0.65253 0.0
H672 H 0.88979 0.0104 0.62213 0.0
H673 H 0.83952 0.97781 0.63668 0.0
H674 H 0.83885 0.89015 0.60022 0.0
H675 H 0.88776 0.92327 0.5855 0.0
C676 C 0.75888 0.86075 0.63057 0.0
C677 C 0.76469 0.85659 0.64723 0.0
C678 C 0.78015 0.88671 0.62177 0.0
C679 C 0.80815 0.90862 0.6294 0.0
C680 C 0.81239 0.90592 0.64625 0.0
C681 C 0.79067 0.88032 0.65509 0.0
C682 C 0.87846 0.98443 0.61714 0.0
C683 C 0.89296 0.96924 0.60274 0.0
C684 C 0.8498 0.96566 0.62551 0.0
C685 C 0.83522 0.93123 0.61969 0.0
C686 C 0.84887 0.91689 0.60496 0.0
C687 C 0.87724 0.93576 0.59656 0.0
H688 H 0.65532 0.25663 0.13026 0.0
H689 H 0.75059 0.33309 0.12916 0.0
H690 H 0.61536 0.30543 0.11877 0.0
H691 H 0.71054 0.38186 0.1173 0.0
H692 H 0.61396 0.47019 0.11291 0.0
H693 H 0.657 0.4231 0.1241 0.0
H694 H 0.60742 0.33778 0.09324 0.0
H695 H 0.56408 0.38438 0.08235 0.0
C696 C 0.6678 0.28382 0.1275 0.0
C697 C 0.70616 0.29094 0.13058 0.0
C698 C 0.64492 0.31174 0.12082 0.0
C699 C 0.65986 0.34742 0.11701 0.0
C700 C 0.69816 0.35473 0.12022 0.0
C701 C 0.72111 0.32674 0.12694 0.0
C702 C 0.61245 0.44141 0.10846 0.0
C703 C 0.58541 0.43093 0.09685 0.0
C704 C 0.63719 0.4145 0.11482 0.0
C705 C 0.63534 0.37665 0.10967 0.0
C706 C 0.60903 0.36654 0.0977 0.0
C707 C 0.58433 0.39333 0.09139 0.0
H708 H 0.87711 0.27625 0.33692 0.0
H709 H 0.78327 0.33668 0.35799 0.0
H710 H 0.92079 0.32187 0.34867 0.0
H711 H 0.82712 0.38192 0.37002 0.0
H712 H 0.91614 0.47549 0.37634 0.0
H713 H 0.87176 0.43228 0.36327 0.0
H714 H 0.94373 0.3381 0.37549 0.0
H715 H 0.98834 0.38119 0.38824 0.0
C716 C 0.86578 0.2993 0.34404 0.0
C717 C 0.82673 0.30273 0.34659 0.0
C718 C 0.89085 0.32531 0.35086 0.0
C719 C 0.87745 0.35533 0.36039 0.0
C720 C 0.83832 0.35928 0.36263 0.0
C721 C 0.81321 0.33325 0.3558 0.0
C722 C 0.92246 0.44555 0.37624 0.0
C723 C 0.9558 0.43177 0.3833 0.0
C724 C 0.89696 0.4208 0.36881 0.0
C725 C 0.90432 0.38179 0.36828 0.0
C726 C 0.93755 0.36806 0.37545 0.0
C727 C 0.96299 0.39276 0.38286 0.0
H728 H 0.89767 0.52947 0.59506 0.0
H729 H 0.96793 0.55133 0.63676 0.0
H730 H 0.85289 0.57726 0.6044 0.0
H731 H 0.92324 0.59903 0.646 0.0
H732 H 0.86171 0.71384 0.64375 0.0
H733 H 0.90372 0.66319 0.63516 0.0
H734 H 0.80782 0.5895 0.62807 0.0
H735 H 0.76551 0.64024 0.63674 0.0
C736 C 0.90342 0.54427 0.60625 0.0
C737 C 0.9364 0.53675 0.61514 0.0
C738 C 0.87773 0.57146 0.61162 0.0
C739 C 0.88479 0.59191 0.62585 0.0
C740 C 0.91737 0.58392 0.63488 0.0
C741 C 0.94282 0.55647 0.62963 0.0
C742 C 0.84951 0.68688 0.64035 0.0
C743 C 0.8103 0.68101 0.64093 0.0
C744 C 0.87361 0.65783 0.63554 0.0
C745 C 0.85898 0.62245 0.63103 0.0
C746 C 0.81976 0.61661 0.63143 0.0
C747 C 0.79563 0.64557 0.63644 0.0
H748 H 0.71437 0.64029 0.84839 0.0
H749 H 0.72442 0.68444 0.8969 0.0
H750 H 0.66604 0.59621 0.85745 0.0
H751 H 0.67651 0.6398 0.90601 0.0
H752 H 0.55597 0.59161 0.91022 0.0
H753 H 0.60845 0.63201 0.90233 0.0
H754 H 0.65561 0.54053 0.87426 0.0
H755 H 0.60269 0.50021 0.88191 0.0
C756 C 0.7066 0.6403 0.86103 0.0
C757 C 0.72307 0.66604 0.87191 0.0
C758 C 0.67903 0.61488 0.86623 0.0
C759 C 0.66733 0.61465 0.88243 0.0
C760 C 0.68454 0.63969 0.8934 0.0
C761 C 0.71215 0.6651 0.8882 0.0
C762 C 0.57757 0.58004 0.9024 0.0
C763 C 0.57507 0.54276 0.89663 0.0
C764 C 0.6078 0.60313 0.89798 0.0
C765 C 0.6362 0.58945 0.88769 0.0
C766 C 0.63394 0.55201 0.88206 0.0
C767 C 0.6037 0.52888 0.8865 0.0
H768 H 0.37825 0.55066 0.90761 0.0
H769 H 0.40406 0.48025 0.86639 0.0
H770 H 0.33233 0.58506 0.89165 0.0
H771 H 0.35699 0.514 0.85047 0.0
H772 H 0.31738 0.62241 0.82358 0.0
H773 H 0.35286 0.57545 0.83864 0.0
H774 H 0.27317 0.58428 0.87795 0.0
H775 H 0.23845 0.63232 0.86308 0.0
C776 C 0.37361 0.54204 0.89521 0.0
C777 C 0.39512 0.51304 0.88821 0.0
C778 C 0.34699 0.5616 0.88606 0.0
C779 C 0.34102 0.5524 0.86973 0.0
C780 C 0.36133 0.52219 0.86294 0.0
C781 C 0.38818 0.50276 0.87208 0.0
C782 C 0.30706 0.61385 0.83531 0.0
C783 C 0.2755 0.63148 0.84226 0.0
C784 C 0.3273 0.58673 0.84394 0.0
C785 C 0.31616 0.57644 0.85962 0.0
C786 C 0.28302 0.59221 0.86606 0.0
C787 C 0.26301 0.61959 0.85751 0.0
H788 H 0.14988 0.52024 0.57542 0.0
H789 H 0.08914 0.51022 0.62043 0.0
H790 H 0.19725 0.55965 0.58884 0.0
H791 H 0.13597 0.54984 0.63368 0.0
H792 H 0.23835 0.60338 0.65624 0.0
H793 H 0.20199 0.55438 0.6424 0.0
H794 H 0.19621 0.62437 0.59984 0.0
H795 H 0.23295 0.67303 0.61352 0.0
C796 C 0.14686 0.52604 0.5882 0.0
C797 C 0.11558 0.51239 0.59683 0.0
C798 C 0.17387 0.54875 0.59585 0.0
C799 C 0.17022 0.55801 0.61229 0.0
C800 C 0.13983 0.54292 0.62105 0.0
C801 C 0.11281 0.52041 0.61341 0.0
C802 C 0.22967 0.60813 0.64387 0.0
C803 C 0.23821 0.64225 0.63603 0.0
C804 C 0.20876 0.58012 0.63597 0.0
C805 C 0.1961 0.58559 0.62006 0.0
C806 C 0.2059 0.61911 0.61203 0.0
C807 C 0.2267 0.64714 0.61993 0.0
H808 H 0.10772 0.48929 0.36738 0.0
H809 H 0.15962 0.47355 0.41413 0.0
H810 H 0.15749 0.45199 0.35495 0.0
H811 H 0.20982 0.43657 0.40158 0.0
H812 H 0.24746 0.32507 0.37602 0.0
H813 H 0.20955 0.37313 0.38931 0.0
H814 H 0.22536 0.44756 0.34863 0.0
H815 H 0.26307 0.39913 0.33515 0.0
C816 C 0.13011 0.47842 0.37497 0.0
C817 C 0.12945 0.48395 0.39178 0.0
C818 C 0.15881 0.45727 0.36782 0.0
C819 C 0.18742 0.44113 0.37731 0.0
C820 C 0.18784 0.44828 0.394 0.0
C821 C 0.15917 0.46958 0.40117 0.0
C822 C 0.24326 0.35183 0.36996 0.0
C823 C 0.25793 0.35813 0.35445 0.0
C824 C 0.22178 0.37952 0.37765 0.0
C825 C 0.21438 0.41408 0.36999 0.0
C826 C 0.2303 0.42101 0.35475 0.0
C827 C 0.25199 0.39334 0.34707 0.0
H828 H 0.44094 0.44116 0.10642 0.0
H829 H 0.36111 0.53309 0.10282 0.0
H830 H 0.39225 0.40109 0.11786 0.0
H831 H 0.31197 0.49242 0.11448 0.0
H832 H 0.25905 0.41269 0.15569 0.0
H833 H 0.30054 0.45793 0.14208 0.0
H834 H 0.3311 0.37223 0.10734 0.0
H835 H 0.28998 0.32714 0.12078 0.0
C836 C 0.41298 0.4529 0.1081 0.0
C837 C 0.40486 0.49033 0.1037 0.0
C838 C 0.38502 0.42979 0.11455 0.0
C839 C 0.34833 0.44359 0.1169 0.0
C840 C 0.34012 0.48118 0.11276 0.0
C841 C 0.36814 0.50433 0.10607 0.0
C842 C 0.27423 0.40368 0.14501 0.0
C843 C 0.27164 0.36617 0.13945 0.0
C844 C 0.29778 0.42963 0.1372 0.0
C845 C 0.31926 0.41835 0.12381 0.0
C846 C 0.3152 0.38145 0.11779 0.0
C847 C 0.29158 0.35568 0.12549 0.0
loop_
_geom_bond_atom_site_label_1
_geom_bond_atom_site_label_2
_geom_bond_distance
_geom_bond_site_symmetry_2
_ccdc_geom_bond_type
C0 O1 1.160 1_455 S
C0 O7 1.185 . S
O1 C0 1.160 1_655 S
O2 Zn3 1.899 1_655 S
O2 C10 1.284 1_545 S
Zn3 O2 1.899 1_455 S
Zn3 O4 2.032 . S
Zn3 O7 2.086 . S
Zn3 O12 1.977 . S
O4 Zn3 2.032 . S
O4 C8 1.278 . S
C5 O6 1.203 . S
C5 O12 1.267 1_565 S
O6 C5 1.203 . S
O7 C0 1.185 . S
O7 Zn3 2.086 . S
C8 O4 1.278 . S
C8 O9 1.211 1_545 S
O9 C8 1.211 1_565 S
C10 O2 1.284 1_565 S
C10 O11 1.273 . S
O11 C10 1.273 . S
O12 Zn3 1.977 . S
O12 C5 1.267 1_545 S
C13 O14 1.160 . S
C13 O20 1.185 . S
O14 C13 1.160 . S
O15 Zn16 1.899 . S
O15 C23 1.284 . S
Zn16 O15 1.899 . S
Zn16 O17 2.032 . S
Zn16 O20 2.086 . S
Zn16 O25 1.977 . S
O17 Zn16 2.032 . S
O17 C21 1.278 . S
C18 O19 1.203 . S
C18 O25 1.267 . S
O19 C18 1.203 . S
O20 C13 1.185 . S
O20 Zn16 2.086 . S
C21 O17 1.278 . S
C21 O22 1.211 . S
O22 C21 1.211 . S
C23 O15 1.284 . S
C23 O24 1.273 . S
O24 C23 1.273 . S
O25 Zn16 1.977 . S
O25 C18 1.267 . S
C26 O27 1.160 . S
C26 O33 1.185 . S
O27 C26 1.160 . S
O28 Zn29 1.899 . S
O28 C36 1.284 1_565 S
Zn29 O28 1.899 . S
Zn29 O30 2.032 . S
Zn29 O33 2.086 . S
Zn29 O38 1.977 . S
O30 Zn29 2.032 . S
O30 C34 1.278 . S
C31 O32 1.203 . S
C31 O38 1.267 1_545 S
O32 C31 1.203 . S
O33 C26 1.185 . S
O33 Zn29 2.086 . S
C34 O30 1.278 . S
C34 O35 1.211 1_565 S
O35 C34 1.211 1_545 S
C36 O28 1.284 1_545 S
C36 O37 1.273 . S
O37 C36 1.273 . S
O38 Zn29 1.977 . S
O38 C31 1.267 1_565 S
C39 O40 1.160 . S
C39 O46 1.185 . S
O40 C39 1.160 . S
O41 Zn42 1.899 . S
O41 C49 1.284 . S
Zn42 O41 1.899 . S
Zn42 O43 2.032 . S
Zn42 O46 2.086 . S
Zn42 O51 1.977 . S
O43 Zn42 2.032 . S
O43 C47 1.278 . S
C44 O45 1.203 . S
C44 O51 1.267 . S
O45 C44 1.203 . S
O46 C39 1.185 . S
O46 Zn42 2.086 . S
C47 O43 1.278 . S
C47 O48 1.211 . S
O48 C47 1.211 . S
C49 O41 1.284 . S
C49 O50 1.273 . S
O50 C49 1.273 . S
O51 Zn42 1.977 . S
O51 C44 1.267 . S
C52 O53 1.160 1_455 S
C52 O59 1.185 . S
O53 C52 1.160 1_655 S
O54 Zn55 1.899 1_655 S
O54 C62 1.284 1_565 S
Zn55 O54 1.899 1_455 S
Zn55 O56 2.032 . S
Zn55 O59 2.086 . S
Zn55 O64 1.977 . S
O56 Zn55 2.032 . S
O56 C60 1.278 . S
C57 O58 1.203 . S
C57 O64 1.267 1_545 S
O58 C57 1.203 . S
O59 C52 1.185 . S
O59 Zn55 2.086 . S
C60 O56 1.278 . S
C60 O61 1.211 1_565 S
O61 C60 1.211 1_545 S
C62 O54 1.284 1_545 S
C62 O63 1.273 . S
O63 C62 1.273 . S
O64 Zn55 1.977 . S
O64 C57 1.267 1_565 S
C65 O66 1.160 . S
C65 O72 1.185 . S
O66 C65 1.160 . S
O67 Zn68 1.899 . S
O67 C75 1.284 . S
Zn68 O67 1.899 . S
Zn68 O69 2.032 . S
Zn68 O72 2.086 . S
Zn68 O77 1.977 . S
O69 Zn68 2.032 . S
O69 C73 1.278 . S
C70 O71 1.203 . S
C70 O77 1.267 . S
O71 C70 1.203 . S
O72 C65 1.185 . S
O72 Zn68 2.086 . S
C73 O69 1.278 . S
C73 O74 1.211 . S
O74 C73 1.211 . S
C75 O67 1.284 . S
C75 O76 1.273 . S
O76 C75 1.273 . S
O77 Zn68 1.977 . S
O77 C70 1.267 . S
C78 O79 1.160 . S
C78 O85 1.185 . S
O79 C78 1.160 . S
O80 Zn81 1.899 . S
O80 C88 1.284 1_545 S
Zn81 O80 1.899 . S
Zn81 O82 2.032 . S
Zn81 O85 2.086 . S
Zn81 O90 1.977 . S
O82 Zn81 2.032 . S
O82 C86 1.278 . S
C83 O84 1.203 . S
C83 O90 1.267 1_565 S
O84 C83 1.203 . S
O85 C78 1.185 . S
O85 Zn81 2.086 . S
C86 O82 1.278 . S
C86 O87 1.211 1_545 S
O87 C86 1.211 1_565 S
C88 O80 1.284 1_565 S
C88 O89 1.273 . S
O89 C88 1.273 . S
O90 Zn81 1.977 . S
O90 C83 1.267 1_545 S
C91 O92 1.160 . S
C91 O98 1.185 . S
O92 C91 1.160 . S
O93 Zn94 1.899 . S
O93 C101 1.284 . S
Zn94 O93 1.899 . S
Zn94 O95 2.032 . S
Zn94 O98 2.086 . S
Zn94 O103 1.977 . S
O95 Zn94 2.032 . S
O95 C99 1.278 . S
C96 O97 1.203 . S
C96 O103 1.267 . S
O97 C96 1.203 . S
O98 C91 1.185 . S
O98 Zn94 2.086 . S
C99 O95 1.278 . S
C99 O100 1.211 . S
O100 C99 1.211 . S
C101 O93 1.284 . S
C101 O102 1.273 . S
O102 C101 1.273 . S
O103 Zn94 1.977 . S
O103 C96 1.267 . S
C104 O105 1.160 . S
C104 O111 1.185 . S
O105 C104 1.160 . S
O106 Zn107 1.899 . S
O106 C114 1.284 . S
Zn107 O106 1.899 . S
Zn107 O108 2.032 . S
Zn107 O111 2.086 . S
Zn107 O116 1.977 . S
O108 Zn107 2.032 . S
O108 C112 1.278 . S
C109 O110 1.203 . S
C109 O116 1.267 . S
O110 C109 1.203 . S
O111 C104 1.185 . S
O111 Zn107 2.086 . S
C112 O108 1.278 . S
C112 O113 1.211 . S
O113 C112 1.211 . S
C114 O106 1.284 . S
C114 O115 1.273 . S
O115 C114 1.273 . S
O116 Zn107 1.977 . S
O116 C109 1.267 . S
C117 O118 1.160 . S
C117 O124 1.185 . S
O118 C117 1.160 . S
O119 Zn120 1.899 . S
O119 C127 1.284 . S
Zn120 O119 1.899 . S
Zn120 O121 2.032 . S
Zn120 O124 2.086 . S
Zn120 O129 1.977 . S
O121 Zn120 2.032 . S
O121 C125 1.278 . S
C122 O123 1.203 . S
C122 O129 1.267 . S
O123 C122 1.203 . S
O124 C117 1.185 . S
O124 Zn120 2.086 . S
C125 O121 1.278 . S
C125 O126 1.211 . S
O126 C125 1.211 . S
C127 O119 1.284 . S
C127 O128 1.273 . S
O128 C127 1.273 . S
O129 Zn120 1.977 . S
O129 C122 1.267 . S
C130 O131 1.160 . S
C130 O137 1.185 . S
O131 C130 1.160 . S
O132 Zn133 1.899 . S
O132 C140 1.284 . S
Zn133 O132 1.899 . S
Zn133 O134 2.032 . S
Zn133 O137 2.086 . S
Zn133 O142 1.977 . S
O134 Zn133 2.032 . S
O134 C138 1.278 . S
C135 O136 1.203 . S
C135 O142 1.267 . S
O136 C135 1.203 . S
O137 C130 1.185 . S
O137 Zn133 2.086 . S
C138 O134 1.278 . S
C138 O139 1.211 . S
O139 C138 1.211 . S
C140 O132 1.284 . S
C140 O141 1.273 . S
O141 C140 1.273 . S
O142 Zn133 1.977 . S
O142 C135 1.267 . S
C143 O144 1.160 . S
C143 O150 1.185 . S
O144 C143 1.160 . S
O145 Zn146 1.899 . S
O145 C153 1.284 . S
Zn146 O145 1.899 . S
Zn146 O147 2.032 . S
Zn146 O150 2.086 . S
Zn146 O155 1.977 . S
O147 Zn146 2.032 . S
O147 C151 1.278 . S
C148 O149 1.203 . S
C148 O155 1.267 . S
O149 C148 1.203 . S
O150 C143 1.185 . S
O150 Zn146 2.086 . S
C151 O147 1.278 . S
C151 O152 1.211 . S
O152 C151 1.211 . S
C153 O145 1.284 . S
C153 O154 1.273 . S
O154 C153 1.273 . S
O155 Zn146 1.977 . S
O155 C148 1.267 . S
C156 O157 1.160 . S
C156 O163 1.185 . S
O157 C156 1.160 . S
O158 Zn159 1.899 . S
O158 C166 1.284 . S
Zn159 O158 1.899 . S
Zn159 O160 2.032 . S
Zn159 O163 2.086 . S
Zn159 O168 1.977 . S
O160 Zn159 2.032 . S
O160 C164 1.278 . S
C161 O162 1.203 . S
C161 O168 1.267 . S
O162 C161 1.203 . S
O163 C156 1.185 . S
O163 Zn159 2.086 . S
C164 O160 1.278 . S
C164 O165 1.211 . S
O165 C164 1.211 . S
C166 O158 1.284 . S
C166 O167 1.273 . S
O167 C166 1.273 . S
O168 Zn159 1.977 . S
O168 C161 1.267 . S
C169 O170 1.160 . S
C169 O176 1.185 . S
O170 C169 1.160 . S
O171 Zn172 1.899 . S
O171 C179 1.284 . S
Zn172 O171 1.899 . S
Zn172 O173 2.032 . S
Zn172 O176 2.086 . S
Zn172 O181 1.977 1_455 S
O173 Zn172 2.032 . S
O173 C177 1.278 . S
C174 O175 1.203 . S
C174 O181 1.267 . S
O175 C174 1.203 . S
O176 C169 1.185 . S
O176 Zn172 2.086 . S
C177 O173 1.278 . S
C177 O178 1.211 . S
O178 C177 1.211 . S
C179 O171 1.284 . S
C179 O180 1.273 . S
O180 C179 1.273 . S
O181 Zn172 1.977 1_655 S
O181 C174 1.267 . S
C182 O183 1.160 . S
C182 O189 1.185 . S
O183 C182 1.160 . S
O184 Zn185 1.899 . S
O184 C192 1.284 . S
Zn185 O184 1.899 . S
Zn185 O186 2.032 . S
Zn185 O189 2.086 . S
Zn185 O194 1.977 . S
O186 Zn185 2.032 . S
O186 C190 1.278 . S
C187 O188 1.203 . S
C187 O194 1.267 . S
O188 C187 1.203 . S
O189 C182 1.185 . S
O189 Zn185 2.086 . S
C190 O186 1.278 . S
C190 O191 1.211 . S
O191 C190 1.211 . S
C192 O184 1.284 . S
C192 O193 1.273 . S
O193 C192 1.273 . S
O194 Zn185 1.977 . S
O194 C187 1.267 . S
C195 O196 1.160 . S
C195 O202 1.185 . S
O196 C195 1.160 . S
O197 Zn198 1.899 . S
O197 C205 1.284 . S
Zn198 O197 1.899 . S
Zn198 O199 2.032 . S
Zn198 O202 2.086 . S
Zn198 O207 1.977 1_455 S
O199 Zn198 2.032 . S
O199 C203 1.278 . S
C200 O201 1.203 . S
C200 O207 1.267 . S
O201 C200 1.203 . S
O202 C195 1.185 . S
O202 Zn198 2.086 . S
C203 O199 1.278 . S
C203 O204 1.211 . S
O204 C203 1.211 . S
C205 O197 1.284 . S
C205 O206 1.273 . S
O206 C205 1.273 . S
O207 Zn198 1.977 1_655 S
O207 C200 1.267 . S
H208 C216 0.950 . S
H209 C221 0.950 . S
H210 C218 0.950 . S
H211 C220 0.950 . S
H212 C222 0.950 . S
H213 C224 0.950 . S
H214 C226 0.950 . S
H215 C227 0.950 . S
C216 H208 0.950 . S
C216 C217 1.386 . S
C216 C218 1.391 . S
C217 C216 1.386 . S
C217 C221 1.393 1_455 S
C218 H210 0.950 . S
C218 C216 1.391 . S
C218 C219 1.400 . S
C219 C218 1.400 . S
C219 C220 1.398 1_455 S
C219 C225 1.491 . S
C220 H211 0.950 . S
C220 C219 1.398 1_655 S
C220 C221 1.391 . S
C221 H209 0.950 . S
C221 C217 1.393 1_655 S
C221 C220 1.391 . S
C222 H212 0.950 . S
C222 C223 1.386 1_655 S
C222 C224 1.391 . S
C223 C222 1.386 1_455 S
C223 C227 1.393 . S
C224 H213 0.950 . S
C224 C222 1.391 . S
C224 C225 1.400 1_655 S
C225 C219 1.491 . S
C225 C224 1.400 1_455 S
C225 C226 1.398 . S
C226 H214 0.950 . S
C226 C225 1.398 . S
C226 C227 1.391 . S
C227 H215 0.950 . S
C227 C223 1.393 . S
C227 C226 1.391 . S
H228 C236 0.950 . S
H229 C241 0.950 . S
H230 C238 0.950 . S
H231 C240 0.950 . S
H232 C242 0.950 . S
H233 C244 0.950 . S
H234 C246 0.950 . S
H235 C247 0.950 . S
C236 H228 0.950 . S
C236 C237 1.386 . S
C236 C238 1.391 . S
C237 C236 1.386 . S
C237 C241 1.393 . S
C238 H230 0.950 . S
C238 C236 1.391 . S
C238 C239 1.400 . S
C239 C238 1.400 . S
C239 C240 1.398 . S
C239 C245 1.491 1_655 S
C240 H231 0.950 . S
C240 C239 1.398 . S
C240 C241 1.391 . S
C241 H229 0.950 . S
C241 C237 1.393 . S
C241 C240 1.391 . S
C242 H232 0.950 . S
C242 C243 1.386 . S
C242 C244 1.391 . S
C243 C242 1.386 . S
C243 C247 1.393 . S
C244 H233 0.950 . S
C244 C242 1.391 . S
C244 C245 1.400 . S
C245 C239 1.491 1_455 S
C245 C244 1.400 . S
C245 C246 1.398 . S
C246 H234 0.950 . S
C246 C245 1.398 . S
C246 C247 1.391 . S
C247 H235 0.950 . S
C247 C243 1.393 . S
C247 C246 1.391 . S
H248 C256 0.950 . S
H249 C261 0.950 . S
H250 C258 0.950 . S
H251 C260 0.950 . S
H252 C262 0.950 . S
H253 C264 0.950 . S
H254 C266 0.950 . S
H255 C267 0.950 . S
C256 H248 0.950 . S
C256 C257 1.386 . S
C256 C258 1.391 . S
C257 C256 1.386 . S
C257 C261 1.393 . S
C258 H250 0.950 . S
C258 C256 1.391 . S
C258 C259 1.400 . S
C259 C258 1.400 . S
C259 C260 1.398 . S
C259 C265 1.491 . S
C260 H251 0.950 . S
C260 C259 1.398 . S
C260 C261 1.391 . S
C261 H249 0.950 . S
C261 C257 1.393 . S
C261 C260 1.391 . S
C262 H252 0.950 . S
C262 C263 1.386 . S
C262 C264 1.391 . S
C263 C262 1.386 . S
C263 C267 1.393 . S
C264 H253 0.950 . S
C264 C262 1.391 . S
C264 C265 1.400 . S
C265 C259 1.491 . S
C265 C264 1.400 . S
C265 C266 1.398 . S
C266 H254 0.950 . S
C266 C265 1.398 . S
C266 C267 1.391 . S
C267 H255 0.950 . S
C267 C263 1.393 . S
C267 C266 1.391 . S
H268 C276 0.950 . S
H269 C281 0.950 . S
H270 C278 0.950 . S
H271 C280 0.950 . S
H272 C282 0.950 . S
H273 C284 0.950 . S
H274 C286 0.950 . S
H275 C287 0.950 . S
C276 H268 0.950 . S
C276 C277 1.386 . S
C276 C278 1.391 . S
C277 C276 1.386 . S
C277 C281 1.393 . S
C278 H270 0.950 . S
C278 C276 1.391 . S
C278 C279 1.400 . S
C279 C278 1.400 . S
C279 C280 1.398 . S
C279 C285 1.491 . S
C280 H271 0.950 . S
C280 C279 1.398 . S
C280 C281 1.391 . S
C281 H269 0.950 . S
C281 C277 1.393 . S
C281 C280 1.391 . S
C282 H272 0.950 . S
C282 C283 1.386 . S
C282 C284 1.391 . S
C283 C282 1.386 . S
C283 C287 1.393 . S
C284 H273 0.950 . S
C284 C282 1.391 . S
C284 C285 1.400 . S
C285 C279 1.491 . S
C285 C284 1.400 . S
C285 C286 1.398 . S
C286 H274 0.950 . S
C286 C285 1.398 . S
C286 C287 1.391 . S
C287 H275 0.950 . S
C287 C283 1.393 . S
C287 C286 1.391 . S
H288 C296 0.950 . S
H289 C301 0.950 . S
H290 C298 0.950 . S
H291 C300 0.950 . S
H292 C302 0.950 . S
H293 C304 0.950 . S
H294 C306 0.950 . S
H295 C307 0.950 . S
C296 H288 0.950 . S
C296 C297 1.386 . S
C296 C298 1.391 . S
C297 C296 1.386 . S
C297 C301 1.393 1_455 S
C298 H290 0.950 . S
C298 C296 1.391 . S
C298 C299 1.400 . S
C299 C298 1.400 . S
C299 C300 1.398 1_455 S
C299 C305 1.491 . S
C300 H291 0.950 . S
C300 C299 1.398 1_655 S
C300 C301 1.391 . S
C301 H289 0.950 . S
C301 C297 1.393 1_655 S
C301 C300 1.391 . S
C302 H292 0.950 . S
C302 C303 1.386 1_655 S
C302 C304 1.391 . S
C303 C302 1.386 1_455 S
C303 C307 1.393 . S
C304 H293 0.950 . S
C304 C302 1.391 . S
C304 C305 1.400 1_655 S
C305 C299 1.491 . S
C305 C304 1.400 1_455 S
C305 C306 1.398 . S
C306 H294 0.950 . S
C306 C305 1.398 . S
C306 C307 1.391 . S
C307 H295 0.950 . S
C307 C303 1.393 . S
C307 C306 1.391 . S
H308 C316 0.950 . S
H309 C321 0.950 . S
H310 C318 0.950 . S
H311 C320 0.950 . S
H312 C322 0.950 . S
H313 C324 0.950 . S
H314 C326 0.950 . S
H315 C327 0.950 . S
C316 H308 0.950 . S
C316 C317 1.386 . S
C316 C318 1.391 . S
C317 C316 1.386 . S
C317 C321 1.393 . S
C318 H310 0.950 . S
C318 C316 1.391 . S
C318 C319 1.400 . S
C319 C318 1.400 . S
C319 C320 1.398 . S
C319 C325 1.491 . S
C320 H311 0.950 . S
C320 C319 1.398 . S
C320 C321 1.391 . S
C321 H309 0.950 . S
C321 C317 1.393 . S
C321 C320 1.391 . S
C322 H312 0.950 . S
C322 C323 1.386 . S
C322 C324 1.391 . S
C323 C322 1.386 . S
C323 C327 1.393 . S
C324 H313 0.950 . S
C324 C322 1.391 . S
C324 C325 1.400 . S
C325 C319 1.491 . S
C325 C324 1.400 . S
C325 C326 1.398 . S
C326 H314 0.950 . S
C326 C325 1.398 . S
C326 C327 1.391 . S
C327 H315 0.950 . S
C327 C323 1.393 . S
C327 C326 1.391 . S
H328 C336 0.950 . S
H329 C341 0.950 . S
H330 C338 0.950 . S
H331 C340 0.950 . S
H332 C342 0.950 . S
H333 C344 0.950 . S
H334 C346 0.950 . S
H335 C347 0.950 . S
C336 H328 0.950 . S
C336 C337 1.386 . S
C336 C338 1.391 . S
C337 C336 1.386 . S
C337 C341 1.393 . S
C338 H330 0.950 . S
C338 C336 1.391 . S
C338 C339 1.400 . S
C339 C338 1.400 . S
C339 C340 1.398 . S
C339 C345 1.491 . S
C340 H331 0.950 . S
C340 C339 1.398 . S
C340 C341 1.391 . S
C341 H329 0.950 . S
C341 C337 1.393 . S
C341 C340 1.391 . S
C342 H332 0.950 . S
C342 C343 1.386 . S
C342 C344 1.391 . S
C343 C342 1.386 . S
C343 C347 1.393 . S
C344 H333 0.950 . S
C344 C342 1.391 . S
C344 C345 1.400 . S
C345 C339 1.491 . S
C345 C344 1.400 . S
C345 C346 1.398 . S
C346 H334 0.950 . S
C346 C345 1.398 . S
C346 C347 1.391 . S
C347 H335 0.950 . S
C347 C343 1.393 . S
C347 C346 1.391 . S
H348 C356 0.950 . S
H349 C361 0.950 . S
H350 C358 0.950 . S
H351 C360 0.950 . S
H352 C362 0.950 . S
H353 C364 0.950 . S
H354 C366 0.950 . S
H355 C367 0.950 . S
C356 H348 0.950 . S
C356 C357 1.386 . S
C356 C358 1.391 . S
C357 C356 1.386 . S
C357 C361 1.393 . S
C358 H350 0.950 . S
C358 C356 1.391 . S
C358 C359 1.400 . S
C359 C358 1.400 . S
C359 C360 1.398 . S
C359 C365 1.491 1_455 S
C360 H351 0.950 . S
C360 C359 1.398 . S
C360 C361 1.391 . S
C361 H349 0.950 . S
C361 C357 1.393 . S
C361 C360 1.391 . S
C362 H352 0.950 . S
C362 C363 1.386 . S
C362 C364 1.391 . S
C363 C362 1.386 . S
C363 C367 1.393 . S
C364 H353 0.950 . S
C364 C362 1.391 . S
C364 C365 1.400 . S
C365 C359 1.491 1_655 S
C365 C364 1.400 . S
C365 C366 1.398 . S
C366 H354 0.950 . S
C366 C365 1.398 . S
C366 C367 1.391 . S
C367 H355 0.950 . S
C367 C363 1.393 . S
C367 C366 1.391 . S
H368 C376 0.950 . S
H369 C381 0.950 . S
H370 C378 0.950 . S
H371 C380 0.950 . S
H372 C382 0.950 . S
H373 C384 0.950 . S
H374 C386 0.950 . S
H375 C387 0.950 . S
C376 H368 0.950 . S
C376 C377 1.386 1_655 S
C376 C378 1.391 . S
C377 C376 1.386 1_455 S
C377 C381 1.393 1_565 S
C378 H370 0.950 . S
C378 C376 1.391 . S
C378 C379 1.400 1_655 S
C379 C378 1.400 1_455 S
C379 C380 1.398 1_565 S
C379 C385 1.491 1_565 S
C380 H371 0.950 . S
C380 C379 1.398 1_545 S
C380 C381 1.391 . S
C381 H369 0.950 . S
C381 C377 1.393 1_545 S
C381 C380 1.391 . S
C382 H372 0.950 . S
C382 C383 1.386 . S
C382 C384 1.391 . S
C383 C382 1.386 . S
C383 C387 1.393 1_445 S
C384 H373 0.950 . S
C384 C382 1.391 . S
C384 C385 1.400 . S
C385 C379 1.491 1_545 S
C385 C384 1.400 . S
C385 C386 1.398 1_445 S
C386 H374 0.950 . S
C386 C385 1.398 1_665 S
C386 C387 1.391 . S
C387 H375 0.950 . S
C387 C383 1.393 1_665 S
C387 C386 1.391 . S
H388 C396 0.950 . S
H389 C401 0.950 . S
H390 C398 0.950 . S
H391 C400 0.950 . S
H392 C402 0.950 . S
H393 C404 0.950 . S
H394 C406 0.950 . S
H395 C407 0.950 . S
C396 H388 0.950 . S
C396 C397 1.386 . S
C396 C398 1.391 . S
C397 C396 1.386 . S
C397 C401 1.393 . S
C398 H390 0.950 . S
C398 C396 1.391 . S
C398 C399 1.400 . S
C399 C398 1.400 . S
C399 C400 1.398 . S
C399 C405 1.491 . S
C400 H391 0.950 . S
C400 C399 1.398 . S
C400 C401 1.391 . S
C401 H389 0.950 . S
C401 C397 1.393 . S
C401 C400 1.391 . S
C402 H392 0.950 . S
C402 C403 1.386 . S
C402 C404 1.391 . S
C403 C402 1.386 . S
C403 C407 1.393 . S
C404 H393 0.950 . S
C404 C402 1.391 . S
C404 C405 1.400 . S
C405 C399 1.491 . S
C405 C404 1.400 . S
C405 C406 1.398 . S
C406 H394 0.950 . S
C406 C405 1.398 . S
C406 C407 1.391 . S
C407 H395 0.950 . S
C407 C403 1.393 . S
C407 C406 1.391 . S
H408 C416 0.950 . S
H409 C421 0.950 . S
H410 C418 0.944 1_545 S
H411 C420 0.950 . S
H412 C422 0.950 . S
H413 C424 0.944 1_565 S
H414 C426 0.950 . S
H415 C427 0.950 . S
C416 H408 0.950 . S
C416 C417 1.386 . S
C416 C418 1.395 . S
C417 C416 1.386 . S
C417 C421 1.393 . S
C418 H410 0.944 1_565 S
C418 C416 1.395 . S
C418 C419 1.402 . S
C419 C418 1.402 . S
C419 C420 1.398 . S
C419 C425 1.491 1_564 S
C420 H411 0.950 . S
C420 C419 1.398 . S
C420 C421 1.391 . S
C421 H409 0.950 . S
C421 C417 1.393 . S
C421 C420 1.391 . S
C422 H412 0.950 . S
C422 C423 1.386 . S
C422 C424 1.395 . S
C423 C422 1.386 . S
C423 C427 1.393 . S
C424 H413 0.944 1_545 S
C424 C422 1.395 . S
C424 C425 1.402 . S
C425 C419 1.491 1_546 S
C425 C424 1.402 . S
C425 C426 1.398 . S
C426 H414 0.950 . S
C426 C425 1.398 . S
C426 C427 1.391 . S
C427 H415 0.950 . S
C427 C423 1.393 . S
C427 C426 1.391 . S
H428 C436 0.950 . S
H429 C441 0.950 . S
H430 C438 0.950 . S
H431 C440 0.950 . S
H432 C442 0.950 . S
H433 C444 0.950 . S
H434 C446 0.950 . S
H435 C447 0.950 . S
C436 H428 0.950 . S
C436 C437 1.386 . S
C436 C438 1.391 . S
C437 C436 1.386 . S
C437 C441 1.393 . S
C438 H430 0.950 . S
C438 C436 1.391 . S
C438 C439 1.400 . S
C439 C438 1.400 . S
C439 C440 1.398 . S
C439 C445 1.491 . S
C440 H431 0.950 . S
C440 C439 1.398 . S
C440 C441 1.391 . S
C441 H429 0.950 . S
C441 C437 1.393 . S
C441 C440 1.391 . S
C442 H432 0.950 . S
C442 C443 1.386 . S
C442 C444 1.391 . S
C443 C442 1.386 . S
C443 C447 1.393 . S
C444 H433 0.950 . S
C444 C442 1.391 . S
C444 C445 1.400 . S
C445 C439 1.491 . S
C445 C444 1.400 . S
C445 C446 1.398 . S
C446 H434 0.950 . S
C446 C445 1.398 . S
C446 C447 1.391 . S
C447 H435 0.950 . S
C447 C443 1.393 . S
C447 C446 1.391 . S
H448 C456 0.950 . S
H449 C461 0.950 . S
H450 C458 0.950 . S
H451 C460 0.950 . S
H452 C462 0.950 . S
H453 C464 0.950 . S
H454 C466 0.950 . S
H455 C467 0.950 . S
C456 H448 0.950 . S
C456 C457 1.386 . S
C456 C458 1.391 . S
C457 C456 1.386 . S
C457 C461 1.393 . S
C458 H450 0.950 . S
C458 C456 1.391 . S
C458 C459 1.400 . S
C459 C458 1.400 . S
C459 C460 1.398 . S
C459 C465 1.491 . S
C460 H451 0.950 . S
C460 C459 1.398 . S
C460 C461 1.391 . S
C461 H449 0.950 . S
C461 C457 1.393 . S
C461 C460 1.391 . S
C462 H452 0.950 . S
C462 C463 1.386 . S
C462 C464 1.391 . S
C463 C462 1.386 . S
C463 C467 1.393 . S
C464 H453 0.950 . S
C464 C462 1.391 . S
C464 C465 1.400 . S
C465 C459 1.491 . S
C465 C464 1.400 . S
C465 C466 1.398 . S
C466 H454 0.950 . S
C466 C465 1.398 . S
C466 C467 1.391 . S
C467 H455 0.950 . S
C467 C463 1.393 . S
C467 C466 1.391 . S
H468 C476 0.950 . S
H469 C481 0.950 . S
H470 C478 0.950 . S
H471 C480 0.950 . S
H472 C482 0.950 . S
H473 C484 0.950 . S
H474 C486 0.950 . S
H475 C487 0.950 . S
C476 H468 0.950 . S
C476 C477 1.386 . S
C476 C478 1.391 . S
C477 C476 1.386 . S
C477 C481 1.393 . S
C478 H470 0.950 . S
C478 C476 1.391 . S
C478 C479 1.400 . S
C479 C478 1.400 . S
C479 C480 1.398 . S
C479 C485 1.491 . S
C480 H471 0.950 . S
C480 C479 1.398 . S
C480 C481 1.391 . S
C481 H469 0.950 . S
C481 C477 1.393 . S
C481 C480 1.391 . S
C482 H472 0.950 . S
C482 C483 1.386 . S
C482 C484 1.391 . S
C483 C482 1.386 . S
C483 C487 1.393 . S
C484 H473 0.950 . S
C484 C482 1.391 . S
C484 C485 1.400 . S
C485 C479 1.491 . S
C485 C484 1.400 . S
C485 C486 1.398 . S
C486 H474 0.950 . S
C486 C485 1.398 . S
C486 C487 1.391 . S
C487 H475 0.950 . S
C487 C483 1.393 . S
C487 C486 1.391 . S
H488 C496 0.950 . S
H489 C501 0.950 . S
H490 C498 0.950 . S
H491 C500 0.950 . S
H492 C502 0.950 . S
H493 C504 0.950 . S
H494 C506 0.950 . S
H495 C507 0.950 . S
C496 H488 0.950 . S
C496 C497 1.386 . S
C496 C498 1.391 . S
C497 C496 1.386 . S
C497 C501 1.393 . S
C498 H490 0.950 . S
C498 C496 1.391 . S
C498 C499 1.400 . S
C499 C498 1.400 . S
C499 C500 1.398 . S
C499 C505 1.491 1_556 S
C500 H491 0.950 . S
C500 C499 1.398 . S
C500 C501 1.391 . S
C501 H489 0.950 . S
C501 C497 1.393 . S
C501 C500 1.391 . S
C502 H492 0.950 . S
C502 C503 1.386 . S
C502 C504 1.391 . S
C503 C502 1.386 . S
C503 C507 1.393 . S
C504 H493 0.950 . S
C504 C502 1.391 . S
C504 C505 1.400 . S
C505 C499 1.491 1_554 S
C505 C504 1.400 . S
C505 C506 1.398 . S
C506 H494 0.950 . S
C506 C505 1.398 . S
C506 C507 1.391 . S
C507 H495 0.950 . S
C507 C503 1.393 . S
C507 C506 1.391 . S
H508 C516 0.950 . S
H509 C521 0.950 . S
H510 C518 0.950 . S
H511 C520 0.950 . S
H512 C522 0.950 . S
H513 C524 0.950 . S
H514 C526 0.950 . S
H515 C527 0.950 . S
C516 H508 0.950 . S
C516 C517 1.386 1_655 S
C516 C518 1.391 . S
C517 C516 1.386 1_455 S
C517 C521 1.393 . S
C518 H510 0.950 . S
C518 C516 1.391 . S
C518 C519 1.400 1_655 S
C519 C518 1.400 1_455 S
C519 C520 1.398 . S
C519 C525 1.491 . S
C520 H511 0.950 . S
C520 C519 1.398 . S
C520 C521 1.391 . S
C521 H509 0.950 . S
C521 C517 1.393 . S
C521 C520 1.391 . S
C522 H512 0.950 . S
C522 C523 1.386 . S
C522 C524 1.391 . S
C523 C522 1.386 . S
C523 C527 1.393 1_455 S
C524 H513 0.950 . S
C524 C522 1.391 . S
C524 C525 1.400 . S
C525 C519 1.491 . S
C525 C524 1.400 . S
C525 C526 1.398 1_455 S
C526 H514 0.950 . S
C526 C525 1.398 1_655 S
C526 C527 1.391 . S
C527 H515 0.950 . S
C527 C523 1.393 1_655 S
C527 C526 1.391 . S
H528 C536 0.950 . S
H529 C541 0.950 . S
H530 C538 0.950 . S
H531 C540 0.950 . S
H532 C542 0.936 1_545 S
H533 C544 0.950 . S
H534 C546 0.950 . S
H535 C547 0.950 . S
C536 H528 0.950 . S
C536 C537 1.386 . S
C536 C538 1.391 . S
C537 C536 1.386 . S
C537 C541 1.393 . S
C538 H530 0.950 . S
C538 C536 1.391 . S
C538 C539 1.400 . S
C539 C538 1.400 . S
C539 C540 1.398 . S
C539 C545 1.491 . S
C540 H531 0.950 . S
C540 C539 1.398 . S
C540 C541 1.391 . S
C541 H529 0.950 . S
C541 C537 1.393 . S
C541 C540 1.391 . S
C542 H532 0.936 1_565 S
C542 C543 1.386 . S
C542 C544 1.391 . S
C543 C542 1.386 . S
C543 C547 1.393 . S
C544 H533 0.950 . S
C544 C542 1.391 . S
C544 C545 1.400 . S
C545 C539 1.491 . S
C545 C544 1.400 . S
C545 C546 1.398 . S
C546 H534 0.950 . S
C546 C545 1.398 . S
C546 C547 1.391 . S
C547 H535 0.950 . S
C547 C543 1.393 . S
C547 C546 1.391 . S
H548 C556 0.950 . S
H549 C561 0.950 . S
H550 C558 0.950 . S
H551 C560 0.950 . S
H552 C562 0.950 1_545 S
H553 C564 0.950 . S
H554 C566 0.950 . S
H555 C567 0.950 . S
C556 H548 0.950 . S
C556 C557 1.386 . S
C556 C558 1.391 . S
C557 C556 1.386 . S
C557 C561 1.393 . S
C558 H550 0.950 . S
C558 C556 1.391 . S
C558 C559 1.400 . S
C559 C558 1.400 . S
C559 C560 1.398 . S
C559 C565 1.491 . S
C560 H551 0.950 . S
C560 C559 1.398 . S
C560 C561 1.391 . S
C561 H549 0.950 . S
C561 C557 1.393 . S
C561 C560 1.391 . S
C562 H552 0.950 1_565 S
C562 C563 1.386 . S
C562 C564 1.391 . S
C563 C562 1.386 . S
C563 C567 1.393 . S
C564 H553 0.950 . S
C564 C562 1.391 . S
C564 C565 1.400 . S
C565 C559 1.491 . S
C565 C564 1.400 . S
C565 C566 1.398 . S
C566 H554 0.950 . S
C566 C565 1.398 . S
C566 C567 1.391 . S
C567 H555 0.950 . S
C567 C563 1.393 . S
C567 C566 1.391 . S
H568 C576 0.950 . S
H569 C581 0.950 . S
H570 C578 0.950 . S
H571 C580 0.950 . S
H572 C582 0.950 . S
H573 C584 0.950 . S
H574 C586 0.950 . S
H575 C587 0.950 . S
C576 H568 0.950 . S
C576 C577 1.386 . S
C576 C578 1.391 . S
C577 C576 1.386 . S
C577 C581 1.393 . S
C578 H570 0.950 . S
C578 C576 1.391 . S
C578 C579 1.400 . S
C579 C578 1.400 . S
C579 C580 1.398 . S
C579 C585 1.491 . S
C580 H571 0.950 . S
C580 C579 1.398 . S
C580 C581 1.391 . S
C581 H569 0.950 . S
C581 C577 1.393 . S
C581 C580 1.391 . S
C582 H572 0.950 . S
C582 C583 1.386 . S
C582 C584 1.391 . S
C583 C582 1.386 . S
C583 C587 1.393 . S
C584 H573 0.950 . S
C584 C582 1.391 . S
C584 C585 1.400 . S
C585 C579 1.491 . S
C585 C584 1.400 . S
C585 C586 1.398 . S
C586 H574 0.950 . S
C586 C585 1.398 . S
C586 C587 1.391 . S
C587 H575 0.950 . S
C587 C583 1.393 . S
C587 C586 1.391 . S
H588 C596 0.950 . S
H589 C601 0.950 . S
H590 C598 0.950 . S
H591 C600 0.950 . S
H592 C602 0.950 . S
H593 C604 0.950 . S
H594 C606 0.950 . S
H595 C607 0.950 . S
C596 H588 0.950 . S
C596 C597 1.386 . S
C596 C598 1.391 . S
C597 C596 1.386 . S
C597 C601 1.393 . S
C598 H590 0.950 . S
C598 C596 1.391 . S
C598 C599 1.400 . S
C599 C598 1.400 . S
C599 C600 1.398 . S
C599 C605 1.491 . S
C600 H591 0.950 . S
C600 C599 1.398 . S
C600 C601 1.391 . S
C601 H589 0.950 . S
C601 C597 1.393 . S
C601 C600 1.391 . S
C602 H592 0.950 . S
C602 C603 1.386 . S
C602 C604 1.391 . S
C603 C602 1.386 . S
C603 C607 1.393 . S
C604 H593 0.950 . S
C604 C602 1.391 . S
C604 C605 1.400 . S
C605 C599 1.491 . S
C605 C604 1.400 . S
C605 C606 1.398 . S
C606 H594 0.950 . S
C606 C605 1.398 . S
C606 C607 1.391 . S
C607 H595 0.950 . S
C607 C603 1.393 . S
C607 C606 1.391 . S
H608 C616 0.950 . S
H609 C621 0.950 . S
H610 C618 0.950 . S
H611 C620 0.950 . S
H612 C622 0.950 . S
H613 C624 0.950 . S
H614 C626 0.950 . S
H615 C627 0.950 . S
C616 H608 0.950 . S
C616 C617 1.386 . S
C616 C618 1.391 . S
C617 C616 1.386 . S
C617 C621 1.393 . S
C618 H610 0.950 . S
C618 C616 1.391 . S
C618 C619 1.400 . S
C619 C618 1.400 . S
C619 C620 1.398 . S
C619 C625 1.491 . S
C620 H611 0.950 . S
C620 C619 1.398 . S
C620 C621 1.391 . S
C621 H609 0.950 . S
C621 C617 1.393 . S
C621 C620 1.391 . S
C622 H612 0.950 . S
C622 C623 1.386 . S
C622 C624 1.391 . S
C623 C622 1.386 . S
C623 C627 1.393 . S
C624 H613 0.950 . S
C624 C622 1.391 . S
C624 C625 1.400 . S
C625 C619 1.491 . S
C625 C624 1.400 . S
C625 C626 1.398 . S
C626 H614 0.950 . S
C626 C625 1.398 . S
C626 C627 1.391 . S
C627 H615 0.950 . S
C627 C623 1.393 . S
C627 C626 1.391 . S
H628 C636 0.950 . S
H629 C641 0.950 . S
H630 C638 0.950 . S
H631 C640 0.950 . S
H632 C642 0.950 . S
H633 C644 0.950 . S
H634 C646 0.950 . S
H635 C647 0.950 . S
C636 H628 0.950 . S
C636 C637 1.386 . S
C636 C638 1.391 . S
C637 C636 1.386 . S
C637 C641 1.393 . S
C638 H630 0.950 . S
C638 C636 1.391 . S
C638 C639 1.400 . S
C639 C638 1.400 . S
C639 C640 1.398 . S
C639 C645 1.491 . S
C640 H631 0.950 . S
C640 C639 1.398 . S
C640 C641 1.391 . S
C641 H629 0.950 . S
C641 C637 1.393 . S
C641 C640 1.391 . S
C642 H632 0.950 . S
C642 C643 1.386 . S
C642 C644 1.391 . S
C643 C642 1.386 . S
C643 C647 1.393 . S
C644 H633 0.950 . S
C644 C642 1.391 . S
C644 C645 1.400 . S
C645 C639 1.491 . S
C645 C644 1.400 . S
C645 C646 1.398 . S
C646 H634 0.950 . S
C646 C645 1.398 . S
C646 C647 1.391 . S
C647 H635 0.950 . S
C647 C643 1.393 . S
C647 C646 1.391 . S
H648 C656 0.950 . S
H649 C661 0.950 . S
H650 C658 0.950 . S
H651 C660 0.950 . S
H652 C662 0.950 . S
H653 C664 0.950 . S
H654 C666 0.950 . S
H655 C667 0.950 . S
C656 H648 0.950 . S
C656 C657 1.386 . S
C656 C658 1.391 . S
C657 C656 1.386 . S
C657 C661 1.393 . S
C658 H650 0.950 . S
C658 C656 1.391 . S
C658 C659 1.400 . S
C659 C658 1.400 . S
C659 C660 1.398 . S
C659 C665 1.491 . S
C660 H651 0.950 . S
C660 C659 1.398 . S
C660 C661 1.391 . S
C661 H649 0.950 . S
C661 C657 1.393 . S
C661 C660 1.391 . S
C662 H652 0.950 . S
C662 C663 1.386 . S
C662 C664 1.391 . S
C663 C662 1.386 . S
C663 C667 1.393 . S
C664 H653 0.950 . S
C664 C662 1.391 . S
C664 C665 1.400 . S
C665 C659 1.491 . S
C665 C664 1.400 . S
C665 C666 1.398 . S
C666 H654 0.950 . S
C666 C665 1.398 . S
C666 C667 1.391 . S
C667 H655 0.950 . S
C667 C663 1.393 . S
C667 C666 1.391 . S
H668 C676 0.950 . S
H669 C681 0.950 . S
H670 C678 0.950 . S
H671 C680 0.950 . S
H672 C682 0.950 . S
H673 C684 0.950 . S
H674 C686 0.950 . S
H675 C687 0.950 1_545 S
C676 H668 0.950 . S
C676 C677 1.386 . S
C676 C678 1.391 . S
C677 C676 1.386 . S
C677 C681 1.393 . S
C678 H670 0.950 . S
C678 C676 1.391 . S
C678 C679 1.400 . S
C679 C678 1.400 . S
C679 C680 1.398 . S
C679 C685 1.491 . S
C680 H671 0.950 . S
C680 C679 1.398 . S
C680 C681 1.391 . S
C681 H669 0.950 . S
C681 C677 1.393 . S
C681 C680 1.391 . S
C682 H672 0.950 . S
C682 C683 1.386 . S
C682 C684 1.391 . S
C683 C682 1.386 . S
C683 C687 1.393 . S
C684 H673 0.950 . S
C684 C682 1.391 . S
C684 C685 1.400 . S
C685 C679 1.491 . S
C685 C684 1.400 . S
C685 C686 1.398 . S
C686 H674 0.950 . S
C686 C685 1.398 . S
C686 C687 1.391 . S
C687 H675 0.950 1_565 S
C687 C683 1.393 . S
C687 C686 1.391 . S
H688 C696 0.950 . S
H689 C701 0.950 . S
H690 C698 0.950 . S
H691 C700 0.950 . S
H692 C702 0.950 . S
H693 C704 0.950 . S
H694 C706 0.950 . S
H695 C707 0.950 . S
C696 H688 0.950 . S
C696 C697 1.386 . S
C696 C698 1.391 . S
C697 C696 1.386 . S
C697 C701 1.393 . S
C698 H690 0.950 . S
C698 C696 1.391 . S
C698 C699 1.400 . S
C699 C698 1.400 . S
C699 C700 1.398 . S
C699 C705 1.491 . S
C700 H691 0.950 . S
C700 C699 1.398 . S
C700 C701 1.391 . S
C701 H689 0.950 . S
C701 C697 1.393 . S
C701 C700 1.391 . S
C702 H692 0.950 . S
C702 C703 1.386 . S
C702 C704 1.391 . S
C703 C702 1.386 . S
C703 C707 1.393 . S
C704 H693 0.950 . S
C704 C702 1.391 . S
C704 C705 1.400 . S
C705 C699 1.491 . S
C705 C704 1.400 . S
C705 C706 1.398 . S
C706 H694 0.950 . S
C706 C705 1.398 . S
C706 C707 1.391 . S
C707 H695 0.950 . S
C707 C703 1.393 . S
C707 C706 1.391 . S
H708 C716 0.950 . S
H709 C721 0.950 . S
H710 C718 0.950 . S
H711 C720 0.950 . S
H712 C722 0.950 . S
H713 C724 0.950 . S
H714 C726 0.950 . S
H715 C727 0.950 . S
C716 H708 0.950 . S
C716 C717 1.386 . S
C716 C718 1.391 . S
C717 C716 1.386 . S
C717 C721 1.393 . S
C718 H710 0.950 . S
C718 C716 1.391 . S
C718 C719 1.400 . S
C719 C718 1.400 . S
C719 C720 1.398 . S
C719 C725 1.491 . S
C720 H711 0.950 . S
C720 C719 1.398 . S
C720 C721 1.391 . S
C721 H709 0.950 . S
C721 C717 1.393 . S
C721 C720 1.391 . S
C722 H712 0.950 . S
C722 C723 1.386 . S
C722 C724 1.391 . S
C723 C722 1.386 . S
C723 C727 1.393 . S
C724 H713 0.950 . S
C724 C722 1.391 . S
C724 C725 1.400 . S
C725 C719 1.491 . S
C725 C724 1.400 . S
C725 C726 1.398 . S
C726 H714 0.950 . S
C726 C725 1.398 . S
C726 C727 1.391 . S
C727 H715 0.950 . S
C727 C723 1.393 . S
C727 C726 1.391 . S
H728 C736 0.950 . S
H729 C741 0.950 . S
H730 C738 0.950 . S
H731 C740 0.950 . S
H732 C742 0.950 . S
H733 C744 0.950 . S
H734 C746 0.950 . S
H735 C747 0.950 . S
C736 H728 0.950 . S
C736 C737 1.386 . S
C736 C738 1.391 . S
C737 C736 1.386 . S
C737 C741 1.393 . S
C738 H730 0.950 . S
C738 C736 1.391 . S
C738 C739 1.400 . S
C739 C738 1.400 . S
C739 C740 1.398 . S
C739 C745 1.491 . S
C740 H731 0.950 . S
C740 C739 1.398 . S
C740 C741 1.391 . S
C741 H729 0.950 . S
C741 C737 1.393 . S
C741 C740 1.391 . S
C742 H732 0.950 . S
C742 C743 1.386 . S
C742 C744 1.391 . S
C743 C742 1.386 . S
C743 C747 1.393 . S
C744 H733 0.950 . S
C744 C742 1.391 . S
C744 C745 1.400 . S
C745 C739 1.491 . S
C745 C744 1.400 . S
C745 C746 1.398 . S
C746 H734 0.950 . S
C746 C745 1.398 . S
C746 C747 1.391 . S
C747 H735 0.950 . S
C747 C743 1.393 . S
C747 C746 1.391 . S
H748 C756 0.950 . S
H749 C761 0.950 . S
H750 C758 0.950 . S
H751 C760 0.950 . S
H752 C762 0.950 . S
H753 C764 0.950 . S
H754 C766 0.950 . S
H755 C767 0.950 . S
C756 H748 0.950 . S
C756 C757 1.386 . S
C756 C758 1.391 . S
C757 C756 1.386 . S
C757 C761 1.393 . S
C758 H750 0.950 . S
C758 C756 1.391 . S
C758 C759 1.400 . S
C759 C758 1.400 . S
C759 C760 1.398 . S
C759 C765 1.491 . S
C760 H751 0.950 . S
C760 C759 1.398 . S
C760 C761 1.391 . S
C761 H749 0.950 . S
C761 C757 1.393 . S
C761 C760 1.391 . S
C762 H752 0.950 . S
C762 C763 1.386 . S
C762 C764 1.391 . S
C763 C762 1.386 . S
C763 C767 1.393 . S
C764 H753 0.950 . S
C764 C762 1.391 . S
C764 C765 1.400 . S
C765 C759 1.491 . S
C765 C764 1.400 . S
C765 C766 1.398 . S
C766 H754 0.950 . S
C766 C765 1.398 . S
C766 C767 1.391 . S
C767 H755 0.950 . S
C767 C763 1.393 . S
C767 C766 1.391 . S
H768 C776 0.950 . S
H769 C781 0.950 . S
H770 C778 0.950 . S
H771 C780 0.950 . S
H772 C782 0.950 . S
H773 C784 0.950 . S
H774 C786 0.950 . S
H775 C787 0.950 . S
C776 H768 0.950 . S
C776 C777 1.386 . S
C776 C778 1.391 . S
C777 C776 1.386 . S
C777 C781 1.393 . S
C778 H770 0.950 . S
C778 C776 1.391 . S
C778 C779 1.400 . S
C779 C778 1.400 . S
C779 C780 1.398 . S
C779 C785 1.491 . S
C780 H771 0.950 . S
C780 C779 1.398 . S
C780 C781 1.391 . S
C781 H769 0.950 . S
C781 C777 1.393 . S
C781 C780 1.391 . S
C782 H772 0.950 . S
C782 C783 1.386 . S
C782 C784 1.391 . S
C783 C782 1.386 . S
C783 C787 1.393 . S
C784 H773 0.950 . S
C784 C782 1.391 . S
C784 C785 1.400 . S
C785 C779 1.491 . S
C785 C784 1.400 . S
C785 C786 1.398 . S
C786 H774 0.950 . S
C786 C785 1.398 . S
C786 C787 1.391 . S
C787 H775 0.950 . S
C787 C783 1.393 . S
C787 C786 1.391 . S
H788 C796 0.950 . S
H789 C801 0.950 . S
H790 C798 0.950 . S
H791 C800 0.950 . S
H792 C802 0.950 . S
H793 C804 0.950 . S
H794 C806 0.950 . S
H795 C807 0.950 . S
C796 H788 0.950 . S
C796 C797 1.386 . S
C796 C798 1.391 . S
C797 C796 1.386 . S
C797 C801 1.393 . S
C798 H790 0.950 . S
C798 C796 1.391 . S
C798 C799 1.400 . S
C799 C798 1.400 . S
C799 C800 1.398 . S
C799 C805 1.491 . S
C800 H791 0.950 . S
C800 C799 1.398 . S
C800 C801 1.391 . S
C801 H789 0.950 . S
C801 C797 1.393 . S
C801 C800 1.391 . S
C802 H792 0.950 . S
C802 C803 1.386 . S
C802 C804 1.391 . S
C803 C802 1.386 . S
C803 C807 1.393 . S
C804 H793 0.950 . S
C804 C802 1.391 . S
C804 C805 1.400 . S
C805 C799 1.491 . S
C805 C804 1.400 . S
C805 C806 1.398 . S
C806 H794 0.950 . S
C806 C805 1.398 . S
C806 C807 1.391 . S
C807 H795 0.950 . S
C807 C803 1.393 . S
C807 C806 1.391 . S
H808 C816 0.950 . S
H809 C821 0.950 . S
H810 C818 0.950 . S
H811 C820 0.950 . S
H812 C822 0.950 . S
H813 C824 0.950 . S
H814 C826 0.950 . S
H815 C827 0.950 . S
C816 H808 0.950 . S
C816 C817 1.386 . S
C816 C818 1.391 . S
C817 C816 1.386 . S
C817 C821 1.393 . S
C818 H810 0.950 . S
C818 C816 1.391 . S
C818 C819 1.400 . S
C819 C818 1.400 . S
C819 C820 1.398 . S
C819 C825 1.491 . S
C820 H811 0.950 . S
C820 C819 1.398 . S
C820 C821 1.391 . S
C821 H809 0.950 . S
C821 C817 1.393 . S
C821 C820 1.391 . S
C822 H812 0.950 . S
C822 C823 1.386 . S
C822 C824 1.391 . S
C823 C822 1.386 . S
C823 C827 1.393 . S
C824 H813 0.950 . S
C824 C822 1.391 . S
C824 C825 1.400 . S
C825 C819 1.491 . S
C825 C824 1.400 . S
C825 C826 1.398 . S
C826 H814 0.950 . S
C826 C825 1.398 . S
C826 C827 1.391 . S
C827 H815 0.950 . S
C827 C823 1.393 . S
C827 C826 1.391 . S
H828 C836 0.950 . S
H829 C841 0.950 . S
H830 C838 0.950 . S
H831 C840 0.950 . S
H832 C842 0.950 . S
H833 C844 0.950 . S
H834 C846 0.950 . S
H835 C847 0.950 . S
C836 H828 0.950 . S
C836 C837 1.386 . S
C836 C838 1.391 . S
C837 C836 1.386 . S
C837 C841 1.393 . S
C838 H830 0.950 . S
C838 C836 1.391 . S
C838 C839 1.400 . S
C839 C838 1.400 . S
C839 C840 1.398 . S
C839 C845 1.491 . S
C840 H831 0.950 . S
C840 C839 1.398 . S
C840 C841 1.391 . S
C841 H829 0.950 . S
C841 C837 1.393 . S
C841 C840 1.391 . S
C842 H832 0.950 . S
C842 C843 1.386 . S
C842 C844 1.391 . S
C843 C842 1.386 . S
C843 C847 1.393 . S
C844 H833 0.950 . S
C844 C842 1.391 . S
C844 C845 1.400 . S
C845 C839 1.491 . S
C845 C844 1.400 . S
C845 C846 1.398 . S
C846 H834 0.950 . S
C846 C845 1.398 . S
C846 C847 1.391 . S
C847 H835 0.950 . S
C847 C843 1.393 . S
C847 C846 1.391 . S
C217 C0 1.105 . S
C223 C169 1.101 . S
C237 C143 1.102 . S
C243 C13 1.098 . S
C257 C156 1.100 . S
C263 C26 1.097 . S
C277 C130 1.099 . S
C283 C39 1.097 . S
C297 C52 1.107 . S
C303 C195 1.103 . S
C317 C65 1.106 . S
C323 C117 1.109 . S
C337 C182 1.098 . S
C343 C78 1.101 . S
C357 C91 1.101 . S
C363 C104 1.098 . S
C377 C60 1.569 . S
C383 C8 1.578 . S
C397 C21 1.576 . S
C403 C73 1.564 . S
C417 C34 1.576 . S
C423 C86 1.575 . S
C437 C99 1.573 . S
C443 C47 1.577 . S
C457 C112 1.562 . S
C463 C138 1.574 . S
C477 C125 1.565 . S
C483 C151 1.559 . S
C497 C190 1.567 . S
C503 C164 1.559 . S
C517 C177 1.567 . S
C523 C203 1.559 . S
C537 C70 1.217 . S
C543 C5 1.240 . S
C557 C18 1.223 . S
C563 C83 1.234 . S
C577 C31 1.245 . S
C583 C96 1.214 . S
C597 C57 1.244 . S
C603 C44 1.214 . S
C617 C62 1.297 . S
C623 C140 1.283 . S
C637 C36 1.281 . S
C643 C114 1.296 . S
C657 C153 1.288 . S
C663 C88 1.300 . S
C677 C127 1.281 . S
C683 C10 1.276 . S
C697 C109 1.223 . S
C703 C161 1.233 . S
C717 C135 1.242 . S
C723 C200 1.215 . S
C737 C174 1.236 . S
C743 C122 1.225 . S
C757 C148 1.236 . S
C763 C187 1.223 . S
C777 C192 1.298 . S
C783 C23 1.299 . S
C797 C179 1.278 . S
C803 C75 1.291 . S
C817 C205 1.290 . S
C823 C49 1.277 . S
C837 C166 1.296 . S
C843 C101 1.301 . S
