# Generated by pormake.
# Topology wjr, (5)-cn, num edge types: 1
# Building blocks:
#     Node 0, Type 0, BuildingBlock: XOMCOT_clean_sbu_0, # of connection points: 5
#     Node 1, Type 0, BuildingBlock: XOMCOT_clean_sbu_0, # of connection points: 5
#     Node 2, Type 0, BuildingBlock: XOMCOT_clean_sbu_0, # of connection points: 5
#     Node 3, Type 0, BuildingBlock: XOMCOT_clean_sbu_0, # of connection points: 5
#     Node 4, Type 0, BuildingBlock: XOMCOT_clean_sbu_0, # of connection points: 5
#     Node 5, Type 0, BuildingBlock: XOMCOT_clean_sbu_0, # of connection points: 5
#     Node 6, Type 0, BuildingBlock: XOMCOT_clean_sbu_0, # of connection points: 5
#     Node 7, Type 0, BuildingBlock: XOMCOT_clean_sbu_0, # of connection points: 5
#     Node 8, Type 0, BuildingBlock: XOMCOT_clean_sbu_0, # of connection points: 5
#     Node 9, Type 0, BuildingBlock: XOMCOT_clean_sbu_0, # of connection points: 5
#     Node 10, Type 0, BuildingBlock: XOMCOT_clean_sbu_0, # of connection points: 5
#     Node 11, Type 0, BuildingBlock: XOMCOT_clean_sbu_0, # of connection points: 5
#     Node 12, Type 0, BuildingBlock: XOMCOT_clean_sbu_0, # of connection points: 5
#     Node 13, Type 0, BuildingBlock: XOMCOT_clean_sbu_0, # of connection points: 5
#     Node 14, Type 0, BuildingBlock: XOMCOT_clean_sbu_0, # of connection points: 5
#     Node 15, Type 0, BuildingBlock: XOMCOT_clean_sbu_0, # of connection points: 5
#     Node 16, Type 0, BuildingBlock: XOMCOT_clean_sbu_0, # of connection points: 5
#     Node 17, Type 0, BuildingBlock: XOMCOT_clean_sbu_0, # of connection points: 5
#     Node 18, Type 0, BuildingBlock: XOMCOT_clean_sbu_0, # of connection points: 5
#     Node 19, Type 0, BuildingBlock: XOMCOT_clean_sbu_0, # of connection points: 5
#     Node 20, Type 0, BuildingBlock: XOMCOT_clean_sbu_0, # of connection points: 5
#     Node 21, Type 0, BuildingBlock: XOMCOT_clean_sbu_0, # of connection points: 5
#     Node 22, Type 0, BuildingBlock: XOMCOT_clean_sbu_0, # of connection points: 5
#     Node 23, Type 0, BuildingBlock: XOMCOT_clean_sbu_0, # of connection points: 5
#     Edge 24, Type (0, 0), BuildingBlock: XIVTED_clean_linker_0, # of connection points: 2
#     Edge 25, Type (0, 0), BuildingBlock: XIVTED_clean_linker_0, # of connection points: 2
#     Edge 26, Type (0, 0), BuildingBlock: XIVTED_clean_linker_0, # of connection points: 2
#     Edge 27, Type (0, 0), BuildingBlock: XIVTED_clean_linker_0, # of connection points: 2
#     Edge 28, Type (0, 0), BuildingBlock: XIVTED_clean_linker_0, # of connection points: 2
#     Edge 29, Type (0, 0), BuildingBlock: XIVTED_clean_linker_0, # of connection points: 2
#     Edge 30, Type (0, 0), BuildingBlock: XIVTED_clean_linker_0, # of connection points: 2
#     Edge 31, Type (0, 0), BuildingBlock: XIVTED_clean_linker_0, # of connection points: 2
#     Edge 32, Type (0, 0), BuildingBlock: XIVTED_clean_linker_0, # of connection points: 2
#     Edge 33, Type (0, 0), BuildingBlock: XIVTED_clean_linker_0, # of connection points: 2
#     Edge 34, Type (0, 0), BuildingBlock: XIVTED_clean_linker_0, # of connection points: 2
#     Edge 35, Type (0, 0), BuildingBlock: XIVTED_clean_linker_0, # of connection points: 2
#     Edge 36, Type (0, 0), BuildingBlock: XIVTED_clean_linker_0, # of connection points: 2
#     Edge 37, Type (0, 0), BuildingBlock: XIVTED_clean_linker_0, # of connection points: 2
#     Edge 38, Type (0, 0), BuildingBlock: XIVTED_clean_linker_0, # of connection points: 2
#     Edge 39, Type (0, 0), BuildingBlock: XIVTED_clean_linker_0, # of connection points: 2
#     Edge 40, Type (0, 0), BuildingBlock: XIVTED_clean_linker_0, # of connection points: 2
#     Edge 41, Type (0, 0), BuildingBlock: XIVTED_clean_linker_0, # of connection points: 2
#     Edge 42, Type (0, 0), BuildingBlock: XIVTED_clean_linker_0, # of connection points: 2
#     Edge 43, Type (0, 0), BuildingBlock: XIVTED_clean_linker_0, # of connection points: 2
#     Edge 44, Type (0, 0), BuildingBlock: XIVTED_clean_linker_0, # of connection points: 2
#     Edge 45, Type (0, 0), BuildingBlock: XIVTED_clean_linker_0, # of connection points: 2
#     Edge 46, Type (0, 0), BuildingBlock: XIVTED_clean_linker_0, # of connection points: 2
#     Edge 47, Type (0, 0), BuildingBlock: XIVTED_clean_linker_0, # of connection points: 2
#     Edge 48, Type (0, 0), BuildingBlock: XIVTED_clean_linker_0, # of connection points: 2
#     Edge 49, Type (0, 0), BuildingBlock: XIVTED_clean_linker_0, # of connection points: 2
#     Edge 50, Type (0, 0), BuildingBlock: XIVTED_clean_linker_0, # of connection points: 2
#     Edge 51, Type (0, 0), BuildingBlock: XIVTED_clean_linker_0, # of connection points: 2
#     Edge 52, Type (0, 0), BuildingBlock: XIVTED_clean_linker_0, # of connection points: 2
#     Edge 53, Type (0, 0), BuildingBlock: XIVTED_clean_linker_0, # of connection points: 2
#     Edge 54, Type (0, 0), BuildingBlock: XIVTED_clean_linker_0, # of connection points: 2
#     Edge 55, Type (0, 0), BuildingBlock: XIVTED_clean_linker_0, # of connection points: 2
#     Edge 56, Type (0, 0), BuildingBlock: XIVTED_clean_linker_0, # of connection points: 2
#     Edge 57, Type (0, 0), BuildingBlock: XIVTED_clean_linker_0, # of connection points: 2
#     Edge 58, Type (0, 0), BuildingBlock: XIVTED_clean_linker_0, # of connection points: 2
#     Edge 59, Type (0, 0), BuildingBlock: XIVTED_clean_linker_0, # of connection points: 2
#     Edge 60, Type (0, 0), BuildingBlock: XIVTED_clean_linker_0, # of connection points: 2
#     Edge 61, Type (0, 0), BuildingBlock: XIVTED_clean_linker_0, # of connection points: 2
#     Edge 62, Type (0, 0), BuildingBlock: XIVTED_clean_linker_0, # of connection points: 2
#     Edge 63, Type (0, 0), BuildingBlock: XIVTED_clean_linker_0, # of connection points: 2
#     Edge 64, Type (0, 0), BuildingBlock: XIVTED_clean_linker_0, # of connection points: 2
#     Edge 65, Type (0, 0), BuildingBlock: XIVTED_clean_linker_0, # of connection points: 2
#     Edge 66, Type (0, 0), BuildingBlock: XIVTED_clean_linker_0, # of connection points: 2
#     Edge 67, Type (0, 0), BuildingBlock: XIVTED_clean_linker_0, # of connection points: 2
#     Edge 68, Type (0, 0), BuildingBlock: XIVTED_clean_linker_0, # of connection points: 2
#     Edge 69, Type (0, 0), BuildingBlock: XIVTED_clean_linker_0, # of connection points: 2
#     Edge 70, Type (0, 0), BuildingBlock: XIVTED_clean_linker_0, # of connection points: 2
#     Edge 71, Type (0, 0), BuildingBlock: XIVTED_clean_linker_0, # of connection points: 2
#     Edge 72, Type (0, 0), BuildingBlock: XIVTED_clean_linker_0, # of connection points: 2
#     Edge 73, Type (0, 0), BuildingBlock: XIVTED_clean_linker_0, # of connection points: 2
#     Edge 74, Type (0, 0), BuildingBlock: XIVTED_clean_linker_0, # of connection points: 2
#     Edge 75, Type (0, 0), BuildingBlock: XIVTED_clean_linker_0, # of connection points: 2
#     Edge 76, Type (0, 0), BuildingBlock: XIVTED_clean_linker_0, # of connection points: 2
#     Edge 77, Type (0, 0), BuildingBlock: XIVTED_clean_linker_0, # of connection points: 2
#     Edge 78, Type (0, 0), BuildingBlock: XIVTED_clean_linker_0, # of connection points: 2
#     Edge 79, Type (0, 0), BuildingBlock: XIVTED_clean_linker_0, # of connection points: 2
#     Edge 80, Type (0, 0), BuildingBlock: XIVTED_clean_linker_0, # of connection points: 2
#     Edge 81, Type (0, 0), BuildingBlock: XIVTED_clean_linker_0, # of connection points: 2
#     Edge 82, Type (0, 0), BuildingBlock: XIVTED_clean_linker_0, # of connection points: 2
#     Edge 83, Type (0, 0), BuildingBlock: XIVTED_clean_linker_0, # of connection points: 2
# Relax obj value: 0.387
# Max RMSD: 0.201
# Mean RMSD: 0.201
data_MOF--net-wjr--node1-XOMCOT_clean_sbu_0--edge1-XIVTED_clean_linker_0
_symmetry_space_group_name_H-M    P1
_symmetry_Int_Tables_number       1
_symmetry_cell_setting            triclinic
loop_
_symmetry_equiv_pos_as_xyz
'x, y, z'
_cell_length_a     65.815832
_cell_length_b     65.911113
_cell_length_c     50.942209
_cell_angle_alpha  89.998281
_cell_angle_beta   90.005352
_cell_angle_gamma 120.00874
loop_
_atom_site_label
_atom_site_type_symbol
_atom_site_fract_x
_atom_site_fract_y
_atom_site_fract_z
_atom_type_partial_charge
Co0 Co 0.46241 0.10667 0.18905 0.0
C1 C 0.44972 0.14114 0.21023 0.0
C2 C 0.43451 0.10911 0.23212 0.0
C3 C 0.42884 0.12413 0.24441 0.0
N4 N 0.44691 0.11939 0.21015 0.0
N5 N 0.43851 0.14424 0.23069 0.0
H6 H 0.46058 0.15486 0.19664 0.0
H7 H 0.43088 0.09228 0.23958 0.0
C8 C 0.41307 0.06567 0.19559 0.0
O9 O 0.40381 0.07882 0.19014 0.0
N10 N 0.47797 0.09362 0.16917 0.0
C11 C 0.49086 0.10199 0.14715 0.0
C12 C 0.49777 0.08635 0.13916 0.0
C13 C 0.47746 0.07342 0.17453 0.0
N14 N 0.48933 0.06846 0.15649 0.0
C15 C 0.45849 0.13316 0.14655 0.0
C16 C 0.43157 0.09521 0.11445 0.0
C17 C 0.44089 0.11782 0.104 0.0
C18 C 0.45404 0.13694 0.12069 0.0
C19 C 0.43641 0.0922 0.14041 0.0
N20 N 0.44974 0.11103 0.15624 0.0
H21 H 0.4705 0.14812 0.15803 0.0
H22 H 0.43099 0.07464 0.14687 0.0
H23 H 0.4947 0.11812 0.13745 0.0
H24 H 0.46814 0.06234 0.19106 0.0
O25 O 0.49184 0.13624 0.19083 0.0
O26 O 0.4796 0.10728 0.21977 0.0
O27 O 0.43523 0.0741 0.19446 0.0
C28 C 0.49576 0.12797 0.21229 0.0
H29 H 0.41961 0.12109 0.26287 0.0
H30 H 0.50827 0.08806 0.12205 0.0
H31 H 0.42199 0.07986 0.10219 0.0
H32 H 0.46174 0.15475 0.11352 0.0
Co33 Co 0.35017 0.4645 0.19345 0.0
C34 C 0.30153 0.45023 0.21171 0.0
C35 C 0.3219 0.44376 0.23979 0.0
C36 C 0.30094 0.43827 0.25116 0.0
N37 N 0.32224 0.45097 0.21496 0.0
N38 N 0.28806 0.44235 0.23359 0.0
H39 H 0.29671 0.45603 0.19423 0.0
H40 H 0.33641 0.44344 0.24935 0.0
C41 C 0.34053 0.41572 0.20683 0.0
O42 O 0.31782 0.40688 0.20375 0.0
N43 N 0.37859 0.47814 0.17314 0.0
C44 C 0.38323 0.48993 0.15029 0.0
C45 C 0.40574 0.4962 0.14267 0.0
C46 C 0.39818 0.47764 0.17932 0.0
N47 N 0.41505 0.48847 0.16103 0.0
C48 C 0.32182 0.46049 0.1487 0.0
C49 C 0.33013 0.42902 0.12173 0.0
C50 C 0.32066 0.4408 0.10799 0.0
C51 C 0.31557 0.45599 0.12213 0.0
C52 C 0.33642 0.43426 0.14804 0.0
N53 N 0.33271 0.45018 0.16124 0.0
H54 H 0.31981 0.47393 0.15843 0.0
H55 H 0.34631 0.42702 0.15668 0.0
H56 H 0.37116 0.49368 0.1399 0.0
H57 H 0.39989 0.46923 0.19674 0.0
O58 O 0.35088 0.49439 0.19256 0.0
O59 O 0.36745 0.4833 0.22299 0.0
O60 O 0.35481 0.43728 0.20188 0.0
C61 C 0.36329 0.49928 0.21399 0.0
H62 H 0.29619 0.43294 0.27136 0.0
H63 H 0.41462 0.50591 0.12517 0.0
H64 H 0.33416 0.41694 0.11179 0.0
H65 H 0.30857 0.46575 0.11233 0.0
Co66 Co 0.88415 0.35089 0.19101 0.0
C67 C 0.84872 0.30369 0.21104 0.0
C68 C 0.87835 0.32199 0.23652 0.0
C69 C 0.86226 0.30184 0.24887 0.0
N70 N 0.87017 0.323 0.21257 0.0
N71 N 0.84352 0.29041 0.23297 0.0
H72 H 0.83645 0.30026 0.1953 0.0
H73 H 0.89443 0.33566 0.24509 0.0
C74 C 0.92433 0.34236 0.20332 0.0
O75 O 0.91118 0.31975 0.19909 0.0
N76 N 0.89838 0.37922 0.17057 0.0
C77 C 0.89081 0.38348 0.14778 0.0
C78 C 0.90661 0.406 0.13993 0.0
C79 C 0.9183 0.39906 0.17649 0.0
N80 N 0.92383 0.41571 0.15808 0.0
C81 C 0.85979 0.32165 0.14679 0.0
C82 C 0.89968 0.33125 0.11907 0.0
C83 C 0.87813 0.32065 0.10582 0.0
C84 C 0.85785 0.31499 0.12034 0.0
C85 C 0.90091 0.33791 0.14525 0.0
N86 N 0.88119 0.33347 0.15884 0.0
H87 H 0.84426 0.3192 0.15671 0.0
H88 H 0.91812 0.34861 0.1535 0.0
H89 H 0.87498 0.37111 0.1376 0.0
H90 H 0.92866 0.40111 0.19382 0.0
O91 O 0.85466 0.35107 0.19023 0.0
O92 O 0.88238 0.36794 0.22058 0.0
O93 O 0.91632 0.35618 0.19926 0.0
C94 C 0.8621 0.36348 0.21165 0.0
H95 H 0.86395 0.29649 0.26845 0.0
H96 H 0.90537 0.41463 0.12243 0.0
H97 H 0.91583 0.3358 0.10882 0.0
H98 H 0.84084 0.30717 0.11091 0.0
Co99 Co 0.52408 0.88312 0.19016 0.0
C100 C 0.53652 0.84835 0.2112 0.0
C101 C 0.54842 0.87878 0.23544 0.0
C102 C 0.55309 0.86325 0.24817 0.0
N103 N 0.53846 0.86973 0.212 0.0
N104 N 0.54548 0.84406 0.23301 0.0
H105 H 0.52732 0.83549 0.19614 0.0
H106 H 0.55111 0.89517 0.24334 0.0
C107 C 0.57354 0.92298 0.19915 0.0
O108 O 0.58233 0.90916 0.19552 0.0
N109 N 0.50965 0.89694 0.16962 0.0
C110 C 0.4975 0.88926 0.14702 0.0
C111 C 0.49102 0.90526 0.13909 0.0
C112 C 0.51014 0.91707 0.17535 0.0
N113 N 0.49897 0.92264 0.15704 0.0
C114 C 0.52752 0.85639 0.1477 0.0
C115 C 0.5568 0.89432 0.11671 0.0
C116 C 0.54642 0.87182 0.10573 0.0
C117 C 0.53214 0.85266 0.12189 0.0
C118 C 0.55178 0.89728 0.14262 0.0
N119 N 0.53719 0.87847 0.15786 0.0
H120 H 0.51465 0.84154 0.1587 0.0
H121 H 0.55808 0.91492 0.14939 0.0
H122 H 0.49378 0.87331 0.13697 0.0
H123 H 0.5189 0.92762 0.19241 0.0
O124 O 0.4942 0.85395 0.19128 0.0
O125 O 0.50638 0.88287 0.22025 0.0
O126 O 0.55163 0.91531 0.19619 0.0
C127 C 0.49008 0.86234 0.2125 0.0
H128 H 0.56086 0.86567 0.26746 0.0
H129 H 0.48108 0.90408 0.12166 0.0
H130 H 0.56735 0.90973 0.10486 0.0
H131 H 0.52364 0.83494 0.11431 0.0
Co132 Co 0.63653 0.52478 0.19413 0.0
C133 C 0.68424 0.53719 0.2135 0.0
C134 C 0.6659 0.54836 0.23912 0.0
C135 C 0.68626 0.55276 0.25125 0.0
N136 N 0.66476 0.53905 0.21522 0.0
N137 N 0.69771 0.54555 0.23528 0.0
H138 H 0.68768 0.52835 0.19777 0.0
H139 H 0.65217 0.55058 0.24786 0.0
C140 C 0.64483 0.5733 0.20638 0.0
O141 O 0.6673 0.58284 0.20102 0.0
N142 N 0.6079 0.51033 0.17414 0.0
C143 C 0.60346 0.49815 0.15159 0.0
C144 C 0.58101 0.49166 0.14359 0.0
C145 C 0.58822 0.51086 0.17978 0.0
N146 N 0.57151 0.49968 0.16139 0.0
C147 C 0.66553 0.53051 0.14929 0.0
C148 C 0.65402 0.5596 0.12204 0.0
C149 C 0.66492 0.54916 0.10841 0.0
C150 C 0.67157 0.53519 0.12267 0.0
C151 C 0.64798 0.55419 0.14836 0.0
N152 N 0.65336 0.5395 0.16173 0.0
H153 H 0.66869 0.51784 0.15907 0.0
H154 H 0.63693 0.56015 0.15691 0.0
H155 H 0.61572 0.49443 0.14159 0.0
H156 H 0.58637 0.51964 0.19676 0.0
O157 O 0.63686 0.49542 0.19287 0.0
O158 O 0.62004 0.50573 0.22382 0.0
O159 O 0.63098 0.55138 0.20296 0.0
C160 C 0.62469 0.49017 0.21451 0.0
H161 H 0.69173 0.55993 0.27076 0.0
H162 H 0.57233 0.4817 0.12615 0.0
H163 H 0.6487 0.57067 0.11199 0.0
H164 H 0.67968 0.52643 0.11294 0.0
Co165 Co 0.10323 0.63963 0.1903 0.0
C166 C 0.13769 0.68687 0.21131 0.0
C167 C 0.10735 0.66824 0.23568 0.0
C168 C 0.12287 0.68852 0.24834 0.0
N169 N 0.11634 0.66737 0.21218 0.0
N170 N 0.14201 0.70017 0.23307 0.0
H171 H 0.15054 0.69052 0.19624 0.0
H172 H 0.09105 0.65445 0.24372 0.0
C173 C 0.06279 0.64814 0.20014 0.0
O174 O 0.07609 0.67067 0.19549 0.0
N175 N 0.08984 0.61147 0.16963 0.0
C176 C 0.09818 0.60739 0.1473 0.0
C177 C 0.08283 0.5848 0.13923 0.0
C178 C 0.06992 0.59147 0.17507 0.0
N179 N 0.06514 0.57487 0.1568 0.0
C180 C 0.12935 0.67007 0.14775 0.0
C181 C 0.09097 0.66038 0.11695 0.0
C182 C 0.11343 0.67284 0.1058 0.0
C183 C 0.13279 0.67828 0.12191 0.0
C184 C 0.08829 0.65261 0.14294 0.0
N185 N 0.10733 0.65731 0.15807 0.0
H186 H 0.1444 0.67241 0.15863 0.0
H187 H 0.07073 0.64105 0.1499 0.0
H188 H 0.11423 0.61992 0.13761 0.0
H189 H 0.05904 0.58925 0.19196 0.0
O190 O 0.13278 0.63961 0.19108 0.0
O191 O 0.10404 0.62238 0.22024 0.0
O192 O 0.07079 0.63423 0.19685 0.0
C193 C 0.12466 0.62703 0.2123 0.0
H194 H 0.12051 0.69384 0.26766 0.0
H195 H 0.08472 0.57626 0.12201 0.0
H196 H 0.07541 0.65511 0.10518 0.0
H197 H 0.1505 0.68783 0.11426 0.0
Co198 Co 0.88304 0.52388 0.32488 0.0
C199 C 0.84868 0.53638 0.30275 0.0
C200 C 0.87934 0.54804 0.27892 0.0
C201 C 0.86393 0.55268 0.2658 0.0
N202 N 0.87005 0.53822 0.30234 0.0
N203 N 0.84459 0.54523 0.28073 0.0
H204 H 0.8357 0.52734 0.31776 0.0
H205 H 0.89584 0.55068 0.27133 0.0
C206 C 0.92237 0.57343 0.31654 0.0
O207 O 0.90805 0.58158 0.32069 0.0
N208 N 0.8962 0.50933 0.3464 0.0
C209 C 0.88532 0.49347 0.36563 0.0
C210 C 0.90079 0.4871 0.37563 0.0
C211 C 0.918 0.51248 0.34493 0.0
N212 N 0.9213 0.4992 0.36264 0.0
C213 C 0.85516 0.52661 0.36659 0.0
C214 C 0.89245 0.55569 0.39852 0.0
C215 C 0.86971 0.54501 0.40901 0.0
C216 C 0.85088 0.53082 0.39237 0.0
C217 C 0.89595 0.55108 0.37264 0.0
N218 N 0.87746 0.53663 0.3569 0.0
H219 H 0.84056 0.51378 0.35523 0.0
H220 H 0.91377 0.5576 0.36627 0.0
H221 H 0.86739 0.48695 0.37185 0.0
H222 H 0.931 0.5238 0.33079 0.0
O223 O 0.85389 0.49402 0.32284 0.0
O224 O 0.88372 0.50644 0.29503 0.0
O225 O 0.91529 0.55166 0.31955 0.0
C226 C 0.86293 0.49011 0.30202 0.0
H227 H 0.86654 0.56036 0.24644 0.0
H228 H 0.89732 0.47471 0.39132 0.0
H229 H 0.90765 0.56615 0.41072 0.0
H230 H 0.833 0.52208 0.39953 0.0
Co231 Co 0.35093 0.88447 0.32274 0.0
C232 C 0.3032 0.85006 0.30274 0.0
C233 C 0.32259 0.87913 0.27685 0.0
C234 C 0.3021 0.86358 0.26463 0.0
N235 N 0.32317 0.87096 0.30094 0.0
N236 N 0.28998 0.8452 0.2808 0.0
H237 H 0.29913 0.83794 0.31878 0.0
H238 H 0.33669 0.89489 0.2682 0.0
C239 C 0.34217 0.92433 0.31067 0.0
O240 O 0.31968 0.91108 0.31574 0.0
N241 N 0.37905 0.8981 0.34364 0.0
C242 C 0.38426 0.88774 0.36328 0.0
C243 C 0.4063 0.90336 0.37266 0.0
C244 C 0.39776 0.91975 0.34136 0.0
N245 N 0.41459 0.92344 0.3589 0.0
C246 C 0.32167 0.85986 0.36683 0.0
C247 C 0.33135 0.89956 0.39488 0.0
C248 C 0.32076 0.87797 0.40798 0.0
C249 C 0.31507 0.8578 0.39331 0.0
C250 C 0.33795 0.90091 0.36865 0.0
N251 N 0.33341 0.88128 0.35487 0.0
H252 H 0.31919 0.8444 0.35674 0.0
H253 H 0.34865 0.91813 0.3605 0.0
H254 H 0.37286 0.87007 0.3702 0.0
H255 H 0.39932 0.93238 0.32679 0.0
O256 O 0.35076 0.85482 0.32296 0.0
O257 O 0.36819 0.88294 0.29319 0.0
O258 O 0.35631 0.91669 0.31472 0.0
C259 C 0.36342 0.86248 0.30172 0.0
H260 H 0.29691 0.8654 0.24501 0.0
H261 H 0.41545 0.9003 0.38845 0.0
H262 H 0.33596 0.91564 0.40527 0.0
H263 H 0.30726 0.84077 0.40264 0.0
Co264 Co 0.46475 0.35231 0.32352 0.0
C265 C 0.45063 0.30362 0.30663 0.0
C266 C 0.43752 0.32044 0.28129 0.0
C267 C 0.43096 0.29878 0.27109 0.0
N268 N 0.44918 0.32325 0.30403 0.0
N269 N 0.43929 0.28834 0.28697 0.0
H270 H 0.46049 0.30084 0.32171 0.0
H271 H 0.43486 0.3337 0.27204 0.0
C272 C 0.41584 0.34451 0.31405 0.0
O273 O 0.40607 0.32243 0.32117 0.0
N274 N 0.4804 0.38164 0.34208 0.0
C275 C 0.49368 0.38673 0.36386 0.0
C276 C 0.50013 0.40919 0.37164 0.0
C277 C 0.47919 0.40096 0.33664 0.0
N278 N 0.49096 0.41804 0.35446 0.0
C279 C 0.46031 0.32463 0.36918 0.0
C280 C 0.43242 0.33725 0.3972 0.0
C281 C 0.44254 0.32587 0.41047 0.0
C282 C 0.45601 0.3188 0.39587 0.0
C283 C 0.43743 0.34305 0.37078 0.0
N284 N 0.45134 0.3369 0.35695 0.0
H285 H 0.47259 0.32107 0.35909 0.0
H286 H 0.43173 0.35435 0.36238 0.0
H287 H 0.49799 0.37481 0.37365 0.0
H288 H 0.46933 0.40223 0.32038 0.0
O289 O 0.49395 0.35158 0.32363 0.0
O290 O 0.48257 0.36739 0.2926 0.0
O291 O 0.43804 0.35797 0.31559 0.0
C292 C 0.49843 0.36296 0.30149 0.0
H293 H 0.42201 0.29179 0.25263 0.0
H294 H 0.51069 0.41825 0.3886 0.0
H295 H 0.4218 0.34299 0.40754 0.0
H296 H 0.46462 0.31041 0.40534 0.0
Co297 Co 0.10572 0.46705 0.32584 0.0
C298 C 0.13926 0.45358 0.30275 0.0
C299 C 0.10969 0.44534 0.27815 0.0
C300 C 0.1247 0.44053 0.26445 0.0
N301 N 0.11862 0.45333 0.30226 0.0
N302 N 0.14327 0.44577 0.2799 0.0
H303 H 0.1518 0.46057 0.31856 0.0
H304 H 0.0937 0.44402 0.27063 0.0
C305 C 0.06702 0.41755 0.31647 0.0
O306 O 0.08173 0.40978 0.31996 0.0
N307 N 0.09245 0.4809 0.34827 0.0
C308 C 0.10325 0.4966 0.36766 0.0
C309 C 0.08769 0.50281 0.37779 0.0
C310 C 0.07063 0.47768 0.34685 0.0
N311 N 0.06722 0.49076 0.36472 0.0
C312 C 0.13421 0.46411 0.36659 0.0
C313 C 0.09736 0.43429 0.3986 0.0
C314 C 0.12017 0.44526 0.4089 0.0
C315 C 0.1388 0.4598 0.39219 0.0
C316 C 0.09354 0.43902 0.3729 0.0
N317 N 0.11181 0.45389 0.35716 0.0
H318 H 0.14863 0.47714 0.35515 0.0
H319 H 0.07564 0.43227 0.36674 0.0
H320 H 0.12123 0.50325 0.37376 0.0
H321 H 0.05772 0.46658 0.33249 0.0
O322 O 0.13467 0.49711 0.32405 0.0
O323 O 0.10451 0.48495 0.29674 0.0
O324 O 0.07363 0.43911 0.32037 0.0
C325 C 0.12533 0.50126 0.30368 0.0
H326 H 0.12245 0.43423 0.24444 0.0
H327 H 0.0911 0.51516 0.39352 0.0
H328 H 0.08231 0.42352 0.41087 0.0
H329 H 0.15673 0.46875 0.39921 0.0
Co330 Co 0.63465 0.10597 0.32288 0.0
C331 C 0.68214 0.14065 0.30262 0.0
C332 C 0.66289 0.11145 0.27685 0.0
C333 C 0.6832 0.12719 0.26446 0.0
N334 N 0.66235 0.11959 0.30098 0.0
N335 N 0.69523 0.14566 0.28054 0.0
H336 H 0.68613 0.15278 0.31864 0.0
H337 H 0.64886 0.0956 0.26829 0.0
C338 C 0.6435 0.06615 0.31074 0.0
O339 O 0.66608 0.07964 0.31514 0.0
N340 N 0.60658 0.09225 0.34385 0.0
C341 C 0.60151 0.10241 0.36381 0.0
C342 C 0.57946 0.08675 0.37315 0.0
C343 C 0.58778 0.0707 0.3413 0.0
N344 N 0.57104 0.06686 0.35903 0.0
C345 C 0.66395 0.13036 0.36711 0.0
C346 C 0.65417 0.09045 0.39477 0.0
C347 C 0.66458 0.1119 0.40813 0.0
C348 C 0.67038 0.13221 0.39366 0.0
C349 C 0.64769 0.08931 0.36854 0.0
N350 N 0.65224 0.10904 0.35495 0.0
H351 H 0.66649 0.14591 0.35716 0.0
H352 H 0.63698 0.07214 0.3603 0.0
H353 H 0.613 0.11997 0.37099 0.0
H354 H 0.58611 0.05826 0.32643 0.0
O355 O 0.63478 0.13558 0.32334 0.0
O356 O 0.61731 0.10757 0.29345 0.0
O357 O 0.62932 0.07375 0.31476 0.0
C358 C 0.62208 0.128 0.30212 0.0
H359 H 0.6883 0.12543 0.24478 0.0
H360 H 0.57042 0.08965 0.38918 0.0
H361 H 0.64951 0.07428 0.40498 0.0
H362 H 0.6781 0.14914 0.4032 0.0
Co363 Co 0.52464 0.63783 0.32545 0.0
C364 C 0.53714 0.68519 0.30503 0.0
C365 C 0.55009 0.66739 0.28113 0.0
C366 C 0.55479 0.68768 0.26861 0.0
N367 N 0.53947 0.66598 0.30426 0.0
N368 N 0.54652 0.69881 0.28356 0.0
H369 H 0.52729 0.68837 0.31973 0.0
H370 H 0.5531 0.65392 0.27316 0.0
C371 C 0.57401 0.64689 0.31697 0.0
O372 O 0.58304 0.66935 0.32188 0.0
N373 N 0.50976 0.60921 0.34532 0.0
C374 C 0.49764 0.60455 0.36795 0.0
C375 C 0.49075 0.58184 0.37528 0.0
C376 C 0.50982 0.58947 0.33896 0.0
N377 N 0.49841 0.57247 0.35692 0.0
C378 C 0.5285 0.66773 0.36845 0.0
C379 C 0.5571 0.65793 0.39925 0.0
C380 C 0.54732 0.67058 0.41035 0.0
C381 C 0.53331 0.67596 0.3943 0.0
C382 C 0.55188 0.65007 0.37332 0.0
N383 N 0.53771 0.65495 0.35813 0.0
H384 H 0.51589 0.67019 0.3575 0.0
H385 H 0.55773 0.6384 0.3664 0.0
H386 H 0.49423 0.6168 0.37845 0.0
H387 H 0.51846 0.58778 0.32171 0.0
O388 O 0.49495 0.63755 0.32444 0.0
O389 O 0.50705 0.62109 0.295 0.0
O390 O 0.55198 0.63286 0.31918 0.0
C391 C 0.49084 0.62539 0.30294 0.0
H392 H 0.56297 0.69337 0.24956 0.0
H393 H 0.48078 0.5729 0.39263 0.0
H394 H 0.56737 0.65265 0.41102 0.0
H395 H 0.52524 0.68557 0.40197 0.0
Co396 Co 0.52209 0.88188 0.82477 0.0
C397 C 0.53697 0.84847 0.80494 0.0
C398 C 0.54414 0.87636 0.77822 0.0
C399 C 0.54991 0.86135 0.76618 0.0
N400 N 0.53624 0.86848 0.80262 0.0
N401 N 0.54536 0.84371 0.78292 0.0
H402 H 0.53084 0.83723 0.82186 0.0
H403 H 0.54477 0.89159 0.76938 0.0
C404 C 0.57146 0.92092 0.81455 0.0
O405 O 0.57978 0.90672 0.81836 0.0
N406 N 0.50794 0.89575 0.84566 0.0
C407 C 0.49565 0.88784 0.86814 0.0
C408 C 0.48937 0.90389 0.87642 0.0
C409 C 0.50873 0.91609 0.84035 0.0
N410 N 0.4976 0.92155 0.85882 0.0
C411 C 0.52501 0.85495 0.86727 0.0
C412 C 0.55525 0.89272 0.89789 0.0
C413 C 0.54433 0.87027 0.90908 0.0
C414 C 0.52959 0.85117 0.89307 0.0
C415 C 0.55032 0.89572 0.87195 0.0
N416 N 0.53524 0.87699 0.8569 0.0
H417 H 0.51185 0.8402 0.85634 0.0
H418 H 0.55712 0.91339 0.86499 0.0
H419 H 0.49165 0.87167 0.87785 0.0
H420 H 0.51764 0.92683 0.82346 0.0
O421 O 0.49208 0.85278 0.82359 0.0
O422 O 0.5043 0.8819 0.7949 0.0
O423 O 0.54978 0.91392 0.81849 0.0
C424 C 0.488 0.86132 0.80246 0.0
H425 H 0.55584 0.86282 0.74611 0.0
H426 H 0.47935 0.90255 0.89384 0.0
H427 H 0.56618 0.90812 0.90959 0.0
H428 H 0.52073 0.83348 0.90074 0.0
Co429 Co 0.63864 0.52787 0.82304 0.0
C430 C 0.68733 0.54172 0.80644 0.0
C431 C 0.67124 0.55595 0.78162 0.0
C432 C 0.69287 0.56219 0.77145 0.0
N433 N 0.66802 0.5438 0.80406 0.0
N434 N 0.70285 0.55313 0.78699 0.0
H435 H 0.68963 0.53122 0.82109 0.0
H436 H 0.65823 0.55904 0.77243 0.0
C437 C 0.64608 0.57671 0.81421 0.0
O438 O 0.6683 0.58666 0.82096 0.0
N439 N 0.60902 0.51181 0.84103 0.0
C440 C 0.60375 0.49856 0.86284 0.0
C441 C 0.58096 0.49156 0.8699 0.0
C442 C 0.58948 0.51243 0.83484 0.0
N443 N 0.57209 0.50033 0.85224 0.0
C444 C 0.66599 0.53184 0.8689 0.0
C445 C 0.65299 0.5592 0.89733 0.0
C446 C 0.66459 0.54921 0.91042 0.0
C447 C 0.67181 0.53598 0.89562 0.0
C448 C 0.64728 0.55442 0.87084 0.0
N449 N 0.65364 0.54078 0.85681 0.0
H450 H 0.66972 0.51977 0.85865 0.0
H451 H 0.63596 0.56013 0.86249 0.0
H452 H 0.61574 0.4946 0.8731 0.0
H453 H 0.58826 0.52206 0.81832 0.0
O454 O 0.63948 0.49876 0.82266 0.0
O455 O 0.62402 0.51058 0.79169 0.0
O456 O 0.63281 0.55451 0.81558 0.0
C457 C 0.62837 0.49463 0.80035 0.0
H458 H 0.70008 0.5713 0.75312 0.0
H459 H 0.57168 0.48089 0.88671 0.0
H460 H 0.64711 0.56963 0.90781 0.0
H461 H 0.68036 0.52746 0.90493 0.0
Co462 Co 0.10195 0.63893 0.82492 0.0
C463 C 0.13613 0.68601 0.80344 0.0
C464 C 0.10591 0.66687 0.77901 0.0
C465 C 0.12135 0.68703 0.76612 0.0
N466 N 0.11489 0.66639 0.80266 0.0
N467 N 0.14042 0.699 0.78142 0.0
H468 H 0.14894 0.68996 0.81866 0.0
H469 H 0.08967 0.6529 0.77108 0.0
C470 C 0.06157 0.64745 0.81489 0.0
O471 O 0.07507 0.67009 0.81865 0.0
N472 N 0.08872 0.61103 0.84597 0.0
C473 C 0.09706 0.60714 0.86841 0.0
C474 C 0.08173 0.58458 0.87664 0.0
C475 C 0.06883 0.59099 0.84063 0.0
N476 N 0.06408 0.57453 0.85905 0.0
C477 C 0.12833 0.66963 0.86724 0.0
C478 C 0.09005 0.66059 0.89786 0.0
C479 C 0.1125 0.67294 0.90902 0.0
C480 C 0.13184 0.67802 0.89302 0.0
C481 C 0.08731 0.65258 0.87199 0.0
N482 N 0.1063 0.65696 0.85693 0.0
H483 H 0.14333 0.67176 0.85639 0.0
H484 H 0.06972 0.64107 0.86511 0.0
H485 H 0.1131 0.61975 0.87805 0.0
H486 H 0.05796 0.58865 0.82369 0.0
O487 O 0.1315 0.63886 0.82397 0.0
O488 O 0.10248 0.62135 0.79517 0.0
O489 O 0.06948 0.63351 0.81858 0.0
C490 C 0.12318 0.62609 0.8029 0.0
H491 H 0.11899 0.69206 0.74664 0.0
H492 H 0.08361 0.57615 0.89396 0.0
H493 H 0.07451 0.65557 0.90957 0.0
H494 H 0.14953 0.68744 0.90072 0.0
Co495 Co 0.46335 0.10683 0.82324 0.0
C496 C 0.45101 0.14151 0.80201 0.0
C497 C 0.43873 0.11091 0.77801 0.0
C498 C 0.43415 0.12648 0.7652 0.0
N499 N 0.44885 0.12006 0.80136 0.0
N500 N 0.442 0.14577 0.78023 0.0
H501 H 0.46046 0.15445 0.81692 0.0
H502 H 0.4359 0.09444 0.77019 0.0
C503 C 0.4139 0.06699 0.81459 0.0
O504 O 0.40522 0.08088 0.81846 0.0
N505 N 0.47793 0.09322 0.84387 0.0
C506 C 0.49026 0.10119 0.86631 0.0
C507 C 0.49682 0.08531 0.87443 0.0
C508 C 0.47739 0.07304 0.83841 0.0
N509 N 0.48873 0.06772 0.85675 0.0
C510 C 0.45978 0.13359 0.86569 0.0
C511 C 0.43055 0.0956 0.89663 0.0
C512 C 0.44067 0.1181 0.90757 0.0
C513 C 0.45499 0.13729 0.89146 0.0
C514 C 0.43575 0.09268 0.87081 0.0
N515 N 0.45025 0.11151 0.85554 0.0
H516 H 0.47263 0.14846 0.8547 0.0
H517 H 0.42964 0.07505 0.86411 0.0
H518 H 0.49405 0.11726 0.87613 0.0
H519 H 0.46849 0.06227 0.82152 0.0
O520 O 0.49319 0.13606 0.82194 0.0
O521 O 0.48096 0.10701 0.79314 0.0
O522 O 0.43582 0.0746 0.81734 0.0
C523 C 0.49723 0.1276 0.80072 0.0
H524 H 0.42631 0.12402 0.74595 0.0
H525 H 0.50691 0.08671 0.89181 0.0
H526 H 0.42004 0.08017 0.90846 0.0
H527 H 0.46334 0.15501 0.89901 0.0
Co528 Co 0.35122 0.46583 0.82401 0.0
C529 C 0.30353 0.45358 0.80485 0.0
C530 C 0.32119 0.44122 0.7798 0.0
C531 C 0.3008 0.43681 0.76773 0.0
N532 N 0.32277 0.45128 0.80333 0.0
N533 N 0.28978 0.44477 0.78334 0.0
H534 H 0.30048 0.46305 0.82018 0.0
H535 H 0.33465 0.43848 0.77122 0.0
C536 C 0.34244 0.41683 0.81342 0.0
O537 O 0.31999 0.40747 0.8188 0.0
N538 N 0.38009 0.48051 0.84354 0.0
C539 C 0.38487 0.49279 0.86605 0.0
C540 C 0.40749 0.49941 0.87352 0.0
C541 C 0.39972 0.48008 0.83738 0.0
N542 N 0.41673 0.49139 0.8554 0.0
C543 C 0.32259 0.46147 0.86878 0.0
C544 C 0.33326 0.43219 0.89693 0.0
C545 C 0.32229 0.44283 0.91003 0.0
C546 C 0.31616 0.45698 0.89532 0.0
C547 C 0.3397 0.43742 0.87067 0.0
N548 N 0.33461 0.45209 0.85681 0.0
H549 H 0.31972 0.47418 0.85863 0.0
H550 H 0.35067 0.43121 0.8625 0.0
H551 H 0.37274 0.49649 0.87639 0.0
H552 H 0.40131 0.47125 0.82028 0.0
O553 O 0.35136 0.49545 0.82417 0.0
O554 O 0.36752 0.48393 0.79371 0.0
O555 O 0.35634 0.43881 0.81622 0.0
C556 C 0.36328 0.49994 0.80241 0.0
H557 H 0.29503 0.42913 0.74847 0.0
H558 H 0.41646 0.50943 0.89082 0.0
H559 H 0.33821 0.42097 0.9073 0.0
H560 H 0.30806 0.46593 0.90463 0.0
Co561 Co 0.88331 0.35135 0.82287 0.0
C562 C 0.84831 0.30423 0.80224 0.0
C563 C 0.87787 0.32324 0.77684 0.0
C564 C 0.86198 0.30321 0.76418 0.0
N565 N 0.86962 0.32374 0.80092 0.0
N566 N 0.84329 0.29134 0.78003 0.0
H567 H 0.83601 0.30037 0.81807 0.0
H568 H 0.89385 0.3372 0.76841 0.0
C569 C 0.92359 0.34321 0.81004 0.0
O570 O 0.91054 0.32063 0.81453 0.0
N571 N 0.89726 0.37941 0.8437 0.0
C572 C 0.88953 0.38336 0.86656 0.0
C573 C 0.90525 0.4058 0.87475 0.0
C574 C 0.91718 0.39933 0.83808 0.0
N575 N 0.92255 0.41575 0.85674 0.0
C576 C 0.85936 0.3217 0.86701 0.0
C577 C 0.8996 0.33182 0.89432 0.0
C578 C 0.87818 0.32122 0.90783 0.0
C579 C 0.85772 0.31523 0.89352 0.0
C580 C 0.90053 0.33836 0.86815 0.0
N581 N 0.88065 0.33371 0.85476 0.0
H582 H 0.84368 0.31901 0.8572 0.0
H583 H 0.91766 0.34922 0.8598 0.0
H584 H 0.87367 0.37084 0.87656 0.0
H585 H 0.92768 0.40159 0.82082 0.0
O586 O 0.85362 0.35115 0.82393 0.0
O587 O 0.88128 0.36858 0.79363 0.0
O588 O 0.91558 0.35701 0.81429 0.0
C589 C 0.86092 0.36377 0.80263 0.0
H590 H 0.86374 0.29823 0.74444 0.0
H591 H 0.9039 0.41421 0.89238 0.0
H592 H 0.91588 0.33658 0.90438 0.0
H593 H 0.84079 0.30734 0.90314 0.0
Co594 Co 0.10531 0.46664 0.689 0.0
C595 C 0.14009 0.45465 0.71098 0.0
C596 C 0.10934 0.44256 0.73479 0.0
C597 C 0.1249 0.43809 0.74786 0.0
N598 N 0.11861 0.45254 0.71142 0.0
N599 N 0.14429 0.44582 0.73294 0.0
H600 H 0.15304 0.46383 0.69598 0.0
H601 H 0.09275 0.43966 0.74237 0.0
C602 C 0.06635 0.41679 0.69703 0.0
O603 O 0.08086 0.40884 0.69306 0.0
N604 N 0.09178 0.4809 0.66763 0.0
C605 C 0.10229 0.49673 0.64829 0.0
C606 C 0.08651 0.50286 0.63865 0.0
C607 C 0.06994 0.47755 0.66954 0.0
N608 N 0.06621 0.49063 0.65199 0.0
C609 C 0.13355 0.46454 0.64724 0.0
C610 C 0.09649 0.43455 0.61556 0.0
C611 C 0.11924 0.44539 0.60513 0.0
C612 C 0.13797 0.46015 0.62159 0.0
C613 C 0.09284 0.43943 0.64125 0.0
N614 N 0.11122 0.45423 0.65692 0.0
H615 H 0.14803 0.47762 0.65855 0.0
H616 H 0.07498 0.43272 0.64754 0.0
H617 H 0.12017 0.50342 0.64179 0.0
H618 H 0.05722 0.46626 0.68393 0.0
O619 O 0.13416 0.49678 0.69126 0.0
O620 O 0.1042 0.48371 0.71897 0.0
O621 O 0.07326 0.43853 0.69414 0.0
C622 C 0.12489 0.50032 0.71212 0.0
H623 H 0.12234 0.43033 0.76716 0.0
H624 H 0.08964 0.51519 0.62299 0.0
H625 H 0.08137 0.42369 0.60342 0.0
H626 H 0.15584 0.46908 0.6144 0.0
Co627 Co 0.63637 0.10491 0.6916 0.0
C628 C 0.68366 0.13968 0.71208 0.0
C629 C 0.66512 0.10964 0.73689 0.0
C630 C 0.68526 0.1254 0.74952 0.0
N631 N 0.66426 0.11828 0.71317 0.0
N632 N 0.69683 0.14439 0.73404 0.0
H633 H 0.6872 0.15226 0.69668 0.0
H634 H 0.65132 0.09348 0.74516 0.0
C635 C 0.64457 0.06442 0.70272 0.0
O636 O 0.66716 0.0775 0.69814 0.0
N637 N 0.60803 0.09124 0.67119 0.0
C638 C 0.60382 0.09913 0.6486 0.0
C639 C 0.58131 0.0834 0.64052 0.0
C640 C 0.5882 0.07123 0.67678 0.0
N641 N 0.57159 0.06594 0.65835 0.0
C642 C 0.66581 0.12953 0.64757 0.0
C643 C 0.65531 0.08984 0.61902 0.0
C644 C 0.66613 0.11152 0.6061 0.0
C645 C 0.67227 0.13168 0.62102 0.0
C646 C 0.64884 0.08842 0.6453 0.0
N647 N 0.65371 0.10804 0.6593 0.0
H648 H 0.6686 0.14502 0.65784 0.0
H649 H 0.63789 0.07117 0.65329 0.0
H650 H 0.61624 0.11507 0.63865 0.0
H651 H 0.58616 0.06057 0.69381 0.0
O652 O 0.63658 0.13456 0.69145 0.0
O653 O 0.61944 0.10655 0.7214 0.0
O654 O 0.63077 0.07256 0.69925 0.0
C655 C 0.62417 0.127 0.71287 0.0
H656 H 0.6905 0.12334 0.76902 0.0
H657 H 0.57273 0.08481 0.62306 0.0
H658 H 0.65038 0.07377 0.60845 0.0
H659 H 0.6803 0.14878 0.61186 0.0
Co660 Co 0.52554 0.63869 0.69149 0.0
C661 C 0.53972 0.68646 0.71235 0.0
C662 C 0.54894 0.66628 0.73757 0.0
C663 C 0.55412 0.68659 0.75036 0.0
N664 N 0.54017 0.66623 0.7136 0.0
N665 N 0.54824 0.69918 0.73453 0.0
H666 H 0.53189 0.69117 0.69666 0.0
H667 H 0.55041 0.65191 0.74572 0.0
C668 C 0.57473 0.64807 0.70099 0.0
O669 O 0.5834 0.67058 0.69676 0.0
N670 N 0.51087 0.61062 0.67071 0.0
C671 C 0.49877 0.60643 0.64812 0.0
C672 C 0.49179 0.58385 0.64019 0.0
C673 C 0.51086 0.59074 0.67645 0.0
N674 N 0.49938 0.57409 0.65815 0.0
C675 C 0.52921 0.66906 0.64917 0.0
C676 C 0.55816 0.66001 0.61804 0.0
C677 C 0.54778 0.67215 0.60704 0.0
C678 C 0.53372 0.67727 0.62331 0.0
C679 C 0.55331 0.65222 0.64403 0.0
N680 N 0.53883 0.65658 0.65932 0.0
H681 H 0.51646 0.67118 0.66027 0.0
H682 H 0.55959 0.64086 0.65083 0.0
H683 H 0.49534 0.61888 0.63811 0.0
H684 H 0.51942 0.58868 0.69354 0.0
O685 O 0.49581 0.63837 0.69275 0.0
O686 O 0.50769 0.62116 0.72145 0.0
O687 O 0.5529 0.63371 0.69759 0.0
C688 C 0.49158 0.62573 0.71389 0.0
H689 H 0.56091 0.69136 0.77013 0.0
H690 H 0.48172 0.57521 0.62279 0.0
H691 H 0.56855 0.65497 0.60616 0.0
H692 H 0.52527 0.68657 0.61579 0.0
Co693 Co 0.88161 0.52352 0.69052 0.0
C694 C 0.8477 0.53731 0.71112 0.0
C695 C 0.87912 0.55088 0.73408 0.0
C696 C 0.86438 0.55712 0.74602 0.0
N697 N 0.86906 0.5391 0.71172 0.0
N698 N 0.84465 0.54848 0.73164 0.0
H699 H 0.83424 0.52731 0.69687 0.0
H700 H 0.89566 0.55383 0.74188 0.0
C701 C 0.92203 0.57292 0.69717 0.0
O702 O 0.90854 0.58164 0.69103 0.0
N703 N 0.89432 0.5078 0.67029 0.0
C704 C 0.88322 0.49132 0.6517 0.0
C705 C 0.89857 0.48458 0.64219 0.0
C706 C 0.91612 0.51096 0.67184 0.0
N707 N 0.91921 0.4971 0.65481 0.0
C708 C 0.85468 0.52657 0.6478 0.0
C709 C 0.89263 0.55436 0.61602 0.0
C710 C 0.87001 0.5447 0.60544 0.0
C711 C 0.85086 0.53098 0.62191 0.0
C712 C 0.89568 0.54945 0.64192 0.0
N713 N 0.87687 0.53583 0.65767 0.0
H714 H 0.83978 0.5143 0.65921 0.0
H715 H 0.91332 0.55519 0.64842 0.0
H716 H 0.86528 0.48473 0.64549 0.0
H717 H 0.92934 0.52284 0.68545 0.0
O718 O 0.852 0.49412 0.69299 0.0
O719 O 0.8815 0.50667 0.72129 0.0
O720 O 0.91418 0.55088 0.6957 0.0
C721 C 0.86064 0.49046 0.71432 0.0
H722 H 0.86731 0.56611 0.76463 0.0
H723 H 0.89496 0.47175 0.62697 0.0
H724 H 0.90801 0.56432 0.60388 0.0
H725 H 0.83305 0.52293 0.61458 0.0
Co726 Co 0.34941 0.88305 0.69187 0.0
C727 C 0.30139 0.84872 0.71111 0.0
C728 C 0.32027 0.87809 0.73677 0.0
C729 C 0.29968 0.86258 0.74879 0.0
N730 N 0.32123 0.86973 0.71292 0.0
N731 N 0.28788 0.844 0.73279 0.0
H732 H 0.29766 0.8364 0.69536 0.0
H733 H 0.33423 0.89391 0.74548 0.0
C734 C 0.34151 0.92366 0.70324 0.0
O735 O 0.31894 0.9107 0.69844 0.0
N736 N 0.37803 0.89664 0.67196 0.0
C737 C 0.38241 0.8888 0.64945 0.0
C738 C 0.40507 0.90442 0.64173 0.0
C739 C 0.3979 0.9165 0.67789 0.0
N740 N 0.41471 0.92175 0.65972 0.0
C741 C 0.32058 0.85921 0.64711 0.0
C742 C 0.3317 0.89942 0.6193 0.0
C743 C 0.32093 0.87797 0.60594 0.0
C744 C 0.31448 0.85753 0.62047 0.0
C745 C 0.33783 0.90038 0.64563 0.0
N746 N 0.33263 0.8805 0.65929 0.0
H747 H 0.31752 0.84352 0.65715 0.0
H748 H 0.34879 0.91748 0.65394 0.0
H749 H 0.37001 0.873 0.63929 0.0
H750 H 0.39983 0.9271 0.69494 0.0
O751 O 0.34885 0.85321 0.69159 0.0
O752 O 0.36579 0.88091 0.72192 0.0
O753 O 0.35526 0.91545 0.6998 0.0
C754 C 0.361 0.86049 0.71323 0.0
H755 H 0.29424 0.86451 0.76823 0.0
H756 H 0.4138 0.90304 0.62439 0.0
H757 H 0.33686 0.91569 0.60905 0.0
H758 H 0.30646 0.84058 0.61095 0.0
Co759 Co 0.46569 0.35459 0.69331 0.0
C760 C 0.45326 0.30724 0.71363 0.0
C761 C 0.44315 0.32642 0.73931 0.0
C762 C 0.43857 0.30615 0.75171 0.0
N763 N 0.45194 0.32698 0.71524 0.0
N764 N 0.44509 0.29417 0.73568 0.0
H765 H 0.46143 0.30322 0.69765 0.0
H766 H 0.44119 0.34039 0.7478 0.0
C767 C 0.41672 0.34529 0.70521 0.0
O768 O 0.40777 0.32272 0.70109 0.0
N769 N 0.47957 0.38267 0.67248 0.0
C770 C 0.49153 0.38688 0.64978 0.0
C771 C 0.49747 0.40903 0.64125 0.0
C772 C 0.47864 0.40216 0.67768 0.0
N773 N 0.48935 0.41854 0.65889 0.0
C774 C 0.46099 0.32512 0.6494 0.0
C775 C 0.43058 0.33439 0.62145 0.0
C776 C 0.44177 0.32401 0.60832 0.0
C777 C 0.4564 0.31845 0.62293 0.0
C778 C 0.43591 0.34109 0.64762 0.0
N779 N 0.45126 0.33683 0.66132 0.0
H780 H 0.47413 0.32283 0.65942 0.0
H781 H 0.42934 0.35177 0.65569 0.0
H782 H 0.49547 0.37467 0.64004 0.0
H783 H 0.4699 0.40409 0.69466 0.0
O784 O 0.49549 0.35501 0.69275 0.0
O785 O 0.48453 0.37206 0.72273 0.0
O786 O 0.43852 0.35951 0.70132 0.0
C787 C 0.50042 0.36759 0.71404 0.0
H788 H 0.43161 0.30101 0.77136 0.0
H789 H 0.50715 0.41751 0.62359 0.0
H790 H 0.419 0.33888 0.61108 0.0
H791 H 0.46573 0.31077 0.61355 0.0
H792 H 0.49435 0.04697 0.11347 0.0
H793 H 0.49705 0.94659 0.19915 0.0
H794 H 0.48949 0.0429 0.19795 0.0
H795 H 0.49574 0.94575 0.11448 0.0
H796 H 0.49535 0.98263 0.1987 0.0
H797 H 0.49645 0.01088 0.11298 0.0
C798 C 0.4939 0.03859 0.1319 0.0
C799 C 0.49163 0.04789 0.15578 0.0
C800 C 0.49539 0.97459 0.18017 0.0
C801 C 0.4938 0.0066 0.15538 0.0
C802 C 0.49648 0.95405 0.18043 0.0
C803 C 0.49668 0.94323 0.15681 0.0
C804 C 0.49459 0.98454 0.15609 0.0
C805 C 0.49544 0.95344 0.13313 0.0
C806 C 0.49492 0.01791 0.1316 0.0
C807 C 0.49086 0.03617 0.17908 0.0
N808 N 0.49456 0.97363 0.13335 0.0
N809 N 0.49194 0.01618 0.17828 0.0
H810 H 0.54523 0.49531 0.11836 0.0
H811 H 0.44062 0.4902 0.20351 0.0
H812 H 0.54552 0.49911 0.20293 0.0
H813 H 0.44185 0.49195 0.11884 0.0
H814 H 0.47871 0.49247 0.20344 0.0
H815 H 0.50683 0.49272 0.11785 0.0
C816 C 0.53716 0.49544 0.13682 0.0
C817 C 0.54863 0.49748 0.16073 0.0
C818 C 0.4707 0.49239 0.18484 0.0
C819 C 0.50485 0.49476 0.16029 0.0
C820 C 0.44887 0.49097 0.18488 0.0
C821 C 0.43798 0.49077 0.16113 0.0
C822 C 0.48176 0.49354 0.16088 0.0
C823 C 0.44972 0.49226 0.13758 0.0
C824 C 0.51532 0.49413 0.13651 0.0
C825 C 0.53749 0.49789 0.18404 0.0
N826 N 0.47096 0.49349 0.13804 0.0
N827 N 0.51624 0.49652 0.18323 0.0
H828 H 0.04402 0.54785 0.11401 0.0
H829 H 0.94769 0.44179 0.20025 0.0
H830 H 0.04062 0.54859 0.19856 0.0
H831 H 0.94626 0.44255 0.11559 0.0
H832 H 0.98269 0.48045 0.19973 0.0
H833 H 0.00929 0.50863 0.11385 0.0
C834 C 0.03607 0.53971 0.13253 0.0
C835 C 0.04517 0.55155 0.15632 0.0
C836 C 0.97474 0.47221 0.18124 0.0
C837 C 0.00541 0.50685 0.15631 0.0
C838 C 0.9548 0.45005 0.18153 0.0
C839 C 0.94407 0.43887 0.15792 0.0
C840 C 0.98414 0.48332 0.15715 0.0
C841 C 0.95384 0.45063 0.13424 0.0
C842 C 0.01617 0.51741 0.13243 0.0
C843 C 0.034 0.54029 0.17974 0.0
N844 N 0.9734 0.47221 0.13445 0.0
N845 N 0.01474 0.51859 0.17914 0.0
H846 H 0.06432 0.52925 0.37667 0.0
H847 H 0.92416 0.46083 0.37529 0.0
H848 H 0.0225 0.45537 0.36024 0.0
H849 H 0.9661 0.53458 0.35819 0.0
H850 H 0.96017 0.45864 0.37908 0.0
H851 H 0.02827 0.53155 0.37924 0.0
C852 C 0.04752 0.51349 0.37392 0.0
C853 C 0.04628 0.49212 0.36807 0.0
C854 C 0.96145 0.47531 0.37462 0.0
C855 C 0.00522 0.49456 0.37105 0.0
C856 C 0.94097 0.47658 0.37262 0.0
C857 C 0.94225 0.49788 0.36626 0.0
C858 C 0.9833 0.49556 0.37065 0.0
C859 C 0.96443 0.51778 0.36277 0.0
C860 C 0.02703 0.51483 0.37522 0.0
C861 C 0.02413 0.47221 0.36446 0.0
N862 N 0.98413 0.51616 0.36505 0.0
N863 N 0.00443 0.47389 0.36604 0.0
H864 H 0.42387 0.96803 0.35369 0.0
H865 H 0.56167 0.02232 0.35283 0.0
H866 H 0.45612 0.92641 0.37039 0.0
H867 H 0.5296 0.06379 0.37129 0.0
H868 H 0.52306 0.98681 0.35542 0.0
H869 H 0.46249 0.00354 0.35632 0.0
C870 C 0.43913 0.96644 0.35794 0.0
C871 C 0.43695 0.94437 0.36174 0.0
C872 C 0.52451 0.00367 0.3591 0.0
C873 C 0.48099 0.98467 0.3646 0.0
C874 C 0.54645 0.02388 0.35746 0.0
C875 C 0.54868 0.04591 0.36177 0.0
C876 C 0.50465 0.0056 0.36459 0.0
C877 C 0.52854 0.04707 0.368 0.0
C878 C 0.46108 0.98664 0.35961 0.0
C879 C 0.45714 0.94316 0.3675 0.0
N880 N 0.50726 0.02718 0.36893 0.0
N881 N 0.47842 0.96305 0.36846 0.0
H882 H 0.49595 0.44426 0.39771 0.0
H883 H 0.49572 0.54689 0.3142 0.0
H884 H 0.48892 0.44309 0.31343 0.0
H885 H 0.4954 0.54566 0.39886 0.0
H886 H 0.49395 0.50908 0.31377 0.0
H887 H 0.49701 0.48189 0.39881 0.0
C888 C 0.4948 0.45199 0.37944 0.0
C889 C 0.49232 0.44051 0.35544 0.0
C890 C 0.49419 0.517 0.33248 0.0
C891 C 0.49327 0.48338 0.35656 0.0
C892 C 0.49531 0.53865 0.33272 0.0
C893 C 0.49586 0.54949 0.3566 0.0
C894 C 0.49374 0.50608 0.35631 0.0
C895 C 0.49484 0.53781 0.38003 0.0
C896 C 0.49521 0.47337 0.38009 0.0
C897 C 0.49055 0.45116 0.33239 0.0
N898 N 0.49397 0.51677 0.3793 0.0
N899 N 0.4911 0.472 0.33352 0.0
H900 H 0.49038 0.04334 0.81495 0.0
H901 H 0.49398 0.94401 0.90177 0.0
H902 H 0.49228 0.04511 0.8996 0.0
H903 H 0.49642 0.94635 0.81714 0.0
H904 H 0.49218 0.98028 0.90196 0.0
H905 H 0.49197 0.00727 0.81585 0.0
C906 C 0.49107 0.03607 0.83377 0.0
C907 C 0.49103 0.04715 0.85725 0.0
C908 C 0.49312 0.97282 0.88337 0.0
C909 C 0.49301 0.00581 0.85848 0.0
C910 C 0.49397 0.95205 0.88326 0.0
C911 C 0.49549 0.94223 0.85941 0.0
C912 C 0.49365 0.98369 0.85945 0.0
C913 C 0.49567 0.9535 0.83598 0.0
C914 C 0.49208 0.0155 0.83429 0.0
C915 C 0.49243 0.0372 0.88106 0.0
N916 N 0.49478 0.97359 0.83661 0.0
N917 N 0.49325 0.01698 0.88109 0.0
H918 H 0.44336 0.49509 0.89781 0.0
H919 H 0.54733 0.5014 0.81032 0.0
H920 H 0.44228 0.49256 0.81317 0.0
H921 H 0.54497 0.49509 0.89471 0.0
H922 H 0.50956 0.49991 0.81119 0.0
H923 H 0.48157 0.49724 0.89735 0.0
C924 C 0.45124 0.49517 0.87914 0.0
C925 C 0.43959 0.49357 0.85549 0.0
C926 C 0.51725 0.49879 0.82953 0.0
C927 C 0.48313 0.4958 0.8548 0.0
C928 C 0.53888 0.49975 0.82905 0.0
C929 C 0.54934 0.49842 0.85248 0.0
C930 C 0.50601 0.49661 0.85365 0.0
C931 C 0.53741 0.49592 0.87617 0.0
C932 C 0.47295 0.49621 0.87888 0.0
C933 C 0.45047 0.49343 0.83186 0.0
N934 N 0.51641 0.4952 0.87617 0.0
N935 N 0.47162 0.49454 0.83212 0.0
H936 H 0.94637 0.44226 0.81487 0.0
H937 H 0.04265 0.54767 0.90186 0.0
H938 H 0.94491 0.44211 0.89956 0.0
H939 H 0.04005 0.54808 0.81724 0.0
H940 H 0.00779 0.5085 0.90189 0.0
H941 H 0.98147 0.48077 0.81576 0.0
C942 C 0.95351 0.4503 0.83369 0.0
C943 C 0.94276 0.4389 0.85718 0.0
C944 C 0.01488 0.5172 0.88334 0.0
C945 C 0.98295 0.4832 0.85839 0.0
C946 C 0.03485 0.53946 0.88331 0.0
C947 C 0.04417 0.55119 0.85952 0.0
C948 C 0.0043 0.50662 0.85939 0.0
C949 C 0.03323 0.53987 0.83605 0.0
C950 C 0.97351 0.47237 0.8342 0.0
C951 C 0.95253 0.45038 0.88099 0.0
N952 N 0.0139 0.51825 0.83659 0.0
N953 N 0.97216 0.47191 0.881 0.0
H954 H 0.92238 0.45865 0.6435 0.0
H955 H 0.06256 0.52866 0.63978 0.0
H956 H 0.96389 0.53293 0.65783 0.0
H957 H 0.02173 0.45489 0.65728 0.0
H958 H 0.02619 0.53035 0.63741 0.0
H959 H 0.9586 0.45685 0.63963 0.0
C960 C 0.93914 0.47458 0.64557 0.0
C961 C 0.94024 0.49593 0.65118 0.0
C962 C 0.02524 0.51379 0.64164 0.0
C963 C 0.98152 0.49406 0.64669 0.0
C964 C 0.04591 0.5128 0.64283 0.0
C965 C 0.04505 0.49165 0.64891 0.0
C966 C 0.00361 0.49339 0.64617 0.0
C967 C 0.02308 0.47159 0.6529 0.0
C968 C 0.95973 0.47354 0.64351 0.0
C969 C 0.96235 0.51609 0.65387 0.0
N970 N 0.00319 0.47293 0.65144 0.0
N971 N 0.98216 0.51468 0.65156 0.0
H972 H 0.54527 0.04379 0.61544 0.0
H973 H 0.44066 0.94577 0.70181 0.0
H974 H 0.54537 0.04139 0.70008 0.0
H975 H 0.4414 0.9442 0.61716 0.0
H976 H 0.47885 0.98138 0.70122 0.0
H977 H 0.50675 0.00808 0.61524 0.0
C978 C 0.53712 0.03585 0.63396 0.0
C979 C 0.54858 0.04551 0.65781 0.0
C980 C 0.47073 0.97326 0.68273 0.0
C981 C 0.50474 0.00464 0.65775 0.0
C982 C 0.44885 0.95297 0.68307 0.0
C983 C 0.43778 0.94208 0.65949 0.0
C984 C 0.48165 0.98285 0.65862 0.0
C985 C 0.44942 0.95194 0.63578 0.0
C986 C 0.51524 0.01539 0.63384 0.0
C987 C 0.53736 0.03436 0.68124 0.0
N988 N 0.47071 0.97187 0.63593 0.0
N989 N 0.51608 0.01455 0.68061 0.0
H990 H 0.49265 0.44404 0.61551 0.0
H991 H 0.4963 0.54792 0.7004 0.0
H992 H 0.49 0.44475 0.70012 0.0
H993 H 0.49579 0.5475 0.61573 0.0
H994 H 0.49393 0.50989 0.70022 0.0
H995 H 0.49431 0.48202 0.61464 0.0
C996 C 0.49257 0.45224 0.63388 0.0
C997 C 0.4911 0.44118 0.65792 0.0
C998 C 0.49428 0.51803 0.68163 0.0
C999 C 0.49275 0.48438 0.65709 0.0
C1000 C 0.49575 0.53982 0.68174 0.0
C1001 C 0.49645 0.55096 0.65804 0.0
C1002 C 0.49358 0.50724 0.65762 0.0
C1003 C 0.49516 0.53942 0.63443 0.0
C1004 C 0.49334 0.47381 0.63337 0.0
C1005 C 0.49075 0.45244 0.68114 0.0
N1006 N 0.49392 0.51819 0.63479 0.0
N1007 N 0.49158 0.47339 0.68013 0.0
H1008 H 0.40182 0.24821 0.27109 0.0
H1009 H 0.4754 0.18848 0.22905 0.0
H1010 H 0.47527 0.27967 0.28977 0.0
H1011 H 0.4024 0.14765 0.25031 0.0
H1012 H 0.47579 0.22393 0.24484 0.0
H1013 H 0.40151 0.21233 0.25758 0.0
C1014 C 0.4178 0.24736 0.27252 0.0
C1015 C 0.43855 0.26665 0.28162 0.0
C1016 C 0.45972 0.20718 0.24602 0.0
C1017 C 0.43854 0.22624 0.26573 0.0
C1018 C 0.45944 0.1871 0.2368 0.0
C1019 C 0.43881 0.1653 0.23839 0.0
C1020 C 0.4391 0.20537 0.25633 0.0
C1021 C 0.41862 0.16422 0.24891 0.0
C1022 C 0.41764 0.22701 0.26486 0.0
C1023 C 0.4589 0.26495 0.28312 0.0
N1024 N 0.4192 0.18403 0.25732 0.0
N1025 N 0.45849 0.24512 0.27491 0.0
H1026 H 0.25665 0.41713 0.27181 0.0
H1027 H 0.16391 0.45549 0.23212 0.0
H1028 H 0.26817 0.46411 0.20711 0.0
H1029 H 0.16968 0.43456 0.31067 0.0
H1030 H 0.19875 0.4535 0.21948 0.0
H1031 H 0.22109 0.41786 0.28297 0.0
C1032 C 0.25184 0.42768 0.25994 0.0
C1033 C 0.26582 0.44092 0.2387 0.0
C1034 C 0.19239 0.44936 0.23947 0.0
C1035 C 0.22467 0.44135 0.25119 0.0
C1036 C 0.17248 0.45035 0.24665 0.0
C1037 C 0.16396 0.44509 0.27245 0.0
C1038 C 0.2036 0.4427 0.25814 0.0
C1039 C 0.17585 0.43887 0.29065 0.0
C1040 C 0.23144 0.428 0.26634 0.0
C1041 C 0.25807 0.45359 0.2236 0.0
N1042 N 0.19503 0.43769 0.2831 0.0
N1043 N 0.23801 0.45352 0.23018 0.0
H1044 H 0.81132 0.25881 0.19919 0.0
H1045 H 0.72788 0.17668 0.3144 0.0
H1046 H 0.82557 0.27476 0.28163 0.0
H1047 H 0.71095 0.1638 0.23199 0.0
H1048 H 0.76398 0.21268 0.30285 0.0
H1049 H 0.77448 0.22367 0.2108 0.0
C1050 C 0.80668 0.25499 0.2197 0.0
C1051 C 0.82167 0.26971 0.23942 0.0
C1052 C 0.75233 0.20194 0.28731 0.0
C1053 C 0.77966 0.22946 0.25292 0.0
C1054 C 0.73168 0.18145 0.29392 0.0
C1055 C 0.71641 0.16708 0.27417 0.0
C1056 C 0.75774 0.2081 0.26075 0.0
C1057 C 0.72236 0.17403 0.24789 0.0
C1058 C 0.7857 0.23488 0.22634 0.0
C1059 C 0.81485 0.26375 0.26573 0.0
N1060 N 0.74254 0.194 0.24197 0.0
N1061 N 0.79439 0.2441 0.27169 0.0
H1062 H 0.54547 0.81184 0.19986 0.0
H1063 H 0.545 0.73024 0.3167 0.0
H1064 H 0.54431 0.82727 0.282 0.0
H1065 H 0.54615 0.71483 0.23455 0.0
H1066 H 0.544 0.76559 0.3044 0.0
H1067 H 0.54499 0.77574 0.21215 0.0
C1068 C 0.54501 0.8076 0.22045 0.0
C1069 C 0.54505 0.82267 0.2399 0.0
C1070 C 0.54449 0.75446 0.28907 0.0
C1071 C 0.54467 0.78153 0.25416 0.0
C1072 C 0.54495 0.73423 0.2961 0.0
C1073 C 0.54579 0.71961 0.27666 0.0
C1074 C 0.54481 0.76006 0.2624 0.0
C1075 C 0.54594 0.72577 0.25023 0.0
C1076 C 0.54485 0.78706 0.22748 0.0
C1077 C 0.54471 0.81642 0.26633 0.0
N1078 N 0.54546 0.74551 0.24389 0.0
N1079 N 0.54453 0.79634 0.27267 0.0
H1080 H 0.71273 0.5423 0.28385 0.0
H1081 H 0.82835 0.54485 0.2315 0.0
H1082 H 0.73015 0.54635 0.20162 0.0
H1083 H 0.81188 0.54471 0.31354 0.0
H1084 H 0.79224 0.54451 0.21993 0.0
H1085 H 0.74852 0.54206 0.29476 0.0
C1086 C 0.72417 0.54333 0.26804 0.0
C1087 C 0.71853 0.54464 0.24174 0.0
C1088 C 0.79653 0.54455 0.24046 0.0
C1089 C 0.75958 0.544 0.25418 0.0
C1090 C 0.81725 0.54491 0.24712 0.0
C1091 C 0.82325 0.54491 0.27359 0.0
C1092 C 0.78165 0.54418 0.26041 0.0
C1093 C 0.80787 0.54449 0.29292 0.0
C1094 C 0.74459 0.54303 0.27431 0.0
C1095 C 0.73378 0.54524 0.22212 0.0
N1096 N 0.78781 0.54417 0.28594 0.0
N1097 N 0.75369 0.54501 0.22874 0.0
H1098 H 0.25714 0.81461 0.31483 0.0
H1099 H 0.17442 0.7318 0.1996 0.0
H1100 H 0.27407 0.82694 0.23239 0.0
H1101 H 0.15881 0.71657 0.28196 0.0
H1102 H 0.21091 0.76711 0.21142 0.0
H1103 H 0.22079 0.77872 0.30344 0.0
C1104 C 0.25327 0.80975 0.29438 0.0
C1105 C 0.26861 0.82392 0.27456 0.0
C1106 C 0.19948 0.75604 0.22691 0.0
C1107 C 0.22707 0.78306 0.26134 0.0
C1108 C 0.17869 0.73582 0.22015 0.0
C1109 C 0.16347 0.72119 0.23978 0.0
C1110 C 0.20514 0.7617 0.25351 0.0
C1111 C 0.16978 0.72747 0.26614 0.0
C1112 C 0.23249 0.78934 0.28787 0.0
C1113 C 0.26261 0.81688 0.24834 0.0
N1114 N 0.19013 0.74724 0.27223 0.0
N1115 N 0.24233 0.79699 0.24252 0.0
H1116 H 0.52549 0.80233 0.81002 0.0
H1117 H 0.5571 0.73531 0.70235 0.0
H1118 H 0.56895 0.83745 0.7426 0.0
H1119 H 0.53949 0.71109 0.7822 0.0
H1120 H 0.55733 0.77145 0.71467 0.0
H1121 H 0.52691 0.76729 0.79845 0.0
C1122 C 0.53548 0.80291 0.79293 0.0
C1123 C 0.54696 0.82309 0.77721 0.0
C1124 C 0.55353 0.75824 0.72948 0.0
C1125 C 0.54817 0.78261 0.76361 0.0
C1126 C 0.55325 0.73765 0.72242 0.0
C1127 C 0.54841 0.72038 0.74134 0.0
C1128 C 0.54851 0.76128 0.75551 0.0
C1129 C 0.54363 0.72416 0.76715 0.0
C1130 C 0.53617 0.78275 0.78628 0.0
C1131 C 0.55938 0.82233 0.75509 0.0
N1132 N 0.54367 0.74417 0.77346 0.0
N1133 N 0.55949 0.80238 0.74885 0.0
H1134 H 0.79976 0.51295 0.72854 0.0
H1135 H 0.74372 0.58983 0.7713 0.0
H1136 H 0.84255 0.58525 0.75134 0.0
H1137 H 0.70986 0.5161 0.78887 0.0
H1138 H 0.77897 0.58884 0.75759 0.0
H1139 H 0.76476 0.51392 0.74367 0.0
C1140 C 0.80167 0.52906 0.73646 0.0
C1141 C 0.82389 0.54908 0.73872 0.0
C1142 C 0.76388 0.57293 0.76466 0.0
C1143 C 0.78435 0.55033 0.75591 0.0
C1144 C 0.74389 0.57351 0.77242 0.0
C1145 C 0.72413 0.55306 0.78132 0.0
C1146 C 0.7638 0.55161 0.76519 0.0
C1147 C 0.72496 0.53225 0.78241 0.0
C1148 C 0.78184 0.52954 0.7453 0.0
C1149 C 0.82564 0.56948 0.74943 0.0
N1150 N 0.74445 0.53196 0.77411 0.0
N1151 N 0.80608 0.56966 0.75748 0.0
H1152 H 0.25542 0.81285 0.69886 0.0
H1153 H 0.17251 0.73123 0.81464 0.0
H1154 H 0.27194 0.82614 0.7813 0.0
H1155 H 0.15734 0.71474 0.73241 0.0
H1156 H 0.20893 0.76648 0.80256 0.0
H1157 H 0.21917 0.77691 0.71045 0.0
C1158 C 0.25148 0.80818 0.71935 0.0
C1159 C 0.26665 0.82264 0.73911 0.0
C1160 C 0.19762 0.75515 0.78715 0.0
C1161 C 0.22525 0.78176 0.75254 0.0
C1162 C 0.17687 0.73496 0.79406 0.0
C1163 C 0.1618 0.72 0.77455 0.0
C1164 C 0.20338 0.76044 0.76051 0.0
C1165 C 0.1682 0.72591 0.74814 0.0
C1166 C 0.23076 0.78775 0.72597 0.0
C1167 C 0.26059 0.81585 0.76539 0.0
N1168 N 0.18851 0.74566 0.74189 0.0
N1169 N 0.24038 0.79594 0.77131 0.0
H1170 H 0.44238 0.1622 0.73116 0.0
H1171 H 0.44827 0.27901 0.78418 0.0
H1172 H 0.44334 0.17863 0.81335 0.0
H1173 H 0.44278 0.26114 0.70197 0.0
H1174 H 0.44756 0.24276 0.79497 0.0
H1175 H 0.4434 0.19863 0.7199 0.0
C1176 C 0.44263 0.17336 0.74688 0.0
C1177 C 0.44267 0.16727 0.7733 0.0
C1178 C 0.44648 0.2467 0.77456 0.0
C1179 C 0.44419 0.20922 0.76046 0.0
C1180 C 0.44673 0.26738 0.76836 0.0
C1181 C 0.44533 0.27303 0.7421 0.0
C1182 C 0.44486 0.2315 0.75438 0.0
C1183 C 0.44401 0.25752 0.72244 0.0
C1184 C 0.44338 0.19426 0.7404 0.0
C1185 C 0.44352 0.18272 0.79276 0.0
N1186 N 0.44373 0.23739 0.72899 0.0
N1187 N 0.44421 0.20297 0.78595 0.0
H1188 H 0.17701 0.44644 0.70009 0.0
H1189 H 0.25805 0.44544 0.81689 0.0
H1190 H 0.16065 0.44649 0.78213 0.0
H1191 H 0.27441 0.44701 0.73462 0.0
H1192 H 0.22255 0.44652 0.80485 0.0
H1193 H 0.21319 0.44724 0.71259 0.0
C1194 C 0.18107 0.44674 0.72072 0.0
C1195 C 0.16571 0.44632 0.74005 0.0
C1196 C 0.23394 0.44662 0.78946 0.0
C1197 C 0.20702 0.44702 0.75458 0.0
C1198 C 0.25423 0.44611 0.79634 0.0
C1199 C 0.26911 0.4459 0.77676 0.0
C1200 C 0.22858 0.447 0.76281 0.0
C1201 C 0.26325 0.44662 0.75039 0.0
C1202 C 0.20168 0.44707 0.72787 0.0
C1203 C 0.17174 0.44641 0.76653 0.0
N1204 N 0.24346 0.44711 0.74422 0.0
N1205 N 0.19192 0.44674 0.77301 0.0
H1206 H 0.71196 0.16153 0.78307 0.0
H1207 H 0.82522 0.2769 0.73121 0.0
H1208 H 0.72891 0.17694 0.70097 0.0
H1209 H 0.81161 0.25852 0.81321 0.0
H1210 H 0.78914 0.24126 0.71989 0.0
H1211 H 0.74744 0.19775 0.7945 0.0
C1212 C 0.72322 0.17242 0.7674 0.0
C1213 C 0.71753 0.16603 0.74096 0.0
C1214 C 0.79402 0.24498 0.74037 0.0
C1215 C 0.75811 0.20783 0.75401 0.0
C1216 C 0.81475 0.26529 0.74688 0.0
C1217 C 0.82162 0.27061 0.77324 0.0
C1218 C 0.77996 0.22983 0.76034 0.0
C1219 C 0.80694 0.25517 0.79268 0.0
C1220 C 0.74343 0.19322 0.77398 0.0
C1221 C 0.73253 0.18123 0.72156 0.0
N1222 N 0.78681 0.23541 0.78583 0.0
N1223 N 0.75218 0.20141 0.72848 0.0
H1224 H 0.42494 0.03197 0.20134 0.0
H1225 H 0.31736 0.94471 0.29109 0.0
H1226 H 0.36959 0.04684 0.21929 0.0
H1227 H 0.38711 0.95409 0.29527 0.0
H1228 H 0.33229 0.97824 0.26071 0.0
H1229 H 0.40626 -0.00224 0.22962 0.0
C1230 C 0.40865 0.02787 0.21098 0.0
C1231 C 0.399 0.04251 0.20822 0.0
C1232 C 0.34423 0.97293 0.26853 0.0
C1233 C 0.37758 0.0033 0.241 0.0
C1234 C 0.3358 0.95393 0.28595 0.0
C1235 C 0.35095 0.94643 0.29567 0.0
C1236 C 0.36781 0.98413 0.26059 0.0
C1237 C 0.37466 0.95902 0.28824 0.0
C1238 C 0.39808 0.00839 0.2273 0.0
C1239 C 0.37765 0.03605 0.22094 0.0
N1240 N 0.38224 0.97701 0.27101 0.0
N1241 N 0.36769 0.01696 0.23704 0.0
H1242 H 0.38615 0.42675 0.20909 0.0
H1243 H 0.36909 0.32066 0.29928 0.0
H1244 H 0.31679 0.37362 0.23341 0.0
H1245 H 0.43148 0.38899 0.29697 0.0
H1246 H 0.34906 0.33585 0.2714 0.0
H1247 H 0.40284 0.4081 0.23556 0.0
C1248 C 0.37436 0.411 0.21983 0.0
C1249 C 0.35002 0.40195 0.21932 0.0
C1250 C 0.36708 0.34742 0.27725 0.0
C1251 C 0.36917 0.3805 0.24998 0.0
C1252 C 0.37848 0.33884 0.29322 0.0
C1253 C 0.40208 0.3535 0.30037 0.0
C1254 C 0.37955 0.37064 0.26819 0.0
C1255 C 0.41339 0.3769 0.29188 0.0
C1256 C 0.38394 0.40042 0.23508 0.0
C1257 C 0.33566 0.38123 0.23335 0.0
N1258 N 0.40212 0.38461 0.27611 0.0
N1259 N 0.34548 0.37123 0.24835 0.0
H1260 H 0.04886 0.37301 0.29577 0.0
H1261 H 0.95667 0.38827 0.21065 0.0
H1262 H 0.03356 0.42911 0.30571 0.0
H1263 H 0.94395 0.31866 0.22762 0.0
H1264 H 0.99058 0.40443 0.23941 0.0
H1265 H 0.01437 0.3529 0.26684 0.0
C1266 C 0.03811 0.38092 0.29226 0.0
C1267 C 0.0443 0.40293 0.303 0.0
C1268 C 0.98044 0.38561 0.2368 0.0
C1269 C 0.00551 0.38042 0.26958 0.0
C1270 C 0.96111 0.37633 0.22022 0.0
C1271 C 0.94717 0.352 0.21698 0.0
C1272 C 0.98617 0.37057 0.25021 0.0
C1273 C 0.95416 0.33752 0.22965 0.0
C1274 C 0.01856 0.3695 0.27567 0.0
C1275 C 0.02975 0.41235 0.29771 0.0
N1276 N 0.97319 0.34703 0.24591 0.0
N1277 N 0.01129 0.40121 0.28115 0.0
H1278 H 0.56363 0.95831 0.20015 0.0
H1279 H 0.59783 0.03269 0.30351 0.0
H1280 H 0.61512 0.94057 0.22667 0.0
H1281 H 0.66833 0.04788 0.28631 0.0
H1282 H 0.58263 -0.00116 0.27468 0.0
H1283 H 0.58171 0.99299 0.22792 0.0
C1284 C 0.57891 0.96183 0.21164 0.0
C1285 C 0.58761 0.94627 0.21148 0.0
C1286 C 0.60144 0.00964 0.27711 0.0
C1287 C 0.60803 0.98572 0.24385 0.0
C1288 C 0.61016 0.02887 0.29379 0.0
C1289 C 0.63444 0.04346 0.29699 0.0
C1290 C 0.61704 0.00484 0.26339 0.0
C1291 C 0.64948 0.03721 0.28423 0.0
C1292 C 0.58906 0.98151 0.22768 0.0
C1293 C 0.60778 0.95204 0.22638 0.0
N1294 N 0.64053 0.01835 0.2678 0.0
N1295 N 0.61726 0.9713 0.24224 0.0
H1296 H 0.61825 0.67167 0.29489 0.0
H1297 H 0.59924 0.5589 0.21774 0.0
H1298 H 0.56151 0.60133 0.30921 0.0
H1299 H 0.66916 0.61803 0.22721 0.0
H1300 H 0.58422 0.57794 0.24604 0.0
H1301 H 0.63719 0.65539 0.26692 0.0
C1302 C 0.60998 0.65285 0.29256 0.0
C1303 C 0.5881 0.63786 0.30417 0.0
C1304 C 0.60287 0.58683 0.24194 0.0
C1305 C 0.60928 0.61938 0.2719 0.0
C1306 C 0.61148 0.57602 0.22559 0.0
C1307 C 0.63559 0.58673 0.22029 0.0
C1308 C 0.61834 0.60867 0.25309 0.0
C1309 C 0.65046 0.6091 0.23086 0.0
C1310 C 0.62072 0.64364 0.2765 0.0
C1311 C 0.57817 0.61364 0.3004 0.0
N1312 N 0.6416 0.61937 0.24691 0.0
N1313 N 0.58867 0.60523 0.28438 0.0
H1314 H 0.95677 0.56268 0.30855 0.0
H1315 H 0.04308 0.67263 0.22234 0.0
H1316 H 0.93973 0.61693 0.29337 0.0
H1317 H 0.03142 0.60262 0.21131 0.0
H1318 H 0.00936 0.65664 0.25264 0.0
H1319 H 0.99027 0.58232 0.27936 0.0
C1320 C 0.96021 0.57891 0.29935 0.0
C1321 C 0.94514 0.58796 0.30315 0.0
C1322 C 0.01419 0.6449 0.24329 0.0
C1323 C 0.98361 0.61052 0.2694 0.0
C1324 C 0.03328 0.65394 0.2259 0.0
C1325 C 0.04028 0.63899 0.21444 0.0
C1326 C 0.00244 0.62092 0.24943 0.0
C1327 C 0.02695 0.61492 0.21986 0.0
C1328 C 0.97929 0.59003 0.28251 0.0
C1329 C 0.95082 0.60929 0.2909 0.0
N1330 N 0.00895 0.60673 0.23717 0.0
N1331 N 0.96959 0.61983 0.27435 0.0
H1332 H 0.61582 0.93962 0.79298 0.0
H1333 H 0.59868 0.03245 0.71131 0.0
H1334 H 0.55916 0.95391 0.80462 0.0
H1335 H 0.66853 0.04428 0.7252 0.0
H1336 H 0.58293 -0.00172 0.73957 0.0
H1337 H 0.63526 0.97428 0.76427 0.0
C1338 C 0.60764 0.95017 0.78988 0.0
C1339 C 0.58568 0.94367 0.80104 0.0
C1340 C 0.60172 0.00828 0.7364 0.0
C1341 C 0.60744 0.98267 0.76789 0.0
C1342 C 0.61075 0.02776 0.7201 0.0
C1343 C 0.63504 0.04152 0.71613 0.0
C1344 C 0.61696 0.00223 0.74881 0.0
C1345 C 0.6497 0.03423 0.72782 0.0
C1346 C 0.61869 0.96982 0.77341 0.0
C1347 C 0.5759 0.95798 0.79627 0.0
N1348 N 0.64043 0.01507 0.74382 0.0
N1349 N 0.58668 0.97656 0.77985 0.0
H1350 H 0.60037 0.56261 0.80431 0.0
H1351 H 0.61893 0.67339 0.723 0.0
H1352 H 0.67024 0.62123 0.79287 0.0
H1353 H 0.56207 0.6027 0.71085 0.0
H1354 H 0.63787 0.65791 0.75214 0.0
H1355 H 0.58503 0.58119 0.77568 0.0
C1356 C 0.61252 0.57953 0.79597 0.0
C1357 C 0.6367 0.5902 0.80073 0.0
C1358 C 0.62137 0.6459 0.74279 0.0
C1359 C 0.61912 0.6116 0.7676 0.0
C1360 C 0.61062 0.65466 0.72607 0.0
C1361 C 0.58873 0.63935 0.71465 0.0
C1362 C 0.60992 0.6218 0.74829 0.0
C1363 C 0.57875 0.61525 0.7194 0.0
C1364 C 0.60373 0.59008 0.77945 0.0
C1365 C 0.65148 0.61236 0.78965 0.0
N1366 N 0.58926 0.60731 0.73605 0.0
N1367 N 0.64246 0.62235 0.77339 0.0
H1368 H 0.028 0.60172 0.80955 0.0
H1369 H 0.9414 0.61843 0.71532 0.0
H1370 H 0.04343 0.67144 0.78833 0.0
H1371 H 0.95341 0.55976 0.71236 0.0
H1372 H 0.97477 0.6383 0.74579 0.0
H1373 H -0.00532 0.58552 0.77985 0.0
C1374 C 0.02421 0.61367 0.7989 0.0
C1375 C 0.03878 0.63801 0.80118 0.0
C1376 C 0.97011 0.62118 0.73816 0.0
C1377 C 0.00056 0.61943 0.76681 0.0
C1378 C 0.95121 0.60989 0.72067 0.0
C1379 C 0.9444 0.58727 0.71142 0.0
C1380 C 0.98188 0.60952 0.74663 0.0
C1381 C 0.95774 0.57704 0.71912 0.0
C1382 C 0.00525 0.60438 0.78177 0.0
C1383 C 0.0327 0.65256 0.78709 0.0
N1384 N 0.97557 0.58809 0.73647 0.0
N1385 N 0.01408 0.64304 0.77027 0.0
H1386 H 0.42369 0.03158 0.8129 0.0
H1387 H 0.38742 0.95645 0.71007 0.0
H1388 H 0.37205 0.04959 0.78769 0.0
H1389 H 0.31749 0.94276 0.72774 0.0
H1390 H 0.40338 0.99042 0.7388 0.0
H1391 H 0.40512 -0.0031 0.78517 0.0
C1392 C 0.40829 0.02813 0.80169 0.0
C1393 C 0.39967 0.04375 0.80223 0.0
C1394 C 0.38453 0.97992 0.73652 0.0
C1395 C 0.37871 0.00433 0.76985 0.0
C1396 C 0.37538 0.96064 0.71988 0.0
C1397 C 0.35103 0.94645 0.71685 0.0
C1398 C 0.36929 0.98515 0.75036 0.0
C1399 C 0.33637 0.95314 0.72969 0.0
C1400 C 0.39787 0.00846 0.78565 0.0
C1401 C 0.37934 0.03807 0.78768 0.0
N1402 N 0.34574 0.97203 0.74608 0.0
N1403 N 0.3696 0.01883 0.77182 0.0
H1404 H 0.31803 0.37171 0.79364 0.0
H1405 H 0.42909 0.39094 0.71195 0.0
H1406 H 0.38798 0.43097 0.80224 0.0
H1407 H 0.37287 0.32075 0.72819 0.0
H1408 H 0.40969 0.40643 0.73903 0.0
H1409 H 0.33417 0.3526 0.76571 0.0
C1410 C 0.33674 0.38055 0.79 0.0
C1411 C 0.35163 0.4031 0.8001 0.0
C1412 C 0.40151 0.38762 0.73664 0.0
C1413 C 0.3699 0.3817 0.76787 0.0
C1414 C 0.41252 0.37873 0.72102 0.0
C1415 C 0.40279 0.35446 0.71806 0.0
C1416 C 0.38045 0.37224 0.74941 0.0
C1417 C 0.38104 0.33959 0.73005 0.0
C1418 C 0.34587 0.3697 0.77399 0.0
C1419 C 0.37572 0.41375 0.79469 0.0
N1420 N 0.37059 0.34872 0.7454 0.0
N1421 N 0.384 0.40309 0.77877 0.0
H1422 H 0.04884 0.37304 0.71965 0.0
H1423 H 0.95462 0.38896 0.79947 0.0
H1424 H 0.0317 0.42724 0.70459 0.0
H1425 H 0.94399 0.31938 0.78783 0.0
H1426 H 0.98826 0.40446 0.7704 0.0
H1427 H 0.01406 0.35327 0.74821 0.0
C1428 C 0.03761 0.38056 0.72192 0.0
C1429 C 0.0434 0.40202 0.70995 0.0
C1430 C 0.97862 0.38579 0.77422 0.0
C1431 C 0.00427 0.37992 0.74292 0.0
C1432 C 0.95946 0.37689 0.79101 0.0
C1433 C 0.9462 0.35274 0.79589 0.0
C1434 C 0.9849 0.37056 0.76226 0.0
C1435 C 0.95366 0.33811 0.78452 0.0
C1436 C 0.01789 0.36934 0.73831 0.0
C1437 C 0.02823 0.41097 0.71366 0.0
N1438 N 0.97255 0.34725 0.76808 0.0
N1439 N 0.00962 0.40007 0.73006 0.0
H1440 H 0.53966 0.15268 0.19121 0.0
H1441 H 0.59999 0.14874 0.32585 0.0
H1442 H 0.50293 0.12904 0.26484 0.0
H1443 H 0.61835 0.13368 0.25002 0.0
H1444 H 0.57268 0.15875 0.30428 0.0
H1445 H 0.57655 0.16289 0.21394 0.0
C1446 C 0.53953 0.15047 0.2123 0.0
C1447 C 0.51834 0.13984 0.22624 0.0
C1448 C 0.58329 0.15398 0.29237 0.0
C1449 C 0.56013 0.1515 0.25215 0.0
C1450 C 0.59894 0.14846 0.30461 0.0
C1451 C 0.6112 0.14029 0.28958 0.0
C1452 C 0.58034 0.15166 0.265 0.0
C1453 C 0.60901 0.1398 0.2622 0.0
C1454 C 0.56049 0.15614 0.22518 0.0
C1455 C 0.51897 0.13701 0.25345 0.0
N1456 N 0.59368 0.1452 0.25075 0.0
N1457 N 0.53951 0.14261 0.26552 0.0
H1458 H 0.44712 0.60599 0.3246 0.0
H1459 H 0.38569 0.54209 0.1902 0.0
H1460 H 0.48315 0.61934 0.25047 0.0
H1461 H 0.36736 0.50878 0.26608 0.0
H1462 H 0.41334 0.57929 0.21168 0.0
H1463 H 0.41002 0.57937 0.30221 0.0
C1464 C 0.44705 0.60396 0.30349 0.0
C1465 C 0.4681 0.61459 0.2893 0.0
C1466 C 0.40268 0.56396 0.22362 0.0
C1467 C 0.42609 0.58453 0.26376 0.0
C1468 C 0.38683 0.54286 0.21143 0.0
C1469 C 0.37447 0.52248 0.22649 0.0
C1470 C 0.40574 0.56458 0.25098 0.0
C1471 C 0.37678 0.52419 0.25387 0.0
C1472 C 0.42598 0.58871 0.2908 0.0
C1473 C 0.46722 0.61122 0.26206 0.0
N1474 N 0.39231 0.54484 0.26527 0.0
N1475 N 0.44657 0.5963 0.25017 0.0
H1476 H 0.8379 0.44614 0.32276 0.0
H1477 H 0.84215 0.38631 0.1879 0.0
H1478 H 0.86299 0.48325 0.24956 0.0
H1479 H 0.85587 0.36671 0.26372 0.0
H1480 H 0.83264 0.4139 0.20958 0.0
H1481 H 0.82758 0.40933 0.29985 0.0
C1482 C 0.84046 0.44638 0.30173 0.0
C1483 C 0.85148 0.46762 0.28796 0.0
C1484 C 0.83699 0.40296 0.22145 0.0
C1485 C 0.83963 0.42595 0.26183 0.0
C1486 C 0.84221 0.38715 0.20914 0.0
C1487 C 0.84988 0.37445 0.22415 0.0
C1488 C 0.83911 0.40565 0.24886 0.0
C1489 C 0.85013 0.37638 0.25156 0.0
C1490 C 0.83471 0.42547 0.28874 0.0
C1491 C 0.85472 0.46716 0.26082 0.0
N1492 N 0.84504 0.39189 0.26307 0.0
N1493 N 0.849 0.44666 0.24863 0.0
H1494 H 0.38507 0.84117 0.3252 0.0
H1495 H 0.44636 0.83849 0.19077 0.0
H1496 H 0.36754 0.85743 0.24955 0.0
H1497 H 0.48239 0.86082 0.26495 0.0
H1498 H 0.40934 0.8284 0.21313 0.0
H1499 H 0.41239 0.83122 0.30357 0.0
C1500 C 0.38631 0.84173 0.30398 0.0
C1501 C 0.37428 0.85023 0.28904 0.0
C1502 C 0.42527 0.83484 0.22456 0.0
C1503 C 0.40516 0.83893 0.26438 0.0
C1504 C 0.44629 0.84046 0.21188 0.0
C1505 C 0.46733 0.85067 0.2261 0.0
C1506 C 0.4254 0.83911 0.25161 0.0
C1507 C 0.46648 0.85317 0.25334 0.0
C1508 C 0.40196 0.83624 0.29171 0.0
C1509 C 0.3767 0.85106 0.26167 0.0
N1510 N 0.44586 0.84762 0.26522 0.0
N1511 N 0.39204 0.8457 0.25019 0.0
H1512 H 0.60386 0.44743 0.19047 0.0
H1513 H 0.54173 0.38296 0.32427 0.0
H1514 H 0.62054 0.48042 0.26656 0.0
H1515 H 0.50708 0.36771 0.24911 0.0
H1516 H 0.579 0.40993 0.30249 0.0
H1517 H 0.57702 0.40978 0.21163 0.0
C1518 C 0.60254 0.44653 0.21169 0.0
C1519 C 0.61416 0.46693 0.22688 0.0
C1520 C 0.56335 0.40007 0.29072 0.0
C1521 C 0.5838 0.4243 0.25102 0.0
C1522 C 0.54218 0.38459 0.30308 0.0
C1523 C 0.52141 0.37336 0.2884 0.0
C1524 C 0.56364 0.40393 0.26355 0.0
C1525 C 0.52277 0.37628 0.26107 0.0
C1526 C 0.58716 0.42515 0.2237 0.0
C1527 C 0.61167 0.46501 0.25424 0.0
N1528 N 0.5435 0.39149 0.24952 0.0
N1529 N 0.59657 0.4441 0.26545 0.0
H1530 H 0.14673 0.60569 0.18992 0.0
H1531 H 0.14856 0.54503 0.32516 0.0
H1532 H 0.12836 0.62261 0.26471 0.0
H1533 H 0.12638 0.50856 0.25126 0.0
H1534 H 0.15823 0.58179 0.30248 0.0
H1535 H 0.15652 0.57858 0.21229 0.0
C1536 C 0.14565 0.60436 0.21113 0.0
C1537 C 0.13662 0.61615 0.2256 0.0
C1538 C 0.15191 0.56582 0.29119 0.0
C1539 C 0.14778 0.58555 0.25107 0.0
C1540 C 0.14654 0.54496 0.30404 0.0
C1541 C 0.13653 0.52389 0.28996 0.0
C1542 C 0.14764 0.56547 0.26412 0.0
C1543 C 0.1339 0.52452 0.26273 0.0
C1544 C 0.15106 0.58883 0.22381 0.0
C1545 C 0.13514 0.61362 0.25296 0.0
N1546 N 0.13926 0.54498 0.25067 0.0
N1547 N 0.14046 0.59842 0.26484 0.0
H1548 H 0.48125 0.85969 0.74991 0.0
H1549 H 0.36328 0.85438 0.76546 0.0
H1550 H 0.44383 0.83746 0.82325 0.0
H1551 H 0.38363 0.8398 0.69058 0.0
H1552 H 0.39004 0.84413 0.78727 0.0
H1553 H 0.44439 0.84871 0.72733 0.0
C1554 C 0.46509 0.85191 0.76112 0.0
C1555 C 0.46546 0.84957 0.78842 0.0
C1556 C 0.38815 0.84243 0.76614 0.0
C1557 C 0.42341 0.83766 0.76294 0.0
C1558 C 0.37288 0.84827 0.75372 0.0
C1559 C 0.37139 0.84794 0.72627 0.0
C1560 C 0.40263 0.8371 0.75089 0.0
C1561 C 0.38426 0.84012 0.71183 0.0
C1562 C 0.44406 0.84559 0.74824 0.0
C1563 C 0.44416 0.83945 0.80213 0.0
N1564 N 0.39989 0.83562 0.72428 0.0
N1565 N 0.42401 0.83443 0.78933 0.0
H1566 H 0.50924 0.37166 0.76623 0.0
H1567 H 0.62438 0.48682 0.74784 0.0
H1568 H 0.54368 0.38913 0.69096 0.0
H1569 H 0.60774 0.45104 0.8223 0.0
H1570 H 0.59773 0.44978 0.72611 0.0
H1571 H 0.54669 0.39807 0.78739 0.0
C1572 C 0.52491 0.38062 0.75427 0.0
C1573 C 0.5235 0.37838 0.72689 0.0
C1574 C 0.60041 0.44982 0.74709 0.0
C1575 C 0.56618 0.40918 0.75076 0.0
C1576 C 0.61561 0.47095 0.75948 0.0
C1577 C 0.61808 0.47188 0.78685 0.0
C1578 C 0.587 0.42969 0.76233 0.0
C1579 C 0.60632 0.45095 0.80111 0.0
C1580 C 0.54628 0.39566 0.76632 0.0
C1581 C 0.54417 0.39037 0.71217 0.0
N1582 N 0.59074 0.43076 0.78877 0.0
N1583 N 0.56462 0.4058 0.72424 0.0
H1584 H 0.12555 0.50651 0.76472 0.0
H1585 H 0.12707 0.62247 0.75044 0.0
H1586 H 0.14794 0.54458 0.69182 0.0
H1587 H 0.14489 0.60411 0.82467 0.0
H1588 H 0.13753 0.59604 0.72823 0.0
H1589 H 0.13529 0.54292 0.78756 0.0
C1590 C 0.13311 0.52273 0.75368 0.0
C1591 C 0.1359 0.52268 0.72643 0.0
C1592 C 0.13984 0.59828 0.74928 0.0
C1593 C 0.14635 0.56414 0.75216 0.0
C1594 C 0.13386 0.61333 0.76193 0.0
C1595 C 0.13514 0.61533 0.78934 0.0
C1596 C 0.14628 0.58453 0.76429 0.0
C1597 C 0.14384 0.60307 0.80346 0.0
C1598 C 0.13872 0.54349 0.7667 0.0
C1599 C 0.14566 0.54403 0.71291 0.0
N1600 N 0.14849 0.58764 0.79083 0.0
N1601 N 0.14996 0.56387 0.72582 0.0
H1602 H 0.50431 0.12939 0.7482 0.0
H1603 H 0.62081 0.13213 0.76513 0.0
H1604 H 0.54122 0.15111 0.82189 0.0
H1605 H 0.60232 0.14844 0.69009 0.0
H1606 H 0.59422 0.14278 0.7866 0.0
H1607 H 0.54124 0.1399 0.72602 0.0
C1608 C 0.52038 0.13699 0.75956 0.0
C1609 C 0.51985 0.13931 0.78684 0.0
C1610 C 0.59647 0.14475 0.76552 0.0
C1611 C 0.56192 0.15063 0.76185 0.0
C1612 C 0.61162 0.13866 0.75329 0.0
C1613 C 0.61359 0.13939 0.72589 0.0
C1614 C 0.58258 0.15075 0.7501 0.0
C1615 C 0.60129 0.14779 0.71131 0.0
C1616 C 0.54145 0.14303 0.74691 0.0
C1617 C 0.54103 0.14915 0.80077 0.0
N1618 N 0.58575 0.15254 0.72355 0.0
N1619 N 0.56118 0.15387 0.78821 0.0
H1620 H 0.36633 0.5083 0.75011 0.0
H1621 H 0.48453 0.62053 0.76641 0.0
H1622 H 0.3861 0.54326 0.825 0.0
H1623 H 0.44755 0.60573 0.69279 0.0
H1624 H 0.4475 0.5947 0.78871 0.0
H1625 H 0.39353 0.54519 0.72842 0.0
C1626 C 0.37592 0.524 0.76187 0.0
C1627 C 0.37411 0.52287 0.7893 0.0
C1628 C 0.44731 0.59757 0.7678 0.0
C1629 C 0.40583 0.56481 0.76483 0.0
C1630 C 0.46844 0.61226 0.75509 0.0
C1631 C 0.46897 0.61508 0.72779 0.0
C1632 C 0.42674 0.58498 0.75294 0.0
C1633 C 0.44775 0.604 0.71392 0.0
C1634 C 0.39143 0.54503 0.74952 0.0
C1635 C 0.38696 0.54354 0.80376 0.0
N1636 N 0.42751 0.58889 0.72655 0.0
N1637 N 0.40282 0.5636 0.7914 0.0
H1638 H 0.86038 0.48435 0.76696 0.0
H1639 H 0.85378 0.36604 0.75068 0.0
H1640 H 0.8356 0.44618 0.69435 0.0
H1641 H 0.84126 0.38695 0.82629 0.0
H1642 H 0.84327 0.39285 0.72956 0.0
H1643 H 0.84981 0.44772 0.78973 0.0
C1644 C 0.8521 0.46809 0.75598 0.0
C1645 C 0.84894 0.46817 0.7288 0.0
C1646 C 0.84208 0.39109 0.75073 0.0
C1647 C 0.83752 0.42639 0.75446 0.0
C1648 C 0.84808 0.3758 0.76275 0.0
C1649 C 0.84836 0.37441 0.79017 0.0
C1650 C 0.83723 0.40571 0.76633 0.0
C1651 C 0.84107 0.38749 0.80505 0.0
C1652 C 0.84603 0.44719 0.76897 0.0
C1653 C 0.83823 0.44674 0.71538 0.0
N1654 N 0.8364 0.40313 0.79295 0.0
N1655 N 0.83347 0.42673 0.72824 0.0
H1656 H 0.47477 0.15025 0.0714 0.0
H1657 H 0.40201 0.09389 0.93952 0.0
H1658 H 0.40331 0.09284 0.07082 0.0
H1659 H 0.47457 0.14887 0.94143 0.0
H1660 H 0.40055 0.09605 0.98739 0.0
H1661 H 0.47318 0.15308 0.02385 0.0
C1662 C 0.45856 0.13848 0.06138 0.0
C1663 C 0.43915 0.12123 0.0753 0.0
C1664 C 0.41672 0.1078 0.97728 0.0
C1665 C 0.43741 0.12407 0.02043 0.0
C1666 C 0.41759 0.10654 0.94993 0.0
C1667 C 0.43848 0.12114 0.93628 0.0
C1668 C 0.43689 0.12374 0.9912 0.0
C1669 C 0.45798 0.13743 0.95091 0.0
C1670 C 0.45775 0.13998 0.03411 0.0
C1671 C 0.41883 0.1062 0.06096 0.0
N1672 N 0.45675 0.13814 0.9775 0.0
N1673 N 0.41855 0.10787 0.03434 0.0
H1674 H 0.35212 0.43973 0.07399 0.0
H1675 H 0.28637 0.43967 0.94147 0.0
H1676 H 0.28668 0.44005 0.07501 0.0
H1677 H 0.35376 0.44358 0.94549 0.0
H1678 H 0.28462 0.43845 0.98976 0.0
H1679 H 0.35111 0.43906 0.02649 0.0
C1680 C 0.33727 0.43928 0.06426 0.0
C1681 C 0.31926 0.43957 0.07873 0.0
C1682 C 0.29968 0.43943 0.97996 0.0
C1683 C 0.31833 0.43946 0.02362 0.0
C1684 C 0.30073 0.44019 0.95241 0.0
C1685 C 0.32008 0.44137 0.93923 0.0
C1686 C 0.31816 0.43996 0.99438 0.0
C1687 C 0.33816 0.44201 0.95452 0.0
C1688 C 0.33684 0.43915 0.03696 0.0
C1689 C 0.30095 0.43983 0.06471 0.0
N1690 N 0.33672 0.44128 0.98109 0.0
N1691 N 0.30093 0.43974 0.03791 0.0
H1692 H 0.84508 0.28526 0.07408 0.0
H1693 H 0.90961 0.35328 0.94219 0.0
H1694 H 0.90931 0.35196 0.07064 0.0
H1695 H 0.84581 0.28613 0.94047 0.0
H1696 H 0.90942 0.35169 0.98962 0.0
H1697 H 0.84442 0.28406 0.02576 0.0
C1698 C 0.85907 0.29957 0.06326 0.0
C1699 C 0.87746 0.31859 0.0766 0.0
C1700 C 0.89546 0.33715 0.97903 0.0
C1701 C 0.87676 0.31733 0.02143 0.0
C1702 C 0.89568 0.33794 0.95175 0.0
C1703 C 0.87792 0.31959 0.93708 0.0
C1704 C 0.87724 0.31796 0.99218 0.0
C1705 C 0.85989 0.30066 0.95092 0.0
C1706 C 0.8587 0.29883 0.0357 0.0
C1707 C 0.89509 0.33661 0.06146 0.0
N1708 N 0.86001 0.3003 0.97772 0.0
N1709 N 0.89425 0.33552 0.03488 0.0
H1710 H 0.58478 0.89561 0.07321 0.0
H1711 H 0.50974 0.84002 0.9426 0.0
H1712 H 0.51192 0.84134 0.07232 0.0
H1713 H 0.58277 0.89392 0.94164 0.0
H1714 H 0.51167 0.83775 0.9901 0.0
H1715 H 0.58566 0.89311 0.02529 0.0
C1716 C 0.56902 0.88305 0.06301 0.0
C1717 C 0.54823 0.86872 0.07696 0.0
C1718 C 0.52736 0.84995 0.97953 0.0
C1719 C 0.54914 0.86574 0.02202 0.0
C1720 C 0.52635 0.85111 0.95225 0.0
C1721 C 0.54613 0.86721 0.93788 0.0
C1722 C 0.54827 0.86508 0.9928 0.0
C1723 C 0.56696 0.88147 0.95183 0.0
C1724 C 0.56956 0.88158 0.03564 0.0
C1725 C 0.52845 0.85256 0.06261 0.0
N1726 N 0.56744 0.88019 0.97849 0.0
N1727 N 0.52936 0.85165 0.03601 0.0
H1728 H 0.63197 0.54709 0.07436 0.0
H1729 H 0.70102 0.55392 0.94204 0.0
H1730 H 0.70032 0.55302 0.0755 0.0
H1731 H 0.63198 0.54623 0.94571 0.0
H1732 H 0.70233 0.55448 0.99033 0.0
H1733 H 0.63313 0.54817 0.02687 0.0
C1734 C 0.64746 0.54899 0.06466 0.0
C1735 C 0.66626 0.55038 0.07916 0.0
C1736 C 0.68699 0.55281 0.98046 0.0
C1737 C 0.66744 0.55099 0.02405 0.0
C1738 C 0.6862 0.55243 0.95291 0.0
C1739 C 0.66649 0.55035 0.93965 0.0
C1740 C 0.66789 0.55098 0.9948 0.0
C1741 C 0.64783 0.54849 0.95485 0.0
C1742 C 0.64801 0.54937 0.03736 0.0
C1743 C 0.68544 0.55193 0.06517 0.0
N1744 N 0.64902 0.54885 0.98143 0.0
N1745 N 0.68557 0.55224 0.03837 0.0
H1746 H 0.08796 0.68683 0.94127 0.0
H1747 H 0.14477 0.67007 0.07256 0.0
H1748 H 0.14324 0.66968 0.94278 0.0
H1749 H 0.08845 0.68576 0.07289 0.0
H1750 H 0.14706 0.67412 0.02503 0.0
H1751 H 0.09015 0.69023 0.98919 0.0
C1752 C 0.10067 0.68394 0.9516 0.0
C1753 C 0.11539 0.67788 0.93781 0.0
C1754 C 0.13431 0.67689 0.03546 0.0
C1755 C 0.11802 0.68182 0.99278 0.0
C1756 C 0.13313 0.67479 0.06276 0.0
C1757 C 0.11637 0.67758 0.07697 0.0
C1758 C 0.11855 0.68168 0.02201 0.0
C1759 C 0.10144 0.68315 0.06283 0.0
C1760 C 0.10196 0.68596 0.97898 0.0
C1761 C 0.13173 0.67468 0.95235 0.0
N1762 N 0.10279 0.68487 0.03616 0.0
N1763 N 0.13247 0.67652 0.97895 0.0
H1764 H 0.83842 0.51025 0.44171 0.0
H1765 H 0.89421 0.58318 0.57343 0.0
H1766 H 0.8931 0.58289 0.44221 0.0
H1767 H 0.83875 0.5109 0.57184 0.0
H1768 H 0.89169 0.58466 0.5256 0.0
H1769 H 0.8356 0.51158 0.48927 0.0
C1770 C 0.84957 0.52665 0.4517 0.0
C1771 C 0.86609 0.54649 0.43773 0.0
C1772 C 0.8799 0.56855 0.53575 0.0
C1773 C 0.8633 0.54793 0.49267 0.0
C1774 C 0.88137 0.56767 0.56308 0.0
C1775 C 0.86675 0.54685 0.57679 0.0
C1776 C 0.86378 0.54843 0.5219 0.0
C1777 C 0.85024 0.52742 0.56227 0.0
C1778 C 0.84808 0.52732 0.479 0.0
C1779 C 0.88035 0.56705 0.45208 0.0
N1780 N 0.84936 0.52864 0.53568 0.0
N1781 N 0.87874 0.56718 0.47872 0.0
H1782 H 0.28521 0.84505 0.43963 0.0
H1783 H 0.35368 0.90869 0.57167 0.0
H1784 H 0.35236 0.90876 0.4432 0.0
H1785 H 0.28562 0.84599 0.57325 0.0
H1786 H 0.35231 0.90841 0.52422 0.0
H1787 H 0.28401 0.84427 0.48796 0.0
C1788 C 0.29961 0.85889 0.45049 0.0
C1789 C 0.31875 0.87718 0.43719 0.0
C1790 C 0.33753 0.89472 0.53478 0.0
C1791 C 0.31751 0.87635 0.49235 0.0
C1792 C 0.3382 0.89499 0.56207 0.0
C1793 C 0.31953 0.87758 0.57669 0.0
C1794 C 0.31811 0.8768 0.52159 0.0
C1795 C 0.30039 0.8598 0.56282 0.0
C1796 C 0.29888 0.85847 0.47805 0.0
C1797 C 0.33692 0.89463 0.45236 0.0
N1798 N 0.30014 0.85988 0.53602 0.0
N1799 N 0.33582 0.89374 0.47893 0.0
H1800 H 0.44544 0.35875 0.44512 0.0
H1801 H 0.43913 0.28869 0.5763 0.0
H1802 H 0.43811 0.28992 0.44271 0.0
H1803 H 0.4429 0.35595 0.57354 0.0
H1804 H 0.43883 0.28791 0.52794 0.0
H1805 H 0.44425 0.35699 0.49257 0.0
C1806 C 0.44321 0.34303 0.45454 0.0
C1807 C 0.44144 0.32426 0.4397 0.0
C1808 C 0.43955 0.30271 0.53804 0.0
C1809 C 0.44068 0.32237 0.49476 0.0
C1810 C 0.43979 0.3032 0.5656 0.0
C1811 C 0.44068 0.32224 0.57911 0.0
C1812 C 0.44044 0.3215 0.52397 0.0
C1813 C 0.44156 0.34058 0.56418 0.0
C1814 C 0.44275 0.34213 0.48181 0.0
C1815 C 0.4395 0.30479 0.45332 0.0
N1816 N 0.44143 0.33973 0.5376 0.0
N1817 N 0.43913 0.30431 0.48011 0.0
H1818 H 0.15108 0.48028 0.44158 0.0
H1819 H 0.0969 0.40651 0.57321 0.0
H1820 H 0.09765 0.40716 0.44197 0.0
H1821 H 0.14956 0.47987 0.57154 0.0
H1822 H 0.09981 0.40513 0.52542 0.0
H1823 H 0.154 0.47898 0.48913 0.0
C1824 C 0.14025 0.46379 0.45154 0.0
C1825 C 0.12403 0.4438 0.43756 0.0
C1826 C 0.11091 0.42146 0.53556 0.0
C1827 C 0.12691 0.44238 0.49247 0.0
C1828 C 0.10921 0.42229 0.56287 0.0
C1829 C 0.12291 0.44337 0.57655 0.0
C1830 C 0.12635 0.44188 0.52171 0.0
C1831 C 0.13881 0.46314 0.56202 0.0
C1832 C 0.14178 0.46313 0.47883 0.0
C1833 C 0.11016 0.4231 0.45186 0.0
N1834 N 0.13993 0.46195 0.53546 0.0
N1835 N 0.1118 0.42298 0.4785 0.0
H1836 H 0.6324 0.08079 0.44256 0.0
H1837 H 0.70167 0.14433 0.5743 0.0
H1838 H 0.69982 0.14427 0.44062 0.0
H1839 H 0.63401 0.08121 0.57097 0.0
H1840 H 0.70253 0.14527 0.52596 0.0
H1841 H 0.6341 0.08104 0.48999 0.0
C1842 C 0.64781 0.09467 0.45208 0.0
C1843 C 0.66621 0.11231 0.43737 0.0
C1844 C 0.68762 0.13117 0.53593 0.0
C1845 C 0.668 0.11305 0.49245 0.0
C1846 C 0.68708 0.13065 0.5635 0.0
C1847 C 0.66791 0.11246 0.57686 0.0
C1848 C 0.66877 0.11347 0.52169 0.0
C1849 C 0.64949 0.09524 0.56176 0.0
C1850 C 0.64866 0.09493 0.47936 0.0
C1851 C 0.68526 0.13029 0.45113 0.0
N1852 N 0.65042 0.0962 0.53518 0.0
N1853 N 0.6857 0.13018 0.47793 0.0
H1854 H 0.51323 0.66877 0.57406 0.0
H1855 H 0.58587 0.68439 0.44235 0.0
H1856 H 0.58559 0.68551 0.57387 0.0
H1857 H 0.51359 0.66783 0.4442 0.0
H1858 H 0.58744 0.68833 0.49021 0.0
H1859 H 0.51459 0.6724 0.52648 0.0
C1860 C 0.52958 0.67365 0.56413 0.0
C1861 C 0.54934 0.67682 0.57821 0.0
C1862 C 0.57132 0.68407 0.48009 0.0
C1863 C 0.5508 0.68042 0.52322 0.0
C1864 C 0.57038 0.68174 0.45275 0.0
C1865 C 0.54954 0.67569 0.43908 0.0
C1866 C 0.55125 0.68024 0.49399 0.0
C1867 C 0.53014 0.6728 0.45369 0.0
C1868 C 0.53027 0.6755 0.53681 0.0
C1869 C 0.56982 0.68258 0.56392 0.0
N1870 N 0.53144 0.67492 0.48026 0.0
N1871 N 0.56997 0.68404 0.53724 0.0
loop_
_geom_bond_atom_site_label_1
_geom_bond_atom_site_label_2
_geom_bond_distance
_geom_bond_site_symmetry_2
_ccdc_geom_bond_type
Co0 N4 2.148 . S
Co0 N10 2.128 . S
Co0 N20 2.194 . S
Co0 O25 2.351 . S
Co0 O26 2.155 . S
Co0 O27 2.096 . S
C1 N4 1.301 . S
C1 N5 1.328 . S
C1 H6 0.930 . S
C2 C3 1.333 . S
C2 N4 1.317 . S
C2 H7 0.930 . S
C3 C2 1.333 . S
C3 N5 1.350 . S
C3 H29 0.931 . S
N4 Co0 2.148 . S
N4 C1 1.301 . S
N4 C2 1.317 . S
N5 C1 1.328 . S
N5 C3 1.350 . S
H6 C1 0.930 . S
H7 C2 0.930 . S
C8 O9 1.224 . S
C8 O27 1.247 . S
O9 C8 1.224 . S
N10 Co0 2.128 . S
N10 C11 1.355 . S
N10 C13 1.311 . S
C11 N10 1.355 . S
C11 C12 1.363 . S
C11 H23 0.929 . S
C12 C11 1.363 . S
C12 N14 1.375 . S
C12 H30 0.931 . S
C13 N10 1.311 . S
C13 N14 1.347 . S
C13 H24 0.929 . S
N14 C12 1.375 . S
N14 C13 1.347 . S
C15 C18 1.365 . S
C15 N20 1.328 . S
C15 H21 0.929 . S
C16 C17 1.362 . S
C16 C19 1.378 . S
C16 H31 0.929 . S
C17 C16 1.362 . S
C17 C18 1.366 . S
C18 C15 1.365 . S
C18 C17 1.366 . S
C18 H32 0.930 . S
C19 C16 1.378 . S
C19 N20 1.315 . S
C19 H22 0.930 . S
N20 Co0 2.194 . S
N20 C15 1.328 . S
N20 C19 1.315 . S
H21 C15 0.929 . S
H22 C19 0.930 . S
H23 C11 0.929 . S
H24 C13 0.929 . S
O25 Co0 2.351 . S
O25 C28 1.244 . S
O26 Co0 2.155 . S
O26 C28 1.240 . S
O27 Co0 2.096 . S
O27 C8 1.247 . S
C28 O25 1.244 . S
C28 O26 1.240 . S
H29 C3 0.931 . S
H30 C12 0.931 . S
H31 C16 0.929 . S
H32 C18 0.930 . S
Co33 N37 2.148 . S
Co33 N43 2.128 . S
Co33 N53 2.194 . S
Co33 O58 2.351 . S
Co33 O59 2.155 . S
Co33 O60 2.096 . S
C34 N37 1.301 . S
C34 N38 1.328 . S
C34 H39 0.930 . S
C35 C36 1.333 . S
C35 N37 1.317 . S
C35 H40 0.930 . S
C36 C35 1.333 . S
C36 N38 1.350 . S
C36 H62 0.931 . S
N37 Co33 2.148 . S
N37 C34 1.301 . S
N37 C35 1.317 . S
N38 C34 1.328 . S
N38 C36 1.350 . S
H39 C34 0.930 . S
H40 C35 0.930 . S
C41 O42 1.224 . S
C41 O60 1.247 . S
O42 C41 1.224 . S
N43 Co33 2.128 . S
N43 C44 1.355 . S
N43 C46 1.311 . S
C44 N43 1.355 . S
C44 C45 1.363 . S
C44 H56 0.929 . S
C45 C44 1.363 . S
C45 N47 1.375 . S
C45 H63 0.931 . S
C46 N43 1.311 . S
C46 N47 1.347 . S
C46 H57 0.929 . S
N47 C45 1.375 . S
N47 C46 1.347 . S
C48 C51 1.365 . S
C48 N53 1.328 . S
C48 H54 0.929 . S
C49 C50 1.362 . S
C49 C52 1.378 . S
C49 H64 0.929 . S
C50 C49 1.362 . S
C50 C51 1.366 . S
C51 C48 1.365 . S
C51 C50 1.366 . S
C51 H65 0.930 . S
C52 C49 1.378 . S
C52 N53 1.315 . S
C52 H55 0.930 . S
N53 Co33 2.194 . S
N53 C48 1.328 . S
N53 C52 1.315 . S
H54 C48 0.929 . S
H55 C52 0.930 . S
H56 C44 0.929 . S
H57 C46 0.929 . S
O58 Co33 2.351 . S
O58 C61 1.244 . S
O59 Co33 2.155 . S
O59 C61 1.240 . S
O60 Co33 2.096 . S
O60 C41 1.247 . S
C61 O58 1.244 . S
C61 O59 1.240 . S
H62 C36 0.931 . S
H63 C45 0.931 . S
H64 C49 0.929 . S
H65 C51 0.930 . S
Co66 N70 2.148 . S
Co66 N76 2.128 . S
Co66 N86 2.194 . S
Co66 O91 2.351 . S
Co66 O92 2.155 . S
Co66 O93 2.096 . S
C67 N70 1.301 . S
C67 N71 1.328 . S
C67 H72 0.930 . S
C68 C69 1.333 . S
C68 N70 1.317 . S
C68 H73 0.930 . S
C69 C68 1.333 . S
C69 N71 1.350 . S
C69 H95 0.931 . S
N70 Co66 2.148 . S
N70 C67 1.301 . S
N70 C68 1.317 . S
N71 C67 1.328 . S
N71 C69 1.350 . S
H72 C67 0.930 . S
H73 C68 0.930 . S
C74 O75 1.224 . S
C74 O93 1.247 . S
O75 C74 1.224 . S
N76 Co66 2.128 . S
N76 C77 1.355 . S
N76 C79 1.311 . S
C77 N76 1.355 . S
C77 C78 1.363 . S
C77 H89 0.929 . S
C78 C77 1.363 . S
C78 N80 1.375 . S
C78 H96 0.931 . S
C79 N76 1.311 . S
C79 N80 1.347 . S
C79 H90 0.929 . S
N80 C78 1.375 . S
N80 C79 1.347 . S
C81 C84 1.365 . S
C81 N86 1.328 . S
C81 H87 0.929 . S
C82 C83 1.362 . S
C82 C85 1.378 . S
C82 H97 0.929 . S
C83 C82 1.362 . S
C83 C84 1.366 . S
C84 C81 1.365 . S
C84 C83 1.366 . S
C84 H98 0.930 . S
C85 C82 1.378 . S
C85 N86 1.315 . S
C85 H88 0.930 . S
N86 Co66 2.194 . S
N86 C81 1.328 . S
N86 C85 1.315 . S
H87 C81 0.929 . S
H88 C85 0.930 . S
H89 C77 0.929 . S
H90 C79 0.929 . S
O91 Co66 2.351 . S
O91 C94 1.244 . S
O92 Co66 2.155 . S
O92 C94 1.240 . S
O93 Co66 2.096 . S
O93 C74 1.247 . S
C94 O91 1.244 . S
C94 O92 1.240 . S
H95 C69 0.931 . S
H96 C78 0.931 . S
H97 C82 0.929 . S
H98 C84 0.930 . S
Co99 N103 2.148 . S
Co99 N109 2.128 . S
Co99 N119 2.194 . S
Co99 O124 2.351 . S
Co99 O125 2.155 . S
Co99 O126 2.096 . S
C100 N103 1.301 . S
C100 N104 1.328 . S
C100 H105 0.930 . S
C101 C102 1.333 . S
C101 N103 1.317 . S
C101 H106 0.930 . S
C102 C101 1.333 . S
C102 N104 1.350 . S
C102 H128 0.931 . S
N103 Co99 2.148 . S
N103 C100 1.301 . S
N103 C101 1.317 . S
N104 C100 1.328 . S
N104 C102 1.350 . S
H105 C100 0.930 . S
H106 C101 0.930 . S
C107 O108 1.224 . S
C107 O126 1.247 . S
O108 C107 1.224 . S
N109 Co99 2.128 . S
N109 C110 1.355 . S
N109 C112 1.311 . S
C110 N109 1.355 . S
C110 C111 1.363 . S
C110 H122 0.929 . S
C111 C110 1.363 . S
C111 N113 1.375 . S
C111 H129 0.931 . S
C112 N109 1.311 . S
C112 N113 1.347 . S
C112 H123 0.929 . S
N113 C111 1.375 . S
N113 C112 1.347 . S
C114 C117 1.365 . S
C114 N119 1.328 . S
C114 H120 0.929 . S
C115 C116 1.362 . S
C115 C118 1.378 . S
C115 H130 0.929 . S
C116 C115 1.362 . S
C116 C117 1.366 . S
C117 C114 1.365 . S
C117 C116 1.366 . S
C117 H131 0.930 . S
C118 C115 1.378 . S
C118 N119 1.315 . S
C118 H121 0.930 . S
N119 Co99 2.194 . S
N119 C114 1.328 . S
N119 C118 1.315 . S
H120 C114 0.929 . S
H121 C118 0.930 . S
H122 C110 0.929 . S
H123 C112 0.929 . S
O124 Co99 2.351 . S
O124 C127 1.244 . S
O125 Co99 2.155 . S
O125 C127 1.240 . S
O126 Co99 2.096 . S
O126 C107 1.247 . S
C127 O124 1.244 . S
C127 O125 1.240 . S
H128 C102 0.931 . S
H129 C111 0.931 . S
H130 C115 0.929 . S
H131 C117 0.930 . S
Co132 N136 2.148 . S
Co132 N142 2.128 . S
Co132 N152 2.194 . S
Co132 O157 2.351 . S
Co132 O158 2.155 . S
Co132 O159 2.096 . S
C133 N136 1.301 . S
C133 N137 1.328 . S
C133 H138 0.930 . S
C134 C135 1.333 . S
C134 N136 1.317 . S
C134 H139 0.930 . S
C135 C134 1.333 . S
C135 N137 1.350 . S
C135 H161 0.931 . S
N136 Co132 2.148 . S
N136 C133 1.301 . S
N136 C134 1.317 . S
N137 C133 1.328 . S
N137 C135 1.350 . S
H138 C133 0.930 . S
H139 C134 0.930 . S
C140 O141 1.224 . S
C140 O159 1.247 . S
O141 C140 1.224 . S
N142 Co132 2.128 . S
N142 C143 1.355 . S
N142 C145 1.311 . S
C143 N142 1.355 . S
C143 C144 1.363 . S
C143 H155 0.929 . S
C144 C143 1.363 . S
C144 N146 1.375 . S
C144 H162 0.931 . S
C145 N142 1.311 . S
C145 N146 1.347 . S
C145 H156 0.929 . S
N146 C144 1.375 . S
N146 C145 1.347 . S
C147 C150 1.365 . S
C147 N152 1.328 . S
C147 H153 0.929 . S
C148 C149 1.362 . S
C148 C151 1.378 . S
C148 H163 0.929 . S
C149 C148 1.362 . S
C149 C150 1.366 . S
C150 C147 1.365 . S
C150 C149 1.366 . S
C150 H164 0.930 . S
C151 C148 1.378 . S
C151 N152 1.315 . S
C151 H154 0.930 . S
N152 Co132 2.194 . S
N152 C147 1.328 . S
N152 C151 1.315 . S
H153 C147 0.929 . S
H154 C151 0.930 . S
H155 C143 0.929 . S
H156 C145 0.929 . S
O157 Co132 2.351 . S
O157 C160 1.244 . S
O158 Co132 2.155 . S
O158 C160 1.240 . S
O159 Co132 2.096 . S
O159 C140 1.247 . S
C160 O157 1.244 . S
C160 O158 1.240 . S
H161 C135 0.931 . S
H162 C144 0.931 . S
H163 C148 0.929 . S
H164 C150 0.930 . S
Co165 N169 2.148 . S
Co165 N175 2.128 . S
Co165 N185 2.194 . S
Co165 O190 2.351 . S
Co165 O191 2.155 . S
Co165 O192 2.096 . S
C166 N169 1.301 . S
C166 N170 1.328 . S
C166 H171 0.930 . S
C167 C168 1.333 . S
C167 N169 1.317 . S
C167 H172 0.930 . S
C168 C167 1.333 . S
C168 N170 1.350 . S
C168 H194 0.931 . S
N169 Co165 2.148 . S
N169 C166 1.301 . S
N169 C167 1.317 . S
N170 C166 1.328 . S
N170 C168 1.350 . S
H171 C166 0.930 . S
H172 C167 0.930 . S
C173 O174 1.224 . S
C173 O192 1.247 . S
O174 C173 1.224 . S
N175 Co165 2.128 . S
N175 C176 1.355 . S
N175 C178 1.311 . S
C176 N175 1.355 . S
C176 C177 1.363 . S
C176 H188 0.929 . S
C177 C176 1.363 . S
C177 N179 1.375 . S
C177 H195 0.931 . S
C178 N175 1.311 . S
C178 N179 1.347 . S
C178 H189 0.929 . S
N179 C177 1.375 . S
N179 C178 1.347 . S
C180 C183 1.365 . S
C180 N185 1.328 . S
C180 H186 0.929 . S
C181 C182 1.362 . S
C181 C184 1.378 . S
C181 H196 0.929 . S
C182 C181 1.362 . S
C182 C183 1.366 . S
C183 C180 1.365 . S
C183 C182 1.366 . S
C183 H197 0.930 . S
C184 C181 1.378 . S
C184 N185 1.315 . S
C184 H187 0.930 . S
N185 Co165 2.194 . S
N185 C180 1.328 . S
N185 C184 1.315 . S
H186 C180 0.929 . S
H187 C184 0.930 . S
H188 C176 0.929 . S
H189 C178 0.929 . S
O190 Co165 2.351 . S
O190 C193 1.244 . S
O191 Co165 2.155 . S
O191 C193 1.240 . S
O192 Co165 2.096 . S
O192 C173 1.247 . S
C193 O190 1.244 . S
C193 O191 1.240 . S
H194 C168 0.931 . S
H195 C177 0.931 . S
H196 C181 0.929 . S
H197 C183 0.930 . S
Co198 N202 2.148 . S
Co198 N208 2.128 . S
Co198 N218 2.194 . S
Co198 O223 2.351 . S
Co198 O224 2.155 . S
Co198 O225 2.096 . S
C199 N202 1.301 . S
C199 N203 1.328 . S
C199 H204 0.930 . S
C200 C201 1.333 . S
C200 N202 1.317 . S
C200 H205 0.930 . S
C201 C200 1.333 . S
C201 N203 1.350 . S
C201 H227 0.931 . S
N202 Co198 2.148 . S
N202 C199 1.301 . S
N202 C200 1.317 . S
N203 C199 1.328 . S
N203 C201 1.350 . S
H204 C199 0.930 . S
H205 C200 0.930 . S
C206 O207 1.224 . S
C206 O225 1.247 . S
O207 C206 1.224 . S
N208 Co198 2.128 . S
N208 C209 1.355 . S
N208 C211 1.311 . S
C209 N208 1.355 . S
C209 C210 1.363 . S
C209 H221 0.929 . S
C210 C209 1.363 . S
C210 N212 1.375 . S
C210 H228 0.931 . S
C211 N208 1.311 . S
C211 N212 1.347 . S
C211 H222 0.929 . S
N212 C210 1.375 . S
N212 C211 1.347 . S
C213 C216 1.365 . S
C213 N218 1.328 . S
C213 H219 0.929 . S
C214 C215 1.362 . S
C214 C217 1.378 . S
C214 H229 0.929 . S
C215 C214 1.362 . S
C215 C216 1.366 . S
C216 C213 1.365 . S
C216 C215 1.366 . S
C216 H230 0.930 . S
C217 C214 1.378 . S
C217 N218 1.315 . S
C217 H220 0.930 . S
N218 Co198 2.194 . S
N218 C213 1.328 . S
N218 C217 1.315 . S
H219 C213 0.929 . S
H220 C217 0.930 . S
H221 C209 0.929 . S
H222 C211 0.929 . S
O223 Co198 2.351 . S
O223 C226 1.244 . S
O224 Co198 2.155 . S
O224 C226 1.240 . S
O225 Co198 2.096 . S
O225 C206 1.247 . S
C226 O223 1.244 . S
C226 O224 1.240 . S
H227 C201 0.931 . S
H228 C210 0.931 . S
H229 C214 0.929 . S
H230 C216 0.930 . S
Co231 N235 2.148 . S
Co231 N241 2.128 . S
Co231 N251 2.194 . S
Co231 O256 2.351 . S
Co231 O257 2.155 . S
Co231 O258 2.096 . S
C232 N235 1.301 . S
C232 N236 1.328 . S
C232 H237 0.930 . S
C233 C234 1.333 . S
C233 N235 1.317 . S
C233 H238 0.930 . S
C234 C233 1.333 . S
C234 N236 1.350 . S
C234 H260 0.931 . S
N235 Co231 2.148 . S
N235 C232 1.301 . S
N235 C233 1.317 . S
N236 C232 1.328 . S
N236 C234 1.350 . S
H237 C232 0.930 . S
H238 C233 0.930 . S
C239 O240 1.224 . S
C239 O258 1.247 . S
O240 C239 1.224 . S
N241 Co231 2.128 . S
N241 C242 1.355 . S
N241 C244 1.311 . S
C242 N241 1.355 . S
C242 C243 1.363 . S
C242 H254 0.929 . S
C243 C242 1.363 . S
C243 N245 1.375 . S
C243 H261 0.931 . S
C244 N241 1.311 . S
C244 N245 1.347 . S
C244 H255 0.929 . S
N245 C243 1.375 . S
N245 C244 1.347 . S
C246 C249 1.365 . S
C246 N251 1.328 . S
C246 H252 0.929 . S
C247 C248 1.362 . S
C247 C250 1.378 . S
C247 H262 0.929 . S
C248 C247 1.362 . S
C248 C249 1.366 . S
C249 C246 1.365 . S
C249 C248 1.366 . S
C249 H263 0.930 . S
C250 C247 1.378 . S
C250 N251 1.315 . S
C250 H253 0.930 . S
N251 Co231 2.194 . S
N251 C246 1.328 . S
N251 C250 1.315 . S
H252 C246 0.929 . S
H253 C250 0.930 . S
H254 C242 0.929 . S
H255 C244 0.929 . S
O256 Co231 2.351 . S
O256 C259 1.244 . S
O257 Co231 2.155 . S
O257 C259 1.240 . S
O258 Co231 2.096 . S
O258 C239 1.247 . S
C259 O256 1.244 . S
C259 O257 1.240 . S
H260 C234 0.931 . S
H261 C243 0.931 . S
H262 C247 0.929 . S
H263 C249 0.930 . S
Co264 N268 2.148 . S
Co264 N274 2.128 . S
Co264 N284 2.194 . S
Co264 O289 2.351 . S
Co264 O290 2.155 . S
Co264 O291 2.096 . S
C265 N268 1.301 . S
C265 N269 1.328 . S
C265 H270 0.930 . S
C266 C267 1.333 . S
C266 N268 1.317 . S
C266 H271 0.930 . S
C267 C266 1.333 . S
C267 N269 1.350 . S
C267 H293 0.931 . S
N268 Co264 2.148 . S
N268 C265 1.301 . S
N268 C266 1.317 . S
N269 C265 1.328 . S
N269 C267 1.350 . S
H270 C265 0.930 . S
H271 C266 0.930 . S
C272 O273 1.224 . S
C272 O291 1.247 . S
O273 C272 1.224 . S
N274 Co264 2.128 . S
N274 C275 1.355 . S
N274 C277 1.311 . S
C275 N274 1.355 . S
C275 C276 1.363 . S
C275 H287 0.929 . S
C276 C275 1.363 . S
C276 N278 1.375 . S
C276 H294 0.931 . S
C277 N274 1.311 . S
C277 N278 1.347 . S
C277 H288 0.929 . S
N278 C276 1.375 . S
N278 C277 1.347 . S
C279 C282 1.365 . S
C279 N284 1.328 . S
C279 H285 0.929 . S
C280 C281 1.362 . S
C280 C283 1.378 . S
C280 H295 0.929 . S
C281 C280 1.362 . S
C281 C282 1.366 . S
C282 C279 1.365 . S
C282 C281 1.366 . S
C282 H296 0.930 . S
C283 C280 1.378 . S
C283 N284 1.315 . S
C283 H286 0.930 . S
N284 Co264 2.194 . S
N284 C279 1.328 . S
N284 C283 1.315 . S
H285 C279 0.929 . S
H286 C283 0.930 . S
H287 C275 0.929 . S
H288 C277 0.929 . S
O289 Co264 2.351 . S
O289 C292 1.244 . S
O290 Co264 2.155 . S
O290 C292 1.240 . S
O291 Co264 2.096 . S
O291 C272 1.247 . S
C292 O289 1.244 . S
C292 O290 1.240 . S
H293 C267 0.931 . S
H294 C276 0.931 . S
H295 C280 0.929 . S
H296 C282 0.930 . S
Co297 N301 2.148 . S
Co297 N307 2.128 . S
Co297 N317 2.194 . S
Co297 O322 2.351 . S
Co297 O323 2.155 . S
Co297 O324 2.096 . S
C298 N301 1.301 . S
C298 N302 1.328 . S
C298 H303 0.930 . S
C299 C300 1.333 . S
C299 N301 1.317 . S
C299 H304 0.930 . S
C300 C299 1.333 . S
C300 N302 1.350 . S
C300 H326 0.931 . S
N301 Co297 2.148 . S
N301 C298 1.301 . S
N301 C299 1.317 . S
N302 C298 1.328 . S
N302 C300 1.350 . S
H303 C298 0.930 . S
H304 C299 0.930 . S
C305 O306 1.224 . S
C305 O324 1.247 . S
O306 C305 1.224 . S
N307 Co297 2.128 . S
N307 C308 1.355 . S
N307 C310 1.311 . S
C308 N307 1.355 . S
C308 C309 1.363 . S
C308 H320 0.929 . S
C309 C308 1.363 . S
C309 N311 1.375 . S
C309 H327 0.931 . S
C310 N307 1.311 . S
C310 N311 1.347 . S
C310 H321 0.929 . S
N311 C309 1.375 . S
N311 C310 1.347 . S
C312 C315 1.365 . S
C312 N317 1.328 . S
C312 H318 0.929 . S
C313 C314 1.362 . S
C313 C316 1.378 . S
C313 H328 0.929 . S
C314 C313 1.362 . S
C314 C315 1.366 . S
C315 C312 1.365 . S
C315 C314 1.366 . S
C315 H329 0.930 . S
C316 C313 1.378 . S
C316 N317 1.315 . S
C316 H319 0.930 . S
N317 Co297 2.194 . S
N317 C312 1.328 . S
N317 C316 1.315 . S
H318 C312 0.929 . S
H319 C316 0.930 . S
H320 C308 0.929 . S
H321 C310 0.929 . S
O322 Co297 2.351 . S
O322 C325 1.244 . S
O323 Co297 2.155 . S
O323 C325 1.240 . S
O324 Co297 2.096 . S
O324 C305 1.247 . S
C325 O322 1.244 . S
C325 O323 1.240 . S
H326 C300 0.931 . S
H327 C309 0.931 . S
H328 C313 0.929 . S
H329 C315 0.930 . S
Co330 N334 2.148 . S
Co330 N340 2.128 . S
Co330 N350 2.194 . S
Co330 O355 2.351 . S
Co330 O356 2.155 . S
Co330 O357 2.096 . S
C331 N334 1.301 . S
C331 N335 1.328 . S
C331 H336 0.930 . S
C332 C333 1.333 . S
C332 N334 1.317 . S
C332 H337 0.930 . S
C333 C332 1.333 . S
C333 N335 1.350 . S
C333 H359 0.931 . S
N334 Co330 2.148 . S
N334 C331 1.301 . S
N334 C332 1.317 . S
N335 C331 1.328 . S
N335 C333 1.350 . S
H336 C331 0.930 . S
H337 C332 0.930 . S
C338 O339 1.224 . S
C338 O357 1.247 . S
O339 C338 1.224 . S
N340 Co330 2.128 . S
N340 C341 1.355 . S
N340 C343 1.311 . S
C341 N340 1.355 . S
C341 C342 1.363 . S
C341 H353 0.929 . S
C342 C341 1.363 . S
C342 N344 1.375 . S
C342 H360 0.931 . S
C343 N340 1.311 . S
C343 N344 1.347 . S
C343 H354 0.929 . S
N344 C342 1.375 . S
N344 C343 1.347 . S
C345 C348 1.365 . S
C345 N350 1.328 . S
C345 H351 0.929 . S
C346 C347 1.362 . S
C346 C349 1.378 . S
C346 H361 0.929 . S
C347 C346 1.362 . S
C347 C348 1.366 . S
C348 C345 1.365 . S
C348 C347 1.366 . S
C348 H362 0.930 . S
C349 C346 1.378 . S
C349 N350 1.315 . S
C349 H352 0.930 . S
N350 Co330 2.194 . S
N350 C345 1.328 . S
N350 C349 1.315 . S
H351 C345 0.929 . S
H352 C349 0.930 . S
H353 C341 0.929 . S
H354 C343 0.929 . S
O355 Co330 2.351 . S
O355 C358 1.244 . S
O356 Co330 2.155 . S
O356 C358 1.240 . S
O357 Co330 2.096 . S
O357 C338 1.247 . S
C358 O355 1.244 . S
C358 O356 1.240 . S
H359 C333 0.931 . S
H360 C342 0.931 . S
H361 C346 0.929 . S
H362 C348 0.930 . S
Co363 N367 2.148 . S
Co363 N373 2.128 . S
Co363 N383 2.194 . S
Co363 O388 2.351 . S
Co363 O389 2.155 . S
Co363 O390 2.096 . S
C364 N367 1.301 . S
C364 N368 1.328 . S
C364 H369 0.930 . S
C365 C366 1.333 . S
C365 N367 1.317 . S
C365 H370 0.930 . S
C366 C365 1.333 . S
C366 N368 1.350 . S
C366 H392 0.931 . S
N367 Co363 2.148 . S
N367 C364 1.301 . S
N367 C365 1.317 . S
N368 C364 1.328 . S
N368 C366 1.350 . S
H369 C364 0.930 . S
H370 C365 0.930 . S
C371 O372 1.224 . S
C371 O390 1.247 . S
O372 C371 1.224 . S
N373 Co363 2.128 . S
N373 C374 1.355 . S
N373 C376 1.311 . S
C374 N373 1.355 . S
C374 C375 1.363 . S
C374 H386 0.929 . S
C375 C374 1.363 . S
C375 N377 1.375 . S
C375 H393 0.931 . S
C376 N373 1.311 . S
C376 N377 1.347 . S
C376 H387 0.929 . S
N377 C375 1.375 . S
N377 C376 1.347 . S
C378 C381 1.365 . S
C378 N383 1.328 . S
C378 H384 0.929 . S
C379 C380 1.362 . S
C379 C382 1.378 . S
C379 H394 0.929 . S
C380 C379 1.362 . S
C380 C381 1.366 . S
C381 C378 1.365 . S
C381 C380 1.366 . S
C381 H395 0.930 . S
C382 C379 1.378 . S
C382 N383 1.315 . S
C382 H385 0.930 . S
N383 Co363 2.194 . S
N383 C378 1.328 . S
N383 C382 1.315 . S
H384 C378 0.929 . S
H385 C382 0.930 . S
H386 C374 0.929 . S
H387 C376 0.929 . S
O388 Co363 2.351 . S
O388 C391 1.244 . S
O389 Co363 2.155 . S
O389 C391 1.240 . S
O390 Co363 2.096 . S
O390 C371 1.247 . S
C391 O388 1.244 . S
C391 O389 1.240 . S
H392 C366 0.931 . S
H393 C375 0.931 . S
H394 C379 0.929 . S
H395 C381 0.930 . S
Co396 N400 2.148 . S
Co396 N406 2.128 . S
Co396 N416 2.194 . S
Co396 O421 2.351 . S
Co396 O422 2.155 . S
Co396 O423 2.096 . S
C397 N400 1.301 . S
C397 N401 1.328 . S
C397 H402 0.930 . S
C398 C399 1.333 . S
C398 N400 1.317 . S
C398 H403 0.930 . S
C399 C398 1.333 . S
C399 N401 1.350 . S
C399 H425 0.931 . S
N400 Co396 2.148 . S
N400 C397 1.301 . S
N400 C398 1.317 . S
N401 C397 1.328 . S
N401 C399 1.350 . S
H402 C397 0.930 . S
H403 C398 0.930 . S
C404 O405 1.224 . S
C404 O423 1.247 . S
O405 C404 1.224 . S
N406 Co396 2.128 . S
N406 C407 1.355 . S
N406 C409 1.311 . S
C407 N406 1.355 . S
C407 C408 1.363 . S
C407 H419 0.929 . S
C408 C407 1.363 . S
C408 N410 1.375 . S
C408 H426 0.931 . S
C409 N406 1.311 . S
C409 N410 1.347 . S
C409 H420 0.929 . S
N410 C408 1.375 . S
N410 C409 1.347 . S
C411 C414 1.365 . S
C411 N416 1.328 . S
C411 H417 0.929 . S
C412 C413 1.362 . S
C412 C415 1.378 . S
C412 H427 0.929 . S
C413 C412 1.362 . S
C413 C414 1.366 . S
C414 C411 1.365 . S
C414 C413 1.366 . S
C414 H428 0.930 . S
C415 C412 1.378 . S
C415 N416 1.315 . S
C415 H418 0.930 . S
N416 Co396 2.194 . S
N416 C411 1.328 . S
N416 C415 1.315 . S
H417 C411 0.929 . S
H418 C415 0.930 . S
H419 C407 0.929 . S
H420 C409 0.929 . S
O421 Co396 2.351 . S
O421 C424 1.244 . S
O422 Co396 2.155 . S
O422 C424 1.240 . S
O423 Co396 2.096 . S
O423 C404 1.247 . S
C424 O421 1.244 . S
C424 O422 1.240 . S
H425 C399 0.931 . S
H426 C408 0.931 . S
H427 C412 0.929 . S
H428 C414 0.930 . S
Co429 N433 2.148 . S
Co429 N439 2.128 . S
Co429 N449 2.194 . S
Co429 O454 2.351 . S
Co429 O455 2.155 . S
Co429 O456 2.096 . S
C430 N433 1.301 . S
C430 N434 1.328 . S
C430 H435 0.930 . S
C431 C432 1.333 . S
C431 N433 1.317 . S
C431 H436 0.930 . S
C432 C431 1.333 . S
C432 N434 1.350 . S
C432 H458 0.931 . S
N433 Co429 2.148 . S
N433 C430 1.301 . S
N433 C431 1.317 . S
N434 C430 1.328 . S
N434 C432 1.350 . S
H435 C430 0.930 . S
H436 C431 0.930 . S
C437 O438 1.224 . S
C437 O456 1.247 . S
O438 C437 1.224 . S
N439 Co429 2.128 . S
N439 C440 1.355 . S
N439 C442 1.311 . S
C440 N439 1.355 . S
C440 C441 1.363 . S
C440 H452 0.929 . S
C441 C440 1.363 . S
C441 N443 1.375 . S
C441 H459 0.931 . S
C442 N439 1.311 . S
C442 N443 1.347 . S
C442 H453 0.929 . S
N443 C441 1.375 . S
N443 C442 1.347 . S
C444 C447 1.365 . S
C444 N449 1.328 . S
C444 H450 0.929 . S
C445 C446 1.362 . S
C445 C448 1.378 . S
C445 H460 0.929 . S
C446 C445 1.362 . S
C446 C447 1.366 . S
C447 C444 1.365 . S
C447 C446 1.366 . S
C447 H461 0.930 . S
C448 C445 1.378 . S
C448 N449 1.315 . S
C448 H451 0.930 . S
N449 Co429 2.194 . S
N449 C444 1.328 . S
N449 C448 1.315 . S
H450 C444 0.929 . S
H451 C448 0.930 . S
H452 C440 0.929 . S
H453 C442 0.929 . S
O454 Co429 2.351 . S
O454 C457 1.244 . S
O455 Co429 2.155 . S
O455 C457 1.240 . S
O456 Co429 2.096 . S
O456 C437 1.247 . S
C457 O454 1.244 . S
C457 O455 1.240 . S
H458 C432 0.931 . S
H459 C441 0.931 . S
H460 C445 0.929 . S
H461 C447 0.930 . S
Co462 N466 2.148 . S
Co462 N472 2.128 . S
Co462 N482 2.194 . S
Co462 O487 2.351 . S
Co462 O488 2.155 . S
Co462 O489 2.096 . S
C463 N466 1.301 . S
C463 N467 1.328 . S
C463 H468 0.930 . S
C464 C465 1.333 . S
C464 N466 1.317 . S
C464 H469 0.930 . S
C465 C464 1.333 . S
C465 N467 1.350 . S
C465 H491 0.931 . S
N466 Co462 2.148 . S
N466 C463 1.301 . S
N466 C464 1.317 . S
N467 C463 1.328 . S
N467 C465 1.350 . S
H468 C463 0.930 . S
H469 C464 0.930 . S
C470 O471 1.224 . S
C470 O489 1.247 . S
O471 C470 1.224 . S
N472 Co462 2.128 . S
N472 C473 1.355 . S
N472 C475 1.311 . S
C473 N472 1.355 . S
C473 C474 1.363 . S
C473 H485 0.929 . S
C474 C473 1.363 . S
C474 N476 1.375 . S
C474 H492 0.931 . S
C475 N472 1.311 . S
C475 N476 1.347 . S
C475 H486 0.929 . S
N476 C474 1.375 . S
N476 C475 1.347 . S
C477 C480 1.365 . S
C477 N482 1.328 . S
C477 H483 0.929 . S
C478 C479 1.362 . S
C478 C481 1.378 . S
C478 H493 0.929 . S
C479 C478 1.362 . S
C479 C480 1.366 . S
C480 C477 1.365 . S
C480 C479 1.366 . S
C480 H494 0.930 . S
C481 C478 1.378 . S
C481 N482 1.315 . S
C481 H484 0.930 . S
N482 Co462 2.194 . S
N482 C477 1.328 . S
N482 C481 1.315 . S
H483 C477 0.929 . S
H484 C481 0.930 . S
H485 C473 0.929 . S
H486 C475 0.929 . S
O487 Co462 2.351 . S
O487 C490 1.244 . S
O488 Co462 2.155 . S
O488 C490 1.240 . S
O489 Co462 2.096 . S
O489 C470 1.247 . S
C490 O487 1.244 . S
C490 O488 1.240 . S
H491 C465 0.931 . S
H492 C474 0.931 . S
H493 C478 0.929 . S
H494 C480 0.930 . S
Co495 N499 2.148 . S
Co495 N505 2.128 . S
Co495 N515 2.194 . S
Co495 O520 2.351 . S
Co495 O521 2.155 . S
Co495 O522 2.096 . S
C496 N499 1.301 . S
C496 N500 1.328 . S
C496 H501 0.930 . S
C497 C498 1.333 . S
C497 N499 1.317 . S
C497 H502 0.930 . S
C498 C497 1.333 . S
C498 N500 1.350 . S
C498 H524 0.931 . S
N499 Co495 2.148 . S
N499 C496 1.301 . S
N499 C497 1.317 . S
N500 C496 1.328 . S
N500 C498 1.350 . S
H501 C496 0.930 . S
H502 C497 0.930 . S
C503 O504 1.224 . S
C503 O522 1.247 . S
O504 C503 1.224 . S
N505 Co495 2.128 . S
N505 C506 1.355 . S
N505 C508 1.311 . S
C506 N505 1.355 . S
C506 C507 1.363 . S
C506 H518 0.929 . S
C507 C506 1.363 . S
C507 N509 1.375 . S
C507 H525 0.931 . S
C508 N505 1.311 . S
C508 N509 1.347 . S
C508 H519 0.929 . S
N509 C507 1.375 . S
N509 C508 1.347 . S
C510 C513 1.365 . S
C510 N515 1.328 . S
C510 H516 0.929 . S
C511 C512 1.362 . S
C511 C514 1.378 . S
C511 H526 0.929 . S
C512 C511 1.362 . S
C512 C513 1.366 . S
C513 C510 1.365 . S
C513 C512 1.366 . S
C513 H527 0.930 . S
C514 C511 1.378 . S
C514 N515 1.315 . S
C514 H517 0.930 . S
N515 Co495 2.194 . S
N515 C510 1.328 . S
N515 C514 1.315 . S
H516 C510 0.929 . S
H517 C514 0.930 . S
H518 C506 0.929 . S
H519 C508 0.929 . S
O520 Co495 2.351 . S
O520 C523 1.244 . S
O521 Co495 2.155 . S
O521 C523 1.240 . S
O522 Co495 2.096 . S
O522 C503 1.247 . S
C523 O520 1.244 . S
C523 O521 1.240 . S
H524 C498 0.931 . S
H525 C507 0.931 . S
H526 C511 0.929 . S
H527 C513 0.930 . S
Co528 N532 2.148 . S
Co528 N538 2.128 . S
Co528 N548 2.194 . S
Co528 O553 2.351 . S
Co528 O554 2.155 . S
Co528 O555 2.096 . S
C529 N532 1.301 . S
C529 N533 1.328 . S
C529 H534 0.930 . S
C530 C531 1.333 . S
C530 N532 1.317 . S
C530 H535 0.930 . S
C531 C530 1.333 . S
C531 N533 1.350 . S
C531 H557 0.931 . S
N532 Co528 2.148 . S
N532 C529 1.301 . S
N532 C530 1.317 . S
N533 C529 1.328 . S
N533 C531 1.350 . S
H534 C529 0.930 . S
H535 C530 0.930 . S
C536 O537 1.224 . S
C536 O555 1.247 . S
O537 C536 1.224 . S
N538 Co528 2.128 . S
N538 C539 1.355 . S
N538 C541 1.311 . S
C539 N538 1.355 . S
C539 C540 1.363 . S
C539 H551 0.929 . S
C540 C539 1.363 . S
C540 N542 1.375 . S
C540 H558 0.931 . S
C541 N538 1.311 . S
C541 N542 1.347 . S
C541 H552 0.929 . S
N542 C540 1.375 . S
N542 C541 1.347 . S
C543 C546 1.365 . S
C543 N548 1.328 . S
C543 H549 0.929 . S
C544 C545 1.362 . S
C544 C547 1.378 . S
C544 H559 0.929 . S
C545 C544 1.362 . S
C545 C546 1.366 . S
C546 C543 1.365 . S
C546 C545 1.366 . S
C546 H560 0.930 . S
C547 C544 1.378 . S
C547 N548 1.315 . S
C547 H550 0.930 . S
N548 Co528 2.194 . S
N548 C543 1.328 . S
N548 C547 1.315 . S
H549 C543 0.929 . S
H550 C547 0.930 . S
H551 C539 0.929 . S
H552 C541 0.929 . S
O553 Co528 2.351 . S
O553 C556 1.244 . S
O554 Co528 2.155 . S
O554 C556 1.240 . S
O555 Co528 2.096 . S
O555 C536 1.247 . S
C556 O553 1.244 . S
C556 O554 1.240 . S
H557 C531 0.931 . S
H558 C540 0.931 . S
H559 C544 0.929 . S
H560 C546 0.930 . S
Co561 N565 2.148 . S
Co561 N571 2.128 . S
Co561 N581 2.194 . S
Co561 O586 2.351 . S
Co561 O587 2.155 . S
Co561 O588 2.096 . S
C562 N565 1.301 . S
C562 N566 1.328 . S
C562 H567 0.930 . S
C563 C564 1.333 . S
C563 N565 1.317 . S
C563 H568 0.930 . S
C564 C563 1.333 . S
C564 N566 1.350 . S
C564 H590 0.931 . S
N565 Co561 2.148 . S
N565 C562 1.301 . S
N565 C563 1.317 . S
N566 C562 1.328 . S
N566 C564 1.350 . S
H567 C562 0.930 . S
H568 C563 0.930 . S
C569 O570 1.224 . S
C569 O588 1.247 . S
O570 C569 1.224 . S
N571 Co561 2.128 . S
N571 C572 1.355 . S
N571 C574 1.311 . S
C572 N571 1.355 . S
C572 C573 1.363 . S
C572 H584 0.929 . S
C573 C572 1.363 . S
C573 N575 1.375 . S
C573 H591 0.931 . S
C574 N571 1.311 . S
C574 N575 1.347 . S
C574 H585 0.929 . S
N575 C573 1.375 . S
N575 C574 1.347 . S
C576 C579 1.365 . S
C576 N581 1.328 . S
C576 H582 0.929 . S
C577 C578 1.362 . S
C577 C580 1.378 . S
C577 H592 0.929 . S
C578 C577 1.362 . S
C578 C579 1.366 . S
C579 C576 1.365 . S
C579 C578 1.366 . S
C579 H593 0.930 . S
C580 C577 1.378 . S
C580 N581 1.315 . S
C580 H583 0.930 . S
N581 Co561 2.194 . S
N581 C576 1.328 . S
N581 C580 1.315 . S
H582 C576 0.929 . S
H583 C580 0.930 . S
H584 C572 0.929 . S
H585 C574 0.929 . S
O586 Co561 2.351 . S
O586 C589 1.244 . S
O587 Co561 2.155 . S
O587 C589 1.240 . S
O588 Co561 2.096 . S
O588 C569 1.247 . S
C589 O586 1.244 . S
C589 O587 1.240 . S
H590 C564 0.931 . S
H591 C573 0.931 . S
H592 C577 0.929 . S
H593 C579 0.930 . S
Co594 N598 2.148 . S
Co594 N604 2.128 . S
Co594 N614 2.194 . S
Co594 O619 2.351 . S
Co594 O620 2.155 . S
Co594 O621 2.096 . S
C595 N598 1.301 . S
C595 N599 1.328 . S
C595 H600 0.930 . S
C596 C597 1.333 . S
C596 N598 1.317 . S
C596 H601 0.930 . S
C597 C596 1.333 . S
C597 N599 1.350 . S
C597 H623 0.931 . S
N598 Co594 2.148 . S
N598 C595 1.301 . S
N598 C596 1.317 . S
N599 C595 1.328 . S
N599 C597 1.350 . S
H600 C595 0.930 . S
H601 C596 0.930 . S
C602 O603 1.224 . S
C602 O621 1.247 . S
O603 C602 1.224 . S
N604 Co594 2.128 . S
N604 C605 1.355 . S
N604 C607 1.311 . S
C605 N604 1.355 . S
C605 C606 1.363 . S
C605 H617 0.929 . S
C606 C605 1.363 . S
C606 N608 1.375 . S
C606 H624 0.931 . S
C607 N604 1.311 . S
C607 N608 1.347 . S
C607 H618 0.929 . S
N608 C606 1.375 . S
N608 C607 1.347 . S
C609 C612 1.365 . S
C609 N614 1.328 . S
C609 H615 0.929 . S
C610 C611 1.362 . S
C610 C613 1.378 . S
C610 H625 0.929 . S
C611 C610 1.362 . S
C611 C612 1.366 . S
C612 C609 1.365 . S
C612 C611 1.366 . S
C612 H626 0.930 . S
C613 C610 1.378 . S
C613 N614 1.315 . S
C613 H616 0.930 . S
N614 Co594 2.194 . S
N614 C609 1.328 . S
N614 C613 1.315 . S
H615 C609 0.929 . S
H616 C613 0.930 . S
H617 C605 0.929 . S
H618 C607 0.929 . S
O619 Co594 2.351 . S
O619 C622 1.244 . S
O620 Co594 2.155 . S
O620 C622 1.240 . S
O621 Co594 2.096 . S
O621 C602 1.247 . S
C622 O619 1.244 . S
C622 O620 1.240 . S
H623 C597 0.931 . S
H624 C606 0.931 . S
H625 C610 0.929 . S
H626 C612 0.930 . S
Co627 N631 2.148 . S
Co627 N637 2.128 . S
Co627 N647 2.194 . S
Co627 O652 2.351 . S
Co627 O653 2.155 . S
Co627 O654 2.096 . S
C628 N631 1.301 . S
C628 N632 1.328 . S
C628 H633 0.930 . S
C629 C630 1.333 . S
C629 N631 1.317 . S
C629 H634 0.930 . S
C630 C629 1.333 . S
C630 N632 1.350 . S
C630 H656 0.931 . S
N631 Co627 2.148 . S
N631 C628 1.301 . S
N631 C629 1.317 . S
N632 C628 1.328 . S
N632 C630 1.350 . S
H633 C628 0.930 . S
H634 C629 0.930 . S
C635 O636 1.224 . S
C635 O654 1.247 . S
O636 C635 1.224 . S
N637 Co627 2.128 . S
N637 C638 1.355 . S
N637 C640 1.311 . S
C638 N637 1.355 . S
C638 C639 1.363 . S
C638 H650 0.929 . S
C639 C638 1.363 . S
C639 N641 1.375 . S
C639 H657 0.931 . S
C640 N637 1.311 . S
C640 N641 1.347 . S
C640 H651 0.929 . S
N641 C639 1.375 . S
N641 C640 1.347 . S
C642 C645 1.365 . S
C642 N647 1.328 . S
C642 H648 0.929 . S
C643 C644 1.362 . S
C643 C646 1.378 . S
C643 H658 0.929 . S
C644 C643 1.362 . S
C644 C645 1.366 . S
C645 C642 1.365 . S
C645 C644 1.366 . S
C645 H659 0.930 . S
C646 C643 1.378 . S
C646 N647 1.315 . S
C646 H649 0.930 . S
N647 Co627 2.194 . S
N647 C642 1.328 . S
N647 C646 1.315 . S
H648 C642 0.929 . S
H649 C646 0.930 . S
H650 C638 0.929 . S
H651 C640 0.929 . S
O652 Co627 2.351 . S
O652 C655 1.244 . S
O653 Co627 2.155 . S
O653 C655 1.240 . S
O654 Co627 2.096 . S
O654 C635 1.247 . S
C655 O652 1.244 . S
C655 O653 1.240 . S
H656 C630 0.931 . S
H657 C639 0.931 . S
H658 C643 0.929 . S
H659 C645 0.930 . S
Co660 N664 2.148 . S
Co660 N670 2.128 . S
Co660 N680 2.194 . S
Co660 O685 2.351 . S
Co660 O686 2.155 . S
Co660 O687 2.096 . S
C661 N664 1.301 . S
C661 N665 1.328 . S
C661 H666 0.930 . S
C662 C663 1.333 . S
C662 N664 1.317 . S
C662 H667 0.930 . S
C663 C662 1.333 . S
C663 N665 1.350 . S
C663 H689 0.931 . S
N664 Co660 2.148 . S
N664 C661 1.301 . S
N664 C662 1.317 . S
N665 C661 1.328 . S
N665 C663 1.350 . S
H666 C661 0.930 . S
H667 C662 0.930 . S
C668 O669 1.224 . S
C668 O687 1.247 . S
O669 C668 1.224 . S
N670 Co660 2.128 . S
N670 C671 1.355 . S
N670 C673 1.311 . S
C671 N670 1.355 . S
C671 C672 1.363 . S
C671 H683 0.929 . S
C672 C671 1.363 . S
C672 N674 1.375 . S
C672 H690 0.931 . S
C673 N670 1.311 . S
C673 N674 1.347 . S
C673 H684 0.929 . S
N674 C672 1.375 . S
N674 C673 1.347 . S
C675 C678 1.365 . S
C675 N680 1.328 . S
C675 H681 0.929 . S
C676 C677 1.362 . S
C676 C679 1.378 . S
C676 H691 0.929 . S
C677 C676 1.362 . S
C677 C678 1.366 . S
C678 C675 1.365 . S
C678 C677 1.366 . S
C678 H692 0.930 . S
C679 C676 1.378 . S
C679 N680 1.315 . S
C679 H682 0.930 . S
N680 Co660 2.194 . S
N680 C675 1.328 . S
N680 C679 1.315 . S
H681 C675 0.929 . S
H682 C679 0.930 . S
H683 C671 0.929 . S
H684 C673 0.929 . S
O685 Co660 2.351 . S
O685 C688 1.244 . S
O686 Co660 2.155 . S
O686 C688 1.240 . S
O687 Co660 2.096 . S
O687 C668 1.247 . S
C688 O685 1.244 . S
C688 O686 1.240 . S
H689 C663 0.931 . S
H690 C672 0.931 . S
H691 C676 0.929 . S
H692 C678 0.930 . S
Co693 N697 2.148 . S
Co693 N703 2.128 . S
Co693 N713 2.194 . S
Co693 O718 2.351 . S
Co693 O719 2.155 . S
Co693 O720 2.096 . S
C694 N697 1.301 . S
C694 N698 1.328 . S
C694 H699 0.930 . S
C695 C696 1.333 . S
C695 N697 1.317 . S
C695 H700 0.930 . S
C696 C695 1.333 . S
C696 N698 1.350 . S
C696 H722 0.931 . S
N697 Co693 2.148 . S
N697 C694 1.301 . S
N697 C695 1.317 . S
N698 C694 1.328 . S
N698 C696 1.350 . S
H699 C694 0.930 . S
H700 C695 0.930 . S
C701 O702 1.224 . S
C701 O720 1.247 . S
O702 C701 1.224 . S
N703 Co693 2.128 . S
N703 C704 1.355 . S
N703 C706 1.311 . S
C704 N703 1.355 . S
C704 C705 1.363 . S
C704 H716 0.929 . S
C705 C704 1.363 . S
C705 N707 1.375 . S
C705 H723 0.931 . S
C706 N703 1.311 . S
C706 N707 1.347 . S
C706 H717 0.929 . S
N707 C705 1.375 . S
N707 C706 1.347 . S
C708 C711 1.365 . S
C708 N713 1.328 . S
C708 H714 0.929 . S
C709 C710 1.362 . S
C709 C712 1.378 . S
C709 H724 0.929 . S
C710 C709 1.362 . S
C710 C711 1.366 . S
C711 C708 1.365 . S
C711 C710 1.366 . S
C711 H725 0.930 . S
C712 C709 1.378 . S
C712 N713 1.315 . S
C712 H715 0.930 . S
N713 Co693 2.194 . S
N713 C708 1.328 . S
N713 C712 1.315 . S
H714 C708 0.929 . S
H715 C712 0.930 . S
H716 C704 0.929 . S
H717 C706 0.929 . S
O718 Co693 2.351 . S
O718 C721 1.244 . S
O719 Co693 2.155 . S
O719 C721 1.240 . S
O720 Co693 2.096 . S
O720 C701 1.247 . S
C721 O718 1.244 . S
C721 O719 1.240 . S
H722 C696 0.931 . S
H723 C705 0.931 . S
H724 C709 0.929 . S
H725 C711 0.930 . S
Co726 N730 2.148 . S
Co726 N736 2.128 . S
Co726 N746 2.194 . S
Co726 O751 2.351 . S
Co726 O752 2.155 . S
Co726 O753 2.096 . S
C727 N730 1.301 . S
C727 N731 1.328 . S
C727 H732 0.930 . S
C728 C729 1.333 . S
C728 N730 1.317 . S
C728 H733 0.930 . S
C729 C728 1.333 . S
C729 N731 1.350 . S
C729 H755 0.931 . S
N730 Co726 2.148 . S
N730 C727 1.301 . S
N730 C728 1.317 . S
N731 C727 1.328 . S
N731 C729 1.350 . S
H732 C727 0.930 . S
H733 C728 0.930 . S
C734 O735 1.224 . S
C734 O753 1.247 . S
O735 C734 1.224 . S
N736 Co726 2.128 . S
N736 C737 1.355 . S
N736 C739 1.311 . S
C737 N736 1.355 . S
C737 C738 1.363 . S
C737 H749 0.929 . S
C738 C737 1.363 . S
C738 N740 1.375 . S
C738 H756 0.931 . S
C739 N736 1.311 . S
C739 N740 1.347 . S
C739 H750 0.929 . S
N740 C738 1.375 . S
N740 C739 1.347 . S
C741 C744 1.365 . S
C741 N746 1.328 . S
C741 H747 0.929 . S
C742 C743 1.362 . S
C742 C745 1.378 . S
C742 H757 0.929 . S
C743 C742 1.362 . S
C743 C744 1.366 . S
C744 C741 1.365 . S
C744 C743 1.366 . S
C744 H758 0.930 . S
C745 C742 1.378 . S
C745 N746 1.315 . S
C745 H748 0.930 . S
N746 Co726 2.194 . S
N746 C741 1.328 . S
N746 C745 1.315 . S
H747 C741 0.929 . S
H748 C745 0.930 . S
H749 C737 0.929 . S
H750 C739 0.929 . S
O751 Co726 2.351 . S
O751 C754 1.244 . S
O752 Co726 2.155 . S
O752 C754 1.240 . S
O753 Co726 2.096 . S
O753 C734 1.247 . S
C754 O751 1.244 . S
C754 O752 1.240 . S
H755 C729 0.931 . S
H756 C738 0.931 . S
H757 C742 0.929 . S
H758 C744 0.930 . S
Co759 N763 2.148 . S
Co759 N769 2.128 . S
Co759 N779 2.194 . S
Co759 O784 2.351 . S
Co759 O785 2.155 . S
Co759 O786 2.096 . S
C760 N763 1.301 . S
C760 N764 1.328 . S
C760 H765 0.930 . S
C761 C762 1.333 . S
C761 N763 1.317 . S
C761 H766 0.930 . S
C762 C761 1.333 . S
C762 N764 1.350 . S
C762 H788 0.931 . S
N763 Co759 2.148 . S
N763 C760 1.301 . S
N763 C761 1.317 . S
N764 C760 1.328 . S
N764 C762 1.350 . S
H765 C760 0.930 . S
H766 C761 0.930 . S
C767 O768 1.224 . S
C767 O786 1.247 . S
O768 C767 1.224 . S
N769 Co759 2.128 . S
N769 C770 1.355 . S
N769 C772 1.311 . S
C770 N769 1.355 . S
C770 C771 1.363 . S
C770 H782 0.929 . S
C771 C770 1.363 . S
C771 N773 1.375 . S
C771 H789 0.931 . S
C772 N769 1.311 . S
C772 N773 1.347 . S
C772 H783 0.929 . S
N773 C771 1.375 . S
N773 C772 1.347 . S
C774 C777 1.365 . S
C774 N779 1.328 . S
C774 H780 0.929 . S
C775 C776 1.362 . S
C775 C778 1.378 . S
C775 H790 0.929 . S
C776 C775 1.362 . S
C776 C777 1.366 . S
C777 C774 1.365 . S
C777 C776 1.366 . S
C777 H791 0.930 . S
C778 C775 1.378 . S
C778 N779 1.315 . S
C778 H781 0.930 . S
N779 Co759 2.194 . S
N779 C774 1.328 . S
N779 C778 1.315 . S
H780 C774 0.929 . S
H781 C778 0.930 . S
H782 C770 0.929 . S
H783 C772 0.929 . S
O784 Co759 2.351 . S
O784 C787 1.244 . S
O785 Co759 2.155 . S
O785 C787 1.240 . S
O786 Co759 2.096 . S
O786 C767 1.247 . S
C787 O784 1.244 . S
C787 O785 1.240 . S
H788 C762 0.931 . S
H789 C771 0.931 . S
H790 C775 0.929 . S
H791 C777 0.930 . S
H792 C798 0.930 . S
H793 C802 0.930 . S
H794 C807 0.929 . S
H795 C805 0.929 . S
H796 C800 0.929 . S
H797 C806 0.929 . S
C798 H792 0.930 . S
C798 C799 1.367 . S
C798 C806 1.378 . S
C799 C798 1.367 . S
C799 C807 1.433 . S
C800 H796 0.929 . S
C800 C802 1.378 . S
C800 C804 1.350 . S
C801 C804 1.463 1_545 S
C801 C806 1.350 . S
C801 N809 1.427 . S
C802 H793 0.930 . S
C802 C800 1.378 . S
C802 C803 1.367 . S
C803 C802 1.367 . S
C803 C805 1.433 . S
C804 C800 1.350 . S
C804 C801 1.463 1_565 S
C804 N808 1.427 . S
C805 H795 0.929 . S
C805 C803 1.433 . S
C805 N808 1.384 . S
C806 H797 0.929 . S
C806 C798 1.378 . S
C806 C801 1.350 . S
C807 H794 0.929 . S
C807 C799 1.433 . S
C807 N809 1.384 . S
N808 C804 1.427 . S
N808 C805 1.384 . S
N809 C801 1.427 . S
N809 C807 1.384 . S
H810 C816 0.930 . S
H811 C820 0.930 . S
H812 C825 0.929 . S
H813 C823 0.929 . S
H814 C818 0.929 . S
H815 C824 0.929 . S
C816 H810 0.930 . S
C816 C817 1.367 . S
C816 C824 1.378 . S
C817 C816 1.367 . S
C817 C825 1.433 . S
C818 H814 0.929 . S
C818 C820 1.378 . S
C818 C822 1.350 . S
C819 C822 1.463 . S
C819 C824 1.350 . S
C819 N827 1.427 . S
C820 H811 0.930 . S
C820 C818 1.378 . S
C820 C821 1.367 . S
C821 C820 1.367 . S
C821 C823 1.433 . S
C822 C818 1.350 . S
C822 C819 1.463 . S
C822 N826 1.427 . S
C823 H813 0.929 . S
C823 C821 1.433 . S
C823 N826 1.384 . S
C824 H815 0.929 . S
C824 C816 1.378 . S
C824 C819 1.350 . S
C825 H812 0.929 . S
C825 C817 1.433 . S
C825 N827 1.384 . S
N826 C822 1.427 . S
N826 C823 1.384 . S
N827 C819 1.427 . S
N827 C825 1.384 . S
H828 C834 0.930 . S
H829 C838 0.930 . S
H830 C843 0.929 . S
H831 C841 0.929 . S
H832 C836 0.929 . S
H833 C842 0.929 . S
C834 H828 0.930 . S
C834 C835 1.367 . S
C834 C842 1.378 . S
C835 C834 1.367 . S
C835 C843 1.433 . S
C836 H832 0.929 . S
C836 C838 1.378 . S
C836 C840 1.350 . S
C837 C840 1.463 1_455 S
C837 C842 1.350 . S
C837 N845 1.427 . S
C838 H829 0.930 . S
C838 C836 1.378 . S
C838 C839 1.367 . S
C839 C838 1.367 . S
C839 C841 1.433 . S
C840 C836 1.350 . S
C840 C837 1.463 1_655 S
C840 N844 1.427 . S
C841 H831 0.929 . S
C841 C839 1.433 . S
C841 N844 1.384 . S
C842 H833 0.929 . S
C842 C834 1.378 . S
C842 C837 1.350 . S
C843 H830 0.929 . S
C843 C835 1.433 . S
C843 N845 1.384 . S
N844 C840 1.427 . S
N844 C841 1.384 . S
N845 C837 1.427 . S
N845 C843 1.384 . S
H846 C852 0.930 . S
H847 C856 0.930 . S
H848 C861 0.929 . S
H849 C859 0.929 . S
H850 C854 0.929 . S
H851 C860 0.929 . S
C852 H846 0.930 . S
C852 C853 1.367 . S
C852 C860 1.378 . S
C853 C852 1.367 . S
C853 C861 1.433 . S
C854 H850 0.929 . S
C854 C856 1.378 . S
C854 C858 1.350 . S
C855 C858 1.463 1_455 S
C855 C860 1.350 . S
C855 N863 1.427 . S
C856 H847 0.930 . S
C856 C854 1.378 . S
C856 C857 1.367 . S
C857 C856 1.367 . S
C857 C859 1.433 . S
C858 C854 1.350 . S
C858 C855 1.463 1_655 S
C858 N862 1.427 . S
C859 H849 0.929 . S
C859 C857 1.433 . S
C859 N862 1.384 . S
C860 H851 0.929 . S
C860 C852 1.378 . S
C860 C855 1.350 . S
C861 H848 0.929 . S
C861 C853 1.433 . S
C861 N863 1.384 . S
N862 C858 1.427 . S
N862 C859 1.384 . S
N863 C855 1.427 . S
N863 C861 1.384 . S
H864 C870 0.930 . S
H865 C874 0.930 . S
H866 C879 0.929 . S
H867 C877 0.929 . S
H868 C872 0.929 1_565 S
H869 C878 0.929 1_545 S
C870 H864 0.930 . S
C870 C871 1.367 . S
C870 C878 1.378 . S
C871 C870 1.367 . S
C871 C879 1.433 . S
C872 H868 0.929 1_545 S
C872 C874 1.378 . S
C872 C876 1.350 . S
C873 C876 1.463 1_565 S
C873 C878 1.350 . S
C873 N881 1.427 . S
C874 H865 0.930 . S
C874 C872 1.378 . S
C874 C875 1.367 . S
C875 C874 1.367 . S
C875 C877 1.433 . S
C876 C872 1.350 . S
C876 C873 1.463 1_545 S
C876 N880 1.427 . S
C877 H867 0.929 . S
C877 C875 1.433 . S
C877 N880 1.384 . S
C878 H869 0.929 1_565 S
C878 C870 1.378 . S
C878 C873 1.350 . S
C879 H866 0.929 . S
C879 C871 1.433 . S
C879 N881 1.384 . S
N880 C876 1.427 . S
N880 C877 1.384 . S
N881 C873 1.427 . S
N881 C879 1.384 . S
H882 C888 0.930 . S
H883 C892 0.930 . S
H884 C897 0.929 . S
H885 C895 0.929 . S
H886 C890 0.929 . S
H887 C896 0.929 . S
C888 H882 0.930 . S
C888 C889 1.367 . S
C888 C896 1.378 . S
C889 C888 1.367 . S
C889 C897 1.433 . S
C890 H886 0.929 . S
C890 C892 1.378 . S
C890 C894 1.350 . S
C891 C894 1.463 . S
C891 C896 1.350 . S
C891 N899 1.427 . S
C892 H883 0.930 . S
C892 C890 1.378 . S
C892 C893 1.367 . S
C893 C892 1.367 . S
C893 C895 1.433 . S
C894 C890 1.350 . S
C894 C891 1.463 . S
C894 N898 1.427 . S
C895 H885 0.929 . S
C895 C893 1.433 . S
C895 N898 1.384 . S
C896 H887 0.929 . S
C896 C888 1.378 . S
C896 C891 1.350 . S
C897 H884 0.929 . S
C897 C889 1.433 . S
C897 N899 1.384 . S
N898 C894 1.427 . S
N898 C895 1.384 . S
N899 C891 1.427 . S
N899 C897 1.384 . S
H900 C906 0.930 . S
H901 C910 0.930 . S
H902 C915 0.929 . S
H903 C913 0.929 . S
H904 C908 0.929 . S
H905 C914 0.929 . S
C906 H900 0.930 . S
C906 C907 1.367 . S
C906 C914 1.378 . S
C907 C906 1.367 . S
C907 C915 1.433 . S
C908 H904 0.929 . S
C908 C910 1.378 . S
C908 C912 1.350 . S
C909 C912 1.463 1_545 S
C909 C914 1.350 . S
C909 N917 1.427 . S
C910 H901 0.930 . S
C910 C908 1.378 . S
C910 C911 1.367 . S
C911 C910 1.367 . S
C911 C913 1.433 . S
C912 C908 1.350 . S
C912 C909 1.463 1_565 S
C912 N916 1.427 . S
C913 H903 0.929 . S
C913 C911 1.433 . S
C913 N916 1.384 . S
C914 H905 0.929 . S
C914 C906 1.378 . S
C914 C909 1.350 . S
C915 H902 0.929 . S
C915 C907 1.433 . S
C915 N917 1.384 . S
N916 C912 1.427 . S
N916 C913 1.384 . S
N917 C909 1.427 . S
N917 C915 1.384 . S
H918 C924 0.930 . S
H919 C928 0.930 . S
H920 C933 0.929 . S
H921 C931 0.929 . S
H922 C926 0.929 . S
H923 C932 0.929 . S
C924 H918 0.930 . S
C924 C925 1.367 . S
C924 C932 1.378 . S
C925 C924 1.367 . S
C925 C933 1.433 . S
C926 H922 0.929 . S
C926 C928 1.378 . S
C926 C930 1.350 . S
C927 C930 1.463 . S
C927 C932 1.350 . S
C927 N935 1.427 . S
C928 H919 0.930 . S
C928 C926 1.378 . S
C928 C929 1.367 . S
C929 C928 1.367 . S
C929 C931 1.433 . S
C930 C926 1.350 . S
C930 C927 1.463 . S
C930 N934 1.427 . S
C931 H921 0.929 . S
C931 C929 1.433 . S
C931 N934 1.384 . S
C932 H923 0.929 . S
C932 C924 1.378 . S
C932 C927 1.350 . S
C933 H920 0.929 . S
C933 C925 1.433 . S
C933 N935 1.384 . S
N934 C930 1.427 . S
N934 C931 1.384 . S
N935 C927 1.427 . S
N935 C933 1.384 . S
H936 C942 0.930 . S
H937 C946 0.930 . S
H938 C951 0.929 . S
H939 C949 0.929 . S
H940 C944 0.929 . S
H941 C950 0.929 . S
C942 H936 0.930 . S
C942 C943 1.367 . S
C942 C950 1.378 . S
C943 C942 1.367 . S
C943 C951 1.433 . S
C944 H940 0.929 . S
C944 C946 1.378 . S
C944 C948 1.350 . S
C945 C948 1.463 1_655 S
C945 C950 1.350 . S
C945 N953 1.427 . S
C946 H937 0.930 . S
C946 C944 1.378 . S
C946 C947 1.367 . S
C947 C946 1.367 . S
C947 C949 1.433 . S
C948 C944 1.350 . S
C948 C945 1.463 1_455 S
C948 N952 1.427 . S
C949 H939 0.929 . S
C949 C947 1.433 . S
C949 N952 1.384 . S
C950 H941 0.929 . S
C950 C942 1.378 . S
C950 C945 1.350 . S
C951 H938 0.929 . S
C951 C943 1.433 . S
C951 N953 1.384 . S
N952 C948 1.427 . S
N952 C949 1.384 . S
N953 C945 1.427 . S
N953 C951 1.384 . S
H954 C960 0.930 . S
H955 C964 0.930 . S
H956 C969 0.929 . S
H957 C967 0.929 . S
H958 C962 0.929 . S
H959 C968 0.929 . S
C960 H954 0.930 . S
C960 C961 1.367 . S
C960 C968 1.378 . S
C961 C960 1.367 . S
C961 C969 1.433 . S
C962 H958 0.929 . S
C962 C964 1.378 . S
C962 C966 1.350 . S
C963 C966 1.463 1_655 S
C963 C968 1.350 . S
C963 N971 1.427 . S
C964 H955 0.930 . S
C964 C962 1.378 . S
C964 C965 1.367 . S
C965 C964 1.367 . S
C965 C967 1.433 . S
C966 C962 1.350 . S
C966 C963 1.463 1_455 S
C966 N970 1.427 . S
C967 H957 0.929 . S
C967 C965 1.433 . S
C967 N970 1.384 . S
C968 H959 0.929 . S
C968 C960 1.378 . S
C968 C963 1.350 . S
C969 H956 0.929 . S
C969 C961 1.433 . S
C969 N971 1.384 . S
N970 C966 1.427 . S
N970 C967 1.384 . S
N971 C963 1.427 . S
N971 C969 1.384 . S
H972 C978 0.930 . S
H973 C982 0.930 . S
H974 C987 0.929 . S
H975 C985 0.929 . S
H976 C980 0.929 . S
H977 C986 0.929 . S
C978 H972 0.930 . S
C978 C979 1.367 . S
C978 C986 1.378 . S
C979 C978 1.367 . S
C979 C987 1.433 . S
C980 H976 0.929 . S
C980 C982 1.378 . S
C980 C984 1.350 . S
C981 C984 1.463 1_545 S
C981 C986 1.350 . S
C981 N989 1.427 . S
C982 H973 0.930 . S
C982 C980 1.378 . S
C982 C983 1.367 . S
C983 C982 1.367 . S
C983 C985 1.433 . S
C984 C980 1.350 . S
C984 C981 1.463 1_565 S
C984 N988 1.427 . S
C985 H975 0.929 . S
C985 C983 1.433 . S
C985 N988 1.384 . S
C986 H977 0.929 . S
C986 C978 1.378 . S
C986 C981 1.350 . S
C987 H974 0.929 . S
C987 C979 1.433 . S
C987 N989 1.384 . S
N988 C984 1.427 . S
N988 C985 1.384 . S
N989 C981 1.427 . S
N989 C987 1.384 . S
H990 C996 0.930 . S
H991 C1000 0.930 . S
H992 C1005 0.929 . S
H993 C1003 0.929 . S
H994 C998 0.929 . S
H995 C1004 0.929 . S
C996 H990 0.930 . S
C996 C997 1.367 . S
C996 C1004 1.378 . S
C997 C996 1.367 . S
C997 C1005 1.433 . S
C998 H994 0.929 . S
C998 C1000 1.378 . S
C998 C1002 1.350 . S
C999 C1002 1.463 . S
C999 C1004 1.350 . S
C999 N1007 1.427 . S
C1000 H991 0.930 . S
C1000 C998 1.378 . S
C1000 C1001 1.367 . S
C1001 C1000 1.367 . S
C1001 C1003 1.433 . S
C1002 C998 1.350 . S
C1002 C999 1.463 . S
C1002 N1006 1.427 . S
C1003 H993 0.929 . S
C1003 C1001 1.433 . S
C1003 N1006 1.384 . S
C1004 H995 0.929 . S
C1004 C996 1.378 . S
C1004 C999 1.350 . S
C1005 H992 0.929 . S
C1005 C997 1.433 . S
C1005 N1007 1.384 . S
N1006 C1002 1.427 . S
N1006 C1003 1.384 . S
N1007 C999 1.427 . S
N1007 C1005 1.384 . S
H1008 C1014 0.930 . S
H1009 C1018 0.930 . S
H1010 C1023 0.929 . S
H1011 C1021 0.929 . S
H1012 C1016 0.929 . S
H1013 C1022 0.929 . S
C1014 H1008 0.930 . S
C1014 C1015 1.367 . S
C1014 C1022 1.378 . S
C1015 C1014 1.367 . S
C1015 C1023 1.433 . S
C1016 H1012 0.929 . S
C1016 C1018 1.378 . S
C1016 C1020 1.350 . S
C1017 C1020 1.463 . S
C1017 C1022 1.350 . S
C1017 N1025 1.427 . S
C1018 H1009 0.930 . S
C1018 C1016 1.378 . S
C1018 C1019 1.367 . S
C1019 C1018 1.367 . S
C1019 C1021 1.433 . S
C1020 C1016 1.350 . S
C1020 C1017 1.463 . S
C1020 N1024 1.427 . S
C1021 H1011 0.929 . S
C1021 C1019 1.433 . S
C1021 N1024 1.384 . S
C1022 H1013 0.929 . S
C1022 C1014 1.378 . S
C1022 C1017 1.350 . S
C1023 H1010 0.929 . S
C1023 C1015 1.433 . S
C1023 N1025 1.384 . S
N1024 C1020 1.427 . S
N1024 C1021 1.384 . S
N1025 C1017 1.427 . S
N1025 C1023 1.384 . S
H1026 C1032 0.930 . S
H1027 C1036 0.930 . S
H1028 C1041 0.929 . S
H1029 C1039 0.929 . S
H1030 C1034 0.929 . S
H1031 C1040 0.929 . S
C1032 H1026 0.930 . S
C1032 C1033 1.367 . S
C1032 C1040 1.378 . S
C1033 C1032 1.367 . S
C1033 C1041 1.433 . S
C1034 H1030 0.929 . S
C1034 C1036 1.378 . S
C1034 C1038 1.350 . S
C1035 C1038 1.463 . S
C1035 C1040 1.350 . S
C1035 N1043 1.427 . S
C1036 H1027 0.930 . S
C1036 C1034 1.378 . S
C1036 C1037 1.367 . S
C1037 C1036 1.367 . S
C1037 C1039 1.433 . S
C1038 C1034 1.350 . S
C1038 C1035 1.463 . S
C1038 N1042 1.427 . S
C1039 H1029 0.929 . S
C1039 C1037 1.433 . S
C1039 N1042 1.384 . S
C1040 H1031 0.929 . S
C1040 C1032 1.378 . S
C1040 C1035 1.350 . S
C1041 H1028 0.929 . S
C1041 C1033 1.433 . S
C1041 N1043 1.384 . S
N1042 C1038 1.427 . S
N1042 C1039 1.384 . S
N1043 C1035 1.427 . S
N1043 C1041 1.384 . S
H1044 C1050 0.930 . S
H1045 C1054 0.930 . S
H1046 C1059 0.929 . S
H1047 C1057 0.929 . S
H1048 C1052 0.929 . S
H1049 C1058 0.929 . S
C1050 H1044 0.930 . S
C1050 C1051 1.367 . S
C1050 C1058 1.378 . S
C1051 C1050 1.367 . S
C1051 C1059 1.433 . S
C1052 H1048 0.929 . S
C1052 C1054 1.378 . S
C1052 C1056 1.350 . S
C1053 C1056 1.463 . S
C1053 C1058 1.350 . S
C1053 N1061 1.427 . S
C1054 H1045 0.930 . S
C1054 C1052 1.378 . S
C1054 C1055 1.367 . S
C1055 C1054 1.367 . S
C1055 C1057 1.433 . S
C1056 C1052 1.350 . S
C1056 C1053 1.463 . S
C1056 N1060 1.427 . S
C1057 H1047 0.929 . S
C1057 C1055 1.433 . S
C1057 N1060 1.384 . S
C1058 H1049 0.929 . S
C1058 C1050 1.378 . S
C1058 C1053 1.350 . S
C1059 H1046 0.929 . S
C1059 C1051 1.433 . S
C1059 N1061 1.384 . S
N1060 C1056 1.427 . S
N1060 C1057 1.384 . S
N1061 C1053 1.427 . S
N1061 C1059 1.384 . S
H1062 C1068 0.930 . S
H1063 C1072 0.930 . S
H1064 C1077 0.929 . S
H1065 C1075 0.929 . S
H1066 C1070 0.929 . S
H1067 C1076 0.929 . S
C1068 H1062 0.930 . S
C1068 C1069 1.367 . S
C1068 C1076 1.378 . S
C1069 C1068 1.367 . S
C1069 C1077 1.433 . S
C1070 H1066 0.929 . S
C1070 C1072 1.378 . S
C1070 C1074 1.350 . S
C1071 C1074 1.463 . S
C1071 C1076 1.350 . S
C1071 N1079 1.427 . S
C1072 H1063 0.930 . S
C1072 C1070 1.378 . S
C1072 C1073 1.367 . S
C1073 C1072 1.367 . S
C1073 C1075 1.433 . S
C1074 C1070 1.350 . S
C1074 C1071 1.463 . S
C1074 N1078 1.427 . S
C1075 H1065 0.929 . S
C1075 C1073 1.433 . S
C1075 N1078 1.384 . S
C1076 H1067 0.929 . S
C1076 C1068 1.378 . S
C1076 C1071 1.350 . S
C1077 H1064 0.929 . S
C1077 C1069 1.433 . S
C1077 N1079 1.384 . S
N1078 C1074 1.427 . S
N1078 C1075 1.384 . S
N1079 C1071 1.427 . S
N1079 C1077 1.384 . S
H1080 C1086 0.930 . S
H1081 C1090 0.930 . S
H1082 C1095 0.929 . S
H1083 C1093 0.929 . S
H1084 C1088 0.929 . S
H1085 C1094 0.929 . S
C1086 H1080 0.930 . S
C1086 C1087 1.367 . S
C1086 C1094 1.378 . S
C1087 C1086 1.367 . S
C1087 C1095 1.433 . S
C1088 H1084 0.929 . S
C1088 C1090 1.378 . S
C1088 C1092 1.350 . S
C1089 C1092 1.463 . S
C1089 C1094 1.350 . S
C1089 N1097 1.427 . S
C1090 H1081 0.930 . S
C1090 C1088 1.378 . S
C1090 C1091 1.367 . S
C1091 C1090 1.367 . S
C1091 C1093 1.433 . S
C1092 C1088 1.350 . S
C1092 C1089 1.463 . S
C1092 N1096 1.427 . S
C1093 H1083 0.929 . S
C1093 C1091 1.433 . S
C1093 N1096 1.384 . S
C1094 H1085 0.929 . S
C1094 C1086 1.378 . S
C1094 C1089 1.350 . S
C1095 H1082 0.929 . S
C1095 C1087 1.433 . S
C1095 N1097 1.384 . S
N1096 C1092 1.427 . S
N1096 C1093 1.384 . S
N1097 C1089 1.427 . S
N1097 C1095 1.384 . S
H1098 C1104 0.930 . S
H1099 C1108 0.930 . S
H1100 C1113 0.929 . S
H1101 C1111 0.929 . S
H1102 C1106 0.929 . S
H1103 C1112 0.929 . S
C1104 H1098 0.930 . S
C1104 C1105 1.367 . S
C1104 C1112 1.378 . S
C1105 C1104 1.367 . S
C1105 C1113 1.433 . S
C1106 H1102 0.929 . S
C1106 C1108 1.378 . S
C1106 C1110 1.350 . S
C1107 C1110 1.463 . S
C1107 C1112 1.350 . S
C1107 N1115 1.427 . S
C1108 H1099 0.930 . S
C1108 C1106 1.378 . S
C1108 C1109 1.367 . S
C1109 C1108 1.367 . S
C1109 C1111 1.433 . S
C1110 C1106 1.350 . S
C1110 C1107 1.463 . S
C1110 N1114 1.427 . S
C1111 H1101 0.929 . S
C1111 C1109 1.433 . S
C1111 N1114 1.384 . S
C1112 H1103 0.929 . S
C1112 C1104 1.378 . S
C1112 C1107 1.350 . S
C1113 H1100 0.929 . S
C1113 C1105 1.433 . S
C1113 N1115 1.384 . S
N1114 C1110 1.427 . S
N1114 C1111 1.384 . S
N1115 C1107 1.427 . S
N1115 C1113 1.384 . S
H1116 C1122 0.930 . S
H1117 C1126 0.930 . S
H1118 C1131 0.929 . S
H1119 C1129 0.929 . S
H1120 C1124 0.929 . S
H1121 C1130 0.929 . S
C1122 H1116 0.930 . S
C1122 C1123 1.367 . S
C1122 C1130 1.378 . S
C1123 C1122 1.367 . S
C1123 C1131 1.433 . S
C1124 H1120 0.929 . S
C1124 C1126 1.378 . S
C1124 C1128 1.350 . S
C1125 C1128 1.463 . S
C1125 C1130 1.350 . S
C1125 N1133 1.427 . S
C1126 H1117 0.930 . S
C1126 C1124 1.378 . S
C1126 C1127 1.367 . S
C1127 C1126 1.367 . S
C1127 C1129 1.433 . S
C1128 C1124 1.350 . S
C1128 C1125 1.463 . S
C1128 N1132 1.427 . S
C1129 H1119 0.929 . S
C1129 C1127 1.433 . S
C1129 N1132 1.384 . S
C1130 H1121 0.929 . S
C1130 C1122 1.378 . S
C1130 C1125 1.350 . S
C1131 H1118 0.929 . S
C1131 C1123 1.433 . S
C1131 N1133 1.384 . S
N1132 C1128 1.427 . S
N1132 C1129 1.384 . S
N1133 C1125 1.427 . S
N1133 C1131 1.384 . S
H1134 C1140 0.930 . S
H1135 C1144 0.930 . S
H1136 C1149 0.929 . S
H1137 C1147 0.929 . S
H1138 C1142 0.929 . S
H1139 C1148 0.929 . S
C1140 H1134 0.930 . S
C1140 C1141 1.367 . S
C1140 C1148 1.378 . S
C1141 C1140 1.367 . S
C1141 C1149 1.433 . S
C1142 H1138 0.929 . S
C1142 C1144 1.378 . S
C1142 C1146 1.350 . S
C1143 C1146 1.463 . S
C1143 C1148 1.350 . S
C1143 N1151 1.427 . S
C1144 H1135 0.930 . S
C1144 C1142 1.378 . S
C1144 C1145 1.367 . S
C1145 C1144 1.367 . S
C1145 C1147 1.433 . S
C1146 C1142 1.350 . S
C1146 C1143 1.463 . S
C1146 N1150 1.427 . S
C1147 H1137 0.929 . S
C1147 C1145 1.433 . S
C1147 N1150 1.384 . S
C1148 H1139 0.929 . S
C1148 C1140 1.378 . S
C1148 C1143 1.350 . S
C1149 H1136 0.929 . S
C1149 C1141 1.433 . S
C1149 N1151 1.384 . S
N1150 C1146 1.427 . S
N1150 C1147 1.384 . S
N1151 C1143 1.427 . S
N1151 C1149 1.384 . S
H1152 C1158 0.930 . S
H1153 C1162 0.930 . S
H1154 C1167 0.929 . S
H1155 C1165 0.929 . S
H1156 C1160 0.929 . S
H1157 C1166 0.929 . S
C1158 H1152 0.930 . S
C1158 C1159 1.367 . S
C1158 C1166 1.378 . S
C1159 C1158 1.367 . S
C1159 C1167 1.433 . S
C1160 H1156 0.929 . S
C1160 C1162 1.378 . S
C1160 C1164 1.350 . S
C1161 C1164 1.463 . S
C1161 C1166 1.350 . S
C1161 N1169 1.427 . S
C1162 H1153 0.930 . S
C1162 C1160 1.378 . S
C1162 C1163 1.367 . S
C1163 C1162 1.367 . S
C1163 C1165 1.433 . S
C1164 C1160 1.350 . S
C1164 C1161 1.463 . S
C1164 N1168 1.427 . S
C1165 H1155 0.929 . S
C1165 C1163 1.433 . S
C1165 N1168 1.384 . S
C1166 H1157 0.929 . S
C1166 C1158 1.378 . S
C1166 C1161 1.350 . S
C1167 H1154 0.929 . S
C1167 C1159 1.433 . S
C1167 N1169 1.384 . S
N1168 C1164 1.427 . S
N1168 C1165 1.384 . S
N1169 C1161 1.427 . S
N1169 C1167 1.384 . S
H1170 C1176 0.930 . S
H1171 C1180 0.930 . S
H1172 C1185 0.929 . S
H1173 C1183 0.929 . S
H1174 C1178 0.929 . S
H1175 C1184 0.929 . S
C1176 H1170 0.930 . S
C1176 C1177 1.367 . S
C1176 C1184 1.378 . S
C1177 C1176 1.367 . S
C1177 C1185 1.433 . S
C1178 H1174 0.929 . S
C1178 C1180 1.378 . S
C1178 C1182 1.350 . S
C1179 C1182 1.463 . S
C1179 C1184 1.350 . S
C1179 N1187 1.427 . S
C1180 H1171 0.930 . S
C1180 C1178 1.378 . S
C1180 C1181 1.367 . S
C1181 C1180 1.367 . S
C1181 C1183 1.433 . S
C1182 C1178 1.350 . S
C1182 C1179 1.463 . S
C1182 N1186 1.427 . S
C1183 H1173 0.929 . S
C1183 C1181 1.433 . S
C1183 N1186 1.384 . S
C1184 H1175 0.929 . S
C1184 C1176 1.378 . S
C1184 C1179 1.350 . S
C1185 H1172 0.929 . S
C1185 C1177 1.433 . S
C1185 N1187 1.384 . S
N1186 C1182 1.427 . S
N1186 C1183 1.384 . S
N1187 C1179 1.427 . S
N1187 C1185 1.384 . S
H1188 C1194 0.930 . S
H1189 C1198 0.930 . S
H1190 C1203 0.929 . S
H1191 C1201 0.929 . S
H1192 C1196 0.929 . S
H1193 C1202 0.929 . S
C1194 H1188 0.930 . S
C1194 C1195 1.367 . S
C1194 C1202 1.378 . S
C1195 C1194 1.367 . S
C1195 C1203 1.433 . S
C1196 H1192 0.929 . S
C1196 C1198 1.378 . S
C1196 C1200 1.350 . S
C1197 C1200 1.463 . S
C1197 C1202 1.350 . S
C1197 N1205 1.427 . S
C1198 H1189 0.930 . S
C1198 C1196 1.378 . S
C1198 C1199 1.367 . S
C1199 C1198 1.367 . S
C1199 C1201 1.433 . S
C1200 C1196 1.350 . S
C1200 C1197 1.463 . S
C1200 N1204 1.427 . S
C1201 H1191 0.929 . S
C1201 C1199 1.433 . S
C1201 N1204 1.384 . S
C1202 H1193 0.929 . S
C1202 C1194 1.378 . S
C1202 C1197 1.350 . S
C1203 H1190 0.929 . S
C1203 C1195 1.433 . S
C1203 N1205 1.384 . S
N1204 C1200 1.427 . S
N1204 C1201 1.384 . S
N1205 C1197 1.427 . S
N1205 C1203 1.384 . S
H1206 C1212 0.930 . S
H1207 C1216 0.930 . S
H1208 C1221 0.929 . S
H1209 C1219 0.929 . S
H1210 C1214 0.929 . S
H1211 C1220 0.929 . S
C1212 H1206 0.930 . S
C1212 C1213 1.367 . S
C1212 C1220 1.378 . S
C1213 C1212 1.367 . S
C1213 C1221 1.433 . S
C1214 H1210 0.929 . S
C1214 C1216 1.378 . S
C1214 C1218 1.350 . S
C1215 C1218 1.463 . S
C1215 C1220 1.350 . S
C1215 N1223 1.427 . S
C1216 H1207 0.930 . S
C1216 C1214 1.378 . S
C1216 C1217 1.367 . S
C1217 C1216 1.367 . S
C1217 C1219 1.433 . S
C1218 C1214 1.350 . S
C1218 C1215 1.463 . S
C1218 N1222 1.427 . S
C1219 H1209 0.929 . S
C1219 C1217 1.433 . S
C1219 N1222 1.384 . S
C1220 H1211 0.929 . S
C1220 C1212 1.378 . S
C1220 C1215 1.350 . S
C1221 H1208 0.929 . S
C1221 C1213 1.433 . S
C1221 N1223 1.384 . S
N1222 C1218 1.427 . S
N1222 C1219 1.384 . S
N1223 C1215 1.427 . S
N1223 C1221 1.384 . S
H1224 C1230 0.930 . S
H1225 C1234 0.930 . S
H1226 C1239 0.929 . S
H1227 C1237 0.929 . S
H1228 C1232 0.929 1_545 S
H1229 C1238 0.929 1_565 S
C1230 H1224 0.930 . S
C1230 C1231 1.367 . S
C1230 C1238 1.378 . S
C1231 C1230 1.367 . S
C1231 C1239 1.433 . S
C1232 H1228 0.929 1_565 S
C1232 C1234 1.378 . S
C1232 C1236 1.350 . S
C1233 C1236 1.463 1_545 S
C1233 C1238 1.350 . S
C1233 N1241 1.427 . S
C1234 H1225 0.930 . S
C1234 C1232 1.378 . S
C1234 C1235 1.367 . S
C1235 C1234 1.367 . S
C1235 C1237 1.433 . S
C1236 C1232 1.350 . S
C1236 C1233 1.463 1_565 S
C1236 N1240 1.427 . S
C1237 H1227 0.929 . S
C1237 C1235 1.433 . S
C1237 N1240 1.384 . S
C1238 H1229 0.929 1_545 S
C1238 C1230 1.378 . S
C1238 C1233 1.350 . S
C1239 H1226 0.929 . S
C1239 C1231 1.433 . S
C1239 N1241 1.384 . S
N1240 C1236 1.427 . S
N1240 C1237 1.384 . S
N1241 C1233 1.427 . S
N1241 C1239 1.384 . S
H1242 C1248 0.930 . S
H1243 C1252 0.930 . S
H1244 C1257 0.929 . S
H1245 C1255 0.929 . S
H1246 C1250 0.929 . S
H1247 C1256 0.929 . S
C1248 H1242 0.930 . S
C1248 C1249 1.367 . S
C1248 C1256 1.378 . S
C1249 C1248 1.367 . S
C1249 C1257 1.433 . S
C1250 H1246 0.929 . S
C1250 C1252 1.378 . S
C1250 C1254 1.350 . S
C1251 C1254 1.463 . S
C1251 C1256 1.350 . S
C1251 N1259 1.427 . S
C1252 H1243 0.930 . S
C1252 C1250 1.378 . S
C1252 C1253 1.367 . S
C1253 C1252 1.367 . S
C1253 C1255 1.433 . S
C1254 C1250 1.350 . S
C1254 C1251 1.463 . S
C1254 N1258 1.427 . S
C1255 H1245 0.929 . S
C1255 C1253 1.433 . S
C1255 N1258 1.384 . S
C1256 H1247 0.929 . S
C1256 C1248 1.378 . S
C1256 C1251 1.350 . S
C1257 H1244 0.929 . S
C1257 C1249 1.433 . S
C1257 N1259 1.384 . S
N1258 C1254 1.427 . S
N1258 C1255 1.384 . S
N1259 C1251 1.427 . S
N1259 C1257 1.384 . S
H1260 C1266 0.930 . S
H1261 C1270 0.930 . S
H1262 C1275 0.929 . S
H1263 C1273 0.929 . S
H1264 C1268 0.929 1_455 S
H1265 C1274 0.929 1_655 S
C1266 H1260 0.930 . S
C1266 C1267 1.367 . S
C1266 C1274 1.378 . S
C1267 C1266 1.367 . S
C1267 C1275 1.433 . S
C1268 H1264 0.929 1_655 S
C1268 C1270 1.378 . S
C1268 C1272 1.350 . S
C1269 C1272 1.463 1_455 S
C1269 C1274 1.350 . S
C1269 N1277 1.427 . S
C1270 H1261 0.930 . S
C1270 C1268 1.378 . S
C1270 C1271 1.367 . S
C1271 C1270 1.367 . S
C1271 C1273 1.433 . S
C1272 C1268 1.350 . S
C1272 C1269 1.463 1_655 S
C1272 N1276 1.427 . S
C1273 H1263 0.929 . S
C1273 C1271 1.433 . S
C1273 N1276 1.384 . S
C1274 H1265 0.929 1_455 S
C1274 C1266 1.378 . S
C1274 C1269 1.350 . S
C1275 H1262 0.929 . S
C1275 C1267 1.433 . S
C1275 N1277 1.384 . S
N1276 C1272 1.427 . S
N1276 C1273 1.384 . S
N1277 C1269 1.427 . S
N1277 C1275 1.384 . S
H1278 C1284 0.930 . S
H1279 C1288 0.930 . S
H1280 C1293 0.929 . S
H1281 C1291 0.929 . S
H1282 C1286 0.929 . S
H1283 C1292 0.929 . S
C1284 H1278 0.930 . S
C1284 C1285 1.367 . S
C1284 C1292 1.378 . S
C1285 C1284 1.367 . S
C1285 C1293 1.433 . S
C1286 H1282 0.929 . S
C1286 C1288 1.378 . S
C1286 C1290 1.350 . S
C1287 C1290 1.463 1_565 S
C1287 C1292 1.350 . S
C1287 N1295 1.427 . S
C1288 H1279 0.930 . S
C1288 C1286 1.378 . S
C1288 C1289 1.367 . S
C1289 C1288 1.367 . S
C1289 C1291 1.433 . S
C1290 C1286 1.350 . S
C1290 C1287 1.463 1_545 S
C1290 N1294 1.427 . S
C1291 H1281 0.929 . S
C1291 C1289 1.433 . S
C1291 N1294 1.384 . S
C1292 H1283 0.929 . S
C1292 C1284 1.378 . S
C1292 C1287 1.350 . S
C1293 H1280 0.929 . S
C1293 C1285 1.433 . S
C1293 N1295 1.384 . S
N1294 C1290 1.427 . S
N1294 C1291 1.384 . S
N1295 C1287 1.427 . S
N1295 C1293 1.384 . S
H1296 C1302 0.930 . S
H1297 C1306 0.930 . S
H1298 C1311 0.929 . S
H1299 C1309 0.929 . S
H1300 C1304 0.929 . S
H1301 C1310 0.929 . S
C1302 H1296 0.930 . S
C1302 C1303 1.367 . S
C1302 C1310 1.378 . S
C1303 C1302 1.367 . S
C1303 C1311 1.433 . S
C1304 H1300 0.929 . S
C1304 C1306 1.378 . S
C1304 C1308 1.350 . S
C1305 C1308 1.463 . S
C1305 C1310 1.350 . S
C1305 N1313 1.427 . S
C1306 H1297 0.930 . S
C1306 C1304 1.378 . S
C1306 C1307 1.367 . S
C1307 C1306 1.367 . S
C1307 C1309 1.433 . S
C1308 C1304 1.350 . S
C1308 C1305 1.463 . S
C1308 N1312 1.427 . S
C1309 H1299 0.929 . S
C1309 C1307 1.433 . S
C1309 N1312 1.384 . S
C1310 H1301 0.929 . S
C1310 C1302 1.378 . S
C1310 C1305 1.350 . S
C1311 H1298 0.929 . S
C1311 C1303 1.433 . S
C1311 N1313 1.384 . S
N1312 C1308 1.427 . S
N1312 C1309 1.384 . S
N1313 C1305 1.427 . S
N1313 C1311 1.384 . S
H1314 C1320 0.930 . S
H1315 C1324 0.930 . S
H1316 C1329 0.929 . S
H1317 C1327 0.929 . S
H1318 C1322 0.929 . S
H1319 C1328 0.929 . S
C1320 H1314 0.930 . S
C1320 C1321 1.367 . S
C1320 C1328 1.378 . S
C1321 C1320 1.367 . S
C1321 C1329 1.433 . S
C1322 H1318 0.929 . S
C1322 C1324 1.378 . S
C1322 C1326 1.350 . S
C1323 C1326 1.463 1_655 S
C1323 C1328 1.350 . S
C1323 N1331 1.427 . S
C1324 H1315 0.930 . S
C1324 C1322 1.378 . S
C1324 C1325 1.367 . S
C1325 C1324 1.367 . S
C1325 C1327 1.433 . S
C1326 C1322 1.350 . S
C1326 C1323 1.463 1_455 S
C1326 N1330 1.427 . S
C1327 H1317 0.929 . S
C1327 C1325 1.433 . S
C1327 N1330 1.384 . S
C1328 H1319 0.929 . S
C1328 C1320 1.378 . S
C1328 C1323 1.350 . S
C1329 H1316 0.929 . S
C1329 C1321 1.433 . S
C1329 N1331 1.384 . S
N1330 C1326 1.427 . S
N1330 C1327 1.384 . S
N1331 C1323 1.427 . S
N1331 C1329 1.384 . S
H1332 C1338 0.930 . S
H1333 C1342 0.930 . S
H1334 C1347 0.929 . S
H1335 C1345 0.929 . S
H1336 C1340 0.936 . S
H1337 C1346 0.936 . S
C1338 H1332 0.930 . S
C1338 C1339 1.367 . S
C1338 C1346 1.378 . S
C1339 C1338 1.367 . S
C1339 C1347 1.433 . S
C1340 H1336 0.936 . S
C1340 C1342 1.378 . S
C1340 C1344 1.350 . S
C1341 C1344 1.463 1_565 S
C1341 C1346 1.350 . S
C1341 N1349 1.427 . S
C1342 H1333 0.930 . S
C1342 C1340 1.378 . S
C1342 C1343 1.367 . S
C1343 C1342 1.367 . S
C1343 C1345 1.433 . S
C1344 C1340 1.350 . S
C1344 C1341 1.463 1_545 S
C1344 N1348 1.427 . S
C1345 H1335 0.929 . S
C1345 C1343 1.433 . S
C1345 N1348 1.384 . S
C1346 H1337 0.936 . S
C1346 C1338 1.378 . S
C1346 C1341 1.350 . S
C1347 H1334 0.929 . S
C1347 C1339 1.433 . S
C1347 N1349 1.384 . S
N1348 C1344 1.427 . S
N1348 C1345 1.384 . S
N1349 C1341 1.427 . S
N1349 C1347 1.384 . S
H1350 C1356 0.930 . S
H1351 C1360 0.930 . S
H1352 C1365 0.929 . S
H1353 C1363 0.929 . S
H1354 C1358 0.929 . S
H1355 C1364 0.929 . S
C1356 H1350 0.930 . S
C1356 C1357 1.367 . S
C1356 C1364 1.378 . S
C1357 C1356 1.367 . S
C1357 C1365 1.433 . S
C1358 H1354 0.929 . S
C1358 C1360 1.378 . S
C1358 C1362 1.350 . S
C1359 C1362 1.463 . S
C1359 C1364 1.350 . S
C1359 N1367 1.427 . S
C1360 H1351 0.930 . S
C1360 C1358 1.378 . S
C1360 C1361 1.367 . S
C1361 C1360 1.367 . S
C1361 C1363 1.433 . S
C1362 C1358 1.350 . S
C1362 C1359 1.463 . S
C1362 N1366 1.427 . S
C1363 H1353 0.929 . S
C1363 C1361 1.433 . S
C1363 N1366 1.384 . S
C1364 H1355 0.929 . S
C1364 C1356 1.378 . S
C1364 C1359 1.350 . S
C1365 H1352 0.929 . S
C1365 C1357 1.433 . S
C1365 N1367 1.384 . S
N1366 C1362 1.427 . S
N1366 C1363 1.384 . S
N1367 C1359 1.427 . S
N1367 C1365 1.384 . S
H1368 C1374 0.930 . S
H1369 C1378 0.930 . S
H1370 C1383 0.929 . S
H1371 C1381 0.929 . S
H1372 C1376 0.929 . S
H1373 C1382 0.929 . S
C1374 H1368 0.930 . S
C1374 C1375 1.367 . S
C1374 C1382 1.378 . S
C1375 C1374 1.367 . S
C1375 C1383 1.433 . S
C1376 H1372 0.929 . S
C1376 C1378 1.378 . S
C1376 C1380 1.350 . S
C1377 C1380 1.463 1_455 S
C1377 C1382 1.350 . S
C1377 N1385 1.427 . S
C1378 H1369 0.930 . S
C1378 C1376 1.378 . S
C1378 C1379 1.367 . S
C1379 C1378 1.367 . S
C1379 C1381 1.433 . S
C1380 C1376 1.350 . S
C1380 C1377 1.463 1_655 S
C1380 N1384 1.427 . S
C1381 H1371 0.929 . S
C1381 C1379 1.433 . S
C1381 N1384 1.384 . S
C1382 H1373 0.929 . S
C1382 C1374 1.378 . S
C1382 C1377 1.350 . S
C1383 H1370 0.929 . S
C1383 C1375 1.433 . S
C1383 N1385 1.384 . S
N1384 C1380 1.427 . S
N1384 C1381 1.384 . S
N1385 C1377 1.427 . S
N1385 C1383 1.384 . S
H1386 C1392 0.930 . S
H1387 C1396 0.930 . S
H1388 C1401 0.929 . S
H1389 C1399 0.929 . S
H1390 C1394 0.929 . S
H1391 C1400 0.929 . S
C1392 H1386 0.930 . S
C1392 C1393 1.367 . S
C1392 C1400 1.378 . S
C1393 C1392 1.367 . S
C1393 C1401 1.433 . S
C1394 H1390 0.929 . S
C1394 C1396 1.378 . S
C1394 C1398 1.350 . S
C1395 C1398 1.463 1_545 S
C1395 C1400 1.350 . S
C1395 N1403 1.427 . S
C1396 H1387 0.930 . S
C1396 C1394 1.378 . S
C1396 C1397 1.367 . S
C1397 C1396 1.367 . S
C1397 C1399 1.433 . S
C1398 C1394 1.350 . S
C1398 C1395 1.463 1_565 S
C1398 N1402 1.427 . S
C1399 H1389 0.929 . S
C1399 C1397 1.433 . S
C1399 N1402 1.384 . S
C1400 H1391 0.929 . S
C1400 C1392 1.378 . S
C1400 C1395 1.350 . S
C1401 H1388 0.929 . S
C1401 C1393 1.433 . S
C1401 N1403 1.384 . S
N1402 C1398 1.427 . S
N1402 C1399 1.384 . S
N1403 C1395 1.427 . S
N1403 C1401 1.384 . S
H1404 C1410 0.930 . S
H1405 C1414 0.930 . S
H1406 C1419 0.929 . S
H1407 C1417 0.929 . S
H1408 C1412 0.929 . S
H1409 C1418 0.929 . S
C1410 H1404 0.930 . S
C1410 C1411 1.367 . S
C1410 C1418 1.378 . S
C1411 C1410 1.367 . S
C1411 C1419 1.433 . S
C1412 H1408 0.929 . S
C1412 C1414 1.378 . S
C1412 C1416 1.350 . S
C1413 C1416 1.463 . S
C1413 C1418 1.350 . S
C1413 N1421 1.427 . S
C1414 H1405 0.930 . S
C1414 C1412 1.378 . S
C1414 C1415 1.367 . S
C1415 C1414 1.367 . S
C1415 C1417 1.433 . S
C1416 C1412 1.350 . S
C1416 C1413 1.463 . S
C1416 N1420 1.427 . S
C1417 H1407 0.929 . S
C1417 C1415 1.433 . S
C1417 N1420 1.384 . S
C1418 H1409 0.929 . S
C1418 C1410 1.378 . S
C1418 C1413 1.350 . S
C1419 H1406 0.929 . S
C1419 C1411 1.433 . S
C1419 N1421 1.384 . S
N1420 C1416 1.427 . S
N1420 C1417 1.384 . S
N1421 C1413 1.427 . S
N1421 C1419 1.384 . S
H1422 C1428 0.930 . S
H1423 C1432 0.930 . S
H1424 C1437 0.929 . S
H1425 C1435 0.929 . S
H1426 C1430 0.929 . S
H1427 C1436 0.929 . S
C1428 H1422 0.930 . S
C1428 C1429 1.367 . S
C1428 C1436 1.378 . S
C1429 C1428 1.367 . S
C1429 C1437 1.433 . S
C1430 H1426 0.929 . S
C1430 C1432 1.378 . S
C1430 C1434 1.350 . S
C1431 C1434 1.463 1_455 S
C1431 C1436 1.350 . S
C1431 N1439 1.427 . S
C1432 H1423 0.930 . S
C1432 C1430 1.378 . S
C1432 C1433 1.367 . S
C1433 C1432 1.367 . S
C1433 C1435 1.433 . S
C1434 C1430 1.350 . S
C1434 C1431 1.463 1_655 S
C1434 N1438 1.427 . S
C1435 H1425 0.929 . S
C1435 C1433 1.433 . S
C1435 N1438 1.384 . S
C1436 H1427 0.929 . S
C1436 C1428 1.378 . S
C1436 C1431 1.350 . S
C1437 H1424 0.929 . S
C1437 C1429 1.433 . S
C1437 N1439 1.384 . S
N1438 C1434 1.427 . S
N1438 C1435 1.384 . S
N1439 C1431 1.427 . S
N1439 C1437 1.384 . S
H1440 C1446 0.930 . S
H1441 C1450 0.930 . S
H1442 C1455 0.929 . S
H1443 C1453 0.929 . S
H1444 C1448 0.929 . S
H1445 C1454 0.929 . S
C1446 H1440 0.930 . S
C1446 C1447 1.367 . S
C1446 C1454 1.378 . S
C1447 C1446 1.367 . S
C1447 C1455 1.433 . S
C1448 H1444 0.929 . S
C1448 C1450 1.378 . S
C1448 C1452 1.350 . S
C1449 C1452 1.463 . S
C1449 C1454 1.350 . S
C1449 N1457 1.427 . S
C1450 H1441 0.930 . S
C1450 C1448 1.378 . S
C1450 C1451 1.367 . S
C1451 C1450 1.367 . S
C1451 C1453 1.433 . S
C1452 C1448 1.350 . S
C1452 C1449 1.463 . S
C1452 N1456 1.427 . S
C1453 H1443 0.929 . S
C1453 C1451 1.433 . S
C1453 N1456 1.384 . S
C1454 H1445 0.929 . S
C1454 C1446 1.378 . S
C1454 C1449 1.350 . S
C1455 H1442 0.929 . S
C1455 C1447 1.433 . S
C1455 N1457 1.384 . S
N1456 C1452 1.427 . S
N1456 C1453 1.384 . S
N1457 C1449 1.427 . S
N1457 C1455 1.384 . S
H1458 C1464 0.930 . S
H1459 C1468 0.930 . S
H1460 C1473 0.929 . S
H1461 C1471 0.929 . S
H1462 C1466 0.929 . S
H1463 C1472 0.929 . S
C1464 H1458 0.930 . S
C1464 C1465 1.367 . S
C1464 C1472 1.378 . S
C1465 C1464 1.367 . S
C1465 C1473 1.433 . S
C1466 H1462 0.929 . S
C1466 C1468 1.378 . S
C1466 C1470 1.350 . S
C1467 C1470 1.463 . S
C1467 C1472 1.350 . S
C1467 N1475 1.427 . S
C1468 H1459 0.930 . S
C1468 C1466 1.378 . S
C1468 C1469 1.367 . S
C1469 C1468 1.367 . S
C1469 C1471 1.433 . S
C1470 C1466 1.350 . S
C1470 C1467 1.463 . S
C1470 N1474 1.427 . S
C1471 H1461 0.929 . S
C1471 C1469 1.433 . S
C1471 N1474 1.384 . S
C1472 H1463 0.929 . S
C1472 C1464 1.378 . S
C1472 C1467 1.350 . S
C1473 H1460 0.929 . S
C1473 C1465 1.433 . S
C1473 N1475 1.384 . S
N1474 C1470 1.427 . S
N1474 C1471 1.384 . S
N1475 C1467 1.427 . S
N1475 C1473 1.384 . S
H1476 C1482 0.930 . S
H1477 C1486 0.930 . S
H1478 C1491 0.929 . S
H1479 C1489 0.929 . S
H1480 C1484 0.929 . S
H1481 C1490 0.929 . S
C1482 H1476 0.930 . S
C1482 C1483 1.367 . S
C1482 C1490 1.378 . S
C1483 C1482 1.367 . S
C1483 C1491 1.433 . S
C1484 H1480 0.929 . S
C1484 C1486 1.378 . S
C1484 C1488 1.350 . S
C1485 C1488 1.463 . S
C1485 C1490 1.350 . S
C1485 N1493 1.427 . S
C1486 H1477 0.930 . S
C1486 C1484 1.378 . S
C1486 C1487 1.367 . S
C1487 C1486 1.367 . S
C1487 C1489 1.433 . S
C1488 C1484 1.350 . S
C1488 C1485 1.463 . S
C1488 N1492 1.427 . S
C1489 H1479 0.929 . S
C1489 C1487 1.433 . S
C1489 N1492 1.384 . S
C1490 H1481 0.929 . S
C1490 C1482 1.378 . S
C1490 C1485 1.350 . S
C1491 H1478 0.929 . S
C1491 C1483 1.433 . S
C1491 N1493 1.384 . S
N1492 C1488 1.427 . S
N1492 C1489 1.384 . S
N1493 C1485 1.427 . S
N1493 C1491 1.384 . S
H1494 C1500 0.930 . S
H1495 C1504 0.930 . S
H1496 C1509 0.929 . S
H1497 C1507 0.929 . S
H1498 C1502 0.929 . S
H1499 C1508 0.929 . S
C1500 H1494 0.930 . S
C1500 C1501 1.367 . S
C1500 C1508 1.378 . S
C1501 C1500 1.367 . S
C1501 C1509 1.433 . S
C1502 H1498 0.929 . S
C1502 C1504 1.378 . S
C1502 C1506 1.350 . S
C1503 C1506 1.463 . S
C1503 C1508 1.350 . S
C1503 N1511 1.427 . S
C1504 H1495 0.930 . S
C1504 C1502 1.378 . S
C1504 C1505 1.367 . S
C1505 C1504 1.367 . S
C1505 C1507 1.433 . S
C1506 C1502 1.350 . S
C1506 C1503 1.463 . S
C1506 N1510 1.427 . S
C1507 H1497 0.929 . S
C1507 C1505 1.433 . S
C1507 N1510 1.384 . S
C1508 H1499 0.929 . S
C1508 C1500 1.378 . S
C1508 C1503 1.350 . S
C1509 H1496 0.929 . S
C1509 C1501 1.433 . S
C1509 N1511 1.384 . S
N1510 C1506 1.427 . S
N1510 C1507 1.384 . S
N1511 C1503 1.427 . S
N1511 C1509 1.384 . S
H1512 C1518 0.930 . S
H1513 C1522 0.930 . S
H1514 C1527 0.929 . S
H1515 C1525 0.929 . S
H1516 C1520 0.929 . S
H1517 C1526 0.929 . S
C1518 H1512 0.930 . S
C1518 C1519 1.367 . S
C1518 C1526 1.378 . S
C1519 C1518 1.367 . S
C1519 C1527 1.433 . S
C1520 H1516 0.929 . S
C1520 C1522 1.378 . S
C1520 C1524 1.350 . S
C1521 C1524 1.463 . S
C1521 C1526 1.350 . S
C1521 N1529 1.427 . S
C1522 H1513 0.930 . S
C1522 C1520 1.378 . S
C1522 C1523 1.367 . S
C1523 C1522 1.367 . S
C1523 C1525 1.433 . S
C1524 C1520 1.350 . S
C1524 C1521 1.463 . S
C1524 N1528 1.427 . S
C1525 H1515 0.929 . S
C1525 C1523 1.433 . S
C1525 N1528 1.384 . S
C1526 H1517 0.929 . S
C1526 C1518 1.378 . S
C1526 C1521 1.350 . S
C1527 H1514 0.929 . S
C1527 C1519 1.433 . S
C1527 N1529 1.384 . S
N1528 C1524 1.427 . S
N1528 C1525 1.384 . S
N1529 C1521 1.427 . S
N1529 C1527 1.384 . S
H1530 C1536 0.930 . S
H1531 C1540 0.930 . S
H1532 C1545 0.929 . S
H1533 C1543 0.929 . S
H1534 C1538 0.929 . S
H1535 C1544 0.929 . S
C1536 H1530 0.930 . S
C1536 C1537 1.367 . S
C1536 C1544 1.378 . S
C1537 C1536 1.367 . S
C1537 C1545 1.433 . S
C1538 H1534 0.929 . S
C1538 C1540 1.378 . S
C1538 C1542 1.350 . S
C1539 C1542 1.463 . S
C1539 C1544 1.350 . S
C1539 N1547 1.427 . S
C1540 H1531 0.930 . S
C1540 C1538 1.378 . S
C1540 C1541 1.367 . S
C1541 C1540 1.367 . S
C1541 C1543 1.433 . S
C1542 C1538 1.350 . S
C1542 C1539 1.463 . S
C1542 N1546 1.427 . S
C1543 H1533 0.929 . S
C1543 C1541 1.433 . S
C1543 N1546 1.384 . S
C1544 H1535 0.929 . S
C1544 C1536 1.378 . S
C1544 C1539 1.350 . S
C1545 H1532 0.929 . S
C1545 C1537 1.433 . S
C1545 N1547 1.384 . S
N1546 C1542 1.427 . S
N1546 C1543 1.384 . S
N1547 C1539 1.427 . S
N1547 C1545 1.384 . S
H1548 C1554 0.930 . S
H1549 C1558 0.930 . S
H1550 C1563 0.929 . S
H1551 C1561 0.929 . S
H1552 C1556 0.929 . S
H1553 C1562 0.929 . S
C1554 H1548 0.930 . S
C1554 C1555 1.367 . S
C1554 C1562 1.378 . S
C1555 C1554 1.367 . S
C1555 C1563 1.433 . S
C1556 H1552 0.929 . S
C1556 C1558 1.378 . S
C1556 C1560 1.350 . S
C1557 C1560 1.463 . S
C1557 C1562 1.350 . S
C1557 N1565 1.427 . S
C1558 H1549 0.930 . S
C1558 C1556 1.378 . S
C1558 C1559 1.367 . S
C1559 C1558 1.367 . S
C1559 C1561 1.433 . S
C1560 C1556 1.350 . S
C1560 C1557 1.463 . S
C1560 N1564 1.427 . S
C1561 H1551 0.929 . S
C1561 C1559 1.433 . S
C1561 N1564 1.384 . S
C1562 H1553 0.929 . S
C1562 C1554 1.378 . S
C1562 C1557 1.350 . S
C1563 H1550 0.929 . S
C1563 C1555 1.433 . S
C1563 N1565 1.384 . S
N1564 C1560 1.427 . S
N1564 C1561 1.384 . S
N1565 C1557 1.427 . S
N1565 C1563 1.384 . S
H1566 C1572 0.930 . S
H1567 C1576 0.930 . S
H1568 C1581 0.929 . S
H1569 C1579 0.929 . S
H1570 C1574 0.929 . S
H1571 C1580 0.929 . S
C1572 H1566 0.930 . S
C1572 C1573 1.367 . S
C1572 C1580 1.378 . S
C1573 C1572 1.367 . S
C1573 C1581 1.433 . S
C1574 H1570 0.929 . S
C1574 C1576 1.378 . S
C1574 C1578 1.350 . S
C1575 C1578 1.463 . S
C1575 C1580 1.350 . S
C1575 N1583 1.427 . S
C1576 H1567 0.930 . S
C1576 C1574 1.378 . S
C1576 C1577 1.367 . S
C1577 C1576 1.367 . S
C1577 C1579 1.433 . S
C1578 C1574 1.350 . S
C1578 C1575 1.463 . S
C1578 N1582 1.427 . S
C1579 H1569 0.929 . S
C1579 C1577 1.433 . S
C1579 N1582 1.384 . S
C1580 H1571 0.929 . S
C1580 C1572 1.378 . S
C1580 C1575 1.350 . S
C1581 H1568 0.929 . S
C1581 C1573 1.433 . S
C1581 N1583 1.384 . S
N1582 C1578 1.427 . S
N1582 C1579 1.384 . S
N1583 C1575 1.427 . S
N1583 C1581 1.384 . S
H1584 C1590 0.930 . S
H1585 C1594 0.930 . S
H1586 C1599 0.929 . S
H1587 C1597 0.929 . S
H1588 C1592 0.929 . S
H1589 C1598 0.929 . S
C1590 H1584 0.930 . S
C1590 C1591 1.367 . S
C1590 C1598 1.378 . S
C1591 C1590 1.367 . S
C1591 C1599 1.433 . S
C1592 H1588 0.929 . S
C1592 C1594 1.378 . S
C1592 C1596 1.350 . S
C1593 C1596 1.463 . S
C1593 C1598 1.350 . S
C1593 N1601 1.427 . S
C1594 H1585 0.930 . S
C1594 C1592 1.378 . S
C1594 C1595 1.367 . S
C1595 C1594 1.367 . S
C1595 C1597 1.433 . S
C1596 C1592 1.350 . S
C1596 C1593 1.463 . S
C1596 N1600 1.427 . S
C1597 H1587 0.929 . S
C1597 C1595 1.433 . S
C1597 N1600 1.384 . S
C1598 H1589 0.929 . S
C1598 C1590 1.378 . S
C1598 C1593 1.350 . S
C1599 H1586 0.929 . S
C1599 C1591 1.433 . S
C1599 N1601 1.384 . S
N1600 C1596 1.427 . S
N1600 C1597 1.384 . S
N1601 C1593 1.427 . S
N1601 C1599 1.384 . S
H1602 C1608 0.930 . S
H1603 C1612 0.930 . S
H1604 C1617 0.929 . S
H1605 C1615 0.929 . S
H1606 C1610 0.929 . S
H1607 C1616 0.929 . S
C1608 H1602 0.930 . S
C1608 C1609 1.367 . S
C1608 C1616 1.378 . S
C1609 C1608 1.367 . S
C1609 C1617 1.433 . S
C1610 H1606 0.929 . S
C1610 C1612 1.378 . S
C1610 C1614 1.350 . S
C1611 C1614 1.463 . S
C1611 C1616 1.350 . S
C1611 N1619 1.427 . S
C1612 H1603 0.930 . S
C1612 C1610 1.378 . S
C1612 C1613 1.367 . S
C1613 C1612 1.367 . S
C1613 C1615 1.433 . S
C1614 C1610 1.350 . S
C1614 C1611 1.463 . S
C1614 N1618 1.427 . S
C1615 H1605 0.929 . S
C1615 C1613 1.433 . S
C1615 N1618 1.384 . S
C1616 H1607 0.929 . S
C1616 C1608 1.378 . S
C1616 C1611 1.350 . S
C1617 H1604 0.929 . S
C1617 C1609 1.433 . S
C1617 N1619 1.384 . S
N1618 C1614 1.427 . S
N1618 C1615 1.384 . S
N1619 C1611 1.427 . S
N1619 C1617 1.384 . S
H1620 C1626 0.930 . S
H1621 C1630 0.930 . S
H1622 C1635 0.929 . S
H1623 C1633 0.929 . S
H1624 C1628 0.929 . S
H1625 C1634 0.929 . S
C1626 H1620 0.930 . S
C1626 C1627 1.367 . S
C1626 C1634 1.378 . S
C1627 C1626 1.367 . S
C1627 C1635 1.433 . S
C1628 H1624 0.929 . S
C1628 C1630 1.378 . S
C1628 C1632 1.350 . S
C1629 C1632 1.463 . S
C1629 C1634 1.350 . S
C1629 N1637 1.427 . S
C1630 H1621 0.930 . S
C1630 C1628 1.378 . S
C1630 C1631 1.367 . S
C1631 C1630 1.367 . S
C1631 C1633 1.433 . S
C1632 C1628 1.350 . S
C1632 C1629 1.463 . S
C1632 N1636 1.427 . S
C1633 H1623 0.929 . S
C1633 C1631 1.433 . S
C1633 N1636 1.384 . S
C1634 H1625 0.929 . S
C1634 C1626 1.378 . S
C1634 C1629 1.350 . S
C1635 H1622 0.929 . S
C1635 C1627 1.433 . S
C1635 N1637 1.384 . S
N1636 C1632 1.427 . S
N1636 C1633 1.384 . S
N1637 C1629 1.427 . S
N1637 C1635 1.384 . S
H1638 C1644 0.930 . S
H1639 C1648 0.930 . S
H1640 C1653 0.929 . S
H1641 C1651 0.929 . S
H1642 C1646 0.929 . S
H1643 C1652 0.929 . S
C1644 H1638 0.930 . S
C1644 C1645 1.367 . S
C1644 C1652 1.378 . S
C1645 C1644 1.367 . S
C1645 C1653 1.433 . S
C1646 H1642 0.929 . S
C1646 C1648 1.378 . S
C1646 C1650 1.350 . S
C1647 C1650 1.463 . S
C1647 C1652 1.350 . S
C1647 N1655 1.427 . S
C1648 H1639 0.930 . S
C1648 C1646 1.378 . S
C1648 C1649 1.367 . S
C1649 C1648 1.367 . S
C1649 C1651 1.433 . S
C1650 C1646 1.350 . S
C1650 C1647 1.463 . S
C1650 N1654 1.427 . S
C1651 H1641 0.929 . S
C1651 C1649 1.433 . S
C1651 N1654 1.384 . S
C1652 H1643 0.929 . S
C1652 C1644 1.378 . S
C1652 C1647 1.350 . S
C1653 H1640 0.929 . S
C1653 C1645 1.433 . S
C1653 N1655 1.384 . S
N1654 C1650 1.427 . S
N1654 C1651 1.384 . S
N1655 C1647 1.427 . S
N1655 C1653 1.384 . S
H1656 C1662 0.930 . S
H1657 C1666 0.930 . S
H1658 C1671 0.929 . S
H1659 C1669 0.929 . S
H1660 C1664 0.929 . S
H1661 C1670 0.929 . S
C1662 H1656 0.930 . S
C1662 C1663 1.367 . S
C1662 C1670 1.378 . S
C1663 C1662 1.367 . S
C1663 C1671 1.433 . S
C1664 H1660 0.929 . S
C1664 C1666 1.378 . S
C1664 C1668 1.350 . S
C1665 C1668 1.463 1_554 S
C1665 C1670 1.350 . S
C1665 N1673 1.427 . S
C1666 H1657 0.930 . S
C1666 C1664 1.378 . S
C1666 C1667 1.367 . S
C1667 C1666 1.367 . S
C1667 C1669 1.433 . S
C1668 C1664 1.350 . S
C1668 C1665 1.463 1_556 S
C1668 N1672 1.427 . S
C1669 H1659 0.929 . S
C1669 C1667 1.433 . S
C1669 N1672 1.384 . S
C1670 H1661 0.929 . S
C1670 C1662 1.378 . S
C1670 C1665 1.350 . S
C1671 H1658 0.929 . S
C1671 C1663 1.433 . S
C1671 N1673 1.384 . S
N1672 C1668 1.427 . S
N1672 C1669 1.384 . S
N1673 C1665 1.427 . S
N1673 C1671 1.384 . S
H1674 C1680 0.930 . S
H1675 C1684 0.930 . S
H1676 C1689 0.929 . S
H1677 C1687 0.929 . S
H1678 C1682 0.929 . S
H1679 C1688 0.929 . S
C1680 H1674 0.930 . S
C1680 C1681 1.367 . S
C1680 C1688 1.378 . S
C1681 C1680 1.367 . S
C1681 C1689 1.433 . S
C1682 H1678 0.929 . S
C1682 C1684 1.378 . S
C1682 C1686 1.350 . S
C1683 C1686 1.463 1_554 S
C1683 C1688 1.350 . S
C1683 N1691 1.427 . S
C1684 H1675 0.930 . S
C1684 C1682 1.378 . S
C1684 C1685 1.367 . S
C1685 C1684 1.367 . S
C1685 C1687 1.433 . S
C1686 C1682 1.350 . S
C1686 C1683 1.463 1_556 S
C1686 N1690 1.427 . S
C1687 H1677 0.929 . S
C1687 C1685 1.433 . S
C1687 N1690 1.384 . S
C1688 H1679 0.929 . S
C1688 C1680 1.378 . S
C1688 C1683 1.350 . S
C1689 H1676 0.929 . S
C1689 C1681 1.433 . S
C1689 N1691 1.384 . S
N1690 C1686 1.427 . S
N1690 C1687 1.384 . S
N1691 C1683 1.427 . S
N1691 C1689 1.384 . S
H1692 C1698 0.930 . S
H1693 C1702 0.930 . S
H1694 C1707 0.929 . S
H1695 C1705 0.929 . S
H1696 C1700 0.929 . S
H1697 C1706 0.929 . S
C1698 H1692 0.930 . S
C1698 C1699 1.367 . S
C1698 C1706 1.378 . S
C1699 C1698 1.367 . S
C1699 C1707 1.433 . S
C1700 H1696 0.929 . S
C1700 C1702 1.378 . S
C1700 C1704 1.350 . S
C1701 C1704 1.463 1_554 S
C1701 C1706 1.350 . S
C1701 N1709 1.427 . S
C1702 H1693 0.930 . S
C1702 C1700 1.378 . S
C1702 C1703 1.367 . S
C1703 C1702 1.367 . S
C1703 C1705 1.433 . S
C1704 C1700 1.350 . S
C1704 C1701 1.463 1_556 S
C1704 N1708 1.427 . S
C1705 H1695 0.929 . S
C1705 C1703 1.433 . S
C1705 N1708 1.384 . S
C1706 H1697 0.929 . S
C1706 C1698 1.378 . S
C1706 C1701 1.350 . S
C1707 H1694 0.929 . S
C1707 C1699 1.433 . S
C1707 N1709 1.384 . S
N1708 C1704 1.427 . S
N1708 C1705 1.384 . S
N1709 C1701 1.427 . S
N1709 C1707 1.384 . S
H1710 C1716 0.930 . S
H1711 C1720 0.930 . S
H1712 C1725 0.929 . S
H1713 C1723 0.929 . S
H1714 C1718 0.929 . S
H1715 C1724 0.929 . S
C1716 H1710 0.930 . S
C1716 C1717 1.367 . S
C1716 C1724 1.378 . S
C1717 C1716 1.367 . S
C1717 C1725 1.433 . S
C1718 H1714 0.929 . S
C1718 C1720 1.378 . S
C1718 C1722 1.350 . S
C1719 C1722 1.463 1_554 S
C1719 C1724 1.350 . S
C1719 N1727 1.427 . S
C1720 H1711 0.930 . S
C1720 C1718 1.378 . S
C1720 C1721 1.367 . S
C1721 C1720 1.367 . S
C1721 C1723 1.433 . S
C1722 C1718 1.350 . S
C1722 C1719 1.463 1_556 S
C1722 N1726 1.427 . S
C1723 H1713 0.929 . S
C1723 C1721 1.433 . S
C1723 N1726 1.384 . S
C1724 H1715 0.929 . S
C1724 C1716 1.378 . S
C1724 C1719 1.350 . S
C1725 H1712 0.929 . S
C1725 C1717 1.433 . S
C1725 N1727 1.384 . S
N1726 C1722 1.427 . S
N1726 C1723 1.384 . S
N1727 C1719 1.427 . S
N1727 C1725 1.384 . S
H1728 C1734 0.930 . S
H1729 C1738 0.930 . S
H1730 C1743 0.929 . S
H1731 C1741 0.929 . S
H1732 C1736 0.929 . S
H1733 C1742 0.929 . S
C1734 H1728 0.930 . S
C1734 C1735 1.367 . S
C1734 C1742 1.378 . S
C1735 C1734 1.367 . S
C1735 C1743 1.433 . S
C1736 H1732 0.929 . S
C1736 C1738 1.378 . S
C1736 C1740 1.350 . S
C1737 C1740 1.463 1_554 S
C1737 C1742 1.350 . S
C1737 N1745 1.427 . S
C1738 H1729 0.930 . S
C1738 C1736 1.378 . S
C1738 C1739 1.367 . S
C1739 C1738 1.367 . S
C1739 C1741 1.433 . S
C1740 C1736 1.350 . S
C1740 C1737 1.463 1_556 S
C1740 N1744 1.427 . S
C1741 H1731 0.929 . S
C1741 C1739 1.433 . S
C1741 N1744 1.384 . S
C1742 H1733 0.929 . S
C1742 C1734 1.378 . S
C1742 C1737 1.350 . S
C1743 H1730 0.929 . S
C1743 C1735 1.433 . S
C1743 N1745 1.384 . S
N1744 C1740 1.427 . S
N1744 C1741 1.384 . S
N1745 C1737 1.427 . S
N1745 C1743 1.384 . S
H1746 C1752 0.930 . S
H1747 C1756 0.930 . S
H1748 C1761 0.929 . S
H1749 C1759 0.929 . S
H1750 C1754 0.929 . S
H1751 C1760 0.929 . S
C1752 H1746 0.930 . S
C1752 C1753 1.367 . S
C1752 C1760 1.378 . S
C1753 C1752 1.367 . S
C1753 C1761 1.433 . S
C1754 H1750 0.929 . S
C1754 C1756 1.378 . S
C1754 C1758 1.350 . S
C1755 C1758 1.463 1_556 S
C1755 C1760 1.350 . S
C1755 N1763 1.427 . S
C1756 H1747 0.930 . S
C1756 C1754 1.378 . S
C1756 C1757 1.367 . S
C1757 C1756 1.367 . S
C1757 C1759 1.433 . S
C1758 C1754 1.350 . S
C1758 C1755 1.463 1_554 S
C1758 N1762 1.427 . S
C1759 H1749 0.929 . S
C1759 C1757 1.433 . S
C1759 N1762 1.384 . S
C1760 H1751 0.929 . S
C1760 C1752 1.378 . S
C1760 C1755 1.350 . S
C1761 H1748 0.929 . S
C1761 C1753 1.433 . S
C1761 N1763 1.384 . S
N1762 C1758 1.427 . S
N1762 C1759 1.384 . S
N1763 C1755 1.427 . S
N1763 C1761 1.384 . S
H1764 C1770 0.930 . S
H1765 C1774 0.930 . S
H1766 C1779 0.929 . S
H1767 C1777 0.929 . S
H1768 C1772 0.929 . S
H1769 C1778 0.929 . S
C1770 H1764 0.930 . S
C1770 C1771 1.367 . S
C1770 C1778 1.378 . S
C1771 C1770 1.367 . S
C1771 C1779 1.433 . S
C1772 H1768 0.929 . S
C1772 C1774 1.378 . S
C1772 C1776 1.350 . S
C1773 C1776 1.463 . S
C1773 C1778 1.350 . S
C1773 N1781 1.427 . S
C1774 H1765 0.930 . S
C1774 C1772 1.378 . S
C1774 C1775 1.367 . S
C1775 C1774 1.367 . S
C1775 C1777 1.433 . S
C1776 C1772 1.350 . S
C1776 C1773 1.463 . S
C1776 N1780 1.427 . S
C1777 H1767 0.929 . S
C1777 C1775 1.433 . S
C1777 N1780 1.384 . S
C1778 H1769 0.929 . S
C1778 C1770 1.378 . S
C1778 C1773 1.350 . S
C1779 H1766 0.929 . S
C1779 C1771 1.433 . S
C1779 N1781 1.384 . S
N1780 C1776 1.427 . S
N1780 C1777 1.384 . S
N1781 C1773 1.427 . S
N1781 C1779 1.384 . S
H1782 C1788 0.930 . S
H1783 C1792 0.930 . S
H1784 C1797 0.929 . S
H1785 C1795 0.929 . S
H1786 C1790 0.929 . S
H1787 C1796 0.929 . S
C1788 H1782 0.930 . S
C1788 C1789 1.367 . S
C1788 C1796 1.378 . S
C1789 C1788 1.367 . S
C1789 C1797 1.433 . S
C1790 H1786 0.929 . S
C1790 C1792 1.378 . S
C1790 C1794 1.350 . S
C1791 C1794 1.463 . S
C1791 C1796 1.350 . S
C1791 N1799 1.427 . S
C1792 H1783 0.930 . S
C1792 C1790 1.378 . S
C1792 C1793 1.367 . S
C1793 C1792 1.367 . S
C1793 C1795 1.433 . S
C1794 C1790 1.350 . S
C1794 C1791 1.463 . S
C1794 N1798 1.427 . S
C1795 H1785 0.929 . S
C1795 C1793 1.433 . S
C1795 N1798 1.384 . S
C1796 H1787 0.929 . S
C1796 C1788 1.378 . S
C1796 C1791 1.350 . S
C1797 H1784 0.929 . S
C1797 C1789 1.433 . S
C1797 N1799 1.384 . S
N1798 C1794 1.427 . S
N1798 C1795 1.384 . S
N1799 C1791 1.427 . S
N1799 C1797 1.384 . S
H1800 C1806 0.930 . S
H1801 C1810 0.930 . S
H1802 C1815 0.929 . S
H1803 C1813 0.929 . S
H1804 C1808 0.929 . S
H1805 C1814 0.929 . S
C1806 H1800 0.930 . S
C1806 C1807 1.367 . S
C1806 C1814 1.378 . S
C1807 C1806 1.367 . S
C1807 C1815 1.433 . S
C1808 H1804 0.929 . S
C1808 C1810 1.378 . S
C1808 C1812 1.350 . S
C1809 C1812 1.463 . S
C1809 C1814 1.350 . S
C1809 N1817 1.427 . S
C1810 H1801 0.930 . S
C1810 C1808 1.378 . S
C1810 C1811 1.367 . S
C1811 C1810 1.367 . S
C1811 C1813 1.433 . S
C1812 C1808 1.350 . S
C1812 C1809 1.463 . S
C1812 N1816 1.427 . S
C1813 H1803 0.929 . S
C1813 C1811 1.433 . S
C1813 N1816 1.384 . S
C1814 H1805 0.929 . S
C1814 C1806 1.378 . S
C1814 C1809 1.350 . S
C1815 H1802 0.929 . S
C1815 C1807 1.433 . S
C1815 N1817 1.384 . S
N1816 C1812 1.427 . S
N1816 C1813 1.384 . S
N1817 C1809 1.427 . S
N1817 C1815 1.384 . S
H1818 C1824 0.930 . S
H1819 C1828 0.930 . S
H1820 C1833 0.929 . S
H1821 C1831 0.929 . S
H1822 C1826 0.929 . S
H1823 C1832 0.929 . S
C1824 H1818 0.930 . S
C1824 C1825 1.367 . S
C1824 C1832 1.378 . S
C1825 C1824 1.367 . S
C1825 C1833 1.433 . S
C1826 H1822 0.929 . S
C1826 C1828 1.378 . S
C1826 C1830 1.350 . S
C1827 C1830 1.463 . S
C1827 C1832 1.350 . S
C1827 N1835 1.427 . S
C1828 H1819 0.930 . S
C1828 C1826 1.378 . S
C1828 C1829 1.367 . S
C1829 C1828 1.367 . S
C1829 C1831 1.433 . S
C1830 C1826 1.350 . S
C1830 C1827 1.463 . S
C1830 N1834 1.427 . S
C1831 H1821 0.929 . S
C1831 C1829 1.433 . S
C1831 N1834 1.384 . S
C1832 H1823 0.929 . S
C1832 C1824 1.378 . S
C1832 C1827 1.350 . S
C1833 H1820 0.929 . S
C1833 C1825 1.433 . S
C1833 N1835 1.384 . S
N1834 C1830 1.427 . S
N1834 C1831 1.384 . S
N1835 C1827 1.427 . S
N1835 C1833 1.384 . S
H1836 C1842 0.930 . S
H1837 C1846 0.930 . S
H1838 C1851 0.929 . S
H1839 C1849 0.929 . S
H1840 C1844 0.929 . S
H1841 C1850 0.929 . S
C1842 H1836 0.930 . S
C1842 C1843 1.367 . S
C1842 C1850 1.378 . S
C1843 C1842 1.367 . S
C1843 C1851 1.433 . S
C1844 H1840 0.929 . S
C1844 C1846 1.378 . S
C1844 C1848 1.350 . S
C1845 C1848 1.463 . S
C1845 C1850 1.350 . S
C1845 N1853 1.427 . S
C1846 H1837 0.930 . S
C1846 C1844 1.378 . S
C1846 C1847 1.367 . S
C1847 C1846 1.367 . S
C1847 C1849 1.433 . S
C1848 C1844 1.350 . S
C1848 C1845 1.463 . S
C1848 N1852 1.427 . S
C1849 H1839 0.929 . S
C1849 C1847 1.433 . S
C1849 N1852 1.384 . S
C1850 H1841 0.929 . S
C1850 C1842 1.378 . S
C1850 C1845 1.350 . S
C1851 H1838 0.929 . S
C1851 C1843 1.433 . S
C1851 N1853 1.384 . S
N1852 C1848 1.427 . S
N1852 C1849 1.384 . S
N1853 C1845 1.427 . S
N1853 C1851 1.384 . S
H1854 C1860 0.930 . S
H1855 C1864 0.930 . S
H1856 C1869 0.929 . S
H1857 C1867 0.929 . S
H1858 C1862 0.929 . S
H1859 C1868 0.929 . S
C1860 H1854 0.930 . S
C1860 C1861 1.367 . S
C1860 C1868 1.378 . S
C1861 C1860 1.367 . S
C1861 C1869 1.433 . S
C1862 H1858 0.929 . S
C1862 C1864 1.378 . S
C1862 C1866 1.350 . S
C1863 C1866 1.463 . S
C1863 C1868 1.350 . S
C1863 N1871 1.427 . S
C1864 H1855 0.930 . S
C1864 C1862 1.378 . S
C1864 C1865 1.367 . S
C1865 C1864 1.367 . S
C1865 C1867 1.433 . S
C1866 C1862 1.350 . S
C1866 C1863 1.463 . S
C1866 N1870 1.427 . S
C1867 H1857 0.929 . S
C1867 C1865 1.433 . S
C1867 N1870 1.384 . S
C1868 H1859 0.929 . S
C1868 C1860 1.378 . S
C1868 C1863 1.350 . S
C1869 H1856 0.929 . S
C1869 C1861 1.433 . S
C1869 N1871 1.384 . S
N1870 C1866 1.427 . S
N1870 C1867 1.384 . S
N1871 C1863 1.427 . S
N1871 C1869 1.384 . S
C799 N14 0.649 . S
C803 N113 0.648 . S
C817 N146 0.654 . S
C821 N47 0.653 . S
C835 N179 0.650 . S
C839 N80 0.649 . S
C853 N311 0.645 . S
C857 N212 0.646 . S
C871 N245 0.674 . S
C875 N344 0.675 . S
C889 N278 0.661 . S
C893 N377 0.660 . S
C907 N509 0.661 . S
C911 N410 0.662 . S
C925 N542 0.658 . S
C929 N443 0.657 . S
C943 N575 0.651 . S
C947 N476 0.652 . S
C961 N707 0.645 . S
C965 N608 0.646 . S
C979 N641 0.660 . S
C983 N740 0.659 . S
C997 N773 0.665 . S
C1001 N674 0.664 . S
C1015 N269 1.396 . S
C1019 N5 1.402 . S
C1033 N38 1.390 . S
C1037 N302 1.396 . S
C1051 N71 1.401 . S
C1055 N335 1.404 . S
C1069 N104 1.400 . S
C1073 N368 1.404 . S
C1087 N137 1.389 . S
C1091 N203 1.395 . S
C1105 N236 1.401 . S
C1109 N170 1.404 . S
C1123 N401 1.403 . S
C1127 N665 1.396 . S
C1141 N698 1.397 . S
C1145 N434 1.390 . S
C1159 N731 1.404 . S
C1163 N467 1.399 . S
C1177 N500 1.389 . S
C1181 N764 1.394 . S
C1195 N599 1.400 . S
C1199 N533 1.404 . S
C1213 N632 1.389 . S
C1217 N566 1.393 . S
C1231 C8 1.486 . S
C1235 C239 1.493 . S
C1249 C41 1.487 . S
C1253 C272 1.491 . S
C1267 C305 1.492 . S
C1271 C74 1.486 . S
C1285 C107 1.491 . S
C1289 C338 1.489 . S
C1303 C371 1.496 . S
C1307 C140 1.483 . S
C1321 C206 1.483 . S
C1325 C173 1.496 . S
C1339 C404 1.494 . S
C1343 C635 1.484 . S
C1357 C437 1.483 . S
C1361 C668 1.496 . S
C1375 C470 1.483 . S
C1379 C701 1.495 . S
C1393 C503 1.488 . S
C1397 C734 1.492 . S
C1411 C536 1.496 . S
C1415 C767 1.483 . S
C1429 C602 1.495 . S
C1433 C569 1.485 . S
C1447 C28 0.621 . S
C1451 C358 0.632 . S
C1465 C391 0.612 . S
C1469 C61 0.640 . S
C1483 C226 0.608 . S
C1487 C94 0.644 . S
C1501 C259 0.622 . S
C1505 C127 0.630 . S
C1519 C160 0.620 . S
C1523 C292 0.632 . S
C1537 C193 0.612 . S
C1541 C325 0.640 . S
C1555 C424 0.607 . S
C1559 C754 0.644 . S
C1573 C787 0.638 . S
C1577 C457 0.614 . S
C1591 C622 0.645 . S
C1595 C490 0.607 . S
C1609 C523 0.618 . S
C1613 C655 0.633 . S
C1627 C556 0.632 . S
C1631 C688 0.620 . S
C1645 C721 0.629 . S
C1649 C589 0.623 . S
C1663 C17 1.440 . S
C1667 C512 1.440 . S
C1681 C50 1.438 . S
C1685 C545 1.442 . S
C1699 C83 1.442 . S
C1703 C578 1.437 . S
C1717 C116 1.440 . S
C1721 C413 1.440 . S
C1735 C149 1.437 . S
C1739 C446 1.442 . S
C1753 C479 1.442 . S
C1757 C182 1.438 . S
C1771 C215 1.438 . S
C1775 C710 1.442 . S
C1789 C248 1.441 . S
C1793 C743 1.439 . S
C1807 C281 1.437 . S
C1811 C776 1.442 . S
C1825 C314 1.438 . S
C1829 C611 1.442 . S
C1843 C347 1.439 . S
C1847 C644 1.441 . S
C1861 C677 1.438 . S
C1865 C380 1.442 . S
