# Generated by pormake.
# Topology rkf, (6)-cn, num edge types: 1
# Building blocks:
#     Node 0, Type 0, BuildingBlock: PAMTUU_clean_sbu_0, # of connection points: 6
#     Node 1, Type 0, BuildingBlock: PAMTUU_clean_sbu_0, # of connection points: 6
#     Node 2, Type 0, BuildingBlock: PAMTUU_clean_sbu_0, # of connection points: 6
#     Node 3, Type 0, BuildingBlock: PAMTUU_clean_sbu_0, # of connection points: 6
#     Node 4, Type 0, BuildingBlock: PAMTUU_clean_sbu_0, # of connection points: 6
#     Node 5, Type 0, BuildingBlock: PAMTUU_clean_sbu_0, # of connection points: 6
#     Edge 6, Type (0, 0), BuildingBlock: UVAHIK_clean_linker_0, # of connection points: 2
#     Edge 7, Type (0, 0), BuildingBlock: UVAHIK_clean_linker_0, # of connection points: 2
#     Edge 8, Type (0, 0), BuildingBlock: UVAHIK_clean_linker_0, # of connection points: 2
#     Edge 9, Type (0, 0), BuildingBlock: UVAHIK_clean_linker_0, # of connection points: 2
#     Edge 10, Type (0, 0), BuildingBlock: UVAHIK_clean_linker_0, # of connection points: 2
#     Edge 11, Type (0, 0), BuildingBlock: UVAHIK_clean_linker_0, # of connection points: 2
#     Edge 12, Type (0, 0), BuildingBlock: UVAHIK_clean_linker_0, # of connection points: 2
#     Edge 13, Type (0, 0), BuildingBlock: UVAHIK_clean_linker_0, # of connection points: 2
#     Edge 14, Type (0, 0), BuildingBlock: UVAHIK_clean_linker_0, # of connection points: 2
#     Edge 15, Type (0, 0), BuildingBlock: UVAHIK_clean_linker_0, # of connection points: 2
#     Edge 16, Type (0, 0), BuildingBlock: UVAHIK_clean_linker_0, # of connection points: 2
#     Edge 17, Type (0, 0), BuildingBlock: UVAHIK_clean_linker_0, # of connection points: 2
#     Edge 18, Type (0, 0), BuildingBlock: UVAHIK_clean_linker_0, # of connection points: 2
#     Edge 19, Type (0, 0), BuildingBlock: UVAHIK_clean_linker_0, # of connection points: 2
#     Edge 20, Type (0, 0), BuildingBlock: UVAHIK_clean_linker_0, # of connection points: 2
#     Edge 21, Type (0, 0), BuildingBlock: UVAHIK_clean_linker_0, # of connection points: 2
#     Edge 22, Type (0, 0), BuildingBlock: UVAHIK_clean_linker_0, # of connection points: 2
#     Edge 23, Type (0, 0), BuildingBlock: UVAHIK_clean_linker_0, # of connection points: 2
# Relax obj value: 0.616
# Max RMSD: 0.270
# Mean RMSD: 0.270
data_MOF--net-rkf--node1-PAMTUU_clean_sbu_0--edge1-UVAHIK_clean_linker_0
_symmetry_space_group_name_H-M    P1
_symmetry_Int_Tables_number       1
_symmetry_cell_setting            triclinic
loop_
_symmetry_equiv_pos_as_xyz
'x, y, z'
_cell_length_a     32.836703
_cell_length_b     32.465794
_cell_length_c     56.521315
_cell_angle_alpha  89.752382
_cell_angle_beta   89.77582
_cell_angle_gamma 119.68519
loop_
_atom_site_label
_atom_site_type_symbol
_atom_site_fract_x
_atom_site_fract_y
_atom_site_fract_z
_atom_type_partial_charge
Tb0 Tb 0.19383 0.0403 0.13285 0.0
Tb1 Tb 0.2636 0.15361 0.11893 0.0
C2 C 0.30145 0.0865 0.13355 0.0
C3 C 0.09774 0.91986 0.15573 0.0
C4 C 0.01713 0.84849 0.17857 0.0
C5 C 0.05392 0.84041 0.17209 0.0
C6 C 0.0938 0.87578 0.16077 0.0
C7 C 0.06145 0.92853 0.16234 0.0
C8 C 0.02141 0.89306 0.17377 0.0
C9 C 0.13828 0.95402 0.14178 0.0
O10 O 0.21051 0.07745 0.16707 0.0
O11 O 0.23254 0.15266 0.15353 0.0
O12 O 0.19936 0.13241 1.09992 0.0
O13 O 0.15716 0.07971 0.12836 0.0
O14 O 0.32951 0.20627 0.10642 0.0
O15 O 0.27917 0.22415 0.12116 0.0
O16 O 0.25505 0.11667 1.08469 0.0
O17 O 0.20242 0.03853 1.09464 0.0
O18 O 0.26278 0.05 0.12622 0.0
O19 O 0.3033 0.12693 0.13793 0.0
C20 C 0.22036 0.12158 0.171 0.0
O21 O 0.13079 0.97858 0.12581 0.0
O22 O 0.17799 0.97908 0.15274 0.0
C23 C 0.15874 0.09925 0.10781 0.0
C24 C 0.32997 0.27429 1.09138 0.0
C25 C 0.34981 0.34349 1.05641 0.0
C26 C 0.38568 0.34667 1.07104 0.0
C27 C 0.3757 0.31235 1.08854 0.0
C28 C 0.29436 0.27035 1.07637 0.0
C29 C 0.30418 0.30484 1.05909 0.0
C30 C 0.31968 0.23995 0.11055 0.0
C31 C 0.22779 0.07146 1.07885 0.0
H32 H 0.05216 0.80686 0.176 0.0
H33 H 0.12142 0.86845 0.15565 0.0
H34 H 0.06376 0.96231 0.15837 0.0
H35 H -0.00643 0.90024 0.17855 0.0
H36 H 0.42111 0.37606 1.06922 0.0
H37 H 0.40356 0.31575 1.10001 0.0
H38 H 0.25892 0.24092 1.07815 0.0
H39 H 0.27613 0.30111 1.04768 0.0
Tb40 Tb 0.18054 0.33634 0.45252 0.0
Tb41 Tb 0.1895 0.24184 0.46426 0.0
C42 C 0.27239 0.34382 0.4736 0.0
C43 C 0.14669 0.41812 0.42516 0.0
C44 C 0.09333 0.43343 0.39109 0.0
C45 C 0.10317 0.45698 0.41289 0.0
C46 C 0.12991 0.4495 0.42979 0.0
C47 C 0.13677 0.39449 0.40344 0.0
C48 C 0.11056 0.40228 0.38652 0.0
C49 C 0.17201 0.40791 0.44347 0.0
O50 O 0.18509 0.30911 0.41736 0.0
O51 O 0.21962 0.26569 0.42875 0.0
O52 O 0.1308 0.21846 0.44026 0.0
O53 O 0.11159 0.27658 0.44647 0.0
O54 O 0.2302 0.20888 0.46139 0.0
O55 O 0.16129 0.17213 0.47737 0.0
O56 O 0.15012 0.2479 0.49432 0.0
O57 O 0.17278 0.32688 0.49118 0.0
O58 O 0.25389 0.36139 0.45905 0.0
O59 O 0.24928 0.29997 0.48139 0.0
C60 C 0.20605 0.28451 0.41199 0.0
O61 O 0.14562 0.37483 0.45854 0.0
O62 O 0.20704 0.40294 0.43614 0.0
C63 C 0.10284 0.23615 0.4372 0.0
C64 C 0.21925 0.15442 0.49188 0.0
C65 C 0.25587 0.11888 0.52648 0.0
C66 C 0.21105 0.11394 0.52935 0.0
C67 C 0.1929 0.13148 0.51222 0.0
C68 C 0.26402 0.15937 0.48902 0.0
C69 C 0.28222 0.14201 0.50617 0.0
C70 C 0.19992 0.17124 0.47298 0.0
C71 C 0.15314 0.28673 0.50331 0.0
H72 H 0.09012 0.48101 0.41684 0.0
H73 H 0.1369 0.46762 0.4466 0.0
H74 H 0.14864 0.36941 0.3997 0.0
H75 H 0.1026 0.38282 0.37008 0.0
H76 H 0.18947 0.09552 0.54458 0.0
H77 H 0.15805 0.12651 0.51481 0.0
H78 H 0.28497 0.17645 0.47339 0.0
H79 H 0.31699 0.14677 0.50351 0.0
Tb80 Tb -0.00422 0.29952 0.79723 0.0
Tb81 Tb 0.88874 0.2223 0.78285 0.0
C82 C 0.92084 0.32719 0.79065 0.0
C83 C 0.1143 0.37844 0.82525 0.0
C84 C 0.18538 0.41321 0.85939 0.0
C85 C 0.19522 0.43083 0.83611 0.0
C86 C 0.15989 0.41356 0.81919 0.0
C87 C 0.10417 0.36026 0.84836 0.0
C88 C 0.13954 0.37758 0.86535 0.0
C89 C 0.07795 0.36289 0.80722 0.0
O90 O 0.95903 0.27398 0.83173 0.0
O91 O 0.89522 0.20453 0.81951 0.0
O92 O 0.93254 0.19346 0.77116 0.0
O93 O -0.01388 0.22888 0.80025 0.0
O94 O 0.82527 0.2138 0.77011 0.0
O95 O 0.83039 0.15367 0.78329 0.0
O96 O 0.923 0.25182 0.74801 0.0
O97 O 0.00083 0.29132 0.7591 0.0
O98 O 0.96134 0.33564 0.78244 0.0
O99 O 0.89158 0.2848 0.79861 0.0
C100 C 0.92186 0.23221 0.83656 0.0
O101 O 0.06817 0.32423 0.79584 0.0
O102 O 0.04042 0.36511 0.8127 0.0
C103 C 0.97019 0.19984 0.78231 0.0
C104 C 0.77022 0.13871 0.75599 0.0
C105 C 0.70473 0.08467 0.72119 0.0
C106 C 0.75255 0.09871 0.71826 0.0
C107 C 0.78514 0.12572 0.73554 0.0
C108 C 0.72272 0.12448 0.75911 0.0
C109 C 0.69019 0.09769 0.74186 0.0
C110 C 0.80317 0.16819 0.77416 0.0
C111 C 0.96843 0.27408 0.74256 0.0
H112 H 0.23003 0.45849 0.83105 0.0
H113 H 0.16806 0.42804 0.80138 0.0
H114 H 0.06904 0.33301 0.85325 0.0
H115 H 0.13113 0.3628 0.88308 0.0
H116 H 0.76474 0.08863 0.70267 0.0
H117 H 0.82183 0.13661 0.73291 0.0
H118 H 0.71083 0.13458 0.77481 0.0
H119 H 0.65384 0.08801 0.74452 0.0
Tb120 Tb 0.73695 0.95485 0.1174 0.0
Tb121 Tb 0.81066 0.06382 0.13369 0.0
C122 C 0.70439 0.02521 0.13162 0.0
C123 C 0.64903 0.8519 1.08386 0.0
C124 C 0.60015 0.8097 1.04195 0.0
C125 C 0.58531 0.7854 1.06375 0.0
C126 C 0.60976 0.80633 1.08454 0.0
C127 C 0.66217 0.87738 1.06251 0.0
C128 C 0.63824 0.85645 1.04177 0.0
C129 C 0.67779 0.87185 0.10502 0.0
O130 O 0.76387 -0.00747 1.08325 0.0
O131 O 0.79768 0.06998 1.09599 0.0
O132 O 0.8492 0.0398 0.11197 0.0
O133 O 0.80529 0.96239 0.12231 0.0
O134 O 0.82658 0.13461 0.1325 0.0
O135 O 0.87176 0.11439 0.15082 0.0
O136 O 0.80757 0.02009 0.16415 0.0
O137 O 0.73848 0.95165 0.1564 0.0
O138 O 0.70325 -0.00272 0.11475 0.0
O139 O 0.7408 0.04603 0.14548 0.0
C140 C 0.78424 0.03863 1.07875 0.0
O141 O 0.7229 0.89096 0.10165 0.0
O142 O 0.66745 0.8983 0.11819 0.0
C143 C 0.8413 -0.0039 0.1111 0.0
C144 C 0.86323 0.17703 0.16638 0.0
C145 C 0.8616 0.23363 0.20349 0.0
C146 C 0.89366 0.25404 0.18462 0.0
C147 C 0.89441 0.22591 0.1662 0.0
C148 C 0.83083 0.15642 0.18499 0.0
C149 C 0.8301 0.18451 0.20347 0.0
C150 C 0.86265 0.14849 0.14629 0.0
C151 C 0.77294 0.97834 0.17095 0.0
H152 H 0.55579 0.74971 1.06467 0.0
H153 H 0.59889 0.7864 0.10099 0.0
H154 H 0.69226 0.91278 1.06167 0.0
H155 H 0.65157 0.8762 1.02541 0.0
H156 H 0.91891 0.2916 0.18434 0.0
H157 H 0.9193 0.24233 0.1518 0.0
H158 H 0.806 0.11871 0.18514 0.0
H159 H 0.80484 0.16786 0.21769 0.0
Tb160 Tb 0.7792 0.83987 0.46939 0.0
Tb161 Tb 0.8383 0.78785 0.45121 0.0
C162 C 0.73043 0.72838 0.46728 0.0
C163 C 0.6989 0.87364 0.49931 0.0
C164 C 0.6294 0.86083 0.53269 0.0
C165 C 0.62005 0.85827 0.50834 0.0
C166 C 0.65457 0.86482 0.49182 0.0
C167 C 0.70795 0.87502 0.52361 0.0
C168 C 0.67368 0.86891 0.54009 0.0
C169 C 0.73511 0.8816 0.48156 0.0
O170 O 0.79861 0.818 0.50223 0.0
O171 O 0.86201 0.81462 0.48729 0.0
O172 O 0.87418 0.85854 0.43567 0.0
O173 O 0.85286 0.88985 0.46532 0.0
O174 O 0.84879 0.72968 0.45625 0.0
O175 O 0.89399 0.78727 0.43303 0.0
O176 O 0.80265 0.78922 0.41849 0.0
O177 O 0.77697 0.84047 0.43044 0.0
O178 O 0.73029 0.76612 0.47523 0.0
O179 O 0.7664 0.73011 0.45604 0.0
C180 C 0.83761 0.81651 0.5055 0.0
O181 O 0.77692 0.89325 0.4892 0.0
O182 O 0.72175 0.85044 0.46468 0.0
C183 C 0.87381 0.89511 0.44499 0.0
C184 C 0.87303 0.71048 0.42054 0.0
C185 C 0.85532 0.65772 0.37861 0.0
C186 C 0.90082 0.69463 0.3838 0.0
C187 C 0.90955 0.72055 0.4046 0.0
C188 C 0.82827 0.67159 0.41629 0.0
C189 C 0.81962 0.64523 0.39559 0.0
C190 C 0.88085 0.74404 0.43976 0.0
C191 C 0.78523 0.81736 0.41362 0.0
H192 H 0.58631 0.8518 0.50202 0.0
H193 H 0.64677 0.86344 0.47313 0.0
H194 H 0.74173 0.88166 0.52996 0.0
H195 H 0.6827 0.87233 0.55866 0.0
H196 H 0.92918 0.70596 0.37109 0.0
H197 H 0.94428 0.75038 0.40753 0.0
H198 H 0.79935 0.66286 0.42835 0.0
H199 H 0.78442 0.61657 0.39239 0.0
Tb200 Tb 0.0816 0.85193 0.78869 0.0
Tb201 Tb 0.00239 0.88152 0.79929 0.0
C202 C -0.01422 0.77977 0.80891 0.0
C203 C 0.1661 0.83088 0.75646 0.0
C204 C 0.21933 0.85397 0.71437 0.0
C205 C 0.23862 0.85026 0.73593 0.0
C206 C 0.21212 0.83877 0.75685 0.0
C207 C 0.14616 0.83255 0.73485 0.0
C208 C 0.1724 0.8438 0.71403 0.0
C209 C 0.14104 0.82694 0.77866 0.0
O210 O 0.03668 0.833 0.75658 0.0
O211 O 0.00932 0.88505 0.76099 0.0
O212 O 0.06804 0.94729 0.79266 0.0
O213 O 0.10641 0.91819 0.77016 0.0
O214 O 0.93861 0.87609 0.78922 0.0
O215 O 0.9758 0.91739 0.8195 0.0
O216 O 0.02956 0.87867 0.83417 0.0
O217 O 0.10167 0.89071 0.8226 0.0
O218 O 0.03076 0.79954 0.81263 0.0
O219 O 0.96828 0.80417 0.79907 0.0
C220 C 0.01586 0.85572 0.74775 0.0
O221 O 0.15171 0.86739 0.78836 0.0
O222 O 0.09579 0.79818 0.77845 0.0
C223 C 0.10171 0.95352 0.77782 0.0
C224 C 0.89269 0.87541 0.82174 0.0
C225 C 0.81012 0.82989 0.84941 0.0
C226 C 0.8494 0.87153 0.85741 0.0
C227 C 0.89018 0.89413 0.84368 0.0
C228 C 0.85293 0.83443 0.81344 0.0
C229 C 0.81204 0.81193 0.82715 0.0
C230 C 0.93665 0.89873 0.80774 0.0
C231 C 0.07361 0.89219 0.83903 0.0
H232 H 0.27461 0.85778 0.73674 0.0
H233 H 0.22815 0.83801 0.77344 0.0
H234 H 0.11096 0.82737 0.73419 0.0
H235 H 0.15666 0.84737 0.69791 0.0
H236 H 0.8486 0.88668 0.87432 0.0
H237 H 0.91995 0.92604 0.85034 0.0
H238 H 0.85345 0.8193 0.79648 0.0
H239 H 0.78236 0.77984 0.82059 0.0
C240 C 0.89867 0.0194 1.07803 0.0
C241 C 0.86308 0.9834 1.09168 0.0
C242 C 0.91715 0.00838 1.0585 0.0
C243 C 0.94319 0.91717 1.04399 0.0
H244 H 0.03402 0.03646 1.01576 0.0
C245 C 0.08232 0.02952 1.09718 0.0
C246 C 0.12281 0.07096 1.0901 0.0
C247 C 0.05198 -0.00167 1.08041 0.0
C248 C 0.00946 0.00169 1.02272 0.0
H249 H 0.81657 0.90734 1.09453 0.0
H250 H 0.84969 0.88786 1.06053 0.0
H251 H 0.95139 0.00906 1.01155 0.0
H252 H 0.16284 0.11272 1.05966 0.0
H253 H 0.10953 0.05803 1.03027 0.0
H254 H 0.00123 0.91033 1.0558 0.0
C255 C 0.86346 0.92478 1.06502 0.0
C256 C 0.96163 0.98592 1.02039 0.0
C257 C 0.84499 0.93594 1.08475 0.0
C258 C 0.13178 0.08102 1.06574 0.0
C259 C 0.10157 0.04941 1.04885 0.0
C260 C -0.0092 0.93138 1.04518 0.0
C261 C 0.90075 0.96081 1.05195 0.0
C262 C 0.93005 0.94986 1.03575 0.0
C263 C 0.06118 0.00756 1.05597 0.0
C264 C 0.02376 0.97829 1.03883 0.0
H265 H 0.91283 0.05638 1.08256 0.0
H266 H 0.94639 0.03762 1.0495 0.0
H267 H 0.91906 0.88605 1.05406 0.0
H268 H 0.07421 0.02076 0.11575 0.0
H269 H 0.02033 0.96769 1.08685 0.0
C270 C 0.84243 0.94616 0.43032 0.0
C271 C 0.87594 0.93139 0.42851 0.0
C272 C 0.84066 0.97673 0.41354 0.0
C273 C 0.91152 0.05559 0.36225 0.0
H274 H 0.90582 0.14605 0.40436 0.0
C275 C 0.06146 0.17704 0.40558 0.0
C276 C 0.06503 0.21416 0.41962 0.0
C277 C 0.0257 0.15554 0.38914 0.0
C278 C 0.90691 0.12181 0.3916 0.0
H279 H 0.93222 0.93493 0.40707 0.0
H280 H 0.93387 -0.00668 0.37956 0.0
H281 H 0.85206 0.06396 0.40986 0.0
H282 H 0.03718 0.26161 0.42549 0.0
H283 H 0.97326 0.2226 0.39726 0.0
H284 H 0.97092 0.1146 0.34614 0.0
C285 C 0.90674 0.97943 0.39302 0.0
C286 C 0.87573 0.07369 0.3949 0.0
C287 C 0.90692 0.94688 0.40922 0.0
C288 C 0.03434 0.23192 0.41549 0.0
C289 C -0.00175 0.21019 0.39902 0.0
C290 C 0.94315 0.10394 0.35917 0.0
C291 C 0.87437 -0.00402 0.39531 0.0
C292 C 0.88286 0.04004 0.38263 0.0
C293 C -0.00782 0.17027 0.38645 0.0
C294 C 0.94579 0.13599 0.37658 0.0
H295 H 0.81664 0.93321 0.44446 0.0
H296 H 0.81383 0.98659 0.41552 0.0
H297 H 0.91493 0.03062 0.35094 0.0
H298 H 0.08549 0.16351 0.4077 0.0
H299 H 0.02227 0.12467 0.38008 0.0
C300 C 0.14363 0.00488 0.74311 0.0
C301 C 0.13084 0.00054 0.76714 0.0
C302 C 0.1603 0.04836 0.73141 0.0
C303 C 0.18147 0.17113 0.74059 0.0
H304 H 0.05893 0.11685 0.71179 0.0
C305 C 0.04263 0.19372 0.78209 0.0
C306 C 0.00328 0.18883 0.77005 0.0
C307 C 0.07811 0.191 0.7699 0.0
C308 C 0.09399 0.1339 0.719 0.0
H309 H 0.13223 0.03867 0.79868 0.0
H310 H 0.16161 0.11431 0.7786 0.0
H311 H 0.10224 0.07509 0.7096 0.0
H312 H 0.97052 0.17802 0.73561 0.0
H313 H 0.03264 0.17304 0.71427 0.0
H314 H 0.17088 0.22787 0.75194 0.0
C315 C 0.15867 0.08468 0.76851 0.0
C316 C 0.11924 0.10989 0.71761 0.0
C317 C 0.14101 0.04115 0.78003 0.0
C318 C 2e-05 0.18097 0.74549 0.0
C319 C 0.03591 0.1788 0.73319 0.0
C320 C 0.15654 0.19558 0.7417 0.0
C321 C 0.16497 0.08789 0.74376 0.0
C322 C 0.15983 0.12513 0.73127 0.0
C323 C 0.07542 0.18379 0.74527 0.0
C324 C 0.1101 0.17393 0.7335 0.0
H325 H 0.13645 0.9739 0.73286 0.0
H326 H 0.16482 0.04987 0.71237 0.0
H327 H 0.21364 0.18443 0.75055 0.0
H328 H 0.04628 0.20011 0.80096 0.0
H329 H 0.10707 0.19325 0.78002 0.0
C330 C 0.39605 0.39237 1.02156 0.0
C331 C 0.35945 0.3796 1.03798 0.0
C332 C 0.3996 0.41983 1.00171 0.0
C333 C 0.34764 0.48686 0.9729 0.0
H334 H 0.33951 0.41093 0.9185 0.0
C335 C 0.21366 0.44063 0.90044 0.0
C336 C 0.22289 0.43154 0.87737 0.0
C337 C 0.24768 0.45413 0.91792 0.0
C338 C 0.34296 0.43364 0.93323 0.0
H339 H 0.30105 0.38927 1.04805 0.0
H340 H 0.30663 0.43638 1.01343 0.0
H341 H 0.37223 0.40124 0.95502 0.0
H342 H 0.2758 0.4318 0.85415 0.0
H343 H 0.33543 0.45562 0.88475 0.0
H344 H 0.31504 0.51667 0.95142 0.0
C345 C 0.3328 0.42565 1.01571 0.0
C346 C 0.36189 0.42814 0.95425 0.0
C347 C 0.32911 0.39808 1.0354 0.0
C348 C 0.26769 0.4386 0.8718 0.0
C349 C 0.30176 0.45206 0.88931 0.0
C350 C 0.32867 0.49237 0.95185 0.0
C351 C 0.36679 0.43511 0.99813 0.0
C352 C 0.36181 0.45261 0.97468 0.0
C353 C 0.2917 0.45882 0.91269 0.0
C354 C 0.32367 0.46376 0.93226 0.0
H355 H 0.41998 0.37862 1.02326 0.0
H356 H 0.42636 0.42689 0.98853 0.0
H357 H 0.34805 0.50689 0.98827 0.0
H358 H 0.17973 0.43629 0.90514 0.0
H359 H 0.23851 0.45839 0.93581 0.0
C360 C 0.01935 0.43308 0.37996 0.0
C361 C 0.06317 0.43878 0.3734 0.0
C362 C -0.01303 0.42821 0.36262 0.0
C363 C 0.9177 0.37035 0.32458 0.0
H364 H 0.95541 0.41563 0.2603 0.0
C365 C 0.8625 0.24686 0.24702 0.0
C366 C 0.86358 0.26315 0.22387 0.0
C367 C 0.87197 0.27709 0.26618 0.0
C368 C 0.94334 0.40314 0.27814 0.0
H369 H 0.10952 0.44893 0.34388 0.0
H370 H 0.0533 0.43948 0.31376 0.0
H371 H 0.00414 0.4617 0.29298 0.0
H372 H 0.87099 0.32242 0.20276 0.0
H373 H 0.88738 0.37542 0.23635 0.0
H374 H 0.85759 0.31108 0.3097 0.0
C375 C 0.04351 0.43905 0.33211 0.0
C376 C 0.9717 0.4294 0.2969 0.0
C377 C 0.07567 0.44385 0.34938 0.0
C378 C 0.87088 0.30924 0.22041 0.0
C379 C 0.88014 0.33952 0.23963 0.0
C380 C 0.88901 0.34441 0.30584 0.0
C381 C -0.00198 0.42908 0.33848 0.0
C382 C 0.96094 0.41148 0.32015 0.0
C383 C 0.88256 0.32434 0.26267 0.0
C384 C 0.9033 0.35876 0.28233 0.0
H385 H 0.0089 0.42915 0.3984 0.0
H386 H 0.95245 0.42116 0.3681 0.0
H387 H 0.908 0.35553 0.34225 0.0
H388 H 0.8574 0.21169 0.25027 0.0
H389 H 0.87427 0.26423 0.28355 0.0
C390 C 0.62553 0.01946 0.70861 0.0
C391 C 0.67028 0.05709 0.70262 0.0
C392 C 0.59408 -0.00773 0.69094 0.0
C393 C 0.57725 0.9875 0.62537 0.0
H394 H 0.52825 0.85275 0.63451 0.0
C395 C 0.57076 0.88432 0.54608 0.0
C396 C 0.59553 0.86005 0.55045 0.0
C397 C 0.54948 0.89493 0.56473 0.0
C398 C 0.54144 0.89025 0.6316 0.0
H399 H 0.71608 0.09729 0.67347 0.0
H400 H 0.66263 0.04904 0.64284 0.0
H401 H 0.55454 0.90495 0.66844 0.0
H402 H 0.61013 0.82066 0.5769 0.0
H403 H 0.57667 0.84186 0.60942 0.0
H404 H 0.56999 0.97427 0.58848 0.0
C405 C 0.65105 0.04082 0.66108 0.0
C406 C 0.55596 0.92022 0.65118 0.0
C407 C 0.68225 0.06801 0.67867 0.0
C408 C 0.59306 0.84119 0.57314 0.0
C409 C 0.57283 0.85271 0.59183 0.0
C410 C 0.56388 0.95781 0.60579 0.0
C411 C 0.6068 0.00217 0.66695 0.0
C412 C 0.57728 0.96959 0.64801 0.0
C413 C 0.55375 0.88267 0.58814 0.0
C414 C 0.5493 0.90928 0.60852 0.0
H415 H 0.61531 0.01007 0.72694 0.0
H416 H 0.56026 0.96292 0.69607 0.0
H417 H 0.59167 0.02521 0.62246 0.0
H418 H 0.57118 0.89879 0.52873 0.0
H419 H 0.5333 0.91629 0.56099 0.0
C420 C 0.58114 0.81086 0.99905 0.0
C421 C 0.58106 0.78506 1.01909 0.0
C422 C 0.57902 0.79301 0.9764 0.0
C423 C 0.61865 0.71502 0.95098 0.0
H424 H 0.6165 0.78159 0.89437 0.0
C425 C 0.77295 0.79884 0.88886 0.0
C426 C 0.76789 0.8048 0.86466 0.0
C427 C 0.73389 0.77767 0.90371 0.0
C428 C 0.61649 0.76161 0.90976 0.0
H429 H 0.56939 0.71632 1.03107 0.0
H430 H 0.56198 0.68395 0.9918 0.0
H431 H 0.56558 0.7733 0.92758 0.0
H432 H 0.71773 0.7918 0.83684 0.0
H433 H 0.64888 0.75441 0.863 0.0
H434 H 0.66974 0.70369 0.93322 0.0
C435 C 0.56707 0.7194 0.99343 0.0
C436 C 0.58769 0.75739 0.929 0.0
C437 C 0.57059 0.73782 1.0161 0.0
C438 C 0.72261 0.78759 0.85545 0.0
C439 C 0.68329 0.7664 0.87041 0.0
C440 C 0.64661 0.71843 0.93164 0.0
C441 C 0.57549 0.74832 0.97331 0.0
C442 C 0.59116 0.73731 0.95053 0.0
C443 C 0.6886 0.7617 0.89478 0.0
C444 C 0.64848 0.74486 0.91154 0.0
H445 H 0.58699 0.8466 1.00071 0.0
H446 H 0.58494 0.81652 0.96157 0.0
H447 H 0.62251 0.69887 0.96696 0.0
H448 H 0.80731 0.81109 0.8964 0.0
H449 H 0.73953 0.77556 0.92244 0.0
C450 C 0.8032 0.63163 0.34305 0.0
C451 C 0.84428 0.63834 0.35422 0.0
C452 C 0.79926 0.6281 0.31847 0.0
C453 C 0.86833 0.6375 0.26327 0.0
H454 H 0.83521 0.73348 0.24752 0.0
C455 C 0.95592 0.76319 0.18472 0.0
C456 C 0.97571 0.81101 0.19133 0.0
C457 C 0.9214 0.72728 0.1988 0.0
C458 C 0.84434 0.7064 0.2515 0.0
H459 H 0.90953 0.63812 0.34866 0.0
H460 H 0.90434 0.63528 0.306 0.0
H461 H 0.80649 0.689 0.28398 0.0
H462 H 0.9731 0.85882 0.21713 0.0
H463 H 0.91363 0.79665 0.24177 0.0
H464 H 0.91049 0.659 0.23189 0.0
C465 C 0.87478 0.63237 0.31595 0.0
C466 C 0.82721 0.68012 0.27234 0.0
C467 C 0.87824 0.63485 0.34055 0.0
C468 C 0.95827 0.82238 0.21145 0.0
C469 C 0.92392 0.78657 0.22554 0.0
C470 C 0.88608 0.66438 0.24256 0.0
C471 C 0.83675 0.63239 0.30452 0.0
C472 C 0.84143 0.64744 0.27925 0.0
C473 C 0.90603 0.73852 0.21976 0.0
C474 C 0.87657 0.70115 0.23726 0.0
H475 H 0.77591 0.63358 0.35293 0.0
H476 H 0.76861 0.62628 0.31033 0.0
H477 H 0.87879 0.61157 0.26763 0.0
H478 H 0.96812 0.75345 0.16902 0.0
H479 H 0.90789 0.6907 0.19369 0.0
C480 C 0.29326 0.9151 0.69451 0.0
C481 C 0.24888 0.87432 0.69287 0.0
C482 C 0.31541 0.94209 0.67431 0.0
C483 C 0.30059 0.949 0.60867 0.0
H484 H 0.33409 0.07834 0.62369 0.0
C485 C 0.2984 0.07499 0.5373 0.0
C486 C 0.27437 0.09876 0.54433 0.0
C487 C 0.31261 0.05298 0.55408 0.0
C488 C 0.32499 0.04241 0.61914 0.0
H489 H 0.19615 0.82624 0.66848 0.0
H490 H 0.2333 0.87394 0.63358 0.0
H491 H 0.329 0.02504 0.6551 0.0
H492 H 0.24875 0.12026 0.57459 0.0
H493 H 0.27176 0.08061 0.60367 0.0
H494 H 0.29222 0.9654 0.573 0.0
C495 C 0.25157 0.88538 0.65025 0.0
C496 C 0.32283 0.01188 0.63716 0.0
C497 C 0.22978 0.85817 0.67037 0.0
C498 C 0.26647 0.10158 0.56855 0.0
C499 C 0.28045 0.07946 0.58527 0.0
C500 C 0.30215 0.97943 0.59068 0.0
C501 C 0.29332 0.9291 0.65216 0.0
C502 C 0.30831 0.96408 0.63234 0.0
C503 C 0.30301 0.05421 0.57824 0.0
C504 C 0.31209 0.02579 0.59595 0.0
H505 H 0.30913 0.92846 0.71157 0.0
H506 H 0.34822 0.97486 0.67634 0.0
H507 H 0.29045 0.91278 0.60422 0.0
H508 H 0.30482 0.07192 0.51876 0.0
H509 H 0.33026 0.0342 0.54808 0.0
C510 C 0.34482 0.04249 0.1271 0.0
C511 C 0.34397 0.08231 0.13612 0.0
C512 C 0.38568 0.03955 0.12804 0.0
C513 C 0.49662 0.08112 0.15845 0.0
H514 H 0.53455 0.04787 1.09979 0.0
C515 C 0.66824 0.07156 0.14802 0.0
C516 C 0.66458 0.0339 0.1343 0.0
C517 C 0.63081 0.08063 0.14927 0.0
C518 C 0.52423 0.05671 0.11638 0.0
H519 H 0.38487 0.14956 0.15395 0.0
H520 H 0.45648 0.14396 0.15583 0.0
H521 H 0.46549 0.05718 1.10051 0.0
H522 H 0.61835 0.97504 0.11197 0.0
H523 H 0.5532 -0.00992 0.11458 0.0
H524 H 0.55481 0.07938 0.17447 0.0
C525 C 0.42538 0.11528 0.14794 0.0
C526 C 0.48478 0.06217 0.11675 0.0
C527 C 0.38452 0.11852 0.14677 0.0
C528 C 0.62254 0.00476 0.12243 0.0
C529 C 0.58523 0.01357 0.12381 0.0
C530 C 0.53603 0.07521 0.15815 0.0
C531 C 0.42645 0.07612 0.13821 0.0
C532 C 0.47016 0.07364 0.13784 0.0
C533 C 0.58912 0.05203 0.13689 0.0
C534 C 0.5497 0.06207 0.13717 0.0
H535 H 0.3142 0.01394 0.11882 0.0
H536 H 0.3855 0.0087 0.12068 0.0
H537 H 0.4859 0.08994 0.17494 0.0
H538 H 0.70029 0.09463 0.15735 0.0
H539 H 0.63492 0.11065 0.15943 0.0
C540 C 0.33839 0.42325 0.48361 0.0
C541 C 0.32158 0.37465 0.48043 0.0
C542 C 0.38599 0.45413 0.4872 0.0
C543 C 0.49821 0.4743 0.46926 0.0
H544 H 0.5441 0.57104 0.51764 0.0
C545 C 0.64743 0.6808 0.48108 0.0
C546 C 0.68751 0.68202 0.47139 0.0
C547 C 0.60678 0.63784 0.48534 0.0
C548 C 0.5319 0.54434 0.50397 0.0
H549 H 0.34082 0.31979 0.47888 0.0
H550 H 0.42516 0.37465 0.48435 0.0
H551 H 0.46427 0.50448 0.52034 0.0
H552 H 0.7161 0.63858 0.4586 0.0
H553 H 0.64459 0.56292 0.4663 0.0
H554 H 0.56459 0.51583 0.45194 0.0
C555 C 0.40108 0.38839 0.48451 0.0
C556 C 0.48637 0.5061 0.50567 0.0
C557 C 0.35302 0.35714 0.48152 0.0
C558 C 0.68581 0.63891 0.46604 0.0
C559 C 0.64486 0.59559 0.47042 0.0
C560 C 0.54371 0.51301 0.46738 0.0
C561 C 0.41789 0.43719 0.48714 0.0
C562 C 0.46864 0.4716 0.48795 0.0
C563 C 0.60491 0.59464 0.48023 0.0
C564 C 0.5604 0.5494 0.48427 0.0
H565 H 0.31479 0.43755 0.48282 0.0
H566 H 0.39817 0.49168 0.48896 0.0
H567 H 0.4851 0.44822 0.45529 0.0
H568 H 0.64709 0.71316 0.48525 0.0
H569 H 0.57639 0.63867 0.49226 0.0
C570 C 0.87435 0.36318 0.80706 0.0
C571 C 0.91005 0.36627 0.79208 0.0
C572 C 0.86707 0.402 0.80957 0.0
C573 C 0.89237 0.51549 0.78142 0.0
H574 H 0.89662 0.55982 0.84544 0.0
C575 C 0.91756 0.70088 0.7982 0.0
C576 C 0.95698 0.72793 0.81235 0.0
C577 C 0.89683 0.65138 0.79781 0.0
C578 C 0.89479 0.5476 0.82747 0.0
H579 H 0.96477 0.41161 0.76727 0.0
H580 H 0.95183 0.47878 0.77145 0.0
H581 H 0.88884 0.48183 0.83896 0.0
H582 H 0.00294 0.7244 0.83871 0.0
H583 H 0.96668 0.63848 0.83823 0.0
H584 H 0.90088 0.58213 0.76987 0.0
C585 C 0.92943 0.44655 0.78127 0.0
C586 C 0.89003 0.50284 0.82376 0.0
C587 C 0.93711 0.40816 0.77903 0.0
C588 C 0.97276 0.70447 0.82752 0.0
C589 C 0.95175 0.65515 0.82736 0.0
C590 C 0.89677 0.56003 0.78512 0.0
C591 C 0.89482 0.44421 0.7968 0.0
C592 C 0.89056 0.48712 0.80069 0.0
C593 C 0.91474 0.62815 0.81183 0.0
C594 C 0.89978 0.57731 0.80818 0.0
H595 H 0.85296 0.33133 0.81735 0.0
H596 H 0.84009 0.39921 0.82163 0.0
H597 H 0.89236 0.50403 0.76344 0.0
H598 H 0.90469 0.71802 0.78629 0.0
H599 H 0.86809 0.63143 0.78581 0.0
C600 C 0.20062 0.10568 0.21513 0.0
C601 C 0.21753 0.13751 0.19578 0.0
C602 C 0.1985 0.12139 0.23817 0.0
C603 C 0.20438 0.22585 0.2713 0.0
H604 H 0.22214 0.16391 0.32576 0.0
C605 C 0.18322 0.27713 0.36845 0.0
C606 C 0.21007 0.27254 0.3866 0.0
C607 C 0.18362 0.2611 0.34527 0.0
C608 C 0.21759 0.18226 0.31086 0.0
H609 H 0.24589 0.21154 0.1862 0.0
H610 H 0.24324 0.23872 0.22584 0.0
H611 H 0.22444 0.13589 0.28624 0.0
H612 H 0.25931 0.24799 0.3939 0.0
H613 H 0.2613 0.22188 0.35386 0.0
H614 H 0.19906 0.2732 0.29588 0.0
C615 C 0.23042 0.20126 0.22336 0.0
C616 C 0.21816 0.16548 0.28794 0.0
C617 C 0.23229 0.18556 0.20039 0.0
C618 C 0.23802 0.25226 0.38059 0.0
C619 C 0.23872 0.23662 0.35745 0.0
C620 C 0.20402 0.24277 0.29422 0.0
C621 C 0.21342 0.1696 0.24281 0.0
C622 C 0.21176 0.18699 0.2676 0.0
C623 C 0.21109 0.24006 0.3393 0.0
C624 C 0.21082 0.22151 0.31455 0.0
H625 H 0.18872 0.06842 0.21249 0.0
H626 H 0.1845 0.09534 0.2523 0.0
H627 H 0.19847 0.24332 0.25644 0.0
H628 H 0.16064 0.29181 0.37231 0.0
H629 H 0.16122 0.26412 0.3322 0.0
C630 C 0.1274 0.32258 0.53624 0.0
C631 C 0.13349 0.28511 0.52781 0.0
C632 C 0.10794 0.32053 0.55886 0.0
C633 C 0.08608 0.26056 0.61817 0.0
H634 H -0.00017 0.30815 0.62778 0.0
C635 C 0.03194 0.28834 0.71267 0.0
C636 C -0.01508 0.27601 0.71728 0.0
C637 C 0.04812 0.28827 0.68959 0.0
C638 C 0.02365 0.29442 0.62549 0.0
H639 H 0.12362 0.21599 0.53732 0.0
H640 H 0.09061 0.21276 0.57661 0.0
H641 H 0.03157 0.31037 0.58818 0.0
H642 H 0.9183 0.254 0.70032 0.0
H643 H 0.94683 0.25501 0.65987 0.0
H644 H 0.07849 0.24487 0.65543 0.0
C645 C 0.10085 0.24392 0.56571 0.0
C646 C 0.04234 0.29613 0.60268 0.0
C647 C 0.11972 0.24569 0.54298 0.0
C648 C 0.95474 0.26401 0.69768 0.0
C649 C 0.97124 0.26469 0.67438 0.0
C650 C 0.06793 0.25945 0.64099 0.0
C651 C 0.09437 0.28121 0.5741 0.0
C652 C 0.07398 0.27924 0.59856 0.0
C653 C 0.01823 0.27646 0.66993 0.0
C654 C 0.03641 0.27644 0.64515 0.0
H655 H 0.13731 0.35357 0.52525 0.0
H656 H 0.10418 0.35029 0.56454 0.0
H657 H 0.11045 0.24746 0.61602 0.0
H658 H 0.05657 0.29743 0.72706 0.0
H659 H 0.08455 0.29806 0.68716 0.0
C660 C 0.86509 0.17413 0.86692 0.0
C661 C 0.90897 0.21428 0.86181 0.0
C662 C 0.85239 0.15582 0.89008 0.0
C663 C 0.88611 0.18409 0.95462 0.0
H664 H 0.79881 0.04993 0.96272 0.0
C665 C 0.80876 0.1044 1.04808 0.0
C666 C 0.79576 0.057 1.05355 0.0
C667 C 0.82247 0.12301 1.02499 0.0
C668 C 0.82363 0.08742 0.96108 0.0
H669 H 0.97386 0.26635 0.87791 0.0
H670 H 0.95245 0.23397 0.91814 0.0
H671 H 0.82424 0.08268 0.92329 0.0
H672 H 0.78784 -0.00761 1.03831 0.0
H673 H 0.81263 0.0247 0.9984 0.0
H674 H 0.887 0.18843 0.99248 0.0
C675 C 0.9271 0.21692 0.90422 0.0
C676 C 0.83784 0.10667 0.9381 0.0
C677 C 0.93968 0.2356 0.88094 0.0
C678 C 0.79686 0.0288 1.03492 0.0
C679 C 0.81113 0.04759 1.01181 0.0
C680 C 0.8722 0.16475 0.97763 0.0
C681 C 0.88315 0.17639 0.90931 0.0
C682 C 0.86911 0.15557 0.93426 0.0
C683 C 0.82447 0.09527 1.0063 0.0
C684 C 0.84031 0.11597 0.98144 0.0
H685 H 0.83998 0.15664 0.85294 0.0
H686 H 0.81781 0.12558 0.89282 0.0
H687 H 0.90982 0.22184 0.95291 0.0
H688 H 0.80838 0.12749 1.06175 0.0
H689 H 0.83116 0.15937 1.02187 0.0
C690 C 0.80789 -0.01052 0.21222 0.0
C691 C 0.77326 0.96069 0.19579 0.0
C692 C 0.80874 0.97305 0.23529 0.0
C693 C 0.7631 0.86164 0.27251 0.0
H694 H 0.8024 0.94964 0.32477 0.0
C695 C 0.79198 0.80972 0.36879 0.0
C696 C 0.78002 0.82896 0.38819 0.0
C697 C 0.79067 0.82435 0.34529 0.0
C698 C 0.79095 0.92421 0.31052 0.0
H699 H 0.71218 0.89122 0.19147 0.0
H700 H 0.71349 0.8628 0.23144 0.0
H701 H 0.80013 0.97725 0.28493 0.0
H702 H 0.75676 0.87895 0.39728 0.0
H703 H 0.75446 0.90391 0.35699 0.0
H704 H 0.75333 0.80845 0.29828 0.0
C705 C 0.74049 0.89818 0.22645 0.0
C706 C 0.79021 0.94036 0.28739 0.0
C707 C 0.73951 0.91472 0.20339 0.0
C708 C 0.76626 0.86293 0.3831 0.0
C709 C 0.76534 0.87778 0.35975 0.0
C710 C 0.76409 0.84552 0.29568 0.0
C711 C 0.77511 0.927 0.24293 0.0
C712 C 0.77611 0.90944 0.26785 0.0
C713 C 0.77784 0.85914 0.34031 0.0
C714 C 0.77777 0.87641 0.31522 0.0
H715 H 0.83468 0.02501 0.20728 0.0
H716 H 0.83646 -0.00353 0.24704 0.0
H717 H 0.75254 0.8365 0.25817 0.0
H718 H 0.80319 0.78388 0.37175 0.0
H719 H 0.80098 0.80918 0.33104 0.0
C720 C 0.83653 0.83009 0.54988 0.0
C721 C 0.85581 0.81879 0.5303 0.0
C722 C 0.85403 0.83276 0.57295 0.0
C723 C 0.95709 0.83858 0.60666 0.0
H724 H 0.87418 0.81188 0.66048 0.0
C725 C 0.01236 0.82733 0.70503 0.0
C726 C -0.00164 0.84869 0.72255 0.0
C727 C -0.00425 0.82237 0.68151 0.0
C728 C 0.89813 0.81982 0.64573 0.0
H729 H 0.90888 0.80086 0.52031 0.0
H730 H 0.93817 0.80395 0.56016 0.0
H731 H 0.8441 0.80573 0.62064 0.0
H732 H 0.95505 0.881 0.72848 0.0
H733 H 0.9262 0.87188 0.68826 0.0
H734 H 0.01087 0.85172 0.63207 0.0
C735 C 0.91025 0.81213 0.55783 0.0
C736 C 0.8808 0.81653 0.62261 0.0
C737 C 0.89307 0.80997 0.53473 0.0
C738 C 0.96696 0.86439 0.71573 0.0
C739 C 0.94996 0.85885 0.69249 0.0
C740 C 0.97429 0.84133 0.62983 0.0
C741 C 0.89125 0.8237 0.57751 0.0
C742 C 0.90992 0.82626 0.60249 0.0
C743 C 0.96396 0.83782 0.67485 0.0
C744 C 0.94526 0.83248 0.64985 0.0
H745 H 0.80811 0.83752 0.54738 0.0
H746 H 0.83858 0.84275 0.58716 0.0
H747 H -0.0186 0.84722 0.59203 0.0
H748 H 0.03649 0.81484 0.70941 0.0
H749 H 0.00733 0.80577 0.6686 0.0
C750 C 0.13624 0.91897 0.87107 0.0
C751 C 0.09199 0.9108 0.86347 0.0
C752 C 0.15337 0.93737 0.89377 0.0
C753 C 0.13904 0.0056 0.94355 0.0
H754 H 0.20319 0.95518 0.98098 0.0
C755 C 0.22882 0.08864 1.03454 0.0
C756 C 0.22049 0.05641 1.05322 0.0
C757 C 0.21553 0.07265 1.01108 0.0
C758 C 0.18536 0.96981 0.97084 0.0
H759 H 0.03156 0.91646 0.87438 0.0
H760 H 0.06141 0.9487 0.91348 0.0
H761 H 0.1751 0.92386 0.94145 0.0
H762 H 0.19246 0.98171 1.06115 0.0
H763 H 0.17093 0.95445 1.02065 0.0
H764 H 0.14925 0.05147 0.97303 0.0
C765 C 0.08306 0.9409 0.90192 0.0
C766 C 0.16948 0.95199 0.94795 0.0
C767 C 0.06568 0.92192 0.8794 0.0
C768 C 0.19986 0.00793 1.04743 0.0
C769 C 0.18744 -0.00787 1.02402 0.0
C770 C 0.15557 0.02393 0.96631 0.0
C771 C 0.12723 0.949 0.90959 0.0
C772 C 0.14563 0.96922 0.93392 0.0
C773 C 0.19439 0.024 1.00541 0.0
C774 C 0.17871 0.00611 0.98049 0.0
H775 H 0.15778 0.91112 0.85946 0.0
H776 H 0.18764 0.94327 0.89877 0.0
H777 H 0.1213 0.0203 0.9334 0.0
H778 H 0.24399 0.12611 1.03816 0.0
H779 H 0.22181 0.0985 0.99733 0.0
loop_
_geom_bond_atom_site_label_1
_geom_bond_atom_site_label_2
_geom_bond_distance
_geom_bond_site_symmetry_2
_ccdc_geom_bond_type
Tb0 C9 2.764 . S
Tb0 O10 2.325 1_565 S
Tb0 O13 2.303 . S
Tb0 O17 2.335 . S
Tb0 O18 2.349 . S
Tb0 O21 2.415 . S
Tb0 O22 2.399 . S
Tb1 O11 2.322 . S
Tb1 O12 2.349 . S
Tb1 O14 2.415 1_554 S
Tb1 O15 2.399 1_554 S
Tb1 O16 2.325 1_554 S
Tb1 O19 2.303 . S
Tb1 C30 2.764 1_554 S
C2 O18 1.261 1_545 S
C2 O19 1.257 . S
C3 C6 1.358 . S
C3 C7 1.332 . S
C3 C9 1.504 . S
C4 C5 1.373 . S
C4 C8 1.308 . S
C5 C4 1.373 . S
C5 C6 1.429 . S
C5 H32 0.932 . S
C6 C3 1.358 . S
C6 C5 1.429 . S
C6 H33 0.930 . S
C7 C3 1.332 . S
C7 C8 1.394 . S
C7 H34 0.932 . S
C8 C4 1.308 . S
C8 C7 1.394 . S
C8 H35 0.929 . S
C9 Tb0 2.764 . S
C9 C3 1.504 . S
C9 O21 1.239 . S
C9 O22 1.263 . S
O10 Tb0 2.325 1_545 S
O10 C20 1.236 . S
O11 Tb1 2.322 . S
O11 C20 1.257 . S
O12 Tb1 2.349 . S
O12 C23 1.261 . S
O13 Tb0 2.303 . S
O13 C23 1.257 1_565 S
O14 Tb1 2.415 1_556 S
O14 C30 1.239 . S
O15 Tb1 2.399 1_556 S
O15 C30 1.263 . S
O16 Tb1 2.325 1_556 S
O16 C31 1.236 1_545 S
O17 Tb0 2.335 . S
O17 C31 1.247 1_554 S
O18 Tb0 2.349 . S
O18 C2 1.261 1_565 S
O19 Tb1 2.303 . S
O19 C2 1.257 . S
C20 O10 1.236 . S
C20 O11 1.257 . S
O21 Tb0 2.415 . S
O21 C9 1.239 . S
O22 Tb0 2.399 . S
O22 C9 1.263 . S
C23 O12 1.261 . S
C23 O13 1.257 1_545 S
C24 C27 1.358 . S
C24 C28 1.332 . S
C24 C30 1.504 . S
C25 C26 1.373 . S
C25 C29 1.308 . S
C26 C25 1.373 . S
C26 C27 1.429 . S
C26 H36 0.932 . S
C27 C24 1.358 . S
C27 C26 1.429 . S
C27 H37 0.930 . S
C28 C24 1.332 . S
C28 C29 1.394 . S
C28 H38 0.932 . S
C29 C25 1.308 . S
C29 C28 1.394 . S
C29 H39 0.929 . S
C30 Tb1 2.764 1_556 S
C30 O14 1.239 . S
C30 O15 1.263 . S
C30 C24 1.504 . S
C31 O16 1.236 1_565 S
C31 O17 1.247 1_556 S
H32 C5 0.932 . S
H33 C6 0.930 . S
H34 C7 0.932 . S
H35 C8 0.929 . S
H36 C26 0.932 . S
H37 C27 0.930 . S
H38 C28 0.932 . S
H39 C29 0.929 . S
Tb40 C49 2.764 . S
Tb40 O50 2.325 . S
Tb40 O53 2.303 . S
Tb40 O57 2.322 . S
Tb40 O58 2.349 . S
Tb40 O61 2.415 . S
Tb40 O62 2.399 . S
Tb41 O51 2.322 . S
Tb41 O52 2.349 . S
Tb41 O54 2.415 . S
Tb41 O55 2.399 . S
Tb41 O56 2.325 . S
Tb41 O59 2.303 . S
Tb41 C70 2.764 . S
C42 O58 1.261 . S
C42 O59 1.257 . S
C43 C46 1.358 . S
C43 C47 1.332 . S
C43 C49 1.504 . S
C44 C45 1.373 . S
C44 C48 1.308 . S
C45 C44 1.373 . S
C45 C46 1.429 . S
C45 H72 0.932 . S
C46 C43 1.358 . S
C46 C45 1.429 . S
C46 H73 0.930 . S
C47 C43 1.332 . S
C47 C48 1.394 . S
C47 H74 0.932 . S
C48 C44 1.308 . S
C48 C47 1.394 . S
C48 H75 0.929 . S
C49 Tb40 2.764 . S
C49 C43 1.504 . S
C49 O61 1.239 . S
C49 O62 1.263 . S
O50 Tb40 2.325 . S
O50 C60 1.236 . S
O51 Tb41 2.322 . S
O51 C60 1.257 . S
O52 Tb41 2.349 . S
O52 C63 1.261 . S
O53 Tb40 2.303 . S
O53 C63 1.257 . S
O54 Tb41 2.415 . S
O54 C70 1.239 . S
O55 Tb41 2.399 . S
O55 C70 1.263 . S
O56 Tb41 2.325 . S
O56 C71 1.236 . S
O57 Tb40 2.322 . S
O57 C71 1.257 . S
O58 Tb40 2.349 . S
O58 C42 1.261 . S
O59 Tb41 2.303 . S
O59 C42 1.257 . S
C60 O50 1.236 . S
C60 O51 1.257 . S
O61 Tb40 2.415 . S
O61 C49 1.239 . S
O62 Tb40 2.399 . S
O62 C49 1.263 . S
C63 O52 1.261 . S
C63 O53 1.257 . S
C64 C67 1.358 . S
C64 C68 1.332 . S
C64 C70 1.504 . S
C65 C66 1.373 . S
C65 C69 1.308 . S
C66 C65 1.373 . S
C66 C67 1.429 . S
C66 H76 0.932 . S
C67 C64 1.358 . S
C67 C66 1.429 . S
C67 H77 0.930 . S
C68 C64 1.332 . S
C68 C69 1.394 . S
C68 H78 0.932 . S
C69 C65 1.308 . S
C69 C68 1.394 . S
C69 H79 0.929 . S
C70 Tb41 2.764 . S
C70 O54 1.239 . S
C70 O55 1.263 . S
C70 C64 1.504 . S
C71 O56 1.236 . S
C71 O57 1.257 . S
H72 C45 0.932 . S
H73 C46 0.930 . S
H74 C47 0.932 . S
H75 C48 0.929 . S
H76 C66 0.932 . S
H77 C67 0.930 . S
H78 C68 0.932 . S
H79 C69 0.929 . S
Tb80 C89 2.764 . S
Tb80 O90 2.325 . S
Tb80 O93 2.303 . S
Tb80 O97 2.322 . S
Tb80 O98 2.349 . S
Tb80 O101 2.415 . S
Tb80 O102 2.399 . S
Tb81 O91 2.322 . S
Tb81 O92 2.349 1_655 S
Tb81 O94 2.415 . S
Tb81 O95 2.399 . S
Tb81 O96 2.325 1_655 S
Tb81 O99 2.303 1_655 S
Tb81 C110 2.764 . S
C82 O98 1.261 . S
C82 O99 1.257 . S
C83 C86 1.358 . S
C83 C87 1.332 . S
C83 C89 1.504 . S
C84 C85 1.373 . S
C84 C88 1.308 . S
C85 C84 1.373 . S
C85 C86 1.429 . S
C85 H112 0.932 . S
C86 C83 1.358 . S
C86 C85 1.429 . S
C86 H113 0.930 . S
C87 C83 1.332 . S
C87 C88 1.394 . S
C87 H114 0.932 . S
C88 C84 1.308 . S
C88 C87 1.394 . S
C88 H115 0.929 . S
C89 Tb80 2.764 . S
C89 C83 1.504 . S
C89 O101 1.239 . S
C89 O102 1.263 . S
O90 Tb80 2.325 . S
O90 C100 1.236 . S
O91 Tb81 2.322 . S
O91 C100 1.257 1_655 S
O92 Tb81 2.349 1_455 S
O92 C103 1.261 . S
O93 Tb80 2.303 . S
O93 C103 1.257 . S
O94 Tb81 2.415 . S
O94 C110 1.239 . S
O95 Tb81 2.399 . S
O95 C110 1.263 . S
O96 Tb81 2.325 1_455 S
O96 C111 1.236 . S
O97 Tb80 2.322 . S
O97 C111 1.257 . S
O98 Tb80 2.349 . S
O98 C82 1.261 . S
O99 Tb81 2.303 1_455 S
O99 C82 1.257 . S
C100 O90 1.236 . S
C100 O91 1.257 1_455 S
O101 Tb80 2.415 . S
O101 C89 1.239 . S
O102 Tb80 2.399 . S
O102 C89 1.263 . S
C103 O92 1.261 . S
C103 O93 1.257 . S
C104 C107 1.358 . S
C104 C108 1.332 . S
C104 C110 1.504 . S
C105 C106 1.373 . S
C105 C109 1.308 . S
C106 C105 1.373 . S
C106 C107 1.429 . S
C106 H116 0.932 . S
C107 C104 1.358 . S
C107 C106 1.429 . S
C107 H117 0.930 . S
C108 C104 1.332 . S
C108 C109 1.394 . S
C108 H118 0.932 . S
C109 C105 1.308 . S
C109 C108 1.394 . S
C109 H119 0.929 . S
C110 Tb81 2.764 . S
C110 O94 1.239 . S
C110 O95 1.263 . S
C110 C104 1.504 . S
C111 O96 1.236 . S
C111 O97 1.257 . S
H112 C85 0.932 . S
H113 C86 0.930 . S
H114 C87 0.932 . S
H115 C88 0.929 . S
H116 C106 0.932 . S
H117 C107 0.930 . S
H118 C108 0.932 . S
H119 C109 0.929 . S
Tb120 C129 2.753 1_554 S
Tb120 O130 2.318 1_564 S
Tb120 O133 2.307 . S
Tb120 O137 2.335 . S
Tb120 O138 2.351 . S
Tb120 O141 2.405 1_554 S
Tb120 O142 2.388 1_554 S
Tb121 O131 2.322 1_554 S
Tb121 O132 2.349 . S
Tb121 O134 2.415 . S
Tb121 O135 2.399 . S
Tb121 O136 2.325 . S
Tb121 O139 2.303 . S
Tb121 C150 2.764 . S
C122 O138 1.261 1_545 S
C122 O139 1.257 . S
C123 C126 1.358 . S
C123 C127 1.332 . S
C123 C129 1.504 . S
C124 C125 1.373 . S
C124 C128 1.308 . S
C125 C124 1.373 . S
C125 C126 1.429 . S
C125 H152 0.932 . S
C126 C123 1.358 . S
C126 C125 1.429 . S
C126 H153 0.930 . S
C127 C123 1.332 . S
C127 C128 1.394 . S
C127 H154 0.932 . S
C128 C124 1.308 . S
C128 C127 1.394 . S
C128 H155 0.929 . S
C129 Tb120 2.753 1_556 S
C129 C123 1.504 . S
C129 O141 1.239 . S
C129 O142 1.263 . S
O130 Tb120 2.318 1_546 S
O130 C140 1.236 . S
O131 Tb121 2.322 1_556 S
O131 C140 1.257 . S
O132 Tb121 2.349 . S
O132 C143 1.261 . S
O133 Tb120 2.307 . S
O133 C143 1.257 1_565 S
O134 Tb121 2.415 . S
O134 C150 1.239 . S
O135 Tb121 2.399 . S
O135 C150 1.263 . S
O136 Tb121 2.325 . S
O136 C151 1.236 1_545 S
O137 Tb120 2.335 . S
O137 C151 1.257 . S
O138 Tb120 2.351 . S
O138 C122 1.261 1_565 S
O139 Tb121 2.303 . S
O139 C122 1.257 . S
C140 O130 1.236 . S
C140 O131 1.257 . S
O141 Tb120 2.405 1_556 S
O141 C129 1.239 . S
O142 Tb120 2.388 1_556 S
O142 C129 1.263 . S
C143 O132 1.261 . S
C143 O133 1.257 1_545 S
C144 C147 1.358 . S
C144 C148 1.332 . S
C144 C150 1.504 . S
C145 C146 1.373 . S
C145 C149 1.308 . S
C146 C145 1.373 . S
C146 C147 1.429 . S
C146 H156 0.932 . S
C147 C144 1.358 . S
C147 C146 1.429 . S
C147 H157 0.930 . S
C148 C144 1.332 . S
C148 C149 1.394 . S
C148 H158 0.932 . S
C149 C145 1.308 . S
C149 C148 1.394 . S
C149 H159 0.929 . S
C150 Tb121 2.764 . S
C150 O134 1.239 . S
C150 O135 1.263 . S
C150 C144 1.504 . S
C151 O136 1.236 1_565 S
C151 O137 1.257 . S
H152 C125 0.932 . S
H153 C126 0.930 . S
H154 C127 0.932 . S
H155 C128 0.929 . S
H156 C146 0.932 . S
H157 C147 0.930 . S
H158 C148 0.932 . S
H159 C149 0.929 . S
Tb160 C169 2.764 . S
Tb160 O170 2.325 . S
Tb160 O173 2.303 . S
Tb160 O177 2.322 . S
Tb160 O178 2.349 . S
Tb160 O181 2.415 . S
Tb160 O182 2.399 . S
Tb161 O171 2.322 . S
Tb161 O172 2.349 . S
Tb161 O174 2.415 . S
Tb161 O175 2.399 . S
Tb161 O176 2.325 . S
Tb161 O179 2.303 . S
Tb161 C190 2.764 . S
C162 O178 1.261 . S
C162 O179 1.257 . S
C163 C166 1.358 . S
C163 C167 1.332 . S
C163 C169 1.504 . S
C164 C165 1.373 . S
C164 C168 1.308 . S
C165 C164 1.373 . S
C165 C166 1.429 . S
C165 H192 0.932 . S
C166 C163 1.358 . S
C166 C165 1.429 . S
C166 H193 0.930 . S
C167 C163 1.332 . S
C167 C168 1.394 . S
C167 H194 0.932 . S
C168 C164 1.308 . S
C168 C167 1.394 . S
C168 H195 0.929 . S
C169 Tb160 2.764 . S
C169 C163 1.504 . S
C169 O181 1.239 . S
C169 O182 1.263 . S
O170 Tb160 2.325 . S
O170 C180 1.236 . S
O171 Tb161 2.322 . S
O171 C180 1.257 . S
O172 Tb161 2.349 . S
O172 C183 1.261 . S
O173 Tb160 2.303 . S
O173 C183 1.257 . S
O174 Tb161 2.415 . S
O174 C190 1.239 . S
O175 Tb161 2.399 . S
O175 C190 1.263 . S
O176 Tb161 2.325 . S
O176 C191 1.236 . S
O177 Tb160 2.322 . S
O177 C191 1.257 . S
O178 Tb160 2.349 . S
O178 C162 1.261 . S
O179 Tb161 2.303 . S
O179 C162 1.257 . S
C180 O170 1.236 . S
C180 O171 1.257 . S
O181 Tb160 2.415 . S
O181 C169 1.239 . S
O182 Tb160 2.399 . S
O182 C169 1.263 . S
C183 O172 1.261 . S
C183 O173 1.257 . S
C184 C187 1.358 . S
C184 C188 1.332 . S
C184 C190 1.504 . S
C185 C186 1.373 . S
C185 C189 1.308 . S
C186 C185 1.373 . S
C186 C187 1.429 . S
C186 H196 0.932 . S
C187 C184 1.358 . S
C187 C186 1.429 . S
C187 H197 0.930 . S
C188 C184 1.332 . S
C188 C189 1.394 . S
C188 H198 0.932 . S
C189 C185 1.308 . S
C189 C188 1.394 . S
C189 H199 0.929 . S
C190 Tb161 2.764 . S
C190 O174 1.239 . S
C190 O175 1.263 . S
C190 C184 1.504 . S
C191 O176 1.236 . S
C191 O177 1.257 . S
H192 C165 0.932 . S
H193 C166 0.930 . S
H194 C167 0.932 . S
H195 C168 0.929 . S
H196 C186 0.932 . S
H197 C187 0.930 . S
H198 C188 0.932 . S
H199 C189 0.929 . S
Tb200 C209 2.764 . S
Tb200 O210 2.325 . S
Tb200 O213 2.303 . S
Tb200 O217 2.322 . S
Tb200 O218 2.349 . S
Tb200 O221 2.415 . S
Tb200 O222 2.399 . S
Tb201 O211 2.322 . S
Tb201 O212 2.349 1_655 S
Tb201 O214 2.415 . S
Tb201 O215 2.399 . S
Tb201 O216 2.325 1_655 S
Tb201 O219 2.303 1_655 S
Tb201 C230 2.764 . S
C202 O218 1.261 . S
C202 O219 1.257 . S
C203 C206 1.358 . S
C203 C207 1.332 . S
C203 C209 1.504 . S
C204 C205 1.373 . S
C204 C208 1.308 . S
C205 C204 1.373 . S
C205 C206 1.429 . S
C205 H232 0.932 . S
C206 C203 1.358 . S
C206 C205 1.429 . S
C206 H233 0.930 . S
C207 C203 1.332 . S
C207 C208 1.394 . S
C207 H234 0.932 . S
C208 C204 1.308 . S
C208 C207 1.394 . S
C208 H235 0.929 . S
C209 Tb200 2.764 . S
C209 C203 1.504 . S
C209 O221 1.239 . S
C209 O222 1.263 . S
O210 Tb200 2.325 . S
O210 C220 1.236 . S
O211 Tb201 2.322 . S
O211 C220 1.257 1_655 S
O212 Tb201 2.349 1_455 S
O212 C223 1.261 . S
O213 Tb200 2.303 . S
O213 C223 1.257 . S
O214 Tb201 2.415 . S
O214 C230 1.239 . S
O215 Tb201 2.399 . S
O215 C230 1.263 . S
O216 Tb201 2.325 1_455 S
O216 C231 1.236 . S
O217 Tb200 2.322 . S
O217 C231 1.257 . S
O218 Tb200 2.349 . S
O218 C202 1.261 . S
O219 Tb201 2.303 1_455 S
O219 C202 1.257 . S
C220 O210 1.236 . S
C220 O211 1.257 1_455 S
O221 Tb200 2.415 . S
O221 C209 1.239 . S
O222 Tb200 2.399 . S
O222 C209 1.263 . S
C223 O212 1.261 . S
C223 O213 1.257 . S
C224 C227 1.358 . S
C224 C228 1.332 . S
C224 C230 1.504 . S
C225 C226 1.373 . S
C225 C229 1.308 . S
C226 C225 1.373 . S
C226 C227 1.429 . S
C226 H236 0.932 . S
C227 C224 1.358 . S
C227 C226 1.429 . S
C227 H237 0.930 . S
C228 C224 1.332 . S
C228 C229 1.394 . S
C228 H238 0.932 . S
C229 C225 1.308 . S
C229 C228 1.394 . S
C229 H239 0.929 . S
C230 Tb201 2.764 . S
C230 O214 1.239 . S
C230 O215 1.263 . S
C230 C224 1.504 . S
C231 O216 1.236 . S
C231 O217 1.257 . S
H232 C205 0.932 . S
H233 C206 0.930 . S
H234 C207 0.932 . S
H235 C208 0.929 . S
H236 C226 0.932 . S
H237 C227 0.930 . S
H238 C228 0.932 . S
H239 C229 0.929 . S
C240 C241 1.349 . S
C240 C242 1.327 . S
C240 H265 0.950 . S
C241 C240 1.349 . S
C241 C257 1.349 1_545 S
C242 C240 1.327 . S
C242 C261 1.429 . S
C242 H266 0.950 . S
C243 C260 1.574 . S
C243 C262 1.368 1_565 S
C243 H267 0.920 1_554 S
H244 C248 0.949 . S
C245 C246 1.349 1_565 S
C245 C247 1.327 . S
C245 H268 0.950 . S
C246 C245 1.349 1_545 S
C246 C258 1.349 . S
C247 C245 1.327 . S
C247 C263 1.429 1_565 S
C247 H269 0.950 . S
C248 H244 0.949 . S
C248 C256 1.574 1_455 S
C248 C264 1.368 . S
H249 C257 0.950 1_556 S
H250 C255 0.950 1_556 S
H251 C256 0.949 . S
H252 C258 0.950 . S
H253 C259 0.950 . S
H254 C260 0.949 . S
C255 H250 0.950 1_554 S
C255 C257 1.327 . S
C255 C261 1.429 1_565 S
C256 C248 1.574 1_655 S
C256 H251 0.949 . S
C256 C262 1.368 . S
C257 C241 1.349 1_565 S
C257 H249 0.950 1_554 S
C257 C255 1.327 . S
C258 C246 1.349 . S
C258 H252 0.950 . S
C258 C259 1.327 . S
C259 H253 0.950 . S
C259 C258 1.327 . S
C259 C263 1.429 . S
C260 C243 1.574 . S
C260 H254 0.949 . S
C260 C264 1.368 1_665 S
C261 C242 1.429 . S
C261 C255 1.429 1_545 S
C261 C262 1.523 . S
C262 C243 1.368 1_545 S
C262 C256 1.368 . S
C262 C261 1.523 . S
C263 C247 1.429 1_545 S
C263 C259 1.429 . S
C263 C264 1.523 . S
C264 C248 1.368 . S
C264 C260 1.368 1_445 S
C264 C263 1.523 . S
H265 C240 0.950 . S
H266 C242 0.950 . S
H267 C243 0.920 1_556 S
H268 C245 0.950 . S
H269 C247 0.950 . S
C270 C271 1.349 . S
C270 C272 1.327 . S
C270 H295 0.950 . S
C271 C270 1.349 . S
C271 C287 1.349 . S
C272 C270 1.327 . S
C272 C291 1.429 . S
C272 H296 0.950 1_565 S
C273 C290 1.574 1_655 S
C273 C292 1.368 . S
C273 H297 0.949 . S
H274 C278 0.949 . S
C275 C276 1.349 . S
C275 C277 1.327 . S
C275 H298 0.950 . S
C276 C275 1.349 . S
C276 C288 1.349 . S
C277 C275 1.327 . S
C277 C293 1.429 . S
C277 H299 0.950 . S
C278 H274 0.949 . S
C278 C286 1.574 . S
C278 C294 1.368 1_655 S
H279 C287 0.950 . S
H280 C285 0.950 . S
H281 C286 0.949 . S
H282 C288 0.950 . S
H283 C289 0.950 . S
H284 C290 0.949 . S
C285 H280 0.950 . S
C285 C287 1.327 . S
C285 C291 1.429 . S
C286 C278 1.574 . S
C286 H281 0.949 . S
C286 C292 1.368 . S
C287 C271 1.349 . S
C287 H279 0.950 . S
C287 C285 1.327 . S
C288 C276 1.349 . S
C288 H282 0.950 . S
C288 C289 1.327 . S
C289 H283 0.950 . S
C289 C288 1.327 . S
C289 C293 1.429 . S
C290 C273 1.574 1_455 S
C290 H284 0.949 . S
C290 C294 1.368 . S
C291 C272 1.429 . S
C291 C285 1.429 . S
C291 C292 1.523 1_565 S
C292 C273 1.368 . S
C292 C286 1.368 . S
C292 C291 1.523 1_545 S
C293 C277 1.429 . S
C293 C289 1.429 . S
C293 C294 1.523 . S
C294 C278 1.368 1_455 S
C294 C290 1.368 . S
C294 C293 1.523 . S
H295 C270 0.950 . S
H296 C272 0.950 1_545 S
H297 C273 0.949 . S
H298 C275 0.950 . S
H299 C277 0.950 . S
C300 C301 1.349 . S
C300 C302 1.327 . S
C300 H325 0.950 . S
C301 C300 1.349 . S
C301 C317 1.349 . S
C302 C300 1.327 . S
C302 C321 1.442 . S
C302 H326 0.950 1_565 S
C303 C320 1.574 . S
C303 C322 1.368 . S
C303 H327 0.949 . S
H304 C308 0.949 . S
C305 C306 1.349 . S
C305 C307 1.327 . S
C305 H328 0.950 . S
C306 C305 1.349 . S
C306 C318 1.349 . S
C307 C305 1.327 . S
C307 C323 1.429 . S
C307 H329 0.950 . S
C308 H304 0.949 . S
C308 C316 1.574 . S
C308 C324 1.368 . S
H309 C317 0.950 . S
H310 C315 0.950 . S
H311 C316 0.949 . S
H312 C318 0.950 . S
H313 C319 0.950 . S
H314 C320 0.949 . S
C315 H310 0.950 . S
C315 C317 1.327 . S
C315 C321 1.439 . S
C316 C308 1.574 . S
C316 H311 0.949 . S
C316 C322 1.368 . S
C317 C301 1.349 . S
C317 H309 0.950 . S
C317 C315 1.327 . S
C318 C306 1.349 . S
C318 H312 0.950 . S
C318 C319 1.327 . S
C319 H313 0.950 . S
C319 C318 1.327 . S
C319 C323 1.429 . S
C320 C303 1.574 . S
C320 H314 0.949 . S
C320 C324 1.368 . S
C321 C302 1.442 . S
C321 C315 1.439 . S
C321 C322 1.501 1_565 S
C322 C303 1.368 . S
C322 C316 1.368 . S
C322 C321 1.501 1_545 S
C323 C307 1.429 . S
C323 C319 1.429 . S
C323 C324 1.523 . S
C324 C308 1.368 . S
C324 C320 1.368 . S
C324 C323 1.523 . S
H325 C300 0.950 . S
H326 C302 0.950 1_545 S
H327 C303 0.949 . S
H328 C305 0.950 . S
H329 C307 0.950 . S
C330 C331 1.349 . S
C330 C332 1.327 . S
C330 H355 0.950 . S
C331 C330 1.349 . S
C331 C347 1.349 . S
C332 C330 1.327 . S
C332 C351 1.429 . S
C332 H356 0.950 . S
C333 C350 1.574 . S
C333 C352 1.368 . S
C333 H357 0.949 . S
H334 C338 0.949 . S
C335 C336 1.349 . S
C335 C337 1.327 . S
C335 H358 0.950 . S
C336 C335 1.349 . S
C336 C348 1.349 . S
C337 C335 1.327 . S
C337 C353 1.429 . S
C337 H359 0.950 . S
C338 H334 0.949 . S
C338 C346 1.574 . S
C338 C354 1.368 . S
H339 C347 0.950 . S
H340 C345 0.950 . S
H341 C346 0.949 . S
H342 C348 0.950 . S
H343 C349 0.950 . S
H344 C350 0.949 . S
C345 H340 0.950 . S
C345 C347 1.327 . S
C345 C351 1.429 . S
C346 C338 1.574 . S
C346 H341 0.949 . S
C346 C352 1.368 . S
C347 C331 1.349 . S
C347 H339 0.950 . S
C347 C345 1.327 . S
C348 C336 1.349 . S
C348 H342 0.950 . S
C348 C349 1.327 . S
C349 H343 0.950 . S
C349 C348 1.327 . S
C349 C353 1.429 . S
C350 C333 1.574 . S
C350 H344 0.949 . S
C350 C354 1.368 . S
C351 C332 1.429 . S
C351 C345 1.429 . S
C351 C352 1.523 . S
C352 C333 1.368 . S
C352 C346 1.368 . S
C352 C351 1.523 . S
C353 C337 1.429 . S
C353 C349 1.429 . S
C353 C354 1.523 . S
C354 C338 1.368 . S
C354 C350 1.368 . S
C354 C353 1.523 . S
H355 C330 0.950 . S
H356 C332 0.950 . S
H357 C333 0.949 . S
H358 C335 0.950 . S
H359 C337 0.950 . S
C360 C361 1.349 . S
C360 C362 1.327 . S
C360 H385 0.950 . S
C361 C360 1.349 . S
C361 C377 1.349 . S
C362 C360 1.327 . S
C362 C381 1.429 . S
C362 H386 0.950 . S
C363 C380 1.574 . S
C363 C382 1.368 . S
C363 H387 0.949 . S
H364 C368 0.949 . S
C365 C366 1.349 . S
C365 C367 1.327 . S
C365 H388 0.950 . S
C366 C365 1.349 . S
C366 C378 1.349 . S
C367 C365 1.327 . S
C367 C383 1.429 . S
C367 H389 0.950 . S
C368 H364 0.949 . S
C368 C376 1.574 . S
C368 C384 1.368 . S
H369 C377 0.950 . S
H370 C375 0.950 . S
H371 C376 0.949 1_455 S
H372 C378 0.950 . S
H373 C379 0.950 . S
H374 C380 0.949 . S
C375 H370 0.950 . S
C375 C377 1.327 . S
C375 C381 1.429 . S
C376 C368 1.574 . S
C376 H371 0.949 1_655 S
C376 C382 1.368 . S
C377 C361 1.349 . S
C377 H369 0.950 . S
C377 C375 1.327 . S
C378 C366 1.349 . S
C378 H372 0.950 . S
C378 C379 1.327 . S
C379 H373 0.950 . S
C379 C378 1.327 . S
C379 C383 1.429 . S
C380 C363 1.574 . S
C380 H374 0.949 . S
C380 C384 1.368 . S
C381 C362 1.429 . S
C381 C375 1.429 . S
C381 C382 1.523 1_455 S
C382 C363 1.368 . S
C382 C376 1.368 . S
C382 C381 1.523 1_655 S
C383 C367 1.429 . S
C383 C379 1.429 . S
C383 C384 1.523 . S
C384 C368 1.368 . S
C384 C380 1.368 . S
C384 C383 1.523 . S
H385 C360 0.950 . S
H386 C362 0.950 . S
H387 C363 0.949 . S
H388 C365 0.950 . S
H389 C367 0.950 . S
C390 C391 1.349 . S
C390 C392 1.327 . S
C390 H415 0.950 . S
C391 C390 1.349 . S
C391 C407 1.349 . S
C392 C390 1.327 . S
C392 C411 1.429 . S
C392 H416 0.950 . S
C393 C410 1.574 . S
C393 C412 1.368 . S
C393 H417 0.949 . S
H394 C398 0.949 . S
C395 C396 1.349 . S
C395 C397 1.327 1_565 S
C395 H418 0.950 . S
C396 C395 1.349 . S
C396 C408 1.349 . S
C397 C395 1.327 1_545 S
C397 C413 1.429 . S
C397 H419 0.950 . S
C398 H394 0.949 . S
C398 C406 1.574 . S
C398 C414 1.368 . S
H399 C407 0.950 . S
H400 C405 0.950 . S
H401 C406 0.949 . S
H402 C408 0.950 . S
H403 C409 0.950 . S
H404 C410 0.949 . S
C405 H400 0.950 . S
C405 C407 1.327 . S
C405 C411 1.429 . S
C406 C398 1.574 . S
C406 H401 0.949 . S
C406 C412 1.368 . S
C407 C391 1.349 . S
C407 H399 0.950 . S
C407 C405 1.327 . S
C408 C396 1.349 . S
C408 H402 0.950 . S
C408 C409 1.327 . S
C409 H403 0.950 . S
C409 C408 1.327 . S
C409 C413 1.429 1_565 S
C410 C393 1.574 . S
C410 H404 0.949 . S
C410 C414 1.368 . S
C411 C392 1.429 . S
C411 C405 1.429 . S
C411 C412 1.523 . S
C412 C393 1.368 . S
C412 C406 1.368 . S
C412 C411 1.523 . S
C413 C397 1.429 . S
C413 C409 1.429 1_545 S
C413 C414 1.523 . S
C414 C398 1.368 . S
C414 C410 1.368 . S
C414 C413 1.523 . S
H415 C390 0.950 . S
H416 C392 0.950 . S
H417 C393 0.949 . S
H418 C395 0.950 . S
H419 C397 0.950 . S
C420 C421 1.349 . S
C420 C422 1.327 . S
C420 H445 0.950 . S
C421 C420 1.349 . S
C421 C437 1.349 . S
C422 C420 1.327 . S
C422 C441 1.429 . S
C422 H446 0.950 . S
C423 C440 1.574 . S
C423 C442 1.368 . S
C423 H447 0.949 . S
H424 C428 0.949 . S
C425 C426 1.349 . S
C425 C427 1.327 . S
C425 H448 0.950 . S
C426 C425 1.349 . S
C426 C438 1.349 . S
C427 C425 1.327 . S
C427 C443 1.429 . S
C427 H449 0.950 . S
C428 H424 0.949 . S
C428 C436 1.574 . S
C428 C444 1.368 . S
H429 C437 0.950 . S
H430 C435 0.950 . S
H431 C436 0.949 . S
H432 C438 0.950 . S
H433 C439 0.950 . S
H434 C440 0.949 . S
C435 H430 0.950 . S
C435 C437 1.327 . S
C435 C441 1.429 . S
C436 C428 1.574 . S
C436 H431 0.949 . S
C436 C442 1.368 . S
C437 C421 1.349 . S
C437 H429 0.950 . S
C437 C435 1.327 . S
C438 C426 1.349 . S
C438 H432 0.950 . S
C438 C439 1.327 . S
C439 H433 0.950 . S
C439 C438 1.327 . S
C439 C443 1.429 . S
C440 C423 1.574 . S
C440 H434 0.949 . S
C440 C444 1.368 . S
C441 C422 1.429 . S
C441 C435 1.429 . S
C441 C442 1.523 . S
C442 C423 1.368 . S
C442 C436 1.368 . S
C442 C441 1.523 . S
C443 C427 1.429 . S
C443 C439 1.429 . S
C443 C444 1.523 . S
C444 C428 1.368 . S
C444 C440 1.368 . S
C444 C443 1.523 . S
H445 C420 0.950 . S
H446 C422 0.950 . S
H447 C423 0.949 . S
H448 C425 0.950 . S
H449 C427 0.950 . S
C450 C451 1.349 . S
C450 C452 1.327 . S
C450 H475 0.950 . S
C451 C450 1.349 . S
C451 C467 1.349 . S
C452 C450 1.327 . S
C452 C471 1.429 . S
C452 H476 0.950 . S
C453 C470 1.574 . S
C453 C472 1.368 . S
C453 H477 0.949 . S
H454 C458 0.949 . S
C455 C456 1.349 . S
C455 C457 1.327 . S
C455 H478 0.950 . S
C456 C455 1.349 . S
C456 C468 1.349 . S
C457 C455 1.327 . S
C457 C473 1.429 . S
C457 H479 0.950 . S
C458 H454 0.949 . S
C458 C466 1.574 . S
C458 C474 1.368 . S
H459 C467 0.950 . S
H460 C465 0.950 . S
H461 C466 0.949 . S
H462 C468 0.950 . S
H463 C469 0.950 . S
H464 C470 0.949 . S
C465 H460 0.950 . S
C465 C467 1.327 . S
C465 C471 1.429 . S
C466 C458 1.574 . S
C466 H461 0.949 . S
C466 C472 1.368 . S
C467 C451 1.349 . S
C467 H459 0.950 . S
C467 C465 1.327 . S
C468 C456 1.349 . S
C468 H462 0.950 . S
C468 C469 1.327 . S
C469 H463 0.950 . S
C469 C468 1.327 . S
C469 C473 1.429 . S
C470 C453 1.574 . S
C470 H464 0.949 . S
C470 C474 1.368 . S
C471 C452 1.429 . S
C471 C465 1.429 . S
C471 C472 1.523 . S
C472 C453 1.368 . S
C472 C466 1.368 . S
C472 C471 1.523 . S
C473 C457 1.429 . S
C473 C469 1.429 . S
C473 C474 1.523 1_455 S
C474 C458 1.368 . S
C474 C470 1.368 . S
C474 C473 1.523 1_655 S
H475 C450 0.950 . S
H476 C452 0.950 . S
H477 C453 0.949 . S
H478 C455 0.950 . S
H479 C457 0.950 . S
C480 C481 1.349 . S
C480 C482 1.327 1_565 S
C480 H505 0.950 . S
C481 C480 1.349 . S
C481 C497 1.349 . S
C482 C480 1.327 1_545 S
C482 C501 1.429 . S
C482 H506 0.950 . S
C483 C500 1.574 . S
C483 C502 1.368 . S
C483 H507 0.949 . S
H484 C488 0.949 . S
C485 C486 1.349 . S
C485 C487 1.327 . S
C485 H508 0.950 . S
C486 C485 1.349 . S
C486 C498 1.349 . S
C487 C485 1.327 . S
C487 C503 1.429 . S
C487 H509 0.950 . S
C488 H484 0.949 . S
C488 C496 1.574 . S
C488 C504 1.368 . S
H489 C497 0.950 . S
H490 C495 0.950 . S
H491 C496 0.949 . S
H492 C498 0.950 . S
H493 C499 0.950 . S
H494 C500 0.949 . S
C495 H490 0.950 . S
C495 C497 1.327 . S
C495 C501 1.429 1_565 S
C496 C488 1.574 . S
C496 H491 0.949 . S
C496 C502 1.368 . S
C497 C481 1.349 . S
C497 H489 0.950 . S
C497 C495 1.327 . S
C498 C486 1.349 . S
C498 H492 0.950 . S
C498 C499 1.327 . S
C499 H493 0.950 . S
C499 C498 1.327 . S
C499 C503 1.429 . S
C500 C483 1.574 . S
C500 H494 0.949 . S
C500 C504 1.368 . S
C501 C482 1.429 . S
C501 C495 1.429 1_545 S
C501 C502 1.523 . S
C502 C483 1.368 . S
C502 C496 1.368 . S
C502 C501 1.523 . S
C503 C487 1.429 . S
C503 C499 1.429 . S
C503 C504 1.523 . S
C504 C488 1.368 . S
C504 C500 1.368 . S
C504 C503 1.523 . S
H505 C480 0.950 . S
H506 C482 0.950 . S
H507 C483 0.949 . S
H508 C485 0.950 . S
H509 C487 0.950 . S
C510 C511 1.349 1_565 S
C510 C512 1.327 . S
C510 H535 0.950 1_554 S
C511 C510 1.349 1_545 S
C511 C527 1.349 . S
C512 C510 1.327 . S
C512 C531 1.429 1_565 S
C512 H536 0.950 1_554 S
C513 C530 1.574 . S
C513 C532 1.368 . S
C513 H537 0.949 . S
H514 C518 0.949 1_556 S
C515 C516 1.349 . S
C515 C517 1.327 . S
C515 H538 0.950 . S
C516 C515 1.349 . S
C516 C528 1.349 1_545 S
C517 C515 1.327 . S
C517 C533 1.429 . S
C517 H539 0.950 . S
C518 H514 0.949 1_554 S
C518 C526 1.574 . S
C518 C534 1.368 1_565 S
H519 C527 0.950 . S
H520 C525 0.950 . S
H521 C526 0.949 1_556 S
H522 C528 0.931 1_556 S
H523 C529 0.950 1_556 S
H524 C530 0.949 . S
C525 H520 0.950 . S
C525 C527 1.327 . S
C525 C531 1.429 . S
C526 C518 1.574 . S
C526 H521 0.949 1_554 S
C526 C532 1.368 1_565 S
C527 C511 1.349 . S
C527 H519 0.950 . S
C527 C525 1.327 . S
C528 C516 1.349 1_565 S
C528 H522 0.931 1_554 S
C528 C529 1.327 . S
C529 H523 0.950 1_554 S
C529 C528 1.327 . S
C529 C533 1.429 1_565 S
C530 C513 1.574 . S
C530 H524 0.949 . S
C530 C534 1.368 . S
C531 C512 1.429 1_545 S
C531 C525 1.429 . S
C531 C532 1.523 . S
C532 C513 1.368 . S
C532 C526 1.368 1_545 S
C532 C531 1.523 . S
C533 C517 1.429 . S
C533 C529 1.429 1_545 S
C533 C534 1.523 . S
C534 C518 1.368 1_545 S
C534 C530 1.368 . S
C534 C533 1.523 . S
H535 C510 0.950 1_556 S
H536 C512 0.950 1_556 S
H537 C513 0.949 . S
H538 C515 0.950 . S
H539 C517 0.950 . S
C540 C541 1.349 . S
C540 C542 1.327 . S
C540 H565 0.950 . S
C541 C540 1.349 . S
C541 C557 1.349 . S
C542 C540 1.327 . S
C542 C561 1.429 . S
C542 H566 0.950 . S
C543 C560 1.574 . S
C543 C562 1.368 . S
C543 H567 0.949 . S
H544 C548 0.949 . S
C545 C546 1.349 . S
C545 C547 1.327 . S
C545 H568 0.950 . S
C546 C545 1.349 . S
C546 C558 1.349 . S
C547 C545 1.327 . S
C547 C563 1.429 . S
C547 H569 0.950 . S
C548 H544 0.949 . S
C548 C556 1.574 . S
C548 C564 1.368 . S
H549 C557 0.950 . S
H550 C555 0.950 . S
H551 C556 0.949 . S
H552 C558 0.950 . S
H553 C559 0.950 . S
H554 C560 0.949 . S
C555 H550 0.950 . S
C555 C557 1.327 . S
C555 C561 1.429 . S
C556 C548 1.574 . S
C556 H551 0.949 . S
C556 C562 1.368 . S
C557 C541 1.349 . S
C557 H549 0.950 . S
C557 C555 1.327 . S
C558 C546 1.349 . S
C558 H552 0.950 . S
C558 C559 1.327 . S
C559 H553 0.950 . S
C559 C558 1.327 . S
C559 C563 1.429 . S
C560 C543 1.574 . S
C560 H554 0.949 . S
C560 C564 1.368 . S
C561 C542 1.429 . S
C561 C555 1.429 . S
C561 C562 1.523 . S
C562 C543 1.368 . S
C562 C556 1.368 . S
C562 C561 1.523 . S
C563 C547 1.429 . S
C563 C559 1.429 . S
C563 C564 1.523 . S
C564 C548 1.368 . S
C564 C560 1.368 . S
C564 C563 1.523 . S
H565 C540 0.950 . S
H566 C542 0.950 . S
H567 C543 0.949 . S
H568 C545 0.950 . S
H569 C547 0.950 . S
C570 C571 1.349 . S
C570 C572 1.327 . S
C570 H595 0.950 . S
C571 C570 1.349 . S
C571 C587 1.349 . S
C572 C570 1.327 . S
C572 C591 1.429 . S
C572 H596 0.950 . S
C573 C590 1.574 . S
C573 C592 1.368 . S
C573 H597 0.949 . S
H574 C578 0.949 . S
C575 C576 1.349 . S
C575 C577 1.327 . S
C575 H598 0.950 . S
C576 C575 1.349 . S
C576 C588 1.349 . S
C577 C575 1.327 . S
C577 C593 1.429 . S
C577 H599 0.950 . S
C578 H574 0.949 . S
C578 C586 1.574 . S
C578 C594 1.368 . S
H579 C587 0.950 . S
H580 C585 0.950 . S
H581 C586 0.949 . S
H582 C588 0.950 . S
H583 C589 0.950 . S
H584 C590 0.949 . S
C585 H580 0.950 . S
C585 C587 1.327 . S
C585 C591 1.429 . S
C586 C578 1.574 . S
C586 H581 0.949 . S
C586 C592 1.368 . S
C587 C571 1.349 . S
C587 H579 0.950 . S
C587 C585 1.327 . S
C588 C576 1.349 . S
C588 H582 0.950 . S
C588 C589 1.327 . S
C589 H583 0.950 . S
C589 C588 1.327 . S
C589 C593 1.429 . S
C590 C573 1.574 . S
C590 H584 0.949 . S
C590 C594 1.368 . S
C591 C572 1.429 . S
C591 C585 1.429 . S
C591 C592 1.523 . S
C592 C573 1.368 . S
C592 C586 1.368 . S
C592 C591 1.523 . S
C593 C577 1.429 . S
C593 C589 1.429 . S
C593 C594 1.523 . S
C594 C578 1.368 . S
C594 C590 1.368 . S
C594 C593 1.523 . S
H595 C570 0.950 . S
H596 C572 0.950 . S
H597 C573 0.949 . S
H598 C575 0.950 . S
H599 C577 0.950 . S
C600 C601 1.349 . S
C600 C602 1.327 . S
C600 H625 0.950 . S
C601 C600 1.349 . S
C601 C617 1.349 . S
C602 C600 1.327 . S
C602 C621 1.429 . S
C602 H626 0.950 . S
C603 C620 1.574 . S
C603 C622 1.368 . S
C603 H627 0.949 . S
H604 C608 0.949 . S
C605 C606 1.349 . S
C605 C607 1.327 . S
C605 H628 0.950 . S
C606 C605 1.349 . S
C606 C618 1.349 . S
C607 C605 1.327 . S
C607 C623 1.429 . S
C607 H629 0.950 . S
C608 H604 0.949 . S
C608 C616 1.574 . S
C608 C624 1.368 . S
H609 C617 0.950 . S
H610 C615 0.950 . S
H611 C616 0.949 . S
H612 C618 0.950 . S
H613 C619 0.950 . S
H614 C620 0.949 . S
C615 H610 0.950 . S
C615 C617 1.327 . S
C615 C621 1.429 . S
C616 C608 1.574 . S
C616 H611 0.949 . S
C616 C622 1.368 . S
C617 C601 1.349 . S
C617 H609 0.950 . S
C617 C615 1.327 . S
C618 C606 1.349 . S
C618 H612 0.950 . S
C618 C619 1.327 . S
C619 H613 0.950 . S
C619 C618 1.327 . S
C619 C623 1.429 . S
C620 C603 1.574 . S
C620 H614 0.949 . S
C620 C624 1.368 . S
C621 C602 1.429 . S
C621 C615 1.429 . S
C621 C622 1.523 . S
C622 C603 1.368 . S
C622 C616 1.368 . S
C622 C621 1.523 . S
C623 C607 1.429 . S
C623 C619 1.429 . S
C623 C624 1.523 . S
C624 C608 1.368 . S
C624 C620 1.368 . S
C624 C623 1.523 . S
H625 C600 0.950 . S
H626 C602 0.950 . S
H627 C603 0.949 . S
H628 C605 0.950 . S
H629 C607 0.950 . S
C630 C631 1.349 . S
C630 C632 1.327 . S
C630 H655 0.950 . S
C631 C630 1.349 . S
C631 C647 1.349 . S
C632 C630 1.327 . S
C632 C651 1.429 . S
C632 H656 0.950 . S
C633 C650 1.574 . S
C633 C652 1.368 . S
C633 H657 0.949 . S
H634 C638 0.949 . S
C635 C636 1.349 . S
C635 C637 1.327 . S
C635 H658 0.950 . S
C636 C635 1.349 . S
C636 C648 1.349 . S
C637 C635 1.327 . S
C637 C653 1.429 . S
C637 H659 0.950 . S
C638 H634 0.949 . S
C638 C646 1.574 . S
C638 C654 1.368 . S
H639 C647 0.950 . S
H640 C645 0.950 . S
H641 C646 0.949 . S
H642 C648 0.950 . S
H643 C649 0.950 . S
H644 C650 0.949 . S
C645 H640 0.950 . S
C645 C647 1.327 . S
C645 C651 1.429 . S
C646 C638 1.574 . S
C646 H641 0.949 . S
C646 C652 1.368 . S
C647 C631 1.349 . S
C647 H639 0.950 . S
C647 C645 1.327 . S
C648 C636 1.349 . S
C648 H642 0.950 . S
C648 C649 1.327 . S
C649 H643 0.950 . S
C649 C648 1.327 . S
C649 C653 1.429 . S
C650 C633 1.574 . S
C650 H644 0.949 . S
C650 C654 1.368 . S
C651 C632 1.429 . S
C651 C645 1.429 . S
C651 C652 1.523 . S
C652 C633 1.368 . S
C652 C646 1.368 . S
C652 C651 1.523 . S
C653 C637 1.429 . S
C653 C649 1.429 . S
C653 C654 1.523 . S
C654 C638 1.368 . S
C654 C650 1.368 . S
C654 C653 1.523 . S
H655 C630 0.950 . S
H656 C632 0.950 . S
H657 C633 0.949 . S
H658 C635 0.950 . S
H659 C637 0.950 . S
C660 C661 1.349 . S
C660 C662 1.327 . S
C660 H685 0.950 . S
C661 C660 1.349 . S
C661 C677 1.349 . S
C662 C660 1.327 . S
C662 C681 1.429 . S
C662 H686 0.950 . S
C663 C680 1.574 . S
C663 C682 1.368 . S
C663 H687 0.949 . S
H664 C668 0.949 . S
C665 C666 1.349 . S
C665 C667 1.327 . S
C665 H688 0.950 . S
C666 C665 1.349 . S
C666 C678 1.349 . S
C667 C665 1.327 . S
C667 C683 1.429 . S
C667 H689 0.950 . S
C668 H664 0.949 . S
C668 C676 1.574 . S
C668 C684 1.368 . S
H669 C677 0.950 . S
H670 C675 0.950 . S
H671 C676 0.949 . S
H672 C678 0.950 . S
H673 C679 0.950 . S
H674 C680 0.949 . S
C675 H670 0.950 . S
C675 C677 1.327 . S
C675 C681 1.429 . S
C676 C668 1.574 . S
C676 H671 0.949 . S
C676 C682 1.368 . S
C677 C661 1.349 . S
C677 H669 0.950 . S
C677 C675 1.327 . S
C678 C666 1.349 . S
C678 H672 0.950 . S
C678 C679 1.327 . S
C679 H673 0.950 . S
C679 C678 1.327 . S
C679 C683 1.429 . S
C680 C663 1.574 . S
C680 H674 0.949 . S
C680 C684 1.368 . S
C681 C662 1.429 . S
C681 C675 1.429 . S
C681 C682 1.523 . S
C682 C663 1.368 . S
C682 C676 1.368 . S
C682 C681 1.523 . S
C683 C667 1.429 . S
C683 C679 1.429 . S
C683 C684 1.523 . S
C684 C668 1.368 . S
C684 C680 1.368 . S
C684 C683 1.523 . S
H685 C660 0.950 . S
H686 C662 0.950 . S
H687 C663 0.949 . S
H688 C665 0.950 . S
H689 C667 0.950 . S
C690 C691 1.349 . S
C690 C692 1.327 . S
C690 H715 0.950 . S
C691 C690 1.349 . S
C691 C707 1.349 . S
C692 C690 1.327 . S
C692 C711 1.429 . S
C692 H716 0.950 . S
C693 C710 1.574 . S
C693 C712 1.368 . S
C693 H717 0.949 . S
H694 C698 0.949 . S
C695 C696 1.349 . S
C695 C697 1.327 . S
C695 H718 0.950 . S
C696 C695 1.349 . S
C696 C708 1.349 . S
C697 C695 1.327 . S
C697 C713 1.429 . S
C697 H719 0.950 . S
C698 H694 0.949 . S
C698 C706 1.574 . S
C698 C714 1.368 . S
H699 C707 0.950 . S
H700 C705 0.950 . S
H701 C706 0.949 . S
H702 C708 0.950 . S
H703 C709 0.950 . S
H704 C710 0.949 . S
C705 H700 0.950 . S
C705 C707 1.327 . S
C705 C711 1.429 . S
C706 C698 1.574 . S
C706 H701 0.949 . S
C706 C712 1.368 . S
C707 C691 1.349 . S
C707 H699 0.950 . S
C707 C705 1.327 . S
C708 C696 1.349 . S
C708 H702 0.950 . S
C708 C709 1.327 . S
C709 H703 0.950 . S
C709 C708 1.327 . S
C709 C713 1.429 . S
C710 C693 1.574 . S
C710 H704 0.949 . S
C710 C714 1.368 . S
C711 C692 1.429 . S
C711 C705 1.429 . S
C711 C712 1.523 . S
C712 C693 1.368 . S
C712 C706 1.368 . S
C712 C711 1.523 . S
C713 C697 1.429 . S
C713 C709 1.429 . S
C713 C714 1.523 . S
C714 C698 1.368 . S
C714 C710 1.368 . S
C714 C713 1.523 . S
H715 C690 0.950 . S
H716 C692 0.950 . S
H717 C693 0.949 . S
H718 C695 0.950 . S
H719 C697 0.950 . S
C720 C721 1.349 . S
C720 C722 1.327 . S
C720 H745 0.950 . S
C721 C720 1.349 . S
C721 C737 1.349 . S
C722 C720 1.327 . S
C722 C741 1.429 . S
C722 H746 0.950 . S
C723 C740 1.574 . S
C723 C742 1.368 . S
C723 H747 0.949 . S
H724 C728 0.949 . S
C725 C726 1.349 . S
C725 C727 1.327 . S
C725 H748 0.950 . S
C726 C725 1.349 . S
C726 C738 1.349 . S
C727 C725 1.327 . S
C727 C743 1.429 . S
C727 H749 0.950 . S
C728 H724 0.949 . S
C728 C736 1.574 . S
C728 C744 1.368 . S
H729 C737 0.950 . S
H730 C735 0.950 . S
H731 C736 0.949 . S
H732 C738 0.950 . S
H733 C739 0.950 . S
H734 C740 0.949 . S
C735 H730 0.950 . S
C735 C737 1.327 . S
C735 C741 1.429 . S
C736 C728 1.574 . S
C736 H731 0.949 . S
C736 C742 1.368 . S
C737 C721 1.349 . S
C737 H729 0.950 . S
C737 C735 1.327 . S
C738 C726 1.349 . S
C738 H732 0.950 . S
C738 C739 1.327 . S
C739 H733 0.950 . S
C739 C738 1.327 . S
C739 C743 1.429 . S
C740 C723 1.574 . S
C740 H734 0.949 . S
C740 C744 1.368 . S
C741 C722 1.429 . S
C741 C735 1.429 . S
C741 C742 1.523 . S
C742 C723 1.368 . S
C742 C736 1.368 . S
C742 C741 1.523 . S
C743 C727 1.429 . S
C743 C739 1.429 . S
C743 C744 1.523 . S
C744 C728 1.368 . S
C744 C740 1.368 . S
C744 C743 1.523 . S
H745 C720 0.950 . S
H746 C722 0.950 . S
H747 C723 0.949 . S
H748 C725 0.950 . S
H749 C727 0.950 . S
C750 C751 1.349 . S
C750 C752 1.327 . S
C750 H775 0.950 . S
C751 C750 1.349 . S
C751 C767 1.349 . S
C752 C750 1.327 . S
C752 C771 1.429 . S
C752 H776 0.950 . S
C753 C770 1.574 . S
C753 C772 1.368 . S
C753 H777 0.949 . S
H754 C758 0.949 . S
C755 C756 1.349 . S
C755 C757 1.327 . S
C755 H778 0.950 . S
C756 C755 1.349 . S
C756 C768 1.349 . S
C757 C755 1.327 . S
C757 C773 1.429 . S
C757 H779 0.950 . S
C758 H754 0.949 . S
C758 C766 1.574 . S
C758 C774 1.368 . S
H759 C767 0.950 . S
H760 C765 0.950 . S
H761 C766 0.949 . S
H762 C768 0.950 . S
H763 C769 0.950 . S
H764 C770 0.949 . S
C765 H760 0.950 . S
C765 C767 1.327 . S
C765 C771 1.429 . S
C766 C758 1.574 . S
C766 H761 0.949 . S
C766 C772 1.368 . S
C767 C751 1.349 . S
C767 H759 0.950 . S
C767 C765 1.327 . S
C768 C756 1.349 . S
C768 H762 0.950 . S
C768 C769 1.327 . S
C769 H763 0.950 . S
C769 C768 1.327 . S
C769 C773 1.429 . S
C770 C753 1.574 . S
C770 H764 0.949 . S
C770 C774 1.368 . S
C771 C752 1.429 . S
C771 C765 1.429 . S
C771 C772 1.523 . S
C772 C753 1.368 . S
C772 C766 1.368 . S
C772 C771 1.523 . S
C773 C757 1.429 . S
C773 C769 1.429 . S
C773 C774 1.523 . S
C774 C758 1.368 . S
C774 C770 1.368 . S
C774 C773 1.523 . S
H775 C750 0.950 . S
H776 C752 0.950 . S
H777 C753 0.949 . S
H778 C755 0.950 . S
H779 C757 0.950 . S
C241 C143 0.902 . S
C246 C23 0.901 . S
C271 C183 0.902 . S
C276 C63 0.903 . S
C301 C223 0.902 . S
C306 C103 0.901 . S
C331 C25 0.505 . S
C336 C84 0.554 . S
C361 C44 0.555 . S
C366 C145 0.505 . S
C391 C105 0.505 . S
C396 C164 0.554 . S
C421 C124 0.555 . S
C426 C225 0.505 . S
C451 C185 0.505 . S
C456 C4 0.554 . S
C481 C204 0.555 . S
C486 C65 0.505 . S
C511 C2 0.491 . S
C516 C122 0.491 . S
C541 C42 0.492 . S
C546 C162 0.493 . S
C571 C82 0.493 . S
C576 C202 0.492 . S
C601 C20 4.020 . S
C606 C60 4.020 . S
C631 C71 3.628 . S
C636 C111 3.628 . S
C661 C100 4.020 1_655 S
C666 C140 4.020 . S
C691 C151 3.628 . S
C696 C191 3.628 . S
C721 C180 4.020 . S
C726 C220 4.020 1_655 S
C751 C231 3.628 . S
C756 C31 3.628 . S
