# Generated by pormake.
# Topology lcy-e, (6)-cn, num edge types: 1
# Building blocks:
#     Node 0, Type 0, BuildingBlock: PAMTUU_clean_sbu_0, # of connection points: 6
#     Node 1, Type 0, BuildingBlock: PAMTUU_clean_sbu_0, # of connection points: 6
#     Node 2, Type 0, BuildingBlock: PAMTUU_clean_sbu_0, # of connection points: 6
#     Node 3, Type 0, BuildingBlock: PAMTUU_clean_sbu_0, # of connection points: 6
#     Node 4, Type 0, BuildingBlock: PAMTUU_clean_sbu_0, # of connection points: 6
#     Node 5, Type 0, BuildingBlock: PAMTUU_clean_sbu_0, # of connection points: 6
#     Node 6, Type 0, BuildingBlock: PAMTUU_clean_sbu_0, # of connection points: 6
#     Node 7, Type 0, BuildingBlock: PAMTUU_clean_sbu_0, # of connection points: 6
#     Node 8, Type 0, BuildingBlock: PAMTUU_clean_sbu_0, # of connection points: 6
#     Node 9, Type 0, BuildingBlock: PAMTUU_clean_sbu_0, # of connection points: 6
#     Node 10, Type 0, BuildingBlock: PAMTUU_clean_sbu_0, # of connection points: 6
#     Node 11, Type 0, BuildingBlock: PAMTUU_clean_sbu_0, # of connection points: 6
#     Edge 12, Type (0, 0), BuildingBlock: OJICUG_clean_linker_0, # of connection points: 2
#     Edge 13, Type (0, 0), BuildingBlock: OJICUG_clean_linker_0, # of connection points: 2
#     Edge 14, Type (0, 0), BuildingBlock: OJICUG_clean_linker_0, # of connection points: 2
#     Edge 15, Type (0, 0), BuildingBlock: OJICUG_clean_linker_0, # of connection points: 2
#     Edge 16, Type (0, 0), BuildingBlock: OJICUG_clean_linker_0, # of connection points: 2
#     Edge 17, Type (0, 0), BuildingBlock: OJICUG_clean_linker_0, # of connection points: 2
#     Edge 18, Type (0, 0), BuildingBlock: OJICUG_clean_linker_0, # of connection points: 2
#     Edge 19, Type (0, 0), BuildingBlock: OJICUG_clean_linker_0, # of connection points: 2
#     Edge 20, Type (0, 0), BuildingBlock: OJICUG_clean_linker_0, # of connection points: 2
#     Edge 21, Type (0, 0), BuildingBlock: OJICUG_clean_linker_0, # of connection points: 2
#     Edge 22, Type (0, 0), BuildingBlock: OJICUG_clean_linker_0, # of connection points: 2
#     Edge 23, Type (0, 0), BuildingBlock: OJICUG_clean_linker_0, # of connection points: 2
#     Edge 24, Type (0, 0), BuildingBlock: OJICUG_clean_linker_0, # of connection points: 2
#     Edge 25, Type (0, 0), BuildingBlock: OJICUG_clean_linker_0, # of connection points: 2
#     Edge 26, Type (0, 0), BuildingBlock: OJICUG_clean_linker_0, # of connection points: 2
#     Edge 27, Type (0, 0), BuildingBlock: OJICUG_clean_linker_0, # of connection points: 2
#     Edge 28, Type (0, 0), BuildingBlock: OJICUG_clean_linker_0, # of connection points: 2
#     Edge 29, Type (0, 0), BuildingBlock: OJICUG_clean_linker_0, # of connection points: 2
#     Edge 30, Type (0, 0), BuildingBlock: OJICUG_clean_linker_0, # of connection points: 2
#     Edge 31, Type (0, 0), BuildingBlock: OJICUG_clean_linker_0, # of connection points: 2
#     Edge 32, Type (0, 0), BuildingBlock: OJICUG_clean_linker_0, # of connection points: 2
#     Edge 33, Type (0, 0), BuildingBlock: OJICUG_clean_linker_0, # of connection points: 2
#     Edge 34, Type (0, 0), BuildingBlock: OJICUG_clean_linker_0, # of connection points: 2
#     Edge 35, Type (0, 0), BuildingBlock: OJICUG_clean_linker_0, # of connection points: 2
#     Edge 36, Type (0, 0), BuildingBlock: OJICUG_clean_linker_0, # of connection points: 2
#     Edge 37, Type (0, 0), BuildingBlock: OJICUG_clean_linker_0, # of connection points: 2
#     Edge 38, Type (0, 0), BuildingBlock: OJICUG_clean_linker_0, # of connection points: 2
#     Edge 39, Type (0, 0), BuildingBlock: OJICUG_clean_linker_0, # of connection points: 2
#     Edge 40, Type (0, 0), BuildingBlock: OJICUG_clean_linker_0, # of connection points: 2
#     Edge 41, Type (0, 0), BuildingBlock: OJICUG_clean_linker_0, # of connection points: 2
#     Edge 42, Type (0, 0), BuildingBlock: OJICUG_clean_linker_0, # of connection points: 2
#     Edge 43, Type (0, 0), BuildingBlock: OJICUG_clean_linker_0, # of connection points: 2
#     Edge 44, Type (0, 0), BuildingBlock: OJICUG_clean_linker_0, # of connection points: 2
#     Edge 45, Type (0, 0), BuildingBlock: OJICUG_clean_linker_0, # of connection points: 2
#     Edge 46, Type (0, 0), BuildingBlock: OJICUG_clean_linker_0, # of connection points: 2
#     Edge 47, Type (0, 0), BuildingBlock: OJICUG_clean_linker_0, # of connection points: 2
# Relax obj value: 0.145
# Max RMSD: 0.308
# Mean RMSD: 0.295
data_MOF--net-lcy-e--node1-PAMTUU_clean_sbu_0--edge1-OJICUG_clean_linker_0
_symmetry_space_group_name_H-M    P1
_symmetry_Int_Tables_number       1
_symmetry_cell_setting            triclinic
loop_
_symmetry_equiv_pos_as_xyz
'x, y, z'
_cell_length_a     34.61549
_cell_length_b     34.636046
_cell_length_c     34.61803
_cell_angle_alpha  90.014031
_cell_angle_beta   89.983534
_cell_angle_gamma 89.566909
loop_
_atom_site_label
_atom_site_type_symbol
_atom_site_fract_x
_atom_site_fract_y
_atom_site_fract_z
_atom_type_partial_charge
Tb0 Tb 0.10611 0.31473 0.48469 0.0
Tb1 Tb 0.12892 0.25026 0.54968 0.0
C2 C 0.06833 0.31091 0.56881 0.0
C3 C 0.10867 0.37775 0.39719 0.0
C4 C 0.14493 0.41046 0.33195 0.0
C5 C 0.11022 0.42613 0.34658 0.0
C6 C 0.09234 0.40994 0.37884 0.0
C7 C 0.14302 0.36152 0.38253 0.0
C8 C 0.16095 0.37768 0.35002 0.0
C9 C 0.089 0.36125 0.43102 0.0
O10 O 0.16022 0.33378 0.50788 0.0
O11 O 0.1528 0.30677 0.56787 0.0
O12 O 0.17858 0.2567 0.51318 0.0
O13 O 0.14628 0.27267 0.45812 0.0
O14 O 0.13278 0.23086 0.60719 0.0
O15 O 0.15279 0.19542 0.55974 0.0
O16 O 0.08966 0.2233 0.50759 0.0
O17 O 0.05679 0.27809 0.4914 0.0
O18 O 0.08221 0.33349 0.54129 0.0
O19 O 0.07439 0.27369 0.56825 0.0
C20 C 0.16647 0.33421 0.54506 0.0
O21 O 0.08261 0.32423 0.4297 0.0
O22 O 0.10143 0.37205 0.46489 0.0
C23 C 0.17698 0.25817 0.47555 0.0
C24 C 0.12557 0.16328 0.61296 0.0
C25 C 0.08851 0.09851 0.64527 0.0
C26 C 0.1228 0.11293 0.6615 0.0
C27 C 0.1411 0.14496 0.6455 0.0
C28 C 0.09163 0.14883 0.59617 0.0
C29 C 0.07331 0.11653 0.61213 0.0
C30 C 0.14558 0.19692 0.59668 0.0
C31 C 0.05885 0.24048 0.49303 0.0
H32 H 0.09683 0.45104 0.33303 0.0
H33 H 0.06569 0.42264 0.38952 0.0
H34 H 0.15603 0.33653 0.39632 0.0
H35 H 0.18777 0.36515 0.33964 0.0
H36 H 0.13555 0.09938 0.68671 0.0
H37 H 0.16741 0.15549 0.65864 0.0
H38 H 0.07924 0.16262 0.57091 0.0
H39 H 0.04683 0.10628 0.59916 0.0
Tb40 Tb 0.02861 0.92093 0.79926 0.0
Tb41 Tb 0.96308 0.89903 0.73562 0.0
C42 C 0.94453 0.959 0.79677 0.0
C43 C 0.11603 0.91661 0.862 0.0
C44 C 0.18123 0.87895 0.89379 0.0
C45 C 0.16716 0.91372 0.90975 0.0
C46 C 0.13491 0.93231 0.894 0.0
C47 C 0.13017 0.88222 0.84543 0.0
C48 C 0.16268 0.86359 0.86114 0.0
C49 C 0.08209 0.93686 0.84609 0.0
O50 O 1.00682 0.86569 0.81623 0.0
O51 O 0.94598 0.87394 0.79207 0.0
O52 O 1.00092 0.84995 0.74016 0.0
O53 O 0.05566 0.88226 0.75623 0.0
O54 O 0.90531 0.89591 0.71702 0.0
O55 O 0.95217 0.87499 0.68125 0.0
O56 O 1.00424 0.93878 0.70805 0.0
O57 O 0.02167 0.97067 0.76283 0.0
O58 O 0.97203 0.9443 0.81909 0.0
O59 O 0.94515 0.95357 0.75945 0.0
C60 C 0.96968 0.85987 0.81876 0.0
O61 O 0.08332 0.9444 0.80922 0.0
O62 O 0.04836 0.92403 0.85666 0.0
C63 C 0.03854 0.85214 0.7407 0.0
C64 C 0.89875 0.90236 0.64939 0.0
C65 C 0.86653 0.93859 0.58381 0.0
C66 C 0.85167 0.90347 0.59762 0.0
C67 C 0.86763 0.88558 0.63008 0.0
C68 C 0.9142 0.93714 0.63556 0.0
C69 C 0.89827 0.95508 0.60286 0.0
C70 C 0.91529 0.88258 0.68317 0.0
C71 C 0.01927 0.96915 0.72522 0.0
H72 H 0.18111 0.92656 0.93458 0.0
H73 H 0.12461 0.95896 0.90694 0.0
H74 H 0.11592 0.86972 0.82058 0.0
H75 H 0.17269 0.83675 0.84841 0.0
H76 H 0.82758 0.88976 0.58326 0.0
H77 H 0.85563 0.85857 0.64012 0.0
H78 H 0.93842 0.95042 0.65011 0.0
H79 H 0.91013 0.98222 0.59307 0.0
Tb80 Tb 0.38145 0.75116 0.98322 0.0
Tb81 Tb 0.35974 0.81693 0.04719 0.0
C82 C 0.42129 0.75779 0.0659 0.0
C83 C 0.37543 0.68681 0.89731 0.0
C84 C 0.33685 0.65556 0.83272 0.0
C85 C 0.369 0.6365 0.84906 0.0
C86 C 0.38807 0.65199 0.88099 0.0
C87 C 0.34352 0.70624 0.88104 0.0
C88 C 0.32449 0.69081 0.84884 0.0
C89 C 0.39644 0.70279 0.9306 0.0
O90 O 0.32683 0.73455 1.00733 0.0
O91 O 0.33661 0.76068 0.0671 0.0
O92 O 0.30981 0.8112 1.01096 0.0
O93 O 0.34134 0.79282 0.95603 0.0
O94 O 0.35663 0.83622 0.10468 0.0
O95 O 0.3371 0.87236 0.05755 0.0
O96 O 0.39783 0.8436 1.00381 0.0
O97 O 0.43035 0.78884 0.98621 0.0
O98 O 0.40689 0.73396 0.0397 0.0
O99 O 0.41567 0.79491 0.06255 0.0
C100 C 0.32173 0.73359 0.04469 0.0
O101 O 0.40463 0.7394 0.92855 0.0
O102 O 0.38395 0.69321 0.96482 0.0
C103 C 0.31111 0.80849 0.97335 0.0
C104 C 0.3672 0.90411 0.1099 0.0
C105 C 0.40554 0.96858 0.14174 0.0
C106 C 0.37614 0.97376 0.11423 0.0
C107 C 0.35705 0.94186 0.09864 0.0
C108 C 0.39741 0.89888 0.13656 0.0
C109 C 0.41634 0.93075 0.15226 0.0
C110 C 0.34553 0.87082 0.09424 0.0
C111 C 0.42792 0.82648 0.98765 0.0
H112 H 0.37956 0.60954 0.83702 0.0
H113 H 0.41278 0.63676 0.89293 0.0
H114 H 0.33332 0.73325 0.89327 0.0
H115 H 0.29967 0.70598 0.83709 0.0
H116 H 0.36688 1.0025 0.10584 0.0
H117 H 0.33383 0.94676 0.0782 0.0
H118 H 0.40616 0.87023 0.14576 0.0
H119 H 0.43916 0.92579 0.17312 0.0
Tb120 Tb 0.45859 0.14583 0.30125 0.0
Tb121 Tb 0.52098 0.17119 0.23554 0.0
C122 C 0.54298 0.10895 0.29339 0.0
C123 C 0.37252 0.14895 0.3653 0.0
C124 C 0.30727 0.18671 0.39713 0.0
C125 C 0.32252 0.153 0.41425 0.0
C126 C 0.35478 0.13435 0.39848 0.0
C127 C 0.35727 0.18235 0.34772 0.0
C128 C 0.32476 0.20099 0.36342 0.0
C129 C 0.40638 0.12867 0.3491 0.0
O130 O 0.48118 0.2004 0.31999 0.0
O131 O 0.5408 0.19359 0.29217 0.0
O132 O 0.48301 0.21983 0.24414 0.0
O133 O 0.42979 0.18508 0.26019 0.0
O134 O 0.57778 0.17622 0.21466 0.0
O135 O 0.52903 0.1963 0.18106 0.0
O136 O 0.47924 0.13161 0.20868 0.0
O137 O 0.4645 0.09743 0.26293 0.0
O138 O 0.51583 0.12144 0.31749 0.0
O139 O 0.54044 0.11607 0.25642 0.0
C140 C 0.5183 0.20688 0.3202 0.0
O141 O 0.4047 0.121 0.31228 0.0
O142 O 0.4402 0.14172 0.35909 0.0
C143 C 0.44553 0.21685 0.24679 0.0
C144 C 0.582 0.17102 0.14666 0.0
C145 C 0.61374 0.13642 0.07983 0.0
C146 C 0.62216 0.17496 0.08942 0.0
C147 C 0.60648 0.19202 0.1225 0.0
C148 C 0.57254 0.13286 0.13687 0.0
C149 C 0.58826 0.11568 0.1036 0.0
C150 C 0.56615 0.18977 0.18143 0.0
C151 C 0.46561 0.1003 0.22533 0.0
H152 H 0.30942 0.14097 0.43996 0.0
H153 H 0.36594 0.10849 0.41227 0.0
H154 H 0.37061 0.19407 0.32199 0.0
H155 H 0.31389 0.22703 0.34977 0.0
H156 H 0.64122 0.19192 0.07144 0.0
H157 H 0.61371 0.22163 0.12935 0.0
H158 H 0.55337 0.11631 0.15513 0.0
H159 H 0.58143 0.0859 0.09715 0.0
Tb160 Tb 0.60851 0.25495 0.55349 0.0
Tb161 Tb 0.63073 0.31875 0.48806 0.0
C162 C 0.57068 0.25806 0.46963 0.0
C163 C 0.61235 0.19181 0.64068 0.0
C164 C 0.64924 0.15981 0.70606 0.0
C165 C 0.61497 0.14372 0.69147 0.0
C166 C 0.59675 0.15957 0.65913 0.0
C167 C 0.64625 0.20847 0.6553 0.0
C168 C 0.6645 0.19266 0.6879 0.0
C169 C 0.59242 0.20787 0.6067 0.0
O170 O 0.66419 0.23833 0.53171 0.0
O171 O 0.65593 0.26213 0.47084 0.0
O172 O 0.67944 0.31437 0.5262 0.0
O173 O 0.64665 0.29777 0.58076 0.0
O174 O 0.63418 0.33737 0.43027 0.0
O175 O 0.65433 0.37316 0.47713 0.0
O176 O 0.5905 0.3463 0.52925 0.0
O177 O 0.55872 0.29163 0.54678 0.0
O178 O 0.58532 0.23554 0.49697 0.0
O179 O 0.57626 0.29531 0.47022 0.0
C180 C 0.67006 0.23551 0.49457 0.0
O181 O 0.58454 0.24472 0.60808 0.0
O182 O 0.60576 0.19748 0.57298 0.0
C183 C 0.67687 0.31339 0.56383 0.0
C184 C 0.62667 0.40498 0.42382 0.0
C185 C 0.58948 0.47026 0.39164 0.0
C186 C 0.62373 0.45534 0.37527 0.0
C187 C 0.64209 0.42306 0.39122 0.0
C188 C 0.59273 0.41989 0.44069 0.0
C189 C 0.57435 0.45243 0.42479 0.0
C190 C 0.64691 0.37129 0.44028 0.0
C191 C 0.56008 0.32922 0.54426 0.0
H192 H 0.6022 0.11872 0.70512 0.0
H193 H 0.57047 0.14655 0.64846 0.0
H194 H 0.65867 0.2335 0.64138 0.0
H195 H 0.69097 0.2055 0.69831 0.0
H196 H 0.63641 0.46873 0.35004 0.0
H197 H 0.66841 0.41218 0.37804 0.0
H198 H 0.58045 0.4063 0.46601 0.0
H199 H 0.54789 0.46307 0.43784 0.0
Tb200 Tb 0.02466 0.39829 0.80381 0.0
Tb201 Tb 0.95891 0.42053 0.74011 0.0
C202 C 0.01811 0.35887 0.72067 0.0
C203 C 0.08921 0.40331 0.88979 0.0
C204 C 0.12121 0.44108 0.95452 0.0
C205 C 0.13931 0.40825 0.93846 0.0
C206 C 0.12346 0.38959 0.90647 0.0
C207 C 0.07069 0.43588 0.90579 0.0
C208 C 0.08649 0.45453 0.93805 0.0
C209 C 0.07289 0.38271 0.8564 0.0
O210 O 0.04185 0.45274 0.77982 0.0
O211 O 0.01531 0.44338 0.72015 0.0
O212 O 0.9655 0.47017 0.77659 0.0
O213 O 0.98288 0.43807 0.83134 0.0
O214 O 0.93886 0.42372 0.68283 0.0
O215 O 0.90414 0.44478 0.73038 0.0
O216 O 0.93226 0.3817 0.78291 0.0
O217 O 0.98729 0.34926 0.79976 0.0
O218 O 0.04181 0.37289 0.74724 0.0
O219 O 0.98095 0.365 0.72331 0.0
C220 C 0.04264 0.45799 0.74248 0.0
O221 O 0.03616 0.37496 0.85846 0.0
O222 O 0.0826 0.39526 0.82224 0.0
C223 C 0.96766 0.46856 0.8142 0.0
C224 C 0.871 0.41836 0.67748 0.0
C225 C 0.80493 0.38333 0.64559 0.0
C226 C 0.81639 0.4204 0.63372 0.0
C227 C 0.84909 0.43767 0.64948 0.0
C228 C 0.85939 0.38171 0.69024 0.0
C229 C 0.82647 0.36433 0.67445 0.0
C230 C 0.90528 0.43742 0.69347 0.0
C231 C 0.94962 0.35139 0.79837 0.0
H232 H 0.1658 0.39683 0.95077 0.0
H233 H 0.13799 0.36436 0.89475 0.0
H234 H 0.04411 0.44689 0.89329 0.0
H235 H 0.07204 0.47988 0.94957 0.0
H236 H 0.80012 0.43603 0.61196 0.0
H237 H 0.85737 0.46613 0.63964 0.0
H238 H 0.87593 0.3665 0.7121 0.0
H239 H 0.81852 0.33569 0.68399 0.0
Tb240 Tb 0.85617 0.75083 0.98858 0.0
Tb241 Tb 0.87946 0.81483 0.0533 0.0
C242 C 0.81865 0.83529 0.99344 0.0
C243 C 0.85925 0.66344 0.926 0.0
C244 C 0.89679 0.59825 0.89394 0.0
C245 C 0.86243 0.6129 0.87761 0.0
C246 C 0.84389 0.64514 0.89349 0.0
C247 C 0.89326 0.64874 0.94288 0.0
C248 C 0.91181 0.61623 0.92706 0.0
C249 C 0.8391 0.69737 0.94213 0.0
O250 O 0.91005 0.77384 0.96869 0.0
O251 O 0.90316 0.83348 0.9968 0.0
O252 O 0.92903 0.77816 0.04537 0.0
O253 O 0.89633 0.72358 0.03003 0.0
O254 O 0.88393 0.87193 0.07344 0.0
O255 O 0.90391 0.82371 0.10789 0.0
O256 O 0.84002 0.77299 0.08025 0.0
O257 O 0.80688 0.75807 0.02559 0.0
O258 O 0.83218 0.80768 0.9705 0.0
O259 O 0.82512 0.83467 0.03058 0.0
C260 C 0.91659 0.81091 0.96888 0.0
O261 O 0.83223 0.69627 0.97914 0.0
O262 O 0.8516 0.73111 0.93124 0.0
C263 C 0.92733 0.74059 0.0438 0.0
C264 C 0.87766 0.87688 0.14118 0.0
C265 C 0.84145 0.90904 0.20684 0.0
C266 C 0.8774 0.9228 0.19398 0.0
C267 C 0.89527 0.90688 0.16148 0.0
C268 C 0.84212 0.86239 0.15416 0.0
C269 C 0.82418 0.87828 0.18689 0.0
C270 C 0.8971 0.86077 0.10698 0.0
C271 C 0.809 0.75922 0.06321 0.0
H272 H 0.84984 0.5994 0.85239 0.0
H273 H 0.81755 0.65588 0.88027 0.0
H274 H 0.90553 0.66251 0.96811 0.0
H275 H 0.93835 0.6058 0.94009 0.0
H276 H 0.89168 0.94611 0.20903 0.0
H277 H 0.92284 0.91814 0.15208 0.0
H278 H 0.82818 0.83905 0.13882 0.0
H279 H 0.79641 0.86729 0.19594 0.0
Tb280 Tb 0.52802 0.64856 0.23823 0.0
Tb281 Tb 0.46339 0.67165 0.303 0.0
C282 C 0.44389 0.61118 0.24264 0.0
C283 C 0.61524 0.6519 0.17524 0.0
C284 C 0.67994 0.6892 0.14298 0.0
C285 C 0.66454 0.6559 0.12565 0.0
C286 C 0.63255 0.63748 0.14163 0.0
C287 C 0.63067 0.68486 0.19307 0.0
C288 C 0.66293 0.70328 0.17715 0.0
C289 C 0.58157 0.63183 0.19145 0.0
O290 O 0.50456 0.70294 0.21939 0.0
O291 O 0.44466 0.69533 0.24632 0.0
O292 O 0.5 0.72094 0.29599 0.0
O293 O 0.55487 0.68795 0.28028 0.0
O294 O 0.40617 0.67615 0.32321 0.0
O295 O 0.45413 0.69571 0.3578 0.0
O296 O 0.50533 0.63153 0.32969 0.0
O297 O 0.5213 0.59902 0.27475 0.0
O298 O 0.47154 0.62462 0.21992 0.0
O299 O 0.44407 0.61763 0.2798 0.0
C300 C 0.46731 0.70901 0.21874 0.0
O301 O 0.58292 0.62466 0.2284 0.0
O302 O 0.54763 0.64452 0.18078 0.0
C303 C 0.53764 0.71889 0.29451 0.0
C304 C 0.40115 0.66962 0.39105 0.0
C305 C 0.36934 0.63372 0.45691 0.0
C306 C 0.3559 0.67014 0.44452 0.0
C307 C 0.37162 0.68784 0.41194 0.0
C308 C 0.4154 0.63362 0.40359 0.0
C309 C 0.39967 0.61583 0.4364 0.0
C310 C 0.41714 0.68906 0.35685 0.0
C311 C 0.51969 0.60072 0.31237 0.0
H312 H 0.67728 0.64404 0.0996 0.0
H313 H 0.62124 0.61195 0.12764 0.0
H314 H 0.61766 0.69642 0.21913 0.0
H315 H 0.67395 0.72899 0.19097 0.0
H316 H 0.33295 0.68494 0.45998 0.0
H317 H 0.36057 0.71578 0.40295 0.0
H318 H 0.43841 0.61921 0.38785 0.0
H319 H 0.41045 0.5877 0.44505 0.0
Tb320 Tb 0.27348 0.50007 0.13381 0.0
Tb321 Tb 0.20971 0.56586 0.15593 0.0
C322 C 0.27097 0.58387 0.09596 0.0
C323 C 0.33489 0.41224 0.14154 0.0
C324 C 0.3633 0.3477 0.18289 0.0
C325 C 0.34677 0.34303 0.14613 0.0
C326 C 0.33285 0.37503 0.12561 0.0
C327 C 0.3504 0.41686 0.17876 0.0
C328 C 0.36462 0.38492 0.19913 0.0
C329 C 0.31987 0.44551 0.11929 0.0
O330 O 0.29046 0.52215 0.18909 0.0
O331 O 0.26618 0.58301 0.18098 0.0
O332 O 0.21423 0.52851 0.20522 0.0
O333 O 0.23037 0.47373 0.17248 0.0
O334 O 0.19068 0.62368 0.1589 0.0
O335 O 0.15512 0.57705 0.17965 0.0
O336 O 0.18252 0.52464 0.11581 0.0
O337 O 0.23739 0.50693 0.08384 0.0
O338 O 0.29336 0.55626 0.11044 0.0
O339 O 0.23366 0.58355 0.10151 0.0
C340 C 0.29302 0.55928 0.19488 0.0
O341 O 0.2831 0.44454 0.11126 0.0
O342 O 0.33075 0.47991 0.13007 0.0
C343 C 0.21531 0.4909 0.20302 0.0
C344 C 0.12304 0.62995 0.1513 0.0
C345 C 0.05787 0.66163 0.11357 0.0
C346 C 0.07324 0.6793 0.14677 0.0
C347 C 0.10547 0.66359 0.16541 0.0
C348 C 0.10769 0.61182 0.11841 0.0
C349 C 0.07519 0.62746 0.09977 0.0
C350 C 0.15672 0.6138 0.17177 0.0
C351 C 0.19977 0.50974 0.08522 0.0
H352 H 0.34575 0.31481 0.13269 0.0
H353 H 0.32073 0.37077 0.09708 0.0
H354 H 0.3518 0.44512 0.19206 0.0
H355 H 0.37691 0.38936 0.22754 0.0
H356 H 0.06025 0.70539 0.15838 0.0
H357 H 0.1167 0.67778 0.19091 0.0
H358 H 0.1209 0.5857 0.10711 0.0
H359 H 0.06418 0.6134 0.07413 0.0
Tb360 Tb 0.77386 0.07038 0.90765 0.0
Tb361 Tb 0.70946 1.00592 0.8846 0.0
C362 C 0.76759 0.98743 0.947 0.0
C363 C 0.83755 0.1568 0.90456 0.0
C364 C 0.86985 0.2221 0.86829 0.0
C365 C 0.88508 0.20786 0.90327 0.0
C366 C 0.8691 0.17557 0.92116 0.0
C367 C 0.82175 0.17104 0.86992 0.0
C368 C 0.8377 0.20357 0.85197 0.0
C369 C 0.82101 0.12316 0.9244 0.0
O370 O 0.79233 0.0468 0.85324 0.0
O371 O 0.76667 0.98684 0.86217 0.0
O372 O 0.71606 0.04259 0.83506 0.0
O373 O 0.73281 0.09752 0.86705 0.0
O374 O 0.69099 0.94826 0.88155 0.0
O375 O 0.65544 0.99496 0.85975 0.0
O376 O 0.68098 0.04882 0.92242 0.0
O377 O 0.7349 0.06656 0.95571 0.0
O378 O 0.79127 1.01393 0.93306 0.0
O379 O 0.7305 0.99021 0.94072 0.0
C380 C 0.79377 1.00951 0.84778 0.0
O381 O 0.78403 0.12504 0.93131 0.0
O382 O 0.83145 0.08916 0.91173 0.0
C383 C 0.71807 0.08021 0.83657 0.0
C384 C 0.62319 0.94146 0.88587 0.0
C385 C 0.55701 0.90846 0.91981 0.0
C386 C 0.56985 0.89658 0.88305 0.0
C387 C 0.60259 0.91289 0.86632 0.0
C388 C 0.61026 0.95413 0.92225 0.0
C389 C 0.57731 0.9378 0.93908 0.0
C390 C 0.65745 0.95813 0.8673 0.0
C391 C 0.69732 0.06538 0.95254 0.0
H392 H 0.90947 0.22177 0.91689 0.0
H393 H 0.88142 0.16524 0.94804 0.0
H394 H 0.79722 0.15694 0.85674 0.0
H395 H 0.82552 0.21365 0.82495 0.0
H396 H 0.55457 0.87449 0.86717 0.0
H397 H 0.6119 0.90308 0.83806 0.0
H398 H 0.62577 0.97641 0.93765 0.0
H399 H 0.56831 0.94737 0.9675 0.0
Tb400 Tb 0.71297 0.99994 0.40496 0.0
Tb401 Tb 0.77797 0.06446 0.38319 0.0
C402 C 0.71714 0.08369 0.44335 0.0
C403 C 0.64948 0.91336 0.40083 0.0
C404 C 0.61715 0.84851 0.36378 0.0
C405 C 0.60024 0.86403 0.39743 0.0
C406 C 0.61625 0.89609 0.41572 0.0
C407 C 0.6669 0.89783 0.36751 0.0
C408 C 0.65094 0.8655 0.3492 0.0
C409 C 0.66581 0.94696 0.42095 0.0
O410 O 0.69514 0.02328 0.35029 0.0
O411 O 0.72154 0.0831 0.35887 0.0
O412 O 0.77213 0.02755 0.33377 0.0
O413 O 0.75554 0.9728 0.36598 0.0
O414 O 0.79723 0.12184 0.3793 0.0
O415 O 0.83298 0.07416 0.36007 0.0
O416 O 0.80458 0.02233 0.42296 0.0
O417 O 0.74941 1.00595 0.45471 0.0
O418 O 0.69447 0.05656 0.42902 0.0
O419 O 0.7544 0.0829 0.43757 0.0
C420 C 0.69445 0.06049 0.34441 0.0
O421 O 0.70271 0.94517 0.42833 0.0
O422 O 0.65542 0.98095 0.40826 0.0
C423 C 0.77073 0.98995 0.33565 0.0
C424 C 0.86483 0.12764 0.3869 0.0
C425 C 0.92964 0.16028 0.42373 0.0
C426 C 0.91493 0.17614 0.38924 0.0
C427 C 0.88289 0.15998 0.37107 0.0
C428 C 0.87956 0.11123 0.42106 0.0
C429 C 0.91187 0.12735 0.43927 0.0
C430 C 0.83126 0.11115 0.36689 0.0
C431 C 0.78706 1.00752 0.45327 0.0
H432 H 0.57452 0.85131 0.40972 0.0
H433 H 0.6026 0.90745 0.44155 0.0
H434 H 0.6927 0.91078 0.35561 0.0
H435 H 0.66445 0.8544 0.32321 0.0
H436 H 0.92827 0.20116 0.37623 0.0
H437 H 0.87215 0.17282 0.34458 0.0
H438 H 0.86599 0.08612 0.43368 0.0
H439 H 0.92235 0.11467 0.46591 0.0
Tb440 Tb 0.277 0.50444 0.65368 0.0
Tb441 Tb 0.2121 0.56869 0.6305 0.0
C442 C 0.19253 0.50795 0.69048 0.0
C443 C 0.36433 0.44114 0.65046 0.0
C444 C 0.42966 0.40913 0.6133 0.0
C445 C 0.41479 0.39238 0.64719 0.0
C446 C 0.38247 0.40825 0.66555 0.0
C447 C 0.37924 0.45845 0.61693 0.0
C448 C 0.41184 0.44264 0.59856 0.0
C449 C 0.33026 0.45716 0.67038 0.0
O450 O 0.25556 0.48756 0.59814 0.0
O451 O 0.19475 0.51228 0.60546 0.0
O452 O 0.25025 0.56333 0.58192 0.0
O453 O 0.30457 0.54713 0.61539 0.0
O454 O 0.15466 0.58869 0.62659 0.0
O455 O 0.20218 0.6231 0.60591 0.0
O456 O 0.25301 0.59562 0.67109 0.0
O457 O 0.26944 0.54068 0.70344 0.0
O458 O 0.22021 0.48532 0.67643 0.0
O459 O 0.19301 0.54519 0.68463 0.0
C460 C 0.21847 0.48521 0.59194 0.0
O461 O 0.33141 0.49396 0.67814 0.0
O462 O 0.29663 0.44689 0.65701 0.0
C463 C 0.28785 0.56244 0.58473 0.0
C464 C 0.14942 0.65654 0.63266 0.0
C465 C 0.11854 0.72315 0.66847 0.0
C466 C 0.10627 0.71195 0.63137 0.0
C467 C 0.12154 0.67898 0.6137 0.0
C468 C 0.16252 0.66788 0.66935 0.0
C469 C 0.14724 0.70105 0.68712 0.0
C470 C 0.16526 0.62219 0.61316 0.0
C471 C 0.26719 0.57829 0.70194 0.0
H472 H 0.42818 0.36685 0.65953 0.0
H473 H 0.37154 0.3947 0.69152 0.0
H474 H 0.36555 0.48398 0.60489 0.0
H475 H 0.42247 0.45599 0.57238 0.0
H476 H 0.0846 0.72865 0.61601 0.0
H477 H 0.11147 0.67093 0.58519 0.0
H478 H 0.18432 0.65095 0.68429 0.0
H479 H 0.15705 0.70878 0.71578 0.0
C480 C 0.21894 0.38148 0.55647 0.0
C481 C 0.18023 0.37113 0.56086 0.0
H482 H 0.26121 0.42568 0.56205 0.0
C483 C 0.15327 0.39945 0.57249 0.0
H484 H 0.23992 0.36065 0.54587 0.0
C485 C 0.16507 0.4372 0.58089 0.0
C486 C 0.20412 0.44738 0.5777 0.0
H487 H 0.12282 0.39276 0.57398 0.0
H488 H 0.14371 0.45818 0.59032 0.0
C489 C 0.23083 0.41902 0.56507 0.0
C490 C 0.85077 1.01469 0.80422 0.0
C491 C 0.83077 0.99396 0.83271 0.0
H492 H 0.90264 0.02 0.77083 0.0
C493 C 0.84969 0.96302 0.85119 0.0
H494 H 0.83716 0.03909 0.78995 0.0
C495 C 0.88812 0.95356 0.84182 0.0
C496 C 0.90777 0.97398 0.81284 0.0
H497 H 0.83518 0.9469 0.87359 0.0
H498 H 0.902 0.92951 0.85628 0.0
C499 C 0.8885 1.00434 0.79389 0.0
C500 C 0.27796 0.67704 0.0401 0.0
C501 C 0.3067 0.69694 0.06052 0.0
H502 H 0.24447 0.62545 0.03517 0.0
C503 C 0.32548 0.67813 0.09129 0.0
H504 H 0.26346 0.69054 0.01581 0.0
C505 C 0.31616 0.63989 0.1009 0.0
C506 C 0.28695 0.62033 0.08079 0.0
H507 H 0.34809 0.69256 0.10715 0.0
H508 H 0.33087 0.62609 0.12481 0.0
C509 C 0.2677 0.63951 0.05059 0.0
C510 C 0.60852 0.08049 0.28067 0.0
C511 C 0.58084 0.09411 0.30747 0.0
H512 H 0.66654 0.06005 0.2713 0.0
C513 C 0.59178 0.09784 0.34633 0.0
H514 H 0.6012 0.07704 0.25045 0.0
C515 C 0.62968 0.08912 0.35783 0.0
C516 C 0.65736 0.07645 0.33078 0.0
H517 H 0.5713 0.10805 0.36774 0.0
H518 H 0.63697 0.09114 0.38814 0.0
C519 C 0.64621 0.07142 0.29229 0.0
C520 C 0.69908 0.17017 0.50683 0.0
C521 C 0.68442 0.19753 0.48028 0.0
H522 H 0.71999 0.11234 0.51605 0.0
C523 C 0.67921 0.18613 0.44172 0.0
H524 H 0.70368 0.17783 0.53681 0.0
C525 C 0.68751 0.1481 0.43031 0.0
C526 C 0.70127 0.12077 0.45715 0.0
H527 H 0.66823 0.20637 0.42048 0.0
H528 H 0.68443 0.14047 0.40016 0.0
C529 C 0.70775 0.13239 0.49528 0.0
C530 C 0.09783 0.45413 0.69549 0.0
C531 C 0.07931 0.47287 0.72648 0.0
H532 H 0.14967 0.44854 0.66162 0.0
C533 C 0.09952 0.50142 0.74686 0.0
H534 H 0.08316 0.43169 0.67962 0.0
C535 C 0.13707 0.51151 0.73614 0.0
C536 C 0.15597 0.49224 0.70577 0.0
H537 H 0.08624 0.5159 0.7713 0.0
H538 H 0.15137 0.53459 0.75155 0.0
C539 C 0.13609 0.46324 0.68567 0.0
C540 C 0.75554 0.92274 0.97686 0.0
C541 C 0.78195 0.94947 0.96136 0.0
H542 H 0.74634 0.86532 0.99829 0.0
C543 C 0.82025 0.93733 0.95512 0.0
H544 H 0.72578 0.93099 0.98224 0.0
C545 C 0.83149 0.89916 0.96318 0.0
C546 C 0.80478 0.87246 0.97782 0.0
H547 H 0.84137 0.95708 0.94347 0.0
H548 H 0.86144 0.89094 0.9592 0.0
C549 C 0.76696 0.88485 0.98538 0.0
C550 C 0.37891 0.62429 0.21454 0.0
C551 C 0.40705 0.59737 0.22665 0.0
H552 H 0.32035 0.63388 0.19609 0.0
C553 C 0.39653 0.55874 0.23123 0.0
H554 H 0.38571 0.65469 0.21287 0.0
C555 C 0.35901 0.5469 0.22235 0.0
C556 C 0.33083 0.57357 0.20928 0.0
H557 H 0.4172 0.5378 0.24217 0.0
H558 H 0.35221 0.51659 0.22555 0.0
C559 C 0.34118 0.61254 0.20588 0.0
C560 C 0.5646 0.20246 0.37568 0.0
C561 C 0.53433 0.22199 0.35674 0.0
H562 H 0.59794 0.19665 0.42778 0.0
C563 C 0.51454 0.25156 0.37645 0.0
H564 H 0.5798 0.17907 0.36143 0.0
C565 C 0.52536 0.26207 0.4139 0.0
C566 C 0.55517 0.24219 0.43318 0.0
H567 H 0.49055 0.26653 0.36283 0.0
H568 H 0.51049 0.28595 0.42783 0.0
C569 C 0.57447 0.21201 0.41385 0.0
C570 C 0.01708 0.31937 0.61847 0.0
C571 C 0.05472 0.32684 0.60594 0.0
H572 H 0.97625 0.32292 0.66462 0.0
C573 C 0.08153 0.34172 0.63252 0.0
H574 H 0.9964 0.30626 0.59907 0.0
C575 C 0.07052 0.35017 0.67064 0.0
C576 C 0.03237 0.34407 0.68287 0.0
H577 H 0.11139 0.34559 0.62425 0.0
H578 H 0.0917 0.36204 0.69027 0.0
C579 C 1.0059 0.32825 0.65629 0.0
C580 C 0.91601 0.84841 0.86659 0.0
C581 C 0.95516 0.84516 0.85638 0.0
H582 H 0.87342 0.84105 0.91092 0.0
C583 C 0.98168 0.83192 0.8845 0.0
H584 H 0.89481 0.85833 0.84577 0.0
C585 C 0.96948 0.82271 0.92188 0.0
C586 C 0.93067 0.82713 0.93226 0.0
H587 H 1.01211 0.82886 0.87778 0.0
H588 H 0.9903 0.81164 0.94255 0.0
C589 C 0.90392 0.83945 0.90417 0.0
C590 C 0.45868 0.75995 0.16889 0.0
C591 C 0.45152 0.7223 0.18147 0.0
H592 H 0.45546 0.80045 0.1225 0.0
C593 C 0.43736 0.69518 0.1548 0.0
H594 H 0.47123 0.78088 0.18838 0.0
C595 C 0.42939 0.70587 0.11649 0.0
C596 C 0.43532 0.74398 0.10415 0.0
H597 H 0.43374 0.66533 0.16313 0.0
H598 H 0.41812 0.68445 0.09678 0.0
C599 C 0.45033 0.77079 0.13086 0.0
C600 C 0.18058 0.40891 0.26792 0.0
C601 C 0.16487 0.42983 0.29921 0.0
H602 H 0.20875 0.41162 0.21249 0.0
C603 C 0.16754 0.4702 0.29899 0.0
H604 H 0.17892 0.3777 0.2673 0.0
C605 C 0.18438 0.48937 0.26802 0.0
C606 C 0.1992 0.46886 0.2361 0.0
H607 H 0.15654 0.48717 0.32294 0.0
H608 H 0.1854 0.5206 0.26918 0.0
C609 C 0.19751 0.42829 0.23651 0.0
C610 C 0.86857 0.97438 0.52003 0.0
C611 C 0.84737 0.95842 0.55082 0.0
H612 H 0.86628 1.0024 0.46453 0.0
C613 C 0.80695 0.96059 0.5498 0.0
H614 H 0.89984 0.97312 0.5201 0.0
C615 C 0.78798 0.97711 0.51843 0.0
C616 C 0.8088 0.99205 0.48692 0.0
H617 H 0.78978 0.94936 0.57338 0.0
H618 H 0.75669 0.97768 0.5189 0.0
C619 C 0.84941 0.99098 0.48821 0.0
C620 C 0.29117 0.57945 0.76972 0.0
C621 C 0.28152 0.60004 0.73597 0.0
H622 H 0.31541 0.58083 0.82636 0.0
C623 C 0.28766 0.64013 0.73519 0.0
H624 H 0.28633 0.54866 0.77184 0.0
C625 C 0.30465 0.65875 0.76702 0.0
C626 C 0.31584 0.63749 0.79994 0.0
H627 H 0.2804 0.65683 0.70973 0.0
H628 H 0.31024 0.68942 0.76535 0.0
C629 C 0.30805 0.59786 0.80112 0.0
C630 C 0.67362 0.12368 0.04179 0.0
C631 C 0.63393 0.1176 0.04673 0.0
H632 H 0.7241 0.1125 1.00862 0.0
C633 C 0.61452 0.09376 0.02015 0.0
H634 H 0.68965 0.14125 0.06202 0.0
C635 C 0.63456 0.07686 0.98895 0.0
C636 C 0.67438 0.08317 0.98425 0.0
H637 H 0.58385 0.0886 0.02321 0.0
H638 H 0.61906 0.05869 0.96885 0.0
C639 C 0.69348 0.10681 1.01113 0.0
C640 C 0.68384 0.16188 0.77054 0.0
C641 C 0.66951 0.14078 0.73888 0.0
H642 H 0.71045 0.15942 0.82675 0.0
C643 C 0.67357 0.10049 0.73895 0.0
H644 H 0.68114 0.19305 0.7712 0.0
C645 C 0.69013 0.08149 0.7703 0.0
C646 C 0.7032 0.10213 0.80274 0.0
H647 H 0.66367 0.08345 0.71469 0.0
H648 H 0.69211 0.05029 0.7691 0.0
C649 C 0.70049 0.14267 0.80233 0.0
C650 C 0.19845 0.48445 0.01788 0.0
C651 C 0.17787 0.4954 0.05127 0.0
H652 H 0.19675 0.45959 0.96152 0.0
C653 C 0.13754 0.49075 0.05172 0.0
H654 H 0.22944 0.4881 0.016 0.0
C655 C 0.1186 0.47405 0.01992 0.0
C656 C 0.13976 0.46166 0.98733 0.0
H657 H 0.12083 0.49903 0.07688 0.0
H658 H 0.08769 0.46968 0.02132 0.0
C659 C 0.17972 0.46788 0.98649 0.0
C660 C 0.78691 0.92728 0.3011 0.0
C661 C 0.78693 0.96787 0.30255 0.0
H662 H 0.8042 0.8765 0.26943 0.0
C663 C 0.80359 0.98834 0.2717 0.0
H664 H 0.77417 0.91068 0.32429 0.0
C665 C 0.82055 0.96903 0.24076 0.0
C666 C 0.82147 0.92859 0.23952 0.0
H667 H 0.80399 0.0196 0.27139 0.0
H668 H 0.83303 0.98593 0.21764 0.0
C669 C 0.80393 0.90777 0.26969 0.0
C670 C 0.28987 0.59731 0.52188 0.0
C671 C 0.31021 0.5792 0.55218 0.0
H672 H 0.29238 0.6278 0.46848 0.0
C673 C 0.35081 0.57801 0.55047 0.0
H674 H 0.2586 0.59877 0.52179 0.0
C675 C 0.37043 0.59508 0.51926 0.0
C676 C 0.34972 0.61389 0.48957 0.0
H677 H 0.36733 0.56415 0.5732 0.0
H678 H 0.40171 0.59429 0.51874 0.0
C679 C 0.30927 0.61432 0.49118 0.0
C680 C 0.24336 0.22987 0.47465 0.0
C681 C 0.21071 0.24258 0.45383 0.0
H682 H 0.29903 0.20308 0.47316 0.0
C683 C 0.21082 0.23872 0.41338 0.0
H684 H 0.24479 0.23272 0.50577 0.0
C685 C 0.24252 0.22137 0.39448 0.0
C686 C 0.2744 0.20746 0.41581 0.0
H687 H 0.18625 0.24834 0.39648 0.0
H688 H 0.24161 0.21784 0.36342 0.0
C689 C 0.2746 0.21261 0.45597 0.0
C690 C 0.05358 0.03443 0.64335 0.0
C691 C 0.06817 0.06598 0.66438 0.0
H692 H 0.02666 0.9786 0.64593 0.0
C693 C 0.06424 0.0661 0.70468 0.0
H694 H 0.05617 0.03361 0.61218 0.0
C695 C 0.04757 0.03505 0.72375 0.0
C696 C 0.03422 1.0027 0.70319 0.0
H697 H 0.07432 0.09028 0.72168 0.0
H698 H 0.0457 0.03639 0.75495 0.0
C699 C 0.03681 1.00294 0.66263 0.0
C700 C 0.24525 0.843 0.89166 0.0
C701 C 0.21387 0.85828 0.91281 0.0
H702 H 0.30111 0.81524 0.89408 0.0
C703 C 0.21403 0.85475 0.95313 0.0
H704 H 0.24583 0.84526 0.86046 0.0
C705 C 0.24522 0.83779 0.97212 0.0
C706 C 0.27742 0.82377 0.95144 0.0
H707 H 0.18996 0.86538 0.97021 0.0
H708 H 0.2441 0.83625 1.00335 0.0
C709 C 0.27689 0.82594 0.91086 0.0
C710 C 0.44797 0.06802 0.16214 0.0
C711 C 0.45177 0.06681 0.20255 0.0
H712 H 0.43038 0.03769 0.1109 0.0
C713 C 0.44126 0.03286 0.22216 0.0
H714 H 0.45586 0.09367 0.14618 0.0
C715 C 0.42697 1.00117 0.20219 0.0
C716 C 0.42262 1.0023 0.16195 0.0
H717 H 0.44369 0.03066 0.25327 0.0
H718 H 0.4184 0.97598 0.21855 0.0
C719 C 0.43329 0.03606 0.142 0.0
C720 C 0.74335 0.34404 0.64629 0.0
C721 C 0.77213 0.36409 0.6258 0.0
H722 H 0.69007 0.31241 0.64297 0.0
C723 C 0.76945 0.36628 0.58546 0.0
H724 H 0.74468 0.34192 0.67747 0.0
C725 C 0.73864 0.34965 0.56599 0.0
C726 C 0.70934 0.33017 0.58615 0.0
H727 H 0.79144 0.3808 0.56871 0.0
H728 H 0.73788 0.35242 0.53483 0.0
C729 C 0.71204 0.32736 0.62661 0.0
C730 C 0.94945 0.50237 0.87675 0.0
C731 C 0.95225 0.50216 0.8362 0.0
H732 H 0.92955 0.53312 0.92713 0.0
C733 C 0.93866 0.53457 0.81561 0.0
H734 H 0.95978 0.47797 0.89347 0.0
C735 C 0.92157 0.56569 0.83462 0.0
C736 C 0.91746 0.56557 0.8749 0.0
H737 H 0.94068 0.53593 0.78442 0.0
H738 H 0.91133 0.58993 0.8176 0.0
C739 C 0.93226 0.53394 0.89598 0.0
C740 C 0.74248 0.73236 0.06494 0.0
C741 C 0.77557 0.74411 0.08532 0.0
H742 H 0.68673 0.70663 0.0671 0.0
C743 C 0.77617 0.73975 0.12572 0.0
H744 H 0.7405 0.73566 0.03389 0.0
C745 C 0.74475 0.72277 0.14496 0.0
C746 C 0.71244 0.70974 0.12403 0.0
H747 H 0.8011 0.74864 0.14228 0.0
H748 H 0.74622 0.71878 0.17595 0.0
C749 C 0.7115 0.71547 0.08396 0.0
C750 C 0.55464 0.53487 0.39388 0.0
C751 C 0.56913 0.50316 0.37269 0.0
H752 H 0.52765 0.59108 0.39157 0.0
C753 C 0.56505 0.50319 0.33241 0.0
H754 H 0.55736 0.53558 0.42503 0.0
C755 C 0.54825 0.53451 0.31351 0.0
C756 C 0.53496 0.56699 0.33423 0.0
H757 H 0.57507 0.4789 0.31531 0.0
H758 H 0.54624 0.53327 0.28231 0.0
C759 C 0.53777 0.56664 0.37476 0.0
C760 C 0.36438 0.27797 0.20445 0.0
C761 C 0.38203 0.31447 0.20279 0.0
H762 H 0.37032 0.21821 0.22061 0.0
C763 C 0.41915 0.31876 0.21836 0.0
H764 H 0.33563 0.27393 0.19289 0.0
C765 C 0.43886 0.28714 0.2338 0.0
C766 C 0.4219 0.25039 0.23442 0.0
H767 H 0.4337 0.34632 0.21722 0.0
H768 H 0.46791 0.29141 0.24457 0.0
C769 C 0.38406 0.2462 0.22051 0.0
C770 C 0.94848 0.28661 0.82963 0.0
C771 C 0.92774 0.31823 0.81435 0.0
H772 H 0.94663 0.23185 0.85769 0.0
C773 C 0.88712 0.31738 0.81541 0.0
H774 H 0.97976 0.28575 0.82911 0.0
C775 C 0.8679 0.28587 0.83222 0.0
C776 C 0.88904 0.25491 0.84841 0.0
H777 H 0.87028 0.34114 0.80375 0.0
H778 H 0.83664 0.28616 0.83339 0.0
C779 C 0.92947 0.25555 0.84632 0.0
C780 C 0.02575 0.7202 0.0865 0.0
C781 C 0.02508 0.68025 0.09282 0.0
H782 H 0.99617 0.77001 0.06591 0.0
C783 C 0.99272 0.65919 0.08032 0.0
H784 H 0.05056 0.73712 0.09495 0.0
C785 C 0.96092 0.67824 0.06336 0.0
C786 C 0.96122 0.71855 0.05853 0.0
H787 H 0.9915 0.62827 0.08477 0.0
H788 H 0.93591 0.66163 0.05495 0.0
C789 C 0.99441 0.73902 0.06963 0.0
C790 C 0.61926 0.78364 0.32978 0.0
C791 C 0.59818 0.81583 0.34348 0.0
H792 H 0.61681 0.72729 0.30354 0.0
C793 C 0.55797 0.81645 0.33871 0.0
H794 H 0.65036 0.78239 0.33303 0.0
C795 C 0.539 0.78533 0.32206 0.0
C796 C 0.55959 0.7524 0.30958 0.0
H797 H 0.54094 0.84111 0.34809 0.0
H798 H 0.50786 0.78709 0.3195 0.0
C799 C 0.60009 0.75208 0.31303 0.0
C800 C 0.49342 0.33091 0.5712 0.0
C801 C 0.52621 0.35133 0.55893 0.0
H802 H 0.43757 0.33311 0.59719 0.0
C803 C 0.52615 0.3918 0.56242 0.0
H804 H 0.49194 0.2998 0.56853 0.0
C805 C 0.49439 0.41109 0.57917 0.0
C806 C 0.46242 0.39014 0.59281 0.0
H807 H 0.55085 0.40838 0.55308 0.0
H808 H 0.49533 0.44216 0.58255 0.0
C809 C 0.4621 0.34999 0.58786 0.0
C810 C 0.12019 0.78457 0.70843 0.0
C811 C 0.09926 0.75626 0.68818 0.0
H812 H 0.11763 0.83769 0.74083 0.0
C813 C 0.05894 0.75964 0.68635 0.0
H814 H 0.15138 0.78268 0.71029 0.0
C815 C 0.0399 0.79065 0.70356 0.0
C816 C 0.0605 0.81947 0.7233 0.0
H817 H 0.04186 0.73803 0.67168 0.0
H818 H 1.00873 0.79194 0.70105 0.0
C819 C 0.10095 0.8161 0.72571 0.0
C820 C 0.46292 0.88917 0.97414 0.0
C821 C 0.46058 0.84874 0.97119 0.0
H822 H 0.49546 0.94005 0.96024 0.0
C823 C 0.49045 0.82864 0.95205 0.0
H824 H 0.44051 0.9055 0.98881 0.0
C825 C 0.52153 0.84817 0.93596 0.0
C826 C 0.52388 0.8885 0.93836 0.0
H827 H 0.48996 0.7975 0.94922 0.0
H828 H 0.54399 0.83147 0.92176 0.0
C829 C 0.49445 0.90889 0.95799 0.0
C830 C 0.96205 0.21986 0.44724 0.0
C831 C 0.96224 0.17953 0.44388 0.0
H832 H 0.99166 0.27021 0.46533 0.0
C833 C 0.99391 0.15856 0.45888 0.0
H834 H 0.93779 0.23684 0.43681 0.0
C835 C 0.02538 0.1779 0.4756 0.0
C836 C 0.02548 0.21846 0.47774 0.0
H837 H 0.99481 0.12737 0.45672 0.0
H838 H 0.04976 0.16122 0.48618 0.0
C839 C 0.99308 0.239 0.46387 0.0
loop_
_geom_bond_atom_site_label_1
_geom_bond_atom_site_label_2
_geom_bond_distance
_geom_bond_site_symmetry_2
_ccdc_geom_bond_type
Tb0 C9 2.764 . S
Tb0 O10 2.325 . S
Tb0 O13 2.303 . S
Tb0 O17 2.322 . S
Tb0 O18 2.349 . S
Tb0 O21 2.415 . S
Tb0 O22 2.399 . S
Tb1 O11 2.322 . S
Tb1 O12 2.349 . S
Tb1 O14 2.415 . S
Tb1 O15 2.399 . S
Tb1 O16 2.325 . S
Tb1 O19 2.303 . S
Tb1 C30 2.764 . S
C2 O18 1.261 . S
C2 O19 1.257 . S
C3 C6 1.358 . S
C3 C7 1.332 . S
C3 C9 1.504 . S
C4 C5 1.373 . S
C4 C8 1.308 . S
C5 C4 1.373 . S
C5 C6 1.429 . S
C5 H32 0.932 . S
C6 C3 1.358 . S
C6 C5 1.429 . S
C6 H33 0.930 . S
C7 C3 1.332 . S
C7 C8 1.394 . S
C7 H34 0.932 . S
C8 C4 1.308 . S
C8 C7 1.394 . S
C8 H35 0.929 . S
C9 Tb0 2.764 . S
C9 C3 1.504 . S
C9 O21 1.239 . S
C9 O22 1.263 . S
O10 Tb0 2.325 . S
O10 C20 1.236 . S
O11 Tb1 2.322 . S
O11 C20 1.257 . S
O12 Tb1 2.349 . S
O12 C23 1.261 . S
O13 Tb0 2.303 . S
O13 C23 1.257 . S
O14 Tb1 2.415 . S
O14 C30 1.239 . S
O15 Tb1 2.399 . S
O15 C30 1.263 . S
O16 Tb1 2.325 . S
O16 C31 1.236 . S
O17 Tb0 2.322 . S
O17 C31 1.257 . S
O18 Tb0 2.349 . S
O18 C2 1.261 . S
O19 Tb1 2.303 . S
O19 C2 1.257 . S
C20 O10 1.236 . S
C20 O11 1.257 . S
O21 Tb0 2.415 . S
O21 C9 1.239 . S
O22 Tb0 2.399 . S
O22 C9 1.263 . S
C23 O12 1.261 . S
C23 O13 1.257 . S
C24 C27 1.358 . S
C24 C28 1.332 . S
C24 C30 1.504 . S
C25 C26 1.373 . S
C25 C29 1.308 . S
C26 C25 1.373 . S
C26 C27 1.429 . S
C26 H36 0.932 . S
C27 C24 1.358 . S
C27 C26 1.429 . S
C27 H37 0.930 . S
C28 C24 1.332 . S
C28 C29 1.394 . S
C28 H38 0.932 . S
C29 C25 1.308 . S
C29 C28 1.394 . S
C29 H39 0.929 . S
C30 Tb1 2.764 . S
C30 O14 1.239 . S
C30 O15 1.263 . S
C30 C24 1.504 . S
C31 O16 1.236 . S
C31 O17 1.257 . S
H32 C5 0.932 . S
H33 C6 0.930 . S
H34 C7 0.932 . S
H35 C8 0.929 . S
H36 C26 0.932 . S
H37 C27 0.930 . S
H38 C28 0.932 . S
H39 C29 0.929 . S
Tb40 C49 2.764 . S
Tb40 O50 2.325 . S
Tb40 O53 2.303 . S
Tb40 O57 2.322 . S
Tb40 O58 2.349 1_455 S
Tb40 O61 2.415 . S
Tb40 O62 2.399 . S
Tb41 O51 2.322 . S
Tb41 O52 2.349 1_655 S
Tb41 O54 2.415 . S
Tb41 O55 2.399 . S
Tb41 O56 2.316 1_655 S
Tb41 O59 2.303 . S
Tb41 C70 2.764 . S
C42 O58 1.261 . S
C42 O59 1.257 . S
C43 C46 1.358 . S
C43 C47 1.332 . S
C43 C49 1.504 . S
C44 C45 1.373 . S
C44 C48 1.308 . S
C45 C44 1.373 . S
C45 C46 1.429 . S
C45 H72 0.932 . S
C46 C43 1.358 . S
C46 C45 1.429 . S
C46 H73 0.930 . S
C47 C43 1.332 . S
C47 C48 1.394 . S
C47 H74 0.932 . S
C48 C44 1.308 . S
C48 C47 1.394 . S
C48 H75 0.929 . S
C49 Tb40 2.764 . S
C49 C43 1.504 . S
C49 O61 1.239 . S
C49 O62 1.263 . S
O50 Tb40 2.325 . S
O50 C60 1.236 1_455 S
O51 Tb41 2.322 . S
O51 C60 1.257 . S
O52 Tb41 2.349 1_455 S
O52 C63 1.261 . S
O53 Tb40 2.303 . S
O53 C63 1.257 . S
O54 Tb41 2.415 . S
O54 C70 1.239 . S
O55 Tb41 2.399 . S
O55 C70 1.263 . S
O56 Tb41 2.316 1_455 S
O56 C71 1.245 . S
O57 Tb40 2.322 . S
O57 C71 1.257 . S
O58 Tb40 2.349 1_655 S
O58 C42 1.261 . S
O59 Tb41 2.303 . S
O59 C42 1.257 . S
C60 O50 1.236 1_655 S
C60 O51 1.257 . S
O61 Tb40 2.415 . S
O61 C49 1.239 . S
O62 Tb40 2.399 . S
O62 C49 1.263 . S
C63 O52 1.261 . S
C63 O53 1.257 . S
C64 C67 1.358 . S
C64 C68 1.332 . S
C64 C70 1.504 . S
C65 C66 1.373 . S
C65 C69 1.308 . S
C66 C65 1.373 . S
C66 C67 1.429 . S
C66 H76 0.932 . S
C67 C64 1.358 . S
C67 C66 1.429 . S
C67 H77 0.930 . S
C68 C64 1.332 . S
C68 C69 1.394 . S
C68 H78 0.932 . S
C69 C65 1.308 . S
C69 C68 1.394 . S
C69 H79 0.929 1_565 S
C70 Tb41 2.764 . S
C70 O54 1.239 . S
C70 O55 1.263 . S
C70 C64 1.504 . S
C71 O56 1.245 . S
C71 O57 1.257 . S
H72 C45 0.932 . S
H73 C46 0.930 . S
H74 C47 0.932 . S
H75 C48 0.929 . S
H76 C66 0.932 . S
H77 C67 0.930 . S
H78 C68 0.932 . S
H79 C69 0.929 1_545 S
Tb80 C89 2.764 . S
Tb80 O90 2.325 . S
Tb80 O93 2.303 . S
Tb80 O97 2.322 . S
Tb80 O98 2.349 1_556 S
Tb80 O101 2.415 . S
Tb80 O102 2.399 . S
Tb81 O91 2.322 . S
Tb81 O92 2.349 1_554 S
Tb81 O94 2.415 . S
Tb81 O95 2.399 . S
Tb81 O96 2.325 . S
Tb81 O99 2.303 . S
Tb81 C110 2.764 . S
C82 O98 1.261 . S
C82 O99 1.257 . S
C83 C86 1.358 . S
C83 C87 1.332 . S
C83 C89 1.504 . S
C84 C85 1.373 . S
C84 C88 1.308 . S
C85 C84 1.373 . S
C85 C86 1.429 . S
C85 H112 0.932 . S
C86 C83 1.358 . S
C86 C85 1.429 . S
C86 H113 0.930 . S
C87 C83 1.332 . S
C87 C88 1.394 . S
C87 H114 0.932 . S
C88 C84 1.308 . S
C88 C87 1.394 . S
C88 H115 0.929 . S
C89 Tb80 2.764 . S
C89 C83 1.504 . S
C89 O101 1.239 . S
C89 O102 1.263 . S
O90 Tb80 2.325 . S
O90 C100 1.236 1_556 S
O91 Tb81 2.322 . S
O91 C100 1.257 . S
O92 Tb81 2.349 1_556 S
O92 C103 1.261 . S
O93 Tb80 2.303 . S
O93 C103 1.257 . S
O94 Tb81 2.415 . S
O94 C110 1.239 . S
O95 Tb81 2.399 . S
O95 C110 1.263 . S
O96 Tb81 2.325 . S
O96 C111 1.236 1_554 S
O97 Tb80 2.322 . S
O97 C111 1.257 . S
O98 Tb80 2.349 1_554 S
O98 C82 1.261 . S
O99 Tb81 2.303 . S
O99 C82 1.257 . S
C100 O90 1.236 1_554 S
C100 O91 1.257 . S
O101 Tb80 2.415 . S
O101 C89 1.239 . S
O102 Tb80 2.399 . S
O102 C89 1.263 . S
C103 O92 1.261 . S
C103 O93 1.257 . S
C104 C107 1.358 . S
C104 C108 1.332 . S
C104 C110 1.504 . S
C105 C106 1.373 . S
C105 C109 1.308 . S
C106 C105 1.373 . S
C106 C107 1.429 . S
C106 H116 0.932 . S
C107 C104 1.358 . S
C107 C106 1.429 . S
C107 H117 0.930 . S
C108 C104 1.332 . S
C108 C109 1.394 . S
C108 H118 0.932 . S
C109 C105 1.308 . S
C109 C108 1.394 . S
C109 H119 0.929 . S
C110 Tb81 2.764 . S
C110 O94 1.239 . S
C110 O95 1.263 . S
C110 C104 1.504 . S
C111 O96 1.236 1_556 S
C111 O97 1.257 . S
H112 C85 0.932 . S
H113 C86 0.930 . S
H114 C87 0.932 . S
H115 C88 0.929 . S
H116 C106 0.932 . S
H117 C107 0.930 . S
H118 C108 0.932 . S
H119 C109 0.929 . S
Tb120 C129 2.764 . S
Tb120 O130 2.325 . S
Tb120 O133 2.303 . S
Tb120 O137 2.322 . S
Tb120 O138 2.349 . S
Tb120 O141 2.415 . S
Tb120 O142 2.399 . S
Tb121 O131 2.322 . S
Tb121 O132 2.349 . S
Tb121 O134 2.415 . S
Tb121 O135 2.399 . S
Tb121 O136 2.325 . S
Tb121 O139 2.303 . S
Tb121 C150 2.764 . S
C122 O138 1.261 . S
C122 O139 1.257 . S
C123 C126 1.358 . S
C123 C127 1.332 . S
C123 C129 1.504 . S
C124 C125 1.373 . S
C124 C128 1.308 . S
C125 C124 1.373 . S
C125 C126 1.429 . S
C125 H152 0.932 . S
C126 C123 1.358 . S
C126 C125 1.429 . S
C126 H153 0.930 . S
C127 C123 1.332 . S
C127 C128 1.394 . S
C127 H154 0.932 . S
C128 C124 1.308 . S
C128 C127 1.394 . S
C128 H155 0.929 . S
C129 Tb120 2.764 . S
C129 C123 1.504 . S
C129 O141 1.239 . S
C129 O142 1.263 . S
O130 Tb120 2.325 . S
O130 C140 1.236 . S
O131 Tb121 2.322 . S
O131 C140 1.257 . S
O132 Tb121 2.349 . S
O132 C143 1.261 . S
O133 Tb120 2.303 . S
O133 C143 1.257 . S
O134 Tb121 2.415 . S
O134 C150 1.239 . S
O135 Tb121 2.399 . S
O135 C150 1.263 . S
O136 Tb121 2.325 . S
O136 C151 1.236 . S
O137 Tb120 2.322 . S
O137 C151 1.257 . S
O138 Tb120 2.349 . S
O138 C122 1.261 . S
O139 Tb121 2.303 . S
O139 C122 1.257 . S
C140 O130 1.236 . S
C140 O131 1.257 . S
O141 Tb120 2.415 . S
O141 C129 1.239 . S
O142 Tb120 2.399 . S
O142 C129 1.263 . S
C143 O132 1.261 . S
C143 O133 1.257 . S
C144 C147 1.358 . S
C144 C148 1.332 . S
C144 C150 1.504 . S
C145 C146 1.373 . S
C145 C149 1.308 . S
C146 C145 1.373 . S
C146 C147 1.429 . S
C146 H156 0.932 . S
C147 C144 1.358 . S
C147 C146 1.429 . S
C147 H157 0.930 . S
C148 C144 1.332 . S
C148 C149 1.394 . S
C148 H158 0.932 . S
C149 C145 1.308 . S
C149 C148 1.394 . S
C149 H159 0.929 . S
C150 Tb121 2.764 . S
C150 O134 1.239 . S
C150 O135 1.263 . S
C150 C144 1.504 . S
C151 O136 1.236 . S
C151 O137 1.257 . S
H152 C125 0.932 . S
H153 C126 0.930 . S
H154 C127 0.932 . S
H155 C128 0.929 . S
H156 C146 0.932 . S
H157 C147 0.930 . S
H158 C148 0.932 . S
H159 C149 0.929 . S
Tb160 C169 2.764 . S
Tb160 O170 2.325 . S
Tb160 O173 2.303 . S
Tb160 O177 2.322 . S
Tb160 O178 2.349 . S
Tb160 O181 2.415 . S
Tb160 O182 2.399 . S
Tb161 O171 2.322 . S
Tb161 O172 2.349 . S
Tb161 O174 2.415 . S
Tb161 O175 2.399 . S
Tb161 O176 2.325 . S
Tb161 O179 2.303 . S
Tb161 C190 2.764 . S
C162 O178 1.261 . S
C162 O179 1.257 . S
C163 C166 1.358 . S
C163 C167 1.332 . S
C163 C169 1.504 . S
C164 C165 1.373 . S
C164 C168 1.308 . S
C165 C164 1.373 . S
C165 C166 1.429 . S
C165 H192 0.932 . S
C166 C163 1.358 . S
C166 C165 1.429 . S
C166 H193 0.930 . S
C167 C163 1.332 . S
C167 C168 1.394 . S
C167 H194 0.932 . S
C168 C164 1.308 . S
C168 C167 1.394 . S
C168 H195 0.929 . S
C169 Tb160 2.764 . S
C169 C163 1.504 . S
C169 O181 1.239 . S
C169 O182 1.263 . S
O170 Tb160 2.325 . S
O170 C180 1.236 . S
O171 Tb161 2.322 . S
O171 C180 1.257 . S
O172 Tb161 2.349 . S
O172 C183 1.261 . S
O173 Tb160 2.303 . S
O173 C183 1.257 . S
O174 Tb161 2.415 . S
O174 C190 1.239 . S
O175 Tb161 2.399 . S
O175 C190 1.263 . S
O176 Tb161 2.325 . S
O176 C191 1.236 . S
O177 Tb160 2.322 . S
O177 C191 1.257 . S
O178 Tb160 2.349 . S
O178 C162 1.261 . S
O179 Tb161 2.303 . S
O179 C162 1.257 . S
C180 O170 1.236 . S
C180 O171 1.257 . S
O181 Tb160 2.415 . S
O181 C169 1.239 . S
O182 Tb160 2.399 . S
O182 C169 1.263 . S
C183 O172 1.261 . S
C183 O173 1.257 . S
C184 C187 1.358 . S
C184 C188 1.332 . S
C184 C190 1.504 . S
C185 C186 1.373 . S
C185 C189 1.308 . S
C186 C185 1.373 . S
C186 C187 1.429 . S
C186 H196 0.932 . S
C187 C184 1.358 . S
C187 C186 1.429 . S
C187 H197 0.930 . S
C188 C184 1.332 . S
C188 C189 1.394 . S
C188 H198 0.932 . S
C189 C185 1.308 . S
C189 C188 1.394 . S
C189 H199 0.929 . S
C190 Tb161 2.764 . S
C190 O174 1.239 . S
C190 O175 1.263 . S
C190 C184 1.504 . S
C191 O176 1.236 . S
C191 O177 1.257 . S
H192 C165 0.932 . S
H193 C166 0.930 . S
H194 C167 0.932 . S
H195 C168 0.929 . S
H196 C186 0.932 . S
H197 C187 0.930 . S
H198 C188 0.932 . S
H199 C189 0.929 . S
Tb200 C209 2.764 . S
Tb200 O210 2.325 . S
Tb200 O213 2.303 1_455 S
Tb200 O217 2.322 1_455 S
Tb200 O218 2.349 . S
Tb200 O221 2.415 . S
Tb200 O222 2.399 . S
Tb201 O211 2.322 . S
Tb201 O212 2.349 . S
Tb201 O214 2.415 . S
Tb201 O215 2.399 . S
Tb201 O216 2.325 . S
Tb201 O219 2.303 . S
Tb201 C230 2.764 . S
C202 O218 1.261 . S
C202 O219 1.257 1_455 S
C203 C206 1.358 . S
C203 C207 1.332 . S
C203 C209 1.504 . S
C204 C205 1.373 . S
C204 C208 1.308 . S
C205 C204 1.373 . S
C205 C206 1.429 . S
C205 H232 0.932 . S
C206 C203 1.358 . S
C206 C205 1.429 . S
C206 H233 0.930 . S
C207 C203 1.332 . S
C207 C208 1.394 . S
C207 H234 0.932 . S
C208 C204 1.308 . S
C208 C207 1.394 . S
C208 H235 0.929 . S
C209 Tb200 2.764 . S
C209 C203 1.504 . S
C209 O221 1.239 . S
C209 O222 1.263 . S
O210 Tb200 2.325 . S
O210 C220 1.236 . S
O211 Tb201 2.322 . S
O211 C220 1.257 1_655 S
O212 Tb201 2.349 . S
O212 C223 1.261 . S
O213 Tb200 2.303 1_655 S
O213 C223 1.257 . S
O214 Tb201 2.415 . S
O214 C230 1.239 . S
O215 Tb201 2.399 . S
O215 C230 1.263 . S
O216 Tb201 2.325 . S
O216 C231 1.236 . S
O217 Tb200 2.322 1_655 S
O217 C231 1.257 . S
O218 Tb200 2.349 . S
O218 C202 1.261 . S
O219 Tb201 2.303 . S
O219 C202 1.257 1_655 S
C220 O210 1.236 . S
C220 O211 1.257 1_455 S
O221 Tb200 2.415 . S
O221 C209 1.239 . S
O222 Tb200 2.399 . S
O222 C209 1.263 . S
C223 O212 1.261 . S
C223 O213 1.257 . S
C224 C227 1.358 . S
C224 C228 1.332 . S
C224 C230 1.504 . S
C225 C226 1.373 . S
C225 C229 1.308 . S
C226 C225 1.373 . S
C226 C227 1.429 . S
C226 H236 0.932 . S
C227 C224 1.358 . S
C227 C226 1.429 . S
C227 H237 0.930 . S
C228 C224 1.332 . S
C228 C229 1.394 . S
C228 H238 0.932 . S
C229 C225 1.308 . S
C229 C228 1.394 . S
C229 H239 0.929 . S
C230 Tb201 2.764 . S
C230 O214 1.239 . S
C230 O215 1.263 . S
C230 C224 1.504 . S
C231 O216 1.236 . S
C231 O217 1.257 . S
H232 C205 0.932 . S
H233 C206 0.930 . S
H234 C207 0.932 . S
H235 C208 0.929 . S
H236 C226 0.932 . S
H237 C227 0.930 . S
H238 C228 0.932 . S
H239 C229 0.929 . S
Tb240 C249 2.764 . S
Tb240 O250 2.325 . S
Tb240 O253 2.303 1_556 S
Tb240 O257 2.322 1_556 S
Tb240 O258 2.349 . S
Tb240 O261 2.415 . S
Tb240 O262 2.399 . S
Tb241 O251 2.322 1_554 S
Tb241 O252 2.349 . S
Tb241 O254 2.415 . S
Tb241 O255 2.399 . S
Tb241 O256 2.325 . S
Tb241 O259 2.303 1_554 S
Tb241 C270 2.764 . S
C242 O258 1.261 . S
C242 O259 1.257 . S
C243 C246 1.358 . S
C243 C247 1.332 . S
C243 C249 1.504 . S
C244 C245 1.373 . S
C244 C248 1.308 . S
C245 C244 1.373 . S
C245 C246 1.429 . S
C245 H272 0.932 . S
C246 C243 1.358 . S
C246 C245 1.429 . S
C246 H273 0.930 . S
C247 C243 1.332 . S
C247 C248 1.394 . S
C247 H274 0.932 . S
C248 C244 1.308 . S
C248 C247 1.394 . S
C248 H275 0.929 . S
C249 Tb240 2.764 . S
C249 C243 1.504 . S
C249 O261 1.239 . S
C249 O262 1.263 . S
O250 Tb240 2.325 . S
O250 C260 1.236 . S
O251 Tb241 2.322 1_556 S
O251 C260 1.257 . S
O252 Tb241 2.349 . S
O252 C263 1.261 . S
O253 Tb240 2.303 1_554 S
O253 C263 1.257 . S
O254 Tb241 2.415 . S
O254 C270 1.239 . S
O255 Tb241 2.399 . S
O255 C270 1.263 . S
O256 Tb241 2.325 . S
O256 C271 1.236 . S
O257 Tb240 2.322 1_554 S
O257 C271 1.257 . S
O258 Tb240 2.349 . S
O258 C242 1.261 . S
O259 Tb241 2.303 1_556 S
O259 C242 1.257 . S
C260 O250 1.236 . S
C260 O251 1.257 . S
O261 Tb240 2.415 . S
O261 C249 1.239 . S
O262 Tb240 2.399 . S
O262 C249 1.263 . S
C263 O252 1.261 . S
C263 O253 1.257 . S
C264 C267 1.358 . S
C264 C268 1.332 . S
C264 C270 1.504 . S
C265 C266 1.373 . S
C265 C269 1.308 . S
C266 C265 1.373 . S
C266 C267 1.429 . S
C266 H276 0.932 . S
C267 C264 1.358 . S
C267 C266 1.429 . S
C267 H277 0.930 . S
C268 C264 1.332 . S
C268 C269 1.394 . S
C268 H278 0.932 . S
C269 C265 1.308 . S
C269 C268 1.394 . S
C269 H279 0.929 . S
C270 Tb241 2.764 . S
C270 O254 1.239 . S
C270 O255 1.263 . S
C270 C264 1.504 . S
C271 O256 1.236 . S
C271 O257 1.257 . S
H272 C245 0.932 . S
H273 C246 0.930 . S
H274 C247 0.932 . S
H275 C248 0.929 . S
H276 C266 0.932 . S
H277 C267 0.930 . S
H278 C268 0.932 . S
H279 C269 0.929 . S
Tb280 C289 2.764 . S
Tb280 O290 2.325 . S
Tb280 O293 2.303 . S
Tb280 O297 2.322 . S
Tb280 O298 2.349 . S
Tb280 O301 2.415 . S
Tb280 O302 2.399 . S
Tb281 O291 2.322 . S
Tb281 O292 2.349 . S
Tb281 O294 2.415 . S
Tb281 O295 2.399 . S
Tb281 O296 2.325 . S
Tb281 O299 2.303 . S
Tb281 C310 2.764 . S
C282 O298 1.261 . S
C282 O299 1.257 . S
C283 C286 1.358 . S
C283 C287 1.332 . S
C283 C289 1.504 . S
C284 C285 1.373 . S
C284 C288 1.308 . S
C285 C284 1.373 . S
C285 C286 1.429 . S
C285 H312 0.932 . S
C286 C283 1.358 . S
C286 C285 1.429 . S
C286 H313 0.930 . S
C287 C283 1.332 . S
C287 C288 1.394 . S
C287 H314 0.932 . S
C288 C284 1.308 . S
C288 C287 1.394 . S
C288 H315 0.929 . S
C289 Tb280 2.764 . S
C289 C283 1.504 . S
C289 O301 1.239 . S
C289 O302 1.263 . S
O290 Tb280 2.325 . S
O290 C300 1.236 . S
O291 Tb281 2.322 . S
O291 C300 1.257 . S
O292 Tb281 2.349 . S
O292 C303 1.261 . S
O293 Tb280 2.303 . S
O293 C303 1.257 . S
O294 Tb281 2.415 . S
O294 C310 1.239 . S
O295 Tb281 2.399 . S
O295 C310 1.263 . S
O296 Tb281 2.325 . S
O296 C311 1.236 . S
O297 Tb280 2.322 . S
O297 C311 1.257 . S
O298 Tb280 2.349 . S
O298 C282 1.261 . S
O299 Tb281 2.303 . S
O299 C282 1.257 . S
C300 O290 1.236 . S
C300 O291 1.257 . S
O301 Tb280 2.415 . S
O301 C289 1.239 . S
O302 Tb280 2.399 . S
O302 C289 1.263 . S
C303 O292 1.261 . S
C303 O293 1.257 . S
C304 C307 1.358 . S
C304 C308 1.332 . S
C304 C310 1.504 . S
C305 C306 1.373 . S
C305 C309 1.308 . S
C306 C305 1.373 . S
C306 C307 1.429 . S
C306 H316 0.932 . S
C307 C304 1.358 . S
C307 C306 1.429 . S
C307 H317 0.930 . S
C308 C304 1.332 . S
C308 C309 1.394 . S
C308 H318 0.932 . S
C309 C305 1.308 . S
C309 C308 1.394 . S
C309 H319 0.929 . S
C310 Tb281 2.764 . S
C310 O294 1.239 . S
C310 O295 1.263 . S
C310 C304 1.504 . S
C311 O296 1.236 . S
C311 O297 1.257 . S
H312 C285 0.932 . S
H313 C286 0.930 . S
H314 C287 0.932 . S
H315 C288 0.929 . S
H316 C306 0.932 . S
H317 C307 0.930 . S
H318 C308 0.932 . S
H319 C309 0.929 . S
Tb320 C329 2.764 . S
Tb320 O330 2.325 . S
Tb320 O333 2.303 . S
Tb320 O337 2.322 . S
Tb320 O338 2.349 . S
Tb320 O341 2.415 . S
Tb320 O342 2.399 . S
Tb321 O331 2.322 . S
Tb321 O332 2.349 . S
Tb321 O334 2.415 . S
Tb321 O335 2.399 . S
Tb321 O336 2.325 . S
Tb321 O339 2.303 . S
Tb321 C350 2.764 . S
C322 O338 1.261 . S
C322 O339 1.257 . S
C323 C326 1.358 . S
C323 C327 1.332 . S
C323 C329 1.504 . S
C324 C325 1.373 . S
C324 C328 1.308 . S
C325 C324 1.373 . S
C325 C326 1.429 . S
C325 H352 0.932 . S
C326 C323 1.358 . S
C326 C325 1.429 . S
C326 H353 0.930 . S
C327 C323 1.332 . S
C327 C328 1.394 . S
C327 H354 0.932 . S
C328 C324 1.308 . S
C328 C327 1.394 . S
C328 H355 0.929 . S
C329 Tb320 2.764 . S
C329 C323 1.504 . S
C329 O341 1.239 . S
C329 O342 1.263 . S
O330 Tb320 2.325 . S
O330 C340 1.236 . S
O331 Tb321 2.322 . S
O331 C340 1.257 . S
O332 Tb321 2.349 . S
O332 C343 1.261 . S
O333 Tb320 2.303 . S
O333 C343 1.257 . S
O334 Tb321 2.415 . S
O334 C350 1.239 . S
O335 Tb321 2.399 . S
O335 C350 1.263 . S
O336 Tb321 2.325 . S
O336 C351 1.236 . S
O337 Tb320 2.322 . S
O337 C351 1.257 . S
O338 Tb320 2.349 . S
O338 C322 1.261 . S
O339 Tb321 2.303 . S
O339 C322 1.257 . S
C340 O330 1.236 . S
C340 O331 1.257 . S
O341 Tb320 2.415 . S
O341 C329 1.239 . S
O342 Tb320 2.399 . S
O342 C329 1.263 . S
C343 O332 1.261 . S
C343 O333 1.257 . S
C344 C347 1.358 . S
C344 C348 1.332 . S
C344 C350 1.504 . S
C345 C346 1.373 . S
C345 C349 1.308 . S
C346 C345 1.373 . S
C346 C347 1.429 . S
C346 H356 0.932 . S
C347 C344 1.358 . S
C347 C346 1.429 . S
C347 H357 0.930 . S
C348 C344 1.332 . S
C348 C349 1.394 . S
C348 H358 0.932 . S
C349 C345 1.308 . S
C349 C348 1.394 . S
C349 H359 0.929 . S
C350 Tb321 2.764 . S
C350 O334 1.239 . S
C350 O335 1.263 . S
C350 C344 1.504 . S
C351 O336 1.236 . S
C351 O337 1.257 . S
H352 C325 0.932 . S
H353 C326 0.930 . S
H354 C327 0.932 . S
H355 C328 0.929 . S
H356 C346 0.932 . S
H357 C347 0.930 . S
H358 C348 0.932 . S
H359 C349 0.929 . S
Tb360 C369 2.764 . S
Tb360 O370 2.325 . S
Tb360 O373 2.303 . S
Tb360 O377 2.322 . S
Tb360 O378 2.349 . S
Tb360 O381 2.415 . S
Tb360 O382 2.399 . S
Tb361 O371 2.322 . S
Tb361 O372 2.349 1_565 S
Tb361 O374 2.415 . S
Tb361 O375 2.399 . S
Tb361 O376 2.325 1_565 S
Tb361 O379 2.303 . S
Tb361 C390 2.764 . S
C362 O378 1.261 1_565 S
C362 O379 1.257 . S
C363 C366 1.358 . S
C363 C367 1.332 . S
C363 C369 1.504 . S
C364 C365 1.373 . S
C364 C368 1.308 . S
C365 C364 1.373 . S
C365 C366 1.429 . S
C365 H392 0.932 . S
C366 C363 1.358 . S
C366 C365 1.429 . S
C366 H393 0.930 . S
C367 C363 1.332 . S
C367 C368 1.394 . S
C367 H394 0.932 . S
C368 C364 1.308 . S
C368 C367 1.394 . S
C368 H395 0.929 . S
C369 Tb360 2.764 . S
C369 C363 1.504 . S
C369 O381 1.239 . S
C369 O382 1.263 . S
O370 Tb360 2.325 . S
O370 C380 1.237 . S
O371 Tb361 2.322 . S
O371 C380 1.257 1_565 S
O372 Tb361 2.349 1_545 S
O372 C383 1.261 . S
O373 Tb360 2.303 . S
O373 C383 1.257 . S
O374 Tb361 2.415 . S
O374 C390 1.239 . S
O375 Tb361 2.399 . S
O375 C390 1.263 . S
O376 Tb361 2.325 1_545 S
O376 C391 1.236 . S
O377 Tb360 2.322 . S
O377 C391 1.257 . S
O378 Tb360 2.349 . S
O378 C362 1.261 1_545 S
O379 Tb361 2.303 . S
O379 C362 1.257 . S
C380 O370 1.237 . S
C380 O371 1.257 1_545 S
O381 Tb360 2.415 . S
O381 C369 1.239 . S
O382 Tb360 2.399 . S
O382 C369 1.263 . S
C383 O372 1.261 . S
C383 O373 1.257 . S
C384 C387 1.358 . S
C384 C388 1.332 . S
C384 C390 1.504 . S
C385 C386 1.373 . S
C385 C389 1.308 . S
C386 C385 1.373 . S
C386 C387 1.429 . S
C386 H396 0.932 . S
C387 C384 1.358 . S
C387 C386 1.429 . S
C387 H397 0.930 . S
C388 C384 1.332 . S
C388 C389 1.394 . S
C388 H398 0.932 . S
C389 C385 1.308 . S
C389 C388 1.394 . S
C389 H399 0.929 . S
C390 Tb361 2.764 . S
C390 O374 1.239 . S
C390 O375 1.263 . S
C390 C384 1.504 . S
C391 O376 1.236 . S
C391 O377 1.257 . S
H392 C365 0.932 . S
H393 C366 0.930 . S
H394 C367 0.932 . S
H395 C368 0.929 . S
H396 C386 0.932 . S
H397 C387 0.930 . S
H398 C388 0.932 . S
H399 C389 0.929 . S
Tb400 C409 2.764 . S
Tb400 O410 2.325 . S
Tb400 O413 2.303 . S
Tb400 O417 2.322 . S
Tb400 O418 2.349 1_565 S
Tb400 O421 2.415 . S
Tb400 O422 2.399 . S
Tb401 O411 2.322 . S
Tb401 O412 2.349 1_545 S
Tb401 O414 2.415 . S
Tb401 O415 2.399 . S
Tb401 O416 2.325 . S
Tb401 O419 2.303 . S
Tb401 C430 2.764 . S
C402 O418 1.261 . S
C402 O419 1.257 . S
C403 C406 1.358 . S
C403 C407 1.332 . S
C403 C409 1.504 . S
C404 C405 1.373 . S
C404 C408 1.308 . S
C405 C404 1.373 . S
C405 C406 1.429 . S
C405 H432 0.932 . S
C406 C403 1.358 . S
C406 C405 1.429 . S
C406 H433 0.930 . S
C407 C403 1.332 . S
C407 C408 1.394 . S
C407 H434 0.932 . S
C408 C404 1.308 . S
C408 C407 1.394 . S
C408 H435 0.929 . S
C409 Tb400 2.764 . S
C409 C403 1.504 . S
C409 O421 1.239 . S
C409 O422 1.263 . S
O410 Tb400 2.325 . S
O410 C420 1.236 1_565 S
O411 Tb401 2.322 . S
O411 C420 1.257 . S
O412 Tb401 2.349 1_565 S
O412 C423 1.261 . S
O413 Tb400 2.303 . S
O413 C423 1.257 . S
O414 Tb401 2.415 . S
O414 C430 1.239 . S
O415 Tb401 2.399 . S
O415 C430 1.263 . S
O416 Tb401 2.325 . S
O416 C431 1.236 1_545 S
O417 Tb400 2.322 . S
O417 C431 1.257 . S
O418 Tb400 2.349 1_545 S
O418 C402 1.261 . S
O419 Tb401 2.303 . S
O419 C402 1.257 . S
C420 O410 1.236 1_545 S
C420 O411 1.257 . S
O421 Tb400 2.415 . S
O421 C409 1.239 . S
O422 Tb400 2.399 . S
O422 C409 1.263 . S
C423 O412 1.261 . S
C423 O413 1.257 . S
C424 C427 1.358 . S
C424 C428 1.332 . S
C424 C430 1.504 . S
C425 C426 1.373 . S
C425 C429 1.308 . S
C426 C425 1.373 . S
C426 C427 1.429 . S
C426 H436 0.932 . S
C427 C424 1.358 . S
C427 C426 1.429 . S
C427 H437 0.930 . S
C428 C424 1.332 . S
C428 C429 1.394 . S
C428 H438 0.932 . S
C429 C425 1.308 . S
C429 C428 1.394 . S
C429 H439 0.929 . S
C430 Tb401 2.764 . S
C430 O414 1.239 . S
C430 O415 1.263 . S
C430 C424 1.504 . S
C431 O416 1.236 1_565 S
C431 O417 1.257 . S
H432 C405 0.932 . S
H433 C406 0.930 . S
H434 C407 0.932 . S
H435 C408 0.929 . S
H436 C426 0.932 . S
H437 C427 0.930 . S
H438 C428 0.932 . S
H439 C429 0.929 . S
Tb440 C449 2.764 . S
Tb440 O450 2.325 . S
Tb440 O453 2.303 . S
Tb440 O457 2.322 . S
Tb440 O458 2.349 . S
Tb440 O461 2.415 . S
Tb440 O462 2.399 . S
Tb441 O451 2.322 . S
Tb441 O452 2.349 . S
Tb441 O454 2.415 . S
Tb441 O455 2.399 . S
Tb441 O456 2.325 . S
Tb441 O459 2.303 . S
Tb441 C470 2.764 . S
C442 O458 1.261 . S
C442 O459 1.257 . S
C443 C446 1.358 . S
C443 C447 1.332 . S
C443 C449 1.504 . S
C444 C445 1.373 . S
C444 C448 1.308 . S
C445 C444 1.373 . S
C445 C446 1.429 . S
C445 H472 0.932 . S
C446 C443 1.358 . S
C446 C445 1.429 . S
C446 H473 0.930 . S
C447 C443 1.332 . S
C447 C448 1.394 . S
C447 H474 0.932 . S
C448 C444 1.308 . S
C448 C447 1.394 . S
C448 H475 0.929 . S
C449 Tb440 2.764 . S
C449 C443 1.504 . S
C449 O461 1.239 . S
C449 O462 1.263 . S
O450 Tb440 2.325 . S
O450 C460 1.236 . S
O451 Tb441 2.322 . S
O451 C460 1.257 . S
O452 Tb441 2.349 . S
O452 C463 1.261 . S
O453 Tb440 2.303 . S
O453 C463 1.257 . S
O454 Tb441 2.415 . S
O454 C470 1.239 . S
O455 Tb441 2.399 . S
O455 C470 1.263 . S
O456 Tb441 2.325 . S
O456 C471 1.236 . S
O457 Tb440 2.322 . S
O457 C471 1.257 . S
O458 Tb440 2.349 . S
O458 C442 1.261 . S
O459 Tb441 2.303 . S
O459 C442 1.257 . S
C460 O450 1.236 . S
C460 O451 1.257 . S
O461 Tb440 2.415 . S
O461 C449 1.239 . S
O462 Tb440 2.399 . S
O462 C449 1.263 . S
C463 O452 1.261 . S
C463 O453 1.257 . S
C464 C467 1.358 . S
C464 C468 1.332 . S
C464 C470 1.504 . S
C465 C466 1.373 . S
C465 C469 1.308 . S
C466 C465 1.373 . S
C466 C467 1.429 . S
C466 H476 0.932 . S
C467 C464 1.358 . S
C467 C466 1.429 . S
C467 H477 0.930 . S
C468 C464 1.332 . S
C468 C469 1.394 . S
C468 H478 0.932 . S
C469 C465 1.308 . S
C469 C468 1.394 . S
C469 H479 0.929 . S
C470 Tb441 2.764 . S
C470 O454 1.239 . S
C470 O455 1.263 . S
C470 C464 1.504 . S
C471 O456 1.236 . S
C471 O457 1.257 . S
H472 C445 0.932 . S
H473 C446 0.930 . S
H474 C447 0.932 . S
H475 C448 0.929 . S
H476 C466 0.932 . S
H477 C467 0.930 . S
H478 C468 0.932 . S
H479 C469 0.929 . S
C480 C481 1.387 . S
C480 H484 0.950 . S
C480 C489 1.390 . S
C481 C480 1.387 . S
C481 C483 1.387 . S
H482 C489 0.950 . S
C483 C481 1.387 . S
C483 C485 1.390 . S
C483 H487 0.950 . S
H484 C480 0.950 . S
C485 C483 1.390 . S
C485 C486 1.387 . S
C485 H488 0.950 . S
C486 C485 1.387 . S
C486 C489 1.387 . S
H487 C483 0.950 . S
H488 C485 0.950 . S
C489 C480 1.390 . S
C489 H482 0.950 . S
C489 C486 1.387 . S
C490 C491 1.387 . S
C490 H494 0.950 . S
C490 C499 1.390 . S
C491 C490 1.387 . S
C491 C493 1.386 1_565 S
H492 C499 0.950 . S
C493 C491 1.386 1_545 S
C493 C495 1.389 1_545 S
C493 H497 0.952 . S
H494 C490 0.950 . S
C495 C493 1.389 1_565 S
C495 C496 1.387 . S
C495 H498 0.950 1_565 S
C496 C495 1.387 . S
C496 C499 1.387 . S
H497 C493 0.952 . S
H498 C495 0.950 1_545 S
C499 C490 1.390 . S
C499 H492 0.950 . S
C499 C496 1.387 . S
C500 C501 1.387 . S
C500 H504 0.950 1_554 S
C500 C509 1.390 . S
C501 C500 1.387 . S
C501 C503 1.387 . S
H502 C509 0.950 1_556 S
C503 C501 1.387 . S
C503 C505 1.390 . S
C503 H507 0.950 . S
H504 C500 0.950 1_556 S
C505 C503 1.390 . S
C505 C506 1.387 . S
C505 H508 0.950 . S
C506 C505 1.387 . S
C506 C509 1.387 . S
H507 C503 0.950 . S
H508 C505 0.950 . S
C509 C500 1.390 . S
C509 H502 0.950 1_554 S
C509 C506 1.387 . S
C510 C511 1.387 . S
C510 H514 0.950 . S
C510 C519 1.390 . S
C511 C510 1.387 . S
C511 C513 1.387 . S
H512 C519 0.950 . S
C513 C511 1.387 . S
C513 C515 1.390 . S
C513 H517 0.950 . S
H514 C510 0.950 . S
C515 C513 1.390 . S
C515 C516 1.387 . S
C515 H518 0.950 . S
C516 C515 1.387 . S
C516 C519 1.387 . S
H517 C513 0.950 . S
H518 C515 0.950 . S
C519 C510 1.390 . S
C519 H512 0.950 . S
C519 C516 1.387 . S
C520 C521 1.387 . S
C520 H524 0.950 . S
C520 C529 1.390 . S
C521 C520 1.387 . S
C521 C523 1.387 . S
H522 C529 0.950 . S
C523 C521 1.387 . S
C523 C525 1.390 . S
C523 H527 0.950 . S
H524 C520 0.950 . S
C525 C523 1.390 . S
C525 C526 1.387 . S
C525 H528 0.950 . S
C526 C525 1.387 . S
C526 C529 1.387 . S
H527 C523 0.950 . S
H528 C525 0.950 . S
C529 C520 1.390 . S
C529 H522 0.950 . S
C529 C526 1.387 . S
C530 C531 1.387 . S
C530 H534 0.950 . S
C530 C539 1.390 . S
C531 C530 1.387 . S
C531 C533 1.387 . S
H532 C539 0.950 . S
C533 C531 1.387 . S
C533 C535 1.390 . S
C533 H537 0.950 . S
H534 C530 0.950 . S
C535 C533 1.390 . S
C535 C536 1.387 . S
C535 H538 0.950 . S
C536 C535 1.387 . S
C536 C539 1.387 . S
H537 C533 0.950 . S
H538 C535 0.950 . S
C539 C530 1.390 . S
C539 H532 0.950 . S
C539 C536 1.387 . S
C540 C541 1.387 . S
C540 H544 0.950 . S
C540 C549 1.390 . S
C541 C540 1.387 . S
C541 C543 1.387 . S
H542 C549 0.950 . S
C543 C541 1.387 . S
C543 C545 1.390 . S
C543 H547 0.950 . S
H544 C540 0.950 . S
C545 C543 1.390 . S
C545 C546 1.387 . S
C545 H548 0.950 . S
C546 C545 1.387 . S
C546 C549 1.387 . S
H547 C543 0.950 . S
H548 C545 0.950 . S
C549 C540 1.390 . S
C549 H542 0.950 . S
C549 C546 1.387 . S
C550 C551 1.387 . S
C550 H554 0.950 . S
C550 C559 1.390 . S
C551 C550 1.387 . S
C551 C553 1.387 . S
H552 C559 0.950 . S
C553 C551 1.387 . S
C553 C555 1.390 . S
C553 H557 0.950 . S
H554 C550 0.950 . S
C555 C553 1.390 . S
C555 C556 1.387 . S
C555 H558 0.950 . S
C556 C555 1.387 . S
C556 C559 1.387 . S
H557 C553 0.950 . S
H558 C555 0.950 . S
C559 C550 1.390 . S
C559 H552 0.950 . S
C559 C556 1.387 . S
C560 C561 1.387 . S
C560 H564 0.950 . S
C560 C569 1.390 . S
C561 C560 1.387 . S
C561 C563 1.387 . S
H562 C569 0.950 . S
C563 C561 1.387 . S
C563 C565 1.390 . S
C563 H567 0.950 . S
H564 C560 0.950 . S
C565 C563 1.390 . S
C565 C566 1.387 . S
C565 H568 0.950 . S
C566 C565 1.387 . S
C566 C569 1.387 . S
H567 C563 0.950 . S
H568 C565 0.950 . S
C569 C560 1.390 . S
C569 H562 0.950 . S
C569 C566 1.387 . S
C570 C571 1.387 1_655 S
C570 H574 0.950 . S
C570 C579 1.390 . S
C571 C570 1.387 1_455 S
C571 C573 1.387 . S
H572 C579 0.950 . S
C573 C571 1.387 . S
C573 C575 1.390 . S
C573 H577 0.950 . S
H574 C570 0.950 . S
C575 C573 1.390 . S
C575 C576 1.387 . S
C575 H578 0.950 . S
C576 C575 1.387 . S
C576 C579 1.387 1_455 S
H577 C573 0.950 . S
H578 C575 0.950 . S
C579 C570 1.390 . S
C579 H572 0.950 . S
C579 C576 1.387 1_655 S
C580 C581 1.387 . S
C580 H584 0.950 . S
C580 C589 1.390 . S
C581 C580 1.387 . S
C581 C583 1.387 . S
H582 C589 0.950 . S
C583 C581 1.387 . S
C583 C585 1.390 . S
C583 H587 0.950 1_655 S
H584 C580 0.950 . S
C585 C583 1.390 . S
C585 C586 1.387 . S
C585 H588 0.950 . S
C586 C585 1.387 . S
C586 C589 1.387 . S
H587 C583 0.950 1_455 S
H588 C585 0.950 . S
C589 C580 1.390 . S
C589 H582 0.950 . S
C589 C586 1.387 . S
C590 C591 1.387 . S
C590 H594 0.950 . S
C590 C599 1.390 . S
C591 C590 1.387 . S
C591 C593 1.387 . S
H592 C599 0.950 . S
C593 C591 1.387 . S
C593 C595 1.390 . S
C593 H597 0.950 . S
H594 C590 0.950 . S
C595 C593 1.390 . S
C595 C596 1.387 . S
C595 H598 0.950 . S
C596 C595 1.387 . S
C596 C599 1.387 . S
H597 C593 0.950 . S
H598 C595 0.950 . S
C599 C590 1.390 . S
C599 H592 0.950 . S
C599 C596 1.387 . S
C600 C601 1.387 . S
C600 H604 0.950 . S
C600 C609 1.390 . S
C601 C600 1.387 . S
C601 C603 1.387 . S
H602 C609 0.950 . S
C603 C601 1.387 . S
C603 C605 1.390 . S
C603 H607 0.950 . S
H604 C600 0.950 . S
C605 C603 1.390 . S
C605 C606 1.387 . S
C605 H608 0.950 . S
C606 C605 1.387 . S
C606 C609 1.387 . S
H607 C603 0.950 . S
H608 C605 0.950 . S
C609 C600 1.390 . S
C609 H602 0.950 . S
C609 C606 1.387 . S
C610 C611 1.387 1_545 S
C610 H614 0.950 . S
C610 C619 1.390 . S
C611 C610 1.387 1_565 S
C611 C613 1.387 . S
H612 C619 0.950 . S
C613 C611 1.387 . S
C613 C615 1.390 . S
C613 H617 0.950 . S
H614 C610 0.950 . S
C615 C613 1.390 . S
C615 C616 1.387 . S
C615 H618 0.950 . S
C616 C615 1.387 . S
C616 C619 1.387 1_565 S
H617 C613 0.950 . S
H618 C615 0.950 . S
C619 C610 1.390 . S
C619 H612 0.950 . S
C619 C616 1.387 1_545 S
C620 C621 1.387 . S
C620 H624 0.950 . S
C620 C629 1.390 . S
C621 C620 1.387 . S
C621 C623 1.387 . S
H622 C629 0.950 . S
C623 C621 1.387 . S
C623 C625 1.390 . S
C623 H627 0.950 . S
H624 C620 0.950 . S
C625 C623 1.390 . S
C625 C626 1.387 . S
C625 H628 0.950 . S
C626 C625 1.387 . S
C626 C629 1.387 . S
H627 C623 0.950 . S
H628 C625 0.950 . S
C629 C620 1.390 . S
C629 H622 0.950 . S
C629 C626 1.387 . S
C630 C631 1.387 . S
C630 H634 0.950 . S
C630 C639 1.390 1_554 S
C631 C630 1.387 . S
C631 C633 1.387 . S
H632 C639 0.950 . S
C633 C631 1.387 . S
C633 C635 1.390 1_554 S
C633 H637 0.950 . S
H634 C630 0.950 . S
C635 C633 1.390 1_556 S
C635 C636 1.387 . S
C635 H638 0.950 1_545 S
C636 C635 1.387 . S
C636 C639 1.387 . S
H637 C633 0.950 . S
H638 C635 0.950 1_565 S
C639 C630 1.390 1_556 S
C639 H632 0.950 . S
C639 C636 1.387 . S
C640 C641 1.387 . S
C640 H644 0.950 . S
C640 C649 1.390 . S
C641 C640 1.387 . S
C641 C643 1.387 . S
H642 C649 0.950 . S
C643 C641 1.387 . S
C643 C645 1.390 . S
C643 H647 0.950 1_545 S
H644 C640 0.950 . S
C645 C643 1.390 . S
C645 C646 1.387 . S
C645 H648 0.950 . S
C646 C645 1.387 . S
C646 C649 1.387 . S
H647 C643 0.950 1_565 S
H648 C645 0.950 . S
C649 C640 1.390 . S
C649 H642 0.950 . S
C649 C646 1.387 . S
C650 C651 1.387 . S
C650 H654 0.950 . S
C650 C659 1.390 . S
C651 C650 1.387 . S
C651 C653 1.387 . S
H652 C659 0.950 . S
C653 C651 1.387 . S
C653 C655 1.390 . S
C653 H657 0.950 . S
H654 C650 0.950 . S
C655 C653 1.390 . S
C655 C656 1.387 . S
C655 H658 0.950 . S
C656 C655 1.387 . S
C656 C659 1.387 . S
H657 C653 0.950 . S
H658 C655 0.950 . S
C659 C650 1.390 . S
C659 H652 0.950 . S
C659 C656 1.387 . S
C660 C661 1.387 . S
C660 H664 0.950 . S
C660 C669 1.390 . S
C661 C660 1.387 . S
C661 C663 1.387 . S
H662 C669 0.950 . S
C663 C661 1.387 . S
C663 C665 1.390 . S
C663 H667 0.950 . S
H664 C660 0.950 . S
C665 C663 1.390 . S
C665 C666 1.387 . S
C665 H668 0.950 . S
C666 C665 1.387 . S
C666 C669 1.387 . S
H667 C663 0.950 . S
H668 C665 0.950 . S
C669 C660 1.390 . S
C669 H662 0.950 . S
C669 C666 1.387 . S
C670 C671 1.387 . S
C670 H674 0.950 . S
C670 C679 1.390 . S
C671 C670 1.387 . S
C671 C673 1.387 . S
H672 C679 0.950 . S
C673 C671 1.387 . S
C673 C675 1.390 . S
C673 H677 0.950 . S
H674 C670 0.950 . S
C675 C673 1.390 . S
C675 C676 1.387 . S
C675 H678 0.950 . S
C676 C675 1.387 . S
C676 C679 1.387 . S
H677 C673 0.950 . S
H678 C675 0.950 . S
C679 C670 1.390 . S
C679 H672 0.950 . S
C679 C676 1.387 . S
C680 C681 1.387 . S
C680 H684 0.950 . S
C680 C689 1.390 . S
C681 C680 1.387 . S
C681 C683 1.387 . S
H682 C689 0.950 . S
C683 C681 1.387 . S
C683 C685 1.390 . S
C683 H687 0.950 . S
H684 C680 0.950 . S
C685 C683 1.390 . S
C685 C686 1.387 . S
C685 H688 0.950 . S
C686 C685 1.387 . S
C686 C689 1.387 . S
H687 C683 0.950 . S
H688 C685 0.950 . S
C689 C680 1.390 . S
C689 H682 0.950 . S
C689 C686 1.387 . S
C690 C691 1.387 . S
C690 H694 0.950 . S
C690 C699 1.390 . S
C691 C690 1.387 . S
C691 C693 1.387 . S
H692 C699 0.950 1_565 S
C693 C691 1.387 . S
C693 C695 1.390 . S
C693 H697 0.950 . S
H694 C690 0.950 . S
C695 C693 1.390 . S
C695 C696 1.389 1_545 S
C695 H698 0.950 . S
C696 C695 1.389 1_565 S
C696 C699 1.388 1_565 S
H697 C693 0.950 . S
H698 C695 0.950 . S
C699 C690 1.390 . S
C699 H692 0.950 1_545 S
C699 C696 1.388 1_545 S
C700 C701 1.387 . S
C700 H704 0.950 . S
C700 C709 1.390 . S
C701 C700 1.387 . S
C701 C703 1.387 . S
H702 C709 0.950 . S
C703 C701 1.387 . S
C703 C705 1.390 . S
C703 H707 0.950 1_556 S
H704 C700 0.950 . S
C705 C703 1.390 . S
C705 C706 1.387 . S
C705 H708 0.950 1_556 S
C706 C705 1.387 . S
C706 C709 1.387 . S
H707 C703 0.950 1_554 S
H708 C705 0.950 1_554 S
C709 C700 1.390 . S
C709 H702 0.950 . S
C709 C706 1.387 . S
C710 C711 1.387 . S
C710 H714 0.950 . S
C710 C719 1.390 . S
C711 C710 1.387 . S
C711 C713 1.387 . S
H712 C719 0.950 . S
C713 C711 1.387 . S
C713 C715 1.390 1_545 S
C713 H717 0.950 . S
H714 C710 0.950 . S
C715 C713 1.390 1_565 S
C715 C716 1.387 . S
C715 H718 0.950 . S
C716 C715 1.387 . S
C716 C719 1.387 1_565 S
H717 C713 0.950 . S
H718 C715 0.950 . S
C719 C710 1.390 . S
C719 H712 0.950 . S
C719 C716 1.387 1_545 S
C720 C721 1.387 . S
C720 H724 0.950 . S
C720 C729 1.390 . S
C721 C720 1.387 . S
C721 C723 1.387 . S
H722 C729 0.950 . S
C723 C721 1.387 . S
C723 C725 1.390 . S
C723 H727 0.950 . S
H724 C720 0.950 . S
C725 C723 1.390 . S
C725 C726 1.387 . S
C725 H728 0.950 . S
C726 C725 1.387 . S
C726 C729 1.387 . S
H727 C723 0.950 . S
H728 C725 0.950 . S
C729 C720 1.390 . S
C729 H722 0.950 . S
C729 C726 1.387 . S
C730 C731 1.387 . S
C730 H734 0.950 . S
C730 C739 1.390 . S
C731 C730 1.387 . S
C731 C733 1.387 . S
H732 C739 0.950 . S
C733 C731 1.387 . S
C733 C735 1.390 . S
C733 H737 0.950 . S
H734 C730 0.950 . S
C735 C733 1.390 . S
C735 C736 1.387 . S
C735 H738 0.950 . S
C736 C735 1.387 . S
C736 C739 1.387 . S
H737 C733 0.950 . S
H738 C735 0.950 . S
C739 C730 1.390 . S
C739 H732 0.950 . S
C739 C736 1.387 . S
C740 C741 1.387 . S
C740 H744 0.950 . S
C740 C749 1.390 . S
C741 C740 1.387 . S
C741 C743 1.387 . S
H742 C749 0.950 . S
C743 C741 1.387 . S
C743 C745 1.390 . S
C743 H747 0.950 . S
H744 C740 0.950 . S
C745 C743 1.390 . S
C745 C746 1.387 . S
C745 H748 0.950 . S
C746 C745 1.387 . S
C746 C749 1.387 . S
H747 C743 0.950 . S
H748 C745 0.950 . S
C749 C740 1.390 . S
C749 H742 0.950 . S
C749 C746 1.387 . S
C750 C751 1.387 . S
C750 H754 0.950 . S
C750 C759 1.390 . S
C751 C750 1.387 . S
C751 C753 1.387 . S
H752 C759 0.950 . S
C753 C751 1.387 . S
C753 C755 1.390 . S
C753 H757 0.950 . S
H754 C750 0.950 . S
C755 C753 1.390 . S
C755 C756 1.387 . S
C755 H758 0.950 . S
C756 C755 1.387 . S
C756 C759 1.387 . S
H757 C753 0.950 . S
H758 C755 0.950 . S
C759 C750 1.390 . S
C759 H752 0.950 . S
C759 C756 1.387 . S
C760 C761 1.387 . S
C760 H764 0.950 . S
C760 C769 1.390 . S
C761 C760 1.387 . S
C761 C763 1.387 . S
H762 C769 0.950 . S
C763 C761 1.387 . S
C763 C765 1.390 . S
C763 H767 0.950 . S
H764 C760 0.950 . S
C765 C763 1.390 . S
C765 C766 1.387 . S
C765 H768 0.950 . S
C766 C765 1.387 . S
C766 C769 1.387 . S
H767 C763 0.950 . S
H768 C765 0.950 . S
C769 C760 1.390 . S
C769 H762 0.950 . S
C769 C766 1.387 . S
C770 C771 1.387 . S
C770 H774 0.950 . S
C770 C779 1.390 . S
C771 C770 1.387 . S
C771 C773 1.387 . S
H772 C779 0.950 . S
C773 C771 1.387 . S
C773 C775 1.390 . S
C773 H777 0.950 . S
H774 C770 0.950 . S
C775 C773 1.390 . S
C775 C776 1.387 . S
C775 H778 0.950 . S
C776 C775 1.387 . S
C776 C779 1.387 . S
H777 C773 0.950 . S
H778 C775 0.950 . S
C779 C770 1.390 . S
C779 H772 0.950 . S
C779 C776 1.387 . S
C780 C781 1.387 . S
C780 H784 0.950 . S
C780 C789 1.390 1_455 S
C781 C780 1.387 . S
C781 C783 1.387 1_455 S
H782 C789 0.950 . S
C783 C781 1.387 1_655 S
C783 C785 1.390 . S
C783 H787 0.950 1_655 S
H784 C780 0.950 . S
C785 C783 1.390 . S
C785 C786 1.387 . S
C785 H788 0.950 . S
C786 C785 1.387 . S
C786 C789 1.387 . S
H787 C783 0.950 1_455 S
H788 C785 0.950 . S
C789 C780 1.390 1_655 S
C789 H782 0.950 . S
C789 C786 1.387 . S
C790 C791 1.387 . S
C790 H794 0.950 . S
C790 C799 1.390 . S
C791 C790 1.387 . S
C791 C793 1.387 . S
H792 C799 0.950 . S
C793 C791 1.387 . S
C793 C795 1.390 . S
C793 H797 0.950 . S
H794 C790 0.950 . S
C795 C793 1.390 . S
C795 C796 1.387 . S
C795 H798 0.950 . S
C796 C795 1.387 . S
C796 C799 1.387 . S
H797 C793 0.950 . S
H798 C795 0.950 . S
C799 C790 1.390 . S
C799 H792 0.950 . S
C799 C796 1.387 . S
C800 C801 1.387 . S
C800 H804 0.950 . S
C800 C809 1.390 . S
C801 C800 1.387 . S
C801 C803 1.387 . S
H802 C809 0.950 . S
C803 C801 1.387 . S
C803 C805 1.390 . S
C803 H807 0.950 . S
H804 C800 0.950 . S
C805 C803 1.390 . S
C805 C806 1.387 . S
C805 H808 0.950 . S
C806 C805 1.387 . S
C806 C809 1.387 . S
H807 C803 0.950 . S
H808 C805 0.950 . S
C809 C800 1.390 . S
C809 H802 0.950 . S
C809 C806 1.387 . S
C810 C811 1.387 . S
C810 H814 0.950 . S
C810 C819 1.390 . S
C811 C810 1.387 . S
C811 C813 1.387 . S
H812 C819 0.950 . S
C813 C811 1.387 . S
C813 C815 1.390 . S
C813 H817 0.950 . S
H814 C810 0.950 . S
C815 C813 1.390 . S
C815 C816 1.387 . S
C815 H818 0.950 . S
C816 C815 1.387 . S
C816 C819 1.387 . S
H817 C813 0.950 . S
H818 C815 0.950 . S
C819 C810 1.390 . S
C819 H812 0.950 . S
C819 C816 1.387 . S
C820 C821 1.387 . S
C820 H824 0.950 1_556 S
C820 C829 1.390 . S
C821 C820 1.387 . S
C821 C823 1.387 . S
H822 C829 0.950 . S
C823 C821 1.387 . S
C823 C825 1.390 . S
C823 H827 0.950 . S
H824 C820 0.950 1_554 S
C825 C823 1.390 . S
C825 C826 1.387 . S
C825 H828 0.950 . S
C826 C825 1.387 . S
C826 C829 1.387 . S
H827 C823 0.950 . S
H828 C825 0.950 . S
C829 C820 1.390 . S
C829 H822 0.950 . S
C829 C826 1.387 . S
C830 C831 1.387 . S
C830 H834 0.950 . S
C830 C839 1.390 . S
C831 C830 1.387 . S
C831 C833 1.387 . S
H832 C839 0.950 . S
C833 C831 1.387 . S
C833 C835 1.390 . S
C833 H837 0.950 . S
H834 C830 0.950 . S
C835 C833 1.390 . S
C835 C836 1.387 1_655 S
C835 H838 0.950 1_655 S
C836 C835 1.387 1_455 S
C836 C839 1.387 1_455 S
H837 C833 0.950 . S
H838 C835 0.950 1_455 S
C839 C830 1.390 . S
C839 H832 0.950 . S
C839 C836 1.387 1_655 S
C481 C20 1.640 . S
C486 C460 1.646 . S
C491 C380 1.852 1_565 S
C496 C42 1.950 . S
C501 C100 1.654 . S
C506 C322 1.761 . S
C511 C122 1.823 . S
C516 C420 1.755 . S
C521 C180 1.795 . S
C526 C402 1.830 . S
C531 C220 1.620 . S
C536 C442 1.720 . S
C541 C362 1.842 . S
C546 C242 1.823 . S
C551 C282 1.615 . S
C556 C340 1.552 . S
C561 C140 1.766 . S
C566 C162 1.839 . S
C571 C2 1.746 . S
C576 C202 1.758 . S
C581 C60 1.718 . S
C586 C260 1.731 . S
C591 C300 1.787 . S
C596 C82 1.902 . S
C601 C4 2.003 . S
C606 C343 1.975 . S
C611 C65 1.264 . S
C616 C431 1.264 . S
C621 C471 2.093 . S
C626 C84 1.975 . S
C631 C145 1.675 . S
C636 C391 1.685 . S
C641 C164 1.756 . S
C646 C383 1.729 . S
C651 C351 2.258 1_556 S
C656 C204 2.124 . S
C661 C423 1.653 . S
C666 C265 1.716 . S
C671 C463 1.252 . S
C676 C305 1.303 . S
C681 C23 1.800 . S
C686 C124 1.827 . S
C691 C25 1.338 . S
C696 C71 1.342 . S
C701 C44 1.717 . S
C706 C103 1.691 . S
C711 C151 1.325 . S
C716 C105 1.325 . S
C721 C225 1.914 . S
C726 C183 1.822 . S
C731 C223 1.878 . S
C736 C244 1.869 . S
C741 C271 2.082 . S
C746 C284 1.991 . S
C751 C185 1.790 . S
C756 C311 1.798 . S
C761 C324 2.172 . S
C766 C143 2.167 . S
C771 C231 2.344 . S
C776 C364 2.236 . S
C781 C345 1.555 . S
C786 C263 1.503 . S
C791 C404 1.611 . S
C796 C303 1.586 . S
C801 C191 1.657 . S
C806 C444 1.555 . S
C811 C465 1.453 . S
C816 C63 1.385 . S
C821 C111 1.517 . S
C826 C385 1.507 . S
C831 C425 1.660 . S
C836 C31 1.664 . S
