# Generated by pormake.
# Topology why, (6)-cn, num edge types: 1
# Building blocks:
#     Node 0, Type 0, BuildingBlock: JUFBIX_clean_sbu_0, # of connection points: 6
#     Node 1, Type 0, BuildingBlock: JUFBIX_clean_sbu_0, # of connection points: 6
#     Node 2, Type 0, BuildingBlock: JUFBIX_clean_sbu_0, # of connection points: 6
#     Node 3, Type 0, BuildingBlock: JUFBIX_clean_sbu_0, # of connection points: 6
#     Node 4, Type 0, BuildingBlock: JUFBIX_clean_sbu_0, # of connection points: 6
#     Node 5, Type 0, BuildingBlock: JUFBIX_clean_sbu_0, # of connection points: 6
#     Node 6, Type 0, BuildingBlock: JUFBIX_clean_sbu_0, # of connection points: 6
#     Node 7, Type 0, BuildingBlock: JUFBIX_clean_sbu_0, # of connection points: 6
#     Node 8, Type 0, BuildingBlock: JUFBIX_clean_sbu_0, # of connection points: 6
#     Node 9, Type 0, BuildingBlock: JUFBIX_clean_sbu_0, # of connection points: 6
#     Node 10, Type 0, BuildingBlock: JUFBIX_clean_sbu_0, # of connection points: 6
#     Node 11, Type 0, BuildingBlock: JUFBIX_clean_sbu_0, # of connection points: 6
#     Node 12, Type 0, BuildingBlock: JUFBIX_clean_sbu_0, # of connection points: 6
#     Node 13, Type 0, BuildingBlock: JUFBIX_clean_sbu_0, # of connection points: 6
#     Node 14, Type 0, BuildingBlock: JUFBIX_clean_sbu_0, # of connection points: 6
#     Node 15, Type 0, BuildingBlock: JUFBIX_clean_sbu_0, # of connection points: 6
#     Edge 16, Type (0, 0), BuildingBlock: XIVTED_clean_linker_0, # of connection points: 2
#     Edge 17, Type (0, 0), BuildingBlock: XIVTED_clean_linker_0, # of connection points: 2
#     Edge 18, Type (0, 0), BuildingBlock: XIVTED_clean_linker_0, # of connection points: 2
#     Edge 19, Type (0, 0), BuildingBlock: XIVTED_clean_linker_0, # of connection points: 2
#     Edge 20, Type (0, 0), BuildingBlock: XIVTED_clean_linker_0, # of connection points: 2
#     Edge 21, Type (0, 0), BuildingBlock: XIVTED_clean_linker_0, # of connection points: 2
#     Edge 22, Type (0, 0), BuildingBlock: XIVTED_clean_linker_0, # of connection points: 2
#     Edge 23, Type (0, 0), BuildingBlock: XIVTED_clean_linker_0, # of connection points: 2
#     Edge 24, Type (0, 0), BuildingBlock: XIVTED_clean_linker_0, # of connection points: 2
#     Edge 25, Type (0, 0), BuildingBlock: XIVTED_clean_linker_0, # of connection points: 2
#     Edge 26, Type (0, 0), BuildingBlock: XIVTED_clean_linker_0, # of connection points: 2
#     Edge 27, Type (0, 0), BuildingBlock: XIVTED_clean_linker_0, # of connection points: 2
#     Edge 28, Type (0, 0), BuildingBlock: XIVTED_clean_linker_0, # of connection points: 2
#     Edge 29, Type (0, 0), BuildingBlock: XIVTED_clean_linker_0, # of connection points: 2
#     Edge 30, Type (0, 0), BuildingBlock: XIVTED_clean_linker_0, # of connection points: 2
#     Edge 31, Type (0, 0), BuildingBlock: XIVTED_clean_linker_0, # of connection points: 2
#     Edge 32, Type (0, 0), BuildingBlock: XIVTED_clean_linker_0, # of connection points: 2
#     Edge 33, Type (0, 0), BuildingBlock: XIVTED_clean_linker_0, # of connection points: 2
#     Edge 34, Type (0, 0), BuildingBlock: XIVTED_clean_linker_0, # of connection points: 2
#     Edge 35, Type (0, 0), BuildingBlock: XIVTED_clean_linker_0, # of connection points: 2
#     Edge 36, Type (0, 0), BuildingBlock: XIVTED_clean_linker_0, # of connection points: 2
#     Edge 37, Type (0, 0), BuildingBlock: XIVTED_clean_linker_0, # of connection points: 2
#     Edge 38, Type (0, 0), BuildingBlock: XIVTED_clean_linker_0, # of connection points: 2
#     Edge 39, Type (0, 0), BuildingBlock: XIVTED_clean_linker_0, # of connection points: 2
#     Edge 40, Type (0, 0), BuildingBlock: XIVTED_clean_linker_0, # of connection points: 2
#     Edge 41, Type (0, 0), BuildingBlock: XIVTED_clean_linker_0, # of connection points: 2
#     Edge 42, Type (0, 0), BuildingBlock: XIVTED_clean_linker_0, # of connection points: 2
#     Edge 43, Type (0, 0), BuildingBlock: XIVTED_clean_linker_0, # of connection points: 2
#     Edge 44, Type (0, 0), BuildingBlock: XIVTED_clean_linker_0, # of connection points: 2
#     Edge 45, Type (0, 0), BuildingBlock: XIVTED_clean_linker_0, # of connection points: 2
#     Edge 46, Type (0, 0), BuildingBlock: XIVTED_clean_linker_0, # of connection points: 2
#     Edge 47, Type (0, 0), BuildingBlock: XIVTED_clean_linker_0, # of connection points: 2
#     Edge 48, Type (0, 0), BuildingBlock: XIVTED_clean_linker_0, # of connection points: 2
#     Edge 49, Type (0, 0), BuildingBlock: XIVTED_clean_linker_0, # of connection points: 2
#     Edge 50, Type (0, 0), BuildingBlock: XIVTED_clean_linker_0, # of connection points: 2
#     Edge 51, Type (0, 0), BuildingBlock: XIVTED_clean_linker_0, # of connection points: 2
#     Edge 52, Type (0, 0), BuildingBlock: XIVTED_clean_linker_0, # of connection points: 2
#     Edge 53, Type (0, 0), BuildingBlock: XIVTED_clean_linker_0, # of connection points: 2
#     Edge 54, Type (0, 0), BuildingBlock: XIVTED_clean_linker_0, # of connection points: 2
#     Edge 55, Type (0, 0), BuildingBlock: XIVTED_clean_linker_0, # of connection points: 2
#     Edge 56, Type (0, 0), BuildingBlock: XIVTED_clean_linker_0, # of connection points: 2
#     Edge 57, Type (0, 0), BuildingBlock: XIVTED_clean_linker_0, # of connection points: 2
#     Edge 58, Type (0, 0), BuildingBlock: XIVTED_clean_linker_0, # of connection points: 2
#     Edge 59, Type (0, 0), BuildingBlock: XIVTED_clean_linker_0, # of connection points: 2
#     Edge 60, Type (0, 0), BuildingBlock: XIVTED_clean_linker_0, # of connection points: 2
#     Edge 61, Type (0, 0), BuildingBlock: XIVTED_clean_linker_0, # of connection points: 2
#     Edge 62, Type (0, 0), BuildingBlock: XIVTED_clean_linker_0, # of connection points: 2
#     Edge 63, Type (0, 0), BuildingBlock: XIVTED_clean_linker_0, # of connection points: 2
# Relax obj value: 0.356
# Max RMSD: 0.185
# Mean RMSD: 0.177
data_MOF--net-why--node1-JUFBIX_clean_sbu_0--edge1-XIVTED_clean_linker_0
_symmetry_space_group_name_H-M    P1
_symmetry_Int_Tables_number       1
_symmetry_cell_setting            triclinic
loop_
_symmetry_equiv_pos_as_xyz
'x, y, z'
_cell_length_a     51.605876
_cell_length_b     51.113457
_cell_length_c     27.734265
_cell_angle_alpha  92.24851
_cell_angle_beta   80.783879
_cell_angle_gamma 95.464838
loop_
_atom_site_label
_atom_site_type_symbol
_atom_site_fract_x
_atom_site_fract_y
_atom_site_fract_z
_atom_type_partial_charge
Co0 Co 0.33113 0.19489 0.05454 0.0
C1 C 0.35197 0.24544 0.02461 0.0
Co2 Co 0.36249 0.212 0.09424 0.0
C3 C 0.28567 0.16298 0.02289 0.0
C4 C 0.31161 0.18392 0.96632 0.0
N5 N 0.30734 0.18032 1.01504 0.0
N6 N 0.27679 0.15549 0.98063 0.0
C7 C 0.29301 0.16877 0.94524 0.0
H8 H 0.27713 0.1554 0.05839 0.0
H9 H 0.32779 0.1963 0.9469 0.0
C10 C 0.34334 0.16119 0.12252 0.0
N11 N 0.38714 0.2268 0.13055 0.0
C12 C 0.40983 0.24079 0.11293 0.0
C13 C 0.38698 0.2261 0.17918 0.0
N14 N 0.42394 0.24891 0.14843 0.0
C15 C 0.40979 0.23959 0.19029 0.0
C16 C 0.31085 0.22232 0.13732 0.0
O17 O 0.32905 0.16242 0.08926 0.0
O18 O 0.35833 0.18131 0.13177 0.0
O19 O 0.33537 0.22689 0.13907 0.0
O20 O 0.30361 0.20772 0.10256 0.0
O21 O 0.3671 0.24278 0.05558 0.0
H22 H 0.3714 0.21627 0.20476 0.0
H23 H 0.41621 0.24437 0.07445 0.0
O24 O 0.33386 0.22732 0.01992 0.0
O25 O 0.35865 0.18227 1.00742 0.0
O26 O 0.3896 0.19684 0.04946 0.0
C27 C 0.38279 0.1845 1.0122 0.0
H28 H 0.29141 0.16773 0.90674 0.0
H29 H 0.41549 0.24236 0.22617 0.0
Co30 Co 0.57527 0.58894 0.30424 0.0
C31 C 0.52833 0.61029 0.29693 0.0
Co32 Co 0.56661 0.62226 0.35494 0.0
C33 C 0.5958 0.54032 0.26211 0.0
C34 C 0.57828 0.56169 0.21265 0.0
N35 N 0.58269 0.56178 0.25932 0.0
N36 N 0.60001 0.52724 0.21869 0.0
C37 C 0.58897 0.5406 0.18764 0.0
H38 H 0.60333 0.53519 0.29442 0.0
H39 H 0.56889 0.57669 0.19719 0.0
C40 C 0.61297 0.60148 0.36416 0.0
N41 N 0.55958 0.64942 0.39875 0.0
C42 C 0.55086 0.67222 0.38881 0.0
C43 C 0.56162 0.65119 0.44667 0.0
N44 N 0.54731 0.68832 0.42846 0.0
C45 C 0.55398 0.67516 0.46516 0.0
C46 C 0.54619 0.57365 0.39296 0.0
O47 O 0.60799 0.58639 0.32853 0.0
O48 O 0.5973 0.61853 0.38031 0.0
O49 O 0.54776 0.59833 0.40087 0.0
O50 O 0.55743 0.56456 0.35227 0.0
O51 O 0.53548 0.62605 0.32973 0.0
H52 H 0.56807 0.63599 0.46684 0.0
H53 H 0.54654 0.67656 0.3532 0.0
O54 O 0.54258 0.59187 0.28098 0.0
O55 O 0.59264 0.61374 0.25626 0.0
O56 O 0.58548 0.6465 0.30836 0.0
C57 C 0.59466 0.63833 0.26578 0.0
H58 H 0.58924 0.53579 0.1492 0.0
H59 H 0.5534 0.68229 0.50254 0.0
Co60 Co 0.15188 0.83679 0.48287 0.0
C61 C 0.16063 0.862 0.57074 0.0
Co62 Co 0.16564 0.81158 0.53461 0.0
C63 C 0.11897 0.85757 0.42106 0.0
C64 C 0.15268 0.88396 0.4303 0.0
N65 N 0.14105 0.85975 0.44175 0.0
N66 N 0.11622 0.8796 0.39774 0.0
C67 C 0.13744 0.89623 0.40336 0.0
H68 H 0.10459 0.84062 0.42496 0.0
H69 H 0.17067 0.8925 0.4422 0.0
C70 C 0.1554 0.78634 0.44616 0.0
N71 N 0.17628 0.78864 0.57633 0.0
C72 C 0.19299 0.793 0.60926 0.0
C73 C 0.16698 0.76316 0.58128 0.0
N74 N 0.1943 0.77123 0.63473 0.0
C75 C 0.17801 0.75244 0.61691 0.0
C76 C 0.11148 0.81132 0.54564 0.0
O77 O 0.14885 0.80874 0.43689 0.0
O78 O 0.16462 0.78368 0.48547 0.0
O79 O 0.13031 0.80122 0.56005 0.0
O80 O 0.11642 0.8281 0.51208 0.0
O81 O 0.16581 0.83963 0.58334 0.0
H82 H 0.1527 0.75308 0.56081 0.0
H83 H 0.20336 0.81196 0.61531 0.0
O84 O 0.1547 0.86451 0.52866 0.0
O85 O 0.18726 0.84557 0.45485 0.0
O86 O 0.20138 0.82267 0.50906 0.0
C87 C 0.20625 0.83844 0.47367 0.0
H88 H 0.14146 0.91596 0.38959 0.0
H89 H 0.17426 0.73231 0.6287 0.0
Co90 Co 0.92604 0.43938 0.81151 0.0
C91 C 0.97414 0.41766 0.7794 0.0
Co92 Co 0.93469 0.40793 0.85738 0.0
C93 C 0.90617 0.4868 0.7764 0.0
C94 C 0.92463 0.46186 0.71994 0.0
N95 N 0.91918 0.46473 0.76899 0.0
N96 N 0.90314 0.49737 0.73372 0.0
C97 C 0.91488 0.48169 0.69837 0.0
H98 H 0.89811 0.49428 0.81217 0.0
H99 H 0.93436 0.44575 0.70085 0.0
C100 C 0.88559 0.42679 0.88636 0.0
N101 N 0.94103 0.38304 0.89901 0.0
C102 C 0.95386 0.36138 0.88773 0.0
C103 C 0.93533 0.38372 0.94823 0.0
N104 N 0.95666 0.34861 0.92796 0.0
C105 C 0.94488 0.36252 0.96615 0.0
C106 C 0.95263 0.45792 0.88849 0.0
O107 O 0.89242 0.44226 0.85079 0.0
O108 O 0.90187 0.41152 0.89629 0.0
O109 O 0.95082 0.43343 0.89497 0.0
O110 O 0.94282 0.46633 0.85296 0.0
O111 O 0.96742 0.40395 0.8173 0.0
H112 H 0.92556 0.39909 0.96976 0.0
H113 H 0.96126 0.35531 0.85065 0.0
O114 O 0.95953 0.43515 0.77108 0.0
O115 O 0.90957 0.41195 0.77249 0.0
O116 O 0.91848 0.38182 0.8199 0.0
C117 C 0.90837 0.38781 0.78348 0.0
H118 H 0.91609 0.48423 0.65948 0.0
H119 H 0.94409 0.35827 1.00431 0.0
Co120 Co 0.62821 0.81095 0.94502 0.0
C121 C 0.64597 0.86215 0.9152 0.0
Co122 Co 0.65948 0.8298 0.98323 0.0
C123 C 0.58086 0.78176 0.92793 0.0
C124 C 0.60321 0.79622 0.86106 0.0
N125 N 0.60355 0.79548 0.90954 0.0
N126 N 0.56618 0.774 0.89311 0.0
C127 C 0.58004 0.78313 0.85086 0.0
H128 H 0.57472 0.7785 0.96658 0.0
H129 H 0.61853 0.80613 0.83509 0.0
C130 C 0.64031 0.77892 1.01501 0.0
N131 N 0.68334 0.84528 0.0216 0.0
C132 C 0.70517 0.86229 1.01228 0.0
C133 C 0.6792 0.84278 0.0706 0.0
N134 N 0.71429 0.87065 0.05389 0.0
C135 C 0.69804 0.85825 0.09039 0.0
C136 C 0.60776 0.83889 0.02689 0.0
O137 O 0.62528 0.77993 0.98318 0.0
O138 O 0.65717 0.79827 0.01957 0.0
O139 O 0.63206 0.84271 0.02997 0.0
O140 O 0.60085 0.8252 0.9911 0.0
O141 O 0.66112 0.8615 0.94714 0.0
H142 H 0.66301 0.83083 0.09104 0.0
H143 H 0.71373 0.86892 0.97612 0.0
O144 O 0.63086 0.84179 0.90778 0.0
O145 O 0.65531 0.79705 0.89922 0.0
O146 O 0.68705 0.81657 0.93533 0.0
C147 C 0.67982 0.80186 0.90066 0.0
H148 H 0.57373 0.78081 0.81543 0.0
H149 H 0.69986 0.86002 0.12877 0.0
Co150 Co 0.42674 0.40313 0.68217 0.0
C151 C 0.37793 0.41906 0.67253 0.0
Co152 Co 0.41362 0.43452 0.73412 0.0
C153 C 0.4464 0.35488 0.64597 0.0
C154 C 0.4359 0.37657 0.58866 0.0
N155 N 0.43665 0.37734 0.63713 0.0
N156 N 0.45173 0.34002 0.6051 0.0
C157 C 0.44533 0.35358 0.56873 0.0
H158 H 0.44987 0.34973 0.68174 0.0
H159 H 0.42889 0.39171 0.56917 0.0
C160 C 0.46303 0.4182 0.74197 0.0
N161 N 0.40356 0.46061 0.77946 0.0
C162 C 0.3946 0.48409 0.77333 0.0
C163 C 0.40577 0.4603 0.82724 0.0
N164 N 0.39146 0.49837 0.81546 0.0
C165 C 0.39855 0.48356 0.84934 0.0
C166 C 0.3991 0.38386 0.76986 0.0
O167 O 0.4589 0.40343 0.70571 0.0
O168 O 0.44567 0.43327 0.76074 0.0
O169 O 0.39643 0.40809 0.77957 0.0
O170 O 0.41156 0.3773 0.72855 0.0
O171 O 0.38178 0.43539 0.70706 0.0
H172 H 0.41302 0.44448 0.84457 0.0
H173 H 0.39162 0.49104 0.73843 0.0
O174 O 0.39485 0.40289 0.65807 0.0
O175 O 0.44206 0.42846 0.63685 0.0
O176 O 0.43122 0.46068 0.68815 0.0
C177 C 0.44243 0.4529 0.64642 0.0
H178 H 0.44698 0.34717 0.53079 0.0
H179 H 0.39912 0.48951 0.88709 0.0
Co180 Co 0.82348 0.21103 0.50334 0.0
C181 C 0.83447 0.23541 0.59183 0.0
Co182 Co 0.83767 0.18522 0.55364 0.0
C183 C 0.7948 0.2303 0.4315 0.0
C184 C 0.8217 0.25979 0.45796 0.0
N185 N 0.81235 0.23433 0.46294 0.0
N186 N 0.79285 0.2523 0.40716 0.0
C187 C 0.80978 0.27085 0.42391 0.0
H188 H 0.78377 0.21156 0.42656 0.0
H189 H 0.83668 0.26959 0.47718 0.0
C190 C 0.82802 0.16092 0.46561 0.0
N191 N 0.84901 0.16189 0.59353 0.0
C192 C 0.87119 0.16399 0.61395 0.0
C193 C 0.83755 0.13755 0.6044 0.0
N194 N 0.87416 0.14178 0.63657 0.0
C195 C 0.85299 0.12513 0.63072 0.0
C196 C 0.7833 0.18373 0.56469 0.0
O197 O 0.82276 0.18344 0.45405 0.0
O198 O 0.83441 0.1579 0.50716 0.0
O199 O 0.80246 0.17626 0.58253 0.0
O200 O 0.78791 0.19985 0.52984 0.0
O201 O 0.84108 0.21289 0.60022 0.0
H202 H 0.81952 0.12907 0.59263 0.0
H203 H 0.88543 0.18105 0.61049 0.0
O204 O 0.82499 0.23847 0.55295 0.0
O205 O 0.85868 0.22147 0.47697 0.0
O206 O 0.87293 0.1941 0.52357 0.0
C207 C 0.87764 0.21114 0.49045 0.0
H208 H 0.81393 0.29083 0.41142 0.0
H209 H 0.84907 0.1053 0.64406 0.0
Co210 Co 0.05445 0.61481 0.17792 0.0
C211 C 0.10312 0.59504 0.14859 0.0
Co212 Co 0.06294 0.58361 0.22441 0.0
C213 C 0.03885 0.6629 0.14632 0.0
C214 C 0.05226 0.63737 0.08636 0.0
N215 N 0.04846 0.63946 0.1356 0.0
N216 N 0.03636 0.67548 0.10571 0.0
C217 C 0.04474 0.65949 0.06785 0.0
H218 H 0.03319 0.67026 0.18327 0.0
H219 H 0.05979 0.62068 0.06531 0.0
C220 C 0.01523 0.60614 0.25647 0.0
N221 N 0.06961 0.55842 0.26736 0.0
C222 C 0.08238 0.53621 0.26007 0.0
C223 C 0.06435 0.56151 0.31639 0.0
N224 N 0.08547 0.52573 0.30279 0.0
C225 C 0.07401 0.54164 0.33806 0.0
C226 C 0.08141 0.63522 0.25098 0.0
O227 O 0.02203 0.6197 0.21836 0.0
O228 O 0.02963 0.58847 0.2649 0.0
O229 O 0.07987 0.61117 0.26276 0.0
O230 O 0.07139 0.64099 0.21433 0.0
O231 O 0.09637 0.58008 0.18492 0.0
H232 H 0.05485 0.57778 0.33536 0.0
H233 H 0.09025 0.52856 0.22432 0.0
O234 O 0.08695 0.61038 0.13846 0.0
O235 O 0.0376 0.58925 0.14154 0.0
O236 O 0.04573 0.55652 0.18378 0.0
C237 C 0.03568 0.5648 0.14844 0.0
H238 H 0.04547 0.66354 0.02962 0.0
H239 H 0.07292 0.53922 0.37696 0.0
Co240 Co 0.83143 0.69418 0.5555 0.0
C241 C 0.85122 0.74486 0.52299 0.0
Co242 Co 0.86257 0.71313 0.59422 0.0
C243 C 0.78585 0.66163 0.52541 0.0
C244 C 0.81239 0.6809 0.46757 0.0
N245 N 0.80785 0.67848 0.51659 0.0
N246 N 0.77701 0.6533 0.48347 0.0
C247 C 0.79364 0.66555 0.44729 0.0
H248 H 0.77692 0.65514 0.56146 0.0
H249 H 0.82876 0.69275 0.44745 0.0
C250 C 0.84447 0.66221 0.62508 0.0
N251 N 0.88701 0.72911 0.63026 0.0
C252 C 0.91225 0.73731 0.61321 0.0
C253 C 0.88377 0.73565 0.67843 0.0
N254 N 0.92473 0.74874 0.64855 0.0
C255 C 0.90705 0.74799 0.68974 0.0
C256 C 0.8106 0.72266 0.63676 0.0
O257 O 0.82965 0.66262 0.59245 0.0
O258 O 0.85938 0.68272 0.63277 0.0
O259 O 0.83506 0.72755 0.63842 0.0
O260 O 0.80353 0.70757 0.60247 0.0
O261 O 0.86614 0.74372 0.555 0.0
H262 H 0.86572 0.73165 0.70379 0.0
H263 H 0.92137 0.73524 0.57545 0.0
O264 O 0.83412 0.72569 0.51849 0.0
O265 O 0.85902 0.68105 0.50966 0.0
O266 O 0.89 0.6982 0.54938 0.0
C267 C 0.88324 0.68454 0.51346 0.0
H268 H 0.79212 0.66383 0.40878 0.0
H269 H 0.91089 0.75531 0.72531 0.0
Co270 Co 0.07598 0.08797 0.8019 0.0
C271 C 0.02893 0.10862 0.79312 0.0
Co272 Co 0.06606 0.12059 0.85354 0.0
C273 C 0.0969 0.0395 0.76016 0.0
C274 C 0.08189 0.06193 0.70881 0.0
N275 N 0.08463 0.0614 0.75631 0.0
N276 N 0.10223 0.02672 0.71664 0.0
C277 C 0.09277 0.04076 0.68438 0.0
H278 H 0.10291 0.03373 0.79356 0.0
H279 H 0.07332 0.07728 0.69261 0.0
C280 C 0.11263 0.10065 0.86394 0.0
N281 N 0.05772 0.14694 0.89853 0.0
C282 C 0.0496 0.17024 0.88962 0.0
C283 C 0.05771 0.14712 0.9472 0.0
N284 N 0.04441 0.18499 0.93072 0.0
C285 C 0.04938 0.17053 0.96721 0.0
C286 C 0.04628 0.07114 0.8891 0.0
O287 O 0.10841 0.08592 0.82738 0.0
O288 O 0.09638 0.11712 0.88038 0.0
O289 O 0.04711 0.09575 0.89761 0.0
O290 O 0.05822 0.06264 0.84853 0.0
O291 O 0.03539 0.12414 0.82685 0.0
H292 H 0.06316 0.13115 0.96686 0.0
H293 H 0.04683 0.17593 0.85373 0.0
O294 O 0.04356 0.09046 0.77726 0.0
O295 O 0.09327 0.11373 0.7554 0.0
O296 O 0.08501 0.14572 0.80879 0.0
C297 C 0.09473 0.13822 0.76604 0.0
H298 H 0.09409 0.03625 0.64563 0.0
H299 H 0.04716 0.17645 1.00544 0.0
Co300 Co 0.65183 0.33784 0.97934 0.0
C301 C 0.66 0.36448 0.06609 0.0
Co302 Co 0.66325 0.31303 0.03464 0.0
C303 C 0.6187 0.3605 0.92008 0.0
C304 C 0.65732 0.38069 0.91253 0.0
N305 N 0.64236 0.36015 0.93486 0.0
N306 N 0.61835 0.38036 0.88964 0.0
C307 C 0.64267 0.39301 0.88442 0.0
H308 H 0.6019 0.34658 0.93154 0.0
H309 H 0.6774 0.38687 0.91731 0.0
C310 C 0.65372 0.28646 0.94708 0.0
N311 N 0.67229 0.29065 0.07909 0.0
C312 C 0.68989 0.29465 0.11043 0.0
C313 C 0.66145 0.2658 0.08675 0.0
N314 N 0.69048 0.27318 0.13716 0.0
C315 C 0.67257 0.25504 0.12222 0.0
C316 C 0.60953 0.31516 0.04263 0.0
O317 O 0.64866 0.309 0.93539 0.0
O318 O 0.66156 0.28403 0.98784 0.0
O319 O 0.62734 0.30469 0.05968 0.0
O320 O 0.61601 0.33064 1.00719 0.0
O321 O 0.6641 0.34214 0.08068 0.0
H322 H 0.64617 0.25617 0.06803 0.0
H323 H 0.7021 0.3129 0.11329 0.0
O324 O 0.65486 0.36648 0.0232 0.0
O325 O 0.68767 0.34495 0.95296 0.0
O326 O 0.69957 0.32216 1.0098 0.0
C327 C 0.70577 0.33726 0.97353 0.0
H328 H 0.64907 0.41045 0.86324 0.0
H329 H 0.66738 0.23554 0.13664 0.0
Co330 Co 0.42586 0.94015 0.31183 0.0
C331 C 0.47342 0.91717 0.28005 0.0
Co332 Co 0.43376 0.90857 0.35815 0.0
C333 C 0.40639 0.98744 0.27609 0.0
C334 C 0.42586 0.96301 0.21995 0.0
N335 N 0.41974 0.96561 0.26895 0.0
N336 N 0.40379 0.99816 0.23331 0.0
C337 C 0.4162 0.98282 0.19814 0.0
H338 H 0.39772 0.9946 0.31172 0.0
H339 H 0.4359 0.94705 0.20099 0.0
C340 C 0.38524 0.92885 0.38684 0.0
N341 N 0.43917 0.88347 0.40028 0.0
C342 C 0.45223 0.86192 0.38961 0.0
C343 C 0.43194 0.88351 0.44922 0.0
N344 N 0.45358 0.84846 0.42992 0.0
C345 C 0.4407 0.86199 0.46753 0.0
C346 C 0.45285 0.95819 0.38866 0.0
O347 O 0.3923 0.94395 0.35081 0.0
O348 O 0.40116 0.91327 0.397 0.0
O349 O 0.4506 0.9337 0.39538 0.0
O350 O 0.44317 0.96676 0.3531 0.0
O351 O 0.46633 0.90355 0.31798 0.0
H352 H 0.42139 0.8985 0.47039 0.0
H353 H 0.46124 0.85677 0.35298 0.0
O354 O 0.45926 0.93505 0.27169 0.0
O355 O 0.40881 0.91313 0.27306 0.0
O356 O 0.41672 0.88281 0.32109 0.0
C357 C 0.40678 0.88902 0.28463 0.0
H358 H 0.41791 0.98553 0.15921 0.0
H359 H 0.43789 0.85691 0.50563 0.0
Co360 Co 0.12646 0.30988 0.4419 0.0
C361 C 0.14432 0.36073 0.41047 0.0
Co362 Co 0.15748 0.32913 0.4805 0.0
C363 C 0.07674 0.28562 0.42297 0.0
C364 C 0.10542 0.28657 0.35804 0.0
N365 N 0.10206 0.29358 0.40601 0.0
N366 N 0.06432 0.27391 0.38777 0.0
C367 C 0.08215 0.2742 0.34678 0.0
H368 H 0.06751 0.28805 0.46057 0.0
H369 H 0.12355 0.29028 0.33275 0.0
C370 C 0.13796 0.27861 0.51376 0.0
N371 N 0.18104 0.3451 0.519 0.0
C372 C 0.20392 0.36058 0.50913 0.0
C373 C 0.17614 0.34401 0.56824 0.0
N374 N 0.21293 0.36943 0.55058 0.0
C375 C 0.19551 0.35892 0.5876 0.0
C376 C 0.10562 0.33869 0.5223 0.0
O377 O 0.12312 0.27944 0.48152 0.0
O378 O 0.15491 0.29793 0.51818 0.0
O379 O 0.12984 0.34238 0.52595 0.0
O380 O 0.09889 0.32479 0.48665 0.0
O381 O 0.1592 0.36044 0.44302 0.0
H382 H 0.15929 0.33313 0.58902 0.0
H383 H 0.21349 0.36557 0.47259 0.0
O384 O 0.12943 0.34017 0.40301 0.0
O385 O 0.15412 0.2955 0.39777 0.0
O386 O 0.18544 0.31567 0.43397 0.0
C387 C 0.17855 0.30052 0.39966 0.0
H388 H 0.07841 0.26655 0.31135 0.0
H389 H 0.19703 0.36137 0.62604 0.0
Co390 Co 0.92429 0.90353 0.1845 0.0
C391 C 0.87769 0.92284 0.17358 0.0
Co392 Co 0.91416 0.93614 0.23602 0.0
C393 C 0.94456 0.85558 0.14872 0.0
C394 C 0.93217 0.87591 0.09163 0.0
N395 N 0.93336 0.87721 0.13992 0.0
N396 N 0.95082 0.84092 0.10786 0.0
C397 C 0.94287 0.85348 0.07176 0.0
H398 H 0.9483 0.85088 0.18454 0.0
H399 H 0.92469 0.89067 0.07199 0.0
C400 C 0.96128 0.9163 0.24539 0.0
N401 N 0.90498 0.96262 0.28127 0.0
C402 C 0.89281 0.98449 0.27668 0.0
C403 C 0.90726 0.96223 0.329 0.0
N404 N 0.8871 0.9974 0.31995 0.0
C405 C 0.89623 0.98348 0.35283 0.0
C406 C 0.89576 0.88575 0.27189 0.0
O407 O 0.95504 0.9008 0.2115 0.0
O408 O 0.94638 0.93418 0.26141 0.0
O409 O 0.89689 0.91026 0.28241 0.0
O410 O 0.90575 0.87826 0.2293 0.0
O411 O 0.88194 0.93779 0.20984 0.0
H412 H 0.91571 0.94698 0.34571 0.0
H413 H 0.88725 0.99019 0.24283 0.0
O414 O 0.89392 0.90628 0.1575 0.0
O415 O 0.94285 0.92845 0.14021 0.0
O416 O 0.93189 0.96153 0.18949 0.0
C417 C 0.94369 0.95305 0.14878 0.0
H418 H 0.94548 0.84744 0.03358 0.0
H419 H 0.89469 0.98818 0.39154 0.0
Co420 Co 0.32483 0.71214 1.00656 0.0
C421 C 0.32944 0.73747 0.09786 0.0
Co422 Co 0.33688 0.68775 0.0618 0.0
C423 C 0.29944 0.73015 0.92882 0.0
C424 C 0.32534 0.76002 0.95698 0.0
N425 N 0.31568 0.73468 0.96251 0.0
N426 N 0.29874 0.75169 0.90233 0.0
C427 C 0.315 0.7705 0.92021 0.0
H428 H 0.28882 0.71126 0.92323 0.0
H429 H 0.33925 0.77021 0.97814 0.0
C430 C 0.33518 0.66302 0.97038 0.0
N431 N 0.34652 0.66517 0.10522 0.0
C432 C 0.36786 0.66774 0.12811 0.0
C433 C 0.33524 0.64068 0.11542 0.0
N434 N 0.37056 0.6457 0.15145 0.0
C435 C 0.34998 0.62867 0.14373 0.0
C436 C 0.28292 0.68358 0.061 0.0
O437 O 0.32727 0.68423 0.958 0.0
O438 O 0.33964 0.66087 1.01363 0.0
O439 O 0.30113 0.67629 0.08175 0.0
O440 O 0.28865 0.70041 0.02742 0.0
O441 O 0.3349 0.71508 0.10961 0.0
H442 H 0.31807 0.63168 0.10131 0.0
H443 H 0.38199 0.68489 0.12534 0.0
O444 O 0.3234 0.7401 0.05564 0.0
O445 O 0.36087 0.72303 0.98545 0.0
O446 O 0.3725 0.69908 0.04081 0.0
C447 C 0.37882 0.7146 1.00543 0.0
H448 H 0.31903 0.79052 0.90794 0.0
H449 H 0.34622 0.60873 0.15653 0.0
Co450 Co 0.55526 0.11416 0.67947 0.0
C451 C 0.60387 0.09423 0.6519 0.0
Co452 Co 0.56276 0.08269 0.7262 0.0
C453 C 0.53809 0.16137 0.64834 0.0
C454 C 0.55562 0.13822 0.58808 0.0
N455 N 0.54994 0.13914 0.6373 0.0
N456 N 0.53585 0.17429 0.60798 0.0
C457 C 0.54701 0.15988 0.56991 0.0
H458 H 0.53098 0.16776 0.68537 0.0
H459 H 0.56476 0.12242 0.56675 0.0
C460 C 0.51505 0.10535 0.75665 0.0
N461 N 0.5687 0.05725 0.76908 0.0
C462 C 0.58192 0.03536 0.76173 0.0
C463 C 0.56258 0.05979 0.81808 0.0
N464 N 0.58448 0.02454 0.80441 0.0
C465 C 0.57218 0.03987 0.83973 0.0
C466 C 0.58125 0.13389 0.75423 0.0
O467 O 0.52249 0.11905 0.71891 0.0
O468 O 0.52909 0.08747 0.76548 0.0
O469 O 0.5792 0.10979 0.76579 0.0
O470 O 0.57189 0.14001 0.71702 0.0
O471 O 0.59663 0.07921 0.68801 0.0
H472 H 0.55259 0.07575 0.83712 0.0
H473 H 0.59054 0.02823 0.72604 0.0
O474 O 0.588 0.10968 0.64113 0.0
O475 O 0.53874 0.08897 0.64186 0.0
O476 O 0.546 0.05596 0.68433 0.0
C477 C 0.53653 0.06449 0.64852 0.0
H478 H 0.54797 0.16414 0.53171 0.0
H479 H 0.57051 0.03707 0.87863 0.0
H480 H 0.46367 0.24438 0.19986 0.0
H481 H 0.56641 0.33299 1.01323 0.0
H482 H 0.44268 0.28537 0.08075 0.0
H483 H 0.58915 0.28385 0.11973 0.0
H484 H 0.52023 0.32101 0.04586 0.0
H485 H 0.50898 0.26444 0.17998 0.0
C486 C 0.46854 0.25793 0.17006 0.0
C487 C 0.44962 0.26297 0.14141 0.0
C488 C 0.53533 0.31296 0.06226 0.0
C489 C 0.50118 0.28571 0.11818 0.0
C490 C 0.56169 0.31976 0.04361 0.0
C491 C 0.58162 0.30914 0.06345 0.0
C492 C 0.52886 0.29542 0.10099 0.0
C493 C 0.57438 0.29229 0.10305 0.0
C494 C 0.49438 0.26923 0.1585 0.0
C495 C 0.45689 0.28056 0.10302 0.0
N496 N 0.54855 0.28581 0.12035 0.0
N497 N 0.48216 0.29115 0.09228 0.0
H498 H 0.54975 0.72158 0.35397 0.0
H499 H 0.4694 0.82927 0.5099 0.0
H500 H 0.52109 0.71268 0.50805 0.0
H501 H 0.46957 0.81472 0.35518 0.0
H502 H 0.4942 0.79106 0.51161 0.0
H503 H 0.52738 0.76144 0.35581 0.0
C504 C 0.53873 0.72796 0.38822 0.0
C505 C 0.53682 0.71344 0.43072 0.0
C506 C 0.48873 0.79639 0.47743 0.0
C507 C 0.51157 0.75932 0.43314 0.0
C508 C 0.47443 0.8181 0.47635 0.0
C509 C 0.4674 0.82548 0.4322 0.0
C510 C 0.49631 0.78224 0.43401 0.0
C511 C 0.47491 0.8103 0.38987 0.0
C512 C 0.52604 0.75077 0.38923 0.0
C513 C 0.52304 0.72324 0.47445 0.0
N514 N 0.48906 0.78949 0.39182 0.0
N515 N 0.51076 0.74559 0.47452 0.0
H516 H 0.09347 0.76577 0.59203 0.0
H517 H 0.94444 0.79866 0.66226 0.0
H518 H 0.06768 0.83787 0.54805 0.0
H519 H 0.96593 0.72072 0.62039 0.0
H520 H 0.99125 0.81558 0.6423 0.0
H521 H 0.04775 0.75112 0.62473 0.0
C522 C 0.07819 0.7786 0.58967 0.0
C523 C 0.0842 0.80296 0.56703 0.0
C524 C 0.98565 0.79475 0.63812 0.0
C525 C 0.03226 0.78651 0.60489 0.0
C526 C 0.95921 0.78518 0.64974 0.0
C527 C 0.95184 0.75843 0.64283 0.0
C528 C 0.00451 0.77717 0.62068 0.0
C529 C 0.97123 0.74149 0.62604 0.0
C530 C 0.05221 0.77021 0.6082 0.0
C531 C 0.06372 0.81883 0.56483 0.0
N532 N -0.00317 0.75113 0.61562 0.0
N533 N 0.03853 0.81034 0.5837 0.0
H534 H -0.00291 0.33319 0.86144 0.0
H535 H 0.01178 0.20489 1.00683 0.0
H536 H 0.94894 0.31243 0.99903 0.0
H537 H 0.0537 0.22252 0.86271 0.0
H538 H 0.99167 0.24647 1.00886 0.0
H539 H 0.02059 0.29441 0.86469 0.0
C540 C 0.99131 0.32037 0.89219 0.0
C541 C 0.97083 0.32591 0.92981 0.0
C542 C 0.00537 0.24127 0.97691 0.0
C543 C -0.00203 0.28167 0.93418 0.0
C544 C 0.01697 0.21767 0.97591 0.0
C545 C 0.03419 0.21023 0.93435 0.0
C546 C 0.01119 0.25747 0.93612 0.0
C547 C 0.04012 0.22734 0.89505 0.0
C548 C 0.0049 0.29833 0.89424 0.0
C549 C 0.96469 0.30896 0.96941 0.0
N550 N 0.02855 0.25013 0.89682 0.0
N551 N 0.97816 0.28751 0.97049 0.0
H552 H 0.52593 0.78145 0.84473 0.0
H553 H 0.42169 0.69854 0.03805 0.0
H554 H 0.54661 0.7381 0.96117 0.0
H555 H 0.3995 0.74622 0.92874 0.0
H556 H 0.46787 0.7095 1.00487 0.0
H557 H 0.47979 0.76449 0.86815 0.0
C558 C 0.52078 0.76799 0.87464 0.0
C559 C 0.53991 0.76137 0.90152 0.0
C560 C 0.45292 0.71755 0.98805 0.0
C561 C 0.48745 0.74229 0.92891 0.0
C562 C 0.42654 0.71138 1.00712 0.0
C563 C 0.40676 0.72166 0.98633 0.0
C564 C 0.45959 0.73415 0.94795 0.0
C565 C 0.41417 0.73802 0.94605 0.0
C566 C 0.49448 0.75851 0.88827 0.0
C567 C 0.53229 0.74404 0.94019 0.0
N568 N 0.44006 0.74384 0.92822 0.0
N569 N 0.5066 0.73525 0.95298 0.0
H570 H 0.48402 0.31981 0.52887 0.0
H571 H 0.49594 0.19075 0.67423 0.0
H572 H 0.44308 0.30314 0.67408 0.0
H573 H 0.54495 0.21056 0.53699 0.0
H574 H 0.47387 0.2304 0.67116 0.0
H575 H 0.50369 0.2779 0.52689 0.0
C576 C 0.47902 0.30719 0.56007 0.0
C577 C 0.46216 0.31493 0.60187 0.0
C578 C 0.48946 0.22612 0.64166 0.0
C579 C 0.48452 0.26739 0.60009 0.0
C580 C 0.50222 0.20356 0.6436 0.0
C581 C 0.52252 0.19751 0.60605 0.0
C582 C 0.49701 0.24278 0.60186 0.0
C583 C 0.52931 0.21446 0.56655 0.0
C584 C 0.49033 0.28343 0.55908 0.0
C585 C 0.45639 0.29808 0.64154 0.0
N586 N 0.51662 0.23646 0.56554 0.0
N587 N 0.46761 0.27512 0.63972 0.0
H588 H 0.89554 0.25706 0.44517 0.0
H589 H 0.04445 0.22428 0.37174 0.0
H590 H 0.9214 0.18432 0.48602 0.0
H591 H 0.02318 0.30179 0.41791 0.0
H592 H -0.00238 0.20736 0.39124 0.0
H593 H 0.94122 0.27184 0.41233 0.0
C594 C 0.91082 0.24411 0.44678 0.0
C595 C 0.90485 0.21955 0.46863 0.0
C596 C 0.00328 0.2281 0.39646 0.0
C597 C 0.95673 0.23614 0.4306 0.0
C598 C 0.02973 0.23767 0.38512 0.0
C599 C 0.03719 0.26429 0.39342 0.0
C600 C 0.98447 0.24555 0.41497 0.0
C601 C 0.01784 0.28112 0.41126 0.0
C602 C 0.93677 0.25258 0.42817 0.0
C603 C 0.92533 0.20352 0.46987 0.0
N604 N 0.99223 0.27148 0.42136 0.0
N605 N 0.95049 0.2121 0.45095 0.0
H606 H 0.03917 0.71642 0.16984 0.0
H607 H 0.94819 0.80078 0.04133 0.0
H608 H 0.00978 0.69117 0.03685 0.0
H609 H 0.98541 0.82827 0.16494 0.0
H610 H 0.97099 0.76069 0.03755 0.0
H611 H 0.01955 0.7578 0.16797 0.0
C612 C 0.02854 0.71961 0.14028 0.0
C613 C 0.02594 0.70035 0.10361 0.0
C614 C 0.97418 0.77557 0.06539 0.0
C615 C 0.00357 0.74765 0.10093 0.0
C616 C 0.96126 0.79844 0.06743 0.0
C617 C 0.96466 0.81769 0.10386 0.0
C618 C 0.99056 0.77206 0.10004 0.0
C619 C 0.98169 0.81367 0.137 0.0
C620 C 0.01747 0.74328 0.13901 0.0
C621 C 0.01239 0.70563 0.0656 0.0
N622 N 0.99391 0.79126 0.1344 0.0
N623 N 0.00153 0.72878 0.06539 0.0
H624 H 0.11744 0.11522 0.95724 0.0
H625 H 0.27318 0.12119 0.90512 0.0
H626 H 0.16102 0.08386 0.82526 0.0
H627 H 0.2289 0.15059 0.03783 0.0
H628 H 0.23251 0.09948 0.88229 0.0
H629 H 0.15753 0.12034 0.99365 0.0
C630 C 0.13548 0.10914 0.93605 0.0
C631 C 0.13607 0.09959 0.88776 0.0
C632 C 0.23165 0.11025 0.91683 0.0
C633 C 0.18223 0.10567 0.92923 0.0
C634 C 0.25484 0.12265 0.92984 0.0
C635 C 0.2542 0.13808 0.97294 0.0
C636 C 0.20757 0.11356 0.94691 0.0
C637 C 0.23014 0.13897 1.00421 0.0
C638 C 0.15838 0.11201 0.95698 0.0
C639 C 0.15981 0.09154 0.86242 0.0
N640 N 0.20765 0.1273 0.99012 0.0
N641 N 0.18212 0.09522 0.88318 0.0
H642 H 0.6412 0.36884 0.16453 0.0
H643 H 0.63735 0.52332 0.14023 0.0
H644 H 0.67717 0.41407 0.0394 0.0
H645 H 0.5976 0.48154 0.26674 0.0
H646 H 0.65912 0.48423 0.11076 0.0
H647 H 0.63203 0.41013 0.21032 0.0
C648 C 0.64782 0.38746 0.14726 0.0
C649 C 0.65969 0.38818 0.09808 0.0
C650 C 0.64587 0.48347 0.14525 0.0
C651 C 0.64916 0.43511 0.14958 0.0
C652 C 0.63345 0.50582 0.16195 0.0
C653 C 0.61546 0.50539 0.20546 0.0
C654 C 0.63989 0.4602 0.17171 0.0
C655 C 0.61133 0.48245 0.23285 0.0
C656 C 0.64242 0.41097 0.17319 0.0
C657 C 0.66769 0.4127 0.07711 0.0
N658 N 0.6231 0.4605 0.21507 0.0
N659 N 0.66207 0.4351 0.10277 0.0
H660 H 0.36571 0.90623 0.47394 0.0
H661 H 0.22294 0.87231 0.39881 0.0
H662 H 0.34144 0.93866 0.34873 0.0
H663 H 0.24989 0.8363 0.5178 0.0
H664 H 0.26487 0.89933 0.38343 0.0
H665 H 0.32122 0.88523 0.49688 0.0
C666 C 0.35078 0.90957 0.45204 0.0
C667 C 0.35733 0.92405 0.40914 0.0
C668 C 0.26167 0.88546 0.41279 0.0
C669 C 0.30655 0.89935 0.43434 0.0
C670 C 0.23781 0.86982 0.42135 0.0
C671 C 0.23292 0.85186 0.45952 0.0
C672 C 0.28082 0.88324 0.44269 0.0
C673 C 0.25286 0.84969 0.48771 0.0
C674 C 0.32545 0.89728 0.46483 0.0
C675 C 0.33723 0.92772 0.38216 0.0
N676 N 0.27589 0.86526 0.47881 0.0
N677 N 0.31281 0.91505 0.39476 0.0
H678 H 0.8685 0.65671 0.70488 0.0
H679 H 0.87326 0.50202 0.66342 0.0
H680 H 0.82727 0.61132 0.60157 0.0
H681 H 0.90186 0.54404 0.78485 0.0
H682 H 0.85452 0.54151 0.64312 0.0
H683 H 0.8788 0.61589 0.73772 0.0
C684 C 0.86126 0.63814 0.68951 0.0
C685 C 0.84706 0.63754 0.65013 0.0
C686 C 0.86464 0.54215 0.67452 0.0
C687 C 0.85922 0.59052 0.68734 0.0
C688 C 0.87546 0.5196 0.68603 0.0
C689 C 0.8894 0.5198 0.72563 0.0
C690 C 0.86801 0.56542 0.70234 0.0
C691 C 0.89125 0.54303 0.7541 0.0
C692 C 0.8672 0.6148 0.70833 0.0
C693 C 0.83822 0.61283 0.63191 0.0
N694 N 0.881 0.56501 0.74151 0.0
N695 N 0.84472 0.59038 0.65021 0.0
H696 H 0.76162 0.87404 0.99482 0.0
H697 H 0.83098 0.9439 0.20923 0.0
H698 H 0.71946 0.90581 0.12757 0.0
H699 H 0.87147 0.9045 0.08272 0.0
H700 H 0.79091 0.93967 0.17117 0.0
H701 H 0.80287 0.89532 1.01682 0.0
C702 C 0.76102 0.88608 0.02792 0.0
C703 C 0.73734 0.88774 0.06001 0.0
C704 C 0.80871 0.9323 0.15152 0.0
C705 C 0.78418 0.91165 0.08597 0.0
C706 C 0.83152 0.93473 0.17324 0.0
C707 C 0.85431 0.92398 0.1496 0.0
C708 C 0.80889 0.91916 0.10589 0.0
C709 C 0.85411 0.91251 0.10279 0.0
C710 C 0.78453 0.89805 0.04075 0.0
C711 C 0.73752 0.90355 0.10254 0.0
N712 N 0.83169 0.91015 0.08275 0.0
N713 N 0.76063 0.91454 0.11473 0.0
H714 H 0.30844 0.63553 0.90237 0.0
H715 H 0.42267 0.53792 0.84668 0.0
H716 H 0.38245 0.64447 0.95712 0.0
H717 H 0.3469 0.51931 0.80186 0.0
H718 H 0.41051 0.58188 0.87213 0.0
H719 H 0.32382 0.59738 0.85173 0.0
C720 C 0.32803 0.62973 0.90293 0.0
C721 C 0.34416 0.64275 0.93414 0.0
C722 C 0.39648 0.56843 0.85631 0.0
C723 C 0.3618 0.59981 0.87692 0.0
C724 C 0.40354 0.54343 0.84168 0.0
C725 C 0.38567 0.52523 0.82264 0.0
C726 C 0.37103 0.57514 0.85296 0.0
C727 C 0.36111 0.53305 0.81649 0.0
C728 C 0.33676 0.60801 0.87433 0.0
C729 C 0.36932 0.63464 0.93395 0.0
N730 N 0.35425 0.55741 0.83245 0.0
N731 N 0.37727 0.6137 0.90608 0.0
H732 H 0.62374 0.11655 0.56472 0.0
H733 H 0.76691 0.14932 0.63885 0.0
H734 H 0.64747 0.08452 0.69082 0.0
H735 H 0.73932 0.18661 0.52199 0.0
H736 H 0.72481 0.12254 0.6546 0.0
H737 H 0.66833 0.13728 0.54188 0.0
C738 C 0.63857 0.11326 0.58686 0.0
C739 C 0.63184 0.09897 0.62996 0.0
C740 C 0.72793 0.13665 0.62565 0.0
C741 C 0.68276 0.12335 0.60484 0.0
C742 C 0.75188 0.15214 0.61688 0.0
C743 C 0.75662 0.1704 0.57919 0.0
C744 C 0.70857 0.13929 0.59638 0.0
C745 C 0.73648 0.17299 0.55169 0.0
C746 C 0.66396 0.12539 0.57413 0.0
C747 C 0.65182 0.09533 0.65725 0.0
N748 N 0.71338 0.15754 0.56074 0.0
N749 N 0.67632 0.10784 0.64466 0.0
H750 H 0.11971 0.3662 0.33134 0.0
H751 H 0.11544 0.52091 0.37289 0.0
H752 H 0.16182 0.41159 0.4334 0.0
H753 H 0.08638 0.47903 0.25177 0.0
H754 H 0.13416 0.48135 0.39288 0.0
H755 H 0.10926 0.40704 0.29875 0.0
C756 C 0.12712 0.38476 0.34648 0.0
C757 C 0.14161 0.38537 0.38544 0.0
C758 C 0.12393 0.48076 0.36162 0.0
C759 C 0.12928 0.43239 0.34856 0.0
C760 C 0.11312 0.50335 0.35031 0.0
C761 C 0.09907 0.50321 0.31087 0.0
C762 C 0.12045 0.45752 0.33379 0.0
C763 C 0.09708 0.47999 0.2824 0.0
C764 C 0.12109 0.40811 0.32781 0.0
C765 C 0.15064 0.41008 0.40339 0.0
N766 N 0.10732 0.45797 0.2948 0.0
N767 N 0.14405 0.43252 0.38526 0.0
H768 H 0.65996 0.58128 0.32658 0.0
H769 H 0.72951 0.64972 0.54219 0.0
H770 H 0.61932 0.61842 0.45559 0.0
H771 H 0.77176 0.61877 0.40874 0.0
H772 H 0.68831 0.62862 0.51973 0.0
H773 H 0.70034 0.58568 0.36387 0.0
C774 C 0.65945 0.58994 0.36297 0.0
C775 C 0.63651 0.60004 0.38758 0.0
C776 C 0.70666 0.62606 0.4957 0.0
C777 C 0.68228 0.60509 0.43038 0.0
C778 C 0.73015 0.63793 0.5088 0.0
C779 C 0.75387 0.63644 0.47673 0.0
C780 C 0.70702 0.61271 0.45021 0.0
C781 C 0.75369 0.62093 0.4338 0.0
C782 C 0.68244 0.59249 0.38424 0.0
C783 C 0.63678 0.61092 0.43482 0.0
N784 N 0.73059 0.61002 0.42137 0.0
N785 N 0.65934 0.61341 0.45441 0.0
H786 H 0.14068 0.02129 0.64044 0.0
H787 H 0.13839 0.86641 0.66754 0.0
H788 H 0.09717 0.98101 0.76569 0.0
H789 H 0.18153 0.91087 0.54687 0.0
H790 H 0.12909 0.90801 0.71225 0.0
H791 H 0.16172 0.98143 0.61364 0.0
C792 C 0.13576 1.00395 0.66244 0.0
C793 C 0.11698 1.00421 0.70483 0.0
C794 C 0.14112 0.9086 0.67647 0.0
C795 C 0.14063 0.95812 0.67415 0.0
C796 C 0.14661 0.8849 0.65124 0.0
C797 C 0.1606 0.88538 0.6035 0.0
C798 C 0.14982 0.93267 0.65357 0.0
C799 C 0.17051 0.90973 0.58354 0.0
C800 C 0.14779 0.98116 0.64729 0.0
C801 C 0.11154 0.98142 0.73265 0.0
N802 N 0.16472 0.93233 0.6084 0.0
N803 N 0.12298 0.95905 0.71636 0.0
H804 H 0.74818 0.33367 0.02053 0.0
H805 H 0.84174 0.43886 0.8507 0.0
H806 H 0.72504 0.36991 0.89787 0.0
H807 H 0.86598 0.40073 0.97011 0.0
H808 H 0.79717 0.41763 0.87347 0.0
H809 H 0.79077 0.3598 1.0054 0.0
C810 C 0.75218 0.3468 0.98998 0.0
C811 C 0.73301 0.34952 0.96036 0.0
C812 C 0.81214 0.41424 0.89518 0.0
C813 C 0.78147 0.37998 0.94356 0.0
C814 C 0.83751 0.4267 0.88263 0.0
C815 C 0.85766 0.42137 0.90827 0.0
C816 C 0.80698 0.39637 0.93357 0.0
C817 C 0.85108 0.40521 0.94906 0.0
C818 C 0.77639 0.36196 0.9817 0.0
C819 C 0.73921 0.36713 0.92165 0.0
N820 N 0.82641 0.39299 0.96002 0.0
N821 N 0.76284 0.38172 0.91449 0.0
H822 H 0.39953 0.04348 0.28793 0.0
H823 H 0.32707 0.1107 0.09489 0.0
H824 H 0.37628 1.00375 0.15959 0.0
H825 H 0.365 0.15448 0.20448 0.0
H826 H 0.33753 0.06978 0.12778 0.0
H827 H 0.37979 0.08276 0.26725 0.0
C828 C 0.38997 0.04291 0.25584 0.0
C829 C 0.38987 0.02044 0.22511 0.0
C830 C 0.34328 0.08835 0.145 0.0
C831 C 0.36725 0.06516 0.20115 0.0
C832 C 0.33713 0.11172 0.12642 0.0
C833 C 0.34531 0.13612 0.14667 0.0
C834 C 0.35758 0.08933 0.18432 0.0
C835 C 0.35846 0.13615 0.18739 0.0
C836 C 0.37884 0.06534 0.24386 0.0
C837 C 0.37728 0.02081 0.1838 0.0
N838 N 0.36433 0.1132 0.20461 0.0
N839 N 0.36661 0.04276 0.17296 0.0
H840 H 0.26084 0.36702 0.49485 0.0
H841 H 0.33208 0.44279 0.70234 0.0
H842 H 0.21983 0.4065 0.62029 0.0
H843 H 0.37053 0.39426 0.58673 0.0
H844 H 0.29234 0.43783 0.66339 0.0
H845 H 0.30288 0.38585 0.51744 0.0
C846 C 0.26074 0.38022 0.52637 0.0
C847 C 0.23702 0.38488 0.55631 0.0
C848 C 0.30962 0.42852 0.64636 0.0
C849 C 0.28469 0.40604 0.58297 0.0
C850 C 0.33224 0.43132 0.66862 0.0
C851 C 0.35441 0.41849 0.6483 0.0
C852 C 0.30933 0.4129 0.60347 0.0
C853 C 0.35368 0.40408 0.60426 0.0
C854 C 0.28466 0.39077 0.53958 0.0
C855 C 0.23783 0.40203 0.59693 0.0
N856 N 0.33146 0.4015 0.58359 0.0
N857 N 0.26129 0.4117 0.60952 0.0
H858 H 0.80297 0.11322 0.48637 0.0
H859 H 0.89154 0.04174 0.2671 0.0
H860 H 0.85312 0.1561 0.37102 0.0
H861 H 0.84981 1.00481 0.3975 0.0
H862 H 0.87041 0.08242 0.29295 0.0
H863 H 0.81143 0.07221 0.44145 0.0
C864 C 0.81524 0.11394 0.45077 0.0
C865 C 0.82742 0.1379 0.43225 0.0
C866 C 0.86563 0.06526 0.31545 0.0
C867 C 0.8382 0.09097 0.38142 0.0
C868 C 0.87759 0.04212 0.30066 0.0
C869 C 0.87265 0.02018 0.33072 0.0
C870 C 0.84843 0.06613 0.36019 0.0
C871 C 0.85449 0.02151 0.37385 0.0
C872 C 0.82027 0.09053 0.42528 0.0
C873 C 0.84327 0.13791 0.38619 0.0
N874 N 0.8432 0.04409 0.38738 0.0
N875 N 0.84868 0.11466 0.36263 0.0
H876 H 0.14711 0.58134 0.18181 0.0
H877 H 0.24029 0.68773 1.0147 0.0
H878 H 0.12246 0.62096 0.06454 0.0
H879 H 0.26488 0.64753 0.13145 0.0
H880 H 0.19781 0.66128 0.02874 0.0
H881 H 0.19202 0.60132 0.15725 0.0
C882 C 0.15128 0.59357 0.14998 0.0
C883 C 0.13095 0.59974 0.12556 0.0
C884 C 0.21252 0.65827 0.05129 0.0
C885 C 0.18206 0.6233 0.09819 0.0
C886 C 0.23667 0.67356 0.0436 0.0
C887 C 0.25612 0.66999 0.07213 0.0
C888 C 0.20778 0.63928 0.08778 0.0
C889 C 0.25044 0.65108 0.10868 0.0
C890 C 0.17687 0.60529 0.13637 0.0
C891 C 0.1375 0.6159 0.08476 0.0
N892 N 0.22682 0.63647 0.11544 0.0
N893 N 0.16238 0.62744 0.07284 0.0
H894 H 0.58767 0.97897 0.75047 0.0
H895 H 0.66378 0.91274 0.93885 0.0
H896 H 0.61289 0.01915 0.87675 0.0
H897 H 0.62153 0.86803 0.83615 0.0
H898 H 0.65296 0.95336 0.90559 0.0
H899 H 0.60743 0.93961 0.77081 0.0
C900 C 0.59768 0.9796 0.78201 0.0
C901 C 0.59835 1.00222 0.8123 0.0
C902 C 0.64632 0.93465 0.88996 0.0
C903 C 0.621 0.95747 0.83579 0.0
C904 C 0.65265 0.91144 0.90875 0.0
C905 C 0.6434 0.88689 0.89058 0.0
C906 C 0.63077 0.93336 0.85248 0.0
C907 C 0.62892 0.8865 0.85161 0.0
C908 C 0.60881 0.95715 0.79379 0.0
C909 C 0.61149 1.00198 0.85292 0.0
N910 N 0.62293 0.90932 0.8341 0.0
N911 N 0.62218 0.98 0.86353 0.0
H912 H 0.43174 0.17022 0.02182 0.0
H913 H 0.47371 0.13221 0.74178 0.0
H914 H 0.37793 0.17065 0.91779 0.0
H915 H 0.50629 0.09732 0.85521 0.0
H916 H 0.44083 0.15058 0.80441 0.0
H917 H 0.46249 0.1483 0.95977 0.0
C918 C 0.42647 0.16586 0.9859 0.0
C919 C 0.40225 0.17229 0.97496 0.0
C920 C 0.45498 0.13864 0.81551 0.0
C921 C 0.43731 0.14742 0.90394 0.0
C922 C 0.47369 0.12807 0.7798 0.0
C923 C 0.49265 0.11302 0.79324 0.0
C924 C 0.45565 0.13473 0.86513 0.0
C925 C 0.49185 0.10854 0.84316 0.0
C926 C 0.44391 0.15319 0.95069 0.0
C927 C 0.39636 0.166 0.92788 0.0
N928 N 0.47391 0.11965 0.87734 0.0
N929 N 0.41383 0.15413 0.89403 0.0
H930 H 0.5993 0.63044 0.16641 0.0
H931 H 0.65955 0.77709 0.10107 0.0
H932 H 0.61329 0.68997 0.27619 0.0
H933 H 0.61294 0.73024 1.0078 0.0
H934 H 0.65092 0.74201 0.16061 0.0
H935 H 0.6124 0.66356 0.10316 0.0
C936 C 0.60551 0.65036 0.17718 0.0
C937 C 0.60522 0.65742 0.22676 0.0
C938 C 0.64273 0.73934 0.12697 0.0
C939 C 0.62032 0.69534 0.15448 0.0
C940 C 0.64775 0.7593 0.09276 0.0
C941 C 0.63691 0.75669 0.04925 0.0
C942 C 0.6271 0.71629 0.11748 0.0
C943 C 0.62164 0.73316 0.04084 0.0
C944 C 0.61279 0.66927 0.14108 0.0
C945 C 0.61319 0.68363 0.2385 0.0
N946 N 0.61724 0.71386 0.07456 0.0
N947 N 0.62048 0.70158 0.20269 0.0
H948 H 0.98482 0.94836 0.31103 0.0
H949 H 0.08582 0.84492 0.34988 0.0
H950 H 0.99131 0.87488 0.22957 0.0
H951 H 0.09635 0.92657 0.39405 0.0
H952 H 0.04811 0.85442 0.31216 0.0
H953 H 0.02322 0.93982 0.34812 0.0
C954 C 0.99435 0.93052 0.30084 0.0
C955 C 0.9849 0.91235 0.26711 0.0
C956 C 0.05873 0.87028 0.32997 0.0
C957 C 0.02843 0.90236 0.30964 0.0
C958 C 0.08012 0.86482 0.35169 0.0
C959 C 0.09423 0.885 0.3749 0.0
C960 C 0.05118 0.89605 0.33205 0.0
C961 C 0.08619 0.91053 0.37592 0.0
C962 C 0.01624 0.92568 0.32193 0.0
C963 C -0.00204 0.88951 0.25526 0.0
N964 N 0.06509 0.91533 0.35501 0.0
N965 N 0.01894 0.88511 0.2767 0.0
H966 H 0.85111 0.23497 0.68051 0.0
H967 H 0.88499 0.39128 0.70094 0.0
H968 H 0.83307 0.28813 0.57594 0.0
H969 H 0.90163 0.33548 0.80226 0.0
H970 H 0.8639 0.35479 0.65624 0.0
H971 H 0.86698 0.27251 0.72795 0.0
C972 C 0.85018 0.25457 0.66776 0.0
C973 C 0.84075 0.25831 0.62404 0.0
C974 C 0.87212 0.35064 0.68837 0.0
C975 C 0.85941 0.30171 0.67813 0.0
C976 C 0.8842 0.37145 0.71384 0.0
C977 C 0.89524 0.36651 0.75537 0.0
C978 C 0.87107 0.32475 0.70463 0.0
C979 C 0.89355 0.34037 0.77041 0.0
C980 C 0.85938 0.27608 0.69484 0.0
C981 C 0.8401 0.28428 0.60948 0.0
N982 N 0.8818 0.32062 0.74512 0.0
N983 N 0.84951 0.30498 0.63623 0.0
H984 H 0.61325 0.85303 0.12073 0.0
H985 H 0.48156 0.92561 0.18162 0.0
H986 H 0.5581 0.85203 0.01893 0.0
H987 H 0.515 0.89012 0.29329 0.0
H988 H 0.51441 0.90683 0.11926 0.0
H989 H 0.58184 0.87399 0.18234 0.0
C990 C 0.59451 0.85722 0.11133 0.0
C991 C 0.58823 0.85067 0.06464 0.0
C992 C 0.51465 0.90339 0.15747 0.0
C993 C 0.55245 0.87519 0.1348 0.0
C994 C 0.49613 0.91434 0.19312 0.0
C995 C 0.49559 0.90952 0.24282 0.0
C996 C 0.53311 0.88796 0.17163 0.0
C997 C 0.51472 0.89439 0.25545 0.0
C998 C 0.57661 0.86916 0.14655 0.0
C999 C 0.56364 0.85656 0.05457 0.0
N1000 N 0.53275 0.88423 0.22014 0.0
N1001 N 0.54672 0.86871 0.08923 0.0
H1002 H 0.4225 0.33959 0.78146 0.0
H1003 H 0.31673 0.26875 0.97911 0.0
H1004 H 0.35669 0.38236 0.84477 0.0
H1005 H 0.39915 0.27281 0.99238 0.0
H1006 H 0.32698 0.30384 0.9185 0.0
H1007 H 0.41029 0.30739 0.84627 0.0
C1008 C 0.40528 0.34204 0.80867 0.0
C1009 C 0.39054 0.36368 0.80765 0.0
C1010 C 0.34268 0.29711 0.93515 0.0
C1011 C 0.3763 0.32661 0.88139 0.0
C1012 C 0.3369 0.27713 0.96955 0.0
C1013 C 0.35711 0.26796 0.99103 0.0
C1014 C 0.36894 0.30724 0.92092 0.0
C1015 C 0.38294 0.27943 0.97711 0.0
C1016 C 0.39848 0.32377 0.84576 0.0
C1017 C 0.36857 0.36598 0.84427 0.0
N1018 N 0.38818 0.29812 0.94238 0.0
N1019 N 0.36189 0.34748 0.87943 0.0
H1020 H -0.00073 0.15038 0.80861 0.0
H1021 H 0.89402 0.09476 0.63998 0.0
H1022 H 0.00495 0.07662 0.72791 0.0
H1023 H 0.90458 0.17629 0.68493 0.0
H1024 H 0.9315 0.08588 0.67897 0.0
H1025 H 0.96134 0.1582 0.77077 0.0
C1026 C 0.99246 0.13572 0.78309 0.0
C1027 C 0.00533 0.11277 0.77141 0.0
C1028 C 0.92562 0.10571 0.68024 0.0
C1029 C 0.96178 0.1217 0.72792 0.0
C1030 C 0.90413 0.11075 0.65833 0.0
C1031 C 0.89616 0.13631 0.65937 0.0
C1032 C 0.93902 0.1263 0.70388 0.0
C1033 C 0.91022 0.15638 0.68298 0.0
C1034 C 0.97085 0.1403 0.76133 0.0
C1035 C -0.00436 0.09458 0.73791 0.0
N1036 N 0.93089 0.15093 0.70452 0.0
N1037 N 0.97436 0.0994 0.7174 0.0
H1038 H 0.15724 0.73375 0.46306 0.0
H1039 H 0.08883 0.6873 0.23027 0.0
H1040 H 0.13859 0.78593 0.35745 0.0
H1041 H 0.10428 0.63252 0.33452 0.0
H1042 H 0.10964 0.72297 0.2749 0.0
H1043 H 0.14121 0.69607 0.41479 0.0
C1044 C 0.15018 0.73731 0.42939 0.0
C1045 C 0.14927 0.76315 0.4144 0.0
C1046 C 0.10861 0.7032 0.28818 0.0
C1047 C 0.1306 0.72006 0.35929 0.0
C1048 C 0.09663 0.68268 0.26263 0.0
C1049 C 0.09464 0.65671 0.27863 0.0
C1050 C 0.11877 0.69802 0.3305 0.0
C1051 C 0.1053 0.65219 0.32085 0.0
C1052 C 0.14087 0.71577 0.40202 0.0
C1053 C 0.13968 0.76646 0.37063 0.0
N1054 N 0.11683 0.67265 0.34543 0.0
N1055 N 0.13066 0.74527 0.34492 0.0
H1056 H 0.93334 0.67285 0.52166 0.0
H1057 H 0.97251 0.6311 0.24266 0.0
H1058 H 0.87752 0.66848 0.42062 0.0
H1059 H 0.00849 0.59978 0.35539 0.0
H1060 H 0.93986 0.64934 0.3059 0.0
H1061 H 0.96428 0.65111 0.45952 0.0
C1062 C 0.92767 0.66746 0.4864 0.0
C1063 C 0.90283 0.67247 0.47631 0.0
C1064 C 0.95473 0.63822 0.31675 0.0
C1065 C 0.93806 0.64786 0.40523 0.0
C1066 C 0.9733 0.62774 0.2807 0.0
C1067 C 0.99311 0.61371 0.29375 0.0
C1068 C 0.95639 0.63529 0.36628 0.0
C1069 C 0.99336 0.61018 0.34369 0.0
C1070 C 0.94521 0.6549 0.45116 0.0
C1071 C 0.89642 0.66492 0.43005 0.0
N1072 N 0.97551 0.62122 0.37818 0.0
N1073 N 0.91397 0.65322 0.39617 0.0
H1074 H 0.11176 0.19012 0.77917 0.0
H1075 H 0.11196 0.22949 0.50461 0.0
H1076 H 0.10045 0.13163 0.66624 0.0
H1077 H 0.15537 0.27718 0.60184 0.0
H1078 H 0.10415 0.19434 0.56455 0.0
H1079 H 0.12461 0.22334 0.71632 0.0
C1080 C 0.11223 0.1842 0.74113 0.0
C1081 C 0.10513 0.15798 0.72803 0.0
C1082 C 0.11557 0.21243 0.57253 0.0
C1083 C 0.11924 0.19614 0.65584 0.0
C1084 C 0.11999 0.23253 0.53838 0.0
C1085 C 0.13441 0.25636 0.54807 0.0
C1086 C 0.12512 0.21635 0.61722 0.0
C1087 C 0.14427 0.25914 0.5926 0.0
C1088 C 0.11957 0.20319 0.70525 0.0
C1089 C 0.10598 0.15154 0.67805 0.0
N1090 N 0.13921 0.23955 0.62565 0.0
N1091 N 0.11256 0.17051 0.64388 0.0
H1092 H 0.51061 0.40522 0.69485 0.0
H1093 H 0.56754 0.37844 0.93373 0.0
H1094 H 0.47016 0.4267 0.83722 0.0
H1095 H 0.61884 0.39886 0.79954 0.0
H1096 H 0.52997 0.39092 0.89822 0.0
H1097 H 0.54942 0.39818 0.7315 0.0
C1098 C 0.51002 0.40865 0.7338 0.0
C1099 C 0.48723 0.41656 0.76314 0.0
C1100 C 0.54949 0.39278 0.87672 0.0
C1101 C 0.53121 0.40798 0.80527 0.0
C1102 C 0.57081 0.38545 0.89673 0.0
C1103 C 0.5962 0.38756 0.86931 0.0
C1104 C 0.55358 0.40169 0.82864 0.0
C1105 C 0.59955 0.39708 0.82178 0.0
C1106 C 0.53214 0.40469 0.7546 0.0
C1107 C 0.48744 0.42076 0.81337 0.0
N1108 N 0.57841 0.40352 0.80267 0.0
N1109 N 0.509 0.41603 0.83307 0.0
H1110 H 0.33913 0.73827 0.19198 0.0
H1111 H 0.38512 0.89273 0.20023 0.0
H1112 H 0.3322 0.78991 0.07617 0.0
H1113 H 0.3957 0.83742 0.3076 0.0
H1114 H 0.36208 0.85688 0.1572 0.0
H1115 H 0.35516 0.77602 0.23875 0.0
C1116 C 0.34057 0.75762 0.17665 0.0
C1117 C 0.33438 0.76082 0.12989 0.0
C1118 C 0.3694 0.8527 0.1903 0.0
C1119 C 0.35335 0.80438 0.18316 0.0
C1120 C 0.38258 0.87314 0.2148 0.0
C1121 C 0.39255 0.86812 0.25747 0.0
C1122 C 0.36606 0.82713 0.20877 0.0
C1123 C 0.38857 0.84232 0.27474 0.0
C1124 C 0.34991 0.77923 0.20331 0.0
C1125 C 0.33669 0.78648 0.11208 0.0
N1126 N 0.37574 0.82293 0.25039 0.0
N1127 N 0.34626 0.80724 0.13849 0.0
H1128 H 0.05545 0.35036 0.51424 0.0
H1129 H 0.01697 0.39284 0.79304 0.0
H1130 H 0.11146 0.35492 0.61495 0.0
H1131 H 0.98078 0.42407 0.68047 0.0
H1132 H 0.04942 0.37443 0.72971 0.0
H1133 H 0.02465 0.37234 0.57635 0.0
C1134 C 0.06119 0.35583 0.54942 0.0
C1135 C 0.08605 0.35082 0.55942 0.0
C1136 C 0.03457 0.38559 0.71891 0.0
C1137 C 0.051 0.37569 0.63044 0.0
C1138 C 0.01612 0.39619 0.75501 0.0
C1139 C -0.0037 0.41023 0.74204 0.0
C1140 C 0.03279 0.38841 0.66939 0.0
C1141 C -0.00405 0.41368 0.69211 0.0
C1142 C 0.04374 0.36853 0.58463 0.0
C1143 C 0.09255 0.35848 0.60556 0.0
N1144 N 0.01368 0.40253 0.65756 0.0
N1145 N 0.07509 0.37031 0.63941 0.0
H1146 H 0.87837 0.834 0.25845 0.0
H1147 H 0.87768 0.7937 0.53254 0.0
H1148 H 0.89004 0.89216 0.37174 0.0
H1149 H 0.83366 0.74687 0.43515 0.0
H1150 H 0.88582 0.82903 0.47295 0.0
H1151 H 0.86516 0.80071 0.32109 0.0
C1152 C 0.87792 0.83983 0.29653 0.0
C1153 C 0.88522 0.86598 0.30979 0.0
C1154 C 0.87419 0.81109 0.46488 0.0
C1155 C 0.87068 0.82774 0.38174 0.0
C1156 C 0.86959 0.79089 0.49882 0.0
C1157 C 0.85491 0.76724 0.48897 0.0
C1158 C 0.86457 0.80746 0.42021 0.0
C1159 C 0.84496 0.76476 0.44451 0.0
C1160 C 0.87037 0.82081 0.33228 0.0
C1161 C 0.88437 0.87231 0.35981 0.0
N1162 N 0.85022 0.78444 0.41165 0.0
N1163 N 0.87757 0.8533 0.39387 0.0
H1164 H 0.40041 0.68045 0.20041 0.0
H1165 H 0.50324 0.57777 0.23414 0.0
H1166 H 0.39099 0.59894 0.15469 0.0
H1167 H 0.49868 0.65208 0.31325 0.0
H1168 H 0.46393 0.58594 0.19973 0.0
H1169 H 0.43864 0.67135 0.23703 0.0
C1170 C 0.40641 0.66066 0.19813 0.0
C1171 C 0.39249 0.64042 0.17465 0.0
C1172 C 0.47151 0.60036 0.22481 0.0
C1173 C 0.43617 0.62983 0.21621 0.0
C1174 C 0.49395 0.59573 0.24437 0.0
C1175 C 0.50423 0.61424 0.27666 0.0
C1176 C 0.45952 0.6238 0.2372 0.0
C1177 C 0.49141 0.63721 0.28862 0.0
C1178 C 0.42811 0.65542 0.2192 0.0
C1179 C 0.40095 0.61504 0.17302 0.0
N1180 N 0.46983 0.64139 0.26871 0.0
N1181 N 0.42235 0.61049 0.19326 0.0
H1182 H 0.64205 0.28581 0.85444 0.0
H1183 H 0.60129 0.13042 0.84051 0.0
H1184 H 0.65102 0.23387 0.96845 0.0
H1185 H 0.5914 0.18573 0.73261 0.0
H1186 H 0.62214 0.16669 0.88613 0.0
H1187 H 0.62679 0.24807 0.80698 0.0
C1188 C 0.64108 0.26641 0.86935 0.0
C1189 C 0.64778 0.26311 0.91567 0.0
C1190 C 0.61546 0.17078 0.85236 0.0
C1191 C 0.62981 0.21945 0.86141 0.0
C1192 C 0.60355 0.15009 0.82633 0.0
C1193 C 0.59442 0.15498 0.78272 0.0
C1194 C 0.61833 0.19647 0.8345 0.0
C1195 C 0.59794 0.1809 0.7661 0.0
C1196 C 0.63224 0.24478 0.84221 0.0
C1197 C 0.64613 0.23736 0.93287 0.0
N1198 N 0.6095 0.20052 0.79194 0.0
N1199 N 0.6371 0.21654 0.90593 0.0
H1200 H 0.32091 0.2544 0.21495 0.0
H1201 H 0.16886 0.2675 0.32324 0.0
H1202 H 0.25637 0.21698 0.14852 0.0
H1203 H 0.23312 0.30662 0.3883 0.0
H1204 H 0.20059 0.24865 0.25991 0.0
H1205 H 0.2893 0.2733 0.27866 0.0
C1206 C 0.30007 0.25013 0.21362 0.0
C1207 C 0.29139 0.23399 0.17598 0.0
C1208 C 0.20783 0.26133 0.28796 0.0
C1209 C 0.25484 0.25575 0.24958 0.0
C1210 C 0.18967 0.27217 0.32435 0.0
C1211 C 0.19822 0.28879 0.36147 0.0
C1212 C 0.23496 0.26702 0.28824 0.0
C1213 C 0.22554 0.29395 0.3606 0.0
C1214 C 0.28199 0.26098 0.2502 0.0
C1215 C 0.26406 0.22927 0.1766 0.0
N1216 N 0.24288 0.28313 0.32465 0.0
N1217 N 0.24683 0.24006 0.21272 0.0
H1218 H 0.52152 0.58762 0.4838 0.0
H1219 H 0.46516 0.44056 0.55396 0.0
H1220 H 0.53591 0.51984 0.38882 0.0
H1221 H 0.45221 0.50705 0.65296 0.0
H1222 H 0.4901 0.46977 0.4929 0.0
H1223 H 0.49563 0.55895 0.54556 0.0
C1224 C 0.51928 0.56668 0.47587 0.0
C1225 C 0.53096 0.55613 0.43087 0.0
C1226 C 0.48183 0.47808 0.52786 0.0
C1227 C 0.50115 0.52317 0.50175 0.0
C1228 C 0.46749 0.46138 0.56295 0.0
C1229 C 0.45656 0.47132 0.60896 0.0
C1230 C 0.48543 0.50509 0.53846 0.0
C1231 C 0.46026 0.49852 0.61806 0.0
C1232 C 0.50445 0.55034 0.51126 0.0
C1233 C 0.52733 0.52886 0.42288 0.0
N1234 N 0.47445 0.51447 0.58313 0.0
N1235 N 0.51274 0.51336 0.45793 0.0
H1236 H 0.18301 0.73639 0.70829 0.0
H1237 H 0.31049 0.78617 0.82814 0.0
H1238 H 0.23943 0.79985 0.65129 0.0
H1239 H 0.25355 0.72324 0.88569 0.0
H1240 H 0.2849 0.79135 0.76311 0.0
H1241 H 0.20876 0.73115 0.773 0.0
C1242 C 0.20091 0.74915 0.70911 0.0
C1243 C 0.20912 0.76851 0.67392 0.0
C1244 C 0.27798 0.7764 0.78993 0.0
C1245 C 0.23866 0.76275 0.74867 0.0
C1246 C 0.29253 0.7735 0.82735 0.0
C1247 C 0.28412 0.75431 0.86281 0.0
C1248 C 0.25476 0.76002 0.78775 0.0
C1249 C 0.26094 0.73813 0.85905 0.0
C1250 C 0.21555 0.74622 0.74637 0.0
C1251 C 0.23222 0.78481 0.67774 0.0
N1252 N 0.24705 0.7414 0.8223 0.0
N1253 N 0.2462 0.78152 0.71435 0.0
H1254 H 0.03509 0.51051 0.13126 0.0
H1255 H 0.95337 0.51221 0.90568 0.0
H1256 H 0.00566 0.58 0.08436 0.0
H1257 H 0.98197 0.44252 0.95361 0.0
H1258 H 0.97297 0.53771 0.97033 0.0
H1259 H 0.01532 0.48494 0.06685 0.0
C1260 C 0.02434 0.52034 0.10792 0.0
C1261 C 0.02222 0.5475 0.11342 0.0
C1262 C 0.97496 0.51681 0.96648 0.0
C1263 C -0.00024 0.51851 0.03919 0.0
C1264 C 0.96388 0.50232 0.92933 0.0
C1265 C 0.96583 0.47513 0.924 0.0
C1266 C 0.98814 0.50405 0.99848 0.0
C1267 C 0.97968 0.46339 0.9562 0.0
C1268 C 0.01317 0.50581 0.07089 0.0
C1269 C 0.00809 0.55916 0.08161 0.0
N1270 N 0.99014 0.4778 0.9918 0.0
N1271 N -0.00243 0.54472 0.04609 0.0
H1272 H 0.66937 0.76973 0.82349 0.0
H1273 H 0.82087 0.75569 0.71278 0.0
H1274 H 0.73441 0.80723 0.88841 0.0
H1275 H 0.75596 0.71694 0.64908 0.0
H1276 H 0.7896 0.77486 0.77645 0.0
H1277 H 0.7006 0.75064 0.75948 0.0
C1278 C 0.69025 0.774 0.82443 0.0
C1279 C 0.69917 0.79021 0.86175 0.0
C1280 C 0.78211 0.76219 0.74863 0.0
C1281 C 0.73531 0.76818 0.78774 0.0
C1282 C 0.80001 0.75116 0.71203 0.0
C1283 C 0.79115 0.73454 0.67518 0.0
C1284 C 0.75493 0.75672 0.74884 0.0
C1285 C 0.76379 0.72958 0.67655 0.0
C1286 C 0.70811 0.76302 0.78765 0.0
C1287 C 0.72654 0.79489 0.86059 0.0
N1288 N 0.7467 0.7406 0.71271 0.0
N1289 N 0.74358 0.78396 0.82427 0.0
H1290 H 0.70635 0.2278 0.16522 0.0
H1291 H 0.77556 0.29746 0.381 0.0
H1292 H 0.71047 0.3114 0.19558 0.0
H1293 H 0.77428 0.21432 0.34652 0.0
H1294 H 0.75124 0.30285 0.31415 0.0
H1295 H 0.73078 0.22246 0.23195 0.0
C1296 C 0.71232 0.24506 0.186 0.0
C1297 C 0.70616 0.2701 0.17488 0.0
C1298 C 0.75625 0.28342 0.32119 0.0
C1299 C 0.7344 0.26411 0.25142 0.0
C1300 C 0.77026 0.28031 0.35932 0.0
C1301 C 0.77719 0.25539 0.36938 0.0
C1302 C 0.74901 0.26145 0.29272 0.0
C1303 C 0.76923 0.23385 0.34052 0.0
C1304 C 0.72639 0.24199 0.22404 0.0
C1305 C 0.71492 0.29178 0.20255 0.0
N1306 N 0.75565 0.23739 0.30345 0.0
N1307 N 0.7285 0.28827 0.23965 0.0
H1308 H 0.0389 0.01697 0.88552 0.0
H1309 H 0.95104 1.00723 0.15238 0.0
H1310 H 0.01964 0.08435 0.97858 0.0
H1311 H 0.97018 0.93988 0.05916 0.0
H1312 H 0.97606 0.03592 0.08906 0.0
H1313 H 0.01381 0.98831 0.94879 0.0
C1314 C 0.02943 0.02574 0.91917 0.0
C1315 C 0.0314 0.05312 0.92661 0.0
C1316 C 0.97476 0.01484 0.08252 0.0
C1317 C 0.00263 0.02047 0.99924 0.0
C1318 C 0.96046 0.99848 0.11869 0.0
C1319 C 0.95849 0.9711 0.11122 0.0
C1320 C 0.98718 1.00377 0.03854 0.0
C1321 C 0.97114 0.96087 0.0667 0.0
C1322 C 0.01509 1.00938 0.95531 0.0
C1323 C 0.01869 0.06336 0.97107 0.0
N1324 N 0.98491 0.97716 0.0322 0.0
N1325 N 0.00489 0.04708 1.00556 0.0
H1326 H 0.53444 1.01003 0.63283 0.0
H1327 H 0.45494 0.01262 0.40442 0.0
H1328 H 0.5084 0.08031 0.58178 0.0
H1329 H 0.48133 0.94238 0.45486 0.0
H1330 H 0.47486 0.03804 0.46875 0.0
H1331 H 0.51461 0.9846 0.56837 0.0
C1332 C 0.52445 0.02008 0.60852 0.0
C1333 C 0.52327 0.0474 0.61294 0.0
C1334 C 0.47631 0.01703 0.46552 0.0
C1335 C 0.5007 0.01854 0.53871 0.0
C1336 C 0.46504 1.00258 0.42856 0.0
C1337 C 0.46627 0.97527 0.42402 0.0
C1338 C 0.48894 1.00411 0.49814 0.0
C1339 C 0.4796 0.96335 0.45682 0.0
C1340 C 0.51323 1.00562 0.57149 0.0
C1341 C 0.51008 0.05933 0.57993 0.0
N1342 N 0.49025 0.97773 0.49225 0.0
N1343 N 0.49947 0.04494 0.54447 0.0
loop_
_geom_bond_atom_site_label_1
_geom_bond_atom_site_label_2
_geom_bond_distance
_geom_bond_site_symmetry_2
_ccdc_geom_bond_type
Co0 N5 2.057 1_554 S
Co0 O17 2.021 . S
Co0 O20 2.062 . S
Co0 O24 2.117 1_554 S
Co0 O25 2.020 1_554 S
C1 O21 1.259 1_556 S
C1 O24 1.258 . S
Co2 N11 2.057 . S
Co2 O18 2.117 . S
Co2 O19 2.020 . S
Co2 O21 2.021 . S
Co2 O26 2.062 1_554 S
C3 N5 1.316 1_554 S
C3 N6 1.347 1_554 S
C3 H8 0.931 . S
C4 N5 1.375 . S
C4 C7 1.350 . S
C4 H9 0.930 . S
N5 Co0 2.057 1_556 S
N5 C3 1.316 1_556 S
N5 C4 1.375 . S
N6 C3 1.347 1_556 S
N6 C7 1.373 . S
C7 C4 1.350 . S
C7 N6 1.373 . S
C7 H28 0.931 . S
H8 C3 0.931 . S
H9 C4 0.930 . S
C10 O17 1.259 . S
C10 O18 1.258 . S
N11 Co2 2.057 . S
N11 C12 1.316 . S
N11 C13 1.375 . S
C12 N11 1.316 . S
C12 N14 1.347 . S
C12 H23 0.931 . S
C13 N11 1.375 . S
C13 C15 1.350 . S
C13 H22 0.930 . S
N14 C12 1.347 . S
N14 C15 1.373 . S
C15 C13 1.350 . S
C15 N14 1.373 . S
C15 H29 0.931 . S
C16 O19 1.256 . S
C16 O20 1.255 . S
O17 Co0 2.021 . S
O17 C10 1.259 . S
O18 Co2 2.117 . S
O18 C10 1.258 . S
O19 Co2 2.020 . S
O19 C16 1.256 . S
O20 Co0 2.062 . S
O20 C16 1.255 . S
O21 C1 1.259 1_554 S
O21 Co2 2.021 . S
H22 C13 0.930 . S
H23 C12 0.931 . S
O24 Co0 2.117 1_556 S
O24 C1 1.258 . S
O25 Co0 2.020 1_556 S
O25 C27 1.256 . S
O26 Co2 2.062 1_556 S
O26 C27 1.255 . S
C27 O25 1.256 . S
C27 O26 1.255 . S
H28 C7 0.931 . S
H29 C15 0.931 . S
Co30 N35 2.057 . S
Co30 O47 2.021 . S
Co30 O50 2.062 . S
Co30 O54 2.117 . S
Co30 O55 2.020 . S
C31 O51 1.259 . S
C31 O54 1.258 . S
Co32 N41 2.057 . S
Co32 O48 2.117 . S
Co32 O49 2.020 . S
Co32 O51 2.021 . S
Co32 O56 2.062 . S
C33 N35 1.316 . S
C33 N36 1.347 . S
C33 H38 0.931 . S
C34 N35 1.375 . S
C34 C37 1.350 . S
C34 H39 0.930 . S
N35 Co30 2.057 . S
N35 C33 1.316 . S
N35 C34 1.375 . S
N36 C33 1.347 . S
N36 C37 1.373 . S
C37 C34 1.350 . S
C37 N36 1.373 . S
C37 H58 0.931 . S
H38 C33 0.931 . S
H39 C34 0.930 . S
C40 O47 1.259 . S
C40 O48 1.258 . S
N41 Co32 2.057 . S
N41 C42 1.316 . S
N41 C43 1.375 . S
C42 N41 1.316 . S
C42 N44 1.347 . S
C42 H53 0.931 . S
C43 N41 1.375 . S
C43 C45 1.350 . S
C43 H52 0.930 . S
N44 C42 1.347 . S
N44 C45 1.373 . S
C45 C43 1.350 . S
C45 N44 1.373 . S
C45 H59 0.931 . S
C46 O49 1.256 . S
C46 O50 1.255 . S
O47 Co30 2.021 . S
O47 C40 1.259 . S
O48 Co32 2.117 . S
O48 C40 1.258 . S
O49 Co32 2.020 . S
O49 C46 1.256 . S
O50 Co30 2.062 . S
O50 C46 1.255 . S
O51 C31 1.259 . S
O51 Co32 2.021 . S
H52 C43 0.930 . S
H53 C42 0.931 . S
O54 Co30 2.117 . S
O54 C31 1.258 . S
O55 Co30 2.020 . S
O55 C57 1.256 . S
O56 Co32 2.062 . S
O56 C57 1.255 . S
C57 O55 1.256 . S
C57 O56 1.255 . S
H58 C37 0.931 . S
H59 C45 0.931 . S
Co60 N65 2.057 . S
Co60 O77 2.021 . S
Co60 O80 2.062 . S
Co60 O84 2.117 . S
Co60 O85 2.020 . S
C61 O81 1.259 . S
C61 O84 1.258 . S
Co62 N71 2.057 . S
Co62 O78 2.117 . S
Co62 O79 2.020 . S
Co62 O81 2.021 . S
Co62 O86 2.062 . S
C63 N65 1.316 . S
C63 N66 1.347 . S
C63 H68 0.931 . S
C64 N65 1.375 . S
C64 C67 1.350 . S
C64 H69 0.930 . S
N65 Co60 2.057 . S
N65 C63 1.316 . S
N65 C64 1.375 . S
N66 C63 1.347 . S
N66 C67 1.373 . S
C67 C64 1.350 . S
C67 N66 1.373 . S
C67 H88 0.931 . S
H68 C63 0.931 . S
H69 C64 0.930 . S
C70 O77 1.259 . S
C70 O78 1.258 . S
N71 Co62 2.057 . S
N71 C72 1.316 . S
N71 C73 1.375 . S
C72 N71 1.316 . S
C72 N74 1.347 . S
C72 H83 0.931 . S
C73 N71 1.375 . S
C73 C75 1.350 . S
C73 H82 0.930 . S
N74 C72 1.347 . S
N74 C75 1.373 . S
C75 C73 1.350 . S
C75 N74 1.373 . S
C75 H89 0.931 . S
C76 O79 1.256 . S
C76 O80 1.255 . S
O77 Co60 2.021 . S
O77 C70 1.259 . S
O78 Co62 2.117 . S
O78 C70 1.258 . S
O79 Co62 2.020 . S
O79 C76 1.256 . S
O80 Co60 2.062 . S
O80 C76 1.255 . S
O81 C61 1.259 . S
O81 Co62 2.021 . S
H82 C73 0.930 . S
H83 C72 0.931 . S
O84 Co60 2.117 . S
O84 C61 1.258 . S
O85 Co60 2.020 . S
O85 C87 1.256 . S
O86 Co62 2.062 . S
O86 C87 1.255 . S
C87 O85 1.256 . S
C87 O86 1.255 . S
H88 C67 0.931 . S
H89 C75 0.931 . S
Co90 N95 2.057 . S
Co90 O107 2.021 . S
Co90 O110 2.062 . S
Co90 O114 2.117 . S
Co90 O115 2.020 . S
C91 O111 1.259 . S
C91 O114 1.258 . S
Co92 N101 2.057 . S
Co92 O108 2.117 . S
Co92 O109 2.020 . S
Co92 O111 2.021 . S
Co92 O116 2.062 . S
C93 N95 1.316 . S
C93 N96 1.347 . S
C93 H98 0.931 . S
C94 N95 1.375 . S
C94 C97 1.350 . S
C94 H99 0.930 . S
N95 Co90 2.057 . S
N95 C93 1.316 . S
N95 C94 1.375 . S
N96 C93 1.347 . S
N96 C97 1.373 . S
C97 C94 1.350 . S
C97 N96 1.373 . S
C97 H118 0.931 . S
H98 C93 0.931 . S
H99 C94 0.930 . S
C100 O107 1.259 . S
C100 O108 1.258 . S
N101 Co92 2.057 . S
N101 C102 1.316 . S
N101 C103 1.375 . S
C102 N101 1.316 . S
C102 N104 1.347 . S
C102 H113 0.931 . S
C103 N101 1.375 . S
C103 C105 1.350 . S
C103 H112 0.930 . S
N104 C102 1.347 . S
N104 C105 1.373 . S
C105 C103 1.350 . S
C105 N104 1.373 . S
C105 H119 0.931 . S
C106 O109 1.256 . S
C106 O110 1.255 . S
O107 Co90 2.021 . S
O107 C100 1.259 . S
O108 Co92 2.117 . S
O108 C100 1.258 . S
O109 Co92 2.020 . S
O109 C106 1.256 . S
O110 Co90 2.062 . S
O110 C106 1.255 . S
O111 C91 1.259 . S
O111 Co92 2.021 . S
H112 C103 0.930 . S
H113 C102 0.931 . S
O114 Co90 2.117 . S
O114 C91 1.258 . S
O115 Co90 2.020 . S
O115 C117 1.256 . S
O116 Co92 2.062 . S
O116 C117 1.255 . S
C117 O115 1.256 . S
C117 O116 1.255 . S
H118 C97 0.931 . S
H119 C105 0.931 . S
Co120 N125 2.057 . S
Co120 O137 2.021 . S
Co120 O140 2.062 1_556 S
Co120 O144 2.117 . S
Co120 O145 2.020 . S
C121 O141 1.259 . S
C121 O144 1.258 . S
Co122 N131 2.057 1_556 S
Co122 O138 2.117 1_556 S
Co122 O139 2.020 1_556 S
Co122 O141 2.021 . S
Co122 O146 2.062 . S
C123 N125 1.316 . S
C123 N126 1.347 . S
C123 H128 0.931 . S
C124 N125 1.375 . S
C124 C127 1.350 . S
C124 H129 0.930 . S
N125 Co120 2.057 . S
N125 C123 1.316 . S
N125 C124 1.375 . S
N126 C123 1.347 . S
N126 C127 1.373 . S
C127 C124 1.350 . S
C127 N126 1.373 . S
C127 H148 0.931 . S
H128 C123 0.931 . S
H129 C124 0.930 . S
C130 O137 1.259 1_554 S
C130 O138 1.258 . S
N131 Co122 2.057 1_554 S
N131 C132 1.316 1_554 S
N131 C133 1.375 . S
C132 N131 1.316 1_556 S
C132 N134 1.347 1_556 S
C132 H143 0.931 . S
C133 N131 1.375 . S
C133 C135 1.350 . S
C133 H142 0.930 . S
N134 C132 1.347 1_554 S
N134 C135 1.373 . S
C135 C133 1.350 . S
C135 N134 1.373 . S
C135 H149 0.931 . S
C136 O139 1.256 . S
C136 O140 1.255 . S
O137 Co120 2.021 . S
O137 C130 1.259 1_556 S
O138 Co122 2.117 1_554 S
O138 C130 1.258 . S
O139 Co122 2.020 1_554 S
O139 C136 1.256 . S
O140 Co120 2.062 1_554 S
O140 C136 1.255 . S
O141 C121 1.259 . S
O141 Co122 2.021 . S
H142 C133 0.930 . S
H143 C132 0.931 . S
O144 Co120 2.117 . S
O144 C121 1.258 . S
O145 Co120 2.020 . S
O145 C147 1.256 . S
O146 Co122 2.062 . S
O146 C147 1.255 . S
C147 O145 1.256 . S
C147 O146 1.255 . S
H148 C127 0.931 . S
H149 C135 0.931 . S
Co150 N155 2.057 . S
Co150 O167 2.021 . S
Co150 O170 2.062 . S
Co150 O174 2.117 . S
Co150 O175 2.020 . S
C151 O171 1.259 . S
C151 O174 1.258 . S
Co152 N161 2.057 . S
Co152 O168 2.117 . S
Co152 O169 2.020 . S
Co152 O171 2.021 . S
Co152 O176 2.062 . S
C153 N155 1.316 . S
C153 N156 1.347 . S
C153 H158 0.931 . S
C154 N155 1.375 . S
C154 C157 1.350 . S
C154 H159 0.930 . S
N155 Co150 2.057 . S
N155 C153 1.316 . S
N155 C154 1.375 . S
N156 C153 1.347 . S
N156 C157 1.373 . S
C157 C154 1.350 . S
C157 N156 1.373 . S
C157 H178 0.931 . S
H158 C153 0.931 . S
H159 C154 0.930 . S
C160 O167 1.259 . S
C160 O168 1.258 . S
N161 Co152 2.057 . S
N161 C162 1.316 . S
N161 C163 1.375 . S
C162 N161 1.316 . S
C162 N164 1.347 . S
C162 H173 0.931 . S
C163 N161 1.375 . S
C163 C165 1.350 . S
C163 H172 0.930 . S
N164 C162 1.347 . S
N164 C165 1.373 . S
C165 C163 1.350 . S
C165 N164 1.373 . S
C165 H179 0.931 . S
C166 O169 1.256 . S
C166 O170 1.255 . S
O167 Co150 2.021 . S
O167 C160 1.259 . S
O168 Co152 2.117 . S
O168 C160 1.258 . S
O169 Co152 2.020 . S
O169 C166 1.256 . S
O170 Co150 2.062 . S
O170 C166 1.255 . S
O171 C151 1.259 . S
O171 Co152 2.021 . S
H172 C163 0.930 . S
H173 C162 0.931 . S
O174 Co150 2.117 . S
O174 C151 1.258 . S
O175 Co150 2.020 . S
O175 C177 1.256 . S
O176 Co152 2.062 . S
O176 C177 1.255 . S
C177 O175 1.256 . S
C177 O176 1.255 . S
H178 C157 0.931 . S
H179 C165 0.931 . S
Co180 N185 2.057 . S
Co180 O197 2.021 . S
Co180 O200 2.062 . S
Co180 O204 2.117 . S
Co180 O205 2.020 . S
C181 O201 1.259 . S
C181 O204 1.258 . S
Co182 N191 2.057 . S
Co182 O198 2.117 . S
Co182 O199 2.020 . S
Co182 O201 2.021 . S
Co182 O206 2.062 . S
C183 N185 1.316 . S
C183 N186 1.347 . S
C183 H188 0.931 . S
C184 N185 1.375 . S
C184 C187 1.350 . S
C184 H189 0.930 . S
N185 Co180 2.057 . S
N185 C183 1.316 . S
N185 C184 1.375 . S
N186 C183 1.347 . S
N186 C187 1.373 . S
C187 C184 1.350 . S
C187 N186 1.373 . S
C187 H208 0.931 . S
H188 C183 0.931 . S
H189 C184 0.930 . S
C190 O197 1.259 . S
C190 O198 1.258 . S
N191 Co182 2.057 . S
N191 C192 1.316 . S
N191 C193 1.375 . S
C192 N191 1.316 . S
C192 N194 1.347 . S
C192 H203 0.931 . S
C193 N191 1.375 . S
C193 C195 1.350 . S
C193 H202 0.930 . S
N194 C192 1.347 . S
N194 C195 1.373 . S
C195 C193 1.350 . S
C195 N194 1.373 . S
C195 H209 0.931 . S
C196 O199 1.256 . S
C196 O200 1.255 . S
O197 Co180 2.021 . S
O197 C190 1.259 . S
O198 Co182 2.117 . S
O198 C190 1.258 . S
O199 Co182 2.020 . S
O199 C196 1.256 . S
O200 Co180 2.062 . S
O200 C196 1.255 . S
O201 C181 1.259 . S
O201 Co182 2.021 . S
H202 C193 0.930 . S
H203 C192 0.931 . S
O204 Co180 2.117 . S
O204 C181 1.258 . S
O205 Co180 2.020 . S
O205 C207 1.256 . S
O206 Co182 2.062 . S
O206 C207 1.255 . S
C207 O205 1.256 . S
C207 O206 1.255 . S
H208 C187 0.931 . S
H209 C195 0.931 . S
Co210 N215 2.057 . S
Co210 O227 2.021 . S
Co210 O230 2.062 . S
Co210 O234 2.117 . S
Co210 O235 2.020 . S
C211 O231 1.259 . S
C211 O234 1.258 . S
Co212 N221 2.057 . S
Co212 O228 2.117 . S
Co212 O229 2.020 . S
Co212 O231 2.021 . S
Co212 O236 2.062 . S
C213 N215 1.316 . S
C213 N216 1.347 . S
C213 H218 0.931 . S
C214 N215 1.375 . S
C214 C217 1.350 . S
C214 H219 0.930 . S
N215 Co210 2.057 . S
N215 C213 1.316 . S
N215 C214 1.375 . S
N216 C213 1.347 . S
N216 C217 1.373 . S
C217 C214 1.350 . S
C217 N216 1.373 . S
C217 H238 0.931 . S
H218 C213 0.931 . S
H219 C214 0.930 . S
C220 O227 1.259 . S
C220 O228 1.258 . S
N221 Co212 2.057 . S
N221 C222 1.316 . S
N221 C223 1.375 . S
C222 N221 1.316 . S
C222 N224 1.347 . S
C222 H233 0.931 . S
C223 N221 1.375 . S
C223 C225 1.350 . S
C223 H232 0.930 . S
N224 C222 1.347 . S
N224 C225 1.373 . S
C225 C223 1.350 . S
C225 N224 1.373 . S
C225 H239 0.931 . S
C226 O229 1.256 . S
C226 O230 1.255 . S
O227 Co210 2.021 . S
O227 C220 1.259 . S
O228 Co212 2.117 . S
O228 C220 1.258 . S
O229 Co212 2.020 . S
O229 C226 1.256 . S
O230 Co210 2.062 . S
O230 C226 1.255 . S
O231 C211 1.259 . S
O231 Co212 2.021 . S
H232 C223 0.930 . S
H233 C222 0.931 . S
O234 Co210 2.117 . S
O234 C211 1.258 . S
O235 Co210 2.020 . S
O235 C237 1.256 . S
O236 Co212 2.062 . S
O236 C237 1.255 . S
C237 O235 1.256 . S
C237 O236 1.255 . S
H238 C217 0.931 . S
H239 C225 0.931 . S
Co240 N245 2.057 . S
Co240 O257 2.021 . S
Co240 O260 2.062 . S
Co240 O264 2.117 . S
Co240 O265 2.020 . S
C241 O261 1.259 . S
C241 O264 1.258 . S
Co242 N251 2.057 . S
Co242 O258 2.117 . S
Co242 O259 2.020 . S
Co242 O261 2.021 . S
Co242 O266 2.062 . S
C243 N245 1.316 . S
C243 N246 1.347 . S
C243 H248 0.931 . S
C244 N245 1.375 . S
C244 C247 1.350 . S
C244 H249 0.930 . S
N245 Co240 2.057 . S
N245 C243 1.316 . S
N245 C244 1.375 . S
N246 C243 1.347 . S
N246 C247 1.373 . S
C247 C244 1.350 . S
C247 N246 1.373 . S
C247 H268 0.931 . S
H248 C243 0.931 . S
H249 C244 0.930 . S
C250 O257 1.259 . S
C250 O258 1.258 . S
N251 Co242 2.057 . S
N251 C252 1.316 . S
N251 C253 1.375 . S
C252 N251 1.316 . S
C252 N254 1.347 . S
C252 H263 0.931 . S
C253 N251 1.375 . S
C253 C255 1.350 . S
C253 H262 0.930 . S
N254 C252 1.347 . S
N254 C255 1.373 . S
C255 C253 1.350 . S
C255 N254 1.373 . S
C255 H269 0.931 . S
C256 O259 1.256 . S
C256 O260 1.255 . S
O257 Co240 2.021 . S
O257 C250 1.259 . S
O258 Co242 2.117 . S
O258 C250 1.258 . S
O259 Co242 2.020 . S
O259 C256 1.256 . S
O260 Co240 2.062 . S
O260 C256 1.255 . S
O261 C241 1.259 . S
O261 Co242 2.021 . S
H262 C253 0.930 . S
H263 C252 0.931 . S
O264 Co240 2.117 . S
O264 C241 1.258 . S
O265 Co240 2.020 . S
O265 C267 1.256 . S
O266 Co242 2.062 . S
O266 C267 1.255 . S
C267 O265 1.256 . S
C267 O266 1.255 . S
H268 C247 0.931 . S
H269 C255 0.931 . S
Co270 N275 2.057 . S
Co270 O287 2.021 . S
Co270 O290 2.062 . S
Co270 O294 2.117 . S
Co270 O295 2.020 . S
C271 O291 1.259 . S
C271 O294 1.258 . S
Co272 N281 2.057 . S
Co272 O288 2.117 . S
Co272 O289 2.020 . S
Co272 O291 2.021 . S
Co272 O296 2.062 . S
C273 N275 1.316 . S
C273 N276 1.347 . S
C273 H278 0.931 . S
C274 N275 1.375 . S
C274 C277 1.350 . S
C274 H279 0.930 . S
N275 Co270 2.057 . S
N275 C273 1.316 . S
N275 C274 1.375 . S
N276 C273 1.347 . S
N276 C277 1.373 . S
C277 C274 1.350 . S
C277 N276 1.373 . S
C277 H298 0.931 1_545 S
H278 C273 0.931 . S
H279 C274 0.930 . S
C280 O287 1.259 . S
C280 O288 1.258 . S
N281 Co272 2.057 . S
N281 C282 1.316 . S
N281 C283 1.375 . S
C282 N281 1.316 . S
C282 N284 1.347 . S
C282 H293 0.931 . S
C283 N281 1.375 . S
C283 C285 1.350 . S
C283 H292 0.930 . S
N284 C282 1.347 . S
N284 C285 1.373 . S
C285 C283 1.350 . S
C285 N284 1.373 . S
C285 H299 0.931 . S
C286 O289 1.256 . S
C286 O290 1.255 . S
O287 Co270 2.021 . S
O287 C280 1.259 . S
O288 Co272 2.117 . S
O288 C280 1.258 . S
O289 Co272 2.020 . S
O289 C286 1.256 . S
O290 Co270 2.062 . S
O290 C286 1.255 . S
O291 C271 1.259 . S
O291 Co272 2.021 . S
H292 C283 0.930 . S
H293 C282 0.931 . S
O294 Co270 2.117 . S
O294 C271 1.258 . S
O295 Co270 2.020 . S
O295 C297 1.256 . S
O296 Co272 2.062 . S
O296 C297 1.255 . S
C297 O295 1.256 . S
C297 O296 1.255 . S
H298 C277 0.931 1_565 S
H299 C285 0.931 . S
Co300 N305 2.057 . S
Co300 O317 2.021 . S
Co300 O320 2.062 . S
Co300 O324 2.117 1_556 S
Co300 O325 2.020 . S
C301 O321 1.259 . S
C301 O324 1.258 . S
Co302 N311 2.057 . S
Co302 O318 2.117 1_554 S
Co302 O319 2.020 . S
Co302 O321 2.021 . S
Co302 O326 2.062 . S
C303 N305 1.316 . S
C303 N306 1.347 . S
C303 H308 0.931 . S
C304 N305 1.375 . S
C304 C307 1.350 . S
C304 H309 0.930 . S
N305 Co300 2.057 . S
N305 C303 1.316 . S
N305 C304 1.375 . S
N306 C303 1.347 . S
N306 C307 1.373 . S
C307 C304 1.350 . S
C307 N306 1.373 . S
C307 H328 0.931 . S
H308 C303 0.931 . S
H309 C304 0.930 . S
C310 O317 1.259 . S
C310 O318 1.258 . S
N311 Co302 2.057 . S
N311 C312 1.316 . S
N311 C313 1.375 . S
C312 N311 1.316 . S
C312 N314 1.347 . S
C312 H323 0.931 . S
C313 N311 1.375 . S
C313 C315 1.350 . S
C313 H322 0.930 . S
N314 C312 1.347 . S
N314 C315 1.373 . S
C315 C313 1.350 . S
C315 N314 1.373 . S
C315 H329 0.931 . S
C316 O319 1.256 . S
C316 O320 1.255 1_554 S
O317 Co300 2.021 . S
O317 C310 1.259 . S
O318 Co302 2.117 1_556 S
O318 C310 1.258 . S
O319 Co302 2.020 . S
O319 C316 1.256 . S
O320 Co300 2.062 . S
O320 C316 1.255 1_556 S
O321 C301 1.259 . S
O321 Co302 2.021 . S
H322 C313 0.930 . S
H323 C312 0.931 . S
O324 Co300 2.117 1_554 S
O324 C301 1.258 . S
O325 Co300 2.020 . S
O325 C327 1.256 . S
O326 Co302 2.062 . S
O326 C327 1.255 1_554 S
C327 O325 1.256 . S
C327 O326 1.255 1_556 S
H328 C307 0.931 . S
H329 C315 0.931 . S
Co330 N335 2.057 . S
Co330 O347 2.021 . S
Co330 O350 2.062 . S
Co330 O354 2.117 . S
Co330 O355 2.020 . S
C331 O351 1.259 . S
C331 O354 1.258 . S
Co332 N341 2.057 . S
Co332 O348 2.117 . S
Co332 O349 2.020 . S
Co332 O351 2.021 . S
Co332 O356 2.062 . S
C333 N335 1.316 . S
C333 N336 1.347 . S
C333 H338 0.931 . S
C334 N335 1.375 . S
C334 C337 1.350 . S
C334 H339 0.930 . S
N335 Co330 2.057 . S
N335 C333 1.316 . S
N335 C334 1.375 . S
N336 C333 1.347 . S
N336 C337 1.373 . S
C337 C334 1.350 . S
C337 N336 1.373 . S
C337 H358 0.931 . S
H338 C333 0.931 . S
H339 C334 0.930 . S
C340 O347 1.259 . S
C340 O348 1.258 . S
N341 Co332 2.057 . S
N341 C342 1.316 . S
N341 C343 1.375 . S
C342 N341 1.316 . S
C342 N344 1.347 . S
C342 H353 0.931 . S
C343 N341 1.375 . S
C343 C345 1.350 . S
C343 H352 0.930 . S
N344 C342 1.347 . S
N344 C345 1.373 . S
C345 C343 1.350 . S
C345 N344 1.373 . S
C345 H359 0.931 . S
C346 O349 1.256 . S
C346 O350 1.255 . S
O347 Co330 2.021 . S
O347 C340 1.259 . S
O348 Co332 2.117 . S
O348 C340 1.258 . S
O349 Co332 2.020 . S
O349 C346 1.256 . S
O350 Co330 2.062 . S
O350 C346 1.255 . S
O351 C331 1.259 . S
O351 Co332 2.021 . S
H352 C343 0.930 . S
H353 C342 0.931 . S
O354 Co330 2.117 . S
O354 C331 1.258 . S
O355 Co330 2.020 . S
O355 C357 1.256 . S
O356 Co332 2.062 . S
O356 C357 1.255 . S
C357 O355 1.256 . S
C357 O356 1.255 . S
H358 C337 0.931 . S
H359 C345 0.931 . S
Co360 N365 2.057 . S
Co360 O377 2.021 . S
Co360 O380 2.062 . S
Co360 O384 2.117 . S
Co360 O385 2.020 . S
C361 O381 1.259 . S
C361 O384 1.258 . S
Co362 N371 2.057 . S
Co362 O378 2.117 . S
Co362 O379 2.020 . S
Co362 O381 2.021 . S
Co362 O386 2.062 . S
C363 N365 1.316 . S
C363 N366 1.347 . S
C363 H368 0.931 . S
C364 N365 1.375 . S
C364 C367 1.350 . S
C364 H369 0.930 . S
N365 Co360 2.057 . S
N365 C363 1.316 . S
N365 C364 1.375 . S
N366 C363 1.347 . S
N366 C367 1.373 . S
C367 C364 1.350 . S
C367 N366 1.373 . S
C367 H388 0.931 . S
H368 C363 0.931 . S
H369 C364 0.930 . S
C370 O377 1.259 . S
C370 O378 1.258 . S
N371 Co362 2.057 . S
N371 C372 1.316 . S
N371 C373 1.375 . S
C372 N371 1.316 . S
C372 N374 1.347 . S
C372 H383 0.931 . S
C373 N371 1.375 . S
C373 C375 1.350 . S
C373 H382 0.930 . S
N374 C372 1.347 . S
N374 C375 1.373 . S
C375 C373 1.350 . S
C375 N374 1.373 . S
C375 H389 0.931 . S
C376 O379 1.256 . S
C376 O380 1.255 . S
O377 Co360 2.021 . S
O377 C370 1.259 . S
O378 Co362 2.117 . S
O378 C370 1.258 . S
O379 Co362 2.020 . S
O379 C376 1.256 . S
O380 Co360 2.062 . S
O380 C376 1.255 . S
O381 C361 1.259 . S
O381 Co362 2.021 . S
H382 C373 0.930 . S
H383 C372 0.931 . S
O384 Co360 2.117 . S
O384 C361 1.258 . S
O385 Co360 2.020 . S
O385 C387 1.256 . S
O386 Co362 2.062 . S
O386 C387 1.255 . S
C387 O385 1.256 . S
C387 O386 1.255 . S
H388 C367 0.931 . S
H389 C375 0.931 . S
Co390 N395 2.057 . S
Co390 O407 2.021 . S
Co390 O410 2.062 . S
Co390 O414 2.117 . S
Co390 O415 2.020 . S
C391 O411 1.259 . S
C391 O414 1.258 . S
Co392 N401 2.057 . S
Co392 O408 2.117 . S
Co392 O409 2.020 . S
Co392 O411 2.021 . S
Co392 O416 2.062 . S
C393 N395 1.316 . S
C393 N396 1.347 . S
C393 H398 0.931 . S
C394 N395 1.375 . S
C394 C397 1.350 . S
C394 H399 0.930 . S
N395 Co390 2.057 . S
N395 C393 1.316 . S
N395 C394 1.375 . S
N396 C393 1.347 . S
N396 C397 1.373 . S
C397 C394 1.350 . S
C397 N396 1.373 . S
C397 H418 0.931 . S
H398 C393 0.931 . S
H399 C394 0.930 . S
C400 O407 1.259 . S
C400 O408 1.258 . S
N401 Co392 2.057 . S
N401 C402 1.316 . S
N401 C403 1.375 . S
C402 N401 1.316 . S
C402 N404 1.347 . S
C402 H413 0.931 . S
C403 N401 1.375 . S
C403 C405 1.350 . S
C403 H412 0.930 . S
N404 C402 1.347 . S
N404 C405 1.373 . S
C405 C403 1.350 . S
C405 N404 1.373 . S
C405 H419 0.931 1_565 S
C406 O409 1.256 . S
C406 O410 1.255 . S
O407 Co390 2.021 . S
O407 C400 1.259 . S
O408 Co392 2.117 . S
O408 C400 1.258 . S
O409 Co392 2.020 . S
O409 C406 1.256 . S
O410 Co390 2.062 . S
O410 C406 1.255 . S
O411 C391 1.259 . S
O411 Co392 2.021 . S
H412 C403 0.930 . S
H413 C402 0.931 . S
O414 Co390 2.117 . S
O414 C391 1.258 . S
O415 Co390 2.020 . S
O415 C417 1.256 . S
O416 Co392 2.062 . S
O416 C417 1.255 . S
C417 O415 1.256 . S
C417 O416 1.255 . S
H418 C397 0.931 . S
H419 C405 0.931 1_545 S
Co420 N425 2.057 . S
Co420 O437 2.021 . S
Co420 O440 2.062 . S
Co420 O444 2.117 1_556 S
Co420 O445 2.020 . S
C421 O441 1.259 . S
C421 O444 1.258 . S
Co422 N431 2.057 . S
Co422 O438 2.117 1_554 S
Co422 O439 2.020 . S
Co422 O441 2.021 . S
Co422 O446 2.062 . S
C423 N425 1.316 . S
C423 N426 1.347 . S
C423 H428 0.931 . S
C424 N425 1.375 . S
C424 C427 1.350 . S
C424 H429 0.930 . S
N425 Co420 2.057 . S
N425 C423 1.316 . S
N425 C424 1.375 . S
N426 C423 1.347 . S
N426 C427 1.373 . S
C427 C424 1.350 . S
C427 N426 1.373 . S
C427 H448 0.931 . S
H428 C423 0.931 . S
H429 C424 0.930 . S
C430 O437 1.259 . S
C430 O438 1.258 . S
N431 Co422 2.057 . S
N431 C432 1.316 . S
N431 C433 1.375 . S
C432 N431 1.316 . S
C432 N434 1.347 . S
C432 H443 0.931 . S
C433 N431 1.375 . S
C433 C435 1.350 . S
C433 H442 0.930 . S
N434 C432 1.347 . S
N434 C435 1.373 . S
C435 C433 1.350 . S
C435 N434 1.373 . S
C435 H449 0.931 . S
C436 O439 1.256 . S
C436 O440 1.255 1_554 S
O437 Co420 2.021 . S
O437 C430 1.259 . S
O438 Co422 2.117 1_556 S
O438 C430 1.258 . S
O439 Co422 2.020 . S
O439 C436 1.256 . S
O440 Co420 2.062 . S
O440 C436 1.255 1_556 S
O441 C421 1.259 . S
O441 Co422 2.021 . S
H442 C433 0.930 . S
H443 C432 0.931 . S
O444 Co420 2.117 1_554 S
O444 C421 1.258 . S
O445 Co420 2.020 . S
O445 C447 1.256 . S
O446 Co422 2.062 . S
O446 C447 1.255 1_554 S
C447 O445 1.256 . S
C447 O446 1.255 1_556 S
H448 C427 0.931 . S
H449 C435 0.931 . S
Co450 N455 2.057 . S
Co450 O467 2.021 . S
Co450 O470 2.062 . S
Co450 O474 2.117 . S
Co450 O475 2.020 . S
C451 O471 1.259 . S
C451 O474 1.258 . S
Co452 N461 2.057 . S
Co452 O468 2.117 . S
Co452 O469 2.020 . S
Co452 O471 2.021 . S
Co452 O476 2.062 . S
C453 N455 1.316 . S
C453 N456 1.347 . S
C453 H458 0.931 . S
C454 N455 1.375 . S
C454 C457 1.350 . S
C454 H459 0.930 . S
N455 Co450 2.057 . S
N455 C453 1.316 . S
N455 C454 1.375 . S
N456 C453 1.347 . S
N456 C457 1.373 . S
C457 C454 1.350 . S
C457 N456 1.373 . S
C457 H478 0.931 . S
H458 C453 0.931 . S
H459 C454 0.930 . S
C460 O467 1.259 . S
C460 O468 1.258 . S
N461 Co452 2.057 . S
N461 C462 1.316 . S
N461 C463 1.375 . S
C462 N461 1.316 . S
C462 N464 1.347 . S
C462 H473 0.931 . S
C463 N461 1.375 . S
C463 C465 1.350 . S
C463 H472 0.930 . S
N464 C462 1.347 . S
N464 C465 1.373 . S
C465 C463 1.350 . S
C465 N464 1.373 . S
C465 H479 0.931 . S
C466 O469 1.256 . S
C466 O470 1.255 . S
O467 Co450 2.021 . S
O467 C460 1.259 . S
O468 Co452 2.117 . S
O468 C460 1.258 . S
O469 Co452 2.020 . S
O469 C466 1.256 . S
O470 Co450 2.062 . S
O470 C466 1.255 . S
O471 C451 1.259 . S
O471 Co452 2.021 . S
H472 C463 0.930 . S
H473 C462 0.931 . S
O474 Co450 2.117 . S
O474 C451 1.258 . S
O475 Co450 2.020 . S
O475 C477 1.256 . S
O476 Co452 2.062 . S
O476 C477 1.255 . S
C477 O475 1.256 . S
C477 O476 1.255 . S
H478 C457 0.931 . S
H479 C465 0.931 . S
H480 C486 0.930 . S
H481 C490 0.930 1_556 S
H482 C495 0.929 . S
H483 C493 0.929 . S
H484 C488 0.929 1_556 S
H485 C494 0.929 . S
C486 H480 0.930 . S
C486 C487 1.367 . S
C486 C494 1.378 . S
C487 C486 1.367 . S
C487 C495 1.433 . S
C488 H484 0.929 1_554 S
C488 C490 1.378 . S
C488 C492 1.350 . S
C489 C492 1.463 . S
C489 C494 1.350 . S
C489 N497 1.427 . S
C490 H481 0.930 1_554 S
C490 C488 1.378 . S
C490 C491 1.367 . S
C491 C490 1.367 . S
C491 C493 1.433 . S
C492 C488 1.350 . S
C492 C489 1.463 . S
C492 N496 1.427 . S
C493 H483 0.929 . S
C493 C491 1.433 . S
C493 N496 1.384 . S
C494 H485 0.929 . S
C494 C486 1.378 . S
C494 C489 1.350 . S
C495 H482 0.929 . S
C495 C487 1.433 . S
C495 N497 1.384 . S
N496 C492 1.427 . S
N496 C493 1.384 . S
N497 C489 1.427 . S
N497 C495 1.384 . S
H498 C504 0.930 . S
H499 C508 0.930 . S
H500 C513 0.929 . S
H501 C511 0.929 . S
H502 C506 0.929 . S
H503 C512 0.929 . S
C504 H498 0.930 . S
C504 C505 1.367 . S
C504 C512 1.378 . S
C505 C504 1.367 . S
C505 C513 1.433 . S
C506 H502 0.929 . S
C506 C508 1.378 . S
C506 C510 1.350 . S
C507 C510 1.463 . S
C507 C512 1.350 . S
C507 N515 1.427 . S
C508 H499 0.930 . S
C508 C506 1.378 . S
C508 C509 1.367 . S
C509 C508 1.367 . S
C509 C511 1.433 . S
C510 C506 1.350 . S
C510 C507 1.463 . S
C510 N514 1.427 . S
C511 H501 0.929 . S
C511 C509 1.433 . S
C511 N514 1.384 . S
C512 H503 0.929 . S
C512 C504 1.378 . S
C512 C507 1.350 . S
C513 H500 0.929 . S
C513 C505 1.433 . S
C513 N515 1.384 . S
N514 C510 1.427 . S
N514 C511 1.384 . S
N515 C507 1.427 . S
N515 C513 1.384 . S
H516 C522 0.930 . S
H517 C526 0.930 . S
H518 C531 0.929 . S
H519 C529 0.929 . S
H520 C524 0.929 1_455 S
H521 C530 0.929 . S
C522 H516 0.930 . S
C522 C523 1.367 . S
C522 C530 1.378 . S
C523 C522 1.367 . S
C523 C531 1.433 . S
C524 H520 0.929 1_655 S
C524 C526 1.378 . S
C524 C528 1.350 1_655 S
C525 C528 1.463 . S
C525 C530 1.350 . S
C525 N533 1.427 . S
C526 H517 0.930 . S
C526 C524 1.378 . S
C526 C527 1.367 . S
C527 C526 1.367 . S
C527 C529 1.433 . S
C528 C524 1.350 1_455 S
C528 C525 1.463 . S
C528 N532 1.427 . S
C529 H519 0.929 . S
C529 C527 1.433 . S
C529 N532 1.384 1_655 S
C530 H521 0.929 . S
C530 C522 1.378 . S
C530 C525 1.350 . S
C531 H518 0.929 . S
C531 C523 1.433 . S
C531 N533 1.384 . S
N532 C528 1.427 . S
N532 C529 1.384 1_455 S
N533 C525 1.427 . S
N533 C531 1.384 . S
H534 C540 0.930 . S
H535 C544 0.930 1_655 S
H536 C549 0.929 . S
H537 C547 0.929 . S
H538 C542 0.929 . S
H539 C548 0.929 1_455 S
C540 H534 0.930 . S
C540 C541 1.367 . S
C540 C548 1.378 . S
C541 C540 1.367 . S
C541 C549 1.433 . S
C542 H538 0.929 . S
C542 C544 1.378 1_655 S
C542 C546 1.350 . S
C543 C546 1.463 . S
C543 C548 1.350 . S
C543 N551 1.427 . S
C544 H535 0.930 1_455 S
C544 C542 1.378 1_455 S
C544 C545 1.367 . S
C545 C544 1.367 . S
C545 C547 1.433 . S
C546 C542 1.350 . S
C546 C543 1.463 . S
C546 N550 1.427 1_655 S
C547 H537 0.929 . S
C547 C545 1.433 . S
C547 N550 1.384 . S
C548 H539 0.929 1_655 S
C548 C540 1.378 . S
C548 C543 1.350 . S
C549 H536 0.929 . S
C549 C541 1.433 . S
C549 N551 1.384 . S
N550 C546 1.427 1_455 S
N550 C547 1.384 . S
N551 C543 1.427 . S
N551 C549 1.384 . S
H552 C558 0.930 . S
H553 C562 0.930 1_554 S
H554 C567 0.929 . S
H555 C565 0.929 . S
H556 C560 0.929 1_554 S
H557 C566 0.929 . S
C558 H552 0.930 . S
C558 C559 1.367 . S
C558 C566 1.378 . S
C559 C558 1.367 . S
C559 C567 1.433 . S
C560 H556 0.929 1_556 S
C560 C562 1.378 . S
C560 C564 1.350 . S
C561 C564 1.463 . S
C561 C566 1.350 . S
C561 N569 1.427 . S
C562 H553 0.930 1_556 S
C562 C560 1.378 . S
C562 C563 1.367 . S
C563 C562 1.367 . S
C563 C565 1.433 . S
C564 C560 1.350 . S
C564 C561 1.463 . S
C564 N568 1.427 . S
C565 H555 0.929 . S
C565 C563 1.433 . S
C565 N568 1.384 . S
C566 H557 0.929 . S
C566 C558 1.378 . S
C566 C561 1.350 . S
C567 H554 0.929 . S
C567 C559 1.433 . S
C567 N569 1.384 . S
N568 C564 1.427 . S
N568 C565 1.384 . S
N569 C561 1.427 . S
N569 C567 1.384 . S
H570 C576 0.930 . S
H571 C580 0.930 . S
H572 C585 0.929 . S
H573 C583 0.929 . S
H574 C578 0.929 . S
H575 C584 0.929 . S
C576 H570 0.930 . S
C576 C577 1.367 . S
C576 C584 1.378 . S
C577 C576 1.367 . S
C577 C585 1.433 . S
C578 H574 0.929 . S
C578 C580 1.378 . S
C578 C582 1.350 . S
C579 C582 1.463 . S
C579 C584 1.350 . S
C579 N587 1.427 . S
C580 H571 0.930 . S
C580 C578 1.378 . S
C580 C581 1.367 . S
C581 C580 1.367 . S
C581 C583 1.433 . S
C582 C578 1.350 . S
C582 C579 1.463 . S
C582 N586 1.427 . S
C583 H573 0.929 . S
C583 C581 1.433 . S
C583 N586 1.384 . S
C584 H575 0.929 . S
C584 C576 1.378 . S
C584 C579 1.350 . S
C585 H572 0.929 . S
C585 C577 1.433 . S
C585 N587 1.384 . S
N586 C582 1.427 . S
N586 C583 1.384 . S
N587 C579 1.427 . S
N587 C585 1.384 . S
H588 C594 0.930 . S
H589 C598 0.930 . S
H590 C603 0.929 . S
H591 C601 0.929 . S
H592 C596 0.925 1_655 S
H593 C602 0.929 . S
C594 H588 0.930 . S
C594 C595 1.367 . S
C594 C602 1.378 . S
C595 C594 1.367 . S
C595 C603 1.433 . S
C596 H592 0.925 1_455 S
C596 C598 1.378 . S
C596 C600 1.350 1_455 S
C597 C600 1.463 . S
C597 C602 1.350 . S
C597 N605 1.427 . S
C598 H589 0.930 . S
C598 C596 1.378 . S
C598 C599 1.367 . S
C599 C598 1.367 . S
C599 C601 1.433 . S
C600 C596 1.350 1_655 S
C600 C597 1.463 . S
C600 N604 1.427 . S
C601 H591 0.929 . S
C601 C599 1.433 . S
C601 N604 1.384 1_455 S
C602 H593 0.929 . S
C602 C594 1.378 . S
C602 C597 1.350 . S
C603 H590 0.929 . S
C603 C595 1.433 . S
C603 N605 1.384 . S
N604 C600 1.427 . S
N604 C601 1.384 1_655 S
N605 C597 1.427 . S
N605 C603 1.384 . S
H606 C612 0.930 . S
H607 C616 0.930 . S
H608 C621 0.929 . S
H609 C619 0.929 . S
H610 C614 0.929 . S
H611 C620 0.929 . S
C612 H606 0.930 . S
C612 C613 1.367 . S
C612 C620 1.378 . S
C613 C612 1.367 . S
C613 C621 1.433 . S
C614 H610 0.929 . S
C614 C616 1.378 . S
C614 C618 1.350 1_655 S
C615 C618 1.463 . S
C615 C620 1.350 . S
C615 N623 1.427 . S
C616 H607 0.930 . S
C616 C614 1.378 . S
C616 C617 1.367 . S
C617 C616 1.367 . S
C617 C619 1.433 . S
C618 C614 1.350 1_455 S
C618 C615 1.463 . S
C618 N622 1.427 . S
C619 H609 0.929 . S
C619 C617 1.433 . S
C619 N622 1.384 1_655 S
C620 H611 0.929 . S
C620 C612 1.378 . S
C620 C615 1.350 . S
C621 H608 0.929 . S
C621 C613 1.433 . S
C621 N623 1.384 . S
N622 C618 1.427 . S
N622 C619 1.384 1_455 S
N623 C615 1.427 . S
N623 C621 1.384 . S
H624 C630 0.930 . S
H625 C634 0.930 . S
H626 C639 0.929 . S
H627 C637 0.929 1_554 S
H628 C632 0.929 . S
H629 C638 0.929 . S
C630 H624 0.930 . S
C630 C631 1.367 . S
C630 C638 1.378 . S
C631 C630 1.367 . S
C631 C639 1.433 . S
C632 H628 0.929 . S
C632 C634 1.378 . S
C632 C636 1.350 . S
C633 C636 1.463 . S
C633 C638 1.350 . S
C633 N641 1.427 . S
C634 H625 0.930 . S
C634 C632 1.378 . S
C634 C635 1.367 . S
C635 C634 1.367 . S
C635 C637 1.433 . S
C636 C632 1.350 . S
C636 C633 1.463 . S
C636 N640 1.427 . S
C637 H627 0.929 1_556 S
C637 C635 1.433 . S
C637 N640 1.384 . S
C638 H629 0.929 . S
C638 C630 1.378 . S
C638 C633 1.350 . S
C639 H626 0.929 . S
C639 C631 1.433 . S
C639 N641 1.384 . S
N640 C636 1.427 . S
N640 C637 1.384 . S
N641 C633 1.427 . S
N641 C639 1.384 . S
H642 C648 0.930 . S
H643 C652 0.930 . S
H644 C657 0.929 . S
H645 C655 0.929 . S
H646 C650 0.929 . S
H647 C656 0.929 . S
C648 H642 0.930 . S
C648 C649 1.367 . S
C648 C656 1.378 . S
C649 C648 1.367 . S
C649 C657 1.433 . S
C650 H646 0.929 . S
C650 C652 1.378 . S
C650 C654 1.350 . S
C651 C654 1.463 . S
C651 C656 1.350 . S
C651 N659 1.427 . S
C652 H643 0.930 . S
C652 C650 1.378 . S
C652 C653 1.367 . S
C653 C652 1.367 . S
C653 C655 1.433 . S
C654 C650 1.350 . S
C654 C651 1.463 . S
C654 N658 1.427 . S
C655 H645 0.929 . S
C655 C653 1.433 . S
C655 N658 1.384 . S
C656 H647 0.929 . S
C656 C648 1.378 . S
C656 C651 1.350 . S
C657 H644 0.929 . S
C657 C649 1.433 . S
C657 N659 1.384 . S
N658 C654 1.427 . S
N658 C655 1.384 . S
N659 C651 1.427 . S
N659 C657 1.384 . S
H660 C666 0.930 . S
H661 C670 0.930 . S
H662 C675 0.929 . S
H663 C673 0.929 . S
H664 C668 0.929 . S
H665 C674 0.929 . S
C666 H660 0.930 . S
C666 C667 1.367 . S
C666 C674 1.378 . S
C667 C666 1.367 . S
C667 C675 1.433 . S
C668 H664 0.929 . S
C668 C670 1.378 . S
C668 C672 1.350 . S
C669 C672 1.463 . S
C669 C674 1.350 . S
C669 N677 1.427 . S
C670 H661 0.930 . S
C670 C668 1.378 . S
C670 C671 1.367 . S
C671 C670 1.367 . S
C671 C673 1.433 . S
C672 C668 1.350 . S
C672 C669 1.463 . S
C672 N676 1.427 . S
C673 H663 0.929 . S
C673 C671 1.433 . S
C673 N676 1.384 . S
C674 H665 0.929 . S
C674 C666 1.378 . S
C674 C669 1.350 . S
C675 H662 0.929 . S
C675 C667 1.433 . S
C675 N677 1.384 . S
N676 C672 1.427 . S
N676 C673 1.384 . S
N677 C669 1.427 . S
N677 C675 1.384 . S
H678 C684 0.930 . S
H679 C688 0.930 . S
H680 C693 0.929 . S
H681 C691 0.929 . S
H682 C686 0.929 . S
H683 C692 0.929 . S
C684 H678 0.930 . S
C684 C685 1.367 . S
C684 C692 1.378 . S
C685 C684 1.367 . S
C685 C693 1.433 . S
C686 H682 0.929 . S
C686 C688 1.378 . S
C686 C690 1.350 . S
C687 C690 1.463 . S
C687 C692 1.350 . S
C687 N695 1.427 . S
C688 H679 0.930 . S
C688 C686 1.378 . S
C688 C689 1.367 . S
C689 C688 1.367 . S
C689 C691 1.433 . S
C690 C686 1.350 . S
C690 C687 1.463 . S
C690 N694 1.427 . S
C691 H681 0.929 . S
C691 C689 1.433 . S
C691 N694 1.384 . S
C692 H683 0.929 . S
C692 C684 1.378 . S
C692 C687 1.350 . S
C693 H680 0.929 . S
C693 C685 1.433 . S
C693 N695 1.384 . S
N694 C690 1.427 . S
N694 C691 1.384 . S
N695 C687 1.427 . S
N695 C693 1.384 . S
H696 C702 0.930 . S
H697 C706 0.930 . S
H698 C711 0.929 . S
H699 C709 0.929 . S
H700 C704 0.929 . S
H701 C710 0.929 . S
C702 H696 0.930 . S
C702 C703 1.367 . S
C702 C710 1.378 . S
C703 C702 1.367 . S
C703 C711 1.433 . S
C704 H700 0.929 . S
C704 C706 1.378 . S
C704 C708 1.350 . S
C705 C708 1.463 . S
C705 C710 1.350 . S
C705 N713 1.427 . S
C706 H697 0.930 . S
C706 C704 1.378 . S
C706 C707 1.367 . S
C707 C706 1.367 . S
C707 C709 1.433 . S
C708 C704 1.350 . S
C708 C705 1.463 . S
C708 N712 1.427 . S
C709 H699 0.929 . S
C709 C707 1.433 . S
C709 N712 1.384 . S
C710 H701 0.929 . S
C710 C702 1.378 . S
C710 C705 1.350 . S
C711 H698 0.929 . S
C711 C703 1.433 . S
C711 N713 1.384 . S
N712 C708 1.427 . S
N712 C709 1.384 . S
N713 C705 1.427 . S
N713 C711 1.384 . S
H714 C720 0.930 . S
H715 C724 0.930 . S
H716 C729 0.929 . S
H717 C727 0.929 . S
H718 C722 0.929 . S
H719 C728 0.929 . S
C720 H714 0.930 . S
C720 C721 1.367 . S
C720 C728 1.378 . S
C721 C720 1.367 . S
C721 C729 1.433 . S
C722 H718 0.929 . S
C722 C724 1.378 . S
C722 C726 1.350 . S
C723 C726 1.463 . S
C723 C728 1.350 . S
C723 N731 1.427 . S
C724 H715 0.930 . S
C724 C722 1.378 . S
C724 C725 1.367 . S
C725 C724 1.367 . S
C725 C727 1.433 . S
C726 C722 1.350 . S
C726 C723 1.463 . S
C726 N730 1.427 . S
C727 H717 0.929 . S
C727 C725 1.433 . S
C727 N730 1.384 . S
C728 H719 0.929 . S
C728 C720 1.378 . S
C728 C723 1.350 . S
C729 H716 0.929 . S
C729 C721 1.433 . S
C729 N731 1.384 . S
N730 C726 1.427 . S
N730 C727 1.384 . S
N731 C723 1.427 . S
N731 C729 1.384 . S
H732 C738 0.930 . S
H733 C742 0.930 . S
H734 C747 0.929 . S
H735 C745 0.929 . S
H736 C740 0.929 . S
H737 C746 0.929 . S
C738 H732 0.930 . S
C738 C739 1.367 . S
C738 C746 1.378 . S
C739 C738 1.367 . S
C739 C747 1.433 . S
C740 H736 0.929 . S
C740 C742 1.378 . S
C740 C744 1.350 . S
C741 C744 1.463 . S
C741 C746 1.350 . S
C741 N749 1.427 . S
C742 H733 0.930 . S
C742 C740 1.378 . S
C742 C743 1.367 . S
C743 C742 1.367 . S
C743 C745 1.433 . S
C744 C740 1.350 . S
C744 C741 1.463 . S
C744 N748 1.427 . S
C745 H735 0.929 . S
C745 C743 1.433 . S
C745 N748 1.384 . S
C746 H737 0.929 . S
C746 C738 1.378 . S
C746 C741 1.350 . S
C747 H734 0.929 . S
C747 C739 1.433 . S
C747 N749 1.384 . S
N748 C744 1.427 . S
N748 C745 1.384 . S
N749 C741 1.427 . S
N749 C747 1.384 . S
H750 C756 0.930 . S
H751 C760 0.930 . S
H752 C765 0.929 . S
H753 C763 0.929 . S
H754 C758 0.929 . S
H755 C764 0.929 . S
C756 H750 0.930 . S
C756 C757 1.367 . S
C756 C764 1.378 . S
C757 C756 1.367 . S
C757 C765 1.433 . S
C758 H754 0.929 . S
C758 C760 1.378 . S
C758 C762 1.350 . S
C759 C762 1.463 . S
C759 C764 1.350 . S
C759 N767 1.427 . S
C760 H751 0.930 . S
C760 C758 1.378 . S
C760 C761 1.367 . S
C761 C760 1.367 . S
C761 C763 1.433 . S
C762 C758 1.350 . S
C762 C759 1.463 . S
C762 N766 1.427 . S
C763 H753 0.929 . S
C763 C761 1.433 . S
C763 N766 1.384 . S
C764 H755 0.929 . S
C764 C756 1.378 . S
C764 C759 1.350 . S
C765 H752 0.929 . S
C765 C757 1.433 . S
C765 N767 1.384 . S
N766 C762 1.427 . S
N766 C763 1.384 . S
N767 C759 1.427 . S
N767 C765 1.384 . S
H768 C774 0.930 . S
H769 C778 0.930 . S
H770 C783 0.929 . S
H771 C781 0.929 . S
H772 C776 0.929 . S
H773 C782 0.929 . S
C774 H768 0.930 . S
C774 C775 1.367 . S
C774 C782 1.378 . S
C775 C774 1.367 . S
C775 C783 1.433 . S
C776 H772 0.929 . S
C776 C778 1.378 . S
C776 C780 1.350 . S
C777 C780 1.463 . S
C777 C782 1.350 . S
C777 N785 1.427 . S
C778 H769 0.930 . S
C778 C776 1.378 . S
C778 C779 1.367 . S
C779 C778 1.367 . S
C779 C781 1.433 . S
C780 C776 1.350 . S
C780 C777 1.463 . S
C780 N784 1.427 . S
C781 H771 0.929 . S
C781 C779 1.433 . S
C781 N784 1.384 . S
C782 H773 0.929 . S
C782 C774 1.378 . S
C782 C777 1.350 . S
C783 H770 0.929 . S
C783 C775 1.433 . S
C783 N785 1.384 . S
N784 C780 1.427 . S
N784 C781 1.384 . S
N785 C777 1.427 . S
N785 C783 1.384 . S
H786 C792 0.930 . S
H787 C796 0.930 . S
H788 C801 0.929 . S
H789 C799 0.929 . S
H790 C794 0.929 . S
H791 C800 0.929 . S
C792 H786 0.930 . S
C792 C793 1.367 . S
C792 C800 1.378 . S
C793 C792 1.367 . S
C793 C801 1.433 . S
C794 H790 0.929 . S
C794 C796 1.378 . S
C794 C798 1.350 . S
C795 C798 1.463 . S
C795 C800 1.350 . S
C795 N803 1.427 . S
C796 H787 0.930 . S
C796 C794 1.378 . S
C796 C797 1.367 . S
C797 C796 1.367 . S
C797 C799 1.433 . S
C798 C794 1.350 . S
C798 C795 1.463 . S
C798 N802 1.427 . S
C799 H789 0.929 . S
C799 C797 1.433 . S
C799 N802 1.384 . S
C800 H791 0.929 . S
C800 C792 1.378 . S
C800 C795 1.350 . S
C801 H788 0.929 . S
C801 C793 1.433 . S
C801 N803 1.384 . S
N802 C798 1.427 . S
N802 C799 1.384 . S
N803 C795 1.427 . S
N803 C801 1.384 . S
H804 C810 0.930 . S
H805 C814 0.930 . S
H806 C819 0.929 . S
H807 C817 0.929 . S
H808 C812 0.929 . S
H809 C818 0.929 . S
C810 H804 0.930 . S
C810 C811 1.367 . S
C810 C818 1.378 . S
C811 C810 1.367 . S
C811 C819 1.433 . S
C812 H808 0.929 . S
C812 C814 1.378 . S
C812 C816 1.350 . S
C813 C816 1.463 . S
C813 C818 1.350 . S
C813 N821 1.427 . S
C814 H805 0.930 . S
C814 C812 1.378 . S
C814 C815 1.367 . S
C815 C814 1.367 . S
C815 C817 1.433 . S
C816 C812 1.350 . S
C816 C813 1.463 . S
C816 N820 1.427 . S
C817 H807 0.929 . S
C817 C815 1.433 . S
C817 N820 1.384 . S
C818 H809 0.929 . S
C818 C810 1.378 . S
C818 C813 1.350 . S
C819 H806 0.929 . S
C819 C811 1.433 . S
C819 N821 1.384 . S
N820 C816 1.427 . S
N820 C817 1.384 . S
N821 C813 1.427 . S
N821 C819 1.384 . S
H822 C828 0.930 . S
H823 C832 0.930 . S
H824 C837 0.929 . S
H825 C835 0.929 . S
H826 C830 0.929 . S
H827 C836 0.929 . S
C828 H822 0.930 . S
C828 C829 1.367 . S
C828 C836 1.378 . S
C829 C828 1.367 . S
C829 C837 1.433 . S
C830 H826 0.929 . S
C830 C832 1.378 . S
C830 C834 1.350 . S
C831 C834 1.463 . S
C831 C836 1.350 . S
C831 N839 1.427 . S
C832 H823 0.930 . S
C832 C830 1.378 . S
C832 C833 1.367 . S
C833 C832 1.367 . S
C833 C835 1.433 . S
C834 C830 1.350 . S
C834 C831 1.463 . S
C834 N838 1.427 . S
C835 H825 0.929 . S
C835 C833 1.433 . S
C835 N838 1.384 . S
C836 H827 0.929 . S
C836 C828 1.378 . S
C836 C831 1.350 . S
C837 H824 0.929 . S
C837 C829 1.433 . S
C837 N839 1.384 . S
N838 C834 1.427 . S
N838 C835 1.384 . S
N839 C831 1.427 . S
N839 C837 1.384 . S
H840 C846 0.930 . S
H841 C850 0.930 . S
H842 C855 0.929 . S
H843 C853 0.929 . S
H844 C848 0.929 . S
H845 C854 0.929 . S
C846 H840 0.930 . S
C846 C847 1.367 . S
C846 C854 1.378 . S
C847 C846 1.367 . S
C847 C855 1.433 . S
C848 H844 0.929 . S
C848 C850 1.378 . S
C848 C852 1.350 . S
C849 C852 1.463 . S
C849 C854 1.350 . S
C849 N857 1.427 . S
C850 H841 0.930 . S
C850 C848 1.378 . S
C850 C851 1.367 . S
C851 C850 1.367 . S
C851 C853 1.433 . S
C852 C848 1.350 . S
C852 C849 1.463 . S
C852 N856 1.427 . S
C853 H843 0.929 . S
C853 C851 1.433 . S
C853 N856 1.384 . S
C854 H845 0.929 . S
C854 C846 1.378 . S
C854 C849 1.350 . S
C855 H842 0.929 . S
C855 C847 1.433 . S
C855 N857 1.384 . S
N856 C852 1.427 . S
N856 C853 1.384 . S
N857 C849 1.427 . S
N857 C855 1.384 . S
H858 C864 0.930 . S
H859 C868 0.930 . S
H860 C873 0.929 . S
H861 C871 0.929 1_565 S
H862 C866 0.929 . S
H863 C872 0.929 . S
C864 H858 0.930 . S
C864 C865 1.367 . S
C864 C872 1.378 . S
C865 C864 1.367 . S
C865 C873 1.433 . S
C866 H862 0.929 . S
C866 C868 1.378 . S
C866 C870 1.350 . S
C867 C870 1.463 . S
C867 C872 1.350 . S
C867 N875 1.427 . S
C868 H859 0.930 . S
C868 C866 1.378 . S
C868 C869 1.367 . S
C869 C868 1.367 . S
C869 C871 1.433 . S
C870 C866 1.350 . S
C870 C867 1.463 . S
C870 N874 1.427 . S
C871 H861 0.929 1_545 S
C871 C869 1.433 . S
C871 N874 1.384 . S
C872 H863 0.929 . S
C872 C864 1.378 . S
C872 C867 1.350 . S
C873 H860 0.929 . S
C873 C865 1.433 . S
C873 N875 1.384 . S
N874 C870 1.427 . S
N874 C871 1.384 . S
N875 C867 1.427 . S
N875 C873 1.384 . S
H876 C882 0.930 . S
H877 C886 0.930 1_556 S
H878 C891 0.929 . S
H879 C889 0.929 . S
H880 C884 0.929 . S
H881 C890 0.929 . S
C882 H876 0.930 . S
C882 C883 1.367 . S
C882 C890 1.378 . S
C883 C882 1.367 . S
C883 C891 1.433 . S
C884 H880 0.929 . S
C884 C886 1.378 . S
C884 C888 1.350 . S
C885 C888 1.463 . S
C885 C890 1.350 . S
C885 N893 1.427 . S
C886 H877 0.930 1_554 S
C886 C884 1.378 . S
C886 C887 1.367 . S
C887 C886 1.367 . S
C887 C889 1.433 . S
C888 C884 1.350 . S
C888 C885 1.463 . S
C888 N892 1.427 . S
C889 H879 0.929 . S
C889 C887 1.433 . S
C889 N892 1.384 . S
C890 H881 0.929 . S
C890 C882 1.378 . S
C890 C885 1.350 . S
C891 H878 0.929 . S
C891 C883 1.433 . S
C891 N893 1.384 . S
N892 C888 1.427 . S
N892 C889 1.384 . S
N893 C885 1.427 . S
N893 C891 1.384 . S
H894 C900 0.930 . S
H895 C904 0.930 . S
H896 C909 0.929 . S
H897 C907 0.929 . S
H898 C902 0.929 . S
H899 C908 0.929 . S
C900 H894 0.930 . S
C900 C901 1.367 . S
C900 C908 1.378 . S
C901 C900 1.367 . S
C901 C909 1.433 . S
C902 H898 0.929 . S
C902 C904 1.378 . S
C902 C906 1.350 . S
C903 C906 1.463 . S
C903 C908 1.350 . S
C903 N911 1.427 . S
C904 H895 0.930 . S
C904 C902 1.378 . S
C904 C905 1.367 . S
C905 C904 1.367 . S
C905 C907 1.433 . S
C906 C902 1.350 . S
C906 C903 1.463 . S
C906 N910 1.427 . S
C907 H897 0.929 . S
C907 C905 1.433 . S
C907 N910 1.384 . S
C908 H899 0.929 . S
C908 C900 1.378 . S
C908 C903 1.350 . S
C909 H896 0.929 . S
C909 C901 1.433 . S
C909 N911 1.384 . S
N910 C906 1.427 . S
N910 C907 1.384 . S
N911 C903 1.427 . S
N911 C909 1.384 . S
H912 C918 0.930 . S
H913 C922 0.930 . S
H914 C927 0.929 . S
H915 C925 0.929 . S
H916 C920 0.929 . S
H917 C926 0.929 . S
C918 H912 0.930 . S
C918 C919 1.367 . S
C918 C926 1.378 . S
C919 C918 1.367 . S
C919 C927 1.433 . S
C920 H916 0.929 . S
C920 C922 1.378 . S
C920 C924 1.350 . S
C921 C924 1.463 . S
C921 C926 1.350 . S
C921 N929 1.427 . S
C922 H913 0.930 . S
C922 C920 1.378 . S
C922 C923 1.367 . S
C923 C922 1.367 . S
C923 C925 1.433 . S
C924 C920 1.350 . S
C924 C921 1.463 . S
C924 N928 1.427 . S
C925 H915 0.929 . S
C925 C923 1.433 . S
C925 N928 1.384 . S
C926 H917 0.929 . S
C926 C918 1.378 . S
C926 C921 1.350 . S
C927 H914 0.929 . S
C927 C919 1.433 . S
C927 N929 1.384 . S
N928 C924 1.427 . S
N928 C925 1.384 . S
N929 C921 1.427 . S
N929 C927 1.384 . S
H930 C936 0.930 . S
H931 C940 0.930 . S
H932 C945 0.929 . S
H933 C943 0.929 . S
H934 C938 0.929 . S
H935 C944 0.929 . S
C936 H930 0.930 . S
C936 C937 1.367 . S
C936 C944 1.378 . S
C937 C936 1.367 . S
C937 C945 1.433 . S
C938 H934 0.929 . S
C938 C940 1.378 . S
C938 C942 1.350 . S
C939 C942 1.463 . S
C939 C944 1.350 . S
C939 N947 1.427 . S
C940 H931 0.930 . S
C940 C938 1.378 . S
C940 C941 1.367 . S
C941 C940 1.367 . S
C941 C943 1.433 . S
C942 C938 1.350 . S
C942 C939 1.463 . S
C942 N946 1.427 . S
C943 H933 0.929 . S
C943 C941 1.433 . S
C943 N946 1.384 . S
C944 H935 0.929 . S
C944 C936 1.378 . S
C944 C939 1.350 . S
C945 H932 0.929 . S
C945 C937 1.433 . S
C945 N947 1.384 . S
N946 C942 1.427 . S
N946 C943 1.384 . S
N947 C939 1.427 . S
N947 C945 1.384 . S
H948 C954 0.930 . S
H949 C958 0.930 . S
H950 C963 0.929 . S
H951 C961 0.929 . S
H952 C956 0.929 . S
H953 C962 0.929 . S
C954 H948 0.930 . S
C954 C955 1.367 . S
C954 C962 1.378 1_655 S
C955 C954 1.367 . S
C955 C963 1.433 1_655 S
C956 H952 0.929 . S
C956 C958 1.378 . S
C956 C960 1.350 . S
C957 C960 1.463 . S
C957 C962 1.350 . S
C957 N965 1.427 . S
C958 H949 0.930 . S
C958 C956 1.378 . S
C958 C959 1.367 . S
C959 C958 1.367 . S
C959 C961 1.433 . S
C960 C956 1.350 . S
C960 C957 1.463 . S
C960 N964 1.427 . S
C961 H951 0.929 . S
C961 C959 1.433 . S
C961 N964 1.384 . S
C962 H953 0.929 . S
C962 C954 1.378 1_455 S
C962 C957 1.350 . S
C963 H950 0.929 . S
C963 C955 1.433 1_455 S
C963 N965 1.384 . S
N964 C960 1.427 . S
N964 C961 1.384 . S
N965 C957 1.427 . S
N965 C963 1.384 . S
H966 C972 0.930 . S
H967 C976 0.930 . S
H968 C981 0.929 . S
H969 C979 0.929 . S
H970 C974 0.929 . S
H971 C980 0.929 . S
C972 H966 0.930 . S
C972 C973 1.367 . S
C972 C980 1.378 . S
C973 C972 1.367 . S
C973 C981 1.433 . S
C974 H970 0.929 . S
C974 C976 1.378 . S
C974 C978 1.350 . S
C975 C978 1.463 . S
C975 C980 1.350 . S
C975 N983 1.427 . S
C976 H967 0.930 . S
C976 C974 1.378 . S
C976 C977 1.367 . S
C977 C976 1.367 . S
C977 C979 1.433 . S
C978 C974 1.350 . S
C978 C975 1.463 . S
C978 N982 1.427 . S
C979 H969 0.929 . S
C979 C977 1.433 . S
C979 N982 1.384 . S
C980 H971 0.929 . S
C980 C972 1.378 . S
C980 C975 1.350 . S
C981 H968 0.929 . S
C981 C973 1.433 . S
C981 N983 1.384 . S
N982 C978 1.427 . S
N982 C979 1.384 . S
N983 C975 1.427 . S
N983 C981 1.384 . S
H984 C990 0.930 . S
H985 C994 0.930 . S
H986 C999 0.929 . S
H987 C997 0.929 . S
H988 C992 0.929 . S
H989 C998 0.929 . S
C990 H984 0.930 . S
C990 C991 1.367 . S
C990 C998 1.378 . S
C991 C990 1.367 . S
C991 C999 1.433 . S
C992 H988 0.929 . S
C992 C994 1.378 . S
C992 C996 1.350 . S
C993 C996 1.463 . S
C993 C998 1.350 . S
C993 N1001 1.427 . S
C994 H985 0.930 . S
C994 C992 1.378 . S
C994 C995 1.367 . S
C995 C994 1.367 . S
C995 C997 1.433 . S
C996 C992 1.350 . S
C996 C993 1.463 . S
C996 N1000 1.427 . S
C997 H987 0.929 . S
C997 C995 1.433 . S
C997 N1000 1.384 . S
C998 H989 0.929 . S
C998 C990 1.378 . S
C998 C993 1.350 . S
C999 H986 0.929 . S
C999 C991 1.433 . S
C999 N1001 1.384 . S
N1000 C996 1.427 . S
N1000 C997 1.384 . S
N1001 C993 1.427 . S
N1001 C999 1.384 . S
H1002 C1008 0.930 . S
H1003 C1012 0.930 . S
H1004 C1017 0.929 . S
H1005 C1015 0.929 . S
H1006 C1010 0.929 . S
H1007 C1016 0.929 . S
C1008 H1002 0.930 . S
C1008 C1009 1.367 . S
C1008 C1016 1.378 . S
C1009 C1008 1.367 . S
C1009 C1017 1.433 . S
C1010 H1006 0.929 . S
C1010 C1012 1.378 . S
C1010 C1014 1.350 . S
C1011 C1014 1.463 . S
C1011 C1016 1.350 . S
C1011 N1019 1.427 . S
C1012 H1003 0.930 . S
C1012 C1010 1.378 . S
C1012 C1013 1.367 . S
C1013 C1012 1.367 . S
C1013 C1015 1.433 . S
C1014 C1010 1.350 . S
C1014 C1011 1.463 . S
C1014 N1018 1.427 . S
C1015 H1005 0.929 . S
C1015 C1013 1.433 . S
C1015 N1018 1.384 . S
C1016 H1007 0.929 . S
C1016 C1008 1.378 . S
C1016 C1011 1.350 . S
C1017 H1004 0.929 . S
C1017 C1009 1.433 . S
C1017 N1019 1.384 . S
N1018 C1014 1.427 . S
N1018 C1015 1.384 . S
N1019 C1011 1.427 . S
N1019 C1017 1.384 . S
H1020 C1026 0.930 . S
H1021 C1030 0.930 . S
H1022 C1035 0.928 1_455 S
H1023 C1033 0.929 . S
H1024 C1028 0.929 . S
H1025 C1034 0.929 . S
C1026 H1020 0.930 . S
C1026 C1027 1.367 . S
C1026 C1034 1.378 1_455 S
C1027 C1026 1.367 . S
C1027 C1035 1.433 1_455 S
C1028 H1024 0.929 . S
C1028 C1030 1.378 . S
C1028 C1032 1.350 . S
C1029 C1032 1.463 . S
C1029 C1034 1.350 . S
C1029 N1037 1.427 . S
C1030 H1021 0.930 . S
C1030 C1028 1.378 . S
C1030 C1031 1.367 . S
C1031 C1030 1.367 . S
C1031 C1033 1.433 . S
C1032 C1028 1.350 . S
C1032 C1029 1.463 . S
C1032 N1036 1.427 . S
C1033 H1023 0.929 . S
C1033 C1031 1.433 . S
C1033 N1036 1.384 . S
C1034 H1025 0.929 . S
C1034 C1026 1.378 1_655 S
C1034 C1029 1.350 . S
C1035 H1022 0.928 1_655 S
C1035 C1027 1.433 1_655 S
C1035 N1037 1.384 . S
N1036 C1032 1.427 . S
N1036 C1033 1.384 . S
N1037 C1029 1.427 . S
N1037 C1035 1.384 . S
H1038 C1044 0.930 . S
H1039 C1048 0.930 . S
H1040 C1053 0.929 . S
H1041 C1051 0.929 . S
H1042 C1046 0.929 . S
H1043 C1052 0.929 . S
C1044 H1038 0.930 . S
C1044 C1045 1.367 . S
C1044 C1052 1.378 . S
C1045 C1044 1.367 . S
C1045 C1053 1.433 . S
C1046 H1042 0.929 . S
C1046 C1048 1.378 . S
C1046 C1050 1.350 . S
C1047 C1050 1.463 . S
C1047 C1052 1.350 . S
C1047 N1055 1.427 . S
C1048 H1039 0.930 . S
C1048 C1046 1.378 . S
C1048 C1049 1.367 . S
C1049 C1048 1.367 . S
C1049 C1051 1.433 . S
C1050 C1046 1.350 . S
C1050 C1047 1.463 . S
C1050 N1054 1.427 . S
C1051 H1041 0.929 . S
C1051 C1049 1.433 . S
C1051 N1054 1.384 . S
C1052 H1043 0.929 . S
C1052 C1044 1.378 . S
C1052 C1047 1.350 . S
C1053 H1040 0.929 . S
C1053 C1045 1.433 . S
C1053 N1055 1.384 . S
N1054 C1050 1.427 . S
N1054 C1051 1.384 . S
N1055 C1047 1.427 . S
N1055 C1053 1.384 . S
H1056 C1062 0.930 . S
H1057 C1066 0.930 . S
H1058 C1071 0.929 . S
H1059 C1069 0.929 . S
H1060 C1064 0.929 . S
H1061 C1070 0.929 . S
C1062 H1056 0.930 . S
C1062 C1063 1.367 . S
C1062 C1070 1.378 . S
C1063 C1062 1.367 . S
C1063 C1071 1.433 . S
C1064 H1060 0.929 . S
C1064 C1066 1.378 . S
C1064 C1068 1.350 . S
C1065 C1068 1.463 . S
C1065 C1070 1.350 . S
C1065 N1073 1.427 . S
C1066 H1057 0.930 . S
C1066 C1064 1.378 . S
C1066 C1067 1.367 1_655 S
C1067 C1066 1.367 1_455 S
C1067 C1069 1.433 . S
C1068 C1064 1.350 . S
C1068 C1065 1.463 . S
C1068 N1072 1.427 . S
C1069 H1059 0.929 . S
C1069 C1067 1.433 . S
C1069 N1072 1.384 1_455 S
C1070 H1061 0.929 . S
C1070 C1062 1.378 . S
C1070 C1065 1.350 . S
C1071 H1058 0.929 . S
C1071 C1063 1.433 . S
C1071 N1073 1.384 . S
N1072 C1068 1.427 . S
N1072 C1069 1.384 1_655 S
N1073 C1065 1.427 . S
N1073 C1071 1.384 . S
H1074 C1080 0.930 . S
H1075 C1084 0.930 . S
H1076 C1089 0.929 . S
H1077 C1087 0.929 . S
H1078 C1082 0.929 . S
H1079 C1088 0.929 . S
C1080 H1074 0.930 . S
C1080 C1081 1.367 . S
C1080 C1088 1.378 . S
C1081 C1080 1.367 . S
C1081 C1089 1.433 . S
C1082 H1078 0.929 . S
C1082 C1084 1.378 . S
C1082 C1086 1.350 . S
C1083 C1086 1.463 . S
C1083 C1088 1.350 . S
C1083 N1091 1.427 . S
C1084 H1075 0.930 . S
C1084 C1082 1.378 . S
C1084 C1085 1.367 . S
C1085 C1084 1.367 . S
C1085 C1087 1.433 . S
C1086 C1082 1.350 . S
C1086 C1083 1.463 . S
C1086 N1090 1.427 . S
C1087 H1077 0.929 . S
C1087 C1085 1.433 . S
C1087 N1090 1.384 . S
C1088 H1079 0.929 . S
C1088 C1080 1.378 . S
C1088 C1083 1.350 . S
C1089 H1076 0.929 . S
C1089 C1081 1.433 . S
C1089 N1091 1.384 . S
N1090 C1086 1.427 . S
N1090 C1087 1.384 . S
N1091 C1083 1.427 . S
N1091 C1089 1.384 . S
H1092 C1098 0.930 . S
H1093 C1102 0.930 . S
H1094 C1107 0.929 . S
H1095 C1105 0.929 . S
H1096 C1100 0.929 . S
H1097 C1106 0.929 . S
C1098 H1092 0.930 . S
C1098 C1099 1.367 . S
C1098 C1106 1.378 . S
C1099 C1098 1.367 . S
C1099 C1107 1.433 . S
C1100 H1096 0.929 . S
C1100 C1102 1.378 . S
C1100 C1104 1.350 . S
C1101 C1104 1.463 . S
C1101 C1106 1.350 . S
C1101 N1109 1.427 . S
C1102 H1093 0.930 . S
C1102 C1100 1.378 . S
C1102 C1103 1.367 . S
C1103 C1102 1.367 . S
C1103 C1105 1.433 . S
C1104 C1100 1.350 . S
C1104 C1101 1.463 . S
C1104 N1108 1.427 . S
C1105 H1095 0.929 . S
C1105 C1103 1.433 . S
C1105 N1108 1.384 . S
C1106 H1097 0.929 . S
C1106 C1098 1.378 . S
C1106 C1101 1.350 . S
C1107 H1094 0.929 . S
C1107 C1099 1.433 . S
C1107 N1109 1.384 . S
N1108 C1104 1.427 . S
N1108 C1105 1.384 . S
N1109 C1101 1.427 . S
N1109 C1107 1.384 . S
H1110 C1116 0.930 . S
H1111 C1120 0.930 . S
H1112 C1125 0.929 . S
H1113 C1123 0.929 . S
H1114 C1118 0.929 . S
H1115 C1124 0.929 . S
C1116 H1110 0.930 . S
C1116 C1117 1.367 . S
C1116 C1124 1.378 . S
C1117 C1116 1.367 . S
C1117 C1125 1.433 . S
C1118 H1114 0.929 . S
C1118 C1120 1.378 . S
C1118 C1122 1.350 . S
C1119 C1122 1.463 . S
C1119 C1124 1.350 . S
C1119 N1127 1.427 . S
C1120 H1111 0.930 . S
C1120 C1118 1.378 . S
C1120 C1121 1.367 . S
C1121 C1120 1.367 . S
C1121 C1123 1.433 . S
C1122 C1118 1.350 . S
C1122 C1119 1.463 . S
C1122 N1126 1.427 . S
C1123 H1113 0.929 . S
C1123 C1121 1.433 . S
C1123 N1126 1.384 . S
C1124 H1115 0.929 . S
C1124 C1116 1.378 . S
C1124 C1119 1.350 . S
C1125 H1112 0.929 . S
C1125 C1117 1.433 . S
C1125 N1127 1.384 . S
N1126 C1122 1.427 . S
N1126 C1123 1.384 . S
N1127 C1119 1.427 . S
N1127 C1125 1.384 . S
H1128 C1134 0.930 . S
H1129 C1138 0.931 1_655 S
H1130 C1143 0.929 . S
H1131 C1141 0.929 . S
H1132 C1136 0.929 . S
H1133 C1142 0.929 . S
C1134 H1128 0.930 . S
C1134 C1135 1.367 . S
C1134 C1142 1.378 . S
C1135 C1134 1.367 . S
C1135 C1143 1.433 . S
C1136 H1132 0.929 . S
C1136 C1138 1.378 . S
C1136 C1140 1.350 . S
C1137 C1140 1.463 . S
C1137 C1142 1.350 . S
C1137 N1145 1.427 . S
C1138 H1129 0.931 1_455 S
C1138 C1136 1.378 . S
C1138 C1139 1.367 1_455 S
C1139 C1138 1.367 1_655 S
C1139 C1141 1.433 . S
C1140 C1136 1.350 . S
C1140 C1137 1.463 . S
C1140 N1144 1.427 . S
C1141 H1131 0.929 . S
C1141 C1139 1.433 . S
C1141 N1144 1.384 1_655 S
C1142 H1133 0.929 . S
C1142 C1134 1.378 . S
C1142 C1137 1.350 . S
C1143 H1130 0.929 . S
C1143 C1135 1.433 . S
C1143 N1145 1.384 . S
N1144 C1140 1.427 . S
N1144 C1141 1.384 1_455 S
N1145 C1137 1.427 . S
N1145 C1143 1.384 . S
H1146 C1152 0.930 . S
H1147 C1156 0.930 . S
H1148 C1161 0.929 . S
H1149 C1159 0.929 . S
H1150 C1154 0.929 . S
H1151 C1160 0.929 . S
C1152 H1146 0.930 . S
C1152 C1153 1.367 . S
C1152 C1160 1.378 . S
C1153 C1152 1.367 . S
C1153 C1161 1.433 . S
C1154 H1150 0.929 . S
C1154 C1156 1.378 . S
C1154 C1158 1.350 . S
C1155 C1158 1.463 . S
C1155 C1160 1.350 . S
C1155 N1163 1.427 . S
C1156 H1147 0.930 . S
C1156 C1154 1.378 . S
C1156 C1157 1.367 . S
C1157 C1156 1.367 . S
C1157 C1159 1.433 . S
C1158 C1154 1.350 . S
C1158 C1155 1.463 . S
C1158 N1162 1.427 . S
C1159 H1149 0.929 . S
C1159 C1157 1.433 . S
C1159 N1162 1.384 . S
C1160 H1151 0.929 . S
C1160 C1152 1.378 . S
C1160 C1155 1.350 . S
C1161 H1148 0.929 . S
C1161 C1153 1.433 . S
C1161 N1163 1.384 . S
N1162 C1158 1.427 . S
N1162 C1159 1.384 . S
N1163 C1155 1.427 . S
N1163 C1161 1.384 . S
H1164 C1170 0.930 . S
H1165 C1174 0.930 . S
H1166 C1179 0.929 . S
H1167 C1177 0.929 . S
H1168 C1172 0.929 . S
H1169 C1178 0.929 . S
C1170 H1164 0.930 . S
C1170 C1171 1.367 . S
C1170 C1178 1.378 . S
C1171 C1170 1.367 . S
C1171 C1179 1.433 . S
C1172 H1168 0.929 . S
C1172 C1174 1.378 . S
C1172 C1176 1.350 . S
C1173 C1176 1.463 . S
C1173 C1178 1.350 . S
C1173 N1181 1.427 . S
C1174 H1165 0.930 . S
C1174 C1172 1.378 . S
C1174 C1175 1.367 . S
C1175 C1174 1.367 . S
C1175 C1177 1.433 . S
C1176 C1172 1.350 . S
C1176 C1173 1.463 . S
C1176 N1180 1.427 . S
C1177 H1167 0.929 . S
C1177 C1175 1.433 . S
C1177 N1180 1.384 . S
C1178 H1169 0.929 . S
C1178 C1170 1.378 . S
C1178 C1173 1.350 . S
C1179 H1166 0.929 . S
C1179 C1171 1.433 . S
C1179 N1181 1.384 . S
N1180 C1176 1.427 . S
N1180 C1177 1.384 . S
N1181 C1173 1.427 . S
N1181 C1179 1.384 . S
H1182 C1188 0.930 . S
H1183 C1192 0.930 . S
H1184 C1197 0.929 . S
H1185 C1195 0.929 . S
H1186 C1190 0.929 . S
H1187 C1196 0.929 . S
C1188 H1182 0.930 . S
C1188 C1189 1.367 . S
C1188 C1196 1.378 . S
C1189 C1188 1.367 . S
C1189 C1197 1.433 . S
C1190 H1186 0.929 . S
C1190 C1192 1.378 . S
C1190 C1194 1.350 . S
C1191 C1194 1.463 . S
C1191 C1196 1.350 . S
C1191 N1199 1.427 . S
C1192 H1183 0.930 . S
C1192 C1190 1.378 . S
C1192 C1193 1.367 . S
C1193 C1192 1.367 . S
C1193 C1195 1.433 . S
C1194 C1190 1.350 . S
C1194 C1191 1.463 . S
C1194 N1198 1.427 . S
C1195 H1185 0.929 . S
C1195 C1193 1.433 . S
C1195 N1198 1.384 . S
C1196 H1187 0.929 . S
C1196 C1188 1.378 . S
C1196 C1191 1.350 . S
C1197 H1184 0.929 . S
C1197 C1189 1.433 . S
C1197 N1199 1.384 . S
N1198 C1194 1.427 . S
N1198 C1195 1.384 . S
N1199 C1191 1.427 . S
N1199 C1197 1.384 . S
H1200 C1206 0.930 . S
H1201 C1210 0.930 . S
H1202 C1215 0.929 . S
H1203 C1213 0.929 . S
H1204 C1208 0.929 . S
H1205 C1214 0.929 . S
C1206 H1200 0.930 . S
C1206 C1207 1.367 . S
C1206 C1214 1.378 . S
C1207 C1206 1.367 . S
C1207 C1215 1.433 . S
C1208 H1204 0.929 . S
C1208 C1210 1.378 . S
C1208 C1212 1.350 . S
C1209 C1212 1.463 . S
C1209 C1214 1.350 . S
C1209 N1217 1.427 . S
C1210 H1201 0.930 . S
C1210 C1208 1.378 . S
C1210 C1211 1.367 . S
C1211 C1210 1.367 . S
C1211 C1213 1.433 . S
C1212 C1208 1.350 . S
C1212 C1209 1.463 . S
C1212 N1216 1.427 . S
C1213 H1203 0.929 . S
C1213 C1211 1.433 . S
C1213 N1216 1.384 . S
C1214 H1205 0.929 . S
C1214 C1206 1.378 . S
C1214 C1209 1.350 . S
C1215 H1202 0.929 . S
C1215 C1207 1.433 . S
C1215 N1217 1.384 . S
N1216 C1212 1.427 . S
N1216 C1213 1.384 . S
N1217 C1209 1.427 . S
N1217 C1215 1.384 . S
H1218 C1224 0.930 . S
H1219 C1228 0.930 . S
H1220 C1233 0.929 . S
H1221 C1231 0.929 . S
H1222 C1226 0.929 . S
H1223 C1232 0.929 . S
C1224 H1218 0.930 . S
C1224 C1225 1.367 . S
C1224 C1232 1.378 . S
C1225 C1224 1.367 . S
C1225 C1233 1.433 . S
C1226 H1222 0.929 . S
C1226 C1228 1.378 . S
C1226 C1230 1.350 . S
C1227 C1230 1.463 . S
C1227 C1232 1.350 . S
C1227 N1235 1.427 . S
C1228 H1219 0.930 . S
C1228 C1226 1.378 . S
C1228 C1229 1.367 . S
C1229 C1228 1.367 . S
C1229 C1231 1.433 . S
C1230 C1226 1.350 . S
C1230 C1227 1.463 . S
C1230 N1234 1.427 . S
C1231 H1221 0.929 . S
C1231 C1229 1.433 . S
C1231 N1234 1.384 . S
C1232 H1223 0.929 . S
C1232 C1224 1.378 . S
C1232 C1227 1.350 . S
C1233 H1220 0.929 . S
C1233 C1225 1.433 . S
C1233 N1235 1.384 . S
N1234 C1230 1.427 . S
N1234 C1231 1.384 . S
N1235 C1227 1.427 . S
N1235 C1233 1.384 . S
H1236 C1242 0.930 . S
H1237 C1246 0.930 . S
H1238 C1251 0.929 . S
H1239 C1249 0.929 . S
H1240 C1244 0.929 . S
H1241 C1250 0.929 . S
C1242 H1236 0.930 . S
C1242 C1243 1.367 . S
C1242 C1250 1.378 . S
C1243 C1242 1.367 . S
C1243 C1251 1.433 . S
C1244 H1240 0.929 . S
C1244 C1246 1.378 . S
C1244 C1248 1.350 . S
C1245 C1248 1.463 . S
C1245 C1250 1.350 . S
C1245 N1253 1.427 . S
C1246 H1237 0.930 . S
C1246 C1244 1.378 . S
C1246 C1247 1.367 . S
C1247 C1246 1.367 . S
C1247 C1249 1.433 . S
C1248 C1244 1.350 . S
C1248 C1245 1.463 . S
C1248 N1252 1.427 . S
C1249 H1239 0.929 . S
C1249 C1247 1.433 . S
C1249 N1252 1.384 . S
C1250 H1241 0.929 . S
C1250 C1242 1.378 . S
C1250 C1245 1.350 . S
C1251 H1238 0.929 . S
C1251 C1243 1.433 . S
C1251 N1253 1.384 . S
N1252 C1248 1.427 . S
N1252 C1249 1.384 . S
N1253 C1245 1.427 . S
N1253 C1251 1.384 . S
H1254 C1260 0.930 . S
H1255 C1264 0.930 . S
H1256 C1269 0.929 . S
H1257 C1267 0.929 . S
H1258 C1262 0.929 . S
H1259 C1268 0.929 . S
C1260 H1254 0.930 . S
C1260 C1261 1.367 . S
C1260 C1268 1.378 . S
C1261 C1260 1.367 . S
C1261 C1269 1.433 . S
C1262 H1258 0.929 . S
C1262 C1264 1.378 . S
C1262 C1266 1.350 . S
C1263 C1266 1.463 1_454 S
C1263 C1268 1.350 . S
C1263 N1271 1.427 . S
C1264 H1255 0.930 . S
C1264 C1262 1.378 . S
C1264 C1265 1.367 . S
C1265 C1264 1.367 . S
C1265 C1267 1.433 . S
C1266 C1262 1.350 . S
C1266 C1263 1.463 1_656 S
C1266 N1270 1.427 . S
C1267 H1257 0.929 . S
C1267 C1265 1.433 . S
C1267 N1270 1.384 . S
C1268 H1259 0.929 . S
C1268 C1260 1.378 . S
C1268 C1263 1.350 . S
C1269 H1256 0.929 . S
C1269 C1261 1.433 . S
C1269 N1271 1.384 . S
N1270 C1266 1.427 . S
N1270 C1267 1.384 . S
N1271 C1263 1.427 . S
N1271 C1269 1.384 . S
H1272 C1278 0.930 . S
H1273 C1282 0.930 . S
H1274 C1287 0.929 . S
H1275 C1285 0.929 . S
H1276 C1280 0.929 . S
H1277 C1286 0.929 . S
C1278 H1272 0.930 . S
C1278 C1279 1.367 . S
C1278 C1286 1.378 . S
C1279 C1278 1.367 . S
C1279 C1287 1.433 . S
C1280 H1276 0.929 . S
C1280 C1282 1.378 . S
C1280 C1284 1.350 . S
C1281 C1284 1.463 . S
C1281 C1286 1.350 . S
C1281 N1289 1.427 . S
C1282 H1273 0.930 . S
C1282 C1280 1.378 . S
C1282 C1283 1.367 . S
C1283 C1282 1.367 . S
C1283 C1285 1.433 . S
C1284 C1280 1.350 . S
C1284 C1281 1.463 . S
C1284 N1288 1.427 . S
C1285 H1275 0.929 . S
C1285 C1283 1.433 . S
C1285 N1288 1.384 . S
C1286 H1277 0.929 . S
C1286 C1278 1.378 . S
C1286 C1281 1.350 . S
C1287 H1274 0.929 . S
C1287 C1279 1.433 . S
C1287 N1289 1.384 . S
N1288 C1284 1.427 . S
N1288 C1285 1.384 . S
N1289 C1281 1.427 . S
N1289 C1287 1.384 . S
H1290 C1296 0.930 . S
H1291 C1300 0.930 . S
H1292 C1305 0.929 . S
H1293 C1303 0.929 . S
H1294 C1298 0.929 . S
H1295 C1304 0.929 . S
C1296 H1290 0.930 . S
C1296 C1297 1.367 . S
C1296 C1304 1.378 . S
C1297 C1296 1.367 . S
C1297 C1305 1.433 . S
C1298 H1294 0.929 . S
C1298 C1300 1.378 . S
C1298 C1302 1.350 . S
C1299 C1302 1.463 . S
C1299 C1304 1.350 . S
C1299 N1307 1.427 . S
C1300 H1291 0.930 . S
C1300 C1298 1.378 . S
C1300 C1301 1.367 . S
C1301 C1300 1.367 . S
C1301 C1303 1.433 . S
C1302 C1298 1.350 . S
C1302 C1299 1.463 . S
C1302 N1306 1.427 . S
C1303 H1293 0.929 . S
C1303 C1301 1.433 . S
C1303 N1306 1.384 . S
C1304 H1295 0.929 . S
C1304 C1296 1.378 . S
C1304 C1299 1.350 . S
C1305 H1292 0.929 . S
C1305 C1297 1.433 . S
C1305 N1307 1.384 . S
N1306 C1302 1.427 . S
N1306 C1303 1.384 . S
N1307 C1299 1.427 . S
N1307 C1305 1.384 . S
H1308 C1314 0.930 . S
H1309 C1318 0.930 . S
H1310 C1323 0.929 . S
H1311 C1321 0.929 . S
H1312 C1316 0.929 1_545 S
H1313 C1322 0.929 1_565 S
C1314 H1308 0.930 . S
C1314 C1315 1.367 . S
C1314 C1322 1.378 . S
C1315 C1314 1.367 . S
C1315 C1323 1.433 . S
C1316 H1312 0.929 1_565 S
C1316 C1318 1.378 . S
C1316 C1320 1.350 . S
C1317 C1320 1.463 1_446 S
C1317 C1322 1.350 . S
C1317 N1325 1.427 . S
C1318 H1309 0.930 . S
C1318 C1316 1.378 . S
C1318 C1319 1.367 . S
C1319 C1318 1.367 . S
C1319 C1321 1.433 . S
C1320 C1316 1.350 . S
C1320 C1317 1.463 1_664 S
C1320 N1324 1.427 . S
C1321 H1311 0.929 . S
C1321 C1319 1.433 . S
C1321 N1324 1.384 . S
C1322 H1313 0.929 1_545 S
C1322 C1314 1.378 . S
C1322 C1317 1.350 . S
C1323 H1310 0.929 . S
C1323 C1315 1.433 . S
C1323 N1325 1.384 . S
N1324 C1320 1.427 . S
N1324 C1321 1.384 . S
N1325 C1317 1.427 . S
N1325 C1323 1.384 . S
H1326 C1332 0.930 . S
H1327 C1336 0.930 . S
H1328 C1341 0.929 . S
H1329 C1339 0.929 . S
H1330 C1334 0.929 . S
H1331 C1340 0.929 . S
C1332 H1326 0.930 . S
C1332 C1333 1.367 . S
C1332 C1340 1.378 1_545 S
C1333 C1332 1.367 . S
C1333 C1341 1.433 . S
C1334 H1330 0.929 . S
C1334 C1336 1.378 1_545 S
C1334 C1338 1.350 1_545 S
C1335 C1338 1.463 1_545 S
C1335 C1340 1.350 1_545 S
C1335 N1343 1.427 . S
C1336 H1327 0.930 . S
C1336 C1334 1.378 1_565 S
C1336 C1337 1.367 . S
C1337 C1336 1.367 . S
C1337 C1339 1.433 . S
C1338 C1334 1.350 1_565 S
C1338 C1335 1.463 1_565 S
C1338 N1342 1.427 . S
C1339 H1329 0.929 . S
C1339 C1337 1.433 . S
C1339 N1342 1.384 . S
C1340 H1331 0.929 . S
C1340 C1332 1.378 1_565 S
C1340 C1335 1.350 1_565 S
C1341 H1328 0.929 . S
C1341 C1333 1.433 . S
C1341 N1343 1.384 . S
N1342 C1338 1.427 . S
N1342 C1339 1.384 . S
N1343 C1335 1.427 . S
N1343 C1341 1.384 . S
C487 N14 0.830 . S
C491 C316 0.823 . S
C505 N44 0.710 . S
C509 N344 0.709 . S
C523 C76 0.837 . S
C527 N254 0.844 . S
C541 N104 0.719 . S
C545 N284 0.718 . S
C559 N126 0.829 . S
C563 C447 0.825 . S
C577 N156 0.713 . S
C581 N456 0.713 . S
C595 C207 0.837 . S
C599 N366 0.844 . S
C613 N216 0.723 . S
C617 N396 0.721 . S
C631 C280 1.173 . S
C635 N6 1.125 . S
C649 C301 1.104 . S
C653 N36 1.048 . S
C667 C340 1.110 . S
C671 C87 1.158 . S
C685 C250 1.588 . S
C689 N96 1.538 . S
C703 N134 1.116 . S
C707 C391 1.174 . S
C721 C430 1.110 . S
C725 N164 1.049 . S
C739 C451 1.124 . S
C743 C196 1.160 . S
C757 C361 1.588 . S
C761 N224 1.537 . S
C775 C40 1.180 . S
C779 N246 1.122 . S
C793 N276 1.070 1_565 S
C797 C61 1.136 . S
C811 C327 1.181 . S
C815 C100 1.141 . S
C829 N336 1.538 1_545 S
C833 C10 1.572 . S
C847 N374 1.123 . S
C851 C151 1.180 . S
C865 C190 1.140 . S
C869 N404 1.090 1_545 S
C883 C211 1.132 . S
C887 C436 1.181 . S
C901 N464 1.528 1_565 S
C905 C121 1.577 . S
C919 C27 1.634 . S
C923 C460 1.580 . S
C937 C57 1.718 . S
C941 C130 1.710 . S
C955 C400 0.987 . S
C959 N66 0.991 . S
C973 C181 1.730 . S
C977 C117 1.763 . S
C991 C136 1.637 . S
C995 C331 1.579 . S
C1009 C166 1.716 . S
C1013 C1 1.710 . S
C1027 C271 0.969 . S
C1031 N194 0.974 . S
C1045 C70 1.730 . S
C1049 C226 1.760 . S
C1063 C267 1.635 . S
C1067 C220 1.586 . S
C1081 C297 1.717 . S
C1085 C370 1.700 . S
C1099 C160 0.989 . S
C1103 N306 0.990 . S
C1117 C421 1.739 . S
C1121 C357 1.780 . S
C1135 C376 1.635 . S
C1139 C91 1.579 . S
C1153 C406 1.713 . S
C1157 C241 1.704 . S
C1171 N434 1.004 . S
C1175 C31 1.002 . S
C1189 C310 1.746 . S
C1193 C466 1.780 . S
C1207 C16 2.246 . S
C1211 C387 2.246 . S
C1225 C46 1.568 . S
C1229 C177 1.568 . S
C1243 N74 1.417 . S
C1247 N426 1.414 . S
C1261 C237 2.361 . S
C1265 C106 2.361 . S
C1279 C147 2.247 . S
C1283 C256 2.247 . S
C1297 N314 1.419 . S
C1301 N186 1.417 . S
C1315 C286 1.564 . S
C1319 C417 1.564 . S
C1333 C477 2.382 . S
C1337 C346 2.382 . S
