# Generated by pormake.
# Topology bsn, (6)-cn, num edge types: 1
# Building blocks:
#     Node 0, Type 0, BuildingBlock: MIFKUJ_clean_sbu_0, # of connection points: 6
#     Node 1, Type 0, BuildingBlock: MIFKUJ_clean_sbu_0, # of connection points: 6
#     Node 2, Type 0, BuildingBlock: MIFKUJ_clean_sbu_0, # of connection points: 6
#     Node 3, Type 0, BuildingBlock: MIFKUJ_clean_sbu_0, # of connection points: 6
#     Edge 4, Type (0, 0), BuildingBlock: FUNLAD_clean_linker_1, # of connection points: 2
#     Edge 5, Type (0, 0), BuildingBlock: FUNLAD_clean_linker_1, # of connection points: 2
#     Edge 6, Type (0, 0), BuildingBlock: FUNLAD_clean_linker_1, # of connection points: 2
#     Edge 7, Type (0, 0), BuildingBlock: FUNLAD_clean_linker_1, # of connection points: 2
#     Edge 8, Type (0, 0), BuildingBlock: FUNLAD_clean_linker_1, # of connection points: 2
#     Edge 9, Type (0, 0), BuildingBlock: FUNLAD_clean_linker_1, # of connection points: 2
#     Edge 10, Type (0, 0), BuildingBlock: FUNLAD_clean_linker_1, # of connection points: 2
#     Edge 11, Type (0, 0), BuildingBlock: FUNLAD_clean_linker_1, # of connection points: 2
#     Edge 12, Type (0, 0), BuildingBlock: FUNLAD_clean_linker_1, # of connection points: 2
#     Edge 13, Type (0, 0), BuildingBlock: FUNLAD_clean_linker_1, # of connection points: 2
#     Edge 14, Type (0, 0), BuildingBlock: FUNLAD_clean_linker_1, # of connection points: 2
#     Edge 15, Type (0, 0), BuildingBlock: FUNLAD_clean_linker_1, # of connection points: 2
# Relax obj value: 0.299
# Max RMSD: 0.237
# Mean RMSD: 0.235
data_MOF--net-bsn--node1-MIFKUJ_clean_sbu_0--edge1-FUNLAD_clean_linker_1
_symmetry_space_group_name_H-M    P1
_symmetry_Int_Tables_number       1
_symmetry_cell_setting            triclinic
loop_
_symmetry_equiv_pos_as_xyz
'x, y, z'
_cell_length_a     36.467761
_cell_length_b     36.75414
_cell_length_c     13.973477
_cell_angle_alpha  94.682424
_cell_angle_beta   95.916668
_cell_angle_gamma 89.625738
loop_
_atom_site_label
_atom_site_type_symbol
_atom_site_fract_x
_atom_site_fract_y
_atom_site_fract_z
_atom_type_partial_charge
Zn0 Zn 0.06041 0.29858 0.32932 0.0
Zn1 Zn 0.98427 0.21334 0.38884 0.0
C2 C 0.13142 0.26494 0.33226 0.0
O3 O 0.11419 0.24028 0.37386 0.0
C4 C 0.90831 0.2185 0.31215 0.0
O5 O 0.92207 0.2016 0.23751 0.0
O6 O 0.04132 0.34775 0.29001 0.0
O7 O 0.03067 0.25452 0.2657 0.0
O8 O 0.9947 0.20614 0.24885 0.0
C9 C 0.05962 0.37454 0.33413 0.0
O10 O 0.08855 0.36777 0.39424 0.0
O11 O 0.11385 0.2928 0.30436 0.0
C12 C 0.97766 0.13892 0.44024 0.0
O13 O 0.948 0.13929 0.37833 0.0
O14 O 0.99744 0.16751 0.45728 0.0
O15 O 0.01823 0.25467 0.44197 0.0
O16 O 0.05785 0.29913 0.47391 0.0
O17 O 0.9295 0.22642 0.38938 0.0
C18 C 0.01421 0.22878 0.2118 0.0
C19 C 0.0366 0.27631 0.50391 0.0
Zn20 Zn 0.05603 0.72433 0.56151 0.0
Zn21 Zn 0.96856 0.79908 0.63509 0.0
C22 C 0.06984 0.64846 0.54146 0.0
O23 O 0.09367 0.65872 0.61549 0.0
C24 C 0.95702 0.87078 0.59521 0.0
O25 O 0.92754 0.85318 0.55432 0.0
O26 O 0.10765 0.74313 0.55445 0.0
O27 O 0.01338 0.75521 0.52575 0.0
O28 O 0.96325 0.78486 0.4912 0.0
C29 C 0.12861 0.72937 0.49382 0.0
O30 O 0.1148 0.70646 0.42244 0.0
O31 O 0.04948 0.67237 0.50181 0.0
C32 C 0.91053 0.81186 0.75935 0.0
O33 O 0.93588 0.83228 0.81105 0.0
O34 O 0.91833 0.79428 0.68193 0.0
O35 O 1.00586 0.76534 0.70954 0.0
O36 O 0.05162 0.72485 0.70256 0.0
O37 O 0.98179 0.85325 0.64367 0.0
C38 C 0.98917 0.7653 0.46242 0.0
C39 C 0.02948 0.74406 0.75056 0.0
Zn40 Zn 0.55328 0.80291 0.85755 0.0
Zn41 Zn 0.47822 0.71262 0.8614 0.0
C42 C 0.63232 0.79948 0.86103 0.0
O43 O 0.63062 0.81167 0.95152 0.0
C44 C 0.40418 0.71982 0.7803 0.0
O45 O 0.41844 0.70033 0.71029 0.0
O46 O 0.53924 0.85659 0.85311 0.0
O47 O 0.51573 0.76744 0.79717 0.0
O48 O 0.49374 0.7166 0.72645 0.0
C49 C 0.55354 0.87658 0.79652 0.0
O50 O 0.57538 0.86169 0.73536 0.0
O51 O 0.60264 0.79329 0.80623 0.0
C52 C 0.46069 0.64696 0.94997 0.0
O53 O 0.43324 0.66724 0.97694 0.0
O54 O 0.48332 0.66003 0.89819 0.0
O55 O 0.51405 0.7444 0.95761 0.0
O56 O 0.55531 0.78895 -0.0053 0.0
O57 O 0.42464 0.7291 0.85777 0.0
C58 C 0.51267 0.74523 0.72326 0.0
C59 C 0.53575 0.76322 0.01969 0.0
Zn60 Zn 0.55762 0.21979 0.08029 0.0
Zn61 Zn 0.47907 0.30435 0.15481 0.0
C62 C 0.51851 0.15405 -0.00549 0.0
O63 O 0.4891 0.17309 0.0128 0.0
C64 C 0.48252 0.37788 0.12123 0.0
O65 O 0.45131 0.36651 0.07294 0.0
O66 O 0.61066 0.23634 0.08498 0.0
O67 O 0.51864 0.25486 0.04231 0.0
O68 O 0.47317 0.29136 0.01077 0.0
C69 C 0.63244 0.22381 0.02498 0.0
O70 O 0.61932 0.20293 0.9486 0.0
O71 O 0.5502 0.16868 0.01407 0.0
C72 C 0.40931 0.28296 0.22354 0.0
O73 O 0.42449 0.25063 0.23015 0.0
O74 O 0.42757 0.30883 0.19625 0.0
O75 O 0.50943 0.26461 0.22693 0.0
O76 O 0.54921 0.21825 0.21823 0.0
O77 O 0.50177 0.35537 0.16987 0.0
C78 C 0.49613 0.26845 -0.01962 0.0
C79 C 0.52883 0.23956 0.26634 0.0
H80 H 0.02242 0.41764 0.27689 0.0
C81 C 0.04727 0.41262 0.32385 0.0
H82 H 0.08962 0.43566 0.42461 0.0
H83 H 0.06227 0.59275 0.26062 0.0
H84 H 0.08824 0.5665 0.11724 0.0
H85 H 0.09784 0.50002 0.09166 0.0
H86 H 0.08133 0.45929 0.20907 0.0
C87 C 0.06538 0.44071 0.37549 0.0
C88 C 0.05184 0.47902 0.37758 0.0
C89 C 0.06099 0.50229 0.30753 0.0
C90 C 0.0556 0.54069 0.32251 0.0
C91 C 0.06581 0.56344 0.25269 0.0
C92 C 0.08072 0.54872 0.17016 0.0
C93 C 0.08613 0.51128 0.15575 0.0
C94 C 0.07657 0.48821 0.22362 0.0
H95 H 0.084 0.59058 0.54953 0.0
C96 C 0.06658 0.60932 0.50894 0.0
H97 H 0.02625 0.61389 0.39015 0.0
H98 H 0.02605 0.44144 0.51776 0.0
H99 H 0.9963 0.46729 0.65555 0.0
H100 H 0.98581 0.53367 0.67962 0.0
H101 H 1.0053 0.57463 0.5665 0.0
C102 C 0.04317 0.59581 0.43399 0.0
C103 C 0.04147 0.55562 0.40794 0.0
C104 C 0.02888 0.53196 0.47293 0.0
C105 C 0.0344 0.49367 0.4582 0.0
C106 C 0.02257 0.47076 0.52577 0.0
C107 C 1.00534 0.48522 0.60487 0.0
C108 C 0.99947 0.5226 0.61847 0.0
C109 C 0.011 0.54582 0.55345 0.0
H110 H 0.66829 0.78623 0.74494 0.0
C111 C 0.66818 0.79448 0.82142 0.0
H112 H 0.70079 0.80892 0.953 0.0
H113 H 0.83925 0.72718 0.78227 0.0
H114 H 0.81311 0.67461 0.84535 0.0
H115 H 0.75154 0.67786 0.90403 0.0
H116 H 0.71567 0.73376 0.90002 0.0
C117 C 0.70029 0.80075 0.8764 0.0
C118 C 0.73615 0.79788 0.83445 0.0
C119 C 0.75663 0.76503 0.83686 0.0
C120 C 0.79209 0.76314 0.80274 0.0
C121 C 0.81211 0.73007 0.80685 0.0
C122 C 0.79745 0.6997 0.84295 0.0
C123 C 0.76278 0.70154 0.87603 0.0
C124 C 0.7425 0.73377 0.87337 0.0
H125 H 0.86745 0.82787 0.85421 0.0
C126 C 0.87285 0.81145 0.78889 0.0
H127 H 0.85 0.77548 0.67235 0.0
H128 H 0.70346 0.86456 0.81681 0.0
H129 H 0.7283 0.91629 0.74716 0.0
H130 H 0.78895 0.91245 0.6834 0.0
H131 H 0.82528 0.85702 0.68972 0.0
C132 C 0.84505 0.79275 0.73662 0.0
C133 C 0.80705 0.79419 0.7669 0.0
C134 C 0.78587 0.82661 0.7608 0.0
C135 C 0.75054 0.82856 0.79558 0.0
C136 C 0.7303 0.86149 0.79059 0.0
C137 C 0.74422 0.89138 0.75076 0.0
C138 C 0.7784 0.88924 0.71502 0.0
C139 C 0.79907 0.85731 0.71964 0.0
H140 H 0.52185 0.42448 0.15215 0.0
C141 C 0.49536 0.41577 0.11487 0.0
H142 H 0.44911 0.42969 0.02152 0.0
H143 H 0.49969 0.59853 0.15691 0.0
H144 H 0.49115 0.58531 0.32055 0.0
H145 H 0.47936 0.52235 0.35888 0.0
H146 H 0.47706 0.47214 0.23457 0.0
C147 C 0.47497 0.43899 0.0614 0.0
C148 C 0.48724 0.47639 0.04421 0.0
C149 C 0.48749 0.50553 0.11742 0.0
C150 C 0.49247 0.54215 0.09439 0.0
C151 C 0.49431 0.57051 0.16964 0.0
C152 C 0.48975 0.56325 0.26398 0.0
C153 C 0.48324 0.52778 0.28561 0.0
C154 C 0.48205 0.49916 0.2135 0.0
H155 H 0.44136 0.5985 0.0131 0.0
C156 C 0.46421 0.60927 0.97977 0.0
H157 H 0.51703 0.59846 0.93507 0.0
H158 H 0.49418 0.42667 0.89084 0.0
H159 H 0.50391 0.43987 0.72791 0.0
H160 H 0.50954 0.5034 0.68626 0.0
H161 H 0.50578 0.55409 0.80715 0.0
C162 C 0.49415 0.58826 0.96924 0.0
C163 C 0.49541 0.54977 -0.00261 0.0
C164 C 0.49779 0.52044 0.9258 0.0
C165 C 0.49388 0.48378 0.9494 0.0
C166 C 0.49631 0.45503 0.87638 0.0
C167 C 0.50203 0.4622 0.7827 0.0
C168 C 0.50526 0.49797 0.7593 0.0
C169 C 0.50308 0.52685 0.82956 0.0
H170 H 0.85643 0.23741 0.37092 0.0
C171 C 0.86848 0.22727 0.30597 0.0
H172 H 0.85915 0.21135 0.15686 0.0
H173 H 0.69356 0.1673 0.13553 0.0
H174 H 0.72233 0.10775 0.13277 0.0
H175 H 0.78974 0.10166 0.1658 0.0
H176 H 0.82869 0.15517 0.20304 0.0
C177 C 0.84713 0.22218 0.22128 0.0
C178 C 0.80626 0.22645 0.2117 0.0
C179 C 0.78382 0.19496 0.18843 0.0
C180 C 0.74502 0.19852 0.16708 0.0
C181 C 0.72328 0.1664 0.14842 0.0
C182 C 0.73941 0.13194 0.14755 0.0
C183 C 0.77734 0.12851 0.16628 0.0
C184 C 0.7994 0.1595 0.18703 0.0
H185 H 0.69031 0.21649 -0.0057 0.0
C186 C 0.67283 0.22703 0.04864 0.0
H187 H 0.6713 0.24818 0.19361 0.0
H188 H 0.84096 0.29246 0.25545 0.0
H189 H 0.81198 0.35206 0.26202 0.0
H190 H 0.7447 0.35822 0.22549 0.0
H191 H 0.70597 0.30477 0.18146 0.0
C192 C 0.68832 0.23767 0.13823 0.0
C193 C 0.72873 0.23372 0.16622 0.0
C194 C 0.75093 0.26513 0.19388 0.0
C195 C 0.78977 0.26154 0.21605 0.0
C196 C 0.81135 0.2935 0.23965 0.0
C197 C 0.79506 0.32792 0.24335 0.0
C198 C 0.75718 0.33139 0.22272 0.0
C199 C 0.73526 0.30049 0.19776 0.0
H200 H 0.35832 0.3155 0.22459 0.0
C201 C 0.37032 0.28919 0.23999 0.0
H202 H 0.36048 0.23666 0.28242 0.0
H203 H 0.21572 0.33592 0.41067 0.0
H204 H 0.25977 0.37252 0.51912 0.0
H205 H 0.32655 0.36134 0.51986 0.0
H206 H 0.34971 0.3138 0.4116 0.0
C207 C 0.34909 0.26342 0.26957 0.0
C208 C 0.30871 0.26912 0.27453 0.0
C209 C 0.29559 0.29655 0.34009 0.0
C210 C 0.25699 0.30241 0.34138 0.0
C211 C 0.24469 0.33022 0.40679 0.0
C212 C 0.26968 0.35139 0.46965 0.0
C213 C 0.30728 0.34514 0.46992 0.0
C214 C 0.32022 0.31794 0.40661 0.0
H215 H 0.1842 0.23526 0.34391 0.0
C216 C 0.17098 0.26011 0.32071 0.0
H217 H 0.17878 0.3109 0.26483 0.0
H218 H 0.3243 0.21421 0.13995 0.0
H219 H 0.28014 0.17766 0.0321 0.0
H220 H 0.21334 0.18804 0.03424 0.0
H221 H 0.19031 0.23496 0.14455 0.0
C222 C 0.19115 0.28527 0.28489 0.0
C223 C 0.23152 0.28013 0.27946 0.0
C224 C 0.24459 0.25273 0.21393 0.0
C225 C 0.28317 0.24706 0.21196 0.0
C226 C 0.29536 0.21963 0.14524 0.0
C227 C 0.2703 0.19849 0.08254 0.0
C228 C 0.23269 0.2043 0.08381 0.0
C229 C 0.21984 0.23117 0.14814 0.0
H230 H 0.35249 0.74266 0.8316 0.0
C231 C 0.36468 0.72989 0.76952 0.0
H232 H 0.35574 0.70938 0.62349 0.0
H233 H 0.18776 0.674 0.60888 0.0
H234 H 0.21389 0.61344 0.61493 0.0
H235 H 0.28102 0.60484 0.64729 0.0
H236 H 0.32234 0.65685 0.67491 0.0
C237 C 0.34371 0.7229 0.68491 0.0
C238 C 0.30306 0.72892 0.67299 0.0
C239 C 0.27924 0.69822 0.65512 0.0
C240 C 0.24058 0.70317 0.63432 0.0
C241 C 0.21743 0.67195 0.62122 0.0
C242 C 0.23204 0.63694 0.62543 0.0
C243 C 0.26981 0.6321 0.64378 0.0
C244 C 0.29324 0.66224 0.659 0.0
H245 H 0.1859 0.72081 0.45961 0.0
C246 C 0.16911 0.73261 0.5141 0.0
H247 H 0.1692 0.75565 0.65798 0.0
H248 H 0.34067 0.79381 0.70415 0.0
H249 H 0.31425 0.85448 0.70284 0.0
H250 H 0.24718 0.863 0.66828 0.0
H251 H 0.2061 0.8108 0.63401 0.0
C252 C 0.18549 0.74408 0.60216 0.0
C253 C 0.22581 0.73888 0.6287 0.0
C254 C 0.24941 0.76959 0.65064 0.0
C255 C 0.28811 0.76465 0.67203 0.0
C256 C 0.31108 0.79589 0.68964 0.0
C257 C 0.29627 0.83091 0.68866 0.0
C258 C 0.2585 0.83571 0.66911 0.0
C259 C 0.23523 0.80552 0.64975 0.0
H260 H 0.56549 0.93244 0.76161 0.0
C261 C 0.54963 0.9168 0.80578 0.0
H262 H 0.51477 0.91926 0.91742 0.0
H263 H 0.56838 0.07225 0.11397 0.0
H264 H 0.58894 0.03158 0.23657 0.0
H265 H 0.58423 0.96479 0.20219 0.0
H266 H 0.55873 0.93827 0.04539 0.0
C267 C 0.52969 0.93463 0.87061 0.0
C268 C 0.53189 0.97526 0.89037 0.0
C269 C 0.54726 0.99041 -0.01759 0.0
C270 C 0.55064 0.02896 0.00173 0.0
C271 C 0.56565 0.04321 0.09475 0.0
C272 C 0.5775 0.02017 0.166 0.0
C273 C 0.5748 0.98258 0.14669 0.0
C274 C 0.55997 0.96772 0.05621 0.0
H275 H 0.48673 0.10381 0.94532 0.0
C276 C 0.51444 0.11506 0.95922 0.0
H277 H 0.57137 0.10343 0.96788 0.0
H278 H 0.49688 0.95599 0.71056 0.0
H279 H 0.47821 0.99667 0.58627 0.0
H280 H 0.48826 0.06311 0.616 0.0
H281 H 0.51638 0.08937 0.77089 0.0
C282 C 0.54354 0.09282 0.95002 0.0
C283 C 0.53894 0.05249 0.92895 0.0
C284 C 0.52359 0.03742 0.8369 0.0
C285 C 0.51934 0.99886 0.81825 0.0
C286 C 0.50218 0.98484 0.72735 0.0
C287 C 0.49108 0.00792 0.65555 0.0
C288 C 0.49661 0.04535 0.67241 0.0
C289 C 0.51263 0.06008 0.76186 0.0
H290 H 0.93821 0.92122 0.53272 0.0
C291 C 0.96085 0.90954 0.57712 0.0
H292 H 0.01355 0.92015 0.6528 0.0
H293 H 0.99093 0.04109 0.31992 0.0
H294 H 1.00717 0.98993 0.21139 0.0
H295 H 0.01715 0.92871 0.26922 0.0
H296 H 0.01113 0.91817 0.43636 0.0
C297 C 0.99053 0.93045 0.60717 0.0
C298 C 0.99169 0.96852 0.57715 0.0
C299 C 0.9961 0.97441 0.47994 0.0
C300 C 0.9904 0.00978 0.44662 0.0
C301 C 0.99457 0.01472 0.34882 0.0
C302 C 1.00404 0.98563 0.28586 0.0
C303 C 1.00969 0.95114 0.31847 0.0
C304 C 1.00591 0.94544 0.41433 0.0
H305 H 0.01406 0.10572 0.53602 0.0
C306 C 0.98872 0.10535 0.48757 0.0
H307 H 0.94399 0.07366 0.41957 0.0
H308 H 0.9862 0.96743 0.77003 0.0
H309 H 0.97159 0.01885 0.88027 0.0
H310 H 0.96065 0.08004 0.82243 0.0
H311 H 0.96425 0.0903 0.65449 0.0
C312 C 0.96864 0.07449 0.47056 0.0
C313 C 0.98059 0.03937 0.51059 0.0
C314 C 0.97866 0.03399 0.60944 0.0
C315 C 0.98452 0.99855 0.64277 0.0
C316 C 0.98182 0.99374 0.74121 0.0
C317 C 0.97349 0.023 0.80512 0.0
C318 C 0.96736 0.05746 0.77255 0.0
C319 C 0.96967 0.06302 0.67589 0.0
H320 H 0.99755 0.20557 0.06404 0.0
C321 C 0.01556 0.22559 0.10678 0.0
H322 H 0.05309 0.26881 0.10382 0.0
H323 H 0.0344 0.18435 0.65588 0.0
H324 H 0.06129 0.13121 0.72774 0.0
H325 H 0.0761 0.13159 0.90415 0.0
H326 H 0.06358 0.18492 0.00969 0.0
C327 C 0.03589 0.24788 0.06215 0.0
C328 C 0.03057 0.24837 0.95535 0.0
C329 C 0.0391 0.21726 0.89459 0.0
C330 C 0.03153 0.2174 0.79274 0.0
C331 C 0.03981 0.18584 0.73368 0.0
C332 C 0.05531 0.15514 0.77396 0.0
C333 C 0.06355 0.15532 0.87328 0.0
C334 C 0.05587 0.18602 0.93316 0.0
H335 H 0.05429 0.29233 0.65618 0.0
C336 C 0.0359 0.27423 0.60811 0.0
H337 H 0.99631 0.23201 0.59904 0.0
H338 H 1.01002 0.31228 0.05129 0.0
H339 H 0.98176 0.36465 0.97912 0.0
H340 H 0.96799 0.36443 0.80248 0.0
H341 H 0.98264 0.3118 0.69711 0.0
C342 C 0.01416 0.25103 0.64561 0.0
C343 C 0.01675 0.24906 0.75191 0.0
C344 C 1.00737 0.2798 0.81266 0.0
C345 C 0.01471 0.27964 0.91445 0.0
C346 C 1.0052 0.31082 0.97339 0.0
C347 C 0.98883 0.34111 0.93294 0.0
C348 C 0.98114 0.34101 0.83353 0.0
C349 C 0.99004 0.31074 0.7738 0.0
H350 H 0.0544 0.72491 0.88713 0.0
C351 C 0.03138 0.74021 0.85458 0.0
H352 H 0.98307 0.77 0.87948 0.0
H353 H 0.01673 0.67525 0.26691 0.0
H354 H 1.00131 0.62136 0.1574 0.0
H355 H 0.98902 0.62632 -0.01812 0.0
H356 H 0.99231 0.68494 0.91469 0.0
C357 C 1.00594 0.754 0.90971 0.0
C358 C 0.0108 0.75074 0.01527 0.0
C359 C 1.00803 0.71619 0.05289 0.0
C360 C 0.01418 0.71336 0.15404 0.0
C361 C 0.01171 0.67874 0.19047 0.0
C362 C 1.003 0.64768 0.1285 0.0
C363 C 0.99618 0.65047 0.02964 0.0
C364 C 0.99843 0.68427 -0.00809 0.0
H365 H 0.96576 0.76157 0.3115 0.0
C366 C 0.98993 0.75504 0.35942 0.0
H367 H 0.04591 0.73874 0.36739 0.0
H368 H 0.01938 0.82076 0.96629 0.0
H369 H 0.03622 0.87387 0.07651 0.0
H370 H 0.04779 0.86841 0.25195 0.0
H371 H 0.04204 0.80997 0.31814 0.0
C372 C 0.02076 0.74384 0.32179 0.0
C373 C 0.0221 0.74505 0.21675 0.0
C374 C 0.02626 0.77925 0.17913 0.0
C375 C 0.02012 0.78222 0.07822 0.0
C376 C 0.0238 0.81689 0.04254 0.0
C377 C 0.03348 0.84761 0.10498 0.0
C378 C 0.03989 0.84459 0.20373 0.0
C379 C 0.03635 0.8109 0.2408 0.0
H380 H 0.51698 0.73691 0.14088 0.0
C381 C 0.53829 0.75441 0.1202 0.0
H382 H 0.58661 0.78512 0.16755 0.0
H383 H 0.51264 0.80889 0.56239 0.0
H384 H 0.51843 0.87061 0.51907 0.0
H385 H 0.54565 0.88325 0.37073 0.0
H386 H 0.56675 0.83374 0.26448 0.0
C387 C 0.56526 0.76733 0.18644 0.0
C388 C 0.56309 0.76077 0.28872 0.0
C389 C 0.55351 0.79012 0.35321 0.0
C390 C 0.53949 0.78285 0.44077 0.0
C391 C 0.52592 0.81254 0.49832 0.0
C392 C 0.52851 0.84831 0.47345 0.0
C393 C 0.5437 0.85542 0.38983 0.0
C394 C 0.55569 0.82674 0.32952 0.0
H395 H 0.55667 0.76913 0.65155 0.0
C396 C 0.53309 0.7508 0.64111 0.0
H397 H 0.49637 0.71937 0.54164 0.0
H398 H 0.58693 0.69973 0.18875 0.0
H399 H 0.58494 0.63741 0.23504 0.0
H400 H 0.56217 0.62439 0.38904 0.0
H401 H 0.54132 0.67341 0.49742 0.0
C402 C 0.52021 0.73743 0.55229 0.0
C403 C 0.53767 0.74619 0.46592 0.0
C404 C 0.55061 0.7172 0.4051 0.0
C405 C 0.5635 0.72457 0.31641 0.0
C406 C 0.5761 0.69528 0.25612 0.0
C407 C 0.57538 0.65952 0.28218 0.0
C408 C 0.56259 0.6522 0.36891 0.0
C409 C 0.55053 0.6806 0.43023 0.0
H410 H 0.54662 0.21365 0.39922 0.0
C411 C 0.52845 0.23437 0.36907 0.0
H412 H 0.49047 0.27633 0.3996 0.0
H413 H 0.49902 0.17779 0.78198 0.0
H414 H 0.46639 0.13082 0.67356 0.0
H415 H 0.45413 0.13843 0.49928 0.0
H416 H 0.47426 0.193 0.43238 0.0
C417 C 0.50787 0.25456 0.4269 0.0
C418 C 0.51262 0.2506 0.53203 0.0
C419 C 0.50021 0.21863 0.56944 0.0
C420 C 0.5066 0.21446 0.66987 0.0
C421 C 0.49426 0.18236 0.70613 0.0
C422 C 0.47569 0.1552 0.64473 0.0
C423 C 0.46885 0.15948 0.54658 0.0
C424 C 0.48076 0.19082 0.50899 0.0
H425 H 0.47235 0.26828 0.8303 0.0
C426 C 0.49538 0.25838 0.87696 0.0
H427 H 0.54826 0.23399 0.88188 0.0
H428 H 0.54105 0.31463 0.4827 0.0
H429 H 0.57367 0.3611 0.59185 0.0
H430 H 0.58468 0.35363 0.76638 0.0
H431 H 0.5632 0.29948 0.83261 0.0
C432 C 0.52388 0.24233 0.83762 0.0
C433 C 0.52462 0.2425 0.7322 0.0
C434 C 0.53806 0.27386 0.69459 0.0
C435 C 0.53176 0.27811 0.5943 0.0
C436 C 0.545 0.30999 0.55854 0.0
C437 C 0.56379 0.3369 0.62039 0.0
C438 C 0.56997 0.3327 0.71863 0.0
C439 C 0.55737 0.30159 0.75573 0.0
loop_
_geom_bond_atom_site_label_1
_geom_bond_atom_site_label_2
_geom_bond_distance
_geom_bond_site_symmetry_2
_ccdc_geom_bond_type
Zn0 O6 1.969 . S
Zn0 O7 1.965 . S
Zn0 O11 2.024 . S
Zn0 O16 1.969 . S
Zn1 O8 1.969 . S
Zn1 O14 1.969 . S
Zn1 O15 1.965 1_655 S
Zn1 O17 2.024 . S
C2 O3 1.229 . S
C2 O11 1.058 . S
O3 C2 1.229 . S
C4 O5 1.229 . S
C4 O17 1.058 . S
O5 C4 1.229 . S
O6 Zn0 1.969 . S
O6 C9 1.267 . S
O7 Zn0 1.965 . S
O7 C18 1.261 . S
O8 Zn1 1.969 . S
O8 C18 1.255 1_655 S
C9 O6 1.267 . S
C9 O10 1.228 . S
O10 C9 1.228 . S
O11 Zn0 2.024 . S
O11 C2 1.058 . S
C12 O13 1.228 . S
C12 O14 1.267 . S
O13 C12 1.228 . S
O14 Zn1 1.969 . S
O14 C12 1.267 . S
O15 Zn1 1.965 1_455 S
O15 C19 1.260 . S
O16 Zn0 1.969 . S
O16 C19 1.258 . S
O17 Zn1 2.024 . S
O17 C4 1.058 . S
C18 O7 1.261 . S
C18 O8 1.255 1_455 S
C19 O15 1.260 . S
C19 O16 1.258 . S
Zn20 O26 1.969 . S
Zn20 O27 1.965 . S
Zn20 O31 2.024 . S
Zn20 O36 1.969 . S
Zn21 O28 1.969 . S
Zn21 O34 1.969 . S
Zn21 O35 1.965 . S
Zn21 O37 2.024 . S
C22 O23 1.229 . S
C22 O31 1.058 . S
O23 C22 1.229 . S
C24 O25 1.229 . S
C24 O37 1.058 . S
O25 C24 1.229 . S
O26 Zn20 1.969 . S
O26 C29 1.267 . S
O27 Zn20 1.965 . S
O27 C38 1.260 . S
O28 Zn21 1.969 . S
O28 C38 1.258 1_655 S
C29 O26 1.267 . S
C29 O30 1.228 . S
O30 C29 1.228 . S
O31 Zn20 2.024 . S
O31 C22 1.058 . S
C32 O33 1.228 . S
C32 O34 1.267 . S
O33 C32 1.228 . S
O34 Zn21 1.969 . S
O34 C32 1.267 . S
O35 Zn21 1.965 . S
O35 C39 1.260 1_655 S
O36 Zn20 1.969 . S
O36 C39 1.258 . S
O37 Zn21 2.024 . S
O37 C24 1.058 . S
C38 O27 1.260 . S
C38 O28 1.258 1_455 S
C39 O35 1.260 1_455 S
C39 O36 1.258 . S
Zn40 O46 1.969 . S
Zn40 O47 1.965 . S
Zn40 O51 2.024 . S
Zn40 O56 1.969 1_556 S
Zn41 O48 1.969 . S
Zn41 O54 1.969 . S
Zn41 O55 1.965 . S
Zn41 O57 2.024 . S
C42 O43 1.229 . S
C42 O51 1.058 . S
O43 C42 1.229 . S
C44 O45 1.229 . S
C44 O57 1.058 . S
O45 C44 1.229 . S
O46 Zn40 1.969 . S
O46 C49 1.267 . S
O47 Zn40 1.965 . S
O47 C58 1.260 . S
O48 Zn41 1.969 . S
O48 C58 1.258 . S
C49 O46 1.267 . S
C49 O50 1.228 . S
O50 C49 1.228 . S
O51 Zn40 2.024 . S
O51 C42 1.058 . S
C52 O53 1.228 . S
C52 O54 1.267 . S
O53 C52 1.228 . S
O54 Zn41 1.969 . S
O54 C52 1.267 . S
O55 Zn41 1.965 . S
O55 C59 1.260 1_556 S
O56 Zn40 1.969 1_554 S
O56 C59 1.258 . S
O57 Zn41 2.024 . S
O57 C44 1.058 . S
C58 O47 1.260 . S
C58 O48 1.258 . S
C59 O55 1.260 1_554 S
C59 O56 1.258 . S
Zn60 O66 1.969 . S
Zn60 O67 1.965 . S
Zn60 O71 2.024 . S
Zn60 O76 1.969 . S
Zn61 O68 1.969 1_554 S
Zn61 O74 1.969 . S
Zn61 O75 1.965 . S
Zn61 O77 2.024 . S
C62 O63 1.229 . S
C62 O71 1.058 . S
O63 C62 1.229 . S
C64 O65 1.229 . S
C64 O77 1.058 . S
O65 C64 1.229 . S
O66 Zn60 1.969 . S
O66 C69 1.267 . S
O67 Zn60 1.965 . S
O67 C78 1.260 1_554 S
O68 Zn61 1.969 1_556 S
O68 C78 1.258 . S
C69 O66 1.267 . S
C69 O70 1.228 . S
O70 C69 1.228 . S
O71 Zn60 2.024 . S
O71 C62 1.058 . S
C72 O73 1.228 . S
C72 O74 1.267 . S
O73 C72 1.228 . S
O74 Zn61 1.969 . S
O74 C72 1.267 . S
O75 Zn61 1.965 . S
O75 C79 1.260 . S
O76 Zn60 1.969 . S
O76 C79 1.258 . S
O77 Zn61 2.024 . S
O77 C64 1.058 . S
C78 O67 1.260 1_556 S
C78 O68 1.258 . S
C79 O75 1.260 . S
C79 O76 1.258 . S
H80 C81 0.951 . S
C81 H80 0.951 . S
C81 C87 1.265 . S
H82 C87 0.950 . S
H83 C91 0.949 . S
H84 C92 0.950 . S
H85 C93 0.951 . S
H86 C94 0.951 . S
C87 C81 1.265 . S
C87 H82 0.950 . S
C87 C88 1.478 . S
C88 C87 1.478 . S
C88 C89 1.397 . S
C88 C105 1.394 . S
C89 C88 1.397 . S
C89 C90 1.438 . S
C89 C94 1.429 . S
C90 C89 1.438 . S
C90 C91 1.428 . S
C90 C103 1.394 . S
C91 H83 0.949 . S
C91 C90 1.428 . S
C91 C92 1.345 . S
C92 H84 0.950 . S
C92 C91 1.345 . S
C92 C93 1.424 . S
C93 H85 0.951 . S
C93 C92 1.424 . S
C93 C94 1.347 . S
C94 H86 0.951 . S
C94 C89 1.429 . S
C94 C93 1.347 . S
H95 C96 0.951 . S
C96 H95 0.951 . S
C96 C102 1.265 . S
H97 C102 0.950 1_655 S
H98 C106 0.949 . S
H99 C107 0.950 . S
H100 C108 0.951 . S
H101 C109 0.951 . S
C102 C96 1.265 . S
C102 H97 0.950 1_455 S
C102 C103 1.478 . S
C103 C90 1.394 . S
C103 C102 1.478 . S
C103 C104 1.397 . S
C104 C103 1.397 . S
C104 C105 1.438 . S
C104 C109 1.429 1_455 S
C105 C88 1.394 . S
C105 C104 1.438 . S
C105 C106 1.428 . S
C106 H98 0.949 . S
C106 C105 1.428 . S
C106 C107 1.345 1_455 S
C107 H99 0.950 . S
C107 C106 1.345 1_655 S
C107 C108 1.424 . S
C108 H100 0.951 . S
C108 C107 1.424 . S
C108 C109 1.347 . S
C109 H101 0.951 . S
C109 C104 1.429 1_655 S
C109 C108 1.347 . S
H110 C111 0.951 . S
C111 H110 0.951 . S
C111 C117 1.265 . S
H112 C117 0.950 . S
H113 C121 0.949 . S
H114 C122 0.950 . S
H115 C123 0.951 . S
H116 C124 0.951 . S
C117 C111 1.265 . S
C117 H112 0.950 . S
C117 C118 1.478 . S
C118 C117 1.478 . S
C118 C119 1.397 . S
C118 C135 1.394 . S
C119 C118 1.397 . S
C119 C120 1.438 . S
C119 C124 1.429 . S
C120 C119 1.438 . S
C120 C121 1.428 . S
C120 C133 1.394 . S
C121 H113 0.949 . S
C121 C120 1.428 . S
C121 C122 1.345 . S
C122 H114 0.950 . S
C122 C121 1.345 . S
C122 C123 1.424 . S
C123 H115 0.951 . S
C123 C122 1.424 . S
C123 C124 1.347 . S
C124 H116 0.951 . S
C124 C119 1.429 . S
C124 C123 1.347 . S
H125 C126 0.951 . S
C126 H125 0.951 . S
C126 C132 1.265 . S
H127 C132 0.950 . S
H128 C136 0.949 . S
H129 C137 0.950 . S
H130 C138 0.951 . S
H131 C139 0.951 . S
C132 C126 1.265 . S
C132 H127 0.950 . S
C132 C133 1.478 . S
C133 C120 1.394 . S
C133 C132 1.478 . S
C133 C134 1.397 . S
C134 C133 1.397 . S
C134 C135 1.438 . S
C134 C139 1.429 . S
C135 C118 1.394 . S
C135 C134 1.438 . S
C135 C136 1.428 . S
C136 H128 0.949 . S
C136 C135 1.428 . S
C136 C137 1.345 . S
C137 H129 0.950 . S
C137 C136 1.345 . S
C137 C138 1.424 . S
C138 H130 0.951 . S
C138 C137 1.424 . S
C138 C139 1.347 . S
C139 H131 0.951 . S
C139 C134 1.429 . S
C139 C138 1.347 . S
H140 C141 0.951 . S
C141 H140 0.951 . S
C141 C147 1.265 . S
H142 C147 0.950 . S
H143 C151 0.949 . S
H144 C152 0.950 . S
H145 C153 0.951 . S
H146 C154 0.951 . S
C147 C141 1.265 . S
C147 H142 0.950 . S
C147 C148 1.478 . S
C148 C147 1.478 . S
C148 C149 1.397 . S
C148 C165 1.394 1_554 S
C149 C148 1.397 . S
C149 C150 1.438 . S
C149 C154 1.429 . S
C150 C149 1.438 . S
C150 C151 1.428 . S
C150 C163 1.394 1_554 S
C151 H143 0.949 . S
C151 C150 1.428 . S
C151 C152 1.345 . S
C152 H144 0.950 . S
C152 C151 1.345 . S
C152 C153 1.424 . S
C153 H145 0.951 . S
C153 C152 1.424 . S
C153 C154 1.347 . S
C154 H146 0.951 . S
C154 C149 1.429 . S
C154 C153 1.347 . S
H155 C156 0.951 . S
C156 H155 0.951 . S
C156 C162 1.265 . S
H157 C162 0.950 . S
H158 C166 0.949 . S
H159 C167 0.950 . S
H160 C168 0.951 . S
H161 C169 0.951 . S
C162 C156 1.265 . S
C162 H157 0.950 . S
C162 C163 1.478 . S
C163 C150 1.394 1_556 S
C163 C162 1.478 . S
C163 C164 1.397 . S
C164 C163 1.397 . S
C164 C165 1.438 . S
C164 C169 1.429 . S
C165 C148 1.394 1_556 S
C165 C164 1.438 . S
C165 C166 1.428 . S
C166 H158 0.949 . S
C166 C165 1.428 . S
C166 C167 1.345 . S
C167 H159 0.950 . S
C167 C166 1.345 . S
C167 C168 1.424 . S
C168 H160 0.951 . S
C168 C167 1.424 . S
C168 C169 1.347 . S
C169 H161 0.951 . S
C169 C164 1.429 . S
C169 C168 1.347 . S
H170 C171 0.951 . S
C171 H170 0.951 . S
C171 C177 1.265 . S
H172 C177 0.950 . S
H173 C181 0.949 . S
H174 C182 0.950 . S
H175 C183 0.951 . S
H176 C184 0.951 . S
C177 C171 1.265 . S
C177 H172 0.950 . S
C177 C178 1.478 . S
C178 C177 1.478 . S
C178 C179 1.397 . S
C178 C195 1.394 . S
C179 C178 1.397 . S
C179 C180 1.438 . S
C179 C184 1.429 . S
C180 C179 1.438 . S
C180 C181 1.428 . S
C180 C193 1.394 . S
C181 H173 0.949 . S
C181 C180 1.428 . S
C181 C182 1.345 . S
C182 H174 0.950 . S
C182 C181 1.345 . S
C182 C183 1.424 . S
C183 H175 0.951 . S
C183 C182 1.424 . S
C183 C184 1.347 . S
C184 H176 0.951 . S
C184 C179 1.429 . S
C184 C183 1.347 . S
H185 C186 0.951 . S
C186 H185 0.951 . S
C186 C192 1.265 . S
H187 C192 0.950 . S
H188 C196 0.949 . S
H189 C197 0.950 . S
H190 C198 0.951 . S
H191 C199 0.951 . S
C192 C186 1.265 . S
C192 H187 0.950 . S
C192 C193 1.478 . S
C193 C180 1.394 . S
C193 C192 1.478 . S
C193 C194 1.397 . S
C194 C193 1.397 . S
C194 C195 1.438 . S
C194 C199 1.429 . S
C195 C178 1.394 . S
C195 C194 1.438 . S
C195 C196 1.428 . S
C196 H188 0.949 . S
C196 C195 1.428 . S
C196 C197 1.345 . S
C197 H189 0.950 . S
C197 C196 1.345 . S
C197 C198 1.424 . S
C198 H190 0.951 . S
C198 C197 1.424 . S
C198 C199 1.347 . S
C199 H191 0.951 . S
C199 C194 1.429 . S
C199 C198 1.347 . S
H200 C201 0.951 . S
C201 H200 0.951 . S
C201 C207 1.265 . S
H202 C207 0.950 . S
H203 C211 0.949 . S
H204 C212 0.950 . S
H205 C213 0.951 . S
H206 C214 0.951 . S
C207 C201 1.265 . S
C207 H202 0.950 . S
C207 C208 1.478 . S
C208 C207 1.478 . S
C208 C209 1.397 . S
C208 C225 1.394 . S
C209 C208 1.397 . S
C209 C210 1.438 . S
C209 C214 1.429 . S
C210 C209 1.438 . S
C210 C211 1.428 . S
C210 C223 1.394 . S
C211 H203 0.949 . S
C211 C210 1.428 . S
C211 C212 1.345 . S
C212 H204 0.950 . S
C212 C211 1.345 . S
C212 C213 1.424 . S
C213 H205 0.951 . S
C213 C212 1.424 . S
C213 C214 1.347 . S
C214 H206 0.951 . S
C214 C209 1.429 . S
C214 C213 1.347 . S
H215 C216 0.951 . S
C216 H215 0.951 . S
C216 C222 1.265 . S
H217 C222 0.950 . S
H218 C226 0.949 . S
H219 C227 0.950 . S
H220 C228 0.951 . S
H221 C229 0.951 . S
C222 C216 1.265 . S
C222 H217 0.950 . S
C222 C223 1.478 . S
C223 C210 1.394 . S
C223 C222 1.478 . S
C223 C224 1.397 . S
C224 C223 1.397 . S
C224 C225 1.438 . S
C224 C229 1.429 . S
C225 C208 1.394 . S
C225 C224 1.438 . S
C225 C226 1.428 . S
C226 H218 0.949 . S
C226 C225 1.428 . S
C226 C227 1.345 . S
C227 H219 0.950 . S
C227 C226 1.345 . S
C227 C228 1.424 . S
C228 H220 0.951 . S
C228 C227 1.424 . S
C228 C229 1.347 . S
C229 H221 0.951 . S
C229 C224 1.429 . S
C229 C228 1.347 . S
H230 C231 0.951 . S
C231 H230 0.951 . S
C231 C237 1.265 . S
H232 C237 0.950 . S
H233 C241 0.949 . S
H234 C242 0.950 . S
H235 C243 0.951 . S
H236 C244 0.951 . S
C237 C231 1.265 . S
C237 H232 0.950 . S
C237 C238 1.478 . S
C238 C237 1.478 . S
C238 C239 1.397 . S
C238 C255 1.394 . S
C239 C238 1.397 . S
C239 C240 1.438 . S
C239 C244 1.429 . S
C240 C239 1.438 . S
C240 C241 1.428 . S
C240 C253 1.394 . S
C241 H233 0.949 . S
C241 C240 1.428 . S
C241 C242 1.345 . S
C242 H234 0.950 . S
C242 C241 1.345 . S
C242 C243 1.424 . S
C243 H235 0.951 . S
C243 C242 1.424 . S
C243 C244 1.347 . S
C244 H236 0.951 . S
C244 C239 1.429 . S
C244 C243 1.347 . S
H245 C246 0.951 . S
C246 H245 0.951 . S
C246 C252 1.265 . S
H247 C252 0.950 . S
H248 C256 0.949 . S
H249 C257 0.950 . S
H250 C258 0.951 . S
H251 C259 0.951 . S
C252 C246 1.265 . S
C252 H247 0.950 . S
C252 C253 1.478 . S
C253 C240 1.394 . S
C253 C252 1.478 . S
C253 C254 1.397 . S
C254 C253 1.397 . S
C254 C255 1.438 . S
C254 C259 1.429 . S
C255 C238 1.394 . S
C255 C254 1.438 . S
C255 C256 1.428 . S
C256 H248 0.949 . S
C256 C255 1.428 . S
C256 C257 1.345 . S
C257 H249 0.950 . S
C257 C256 1.345 . S
C257 C258 1.424 . S
C258 H250 0.951 . S
C258 C257 1.424 . S
C258 C259 1.347 . S
C259 H251 0.951 . S
C259 C254 1.429 . S
C259 C258 1.347 . S
H260 C261 0.951 . S
C261 H260 0.951 . S
C261 C267 1.265 . S
H262 C267 0.950 . S
H263 C271 0.949 . S
H264 C272 0.950 . S
H265 C273 0.951 . S
H266 C274 0.951 . S
C267 C261 1.265 . S
C267 H262 0.950 . S
C267 C268 1.478 . S
C268 C267 1.478 . S
C268 C269 1.397 1_556 S
C268 C285 1.394 . S
C269 C268 1.397 1_554 S
C269 C270 1.438 1_565 S
C269 C274 1.429 . S
C270 C269 1.438 1_545 S
C270 C271 1.428 . S
C270 C283 1.394 . S
C271 H263 0.949 . S
C271 C270 1.428 . S
C271 C272 1.345 . S
C272 H264 0.950 . S
C272 C271 1.345 . S
C272 C273 1.424 1_545 S
C273 H265 0.951 . S
C273 C272 1.424 1_565 S
C273 C274 1.347 . S
C274 H266 0.951 . S
C274 C269 1.429 . S
C274 C273 1.347 . S
H275 C276 0.951 . S
C276 H275 0.951 . S
C276 C282 1.265 . S
H277 C282 0.950 1_556 S
H278 C286 0.949 . S
H279 C287 0.950 1_565 S
H280 C288 0.951 . S
H281 C289 0.951 . S
C282 C276 1.265 . S
C282 H277 0.950 1_554 S
C282 C283 1.478 . S
C283 C270 1.394 . S
C283 C282 1.478 . S
C283 C284 1.397 1_554 S
C284 C283 1.397 1_556 S
C284 C285 1.438 1_545 S
C284 C289 1.429 . S
C285 C268 1.394 . S
C285 C284 1.438 1_565 S
C285 C286 1.428 . S
C286 H278 0.949 . S
C286 C285 1.428 . S
C286 C287 1.345 1_565 S
C287 H279 0.950 1_545 S
C287 C286 1.345 1_545 S
C287 C288 1.424 . S
C288 H280 0.951 . S
C288 C287 1.424 . S
C288 C289 1.347 . S
C289 H281 0.951 . S
C289 C284 1.429 . S
C289 C288 1.347 . S
H290 C291 0.951 . S
C291 H290 0.951 . S
C291 C297 1.265 . S
H292 C297 0.950 1_455 S
H293 C301 0.949 . S
H294 C302 0.950 . S
H295 C303 0.951 . S
H296 C304 0.951 . S
C297 C291 1.265 . S
C297 H292 0.950 1_655 S
C297 C298 1.478 . S
C298 C297 1.478 . S
C298 C299 1.397 . S
C298 C315 1.394 . S
C299 C298 1.397 . S
C299 C300 1.438 1_565 S
C299 C304 1.429 1_655 S
C300 C299 1.438 1_545 S
C300 C301 1.428 . S
C300 C313 1.394 . S
C301 H293 0.949 . S
C301 C300 1.428 . S
C301 C302 1.345 1_645 S
C302 H294 0.950 . S
C302 C301 1.345 1_465 S
C302 C303 1.424 . S
C303 H295 0.951 . S
C303 C302 1.424 . S
C303 C304 1.347 . S
C304 H296 0.951 . S
C304 C299 1.429 1_455 S
C304 C303 1.347 . S
H305 C306 0.951 1_455 S
C306 H305 0.951 1_655 S
C306 C312 1.265 . S
H307 C312 0.950 . S
H308 C316 0.949 . S
H309 C317 0.950 1_565 S
H310 C318 0.951 . S
H311 C319 0.951 . S
C312 C306 1.265 . S
C312 H307 0.950 . S
C312 C313 1.478 . S
C313 C300 1.394 . S
C313 C312 1.478 . S
C313 C314 1.397 . S
C314 C313 1.397 . S
C314 C315 1.438 1_545 S
C314 C319 1.429 . S
C315 C298 1.394 . S
C315 C314 1.438 1_565 S
C315 C316 1.428 . S
C316 H308 0.949 . S
C316 C315 1.428 . S
C316 C317 1.345 1_565 S
C317 H309 0.950 1_545 S
C317 C316 1.345 1_545 S
C317 C318 1.424 . S
C318 H310 0.951 . S
C318 C317 1.424 . S
C318 C319 1.347 . S
C319 H311 0.951 . S
C319 C314 1.429 . S
C319 C318 1.347 . S
H320 C321 0.951 1_655 S
C321 H320 0.951 1_455 S
C321 C327 1.265 . S
H322 C327 0.950 . S
H323 C331 0.949 . S
H324 C332 0.950 . S
H325 C333 0.951 . S
H326 C334 0.951 1_554 S
C327 C321 1.265 . S
C327 H322 0.950 . S
C327 C328 1.478 1_554 S
C328 C327 1.478 1_556 S
C328 C329 1.397 . S
C328 C345 1.394 . S
C329 C328 1.397 . S
C329 C330 1.438 . S
C329 C334 1.429 . S
C330 C329 1.438 . S
C330 C331 1.428 . S
C330 C343 1.394 . S
C331 H323 0.949 . S
C331 C330 1.428 . S
C331 C332 1.345 . S
C332 H324 0.950 . S
C332 C331 1.345 . S
C332 C333 1.424 . S
C333 H325 0.951 . S
C333 C332 1.424 . S
C333 C334 1.347 . S
C334 H326 0.951 1_556 S
C334 C329 1.429 . S
C334 C333 1.347 . S
H335 C336 0.951 . S
C336 H335 0.951 . S
C336 C342 1.265 1_455 S
H337 C342 0.950 . S
H338 C346 0.955 . S
H339 C347 0.950 1_554 S
H340 C348 0.951 . S
H341 C349 0.951 . S
C342 C336 1.265 1_655 S
C342 H337 0.950 . S
C342 C343 1.478 1_655 S
C343 C330 1.394 . S
C343 C342 1.478 1_455 S
C343 C344 1.397 1_455 S
C344 C343 1.397 1_655 S
C344 C345 1.438 1_655 S
C344 C349 1.429 . S
C345 C328 1.394 . S
C345 C344 1.438 1_455 S
C345 C346 1.429 1_556 S
C346 H338 0.955 . S
C346 C345 1.429 1_554 S
C346 C347 1.338 1_454 S
C347 H339 0.950 1_556 S
C347 C346 1.338 1_656 S
C347 C348 1.424 . S
C348 H340 0.951 . S
C348 C347 1.424 . S
C348 C349 1.347 . S
C349 H341 0.951 . S
C349 C344 1.429 . S
C349 C348 1.347 . S
H350 C351 0.951 . S
C351 H350 0.951 . S
C351 C357 1.265 1_455 S
H352 C357 0.950 . S
H353 C361 0.949 . S
H354 C362 0.950 . S
H355 C363 0.951 . S
H356 C364 0.951 1_556 S
C357 C351 1.265 1_655 S
C357 H352 0.950 . S
C357 C358 1.478 1_556 S
C358 C357 1.478 1_554 S
C358 C359 1.396 1_655 S
C358 C375 1.394 1_655 S
C359 C358 1.396 1_455 S
C359 C360 1.442 . S
C359 C364 1.426 1_455 S
C360 C359 1.442 . S
C360 C361 1.428 . S
C360 C373 1.394 . S
C361 H353 0.949 . S
C361 C360 1.428 . S
C361 C362 1.345 . S
C362 H354 0.950 . S
C362 C361 1.345 . S
C362 C363 1.424 1_455 S
C363 H355 0.951 . S
C363 C362 1.424 1_655 S
C363 C364 1.347 . S
C364 H356 0.951 1_554 S
C364 C359 1.426 1_655 S
C364 C363 1.347 . S
H365 C366 0.951 1_655 S
C366 H365 0.951 1_455 S
C366 C372 1.265 . S
H367 C372 0.950 . S
H368 C376 0.949 1_656 S
H369 C377 0.950 . S
H370 C378 0.951 . S
H371 C379 0.951 . S
C372 C366 1.265 . S
C372 H367 0.950 . S
C372 C373 1.478 . S
C373 C360 1.394 . S
C373 C372 1.478 . S
C373 C374 1.397 . S
C374 C373 1.397 . S
C374 C375 1.438 . S
C374 C379 1.429 . S
C375 C358 1.394 1_455 S
C375 C374 1.438 . S
C375 C376 1.428 . S
C376 H368 0.949 1_454 S
C376 C375 1.428 . S
C376 C377 1.345 . S
C377 H369 0.950 . S
C377 C376 1.345 . S
C377 C378 1.424 . S
C378 H370 0.951 . S
C378 C377 1.424 . S
C378 C379 1.347 . S
C379 H371 0.951 . S
C379 C374 1.429 . S
C379 C378 1.347 . S
H380 C381 0.951 . S
C381 H380 0.951 . S
C381 C387 1.265 . S
H382 C387 0.950 . S
H383 C391 0.949 . S
H384 C392 0.950 . S
H385 C393 0.951 . S
H386 C394 0.951 . S
C387 C381 1.265 . S
C387 H382 0.950 . S
C387 C388 1.478 . S
C388 C387 1.478 . S
C388 C389 1.397 . S
C388 C405 1.394 . S
C389 C388 1.397 . S
C389 C390 1.438 . S
C389 C394 1.429 . S
C390 C389 1.438 . S
C390 C391 1.428 . S
C390 C403 1.394 . S
C391 H383 0.949 . S
C391 C390 1.428 . S
C391 C392 1.345 . S
C392 H384 0.950 . S
C392 C391 1.345 . S
C392 C393 1.424 . S
C393 H385 0.951 . S
C393 C392 1.424 . S
C393 C394 1.347 . S
C394 H386 0.951 . S
C394 C389 1.429 . S
C394 C393 1.347 . S
H395 C396 0.951 . S
C396 H395 0.951 . S
C396 C402 1.265 . S
H397 C402 0.950 . S
H398 C406 0.949 . S
H399 C407 0.950 . S
H400 C408 0.951 . S
H401 C409 0.951 . S
C402 C396 1.265 . S
C402 H397 0.950 . S
C402 C403 1.478 . S
C403 C390 1.394 . S
C403 C402 1.478 . S
C403 C404 1.397 . S
C404 C403 1.397 . S
C404 C405 1.438 . S
C404 C409 1.429 . S
C405 C388 1.394 . S
C405 C404 1.438 . S
C405 C406 1.428 . S
C406 H398 0.949 . S
C406 C405 1.428 . S
C406 C407 1.345 . S
C407 H399 0.950 . S
C407 C406 1.345 . S
C407 C408 1.424 . S
C408 H400 0.951 . S
C408 C407 1.424 . S
C408 C409 1.347 . S
C409 H401 0.951 . S
C409 C404 1.429 . S
C409 C408 1.347 . S
H410 C411 0.951 . S
C411 H410 0.951 . S
C411 C417 1.265 . S
H412 C417 0.950 . S
H413 C421 0.949 . S
H414 C422 0.950 . S
H415 C423 0.951 . S
H416 C424 0.951 . S
C417 C411 1.265 . S
C417 H412 0.950 . S
C417 C418 1.478 . S
C418 C417 1.478 . S
C418 C419 1.397 . S
C418 C435 1.394 . S
C419 C418 1.397 . S
C419 C420 1.438 . S
C419 C424 1.429 . S
C420 C419 1.438 . S
C420 C421 1.428 . S
C420 C433 1.394 . S
C421 H413 0.949 . S
C421 C420 1.428 . S
C421 C422 1.345 . S
C422 H414 0.950 . S
C422 C421 1.345 . S
C422 C423 1.424 . S
C423 H415 0.951 . S
C423 C422 1.424 . S
C423 C424 1.347 . S
C424 H416 0.951 . S
C424 C419 1.429 . S
C424 C423 1.347 . S
H425 C426 0.951 . S
C426 H425 0.951 . S
C426 C432 1.265 . S
H427 C432 0.950 . S
H428 C436 0.949 . S
H429 C437 0.950 . S
H430 C438 0.951 . S
H431 C439 0.951 . S
C432 C426 1.265 . S
C432 H427 0.950 . S
C432 C433 1.478 . S
C433 C420 1.394 . S
C433 C432 1.478 . S
C433 C434 1.397 . S
C434 C433 1.397 . S
C434 C435 1.438 . S
C434 C439 1.429 . S
C435 C418 1.394 . S
C435 C434 1.438 . S
C435 C436 1.428 . S
C436 H428 0.949 . S
C436 C435 1.428 . S
C436 C437 1.345 . S
C437 H429 0.950 . S
C437 C436 1.345 . S
C437 C438 1.424 . S
C438 H430 0.951 . S
C438 C437 1.424 . S
C438 C439 1.347 . S
C439 H431 0.951 . S
C439 C434 1.429 . S
C439 C438 1.347 . S
C81 C9 1.788 . S
C96 C22 1.701 . S
C111 C42 1.848 . S
C126 C32 1.851 . S
C141 C64 1.856 . S
C156 C52 1.848 . S
C171 C4 1.722 . S
C186 C69 1.762 . S
C201 C72 1.906 . S
C216 C2 1.893 . S
C231 C44 1.724 . S
C246 C29 1.761 . S
C261 C49 1.772 . S
C276 C62 1.769 . S
C291 C24 1.797 . S
C306 C12 1.883 . S
C321 C18 0.899 . S
C336 C19 0.899 . S
C351 C39 0.918 . S
C366 C38 0.918 . S
C381 C59 0.964 . S
C396 C58 0.964 . S
C411 C79 0.895 . S
C426 C78 0.895 . S
