# Generated by pormake.
# Topology bcu-j, (5)-cn, num edge types: 1
# Building blocks:
#     Node 0, Type 0, BuildingBlock: XOMCOT_clean_sbu_1, # of connection points: 5
#     Node 1, Type 0, BuildingBlock: XOMCOT_clean_sbu_1, # of connection points: 5
#     Node 2, Type 0, BuildingBlock: XOMCOT_clean_sbu_1, # of connection points: 5
#     Node 3, Type 0, BuildingBlock: XOMCOT_clean_sbu_1, # of connection points: 5
#     Node 4, Type 0, BuildingBlock: XOMCOT_clean_sbu_1, # of connection points: 5
#     Node 5, Type 0, BuildingBlock: XOMCOT_clean_sbu_1, # of connection points: 5
#     Node 6, Type 0, BuildingBlock: XOMCOT_clean_sbu_1, # of connection points: 5
#     Node 7, Type 0, BuildingBlock: XOMCOT_clean_sbu_1, # of connection points: 5
#     Node 8, Type 0, BuildingBlock: XOMCOT_clean_sbu_1, # of connection points: 5
#     Node 9, Type 0, BuildingBlock: XOMCOT_clean_sbu_1, # of connection points: 5
#     Node 10, Type 0, BuildingBlock: XOMCOT_clean_sbu_1, # of connection points: 5
#     Node 11, Type 0, BuildingBlock: XOMCOT_clean_sbu_1, # of connection points: 5
#     Node 12, Type 0, BuildingBlock: XOMCOT_clean_sbu_1, # of connection points: 5
#     Node 13, Type 0, BuildingBlock: XOMCOT_clean_sbu_1, # of connection points: 5
#     Node 14, Type 0, BuildingBlock: XOMCOT_clean_sbu_1, # of connection points: 5
#     Node 15, Type 0, BuildingBlock: XOMCOT_clean_sbu_1, # of connection points: 5
#     Edge 16, Type (0, 0), BuildingBlock: ZUJKAS_clean_linker_0, # of connection points: 2
#     Edge 17, Type (0, 0), BuildingBlock: ZUJKAS_clean_linker_0, # of connection points: 2
#     Edge 18, Type (0, 0), BuildingBlock: ZUJKAS_clean_linker_0, # of connection points: 2
#     Edge 19, Type (0, 0), BuildingBlock: ZUJKAS_clean_linker_0, # of connection points: 2
#     Edge 20, Type (0, 0), BuildingBlock: ZUJKAS_clean_linker_0, # of connection points: 2
#     Edge 21, Type (0, 0), BuildingBlock: ZUJKAS_clean_linker_0, # of connection points: 2
#     Edge 22, Type (0, 0), BuildingBlock: ZUJKAS_clean_linker_0, # of connection points: 2
#     Edge 23, Type (0, 0), BuildingBlock: ZUJKAS_clean_linker_0, # of connection points: 2
#     Edge 24, Type (0, 0), BuildingBlock: ZUJKAS_clean_linker_0, # of connection points: 2
#     Edge 25, Type (0, 0), BuildingBlock: ZUJKAS_clean_linker_0, # of connection points: 2
#     Edge 26, Type (0, 0), BuildingBlock: ZUJKAS_clean_linker_0, # of connection points: 2
#     Edge 27, Type (0, 0), BuildingBlock: ZUJKAS_clean_linker_0, # of connection points: 2
#     Edge 28, Type (0, 0), BuildingBlock: ZUJKAS_clean_linker_0, # of connection points: 2
#     Edge 29, Type (0, 0), BuildingBlock: ZUJKAS_clean_linker_0, # of connection points: 2
#     Edge 30, Type (0, 0), BuildingBlock: ZUJKAS_clean_linker_0, # of connection points: 2
#     Edge 31, Type (0, 0), BuildingBlock: ZUJKAS_clean_linker_0, # of connection points: 2
#     Edge 32, Type (0, 0), BuildingBlock: ZUJKAS_clean_linker_0, # of connection points: 2
#     Edge 33, Type (0, 0), BuildingBlock: ZUJKAS_clean_linker_0, # of connection points: 2
#     Edge 34, Type (0, 0), BuildingBlock: ZUJKAS_clean_linker_0, # of connection points: 2
#     Edge 35, Type (0, 0), BuildingBlock: ZUJKAS_clean_linker_0, # of connection points: 2
#     Edge 36, Type (0, 0), BuildingBlock: ZUJKAS_clean_linker_0, # of connection points: 2
#     Edge 37, Type (0, 0), BuildingBlock: ZUJKAS_clean_linker_0, # of connection points: 2
#     Edge 38, Type (0, 0), BuildingBlock: ZUJKAS_clean_linker_0, # of connection points: 2
#     Edge 39, Type (0, 0), BuildingBlock: ZUJKAS_clean_linker_0, # of connection points: 2
#     Edge 40, Type (0, 0), BuildingBlock: ZUJKAS_clean_linker_0, # of connection points: 2
#     Edge 41, Type (0, 0), BuildingBlock: ZUJKAS_clean_linker_0, # of connection points: 2
#     Edge 42, Type (0, 0), BuildingBlock: ZUJKAS_clean_linker_0, # of connection points: 2
#     Edge 43, Type (0, 0), BuildingBlock: ZUJKAS_clean_linker_0, # of connection points: 2
#     Edge 44, Type (0, 0), BuildingBlock: ZUJKAS_clean_linker_0, # of connection points: 2
#     Edge 45, Type (0, 0), BuildingBlock: ZUJKAS_clean_linker_0, # of connection points: 2
#     Edge 46, Type (0, 0), BuildingBlock: ZUJKAS_clean_linker_0, # of connection points: 2
#     Edge 47, Type (0, 0), BuildingBlock: ZUJKAS_clean_linker_0, # of connection points: 2
#     Edge 48, Type (0, 0), BuildingBlock: ZUJKAS_clean_linker_0, # of connection points: 2
#     Edge 49, Type (0, 0), BuildingBlock: ZUJKAS_clean_linker_0, # of connection points: 2
#     Edge 50, Type (0, 0), BuildingBlock: ZUJKAS_clean_linker_0, # of connection points: 2
#     Edge 51, Type (0, 0), BuildingBlock: ZUJKAS_clean_linker_0, # of connection points: 2
#     Edge 52, Type (0, 0), BuildingBlock: ZUJKAS_clean_linker_0, # of connection points: 2
#     Edge 53, Type (0, 0), BuildingBlock: ZUJKAS_clean_linker_0, # of connection points: 2
#     Edge 54, Type (0, 0), BuildingBlock: ZUJKAS_clean_linker_0, # of connection points: 2
#     Edge 55, Type (0, 0), BuildingBlock: ZUJKAS_clean_linker_0, # of connection points: 2
# Relax obj value: 0.634
# Max RMSD: 0.286
# Mean RMSD: 0.286
data_MOF--net-bcu-j--node1-XOMCOT_clean_sbu_1--edge1-ZUJKAS_clean_linker_0
_symmetry_space_group_name_H-M    P1
_symmetry_Int_Tables_number       1
_symmetry_cell_setting            triclinic
loop_
_symmetry_equiv_pos_as_xyz
'x, y, z'
_cell_length_a     55.678495
_cell_length_b     55.605235
_cell_length_c     56.791272
_cell_angle_alpha  90.030784
_cell_angle_beta   90.00638
_cell_angle_gamma 89.995256
loop_
_atom_site_label
_atom_site_type_symbol
_atom_site_fract_x
_atom_site_fract_y
_atom_site_fract_z
_atom_type_partial_charge
C0 C 0.03512 0.15617 0.58688 0.0
C1 C 0.05845 0.14898 0.58286 0.0
N2 N 0.0691 0.14506 0.60384 0.0
N3 N 0.0311 0.15667 0.61027 0.0
C4 C 0.05224 0.15037 0.62008 0.0
H5 H 0.02154 0.15942 0.57364 0.0
Co6 Co 0.00151 0.16033 0.62494 0.0
C7 C 0.01471 0.15112 0.67452 0.0
O8 O 0.00466 0.17129 0.68147 0.0
N9 N 0.97173 0.16374 0.63953 0.0
C10 C 0.93933 0.15647 0.66116 0.0
C11 C 0.95922 0.14643 0.65076 0.0
C12 C 0.9589 0.18401 0.64298 0.0
N13 N 0.93923 0.18023 0.65643 0.0
O14 O 0.01179 0.19082 0.63641 0.0
H15 H 0.96487 0.12789 0.65237 0.0
H16 H 0.96439 0.20143 0.63653 0.0
O17 O 0.01391 0.14506 0.6529 0.0
C18 C 0.01058 0.20802 0.62171 0.0
O19 O 0.00065 0.204 0.60108 0.0
N20 N 0.99197 0.13102 0.61224 0.0
C21 C 0.98454 0.09117 0.5837 0.0
C22 C 0.9979 0.08913 0.60451 0.0
C23 C 0.00163 0.10936 0.61846 0.0
C24 C 0.9776 0.13301 0.59295 0.0
C25 C 0.97367 0.11324 0.57831 0.0
H26 H 0.01361 0.10774 0.63326 0.0
H27 H 0.9705 0.15042 0.58809 0.0
H28 H 0.05504 0.14885 0.63884 0.0
H29 H 0.06636 0.14541 0.56581 0.0
H30 H 0.92695 0.14725 0.67274 0.0
H31 H 0.00695 0.07252 0.60904 0.0
H32 H 0.96322 0.11546 0.56237 0.0
C33 C 0.32945 0.05178 0.59324 0.0
C34 C 0.33867 0.07474 0.5919 0.0
N35 N 0.35648 0.07675 0.60787 0.0
N36 N 0.34137 0.03948 0.61 0.0
C37 C 0.35784 0.05508 0.61839 0.0
H38 H 0.31491 0.04456 0.58277 0.0
Co39 Co 0.3362 0.00802 0.61943 0.0
C40 C 0.35706 0.00595 0.6686 0.0
O41 O 0.35985 0.9825 0.66875 0.0
N42 N 0.33068 0.97603 0.6287 0.0
C43 C 0.33089 0.93611 0.63253 0.0
C44 C 0.34048 0.95537 0.62053 0.0
C45 C 0.31497 0.96874 0.64535 0.0
N46 N 0.31475 0.94466 0.648 0.0
O47 O 0.30491 0.017 0.62952 0.0
H48 H 0.35384 0.95411 0.60681 0.0
H49 H 0.30444 0.98095 0.65601 0.0
O50 O 0.34845 0.01637 0.65045 0.0
C51 C 0.28778 0.01256 0.61536 0.0
O52 O 0.29239 0.00035 0.59606 0.0
N53 N 0.36633 7e-05 0.60764 0.0
C54 C 0.40774 0.99496 0.58077 0.0
C55 C 0.40927 0.99902 0.60511 0.0
C56 C 0.38826 0.00171 0.61829 0.0
C57 C 0.36456 0.99535 0.58419 0.0
C58 C 0.38502 0.99251 0.57045 0.0
H59 H 0.38994 0.00635 0.6366 0.0
H60 H 0.34701 0.99452 0.57605 0.0
H61 H 0.37092 0.05051 0.63172 0.0
H62 H 0.33245 0.08891 0.58036 0.0
H63 H 0.33532 0.91733 0.62999 0.0
H64 H 0.4265 0.0014 0.61365 0.0
H65 H 0.38304 0.98907 0.55177 0.0
C66 C 0.46087 0.32481 0.59571 0.0
C67 C 0.43762 0.333 0.59335 0.0
N68 N 0.43462 0.35192 0.60793 0.0
N69 N 0.47238 0.3385 0.61171 0.0
C70 C 0.45602 0.35495 0.61862 0.0
H71 H 0.46878 0.30967 0.58662 0.0
Co72 Co 0.50361 0.33481 0.62241 0.0
C73 C 0.50377 0.36204 0.66862 0.0
O74 O 0.52663 0.36782 0.66769 0.0
N75 N 0.53516 0.33066 0.63305 0.0
C76 C 0.57493 0.3277 0.63622 0.0
C77 C 0.55624 0.33519 0.6221 0.0
C78 C 0.54152 0.32016 0.65352 0.0
N79 N 0.56553 0.31839 0.65604 0.0
O80 O 0.49485 0.30456 0.63536 0.0
H81 H 0.55814 0.34301 0.60482 0.0
H82 H 0.52864 0.31352 0.66622 0.0
O83 O 0.49428 0.34992 0.65195 0.0
C84 C 0.50047 0.28594 0.6236 0.0
O85 O 0.51375 0.28849 0.60463 0.0
N86 N 0.51156 0.36379 0.60788 0.0
C87 C 0.51632 0.40229 0.57694 0.0
C88 C 0.51025 0.40622 0.6006 0.0
C89 C 0.50771 0.38667 0.6158 0.0
C90 C 0.51805 0.35975 0.58512 0.0
C91 C 0.52081 0.37873 0.56939 0.0
H92 H 0.50111 0.39016 0.63324 0.0
H93 H 0.52023 0.34146 0.57896 0.0
H94 H 0.45978 0.3691 0.63114 0.0
H95 H 0.42388 0.32527 0.5822 0.0
H96 H 0.59389 0.32895 0.6322 0.0
H97 H 0.50602 0.42409 0.60697 0.0
H98 H 0.52565 0.37489 0.5513 0.0
C99 C 0.17922 0.44465 0.59456 0.0
C100 C 0.17104 0.42127 0.59354 0.0
N101 N 0.15241 0.41905 0.60855 0.0
N102 N 0.16582 0.45702 0.61017 0.0
C103 C 0.14954 0.44103 0.61819 0.0
H104 H 0.19409 0.45209 0.58473 0.0
Co105 Co 0.16931 0.48892 0.619 0.0
C106 C 0.14667 0.49137 0.66739 0.0
O107 O 0.14333 0.51475 0.66712 0.0
N108 N 0.17313 0.52138 0.62772 0.0
C109 C 0.1709 0.56133 0.6308 0.0
C110 C 0.16237 0.54137 0.61911 0.0
C111 C 0.18829 0.5298 0.64436 0.0
N112 N 0.18732 0.55391 0.64652 0.0
O113 O 0.20049 0.48145 0.63061 0.0
H114 H 0.14907 0.54169 0.60528 0.0
H115 H 0.19934 0.51839 0.65534 0.0
O116 O 0.15612 0.48086 0.64969 0.0
C117 C 0.21827 0.48651 0.61746 0.0
O118 O 0.21437 0.49835 0.59781 0.0
N119 N 0.13939 0.49532 0.60581 0.0
C120 C 0.09867 0.49914 0.57766 0.0
C121 C 0.09653 0.49528 0.60199 0.0
C122 C 0.11718 0.49328 0.61582 0.0
C123 C 0.14176 0.49962 0.58234 0.0
C124 C 0.12166 0.5018 0.56796 0.0
H125 H 0.11503 0.489 0.63415 0.0
H126 H 0.15953 0.5008 0.57472 0.0
H127 H 0.13556 0.44551 0.63064 0.0
H128 H 0.17854 0.40697 0.5829 0.0
H129 H 0.16562 0.57982 0.62786 0.0
H130 H 0.07912 0.49271 0.6101 0.0
H131 H 0.12415 0.50511 0.54932 0.0
C132 C 0.04516 0.31847 0.90184 0.0
C133 C 0.06833 0.32683 0.90445 0.0
N134 N 0.07092 0.34653 0.89085 0.0
N135 N 0.03338 0.33273 0.88652 0.0
C136 C 0.04948 0.34969 0.8803 0.0
H137 H 0.03746 0.30289 0.91038 0.0
Co138 Co 0.00219 0.3294 0.87563 0.0
C139 C 0.00283 0.35598 0.82908 0.0
O140 O 0.98003 0.36203 0.82985 0.0
N141 N 0.97063 0.3257 0.86479 0.0
C142 C 0.93084 0.325 0.86083 0.0
C143 C 0.94963 0.33139 0.87533 0.0
C144 C 0.96411 0.31542 0.84424 0.0
N145 N 0.94009 0.31516 0.84119 0.0
O146 O 0.01052 0.29869 0.86326 0.0
H147 H 0.94783 0.33962 0.89246 0.0
H148 H 0.97688 0.30832 0.83166 0.0
O149 O 0.01211 0.34393 0.84592 0.0
C150 C 0.00427 0.28052 0.8754 0.0
O151 O 0.99041 0.28392 0.89384 0.0
N152 N 0.99461 0.35882 0.88969 0.0
C153 C 0.98958 0.39807 0.91977 0.0
C154 C 0.99572 0.40143 0.89605 0.0
C155 C 0.99838 0.38153 0.8813 0.0
C156 C 0.98817 0.35531 0.91256 0.0
C157 C 0.98529 0.37467 0.92785 0.0
H158 H 0.00494 0.38466 0.86379 0.0
H159 H 0.98598 0.33717 0.91909 0.0
H160 H 0.04573 0.3639 0.86786 0.0
H161 H 0.08211 0.3191 0.91555 0.0
H162 H 0.91193 0.3277 0.86433 0.0
H163 H -0.00019 0.41916 0.88925 0.0
H164 H 0.98039 0.37126 0.946 0.0
C165 C 0.17389 0.04376 0.91155 0.0
C166 C 0.16407 0.0664 0.91391 0.0
N167 N 0.14737 0.0693 0.89696 0.0
N168 N 0.1634 0.03252 0.89322 0.0
C169 C 0.14725 0.04846 0.88483 0.0
H170 H 0.18787 0.03602 0.92238 0.0
Co171 Co 0.17023 0.00186 0.88228 0.0
C172 C 0.14568 0.00032 0.83488 0.0
O173 O 0.14051 0.9773 0.83613 0.0
N174 N 0.17761 0.97088 0.87147 0.0
C175 C 0.18387 0.9315 0.86762 0.0
C176 C 0.1749 0.94927 0.88205 0.0
C177 C 0.18874 0.96577 0.85097 0.0
N178 N 0.19236 0.942 0.84799 0.0
O179 O 0.20053 0.01307 0.87167 0.0
H180 H 0.16717 0.94635 0.89923 0.0
H181 H 0.1942 0.97938 0.83844 0.0
O182 O 0.15672 0.01058 0.85183 0.0
C183 C 0.2186 0.00863 0.88463 0.0
O184 O 0.21565 0.9951 0.90337 0.0
N185 N 0.14088 0.99145 0.89448 0.0
C186 C 0.10051 0.9815 0.9217 0.0
C187 C 0.09806 0.98983 0.89854 0.0
C188 C 0.11849 0.99506 0.8853 0.0
C189 C 0.14354 0.9833 0.91693 0.0
C190 C 0.12363 0.97786 0.93076 0.0
H191 H 0.11589 0.00347 0.86848 0.0
H192 H 0.16136 0.98173 0.92437 0.0
H193 H 0.13524 0.04476 0.87032 0.0
H194 H 0.16913 0.07977 0.92685 0.0
H195 H 0.1839 0.91238 0.87117 0.0
H196 H 0.08054 0.99375 0.89119 0.0
H197 H 0.12632 0.97159 0.94862 0.0
C198 C 0.45684 0.17909 0.90634 0.0
C199 C 0.43349 0.17127 0.90904 0.0
N200 N 0.42967 0.1532 0.89367 0.0
N201 N 0.46755 0.16594 0.8894 0.0
C202 C 0.45061 0.15026 0.88217 0.0
H203 H 0.46547 0.1934 0.91608 0.0
Co204 Co 0.49885 0.16874 0.87877 0.0
C205 C 0.49893 0.14095 0.83302 0.0
O206 O 0.5216 0.13458 0.83469 0.0
N207 N 0.53056 0.17201 0.86824 0.0
C208 C 0.5704 0.17318 0.86487 0.0
C209 C 0.55148 0.16648 0.87905 0.0
C210 C 0.53728 0.18235 0.84779 0.0
N211 N 0.56134 0.18302 0.84514 0.0
O212 O 0.49087 0.19912 0.8656 0.0
H213 H 0.55314 0.15836 0.89622 0.0
H214 H 0.52464 0.1895 0.83513 0.0
O215 O 0.48932 0.15363 0.84922 0.0
C216 C 0.49639 0.21768 0.8775 0.0
O217 O 0.50924 0.21497 0.89674 0.0
N218 N 0.50594 0.13961 0.89356 0.0
C219 C 0.5096 0.1011 0.9247 0.0
C220 C 0.50305 0.0973 0.90114 0.0
C221 C 0.50103 0.11685 0.88587 0.0
C222 C 0.51273 0.14353 0.91627 0.0
C223 C 0.51495 0.12453 0.93209 0.0
H224 H 0.49399 0.11352 0.86857 0.0
H225 H 0.51564 0.16176 0.92232 0.0
H226 H 0.45368 0.13645 0.86911 0.0
H227 H 0.42034 0.17847 0.92118 0.0
H228 H 0.5893 0.17091 0.86875 0.0
H229 H 0.49809 0.07957 0.8949 0.0
H230 H 0.52012 0.12827 0.95011 0.0
C231 C 0.32297 0.45176 0.90057 0.0
C232 C 0.33233 0.4289 0.90267 0.0
N233 N 0.35099 0.42686 0.88767 0.0
N234 N 0.33568 0.46397 0.88432 0.0
C235 C 0.3527 0.44842 0.87696 0.0
H236 H 0.30776 0.45895 0.9101 0.0
Co237 Co 0.3304 0.4952 0.87425 0.0
C238 C 0.35616 0.49743 0.82738 0.0
O239 O 0.36092 0.52053 0.82887 0.0
N240 N 0.32459 0.52678 0.86434 0.0
C241 C 0.31984 0.56649 0.86211 0.0
C242 C 0.32823 0.5478 0.87576 0.0
C243 C 0.3136 0.53314 0.84411 0.0
N244 N 0.31085 0.55713 0.84214 0.0
O245 O 0.30001 0.48543 0.86226 0.0
H246 H 0.33613 0.54964 0.89302 0.0
H247 H 0.30753 0.52028 0.83109 0.0
O248 O 0.34488 0.48691 0.84403 0.0
C249 C 0.28183 0.49085 0.87472 0.0
O250 O 0.28493 0.50463 0.89329 0.0
N251 N 0.35956 0.50409 0.88794 0.0
C252 C 0.39892 0.50961 0.9177 0.0
C253 C 0.4022 0.50413 0.89381 0.0
C254 C 0.38225 0.50117 0.87923 0.0
C255 C 0.35613 0.51004 0.91095 0.0
C256 C 0.37553 0.51314 0.9261 0.0
H257 H 0.38537 0.49493 0.8616 0.0
H258 H 0.33803 0.51143 0.91776 0.0
H259 H 0.36636 0.45291 0.86418 0.0
H260 H 0.32561 0.41479 0.91402 0.0
H261 H 0.32044 0.58544 0.86647 0.0
H262 H 0.41994 0.50063 0.88678 0.0
H263 H 0.3722 0.51747 0.94441 0.0
C264 C 0.96376 0.84208 0.41842 0.0
C265 C 0.93984 0.84377 0.42436 0.0
N266 N 0.92662 0.84157 0.40459 0.0
N267 N 0.96573 0.83937 0.39486 0.0
C268 C 0.94278 0.83774 0.3873 0.0
H269 H 0.9785 0.84375 0.43061 0.0
Co270 Co 0.99254 0.83947 0.3745 0.0
C271 C 0.96024 0.8775 0.35465 0.0
O272 O 0.95548 0.88567 0.37588 0.0
N273 N 0.0188 0.83889 0.35437 0.0
C274 C 0.04586 0.84746 0.32691 0.0
C275 C 0.02641 0.85598 0.33923 0.0
C276 C 0.03388 0.82023 0.35096 0.0
N277 N 0.05044 0.82489 0.33422 0.0
O278 O 0.9795 0.81174 0.35943 0.0
H279 H 0.01778 0.87312 0.3364 0.0
H280 H 0.03223 0.80319 0.35997 0.0
O281 O 0.975 0.86002 0.35199 0.0
C282 C 0.9832 0.79248 0.37096 0.0
O283 O 0.99656 0.79359 0.39002 0.0
N284 N 0.00644 0.86559 0.39048 0.0
C285 C 0.02337 0.90028 0.4216 0.0
C286 C 0.01487 0.90685 0.39926 0.0
C287 C 0.00698 0.88914 0.38372 0.0
C288 C 0.01779 0.85868 0.41061 0.0
C289 C 0.02606 0.87575 0.42669 0.0
H290 H 0.00072 0.89476 0.36668 0.0
H291 H 0.01898 0.83976 0.4149 0.0
H292 H 0.93809 0.83612 0.36889 0.0
H293 H 0.93288 0.84767 0.44174 0.0
H294 H 0.05482 0.8565 0.3125 0.0
H295 H 0.01297 0.92552 0.39421 0.0
H296 H 0.03347 0.8698 0.44333 0.0
C297 C 0.68197 0.9445 0.39786 0.0
C298 C 0.67189 0.92203 0.40075 0.0
N299 N 0.65102 0.92142 0.38871 0.0
N300 N 0.66758 0.95779 0.38392 0.0
C301 C 0.64889 0.9433 0.37878 0.0
H302 H 0.69872 0.95071 0.40536 0.0
Co303 Co 0.67218 0.98904 0.37359 0.0
C304 C 0.64352 0.99099 0.32812 0.0
O305 O 0.63988 0.01433 0.32868 0.0
N306 N 0.67707 0.0207 0.36334 0.0
C307 C 0.67857 0.06058 0.3603 0.0
C308 C 0.67164 0.0416 0.37427 0.0
C309 C 0.6877 0.02748 0.34307 0.0
N310 N 0.68855 0.05162 0.34058 0.0
O311 O 0.70136 0.97905 0.35921 0.0
H312 H 0.66311 0.04318 0.39127 0.0
H313 H 0.69459 0.0148 0.3303 0.0
O314 O 0.65524 0.98077 0.34465 0.0
C315 C 0.72062 0.98393 0.37025 0.0
O316 O 0.71947 0.99836 0.38855 0.0
N317 N 0.64438 0.99798 0.38962 0.0
C318 C 0.60755 0.00378 0.42223 0.0
C319 C 0.60234 0.00014 0.39831 0.0
C320 C 0.62106 0.99712 0.38223 0.0
C321 C 0.64973 0.00225 0.41263 0.0
C322 C 0.63162 0.00542 0.42922 0.0
H323 H 0.61647 0.99271 0.36438 0.0
H324 H 0.66831 0.00239 0.41821 0.0
H325 H 0.6341 0.9486 0.36761 0.0
H326 H 0.67924 0.90742 0.41107 0.0
H327 H 0.67608 0.07946 0.36423 0.0
H328 H 0.58398 0.99828 0.39226 0.0
H329 H 0.63644 0.00845 0.44746 0.0
C330 C 0.54046 0.68074 0.39719 0.0
C331 C 0.56399 0.67311 0.39857 0.0
N332 N 0.56675 0.65423 0.38391 0.0
N333 N 0.52857 0.66671 0.38176 0.0
C334 C 0.54499 0.65067 0.37413 0.0
H335 H 0.53256 0.69563 0.4067 0.0
Co336 Co 0.49666 0.66922 0.37292 0.0
C337 C 0.49523 0.64291 0.32606 0.0
O338 O 0.47273 0.63606 0.3279 0.0
N339 N 0.46439 0.67222 0.36433 0.0
C340 C 0.42445 0.67469 0.36458 0.0
C341 C 0.44446 0.66807 0.37731 0.0
C342 C 0.45606 0.68173 0.34408 0.0
N343 N 0.43191 0.68304 0.34362 0.0
O344 O 0.50332 0.70011 0.36023 0.0
H345 H 0.4443 0.66123 0.39509 0.0
H346 H 0.4676 0.68804 0.33003 0.0
O347 O 0.50496 0.65511 0.34256 0.0
C348 C 0.49713 0.71812 0.37262 0.0
O349 O 0.48418 0.71442 0.39163 0.0
N350 N 0.49084 0.63959 0.38721 0.0
C351 C 0.4896 0.60018 0.41738 0.0
C352 C 0.49398 0.59705 0.39326 0.0
C353 C 0.49476 0.61705 0.37845 0.0
C354 C 0.48598 0.64285 0.41048 0.0
C355 C 0.48502 0.6234 0.42586 0.0
H356 H 0.50009 0.61419 0.3605 0.0
H357 H 0.48373 0.66089 0.41727 0.0
H358 H 0.54098 0.63631 0.36191 0.0
H359 H 0.57799 0.68108 0.40923 0.0
H360 H 0.40593 0.67355 0.37028 0.0
H361 H 0.4982 0.57949 0.38612 0.0
H362 H 0.48143 0.62661 0.44434 0.0
C363 C 0.81888 0.5536 0.40339 0.0
C364 C 0.82652 0.57718 0.40433 0.0
N365 N 0.8436 0.58027 0.38779 0.0
N366 N 0.83115 0.542 0.38638 0.0
C367 C 0.84619 0.55866 0.37738 0.0
H368 H 0.80513 0.54547 0.41423 0.0
Co369 Co 0.82734 0.51019 0.37739 0.0
C370 C 0.85455 0.50692 0.33149 0.0
O371 O 0.86068 0.48429 0.33442 0.0
N372 N 0.823 0.478 0.36846 0.0
C373 C 0.82049 0.43804 0.36683 0.0
C374 C 0.82765 0.4574 0.38025 0.0
C375 C 0.81265 0.47066 0.34821 0.0
N376 N 0.81122 0.44651 0.34659 0.0
O377 O 0.79703 0.51828 0.36427 0.0
H378 H 0.83551 0.45625 0.39758 0.0
H379 H 0.8061 0.48294 0.3349 0.0
O380 O 0.84216 0.51766 0.34721 0.0
C381 C 0.77857 0.51355 0.3766 0.0
O382 O 0.78135 0.50157 0.39636 0.0
N383 N 0.85648 0.50303 0.39204 0.0
C384 C 0.89553 0.49753 0.4222 0.0
C385 C 0.899 0.50412 0.39861 0.0
C386 C 0.87918 0.50715 0.38386 0.0
C387 C 0.85283 0.49673 0.41492 0.0
C388 C 0.87209 0.49358 0.43025 0.0
H389 H 0.88234 0.5141 0.36649 0.0
H390 H 0.83467 0.49462 0.4214 0.0
H391 H 0.85917 0.555 0.36369 0.0
H392 H 0.81974 0.59103 0.41596 0.0
H393 H 0.82212 0.41925 0.37153 0.0
H394 H 0.91678 0.50811 0.39193 0.0
H395 H 0.8686 0.48852 0.44835 0.0
C396 C 0.95133 0.67687 0.09438 0.0
C397 C 0.92805 0.66854 0.09273 0.0
N398 N 0.92525 0.65058 0.10843 0.0
N399 N 0.96302 0.6642 0.11103 0.0
C400 C 0.94674 0.64823 0.11908 0.0
H401 H 0.95917 0.69135 0.08426 0.0
Co402 Co 0.99451 0.66823 0.12084 0.0
C403 C 0.99594 0.64189 0.16746 0.0
O404 O 0.01853 0.63533 0.16546 0.0
N405 N 0.02634 0.67274 0.13054 0.0
C406 C 0.06618 0.67576 0.13259 0.0
C407 C 0.04707 0.66888 0.11873 0.0
C408 C 0.03332 0.68243 0.15122 0.0
N409 N 0.05739 0.68402 0.1531 0.0
O410 O 0.98606 0.69894 0.13303 0.0
H411 H 0.04844 0.66182 0.10108 0.0
H412 H 0.02087 0.68839 0.16465 0.0
O413 O 0.98599 0.65409 0.1511 0.0
C414 C 0.99111 0.71701 0.12025 0.0
O415 O 0.00403 0.71363 0.10116 0.0
N416 N 0.00208 0.6387 0.10701 0.0
C417 C 0.00654 0.59912 0.07725 0.0
C418 C 0.0002 0.59606 0.10096 0.0
C419 C 0.99777 0.61613 0.11552 0.0
C420 C 0.00858 0.64191 0.08412 0.0
C421 C 0.01122 0.62238 0.069 0.0
H422 H 0.99086 0.61328 0.13295 0.0
H423 H 0.0109 0.65996 0.07738 0.0
H424 H 0.95063 0.63479 0.13228 0.0
H425 H 0.91421 0.67545 0.08119 0.0
H426 H 0.08503 0.67468 0.12802 0.0
H427 H 0.99572 0.57846 0.10785 0.0
H428 H 0.01619 0.62556 0.05082 0.0
C429 C 0.81752 0.95098 0.08626 0.0
C430 C 0.82614 0.92778 0.08484 0.0
N431 N 0.84303 0.92488 0.10162 0.0
N432 N 0.82896 0.96257 0.10381 0.0
C433 C 0.84438 0.94624 0.11277 0.0
H434 H 0.80393 0.95896 0.07512 0.0
Co435 Co 0.82462 0.99439 0.11252 0.0
C436 C 0.85049 0.99871 0.15879 0.0
O437 O 0.85721 0.02097 0.15467 0.0
N438 N 0.81973 0.02659 0.12114 0.0
C439 C 0.81757 0.06655 0.12353 0.0
C440 C 0.82495 0.04738 0.1099 0.0
C441 C 0.80878 0.03362 0.14116 0.0
N442 N 0.80764 0.05772 0.14331 0.0
O443 O 0.79389 0.98618 0.1245 0.0
H444 H 0.83358 0.04881 0.09296 0.0
H445 H 0.80189 0.02112 0.1541 0.0
O446 O 0.83828 0.98725 0.14339 0.0
C447 C 0.77585 0.99086 0.11157 0.0
O448 O 0.77923 0.00291 0.09195 0.0
N449 N 0.85427 0.00158 0.09896 0.0
C450 C 0.89407 0.0037 0.06939 0.0
C451 C 0.89671 0.99749 0.09317 0.0
C452 C 0.87652 0.99621 0.10763 0.0
C453 C 0.85149 0.00811 0.07602 0.0
C454 C 0.87117 0.00961 0.06097 0.0
H455 H 0.87893 0.9891 0.12505 0.0
H456 H 0.83363 0.01115 0.06913 0.0
H457 H 0.85696 0.95012 0.12676 0.0
H458 H 0.82036 0.91414 0.07248 0.0
H459 H 0.81975 0.08542 0.11942 0.0
H460 H 0.91396 0.99205 0.10018 0.0
H461 H 0.86835 0.01448 0.04272 0.0
C462 C 0.53813 0.82045 0.09454 0.0
C463 C 0.56116 0.82906 0.09164 0.0
N464 N 0.56438 0.84754 0.1067 0.0
N465 N 0.52701 0.83345 0.11134 0.0
C466 C 0.54338 0.84988 0.11825 0.0
H467 H 0.53001 0.80568 0.08504 0.0
Co468 Co 0.49588 0.82974 0.12213 0.0
C469 C 0.49627 0.85308 0.17031 0.0
O470 O 0.47298 0.85674 0.17106 0.0
N471 N 0.46417 0.82565 0.13273 0.0
C472 C 0.42435 0.82616 0.1368 0.0
C473 C 0.44351 0.83498 0.12415 0.0
C474 C 0.45701 0.81107 0.15038 0.0
N475 N 0.43296 0.811 0.15318 0.0
O476 O 0.50442 0.79868 0.13344 0.0
H477 H 0.44214 0.84724 0.10948 0.0
H478 H 0.46929 0.80099 0.16135 0.0
O479 O 0.50575 0.84324 0.15225 0.0
C480 C 0.49879 0.78071 0.12072 0.0
O481 O 0.48521 0.78427 0.10211 0.0
N482 N 0.48839 0.85957 0.10916 0.0
C483 C 0.48436 0.89999 0.08056 0.0
C484 C 0.4893 0.90241 0.10468 0.0
C485 C 0.49138 0.88191 0.11873 0.0
C486 C 0.48278 0.85697 0.08598 0.0
C487 C 0.48042 0.87692 0.0714 0.0
H488 H 0.49676 0.88425 0.13676 0.0
H489 H 0.48091 0.8391 0.07865 0.0
H490 H 0.53979 0.86373 0.13114 0.0
H491 H 0.57452 0.82211 0.07959 0.0
H492 H 0.40557 0.83016 0.13385 0.0
H493 H 0.49289 0.91987 0.11238 0.0
H494 H 0.47626 0.87422 0.05296 0.0
C495 C 0.67699 0.54786 0.09595 0.0
C496 C 0.66789 0.57076 0.09318 0.0
N497 N 0.64744 0.57242 0.10578 0.0
N498 N 0.66243 0.53534 0.11039 0.0
C499 C 0.64455 0.55071 0.1159 0.0
H500 H 0.69327 0.54087 0.08813 0.0
Co501 Co 0.66633 0.50412 0.12116 0.0
C502 C 0.63915 0.50404 0.1675 0.0
O503 O 0.63446 0.48089 0.16732 0.0
N504 N 0.67061 0.47259 0.13185 0.0
C505 C 0.67283 0.43275 0.13519 0.0
C506 C 0.66568 0.45152 0.121 0.0
C507 C 0.68112 0.46615 0.15229 0.0
N508 N 0.68236 0.44208 0.15495 0.0
O509 O 0.69635 0.5132 0.13444 0.0
H510 H 0.6576 0.44972 0.1038 0.0
H511 H 0.68785 0.47899 0.165 0.0
O512 O 0.65075 0.51354 0.15049 0.0
C513 C 0.71511 0.50746 0.12297 0.0
O514 O 0.71282 0.49385 0.10417 0.0
N515 N 0.6376 0.49582 0.10632 0.0
C516 C 0.59925 0.49085 0.07527 0.0
C517 C 0.59518 0.49549 0.09922 0.0
C518 C 0.61465 0.49809 0.11449 0.0
C519 C 0.64182 0.49051 0.08329 0.0
C520 C 0.62292 0.48775 0.06747 0.0
H521 H 0.61094 0.5034 0.13229 0.0
H522 H 0.66013 0.48931 0.07703 0.0
H523 H 0.62988 0.54624 0.12756 0.0
H524 H 0.67567 0.58499 0.08266 0.0
H525 H 0.67099 0.41377 0.13136 0.0
H526 H 0.5772 0.49852 0.10586 0.0
H527 H 0.62686 0.48394 0.04917 0.0
H528 H 0.04192 0.11154 0.66456 0.0
H529 H 0.06446 0.08646 0.69184 0.0
H530 H 0.04123 0.13085 0.7498 0.0
H531 H 0.0182 0.15608 0.72252 0.0
H532 H 0.10172 0.10009 0.72203 0.0
H533 H 0.0242 0.06214 0.77125 0.0
H534 H 0.0208 0.0773 0.74334 0.0
H535 H 0.02522 0.09441 0.76983 0.0
C536 C 0.04132 0.11593 0.68311 0.0
C537 C 0.02802 0.13574 0.69136 0.0
C538 C 0.05436 0.10159 0.69868 0.0
C539 C 0.05428 0.10661 0.72285 0.0
C540 C 0.04117 0.12643 0.73123 0.0
H541 H 0.15218 0.04848 0.82749 0.0
H542 H 0.13074 0.07426 0.79976 0.0
C543 C 0.02812 0.14088 0.71561 0.0
C544 C 0.06833 0.09121 0.73908 0.0
H545 H 0.06301 0.05213 0.78513 0.0
C546 C 0.09329 0.08962 0.73586 0.0
C547 C 0.05721 0.07737 0.75689 0.0
C548 C 0.03036 0.07765 0.7605 0.0
C549 C 0.10746 0.07464 0.75009 0.0
C550 C 0.09639 0.06112 0.76815 0.0
C551 C 0.07143 0.0626 0.77129 0.0
C552 C 0.11036 0.04529 0.78402 0.0
C553 C 0.13409 0.07305 0.74542 0.0
C554 C 0.10594 0.02045 0.78441 0.0
C555 C 0.11811 0.00562 0.80032 0.0
C556 C 0.13474 0.01544 0.81628 0.0
C557 C 0.13948 0.0403 0.81546 0.0
C558 C 0.12733 0.05508 0.79955 0.0
H559 H 0.13882 0.07997 0.72766 0.0
H560 H 0.14383 0.084 0.75868 0.0
H561 H 0.14047 0.05419 0.74694 0.0
H562 H 0.09286 0.01258 0.77257 0.0
H563 H 0.11398 0.98659 0.80051 0.0
H564 H 0.35436 0.05479 0.67397 0.0
H565 H 0.37608 0.07976 0.70227 0.0
H566 H 0.40604 0.01615 0.73422 0.0
H567 H 0.38437 0.99095 0.70597 0.0
H568 H 0.39014 0.05164 0.76696 0.0
H569 H 0.44926 0.09016 0.69762 0.0
H570 H 0.41756 0.09317 0.69251 0.0
H571 H 0.431 0.06381 0.69269 0.0
C572 C 0.36548 0.04605 0.68707 0.0
C573 C 0.3679 0.02085 0.68747 0.0
C574 C 0.37792 0.06038 0.7032 0.0
C575 C 0.39302 0.04981 0.72003 0.0
C576 C 0.39459 0.02465 0.72124 0.0
H577 H 0.5115 0.10808 0.79925 0.0
H578 H 0.48487 0.08714 0.7718 0.0
C579 C 0.38217 0.01028 0.70509 0.0
C580 C 0.40783 0.06494 0.7359 0.0
H581 H 0.45432 0.10502 0.73626 0.0
C582 C 0.40412 0.06339 0.76029 0.0
C583 C 0.42617 0.08008 0.72709 0.0
C584 C 0.43146 0.08185 0.70107 0.0
C585 C 0.41829 0.0766 0.77616 0.0
C586 C 0.43655 0.09186 0.76733 0.0
C587 C 0.44023 0.09341 0.74294 0.0
C588 C 0.45268 0.10558 0.78318 0.0
C589 C 0.41402 0.07368 0.80226 0.0
C590 C 0.4435 0.12337 0.79821 0.0
C591 C 0.45868 0.13544 0.81387 0.0
C592 C 0.48335 0.12993 0.8148 0.0
C593 C 0.49261 0.11271 0.79909 0.0
C594 C 0.47741 0.1007 0.7834 0.0
H595 H 0.40307 0.05747 0.80624 0.0
H596 H 0.43131 0.07234 0.81193 0.0
H597 H 0.40423 0.08964 0.80902 0.0
H598 H 0.42455 0.12778 0.79798 0.0
H599 H 0.45097 0.1488 0.82551 0.0
H600 H 0.38568 0.5126 0.79176 0.0
H601 H 0.40838 0.48758 0.76419 0.0
H602 H 0.37622 0.42387 0.79378 0.0
H603 H 0.3533 0.44867 0.82128 0.0
H604 H 0.42713 0.42265 0.79115 0.0
H605 H 0.38574 0.44886 0.70598 0.0
H606 H 0.39506 0.47368 0.72409 0.0
H607 H 0.37135 0.45426 0.734 0.0
C608 C 0.38313 0.4933 0.79219 0.0
C609 C 0.36779 0.48266 0.80887 0.0
C610 C 0.39608 0.47903 0.77636 0.0
C611 C 0.39387 0.45389 0.77688 0.0
C612 C 0.37814 0.44325 0.79309 0.0
H613 H 0.45551 0.35517 0.67449 0.0
H614 H 0.4287 0.37612 0.70164 0.0
C615 C 0.36507 0.45748 0.8088 0.0
C616 C 0.40907 0.43866 0.7615 0.0
H617 H 0.42195 0.42625 0.70401 0.0
C618 C 0.42594 0.42332 0.77209 0.0
C619 C 0.40726 0.4394 0.73669 0.0
C620 C 0.38874 0.45476 0.72445 0.0
C621 C 0.4415 0.40913 0.75847 0.0
C622 C 0.44028 0.41052 0.73364 0.0
C623 C 0.42299 0.42539 0.72306 0.0
C624 C 0.45688 0.39683 0.71826 0.0
C625 C 0.45898 0.39263 0.77076 0.0
C626 C 0.48166 0.40146 0.71867 0.0
C627 C 0.49708 0.38959 0.70306 0.0
C628 C 0.48795 0.37296 0.68669 0.0
C629 C 0.46316 0.36797 0.68675 0.0
C630 C 0.44777 0.37992 0.70226 0.0
H631 H 0.45358 0.3891 0.78927 0.0
H632 H 0.4605 0.37518 0.76134 0.0
H633 H 0.477 0.40116 0.77099 0.0
H634 H 0.489 0.41473 0.73065 0.0
H635 H 0.51604 0.39392 0.70345 0.0
H636 H 0.99048 0.38615 0.79295 0.0
H637 H 0.01746 0.40669 0.76559 0.0
H638 H 0.07825 0.37102 0.79709 0.0
H639 H 0.05149 0.35043 0.82457 0.0
H640 H 0.0843 0.42058 0.79272 0.0
H641 H 0.05398 0.38016 0.7085 0.0
H642 H 0.03 0.39256 0.72583 0.0
H643 H 0.04672 0.36728 0.73681 0.0
C644 C 0.00955 0.38241 0.79389 0.0
C645 C 0.0188 0.36668 0.81102 0.0
C646 C 0.02494 0.39412 0.77816 0.0
C647 C 0.04983 0.39021 0.77917 0.0
C648 C 0.05908 0.37423 0.79598 0.0
H649 H 0.15025 0.44271 0.6734 0.0
H650 H 0.12866 0.41768 0.70168 0.0
C651 C 0.04372 0.36246 0.81165 0.0
C652 C 0.06628 0.40371 0.76348 0.0
H653 H 0.07891 0.41489 0.7057 0.0
C654 C 0.08324 0.41924 0.77369 0.0
C655 C 0.0651 0.40167 0.73868 0.0
C656 C 0.04814 0.38435 0.72676 0.0
C657 C 0.09856 0.43335 0.75973 0.0
C658 C 0.09663 0.43208 0.73493 0.0
C659 C 0.08018 0.41601 0.72473 0.0
C660 C 0.11119 0.44751 0.71914 0.0
C661 C 0.11676 0.44937 0.77162 0.0
C662 C 0.10865 0.47262 0.71968 0.0
C663 C 0.12089 0.48702 0.70343 0.0
C664 C 0.13576 0.47653 0.68624 0.0
C665 C 0.13878 0.45139 0.68624 0.0
C666 C 0.12649 0.43703 0.70242 0.0
H667 H 0.12027 0.44363 0.79004 0.0
H668 H 0.134 0.44943 0.7618 0.0
H669 H 0.10979 0.46806 0.77209 0.0
H670 H 0.09661 0.48105 0.73218 0.0
H671 H 0.11808 0.50629 0.70389 0.0
H672 H 0.92798 0.91444 0.35464 0.0
H673 H 0.90839 0.93301 0.32082 0.0
H674 H 0.94552 0.88434 0.27421 0.0
H675 H 0.96567 0.86585 0.30802 0.0
H676 H 0.94734 0.93094 0.25897 0.0
H677 H 0.85393 0.90591 0.28124 0.0
H678 H 0.86792 0.92279 0.30436 0.0
H679 H 0.87945 0.89356 0.29666 0.0
C680 C 0.93201 0.90761 0.33722 0.0
C681 C 0.9484 0.88864 0.33403 0.0
C682 C 0.92061 0.91815 0.31791 0.0
C683 C 0.92516 0.90978 0.29504 0.0
C684 C 0.94163 0.89095 0.29174 0.0
H685 H 0.84356 0.95147 0.17058 0.0
H686 H 0.86183 0.92936 0.20317 0.0
C687 C 0.95312 0.88041 0.31108 0.0
C688 C 0.9134 0.92136 0.27455 0.0
H689 H 0.8587 0.9365 0.25171 0.0
C690 C 0.92796 0.93199 0.25728 0.0
C691 C 0.88811 0.92247 0.27222 0.0
C692 C 0.87147 0.91034 0.2895 0.0
C693 C 0.91792 0.94429 0.23808 0.0
C694 C 0.89265 0.94637 0.23636 0.0
C695 C 0.87807 0.93515 0.25325 0.0
C696 C 0.88104 0.96005 0.21709 0.0
C697 C 0.93444 0.95478 0.2197 0.0
C698 C 0.88535 0.98476 0.21444 0.0
C699 C 0.87501 0.99747 0.19579 0.0
C700 C 0.86003 0.9857 0.17952 0.0
C701 C 0.85513 0.96108 0.1827 0.0
C702 C 0.86553 0.94839 0.20132 0.0
H703 H 0.95249 0.94628 0.22018 0.0
H704 H 0.92683 0.95254 0.20175 0.0
H705 H 0.93674 0.9743 0.22308 0.0
H706 H 0.89685 0.99421 0.22675 0.0
H707 H 0.87902 0.01644 0.19398 0.0
H708 H 0.64565 0.94208 0.32308 0.0
H709 H 0.62255 0.91691 0.29605 0.0
H710 H 0.58926 0.98016 0.26667 0.0
H711 H 0.61244 0.00556 0.29351 0.0
H712 H 0.57331 0.913 0.2932 0.0
H713 H 0.6111 0.94375 0.20804 0.0
H714 H 0.62532 0.95014 0.23593 0.0
H715 H 0.60017 0.96783 0.22619 0.0
C716 C 0.6336 0.95071 0.31073 0.0
C717 C 0.63091 0.97589 0.31049 0.0
C718 C 0.62038 0.93626 0.2953 0.0
C719 C 0.60437 0.94665 0.27918 0.0
C720 C 0.60186 0.97177 0.27866 0.0
H721 H 0.48343 0.8816 0.20765 0.0
H722 H 0.51012 0.90263 0.23497 0.0
C723 C 0.61506 0.98627 0.29409 0.0
C724 C 0.58949 0.93113 0.26368 0.0
H725 H 0.57557 0.91996 0.20615 0.0
C726 C 0.57389 0.91442 0.27416 0.0
C727 C 0.59051 0.93277 0.23884 0.0
C728 C 0.60784 0.94941 0.22654 0.0
C729 C 0.55884 0.89971 0.26048 0.0
C730 C 0.55915 0.90207 0.23568 0.0
C731 C 0.57518 0.91835 0.22519 0.0
C732 C 0.54287 0.88802 0.22022 0.0
C733 C 0.54295 0.88161 0.27267 0.0
C734 C 0.55239 0.87289 0.2028 0.0
C735 C 0.53719 0.86086 0.18714 0.0
C736 C 0.51213 0.86394 0.18841 0.0
C737 C 0.50261 0.87873 0.20622 0.0
C738 C 0.51785 0.89071 0.22192 0.0
H739 H 0.54948 0.87749 0.29072 0.0
H740 H 0.52453 0.88907 0.2742 0.0
H741 H 0.54193 0.86459 0.26249 0.0
H742 H 0.57164 0.87059 0.20114 0.0
H743 H 0.54516 0.84949 0.17377 0.0
H744 H 0.54317 0.65091 0.31888 0.0
H745 H 0.56962 0.63055 0.29095 0.0
H746 H 0.50913 0.59156 0.26284 0.0
H747 H 0.48248 0.61171 0.29084 0.0
H748 H 0.57626 0.58034 0.28894 0.0
H749 H 0.5441 0.61667 0.20356 0.0
H750 H 0.53784 0.63113 0.23139 0.0
H751 H 0.52071 0.60534 0.22232 0.0
C752 C 0.53539 0.63819 0.30662 0.0
C753 C 0.51069 0.63279 0.30725 0.0
C754 C 0.55056 0.6266 0.29065 0.0
C755 C 0.54131 0.60968 0.27473 0.0
C756 C 0.51657 0.60483 0.27475 0.0
H757 H 0.60977 0.491 0.20401 0.0
H758 H 0.58781 0.51756 0.23075 0.0
C759 C 0.50138 0.61631 0.29083 0.0
C760 C 0.55774 0.59585 0.25931 0.0
H761 H 0.56977 0.58245 0.20184 0.0
C762 C 0.57496 0.58091 0.26989 0.0
C763 C 0.55623 0.59689 0.23448 0.0
C764 C 0.53889 0.61353 0.22219 0.0
C765 C 0.59021 0.56636 0.2563 0.0
C766 C 0.58795 0.56657 0.2315 0.0
C767 C 0.57128 0.58212 0.22088 0.0
C768 C 0.60236 0.55046 0.21623 0.0
C769 C 0.60867 0.55097 0.26859 0.0
C770 C 0.61773 0.56015 0.19914 0.0
C771 C 0.63033 0.54503 0.18385 0.0
C772 C 0.62753 0.51989 0.18514 0.0
C773 C 0.6124 0.51024 0.20256 0.0
C774 C 0.59989 0.5254 0.21792 0.0
H775 H 0.61249 0.5576 0.28667 0.0
H776 H 0.60176 0.53231 0.27003 0.0
H777 H 0.62575 0.55045 0.2585 0.0
H778 H 0.61983 0.57945 0.19752 0.0
H779 H 0.64188 0.55311 0.17072 0.0
H780 H 0.88769 0.49225 0.29884 0.0
H781 H 0.90958 0.51745 0.27077 0.0
H782 H 0.869 0.57936 0.29327 0.0
H783 H 0.84682 0.55436 0.32116 0.0
H784 H 0.89177 0.54913 0.23333 0.0
H785 H 0.94114 0.59743 0.30432 0.0
H786 H 0.92585 0.56926 0.30937 0.0
H787 H 0.90895 0.59661 0.30684 0.0
C788 C 0.8832 0.51116 0.29764 0.0
C789 C 0.86576 0.52135 0.31252 0.0
C790 C 0.89575 0.52553 0.28162 0.0
C791 C 0.89117 0.5503 0.28029 0.0
C792 C 0.87306 0.56034 0.29434 0.0
H793 H 0.94796 0.64932 0.175 0.0
H794 H 0.92189 0.62827 0.20279 0.0
C795 C 0.86041 0.54599 0.31026 0.0
C796 C 0.90584 0.56571 0.26467 0.0
H797 H 0.94875 0.60962 0.26519 0.0
C798 C 0.90416 0.56243 0.24024 0.0
C799 C 0.92204 0.58293 0.27385 0.0
C800 C 0.92484 0.58677 0.30003 0.0
C801 C 0.9183 0.57598 0.22467 0.0
C802 C 0.93452 0.59318 0.23385 0.0
C803 C 0.9362 0.59646 0.25828 0.0
C804 C 0.95051 0.60727 0.21828 0.0
C805 C 0.9162 0.57149 0.19853 0.0
C806 C 0.97533 0.60296 0.21836 0.0
C807 C 0.99031 0.61487 0.2024 0.0
C808 C 0.9807 0.63139 0.1862 0.0
C809 C 0.95594 0.63648 0.187 0.0
C810 C 0.94097 0.62446 0.20285 0.0
H811 H 0.90591 0.55486 0.19457 0.0
H812 H 0.90681 0.58688 0.19017 0.0
H813 H 0.93428 0.57003 0.1904 0.0
H814 H 0.983 0.58984 0.23028 0.0
H815 H 0.0093 0.61061 0.20236 0.0
H816 H 0.04162 0.94604 0.41736 0.0
H817 H 0.03767 0.9787 0.44603 0.0
H818 H 0.00777 0.92916 0.49647 0.0
H819 H 0.01084 0.89665 0.46789 0.0
H820 H 0.98909 0.98903 0.46487 0.0
H821 H 0.05722 0.97137 0.5344 0.0
H822 H 0.06034 0.96032 0.50461 0.0
H823 H 0.03996 0.9459 0.52459 0.0
C824 C 0.03453 0.94201 0.43467 0.0
C825 C 0.02633 0.91876 0.44023 0.0
C826 C 0.03243 0.96065 0.45103 0.0
C827 C 0.0225 0.95621 0.47328 0.0
C828 C 0.0158 0.93278 0.47946 0.0
H829 H 0.97749 0.04318 0.59164 0.0
H830 H 0.98486 0.01018 0.56393 0.0
C831 C 0.0177 0.9142 0.46309 0.0
C832 C 0.0162 0.9764 0.4889 0.0
H833 H 0.02775 0.00093 0.5427 0.0
C834 C 0.99764 0.99183 0.48182 0.0
C835 C 0.02719 0.97958 0.51106 0.0
C836 C 0.04741 0.96355 0.51917 0.0
C837 C 0.98943 0.01027 0.49657 0.0
C838 C 0.00055 0.01365 0.51871 0.0
C839 C 0.0192 0.99822 0.52574 0.0
C840 C 0.99361 0.03349 0.53464 0.0
C841 C 0.96854 0.02551 0.48856 0.0
C842 C 0.99572 0.05743 0.52719 0.0
C843 C 0.99128 0.07622 0.54286 0.0
C844 C 0.98502 0.07137 0.56635 0.0
C845 C 0.98228 0.04738 0.57361 0.0
C846 C 0.98654 0.02857 0.55786 0.0
H847 H 0.9576 0.01613 0.47502 0.0
H848 H 0.9567 0.03038 0.50356 0.0
H849 H 0.97548 0.04235 0.48059 0.0
H850 H 0.00173 0.06161 0.50953 0.0
H851 H 0.99407 0.09453 0.53693 0.0
H852 H 0.60738 0.9816 0.46508 0.0
H853 H 0.57453 0.97972 0.49352 0.0
H854 H 0.53076 0.02364 0.44798 0.0
H855 H 0.56369 0.02589 0.41946 0.0
H856 H 0.54906 0.0178 0.51668 0.0
H857 H 0.49056 0.96192 0.45931 0.0
H858 H 0.52231 0.96565 0.45395 0.0
H859 H 0.50158 0.98898 0.44581 0.0
C860 C 0.59092 0.9912 0.46126 0.0
C861 C 0.5881 0.0039 0.44001 0.0
C862 C 0.57215 0.98997 0.47746 0.0
C863 C 0.55022 0.00126 0.47263 0.0
C864 C 0.54748 0.01446 0.45176 0.0
H865 H 0.41352 0.01731 0.53857 0.0
H866 H 0.44912 0.0178 0.51359 0.0
C867 C 0.56626 0.01572 0.43552 0.0
C868 C 0.53006 0.99893 0.4893 0.0
H869 H 0.47298 0.97737 0.49423 0.0
C870 C 0.53245 0.00885 0.5119 0.0
C871 C 0.50859 0.98704 0.48295 0.0
C872 C 0.50558 0.97508 0.45927 0.0
C873 C 0.51347 0.00793 0.52812 0.0
C874 C 0.49182 0.99649 0.52155 0.0
C875 C 0.48964 0.98615 0.49912 0.0
C876 C 0.47065 0.99615 0.53716 0.0
C877 C 0.51641 0.01987 0.55181 0.0
C878 C 0.47102 0.98366 0.55862 0.0
C879 C 0.4506 0.98322 0.57294 0.0
C880 C 0.42951 0.9951 0.56583 0.0
C881 C 0.42933 0.00759 0.54431 0.0
C882 C 0.44968 0.00803 0.53009 0.0
H883 H 0.53236 0.03187 0.55235 0.0
H884 H 0.5002 0.03056 0.55632 0.0
H885 H 0.5187 0.00584 0.56552 0.0
H886 H 0.48698 0.97406 0.56414 0.0
H887 H 0.45116 0.97333 0.58935 0.0
H888 H 0.53356 0.44813 0.58239 0.0
H889 H 0.52932 0.48183 0.55483 0.0
H890 H 0.49356 0.43521 0.50528 0.0
H891 H 0.49709 0.40172 0.53281 0.0
H892 H 0.54536 0.48555 0.50651 0.0
H893 H 0.44614 0.49165 0.51559 0.0
H894 H 0.46472 0.47561 0.53637 0.0
H895 H 0.4574 0.46225 0.50847 0.0
C896 C 0.52477 0.44511 0.56562 0.0
C897 C 0.51564 0.42231 0.55977 0.0
C898 C 0.52247 0.46429 0.54991 0.0
C899 C 0.51083 0.46097 0.52825 0.0
C900 C 0.50229 0.43813 0.52208 0.0
H901 H 0.47292 0.55419 0.41173 0.0
H902 H 0.47874 0.52003 0.43841 0.0
C903 C 0.5046 0.41897 0.53773 0.0
C904 C 0.50735 0.48143 0.51211 0.0
H905 H 0.4641 0.51577 0.48606 0.0
C906 C 0.52763 0.49227 0.50208 0.0
C907 C 0.48416 0.48998 0.50641 0.0
C908 C 0.46183 0.47945 0.51739 0.0
C909 C 0.5253 0.51133 0.48609 0.0
C910 C 0.5021 0.51991 0.48042 0.0
C911 C 0.48183 0.50904 0.49045 0.0
C912 C 0.4985 0.54048 0.46442 0.0
C913 C 0.54763 0.52181 0.47507 0.0
C914 C 0.50734 0.56323 0.4705 0.0
C915 C 0.50413 0.58266 0.45534 0.0
C916 C 0.49185 0.57971 0.43389 0.0
C917 C 0.48264 0.55694 0.42803 0.0
C918 C 0.48586 0.53748 0.44325 0.0
H919 H 0.56318 0.50937 0.4765 0.0
H920 H 0.54461 0.52606 0.4562 0.0
H921 H 0.55238 0.53875 0.48429 0.0
H922 H 0.51678 0.56594 0.48697 0.0
H923 H 0.51172 0.59989 0.46022 0.0
H924 H 0.89776 0.51531 0.46691 0.0
H925 H 0.93215 0.51507 0.49363 0.0
H926 H 0.97415 0.47735 0.44157 0.0
H927 H 0.93975 0.4775 0.41466 0.0
H928 H 0.95829 0.47641 0.51189 0.0
H929 H 0.01548 0.53623 0.45721 0.0
H930 H 0.98367 0.53272 0.45214 0.0
H931 H 0.00438 0.51014 0.44208 0.0
C932 C 0.91423 0.50672 0.46124 0.0
C933 C 0.9161 0.49644 0.43869 0.0
C934 C 0.93387 0.50672 0.47647 0.0
C935 C 0.95573 0.49652 0.4694 0.0
C936 C 0.95755 0.48576 0.44712 0.0
H937 H 0.09407 0.47782 0.53462 0.0
H938 H 0.05887 0.47741 0.509 0.0
C939 C 0.93791 0.48583 0.43182 0.0
C940 C 0.97661 0.49719 0.48542 0.0
H941 H 0.03384 0.51843 0.49062 0.0
C942 C 0.97479 0.48567 0.50733 0.0
C943 C 0.99801 0.50939 0.47936 0.0
C944 C 0.00052 0.52302 0.45652 0.0
C945 C 0.99408 0.48559 0.5232 0.0
C946 C 0.01552 0.49763 0.51704 0.0
C947 C 0.01731 0.50923 0.4952 0.0
C948 C 0.03657 0.49797 0.53281 0.0
C949 C 0.99161 0.47223 0.54619 0.0
C950 C 0.03565 0.5099 0.55456 0.0
C951 C 0.05582 0.51037 0.5692 0.0
C952 C 0.07723 0.499 0.56221 0.0
C953 C 0.078 0.48712 0.54034 0.0
C954 C 0.05788 0.48671 0.52575 0.0
H955 H 0.97596 0.45982 0.5461 0.0
H956 H 0.0081 0.46171 0.55002 0.0
H957 H 0.98905 0.48537 0.56068 0.0
H958 H 0.01942 0.51904 0.56009 0.0
H959 H 0.05476 0.51988 0.58581 0.0
H960 H 0.97171 0.44343 0.91274 0.0
H961 H 0.97439 0.47788 0.93954 0.0
H962 H 0.01039 0.43359 0.9909 0.0
H963 H 0.00803 0.39921 0.96425 0.0
H964 H 0.97305 0.4629 0.00941 0.0
H965 H 0.03736 0.51443 0.95408 0.0
H966 H 0.01046 0.50481 0.93933 0.0
H967 H 0.03159 0.4828 0.94966 0.0
C968 C 0.98024 0.44107 0.92972 0.0
C969 C 0.98966 0.41862 0.93638 0.0
C970 C 0.98177 0.46073 0.94497 0.0
C971 C 0.99288 0.45826 0.967 0.0
C972 C 0.00178 0.43579 0.97393 0.0
H973 H 0.0237 0.55356 0.08463 0.0
H974 H 0.02066 0.51899 0.058 0.0
C975 C 0.00026 0.41615 0.95873 0.0
C976 C 0.99542 0.47911 0.98289 0.0
H977 H 0.02225 0.53401 0.988 0.0
C978 C 0.98384 0.47844 0.0048 0.0
C979 C 0.00958 0.49925 0.97674 0.0
C980 C 0.02315 0.5004 0.95377 0.0
C981 C 0.98571 0.49767 0.02067 0.0
C982 C -0.00013 0.51781 0.01452 0.0
C983 C 0.01145 0.51847 0.9926 0.0
C984 C 0.00245 0.53867 0.0304 0.0
C985 C 0.97211 0.49653 0.04363 0.0
C986 C 0.99382 0.56121 0.02334 0.0
C987 C 0.99557 0.58091 0.03843 0.0
C988 C 0.00613 0.57845 0.0608 0.0
C989 C 0.01523 0.55591 0.06761 0.0
C990 C 0.01348 0.53619 0.05247 0.0
H991 H 0.95783 0.48257 0.04326 0.0
H992 H 0.98477 0.492 0.05805 0.0
H993 H 0.96376 0.51416 0.04779 0.0
H994 H 0.98529 0.56343 0.00634 0.0
H995 H 0.98805 0.59793 0.0328 0.0
H996 H 0.05675 0.96195 0.91076 0.0
H997 H 0.02035 0.96242 0.93506 0.0
H998 H 0.05968 0.99672 0.99123 0.0
H999 H 0.09595 0.99648 0.96716 0.0
H1000 H 0.02864 0.95902 0.006 0.0
H1001 H 0.98324 0.0255 0.94777 0.0
H1002 H 0.99379 0.99854 0.93369 0.0
H1003 H 0.01502 0.01938 0.94595 0.0
C1004 C 0.05762 0.96948 0.92834 0.0
C1005 C 0.07916 0.97924 0.93704 0.0
C1006 C 0.03686 0.96975 0.94214 0.0
C1007 C 0.03736 0.97993 0.96473 0.0
C1008 C 0.05901 0.9888 0.9738 0.0
H1009 H 0.94053 0.01792 0.07672 0.0
H1010 H 0.97503 0.01115 0.0508 0.0
C1011 C 0.07974 0.98851 0.96007 0.0
C1012 C 0.01521 0.98231 0.97875 0.0
H1013 H 0.96163 0.01199 0.98088 0.0
C1014 C 0.01392 0.9705 0.00051 0.0
C1015 C 0.99615 0.99736 0.97143 0.0
C1016 C 0.99706 0.01111 0.94853 0.0
C1017 C 0.99399 0.97341 0.01529 0.0
C1018 C 0.97517 0.98885 0.00819 0.0
C1019 C 0.97622 0.00026 0.98622 0.0
C1020 C 0.95433 0.99361 0.02349 0.0
C1021 C 0.99315 0.95988 0.0383 0.0
C1022 C 0.93131 0.98666 0.01627 0.0
C1023 C 0.91163 0.99052 0.03096 0.0
C1024 C 0.91466 0.00157 0.05306 0.0
C1025 C 0.93771 0.00912 0.05993 0.0
C1026 C 0.95739 0.00522 0.04521 0.0
H1027 H 0.00586 0.94448 0.03844 0.0
H1028 H 0.9982 0.97221 0.05285 0.0
H1029 H 0.97476 0.95304 0.04185 0.0
H1030 H 0.92866 0.97775 -0.00051 0.0
H1031 H 0.89416 0.98415 0.02532 0.0
H1032 H 0.49104 0.10199 0.96912 0.0
H1033 H 0.48706 0.06848 0.99658 0.0
H1034 H 0.52132 0.02131 0.9465 0.0
H1035 H 0.52551 0.05487 0.91885 0.0
H1036 H 0.47779 0.00376 0.96474 0.0
H1037 H 0.53861 0.03472 0.03615 0.0
H1038 H 0.51642 0.05635 0.02731 0.0
H1039 H 0.53934 0.04732 0.00686 0.0
C1040 C 0.49822 0.08462 0.96413 0.0
C1041 C 0.50876 0.08109 0.94189 0.0
C1042 C 0.49589 0.0655 0.97984 0.0
C1043 C 0.50419 0.04255 0.97366 0.0
C1044 C 0.5149 0.03896 0.95158 0.0
H1045 H 0.50472 0.90236 0.03699 0.0
H1046 H 0.50776 0.93721 0.01115 0.0
C1047 C 0.51722 0.05809 0.93582 0.0
C1048 C 0.50047 0.02203 0.98973 0.0
H1049 H 0.51432 0.00068 0.04439 0.0
C1050 C 0.48585 0.00301 0.98212 0.0
C1051 C 0.51086 0.02129 0.01244 0.0
C1052 C 0.52736 0.0409 0.02117 0.0
C1053 C 0.48121 0.98324 0.99671 0.0
C1054 C 0.49177 0.9824 0.01932 0.0
C1055 C 0.50619 0.00151 0.02705 0.0
C1056 C 0.489 0.96127 0.03477 0.0
C1057 C 0.46486 0.96353 0.98793 0.0
C1058 C 0.47774 0.96342 0.05676 0.0
C1059 C 0.47582 0.94345 0.07159 0.0
C1060 C 0.4853 0.92109 0.06465 0.0
C1061 C 0.49667 0.91914 0.04261 0.0
C1062 C 0.49852 0.93905 0.02784 0.0
H1063 H 0.45341 0.96974 0.97311 0.0
H1064 H 0.47593 0.94827 0.98153 0.0
H1065 H 0.4531 0.95682 0.00228 0.0
H1066 H 0.47041 0.98052 0.06241 0.0
H1067 H 0.4669 0.94548 0.08841 0.0
H1068 H 0.44379 0.52874 0.91118 0.0
H1069 H 0.47852 0.52523 0.93756 0.0
H1070 H 0.43518 0.48633 0.98762 0.0
H1071 H 0.40068 0.48918 0.96126 0.0
H1072 H 0.4829 0.54057 0.98593 0.0
H1073 H 0.49346 0.4418 0.97514 0.0
H1074 H 0.47601 0.45993 0.95506 0.0
H1075 H 0.46376 0.45146 0.98313 0.0
C1076 C 0.44172 0.51941 0.9278 0.0
C1077 C 0.41953 0.50924 0.93416 0.0
C1078 C 0.46149 0.5175 0.94283 0.0
C1079 C 0.45939 0.50522 0.96429 0.0
C1080 C 0.43717 0.49557 0.97094 0.0
H1081 H 0.55435 0.4713 0.08014 0.0
H1082 H 0.5204 0.47505 0.05289 0.0
C1083 C 0.41743 0.49749 0.95599 0.0
C1084 C 0.48042 0.50244 0.97985 0.0
H1085 H 0.51704 0.46039 0.00484 0.0
C1086 C 0.4905 0.52309 0.98999 0.0
C1087 C 0.49013 0.47956 0.98505 0.0
C1088 C 0.48046 0.45691 0.97389 0.0
C1089 C 0.50984 0.52141 0.0057 0.0
C1090 C 0.51951 0.49852 0.01098 0.0
C1091 C 0.50948 0.47788 0.00074 0.0
C1092 C 0.54014 0.49565 0.02702 0.0
C1093 C 0.51942 0.54407 0.01693 0.0
C1094 C 0.56248 0.50556 0.02116 0.0
C1095 C 0.58179 0.50355 0.03665 0.0
C1096 C 0.57913 0.49141 0.05822 0.0
C1097 C 0.55685 0.48096 0.06377 0.0
C1098 C 0.53752 0.48299 0.04822 0.0
H1099 H 0.50644 0.55918 0.01558 0.0
H1100 H 0.5237 0.54105 0.0358 0.0
H1101 H 0.5362 0.54952 0.00784 0.0
H1102 H 0.56491 0.51506 0.00468 0.0
H1103 H 0.59862 0.51207 0.03199 0.0
H1104 H 0.89466 0.17439 0.67514 0.0
H1105 H 0.87466 0.20193 0.70245 0.0
H1106 H 0.93093 0.25403 0.69146 0.0
H1107 H 0.95092 0.22691 0.66463 0.0
H1108 H 0.89689 0.21288 0.74225 0.0
H1109 H 0.87452 0.29813 0.69885 0.0
H1110 H 0.87901 0.27063 0.68241 0.0
H1111 H 0.90421 0.28946 0.69019 0.0
C1112 C 0.90246 0.19195 0.67813 0.0
C1113 C 0.92467 0.19818 0.66797 0.0
C1114 C 0.89087 0.20775 0.69356 0.0
C1115 C 0.90114 0.23015 0.69886 0.0
C1116 C 0.92224 0.23715 0.68721 0.0
H1117 H 0.95586 0.315 0.7963 0.0
H1118 H 0.93654 0.29615 0.76255 0.0
C1119 C 0.93382 0.22141 0.67187 0.0
C1120 C 0.89338 0.24393 0.71985 0.0
H1121 H 0.89092 0.30179 0.73954 0.0
C1122 C 0.89457 0.23224 0.74172 0.0
C1123 C 0.89008 0.26912 0.71916 0.0
C1124 C 0.88662 0.28245 0.69631 0.0
C1125 C 0.89587 0.24535 0.76277 0.0
C1126 C 0.89558 0.27076 0.7618 0.0
C1127 C 0.89144 0.28229 0.74019 0.0
C1128 C 0.90474 0.28523 0.7817 0.0
C1129 C 0.90014 0.232 0.78554 0.0
C1130 C 0.89298 0.28587 0.80354 0.0
C1131 C 0.90423 0.29639 0.82305 0.0
C1132 C 0.92735 0.30637 0.82089 0.0
C1133 C 0.93836 0.30689 0.79865 0.0
C1134 C 0.92717 0.29642 0.77927 0.0
H1135 H 0.90181 0.21228 0.78285 0.0
H1136 H 0.91679 0.23862 0.79415 0.0
H1137 H 0.88494 0.23529 0.79775 0.0
H1138 H 0.87555 0.27751 0.80568 0.0
H1139 H 0.8953 0.29582 0.83996 0.0
H1140 H 0.32843 0.90481 0.6719 0.0
H1141 H 0.3067 0.88589 0.70468 0.0
H1142 H 0.24854 0.93625 0.6952 0.0
H1143 H 0.26993 0.95481 0.6625 0.0
H1144 H 0.29615 0.91136 0.74444 0.0
H1145 H 0.21213 0.87459 0.70829 0.0
H1146 H 0.23813 0.88045 0.6901 0.0
H1147 H 0.21719 0.9042 0.69689 0.0
C1148 C 0.31069 0.9113 0.67644 0.0
C1149 C 0.30089 0.93138 0.66488 0.0
C1150 C 0.29833 0.90051 0.69511 0.0
C1151 C 0.27584 0.9094 0.70212 0.0
C1152 C 0.26558 0.92867 0.68974 0.0
H1153 H 0.18951 0.9571 0.80303 0.0
H1154 H 0.21008 0.94006 0.76903 0.0
C1155 C 0.27796 0.93952 0.6713 0.0
C1156 C 0.26468 0.90173 0.72451 0.0
H1157 H 0.20926 0.89214 0.74816 0.0
C1158 C 0.27738 0.90621 0.7454 0.0
C1159 C 0.2403 0.89479 0.72569 0.0
C1160 C 0.22627 0.88798 0.70399 0.0
C1161 C 0.26556 0.90693 0.76719 0.0
C1162 C 0.24053 0.90274 0.76796 0.0
C1163 C 0.22843 0.89559 0.74744 0.0
C1164 C 0.2261 0.9106 0.78836 0.0
C1165 C 0.2794 0.91455 0.7888 0.0
C1166 C 0.22796 0.89938 0.8104 0.0
C1167 C 0.21633 0.90929 0.83 0.0
C1168 C 0.20283 0.93055 0.82774 0.0
C1169 C 0.20023 0.94104 0.80541 0.0
C1170 C 0.21173 0.93115 0.78592 0.0
H1171 H 0.2985 0.91866 0.78481 0.0
H1172 H 0.27101 0.93074 0.79677 0.0
H1173 H 0.27888 0.89994 0.80209 0.0
H1174 H 0.23887 0.88341 0.81255 0.0
H1175 H 0.2186 0.90084 0.84702 0.0
H1176 H 0.54636 0.18486 0.80004 0.0
H1177 H 0.56545 0.20608 0.76773 0.0
H1178 H 0.62526 0.22428 0.81268 0.0
H1179 H 0.60554 0.20371 0.84563 0.0
H1180 H 0.60861 0.26293 0.79183 0.0
H1181 H 0.61941 0.19464 0.72306 0.0
H1182 H 0.58937 0.19236 0.73403 0.0
H1183 H 0.61438 0.18656 0.75349 0.0
C1184 C 0.56365 0.19321 0.80306 0.0
C1185 C 0.57427 0.1929 0.82547 0.0
C1186 C 0.57482 0.20495 0.7844 0.0
C1187 C 0.59707 0.21637 0.7876 0.0
C1188 C 0.60824 0.21532 0.80974 0.0
H1189 H 0.60813 0.29463 0.65506 0.0
H1190 H 0.62662 0.27256 0.68781 0.0
C1191 C 0.59699 0.20354 0.82852 0.0
C1192 C 0.60633 0.23221 0.7687 0.0
H1193 H 0.607 0.23524 0.70884 0.0
C1194 C 0.60913 0.25677 0.77372 0.0
C1195 C 0.60796 0.22426 0.7451 0.0
C1196 C 0.6079 0.19793 0.73872 0.0
C1197 C 0.61012 0.27381 0.75556 0.0
C1198 C 0.60758 0.26604 0.73198 0.0
C1199 C 0.60824 0.24133 0.72695 0.0
C1200 C 0.59941 0.2826 0.7132 0.0
C1201 C 0.61234 0.30004 0.76192 0.0
C1202 C 0.57815 0.29572 0.71665 0.0
C1203 C 0.56769 0.30828 0.69812 0.0
C1204 C 0.57803 0.30776 0.67559 0.0
C1205 C 0.59985 0.29545 0.67228 0.0
C1206 C 0.61039 0.28282 0.69094 0.0
H1207 H 0.62423 0.30235 0.77747 0.0
H1208 H 0.61961 0.31082 0.74709 0.0
H1209 H 0.59439 0.30716 0.76677 0.0
H1210 H 0.56892 0.2953 0.73343 0.0
H1211 H 0.55109 0.31788 0.70128 0.0
H1212 H 0.17176 0.59325 0.67018 0.0
H1213 H 0.19287 0.61375 0.7025 0.0
H1214 H 0.25365 0.56665 0.69258 0.0
H1215 H 0.23284 0.54654 0.6604 0.0
H1216 H 0.20532 0.58937 0.74227 0.0
H1217 H 0.28689 0.63012 0.70514 0.0
H1218 H 0.26099 0.62296 0.68724 0.0
H1219 H 0.28328 0.60034 0.69362 0.0
C1220 C 0.18991 0.58785 0.67453 0.0
C1221 C 0.20066 0.56821 0.66303 0.0
C1222 C 0.20192 0.59954 0.69293 0.0
C1223 C 0.22499 0.59201 0.69968 0.0
C1224 C 0.23614 0.57322 0.68731 0.0
H1225 H 0.31327 0.54432 0.79652 0.0
H1226 H 0.292 0.56279 0.76366 0.0
C1227 C 0.22411 0.56146 0.66917 0.0
C1228 C 0.23602 0.6004 0.72191 0.0
H1229 H 0.29149 0.61175 0.74467 0.0
C1230 C 0.22388 0.59526 0.74296 0.0
C1231 C 0.2601 0.60837 0.72277 0.0
C1232 C 0.27343 0.61601 0.70092 0.0
C1233 C 0.23616 0.59467 0.76452 0.0
C1234 C 0.26106 0.59964 0.76486 0.0
C1235 C 0.27244 0.60767 0.74428 0.0
C1236 C 0.27623 0.59127 0.78455 0.0
C1237 C 0.22305 0.58621 0.78625 0.0
C1238 C 0.2748 0.60153 0.80709 0.0
C1239 C 0.28688 0.59082 0.82602 0.0
C1240 C 0.30035 0.5697 0.82257 0.0
C1241 C 0.3026 0.56027 0.79976 0.0
C1242 C 0.29069 0.57096 0.78095 0.0
H1243 H 0.20389 0.58201 0.78267 0.0
H1244 H 0.23185 0.56986 0.79344 0.0
H1245 H 0.22382 0.60038 0.8 0.0
H1246 H 0.26382 0.61729 0.81014 0.0
H1247 H 0.28489 0.59845 0.84345 0.0
H1248 H 0.0986 0.70987 0.15227 0.0
H1249 H 0.11743 0.73017 0.18597 0.0
H1250 H 0.06419 0.69928 0.23214 0.0
H1251 H 0.0457 0.6789 0.19876 0.0
H1252 H 0.09167 0.76349 0.2101 0.0
H1253 H 0.12386 0.69551 0.27299 0.0
H1254 H 0.11924 0.68891 0.24213 0.0
H1255 H 0.09449 0.68769 0.26257 0.0
C1256 C 0.09144 0.7069 0.16974 0.0
C1257 C 0.07053 0.69313 0.17295 0.0
C1258 C 0.10221 0.71842 0.18894 0.0
C1259 C 0.09245 0.71593 0.21162 0.0
C1260 C 0.07243 0.701 0.21494 0.0
H1261 H 0.04135 0.77776 0.32713 0.0
H1262 H 0.06205 0.7515 0.29951 0.0
C1263 C 0.06159 0.6897 0.1958 0.0
C1264 C 0.09971 0.73223 0.23094 0.0
H1265 H 0.10693 0.73239 0.29054 0.0
C1266 C 0.09591 0.75691 0.22759 0.0
C1267 C 0.10539 0.72355 0.25364 0.0
C1268 C 0.11123 0.69746 0.25796 0.0
C1269 C 0.09455 0.77271 0.24677 0.0
C1270 C 0.09778 0.76355 0.26985 0.0
C1271 C 0.10427 0.73934 0.27289 0.0
C1272 C 0.08966 0.77739 0.29065 0.0
C1273 C 0.08715 0.79844 0.24225 0.0
C1274 C 0.09909 0.80019 0.29586 0.0
C1275 C 0.08699 0.81543 0.31146 0.0
C1276 C 0.06565 0.80784 0.32241 0.0
C1277 C 0.05777 0.7841 0.31903 0.0
C1278 C 0.06962 0.76905 0.30322 0.0
H1279 H 0.08224 0.80163 0.22355 0.0
H1280 H 0.07155 0.8034 0.25342 0.0
H1281 H 0.10226 0.81063 0.24669 0.0
H1282 H 0.1149 0.80674 0.2868 0.0
H1283 H 0.09364 0.83352 0.31413 0.0
H1284 H 0.80763 0.04321 0.1885 0.0
H1285 H 0.78721 0.06219 0.22133 0.0
H1286 H 0.76713 0.12179 0.17681 0.0
H1287 H 0.7868 0.10201 0.14321 0.0
H1288 H 0.79065 0.10549 0.24423 0.0
H1289 H 0.7023 0.09696 0.19852 0.0
H1290 H 0.72883 0.08283 0.18673 0.0
H1291 H 0.72552 0.11493 0.18533 0.0
C1292 C 0.7988 0.06029 0.18559 0.0
C1293 C 0.79821 0.07077 0.16313 0.0
C1294 C 0.78742 0.07134 0.20448 0.0
C1295 C 0.77532 0.09325 0.20146 0.0
C1296 C 0.776 0.10467 0.17942 0.0
H1297 H 0.7051 0.09775 0.34 0.0
H1298 H 0.72298 0.11887 0.30644 0.0
C1299 C 0.78737 0.09345 0.16032 0.0
C1300 C 0.76024 0.10204 0.22113 0.0
H1301 H 0.70209 0.09813 0.23946 0.0
C1302 C 0.7712 0.10474 0.24324 0.0
C1303 C 0.73489 0.10142 0.21963 0.0
C1304 C 0.72204 0.09884 0.19635 0.0
C1305 C 0.75777 0.10317 0.26408 0.0
C1306 C 0.73266 0.09959 0.26255 0.0
C1307 C 0.7214 0.10054 0.24046 0.0
C1308 C 0.71901 0.08897 0.28236 0.0
C1309 C 0.77087 0.10258 0.28734 0.0
C1310 C 0.70994 0.06559 0.27967 0.0
C1311 C 0.69941 0.05369 0.29856 0.0
C1312 C 0.69789 0.06478 0.32073 0.0
C1313 C 0.70606 0.08863 0.3232 0.0
C1314 C 0.71647 0.10069 0.3041 0.0
H1315 H 0.79068 0.10349 0.28514 0.0
H1316 H 0.76518 0.11812 0.29825 0.0
H1317 H 0.76641 0.08587 0.29709 0.0
H1318 H 0.71165 0.05619 0.26303 0.0
H1319 H 0.69269 0.03566 0.29577 0.0
H1320 H 0.39165 0.71014 0.34714 0.0
H1321 H 0.37098 0.73068 0.31456 0.0
H1322 H 0.41978 0.69758 0.2652 0.0
H1323 H 0.44012 0.67713 0.29745 0.0
H1324 H 0.39518 0.7631 0.2874 0.0
H1325 H 0.35703 0.69395 0.22923 0.0
H1326 H 0.36349 0.68827 0.25995 0.0
H1327 H 0.38669 0.68519 0.23797 0.0
C1328 C 0.3974 0.70679 0.32922 0.0
C1329 C 0.41757 0.69231 0.32469 0.0
C1330 C 0.3856 0.71845 0.31069 0.0
C1331 C 0.39357 0.71533 0.28743 0.0
C1332 C 0.41289 0.69979 0.28291 0.0
H1333 H 0.44459 0.76745 0.17048 0.0
H1334 H 0.42462 0.74604 0.20235 0.0
C1335 C 0.42476 0.6884 0.30135 0.0
C1336 C 0.38515 0.73121 0.26826 0.0
H1337 H 0.37571 0.72889 0.20905 0.0
C1338 C 0.38989 0.7559 0.27042 0.0
C1339 C 0.37794 0.72182 0.24625 0.0
C1340 C 0.37075 0.69586 0.24332 0.0
C1341 C 0.39101 0.77072 0.25049 0.0
C1342 C 0.38695 0.7605 0.22803 0.0
C1343 C 0.37912 0.73658 0.22629 0.0
C1344 C 0.39624 0.7723 0.2066 0.0
C1345 C 0.39917 0.79645 0.25332 0.0
C1346 C 0.38656 0.79391 0.1981 0.0
C1347 C 0.39817 0.80635 0.17993 0.0
C1348 C 0.4196 0.79733 0.17019 0.0
C1349 C 0.42844 0.77509 0.17801 0.0
C1350 C 0.41687 0.76271 0.19601 0.0
H1351 H 0.40268 0.80122 0.27201 0.0
H1352 H 0.41585 0.79955 0.24304 0.0
H1353 H 0.38516 0.80876 0.24642 0.0
H1354 H 0.37055 0.80149 0.20598 0.0
H1355 H 0.39097 0.82345 0.1742 0.0
H1356 H 0.70443 0.39852 0.155 0.0
H1357 H 0.7246 0.37937 0.18856 0.0
H1358 H 0.70311 0.43859 0.23299 0.0
H1359 H 0.68239 0.45708 0.20005 0.0
H1360 H 0.762 0.39722 0.21068 0.0
H1361 H 0.69218 0.38423 0.27734 0.0
H1362 H 0.68487 0.38879 0.24665 0.0
H1363 H 0.68894 0.41414 0.26617 0.0
C1364 C 0.70349 0.40703 0.17211 0.0
C1365 C 0.69208 0.42943 0.17487 0.0
C1366 C 0.71502 0.39611 0.19124 0.0
C1367 C 0.71501 0.40729 0.21342 0.0
C1368 C 0.70281 0.42919 0.21628 0.0
H1369 H 0.8112 0.45948 0.30089 0.0
H1370 H 0.79049 0.43954 0.26875 0.0
C1371 C 0.69135 0.44004 0.19729 0.0
C1372 C 0.73052 0.39856 0.23282 0.0
H1373 H 0.73164 0.39902 0.29274 0.0
C1374 C 0.75529 0.3967 0.2286 0.0
C1375 C 0.72191 0.39687 0.25619 0.0
C1376 C 0.69545 0.39582 0.26173 0.0
C1377 C 0.77174 0.39679 0.24729 0.0
C1378 C 0.76312 0.39951 0.27057 0.0
C1379 C 0.73835 0.39772 0.27486 0.0
C1380 C 0.7786 0.40913 0.28959 0.0
C1381 C 0.7982 0.39561 0.24178 0.0
C1382 C 0.77857 0.39896 0.31222 0.0
C1383 C 0.79007 0.41074 0.33088 0.0
C1384 C 0.80149 0.43299 0.3272 0.0
C1385 C 0.80223 0.44259 0.30436 0.0
C1386 C 0.79078 0.4309 0.28583 0.0
H1387 H 0.80153 0.38332 0.2267 0.0
H1388 H 0.80463 0.41373 0.23656 0.0
H1389 H 0.80882 0.38933 0.25715 0.0
H1390 H 0.769 0.38235 0.31559 0.0
H1391 H 0.78911 0.40299 0.34833 0.0
H1392 H 0.27365 0.04331 0.65043 0.0
H1393 H 0.23568 0.0654 0.653 0.0
H1394 H 0.21064 0.03004 0.59001 0.0
H1395 H 0.24823 0.00769 0.58748 0.0
H1396 H 0.21865 0.09704 0.61933 0.0
H1397 H 0.15332 0.02345 0.63406 0.0
H1398 H 0.18523 0.01957 0.63832 0.0
H1399 H 0.17252 0.01814 0.60922 0.0
C1400 C 0.25987 0.0399 0.63738 0.0
C1401 C 0.26395 0.02375 0.61874 0.0
C1402 C 0.23824 0.05259 0.63884 0.0
C1403 C 0.22029 0.04919 0.62182 0.0
C1404 C 0.22406 0.0326 0.60358 0.0
H1405 H 0.10789 0.14451 0.57484 0.0
H1406 H 0.14529 0.12222 0.58069 0.0
C1407 C 0.24564 0.01992 0.60211 0.0
C1408 C 0.19832 0.06419 0.62202 0.0
H1409 H 0.13715 0.06108 0.62113 0.0
C1410 C 0.20081 0.08923 0.61999 0.0
C1411 C 0.17511 0.05396 0.62309 0.0
C1412 C 0.17133 0.02732 0.62653 0.0
C1413 C 0.18066 0.10428 0.61825 0.0
C1414 C 0.15747 0.09392 0.61815 0.0
C1415 C 0.15498 0.06896 0.62094 0.0
C1416 C 0.13548 0.10856 0.61506 0.0
C1417 C 0.18437 0.1311 0.61665 0.0
C1418 C 0.11746 0.10801 0.63226 0.0
C1419 C 0.09598 0.12043 0.62883 0.0
C1420 C 0.092 0.13367 0.60804 0.0
C1421 C 0.11028 0.13445 0.59096 0.0
C1422 C 0.13178 0.12192 0.5944 0.0
H1423 H 0.20225 0.13649 0.62358 0.0
H1424 H 0.18341 0.13669 0.59792 0.0
H1425 H 0.17027 0.14097 0.62656 0.0
H1426 H 0.11988 0.09766 0.64825 0.0
H1427 H 0.08227 0.11894 0.64221 0.0
H1428 H 0.37872 0.08743 0.64913 0.0
H1429 H 0.40372 0.12246 0.65757 0.0
H1430 H 0.39225 0.14849 0.58694 0.0
H1431 H 0.36732 0.11341 0.57827 0.0
H1432 H 0.44576 0.13724 0.63551 0.0
H1433 H 0.37468 0.20653 0.6278 0.0
H1434 H 0.36804 0.17487 0.63052 0.0
H1435 H 0.37649 0.18729 0.60248 0.0
C1436 C 0.38158 0.1005 0.63532 0.0
C1437 C 0.37096 0.0976 0.61299 0.0
C1438 C 0.39579 0.12058 0.64024 0.0
C1439 C 0.39952 0.13821 0.623 0.0
C1440 C 0.38911 0.13534 0.60067 0.0
H1441 H 0.50762 0.24333 0.60087 0.0
H1442 H 0.48428 0.2065 0.60504 0.0
C1443 C 0.37488 0.11528 0.59573 0.0
C1444 C 0.41488 0.15931 0.62807 0.0
H1445 H 0.41527 0.22062 0.62708 0.0
C1446 C 0.43907 0.15549 0.63394 0.0
C1447 C 0.40597 0.18306 0.62649 0.0
C1448 C 0.37981 0.18824 0.62172 0.0
C1449 C 0.4549 0.17486 0.63713 0.0
C1450 C 0.44632 0.19859 0.63403 0.0
C1451 C 0.42187 0.2024 0.62928 0.0
C1452 C 0.46256 0.21968 0.6339 0.0
C1453 C 0.48066 0.16974 0.64361 0.0
C1454 C 0.45816 0.23934 0.6488 0.0
C1455 C 0.4714 0.26056 0.64635 0.0
C1456 C 0.4891 0.26251 0.62879 0.0
C1457 C 0.49414 0.24242 0.61459 0.0
C1458 C 0.48091 0.22125 0.61706 0.0
H1459 H 0.48243 0.15214 0.65271 0.0
H1460 H 0.49165 0.16897 0.62733 0.0
H1461 H 0.48809 0.18403 0.65518 0.0
H1462 H 0.44397 0.23852 0.66183 0.0
H1463 H 0.46706 0.27572 0.65755 0.0
H1464 H 0.42257 0.37649 0.64755 0.0
H1465 H 0.38637 0.40028 0.65416 0.0
H1466 H 0.36132 0.38245 0.58446 0.0
H1467 H 0.39765 0.35874 0.57757 0.0
H1468 H 0.36961 0.43997 0.62895 0.0
H1469 H 0.30421 0.36484 0.62675 0.0
H1470 H 0.33612 0.36011 0.62998 0.0
H1471 H 0.32345 0.3658 0.60139 0.0
C1472 C 0.40949 0.37771 0.63352 0.0
C1473 C 0.41306 0.36568 0.61197 0.0
C1474 C 0.38873 0.39123 0.63742 0.0
C1475 C 0.37105 0.39285 0.61993 0.0
C1476 C 0.37454 0.38099 0.59837 0.0
H1477 H 0.25953 0.49365 0.59258 0.0
H1478 H 0.29756 0.47236 0.59702 0.0
C1479 C 0.39531 0.36745 0.59446 0.0
C1480 C 0.3492 0.40745 0.62395 0.0
H1481 H 0.28802 0.40451 0.62386 0.0
C1482 C 0.35176 0.43221 0.62808 0.0
C1483 C 0.32598 0.39719 0.62328 0.0
C1484 C 0.3222 0.37049 0.62035 0.0
C1485 C 0.33161 0.44719 0.63048 0.0
C1486 C 0.30838 0.43714 0.62837 0.0
C1487 C 0.30586 0.41222 0.6253 0.0
C1488 C 0.28646 0.45219 0.62773 0.0
C1489 C 0.33538 0.47364 0.63512 0.0
C1490 C 0.26757 0.44797 0.64357 0.0
C1491 C 0.2457 0.46004 0.641 0.0
C1492 C 0.2423 0.47636 0.62238 0.0
C1493 C 0.26157 0.48121 0.60712 0.0
C1494 C 0.2834 0.46917 0.60972 0.0
H1495 H 0.35307 0.47706 0.64353 0.0
H1496 H 0.33498 0.48351 0.61815 0.0
H1497 H 0.32103 0.48101 0.64663 0.0
H1498 H 0.26955 0.43483 0.65751 0.0
H1499 H 0.2312 0.45588 0.65303 0.0
H1500 H 0.12813 0.40902 0.64884 0.0
H1501 H 0.10384 0.37346 0.65705 0.0
H1502 H 0.12087 0.34509 0.58837 0.0
H1503 H 0.14505 0.38073 0.57989 0.0
H1504 H 0.06383 0.35694 0.63263 0.0
H1505 H 0.13653 0.28889 0.63241 0.0
H1506 H 0.14237 0.32076 0.63454 0.0
H1507 H 0.13626 0.30722 0.60639 0.0
C1508 C 0.12666 0.39531 0.6354 0.0
C1509 C 0.13856 0.39777 0.61365 0.0
C1510 C 0.11287 0.37491 0.64021 0.0
C1511 C 0.11085 0.3565 0.62346 0.0
C1512 C 0.12266 0.35886 0.60175 0.0
H1513 H 0.00716 0.24901 0.59577 0.0
H1514 H 0.03028 0.28593 0.60049 0.0
C1515 C 0.13646 0.37925 0.59692 0.0
C1516 C 0.09559 0.33526 0.62823 0.0
H1517 H 0.09631 0.27392 0.62925 0.0
C1518 C 0.07096 0.33879 0.63219 0.0
C1519 C 0.10501 0.31164 0.6281 0.0
C1520 C 0.13153 0.30685 0.62537 0.0
C1521 C 0.05527 0.31922 0.63478 0.0
C1522 C 0.06447 0.29558 0.63309 0.0
C1523 C 0.08927 0.29208 0.63036 0.0
C1524 C 0.04856 0.27428 0.63212 0.0
C1525 C 0.02896 0.324 0.63902 0.0
C1526 C 0.05116 0.25544 0.64836 0.0
C1527 C 0.03795 0.2342 0.64569 0.0
C1528 C 0.0222 0.2314 0.62652 0.0
C1529 C 0.01914 0.2506 0.61073 0.0
C1530 C 0.03222 0.27181 0.61348 0.0
H1531 H 0.02607 0.34198 0.6471 0.0
H1532 H 0.01929 0.32365 0.62194 0.0
H1533 H 0.02095 0.3101 0.65066 0.0
H1534 H 0.06382 0.25697 0.66278 0.0
H1535 H 0.04077 0.21968 0.6581 0.0
H1536 H 0.23953 0.49991 0.89715 0.0
H1537 H 0.20304 0.47557 0.89609 0.0
H1538 H 0.23487 0.42953 0.84356 0.0
H1539 H 0.27153 0.45392 0.84434 0.0
H1540 H 0.18395 0.44076 0.83671 0.0
H1541 H 0.20568 0.40732 0.92637 0.0
H1542 H 0.20489 0.4395 0.92369 0.0
H1543 H 0.22737 0.42261 0.90811 0.0
C1544 C 0.23868 0.48484 0.88508 0.0
C1545 C 0.25854 0.47865 0.87104 0.0
C1546 C 0.21783 0.47093 0.88456 0.0
C1547 C 0.21651 0.45054 0.8701 0.0
C1548 C 0.23566 0.44516 0.85494 0.0
H1549 H 0.11729 0.33209 0.89455 0.0
H1550 H 0.15318 0.35654 0.88769 0.0
C1551 C 0.25656 0.45912 0.8554 0.0
C1552 C 0.19586 0.43396 0.87214 0.0
H1553 H 0.16748 0.39688 0.91107 0.0
C1554 C 0.18034 0.43106 0.85289 0.0
C1555 C 0.19153 0.42103 0.89315 0.0
C1556 C 0.20834 0.42253 0.91397 0.0
C1557 C 0.1601 0.41603 0.85437 0.0
C1558 C 0.15523 0.4039 0.87577 0.0
C1559 C 0.17116 0.40633 0.89475 0.0
C1560 C 0.1335 0.38894 0.87912 0.0
C1561 C 0.14426 0.41313 0.83299 0.0
C1562 C 0.11059 0.39917 0.877 0.0
C1563 C 0.09011 0.3853 0.88101 0.0
C1564 C 0.09213 0.36094 0.88741 0.0
C1565 C 0.11513 0.35082 0.88986 0.0
C1566 C 0.13563 0.36472 0.88577 0.0
H1567 H 0.15398 0.41776 0.81652 0.0
H1568 H 0.1374 0.39445 0.83152 0.0
H1569 H 0.12864 0.42542 0.83454 0.0
H1570 H 0.10853 0.41801 0.87259 0.0
H1571 H 0.07269 0.39377 0.87944 0.0
H1572 H 0.13309 0.10306 0.92846 0.0
H1573 H 0.10769 0.13809 0.92071 0.0
H1574 H 0.10313 0.11807 0.84747 0.0
H1575 H 0.12854 0.08312 0.85503 0.0
H1576 H 0.11549 0.17624 0.88998 0.0
H1577 H 0.03257 0.1262 0.86622 0.0
H1578 H 0.05778 0.11206 0.88064 0.0
H1579 H 0.05877 0.11805 0.84956 0.0
C1580 C 0.1268 0.10617 0.91069 0.0
C1581 C 0.13271 0.09017 0.89243 0.0
C1582 C 0.1122 0.12613 0.9063 0.0
C1583 C 0.10321 0.13044 0.8836 0.0
C1584 C 0.10939 0.11475 0.86524 0.0
H1585 H 0.04012 0.26906 0.84425 0.0
H1586 H 0.06359 0.23182 0.84315 0.0
C1587 C 0.12393 0.09477 0.86961 0.0
C1588 C 0.08777 0.15165 0.87913 0.0
H1589 H 0.03146 0.16853 0.86185 0.0
C1590 C 0.09715 0.17459 0.88375 0.0
C1591 C 0.0638 0.14937 0.87115 0.0
C1592 C 0.05249 0.12511 0.86677 0.0
C1593 C 0.08316 0.19534 0.88076 0.0
C1594 C 0.05926 0.19309 0.87257 0.0
C1595 C 0.04989 0.17017 0.86783 0.0
C1596 C 0.04322 0.21425 0.87065 0.0
C1597 C 0.09381 0.21944 0.88717 0.0
C1598 C 0.02328 0.21617 0.88561 0.0
C1599 C 0.00977 0.23731 0.88618 0.0
C1600 C 0.01592 0.2569 0.87174 0.0
C1601 C 0.03498 0.25435 0.85568 0.0
C1602 C 0.04851 0.23316 0.85513 0.0
H1603 H 0.11053 0.21756 0.89769 0.0
H1604 H 0.09826 0.22941 0.87082 0.0
H1605 H 0.08076 0.23039 0.89737 0.0
H1606 H 0.01882 0.20171 0.89762 0.0
H1607 H 0.9951 0.23862 0.89864 0.0
H1608 H 0.39555 0.14308 0.92617 0.0
H1609 H 0.35989 0.11795 0.92059 0.0
H1610 H 0.37909 0.10718 0.84776 0.0
H1611 H 0.41474 0.13216 0.85323 0.0
H1612 H 0.32148 0.12306 0.89018 0.0
H1613 H 0.37134 0.03855 0.87163 0.0
H1614 H 0.38573 0.06494 0.88359 0.0
H1615 H 0.37883 0.0633 0.85271 0.0
C1616 C 0.39206 0.1355 0.90895 0.0
C1617 C 0.40808 0.1394 0.89022 0.0
C1618 C 0.37176 0.12109 0.9058 0.0
C1619 C 0.36712 0.11035 0.88388 0.0
C1620 C 0.38268 0.11478 0.86497 0.0
H1621 H 0.22902 0.04264 0.85128 0.0
H1622 H 0.26565 0.06684 0.84834 0.0
C1623 C 0.40303 0.12907 0.86813 0.0
C1624 C 0.34592 0.0946 0.88091 0.0
H1625 H 0.329 0.03695 0.86837 0.0
C1626 C 0.32308 0.10426 0.88532 0.0
C1627 C 0.34816 0.07004 0.87468 0.0
C1628 C 0.37233 0.05847 0.87056 0.0
C1629 C 0.30238 0.08997 0.88391 0.0
C1630 C 0.30461 0.06546 0.87757 0.0
C1631 C 0.32741 0.05582 0.87297 0.0
C1632 C 0.2836 0.04921 0.87738 0.0
C1633 C 0.27838 0.10099 0.88996 0.0
C1634 C 0.28205 0.03067 0.89402 0.0
C1635 C 0.26126 0.01677 0.8957 0.0
C1636 C 0.24166 0.02114 0.88068 0.0
C1637 C 0.24376 0.03892 0.86319 0.0
C1638 C 0.26459 0.05284 0.86155 0.0
H1639 H 0.28036 0.11866 0.89889 0.0
H1640 H 0.26793 0.10379 0.87355 0.0
H1641 H 0.26789 0.08883 0.90156 0.0
H1642 H 0.29661 0.02754 0.90631 0.0
H1643 H 0.26027 0.00313 0.90927 0.0
H1644 H 0.3753 0.41587 0.84764 0.0
H1645 H 0.40093 0.38095 0.84077 0.0
H1646 H 0.38617 0.35558 0.91104 0.0
H1647 H 0.36061 0.39059 0.91815 0.0
H1648 H 0.44195 0.36655 0.86487 0.0
H1649 H 0.37078 0.29707 0.86996 0.0
H1650 H 0.36417 0.32868 0.86668 0.0
H1651 H 0.37145 0.31655 0.89516 0.0
C1652 C 0.37758 0.40298 0.86172 0.0
C1653 C 0.36585 0.40605 0.88349 0.0
C1654 C 0.39215 0.38295 0.85769 0.0
C1655 C 0.39516 0.36553 0.87527 0.0
C1656 C 0.38365 0.36857 0.89705 0.0
H1657 H 0.50285 0.26007 0.90084 0.0
H1658 H 0.47962 0.29695 0.89635 0.0
C1659 C 0.36904 0.38859 0.9011 0.0
C1660 C 0.41082 0.34443 0.87108 0.0
H1661 H 0.4113 0.28311 0.87205 0.0
C1662 C 0.43524 0.34829 0.86619 0.0
C1663 C 0.40192 0.32066 0.87235 0.0
C1664 C 0.3756 0.31543 0.87608 0.0
C1665 C 0.45121 0.32894 0.86358 0.0
C1666 C 0.44256 0.30519 0.86629 0.0
C1667 C 0.41795 0.30135 0.87015 0.0
C1668 C 0.45879 0.28408 0.86674 0.0
C1669 C 0.4772 0.33411 0.85806 0.0
C1670 C 0.45488 0.26457 0.85151 0.0
C1671 C 0.46805 0.24333 0.85413 0.0
C1672 C 0.48521 0.24119 0.87219 0.0
C1673 C 0.48979 0.26113 0.88673 0.0
C1674 C 0.47663 0.28233 0.8841 0.0
H1675 H 0.47931 0.35178 0.84918 0.0
H1676 H 0.48758 0.33474 0.87474 0.0
H1677 H 0.48506 0.31991 0.84666 0.0
H1678 H 0.44111 0.26553 0.83806 0.0
H1679 H 0.46406 0.22829 0.84265 0.0
H1680 H 0.8971 0.82978 0.36823 0.0
H1681 H 0.85996 0.85057 0.35735 0.0
H1682 H 0.86319 0.89176 0.42152 0.0
H1683 H 0.90059 0.87185 0.43224 0.0
H1684 H 0.81279 0.86656 0.39905 0.0
H1685 H 0.86818 0.93211 0.34829 0.0
H1686 H 0.87481 0.90033 0.3469 0.0
H1687 H 0.8803 0.91663 0.37355 0.0
C1688 C 0.88979 0.84304 0.3802 0.0
C1689 C 0.90216 0.84936 0.40096 0.0
C1690 C 0.86852 0.85479 0.37398 0.0
C1691 C 0.85911 0.87276 0.38857 0.0
C1692 C 0.8703 0.87788 0.41008 0.0
H1693 H 0.76517 0.99165 0.38858 0.0
H1694 H 0.79894 0.9636 0.38875 0.0
C1695 C 0.89164 0.8663 0.41624 0.0
C1696 C 0.83892 0.88785 0.38059 0.0
H1697 H 0.82684 0.94028 0.35169 0.0
C1698 C 0.81568 0.88248 0.38839 0.0
C1699 C 0.84302 0.90863 0.36687 0.0
C1700 C 0.86788 0.91498 0.35833 0.0
C1701 C 0.79637 0.89787 0.38333 0.0
C1702 C 0.80053 0.91898 0.37 0.0
C1703 C 0.82373 0.92399 0.36173 0.0
C1704 C 0.78148 0.93719 0.36662 0.0
C1705 C 0.77187 0.89206 0.39319 0.0
C1706 C 0.76092 0.93204 0.35326 0.0
C1707 C 0.74158 0.94811 0.35303 0.0
C1708 C 0.74254 0.96949 0.36627 0.0
C1709 C 0.76382 0.97527 0.37833 0.0
C1710 C 0.78314 0.95927 0.37844 0.0
H1711 H 0.7725 0.87706 0.40609 0.0
H1712 H 0.76401 0.9081 0.40194 0.0
H1713 H 0.75971 0.88678 0.3786 0.0
H1714 H 0.75947 0.9152 0.34378 0.0
H1715 H 0.72544 0.94314 0.34356 0.0
H1716 H 0.60324 0.92411 0.37992 0.0
H1717 H 0.57546 0.89066 0.37433 0.0
H1718 H 0.63309 0.84035 0.3864 0.0
H1719 H 0.66119 0.87379 0.39172 0.0
H1720 H 0.57767 0.85228 0.34108 0.0
H1721 H 0.5804 0.82046 0.4338 0.0
H1722 H 0.59127 0.84972 0.42509 0.0
H1723 H 0.60923 0.8234 0.41988 0.0
C1724 C 0.61011 0.90596 0.38121 0.0
C1725 C 0.63449 0.90163 0.38626 0.0
C1726 C 0.59417 0.88687 0.37808 0.0
C1727 C 0.60221 0.8631 0.38011 0.0
C1728 C 0.62649 0.85863 0.38509 0.0
H1729 H 0.53285 0.7297 0.34146 0.0
H1730 H 0.55655 0.76672 0.34092 0.0
C1731 C 0.6425 0.87774 0.38822 0.0
C1732 C 0.58507 0.84302 0.37719 0.0
H1733 H 0.55938 0.79615 0.40652 0.0
C1734 C 0.5736 0.83999 0.35536 0.0
C1735 C 0.5796 0.8273 0.39598 0.0
C1736 C 0.59058 0.83042 0.42009 0.0
C1737 C 0.55702 0.82131 0.35172 0.0
C1738 C 0.55204 0.80523 0.37035 0.0
C1739 C 0.56329 0.8085 0.39224 0.0
C1740 C 0.53547 0.78461 0.36772 0.0
C1741 C 0.54478 0.8191 0.32812 0.0
C1742 C 0.51552 0.78258 0.38267 0.0
C1743 C 0.50203 0.76144 0.38312 0.0
C1744 C 0.50834 0.74187 0.36871 0.0
C1745 C 0.52747 0.74448 0.35272 0.0
C1746 C 0.541 0.76566 0.35233 0.0
H1747 H 0.54589 0.83609 0.31789 0.0
H1748 H 0.55368 0.80473 0.31774 0.0
H1749 H 0.52559 0.81414 0.33028 0.0
H1750 H 0.51098 0.79702 0.39469 0.0
H1751 H 0.48735 0.76005 0.39555 0.0
H1752 H 0.73624 0.50776 0.40003 0.0
H1753 H 0.69922 0.53047 0.39447 0.0
H1754 H 0.73058 0.56707 0.33501 0.0
H1755 H 0.76796 0.54461 0.34065 0.0
H1756 H 0.71231 0.59802 0.36787 0.0
H1757 H 0.64494 0.52816 0.34668 0.0
H1758 H 0.6619 0.52092 0.37259 0.0
H1759 H 0.67687 0.52282 0.34456 0.0
C1760 C 0.73515 0.52028 0.38547 0.0
C1761 C 0.75509 0.52447 0.37086 0.0
C1762 C 0.71388 0.53314 0.38222 0.0
C1763 C 0.71206 0.55028 0.36419 0.0
C1764 C 0.7316 0.55382 0.34896 0.0
H1765 H 0.57805 0.62989 0.34401 0.0
H1766 H 0.61383 0.60556 0.3369 0.0
C1767 C 0.75291 0.54094 0.35219 0.0
C1768 C 0.69078 0.5662 0.36298 0.0
H1769 H 0.62951 0.56572 0.36147 0.0
C1770 C 0.69421 0.591 0.36611 0.0
C1771 C 0.66722 0.55707 0.36043 0.0
C1772 C 0.66249 0.53081 0.35563 0.0
C1773 C 0.67466 0.60679 0.36785 0.0
C1774 C 0.65107 0.59743 0.36686 0.0
C1775 C 0.64763 0.5728 0.36258 0.0
C1776 C 0.62973 0.61276 0.37094 0.0
C1777 C 0.67944 0.63333 0.37087 0.0
C1778 C 0.62673 0.62474 0.39251 0.0
C1779 C 0.60625 0.63861 0.39667 0.0
C1780 C 0.58826 0.64055 0.37942 0.0
C1781 C 0.59137 0.62852 0.35781 0.0
C1782 C 0.61188 0.6147 0.35365 0.0
H1783 H 0.69757 0.63831 0.36432 0.0
H1784 H 0.66583 0.64429 0.36143 0.0
H1785 H 0.67859 0.63794 0.38986 0.0
H1786 H 0.64006 0.62301 0.4063 0.0
H1787 H 0.60423 0.64732 0.4136 0.0
H1788 H 0.8607 0.59336 0.34503 0.0
H1789 H 0.8834 0.62969 0.3355 0.0
H1790 H 0.87838 0.65269 0.4079 0.0
H1791 H 0.85533 0.61651 0.41744 0.0
H1792 H 0.86955 0.68922 0.3774 0.0
H1793 H 0.95308 0.6413 0.35145 0.0
H1794 H 0.92688 0.63298 0.33494 0.0
H1795 H 0.92844 0.62628 0.36587 0.0
C1796 C 0.86457 0.60608 0.35895 0.0
C1797 C 0.85641 0.60199 0.38206 0.0
C1798 C 0.87757 0.62682 0.35347 0.0
C1799 C 0.88297 0.64369 0.37107 0.0
C1800 C 0.87445 0.63987 0.39405 0.0
H1801 H 0.99053 0.74845 0.39031 0.0
H1802 H 0.96574 0.71266 0.38592 0.0
C1803 C 0.86125 0.61924 0.39949 0.0
C1804 C 0.89756 0.66533 0.36577 0.0
H1805 H 0.95334 0.68357 0.34828 0.0
C1806 C 0.88781 0.68803 0.37086 0.0
C1807 C 0.92141 0.66367 0.35726 0.0
C1808 C 0.9332 0.63976 0.35224 0.0
C1809 C 0.90148 0.70908 0.36841 0.0
C1810 C 0.92541 0.7074 0.36016 0.0
C1811 C 0.93492 0.68478 0.35437 0.0
C1812 C 0.94172 0.72846 0.36028 0.0
C1813 C 0.8906 0.73278 0.37581 0.0
C1814 C 0.93692 0.74902 0.3467 0.0
C1815 C 0.95109 0.76968 0.34925 0.0
C1816 C 0.97028 0.76997 0.36536 0.0
C1817 C 0.97577 0.74889 0.37789 0.0
C1818 C 0.96165 0.72836 0.37536 0.0
H1819 H 0.87365 0.73033 0.38584 0.0
H1820 H 0.90338 0.74316 0.38686 0.0
H1821 H 0.88651 0.74362 0.35991 0.0
H1822 H 0.92186 0.7493 0.33464 0.0
H1823 H 0.94646 0.78564 0.33931 0.0
H1824 H 0.88897 0.64048 0.0782 0.0
H1825 H 0.85337 0.61604 0.08622 0.0
H1826 H 0.87757 0.6048 0.15751 0.0
H1827 H 0.91313 0.62918 0.14966 0.0
H1828 H 0.86328 0.5629 0.13607 0.0
H1829 H 0.7943 0.63377 0.12484 0.0
H1830 H 0.81403 0.63129 0.09997 0.0
H1831 H 0.82584 0.64054 0.12805 0.0
C1832 C 0.88655 0.63308 0.09565 0.0
C1833 C 0.9039 0.63678 0.11325 0.0
C1834 C 0.8662 0.61914 0.10023 0.0
C1835 C 0.86269 0.60889 0.12256 0.0
C1836 C 0.87994 0.61257 0.14018 0.0
H1837 H 0.72468 0.5421 0.15599 0.0
H1838 H 0.7617 0.56548 0.16011 0.0
C1839 C 0.90031 0.62643 0.1356 0.0
C1840 C 0.84145 0.59361 0.12725 0.0
H1841 H 0.78025 0.59311 0.12474 0.0
C1842 C 0.8451 0.56955 0.13384 0.0
C1843 C 0.81777 0.60244 0.12481 0.0
C1844 C 0.81269 0.62849 0.11927 0.0
C1845 C 0.82568 0.55378 0.137 0.0
C1846 C 0.80207 0.56226 0.1331 0.0
C1847 C 0.79839 0.58659 0.12755 0.0
C1848 C 0.781 0.546 0.13308 0.0
C1849 C 0.83064 0.5282 0.14435 0.0
C1850 C 0.77975 0.52706 0.11681 0.0
C1851 C 0.75869 0.51366 0.11444 0.0
C1852 C 0.73839 0.5191 0.12818 0.0
C1853 C 0.74001 0.53743 0.14518 0.0
C1854 C 0.76112 0.55084 0.14752 0.0
H1855 H 0.84803 0.5267 0.15383 0.0
H1856 H 0.81613 0.52115 0.15586 0.0
H1857 H 0.8317 0.51668 0.12842 0.0
H1858 H 0.79468 0.52332 0.10515 0.0
H1859 H 0.75803 0.49969 0.10116 0.0
H1860 H 0.95716 0.72821 0.15348 0.0
H1861 H 0.93267 0.76476 0.15531 0.0
H1862 H 0.9725 0.79471 0.0972 0.0
H1863 H 0.99725 0.75852 0.09542 0.0
H1864 H 0.96157 0.82839 0.13283 0.0
H1865 H 0.88141 0.77634 0.10412 0.0
H1866 H 0.89596 0.76562 0.13034 0.0
H1867 H 0.91146 0.76428 0.10263 0.0
C1868 C 0.961 0.74275 0.14137 0.0
C1869 C 0.97897 0.74035 0.12411 0.0
C1870 C 0.94688 0.76354 0.14235 0.0
C1871 C 0.95047 0.78218 0.12607 0.0
C1872 C 0.96935 0.78044 0.10982 0.0
H1873 H 0.85542 0.88983 0.07069 0.0
H1874 H 0.8813 0.85516 0.0783 0.0
C1875 C 0.98346 0.75972 0.10882 0.0
C1876 C 0.93373 0.80283 0.1248 0.0
H1877 H 0.87594 0.81776 0.11093 0.0
C1878 C 0.9428 0.82611 0.12824 0.0
C1879 C 0.90936 0.79974 0.11841 0.0
C1880 C 0.89891 0.77519 0.11345 0.0
C1881 C 0.92814 0.84645 0.12532 0.0
C1882 C 0.90373 0.84333 0.1191 0.0
C1883 C 0.89463 0.82004 0.11584 0.0
C1884 C 0.88756 0.86403 0.11489 0.0
C1885 C 0.93909 0.87111 0.12815 0.0
C1886 C 0.88214 0.88022 0.13307 0.0
C1887 C 0.86729 0.89999 0.12879 0.0
C1888 C 0.85748 0.90389 0.10626 0.0
C1889 C 0.8625 0.88728 0.08825 0.0
C1890 C 0.87738 0.86752 0.09255 0.0
H1891 H 0.95903 0.8705 0.12765 0.0
H1892 H 0.9327 0.88345 0.11411 0.0
H1893 H 0.9336 0.87874 0.14539 0.0
H1894 H 0.88936 0.87753 0.15058 0.0
H1895 H 0.8634 0.91214 0.14318 0.0
H1896 H 0.76425 0.95973 0.14716 0.0
H1897 H 0.72703 0.93666 0.15128 0.0
H1898 H 0.69735 0.97306 0.09091 0.0
H1899 H 0.73427 0.99638 0.08677 0.0
H1900 H 0.66416 0.96578 0.1287 0.0
H1901 H 0.71301 0.88245 0.10304 0.0
H1902 H 0.72498 0.89849 0.12789 0.0
H1903 H 0.72569 0.91206 0.09921 0.0
C1904 C 0.74965 0.96313 0.135 0.0
C1905 C 0.75231 0.97966 0.11644 0.0
C1906 C 0.72847 0.94984 0.13732 0.0
C1907 C 0.70969 0.95288 0.12112 0.0
C1908 C 0.71173 0.9704 0.1035 0.0
H1909 H 0.59853 0.85743 0.07414 0.0
H1910 H 0.6338 0.88314 0.07931 0.0
C1911 C 0.73286 0.98366 0.10115 0.0
C1912 C 0.6886 0.93674 0.12137 0.0
H1913 H 0.6717 0.87869 0.11102 0.0
C1914 C 0.66575 0.9467 0.12503 0.0
C1915 C 0.69083 0.91195 0.11621 0.0
C1916 C 0.71489 0.90053 0.11116 0.0
C1917 C 0.64497 0.93249 0.12351 0.0
C1918 C 0.64723 0.90767 0.11845 0.0
C1919 C 0.67009 0.89771 0.115 0.0
C1920 C 0.62603 0.89188 0.11566 0.0
C1921 C 0.62076 0.9443 0.12658 0.0
C1922 C 0.61027 0.88798 0.13451 0.0
C1923 C 0.59015 0.87328 0.13161 0.0
C1924 C 0.58553 0.86208 0.10983 0.0
C1925 C 0.60168 0.86564 0.09115 0.0
C1926 C 0.62175 0.8804 0.09405 0.0
H1927 H 0.62187 0.96418 0.12489 0.0
H1928 H 0.60772 0.93743 0.1134 0.0
H1929 H 0.61371 0.94008 0.14438 0.0
H1930 H 0.61357 0.89621 0.1515 0.0
H1931 H 0.57835 0.87052 0.1465 0.0
H1932 H 0.6604 0.61937 0.10343 0.0
H1933 H 0.63446 0.65434 0.10972 0.0
H1934 H 0.57397 0.60736 0.12125 0.0
H1935 H 0.5997 0.57241 0.11497 0.0
H1936 H 0.59476 0.66779 0.08482 0.0
H1937 H 0.57031 0.65173 0.17818 0.0
H1938 H 0.59475 0.63619 0.16386 0.0
H1939 H 0.56428 0.62655 0.15931 0.0
C1940 C 0.64156 0.6165 0.1072 0.0
C1941 C 0.63216 0.5931 0.10882 0.0
C1942 C 0.62681 0.63648 0.11096 0.0
C1943 C 0.60241 0.63342 0.11645 0.0
C1944 C 0.59289 0.61012 0.11773 0.0
H1945 H 0.49066 0.73902 0.09669 0.0
H1946 H 0.51499 0.70246 0.09758 0.0
C1947 C 0.60763 0.59016 0.11405 0.0
C1948 C 0.58664 0.65464 0.11957 0.0
H1949 H 0.54772 0.68178 0.15779 0.0
C1950 C 0.58458 0.67091 0.10082 0.0
C1951 C 0.57355 0.65877 0.14057 0.0
C1952 C 0.57597 0.64253 0.16172 0.0
C1953 C 0.56943 0.69098 0.10228 0.0
C1954 C 0.55564 0.69462 0.1229 0.0
C1955 C 0.55808 0.67869 0.1419 0.0
C1956 C 0.53889 0.71516 0.12492 0.0
C1957 C 0.56845 0.70826 0.08181 0.0
C1958 C 0.54358 0.73385 0.14085 0.0
C1959 C 0.52963 0.75477 0.14048 0.0
C1960 C 0.51077 0.75724 0.12416 0.0
C1961 C 0.50519 0.73779 0.10931 0.0
C1962 C 0.51911 0.71691 0.10973 0.0
H1963 H 0.58411 0.70606 0.06986 0.0
H1964 H 0.5519 0.70484 0.07145 0.0
H1965 H 0.56793 0.72717 0.08808 0.0
H1966 H 0.55871 0.73273 0.15279 0.0
H1967 H 0.53435 0.7694 0.1522 0.0
loop_
_geom_bond_atom_site_label_1
_geom_bond_atom_site_label_2
_geom_bond_distance
_geom_bond_site_symmetry_2
_ccdc_geom_bond_type
C0 C1 1.351 . S
C0 N3 1.368 . S
C0 H5 0.931 . S
C1 C0 1.351 . S
C1 N2 1.373 . S
C1 H29 0.930 . S
N2 C1 1.373 . S
N2 C4 1.340 . S
N3 C0 1.368 . S
N3 C4 1.321 . S
N3 Co6 2.135 . S
C4 N2 1.340 . S
C4 N3 1.321 . S
C4 H28 0.930 . S
H5 C0 0.931 . S
Co6 N3 2.135 . S
Co6 N9 2.121 1_455 S
Co6 O14 2.055 . S
Co6 O17 2.039 . S
Co6 N20 2.140 1_455 S
C7 O8 1.227 . S
C7 O17 1.265 . S
O8 C7 1.227 . S
N9 Co6 2.121 1_655 S
N9 C11 1.375 . S
N9 C12 1.313 . S
C10 C11 1.338 . S
C10 N13 1.377 . S
C10 H30 0.930 . S
C11 N9 1.375 . S
C11 C10 1.338 . S
C11 H15 0.931 . S
C12 N9 1.313 . S
C12 N13 1.344 . S
C12 H16 0.930 . S
N13 C10 1.377 . S
N13 C12 1.344 . S
O14 Co6 2.055 . S
O14 C18 1.253 . S
H15 C11 0.931 . S
H16 C12 0.930 . S
O17 Co6 2.039 . S
O17 C7 1.265 . S
C18 O14 1.253 . S
C18 O19 1.227 . S
O19 C18 1.227 . S
N20 Co6 2.140 1_655 S
N20 C23 1.346 1_655 S
N20 C24 1.345 . S
C21 C22 1.387 . S
C21 C25 1.391 . S
C22 C21 1.387 . S
C22 C23 1.369 1_655 S
C22 H31 0.929 . S
C23 N20 1.346 1_455 S
C23 C22 1.369 1_455 S
C23 H26 0.928 . S
C24 N20 1.345 . S
C24 C25 1.371 . S
C24 H27 0.931 . S
C25 C21 1.391 . S
C25 C24 1.371 . S
C25 H32 0.930 . S
H26 C23 0.928 . S
H27 C24 0.931 . S
H28 C4 0.930 . S
H29 C1 0.930 . S
H30 C10 0.930 . S
H31 C22 0.929 . S
H32 C25 0.930 . S
C33 C34 1.351 . S
C33 N36 1.368 . S
C33 H38 0.931 . S
C34 C33 1.351 . S
C34 N35 1.373 . S
C34 H62 0.930 . S
N35 C34 1.373 . S
N35 C37 1.340 . S
N36 C33 1.368 . S
N36 C37 1.321 . S
N36 Co39 2.135 . S
C37 N35 1.340 . S
C37 N36 1.321 . S
C37 H61 0.930 . S
H38 C33 0.931 . S
Co39 N36 2.135 . S
Co39 N42 2.121 1_545 S
Co39 O47 2.055 . S
Co39 O50 2.039 . S
Co39 N53 2.140 1_545 S
C40 O41 1.227 . S
C40 O50 1.265 . S
O41 C40 1.227 . S
N42 Co39 2.121 1_565 S
N42 C44 1.375 . S
N42 C45 1.313 . S
C43 C44 1.338 . S
C43 N46 1.377 . S
C43 H63 0.930 . S
C44 N42 1.375 . S
C44 C43 1.338 . S
C44 H48 0.931 . S
C45 N42 1.313 . S
C45 N46 1.344 . S
C45 H49 0.930 . S
N46 C43 1.377 . S
N46 C45 1.344 . S
O47 Co39 2.055 . S
O47 C51 1.253 . S
H48 C44 0.931 . S
H49 C45 0.930 . S
O50 Co39 2.039 . S
O50 C40 1.265 . S
C51 O47 1.253 . S
C51 O52 1.227 . S
O52 C51 1.227 . S
N53 Co39 2.140 1_565 S
N53 C56 1.346 1_565 S
N53 C57 1.345 . S
C54 C55 1.387 . S
C54 C58 1.391 . S
C55 C54 1.387 . S
C55 C56 1.369 1_565 S
C55 H64 0.929 . S
C56 N53 1.346 1_545 S
C56 C55 1.369 1_545 S
C56 H59 0.928 . S
C57 N53 1.345 . S
C57 C58 1.371 . S
C57 H60 0.931 . S
C58 C54 1.391 . S
C58 C57 1.371 . S
C58 H65 0.930 . S
H59 C56 0.928 . S
H60 C57 0.931 . S
H61 C37 0.930 . S
H62 C34 0.930 . S
H63 C43 0.930 . S
H64 C55 0.929 . S
H65 C58 0.930 . S
C66 C67 1.351 . S
C66 N69 1.368 . S
C66 H71 0.931 . S
C67 C66 1.351 . S
C67 N68 1.373 . S
C67 H95 0.930 . S
N68 C67 1.373 . S
N68 C70 1.340 . S
N69 C66 1.368 . S
N69 C70 1.321 . S
N69 Co72 2.135 . S
C70 N68 1.340 . S
C70 N69 1.321 . S
C70 H94 0.930 . S
H71 C66 0.931 . S
Co72 N69 2.135 . S
Co72 N75 2.121 . S
Co72 O80 2.055 . S
Co72 O83 2.039 . S
Co72 N86 2.140 . S
C73 O74 1.227 . S
C73 O83 1.265 . S
O74 C73 1.227 . S
N75 Co72 2.121 . S
N75 C77 1.375 . S
N75 C78 1.313 . S
C76 C77 1.338 . S
C76 N79 1.377 . S
C76 H96 0.930 . S
C77 N75 1.375 . S
C77 C76 1.338 . S
C77 H81 0.931 . S
C78 N75 1.313 . S
C78 N79 1.344 . S
C78 H82 0.930 . S
N79 C76 1.377 . S
N79 C78 1.344 . S
O80 Co72 2.055 . S
O80 C84 1.253 . S
H81 C77 0.931 . S
H82 C78 0.930 . S
O83 Co72 2.039 . S
O83 C73 1.265 . S
C84 O80 1.253 . S
C84 O85 1.227 . S
O85 C84 1.227 . S
N86 Co72 2.140 . S
N86 C89 1.346 . S
N86 C90 1.345 . S
C87 C88 1.387 . S
C87 C91 1.391 . S
C88 C87 1.387 . S
C88 C89 1.369 . S
C88 H97 0.929 . S
C89 N86 1.346 . S
C89 C88 1.369 . S
C89 H92 0.928 . S
C90 N86 1.345 . S
C90 C91 1.371 . S
C90 H93 0.931 . S
C91 C87 1.391 . S
C91 C90 1.371 . S
C91 H98 0.930 . S
H92 C89 0.928 . S
H93 C90 0.931 . S
H94 C70 0.930 . S
H95 C67 0.930 . S
H96 C76 0.930 . S
H97 C88 0.929 . S
H98 C91 0.930 . S
C99 C100 1.351 . S
C99 N102 1.368 . S
C99 H104 0.931 . S
C100 C99 1.351 . S
C100 N101 1.373 . S
C100 H128 0.930 . S
N101 C100 1.373 . S
N101 C103 1.340 . S
N102 C99 1.368 . S
N102 C103 1.321 . S
N102 Co105 2.135 . S
C103 N101 1.340 . S
C103 N102 1.321 . S
C103 H127 0.930 . S
H104 C99 0.931 . S
Co105 N102 2.135 . S
Co105 N108 2.121 . S
Co105 O113 2.055 . S
Co105 O116 2.039 . S
Co105 N119 2.140 . S
C106 O107 1.227 . S
C106 O116 1.265 . S
O107 C106 1.227 . S
N108 Co105 2.121 . S
N108 C110 1.375 . S
N108 C111 1.313 . S
C109 C110 1.338 . S
C109 N112 1.377 . S
C109 H129 0.930 . S
C110 N108 1.375 . S
C110 C109 1.338 . S
C110 H114 0.931 . S
C111 N108 1.313 . S
C111 N112 1.344 . S
C111 H115 0.930 . S
N112 C109 1.377 . S
N112 C111 1.344 . S
O113 Co105 2.055 . S
O113 C117 1.253 . S
H114 C110 0.931 . S
H115 C111 0.930 . S
O116 Co105 2.039 . S
O116 C106 1.265 . S
C117 O113 1.253 . S
C117 O118 1.227 . S
O118 C117 1.227 . S
N119 Co105 2.140 . S
N119 C122 1.346 . S
N119 C123 1.345 . S
C120 C121 1.387 . S
C120 C124 1.391 . S
C121 C120 1.387 . S
C121 C122 1.369 . S
C121 H130 0.929 . S
C122 N119 1.346 . S
C122 C121 1.369 . S
C122 H125 0.928 . S
C123 N119 1.345 . S
C123 C124 1.371 . S
C123 H126 0.931 . S
C124 C120 1.391 . S
C124 C123 1.371 . S
C124 H131 0.930 . S
H125 C122 0.928 . S
H126 C123 0.931 . S
H127 C103 0.930 . S
H128 C100 0.930 . S
H129 C109 0.930 . S
H130 C121 0.929 . S
H131 C124 0.930 . S
C132 C133 1.351 . S
C132 N135 1.368 . S
C132 H137 0.931 . S
C133 C132 1.351 . S
C133 N134 1.373 . S
C133 H161 0.930 . S
N134 C133 1.373 . S
N134 C136 1.340 . S
N135 C132 1.368 . S
N135 C136 1.321 . S
N135 Co138 2.135 . S
C136 N134 1.340 . S
C136 N135 1.321 . S
C136 H160 0.930 . S
H137 C132 0.931 . S
Co138 N135 2.135 . S
Co138 N141 2.121 1_455 S
Co138 O146 2.055 . S
Co138 O149 2.039 . S
Co138 N152 2.140 1_455 S
C139 O140 1.227 . S
C139 O149 1.265 . S
O140 C139 1.227 . S
N141 Co138 2.121 1_655 S
N141 C143 1.375 . S
N141 C144 1.313 . S
C142 C143 1.338 . S
C142 N145 1.377 . S
C142 H162 0.930 . S
C143 N141 1.375 . S
C143 C142 1.338 . S
C143 H147 0.931 . S
C144 N141 1.313 . S
C144 N145 1.344 . S
C144 H148 0.930 . S
N145 C142 1.377 . S
N145 C144 1.344 . S
O146 Co138 2.055 . S
O146 C150 1.253 . S
H147 C143 0.931 . S
H148 C144 0.930 . S
O149 Co138 2.039 . S
O149 C139 1.265 . S
C150 O146 1.253 . S
C150 O151 1.227 . S
O151 C150 1.227 . S
N152 Co138 2.140 1_655 S
N152 C155 1.346 1_655 S
N152 C156 1.345 . S
C153 C154 1.387 . S
C153 C157 1.391 . S
C154 C153 1.387 . S
C154 C155 1.369 1_655 S
C154 H163 0.929 . S
C155 N152 1.346 1_455 S
C155 C154 1.369 1_455 S
C155 H158 0.928 . S
C156 N152 1.345 . S
C156 C157 1.371 . S
C156 H159 0.931 . S
C157 C153 1.391 . S
C157 C156 1.371 . S
C157 H164 0.930 . S
H158 C155 0.928 . S
H159 C156 0.931 . S
H160 C136 0.930 . S
H161 C133 0.930 . S
H162 C142 0.930 . S
H163 C154 0.929 . S
H164 C157 0.930 . S
C165 C166 1.351 . S
C165 N168 1.368 . S
C165 H170 0.931 . S
C166 C165 1.351 . S
C166 N167 1.373 . S
C166 H194 0.930 . S
N167 C166 1.373 . S
N167 C169 1.340 . S
N168 C165 1.368 . S
N168 C169 1.321 . S
N168 Co171 2.135 . S
C169 N167 1.340 . S
C169 N168 1.321 . S
C169 H193 0.930 . S
H170 C165 0.931 . S
Co171 N168 2.135 . S
Co171 N174 2.121 1_545 S
Co171 O179 2.055 . S
Co171 O182 2.039 . S
Co171 N185 2.140 1_545 S
C172 O173 1.227 . S
C172 O182 1.265 . S
O173 C172 1.227 . S
N174 Co171 2.121 1_565 S
N174 C176 1.375 . S
N174 C177 1.313 . S
C175 C176 1.338 . S
C175 N178 1.377 . S
C175 H195 0.930 . S
C176 N174 1.375 . S
C176 C175 1.338 . S
C176 H180 0.931 . S
C177 N174 1.313 . S
C177 N178 1.344 . S
C177 H181 0.930 . S
N178 C175 1.377 . S
N178 C177 1.344 . S
O179 Co171 2.055 . S
O179 C183 1.253 . S
H180 C176 0.931 . S
H181 C177 0.930 . S
O182 Co171 2.039 . S
O182 C172 1.265 . S
C183 O179 1.253 . S
C183 O184 1.227 . S
O184 C183 1.227 . S
N185 Co171 2.140 1_565 S
N185 C188 1.346 1_565 S
N185 C189 1.345 . S
C186 C187 1.387 . S
C186 C190 1.391 . S
C187 C186 1.387 . S
C187 C188 1.369 1_565 S
C187 H196 0.929 . S
C188 N185 1.346 1_545 S
C188 C187 1.369 1_545 S
C188 H191 0.928 . S
C189 N185 1.345 . S
C189 C190 1.371 . S
C189 H192 0.931 . S
C190 C186 1.391 . S
C190 C189 1.371 . S
C190 H197 0.930 . S
H191 C188 0.928 . S
H192 C189 0.931 . S
H193 C169 0.930 . S
H194 C166 0.930 . S
H195 C175 0.930 . S
H196 C187 0.929 . S
H197 C190 0.930 . S
C198 C199 1.351 . S
C198 N201 1.368 . S
C198 H203 0.931 . S
C199 C198 1.351 . S
C199 N200 1.373 . S
C199 H227 0.930 . S
N200 C199 1.373 . S
N200 C202 1.340 . S
N201 C198 1.368 . S
N201 C202 1.321 . S
N201 Co204 2.135 . S
C202 N200 1.340 . S
C202 N201 1.321 . S
C202 H226 0.930 . S
H203 C198 0.931 . S
Co204 N201 2.135 . S
Co204 N207 2.121 . S
Co204 O212 2.055 . S
Co204 O215 2.039 . S
Co204 N218 2.140 . S
C205 O206 1.227 . S
C205 O215 1.265 . S
O206 C205 1.227 . S
N207 Co204 2.121 . S
N207 C209 1.375 . S
N207 C210 1.313 . S
C208 C209 1.338 . S
C208 N211 1.377 . S
C208 H228 0.930 . S
C209 N207 1.375 . S
C209 C208 1.338 . S
C209 H213 0.931 . S
C210 N207 1.313 . S
C210 N211 1.344 . S
C210 H214 0.930 . S
N211 C208 1.377 . S
N211 C210 1.344 . S
O212 Co204 2.055 . S
O212 C216 1.253 . S
H213 C209 0.931 . S
H214 C210 0.930 . S
O215 Co204 2.039 . S
O215 C205 1.265 . S
C216 O212 1.253 . S
C216 O217 1.227 . S
O217 C216 1.227 . S
N218 Co204 2.140 . S
N218 C221 1.346 . S
N218 C222 1.345 . S
C219 C220 1.387 . S
C219 C223 1.391 . S
C220 C219 1.387 . S
C220 C221 1.369 . S
C220 H229 0.929 . S
C221 N218 1.346 . S
C221 C220 1.369 . S
C221 H224 0.928 . S
C222 N218 1.345 . S
C222 C223 1.371 . S
C222 H225 0.931 . S
C223 C219 1.391 . S
C223 C222 1.371 . S
C223 H230 0.930 . S
H224 C221 0.928 . S
H225 C222 0.931 . S
H226 C202 0.930 . S
H227 C199 0.930 . S
H228 C208 0.930 . S
H229 C220 0.929 . S
H230 C223 0.930 . S
C231 C232 1.351 . S
C231 N234 1.368 . S
C231 H236 0.931 . S
C232 C231 1.351 . S
C232 N233 1.373 . S
C232 H260 0.930 . S
N233 C232 1.373 . S
N233 C235 1.340 . S
N234 C231 1.368 . S
N234 C235 1.321 . S
N234 Co237 2.135 . S
C235 N233 1.340 . S
C235 N234 1.321 . S
C235 H259 0.930 . S
H236 C231 0.931 . S
Co237 N234 2.135 . S
Co237 N240 2.121 . S
Co237 O245 2.055 . S
Co237 O248 2.039 . S
Co237 N251 2.140 . S
C238 O239 1.227 . S
C238 O248 1.265 . S
O239 C238 1.227 . S
N240 Co237 2.121 . S
N240 C242 1.375 . S
N240 C243 1.313 . S
C241 C242 1.338 . S
C241 N244 1.377 . S
C241 H261 0.930 . S
C242 N240 1.375 . S
C242 C241 1.338 . S
C242 H246 0.931 . S
C243 N240 1.313 . S
C243 N244 1.344 . S
C243 H247 0.930 . S
N244 C241 1.377 . S
N244 C243 1.344 . S
O245 Co237 2.055 . S
O245 C249 1.253 . S
H246 C242 0.931 . S
H247 C243 0.930 . S
O248 Co237 2.039 . S
O248 C238 1.265 . S
C249 O245 1.253 . S
C249 O250 1.227 . S
O250 C249 1.227 . S
N251 Co237 2.140 . S
N251 C254 1.346 . S
N251 C255 1.345 . S
C252 C253 1.387 . S
C252 C256 1.391 . S
C253 C252 1.387 . S
C253 C254 1.369 . S
C253 H262 0.929 . S
C254 N251 1.346 . S
C254 C253 1.369 . S
C254 H257 0.928 . S
C255 N251 1.345 . S
C255 C256 1.371 . S
C255 H258 0.931 . S
C256 C252 1.391 . S
C256 C255 1.371 . S
C256 H263 0.930 . S
H257 C254 0.928 . S
H258 C255 0.931 . S
H259 C235 0.930 . S
H260 C232 0.930 . S
H261 C241 0.930 . S
H262 C253 0.929 . S
H263 C256 0.930 . S
C264 C265 1.351 . S
C264 N267 1.368 . S
C264 H269 0.931 . S
C265 C264 1.351 . S
C265 N266 1.373 . S
C265 H293 0.930 . S
N266 C265 1.373 . S
N266 C268 1.340 . S
N267 C264 1.368 . S
N267 C268 1.321 . S
N267 Co270 2.135 . S
C268 N266 1.340 . S
C268 N267 1.321 . S
C268 H292 0.930 . S
H269 C264 0.931 . S
Co270 N267 2.135 . S
Co270 N273 2.121 1_655 S
Co270 O278 2.055 . S
Co270 O281 2.039 . S
Co270 N284 2.140 1_655 S
C271 O272 1.227 . S
C271 O281 1.265 . S
O272 C271 1.227 . S
N273 Co270 2.121 1_455 S
N273 C275 1.375 . S
N273 C276 1.313 . S
C274 C275 1.338 . S
C274 N277 1.377 . S
C274 H294 0.930 . S
C275 N273 1.375 . S
C275 C274 1.338 . S
C275 H279 0.931 . S
C276 N273 1.313 . S
C276 N277 1.344 . S
C276 H280 0.930 . S
N277 C274 1.377 . S
N277 C276 1.344 . S
O278 Co270 2.055 . S
O278 C282 1.253 . S
H279 C275 0.931 . S
H280 C276 0.930 . S
O281 Co270 2.039 . S
O281 C271 1.265 . S
C282 O278 1.253 . S
C282 O283 1.227 . S
O283 C282 1.227 . S
N284 Co270 2.140 1_455 S
N284 C287 1.346 1_455 S
N284 C288 1.345 . S
C285 C286 1.387 . S
C285 C289 1.391 . S
C286 C285 1.387 . S
C286 C287 1.369 1_455 S
C286 H295 0.929 . S
C287 N284 1.346 1_655 S
C287 C286 1.369 1_655 S
C287 H290 0.928 . S
C288 N284 1.345 . S
C288 C289 1.371 . S
C288 H291 0.931 . S
C289 C285 1.391 . S
C289 C288 1.371 . S
C289 H296 0.930 . S
H290 C287 0.928 . S
H291 C288 0.931 . S
H292 C268 0.930 . S
H293 C265 0.930 . S
H294 C274 0.930 . S
H295 C286 0.929 . S
H296 C289 0.930 . S
C297 C298 1.351 . S
C297 N300 1.368 . S
C297 H302 0.931 . S
C298 C297 1.351 . S
C298 N299 1.373 . S
C298 H326 0.930 . S
N299 C298 1.373 . S
N299 C301 1.340 . S
N300 C297 1.368 . S
N300 C301 1.321 . S
N300 Co303 2.135 . S
C301 N299 1.340 . S
C301 N300 1.321 . S
C301 H325 0.930 . S
H302 C297 0.931 . S
Co303 N300 2.135 . S
Co303 N306 2.121 1_565 S
Co303 O311 2.055 . S
Co303 O314 2.039 . S
Co303 N317 2.140 1_565 S
C304 O305 1.227 . S
C304 O314 1.265 . S
O305 C304 1.227 . S
N306 Co303 2.121 1_545 S
N306 C308 1.375 . S
N306 C309 1.313 . S
C307 C308 1.338 . S
C307 N310 1.377 . S
C307 H327 0.930 . S
C308 N306 1.375 . S
C308 C307 1.338 . S
C308 H312 0.931 . S
C309 N306 1.313 . S
C309 N310 1.344 . S
C309 H313 0.930 . S
N310 C307 1.377 . S
N310 C309 1.344 . S
O311 Co303 2.055 . S
O311 C315 1.253 . S
H312 C308 0.931 . S
H313 C309 0.930 . S
O314 Co303 2.039 . S
O314 C304 1.265 . S
C315 O311 1.253 . S
C315 O316 1.227 . S
O316 C315 1.227 . S
N317 Co303 2.140 1_545 S
N317 C320 1.346 1_545 S
N317 C321 1.345 . S
C318 C319 1.387 . S
C318 C322 1.391 . S
C319 C318 1.387 . S
C319 C320 1.369 1_545 S
C319 H328 0.929 . S
C320 N317 1.346 1_565 S
C320 C319 1.369 1_565 S
C320 H323 0.928 . S
C321 N317 1.345 . S
C321 C322 1.371 . S
C321 H324 0.931 . S
C322 C318 1.391 . S
C322 C321 1.371 . S
C322 H329 0.930 . S
H323 C320 0.928 . S
H324 C321 0.931 . S
H325 C301 0.930 . S
H326 C298 0.930 . S
H327 C307 0.930 . S
H328 C319 0.929 . S
H329 C322 0.930 . S
C330 C331 1.351 . S
C330 N333 1.368 . S
C330 H335 0.931 . S
C331 C330 1.351 . S
C331 N332 1.373 . S
C331 H359 0.930 . S
N332 C331 1.373 . S
N332 C334 1.340 . S
N333 C330 1.368 . S
N333 C334 1.321 . S
N333 Co336 2.135 . S
C334 N332 1.340 . S
C334 N333 1.321 . S
C334 H358 0.930 . S
H335 C330 0.931 . S
Co336 N333 2.135 . S
Co336 N339 2.121 . S
Co336 O344 2.055 . S
Co336 O347 2.039 . S
Co336 N350 2.140 . S
C337 O338 1.227 . S
C337 O347 1.265 . S
O338 C337 1.227 . S
N339 Co336 2.121 . S
N339 C341 1.375 . S
N339 C342 1.313 . S
C340 C341 1.338 . S
C340 N343 1.377 . S
C340 H360 0.930 . S
C341 N339 1.375 . S
C341 C340 1.338 . S
C341 H345 0.931 . S
C342 N339 1.313 . S
C342 N343 1.344 . S
C342 H346 0.930 . S
N343 C340 1.377 . S
N343 C342 1.344 . S
O344 Co336 2.055 . S
O344 C348 1.253 . S
H345 C341 0.931 . S
H346 C342 0.930 . S
O347 Co336 2.039 . S
O347 C337 1.265 . S
C348 O344 1.253 . S
C348 O349 1.227 . S
O349 C348 1.227 . S
N350 Co336 2.140 . S
N350 C353 1.346 . S
N350 C354 1.345 . S
C351 C352 1.387 . S
C351 C355 1.391 . S
C352 C351 1.387 . S
C352 C353 1.369 . S
C352 H361 0.929 . S
C353 N350 1.346 . S
C353 C352 1.369 . S
C353 H356 0.928 . S
C354 N350 1.345 . S
C354 C355 1.371 . S
C354 H357 0.931 . S
C355 C351 1.391 . S
C355 C354 1.371 . S
C355 H362 0.930 . S
H356 C353 0.928 . S
H357 C354 0.931 . S
H358 C334 0.930 . S
H359 C331 0.930 . S
H360 C340 0.930 . S
H361 C352 0.929 . S
H362 C355 0.930 . S
C363 C364 1.351 . S
C363 N366 1.368 . S
C363 H368 0.931 . S
C364 C363 1.351 . S
C364 N365 1.373 . S
C364 H392 0.930 . S
N365 C364 1.373 . S
N365 C367 1.340 . S
N366 C363 1.368 . S
N366 C367 1.321 . S
N366 Co369 2.135 . S
C367 N365 1.340 . S
C367 N366 1.321 . S
C367 H391 0.930 . S
H368 C363 0.931 . S
Co369 N366 2.135 . S
Co369 N372 2.121 . S
Co369 O377 2.055 . S
Co369 O380 2.039 . S
Co369 N383 2.140 . S
C370 O371 1.227 . S
C370 O380 1.265 . S
O371 C370 1.227 . S
N372 Co369 2.121 . S
N372 C374 1.375 . S
N372 C375 1.313 . S
C373 C374 1.338 . S
C373 N376 1.377 . S
C373 H393 0.930 . S
C374 N372 1.375 . S
C374 C373 1.338 . S
C374 H378 0.931 . S
C375 N372 1.313 . S
C375 N376 1.344 . S
C375 H379 0.930 . S
N376 C373 1.377 . S
N376 C375 1.344 . S
O377 Co369 2.055 . S
O377 C381 1.253 . S
H378 C374 0.931 . S
H379 C375 0.930 . S
O380 Co369 2.039 . S
O380 C370 1.265 . S
C381 O377 1.253 . S
C381 O382 1.227 . S
O382 C381 1.227 . S
N383 Co369 2.140 . S
N383 C386 1.346 . S
N383 C387 1.345 . S
C384 C385 1.387 . S
C384 C388 1.391 . S
C385 C384 1.387 . S
C385 C386 1.369 . S
C385 H394 0.929 . S
C386 N383 1.346 . S
C386 C385 1.369 . S
C386 H389 0.928 . S
C387 N383 1.345 . S
C387 C388 1.371 . S
C387 H390 0.931 . S
C388 C384 1.391 . S
C388 C387 1.371 . S
C388 H395 0.930 . S
H389 C386 0.928 . S
H390 C387 0.931 . S
H391 C367 0.930 . S
H392 C364 0.930 . S
H393 C373 0.930 . S
H394 C385 0.929 . S
H395 C388 0.930 . S
C396 C397 1.351 . S
C396 N399 1.368 . S
C396 H401 0.931 . S
C397 C396 1.351 . S
C397 N398 1.373 . S
C397 H425 0.930 . S
N398 C397 1.373 . S
N398 C400 1.340 . S
N399 C396 1.368 . S
N399 C400 1.321 . S
N399 Co402 2.135 . S
C400 N398 1.340 . S
C400 N399 1.321 . S
C400 H424 0.930 . S
H401 C396 0.931 . S
Co402 N399 2.135 . S
Co402 N405 2.121 1_655 S
Co402 O410 2.055 . S
Co402 O413 2.039 . S
Co402 N416 2.140 1_655 S
C403 O404 1.227 . S
C403 O413 1.265 . S
O404 C403 1.227 . S
N405 Co402 2.121 1_455 S
N405 C407 1.375 . S
N405 C408 1.313 . S
C406 C407 1.338 . S
C406 N409 1.377 . S
C406 H426 0.930 . S
C407 N405 1.375 . S
C407 C406 1.338 . S
C407 H411 0.931 . S
C408 N405 1.313 . S
C408 N409 1.344 . S
C408 H412 0.930 . S
N409 C406 1.377 . S
N409 C408 1.344 . S
O410 Co402 2.055 . S
O410 C414 1.253 . S
H411 C407 0.931 . S
H412 C408 0.930 . S
O413 Co402 2.039 . S
O413 C403 1.265 . S
C414 O410 1.253 . S
C414 O415 1.227 . S
O415 C414 1.227 . S
N416 Co402 2.140 1_455 S
N416 C419 1.346 1_455 S
N416 C420 1.345 . S
C417 C418 1.387 . S
C417 C421 1.391 . S
C418 C417 1.387 . S
C418 C419 1.369 1_455 S
C418 H427 0.929 . S
C419 N416 1.346 1_655 S
C419 C418 1.369 1_655 S
C419 H422 0.928 . S
C420 N416 1.345 . S
C420 C421 1.371 . S
C420 H423 0.931 . S
C421 C417 1.391 . S
C421 C420 1.371 . S
C421 H428 0.930 . S
H422 C419 0.928 . S
H423 C420 0.931 . S
H424 C400 0.930 . S
H425 C397 0.930 . S
H426 C406 0.930 . S
H427 C418 0.929 . S
H428 C421 0.930 . S
C429 C430 1.351 . S
C429 N432 1.368 . S
C429 H434 0.931 . S
C430 C429 1.351 . S
C430 N431 1.373 . S
C430 H458 0.930 . S
N431 C430 1.373 . S
N431 C433 1.340 . S
N432 C429 1.368 . S
N432 C433 1.321 . S
N432 Co435 2.135 . S
C433 N431 1.340 . S
C433 N432 1.321 . S
C433 H457 0.930 . S
H434 C429 0.931 . S
Co435 N432 2.135 . S
Co435 N438 2.121 1_565 S
Co435 O443 2.055 . S
Co435 O446 2.039 . S
Co435 N449 2.140 1_565 S
C436 O437 1.227 . S
C436 O446 1.265 . S
O437 C436 1.227 . S
N438 Co435 2.121 1_545 S
N438 C440 1.375 . S
N438 C441 1.313 . S
C439 C440 1.338 . S
C439 N442 1.377 . S
C439 H459 0.930 . S
C440 N438 1.375 . S
C440 C439 1.338 . S
C440 H444 0.931 . S
C441 N438 1.313 . S
C441 N442 1.344 . S
C441 H445 0.930 . S
N442 C439 1.377 . S
N442 C441 1.344 . S
O443 Co435 2.055 . S
O443 C447 1.253 . S
H444 C440 0.931 . S
H445 C441 0.930 . S
O446 Co435 2.039 . S
O446 C436 1.265 . S
C447 O443 1.253 . S
C447 O448 1.227 . S
O448 C447 1.227 . S
N449 Co435 2.140 1_545 S
N449 C452 1.346 1_545 S
N449 C453 1.345 . S
C450 C451 1.387 . S
C450 C454 1.391 . S
C451 C450 1.387 . S
C451 C452 1.369 1_545 S
C451 H460 0.929 . S
C452 N449 1.346 1_565 S
C452 C451 1.369 1_565 S
C452 H455 0.928 . S
C453 N449 1.345 . S
C453 C454 1.371 . S
C453 H456 0.931 . S
C454 C450 1.391 . S
C454 C453 1.371 . S
C454 H461 0.930 . S
H455 C452 0.928 . S
H456 C453 0.931 . S
H457 C433 0.930 . S
H458 C430 0.930 . S
H459 C439 0.930 . S
H460 C451 0.929 . S
H461 C454 0.930 . S
C462 C463 1.351 . S
C462 N465 1.368 . S
C462 H467 0.931 . S
C463 C462 1.351 . S
C463 N464 1.373 . S
C463 H491 0.930 . S
N464 C463 1.373 . S
N464 C466 1.340 . S
N465 C462 1.368 . S
N465 C466 1.321 . S
N465 Co468 2.135 . S
C466 N464 1.340 . S
C466 N465 1.321 . S
C466 H490 0.930 . S
H467 C462 0.931 . S
Co468 N465 2.135 . S
Co468 N471 2.121 . S
Co468 O476 2.055 . S
Co468 O479 2.039 . S
Co468 N482 2.140 . S
C469 O470 1.227 . S
C469 O479 1.265 . S
O470 C469 1.227 . S
N471 Co468 2.121 . S
N471 C473 1.375 . S
N471 C474 1.313 . S
C472 C473 1.338 . S
C472 N475 1.377 . S
C472 H492 0.930 . S
C473 N471 1.375 . S
C473 C472 1.338 . S
C473 H477 0.931 . S
C474 N471 1.313 . S
C474 N475 1.344 . S
C474 H478 0.930 . S
N475 C472 1.377 . S
N475 C474 1.344 . S
O476 Co468 2.055 . S
O476 C480 1.253 . S
H477 C473 0.931 . S
H478 C474 0.930 . S
O479 Co468 2.039 . S
O479 C469 1.265 . S
C480 O476 1.253 . S
C480 O481 1.227 . S
O481 C480 1.227 . S
N482 Co468 2.140 . S
N482 C485 1.346 . S
N482 C486 1.345 . S
C483 C484 1.387 . S
C483 C487 1.391 . S
C484 C483 1.387 . S
C484 C485 1.369 . S
C484 H493 0.929 . S
C485 N482 1.346 . S
C485 C484 1.369 . S
C485 H488 0.928 . S
C486 N482 1.345 . S
C486 C487 1.371 . S
C486 H489 0.931 . S
C487 C483 1.391 . S
C487 C486 1.371 . S
C487 H494 0.930 . S
H488 C485 0.928 . S
H489 C486 0.931 . S
H490 C466 0.930 . S
H491 C463 0.930 . S
H492 C472 0.930 . S
H493 C484 0.929 . S
H494 C487 0.930 . S
C495 C496 1.351 . S
C495 N498 1.368 . S
C495 H500 0.931 . S
C496 C495 1.351 . S
C496 N497 1.373 . S
C496 H524 0.930 . S
N497 C496 1.373 . S
N497 C499 1.340 . S
N498 C495 1.368 . S
N498 C499 1.321 . S
N498 Co501 2.135 . S
C499 N497 1.340 . S
C499 N498 1.321 . S
C499 H523 0.930 . S
H500 C495 0.931 . S
Co501 N498 2.135 . S
Co501 N504 2.121 . S
Co501 O509 2.055 . S
Co501 O512 2.039 . S
Co501 N515 2.140 . S
C502 O503 1.227 . S
C502 O512 1.265 . S
O503 C502 1.227 . S
N504 Co501 2.121 . S
N504 C506 1.375 . S
N504 C507 1.313 . S
C505 C506 1.338 . S
C505 N508 1.377 . S
C505 H525 0.930 . S
C506 N504 1.375 . S
C506 C505 1.338 . S
C506 H510 0.931 . S
C507 N504 1.313 . S
C507 N508 1.344 . S
C507 H511 0.930 . S
N508 C505 1.377 . S
N508 C507 1.344 . S
O509 Co501 2.055 . S
O509 C513 1.253 . S
H510 C506 0.931 . S
H511 C507 0.930 . S
O512 Co501 2.039 . S
O512 C502 1.265 . S
C513 O509 1.253 . S
C513 O514 1.227 . S
O514 C513 1.227 . S
N515 Co501 2.140 . S
N515 C518 1.346 . S
N515 C519 1.345 . S
C516 C517 1.387 . S
C516 C520 1.391 . S
C517 C516 1.387 . S
C517 C518 1.369 . S
C517 H526 0.929 . S
C518 N515 1.346 . S
C518 C517 1.369 . S
C518 H521 0.928 . S
C519 N515 1.345 . S
C519 C520 1.371 . S
C519 H522 0.931 . S
C520 C516 1.391 . S
C520 C519 1.371 . S
C520 H527 0.930 . S
H521 C518 0.928 . S
H522 C519 0.931 . S
H523 C499 0.930 . S
H524 C496 0.930 . S
H525 C505 0.930 . S
H526 C517 0.929 . S
H527 C520 0.930 . S
H528 C536 0.929 . S
H529 C538 0.930 . S
H530 C540 0.930 . S
H531 C543 0.944 . S
H532 C546 0.930 . S
H533 C548 0.960 . S
H534 C548 0.960 . S
H535 C548 0.960 . S
C536 H528 0.929 . S
C536 C537 1.377 . S
C536 C538 1.384 . S
C537 C536 1.377 . S
C537 C543 1.390 . S
C538 H529 0.930 . S
C538 C536 1.384 . S
C538 C539 1.372 . S
C539 C538 1.372 . S
C539 C540 1.400 . S
C539 C544 1.490 . S
C540 H530 0.930 . S
C540 C539 1.400 . S
C540 C543 1.386 . S
H541 C557 0.930 . S
H542 C558 0.931 . S
C543 H531 0.944 . S
C543 C537 1.390 . S
C543 C540 1.386 . S
C544 C539 1.490 . S
C544 C546 1.395 . S
C544 C547 1.403 . S
H545 C551 0.930 . S
C546 H532 0.930 . S
C546 C544 1.395 . S
C546 C549 1.403 . S
C547 C544 1.403 . S
C547 C548 1.524 . S
C547 C551 1.400 . S
C548 H533 0.960 . S
C548 H534 0.960 . S
C548 H535 0.960 . S
C548 C547 1.524 . S
C549 C546 1.403 . S
C549 C550 1.392 . S
C549 C553 1.495 . S
C550 C549 1.392 . S
C550 C551 1.385 . S
C550 C552 1.478 . S
C551 H545 0.930 . S
C551 C547 1.400 . S
C551 C550 1.385 . S
C552 C550 1.478 . S
C552 C554 1.381 . S
C552 C558 1.383 . S
C553 C549 1.495 . S
C553 H559 0.959 . S
C553 H560 0.961 . S
C553 H561 0.960 . S
C554 C552 1.381 . S
C554 C555 1.394 . S
C554 H562 0.930 . S
C555 C554 1.394 . S
C555 C556 1.383 . S
C555 H563 0.929 1_545 S
C556 C555 1.383 . S
C556 C557 1.377 . S
C557 H541 0.930 . S
C557 C556 1.377 . S
C557 C558 1.379 . S
C558 H542 0.931 . S
C558 C552 1.383 . S
C558 C557 1.379 . S
H559 C553 0.959 . S
H560 C553 0.961 . S
H561 C553 0.960 . S
H562 C554 0.930 . S
H563 C555 0.929 1_565 S
H564 C572 0.929 . S
H565 C574 0.930 . S
H566 C576 0.930 . S
H567 C579 0.929 . S
H568 C582 0.930 . S
H569 C584 0.960 . S
H570 C584 0.960 . S
H571 C584 0.960 . S
C572 H564 0.929 . S
C572 C573 1.377 . S
C572 C574 1.384 . S
C573 C572 1.377 . S
C573 C579 1.390 . S
C574 H565 0.930 . S
C574 C572 1.384 . S
C574 C575 1.372 . S
C575 C574 1.372 . S
C575 C576 1.400 . S
C575 C580 1.490 . S
C576 H566 0.930 . S
C576 C575 1.400 . S
C576 C579 1.386 . S
H577 C593 0.930 . S
H578 C594 0.931 . S
C579 H567 0.929 . S
C579 C573 1.390 . S
C579 C576 1.386 . S
C580 C575 1.490 . S
C580 C582 1.395 . S
C580 C583 1.403 . S
H581 C587 0.930 . S
C582 H568 0.930 . S
C582 C580 1.395 . S
C582 C585 1.403 . S
C583 C580 1.403 . S
C583 C584 1.524 . S
C583 C587 1.400 . S
C584 H569 0.960 . S
C584 H570 0.960 . S
C584 H571 0.960 . S
C584 C583 1.524 . S
C585 C582 1.403 . S
C585 C586 1.392 . S
C585 C589 1.495 . S
C586 C585 1.392 . S
C586 C587 1.385 . S
C586 C588 1.478 . S
C587 H581 0.930 . S
C587 C583 1.400 . S
C587 C586 1.385 . S
C588 C586 1.478 . S
C588 C590 1.381 . S
C588 C594 1.383 . S
C589 C585 1.495 . S
C589 H595 0.959 . S
C589 H596 0.961 . S
C589 H597 0.960 . S
C590 C588 1.381 . S
C590 C591 1.394 . S
C590 H598 0.930 . S
C591 C590 1.394 . S
C591 C592 1.383 . S
C591 H599 0.929 . S
C592 C591 1.383 . S
C592 C593 1.377 . S
C593 H577 0.930 . S
C593 C592 1.377 . S
C593 C594 1.379 . S
C594 H578 0.931 . S
C594 C588 1.383 . S
C594 C593 1.379 . S
H595 C589 0.959 . S
H596 C589 0.961 . S
H597 C589 0.960 . S
H598 C590 0.930 . S
H599 C591 0.929 . S
H600 C608 0.929 . S
H601 C610 0.930 . S
H602 C612 0.930 . S
H603 C615 0.929 . S
H604 C618 0.930 . S
H605 C620 0.960 . S
H606 C620 0.960 . S
H607 C620 0.960 . S
C608 H600 0.929 . S
C608 C609 1.377 . S
C608 C610 1.384 . S
C609 C608 1.377 . S
C609 C615 1.390 . S
C610 H601 0.930 . S
C610 C608 1.384 . S
C610 C611 1.372 . S
C611 C610 1.372 . S
C611 C612 1.400 . S
C611 C616 1.490 . S
C612 H602 0.930 . S
C612 C611 1.400 . S
C612 C615 1.386 . S
H613 C629 0.930 . S
H614 C630 0.931 . S
C615 H603 0.929 . S
C615 C609 1.390 . S
C615 C612 1.386 . S
C616 C611 1.490 . S
C616 C618 1.395 . S
C616 C619 1.403 . S
H617 C623 0.930 . S
C618 H604 0.930 . S
C618 C616 1.395 . S
C618 C621 1.403 . S
C619 C616 1.403 . S
C619 C620 1.524 . S
C619 C623 1.400 . S
C620 H605 0.960 . S
C620 H606 0.960 . S
C620 H607 0.960 . S
C620 C619 1.524 . S
C621 C618 1.403 . S
C621 C622 1.392 . S
C621 C625 1.495 . S
C622 C621 1.392 . S
C622 C623 1.385 . S
C622 C624 1.478 . S
C623 H617 0.930 . S
C623 C619 1.400 . S
C623 C622 1.385 . S
C624 C622 1.478 . S
C624 C626 1.381 . S
C624 C630 1.383 . S
C625 C621 1.495 . S
C625 H631 0.959 . S
C625 H632 0.961 . S
C625 H633 0.960 . S
C626 C624 1.381 . S
C626 C627 1.394 . S
C626 H634 0.930 . S
C627 C626 1.394 . S
C627 C628 1.383 . S
C627 H635 0.929 . S
C628 C627 1.383 . S
C628 C629 1.377 . S
C629 H613 0.930 . S
C629 C628 1.377 . S
C629 C630 1.379 . S
C630 H614 0.931 . S
C630 C624 1.383 . S
C630 C629 1.379 . S
H631 C625 0.959 . S
H632 C625 0.961 . S
H633 C625 0.960 . S
H634 C626 0.930 . S
H635 C627 0.929 . S
H636 C644 0.929 . S
H637 C646 0.930 . S
H638 C648 0.930 . S
H639 C651 0.929 . S
H640 C654 0.930 . S
H641 C656 0.960 . S
H642 C656 0.960 . S
H643 C656 0.960 . S
C644 H636 0.929 . S
C644 C645 1.377 . S
C644 C646 1.384 . S
C645 C644 1.377 . S
C645 C651 1.390 . S
C646 H637 0.930 . S
C646 C644 1.384 . S
C646 C647 1.372 . S
C647 C646 1.372 . S
C647 C648 1.400 . S
C647 C652 1.490 . S
C648 H638 0.930 . S
C648 C647 1.400 . S
C648 C651 1.386 . S
H649 C665 0.930 . S
H650 C666 0.931 . S
C651 H639 0.929 . S
C651 C645 1.390 . S
C651 C648 1.386 . S
C652 C647 1.490 . S
C652 C654 1.395 . S
C652 C655 1.403 . S
H653 C659 0.930 . S
C654 H640 0.930 . S
C654 C652 1.395 . S
C654 C657 1.403 . S
C655 C652 1.403 . S
C655 C656 1.524 . S
C655 C659 1.400 . S
C656 H641 0.960 . S
C656 H642 0.960 . S
C656 H643 0.960 . S
C656 C655 1.524 . S
C657 C654 1.403 . S
C657 C658 1.392 . S
C657 C661 1.495 . S
C658 C657 1.392 . S
C658 C659 1.385 . S
C658 C660 1.478 . S
C659 H653 0.930 . S
C659 C655 1.400 . S
C659 C658 1.385 . S
C660 C658 1.478 . S
C660 C662 1.381 . S
C660 C666 1.383 . S
C661 C657 1.495 . S
C661 H667 0.959 . S
C661 H668 0.961 . S
C661 H669 0.960 . S
C662 C660 1.381 . S
C662 C663 1.394 . S
C662 H670 0.930 . S
C663 C662 1.394 . S
C663 C664 1.383 . S
C663 H671 0.929 . S
C664 C663 1.383 . S
C664 C665 1.377 . S
C665 H649 0.930 . S
C665 C664 1.377 . S
C665 C666 1.379 . S
C666 H650 0.931 . S
C666 C660 1.383 . S
C666 C665 1.379 . S
H667 C661 0.959 . S
H668 C661 0.961 . S
H669 C661 0.960 . S
H670 C662 0.930 . S
H671 C663 0.929 . S
H672 C680 0.929 1_455 S
H673 C682 0.930 . S
H674 C684 0.930 . S
H675 C687 0.929 . S
H676 C690 0.930 . S
H677 C692 0.960 . S
H678 C692 0.960 . S
H679 C692 0.960 . S
C680 H672 0.929 1_655 S
C680 C681 1.377 . S
C680 C682 1.384 . S
C681 C680 1.377 . S
C681 C687 1.390 . S
C682 H673 0.930 . S
C682 C680 1.384 . S
C682 C683 1.372 . S
C683 C682 1.372 . S
C683 C684 1.400 . S
C683 C688 1.490 . S
C684 H674 0.930 . S
C684 C683 1.400 . S
C684 C687 1.386 . S
H685 C701 0.930 . S
H686 C702 0.931 . S
C687 H675 0.929 . S
C687 C681 1.390 . S
C687 C684 1.386 . S
C688 C683 1.490 . S
C688 C690 1.395 . S
C688 C691 1.403 . S
H689 C695 0.930 . S
C690 H676 0.930 . S
C690 C688 1.395 . S
C690 C693 1.403 . S
C691 C688 1.403 . S
C691 C692 1.524 . S
C691 C695 1.400 . S
C692 H677 0.960 . S
C692 H678 0.960 . S
C692 H679 0.960 . S
C692 C691 1.524 . S
C693 C690 1.403 . S
C693 C694 1.392 . S
C693 C697 1.495 . S
C694 C693 1.392 . S
C694 C695 1.385 . S
C694 C696 1.478 . S
C695 H689 0.930 . S
C695 C691 1.400 . S
C695 C694 1.385 . S
C696 C694 1.478 . S
C696 C698 1.381 . S
C696 C702 1.383 . S
C697 C693 1.495 . S
C697 H703 0.959 . S
C697 H704 0.961 . S
C697 H705 0.960 . S
C698 C696 1.381 . S
C698 C699 1.394 . S
C698 H706 0.930 . S
C699 C698 1.394 . S
C699 C700 1.383 . S
C699 H707 0.929 1_565 S
C700 C699 1.383 . S
C700 C701 1.377 . S
C701 H685 0.930 . S
C701 C700 1.377 . S
C701 C702 1.379 . S
C702 H686 0.931 . S
C702 C696 1.383 . S
C702 C701 1.379 . S
H703 C697 0.959 . S
H704 C697 0.961 . S
H705 C697 0.960 . S
H706 C698 0.930 . S
H707 C699 0.929 1_545 S
H708 C716 0.929 . S
H709 C718 0.930 . S
H710 C720 0.930 . S
H711 C723 0.929 . S
H712 C726 0.930 . S
H713 C728 0.960 . S
H714 C728 0.960 . S
H715 C728 0.960 . S
C716 H708 0.929 . S
C716 C717 1.377 . S
C716 C718 1.384 . S
C717 C716 1.377 . S
C717 C723 1.390 . S
C718 H709 0.930 . S
C718 C716 1.384 . S
C718 C719 1.372 . S
C719 C718 1.372 . S
C719 C720 1.400 . S
C719 C724 1.490 . S
C720 H710 0.930 . S
C720 C719 1.400 . S
C720 C723 1.386 . S
H721 C737 0.930 . S
H722 C738 0.931 . S
C723 H711 0.929 . S
C723 C717 1.390 . S
C723 C720 1.386 . S
C724 C719 1.490 . S
C724 C726 1.395 . S
C724 C727 1.403 . S
H725 C731 0.930 . S
C726 H712 0.930 . S
C726 C724 1.395 . S
C726 C729 1.403 . S
C727 C724 1.403 . S
C727 C728 1.524 . S
C727 C731 1.400 . S
C728 H713 0.960 . S
C728 H714 0.960 . S
C728 H715 0.960 . S
C728 C727 1.524 . S
C729 C726 1.403 . S
C729 C730 1.392 . S
C729 C733 1.495 . S
C730 C729 1.392 . S
C730 C731 1.385 . S
C730 C732 1.478 . S
C731 H725 0.930 . S
C731 C727 1.400 . S
C731 C730 1.385 . S
C732 C730 1.478 . S
C732 C734 1.381 . S
C732 C738 1.383 . S
C733 C729 1.495 . S
C733 H739 0.959 . S
C733 H740 0.961 . S
C733 H741 0.960 . S
C734 C732 1.381 . S
C734 C735 1.394 . S
C734 H742 0.930 . S
C735 C734 1.394 . S
C735 C736 1.383 . S
C735 H743 0.929 . S
C736 C735 1.383 . S
C736 C737 1.377 . S
C737 H721 0.930 . S
C737 C736 1.377 . S
C737 C738 1.379 . S
C738 H722 0.931 . S
C738 C732 1.383 . S
C738 C737 1.379 . S
H739 C733 0.959 . S
H740 C733 0.961 . S
H741 C733 0.960 . S
H742 C734 0.930 . S
H743 C735 0.929 . S
H744 C752 0.929 . S
H745 C754 0.930 . S
H746 C756 0.930 . S
H747 C759 0.929 . S
H748 C762 0.930 . S
H749 C764 0.960 . S
H750 C764 0.960 . S
H751 C764 0.960 . S
C752 H744 0.929 . S
C752 C753 1.377 . S
C752 C754 1.384 . S
C753 C752 1.377 . S
C753 C759 1.390 . S
C754 H745 0.930 . S
C754 C752 1.384 . S
C754 C755 1.372 . S
C755 C754 1.372 . S
C755 C756 1.400 . S
C755 C760 1.490 . S
C756 H746 0.930 . S
C756 C755 1.400 . S
C756 C759 1.386 . S
H757 C773 0.930 . S
H758 C774 0.931 . S
C759 H747 0.929 . S
C759 C753 1.390 . S
C759 C756 1.386 . S
C760 C755 1.490 . S
C760 C762 1.395 . S
C760 C763 1.403 . S
H761 C767 0.930 . S
C762 H748 0.930 . S
C762 C760 1.395 . S
C762 C765 1.403 . S
C763 C760 1.403 . S
C763 C764 1.524 . S
C763 C767 1.400 . S
C764 H749 0.960 . S
C764 H750 0.960 . S
C764 H751 0.960 . S
C764 C763 1.524 . S
C765 C762 1.403 . S
C765 C766 1.392 . S
C765 C769 1.495 . S
C766 C765 1.392 . S
C766 C767 1.385 . S
C766 C768 1.478 . S
C767 H761 0.930 . S
C767 C763 1.400 . S
C767 C766 1.385 . S
C768 C766 1.478 . S
C768 C770 1.381 . S
C768 C774 1.383 . S
C769 C765 1.495 . S
C769 H775 0.959 . S
C769 H776 0.961 . S
C769 H777 0.960 . S
C770 C768 1.381 . S
C770 C771 1.394 . S
C770 H778 0.930 . S
C771 C770 1.394 . S
C771 C772 1.383 . S
C771 H779 0.929 . S
C772 C771 1.383 . S
C772 C773 1.377 . S
C773 H757 0.930 . S
C773 C772 1.377 . S
C773 C774 1.379 . S
C774 H758 0.931 . S
C774 C768 1.383 . S
C774 C773 1.379 . S
H775 C769 0.959 . S
H776 C769 0.961 . S
H777 C769 0.960 . S
H778 C770 0.930 . S
H779 C771 0.929 . S
H780 C788 0.929 . S
H781 C790 0.930 . S
H782 C792 0.930 . S
H783 C795 0.929 . S
H784 C798 0.930 . S
H785 C800 0.960 . S
H786 C800 0.960 . S
H787 C800 0.960 . S
C788 H780 0.929 . S
C788 C789 1.377 . S
C788 C790 1.384 . S
C789 C788 1.377 . S
C789 C795 1.390 . S
C790 H781 0.930 . S
C790 C788 1.384 . S
C790 C791 1.372 . S
C791 C790 1.372 . S
C791 C792 1.400 . S
C791 C796 1.490 . S
C792 H782 0.930 . S
C792 C791 1.400 . S
C792 C795 1.386 . S
H793 C809 0.930 . S
H794 C810 0.931 . S
C795 H783 0.929 . S
C795 C789 1.390 . S
C795 C792 1.386 . S
C796 C791 1.490 . S
C796 C798 1.395 . S
C796 C799 1.403 . S
H797 C803 0.930 . S
C798 H784 0.930 . S
C798 C796 1.395 . S
C798 C801 1.403 . S
C799 C796 1.403 . S
C799 C800 1.524 . S
C799 C803 1.400 . S
C800 H785 0.960 . S
C800 H786 0.960 . S
C800 H787 0.960 . S
C800 C799 1.524 . S
C801 C798 1.403 . S
C801 C802 1.392 . S
C801 C805 1.495 . S
C802 C801 1.392 . S
C802 C803 1.385 . S
C802 C804 1.478 . S
C803 H797 0.930 . S
C803 C799 1.400 . S
C803 C802 1.385 . S
C804 C802 1.478 . S
C804 C806 1.381 . S
C804 C810 1.383 . S
C805 C801 1.495 . S
C805 H811 0.959 . S
C805 H812 0.961 . S
C805 H813 0.960 . S
C806 C804 1.381 . S
C806 C807 1.394 . S
C806 H814 0.930 . S
C807 C806 1.394 . S
C807 C808 1.383 . S
C807 H815 0.929 . S
C808 C807 1.383 . S
C808 C809 1.377 . S
C809 H793 0.930 . S
C809 C808 1.377 . S
C809 C810 1.379 . S
C810 H794 0.931 . S
C810 C804 1.383 . S
C810 C809 1.379 . S
H811 C805 0.959 . S
H812 C805 0.961 . S
H813 C805 0.960 . S
H814 C806 0.930 . S
H815 C807 0.929 . S
H816 C824 0.929 . S
H817 C826 0.930 . S
H818 C828 0.930 1_655 S
H819 C831 0.929 . S
H820 C834 0.930 . S
H821 C836 0.960 . S
H822 C836 0.960 . S
H823 C836 0.960 . S
C824 H816 0.929 . S
C824 C825 1.377 . S
C824 C826 1.384 . S
C825 C824 1.377 . S
C825 C831 1.390 . S
C826 H817 0.930 . S
C826 C824 1.384 . S
C826 C827 1.372 . S
C827 C826 1.372 . S
C827 C828 1.400 . S
C827 C832 1.490 . S
C828 H818 0.930 1_455 S
C828 C827 1.400 . S
C828 C831 1.386 . S
H829 C845 0.930 . S
H830 C846 0.931 . S
C831 H819 0.929 . S
C831 C825 1.390 . S
C831 C828 1.386 . S
C832 C827 1.490 . S
C832 C834 1.395 1_565 S
C832 C835 1.403 1_455 S
H833 C839 0.932 . S
C834 H820 0.930 . S
C834 C832 1.395 1_545 S
C834 C837 1.403 . S
C835 C832 1.403 1_655 S
C835 C836 1.524 . S
C835 C839 1.400 1_565 S
C836 H821 0.960 . S
C836 H822 0.960 . S
C836 H823 0.960 . S
C836 C835 1.524 . S
C837 C834 1.403 . S
C837 C838 1.392 1_455 S
C837 C841 1.495 . S
C838 C837 1.392 1_655 S
C838 C839 1.385 . S
C838 C840 1.478 . S
C839 H833 0.932 . S
C839 C835 1.400 1_545 S
C839 C838 1.385 . S
C840 C838 1.478 . S
C840 C842 1.381 . S
C840 C846 1.383 . S
C841 C837 1.495 . S
C841 H847 0.959 . S
C841 H848 0.961 . S
C841 H849 0.960 . S
C842 C840 1.381 . S
C842 C843 1.394 . S
C842 H850 0.930 1_655 S
C843 C842 1.394 . S
C843 C844 1.383 . S
C843 H851 0.929 . S
C844 C843 1.383 . S
C844 C845 1.377 . S
C845 H829 0.930 . S
C845 C844 1.377 . S
C845 C846 1.379 . S
C846 H830 0.931 . S
C846 C840 1.383 . S
C846 C845 1.379 . S
H847 C841 0.959 . S
H848 C841 0.961 . S
H849 C841 0.960 . S
H850 C842 0.930 1_455 S
H851 C843 0.929 . S
H852 C860 0.929 1_565 S
H853 C862 0.922 1_565 S
H854 C864 0.930 . S
H855 C867 0.929 . S
H856 C870 0.930 . S
H857 C872 0.960 . S
H858 C872 0.960 . S
H859 C872 0.960 . S
C860 H852 0.929 1_545 S
C860 C861 1.377 . S
C860 C862 1.386 . S
C861 C860 1.377 . S
C861 C867 1.390 . S
C862 H853 0.922 1_545 S
C862 C860 1.386 . S
C862 C863 1.377 . S
C863 C862 1.377 . S
C863 C864 1.400 . S
C863 C868 1.490 . S
C864 H854 0.930 . S
C864 C863 1.400 . S
C864 C867 1.386 . S
H865 C881 0.930 1_545 S
H866 C882 0.931 1_545 S
C867 H855 0.929 . S
C867 C861 1.390 . S
C867 C864 1.386 . S
C868 C863 1.490 . S
C868 C870 1.395 1_545 S
C868 C871 1.403 . S
H869 C875 0.930 . S
C870 H856 0.930 . S
C870 C868 1.395 1_565 S
C870 C873 1.403 . S
C871 C868 1.403 . S
C871 C872 1.524 . S
C871 C875 1.400 . S
C872 H857 0.960 . S
C872 H858 0.960 . S
C872 H859 0.960 . S
C872 C871 1.524 . S
C873 C870 1.403 . S
C873 C874 1.392 . S
C873 C877 1.495 . S
C874 C873 1.392 . S
C874 C875 1.385 1_565 S
C874 C876 1.478 . S
C875 H869 0.930 . S
C875 C871 1.400 . S
C875 C874 1.385 1_545 S
C876 C874 1.478 . S
C876 C878 1.381 . S
C876 C882 1.383 . S
C877 C873 1.495 . S
C877 H883 0.959 . S
C877 H884 0.961 . S
C877 H885 0.960 . S
C878 C876 1.381 . S
C878 C879 1.394 . S
C878 H886 0.930 . S
C879 C878 1.394 . S
C879 C880 1.383 . S
C879 H887 0.929 . S
C880 C879 1.383 . S
C880 C881 1.377 . S
C881 H865 0.930 1_565 S
C881 C880 1.377 . S
C881 C882 1.379 . S
C882 H866 0.931 1_565 S
C882 C876 1.383 . S
C882 C881 1.379 . S
H883 C877 0.959 . S
H884 C877 0.961 . S
H885 C877 0.960 . S
H886 C878 0.930 . S
H887 C879 0.929 . S
H888 C896 0.929 . S
H889 C898 0.930 . S
H890 C900 0.930 . S
H891 C903 0.929 . S
H892 C906 0.930 . S
H893 C908 0.960 . S
H894 C908 0.960 . S
H895 C908 0.960 . S
C896 H888 0.929 . S
C896 C897 1.377 . S
C896 C898 1.384 . S
C897 C896 1.377 . S
C897 C903 1.390 . S
C898 H889 0.930 . S
C898 C896 1.384 . S
C898 C899 1.372 . S
C899 C898 1.372 . S
C899 C900 1.400 . S
C899 C904 1.490 . S
C900 H890 0.930 . S
C900 C899 1.400 . S
C900 C903 1.386 . S
H901 C917 0.930 . S
H902 C918 0.931 . S
C903 H891 0.929 . S
C903 C897 1.390 . S
C903 C900 1.386 . S
C904 C899 1.490 . S
C904 C906 1.395 . S
C904 C907 1.403 . S
H905 C911 0.930 . S
C906 H892 0.930 . S
C906 C904 1.395 . S
C906 C909 1.403 . S
C907 C904 1.403 . S
C907 C908 1.524 . S
C907 C911 1.400 . S
C908 H893 0.960 . S
C908 H894 0.960 . S
C908 H895 0.960 . S
C908 C907 1.524 . S
C909 C906 1.403 . S
C909 C910 1.392 . S
C909 C913 1.495 . S
C910 C909 1.392 . S
C910 C911 1.385 . S
C910 C912 1.478 . S
C911 H905 0.930 . S
C911 C907 1.400 . S
C911 C910 1.385 . S
C912 C910 1.478 . S
C912 C914 1.381 . S
C912 C918 1.383 . S
C913 C909 1.495 . S
C913 H919 0.959 . S
C913 H920 0.961 . S
C913 H921 0.960 . S
C914 C912 1.381 . S
C914 C915 1.394 . S
C914 H922 0.930 . S
C915 C914 1.394 . S
C915 C916 1.383 . S
C915 H923 0.929 . S
C916 C915 1.383 . S
C916 C917 1.377 . S
C917 H901 0.930 . S
C917 C916 1.377 . S
C917 C918 1.379 . S
C918 H902 0.931 . S
C918 C912 1.383 . S
C918 C917 1.379 . S
H919 C913 0.959 . S
H920 C913 0.961 . S
H921 C913 0.960 . S
H922 C914 0.930 . S
H923 C915 0.929 . S
H924 C932 0.929 . S
H925 C934 0.930 . S
H926 C936 0.930 . S
H927 C939 0.929 . S
H928 C942 0.930 . S
H929 C944 0.960 . S
H930 C944 0.960 . S
H931 C944 0.960 . S
C932 H924 0.929 . S
C932 C933 1.377 . S
C932 C934 1.384 . S
C933 C932 1.377 . S
C933 C939 1.390 . S
C934 H925 0.930 . S
C934 C932 1.384 . S
C934 C935 1.372 . S
C935 C934 1.372 . S
C935 C936 1.400 . S
C935 C940 1.490 . S
C936 H926 0.930 . S
C936 C935 1.400 . S
C936 C939 1.386 . S
H937 C953 0.930 . S
H938 C954 0.931 . S
C939 H927 0.929 . S
C939 C933 1.390 . S
C939 C936 1.386 . S
C940 C935 1.490 . S
C940 C942 1.395 . S
C940 C943 1.403 . S
H941 C947 0.930 . S
C942 H928 0.930 . S
C942 C940 1.395 . S
C942 C945 1.403 1_655 S
C943 C940 1.403 . S
C943 C944 1.524 . S
C943 C947 1.400 1_655 S
C944 H929 0.960 . S
C944 H930 0.960 . S
C944 H931 0.960 . S
C944 C943 1.524 . S
C945 C942 1.403 1_455 S
C945 C946 1.392 . S
C945 C949 1.495 . S
C946 C945 1.392 . S
C946 C947 1.385 . S
C946 C948 1.478 . S
C947 H941 0.930 . S
C947 C943 1.400 1_455 S
C947 C946 1.385 . S
C948 C946 1.478 . S
C948 C950 1.381 . S
C948 C954 1.383 . S
C949 C945 1.495 . S
C949 H955 0.959 . S
C949 H956 0.961 . S
C949 H957 0.960 . S
C950 C948 1.381 . S
C950 C951 1.394 . S
C950 H958 0.930 . S
C951 C950 1.394 . S
C951 C952 1.383 . S
C951 H959 0.929 . S
C952 C951 1.383 . S
C952 C953 1.377 . S
C953 H937 0.930 . S
C953 C952 1.377 . S
C953 C954 1.379 . S
C954 H938 0.931 . S
C954 C948 1.383 . S
C954 C953 1.379 . S
H955 C949 0.959 . S
H956 C949 0.961 . S
H957 C949 0.960 . S
H958 C950 0.930 . S
H959 C951 0.929 . S
H960 C968 0.929 . S
H961 C970 0.930 . S
H962 C972 0.930 1_455 S
H963 C975 0.954 . S
H964 C978 0.930 . S
H965 C980 0.960 . S
H966 C980 0.960 . S
H967 C980 0.960 . S
C968 H960 0.929 . S
C968 C969 1.377 . S
C968 C970 1.384 . S
C969 C968 1.377 . S
C969 C975 1.390 . S
C970 H961 0.930 . S
C970 C968 1.384 . S
C970 C971 1.372 . S
C971 C970 1.372 . S
C971 C972 1.400 . S
C971 C976 1.490 . S
C972 H962 0.930 1_655 S
C972 C971 1.400 . S
C972 C975 1.386 . S
H973 C989 0.930 . S
H974 C990 0.931 . S
C975 H963 0.954 . S
C975 C969 1.390 . S
C975 C972 1.386 . S
C976 C971 1.490 . S
C976 C978 1.395 1_556 S
C976 C979 1.403 1_655 S
H977 C983 0.930 . S
C978 H964 0.930 . S
C978 C976 1.395 1_554 S
C978 C981 1.403 . S
C979 C976 1.403 1_455 S
C979 C980 1.524 . S
C979 C983 1.400 . S
C980 H965 0.960 . S
C980 H966 0.960 . S
C980 H967 0.960 . S
C980 C979 1.524 . S
C981 C978 1.403 . S
C981 C982 1.392 1_655 S
C981 C985 1.495 . S
C982 C981 1.392 1_455 S
C982 C983 1.385 1_554 S
C982 C984 1.478 . S
C983 H977 0.930 . S
C983 C979 1.400 . S
C983 C982 1.385 1_556 S
C984 C982 1.478 . S
C984 C986 1.400 . S
C984 C990 1.383 . S
C985 C981 1.495 . S
C985 H991 0.959 . S
C985 H992 0.961 . S
C985 H993 0.960 . S
C986 C984 1.400 . S
C986 C987 1.409 . S
C986 H994 0.897 1_455 S
C987 C986 1.409 . S
C987 C988 1.383 . S
C987 H995 0.929 . S
C988 C987 1.383 . S
C988 C989 1.377 . S
C989 H973 0.930 . S
C989 C988 1.377 . S
C989 C990 1.379 . S
C990 H974 0.931 . S
C990 C984 1.383 . S
C990 C989 1.379 . S
H991 C985 0.959 . S
H992 C985 0.961 . S
H993 C985 0.960 . S
H994 C986 0.897 1_655 S
H995 C987 0.929 . S
H996 C1004 0.929 . S
H997 C1006 0.930 . S
H998 C1008 0.930 1_545 S
H999 C1011 0.936 . S
H1000 C1014 0.930 . S
H1001 C1016 0.960 1_655 S
H1002 C1016 0.960 . S
H1003 C1016 0.960 . S
C1004 H996 0.929 . S
C1004 C1005 1.377 . S
C1004 C1006 1.384 . S
C1005 C1004 1.377 . S
C1005 C1011 1.390 . S
C1006 H997 0.930 . S
C1006 C1004 1.384 . S
C1006 C1007 1.372 . S
C1007 C1006 1.372 . S
C1007 C1008 1.400 . S
C1007 C1012 1.490 . S
C1008 H998 0.930 1_565 S
C1008 C1007 1.400 . S
C1008 C1011 1.386 . S
H1009 C1025 0.930 . S
H1010 C1026 0.931 . S
C1011 H999 0.936 . S
C1011 C1005 1.390 . S
C1011 C1008 1.386 . S
C1012 C1007 1.490 . S
C1012 C1014 1.395 1_556 S
C1012 C1015 1.403 1_565 S
H1013 C1019 0.930 . S
C1014 H1000 0.930 . S
C1014 C1012 1.395 1_554 S
C1014 C1017 1.403 1_455 S
C1015 C1012 1.403 1_545 S
C1015 C1016 1.524 . S
C1015 C1019 1.400 1_455 S
C1016 H1001 0.960 1_455 S
C1016 H1002 0.960 . S
C1016 H1003 0.960 . S
C1016 C1015 1.524 . S
C1017 C1014 1.403 1_655 S
C1017 C1018 1.392 1_565 S
C1017 C1021 1.495 . S
C1018 C1017 1.392 1_545 S
C1018 C1019 1.385 1_554 S
C1018 C1020 1.478 . S
C1019 H1013 0.930 . S
C1019 C1015 1.400 1_655 S
C1019 C1018 1.385 1_556 S
C1020 C1018 1.478 . S
C1020 C1022 1.392 . S
C1020 C1026 1.383 . S
C1021 C1017 1.495 . S
C1021 H1027 0.959 1_655 S
C1021 H1028 0.961 . S
C1021 H1029 0.960 . S
C1022 C1020 1.392 . S
C1022 C1023 1.402 . S
C1022 H1030 0.912 1_545 S
C1023 C1022 1.402 . S
C1023 C1024 1.383 . S
C1023 H1031 0.929 . S
C1024 C1023 1.383 . S
C1024 C1025 1.377 . S
C1025 H1009 0.930 . S
C1025 C1024 1.377 . S
C1025 C1026 1.379 . S
C1026 H1010 0.931 . S
C1026 C1020 1.383 . S
C1026 C1025 1.379 . S
H1027 C1021 0.959 1_455 S
H1028 C1021 0.961 . S
H1029 C1021 0.960 . S
H1030 C1022 0.912 1_565 S
H1031 C1023 0.929 . S
H1032 C1040 0.929 . S
H1033 C1042 0.930 . S
H1034 C1044 0.930 . S
H1035 C1047 0.929 . S
H1036 C1050 0.930 . S
H1037 C1052 0.960 . S
H1038 C1052 0.960 . S
H1039 C1052 0.960 . S
C1040 H1032 0.929 . S
C1040 C1041 1.377 . S
C1040 C1042 1.384 . S
C1041 C1040 1.377 . S
C1041 C1047 1.390 . S
C1042 H1033 0.930 . S
C1042 C1040 1.384 . S
C1042 C1043 1.372 . S
C1043 C1042 1.372 . S
C1043 C1044 1.400 . S
C1043 C1048 1.490 . S
C1044 H1034 0.930 . S
C1044 C1043 1.400 . S
C1044 C1047 1.386 . S
H1045 C1061 0.930 . S
H1046 C1062 0.931 . S
C1047 H1035 0.929 . S
C1047 C1041 1.390 . S
C1047 C1044 1.386 . S
C1048 C1043 1.490 . S
C1048 C1050 1.395 . S
C1048 C1051 1.403 1_556 S
H1049 C1055 0.930 . S
C1050 H1036 0.930 . S
C1050 C1048 1.395 . S
C1050 C1053 1.403 1_545 S
C1051 C1048 1.403 1_554 S
C1051 C1052 1.524 . S
C1051 C1055 1.400 1_545 S
C1052 H1037 0.960 . S
C1052 H1038 0.960 . S
C1052 H1039 0.960 . S
C1052 C1051 1.524 . S
C1053 C1050 1.403 1_565 S
C1053 C1054 1.392 1_556 S
C1053 C1057 1.495 . S
C1054 C1053 1.392 1_554 S
C1054 C1055 1.385 . S
C1054 C1056 1.478 . S
C1055 H1049 0.930 . S
C1055 C1051 1.400 1_565 S
C1055 C1054 1.385 . S
C1056 C1054 1.478 . S
C1056 C1058 1.381 . S
C1056 C1062 1.383 . S
C1057 C1053 1.495 . S
C1057 H1063 0.959 . S
C1057 H1064 0.961 . S
C1057 H1065 0.960 . S
C1058 C1056 1.381 . S
C1058 C1059 1.394 . S
C1058 H1066 0.930 . S
C1059 C1058 1.394 . S
C1059 C1060 1.383 . S
C1059 H1067 0.929 . S
C1060 C1059 1.383 . S
C1060 C1061 1.377 . S
C1061 H1045 0.930 . S
C1061 C1060 1.377 . S
C1061 C1062 1.379 . S
C1062 H1046 0.931 . S
C1062 C1056 1.383 . S
C1062 C1061 1.379 . S
H1063 C1057 0.959 . S
H1064 C1057 0.961 . S
H1065 C1057 0.960 . S
H1066 C1058 0.930 . S
H1067 C1059 0.929 . S
H1068 C1076 0.929 . S
H1069 C1078 0.930 . S
H1070 C1080 0.930 . S
H1071 C1083 0.929 . S
H1072 C1086 0.930 . S
H1073 C1088 0.960 1_554 S
H1074 C1088 0.960 . S
H1075 C1088 0.960 . S
C1076 H1068 0.929 . S
C1076 C1077 1.377 . S
C1076 C1078 1.384 . S
C1077 C1076 1.377 . S
C1077 C1083 1.390 . S
C1078 H1069 0.930 . S
C1078 C1076 1.384 . S
C1078 C1079 1.372 . S
C1079 C1078 1.372 . S
C1079 C1080 1.400 . S
C1079 C1084 1.490 . S
C1080 H1070 0.930 . S
C1080 C1079 1.400 . S
C1080 C1083 1.386 . S
H1081 C1097 0.930 . S
H1082 C1098 0.931 . S
C1083 H1071 0.929 . S
C1083 C1077 1.390 . S
C1083 C1080 1.386 . S
C1084 C1079 1.490 . S
C1084 C1086 1.395 . S
C1084 C1087 1.403 . S
H1085 C1091 0.930 . S
C1086 H1072 0.930 . S
C1086 C1084 1.395 . S
C1086 C1089 1.403 1_556 S
C1087 C1084 1.403 . S
C1087 C1088 1.524 . S
C1087 C1091 1.400 1_556 S
C1088 H1073 0.960 1_556 S
C1088 H1074 0.960 . S
C1088 H1075 0.960 . S
C1088 C1087 1.524 . S
C1089 C1086 1.403 1_554 S
C1089 C1090 1.392 . S
C1089 C1093 1.495 . S
C1090 C1089 1.392 . S
C1090 C1091 1.385 . S
C1090 C1092 1.478 . S
C1091 H1085 0.930 . S
C1091 C1087 1.400 1_554 S
C1091 C1090 1.385 . S
C1092 C1090 1.478 . S
C1092 C1094 1.381 . S
C1092 C1098 1.383 . S
C1093 C1089 1.495 . S
C1093 H1099 0.959 1_554 S
C1093 H1100 0.961 . S
C1093 H1101 0.960 1_554 S
C1094 C1092 1.381 . S
C1094 C1095 1.394 . S
C1094 H1102 0.930 . S
C1095 C1094 1.394 . S
C1095 C1096 1.383 . S
C1095 H1103 0.929 . S
C1096 C1095 1.383 . S
C1096 C1097 1.377 . S
C1097 H1081 0.930 . S
C1097 C1096 1.377 . S
C1097 C1098 1.379 . S
C1098 H1082 0.931 . S
C1098 C1092 1.383 . S
C1098 C1097 1.379 . S
H1099 C1093 0.959 1_556 S
H1100 C1093 0.961 . S
H1101 C1093 0.960 1_556 S
H1102 C1094 0.930 . S
H1103 C1095 0.929 . S
H1104 C1112 0.929 . S
H1105 C1114 0.930 . S
H1106 C1116 0.930 . S
H1107 C1119 0.929 . S
H1108 C1122 0.930 . S
H1109 C1124 0.960 . S
H1110 C1124 0.960 . S
H1111 C1124 0.960 . S
C1112 H1104 0.929 . S
C1112 C1113 1.377 . S
C1112 C1114 1.384 . S
C1113 C1112 1.377 . S
C1113 C1119 1.390 . S
C1114 H1105 0.930 . S
C1114 C1112 1.384 . S
C1114 C1115 1.372 . S
C1115 C1114 1.372 . S
C1115 C1116 1.400 . S
C1115 C1120 1.490 . S
C1116 H1106 0.930 . S
C1116 C1115 1.400 . S
C1116 C1119 1.386 . S
H1117 C1133 0.930 . S
H1118 C1134 0.931 . S
C1119 H1107 0.929 . S
C1119 C1113 1.390 . S
C1119 C1116 1.386 . S
C1120 C1115 1.490 . S
C1120 C1122 1.395 . S
C1120 C1123 1.403 . S
H1121 C1127 0.930 . S
C1122 H1108 0.930 . S
C1122 C1120 1.395 . S
C1122 C1125 1.403 . S
C1123 C1120 1.403 . S
C1123 C1124 1.524 . S
C1123 C1127 1.400 . S
C1124 H1109 0.960 . S
C1124 H1110 0.960 . S
C1124 H1111 0.960 . S
C1124 C1123 1.524 . S
C1125 C1122 1.403 . S
C1125 C1126 1.392 . S
C1125 C1129 1.495 . S
C1126 C1125 1.392 . S
C1126 C1127 1.385 . S
C1126 C1128 1.478 . S
C1127 H1121 0.930 . S
C1127 C1123 1.400 . S
C1127 C1126 1.385 . S
C1128 C1126 1.478 . S
C1128 C1130 1.381 . S
C1128 C1134 1.383 . S
C1129 C1125 1.495 . S
C1129 H1135 0.959 . S
C1129 H1136 0.961 . S
C1129 H1137 0.960 . S
C1130 C1128 1.381 . S
C1130 C1131 1.394 . S
C1130 H1138 0.930 . S
C1131 C1130 1.394 . S
C1131 C1132 1.383 . S
C1131 H1139 0.929 . S
C1132 C1131 1.383 . S
C1132 C1133 1.377 . S
C1133 H1117 0.930 . S
C1133 C1132 1.377 . S
C1133 C1134 1.379 . S
C1134 H1118 0.931 . S
C1134 C1128 1.383 . S
C1134 C1133 1.379 . S
H1135 C1129 0.959 . S
H1136 C1129 0.961 . S
H1137 C1129 0.960 . S
H1138 C1130 0.930 . S
H1139 C1131 0.929 . S
H1140 C1148 0.929 . S
H1141 C1150 0.930 . S
H1142 C1152 0.930 . S
H1143 C1155 0.929 . S
H1144 C1158 0.930 . S
H1145 C1160 0.960 . S
H1146 C1160 0.960 . S
H1147 C1160 0.960 . S
C1148 H1140 0.929 . S
C1148 C1149 1.377 . S
C1148 C1150 1.384 . S
C1149 C1148 1.377 . S
C1149 C1155 1.390 . S
C1150 H1141 0.930 . S
C1150 C1148 1.384 . S
C1150 C1151 1.372 . S
C1151 C1150 1.372 . S
C1151 C1152 1.400 . S
C1151 C1156 1.490 . S
C1152 H1142 0.930 . S
C1152 C1151 1.400 . S
C1152 C1155 1.386 . S
H1153 C1169 0.930 . S
H1154 C1170 0.931 . S
C1155 H1143 0.929 . S
C1155 C1149 1.390 . S
C1155 C1152 1.386 . S
C1156 C1151 1.490 . S
C1156 C1158 1.395 . S
C1156 C1159 1.403 . S
H1157 C1163 0.930 . S
C1158 H1144 0.930 . S
C1158 C1156 1.395 . S
C1158 C1161 1.403 . S
C1159 C1156 1.403 . S
C1159 C1160 1.524 . S
C1159 C1163 1.400 . S
C1160 H1145 0.960 . S
C1160 H1146 0.960 . S
C1160 H1147 0.960 . S
C1160 C1159 1.524 . S
C1161 C1158 1.403 . S
C1161 C1162 1.392 . S
C1161 C1165 1.495 . S
C1162 C1161 1.392 . S
C1162 C1163 1.385 . S
C1162 C1164 1.478 . S
C1163 H1157 0.930 . S
C1163 C1159 1.400 . S
C1163 C1162 1.385 . S
C1164 C1162 1.478 . S
C1164 C1166 1.381 . S
C1164 C1170 1.383 . S
C1165 C1161 1.495 . S
C1165 H1171 0.959 . S
C1165 H1172 0.961 . S
C1165 H1173 0.960 . S
C1166 C1164 1.381 . S
C1166 C1167 1.394 . S
C1166 H1174 0.930 . S
C1167 C1166 1.394 . S
C1167 C1168 1.383 . S
C1167 H1175 0.929 . S
C1168 C1167 1.383 . S
C1168 C1169 1.377 . S
C1169 H1153 0.930 . S
C1169 C1168 1.377 . S
C1169 C1170 1.379 . S
C1170 H1154 0.931 . S
C1170 C1164 1.383 . S
C1170 C1169 1.379 . S
H1171 C1165 0.959 . S
H1172 C1165 0.961 . S
H1173 C1165 0.960 . S
H1174 C1166 0.930 . S
H1175 C1167 0.929 . S
H1176 C1184 0.929 . S
H1177 C1186 0.930 . S
H1178 C1188 0.930 . S
H1179 C1191 0.929 . S
H1180 C1194 0.930 . S
H1181 C1196 0.960 . S
H1182 C1196 0.960 . S
H1183 C1196 0.960 . S
C1184 H1176 0.929 . S
C1184 C1185 1.377 . S
C1184 C1186 1.384 . S
C1185 C1184 1.377 . S
C1185 C1191 1.390 . S
C1186 H1177 0.930 . S
C1186 C1184 1.384 . S
C1186 C1187 1.372 . S
C1187 C1186 1.372 . S
C1187 C1188 1.400 . S
C1187 C1192 1.490 . S
C1188 H1178 0.930 . S
C1188 C1187 1.400 . S
C1188 C1191 1.386 . S
H1189 C1205 0.930 . S
H1190 C1206 0.931 . S
C1191 H1179 0.929 . S
C1191 C1185 1.390 . S
C1191 C1188 1.386 . S
C1192 C1187 1.490 . S
C1192 C1194 1.395 . S
C1192 C1195 1.403 . S
H1193 C1199 0.930 . S
C1194 H1180 0.930 . S
C1194 C1192 1.395 . S
C1194 C1197 1.403 . S
C1195 C1192 1.403 . S
C1195 C1196 1.524 . S
C1195 C1199 1.400 . S
C1196 H1181 0.960 . S
C1196 H1182 0.960 . S
C1196 H1183 0.960 . S
C1196 C1195 1.524 . S
C1197 C1194 1.403 . S
C1197 C1198 1.392 . S
C1197 C1201 1.495 . S
C1198 C1197 1.392 . S
C1198 C1199 1.385 . S
C1198 C1200 1.478 . S
C1199 H1193 0.930 . S
C1199 C1195 1.400 . S
C1199 C1198 1.385 . S
C1200 C1198 1.478 . S
C1200 C1202 1.381 . S
C1200 C1206 1.383 . S
C1201 C1197 1.495 . S
C1201 H1207 0.959 . S
C1201 H1208 0.961 . S
C1201 H1209 0.960 . S
C1202 C1200 1.381 . S
C1202 C1203 1.394 . S
C1202 H1210 0.930 . S
C1203 C1202 1.394 . S
C1203 C1204 1.383 . S
C1203 H1211 0.929 . S
C1204 C1203 1.383 . S
C1204 C1205 1.377 . S
C1205 H1189 0.930 . S
C1205 C1204 1.377 . S
C1205 C1206 1.379 . S
C1206 H1190 0.931 . S
C1206 C1200 1.383 . S
C1206 C1205 1.379 . S
H1207 C1201 0.959 . S
H1208 C1201 0.961 . S
H1209 C1201 0.960 . S
H1210 C1202 0.930 . S
H1211 C1203 0.929 . S
H1212 C1220 0.929 . S
H1213 C1222 0.930 . S
H1214 C1224 0.930 . S
H1215 C1227 0.929 . S
H1216 C1230 0.930 . S
H1217 C1232 0.960 . S
H1218 C1232 0.960 . S
H1219 C1232 0.960 . S
C1220 H1212 0.929 . S
C1220 C1221 1.377 . S
C1220 C1222 1.384 . S
C1221 C1220 1.377 . S
C1221 C1227 1.390 . S
C1222 H1213 0.930 . S
C1222 C1220 1.384 . S
C1222 C1223 1.372 . S
C1223 C1222 1.372 . S
C1223 C1224 1.400 . S
C1223 C1228 1.490 . S
C1224 H1214 0.930 . S
C1224 C1223 1.400 . S
C1224 C1227 1.386 . S
H1225 C1241 0.930 . S
H1226 C1242 0.931 . S
C1227 H1215 0.929 . S
C1227 C1221 1.390 . S
C1227 C1224 1.386 . S
C1228 C1223 1.490 . S
C1228 C1230 1.395 . S
C1228 C1231 1.403 . S
H1229 C1235 0.930 . S
C1230 H1216 0.930 . S
C1230 C1228 1.395 . S
C1230 C1233 1.403 . S
C1231 C1228 1.403 . S
C1231 C1232 1.524 . S
C1231 C1235 1.400 . S
C1232 H1217 0.960 . S
C1232 H1218 0.960 . S
C1232 H1219 0.960 . S
C1232 C1231 1.524 . S
C1233 C1230 1.403 . S
C1233 C1234 1.392 . S
C1233 C1237 1.495 . S
C1234 C1233 1.392 . S
C1234 C1235 1.385 . S
C1234 C1236 1.478 . S
C1235 H1229 0.930 . S
C1235 C1231 1.400 . S
C1235 C1234 1.385 . S
C1236 C1234 1.478 . S
C1236 C1238 1.381 . S
C1236 C1242 1.383 . S
C1237 C1233 1.495 . S
C1237 H1243 0.959 . S
C1237 H1244 0.961 . S
C1237 H1245 0.960 . S
C1238 C1236 1.381 . S
C1238 C1239 1.394 . S
C1238 H1246 0.930 . S
C1239 C1238 1.394 . S
C1239 C1240 1.383 . S
C1239 H1247 0.929 . S
C1240 C1239 1.383 . S
C1240 C1241 1.377 . S
C1241 H1225 0.930 . S
C1241 C1240 1.377 . S
C1241 C1242 1.379 . S
C1242 H1226 0.931 . S
C1242 C1236 1.383 . S
C1242 C1241 1.379 . S
H1243 C1237 0.959 . S
H1244 C1237 0.961 . S
H1245 C1237 0.960 . S
H1246 C1238 0.930 . S
H1247 C1239 0.929 . S
H1248 C1256 0.929 . S
H1249 C1258 0.930 . S
H1250 C1260 0.930 . S
H1251 C1263 0.929 . S
H1252 C1266 0.930 . S
H1253 C1268 0.960 . S
H1254 C1268 0.960 . S
H1255 C1268 0.960 . S
C1256 H1248 0.929 . S
C1256 C1257 1.377 . S
C1256 C1258 1.384 . S
C1257 C1256 1.377 . S
C1257 C1263 1.390 . S
C1258 H1249 0.930 . S
C1258 C1256 1.384 . S
C1258 C1259 1.372 . S
C1259 C1258 1.372 . S
C1259 C1260 1.400 . S
C1259 C1264 1.490 . S
C1260 H1250 0.930 . S
C1260 C1259 1.400 . S
C1260 C1263 1.386 . S
H1261 C1277 0.930 . S
H1262 C1278 0.931 . S
C1263 H1251 0.929 . S
C1263 C1257 1.390 . S
C1263 C1260 1.386 . S
C1264 C1259 1.490 . S
C1264 C1266 1.395 . S
C1264 C1267 1.403 . S
H1265 C1271 0.930 . S
C1266 H1252 0.930 . S
C1266 C1264 1.395 . S
C1266 C1269 1.403 . S
C1267 C1264 1.403 . S
C1267 C1268 1.524 . S
C1267 C1271 1.400 . S
C1268 H1253 0.960 . S
C1268 H1254 0.960 . S
C1268 H1255 0.960 . S
C1268 C1267 1.524 . S
C1269 C1266 1.403 . S
C1269 C1270 1.392 . S
C1269 C1273 1.495 . S
C1270 C1269 1.392 . S
C1270 C1271 1.385 . S
C1270 C1272 1.478 . S
C1271 H1265 0.930 . S
C1271 C1267 1.400 . S
C1271 C1270 1.385 . S
C1272 C1270 1.478 . S
C1272 C1274 1.381 . S
C1272 C1278 1.383 . S
C1273 C1269 1.495 . S
C1273 H1279 0.959 . S
C1273 H1280 0.961 . S
C1273 H1281 0.960 . S
C1274 C1272 1.381 . S
C1274 C1275 1.394 . S
C1274 H1282 0.930 . S
C1275 C1274 1.394 . S
C1275 C1276 1.383 . S
C1275 H1283 0.929 . S
C1276 C1275 1.383 . S
C1276 C1277 1.377 . S
C1277 H1261 0.930 . S
C1277 C1276 1.377 . S
C1277 C1278 1.379 . S
C1278 H1262 0.931 . S
C1278 C1272 1.383 . S
C1278 C1277 1.379 . S
H1279 C1273 0.959 . S
H1280 C1273 0.961 . S
H1281 C1273 0.960 . S
H1282 C1274 0.930 . S
H1283 C1275 0.929 . S
H1284 C1292 0.929 . S
H1285 C1294 0.930 . S
H1286 C1296 0.930 . S
H1287 C1299 0.929 . S
H1288 C1302 0.930 . S
H1289 C1304 0.960 . S
H1290 C1304 0.960 . S
H1291 C1304 0.960 . S
C1292 H1284 0.929 . S
C1292 C1293 1.377 . S
C1292 C1294 1.384 . S
C1293 C1292 1.377 . S
C1293 C1299 1.390 . S
C1294 H1285 0.930 . S
C1294 C1292 1.384 . S
C1294 C1295 1.372 . S
C1295 C1294 1.372 . S
C1295 C1296 1.400 . S
C1295 C1300 1.490 . S
C1296 H1286 0.930 . S
C1296 C1295 1.400 . S
C1296 C1299 1.386 . S
H1297 C1313 0.930 . S
H1298 C1314 0.931 . S
C1299 H1287 0.929 . S
C1299 C1293 1.390 . S
C1299 C1296 1.386 . S
C1300 C1295 1.490 . S
C1300 C1302 1.395 . S
C1300 C1303 1.403 . S
H1301 C1307 0.930 . S
C1302 H1288 0.930 . S
C1302 C1300 1.395 . S
C1302 C1305 1.403 . S
C1303 C1300 1.403 . S
C1303 C1304 1.524 . S
C1303 C1307 1.400 . S
C1304 H1289 0.960 . S
C1304 H1290 0.960 . S
C1304 H1291 0.960 . S
C1304 C1303 1.524 . S
C1305 C1302 1.403 . S
C1305 C1306 1.392 . S
C1305 C1309 1.495 . S
C1306 C1305 1.392 . S
C1306 C1307 1.385 . S
C1306 C1308 1.478 . S
C1307 H1301 0.930 . S
C1307 C1303 1.400 . S
C1307 C1306 1.385 . S
C1308 C1306 1.478 . S
C1308 C1310 1.381 . S
C1308 C1314 1.383 . S
C1309 C1305 1.495 . S
C1309 H1315 0.959 . S
C1309 H1316 0.961 . S
C1309 H1317 0.960 . S
C1310 C1308 1.381 . S
C1310 C1311 1.394 . S
C1310 H1318 0.930 . S
C1311 C1310 1.394 . S
C1311 C1312 1.383 . S
C1311 H1319 0.929 . S
C1312 C1311 1.383 . S
C1312 C1313 1.377 . S
C1313 H1297 0.930 . S
C1313 C1312 1.377 . S
C1313 C1314 1.379 . S
C1314 H1298 0.931 . S
C1314 C1308 1.383 . S
C1314 C1313 1.379 . S
H1315 C1309 0.959 . S
H1316 C1309 0.961 . S
H1317 C1309 0.960 . S
H1318 C1310 0.930 . S
H1319 C1311 0.929 . S
H1320 C1328 0.929 . S
H1321 C1330 0.930 . S
H1322 C1332 0.930 . S
H1323 C1335 0.929 . S
H1324 C1338 0.930 . S
H1325 C1340 0.960 . S
H1326 C1340 0.960 . S
H1327 C1340 0.960 . S
C1328 H1320 0.929 . S
C1328 C1329 1.377 . S
C1328 C1330 1.384 . S
C1329 C1328 1.377 . S
C1329 C1335 1.390 . S
C1330 H1321 0.930 . S
C1330 C1328 1.384 . S
C1330 C1331 1.372 . S
C1331 C1330 1.372 . S
C1331 C1332 1.400 . S
C1331 C1336 1.490 . S
C1332 H1322 0.930 . S
C1332 C1331 1.400 . S
C1332 C1335 1.386 . S
H1333 C1349 0.930 . S
H1334 C1350 0.931 . S
C1335 H1323 0.929 . S
C1335 C1329 1.390 . S
C1335 C1332 1.386 . S
C1336 C1331 1.490 . S
C1336 C1338 1.395 . S
C1336 C1339 1.403 . S
H1337 C1343 0.930 . S
C1338 H1324 0.930 . S
C1338 C1336 1.395 . S
C1338 C1341 1.403 . S
C1339 C1336 1.403 . S
C1339 C1340 1.524 . S
C1339 C1343 1.400 . S
C1340 H1325 0.960 . S
C1340 H1326 0.960 . S
C1340 H1327 0.960 . S
C1340 C1339 1.524 . S
C1341 C1338 1.403 . S
C1341 C1342 1.392 . S
C1341 C1345 1.495 . S
C1342 C1341 1.392 . S
C1342 C1343 1.385 . S
C1342 C1344 1.478 . S
C1343 H1337 0.930 . S
C1343 C1339 1.400 . S
C1343 C1342 1.385 . S
C1344 C1342 1.478 . S
C1344 C1346 1.381 . S
C1344 C1350 1.383 . S
C1345 C1341 1.495 . S
C1345 H1351 0.959 . S
C1345 H1352 0.961 . S
C1345 H1353 0.960 . S
C1346 C1344 1.381 . S
C1346 C1347 1.394 . S
C1346 H1354 0.930 . S
C1347 C1346 1.394 . S
C1347 C1348 1.383 . S
C1347 H1355 0.929 . S
C1348 C1347 1.383 . S
C1348 C1349 1.377 . S
C1349 H1333 0.930 . S
C1349 C1348 1.377 . S
C1349 C1350 1.379 . S
C1350 H1334 0.931 . S
C1350 C1344 1.383 . S
C1350 C1349 1.379 . S
H1351 C1345 0.959 . S
H1352 C1345 0.961 . S
H1353 C1345 0.960 . S
H1354 C1346 0.930 . S
H1355 C1347 0.929 . S
H1356 C1364 0.929 . S
H1357 C1366 0.930 . S
H1358 C1368 0.930 . S
H1359 C1371 0.929 . S
H1360 C1374 0.930 . S
H1361 C1376 0.960 . S
H1362 C1376 0.960 . S
H1363 C1376 0.960 . S
C1364 H1356 0.929 . S
C1364 C1365 1.377 . S
C1364 C1366 1.384 . S
C1365 C1364 1.377 . S
C1365 C1371 1.390 . S
C1366 H1357 0.930 . S
C1366 C1364 1.384 . S
C1366 C1367 1.372 . S
C1367 C1366 1.372 . S
C1367 C1368 1.400 . S
C1367 C1372 1.490 . S
C1368 H1358 0.930 . S
C1368 C1367 1.400 . S
C1368 C1371 1.386 . S
H1369 C1385 0.930 . S
H1370 C1386 0.931 . S
C1371 H1359 0.929 . S
C1371 C1365 1.390 . S
C1371 C1368 1.386 . S
C1372 C1367 1.490 . S
C1372 C1374 1.395 . S
C1372 C1375 1.403 . S
H1373 C1379 0.930 . S
C1374 H1360 0.930 . S
C1374 C1372 1.395 . S
C1374 C1377 1.403 . S
C1375 C1372 1.403 . S
C1375 C1376 1.524 . S
C1375 C1379 1.400 . S
C1376 H1361 0.960 . S
C1376 H1362 0.960 . S
C1376 H1363 0.960 . S
C1376 C1375 1.524 . S
C1377 C1374 1.403 . S
C1377 C1378 1.392 . S
C1377 C1381 1.495 . S
C1378 C1377 1.392 . S
C1378 C1379 1.385 . S
C1378 C1380 1.478 . S
C1379 H1373 0.930 . S
C1379 C1375 1.400 . S
C1379 C1378 1.385 . S
C1380 C1378 1.478 . S
C1380 C1382 1.381 . S
C1380 C1386 1.383 . S
C1381 C1377 1.495 . S
C1381 H1387 0.959 . S
C1381 H1388 0.961 . S
C1381 H1389 0.960 . S
C1382 C1380 1.381 . S
C1382 C1383 1.394 . S
C1382 H1390 0.930 . S
C1383 C1382 1.394 . S
C1383 C1384 1.383 . S
C1383 H1391 0.929 . S
C1384 C1383 1.383 . S
C1384 C1385 1.377 . S
C1385 H1369 0.930 . S
C1385 C1384 1.377 . S
C1385 C1386 1.379 . S
C1386 H1370 0.931 . S
C1386 C1380 1.383 . S
C1386 C1385 1.379 . S
H1387 C1381 0.959 . S
H1388 C1381 0.961 . S
H1389 C1381 0.960 . S
H1390 C1382 0.930 . S
H1391 C1383 0.929 . S
H1392 C1400 0.929 . S
H1393 C1402 0.930 . S
H1394 C1404 0.930 . S
H1395 C1407 0.929 . S
H1396 C1410 0.930 . S
H1397 C1412 0.960 . S
H1398 C1412 0.960 . S
H1399 C1412 0.960 . S
C1400 H1392 0.929 . S
C1400 C1401 1.377 . S
C1400 C1402 1.384 . S
C1401 C1400 1.377 . S
C1401 C1407 1.390 . S
C1402 H1393 0.930 . S
C1402 C1400 1.384 . S
C1402 C1403 1.372 . S
C1403 C1402 1.372 . S
C1403 C1404 1.400 . S
C1403 C1408 1.490 . S
C1404 H1394 0.930 . S
C1404 C1403 1.400 . S
C1404 C1407 1.386 . S
H1405 C1421 0.930 . S
H1406 C1422 0.931 . S
C1407 H1395 0.929 . S
C1407 C1401 1.390 . S
C1407 C1404 1.386 . S
C1408 C1403 1.490 . S
C1408 C1410 1.395 . S
C1408 C1411 1.403 . S
H1409 C1415 0.930 . S
C1410 H1396 0.930 . S
C1410 C1408 1.395 . S
C1410 C1413 1.403 . S
C1411 C1408 1.403 . S
C1411 C1412 1.524 . S
C1411 C1415 1.400 . S
C1412 H1397 0.960 . S
C1412 H1398 0.960 . S
C1412 H1399 0.960 . S
C1412 C1411 1.524 . S
C1413 C1410 1.403 . S
C1413 C1414 1.392 . S
C1413 C1417 1.495 . S
C1414 C1413 1.392 . S
C1414 C1415 1.385 . S
C1414 C1416 1.478 . S
C1415 H1409 0.930 . S
C1415 C1411 1.400 . S
C1415 C1414 1.385 . S
C1416 C1414 1.478 . S
C1416 C1418 1.381 . S
C1416 C1422 1.383 . S
C1417 C1413 1.495 . S
C1417 H1423 0.959 . S
C1417 H1424 0.961 . S
C1417 H1425 0.960 . S
C1418 C1416 1.381 . S
C1418 C1419 1.394 . S
C1418 H1426 0.930 . S
C1419 C1418 1.394 . S
C1419 C1420 1.383 . S
C1419 H1427 0.929 . S
C1420 C1419 1.383 . S
C1420 C1421 1.377 . S
C1421 H1405 0.930 . S
C1421 C1420 1.377 . S
C1421 C1422 1.379 . S
C1422 H1406 0.931 . S
C1422 C1416 1.383 . S
C1422 C1421 1.379 . S
H1423 C1417 0.959 . S
H1424 C1417 0.961 . S
H1425 C1417 0.960 . S
H1426 C1418 0.930 . S
H1427 C1419 0.929 . S
H1428 C1436 0.929 . S
H1429 C1438 0.930 . S
H1430 C1440 0.930 . S
H1431 C1443 0.929 . S
H1432 C1446 0.930 . S
H1433 C1448 0.960 . S
H1434 C1448 0.960 . S
H1435 C1448 0.960 . S
C1436 H1428 0.929 . S
C1436 C1437 1.377 . S
C1436 C1438 1.384 . S
C1437 C1436 1.377 . S
C1437 C1443 1.390 . S
C1438 H1429 0.930 . S
C1438 C1436 1.384 . S
C1438 C1439 1.372 . S
C1439 C1438 1.372 . S
C1439 C1440 1.400 . S
C1439 C1444 1.490 . S
C1440 H1430 0.930 . S
C1440 C1439 1.400 . S
C1440 C1443 1.386 . S
H1441 C1457 0.930 . S
H1442 C1458 0.931 . S
C1443 H1431 0.929 . S
C1443 C1437 1.390 . S
C1443 C1440 1.386 . S
C1444 C1439 1.490 . S
C1444 C1446 1.395 . S
C1444 C1447 1.403 . S
H1445 C1451 0.930 . S
C1446 H1432 0.930 . S
C1446 C1444 1.395 . S
C1446 C1449 1.403 . S
C1447 C1444 1.403 . S
C1447 C1448 1.524 . S
C1447 C1451 1.400 . S
C1448 H1433 0.960 . S
C1448 H1434 0.960 . S
C1448 H1435 0.960 . S
C1448 C1447 1.524 . S
C1449 C1446 1.403 . S
C1449 C1450 1.392 . S
C1449 C1453 1.495 . S
C1450 C1449 1.392 . S
C1450 C1451 1.385 . S
C1450 C1452 1.478 . S
C1451 H1445 0.930 . S
C1451 C1447 1.400 . S
C1451 C1450 1.385 . S
C1452 C1450 1.478 . S
C1452 C1454 1.381 . S
C1452 C1458 1.383 . S
C1453 C1449 1.495 . S
C1453 H1459 0.959 . S
C1453 H1460 0.961 . S
C1453 H1461 0.960 . S
C1454 C1452 1.381 . S
C1454 C1455 1.394 . S
C1454 H1462 0.930 . S
C1455 C1454 1.394 . S
C1455 C1456 1.383 . S
C1455 H1463 0.929 . S
C1456 C1455 1.383 . S
C1456 C1457 1.377 . S
C1457 H1441 0.930 . S
C1457 C1456 1.377 . S
C1457 C1458 1.379 . S
C1458 H1442 0.931 . S
C1458 C1452 1.383 . S
C1458 C1457 1.379 . S
H1459 C1453 0.959 . S
H1460 C1453 0.961 . S
H1461 C1453 0.960 . S
H1462 C1454 0.930 . S
H1463 C1455 0.929 . S
H1464 C1472 0.929 . S
H1465 C1474 0.930 . S
H1466 C1476 0.930 . S
H1467 C1479 0.929 . S
H1468 C1482 0.930 . S
H1469 C1484 0.960 . S
H1470 C1484 0.960 . S
H1471 C1484 0.960 . S
C1472 H1464 0.929 . S
C1472 C1473 1.377 . S
C1472 C1474 1.384 . S
C1473 C1472 1.377 . S
C1473 C1479 1.390 . S
C1474 H1465 0.930 . S
C1474 C1472 1.384 . S
C1474 C1475 1.372 . S
C1475 C1474 1.372 . S
C1475 C1476 1.400 . S
C1475 C1480 1.490 . S
C1476 H1466 0.930 . S
C1476 C1475 1.400 . S
C1476 C1479 1.386 . S
H1477 C1493 0.930 . S
H1478 C1494 0.931 . S
C1479 H1467 0.929 . S
C1479 C1473 1.390 . S
C1479 C1476 1.386 . S
C1480 C1475 1.490 . S
C1480 C1482 1.395 . S
C1480 C1483 1.403 . S
H1481 C1487 0.930 . S
C1482 H1468 0.930 . S
C1482 C1480 1.395 . S
C1482 C1485 1.403 . S
C1483 C1480 1.403 . S
C1483 C1484 1.524 . S
C1483 C1487 1.400 . S
C1484 H1469 0.960 . S
C1484 H1470 0.960 . S
C1484 H1471 0.960 . S
C1484 C1483 1.524 . S
C1485 C1482 1.403 . S
C1485 C1486 1.392 . S
C1485 C1489 1.495 . S
C1486 C1485 1.392 . S
C1486 C1487 1.385 . S
C1486 C1488 1.478 . S
C1487 H1481 0.930 . S
C1487 C1483 1.400 . S
C1487 C1486 1.385 . S
C1488 C1486 1.478 . S
C1488 C1490 1.381 . S
C1488 C1494 1.383 . S
C1489 C1485 1.495 . S
C1489 H1495 0.959 . S
C1489 H1496 0.961 . S
C1489 H1497 0.960 . S
C1490 C1488 1.381 . S
C1490 C1491 1.394 . S
C1490 H1498 0.930 . S
C1491 C1490 1.394 . S
C1491 C1492 1.383 . S
C1491 H1499 0.929 . S
C1492 C1491 1.383 . S
C1492 C1493 1.377 . S
C1493 H1477 0.930 . S
C1493 C1492 1.377 . S
C1493 C1494 1.379 . S
C1494 H1478 0.931 . S
C1494 C1488 1.383 . S
C1494 C1493 1.379 . S
H1495 C1489 0.959 . S
H1496 C1489 0.961 . S
H1497 C1489 0.960 . S
H1498 C1490 0.930 . S
H1499 C1491 0.929 . S
H1500 C1508 0.929 . S
H1501 C1510 0.930 . S
H1502 C1512 0.930 . S
H1503 C1515 0.929 . S
H1504 C1518 0.930 . S
H1505 C1520 0.960 . S
H1506 C1520 0.960 . S
H1507 C1520 0.960 . S
C1508 H1500 0.929 . S
C1508 C1509 1.377 . S
C1508 C1510 1.384 . S
C1509 C1508 1.377 . S
C1509 C1515 1.390 . S
C1510 H1501 0.930 . S
C1510 C1508 1.384 . S
C1510 C1511 1.372 . S
C1511 C1510 1.372 . S
C1511 C1512 1.400 . S
C1511 C1516 1.490 . S
C1512 H1502 0.930 . S
C1512 C1511 1.400 . S
C1512 C1515 1.386 . S
H1513 C1529 0.930 . S
H1514 C1530 0.931 . S
C1515 H1503 0.929 . S
C1515 C1509 1.390 . S
C1515 C1512 1.386 . S
C1516 C1511 1.490 . S
C1516 C1518 1.395 . S
C1516 C1519 1.403 . S
H1517 C1523 0.930 . S
C1518 H1504 0.930 . S
C1518 C1516 1.395 . S
C1518 C1521 1.403 . S
C1519 C1516 1.403 . S
C1519 C1520 1.524 . S
C1519 C1523 1.400 . S
C1520 H1505 0.960 . S
C1520 H1506 0.960 . S
C1520 H1507 0.960 . S
C1520 C1519 1.524 . S
C1521 C1518 1.403 . S
C1521 C1522 1.392 . S
C1521 C1525 1.495 . S
C1522 C1521 1.392 . S
C1522 C1523 1.385 . S
C1522 C1524 1.478 . S
C1523 H1517 0.930 . S
C1523 C1519 1.400 . S
C1523 C1522 1.385 . S
C1524 C1522 1.478 . S
C1524 C1526 1.381 . S
C1524 C1530 1.383 . S
C1525 C1521 1.495 . S
C1525 H1531 0.959 . S
C1525 H1532 0.961 . S
C1525 H1533 0.960 . S
C1526 C1524 1.381 . S
C1526 C1527 1.394 . S
C1526 H1534 0.930 . S
C1527 C1526 1.394 . S
C1527 C1528 1.383 . S
C1527 H1535 0.929 . S
C1528 C1527 1.383 . S
C1528 C1529 1.377 . S
C1529 H1513 0.930 . S
C1529 C1528 1.377 . S
C1529 C1530 1.379 . S
C1530 H1514 0.931 . S
C1530 C1524 1.383 . S
C1530 C1529 1.379 . S
H1531 C1525 0.959 . S
H1532 C1525 0.961 . S
H1533 C1525 0.960 . S
H1534 C1526 0.930 . S
H1535 C1527 0.929 . S
H1536 C1544 0.929 . S
H1537 C1546 0.930 . S
H1538 C1548 0.930 . S
H1539 C1551 0.929 . S
H1540 C1554 0.930 . S
H1541 C1556 0.960 . S
H1542 C1556 0.960 . S
H1543 C1556 0.960 . S
C1544 H1536 0.929 . S
C1544 C1545 1.377 . S
C1544 C1546 1.384 . S
C1545 C1544 1.377 . S
C1545 C1551 1.390 . S
C1546 H1537 0.930 . S
C1546 C1544 1.384 . S
C1546 C1547 1.372 . S
C1547 C1546 1.372 . S
C1547 C1548 1.400 . S
C1547 C1552 1.490 . S
C1548 H1538 0.930 . S
C1548 C1547 1.400 . S
C1548 C1551 1.386 . S
H1549 C1565 0.930 . S
H1550 C1566 0.931 . S
C1551 H1539 0.929 . S
C1551 C1545 1.390 . S
C1551 C1548 1.386 . S
C1552 C1547 1.490 . S
C1552 C1554 1.395 . S
C1552 C1555 1.403 . S
H1553 C1559 0.930 . S
C1554 H1540 0.930 . S
C1554 C1552 1.395 . S
C1554 C1557 1.403 . S
C1555 C1552 1.403 . S
C1555 C1556 1.524 . S
C1555 C1559 1.400 . S
C1556 H1541 0.960 . S
C1556 H1542 0.960 . S
C1556 H1543 0.960 . S
C1556 C1555 1.524 . S
C1557 C1554 1.403 . S
C1557 C1558 1.392 . S
C1557 C1561 1.495 . S
C1558 C1557 1.392 . S
C1558 C1559 1.385 . S
C1558 C1560 1.478 . S
C1559 H1553 0.930 . S
C1559 C1555 1.400 . S
C1559 C1558 1.385 . S
C1560 C1558 1.478 . S
C1560 C1562 1.381 . S
C1560 C1566 1.383 . S
C1561 C1557 1.495 . S
C1561 H1567 0.959 . S
C1561 H1568 0.961 . S
C1561 H1569 0.960 . S
C1562 C1560 1.381 . S
C1562 C1563 1.394 . S
C1562 H1570 0.930 . S
C1563 C1562 1.394 . S
C1563 C1564 1.383 . S
C1563 H1571 0.929 . S
C1564 C1563 1.383 . S
C1564 C1565 1.377 . S
C1565 H1549 0.930 . S
C1565 C1564 1.377 . S
C1565 C1566 1.379 . S
C1566 H1550 0.931 . S
C1566 C1560 1.383 . S
C1566 C1565 1.379 . S
H1567 C1561 0.959 . S
H1568 C1561 0.961 . S
H1569 C1561 0.960 . S
H1570 C1562 0.930 . S
H1571 C1563 0.929 . S
H1572 C1580 0.929 . S
H1573 C1582 0.930 . S
H1574 C1584 0.930 . S
H1575 C1587 0.929 . S
H1576 C1590 0.930 . S
H1577 C1592 0.960 . S
H1578 C1592 0.960 . S
H1579 C1592 0.960 . S
C1580 H1572 0.929 . S
C1580 C1581 1.377 . S
C1580 C1582 1.384 . S
C1581 C1580 1.377 . S
C1581 C1587 1.390 . S
C1582 H1573 0.930 . S
C1582 C1580 1.384 . S
C1582 C1583 1.372 . S
C1583 C1582 1.372 . S
C1583 C1584 1.400 . S
C1583 C1588 1.490 . S
C1584 H1574 0.930 . S
C1584 C1583 1.400 . S
C1584 C1587 1.386 . S
H1585 C1601 0.930 . S
H1586 C1602 0.931 . S
C1587 H1575 0.929 . S
C1587 C1581 1.390 . S
C1587 C1584 1.386 . S
C1588 C1583 1.490 . S
C1588 C1590 1.395 . S
C1588 C1591 1.403 . S
H1589 C1595 0.930 . S
C1590 H1576 0.930 . S
C1590 C1588 1.395 . S
C1590 C1593 1.403 . S
C1591 C1588 1.403 . S
C1591 C1592 1.524 . S
C1591 C1595 1.400 . S
C1592 H1577 0.960 . S
C1592 H1578 0.960 . S
C1592 H1579 0.960 . S
C1592 C1591 1.524 . S
C1593 C1590 1.403 . S
C1593 C1594 1.392 . S
C1593 C1597 1.495 . S
C1594 C1593 1.392 . S
C1594 C1595 1.385 . S
C1594 C1596 1.478 . S
C1595 H1589 0.930 . S
C1595 C1591 1.400 . S
C1595 C1594 1.385 . S
C1596 C1594 1.478 . S
C1596 C1598 1.381 . S
C1596 C1602 1.383 . S
C1597 C1593 1.495 . S
C1597 H1603 0.959 . S
C1597 H1604 0.961 . S
C1597 H1605 0.960 . S
C1598 C1596 1.381 . S
C1598 C1599 1.394 . S
C1598 H1606 0.930 . S
C1599 C1598 1.394 . S
C1599 C1600 1.383 . S
C1599 H1607 0.929 . S
C1600 C1599 1.383 . S
C1600 C1601 1.377 . S
C1601 H1585 0.930 . S
C1601 C1600 1.377 . S
C1601 C1602 1.379 . S
C1602 H1586 0.931 . S
C1602 C1596 1.383 . S
C1602 C1601 1.379 . S
H1603 C1597 0.959 . S
H1604 C1597 0.961 . S
H1605 C1597 0.960 . S
H1606 C1598 0.930 . S
H1607 C1599 0.929 . S
H1608 C1616 0.929 . S
H1609 C1618 0.930 . S
H1610 C1620 0.930 . S
H1611 C1623 0.929 . S
H1612 C1626 0.930 . S
H1613 C1628 0.960 . S
H1614 C1628 0.960 . S
H1615 C1628 0.960 . S
C1616 H1608 0.929 . S
C1616 C1617 1.377 . S
C1616 C1618 1.384 . S
C1617 C1616 1.377 . S
C1617 C1623 1.390 . S
C1618 H1609 0.930 . S
C1618 C1616 1.384 . S
C1618 C1619 1.372 . S
C1619 C1618 1.372 . S
C1619 C1620 1.400 . S
C1619 C1624 1.490 . S
C1620 H1610 0.930 . S
C1620 C1619 1.400 . S
C1620 C1623 1.386 . S
H1621 C1637 0.930 . S
H1622 C1638 0.931 . S
C1623 H1611 0.929 . S
C1623 C1617 1.390 . S
C1623 C1620 1.386 . S
C1624 C1619 1.490 . S
C1624 C1626 1.395 . S
C1624 C1627 1.403 . S
H1625 C1631 0.930 . S
C1626 H1612 0.930 . S
C1626 C1624 1.395 . S
C1626 C1629 1.403 . S
C1627 C1624 1.403 . S
C1627 C1628 1.524 . S
C1627 C1631 1.400 . S
C1628 H1613 0.960 . S
C1628 H1614 0.960 . S
C1628 H1615 0.960 . S
C1628 C1627 1.524 . S
C1629 C1626 1.403 . S
C1629 C1630 1.392 . S
C1629 C1633 1.495 . S
C1630 C1629 1.392 . S
C1630 C1631 1.385 . S
C1630 C1632 1.478 . S
C1631 H1625 0.930 . S
C1631 C1627 1.400 . S
C1631 C1630 1.385 . S
C1632 C1630 1.478 . S
C1632 C1634 1.381 . S
C1632 C1638 1.383 . S
C1633 C1629 1.495 . S
C1633 H1639 0.959 . S
C1633 H1640 0.961 . S
C1633 H1641 0.960 . S
C1634 C1632 1.381 . S
C1634 C1635 1.394 . S
C1634 H1642 0.930 . S
C1635 C1634 1.394 . S
C1635 C1636 1.383 . S
C1635 H1643 0.929 . S
C1636 C1635 1.383 . S
C1636 C1637 1.377 . S
C1637 H1621 0.930 . S
C1637 C1636 1.377 . S
C1637 C1638 1.379 . S
C1638 H1622 0.931 . S
C1638 C1632 1.383 . S
C1638 C1637 1.379 . S
H1639 C1633 0.959 . S
H1640 C1633 0.961 . S
H1641 C1633 0.960 . S
H1642 C1634 0.930 . S
H1643 C1635 0.929 . S
H1644 C1652 0.929 . S
H1645 C1654 0.930 . S
H1646 C1656 0.930 . S
H1647 C1659 0.929 . S
H1648 C1662 0.930 . S
H1649 C1664 0.960 . S
H1650 C1664 0.960 . S
H1651 C1664 0.960 . S
C1652 H1644 0.929 . S
C1652 C1653 1.377 . S
C1652 C1654 1.384 . S
C1653 C1652 1.377 . S
C1653 C1659 1.390 . S
C1654 H1645 0.930 . S
C1654 C1652 1.384 . S
C1654 C1655 1.372 . S
C1655 C1654 1.372 . S
C1655 C1656 1.400 . S
C1655 C1660 1.490 . S
C1656 H1646 0.930 . S
C1656 C1655 1.400 . S
C1656 C1659 1.386 . S
H1657 C1673 0.930 . S
H1658 C1674 0.931 . S
C1659 H1647 0.929 . S
C1659 C1653 1.390 . S
C1659 C1656 1.386 . S
C1660 C1655 1.490 . S
C1660 C1662 1.395 . S
C1660 C1663 1.403 . S
H1661 C1667 0.930 . S
C1662 H1648 0.930 . S
C1662 C1660 1.395 . S
C1662 C1665 1.403 . S
C1663 C1660 1.403 . S
C1663 C1664 1.524 . S
C1663 C1667 1.400 . S
C1664 H1649 0.960 . S
C1664 H1650 0.960 . S
C1664 H1651 0.960 . S
C1664 C1663 1.524 . S
C1665 C1662 1.403 . S
C1665 C1666 1.392 . S
C1665 C1669 1.495 . S
C1666 C1665 1.392 . S
C1666 C1667 1.385 . S
C1666 C1668 1.478 . S
C1667 H1661 0.930 . S
C1667 C1663 1.400 . S
C1667 C1666 1.385 . S
C1668 C1666 1.478 . S
C1668 C1670 1.381 . S
C1668 C1674 1.383 . S
C1669 C1665 1.495 . S
C1669 H1675 0.959 . S
C1669 H1676 0.961 . S
C1669 H1677 0.960 . S
C1670 C1668 1.381 . S
C1670 C1671 1.394 . S
C1670 H1678 0.930 . S
C1671 C1670 1.394 . S
C1671 C1672 1.383 . S
C1671 H1679 0.929 . S
C1672 C1671 1.383 . S
C1672 C1673 1.377 . S
C1673 H1657 0.930 . S
C1673 C1672 1.377 . S
C1673 C1674 1.379 . S
C1674 H1658 0.931 . S
C1674 C1668 1.383 . S
C1674 C1673 1.379 . S
H1675 C1669 0.959 . S
H1676 C1669 0.961 . S
H1677 C1669 0.960 . S
H1678 C1670 0.930 . S
H1679 C1671 0.929 . S
H1680 C1688 0.929 . S
H1681 C1690 0.930 . S
H1682 C1692 0.930 . S
H1683 C1695 0.929 . S
H1684 C1698 0.930 . S
H1685 C1700 0.960 . S
H1686 C1700 0.960 . S
H1687 C1700 0.960 . S
C1688 H1680 0.929 . S
C1688 C1689 1.377 . S
C1688 C1690 1.384 . S
C1689 C1688 1.377 . S
C1689 C1695 1.390 . S
C1690 H1681 0.930 . S
C1690 C1688 1.384 . S
C1690 C1691 1.372 . S
C1691 C1690 1.372 . S
C1691 C1692 1.400 . S
C1691 C1696 1.490 . S
C1692 H1682 0.930 . S
C1692 C1691 1.400 . S
C1692 C1695 1.386 . S
H1693 C1709 0.930 . S
H1694 C1710 0.931 . S
C1695 H1683 0.929 . S
C1695 C1689 1.390 . S
C1695 C1692 1.386 . S
C1696 C1691 1.490 . S
C1696 C1698 1.395 . S
C1696 C1699 1.403 . S
H1697 C1703 0.930 . S
C1698 H1684 0.930 . S
C1698 C1696 1.395 . S
C1698 C1701 1.403 . S
C1699 C1696 1.403 . S
C1699 C1700 1.524 . S
C1699 C1703 1.400 . S
C1700 H1685 0.960 . S
C1700 H1686 0.960 . S
C1700 H1687 0.960 . S
C1700 C1699 1.524 . S
C1701 C1698 1.403 . S
C1701 C1702 1.392 . S
C1701 C1705 1.495 . S
C1702 C1701 1.392 . S
C1702 C1703 1.385 . S
C1702 C1704 1.478 . S
C1703 H1697 0.930 . S
C1703 C1699 1.400 . S
C1703 C1702 1.385 . S
C1704 C1702 1.478 . S
C1704 C1706 1.381 . S
C1704 C1710 1.383 . S
C1705 C1701 1.495 . S
C1705 H1711 0.959 . S
C1705 H1712 0.961 . S
C1705 H1713 0.960 . S
C1706 C1704 1.381 . S
C1706 C1707 1.394 . S
C1706 H1714 0.930 . S
C1707 C1706 1.394 . S
C1707 C1708 1.383 . S
C1707 H1715 0.929 . S
C1708 C1707 1.383 . S
C1708 C1709 1.377 . S
C1709 H1693 0.930 . S
C1709 C1708 1.377 . S
C1709 C1710 1.379 . S
C1710 H1694 0.931 . S
C1710 C1704 1.383 . S
C1710 C1709 1.379 . S
H1711 C1705 0.959 . S
H1712 C1705 0.961 . S
H1713 C1705 0.960 . S
H1714 C1706 0.930 . S
H1715 C1707 0.929 . S
H1716 C1724 0.929 . S
H1717 C1726 0.930 . S
H1718 C1728 0.930 . S
H1719 C1731 0.929 . S
H1720 C1734 0.930 . S
H1721 C1736 0.960 . S
H1722 C1736 0.960 . S
H1723 C1736 0.960 . S
C1724 H1716 0.929 . S
C1724 C1725 1.377 . S
C1724 C1726 1.384 . S
C1725 C1724 1.377 . S
C1725 C1731 1.390 . S
C1726 H1717 0.930 . S
C1726 C1724 1.384 . S
C1726 C1727 1.372 . S
C1727 C1726 1.372 . S
C1727 C1728 1.400 . S
C1727 C1732 1.490 . S
C1728 H1718 0.930 . S
C1728 C1727 1.400 . S
C1728 C1731 1.386 . S
H1729 C1745 0.930 . S
H1730 C1746 0.931 . S
C1731 H1719 0.929 . S
C1731 C1725 1.390 . S
C1731 C1728 1.386 . S
C1732 C1727 1.490 . S
C1732 C1734 1.395 . S
C1732 C1735 1.403 . S
H1733 C1739 0.930 . S
C1734 H1720 0.930 . S
C1734 C1732 1.395 . S
C1734 C1737 1.403 . S
C1735 C1732 1.403 . S
C1735 C1736 1.524 . S
C1735 C1739 1.400 . S
C1736 H1721 0.960 . S
C1736 H1722 0.960 . S
C1736 H1723 0.960 . S
C1736 C1735 1.524 . S
C1737 C1734 1.403 . S
C1737 C1738 1.392 . S
C1737 C1741 1.495 . S
C1738 C1737 1.392 . S
C1738 C1739 1.385 . S
C1738 C1740 1.478 . S
C1739 H1733 0.930 . S
C1739 C1735 1.400 . S
C1739 C1738 1.385 . S
C1740 C1738 1.478 . S
C1740 C1742 1.381 . S
C1740 C1746 1.383 . S
C1741 C1737 1.495 . S
C1741 H1747 0.959 . S
C1741 H1748 0.961 . S
C1741 H1749 0.960 . S
C1742 C1740 1.381 . S
C1742 C1743 1.394 . S
C1742 H1750 0.930 . S
C1743 C1742 1.394 . S
C1743 C1744 1.383 . S
C1743 H1751 0.929 . S
C1744 C1743 1.383 . S
C1744 C1745 1.377 . S
C1745 H1729 0.930 . S
C1745 C1744 1.377 . S
C1745 C1746 1.379 . S
C1746 H1730 0.931 . S
C1746 C1740 1.383 . S
C1746 C1745 1.379 . S
H1747 C1741 0.959 . S
H1748 C1741 0.961 . S
H1749 C1741 0.960 . S
H1750 C1742 0.930 . S
H1751 C1743 0.929 . S
H1752 C1760 0.929 . S
H1753 C1762 0.930 . S
H1754 C1764 0.930 . S
H1755 C1767 0.929 . S
H1756 C1770 0.930 . S
H1757 C1772 0.960 . S
H1758 C1772 0.960 . S
H1759 C1772 0.960 . S
C1760 H1752 0.929 . S
C1760 C1761 1.377 . S
C1760 C1762 1.384 . S
C1761 C1760 1.377 . S
C1761 C1767 1.390 . S
C1762 H1753 0.930 . S
C1762 C1760 1.384 . S
C1762 C1763 1.372 . S
C1763 C1762 1.372 . S
C1763 C1764 1.400 . S
C1763 C1768 1.490 . S
C1764 H1754 0.930 . S
C1764 C1763 1.400 . S
C1764 C1767 1.386 . S
H1765 C1781 0.930 . S
H1766 C1782 0.931 . S
C1767 H1755 0.929 . S
C1767 C1761 1.390 . S
C1767 C1764 1.386 . S
C1768 C1763 1.490 . S
C1768 C1770 1.395 . S
C1768 C1771 1.403 . S
H1769 C1775 0.930 . S
C1770 H1756 0.930 . S
C1770 C1768 1.395 . S
C1770 C1773 1.403 . S
C1771 C1768 1.403 . S
C1771 C1772 1.524 . S
C1771 C1775 1.400 . S
C1772 H1757 0.960 . S
C1772 H1758 0.960 . S
C1772 H1759 0.960 . S
C1772 C1771 1.524 . S
C1773 C1770 1.403 . S
C1773 C1774 1.392 . S
C1773 C1777 1.495 . S
C1774 C1773 1.392 . S
C1774 C1775 1.385 . S
C1774 C1776 1.478 . S
C1775 H1769 0.930 . S
C1775 C1771 1.400 . S
C1775 C1774 1.385 . S
C1776 C1774 1.478 . S
C1776 C1778 1.381 . S
C1776 C1782 1.383 . S
C1777 C1773 1.495 . S
C1777 H1783 0.959 . S
C1777 H1784 0.961 . S
C1777 H1785 0.960 . S
C1778 C1776 1.381 . S
C1778 C1779 1.394 . S
C1778 H1786 0.930 . S
C1779 C1778 1.394 . S
C1779 C1780 1.383 . S
C1779 H1787 0.929 . S
C1780 C1779 1.383 . S
C1780 C1781 1.377 . S
C1781 H1765 0.930 . S
C1781 C1780 1.377 . S
C1781 C1782 1.379 . S
C1782 H1766 0.931 . S
C1782 C1776 1.383 . S
C1782 C1781 1.379 . S
H1783 C1777 0.959 . S
H1784 C1777 0.961 . S
H1785 C1777 0.960 . S
H1786 C1778 0.930 . S
H1787 C1779 0.929 . S
H1788 C1796 0.929 . S
H1789 C1798 0.930 . S
H1790 C1800 0.930 . S
H1791 C1803 0.929 . S
H1792 C1806 0.930 . S
H1793 C1808 0.960 . S
H1794 C1808 0.960 . S
H1795 C1808 0.960 . S
C1796 H1788 0.929 . S
C1796 C1797 1.377 . S
C1796 C1798 1.384 . S
C1797 C1796 1.377 . S
C1797 C1803 1.390 . S
C1798 H1789 0.930 . S
C1798 C1796 1.384 . S
C1798 C1799 1.372 . S
C1799 C1798 1.372 . S
C1799 C1800 1.400 . S
C1799 C1804 1.490 . S
C1800 H1790 0.930 . S
C1800 C1799 1.400 . S
C1800 C1803 1.386 . S
H1801 C1817 0.930 . S
H1802 C1818 0.931 . S
C1803 H1791 0.929 . S
C1803 C1797 1.390 . S
C1803 C1800 1.386 . S
C1804 C1799 1.490 . S
C1804 C1806 1.395 . S
C1804 C1807 1.403 . S
H1805 C1811 0.930 . S
C1806 H1792 0.930 . S
C1806 C1804 1.395 . S
C1806 C1809 1.403 . S
C1807 C1804 1.403 . S
C1807 C1808 1.524 . S
C1807 C1811 1.400 . S
C1808 H1793 0.960 . S
C1808 H1794 0.960 . S
C1808 H1795 0.960 . S
C1808 C1807 1.524 . S
C1809 C1806 1.403 . S
C1809 C1810 1.392 . S
C1809 C1813 1.495 . S
C1810 C1809 1.392 . S
C1810 C1811 1.385 . S
C1810 C1812 1.478 . S
C1811 H1805 0.930 . S
C1811 C1807 1.400 . S
C1811 C1810 1.385 . S
C1812 C1810 1.478 . S
C1812 C1814 1.381 . S
C1812 C1818 1.383 . S
C1813 C1809 1.495 . S
C1813 H1819 0.959 . S
C1813 H1820 0.961 . S
C1813 H1821 0.960 . S
C1814 C1812 1.381 . S
C1814 C1815 1.394 . S
C1814 H1822 0.930 . S
C1815 C1814 1.394 . S
C1815 C1816 1.383 . S
C1815 H1823 0.929 . S
C1816 C1815 1.383 . S
C1816 C1817 1.377 . S
C1817 H1801 0.930 . S
C1817 C1816 1.377 . S
C1817 C1818 1.379 . S
C1818 H1802 0.931 . S
C1818 C1812 1.383 . S
C1818 C1817 1.379 . S
H1819 C1813 0.959 . S
H1820 C1813 0.961 . S
H1821 C1813 0.960 . S
H1822 C1814 0.930 . S
H1823 C1815 0.929 . S
H1824 C1832 0.929 . S
H1825 C1834 0.930 . S
H1826 C1836 0.930 . S
H1827 C1839 0.929 . S
H1828 C1842 0.930 . S
H1829 C1844 0.960 . S
H1830 C1844 0.960 . S
H1831 C1844 0.960 . S
C1832 H1824 0.929 . S
C1832 C1833 1.377 . S
C1832 C1834 1.384 . S
C1833 C1832 1.377 . S
C1833 C1839 1.390 . S
C1834 H1825 0.930 . S
C1834 C1832 1.384 . S
C1834 C1835 1.372 . S
C1835 C1834 1.372 . S
C1835 C1836 1.400 . S
C1835 C1840 1.490 . S
C1836 H1826 0.930 . S
C1836 C1835 1.400 . S
C1836 C1839 1.386 . S
H1837 C1853 0.930 . S
H1838 C1854 0.931 . S
C1839 H1827 0.929 . S
C1839 C1833 1.390 . S
C1839 C1836 1.386 . S
C1840 C1835 1.490 . S
C1840 C1842 1.395 . S
C1840 C1843 1.403 . S
H1841 C1847 0.930 . S
C1842 H1828 0.930 . S
C1842 C1840 1.395 . S
C1842 C1845 1.403 . S
C1843 C1840 1.403 . S
C1843 C1844 1.524 . S
C1843 C1847 1.400 . S
C1844 H1829 0.960 . S
C1844 H1830 0.960 . S
C1844 H1831 0.960 . S
C1844 C1843 1.524 . S
C1845 C1842 1.403 . S
C1845 C1846 1.392 . S
C1845 C1849 1.495 . S
C1846 C1845 1.392 . S
C1846 C1847 1.385 . S
C1846 C1848 1.478 . S
C1847 H1841 0.930 . S
C1847 C1843 1.400 . S
C1847 C1846 1.385 . S
C1848 C1846 1.478 . S
C1848 C1850 1.381 . S
C1848 C1854 1.383 . S
C1849 C1845 1.495 . S
C1849 H1855 0.959 . S
C1849 H1856 0.961 . S
C1849 H1857 0.960 . S
C1850 C1848 1.381 . S
C1850 C1851 1.394 . S
C1850 H1858 0.930 . S
C1851 C1850 1.394 . S
C1851 C1852 1.383 . S
C1851 H1859 0.929 . S
C1852 C1851 1.383 . S
C1852 C1853 1.377 . S
C1853 H1837 0.930 . S
C1853 C1852 1.377 . S
C1853 C1854 1.379 . S
C1854 H1838 0.931 . S
C1854 C1848 1.383 . S
C1854 C1853 1.379 . S
H1855 C1849 0.959 . S
H1856 C1849 0.961 . S
H1857 C1849 0.960 . S
H1858 C1850 0.930 . S
H1859 C1851 0.929 . S
H1860 C1868 0.929 . S
H1861 C1870 0.930 . S
H1862 C1872 0.930 . S
H1863 C1875 0.929 . S
H1864 C1878 0.930 . S
H1865 C1880 0.960 . S
H1866 C1880 0.960 . S
H1867 C1880 0.960 . S
C1868 H1860 0.929 . S
C1868 C1869 1.377 . S
C1868 C1870 1.384 . S
C1869 C1868 1.377 . S
C1869 C1875 1.390 . S
C1870 H1861 0.930 . S
C1870 C1868 1.384 . S
C1870 C1871 1.372 . S
C1871 C1870 1.372 . S
C1871 C1872 1.400 . S
C1871 C1876 1.490 . S
C1872 H1862 0.930 . S
C1872 C1871 1.400 . S
C1872 C1875 1.386 . S
H1873 C1889 0.930 . S
H1874 C1890 0.931 . S
C1875 H1863 0.929 . S
C1875 C1869 1.390 . S
C1875 C1872 1.386 . S
C1876 C1871 1.490 . S
C1876 C1878 1.395 . S
C1876 C1879 1.403 . S
H1877 C1883 0.930 . S
C1878 H1864 0.930 . S
C1878 C1876 1.395 . S
C1878 C1881 1.403 . S
C1879 C1876 1.403 . S
C1879 C1880 1.524 . S
C1879 C1883 1.400 . S
C1880 H1865 0.960 . S
C1880 H1866 0.960 . S
C1880 H1867 0.960 . S
C1880 C1879 1.524 . S
C1881 C1878 1.403 . S
C1881 C1882 1.392 . S
C1881 C1885 1.495 . S
C1882 C1881 1.392 . S
C1882 C1883 1.385 . S
C1882 C1884 1.478 . S
C1883 H1877 0.930 . S
C1883 C1879 1.400 . S
C1883 C1882 1.385 . S
C1884 C1882 1.478 . S
C1884 C1886 1.381 . S
C1884 C1890 1.383 . S
C1885 C1881 1.495 . S
C1885 H1891 0.959 . S
C1885 H1892 0.961 . S
C1885 H1893 0.960 . S
C1886 C1884 1.381 . S
C1886 C1887 1.394 . S
C1886 H1894 0.930 . S
C1887 C1886 1.394 . S
C1887 C1888 1.383 . S
C1887 H1895 0.929 . S
C1888 C1887 1.383 . S
C1888 C1889 1.377 . S
C1889 H1873 0.930 . S
C1889 C1888 1.377 . S
C1889 C1890 1.379 . S
C1890 H1874 0.931 . S
C1890 C1884 1.383 . S
C1890 C1889 1.379 . S
H1891 C1885 0.959 . S
H1892 C1885 0.961 . S
H1893 C1885 0.960 . S
H1894 C1886 0.930 . S
H1895 C1887 0.929 . S
H1896 C1904 0.929 . S
H1897 C1906 0.930 . S
H1898 C1908 0.930 . S
H1899 C1911 0.929 . S
H1900 C1914 0.930 . S
H1901 C1916 0.960 . S
H1902 C1916 0.960 . S
H1903 C1916 0.960 . S
C1904 H1896 0.929 . S
C1904 C1905 1.377 . S
C1904 C1906 1.384 . S
C1905 C1904 1.377 . S
C1905 C1911 1.390 . S
C1906 H1897 0.930 . S
C1906 C1904 1.384 . S
C1906 C1907 1.372 . S
C1907 C1906 1.372 . S
C1907 C1908 1.400 . S
C1907 C1912 1.490 . S
C1908 H1898 0.930 . S
C1908 C1907 1.400 . S
C1908 C1911 1.386 . S
H1909 C1925 0.930 . S
H1910 C1926 0.931 . S
C1911 H1899 0.929 . S
C1911 C1905 1.390 . S
C1911 C1908 1.386 . S
C1912 C1907 1.490 . S
C1912 C1914 1.395 . S
C1912 C1915 1.403 . S
H1913 C1919 0.930 . S
C1914 H1900 0.930 . S
C1914 C1912 1.395 . S
C1914 C1917 1.403 . S
C1915 C1912 1.403 . S
C1915 C1916 1.524 . S
C1915 C1919 1.400 . S
C1916 H1901 0.960 . S
C1916 H1902 0.960 . S
C1916 H1903 0.960 . S
C1916 C1915 1.524 . S
C1917 C1914 1.403 . S
C1917 C1918 1.392 . S
C1917 C1921 1.495 . S
C1918 C1917 1.392 . S
C1918 C1919 1.385 . S
C1918 C1920 1.478 . S
C1919 H1913 0.930 . S
C1919 C1915 1.400 . S
C1919 C1918 1.385 . S
C1920 C1918 1.478 . S
C1920 C1922 1.381 . S
C1920 C1926 1.383 . S
C1921 C1917 1.495 . S
C1921 H1927 0.959 . S
C1921 H1928 0.961 . S
C1921 H1929 0.960 . S
C1922 C1920 1.381 . S
C1922 C1923 1.394 . S
C1922 H1930 0.930 . S
C1923 C1922 1.394 . S
C1923 C1924 1.383 . S
C1923 H1931 0.929 . S
C1924 C1923 1.383 . S
C1924 C1925 1.377 . S
C1925 H1909 0.930 . S
C1925 C1924 1.377 . S
C1925 C1926 1.379 . S
C1926 H1910 0.931 . S
C1926 C1920 1.383 . S
C1926 C1925 1.379 . S
H1927 C1921 0.959 . S
H1928 C1921 0.961 . S
H1929 C1921 0.960 . S
H1930 C1922 0.930 . S
H1931 C1923 0.929 . S
H1932 C1940 0.929 . S
H1933 C1942 0.930 . S
H1934 C1944 0.930 . S
H1935 C1947 0.929 . S
H1936 C1950 0.930 . S
H1937 C1952 0.960 . S
H1938 C1952 0.960 . S
H1939 C1952 0.960 . S
C1940 H1932 0.929 . S
C1940 C1941 1.377 . S
C1940 C1942 1.384 . S
C1941 C1940 1.377 . S
C1941 C1947 1.390 . S
C1942 H1933 0.930 . S
C1942 C1940 1.384 . S
C1942 C1943 1.372 . S
C1943 C1942 1.372 . S
C1943 C1944 1.400 . S
C1943 C1948 1.490 . S
C1944 H1934 0.930 . S
C1944 C1943 1.400 . S
C1944 C1947 1.386 . S
H1945 C1961 0.930 . S
H1946 C1962 0.931 . S
C1947 H1935 0.929 . S
C1947 C1941 1.390 . S
C1947 C1944 1.386 . S
C1948 C1943 1.490 . S
C1948 C1950 1.395 . S
C1948 C1951 1.403 . S
H1949 C1955 0.930 . S
C1950 H1936 0.930 . S
C1950 C1948 1.395 . S
C1950 C1953 1.403 . S
C1951 C1948 1.403 . S
C1951 C1952 1.524 . S
C1951 C1955 1.400 . S
C1952 H1937 0.960 . S
C1952 H1938 0.960 . S
C1952 H1939 0.960 . S
C1952 C1951 1.524 . S
C1953 C1950 1.403 . S
C1953 C1954 1.392 . S
C1953 C1957 1.495 . S
C1954 C1953 1.392 . S
C1954 C1955 1.385 . S
C1954 C1956 1.478 . S
C1955 H1949 0.930 . S
C1955 C1951 1.400 . S
C1955 C1954 1.385 . S
C1956 C1954 1.478 . S
C1956 C1958 1.381 . S
C1956 C1962 1.383 . S
C1957 C1953 1.495 . S
C1957 H1963 0.959 . S
C1957 H1964 0.961 . S
C1957 H1965 0.960 . S
C1958 C1956 1.381 . S
C1958 C1959 1.394 . S
C1958 H1966 0.930 . S
C1959 C1958 1.394 . S
C1959 C1960 1.383 . S
C1959 H1967 0.929 . S
C1960 C1959 1.383 . S
C1960 C1961 1.377 . S
C1961 H1945 0.930 . S
C1961 C1960 1.377 . S
C1961 C1962 1.379 . S
C1962 H1946 0.931 . S
C1962 C1956 1.383 . S
C1962 C1961 1.379 . S
H1963 C1957 0.959 . S
H1964 C1957 0.961 . S
H1965 C1957 0.960 . S
H1966 C1958 0.930 . S
H1967 C1959 0.929 . S
C537 C7 0.248 . S
C556 C172 0.253 . S
C573 C40 0.227 . S
C592 C205 0.177 . S
C609 C238 0.256 . S
C628 C73 0.319 . S
C645 C139 0.262 . S
C664 C106 0.321 . S
C681 C271 0.241 . S
C700 C436 0.220 . S
C717 C304 0.265 . S
C736 C469 0.227 . S
C753 C337 0.250 . S
C772 C502 0.314 . S
C789 C370 0.262 . S
C808 C403 0.157 . S
C825 C285 1.251 . S
C844 C21 1.215 . S
C861 C318 1.237 . S
C880 C54 1.245 . S
C897 C87 1.239 . S
C916 C351 1.198 . S
C933 C384 1.243 . S
C952 C120 1.195 . S
C969 C153 1.246 . S
C988 C417 1.199 . S
C1005 C186 1.246 . S
C1024 C450 1.200 . S
C1041 C219 1.246 . S
C1060 C483 1.286 . S
C1077 C252 1.237 . S
C1096 C516 1.206 . S
C1113 N13 1.317 . S
C1132 N145 1.345 . S
C1149 N46 1.314 . S
C1168 N178 1.311 . S
C1185 N211 1.297 . S
C1204 N79 1.260 . S
C1221 N112 1.317 . S
C1240 N244 1.333 . S
C1257 N409 1.312 . S
C1276 N277 1.266 . S
C1293 N442 1.305 . S
C1312 N310 1.330 . S
C1329 N343 1.315 . S
C1348 N475 1.257 . S
C1365 N508 1.308 . S
C1384 N376 1.283 . S
C1401 C51 1.342 . S
C1420 N2 1.250 . S
C1437 N35 1.276 . S
C1456 C84 1.339 . S
C1473 N68 1.273 . S
C1492 C117 1.335 . S
C1509 N101 1.271 . S
C1528 C18 1.333 . S
C1545 C249 1.343 . S
C1564 N134 1.272 . S
C1581 N167 1.283 . S
C1600 C150 1.345 . S
C1617 N200 1.284 . S
C1636 C183 1.346 . S
C1653 N233 1.279 . S
C1672 C216 1.341 . S
C1689 N266 1.272 . S
C1708 C315 1.347 . S
C1725 N299 1.284 . S
C1744 C348 1.333 . S
C1761 C381 1.344 . S
C1780 N332 1.245 . S
C1797 N365 1.278 . S
C1816 C282 1.346 . S
C1833 N398 1.277 . S
C1852 C513 1.334 . S
C1869 C414 1.341 . S
C1888 N431 1.307 . S
C1905 C447 1.343 . S
C1924 N464 1.290 . S
C1941 N497 1.271 . S
C1960 C480 1.347 . S
