# Generated by pormake.
# Topology unj, (4)-cn, num edge types: 1
# Building blocks:
#     Node 0, Type 0, BuildingBlock: AZAVOO_clean_sbu_0, # of connection points: 4
#     Node 1, Type 0, BuildingBlock: AZAVOO_clean_sbu_0, # of connection points: 4
#     Node 2, Type 0, BuildingBlock: AZAVOO_clean_sbu_0, # of connection points: 4
#     Node 3, Type 0, BuildingBlock: AZAVOO_clean_sbu_0, # of connection points: 4
#     Node 4, Type 0, BuildingBlock: AZAVOO_clean_sbu_0, # of connection points: 4
#     Node 5, Type 0, BuildingBlock: AZAVOO_clean_sbu_0, # of connection points: 4
#     Edge 6, Type (0, 0), BuildingBlock: ZUJKAS_clean_linker_0, # of connection points: 2
#     Edge 7, Type (0, 0), BuildingBlock: ZUJKAS_clean_linker_0, # of connection points: 2
#     Edge 8, Type (0, 0), BuildingBlock: ZUJKAS_clean_linker_0, # of connection points: 2
#     Edge 9, Type (0, 0), BuildingBlock: ZUJKAS_clean_linker_0, # of connection points: 2
#     Edge 10, Type (0, 0), BuildingBlock: ZUJKAS_clean_linker_0, # of connection points: 2
#     Edge 11, Type (0, 0), BuildingBlock: ZUJKAS_clean_linker_0, # of connection points: 2
#     Edge 12, Type (0, 0), BuildingBlock: ZUJKAS_clean_linker_0, # of connection points: 2
#     Edge 13, Type (0, 0), BuildingBlock: ZUJKAS_clean_linker_0, # of connection points: 2
#     Edge 14, Type (0, 0), BuildingBlock: ZUJKAS_clean_linker_0, # of connection points: 2
#     Edge 15, Type (0, 0), BuildingBlock: ZUJKAS_clean_linker_0, # of connection points: 2
#     Edge 16, Type (0, 0), BuildingBlock: ZUJKAS_clean_linker_0, # of connection points: 2
#     Edge 17, Type (0, 0), BuildingBlock: ZUJKAS_clean_linker_0, # of connection points: 2
# Relax obj value: 0.028
# Max RMSD: 0.066
# Mean RMSD: 0.065
data_MOF--net-unj--node1-AZAVOO_clean_sbu_0--edge1-ZUJKAS_clean_linker_0
_symmetry_space_group_name_H-M    P1
_symmetry_Int_Tables_number       1
_symmetry_cell_setting            triclinic
loop_
_symmetry_equiv_pos_as_xyz
'x, y, z'
_cell_length_a     45.380949
_cell_length_b     45.491594
_cell_length_c     42.888747
_cell_angle_alpha  89.954421
_cell_angle_beta   90.076846
_cell_angle_gamma 120.25562
loop_
_atom_site_label
_atom_site_type_symbol
_atom_site_fract_x
_atom_site_fract_y
_atom_site_fract_z
_atom_type_partial_charge
Mg0 Mg 0.50849 0.24571 0.56629 0.0
O1 O 0.53896 0.23721 0.60434 0.0
O2 O 0.56664 0.21388 0.58185 0.0
Mg3 Mg 0.55263 0.20601 0.52997 0.0
C4 C 0.55918 0.22541 0.60585 0.0
C5 C 0.47383 0.28285 0.58961 0.0
O6 O 0.46129 0.27192 0.56161 0.0
O7 O 0.5571 0.29085 0.54696 0.0
O8 O 0.57987 0.26396 0.52188 0.0
O9 O 0.46378 0.19411 0.57381 0.0
O10 O 0.50483 0.20536 0.54005 0.0
C11 C 0.57987 0.29122 0.52918 0.0
C12 C 0.47674 0.18323 0.5531 0.0
O13 O 0.4976 0.27816 0.59931 0.0
Mg14 Mg 0.21914 0.41024 0.72506 0.0
O15 O 0.25116 0.4453 0.76532 0.0
O16 O 0.30492 0.47575 0.74846 0.0
Mg17 Mg 0.30758 0.46103 0.69812 0.0
C18 C 0.28248 0.46766 0.76974 0.0
C19 C 0.16046 0.38188 0.77533 0.0
O20 O 0.17994 0.37166 0.78843 0.0
O21 O 0.22043 0.45493 0.69938 0.0
O22 O 0.27426 0.48293 0.68226 0.0
O23 O 0.2322 0.37056 0.74026 0.0
O24 O 0.26188 0.41148 0.70647 0.0
C25 C 0.24449 0.47928 0.68406 0.0
C26 C 0.25857 0.38601 0.72224 0.0
O27 O 0.17 0.39846 0.74992 0.0
Mg28 Mg 0.76302 0.21472 0.94441 0.0
O29 O 0.72839 0.21609 0.90578 0.0
O30 O 0.67669 0.19708 0.92639 0.0
Mg31 Mg 0.67811 0.18455 0.97776 0.0
C32 C 0.69724 0.20845 0.90333 0.0
C33 C 0.82354 0.23174 0.89987 0.0
O34 O 0.80827 0.19839 0.9009 0.0
O35 O 0.76746 0.26216 0.96712 0.0
O36 O 0.71544 0.24104 0.98784 0.0
O37 O 0.74556 0.16024 0.93291 0.0
O38 O 0.7208 0.17643 0.96762 0.0
C39 C 0.74569 0.26571 0.98305 0.0
C40 C 0.72117 0.15212 0.95274 0.0
O41 O 0.81057 0.24666 0.91472 0.0
Mg42 Mg 0.48841 0.74533 0.06435 0.0
O43 O 0.45281 0.74808 0.10082 0.0
O44 O 0.42274 0.76816 0.07706 0.0
Mg45 Mg 0.43809 0.77738 0.02567 0.0
C46 C 0.43049 0.75732 0.1014 0.0
C47 C 0.53427 0.73067 0.10475 0.0
O48 O 0.55427 0.76055 0.09208 0.0
O49 O 0.44415 0.69754 0.04256 0.0
O50 O 0.41651 0.72004 0.01813 0.0
O51 O 0.52743 0.7994 0.07402 0.0
O52 O 0.48803 0.78374 0.03757 0.0
C53 C 0.42001 0.6946 0.02501 0.0
C54 C 0.51351 0.80788 0.05217 0.0
O55 O 0.50263 0.71522 0.09804 0.0
Mg56 Mg 0.77315 0.57446 0.23013 0.0
O57 O 0.74422 0.53942 0.27138 0.0
O58 O 0.69068 0.50413 0.25591 0.0
Mg59 Mg 0.6847 0.5173 0.20574 0.0
C60 C 0.71407 0.51488 0.27662 0.0
C61 C 0.82907 0.60009 0.28268 0.0
O62 O 0.8044 0.6002 0.29859 0.0
O63 O 0.77507 0.53116 0.20495 0.0
O64 O 0.72108 0.49949 0.18886 0.0
O65 O 0.75703 0.61171 0.24495 0.0
O66 O 0.72796 0.56908 0.21253 0.0
C67 C 0.75182 0.50567 0.19005 0.0
C68 C 0.73021 0.59445 0.22775 0.0
O69 O 0.82397 0.59081 0.25429 0.0
Mg70 Mg 0.23281 0.77495 0.44215 0.0
O71 O 0.26558 0.77378 0.4016 0.0
O72 O 0.31822 0.79337 0.42031 0.0
Mg73 Mg 0.31953 0.8071 0.47164 0.0
C74 C 0.29666 0.78156 0.398 0.0
C75 C 0.15633 0.73287 0.42994 0.0
O76 O 0.15842 0.74125 0.45952 0.0
O77 O 0.23075 0.72834 0.46418 0.0
O78 O 0.28362 0.75073 0.48331 0.0
O79 O 0.24724 0.82859 0.43099 0.0
O80 O 0.2759 0.81443 0.46331 0.0
C81 C 0.25343 0.72558 0.47943 0.0
C82 C 0.27317 0.83798 0.44932 0.0
O83 O 0.18377 0.74231 0.41487 0.0
H84 H 0.49927 0.15153 0.51344 0.0
H85 H 0.46729 0.09296 0.49444 0.0
H86 H 0.38112 0.07527 0.5507 0.0
H87 H 0.41334 0.13332 0.57069 0.0
H88 H 0.39112 0.02274 0.55366 0.0
H89 H 0.39283 0.05856 0.42981 0.0
H90 H 0.43471 0.07549 0.44616 0.0
H91 H 0.40652 0.08917 0.46109 0.0
C92 C 0.47367 0.13508 0.52204 0.0
C93 C 0.45884 0.1471 0.54355 0.0
C94 C 0.45526 0.10171 0.51086 0.0
C95 C 0.42151 0.08001 0.52054 0.0
C96 C 0.40705 0.09166 0.54273 0.0
H97 H 0.26742 0.89301 0.43314 0.0
H98 H 0.30451 0.95218 0.44937 0.0
C99 C 0.42554 0.12484 0.55418 0.0
C100 C 0.40117 0.04506 0.50783 0.0
H101 H 0.37096 -0.0002 0.44026 0.0
C102 C 0.38668 0.01773 0.52887 0.0
C103 C 0.39488 0.03862 0.47549 0.0
C104 C 0.40774 0.06702 0.45184 0.0
C105 C 0.36629 0.98413 0.51851 0.0
C106 C 0.36118 0.97756 0.4861 0.0
C107 C 0.37534 0.00488 0.46504 0.0
C108 C 0.34054 0.94249 0.47379 0.0
C109 C 0.3497 0.95616 0.54251 0.0
C110 C 0.34917 0.91773 0.48113 0.0
C111 C 0.32785 0.88392 0.47227 0.0
C112 C 0.29784 0.87433 0.45527 0.0
C113 C 0.29033 0.89957 0.44625 0.0
C114 C 0.31148 0.93338 0.45552 0.0
H115 H 0.34792 0.96624 0.56559 0.0
H116 H 0.32365 0.93645 0.53512 0.0
H117 H 0.3653 0.94384 0.5455 0.0
H118 H 0.37201 0.92438 0.49443 0.0
H119 H 0.3346 0.86531 0.47945 0.0
H120 H 0.42565 0.29908 0.57408 0.0
H121 H 0.39357 0.31492 0.60892 0.0
H122 H 0.45109 0.31134 0.68747 0.0
H123 H 0.48383 0.29572 0.65253 0.0
H124 H 0.35332 0.2746 0.66002 0.0
H125 H 0.45497 0.40416 0.69651 0.0
H126 H 0.45937 0.38341 0.66243 0.0
H127 H 0.46336 0.36966 0.7006 0.0
C128 C 0.43185 0.30203 0.5987 0.0
C129 C 0.45729 0.2961 0.61053 0.0
C130 C 0.41338 0.31096 0.6186 0.0
C131 C 0.41993 0.31425 0.65074 0.0
C132 C 0.44587 0.30923 0.66268 0.0
H133 H 0.26324 0.33638 0.75514 0.0
H134 H 0.30424 0.31685 0.74636 0.0
C135 C 0.46453 0.30033 0.64268 0.0
C136 C 0.39852 0.32194 0.67134 0.0
H137 H 0.39901 0.38635 0.71244 0.0
C138 C 0.3633 0.29874 0.67206 0.0
C139 C 0.41178 0.3534 0.68703 0.0
C140 C 0.4494 0.3793 0.68664 0.0
C141 C 0.34063 0.30707 0.68628 0.0
C142 C 0.3537 0.33929 0.70056 0.0
C143 C 0.38915 0.36159 0.70162 0.0
C144 C 0.33103 0.35266 0.70912 0.0
C145 C 0.30277 0.28239 0.68387 0.0
C146 C 0.33315 0.37972 0.69174 0.0
C147 C 0.31005 0.39083 0.69668 0.0
C148 C 0.28429 0.37528 0.7193 0.0
C149 C 0.28275 0.3488 0.73749 0.0
C150 C 0.30607 0.3376 0.73247 0.0
H151 H 0.29682 0.26029 0.66868 0.0
H152 H 0.29235 0.27262 0.70743 0.0
H153 H 0.28948 0.29536 0.67445 0.0
H154 H 0.35202 0.39153 0.67344 0.0
H155 H 0.31183 0.41097 0.68193 0.0
H156 H 0.8647 0.30116 0.89649 0.0
H157 H 0.92143 0.33313 0.87277 0.0
H158 H 0.91455 0.23902 0.84411 0.0
H159 H 0.85792 0.207 0.86723 0.0
H160 H 0.97843 0.32964 0.88854 0.0
H161 H 0.94582 0.29502 0.76451 0.0
H162 H 0.91414 0.28831 0.79343 0.0
H163 H 0.92877 0.25836 0.78939 0.0
C164 C 0.87508 0.2873 0.88476 0.0
C165 C 0.85674 0.25151 0.88371 0.0
C166 C 0.90751 0.30561 0.87127 0.0
C167 C 0.92202 0.28848 0.85631 0.0
C168 C 0.90357 0.25281 0.85492 0.0
H169 H 0.12975 0.34209 0.82646 0.0
H170 H 0.07263 0.32349 0.84652 0.0
C171 C 0.87123 0.23452 0.86835 0.0
C172 C 0.95724 0.3075 0.84381 0.0
H173 H 0.00444 0.31697 0.77874 0.0
C174 C 0.98412 0.32726 0.86443 0.0
C175 C 0.96462 0.3048 0.81226 0.0
C176 C 0.93677 0.28576 0.78854 0.0
C177 C 0.01827 0.34311 0.85467 0.0
C178 C 0.0257 0.33855 0.82362 0.0
C179 C -0.00124 0.3201 0.80266 0.0
C180 C 0.06114 0.35159 0.81262 0.0
C181 C 0.04604 0.36452 0.87773 0.0
C182 C 0.07351 0.37316 0.78659 0.0
C183 C 0.10606 0.38359 0.77488 0.0
C184 C 0.12682 0.3725 0.78888 0.0
C185 C 0.11452 0.35126 0.81522 0.0
C186 C 0.08193 0.34077 0.82685 0.0
H187 H 0.03637 0.3741 0.89664 0.0
H188 H 0.05555 0.34874 0.88863 0.0
H189 H 0.06781 0.38659 0.86611 0.0
H190 H 0.05782 0.38167 0.77515 0.0
H191 H 0.11473 0.39997 0.75456 0.0
H192 H 0.56188 0.86419 0.08273 0.0
H193 H 0.59164 0.92278 0.0637 0.0
H194 H 0.52918 0.89117 0.98082 0.0
H195 H 0.49867 0.83262 1.00009 0.0
H196 H 0.62935 0.94299 0.01112 0.0
H197 H 0.52776 0.97664 0.00435 0.0
H198 H 0.52252 0.9401 0.02571 0.0
H199 H 0.51774 0.93822 0.98401 0.0
C200 C 0.55398 0.86983 0.06077 0.0
C201 C 0.52796 0.84381 0.0429 0.0
C202 C 0.57106 0.9033 0.04988 0.0
C203 C 0.56252 0.91139 0.02092 0.0
C204 C 0.53575 0.88566 0.0035 0.0
H205 H 0.70978 0.0953 0.92052 0.0
H206 H 0.66909 0.03583 0.93364 0.0
C207 C 0.51842 0.85217 0.01451 0.0
C208 C 0.58363 0.94609 0.00795 0.0
H209 H 0.58096 0.01535 0.98104 0.0
C210 C 0.61878 0.95884 0.00457 0.0
C211 C 0.56976 0.96669 0.99949 0.0
C212 C 0.53243 0.9549 0.00381 0.0
C213 C 0.64058 0.99179 0.99332 0.0
C214 C 0.62667 0.01225 0.98439 0.0
C215 C 0.59146 -0.00057 0.98753 0.0
C216 C 0.64869 0.04793 0.97408 0.0
C217 C 0.67843 0.00475 0.99216 0.0
C218 C 0.64958 0.07437 0.9916 0.0
C219 C 0.67241 0.10822 0.98396 0.0
C220 C 0.69485 0.11632 0.95863 0.0
C221 C 0.69301 0.08983 0.94032 0.0
C222 C 0.66991 0.05588 0.94787 0.0
H223 H 0.68558 0.98908 0.0067 0.0
H224 H 0.68597 0.00376 0.96776 0.0
H225 H 0.69324 0.03154 1.00028 0.0
H226 H 0.63339 0.0688 0.01188 0.0
H227 H 0.67323 0.12799 0.99861 0.0
H228 H 0.67235 0.56278 0.19248 0.0
H229 H 0.63347 0.58323 0.17987 0.0
H230 H 0.68951 0.66934 0.24063 0.0
H231 H 0.72872 0.6488 0.25387 0.0
H232 H 0.60743 0.63064 0.23752 0.0
H233 H 0.68072 0.67723 0.12676 0.0
H234 H 0.66757 0.63433 0.13839 0.0
H235 H 0.69848 0.66933 0.1613 0.0
C236 C 0.67605 0.58558 0.2039 0.0
C237 C 0.70382 0.60423 0.22412 0.0
C238 C 0.65372 0.59721 0.19661 0.0
C239 C 0.65876 0.62776 0.20925 0.0
C240 C 0.6852 0.64556 0.23079 0.0
H241 H 0.59853 0.7618 0.12829 0.0
H242 H 0.62611 0.73625 0.15726 0.0
C243 C 0.70761 0.63386 0.23822 0.0
C244 C 0.63913 0.64301 0.19677 0.0
H245 H 0.63207 0.68259 0.13205 0.0
C246 C 0.61274 0.6421 0.21453 0.0
C247 C 0.64637 0.65797 0.16683 0.0
C248 C 0.67493 0.66009 0.14714 0.0
C249 C 0.59312 0.65572 0.20282 0.0
C250 C 0.60014 0.67028 0.17267 0.0
C251 C 0.62669 0.67128 0.15512 0.0
C252 C 0.58139 0.686 0.15892 0.0
C253 C 0.56549 0.65498 0.22286 0.0
C254 C 0.54682 0.66626 0.15062 0.0
C255 C 0.53081 0.68086 0.1339 0.0
C256 C 0.54932 0.71531 0.12506 0.0
C257 C 0.58357 0.73513 0.13445 0.0
C258 C 0.59941 0.72061 0.15113 0.0
H259 H 0.5676 0.64884 0.24755 0.0
H260 H 0.56652 0.67988 0.22196 0.0
H261 H 0.54022 0.63531 0.21383 0.0
H262 H 0.53262 0.63934 0.156 0.0
H263 H 0.50441 0.66495 0.12697 0.0
H264 H 0.09404 0.71286 0.4555 0.0
H265 H 0.03893 0.68732 0.42904 0.0
H266 H 0.087 0.68756 0.34233 0.0
H267 H 0.14247 0.7131 0.36867 0.0
H268 H 0.02455 0.71808 0.37725 0.0
H269 H 0.00322 0.58945 0.34892 0.0
H270 H 0.03305 0.61623 0.37852 0.0
H271 H 0.04393 0.62498 0.33804 0.0
C272 C 0.09294 0.70718 0.43087 0.0
C273 C 0.1227 0.71508 0.41418 0.0
C274 C 0.06139 0.69259 0.41579 0.0
C275 C 0.05887 0.68533 0.38382 0.0
C276 C 0.08835 0.69252 0.36714 0.0
H277 H 0.88681 0.60719 0.25531 0.0
H278 H 0.94281 0.62796 0.27936 0.0
C279 C 0.12003 0.70725 0.3822 0.0
C280 C 0.02567 0.67221 0.36776 0.0
H281 H 0.96282 0.60317 0.32949 0.0
C282 C 0.011 0.69294 0.36683 0.0
C283 C 0.00828 0.63953 0.35402 0.0
C284 C 0.02268 0.61604 0.35501 0.0
C285 C 0.97937 0.68194 0.35242 0.0
C286 C 0.96156 0.64897 0.33922 0.0
C287 C 0.97646 0.62837 0.33976 0.0
C288 C 0.92733 0.63539 0.32498 0.0
C289 C 0.96561 0.70599 0.35099 0.0
C290 C 0.8999 0.63206 0.34281 0.0
C291 C 0.86792 0.62037 0.32913 0.0
C292 C 0.86268 0.61147 0.29739 0.0
C293 C 0.89001 0.61397 0.27978 0.0
C294 C 0.92202 0.62578 0.29348 0.0
H295 H 0.98616 0.73289 0.3541 0.0
H296 H 0.95258 0.70368 0.32843 0.0
H297 H 0.9468 0.69968 0.37001 0.0
H298 H 0.90324 0.63859 0.36735 0.0
H299 H 0.84737 0.61843 0.34344 0.0
H300 H 0.62512 0.29949 0.48338 0.0
H301 H 0.65709 0.34876 0.45024 0.0
H302 H 0.6233 0.40559 0.50525 0.0
H303 H 0.58978 0.35551 0.53806 0.0
H304 H 0.61104 0.40976 0.44747 0.0
H305 H 0.74341 0.43688 0.45256 0.0
H306 H 0.71624 0.39273 0.4437 0.0
H307 H 0.7118 0.40931 0.48053 0.0
C308 C 0.62501 0.32264 0.48903 0.0
C309 C 0.60454 0.32334 0.5133 0.0
C310 C 0.64372 0.35107 0.47012 0.0
C311 C 0.64312 0.38121 0.4754 0.0
C312 C 0.6243 0.38268 0.50076 0.0
H313 H 0.75145 0.53743 0.33073 0.0
H314 H 0.73617 0.51054 0.38226 0.0
C315 C 0.60516 0.35402 0.51954 0.0
C316 C 0.65798 0.40892 0.45179 0.0
H317 H 0.7262 0.45111 0.40305 0.0
C318 C 0.63655 0.4194 0.4383 0.0
C319 C 0.6915 0.42227 0.44006 0.0
C320 C 0.7171 0.41495 0.4553 0.0
C321 C 0.64674 0.44066 0.41205 0.0
C322 C 0.67876 0.4508 0.39822 0.0
C323 C 0.70127 0.44262 0.41313 0.0
C324 C 0.68817 0.46762 0.36723 0.0
C325 C 0.62272 0.4515 0.39913 0.0
C326 C 0.66667 0.45209 0.34151 0.0
C327 C 0.67513 0.46748 0.31221 0.0
C328 C 0.70566 0.49848 0.30776 0.0
C329 C 0.72769 0.51359 0.33336 0.0
C330 C 0.71899 0.49829 0.36284 0.0
H331 H 0.60645 0.45274 0.41783 0.0
H332 H 0.63678 0.47675 0.38759 0.0
H333 H 0.60554 0.43246 0.38176 0.0
H334 H 0.64334 0.42784 0.34404 0.0
H335 H 0.65779 0.45486 0.29297 0.0
H336 H 0.29686 0.7055 0.50122 0.0
H337 H 0.2829 0.6555 0.53259 0.0
H338 H 0.17581 0.6223 0.52545 0.0
H339 H 0.18957 0.67265 0.49379 0.0
H340 H 0.20146 0.62584 0.58805 0.0
H341 H 0.23797 0.55399 0.50823 0.0
H342 H 0.26982 0.59826 0.51071 0.0
H343 H 0.22855 0.586 0.49464 0.0
C344 C 0.27026 0.68738 0.50588 0.0
C345 C 0.24432 0.69309 0.49505 0.0
C346 C 0.26233 0.6587 0.52368 0.0
C347 C 0.22833 0.6351 0.53105 0.0
C348 C 0.2022 0.64018 0.51977 0.0
H349 H 0.18234 0.47272 0.66948 0.0
H350 H 0.17167 0.50772 0.63266 0.0
C351 C 0.21011 0.66884 0.50162 0.0
C352 C 0.22097 0.60677 0.55252 0.0
H353 H 0.2383 0.54274 0.56316 0.0
C354 C 0.20863 0.60703 0.58247 0.0
C355 C 0.23029 0.58232 0.54505 0.0
C356 C 0.24208 0.57984 0.51279 0.0
C357 C 0.20788 0.58505 0.6059 0.0
C358 C 0.21949 0.56225 0.59893 0.0
C359 C 0.22966 0.5605 0.56844 0.0
C360 C 0.22508 0.54274 0.62346 0.0
C361 C 0.19685 0.58778 0.6384 0.0
C362 C 0.25856 0.55128 0.63073 0.0
C363 C 0.26474 0.5315 0.65156 0.0
C364 C 0.2375 0.50259 0.66553 0.0
C365 C 0.20388 0.49487 0.65921 0.0
C366 C 0.19772 0.51478 0.63819 0.0
H367 H 0.1912 0.60878 0.64056 0.0
H368 H 0.17358 0.56353 0.64471 0.0
H369 H 0.21709 0.59206 0.65544 0.0
H370 H 0.27999 0.57289 0.61965 0.0
H371 H 0.29095 0.53839 0.65602 0.0
H372 H 0.73271 0.23346 0.84861 0.0
H373 H 0.71022 0.23801 0.79803 0.0
H374 H 0.6099 0.1965 0.83802 0.0
H375 H 0.63191 0.19162 0.88851 0.0
H376 H 0.61169 0.16544 0.78145 0.0
H377 H 0.67974 0.30649 0.77225 0.0
H378 H 0.70632 0.28856 0.78046 0.0
H379 H 0.67534 0.28467 0.80867 0.0
C380 C 0.70588 0.22545 0.84673 0.0
C381 C 0.68416 0.21222 0.87273 0.0
C382 C 0.69314 0.22824 0.81782 0.0
C383 C 0.65849 0.21793 0.8144 0.0
C384 C 0.63676 0.20471 0.84022 0.0
H385 H 0.55357 0.25182 0.66154 0.0
H386 H 0.57776 0.24985 0.71198 0.0
C387 C 0.64944 0.20199 0.86911 0.0
C388 C 0.6445 0.21982 0.78371 0.0
H389 H 0.64847 0.27527 0.72786 0.0
C390 C 0.61971 0.18943 0.76971 0.0
C391 C 0.65476 0.25121 0.76868 0.0
C392 C 0.68029 0.28467 0.78331 0.0
C393 C 0.60518 0.18955 0.74083 0.0
C394 C 0.616 0.22086 0.72546 0.0
C395 C 0.64046 0.2513 0.73963 0.0
C396 C 0.60192 0.22248 0.69475 0.0
C397 C 0.57797 0.15623 0.7272 0.0
C398 C 0.60788 0.20811 0.66832 0.0
C399 C 0.59417 0.20922 0.63944 0.0
C400 C 0.57422 0.22477 0.63642 0.0
C401 C 0.56866 0.23952 0.66298 0.0
C402 C 0.58252 0.23849 0.69183 0.0
H403 H 0.56719 0.1356 0.74492 0.0
H404 H 0.55689 0.15889 0.71709 0.0
H405 H 0.58923 0.14847 0.70823 0.0
H406 H 0.6232 0.19605 0.67003 0.0
H407 H 0.5991 0.1977 0.61952 0.0
H408 H 0.34737 0.51242 0.78907 0.0
H409 H 0.36544 0.54328 0.83825 0.0
H410 H 0.26083 0.49424 0.869 0.0
H411 H 0.24235 0.46266 0.81981 0.0
H412 H 0.34579 0.58815 0.85861 0.0
H413 H 0.31083 0.48478 0.94517 0.0
H414 H 0.31394 0.47888 0.9039 0.0
H415 H 0.27714 0.47891 0.91922 0.0
C416 C 0.32811 0.50786 0.80631 0.0
C417 C 0.29334 0.48512 0.80035 0.0
C418 C 0.33855 0.5255 0.83449 0.0
C419 C 0.31454 0.52081 0.8574 0.0
C420 C 0.27985 0.49775 0.85187 0.0
H421 H 0.3583 0.67401 0.99777 0.0
H422 H 0.32858 0.62755 0.96054 0.0
C423 C 0.26933 0.47993 0.82363 0.0
C424 C 0.32591 0.54228 0.88582 0.0
H425 H 0.33085 0.54036 0.9653 0.0
C426 C 0.34248 0.57768 0.88193 0.0
C427 C 0.32175 0.52852 0.91618 0.0
C428 C 0.30521 0.49071 0.92153 0.0
C429 C 0.35508 0.59976 0.90749 0.0
C430 C 0.35043 0.58608 0.93792 0.0
C431 C 0.33399 0.55068 0.94194 0.0
C432 C 0.36362 0.60874 0.96543 0.0
C433 C 0.37397 0.63767 0.90165 0.0
C434 C 0.39191 0.61215 0.98191 0.0
C435 C 0.40889 0.6386 0.00346 0.0
C436 C 0.39786 0.66209 0.0086 0.0
C437 C 0.36774 0.65666 0.99401 0.0
C438 C 0.3507 0.63013 0.97272 0.0
H439 H 0.3818 0.6439 0.87688 0.0
H440 H 0.35711 0.64799 0.90749 0.0
H441 H 0.39709 0.65075 0.91656 0.0
H442 H 0.40217 0.59576 0.97664 0.0
H443 H 0.43197 0.64204 0.01435 0.0
H444 H 0.70399 0.28803 0.0043 0.0
H445 H 0.71955 0.33843 0.03559 0.0
H446 H 0.82578 0.36805 0.02897 0.0
H447 H 0.81036 0.31726 0.99734 0.0
H448 H 0.80044 0.36496 0.09136 0.0
H449 H 0.76734 0.44032 0.01254 0.0
H450 H 0.73441 0.39641 0.01426 0.0
H451 H 0.77552 0.40763 0.99852 0.0
C452 C 0.73074 0.30548 0.00902 0.0
C453 C 0.75594 0.29861 0.99839 0.0
C454 C 0.73961 0.33441 0.02676 0.0
C455 C 0.77382 0.3571 0.0343 0.0
C456 C 0.79925 0.35091 0.02315 0.0
H457 H 0.81567 0.51745 0.17412 0.0
H458 H 0.82902 0.48496 0.13665 0.0
C459 C 0.7904 0.322 0.00501 0.0
C460 C 0.78197 0.38541 0.05606 0.0
H461 H 0.7654 0.44978 0.06787 0.0
C462 C 0.7938 0.38423 0.08606 0.0
C463 C 0.77337 0.4105 0.04897 0.0
C464 C 0.76228 0.41406 0.0167 0.0
C465 C 0.79445 0.40572 0.10989 0.0
C466 C 0.78316 0.42886 0.10334 0.0
C467 C 0.77381 0.43176 0.0728 0.0
C468 C 0.77629 0.44686 0.12836 0.0
C469 C 0.80479 0.40202 0.14242 0.0
C470 C 0.74236 0.43567 0.1364 0.0
C471 C 0.73466 0.45395 0.15764 0.0
C472 C 0.76078 0.484 0.17122 0.0
C473 C 0.79497 0.49438 0.16415 0.0
C474 C 0.80266 0.47595 0.14274 0.0
H475 H 0.81276 0.38262 0.14374 0.0
H476 H 0.82625 0.42681 0.15046 0.0
H477 H 0.78313 0.39468 0.15867 0.0
H478 H 0.72171 0.41316 0.12558 0.0
H479 H 0.70808 0.44502 0.16267 0.0
H480 H 0.25847 0.75275 0.34513 0.0
H481 H 0.27875 0.74602 0.29417 0.0
H482 H 0.38149 0.79326 0.32979 0.0
H483 H 0.36172 0.80026 0.38058 0.0
H484 H 0.37443 0.81983 0.2718 0.0
H485 H 0.31226 0.67868 0.27112 0.0
H486 H 0.2849 0.69565 0.27951 0.0
H487 H 0.3182 0.70275 0.30639 0.0
C488 C 0.28537 0.76162 0.34217 0.0
C489 C 0.30842 0.777 0.36704 0.0
C490 C 0.29686 0.75758 0.31308 0.0
C491 C 0.33155 0.76882 0.30837 0.0
C492 C 0.35459 0.78429 0.33302 0.0
H493 H 0.43845 0.7345 0.15834 0.0
H494 H 0.41324 0.73651 0.20817 0.0
C495 C 0.34317 0.78822 0.36207 0.0
C496 C 0.34426 0.76551 0.27753 0.0
H497 H 0.34153 0.70756 0.22525 0.0
C498 C 0.36719 0.79531 0.26156 0.0
C499 C 0.33503 0.73346 0.26448 0.0
C500 C 0.31146 0.70073 0.28127 0.0
C501 C 0.381 0.79393 0.23272 0.0
C502 C 0.37135 0.76189 0.21941 0.0
C503 C 0.34864 0.73206 0.23547 0.0
C504 C 0.38506 0.75902 0.18897 0.0
C505 C 0.4063 0.82675 0.21696 0.0
C506 C 0.377 0.77041 0.16165 0.0
C507 C 0.39127 0.76928 0.13315 0.0
C508 C 0.41392 0.75669 0.13141 0.0
C509 C 0.42125 0.74449 0.1588 0.0
C510 C 0.40683 0.74554 0.1873 0.0
H511 H 0.41648 0.84875 0.2332 0.0
H512 H 0.428 0.82489 0.20729 0.0
H513 H 0.39355 0.83185 0.19733 0.0
H514 H 0.35987 0.78048 0.16243 0.0
H515 H 0.38488 0.77875 0.11258 0.0
loop_
_geom_bond_atom_site_label_1
_geom_bond_atom_site_label_2
_geom_bond_distance
_geom_bond_site_symmetry_2
_ccdc_geom_bond_type
Mg0 O1 2.028 . S
Mg0 O7 1.986 . S
Mg0 O9 2.114 . S
Mg0 O10 2.251 . S
Mg0 O13 2.010 . S
O1 Mg0 2.028 . S
O1 C4 1.250 . S
O2 Mg3 2.028 . S
O2 C4 1.248 . S
Mg3 O2 2.028 . S
Mg3 O8 2.032 . S
Mg3 O10 2.079 . S
C4 O1 1.250 . S
C4 O2 1.248 . S
C5 O6 1.264 . S
C5 O13 1.249 . S
O6 C5 1.264 . S
O7 Mg0 1.986 . S
O7 C11 1.246 . S
O8 Mg3 2.032 . S
O8 C11 1.259 . S
O9 Mg0 2.114 . S
O9 C12 1.252 . S
O10 Mg0 2.251 . S
O10 Mg3 2.079 . S
O10 C12 1.273 . S
C11 O7 1.246 . S
C11 O8 1.259 . S
C12 O9 1.252 . S
C12 O10 1.273 . S
O13 Mg0 2.010 . S
O13 C5 1.249 . S
Mg14 O15 2.028 . S
Mg14 O21 1.986 . S
Mg14 O23 2.114 . S
Mg14 O24 2.251 . S
Mg14 O27 2.010 . S
O15 Mg14 2.028 . S
O15 C18 1.250 . S
O16 Mg17 2.028 . S
O16 C18 1.248 . S
Mg17 O16 2.028 . S
Mg17 O22 2.032 . S
Mg17 O24 2.079 . S
C18 O15 1.250 . S
C18 O16 1.248 . S
C19 O20 1.264 . S
C19 O27 1.249 . S
O20 C19 1.264 . S
O21 Mg14 1.986 . S
O21 C25 1.246 . S
O22 Mg17 2.032 . S
O22 C25 1.259 . S
O23 Mg14 2.114 . S
O23 C26 1.252 . S
O24 Mg14 2.251 . S
O24 Mg17 2.079 . S
O24 C26 1.273 . S
C25 O21 1.246 . S
C25 O22 1.259 . S
C26 O23 1.252 . S
C26 O24 1.273 . S
O27 Mg14 2.010 . S
O27 C19 1.249 . S
Mg28 O29 2.028 . S
Mg28 O35 1.986 . S
Mg28 O37 2.114 . S
Mg28 O38 2.251 . S
Mg28 O41 2.010 . S
O29 Mg28 2.028 . S
O29 C32 1.250 . S
O30 Mg31 2.028 . S
O30 C32 1.248 . S
Mg31 O30 2.028 . S
Mg31 O36 2.032 . S
Mg31 O38 2.079 . S
C32 O29 1.250 . S
C32 O30 1.248 . S
C33 O34 1.264 . S
C33 O41 1.249 . S
O34 C33 1.264 . S
O35 Mg28 1.986 . S
O35 C39 1.246 . S
O36 Mg31 2.032 . S
O36 C39 1.259 . S
O37 Mg28 2.114 . S
O37 C40 1.252 . S
O38 Mg28 2.251 . S
O38 Mg31 2.079 . S
O38 C40 1.273 . S
C39 O35 1.246 . S
C39 O36 1.259 . S
C40 O37 1.252 . S
C40 O38 1.273 . S
O41 Mg28 2.010 . S
O41 C33 1.249 . S
Mg42 O43 2.028 . S
Mg42 O49 1.986 . S
Mg42 O51 2.114 . S
Mg42 O52 2.251 . S
Mg42 O55 2.010 . S
O43 Mg42 2.028 . S
O43 C46 1.250 . S
O44 Mg45 2.028 . S
O44 C46 1.248 . S
Mg45 O44 2.028 . S
Mg45 O50 2.032 . S
Mg45 O52 2.079 . S
C46 O43 1.250 . S
C46 O44 1.248 . S
C47 O48 1.264 . S
C47 O55 1.249 . S
O48 C47 1.264 . S
O49 Mg42 1.986 . S
O49 C53 1.246 . S
O50 Mg45 2.032 . S
O50 C53 1.259 . S
O51 Mg42 2.114 . S
O51 C54 1.252 . S
O52 Mg42 2.251 . S
O52 Mg45 2.079 . S
O52 C54 1.273 . S
C53 O49 1.246 . S
C53 O50 1.259 . S
C54 O51 1.252 . S
C54 O52 1.273 . S
O55 Mg42 2.010 . S
O55 C47 1.249 . S
Mg56 O57 2.028 . S
Mg56 O63 1.986 . S
Mg56 O65 2.114 . S
Mg56 O66 2.251 . S
Mg56 O69 2.010 . S
O57 Mg56 2.028 . S
O57 C60 1.250 . S
O58 Mg59 2.028 . S
O58 C60 1.248 . S
Mg59 O58 2.028 . S
Mg59 O64 2.032 . S
Mg59 O66 2.079 . S
C60 O57 1.250 . S
C60 O58 1.248 . S
C61 O62 1.264 . S
C61 O69 1.249 . S
O62 C61 1.264 . S
O63 Mg56 1.986 . S
O63 C67 1.246 . S
O64 Mg59 2.032 . S
O64 C67 1.259 . S
O65 Mg56 2.114 . S
O65 C68 1.252 . S
O66 Mg56 2.251 . S
O66 Mg59 2.079 . S
O66 C68 1.273 . S
C67 O63 1.246 . S
C67 O64 1.259 . S
C68 O65 1.252 . S
C68 O66 1.273 . S
O69 Mg56 2.010 . S
O69 C61 1.249 . S
Mg70 O71 2.028 . S
Mg70 O77 1.986 . S
Mg70 O79 2.114 . S
Mg70 O80 2.251 . S
Mg70 O83 2.010 . S
O71 Mg70 2.028 . S
O71 C74 1.250 . S
O72 Mg73 2.028 . S
O72 C74 1.248 . S
Mg73 O72 2.028 . S
Mg73 O78 2.032 . S
Mg73 O80 2.079 . S
C74 O71 1.250 . S
C74 O72 1.248 . S
C75 O76 1.264 . S
C75 O83 1.249 . S
O76 C75 1.264 . S
O77 Mg70 1.986 . S
O77 C81 1.246 . S
O78 Mg73 2.032 . S
O78 C81 1.259 . S
O79 Mg70 2.114 . S
O79 C82 1.252 . S
O80 Mg70 2.251 . S
O80 Mg73 2.079 . S
O80 C82 1.273 . S
C81 O77 1.246 . S
C81 O78 1.259 . S
C82 O79 1.252 . S
C82 O80 1.273 . S
O83 Mg70 2.010 . S
O83 C75 1.249 . S
H84 C92 0.929 . S
H85 C94 0.930 . S
H86 C96 0.930 . S
H87 C99 0.929 . S
H88 C102 0.930 . S
H89 C104 0.960 . S
H90 C104 0.960 . S
H91 C104 0.960 . S
C92 H84 0.929 . S
C92 C93 1.377 . S
C92 C94 1.384 . S
C93 C92 1.377 . S
C93 C99 1.390 . S
C94 H85 0.930 . S
C94 C92 1.384 . S
C94 C95 1.372 . S
C95 C94 1.372 . S
C95 C96 1.400 . S
C95 C100 1.490 . S
C96 H86 0.930 . S
C96 C95 1.400 . S
C96 C99 1.386 . S
H97 C113 0.930 . S
H98 C114 0.931 . S
C99 H87 0.929 . S
C99 C93 1.390 . S
C99 C96 1.386 . S
C100 C95 1.490 . S
C100 C102 1.395 . S
C100 C103 1.403 . S
H101 C107 0.930 . S
C102 H88 0.930 . S
C102 C100 1.395 . S
C102 C105 1.403 1_545 S
C103 C100 1.403 . S
C103 C104 1.524 . S
C103 C107 1.400 1_545 S
C104 H89 0.960 . S
C104 H90 0.960 . S
C104 H91 0.960 . S
C104 C103 1.524 . S
C105 C102 1.403 1_565 S
C105 C106 1.392 . S
C105 C109 1.495 . S
C106 C105 1.392 . S
C106 C107 1.385 . S
C106 C108 1.478 . S
C107 H101 0.930 . S
C107 C103 1.400 1_565 S
C107 C106 1.385 . S
C108 C106 1.478 . S
C108 C110 1.381 . S
C108 C114 1.383 . S
C109 C105 1.495 . S
C109 H115 0.959 . S
C109 H116 0.961 . S
C109 H117 0.960 . S
C110 C108 1.381 . S
C110 C111 1.394 . S
C110 H118 0.930 . S
C111 C110 1.394 . S
C111 C112 1.383 . S
C111 H119 0.929 . S
C112 C111 1.383 . S
C112 C113 1.377 . S
C113 H97 0.930 . S
C113 C112 1.377 . S
C113 C114 1.379 . S
C114 H98 0.931 . S
C114 C108 1.383 . S
C114 C113 1.379 . S
H115 C109 0.959 . S
H116 C109 0.961 . S
H117 C109 0.960 . S
H118 C110 0.930 . S
H119 C111 0.929 . S
H120 C128 0.929 . S
H121 C130 0.930 . S
H122 C132 0.930 . S
H123 C135 0.929 . S
H124 C138 0.930 . S
H125 C140 0.960 . S
H126 C140 0.960 . S
H127 C140 0.960 . S
C128 H120 0.929 . S
C128 C129 1.377 . S
C128 C130 1.384 . S
C129 C128 1.377 . S
C129 C135 1.390 . S
C130 H121 0.930 . S
C130 C128 1.384 . S
C130 C131 1.372 . S
C131 C130 1.372 . S
C131 C132 1.400 . S
C131 C136 1.490 . S
C132 H122 0.930 . S
C132 C131 1.400 . S
C132 C135 1.386 . S
H133 C149 0.930 . S
H134 C150 0.931 . S
C135 H123 0.929 . S
C135 C129 1.390 . S
C135 C132 1.386 . S
C136 C131 1.490 . S
C136 C138 1.395 . S
C136 C139 1.403 . S
H137 C143 0.930 . S
C138 H124 0.930 . S
C138 C136 1.395 . S
C138 C141 1.403 . S
C139 C136 1.403 . S
C139 C140 1.524 . S
C139 C143 1.400 . S
C140 H125 0.960 . S
C140 H126 0.960 . S
C140 H127 0.960 . S
C140 C139 1.524 . S
C141 C138 1.403 . S
C141 C142 1.392 . S
C141 C145 1.495 . S
C142 C141 1.392 . S
C142 C143 1.385 . S
C142 C144 1.478 . S
C143 H137 0.930 . S
C143 C139 1.400 . S
C143 C142 1.385 . S
C144 C142 1.478 . S
C144 C146 1.381 . S
C144 C150 1.383 . S
C145 C141 1.495 . S
C145 H151 0.959 . S
C145 H152 0.961 . S
C145 H153 0.960 . S
C146 C144 1.381 . S
C146 C147 1.394 . S
C146 H154 0.930 . S
C147 C146 1.394 . S
C147 C148 1.383 . S
C147 H155 0.929 . S
C148 C147 1.383 . S
C148 C149 1.377 . S
C149 H133 0.930 . S
C149 C148 1.377 . S
C149 C150 1.379 . S
C150 H134 0.931 . S
C150 C144 1.383 . S
C150 C149 1.379 . S
H151 C145 0.959 . S
H152 C145 0.961 . S
H153 C145 0.960 . S
H154 C146 0.930 . S
H155 C147 0.929 . S
H156 C164 0.929 . S
H157 C166 0.930 . S
H158 C168 0.930 . S
H159 C171 0.929 . S
H160 C174 0.930 . S
H161 C176 0.960 . S
H162 C176 0.960 . S
H163 C176 0.960 . S
C164 H156 0.929 . S
C164 C165 1.377 . S
C164 C166 1.384 . S
C165 C164 1.377 . S
C165 C171 1.390 . S
C166 H157 0.930 . S
C166 C164 1.384 . S
C166 C167 1.372 . S
C167 C166 1.372 . S
C167 C168 1.400 . S
C167 C172 1.490 . S
C168 H158 0.930 . S
C168 C167 1.400 . S
C168 C171 1.386 . S
H169 C185 0.930 . S
H170 C186 0.931 . S
C171 H159 0.929 . S
C171 C165 1.390 . S
C171 C168 1.386 . S
C172 C167 1.490 . S
C172 C174 1.395 . S
C172 C175 1.403 . S
H173 C179 0.930 . S
C174 H160 0.930 . S
C174 C172 1.395 . S
C174 C177 1.403 1_655 S
C175 C172 1.403 . S
C175 C176 1.524 . S
C175 C179 1.400 1_655 S
C176 H161 0.960 . S
C176 H162 0.960 . S
C176 H163 0.960 . S
C176 C175 1.524 . S
C177 C174 1.403 1_455 S
C177 C178 1.392 . S
C177 C181 1.495 . S
C178 C177 1.392 . S
C178 C179 1.385 . S
C178 C180 1.478 . S
C179 H173 0.930 . S
C179 C175 1.400 1_455 S
C179 C178 1.385 . S
C180 C178 1.478 . S
C180 C182 1.381 . S
C180 C186 1.383 . S
C181 C177 1.495 . S
C181 H187 0.959 . S
C181 H188 0.961 . S
C181 H189 0.960 . S
C182 C180 1.381 . S
C182 C183 1.394 . S
C182 H190 0.930 . S
C183 C182 1.394 . S
C183 C184 1.383 . S
C183 H191 0.929 . S
C184 C183 1.383 . S
C184 C185 1.377 . S
C185 H169 0.930 . S
C185 C184 1.377 . S
C185 C186 1.379 . S
C186 H170 0.931 . S
C186 C180 1.383 . S
C186 C185 1.379 . S
H187 C181 0.959 . S
H188 C181 0.961 . S
H189 C181 0.960 . S
H190 C182 0.930 . S
H191 C183 0.929 . S
H192 C200 0.929 . S
H193 C202 0.930 . S
H194 C204 0.930 1_556 S
H195 C207 0.929 . S
H196 C210 0.930 . S
H197 C212 0.947 1_556 S
H198 C212 0.960 . S
H199 C212 0.960 1_556 S
C200 H192 0.929 . S
C200 C201 1.377 . S
C200 C202 1.384 . S
C201 C200 1.377 . S
C201 C207 1.390 . S
C202 H193 0.930 . S
C202 C200 1.384 . S
C202 C203 1.372 . S
C203 C202 1.372 . S
C203 C204 1.400 . S
C203 C208 1.490 . S
C204 H194 0.930 1_554 S
C204 C203 1.400 . S
C204 C207 1.386 . S
H205 C221 0.930 . S
H206 C222 0.931 . S
C207 H195 0.929 . S
C207 C201 1.390 . S
C207 C204 1.386 . S
C208 C203 1.490 . S
C208 C210 1.395 . S
C208 C211 1.403 . S
H209 C215 0.930 . S
C210 H196 0.930 . S
C210 C208 1.395 . S
C210 C213 1.403 1_564 S
C211 C208 1.403 . S
C211 C212 1.524 . S
C211 C215 1.400 1_564 S
C212 H197 0.947 1_554 S
C212 H198 0.960 . S
C212 H199 0.960 1_554 S
C212 C211 1.524 . S
C213 C210 1.403 1_546 S
C213 C214 1.392 . S
C213 C217 1.495 . S
C214 C213 1.392 . S
C214 C215 1.385 . S
C214 C216 1.478 . S
C215 H209 0.930 . S
C215 C211 1.400 1_546 S
C215 C214 1.385 . S
C216 C214 1.478 . S
C216 C218 1.381 . S
C216 C222 1.383 . S
C217 C213 1.495 . S
C217 H223 0.959 1_556 S
C217 H224 0.961 . S
C217 H225 0.960 1_556 S
C218 C216 1.381 . S
C218 C219 1.394 . S
C218 H226 0.930 1_556 S
C219 C218 1.394 . S
C219 C220 1.383 . S
C219 H227 0.929 . S
C220 C219 1.383 . S
C220 C221 1.377 . S
C221 H205 0.930 . S
C221 C220 1.377 . S
C221 C222 1.379 . S
C222 H206 0.931 . S
C222 C216 1.383 . S
C222 C221 1.379 . S
H223 C217 0.959 1_554 S
H224 C217 0.961 . S
H225 C217 0.960 1_554 S
H226 C218 0.930 1_554 S
H227 C219 0.929 . S
H228 C236 0.929 . S
H229 C238 0.930 . S
H230 C240 0.930 . S
H231 C243 0.929 . S
H232 C246 0.930 . S
H233 C248 0.960 . S
H234 C248 0.960 . S
H235 C248 0.960 . S
C236 H228 0.929 . S
C236 C237 1.377 . S
C236 C238 1.384 . S
C237 C236 1.377 . S
C237 C243 1.390 . S
C238 H229 0.930 . S
C238 C236 1.384 . S
C238 C239 1.372 . S
C239 C238 1.372 . S
C239 C240 1.400 . S
C239 C244 1.490 . S
C240 H230 0.930 . S
C240 C239 1.400 . S
C240 C243 1.386 . S
H241 C257 0.930 . S
H242 C258 0.931 . S
C243 H231 0.929 . S
C243 C237 1.390 . S
C243 C240 1.386 . S
C244 C239 1.490 . S
C244 C246 1.395 . S
C244 C247 1.403 . S
H245 C251 0.930 . S
C246 H232 0.930 . S
C246 C244 1.395 . S
C246 C249 1.403 . S
C247 C244 1.403 . S
C247 C248 1.524 . S
C247 C251 1.400 . S
C248 H233 0.960 . S
C248 H234 0.960 . S
C248 H235 0.960 . S
C248 C247 1.524 . S
C249 C246 1.403 . S
C249 C250 1.392 . S
C249 C253 1.495 . S
C250 C249 1.392 . S
C250 C251 1.385 . S
C250 C252 1.478 . S
C251 H245 0.930 . S
C251 C247 1.400 . S
C251 C250 1.385 . S
C252 C250 1.478 . S
C252 C254 1.381 . S
C252 C258 1.383 . S
C253 C249 1.495 . S
C253 H259 0.959 . S
C253 H260 0.961 . S
C253 H261 0.960 . S
C254 C252 1.381 . S
C254 C255 1.394 . S
C254 H262 0.930 . S
C255 C254 1.394 . S
C255 C256 1.383 . S
C255 H263 0.929 . S
C256 C255 1.383 . S
C256 C257 1.377 . S
C257 H241 0.930 . S
C257 C256 1.377 . S
C257 C258 1.379 . S
C258 H242 0.931 . S
C258 C252 1.383 . S
C258 C257 1.379 . S
H259 C253 0.959 . S
H260 C253 0.961 . S
H261 C253 0.960 . S
H262 C254 0.930 . S
H263 C255 0.929 . S
H264 C272 0.929 . S
H265 C274 0.930 . S
H266 C276 0.930 . S
H267 C279 0.929 . S
H268 C282 0.930 . S
H269 C284 0.960 . S
H270 C284 0.960 . S
H271 C284 0.960 . S
C272 H264 0.929 . S
C272 C273 1.377 . S
C272 C274 1.384 . S
C273 C272 1.377 . S
C273 C279 1.390 . S
C274 H265 0.930 . S
C274 C272 1.384 . S
C274 C275 1.372 . S
C275 C274 1.372 . S
C275 C276 1.400 . S
C275 C280 1.490 . S
C276 H266 0.930 . S
C276 C275 1.400 . S
C276 C279 1.386 . S
H277 C293 0.930 . S
H278 C294 0.931 . S
C279 H267 0.929 . S
C279 C273 1.390 . S
C279 C276 1.386 . S
C280 C275 1.490 . S
C280 C282 1.395 . S
C280 C283 1.403 . S
H281 C287 0.930 . S
C282 H268 0.930 . S
C282 C280 1.395 . S
C282 C285 1.403 1_455 S
C283 C280 1.403 . S
C283 C284 1.524 . S
C283 C287 1.400 1_455 S
C284 H269 0.960 . S
C284 H270 0.960 . S
C284 H271 0.960 . S
C284 C283 1.524 . S
C285 C282 1.403 1_655 S
C285 C286 1.392 . S
C285 C289 1.495 . S
C286 C285 1.392 . S
C286 C287 1.385 . S
C286 C288 1.478 . S
C287 H281 0.930 . S
C287 C283 1.400 1_655 S
C287 C286 1.385 . S
C288 C286 1.478 . S
C288 C290 1.381 . S
C288 C294 1.383 . S
C289 C285 1.495 . S
C289 H295 0.968 . S
C289 H296 0.961 . S
C289 H297 0.960 . S
C290 C288 1.381 . S
C290 C291 1.394 . S
C290 H298 0.930 . S
C291 C290 1.394 . S
C291 C292 1.383 . S
C291 H299 0.929 . S
C292 C291 1.383 . S
C292 C293 1.377 . S
C293 H277 0.930 . S
C293 C292 1.377 . S
C293 C294 1.379 . S
C294 H278 0.931 . S
C294 C288 1.383 . S
C294 C293 1.379 . S
H295 C289 0.968 . S
H296 C289 0.961 . S
H297 C289 0.960 . S
H298 C290 0.930 . S
H299 C291 0.929 . S
H300 C308 0.929 . S
H301 C310 0.930 . S
H302 C312 0.930 . S
H303 C315 0.929 . S
H304 C318 0.930 . S
H305 C320 0.960 . S
H306 C320 0.960 . S
H307 C320 0.960 . S
C308 H300 0.929 . S
C308 C309 1.377 . S
C308 C310 1.384 . S
C309 C308 1.377 . S
C309 C315 1.390 . S
C310 H301 0.930 . S
C310 C308 1.384 . S
C310 C311 1.372 . S
C311 C310 1.372 . S
C311 C312 1.400 . S
C311 C316 1.490 . S
C312 H302 0.930 . S
C312 C311 1.400 . S
C312 C315 1.386 . S
H313 C329 0.930 . S
H314 C330 0.931 . S
C315 H303 0.929 . S
C315 C309 1.390 . S
C315 C312 1.386 . S
C316 C311 1.490 . S
C316 C318 1.395 . S
C316 C319 1.403 . S
H317 C323 0.930 . S
C318 H304 0.930 . S
C318 C316 1.395 . S
C318 C321 1.403 . S
C319 C316 1.403 . S
C319 C320 1.524 . S
C319 C323 1.400 . S
C320 H305 0.960 . S
C320 H306 0.960 . S
C320 H307 0.960 . S
C320 C319 1.524 . S
C321 C318 1.403 . S
C321 C322 1.392 . S
C321 C325 1.495 . S
C322 C321 1.392 . S
C322 C323 1.385 . S
C322 C324 1.478 . S
C323 H317 0.930 . S
C323 C319 1.400 . S
C323 C322 1.385 . S
C324 C322 1.478 . S
C324 C326 1.381 . S
C324 C330 1.383 . S
C325 C321 1.495 . S
C325 H331 0.959 . S
C325 H332 0.961 . S
C325 H333 0.960 . S
C326 C324 1.381 . S
C326 C327 1.394 . S
C326 H334 0.930 . S
C327 C326 1.394 . S
C327 C328 1.383 . S
C327 H335 0.929 . S
C328 C327 1.383 . S
C328 C329 1.377 . S
C329 H313 0.930 . S
C329 C328 1.377 . S
C329 C330 1.379 . S
C330 H314 0.931 . S
C330 C324 1.383 . S
C330 C329 1.379 . S
H331 C325 0.959 . S
H332 C325 0.961 . S
H333 C325 0.960 . S
H334 C326 0.930 . S
H335 C327 0.929 . S
H336 C344 0.929 . S
H337 C346 0.930 . S
H338 C348 0.930 . S
H339 C351 0.929 . S
H340 C354 0.930 . S
H341 C356 0.960 . S
H342 C356 0.960 . S
H343 C356 0.960 . S
C344 H336 0.929 . S
C344 C345 1.377 . S
C344 C346 1.384 . S
C345 C344 1.377 . S
C345 C351 1.390 . S
C346 H337 0.930 . S
C346 C344 1.384 . S
C346 C347 1.372 . S
C347 C346 1.372 . S
C347 C348 1.400 . S
C347 C352 1.490 . S
C348 H338 0.930 . S
C348 C347 1.400 . S
C348 C351 1.386 . S
H349 C365 0.930 . S
H350 C366 0.931 . S
C351 H339 0.929 . S
C351 C345 1.390 . S
C351 C348 1.386 . S
C352 C347 1.490 . S
C352 C354 1.395 . S
C352 C355 1.403 . S
H353 C359 0.930 . S
C354 H340 0.930 . S
C354 C352 1.395 . S
C354 C357 1.403 . S
C355 C352 1.403 . S
C355 C356 1.524 . S
C355 C359 1.400 . S
C356 H341 0.960 . S
C356 H342 0.960 . S
C356 H343 0.960 . S
C356 C355 1.524 . S
C357 C354 1.403 . S
C357 C358 1.392 . S
C357 C361 1.495 . S
C358 C357 1.392 . S
C358 C359 1.385 . S
C358 C360 1.478 . S
C359 H353 0.930 . S
C359 C355 1.400 . S
C359 C358 1.385 . S
C360 C358 1.478 . S
C360 C362 1.381 . S
C360 C366 1.383 . S
C361 C357 1.495 . S
C361 H367 0.959 . S
C361 H368 0.961 . S
C361 H369 0.960 . S
C362 C360 1.381 . S
C362 C363 1.394 . S
C362 H370 0.930 . S
C363 C362 1.394 . S
C363 C364 1.383 . S
C363 H371 0.929 . S
C364 C363 1.383 . S
C364 C365 1.377 . S
C365 H349 0.930 . S
C365 C364 1.377 . S
C365 C366 1.379 . S
C366 H350 0.931 . S
C366 C360 1.383 . S
C366 C365 1.379 . S
H367 C361 0.959 . S
H368 C361 0.961 . S
H369 C361 0.960 . S
H370 C362 0.930 . S
H371 C363 0.929 . S
H372 C380 0.929 . S
H373 C382 0.930 . S
H374 C384 0.930 . S
H375 C387 0.929 . S
H376 C390 0.930 . S
H377 C392 0.960 . S
H378 C392 0.960 . S
H379 C392 0.960 . S
C380 H372 0.929 . S
C380 C381 1.377 . S
C380 C382 1.384 . S
C381 C380 1.377 . S
C381 C387 1.390 . S
C382 H373 0.930 . S
C382 C380 1.384 . S
C382 C383 1.372 . S
C383 C382 1.372 . S
C383 C384 1.400 . S
C383 C388 1.490 . S
C384 H374 0.930 . S
C384 C383 1.400 . S
C384 C387 1.386 . S
H385 C401 0.930 . S
H386 C402 0.931 . S
C387 H375 0.929 . S
C387 C381 1.390 . S
C387 C384 1.386 . S
C388 C383 1.490 . S
C388 C390 1.395 . S
C388 C391 1.403 . S
H389 C395 0.930 . S
C390 H376 0.930 . S
C390 C388 1.395 . S
C390 C393 1.403 . S
C391 C388 1.403 . S
C391 C392 1.524 . S
C391 C395 1.400 . S
C392 H377 0.960 . S
C392 H378 0.960 . S
C392 H379 0.960 . S
C392 C391 1.524 . S
C393 C390 1.403 . S
C393 C394 1.392 . S
C393 C397 1.495 . S
C394 C393 1.392 . S
C394 C395 1.385 . S
C394 C396 1.478 . S
C395 H389 0.930 . S
C395 C391 1.400 . S
C395 C394 1.385 . S
C396 C394 1.478 . S
C396 C398 1.381 . S
C396 C402 1.383 . S
C397 C393 1.495 . S
C397 H403 0.959 . S
C397 H404 0.961 . S
C397 H405 0.960 . S
C398 C396 1.381 . S
C398 C399 1.394 . S
C398 H406 0.930 . S
C399 C398 1.394 . S
C399 C400 1.383 . S
C399 H407 0.929 . S
C400 C399 1.383 . S
C400 C401 1.377 . S
C401 H385 0.930 . S
C401 C400 1.377 . S
C401 C402 1.379 . S
C402 H386 0.931 . S
C402 C396 1.383 . S
C402 C401 1.379 . S
H403 C397 0.959 . S
H404 C397 0.961 . S
H405 C397 0.960 . S
H406 C398 0.930 . S
H407 C399 0.929 . S
H408 C416 0.929 . S
H409 C418 0.930 . S
H410 C420 0.930 . S
H411 C423 0.929 . S
H412 C426 0.930 . S
H413 C428 0.960 . S
H414 C428 0.960 . S
H415 C428 0.960 . S
C416 H408 0.929 . S
C416 C417 1.377 . S
C416 C418 1.384 . S
C417 C416 1.377 . S
C417 C423 1.390 . S
C418 H409 0.930 . S
C418 C416 1.384 . S
C418 C419 1.372 . S
C419 C418 1.372 . S
C419 C420 1.400 . S
C419 C424 1.490 . S
C420 H410 0.930 . S
C420 C419 1.400 . S
C420 C423 1.386 . S
H421 C437 0.930 . S
H422 C438 0.931 . S
C423 H411 0.929 . S
C423 C417 1.390 . S
C423 C420 1.386 . S
C424 C419 1.490 . S
C424 C426 1.395 . S
C424 C427 1.403 . S
H425 C431 0.930 . S
C426 H412 0.930 . S
C426 C424 1.395 . S
C426 C429 1.403 . S
C427 C424 1.403 . S
C427 C428 1.524 . S
C427 C431 1.400 . S
C428 H413 0.960 . S
C428 H414 0.960 . S
C428 H415 0.960 . S
C428 C427 1.524 . S
C429 C426 1.403 . S
C429 C430 1.392 . S
C429 C433 1.495 . S
C430 C429 1.392 . S
C430 C431 1.385 . S
C430 C432 1.478 . S
C431 H425 0.930 . S
C431 C427 1.400 . S
C431 C430 1.385 . S
C432 C430 1.478 . S
C432 C434 1.381 . S
C432 C438 1.383 . S
C433 C429 1.495 . S
C433 H439 0.959 . S
C433 H440 0.961 . S
C433 H441 0.960 . S
C434 C432 1.381 . S
C434 C435 1.394 . S
C434 H442 0.930 . S
C435 C434 1.394 . S
C435 C436 1.383 1_556 S
C435 H443 0.929 . S
C436 C435 1.383 1_554 S
C436 C437 1.377 . S
C437 H421 0.930 . S
C437 C436 1.377 . S
C437 C438 1.379 1_554 S
C438 H422 0.931 . S
C438 C432 1.383 . S
C438 C437 1.379 1_556 S
H439 C433 0.959 . S
H440 C433 0.961 . S
H441 C433 0.960 . S
H442 C434 0.930 . S
H443 C435 0.929 . S
H444 C452 0.929 . S
H445 C454 0.930 . S
H446 C456 0.933 . S
H447 C459 0.929 . S
H448 C462 0.930 . S
H449 C464 0.960 . S
H450 C464 0.960 . S
H451 C464 0.960 . S
C452 H444 0.929 . S
C452 C453 1.377 1_554 S
C452 C454 1.384 . S
C453 C452 1.377 1_556 S
C453 C459 1.390 . S
C454 H445 0.930 . S
C454 C452 1.384 . S
C454 C455 1.372 . S
C455 C454 1.372 . S
C455 C456 1.400 . S
C455 C460 1.490 . S
C456 H446 0.933 . S
C456 C455 1.400 . S
C456 C459 1.386 1_554 S
H457 C473 0.930 . S
H458 C474 0.931 . S
C459 H447 0.929 . S
C459 C453 1.390 . S
C459 C456 1.386 1_556 S
C460 C455 1.490 . S
C460 C462 1.395 . S
C460 C463 1.403 . S
H461 C467 0.930 . S
C462 H448 0.930 . S
C462 C460 1.395 . S
C462 C465 1.403 . S
C463 C460 1.403 . S
C463 C464 1.524 . S
C463 C467 1.400 . S
C464 H449 0.960 . S
C464 H450 0.960 . S
C464 H451 0.960 . S
C464 C463 1.524 . S
C465 C462 1.403 . S
C465 C466 1.392 . S
C465 C469 1.495 . S
C466 C465 1.392 . S
C466 C467 1.385 . S
C466 C468 1.478 . S
C467 H461 0.930 . S
C467 C463 1.400 . S
C467 C466 1.385 . S
C468 C466 1.478 . S
C468 C470 1.381 . S
C468 C474 1.383 . S
C469 C465 1.495 . S
C469 H475 0.959 . S
C469 H476 0.961 . S
C469 H477 0.960 . S
C470 C468 1.381 . S
C470 C471 1.394 . S
C470 H478 0.930 . S
C471 C470 1.394 . S
C471 C472 1.383 . S
C471 H479 0.929 . S
C472 C471 1.383 . S
C472 C473 1.377 . S
C473 H457 0.930 . S
C473 C472 1.377 . S
C473 C474 1.379 . S
C474 H458 0.931 . S
C474 C468 1.383 . S
C474 C473 1.379 . S
H475 C469 0.959 . S
H476 C469 0.961 . S
H477 C469 0.960 . S
H478 C470 0.930 . S
H479 C471 0.929 . S
H480 C488 0.929 . S
H481 C490 0.930 . S
H482 C492 0.930 . S
H483 C495 0.929 . S
H484 C498 0.930 . S
H485 C500 0.960 . S
H486 C500 0.960 . S
H487 C500 0.960 . S
C488 H480 0.929 . S
C488 C489 1.377 . S
C488 C490 1.384 . S
C489 C488 1.377 . S
C489 C495 1.390 . S
C490 H481 0.930 . S
C490 C488 1.384 . S
C490 C491 1.372 . S
C491 C490 1.372 . S
C491 C492 1.400 . S
C491 C496 1.490 . S
C492 H482 0.930 . S
C492 C491 1.400 . S
C492 C495 1.386 . S
H493 C509 0.930 . S
H494 C510 0.931 . S
C495 H483 0.929 . S
C495 C489 1.390 . S
C495 C492 1.386 . S
C496 C491 1.490 . S
C496 C498 1.395 . S
C496 C499 1.403 . S
H497 C503 0.930 . S
C498 H484 0.930 . S
C498 C496 1.395 . S
C498 C501 1.403 . S
C499 C496 1.403 . S
C499 C500 1.524 . S
C499 C503 1.400 . S
C500 H485 0.960 . S
C500 H486 0.960 . S
C500 H487 0.960 . S
C500 C499 1.524 . S
C501 C498 1.403 . S
C501 C502 1.392 . S
C501 C505 1.495 . S
C502 C501 1.392 . S
C502 C503 1.385 . S
C502 C504 1.478 . S
C503 H497 0.930 . S
C503 C499 1.400 . S
C503 C502 1.385 . S
C504 C502 1.478 . S
C504 C506 1.381 . S
C504 C510 1.383 . S
C505 C501 1.495 . S
C505 H511 0.959 . S
C505 H512 0.961 . S
C505 H513 0.960 . S
C506 C504 1.381 . S
C506 C507 1.394 . S
C506 H514 0.930 . S
C507 C506 1.394 . S
C507 C508 1.383 . S
C507 H515 0.929 . S
C508 C507 1.383 . S
C508 C509 1.377 . S
C509 H493 0.930 . S
C509 C508 1.377 . S
C509 C510 1.379 . S
C510 H494 0.931 . S
C510 C504 1.383 . S
C510 C509 1.379 . S
H511 C505 0.959 . S
H512 C505 0.961 . S
H513 C505 0.960 . S
H514 C506 0.930 . S
H515 C507 0.929 . S
C93 C12 1.422 . S
C112 C82 1.414 . S
C129 C5 1.142 . S
C148 C26 1.376 . S
C165 C33 1.128 . S
C184 C19 1.182 . S
C201 C54 1.423 . S
C220 C40 1.420 . S
C237 C68 1.374 . S
C256 C47 1.210 . S
C273 C75 1.106 . S
C292 C61 1.089 . S
C309 C11 1.560 . S
C328 C60 1.511 . S
C345 C81 1.380 . S
C364 C25 1.388 . S
C381 C32 1.708 . S
C400 C4 1.702 . S
C417 C18 1.534 . S
C436 C53 1.550 . S
C453 C39 1.380 . S
C472 C67 1.391 . S
C489 C74 1.707 . S
C508 C46 1.683 . S
