# Generated by pormake.
# Topology sxi, (6)-cn, num edge types: 1
# Building blocks:
#     Node 0, Type 0, BuildingBlock: IZENUY_clean_sbu_0, # of connection points: 6
#     Node 1, Type 0, BuildingBlock: IZENUY_clean_sbu_0, # of connection points: 6
#     Node 2, Type 0, BuildingBlock: IZENUY_clean_sbu_0, # of connection points: 6
#     Node 3, Type 0, BuildingBlock: IZENUY_clean_sbu_0, # of connection points: 6
#     Node 4, Type 0, BuildingBlock: IZENUY_clean_sbu_0, # of connection points: 6
#     Node 5, Type 0, BuildingBlock: IZENUY_clean_sbu_0, # of connection points: 6
#     Node 6, Type 0, BuildingBlock: IZENUY_clean_sbu_0, # of connection points: 6
#     Node 7, Type 0, BuildingBlock: IZENUY_clean_sbu_0, # of connection points: 6
#     Node 8, Type 0, BuildingBlock: IZENUY_clean_sbu_0, # of connection points: 6
#     Node 9, Type 0, BuildingBlock: IZENUY_clean_sbu_0, # of connection points: 6
#     Node 10, Type 0, BuildingBlock: IZENUY_clean_sbu_0, # of connection points: 6
#     Node 11, Type 0, BuildingBlock: IZENUY_clean_sbu_0, # of connection points: 6
#     Node 12, Type 0, BuildingBlock: IZENUY_clean_sbu_0, # of connection points: 6
#     Node 13, Type 0, BuildingBlock: IZENUY_clean_sbu_0, # of connection points: 6
#     Node 14, Type 0, BuildingBlock: IZENUY_clean_sbu_0, # of connection points: 6
#     Node 15, Type 0, BuildingBlock: IZENUY_clean_sbu_0, # of connection points: 6
#     Node 16, Type 0, BuildingBlock: IZENUY_clean_sbu_0, # of connection points: 6
#     Node 17, Type 0, BuildingBlock: IZENUY_clean_sbu_0, # of connection points: 6
#     Node 18, Type 0, BuildingBlock: IZENUY_clean_sbu_0, # of connection points: 6
#     Node 19, Type 0, BuildingBlock: IZENUY_clean_sbu_0, # of connection points: 6
#     Node 20, Type 0, BuildingBlock: IZENUY_clean_sbu_0, # of connection points: 6
#     Node 21, Type 0, BuildingBlock: IZENUY_clean_sbu_0, # of connection points: 6
#     Node 22, Type 0, BuildingBlock: IZENUY_clean_sbu_0, # of connection points: 6
#     Node 23, Type 0, BuildingBlock: IZENUY_clean_sbu_0, # of connection points: 6
#     Edge 24, Type (0, 0), BuildingBlock: AJUNOK_clean_linker_0, # of connection points: 2
#     Edge 25, Type (0, 0), BuildingBlock: AJUNOK_clean_linker_0, # of connection points: 2
#     Edge 26, Type (0, 0), BuildingBlock: AJUNOK_clean_linker_0, # of connection points: 2
#     Edge 27, Type (0, 0), BuildingBlock: AJUNOK_clean_linker_0, # of connection points: 2
#     Edge 28, Type (0, 0), BuildingBlock: AJUNOK_clean_linker_0, # of connection points: 2
#     Edge 29, Type (0, 0), BuildingBlock: AJUNOK_clean_linker_0, # of connection points: 2
#     Edge 30, Type (0, 0), BuildingBlock: AJUNOK_clean_linker_0, # of connection points: 2
#     Edge 31, Type (0, 0), BuildingBlock: AJUNOK_clean_linker_0, # of connection points: 2
#     Edge 32, Type (0, 0), BuildingBlock: AJUNOK_clean_linker_0, # of connection points: 2
#     Edge 33, Type (0, 0), BuildingBlock: AJUNOK_clean_linker_0, # of connection points: 2
#     Edge 34, Type (0, 0), BuildingBlock: AJUNOK_clean_linker_0, # of connection points: 2
#     Edge 35, Type (0, 0), BuildingBlock: AJUNOK_clean_linker_0, # of connection points: 2
#     Edge 36, Type (0, 0), BuildingBlock: AJUNOK_clean_linker_0, # of connection points: 2
#     Edge 37, Type (0, 0), BuildingBlock: AJUNOK_clean_linker_0, # of connection points: 2
#     Edge 38, Type (0, 0), BuildingBlock: AJUNOK_clean_linker_0, # of connection points: 2
#     Edge 39, Type (0, 0), BuildingBlock: AJUNOK_clean_linker_0, # of connection points: 2
#     Edge 40, Type (0, 0), BuildingBlock: AJUNOK_clean_linker_0, # of connection points: 2
#     Edge 41, Type (0, 0), BuildingBlock: AJUNOK_clean_linker_0, # of connection points: 2
#     Edge 42, Type (0, 0), BuildingBlock: AJUNOK_clean_linker_0, # of connection points: 2
#     Edge 43, Type (0, 0), BuildingBlock: AJUNOK_clean_linker_0, # of connection points: 2
#     Edge 44, Type (0, 0), BuildingBlock: AJUNOK_clean_linker_0, # of connection points: 2
#     Edge 45, Type (0, 0), BuildingBlock: AJUNOK_clean_linker_0, # of connection points: 2
#     Edge 46, Type (0, 0), BuildingBlock: AJUNOK_clean_linker_0, # of connection points: 2
#     Edge 47, Type (0, 0), BuildingBlock: AJUNOK_clean_linker_0, # of connection points: 2
#     Edge 48, Type (0, 0), BuildingBlock: AJUNOK_clean_linker_0, # of connection points: 2
#     Edge 49, Type (0, 0), BuildingBlock: AJUNOK_clean_linker_0, # of connection points: 2
#     Edge 50, Type (0, 0), BuildingBlock: AJUNOK_clean_linker_0, # of connection points: 2
#     Edge 51, Type (0, 0), BuildingBlock: AJUNOK_clean_linker_0, # of connection points: 2
#     Edge 52, Type (0, 0), BuildingBlock: AJUNOK_clean_linker_0, # of connection points: 2
#     Edge 53, Type (0, 0), BuildingBlock: AJUNOK_clean_linker_0, # of connection points: 2
#     Edge 54, Type (0, 0), BuildingBlock: AJUNOK_clean_linker_0, # of connection points: 2
#     Edge 55, Type (0, 0), BuildingBlock: AJUNOK_clean_linker_0, # of connection points: 2
#     Edge 56, Type (0, 0), BuildingBlock: AJUNOK_clean_linker_0, # of connection points: 2
#     Edge 57, Type (0, 0), BuildingBlock: AJUNOK_clean_linker_0, # of connection points: 2
#     Edge 58, Type (0, 0), BuildingBlock: AJUNOK_clean_linker_0, # of connection points: 2
#     Edge 59, Type (0, 0), BuildingBlock: AJUNOK_clean_linker_0, # of connection points: 2
#     Edge 60, Type (0, 0), BuildingBlock: AJUNOK_clean_linker_0, # of connection points: 2
#     Edge 61, Type (0, 0), BuildingBlock: AJUNOK_clean_linker_0, # of connection points: 2
#     Edge 62, Type (0, 0), BuildingBlock: AJUNOK_clean_linker_0, # of connection points: 2
#     Edge 63, Type (0, 0), BuildingBlock: AJUNOK_clean_linker_0, # of connection points: 2
#     Edge 64, Type (0, 0), BuildingBlock: AJUNOK_clean_linker_0, # of connection points: 2
#     Edge 65, Type (0, 0), BuildingBlock: AJUNOK_clean_linker_0, # of connection points: 2
#     Edge 66, Type (0, 0), BuildingBlock: AJUNOK_clean_linker_0, # of connection points: 2
#     Edge 67, Type (0, 0), BuildingBlock: AJUNOK_clean_linker_0, # of connection points: 2
#     Edge 68, Type (0, 0), BuildingBlock: AJUNOK_clean_linker_0, # of connection points: 2
#     Edge 69, Type (0, 0), BuildingBlock: AJUNOK_clean_linker_0, # of connection points: 2
#     Edge 70, Type (0, 0), BuildingBlock: AJUNOK_clean_linker_0, # of connection points: 2
#     Edge 71, Type (0, 0), BuildingBlock: AJUNOK_clean_linker_0, # of connection points: 2
#     Edge 72, Type (0, 0), BuildingBlock: AJUNOK_clean_linker_0, # of connection points: 2
#     Edge 73, Type (0, 0), BuildingBlock: AJUNOK_clean_linker_0, # of connection points: 2
#     Edge 74, Type (0, 0), BuildingBlock: AJUNOK_clean_linker_0, # of connection points: 2
#     Edge 75, Type (0, 0), BuildingBlock: AJUNOK_clean_linker_0, # of connection points: 2
#     Edge 76, Type (0, 0), BuildingBlock: AJUNOK_clean_linker_0, # of connection points: 2
#     Edge 77, Type (0, 0), BuildingBlock: AJUNOK_clean_linker_0, # of connection points: 2
#     Edge 78, Type (0, 0), BuildingBlock: AJUNOK_clean_linker_0, # of connection points: 2
#     Edge 79, Type (0, 0), BuildingBlock: AJUNOK_clean_linker_0, # of connection points: 2
#     Edge 80, Type (0, 0), BuildingBlock: AJUNOK_clean_linker_0, # of connection points: 2
#     Edge 81, Type (0, 0), BuildingBlock: AJUNOK_clean_linker_0, # of connection points: 2
#     Edge 82, Type (0, 0), BuildingBlock: AJUNOK_clean_linker_0, # of connection points: 2
#     Edge 83, Type (0, 0), BuildingBlock: AJUNOK_clean_linker_0, # of connection points: 2
#     Edge 84, Type (0, 0), BuildingBlock: AJUNOK_clean_linker_0, # of connection points: 2
#     Edge 85, Type (0, 0), BuildingBlock: AJUNOK_clean_linker_0, # of connection points: 2
#     Edge 86, Type (0, 0), BuildingBlock: AJUNOK_clean_linker_0, # of connection points: 2
#     Edge 87, Type (0, 0), BuildingBlock: AJUNOK_clean_linker_0, # of connection points: 2
#     Edge 88, Type (0, 0), BuildingBlock: AJUNOK_clean_linker_0, # of connection points: 2
#     Edge 89, Type (0, 0), BuildingBlock: AJUNOK_clean_linker_0, # of connection points: 2
#     Edge 90, Type (0, 0), BuildingBlock: AJUNOK_clean_linker_0, # of connection points: 2
#     Edge 91, Type (0, 0), BuildingBlock: AJUNOK_clean_linker_0, # of connection points: 2
#     Edge 92, Type (0, 0), BuildingBlock: AJUNOK_clean_linker_0, # of connection points: 2
#     Edge 93, Type (0, 0), BuildingBlock: AJUNOK_clean_linker_0, # of connection points: 2
#     Edge 94, Type (0, 0), BuildingBlock: AJUNOK_clean_linker_0, # of connection points: 2
#     Edge 95, Type (0, 0), BuildingBlock: AJUNOK_clean_linker_0, # of connection points: 2
# Relax obj value: 0.412
# Max RMSD: 0.250
# Mean RMSD: 0.250
data_MOF--net-sxi--node1-IZENUY_clean_sbu_0--edge1-AJUNOK_clean_linker_0
_symmetry_space_group_name_H-M    P1
_symmetry_Int_Tables_number       1
_symmetry_cell_setting            triclinic
loop_
_symmetry_equiv_pos_as_xyz
'x, y, z'
_cell_length_a     34.611789
_cell_length_b     34.666868
_cell_length_c     34.617987
_cell_angle_alpha  90.081388
_cell_angle_beta   90.010039
_cell_angle_gamma 90.037789
loop_
_atom_site_label
_atom_site_type_symbol
_atom_site_fract_x
_atom_site_fract_y
_atom_site_fract_z
_atom_type_partial_charge
Fe0 Fe 0.02281 0.32327 0.4341 0.0
Fe1 Fe 0.0941 0.34951 0.38729 0.0
O2 O 0.05272 0.36006 0.41536 0.0
Fe3 Fe 0.04121 0.40858 0.42584 0.0
O4 O 1.01456 0.39897 0.47114 0.0
O5 O 0.02937 0.33929 0.48368 0.0
O6 O 0.06222 0.28884 0.44311 0.0
C7 C 0.09852 0.29362 0.44443 0.0
C8 C 0.97274 0.38042 0.40476 0.0
O9 O 0.11456 0.32043 0.42569 0.0
C10 C 0.07006 0.41509 0.34932 0.0
O11 O 1.01307 0.30402 0.38714 0.0
O12 O 0.07215 0.30522 0.36358 0.0
O13 O 0.99813 0.40526 0.39783 0.0
O14 O 0.97895 0.35208 0.42719 0.0
C15 C 0.1174 0.40896 0.44034 0.0
O16 O 0.07705 0.3792 0.34617 0.0
O17 O 0.06454 0.42924 0.38264 0.0
C18 C 0.03758 0.29177 0.3636 0.0
O19 O 0.12252 0.39107 0.40823 0.0
O20 O 0.08408 0.41272 0.45424 0.0
C21 C 1.01761 0.37158 0.49501 0.0
Fe22 Fe 0.93977 0.84588 0.63157 0.0
Fe23 Fe 0.87815 0.79059 0.66224 0.0
O24 O 0.92743 0.80274 0.65611 0.0
Fe25 Fe 0.96271 0.7712 0.67525 0.0
O26 O 0.99639 0.80935 0.69011 0.0
O27 O 0.96843 0.86348 0.67203 0.0
O28 O 0.89806 0.87331 0.65399 0.0
C29 C 0.87867 0.865 0.68463 0.0
C30 C 0.99838 0.79052 0.60734 0.0
O31 O 0.8724 0.83051 0.6939 0.0
C32 C 0.90784 0.72408 0.637 0.0
O33 O 0.9113 0.83227 0.5879 0.0
O34 O 0.85979 0.81788 0.62094 0.0
O35 O 0.9858 0.7651 0.62959 0.0
O36 O 0.98441 0.82483 0.60773 0.0
C37 C 0.9099 0.7603 0.73138 0.0
O38 O 0.88317 0.74993 0.63075 0.0
O39 O 0.93454 0.72841 0.66195 0.0
C40 C 0.87543 0.82447 0.58876 0.0
O41 O 0.8847 0.76033 0.70506 0.0
O42 O 0.94291 0.77341 0.72409 0.0
C43 C 0.99345 0.84575 0.69179 0.0
Fe44 Fe 0.50876 0.7129 0.93623 0.0
Fe45 Fe 0.44058 0.68988 0.88146 0.0
O46 O 0.48055 0.6778 0.91144 0.0
Fe47 Fe 0.49303 0.62862 0.91751 0.0
O48 O 0.5187 0.63381 0.96303 0.0
O49 O 0.50289 0.69024 0.98382 0.0
O50 O 0.46869 0.74415 0.94871 0.0
C51 C 0.43277 0.74313 0.94287 0.0
C52 C 0.56179 0.66009 0.9025 0.0
O53 O 0.41802 0.72003 0.91863 0.0
C54 C 0.46484 0.62463 0.84134 0.0
O55 O 0.51885 0.7396 0.89338 0.0
O56 O 0.46534 0.733 0.85889 0.0
O57 O 0.53707 0.63594 0.89083 0.0
O58 O 0.55313 0.68693 0.92603 0.0
C59 C 0.41643 0.62764 0.93165 0.0
O60 O 0.45786 0.66051 0.83967 0.0
O61 O 0.47054 0.60968 0.87381 0.0
C62 C 0.49819 0.74908 0.8653 0.0
O63 O 0.41087 0.64862 0.90143 0.0
O64 O 0.44987 0.62126 0.94447 0.0
C65 C 0.51684 0.65744 0.99045 0.0
Fe66 Fe 0.59927 0.19474 0.13619 0.0
Fe67 Fe 0.65943 0.24455 0.17693 0.0
O68 O 0.61084 0.23572 0.1645 0.0
Fe69 Fe 0.5747 0.26744 0.18127 0.0
O70 O 0.53847 0.22929 0.18922 0.0
O71 O 0.56948 0.17565 0.17464 0.0
O72 O 0.63995 0.1649 0.15673 0.0
C73 C 0.65736 0.16849 0.18925 0.0
C74 C 0.54424 0.25281 0.11074 0.0
O75 O 0.66011 0.2011 0.20481 0.0
C76 C 0.63582 0.31429 0.15483 0.0
O77 O 0.62998 0.21127 0.09569 0.0
O78 O 0.67987 0.22119 0.13353 0.0
O79 O 0.55831 0.2773 0.13321 0.0
O80 O 0.55553 0.21763 0.11231 0.0
C81 C 0.62043 0.27081 0.24451 0.0
O82 O 0.6599 0.28791 0.14965 0.0
O83 O 0.60575 0.30975 0.17535 0.0
C84 C 0.66609 0.21712 0.09976 0.0
O85 O 0.64943 0.27108 0.22229 0.0
O86 O 0.58792 0.26128 0.23163 0.0
C87 C 0.5428 0.19306 0.19244 0.0
Fe88 Fe 0.52115 0.20985 0.60199 0.0
Fe89 Fe 0.59336 0.18562 0.64829 0.0
O90 O 0.55326 0.1739 0.61843 0.0
Fe91 Fe 0.54607 0.1256 0.60404 0.0
O92 O 0.52138 0.13635 0.55776 0.0
O93 O 0.52837 0.19851 0.55127 0.0
O94 O 0.55902 0.24682 0.596 0.0
C95 C 0.59552 0.24375 0.59382 0.0
C96 C 0.47425 0.14663 0.62385 0.0
O97 O 0.61313 0.2168 0.61109 0.0
C98 C 0.57187 0.11716 0.68227 0.0
O99 O 0.51001 0.22458 0.65052 0.0
O100 O 0.56926 0.22855 0.67227 0.0
O101 O 0.50111 0.12299 0.62915 0.0
O102 O 0.47907 0.17806 0.60569 0.0
C103 C 0.62271 0.1291 0.5955 0.0
O104 O 0.57643 0.15335 0.6876 0.0
O105 O 0.56798 0.1044 0.64799 0.0
C106 C 0.53392 0.23943 0.6732 0.0
O107 O 0.62453 0.14604 0.62827 0.0
O108 O 0.59096 0.12689 0.57812 0.0
C109 C 0.52043 0.16624 0.53679 0.0
Fe110 Fe 0.10106 0.34788 0.89988 0.0
Fe111 Fe 0.15918 0.29257 0.86261 0.0
O112 O 0.11089 0.3052 0.87326 0.0
Fe113 Fe 0.07329 0.27514 0.85645 0.0
O114 O 0.03942 0.31477 0.84681 0.0
O115 O 0.07206 0.3675 0.86073 0.0
O116 O 0.1431 0.37476 0.87832 0.0
C117 C 0.16088 0.36847 0.84644 0.0
C118 C 0.04238 0.29362 0.92595 0.0
O119 O 0.16388 0.3348 0.83331 0.0
C120 C 0.13024 0.22474 0.88561 0.0
O121 O 0.13076 0.33171 0.94147 0.0
O122 O 0.18035 0.31642 0.90518 0.0
O123 O 0.05526 0.26773 0.90433 0.0
O124 O 0.05611 0.32795 0.92413 0.0
C125 C 0.12056 0.26765 0.79471 0.0
O126 O 0.15581 0.24981 0.89131 0.0
O127 O 0.10123 0.23107 0.86411 0.0
C128 C 0.16643 0.32321 0.93834 0.0
O129 O 0.14856 0.26543 0.818 0.0
O130 O 0.0882 0.27922 0.80628 0.0
C131 C 0.04442 0.35085 0.84359 0.0
Fe132 Fe 0.99972 0.90554 0.11694 0.0
Fe133 Fe 1.01823 0.82073 0.11265 0.0
O134 O 0.98734 0.85789 0.12791 0.0
Fe135 Fe 0.9432 0.84847 0.15214 0.0
O136 O 0.91749 0.89188 0.13006 0.0
O137 O 0.95894 0.90664 0.08509 0.0
O138 O 0.02954 0.89516 0.074 0.0
C139 C 0.02825 0.86715 0.05072 0.0
C140 C 0.96617 0.9131 0.19187 0.0
O141 O 1.01624 0.83495 0.06206 0.0
C142 C 0.99678 0.79045 0.18109 0.0
O143 O 0.04063 0.90398 0.14787 0.0
O144 O 0.06156 0.84936 0.1226 0.0
O145 O 0.95768 0.87748 0.19493 0.0
O146 O 0.9739 0.92651 0.15873 0.0
C147 C 0.94327 0.79245 0.0954 0.0
O148 O 0.0235 0.80382 0.16097 0.0
O149 O 0.96208 0.80303 0.1768 0.0
C150 C 0.06584 0.87824 0.14491 0.0
O151 O 0.979 0.78666 0.10135 0.0
O152 O 0.92583 0.82024 0.11149 0.0
C153 C 0.92564 0.90995 0.09866 0.0
Fe154 Fe 0.37882 0.74157 0.35276 0.0
Fe155 Fe 0.46399 0.76287 0.3493 0.0
O156 O 0.42697 0.7326 0.36679 0.0
Fe157 Fe 0.43745 0.69268 0.39696 0.0
O158 O 0.39683 0.6624 0.37672 0.0
O159 O 0.37811 0.69685 0.32698 0.0
O160 O 0.39047 0.76528 0.30649 0.0
C161 C 0.41989 0.76324 0.28495 0.0
C162 C 0.36985 0.71721 0.43103 0.0
O163 O 0.45195 0.75382 0.29901 0.0
C164 C 0.49249 0.75172 0.42124 0.0
O165 O 0.37842 0.78676 0.37741 0.0
O166 O 0.43374 0.80576 0.35157 0.0
O167 O 0.40578 0.71097 0.43609 0.0
O168 O 0.35695 0.72068 0.39682 0.0
C169 C 0.49592 0.68812 0.34291 0.0
O170 O 0.47915 0.77523 0.39732 0.0
O171 O 0.48081 0.71653 0.421 0.0
C172 C 0.40307 0.81231 0.37043 0.0
O173 O 0.49994 0.72437 0.34486 0.0
O174 O 0.46831 0.67146 0.36007 0.0
C175 C 0.37997 0.66495 0.34384 0.0
Fe176 Fe 0.41751 0.04167 0.40791 0.0
Fe177 Fe 0.43213 0.02878 0.3215 0.0
O178 O 0.41052 0.05591 0.35927 0.0
Fe179 Fe 0.38242 0.09672 0.3474 0.0
O180 O 0.41448 0.12829 0.37679 0.0
O181 O 0.41987 0.08991 0.42727 0.0
O182 O 0.4705 0.0425 0.40317 0.0
C183 C 0.4885 0.02135 0.3794 0.0
C184 C 0.34157 0.06538 0.41345 0.0
O185 O 0.47195 1.00977 0.34939 0.0
C186 C 0.36198 0.04666 0.28759 0.0
O187 O 0.41547 0.99136 0.39637 0.0
O188 O 0.40279 0.98725 0.33397 0.0
O189 O 0.34749 0.09153 0.38826 0.0
O190 O 0.366 0.03878 0.41779 0.0
C191 C 0.44817 0.10144 0.29776 0.0
O192 O 0.39755 0.04138 0.28438 0.0
O193 O 0.34936 0.06635 0.31629 0.0
C194 C 0.40268 0.97304 0.36768 0.0
O195 O 0.46207 0.06938 0.30832 0.0
O196 O 0.41323 0.11013 0.30563 0.0
C197 C 0.42619 0.12163 0.41103 0.0
Fe198 Fe 0.26571 0.17876 0.57232 0.0
Fe199 Fe 0.19297 0.13604 0.60113 0.0
O200 O 0.23626 0.16181 0.61027 0.0
Fe201 Fe 0.25059 0.17162 0.65836 0.0
O202 O 0.27905 0.21541 0.64735 0.0
O203 O 0.26194 0.2286 0.5883 0.0
O204 O 0.22595 0.18915 0.53914 0.0
C205 C 0.19005 0.19283 0.54471 0.0
C206 C 0.31607 0.14579 0.62615 0.0
O207 O 0.17341 0.17525 0.572 0.0
C208 C 0.21707 0.09724 0.66653 0.0
O209 O 0.27242 0.13134 0.55335 0.0
O210 O 0.21227 0.11089 0.5564 0.0
O211 O 0.29223 0.14131 0.65318 0.0
O212 O 0.31013 0.16989 0.59925 0.0
C213 C 0.175 0.19011 0.66149 0.0
O214 O 0.20852 0.09429 0.63087 0.0
O215 O 0.22581 0.13002 0.6801 0.0
C216 C 0.24644 0.10895 0.54211 0.0
O217 O 0.16726 0.15875 0.6433 0.0
O218 O 0.20925 0.20203 0.66452 0.0
C219 C 0.27548 0.23943 0.62013 0.0
Fe220 Fe 0.10167 1.01414 0.82363 0.0
Fe221 Fe 0.14876 0.94362 0.85148 0.0
O222 O 0.12012 0.98492 0.86117 0.0
Fe223 Fe 0.1088 0.99701 0.90949 0.0
O224 O 0.06363 0.02329 0.89885 0.0
O225 O 0.05186 1.00793 0.83913 0.0
O226 O 0.09304 0.97411 0.78976 0.0
C227 C 0.09238 0.93784 0.79455 0.0
C228 C 0.13039 0.06522 0.88034 0.0
O229 O 0.11092 0.92229 0.82185 0.0
C230 C 0.18543 0.9684 0.91775 0.0
O231 O 0.14874 0.02367 0.80473 0.0
O232 O 0.1729 0.96503 0.80719 0.0
O233 O 0.13631 0.0405 0.90615 0.0
O234 O 0.10844 0.05858 0.85164 0.0
C235 C 0.09608 0.92061 0.91162 0.0
O236 O 0.18934 0.96125 0.88186 0.0
O237 O 0.15191 0.97455 0.93109 0.0
C238 C 0.17269 0.9993 0.79321 0.0
O239 O 0.12788 0.91575 0.89321 0.0
O240 O 0.08091 0.95355 0.91389 0.0
C241 C 0.04025 0.02078 0.87093 0.0
Fe242 Fe 0.3416 0.89996 0.10057 0.0
Fe243 Fe 0.29184 0.8596 0.16104 0.0
O244 O 0.30025 0.87239 0.11237 0.0
Fe245 Fe 0.26748 0.85689 0.07656 0.0
O246 O 0.30474 0.84825 0.03944 0.0
O247 O 0.35941 0.86207 0.06911 0.0
O248 O 0.37185 0.87729 0.13977 0.0
C249 C 0.36751 0.84411 0.1556 0.0
C250 C 0.28318 0.92727 0.04662 0.0
O251 O 0.33428 0.83043 0.1605 0.0
C252 C 0.22236 0.88408 0.13882 0.0
O253 O 0.32635 0.94009 0.13284 0.0
O254 O 0.31715 0.90165 0.1821 0.0
O255 O 0.25842 0.90526 0.06087 0.0
O256 O 0.31843 0.92526 0.05783 0.0
C257 C 0.26356 0.79336 0.12152 0.0
O258 O 0.24928 0.8882 0.1626 0.0
O259 O 0.22587 0.86367 0.10848 0.0
C260 C 0.32061 0.93563 0.16897 0.0
O261 O 0.26376 0.8153 0.15073 0.0
O262 O 0.27282 0.80639 0.08906 0.0
C263 C 0.34112 0.84493 0.04246 0.0
Fe264 Fe 0.92532 0.49861 0.62863 0.0
Fe265 Fe 0.93179 0.51876 0.71388 0.0
O266 O 0.91441 0.48781 0.67723 0.0
Fe267 Fe 0.88706 0.44597 0.68793 0.0
O268 O 0.90872 0.41761 0.64673 0.0
O269 O 0.95467 0.45632 0.62574 0.0
O270 O 0.97 0.52647 0.63839 0.0
C271 C 0.99342 0.52504 0.66639 0.0
C272 C 0.84926 0.46858 0.62179 0.0
O273 O 0.98183 0.51365 0.69872 0.0
C274 C 0.86182 0.50195 0.74543 0.0
O275 O 0.89636 0.54094 0.63062 0.0
O276 O 0.92383 0.56219 0.68419 0.0
O277 O 0.84588 0.46206 0.65778 0.0
O278 O 0.8827 0.47409 0.60786 0.0
C279 C 0.94341 0.44336 0.74456 0.0
O280 O 0.88424 0.52718 0.73256 0.0
O281 O 0.86281 0.46744 0.73209 0.0
C282 C 0.90239 0.56727 0.65469 0.0
O283 O 0.94177 0.47975 0.74878 0.0
O284 O 0.92557 0.42669 0.71746 0.0
C285 C 0.94109 0.42291 0.62941 0.0
Fe286 Fe 0.7749 0.68183 0.96826 0.0
Fe287 Fe 0.84539 0.63639 0.93758 0.0
O288 O 0.80245 0.6632 0.92976 0.0
Fe289 Fe 0.78693 0.67271 0.88229 0.0
O290 O 0.76006 0.71764 0.89315 0.0
O291 O 0.77927 0.73139 0.9514 0.0
O292 O 0.81618 0.69161 0.99981 0.0
C293 C 0.85207 0.69361 0.99312 0.0
C294 C 0.72142 0.65033 0.91561 0.0
O295 O 0.86701 0.67583 0.96492 0.0
C296 C 0.81736 0.59671 0.87458 0.0
O297 O 0.76747 0.63502 0.98826 0.0
O298 O 0.82697 0.61284 0.98374 0.0
O299 O 0.74485 0.64382 0.88884 0.0
O300 O 0.72948 0.67371 0.94279 0.0
C301 C 0.8622 0.6873 0.87331 0.0
O302 O 0.82767 0.59414 0.90973 0.0
O303 O 0.80909 0.62949 0.86106 0.0
C304 C 0.79311 0.61211 0.99909 0.0
O305 O 0.8699 0.65681 0.89301 0.0
O306 O 0.82902 0.70189 0.87493 0.0
C307 C 0.76414 0.74189 0.92018 0.0
Fe308 Fe 0.6113 0.52081 0.21656 0.0
Fe309 Fe 0.65477 0.59376 0.18872 0.0
O310 O 0.62904 0.55051 0.17936 0.0
Fe311 Fe 0.61953 0.53722 0.13136 0.0
O312 O 0.57574 0.50825 0.14082 0.0
O313 O 0.56148 0.52414 0.19988 0.0
O314 O 0.59994 0.56066 0.24966 0.0
C315 C 0.59747 0.59674 0.24424 0.0
C316 C 0.64467 0.47129 0.16123 0.0
O317 O 0.6149 0.61302 0.21665 0.0
C318 C 0.69499 0.56886 0.1249 0.0
O319 O 0.65838 0.51429 0.23622 0.0
O320 O 0.6787 0.5745 0.23427 0.0
O321 O 0.64985 0.49612 0.13549 0.0
O322 O 0.62126 0.47672 0.18906 0.0
C323 C 0.60202 0.6119 0.12648 0.0
O324 O 0.69745 0.57784 0.16041 0.0
O325 O 0.66197 0.56198 0.11086 0.0
C326 C 0.68036 0.54021 0.24829 0.0
O327 O 0.63335 0.6195 0.14511 0.0
O328 O 0.58858 0.57832 0.12736 0.0
C329 C 0.55126 0.51092 0.16771 0.0
Fe330 Fe 0.74686 0.36451 0.38026 0.0
Fe331 Fe 0.76383 0.35569 0.46584 0.0
O332 O 0.7343 0.37446 0.42879 0.0
Fe333 Fe 0.69254 0.40224 0.43883 0.0
O334 O 0.66489 0.38034 0.39705 0.0
O335 O 0.70468 0.3353 0.37547 0.0
O336 O 0.77464 0.32007 0.38984 0.0
C337 C 0.77168 0.29579 0.41682 0.0
C338 C 0.71764 0.44018 0.37338 0.0
O339 O 0.75844 0.30628 0.44886 0.0
C340 C 0.7482 0.42628 0.49728 0.0
O341 O 0.78922 0.39348 0.38445 0.0
O342 O 0.80797 0.36426 0.43798 0.0
O343 O 0.70965 0.44332 0.40906 0.0
O344 O 0.72275 0.40689 0.35933 0.0
C345 C 0.68771 0.34547 0.49526 0.0
O346 O 0.77259 0.40219 0.48611 0.0
O347 O 0.71392 0.42664 0.48309 0.0
C348 C 0.81407 0.38738 0.41013 0.0
O349 O 0.72407 0.34556 0.49944 0.0
O350 O 0.67176 0.36426 0.46838 0.0
C351 C 0.671 0.34845 0.37897 0.0
Fe352 Fe 0.35162 0.3894 0.09205 0.0
Fe353 Fe 0.41017 0.42866 0.03876 0.0
O354 O 0.36187 0.4169 0.05015 0.0
Fe355 Fe 0.32459 0.43353 0.01968 0.0
O356 O 0.28975 0.44167 0.05888 0.0
O357 O 0.322 0.42799 0.11196 0.0
O358 O 0.39331 0.41042 0.12006 0.0
C359 C 0.41162 0.4422 0.11507 0.0
C360 C 0.29453 0.36337 0.03594 0.0
O361 O 0.41361 0.45709 0.08202 0.0
C362 C 0.38275 0.40583 0.97012 0.0
O363 O 0.38193 0.34853 0.07539 0.0
O364 O 0.43145 0.38571 0.06193 0.0
O365 O 0.30771 0.38552 1.01074 0.0
O366 O 0.30719 0.36516 0.07074 0.0
C367 C 0.37045 0.49616 1.01359 0.0
O368 O 0.40814 0.4007 0.99543 0.0
O369 O 0.35358 0.42721 0.97597 0.0
C370 C 0.41779 0.35226 0.06789 0.0
O371 O 0.39912 0.47355 1.01202 0.0
O372 O 0.33847 0.48379 0.02534 0.0
C373 C 0.29435 0.4449 0.09504 0.0
Fe374 Fe 0.82607 0.1062 1.01207 0.0
Fe375 Fe 0.84906 0.15651 0.941 0.0
O376 O 0.86125 0.12849 0.98216 0.0
Fe377 Fe 0.91045 0.12202 0.99398 0.0
O378 O 0.9044 0.0775 0.02106 0.0
O379 O 0.84684 0.05777 1.00712 0.0
O380 O 0.79311 0.09359 0.97264 0.0
C381 C 0.79536 0.09617 0.93624 0.0
C382 C 0.88053 0.14096 0.06268 0.0
O383 O 0.81997 0.11791 0.9203 0.0
C384 C 0.91389 0.19734 0.96419 0.0
O385 O 0.80177 0.15072 0.02114 0.0
O386 O 0.80504 0.17907 0.96405 0.0
O387 O 0.90458 0.15042 0.03706 0.0
O388 O 0.85368 0.11673 0.05599 0.0
C389 C 0.91062 0.10557 0.91795 0.0
O390 O 0.8779 0.19894 0.95724 0.0
O391 O 0.92909 0.16492 0.96984 0.0
C392 C 0.79048 0.17601 0.99798 0.0
O393 O 0.89061 0.13626 0.91204 0.0
O394 O 0.9167 0.09338 0.95162 0.0
C395 C 0.88008 0.05058 0.01986 0.0
Fe396 Fe 0.13419 0.59805 0.1924 0.0
Fe397 Fe 0.17195 0.65671 0.24665 0.0
O398 O 0.1619 0.60824 0.23417 0.0
Fe399 Fe 0.18072 0.57128 0.26369 0.0
O400 O 0.19072 0.53751 0.22398 0.0
O401 O 0.17256 0.56892 0.17181 0.0
O402 O 0.15569 0.63986 0.16477 0.0
C403 C 0.18756 0.65803 0.17076 0.0
C404 C 0.11024 0.53973 0.24811 0.0
O405 O 0.20101 0.66138 0.20435 0.0
C406 C 0.14888 0.62691 0.31368 0.0
O407 O 0.09292 0.62766 0.20933 0.0
O408 O 0.12917 0.67758 0.22276 0.0
O409 O 0.13408 0.55128 0.27261 0.0
O410 O 0.11007 0.55366 0.21374 0.0
C411 C 0.24092 0.61992 0.2712 0.0
O412 O 0.14314 0.65273 0.289 0.0
O413 O 0.17237 0.59931 0.30781 0.0
C414 C 0.09593 0.66345 0.21681 0.0
O415 O 0.21672 0.64704 0.27431 0.0
O416 O 0.23015 0.58803 0.25793 0.0
C417 C 0.19144 0.5421 0.18771 0.0
Fe418 Fe 0.71969 0.92765 0.51714 0.0
Fe419 Fe 0.68604 0.88885 0.44419 0.0
O420 O 0.68004 0.91194 0.48929 0.0
Fe421 Fe 0.63309 0.92052 0.50736 0.0
O422 O 0.64596 0.96199 0.53856 0.0
O423 O 0.703 0.97726 0.51714 0.0
O424 O 0.75045 0.94108 0.476 0.0
C425 C 0.74315 0.94497 0.44037 0.0
C426 C 0.66896 0.89034 0.56827 0.0
O427 O 0.71435 0.92854 0.42527 0.0
C428 C 0.62127 0.84916 0.46851 0.0
O429 O 0.73937 0.88045 0.51984 0.0
O430 O 0.7318 0.86225 0.45927 0.0
O431 O 0.64103 0.88684 0.54538 0.0
O432 O 0.69543 0.9152 0.56251 0.0
C433 C 0.62555 0.94519 0.43439 0.0
O434 O 0.65657 0.84634 0.45858 0.0
O435 O 0.60902 0.88135 0.48059 0.0
C436 C 0.74892 0.85947 0.49216 0.0
O437 O 0.64269 0.91423 0.42294 0.0
O438 O 0.62486 0.95418 0.46956 0.0
C439 C 0.67223 0.98683 0.53359 0.0
Fe440 Fe 0.35665 0.46582 0.76066 0.0
Fe441 Fe 0.40187 0.43719 0.68913 0.0
O442 O 0.37387 0.42805 0.73102 0.0
Fe443 Fe 0.36195 0.38001 0.74311 0.0
O444 O 0.31747 0.39108 0.77026 0.0
O445 O 0.30644 0.4511 0.75581 0.0
O446 O 0.3475 0.49948 0.72064 0.0
C447 C 0.34592 0.49428 0.68438 0.0
C448 C 0.38539 0.40858 0.811 0.0
O449 O 0.3639 0.46679 0.66853 0.0
C450 C 0.43794 0.37062 0.71341 0.0
O451 O 0.40426 0.48406 0.76906 0.0
O452 O 0.42653 0.48174 0.70969 0.0
O453 O 0.39036 0.38273 0.78605 0.0
O454 O 0.36408 0.43779 0.80485 0.0
C455 C 0.34762 0.37835 0.667 0.0
O456 O 0.44244 0.40644 0.70627 0.0
O457 O 0.40421 0.3579 0.71965 0.0
C458 C 0.42697 0.49624 0.74383 0.0
O459 O 0.38003 0.39554 0.66174 0.0
O460 O 0.33307 0.37645 0.70025 0.0
C461 C 0.2945 0.41923 0.76802 0.0
Fe462 Fe 0.12859 0.61233 0.54139 0.0
Fe463 Fe 0.21324 0.60627 0.51925 0.0
O464 O 0.17737 0.62384 0.55078 0.0
Fe465 Fe 0.18937 0.65196 0.59181 0.0
O466 O 0.14851 0.63139 0.62171 0.0
O467 O 0.12686 0.58443 0.5847 0.0
O468 O 0.13824 0.56683 0.515 0.0
C469 C 0.16668 0.54395 0.51653 0.0
C470 C 0.12291 0.68932 0.56887 0.0
O471 O 0.19923 0.55634 0.52651 0.0
C472 C 0.2441 0.67681 0.53285 0.0
O473 O 0.12912 0.63966 0.49788 0.0
O474 O 0.1824 0.61188 0.47668 0.0
O475 O 0.15894 0.69271 0.57545 0.0
O476 O 0.1085 0.65587 0.56482 0.0
C477 C 0.24586 0.59567 0.59352 0.0
O478 O 0.23012 0.65387 0.50873 0.0
O479 O 0.23305 0.67571 0.56827 0.0
C480 C 0.15314 0.63336 0.4716 0.0
O481 O 0.24956 0.59861 0.5572 0.0
O482 O 0.21939 0.61354 0.61121 0.0
C483 C 0.13045 0.59926 0.61758 0.0
Fe484 Fe 0.68447 0.87633 0.7977 0.0
Fe485 Fe 0.68655 0.95999 0.77103 0.0
O486 O 0.6701 0.92468 0.80377 0.0
Fe487 Fe 0.64002 0.93713 0.84335 0.0
O488 O 0.65978 0.89775 0.87558 0.0
O489 O 0.71016 0.87859 0.84254 0.0
O490 O 0.7309 0.8869 0.77334 0.0
C491 C 0.75167 0.91695 0.77189 0.0
C492 C 0.60584 0.86879 0.8216 0.0
O493 O 0.73714 0.94932 0.77905 0.0
C494 C 0.61506 0.98913 0.78224 0.0
O495 O 0.6598 0.87264 0.75279 0.0
O496 O 0.68365 0.92711 0.72966 0.0
O497 O 0.60081 0.90495 0.82624 0.0
O498 O 0.64013 0.85568 0.8195 0.0
C499 C 0.69463 0.99514 0.84475 0.0
O500 O 0.63801 0.97377 0.759 0.0
O501 O 0.61623 0.97967 0.81804 0.0
C502 C 0.66599 0.89526 0.72538 0.0
O503 O 0.69192 0.9979 0.80823 0.0
O504 O 0.67729 0.9685 0.8628 0.0
C505 C 0.69266 0.88077 0.87412 0.0
Fe506 Fe 0.9001 0.1004 0.34407 0.0
Fe507 Fe 0.86223 0.15954 0.29043 0.0
O508 O 0.87289 0.11105 0.30201 0.0
Fe509 Fe 0.85524 0.07422 0.2716 0.0
O510 O 0.8456 0.03989 0.31076 0.0
O511 O 0.86114 0.07128 0.36391 0.0
O512 O 0.87908 0.14209 0.37194 0.0
C513 C 0.8472 0.16017 0.36653 0.0
C514 C 0.92499 0.04253 0.28822 0.0
O515 O 0.83324 0.16326 0.33313 0.0
C516 C 0.88496 0.13176 0.22208 0.0
O517 O 0.94153 0.1302 0.32769 0.0
O518 O 0.90506 0.18011 0.31442 0.0
O519 O 0.90269 0.05558 0.26304 0.0
O520 O 0.92394 0.05578 0.32285 0.0
C521 C 0.79402 0.12176 0.26463 0.0
O522 O 0.89078 0.15694 0.2475 0.0
O523 O 0.86308 0.10287 0.22797 0.0
C524 C 0.93834 0.16604 0.32022 0.0
O525 O 0.81751 0.14964 0.26293 0.0
O526 O 0.80533 0.08966 0.27683 0.0
C527 C 0.84295 0.04453 0.34698 0.0
C528 C 0.91547 0.41188 0.42952 0.0
C529 C 0.93353 0.39203 0.39927 0.0
C530 C 0.87551 0.41404 0.43092 0.0
C531 C 0.85344 0.39704 0.40167 0.0
H532 H 0.93211 0.42283 0.45371 0.0
H533 H 0.86179 0.42623 0.45632 0.0
S534 S 0.88832 0.34719 0.31377 0.0
N535 N 0.92791 0.35896 0.33775 0.0
N536 N 0.85188 0.36404 0.33956 0.0
C537 C 0.87143 0.38089 0.36918 0.0
C538 C 0.9121 0.37802 0.36821 0.0
C539 C 0.86738 0.62879 0.65557 0.0
C540 C 0.89705 0.60588 0.64071 0.0
C541 C 0.86715 0.66822 0.64801 0.0
C542 C 0.89767 0.68506 0.62733 0.0
H543 H 0.84586 0.61666 0.67479 0.0
H544 H 0.8456 0.68609 0.6619 0.0
S545 S 0.97681 0.63537 0.57602 0.0
N546 N 0.95259 0.60067 0.59797 0.0
N547 N 0.95416 0.67588 0.58696 0.0
C548 C 0.92488 0.66179 0.60897 0.0
C549 C 0.92421 0.6216 0.6152 0.0
C550 C 0.65828 0.64148 0.94348 0.0
C551 C 0.68138 0.63967 0.91053 0.0
C552 C 0.61925 0.64736 0.93986 0.0
C553 C 0.60156 0.64811 0.90351 0.0
H554 H 0.67086 0.64291 0.97216 0.0
H555 H 0.60333 0.6543 0.96571 0.0
S556 S 0.64835 0.63588 0.80855 0.0
N557 N 0.68409 0.63399 0.84018 0.0
N558 N 0.60836 0.6412 0.8341 0.0
C559 C 0.62335 0.64114 0.87036 0.0
C560 C 0.66402 0.63717 0.87376 0.0
C561 C 0.6703 0.37019 0.17838 0.0
C562 C 0.6491 0.35269 0.1487 0.0
C563 C 0.67272 0.41006 0.18023 0.0
C564 C 0.65467 0.43236 0.15192 0.0
H565 H 0.68159 0.35327 0.20216 0.0
H566 H 0.68564 0.42347 0.20545 0.0
S567 S 0.60218 0.39878 0.06502 0.0
N568 N 0.61432 0.35898 0.08824 0.0
N569 N 0.62007 0.43479 0.09071 0.0
C570 C 0.63764 0.41487 0.11959 0.0
C571 C 0.63444 0.37438 0.11826 0.0
C572 C 0.41577 0.14395 0.66315 0.0
C573 C 0.43541 0.13336 0.62946 0.0
C574 C 0.37557 0.1428 0.66405 0.0
C575 C 0.35495 0.1318 0.63093 0.0
H576 H 0.43127 0.15633 0.6874 0.0
H577 H 0.36072 0.15468 0.68892 0.0
S578 S 0.39429 0.09481 0.53869 0.0
N579 N 0.43263 0.10595 0.5649 0.0
N580 N 0.35653 0.10458 0.5662 0.0
C581 C 0.37456 0.11709 0.5988 0.0
C582 C 0.41529 0.11781 0.59809 0.0
C583 C 0.11541 0.16398 0.91767 0.0
C584 C 0.13969 0.18513 0.89329 0.0
C585 C 0.11543 0.1239 0.91606 0.0
C586 C 0.13905 0.10473 0.88935 0.0
H587 H 0.09443 0.1785 0.93582 0.0
H588 H 0.09457 0.10806 0.93319 0.0
S589 S 0.20992 0.14743 0.82206 0.0
N590 N 0.19034 0.18465 0.84461 0.0
N591 N 0.18923 0.10867 0.84059 0.0
C592 C 0.1653 0.12539 0.86684 0.0
C593 C 0.16595 0.16608 0.86912 0.0
C594 C 0.12233 0.91827 0.13557 0.0
C595 C 0.10429 0.88835 0.15596 0.0
C596 C 0.1623 0.91956 0.13332 0.0
C597 C 0.18419 0.89164 0.15237 0.0
H598 H 0.10562 0.93777 0.1177 0.0
H599 H 0.17589 0.94 0.11392 0.0
S600 S 0.14989 0.81281 0.21557 0.0
N601 N 0.1102 0.83392 0.19956 0.0
N602 N 0.18626 0.8374 0.19684 0.0
C603 C 0.16656 0.86483 0.17688 0.0
C604 C 0.12595 0.8629 0.17833 0.0
C605 C 0.37139 0.87128 0.34995 0.0
C606 C 0.39358 0.85167 0.37746 0.0
C607 C 0.37318 0.91129 0.34769 0.0
C608 C 0.39689 0.93198 0.37314 0.0
H609 H 0.35526 0.85549 0.32821 0.0
H610 H 0.35757 0.92588 0.32491 0.0
S611 S 0.45931 0.89192 0.45105 0.0
N612 N 0.43836 0.85412 0.43104 0.0
N613 N 0.44188 0.92961 0.42785 0.0
C614 C 0.4174 0.91226 0.40237 0.0
C615 C 0.41562 0.87177 0.40429 0.0
C616 C 0.41699 0.42373 0.91167 0.0
C617 C 0.3928 0.39761 0.93083 0.0
C618 C 0.41736 0.42493 0.87156 0.0
C619 C 0.39428 0.39938 0.85042 0.0
H620 H 0.4327 0.44561 0.92767 0.0
H621 H 0.43339 0.44761 0.85714 0.0
S622 S 0.33 0.32284 0.8879 0.0
N623 N 0.34803 0.34387 0.9268 0.0
N624 N 0.3499 0.34498 0.85064 0.0
C625 C 0.37302 0.37067 0.86929 0.0
C626 C 0.37195 0.37008 0.91005 0.0
C627 C 0.90536 0.11053 0.12033 0.0
C628 C 0.89271 0.14431 0.10228 0.0
C629 C 0.90738 0.10826 0.16012 0.0
C630 C 0.89611 0.13968 0.18273 0.0
H631 H 0.91015 0.08463 0.10381 0.0
H632 H 0.91426 0.08071 0.17325 0.0
S633 S 0.8656 0.23626 0.14872 0.0
N634 N 0.87296 0.2111 0.1088 0.0
N635 N 0.8762 0.20707 0.18493 0.0
C636 C 0.88704 0.17501 0.16508 0.0
C637 C 0.8852 0.17724 0.12421 0.0
C638 C 0.15747 0.66642 0.371 0.0
C639 C 0.13868 0.63553 0.35276 0.0
C640 C 0.15886 0.66812 0.41104 0.0
C641 C 0.14063 0.63953 0.4328 0.0
H642 H 0.17439 0.68688 0.35443 0.0
H643 H 0.17682 0.68975 0.42487 0.0
S644 S 0.08236 0.55712 0.39783 0.0
N645 N 0.09804 0.57874 0.35832 0.0
N646 N 0.09902 0.58299 0.43436 0.0
C647 C 0.11808 0.6112 0.41485 0.0
C648 C 0.11752 0.6089 0.37423 0.0
C649 C 0.62933 0.88687 0.62622 0.0
C650 C 0.66358 0.87663 0.60705 0.0
C651 C 0.62876 0.88913 0.66624 0.0
C652 C 0.66206 0.88026 0.68713 0.0
H653 H 0.60459 0.89762 0.61033 0.0
H654 H 0.60367 0.90123 0.68054 0.0
S655 S 0.75458 0.84157 0.65034 0.0
N656 N 0.72852 0.85043 0.61134 0.0
N657 N 0.72696 0.8534 0.68746 0.0
C658 C 0.69439 0.86465 0.66863 0.0
C659 C 0.69524 0.86301 0.62796 0.0
C660 C 0.16124 0.50546 0.4558 0.0
C661 C 0.16419 0.50643 0.49635 0.0
C662 C 0.15218 0.47107 0.43614 0.0
C663 C 0.14554 0.43662 0.4565 0.0
H664 H 0.16382 0.5319 0.43937 0.0
H665 H 0.14629 0.47246 0.40542 0.0
S666 S 0.15492 0.42321 0.56239 0.0
N667 N 0.16434 0.46946 0.55568 0.0
N668 N 0.14654 0.40496 0.51905 0.0
C669 C 0.15187 0.43673 0.49671 0.0
C670 C 0.16127 0.47165 0.51663 0.0
C671 C 0.85359 0.88668 0.74759 0.0
C672 C 0.85554 0.89301 0.7073 0.0
C673 C 0.8208 0.89683 0.76918 0.0
C674 C 0.78929 0.91501 0.75159 0.0
H675 H 0.87581 0.8698 0.76175 0.0
H676 H 0.81914 0.88824 0.79922 0.0
S677 S 0.78224 0.94426 0.64875 0.0
N678 N 0.8246 0.92245 0.65179 0.0
N679 N 0.76383 0.94366 0.69281 0.0
C680 C 0.79256 0.92553 0.7124 0.0
C681 C 0.82566 0.91429 0.69014 0.0
C682 C 0.38466 0.56435 0.92923 0.0
C683 C 0.38742 0.60066 0.94726 0.0
C684 C 0.37725 0.5308 0.95081 0.0
C685 C 0.37157 0.53244 0.99105 0.0
H686 H 0.3928 0.56119 0.89915 0.0
H687 H 0.37812 0.50312 0.93625 0.0
S688 S 0.37031 0.62078 0.05112 0.0
N689 N 0.38013 0.63646 1.00712 0.0
N690 N 0.36461 0.57358 0.04729 0.0
C691 C 0.3703 0.5688 1.00876 0.0
C692 C 0.37842 0.60289 0.98689 0.0
C693 C 0.68707 0.13078 0.2421 0.0
C694 C 0.68713 0.1411 0.20268 0.0
C695 C 0.72158 0.12187 0.26171 0.0
C696 C 0.75736 0.12404 0.24272 0.0
H697 H 0.66063 0.13304 0.25871 0.0
H698 H 0.72054 0.11618 0.29245 0.0
S699 S 0.77307 0.14494 0.13885 0.0
N700 N 0.72582 0.14846 0.14464 0.0
N701 N 0.79059 0.13313 0.18162 0.0
C702 C 0.75756 0.13136 0.20278 0.0
C703 C 0.72241 0.13935 0.18266 0.0
C704 C 0.65842 0.02842 0.59087 0.0
C705 C 0.66894 0.02524 0.55176 0.0
C706 C 0.64961 0.06442 0.6073 0.0
C707 C 0.6499 0.09822 0.58481 0.0
H708 H 0.65528 1.00272 0.60838 0.0
H709 H 0.63857 0.06514 0.63659 0.0
S710 S 0.67891 0.10547 0.48204 0.0
N711 N 0.68319 0.05909 0.49215 0.0
N712 N 0.66441 0.12649 0.52239 0.0
C713 C 0.66304 0.09561 0.54648 0.0
C714 C 0.67301 0.05913 0.53005 0.0
C715 C 0.22283 0.41049 0.76898 0.0
C716 C 0.2574 0.41715 0.78905 0.0
C717 C 0.18902 0.39995 0.78886 0.0
C718 C 0.18859 0.39605 0.82944 0.0
H719 H 0.22263 0.41059 0.73768 0.0
H720 H 0.16398 0.39135 0.77212 0.0
S721 S 0.27081 0.41496 0.89534 0.0
N722 N 0.2885 0.42289 0.85172 0.0
N723 N 0.22498 0.40318 0.88895 0.0
C724 C 0.22216 0.40602 0.8499 0.0
C725 C 0.25666 0.41636 0.82968 0.0
C726 C 0.87309 0.9491 0.06552 0.0
C727 C 0.90739 0.94725 0.08742 0.0
C728 C 0.86353 0.98266 0.04404 0.0
C729 C 0.88897 1.0146 0.04218 0.0
H730 H 0.85457 0.92399 0.0635 0.0
H731 H 0.83686 0.98299 0.02769 0.0
S732 S 0.9833 0.02317 0.0936 0.0
N733 N 0.96542 0.98147 0.10734 0.0
N734 N 0.95103 0.04054 0.06345 0.0
C735 C 0.92337 1.01254 0.06394 0.0
C736 C 0.93147 0.98012 0.08757 0.0
C737 C 0.31395 0.63938 0.35077 0.0
C738 C 0.34951 0.63795 0.3311 0.0
C739 C 0.27894 0.63224 0.33138 0.0
C740 C 0.27832 0.62248 0.29189 0.0
H741 H 0.31277 0.65019 0.38014 0.0
H742 H 0.25205 0.63606 0.34696 0.0
S743 S 0.36353 0.61053 0.22845 0.0
N744 N 0.38191 0.62338 0.27063 0.0
N745 N 0.31628 0.60793 0.23485 0.0
C746 C 0.31371 0.61742 0.27285 0.0
C747 C 0.34928 0.62552 0.29234 0.0
C748 C 0.49153 0.13699 0.43479 0.0
C749 C 0.45215 0.14753 0.43312 0.0
C750 C 0.51443 0.14496 0.46753 0.0
C751 C 0.49912 0.16474 0.49947 0.0
H752 H 0.50363 0.11883 0.41234 0.0
H753 H 0.54361 0.13372 0.46871 0.0
S754 S 0.39881 0.20121 0.5088 0.0
N755 N 0.39964 0.18014 0.46595 0.0
N756 N 0.44303 0.19715 0.52634 0.0
C757 C 0.46081 0.17819 0.49693 0.0
C758 C 0.43728 0.16922 0.46402 0.0
C759 C 0.14701 0.24905 0.6906 0.0
C760 C 0.14766 0.20839 0.68871 0.0
C761 C 0.13521 0.26846 0.72422 0.0
C762 C 0.12372 0.24784 0.75708 0.0
H763 H 0.15891 0.26589 0.66708 0.0
H764 H 0.13769 0.29961 0.72542 0.0
S765 S 0.11664 0.1415 0.76613 0.0
N766 N 0.13286 0.14845 0.72178 0.0
N767 N 0.11049 0.18493 0.78491 0.0
C768 C 0.12142 0.20739 0.75469 0.0
C769 C 0.13326 0.18762 0.72039 0.0
C770 C 0.04311 0.88463 0.94384 0.0
C771 C 0.08285 0.89338 0.94169 0.0
C772 C 0.02588 0.87304 0.97877 0.0
C773 C 0.0477 0.87069 1.01287 0.0
H774 H 0.02467 0.88979 0.91908 0.0
H775 H 0.99488 0.86876 0.9797 0.0
S776 S 0.15308 0.88743 0.02238 0.0
N777 N 0.14389 0.89568 0.97627 0.0
N778 N 0.11138 0.87499 0.04199 0.0
C779 C 0.08777 0.8769 1.01066 0.0
C780 C 0.10543 0.88785 0.97499 0.0
C781 C 0.40901 0.845 0.21381 0.0
C782 C 0.39711 0.82568 0.18011 0.0
C783 C 0.41949 0.82423 0.24709 0.0
C784 C 0.41879 0.7836 0.24754 0.0
H785 H 0.40583 0.87602 0.216 0.0
H786 H 0.42527 0.84005 0.2735 0.0
S787 S 0.39516 0.71965 0.16531 0.0
N788 N 0.38956 0.76373 0.14806 0.0
N789 N 0.40953 0.72498 0.21053 0.0
C790 C 0.41071 0.76407 0.21309 0.0
C791 C 0.40008 0.78512 0.17927 0.0
C792 C 0.95699 0.37689 0.53367 0.0
C793 C 0.99759 0.37456 0.53261 0.0
C794 C 0.93736 0.38665 0.56791 0.0
C795 C 0.95782 0.3948 0.60207 0.0
H796 H 0.94044 0.37328 0.50735 0.0
H797 H 0.90651 0.39181 0.56653 0.0
S798 S 0.06398 0.38832 0.61522 0.0
N799 N 0.05717 0.37707 0.56931 0.0
N800 N 0.02058 0.39635 0.63342 0.0
C801 C 0.99816 0.38937 0.60195 0.0
C802 C 1.01803 0.37914 0.56722 0.0
C803 C 0.91346 0.72365 0.83617 0.0
C804 C 0.88277 0.69693 0.83689 0.0
C805 C 0.9236 0.74313 0.80165 0.0
C806 C 0.90237 0.73755 0.76721 0.0
H807 H 0.92812 0.73122 0.86276 0.0
H808 H 0.94674 0.76417 0.80248 0.0
S809 S 0.82043 0.66944 0.75374 0.0
N810 N 0.83322 0.66448 0.79924 0.0
N811 N 0.85053 0.70167 0.73615 0.0
C812 C 0.87274 0.70978 0.76756 0.0
C813 C 0.86343 0.68935 0.80188 0.0
C814 C 0.56243 0.66289 0.09225 0.0
C815 C 0.58989 0.63284 0.091 0.0
C816 C 0.53932 0.67187 0.05956 0.0
C817 C 0.541 0.64929 0.02554 0.0
H818 H 0.55739 0.67815 0.11909 0.0
H819 H 0.51877 0.69533 0.06161 0.0
S820 S 0.60761 0.56636 1.00862 0.0
N821 N 0.61922 0.58292 0.05161 0.0
N822 N 0.57179 0.59402 0.9943 0.0
C823 C 0.56816 0.61888 0.02462 0.0
C824 C 0.59379 0.61248 0.05601 0.0
C825 C 0.6415 0.29025 0.35008 0.0
C826 C 0.64313 0.33094 0.35166 0.0
C827 C 0.63164 0.27066 0.31587 0.0
C828 C 0.62286 0.2911 0.28209 0.0
H829 H 0.65161 0.2734 0.37442 0.0
H830 H 0.63342 0.23946 0.31519 0.0
S831 S 0.61793 0.39747 0.2719 0.0
N832 N 0.63149 0.3907 0.31716 0.0
N833 N 0.61207 0.35397 0.25317 0.0
C834 C 0.62095 0.33161 0.28411 0.0
C835 C 0.63108 0.35155 0.31893 0.0
C836 C 0.47906 0.51251 0.16246 0.0
C837 C 0.51352 0.49118 0.16362 0.0
C838 C 0.44407 0.49503 0.15124 0.0
C839 C 0.44216 0.45546 0.14191 0.0
H840 H 0.47968 0.54337 0.16745 0.0
H841 H 0.41896 0.51319 0.14696 0.0
S842 S 0.52378 0.38627 0.14515 0.0
N843 N 0.54322 0.42799 0.15772 0.0
N844 N 0.4774 0.39501 0.13796 0.0
C845 C 0.47588 0.43331 0.14629 0.0
C846 C 0.51163 0.45124 0.15671 0.0
C847 C 1.00692 0.08412 0.87793 0.0
C848 C 1.00437 0.04398 0.87217 0.0
C849 C 0.97391 0.10633 0.88592 0.0
C850 C 0.93728 0.08905 0.88915 0.0
H851 H 0.03494 0.09809 0.87848 0.0
H852 H 0.97778 0.13631 0.89401 0.0
S853 S 0.91472 0.98584 0.87208 0.0
N854 N 0.96197 0.98868 0.86568 0.0
N855 N 0.90006 0.03007 0.88228 0.0
C856 C 0.93407 0.04955 0.88014 0.0
C857 C 0.96762 0.02703 0.87141 0.0
C858 C 0.24516 0.68759 0.14091 0.0
C859 C 0.20445 0.68574 0.14306 0.0
C860 C 0.26436 0.72205 0.13153 0.0
C861 C 0.24348 0.7558 0.12379 0.0
H862 H 0.26235 0.66321 0.1503 0.0
H863 H 0.29563 0.72291 0.13283 0.0
S864 S 0.13683 0.76531 0.12006 0.0
N865 N 0.14414 0.71992 0.13267 0.0
N866 N 0.18018 0.7845 0.11433 0.0
C867 C 0.20292 0.75359 0.12236 0.0
C868 C 0.18336 0.71849 0.13192 0.0
C869 C 0.55428 0.02318 0.40999 0.0
C870 C 0.52604 1.00309 0.3891 0.0
C871 C 0.58906 1.00517 0.42038 0.0
C872 C 0.59663 0.96615 0.41098 0.0
H873 H 0.54918 0.05269 0.41901 0.0
H874 H 0.60922 0.02119 0.43823 0.0
S875 S 0.53219 0.90103 0.35582 0.0
N876 N 0.50858 0.94235 0.35782 0.0
N877 N 0.57341 0.90859 0.37861 0.0
C878 C 0.56944 0.94633 0.38856 0.0
C879 C 0.53418 0.96472 0.37754 0.0
C880 C 0.35408 0.31314 0.63924 0.0
C881 C 0.33346 0.34808 0.64057 0.0
C882 C 0.33529 0.27816 0.63092 0.0
C883 C 0.29546 0.27705 0.62279 0.0
H884 H 0.38396 0.31224 0.64857 0.0
H885 H 0.35163 0.25156 0.63268 0.0
S886 S 0.22952 0.36087 0.6181 0.0
N887 N 0.27172 0.37964 0.63032 0.0
N888 N 0.23691 0.31407 0.61272 0.0
C889 C 0.27531 0.31204 0.62058 0.0
C890 C 0.29422 0.34755 0.62991 0.0
C891 C 0.03191 0.58559 0.65788 0.0
C892 C 0.03103 0.54539 0.66357 0.0
C893 C 0.06662 0.60493 0.64914 0.0
C894 C 0.10166 0.58464 0.64554 0.0
H895 H 1.00528 0.60194 0.65839 0.0
H896 H 0.06525 0.63514 0.64124 0.0
S897 S 0.11534 0.47984 0.66223 0.0
N898 N 0.06862 0.48671 0.66925 0.0
N899 N 0.13363 0.52264 0.65184 0.0
C900 C 0.10147 0.54496 0.65436 0.0
C901 C 0.06621 0.52539 0.66355 0.0
C902 C 0.76259 0.81437 0.92153 0.0
C903 C 0.74293 0.77906 0.91834 0.0
C904 C 0.74387 0.84941 0.91292 0.0
C905 C 0.70462 0.85049 0.90182 0.0
H906 H 0.79327 0.81468 0.9277 0.0
H907 H 0.76116 0.87543 0.91134 0.0
S908 S 0.63874 0.76617 0.89657 0.0
N909 N 0.68103 0.74751 0.90834 0.0
N910 N 0.64571 0.81324 0.89363 0.0
C911 C 0.68378 0.81566 0.90292 0.0
C912 C 0.70302 0.77994 0.9106 0.0
C913 C 0.77316 0.22367 0.41238 0.0
C914 C 0.79303 0.25895 0.41384 0.0
C915 C 0.79249 0.18944 0.40213 0.0
C916 C 0.83242 0.18926 0.39395 0.0
H917 H 0.74211 0.22301 0.41628 0.0
H918 H 0.7755 0.16361 0.39731 0.0
S919 S 0.89818 0.27352 0.39901 0.0
N920 N 0.85526 0.2912 0.41008 0.0
N921 N 0.89155 0.22686 0.39179 0.0
C922 C 0.85306 0.22379 0.39894 0.0
C923 C 0.83332 0.25871 0.4085 0.0
C924 C 0.06221 0.50953 0.29221 0.0
C925 C 0.088 0.50494 0.26106 0.0
C926 C 0.05474 0.47944 0.31866 0.0
C927 C 0.07275 0.44294 0.31566 0.0
H928 H 0.0504 0.53783 0.29835 0.0
H929 H 0.03628 0.48574 0.34314 0.0
S930 S 0.14046 0.41451 0.23749 0.0
N931 N 0.12971 0.45984 0.22743 0.0
N932 N 0.11533 0.40327 0.27649 0.0
C933 C 0.09627 0.43689 0.28292 0.0
C934 C 0.10395 0.46777 0.25593 0.0
C935 C 0.8153 0.80274 0.5539 0.0
C936 C 0.84906 0.82579 0.55387 0.0
C937 C 0.78466 0.80885 0.52766 0.0
C938 C 0.78589 0.83843 0.49983 0.0
H939 H 0.81118 0.78138 0.57635 0.0
H940 H 0.75795 0.79319 0.53223 0.0
S941 S 0.86931 0.904 0.48375 0.0
N942 N 0.88337 0.87675 0.5203 0.0
N943 N 0.82586 0.88847 0.47145 0.0
C944 C 0.82106 0.8591 0.49693 0.0
C945 C 0.85247 0.85286 0.52377 0.0
C946 C 0.47592 0.53075 0.78405 0.0
C947 C 0.44744 0.53281 0.7551 0.0
C948 C 0.48351 0.56203 0.80914 0.0
C949 C 0.4627 0.59716 0.80723 0.0
H950 H 0.49008 0.50347 0.7897 0.0
H951 H 0.50423 0.55756 0.83217 0.0
S952 S 0.38686 0.6189 0.73474 0.0
N953 N 0.40008 0.57427 0.72435 0.0
N954 N 0.41419 0.63276 0.7714 0.0
C955 C 0.43619 0.60078 0.77655 0.0
C956 C 0.42858 0.56877 0.75073 0.0
C957 C 0.73189 0.23007 0.07119 0.0
C958 C 0.69447 0.21429 0.06662 0.0
C959 C 0.76205 0.22227 0.04492 0.0
C960 C 0.75653 0.19854 1.01233 0.0
H961 H 0.73874 0.2469 0.09668 0.0
H962 H 0.79089 0.23215 0.05211 0.0
S963 S 0.66384 0.1522 0.98467 0.0
N964 N 0.6532 0.17589 0.02475 0.0
N965 N 0.70994 0.16097 0.97587 0.0
C966 C 0.71868 0.18478 1.00582 0.0
C967 C 0.68773 0.19274 0.03267 0.0
C968 C 0.57098 0.01869 0.73316 0.0
C969 C 0.59392 0.0237 0.76643 0.0
C970 C 0.56214 0.04958 0.70809 0.0
C971 C 0.57614 0.08746 0.71434 0.0
H972 H 0.56191 0.98992 0.72489 0.0
H973 H 0.54565 0.0431 0.68229 0.0
S974 S 0.63675 0.11683 0.79798 0.0
N975 N 0.62953 0.07022 0.80494 0.0
N976 N 0.61299 0.12815 0.75814 0.0
C977 C 0.59744 0.09344 0.74868 0.0
C978 C 0.60635 0.06173 0.77444 0.0
C979 C 0.22276 0.36359 0.02552 0.0
C980 C 0.25813 0.34313 0.024 0.0
C981 C 0.1916 0.35517 1.00014 0.0
C982 C 0.19465 0.32622 0.97162 0.0
H983 H 0.2204 0.38867 0.0441 0.0
H984 H 0.1663 0.37352 1.00085 0.0
S985 S 0.2789 0.26089 0.95877 0.0
N986 N 0.29243 0.29029 0.99385 0.0
N987 N 0.23463 0.27407 0.94688 0.0
C988 C 0.22873 0.30371 0.97194 0.0
C989 C 0.26017 0.31224 0.99778 0.0
C990 C 0.97313 1.00936 0.24611 0.0
C991 C 0.9458 1.00651 0.27609 0.0
C992 C 0.98133 0.97804 0.22132 0.0
C993 C 0.96228 0.94202 0.2246 0.0
H994 H 0.98602 0.03711 0.23966 0.0
H995 H 1.00128 0.98299 0.19773 0.0
S996 S 0.88955 0.91835 0.29974 0.0
N997 N 0.90105 0.96373 0.30888 0.0
N998 N 0.9164 0.905 0.26256 0.0
C999 C 0.93674 0.93785 0.25608 0.0
C1000 C 0.92849 0.96996 0.28155 0.0
C1001 C 0.31605 0.68361 0.52308 0.0
C1002 C 0.27844 0.69884 0.51806 0.0
C1003 C 0.34656 0.69177 0.49675 0.0
C1004 C 0.34067 0.71499 0.46372 0.0
H1005 H 0.32108 0.6625 0.54556 0.0
H1006 H 0.37405 0.67742 0.50076 0.0
S1007 S 0.24877 0.76505 0.43945 0.0
N1008 N 0.23843 0.74069 0.47907 0.0
N1009 N 0.29475 0.75626 0.43031 0.0
C1010 C 0.30392 0.73246 0.46011 0.0
C1011 C 0.27322 0.72434 0.48693 0.0
C1012 C 0.25619 0.10806 0.47079 0.0
C1013 C 0.2569 0.08757 0.50605 0.0
C1014 C 0.28163 0.09918 0.43998 0.0
C1015 C 0.30916 0.06925 0.4428 0.0
H1016 H 0.23839 0.13364 0.46834 0.0
H1017 H 0.2813 0.11757 0.41472 0.0
S1018 S 0.32036 1.00439 0.52783 0.0
N1019 N 0.28577 0.0345 0.54083 0.0
N1020 N 0.33243 1.01668 0.48338 0.0
C1021 C 0.30792 0.04659 0.47688 0.0
C1022 C 0.28223 0.05602 0.50825 0.0
C1023 C 0.22152 0.0423 0.76255 0.0
C1024 C 0.19489 1.01189 0.75825 0.0
C1025 C 0.23032 0.06763 0.73188 0.0
C1026 C 0.21261 0.06442 0.69513 0.0
H1027 H 0.23327 0.04863 0.79088 0.0
H1028 H 0.24963 0.0915 0.73791 0.0
S1029 S 0.14231 0.98822 0.66773 0.0
N1030 N 0.15234 0.97879 0.71343 0.0
N1031 N 0.16888 0.02603 0.65588 0.0
C1032 C 0.18787 0.03253 0.68958 0.0
C1033 C 0.17899 1.00656 0.72101 0.0
C1034 C 0.21385 0.98244 0.98348 0.0
C1035 C 0.21804 0.9648 0.94682 0.0
C1036 C 0.23875 0.97412 1.01468 0.0
C1037 C 0.26978 0.94811 1.01104 0.0
H1038 H 0.18953 1.00132 0.98897 0.0
H1039 H 0.23175 0.9859 0.04283 0.0
S1040 S 0.29567 0.89545 0.9212 0.0
N1041 N 0.25766 0.92138 0.90853 0.0
N1042 N 0.30428 0.90592 0.96699 0.0
C1043 C 0.27601 0.93216 0.97396 0.0
C1044 C 0.25039 0.94049 0.942 0.0
C1045 C 0.34296 1.0032 0.18892 0.0
C1046 C 0.3229 0.96891 0.19762 0.0
C1047 C 0.35071 0.03139 0.21764 0.0
C1048 C 0.33834 0.02733 0.25649 0.0
H1049 H 0.35508 1.00721 0.16037 0.0
H1050 H 0.36939 0.05529 0.21 0.0
S1051 S 0.27915 0.94619 0.29328 0.0
N1052 N 0.28646 0.93515 0.24742 0.0
N1053 N 0.30136 0.98776 0.30062 0.0
C1054 C 0.31546 0.99485 0.26472 0.0
C1055 C 0.30777 0.96589 0.23563 0.0
C1056 C 0.79278 0.47437 0.52663 0.0
C1057 C 0.76129 0.4491 0.53168 0.0
C1058 C 0.81914 0.48236 0.55674 0.0
C1059 C 0.81579 0.4653 0.59369 0.0
H1060 H 0.79921 0.48534 0.49804 0.0
H1061 H 0.84382 0.50042 0.55015 0.0
S1062 S 0.73675 0.39919 0.62329 0.0
N1063 N 0.727 0.40889 0.57759 0.0
N1064 N 0.77598 0.42416 0.63419 0.0
C1065 C 0.78277 0.44228 0.60012 0.0
C1066 C 0.75583 0.43413 0.56922 0.0
C1067 C 0.85986 0.51114 0.81747 0.0
C1068 C 0.84068 0.51363 0.78142 0.0
C1069 C 0.8502 0.53554 0.84906 0.0
C1070 C 0.82118 0.56392 0.84583 0.0
H1071 H 0.88485 0.49255 0.82023 0.0
H1072 H 0.86768 0.5342 0.87496 0.0
S1073 S 0.7591 0.57914 0.75936 0.0
N1074 N 0.78921 0.54472 0.74593 0.0
N1075 N 0.77031 0.58946 0.80458 0.0
C1076 C 0.79985 0.56443 0.8109 0.0
C1077 C 0.80981 0.53976 0.77897 0.0
C1078 C 0.75839 0.59938 0.10154 0.0
C1079 C 0.72857 0.57196 0.09691 0.0
C1080 C 0.78428 0.60824 0.0709 0.0
C1081 C 0.78205 0.58972 0.03445 0.0
H1082 H 0.7598 0.61639 0.12776 0.0
H1083 H 0.80375 0.63246 0.07457 0.0
S1084 S 0.71297 0.51199 1.00904 0.0
N1085 N 0.70172 0.52316 0.05403 0.0
N1086 N 0.74956 0.54023 0.99734 0.0
C1087 C 0.75458 0.56006 0.03085 0.0
C1088 C 0.72819 0.55112 0.06171 0.0
C1089 C 0.69059 0.50502 0.3504 0.0
C1090 C 0.71643 0.47388 0.34565 0.0
C1091 C 0.68342 0.5316 0.32002 0.0
C1092 C 0.70217 0.52869 0.28377 0.0
H1093 H 0.67341 0.50703 0.37647 0.0
H1094 H 0.66012 0.55216 0.32359 0.0
S1095 S 0.77653 0.45607 0.25839 0.0
N1096 N 0.76424 0.44494 0.30309 0.0
N1097 N 0.75043 0.4942 0.24686 0.0
C1098 C 0.73052 0.49988 0.28021 0.0
C1099 C 0.73765 0.47276 0.31077 0.0
C1100 C 0.47243 0.26393 0.10805 0.0
C1101 C 0.50888 0.26635 0.08966 0.0
C1102 C 0.44172 0.28959 0.09897 0.0
C1103 C 0.44631 0.31931 0.0715 0.0
H1104 H 0.46866 0.24422 0.13202 0.0
H1105 H 0.41534 0.28795 0.11571 0.0
S1106 S 0.53433 0.3353 1.01201 0.0
N1107 N 0.54618 0.29899 0.04046 0.0
N1108 N 0.4893 0.34646 0.02307 0.0
C1109 C 0.48171 0.32012 0.05111 0.0
C1110 C 0.51267 0.29402 0.06028 0.0
C1111 C 1.00749 0.25465 0.97527 0.0
C1112 C 1.00562 0.28287 0.94617 0.0
C1113 C 0.97612 0.22984 0.98307 0.0
C1114 C 0.94118 0.23137 0.96186 0.0
H1115 H 0.0347 0.24929 0.98978 0.0
H1116 H 0.98041 0.20725 1.00424 0.0
S1117 S 0.91984 0.30232 0.88467 0.0
N1118 N 0.96447 0.31287 0.89801 0.0
N1119 N 0.90577 0.26623 0.91249 0.0
C1120 C 0.93768 0.26147 0.93479 0.0
C1121 C 0.96977 0.28703 0.92697 0.0
C1122 C 0.0378 0.75668 0.22919 0.0
C1123 C 1.00801 0.75403 0.20153 0.0
C1124 C 0.06407 0.72621 0.23561 0.0
C1125 C 0.06217 0.69118 0.21474 0.0
H1126 H 0.04329 0.78405 0.24334 0.0
H1127 H 0.08765 0.73116 0.25561 0.0
S1128 S 0.98794 0.66786 0.14088 0.0
N1129 N 0.97689 0.71214 0.15472 0.0
N1130 N 0.02564 0.65481 0.16711 0.0
C1131 C 0.03071 0.68683 0.18917 0.0
C1132 C 1.0039 0.71813 0.18255 0.0
C1133 C 0.52318 0.7968 0.46877 0.0
C1134 C 0.52758 0.76597 0.44265 0.0
C1135 C 0.55421 0.82149 0.47848 0.0
C1136 C 0.59151 0.81743 0.46208 0.0
H1137 H 0.49472 0.80357 0.4799 0.0
H1138 H 0.54813 0.8454 0.49772 0.0
S1139 S 0.61905 0.74038 0.39267 0.0
N1140 N 0.57288 0.7319 0.40143 0.0
N1141 N 0.63098 0.77812 0.41938 0.0
C1142 C 0.59689 0.78546 0.43732 0.0
C1143 C 0.5651 0.76001 0.42764 0.0
C1144 C 0.48834 0.27231 0.71859 0.0
C1145 C 0.51998 0.27533 0.69326 0.0
C1146 C 0.46428 0.3041 0.72692 0.0
C1147 C 0.46985 0.34079 0.70981 0.0
H1148 H 0.48041 0.24433 0.73003 0.0
H1149 H 0.43954 0.29913 0.74542 0.0
S1150 S 0.54979 0.36489 0.6425 0.0
N1151 N 0.55678 0.3188 0.65245 0.0
N1152 N 0.51153 0.37834 0.66772 0.0
C1153 C 0.5028 0.3449 0.68614 0.0
C1154 C 0.52765 0.31233 0.67789 0.0
C1155 C 0.06984 0.77974 0.60597 0.0
C1156 C 0.0341 0.7784 0.58611 0.0
C1157 C 0.09999 0.75302 0.59831 0.0
C1158 C 0.09548 0.72322 0.57087 0.0
H1159 H 0.07314 0.79918 0.63029 0.0
H1160 H 0.12561 0.7538 0.61625 0.0
S1161 S 1.0102 0.71048 0.50681 0.0
N1162 N 0.99826 0.74727 0.53473 0.0
N1163 N 0.0541 0.69754 0.52025 0.0
C1164 C 0.06121 0.72366 0.54868 0.0
C1165 C 0.03087 0.75101 0.55627 0.0
C1166 C 0.51029 0.81957 0.85253 0.0
C1167 C 0.51553 0.78067 0.84126 0.0
C1168 C 0.53798 0.84865 0.84391 0.0
C1169 C 0.57279 0.84003 0.82437 0.0
H1170 H 0.48614 0.82702 0.87099 0.0
H1171 H 0.53329 0.87745 0.85509 0.0
S1172 S 0.59942 0.74315 0.78623 0.0
N1173 N 0.55734 0.73603 0.80752 0.0
N1174 N 0.6088 0.7896 0.79119 0.0
C1175 C 0.57708 0.80167 0.81095 0.0
C1176 C 0.54879 0.77241 0.81943 0.0
C1177 C 1.00115 0.18959 0.35146 0.0
C1178 C 0.9717 0.1941 0.32365 0.0
C1179 C 0.0269 0.22021 0.3606 0.0
C1180 C 0.02486 0.25649 0.34195 0.0
H1181 H 1.0024 0.16343 0.36847 0.0
H1182 H 0.04628 0.21659 0.38491 0.0
S1183 S 0.95688 0.28146 0.26318 0.0
N1184 N 0.94534 0.23665 0.27446 0.0
N1185 N 0.993 0.29341 0.292 0.0
C1186 C 0.99761 0.2601 0.31211 0.0
C1187 C 0.97138 0.22922 0.30287 0.0
C1188 C 0.10506 0.23833 0.49123 0.0
C1189 C 0.12264 0.26724 0.46858 0.0
C1190 C 0.1269 0.21434 0.51561 0.0
C1191 C 0.16733 0.21794 0.51816 0.0
H1192 H 0.07402 0.23438 0.49056 0.0
H1193 H 0.1119 0.19276 0.53254 0.0
S1194 S 0.22774 0.28949 0.46576 0.0
N1195 N 0.18331 0.29822 0.45095 0.0
N1196 N 0.22407 0.25326 0.49637 0.0
C1197 C 0.18535 0.24659 0.49558 0.0
C1198 C 0.16314 0.27115 0.47095 0.0
C1199 C 0.04411 0.93091 0.74051 0.0
C1200 C 0.06901 0.91341 0.76753 0.0
C1201 C 0.02024 0.90891 0.7161 0.0
C1202 C 0.02024 0.86825 0.71728 0.0
H1203 H 0.04246 0.96205 0.73848 0.0
H1204 H 1.00145 0.92408 0.69628 0.0
S1205 S 0.08103 0.80782 0.78186 0.0
N1206 N 0.09276 0.85256 0.79325 0.0
N1207 N 0.04823 0.81134 0.74745 0.0
C1208 C 0.04552 0.85029 0.74369 0.0
C1209 C 0.06974 0.87273 0.76873 0.0
C1210 C 0.42538 0.79313 0.99466 0.0
C1211 C 0.40795 0.76979 0.96611 0.0
C1212 C 0.4036 0.81768 1.01824 0.0
C1213 C 0.36322 0.82041 1.01463 0.0
H1214 H 0.45626 0.79222 0.9994 0.0
H1215 H 0.41886 0.83432 0.03999 0.0
S1216 S 0.30311 0.76695 0.94338 0.0
N1217 N 0.34757 0.75199 0.9348 0.0
N1218 N 0.30657 0.79831 0.97917 0.0
C1219 C 0.34525 0.7979 0.98567 0.0
C1220 C 0.36762 0.77264 0.96155 0.0
C1221 C 0.52775 0.13285 0.22904 0.0
C1222 C 0.51692 0.17045 0.21819 0.0
C1223 C 0.50553 0.11119 0.25487 0.0
C1224 C 0.47118 0.12589 0.27093 0.0
H1225 H 0.55407 0.12005 0.21799 0.0
H1226 H 0.51551 0.08248 0.26213 0.0
S1227 S 0.42948 0.22272 0.25178 0.0
N1228 N 0.46921 0.2215 0.22542 0.0
N1229 N 0.42724 0.18062 0.27391 0.0
C1230 C 0.45973 0.16339 0.2602 0.0
C1231 C 0.4826 0.18566 0.23393 0.0
C1232 C 0.65884 0.26919 0.56895 0.0
C1233 C 0.61828 0.27221 0.57076 0.0
C1234 C 0.68093 0.29357 0.54533 0.0
C1235 C 0.66351 0.32205 0.52214 0.0
H1236 H 0.67386 0.24726 0.58542 0.0
H1237 H 0.7119 0.28932 0.54459 0.0
S1238 S 0.55855 0.34417 0.5182 0.0
N1239 N 0.56177 0.30772 0.54864 0.0
N1240 N 0.6032 0.35333 0.50423 0.0
C1241 C 0.62309 0.32622 0.52446 0.0
C1242 C 0.60052 0.30148 0.54871 0.0
C1243 C 0.99625 0.43678 0.79409 0.0
C1244 C 0.96695 0.41961 0.77168 0.0
C1245 C 0.02072 0.4145 0.81758 0.0
C1246 C 1.01682 0.37407 0.81993 0.0
H1247 H 1.00105 0.46763 0.79279 0.0
H1248 H 0.04323 0.42919 0.83364 0.0
S1249 S 0.94285 0.31512 0.7689 0.0
N1250 N 0.93423 0.35973 0.75483 0.0
N1251 N 0.97994 0.31805 0.79867 0.0
C1252 C 0.98689 0.35665 0.79841 0.0
C1253 C 0.9621 0.37932 0.77442 0.0
C1254 C 0.88055 0.7685 0.06823 0.0
C1255 C 0.92108 0.76562 0.07006 0.0
C1256 C 0.85879 0.74483 0.04366 0.0
C1257 C 0.87648 0.71734 0.01945 0.0
H1258 H 0.8653 0.78939 0.08582 0.0
H1259 H 0.82773 0.74865 0.04331 0.0
S1260 S 0.98167 0.69718 1.01375 0.0
N1261 N 0.97808 0.73218 0.04592 0.0
N1262 N 0.93708 0.6879 0.99956 0.0
C1263 C 0.91696 0.71378 0.02114 0.0
C1264 C 0.93922 0.73777 0.04649 0.0
C1265 C 0.5194 0.62488 0.31624 0.0
C1266 C 0.52409 0.66509 0.31995 0.0
C1267 C 0.54379 0.60295 0.29244 0.0
C1268 C 0.5737 0.62031 0.27107 0.0
H1269 H 0.49624 0.61018 0.33126 0.0
H1270 H 0.53845 0.57224 0.29003 0.0
S1271 S 0.60045 0.72404 0.27266 0.0
N1272 N 0.56275 0.72099 0.30165 0.0
N1273 N 0.60818 0.67977 0.25693 0.0
C1274 C 0.57945 0.66027 0.27525 0.0
C1275 C 0.55481 0.68261 0.29968 0.0
C1276 C 0.26841 0.46888 0.15868 0.0
C1277 C 0.26631 0.46827 0.11806 0.0
C1278 C 0.24353 0.49199 0.1809 0.0
C1279 C 0.21555 0.51585 0.16345 0.0
H1280 H 0.28978 0.45161 0.17368 0.0
H1281 H 0.24689 0.49172 0.21196 0.0
S1282 S 0.1968 0.52395 0.05808 0.0
N1283 N 0.23279 0.49295 0.06135 0.0
N1284 N 0.18636 0.53631 0.1029 0.0
C1285 C 0.21262 0.51501 0.12289 0.0
C1286 C 0.2378 0.49133 0.10023 0.0
C1287 C 0.74334 0.04593 0.92958 0.0
C1288 C 0.7685 0.07259 0.91189 0.0
C1289 C 0.71906 0.02193 0.90771 0.0
C1290 C 0.71848 0.02344 0.86705 0.0
H1291 H 0.74275 0.04297 0.96069 0.0
H1292 H 0.70094 1.00154 0.92305 0.0
S1293 S 0.7772 0.08949 0.80621 0.0
N1294 N 0.79018 0.09997 0.85088 0.0
N1295 N 0.74449 0.05505 0.80993 0.0
C1296 C 0.74271 0.05068 0.84888 0.0
C1297 C 0.76766 0.07509 0.87123 0.0
C1298 C 0.82237 1.01556 0.41041 0.0
C1299 C 0.81835 0.0177 0.36997 0.0
C1300 C 0.79847 0.99158 0.43277 0.0
C1301 C 0.76917 0.96896 0.41575 0.0
H1302 H 0.84414 0.03264 0.42506 0.0
H1303 H 0.80275 0.99125 0.46376 0.0
S1304 S 0.74661 0.96397 0.31081 0.0
N1305 N 0.78284 0.99476 0.31378 0.0
N1306 N 0.73796 0.95008 0.35554 0.0
C1307 C 0.76505 0.97062 0.37524 0.0
C1308 C 0.78958 0.9948 0.35247 0.0
C1309 C 0.30164 0.55148 0.67754 0.0
C1310 C 0.32239 0.52108 0.66014 0.0
C1311 C 0.27749 0.57574 0.65582 0.0
C1312 C 0.27327 0.57098 0.61564 0.0
H1313 H 0.30353 0.55637 0.70839 0.0
H1314 H 0.26184 0.59833 0.67077 0.0
S1315 S 0.32096 0.49586 0.55567 0.0
N1316 N 0.3369 0.48776 0.59984 0.0
N1317 N 0.2919 0.53339 0.55925 0.0
C1318 C 0.29426 0.5411 0.5977 0.0
C1319 C 0.31866 0.51621 0.61983 0.0
loop_
_geom_bond_atom_site_label_1
_geom_bond_atom_site_label_2
_geom_bond_distance
_geom_bond_site_symmetry_2
_ccdc_geom_bond_type
Fe0 O2 1.918 . S
Fe0 O5 1.997 1_455 S
Fe0 O6 2.002 . S
Fe0 O11 1.976 . S
Fe0 O14 1.996 1_455 S
Fe1 O2 1.918 . S
Fe1 O9 1.997 . S
Fe1 O12 1.996 . S
Fe1 O16 1.976 . S
Fe1 O19 2.002 . S
O2 Fe0 1.918 . S
O2 Fe1 1.918 . S
O2 Fe3 1.918 . S
Fe3 O2 1.918 . S
Fe3 O4 2.003 1_455 S
Fe3 O13 1.976 1_455 S
Fe3 O17 1.996 . S
Fe3 O20 1.997 . S
O4 Fe3 2.003 1_655 S
O4 C21 1.295 . S
O5 Fe0 1.997 1_655 S
O5 C21 1.235 . S
O6 Fe0 2.002 . S
O6 C7 1.295 . S
C7 O6 1.295 . S
C7 O9 1.235 . S
C8 O13 1.287 . S
C8 O14 1.255 . S
O9 Fe1 1.997 . S
O9 C7 1.235 . S
C10 O16 1.287 . S
C10 O17 1.255 . S
O11 Fe0 1.976 . S
O11 C18 1.287 . S
O12 Fe1 1.996 . S
O12 C18 1.255 . S
O13 Fe3 1.976 1_655 S
O13 C8 1.287 . S
O14 Fe0 1.996 1_655 S
O14 C8 1.255 . S
C15 O19 1.295 . S
C15 O20 1.235 . S
O16 Fe1 1.976 . S
O16 C10 1.287 . S
O17 Fe3 1.996 . S
O17 C10 1.255 . S
C18 O11 1.287 . S
C18 O12 1.255 . S
O19 Fe1 2.002 . S
O19 C15 1.295 . S
O20 Fe3 1.997 . S
O20 C15 1.235 . S
C21 O4 1.295 . S
C21 O5 1.235 . S
Fe22 O24 1.918 . S
Fe22 O27 1.997 . S
Fe22 O28 2.002 . S
Fe22 O33 1.976 . S
Fe22 O36 1.996 . S
Fe23 O24 1.918 . S
Fe23 O31 1.997 . S
Fe23 O34 1.996 . S
Fe23 O38 1.976 . S
Fe23 O41 2.002 . S
O24 Fe22 1.918 . S
O24 Fe23 1.918 . S
O24 Fe25 1.918 . S
Fe25 O24 1.918 . S
Fe25 O26 2.002 . S
Fe25 O35 1.976 . S
Fe25 O39 1.996 . S
Fe25 O42 1.997 . S
O26 Fe25 2.002 . S
O26 C43 1.295 . S
O27 Fe22 1.997 . S
O27 C43 1.235 . S
O28 Fe22 2.002 . S
O28 C29 1.295 . S
C29 O28 1.295 . S
C29 O31 1.235 . S
C30 O35 1.287 . S
C30 O36 1.255 . S
O31 Fe23 1.997 . S
O31 C29 1.235 . S
C32 O38 1.287 . S
C32 O39 1.255 . S
O33 Fe22 1.976 . S
O33 C40 1.287 . S
O34 Fe23 1.996 . S
O34 C40 1.255 . S
O35 Fe25 1.976 . S
O35 C30 1.287 . S
O36 Fe22 1.996 . S
O36 C30 1.255 . S
C37 O41 1.295 . S
C37 O42 1.235 . S
O38 Fe23 1.976 . S
O38 C32 1.287 . S
O39 Fe25 1.996 . S
O39 C32 1.255 . S
C40 O33 1.287 . S
C40 O34 1.255 . S
O41 Fe23 2.002 . S
O41 C37 1.295 . S
O42 Fe25 1.997 . S
O42 C37 1.235 . S
C43 O26 1.295 . S
C43 O27 1.235 . S
Fe44 O46 1.918 . S
Fe44 O49 1.997 . S
Fe44 O50 2.002 . S
Fe44 O55 1.976 . S
Fe44 O58 1.996 . S
Fe45 O46 1.918 . S
Fe45 O53 1.997 . S
Fe45 O56 1.996 . S
Fe45 O60 1.976 . S
Fe45 O63 2.002 . S
O46 Fe44 1.918 . S
O46 Fe45 1.918 . S
O46 Fe47 1.918 . S
Fe47 O46 1.918 . S
Fe47 O48 2.002 . S
Fe47 O57 1.976 . S
Fe47 O61 1.996 . S
Fe47 O64 1.997 . S
O48 Fe47 2.002 . S
O48 C65 1.295 . S
O49 Fe44 1.997 . S
O49 C65 1.235 . S
O50 Fe44 2.002 . S
O50 C51 1.295 . S
C51 O50 1.295 . S
C51 O53 1.235 . S
C52 O57 1.287 . S
C52 O58 1.255 . S
O53 Fe45 1.997 . S
O53 C51 1.235 . S
C54 O60 1.287 . S
C54 O61 1.255 . S
O55 Fe44 1.976 . S
O55 C62 1.287 . S
O56 Fe45 1.996 . S
O56 C62 1.255 . S
O57 Fe47 1.976 . S
O57 C52 1.287 . S
O58 Fe44 1.996 . S
O58 C52 1.255 . S
C59 O63 1.295 . S
C59 O64 1.235 . S
O60 Fe45 1.976 . S
O60 C54 1.287 . S
O61 Fe47 1.996 . S
O61 C54 1.255 . S
C62 O55 1.287 . S
C62 O56 1.255 . S
O63 Fe45 2.002 . S
O63 C59 1.295 . S
O64 Fe47 1.997 . S
O64 C59 1.235 . S
C65 O48 1.295 . S
C65 O49 1.235 . S
Fe66 O68 1.918 . S
Fe66 O71 1.997 . S
Fe66 O72 2.002 . S
Fe66 O77 1.976 . S
Fe66 O80 1.996 . S
Fe67 O68 1.918 . S
Fe67 O75 1.997 . S
Fe67 O78 1.996 . S
Fe67 O82 1.976 . S
Fe67 O85 2.002 . S
O68 Fe66 1.918 . S
O68 Fe67 1.918 . S
O68 Fe69 1.918 . S
Fe69 O68 1.918 . S
Fe69 O70 2.002 . S
Fe69 O79 1.976 . S
Fe69 O83 1.996 . S
Fe69 O86 1.997 . S
O70 Fe69 2.002 . S
O70 C87 1.295 . S
O71 Fe66 1.997 . S
O71 C87 1.235 . S
O72 Fe66 2.002 . S
O72 C73 1.295 . S
C73 O72 1.295 . S
C73 O75 1.235 . S
C74 O79 1.287 . S
C74 O80 1.255 . S
O75 Fe67 1.997 . S
O75 C73 1.235 . S
C76 O82 1.287 . S
C76 O83 1.255 . S
O77 Fe66 1.976 . S
O77 C84 1.287 . S
O78 Fe67 1.996 . S
O78 C84 1.255 . S
O79 Fe69 1.976 . S
O79 C74 1.287 . S
O80 Fe66 1.996 . S
O80 C74 1.255 . S
C81 O85 1.295 . S
C81 O86 1.235 . S
O82 Fe67 1.976 . S
O82 C76 1.287 . S
O83 Fe69 1.996 . S
O83 C76 1.255 . S
C84 O77 1.287 . S
C84 O78 1.255 . S
O85 Fe67 2.002 . S
O85 C81 1.295 . S
O86 Fe69 1.997 . S
O86 C81 1.235 . S
C87 O70 1.295 . S
C87 O71 1.235 . S
Fe88 O90 1.918 . S
Fe88 O93 1.997 . S
Fe88 O94 2.002 . S
Fe88 O99 1.976 . S
Fe88 O102 1.996 . S
Fe89 O90 1.918 . S
Fe89 O97 1.997 . S
Fe89 O100 1.996 . S
Fe89 O104 1.976 . S
Fe89 O107 2.002 . S
O90 Fe88 1.918 . S
O90 Fe89 1.918 . S
O90 Fe91 1.918 . S
Fe91 O90 1.918 . S
Fe91 O92 2.002 . S
Fe91 O101 1.976 . S
Fe91 O105 1.996 . S
Fe91 O108 1.997 . S
O92 Fe91 2.002 . S
O92 C109 1.295 . S
O93 Fe88 1.997 . S
O93 C109 1.235 . S
O94 Fe88 2.002 . S
O94 C95 1.295 . S
C95 O94 1.295 . S
C95 O97 1.235 . S
C96 O101 1.287 . S
C96 O102 1.255 . S
O97 Fe89 1.997 . S
O97 C95 1.235 . S
C98 O104 1.287 . S
C98 O105 1.255 . S
O99 Fe88 1.976 . S
O99 C106 1.287 . S
O100 Fe89 1.996 . S
O100 C106 1.255 . S
O101 Fe91 1.976 . S
O101 C96 1.287 . S
O102 Fe88 1.996 . S
O102 C96 1.255 . S
C103 O107 1.295 . S
C103 O108 1.235 . S
O104 Fe89 1.976 . S
O104 C98 1.287 . S
O105 Fe91 1.996 . S
O105 C98 1.255 . S
C106 O99 1.287 . S
C106 O100 1.255 . S
O107 Fe89 2.002 . S
O107 C103 1.295 . S
O108 Fe91 1.997 . S
O108 C103 1.235 . S
C109 O92 1.295 . S
C109 O93 1.235 . S
Fe110 O112 1.918 . S
Fe110 O115 1.997 . S
Fe110 O116 2.002 . S
Fe110 O121 1.976 . S
Fe110 O124 1.996 . S
Fe111 O112 1.918 . S
Fe111 O119 1.997 . S
Fe111 O122 1.996 . S
Fe111 O126 1.976 . S
Fe111 O129 2.002 . S
O112 Fe110 1.918 . S
O112 Fe111 1.918 . S
O112 Fe113 1.918 . S
Fe113 O112 1.918 . S
Fe113 O114 2.002 . S
Fe113 O123 1.976 . S
Fe113 O127 1.996 . S
Fe113 O130 1.997 . S
O114 Fe113 2.002 . S
O114 C131 1.295 . S
O115 Fe110 1.997 . S
O115 C131 1.235 . S
O116 Fe110 2.002 . S
O116 C117 1.295 . S
C117 O116 1.295 . S
C117 O119 1.235 . S
C118 O123 1.287 . S
C118 O124 1.255 . S
O119 Fe111 1.997 . S
O119 C117 1.235 . S
C120 O126 1.287 . S
C120 O127 1.255 . S
O121 Fe110 1.976 . S
O121 C128 1.287 . S
O122 Fe111 1.996 . S
O122 C128 1.255 . S
O123 Fe113 1.976 . S
O123 C118 1.287 . S
O124 Fe110 1.996 . S
O124 C118 1.255 . S
C125 O129 1.295 . S
C125 O130 1.235 . S
O126 Fe111 1.976 . S
O126 C120 1.287 . S
O127 Fe113 1.996 . S
O127 C120 1.255 . S
C128 O121 1.287 . S
C128 O122 1.255 . S
O129 Fe111 2.002 . S
O129 C125 1.295 . S
O130 Fe113 1.997 . S
O130 C125 1.235 . S
C131 O114 1.295 . S
C131 O115 1.235 . S
Fe132 O134 1.918 . S
Fe132 O137 1.997 . S
Fe132 O138 2.003 1_655 S
Fe132 O143 1.976 1_655 S
Fe132 O146 1.996 . S
Fe133 O134 1.918 . S
Fe133 O141 1.997 1_655 S
Fe133 O144 1.996 1_655 S
Fe133 O148 1.976 . S
Fe133 O151 2.002 . S
O134 Fe132 1.918 . S
O134 Fe133 1.918 . S
O134 Fe135 1.918 . S
Fe135 O134 1.918 . S
Fe135 O136 2.002 . S
Fe135 O145 1.976 . S
Fe135 O149 1.996 . S
Fe135 O152 1.997 . S
O136 Fe135 2.002 . S
O136 C153 1.295 . S
O137 Fe132 1.997 . S
O137 C153 1.235 . S
O138 Fe132 2.003 1_455 S
O138 C139 1.295 . S
C139 O138 1.295 . S
C139 O141 1.235 . S
C140 O145 1.287 . S
C140 O146 1.255 . S
O141 Fe133 1.997 1_455 S
O141 C139 1.235 . S
C142 O148 1.287 . S
C142 O149 1.255 . S
O143 Fe132 1.976 1_455 S
O143 C150 1.287 . S
O144 Fe133 1.996 1_455 S
O144 C150 1.255 . S
O145 Fe135 1.976 . S
O145 C140 1.287 . S
O146 Fe132 1.996 . S
O146 C140 1.255 . S
C147 O151 1.295 . S
C147 O152 1.235 . S
O148 Fe133 1.976 . S
O148 C142 1.287 . S
O149 Fe135 1.996 . S
O149 C142 1.255 . S
C150 O143 1.287 . S
C150 O144 1.255 . S
O151 Fe133 2.002 . S
O151 C147 1.295 . S
O152 Fe135 1.997 . S
O152 C147 1.235 . S
C153 O136 1.295 . S
C153 O137 1.235 . S
Fe154 O156 1.918 . S
Fe154 O159 1.997 . S
Fe154 O160 2.002 . S
Fe154 O165 1.976 . S
Fe154 O168 1.996 . S
Fe155 O156 1.918 . S
Fe155 O163 1.997 . S
Fe155 O166 1.996 . S
Fe155 O170 1.976 . S
Fe155 O173 2.002 . S
O156 Fe154 1.918 . S
O156 Fe155 1.918 . S
O156 Fe157 1.918 . S
Fe157 O156 1.918 . S
Fe157 O158 2.002 . S
Fe157 O167 1.976 . S
Fe157 O171 1.996 . S
Fe157 O174 1.997 . S
O158 Fe157 2.002 . S
O158 C175 1.295 . S
O159 Fe154 1.997 . S
O159 C175 1.235 . S
O160 Fe154 2.002 . S
O160 C161 1.295 . S
C161 O160 1.295 . S
C161 O163 1.235 . S
C162 O167 1.287 . S
C162 O168 1.255 . S
O163 Fe155 1.997 . S
O163 C161 1.235 . S
C164 O170 1.287 . S
C164 O171 1.255 . S
O165 Fe154 1.976 . S
O165 C172 1.287 . S
O166 Fe155 1.996 . S
O166 C172 1.255 . S
O167 Fe157 1.976 . S
O167 C162 1.287 . S
O168 Fe154 1.996 . S
O168 C162 1.255 . S
C169 O173 1.295 . S
C169 O174 1.235 . S
O170 Fe155 1.976 . S
O170 C164 1.287 . S
O171 Fe157 1.996 . S
O171 C164 1.255 . S
C172 O165 1.287 . S
C172 O166 1.255 . S
O173 Fe155 2.002 . S
O173 C169 1.295 . S
O174 Fe157 1.997 . S
O174 C169 1.235 . S
C175 O158 1.295 . S
C175 O159 1.235 . S
Fe176 O178 1.918 . S
Fe176 O181 1.997 . S
Fe176 O182 2.003 1_545 S
Fe176 O187 1.976 1_545 S
Fe176 O190 1.996 . S
Fe177 O178 1.918 . S
Fe177 O185 1.997 1_545 S
Fe177 O188 1.996 1_545 S
Fe177 O192 1.976 . S
Fe177 O195 2.002 . S
O178 Fe176 1.918 . S
O178 Fe177 1.918 . S
O178 Fe179 1.918 . S
Fe179 O178 1.918 . S
Fe179 O180 2.002 . S
Fe179 O189 1.976 . S
Fe179 O193 1.996 . S
Fe179 O196 1.997 . S
O180 Fe179 2.002 . S
O180 C197 1.295 . S
O181 Fe176 1.997 . S
O181 C197 1.235 . S
O182 Fe176 2.003 1_565 S
O182 C183 1.295 . S
C183 O182 1.295 . S
C183 O185 1.235 . S
C184 O189 1.287 . S
C184 O190 1.255 . S
O185 Fe177 1.997 1_565 S
O185 C183 1.235 . S
C186 O192 1.287 . S
C186 O193 1.255 . S
O187 Fe176 1.976 1_565 S
O187 C194 1.287 . S
O188 Fe177 1.996 1_565 S
O188 C194 1.255 . S
O189 Fe179 1.976 . S
O189 C184 1.287 . S
O190 Fe176 1.996 . S
O190 C184 1.255 . S
C191 O195 1.295 . S
C191 O196 1.235 . S
O192 Fe177 1.976 . S
O192 C186 1.287 . S
O193 Fe179 1.996 . S
O193 C186 1.255 . S
C194 O187 1.287 . S
C194 O188 1.255 . S
O195 Fe177 2.002 . S
O195 C191 1.295 . S
O196 Fe179 1.997 . S
O196 C191 1.235 . S
C197 O180 1.295 . S
C197 O181 1.235 . S
Fe198 O200 1.918 . S
Fe198 O203 1.997 . S
Fe198 O204 2.002 . S
Fe198 O209 1.976 . S
Fe198 O212 1.996 . S
Fe199 O200 1.918 . S
Fe199 O207 1.997 . S
Fe199 O210 1.996 . S
Fe199 O214 1.976 . S
Fe199 O217 2.002 . S
O200 Fe198 1.918 . S
O200 Fe199 1.918 . S
O200 Fe201 1.918 . S
Fe201 O200 1.918 . S
Fe201 O202 2.002 . S
Fe201 O211 1.976 . S
Fe201 O215 1.996 . S
Fe201 O218 1.997 . S
O202 Fe201 2.002 . S
O202 C219 1.295 . S
O203 Fe198 1.997 . S
O203 C219 1.235 . S
O204 Fe198 2.002 . S
O204 C205 1.295 . S
C205 O204 1.295 . S
C205 O207 1.235 . S
C206 O211 1.287 . S
C206 O212 1.255 . S
O207 Fe199 1.997 . S
O207 C205 1.235 . S
C208 O214 1.287 . S
C208 O215 1.255 . S
O209 Fe198 1.976 . S
O209 C216 1.287 . S
O210 Fe199 1.996 . S
O210 C216 1.255 . S
O211 Fe201 1.976 . S
O211 C206 1.287 . S
O212 Fe198 1.996 . S
O212 C206 1.255 . S
C213 O217 1.295 . S
C213 O218 1.235 . S
O214 Fe199 1.976 . S
O214 C208 1.287 . S
O215 Fe201 1.996 . S
O215 C208 1.255 . S
C216 O209 1.287 . S
C216 O210 1.255 . S
O217 Fe199 2.002 . S
O217 C213 1.295 . S
O218 Fe201 1.997 . S
O218 C213 1.235 . S
C219 O202 1.295 . S
C219 O203 1.235 . S
Fe220 O222 1.918 . S
Fe220 O225 1.997 1_565 S
Fe220 O226 2.002 . S
Fe220 O231 1.976 . S
Fe220 O234 1.996 1_565 S
Fe221 O222 1.918 . S
Fe221 O229 1.997 . S
Fe221 O232 1.996 . S
Fe221 O236 1.976 . S
Fe221 O239 2.002 . S
O222 Fe220 1.918 . S
O222 Fe221 1.918 . S
O222 Fe223 1.918 . S
Fe223 O222 1.918 . S
Fe223 O224 2.003 1_565 S
Fe223 O233 1.976 1_565 S
Fe223 O237 1.996 . S
Fe223 O240 1.997 . S
O224 Fe223 2.003 1_545 S
O224 C241 1.295 . S
O225 Fe220 1.997 1_545 S
O225 C241 1.235 . S
O226 Fe220 2.002 . S
O226 C227 1.295 . S
C227 O226 1.295 . S
C227 O229 1.235 . S
C228 O233 1.287 . S
C228 O234 1.255 . S
O229 Fe221 1.997 . S
O229 C227 1.235 . S
C230 O236 1.287 . S
C230 O237 1.255 . S
O231 Fe220 1.976 . S
O231 C238 1.287 . S
O232 Fe221 1.996 . S
O232 C238 1.255 . S
O233 Fe223 1.976 1_545 S
O233 C228 1.287 . S
O234 Fe220 1.996 1_545 S
O234 C228 1.255 . S
C235 O239 1.295 . S
C235 O240 1.235 . S
O236 Fe221 1.976 . S
O236 C230 1.287 . S
O237 Fe223 1.996 . S
O237 C230 1.255 . S
C238 O231 1.287 . S
C238 O232 1.255 . S
O239 Fe221 2.002 . S
O239 C235 1.295 . S
O240 Fe223 1.997 . S
O240 C235 1.235 . S
C241 O224 1.295 . S
C241 O225 1.235 . S
Fe242 O244 1.918 . S
Fe242 O247 1.997 . S
Fe242 O248 2.002 . S
Fe242 O253 1.976 . S
Fe242 O256 1.996 . S
Fe243 O244 1.918 . S
Fe243 O251 1.997 . S
Fe243 O254 1.996 . S
Fe243 O258 1.976 . S
Fe243 O261 2.002 . S
O244 Fe242 1.918 . S
O244 Fe243 1.918 . S
O244 Fe245 1.918 . S
Fe245 O244 1.918 . S
Fe245 O246 2.002 . S
Fe245 O255 1.976 . S
Fe245 O259 1.996 . S
Fe245 O262 1.997 . S
O246 Fe245 2.002 . S
O246 C263 1.295 . S
O247 Fe242 1.997 . S
O247 C263 1.235 . S
O248 Fe242 2.002 . S
O248 C249 1.295 . S
C249 O248 1.295 . S
C249 O251 1.235 . S
C250 O255 1.287 . S
C250 O256 1.255 . S
O251 Fe243 1.997 . S
O251 C249 1.235 . S
C252 O258 1.287 . S
C252 O259 1.255 . S
O253 Fe242 1.976 . S
O253 C260 1.287 . S
O254 Fe243 1.996 . S
O254 C260 1.255 . S
O255 Fe245 1.976 . S
O255 C250 1.287 . S
O256 Fe242 1.996 . S
O256 C250 1.255 . S
C257 O261 1.295 . S
C257 O262 1.235 . S
O258 Fe243 1.976 . S
O258 C252 1.287 . S
O259 Fe245 1.996 . S
O259 C252 1.255 . S
C260 O253 1.287 . S
C260 O254 1.255 . S
O261 Fe243 2.002 . S
O261 C257 1.295 . S
O262 Fe245 1.997 . S
O262 C257 1.235 . S
C263 O246 1.295 . S
C263 O247 1.235 . S
Fe264 O266 1.918 . S
Fe264 O269 1.997 . S
Fe264 O270 2.002 . S
Fe264 O275 1.976 . S
Fe264 O278 1.996 . S
Fe265 O266 1.918 . S
Fe265 O273 1.997 . S
Fe265 O276 1.996 . S
Fe265 O280 1.976 . S
Fe265 O283 2.002 . S
O266 Fe264 1.918 . S
O266 Fe265 1.918 . S
O266 Fe267 1.918 . S
Fe267 O266 1.918 . S
Fe267 O268 2.002 . S
Fe267 O277 1.976 . S
Fe267 O281 1.996 . S
Fe267 O284 1.997 . S
O268 Fe267 2.002 . S
O268 C285 1.295 . S
O269 Fe264 1.997 . S
O269 C285 1.235 . S
O270 Fe264 2.002 . S
O270 C271 1.295 . S
C271 O270 1.295 . S
C271 O273 1.235 . S
C272 O277 1.287 . S
C272 O278 1.255 . S
O273 Fe265 1.997 . S
O273 C271 1.235 . S
C274 O280 1.287 . S
C274 O281 1.255 . S
O275 Fe264 1.976 . S
O275 C282 1.287 . S
O276 Fe265 1.996 . S
O276 C282 1.255 . S
O277 Fe267 1.976 . S
O277 C272 1.287 . S
O278 Fe264 1.996 . S
O278 C272 1.255 . S
C279 O283 1.295 . S
C279 O284 1.235 . S
O280 Fe265 1.976 . S
O280 C274 1.287 . S
O281 Fe267 1.996 . S
O281 C274 1.255 . S
C282 O275 1.287 . S
C282 O276 1.255 . S
O283 Fe265 2.002 . S
O283 C279 1.295 . S
O284 Fe267 1.997 . S
O284 C279 1.235 . S
C285 O268 1.295 . S
C285 O269 1.235 . S
Fe286 O288 1.918 . S
Fe286 O291 1.997 . S
Fe286 O292 2.002 . S
Fe286 O297 1.976 . S
Fe286 O300 1.996 . S
Fe287 O288 1.918 . S
Fe287 O295 1.997 . S
Fe287 O298 1.996 . S
Fe287 O302 1.976 . S
Fe287 O305 2.002 . S
O288 Fe286 1.918 . S
O288 Fe287 1.918 . S
O288 Fe289 1.918 . S
Fe289 O288 1.918 . S
Fe289 O290 2.002 . S
Fe289 O299 1.976 . S
Fe289 O303 1.996 . S
Fe289 O306 1.997 . S
O290 Fe289 2.002 . S
O290 C307 1.295 . S
O291 Fe286 1.997 . S
O291 C307 1.235 . S
O292 Fe286 2.002 . S
O292 C293 1.295 . S
C293 O292 1.295 . S
C293 O295 1.235 . S
C294 O299 1.287 . S
C294 O300 1.255 . S
O295 Fe287 1.997 . S
O295 C293 1.235 . S
C296 O302 1.287 . S
C296 O303 1.255 . S
O297 Fe286 1.976 . S
O297 C304 1.287 . S
O298 Fe287 1.996 . S
O298 C304 1.255 . S
O299 Fe289 1.976 . S
O299 C294 1.287 . S
O300 Fe286 1.996 . S
O300 C294 1.255 . S
C301 O305 1.295 . S
C301 O306 1.235 . S
O302 Fe287 1.976 . S
O302 C296 1.287 . S
O303 Fe289 1.996 . S
O303 C296 1.255 . S
C304 O297 1.287 . S
C304 O298 1.255 . S
O305 Fe287 2.002 . S
O305 C301 1.295 . S
O306 Fe289 1.997 . S
O306 C301 1.235 . S
C307 O290 1.295 . S
C307 O291 1.235 . S
Fe308 O310 1.918 . S
Fe308 O313 1.997 . S
Fe308 O314 2.002 . S
Fe308 O319 1.976 . S
Fe308 O322 1.996 . S
Fe309 O310 1.918 . S
Fe309 O317 1.997 . S
Fe309 O320 1.996 . S
Fe309 O324 1.976 . S
Fe309 O327 2.002 . S
O310 Fe308 1.918 . S
O310 Fe309 1.918 . S
O310 Fe311 1.918 . S
Fe311 O310 1.918 . S
Fe311 O312 2.002 . S
Fe311 O321 1.976 . S
Fe311 O325 1.996 . S
Fe311 O328 1.997 . S
O312 Fe311 2.002 . S
O312 C329 1.295 . S
O313 Fe308 1.997 . S
O313 C329 1.235 . S
O314 Fe308 2.002 . S
O314 C315 1.295 . S
C315 O314 1.295 . S
C315 O317 1.235 . S
C316 O321 1.287 . S
C316 O322 1.255 . S
O317 Fe309 1.997 . S
O317 C315 1.235 . S
C318 O324 1.287 . S
C318 O325 1.255 . S
O319 Fe308 1.976 . S
O319 C326 1.287 . S
O320 Fe309 1.996 . S
O320 C326 1.255 . S
O321 Fe311 1.976 . S
O321 C316 1.287 . S
O322 Fe308 1.996 . S
O322 C316 1.255 . S
C323 O327 1.295 . S
C323 O328 1.235 . S
O324 Fe309 1.976 . S
O324 C318 1.287 . S
O325 Fe311 1.996 . S
O325 C318 1.255 . S
C326 O319 1.287 . S
C326 O320 1.255 . S
O327 Fe309 2.002 . S
O327 C323 1.295 . S
O328 Fe311 1.997 . S
O328 C323 1.235 . S
C329 O312 1.295 . S
C329 O313 1.235 . S
Fe330 O332 1.918 . S
Fe330 O335 1.997 . S
Fe330 O336 2.002 . S
Fe330 O341 1.976 . S
Fe330 O344 1.996 . S
Fe331 O332 1.918 . S
Fe331 O339 1.997 . S
Fe331 O342 1.996 . S
Fe331 O346 1.976 . S
Fe331 O349 2.002 . S
O332 Fe330 1.918 . S
O332 Fe331 1.918 . S
O332 Fe333 1.918 . S
Fe333 O332 1.918 . S
Fe333 O334 2.002 . S
Fe333 O343 1.976 . S
Fe333 O347 1.996 . S
Fe333 O350 1.997 . S
O334 Fe333 2.002 . S
O334 C351 1.295 . S
O335 Fe330 1.997 . S
O335 C351 1.235 . S
O336 Fe330 2.002 . S
O336 C337 1.295 . S
C337 O336 1.295 . S
C337 O339 1.235 . S
C338 O343 1.287 . S
C338 O344 1.255 . S
O339 Fe331 1.997 . S
O339 C337 1.235 . S
C340 O346 1.287 . S
C340 O347 1.255 . S
O341 Fe330 1.976 . S
O341 C348 1.287 . S
O342 Fe331 1.996 . S
O342 C348 1.255 . S
O343 Fe333 1.976 . S
O343 C338 1.287 . S
O344 Fe330 1.996 . S
O344 C338 1.255 . S
C345 O349 1.295 . S
C345 O350 1.235 . S
O346 Fe331 1.976 . S
O346 C340 1.287 . S
O347 Fe333 1.996 . S
O347 C340 1.255 . S
C348 O341 1.287 . S
C348 O342 1.255 . S
O349 Fe331 2.002 . S
O349 C345 1.295 . S
O350 Fe333 1.997 . S
O350 C345 1.235 . S
C351 O334 1.295 . S
C351 O335 1.235 . S
Fe352 O354 1.918 . S
Fe352 O357 1.997 . S
Fe352 O358 2.002 . S
Fe352 O363 1.976 . S
Fe352 O366 1.996 . S
Fe353 O354 1.918 . S
Fe353 O361 1.997 . S
Fe353 O364 1.996 . S
Fe353 O368 1.976 1_554 S
Fe353 O371 2.003 1_554 S
O354 Fe352 1.918 . S
O354 Fe353 1.918 . S
O354 Fe355 1.918 . S
Fe355 O354 1.918 . S
Fe355 O356 2.002 . S
Fe355 O365 1.976 . S
Fe355 O369 1.996 1_554 S
Fe355 O372 1.997 1_554 S
O356 Fe355 2.002 . S
O356 C373 1.295 . S
O357 Fe352 1.997 . S
O357 C373 1.235 . S
O358 Fe352 2.002 . S
O358 C359 1.295 . S
C359 O358 1.295 . S
C359 O361 1.235 . S
C360 O365 1.287 . S
C360 O366 1.255 . S
O361 Fe353 1.997 . S
O361 C359 1.235 . S
C362 O368 1.287 . S
C362 O369 1.255 . S
O363 Fe352 1.976 . S
O363 C370 1.287 . S
O364 Fe353 1.996 . S
O364 C370 1.255 . S
O365 Fe355 1.976 . S
O365 C360 1.287 . S
O366 Fe352 1.996 . S
O366 C360 1.255 . S
C367 O371 1.295 . S
C367 O372 1.235 . S
O368 Fe353 1.976 1_556 S
O368 C362 1.287 . S
O369 Fe355 1.996 1_556 S
O369 C362 1.255 . S
C370 O363 1.287 . S
C370 O364 1.255 . S
O371 Fe353 2.003 1_556 S
O371 C367 1.295 . S
O372 Fe355 1.997 1_556 S
O372 C367 1.235 . S
C373 O356 1.295 . S
C373 O357 1.235 . S
Fe374 O376 1.918 . S
Fe374 O379 1.997 1_556 S
Fe374 O380 2.002 . S
Fe374 O385 1.976 . S
Fe374 O388 1.996 1_556 S
Fe375 O376 1.918 . S
Fe375 O383 1.997 . S
Fe375 O386 1.996 . S
Fe375 O390 1.976 . S
Fe375 O393 2.002 . S
O376 Fe374 1.918 . S
O376 Fe375 1.918 . S
O376 Fe377 1.918 . S
Fe377 O376 1.918 . S
Fe377 O378 2.003 1_556 S
Fe377 O387 1.976 1_556 S
Fe377 O391 1.996 . S
Fe377 O394 1.997 . S
O378 Fe377 2.003 1_554 S
O378 C395 1.295 . S
O379 Fe374 1.997 1_554 S
O379 C395 1.235 . S
O380 Fe374 2.002 . S
O380 C381 1.295 . S
C381 O380 1.295 . S
C381 O383 1.235 . S
C382 O387 1.287 . S
C382 O388 1.255 . S
O383 Fe375 1.997 . S
O383 C381 1.235 . S
C384 O390 1.287 . S
C384 O391 1.255 . S
O385 Fe374 1.976 . S
O385 C392 1.287 . S
O386 Fe375 1.996 . S
O386 C392 1.255 . S
O387 Fe377 1.976 1_554 S
O387 C382 1.287 . S
O388 Fe374 1.996 1_554 S
O388 C382 1.255 . S
C389 O393 1.295 . S
C389 O394 1.235 . S
O390 Fe375 1.976 . S
O390 C384 1.287 . S
O391 Fe377 1.996 . S
O391 C384 1.255 . S
C392 O385 1.287 . S
C392 O386 1.255 . S
O393 Fe375 2.002 . S
O393 C389 1.295 . S
O394 Fe377 1.997 . S
O394 C389 1.235 . S
C395 O378 1.295 . S
C395 O379 1.235 . S
Fe396 O398 1.918 . S
Fe396 O401 1.997 . S
Fe396 O402 2.002 . S
Fe396 O407 1.976 . S
Fe396 O410 1.996 . S
Fe397 O398 1.918 . S
Fe397 O405 1.997 . S
Fe397 O408 1.996 . S
Fe397 O412 1.976 . S
Fe397 O415 2.002 . S
O398 Fe396 1.918 . S
O398 Fe397 1.918 . S
O398 Fe399 1.918 . S
Fe399 O398 1.918 . S
Fe399 O400 2.002 . S
Fe399 O409 1.976 . S
Fe399 O413 1.996 . S
Fe399 O416 1.997 . S
O400 Fe399 2.002 . S
O400 C417 1.295 . S
O401 Fe396 1.997 . S
O401 C417 1.235 . S
O402 Fe396 2.002 . S
O402 C403 1.295 . S
C403 O402 1.295 . S
C403 O405 1.235 . S
C404 O409 1.287 . S
C404 O410 1.255 . S
O405 Fe397 1.997 . S
O405 C403 1.235 . S
C406 O412 1.287 . S
C406 O413 1.255 . S
O407 Fe396 1.976 . S
O407 C414 1.287 . S
O408 Fe397 1.996 . S
O408 C414 1.255 . S
O409 Fe399 1.976 . S
O409 C404 1.287 . S
O410 Fe396 1.996 . S
O410 C404 1.255 . S
C411 O415 1.295 . S
C411 O416 1.235 . S
O412 Fe397 1.976 . S
O412 C406 1.287 . S
O413 Fe399 1.996 . S
O413 C406 1.255 . S
C414 O407 1.287 . S
C414 O408 1.255 . S
O415 Fe397 2.002 . S
O415 C411 1.295 . S
O416 Fe399 1.997 . S
O416 C411 1.235 . S
C417 O400 1.295 . S
C417 O401 1.235 . S
Fe418 O420 1.918 . S
Fe418 O423 1.997 . S
Fe418 O424 2.002 . S
Fe418 O429 1.976 . S
Fe418 O432 1.996 . S
Fe419 O420 1.918 . S
Fe419 O427 1.997 . S
Fe419 O430 1.996 . S
Fe419 O434 1.976 . S
Fe419 O437 2.002 . S
O420 Fe418 1.918 . S
O420 Fe419 1.918 . S
O420 Fe421 1.918 . S
Fe421 O420 1.918 . S
Fe421 O422 2.002 . S
Fe421 O431 1.976 . S
Fe421 O435 1.996 . S
Fe421 O438 1.997 . S
O422 Fe421 2.002 . S
O422 C439 1.295 . S
O423 Fe418 1.997 . S
O423 C439 1.235 . S
O424 Fe418 2.002 . S
O424 C425 1.295 . S
C425 O424 1.295 . S
C425 O427 1.235 . S
C426 O431 1.287 . S
C426 O432 1.255 . S
O427 Fe419 1.997 . S
O427 C425 1.235 . S
C428 O434 1.287 . S
C428 O435 1.255 . S
O429 Fe418 1.976 . S
O429 C436 1.287 . S
O430 Fe419 1.996 . S
O430 C436 1.255 . S
O431 Fe421 1.976 . S
O431 C426 1.287 . S
O432 Fe418 1.996 . S
O432 C426 1.255 . S
C433 O437 1.295 . S
C433 O438 1.235 . S
O434 Fe419 1.976 . S
O434 C428 1.287 . S
O435 Fe421 1.996 . S
O435 C428 1.255 . S
C436 O429 1.287 . S
C436 O430 1.255 . S
O437 Fe419 2.002 . S
O437 C433 1.295 . S
O438 Fe421 1.997 . S
O438 C433 1.235 . S
C439 O422 1.295 . S
C439 O423 1.235 . S
Fe440 O442 1.918 . S
Fe440 O445 1.997 . S
Fe440 O446 2.002 . S
Fe440 O451 1.976 . S
Fe440 O454 1.996 . S
Fe441 O442 1.918 . S
Fe441 O449 1.997 . S
Fe441 O452 1.996 . S
Fe441 O456 1.976 . S
Fe441 O459 2.002 . S
O442 Fe440 1.918 . S
O442 Fe441 1.918 . S
O442 Fe443 1.918 . S
Fe443 O442 1.918 . S
Fe443 O444 2.002 . S
Fe443 O453 1.976 . S
Fe443 O457 1.996 . S
Fe443 O460 1.997 . S
O444 Fe443 2.002 . S
O444 C461 1.295 . S
O445 Fe440 1.997 . S
O445 C461 1.235 . S
O446 Fe440 2.002 . S
O446 C447 1.295 . S
C447 O446 1.295 . S
C447 O449 1.235 . S
C448 O453 1.287 . S
C448 O454 1.255 . S
O449 Fe441 1.997 . S
O449 C447 1.235 . S
C450 O456 1.287 . S
C450 O457 1.255 . S
O451 Fe440 1.976 . S
O451 C458 1.287 . S
O452 Fe441 1.996 . S
O452 C458 1.255 . S
O453 Fe443 1.976 . S
O453 C448 1.287 . S
O454 Fe440 1.996 . S
O454 C448 1.255 . S
C455 O459 1.295 . S
C455 O460 1.235 . S
O456 Fe441 1.976 . S
O456 C450 1.287 . S
O457 Fe443 1.996 . S
O457 C450 1.255 . S
C458 O451 1.287 . S
C458 O452 1.255 . S
O459 Fe441 2.002 . S
O459 C455 1.295 . S
O460 Fe443 1.997 . S
O460 C455 1.235 . S
C461 O444 1.295 . S
C461 O445 1.235 . S
Fe462 O464 1.918 . S
Fe462 O467 1.997 . S
Fe462 O468 2.002 . S
Fe462 O473 1.976 . S
Fe462 O476 1.996 . S
Fe463 O464 1.918 . S
Fe463 O471 1.997 . S
Fe463 O474 1.996 . S
Fe463 O478 1.976 . S
Fe463 O481 2.002 . S
O464 Fe462 1.918 . S
O464 Fe463 1.918 . S
O464 Fe465 1.918 . S
Fe465 O464 1.918 . S
Fe465 O466 2.002 . S
Fe465 O475 1.976 . S
Fe465 O479 1.996 . S
Fe465 O482 1.997 . S
O466 Fe465 2.002 . S
O466 C483 1.295 . S
O467 Fe462 1.997 . S
O467 C483 1.235 . S
O468 Fe462 2.002 . S
O468 C469 1.295 . S
C469 O468 1.295 . S
C469 O471 1.235 . S
C470 O475 1.287 . S
C470 O476 1.255 . S
O471 Fe463 1.997 . S
O471 C469 1.235 . S
C472 O478 1.287 . S
C472 O479 1.255 . S
O473 Fe462 1.976 . S
O473 C480 1.287 . S
O474 Fe463 1.996 . S
O474 C480 1.255 . S
O475 Fe465 1.976 . S
O475 C470 1.287 . S
O476 Fe462 1.996 . S
O476 C470 1.255 . S
C477 O481 1.295 . S
C477 O482 1.235 . S
O478 Fe463 1.976 . S
O478 C472 1.287 . S
O479 Fe465 1.996 . S
O479 C472 1.255 . S
C480 O473 1.287 . S
C480 O474 1.255 . S
O481 Fe463 2.002 . S
O481 C477 1.295 . S
O482 Fe465 1.997 . S
O482 C477 1.235 . S
C483 O466 1.295 . S
C483 O467 1.235 . S
Fe484 O486 1.918 . S
Fe484 O489 1.997 . S
Fe484 O490 2.002 . S
Fe484 O495 1.976 . S
Fe484 O498 1.996 . S
Fe485 O486 1.918 . S
Fe485 O493 1.997 . S
Fe485 O496 1.996 . S
Fe485 O500 1.976 . S
Fe485 O503 2.002 . S
O486 Fe484 1.918 . S
O486 Fe485 1.918 . S
O486 Fe487 1.918 . S
Fe487 O486 1.918 . S
Fe487 O488 2.002 . S
Fe487 O497 1.976 . S
Fe487 O501 1.996 . S
Fe487 O504 1.997 . S
O488 Fe487 2.002 . S
O488 C505 1.295 . S
O489 Fe484 1.997 . S
O489 C505 1.235 . S
O490 Fe484 2.002 . S
O490 C491 1.295 . S
C491 O490 1.295 . S
C491 O493 1.235 . S
C492 O497 1.287 . S
C492 O498 1.255 . S
O493 Fe485 1.997 . S
O493 C491 1.235 . S
C494 O500 1.287 . S
C494 O501 1.255 . S
O495 Fe484 1.976 . S
O495 C502 1.287 . S
O496 Fe485 1.996 . S
O496 C502 1.255 . S
O497 Fe487 1.976 . S
O497 C492 1.287 . S
O498 Fe484 1.996 . S
O498 C492 1.255 . S
C499 O503 1.295 . S
C499 O504 1.235 . S
O500 Fe485 1.976 . S
O500 C494 1.287 . S
O501 Fe487 1.996 . S
O501 C494 1.255 . S
C502 O495 1.287 . S
C502 O496 1.255 . S
O503 Fe485 2.002 . S
O503 C499 1.295 . S
O504 Fe487 1.997 . S
O504 C499 1.235 . S
C505 O488 1.295 . S
C505 O489 1.235 . S
Fe506 O508 1.918 . S
Fe506 O511 1.997 . S
Fe506 O512 2.002 . S
Fe506 O517 1.976 . S
Fe506 O520 1.996 . S
Fe507 O508 1.918 . S
Fe507 O515 1.997 . S
Fe507 O518 1.996 . S
Fe507 O522 1.976 . S
Fe507 O525 2.002 . S
O508 Fe506 1.918 . S
O508 Fe507 1.918 . S
O508 Fe509 1.918 . S
Fe509 O508 1.918 . S
Fe509 O510 2.002 . S
Fe509 O519 1.976 . S
Fe509 O523 1.996 . S
Fe509 O526 1.997 . S
O510 Fe509 2.002 . S
O510 C527 1.295 . S
O511 Fe506 1.997 . S
O511 C527 1.235 . S
O512 Fe506 2.002 . S
O512 C513 1.295 . S
C513 O512 1.295 . S
C513 O515 1.235 . S
C514 O519 1.287 . S
C514 O520 1.255 . S
O515 Fe507 1.997 . S
O515 C513 1.235 . S
C516 O522 1.287 . S
C516 O523 1.255 . S
O517 Fe506 1.976 . S
O517 C524 1.287 . S
O518 Fe507 1.996 . S
O518 C524 1.255 . S
O519 Fe509 1.976 . S
O519 C514 1.287 . S
O520 Fe506 1.996 . S
O520 C514 1.255 . S
C521 O525 1.295 . S
C521 O526 1.235 . S
O522 Fe507 1.976 . S
O522 C516 1.287 . S
O523 Fe509 1.996 . S
O523 C516 1.255 . S
C524 O517 1.287 . S
C524 O518 1.255 . S
O525 Fe507 2.002 . S
O525 C521 1.295 . S
O526 Fe509 1.997 . S
O526 C521 1.235 . S
C527 O510 1.295 . S
C527 O511 1.235 . S
C528 C529 1.369 . S
C528 C530 1.419 . S
C528 H532 0.930 . S
C529 C528 1.369 . S
C529 C538 1.429 . S
C530 C528 1.419 . S
C530 C531 1.363 . S
C530 H533 0.929 . S
C531 C530 1.363 . S
C531 C537 1.428 . S
H532 C528 0.930 . S
H533 C530 0.929 . S
S534 N535 1.613 . S
S534 N536 1.610 . S
N535 S534 1.613 . S
N535 C538 1.350 . S
N536 S534 1.610 . S
N536 C537 1.351 . S
C537 C531 1.428 . S
C537 N536 1.351 . S
C537 C538 1.434 . S
C538 C529 1.429 . S
C538 N535 1.350 . S
C538 C537 1.434 . S
C539 C540 1.369 . S
C539 C541 1.419 . S
C539 H543 0.930 . S
C540 C539 1.369 . S
C540 C549 1.429 . S
C541 C539 1.419 . S
C541 C542 1.363 . S
C541 H544 0.929 . S
C542 C541 1.363 . S
C542 C548 1.428 . S
H543 C539 0.930 . S
H544 C541 0.929 . S
S545 N546 1.613 . S
S545 N547 1.610 . S
N546 S545 1.613 . S
N546 C549 1.350 . S
N547 S545 1.610 . S
N547 C548 1.351 . S
C548 C542 1.428 . S
C548 N547 1.351 . S
C548 C549 1.434 . S
C549 C540 1.429 . S
C549 N546 1.350 . S
C549 C548 1.434 . S
C550 C551 1.369 . S
C550 C552 1.419 . S
C550 H554 0.930 . S
C551 C550 1.369 . S
C551 C560 1.429 . S
C552 C550 1.419 . S
C552 C553 1.363 . S
C552 H555 0.929 . S
C553 C552 1.363 . S
C553 C559 1.428 . S
H554 C550 0.930 . S
H555 C552 0.929 . S
S556 N557 1.613 . S
S556 N558 1.610 . S
N557 S556 1.613 . S
N557 C560 1.350 . S
N558 S556 1.610 . S
N558 C559 1.351 . S
C559 C553 1.428 . S
C559 N558 1.351 . S
C559 C560 1.434 . S
C560 C551 1.429 . S
C560 N557 1.350 . S
C560 C559 1.434 . S
C561 C562 1.369 . S
C561 C563 1.419 . S
C561 H565 0.930 . S
C562 C561 1.369 . S
C562 C571 1.429 . S
C563 C561 1.419 . S
C563 C564 1.363 . S
C563 H566 0.929 . S
C564 C563 1.363 . S
C564 C570 1.428 . S
H565 C561 0.930 . S
H566 C563 0.929 . S
S567 N568 1.613 . S
S567 N569 1.610 . S
N568 S567 1.613 . S
N568 C571 1.350 . S
N569 S567 1.610 . S
N569 C570 1.351 . S
C570 C564 1.428 . S
C570 N569 1.351 . S
C570 C571 1.434 . S
C571 C562 1.429 . S
C571 N568 1.350 . S
C571 C570 1.434 . S
C572 C573 1.369 . S
C572 C574 1.419 . S
C572 H576 0.930 . S
C573 C572 1.369 . S
C573 C582 1.429 . S
C574 C572 1.419 . S
C574 C575 1.363 . S
C574 H577 0.929 . S
C575 C574 1.363 . S
C575 C581 1.428 . S
H576 C572 0.930 . S
H577 C574 0.929 . S
S578 N579 1.613 . S
S578 N580 1.610 . S
N579 S578 1.613 . S
N579 C582 1.350 . S
N580 S578 1.610 . S
N580 C581 1.351 . S
C581 C575 1.428 . S
C581 N580 1.351 . S
C581 C582 1.434 . S
C582 C573 1.429 . S
C582 N579 1.350 . S
C582 C581 1.434 . S
C583 C584 1.369 . S
C583 C585 1.419 . S
C583 H587 0.930 . S
C584 C583 1.369 . S
C584 C593 1.429 . S
C585 C583 1.419 . S
C585 C586 1.363 . S
C585 H588 0.929 . S
C586 C585 1.363 . S
C586 C592 1.428 . S
H587 C583 0.930 . S
H588 C585 0.929 . S
S589 N590 1.613 . S
S589 N591 1.610 . S
N590 S589 1.613 . S
N590 C593 1.350 . S
N591 S589 1.610 . S
N591 C592 1.351 . S
C592 C586 1.428 . S
C592 N591 1.351 . S
C592 C593 1.434 . S
C593 C584 1.429 . S
C593 N590 1.350 . S
C593 C592 1.434 . S
C594 C595 1.369 . S
C594 C596 1.419 . S
C594 H598 0.930 . S
C595 C594 1.369 . S
C595 C604 1.429 . S
C596 C594 1.419 . S
C596 C597 1.363 . S
C596 H599 0.929 . S
C597 C596 1.363 . S
C597 C603 1.428 . S
H598 C594 0.930 . S
H599 C596 0.929 . S
S600 N601 1.613 . S
S600 N602 1.610 . S
N601 S600 1.613 . S
N601 C604 1.350 . S
N602 S600 1.610 . S
N602 C603 1.351 . S
C603 C597 1.428 . S
C603 N602 1.351 . S
C603 C604 1.434 . S
C604 C595 1.429 . S
C604 N601 1.350 . S
C604 C603 1.434 . S
C605 C606 1.369 . S
C605 C607 1.419 . S
C605 H609 0.930 . S
C606 C605 1.369 . S
C606 C615 1.429 . S
C607 C605 1.419 . S
C607 C608 1.363 . S
C607 H610 0.929 . S
C608 C607 1.363 . S
C608 C614 1.428 . S
H609 C605 0.930 . S
H610 C607 0.929 . S
S611 N612 1.613 . S
S611 N613 1.610 . S
N612 S611 1.613 . S
N612 C615 1.350 . S
N613 S611 1.610 . S
N613 C614 1.351 . S
C614 C608 1.428 . S
C614 N613 1.351 . S
C614 C615 1.434 . S
C615 C606 1.429 . S
C615 N612 1.350 . S
C615 C614 1.434 . S
C616 C617 1.369 . S
C616 C618 1.419 . S
C616 H620 0.930 . S
C617 C616 1.369 . S
C617 C626 1.429 . S
C618 C616 1.419 . S
C618 C619 1.363 . S
C618 H621 0.929 . S
C619 C618 1.363 . S
C619 C625 1.428 . S
H620 C616 0.930 . S
H621 C618 0.929 . S
S622 N623 1.613 . S
S622 N624 1.610 . S
N623 S622 1.613 . S
N623 C626 1.350 . S
N624 S622 1.610 . S
N624 C625 1.351 . S
C625 C619 1.428 . S
C625 N624 1.351 . S
C625 C626 1.434 . S
C626 C617 1.429 . S
C626 N623 1.350 . S
C626 C625 1.434 . S
C627 C628 1.369 . S
C627 C629 1.419 . S
C627 H631 0.930 . S
C628 C627 1.369 . S
C628 C637 1.429 . S
C629 C627 1.419 . S
C629 C630 1.363 . S
C629 H632 0.929 . S
C630 C629 1.363 . S
C630 C636 1.428 . S
H631 C627 0.930 . S
H632 C629 0.929 . S
S633 N634 1.613 . S
S633 N635 1.610 . S
N634 S633 1.613 . S
N634 C637 1.350 . S
N635 S633 1.610 . S
N635 C636 1.351 . S
C636 C630 1.428 . S
C636 N635 1.351 . S
C636 C637 1.434 . S
C637 C628 1.429 . S
C637 N634 1.350 . S
C637 C636 1.434 . S
C638 C639 1.369 . S
C638 C640 1.419 . S
C638 H642 0.930 . S
C639 C638 1.369 . S
C639 C648 1.429 . S
C640 C638 1.419 . S
C640 C641 1.363 . S
C640 H643 0.929 . S
C641 C640 1.363 . S
C641 C647 1.428 . S
H642 C638 0.930 . S
H643 C640 0.929 . S
S644 N645 1.613 . S
S644 N646 1.610 . S
N645 S644 1.613 . S
N645 C648 1.350 . S
N646 S644 1.610 . S
N646 C647 1.351 . S
C647 C641 1.428 . S
C647 N646 1.351 . S
C647 C648 1.434 . S
C648 C639 1.429 . S
C648 N645 1.350 . S
C648 C647 1.434 . S
C649 C650 1.369 . S
C649 C651 1.419 . S
C649 H653 0.930 . S
C650 C649 1.369 . S
C650 C659 1.429 . S
C651 C649 1.419 . S
C651 C652 1.363 . S
C651 H654 0.929 . S
C652 C651 1.363 . S
C652 C658 1.428 . S
H653 C649 0.930 . S
H654 C651 0.929 . S
S655 N656 1.613 . S
S655 N657 1.610 . S
N656 S655 1.613 . S
N656 C659 1.350 . S
N657 S655 1.610 . S
N657 C658 1.351 . S
C658 C652 1.428 . S
C658 N657 1.351 . S
C658 C659 1.434 . S
C659 C650 1.429 . S
C659 N656 1.350 . S
C659 C658 1.434 . S
C660 C661 1.369 . S
C660 C662 1.419 . S
C660 H664 0.930 . S
C661 C660 1.369 . S
C661 C670 1.429 . S
C662 C660 1.419 . S
C662 C663 1.363 . S
C662 H665 0.929 . S
C663 C662 1.363 . S
C663 C669 1.428 . S
H664 C660 0.930 . S
H665 C662 0.929 . S
S666 N667 1.613 . S
S666 N668 1.610 . S
N667 S666 1.613 . S
N667 C670 1.350 . S
N668 S666 1.610 . S
N668 C669 1.351 . S
C669 C663 1.428 . S
C669 N668 1.351 . S
C669 C670 1.434 . S
C670 C661 1.429 . S
C670 N667 1.350 . S
C670 C669 1.434 . S
C671 C672 1.369 . S
C671 C673 1.419 . S
C671 H675 0.930 . S
C672 C671 1.369 . S
C672 C681 1.429 . S
C673 C671 1.419 . S
C673 C674 1.363 . S
C673 H676 0.929 . S
C674 C673 1.363 . S
C674 C680 1.428 . S
H675 C671 0.930 . S
H676 C673 0.929 . S
S677 N678 1.613 . S
S677 N679 1.610 . S
N678 S677 1.613 . S
N678 C681 1.350 . S
N679 S677 1.610 . S
N679 C680 1.351 . S
C680 C674 1.428 . S
C680 N679 1.351 . S
C680 C681 1.434 . S
C681 C672 1.429 . S
C681 N678 1.350 . S
C681 C680 1.434 . S
C682 C683 1.369 . S
C682 C684 1.419 . S
C682 H686 0.930 . S
C683 C682 1.369 . S
C683 C692 1.429 . S
C684 C682 1.419 . S
C684 C685 1.363 . S
C684 H687 0.929 . S
C685 C684 1.363 . S
C685 C691 1.428 . S
H686 C682 0.930 . S
H687 C684 0.929 . S
S688 N689 1.613 1_554 S
S688 N690 1.610 . S
N689 S688 1.613 1_556 S
N689 C692 1.350 . S
N690 S688 1.610 . S
N690 C691 1.351 1_554 S
C691 C685 1.428 . S
C691 N690 1.351 1_556 S
C691 C692 1.434 . S
C692 C683 1.429 . S
C692 N689 1.350 . S
C692 C691 1.434 . S
C693 C694 1.369 . S
C693 C695 1.419 . S
C693 H697 0.930 . S
C694 C693 1.369 . S
C694 C703 1.429 . S
C695 C693 1.419 . S
C695 C696 1.363 . S
C695 H698 0.929 . S
C696 C695 1.363 . S
C696 C702 1.428 . S
H697 C693 0.930 . S
H698 C695 0.929 . S
S699 N700 1.613 . S
S699 N701 1.610 . S
N700 S699 1.613 . S
N700 C703 1.350 . S
N701 S699 1.610 . S
N701 C702 1.351 . S
C702 C696 1.428 . S
C702 N701 1.351 . S
C702 C703 1.434 . S
C703 C694 1.429 . S
C703 N700 1.350 . S
C703 C702 1.434 . S
C704 C705 1.371 . S
C704 C706 1.444 . S
C704 H708 0.902 1_545 S
C705 C704 1.371 . S
C705 C714 1.429 . S
C706 C704 1.444 . S
C706 C707 1.363 . S
C706 H709 0.929 . S
C707 C706 1.363 . S
C707 C713 1.428 . S
H708 C704 0.902 1_565 S
H709 C706 0.929 . S
S710 N711 1.613 . S
S710 N712 1.610 . S
N711 S710 1.613 . S
N711 C714 1.350 . S
N712 S710 1.610 . S
N712 C713 1.351 . S
C713 C707 1.428 . S
C713 N712 1.351 . S
C713 C714 1.434 . S
C714 C705 1.429 . S
C714 N711 1.350 . S
C714 C713 1.434 . S
C715 C716 1.369 . S
C715 C717 1.419 . S
C715 H719 0.930 . S
C716 C715 1.369 . S
C716 C725 1.429 . S
C717 C715 1.419 . S
C717 C718 1.363 . S
C717 H720 0.929 . S
C718 C717 1.363 . S
C718 C724 1.428 . S
H719 C715 0.930 . S
H720 C717 0.929 . S
S721 N722 1.613 . S
S721 N723 1.610 . S
N722 S721 1.613 . S
N722 C725 1.350 . S
N723 S721 1.610 . S
N723 C724 1.351 . S
C724 C718 1.428 . S
C724 N723 1.351 . S
C724 C725 1.434 . S
C725 C716 1.429 . S
C725 N722 1.350 . S
C725 C724 1.434 . S
C726 C727 1.369 . S
C726 C728 1.419 . S
C726 H730 0.930 . S
C727 C726 1.369 . S
C727 C736 1.429 . S
C728 C726 1.419 . S
C728 C729 1.363 . S
C728 H731 0.929 1_554 S
C729 C728 1.363 . S
C729 C735 1.428 1_565 S
H730 C726 0.930 . S
H731 C728 0.929 1_556 S
S732 N733 1.613 1_545 S
S732 N734 1.610 . S
N733 S732 1.613 1_565 S
N733 C736 1.350 . S
N734 S732 1.610 . S
N734 C735 1.351 . S
C735 C729 1.428 1_545 S
C735 N734 1.351 . S
C735 C736 1.434 1_545 S
C736 C727 1.429 . S
C736 N733 1.350 . S
C736 C735 1.434 1_565 S
C737 C738 1.369 . S
C737 C739 1.419 . S
C737 H741 0.930 . S
C738 C737 1.369 . S
C738 C747 1.429 . S
C739 C737 1.419 . S
C739 C740 1.363 . S
C739 H742 0.929 . S
C740 C739 1.363 . S
C740 C746 1.428 . S
H741 C737 0.930 . S
H742 C739 0.929 . S
S743 N744 1.613 . S
S743 N745 1.610 . S
N744 S743 1.613 . S
N744 C747 1.350 . S
N745 S743 1.610 . S
N745 C746 1.351 . S
C746 C740 1.428 . S
C746 N745 1.351 . S
C746 C747 1.434 . S
C747 C738 1.429 . S
C747 N744 1.350 . S
C747 C746 1.434 . S
C748 C749 1.369 . S
C748 C750 1.419 . S
C748 H752 0.930 . S
C749 C748 1.369 . S
C749 C758 1.429 . S
C750 C748 1.419 . S
C750 C751 1.363 . S
C750 H753 0.929 . S
C751 C750 1.363 . S
C751 C757 1.428 . S
H752 C748 0.930 . S
H753 C750 0.929 . S
S754 N755 1.613 . S
S754 N756 1.610 . S
N755 S754 1.613 . S
N755 C758 1.350 . S
N756 S754 1.610 . S
N756 C757 1.351 . S
C757 C751 1.428 . S
C757 N756 1.351 . S
C757 C758 1.434 . S
C758 C749 1.429 . S
C758 N755 1.350 . S
C758 C757 1.434 . S
C759 C760 1.369 . S
C759 C761 1.419 . S
C759 H763 0.930 . S
C760 C759 1.369 . S
C760 C769 1.429 . S
C761 C759 1.419 . S
C761 C762 1.363 . S
C761 H764 0.929 . S
C762 C761 1.363 . S
C762 C768 1.428 . S
H763 C759 0.930 . S
H764 C761 0.929 . S
S765 N766 1.613 . S
S765 N767 1.610 . S
N766 S765 1.613 . S
N766 C769 1.350 . S
N767 S765 1.610 . S
N767 C768 1.351 . S
C768 C762 1.428 . S
C768 N767 1.351 . S
C768 C769 1.434 . S
C769 C760 1.429 . S
C769 N766 1.350 . S
C769 C768 1.434 . S
C770 C771 1.369 . S
C770 C772 1.419 . S
C770 H774 0.930 . S
C771 C770 1.369 . S
C771 C780 1.429 . S
C772 C770 1.419 . S
C772 C773 1.363 . S
C772 H775 0.929 1_455 S
C773 C772 1.363 . S
C773 C779 1.428 . S
H774 C770 0.930 . S
H775 C772 0.929 1_655 S
S776 N777 1.613 . S
S776 N778 1.610 1_556 S
N777 S776 1.613 . S
N777 C780 1.350 . S
N778 S776 1.610 1_554 S
N778 C779 1.351 1_554 S
C779 C773 1.428 . S
C779 N778 1.351 1_556 S
C779 C780 1.434 . S
C780 C771 1.429 . S
C780 N777 1.350 . S
C780 C779 1.434 . S
C781 C782 1.369 . S
C781 C783 1.419 . S
C781 H785 0.930 . S
C782 C781 1.369 . S
C782 C791 1.429 . S
C783 C781 1.419 . S
C783 C784 1.363 . S
C783 H786 0.929 . S
C784 C783 1.363 . S
C784 C790 1.428 . S
H785 C781 0.930 . S
H786 C783 0.929 . S
S787 N788 1.613 . S
S787 N789 1.610 . S
N788 S787 1.613 . S
N788 C791 1.350 . S
N789 S787 1.610 . S
N789 C790 1.351 . S
C790 C784 1.428 . S
C790 N789 1.351 . S
C790 C791 1.434 . S
C791 C782 1.429 . S
C791 N788 1.350 . S
C791 C790 1.434 . S
C792 C793 1.369 . S
C792 C794 1.419 . S
C792 H796 0.930 . S
C793 C792 1.369 . S
C793 C802 1.429 . S
C794 C792 1.419 . S
C794 C795 1.363 . S
C794 H797 0.929 . S
C795 C794 1.363 . S
C795 C801 1.428 . S
H796 C792 0.930 . S
H797 C794 0.929 . S
S798 N799 1.613 1_655 S
S798 N800 1.610 . S
N799 S798 1.613 1_455 S
N799 C802 1.350 1_455 S
N800 S798 1.610 . S
N800 C801 1.351 . S
C801 C795 1.428 . S
C801 N800 1.351 . S
C801 C802 1.434 . S
C802 C793 1.429 . S
C802 N799 1.350 1_655 S
C802 C801 1.434 . S
C803 C804 1.369 . S
C803 C805 1.419 . S
C803 H807 0.930 . S
C804 C803 1.369 . S
C804 C813 1.429 . S
C805 C803 1.419 . S
C805 C806 1.363 . S
C805 H808 0.929 . S
C806 C805 1.363 . S
C806 C812 1.428 . S
H807 C803 0.930 . S
H808 C805 0.929 . S
S809 N810 1.613 . S
S809 N811 1.610 . S
N810 S809 1.613 . S
N810 C813 1.350 . S
N811 S809 1.610 . S
N811 C812 1.351 . S
C812 C806 1.428 . S
C812 N811 1.351 . S
C812 C813 1.434 . S
C813 C804 1.429 . S
C813 N810 1.350 . S
C813 C812 1.434 . S
C814 C815 1.369 . S
C814 C816 1.419 . S
C814 H818 0.930 . S
C815 C814 1.369 . S
C815 C824 1.429 . S
C816 C814 1.419 . S
C816 C817 1.363 . S
C816 H819 0.929 . S
C817 C816 1.363 . S
C817 C823 1.428 . S
H818 C814 0.930 . S
H819 C816 0.929 . S
S820 N821 1.613 1_556 S
S820 N822 1.610 . S
N821 S820 1.613 1_554 S
N821 C824 1.350 . S
N822 S820 1.610 . S
N822 C823 1.351 1_556 S
C823 C817 1.428 . S
C823 N822 1.351 1_554 S
C823 C824 1.434 . S
C824 C815 1.429 . S
C824 N821 1.350 . S
C824 C823 1.434 . S
C825 C826 1.369 . S
C825 C827 1.419 . S
C825 H829 0.930 . S
C826 C825 1.369 . S
C826 C835 1.429 . S
C827 C825 1.419 . S
C827 C828 1.363 . S
C827 H830 0.929 . S
C828 C827 1.363 . S
C828 C834 1.428 . S
H829 C825 0.930 . S
H830 C827 0.929 . S
S831 N832 1.613 . S
S831 N833 1.610 . S
N832 S831 1.613 . S
N832 C835 1.350 . S
N833 S831 1.610 . S
N833 C834 1.351 . S
C834 C828 1.428 . S
C834 N833 1.351 . S
C834 C835 1.434 . S
C835 C826 1.429 . S
C835 N832 1.350 . S
C835 C834 1.434 . S
C836 C837 1.369 . S
C836 C838 1.419 . S
C836 H840 0.930 . S
C837 C836 1.369 . S
C837 C846 1.429 . S
C838 C836 1.419 . S
C838 C839 1.363 . S
C838 H841 0.929 . S
C839 C838 1.363 . S
C839 C845 1.428 . S
H840 C836 0.930 . S
H841 C838 0.929 . S
S842 N843 1.613 . S
S842 N844 1.610 . S
N843 S842 1.613 . S
N843 C846 1.350 . S
N844 S842 1.610 . S
N844 C845 1.351 . S
C845 C839 1.428 . S
C845 N844 1.351 . S
C845 C846 1.434 . S
C846 C837 1.429 . S
C846 N843 1.350 . S
C846 C845 1.434 . S
C847 C848 1.369 . S
C847 C849 1.419 . S
C847 H851 0.930 . S
C848 C847 1.369 . S
C848 C857 1.429 . S
C849 C847 1.419 . S
C849 C850 1.363 . S
C849 H852 0.929 . S
C850 C849 1.363 . S
C850 C856 1.428 . S
H851 C847 0.930 . S
H852 C849 0.929 . S
S853 N854 1.613 1_655 S
S853 N855 1.610 . S
N854 S853 1.613 1_455 S
N854 C857 1.350 1_455 S
N855 S853 1.610 . S
N855 C856 1.351 . S
C856 C850 1.428 . S
C856 N855 1.351 . S
C856 C857 1.434 . S
C857 C848 1.429 . S
C857 N854 1.350 1_655 S
C857 C856 1.434 . S
C858 C859 1.369 . S
C858 C860 1.419 . S
C858 H862 0.930 . S
C859 C858 1.369 . S
C859 C868 1.429 . S
C860 C858 1.419 . S
C860 C861 1.363 . S
C860 H863 0.929 . S
C861 C860 1.363 . S
C861 C867 1.428 . S
H862 C858 0.930 . S
H863 C860 0.929 . S
S864 N865 1.613 . S
S864 N866 1.610 . S
N865 S864 1.613 . S
N865 C868 1.350 . S
N866 S864 1.610 . S
N866 C867 1.351 . S
C867 C861 1.428 . S
C867 N866 1.351 . S
C867 C868 1.434 . S
C868 C859 1.429 . S
C868 N865 1.350 . S
C868 C867 1.434 . S
C869 C870 1.369 . S
C869 C871 1.419 . S
C869 H873 0.930 . S
C870 C869 1.369 . S
C870 C879 1.429 . S
C871 C869 1.419 . S
C871 C872 1.363 . S
C871 H874 0.929 . S
C872 C871 1.363 . S
C872 C878 1.428 . S
H873 C869 0.930 . S
H874 C871 0.929 . S
S875 N876 1.613 . S
S875 N877 1.610 1_545 S
N876 S875 1.613 . S
N876 C879 1.350 1_545 S
N877 S875 1.610 1_565 S
N877 C878 1.351 . S
C878 C872 1.428 . S
C878 N877 1.351 . S
C878 C879 1.434 . S
C879 C870 1.429 . S
C879 N876 1.350 1_565 S
C879 C878 1.434 . S
C880 C881 1.369 . S
C880 C882 1.419 . S
C880 H884 0.930 . S
C881 C880 1.369 . S
C881 C890 1.429 . S
C882 C880 1.419 . S
C882 C883 1.363 . S
C882 H885 0.929 . S
C883 C882 1.363 . S
C883 C889 1.428 . S
H884 C880 0.930 . S
H885 C882 0.929 . S
S886 N887 1.613 . S
S886 N888 1.610 . S
N887 S886 1.613 . S
N887 C890 1.350 . S
N888 S886 1.610 . S
N888 C889 1.351 . S
C889 C883 1.428 . S
C889 N888 1.351 . S
C889 C890 1.434 . S
C890 C881 1.429 . S
C890 N887 1.350 . S
C890 C889 1.434 . S
C891 C892 1.369 . S
C891 C893 1.419 . S
C891 H895 0.930 1_455 S
C892 C891 1.369 . S
C892 C901 1.429 . S
C893 C891 1.419 . S
C893 C894 1.363 . S
C893 H896 0.929 . S
C894 C893 1.363 . S
C894 C900 1.428 . S
H895 C891 0.930 1_655 S
H896 C893 0.929 . S
S897 N898 1.613 . S
S897 N899 1.610 . S
N898 S897 1.613 . S
N898 C901 1.350 . S
N899 S897 1.610 . S
N899 C900 1.351 . S
C900 C894 1.428 . S
C900 N899 1.351 . S
C900 C901 1.434 . S
C901 C892 1.429 . S
C901 N898 1.350 . S
C901 C900 1.434 . S
C902 C903 1.369 . S
C902 C904 1.419 . S
C902 H906 0.930 . S
C903 C902 1.369 . S
C903 C912 1.429 . S
C904 C902 1.419 . S
C904 C905 1.363 . S
C904 H907 0.929 . S
C905 C904 1.363 . S
C905 C911 1.428 . S
H906 C902 0.930 . S
H907 C904 0.929 . S
S908 N909 1.613 . S
S908 N910 1.610 . S
N909 S908 1.613 . S
N909 C912 1.350 . S
N910 S908 1.610 . S
N910 C911 1.351 . S
C911 C905 1.428 . S
C911 N910 1.351 . S
C911 C912 1.434 . S
C912 C903 1.429 . S
C912 N909 1.350 . S
C912 C911 1.434 . S
C913 C914 1.369 . S
C913 C915 1.419 . S
C913 H917 0.930 . S
C914 C913 1.369 . S
C914 C923 1.429 . S
C915 C913 1.419 . S
C915 C916 1.363 . S
C915 H918 0.929 . S
C916 C915 1.363 . S
C916 C922 1.428 . S
H917 C913 0.930 . S
H918 C915 0.929 . S
S919 N920 1.613 . S
S919 N921 1.610 . S
N920 S919 1.613 . S
N920 C923 1.350 . S
N921 S919 1.610 . S
N921 C922 1.351 . S
C922 C916 1.428 . S
C922 N921 1.351 . S
C922 C923 1.434 . S
C923 C914 1.429 . S
C923 N920 1.350 . S
C923 C922 1.434 . S
C924 C925 1.369 . S
C924 C926 1.419 . S
C924 H928 0.930 . S
C925 C924 1.369 . S
C925 C934 1.429 . S
C926 C924 1.419 . S
C926 C927 1.363 . S
C926 H929 0.929 . S
C927 C926 1.363 . S
C927 C933 1.428 . S
H928 C924 0.930 . S
H929 C926 0.929 . S
S930 N931 1.613 . S
S930 N932 1.610 . S
N931 S930 1.613 . S
N931 C934 1.350 . S
N932 S930 1.610 . S
N932 C933 1.351 . S
C933 C927 1.428 . S
C933 N932 1.351 . S
C933 C934 1.434 . S
C934 C925 1.429 . S
C934 N931 1.350 . S
C934 C933 1.434 . S
C935 C936 1.369 . S
C935 C937 1.419 . S
C935 H939 0.930 . S
C936 C935 1.369 . S
C936 C945 1.429 . S
C937 C935 1.419 . S
C937 C938 1.363 . S
C937 H940 0.929 . S
C938 C937 1.363 . S
C938 C944 1.428 . S
H939 C935 0.930 . S
H940 C937 0.929 . S
S941 N942 1.613 . S
S941 N943 1.610 . S
N942 S941 1.613 . S
N942 C945 1.350 . S
N943 S941 1.610 . S
N943 C944 1.351 . S
C944 C938 1.428 . S
C944 N943 1.351 . S
C944 C945 1.434 . S
C945 C936 1.429 . S
C945 N942 1.350 . S
C945 C944 1.434 . S
C946 C947 1.369 . S
C946 C948 1.419 . S
C946 H950 0.930 . S
C947 C946 1.369 . S
C947 C956 1.429 . S
C948 C946 1.419 . S
C948 C949 1.363 . S
C948 H951 0.929 . S
C949 C948 1.363 . S
C949 C955 1.428 . S
H950 C946 0.930 . S
H951 C948 0.929 . S
S952 N953 1.613 . S
S952 N954 1.610 . S
N953 S952 1.613 . S
N953 C956 1.350 . S
N954 S952 1.610 . S
N954 C955 1.351 . S
C955 C949 1.428 . S
C955 N954 1.351 . S
C955 C956 1.434 . S
C956 C947 1.429 . S
C956 N953 1.350 . S
C956 C955 1.434 . S
C957 C958 1.369 . S
C957 C959 1.419 . S
C957 H961 0.930 . S
C958 C957 1.369 . S
C958 C967 1.429 . S
C959 C957 1.419 . S
C959 C960 1.363 1_554 S
C959 H962 0.927 1_554 S
C960 C959 1.363 1_556 S
C960 C966 1.428 . S
H961 C957 0.930 . S
H962 C959 0.927 1_556 S
S963 N964 1.613 1_556 S
S963 N965 1.610 . S
N964 S963 1.613 1_554 S
N964 C967 1.350 . S
N965 S963 1.610 . S
N965 C966 1.351 . S
C966 C960 1.428 . S
C966 N965 1.351 . S
C966 C967 1.434 1_556 S
C967 C958 1.429 . S
C967 N964 1.350 . S
C967 C966 1.434 1_554 S
C968 C969 1.369 . S
C968 C970 1.419 . S
C968 H972 0.930 . S
C969 C968 1.369 . S
C969 C978 1.429 . S
C970 C968 1.419 . S
C970 C971 1.363 . S
C970 H973 0.929 . S
C971 C970 1.363 . S
C971 C977 1.428 . S
H972 C968 0.930 . S
H973 C970 0.929 . S
S974 N975 1.613 . S
S974 N976 1.610 . S
N975 S974 1.613 . S
N975 C978 1.350 . S
N976 S974 1.610 . S
N976 C977 1.351 . S
C977 C971 1.428 . S
C977 N976 1.351 . S
C977 C978 1.434 . S
C978 C969 1.429 . S
C978 N975 1.350 . S
C978 C977 1.434 . S
C979 C980 1.369 . S
C979 C981 1.432 . S
C979 H983 0.930 . S
C980 C979 1.369 . S
C980 C989 1.429 1_554 S
C981 C979 1.432 . S
C981 C982 1.344 1_554 S
C981 H984 0.936 . S
C982 C981 1.344 1_556 S
C982 C988 1.428 . S
H983 C979 0.930 . S
H984 C981 0.936 . S
S985 N986 1.613 . S
S985 N987 1.610 . S
N986 S985 1.613 . S
N986 C989 1.350 . S
N987 S985 1.610 . S
N987 C988 1.351 . S
C988 C982 1.428 . S
C988 N987 1.351 . S
C988 C989 1.434 . S
C989 C980 1.429 1_556 S
C989 N986 1.350 . S
C989 C988 1.434 . S
C990 C991 1.369 . S
C990 C992 1.419 . S
C990 H994 0.930 1_565 S
C991 C990 1.369 . S
C991 C1000 1.429 . S
C992 C990 1.419 . S
C992 C993 1.363 . S
C992 H995 0.929 . S
C993 C992 1.363 . S
C993 C999 1.428 . S
H994 C990 0.930 1_545 S
H995 C992 0.929 . S
S996 N997 1.613 . S
S996 N998 1.610 . S
N997 S996 1.613 . S
N997 C1000 1.350 . S
N998 S996 1.610 . S
N998 C999 1.351 . S
C999 C993 1.428 . S
C999 N998 1.351 . S
C999 C1000 1.434 . S
C1000 C991 1.429 . S
C1000 N997 1.350 . S
C1000 C999 1.434 . S
C1001 C1002 1.369 . S
C1001 C1003 1.419 . S
C1001 H1005 0.930 . S
C1002 C1001 1.369 . S
C1002 C1011 1.429 . S
C1003 C1001 1.419 . S
C1003 C1004 1.363 . S
C1003 H1006 0.929 . S
C1004 C1003 1.363 . S
C1004 C1010 1.428 . S
H1005 C1001 0.930 . S
H1006 C1003 0.929 . S
S1007 N1008 1.613 . S
S1007 N1009 1.610 . S
N1008 S1007 1.613 . S
N1008 C1011 1.350 . S
N1009 S1007 1.610 . S
N1009 C1010 1.351 . S
C1010 C1004 1.428 . S
C1010 N1009 1.351 . S
C1010 C1011 1.434 . S
C1011 C1002 1.429 . S
C1011 N1008 1.350 . S
C1011 C1010 1.434 . S
C1012 C1013 1.369 . S
C1012 C1014 1.419 . S
C1012 H1016 0.930 . S
C1013 C1012 1.369 . S
C1013 C1022 1.429 . S
C1014 C1012 1.419 . S
C1014 C1015 1.363 . S
C1014 H1017 0.929 . S
C1015 C1014 1.363 . S
C1015 C1021 1.428 . S
H1016 C1012 0.930 . S
H1017 C1014 0.929 . S
S1018 N1019 1.613 1_565 S
S1018 N1020 1.610 . S
N1019 S1018 1.613 1_545 S
N1019 C1022 1.350 . S
N1020 S1018 1.610 . S
N1020 C1021 1.351 1_565 S
C1021 C1015 1.428 . S
C1021 N1020 1.351 1_545 S
C1021 C1022 1.434 . S
C1022 C1013 1.429 . S
C1022 N1019 1.350 . S
C1022 C1021 1.434 . S
C1023 C1024 1.369 1_545 S
C1023 C1025 1.419 . S
C1023 H1027 0.930 . S
C1024 C1023 1.369 1_565 S
C1024 C1033 1.429 . S
C1025 C1023 1.419 . S
C1025 C1026 1.363 . S
C1025 H1028 0.929 . S
C1026 C1025 1.363 . S
C1026 C1032 1.428 1_545 S
H1027 C1023 0.930 . S
H1028 C1025 0.929 . S
S1029 N1030 1.613 . S
S1029 N1031 1.610 . S
N1030 S1029 1.613 . S
N1030 C1033 1.350 . S
N1031 S1029 1.610 . S
N1031 C1032 1.351 . S
C1032 C1026 1.428 1_565 S
C1032 N1031 1.351 . S
C1032 C1033 1.434 . S
C1033 C1024 1.429 . S
C1033 N1030 1.350 . S
C1033 C1032 1.434 . S
C1034 C1035 1.369 . S
C1034 C1036 1.419 . S
C1034 H1038 0.930 . S
C1035 C1034 1.369 . S
C1035 C1044 1.429 . S
C1036 C1034 1.419 . S
C1036 C1037 1.363 . S
C1036 H1039 0.929 . S
C1037 C1036 1.363 . S
C1037 C1043 1.428 . S
H1038 C1034 0.930 . S
H1039 C1036 0.929 . S
S1040 N1041 1.613 . S
S1040 N1042 1.610 . S
N1041 S1040 1.613 . S
N1041 C1044 1.350 . S
N1042 S1040 1.610 . S
N1042 C1043 1.351 . S
C1043 C1037 1.428 . S
C1043 N1042 1.351 . S
C1043 C1044 1.434 . S
C1044 C1035 1.429 . S
C1044 N1041 1.350 . S
C1044 C1043 1.434 . S
C1045 C1046 1.369 1_545 S
C1045 C1047 1.419 . S
C1045 H1049 0.930 . S
C1046 C1045 1.369 1_565 S
C1046 C1055 1.429 . S
C1047 C1045 1.419 . S
C1047 C1048 1.363 . S
C1047 H1050 0.929 . S
C1048 C1047 1.363 . S
C1048 C1054 1.428 1_545 S
H1049 C1045 0.930 . S
H1050 C1047 0.929 . S
S1051 N1052 1.613 . S
S1051 N1053 1.610 . S
N1052 S1051 1.613 . S
N1052 C1055 1.350 . S
N1053 S1051 1.610 . S
N1053 C1054 1.351 . S
C1054 C1048 1.428 1_565 S
C1054 N1053 1.351 . S
C1054 C1055 1.434 . S
C1055 C1046 1.429 . S
C1055 N1052 1.350 . S
C1055 C1054 1.434 . S
C1056 C1057 1.369 . S
C1056 C1058 1.419 . S
C1056 H1060 0.930 . S
C1057 C1056 1.369 . S
C1057 C1066 1.429 . S
C1058 C1056 1.419 . S
C1058 C1059 1.363 . S
C1058 H1061 0.929 . S
C1059 C1058 1.363 . S
C1059 C1065 1.428 . S
H1060 C1056 0.930 . S
H1061 C1058 0.929 . S
S1062 N1063 1.613 . S
S1062 N1064 1.610 . S
N1063 S1062 1.613 . S
N1063 C1066 1.350 . S
N1064 S1062 1.610 . S
N1064 C1065 1.351 . S
C1065 C1059 1.428 . S
C1065 N1064 1.351 . S
C1065 C1066 1.434 . S
C1066 C1057 1.429 . S
C1066 N1063 1.350 . S
C1066 C1065 1.434 . S
C1067 C1068 1.369 . S
C1067 C1069 1.419 . S
C1067 H1071 0.930 . S
C1068 C1067 1.369 . S
C1068 C1077 1.429 . S
C1069 C1067 1.419 . S
C1069 C1070 1.363 . S
C1069 H1072 0.929 . S
C1070 C1069 1.363 . S
C1070 C1076 1.428 . S
H1071 C1067 0.930 . S
H1072 C1069 0.929 . S
S1073 N1074 1.613 . S
S1073 N1075 1.610 . S
N1074 S1073 1.613 . S
N1074 C1077 1.350 . S
N1075 S1073 1.610 . S
N1075 C1076 1.351 . S
C1076 C1070 1.428 . S
C1076 N1075 1.351 . S
C1076 C1077 1.434 . S
C1077 C1068 1.429 . S
C1077 N1074 1.350 . S
C1077 C1076 1.434 . S
C1078 C1079 1.369 . S
C1078 C1080 1.419 . S
C1078 H1082 0.930 . S
C1079 C1078 1.369 . S
C1079 C1088 1.429 . S
C1080 C1078 1.419 . S
C1080 C1081 1.363 . S
C1080 H1083 0.929 . S
C1081 C1080 1.363 . S
C1081 C1087 1.428 . S
H1082 C1078 0.930 . S
H1083 C1080 0.929 . S
S1084 N1085 1.613 1_556 S
S1084 N1086 1.610 . S
N1085 S1084 1.613 1_554 S
N1085 C1088 1.350 . S
N1086 S1084 1.610 . S
N1086 C1087 1.351 1_556 S
C1087 C1081 1.428 . S
C1087 N1086 1.351 1_554 S
C1087 C1088 1.434 . S
C1088 C1079 1.429 . S
C1088 N1085 1.350 . S
C1088 C1087 1.434 . S
C1089 C1090 1.369 . S
C1089 C1091 1.419 . S
C1089 H1093 0.930 . S
C1090 C1089 1.369 . S
C1090 C1099 1.429 . S
C1091 C1089 1.419 . S
C1091 C1092 1.363 . S
C1091 H1094 0.929 . S
C1092 C1091 1.363 . S
C1092 C1098 1.428 . S
H1093 C1089 0.930 . S
H1094 C1091 0.929 . S
S1095 N1096 1.613 . S
S1095 N1097 1.610 . S
N1096 S1095 1.613 . S
N1096 C1099 1.350 . S
N1097 S1095 1.610 . S
N1097 C1098 1.351 . S
C1098 C1092 1.428 . S
C1098 N1097 1.351 . S
C1098 C1099 1.434 . S
C1099 C1090 1.429 . S
C1099 N1096 1.350 . S
C1099 C1098 1.434 . S
C1100 C1101 1.369 . S
C1100 C1102 1.419 . S
C1100 H1104 0.930 . S
C1101 C1100 1.369 . S
C1101 C1110 1.429 . S
C1102 C1100 1.419 . S
C1102 C1103 1.363 . S
C1102 H1105 0.929 . S
C1103 C1102 1.363 . S
C1103 C1109 1.428 . S
H1104 C1100 0.930 . S
H1105 C1102 0.929 . S
S1106 N1107 1.613 1_556 S
S1106 N1108 1.610 . S
N1107 S1106 1.613 1_554 S
N1107 C1110 1.350 . S
N1108 S1106 1.610 . S
N1108 C1109 1.351 1_556 S
C1109 C1103 1.428 . S
C1109 N1108 1.351 1_554 S
C1109 C1110 1.434 . S
C1110 C1101 1.429 . S
C1110 N1107 1.350 . S
C1110 C1109 1.434 . S
C1111 C1112 1.369 . S
C1111 C1113 1.419 . S
C1111 H1115 0.930 . S
C1112 C1111 1.369 . S
C1112 C1121 1.429 . S
C1113 C1111 1.419 . S
C1113 C1114 1.363 . S
C1113 H1116 0.929 . S
C1114 C1113 1.363 . S
C1114 C1120 1.428 . S
H1115 C1111 0.930 . S
H1116 C1113 0.929 . S
S1117 N1118 1.613 . S
S1117 N1119 1.610 . S
N1118 S1117 1.613 . S
N1118 C1121 1.350 . S
N1119 S1117 1.610 . S
N1119 C1120 1.351 . S
C1120 C1114 1.428 . S
C1120 N1119 1.351 . S
C1120 C1121 1.434 . S
C1121 C1112 1.429 . S
C1121 N1118 1.350 . S
C1121 C1120 1.434 . S
C1122 C1123 1.369 . S
C1122 C1124 1.419 1_655 S
C1122 H1126 0.930 . S
C1123 C1122 1.369 . S
C1123 C1132 1.429 1_655 S
C1124 C1122 1.419 1_455 S
C1124 C1125 1.363 . S
C1124 H1127 0.929 . S
C1125 C1124 1.363 . S
C1125 C1131 1.428 . S
H1126 C1122 0.930 . S
H1127 C1124 0.929 . S
S1128 N1129 1.613 1_455 S
S1128 N1130 1.610 . S
N1129 S1128 1.613 1_655 S
N1129 C1132 1.350 1_655 S
N1130 S1128 1.610 . S
N1130 C1131 1.351 . S
C1131 C1125 1.428 . S
C1131 N1130 1.351 . S
C1131 C1132 1.434 . S
C1132 C1123 1.429 1_455 S
C1132 N1129 1.350 1_455 S
C1132 C1131 1.434 . S
C1133 C1134 1.369 . S
C1133 C1135 1.419 . S
C1133 H1137 0.930 . S
C1134 C1133 1.369 . S
C1134 C1143 1.429 . S
C1135 C1133 1.419 . S
C1135 C1136 1.363 . S
C1135 H1138 0.929 . S
C1136 C1135 1.363 . S
C1136 C1142 1.428 . S
H1137 C1133 0.930 . S
H1138 C1135 0.929 . S
S1139 N1140 1.613 . S
S1139 N1141 1.610 . S
N1140 S1139 1.613 . S
N1140 C1143 1.350 . S
N1141 S1139 1.610 . S
N1141 C1142 1.351 . S
C1142 C1136 1.428 . S
C1142 N1141 1.351 . S
C1142 C1143 1.434 . S
C1143 C1134 1.429 . S
C1143 N1140 1.350 . S
C1143 C1142 1.434 . S
C1144 C1145 1.369 . S
C1144 C1146 1.419 . S
C1144 H1148 0.930 . S
C1145 C1144 1.369 . S
C1145 C1154 1.429 . S
C1146 C1144 1.419 . S
C1146 C1147 1.363 . S
C1146 H1149 0.929 . S
C1147 C1146 1.363 . S
C1147 C1153 1.428 . S
H1148 C1144 0.930 . S
H1149 C1146 0.929 . S
S1150 N1151 1.613 . S
S1150 N1152 1.610 . S
N1151 S1150 1.613 . S
N1151 C1154 1.350 . S
N1152 S1150 1.610 . S
N1152 C1153 1.351 . S
C1153 C1147 1.428 . S
C1153 N1152 1.351 . S
C1153 C1154 1.434 . S
C1154 C1145 1.429 . S
C1154 N1151 1.350 . S
C1154 C1153 1.434 . S
C1155 C1156 1.369 . S
C1155 C1157 1.419 . S
C1155 H1159 0.930 . S
C1156 C1155 1.369 . S
C1156 C1165 1.429 . S
C1157 C1155 1.419 . S
C1157 C1158 1.363 . S
C1157 H1160 0.929 . S
C1158 C1157 1.363 . S
C1158 C1164 1.428 . S
H1159 C1155 0.930 . S
H1160 C1157 0.929 . S
S1161 N1162 1.621 . S
S1161 N1163 1.588 1_655 S
N1162 S1161 1.621 . S
N1162 C1165 1.350 1_655 S
N1163 S1161 1.588 1_455 S
N1163 C1164 1.351 . S
C1164 C1158 1.428 . S
C1164 N1163 1.351 . S
C1164 C1165 1.434 . S
C1165 C1156 1.429 . S
C1165 N1162 1.350 1_455 S
C1165 C1164 1.434 . S
C1166 C1167 1.369 . S
C1166 C1168 1.419 . S
C1166 H1170 0.930 . S
C1167 C1166 1.369 . S
C1167 C1176 1.429 . S
C1168 C1166 1.419 . S
C1168 C1169 1.363 . S
C1168 H1171 0.929 . S
C1169 C1168 1.363 . S
C1169 C1175 1.428 . S
H1170 C1166 0.930 . S
H1171 C1168 0.929 . S
S1172 N1173 1.613 . S
S1172 N1174 1.610 . S
N1173 S1172 1.613 . S
N1173 C1176 1.350 . S
N1174 S1172 1.610 . S
N1174 C1175 1.351 . S
C1175 C1169 1.428 . S
C1175 N1174 1.351 . S
C1175 C1176 1.434 . S
C1176 C1167 1.429 . S
C1176 N1173 1.350 . S
C1176 C1175 1.434 . S
C1177 C1178 1.369 . S
C1177 C1179 1.419 1_655 S
C1177 H1181 0.930 . S
C1178 C1177 1.369 . S
C1178 C1187 1.429 . S
C1179 C1177 1.419 1_455 S
C1179 C1180 1.363 . S
C1179 H1182 0.929 . S
C1180 C1179 1.363 . S
C1180 C1186 1.428 1_455 S
H1181 C1177 0.930 . S
H1182 C1179 0.929 . S
S1183 N1184 1.613 . S
S1183 N1185 1.610 1_655 S
N1184 S1183 1.613 . S
N1184 C1187 1.350 . S
N1185 S1183 1.610 1_455 S
N1185 C1186 1.351 1_455 S
C1186 C1180 1.428 1_655 S
C1186 N1185 1.351 1_655 S
C1186 C1187 1.434 . S
C1187 C1178 1.429 . S
C1187 N1184 1.350 . S
C1187 C1186 1.434 . S
C1188 C1189 1.369 . S
C1188 C1190 1.419 . S
C1188 H1192 0.930 . S
C1189 C1188 1.369 . S
C1189 C1198 1.429 . S
C1190 C1188 1.419 . S
C1190 C1191 1.363 . S
C1190 H1193 0.929 . S
C1191 C1190 1.363 . S
C1191 C1197 1.428 . S
H1192 C1188 0.930 . S
H1193 C1190 0.929 . S
S1194 N1195 1.613 . S
S1194 N1196 1.610 . S
N1195 S1194 1.613 . S
N1195 C1198 1.350 . S
N1196 S1194 1.610 . S
N1196 C1197 1.351 . S
C1197 C1191 1.428 . S
C1197 N1196 1.351 . S
C1197 C1198 1.434 . S
C1198 C1189 1.429 . S
C1198 N1195 1.350 . S
C1198 C1197 1.434 . S
C1199 C1200 1.369 . S
C1199 C1201 1.419 1_455 S
C1199 H1203 0.930 1_455 S
C1200 C1199 1.369 . S
C1200 C1209 1.429 . S
C1201 C1199 1.419 1_655 S
C1201 C1202 1.363 . S
C1201 H1204 0.929 . S
C1202 C1201 1.363 . S
C1202 C1208 1.428 1_655 S
H1203 C1199 0.930 1_655 S
H1204 C1201 0.929 . S
S1205 N1206 1.613 . S
S1205 N1207 1.610 . S
N1206 S1205 1.613 . S
N1206 C1209 1.350 . S
N1207 S1205 1.610 . S
N1207 C1208 1.351 . S
C1208 C1202 1.428 1_455 S
C1208 N1207 1.351 . S
C1208 C1209 1.434 . S
C1209 C1200 1.429 . S
C1209 N1206 1.350 . S
C1209 C1208 1.434 . S
C1210 C1211 1.369 . S
C1210 C1212 1.419 1_556 S
C1210 H1214 0.930 1_556 S
C1211 C1210 1.369 . S
C1211 C1220 1.429 . S
C1212 C1210 1.419 1_554 S
C1212 C1213 1.363 . S
C1212 H1215 0.929 . S
C1213 C1212 1.363 . S
C1213 C1219 1.428 1_554 S
H1214 C1210 0.930 1_554 S
H1215 C1212 0.929 . S
S1216 N1217 1.613 . S
S1216 N1218 1.610 . S
N1217 S1216 1.613 . S
N1217 C1220 1.350 . S
N1218 S1216 1.610 . S
N1218 C1219 1.351 . S
C1219 C1213 1.428 1_556 S
C1219 N1218 1.351 . S
C1219 C1220 1.434 . S
C1220 C1211 1.429 . S
C1220 N1217 1.350 . S
C1220 C1219 1.434 . S
C1221 C1222 1.369 . S
C1221 C1223 1.419 . S
C1221 H1225 0.930 . S
C1222 C1221 1.369 . S
C1222 C1231 1.429 . S
C1223 C1221 1.419 . S
C1223 C1224 1.363 . S
C1223 H1226 0.929 . S
C1224 C1223 1.363 . S
C1224 C1230 1.428 . S
H1225 C1221 0.930 . S
H1226 C1223 0.929 . S
S1227 N1228 1.613 . S
S1227 N1229 1.610 . S
N1228 S1227 1.613 . S
N1228 C1231 1.350 . S
N1229 S1227 1.610 . S
N1229 C1230 1.351 . S
C1230 C1224 1.428 . S
C1230 N1229 1.351 . S
C1230 C1231 1.434 . S
C1231 C1222 1.429 . S
C1231 N1228 1.350 . S
C1231 C1230 1.434 . S
C1232 C1233 1.369 . S
C1232 C1234 1.419 . S
C1232 H1236 0.930 . S
C1233 C1232 1.369 . S
C1233 C1242 1.429 . S
C1234 C1232 1.419 . S
C1234 C1235 1.363 . S
C1234 H1237 0.929 . S
C1235 C1234 1.363 . S
C1235 C1241 1.428 . S
H1236 C1232 0.930 . S
H1237 C1234 0.929 . S
S1238 N1239 1.613 . S
S1238 N1240 1.610 . S
N1239 S1238 1.613 . S
N1239 C1242 1.350 . S
N1240 S1238 1.610 . S
N1240 C1241 1.351 . S
C1241 C1235 1.428 . S
C1241 N1240 1.351 . S
C1241 C1242 1.434 . S
C1242 C1233 1.429 . S
C1242 N1239 1.350 . S
C1242 C1241 1.434 . S
C1243 C1244 1.369 . S
C1243 C1245 1.419 1_655 S
C1243 H1247 0.930 1_655 S
C1244 C1243 1.369 . S
C1244 C1253 1.429 . S
C1245 C1243 1.419 1_455 S
C1245 C1246 1.363 . S
C1245 H1248 0.929 . S
C1246 C1245 1.363 . S
C1246 C1252 1.428 1_455 S
H1247 C1243 0.930 1_455 S
H1248 C1245 0.929 . S
S1249 N1250 1.613 . S
S1249 N1251 1.610 . S
N1250 S1249 1.613 . S
N1250 C1253 1.350 . S
N1251 S1249 1.610 . S
N1251 C1252 1.351 . S
C1252 C1246 1.428 1_655 S
C1252 N1251 1.351 . S
C1252 C1253 1.434 . S
C1253 C1244 1.429 . S
C1253 N1250 1.350 . S
C1253 C1252 1.434 . S
C1254 C1255 1.369 . S
C1254 C1256 1.419 . S
C1254 H1258 0.930 . S
C1255 C1254 1.369 . S
C1255 C1264 1.425 1_554 S
C1256 C1254 1.419 . S
C1256 C1257 1.363 1_554 S
C1256 H1259 0.929 . S
C1257 C1256 1.363 1_556 S
C1257 C1263 1.428 . S
H1258 C1254 0.930 . S
H1259 C1256 0.929 . S
S1260 N1261 1.613 . S
S1260 N1262 1.610 . S
N1261 S1260 1.613 . S
N1261 C1264 1.352 . S
N1262 S1260 1.610 . S
N1262 C1263 1.351 . S
C1263 C1257 1.428 . S
C1263 N1262 1.351 . S
C1263 C1264 1.436 . S
C1264 C1255 1.425 1_556 S
C1264 N1261 1.352 . S
C1264 C1263 1.436 . S
C1265 C1266 1.369 . S
C1265 C1267 1.419 . S
C1265 H1269 0.930 . S
C1266 C1265 1.369 . S
C1266 C1275 1.429 . S
C1267 C1265 1.419 . S
C1267 C1268 1.363 . S
C1267 H1270 0.929 . S
C1268 C1267 1.363 . S
C1268 C1274 1.428 . S
H1269 C1265 0.930 . S
H1270 C1267 0.929 . S
S1271 N1272 1.613 . S
S1271 N1273 1.610 . S
N1272 S1271 1.613 . S
N1272 C1275 1.350 . S
N1273 S1271 1.610 . S
N1273 C1274 1.351 . S
C1274 C1268 1.428 . S
C1274 N1273 1.351 . S
C1274 C1275 1.434 . S
C1275 C1266 1.429 . S
C1275 N1272 1.350 . S
C1275 C1274 1.434 . S
C1276 C1277 1.369 . S
C1276 C1278 1.419 . S
C1276 H1280 0.930 . S
C1277 C1276 1.369 . S
C1277 C1286 1.429 . S
C1278 C1276 1.419 . S
C1278 C1279 1.363 . S
C1278 H1281 0.929 . S
C1279 C1278 1.363 . S
C1279 C1285 1.428 . S
H1280 C1276 0.930 . S
H1281 C1278 0.929 . S
S1282 N1283 1.613 . S
S1282 N1284 1.610 . S
N1283 S1282 1.613 . S
N1283 C1286 1.350 . S
N1284 S1282 1.610 . S
N1284 C1285 1.351 . S
C1285 C1279 1.428 . S
C1285 N1284 1.351 . S
C1285 C1286 1.434 . S
C1286 C1277 1.429 . S
C1286 N1283 1.350 . S
C1286 C1285 1.434 . S
C1287 C1288 1.369 . S
C1287 C1289 1.419 . S
C1287 H1291 0.930 . S
C1288 C1287 1.369 . S
C1288 C1297 1.429 . S
C1289 C1287 1.419 . S
C1289 C1290 1.363 1_545 S
C1289 H1292 0.933 . S
C1290 C1289 1.363 1_565 S
C1290 C1296 1.429 1_565 S
H1291 C1287 0.930 . S
H1292 C1289 0.933 . S
S1293 N1294 1.613 . S
S1293 N1295 1.610 1_545 S
N1294 S1293 1.613 . S
N1294 C1297 1.350 . S
N1295 S1293 1.610 1_565 S
N1295 C1296 1.351 1_565 S
C1296 C1290 1.429 1_545 S
C1296 N1295 1.351 1_545 S
C1296 C1297 1.433 . S
C1297 C1288 1.429 . S
C1297 N1294 1.350 . S
C1297 C1296 1.433 . S
C1298 C1299 1.369 1_565 S
C1298 C1300 1.419 . S
C1298 H1302 0.930 . S
C1299 C1298 1.369 1_545 S
C1299 C1308 1.429 . S
C1300 C1298 1.419 . S
C1300 C1301 1.363 . S
C1300 H1303 0.929 . S
C1301 C1300 1.363 . S
C1301 C1307 1.428 . S
H1302 C1298 0.930 . S
H1303 C1300 0.929 . S
S1304 N1305 1.613 . S
S1304 N1306 1.610 1_545 S
N1305 S1304 1.613 . S
N1305 C1308 1.350 . S
N1306 S1304 1.610 1_565 S
N1306 C1307 1.351 . S
C1307 C1301 1.428 . S
C1307 N1306 1.351 . S
C1307 C1308 1.434 1_565 S
C1308 C1299 1.429 . S
C1308 N1305 1.350 . S
C1308 C1307 1.434 1_545 S
C1309 C1310 1.369 . S
C1309 C1311 1.419 . S
C1309 H1313 0.930 . S
C1310 C1309 1.369 . S
C1310 C1319 1.429 . S
C1311 C1309 1.419 . S
C1311 C1312 1.363 . S
C1311 H1314 0.929 . S
C1312 C1311 1.363 . S
C1312 C1318 1.428 . S
H1313 C1309 0.930 . S
H1314 C1311 0.929 . S
S1315 N1316 1.613 . S
S1315 N1317 1.610 . S
N1316 S1315 1.613 . S
N1316 C1319 1.350 . S
N1317 S1315 1.610 . S
N1317 C1318 1.351 . S
C1318 C1312 1.428 . S
C1318 N1317 1.351 . S
C1318 C1319 1.434 . S
C1319 C1310 1.429 . S
C1319 N1316 1.350 . S
C1319 C1318 1.434 . S
C529 C8 1.110 . S
C531 C348 1.105 . S
C540 C282 1.104 . S
C542 C32 1.109 . S
C551 C294 1.103 . S
C553 C52 1.109 . S
C562 C76 1.109 . S
C564 C316 1.100 . S
C573 C96 1.100 . S
C575 C206 1.109 . S
C584 C120 1.099 . S
C586 C228 1.106 . S
C595 C150 1.107 . S
C597 C252 1.108 . S
C606 C172 1.105 . S
C608 C194 1.100 . S
C617 C362 1.110 . S
C619 C448 1.103 . S
C628 C382 1.109 . S
C630 C516 1.106 . S
C639 C406 1.108 . S
C641 C480 1.100 . S
C650 C426 1.109 . S
C652 C502 1.106 . S
C661 C469 1.410 . S
C663 C15 1.374 . S
C672 C29 1.376 . S
C674 C491 1.405 . S
C683 C59 1.366 . S
C685 C367 1.409 . S
C694 C73 1.371 . S
C696 C521 1.405 . S
C705 C439 1.411 1_545 S
C707 C103 1.373 . S
C716 C461 1.404 . S
C718 C117 1.374 . S
C727 C153 1.372 . S
C729 C395 1.405 1_565 S
C738 C175 1.368 . S
C740 C411 1.410 . S
C749 C197 1.376 . S
C751 C109 1.405 . S
C760 C213 1.376 . S
C762 C125 1.406 . S
C771 C235 1.377 . S
C773 C139 1.406 1_556 S
C782 C249 1.372 . S
C784 C161 1.411 . S
C793 C21 1.411 . S
C795 C285 1.369 . S
C804 C301 1.368 . S
C806 C37 1.406 . S
C815 C323 1.369 . S
C817 C65 1.405 1_554 S
C826 C351 1.372 . S
C828 C81 1.405 . S
C837 C329 1.407 . S
C839 C359 1.368 . S
C848 C241 1.409 1_655 S
C850 C389 1.368 . S
C859 C403 1.372 . S
C861 C257 1.405 . S
C870 C183 1.410 . S
C872 C433 1.374 . S
C881 C455 1.377 . S
C883 C219 1.409 . S
C892 C271 1.409 1_455 S
C894 C483 1.375 . S
C903 C307 1.404 . S
C905 C505 1.370 . S
C914 C337 1.404 . S
C916 C513 1.370 . S
C925 C404 1.533 . S
C927 C10 1.589 . S
C936 C40 1.585 . S
C938 C436 1.529 . S
C947 C458 1.535 . S
C949 C54 1.589 . S
C958 C84 1.586 . S
C960 C392 1.529 . S
C969 C494 1.531 1_545 S
C971 C98 1.588 . S
C980 C360 1.527 . S
C982 C128 1.585 . S
C991 C514 1.534 1_565 S
C993 C140 1.589 . S
C1002 C472 1.534 . S
C1004 C162 1.586 . S
C1013 C216 1.537 . S
C1015 C184 1.587 . S
C1024 C238 1.537 . S
C1026 C208 1.589 . S
C1035 C230 1.585 . S
C1037 C250 1.529 1_556 S
C1046 C260 1.583 . S
C1048 C186 1.530 . S
C1057 C340 1.530 . S
C1059 C272 1.587 . S
C1068 C274 1.529 . S
C1070 C296 1.584 . S
C1079 C318 1.583 . S
C1081 C304 1.530 1_554 S
C1090 C338 1.585 . S
C1092 C326 1.533 . S
C1101 C74 1.532 . S
C1103 C370 1.585 . S
C1112 C118 1.531 1_655 S
C1114 C384 1.588 . S
C1123 C142 1.529 . S
C1125 C414 1.587 . S
C1134 C164 1.528 . S
C1136 C428 1.586 . S
C1145 C106 1.537 . S
C1147 C450 1.589 . S
C1156 C30 1.527 1_455 S
C1158 C470 1.585 . S
C1167 C62 1.528 . S
C1169 C492 1.584 . S
C1178 C524 1.587 . S
C1180 C18 1.535 . S
C1189 C7 1.600 . S
C1191 C205 1.600 . S
C1200 C227 1.600 . S
C1202 C43 1.600 . S
C1211 C51 1.600 . S
C1213 C263 1.600 . S
C1222 C87 1.600 . S
C1224 C191 1.600 . S
C1233 C95 1.602 . S
C1235 C345 1.602 . S
C1244 C279 1.600 . S
C1246 C131 1.600 . S
C1255 C147 1.602 . S
C1257 C293 1.602 . S
C1266 C169 1.600 . S
C1268 C315 1.601 . S
C1277 C373 1.602 . S
C1279 C417 1.602 . S
C1288 C381 1.601 . S
C1290 C499 1.601 . S
C1299 C527 1.602 . S
C1301 C425 1.602 . S
C1310 C447 1.600 . S
C1312 C477 1.600 . S
