# Generated by pormake.
# Topology umc, (4)-cn, num edge types: 1
# Building blocks:
#     Node 0, Type 0, BuildingBlock: CEKHIL_clean_sbu_0, # of connection points: 4
#     Node 1, Type 0, BuildingBlock: CEKHIL_clean_sbu_0, # of connection points: 4
#     Node 2, Type 0, BuildingBlock: CEKHIL_clean_sbu_0, # of connection points: 4
#     Node 3, Type 0, BuildingBlock: CEKHIL_clean_sbu_0, # of connection points: 4
#     Node 4, Type 0, BuildingBlock: CEKHIL_clean_sbu_0, # of connection points: 4
#     Node 5, Type 0, BuildingBlock: CEKHIL_clean_sbu_0, # of connection points: 4
#     Node 6, Type 0, BuildingBlock: CEKHIL_clean_sbu_0, # of connection points: 4
#     Node 7, Type 0, BuildingBlock: CEKHIL_clean_sbu_0, # of connection points: 4
#     Node 8, Type 0, BuildingBlock: CEKHIL_clean_sbu_0, # of connection points: 4
#     Node 9, Type 0, BuildingBlock: CEKHIL_clean_sbu_0, # of connection points: 4
#     Node 10, Type 0, BuildingBlock: CEKHIL_clean_sbu_0, # of connection points: 4
#     Node 11, Type 0, BuildingBlock: CEKHIL_clean_sbu_0, # of connection points: 4
#     Node 12, Type 0, BuildingBlock: CEKHIL_clean_sbu_0, # of connection points: 4
#     Node 13, Type 0, BuildingBlock: CEKHIL_clean_sbu_0, # of connection points: 4
#     Node 14, Type 0, BuildingBlock: CEKHIL_clean_sbu_0, # of connection points: 4
#     Node 15, Type 0, BuildingBlock: CEKHIL_clean_sbu_0, # of connection points: 4
#     Edge 16, Type (0, 0), BuildingBlock: UVAHIK_clean_linker_0, # of connection points: 2
#     Edge 17, Type (0, 0), BuildingBlock: UVAHIK_clean_linker_0, # of connection points: 2
#     Edge 18, Type (0, 0), BuildingBlock: UVAHIK_clean_linker_0, # of connection points: 2
#     Edge 19, Type (0, 0), BuildingBlock: UVAHIK_clean_linker_0, # of connection points: 2
#     Edge 20, Type (0, 0), BuildingBlock: UVAHIK_clean_linker_0, # of connection points: 2
#     Edge 21, Type (0, 0), BuildingBlock: UVAHIK_clean_linker_0, # of connection points: 2
#     Edge 22, Type (0, 0), BuildingBlock: UVAHIK_clean_linker_0, # of connection points: 2
#     Edge 23, Type (0, 0), BuildingBlock: UVAHIK_clean_linker_0, # of connection points: 2
#     Edge 24, Type (0, 0), BuildingBlock: UVAHIK_clean_linker_0, # of connection points: 2
#     Edge 25, Type (0, 0), BuildingBlock: UVAHIK_clean_linker_0, # of connection points: 2
#     Edge 26, Type (0, 0), BuildingBlock: UVAHIK_clean_linker_0, # of connection points: 2
#     Edge 27, Type (0, 0), BuildingBlock: UVAHIK_clean_linker_0, # of connection points: 2
#     Edge 28, Type (0, 0), BuildingBlock: UVAHIK_clean_linker_0, # of connection points: 2
#     Edge 29, Type (0, 0), BuildingBlock: UVAHIK_clean_linker_0, # of connection points: 2
#     Edge 30, Type (0, 0), BuildingBlock: UVAHIK_clean_linker_0, # of connection points: 2
#     Edge 31, Type (0, 0), BuildingBlock: UVAHIK_clean_linker_0, # of connection points: 2
#     Edge 32, Type (0, 0), BuildingBlock: UVAHIK_clean_linker_0, # of connection points: 2
#     Edge 33, Type (0, 0), BuildingBlock: UVAHIK_clean_linker_0, # of connection points: 2
#     Edge 34, Type (0, 0), BuildingBlock: UVAHIK_clean_linker_0, # of connection points: 2
#     Edge 35, Type (0, 0), BuildingBlock: UVAHIK_clean_linker_0, # of connection points: 2
#     Edge 36, Type (0, 0), BuildingBlock: UVAHIK_clean_linker_0, # of connection points: 2
#     Edge 37, Type (0, 0), BuildingBlock: UVAHIK_clean_linker_0, # of connection points: 2
#     Edge 38, Type (0, 0), BuildingBlock: UVAHIK_clean_linker_0, # of connection points: 2
#     Edge 39, Type (0, 0), BuildingBlock: UVAHIK_clean_linker_0, # of connection points: 2
#     Edge 40, Type (0, 0), BuildingBlock: UVAHIK_clean_linker_0, # of connection points: 2
#     Edge 41, Type (0, 0), BuildingBlock: UVAHIK_clean_linker_0, # of connection points: 2
#     Edge 42, Type (0, 0), BuildingBlock: UVAHIK_clean_linker_0, # of connection points: 2
#     Edge 43, Type (0, 0), BuildingBlock: UVAHIK_clean_linker_0, # of connection points: 2
#     Edge 44, Type (0, 0), BuildingBlock: UVAHIK_clean_linker_0, # of connection points: 2
#     Edge 45, Type (0, 0), BuildingBlock: UVAHIK_clean_linker_0, # of connection points: 2
#     Edge 46, Type (0, 0), BuildingBlock: UVAHIK_clean_linker_0, # of connection points: 2
#     Edge 47, Type (0, 0), BuildingBlock: UVAHIK_clean_linker_0, # of connection points: 2
# Relax obj value: 0.084
# Max RMSD: 0.170
# Mean RMSD: 0.170
data_MOF--net-umc--node1-CEKHIL_clean_sbu_0--edge1-UVAHIK_clean_linker_0
_symmetry_space_group_name_H-M    P1
_symmetry_Int_Tables_number       1
_symmetry_cell_setting            triclinic
loop_
_symmetry_equiv_pos_as_xyz
'x, y, z'
_cell_length_a     58.470731
_cell_length_b     42.355714
_cell_length_c     72.325884
_cell_angle_alpha  89.997298
_cell_angle_beta   89.988739
_cell_angle_gamma 90.009154
loop_
_atom_site_label
_atom_site_type_symbol
_atom_site_fract_x
_atom_site_fract_y
_atom_site_fract_z
_atom_type_partial_charge
Co0 Co 0.33761 0.06509 0.36676 0.0
O1 O 0.3091 0.08746 0.36735 0.0
O2 O 0.34141 0.10545 0.37928 0.0
C3 C 0.33585 0.05139 0.33678 0.0
O4 O 0.37048 0.04806 0.36799 0.0
Co5 Co 0.33638 0.99303 0.35915 0.0
O6 O 0.36989 0.99853 0.35667 0.0
C7 C 0.32194 0.01673 0.39542 0.0
C8 C 0.3197 0.10978 0.37607 0.0
C9 C 0.38074 0.02267 0.36252 0.0
O10 O 0.3294 0.04418 0.39083 0.0
O11 O 0.32159 0.99328 0.38425 0.0
O12 O 0.34321 0.07916 0.34155 0.0
O13 O 0.32767 0.0343 0.35003 0.0
Co14 Co 0.66917 0.93871 0.36888 0.0
O15 O 0.69781 0.91688 0.36756 0.0
O16 O 0.66665 0.89757 0.38075 0.0
C17 C 0.66854 0.95419 0.3393 0.0
O18 O 0.63633 0.95514 0.37206 0.0
Co19 Co 0.66972 0.01131 0.36309 0.0
O20 O 0.63607 0.00664 0.36408 0.0
C21 C 0.68737 0.98505 0.39761 0.0
C22 C 0.68814 0.89393 0.37643 0.0
C23 C 0.62579 0.98148 0.36905 0.0
O24 O 0.6792 0.95811 0.39283 0.0
O25 O 0.68683 0.00942 0.38716 0.0
O26 O 0.66173 0.92604 0.34384 0.0
O27 O 0.67764 0.97071 0.35242 0.0
Co28 Co 0.33725 0.93769 0.11678 0.0
O29 O 0.30888 0.91489 0.11662 0.0
O30 O 0.3411 0.8973 0.10432 0.0
C31 C 0.33605 0.95162 0.14676 0.0
O32 O 0.36999 0.95508 0.11507 0.0
Co33 Co 0.33554 0.00986 0.12416 0.0
O34 O 0.36927 0.00588 0.12439 0.0
C35 C 0.32096 0.98568 0.08807 0.0
C36 C 0.31949 0.89265 0.10782 0.0
C37 C 0.38008 0.98137 0.11906 0.0
O38 O 0.32852 0.95831 0.09273 0.0
O39 O 0.32053 0.00921 0.09917 0.0
O40 O 0.34344 0.9239 0.14195 0.0
O41 O 0.32747 0.96852 0.13359 0.0
Co42 Co 0.66873 0.06399 0.11927 0.0
O43 O 0.69737 0.08583 0.11933 0.0
O44 O 0.66581 0.10411 0.10627 0.0
C45 C 0.66912 0.05101 0.1493 0.0
O46 O 0.63586 0.0471 0.11727 0.0
Co47 Co 0.6697 0.992 0.12729 0.0
O48 O 0.6361 0.99745 0.12846 0.0
C49 C 0.68518 0.01495 0.09127 0.0
C50 C 0.68745 0.10798 0.10998 0.0
C51 C 0.62546 0.02156 0.12232 0.0
O52 O 0.67789 0.04253 0.09571 0.0
O53 O 0.68484 0.99136 0.10232 0.0
O54 O 0.66207 0.07872 0.14412 0.0
O55 O 0.67784 0.03354 0.13644 0.0
Co56 Co 0.66741 0.93515 0.6192 0.0
O57 O 0.69541 0.91168 0.61914 0.0
O58 O 0.66281 0.89438 0.60735 0.0
C59 C 0.66966 0.95038 0.64881 0.0
O60 O 0.63491 0.9534 0.61752 0.0
Co61 Co 0.66983 0.00757 0.62555 0.0
O62 O 0.63622 0.00348 0.62791 0.0
C63 C 0.68478 0.98116 0.59011 0.0
C64 C 0.68443 0.88945 0.61065 0.0
C65 C 0.62502 0.97939 0.62244 0.0
O66 O 0.67636 0.95439 0.59493 0.0
O67 O 0.68529 0.00528 0.60076 0.0
O68 O 0.66148 0.92275 0.64464 0.0
O69 O 0.67802 0.96643 0.63521 0.0
Co70 Co 0.3366 0.06498 0.61646 0.0
O71 O 0.30772 0.08633 0.61745 0.0
O72 O 0.33872 0.10579 0.60411 0.0
C73 C 0.33746 0.05054 0.64636 0.0
O74 O 0.36957 0.04898 0.61353 0.0
Co75 Co 0.33644 0.9926 0.62341 0.0
O76 O 0.37006 0.99777 0.62218 0.0
C77 C 0.31949 0.0169 0.58808 0.0
C78 C 0.3172 0.1092 0.60838 0.0
C79 C 0.38021 0.02282 0.61683 0.0
O80 O 0.32702 0.04436 0.59261 0.0
O81 O 0.3199 0.99323 0.59908 0.0
O82 O 0.3439 0.07867 0.64145 0.0
O83 O 0.32844 0.03354 0.63343 0.0
Co84 Co 0.66974 0.0665 0.86707 0.0
O85 O 0.69809 0.08885 0.86927 0.0
O86 O 0.66478 0.10684 0.8793 0.0
C87 C 0.67426 0.05298 0.83738 0.0
O88 O 0.63685 0.04941 0.86644 0.0
Co89 Co 0.67146 0.9944 0.85951 0.0
O90 O 0.63832 1.00005 0.85494 0.0
C91 C 0.6828 0.01813 0.89645 0.0
C92 C 0.68671 0.1112 0.87729 0.0
C93 C 0.62704 0.02414 0.86029 0.0
O94 O 0.6759 0.04562 0.89143 0.0
O95 O 0.68379 0.99447 0.88547 0.0
O96 O 0.66639 0.08068 0.84171 0.0
O97 O 0.68116 0.0357 0.85102 0.0
Co98 Co 0.33876 0.93738 0.86631 0.0
O99 O 0.30993 0.91586 0.8663 0.0
O100 O 0.34154 0.89693 0.87895 0.0
C101 C 0.33838 0.95118 0.83632 0.0
O102 O 0.37177 0.95361 0.8682 0.0
Co103 Co 0.33809 0.00963 0.85892 0.0
O104 O 0.37175 0.00469 0.85928 0.0
C105 C 0.32265 0.9859 0.89483 0.0
C106 C 0.31985 0.89332 0.87535 0.0
C107 C 0.38218 0.97978 0.86446 0.0
O108 O 0.33013 0.95844 0.89026 0.0
O109 O 0.32253 0.0094 0.8837 0.0
O110 O 0.34503 0.92316 0.84124 0.0
O111 O 0.32985 0.96842 0.84936 0.0
Co112 Co 0.8369 0.56503 0.36642 0.0
O113 O 0.80867 0.58805 0.36688 0.0
O114 O 0.84116 0.60533 0.37889 0.0
C115 C 0.83506 0.55136 0.33654 0.0
O116 O 0.86956 0.54728 0.36782 0.0
Co117 Co 0.83477 0.49287 0.35893 0.0
O118 O 0.8685 0.49655 0.35839 0.0
C119 C 0.82086 0.51703 0.39515 0.0
C120 C 0.81953 0.61016 0.37558 0.0
C121 C 0.87949 0.52092 0.36369 0.0
O122 O 0.82832 0.5444 0.39041 0.0
O123 O 0.82044 0.49333 0.38418 0.0
O124 O 0.84279 0.57894 0.34128 0.0
O125 O 0.82665 0.53439 0.34975 0.0
Co126 Co 0.16788 0.43572 0.36474 0.0
O127 O 0.19647 0.4137 0.36448 0.0
O128 O 0.16452 0.39446 0.3764 0.0
C129 C 0.16904 0.45164 0.33518 0.0
O130 O 0.13499 0.45258 0.3667 0.0
Co131 Co 0.16924 0.50836 0.35917 0.0
O132 O 0.13572 0.50305 0.35686 0.0
C133 C 0.18413 0.48172 0.39449 0.0
C134 C 0.18626 0.39081 0.37299 0.0
C135 C 0.12481 0.47851 0.36204 0.0
O136 O 0.17649 0.45479 0.38915 0.0
O137 O 0.18425 0.50625 0.38416 0.0
O138 O 0.16186 0.42347 0.33931 0.0
O139 O 0.17748 0.46776 0.34874 0.0
Co140 Co 0.83821 0.4336 0.11812 0.0
O141 O 0.81009 0.4104 0.11774 0.0
O142 O 0.84277 0.39287 0.1062 0.0
C143 C 0.83582 0.44864 0.14774 0.0
O144 O 0.87083 0.45163 0.1168 0.0
Co145 Co 0.83583 0.50603 0.12453 0.0
O146 O 0.86935 0.50157 0.12742 0.0
C147 C 0.82145 0.47988 0.08891 0.0
C148 C 0.82107 0.38813 0.10929 0.0
C149 C 0.88064 0.47752 0.12201 0.0
O150 O 0.8297 0.45306 0.09382 0.0
O151 O 0.82082 0.50399 0.09956 0.0
O152 O 0.84379 0.42091 0.14355 0.0
O153 O 0.82759 0.46485 0.13414 0.0
Co154 Co 0.169 0.56539 0.11561 0.0
O155 O 0.19783 0.58692 0.11538 0.0
O156 O 0.16622 0.60549 0.10256 0.0
C157 C 0.16961 0.55277 0.14577 0.0
O158 O 0.13596 0.54905 0.11389 0.0
Co159 Co 0.16947 0.49342 0.12421 0.0
O160 O 0.13583 0.49839 0.12359 0.0
C161 C 0.18498 0.51554 0.08792 0.0
C162 C 0.18788 0.60928 0.10621 0.0
C163 C 0.12548 0.52307 0.11794 0.0
O164 O 0.17767 0.54333 0.09199 0.0
O165 O 0.18496 0.49259 0.09943 0.0
O166 O 0.16278 0.58054 0.14052 0.0
O167 O 0.17798 0.53502 0.13291 0.0
Co168 Co 0.16636 0.43749 0.61885 0.0
O169 O 0.19456 0.41436 0.61941 0.0
O170 O 0.16222 0.39606 0.60769 0.0
C171 C 0.16779 0.45432 0.64824 0.0
O172 O 0.13373 0.45509 0.6166 0.0
Co173 Co 0.16848 0.51023 0.62368 0.0
O174 O 0.13473 0.50676 0.62407 0.0
C175 C 0.18344 0.48215 0.58875 0.0
C176 C 0.18383 0.39155 0.61123 0.0
C177 C 0.12378 0.48182 0.6197 0.0
O178 O 0.17537 0.45553 0.59423 0.0
O179 O 0.18385 0.50687 0.59891 0.0
O180 O 0.16009 0.4263 0.6444 0.0
O181 O 0.17644 0.4698 0.63451 0.0
Co182 Co 0.83493 0.56435 0.61908 0.0
O183 O 0.80604 0.58547 0.61785 0.0
O184 O 0.83828 0.60467 0.60639 0.0
C185 C 0.83261 0.55117 0.64898 0.0
O186 O 0.86813 0.54836 0.61858 0.0
Co187 Co 0.83449 0.49228 0.62685 0.0
O188 O 0.86776 0.49899 0.63016 0.0
C189 C 0.82114 0.51519 0.59026 0.0
C190 C 0.81638 0.60804 0.60915 0.0
C191 C 0.8785 0.5233 0.62442 0.0
O192 O 0.8278 0.54288 0.59508 0.0
O193 O 0.82103 0.49152 0.60126 0.0
O194 O 0.83955 0.57913 0.64419 0.0
O195 O 0.82508 0.53348 0.63573 0.0
Co196 Co 0.17147 0.56648 0.86774 0.0
O197 O 0.19981 0.58907 0.8695 0.0
O198 O 0.16696 0.60591 0.88106 0.0
C199 C 0.1744 0.55499 0.83754 0.0
O200 O 0.13867 0.54906 0.86783 0.0
Co201 Co 0.17317 0.495 0.85829 0.0
O202 O 0.13977 0.50053 0.85514 0.0
C203 C 0.18598 0.51603 0.89553 0.0
C204 C 0.18873 0.61075 0.87839 0.0
C205 C 0.12867 0.52409 0.86147 0.0
O206 O 0.17892 0.54391 0.89142 0.0
O207 O 0.18664 0.49335 0.88384 0.0
O208 O 0.16671 0.58232 0.84279 0.0
O209 O 0.18214 0.53698 0.85054 0.0
Co210 Co 0.8408 0.43567 0.86773 0.0
O211 O 0.81205 0.41427 0.8661 0.0
O212 O 0.84286 0.39435 0.87949 0.0
C213 C 0.84175 0.45164 0.83822 0.0
O214 O 0.87367 0.45172 0.87121 0.0
Co215 Co 0.84062 0.50839 0.86219 0.0
O216 O 0.87422 0.50339 0.86357 0.0
C217 C 0.82235 0.48183 0.89642 0.0
C218 C 0.82138 0.39114 0.87504 0.0
C219 C 0.88432 0.47805 0.86846 0.0
O220 O 0.83059 0.45491 0.89169 0.0
O221 O 0.82304 0.50624 0.88601 0.0
O222 O 0.84846 0.42337 0.84262 0.0
O223 O 0.83265 0.46791 0.85142 0.0
C224 C 0.30979 0.98176 0.42178 0.0
C225 C 0.31391 0.01216 0.41467 0.0
C226 C 0.3036 0.9777 0.44032 0.0
C227 C 0.28275 0.02084 0.48177 0.0
H228 H 0.32024 0.96129 0.50893 0.0
C229 C 0.30787 0.03861 0.55732 0.0
C230 C 0.31102 0.01238 0.56896 0.0
C231 C 0.30196 0.03449 0.5388 0.0
C232 C 0.30921 0.97753 0.50157 0.0
H233 H 0.31374 0.06217 0.42131 0.0
H234 H 0.30322 0.05504 0.45349 0.0
H235 H 0.32116 0.96126 0.47529 0.0
H236 H 0.30924 0.96125 0.57042 0.0
H237 H 0.29896 0.95411 0.53795 0.0
H238 H 0.27155 0.03799 0.5081 0.0
C239 C 0.30459 0.03434 0.44476 0.0
C240 C 0.30975 0.97751 0.48226 0.0
C241 C 0.31088 0.0384 0.42632 0.0
C242 C 0.3071 0.98196 0.56182 0.0
C243 C 0.30128 0.97784 0.54321 0.0
C244 C 0.2822 0.02084 0.50107 0.0
C245 C 0.30122 0.00395 0.45206 0.0
C246 C 0.29719 0.99996 0.47218 0.0
C247 C 0.29909 0.00406 0.53142 0.0
C248 C 0.29609 0.99998 0.51118 0.0
H249 H 0.31187 0.96105 0.41317 0.0
H250 H 0.30098 0.95401 0.44555 0.0
H251 H 0.27252 0.03799 0.47435 0.0
H252 H 0.31054 0.06241 0.56237 0.0
H253 H 0.3007 0.05519 0.53006 0.0
C254 C 0.70225 0.95685 0.5622 0.0
C255 C 0.69396 0.98387 0.57121 0.0
C256 C 0.70891 0.95827 0.54374 0.0
C257 C 0.71981 0.01222 0.504 0.0
H258 H 0.6939 0.94242 0.47637 0.0
C259 C 0.69584 0.01604 0.42632 0.0
C260 C 0.69707 0.98766 0.41634 0.0
C261 C 0.70182 0.0167 0.44505 0.0
C262 C 0.70172 0.9618 0.48382 0.0
H263 H 0.68733 0.03397 0.56837 0.0
H264 H 0.69808 0.03626 0.53574 0.0
H265 H 0.69279 0.94143 0.50972 0.0
H266 H 0.70775 0.93865 0.41741 0.0
H267 H 0.7187 0.94 0.44984 0.0
H268 H 0.72784 0.03304 0.47773 0.0
C269 C 0.6999 0.01409 0.54306 0.0
C270 C 0.7011 0.96123 0.50302 0.0
C271 C 0.69358 0.01277 0.5617 0.0
C272 C 0.70614 0.96069 0.42492 0.0
C273 C 0.71239 0.96146 0.44348 0.0
C274 C 0.72038 0.01283 0.48465 0.0
C275 C 0.70698 0.98661 0.53375 0.0
C276 C 0.70987 0.98653 0.51337 0.0
C277 C 0.70934 0.98906 0.45396 0.0
C278 C 0.7111 0.98772 0.47438 0.0
H279 H 0.70321 0.93439 0.56934 0.0
H280 H 0.71487 0.93687 0.53711 0.0
H281 H 0.72689 0.03195 0.51161 0.0
H282 H 0.68897 0.03719 0.41999 0.0
H283 H 0.6992 0.0383 0.45278 0.0
C284 C 0.30959 0.02064 0.06151 0.0
C285 C 0.31323 0.99021 0.06874 0.0
C286 C 0.30412 0.02472 0.04282 0.0
C287 C 0.28461 0.98183 0.00088 0.0
H288 H 0.32357 0.04087 0.97467 0.0
C289 C 0.31138 0.96422 0.92567 0.0
C290 C 0.31462 0.99048 0.91407 0.0
C291 C 0.30547 0.96827 0.94419 0.0
C292 C 0.31216 0.02477 0.98176 0.0
H293 H 0.31287 0.94018 0.06218 0.0
H294 H 0.30356 0.94734 0.02975 0.0
H295 H 0.32327 0.04077 0.00834 0.0
H296 H 0.31326 0.04164 0.91273 0.0
H297 H 0.30298 0.04868 0.94524 0.0
H298 H 0.27421 0.96496 0.97429 0.0
C299 C 0.30477 0.96805 0.03848 0.0
C300 C 0.31199 0.02472 0.00108 0.0
C301 C 0.31036 0.96397 0.05707 0.0
C302 C 0.311 0.02091 0.9213 0.0
C303 C 0.30518 0.02497 0.93993 0.0
C304 C 0.28476 0.9819 0.98158 0.0
C305 C 0.30198 0.99847 0.03106 0.0
C306 C 0.29884 0.00247 0.01084 0.0
C307 C 0.30269 0.99868 0.95162 0.0
C308 C 0.29917 0.0026 0.97182 0.0
H309 H 0.31159 0.04136 0.07012 0.0
H310 H 0.30191 0.04844 0.03751 0.0
H311 H 0.27394 0.96484 0.00803 0.0
H312 H 0.31386 0.94042 0.92056 0.0
H313 H 0.30399 0.94753 0.95287 0.0
C314 C 0.68826 0.98465 0.92477 0.0
C315 C 0.68962 0.01415 0.91594 0.0
C316 C 0.69258 0.98214 0.94376 0.0
C317 C 0.69028 0.03232 0.98501 0.0
H318 H 0.7196 0.96215 0.01003 0.0
C319 C 0.70188 0.03683 0.06243 0.0
C320 C 0.69339 0.01066 0.07217 0.0
C321 C 0.70625 0.03472 0.04357 0.0
C322 C 0.71135 0.98181 0.00317 0.0
H323 H 0.69836 0.06355 0.91962 0.0
H324 H 0.70639 0.05902 0.95242 0.0
H325 H 0.71816 0.96325 0.97609 0.0
H326 H 0.68452 0.96108 0.0702 0.0
H327 H 0.69169 0.95758 0.03686 0.0
H328 H 0.68315 0.05081 0.01178 0.0
C329 C 0.70125 0.03804 0.94494 0.0
C330 C 0.71048 0.98242 0.9838 0.0
C331 C 0.69668 0.04062 0.92613 0.0
C332 C 0.69097 0.98164 0.06297 0.0
C333 C 0.69515 0.97961 0.04394 0.0
C334 C 0.69123 0.03177 0.0042 0.0
C335 C 0.69852 0.00904 0.95411 0.0
C336 C 0.70001 0.00783 0.97456 0.0
C337 C 0.70194 0.00652 0.03397 0.0
C338 C 0.70185 0.00666 0.01351 0.0
H339 H 0.68292 0.96385 0.91721 0.0
H340 H 0.69026 0.95949 0.95046 0.0
H341 H 0.68148 0.05176 0.97838 0.0
H342 H 0.70438 0.05934 0.06927 0.0
H343 H 0.71203 0.05563 0.03631 0.0
C344 C 0.81597 0.48179 0.56184 0.0
C345 C 0.81386 0.51101 0.57089 0.0
C346 C 0.81193 0.47956 0.54279 0.0
C347 C 0.81553 0.53077 0.50239 0.0
H348 H 0.78619 0.46266 0.47552 0.0
C349 C 0.80631 0.53934 0.42468 0.0
C350 C 0.81339 0.51291 0.41447 0.0
C351 C 0.80208 0.53678 0.44356 0.0
C352 C 0.79451 0.48172 0.48289 0.0
H353 H 0.80381 0.56001 0.56758 0.0
H354 H 0.79643 0.55598 0.53464 0.0
H355 H 0.78651 0.46199 0.5095 0.0
H356 H 0.82013 0.46262 0.41571 0.0
H357 H 0.81329 0.45829 0.44901 0.0
H358 H 0.82403 0.55031 0.47616 0.0
C359 C 0.80187 0.53503 0.54203 0.0
C360 C 0.79469 0.48133 0.50228 0.0
C361 C 0.80609 0.53732 0.5609 0.0
C362 C 0.81477 0.4834 0.42328 0.0
C363 C 0.81077 0.4809 0.44231 0.0
C364 C 0.81538 0.53114 0.48319 0.0
C365 C 0.80559 0.50649 0.53264 0.0
C366 C 0.80505 0.50606 0.51217 0.0
C367 C 0.80514 0.50784 0.45272 0.0
C368 C 0.80472 0.50683 0.47319 0.0
H369 H 0.82186 0.46111 0.56925 0.0
H370 H 0.81494 0.45726 0.53588 0.0
H371 H 0.82423 0.54969 0.5096 0.0
H372 H 0.80463 0.56228 0.41818 0.0
H373 H 0.79716 0.55778 0.45112 0.0
C374 C 0.1916 0.51282 0.55983 0.0
C375 C 0.19186 0.48411 0.56955 0.0
C376 C 0.19695 0.51355 0.54098 0.0
C377 C 0.19495 0.46012 0.50118 0.0
H378 H 0.22315 0.52967 0.47478 0.0
C379 C 0.20013 0.45679 0.42282 0.0
C380 C 0.19251 0.48408 0.41368 0.0
C381 C 0.2056 0.45772 0.44155 0.0
C382 C 0.21521 0.51012 0.482 0.0
H383 H 0.19988 0.43421 0.56767 0.0
H384 H 0.20977 0.43561 0.53502 0.0
H385 H 0.22306 0.52951 0.50866 0.0
H386 H 0.18599 0.5342 0.41666 0.0
H387 H 0.19491 0.53566 0.4497 0.0
H388 H 0.1865 0.44105 0.47481 0.0
C389 C 0.20467 0.45738 0.54172 0.0
C390 C 0.21515 0.51003 0.50137 0.0
C391 C 0.19905 0.45658 0.56043 0.0
C392 C 0.19174 0.51278 0.4234 0.0
C393 C 0.19697 0.51363 0.44227 0.0
C394 C 0.19504 0.4602 0.48196 0.0
C395 C 0.20287 0.48561 0.53161 0.0
C396 C 0.20483 0.48511 0.51115 0.0
C397 C 0.20326 0.48586 0.45165 0.0
C398 C 0.20498 0.48527 0.47211 0.0
H399 H 0.18618 0.53442 0.56655 0.0
H400 H 0.19527 0.53565 0.53358 0.0
H401 H 0.18633 0.44094 0.50822 0.0
H402 H 0.20138 0.43444 0.41559 0.0
H403 H 0.21096 0.43609 0.44827 0.0
C404 C 0.80328 0.45752 0.92363 0.0
C405 C 0.8124 0.48446 0.91506 0.0
C406 C 0.79666 0.45846 0.94211 0.0
C407 C 0.78784 0.5105 0.98294 0.0
H408 H 0.81463 0.4393 0.00873 0.0
C409 C 0.81341 0.51131 0.06028 0.0
C410 C 0.81256 0.48256 0.06992 0.0
C411 C 0.80742 0.51247 0.04157 0.0
C412 C 0.80655 0.45905 0.00182 0.0
H413 H 0.82027 0.53409 0.91862 0.0
H414 H 0.80945 0.5355 0.95126 0.0
H415 H 0.81417 0.43976 0.97537 0.0
H416 H 0.8028 0.43324 0.0682 0.0
H417 H 0.79174 0.43546 0.03584 0.0
H418 H 0.78096 0.53014 0.00971 0.0
C419 C 0.80704 0.51379 0.94359 0.0
C420 C 0.80628 0.45931 0.98261 0.0
C421 C 0.81337 0.51296 0.92495 0.0
C422 C 0.80412 0.45557 0.06097 0.0
C423 C 0.7978 0.45685 0.04243 0.0
C424 C 0.78807 0.51022 0.0023 0.0
C425 C 0.79941 0.48621 0.95251 0.0
C426 C 0.7972 0.48516 0.97292 0.0
C427 C 0.80021 0.48499 0.03232 0.0
C428 C 0.79771 0.48461 0.01192 0.0
H429 H 0.80186 0.4354 0.91618 0.0
H430 H 0.79027 0.43705 0.94847 0.0
H431 H 0.78059 0.53065 0.97583 0.0
H432 H 0.81979 0.53247 0.06692 0.0
H433 H 0.8096 0.53447 0.03415 0.0
C434 C 0.19551 0.47892 0.06194 0.0
C435 C 0.19299 0.50981 0.06881 0.0
C436 C 0.20124 0.47383 0.0434 0.0
C437 C 0.22357 0.51382 0.00146 0.0
H438 H 0.18169 0.45901 0.97503 0.0
C439 C 0.19722 0.53564 0.92679 0.0
C440 C 0.19324 0.51009 0.91482 0.0
C441 C 0.20285 0.53046 0.94526 0.0
C442 C 0.1939 0.47384 0.9822 0.0
H443 H 0.19567 0.55952 0.0618 0.0
H444 H 0.20547 0.55065 0.02961 0.0
H445 H 0.1818 0.45898 0.00874 0.0
H446 H 0.19272 0.45897 0.91277 0.0
H447 H 0.20238 0.44996 0.94528 0.0
H448 H 0.23491 0.52976 0.97492 0.0
C449 C 0.20316 0.53034 0.03852 0.0
C450 C 0.19397 0.47382 0.00152 0.0
C451 C 0.19728 0.53542 0.05696 0.0
C452 C 0.19564 0.47916 0.92165 0.0
C453 C 0.20111 0.47398 0.94024 0.0
C454 C 0.22351 0.51383 0.98217 0.0
C455 C 0.2048 0.49952 0.03145 0.0
C456 C 0.20815 0.49475 0.01132 0.0
C457 C 0.20455 0.49962 0.95226 0.0
C458 C 0.20802 0.49478 0.97236 0.0
H459 H 0.19239 0.45866 0.07073 0.0
H460 H 0.20251 0.44983 0.03833 0.0
H461 H 0.23502 0.52972 0.00867 0.0
H462 H 0.19568 0.55977 0.92198 0.0
H463 H 0.20504 0.55073 0.95422 0.0
C464 C 0.59085 0.01278 0.37636 0.0
C465 C 0.60063 0.98368 0.37135 0.0
C466 C 0.56716 0.01672 0.37673 0.0
C467 C 0.5117 0.97342 0.37608 0.0
H468 H 0.48862 0.05385 0.35838 0.0
C469 C 0.41696 0.99221 0.35753 0.0
C470 C 0.40614 0.02011 0.36355 0.0
C471 C 0.44057 0.9884 0.35914 0.0
C472 C 0.49478 0.03142 0.36357 0.0
H473 H 0.59316 0.93557 0.36328 0.0
H474 H 0.55154 0.94257 0.36344 0.0
H475 H 0.52972 0.04493 0.36002 0.0
H476 H 0.41209 0.06623 0.37564 0.0
H477 H 0.45364 0.05957 0.37834 0.0
H478 H 0.47663 0.95977 0.37917 0.0
C479 C 0.56225 0.96228 0.36742 0.0
C480 C 0.51839 0.02624 0.36456 0.0
C481 C 0.5861 0.9582 0.3673 0.0
C482 C 0.41979 0.04445 0.37088 0.0
C483 C 0.44359 0.04065 0.37239 0.0
C484 C 0.48809 0.97853 0.37495 0.0
C485 C 0.55248 0.99182 0.37182 0.0
C486 C 0.52722 0.99717 0.37084 0.0
C487 C 0.45419 0.01237 0.36673 0.0
C488 C 0.47933 0.00756 0.36863 0.0
H489 H 0.60157 0.03278 0.37983 0.0
H490 H 0.56039 0.03951 0.38073 0.0
H491 H 0.51777 0.95095 0.38125 0.0
H492 H 0.40719 0.97295 0.35165 0.0
H493 H 0.4482 0.96661 0.35429 0.0
C494 C 0.41994 0.95819 0.11845 0.0
C495 C 0.40529 0.98439 0.11714 0.0
C496 C 0.44378 0.96228 0.11789 0.0
C497 C 0.48825 0.02468 0.12434 0.0
H498 H 0.52831 0.96316 0.1015 0.0
C499 C 0.58629 0.04468 0.11576 0.0
C500 C 0.60014 0.01882 0.12064 0.0
C501 C 0.56245 0.04117 0.11436 0.0
C502 C 0.51734 0.98052 0.108 0.0
H503 H 0.40421 0.03519 0.11324 0.0
H504 H 0.44528 0.04209 0.11168 0.0
H505 H 0.48702 0.95486 0.10088 0.0
H506 H 0.59949 0.96891 0.12776 0.0
H507 H 0.55844 0.96308 0.12533 0.0
H508 H 0.51863 0.05037 0.13135 0.0
C509 C 0.43863 0.01852 0.11384 0.0
C510 C 0.49365 0.97567 0.10773 0.0
C511 C 0.41497 0.0145 0.11462 0.0
C512 C 0.58954 0.98947 0.12396 0.0
C513 C 0.5659 0.98596 0.12243 0.0
C514 C 0.51192 0.02963 0.12448 0.0
C515 C 0.45344 0.99262 0.1158 0.0
C516 C 0.47875 0.99763 0.11596 0.0
C517 C 0.55203 0.01168 0.11762 0.0
C518 C 0.52677 0.0075 0.11643 0.0
H519 H 0.41302 0.93472 0.12046 0.0
H520 H 0.45462 0.94176 0.11958 0.0
H521 H 0.47744 0.04186 0.13115 0.0
H522 H 0.59383 0.06759 0.11309 0.0
H523 H 0.5522 0.06144 0.11055 0.0
C524 C 0.58569 0.95804 0.61467 0.0
C525 C 0.59968 0.98263 0.62124 0.0
C526 C 0.56193 0.96227 0.61314 0.0
C527 C 0.51786 0.02497 0.60941 0.0
H528 H 0.47612 0.96004 0.62624 0.0
C529 C 0.41992 0.04626 0.61779 0.0
C530 C 0.40533 0.02059 0.61431 0.0
C531 C 0.44377 0.04218 0.61746 0.0
C532 C 0.48748 0.9783 0.62118 0.0
H533 H 0.59931 0.03083 0.63163 0.0
H534 H 0.55835 0.0379 0.62899 0.0
H535 H 0.51718 0.95082 0.6277 0.0
H536 H 0.40427 0.97116 0.60652 0.0
H537 H 0.44542 0.96439 0.6053 0.0
H538 H 0.48819 0.05244 0.60281 0.0
C539 C 0.56568 0.01555 0.62476 0.0
C540 C 0.51107 0.97295 0.62205 0.0
C541 C 0.58926 0.01132 0.62638 0.0
C542 C 0.41504 0.99131 0.6096 0.0
C543 C 0.43871 0.98735 0.60903 0.0
C544 C 0.49424 0.03026 0.60841 0.0
C545 C 0.5517 0.99122 0.61801 0.0
C546 C 0.52656 0.99628 0.61628 0.0
C547 C 0.45346 0.01244 0.61343 0.0
C548 C 0.4787 0.00701 0.61432 0.0
H549 H 0.59307 0.93566 0.61058 0.0
H550 H 0.55162 0.94306 0.60782 0.0
H551 H 0.52934 0.04331 0.60464 0.0
H552 H 0.41293 0.06906 0.62154 0.0
H553 H 0.45457 0.06205 0.62101 0.0
C554 C 0.58749 0.04532 0.8674 0.0
C555 C 0.60163 0.02149 0.86012 0.0
C556 C 0.56367 0.04114 0.86814 0.0
C557 C 0.51992 0.97824 0.86921 0.0
H558 H 0.47785 0.04422 0.85451 0.0
C559 C 0.42192 0.95686 0.86211 0.0
C560 C 0.40736 0.9822 0.86635 0.0
C561 C 0.44575 0.96116 0.86194 0.0
C562 C 0.4893 0.02564 0.85897 0.0
H563 H 0.60147 0.97502 0.84729 0.0
H564 H 0.56039 0.968 0.84866 0.0
H565 H 0.51889 0.05386 0.85314 0.0
H566 H 0.40632 0.03127 0.87486 0.0
H567 H 0.44746 0.03837 0.87533 0.0
H568 H 0.49043 0.9501 0.87529 0.0
C569 C 0.56765 0.98964 0.85406 0.0
C570 C 0.51286 0.03122 0.85813 0.0
C571 C 0.59129 0.99384 0.8532 0.0
C572 C 0.41708 0.01138 0.87124 0.0
C573 C 0.44074 0.01554 0.87135 0.0
C574 C 0.49634 0.97274 0.87023 0.0
C575 C 0.55356 0.01299 0.86174 0.0
C576 C 0.52846 0.00755 0.86316 0.0
C577 C 0.45545 0.99079 0.86626 0.0
C578 C 0.48067 0.99636 0.86513 0.0
H579 H 0.5948 0.0669 0.87282 0.0
H580 H 0.55322 0.05958 0.87416 0.0
H581 H 0.53151 0.95961 0.87338 0.0
H582 H 0.41489 0.93417 0.85818 0.0
H583 H 0.45648 0.94155 0.85784 0.0
C584 C 0.91951 0.54355 0.36393 0.0
C585 C 0.90467 0.51759 0.36551 0.0
C586 C 0.94332 0.53913 0.36445 0.0
C587 C 0.98741 0.47592 0.3587 0.0
H588 H 0.02778 0.53786 0.38077 0.0
C589 C 0.08543 0.45556 0.3681 0.0
C590 C 0.09942 0.48119 0.36307 0.0
C591 C 0.06156 0.45917 0.36913 0.0
C592 C 0.01672 0.52037 0.37448 0.0
H593 H 0.90322 0.46692 0.36985 0.0
H594 H 0.94424 0.45947 0.37137 0.0
H595 H 0.98656 0.54661 0.38126 0.0
H596 H 0.09894 0.53072 0.35504 0.0
H597 H 0.05788 0.53671 0.35686 0.0
H598 H 0.01766 0.44963 0.35206 0.0
C599 C 0.93776 0.48308 0.36901 0.0
C600 C 0.99306 0.52548 0.37467 0.0
C601 C 0.91413 0.48741 0.36825 0.0
C602 C 0.08891 0.51035 0.35906 0.0
C603 C 0.06525 0.51396 0.36021 0.0
C604 C 0.01105 0.47071 0.35864 0.0
C605 C 0.95276 0.50872 0.3668 0.0
C606 C 0.97805 0.50339 0.36671 0.0
C607 C 0.05125 0.48854 0.36533 0.0
C608 C 0.02601 0.49299 0.3664 0.0
H609 H 0.91275 0.56706 0.36174 0.0
H610 H 0.9543 0.55946 0.36255 0.0
H611 H 0.9765 0.4586 0.3521 0.0
H612 H 0.09288 0.43279 0.37127 0.0
H613 H 0.0512 0.43912 0.37317 0.0
C614 C 0.08561 0.54598 0.11913 0.0
C615 C 0.10034 0.52044 0.11572 0.0
C616 C 0.06178 0.54159 0.11892 0.0
C617 C 0.01828 0.47718 0.12253 0.0
H618 H 0.97632 0.54196 0.10586 0.0
C619 C 0.92017 0.45638 0.11464 0.0
C620 C 0.90601 0.48075 0.12126 0.0
C621 C 0.94396 0.4607 0.11349 0.0
C622 C 0.98783 0.52367 0.11066 0.0
H623 H 0.10167 0.47089 0.10825 0.0
H624 H 0.06058 0.4636 0.10716 0.0
H625 H 0.01743 0.55147 0.10436 0.0
H626 H 0.90612 0.52858 0.13224 0.0
H627 H 0.94711 0.53582 0.13022 0.0
H628 H 0.98861 0.44934 0.12868 0.0
C629 C 0.06715 0.48669 0.11078 0.0
C630 C 0.01143 0.52919 0.10987 0.0
C631 C 0.09079 0.49095 0.11126 0.0
C632 C 0.9163 0.50926 0.1269 0.0
C633 C 0.9399 0.51358 0.12565 0.0
C634 C 0.9947 0.47159 0.12318 0.0
C635 C 0.05225 0.51168 0.11504 0.0
C636 C 0.02701 0.50604 0.11583 0.0
C637 C 0.95404 0.48953 0.1188 0.0
C638 C 0.97918 0.49482 0.11735 0.0
H639 H 0.09249 0.56893 0.1227 0.0
H640 H 0.05089 0.56139 0.12238 0.0
H641 H 0.02964 0.45898 0.12763 0.0
H642 H 0.91289 0.43414 0.11018 0.0
H643 H 0.95442 0.44171 0.1081 0.0
C644 C 0.91764 0.54574 0.61693 0.0
C645 C 0.90394 0.52117 0.62391 0.0
C646 C 0.94151 0.54221 0.61582 0.0
C647 C 0.98613 0.48053 0.61326 0.0
H648 H 0.02742 0.54602 0.63004 0.0
C649 C 0.08386 0.45921 0.6215 0.0
C650 C 0.09856 0.48476 0.61802 0.0
C651 C 0.06004 0.46355 0.62144 0.0
C652 C 0.0162 0.52761 0.62499 0.0
H653 H 0.90495 0.47389 0.63568 0.0
H654 H 0.94604 0.46798 0.63367 0.0
H655 H 0.98627 0.55499 0.63109 0.0
H656 H 0.09977 0.53442 0.61073 0.0
H657 H 0.05866 0.54164 0.60994 0.0
H658 H 0.01592 0.4532 0.60696 0.0
C659 C 0.93841 0.48977 0.62881 0.0
C660 C 0.99257 0.53281 0.62564 0.0
C661 C 0.91476 0.49333 0.63004 0.0
C662 C 0.08894 0.51432 0.61377 0.0
C663 C 0.06528 0.51854 0.61346 0.0
C664 C 0.00976 0.47542 0.61244 0.0
C665 C 0.95209 0.51395 0.62152 0.0
C666 C 0.97725 0.50925 0.61992 0.0
C667 C 0.05044 0.49344 0.61765 0.0
C668 C 0.02516 0.49883 0.61836 0.0
H669 H 0.90995 0.56749 0.61211 0.0
H670 H 0.95163 0.56128 0.61012 0.0
H671 H 0.97476 0.46202 0.60855 0.0
H672 H 0.09076 0.4362 0.6249 0.0
H673 H 0.04921 0.44367 0.62489 0.0
C674 C 0.08946 0.54425 0.87055 0.0
C675 C 0.10329 0.52115 0.86216 0.0
C676 C 0.06571 0.53979 0.87201 0.0
C677 C 0.02209 0.47652 0.87256 0.0
H678 H 0.97936 0.54352 0.86102 0.0
C679 C 0.92404 0.45527 0.8658 0.0
C680 C 0.90943 0.48007 0.87094 0.0
C681 C 0.94786 0.45964 0.86582 0.0
C682 C 0.99101 0.52462 0.86461 0.0
H683 H 0.10263 0.47566 0.8482 0.0
H684 H 0.06168 0.46816 0.85077 0.0
H685 H 0.0203 0.55352 0.85898 0.0
H686 H 0.90829 0.52805 0.88134 0.0
H687 H 0.94946 0.5352 0.88211 0.0
H688 H 0.99289 0.44764 0.87834 0.0
C689 C 0.06914 0.48943 0.85649 0.0
C690 C 0.01452 0.53042 0.86339 0.0
C691 C 0.0927 0.49392 0.85494 0.0
C692 C 0.9191 0.50862 0.87703 0.0
C693 C 0.94276 0.51283 0.87731 0.0
C694 C 0.99857 0.47077 0.87394 0.0
C695 C 0.05537 0.51207 0.86523 0.0
C696 C 0.03035 0.50639 0.86724 0.0
C697 C 0.9575 0.48878 0.87121 0.0
C698 C 0.98267 0.49473 0.86995 0.0
H699 H 0.09697 0.56549 0.87625 0.0
H700 H 0.05553 0.55768 0.87884 0.0
H701 H 0.03386 0.45758 0.87583 0.0
H702 H 0.91704 0.43309 0.86094 0.0
H703 H 0.95862 0.4406 0.86093 0.0
C704 C 0.18902 0.33304 0.3812 0.0
C705 C 0.19945 0.36255 0.37852 0.0
C706 C 0.20246 0.30612 0.38447 0.0
C707 C 0.2618 0.27776 0.37679 0.0
H708 H 0.24296 0.20715 0.40727 0.0
C709 C 0.31873 0.16728 0.38486 0.0
C710 C 0.30724 0.13875 0.38149 0.0
C711 C 0.30631 0.19519 0.38776 0.0
C712 C 0.24844 0.22673 0.39871 0.0
H713 H 0.23185 0.38749 0.37851 0.0
H714 H 0.25499 0.34122 0.38476 0.0
H715 H 0.21929 0.25474 0.40612 0.0
H716 H 0.27385 0.11664 0.37965 0.0
H717 H 0.25235 0.16496 0.38481 0.0
H718 H 0.29076 0.24975 0.36921 0.0
C719 C 0.23664 0.33833 0.38365 0.0
C720 C 0.23482 0.25393 0.39798 0.0
C721 C 0.22332 0.36495 0.38016 0.0
C722 C 0.28321 0.13833 0.38206 0.0
C723 C 0.27085 0.166 0.38517 0.0
C724 C 0.27544 0.25074 0.37762 0.0
C725 C 0.22651 0.30838 0.38531 0.0
C726 C 0.24123 0.27971 0.38687 0.0
C727 C 0.28221 0.19491 0.38761 0.0
C728 C 0.26882 0.22475 0.38841 0.0
H729 H 0.17064 0.33055 0.38002 0.0
H730 H 0.19406 0.28342 0.38561 0.0
H731 H 0.2671 0.29678 0.36775 0.0
H732 H 0.33724 0.16829 0.38452 0.0
H733 H 0.31554 0.21709 0.38976 0.0
C734 C 0.69099 0.83614 0.38438 0.0
C735 C 0.70151 0.86541 0.38114 0.0
C736 C 0.70434 0.80891 0.38688 0.0
C737 C 0.7627 0.77906 0.37637 0.0
H738 H 0.74514 0.70928 0.40799 0.0
C739 C 0.81924 0.66788 0.38379 0.0
C740 C 0.80743 0.63944 0.3809 0.0
C741 C 0.80712 0.69604 0.38665 0.0
C742 C 0.75025 0.72863 0.39911 0.0
H743 H 0.73411 0.8896 0.3792 0.0
H744 H 0.75719 0.84279 0.38415 0.0
H745 H 0.72197 0.75736 0.40765 0.0
H746 H 0.77383 0.6178 0.37975 0.0
H747 H 0.75285 0.66661 0.38493 0.0
H748 H 0.79086 0.75032 0.36777 0.0
C749 C 0.73876 0.84032 0.38408 0.0
C750 C 0.73691 0.7561 0.39883 0.0
C751 C 0.72549 0.86726 0.38136 0.0
C752 C 0.78341 0.63941 0.38182 0.0
C753 C 0.77137 0.66735 0.38492 0.0
C754 C 0.7761 0.75177 0.37677 0.0
C755 C 0.72843 0.81061 0.38638 0.0
C756 C 0.74287 0.78161 0.38733 0.0
C757 C 0.78303 0.6961 0.38696 0.0
C758 C 0.76992 0.72612 0.388 0.0
H759 H 0.67253 0.83406 0.38427 0.0
H760 H 0.69577 0.78643 0.38851 0.0
H761 H 0.7676 0.79784 0.36701 0.0
H762 H 0.83773 0.66858 0.38313 0.0
H763 H 0.81656 0.71786 0.38831 0.0
C764 C 0.19053 0.66709 0.09827 0.0
C765 C 0.20107 0.63762 0.10078 0.0
C766 C 0.20386 0.69431 0.09563 0.0
C767 C 0.26286 0.72315 0.10478 0.0
H768 H 0.2437 0.79537 0.07578 0.0
C769 C 0.31887 0.83528 0.09869 0.0
C770 C 0.30716 0.86348 0.10253 0.0
C771 C 0.30667 0.80725 0.09557 0.0
C772 C 0.24927 0.77534 0.08393 0.0
H773 H 0.2336 0.61309 0.10114 0.0
H774 H 0.25663 0.65991 0.09587 0.0
H775 H 0.22059 0.74726 0.07554 0.0
H776 H 0.27359 0.8848 0.10518 0.0
H777 H 0.25247 0.83624 0.09958 0.0
H778 H 0.29142 0.75126 0.11325 0.0
C779 C 0.23823 0.66252 0.09665 0.0
C780 C 0.23596 0.74782 0.08387 0.0
C781 C 0.22499 0.63558 0.09954 0.0
C782 C 0.28312 0.8634 0.10237 0.0
C783 C 0.27098 0.8356 0.09902 0.0
C784 C 0.27622 0.75051 0.10471 0.0
C785 C 0.22796 0.69243 0.09523 0.0
C786 C 0.24247 0.72142 0.09444 0.0
C787 C 0.28258 0.80706 0.09594 0.0
C788 C 0.26946 0.77706 0.09446 0.0
H789 H 0.17211 0.66933 0.09921 0.0
H790 H 0.19532 0.71692 0.09469 0.0
H791 H 0.26823 0.70367 0.11344 0.0
H792 H 0.33738 0.83465 0.09873 0.0
H793 H 0.31608 0.78563 0.0931 0.0
C794 C 0.69058 0.1654 0.10115 0.0
C795 C 0.70082 0.13585 0.1041 0.0
C796 C 0.70422 0.19216 0.09797 0.0
C797 C 0.76329 0.22 0.10696 0.0
H798 H 0.74589 0.2908 0.0761 0.0
C799 C 0.82058 0.33054 0.10068 0.0
C800 C 0.80891 0.35903 0.10373 0.0
C801 C 0.80831 0.30261 0.09744 0.0
C802 C 0.75097 0.27116 0.08476 0.0
H803 H 0.73306 0.11058 0.1046 0.0
H804 H 0.75658 0.1566 0.09852 0.0
H805 H 0.72207 0.24331 0.07654 0.0
H806 H 0.77543 0.38106 0.10467 0.0
H807 H 0.75422 0.33271 0.09893 0.0
H808 H 0.79196 0.24788 0.11539 0.0
C809 C 0.73822 0.15964 0.09933 0.0
C810 C 0.73727 0.24402 0.08508 0.0
C811 C 0.7247 0.13318 0.10272 0.0
C812 C 0.78491 0.35939 0.10254 0.0
C813 C 0.77273 0.3317 0.09908 0.0
C814 C 0.77701 0.24697 0.10655 0.0
C815 C 0.72827 0.18967 0.09751 0.0
C816 C 0.74316 0.21819 0.09633 0.0
C817 C 0.78422 0.30285 0.09691 0.0
C818 C 0.77089 0.27302 0.09564 0.0
H819 H 0.6722 0.16808 0.10214 0.0
H820 H 0.69597 0.21494 0.09669 0.0
H821 H 0.76816 0.20091 0.11611 0.0
H822 H 0.83906 0.3296 0.1015 0.0
H823 H 0.81764 0.28073 0.09566 0.0
C824 C 0.6847 0.83224 0.60111 0.0
C825 C 0.69653 0.86023 0.6052 0.0
C826 C 0.69678 0.80425 0.59762 0.0
C827 C 0.75437 0.77282 0.58576 0.0
H828 H 0.73512 0.7 0.61419 0.0
C829 C 0.81359 0.66583 0.60135 0.0
C830 C 0.80328 0.63607 0.60319 0.0
C831 C 0.80009 0.69273 0.5983 0.0
C832 C 0.74057 0.71985 0.60584 0.0
H833 H 0.73021 0.88127 0.60791 0.0
H834 H 0.7511 0.83284 0.60179 0.0
H835 H 0.71167 0.74734 0.61419 0.0
H836 H 0.77114 0.61064 0.60183 0.0
H837 H 0.74785 0.65702 0.59594 0.0
H838 H 0.78351 0.7454 0.57764 0.0
C839 C 0.73259 0.83229 0.60126 0.0
C840 C 0.72706 0.74703 0.60585 0.0
C841 C 0.72057 0.86002 0.60494 0.0
C842 C 0.77953 0.63339 0.60079 0.0
C843 C 0.76614 0.66003 0.59753 0.0
C844 C 0.76787 0.74551 0.58567 0.0
C845 C 0.72088 0.80395 0.59789 0.0
C846 C 0.73395 0.774 0.59604 0.0
C847 C 0.7761 0.6902 0.59685 0.0
C848 C 0.76127 0.71879 0.59589 0.0
H849 H 0.66618 0.83174 0.6012 0.0
H850 H 0.68729 0.78277 0.59493 0.0
H851 H 0.76003 0.79316 0.57792 0.0
H852 H 0.83187 0.66853 0.60318 0.0
H853 H 0.80834 0.71561 0.59794 0.0
C854 C 0.2202 0.36234 0.6058 0.0
C855 C 0.19616 0.3622 0.60632 0.0
C856 C 0.23239 0.33458 0.6025 0.0
C857 C 0.22791 0.24961 0.60887 0.0
H858 H 0.28251 0.24648 0.57842 0.0
C859 C 0.27967 0.13521 0.60304 0.0
C860 C 0.30363 0.1375 0.60356 0.0
C861 C 0.26617 0.16198 0.60047 0.0
C862 C 0.26743 0.24702 0.58711 0.0
H863 H 0.16599 0.33299 0.60327 0.0
H864 H 0.18742 0.28401 0.59778 0.0
H865 H 0.25907 0.29428 0.57886 0.0
H866 H 0.33232 0.16951 0.60108 0.0
H867 H 0.30867 0.21682 0.59711 0.0
H868 H 0.23654 0.20307 0.61775 0.0
C869 C 0.19676 0.30579 0.5999 0.0
C870 C 0.25394 0.27435 0.58729 0.0
C871 C 0.1845 0.33378 0.60296 0.0
C872 C 0.31388 0.16707 0.60071 0.0
C873 C 0.30029 0.19412 0.59838 0.0
C874 C 0.24147 0.22244 0.60883 0.0
C875 C 0.22086 0.30587 0.59984 0.0
C876 C 0.23412 0.27601 0.59828 0.0
C877 C 0.27621 0.19197 0.59864 0.0
C878 C 0.26149 0.22077 0.59803 0.0
H879 H 0.22969 0.38392 0.60821 0.0
H880 H 0.2509 0.33543 0.60272 0.0
H881 H 0.213 0.25034 0.61776 0.0
H882 H 0.27125 0.11263 0.6049 0.0
H883 H 0.24776 0.15915 0.60019 0.0
C884 C 0.68698 0.16931 0.88433 0.0
C885 C 0.69858 0.14038 0.88304 0.0
C886 C 0.69924 0.19737 0.88709 0.0
C887 C 0.75571 0.2299 0.90116 0.0
H888 H 0.74173 0.2954 0.86552 0.0
C889 C 0.81751 0.33396 0.88434 0.0
C890 C 0.80751 0.36313 0.87989 0.0
C891 C 0.80371 0.30729 0.88729 0.0
C892 C 0.74568 0.27767 0.87583 0.0
H893 H 0.73177 0.11776 0.88488 0.0
H894 H 0.753 0.16641 0.88987 0.0
H895 H 0.71763 0.24879 0.86722 0.0
H896 H 0.77527 0.38773 0.87624 0.0
H897 H 0.75145 0.34191 0.88184 0.0
H898 H 0.78396 0.25878 0.90962 0.0
C899 C 0.73456 0.16764 0.88867 0.0
C900 C 0.73179 0.25092 0.8768 0.0
C901 C 0.72239 0.13978 0.88568 0.0
C902 C 0.78355 0.36545 0.8793 0.0
C903 C 0.76985 0.33908 0.88243 0.0
C904 C 0.76957 0.25684 0.90027 0.0
C905 C 0.72323 0.19685 0.8889 0.0
C906 C 0.73674 0.22658 0.88935 0.0
C907 C 0.77969 0.30946 0.886 0.0
C908 C 0.76481 0.28099 0.88749 0.0
H909 H 0.66864 0.17044 0.88233 0.0
H910 H 0.69003 0.21956 0.88737 0.0
H911 H 0.75989 0.21157 0.91104 0.0
H912 H 0.83594 0.33153 0.8849 0.0
H913 H 0.81189 0.2848 0.88994 0.0
C914 C 0.18875 0.66821 0.88718 0.0
C915 C 0.20065 0.63985 0.88429 0.0
C916 C 0.20076 0.69641 0.89017 0.0
C917 C 0.2578 0.72963 0.90211 0.0
H918 H 0.23973 0.79787 0.86959 0.0
C919 C 0.317 0.83602 0.88453 0.0
C920 C 0.30652 0.86524 0.88101 0.0
C921 C 0.30361 0.80909 0.88788 0.0
C922 C 0.24484 0.77938 0.87906 0.0
H923 H 0.2343 0.61835 0.88347 0.0
H924 H 0.25511 0.66723 0.88885 0.0
H925 H 0.21648 0.75045 0.87119 0.0
H926 H 0.27399 0.88967 0.87953 0.0
H927 H 0.25087 0.84339 0.88593 0.0
H928 H 0.28635 0.75853 0.90984 0.0
C929 C 0.23659 0.66789 0.88874 0.0
C930 C 0.23144 0.75214 0.87997 0.0
C931 C 0.22465 0.6399 0.88552 0.0
C932 C 0.28257 0.86736 0.88187 0.0
C933 C 0.26928 0.84072 0.88543 0.0
C934 C 0.27117 0.75706 0.90132 0.0
C935 C 0.22485 0.69662 0.89061 0.0
C936 C 0.23788 0.72678 0.89133 0.0
C937 C 0.27952 0.81102 0.88797 0.0
C938 C 0.26497 0.7822 0.88963 0.0
H939 H 0.17026 0.66885 0.8863 0.0
H940 H 0.19123 0.71818 0.89173 0.0
H941 H 0.26313 0.71053 0.91109 0.0
H942 H 0.33544 0.83373 0.88395 0.0
H943 H 0.31212 0.7866 0.88967 0.0
C944 C 0.33271 0.00881 0.31295 0.0
C945 C 0.33618 0.04072 0.31739 0.0
C946 C 0.33283 0.99899 0.29449 0.0
C947 C 0.32242 0.02662 0.24759 0.0
H948 H 0.36125 0.95715 0.23238 0.0
C949 C 0.33392 0.99424 0.17064 0.0
C950 C 0.33646 0.96222 0.16616 0.0
C951 C 0.33411 0.00395 0.18912 0.0
C952 C 0.35 0.97625 0.23639 0.0
H953 H 0.34231 0.08743 0.30613 0.0
H954 H 0.34208 0.0703 0.27388 0.0
H955 H 0.36045 0.97313 0.26474 0.0
H956 H 0.34083 0.91514 0.17735 0.0
H957 H 0.34019 0.93174 0.2095 0.0
H958 H 0.31135 0.02932 0.21949 0.0
C959 C 0.3394 0.05293 0.28466 0.0
C960 C 0.34965 0.98545 0.25493 0.0
C961 C 0.33965 0.06265 0.30309 0.0
C962 C 0.33907 0.94005 0.18042 0.0
C963 C 0.33885 0.94964 0.19887 0.0
C964 C 0.32246 0.01711 0.2291 0.0
C965 C 0.33603 0.02102 0.2802 0.0
C966 C 0.33596 0.0108 0.26066 0.0
C967 C 0.33646 0.98174 0.2035 0.0
C968 C 0.33633 0.99188 0.22322 0.0
H969 H 0.33001 0.99143 0.32371 0.0
H970 H 0.3301 0.97426 0.29137 0.0
H971 H 0.31154 0.04607 0.25174 0.0
H972 H 0.33203 0.01182 0.15988 0.0
H973 H 0.33266 0.02892 0.19209 0.0
C974 C 0.67328 0.00974 0.17372 0.0
C975 C 0.66832 0.04104 0.16876 0.0
C976 C 0.67298 0.00067 0.19227 0.0
C977 C 0.67992 0.03102 0.23896 0.0
H978 H 0.64491 0.95756 0.25384 0.0
C979 C 0.66846 0.99734 0.31576 0.0
C980 C 0.6679 0.96507 0.32004 0.0
C981 C 0.66809 0.00722 0.29732 0.0
C982 C 0.65509 0.97784 0.24992 0.0
H983 H 0.65924 0.08742 0.17918 0.0
H984 H 0.65902 0.07156 0.21163 0.0
H985 H 0.64578 0.97302 0.22143 0.0
H986 H 0.66711 0.91775 0.30865 0.0
H987 H 0.66756 0.93475 0.27662 0.0
H988 H 0.6899 0.03542 0.26725 0.0
C989 C 0.66309 0.05414 0.20117 0.0
C990 C 0.65546 0.98672 0.23137 0.0
C991 C 0.66308 0.06311 0.18262 0.0
C992 C 0.66721 0.94283 0.30569 0.0
C993 C 0.66733 0.95262 0.28732 0.0
C994 C 0.67987 0.02185 0.2575 0.0
C995 C 0.66801 0.02286 0.20613 0.0
C996 C 0.66784 0.01338 0.22575 0.0
C997 C 0.6676 0.98494 0.28287 0.0
C998 C 0.66744 0.99513 0.26321 0.0
H999 H 0.67739 0.99229 0.16329 0.0
H1000 H 0.67696 0.97644 0.19583 0.0
H1001 H 0.68975 0.05156 0.23488 0.0
H1002 H 0.66889 0.0149 0.32664 0.0
H1003 H 0.66794 0.0323 0.29443 0.0
C1004 C 0.67602 0.0652 0.80385 0.0
C1005 C 0.6759 0.04267 0.81805 0.0
C1006 C 0.67738 0.05578 0.78543 0.0
C1007 C 0.69038 0.9868 0.75536 0.0
H1008 H 0.65422 0.03392 0.71984 0.0
C1009 C 0.66696 0.94077 0.68271 0.0
C1010 C 0.67081 0.96171 0.66799 0.0
C1011 C 0.66909 0.9511 0.70094 0.0
C1012 C 0.66455 0.02075 0.7296 0.0
H1013 H 0.67721 0.99272 0.82434 0.0
H1014 H 0.67846 0.97599 0.79208 0.0
H1015 H 0.65513 0.05083 0.75197 0.0
H1016 H 0.67965 0.00984 0.66065 0.0
H1017 H 0.68285 0.02809 0.69263 0.0
H1018 H 0.69895 0.95601 0.73288 0.0
C1019 C 0.67823 0.00102 0.79511 0.0
C1020 C 0.66519 0.03047 0.748 0.0
C1021 C 0.67733 0.01052 0.81359 0.0
C1022 C 0.67656 0.99324 0.67177 0.0
C1023 C 0.67836 0.00368 0.69001 0.0
C1024 C 0.68943 0.97681 0.73698 0.0
C1025 C 0.67814 0.02356 0.7808 0.0
C1026 C 0.67807 0.01358 0.76113 0.0
C1027 C 0.67477 0.98264 0.70472 0.0
C1028 C 0.67644 0.99367 0.724 0.0
H1029 H 0.67528 0.0902 0.80697 0.0
H1030 H 0.67786 0.07383 0.77484 0.0
H1031 H 0.70082 0.97358 0.765 0.0
H1032 H 0.6626 0.9163 0.68017 0.0
H1033 H 0.66602 0.93456 0.71209 0.0
C1034 C 0.34235 0.93957 0.80272 0.0
C1035 C 0.33962 0.96179 0.81695 0.0
C1036 C 0.34282 0.94918 0.78428 0.0
C1037 C 0.32754 0.01689 0.75398 0.0
H1038 H 0.36512 0.97201 0.71842 0.0
C1039 C 0.34352 0.06162 0.67983 0.0
C1040 C 0.33921 0.03971 0.66567 0.0
C1041 C 0.34416 0.05192 0.69825 0.0
C1042 C 0.35447 0.9846 0.72822 0.0
H1043 H 0.33582 0.01151 0.82318 0.0
H1044 H 0.33762 0.02861 0.791 0.0
H1045 H 0.36578 0.95624 0.75086 0.0
H1046 H 0.33276 0.9904 0.65956 0.0
H1047 H 0.33438 0.97328 0.69191 0.0
H1048 H 0.31682 0.04581 0.73127 0.0
C1049 C 0.33863 0.0036 0.79398 0.0
C1050 C 0.35473 0.97553 0.74679 0.0
C1051 C 0.33776 0.99388 0.81244 0.0
C1052 C 0.33605 0.00777 0.67023 0.0
C1053 C 0.33706 0.99798 0.68868 0.0
C1054 C 0.32758 0.02625 0.73547 0.0
C1055 C 0.34098 0.98134 0.77963 0.0
C1056 C 0.34117 0.99146 0.75991 0.0
C1057 C 0.34085 0.02006 0.70284 0.0
C1058 C 0.34096 0.01011 0.72243 0.0
H1059 H 0.34364 0.9146 0.80581 0.0
H1060 H 0.34418 0.93125 0.77367 0.0
H1061 H 0.3165 0.02932 0.76354 0.0
H1062 H 0.34601 0.0864 0.67672 0.0
H1063 H 0.3473 0.06933 0.70893 0.0
C1064 C 0.83085 0.49208 0.1707 0.0
C1065 C 0.83526 0.46015 0.1669 0.0
C1066 C 0.82999 0.50273 0.18895 0.0
C1067 C 0.81873 0.47704 0.23601 0.0
H1068 H 0.85718 0.5472 0.25081 0.0
C1069 C 0.83202 0.50917 0.31259 0.0
C1070 C 0.83461 0.54114 0.31714 0.0
C1071 C 0.83142 0.49975 0.2941 0.0
C1072 C 0.846 0.52795 0.24689 0.0
H1073 H 0.84198 0.41424 0.17903 0.0
H1074 H 0.84009 0.43286 0.21096 0.0
H1075 H 0.85665 0.5305 0.21859 0.0
H1076 H 0.83805 0.58849 0.30611 0.0
H1077 H 0.83604 0.57236 0.27391 0.0
H1078 H 0.80759 0.47478 0.2641 0.0
C1079 C 0.83741 0.44957 0.19983 0.0
C1080 C 0.84581 0.51836 0.22845 0.0
C1081 C 0.83865 0.43902 0.1816 0.0
C1082 C 0.83632 0.5636 0.30295 0.0
C1083 C 0.83529 0.5543 0.28449 0.0
C1084 C 0.81862 0.48694 0.25441 0.0
C1085 C 0.83314 0.4815 0.20363 0.0
C1086 C 0.83238 0.49263 0.22292 0.0
C1087 C 0.83297 0.52224 0.27981 0.0
C1088 C 0.83245 0.51231 0.26012 0.0
H1089 H 0.82817 0.50883 0.15959 0.0
H1090 H 0.82659 0.52747 0.19161 0.0
H1091 H 0.80805 0.45731 0.23196 0.0
H1092 H 0.83077 0.4914 0.32332 0.0
H1093 H 0.83005 0.47481 0.29104 0.0
C1094 C 0.17235 0.49561 0.31224 0.0
C1095 C 0.16863 0.46351 0.31606 0.0
C1096 C 0.17244 0.50642 0.29397 0.0
C1097 C 0.18353 0.48052 0.24692 0.0
H1098 H 0.14486 0.55017 0.2317 0.0
C1099 C 0.17121 0.51109 0.17012 0.0
C1100 C 0.16896 0.54298 0.16528 0.0
C1101 C 0.17113 0.50204 0.18869 0.0
C1102 C 0.15607 0.53103 0.23574 0.0
H1103 H 0.16209 0.41755 0.30392 0.0
H1104 H 0.16269 0.43638 0.27204 0.0
H1105 H 0.14545 0.53396 0.26407 0.0
H1106 H 0.16509 0.59054 0.17589 0.0
H1107 H 0.16587 0.57502 0.20827 0.0
H1108 H 0.19469 0.47788 0.21886 0.0
C1109 C 0.16544 0.45313 0.28315 0.0
C1110 C 0.15631 0.52173 0.25426 0.0
C1111 C 0.16497 0.44244 0.30137 0.0
C1112 C 0.16665 0.56571 0.17927 0.0
C1113 C 0.16697 0.55676 0.19783 0.0
C1114 C 0.18359 0.4901 0.22846 0.0
C1115 C 0.16921 0.48517 0.2793 0.0
C1116 C 0.16983 0.49617 0.25994 0.0
C1117 C 0.16922 0.5248 0.2028 0.0
C1118 C 0.16965 0.51524 0.22258 0.0
H1119 H 0.17516 0.51233 0.32334 0.0
H1120 H 0.17545 0.53124 0.29129 0.0
H1121 H 0.19432 0.46096 0.25105 0.0
H1122 H 0.17285 0.49308 0.15957 0.0
H1123 H 0.1724 0.47716 0.19194 0.0
C1124 C 0.17274 0.5686 0.80409 0.0
C1125 C 0.17461 0.5456 0.81797 0.0
C1126 C 0.17314 0.55995 0.78548 0.0
C1127 C 0.18794 0.49304 0.75429 0.0
H1128 H 0.1492 0.53823 0.71971 0.0
C1129 C 0.16473 0.44569 0.68218 0.0
C1130 C 0.16825 0.46643 0.66731 0.0
C1131 C 0.16634 0.45651 0.70033 0.0
C1132 C 0.16023 0.52563 0.72922 0.0
H1133 H 0.17811 0.49556 0.82342 0.0
H1134 H 0.17775 0.48016 0.79097 0.0
H1135 H 0.15027 0.55451 0.75203 0.0
H1136 H 0.17568 0.51485 0.65965 0.0
H1137 H 0.17792 0.53402 0.69159 0.0
H1138 H 0.19709 0.46341 0.73146 0.0
C1139 C 0.17675 0.50502 0.79434 0.0
C1140 C 0.16096 0.53498 0.74772 0.0
C1141 C 0.17677 0.51377 0.81296 0.0
C1142 C 0.17293 0.49838 0.67089 0.0
C1143 C 0.17416 0.50933 0.68909 0.0
C1144 C 0.1869 0.48341 0.73586 0.0
C1145 C 0.17498 0.52802 0.78035 0.0
C1146 C 0.17473 0.51869 0.76053 0.0
C1147 C 0.17113 0.48837 0.70394 0.0
C1148 C 0.17295 0.49951 0.72322 0.0
H1149 H 0.1713 0.59339 0.8076 0.0
H1150 H 0.17222 0.57838 0.77514 0.0
H1151 H 0.19915 0.48039 0.76362 0.0
H1152 H 0.16114 0.42092 0.67982 0.0
H1153 H 0.16371 0.44 0.71158 0.0
C1154 C 0.83392 0.56363 0.68249 0.0
C1155 C 0.8328 0.54098 0.66838 0.0
C1156 C 0.83423 0.55437 0.70097 0.0
C1157 C 0.82291 0.48595 0.73175 0.0
H1158 H 0.86084 0.53348 0.76586 0.0
C1159 C 0.84635 0.44163 0.80453 0.0
C1160 C 0.84223 0.46296 0.81901 0.0
C1161 C 0.84508 0.45164 0.7862 0.0
C1162 C 0.85008 0.52017 0.75648 0.0
H1163 H 0.83115 0.49096 0.66233 0.0
H1164 H 0.83271 0.47453 0.69464 0.0
H1165 H 0.85875 0.54953 0.73356 0.0
H1166 H 0.83422 0.51156 0.82584 0.0
H1167 H 0.83249 0.52926 0.79364 0.0
H1168 H 0.81492 0.45601 0.75473 0.0
C1169 C 0.83266 0.49952 0.69152 0.0
C1170 C 0.84876 0.5294 0.73801 0.0
C1171 C 0.83192 0.50886 0.67301 0.0
C1172 C 0.83744 0.49466 0.8149 0.0
C1173 C 0.8365 0.50478 0.79654 0.0
C1174 C 0.82452 0.47647 0.75017 0.0
C1175 C 0.83388 0.52219 0.70572 0.0
C1176 C 0.83514 0.51241 0.72541 0.0
C1177 C 0.84 0.48323 0.78207 0.0
C1178 C 0.83812 0.4935 0.76266 0.0
H1179 H 0.83431 0.58861 0.67927 0.0
H1180 H 0.8346 0.57251 0.71152 0.0
H1181 H 0.8119 0.47269 0.72255 0.0
H1182 H 0.85005 0.41703 0.80732 0.0
H1183 H 0.84807 0.43471 0.77524 0.0
loop_
_geom_bond_atom_site_label_1
_geom_bond_atom_site_label_2
_geom_bond_distance
_geom_bond_site_symmetry_2
_ccdc_geom_bond_type
Co0 O1 2.216 . S
Co0 O2 2.091 . S
Co0 O4 2.004 . S
Co0 O10 2.021 . S
Co0 O12 2.137 . S
Co0 O13 2.244 . S
O1 Co0 2.216 . S
O1 C8 1.247 . S
O2 Co0 2.091 . S
O2 C8 1.261 . S
C3 O12 1.247 . S
C3 O13 1.272 . S
O4 Co0 2.004 . S
O4 C9 1.259 . S
Co5 O6 2.061 1_565 S
Co5 O11 2.069 . S
Co5 O13 2.135 1_565 S
O6 Co5 2.061 1_545 S
O6 C9 1.235 . S
C7 O10 1.238 . S
C7 O11 1.207 1_545 S
C8 O1 1.247 . S
C8 O2 1.261 . S
C9 O4 1.259 . S
C9 O6 1.235 . S
O10 Co0 2.021 . S
O10 C7 1.238 . S
O11 Co5 2.069 . S
O11 C7 1.207 1_565 S
O12 Co0 2.137 . S
O12 C3 1.247 . S
O13 Co0 2.244 . S
O13 C3 1.272 . S
O13 Co5 2.135 1_545 S
Co14 O15 2.216 . S
Co14 O16 2.091 . S
Co14 O18 2.004 . S
Co14 O24 2.021 . S
Co14 O26 2.137 . S
Co14 O27 2.244 . S
O15 Co14 2.216 . S
O15 C22 1.247 . S
O16 Co14 2.091 . S
O16 C22 1.261 . S
C17 O26 1.247 . S
C17 O27 1.272 . S
O18 Co14 2.004 . S
O18 C23 1.259 . S
Co19 O20 2.061 1_545 S
Co19 O25 2.069 . S
Co19 O27 2.135 1_545 S
O20 Co19 2.061 1_565 S
O20 C23 1.235 . S
C21 O24 1.238 . S
C21 O25 1.207 1_565 S
C22 O15 1.247 . S
C22 O16 1.261 . S
C23 O18 1.259 . S
C23 O20 1.235 . S
O24 Co14 2.021 . S
O24 C21 1.238 . S
O25 Co19 2.069 . S
O25 C21 1.207 1_545 S
O26 Co14 2.137 . S
O26 C17 1.247 . S
O27 Co14 2.244 . S
O27 C17 1.272 . S
O27 Co19 2.135 1_565 S
Co28 O29 2.216 . S
Co28 O30 2.091 . S
Co28 O32 2.004 . S
Co28 O38 2.021 . S
Co28 O40 2.137 . S
Co28 O41 2.244 . S
O29 Co28 2.216 . S
O29 C36 1.247 . S
O30 Co28 2.091 . S
O30 C36 1.261 . S
C31 O40 1.247 . S
C31 O41 1.272 . S
O32 Co28 2.004 . S
O32 C37 1.259 . S
Co33 O34 2.061 1_545 S
Co33 O39 2.069 . S
Co33 O41 2.135 1_545 S
O34 Co33 2.061 1_565 S
O34 C37 1.235 . S
C35 O38 1.238 . S
C35 O39 1.207 1_565 S
C36 O29 1.247 . S
C36 O30 1.261 . S
C37 O32 1.259 . S
C37 O34 1.235 . S
O38 Co28 2.021 . S
O38 C35 1.238 . S
O39 Co33 2.069 . S
O39 C35 1.207 1_545 S
O40 Co28 2.137 . S
O40 C31 1.247 . S
O41 Co28 2.244 . S
O41 C31 1.272 . S
O41 Co33 2.135 1_565 S
Co42 O43 2.216 . S
Co42 O44 2.091 . S
Co42 O46 2.004 . S
Co42 O52 2.021 . S
Co42 O54 2.137 . S
Co42 O55 2.244 . S
O43 Co42 2.216 . S
O43 C50 1.247 . S
O44 Co42 2.091 . S
O44 C50 1.261 . S
C45 O54 1.247 . S
C45 O55 1.272 . S
O46 Co42 2.004 . S
O46 C51 1.259 . S
Co47 O48 2.061 1_565 S
Co47 O53 2.069 . S
Co47 O55 2.135 1_565 S
O48 Co47 2.061 1_545 S
O48 C51 1.235 . S
C49 O52 1.238 . S
C49 O53 1.207 1_545 S
C50 O43 1.247 . S
C50 O44 1.261 . S
C51 O46 1.259 . S
C51 O48 1.235 . S
O52 Co42 2.021 . S
O52 C49 1.238 . S
O53 Co47 2.069 . S
O53 C49 1.207 1_565 S
O54 Co42 2.137 . S
O54 C45 1.247 . S
O55 Co42 2.244 . S
O55 C45 1.272 . S
O55 Co47 2.135 1_545 S
Co56 O57 2.216 . S
Co56 O58 2.091 . S
Co56 O60 2.004 . S
Co56 O66 2.021 . S
Co56 O68 2.137 . S
Co56 O69 2.244 . S
O57 Co56 2.216 . S
O57 C64 1.247 . S
O58 Co56 2.091 . S
O58 C64 1.261 . S
C59 O68 1.247 . S
C59 O69 1.272 . S
O60 Co56 2.004 . S
O60 C65 1.259 . S
Co61 O62 2.061 1_545 S
Co61 O67 2.069 . S
Co61 O69 2.135 1_545 S
O62 Co61 2.061 1_565 S
O62 C65 1.235 . S
C63 O66 1.238 . S
C63 O67 1.207 1_565 S
C64 O57 1.247 . S
C64 O58 1.261 . S
C65 O60 1.259 . S
C65 O62 1.235 . S
O66 Co56 2.021 . S
O66 C63 1.238 . S
O67 Co61 2.069 . S
O67 C63 1.207 1_545 S
O68 Co56 2.137 . S
O68 C59 1.247 . S
O69 Co56 2.244 . S
O69 C59 1.272 . S
O69 Co61 2.135 1_565 S
Co70 O71 2.216 . S
Co70 O72 2.091 . S
Co70 O74 2.004 . S
Co70 O80 2.021 . S
Co70 O82 2.137 . S
Co70 O83 2.244 . S
O71 Co70 2.216 . S
O71 C78 1.247 . S
O72 Co70 2.091 . S
O72 C78 1.261 . S
C73 O82 1.247 . S
C73 O83 1.272 . S
O74 Co70 2.004 . S
O74 C79 1.259 . S
Co75 O76 2.061 1_565 S
Co75 O81 2.069 . S
Co75 O83 2.135 1_565 S
O76 Co75 2.061 1_545 S
O76 C79 1.235 . S
C77 O80 1.238 . S
C77 O81 1.207 1_545 S
C78 O71 1.247 . S
C78 O72 1.261 . S
C79 O74 1.259 . S
C79 O76 1.235 . S
O80 Co70 2.021 . S
O80 C77 1.238 . S
O81 Co75 2.069 . S
O81 C77 1.207 1_565 S
O82 Co70 2.137 . S
O82 C73 1.247 . S
O83 Co70 2.244 . S
O83 C73 1.272 . S
O83 Co75 2.135 1_545 S
Co84 O85 2.216 . S
Co84 O86 2.091 . S
Co84 O88 2.004 . S
Co84 O94 2.021 . S
Co84 O96 2.137 . S
Co84 O97 2.244 . S
O85 Co84 2.216 . S
O85 C92 1.247 . S
O86 Co84 2.091 . S
O86 C92 1.261 . S
C87 O96 1.247 . S
C87 O97 1.272 . S
O88 Co84 2.004 . S
O88 C93 1.259 . S
Co89 O90 2.061 1_565 S
Co89 O95 2.069 . S
Co89 O97 2.135 1_565 S
O90 Co89 2.061 1_545 S
O90 C93 1.235 . S
C91 O94 1.238 . S
C91 O95 1.207 1_545 S
C92 O85 1.247 . S
C92 O86 1.261 . S
C93 O88 1.259 . S
C93 O90 1.235 . S
O94 Co84 2.021 . S
O94 C91 1.238 . S
O95 Co89 2.069 . S
O95 C91 1.207 1_565 S
O96 Co84 2.137 . S
O96 C87 1.247 . S
O97 Co84 2.244 . S
O97 C87 1.272 . S
O97 Co89 2.135 1_545 S
Co98 O99 2.216 . S
Co98 O100 2.091 . S
Co98 O102 2.004 . S
Co98 O108 2.021 . S
Co98 O110 2.137 . S
Co98 O111 2.244 . S
O99 Co98 2.216 . S
O99 C106 1.247 . S
O100 Co98 2.091 . S
O100 C106 1.261 . S
C101 O110 1.247 . S
C101 O111 1.272 . S
O102 Co98 2.004 . S
O102 C107 1.259 . S
Co103 O104 2.061 1_545 S
Co103 O109 2.069 . S
Co103 O111 2.135 1_545 S
O104 Co103 2.061 1_565 S
O104 C107 1.235 . S
C105 O108 1.238 . S
C105 O109 1.207 1_565 S
C106 O99 1.247 . S
C106 O100 1.261 . S
C107 O102 1.259 . S
C107 O104 1.235 . S
O108 Co98 2.021 . S
O108 C105 1.238 . S
O109 Co103 2.069 . S
O109 C105 1.207 1_545 S
O110 Co98 2.137 . S
O110 C101 1.247 . S
O111 Co98 2.244 . S
O111 C101 1.272 . S
O111 Co103 2.135 1_565 S
Co112 O113 2.216 . S
Co112 O114 2.091 . S
Co112 O116 2.004 . S
Co112 O122 2.021 . S
Co112 O124 2.137 . S
Co112 O125 2.244 . S
O113 Co112 2.216 . S
O113 C120 1.247 . S
O114 Co112 2.091 . S
O114 C120 1.261 . S
C115 O124 1.247 . S
C115 O125 1.272 . S
O116 Co112 2.004 . S
O116 C121 1.259 . S
Co117 O118 2.061 . S
Co117 O123 2.052 . S
Co117 O125 2.135 . S
O118 Co117 2.061 . S
O118 C121 1.235 . S
C119 O122 1.238 . S
C119 O123 1.241 . S
C120 O113 1.247 . S
C120 O114 1.261 . S
C121 O116 1.259 . S
C121 O118 1.235 . S
O122 Co112 2.021 . S
O122 C119 1.238 . S
O123 Co117 2.052 . S
O123 C119 1.241 . S
O124 Co112 2.137 . S
O124 C115 1.247 . S
O125 Co112 2.244 . S
O125 C115 1.272 . S
O125 Co117 2.135 . S
Co126 O127 2.216 . S
Co126 O128 2.091 . S
Co126 O130 2.004 . S
Co126 O136 2.021 . S
Co126 O138 2.137 . S
Co126 O139 2.244 . S
O127 Co126 2.216 . S
O127 C134 1.247 . S
O128 Co126 2.091 . S
O128 C134 1.261 . S
C129 O138 1.247 . S
C129 O139 1.272 . S
O130 Co126 2.004 . S
O130 C135 1.259 . S
Co131 O132 2.061 . S
Co131 O137 2.052 . S
Co131 O139 2.135 . S
O132 Co131 2.061 . S
O132 C135 1.235 . S
C133 O136 1.238 . S
C133 O137 1.241 . S
C134 O127 1.247 . S
C134 O128 1.261 . S
C135 O130 1.259 . S
C135 O132 1.235 . S
O136 Co126 2.021 . S
O136 C133 1.238 . S
O137 Co131 2.052 . S
O137 C133 1.241 . S
O138 Co126 2.137 . S
O138 C129 1.247 . S
O139 Co126 2.244 . S
O139 C129 1.272 . S
O139 Co131 2.135 . S
Co140 O141 2.216 . S
Co140 O142 2.091 . S
Co140 O144 2.004 . S
Co140 O150 2.021 . S
Co140 O152 2.137 . S
Co140 O153 2.244 . S
O141 Co140 2.216 . S
O141 C148 1.247 . S
O142 Co140 2.091 . S
O142 C148 1.261 . S
C143 O152 1.247 . S
C143 O153 1.272 . S
O144 Co140 2.004 . S
O144 C149 1.259 . S
Co145 O146 2.061 . S
Co145 O151 2.052 . S
Co145 O153 2.135 . S
O146 Co145 2.061 . S
O146 C149 1.235 . S
C147 O150 1.238 . S
C147 O151 1.241 . S
C148 O141 1.247 . S
C148 O142 1.261 . S
C149 O144 1.259 . S
C149 O146 1.235 . S
O150 Co140 2.021 . S
O150 C147 1.238 . S
O151 Co145 2.052 . S
O151 C147 1.241 . S
O152 Co140 2.137 . S
O152 C143 1.247 . S
O153 Co140 2.244 . S
O153 C143 1.272 . S
O153 Co145 2.135 . S
Co154 O155 2.216 . S
Co154 O156 2.091 . S
Co154 O158 2.004 . S
Co154 O164 2.021 . S
Co154 O166 2.137 . S
Co154 O167 2.244 . S
O155 Co154 2.216 . S
O155 C162 1.247 . S
O156 Co154 2.091 . S
O156 C162 1.261 . S
C157 O166 1.247 . S
C157 O167 1.272 . S
O158 Co154 2.004 . S
O158 C163 1.259 . S
Co159 O160 2.061 . S
Co159 O165 2.052 . S
Co159 O167 2.135 . S
O160 Co159 2.061 . S
O160 C163 1.235 . S
C161 O164 1.238 . S
C161 O165 1.241 . S
C162 O155 1.247 . S
C162 O156 1.261 . S
C163 O158 1.259 . S
C163 O160 1.235 . S
O164 Co154 2.021 . S
O164 C161 1.238 . S
O165 Co159 2.052 . S
O165 C161 1.241 . S
O166 Co154 2.137 . S
O166 C157 1.247 . S
O167 Co154 2.244 . S
O167 C157 1.272 . S
O167 Co159 2.135 . S
Co168 O169 2.216 . S
Co168 O170 2.091 . S
Co168 O172 2.004 . S
Co168 O178 2.021 . S
Co168 O180 2.137 . S
Co168 O181 2.244 . S
O169 Co168 2.216 . S
O169 C176 1.247 . S
O170 Co168 2.091 . S
O170 C176 1.261 . S
C171 O180 1.247 . S
C171 O181 1.272 . S
O172 Co168 2.004 . S
O172 C177 1.259 . S
Co173 O174 2.061 . S
Co173 O179 2.052 . S
Co173 O181 2.135 . S
O174 Co173 2.061 . S
O174 C177 1.235 . S
C175 O178 1.238 . S
C175 O179 1.241 . S
C176 O169 1.247 . S
C176 O170 1.261 . S
C177 O172 1.259 . S
C177 O174 1.235 . S
O178 Co168 2.021 . S
O178 C175 1.238 . S
O179 Co173 2.052 . S
O179 C175 1.241 . S
O180 Co168 2.137 . S
O180 C171 1.247 . S
O181 Co168 2.244 . S
O181 C171 1.272 . S
O181 Co173 2.135 . S
Co182 O183 2.216 . S
Co182 O184 2.091 . S
Co182 O186 2.004 . S
Co182 O192 2.021 . S
Co182 O194 2.137 . S
Co182 O195 2.244 . S
O183 Co182 2.216 . S
O183 C190 1.247 . S
O184 Co182 2.091 . S
O184 C190 1.261 . S
C185 O194 1.247 . S
C185 O195 1.272 . S
O186 Co182 2.004 . S
O186 C191 1.259 . S
Co187 O188 2.061 . S
Co187 O193 2.052 . S
Co187 O195 2.135 . S
O188 Co187 2.061 . S
O188 C191 1.235 . S
C189 O192 1.238 . S
C189 O193 1.241 . S
C190 O183 1.247 . S
C190 O184 1.261 . S
C191 O186 1.259 . S
C191 O188 1.235 . S
O192 Co182 2.021 . S
O192 C189 1.238 . S
O193 Co187 2.052 . S
O193 C189 1.241 . S
O194 Co182 2.137 . S
O194 C185 1.247 . S
O195 Co182 2.244 . S
O195 C185 1.272 . S
O195 Co187 2.135 . S
Co196 O197 2.216 . S
Co196 O198 2.091 . S
Co196 O200 2.004 . S
Co196 O206 2.021 . S
Co196 O208 2.137 . S
Co196 O209 2.244 . S
O197 Co196 2.216 . S
O197 C204 1.247 . S
O198 Co196 2.091 . S
O198 C204 1.261 . S
C199 O208 1.247 . S
C199 O209 1.272 . S
O200 Co196 2.004 . S
O200 C205 1.259 . S
Co201 O202 2.061 . S
Co201 O207 2.052 . S
Co201 O209 2.135 . S
O202 Co201 2.061 . S
O202 C205 1.235 . S
C203 O206 1.238 . S
C203 O207 1.241 . S
C204 O197 1.247 . S
C204 O198 1.261 . S
C205 O200 1.259 . S
C205 O202 1.235 . S
O206 Co196 2.021 . S
O206 C203 1.238 . S
O207 Co201 2.052 . S
O207 C203 1.241 . S
O208 Co196 2.137 . S
O208 C199 1.247 . S
O209 Co196 2.244 . S
O209 C199 1.272 . S
O209 Co201 2.135 . S
Co210 O211 2.216 . S
Co210 O212 2.091 . S
Co210 O214 2.004 . S
Co210 O220 2.021 . S
Co210 O222 2.137 . S
Co210 O223 2.244 . S
O211 Co210 2.216 . S
O211 C218 1.247 . S
O212 Co210 2.091 . S
O212 C218 1.261 . S
C213 O222 1.247 . S
C213 O223 1.272 . S
O214 Co210 2.004 . S
O214 C219 1.259 . S
Co215 O216 2.061 . S
Co215 O221 2.052 . S
Co215 O223 2.135 . S
O216 Co215 2.061 . S
O216 C219 1.235 . S
C217 O220 1.238 . S
C217 O221 1.241 . S
C218 O211 1.247 . S
C218 O212 1.261 . S
C219 O214 1.259 . S
C219 O216 1.235 . S
O220 Co210 2.021 . S
O220 C217 1.238 . S
O221 Co215 2.052 . S
O221 C217 1.241 . S
O222 Co210 2.137 . S
O222 C213 1.247 . S
O223 Co210 2.244 . S
O223 C213 1.272 . S
O223 Co215 2.135 . S
C224 C225 1.349 . S
C224 C226 1.327 . S
C224 H249 0.950 1_545 S
C225 C224 1.349 . S
C225 C241 1.349 . S
C226 C224 1.327 . S
C226 C245 1.429 . S
C226 H250 0.950 1_545 S
C227 C244 1.574 . S
C227 C246 1.368 . S
C227 H251 0.949 . S
H228 C232 0.949 1_565 S
C229 C230 1.349 . S
C229 C231 1.327 . S
C229 H252 0.950 . S
C230 C229 1.349 . S
C230 C242 1.349 . S
C231 C229 1.327 . S
C231 C247 1.429 . S
C231 H253 0.950 . S
C232 H228 0.949 1_545 S
C232 C240 1.574 . S
C232 C248 1.368 . S
H233 C241 0.950 . S
H234 C239 0.950 . S
H235 C240 0.949 1_565 S
H236 C242 0.950 1_565 S
H237 C243 0.950 1_565 S
H238 C244 0.949 . S
C239 H234 0.950 . S
C239 C241 1.327 . S
C239 C245 1.429 . S
C240 C232 1.574 . S
C240 H235 0.949 1_545 S
C240 C246 1.368 . S
C241 C225 1.349 . S
C241 H233 0.950 . S
C241 C239 1.327 . S
C242 C230 1.349 . S
C242 H236 0.950 1_545 S
C242 C243 1.327 . S
C243 H237 0.950 1_545 S
C243 C242 1.327 . S
C243 C247 1.429 . S
C244 C227 1.574 . S
C244 H238 0.949 . S
C244 C248 1.368 . S
C245 C226 1.429 . S
C245 C239 1.429 . S
C245 C246 1.523 . S
C246 C227 1.368 . S
C246 C240 1.368 . S
C246 C245 1.523 . S
C247 C231 1.429 . S
C247 C243 1.429 . S
C247 C248 1.523 . S
C248 C232 1.368 . S
C248 C244 1.368 . S
C248 C247 1.523 . S
H249 C224 0.950 1_565 S
H250 C226 0.950 1_565 S
H251 C227 0.949 . S
H252 C229 0.950 . S
H253 C231 0.950 . S
C254 C255 1.349 . S
C254 C256 1.327 . S
C254 H279 0.950 . S
C255 C254 1.349 . S
C255 C271 1.349 . S
C256 C254 1.327 . S
C256 C275 1.429 . S
C256 H280 0.950 . S
C257 C274 1.574 . S
C257 C276 1.368 . S
C257 H281 0.949 1_565 S
H258 C262 0.949 . S
C259 C260 1.349 . S
C259 C261 1.327 . S
C259 H282 0.950 1_565 S
C260 C259 1.349 . S
C260 C272 1.349 . S
C261 C259 1.327 . S
C261 C277 1.429 . S
C261 H283 0.950 1_565 S
C262 H258 0.949 . S
C262 C270 1.574 . S
C262 C278 1.368 . S
H263 C271 0.950 1_545 S
H264 C269 0.950 1_545 S
H265 C270 0.949 . S
H266 C272 0.950 . S
H267 C273 0.950 . S
H268 C274 0.949 1_545 S
C269 H264 0.950 1_565 S
C269 C271 1.327 . S
C269 C275 1.429 . S
C270 C262 1.574 . S
C270 H265 0.949 . S
C270 C276 1.368 . S
C271 C255 1.349 . S
C271 H263 0.950 1_565 S
C271 C269 1.327 . S
C272 C260 1.349 . S
C272 H266 0.950 . S
C272 C273 1.327 . S
C273 H267 0.950 . S
C273 C272 1.327 . S
C273 C277 1.429 . S
C274 C257 1.574 . S
C274 H268 0.949 1_565 S
C274 C278 1.368 . S
C275 C256 1.429 . S
C275 C269 1.429 . S
C275 C276 1.523 . S
C276 C257 1.368 . S
C276 C270 1.368 . S
C276 C275 1.523 . S
C277 C261 1.429 . S
C277 C273 1.429 . S
C277 C278 1.523 . S
C278 C262 1.368 . S
C278 C274 1.368 . S
C278 C277 1.523 . S
H279 C254 0.950 . S
H280 C256 0.950 . S
H281 C257 0.949 1_545 S
H282 C259 0.950 1_545 S
H283 C261 0.950 1_545 S
C284 C285 1.349 . S
C284 C286 1.327 . S
C284 H309 0.950 1_565 S
C285 C284 1.349 . S
C285 C301 1.349 . S
C286 C284 1.327 . S
C286 C305 1.429 . S
C286 H310 0.950 1_565 S
C287 C304 1.574 1_554 S
C287 C306 1.368 . S
C287 H311 0.949 . S
H288 C292 0.949 1_545 S
C289 C290 1.349 . S
C289 C291 1.327 . S
C289 H312 0.950 . S
C290 C289 1.349 . S
C290 C302 1.349 . S
C291 C289 1.327 . S
C291 C307 1.429 . S
C291 H313 0.950 . S
C292 H288 0.949 1_565 S
C292 C300 1.574 1_556 S
C292 C308 1.368 . S
H293 C301 0.950 . S
H294 C299 0.950 . S
H295 C300 0.949 1_545 S
H296 C302 0.950 1_545 S
H297 C303 0.950 1_545 S
H298 C304 0.949 . S
C299 H294 0.950 . S
C299 C301 1.327 . S
C299 C305 1.429 . S
C300 C292 1.574 1_554 S
C300 H295 0.949 1_565 S
C300 C306 1.368 . S
C301 C285 1.349 . S
C301 H293 0.950 . S
C301 C299 1.327 . S
C302 C290 1.349 . S
C302 H296 0.950 1_565 S
C302 C303 1.327 . S
C303 H297 0.950 1_565 S
C303 C302 1.327 . S
C303 C307 1.429 . S
C304 C287 1.574 1_556 S
C304 H298 0.949 . S
C304 C308 1.368 . S
C305 C286 1.429 . S
C305 C299 1.429 . S
C305 C306 1.523 . S
C306 C287 1.368 . S
C306 C300 1.368 . S
C306 C305 1.523 . S
C307 C291 1.429 . S
C307 C303 1.429 . S
C307 C308 1.523 . S
C308 C292 1.368 . S
C308 C304 1.368 . S
C308 C307 1.523 . S
H309 C284 0.950 1_545 S
H310 C286 0.950 1_545 S
H311 C287 0.949 . S
H312 C289 0.950 . S
H313 C291 0.950 . S
C314 C315 1.349 . S
C314 C316 1.327 . S
C314 H339 0.950 1_545 S
C315 C314 1.349 . S
C315 C331 1.349 . S
C316 C314 1.327 . S
C316 C335 1.429 . S
C316 H340 0.950 1_545 S
C317 C334 1.574 1_556 S
C317 C336 1.368 . S
C317 H341 0.949 . S
H318 C322 0.949 1_565 S
C319 C320 1.349 . S
C319 C321 1.327 . S
C319 H342 0.950 . S
C320 C319 1.349 . S
C320 C332 1.349 . S
C321 C319 1.327 . S
C321 C337 1.429 . S
C321 H343 0.950 . S
C322 H318 0.949 1_545 S
C322 C330 1.574 1_554 S
C322 C338 1.368 . S
H323 C331 0.950 . S
H324 C329 0.950 . S
H325 C330 0.949 1_565 S
H326 C332 0.950 1_565 S
H327 C333 0.950 1_565 S
H328 C334 0.949 . S
C329 H324 0.950 . S
C329 C331 1.327 . S
C329 C335 1.429 . S
C330 C322 1.574 1_556 S
C330 H325 0.949 1_545 S
C330 C336 1.368 . S
C331 C315 1.349 . S
C331 H323 0.950 . S
C331 C329 1.327 . S
C332 C320 1.349 . S
C332 H326 0.950 1_545 S
C332 C333 1.327 . S
C333 H327 0.950 1_545 S
C333 C332 1.327 . S
C333 C337 1.429 . S
C334 C317 1.574 1_554 S
C334 H328 0.949 . S
C334 C338 1.368 . S
C335 C316 1.429 . S
C335 C329 1.429 . S
C335 C336 1.523 . S
C336 C317 1.368 . S
C336 C330 1.368 . S
C336 C335 1.523 . S
C337 C321 1.429 . S
C337 C333 1.429 . S
C337 C338 1.523 . S
C338 C322 1.368 . S
C338 C334 1.368 . S
C338 C337 1.523 . S
H339 C314 0.950 1_565 S
H340 C316 0.950 1_565 S
H341 C317 0.949 . S
H342 C319 0.950 . S
H343 C321 0.950 . S
C344 C345 1.349 . S
C344 C346 1.327 . S
C344 H369 0.950 . S
C345 C344 1.349 . S
C345 C361 1.349 . S
C346 C344 1.327 . S
C346 C365 1.429 . S
C346 H370 0.950 . S
C347 C364 1.574 . S
C347 C366 1.368 . S
C347 H371 0.949 . S
H348 C352 0.949 . S
C349 C350 1.349 . S
C349 C351 1.327 . S
C349 H372 0.950 . S
C350 C349 1.349 . S
C350 C362 1.349 . S
C351 C349 1.327 . S
C351 C367 1.429 . S
C351 H373 0.950 . S
C352 H348 0.949 . S
C352 C360 1.574 . S
C352 C368 1.368 . S
H353 C361 0.950 . S
H354 C359 0.950 . S
H355 C360 0.949 . S
H356 C362 0.950 . S
H357 C363 0.950 . S
H358 C364 0.949 . S
C359 H354 0.950 . S
C359 C361 1.327 . S
C359 C365 1.429 . S
C360 C352 1.574 . S
C360 H355 0.949 . S
C360 C366 1.368 . S
C361 C345 1.349 . S
C361 H353 0.950 . S
C361 C359 1.327 . S
C362 C350 1.349 . S
C362 H356 0.950 . S
C362 C363 1.327 . S
C363 H357 0.950 . S
C363 C362 1.327 . S
C363 C367 1.429 . S
C364 C347 1.574 . S
C364 H358 0.949 . S
C364 C368 1.368 . S
C365 C346 1.429 . S
C365 C359 1.429 . S
C365 C366 1.523 . S
C366 C347 1.368 . S
C366 C360 1.368 . S
C366 C365 1.523 . S
C367 C351 1.429 . S
C367 C363 1.429 . S
C367 C368 1.523 . S
C368 C352 1.368 . S
C368 C364 1.368 . S
C368 C367 1.523 . S
H369 C344 0.950 . S
H370 C346 0.950 . S
H371 C347 0.949 . S
H372 C349 0.950 . S
H373 C351 0.950 . S
C374 C375 1.349 . S
C374 C376 1.327 . S
C374 H399 0.950 . S
C375 C374 1.349 . S
C375 C391 1.349 . S
C376 C374 1.327 . S
C376 C395 1.429 . S
C376 H400 0.950 . S
C377 C394 1.574 . S
C377 C396 1.368 . S
C377 H401 0.949 . S
H378 C382 0.949 . S
C379 C380 1.349 . S
C379 C381 1.327 . S
C379 H402 0.950 . S
C380 C379 1.349 . S
C380 C392 1.349 . S
C381 C379 1.327 . S
C381 C397 1.429 . S
C381 H403 0.950 . S
C382 H378 0.949 . S
C382 C390 1.574 . S
C382 C398 1.368 . S
H383 C391 0.950 . S
H384 C389 0.950 . S
H385 C390 0.949 . S
H386 C392 0.950 . S
H387 C393 0.950 . S
H388 C394 0.949 . S
C389 H384 0.950 . S
C389 C391 1.327 . S
C389 C395 1.429 . S
C390 C382 1.574 . S
C390 H385 0.949 . S
C390 C396 1.368 . S
C391 C375 1.349 . S
C391 H383 0.950 . S
C391 C389 1.327 . S
C392 C380 1.349 . S
C392 H386 0.950 . S
C392 C393 1.327 . S
C393 H387 0.950 . S
C393 C392 1.327 . S
C393 C397 1.429 . S
C394 C377 1.574 . S
C394 H388 0.949 . S
C394 C398 1.368 . S
C395 C376 1.429 . S
C395 C389 1.429 . S
C395 C396 1.523 . S
C396 C377 1.368 . S
C396 C390 1.368 . S
C396 C395 1.523 . S
C397 C381 1.429 . S
C397 C393 1.429 . S
C397 C398 1.523 . S
C398 C382 1.368 . S
C398 C394 1.368 . S
C398 C397 1.523 . S
H399 C374 0.950 . S
H400 C376 0.950 . S
H401 C377 0.949 . S
H402 C379 0.950 . S
H403 C381 0.950 . S
C404 C405 1.349 . S
C404 C406 1.327 . S
C404 H429 0.950 . S
C405 C404 1.349 . S
C405 C421 1.349 . S
C406 C404 1.327 . S
C406 C425 1.429 . S
C406 H430 0.950 . S
C407 C424 1.574 1_556 S
C407 C426 1.368 . S
C407 H431 0.949 . S
H408 C412 0.949 . S
C409 C410 1.349 . S
C409 C411 1.327 . S
C409 H432 0.950 . S
C410 C409 1.349 . S
C410 C422 1.349 . S
C411 C409 1.327 . S
C411 C427 1.429 . S
C411 H433 0.950 . S
C412 H408 0.949 . S
C412 C420 1.574 1_554 S
C412 C428 1.368 . S
H413 C421 0.950 . S
H414 C419 0.950 . S
H415 C420 0.949 . S
H416 C422 0.950 . S
H417 C423 0.950 . S
H418 C424 0.949 . S
C419 H414 0.950 . S
C419 C421 1.327 . S
C419 C425 1.429 . S
C420 C412 1.574 1_556 S
C420 H415 0.949 . S
C420 C426 1.368 . S
C421 C405 1.349 . S
C421 H413 0.950 . S
C421 C419 1.327 . S
C422 C410 1.349 . S
C422 H416 0.950 . S
C422 C423 1.327 . S
C423 H417 0.950 . S
C423 C422 1.327 . S
C423 C427 1.429 . S
C424 C407 1.574 1_554 S
C424 H418 0.949 . S
C424 C428 1.368 . S
C425 C406 1.429 . S
C425 C419 1.429 . S
C425 C426 1.523 . S
C426 C407 1.368 . S
C426 C420 1.368 . S
C426 C425 1.523 . S
C427 C411 1.429 . S
C427 C423 1.429 . S
C427 C428 1.523 . S
C428 C412 1.368 . S
C428 C424 1.368 . S
C428 C427 1.523 . S
H429 C404 0.950 . S
H430 C406 0.950 . S
H431 C407 0.949 . S
H432 C409 0.950 . S
H433 C411 0.950 . S
C434 C435 1.349 . S
C434 C436 1.327 . S
C434 H459 0.950 . S
C435 C434 1.349 . S
C435 C451 1.349 . S
C436 C434 1.327 . S
C436 C455 1.429 . S
C436 H460 0.950 . S
C437 C454 1.574 1_554 S
C437 C456 1.368 . S
C437 H461 0.949 . S
H438 C442 0.949 . S
C439 C440 1.349 . S
C439 C441 1.327 . S
C439 H462 0.950 . S
C440 C439 1.349 . S
C440 C452 1.349 . S
C441 C439 1.327 . S
C441 C457 1.429 . S
C441 H463 0.950 . S
C442 H438 0.949 . S
C442 C450 1.574 1_556 S
C442 C458 1.368 . S
H443 C451 0.950 . S
H444 C449 0.950 . S
H445 C450 0.949 . S
H446 C452 0.950 . S
H447 C453 0.950 . S
H448 C454 0.949 . S
C449 H444 0.950 . S
C449 C451 1.327 . S
C449 C455 1.429 . S
C450 C442 1.574 1_554 S
C450 H445 0.949 . S
C450 C456 1.368 . S
C451 C435 1.349 . S
C451 H443 0.950 . S
C451 C449 1.327 . S
C452 C440 1.349 . S
C452 H446 0.950 . S
C452 C453 1.327 . S
C453 H447 0.950 . S
C453 C452 1.327 . S
C453 C457 1.429 . S
C454 C437 1.574 1_556 S
C454 H448 0.949 . S
C454 C458 1.368 . S
C455 C436 1.429 . S
C455 C449 1.429 . S
C455 C456 1.523 . S
C456 C437 1.368 . S
C456 C450 1.368 . S
C456 C455 1.523 . S
C457 C441 1.429 . S
C457 C453 1.429 . S
C457 C458 1.523 . S
C458 C442 1.368 . S
C458 C454 1.368 . S
C458 C457 1.523 . S
H459 C434 0.950 . S
H460 C436 0.950 . S
H461 C437 0.949 . S
H462 C439 0.950 . S
H463 C441 0.950 . S
C464 C465 1.349 . S
C464 C466 1.327 . S
C464 H489 0.950 . S
C465 C464 1.349 . S
C465 C481 1.349 . S
C466 C464 1.327 . S
C466 C485 1.429 . S
C466 H490 0.950 1_565 S
C467 C484 1.574 . S
C467 C486 1.368 . S
C467 H491 0.949 . S
H468 C472 0.949 . S
C469 C470 1.349 . S
C469 C471 1.327 . S
C469 H492 0.950 . S
C470 C469 1.349 . S
C470 C482 1.349 . S
C471 C469 1.327 . S
C471 C487 1.429 . S
C471 H493 0.950 1_545 S
C472 H468 0.949 . S
C472 C480 1.574 . S
C472 C488 1.368 . S
H473 C481 0.950 . S
H474 C479 0.950 . S
H475 C480 0.949 . S
H476 C482 0.950 . S
H477 C483 0.950 . S
H478 C484 0.949 . S
C479 H474 0.950 . S
C479 C481 1.327 . S
C479 C485 1.429 . S
C480 C472 1.574 . S
C480 H475 0.949 . S
C480 C486 1.368 1_545 S
C481 C465 1.349 . S
C481 H473 0.950 . S
C481 C479 1.327 . S
C482 C470 1.349 . S
C482 H476 0.950 . S
C482 C483 1.327 . S
C483 H477 0.950 . S
C483 C482 1.327 . S
C483 C487 1.429 . S
C484 C467 1.574 . S
C484 H478 0.949 . S
C484 C488 1.368 1_565 S
C485 C466 1.429 . S
C485 C479 1.429 . S
C485 C486 1.523 . S
C486 C467 1.368 . S
C486 C480 1.368 1_565 S
C486 C485 1.523 . S
C487 C471 1.429 . S
C487 C483 1.429 . S
C487 C488 1.523 . S
C488 C472 1.368 . S
C488 C484 1.368 1_545 S
C488 C487 1.523 . S
H489 C464 0.950 . S
H490 C466 0.950 1_545 S
H491 C467 0.949 . S
H492 C469 0.950 . S
H493 C471 0.950 1_565 S
C494 C495 1.349 . S
C494 C496 1.327 . S
C494 H519 0.950 . S
C495 C494 1.349 . S
C495 C511 1.349 . S
C496 C494 1.327 . S
C496 C515 1.429 . S
C496 H520 0.950 . S
C497 C514 1.574 . S
C497 C516 1.368 1_545 S
C497 H521 0.949 . S
H498 C502 0.949 . S
C499 C500 1.349 . S
C499 C501 1.327 . S
C499 H522 0.950 . S
C500 C499 1.349 . S
C500 C512 1.349 . S
C501 C499 1.327 . S
C501 C517 1.429 . S
C501 H523 0.950 . S
C502 H498 0.949 . S
C502 C510 1.574 . S
C502 C518 1.368 1_565 S
H503 C511 0.950 . S
H504 C509 0.950 1_545 S
H505 C510 0.949 . S
H506 C512 0.950 . S
H507 C513 0.950 1_565 S
H508 C514 0.949 . S
C509 H504 0.950 1_565 S
C509 C511 1.327 . S
C509 C515 1.429 . S
C510 C502 1.574 . S
C510 H505 0.949 . S
C510 C516 1.368 . S
C511 C495 1.349 . S
C511 H503 0.950 . S
C511 C509 1.327 . S
C512 C500 1.349 . S
C512 H506 0.950 . S
C512 C513 1.327 . S
C513 H507 0.950 1_545 S
C513 C512 1.327 . S
C513 C517 1.429 . S
C514 C497 1.574 . S
C514 H508 0.949 . S
C514 C518 1.368 . S
C515 C496 1.429 . S
C515 C509 1.429 . S
C515 C516 1.523 . S
C516 C497 1.368 1_565 S
C516 C510 1.368 . S
C516 C515 1.523 . S
C517 C501 1.429 . S
C517 C513 1.429 . S
C517 C518 1.523 . S
C518 C502 1.368 1_545 S
C518 C514 1.368 . S
C518 C517 1.523 . S
H519 C494 0.950 . S
H520 C496 0.950 . S
H521 C497 0.949 . S
H522 C499 0.950 . S
H523 C501 0.950 . S
C524 C525 1.349 . S
C524 C526 1.327 . S
C524 H549 0.950 . S
C525 C524 1.349 . S
C525 C541 1.349 . S
C526 C524 1.327 . S
C526 C545 1.429 . S
C526 H550 0.950 . S
C527 C544 1.574 . S
C527 C546 1.368 1_545 S
C527 H551 0.949 . S
H528 C532 0.949 . S
C529 C530 1.349 . S
C529 C531 1.327 . S
C529 H552 0.950 . S
C530 C529 1.349 . S
C530 C542 1.349 . S
C531 C529 1.327 . S
C531 C547 1.429 . S
C531 H553 0.950 . S
C532 H528 0.949 . S
C532 C540 1.574 . S
C532 C548 1.368 1_565 S
H533 C541 0.950 . S
H534 C539 0.950 1_545 S
H535 C540 0.949 . S
H536 C542 0.950 . S
H537 C543 0.950 1_565 S
H538 C544 0.949 . S
C539 H534 0.950 1_565 S
C539 C541 1.327 . S
C539 C545 1.429 . S
C540 C532 1.574 . S
C540 H535 0.949 . S
C540 C546 1.368 . S
C541 C525 1.349 . S
C541 H533 0.950 . S
C541 C539 1.327 . S
C542 C530 1.349 . S
C542 H536 0.950 . S
C542 C543 1.327 . S
C543 H537 0.950 1_545 S
C543 C542 1.327 . S
C543 C547 1.429 . S
C544 C527 1.574 . S
C544 H538 0.949 . S
C544 C548 1.368 . S
C545 C526 1.429 . S
C545 C539 1.429 . S
C545 C546 1.523 . S
C546 C527 1.368 1_565 S
C546 C540 1.368 . S
C546 C545 1.523 . S
C547 C531 1.429 . S
C547 C543 1.429 . S
C547 C548 1.523 . S
C548 C532 1.368 1_545 S
C548 C544 1.368 . S
C548 C547 1.523 . S
H549 C524 0.950 . S
H550 C526 0.950 . S
H551 C527 0.949 . S
H552 C529 0.950 . S
H553 C531 0.950 . S
C554 C555 1.349 . S
C554 C556 1.327 . S
C554 H579 0.950 . S
C555 C554 1.349 . S
C555 C571 1.349 . S
C556 C554 1.327 . S
C556 C575 1.429 . S
C556 H580 0.950 . S
C557 C574 1.574 . S
C557 C576 1.368 1_565 S
C557 H581 0.949 . S
H558 C562 0.949 . S
C559 C560 1.349 . S
C559 C561 1.327 . S
C559 H582 0.950 . S
C560 C559 1.349 . S
C560 C572 1.349 . S
C561 C559 1.327 . S
C561 C577 1.429 . S
C561 H583 0.950 . S
C562 H558 0.949 . S
C562 C570 1.574 . S
C562 C578 1.368 1_545 S
H563 C571 0.950 . S
H564 C569 0.950 1_565 S
H565 C570 0.949 . S
H566 C572 0.950 . S
H567 C573 0.950 1_545 S
H568 C574 0.949 . S
C569 H564 0.950 1_545 S
C569 C571 1.327 . S
C569 C575 1.429 . S
C570 C562 1.574 . S
C570 H565 0.949 . S
C570 C576 1.368 . S
C571 C555 1.349 . S
C571 H563 0.950 . S
C571 C569 1.327 . S
C572 C560 1.349 . S
C572 H566 0.950 . S
C572 C573 1.327 . S
C573 H567 0.950 1_565 S
C573 C572 1.327 . S
C573 C577 1.429 . S
C574 C557 1.574 . S
C574 H568 0.949 . S
C574 C578 1.368 . S
C575 C556 1.429 . S
C575 C569 1.429 . S
C575 C576 1.523 . S
C576 C557 1.368 1_545 S
C576 C570 1.368 . S
C576 C575 1.523 . S
C577 C561 1.429 . S
C577 C573 1.429 . S
C577 C578 1.523 . S
C578 C562 1.368 1_565 S
C578 C574 1.368 . S
C578 C577 1.523 . S
H579 C554 0.950 . S
H580 C556 0.950 . S
H581 C557 0.949 . S
H582 C559 0.950 . S
H583 C561 0.950 . S
C584 C585 1.349 . S
C584 C586 1.327 . S
C584 H609 0.950 . S
C585 C584 1.349 . S
C585 C601 1.349 . S
C586 C584 1.327 . S
C586 C605 1.429 . S
C586 H610 0.950 . S
C587 C604 1.574 1_655 S
C587 C606 1.368 . S
C587 H611 0.949 . S
H588 C592 0.949 . S
C589 C590 1.349 . S
C589 C591 1.327 . S
C589 H612 0.950 . S
C590 C589 1.349 . S
C590 C602 1.349 . S
C591 C589 1.327 . S
C591 C607 1.429 . S
C591 H613 0.950 . S
C592 H588 0.949 . S
C592 C600 1.574 1_455 S
C592 C608 1.368 . S
H593 C601 0.950 . S
H594 C599 0.950 . S
H595 C600 0.949 . S
H596 C602 0.950 . S
H597 C603 0.950 . S
H598 C604 0.949 . S
C599 H594 0.950 . S
C599 C601 1.327 . S
C599 C605 1.429 . S
C600 C592 1.574 1_655 S
C600 H595 0.949 . S
C600 C606 1.368 . S
C601 C585 1.349 . S
C601 H593 0.950 . S
C601 C599 1.327 . S
C602 C590 1.349 . S
C602 H596 0.950 . S
C602 C603 1.327 . S
C603 H597 0.950 . S
C603 C602 1.327 . S
C603 C607 1.429 . S
C604 C587 1.574 1_455 S
C604 H598 0.949 . S
C604 C608 1.368 . S
C605 C586 1.429 . S
C605 C599 1.429 . S
C605 C606 1.523 . S
C606 C587 1.368 . S
C606 C600 1.368 . S
C606 C605 1.523 . S
C607 C591 1.429 . S
C607 C603 1.429 . S
C607 C608 1.523 . S
C608 C592 1.368 . S
C608 C604 1.368 . S
C608 C607 1.523 . S
H609 C584 0.950 . S
H610 C586 0.950 . S
H611 C587 0.949 . S
H612 C589 0.950 . S
H613 C591 0.950 . S
C614 C615 1.349 . S
C614 C616 1.327 . S
C614 H639 0.950 . S
C615 C614 1.349 . S
C615 C631 1.349 . S
C616 C614 1.327 . S
C616 C635 1.429 . S
C616 H640 0.950 . S
C617 C634 1.574 1_455 S
C617 C636 1.368 . S
C617 H641 0.949 . S
H618 C622 0.949 . S
C619 C620 1.349 . S
C619 C621 1.327 . S
C619 H642 0.950 . S
C620 C619 1.349 . S
C620 C632 1.349 . S
C621 C619 1.327 . S
C621 C637 1.429 . S
C621 H643 0.950 . S
C622 H618 0.949 . S
C622 C630 1.574 1_655 S
C622 C638 1.368 . S
H623 C631 0.950 . S
H624 C629 0.950 . S
H625 C630 0.949 . S
H626 C632 0.950 . S
H627 C633 0.950 . S
H628 C634 0.949 . S
C629 H624 0.950 . S
C629 C631 1.327 . S
C629 C635 1.429 . S
C630 C622 1.574 1_455 S
C630 H625 0.949 . S
C630 C636 1.368 . S
C631 C615 1.349 . S
C631 H623 0.950 . S
C631 C629 1.327 . S
C632 C620 1.349 . S
C632 H626 0.950 . S
C632 C633 1.327 . S
C633 H627 0.950 . S
C633 C632 1.327 . S
C633 C637 1.429 . S
C634 C617 1.574 1_655 S
C634 H628 0.949 . S
C634 C638 1.368 . S
C635 C616 1.429 . S
C635 C629 1.429 . S
C635 C636 1.523 . S
C636 C617 1.368 . S
C636 C630 1.368 . S
C636 C635 1.523 . S
C637 C621 1.429 . S
C637 C633 1.429 . S
C637 C638 1.523 . S
C638 C622 1.368 . S
C638 C634 1.368 . S
C638 C637 1.523 . S
H639 C614 0.950 . S
H640 C616 0.950 . S
H641 C617 0.949 . S
H642 C619 0.950 . S
H643 C621 0.950 . S
C644 C645 1.349 . S
C644 C646 1.327 . S
C644 H669 0.950 . S
C645 C644 1.349 . S
C645 C661 1.349 . S
C646 C644 1.327 . S
C646 C665 1.429 . S
C646 H670 0.950 . S
C647 C664 1.574 1_655 S
C647 C666 1.368 . S
C647 H671 0.949 . S
H648 C652 0.949 . S
C649 C650 1.349 . S
C649 C651 1.327 . S
C649 H672 0.950 . S
C650 C649 1.349 . S
C650 C662 1.349 . S
C651 C649 1.327 . S
C651 C667 1.429 . S
C651 H673 0.950 . S
C652 H648 0.949 . S
C652 C660 1.574 1_455 S
C652 C668 1.368 . S
H653 C661 0.950 . S
H654 C659 0.950 . S
H655 C660 0.949 . S
H656 C662 0.950 . S
H657 C663 0.950 . S
H658 C664 0.949 . S
C659 H654 0.950 . S
C659 C661 1.327 . S
C659 C665 1.429 . S
C660 C652 1.574 1_655 S
C660 H655 0.949 . S
C660 C666 1.368 . S
C661 C645 1.349 . S
C661 H653 0.950 . S
C661 C659 1.327 . S
C662 C650 1.349 . S
C662 H656 0.950 . S
C662 C663 1.327 . S
C663 H657 0.950 . S
C663 C662 1.327 . S
C663 C667 1.429 . S
C664 C647 1.574 1_455 S
C664 H658 0.949 . S
C664 C668 1.368 . S
C665 C646 1.429 . S
C665 C659 1.429 . S
C665 C666 1.523 . S
C666 C647 1.368 . S
C666 C660 1.368 . S
C666 C665 1.523 . S
C667 C651 1.429 . S
C667 C663 1.429 . S
C667 C668 1.523 . S
C668 C652 1.368 . S
C668 C664 1.368 . S
C668 C667 1.523 . S
H669 C644 0.950 . S
H670 C646 0.950 . S
H671 C647 0.949 . S
H672 C649 0.950 . S
H673 C651 0.950 . S
C674 C675 1.349 . S
C674 C676 1.327 . S
C674 H699 0.950 . S
C675 C674 1.349 . S
C675 C691 1.349 . S
C676 C674 1.327 . S
C676 C695 1.429 . S
C676 H700 0.950 . S
C677 C694 1.574 1_455 S
C677 C696 1.368 . S
C677 H701 0.949 . S
H678 C682 0.949 . S
C679 C680 1.349 . S
C679 C681 1.327 . S
C679 H702 0.950 . S
C680 C679 1.349 . S
C680 C692 1.349 . S
C681 C679 1.327 . S
C681 C697 1.429 . S
C681 H703 0.950 . S
C682 H678 0.949 . S
C682 C690 1.574 1_655 S
C682 C698 1.368 . S
H683 C691 0.950 . S
H684 C689 0.950 . S
H685 C690 0.949 . S
H686 C692 0.950 . S
H687 C693 0.950 . S
H688 C694 0.949 . S
C689 H684 0.950 . S
C689 C691 1.327 . S
C689 C695 1.429 . S
C690 C682 1.574 1_455 S
C690 H685 0.949 . S
C690 C696 1.368 . S
C691 C675 1.349 . S
C691 H683 0.950 . S
C691 C689 1.327 . S
C692 C680 1.349 . S
C692 H686 0.950 . S
C692 C693 1.327 . S
C693 H687 0.950 . S
C693 C692 1.327 . S
C693 C697 1.429 . S
C694 C677 1.574 1_655 S
C694 H688 0.949 . S
C694 C698 1.368 . S
C695 C676 1.429 . S
C695 C689 1.429 . S
C695 C696 1.523 . S
C696 C677 1.368 . S
C696 C690 1.368 . S
C696 C695 1.523 . S
C697 C681 1.429 . S
C697 C693 1.429 . S
C697 C698 1.523 . S
C698 C682 1.368 . S
C698 C694 1.368 . S
C698 C697 1.523 . S
H699 C674 0.950 . S
H700 C676 0.950 . S
H701 C677 0.949 . S
H702 C679 0.950 . S
H703 C681 0.950 . S
C704 C705 1.349 . S
C704 C706 1.327 . S
C704 H729 0.950 . S
C705 C704 1.349 . S
C705 C721 1.349 . S
C706 C704 1.327 . S
C706 C725 1.429 . S
C706 H730 0.950 . S
C707 C724 1.574 . S
C707 C726 1.368 . S
C707 H731 0.949 . S
H708 C712 0.949 . S
C709 C710 1.349 . S
C709 C711 1.327 . S
C709 H732 0.950 . S
C710 C709 1.349 . S
C710 C722 1.349 . S
C711 C709 1.327 . S
C711 C727 1.429 . S
C711 H733 0.950 . S
C712 H708 0.949 . S
C712 C720 1.574 . S
C712 C728 1.368 . S
H713 C721 0.950 . S
H714 C719 0.950 . S
H715 C720 0.949 . S
H716 C722 0.950 . S
H717 C723 0.950 . S
H718 C724 0.949 . S
C719 H714 0.950 . S
C719 C721 1.327 . S
C719 C725 1.429 . S
C720 C712 1.574 . S
C720 H715 0.949 . S
C720 C726 1.368 . S
C721 C705 1.349 . S
C721 H713 0.950 . S
C721 C719 1.327 . S
C722 C710 1.349 . S
C722 H716 0.950 . S
C722 C723 1.327 . S
C723 H717 0.950 . S
C723 C722 1.327 . S
C723 C727 1.429 . S
C724 C707 1.574 . S
C724 H718 0.949 . S
C724 C728 1.368 . S
C725 C706 1.429 . S
C725 C719 1.429 . S
C725 C726 1.523 . S
C726 C707 1.368 . S
C726 C720 1.368 . S
C726 C725 1.523 . S
C727 C711 1.429 . S
C727 C723 1.429 . S
C727 C728 1.523 . S
C728 C712 1.368 . S
C728 C724 1.368 . S
C728 C727 1.523 . S
H729 C704 0.950 . S
H730 C706 0.950 . S
H731 C707 0.949 . S
H732 C709 0.950 . S
H733 C711 0.950 . S
C734 C735 1.349 . S
C734 C736 1.327 . S
C734 H759 0.950 . S
C735 C734 1.349 . S
C735 C751 1.349 . S
C736 C734 1.327 . S
C736 C755 1.429 . S
C736 H760 0.950 . S
C737 C754 1.574 . S
C737 C756 1.368 . S
C737 H761 0.949 . S
H738 C742 0.949 . S
C739 C740 1.349 . S
C739 C741 1.327 . S
C739 H762 0.950 . S
C740 C739 1.349 . S
C740 C752 1.349 . S
C741 C739 1.327 . S
C741 C757 1.429 . S
C741 H763 0.950 . S
C742 H738 0.949 . S
C742 C750 1.574 . S
C742 C758 1.368 . S
H743 C751 0.950 . S
H744 C749 0.950 . S
H745 C750 0.949 . S
H746 C752 0.950 . S
H747 C753 0.950 . S
H748 C754 0.949 . S
C749 H744 0.950 . S
C749 C751 1.327 . S
C749 C755 1.429 . S
C750 C742 1.574 . S
C750 H745 0.949 . S
C750 C756 1.368 . S
C751 C735 1.349 . S
C751 H743 0.950 . S
C751 C749 1.327 . S
C752 C740 1.349 . S
C752 H746 0.950 . S
C752 C753 1.327 . S
C753 H747 0.950 . S
C753 C752 1.327 . S
C753 C757 1.429 . S
C754 C737 1.574 . S
C754 H748 0.949 . S
C754 C758 1.368 . S
C755 C736 1.429 . S
C755 C749 1.429 . S
C755 C756 1.523 . S
C756 C737 1.368 . S
C756 C750 1.368 . S
C756 C755 1.523 . S
C757 C741 1.429 . S
C757 C753 1.429 . S
C757 C758 1.523 . S
C758 C742 1.368 . S
C758 C754 1.368 . S
C758 C757 1.523 . S
H759 C734 0.950 . S
H760 C736 0.950 . S
H761 C737 0.949 . S
H762 C739 0.950 . S
H763 C741 0.950 . S
C764 C765 1.349 . S
C764 C766 1.327 . S
C764 H789 0.950 . S
C765 C764 1.349 . S
C765 C781 1.349 . S
C766 C764 1.327 . S
C766 C785 1.429 . S
C766 H790 0.950 . S
C767 C784 1.574 . S
C767 C786 1.368 . S
C767 H791 0.949 . S
H768 C772 0.949 . S
C769 C770 1.349 . S
C769 C771 1.327 . S
C769 H792 0.950 . S
C770 C769 1.349 . S
C770 C782 1.349 . S
C771 C769 1.327 . S
C771 C787 1.429 . S
C771 H793 0.950 . S
C772 H768 0.949 . S
C772 C780 1.574 . S
C772 C788 1.368 . S
H773 C781 0.950 . S
H774 C779 0.950 . S
H775 C780 0.949 . S
H776 C782 0.950 . S
H777 C783 0.950 . S
H778 C784 0.949 . S
C779 H774 0.950 . S
C779 C781 1.327 . S
C779 C785 1.429 . S
C780 C772 1.574 . S
C780 H775 0.949 . S
C780 C786 1.368 . S
C781 C765 1.349 . S
C781 H773 0.950 . S
C781 C779 1.327 . S
C782 C770 1.349 . S
C782 H776 0.950 . S
C782 C783 1.327 . S
C783 H777 0.950 . S
C783 C782 1.327 . S
C783 C787 1.429 . S
C784 C767 1.574 . S
C784 H778 0.949 . S
C784 C788 1.368 . S
C785 C766 1.429 . S
C785 C779 1.429 . S
C785 C786 1.523 . S
C786 C767 1.368 . S
C786 C780 1.368 . S
C786 C785 1.523 . S
C787 C771 1.429 . S
C787 C783 1.429 . S
C787 C788 1.523 . S
C788 C772 1.368 . S
C788 C784 1.368 . S
C788 C787 1.523 . S
H789 C764 0.950 . S
H790 C766 0.950 . S
H791 C767 0.949 . S
H792 C769 0.950 . S
H793 C771 0.950 . S
C794 C795 1.349 . S
C794 C796 1.327 . S
C794 H819 0.950 . S
C795 C794 1.349 . S
C795 C811 1.349 . S
C796 C794 1.327 . S
C796 C815 1.429 . S
C796 H820 0.950 . S
C797 C814 1.574 . S
C797 C816 1.368 . S
C797 H821 0.949 . S
H798 C802 0.949 . S
C799 C800 1.349 . S
C799 C801 1.327 . S
C799 H822 0.950 . S
C800 C799 1.349 . S
C800 C812 1.349 . S
C801 C799 1.327 . S
C801 C817 1.429 . S
C801 H823 0.950 . S
C802 H798 0.949 . S
C802 C810 1.574 . S
C802 C818 1.368 . S
H803 C811 0.950 . S
H804 C809 0.950 . S
H805 C810 0.949 . S
H806 C812 0.950 . S
H807 C813 0.950 . S
H808 C814 0.949 . S
C809 H804 0.950 . S
C809 C811 1.327 . S
C809 C815 1.429 . S
C810 C802 1.574 . S
C810 H805 0.949 . S
C810 C816 1.368 . S
C811 C795 1.349 . S
C811 H803 0.950 . S
C811 C809 1.327 . S
C812 C800 1.349 . S
C812 H806 0.950 . S
C812 C813 1.327 . S
C813 H807 0.950 . S
C813 C812 1.327 . S
C813 C817 1.429 . S
C814 C797 1.574 . S
C814 H808 0.949 . S
C814 C818 1.368 . S
C815 C796 1.429 . S
C815 C809 1.429 . S
C815 C816 1.523 . S
C816 C797 1.368 . S
C816 C810 1.368 . S
C816 C815 1.523 . S
C817 C801 1.429 . S
C817 C813 1.429 . S
C817 C818 1.523 . S
C818 C802 1.368 . S
C818 C814 1.368 . S
C818 C817 1.523 . S
H819 C794 0.950 . S
H820 C796 0.950 . S
H821 C797 0.949 . S
H822 C799 0.950 . S
H823 C801 0.950 . S
C824 C825 1.349 . S
C824 C826 1.327 . S
C824 H849 0.950 . S
C825 C824 1.349 . S
C825 C841 1.349 . S
C826 C824 1.327 . S
C826 C845 1.429 . S
C826 H850 0.950 . S
C827 C844 1.574 . S
C827 C846 1.368 . S
C827 H851 0.949 . S
H828 C832 0.949 . S
C829 C830 1.349 . S
C829 C831 1.327 . S
C829 H852 0.950 . S
C830 C829 1.349 . S
C830 C842 1.349 . S
C831 C829 1.327 . S
C831 C847 1.429 . S
C831 H853 0.950 . S
C832 H828 0.949 . S
C832 C840 1.574 . S
C832 C848 1.368 . S
H833 C841 0.950 . S
H834 C839 0.950 . S
H835 C840 0.949 . S
H836 C842 0.950 . S
H837 C843 0.950 . S
H838 C844 0.949 . S
C839 H834 0.950 . S
C839 C841 1.327 . S
C839 C845 1.429 . S
C840 C832 1.574 . S
C840 H835 0.949 . S
C840 C846 1.368 . S
C841 C825 1.349 . S
C841 H833 0.950 . S
C841 C839 1.327 . S
C842 C830 1.349 . S
C842 H836 0.950 . S
C842 C843 1.327 . S
C843 H837 0.950 . S
C843 C842 1.327 . S
C843 C847 1.429 . S
C844 C827 1.574 . S
C844 H838 0.949 . S
C844 C848 1.368 . S
C845 C826 1.429 . S
C845 C839 1.429 . S
C845 C846 1.523 . S
C846 C827 1.368 . S
C846 C840 1.368 . S
C846 C845 1.523 . S
C847 C831 1.429 . S
C847 C843 1.429 . S
C847 C848 1.523 . S
C848 C832 1.368 . S
C848 C844 1.368 . S
C848 C847 1.523 . S
H849 C824 0.950 . S
H850 C826 0.950 . S
H851 C827 0.949 . S
H852 C829 0.950 . S
H853 C831 0.950 . S
C854 C855 1.349 . S
C854 C856 1.327 . S
C854 H879 0.950 . S
C855 C854 1.349 . S
C855 C871 1.349 . S
C856 C854 1.327 . S
C856 C875 1.429 . S
C856 H880 0.950 . S
C857 C874 1.574 . S
C857 C876 1.368 . S
C857 H881 0.949 . S
H858 C862 0.949 . S
C859 C860 1.349 . S
C859 C861 1.327 . S
C859 H882 0.950 . S
C860 C859 1.349 . S
C860 C872 1.349 . S
C861 C859 1.327 . S
C861 C877 1.429 . S
C861 H883 0.950 . S
C862 H858 0.949 . S
C862 C870 1.574 . S
C862 C878 1.368 . S
H863 C871 0.950 . S
H864 C869 0.950 . S
H865 C870 0.949 . S
H866 C872 0.950 . S
H867 C873 0.950 . S
H868 C874 0.949 . S
C869 H864 0.950 . S
C869 C871 1.327 . S
C869 C875 1.429 . S
C870 C862 1.574 . S
C870 H865 0.949 . S
C870 C876 1.368 . S
C871 C855 1.349 . S
C871 H863 0.950 . S
C871 C869 1.327 . S
C872 C860 1.349 . S
C872 H866 0.950 . S
C872 C873 1.327 . S
C873 H867 0.950 . S
C873 C872 1.327 . S
C873 C877 1.429 . S
C874 C857 1.574 . S
C874 H868 0.949 . S
C874 C878 1.368 . S
C875 C856 1.429 . S
C875 C869 1.429 . S
C875 C876 1.523 . S
C876 C857 1.368 . S
C876 C870 1.368 . S
C876 C875 1.523 . S
C877 C861 1.429 . S
C877 C873 1.429 . S
C877 C878 1.523 . S
C878 C862 1.368 . S
C878 C874 1.368 . S
C878 C877 1.523 . S
H879 C854 0.950 . S
H880 C856 0.950 . S
H881 C857 0.949 . S
H882 C859 0.950 . S
H883 C861 0.950 . S
C884 C885 1.349 . S
C884 C886 1.327 . S
C884 H909 0.950 . S
C885 C884 1.349 . S
C885 C901 1.349 . S
C886 C884 1.327 . S
C886 C905 1.429 . S
C886 H910 0.950 . S
C887 C904 1.574 . S
C887 C906 1.368 . S
C887 H911 0.949 . S
H888 C892 0.949 . S
C889 C890 1.349 . S
C889 C891 1.327 . S
C889 H912 0.950 . S
C890 C889 1.349 . S
C890 C902 1.349 . S
C891 C889 1.327 . S
C891 C907 1.429 . S
C891 H913 0.950 . S
C892 H888 0.949 . S
C892 C900 1.574 . S
C892 C908 1.368 . S
H893 C901 0.950 . S
H894 C899 0.950 . S
H895 C900 0.949 . S
H896 C902 0.950 . S
H897 C903 0.950 . S
H898 C904 0.949 . S
C899 H894 0.950 . S
C899 C901 1.327 . S
C899 C905 1.429 . S
C900 C892 1.574 . S
C900 H895 0.949 . S
C900 C906 1.368 . S
C901 C885 1.349 . S
C901 H893 0.950 . S
C901 C899 1.327 . S
C902 C890 1.349 . S
C902 H896 0.950 . S
C902 C903 1.327 . S
C903 H897 0.950 . S
C903 C902 1.327 . S
C903 C907 1.429 . S
C904 C887 1.574 . S
C904 H898 0.949 . S
C904 C908 1.368 . S
C905 C886 1.429 . S
C905 C899 1.429 . S
C905 C906 1.523 . S
C906 C887 1.368 . S
C906 C900 1.368 . S
C906 C905 1.523 . S
C907 C891 1.429 . S
C907 C903 1.429 . S
C907 C908 1.523 . S
C908 C892 1.368 . S
C908 C904 1.368 . S
C908 C907 1.523 . S
H909 C884 0.950 . S
H910 C886 0.950 . S
H911 C887 0.949 . S
H912 C889 0.950 . S
H913 C891 0.950 . S
C914 C915 1.349 . S
C914 C916 1.327 . S
C914 H939 0.950 . S
C915 C914 1.349 . S
C915 C931 1.349 . S
C916 C914 1.327 . S
C916 C935 1.429 . S
C916 H940 0.950 . S
C917 C934 1.574 . S
C917 C936 1.368 . S
C917 H941 0.949 . S
H918 C922 0.949 . S
C919 C920 1.349 . S
C919 C921 1.327 . S
C919 H942 0.950 . S
C920 C919 1.349 . S
C920 C932 1.349 . S
C921 C919 1.327 . S
C921 C937 1.429 . S
C921 H943 0.950 . S
C922 H918 0.949 . S
C922 C930 1.574 . S
C922 C938 1.368 . S
H923 C931 0.950 . S
H924 C929 0.950 . S
H925 C930 0.949 . S
H926 C932 0.950 . S
H927 C933 0.950 . S
H928 C934 0.949 . S
C929 H924 0.950 . S
C929 C931 1.327 . S
C929 C935 1.429 . S
C930 C922 1.574 . S
C930 H925 0.949 . S
C930 C936 1.368 . S
C931 C915 1.349 . S
C931 H923 0.950 . S
C931 C929 1.327 . S
C932 C920 1.349 . S
C932 H926 0.950 . S
C932 C933 1.327 . S
C933 H927 0.950 . S
C933 C932 1.327 . S
C933 C937 1.429 . S
C934 C917 1.574 . S
C934 H928 0.949 . S
C934 C938 1.368 . S
C935 C916 1.429 . S
C935 C929 1.429 . S
C935 C936 1.523 . S
C936 C917 1.368 . S
C936 C930 1.368 . S
C936 C935 1.523 . S
C937 C921 1.429 . S
C937 C933 1.429 . S
C937 C938 1.523 . S
C938 C922 1.368 . S
C938 C934 1.368 . S
C938 C937 1.523 . S
H939 C914 0.950 . S
H940 C916 0.950 . S
H941 C917 0.949 . S
H942 C919 0.950 . S
H943 C921 0.950 . S
C944 C945 1.349 1_565 S
C944 C946 1.327 . S
C944 H969 0.950 . S
C945 C944 1.349 1_545 S
C945 C961 1.349 . S
C946 C944 1.327 . S
C946 C965 1.429 1_565 S
C946 H970 0.950 . S
C947 C964 1.574 . S
C947 C966 1.368 . S
C947 H971 0.949 . S
H948 C952 0.949 . S
C949 C950 1.349 1_545 S
C949 C951 1.327 . S
C949 H972 0.950 . S
C950 C949 1.349 1_565 S
C950 C962 1.349 . S
C951 C949 1.327 . S
C951 C967 1.429 1_545 S
C951 H973 0.950 . S
C952 H948 0.949 . S
C952 C960 1.574 . S
C952 C968 1.368 . S
H953 C961 0.950 . S
H954 C959 0.950 . S
H955 C960 0.949 . S
H956 C962 0.950 . S
H957 C963 0.950 . S
H958 C964 0.949 . S
C959 H954 0.950 . S
C959 C961 1.327 . S
C959 C965 1.429 . S
C960 C952 1.574 . S
C960 H955 0.949 . S
C960 C966 1.368 1_565 S
C961 C945 1.349 . S
C961 H953 0.950 . S
C961 C959 1.327 . S
C962 C950 1.349 . S
C962 H956 0.950 . S
C962 C963 1.327 . S
C963 H957 0.950 . S
C963 C962 1.327 . S
C963 C967 1.429 . S
C964 C947 1.574 . S
C964 H958 0.949 . S
C964 C968 1.368 1_545 S
C965 C946 1.429 1_545 S
C965 C959 1.429 . S
C965 C966 1.523 . S
C966 C947 1.368 . S
C966 C960 1.368 1_545 S
C966 C965 1.523 . S
C967 C951 1.429 1_565 S
C967 C963 1.429 . S
C967 C968 1.523 . S
C968 C952 1.368 . S
C968 C964 1.368 1_565 S
C968 C967 1.523 . S
H969 C944 0.950 . S
H970 C946 0.950 . S
H971 C947 0.949 . S
H972 C949 0.950 . S
H973 C951 0.950 . S
C974 C975 1.349 1_565 S
C974 C976 1.327 . S
C974 H999 0.950 . S
C975 C974 1.349 1_545 S
C975 C991 1.349 . S
C976 C974 1.327 . S
C976 C995 1.429 1_565 S
C976 H1000 0.950 . S
C977 C994 1.574 . S
C977 C996 1.368 . S
C977 H1001 0.949 . S
H978 C982 0.949 . S
C979 C980 1.349 1_545 S
C979 C981 1.327 . S
C979 H1002 0.950 . S
C980 C979 1.349 1_565 S
C980 C992 1.349 . S
C981 C979 1.327 . S
C981 C997 1.429 1_545 S
C981 H1003 0.950 . S
C982 H978 0.949 . S
C982 C990 1.574 . S
C982 C998 1.368 . S
H983 C991 0.950 . S
H984 C989 0.950 . S
H985 C990 0.949 . S
H986 C992 0.950 . S
H987 C993 0.950 . S
H988 C994 0.949 . S
C989 H984 0.950 . S
C989 C991 1.327 . S
C989 C995 1.429 . S
C990 C982 1.574 . S
C990 H985 0.949 . S
C990 C996 1.368 1_565 S
C991 C975 1.349 . S
C991 H983 0.950 . S
C991 C989 1.327 . S
C992 C980 1.349 . S
C992 H986 0.950 . S
C992 C993 1.327 . S
C993 H987 0.950 . S
C993 C992 1.327 . S
C993 C997 1.429 . S
C994 C977 1.574 . S
C994 H988 0.949 . S
C994 C998 1.368 1_545 S
C995 C976 1.429 1_545 S
C995 C989 1.429 . S
C995 C996 1.523 . S
C996 C977 1.368 . S
C996 C990 1.368 1_545 S
C996 C995 1.523 . S
C997 C981 1.429 1_565 S
C997 C993 1.429 . S
C997 C998 1.523 . S
C998 C982 1.368 . S
C998 C994 1.368 1_565 S
C998 C997 1.523 . S
H999 C974 0.950 . S
H1000 C976 0.950 . S
H1001 C977 0.949 . S
H1002 C979 0.950 . S
H1003 C981 0.950 . S
C1004 C1005 1.349 . S
C1004 C1006 1.327 . S
C1004 H1029 0.950 . S
C1005 C1004 1.349 . S
C1005 C1021 1.349 1_545 S
C1006 C1004 1.327 . S
C1006 C1025 1.429 . S
C1006 H1030 0.950 . S
C1007 C1024 1.574 . S
C1007 C1026 1.368 1_565 S
C1007 H1031 0.949 . S
H1008 C1012 0.949 . S
C1009 C1010 1.349 . S
C1009 C1011 1.327 . S
C1009 H1032 0.950 . S
C1010 C1009 1.349 . S
C1010 C1022 1.349 1_565 S
C1011 C1009 1.327 . S
C1011 C1027 1.429 . S
C1011 H1033 0.950 . S
C1012 H1008 0.949 . S
C1012 C1020 1.574 . S
C1012 C1028 1.368 1_545 S
H1013 C1021 0.950 . S
H1014 C1019 0.950 . S
H1015 C1020 0.949 . S
H1016 C1022 0.950 . S
H1017 C1023 0.950 . S
H1018 C1024 0.949 . S
C1019 H1014 0.950 . S
C1019 C1021 1.327 . S
C1019 C1025 1.429 1_565 S
C1020 C1012 1.574 . S
C1020 H1015 0.949 . S
C1020 C1026 1.368 . S
C1021 C1005 1.349 1_565 S
C1021 H1013 0.950 . S
C1021 C1019 1.327 . S
C1022 C1010 1.349 1_545 S
C1022 H1016 0.950 . S
C1022 C1023 1.327 . S
C1023 H1017 0.950 . S
C1023 C1022 1.327 . S
C1023 C1027 1.429 1_545 S
C1024 C1007 1.574 . S
C1024 H1018 0.949 . S
C1024 C1028 1.368 . S
C1025 C1006 1.429 . S
C1025 C1019 1.429 1_545 S
C1025 C1026 1.523 . S
C1026 C1007 1.368 1_545 S
C1026 C1020 1.368 . S
C1026 C1025 1.523 . S
C1027 C1011 1.429 . S
C1027 C1023 1.429 1_565 S
C1027 C1028 1.523 . S
C1028 C1012 1.368 1_565 S
C1028 C1024 1.368 . S
C1028 C1027 1.523 . S
H1029 C1004 0.950 . S
H1030 C1006 0.950 . S
H1031 C1007 0.949 . S
H1032 C1009 0.950 . S
H1033 C1011 0.950 . S
C1034 C1035 1.349 . S
C1034 C1036 1.327 . S
C1034 H1059 0.950 . S
C1035 C1034 1.349 . S
C1035 C1051 1.349 1_565 S
C1036 C1034 1.327 . S
C1036 C1055 1.429 . S
C1036 H1060 0.950 . S
C1037 C1054 1.574 . S
C1037 C1056 1.368 1_545 S
C1037 H1061 0.949 . S
H1038 C1042 0.949 . S
C1039 C1040 1.349 . S
C1039 C1041 1.327 . S
C1039 H1062 0.950 . S
C1040 C1039 1.349 . S
C1040 C1052 1.349 1_545 S
C1041 C1039 1.327 . S
C1041 C1057 1.429 . S
C1041 H1063 0.950 . S
C1042 H1038 0.949 . S
C1042 C1050 1.574 . S
C1042 C1058 1.368 1_565 S
H1043 C1051 0.950 . S
H1044 C1049 0.950 . S
H1045 C1050 0.949 . S
H1046 C1052 0.950 . S
H1047 C1053 0.950 . S
H1048 C1054 0.949 . S
C1049 H1044 0.950 . S
C1049 C1051 1.327 . S
C1049 C1055 1.429 1_545 S
C1050 C1042 1.574 . S
C1050 H1045 0.949 . S
C1050 C1056 1.368 . S
C1051 C1035 1.349 1_545 S
C1051 H1043 0.950 . S
C1051 C1049 1.327 . S
C1052 C1040 1.349 1_565 S
C1052 H1046 0.950 . S
C1052 C1053 1.327 . S
C1053 H1047 0.950 . S
C1053 C1052 1.327 . S
C1053 C1057 1.429 1_565 S
C1054 C1037 1.574 . S
C1054 H1048 0.949 . S
C1054 C1058 1.368 . S
C1055 C1036 1.429 . S
C1055 C1049 1.429 1_565 S
C1055 C1056 1.523 . S
C1056 C1037 1.368 1_565 S
C1056 C1050 1.368 . S
C1056 C1055 1.523 . S
C1057 C1041 1.429 . S
C1057 C1053 1.429 1_545 S
C1057 C1058 1.523 . S
C1058 C1042 1.368 1_545 S
C1058 C1054 1.368 . S
C1058 C1057 1.523 . S
H1059 C1034 0.950 . S
H1060 C1036 0.950 . S
H1061 C1037 0.949 . S
H1062 C1039 0.950 . S
H1063 C1041 0.950 . S
C1064 C1065 1.349 . S
C1064 C1066 1.327 . S
C1064 H1089 0.950 . S
C1065 C1064 1.349 . S
C1065 C1081 1.349 . S
C1066 C1064 1.327 . S
C1066 C1085 1.429 . S
C1066 H1090 0.950 . S
C1067 C1084 1.574 . S
C1067 C1086 1.368 . S
C1067 H1091 0.949 . S
H1068 C1072 0.949 . S
C1069 C1070 1.349 . S
C1069 C1071 1.327 . S
C1069 H1092 0.950 . S
C1070 C1069 1.349 . S
C1070 C1082 1.349 . S
C1071 C1069 1.327 . S
C1071 C1087 1.429 . S
C1071 H1093 0.950 . S
C1072 H1068 0.949 . S
C1072 C1080 1.574 . S
C1072 C1088 1.368 . S
H1073 C1081 0.950 . S
H1074 C1079 0.950 . S
H1075 C1080 0.949 . S
H1076 C1082 0.950 . S
H1077 C1083 0.950 . S
H1078 C1084 0.949 . S
C1079 H1074 0.950 . S
C1079 C1081 1.327 . S
C1079 C1085 1.429 . S
C1080 C1072 1.574 . S
C1080 H1075 0.949 . S
C1080 C1086 1.368 . S
C1081 C1065 1.349 . S
C1081 H1073 0.950 . S
C1081 C1079 1.327 . S
C1082 C1070 1.349 . S
C1082 H1076 0.950 . S
C1082 C1083 1.327 . S
C1083 H1077 0.950 . S
C1083 C1082 1.327 . S
C1083 C1087 1.429 . S
C1084 C1067 1.574 . S
C1084 H1078 0.949 . S
C1084 C1088 1.368 . S
C1085 C1066 1.429 . S
C1085 C1079 1.429 . S
C1085 C1086 1.523 . S
C1086 C1067 1.368 . S
C1086 C1080 1.368 . S
C1086 C1085 1.523 . S
C1087 C1071 1.429 . S
C1087 C1083 1.429 . S
C1087 C1088 1.523 . S
C1088 C1072 1.368 . S
C1088 C1084 1.368 . S
C1088 C1087 1.523 . S
H1089 C1064 0.950 . S
H1090 C1066 0.950 . S
H1091 C1067 0.949 . S
H1092 C1069 0.950 . S
H1093 C1071 0.950 . S
C1094 C1095 1.349 . S
C1094 C1096 1.327 . S
C1094 H1119 0.950 . S
C1095 C1094 1.349 . S
C1095 C1111 1.349 . S
C1096 C1094 1.327 . S
C1096 C1115 1.429 . S
C1096 H1120 0.950 . S
C1097 C1114 1.574 . S
C1097 C1116 1.368 . S
C1097 H1121 0.949 . S
H1098 C1102 0.949 . S
C1099 C1100 1.349 . S
C1099 C1101 1.327 . S
C1099 H1122 0.950 . S
C1100 C1099 1.349 . S
C1100 C1112 1.349 . S
C1101 C1099 1.327 . S
C1101 C1117 1.429 . S
C1101 H1123 0.950 . S
C1102 H1098 0.949 . S
C1102 C1110 1.574 . S
C1102 C1118 1.368 . S
H1103 C1111 0.950 . S
H1104 C1109 0.950 . S
H1105 C1110 0.949 . S
H1106 C1112 0.950 . S
H1107 C1113 0.950 . S
H1108 C1114 0.949 . S
C1109 H1104 0.950 . S
C1109 C1111 1.327 . S
C1109 C1115 1.429 . S
C1110 C1102 1.574 . S
C1110 H1105 0.949 . S
C1110 C1116 1.368 . S
C1111 C1095 1.349 . S
C1111 H1103 0.950 . S
C1111 C1109 1.327 . S
C1112 C1100 1.349 . S
C1112 H1106 0.950 . S
C1112 C1113 1.327 . S
C1113 H1107 0.950 . S
C1113 C1112 1.327 . S
C1113 C1117 1.429 . S
C1114 C1097 1.574 . S
C1114 H1108 0.949 . S
C1114 C1118 1.368 . S
C1115 C1096 1.429 . S
C1115 C1109 1.429 . S
C1115 C1116 1.523 . S
C1116 C1097 1.368 . S
C1116 C1110 1.368 . S
C1116 C1115 1.523 . S
C1117 C1101 1.429 . S
C1117 C1113 1.429 . S
C1117 C1118 1.523 . S
C1118 C1102 1.368 . S
C1118 C1114 1.368 . S
C1118 C1117 1.523 . S
H1119 C1094 0.950 . S
H1120 C1096 0.950 . S
H1121 C1097 0.949 . S
H1122 C1099 0.950 . S
H1123 C1101 0.950 . S
C1124 C1125 1.349 . S
C1124 C1126 1.327 . S
C1124 H1149 0.950 . S
C1125 C1124 1.349 . S
C1125 C1141 1.349 . S
C1126 C1124 1.327 . S
C1126 C1145 1.429 . S
C1126 H1150 0.950 . S
C1127 C1144 1.574 . S
C1127 C1146 1.368 . S
C1127 H1151 0.949 . S
H1128 C1132 0.949 . S
C1129 C1130 1.349 . S
C1129 C1131 1.327 . S
C1129 H1152 0.950 . S
C1130 C1129 1.349 . S
C1130 C1142 1.349 . S
C1131 C1129 1.327 . S
C1131 C1147 1.429 . S
C1131 H1153 0.950 . S
C1132 H1128 0.949 . S
C1132 C1140 1.574 . S
C1132 C1148 1.368 . S
H1133 C1141 0.950 . S
H1134 C1139 0.950 . S
H1135 C1140 0.949 . S
H1136 C1142 0.950 . S
H1137 C1143 0.950 . S
H1138 C1144 0.949 . S
C1139 H1134 0.950 . S
C1139 C1141 1.327 . S
C1139 C1145 1.429 . S
C1140 C1132 1.574 . S
C1140 H1135 0.949 . S
C1140 C1146 1.368 . S
C1141 C1125 1.349 . S
C1141 H1133 0.950 . S
C1141 C1139 1.327 . S
C1142 C1130 1.349 . S
C1142 H1136 0.950 . S
C1142 C1143 1.327 . S
C1143 H1137 0.950 . S
C1143 C1142 1.327 . S
C1143 C1147 1.429 . S
C1144 C1127 1.574 . S
C1144 H1138 0.949 . S
C1144 C1148 1.368 . S
C1145 C1126 1.429 . S
C1145 C1139 1.429 . S
C1145 C1146 1.523 . S
C1146 C1127 1.368 . S
C1146 C1140 1.368 . S
C1146 C1145 1.523 . S
C1147 C1131 1.429 . S
C1147 C1143 1.429 . S
C1147 C1148 1.523 . S
C1148 C1132 1.368 . S
C1148 C1144 1.368 . S
C1148 C1147 1.523 . S
H1149 C1124 0.950 . S
H1150 C1126 0.950 . S
H1151 C1127 0.949 . S
H1152 C1129 0.950 . S
H1153 C1131 0.950 . S
C1154 C1155 1.349 . S
C1154 C1156 1.327 . S
C1154 H1179 0.950 . S
C1155 C1154 1.349 . S
C1155 C1171 1.349 . S
C1156 C1154 1.327 . S
C1156 C1175 1.429 . S
C1156 H1180 0.950 . S
C1157 C1174 1.574 . S
C1157 C1176 1.368 . S
C1157 H1181 0.949 . S
H1158 C1162 0.949 . S
C1159 C1160 1.349 . S
C1159 C1161 1.327 . S
C1159 H1182 0.950 . S
C1160 C1159 1.349 . S
C1160 C1172 1.349 . S
C1161 C1159 1.327 . S
C1161 C1177 1.429 . S
C1161 H1183 0.950 . S
C1162 H1158 0.949 . S
C1162 C1170 1.574 . S
C1162 C1178 1.368 . S
H1163 C1171 0.950 . S
H1164 C1169 0.950 . S
H1165 C1170 0.949 . S
H1166 C1172 0.950 . S
H1167 C1173 0.950 . S
H1168 C1174 0.949 . S
C1169 H1164 0.950 . S
C1169 C1171 1.327 . S
C1169 C1175 1.429 . S
C1170 C1162 1.574 . S
C1170 H1165 0.949 . S
C1170 C1176 1.368 . S
C1171 C1155 1.349 . S
C1171 H1163 0.950 . S
C1171 C1169 1.327 . S
C1172 C1160 1.349 . S
C1172 H1166 0.950 . S
C1172 C1173 1.327 . S
C1173 H1167 0.950 . S
C1173 C1172 1.327 . S
C1173 C1177 1.429 . S
C1174 C1157 1.574 . S
C1174 H1168 0.949 . S
C1174 C1178 1.368 . S
C1175 C1156 1.429 . S
C1175 C1169 1.429 . S
C1175 C1176 1.523 . S
C1176 C1157 1.368 . S
C1176 C1170 1.368 . S
C1176 C1175 1.523 . S
C1177 C1161 1.429 . S
C1177 C1173 1.429 . S
C1177 C1178 1.523 . S
C1178 C1162 1.368 . S
C1178 C1174 1.368 . S
C1178 C1177 1.523 . S
H1179 C1154 0.950 . S
H1180 C1156 0.950 . S
H1181 C1157 0.949 . S
H1182 C1159 0.950 . S
H1183 C1161 0.950 . S
C225 C7 1.133 . S
C230 C77 1.133 . S
C255 C63 1.133 . S
C260 C21 1.133 . S
C285 C35 1.133 . S
C290 C105 1.133 . S
C315 C91 1.133 . S
C320 C49 1.133 . S
C345 C189 1.133 . S
C350 C119 1.133 . S
C375 C175 1.133 . S
C380 C133 1.133 . S
C405 C217 1.133 . S
C410 C147 1.133 . S
C435 C161 1.133 . S
C440 C203 1.133 . S
C465 C23 1.489 . S
C470 C9 1.489 . S
C495 C37 1.489 . S
C500 C51 1.489 . S
C525 C65 1.489 . S
C530 C79 1.489 . S
C555 C93 1.489 . S
C560 C107 1.489 . S
C585 C121 1.489 . S
C590 C135 1.489 . S
C615 C163 1.489 . S
C620 C149 1.489 . S
C645 C191 1.489 . S
C650 C177 1.489 . S
C675 C205 1.489 . S
C680 C219 1.489 . S
C705 C134 1.522 . S
C710 C8 1.522 . S
C735 C22 1.522 . S
C740 C120 1.522 . S
C765 C162 1.522 . S
C770 C36 1.522 . S
C795 C50 1.522 . S
C800 C148 1.522 . S
C825 C64 1.522 . S
C830 C190 1.522 . S
C855 C176 1.522 . S
C860 C78 1.522 . S
C885 C92 1.522 . S
C890 C218 1.522 . S
C915 C204 1.522 . S
C920 C106 1.522 . S
C945 C3 1.112 . S
C950 C31 1.112 . S
C975 C45 1.112 . S
C980 C17 1.112 . S
C1005 C87 1.112 . S
C1010 C59 1.112 . S
C1035 C101 1.112 . S
C1040 C73 1.112 . S
C1065 C143 1.112 . S
C1070 C115 1.112 . S
C1095 C129 1.112 . S
C1100 C157 1.112 . S
C1125 C199 1.112 . S
C1130 C171 1.112 . S
C1155 C185 1.112 . S
C1160 C213 1.112 . S
