# Generated by pormake.
# Topology sou, (8)-cn, num edge types: 1
# Building blocks:
#     Node 0, Type 0, BuildingBlock: NUHRAL_clean_sbu_3, # of connection points: 8
#     Node 1, Type 0, BuildingBlock: NUHRAL_clean_sbu_3, # of connection points: 8
#     Node 2, Type 0, BuildingBlock: NUHRAL_clean_sbu_3, # of connection points: 8
#     Node 3, Type 0, BuildingBlock: NUHRAL_clean_sbu_3, # of connection points: 8
#     Node 4, Type 0, BuildingBlock: NUHRAL_clean_sbu_3, # of connection points: 8
#     Node 5, Type 0, BuildingBlock: NUHRAL_clean_sbu_3, # of connection points: 8
#     Node 6, Type 0, BuildingBlock: NUHRAL_clean_sbu_3, # of connection points: 8
#     Node 7, Type 0, BuildingBlock: NUHRAL_clean_sbu_3, # of connection points: 8
#     Node 8, Type 0, BuildingBlock: NUHRAL_clean_sbu_3, # of connection points: 8
#     Node 9, Type 0, BuildingBlock: NUHRAL_clean_sbu_3, # of connection points: 8
#     Node 10, Type 0, BuildingBlock: NUHRAL_clean_sbu_3, # of connection points: 8
#     Node 11, Type 0, BuildingBlock: NUHRAL_clean_sbu_3, # of connection points: 8
#     Node 12, Type 0, BuildingBlock: NUHRAL_clean_sbu_3, # of connection points: 8
#     Node 13, Type 0, BuildingBlock: NUHRAL_clean_sbu_3, # of connection points: 8
#     Node 14, Type 0, BuildingBlock: NUHRAL_clean_sbu_3, # of connection points: 8
#     Node 15, Type 0, BuildingBlock: NUHRAL_clean_sbu_3, # of connection points: 8
#     Node 16, Type 0, BuildingBlock: NUHRAL_clean_sbu_3, # of connection points: 8
#     Node 17, Type 0, BuildingBlock: NUHRAL_clean_sbu_3, # of connection points: 8
#     Node 18, Type 0, BuildingBlock: NUHRAL_clean_sbu_3, # of connection points: 8
#     Node 19, Type 0, BuildingBlock: NUHRAL_clean_sbu_3, # of connection points: 8
#     Node 20, Type 0, BuildingBlock: NUHRAL_clean_sbu_3, # of connection points: 8
#     Node 21, Type 0, BuildingBlock: NUHRAL_clean_sbu_3, # of connection points: 8
#     Node 22, Type 0, BuildingBlock: NUHRAL_clean_sbu_3, # of connection points: 8
#     Node 23, Type 0, BuildingBlock: NUHRAL_clean_sbu_3, # of connection points: 8
#     Node 24, Type 0, BuildingBlock: NUHRAL_clean_sbu_3, # of connection points: 8
#     Node 25, Type 0, BuildingBlock: NUHRAL_clean_sbu_3, # of connection points: 8
#     Node 26, Type 0, BuildingBlock: NUHRAL_clean_sbu_3, # of connection points: 8
#     Node 27, Type 0, BuildingBlock: NUHRAL_clean_sbu_3, # of connection points: 8
#     Node 28, Type 0, BuildingBlock: NUHRAL_clean_sbu_3, # of connection points: 8
#     Node 29, Type 0, BuildingBlock: NUHRAL_clean_sbu_3, # of connection points: 8
#     Node 30, Type 0, BuildingBlock: NUHRAL_clean_sbu_3, # of connection points: 8
#     Node 31, Type 0, BuildingBlock: NUHRAL_clean_sbu_3, # of connection points: 8
#     Edge 32, Type (0, 0), BuildingBlock: XUDNAN_clean_linker_2, # of connection points: 2
#     Edge 33, Type (0, 0), BuildingBlock: XUDNAN_clean_linker_2, # of connection points: 2
#     Edge 34, Type (0, 0), BuildingBlock: XUDNAN_clean_linker_2, # of connection points: 2
#     Edge 35, Type (0, 0), BuildingBlock: XUDNAN_clean_linker_2, # of connection points: 2
#     Edge 36, Type (0, 0), BuildingBlock: XUDNAN_clean_linker_2, # of connection points: 2
#     Edge 37, Type (0, 0), BuildingBlock: XUDNAN_clean_linker_2, # of connection points: 2
#     Edge 38, Type (0, 0), BuildingBlock: XUDNAN_clean_linker_2, # of connection points: 2
#     Edge 39, Type (0, 0), BuildingBlock: XUDNAN_clean_linker_2, # of connection points: 2
#     Edge 40, Type (0, 0), BuildingBlock: XUDNAN_clean_linker_2, # of connection points: 2
#     Edge 41, Type (0, 0), BuildingBlock: XUDNAN_clean_linker_2, # of connection points: 2
#     Edge 42, Type (0, 0), BuildingBlock: XUDNAN_clean_linker_2, # of connection points: 2
#     Edge 43, Type (0, 0), BuildingBlock: XUDNAN_clean_linker_2, # of connection points: 2
#     Edge 44, Type (0, 0), BuildingBlock: XUDNAN_clean_linker_2, # of connection points: 2
#     Edge 45, Type (0, 0), BuildingBlock: XUDNAN_clean_linker_2, # of connection points: 2
#     Edge 46, Type (0, 0), BuildingBlock: XUDNAN_clean_linker_2, # of connection points: 2
#     Edge 47, Type (0, 0), BuildingBlock: XUDNAN_clean_linker_2, # of connection points: 2
#     Edge 48, Type (0, 0), BuildingBlock: XUDNAN_clean_linker_2, # of connection points: 2
#     Edge 49, Type (0, 0), BuildingBlock: XUDNAN_clean_linker_2, # of connection points: 2
#     Edge 50, Type (0, 0), BuildingBlock: XUDNAN_clean_linker_2, # of connection points: 2
#     Edge 51, Type (0, 0), BuildingBlock: XUDNAN_clean_linker_2, # of connection points: 2
#     Edge 52, Type (0, 0), BuildingBlock: XUDNAN_clean_linker_2, # of connection points: 2
#     Edge 53, Type (0, 0), BuildingBlock: XUDNAN_clean_linker_2, # of connection points: 2
#     Edge 54, Type (0, 0), BuildingBlock: XUDNAN_clean_linker_2, # of connection points: 2
#     Edge 55, Type (0, 0), BuildingBlock: XUDNAN_clean_linker_2, # of connection points: 2
#     Edge 56, Type (0, 0), BuildingBlock: XUDNAN_clean_linker_2, # of connection points: 2
#     Edge 57, Type (0, 0), BuildingBlock: XUDNAN_clean_linker_2, # of connection points: 2
#     Edge 58, Type (0, 0), BuildingBlock: XUDNAN_clean_linker_2, # of connection points: 2
#     Edge 59, Type (0, 0), BuildingBlock: XUDNAN_clean_linker_2, # of connection points: 2
#     Edge 60, Type (0, 0), BuildingBlock: XUDNAN_clean_linker_2, # of connection points: 2
#     Edge 61, Type (0, 0), BuildingBlock: XUDNAN_clean_linker_2, # of connection points: 2
#     Edge 62, Type (0, 0), BuildingBlock: XUDNAN_clean_linker_2, # of connection points: 2
#     Edge 63, Type (0, 0), BuildingBlock: XUDNAN_clean_linker_2, # of connection points: 2
#     Edge 64, Type (0, 0), BuildingBlock: XUDNAN_clean_linker_2, # of connection points: 2
#     Edge 65, Type (0, 0), BuildingBlock: XUDNAN_clean_linker_2, # of connection points: 2
#     Edge 66, Type (0, 0), BuildingBlock: XUDNAN_clean_linker_2, # of connection points: 2
#     Edge 67, Type (0, 0), BuildingBlock: XUDNAN_clean_linker_2, # of connection points: 2
#     Edge 68, Type (0, 0), BuildingBlock: XUDNAN_clean_linker_2, # of connection points: 2
#     Edge 69, Type (0, 0), BuildingBlock: XUDNAN_clean_linker_2, # of connection points: 2
#     Edge 70, Type (0, 0), BuildingBlock: XUDNAN_clean_linker_2, # of connection points: 2
#     Edge 71, Type (0, 0), BuildingBlock: XUDNAN_clean_linker_2, # of connection points: 2
#     Edge 72, Type (0, 0), BuildingBlock: XUDNAN_clean_linker_2, # of connection points: 2
#     Edge 73, Type (0, 0), BuildingBlock: XUDNAN_clean_linker_2, # of connection points: 2
#     Edge 74, Type (0, 0), BuildingBlock: XUDNAN_clean_linker_2, # of connection points: 2
#     Edge 75, Type (0, 0), BuildingBlock: XUDNAN_clean_linker_2, # of connection points: 2
#     Edge 76, Type (0, 0), BuildingBlock: XUDNAN_clean_linker_2, # of connection points: 2
#     Edge 77, Type (0, 0), BuildingBlock: XUDNAN_clean_linker_2, # of connection points: 2
#     Edge 78, Type (0, 0), BuildingBlock: XUDNAN_clean_linker_2, # of connection points: 2
#     Edge 79, Type (0, 0), BuildingBlock: XUDNAN_clean_linker_2, # of connection points: 2
#     Edge 80, Type (0, 0), BuildingBlock: XUDNAN_clean_linker_2, # of connection points: 2
#     Edge 81, Type (0, 0), BuildingBlock: XUDNAN_clean_linker_2, # of connection points: 2
#     Edge 82, Type (0, 0), BuildingBlock: XUDNAN_clean_linker_2, # of connection points: 2
#     Edge 83, Type (0, 0), BuildingBlock: XUDNAN_clean_linker_2, # of connection points: 2
#     Edge 84, Type (0, 0), BuildingBlock: XUDNAN_clean_linker_2, # of connection points: 2
#     Edge 85, Type (0, 0), BuildingBlock: XUDNAN_clean_linker_2, # of connection points: 2
#     Edge 86, Type (0, 0), BuildingBlock: XUDNAN_clean_linker_2, # of connection points: 2
#     Edge 87, Type (0, 0), BuildingBlock: XUDNAN_clean_linker_2, # of connection points: 2
#     Edge 88, Type (0, 0), BuildingBlock: XUDNAN_clean_linker_2, # of connection points: 2
#     Edge 89, Type (0, 0), BuildingBlock: XUDNAN_clean_linker_2, # of connection points: 2
#     Edge 90, Type (0, 0), BuildingBlock: XUDNAN_clean_linker_2, # of connection points: 2
#     Edge 91, Type (0, 0), BuildingBlock: XUDNAN_clean_linker_2, # of connection points: 2
#     Edge 92, Type (0, 0), BuildingBlock: XUDNAN_clean_linker_2, # of connection points: 2
#     Edge 93, Type (0, 0), BuildingBlock: XUDNAN_clean_linker_2, # of connection points: 2
#     Edge 94, Type (0, 0), BuildingBlock: XUDNAN_clean_linker_2, # of connection points: 2
#     Edge 95, Type (0, 0), BuildingBlock: XUDNAN_clean_linker_2, # of connection points: 2
#     Edge 96, Type (0, 0), BuildingBlock: XUDNAN_clean_linker_2, # of connection points: 2
#     Edge 97, Type (0, 0), BuildingBlock: XUDNAN_clean_linker_2, # of connection points: 2
#     Edge 98, Type (0, 0), BuildingBlock: XUDNAN_clean_linker_2, # of connection points: 2
#     Edge 99, Type (0, 0), BuildingBlock: XUDNAN_clean_linker_2, # of connection points: 2
#     Edge 100, Type (0, 0), BuildingBlock: XUDNAN_clean_linker_2, # of connection points: 2
#     Edge 101, Type (0, 0), BuildingBlock: XUDNAN_clean_linker_2, # of connection points: 2
#     Edge 102, Type (0, 0), BuildingBlock: XUDNAN_clean_linker_2, # of connection points: 2
#     Edge 103, Type (0, 0), BuildingBlock: XUDNAN_clean_linker_2, # of connection points: 2
#     Edge 104, Type (0, 0), BuildingBlock: XUDNAN_clean_linker_2, # of connection points: 2
#     Edge 105, Type (0, 0), BuildingBlock: XUDNAN_clean_linker_2, # of connection points: 2
#     Edge 106, Type (0, 0), BuildingBlock: XUDNAN_clean_linker_2, # of connection points: 2
#     Edge 107, Type (0, 0), BuildingBlock: XUDNAN_clean_linker_2, # of connection points: 2
#     Edge 108, Type (0, 0), BuildingBlock: XUDNAN_clean_linker_2, # of connection points: 2
#     Edge 109, Type (0, 0), BuildingBlock: XUDNAN_clean_linker_2, # of connection points: 2
#     Edge 110, Type (0, 0), BuildingBlock: XUDNAN_clean_linker_2, # of connection points: 2
#     Edge 111, Type (0, 0), BuildingBlock: XUDNAN_clean_linker_2, # of connection points: 2
#     Edge 112, Type (0, 0), BuildingBlock: XUDNAN_clean_linker_2, # of connection points: 2
#     Edge 113, Type (0, 0), BuildingBlock: XUDNAN_clean_linker_2, # of connection points: 2
#     Edge 114, Type (0, 0), BuildingBlock: XUDNAN_clean_linker_2, # of connection points: 2
#     Edge 115, Type (0, 0), BuildingBlock: XUDNAN_clean_linker_2, # of connection points: 2
#     Edge 116, Type (0, 0), BuildingBlock: XUDNAN_clean_linker_2, # of connection points: 2
#     Edge 117, Type (0, 0), BuildingBlock: XUDNAN_clean_linker_2, # of connection points: 2
#     Edge 118, Type (0, 0), BuildingBlock: XUDNAN_clean_linker_2, # of connection points: 2
#     Edge 119, Type (0, 0), BuildingBlock: XUDNAN_clean_linker_2, # of connection points: 2
#     Edge 120, Type (0, 0), BuildingBlock: XUDNAN_clean_linker_2, # of connection points: 2
#     Edge 121, Type (0, 0), BuildingBlock: XUDNAN_clean_linker_2, # of connection points: 2
#     Edge 122, Type (0, 0), BuildingBlock: XUDNAN_clean_linker_2, # of connection points: 2
#     Edge 123, Type (0, 0), BuildingBlock: XUDNAN_clean_linker_2, # of connection points: 2
#     Edge 124, Type (0, 0), BuildingBlock: XUDNAN_clean_linker_2, # of connection points: 2
#     Edge 125, Type (0, 0), BuildingBlock: XUDNAN_clean_linker_2, # of connection points: 2
#     Edge 126, Type (0, 0), BuildingBlock: XUDNAN_clean_linker_2, # of connection points: 2
#     Edge 127, Type (0, 0), BuildingBlock: XUDNAN_clean_linker_2, # of connection points: 2
#     Edge 128, Type (0, 0), BuildingBlock: XUDNAN_clean_linker_2, # of connection points: 2
#     Edge 129, Type (0, 0), BuildingBlock: XUDNAN_clean_linker_2, # of connection points: 2
#     Edge 130, Type (0, 0), BuildingBlock: XUDNAN_clean_linker_2, # of connection points: 2
#     Edge 131, Type (0, 0), BuildingBlock: XUDNAN_clean_linker_2, # of connection points: 2
#     Edge 132, Type (0, 0), BuildingBlock: XUDNAN_clean_linker_2, # of connection points: 2
#     Edge 133, Type (0, 0), BuildingBlock: XUDNAN_clean_linker_2, # of connection points: 2
#     Edge 134, Type (0, 0), BuildingBlock: XUDNAN_clean_linker_2, # of connection points: 2
#     Edge 135, Type (0, 0), BuildingBlock: XUDNAN_clean_linker_2, # of connection points: 2
#     Edge 136, Type (0, 0), BuildingBlock: XUDNAN_clean_linker_2, # of connection points: 2
#     Edge 137, Type (0, 0), BuildingBlock: XUDNAN_clean_linker_2, # of connection points: 2
#     Edge 138, Type (0, 0), BuildingBlock: XUDNAN_clean_linker_2, # of connection points: 2
#     Edge 139, Type (0, 0), BuildingBlock: XUDNAN_clean_linker_2, # of connection points: 2
#     Edge 140, Type (0, 0), BuildingBlock: XUDNAN_clean_linker_2, # of connection points: 2
#     Edge 141, Type (0, 0), BuildingBlock: XUDNAN_clean_linker_2, # of connection points: 2
#     Edge 142, Type (0, 0), BuildingBlock: XUDNAN_clean_linker_2, # of connection points: 2
#     Edge 143, Type (0, 0), BuildingBlock: XUDNAN_clean_linker_2, # of connection points: 2
#     Edge 144, Type (0, 0), BuildingBlock: XUDNAN_clean_linker_2, # of connection points: 2
#     Edge 145, Type (0, 0), BuildingBlock: XUDNAN_clean_linker_2, # of connection points: 2
#     Edge 146, Type (0, 0), BuildingBlock: XUDNAN_clean_linker_2, # of connection points: 2
#     Edge 147, Type (0, 0), BuildingBlock: XUDNAN_clean_linker_2, # of connection points: 2
#     Edge 148, Type (0, 0), BuildingBlock: XUDNAN_clean_linker_2, # of connection points: 2
#     Edge 149, Type (0, 0), BuildingBlock: XUDNAN_clean_linker_2, # of connection points: 2
#     Edge 150, Type (0, 0), BuildingBlock: XUDNAN_clean_linker_2, # of connection points: 2
#     Edge 151, Type (0, 0), BuildingBlock: XUDNAN_clean_linker_2, # of connection points: 2
#     Edge 152, Type (0, 0), BuildingBlock: XUDNAN_clean_linker_2, # of connection points: 2
#     Edge 153, Type (0, 0), BuildingBlock: XUDNAN_clean_linker_2, # of connection points: 2
#     Edge 154, Type (0, 0), BuildingBlock: XUDNAN_clean_linker_2, # of connection points: 2
#     Edge 155, Type (0, 0), BuildingBlock: XUDNAN_clean_linker_2, # of connection points: 2
#     Edge 156, Type (0, 0), BuildingBlock: XUDNAN_clean_linker_2, # of connection points: 2
#     Edge 157, Type (0, 0), BuildingBlock: XUDNAN_clean_linker_2, # of connection points: 2
#     Edge 158, Type (0, 0), BuildingBlock: XUDNAN_clean_linker_2, # of connection points: 2
#     Edge 159, Type (0, 0), BuildingBlock: XUDNAN_clean_linker_2, # of connection points: 2
# Relax obj value: 0.059
# Max RMSD: 0.154
# Mean RMSD: 0.153
data_MOF--net-sou--node1-NUHRAL_clean_sbu_3--edge1-XUDNAN_clean_linker_2
_symmetry_space_group_name_H-M    P1
_symmetry_Int_Tables_number       1
_symmetry_cell_setting            triclinic
loop_
_symmetry_equiv_pos_as_xyz
'x, y, z'
_cell_length_a     83.246226
_cell_length_b     43.895029
_cell_length_c     40.976302
_cell_angle_alpha  90.109849
_cell_angle_beta   90.079958
_cell_angle_gamma 90.205832
loop_
_atom_site_label
_atom_site_type_symbol
_atom_site_fract_x
_atom_site_fract_y
_atom_site_fract_z
_atom_type_partial_charge
C0 C 0.0817 0.34661 0.02561 0.0
C1 C 0.08879 0.37437 0.01472 0.0
C2 C 0.10424 0.38314 0.02576 0.0
C3 C 0.11239 0.36421 0.0474 0.0
C4 C 0.10636 0.3356 0.05577 0.0
C5 C 0.09086 0.32708 0.04569 0.0
O6 O 0.02494 0.36617 0.04681 0.0
Tb7 Tb 0.03665 0.34405 0.00519 0.0
O8 O 0.03328 0.38841 0.9834 0.0
O9 O 0.02239 0.32767 0.08459 0.0
Eu10 Eu 1.01296 0.29122 0.05023 0.0
O11 O 0.05991 0.34946 0.98707 0.0
C12 C 0.98219 0.29772 0.04081 0.0
O13 O 0.05533 0.32368 0.03218 0.0
O14 O 0.02548 0.27104 0.00655 0.0
O15 O 0.02456 0.31195 0.97235 0.0
C16 C 0.06623 0.33477 0.01193 0.0
C17 C 1.01958 0.22485 0.07252 0.0
O18 O 1.01703 0.22035 0.04127 0.0
C19 C 0.023 0.35676 0.07708 0.0
C20 C 0.02431 0.28227 0.97703 0.0
O21 O 1.0184 0.25258 0.08436 0.0
C22 C 0.96677 0.29343 0.02274 0.0
C23 C 0.9422 0.3173 0.00294 0.0
C24 C 0.95777 0.31982 0.01561 0.0
C25 C 0.95972 0.26428 0.01693 0.0
C26 C 0.94413 0.26192 0.00301 0.0
C27 C 0.93588 0.28873 0.99575 0.0
C28 C 1.01868 0.39949 0.98198 0.0
O29 O 1.00654 0.38099 0.98741 0.0
O30 O 0.98841 0.27488 0.05719 0.0
O31 O 0.99297 0.31713 0.02964 0.0
H32 H 0.08267 0.38847 -0.00301 0.0
H33 H 0.12452 0.37025 0.0549 0.0
H34 H 0.08635 0.3046 0.05177 0.0
H35 H 0.96248 0.34218 0.02176 0.0
H36 H 0.96607 0.24381 0.0239 0.0
H37 H 0.92363 0.28759 0.98669 0.0
C38 C 0.2117 0.92066 0.00932 0.0
C39 C 0.20252 0.89661 0.99483 0.0
C40 C 0.18628 0.89199 0.00403 0.0
C41 C 0.17941 0.91205 0.02629 0.0
C42 C 0.18842 0.93505 0.04146 0.0
C43 C 0.20446 0.93942 0.03297 0.0
O44 O 0.26713 0.89343 0.03911 0.0
Tb45 Tb 0.25728 0.91517 0.9951 0.0
O46 O 0.25782 0.86899 0.9756 0.0
O47 O 0.26451 0.93166 0.0774 0.0
Eu48 Eu 0.27628 0.96883 0.04725 0.0
O49 O 0.23445 0.91433 0.97368 0.0
C50 C 0.30664 0.95809 0.03775 0.0
O51 O 0.23886 0.93728 0.02075 0.0
O52 O 0.26462 0.9885 0.00238 0.0
O53 O 0.27057 0.94981 0.96706 0.0
C54 C 0.22816 0.92921 -0.00157 0.0
C55 C 0.25933 0.02653 0.07436 0.0
O56 O 0.24763 0.01375 0.05763 0.0
C57 C 0.26529 0.90251 0.06959 0.0
C58 C 0.26829 0.97916 0.97292 0.0
O59 O 0.27304 0.01196 0.0768 0.0
C60 C 0.32184 0.96316 0.01955 0.0
C61 C 0.34585 0.9393 -0.00278 0.0
C62 C 0.33047 0.93695 0.01073 0.0
C63 C 0.32926 0.99214 0.01583 0.0
C64 C 0.34455 0.99444 0.00086 0.0
C65 C 0.3521 0.96796 0.98983 0.0
C66 C 0.27064 0.85504 0.96431 0.0
O67 O 0.28394 0.87053 0.95938 0.0
O68 O 0.30143 0.97907 0.058 0.0
O69 O 0.29509 0.94246 0.0234 0.0
H70 H 0.20786 0.88184 0.97668 0.0
H71 H 0.16693 0.90879 0.03323 0.0
H72 H 0.21131 0.9573 0.04495 0.0
H73 H 0.32588 0.9146 0.01723 0.0
H74 H 0.32359 0.01236 0.02561 0.0
H75 H 0.36432 0.9695 0.98066 0.0
C76 C 0.08258 0.90947 0.22144 0.0
C77 C 0.09219 0.88967 0.24044 0.0
C78 C 0.109 0.88807 0.2354 0.0
C79 C 0.11567 0.90757 0.21199 0.0
C80 C 0.10615 0.92605 0.19194 0.0
C81 C 0.0897 0.92737 0.19698 0.0
O82 O 0.02186 0.89739 0.19711 0.0
Tb83 Tb 0.03596 0.92067 0.23472 0.0
O84 O 0.02637 0.90152 0.27944 0.0
O85 O 1.01762 0.93702 0.16165 0.0
Eu86 Eu 1.00469 0.96942 0.19549 0.0
O87 O 0.05737 0.89941 0.25121 0.0
C88 C 0.97392 0.96288 0.19038 0.0
O89 O 0.05632 0.929 0.20719 0.0
O90 O 1.0082 0.9783 0.24934 0.0
O91 O 0.03496 0.96768 0.25216 0.0
C92 C 0.0652 0.91271 0.22725 0.0
C93 C 0.02488 0.02855 0.18271 0.0
O94 O 0.03244 0.01893 0.20878 0.0
C95 C 1.01935 0.90774 0.16747 0.0
C96 C 0.02224 0.98198 0.26326 0.0
O97 O 1.0132 0.01203 0.17024 0.0
C98 C 0.96088 0.96266 0.21489 0.0
C99 C 0.94511 0.93453 0.25465 0.0
C100 C 0.95643 0.93491 0.22957 0.0
C101 C 0.95193 0.98914 0.22239 0.0
C102 C 0.94023 0.9881 0.24721 0.0
C103 C 0.93932 0.96205 0.2668 0.0
C104 C 0.02354 0.87328 0.28908 0.0
O105 O 1.01769 0.87047 0.31872 0.0
O106 O 0.98118 0.98907 0.18522 0.0
O107 O 0.98393 0.93978 0.19183 0.0
H108 H 0.08654 0.87571 0.25893 0.0
H109 H 0.12834 0.90659 0.20653 0.0
H110 H 0.08248 0.94163 0.18118 0.0
H111 H 0.96094 0.91347 0.22019 0.0
H112 H 0.95327 0.00948 0.2077 0.0
H113 H 0.93044 0.96126 0.28619 0.0
C114 C 0.21239 0.35394 0.22706 0.0
C115 C 0.20206 0.3768 0.23986 0.0
C116 C 0.18698 0.38239 0.2253 0.0
C117 C 0.18255 0.36588 0.19773 0.0
C118 C 0.19154 0.34102 0.18701 0.0
C119 C 0.20673 0.3356 0.20085 0.0
O120 O 0.26691 0.36635 0.19847 0.0
Tb121 Tb 0.25773 0.34525 0.24272 0.0
O122 O 0.26971 0.36946 0.28239 0.0
O123 O 0.26641 0.32652 0.16174 0.0
Eu124 Eu 0.27904 0.29183 0.19365 0.0
O125 O 0.23658 0.36818 0.25639 0.0
C126 C 0.30873 0.30671 0.20627 0.0
O127 O 0.23601 0.32263 0.23381 0.0
O128 O 0.26626 0.26767 0.23455 0.0
O129 O 0.26751 0.30708 0.27107 0.0
C130 C 0.22752 0.34586 0.24487 0.0
C131 C 0.2639 0.23738 0.15664 0.0
O132 O 0.25148 0.2556 0.15929 0.0
C133 C 0.26572 0.35585 0.16854 0.0
C134 C 0.26647 0.27767 0.26467 0.0
O135 O 0.27789 0.24655 0.16784 0.0
C136 C 0.32431 0.29871 0.22185 0.0
C137 C 0.34852 0.31643 0.25003 0.0
C138 C 0.33322 0.32229 0.23709 0.0
C139 C 0.33119 0.26922 0.21907 0.0
C140 C 0.34659 0.26354 0.23221 0.0
C141 C 0.35491 0.28732 0.2473 0.0
C142 C 0.27365 0.3984 0.28614 0.0
O143 O 0.28095 0.40607 0.31342 0.0
O144 O 0.30428 0.29122 0.18023 0.0
O145 O 0.29663 0.31502 0.22499 0.0
H146 H 0.20538 0.38903 0.26187 0.0
H147 H 0.1709 0.37025 0.1867 0.0
H148 H 0.2136 0.31616 0.19254 0.0
H149 H 0.32844 0.34521 0.23817 0.0
H150 H 0.32478 0.25111 0.20658 0.0
H151 H 0.36713 0.28349 0.25568 0.0
C152 C 0.07293 0.71551 0.97631 0.0
C153 C 0.0807 0.74444 0.97815 0.0
C154 C 0.09679 0.74663 0.98975 0.0
C155 C 0.10466 0.71973 -0.00133 0.0
C156 C 0.09749 0.69128 0.99447 0.0
C157 C 0.08154 0.68925 0.98445 0.0
O158 O 1.01434 0.74483 0.97709 0.0
Tb159 Tb 0.02934 0.72111 0.94203 0.0
O160 O 0.02995 0.76488 0.91841 0.0
O161 O 1.0173 0.71172 0.01902 0.0
Eu162 Eu 1.00584 0.67349 0.99003 0.0
O163 O 0.05391 0.72537 0.93333 0.0
C164 C 0.97494 0.68083 0.98613 0.0
O165 O 0.04469 0.70059 0.97658 0.0
O166 O 1.01475 0.64809 0.94533 0.0
O167 O 0.02027 0.68658 0.90833 0.0
C168 C 0.05735 0.70992 0.95988 0.0
C169 C 0.02525 0.61859 0.01508 0.0
O170 O 0.03619 0.63215 -0.00291 0.0
C171 C 1.01554 0.73968 0.00843 0.0
C172 C 1.01768 0.65765 0.91544 0.0
O173 O 1.01144 0.63216 0.01973 0.0
C174 C 0.95998 0.66863 0.97113 0.0
C175 C 0.93754 0.67663 0.93393 0.0
C176 C 0.95239 0.6859 0.94656 0.0
C177 C 0.95193 0.6427 0.98395 0.0
C178 C 0.93726 0.63284 0.9702 0.0
C179 C 0.93094 0.64884 0.9438 0.0
C180 C 1.01726 0.77709 0.90479 0.0
O181 O 1.0041 0.76091 0.90074 0.0
O182 O 0.9819 0.66469 0.00913 0.0
O183 O 0.98523 0.69484 0.96679 0.0
H184 H 0.07455 0.76463 0.96965 0.0
H185 H 0.11735 0.72042 0.00474 0.0
H186 H 0.07633 0.6669 0.98001 0.0
H187 H 0.9575 0.70747 0.93883 0.0
H188 H 0.95672 0.63081 0.00494 0.0
H189 H 0.91952 0.64167 0.93345 0.0
C190 C 0.71691 0.04901 0.96641 0.0
C191 C 0.70975 0.01946 0.96595 0.0
C192 C 0.69468 0.01454 0.98129 0.0
C193 C 0.68703 0.03914 -0.00373 0.0
C194 C 0.69347 0.06842 0.9954 0.0
C195 C 0.70841 0.07335 0.98067 0.0
O196 O 0.77321 0.01854 0.97111 0.0
Tb197 Tb 0.76066 0.04506 0.9344 0.0
O198 O 0.76165 1.00592 0.90185 0.0
O199 O 0.77141 0.04846 0.01663 0.0
Eu200 Eu 0.78366 0.08871 0.99205 0.0
O201 O 0.73617 0.04086 0.9232 0.0
C202 C 0.81428 0.07962 0.98367 0.0
O203 O 0.74444 0.06688 0.96606 0.0
O204 O 0.77263 0.11461 0.95033 0.0
O205 O 0.77234 0.08167 0.90697 0.0
C206 C 0.73203 0.05696 0.94893 0.0
C207 C 0.76767 0.15008 0.01424 0.0
O208 O 0.75527 0.13854 -0.00137 0.0
C209 C 0.77158 0.0213 0.00278 0.0
C210 C 0.77411 0.10935 0.91897 0.0
O211 O 0.78034 0.13286 0.0196 0.0
C212 C 0.82999 0.09057 0.97065 0.0
C213 C 0.85378 0.0784 0.93859 0.0
C214 C 0.83828 0.07103 0.94917 0.0
C215 C 0.83791 0.11726 0.98237 0.0
C216 C 0.85343 0.12497 0.97074 0.0
C217 C 0.86079 0.10594 0.94799 0.0
C218 C 0.7739 0.98698 0.90235 0.0
O219 O 0.78658 0.99318 0.92026 0.0
O220 O 0.80828 0.09268 0.00989 0.0
O221 O 0.80325 0.07033 0.9627 0.0
H222 H 0.71565 1.00081 0.95353 0.0
H223 H 0.6751 0.03599 0.00647 0.0
H224 H 0.71312 0.09638 0.97919 0.0
H225 H 0.83305 0.04933 0.94211 0.0
H226 H 0.83234 0.13133 0.00087 0.0
H227 H 0.87296 0.11102 0.94005 0.0
C228 C 0.07346 0.04923 0.77636 0.0
C229 C 0.08107 0.02012 0.7762 0.0
C230 C 0.09669 0.0168 0.76254 0.0
C231 C 0.10432 0.04266 0.75 0.0
C232 C 0.09738 0.07132 0.75172 0.0
C233 C 0.08195 0.07466 0.76444 0.0
O234 O 1.0164 0.02218 0.76477 0.0
Tb235 Tb 0.02857 0.04699 0.80384 0.0
O236 O 0.02569 0.00903 0.83731 0.0
O237 O 1.01754 0.05314 0.71989 0.0
Eu238 Eu 1.00662 0.09301 0.74671 0.0
O239 O 0.0526 0.03764 0.81586 0.0
C240 C 0.97586 0.08797 0.75715 0.0
O241 O 0.04635 0.06923 0.7762 0.0
O242 O 1.01997 0.11605 0.78761 0.0
O243 O 1.01776 0.08474 0.83135 0.0
C244 C 0.05792 0.05591 0.79289 0.0
C245 C 0.02854 0.14512 0.72363 0.0
O246 O 0.0393 0.12451 0.73137 0.0
C247 C 1.01816 0.02586 0.73312 0.0
C248 C 1.01726 0.11232 0.81878 0.0
O249 O 1.0134 0.13662 0.72164 0.0
C250 C 0.96101 0.09949 0.77346 0.0
C251 C 0.94004 0.09001 0.81386 0.0
C252 C 0.95484 0.08247 0.79993 0.0
C253 C 0.95126 0.12289 0.75974 0.0
C254 C 0.93648 0.13075 0.7746 0.0
C255 C 0.93213 0.11628 0.80354 0.0
C256 C 1.01359 0.98976 0.83469 0.0
O257 O 1.00199 0.99505 0.81376 0.0
O258 O 0.98187 0.1027 0.73191 0.0
O259 O 0.98691 0.07511 0.77568 0.0
H260 H 0.07511 1.00063 0.78699 0.0
H261 H 0.11663 0.04116 0.74139 0.0
H262 H 0.07692 0.09734 0.76665 0.0
H263 H 0.96089 0.06198 0.80798 0.0
H264 H 0.95462 0.13351 0.7369 0.0
H265 H 0.92075 0.12219 0.81488 0.0
C266 C 0.71459 0.7066 0.76728 0.0
C267 C 0.70675 0.73511 0.77146 0.0
C268 C 0.69152 0.74 0.75711 0.0
C269 C 0.68458 0.71705 0.73823 0.0
C270 C 0.69143 0.68825 0.73636 0.0
C271 C 0.70648 0.68302 0.75054 0.0
O272 O 0.76974 0.73821 0.75399 0.0
Tb273 Tb 0.7582 0.71526 0.79484 0.0
O274 O 0.75737 0.76127 0.81385 0.0
O275 O 0.77149 0.69841 0.71769 0.0
Eu276 Eu 0.78348 0.6637 0.75087 0.0
O277 O 0.73417 0.71562 0.80926 0.0
C278 C 0.81431 0.67357 0.75408 0.0
O279 O 0.7421 0.68951 0.76621 0.0
O280 O 0.77435 0.64339 0.79834 0.0
O281 O 0.77066 0.68635 0.83005 0.0
C282 C 0.72984 0.6987 0.78416 0.0
C283 C 0.76679 0.60593 0.7155 0.0
O284 O 0.75432 0.62359 0.71055 0.0
C285 C 0.77076 0.72794 0.72392 0.0
C286 C 0.77273 0.65665 0.82706 0.0
O287 O 0.78004 0.61716 0.72851 0.0
C288 C 0.83004 0.66448 0.76854 0.0
C289 C 0.85331 0.67985 0.80065 0.0
C290 C 0.83777 0.68546 0.7894 0.0
C291 C 0.83844 0.63775 0.75872 0.0
C292 C 0.85408 0.63178 0.77088 0.0
C293 C 0.86108 0.65289 0.7922 0.0
C294 C 0.76842 0.77321 0.83295 0.0
O295 O 0.77998 0.7561 0.84465 0.0
O296 O 0.80761 0.65562 0.73222 0.0
O297 O 0.80382 0.68752 0.77298 0.0
H298 H 0.71206 0.7527 0.78664 0.0
H299 H 0.67263 0.72049 0.7282 0.0
H300 H 0.71148 0.66024 0.75002 0.0
H301 H 0.83202 0.7068 0.7957 0.0
H302 H 0.83307 0.62212 0.74134 0.0
H303 H 0.87331 0.64949 0.80067 0.0
C304 C 0.0792 0.84809 0.50849 0.0
C305 C 0.08799 0.87462 0.49908 0.0
C306 C 0.10449 0.87728 0.50671 0.0
C307 C 0.11206 0.85304 0.52217 0.0
C308 C 0.1032 0.82917 0.53593 0.0
C309 C 0.08684 0.8262 0.52845 0.0
O310 O 0.02354 0.87013 0.53953 0.0
Tb311 Tb 0.03285 0.84608 0.4964 0.0
O312 O 0.02452 0.86778 0.45175 0.0
O313 O 0.02537 0.83064 0.57631 0.0
Eu314 Eu 1.01203 0.79404 0.54898 0.0
O315 O 0.05497 0.86361 0.48071 0.0
C316 C 0.982 0.80667 0.53841 0.0
O317 O 0.05346 0.8214 0.5096 0.0
O318 O 0.02363 0.76897 0.50786 0.0
O319 O 0.02105 0.80757 0.47107 0.0
C320 C 0.06291 0.84139 0.49487 0.0
C321 C 0.02811 0.73697 0.57854 0.0
O322 O 0.04043 0.74923 0.56345 0.0
C323 C 0.02428 0.85995 0.56987 0.0
C324 C 0.02217 0.77823 0.47779 0.0
O325 O 1.01433 0.7514 0.57871 0.0
C326 C 0.96623 0.79914 0.52337 0.0
C327 C 0.94186 0.81919 0.49856 0.0
C328 C 0.95765 0.82347 0.50933 0.0
C329 C 0.95889 0.76981 0.52544 0.0
C330 C 0.94291 0.76548 0.51427 0.0
C331 C 0.93458 0.79091 0.50273 0.0
C332 C 0.02118 0.89597 0.44295 0.0
O333 O 1.01615 0.89948 0.41276 0.0
O334 O 0.98696 0.79062 0.56354 0.0
O335 O 0.9937 0.8167 0.51958 0.0
H336 H 0.08212 0.8929 0.48602 0.0
H337 H 0.12473 0.85525 0.52828 0.0
H338 H 0.08011 0.80722 0.53843 0.0
H339 H 0.96304 0.84596 0.50783 0.0
H340 H 0.96543 0.75092 0.53593 0.0
H341 H 0.92182 0.78913 0.49776 0.0
C342 C 0.20894 0.42287 0.52092 0.0
C343 C 0.20096 0.39439 0.51577 0.0
C344 C 0.18548 0.38941 0.52925 0.0
C345 C 0.17806 0.41346 0.5458 0.0
C346 C 0.18582 0.44113 0.55156 0.0
C347 C 0.20133 0.44563 0.5396 0.0
O348 O 0.26302 0.39182 0.53637 0.0
Tb349 Tb 0.25357 0.41996 0.49704 0.0
O350 O 0.25613 0.37893 0.46839 0.0
O351 O 0.267 0.42527 0.57901 0.0
Eu352 Eu 0.27669 0.46476 0.54893 0.0
O353 O 0.2298 0.41506 0.48077 0.0
C354 C 0.30698 0.45791 0.53665 0.0
O355 O 0.23593 0.44266 0.52413 0.0
O356 O 0.26459 0.49101 0.50866 0.0
O357 O 0.26612 0.45492 0.46873 0.0
C358 C 0.22441 0.43156 0.50526 0.0
C359 C 0.26224 0.52224 0.58306 0.0
O360 O 0.25077 0.51784 0.5615 0.0
C361 C 0.26449 0.39748 0.56777 0.0
C362 C 0.26607 0.48369 0.47783 0.0
O363 O 0.27402 0.50255 0.58527 0.0
C364 C 0.32287 0.46304 0.52135 0.0
C365 C 0.34801 0.43927 0.50591 0.0
C366 C 0.33226 0.4369 0.51701 0.0
C367 C 0.32989 0.49224 0.51588 0.0
C368 C 0.34603 0.49442 0.50476 0.0
C369 C 0.35432 0.46758 0.4977 0.0
C370 C 0.26938 0.36289 0.47076 0.0
O371 O 0.28217 0.37556 0.48391 0.0
O372 O 0.30159 0.47713 0.55859 0.0
O373 O 0.29574 0.44228 0.52122 0.0
H374 H 0.20671 0.37647 0.5019 0.0
H375 H 0.16604 0.41025 0.55548 0.0
H376 H 0.20728 0.46728 0.54399 0.0
H377 H 0.32768 0.41477 0.52436 0.0
H378 H 0.32322 0.51271 0.52157 0.0
H379 H 0.36664 0.46876 0.48911 0.0
C380 C 0.08065 0.4205 0.7192 0.0
C381 C 0.08706 0.39093 0.72479 0.0
C382 C 0.10267 0.38376 0.71367 0.0
C383 C 0.1117 0.40606 0.69778 0.0
C384 C 0.10575 0.43526 0.69279 0.0
C385 C 0.09015 0.44239 0.70291 0.0
O386 O 0.02539 0.39383 0.70151 0.0
Tb387 Tb 0.03592 0.41982 0.74206 0.0
O388 O 0.034 0.37827 0.77003 0.0
O389 O 0.02455 0.43036 0.66125 0.0
Eu390 Eu 1.01347 0.46818 0.6913 0.0
O391 O 0.05954 0.41603 0.75879 0.0
C392 C 0.98303 0.45889 0.70189 0.0
O393 O 0.05386 0.44103 0.71373 0.0
O394 O 0.02534 0.49204 0.73344 0.0
O395 O 0.02414 0.45464 0.77203 0.0
C396 C 0.06521 0.43099 0.73351 0.0
C397 C 0.02716 0.5288 0.66226 0.0
O398 O 0.03635 0.52714 0.6882 0.0
C399 C 0.02512 0.40167 0.67052 0.0
C400 C 0.02431 0.48366 0.76394 0.0
O401 O 1.0169 0.50676 0.65572 0.0
C402 C 0.96795 0.46407 0.72053 0.0
C403 C 0.94415 0.4401 0.74404 0.0
C404 C 0.95955 0.43789 0.73058 0.0
C405 C 0.9604 0.49294 0.72353 0.0
C406 C 0.9451 0.49527 0.73852 0.0
C407 C 0.93759 0.4688 0.74985 0.0
C408 C 0.0207 0.36223 0.76887 0.0
O409 O 1.00785 0.37428 0.7555 0.0
O410 O 0.98845 0.48016 0.68221 0.0
O411 O 0.99443 0.44224 0.71521 0.0
H412 H 0.08014 0.37396 0.73789 0.0
H413 H 0.12381 0.40076 0.68968 0.0
H414 H 0.08567 0.46531 0.69936 0.0
H415 H 0.9644 0.4155 0.72534 0.0
H416 H 0.96603 0.51309 0.71338 0.0
H417 H 0.92537 0.47026 0.75897 0.0
C418 C 0.20909 0.84118 0.72639 0.0
C419 C 0.20065 0.86472 0.74327 0.0
C420 C 0.18498 0.87298 0.73338 0.0
C421 C 0.17784 0.85667 0.70812 0.0
C422 C 0.18627 0.8353 0.68942 0.0
C423 C 0.20181 0.82709 0.69902 0.0
O424 O 0.26478 0.8629 0.7038 0.0
Tb425 Tb 0.25412 0.83859 0.74445 0.0
O426 O 0.257 0.88116 0.77026 0.0
O427 O 0.26554 0.82822 0.66209 0.0
Eu428 Eu 0.27727 0.79198 0.69391 0.0
O429 O 0.23111 0.84182 0.76438 0.0
C430 C 0.30678 0.80492 0.70847 0.0
O431 O 0.23529 0.81893 0.71732 0.0
O432 O 0.26563 0.76618 0.73523 0.0
O433 O 0.26675 0.80468 0.77283 0.0
C434 C 0.22457 0.82859 0.73874 0.0
C435 C 0.26466 0.734 0.6571 0.0
O436 O 0.25052 0.74638 0.66182 0.0
C437 C 0.26362 0.85639 0.67262 0.0
C438 C 0.26616 0.77553 0.76568 0.0
O439 O 0.27774 0.749 0.66491 0.0
C440 C 0.32161 0.79889 0.72737 0.0
C441 C 0.3452 0.82279 0.75095 0.0
C442 C 0.32979 0.82495 0.73801 0.0
C443 C 0.32922 0.76999 0.73001 0.0
C444 C 0.34443 0.76769 0.74569 0.0
C445 C 0.3517 0.79428 0.7576 0.0
C446 C 0.27032 0.89707 0.76762 0.0
O447 O 0.28301 0.88458 0.75409 0.0
O448 O 0.30283 0.7867 0.68428 0.0
O449 O 0.29446 0.81725 0.72368 0.0
H450 H 0.20608 0.87622 0.76394 0.0
H451 H 0.16537 0.86141 0.70235 0.0
H452 H 0.20814 0.80966 0.68543 0.0
H453 H 0.32505 0.84735 0.73238 0.0
H454 H 0.32375 0.74998 0.71913 0.0
H455 H 0.36395 0.79325 0.76673 0.0
C456 C 0.0726 0.22132 0.47179 0.0
C457 C 0.08114 0.24887 0.47784 0.0
C458 C 0.0976 0.24797 0.48632 0.0
C459 C 0.10518 0.21988 0.48902 0.0
C460 C 0.09693 0.19268 0.48316 0.0
C461 C 0.08066 0.19336 0.47454 0.0
O462 O 1.01215 0.23826 0.48449 0.0
Tb463 Tb 0.02672 0.22084 0.44447 0.0
O464 O 0.02222 0.26057 0.41417 0.0
O465 O 1.01676 0.20219 0.52294 0.0
Eu466 Eu 1.00475 0.16627 0.4916 0.0
O467 O 0.0498 0.24024 0.43992 0.0
C468 C 0.97452 0.17686 0.48013 0.0
O469 O 0.04506 0.20103 0.47277 0.0
O470 O 1.01807 0.14447 0.44976 0.0
O471 O 0.02052 0.18292 0.41142 0.0
C472 C 0.05551 0.22112 0.46161 0.0
C473 C 0.02104 0.10717 0.51985 0.0
O474 O 0.03389 0.12459 0.52095 0.0
C475 C 1.0154 0.23099 0.51479 0.0
C476 C 1.02001 0.15375 0.41953 0.0
O477 O 1.00703 0.1192 0.5126 0.0
C478 C 0.95946 0.16478 0.46524 0.0
C479 C 0.93482 0.17522 0.4346 0.0
C480 C 0.94954 0.1852 0.44773 0.0
C481 C 0.95396 0.13451 0.47083 0.0
C482 C 0.93948 0.12446 0.45643 0.0
C483 C 0.93082 0.14442 0.43688 0.0
C484 C 1.00859 0.27544 0.41663 0.0
O485 O 0.99682 0.26361 0.43378 0.0
O486 O 0.97981 0.16362 0.50686 0.0
O487 O 0.98611 0.18603 0.46047 0.0
H488 H 0.07507 0.27059 0.47598 0.0
H489 H 0.11789 0.21929 0.49502 0.0
H490 H 0.07442 0.17221 0.46913 0.0
H491 H 0.95296 0.20895 0.44553 0.0
H492 H 0.96072 0.11917 0.48627 0.0
H493 H 0.91989 0.13619 0.42527 0.0
C494 C 0.71878 0.54442 0.47136 0.0
C495 C 0.71038 0.51627 0.47374 0.0
C496 C 0.69456 0.5156 0.48621 0.0
C497 C 0.68729 0.54295 0.49497 0.0
C498 C 0.69514 0.57073 0.49112 0.0
C499 C 0.71095 0.57164 0.47982 0.0
O500 O 0.77881 0.52475 0.47725 0.0
Tb501 Tb 0.76408 0.54795 0.44123 0.0
O502 O 0.76744 0.51282 0.4038 0.0
O503 O 0.77135 0.55164 0.52163 0.0
Eu504 Eu 0.78186 0.59476 0.50044 0.0
O505 O 0.74072 0.53043 0.43478 0.0
C506 C 0.81278 0.58856 0.49382 0.0
O507 O 0.74645 0.56372 0.47401 0.0
O508 O 0.76975 0.62323 0.46193 0.0
O509 O 0.77023 0.5912 0.41681 0.0
C510 C 0.73564 0.54591 0.46016 0.0
C511 C 0.7723 0.6487 0.55234 0.0
O512 O 0.76866 0.65635 0.58246 0.0
C513 C 0.77485 0.52541 0.50818 0.0
C514 C 0.76918 0.61875 0.43007 0.0
O515 O 0.77626 0.62003 0.54705 0.0
C516 C 0.8291 0.59695 0.48194 0.0
C517 C 0.85194 0.58724 0.44585 0.0
C518 C 0.83564 0.58286 0.45373 0.0
C519 C 0.83903 0.61641 0.50111 0.0
C520 C 0.85534 0.62006 0.4934 0.0
C521 C 0.86168 0.60409 0.46722 0.0
C522 C 0.77873 0.49192 0.4064 0.0
O523 O 0.78993 0.49474 0.42871 0.0
O524 O 0.80607 0.60566 0.51631 0.0
O525 O 0.80235 0.57489 0.47441 0.0
H526 H 0.71614 0.49523 0.46648 0.0
H527 H 0.67486 0.54291 0.50311 0.0
H528 H 0.71694 0.59342 0.47679 0.0
H529 H 0.82819 0.56871 0.43814 0.0
H530 H 0.83422 0.62821 0.52217 0.0
H531 H 0.87444 0.60644 0.46231 0.0
C532 C 0.07401 0.55074 0.27628 0.0
C533 C 0.08167 0.52264 0.26911 0.0
C534 C 0.09569 0.5221 0.24928 0.0
C535 C 0.10035 0.54955 0.23438 0.0
C536 C 0.09554 0.57728 0.24769 0.0
C537 C 0.08175 0.57794 0.26716 0.0
O538 O 0.02111 0.52187 0.25807 0.0
Tb539 Tb 0.03017 0.54281 0.30307 0.0
O540 O 0.02531 0.50512 0.33639 0.0
O541 O 1.01713 0.56026 0.21954 0.0
Eu542 Eu 1.00834 0.59861 0.25187 0.0
O543 O 0.05396 0.52901 0.31223 0.0
C544 C 0.97779 0.59599 0.26264 0.0
O545 O 0.04851 0.57243 0.28838 0.0
O546 O 0.02323 0.61234 0.29513 0.0
O547 O 1.01824 0.57709 0.33382 0.0
C548 C 0.05978 0.5535 0.29799 0.0
C549 C 0.02447 0.65915 0.21878 0.0
O550 O 0.03486 0.64147 0.20393 0.0
C551 C 1.01912 0.53134 0.22776 0.0
C552 C 1.01859 0.60583 0.32482 0.0
O553 O 1.01271 0.64734 0.23622 0.0
C554 C 0.96011 0.59661 0.26752 0.0
C555 C 0.93545 0.57502 0.29011 0.0
C556 C 0.9523 0.57477 0.28732 0.0
C557 C 0.95096 0.62068 0.25394 0.0
C558 C 0.93417 0.62086 0.25716 0.0
C559 C 0.9266 0.59613 0.27203 0.0
C560 C 1.01671 0.4815 0.32673 0.0
O561 O 1.01033 0.48121 0.29747 0.0
O562 O 0.98417 0.60986 0.23733 0.0
O563 O 0.9881 0.58222 0.28218 0.0
H564 H 0.07724 0.50199 0.28032 0.0
H565 H 0.11002 0.54991 0.2168 0.0
H566 H 0.07784 0.5995 0.27735 0.0
H567 H 0.95925 0.55859 0.30138 0.0
H568 H 0.95691 0.63985 0.24244 0.0
H569 H 0.91364 0.59686 0.27526 0.0
C570 C 0.71754 0.21581 0.27708 0.0
C571 C 0.71094 0.24532 0.27181 0.0
C572 C 0.69562 0.24812 0.25688 0.0
C573 C 0.68736 0.22191 0.24745 0.0
C574 C 0.69354 0.19308 0.25318 0.0
C575 C 0.70856 0.18991 0.26794 0.0
O576 O 0.77336 0.24463 0.26663 0.0
Tb577 Tb 0.76165 0.22113 0.30732 0.0
O578 O 0.76382 0.2637 0.33417 0.0
O579 O 0.76896 0.20727 0.22949 0.0
Eu580 Eu 0.78253 0.17006 0.25527 0.0
O581 O 0.73739 0.22935 0.31778 0.0
C582 C 0.81316 0.17473 0.24393 0.0
O583 O 0.74464 0.19646 0.27987 0.0
O584 O 0.77848 0.14797 0.30362 0.0
O585 O 0.77161 0.18631 0.3404 0.0
C586 C 0.73268 0.20991 0.29523 0.0
C587 C 0.76319 0.11465 0.21755 0.0
O588 O 0.75368 0.10688 0.19328 0.0
C589 C 0.77081 0.23616 0.2364 0.0
C590 C 0.77575 0.15787 0.33334 0.0
O591 O 0.76762 0.14346 0.21916 0.0
C592 C 0.82932 0.16971 0.25884 0.0
C593 C 0.85135 0.1865 0.29414 0.0
C594 C 0.83573 0.19051 0.28196 0.0
C595 C 0.83895 0.14509 0.24827 0.0
C596 C 0.85467 0.14122 0.26051 0.0
C597 C 0.86056 0.16199 0.28344 0.0
C598 C 0.77735 0.27923 0.33336 0.0
O599 O 0.79 0.26718 0.31937 0.0
O600 O 0.80459 0.1506 0.23538 0.0
O601 O 0.80439 0.19712 0.2559 0.0
H602 H 0.71743 0.26552 0.27951 0.0
H603 H 0.67546 0.22396 0.23668 0.0
H604 H 0.71301 0.16725 0.27327 0.0
H605 H 0.82873 0.20971 0.29041 0.0
H606 H 0.83432 0.12921 0.23026 0.0
H607 H 0.8724 0.15869 0.29401 0.0
C608 C 0.58032 0.35023 0.52287 0.0
C609 C 0.58684 0.37969 0.517 0.0
C610 C 0.60208 0.3878 0.52944 0.0
C611 C 0.61031 0.36685 0.54871 0.0
C612 C 0.60511 0.33667 0.55099 0.0
C613 C 0.58989 0.32853 0.53915 0.0
O614 O 0.52486 0.37151 0.54026 0.0
Tb615 Tb 0.53557 0.34452 0.50055 0.0
O616 O 0.52973 0.36676 0.45474 0.0
O617 O 0.51844 0.33378 0.57815 0.0
Eu618 Eu 0.51281 0.29148 0.54832 0.0
O619 O 0.55839 0.35877 0.48614 0.0
C620 C 0.48398 0.28514 0.52533 0.0
O621 O 0.55527 0.32191 0.5219 0.0
O622 O 0.52911 0.26896 0.51246 0.0
O623 O 0.52569 0.30529 0.47383 0.0
C624 C 0.56549 0.33955 0.50598 0.0
C625 C 0.52859 0.23634 0.58528 0.0
O626 O 0.54046 0.24174 0.56502 0.0
C627 C 0.5213 0.36258 0.57031 0.0
C628 C 0.52822 0.27672 0.48183 0.0
O629 O 0.51624 0.25494 0.58617 0.0
C630 C 0.46674 0.28769 0.51729 0.0
C631 C 0.44283 0.3184 0.50989 0.0
C632 C 0.45896 0.316 0.51932 0.0
C633 C 0.4581 0.26162 0.5063 0.0
C634 C 0.44185 0.26428 0.49705 0.0
C635 C 0.43449 0.2926 0.49926 0.0
C636 C 0.52652 0.39521 0.44705 0.0
O637 O 0.52286 0.40051 0.41635 0.0
O638 O 0.48885 0.2707 0.55155 0.0
O639 O 0.49434 0.30515 0.5137 0.0
H640 H 0.58064 0.39553 0.50118 0.0
H641 H 0.62231 0.37246 0.55738 0.0
H642 H 0.58607 0.30492 0.54031 0.0
H643 H 0.46537 0.33597 0.528 0.0
H644 H 0.46404 0.23978 0.50435 0.0
H645 H 0.42184 0.29448 0.49294 0.0
C646 C 0.70911 0.91645 0.52254 0.0
C647 C 0.69896 0.89153 0.51301 0.0
C648 C 0.68344 0.88819 0.52718 0.0
C649 C 0.67819 0.91081 0.54884 0.0
C650 C 0.68814 0.93457 0.559 0.0
C651 C 0.70358 0.93719 0.54624 0.0
O652 O 0.76638 0.89155 0.53635 0.0
Tb653 Tb 0.75381 0.91352 0.49613 0.0
O654 O 0.75579 0.86806 0.47518 0.0
O655 O 0.77119 0.92796 0.5766 0.0
Eu656 Eu 0.77715 0.96881 0.54402 0.0
O657 O 0.72973 0.90807 0.48142 0.0
C658 C 0.80697 0.97007 0.52599 0.0
O659 O 0.73646 0.93519 0.52476 0.0
O660 O 0.76088 0.98545 0.50372 0.0
O661 O 0.76551 0.94843 0.46606 0.0
C662 C 0.72467 0.92435 0.50638 0.0
C663 C 0.75888 0.02186 0.5805 0.0
O664 O 0.74631 1.00527 0.57249 0.0
C665 C 0.76966 0.89929 0.56678 0.0
C666 C 0.76385 0.97752 0.47346 0.0
O667 O 0.7733 0.01174 0.57356 0.0
C668 C 0.82396 0.97224 0.51545 0.0
C669 C 0.85001 0.94783 0.50913 0.0
C670 C 0.83351 0.94575 0.51567 0.0
C671 C 0.83102 1.00064 0.50675 0.0
C672 C 0.84753 1.00212 0.49905 0.0
C673 C 0.85676 0.97588 0.50122 0.0
C674 C 0.76975 0.85484 0.47018 0.0
O675 O 0.78298 0.87116 0.47202 0.0
O676 O 0.80137 0.9872 0.54961 0.0
O677 O 0.79644 0.95148 0.51237 0.0
H678 H 0.70309 0.87499 0.49532 0.0
H679 H 0.66622 0.90928 0.55922 0.0
H680 H 0.71107 0.95612 0.55405 0.0
H681 H 0.82825 0.92387 0.5218 0.0
H682 H 0.82375 0.02103 0.50555 0.0
H683 H 0.86944 0.97711 0.49499 0.0
C684 C 0.58105 0.91259 0.71397 0.0
C685 C 0.58821 0.88384 0.72082 0.0
C686 C 0.60271 0.87508 0.70509 0.0
C687 C 0.60799 0.89391 0.67955 0.0
C688 C 0.60384 0.92464 0.67952 0.0
C689 C 0.58981 0.93372 0.69529 0.0
O690 O 0.52405 0.8911 0.70666 0.0
Tb691 Tb 0.53712 0.91889 0.74215 0.0
O692 O 0.53452 0.89245 0.78638 0.0
O693 O 0.52426 0.92218 0.66139 0.0
Eu694 Eu 0.51381 0.96326 0.687 0.0
O695 O 0.56053 0.90642 0.75436 0.0
C696 C 0.48488 0.95287 0.707 0.0
O697 O 0.55581 0.93954 0.71543 0.0
O698 O 0.52923 0.98986 0.72173 0.0
O699 O 0.52724 0.95934 0.76632 0.0
C700 C 0.56674 0.92398 0.73174 0.0
C701 C 0.52514 0.02137 0.6482 0.0
O702 O 0.53944 0.00912 0.65101 0.0
C703 C 0.52363 0.89488 0.67471 0.0
C704 C 0.52767 0.98673 0.75333 0.0
O705 O 0.51238 1.00606 0.65745 0.0
C706 C 0.46884 0.95913 0.72067 0.0
C707 C 0.44295 0.93709 0.73403 0.0
C708 C 0.45878 0.93367 0.72383 0.0
C709 C 0.46272 0.9887 0.72749 0.0
C710 C 0.44653 0.99184 0.73777 0.0
C711 C 0.43701 0.96587 0.74121 0.0
C712 C 0.53222 0.86295 0.7902 0.0
O713 O 0.53118 0.85296 0.82035 0.0
O714 O 0.4882 0.96214 0.67729 0.0
O715 O 0.49747 0.94912 0.72611 0.0
H716 H 0.58299 0.86963 0.73953 0.0
H717 H 0.61769 0.88724 0.66369 0.0
H718 H 0.58641 0.95754 0.69504 0.0
H719 H 0.46308 0.91117 0.71725 0.0
H720 H 0.47026 0.00865 0.7245 0.0
H721 H 0.42452 0.96823 0.74846 0.0
C722 C 0.70986 0.34709 0.71835 0.0
C723 C 0.69993 0.37024 0.73182 0.0
C724 C 0.68473 0.37703 0.71812 0.0
C725 C 0.67989 0.36063 0.69041 0.0
C726 C 0.6892 0.33692 0.67766 0.0
C727 C 0.70425 0.33045 0.69121 0.0
O728 O 0.76512 0.36682 0.69612 0.0
Tb729 Tb 0.75479 0.34329 0.73837 0.0
O730 O 0.76004 0.36889 0.78242 0.0
O731 O 0.76622 0.32637 0.65958 0.0
Eu732 Eu 0.77758 0.28951 0.69035 0.0
O733 O 0.7322 0.35858 0.75281 0.0
C734 C 0.8075 0.3018 0.7034 0.0
O735 O 0.7348 0.31832 0.72133 0.0
O736 O 0.76465 0.26737 0.73197 0.0
O737 O 0.76688 0.30767 0.76667 0.0
C738 C 0.72478 0.33749 0.73567 0.0
C739 C 0.76 0.23445 0.65956 0.0
O740 O 0.74809 0.25016 0.67212 0.0
C741 C 0.76614 0.35594 0.666 0.0
C742 C 0.76586 0.27812 0.76158 0.0
O743 O 0.77453 0.24624 0.66099 0.0
C744 C 0.82274 0.29878 0.72209 0.0
C745 C 0.84528 0.32584 0.74673 0.0
C746 C 0.83051 0.32615 0.73053 0.0
C747 C 0.83099 0.27083 0.72705 0.0
C748 C 0.84606 0.27066 0.74356 0.0
C749 C 0.85154 0.29817 0.7572 0.0
C750 C 0.76284 0.39799 0.78775 0.0
O751 O 0.76566 0.40606 0.81815 0.0
O752 O 0.80313 0.28073 0.68227 0.0
O753 O 0.79539 0.31609 0.7172 0.0
H754 H 0.70375 0.38202 0.75376 0.0
H755 H 0.66853 0.36576 0.67871 0.0
H756 H 0.71117 0.31164 0.68151 0.0
H757 H 0.82571 0.34774 0.72219 0.0
H758 H 0.82614 0.25001 0.71675 0.0
H759 H 0.86251 0.29872 0.77143 0.0
C760 C 0.57464 0.70884 0.46893 0.0
C761 C 0.58037 0.73949 0.47116 0.0
C762 C 0.59616 0.74531 0.48291 0.0
C763 C 0.60568 0.72084 0.49243 0.0
C764 C 0.60006 0.69103 0.49085 0.0
C765 C 0.58469 0.68492 0.47885 0.0
O766 O 0.51926 0.73515 0.48644 0.0
Tb767 Tb 0.5302 0.71272 0.44419 0.0
O768 O 0.53059 0.7571 0.42118 0.0
O769 O 0.51771 0.69583 0.52375 0.0
Eu770 Eu 0.50539 0.661 0.49208 0.0
O771 O 0.55404 0.71583 0.42867 0.0
C772 C 0.47459 0.67009 0.48469 0.0
O773 O 0.54743 0.68948 0.47239 0.0
O774 O 0.51748 0.64112 0.44811 0.0
O775 O 0.51793 0.68025 0.41121 0.0
C776 C 0.55913 0.69976 0.45362 0.0
C777 C 0.52387 0.60522 0.52232 0.0
O778 O 0.53639 0.6234 0.52023 0.0
C779 C 0.51885 0.72506 0.51678 0.0
C780 C 0.51607 0.65103 0.41811 0.0
O781 O 0.50941 0.61594 0.51646 0.0
C782 C 0.46004 0.66236 0.46483 0.0
C783 C 0.4421 0.67713 0.42073 0.0
C784 C 0.45532 0.68334 0.44063 0.0
C785 C 0.44908 0.6383 0.47282 0.0
C786 C 0.43544 0.63286 0.45257 0.0
C787 C 0.43478 0.64864 0.42285 0.0
C788 C 0.51775 0.77251 0.41273 0.0
O789 O 0.50346 0.75993 0.41511 0.0
O790 O 0.48046 0.64971 0.5049 0.0
O791 O 0.48586 0.68646 0.47028 0.0
H792 H 0.57278 0.75826 0.46378 0.0
H793 H 0.61778 0.72511 0.50137 0.0
H794 H 0.58069 0.66145 0.47662 0.0
H795 H 0.46122 0.70532 0.43868 0.0
H796 H 0.4506 0.62554 0.49519 0.0
H797 H 0.42528 0.64343 0.40553 0.0
C798 C 0.217 0.04623 0.46815 0.0
C799 C 0.21072 0.01732 0.47761 0.0
C800 C 0.19491 0.01542 0.49054 0.0
C801 C 0.18586 0.04195 0.49365 0.0
C802 C 0.19155 0.06973 0.48228 0.0
C803 C 0.20711 0.07203 0.47006 0.0
O804 O 0.27235 0.01852 0.48648 0.0
Tb805 Tb 0.2622 0.042 0.44404 0.0
O806 O 0.2662 1.00109 0.41531 0.0
O807 O 0.27187 0.05625 0.5252 0.0
Eu808 Eu 0.28428 0.09184 0.49493 0.0
O809 O 0.23836 0.03158 0.43119 0.0
C810 C 0.31482 0.08433 0.48511 0.0
O811 O 0.24416 0.06578 0.46906 0.0
O812 O 0.27119 0.11431 0.45369 0.0
O813 O 0.27257 0.0785 0.41333 0.0
C814 C 0.23285 0.05133 0.45255 0.0
C815 C 0.26513 0.14606 0.52078 0.0
O816 O 0.25362 0.12596 0.51599 0.0
C817 C 0.27082 0.02734 0.517 0.0
C818 C 0.27264 0.10733 0.42277 0.0
O819 O 0.28006 0.1368 0.51901 0.0
C820 C 0.3294 0.09688 0.46902 0.0
C821 C 0.35303 0.08663 0.43572 0.0
C822 C 0.33875 0.07661 0.45022 0.0
C823 C 0.33518 0.12706 0.47458 0.0
C824 C 0.34928 0.13716 0.45868 0.0
C825 C 0.35719 0.11738 0.43767 0.0
C826 C 0.27935 0.98515 0.41995 0.0
O827 O 0.29081 0.99625 0.4386 0.0
O828 O 0.30899 0.0989 0.51058 0.0
O829 O 0.30367 0.07196 0.46626 0.0
H830 H 0.21781 0.99689 0.47452 0.0
H831 H 0.17351 0.04044 0.50212 0.0
H832 H 0.21122 0.09371 0.46041 0.0
H833 H 0.33533 0.05283 0.44823 0.0
H834 H 0.32897 0.14223 0.49115 0.0
H835 H 0.36792 0.12536 0.42521 0.0
C836 C 0.57515 0.04163 0.26935 0.0
C837 C 0.58343 0.01427 0.26139 0.0
C838 C 0.59973 0.01554 0.25189 0.0
C839 C 0.60757 0.04359 0.25168 0.0
C840 C 0.59942 0.07051 0.25813 0.0
C841 C 0.58325 0.06976 0.26707 0.0
O842 O 0.5146 0.02457 0.25756 0.0
Tb843 Tb 0.52948 0.04071 0.2975 0.0
O844 O 0.52675 1.00387 0.33237 0.0
O845 O 0.51935 0.06166 0.21992 0.0
Eu846 Eu 0.50674 0.09664 0.25065 0.0
O847 O 0.55181 0.01848 0.29585 0.0
C848 C 0.47616 0.08525 0.2526 0.0
O849 O 0.54829 0.06434 0.2742 0.0
O850 O 0.51707 0.11664 0.29702 0.0
O851 O 0.52376 0.07708 0.33236 0.0
C852 C 0.55813 0.04144 0.27986 0.0
C853 C 0.52192 0.15535 0.2155 0.0
O854 O 0.53147 0.1364 0.20019 0.0
C855 C 0.51766 0.03271 0.2274 0.0
C856 C 0.52114 0.10617 0.32601 0.0
O857 O 0.51024 0.14503 0.23407 0.0
C858 C 0.46011 0.09424 0.26504 0.0
C859 C 0.43725 0.08117 0.29912 0.0
C860 C 0.45288 0.07544 0.28866 0.0
C861 C 0.4512 0.11884 0.25164 0.0
C862 C 0.43547 0.12489 0.26283 0.0
C863 C 0.42878 0.1058 0.28654 0.0
C864 C 0.51612 0.98188 0.32861 0.0
O865 O 0.50537 0.9838 0.30523 0.0
O866 O 0.48288 0.1019 0.22963 0.0
O867 O 0.48654 0.07373 0.27363 0.0
H868 H 0.57719 0.99258 0.26171 0.0
H869 H 0.62014 0.0447 0.24461 0.0
H870 H 0.57706 0.09092 0.27221 0.0
H871 H 0.45921 0.0559 0.29836 0.0
H872 H 0.45636 0.13297 0.23268 0.0
H873 H 0.41653 0.10944 0.29472 0.0
C874 C 0.21857 0.71033 0.27355 0.0
C875 C 0.20899 0.73708 0.27475 0.0
C876 C 0.19367 0.73732 0.25976 0.0
C877 C 0.18879 0.71189 0.24161 0.0
C878 C 0.19654 0.68404 0.2455 0.0
C879 C 0.21182 0.68362 0.25996 0.0
O880 O 0.27302 0.73969 0.25505 0.0
Tb881 Tb 0.26318 0.71821 0.29865 0.0
O882 O 0.26738 0.75541 0.33321 0.0
O883 O 0.27056 0.70167 0.21711 0.0
Eu884 Eu 0.28371 0.66659 0.24782 0.0
O885 O 0.23934 0.73045 0.30914 0.0
C886 C 0.31362 0.681 0.25915 0.0
O887 O 0.24504 0.68951 0.28066 0.0
O888 O 0.27192 0.64371 0.29125 0.0
O889 O 0.27491 0.68292 0.32788 0.0
C890 C 0.23365 0.70694 0.29283 0.0
C891 C 0.26861 0.60769 0.2181 0.0
O892 O 0.25559 0.62272 0.22628 0.0
C893 C 0.27037 0.73077 0.22498 0.0
C894 C 0.27324 0.65362 0.32144 0.0
O895 O 0.28261 0.62103 0.22221 0.0
C896 C 0.32913 0.67117 0.27399 0.0
C897 C 0.35234 0.68407 0.30799 0.0
C898 C 0.33682 0.69073 0.29666 0.0
C899 C 0.33739 0.64488 0.2628 0.0
C900 C 0.35303 0.63837 0.27419 0.0
C901 C 0.35991 0.65743 0.29762 0.0
C902 C 0.27375 0.78133 0.32335 0.0
O903 O 0.27845 0.78419 0.293 0.0
O904 O 0.30869 0.6669 0.23258 0.0
O905 O 0.30178 0.68908 0.27863 0.0
H906 H 0.2128 0.75649 0.28921 0.0
H907 H 0.17692 0.7121 0.23053 0.0
H908 H 0.21769 0.66187 0.26363 0.0
H909 H 0.33108 0.7117 0.30425 0.0
H910 H 0.33199 0.63023 0.2445 0.0
H911 H 0.37172 0.65204 0.30729 0.0
C912 C 0.57984 0.84595 0.02672 0.0
C913 C 0.58966 0.8687 0.01187 0.0
C914 C 0.60511 0.87569 0.0247 0.0
C915 C 0.61057 0.85895 0.05161 0.0
C916 C 0.60123 0.83621 0.06606 0.0
C917 C 0.5858 0.83019 0.0541 0.0
O918 O 0.52315 0.86789 0.04097 0.0
Tb919 Tb 0.5353 0.84414 0.00074 0.0
O920 O 0.53308 0.88778 0.97542 0.0
O921 O 0.52544 0.83539 0.08448 0.0
Eu922 Eu 0.51377 0.79675 0.05759 0.0
O923 O 0.55921 0.84774 0.98496 0.0
C924 C 0.48344 0.80682 0.04649 0.0
O925 O 0.55293 0.82542 0.03128 0.0
O926 O 0.52708 0.77409 0.01707 0.0
O927 O 0.5238 0.80592 0.97397 0.0
C928 C 0.56457 0.83457 0.01167 0.0
C929 C 0.52915 0.73981 0.08942 0.0
O930 O 0.53985 0.74509 0.06662 0.0
C931 C 0.52418 0.863 0.07268 0.0
C932 C 0.52376 0.77802 0.98626 0.0
O933 O 0.5171 0.75869 0.09339 0.0
C934 C 0.46811 0.80282 0.02829 0.0
C935 C 0.44521 0.82816 0.00326 0.0
C936 C 0.46017 0.82958 0.01876 0.0
C937 C 0.46 0.77443 0.02485 0.0
C938 C 0.44477 0.77299 0.00913 0.0
C939 C 0.43873 0.79982 0.99523 0.0
C940 C 0.51951 0.90307 0.9768 0.0
O941 O 0.50663 0.88923 0.98802 0.0
O942 O 0.48855 0.7853 0.06614 0.0
O943 O 0.49507 0.82275 0.03291 0.0
H944 H 0.58546 0.8805 0.99032 0.0
H945 H 0.62262 0.86272 0.06093 0.0
H946 H 0.57883 0.81195 0.06501 0.0
H947 H 0.46511 0.85166 0.02534 0.0
H948 H 0.46515 0.75417 0.03556 0.0
H949 H 0.42759 0.79929 0.98157 0.0
C950 C 0.70876 0.4178 0.02048 0.0
C951 C 0.70221 0.38991 0.00852 0.0
C952 C 0.68822 0.37733 0.02283 0.0
C953 C 0.68134 0.39253 0.04929 0.0
C954 C 0.68591 0.42222 0.05763 0.0
C955 C 0.70007 0.43429 0.04425 0.0
O956 O 0.76035 0.3987 0.04589 0.0
Tb957 Tb 0.75327 0.42555 0.00344 0.0
O958 O 0.75942 0.38249 0.98056 0.0
O959 O 0.77017 0.43055 0.08681 0.0
Eu960 Eu 0.78018 0.46889 0.05612 0.0
O961 O 0.7307 0.41816 0.9819 0.0
C962 C 0.80939 0.458 0.03751 0.0
O963 O 0.73352 0.44526 0.02686 0.0
O964 O 0.76524 0.49501 0.0201 0.0
O965 O 0.76555 0.46247 0.97682 0.0
C966 C 0.7234 0.43227 0.00614 0.0
C967 C 0.76361 0.52272 0.09025 0.0
O968 O 0.75138 0.50508 0.08259 0.0
C969 C 0.76461 0.40409 0.07637 0.0
C970 C 0.76585 0.49044 0.9886 0.0
O971 O 0.7782 0.51258 0.08474 0.0
C972 C 0.82468 0.46576 0.02092 0.0
C973 C 0.84921 0.44668 0.99546 0.0
C974 C 0.83383 0.44139 0.00822 0.0
C975 C 0.83105 0.49583 0.0202 0.0
C976 C 0.84649 0.50106 0.00701 0.0
C977 C 0.8554 0.47614 0.99612 0.0
C978 C 0.77393 0.37183 0.98574 0.0
O979 O 0.78504 0.39092 0.99599 0.0
O980 O 0.80586 0.47201 0.06501 0.0
O981 O 0.79675 0.45007 0.01995 0.0
H982 H 0.70769 0.37846 0.98794 0.0
H983 H 0.67082 0.38286 0.06092 0.0
H984 H 0.70387 0.45709 0.05102 0.0
H985 H 0.82917 0.41831 0.00911 0.0
H986 H 0.82421 0.51465 0.03007 0.0
H987 H 0.86782 0.47962 0.98895 0.0
C988 C 0.57976 0.41126 0.2274 0.0
C989 C 0.58902 0.38461 0.23389 0.0
C990 C 0.6052 0.38288 0.22337 0.0
C991 C 0.61205 0.40819 0.20819 0.0
C992 C 0.60304 0.43376 0.2003 0.0
C993 C 0.58691 0.43536 0.20961 0.0
O994 O 0.52406 0.39648 0.19157 0.0
Tb995 Tb 0.5334 0.41573 0.23772 0.0
O996 O 0.52214 0.39311 0.27916 0.0
O997 O 0.51566 0.43644 0.15813 0.0
Eu998 Eu 0.5093 0.47293 0.19443 0.0
O999 O 0.55464 0.39229 0.25029 0.0
C1000 C 0.48073 0.46878 0.21887 0.0
O1001 O 0.55496 0.4395 0.23213 0.0
O1002 O 0.52716 0.49162 0.23026 0.0
O1003 O 0.52329 0.4536 0.26632 0.0
C1004 C 0.56354 0.41602 0.24225 0.0
C1005 C 0.52496 0.52736 0.15686 0.0
O1006 O 0.53767 0.50972 0.15708 0.0
C1007 C 0.51945 0.40761 0.16304 0.0
C1008 C 0.52563 0.48276 0.26042 0.0
O1009 O 0.51122 0.51724 0.1681 0.0
C1010 C 0.46437 0.46601 0.23295 0.0
C1011 C 0.44486 0.43489 0.26169 0.0
C1012 C 0.45895 0.43715 0.2433 0.0
C1013 C 0.4538 0.49136 0.23585 0.0
C1014 C 0.4394 0.48824 0.25402 0.0
C1015 C 0.43728 0.4614 0.27191 0.0
C1016 C 0.52114 0.36471 0.28956 0.0
O1017 O 0.51373 0.36076 0.31756 0.0
O1018 O 0.48409 0.48726 0.1946 0.0
O1019 O 0.49279 0.45191 0.22918 0.0
H1020 H 0.58372 0.36554 0.24676 0.0
H1021 H 0.6245 0.40719 0.20025 0.0
H1022 H 0.58011 0.45553 0.20337 0.0
H1023 H 0.46535 0.41669 0.23634 0.0
H1024 H 0.45655 0.51262 0.22367 0.0
H1025 H 0.427 0.45916 0.28803 0.0
C1026 C 0.71065 0.84609 0.22055 0.0
C1027 C 0.70503 0.87658 0.22301 0.0
C1028 C 0.68945 0.8839 0.21194 0.0
C1029 C 0.6798 0.86115 0.19854 0.0
C1030 C 0.68456 0.83081 0.19837 0.0
C1031 C 0.70013 0.82323 0.20858 0.0
O1032 O 0.7655 0.86592 0.19192 0.0
Tb1033 Tb 0.75597 0.84688 0.23744 0.0
O1034 O 0.76027 0.89399 0.25187 0.0
O1035 O 0.7677 0.8238 0.15861 0.0
Eu1036 Eu 0.77994 0.79198 0.19378 0.0
O1037 O 0.73306 0.8537 0.25684 0.0
C1038 C 0.81022 0.80445 0.20179 0.0
O1039 O 0.73692 0.82369 0.21434 0.0
O1040 O 0.76842 0.7727 0.23878 0.0
O1041 O 0.7682 0.81563 0.27112 0.0
C1042 C 0.72638 0.83632 0.23428 0.0
C1043 C 0.76294 0.73724 0.16036 0.0
O1044 O 0.75068 0.75544 0.1654 0.0
C1045 C 0.76636 0.85342 0.16269 0.0
C1046 C 0.76841 0.78562 0.26772 0.0
O1047 O 0.77732 0.74642 0.16918 0.0
C1048 C 0.82532 0.79613 0.21876 0.0
C1049 C 0.84958 0.81367 0.24654 0.0
C1050 C 0.83463 0.8199 0.23239 0.0
C1051 C 0.83125 0.76581 0.21949 0.0
C1052 C 0.84646 0.75998 0.23325 0.0
C1053 C 0.85544 0.78405 0.24593 0.0
C1054 C 0.76405 0.90538 0.2807 0.0
O1055 O 0.76482 0.88777 0.30652 0.0
O1056 O 0.80477 0.78573 0.17925 0.0
O1057 O 0.7988 0.81781 0.21884 0.0
H1058 H 0.71245 0.8941 0.23409 0.0
H1059 H 0.66773 0.86685 0.19045 0.0
H1060 H 0.70379 0.79955 0.20863 0.0
H1061 H 0.83035 0.84319 0.2316 0.0
H1062 H 0.82424 0.74718 0.20945 0.0
H1063 H 0.86736 0.77949 0.2556 0.0
C1064 C 0.57374 0.212 0.96869 0.0
C1065 C 0.58118 0.24124 0.97065 0.0
C1066 C 0.59679 0.24423 0.9844 0.0
C1067 C 0.60467 0.21802 0.99504 0.0
C1068 C 0.59787 0.18927 0.99167 0.0
C1069 C 0.58236 0.18617 0.97904 0.0
O1070 O 0.51584 0.24322 0.97182 0.0
Tb1071 Tb 0.52982 0.21875 0.93627 0.0
O1072 O 0.52898 0.25959 0.9062 0.0
O1073 O 0.51714 0.21063 0.0152 0.0
Eu1074 Eu 0.50947 0.16659 0.98908 0.0
O1075 O 0.55439 0.22211 0.92606 0.0
C1076 C 0.47813 0.16382 0.98839 0.0
O1077 O 0.54557 0.19724 0.96928 0.0
O1078 O 0.52016 0.1443 0.94384 0.0
O1079 O 0.51819 0.18372 0.90715 0.0
C1080 C 0.55814 0.20605 0.95205 0.0
C1081 C 0.52259 0.1157 0.04161 0.0
O1082 O 0.52799 0.1099 0.07109 0.0
C1083 C 0.51559 0.23836 0.00324 0.0
C1084 C 0.51885 0.15438 0.91363 0.0
O1085 O 0.52018 0.14451 0.03392 0.0
C1086 C 0.46262 0.1563 0.97158 0.0
C1087 C 0.43968 0.17375 0.93919 0.0
C1088 C 0.45533 0.17825 0.95107 0.0
C1089 C 0.4537 0.12976 0.98009 0.0
C1090 C 0.43811 0.12468 0.96721 0.0
C1091 C 0.43169 0.14648 0.94613 0.0
C1092 C 0.51571 0.27573 0.90415 0.0
O1093 O 0.50252 0.26621 0.91844 0.0
O1094 O 0.48718 0.1418 0.00012 0.0
O1095 O 0.4865 0.18738 0.97782 0.0
H1096 H 0.57508 0.26112 0.9612 0.0
H1097 H 0.61697 0.21957 0.00386 0.0
H1098 H 0.57733 0.16353 0.97573 0.0
H1099 H 0.4614 0.19955 0.94581 0.0
H1100 H 0.45866 0.11364 -0.00268 0.0
H1101 H 0.41966 0.14327 0.93654 0.0
C1102 C 0.21882 0.54907 0.97626 0.0
C1103 C 0.21121 0.52042 0.98159 0.0
C1104 C 0.19507 0.51938 0.99293 0.0
C1105 C 0.187 0.54687 -0.00193 0.0
C1106 C 0.19407 0.57475 0.99058 0.0
C1107 C 0.20998 0.57593 0.98033 0.0
O1108 O 0.27724 0.52036 0.98389 0.0
Tb1109 Tb 0.26359 0.54402 0.9464 0.0
O1110 O 0.26465 0.50251 0.91733 0.0
O1111 O 0.27548 0.55482 0.02565 0.0
Eu1112 Eu 0.28602 0.59539 -0.00096 0.0
O1113 O 0.23919 0.5378 0.9359 0.0
C1114 C 0.31689 0.59158 0.98892 0.0
O1115 O 0.24721 0.56286 0.98007 0.0
O1116 O 0.27191 0.61865 0.95973 0.0
O1117 O 0.27283 0.58293 0.9183 0.0
C1118 C 0.23506 0.55303 0.96221 0.0
C1119 C 0.27681 0.65143 0.04913 0.0
O1120 O 0.27441 0.66002 0.07948 0.0
C1121 C 0.27579 0.52658 0.01505 0.0
C1122 C 0.27131 0.61139 0.92857 0.0
O1123 O 0.28153 0.62304 0.0446 0.0
C1124 C 0.33157 0.60024 0.97014 0.0
C1125 C 0.35096 0.58855 0.92718 0.0
C1126 C 0.33587 0.58391 0.94167 0.0
C1127 C 0.34286 0.62105 0.9839 0.0
C1128 C 0.35798 0.62566 0.96918 0.0
C1129 C 0.36145 0.61035 0.94021 0.0
C1130 C 0.27805 0.48708 0.9139 0.0
O1131 O 0.29154 0.49827 0.92551 0.0
O1132 O 0.3103 0.6122 0.00791 0.0
O1133 O 0.30636 0.57243 0.97606 0.0
H1134 H 0.21756 0.49949 0.9764 0.0
H1135 H 0.17433 0.54656 0.00441 0.0
H1136 H 0.21518 0.59775 0.97361 0.0
H1137 H 0.328 0.56639 0.93195 0.0
H1138 H 0.34032 0.63213 0.00697 0.0
H1139 H 0.37311 0.61374 0.9289 0.0
C1140 C 0.573 0.55074 0.76617 0.0
C1141 C 0.58224 0.52371 0.77043 0.0
C1142 C 0.59728 0.52067 0.75448 0.0
C1143 C 0.60235 0.54375 0.73343 0.0
C1144 C 0.59458 0.57177 0.73276 0.0
C1145 C 0.57975 0.57505 0.74836 0.0
O1146 O 0.51408 0.52934 0.76011 0.0
Tb1147 Tb 0.52939 0.54545 0.79923 0.0
O1148 O 0.52805 0.49989 0.82002 0.0
O1149 O 0.51734 0.56248 0.71846 0.0
Eu1150 Eu 0.50582 0.59991 0.74988 0.0
O1151 O 0.55393 0.53984 0.80934 0.0
C1152 C 0.47506 0.59001 0.75723 0.0
O1153 O 0.54563 0.56897 0.76907 0.0
O1154 O 0.51701 0.61959 0.79653 0.0
O1155 O 0.51867 0.57866 0.83214 0.0
C1156 C 0.55806 0.55758 0.78488 0.0
C1157 C 0.52034 0.65879 0.71112 0.0
O1158 O 0.53179 0.64089 0.7004 0.0
C1159 C 0.5175 0.53419 0.72937 0.0
C1160 C 0.51745 0.60821 0.82647 0.0
O1161 O 0.5085 0.64747 0.72888 0.0
C1162 C 0.4593 0.60036 0.77068 0.0
C1163 C 0.43394 0.58614 0.79665 0.0
C1164 C 0.44946 0.57845 0.7863 0.0
C1165 C 0.4528 0.62973 0.76413 0.0
C1166 C 0.43728 0.63757 0.77555 0.0
C1167 C 0.42864 0.61606 0.79347 0.0
C1168 C 0.51459 0.48831 0.8314 0.0
O1169 O 0.50149 0.50487 0.83172 0.0
O1170 O 0.48125 0.60491 0.73241 0.0
O1171 O 0.486 0.57923 0.77743 0.0
H1172 H 0.5783 0.50626 0.78729 0.0
H1173 H 0.61406 0.54189 0.72191 0.0
H1174 H 0.57407 0.59725 0.74865 0.0
H1175 H 0.45351 0.55511 0.78863 0.0
H1176 H 0.45948 0.64592 0.74949 0.0
H1177 H 0.41652 0.62138 0.80143 0.0
C1178 C 0.21628 0.22229 0.76732 0.0
C1179 C 0.20781 0.2498 0.76178 0.0
C1180 C 0.19138 0.2489 0.75359 0.0
C1181 C 0.18357 0.22088 0.7518 0.0
C1182 C 0.19186 0.19366 0.75571 0.0
C1183 C 0.20824 0.19412 0.76369 0.0
O1184 O 0.27753 0.23781 0.75691 0.0
Tb1185 Tb 0.26194 0.21827 0.79457 0.0
O1186 O 0.26788 0.25546 0.82806 0.0
O1187 O 0.27803 0.19989 0.71964 0.0
Eu1188 Eu 0.29262 0.16997 0.75319 0.0
O1189 O 0.23916 0.23893 0.80117 0.0
C1190 C 0.32342 0.1771 0.74629 0.0
O1191 O 0.24373 0.20425 0.76278 0.0
O1192 O 0.28912 0.15641 0.80582 0.0
O1193 O 0.26476 0.17641 0.82392 0.0
C1194 C 0.23348 0.22326 0.77635 0.0
C1195 C 0.26913 0.11708 0.73946 0.0
O1196 O 0.25913 0.13802 0.74992 0.0
C1197 C 0.27618 0.22883 0.72649 0.0
C1198 C 0.27679 0.1568 0.82597 0.0
O1199 O 0.28426 0.12444 0.73535 0.0
C1200 C 0.33863 0.17007 0.76402 0.0
C1201 C 0.36056 0.18784 0.79881 0.0
C1202 C 0.34603 0.19332 0.78274 0.0
C1203 C 0.34633 0.14123 0.76136 0.0
C1204 C 0.36089 0.13576 0.77809 0.0
C1205 C 0.36772 0.15932 0.79648 0.0
C1206 C 0.26846 0.28352 0.81655 0.0
O1207 O 0.26553 0.28797 0.78542 0.0
O1208 O 0.31541 0.15437 0.73292 0.0
O1209 O 0.314 0.19779 0.75955 0.0
H1210 H 0.21403 0.27151 0.76305 0.0
H1211 H 0.1709 0.22018 0.74535 0.0
H1212 H 0.21464 0.17287 0.76689 0.0
H1213 H 0.34068 0.21573 0.78448 0.0
H1214 H 0.34106 0.12326 0.74664 0.0
H1215 H 0.37916 0.15579 0.80866 0.0
H1216 H 0.85701 0.39324 0.02663 0.0
H1217 H 0.8671 0.44647 0.93998 0.0
H1218 H 0.89321 0.42093 0.93414 0.0
H1219 H 0.8922 0.39142 0.0621 0.0
H1220 H 0.89341 0.35179 0.07334 0.0
H1221 H 0.87411 0.36934 0.068 0.0
H1222 H 0.86581 0.32923 0.02467 0.0
H1223 H 0.88475 0.31038 0.03117 0.0
H1224 H 0.87894 0.3218 0.99067 0.0
H1225 H 0.92033 0.39747 0.94441 0.0
H1226 H 0.94348 0.36494 0.95988 0.0
H1227 H 0.91515 0.32548 0.03777 0.0
C1228 C 0.8643 0.39824 0.00543 0.0
C1229 C 0.86024 0.42232 0.98425 0.0
C1230 C 0.87013 0.4283 0.95675 0.0
C1231 C 0.88506 0.41415 0.95338 0.0
C1232 C 0.88949 0.39278 0.97663 0.0
C1233 C 0.87904 0.38341 0.00092 0.0
C1234 C 0.88677 0.3595 0.02232 0.0
C1235 C 0.88661 0.36861 0.05858 0.0
C1236 C 0.87858 0.32839 0.01689 0.0
C1237 C 0.90363 0.35956 0.00849 0.0
C1238 C 0.90493 0.37851 0.98181 0.0
C1239 C 0.9194 0.38209 0.96494 0.0
C1240 C 0.93257 0.36411 0.97422 0.0
C1241 C 0.93108 0.34322 0.00021 0.0
C1242 C 0.91663 0.34185 0.01823 0.0
H1243 H 0.3642 0.90941 0.95136 0.0
H1244 H 0.35529 0.91799 0.05519 0.0
H1245 H 0.38176 0.89576 0.06693 0.0
H1246 H 0.38653 0.83406 0.96004 0.0
H1247 H 0.39961 0.84355 0.92654 0.0
H1248 H 0.37925 0.85728 0.92696 0.0
H1249 H 0.39031 0.91214 0.92005 0.0
H1250 H 0.41073 0.89882 0.92158 0.0
H1251 H 0.40402 0.92742 0.95006 0.0
H1252 H 0.41051 0.88193 0.06738 0.0
H1253 H 0.43671 0.85773 0.05812 0.0
H1254 H 0.42666 0.85292 0.95432 0.0
C1255 C 0.36754 0.90507 0.97647 0.0
C1256 C 0.35773 0.91507 0.00243 0.0
C1257 C 0.36254 0.90984 0.03507 0.0
C1258 C 0.37768 0.89782 0.04196 0.0
C1259 C 0.38759 0.89032 0.01589 0.0
C1260 C 0.38246 0.89207 0.98386 0.0
C1261 C 0.39542 0.8812 0.96066 0.0
C1262 C 0.38988 0.8523 0.94249 0.0
C1263 C 0.40041 0.90641 0.93668 0.0
C1264 C 0.40879 0.87427 0.98469 0.0
C1265 C 0.40406 0.88043 0.01631 0.0
C1266 C 0.4143 0.87646 0.04281 0.0
C1267 C 0.42931 0.86332 0.03721 0.0
C1268 C 0.43373 0.85364 0.0055 0.0
C1269 C 0.42366 0.86058 0.9787 0.0
H1270 H 0.86067 0.864 0.21506 0.0
H1271 H 0.86395 0.81437 0.30607 0.0
H1272 H 0.89002 0.83887 0.31786 0.0
H1273 H 0.8977 0.85827 0.18963 0.0
H1274 H 0.90113 0.89645 0.17494 0.0
H1275 H 0.88104 0.88147 0.1766 0.0
H1276 H 0.87142 0.92589 0.21365 0.0
H1277 H 0.89117 0.9422 0.20924 0.0
H1278 H 0.88297 0.93572 0.24937 0.0
H1279 H 0.91762 0.86226 0.31528 0.0
H1280 H 0.94239 0.89216 0.30372 0.0
H1281 H 0.92133 0.92333 0.21312 0.0
C1282 C 0.86643 0.85976 0.23831 0.0
C1283 C 0.86043 0.83736 0.25961 0.0
C1284 C 0.86841 0.83173 0.2896 0.0
C1285 C 0.88329 0.84525 0.29633 0.0
C1286 C 0.88968 0.86507 0.27332 0.0
C1287 C 0.88121 0.87339 0.24561 0.0
C1288 C 0.89107 0.89428 0.22423 0.0
C1289 C 0.89283 0.88182 0.1893 0.0
C1290 C 0.88374 0.92643 0.22414 0.0
C1291 C 0.90684 0.89378 0.24255 0.0
C1292 C 0.90572 0.87758 0.27129 0.0
C1293 C 0.91865 0.87518 0.29292 0.0
C1294 C 0.93276 0.89156 0.28595 0.0
C1295 C 0.93382 0.90898 0.25714 0.0
C1296 C 0.92096 0.90904 0.23466 0.0
H1297 H 0.36042 0.36594 0.21788 0.0
H1298 H 0.36262 0.31745 0.30971 0.0
H1299 H 0.38946 0.33922 0.32052 0.0
H1300 H 0.39798 0.3571 0.19226 0.0
H1301 H 0.40188 0.39499 0.1772 0.0
H1302 H 0.3816 0.38083 0.17885 0.0
H1303 H 0.37239 0.42588 0.21522 0.0
H1304 H 0.39227 0.44137 0.21061 0.0
H1305 H 0.38397 0.43569 0.25087 0.0
H1306 H 0.41768 0.35959 0.31716 0.0
H1307 H 0.44255 0.38948 0.30723 0.0
H1308 H 0.42222 0.42319 0.21701 0.0
C1309 C 0.36615 0.36142 0.24111 0.0
C1310 C 0.35949 0.34011 0.263 0.0
C1311 C 0.36749 0.33412 0.29289 0.0
C1312 C 0.38286 0.34591 0.29895 0.0
C1313 C 0.38981 0.36448 0.27536 0.0
C1314 C 0.38144 0.37343 0.24779 0.0
C1315 C 0.3917 0.3937 0.22638 0.0
C1316 C 0.39338 0.38083 0.19163 0.0
C1317 C 0.3847 0.42609 0.22577 0.0
C1318 C 0.40749 0.39263 0.2449 0.0
C1319 C 0.4061 0.37599 0.27331 0.0
C1320 C 0.41892 0.37286 0.29508 0.0
C1321 C 0.43314 0.38923 0.28896 0.0
C1322 C 0.43442 0.40776 0.26098 0.0
C1323 C 0.42174 0.40813 0.23792 0.0
H1324 H 0.17795 0.60652 0.03717 0.0
H1325 H 0.18446 0.59686 0.93281 0.0
H1326 H 0.15825 0.62142 0.92325 0.0
H1327 H 0.13829 0.58934 0.04059 0.0
H1328 H 0.13233 0.61727 0.07049 0.0
H1329 H 0.15264 0.60332 0.07008 0.0
H1330 H 0.16413 0.65805 0.06401 0.0
H1331 H 0.14392 0.67232 0.06668 0.0
H1332 H 0.15638 0.6825 0.03242 0.0
H1333 H 0.12981 0.63787 0.92555 0.0
H1334 H 0.10409 0.66298 0.93803 0.0
H1335 H 0.11654 0.66497 0.04075 0.0
C1336 C 0.17421 0.61126 0.01237 0.0
C1337 C 0.18315 0.60037 0.98565 0.0
C1338 C 0.17783 0.60583 0.95343 0.0
C1339 C 0.16286 0.61915 0.94783 0.0
C1340 C 0.15369 0.62735 0.97479 0.0
C1341 C 0.15944 0.62506 0.00635 0.0
C1342 C 0.1471 0.63564 0.03092 0.0
C1343 C 0.14231 0.60985 0.05439 0.0
C1344 C 0.15325 0.66381 0.0496 0.0
C1345 C 0.13341 0.64356 0.00822 0.0
C1346 C 0.13736 0.63787 0.97604 0.0
C1347 C 0.12662 0.64286 0.95058 0.0
C1348 C 0.11193 0.65649 0.95796 0.0
C1349 C 0.10841 0.66547 0.99034 0.0
C1350 C 0.11891 0.65765 0.01596 0.0
H1351 H 0.68007 0.10929 0.95457 0.0
H1352 H 0.68097 0.08018 0.05541 0.0
H1353 H 0.65505 0.10605 0.0651 0.0
H1354 H 0.65878 0.18448 0.96932 0.0
H1355 H 0.64794 0.18039 0.93146 0.0
H1356 H 0.6679 0.16507 0.93528 0.0
H1357 H 0.65669 0.11256 0.91703 0.0
H1358 H 0.63656 0.12722 0.91507 0.0
H1359 H 0.64092 0.09477 0.94045 0.0
H1360 H 0.62744 0.1294 0.06167 0.0
H1361 H 0.60248 0.15727 0.04778 0.0
H1362 H 0.61908 0.16755 0.94838 0.0
C1363 C 0.67525 0.10998 0.97911 0.0
C1364 C 0.68259 0.09343 0.00448 0.0
C1365 C 0.67565 0.09349 0.03599 0.0
C1366 C 0.66083 0.10768 0.04153 0.0
C1367 C 0.65323 0.12172 0.01528 0.0
C1368 C 0.66042 0.12378 0.98492 0.0
C1369 C 0.64933 0.13847 0.9603 0.0
C1370 C 0.65641 0.16891 0.9484 0.0
C1371 C 0.64567 0.11695 0.93153 0.0
C1372 C 0.63462 0.14336 0.98123 0.0
C1373 C 0.6371 0.13374 0.01292 0.0
C1374 C 0.62534 0.13697 0.03692 0.0
C1375 C 0.61108 0.15219 0.02875 0.0
C1376 C 0.60872 0.16342 -0.00318 0.0
C1377 C 0.62038 0.15796 0.97259 0.0
H1378 H 0.17637 0.15825 0.79973 0.0
H1379 H 0.18486 0.17068 0.69645 0.0
H1380 H 0.15953 0.14369 0.68382 0.0
H1381 H 0.15554 0.0803 0.78996 0.0
H1382 H 0.14243 0.08894 0.82367 0.0
H1383 H 0.16267 0.10364 0.82324 0.0
H1384 H 0.15102 0.15785 0.83104 0.0
H1385 H 0.13075 0.14365 0.82928 0.0
H1386 H 0.1372 0.17277 0.80118 0.0
H1387 H 0.13144 0.12281 0.68296 0.0
H1388 H 0.1055 0.09676 0.69351 0.0
H1389 H 0.11511 0.09954 0.7973 0.0
C1390 C 0.17339 0.1534 0.7745 0.0
C1391 C 0.18264 0.1658 0.749 0.0
C1392 C 0.17811 0.16038 0.71618 0.0
C1393 C 0.16359 0.14568 0.70884 0.0
C1394 C 0.154 0.13606 0.73465 0.0
C1395 C 0.159 0.13847 0.76678 0.0
C1396 C 0.14621 0.12703 0.78996 0.0
C1397 C 0.15205 0.09827 0.80775 0.0
C1398 C 0.141 0.15183 0.81428 0.0
C1399 C 0.13293 0.11955 0.76599 0.0
C1400 C 0.13767 0.12476 0.73419 0.0
C1401 C 0.1276 0.11852 0.70775 0.0
C1402 C 0.11277 0.1044 0.71392 0.0
C1403 C 0.10821 0.0972 0.7462 0.0
C1404 C 0.11809 0.10606 0.77254 0.0
H1405 H 0.67454 0.6539 0.77787 0.0
H1406 H 0.68191 0.67161 0.67515 0.0
H1407 H 0.65571 0.64724 0.66248 0.0
H1408 H 0.65134 0.58099 0.76968 0.0
H1409 H 0.63869 0.59148 0.8035 0.0
H1410 H 0.65921 0.60445 0.80218 0.0
H1411 H 0.64881 0.65974 0.80891 0.0
H1412 H 0.62822 0.64708 0.80793 0.0
H1413 H 0.63515 0.67511 0.77904 0.0
H1414 H 0.6278 0.62368 0.66202 0.0
H1415 H 0.60224 0.59642 0.67336 0.0
H1416 H 0.61204 0.60174 0.77693 0.0
C1417 C 0.67103 0.65094 0.75258 0.0
C1418 C 0.6804 0.66345 0.72727 0.0
C1419 C 0.6751 0.66099 0.69458 0.0
C1420 C 0.66012 0.64777 0.68732 0.0
C1421 C 0.6506 0.63768 0.71315 0.0
C1422 C 0.65599 0.63863 0.74509 0.0
C1423 C 0.6431 0.62846 0.76867 0.0
C1424 C 0.6484 0.59963 0.78707 0.0
C1425 C 0.63856 0.65414 0.79253 0.0
C1426 C 0.62957 0.62172 0.74505 0.0
C1427 C 0.63411 0.62699 0.71312 0.0
C1428 C 0.62402 0.61982 0.68693 0.0
C1429 C 0.60941 0.60491 0.69352 0.0
C1430 C 0.60501 0.59811 0.72599 0.0
C1431 C 0.61484 0.60804 0.752 0.0
H1432 H 0.93562 0.874 0.52769 0.0
H1433 H 0.92381 0.81856 0.44338 0.0
H1434 H 0.8977 0.84432 0.43856 0.0
H1435 H 0.90192 0.87564 0.56586 0.0
H1436 H 0.90037 0.91533 0.57684 0.0
H1437 H 0.91977 0.89882 0.5697 0.0
H1438 H 0.92637 0.93856 0.52506 0.0
H1439 H 0.9074 0.95662 0.53347 0.0
H1440 H 0.91223 0.94495 0.49249 0.0
H1441 H 0.87076 0.86697 0.45119 0.0
H1442 H 0.84772 0.89873 0.46856 0.0
H1443 H 0.87745 0.94013 0.54347 0.0
C1444 C 0.92799 0.86875 0.50699 0.0
C1445 C 0.93151 0.84399 0.48632 0.0
C1446 C 0.9212 0.83746 0.45956 0.0
C1447 C 0.90626 0.85168 0.45687 0.0
C1448 C 0.90229 0.87355 0.48001 0.0
C1449 C 0.91322 0.88354 0.50325 0.0
C1450 C 0.90578 0.90731 0.52528 0.0
C1451 C 0.90704 0.8987 0.56156 0.0
C1452 C 0.91339 0.93872 0.51869 0.0
C1453 C 0.88859 0.90625 0.5133 0.0
C1454 C 0.88685 0.8871 0.48678 0.0
C1455 C 0.87202 0.88254 0.47154 0.0
C1456 C 0.85891 0.90001 0.48204 0.0
C1457 C 0.86083 0.92142 0.50755 0.0
C1458 C 0.87563 0.92338 0.52434 0.0
H1459 H 0.3651 0.40654 0.46126 0.0
H1460 H 0.3582 0.4216 0.56481 0.0
H1461 H 0.38465 0.39875 0.57621 0.0
H1462 H 0.38635 0.33179 0.47213 0.0
H1463 H 0.39889 0.33905 0.43716 0.0
H1464 H 0.37883 0.35417 0.43862 0.0
H1465 H 0.39074 0.40793 0.42827 0.0
H1466 H 0.41091 0.39323 0.42879 0.0
H1467 H 0.40532 0.42343 0.4564 0.0
H1468 H 0.41261 0.37938 0.57592 0.0
H1469 H 0.43723 0.34956 0.5658 0.0
H1470 H 0.42608 0.34724 0.46251 0.0
C1471 C 0.3689 0.40359 0.48635 0.0
C1472 C 0.35968 0.41522 0.51227 0.0
C1473 C 0.36504 0.41196 0.54483 0.0
C1474 C 0.38015 0.39968 0.55144 0.0
C1475 C 0.38949 0.39037 0.52518 0.0
C1476 C 0.38383 0.39086 0.49344 0.0
C1477 C 0.3961 0.37831 0.46988 0.0
C1478 C 0.38967 0.3491 0.4535 0.0
C1479 C 0.40106 0.40217 0.44434 0.0
C1480 C 0.40969 0.37155 0.49332 0.0
C1481 C 0.4057 0.37904 0.52504 0.0
C1482 C 0.41593 0.3733 0.55124 0.0
C1483 C 0.43003 0.35694 0.54526 0.0
C1484 C 0.43349 0.34649 0.51345 0.0
C1485 C 0.4238 0.35568 0.48693 0.0
H1486 H 0.8617 0.36115 0.79161 0.0
H1487 H 0.85697 0.3412 0.68836 0.0
H1488 H 0.88385 0.36272 0.67845 0.0
H1489 H 0.88415 0.43561 0.77764 0.0
H1490 H 0.8959 0.43023 0.81412 0.0
H1491 H 0.87567 0.41564 0.81199 0.0
H1492 H 0.88666 0.36228 0.8272 0.0
H1493 H 0.90701 0.37635 0.82745 0.0
H1494 H 0.90158 0.34469 0.80154 0.0
H1495 H 0.9124 0.37821 0.68088 0.0
H1496 H 0.93787 0.4051 0.69132 0.0
H1497 H 0.92384 0.4195 0.79208 0.0
C1498 C 0.86603 0.36285 0.76677 0.0
C1499 C 0.85725 0.34992 0.74065 0.0
C1500 C 0.86339 0.35169 0.70851 0.0
C1501 C 0.87878 0.36324 0.70275 0.0
C1502 C 0.88762 0.37377 0.72928 0.0
C1503 C 0.88123 0.37531 0.76035 0.0
C1504 C 0.8932 0.3891 0.78412 0.0
C1505 C 0.88685 0.41945 0.79776 0.0
C1506 C 0.89735 0.36676 0.8117 0.0
C1507 C 0.90742 0.3941 0.76166 0.0
C1508 C 0.90401 0.38437 0.73033 0.0
C1509 C 0.91517 0.38638 0.70519 0.0
C1510 C 0.92975 0.40115 0.71152 0.0
C1511 C 0.93281 0.41422 0.74252 0.0
C1512 C 0.92185 0.4093 0.76832 0.0
H1513 H 0.36445 0.85368 0.79432 0.0
H1514 H 0.35303 0.84284 0.69163 0.0
H1515 H 0.37896 0.86583 0.67678 0.0
H1516 H 0.38564 0.92919 0.78254 0.0
H1517 H 0.39973 0.92076 0.81468 0.0
H1518 H 0.37957 0.90585 0.81655 0.0
H1519 H 0.39147 0.85164 0.82266 0.0
H1520 H 0.41163 0.86618 0.81894 0.0
H1521 H 0.40457 0.83696 0.7914 0.0
H1522 H 0.40718 0.88197 0.67299 0.0
H1523 H 0.43324 0.90833 0.67948 0.0
H1524 H 0.42589 0.91271 0.78407 0.0
C1525 C 0.36715 0.85764 0.76882 0.0
C1526 C 0.35681 0.84697 0.74407 0.0
C1527 C 0.36073 0.85164 0.71084 0.0
C1528 C 0.37553 0.86404 0.70217 0.0
C1529 C 0.38599 0.87233 0.72709 0.0
C1530 C 0.38173 0.87086 0.75966 0.0
C1531 C 0.3951 0.88258 0.78136 0.0
C1532 C 0.38969 0.91131 0.79986 0.0
C1533 C 0.40104 0.85785 0.80497 0.0
C1534 C 0.40763 0.88996 0.75582 0.0
C1535 C 0.40221 0.88313 0.72477 0.0
C1536 C 0.41156 0.88783 0.69708 0.0
C1537 C 0.42641 0.90223 0.701 0.0
C1538 C 0.43143 0.91204 0.73223 0.0
C1539 C 0.42231 0.90472 0.7601 0.0
H1540 H 0.11662 0.16994 0.53017 0.0
H1541 H 0.09982 0.15498 0.43125 0.0
H1542 H 0.12357 0.12317 0.42012 0.0
H1543 H 0.15561 0.18128 0.51138 0.0
H1544 H 0.16455 0.16207 0.54571 0.0
H1545 H 0.14478 0.17822 0.54931 0.0
H1546 H 0.13269 0.12617 0.56625 0.0
H1547 H 0.15258 0.11024 0.56469 0.0
H1548 H 0.13653 0.09297 0.54151 0.0
H1549 H 0.15125 0.10337 0.4161 0.0
H1550 H 0.17811 0.08104 0.42434 0.0
H1551 H 0.17687 0.10725 0.5263 0.0
C1552 C 0.11757 0.15854 0.50678 0.0
C1553 C 0.1065 0.16468 0.48149 0.0
C1554 C 0.10811 0.15009 0.45094 0.0
C1555 C 0.12168 0.13246 0.44428 0.0
C1556 C 0.13322 0.12943 0.46869 0.0
C1557 C 0.13102 0.14089 0.49979 0.0
C1558 C 0.14569 0.13576 0.52099 0.0
C1559 C 0.15308 0.16614 0.53251 0.0
C1560 C 0.14163 0.11503 0.55006 0.0
C1561 C 0.15653 0.12001 0.49671 0.0
C1562 C 0.1492 0.11725 0.46655 0.0
C1563 C 0.15704 0.10486 0.43971 0.0
C1564 C 0.17238 0.09288 0.4444 0.0
C1565 C 0.17948 0.09301 0.47574 0.0
C1566 C 0.17173 0.10757 0.502 0.0
H1567 H 0.61506 0.65346 0.44881 0.0
H1568 H 0.61179 0.67815 0.5509 0.0
H1569 H 0.63788 0.6532 0.56155 0.0
H1570 H 0.63651 0.57888 0.46148 0.0
H1571 H 0.6481 0.5847 0.42489 0.0
H1572 H 0.62804 0.59965 0.42772 0.0
H1573 H 0.63944 0.653 0.41332 0.0
H1574 H 0.65966 0.63861 0.41246 0.0
H1575 H 0.65464 0.66991 0.43908 0.0
H1576 H 0.66545 0.63063 0.55961 0.0
H1577 H 0.69036 0.60216 0.54728 0.0
H1578 H 0.67621 0.59581 0.44582 0.0
C1579 C 0.61948 0.65208 0.47364 0.0
C1580 C 0.61144 0.66695 0.49924 0.0
C1581 C 0.61774 0.66605 0.5313 0.0
C1582 C 0.63261 0.65242 0.5374 0.0
C1583 C 0.64088 0.63995 0.5111 0.0
C1584 C 0.63435 0.63882 0.48005 0.0
C1585 C 0.64598 0.62532 0.45579 0.0
C1586 C 0.63927 0.59536 0.44166 0.0
C1587 C 0.65017 0.64809 0.42857 0.0
C1588 C 0.66023 0.61977 0.47788 0.0
C1589 C 0.65706 0.62834 0.50969 0.0
C1590 C 0.66814 0.62397 0.53478 0.0
C1591 C 0.68238 0.60845 0.52752 0.0
C1592 C 0.68531 0.59794 0.49549 0.0
C1593 C 0.67448 0.60491 0.47017 0.0
H1594 H 0.17705 0.65969 0.19748 0.0
H1595 H 0.19033 0.65128 0.29943 0.0
H1596 H 0.16441 0.62673 0.31102 0.0
H1597 H 0.1383 0.67884 0.20743 0.0
H1598 H 0.12945 0.65638 0.17515 0.0
H1599 H 0.15009 0.66845 0.17226 0.0
H1600 H 0.15976 0.61271 0.16576 0.0
H1601 H 0.13906 0.6006 0.16653 0.0
H1602 H 0.15327 0.58439 0.19477 0.0
H1603 H 0.13538 0.61437 0.31398 0.0
H1604 H 0.10789 0.59542 0.30527 0.0
H1605 H 0.11344 0.6073 0.2008 0.0
C1606 C 0.17487 0.65091 0.22176 0.0
C1607 C 0.18575 0.65723 0.24751 0.0
C1608 C 0.18234 0.64619 0.27922 0.0
C1609 C 0.16748 0.63279 0.2862 0.0
C1610 C 0.1564 0.62965 0.26096 0.0
C1611 C 0.16018 0.63676 0.22904 0.0
C1612 C 0.14591 0.63106 0.20668 0.0
C1613 C 0.14063 0.66044 0.18937 0.0
C1614 C 0.14973 0.60567 0.18198 0.0
C1615 C 0.13343 0.62076 0.23126 0.0
C1616 C 0.1397 0.6208 0.26248 0.0
C1617 C 0.13042 0.61354 0.28957 0.0
C1618 C 0.11466 0.60347 0.28442 0.0
C1619 C 0.10848 0.60008 0.25237 0.0
C1620 C 0.11778 0.61008 0.22555 0.0
H1621 H 0.61584 0.10317 0.30334 0.0
H1622 H 0.60488 0.09708 0.20026 0.0
H1623 H 0.62992 0.12474 0.18733 0.0
H1624 H 0.63642 0.18153 0.29777 0.0
H1625 H 0.65035 0.1708 0.32938 0.0
H1626 H 0.63014 0.15601 0.32976 0.0
H1627 H 0.64199 0.10153 0.33208 0.0
H1628 H 0.6622 0.11596 0.32942 0.0
H1629 H 0.65503 0.08871 0.29977 0.0
H1630 H 0.65799 0.14434 0.18534 0.0
H1631 H 0.68419 0.16964 0.19494 0.0
H1632 H 0.6769 0.16294 0.29929 0.0
C1633 C 0.61823 0.10957 0.27829 0.0
C1634 C 0.60843 0.0987 0.25275 0.0
C1635 C 0.61212 0.10616 0.22004 0.0
C1636 C 0.62645 0.12124 0.21249 0.0
C1637 C 0.63665 0.1292 0.23808 0.0
C1638 C 0.6324 0.12497 0.27039 0.0
C1639 C 0.64575 0.13501 0.29314 0.0
C1640 C 0.64035 0.16247 0.31372 0.0
C1641 C 0.65157 0.10872 0.31487 0.0
C1642 C 0.65841 0.14406 0.26853 0.0
C1643 C 0.65293 0.1404 0.23691 0.0
C1644 C 0.66239 0.14761 0.20997 0.0
C1645 C 0.67735 0.16129 0.21558 0.0
C1646 C 0.68258 0.16742 0.24778 0.0
C1647 C 0.67335 0.15745 0.27451 0.0
H1648 H 0.17496 0.50253 0.04249 0.0
H1649 H 0.19082 0.47496 0.94624 0.0
H1650 H 0.16731 0.44029 0.94184 0.0
H1651 H 0.15722 0.43046 0.06961 0.0
H1652 H 0.14077 0.44957 0.08948 0.0
H1653 H 0.15992 0.46838 0.08579 0.0
H1654 H 0.14565 0.51375 0.05772 0.0
H1655 H 0.12657 0.49437 0.06005 0.0
H1656 H 0.13408 0.50716 0.02117 0.0
H1657 H 0.14031 0.41214 0.94629 0.0
H1658 H 0.1156 0.3852 0.96375 0.0
H1659 H 0.1169 0.43358 0.05585 0.0
C1660 C 0.17383 0.48832 0.02095 0.0
C1661 C 0.18491 0.49125 0.99482 0.0
C1662 C 0.18276 0.4727 0.96683 0.0
C1663 C 0.16923 0.45341 0.96389 0.0
C1664 C 0.1579 0.45303 0.98907 0.0
C1665 C 0.16027 0.46959 0.01737 0.0
C1666 C 0.14606 0.46644 0.04033 0.0
C1667 C 0.15131 0.45288 0.07324 0.0
C1668 C 0.1376 0.49726 0.04509 0.0
C1669 C 0.13552 0.44455 0.02113 0.0
C1670 C 0.14236 0.43761 0.99129 0.0
C1671 C 0.13487 0.41752 0.96956 0.0
C1672 C 0.12064 0.40273 0.9794 0.0
C1673 C 0.11409 0.4078 0.0108 0.0
C1674 C 0.12135 0.42993 0.03132 0.0
H1675 H 0.17518 0.84222 0.03744 0.0
H1676 H 0.17144 0.88863 0.94467 0.0
H1677 H 0.14702 0.85845 0.93147 0.0
H1678 H 0.16002 0.76621 0.00538 0.0
H1679 H 0.14999 0.75776 0.04325 0.0
H1680 H 0.16814 0.78026 0.04336 0.0
H1681 H 0.1531 0.82247 0.07461 0.0
H1682 H 0.13491 0.80043 0.07372 0.0
H1683 H 0.13491 0.83834 0.05713 0.0
H1684 H 0.12095 0.82621 0.93121 0.0
H1685 H 0.09876 0.78923 0.94013 0.0
H1686 H 0.11916 0.76644 0.03433 0.0
C1687 C 0.16964 0.84496 0.01368 0.0
C1688 C 0.17554 0.86718 0.99155 0.0
C1689 C 0.16751 0.87105 0.96139 0.0
C1690 C 0.15346 0.85431 0.95398 0.0
C1691 C 0.14757 0.83354 0.97689 0.0
C1692 C 0.1557 0.8282 0.00581 0.0
C1693 C 0.14683 0.80475 0.02638 0.0
C1694 C 0.15683 0.77551 0.02977 0.0
C1695 C 0.14219 0.81735 0.05998 0.0
C1696 C 0.13203 0.79927 0.00558 0.0
C1697 C 0.1327 0.8156 0.97688 0.0
C1698 C 0.1204 0.81329 0.95364 0.0
C1699 C 0.10762 0.79265 0.95918 0.0
C1700 C 0.10707 0.7748 0.98795 0.0
C1701 C 0.11915 0.77954 0.01196 0.0
H1702 H 0.14236 0.88945 0.24552 0.0
H1703 H 0.10042 0.83131 0.25987 0.0
H1704 H 0.1183 0.78984 0.27683 0.0
H1705 H 0.16284 0.83323 0.20259 0.0
H1706 H 0.1827 0.84343 0.21654 0.0
H1707 H 0.16739 0.87202 0.21415 0.0
H1708 H 0.17075 0.88636 0.27418 0.0
H1709 H 0.18667 0.85883 0.27771 0.0
H1710 H 0.16973 0.8572 0.30503 0.0
H1711 H 0.14074 0.7537 0.28943 0.0
H1712 H 0.16521 0.72266 0.28704 0.0
H1713 H 0.19237 0.80055 0.25214 0.0
C1714 C 0.13663 0.86815 0.25181 0.0
C1715 C 0.11961 0.8643 0.25096 0.0
C1716 C 0.11319 0.83578 0.26091 0.0
C1717 C 0.12333 0.81178 0.27038 0.0
C1718 C 0.13994 0.81621 0.2692 0.0
C1719 C 0.14654 0.84351 0.2595 0.0
C1720 C 0.16466 0.84104 0.25542 0.0
C1721 C 0.16968 0.84777 0.22004 0.0
C1722 C 0.17347 0.86211 0.27954 0.0
C1723 C 0.16725 0.80785 0.26397 0.0
C1724 C 0.15286 0.79437 0.27297 0.0
C1725 C 0.15201 0.76399 0.28215 0.0
C1726 C 0.16602 0.7466 0.28074 0.0
C1727 C 0.18068 0.75907 0.26887 0.0
C1728 C 0.18142 0.79044 0.2614 0.0
H1729 H 0.182 0.44447 0.22331 0.0
H1730 H 0.16149 0.35962 0.25756 0.0
H1731 H 0.13542 0.38503 0.2666 0.0
H1732 H 0.15991 0.49481 0.2812 0.0
H1733 H 0.15775 0.52427 0.25093 0.0
H1734 H 0.17488 0.49938 0.24981 0.0
H1735 H 0.1677 0.48545 0.18992 0.0
H1736 H 0.15024 0.50948 0.19151 0.0
H1737 H 0.14814 0.46982 0.18081 0.0
H1738 H 0.1103 0.41887 0.26461 0.0
H1739 H 0.09015 0.46001 0.26162 0.0
H1740 H 0.12863 0.52331 0.23637 0.0
C1741 C 0.17226 0.4317 0.23427 0.0
C1742 C 0.17391 0.4003 0.24075 0.0
C1743 C 0.1606 0.38395 0.25354 0.0
C1744 C 0.14567 0.39807 0.25823 0.0
C1745 C 0.14421 0.4288 0.2505 0.0
C1746 C 0.15729 0.44564 0.23973 0.0
C1747 C 0.15248 0.47824 0.23294 0.0
C1748 C 0.1618 0.50048 0.25505 0.0
C1749 C 0.15478 0.48619 0.19665 0.0
C1750 C 0.1348 0.47703 0.24173 0.0
C1751 C 0.13006 0.44828 0.25096 0.0
C1752 C 0.11398 0.44172 0.25807 0.0
C1753 C 0.10256 0.46541 0.25641 0.0
C1754 C 0.10727 0.49559 0.24831 0.0
C1755 C 0.12383 0.50092 0.24125 0.0
H1756 H 0.86262 0.52412 0.95547 0.0
H1757 H 0.85081 0.54371 0.05622 0.0
H1758 H 0.87376 0.57998 0.05894 0.0
H1759 H 0.90269 0.51424 0.97591 0.0
H1760 H 0.91051 0.52632 0.93703 0.0
H1761 H 0.8908 0.50947 0.9395 0.0
H1762 H 0.878 0.55684 0.91223 0.0
H1763 H 0.89775 0.57309 0.90815 0.0
H1764 H 0.88217 0.59423 0.92856 0.0
H1765 H 0.90041 0.61004 0.05127 0.0
H1766 H 0.92576 0.63409 0.03259 0.0
H1767 H 0.92247 0.58407 0.94164 0.0
C1768 C 0.86442 0.53707 0.97774 0.0
C1769 C 0.85488 0.53112 0.00564 0.0
C1770 C 0.85778 0.54813 0.03444 0.0
C1771 C 0.87101 0.56832 0.03632 0.0
C1772 C 0.88136 0.57048 0.0095 0.0
C1773 C 0.87811 0.55521 0.98072 0.0
C1774 C 0.89216 0.55665 0.95734 0.0
C1775 C 0.89946 0.52479 0.95214 0.0
C1776 C 0.88722 0.5711 0.92466 0.0
C1777 C 0.90354 0.5768 0.97647 0.0
C1778 C 0.89722 0.58449 0.00658 0.0
C1779 C 0.90549 0.60385 0.02789 0.0
C1780 C 0.92007 0.61696 0.01738 0.0
C1781 C 0.92627 0.6105 0.98595 0.0
C1782 C 0.91821 0.58895 0.96607 0.0
H1783 H 0.92417 0.24438 0.95294 0.0
H1784 H 0.94132 0.21554 0.04791 0.0
H1785 H 0.9186 0.1791 0.05157 0.0
H1786 H 0.88394 0.24777 0.9783 0.0
H1787 H 0.87549 0.23667 0.93953 0.0
H1788 H 0.89458 0.2561 0.9411 0.0
H1789 H 0.90822 0.21232 0.90923 0.0
H1790 H 0.88907 0.19339 0.90626 0.0
H1791 H 0.90605 0.17366 0.92343 0.0
H1792 H 0.89193 0.1501 0.04741 0.0
H1793 H 0.86667 0.12419 0.03122 0.0
H1794 H 0.86587 0.1759 0.94142 0.0
C1795 C 0.92346 0.22975 0.97416 0.0
C1796 C 0.9346 0.233 0.00026 0.0
C1797 C 0.93315 0.21335 0.02746 0.0
C1798 C 0.92006 0.19299 0.02999 0.0
C1799 C 0.90844 0.19277 0.00529 0.0
C1800 C 0.91019 0.21034 0.97761 0.0
C1801 C 0.89548 0.20805 0.95575 0.0
C1802 C 0.88687 0.23898 0.95354 0.0
C1803 C 0.89998 0.19611 0.92167 0.0
C1804 C 0.88543 0.18524 0.97466 0.0
C1805 C 0.89295 0.17718 0.0035 0.0
C1806 C 0.88595 0.15636 0.02496 0.0
C1807 C 0.87141 0.14218 0.0159 0.0
C1808 C 0.86403 0.14863 0.98555 0.0
C1809 C 0.87094 0.17122 0.96524 0.0
H1810 H 0.87939 0.27246 0.74269 0.0
H1811 H 0.83946 0.20822 0.74223 0.0
H1812 H 0.85908 0.16583 0.74222 0.0
H1813 H 0.90797 0.23084 0.69678 0.0
H1814 H 0.92469 0.24162 0.72235 0.0
H1815 H 0.90771 0.26668 0.71833 0.0
H1816 H 0.90392 0.26715 0.78098 0.0
H1817 H 0.92104 0.2426 0.78533 0.0
H1818 H 0.90198 0.23157 0.80254 0.0
H1819 H 0.88345 0.13068 0.74168 0.0
H1820 H 0.90933 0.1053 0.75154 0.0
H1821 H 0.93273 0.19301 0.76301 0.0
C1822 C 0.87444 0.24967 0.7435 0.0
C1823 C 0.85754 0.24412 0.7431 0.0
C1824 C 0.85218 0.21345 0.74233 0.0
C1825 C 0.86328 0.18919 0.7424 0.0
C1826 C 0.87974 0.19585 0.74361 0.0
C1827 C 0.88523 0.22542 0.74493 0.0
C1828 C 0.90337 0.22684 0.74928 0.0
C1829 C 0.9114 0.24242 0.71993 0.0
C1830 C 0.90783 0.24297 0.78145 0.0
C1831 C 0.90739 0.19319 0.75033 0.0
C1832 C 0.89361 0.17579 0.74597 0.0
C1833 C 0.89422 0.14416 0.74527 0.0
C1834 C 0.90905 0.12995 0.75056 0.0
C1835 C 0.92313 0.14711 0.75777 0.0
C1836 C 0.92232 0.17927 0.75688 0.0
H1837 H 0.87291 0.59359 0.80752 0.0
H1838 H 0.86018 0.61477 0.70753 0.0
H1839 H 0.88351 0.58483 0.6882 0.0
H1840 H 0.91408 0.60299 0.79873 0.0
H1841 H 0.91993 0.57231 0.82534 0.0
H1842 H 0.90106 0.59135 0.83158 0.0
H1843 H 0.88562 0.54025 0.82726 0.0
H1844 H 0.90448 0.52085 0.82241 0.0
H1845 H 0.88883 0.51587 0.79241 0.0
H1846 H 0.91024 0.55684 0.68031 0.0
H1847 H 0.93471 0.52506 0.68413 0.0
H1848 H 0.9304 0.52438 0.7894 0.0
C1849 C 0.87474 0.59115 0.78147 0.0
C1850 C 0.86463 0.60653 0.759 0.0
C1851 C 0.86754 0.6029 0.72518 0.0
C1852 C 0.88095 0.58631 0.71404 0.0
C1853 C 0.89131 0.57337 0.73699 0.0
C1854 C 0.8881 0.57496 0.77002 0.0
C1855 C 0.9013 0.55995 0.78986 0.0
C1856 C 0.90958 0.58304 0.81272 0.0
C1857 C 0.89466 0.5326 0.8091 0.0
C1858 C 0.91255 0.54982 0.76287 0.0
C1859 C 0.90666 0.5579 0.73254 0.0
C1860 C 0.91493 0.55047 0.70397 0.0
C1861 C 0.92903 0.53292 0.70635 0.0
C1862 C 0.93473 0.52286 0.73706 0.0
C1863 C 0.92661 0.53245 0.76565 0.0
H1864 H 0.17976 0.97638 0.44808 0.0
H1865 H 0.18772 0.99435 0.55077 0.0
H1866 H 0.16281 0.96638 0.56422 0.0
H1867 H 0.13819 0.98513 0.44869 0.0
H1868 H 0.13343 0.95472 0.42066 0.0
H1869 H 0.15263 0.97371 0.41836 0.0
H1870 H 0.16764 0.92247 0.42519 0.0
H1871 H 0.14851 0.9032 0.42579 0.0
H1872 H 0.16253 0.89786 0.45885 0.0
H1873 H 0.13436 0.94608 0.56512 0.0
H1874 H 0.11001 0.91465 0.55744 0.0
H1875 H 0.12181 0.90267 0.45532 0.0
C1876 C 0.1768 0.97272 0.4735 0.0
C1877 C 0.18598 0.98697 0.49847 0.0
C1878 C 0.18121 0.98288 0.53138 0.0
C1879 C 0.16682 0.96772 0.53915 0.0
C1880 C 0.15743 0.95608 0.51378 0.0
C1881 C 0.16259 0.95695 0.48178 0.0
C1882 C 0.15028 0.94194 0.45933 0.0
C1883 C 0.14323 0.96527 0.43533 0.0
C1884 C 0.15768 0.91473 0.44123 0.0
C1885 C 0.13761 0.9318 0.4838 0.0
C1886 C 0.14164 0.94173 0.51479 0.0
C1887 C 0.13134 0.93742 0.54113 0.0
C1888 C 0.11734 0.92005 0.53636 0.0
C1889 C 0.11396 0.90617 0.50581 0.0
C1890 C 0.12393 0.91322 0.47884 0.0
H1891 H 0.12138 0.27447 0.44948 0.0
H1892 H 0.09777 0.27873 0.54351 0.0
H1893 H 0.12055 0.30877 0.5655 0.0
H1894 H 0.16137 0.26775 0.48076 0.0
H1895 H 0.17079 0.29094 0.44996 0.0
H1896 H 0.15265 0.27011 0.44059 0.0
H1897 H 0.13842 0.31976 0.42283 0.0
H1898 H 0.15671 0.34046 0.43086 0.0
H1899 H 0.13825 0.35202 0.45017 0.0
H1900 H 0.14783 0.3293 0.57955 0.0
H1901 H 0.17244 0.36024 0.58089 0.0
H1902 H 0.17665 0.35266 0.47565 0.0
C1903 C 0.12069 0.28307 0.47423 0.0
C1904 C 0.10759 0.27497 0.49467 0.0
C1905 C 0.10742 0.28542 0.5273 0.0
C1906 C 0.12049 0.30186 0.54014 0.0
C1907 C 0.13359 0.30799 0.5199 0.0
C1908 C 0.13352 0.3002 0.48727 0.0
C1909 C 0.14897 0.31081 0.47078 0.0
C1910 C 0.15903 0.28327 0.45986 0.0
C1911 C 0.14537 0.33206 0.44196 0.0
C1912 C 0.15724 0.32749 0.49882 0.0
C1913 C 0.14859 0.32347 0.52729 0.0
C1914 C 0.15435 0.33365 0.5572 0.0
C1915 C 0.16849 0.35095 0.55768 0.0
C1916 C 0.17613 0.36012 0.52825 0.0
C1917 C 0.17098 0.34662 0.49851 0.0
H1918 H 0.11755 0.3627 0.76895 0.0
H1919 H 0.1082 0.34118 0.6675 0.0
H1920 H 0.13213 0.30819 0.66635 0.0
H1921 H 0.15817 0.36818 0.76503 0.0
H1922 H 0.16317 0.34947 0.80281 0.0
H1923 H 0.14401 0.36792 0.79828 0.0
H1924 H 0.12883 0.31795 0.81222 0.0
H1925 H 0.14796 0.29989 0.81874 0.0
H1926 H 0.13374 0.28346 0.7905 0.0
H1927 H 0.15993 0.28762 0.67264 0.0
H1928 H 0.18471 0.26244 0.69133 0.0
H1929 H 0.17506 0.29141 0.79047 0.0
C1930 C 0.11997 0.34947 0.74719 0.0
C1931 C 0.11087 0.35415 0.71841 0.0
C1932 C 0.11478 0.33737 0.68996 0.0
C1933 C 0.12856 0.3191 0.68891 0.0
C1934 C 0.13807 0.31713 0.71682 0.0
C1935 C 0.13353 0.3304 0.74598 0.0
C1936 C 0.146 0.32435 0.77237 0.0
C1937 C 0.15326 0.35427 0.78538 0.0
C1938 C 0.1387 0.30527 0.80009 0.0
C1939 C 0.15838 0.30632 0.75324 0.0
C1940 C 0.15373 0.30331 0.721 0.0
C1941 C 0.16351 0.28921 0.69798 0.0
C1942 C 0.17777 0.2756 0.70868 0.0
C1943 C 0.1819 0.27529 0.74222 0.0
C1944 C 0.17239 0.29188 0.76461 0.0
H1945 H 0.11514 0.99292 0.71379 0.0
H1946 H 0.10235 0.97868 0.81507 0.0
H1947 H 0.12524 0.94283 0.82078 0.0
H1948 H 0.12974 0.9197 0.69379 0.0
H1949 H 0.14637 0.93386 0.66965 0.0
H1950 H 0.12828 0.9558 0.67332 0.0
H1951 H 0.14443 1.00166 0.69459 0.0
H1952 H 0.16279 0.9803 0.69125 0.0
H1953 H 0.1573 0.99741 0.72966 0.0
H1954 H 0.1512 0.91003 0.8152 0.0
H1955 H 0.17456 0.87926 0.79697 0.0
H1956 H 0.17144 0.92078 0.70143 0.0
C1957 C 0.11688 0.98172 0.73706 0.0
C1958 C 0.10676 0.98852 0.76394 0.0
C1959 C 0.10964 0.97346 0.79393 0.0
C1960 C 0.12285 0.95353 0.79752 0.0
C1961 C 0.13325 0.94926 0.77108 0.0
C1962 C 0.13029 0.96299 0.74139 0.0
C1963 C 0.14349 0.95634 0.71702 0.0
C1964 C 0.13658 0.94041 0.68664 0.0
C1965 C 0.15253 0.98567 0.7076 0.0
C1966 C 0.1541 0.93541 0.73704 0.0
C1967 C 0.14821 0.93189 0.76835 0.0
C1968 C 0.15591 0.91282 0.79078 0.0
C1969 C 0.16936 0.89574 0.78045 0.0
C1970 C 0.17503 0.89788 0.748 0.0
C1971 C 0.1676 0.91903 0.72662 0.0
H1972 H 0.86265 0.04811 0.53298 0.0
H1973 H 0.8539 0.01279 0.43583 0.0
H1974 H 0.87978 0.03409 0.4174 0.0
H1975 H 0.88326 0.12121 0.50141 0.0
H1976 H 0.89627 0.12197 0.5366 0.0
H1977 H 0.87618 0.10693 0.54006 0.0
H1978 H 0.88836 0.05721 0.56336 0.0
H1979 H 0.90852 0.07126 0.55778 0.0
H1980 H 0.90244 0.03584 0.53907 0.0
H1981 H 0.90906 0.04863 0.41333 0.0
H1982 H 0.93465 0.07713 0.41496 0.0
H1983 H 0.92336 0.10936 0.51216 0.0
C1984 C 0.86567 0.04672 0.50732 0.0
C1985 C 0.85617 0.02893 0.48577 0.0
C1986 C 0.8608 0.02685 0.45255 0.0
C1987 C 0.87571 0.03816 0.4421 0.0
C1988 C 0.88554 0.0528 0.4648 0.0
C1989 C 0.88029 0.059 0.49608 0.0
C1990 C 0.89302 0.07663 0.51502 0.0
C1991 C 0.88682 0.10858 0.52378 0.0
C1992 C 0.89839 0.05918 0.54562 0.0
C1993 C 0.90644 0.07821 0.48995 0.0
C1994 C 0.902 0.06348 0.4615 0.0
C1995 C 0.91251 0.0609 0.4352 0.0
C1996 C 0.92726 0.07644 0.43669 0.0
C1997 C 0.93108 0.09539 0.4637 0.0
C1998 C 0.92098 0.0946 0.49149 0.0
H1999 H 0.86431 0.67422 0.46916 0.0
H2000 H 0.87277 0.61293 0.54976 0.0
H2001 H 0.8976 0.6417 0.56407 0.0
H2002 H 0.90363 0.67856 0.44152 0.0
H2003 H 0.90221 0.71795 0.43001 0.0
H2004 H 0.88441 0.69465 0.43084 0.0
H2005 H 0.87161 0.73481 0.47043 0.0
H2006 H 0.88993 0.75678 0.46971 0.0
H2007 H 0.88179 0.74403 0.50804 0.0
H2008 H 0.92253 0.67866 0.56792 0.0
H2009 H 0.94334 0.71904 0.5611 0.0
H2010 H 0.92074 0.7453 0.46993 0.0
C2011 C 0.87099 0.66785 0.49081 0.0
C2012 C 0.86629 0.64226 0.50931 0.0
C2013 C 0.87579 0.63338 0.53631 0.0
C2014 C 0.89004 0.6493 0.54421 0.0
C2015 C 0.89475 0.67368 0.52444 0.0
C2016 C 0.88537 0.68285 0.49832 0.0
C2017 C 0.89339 0.70805 0.47921 0.0
C2018 C 0.89604 0.69921 0.44328 0.0
C2019 C 0.8836 0.73766 0.48202 0.0
C2020 C 0.9091 0.71065 0.49756 0.0
C2021 C 0.90955 0.69177 0.52439 0.0
C2022 C 0.9223 0.69333 0.54673 0.0
C2023 C 0.93425 0.71602 0.54243 0.0
C2024 C 0.93362 0.73605 0.51537 0.0
C2025 C 0.92148 0.73123 0.49156 0.0
H2026 H 0.91981 0.64834 0.20303 0.0
H2027 H 0.92591 0.65579 0.30777 0.0
H2028 H 0.90097 0.68587 0.31148 0.0
H2029 H 0.9041 0.73161 0.19913 0.0
H2030 H 0.89171 0.72256 0.1643 0.0
H2031 H 0.91057 0.70327 0.17014 0.0
H2032 H 0.89529 0.65182 0.16666 0.0
H2033 H 0.87629 0.67098 0.16281 0.0
H2034 H 0.87937 0.64392 0.19525 0.0
H2035 H 0.87209 0.70028 0.30549 0.0
H2036 H 0.84803 0.72901 0.2893 0.0
H2037 H 0.86323 0.72547 0.18823 0.0
C2038 C 0.91624 0.65747 0.22648 0.0
C2039 C 0.92447 0.64907 0.25532 0.0
C2040 C 0.91957 0.66163 0.28556 0.0
C2041 C 0.9053 0.67816 0.288 0.0
C2042 C 0.89653 0.68328 0.2597 0.0
C2043 C 0.90243 0.67582 0.22925 0.0
C2044 C 0.89135 0.68791 0.20272 0.0
C2045 C 0.89993 0.71282 0.1829 0.0
C2046 C 0.88522 0.6621 0.18055 0.0
C2047 C 0.87781 0.70118 0.22326 0.0
C2048 C 0.88089 0.69701 0.25604 0.0
C2049 C 0.86979 0.70482 0.27995 0.0
C2050 C 0.85591 0.72034 0.27042 0.0
C2051 C 0.85377 0.72959 0.2376 0.0
C2052 C 0.8644 0.71836 0.21341 0.0
H2053 H 0.88725 0.14094 0.24842 0.0
H2054 H 0.84551 0.08157 0.25463 0.0
H2055 H 0.86318 0.03681 0.24955 0.0
H2056 H 0.91097 0.09423 0.19169 0.0
H2057 H 0.92968 0.10239 0.21215 0.0
H2058 H 0.91372 0.13003 0.21266 0.0
H2059 H 0.91475 0.1309 0.27589 0.0
H2060 H 0.93059 0.10307 0.27548 0.0
H2061 H 0.91244 0.09575 0.29811 0.0
H2062 H 0.8848 0.99918 0.24786 0.0
H2063 H 0.90936 0.96918 0.24752 0.0
H2064 H 0.93819 0.05181 0.24481 0.0
C2065 C 0.88179 0.11851 0.2482 0.0
C2066 C 0.86491 0.11476 0.25169 0.0
C2067 C 0.85828 0.08506 0.25129 0.0
C2068 C 0.86826 0.05952 0.24875 0.0
C2069 C 0.88481 0.06409 0.24651 0.0
C2070 C 0.89159 0.09276 0.24597 0.0
C2071 C 0.90985 0.09107 0.24503 0.0
C2072 C 0.91644 0.10528 0.2135 0.0
C2073 C 0.91734 0.10609 0.27544 0.0
C2074 C 0.91226 0.05684 0.24529 0.0
C2075 C 0.89756 0.04197 0.24612 0.0
C2076 C 0.89635 0.01054 0.24711 0.0
C2077 C 0.91047 0.99371 0.24712 0.0
C2078 C 0.92581 0.00806 0.24662 0.0
C2079 C 0.9267 0.04019 0.24528 0.0
H2080 H 0.61962 0.43108 0.56261 0.0
H2081 H 0.60848 0.39807 0.46545 0.0
H2082 H 0.63282 0.42351 0.44422 0.0
H2083 H 0.63792 0.5057 0.53609 0.0
H2084 H 0.65255 0.50412 0.56848 0.0
H2085 H 0.63299 0.48732 0.57411 0.0
H2086 H 0.64681 0.43647 0.58912 0.0
H2087 H 0.66638 0.45259 0.58179 0.0
H2088 H 0.66015 0.4187 0.56023 0.0
H2089 H 0.66028 0.44756 0.43481 0.0
H2090 H 0.68522 0.4786 0.43583 0.0
H2091 H 0.67897 0.49352 0.53953 0.0
C2092 C 0.6219 0.43051 0.53659 0.0
C2093 C 0.61201 0.4129 0.51559 0.0
C2094 C 0.61562 0.41201 0.48184 0.0
C2095 C 0.62963 0.42589 0.46968 0.0
C2096 C 0.63982 0.4409 0.49152 0.0
C2097 C 0.63584 0.44419 0.52409 0.0
C2098 C 0.649 0.46082 0.54264 0.0
C2099 C 0.64274 0.4913 0.55611 0.0
C2100 C 0.65599 0.44094 0.57005 0.0
C2101 C 0.66115 0.46576 0.51558 0.0
C2102 C 0.65568 0.45406 0.48627 0.0
C2103 C 0.66465 0.45689 0.45762 0.0
C2104 C 0.67899 0.47402 0.45849 0.0
C2105 C 0.68417 0.48803 0.4878 0.0
C2106 C 0.67549 0.48245 0.51692 0.0
H2107 H 0.61562 0.78036 0.44269 0.0
H2108 H 0.59522 0.77543 0.53975 0.0
H2109 H 0.6174 0.80712 0.56084 0.0
H2110 H 0.65569 0.77788 0.46294 0.0
H2111 H 0.66314 0.80625 0.435 0.0
H2112 H 0.64501 0.78549 0.42555 0.0
H2113 H 0.62907 0.83564 0.41977 0.0
H2114 H 0.6473 0.85665 0.42776 0.0
H2115 H 0.6297 0.86333 0.45231 0.0
H2116 H 0.64492 0.82617 0.57335 0.0
H2117 H 0.6701 0.85518 0.57557 0.0
H2118 H 0.67089 0.86034 0.46977 0.0
C2119 C 0.61526 0.78771 0.46791 0.0
C2120 C 0.60342 0.77577 0.48951 0.0
C2121 C 0.6038 0.78491 0.52264 0.0
C2122 C 0.61661 0.8023 0.53498 0.0
C2123 C 0.62868 0.81166 0.51364 0.0
C2124 C 0.62766 0.8065 0.48049 0.0
C2125 C 0.64216 0.82065 0.46317 0.0
C2126 C 0.65208 0.7961 0.44562 0.0
C2127 C 0.63673 0.84556 0.43934 0.0
C2128 C 0.65152 0.8341 0.49194 0.0
C2129 C 0.64375 0.82709 0.52077 0.0
C2130 C 0.65067 0.83324 0.55093 0.0
C2131 C 0.66514 0.84949 0.55185 0.0
C2132 C 0.67224 0.86139 0.52299 0.0
C2133 C 0.6657 0.85224 0.49236 0.0
H2134 H 0.68822 0.79334 0.72371 0.0
H2135 H 0.66886 0.74127 0.80411 0.0
H2136 H 0.64331 0.76961 0.80014 0.0
H2137 H 0.66684 0.86743 0.74503 0.0
H2138 H 0.66441 0.87607 0.70233 0.0
H2139 H 0.68168 0.85498 0.71595 0.0
H2140 H 0.67434 0.81251 0.67439 0.0
H2141 H 0.65661 0.83269 0.6619 0.0
H2142 H 0.65495 0.79421 0.67683 0.0
H2143 H 0.61785 0.79725 0.77923 0.0
H2144 H 0.59754 0.82954 0.75264 0.0
H2145 H 0.63538 0.86599 0.69008 0.0
C2146 C 0.67901 0.7894 0.74186 0.0
C2147 C 0.68072 0.76579 0.76489 0.0
C2148 C 0.66801 0.76009 0.78712 0.0
C2149 C 0.65331 0.77566 0.78458 0.0
C2150 C 0.65161 0.79743 0.76011 0.0
C2151 C 0.66437 0.80515 0.74003 0.0
C2152 C 0.65934 0.82848 0.71495 0.0
C2153 C 0.66861 0.85852 0.71987 0.0
C2154 C 0.66143 0.81622 0.67997 0.0
C2155 C 0.64173 0.83201 0.72345 0.0
C2156 C 0.63733 0.81379 0.74919 0.0
C2157 C 0.62134 0.81231 0.75958 0.0
C2158 C 0.60978 0.83092 0.74409 0.0
C2159 C 0.61419 0.85127 0.71858 0.0
C2160 C 0.6306 0.85104 0.70845 0.0
H2161 H 0.59938 0.45858 0.74091 0.0
H2162 H 0.62481 0.53401 0.78596 0.0
H2163 H 0.64996 0.50467 0.78476 0.0
H2164 H 0.62411 0.39791 0.78619 0.0
H2165 H 0.62311 0.37245 0.75168 0.0
H2166 H 0.6067 0.39802 0.75998 0.0
H2167 H 0.60911 0.41945 0.70132 0.0
H2168 H 0.62569 0.39446 0.69308 0.0
H2169 H 0.62805 0.435 0.68783 0.0
H2170 H 0.67333 0.47078 0.76923 0.0
H2171 H 0.69212 0.43172 0.74866 0.0
H2172 H 0.6514 0.37536 0.72023 0.0
C2173 C 0.61005 0.4682 0.75208 0.0
C2174 C 0.61003 0.49847 0.76397 0.0
C2175 C 0.62445 0.51064 0.77736 0.0
C2176 C 0.63888 0.49425 0.77647 0.0
C2177 C 0.63872 0.46506 0.76319 0.0
C2178 C 0.62459 0.45164 0.75236 0.0
C2179 C 0.62791 0.42002 0.73887 0.0
C2180 C 0.61999 0.39565 0.76046 0.0
C2181 C 0.62236 0.41709 0.70316 0.0
C2182 C 0.64612 0.41876 0.7417 0.0
C2183 C 0.65215 0.44489 0.75593 0.0
C2184 C 0.66869 0.4498 0.75891 0.0
C2185 C 0.67933 0.42735 0.74723 0.0
C2186 C 0.67346 0.40015 0.7327 0.0
C2187 C 0.65652 0.39589 0.73063 0.0
H2188 H 0.4303 0.58091 0.49274 0.0
H2189 H 0.40471 0.65134 0.43933 0.0
H2190 H 0.37939 0.62587 0.44959 0.0
H2191 H 0.40613 0.51761 0.47112 0.0
H2192 H 0.40546 0.50074 0.51117 0.0
H2193 H 0.42225 0.52432 0.49973 0.0
H2194 H 0.41721 0.55861 0.55018 0.0
H2195 H 0.40027 0.53522 0.56156 0.0
H2196 H 0.39774 0.57563 0.55588 0.0
H2197 H 0.35649 0.59048 0.46004 0.0
H2198 H 0.33791 0.54821 0.47421 0.0
H2199 H 0.37629 0.505 0.52864 0.0
C2200 C 0.41939 0.5911 0.48346 0.0
C2201 C 0.42003 0.61749 0.4635 0.0
C2202 C 0.40514 0.63025 0.45287 0.0
C2203 C 0.3904 0.61619 0.45902 0.0
C2204 C 0.39023 0.58988 0.4775 0.0
C2205 C 0.40421 0.57776 0.49039 0.0
C2206 C 0.40022 0.54962 0.51044 0.0
C2207 C 0.40904 0.52141 0.49731 0.0
C2208 C 0.4041 0.5551 0.54667 0.0
C2209 C 0.38212 0.54722 0.50502 0.0
C2210 C 0.37658 0.57081 0.48608 0.0
C2211 C 0.36056 0.57217 0.4756 0.0
C2212 C 0.35001 0.54825 0.48396 0.0
C2213 C 0.35552 0.52337 0.50262 0.0
C2214 C 0.37165 0.52375 0.51434 0.0
H2215 H 0.36783 0.15005 0.51204 0.0
H2216 H 0.35282 0.1856 0.41839 0.0
H2217 H 0.37757 0.21662 0.4156 0.0
H2218 H 0.38728 0.22281 0.54186 0.0
H2219 H 0.40287 0.20196 0.56256 0.0
H2220 H 0.38317 0.18541 0.55803 0.0
H2221 H 0.39631 0.13826 0.53094 0.0
H2222 H 0.41594 0.15547 0.53375 0.0
H2223 H 0.40828 0.1432 0.49469 0.0
H2224 H 0.40602 0.2357 0.41807 0.0
H2225 H 0.43173 0.25897 0.43493 0.0
H2226 H 0.42759 0.21626 0.52977 0.0
C2227 C 0.36925 0.1659 0.49202 0.0
C2228 C 0.35817 0.16586 0.46571 0.0
C2229 C 0.36087 0.18593 0.4392 0.0
C2230 C 0.37513 0.203 0.43703 0.0
C2231 C 0.38643 0.20043 0.462 0.0
C2232 C 0.38334 0.18366 0.48979 0.0
C2233 C 0.3975 0.18534 0.51328 0.0
C2234 C 0.3924 0.19976 0.54586 0.0
C2235 C 0.40494 0.15368 0.51847 0.0
C2236 C 0.40893 0.20594 0.49449 0.0
C2237 C 0.40251 0.21322 0.46437 0.0
C2238 C 0.411 0.2307 0.44187 0.0
C2239 C 0.42578 0.24331 0.45141 0.0
C2240 C 0.43172 0.23931 0.48355 0.0
C2241 C 0.42352 0.21924 0.50487 0.0
H2242 H 0.41801 0.16599 0.29743 0.0
H2243 H 0.42812 0.13706 0.19848 0.0
H2244 H 0.40465 0.16669 0.17881 0.0
H2245 H 0.3772 0.15574 0.29403 0.0
H2246 H 0.37197 0.18828 0.3187 0.0
H2247 H 0.39109 0.17003 0.32426 0.0
H2248 H 0.40616 0.22085 0.31378 0.0
H2249 H 0.38705 0.23956 0.30983 0.0
H2250 H 0.40166 0.2425 0.27758 0.0
H2251 H 0.37851 0.19839 0.17121 0.0
H2252 H 0.35494 0.23266 0.17621 0.0
H2253 H 0.36027 0.23189 0.28127 0.0
C2254 C 0.41557 0.16658 0.27145 0.0
C2255 C 0.42492 0.14927 0.24944 0.0
C2256 C 0.42128 0.15051 0.2157 0.0
C2257 C 0.40782 0.16693 0.20443 0.0
C2258 C 0.39812 0.18181 0.22726 0.0
C2259 C 0.40206 0.18209 0.26006 0.0
C2260 C 0.38943 0.19814 0.28018 0.0
C2261 C 0.38199 0.17675 0.30579 0.0
C2262 C 0.3965 0.22697 0.29627 0.0
C2263 C 0.37745 0.20614 0.25381 0.0
C2264 C 0.38273 0.19726 0.22329 0.0
C2265 C 0.3742 0.20506 0.19507 0.0
C2266 C 0.3606 0.224 0.1981 0.0
C2267 C 0.35556 0.23441 0.22914 0.0
C2268 C 0.36357 0.2236 0.25728 0.0
H2269 H 0.38476 0.63945 0.2559 0.0
H2270 H 0.34395 0.5786 0.26719 0.0
H2271 H 0.36178 0.53452 0.25757 0.0
H2272 H 0.40666 0.5917 0.19361 0.0
H2273 H 0.42598 0.60148 0.21063 0.0
H2274 H 0.40967 0.62837 0.21256 0.0
H2275 H 0.41333 0.63175 0.27494 0.0
H2276 H 0.42932 0.60436 0.27374 0.0
H2277 H 0.41205 0.59768 0.29933 0.0
H2278 H 0.38378 0.49776 0.2503 0.0
H2279 H 0.40854 0.46882 0.24905 0.0
H2280 H 0.43662 0.55243 0.24859 0.0
C2281 C 0.3795 0.61684 0.25557 0.0
C2282 C 0.36287 0.61241 0.26206 0.0
C2283 C 0.35649 0.58256 0.26162 0.0
C2284 C 0.36658 0.55744 0.25636 0.0
C2285 C 0.38297 0.56262 0.25128 0.0
C2286 C 0.38942 0.59154 0.25061 0.0
C2287 C 0.40766 0.59053 0.24708 0.0
C2288 C 0.4128 0.60382 0.21401 0.0
C2289 C 0.41608 0.60703 0.2755 0.0
C2290 C 0.41057 0.55641 0.24801 0.0
C2291 C 0.39602 0.54103 0.24929 0.0
C2292 C 0.3952 0.50959 0.24963 0.0
C2293 C 0.40952 0.49333 0.24929 0.0
C2294 C 0.4248 0.50805 0.25016 0.0
C2295 C 0.42528 0.54029 0.24851 0.0
H2296 H 0.68202 0.98367 0.03253 0.0
H2297 H 0.68399 0.98335 0.92702 0.0
H2298 H 0.66046 0.94837 0.9254 0.0
H2299 H 0.66699 0.90524 0.04554 0.0
H2300 H 0.65428 0.91746 0.07861 0.0
H2301 H 0.6728 0.93734 0.07047 0.0
H2302 H 0.65689 0.98778 0.0661 0.0
H2303 H 0.63826 0.96793 0.07302 0.0
H2304 H 0.64077 0.99078 0.03687 0.0
H2305 H 0.63457 0.91599 0.93658 0.0
H2306 H 0.61159 0.88662 0.95921 0.0
H2307 H 0.6253 0.91542 0.05666 0.0
C2308 C 0.67797 0.97508 0.0091 0.0
C2309 C 0.68515 0.98565 0.9799 0.0
C2310 C 0.67907 0.97481 0.9497 0.0
C2311 C 0.6655 0.95537 0.94861 0.0
C2312 C 0.65804 0.94716 0.97792 0.0
C2313 C 0.66426 0.95652 0.00762 0.0
C2314 C 0.6535 0.94708 0.03563 0.0
C2315 C 0.66242 0.92549 0.05893 0.0
C2316 C 0.64697 0.97506 0.05397 0.0
C2317 C 0.64024 0.93064 0.01728 0.0
C2318 C 0.64299 0.93066 0.98404 0.0
C2319 C 0.6324 0.91588 0.96261 0.0
C2320 C 0.6192 0.89955 0.97564 0.0
C2321 C 0.61659 0.89829 0.00981 0.0
C2322 C 0.62698 0.91532 0.03046 0.0
H2323 H 0.61344 0.26751 0.03591 0.0
H2324 H 0.60399 0.28263 0.93328 0.0
H2325 H 0.6281 0.31601 0.93021 0.0
H2326 H 0.6311 0.34072 0.05626 0.0
H2327 H 0.6463 0.32471 0.08248 0.0
H2328 H 0.62716 0.30591 0.07801 0.0
H2329 H 0.64083 0.25631 0.05992 0.0
H2330 H 0.66027 0.27393 0.06432 0.0
H2331 H 0.65458 0.25672 0.026 0.0
H2332 H 0.65506 0.3448 0.93834 0.0
H2333 H 0.67932 0.37166 0.95858 0.0
H2334 H 0.67292 0.32955 0.05326 0.0
C2335 C 0.61607 0.27884 0.01305 0.0
C2336 C 0.60666 0.27273 0.98489 0.0
C2337 C 0.61074 0.28748 0.95532 0.0
C2338 C 0.62463 0.30595 0.95325 0.0
C2339 C 0.63443 0.30909 0.98085 0.0
C2340 C 0.63016 0.2961 0.01028 0.0
C2341 C 0.64311 0.30073 0.03586 0.0
C2342 C 0.63655 0.31913 0.06489 0.0
C2343 C 0.65011 0.2701 0.04717 0.0
C2344 C 0.65535 0.31879 0.01646 0.0
C2345 C 0.65018 0.32351 0.98481 0.0
C2346 C 0.6592 0.34107 0.96305 0.0
C2347 C 0.67321 0.3558 0.97456 0.0
C2348 C 0.67815 0.35277 0.0075 0.0
C2349 C 0.66956 0.33233 0.02789 0.0
H2350 H 0.67561 0.27985 0.29793 0.0
H2351 H 0.69406 0.27721 0.19921 0.0
H2352 H 0.67037 0.30568 0.18001 0.0
H2353 H 0.63513 0.27023 0.27894 0.0
H2354 H 0.62713 0.29651 0.30853 0.0
H2355 H 0.64608 0.27805 0.316 0.0
H2356 H 0.66035 0.3302 0.32309 0.0
H2357 H 0.64129 0.34873 0.31721 0.0
H2358 H 0.65818 0.3588 0.29187 0.0
H2359 H 0.64249 0.32464 0.17005 0.0
H2360 H 0.61713 0.35317 0.17139 0.0
H2361 H 0.61784 0.35188 0.27721 0.0
C2362 C 0.67515 0.28702 0.27268 0.0
C2363 C 0.68697 0.27697 0.25017 0.0
C2364 C 0.68549 0.28552 0.21699 0.0
C2365 C 0.67184 0.30099 0.20575 0.0
C2366 C 0.65989 0.30855 0.22813 0.0
C2367 C 0.66174 0.30335 0.26113 0.0
C2368 C 0.64713 0.3148 0.27987 0.0
C2369 C 0.63836 0.28832 0.29685 0.0
C2370 C 0.65203 0.33963 0.30446 0.0
C2371 C 0.63694 0.32767 0.25226 0.0
C2372 C 0.64428 0.3223 0.22255 0.0
C2373 C 0.63688 0.32978 0.19322 0.0
C2374 C 0.62229 0.34554 0.19425 0.0
C2375 C 0.61554 0.35514 0.22437 0.0
C2376 C 0.62261 0.34481 0.25384 0.0
H2377 H 0.67271 0.90067 0.26555 0.0
H2378 H 0.68546 0.92954 0.16803 0.0
H2379 H 0.66131 0.96216 0.16613 0.0
H2380 H 0.63199 0.89378 0.25028 0.0
H2381 H 0.6251 0.9069 0.28952 0.0
H2382 H 0.64452 0.88922 0.28582 0.0
H2383 H 0.65859 0.93655 0.31099 0.0
H2384 H 0.63914 0.95358 0.31652 0.0
H2385 H 0.65455 0.97376 0.29435 0.0
H2386 H 0.63338 0.98357 0.17107 0.0
H2387 H 0.60826 0.00779 0.18924 0.0
H2388 H 0.61416 0.96816 0.28522 0.0
C2389 C 0.67098 0.91547 0.24473 0.0
C2390 C 0.68125 0.91333 0.21731 0.0
C2391 C 0.67808 0.93168 0.18967 0.0
C2392 C 0.66416 0.94965 0.18812 0.0
C2393 C 0.65358 0.94915 0.21451 0.0
C2394 C 0.65712 0.93353 0.24283 0.0
C2395 C 0.64346 0.93603 0.26726 0.0
C2396 C 0.63583 0.90462 0.2736 0.0
C2397 C 0.64928 0.95089 0.29917 0.0
C2398 C 0.63191 0.95641 0.24876 0.0
C2399 C 0.63772 0.96251 0.21783 0.0
C2400 C 0.62889 0.9794 0.19544 0.0
C2401 C 0.61443 0.99252 0.20577 0.0
C2402 C 0.60918 0.98973 0.23856 0.0
C2403 C 0.61769 0.97026 0.2599 0.0
H2404 H 0.4165 0.09144 0.93035 0.0
H2405 H 0.43362 0.10291 0.02969 0.0
H2406 H 0.41006 0.0739 0.0497 0.0
H2407 H 0.37604 0.10682 0.94981 0.0
H2408 H 0.36764 0.08076 0.92029 0.0
H2409 H 0.38692 0.09818 0.91297 0.0
H2410 H 0.40017 0.04528 0.9063 0.0
H2411 H 0.38084 0.02771 0.91223 0.0
H2412 H 0.39755 0.01697 0.93773 0.0
H2413 H 0.38293 0.04759 0.05907 0.0
H2414 H 0.3575 0.01833 0.05601 0.0
H2415 H 0.35733 0.02796 0.95093 0.0
C2416 C 0.4155 0.08747 0.95635 0.0
C2417 C 0.42698 0.09984 0.97846 0.0
C2418 C 0.42519 0.09357 0.01216 0.0
C2419 C 0.41166 0.07753 0.0238 0.0
C2420 C 0.39992 0.06809 0.00148 0.0
C2421 C 0.40188 0.07241 0.96836 0.0
C2422 C 0.38724 0.0616 0.94942 0.0
C2423 C 0.37898 0.08843 0.9321 0.0
C2424 C 0.39172 0.03638 0.925 0.0
C2425 C 0.37687 0.04954 0.97695 0.0
C2426 C 0.38425 0.05396 0.00687 0.0
C2427 C 0.37704 0.04423 0.03578 0.0
C2428 C 0.36239 0.02816 0.03391 0.0
C2429 C 0.35515 0.02169 0.00336 0.0
C2430 C 0.36228 0.03349 0.97468 0.0
H2431 H 0.36056 0.68725 0.9837 0.0
H2432 H 0.38641 0.60185 0.98793 0.0
H2433 H 0.41135 0.62939 0.00219 0.0
H2434 H 0.39126 0.72943 0.94691 0.0
H2435 H 0.38784 0.76427 0.96911 0.0
H2436 H 0.37154 0.73791 0.96254 0.0
H2437 H 0.36643 0.7351 0.02482 0.0
H2438 H 0.38255 0.7619 0.03145 0.0
H2439 H 0.38276 0.72556 0.05187 0.0
H2440 H 0.43449 0.66702 0.00788 0.0
H2441 H 0.45293 0.71138 0.0103 0.0
H2442 H 0.41141 0.77132 0.01 0.0
C2443 C 0.37133 0.67437 0.98892 0.0
C2444 C 0.3715 0.64238 0.98513 0.0
C2445 C 0.38599 0.62635 0.99109 0.0
C2446 C 0.40025 0.6418 -0.00097 0.0
C2447 C 0.39989 0.6734 0.00143 0.0
C2448 C 0.38573 0.6895 -0.00274 0.0
C2449 C 0.38883 0.72347 -0.00013 0.0
C2450 C 0.38462 0.73971 0.9677 0.0
C2451 C 0.3796 0.73732 0.02874 0.0
C2452 C 0.40685 0.72379 0.00589 0.0
C2453 C 0.4131 0.69482 0.0062 0.0
C2454 C 0.42968 0.68988 0.00833 0.0
C2455 C 0.44011 0.71528 0.00984 0.0
C2456 C 0.43395 0.74534 0.0096 0.0
C2457 C 0.41695 0.74911 0.00881 0.0
H2458 H 0.41991 0.67786 0.81251 0.0
H2459 H 0.43152 0.6547 0.71255 0.0
H2460 H 0.40745 0.6826 0.69368 0.0
H2461 H 0.37952 0.66394 0.80627 0.0
H2462 H 0.37281 0.69447 0.83232 0.0
H2463 H 0.39245 0.67832 0.83812 0.0
H2464 H 0.40597 0.73116 0.83141 0.0
H2465 H 0.38632 0.74778 0.82739 0.0
H2466 H 0.40122 0.75409 0.79624 0.0
H2467 H 0.37985 0.70797 0.68656 0.0
H2468 H 0.35458 0.73736 0.6911 0.0
H2469 H 0.36018 0.74002 0.79613 0.0
C2470 C 0.41782 0.67997 0.78651 0.0
C2471 C 0.42778 0.66433 0.76396 0.0
C2472 C 0.42436 0.66699 0.73023 0.0
C2473 C 0.41048 0.6823 0.71936 0.0
C2474 C 0.40014 0.69499 0.74252 0.0
C2475 C 0.40391 0.69468 0.77538 0.0
C2476 C 0.39045 0.70837 0.79559 0.0
C2477 C 0.3834 0.68487 0.81947 0.0
C2478 C 0.39634 0.73705 0.81371 0.0
C2479 C 0.37845 0.71627 0.76905 0.0
C2480 C 0.38419 0.70833 0.73858 0.0
C2481 C 0.37529 0.71425 0.71034 0.0
C2482 C 0.36073 0.7304 0.71316 0.0
C2483 C 0.35516 0.74049 0.74399 0.0
C2484 C 0.36387 0.73196 0.77229 0.0
H2485 H 0.37202 0.10451 0.72361 0.0
H2486 H 0.37171 0.10279 0.82942 0.0
H2487 H 0.39571 0.07023 0.82932 0.0
H2488 H 0.38621 0.02073 0.71817 0.0
H2489 H 0.39715 0.02868 0.68122 0.0
H2490 H 0.37891 0.04907 0.69009 0.0
H2491 H 0.39458 0.09964 0.6834 0.0
H2492 H 0.41307 0.07953 0.67628 0.0
H2493 H 0.41185 0.10709 0.70887 0.0
H2494 H 0.42268 0.04767 0.81822 0.0
H2495 H 0.44551 0.01768 0.79733 0.0
H2496 H 0.42717 0.02714 0.69892 0.0
C2497 C 0.37655 0.09604 0.74664 0.0
C2498 C 0.37019 0.10679 0.77656 0.0
C2499 C 0.3765 0.09517 0.80623 0.0
C2500 C 0.39027 0.07696 0.80645 0.0
C2501 C 0.3972 0.06924 0.77671 0.0
C2502 C 0.39004 0.07665 0.74733 0.0
C2503 C 0.39971 0.06376 0.71901 0.0
C2504 C 0.38992 0.03909 0.70106 0.0
C2505 C 0.40512 0.08903 0.69551 0.0
C2506 C 0.41394 0.04998 0.73709 0.0
C2507 C 0.41228 0.05385 0.77035 0.0
C2508 C 0.424 0.04401 0.79224 0.0
C2509 C 0.43718 0.02768 0.7801 0.0
C2510 C 0.43844 0.02079 0.74646 0.0
C2511 C 0.42689 0.03303 0.72459 0.0
H2512 H 1.0179 0.11925 0.88706 0.0
H2513 H 1.01391 0.16993 0.79645 0.0
H2514 H 1.0154 0.21797 0.82662 0.0
H2515 H 0.99241 0.17457 0.93316 0.0
H2516 H 1.00358 0.16989 0.9705 0.0
H2517 H 1.00192 0.13869 0.94201 0.0
H2518 H 0.03293 0.1348 0.93985 0.0
H2519 H 0.03465 0.16605 0.96818 0.0
H2520 H 0.04463 0.16797 0.92921 0.0
H2521 H 1.01926 0.26099 0.86537 0.0
H2522 H 0.02244 0.29641 0.91184 0.0
H2523 H 0.0223 0.21947 0.97833 0.0
C2524 C 1.01722 0.14044 0.87367 0.0
C2525 C 1.01636 0.14054 0.83912 0.0
C2526 C 1.01518 0.16894 0.82271 0.0
C2527 C 1.01588 0.19657 0.83966 0.0
C2528 C 1.01727 0.19579 0.87338 0.0
C2529 C 1.01754 0.16859 0.89043 0.0
C2530 C 1.01858 0.17474 0.92691 0.0
C2531 C 1.00321 0.16382 0.94416 0.0
C2532 C 0.0336 0.16002 0.9419 0.0
C2533 C 1.01974 0.20936 0.92726 0.0
C2534 C 1.01878 0.22099 0.8961 0.0
C2535 C 1.01981 0.25221 0.89001 0.0
C2536 C 0.02168 0.27219 0.91659 0.0
C2537 C 0.02257 0.26092 0.94891 0.0
C2538 C 0.0216 0.22899 0.95408 0.0
H2539 H 0.2488 0.00851 0.92838 0.0
H2540 H 0.29731 1.00593 0.9666 0.0
H2541 H 0.30405 0.05254 0.93556 0.0
H2542 H 0.25979 0.03677 0.84589 0.0
H2543 H 0.2421 0.06022 0.84298 0.0
H2544 H 0.24162 0.02574 0.86673 0.0
H2545 H 0.23201 0.05738 0.91644 0.0
H2546 H 0.23302 0.09188 0.89278 0.0
H2547 H 0.24403 0.08903 0.93056 0.0
H2548 H 0.30544 0.09989 0.90194 0.0
H2549 H 0.30228 0.14308 0.86411 0.0
H2550 H 0.25275 0.11679 0.84661 0.0
C2551 C 0.26096 0.01734 0.92931 0.0
C2552 C 0.27274 1.00309 0.94904 0.0
C2553 C 0.28832 0.01593 0.9508 0.0
C2554 C 0.29217 0.04259 0.93352 0.0
C2555 C 0.2803 0.05634 0.91455 0.0
C2556 C 0.26505 0.04401 0.91191 0.0
C2557 C 0.25459 0.06363 0.88981 0.0
C2558 C 0.24922 0.04549 0.85955 0.0
C2559 C 0.24005 0.07623 0.90853 0.0
C2560 C 0.2663 0.08902 0.88065 0.0
C2561 C 0.28103 0.08423 0.89539 0.0
C2562 C 0.29397 0.10387 0.89029 0.0
C2563 C 0.29203 0.12848 0.86884 0.0
C2564 C 0.27723 0.13374 0.85274 0.0
C2565 C 0.26409 0.11391 0.85919 0.0
H2566 H 1.00191 0.13394 0.36664 0.0
H2567 H 0.04608 0.11766 0.41978 0.0
H2568 H 0.0514 0.07245 0.38551 0.0
H2569 H 0.99081 0.05534 0.35996 0.0
H2570 H 0.98229 0.05821 0.31961 0.0
H2571 H 0.98237 0.09088 0.34629 0.0
H2572 H 0.9974 0.12247 0.30244 0.0
H2573 H 0.99719 0.08994 0.27555 0.0
H2574 H 1.01596 0.10822 0.28574 0.0
H2575 H 0.05184 0.02854 0.34668 0.0
H2576 H 0.04731 0.98821 0.30569 0.0
H2577 H 1.00219 0.03046 0.27832 0.0
C2578 C 1.01291 0.1213 0.37028 0.0
C2579 C 0.02388 0.1298 0.39519 0.0
C2580 C 0.03777 0.11195 0.4003 0.0
C2581 C 0.04084 0.08614 0.38107 0.0
C2582 C 0.02979 0.07809 0.35696 0.0
C2583 C 1.01608 0.09504 0.35142 0.0
C2584 C 1.00581 0.0802 0.32495 0.0
C2585 C 0.98935 0.07059 0.33852 0.0
C2586 C 1.00399 0.10148 0.29542 0.0
C2587 C 1.01596 0.05251 0.31646 0.0
C2588 C 0.02974 0.05188 0.33523 0.0
C2589 C 0.04109 0.02882 0.33182 0.0
C2590 C 0.0384 1.00596 0.30842 0.0
C2591 C 0.02439 1.00596 0.28877 0.0
C2592 C 1.01297 0.02957 0.29311 0.0
H2593 H 0.26131 0.11526 0.35831 0.0
H2594 H 0.28772 0.15995 0.4365 0.0
H2595 H 0.2884 0.20734 0.40509 0.0
H2596 H 0.28187 0.15405 0.2903 0.0
H2597 H 0.26391 0.15818 0.26612 0.0
H2598 H 0.26576 0.12671 0.29402 0.0
H2599 H 0.2392 0.14273 0.32192 0.0
H2600 H 0.2374 0.17442 0.29426 0.0
H2601 H 0.23724 0.18089 0.3377 0.0
H2602 H 0.28504 0.25097 0.36817 0.0
H2603 H 0.28018 0.28777 0.32406 0.0
H2604 H 0.25693 0.21686 0.26677 0.0
C2605 C 0.26754 0.13483 0.36836 0.0
C2606 C 0.27453 0.13365 0.39999 0.0
C2607 C 0.28225 0.1601 0.41248 0.0
C2608 C 0.2827 0.1873 0.39483 0.0
C2609 C 0.27541 0.18808 0.36433 0.0
C2610 C 0.26812 0.16263 0.35081 0.0
C2611 C 0.261 0.17057 0.31755 0.0
C2612 C 0.2686 0.15122 0.29039 0.0
C2613 C 0.24262 0.16693 0.31789 0.0
C2614 C 0.26578 0.20406 0.31452 0.0
C2615 C 0.27382 0.21364 0.34219 0.0
C2616 C 0.27891 0.2437 0.34618 0.0
C2617 C 0.276 0.26454 0.32099 0.0
C2618 C 0.26827 0.25531 0.29178 0.0
C2619 C 0.26303 0.22458 0.28865 0.0
H2620 H 0.038 0.8589 0.1497 0.0
H2621 H 0.99417 0.9068 0.12522 0.0
H2622 H 0.98809 0.8682 0.08277 0.0
H2623 H 0.04685 0.83934 0.06262 0.0
H2624 H 0.05606 0.80367 0.07349 0.0
H2625 H 0.05701 0.83552 0.10126 0.0
H2626 H 0.04515 0.80118 0.14504 0.0
H2627 H 0.04229 0.76947 0.11794 0.0
H2628 H 0.02537 0.78473 0.13998 0.0
H2629 H 0.98646 0.82379 0.04388 0.0
H2630 H 0.99024 0.77823 0.00902 0.0
H2631 H 0.03529 0.75927 0.05781 0.0
C2632 C 0.02718 0.86124 0.13522 0.0
C2633 C 1.01647 0.88567 0.14073 0.0
C2634 C 1.00253 0.88831 0.12118 0.0
C2635 C 0.99897 0.86646 0.09713 0.0
C2636 C 1.00969 0.84253 0.09236 0.0
C2637 C 0.0237 0.84014 0.11033 0.0
C2638 C 0.0335 0.81293 0.09913 0.0
C2639 C 0.04929 0.82349 0.08319 0.0
C2640 C 0.03672 0.79075 0.12723 0.0
C2641 C 0.02229 0.79914 0.07393 0.0
C2642 C 1.00877 0.81697 0.06986 0.0
C2643 C 0.99698 0.80966 0.04694 0.0
C2644 C 0.99918 0.78374 0.02737 0.0
C2645 C 1.01288 0.76513 0.03128 0.0
C2646 C 0.02451 0.77278 0.05501 0.0
H2647 H 0.75996 0.01129 0.06519 0.0
H2648 H 0.78407 0.96656 0.98451 0.0
H2649 H 0.78413 0.9183 0.01498 0.0
H2650 H 0.78197 0.97462 0.12421 0.0
H2651 H 0.76677 0.96709 0.15379 0.0
H2652 H 0.76515 1.00022 0.12777 0.0
H2653 H 0.73803 0.98572 0.10327 0.0
H2654 H 0.73699 0.95527 0.13263 0.0
H2655 H 0.73451 0.94718 0.08975 0.0
H2656 H 0.78193 0.87449 0.05511 0.0
H2657 H 0.77876 0.84 0.10231 0.0
H2658 H 0.75647 0.91307 0.15726 0.0
C2659 C 0.76517 0.99131 0.05389 0.0
C2660 C 0.77194 0.99284 0.02238 0.0
C2661 C 0.77868 0.96607 0.00854 0.0
C2662 C 0.77873 0.93839 0.02561 0.0
C2663 C 0.77179 0.93752 0.05647 0.0
C2664 C 0.76509 0.96323 0.07037 0.0
C2665 C 0.75936 0.95658 0.10459 0.0
C2666 C 0.76885 0.97596 0.12902 0.0
C2667 C 0.74114 0.96149 0.10775 0.0
C2668 C 0.76367 0.92318 0.10785 0.0
C2669 C 0.77081 0.91254 0.07971 0.0
C2670 C 0.77623 0.88259 0.07719 0.0
C2671 C 0.77434 0.86311 0.10416 0.0
C2672 C 0.7673 0.87368 0.13356 0.0
C2673 C 0.76186 0.90418 0.13519 0.0
H2674 H 0.02429 0.92346 0.5698 0.0
H2675 H 0.02188 0.84501 0.63421 0.0
H2676 H 1.0197 0.87902 0.68149 0.0
H2677 H 0.04852 0.97071 0.62643 0.0
H2678 H 0.03861 1.00509 0.61345 0.0
H2679 H 0.04048 0.97329 0.5858 0.0
H2680 H 1.00933 0.97569 0.57795 0.0
H2681 H 1.0078 1.00583 0.60766 0.0
H2682 H 0.99654 0.97107 0.61312 0.0
H2683 H 1.01794 0.92025 0.72196 0.0
H2684 H 1.01697 0.96716 0.7542 0.0
H2685 H 0.02059 0.02086 0.66538 0.0
C2686 C 0.02334 0.91347 0.59384 0.0
C2687 C 0.0233 0.8814 0.59804 0.0
C2688 C 0.02202 0.86937 0.63006 0.0
C2689 C 0.02072 0.88853 0.65723 0.0
C2690 C 0.02079 0.91985 0.65227 0.0
C2691 C 0.02215 0.9324 0.62153 0.0
C2692 C 0.02228 0.96703 0.62357 0.0
C2693 C 0.03843 0.97983 0.61161 0.0
C2694 C 1.00814 0.9807 0.60444 0.0
C2695 C 0.0204 0.9718 0.66014 0.0
C2696 C 1.0197 0.94411 0.67606 0.0
C2697 C 1.01842 0.9421 0.7098 0.0
C2698 C 1.01789 0.96907 0.72792 0.0
C2699 C 1.0186 0.99796 0.71246 0.0
C2700 C 1.01988 0.99924 0.67798 0.0
H2701 H 0.76198 0.78881 0.72387 0.0
H2702 H 0.78273 0.7185 0.6625 0.0
H2703 H 0.78632 0.75609 0.61837 0.0
H2704 H 0.73983 0.82556 0.65896 0.0
H2705 H 0.74277 0.86354 0.67474 0.0
H2706 H 0.74242 0.83154 0.70219 0.0
H2707 H 0.77027 0.84733 0.72457 0.0
H2708 H 0.7708 0.87926 0.697 0.0
H2709 H 0.78688 0.85185 0.69677 0.0
H2710 H 0.78828 0.80066 0.58144 0.0
H2711 H 0.78507 0.84775 0.55008 0.0
H2712 H 0.76211 0.89089 0.6332 0.0
C2713 C 0.76732 0.78134 0.70116 0.0
C2714 C 0.77216 0.75053 0.6968 0.0
C2715 C 0.7789 0.74175 0.66653 0.0
C2716 C 0.78109 0.76306 0.64136 0.0
C2717 C 0.77636 0.79316 0.64656 0.0
C2718 C 0.76939 0.80231 0.67547 0.0
C2719 C 0.76459 0.83582 0.67378 0.0
C2720 C 0.74632 0.83931 0.67764 0.0
C2721 C 0.77368 0.85467 0.69957 0.0
C2722 C 0.77 0.84406 0.63933 0.0
C2723 C 0.77692 0.819 0.62446 0.0
C2724 C 0.78272 0.82028 0.5927 0.0
C2725 C 0.78087 0.84731 0.5751 0.0
C2726 C 0.77334 0.87321 0.589 0.0
C2727 C 0.76811 0.87172 0.62195 0.0
H2728 H 0.02383 0.71524 0.48241 0.0
H2729 H 1.01376 0.78843 0.41427 0.0
H2730 H 1.00772 0.75053 0.37165 0.0
H2731 H 0.0444 0.66656 0.43067 0.0
H2732 H 0.0355 0.63139 0.44461 0.0
H2733 H 0.03669 0.66361 0.47169 0.0
H2734 H 1.0061 0.66093 0.48106 0.0
H2735 H 1.00469 0.62864 0.45387 0.0
H2736 H 0.99266 0.66198 0.44658 0.0
H2737 H 1.0029 0.70609 0.33675 0.0
H2738 H 1.00581 0.65867 0.30558 0.0
H2739 H 0.02122 0.61189 0.39337 0.0
C2740 C 0.02035 0.72329 0.45851 0.0
C2741 C 1.01922 0.75502 0.45184 0.0
C2742 C 1.01469 0.76446 0.42016 0.0
C2743 C 1.01119 0.74304 0.39575 0.0
C2744 C 1.01239 0.71214 0.40311 0.0
C2745 C 1.01701 0.70209 0.43354 0.0
C2746 C 1.01814 0.66736 0.434 0.0
C2747 C 0.03468 0.65662 0.44591 0.0
C2748 C 1.0046 0.65393 0.45514 0.0
C2749 C 1.01527 0.65994 0.39805 0.0
C2750 C 1.01095 0.6861 0.38157 0.0
C2751 C 1.00692 0.68569 0.34877 0.0
C2752 C 1.00859 0.65854 0.33139 0.0
C2753 C 1.01429 0.63176 0.34662 0.0
C2754 C 1.01705 0.63208 0.38088 0.0
H2755 H 0.25004 0.61419 0.3443 0.0
H2756 H 0.29965 0.6416 0.3579 0.0
H2757 H 0.30321 0.60061 0.39874 0.0
H2758 H 0.24446 0.59814 0.43299 0.0
H2759 H 0.23044 0.56747 0.4259 0.0
H2760 H 0.23159 0.59876 0.39756 0.0
H2761 H 0.23773 0.56117 0.34882 0.0
H2762 H 0.23447 0.53143 0.37836 0.0
H2763 H 0.25274 0.53231 0.35559 0.0
H2764 H 0.30191 0.55479 0.43544 0.0
H2765 H 0.29507 0.51031 0.46991 0.0
H2766 H 0.24588 0.51371 0.43552 0.0
C2767 C 0.2616 0.61152 0.3561 0.0
C2768 C 0.27465 0.63085 0.34794 0.0
C2769 C 0.28955 0.62706 0.36397 0.0
C2770 C 0.29167 0.60377 0.38704 0.0
C2771 C 0.27867 0.58481 0.39435 0.0
C2772 C 0.26379 0.58882 0.37995 0.0
C2773 C 0.25155 0.56656 0.39405 0.0
C2774 C 0.23876 0.58377 0.4138 0.0
C2775 C 0.24366 0.54678 0.36754 0.0
C2776 C 0.26223 0.54773 0.41632 0.0
C2777 C 0.27776 0.55905 0.41654 0.0
C2778 C 0.2898 0.54574 0.43539 0.0
C2779 C 0.28587 0.52037 0.45466 0.0
C2780 C 0.2701 0.50829 0.45466 0.0
C2781 C 0.25812 0.52217 0.43531 0.0
H2782 H 1.00112 0.51065 0.80192 0.0
H2783 H 0.05188 0.51279 0.77894 0.0
H2784 H 0.05529 0.55875 0.81337 0.0
H2785 H 0.99671 0.59436 0.80124 0.0
H2786 H 0.98192 0.59411 0.83332 0.0
H2787 H 0.9836 0.56195 0.80613 0.0
H2788 H 0.98607 0.52832 0.85572 0.0
H2789 H 0.9869 0.55896 0.88504 0.0
H2790 H 1.00304 0.53181 0.88229 0.0
H2791 H 0.05295 0.60603 0.84722 0.0
H2792 H 0.04586 0.64808 0.88474 0.0
H2793 H 0.99696 0.6142 0.88983 0.0
C2794 C 1.01299 0.52045 0.80493 0.0
C2795 C 0.02639 0.50771 0.7888 0.0
C2796 C 0.04162 0.52179 0.79199 0.0
C2797 C 0.04361 0.54807 0.81114 0.0
C2798 C 0.03018 0.56028 0.82664 0.0
C2799 C 1.01516 0.54697 0.82384 0.0
C2800 C 1.00273 0.56509 0.84284 0.0
C2801 C 0.99052 0.57974 0.81948 0.0
C2802 C 0.99418 0.54493 0.86804 0.0
C2803 C 1.01335 0.58935 0.8586 0.0
C2804 C 0.02899 0.58688 0.84761 0.0
C2805 C 0.0408 0.60799 0.85635 0.0
C2806 C 0.03665 0.63192 0.87745 0.0
C2807 C 0.02093 0.63427 0.89018 0.0
C2808 C 1.00911 0.61272 0.88058 0.0
H2809 H 0.28074 0.6192 0.86371 0.0
H2810 H 0.25361 0.66105 0.94233 0.0
H2811 H 0.24912 0.70628 0.90864 0.0
H2812 H 0.30018 0.68833 0.83859 0.0
H2813 H 0.29968 0.68005 0.7955 0.0
H2814 H 0.30024 0.64936 0.82462 0.0
H2815 H 0.27434 0.62629 0.79946 0.0
H2816 H 0.27383 0.65676 0.77007 0.0
H2817 H 0.25665 0.64964 0.79572 0.0
H2818 H 0.24896 0.74828 0.86947 0.0
H2819 H 0.25162 0.78447 0.82392 0.0
H2820 H 0.27795 0.71684 0.76831 0.0
C2821 C 0.27358 0.63765 0.87343 0.0
C2822 C 0.26751 0.63651 0.9057 0.0
C2823 C 0.25846 0.66138 0.9178 0.0
C2824 C 0.2558 0.68724 0.89884 0.0
C2825 C 0.2622 0.68808 0.86759 0.0
C2826 C 0.27081 0.66401 0.85466 0.0
C2827 C 0.27686 0.67189 0.82065 0.0
C2828 C 0.29533 0.67244 0.8198 0.0
C2829 C 0.27 0.64983 0.79496 0.0
C2830 C 0.27004 0.70378 0.81658 0.0
C2831 C 0.26183 0.71264 0.84425 0.0
C2832 C 0.25518 0.74154 0.84745 0.0
C2833 C 0.25682 0.76198 0.82153 0.0
C2834 C 0.26485 0.75334 0.79259 0.0
C2835 C 0.27152 0.7238 0.79003 0.0
H2836 H 0.99549 0.26417 0.55462 0.0
H2837 H 0.04516 0.25383 0.52545 0.0
H2838 H 0.0529 0.29695 0.56133 0.0
H2839 H 0.99676 0.34799 0.55927 0.0
H2840 H 0.98326 0.34938 0.59362 0.0
H2841 H 0.98181 0.31863 0.56455 0.0
H2842 H 0.98367 0.28219 0.61176 0.0
H2843 H 0.98783 0.31049 0.64258 0.0
H2844 H 1.00164 0.27963 0.63545 0.0
H2845 H 0.05512 0.34206 0.59901 0.0
H2846 H 0.05206 0.38415 0.63888 0.0
H2847 H 1.0012 0.36423 0.64646 0.0
C2848 C 1.00799 0.27093 0.55615 0.0
C2849 C 1.01984 0.25549 0.53786 0.0
C2850 C 0.03602 0.26514 0.5398 0.0
C2851 C 0.04048 0.28969 0.55994 0.0
C2852 C 0.02858 0.30442 0.57792 0.0
C2853 C 1.01265 0.29548 0.57621 0.0
C2854 C 1.00225 0.31527 0.5981 0.0
C2855 C 0.99032 0.33392 0.57766 0.0
C2856 C 0.99335 0.29583 0.62355 0.0
C2857 C 1.01494 0.33589 0.61345 0.0
C2858 C 0.02997 0.32975 0.60068 0.0
C2859 C 0.04346 0.34691 0.60938 0.0
C2860 C 0.04162 0.37084 0.63189 0.0
C2861 C 0.02646 0.37728 0.64565 0.0
C2862 C 1.01295 0.35956 0.63635 0.0
H2863 H 0.76304 0.41892 0.66586 0.0
H2864 H 0.77281 0.34186 0.60239 0.0
H2865 H 0.77615 0.37672 0.55595 0.0
H2866 H 0.74024 0.46226 0.60452 0.0
H2867 H 0.7478 0.49838 0.61899 0.0
H2868 H 0.74574 0.46684 0.6467 0.0
H2869 H 0.77621 0.47254 0.66203 0.0
H2870 H 0.77769 0.50399 0.63403 0.0
H2871 H 0.79092 0.47177 0.62988 0.0
H2872 H 0.77881 0.41954 0.51622 0.0
H2873 H 0.78004 0.46767 0.48564 0.0
H2874 H 0.7683 0.51776 0.57388 0.0
C2875 C 0.76582 0.40936 0.64221 0.0
C2876 C 0.76763 0.37748 0.63801 0.0
C2877 C 0.77128 0.36605 0.60647 0.0
C2878 C 0.77324 0.38571 0.57983 0.0
C2879 C 0.77143 0.41689 0.58484 0.0
C2880 C 0.76769 0.42872 0.61514 0.0
C2881 C 0.76621 0.46322 0.61355 0.0
C2882 C 0.74898 0.47328 0.62141 0.0
C2883 C 0.77849 0.4788 0.63621 0.0
C2884 C 0.77011 0.46886 0.57788 0.0
C2885 C 0.77297 0.44175 0.56177 0.0
C2886 C 0.7766 0.44091 0.52861 0.0
C2887 C 0.7773 0.46847 0.51142 0.0
C2888 C 0.77435 0.49664 0.52727 0.0
C2889 C 0.7707 0.49669 0.56102 0.0
H2890 H 0.03541 0.47701 0.22322 0.0
H2891 H 0.99872 0.53088 0.17538 0.0
H2892 H 0.99387 0.48875 0.13631 0.0
H2893 H 0.0523 0.44627 0.15011 0.0
H2894 H 0.05651 0.40935 0.16728 0.0
H2895 H 0.05606 0.44244 0.19327 0.0
H2896 H 0.03479 0.41611 0.22979 0.0
H2897 H 0.03505 0.38304 0.20363 0.0
H2898 H 1.0164 0.40231 0.21174 0.0
H2899 H 0.9914 0.43909 0.10562 0.0
H2900 H 0.99653 0.39154 0.07492 0.0
H2901 H 0.038 0.37333 0.13547 0.0
C2902 C 0.02638 0.47991 0.20444 0.0
C2903 C 1.01738 0.50725 0.20238 0.0
C2904 C 1.0058 0.5103 0.17731 0.0
C2905 C 1.00283 0.48632 0.15529 0.0
C2906 C 1.01172 0.45954 0.15828 0.0
C2907 C 0.02357 0.45648 0.18163 0.0
C2908 C 0.03233 0.42628 0.17765 0.0
C2909 C 0.05037 0.43141 0.1717 0.0
C2910 C 0.02947 0.40573 0.20748 0.0
C2911 C 0.02396 0.4134 0.14758 0.0
C2912 C 1.0116 0.43239 0.13792 0.0
C2913 C 1.00141 0.42467 0.11224 0.0
C2914 C 1.00452 0.3979 0.09468 0.0
C2915 C 1.01816 0.37997 0.10154 0.0
C2916 C 0.02766 0.38706 0.12924 0.0
H2917 H 0.78307 0.38977 0.13112 0.0
H2918 H 0.74278 0.35838 0.07245 0.0
H2919 H 0.74041 0.31268 0.10666 0.0
H2920 H 0.79978 0.31334 0.14215 0.0
H2921 H 0.80674 0.32049 0.18312 0.0
H2922 H 0.80545 0.35136 0.15429 0.0
H2923 H 0.78727 0.38127 0.19426 0.0
H2924 H 0.78853 0.35053 0.22321 0.0
H2925 H 0.76918 0.36365 0.20951 0.0
H2926 H 0.74239 0.26996 0.14566 0.0
H2927 H 0.74815 0.23289 0.18924 0.0
H2928 H 0.7867 0.29079 0.22502 0.0
C2929 C 0.77362 0.37347 0.12588 0.0
C2930 C 0.763 0.37791 0.09921 0.0
C2931 C 0.75105 0.35561 0.09267 0.0
C2932 C 0.7496 0.32949 0.11197 0.0
C2933 C 0.76026 0.32561 0.13778 0.0
C2934 C 0.77208 0.34683 0.14487 0.0
C2935 C 0.78222 0.3362 0.17362 0.0
C2936 C 0.79958 0.32999 0.16265 0.0
C2937 C 0.78176 0.3593 0.20182 0.0
C2938 C 0.77367 0.30663 0.18251 0.0
C2939 C 0.76129 0.30075 0.16089 0.0
C2940 C 0.752 0.27437 0.16287 0.0
C2941 C 0.75537 0.25342 0.18768 0.0
C2942 C 0.76773 0.2591 0.21065 0.0
C2943 C 0.77699 0.28615 0.20807 0.0
H2944 H 0.51271 0.22104 0.4793 0.0
H2945 H 0.54588 0.27913 0.42646 0.0
H2946 H 0.54946 0.23867 0.38508 0.0
H2947 H 0.53153 0.14792 0.46101 0.0
H2948 H 0.51283 0.12785 0.45502 0.0
H2949 H 0.51376 0.15998 0.48244 0.0
H2950 H 0.49085 0.18631 0.45058 0.0
H2951 H 0.48972 0.15415 0.42332 0.0
H2952 H 0.49281 0.1919 0.40719 0.0
H2953 H 0.55156 0.19087 0.35315 0.0
H2954 H 0.54484 0.14662 0.31852 0.0
H2955 H 0.50811 0.11925 0.38762 0.0
C2956 C 0.52077 0.22504 0.459 0.0
C2957 C 0.52935 0.25293 0.45629 0.0
C2958 C 0.53939 0.25784 0.42907 0.0
C2959 C 0.54155 0.23493 0.4056 0.0
C2960 C 0.53322 0.2075 0.40922 0.0
C2961 C 0.5226 0.20272 0.43454 0.0
C2962 C 0.51405 0.17211 0.43058 0.0
C2963 C 0.51829 0.1507 0.45895 0.0
C2964 C 0.49577 0.17639 0.42773 0.0
C2965 C 0.52132 0.16085 0.39862 0.0
C2966 C 0.53281 0.18125 0.38777 0.0
C2967 C 0.54192 0.17568 0.36006 0.0
C2968 C 0.53824 0.15015 0.34099 0.0
C2969 C 0.52592 0.12969 0.3502 0.0
C2970 C 0.5176 0.13458 0.37998 0.0
H2971 H 0.74603 0.02771 0.45677 0.0
H2972 H 0.7914 0.98288 0.4382 0.0
H2973 H 0.80011 0.0267 0.40443 0.0
H2974 H 0.74255 0.05847 0.3731 0.0
H2975 H 0.73271 0.09277 0.38656 0.0
H2976 H 0.73025 0.05796 0.40928 0.0
H2977 H 0.74024 0.08568 0.46142 0.0
H2978 H 0.74306 0.12038 0.43869 0.0
H2979 H 0.75959 0.10427 0.46121 0.0
H2980 H 0.80422 0.07603 0.37441 0.0
H2981 H 0.80217 0.12387 0.34319 0.0
H2982 H 0.75358 0.13657 0.37833 0.0
C2983 C 0.75772 0.02708 0.44524 0.0
C2984 C 0.76806 1.00189 0.44991 0.0
C2985 C 0.78325 1.00175 0.4345 0.0
C2986 C 0.78833 0.02668 0.41557 0.0
C2987 C 0.77796 0.05138 0.41177 0.0
C2988 C 0.7628 0.05146 0.42545 0.0
C2989 C 0.75368 0.0801 0.41588 0.0
C2990 C 0.73892 0.07183 0.39497 0.0
C2991 C 0.74887 0.0987 0.44612 0.0
C2992 C 0.76628 0.09672 0.39575 0.0
C2993 C 0.7802 0.07965 0.39381 0.0
C2994 C 0.79341 0.08957 0.37587 0.0
C2995 C 0.79219 0.11697 0.35849 0.0
C2996 C 0.77792 0.13446 0.35908 0.0
C2997 C 0.76487 0.12437 0.37844 0.0
H2998 H 0.52489 0.09232 0.9142 0.0
H2999 H 0.51232 0.16684 0.8497 0.0
H3000 H 0.51253 0.13168 0.80292 0.0
H3001 H 0.55198 0.05467 0.85786 0.0
H3002 H 0.54614 0.01689 0.8704 0.0
H3003 H 0.54492 0.04816 0.89871 0.0
H3004 H 0.51441 0.03538 0.90771 0.0
H3005 H 0.51617 1.00433 0.87912 0.0
H3006 H 0.5013 0.03347 0.87278 0.0
H3007 H 0.51519 0.08978 0.76272 0.0
H3008 H 0.51955 0.04292 0.73121 0.0
H3009 H 0.5299 0.9938 0.82067 0.0
C3010 C 0.52209 0.10114 0.8903 0.0
C3011 C 0.51861 0.13246 0.88582 0.0
C3012 C 0.51509 0.14309 0.85397 0.0
C3013 C 0.51514 0.12325 0.82714 0.0
C3014 C 0.51875 0.0927 0.83237 0.0
C3015 C 0.52215 0.08155 0.86308 0.0
C3016 C 0.52595 0.04768 0.86155 0.0
C3017 C 0.54327 0.04149 0.87281 0.0
C3018 C 0.51374 0.02911 0.88147 0.0
C3019 C 0.52413 0.04166 0.82519 0.0
C3020 C 0.52004 0.06809 0.80894 0.0
C3021 C 0.51831 0.06891 0.77519 0.0
C3022 C 0.52089 0.04209 0.75747 0.0
C3023 C 0.52508 0.01456 0.77337 0.0
C3024 C 0.52661 0.01438 0.80781 0.0
H3025 H 0.7613 0.21584 0.76171 0.0
H3026 H 0.7765 0.29132 0.82327 0.0
H3027 H 0.78208 0.25536 0.86801 0.0
H3028 H 0.74105 0.17419 0.82426 0.0
H3029 H 0.74699 0.13725 0.80935 0.0
H3030 H 0.74502 0.16863 0.78142 0.0
H3031 H 0.77427 0.16037 0.76207 0.0
H3032 H 0.77639 0.12905 0.79011 0.0
H3033 H 0.79035 0.16051 0.79158 0.0
H3034 H 0.78656 0.21179 0.90539 0.0
H3035 H 0.78566 0.16452 0.93709 0.0
H3036 H 0.76678 0.11598 0.85275 0.0
C3037 C 0.76586 0.22481 0.78456 0.0
C3038 C 0.76855 0.25649 0.78887 0.0
C3039 C 0.77435 0.26725 0.8193 0.0
C3040 C 0.77766 0.24695 0.84481 0.0
C3041 C 0.77505 0.21592 0.83962 0.0
C3042 C 0.7691 0.20485 0.81046 0.0
C3043 C 0.76661 0.17053 0.81204 0.0
C3044 C 0.74886 0.16217 0.80645 0.0
C3045 C 0.77756 0.15415 0.78749 0.0
C3046 C 0.77177 0.16415 0.84694 0.0
C3047 C 0.77689 0.1907 0.86201 0.0
C3048 C 0.78225 0.19103 0.89412 0.0
C3049 C 0.78174 0.16389 0.91186 0.0
C3050 C 0.77597 0.13646 0.89759 0.0
C3051 C 0.77126 0.1365 0.86436 0.0
H3052 H 0.53133 0.88547 0.60942 0.0
H3053 H 0.50894 0.84253 0.69329 0.0
H3054 H 0.50556 0.79513 0.66202 0.0
H3055 H 0.50554 0.84881 0.54803 0.0
H3056 H 0.52151 0.84431 0.51877 0.0
H3057 H 0.52206 0.87549 0.54742 0.0
H3058 H 0.55016 0.85816 0.567 0.0
H3059 H 0.54962 0.82678 0.53861 0.0
H3060 H 0.55283 0.81973 0.58144 0.0
H3061 H 0.50612 0.7515 0.62397 0.0
H3062 H 0.50786 0.71498 0.57849 0.0
H3063 H 0.52857 0.78542 0.51705 0.0
C3064 C 0.5256 0.86614 0.62102 0.0
C3065 C 0.5207 0.86756 0.65409 0.0
C3066 C 0.51315 0.84183 0.6683 0.0
C3067 C 0.51111 0.81478 0.6507 0.0
C3068 C 0.51649 0.81374 0.61862 0.0
C3069 C 0.52337 0.83876 0.6036 0.0
C3070 C 0.52798 0.83114 0.5686 0.0
C3071 C 0.51872 0.85113 0.54427 0.0
C3072 C 0.54623 0.83413 0.56364 0.0
C3073 C 0.5226 0.79804 0.56654 0.0
C3074 C 0.51618 0.78852 0.59588 0.0
C3075 C 0.51093 0.75873 0.60071 0.0
C3076 C 0.51205 0.73809 0.57472 0.0
C3077 C 0.51824 0.74731 0.54408 0.0
C3078 C 0.5236 0.77776 0.54004 0.0
H3079 H 0.27591 0.96476 0.51496 0.0
H3080 H 0.25933 0.0379 0.57795 0.0
H3081 H 0.25399 1.00087 0.6215 0.0
H3082 H 0.24756 0.90645 0.54358 0.0
H3083 H 0.26201 0.87598 0.54224 0.0
H3084 H 0.2638 0.90767 0.51453 0.0
H3085 H 0.29273 0.91776 0.53468 0.0
H3086 H 0.29115 0.88607 0.56236 0.0
H3087 H 0.29644 0.92332 0.57766 0.0
H3088 H 0.24988 0.95754 0.6576 0.0
H3089 H 0.25095 0.91052 0.68914 0.0
H3090 H 0.27149 0.86296 0.60595 0.0
C3091 C 0.27106 0.97288 0.53787 0.0
C3092 C 0.26797 1.00435 0.54294 0.0
C3093 C 0.26182 0.01407 0.5734 0.0
C3094 C 0.25863 0.99314 0.59827 0.0
C3095 C 0.26171 0.96244 0.59253 0.0
C3096 C 0.26798 0.95218 0.56337 0.0
C3097 C 0.27101 0.91794 0.56482 0.0
C3098 C 0.26046 0.90101 0.5398 0.0
C3099 C 0.2889 0.91087 0.55958 0.0
C3100 C 0.26576 0.91086 0.59965 0.0
C3101 C 0.26013 0.937 0.61459 0.0
C3102 C 0.2545 0.93703 0.64642 0.0
C3103 C 0.25516 0.90999 0.66414 0.0
C3104 C 0.2615 0.88289 0.65033 0.0
C3105 C 0.26656 0.88318 0.61724 0.0
H3106 H 0.53659 0.87694 0.13356 0.0
H3107 H 0.50083 0.90442 0.06256 0.0
H3108 H 0.49417 0.94918 0.09629 0.0
H3109 H 0.51271 0.9046 0.20584 0.0
H3110 H 0.53049 0.91618 0.2278 0.0
H3111 H 0.53129 0.88437 0.19997 0.0
H3112 H 0.55468 0.91052 0.16909 0.0
H3113 H 0.5538 0.94256 0.19649 0.0
H3114 H 0.55196 0.94841 0.15312 0.0
H3115 H 0.49557 0.99611 0.13047 0.0
H3116 H 0.49966 0.03635 0.17215 0.0
H3117 H 0.5324 0.97736 0.22451 0.0
C3118 C 0.52731 0.89239 0.12534 0.0
C3119 C 0.51959 0.88797 0.09492 0.0
C3120 C 0.5073 0.90817 0.08515 0.0
C3121 C 0.50333 0.93345 0.10428 0.0
C3122 C 0.51194 0.93853 0.13288 0.0
C3123 C 0.52328 0.9181 0.1441 0.0
C3124 C 0.53049 0.92897 0.17616 0.0
C3125 C 0.52597 0.90724 0.2041 0.0
C3126 C 0.54882 0.93285 0.17353 0.0
C3127 C 0.52215 0.95949 0.17992 0.0
C3128 C 0.51156 0.96456 0.15454 0.0
C3129 C 0.50348 0.99214 0.15099 0.0
C3130 C 0.50598 0.01494 0.17449 0.0
C3131 C 0.5162 0.00969 0.20143 0.0
C3132 C 0.52436 0.98163 0.20422 0.0
H3133 H 0.29098 0.76075 0.18316 0.0
H3134 H 0.24136 0.75627 0.2144 0.0
H3135 H 0.23494 0.80072 0.17964 0.0
H3136 H 0.293 0.8442 0.18068 0.0
H3137 H 0.30606 0.84495 0.14563 0.0
H3138 H 0.3067 0.81324 0.17347 0.0
H3139 H 0.30227 0.77753 0.12544 0.0
H3140 H 0.29982 0.80786 0.09627 0.0
H3141 H 0.28416 0.77982 0.10185 0.0
H3142 H 0.23417 0.84729 0.14357 0.0
H3143 H 0.23837 0.88921 0.10402 0.0
H3144 H 0.28809 0.86237 0.09287 0.0
C3145 C 0.27872 0.76886 0.18206 0.0
C3146 C 0.26651 0.75461 0.20066 0.0
C3147 C 0.25074 0.76641 0.19961 0.0
C3148 C 0.24704 0.79183 0.18021 0.0
C3149 C 0.2593 0.80549 0.16215 0.0
C3150 C 0.27483 0.7944 0.16281 0.0
C3151 C 0.28574 0.81341 0.14102 0.0
C3152 C 0.29863 0.82993 0.16142 0.0
C3153 C 0.29346 0.79353 0.1145 0.0
C3154 C 0.27376 0.83603 0.12686 0.0
C3155 C 0.2587 0.83163 0.1403 0.0
C3156 C 0.24586 0.85073 0.13265 0.0
C3157 C 0.24835 0.87458 0.11031 0.0
C3158 C 0.26347 0.87891 0.09533 0.0
C3159 C 0.27636 0.85938 0.10382 0.0
H3160 H 0.51841 0.67142 0.82632 0.0
H3161 H 0.51641 0.59378 0.89173 0.0
H3162 H 0.51694 0.62865 0.93902 0.0
H3163 H 0.54533 0.7196 0.87544 0.0
H3164 H 0.53458 0.75257 0.8613 0.0
H3165 H 0.53528 0.7182 0.83694 0.0
H3166 H 0.50072 0.72021 0.84103 0.0
H3167 H 0.50441 0.75458 0.8646 0.0
H3168 H 0.49317 0.72336 0.88137 0.0
H3169 H 0.51764 0.6724 0.97943 0.0
H3170 H 0.51979 0.72049 0.00957 0.0
H3171 H 0.52234 0.77054 0.91832 0.0
C3172 C 0.51804 0.66165 0.85056 0.0
C3173 C 0.51744 0.62961 0.85503 0.0
C3174 C 0.51695 0.61808 0.88736 0.0
C3175 C 0.51721 0.63777 0.9145 0.0
C3176 C 0.51795 0.66911 0.90915 0.0
C3177 C 0.51831 0.68098 0.87805 0.0
C3178 C 0.51915 0.71556 0.87917 0.0
C3179 C 0.53442 0.72727 0.86212 0.0
C3180 C 0.50355 0.72934 0.86555 0.0
C3181 C 0.52002 0.72136 0.91548 0.0
C3182 C 0.51888 0.69422 0.93239 0.0
C3183 C 0.5187 0.69366 0.96626 0.0
C3184 C 0.51996 0.72137 0.98316 0.0
C3185 C 0.52152 0.74968 0.96643 0.0
C3186 C 0.52133 0.74952 0.93197 0.0
H3187 H 0.78414 0.50467 0.93425 0.0
H3188 H 0.74608 0.53867 -0.00368 0.0
H3189 H 0.74538 0.58652 0.96474 0.0
H3190 H 0.80384 0.5813 0.92648 0.0
H3191 H 0.81028 0.57401 0.88524 0.0
H3192 H 0.8084 0.54296 0.91375 0.0
H3193 H 0.78878 0.5146 0.87482 0.0
H3194 H 0.79181 0.54522 0.8465 0.0
H3195 H 0.7716 0.53485 0.85912 0.0
H3196 H 0.74842 0.63049 0.92583 0.0
H3197 H 0.75333 0.66544 0.8797 0.0
H3198 H 0.78897 0.60317 0.84119 0.0
C3199 C 0.77555 0.5221 0.94082 0.0
C3200 C 0.76489 0.51768 0.96723 0.0
C3201 C 0.75419 0.54141 0.97585 0.0
C3202 C 0.7538 0.5688 0.95824 0.0
C3203 C 0.7645 0.57262 0.93245 0.0
C3204 C 0.77528 0.55008 0.92394 0.0
C3205 C 0.78546 0.56021 0.89521 0.0
C3206 C 0.80303 0.5649 0.90581 0.0
C3207 C 0.7843 0.53732 0.86719 0.0
C3208 C 0.77762 0.59051 0.88675 0.0
C3209 C 0.76607 0.59784 0.9096 0.0
C3210 C 0.75741 0.62494 0.90775 0.0
C3211 C 0.76031 0.64472 0.88145 0.0
C3212 C 0.77144 0.63704 0.85667 0.0
C3213 C 0.78031 0.60962 0.85964 0.0
H3214 H 0.53474 0.54359 0.26324 0.0
H3215 H 0.5076 0.4744 0.31522 0.0
H3216 H 0.49965 0.5126 0.35616 0.0
H3217 H 0.55051 0.58 0.33442 0.0
H3218 H 0.54945 0.61815 0.31834 0.0
H3219 H 0.55177 0.58631 0.29102 0.0
H3220 H 0.52646 0.6032 0.25936 0.0
H3221 H 0.52388 0.63495 0.28683 0.0
H3222 H 0.50776 0.60799 0.28084 0.0
H3223 H 0.49397 0.55756 0.39056 0.0
H3224 H 0.49629 0.60312 0.42514 0.0
H3225 H 0.52857 0.64448 0.35477 0.0
C3226 C 0.52706 0.53658 0.2832 0.0
C3227 C 0.5217 0.50591 0.28583 0.0
C3228 C 0.51188 0.4976 0.31257 0.0
C3229 C 0.50715 0.51926 0.33582 0.0
C3230 C 0.51246 0.54924 0.33236 0.0
C3231 C 0.52248 0.5579 0.30721 0.0
C3232 C 0.52755 0.59116 0.31117 0.0
C3233 C 0.54591 0.59406 0.31392 0.0
C3234 C 0.52102 0.61047 0.28286 0.0
C3235 C 0.51928 0.59939 0.34316 0.0
C3236 C 0.51017 0.57503 0.35404 0.0
C3237 C 0.50131 0.57655 0.38269 0.0
C3238 C 0.50265 0.60268 0.40208 0.0
C3239 C 0.51267 0.62738 0.39286 0.0
C3240 C 0.52071 0.62613 0.36236 0.0
H3241 H 0.77634 0.7249 0.27052 0.0
H3242 H 0.7599 0.8 0.33077 0.0
H3243 H 0.75795 0.76511 0.37801 0.0
H3244 H 0.75156 0.66676 0.30409 0.0
H3245 H 0.76673 0.63758 0.30268 0.0
H3246 H 0.76722 0.66843 0.27379 0.0
H3247 H 0.79625 0.68186 0.29143 0.0
H3248 H 0.79593 0.65086 0.32018 0.0
H3249 H 0.80055 0.68893 0.3339 0.0
H3250 H 0.75658 0.72169 0.41787 0.0
H3251 H 0.75784 0.67408 0.44914 0.0
H3252 H 0.77611 0.62662 0.36391 0.0
C3253 C 0.77236 0.73409 0.29366 0.0
C3254 C 0.76819 0.7653 0.29684 0.0
C3255 C 0.7632 0.77632 0.32768 0.0
C3256 C 0.76198 0.7566 0.35462 0.0
C3257 C 0.76595 0.72594 0.35046 0.0
C3258 C 0.77124 0.7148 0.32087 0.0
C3259 C 0.77506 0.68098 0.32311 0.0
C3260 C 0.76451 0.66234 0.29952 0.0
C3261 C 0.79301 0.67533 0.31679 0.0
C3262 C 0.77073 0.6746 0.35848 0.0
C3263 C 0.76553 0.70095 0.37371 0.0
C3264 C 0.76077 0.70104 0.40623 0.0
C3265 C 0.7616 0.67375 0.42385 0.0
C3266 C 0.76728 0.64646 0.40927 0.0
C3267 C 0.77169 0.64694 0.37586 0.0
H3268 H 0.52568 0.34575 0.16159 0.0
H3269 H 0.50932 0.42023 0.10063 0.0
H3270 H 0.50567 0.38447 0.05482 0.0
H3271 H 0.54768 0.30537 0.09815 0.0
H3272 H 0.54216 0.26835 0.11352 0.0
H3273 H 0.54374 0.30031 0.14094 0.0
H3274 H 0.51396 0.28997 0.15976 0.0
H3275 H 0.5129 0.2583 0.13172 0.0
H3276 H 0.49837 0.28853 0.12934 0.0
H3277 H 0.50361 0.34123 0.01574 0.0
H3278 H 0.50453 0.29371 0.98444 0.0
H3279 H 0.52242 0.24572 0.06968 0.0
C3280 C 0.52137 0.35457 0.13864 0.0
C3281 C 0.51777 0.38597 0.13502 0.0
C3282 C 0.51216 0.39644 0.10434 0.0
C3283 C 0.51001 0.37623 0.07808 0.0
C3284 C 0.51352 0.34551 0.08269 0.0
C3285 C 0.51918 0.33466 0.11208 0.0
C3286 C 0.52215 0.30049 0.11024 0.0
C3287 C 0.53998 0.2932 0.11608 0.0
C3288 C 0.51121 0.2833 0.1342 0.0
C3289 C 0.51738 0.29389 0.07514 0.0
C3290 C 0.51236 0.32029 0.05989 0.0
C3291 C 0.50754 0.32046 0.02743 0.0
C3292 C 0.50815 0.29316 0.00983 0.0
C3293 C 0.51363 0.26574 0.02444 0.0
C3294 C 0.51807 0.26611 0.05781 0.0
H3295 H 0.29576 0.48823 0.04877 0.0
H3296 H 0.24569 0.50887 0.03087 0.0
H3297 H 0.23754 0.46598 0.06656 0.0
H3298 H 0.29178 0.40657 0.05031 0.0
H3299 H 0.30607 0.4013 0.0829 0.0
H3300 H 0.30794 0.43352 0.05599 0.0
H3301 H 0.30748 0.46997 0.10552 0.0
H3302 H 0.30547 0.43816 0.13294 0.0
H3303 H 0.29091 0.46844 0.13369 0.0
H3304 H 0.23493 0.4205 0.10399 0.0
H3305 H 0.23802 0.3775 0.14268 0.0
H3306 H 0.28975 0.38675 0.13726 0.0
C3307 C 0.28311 0.48364 0.05256 0.0
C3308 C 0.27129 0.50166 0.03731 0.0
C3309 C 0.25485 0.49521 0.04258 0.0
C3310 C 0.25014 0.4709 0.06269 0.0
C3311 C 0.26206 0.45331 0.07737 0.0
C3312 C 0.27821 0.4595 0.07277 0.0
C3313 C 0.28858 0.43746 0.0919 0.0
C3314 C 0.29922 0.4186 0.0689 0.0
C3315 C 0.29871 0.45452 0.11754 0.0
C3316 C 0.27577 0.41778 0.10783 0.0
C3317 C 0.26055 0.42724 0.099 0.0
C3318 C 0.24679 0.41279 0.11087 0.0
C3319 C 0.24863 0.38828 0.13259 0.0
C3320 C 0.26409 0.37846 0.14213 0.0
C3321 C 0.27781 0.39342 0.12962 0.0
H3322 H 0.51976 0.42644 0.56758 0.0
H3323 H 0.52239 0.35069 0.63552 0.0
H3324 H 0.52256 0.38656 0.68146 0.0
H3325 H 0.54567 0.47806 0.61681 0.0
H3326 H 0.53429 0.51112 0.60489 0.0
H3327 H 0.53533 0.47828 0.57832 0.0
H3328 H 0.5041 0.47786 0.57715 0.0
H3329 H 0.50337 0.50908 0.60569 0.0
H3330 H 0.49337 0.47367 0.61512 0.0
H3331 H 0.52436 0.42962 0.7201 0.0
H3332 H 0.52392 0.4777 0.75039 0.0
H3333 H 0.51721 0.52783 0.66033 0.0
C3334 C 0.52035 0.41742 0.59212 0.0
C3335 C 0.52104 0.38544 0.5976 0.0
C3336 C 0.52176 0.37483 0.63028 0.0
C3337 C 0.52194 0.3951 0.65674 0.0
C3338 C 0.52127 0.42623 0.65053 0.0
C3339 C 0.52031 0.43751 0.61919 0.0
C3340 C 0.51956 0.47226 0.61998 0.0
C3341 C 0.53462 0.48582 0.60406 0.0
C3342 C 0.50418 0.4839 0.60351 0.0
C3343 C 0.51961 0.47858 0.65658 0.0
C3344 C 0.52112 0.45149 0.67346 0.0
C3345 C 0.52271 0.45086 0.70717 0.0
C3346 C 0.52229 0.47843 0.72425 0.0
C3347 C 0.51974 0.50663 0.7082 0.0
C3348 C 0.51877 0.50673 0.67357 0.0
H3349 H 0.28558 0.28924 0.72153 0.0
H3350 H 0.25856 0.21848 0.67157 0.0
H3351 H 0.25182 0.25476 0.62762 0.0
H3352 H 0.26071 0.35344 0.70135 0.0
H3353 H 0.27724 0.37914 0.69392 0.0
H3354 H 0.27958 0.34804 0.72215 0.0
H3355 H 0.30422 0.32882 0.68965 0.0
H3356 H 0.30199 0.35994 0.6614 0.0
H3357 H 0.30222 0.32127 0.64658 0.0
H3358 H 0.24773 0.29821 0.58954 0.0
H3359 H 0.24835 0.34484 0.55654 0.0
H3360 H 0.27875 0.38869 0.62905 0.0
C3361 C 0.27815 0.28152 0.70141 0.0
C3362 C 0.27246 0.25103 0.70011 0.0
C3363 C 0.26306 0.24163 0.67308 0.0
C3364 C 0.25911 0.26214 0.64807 0.0
C3365 C 0.26487 0.29197 0.65005 0.0
C3366 C 0.27439 0.30161 0.67572 0.0
C3367 C 0.27978 0.33449 0.67067 0.0
C3368 C 0.27398 0.35499 0.69869 0.0
C3369 C 0.29814 0.33623 0.66685 0.0
C3370 C 0.27136 0.34212 0.63868 0.0
C3371 C 0.26289 0.31707 0.62734 0.0
C3372 C 0.25439 0.31788 0.5981 0.0
C3373 C 0.25482 0.34461 0.5795 0.0
C3374 C 0.26356 0.37064 0.59009 0.0
C3375 C 0.2718 0.36941 0.62042 0.0
H3376 H 0.16334 0.31398 0.19907 0.0
H3377 H 0.19995 0.32247 0.12496 0.0
H3378 H 0.18076 0.30282 0.08368 0.0
H3379 H 0.13598 0.25267 0.15913 0.0
H3380 H 0.11858 0.27405 0.17159 0.0
H3381 H 0.13631 0.27371 0.19694 0.0
H3382 H 0.13694 0.33275 0.19591 0.0
H3383 H 0.11948 0.33324 0.17047 0.0
H3384 H 0.13759 0.3521 0.15716 0.0
H3385 H 0.15659 0.29508 0.04915 0.0
H3386 H 0.1309 0.30961 0.02392 0.0
H3387 H 0.1091 0.31712 0.11923 0.0
C3388 C 0.16752 0.30993 0.17442 0.0
C3389 C 0.18314 0.31917 0.16516 0.0
C3390 C 0.18819 0.31474 0.13265 0.0
C3391 C 0.17728 0.30369 0.1091 0.0
C3392 C 0.16139 0.29766 0.11848 0.0
C3393 C 0.15652 0.30092 0.15055 0.0
C3394 C 0.13836 0.30214 0.15335 0.0
C3395 C 0.13193 0.27396 0.17131 0.0
C3396 C 0.13279 0.33181 0.17016 0.0
C3397 C 0.13369 0.30131 0.11767 0.0
C3398 C 0.14706 0.29674 0.09813 0.0
C3399 C 0.14605 0.29799 0.06424 0.0
C3400 C 0.13135 0.30604 0.05007 0.0
C3401 C 0.11803 0.31396 0.06975 0.0
C3402 C 0.11896 0.3101 0.1038 0.0
H3403 H 0.12163 0.89347 0.14864 0.0
H3404 H 0.10882 0.98652 0.17099 0.0
H3405 H 0.13043 1.00484 0.13346 0.0
H3406 H 0.15942 0.91249 0.17279 0.0
H3407 H 0.1692 0.88372 0.14849 0.0
H3408 H 0.14902 0.87764 0.16266 0.0
H3409 H 0.13846 0.86948 0.10444 0.0
H3410 H 0.15865 0.87346 0.08924 0.0
H3411 H 0.14286 0.89698 0.07299 0.0
H3412 H 0.154 0.00662 0.08497 0.0
H3413 H 0.17703 0.99411 0.0486 0.0
H3414 H 0.18155 0.90657 0.09536 0.0
C3415 C 0.12294 0.91778 0.14464 0.0
C3416 C 0.11371 0.93855 0.16235 0.0
C3417 C 0.11578 0.97022 0.15712 0.0
C3418 C 0.12815 0.9807 0.13628 0.0
C3419 C 0.13866 0.95909 0.12304 0.0
C3420 C 0.13633 0.92837 0.12861 0.0
C3421 C 0.15104 0.90997 0.12208 0.0
C3422 C 0.15755 0.8951 0.15336 0.0
C3423 C 0.14755 0.88608 0.09555 0.0
C3424 C 0.16206 0.93455 0.11024 0.0
C3425 C 0.15453 0.96259 0.10854 0.0
C3426 C 0.16049 0.98551 0.08813 0.0
C3427 C 0.17371 0.97851 0.06792 0.0
C3428 C 0.18118 0.94965 0.07014 0.0
C3429 C 0.17641 0.92923 0.09441 0.0
H3430 H 0.90703 0.69043 0.9479 0.0
H3431 H 0.94421 0.70703 0.87638 0.0
H3432 H 0.92381 0.72856 0.83888 0.0
H3433 H 0.88483 0.65421 0.89423 0.0
H3434 H 0.86558 0.66391 0.91139 0.0
H3435 H 0.88301 0.66354 0.93691 0.0
H3436 H 0.87757 0.71961 0.9537 0.0
H3437 H 0.86002 0.72011 0.92784 0.0
H3438 H 0.87554 0.74847 0.92273 0.0
H3439 H 0.89948 0.73538 0.80501 0.0
H3440 H 0.87536 0.718 0.77536 0.0
H3441 H 0.85393 0.68846 0.86589 0.0
C3442 C 0.91095 0.69981 0.92479 0.0
C3443 C 0.9271 0.6972 0.91487 0.0
C3444 C 0.9319 0.70928 0.88452 0.0
C3445 C 0.92035 0.72152 0.86317 0.0
C3446 C 0.90416 0.72111 0.8726 0.0
C3447 C 0.89951 0.71012 0.90275 0.0
C3448 C 0.88171 0.70318 0.90401 0.0
C3449 C 0.87862 0.66924 0.91205 0.0
C3450 C 0.87321 0.72412 0.92852 0.0
C3451 C 0.87703 0.71071 0.86933 0.0
C3452 C 0.88997 0.72246 0.85206 0.0
C3453 C 0.88919 0.72705 0.81846 0.0
C3454 C 0.87539 0.71737 0.8018 0.0
C3455 C 0.86278 0.70263 0.81868 0.0
C3456 C 0.86319 0.70089 0.85291 0.0
H3457 H 0.91115 0.06844 0.79725 0.0
H3458 H 0.94678 0.06403 0.87391 0.0
H3459 H 0.92659 0.04029 0.91044 0.0
H3460 H 0.88578 0.10289 0.84374 0.0
H3461 H 0.86751 0.08786 0.82617 0.0
H3462 H 0.88539 0.08941 0.80215 0.0
H3463 H 0.88336 0.03138 0.79105 0.0
H3464 H 0.86525 0.0297 0.81511 0.0
H3465 H 0.88191 1.00517 0.82474 0.0
H3466 H 0.90183 0.02994 0.94187 0.0
H3467 H 0.87641 0.04475 0.96788 0.0
H3468 H 0.85623 0.06655 0.87366 0.0
C3469 C 0.91485 0.06114 0.82133 0.0
C3470 C 0.93044 0.06785 0.83289 0.0
C3471 C 0.93495 0.05859 0.86452 0.0
C3472 C 0.92351 0.04508 0.88531 0.0
C3473 C 0.90768 0.04149 0.87408 0.0
C3474 C 0.90337 0.04968 0.8427 0.0
C3475 C 0.88534 0.05294 0.83906 0.0
C3476 C 0.88076 0.08516 0.82715 0.0
C3477 C 0.87857 0.02831 0.81614 0.0
C3478 C 0.88013 0.04745 0.87389 0.0
C3479 C 0.89306 0.03887 0.89319 0.0
C3480 C 0.89161 0.03593 0.92689 0.0
C3481 C 0.87707 0.04414 0.94148 0.0
C3482 C 0.8644 0.05625 0.92252 0.0
C3483 C 0.86559 0.05626 0.88829 0.0
H3484 H 0.1702 0.86897 0.64671 0.0
H3485 H 0.18306 0.77532 0.66611 0.0
H3486 H 0.16157 0.75812 0.62756 0.0
H3487 H 0.13073 0.84566 0.66873 0.0
H3488 H 0.12246 0.878 0.64749 0.0
H3489 H 0.14244 0.8798 0.66448 0.0
H3490 H 0.1533 0.89501 0.60596 0.0
H3491 H 0.13304 0.89248 0.59141 0.0
H3492 H 0.14853 0.87031 0.57202 0.0
H3493 H 0.13806 0.75721 0.57862 0.0
H3494 H 0.11506 0.77005 0.54214 0.0
H3495 H 0.11046 0.85707 0.5905 0.0
C3496 C 0.16884 0.84473 0.64235 0.0
C3497 C 0.17818 0.82358 0.65954 0.0
C3498 C 0.17609 0.79207 0.65294 0.0
C3499 C 0.16375 0.78217 0.63145 0.0
C3500 C 0.15322 0.80404 0.61875 0.0
C3501 C 0.15545 0.83455 0.62564 0.0
C3502 C 0.14063 0.85296 0.6197 0.0
C3503 C 0.13361 0.86482 0.65199 0.0
C3504 C 0.14412 0.87919 0.5958 0.0
C3505 C 0.12996 0.82893 0.60513 0.0
C3506 C 0.13753 0.80097 0.60298 0.0
C3507 C 0.13161 0.77835 0.58195 0.0
C3508 C 0.11837 0.78551 0.56165 0.0
C3509 C 0.11078 0.81424 0.56431 0.0
C3510 C 0.11567 0.83449 0.58898 0.0
H3511 H 0.1562 0.46387 0.54198 0.0
H3512 H 0.19606 0.4648 0.60957 0.0
H3513 H 0.17792 0.48128 0.65366 0.0
H3514 H 0.12818 0.52222 0.58646 0.0
H3515 H 0.11123 0.49809 0.57696 0.0
H3516 H 0.12773 0.50118 0.54864 0.0
H3517 H 0.13064 0.44246 0.54936 0.0
H3518 H 0.11457 0.43913 0.57803 0.0
H3519 H 0.13398 0.42339 0.5877 0.0
H3520 H 0.15545 0.4805 0.6923 0.0
H3521 H 0.13165 0.46103 0.72132 0.0
H3522 H 0.10562 0.45513 0.63024 0.0
C3523 C 0.16118 0.46967 0.56564 0.0
C3524 C 0.17747 0.46355 0.57244 0.0
C3525 C 0.18369 0.47013 0.60374 0.0
C3526 C 0.17338 0.4793 0.62898 0.0
C3527 C 0.15694 0.48178 0.62238 0.0
C3528 C 0.1509 0.47743 0.59121 0.0
C3529 C 0.1328 0.47333 0.59161 0.0
C3530 C 0.12449 0.50032 0.57493 0.0
C3531 C 0.12773 0.44278 0.5758 0.0
C3532 C 0.1297 0.47355 0.62798 0.0
C3533 C 0.14366 0.47981 0.64526 0.0
C3534 C 0.14435 0.47681 0.6791 0.0
C3535 C 0.13074 0.4659 0.69546 0.0
C3536 C 0.11673 0.45767 0.67797 0.0
C3537 C 0.11597 0.46275 0.64411 0.0
H3538 H 0.85126 0.17695 0.35874 0.0
H3539 H 0.87019 0.23611 0.28395 0.0
H3540 H 0.89256 0.25097 0.3204 0.0
H3541 H 0.86628 0.21961 0.43502 0.0
H3542 H 0.87132 0.18367 0.45362 0.0
H3543 H 0.85434 0.18615 0.42643 0.0
H3544 H 0.86632 0.14238 0.39179 0.0
H3545 H 0.88348 0.14033 0.41814 0.0
H3546 H 0.88622 0.1466 0.37508 0.0
H3547 H 0.91703 0.24422 0.35571 0.0
H3548 H 0.93872 0.22193 0.38962 0.0
H3549 H 0.90283 0.17333 0.44582 0.0
C3550 C 0.85938 0.19496 0.35124 0.0
C3551 C 0.85875 0.20627 0.31913 0.0
C3552 C 0.87019 0.22814 0.30895 0.0
C3553 C 0.88305 0.23638 0.32942 0.0
C3554 C 0.88417 0.22274 0.36007 0.0
C3555 C 0.87233 0.20308 0.37131 0.0
C3556 C 0.87766 0.18685 0.40198 0.0
C3557 C 0.86675 0.19458 0.43098 0.0
C3558 C 0.87847 0.15204 0.39639 0.0
C3559 C 0.8943 0.20028 0.40618 0.0
C3560 C 0.8981 0.2204 0.38148 0.0
C3561 C 0.91401 0.22962 0.37607 0.0
C3562 C 0.9263 0.21701 0.39551 0.0
C3563 C 0.9225 0.19581 0.42025 0.0
C3564 C 0.90616 0.18949 0.42703 0.0
H3565 H 0.92802 0.60611 0.34294 0.0
H3566 H 0.92137 0.51803 0.29764 0.0
H3567 H 0.89764 0.50854 0.33319 0.0
H3568 H 0.90872 0.59283 0.42394 0.0
H3569 H 0.89891 0.62918 0.42227 0.0
H3570 H 0.91834 0.62444 0.40368 0.0
H3571 H 0.90701 0.64459 0.35067 0.0
H3572 H 0.88691 0.6479 0.36573 0.0
H3573 H 0.89079 0.62502 0.32999 0.0
H3574 H 0.87351 0.5118 0.37787 0.0
H3575 H 0.85248 0.52928 0.41702 0.0
H3576 H 0.86995 0.62173 0.40688 0.0
C3577 C 0.92217 0.58401 0.34201 0.0
C3578 C 0.92686 0.5623 0.3186 0.0
C3579 C 0.91833 0.5344 0.31642 0.0
C3580 C 0.90468 0.52913 0.33618 0.0
C3581 C 0.89941 0.5526 0.35667 0.0
C3582 C 0.90791 0.5797 0.359 0.0
C3583 C 0.8984 0.60406 0.37608 0.0
C3584 C 0.9066 0.61317 0.40838 0.0
C3585 C 0.89558 0.63199 0.35424 0.0
C3586 C 0.88304 0.58704 0.38227 0.0
C3587 C 0.88403 0.55678 0.37334 0.0
C3588 C 0.87244 0.53572 0.38389 0.0
C3589 C 0.86035 0.54583 0.40567 0.0
C3590 C 0.85963 0.57691 0.415 0.0
C3591 C 0.87016 0.59783 0.40016 0.0
H3592 H 0.60908 0.30362 0.60686 0.0
H3593 H 0.63013 0.3228 0.51283 0.0
H3594 H 0.65672 0.30861 0.53355 0.0
H3595 H 0.63276 0.33255 0.65424 0.0
H3596 H 0.63528 0.30438 0.68582 0.0
H3597 H 0.61769 0.30351 0.66092 0.0
H3598 H 0.62375 0.24779 0.64424 0.0
H3599 H 0.64155 0.24848 0.66945 0.0
H3600 H 0.64298 0.23834 0.62693 0.0
H3601 H 0.68021 0.31532 0.56876 0.0
H3602 H 0.69795 0.33278 0.61351 0.0
H3603 H 0.6632 0.30157 0.68418 0.0
C3604 C 0.61911 0.30223 0.59015 0.0
C3605 C 0.61767 0.31406 0.55842 0.0
C3606 C 0.63105 0.31324 0.53713 0.0
C3607 C 0.64624 0.3053 0.54876 0.0
C3608 C 0.6477 0.29652 0.58125 0.0
C3609 C 0.63434 0.2931 0.60121 0.0
C3610 C 0.63944 0.28716 0.63611 0.0
C3611 C 0.6308 0.30821 0.66063 0.0
C3612 C 0.63677 0.25345 0.64469 0.0
C3613 C 0.65724 0.29404 0.63369 0.0
C3614 C 0.66198 0.29796 0.6016 0.0
C3615 C 0.67696 0.31061 0.59382 0.0
C3616 C 0.68701 0.32051 0.61931 0.0
C3617 C 0.68196 0.31773 0.652 0.0
C3618 C 0.66738 0.30284 0.6592 0.0
H3619 H 0.60892 0.96285 0.62761 0.0
H3620 H 0.62941 0.93145 0.71837 0.0
H3621 H 0.65603 0.94935 0.70139 0.0
H3622 H 0.63333 0.9409 0.57731 0.0
H3623 H 0.63579 0.97314 0.55047 0.0
H3624 H 0.61806 0.96993 0.57461 0.0
H3625 H 0.62363 0.02317 0.59964 0.0
H3626 H 0.64165 0.02642 0.5754 0.0
H3627 H 0.64264 0.03089 0.61907 0.0
H3628 H 0.67987 0.94997 0.66775 0.0
H3629 H 0.69774 0.93663 0.62216 0.0
H3630 H 0.66356 0.97366 0.5538 0.0
C3631 C 0.61887 0.96197 0.6446 0.0
C3632 C 0.61724 0.94613 0.67417 0.0
C3633 C 0.63049 0.94407 0.69575 0.0
C3634 C 0.64568 0.95427 0.68633 0.0
C3635 C 0.64733 0.96778 0.65581 0.0
C3636 C 0.63414 0.97302 0.6358 0.0
C3637 C 0.63952 0.98365 0.60242 0.0
C3638 C 0.63121 0.96576 0.57464 0.0
C3639 C 0.63669 0.01807 0.59892 0.0
C3640 C 0.65737 0.97715 0.60468 0.0
C3641 C 0.66183 0.96992 0.63632 0.0
C3642 C 0.67681 0.95713 0.64326 0.0
C3643 C 0.68699 0.94971 0.61723 0.0
C3644 C 0.68204 0.95487 0.58478 0.0
C3645 C 0.66767 0.97072 0.57867 0.0
H3646 H 0.43758 0.69845 0.35873 0.0
H3647 H 0.42114 0.70685 0.45823 0.0
H3648 H 0.3948 0.72443 0.43892 0.0
H3649 H 0.41051 0.76774 0.32684 0.0
H3650 H 0.40804 0.748 0.28854 0.0
H3651 H 0.42685 0.74576 0.31033 0.0
H3652 H 0.42492 0.68682 0.30916 0.0
H3653 H 0.40621 0.68877 0.2879 0.0
H3654 H 0.40738 0.66843 0.326 0.0
H3655 H 0.36882 0.71871 0.40932 0.0
H3656 H 0.34729 0.70179 0.37157 0.0
H3657 H 0.38023 0.70932 0.29062 0.0
C3658 C 0.42886 0.70653 0.37627 0.0
C3659 C 0.43138 0.70178 0.4098 0.0
C3660 C 0.41953 0.71122 0.43241 0.0
C3661 C 0.40443 0.72095 0.42161 0.0
C3662 C 0.40173 0.72296 0.38815 0.0
C3663 C 0.41393 0.71774 0.3658 0.0
C3664 C 0.40749 0.71827 0.33128 0.0
C3665 C 0.41359 0.74664 0.31318 0.0
C3666 C 0.41174 0.68883 0.31257 0.0
C3667 C 0.38964 0.72059 0.33789 0.0
C3668 C 0.38646 0.72353 0.37086 0.0
C3669 C 0.37101 0.71839 0.38329 0.0
C3670 C 0.35877 0.70896 0.36172 0.0
C3671 C 0.36207 0.7052 0.32817 0.0
C3672 C 0.37735 0.71326 0.31605 0.0
H3673 H 0.43611 0.08933 0.36395 0.0
H3674 H 0.41805 0.033 0.28548 0.0
H3675 H 0.39573 0.01556 0.32055 0.0
H3676 H 0.42165 0.04173 0.43701 0.0
H3677 H 0.41614 0.07624 0.45812 0.0
H3678 H 0.43317 0.07616 0.431 0.0
H3679 H 0.42072 0.12129 0.39921 0.0
H3680 H 0.40363 0.12119 0.4257 0.0
H3681 H 0.40082 0.11728 0.3823 0.0
H3682 H 0.37118 0.02063 0.3548 0.0
H3683 H 0.34917 0.04186 0.38856 0.0
H3684 H 0.38445 0.0867 0.44993 0.0
C3685 C 0.42813 0.07153 0.35524 0.0
C3686 C 0.42894 0.06161 0.32268 0.0
C3687 C 0.41779 0.03991 0.31088 0.0
C3688 C 0.40504 0.03012 0.33057 0.0
C3689 C 0.40379 0.04204 0.36203 0.0
C3690 C 0.41536 0.06167 0.37465 0.0
C3691 C 0.40988 0.07587 0.4063 0.0
C3692 C 0.42087 0.06692 0.4348 0.0
C3693 C 0.40869 0.11092 0.40316 0.0
C3694 C 0.39342 0.06151 0.40935 0.0
C3695 C 0.38986 0.04266 0.38326 0.0
C3696 C 0.374 0.03396 0.37632 0.0
C3697 C 0.36153 0.04593 0.39563 0.0
C3698 C 0.36517 0.06578 0.42178 0.0
C3699 C 0.38137 0.07126 0.43019 0.0
H3700 H 0.68092 0.79823 0.1423 0.0
H3701 H 0.65889 0.81743 0.23537 0.0
H3702 H 0.63227 0.80624 0.21234 0.0
H3703 H 0.65867 0.83173 0.09518 0.0
H3704 H 0.65597 0.80526 0.06188 0.0
H3705 H 0.67317 0.802 0.08772 0.0
H3706 H 0.6657 0.74614 0.10117 0.0
H3707 H 0.64841 0.74902 0.07474 0.0
H3708 H 0.64597 0.73722 0.11653 0.0
H3709 H 0.60924 0.81456 0.17561 0.0
H3710 H 0.5921 0.83229 0.13009 0.0
H3711 H 0.62782 0.80198 0.06098 0.0
C3712 C 0.67061 0.79733 0.15833 0.0
C3713 C 0.6719 0.80829 0.19054 0.0
C3714 C 0.65813 0.80832 0.2108 0.0
C3715 C 0.6429 0.80224 0.19779 0.0
C3716 C 0.64173 0.79453 0.16488 0.0
C3717 C 0.65531 0.79032 0.14577 0.0
C3718 C 0.65069 0.78609 0.11025 0.0
C3719 C 0.66017 0.8076 0.0875 0.0
C3720 C 0.65282 0.75263 0.10007 0.0
C3721 C 0.63302 0.79406 0.11171 0.0
C3722 C 0.62785 0.79758 0.14355 0.0
C3723 C 0.61285 0.81028 0.15066 0.0
C3724 C 0.60316 0.82033 0.12473 0.0
C3725 C 0.60861 0.81782 0.09224 0.0
C3726 C 0.62332 0.80324 0.08572 0.0
H3727 H 0.65361 0.42206 0.05043 0.0
H3728 H 0.69152 0.46387 0.10793 0.0
H3729 H 0.67083 0.4864 0.14433 0.0
H3730 H 0.61954 0.47141 0.06214 0.0
H3731 H 0.60624 0.43965 0.06967 0.0
H3732 H 0.62332 0.43498 0.04324 0.0
H3733 H 0.6339 0.39013 0.07856 0.0
H3734 H 0.6163 0.39367 0.10348 0.0
H3735 H 0.63594 0.39528 0.12194 0.0
H3736 H 0.6466 0.49393 0.18087 0.0
H3737 H 0.62348 0.48031 0.21577 0.0
H3738 H 0.60194 0.43092 0.13565 0.0
C3739 C 0.65769 0.43638 0.07036 0.0
C3740 C 0.67423 0.44085 0.07658 0.0
C3741 C 0.67892 0.46017 0.1026 0.0
C3742 C 0.66722 0.47302 0.12335 0.0
C3743 C 0.65099 0.46611 0.11774 0.0
C3744 C 0.64638 0.44776 0.09197 0.0
C3745 C 0.62924 0.43687 0.09522 0.0
C3746 C 0.61898 0.44635 0.06581 0.0
C3747 C 0.62881 0.40196 0.10012 0.0
C3748 C 0.62439 0.45331 0.126 0.0
C3749 C 0.63709 0.47001 0.1389 0.0
C3750 C 0.63644 0.48185 0.17051 0.0
C3751 C 0.62313 0.47447 0.19008 0.0
C3752 C 0.61072 0.45552 0.17787 0.0
C3753 C 0.61083 0.44691 0.1448 0.0
H3754 H 0.40943 0.19241 0.95158 0.0
H3755 H 0.44891 0.20614 0.88463 0.0
H3756 H 0.43036 0.23094 0.84575 0.0
H3757 H 0.38731 0.16037 0.89562 0.0
H3758 H 0.368 0.17257 0.91048 0.0
H3759 H 0.38457 0.16988 0.93806 0.0
H3760 H 0.38073 0.22653 0.95446 0.0
H3761 H 0.36403 0.22929 0.92654 0.0
H3762 H 0.38063 0.2556 0.92344 0.0
H3763 H 0.40736 0.24006 0.80885 0.0
H3764 H 0.38382 0.22498 0.77606 0.0
H3765 H 0.35877 0.19807 0.86357 0.0
C3766 C 0.41428 0.20195 0.9293 0.0
C3767 C 0.43057 0.19741 0.92103 0.0
C3768 C 0.43653 0.2098 0.89166 0.0
C3769 C 0.426 0.22387 0.86942 0.0
C3770 C 0.40959 0.22509 0.8769 0.0
C3771 C 0.40378 0.21423 0.90629 0.0
C3772 C 0.38573 0.20962 0.90528 0.0
C3773 C 0.38116 0.17617 0.91275 0.0
C3774 C 0.37728 0.23159 0.92882 0.0
C3775 C 0.38231 0.21786 0.87011 0.0
C3776 C 0.39608 0.22822 0.8546 0.0
C3777 C 0.39644 0.2329 0.82094 0.0
C3778 C 0.38293 0.22462 0.80243 0.0
C3779 C 0.36942 0.21116 0.81753 0.0
C3780 C 0.36871 0.20963 0.85184 0.0
H3781 H 0.37635 0.55201 0.93307 0.0
H3782 H 0.34143 0.58383 0.86313 0.0
H3783 H 0.35882 0.56615 0.81806 0.0
H3784 H 0.40581 0.58564 0.90156 0.0
H3785 H 0.42156 0.55825 0.90852 0.0
H3786 H 0.40415 0.558 0.93392 0.0
H3787 H 0.39868 0.50148 0.91934 0.0
H3788 H 0.41641 0.50138 0.89403 0.0
H3789 H 0.39729 0.49003 0.87718 0.0
H3790 H 0.38208 0.55754 0.78189 0.0
H3791 H 0.40863 0.5704 0.75972 0.0
H3792 H 0.43028 0.55484 0.8541 0.0
C3793 C 0.37201 0.55334 0.90819 0.0
C3794 C 0.35747 0.56849 0.90138 0.0
C3795 C 0.35228 0.57134 0.86876 0.0
C3796 C 0.36217 0.56137 0.84306 0.0
C3797 C 0.37719 0.54884 0.85053 0.0
C3798 C 0.38209 0.54489 0.88253 0.0
C3799 C 0.40004 0.5393 0.88471 0.0
C3800 C 0.40835 0.56167 0.90852 0.0
C3801 C 0.4033 0.50608 0.89439 0.0
C3802 C 0.40487 0.54478 0.84959 0.0
C3803 C 0.39138 0.5475 0.8299 0.0
C3804 C 0.39266 0.55487 0.79699 0.0
C3805 C 0.40785 0.56193 0.78451 0.0
C3806 C 0.42144 0.56347 0.80531 0.0
C3807 C 0.42013 0.553 0.83767 0.0
H3808 H 0.02928 0.44946 0.94748 0.0
H3809 H 1.00414 0.42207 0.03474 0.0
H3810 H 1.00604 0.47435 0.05672 0.0
H3811 H 0.05561 0.50486 0.97675 0.0
H3812 H 0.05195 0.53265 0.94524 0.0
H3813 H 0.0491 0.49276 0.93673 0.0
H3814 H 1.01984 0.50257 0.91873 0.0
H3815 H 0.02278 0.54272 0.92624 0.0
H3816 H 1.00643 0.52274 0.94562 0.0
H3817 H 1.01115 0.52942 0.06923 0.0
H3818 H 1.01503 0.58548 0.06755 0.0
H3819 H 0.03528 0.57763 0.9705 0.0
C3820 C 0.02405 0.45473 0.971 0.0
C3821 C 1.01689 0.43182 0.99013 0.0
C3822 C 1.00988 0.43941 0.02039 0.0
C3823 C 1.01095 0.46896 0.03296 0.0
C3824 C 1.0185 0.49098 0.01408 0.0
C3825 C 0.02435 0.48455 0.98322 0.0
C3826 C 0.03016 0.51318 0.96653 0.0
C3827 C 0.04777 0.51069 0.95572 0.0
C3828 C 1.01915 0.52076 0.93758 0.0
C3829 C 0.028 0.53605 0.99379 0.0
C3830 C 0.021 0.52292 0.02088 0.0
C3831 C 1.01668 0.54002 0.04821 0.0
C3832 C 1.01901 0.57168 0.04718 0.0
C3833 C 0.02583 0.58549 0.0193 0.0
C3834 C 0.03066 0.56739 0.99264 0.0
H3835 H 0.2563 0.69853 0.05142 0.0
H3836 H 0.29269 0.65827 0.98965 0.0
H3837 H 0.29213 0.70418 0.95438 0.0
H3838 H 0.23378 0.74294 0.99003 0.0
H3839 H 0.23163 0.77454 0.01785 0.0
H3840 H 0.23263 0.73622 0.03338 0.0
H3841 H 0.25683 0.75167 0.0706 0.0
H3842 H 0.25553 0.78992 0.05527 0.0
H3843 H 0.2741 0.76927 0.05172 0.0
H3844 H 0.29147 0.75987 0.9334 0.0
H3845 H 0.28935 0.81607 0.92728 0.0
H3846 H 0.25302 0.81779 0.0028 0.0
C3847 C 0.26376 0.69877 0.02978 0.0
C3848 C 0.27435 0.67448 0.02303 0.0
C3849 C 0.28419 0.67616 0.99494 0.0
C3850 C 0.28402 0.70236 0.97492 0.0
C3851 C 0.27392 0.72658 0.98334 0.0
C3852 C 0.26382 0.72463 0.01 0.0
C3853 C 0.25569 0.75469 0.01705 0.0
C3854 C 0.23734 0.75192 0.01439 0.0
C3855 C 0.26081 0.76709 0.0507 0.0
C3856 C 0.2626 0.77405 0.99009 0.0
C3857 C 0.27327 0.75779 0.97097 0.0
C3858 C 0.28282 0.77249 0.94771 0.0
C3859 C 0.2816 0.80442 0.94446 0.0
C3860 C 0.27077 0.82122 0.96407 0.0
C3861 C 0.26097 0.80553 0.98656 0.0
H3862 H 1.01531 0.69569 0.26794 0.0
H3863 H 0.03972 0.69846 0.17482 0.0
H3864 H 0.04303 0.75466 0.18096 0.0
H3865 H 0.9932 0.76539 0.26654 0.0
H3866 H 0.99729 0.76973 0.30953 0.0
H3867 H 0.99662 0.73243 0.29122 0.0
H3868 H 0.02703 0.72643 0.31699 0.0
H3869 H 0.02615 0.76552 0.3307 0.0
H3870 H 0.04189 0.75325 0.30385 0.0
H3871 H 0.04186 0.81412 0.19916 0.0
H3872 H 0.03856 0.86332 0.22756 0.0
H3873 H 1.01497 0.81673 0.30743 0.0
C3874 C 0.02103 0.70801 0.2483 0.0
C3875 C 0.02684 0.69272 0.22054 0.0
C3876 C 0.03494 0.70978 0.19618 0.0
C3877 C 0.03672 0.74178 0.19935 0.0
C3878 C 0.03043 0.75623 0.22703 0.0
C3879 C 0.02302 0.73938 0.25119 0.0
C3880 C 1.01845 0.75867 0.28 0.0
C3881 C 1.00035 0.7564 0.28732 0.0
C3882 C 0.02892 0.75045 0.30969 0.0
C3883 C 0.02294 0.78966 0.26754 0.0
C3884 C 0.03027 0.78832 0.23739 0.0
C3885 C 0.0359 0.81497 0.22251 0.0
C3886 C 0.03386 0.84317 0.23887 0.0
C3887 C 0.02613 0.84469 0.26968 0.0
C3888 C 0.02076 0.81717 0.28379 0.0
H3889 H 0.25713 0.57157 0.26489 0.0
H3890 H 0.27966 0.5687 0.16991 0.0
H3891 H 0.27984 0.5119 0.17217 0.0
H3892 H 0.28301 0.51223 0.29372 0.0
H3893 H 0.26846 0.49964 0.32313 0.0
H3894 H 0.26895 0.53902 0.31024 0.0
H3895 H 0.23841 0.53422 0.29314 0.0
H3896 H 0.23842 0.49499 0.30591 0.0
H3897 H 0.23263 0.5047 0.26479 0.0
H3898 H 0.28101 0.45485 0.19056 0.0
H3899 H 0.28322 0.40697 0.22226 0.0
H3900 H 0.25784 0.44865 0.30238 0.0
C3901 C 0.26159 0.55892 0.24405 0.0
C3902 C 0.26791 0.57417 0.21684 0.0
C3903 C 0.27452 0.55714 0.19077 0.0
C3904 C 0.27463 0.52496 0.19188 0.0
C3905 C 0.26835 0.51047 0.2195 0.0
C3906 C 0.26212 0.52721 0.24514 0.0
C3907 C 0.25851 0.50749 0.27421 0.0
C3908 C 0.27038 0.51505 0.30202 0.0
C3909 C 0.24095 0.51052 0.28515 0.0
C3910 C 0.26203 0.47647 0.26025 0.0
C3911 C 0.26833 0.47838 0.22909 0.0
C3912 C 0.27532 0.45297 0.21419 0.0
C3913 C 0.27611 0.42544 0.23193 0.0
C3914 C 0.26934 0.42322 0.26351 0.0
C3915 C 0.26207 0.44907 0.27737 0.0
H3916 H 0.75714 0.3235 0.95903 0.0
H3917 H 0.79472 0.34598 0.0287 0.0
H3918 H 0.79579 0.29242 0.04609 0.0
H3919 H 0.73642 0.26771 0.00638 0.0
H3920 H 0.73267 0.24217 0.97268 0.0
H3921 H 0.73467 0.28248 0.96551 0.0
H3922 H 0.75698 0.27199 0.9237 0.0
H3923 H 0.75582 0.23155 0.93081 0.0
H3924 H 0.77464 0.2515 0.936 0.0
H3925 H 0.79261 0.23677 0.05691 0.0
H3926 H 0.78725 0.18131 0.05628 0.0
H3927 H 0.75211 0.19419 0.97923 0.0
C3928 C 0.7657 0.31701 0.97767 0.0
C3929 C 0.77591 0.33891 0.99232 0.0
C3930 C 0.78695 0.32958 0.01668 0.0
C3931 C 0.78754 0.29923 0.02703 0.0
C3932 C 0.77717 0.27828 0.0125 0.0
C3933 C 0.76665 0.28659 0.98796 0.0
C3934 C 0.75738 0.25916 0.97539 0.0
C3935 C 0.73921 0.26313 0.98031 0.0
C3936 C 0.76143 0.25316 0.93934 0.0
C3937 C 0.76407 0.23438 -0.0027 0.0
C3938 C 0.77546 0.24595 0.01853 0.0
C3939 C 0.7837 0.22739 0.04044 0.0
C3940 C 0.78054 0.19597 0.04002 0.0
C3941 C 0.76915 0.1835 0.01806 0.0
C3942 C 0.76063 0.20312 -0.00315 0.0
H3943 H 1.00879 0.32148 0.72577 0.0
H3944 H 0.03719 0.32886 0.81417 0.0
H3945 H 0.04363 0.27375 0.81054 0.0
H3946 H 0.99233 0.24717 0.73377 0.0
H3947 H 0.99554 0.23762 0.69145 0.0
H3948 H 0.99258 0.27668 0.70319 0.0
H3949 H 1.02016 0.29167 0.67614 0.0
H3950 H 0.02254 0.25227 0.66395 0.0
H3951 H 0.03788 0.27109 0.68756 0.0
H3952 H 0.04862 0.21887 0.79399 0.0
H3953 H 0.04804 0.16659 0.77178 0.0
H3954 H 1.01599 0.19579 0.69449 0.0
C3955 C 1.01589 0.31125 0.74501 0.0
C3956 C 0.02216 0.32897 0.77077 0.0
C3957 C 0.03208 0.31529 0.7946 0.0
C3958 C 0.03591 0.2842 0.79252 0.0
C3959 C 0.03 0.26758 0.766 0.0
C3960 C 1.02013 0.28062 0.74283 0.0
C3961 C 1.01634 0.25864 0.71547 0.0
C3962 C 0.99811 0.25479 0.71073 0.0
C3963 C 0.02468 0.26901 0.68387 0.0
C3964 C 0.02416 0.23016 0.72846 0.0
C3965 C 0.03271 0.23617 0.75673 0.0
C3966 C 0.04186 0.21388 0.77203 0.0
C3967 C 0.04159 0.18434 0.75898 0.0
C3968 C 0.03188 0.17726 0.73152 0.0
C3969 C 0.02339 0.20064 0.71563 0.0
H3970 H 0.78421 0.56548 0.74913 0.0
H3971 H 0.74525 0.57033 0.67924 0.0
H3972 H 0.74192 0.51393 0.68274 0.0
H3973 H 0.80275 0.49566 0.73338 0.0
H3974 H 0.80383 0.4857 0.77603 0.0
H3975 H 0.80398 0.5251 0.76412 0.0
H3976 H 0.77836 0.53664 0.79944 0.0
H3977 H 0.7799 0.49766 0.81356 0.0
H3978 H 0.76138 0.51154 0.79647 0.0
H3979 H 0.74125 0.45573 0.70194 0.0
H3980 H 0.74335 0.40734 0.73262 0.0
H3981 H 0.78289 0.445 0.78838 0.0
C3982 C 0.77537 0.55481 0.73337 0.0
C3983 C 0.76528 0.57228 0.71332 0.0
C3984 C 0.75327 0.55728 0.69458 0.0
C3985 C 0.75135 0.52524 0.69635 0.0
C3986 C 0.76144 0.50877 0.71721 0.0
C3987 C 0.7731 0.52351 0.7354 0.0
C3988 C 0.78042 0.503 0.7605 0.0
C3989 C 0.79884 0.50232 0.75831 0.0
C3990 C 0.77471 0.51275 0.79458 0.0
C3991 C 0.77282 0.47321 0.75126 0.0
C3992 C 0.76125 0.47671 0.72734 0.0
C3993 C 0.75073 0.45276 0.71969 0.0
C3994 C 0.75202 0.42514 0.73727 0.0
C3995 C 0.76358 0.42203 0.76246 0.0
C3996 C 0.77431 0.44616 0.7685 0.0
H3997 H 1.00682 0.07133 0.475 0.0
H3998 H 0.04025 0.0686 0.55599 0.0
H3999 H 0.04374 0.0129 0.5473 0.0
H4000 H 0.9872 1.0005 0.48483 0.0
H4001 H 0.98675 0.99228 0.44171 0.0
H4002 H 0.98678 0.03118 0.45563 0.0
H4003 H 1.01206 0.04245 0.42066 0.0
H4004 H 1.01213 1.00362 0.40649 0.0
H4005 H 0.02974 0.01941 0.42585 0.0
H4006 H 0.04231 0.95541 0.52935 0.0
H4007 H 0.03866 0.90607 0.50085 0.0
H4008 H 1.00714 0.94992 0.43112 0.0
C4009 C 1.01455 0.05887 0.49152 0.0
C4010 C 0.02284 0.07387 0.51688 0.0
C4011 C 0.03351 0.05719 0.53689 0.0
C4012 C 0.03549 0.02558 0.5322 0.0
C4013 C 0.02691 0.0113 0.50706 0.0
C4014 C 1.01692 0.02778 0.48672 0.0
C4015 C 1.01008 0.00837 0.45967 0.0
C4016 C 0.99161 0.00806 0.46055 0.0
C4017 C 1.01638 0.01909 0.42622 0.0
C4018 C 1.01699 0.97783 0.46886 0.0
C4019 C 0.02679 0.97967 0.496 0.0
C4020 C 0.03458 0.95387 0.50817 0.0
C4021 C 0.03238 0.92574 0.4919 0.0
C4022 C 0.02259 0.92375 0.46369 0.0
C4023 C 1.01473 0.9503 0.45259 0.0
H4024 H 0.28862 0.32093 0.50104 0.0
H4025 H 0.24624 0.32958 0.43988 0.0
H4026 H 0.23997 0.27527 0.44876 0.0
H4027 H 0.29932 0.24309 0.47586 0.0
H4028 H 0.30571 0.23268 0.51636 0.0
H4029 H 0.30747 0.27162 0.50302 0.0
H4030 H 0.29063 0.28906 0.55331 0.0
H4031 H 0.28898 0.24996 0.56621 0.0
H4032 H 0.27113 0.27219 0.55989 0.0
H4033 H 0.23659 0.2224 0.46891 0.0
H4034 H 0.23915 0.17022 0.49005 0.0
H4035 H 0.28422 0.19492 0.53681 0.0
C4036 C 0.2783 0.3112 0.48867 0.0
C4037 C 0.26791 0.32944 0.46967 0.0
C4038 C 0.25435 0.31598 0.45446 0.0
C4039 C 0.25063 0.28525 0.45957 0.0
C4040 C 0.26062 0.26836 0.47986 0.0
C4041 C 0.27438 0.28056 0.49359 0.0
C4042 C 0.28291 0.25739 0.51479 0.0
C4043 C 0.29985 0.2508 0.5017 0.0
C4044 C 0.28345 0.26781 0.55066 0.0
C4045 C 0.27183 0.23025 0.51052 0.0
C4046 C 0.25889 0.23734 0.49083 0.0
C4047 C 0.24674 0.2164 0.48408 0.0
C4048 C 0.24822 0.18691 0.49655 0.0
C4049 C 0.2619 0.17856 0.51504 0.0
C4050 C 0.27364 0.20074 0.52276 0.0
H4051 H 0.2879 0.93993 0.73481 0.0
H4052 H 0.24959 0.92901 0.80564 0.0
H4053 H 0.24374 0.98402 0.80214 0.0
H4054 H 0.30191 0.01411 0.7619 0.0
H4055 H 0.30576 0.02733 0.72101 0.0
H4056 H 0.30719 0.98737 0.73025 0.0
H4057 H 0.28644 0.9754 0.68409 0.0
H4058 H 0.28528 0.01553 0.67522 0.0
H4059 H 0.2673 0.99446 0.68461 0.0
H4060 H 0.24035 0.03837 0.78719 0.0
H4061 H 0.24393 0.09241 0.7727 0.0
H4062 H 0.28483 0.06854 0.71224 0.0
C4063 C 0.27856 0.94926 0.7502 0.0
C4064 C 0.2692 0.93035 0.77062 0.0
C4065 C 0.25687 0.94322 0.78989 0.0
C4066 C 0.25337 0.9743 0.78782 0.0
C4067 C 0.26225 0.99202 0.76619 0.0
C4068 C 0.27482 0.98021 0.74824 0.0
C4069 C 0.28253 1.0044 0.72703 0.0
C4070 C 0.3004 0.00855 0.73559 0.0
C4071 C 0.28026 0.99697 0.69058 0.0
C4072 C 0.27267 0.03184 0.73683 0.0
C4073 C 0.26072 0.02391 0.75861 0.0
C4074 C 0.24984 0.04509 0.77068 0.0
C4075 C 0.25185 0.07565 0.76195 0.0
C4076 C 0.26477 0.08463 0.74166 0.0
C4077 C 0.27493 0.06228 0.72802 0.0
H4078 H 0.75147 0.69526 0.54994 0.0
H4079 H 0.79294 0.65842 0.50015 0.0
H4080 H 0.79518 0.70605 0.46781 0.0
H4081 H 0.73446 0.7408 0.48202 0.0
H4082 H 0.72896 0.77108 0.50959 0.0
H4083 H 0.72921 0.73222 0.52369 0.0
H4084 H 0.74827 0.74839 0.57038 0.0
H4085 H 0.749 0.78707 0.55609 0.0
H4086 H 0.7673 0.7657 0.56079 0.0
H4087 H 0.7952 0.76193 0.44792 0.0
H4088 H 0.79212 0.8178 0.44067 0.0
H4089 H 0.75029 0.81619 0.50337 0.0
C4090 C 0.76068 0.6967 0.53136 0.0
C4091 C 0.77185 0.6729 0.52713 0.0
C4092 C 0.78402 0.67603 0.50326 0.0
C4093 C 0.78544 0.70317 0.48501 0.0
C4094 C 0.77451 0.72673 0.4908 0.0
C4095 C 0.76222 0.72341 0.51317 0.0
C4096 C 0.75303 0.75276 0.51786 0.0
C4097 C 0.73537 0.74898 0.50766 0.0
C4098 C 0.75449 0.76417 0.55336 0.0
C4099 C 0.76199 0.77337 0.49464 0.0
C4100 C 0.77441 0.75819 0.47925 0.0
C4101 C 0.78528 0.77373 0.45927 0.0
C4102 C 0.78345 0.80544 0.45528 0.0
C4103 C 0.77071 0.82114 0.47074 0.0
C4104 C 0.75978 0.80466 0.49024 0.0
H4105 H 0.77091 0.94174 0.22994 0.0
H4106 H 0.76509 0.94443 0.33496 0.0
H4107 H 0.7686 1.00094 0.33371 0.0
H4108 H 0.79932 1.00045 0.21544 0.0
H4109 H 0.78829 0.01259 0.17992 0.0
H4110 H 0.78734 0.97345 0.19302 0.0
H4111 H 0.75412 0.97893 0.19879 0.0
H4112 H 0.75756 0.01656 0.18201 0.0
H4113 H 0.74725 0.01176 0.22007 0.0
H4114 H 0.76592 0.05954 0.31551 0.0
H4115 H 0.76125 0.10749 0.28491 0.0
H4116 H 0.77508 0.06309 0.19552 0.0
C4117 C 0.77069 0.95385 0.253 0.0
C4118 C 0.76769 0.93856 0.28248 0.0
C4119 C 0.76738 0.95567 0.31192 0.0
C4120 C 0.76935 0.98779 0.3114 0.0
C4121 C 0.77187 1.00219 0.28131 0.0
C4122 C 0.77268 0.98529 0.25291 0.0
C4123 C 0.7734 1.00507 0.22321 0.0
C4124 C 0.78793 0.99743 0.20159 0.0
C4125 C 0.75723 1.00289 0.20475 0.0
C4126 C 0.77494 0.03589 0.23872 0.0
C4127 C 0.77281 0.03452 0.2722 0.0
C4128 C 0.76879 0.06082 0.28978 0.0
C4129 C 0.76664 0.08842 0.27246 0.0
C4130 C 0.76945 0.08987 0.23839 0.0
C4131 C 0.77412 0.06331 0.22191 0.0
H4132 H 0.50755 0.56676 0.48365 0.0
H4133 H 0.54628 0.56943 0.55421 0.0
H4134 H 0.55044 0.51376 0.54641 0.0
H4135 H 0.4897 0.49614 0.49791 0.0
H4136 H 0.48779 0.48649 0.45527 0.0
H4137 H 0.48783 0.5258 0.46772 0.0
H4138 H 0.5126 0.53805 0.4302 0.0
H4139 H 0.51094 0.49937 0.41572 0.0
H4140 H 0.52975 0.51347 0.43168 0.0
H4141 H 0.54881 0.45522 0.53107 0.0
H4142 H 0.54547 0.40582 0.50267 0.0
H4143 H 0.50863 0.44542 0.44139 0.0
C4144 C 0.51649 0.55546 0.49854 0.0
C4145 C 0.52611 0.57196 0.52063 0.0
C4146 C 0.53847 0.55683 0.53786 0.0
C4147 C 0.54081 0.52523 0.53371 0.0
C4148 C 0.5307 0.50935 0.51225 0.0
C4149 C 0.51914 0.52445 0.49431 0.0
C4150 C 0.51148 0.50411 0.46909 0.0
C4151 C 0.49311 0.50307 0.47277 0.0
C4152 C 0.51647 0.5143 0.4346 0.0
C4153 C 0.5192 0.47425 0.47765 0.0
C4154 C 0.53054 0.47744 0.50209 0.0
C4155 C 0.53987 0.4527 0.51205 0.0
C4156 C 0.53784 0.4245 0.49586 0.0
C4157 C 0.52673 0.42151 0.46982 0.0
C4158 C 0.51711 0.44667 0.46145 0.0
H4159 H 0.50468 0.69998 0.74776 0.0
H4160 H 0.54003 0.69427 0.67064 0.0
H4161 H 0.54424 0.75047 0.67431 0.0
H4162 H 0.48655 0.77141 0.73959 0.0
H4163 H 0.48852 0.77986 0.78253 0.0
H4164 H 0.48687 0.74096 0.76915 0.0
H4165 H 0.51468 0.72681 0.79651 0.0
H4166 H 0.51463 0.76544 0.81247 0.0
H4167 H 0.53151 0.75144 0.78976 0.0
H4168 H 0.548 0.80753 0.697 0.0
H4169 H 0.54944 0.85394 0.73202 0.0
H4170 H 0.51052 0.81881 0.79078 0.0
C4171 C 0.51283 0.71043 0.73046 0.0
C4172 C 0.52178 0.69261 0.70858 0.0
C4173 C 0.53292 0.70744 0.68764 0.0
C4174 C 0.53536 0.73942 0.68954 0.0
C4175 C 0.52666 0.75614 0.71268 0.0
C4176 C 0.51561 0.74168 0.73254 0.0
C4177 C 0.51034 0.76188 0.76 0.0
C4178 C 0.49197 0.76364 0.76292 0.0
C4179 C 0.51817 0.75074 0.79168 0.0
C4180 C 0.51789 0.79152 0.75025 0.0
C4181 C 0.52826 0.78783 0.72421 0.0
C4182 C 0.53948 0.81068 0.71663 0.0
C4183 C 0.54015 0.83718 0.73651 0.0
C4184 C 0.5296 0.84058 0.76343 0.0
C4185 C 0.51815 0.81772 0.7694 0.0
H4186 H 0.52261 0.18713 0.27124 0.0
H4187 H 0.53092 0.19657 0.16748 0.0
H4188 H 0.53555 0.25227 0.17524 0.0
H4189 H 0.50082 0.24895 0.28689 0.0
H4190 H 0.51029 0.25923 0.32498 0.0
H4191 H 0.51047 0.22032 0.31159 0.0
H4192 H 0.5421 0.21866 0.31207 0.0
H4193 H 0.54096 0.2562 0.33013 0.0
H4194 H 0.55313 0.2496 0.29443 0.0
H4195 H 0.53648 0.30906 0.19609 0.0
H4196 H 0.53237 0.35777 0.22565 0.0
H4197 H 0.52323 0.30798 0.31444 0.0
C4198 C 0.52543 0.20092 0.25009 0.0
C4199 C 0.52613 0.18789 0.21874 0.0
C4200 C 0.53027 0.20635 0.19172 0.0
C4201 C 0.53285 0.23794 0.19594 0.0
C4202 C 0.53151 0.25031 0.22733 0.0
C4203 C 0.5282 0.23201 0.2539 0.0
C4204 C 0.52716 0.25012 0.28507 0.0
C4205 C 0.51123 0.24432 0.30314 0.0
C4206 C 0.54171 0.24331 0.30683 0.0
C4207 C 0.52836 0.28189 0.27169 0.0
C4208 C 0.53166 0.28187 0.23869 0.0
C4209 C 0.53352 0.30916 0.22171 0.0
C4210 C 0.53113 0.33683 0.23861 0.0
C4211 C 0.52674 0.33702 0.2719 0.0
C4212 C 0.52609 0.309 0.28869 0.0
H4213 H 0.50642 0.0649 0.05711 0.0
H4214 H 0.53467 0.10546 0.98017 0.0
H4215 H 0.53557 0.05552 0.95172 0.0
H4216 H 0.53122 1.00407 0.05753 0.0
H4217 H 0.51755 0.9745 0.06846 0.0
H4218 H 0.51404 0.01285 0.08247 0.0
H4219 H 0.48647 0.01886 0.05639 0.0
H4220 H 0.48707 0.9791 0.04567 0.0
H4221 H 0.48324 0.00723 0.01465 0.0
H4222 H 0.53568 0.99815 0.93494 0.0
H4223 H 0.53445 0.94145 0.93249 0.0
H4224 H 0.5063 0.94075 0.02115 0.0
C4225 C 0.51191 0.06375 0.03318 0.0
C4226 C 0.51957 0.0895 0.01973 0.0
C4227 C 0.52775 0.08656 0.98967 0.0
C4228 C 0.52849 0.05813 0.97358 0.0
C4229 C 0.52096 0.03296 0.98781 0.0
C4230 C 0.51279 0.03575 0.01703 0.0
C4231 C 0.50833 1.00501 0.03071 0.0
C4232 C 0.5183 0.99878 0.06168 0.0
C4233 C 0.4902 1.00241 0.03722 0.0
C4234 C 0.51362 0.98451 0.00319 0.0
C4235 C 0.52151 1.00064 0.97911 0.0
C4236 C 0.52912 0.98555 0.95328 0.0
C4237 C 0.5284 0.95338 0.95205 0.0
C4238 C 0.51985 0.93683 0.9761 0.0
C4239 C 0.5124 0.95281 0.00178 0.0
H4240 H 0.02208 0.04959 0.12015 0.0
H4241 H 0.03341 0.07776 0.21908 0.0
H4242 H 0.03506 0.13133 0.20105 0.0
H4243 H 0.04916 0.10651 0.08054 0.0
H4244 H 0.0356 0.11198 0.04675 0.0
H4245 H 0.03653 0.07555 0.06689 0.0
H4246 H 1.00587 0.07764 0.07755 0.0
H4247 H 1.00485 0.11401 0.05754 0.0
H4248 H 0.99755 0.11001 0.0987 0.0
H4249 H 0.03233 0.18206 0.17359 0.0
H4250 H 0.02751 0.22619 0.13753 0.0
H4251 H 1.01964 0.16461 0.05595 0.0
C4252 C 0.02518 0.06705 0.13781 0.0
C4253 C 0.02766 0.05973 0.17092 0.0
C4254 C 0.03167 0.08299 0.19349 0.0
C4255 C 0.03258 0.11345 0.18352 0.0
C4256 C 0.02984 0.12006 0.15076 0.0
C4257 C 0.02654 0.09748 0.12809 0.0
C4258 C 0.02382 0.11078 0.0945 0.0
C4259 C 0.03707 0.1006 0.07077 0.0
C4260 C 1.00702 0.10263 0.08133 0.0
C4261 C 0.02526 0.14439 0.10222 0.0
C4262 C 0.02885 0.14929 0.13472 0.0
C4263 C 0.0298 0.17853 0.14794 0.0
C4264 C 0.02697 0.20343 0.12733 0.0
C4265 C 0.02323 0.19882 0.09396 0.0
C4266 C 0.02258 0.1689 0.08131 0.0
H4267 H 0.27691 0.18191 0.17396 0.0
H4268 H 0.24632 0.2261 0.10265 0.0
H4269 H 0.24204 0.17688 0.07481 0.0
H4270 H 0.29574 0.12707 0.12157 0.0
H4271 H 0.29481 0.0961 0.15038 0.0
H4272 H 0.29583 0.13484 0.16481 0.0
H4273 H 0.26991 0.12647 0.19833 0.0
H4274 H 0.26878 0.08767 0.184 0.0
H4275 H 0.25201 0.11291 0.17814 0.0
H4276 H 0.24056 0.12427 0.0551 0.0
H4277 H 0.24223 0.06954 0.04302 0.0
H4278 H 0.27373 0.05702 0.12647 0.0
C4279 C 0.26948 0.18109 0.15226 0.0
C4280 C 0.26205 0.20774 0.14007 0.0
C4281 C 0.25209 0.2059 0.11221 0.0
C4282 C 0.2496 0.17808 0.09629 0.0
C4283 C 0.2569 0.15217 0.10892 0.0
C4284 C 0.26656 0.15318 0.13636 0.0
C4285 C 0.27234 0.1214 0.1453 0.0
C4286 C 0.29078 0.11977 0.14549 0.0
C4287 C 0.26535 0.11154 0.1784 0.0
C4288 C 0.26509 0.10277 0.11752 0.0
C4289 C 0.25598 0.12112 0.09738 0.0
C4290 C 0.24763 0.10958 0.07065 0.0
C4291 C 0.2486 0.0784 0.0641 0.0
C4292 C 0.25806 0.05901 0.08379 0.0
C4293 C 0.26646 0.07138 0.1109 0.0
H4294 H 1.00342 0.80984 0.85503 0.0
H4295 H 0.03088 0.81876 0.94463 0.0
H4296 H 0.03146 0.87454 0.93808 0.0
H4297 H 0.02547 0.86799 0.81248 0.0
H4298 H 1.00836 0.88182 0.79005 0.0
H4299 H 1.00909 0.84259 0.80274 0.0
H4300 H 0.98189 0.84877 0.83259 0.0
H4301 H 0.98102 0.888 0.81993 0.0
H4302 H 0.97961 0.87851 0.86263 0.0
H4303 H 0.03046 0.92853 0.92078 0.0
H4304 H 0.0279 0.97834 0.89321 0.0
H4305 H 1.00113 0.93515 0.81471 0.0
C4306 C 1.00939 0.82369 0.87331 0.0
C4307 C 1.01713 0.81024 0.90026 0.0
C4308 C 0.02504 0.8288 0.92361 0.0
C4309 C 0.02535 0.86045 0.92022 0.0
C4310 C 1.01784 0.87313 0.89317 0.0
C4311 C 1.01008 0.85544 0.86999 0.0
C4312 C 1.00387 0.87486 0.84222 0.0
C4313 C 1.01219 0.86631 0.80997 0.0
C4314 C 0.9855 0.87239 0.83919 0.0
C4315 C 1.00905 0.90621 0.85387 0.0
C4316 C 1.01719 0.9046 0.88321 0.0
C4317 C 0.02396 0.93023 0.89798 0.0
C4318 C 0.02246 0.95835 0.88219 0.0
C4319 C 1.01411 0.96056 0.85224 0.0
C4320 C 1.00722 0.93418 0.83807 0.0
H4321 H 0.78473 0.93203 0.92419 0.0
H4322 H 0.7597 0.97525 0.84385 0.0
H4323 H 0.75664 0.92515 0.81671 0.0
H4324 H 0.80587 0.87416 0.87883 0.0
H4325 H 0.80271 0.84484 0.90892 0.0
H4326 H 0.80375 0.88419 0.9213 0.0
H4327 H 0.77596 0.87938 0.94904 0.0
H4328 H 0.77484 0.83997 0.93687 0.0
H4329 H 0.75902 0.86585 0.92563 0.0
H4330 H 0.75572 0.8712 0.79908 0.0
H4331 H 0.75606 0.81553 0.79213 0.0
H4332 H 0.78115 0.8061 0.88454 0.0
C4333 C 0.77885 0.93091 0.90061 0.0
C4334 C 0.77266 0.9574 0.88565 0.0
C4335 C 0.76459 0.95514 0.85541 0.0
C4336 C 0.76283 0.92686 0.83989 0.0
C4337 C 0.76896 0.90111 0.8553 0.0
C4338 C 0.77668 0.90274 0.88512 0.0
C4339 C 0.78121 0.87127 0.8973 0.0
C4340 C 0.79948 0.86846 0.90183 0.0
C4341 C 0.77222 0.86368 0.92909 0.0
C4342 C 0.7752 0.85178 0.86918 0.0
C4343 C 0.7681 0.86957 0.84539 0.0
C4344 C 0.7612 0.85699 0.81753 0.0
C4345 C 0.76139 0.82533 0.81391 0.0
C4346 C 0.76854 0.80653 0.8379 0.0
C4347 C 0.77568 0.81997 0.86577 0.0
H4348 H 0.02739 0.5862 0.68633 0.0
H4349 H 0.0261 0.53475 0.59597 0.0
H4350 H 0.02654 0.58307 0.56458 0.0
H4351 H 1.00048 0.64554 0.65825 0.0
H4352 H 1.01064 0.67514 0.68089 0.0
H4353 H 1.0107 0.63656 0.69581 0.0
H4354 H 0.04181 0.63749 0.69757 0.0
H4355 H 0.04186 0.676 0.68252 0.0
H4356 H 0.05288 0.64687 0.66115 0.0
H4357 H 0.02896 0.63656 0.54367 0.0
H4358 H 0.02983 0.69213 0.53401 0.0
H4359 H 0.02666 0.70876 0.63804 0.0
C4360 C 0.02727 0.58522 0.65991 0.0
C4361 C 0.02697 0.55705 0.6433 0.0
C4362 C 0.02642 0.55631 0.60887 0.0
C4363 C 0.0267 0.58353 0.59098 0.0
C4364 C 0.02711 0.61103 0.60811 0.0
C4365 C 0.02706 0.61208 0.6418 0.0
C4366 C 0.02676 0.64455 0.65432 0.0
C4367 C 1.01122 0.65081 0.67344 0.0
C4368 C 0.04172 0.65163 0.67511 0.0
C4369 C 0.02705 0.66172 0.62236 0.0
C4370 C 0.02741 0.6419 0.59603 0.0
C4371 C 0.02846 0.65227 0.56403 0.0
C4372 C 0.029 0.68374 0.55877 0.0
C4373 C 0.02822 0.70429 0.5853 0.0
C4374 C 0.02717 0.69327 0.61746 0.0
H4375 H 0.24647 0.69908 0.61519 0.0
H4376 H 0.28613 0.69556 0.68393 0.0
H4377 H 0.28863 0.64034 0.67477 0.0
H4378 H 0.22853 0.62648 0.6337 0.0
H4379 H 0.22409 0.61708 0.59179 0.0
H4380 H 0.22489 0.65636 0.6045 0.0
H4381 H 0.24617 0.66769 0.55997 0.0
H4382 H 0.24538 0.62848 0.54701 0.0
H4383 H 0.2643 0.64541 0.55861 0.0
H4384 H 0.28704 0.58622 0.65858 0.0
H4385 H 0.28278 0.53608 0.63282 0.0
H4386 H 0.24476 0.57425 0.57294 0.0
C4387 C 0.2556 0.68652 0.62829 0.0
C4388 C 0.2661 0.70134 0.65022 0.0
C4389 C 0.27807 0.68452 0.66677 0.0
C4390 C 0.27953 0.65316 0.66193 0.0
C4391 C 0.26904 0.63912 0.64014 0.0
C4392 C 0.25746 0.65519 0.6232 0.0
C4393 C 0.24842 0.63464 0.59976 0.0
C4394 C 0.23042 0.63358 0.60795 0.0
C4395 C 0.25124 0.64465 0.56424 0.0
C4396 C 0.25649 0.60448 0.60683 0.0
C4397 C 0.26834 0.60766 0.63022 0.0
C4398 C 0.27777 0.58332 0.64028 0.0
C4399 C 0.27524 0.55494 0.62557 0.0
C4400 C 0.26337 0.55123 0.60107 0.0
C4401 C 0.25375 0.57627 0.59195 0.0
H4402 H 1.01928 0.30273 0.36024 0.0
H4403 H 0.99703 0.32126 0.45378 0.0
H4404 H 0.99786 0.37646 0.44228 0.0
H4405 H 0.04522 0.36835 0.35682 0.0
H4406 H 0.04207 0.37518 0.31394 0.0
H4407 H 0.04044 0.33708 0.32986 0.0
H4408 H 1.0117 0.33238 0.30598 0.0
H4409 H 1.0133 0.3704 0.28985 0.0
H4410 H 0.99685 0.36056 0.31643 0.0
H4411 H 1.00259 0.42991 0.422 0.0
H4412 H 1.00701 0.47743 0.39034 0.0
H4413 H 0.02326 0.42384 0.30792 0.0
C4414 C 1.01453 0.3185 0.37811 0.0
C4415 C 1.00807 0.30793 0.40785 0.0
C4416 C 1.00187 0.32904 0.4307 0.0
C4417 C 1.00241 0.3604 0.42452 0.0
C4418 C 1.0089 0.37023 0.39506 0.0
C4419 C 1.01453 0.34991 0.37189 0.0
C4420 C 1.01998 0.36645 0.34141 0.0
C4421 C 0.038 0.36146 0.33516 0.0
C4422 C 1.00985 0.35688 0.31166 0.0
C4423 C 1.01664 0.3991 0.35123 0.0
C4424 C 1.01057 0.40088 0.38252 0.0
C4425 C 1.00718 0.42881 0.39733 0.0
C4426 C 1.00979 0.45561 0.37937 0.0
C4427 C 1.01536 0.454 0.34687 0.0
C4428 C 1.01886 0.42547 0.33274 0.0
H4429 H 0.77704 0.31059 0.39131 0.0
H4430 H 0.77678 0.32195 0.28632 0.0
H4431 H 0.77575 0.37798 0.29317 0.0
H4432 H 0.75075 0.37417 0.41092 0.0
H4433 H 0.76189 0.38497 0.44691 0.0
H4434 H 0.76157 0.34578 0.43374 0.0
H4435 H 0.79267 0.34538 0.43205 0.0
H4436 H 0.79307 0.38448 0.44537 0.0
H4437 H 0.80314 0.37364 0.40822 0.0
H4438 H 0.77403 0.43288 0.31173 0.0
H4439 H 0.77501 0.4827 0.34063 0.0
H4440 H 0.77887 0.43549 0.43307 0.0
C4441 C 0.77668 0.32502 0.36992 0.0
C4442 C 0.77687 0.31233 0.33833 0.0
C4443 C 0.77659 0.33158 0.3107 0.0
C4444 C 0.77594 0.36331 0.31437 0.0
C4445 C 0.77576 0.37535 0.34586 0.0
C4446 C 0.77633 0.35683 0.37317 0.0
C4447 C 0.77689 0.37561 0.4042 0.0
C4448 C 0.76188 0.36979 0.42517 0.0
C4449 C 0.79237 0.36941 0.42358 0.0
C4450 C 0.77681 0.4075 0.39005 0.0
C4451 C 0.77577 0.40691 0.35641 0.0
C4452 C 0.77499 0.43366 0.33806 0.0
C4453 C 0.77552 0.46178 0.35455 0.0
C4454 C 0.77725 0.46273 0.38883 0.0
C4455 C 0.77781 0.43527 0.40672 0.0
H4456 H 0.54138 0.05711 0.60402 0.0
H4457 H 0.50526 0.05972 0.68019 0.0
H4458 H 0.50355 0.11554 0.67489 0.0
H4459 H 0.56183 0.12642 0.62174 0.0
H4460 H 0.56406 0.13794 0.57977 0.0
H4461 H 0.56282 0.09809 0.58987 0.0
H4462 H 0.53873 0.09147 0.55027 0.0
H4463 H 0.54001 0.13124 0.53979 0.0
H4464 H 0.5214 0.11559 0.55477 0.0
H4465 H 0.50582 0.17085 0.66188 0.0
H4466 H 0.51016 0.22199 0.63821 0.0
H4467 H 0.54405 0.18361 0.56915 0.0
C4468 C 0.53312 0.06955 0.61946 0.0
C4469 C 0.52353 0.05431 0.64263 0.0
C4470 C 0.51268 0.07108 0.6622 0.0
C4471 C 0.51167 0.10277 0.65951 0.0
C4472 C 0.52135 0.11726 0.63661 0.0
C4473 C 0.53162 0.10121 0.61643 0.0
C4474 C 0.53988 0.12225 0.59243 0.0
C4475 C 0.55824 0.1211 0.59621 0.0
C4476 C 0.5347 0.11469 0.55724 0.0
C4477 C 0.53319 0.15268 0.60329 0.0
C4478 C 0.52244 0.14924 0.62867 0.0
C4479 C 0.51423 0.1739 0.64203 0.0
C4480 C 0.5168 0.20282 0.62853 0.0
C4481 C 0.52756 0.20677 0.60216 0.0
C4482 C 0.53602 0.1814 0.58978 0.0
H4483 H 0.77984 0.07085 0.58012 0.0
H4484 H 0.73291 0.04191 0.61453 0.0
H4485 H 0.72842 0.09301 0.63786 0.0
H4486 H 0.79031 0.11986 0.64815 0.0
H4487 H 0.79957 0.14876 0.62318 0.0
H4488 H 0.79946 0.10965 0.6098 0.0
H4489 H 0.78582 0.12574 0.55573 0.0
H4490 H 0.78582 0.16488 0.56906 0.0
H4491 H 0.76727 0.14676 0.55702 0.0
H4492 H 0.72848 0.14669 0.65621 0.0
H4493 H 0.73331 0.2003 0.6705 0.0
H4494 H 0.78028 0.1962 0.62465 0.0
C4495 C 0.7687 0.07522 0.5929 0.0
C4496 C 0.75672 0.05229 0.59569 0.0
C4497 C 0.74221 0.05906 0.61206 0.0
C4498 C 0.73956 0.08803 0.6254 0.0
C4499 C 0.75146 0.11018 0.62189 0.0
C4500 C 0.76575 0.10427 0.60606 0.0
C4501 C 0.77628 0.13269 0.60501 0.0
C4502 C 0.79235 0.12741 0.6226 0.0
C4503 C 0.77895 0.14312 0.5696 0.0
C4504 C 0.7658 0.15516 0.62348 0.0
C4505 C 0.75148 0.14162 0.63258 0.0
C4506 C 0.73964 0.15757 0.64926 0.0
C4507 C 0.7425 0.18814 0.65715 0.0
C4508 C 0.75717 0.20259 0.6487 0.0
C4509 C 0.76897 0.1858 0.63152 0.0
H4510 H 0.4959 0.93201 0.32912 0.0
H4511 H 0.54053 0.9668 0.37 0.0
H4512 H 0.54527 0.91736 0.39647 0.0
H4513 H 0.48469 0.88555 0.4003 0.0
H4514 H 0.47633 0.85539 0.37558 0.0
H4515 H 0.47595 0.89412 0.3611 0.0
H4516 H 0.49067 0.87737 0.30841 0.0
H4517 H 0.49124 0.83866 0.32284 0.0
H4518 H 0.50961 0.85778 0.31156 0.0
H4519 H 0.54651 0.86358 0.41446 0.0
H4520 H 0.54296 0.80935 0.42767 0.0
H4521 H 0.49692 0.80895 0.37764 0.0
C4522 C 0.50654 0.92938 0.34406 0.0
C4523 C 0.51784 0.95335 0.34748 0.0
C4524 C 0.53165 0.94891 0.36711 0.0
C4525 C 0.5345 0.92084 0.38218 0.0
C4526 C 0.52332 0.89753 0.37774 0.0
C4527 C 0.5095 0.90154 0.35961 0.0
C4528 C 0.49958 0.87246 0.35849 0.0
C4529 C 0.48316 0.87717 0.37485 0.0
C4530 C 0.49767 0.86089 0.32323 0.0
C4531 C 0.51014 0.85141 0.37843 0.0
C4532 C 0.52381 0.86641 0.38907 0.0
C4533 C 0.53577 0.85165 0.40663 0.0
C4534 C 0.53367 0.82077 0.41383 0.0
C4535 C 0.51964 0.80494 0.40378 0.0
C4536 C 0.50769 0.82055 0.3859 0.0
H4537 H 0.27223 0.95922 0.36082 0.0
H4538 H 0.28669 0.93822 0.45988 0.0
H4539 H 0.28563 0.88313 0.44717 0.0
H4540 H 0.24556 0.89565 0.34779 0.0
H4541 H 0.25183 0.88929 0.30626 0.0
H4542 H 0.25289 0.92699 0.32356 0.0
H4543 H 0.28318 0.93008 0.3093 0.0
H4544 H 0.2822 0.89246 0.29183 0.0
H4545 H 0.29655 0.90075 0.32363 0.0
H4546 H 0.28185 0.82997 0.42383 0.0
H4547 H 0.27914 0.78341 0.3896 0.0
H4548 H 0.26982 0.83992 0.30505 0.0
C4549 C 0.27518 0.94292 0.37969 0.0
C4550 C 0.27953 0.95268 0.41125 0.0
C4551 C 0.28346 0.93096 0.43544 0.0
C4552 C 0.28278 0.89969 0.42853 0.0
C4553 C 0.27845 0.89065 0.39712 0.0
C4554 C 0.27501 0.91164 0.37293 0.0
C4555 C 0.27168 0.89603 0.34068 0.0
C4556 C 0.25447 0.90238 0.3289 0.0
C4557 C 0.28415 0.90539 0.31485 0.0
C4558 C 0.27368 0.86309 0.35058 0.0
C4559 C 0.2773 0.86031 0.38332 0.0
C4560 C 0.27918 0.83186 0.39807 0.0
C4561 C 0.27756 0.8056 0.37858 0.0
C4562 C 0.27446 0.80825 0.34477 0.0
C4563 C 0.27242 0.83733 0.3308 0.0
H4564 H 0.53682 0.68478 0.06389 0.0
H4565 H 0.52088 0.72917 0.15269 0.0
H4566 H 0.52003 0.67916 0.18062 0.0
H4567 H 0.51054 0.62061 0.07277 0.0
H4568 H 0.52443 0.59398 0.05491 0.0
H4569 H 0.52495 0.63343 0.04296 0.0
H4570 H 0.55507 0.63623 0.05863 0.0
H4571 H 0.55462 0.59686 0.07092 0.0
H4572 H 0.56128 0.62574 0.09926 0.0
H4573 H 0.51995 0.62503 0.1979 0.0
H4574 H 0.51909 0.56902 0.20321 0.0
H4575 H 0.53457 0.5593 0.10275 0.0
C4576 C 0.53348 0.68394 0.08943 0.0
C4577 C 0.52926 0.71062 0.10659 0.0
C4578 C 0.52432 0.70882 0.13948 0.0
C4579 C 0.52384 0.68064 0.15544 0.0
C4580 C 0.52807 0.65467 0.13782 0.0
C4581 C 0.5326 0.65598 0.10544 0.0
C4582 C 0.53523 0.62447 0.09134 0.0
C4583 C 0.52306 0.61774 0.06388 0.0
C4584 C 0.55259 0.62061 0.07935 0.0
C4585 C 0.53187 0.6052 0.12115 0.0
C4586 C 0.5277 0.62317 0.14762 0.0
C4587 C 0.52326 0.61072 0.17747 0.0
C4588 C 0.52278 0.57902 0.18022 0.0
C4589 C 0.52683 0.56029 0.15339 0.0
C4590 C 0.53166 0.57339 0.12364 0.0
H4591 H 0.78565 0.56571 0.1116 0.0
H4592 H 0.73499 0.55246 0.09004 0.0
H4593 H 0.72981 0.60621 0.10307 0.0
H4594 H 0.77978 0.61578 0.18014 0.0
H4595 H 0.79685 0.63967 0.17103 0.0
H4596 H 0.79685 0.60022 0.15891 0.0
H4597 H 0.80223 0.61611 0.09904 0.0
H4598 H 0.8022 0.65563 0.11101 0.0
H4599 H 0.78882 0.64248 0.0793 0.0
H4600 H 0.72976 0.66073 0.11862 0.0
H4601 H 0.7347 0.71286 0.13864 0.0
H4602 H 0.78526 0.6917 0.15136 0.0
C4603 C 0.77347 0.57413 0.10974 0.0
C4604 C 0.76072 0.55476 0.09995 0.0
C4605 C 0.74495 0.56668 0.09775 0.0
C4606 C 0.74188 0.59728 0.10491 0.0
C4607 C 0.75467 0.61575 0.1144 0.0
C4608 C 0.77014 0.60472 0.11706 0.0
C4609 C 0.78157 0.62946 0.12881 0.0
C4610 C 0.78921 0.62076 0.16168 0.0
C4611 C 0.79446 0.63632 0.10299 0.0
C4612 C 0.77002 0.65592 0.13257 0.0
C4613 C 0.75461 0.64748 0.12382 0.0
C4614 C 0.74178 0.66768 0.12555 0.0
C4615 C 0.74471 0.69726 0.13697 0.0
C4616 C 0.76035 0.7064 0.14663 0.0
C4617 C 0.77318 0.68545 0.14407 0.0
H4618 H 0.51399 0.45748 0.88981 0.0
H4619 H 0.5124 0.44479 0.78504 0.0
H4620 H 0.51275 0.38908 0.79222 0.0
H4621 H 0.54014 0.39534 0.908 0.0
H4622 H 0.52987 0.38406 0.94477 0.0
H4623 H 0.52927 0.42317 0.93161 0.0
H4624 H 0.49817 0.42166 0.93207 0.0
H4625 H 0.49871 0.3826 0.94546 0.0
H4626 H 0.48775 0.39261 0.90907 0.0
H4627 H 0.51504 0.3351 0.81033 0.0
H4628 H 0.51646 0.28541 0.83888 0.0
H4629 H 0.51472 0.33198 0.93212 0.0
C4630 C 0.51361 0.44282 0.86853 0.0
C4631 C 0.51352 0.45522 0.83677 0.0
C4632 C 0.51293 0.43562 0.80942 0.0
C4633 C 0.51301 0.40396 0.81331 0.0
C4634 C 0.51349 0.39227 0.84483 0.0
C4635 C 0.51353 0.41098 0.87205 0.0
C4636 C 0.51393 0.39229 0.90316 0.0
C4637 C 0.52922 0.39913 0.92305 0.0
C4638 C 0.49873 0.3976 0.92364 0.0
C4639 C 0.51426 0.36029 0.88906 0.0
C4640 C 0.51413 0.36087 0.85535 0.0
C4641 C 0.515 0.33428 0.83672 0.0
C4642 C 0.51588 0.30627 0.85301 0.0
C4643 C 0.51568 0.30521 0.88741 0.0
C4644 C 0.51483 0.33245 0.90568 0.0
H4645 H 0.27633 0.34129 0.79774 0.0
H4646 H 0.2668 0.28641 0.88358 0.0
H4647 H 0.2691 0.33261 0.91818 0.0
H4648 H 0.30543 0.39298 0.83654 0.0
H4649 H 0.29856 0.42534 0.81346 0.0
H4650 H 0.2972 0.38763 0.79621 0.0
H4651 H 0.26672 0.39532 0.78668 0.0
H4652 H 0.26791 0.43286 0.80428 0.0
H4653 H 0.25402 0.40526 0.82066 0.0
H4654 H 0.27047 0.38565 0.94268 0.0
H4655 H 0.27239 0.44077 0.95554 0.0
H4656 H 0.28139 0.46057 0.85368 0.0
C4657 C 0.27488 0.33886 0.82387 0.0
C4658 C 0.27133 0.31024 0.838 0.0
C4659 C 0.2696 0.30807 0.87227 0.0
C4660 C 0.27084 0.3342 0.89207 0.0
C4661 C 0.27402 0.36218 0.87722 0.0
C4662 C 0.27622 0.36457 0.84392 0.0
C4663 C 0.27921 0.39729 0.83379 0.0
C4664 C 0.2961 0.40102 0.81914 0.0
C4665 C 0.26619 0.40832 0.80995 0.0
C4666 C 0.27796 0.4132 0.86649 0.0
C4667 C 0.27502 0.39253 0.89128 0.0
C4668 C 0.27295 0.40193 0.92351 0.0
C4669 C 0.27402 0.43317 0.93058 0.0
C4670 C 0.27711 0.45454 0.90557 0.0
C4671 C 0.27911 0.44449 0.87317 0.0
loop_
_geom_bond_atom_site_label_1
_geom_bond_atom_site_label_2
_geom_bond_distance
_geom_bond_site_symmetry_2
_ccdc_geom_bond_type
C0 C1 1.387 . S
C0 C5 1.380 . S
C0 C16 1.494 . S
C1 C0 1.387 . S
C1 C2 1.386 . S
C1 H32 0.930 . S
C2 C1 1.386 . S
C2 C3 1.397 . S
C3 C2 1.397 . S
C3 C4 1.393 . S
C3 H33 0.930 . S
C4 C3 1.393 . S
C4 C5 1.395 . S
C5 C0 1.380 . S
C5 C4 1.395 . S
C5 H34 0.930 . S
O6 Tb7 2.295 1_554 S
O6 C19 1.242 . S
Tb7 O6 2.295 1_556 S
Tb7 O8 2.312 . S
Tb7 O11 2.438 1_556 S
Tb7 O13 2.472 1_556 S
Tb7 O15 2.308 . S
Tb7 C16 2.821 1_556 S
O8 Tb7 2.312 . S
O8 C28 1.264 1_455 S
O9 Eu10 2.304 1_455 S
O9 C19 1.254 . S
Eu10 O9 2.304 1_655 S
Eu10 C12 2.821 . S
Eu10 O14 2.295 1_655 S
Eu10 O21 2.312 1_655 S
Eu10 O30 2.438 . S
Eu10 O31 2.472 . S
O11 Tb7 2.438 1_554 S
O11 C16 1.263 . S
C12 Eu10 2.821 . S
C12 C22 1.494 . S
C12 O30 1.263 . S
C12 O31 1.264 . S
O13 Tb7 2.472 1_554 S
O13 C16 1.264 . S
O14 Eu10 2.295 1_455 S
O14 C20 1.242 1_554 S
O15 Tb7 2.308 . S
O15 C20 1.243 . S
C16 C0 1.494 . S
C16 Tb7 2.821 1_554 S
C16 O11 1.263 . S
C16 O13 1.264 . S
C17 O18 1.260 . S
C17 O21 1.264 . S
O18 C17 1.260 . S
C19 O6 1.242 . S
C19 O9 1.254 . S
C20 O14 1.242 1_556 S
C20 O15 1.243 . S
O21 Eu10 2.312 1_455 S
O21 C17 1.264 . S
C22 C12 1.494 . S
C22 C24 1.380 . S
C22 C25 1.387 . S
C23 C24 1.395 . S
C23 C27 1.395 . S
C24 C22 1.380 . S
C24 C23 1.395 . S
C24 H35 0.930 . S
C25 C22 1.387 . S
C25 C26 1.386 . S
C25 H36 0.930 . S
C26 C25 1.386 . S
C26 C27 1.408 . S
C27 C23 1.395 . S
C27 C26 1.408 . S
C27 H37 0.918 1_554 S
C28 O8 1.264 1_655 S
C28 O29 1.260 . S
O29 C28 1.260 . S
O30 Eu10 2.438 . S
O30 C12 1.263 . S
O31 Eu10 2.472 . S
O31 C12 1.264 . S
H32 C1 0.930 . S
H33 C3 0.930 . S
H34 C5 0.930 . S
H35 C24 0.930 . S
H36 C25 0.930 . S
H37 C27 0.918 1_556 S
C38 C39 1.387 . S
C38 C43 1.380 . S
C38 C54 1.494 . S
C39 C38 1.387 . S
C39 C40 1.386 . S
C39 H70 0.930 . S
C40 C39 1.386 . S
C40 C41 1.397 . S
C41 C40 1.397 . S
C41 C42 1.393 . S
C41 H71 0.930 . S
C42 C41 1.393 . S
C42 C43 1.395 . S
C43 C38 1.380 . S
C43 C42 1.395 . S
C43 H72 0.930 . S
O44 Tb45 2.295 1_554 S
O44 C57 1.242 . S
Tb45 O44 2.295 1_556 S
Tb45 O46 2.312 . S
Tb45 O49 2.438 1_556 S
Tb45 O51 2.472 1_556 S
Tb45 O53 2.308 . S
Tb45 C54 2.821 1_556 S
O46 Tb45 2.312 . S
O46 C66 1.264 . S
O47 Eu48 2.308 . S
O47 C57 1.243 . S
Eu48 O47 2.308 . S
Eu48 C50 2.821 . S
Eu48 O52 2.295 . S
Eu48 O59 2.312 1_565 S
Eu48 O68 2.438 . S
Eu48 O69 2.472 . S
O49 Tb45 2.438 1_554 S
O49 C54 1.263 . S
C50 Eu48 2.821 . S
C50 C60 1.494 . S
C50 O68 1.263 . S
C50 O69 1.264 . S
O51 Tb45 2.472 1_554 S
O51 C54 1.264 . S
O52 Eu48 2.295 . S
O52 C58 1.242 1_554 S
O53 Tb45 2.308 . S
O53 C58 1.243 . S
C54 C38 1.494 . S
C54 Tb45 2.821 1_554 S
C54 O49 1.263 . S
C54 O51 1.264 . S
C55 O56 1.260 . S
C55 O59 1.264 . S
O56 C55 1.260 . S
C57 O44 1.242 . S
C57 O47 1.243 . S
C58 O52 1.242 1_556 S
C58 O53 1.243 . S
O59 Eu48 2.312 1_545 S
O59 C55 1.264 . S
C60 C50 1.494 . S
C60 C62 1.380 . S
C60 C63 1.387 . S
C61 C62 1.395 . S
C61 C65 1.395 . S
C62 C60 1.380 . S
C62 C61 1.395 . S
C62 H73 0.930 . S
C63 C60 1.387 . S
C63 C64 1.386 . S
C63 H74 0.930 1_565 S
C64 C63 1.386 . S
C64 C65 1.409 . S
C65 C61 1.395 . S
C65 C64 1.409 . S
C65 H75 0.917 1_554 S
C66 O46 1.264 . S
C66 O67 1.260 . S
O67 C66 1.260 . S
O68 Eu48 2.438 . S
O68 C50 1.263 . S
O69 Eu48 2.472 . S
O69 C50 1.264 . S
H70 C39 0.930 . S
H71 C41 0.930 . S
H72 C43 0.930 . S
H73 C62 0.930 . S
H74 C63 0.930 1_545 S
H75 C65 0.917 1_556 S
C76 C77 1.387 . S
C76 C81 1.380 . S
C76 C92 1.494 . S
C77 C76 1.387 . S
C77 C78 1.386 . S
C77 H108 0.930 . S
C78 C77 1.386 . S
C78 C79 1.397 . S
C79 C78 1.397 . S
C79 C80 1.393 . S
C79 H109 0.930 . S
C80 C79 1.393 . S
C80 C81 1.395 . S
C81 C76 1.380 . S
C81 C80 1.395 . S
C81 H110 0.930 . S
O82 Tb83 2.295 . S
O82 C95 1.242 . S
Tb83 O82 2.295 . S
Tb83 O84 2.312 . S
Tb83 O87 2.438 . S
Tb83 O89 2.472 . S
Tb83 O91 2.308 . S
Tb83 C92 2.821 . S
O84 Tb83 2.312 . S
O84 C104 1.264 1_455 S
O85 Eu86 2.304 1_455 S
O85 C95 1.254 . S
Eu86 O85 2.304 1_655 S
Eu86 C88 2.821 . S
Eu86 O90 2.295 1_655 S
Eu86 O97 2.312 1_665 S
Eu86 O106 2.438 . S
Eu86 O107 2.472 . S
O87 Tb83 2.438 . S
O87 C92 1.263 . S
C88 Eu86 2.821 . S
C88 C98 1.494 . S
C88 O106 1.263 . S
C88 O107 1.264 . S
O89 Tb83 2.472 . S
O89 C92 1.264 . S
O90 Eu86 2.295 1_455 S
O90 C96 1.242 . S
O91 Tb83 2.308 . S
O91 C96 1.243 . S
C92 C76 1.494 . S
C92 Tb83 2.821 . S
C92 O87 1.263 . S
C92 O89 1.264 . S
C93 O94 1.260 . S
C93 O97 1.264 . S
O94 C93 1.260 . S
C95 O82 1.242 . S
C95 O85 1.254 . S
C96 O90 1.242 . S
C96 O91 1.243 . S
O97 Eu86 2.312 1_445 S
O97 C93 1.264 . S
C98 C88 1.494 . S
C98 C100 1.380 . S
C98 C101 1.387 . S
C99 C100 1.395 . S
C99 C103 1.393 . S
C100 C98 1.380 . S
C100 C99 1.395 . S
C100 H111 0.930 . S
C101 C98 1.387 . S
C101 C102 1.386 . S
C101 H112 0.930 1_565 S
C102 C101 1.386 . S
C102 C103 1.397 . S
C103 C99 1.393 . S
C103 C102 1.397 . S
C103 H113 0.930 . S
C104 O84 1.264 1_655 S
C104 O105 1.260 . S
O105 C104 1.260 . S
O106 Eu86 2.438 . S
O106 C88 1.263 . S
O107 Eu86 2.472 . S
O107 C88 1.264 . S
H108 C77 0.930 . S
H109 C79 0.930 . S
H110 C81 0.930 . S
H111 C100 0.930 . S
H112 C101 0.930 1_545 S
H113 C103 0.930 . S
C114 C115 1.387 . S
C114 C119 1.380 . S
C114 C130 1.494 . S
C115 C114 1.387 . S
C115 C116 1.386 . S
C115 H146 0.930 . S
C116 C115 1.386 . S
C116 C117 1.397 . S
C117 C116 1.397 . S
C117 C118 1.393 . S
C117 H147 0.930 . S
C118 C117 1.393 . S
C118 C119 1.395 . S
C119 C114 1.380 . S
C119 C118 1.395 . S
C119 H148 0.930 . S
O120 Tb121 2.295 . S
O120 C133 1.242 . S
Tb121 O120 2.295 . S
Tb121 O122 2.312 . S
Tb121 O125 2.438 . S
Tb121 O127 2.472 . S
Tb121 O129 2.308 . S
Tb121 C130 2.821 . S
O122 Tb121 2.312 . S
O122 C142 1.264 . S
O123 Eu124 2.308 . S
O123 C133 1.243 . S
Eu124 O123 2.308 . S
Eu124 C126 2.821 . S
Eu124 O128 2.295 . S
Eu124 O135 2.312 . S
Eu124 O144 2.438 . S
Eu124 O145 2.472 . S
O125 Tb121 2.438 . S
O125 C130 1.263 . S
C126 Eu124 2.821 . S
C126 C136 1.494 . S
C126 O144 1.263 . S
C126 O145 1.264 . S
O127 Tb121 2.472 . S
O127 C130 1.264 . S
O128 Eu124 2.295 . S
O128 C134 1.242 . S
O129 Tb121 2.308 . S
O129 C134 1.243 . S
C130 C114 1.494 . S
C130 Tb121 2.821 . S
C130 O125 1.263 . S
C130 O127 1.264 . S
C131 O132 1.260 . S
C131 O135 1.264 . S
O132 C131 1.260 . S
C133 O120 1.242 . S
C133 O123 1.243 . S
C134 O128 1.242 . S
C134 O129 1.243 . S
O135 Eu124 2.312 . S
O135 C131 1.264 . S
C136 C126 1.494 . S
C136 C138 1.380 . S
C136 C139 1.387 . S
C137 C138 1.395 . S
C137 C141 1.393 . S
C138 C136 1.380 . S
C138 C137 1.395 . S
C138 H149 0.930 . S
C139 C136 1.387 . S
C139 C140 1.386 . S
C139 H150 0.930 . S
C140 C139 1.386 . S
C140 C141 1.397 . S
C141 C137 1.393 . S
C141 C140 1.397 . S
C141 H151 0.930 . S
C142 O122 1.264 . S
C142 O143 1.260 . S
O143 C142 1.260 . S
O144 Eu124 2.438 . S
O144 C126 1.263 . S
O145 Eu124 2.472 . S
O145 C126 1.264 . S
H146 C115 0.930 . S
H147 C117 0.930 . S
H148 C119 0.930 . S
H149 C138 0.930 . S
H150 C139 0.930 . S
H151 C141 0.930 . S
C152 C153 1.387 . S
C152 C157 1.380 . S
C152 C168 1.494 . S
C153 C152 1.387 . S
C153 C154 1.386 . S
C153 H184 0.930 . S
C154 C153 1.386 . S
C154 C155 1.408 . S
C155 C154 1.408 . S
C155 C156 1.395 . S
C155 H185 0.918 1_556 S
C156 C155 1.395 . S
C156 C157 1.395 . S
C157 C152 1.380 . S
C157 C156 1.395 . S
C157 H186 0.930 . S
O158 Tb159 2.295 1_655 S
O158 C171 1.242 1_556 S
Tb159 O158 2.295 1_455 S
Tb159 O160 2.312 1_455 S
Tb159 O163 2.438 . S
Tb159 O165 2.472 . S
Tb159 O167 2.304 1_455 S
Tb159 C168 2.821 . S
O160 Tb159 2.312 1_655 S
O160 C180 1.264 . S
O161 Eu162 2.308 . S
O161 C171 1.243 . S
Eu162 O161 2.308 . S
Eu162 C164 2.821 1_554 S
Eu162 O166 2.295 1_554 S
Eu162 O173 2.312 . S
Eu162 O182 2.438 1_554 S
Eu162 O183 2.472 1_554 S
O163 Tb159 2.438 . S
O163 C168 1.263 . S
C164 Eu162 2.821 1_556 S
C164 C174 1.494 . S
C164 O182 1.263 . S
C164 O183 1.264 . S
O165 Tb159 2.472 . S
O165 C168 1.264 . S
O166 Eu162 2.295 1_556 S
O166 C172 1.242 . S
O167 Tb159 2.304 1_655 S
O167 C172 1.254 . S
C168 C152 1.494 . S
C168 Tb159 2.821 . S
C168 O163 1.263 . S
C168 O165 1.264 . S
C169 O170 1.260 . S
C169 O173 1.264 1_455 S
O170 C169 1.260 . S
C171 O158 1.242 1_554 S
C171 O161 1.243 . S
C172 O166 1.242 . S
C172 O167 1.254 . S
O173 Eu162 2.312 . S
O173 C169 1.264 1_655 S
C174 C164 1.494 . S
C174 C176 1.380 . S
C174 C177 1.387 . S
C175 C176 1.395 . S
C175 C179 1.393 . S
C176 C174 1.380 . S
C176 C175 1.395 . S
C176 H187 0.930 . S
C177 C174 1.387 . S
C177 C178 1.386 . S
C177 H188 0.930 . S
C178 C177 1.386 . S
C178 C179 1.397 . S
C179 C175 1.393 . S
C179 C178 1.397 . S
C179 H189 0.930 . S
C180 O160 1.264 . S
C180 O181 1.260 . S
O181 C180 1.260 . S
O182 Eu162 2.438 1_556 S
O182 C164 1.263 . S
O183 Eu162 2.472 1_556 S
O183 C164 1.264 . S
H184 C153 0.930 . S
H185 C155 0.918 1_554 S
H186 C157 0.930 . S
H187 C176 0.930 . S
H188 C177 0.930 . S
H189 C179 0.930 . S
C190 C191 1.387 . S
C190 C195 1.380 . S
C190 C206 1.494 . S
C191 C190 1.387 . S
C191 C192 1.386 . S
C191 H222 0.930 1_545 S
C192 C191 1.386 . S
C192 C193 1.409 . S
C193 C192 1.409 . S
C193 C194 1.395 . S
C193 H223 0.917 1_556 S
C194 C193 1.395 . S
C194 C195 1.395 . S
C195 C190 1.380 . S
C195 C194 1.395 . S
C195 H224 0.930 . S
O196 Tb197 2.295 . S
O196 C209 1.242 1_556 S
Tb197 O196 2.295 . S
Tb197 O198 2.312 1_545 S
Tb197 O201 2.438 . S
Tb197 O203 2.472 . S
Tb197 O205 2.308 . S
Tb197 C206 2.821 . S
O198 Tb197 2.312 1_565 S
O198 C218 1.264 . S
O199 Eu200 2.308 . S
O199 C209 1.243 . S
Eu200 O199 2.308 . S
Eu200 C202 2.821 1_554 S
Eu200 O204 2.295 1_554 S
Eu200 O211 2.312 . S
Eu200 O220 2.438 1_554 S
Eu200 O221 2.472 1_554 S
O201 Tb197 2.438 . S
O201 C206 1.263 . S
C202 Eu200 2.821 1_556 S
C202 C212 1.494 . S
C202 O220 1.263 . S
C202 O221 1.264 . S
O203 Tb197 2.472 . S
O203 C206 1.264 . S
O204 Eu200 2.295 1_556 S
O204 C210 1.242 . S
O205 Tb197 2.308 . S
O205 C210 1.243 . S
C206 C190 1.494 . S
C206 Tb197 2.821 . S
C206 O201 1.263 . S
C206 O203 1.264 . S
C207 O208 1.260 . S
C207 O211 1.264 . S
O208 C207 1.260 . S
C209 O196 1.242 1_554 S
C209 O199 1.243 . S
C210 O204 1.242 . S
C210 O205 1.243 . S
O211 Eu200 2.312 . S
O211 C207 1.264 . S
C212 C202 1.494 . S
C212 C214 1.380 . S
C212 C215 1.387 . S
C213 C214 1.395 . S
C213 C217 1.393 . S
C214 C212 1.380 . S
C214 C213 1.395 . S
C214 H225 0.930 . S
C215 C212 1.387 . S
C215 C216 1.386 . S
C215 H226 0.930 . S
C216 C215 1.386 . S
C216 C217 1.397 . S
C217 C213 1.393 . S
C217 C216 1.397 . S
C217 H227 0.930 . S
C218 O198 1.264 . S
C218 O219 1.260 . S
O219 C218 1.260 . S
O220 Eu200 2.438 1_556 S
O220 C202 1.263 . S
O221 Eu200 2.472 1_556 S
O221 C202 1.264 . S
H222 C191 0.930 1_565 S
H223 C193 0.917 1_554 S
H224 C195 0.930 . S
H225 C214 0.930 . S
H226 C215 0.930 . S
H227 C217 0.930 . S
C228 C229 1.387 . S
C228 C233 1.380 . S
C228 C244 1.494 . S
C229 C228 1.387 . S
C229 C230 1.386 . S
C229 H260 0.930 1_545 S
C230 C229 1.386 . S
C230 C231 1.397 . S
C231 C230 1.397 . S
C231 C232 1.393 . S
C231 H261 0.930 . S
C232 C231 1.393 . S
C232 C233 1.395 . S
C233 C228 1.380 . S
C233 C232 1.395 . S
C233 H262 0.930 . S
O234 Tb235 2.295 1_655 S
O234 C247 1.242 . S
Tb235 O234 2.295 1_455 S
Tb235 O236 2.312 1_445 S
Tb235 O239 2.438 . S
Tb235 O241 2.472 . S
Tb235 O243 2.304 1_455 S
Tb235 C244 2.821 . S
O236 Tb235 2.312 1_665 S
O236 C256 1.264 . S
O237 Eu238 2.308 . S
O237 C247 1.243 . S
Eu238 O237 2.308 . S
Eu238 C240 2.821 . S
Eu238 O242 2.295 . S
Eu238 O249 2.312 . S
Eu238 O258 2.438 . S
Eu238 O259 2.472 . S
O239 Tb235 2.438 . S
O239 C244 1.263 . S
C240 Eu238 2.821 . S
C240 C250 1.494 . S
C240 O258 1.263 . S
C240 O259 1.264 . S
O241 Tb235 2.472 . S
O241 C244 1.264 . S
O242 Eu238 2.295 . S
O242 C248 1.242 . S
O243 Tb235 2.304 1_655 S
O243 C248 1.254 . S
C244 C228 1.494 . S
C244 Tb235 2.821 . S
C244 O239 1.263 . S
C244 O241 1.264 . S
C245 O246 1.260 . S
C245 O249 1.264 1_455 S
O246 C245 1.260 . S
C247 O234 1.242 . S
C247 O237 1.243 . S
C248 O242 1.242 . S
C248 O243 1.254 . S
O249 Eu238 2.312 . S
O249 C245 1.264 1_655 S
C250 C240 1.494 . S
C250 C252 1.380 . S
C250 C253 1.387 . S
C251 C252 1.395 . S
C251 C255 1.393 . S
C252 C250 1.380 . S
C252 C251 1.395 . S
C252 H263 0.930 . S
C253 C250 1.387 . S
C253 C254 1.386 . S
C253 H264 0.930 . S
C254 C253 1.386 . S
C254 C255 1.397 . S
C255 C251 1.393 . S
C255 C254 1.397 . S
C255 H265 0.930 . S
C256 O236 1.264 . S
C256 O257 1.260 . S
O257 C256 1.260 . S
O258 Eu238 2.438 . S
O258 C240 1.263 . S
O259 Eu238 2.472 . S
O259 C240 1.264 . S
H260 C229 0.930 1_565 S
H261 C231 0.930 . S
H262 C233 0.930 . S
H263 C252 0.930 . S
H264 C253 0.930 . S
H265 C255 0.930 . S
C266 C267 1.387 . S
C266 C271 1.380 . S
C266 C282 1.494 . S
C267 C266 1.387 . S
C267 C268 1.386 . S
C267 H298 0.930 . S
C268 C267 1.386 . S
C268 C269 1.397 . S
C269 C268 1.397 . S
C269 C270 1.393 . S
C269 H299 0.930 . S
C270 C269 1.393 . S
C270 C271 1.395 . S
C271 C266 1.380 . S
C271 C270 1.395 . S
C271 H300 0.930 . S
O272 Tb273 2.295 . S
O272 C285 1.242 . S
Tb273 O272 2.295 . S
Tb273 O274 2.312 . S
Tb273 O277 2.438 . S
Tb273 O279 2.472 . S
Tb273 O281 2.308 . S
Tb273 C282 2.821 . S
O274 Tb273 2.312 . S
O274 C294 1.264 . S
O275 Eu276 2.308 . S
O275 C285 1.243 . S
Eu276 O275 2.308 . S
Eu276 C278 2.821 . S
Eu276 O280 2.295 . S
Eu276 O287 2.312 . S
Eu276 O296 2.438 . S
Eu276 O297 2.472 . S
O277 Tb273 2.438 . S
O277 C282 1.263 . S
C278 Eu276 2.821 . S
C278 C288 1.494 . S
C278 O296 1.263 . S
C278 O297 1.264 . S
O279 Tb273 2.472 . S
O279 C282 1.264 . S
O280 Eu276 2.295 . S
O280 C286 1.242 . S
O281 Tb273 2.308 . S
O281 C286 1.243 . S
C282 C266 1.494 . S
C282 Tb273 2.821 . S
C282 O277 1.263 . S
C282 O279 1.264 . S
C283 O284 1.260 . S
C283 O287 1.264 . S
O284 C283 1.260 . S
C285 O272 1.242 . S
C285 O275 1.243 . S
C286 O280 1.242 . S
C286 O281 1.243 . S
O287 Eu276 2.312 . S
O287 C283 1.264 . S
C288 C278 1.494 . S
C288 C290 1.380 . S
C288 C291 1.387 . S
C289 C290 1.395 . S
C289 C293 1.393 . S
C290 C288 1.380 . S
C290 C289 1.395 . S
C290 H301 0.930 . S
C291 C288 1.387 . S
C291 C292 1.386 . S
C291 H302 0.930 . S
C292 C291 1.386 . S
C292 C293 1.397 . S
C293 C289 1.393 . S
C293 C292 1.397 . S
C293 H303 0.930 . S
C294 O274 1.264 . S
C294 O295 1.260 . S
O295 C294 1.260 . S
O296 Eu276 2.438 . S
O296 C278 1.263 . S
O297 Eu276 2.472 . S
O297 C278 1.264 . S
H298 C267 0.930 . S
H299 C269 0.930 . S
H300 C271 0.930 . S
H301 C290 0.930 . S
H302 C291 0.930 . S
H303 C293 0.930 . S
C304 C305 1.387 . S
C304 C309 1.380 . S
C304 C320 1.494 . S
C305 C304 1.387 . S
C305 C306 1.386 . S
C305 H336 0.930 . S
C306 C305 1.386 . S
C306 C307 1.397 . S
C307 C306 1.397 . S
C307 C308 1.393 . S
C307 H337 0.930 . S
C308 C307 1.393 . S
C308 C309 1.395 . S
C309 C304 1.380 . S
C309 C308 1.395 . S
C309 H338 0.930 . S
O310 Tb311 2.295 . S
O310 C323 1.242 . S
Tb311 O310 2.295 . S
Tb311 O312 2.312 . S
Tb311 O315 2.438 . S
Tb311 O317 2.472 . S
Tb311 O319 2.308 . S
Tb311 C320 2.821 . S
O312 Tb311 2.312 . S
O312 C332 1.264 1_455 S
O313 Eu314 2.304 1_455 S
O313 C323 1.254 . S
Eu314 O313 2.304 1_655 S
Eu314 C316 2.821 . S
Eu314 O318 2.295 1_655 S
Eu314 O325 2.312 1_655 S
Eu314 O334 2.438 . S
Eu314 O335 2.472 . S
O315 Tb311 2.438 . S
O315 C320 1.263 . S
C316 Eu314 2.821 . S
C316 C326 1.494 . S
C316 O334 1.263 . S
C316 O335 1.264 . S
O317 Tb311 2.472 . S
O317 C320 1.264 . S
O318 Eu314 2.295 1_455 S
O318 C324 1.242 . S
O319 Tb311 2.308 . S
O319 C324 1.243 . S
C320 C304 1.494 . S
C320 Tb311 2.821 . S
C320 O315 1.263 . S
C320 O317 1.264 . S
C321 O322 1.260 . S
C321 O325 1.264 . S
O322 C321 1.260 . S
C323 O310 1.242 . S
C323 O313 1.254 . S
C324 O318 1.242 . S
C324 O319 1.243 . S
O325 Eu314 2.312 1_455 S
O325 C321 1.264 . S
C326 C316 1.494 . S
C326 C328 1.380 . S
C326 C329 1.387 . S
C327 C328 1.395 . S
C327 C331 1.393 . S
C328 C326 1.380 . S
C328 C327 1.395 . S
C328 H339 0.930 . S
C329 C326 1.387 . S
C329 C330 1.386 . S
C329 H340 0.930 . S
C330 C329 1.386 . S
C330 C331 1.397 . S
C331 C327 1.393 . S
C331 C330 1.397 . S
C331 H341 0.930 . S
C332 O312 1.264 1_655 S
C332 O333 1.260 . S
O333 C332 1.260 . S
O334 Eu314 2.438 . S
O334 C316 1.263 . S
O335 Eu314 2.472 . S
O335 C316 1.264 . S
H336 C305 0.930 . S
H337 C307 0.930 . S
H338 C309 0.930 . S
H339 C328 0.930 . S
H340 C329 0.930 . S
H341 C331 0.930 . S
C342 C343 1.387 . S
C342 C347 1.380 . S
C342 C358 1.494 . S
C343 C342 1.387 . S
C343 C344 1.386 . S
C343 H374 0.930 . S
C344 C343 1.386 . S
C344 C345 1.397 . S
C345 C344 1.397 . S
C345 C346 1.393 . S
C345 H375 0.930 . S
C346 C345 1.393 . S
C346 C347 1.395 . S
C347 C342 1.380 . S
C347 C346 1.395 . S
C347 H376 0.930 . S
O348 Tb349 2.295 . S
O348 C361 1.242 . S
Tb349 O348 2.295 . S
Tb349 O350 2.312 . S
Tb349 O353 2.438 . S
Tb349 O355 2.472 . S
Tb349 O357 2.308 . S
Tb349 C358 2.821 . S
O350 Tb349 2.312 . S
O350 C370 1.264 . S
O351 Eu352 2.308 . S
O351 C361 1.243 . S
Eu352 O351 2.308 . S
Eu352 C354 2.821 . S
Eu352 O356 2.295 . S
Eu352 O363 2.312 . S
Eu352 O372 2.438 . S
Eu352 O373 2.472 . S
O353 Tb349 2.438 . S
O353 C358 1.263 . S
C354 Eu352 2.821 . S
C354 C364 1.494 . S
C354 O372 1.263 . S
C354 O373 1.264 . S
O355 Tb349 2.472 . S
O355 C358 1.264 . S
O356 Eu352 2.295 . S
O356 C362 1.242 . S
O357 Tb349 2.308 . S
O357 C362 1.243 . S
C358 C342 1.494 . S
C358 Tb349 2.821 . S
C358 O353 1.263 . S
C358 O355 1.264 . S
C359 O360 1.260 . S
C359 O363 1.264 . S
O360 C359 1.260 . S
C361 O348 1.242 . S
C361 O351 1.243 . S
C362 O356 1.242 . S
C362 O357 1.243 . S
O363 Eu352 2.312 . S
O363 C359 1.264 . S
C364 C354 1.494 . S
C364 C366 1.380 . S
C364 C367 1.387 . S
C365 C366 1.395 . S
C365 C369 1.393 . S
C366 C364 1.380 . S
C366 C365 1.395 . S
C366 H377 0.930 . S
C367 C364 1.387 . S
C367 C368 1.386 . S
C367 H378 0.930 . S
C368 C367 1.386 . S
C368 C369 1.397 . S
C369 C365 1.393 . S
C369 C368 1.397 . S
C369 H379 0.930 . S
C370 O350 1.264 . S
C370 O371 1.260 . S
O371 C370 1.260 . S
O372 Eu352 2.438 . S
O372 C354 1.263 . S
O373 Eu352 2.472 . S
O373 C354 1.264 . S
H374 C343 0.930 . S
H375 C345 0.930 . S
H376 C347 0.930 . S
H377 C366 0.930 . S
H378 C367 0.930 . S
H379 C369 0.930 . S
C380 C381 1.387 . S
C380 C385 1.380 . S
C380 C396 1.494 . S
C381 C380 1.387 . S
C381 C382 1.386 . S
C381 H412 0.930 . S
C382 C381 1.386 . S
C382 C383 1.397 . S
C383 C382 1.397 . S
C383 C384 1.393 . S
C383 H413 0.930 . S
C384 C383 1.393 . S
C384 C385 1.395 . S
C385 C380 1.380 . S
C385 C384 1.395 . S
C385 H414 0.930 . S
O386 Tb387 2.295 . S
O386 C399 1.242 . S
Tb387 O386 2.295 . S
Tb387 O388 2.312 . S
Tb387 O391 2.438 . S
Tb387 O393 2.472 . S
Tb387 O395 2.308 . S
Tb387 C396 2.821 . S
O388 Tb387 2.312 . S
O388 C408 1.264 1_455 S
O389 Eu390 2.304 1_455 S
O389 C399 1.254 . S
Eu390 O389 2.304 1_655 S
Eu390 C392 2.821 . S
Eu390 O394 2.295 1_655 S
Eu390 O401 2.312 1_655 S
Eu390 O410 2.438 . S
Eu390 O411 2.472 . S
O391 Tb387 2.438 . S
O391 C396 1.263 . S
C392 Eu390 2.821 . S
C392 C402 1.494 . S
C392 O410 1.263 . S
C392 O411 1.264 . S
O393 Tb387 2.472 . S
O393 C396 1.264 . S
O394 Eu390 2.295 1_455 S
O394 C400 1.242 . S
O395 Tb387 2.308 . S
O395 C400 1.243 . S
C396 C380 1.494 . S
C396 Tb387 2.821 . S
C396 O391 1.263 . S
C396 O393 1.264 . S
C397 O398 1.260 . S
C397 O401 1.264 . S
O398 C397 1.260 . S
C399 O386 1.242 . S
C399 O389 1.254 . S
C400 O394 1.242 . S
C400 O395 1.243 . S
O401 Eu390 2.312 1_455 S
O401 C397 1.264 . S
C402 C392 1.494 . S
C402 C404 1.380 . S
C402 C405 1.387 . S
C403 C404 1.395 . S
C403 C407 1.393 . S
C404 C402 1.380 . S
C404 C403 1.395 . S
C404 H415 0.930 . S
C405 C402 1.387 . S
C405 C406 1.386 . S
C405 H416 0.930 . S
C406 C405 1.386 . S
C406 C407 1.397 . S
C407 C403 1.393 . S
C407 C406 1.397 . S
C407 H417 0.930 . S
C408 O388 1.264 1_655 S
C408 O409 1.260 . S
O409 C408 1.260 . S
O410 Eu390 2.438 . S
O410 C392 1.263 . S
O411 Eu390 2.472 . S
O411 C392 1.264 . S
H412 C381 0.930 . S
H413 C383 0.930 . S
H414 C385 0.930 . S
H415 C404 0.930 . S
H416 C405 0.930 . S
H417 C407 0.930 . S
C418 C419 1.387 . S
C418 C423 1.380 . S
C418 C434 1.494 . S
C419 C418 1.387 . S
C419 C420 1.386 . S
C419 H450 0.930 . S
C420 C419 1.386 . S
C420 C421 1.397 . S
C421 C420 1.397 . S
C421 C422 1.393 . S
C421 H451 0.930 . S
C422 C421 1.393 . S
C422 C423 1.395 . S
C423 C418 1.380 . S
C423 C422 1.395 . S
C423 H452 0.930 . S
O424 Tb425 2.295 . S
O424 C437 1.242 . S
Tb425 O424 2.295 . S
Tb425 O426 2.312 . S
Tb425 O429 2.438 . S
Tb425 O431 2.472 . S
Tb425 O433 2.308 . S
Tb425 C434 2.821 . S
O426 Tb425 2.312 . S
O426 C446 1.264 . S
O427 Eu428 2.308 . S
O427 C437 1.243 . S
Eu428 O427 2.308 . S
Eu428 C430 2.821 . S
Eu428 O432 2.295 . S
Eu428 O439 2.312 . S
Eu428 O448 2.438 . S
Eu428 O449 2.472 . S
O429 Tb425 2.438 . S
O429 C434 1.263 . S
C430 Eu428 2.821 . S
C430 C440 1.494 . S
C430 O448 1.263 . S
C430 O449 1.264 . S
O431 Tb425 2.472 . S
O431 C434 1.264 . S
O432 Eu428 2.295 . S
O432 C438 1.242 . S
O433 Tb425 2.308 . S
O433 C438 1.243 . S
C434 C418 1.494 . S
C434 Tb425 2.821 . S
C434 O429 1.263 . S
C434 O431 1.264 . S
C435 O436 1.260 . S
C435 O439 1.264 . S
O436 C435 1.260 . S
C437 O424 1.242 . S
C437 O427 1.243 . S
C438 O432 1.242 . S
C438 O433 1.243 . S
O439 Eu428 2.312 . S
O439 C435 1.264 . S
C440 C430 1.494 . S
C440 C442 1.380 . S
C440 C443 1.387 . S
C441 C442 1.395 . S
C441 C445 1.393 . S
C442 C440 1.380 . S
C442 C441 1.395 . S
C442 H453 0.930 . S
C443 C440 1.387 . S
C443 C444 1.386 . S
C443 H454 0.930 . S
C444 C443 1.386 . S
C444 C445 1.397 . S
C445 C441 1.393 . S
C445 C444 1.397 . S
C445 H455 0.930 . S
C446 O426 1.264 . S
C446 O447 1.260 . S
O447 C446 1.260 . S
O448 Eu428 2.438 . S
O448 C430 1.263 . S
O449 Eu428 2.472 . S
O449 C430 1.264 . S
H450 C419 0.930 . S
H451 C421 0.930 . S
H452 C423 0.930 . S
H453 C442 0.930 . S
H454 C443 0.930 . S
H455 C445 0.930 . S
C456 C457 1.387 . S
C456 C461 1.380 . S
C456 C472 1.494 . S
C457 C456 1.387 . S
C457 C458 1.386 . S
C457 H488 0.930 . S
C458 C457 1.386 . S
C458 C459 1.397 . S
C459 C458 1.397 . S
C459 C460 1.393 . S
C459 H489 0.930 . S
C460 C459 1.393 . S
C460 C461 1.395 . S
C461 C456 1.380 . S
C461 C460 1.395 . S
C461 H490 0.930 . S
O462 Tb463 2.295 1_655 S
O462 C475 1.242 . S
Tb463 O462 2.295 1_455 S
Tb463 O464 2.312 1_455 S
Tb463 O467 2.438 . S
Tb463 O469 2.472 . S
Tb463 O471 2.304 1_455 S
Tb463 C472 2.821 . S
O464 Tb463 2.312 1_655 S
O464 C484 1.264 . S
O465 Eu466 2.308 . S
O465 C475 1.243 . S
Eu466 O465 2.308 . S
Eu466 C468 2.821 . S
Eu466 O470 2.295 . S
Eu466 O477 2.312 . S
Eu466 O486 2.438 . S
Eu466 O487 2.472 . S
O467 Tb463 2.438 . S
O467 C472 1.263 . S
C468 Eu466 2.821 . S
C468 C478 1.494 . S
C468 O486 1.263 . S
C468 O487 1.264 . S
O469 Tb463 2.472 . S
O469 C472 1.264 . S
O470 Eu466 2.295 . S
O470 C476 1.242 . S
O471 Tb463 2.304 1_655 S
O471 C476 1.254 . S
C472 C456 1.494 . S
C472 Tb463 2.821 . S
C472 O467 1.263 . S
C472 O469 1.264 . S
C473 O474 1.260 . S
C473 O477 1.264 1_455 S
O474 C473 1.260 . S
C475 O462 1.242 . S
C475 O465 1.243 . S
C476 O470 1.242 . S
C476 O471 1.254 . S
O477 Eu466 2.312 . S
O477 C473 1.264 1_655 S
C478 C468 1.494 . S
C478 C480 1.380 . S
C478 C481 1.387 . S
C479 C480 1.395 . S
C479 C483 1.393 . S
C480 C478 1.380 . S
C480 C479 1.395 . S
C480 H491 0.930 . S
C481 C478 1.387 . S
C481 C482 1.386 . S
C481 H492 0.930 . S
C482 C481 1.386 . S
C482 C483 1.397 . S
C483 C479 1.393 . S
C483 C482 1.397 . S
C483 H493 0.930 . S
C484 O464 1.264 . S
C484 O485 1.260 . S
O485 C484 1.260 . S
O486 Eu466 2.438 . S
O486 C468 1.263 . S
O487 Eu466 2.472 . S
O487 C468 1.264 . S
H488 C457 0.930 . S
H489 C459 0.930 . S
H490 C461 0.930 . S
H491 C480 0.930 . S
H492 C481 0.930 . S
H493 C483 0.930 . S
C494 C495 1.387 . S
C494 C499 1.380 . S
C494 C510 1.494 . S
C495 C494 1.387 . S
C495 C496 1.386 . S
C495 H526 0.930 . S
C496 C495 1.386 . S
C496 C497 1.397 . S
C497 C496 1.397 . S
C497 C498 1.393 . S
C497 H527 0.930 . S
C498 C497 1.393 . S
C498 C499 1.395 . S
C499 C494 1.380 . S
C499 C498 1.395 . S
C499 H528 0.930 . S
O500 Tb501 2.295 . S
O500 C513 1.242 . S
Tb501 O500 2.295 . S
Tb501 O502 2.312 . S
Tb501 O505 2.438 . S
Tb501 O507 2.472 . S
Tb501 O509 2.308 . S
Tb501 C510 2.821 . S
O502 Tb501 2.312 . S
O502 C522 1.264 . S
O503 Eu504 2.308 . S
O503 C513 1.243 . S
Eu504 O503 2.308 . S
Eu504 C506 2.821 . S
Eu504 O508 2.295 . S
Eu504 O515 2.312 . S
Eu504 O524 2.438 . S
Eu504 O525 2.472 . S
O505 Tb501 2.438 . S
O505 C510 1.263 . S
C506 Eu504 2.821 . S
C506 C516 1.494 . S
C506 O524 1.263 . S
C506 O525 1.264 . S
O507 Tb501 2.472 . S
O507 C510 1.264 . S
O508 Eu504 2.295 . S
O508 C514 1.242 . S
O509 Tb501 2.308 . S
O509 C514 1.243 . S
C510 C494 1.494 . S
C510 Tb501 2.821 . S
C510 O505 1.263 . S
C510 O507 1.264 . S
C511 O512 1.260 . S
C511 O515 1.264 . S
O512 C511 1.260 . S
C513 O500 1.242 . S
C513 O503 1.243 . S
C514 O508 1.242 . S
C514 O509 1.243 . S
O515 Eu504 2.312 . S
O515 C511 1.264 . S
C516 C506 1.494 . S
C516 C518 1.380 . S
C516 C519 1.387 . S
C517 C518 1.395 . S
C517 C521 1.393 . S
C518 C516 1.380 . S
C518 C517 1.395 . S
C518 H529 0.930 . S
C519 C516 1.387 . S
C519 C520 1.386 . S
C519 H530 0.930 . S
C520 C519 1.386 . S
C520 C521 1.397 . S
C521 C517 1.393 . S
C521 C520 1.397 . S
C521 H531 0.930 . S
C522 O502 1.264 . S
C522 O523 1.260 . S
O523 C522 1.260 . S
O524 Eu504 2.438 . S
O524 C506 1.263 . S
O525 Eu504 2.472 . S
O525 C506 1.264 . S
H526 C495 0.930 . S
H527 C497 0.930 . S
H528 C499 0.930 . S
H529 C518 0.930 . S
H530 C519 0.930 . S
H531 C521 0.930 . S
C532 C533 1.387 . S
C532 C537 1.380 . S
C532 C548 1.494 . S
C533 C532 1.387 . S
C533 C534 1.386 . S
C533 H564 0.930 . S
C534 C533 1.386 . S
C534 C535 1.397 . S
C535 C534 1.397 . S
C535 C536 1.393 . S
C535 H565 0.930 . S
C536 C535 1.393 . S
C536 C537 1.395 . S
C537 C532 1.380 . S
C537 C536 1.395 . S
C537 H566 0.930 . S
O538 Tb539 2.295 1_655 S
O538 C551 1.242 . S
Tb539 O538 2.295 1_455 S
Tb539 O540 2.312 1_455 S
Tb539 O543 2.438 . S
Tb539 O545 2.472 . S
Tb539 O547 2.304 1_455 S
Tb539 C548 2.821 . S
O540 Tb539 2.312 1_655 S
O540 C560 1.264 . S
O541 Eu542 2.308 . S
O541 C551 1.243 . S
Eu542 O541 2.308 . S
Eu542 C544 2.821 . S
Eu542 O546 2.295 . S
Eu542 O553 2.312 . S
Eu542 O562 2.438 . S
Eu542 O563 2.472 . S
O543 Tb539 2.438 . S
O543 C548 1.263 . S
C544 Eu542 2.821 . S
C544 C554 1.494 . S
C544 O562 1.263 . S
C544 O563 1.264 . S
O545 Tb539 2.472 . S
O545 C548 1.264 . S
O546 Eu542 2.295 . S
O546 C552 1.242 . S
O547 Tb539 2.304 1_655 S
O547 C552 1.254 . S
C548 C532 1.494 . S
C548 Tb539 2.821 . S
C548 O543 1.263 . S
C548 O545 1.264 . S
C549 O550 1.260 . S
C549 O553 1.264 1_455 S
O550 C549 1.260 . S
C551 O538 1.242 . S
C551 O541 1.243 . S
C552 O546 1.242 . S
C552 O547 1.254 . S
O553 Eu542 2.312 . S
O553 C549 1.264 1_655 S
C554 C544 1.494 . S
C554 C556 1.380 . S
C554 C557 1.387 . S
C555 C556 1.395 . S
C555 C559 1.393 . S
C556 C554 1.380 . S
C556 C555 1.395 . S
C556 H567 0.930 . S
C557 C554 1.387 . S
C557 C558 1.386 . S
C557 H568 0.930 . S
C558 C557 1.386 . S
C558 C559 1.397 . S
C559 C555 1.393 . S
C559 C558 1.397 . S
C559 H569 0.930 . S
C560 O540 1.264 . S
C560 O561 1.260 . S
O561 C560 1.260 . S
O562 Eu542 2.438 . S
O562 C544 1.263 . S
O563 Eu542 2.472 . S
O563 C544 1.264 . S
H564 C533 0.930 . S
H565 C535 0.930 . S
H566 C537 0.930 . S
H567 C556 0.930 . S
H568 C557 0.930 . S
H569 C559 0.930 . S
C570 C571 1.387 . S
C570 C575 1.380 . S
C570 C586 1.494 . S
C571 C570 1.387 . S
C571 C572 1.386 . S
C571 H602 0.930 . S
C572 C571 1.386 . S
C572 C573 1.397 . S
C573 C572 1.397 . S
C573 C574 1.393 . S
C573 H603 0.930 . S
C574 C573 1.393 . S
C574 C575 1.395 . S
C575 C570 1.380 . S
C575 C574 1.395 . S
C575 H604 0.930 . S
O576 Tb577 2.295 . S
O576 C589 1.242 . S
Tb577 O576 2.295 . S
Tb577 O578 2.312 . S
Tb577 O581 2.438 . S
Tb577 O583 2.472 . S
Tb577 O585 2.308 . S
Tb577 C586 2.821 . S
O578 Tb577 2.312 . S
O578 C598 1.264 . S
O579 Eu580 2.308 . S
O579 C589 1.243 . S
Eu580 O579 2.308 . S
Eu580 C582 2.821 . S
Eu580 O584 2.295 . S
Eu580 O591 2.312 . S
Eu580 O600 2.438 . S
Eu580 O601 2.472 . S
O581 Tb577 2.438 . S
O581 C586 1.263 . S
C582 Eu580 2.821 . S
C582 C592 1.494 . S
C582 O600 1.263 . S
C582 O601 1.264 . S
O583 Tb577 2.472 . S
O583 C586 1.264 . S
O584 Eu580 2.295 . S
O584 C590 1.242 . S
O585 Tb577 2.308 . S
O585 C590 1.243 . S
C586 C570 1.494 . S
C586 Tb577 2.821 . S
C586 O581 1.263 . S
C586 O583 1.264 . S
C587 O588 1.260 . S
C587 O591 1.264 . S
O588 C587 1.260 . S
C589 O576 1.242 . S
C589 O579 1.243 . S
C590 O584 1.242 . S
C590 O585 1.243 . S
O591 Eu580 2.312 . S
O591 C587 1.264 . S
C592 C582 1.494 . S
C592 C594 1.380 . S
C592 C595 1.387 . S
C593 C594 1.395 . S
C593 C597 1.393 . S
C594 C592 1.380 . S
C594 C593 1.395 . S
C594 H605 0.930 . S
C595 C592 1.387 . S
C595 C596 1.386 . S
C595 H606 0.930 . S
C596 C595 1.386 . S
C596 C597 1.397 . S
C597 C593 1.393 . S
C597 C596 1.397 . S
C597 H607 0.930 . S
C598 O578 1.264 . S
C598 O599 1.260 . S
O599 C598 1.260 . S
O600 Eu580 2.438 . S
O600 C582 1.263 . S
O601 Eu580 2.472 . S
O601 C582 1.264 . S
H602 C571 0.930 . S
H603 C573 0.930 . S
H604 C575 0.930 . S
H605 C594 0.930 . S
H606 C595 0.930 . S
H607 C597 0.930 . S
C608 C609 1.387 . S
C608 C613 1.380 . S
C608 C624 1.494 . S
C609 C608 1.387 . S
C609 C610 1.386 . S
C609 H640 0.930 . S
C610 C609 1.386 . S
C610 C611 1.397 . S
C611 C610 1.397 . S
C611 C612 1.393 . S
C611 H641 0.930 . S
C612 C611 1.393 . S
C612 C613 1.395 . S
C613 C608 1.380 . S
C613 C612 1.395 . S
C613 H642 0.930 . S
O614 Tb615 2.295 . S
O614 C627 1.242 . S
Tb615 O614 2.295 . S
Tb615 O616 2.312 . S
Tb615 O619 2.438 . S
Tb615 O621 2.472 . S
Tb615 O623 2.308 . S
Tb615 C624 2.821 . S
O616 Tb615 2.312 . S
O616 C636 1.264 . S
O617 Eu618 2.308 . S
O617 C627 1.243 . S
Eu618 O617 2.308 . S
Eu618 C620 2.821 . S
Eu618 O622 2.295 . S
Eu618 O629 2.312 . S
Eu618 O638 2.438 . S
Eu618 O639 2.472 . S
O619 Tb615 2.438 . S
O619 C624 1.263 . S
C620 Eu618 2.821 . S
C620 C630 1.494 . S
C620 O638 1.263 . S
C620 O639 1.264 . S
O621 Tb615 2.472 . S
O621 C624 1.264 . S
O622 Eu618 2.295 . S
O622 C628 1.242 . S
O623 Tb615 2.308 . S
O623 C628 1.243 . S
C624 C608 1.494 . S
C624 Tb615 2.821 . S
C624 O619 1.263 . S
C624 O621 1.264 . S
C625 O626 1.260 . S
C625 O629 1.264 . S
O626 C625 1.260 . S
C627 O614 1.242 . S
C627 O617 1.243 . S
C628 O622 1.242 . S
C628 O623 1.243 . S
O629 Eu618 2.312 . S
O629 C625 1.264 . S
C630 C620 1.494 . S
C630 C632 1.380 . S
C630 C633 1.387 . S
C631 C632 1.395 . S
C631 C635 1.393 . S
C632 C630 1.380 . S
C632 C631 1.395 . S
C632 H643 0.930 . S
C633 C630 1.387 . S
C633 C634 1.386 . S
C633 H644 0.930 . S
C634 C633 1.386 . S
C634 C635 1.397 . S
C635 C631 1.393 . S
C635 C634 1.397 . S
C635 H645 0.930 . S
C636 O616 1.264 . S
C636 O637 1.260 . S
O637 C636 1.260 . S
O638 Eu618 2.438 . S
O638 C620 1.263 . S
O639 Eu618 2.472 . S
O639 C620 1.264 . S
H640 C609 0.930 . S
H641 C611 0.930 . S
H642 C613 0.930 . S
H643 C632 0.930 . S
H644 C633 0.930 . S
H645 C635 0.930 . S
C646 C647 1.387 . S
C646 C651 1.380 . S
C646 C662 1.494 . S
C647 C646 1.387 . S
C647 C648 1.386 . S
C647 H678 0.930 . S
C648 C647 1.386 . S
C648 C649 1.397 . S
C649 C648 1.397 . S
C649 C650 1.393 . S
C649 H679 0.930 . S
C650 C649 1.393 . S
C650 C651 1.395 . S
C651 C646 1.380 . S
C651 C650 1.395 . S
C651 H680 0.930 . S
O652 Tb653 2.295 . S
O652 C665 1.242 . S
Tb653 O652 2.295 . S
Tb653 O654 2.312 . S
Tb653 O657 2.438 . S
Tb653 O659 2.472 . S
Tb653 O661 2.308 . S
Tb653 C662 2.821 . S
O654 Tb653 2.312 . S
O654 C674 1.264 . S
O655 Eu656 2.308 . S
O655 C665 1.243 . S
Eu656 O655 2.308 . S
Eu656 C658 2.821 . S
Eu656 O660 2.295 . S
Eu656 O667 2.312 1_565 S
Eu656 O676 2.438 . S
Eu656 O677 2.472 . S
O657 Tb653 2.438 . S
O657 C662 1.263 . S
C658 Eu656 2.821 . S
C658 C668 1.494 . S
C658 O676 1.263 . S
C658 O677 1.264 . S
O659 Tb653 2.472 . S
O659 C662 1.264 . S
O660 Eu656 2.295 . S
O660 C666 1.242 . S
O661 Tb653 2.308 . S
O661 C666 1.243 . S
C662 C646 1.494 . S
C662 Tb653 2.821 . S
C662 O657 1.263 . S
C662 O659 1.264 . S
C663 O664 1.260 . S
C663 O667 1.264 . S
O664 C663 1.260 . S
C665 O652 1.242 . S
C665 O655 1.243 . S
C666 O660 1.242 . S
C666 O661 1.243 . S
O667 Eu656 2.312 1_545 S
O667 C663 1.264 . S
C668 C658 1.494 . S
C668 C670 1.380 . S
C668 C671 1.387 . S
C669 C670 1.395 . S
C669 C673 1.393 . S
C670 C668 1.380 . S
C670 C669 1.395 . S
C670 H681 0.930 . S
C671 C668 1.387 . S
C671 C672 1.386 . S
C671 H682 0.930 1_565 S
C672 C671 1.386 . S
C672 C673 1.397 . S
C673 C669 1.393 . S
C673 C672 1.397 . S
C673 H683 0.930 . S
C674 O654 1.264 . S
C674 O675 1.260 . S
O675 C674 1.260 . S
O676 Eu656 2.438 . S
O676 C658 1.263 . S
O677 Eu656 2.472 . S
O677 C658 1.264 . S
H678 C647 0.930 . S
H679 C649 0.930 . S
H680 C651 0.930 . S
H681 C670 0.930 . S
H682 C671 0.930 1_545 S
H683 C673 0.930 . S
C684 C685 1.387 . S
C684 C689 1.380 . S
C684 C700 1.494 . S
C685 C684 1.387 . S
C685 C686 1.386 . S
C685 H716 0.930 . S
C686 C685 1.386 . S
C686 C687 1.397 . S
C687 C686 1.397 . S
C687 C688 1.393 . S
C687 H717 0.930 . S
C688 C687 1.393 . S
C688 C689 1.395 . S
C689 C684 1.380 . S
C689 C688 1.395 . S
C689 H718 0.930 . S
O690 Tb691 2.295 . S
O690 C703 1.242 . S
Tb691 O690 2.295 . S
Tb691 O692 2.312 . S
Tb691 O695 2.438 . S
Tb691 O697 2.472 . S
Tb691 O699 2.308 . S
Tb691 C700 2.821 . S
O692 Tb691 2.312 . S
O692 C712 1.264 . S
O693 Eu694 2.308 . S
O693 C703 1.243 . S
Eu694 O693 2.308 . S
Eu694 C696 2.821 . S
Eu694 O698 2.295 . S
Eu694 O705 2.312 1_565 S
Eu694 O714 2.438 . S
Eu694 O715 2.472 . S
O695 Tb691 2.438 . S
O695 C700 1.263 . S
C696 Eu694 2.821 . S
C696 C706 1.494 . S
C696 O714 1.263 . S
C696 O715 1.264 . S
O697 Tb691 2.472 . S
O697 C700 1.264 . S
O698 Eu694 2.295 . S
O698 C704 1.242 . S
O699 Tb691 2.308 . S
O699 C704 1.243 . S
C700 C684 1.494 . S
C700 Tb691 2.821 . S
C700 O695 1.263 . S
C700 O697 1.264 . S
C701 O702 1.260 . S
C701 O705 1.264 . S
O702 C701 1.260 . S
C703 O690 1.242 . S
C703 O693 1.243 . S
C704 O698 1.242 . S
C704 O699 1.243 . S
O705 Eu694 2.312 1_545 S
O705 C701 1.264 . S
C706 C696 1.494 . S
C706 C708 1.380 . S
C706 C709 1.387 . S
C707 C708 1.395 . S
C707 C711 1.393 . S
C708 C706 1.380 . S
C708 C707 1.395 . S
C708 H719 0.930 . S
C709 C706 1.387 . S
C709 C710 1.386 . S
C709 H720 0.930 1_565 S
C710 C709 1.386 . S
C710 C711 1.397 . S
C711 C707 1.393 . S
C711 C710 1.397 . S
C711 H721 0.930 . S
C712 O692 1.264 . S
C712 O713 1.260 . S
O713 C712 1.260 . S
O714 Eu694 2.438 . S
O714 C696 1.263 . S
O715 Eu694 2.472 . S
O715 C696 1.264 . S
H716 C685 0.930 . S
H717 C687 0.930 . S
H718 C689 0.930 . S
H719 C708 0.930 . S
H720 C709 0.930 1_545 S
H721 C711 0.930 . S
C722 C723 1.387 . S
C722 C727 1.380 . S
C722 C738 1.494 . S
C723 C722 1.387 . S
C723 C724 1.386 . S
C723 H754 0.930 . S
C724 C723 1.386 . S
C724 C725 1.397 . S
C725 C724 1.397 . S
C725 C726 1.393 . S
C725 H755 0.930 . S
C726 C725 1.393 . S
C726 C727 1.395 . S
C727 C722 1.380 . S
C727 C726 1.395 . S
C727 H756 0.930 . S
O728 Tb729 2.295 . S
O728 C741 1.242 . S
Tb729 O728 2.295 . S
Tb729 O730 2.312 . S
Tb729 O733 2.438 . S
Tb729 O735 2.472 . S
Tb729 O737 2.308 . S
Tb729 C738 2.821 . S
O730 Tb729 2.312 . S
O730 C750 1.264 . S
O731 Eu732 2.308 . S
O731 C741 1.243 . S
Eu732 O731 2.308 . S
Eu732 C734 2.821 . S
Eu732 O736 2.295 . S
Eu732 O743 2.312 . S
Eu732 O752 2.438 . S
Eu732 O753 2.472 . S
O733 Tb729 2.438 . S
O733 C738 1.263 . S
C734 Eu732 2.821 . S
C734 C744 1.494 . S
C734 O752 1.263 . S
C734 O753 1.264 . S
O735 Tb729 2.472 . S
O735 C738 1.264 . S
O736 Eu732 2.295 . S
O736 C742 1.242 . S
O737 Tb729 2.308 . S
O737 C742 1.243 . S
C738 C722 1.494 . S
C738 Tb729 2.821 . S
C738 O733 1.263 . S
C738 O735 1.264 . S
C739 O740 1.260 . S
C739 O743 1.264 . S
O740 C739 1.260 . S
C741 O728 1.242 . S
C741 O731 1.243 . S
C742 O736 1.242 . S
C742 O737 1.243 . S
O743 Eu732 2.312 . S
O743 C739 1.264 . S
C744 C734 1.494 . S
C744 C746 1.380 . S
C744 C747 1.387 . S
C745 C746 1.395 . S
C745 C749 1.393 . S
C746 C744 1.380 . S
C746 C745 1.395 . S
C746 H757 0.930 . S
C747 C744 1.387 . S
C747 C748 1.386 . S
C747 H758 0.930 . S
C748 C747 1.386 . S
C748 C749 1.397 . S
C749 C745 1.393 . S
C749 C748 1.397 . S
C749 H759 0.930 . S
C750 O730 1.264 . S
C750 O751 1.260 . S
O751 C750 1.260 . S
O752 Eu732 2.438 . S
O752 C734 1.263 . S
O753 Eu732 2.472 . S
O753 C734 1.264 . S
H754 C723 0.930 . S
H755 C725 0.930 . S
H756 C727 0.930 . S
H757 C746 0.930 . S
H758 C747 0.930 . S
H759 C749 0.930 . S
C760 C761 1.387 . S
C760 C765 1.380 . S
C760 C776 1.494 . S
C761 C760 1.387 . S
C761 C762 1.386 . S
C761 H792 0.930 . S
C762 C761 1.386 . S
C762 C763 1.397 . S
C763 C762 1.397 . S
C763 C764 1.393 . S
C763 H793 0.930 . S
C764 C763 1.393 . S
C764 C765 1.395 . S
C765 C760 1.380 . S
C765 C764 1.395 . S
C765 H794 0.930 . S
O766 Tb767 2.295 . S
O766 C779 1.242 . S
Tb767 O766 2.295 . S
Tb767 O768 2.312 . S
Tb767 O771 2.438 . S
Tb767 O773 2.472 . S
Tb767 O775 2.308 . S
Tb767 C776 2.821 . S
O768 Tb767 2.312 . S
O768 C788 1.264 . S
O769 Eu770 2.308 . S
O769 C779 1.243 . S
Eu770 O769 2.308 . S
Eu770 C772 2.821 . S
Eu770 O774 2.295 . S
Eu770 O781 2.312 . S
Eu770 O790 2.438 . S
Eu770 O791 2.472 . S
O771 Tb767 2.438 . S
O771 C776 1.263 . S
C772 Eu770 2.821 . S
C772 C782 1.494 . S
C772 O790 1.263 . S
C772 O791 1.264 . S
O773 Tb767 2.472 . S
O773 C776 1.264 . S
O774 Eu770 2.295 . S
O774 C780 1.242 . S
O775 Tb767 2.308 . S
O775 C780 1.243 . S
C776 C760 1.494 . S
C776 Tb767 2.821 . S
C776 O771 1.263 . S
C776 O773 1.264 . S
C777 O778 1.260 . S
C777 O781 1.264 . S
O778 C777 1.260 . S
C779 O766 1.242 . S
C779 O769 1.243 . S
C780 O774 1.242 . S
C780 O775 1.243 . S
O781 Eu770 2.312 . S
O781 C777 1.264 . S
C782 C772 1.494 . S
C782 C784 1.380 . S
C782 C785 1.387 . S
C783 C784 1.395 . S
C783 C787 1.393 . S
C784 C782 1.380 . S
C784 C783 1.395 . S
C784 H795 0.930 . S
C785 C782 1.387 . S
C785 C786 1.386 . S
C785 H796 0.930 . S
C786 C785 1.386 . S
C786 C787 1.397 . S
C787 C783 1.393 . S
C787 C786 1.397 . S
C787 H797 0.930 . S
C788 O768 1.264 . S
C788 O789 1.260 . S
O789 C788 1.260 . S
O790 Eu770 2.438 . S
O790 C772 1.263 . S
O791 Eu770 2.472 . S
O791 C772 1.264 . S
H792 C761 0.930 . S
H793 C763 0.930 . S
H794 C765 0.930 . S
H795 C784 0.930 . S
H796 C785 0.930 . S
H797 C787 0.930 . S
C798 C799 1.387 . S
C798 C803 1.380 . S
C798 C814 1.494 . S
C799 C798 1.387 . S
C799 C800 1.386 . S
C799 H830 0.930 1_545 S
C800 C799 1.386 . S
C800 C801 1.397 . S
C801 C800 1.397 . S
C801 C802 1.393 . S
C801 H831 0.930 . S
C802 C801 1.393 . S
C802 C803 1.395 . S
C803 C798 1.380 . S
C803 C802 1.395 . S
C803 H832 0.930 . S
O804 Tb805 2.295 . S
O804 C817 1.242 . S
Tb805 O804 2.295 . S
Tb805 O806 2.312 1_545 S
Tb805 O809 2.438 . S
Tb805 O811 2.472 . S
Tb805 O813 2.308 . S
Tb805 C814 2.821 . S
O806 Tb805 2.312 1_565 S
O806 C826 1.264 . S
O807 Eu808 2.308 . S
O807 C817 1.243 . S
Eu808 O807 2.308 . S
Eu808 C810 2.821 . S
Eu808 O812 2.295 . S
Eu808 O819 2.312 . S
Eu808 O828 2.438 . S
Eu808 O829 2.472 . S
O809 Tb805 2.438 . S
O809 C814 1.263 . S
C810 Eu808 2.821 . S
C810 C820 1.494 . S
C810 O828 1.263 . S
C810 O829 1.264 . S
O811 Tb805 2.472 . S
O811 C814 1.264 . S
O812 Eu808 2.295 . S
O812 C818 1.242 . S
O813 Tb805 2.308 . S
O813 C818 1.243 . S
C814 C798 1.494 . S
C814 Tb805 2.821 . S
C814 O809 1.263 . S
C814 O811 1.264 . S
C815 O816 1.260 . S
C815 O819 1.264 . S
O816 C815 1.260 . S
C817 O804 1.242 . S
C817 O807 1.243 . S
C818 O812 1.242 . S
C818 O813 1.243 . S
O819 Eu808 2.312 . S
O819 C815 1.264 . S
C820 C810 1.494 . S
C820 C822 1.380 . S
C820 C823 1.387 . S
C821 C822 1.395 . S
C821 C825 1.393 . S
C822 C820 1.380 . S
C822 C821 1.395 . S
C822 H833 0.930 . S
C823 C820 1.387 . S
C823 C824 1.386 . S
C823 H834 0.930 . S
C824 C823 1.386 . S
C824 C825 1.397 . S
C825 C821 1.393 . S
C825 C824 1.397 . S
C825 H835 0.930 . S
C826 O806 1.264 . S
C826 O827 1.260 . S
O827 C826 1.260 . S
O828 Eu808 2.438 . S
O828 C810 1.263 . S
O829 Eu808 2.472 . S
O829 C810 1.264 . S
H830 C799 0.930 1_565 S
H831 C801 0.930 . S
H832 C803 0.930 . S
H833 C822 0.930 . S
H834 C823 0.930 . S
H835 C825 0.930 . S
C836 C837 1.387 . S
C836 C841 1.380 . S
C836 C852 1.494 . S
C837 C836 1.387 . S
C837 C838 1.386 . S
C837 H868 0.930 1_545 S
C838 C837 1.386 . S
C838 C839 1.397 . S
C839 C838 1.397 . S
C839 C840 1.393 . S
C839 H869 0.930 . S
C840 C839 1.393 . S
C840 C841 1.395 . S
C841 C836 1.380 . S
C841 C840 1.395 . S
C841 H870 0.930 . S
O842 Tb843 2.295 . S
O842 C855 1.242 . S
Tb843 O842 2.295 . S
Tb843 O844 2.312 1_545 S
Tb843 O847 2.438 . S
Tb843 O849 2.472 . S
Tb843 O851 2.308 . S
Tb843 C852 2.821 . S
O844 Tb843 2.312 1_565 S
O844 C864 1.264 . S
O845 Eu846 2.308 . S
O845 C855 1.243 . S
Eu846 O845 2.308 . S
Eu846 C848 2.821 . S
Eu846 O850 2.295 . S
Eu846 O857 2.312 . S
Eu846 O866 2.438 . S
Eu846 O867 2.472 . S
O847 Tb843 2.438 . S
O847 C852 1.263 . S
C848 Eu846 2.821 . S
C848 C858 1.494 . S
C848 O866 1.263 . S
C848 O867 1.264 . S
O849 Tb843 2.472 . S
O849 C852 1.264 . S
O850 Eu846 2.295 . S
O850 C856 1.242 . S
O851 Tb843 2.308 . S
O851 C856 1.243 . S
C852 C836 1.494 . S
C852 Tb843 2.821 . S
C852 O847 1.263 . S
C852 O849 1.264 . S
C853 O854 1.260 . S
C853 O857 1.264 . S
O854 C853 1.260 . S
C855 O842 1.242 . S
C855 O845 1.243 . S
C856 O850 1.242 . S
C856 O851 1.243 . S
O857 Eu846 2.312 . S
O857 C853 1.264 . S
C858 C848 1.494 . S
C858 C860 1.380 . S
C858 C861 1.387 . S
C859 C860 1.395 . S
C859 C863 1.393 . S
C860 C858 1.380 . S
C860 C859 1.395 . S
C860 H871 0.930 . S
C861 C858 1.387 . S
C861 C862 1.386 . S
C861 H872 0.930 . S
C862 C861 1.386 . S
C862 C863 1.397 . S
C863 C859 1.393 . S
C863 C862 1.397 . S
C863 H873 0.930 . S
C864 O844 1.264 . S
C864 O865 1.260 . S
O865 C864 1.260 . S
O866 Eu846 2.438 . S
O866 C848 1.263 . S
O867 Eu846 2.472 . S
O867 C848 1.264 . S
H868 C837 0.930 1_565 S
H869 C839 0.930 . S
H870 C841 0.930 . S
H871 C860 0.930 . S
H872 C861 0.930 . S
H873 C863 0.930 . S
C874 C875 1.387 . S
C874 C879 1.380 . S
C874 C890 1.494 . S
C875 C874 1.387 . S
C875 C876 1.386 . S
C875 H906 0.930 . S
C876 C875 1.386 . S
C876 C877 1.397 . S
C877 C876 1.397 . S
C877 C878 1.393 . S
C877 H907 0.930 . S
C878 C877 1.393 . S
C878 C879 1.395 . S
C879 C874 1.380 . S
C879 C878 1.395 . S
C879 H908 0.930 . S
O880 Tb881 2.295 . S
O880 C893 1.242 . S
Tb881 O880 2.295 . S
Tb881 O882 2.312 . S
Tb881 O885 2.438 . S
Tb881 O887 2.472 . S
Tb881 O889 2.308 . S
Tb881 C890 2.821 . S
O882 Tb881 2.312 . S
O882 C902 1.264 . S
O883 Eu884 2.308 . S
O883 C893 1.243 . S
Eu884 O883 2.308 . S
Eu884 C886 2.821 . S
Eu884 O888 2.295 . S
Eu884 O895 2.312 . S
Eu884 O904 2.438 . S
Eu884 O905 2.472 . S
O885 Tb881 2.438 . S
O885 C890 1.263 . S
C886 Eu884 2.821 . S
C886 C896 1.494 . S
C886 O904 1.263 . S
C886 O905 1.264 . S
O887 Tb881 2.472 . S
O887 C890 1.264 . S
O888 Eu884 2.295 . S
O888 C894 1.242 . S
O889 Tb881 2.308 . S
O889 C894 1.243 . S
C890 C874 1.494 . S
C890 Tb881 2.821 . S
C890 O885 1.263 . S
C890 O887 1.264 . S
C891 O892 1.260 . S
C891 O895 1.264 . S
O892 C891 1.260 . S
C893 O880 1.242 . S
C893 O883 1.243 . S
C894 O888 1.242 . S
C894 O889 1.243 . S
O895 Eu884 2.312 . S
O895 C891 1.264 . S
C896 C886 1.494 . S
C896 C898 1.380 . S
C896 C899 1.387 . S
C897 C898 1.395 . S
C897 C901 1.393 . S
C898 C896 1.380 . S
C898 C897 1.395 . S
C898 H909 0.930 . S
C899 C896 1.387 . S
C899 C900 1.386 . S
C899 H910 0.930 . S
C900 C899 1.386 . S
C900 C901 1.397 . S
C901 C897 1.393 . S
C901 C900 1.397 . S
C901 H911 0.930 . S
C902 O882 1.264 . S
C902 O903 1.260 . S
O903 C902 1.260 . S
O904 Eu884 2.438 . S
O904 C886 1.263 . S
O905 Eu884 2.472 . S
O905 C886 1.264 . S
H906 C875 0.930 . S
H907 C877 0.930 . S
H908 C879 0.930 . S
H909 C898 0.930 . S
H910 C899 0.930 . S
H911 C901 0.930 . S
C912 C913 1.387 . S
C912 C917 1.380 . S
C912 C928 1.494 . S
C913 C912 1.387 . S
C913 C914 1.386 . S
C913 H944 0.930 . S
C914 C913 1.386 . S
C914 C915 1.397 . S
C915 C914 1.397 . S
C915 C916 1.393 . S
C915 H945 0.930 . S
C916 C915 1.393 . S
C916 C917 1.395 . S
C917 C912 1.380 . S
C917 C916 1.395 . S
C917 H946 0.930 . S
O918 Tb919 2.295 1_554 S
O918 C931 1.242 . S
Tb919 O918 2.295 1_556 S
Tb919 O920 2.312 . S
Tb919 O923 2.438 1_556 S
Tb919 O925 2.472 1_556 S
Tb919 O927 2.308 . S
Tb919 C928 2.821 1_556 S
O920 Tb919 2.312 . S
O920 C940 1.264 . S
O921 Eu922 2.308 . S
O921 C931 1.243 . S
Eu922 O921 2.308 . S
Eu922 C924 2.821 . S
Eu922 O926 2.295 . S
Eu922 O933 2.312 . S
Eu922 O942 2.438 . S
Eu922 O943 2.472 . S
O923 Tb919 2.438 1_554 S
O923 C928 1.263 . S
C924 Eu922 2.821 . S
C924 C934 1.494 . S
C924 O942 1.263 . S
C924 O943 1.264 . S
O925 Tb919 2.472 1_554 S
O925 C928 1.264 . S
O926 Eu922 2.295 . S
O926 C932 1.242 1_554 S
O927 Tb919 2.308 . S
O927 C932 1.243 . S
C928 C912 1.494 . S
C928 Tb919 2.821 1_554 S
C928 O923 1.263 . S
C928 O925 1.264 . S
C929 O930 1.260 . S
C929 O933 1.264 . S
O930 C929 1.260 . S
C931 O918 1.242 . S
C931 O921 1.243 . S
C932 O926 1.242 1_556 S
C932 O927 1.243 . S
O933 Eu922 2.312 . S
O933 C929 1.264 . S
C934 C924 1.494 . S
C934 C936 1.380 . S
C934 C937 1.387 . S
C935 C936 1.395 . S
C935 C939 1.395 . S
C936 C934 1.380 . S
C936 C935 1.395 . S
C936 H947 0.930 . S
C937 C934 1.387 . S
C937 C938 1.386 . S
C937 H948 0.930 . S
C938 C937 1.386 . S
C938 C939 1.408 . S
C939 C935 1.395 . S
C939 C938 1.408 . S
C939 H949 0.918 1_554 S
C940 O920 1.264 . S
C940 O941 1.260 . S
O941 C940 1.260 . S
O942 Eu922 2.438 . S
O942 C924 1.263 . S
O943 Eu922 2.472 . S
O943 C924 1.264 . S
H944 C913 0.930 . S
H945 C915 0.930 . S
H946 C917 0.930 . S
H947 C936 0.930 . S
H948 C937 0.930 . S
H949 C939 0.918 1_556 S
C950 C951 1.387 . S
C950 C955 1.380 . S
C950 C966 1.494 . S
C951 C950 1.387 . S
C951 C952 1.386 . S
C951 H982 0.930 . S
C952 C951 1.386 . S
C952 C953 1.397 . S
C953 C952 1.397 . S
C953 C954 1.393 . S
C953 H983 0.930 . S
C954 C953 1.393 . S
C954 C955 1.395 . S
C955 C950 1.380 . S
C955 C954 1.395 . S
C955 H984 0.930 . S
O956 Tb957 2.295 1_554 S
O956 C969 1.242 . S
Tb957 O956 2.295 1_556 S
Tb957 O958 2.312 . S
Tb957 O961 2.438 1_556 S
Tb957 O963 2.472 1_556 S
Tb957 O965 2.308 . S
Tb957 C966 2.821 1_556 S
O958 Tb957 2.312 . S
O958 C978 1.264 . S
O959 Eu960 2.308 . S
O959 C969 1.243 . S
Eu960 O959 2.308 . S
Eu960 C962 2.821 . S
Eu960 O964 2.295 . S
Eu960 O971 2.312 . S
Eu960 O980 2.438 . S
Eu960 O981 2.472 . S
O961 Tb957 2.438 1_554 S
O961 C966 1.263 . S
C962 Eu960 2.821 . S
C962 C972 1.494 . S
C962 O980 1.263 . S
C962 O981 1.264 . S
O963 Tb957 2.472 1_554 S
O963 C966 1.264 . S
O964 Eu960 2.295 . S
O964 C970 1.242 1_554 S
O965 Tb957 2.308 . S
O965 C970 1.243 . S
C966 C950 1.494 . S
C966 Tb957 2.821 1_554 S
C966 O961 1.263 . S
C966 O963 1.264 . S
C967 O968 1.260 . S
C967 O971 1.264 . S
O968 C967 1.260 . S
C969 O956 1.242 . S
C969 O959 1.243 . S
C970 O964 1.242 1_556 S
C970 O965 1.243 . S
O971 Eu960 2.312 . S
O971 C967 1.264 . S
C972 C962 1.494 . S
C972 C974 1.380 . S
C972 C975 1.387 . S
C973 C974 1.395 . S
C973 C977 1.395 . S
C974 C972 1.380 . S
C974 C973 1.395 . S
C974 H985 0.930 . S
C975 C972 1.387 . S
C975 C976 1.386 . S
C975 H986 0.930 . S
C976 C975 1.386 . S
C976 C977 1.408 . S
C977 C973 1.395 . S
C977 C976 1.408 . S
C977 H987 0.918 1_554 S
C978 O958 1.264 . S
C978 O979 1.260 . S
O979 C978 1.260 . S
O980 Eu960 2.438 . S
O980 C962 1.263 . S
O981 Eu960 2.472 . S
O981 C962 1.264 . S
H982 C951 0.930 . S
H983 C953 0.930 . S
H984 C955 0.930 . S
H985 C974 0.930 . S
H986 C975 0.930 . S
H987 C977 0.918 1_556 S
C988 C989 1.387 . S
C988 C993 1.380 . S
C988 C1004 1.494 . S
C989 C988 1.387 . S
C989 C990 1.386 . S
C989 H1020 0.930 . S
C990 C989 1.386 . S
C990 C991 1.397 . S
C991 C990 1.397 . S
C991 C992 1.393 . S
C991 H1021 0.930 . S
C992 C991 1.393 . S
C992 C993 1.395 . S
C993 C988 1.380 . S
C993 C992 1.395 . S
C993 H1022 0.930 . S
O994 Tb995 2.295 . S
O994 C1007 1.242 . S
Tb995 O994 2.295 . S
Tb995 O996 2.312 . S
Tb995 O999 2.438 . S
Tb995 O1001 2.472 . S
Tb995 O1003 2.308 . S
Tb995 C1004 2.821 . S
O996 Tb995 2.312 . S
O996 C1016 1.264 . S
O997 Eu998 2.308 . S
O997 C1007 1.243 . S
Eu998 O997 2.308 . S
Eu998 C1000 2.821 . S
Eu998 O1002 2.295 . S
Eu998 O1009 2.312 . S
Eu998 O1018 2.438 . S
Eu998 O1019 2.472 . S
O999 Tb995 2.438 . S
O999 C1004 1.263 . S
C1000 Eu998 2.821 . S
C1000 C1010 1.494 . S
C1000 O1018 1.263 . S
C1000 O1019 1.264 . S
O1001 Tb995 2.472 . S
O1001 C1004 1.264 . S
O1002 Eu998 2.295 . S
O1002 C1008 1.242 . S
O1003 Tb995 2.308 . S
O1003 C1008 1.243 . S
C1004 C988 1.494 . S
C1004 Tb995 2.821 . S
C1004 O999 1.263 . S
C1004 O1001 1.264 . S
C1005 O1006 1.260 . S
C1005 O1009 1.264 . S
O1006 C1005 1.260 . S
C1007 O994 1.242 . S
C1007 O997 1.243 . S
C1008 O1002 1.242 . S
C1008 O1003 1.243 . S
O1009 Eu998 2.312 . S
O1009 C1005 1.264 . S
C1010 C1000 1.494 . S
C1010 C1012 1.380 . S
C1010 C1013 1.387 . S
C1011 C1012 1.395 . S
C1011 C1015 1.393 . S
C1012 C1010 1.380 . S
C1012 C1011 1.395 . S
C1012 H1023 0.930 . S
C1013 C1010 1.387 . S
C1013 C1014 1.386 . S
C1013 H1024 0.930 . S
C1014 C1013 1.386 . S
C1014 C1015 1.397 . S
C1015 C1011 1.393 . S
C1015 C1014 1.397 . S
C1015 H1025 0.930 . S
C1016 O996 1.264 . S
C1016 O1017 1.260 . S
O1017 C1016 1.260 . S
O1018 Eu998 2.438 . S
O1018 C1000 1.263 . S
O1019 Eu998 2.472 . S
O1019 C1000 1.264 . S
H1020 C989 0.930 . S
H1021 C991 0.930 . S
H1022 C993 0.930 . S
H1023 C1012 0.930 . S
H1024 C1013 0.930 . S
H1025 C1015 0.930 . S
C1026 C1027 1.387 . S
C1026 C1031 1.380 . S
C1026 C1042 1.494 . S
C1027 C1026 1.387 . S
C1027 C1028 1.386 . S
C1027 H1058 0.930 . S
C1028 C1027 1.386 . S
C1028 C1029 1.397 . S
C1029 C1028 1.397 . S
C1029 C1030 1.393 . S
C1029 H1059 0.930 . S
C1030 C1029 1.393 . S
C1030 C1031 1.395 . S
C1031 C1026 1.380 . S
C1031 C1030 1.395 . S
C1031 H1060 0.930 . S
O1032 Tb1033 2.295 . S
O1032 C1045 1.242 . S
Tb1033 O1032 2.295 . S
Tb1033 O1034 2.312 . S
Tb1033 O1037 2.438 . S
Tb1033 O1039 2.472 . S
Tb1033 O1041 2.308 . S
Tb1033 C1042 2.821 . S
O1034 Tb1033 2.312 . S
O1034 C1054 1.264 . S
O1035 Eu1036 2.308 . S
O1035 C1045 1.243 . S
Eu1036 O1035 2.308 . S
Eu1036 C1038 2.821 . S
Eu1036 O1040 2.295 . S
Eu1036 O1047 2.312 . S
Eu1036 O1056 2.438 . S
Eu1036 O1057 2.472 . S
O1037 Tb1033 2.438 . S
O1037 C1042 1.263 . S
C1038 Eu1036 2.821 . S
C1038 C1048 1.494 . S
C1038 O1056 1.263 . S
C1038 O1057 1.264 . S
O1039 Tb1033 2.472 . S
O1039 C1042 1.264 . S
O1040 Eu1036 2.295 . S
O1040 C1046 1.242 . S
O1041 Tb1033 2.308 . S
O1041 C1046 1.243 . S
C1042 C1026 1.494 . S
C1042 Tb1033 2.821 . S
C1042 O1037 1.263 . S
C1042 O1039 1.264 . S
C1043 O1044 1.260 . S
C1043 O1047 1.264 . S
O1044 C1043 1.260 . S
C1045 O1032 1.242 . S
C1045 O1035 1.243 . S
C1046 O1040 1.242 . S
C1046 O1041 1.243 . S
O1047 Eu1036 2.312 . S
O1047 C1043 1.264 . S
C1048 C1038 1.494 . S
C1048 C1050 1.380 . S
C1048 C1051 1.387 . S
C1049 C1050 1.395 . S
C1049 C1053 1.393 . S
C1050 C1048 1.380 . S
C1050 C1049 1.395 . S
C1050 H1061 0.930 . S
C1051 C1048 1.387 . S
C1051 C1052 1.386 . S
C1051 H1062 0.930 . S
C1052 C1051 1.386 . S
C1052 C1053 1.397 . S
C1053 C1049 1.393 . S
C1053 C1052 1.397 . S
C1053 H1063 0.930 . S
C1054 O1034 1.264 . S
C1054 O1055 1.260 . S
O1055 C1054 1.260 . S
O1056 Eu1036 2.438 . S
O1056 C1038 1.263 . S
O1057 Eu1036 2.472 . S
O1057 C1038 1.264 . S
H1058 C1027 0.930 . S
H1059 C1029 0.930 . S
H1060 C1031 0.930 . S
H1061 C1050 0.930 . S
H1062 C1051 0.930 . S
H1063 C1053 0.930 . S
C1064 C1065 1.387 . S
C1064 C1069 1.380 . S
C1064 C1080 1.494 . S
C1065 C1064 1.387 . S
C1065 C1066 1.386 . S
C1065 H1096 0.930 . S
C1066 C1065 1.386 . S
C1066 C1067 1.408 . S
C1067 C1066 1.408 . S
C1067 C1068 1.395 . S
C1067 H1097 0.918 1_556 S
C1068 C1067 1.395 . S
C1068 C1069 1.395 . S
C1069 C1064 1.380 . S
C1069 C1068 1.395 . S
C1069 H1098 0.930 . S
O1070 Tb1071 2.295 . S
O1070 C1083 1.242 1_556 S
Tb1071 O1070 2.295 . S
Tb1071 O1072 2.312 . S
Tb1071 O1075 2.438 . S
Tb1071 O1077 2.472 . S
Tb1071 O1079 2.308 . S
Tb1071 C1080 2.821 . S
O1072 Tb1071 2.312 . S
O1072 C1092 1.264 . S
O1073 Eu1074 2.308 . S
O1073 C1083 1.243 . S
Eu1074 O1073 2.308 . S
Eu1074 C1076 2.821 1_554 S
Eu1074 O1078 2.295 1_554 S
Eu1074 O1085 2.312 . S
Eu1074 O1094 2.438 1_554 S
Eu1074 O1095 2.472 1_554 S
O1075 Tb1071 2.438 . S
O1075 C1080 1.263 . S
C1076 Eu1074 2.821 1_556 S
C1076 C1086 1.494 . S
C1076 O1094 1.263 . S
C1076 O1095 1.264 . S
O1077 Tb1071 2.472 . S
O1077 C1080 1.264 . S
O1078 Eu1074 2.295 1_556 S
O1078 C1084 1.242 . S
O1079 Tb1071 2.308 . S
O1079 C1084 1.243 . S
C1080 C1064 1.494 . S
C1080 Tb1071 2.821 . S
C1080 O1075 1.263 . S
C1080 O1077 1.264 . S
C1081 O1082 1.260 . S
C1081 O1085 1.264 . S
O1082 C1081 1.260 . S
C1083 O1070 1.242 1_554 S
C1083 O1073 1.243 . S
C1084 O1078 1.242 . S
C1084 O1079 1.243 . S
O1085 Eu1074 2.312 . S
O1085 C1081 1.264 . S
C1086 C1076 1.494 . S
C1086 C1088 1.380 . S
C1086 C1089 1.387 . S
C1087 C1088 1.395 . S
C1087 C1091 1.393 . S
C1088 C1086 1.380 . S
C1088 C1087 1.395 . S
C1088 H1099 0.930 . S
C1089 C1086 1.387 . S
C1089 C1090 1.386 . S
C1089 H1100 0.930 . S
C1090 C1089 1.386 . S
C1090 C1091 1.397 . S
C1091 C1087 1.393 . S
C1091 C1090 1.397 . S
C1091 H1101 0.930 . S
C1092 O1072 1.264 . S
C1092 O1093 1.260 . S
O1093 C1092 1.260 . S
O1094 Eu1074 2.438 1_556 S
O1094 C1076 1.263 . S
O1095 Eu1074 2.472 1_556 S
O1095 C1076 1.264 . S
H1096 C1065 0.930 . S
H1097 C1067 0.918 1_554 S
H1098 C1069 0.930 . S
H1099 C1088 0.930 . S
H1100 C1089 0.930 . S
H1101 C1091 0.930 . S
C1102 C1103 1.387 . S
C1102 C1107 1.380 . S
C1102 C1118 1.494 . S
C1103 C1102 1.387 . S
C1103 C1104 1.386 . S
C1103 H1134 0.930 . S
C1104 C1103 1.386 . S
C1104 C1105 1.408 . S
C1105 C1104 1.408 . S
C1105 C1106 1.395 . S
C1105 H1135 0.918 1_556 S
C1106 C1105 1.395 . S
C1106 C1107 1.395 . S
C1107 C1102 1.380 . S
C1107 C1106 1.395 . S
C1107 H1136 0.930 . S
O1108 Tb1109 2.295 . S
O1108 C1121 1.242 1_556 S
Tb1109 O1108 2.295 . S
Tb1109 O1110 2.312 . S
Tb1109 O1113 2.438 . S
Tb1109 O1115 2.472 . S
Tb1109 O1117 2.308 . S
Tb1109 C1118 2.821 . S
O1110 Tb1109 2.312 . S
O1110 C1130 1.264 . S
O1111 Eu1112 2.308 . S
O1111 C1121 1.243 . S
Eu1112 O1111 2.308 . S
Eu1112 C1114 2.821 1_554 S
Eu1112 O1116 2.295 1_554 S
Eu1112 O1123 2.312 . S
Eu1112 O1132 2.438 1_554 S
Eu1112 O1133 2.472 1_554 S
O1113 Tb1109 2.438 . S
O1113 C1118 1.263 . S
C1114 Eu1112 2.821 1_556 S
C1114 C1124 1.494 . S
C1114 O1132 1.263 . S
C1114 O1133 1.264 . S
O1115 Tb1109 2.472 . S
O1115 C1118 1.264 . S
O1116 Eu1112 2.295 1_556 S
O1116 C1122 1.242 . S
O1117 Tb1109 2.308 . S
O1117 C1122 1.243 . S
C1118 C1102 1.494 . S
C1118 Tb1109 2.821 . S
C1118 O1113 1.263 . S
C1118 O1115 1.264 . S
C1119 O1120 1.260 . S
C1119 O1123 1.264 . S
O1120 C1119 1.260 . S
C1121 O1108 1.242 1_554 S
C1121 O1111 1.243 . S
C1122 O1116 1.242 . S
C1122 O1117 1.243 . S
O1123 Eu1112 2.312 . S
O1123 C1119 1.264 . S
C1124 C1114 1.494 . S
C1124 C1126 1.380 . S
C1124 C1127 1.387 . S
C1125 C1126 1.395 . S
C1125 C1129 1.393 . S
C1126 C1124 1.380 . S
C1126 C1125 1.395 . S
C1126 H1137 0.930 . S
C1127 C1124 1.387 . S
C1127 C1128 1.386 . S
C1127 H1138 0.930 . S
C1128 C1127 1.386 . S
C1128 C1129 1.397 . S
C1129 C1125 1.393 . S
C1129 C1128 1.397 . S
C1129 H1139 0.930 . S
C1130 O1110 1.264 . S
C1130 O1131 1.260 . S
O1131 C1130 1.260 . S
O1132 Eu1112 2.438 1_556 S
O1132 C1114 1.263 . S
O1133 Eu1112 2.472 1_556 S
O1133 C1114 1.264 . S
H1134 C1103 0.930 . S
H1135 C1105 0.918 1_554 S
H1136 C1107 0.930 . S
H1137 C1126 0.930 . S
H1138 C1127 0.930 . S
H1139 C1129 0.930 . S
C1140 C1141 1.387 . S
C1140 C1145 1.380 . S
C1140 C1156 1.494 . S
C1141 C1140 1.387 . S
C1141 C1142 1.386 . S
C1141 H1172 0.930 . S
C1142 C1141 1.386 . S
C1142 C1143 1.397 . S
C1143 C1142 1.397 . S
C1143 C1144 1.393 . S
C1143 H1173 0.930 . S
C1144 C1143 1.393 . S
C1144 C1145 1.395 . S
C1145 C1140 1.380 . S
C1145 C1144 1.395 . S
C1145 H1174 0.930 . S
O1146 Tb1147 2.295 . S
O1146 C1159 1.242 . S
Tb1147 O1146 2.295 . S
Tb1147 O1148 2.312 . S
Tb1147 O1151 2.438 . S
Tb1147 O1153 2.472 . S
Tb1147 O1155 2.308 . S
Tb1147 C1156 2.821 . S
O1148 Tb1147 2.312 . S
O1148 C1168 1.264 . S
O1149 Eu1150 2.308 . S
O1149 C1159 1.243 . S
Eu1150 O1149 2.308 . S
Eu1150 C1152 2.821 . S
Eu1150 O1154 2.295 . S
Eu1150 O1161 2.312 . S
Eu1150 O1170 2.438 . S
Eu1150 O1171 2.472 . S
O1151 Tb1147 2.438 . S
O1151 C1156 1.263 . S
C1152 Eu1150 2.821 . S
C1152 C1162 1.494 . S
C1152 O1170 1.263 . S
C1152 O1171 1.264 . S
O1153 Tb1147 2.472 . S
O1153 C1156 1.264 . S
O1154 Eu1150 2.295 . S
O1154 C1160 1.242 . S
O1155 Tb1147 2.308 . S
O1155 C1160 1.243 . S
C1156 C1140 1.494 . S
C1156 Tb1147 2.821 . S
C1156 O1151 1.263 . S
C1156 O1153 1.264 . S
C1157 O1158 1.260 . S
C1157 O1161 1.264 . S
O1158 C1157 1.260 . S
C1159 O1146 1.242 . S
C1159 O1149 1.243 . S
C1160 O1154 1.242 . S
C1160 O1155 1.243 . S
O1161 Eu1150 2.312 . S
O1161 C1157 1.264 . S
C1162 C1152 1.494 . S
C1162 C1164 1.380 . S
C1162 C1165 1.387 . S
C1163 C1164 1.395 . S
C1163 C1167 1.393 . S
C1164 C1162 1.380 . S
C1164 C1163 1.395 . S
C1164 H1175 0.930 . S
C1165 C1162 1.387 . S
C1165 C1166 1.386 . S
C1165 H1176 0.930 . S
C1166 C1165 1.386 . S
C1166 C1167 1.397 . S
C1167 C1163 1.393 . S
C1167 C1166 1.397 . S
C1167 H1177 0.930 . S
C1168 O1148 1.264 . S
C1168 O1169 1.260 . S
O1169 C1168 1.260 . S
O1170 Eu1150 2.438 . S
O1170 C1152 1.263 . S
O1171 Eu1150 2.472 . S
O1171 C1152 1.264 . S
H1172 C1141 0.930 . S
H1173 C1143 0.930 . S
H1174 C1145 0.930 . S
H1175 C1164 0.930 . S
H1176 C1165 0.930 . S
H1177 C1167 0.930 . S
C1178 C1179 1.387 . S
C1178 C1183 1.380 . S
C1178 C1194 1.494 . S
C1179 C1178 1.387 . S
C1179 C1180 1.386 . S
C1179 H1210 0.930 . S
C1180 C1179 1.386 . S
C1180 C1181 1.397 . S
C1181 C1180 1.397 . S
C1181 C1182 1.393 . S
C1181 H1211 0.930 . S
C1182 C1181 1.393 . S
C1182 C1183 1.395 . S
C1183 C1178 1.380 . S
C1183 C1182 1.395 . S
C1183 H1212 0.930 . S
O1184 Tb1185 2.295 . S
O1184 C1197 1.242 . S
Tb1185 O1184 2.295 . S
Tb1185 O1186 2.312 . S
Tb1185 O1189 2.438 . S
Tb1185 O1191 2.472 . S
Tb1185 O1193 2.308 . S
Tb1185 C1194 2.821 . S
O1186 Tb1185 2.312 . S
O1186 C1206 1.264 . S
O1187 Eu1188 2.308 . S
O1187 C1197 1.243 . S
Eu1188 O1187 2.308 . S
Eu1188 C1190 2.821 . S
Eu1188 O1192 2.295 . S
Eu1188 O1199 2.312 . S
Eu1188 O1208 2.438 . S
Eu1188 O1209 2.472 . S
O1189 Tb1185 2.438 . S
O1189 C1194 1.263 . S
C1190 Eu1188 2.821 . S
C1190 C1200 1.494 . S
C1190 O1208 1.263 . S
C1190 O1209 1.264 . S
O1191 Tb1185 2.472 . S
O1191 C1194 1.264 . S
O1192 Eu1188 2.295 . S
O1192 C1198 1.242 . S
O1193 Tb1185 2.308 . S
O1193 C1198 1.243 . S
C1194 C1178 1.494 . S
C1194 Tb1185 2.821 . S
C1194 O1189 1.263 . S
C1194 O1191 1.264 . S
C1195 O1196 1.260 . S
C1195 O1199 1.264 . S
O1196 C1195 1.260 . S
C1197 O1184 1.242 . S
C1197 O1187 1.243 . S
C1198 O1192 1.242 . S
C1198 O1193 1.243 . S
O1199 Eu1188 2.312 . S
O1199 C1195 1.264 . S
C1200 C1190 1.494 . S
C1200 C1202 1.380 . S
C1200 C1203 1.387 . S
C1201 C1202 1.395 . S
C1201 C1205 1.393 . S
C1202 C1200 1.380 . S
C1202 C1201 1.395 . S
C1202 H1213 0.930 . S
C1203 C1200 1.387 . S
C1203 C1204 1.386 . S
C1203 H1214 0.930 . S
C1204 C1203 1.386 . S
C1204 C1205 1.397 . S
C1205 C1201 1.393 . S
C1205 C1204 1.397 . S
C1205 H1215 0.930 . S
C1206 O1186 1.264 . S
C1206 O1207 1.260 . S
O1207 C1206 1.260 . S
O1208 Eu1188 2.438 . S
O1208 C1190 1.263 . S
O1209 Eu1188 2.472 . S
O1209 C1190 1.264 . S
H1210 C1179 0.930 . S
H1211 C1181 0.930 . S
H1212 C1183 0.930 . S
H1213 C1202 0.930 . S
H1214 C1203 0.930 . S
H1215 C1205 0.930 . S
H1216 C1228 0.930 . S
H1217 C1230 0.930 . S
H1218 C1231 0.930 . S
H1219 C1235 0.959 . S
H1220 C1235 0.959 . S
H1221 C1235 0.961 . S
H1222 C1236 0.960 . S
H1223 C1236 0.961 . S
H1224 C1236 0.959 . S
H1225 C1239 0.929 . S
H1226 C1240 0.931 . S
H1227 C1242 0.930 . S
C1228 H1216 0.930 . S
C1228 C1229 1.399 1_554 S
C1228 C1233 1.395 1_554 S
C1229 C1228 1.399 1_556 S
C1229 C1230 1.376 . S
C1230 H1217 0.930 . S
C1230 C1229 1.376 . S
C1230 C1231 1.388 . S
C1231 H1218 0.930 . S
C1231 C1230 1.388 . S
C1231 C1232 1.390 . S
C1232 C1231 1.390 . S
C1232 C1233 1.407 . S
C1232 C1238 1.465 . S
C1233 C1228 1.395 1_556 S
C1233 C1232 1.407 . S
C1233 C1234 1.510 1_556 S
C1234 C1233 1.510 1_554 S
C1234 C1235 1.502 . S
C1234 C1236 1.561 1_554 S
C1234 C1237 1.520 1_554 S
C1235 H1219 0.959 . S
C1235 H1220 0.959 . S
C1235 H1221 0.961 . S
C1235 C1234 1.502 . S
C1236 H1222 0.960 . S
C1236 H1223 0.961 . S
C1236 H1224 0.959 . S
C1236 C1234 1.561 1_556 S
C1237 C1234 1.520 1_556 S
C1237 C1238 1.409 . S
C1237 C1242 1.386 1_556 S
C1238 C1232 1.465 . S
C1238 C1237 1.409 . S
C1238 C1239 1.399 . S
C1239 H1225 0.929 . S
C1239 C1238 1.399 . S
C1239 C1240 1.385 . S
C1240 H1226 0.931 . S
C1240 C1239 1.385 . S
C1240 C1241 1.389 . S
C1241 C1240 1.389 . S
C1241 C1242 1.387 1_556 S
C1242 H1227 0.930 . S
C1242 C1237 1.386 1_554 S
C1242 C1241 1.387 1_554 S
H1243 C1255 0.930 . S
H1244 C1257 0.930 . S
H1245 C1258 0.930 . S
H1246 C1262 0.959 . S
H1247 C1262 0.959 . S
H1248 C1262 0.961 . S
H1249 C1263 0.960 . S
H1250 C1263 0.961 . S
H1251 C1263 0.959 . S
H1252 C1266 0.929 . S
H1253 C1267 0.931 . S
H1254 C1269 0.930 . S
C1255 H1243 0.930 . S
C1255 C1256 1.426 . S
C1255 C1260 1.399 . S
C1256 C1255 1.426 . S
C1256 C1257 1.344 1_556 S
C1257 H1244 0.930 . S
C1257 C1256 1.344 1_554 S
C1257 C1258 1.388 . S
C1258 H1245 0.930 . S
C1258 C1257 1.388 . S
C1258 C1259 1.390 . S
C1259 C1258 1.390 . S
C1259 C1260 1.394 1_554 S
C1259 C1265 1.465 . S
C1260 C1255 1.399 . S
C1260 C1259 1.394 1_556 S
C1260 C1261 1.516 . S
C1261 C1260 1.516 . S
C1261 C1262 1.502 . S
C1261 C1263 1.561 . S
C1261 C1264 1.526 . S
C1262 H1246 0.959 . S
C1262 H1247 0.959 . S
C1262 H1248 0.961 . S
C1262 C1261 1.502 . S
C1263 H1249 0.960 . S
C1263 H1250 0.961 . S
C1263 H1251 0.959 . S
C1263 C1261 1.561 . S
C1264 C1261 1.526 . S
C1264 C1265 1.396 1_556 S
C1264 C1269 1.390 . S
C1265 C1259 1.465 . S
C1265 C1264 1.396 1_554 S
C1265 C1266 1.399 . S
C1266 H1252 0.929 . S
C1266 C1265 1.399 . S
C1266 C1267 1.385 . S
C1267 H1253 0.931 . S
C1267 C1266 1.385 . S
C1267 C1268 1.373 1_554 S
C1268 C1267 1.373 1_556 S
C1268 C1269 1.400 . S
C1269 H1254 0.930 . S
C1269 C1264 1.390 . S
C1269 C1268 1.400 . S
H1270 C1282 0.930 . S
H1271 C1284 0.930 . S
H1272 C1285 0.930 . S
H1273 C1289 0.959 . S
H1274 C1289 0.959 . S
H1275 C1289 0.961 . S
H1276 C1290 0.960 . S
H1277 C1290 0.961 . S
H1278 C1290 0.959 . S
H1279 C1293 0.929 . S
H1280 C1294 0.931 . S
H1281 C1296 0.930 . S
C1282 H1270 0.930 . S
C1282 C1283 1.399 . S
C1282 C1287 1.399 . S
C1283 C1282 1.399 . S
C1283 C1284 1.376 . S
C1284 H1271 0.930 . S
C1284 C1283 1.376 . S
C1284 C1285 1.388 . S
C1285 H1272 0.930 . S
C1285 C1284 1.388 . S
C1285 C1286 1.390 . S
C1286 C1285 1.390 . S
C1286 C1287 1.394 . S
C1286 C1292 1.465 . S
C1287 C1282 1.399 . S
C1287 C1286 1.394 . S
C1287 C1288 1.516 . S
C1288 C1287 1.516 . S
C1288 C1289 1.502 . S
C1288 C1290 1.561 . S
C1288 C1291 1.526 . S
C1289 H1273 0.959 . S
C1289 H1274 0.959 . S
C1289 H1275 0.961 . S
C1289 C1288 1.502 . S
C1290 H1276 0.960 . S
C1290 H1277 0.961 . S
C1290 H1278 0.959 . S
C1290 C1288 1.561 . S
C1291 C1288 1.526 . S
C1291 C1292 1.396 . S
C1291 C1296 1.390 . S
C1292 C1286 1.465 . S
C1292 C1291 1.396 . S
C1292 C1293 1.399 . S
C1293 H1279 0.929 . S
C1293 C1292 1.399 . S
C1293 C1294 1.385 . S
C1294 H1280 0.931 . S
C1294 C1293 1.385 . S
C1294 C1295 1.389 . S
C1295 C1294 1.389 . S
C1295 C1296 1.387 . S
C1296 H1281 0.930 . S
C1296 C1291 1.390 . S
C1296 C1295 1.387 . S
H1297 C1309 0.930 . S
H1298 C1311 0.930 . S
H1299 C1312 0.930 . S
H1300 C1316 0.959 . S
H1301 C1316 0.959 . S
H1302 C1316 0.961 . S
H1303 C1317 0.960 . S
H1304 C1317 0.961 . S
H1305 C1317 0.959 . S
H1306 C1320 0.929 . S
H1307 C1321 0.931 . S
H1308 C1323 0.930 . S
C1309 H1297 0.930 . S
C1309 C1310 1.399 . S
C1309 C1314 1.399 . S
C1310 C1309 1.399 . S
C1310 C1311 1.376 . S
C1311 H1298 0.930 . S
C1311 C1310 1.376 . S
C1311 C1312 1.388 . S
C1312 H1299 0.930 . S
C1312 C1311 1.388 . S
C1312 C1313 1.390 . S
C1313 C1312 1.390 . S
C1313 C1314 1.394 . S
C1313 C1319 1.465 . S
C1314 C1309 1.399 . S
C1314 C1313 1.394 . S
C1314 C1315 1.516 . S
C1315 C1314 1.516 . S
C1315 C1316 1.502 . S
C1315 C1317 1.561 . S
C1315 C1318 1.526 . S
C1316 H1300 0.959 . S
C1316 H1301 0.959 . S
C1316 H1302 0.961 . S
C1316 C1315 1.502 . S
C1317 H1303 0.960 . S
C1317 H1304 0.961 . S
C1317 H1305 0.959 . S
C1317 C1315 1.561 . S
C1318 C1315 1.526 . S
C1318 C1319 1.396 . S
C1318 C1323 1.390 . S
C1319 C1313 1.465 . S
C1319 C1318 1.396 . S
C1319 C1320 1.399 . S
C1320 H1306 0.929 . S
C1320 C1319 1.399 . S
C1320 C1321 1.385 . S
C1321 H1307 0.931 . S
C1321 C1320 1.385 . S
C1321 C1322 1.389 . S
C1322 C1321 1.389 . S
C1322 C1323 1.387 . S
C1323 H1308 0.930 . S
C1323 C1318 1.390 . S
C1323 C1322 1.387 . S
H1324 C1336 0.930 . S
H1325 C1338 0.930 . S
H1326 C1339 0.930 . S
H1327 C1343 0.959 . S
H1328 C1343 0.959 . S
H1329 C1343 0.961 . S
H1330 C1344 0.960 . S
H1331 C1344 0.961 . S
H1332 C1344 0.959 . S
H1333 C1347 0.929 . S
H1334 C1348 0.931 . S
H1335 C1350 0.930 . S
C1336 H1324 0.930 . S
C1336 C1337 1.413 . S
C1336 C1341 1.399 . S
C1337 C1336 1.413 . S
C1337 C1338 1.359 1_554 S
C1338 H1325 0.930 . S
C1338 C1337 1.359 1_556 S
C1338 C1339 1.388 . S
C1339 H1326 0.930 . S
C1339 C1338 1.388 . S
C1339 C1340 1.390 . S
C1340 C1339 1.390 . S
C1340 C1341 1.394 1_556 S
C1340 C1346 1.465 . S
C1341 C1336 1.399 . S
C1341 C1340 1.394 1_554 S
C1341 C1342 1.516 . S
C1342 C1341 1.516 . S
C1342 C1343 1.502 . S
C1342 C1344 1.561 . S
C1342 C1345 1.526 . S
C1343 H1327 0.959 . S
C1343 H1328 0.959 . S
C1343 H1329 0.961 . S
C1343 C1342 1.502 . S
C1344 H1330 0.960 . S
C1344 H1331 0.961 . S
C1344 H1332 0.959 . S
C1344 C1342 1.561 . S
C1345 C1342 1.526 . S
C1345 C1346 1.396 1_554 S
C1345 C1350 1.390 . S
C1346 C1340 1.465 . S
C1346 C1345 1.396 1_556 S
C1346 C1347 1.399 . S
C1347 H1333 0.929 . S
C1347 C1346 1.399 . S
C1347 C1348 1.385 . S
C1348 H1334 0.931 . S
C1348 C1347 1.385 . S
C1348 C1349 1.379 1_556 S
C1349 C1348 1.379 1_554 S
C1349 C1350 1.395 . S
C1350 H1335 0.930 . S
C1350 C1345 1.390 . S
C1350 C1349 1.395 . S
H1351 C1363 0.930 . S
H1352 C1365 0.930 . S
H1353 C1366 0.930 . S
H1354 C1370 0.959 . S
H1355 C1370 0.959 . S
H1356 C1370 0.961 . S
H1357 C1371 0.960 . S
H1358 C1371 0.961 . S
H1359 C1371 0.959 . S
H1360 C1374 0.929 . S
H1361 C1375 0.931 . S
H1362 C1377 0.930 . S
C1363 H1351 0.930 . S
C1363 C1364 1.399 1_556 S
C1363 C1368 1.399 . S
C1364 C1363 1.399 1_554 S
C1364 C1365 1.376 . S
C1365 H1352 0.930 . S
C1365 C1364 1.376 . S
C1365 C1366 1.388 . S
C1366 H1353 0.930 . S
C1366 C1365 1.388 . S
C1366 C1367 1.390 . S
C1367 C1366 1.390 . S
C1367 C1368 1.394 1_554 S
C1367 C1373 1.465 . S
C1368 C1363 1.399 . S
C1368 C1367 1.394 1_556 S
C1368 C1369 1.516 . S
C1369 C1368 1.516 . S
C1369 C1370 1.502 . S
C1369 C1371 1.561 . S
C1369 C1372 1.526 . S
C1370 H1354 0.959 . S
C1370 H1355 0.959 . S
C1370 H1356 0.961 . S
C1370 C1369 1.502 . S
C1371 H1357 0.960 . S
C1371 H1358 0.961 . S
C1371 H1359 0.959 . S
C1371 C1369 1.561 . S
C1372 C1369 1.526 . S
C1372 C1373 1.396 1_556 S
C1372 C1377 1.390 . S
C1373 C1367 1.465 . S
C1373 C1372 1.396 1_554 S
C1373 C1374 1.399 . S
C1374 H1360 0.929 . S
C1374 C1373 1.399 . S
C1374 C1375 1.385 . S
C1375 H1361 0.931 . S
C1375 C1374 1.385 . S
C1375 C1376 1.389 . S
C1376 C1375 1.389 . S
C1376 C1377 1.387 1_554 S
C1377 H1362 0.930 . S
C1377 C1372 1.390 . S
C1377 C1376 1.387 1_556 S
H1378 C1390 0.930 . S
H1379 C1392 0.930 . S
H1380 C1393 0.930 . S
H1381 C1397 0.959 . S
H1382 C1397 0.959 . S
H1383 C1397 0.961 . S
H1384 C1398 0.960 . S
H1385 C1398 0.961 . S
H1386 C1398 0.959 . S
H1387 C1401 0.929 . S
H1388 C1402 0.931 . S
H1389 C1404 0.930 . S
C1390 H1378 0.930 . S
C1390 C1391 1.399 . S
C1390 C1395 1.399 . S
C1391 C1390 1.399 . S
C1391 C1392 1.376 . S
C1392 H1379 0.930 . S
C1392 C1391 1.376 . S
C1392 C1393 1.388 . S
C1393 H1380 0.930 . S
C1393 C1392 1.388 . S
C1393 C1394 1.390 . S
C1394 C1393 1.390 . S
C1394 C1395 1.394 . S
C1394 C1400 1.465 . S
C1395 C1390 1.399 . S
C1395 C1394 1.394 . S
C1395 C1396 1.516 . S
C1396 C1395 1.516 . S
C1396 C1397 1.502 . S
C1396 C1398 1.561 . S
C1396 C1399 1.526 . S
C1397 H1381 0.959 . S
C1397 H1382 0.959 . S
C1397 H1383 0.961 . S
C1397 C1396 1.502 . S
C1398 H1384 0.960 . S
C1398 H1385 0.961 . S
C1398 H1386 0.959 . S
C1398 C1396 1.561 . S
C1399 C1396 1.526 . S
C1399 C1400 1.396 . S
C1399 C1404 1.390 . S
C1400 C1394 1.465 . S
C1400 C1399 1.396 . S
C1400 C1401 1.399 . S
C1401 H1387 0.929 . S
C1401 C1400 1.399 . S
C1401 C1402 1.385 . S
C1402 H1388 0.931 . S
C1402 C1401 1.385 . S
C1402 C1403 1.389 . S
C1403 C1402 1.389 . S
C1403 C1404 1.387 . S
C1404 H1389 0.930 . S
C1404 C1399 1.390 . S
C1404 C1403 1.387 . S
H1405 C1417 0.930 . S
H1406 C1419 0.930 . S
H1407 C1420 0.930 . S
H1408 C1424 0.959 . S
H1409 C1424 0.959 . S
H1410 C1424 0.961 . S
H1411 C1425 0.960 . S
H1412 C1425 0.961 . S
H1413 C1425 0.959 . S
H1414 C1428 0.929 . S
H1415 C1429 0.931 . S
H1416 C1431 0.930 . S
C1417 H1405 0.930 . S
C1417 C1418 1.399 . S
C1417 C1422 1.399 . S
C1418 C1417 1.399 . S
C1418 C1419 1.376 . S
C1419 H1406 0.930 . S
C1419 C1418 1.376 . S
C1419 C1420 1.388 . S
C1420 H1407 0.930 . S
C1420 C1419 1.388 . S
C1420 C1421 1.390 . S
C1421 C1420 1.390 . S
C1421 C1422 1.394 . S
C1421 C1427 1.465 . S
C1422 C1417 1.399 . S
C1422 C1421 1.394 . S
C1422 C1423 1.516 . S
C1423 C1422 1.516 . S
C1423 C1424 1.502 . S
C1423 C1425 1.561 . S
C1423 C1426 1.526 . S
C1424 H1408 0.959 . S
C1424 H1409 0.959 . S
C1424 H1410 0.961 . S
C1424 C1423 1.502 . S
C1425 H1411 0.960 . S
C1425 H1412 0.961 . S
C1425 H1413 0.959 . S
C1425 C1423 1.561 . S
C1426 C1423 1.526 . S
C1426 C1427 1.396 . S
C1426 C1431 1.390 . S
C1427 C1421 1.465 . S
C1427 C1426 1.396 . S
C1427 C1428 1.399 . S
C1428 H1414 0.929 . S
C1428 C1427 1.399 . S
C1428 C1429 1.385 . S
C1429 H1415 0.931 . S
C1429 C1428 1.385 . S
C1429 C1430 1.389 . S
C1430 C1429 1.389 . S
C1430 C1431 1.387 . S
C1431 H1416 0.930 . S
C1431 C1426 1.390 . S
C1431 C1430 1.387 . S
H1432 C1444 0.930 . S
H1433 C1446 0.930 . S
H1434 C1447 0.930 . S
H1435 C1451 0.959 . S
H1436 C1451 0.959 . S
H1437 C1451 0.961 . S
H1438 C1452 0.960 . S
H1439 C1452 0.961 . S
H1440 C1452 0.959 . S
H1441 C1455 0.929 . S
H1442 C1456 0.931 . S
H1443 C1458 0.930 . S
C1444 H1432 0.930 . S
C1444 C1445 1.399 . S
C1444 C1449 1.399 . S
C1445 C1444 1.399 . S
C1445 C1446 1.376 . S
C1446 H1433 0.930 . S
C1446 C1445 1.376 . S
C1446 C1447 1.388 . S
C1447 H1434 0.930 . S
C1447 C1446 1.388 . S
C1447 C1448 1.390 . S
C1448 C1447 1.390 . S
C1448 C1449 1.394 . S
C1448 C1454 1.465 . S
C1449 C1444 1.399 . S
C1449 C1448 1.394 . S
C1449 C1450 1.516 . S
C1450 C1449 1.516 . S
C1450 C1451 1.502 . S
C1450 C1452 1.561 . S
C1450 C1453 1.526 . S
C1451 H1435 0.959 . S
C1451 H1436 0.959 . S
C1451 H1437 0.961 . S
C1451 C1450 1.502 . S
C1452 H1438 0.960 . S
C1452 H1439 0.961 . S
C1452 H1440 0.959 . S
C1452 C1450 1.561 . S
C1453 C1450 1.526 . S
C1453 C1454 1.396 . S
C1453 C1458 1.390 . S
C1454 C1448 1.465 . S
C1454 C1453 1.396 . S
C1454 C1455 1.399 . S
C1455 H1441 0.929 . S
C1455 C1454 1.399 . S
C1455 C1456 1.385 . S
C1456 H1442 0.931 . S
C1456 C1455 1.385 . S
C1456 C1457 1.389 . S
C1457 C1456 1.389 . S
C1457 C1458 1.387 . S
C1458 H1443 0.930 . S
C1458 C1453 1.390 . S
C1458 C1457 1.387 . S
H1459 C1471 0.930 . S
H1460 C1473 0.930 . S
H1461 C1474 0.930 . S
H1462 C1478 0.959 . S
H1463 C1478 0.959 . S
H1464 C1478 0.961 . S
H1465 C1479 0.960 . S
H1466 C1479 0.961 . S
H1467 C1479 0.959 . S
H1468 C1482 0.929 . S
H1469 C1483 0.931 . S
H1470 C1485 0.930 . S
C1471 H1459 0.930 . S
C1471 C1472 1.399 . S
C1471 C1476 1.399 . S
C1472 C1471 1.399 . S
C1472 C1473 1.376 . S
C1473 H1460 0.930 . S
C1473 C1472 1.376 . S
C1473 C1474 1.388 . S
C1474 H1461 0.930 . S
C1474 C1473 1.388 . S
C1474 C1475 1.390 . S
C1475 C1474 1.390 . S
C1475 C1476 1.394 . S
C1475 C1481 1.465 . S
C1476 C1471 1.399 . S
C1476 C1475 1.394 . S
C1476 C1477 1.516 . S
C1477 C1476 1.516 . S
C1477 C1478 1.502 . S
C1477 C1479 1.561 . S
C1477 C1480 1.526 . S
C1478 H1462 0.959 . S
C1478 H1463 0.959 . S
C1478 H1464 0.961 . S
C1478 C1477 1.502 . S
C1479 H1465 0.960 . S
C1479 H1466 0.961 . S
C1479 H1467 0.959 . S
C1479 C1477 1.561 . S
C1480 C1477 1.526 . S
C1480 C1481 1.396 . S
C1480 C1485 1.390 . S
C1481 C1475 1.465 . S
C1481 C1480 1.396 . S
C1481 C1482 1.399 . S
C1482 H1468 0.929 . S
C1482 C1481 1.399 . S
C1482 C1483 1.385 . S
C1483 H1469 0.931 . S
C1483 C1482 1.385 . S
C1483 C1484 1.389 . S
C1484 C1483 1.389 . S
C1484 C1485 1.387 . S
C1485 H1470 0.930 . S
C1485 C1480 1.390 . S
C1485 C1484 1.387 . S
H1486 C1498 0.930 . S
H1487 C1500 0.930 . S
H1488 C1501 0.930 . S
H1489 C1505 0.959 . S
H1490 C1505 0.959 . S
H1491 C1505 0.961 . S
H1492 C1506 0.960 . S
H1493 C1506 0.961 . S
H1494 C1506 0.959 . S
H1495 C1509 0.929 . S
H1496 C1510 0.931 . S
H1497 C1512 0.930 . S
C1498 H1486 0.930 . S
C1498 C1499 1.399 . S
C1498 C1503 1.399 . S
C1499 C1498 1.399 . S
C1499 C1500 1.376 . S
C1500 H1487 0.930 . S
C1500 C1499 1.376 . S
C1500 C1501 1.388 . S
C1501 H1488 0.930 . S
C1501 C1500 1.388 . S
C1501 C1502 1.390 . S
C1502 C1501 1.390 . S
C1502 C1503 1.394 . S
C1502 C1508 1.465 . S
C1503 C1498 1.399 . S
C1503 C1502 1.394 . S
C1503 C1504 1.516 . S
C1504 C1503 1.516 . S
C1504 C1505 1.502 . S
C1504 C1506 1.561 . S
C1504 C1507 1.526 . S
C1505 H1489 0.959 . S
C1505 H1490 0.959 . S
C1505 H1491 0.961 . S
C1505 C1504 1.502 . S
C1506 H1492 0.960 . S
C1506 H1493 0.961 . S
C1506 H1494 0.959 . S
C1506 C1504 1.561 . S
C1507 C1504 1.526 . S
C1507 C1508 1.396 . S
C1507 C1512 1.390 . S
C1508 C1502 1.465 . S
C1508 C1507 1.396 . S
C1508 C1509 1.399 . S
C1509 H1495 0.929 . S
C1509 C1508 1.399 . S
C1509 C1510 1.385 . S
C1510 H1496 0.931 . S
C1510 C1509 1.385 . S
C1510 C1511 1.389 . S
C1511 C1510 1.389 . S
C1511 C1512 1.387 . S
C1512 H1497 0.930 . S
C1512 C1507 1.390 . S
C1512 C1511 1.387 . S
H1513 C1525 0.930 . S
H1514 C1527 0.930 . S
H1515 C1528 0.930 . S
H1516 C1532 0.959 . S
H1517 C1532 0.959 . S
H1518 C1532 0.961 . S
H1519 C1533 0.960 . S
H1520 C1533 0.961 . S
H1521 C1533 0.959 . S
H1522 C1536 0.929 . S
H1523 C1537 0.931 . S
H1524 C1539 0.930 . S
C1525 H1513 0.930 . S
C1525 C1526 1.399 . S
C1525 C1530 1.399 . S
C1526 C1525 1.399 . S
C1526 C1527 1.376 . S
C1527 H1514 0.930 . S
C1527 C1526 1.376 . S
C1527 C1528 1.388 . S
C1528 H1515 0.930 . S
C1528 C1527 1.388 . S
C1528 C1529 1.390 . S
C1529 C1528 1.390 . S
C1529 C1530 1.394 . S
C1529 C1535 1.465 . S
C1530 C1525 1.399 . S
C1530 C1529 1.394 . S
C1530 C1531 1.516 . S
C1531 C1530 1.516 . S
C1531 C1532 1.502 . S
C1531 C1533 1.561 . S
C1531 C1534 1.526 . S
C1532 H1516 0.959 . S
C1532 H1517 0.959 . S
C1532 H1518 0.961 . S
C1532 C1531 1.502 . S
C1533 H1519 0.960 . S
C1533 H1520 0.961 . S
C1533 H1521 0.959 . S
C1533 C1531 1.561 . S
C1534 C1531 1.526 . S
C1534 C1535 1.396 . S
C1534 C1539 1.390 . S
C1535 C1529 1.465 . S
C1535 C1534 1.396 . S
C1535 C1536 1.399 . S
C1536 H1522 0.929 . S
C1536 C1535 1.399 . S
C1536 C1537 1.385 . S
C1537 H1523 0.931 . S
C1537 C1536 1.385 . S
C1537 C1538 1.389 . S
C1538 C1537 1.389 . S
C1538 C1539 1.387 . S
C1539 H1524 0.930 . S
C1539 C1534 1.390 . S
C1539 C1538 1.387 . S
H1540 C1552 0.930 . S
H1541 C1554 0.930 . S
H1542 C1555 0.930 . S
H1543 C1559 0.959 . S
H1544 C1559 0.959 . S
H1545 C1559 0.961 . S
H1546 C1560 0.960 . S
H1547 C1560 0.961 . S
H1548 C1560 0.959 . S
H1549 C1563 0.929 . S
H1550 C1564 0.931 . S
H1551 C1566 0.930 . S
C1552 H1540 0.930 . S
C1552 C1553 1.399 . S
C1552 C1557 1.399 . S
C1553 C1552 1.399 . S
C1553 C1554 1.376 . S
C1554 H1541 0.930 . S
C1554 C1553 1.376 . S
C1554 C1555 1.388 . S
C1555 H1542 0.930 . S
C1555 C1554 1.388 . S
C1555 C1556 1.390 . S
C1556 C1555 1.390 . S
C1556 C1557 1.394 . S
C1556 C1562 1.465 . S
C1557 C1552 1.399 . S
C1557 C1556 1.394 . S
C1557 C1558 1.516 . S
C1558 C1557 1.516 . S
C1558 C1559 1.502 . S
C1558 C1560 1.561 . S
C1558 C1561 1.526 . S
C1559 H1543 0.959 . S
C1559 H1544 0.959 . S
C1559 H1545 0.961 . S
C1559 C1558 1.502 . S
C1560 H1546 0.960 . S
C1560 H1547 0.961 . S
C1560 H1548 0.959 . S
C1560 C1558 1.561 . S
C1561 C1558 1.526 . S
C1561 C1562 1.396 . S
C1561 C1566 1.390 . S
C1562 C1556 1.465 . S
C1562 C1561 1.396 . S
C1562 C1563 1.399 . S
C1563 H1549 0.929 . S
C1563 C1562 1.399 . S
C1563 C1564 1.385 . S
C1564 H1550 0.931 . S
C1564 C1563 1.385 . S
C1564 C1565 1.389 . S
C1565 C1564 1.389 . S
C1565 C1566 1.387 . S
C1566 H1551 0.930 . S
C1566 C1561 1.390 . S
C1566 C1565 1.387 . S
H1567 C1579 0.930 . S
H1568 C1581 0.930 . S
H1569 C1582 0.930 . S
H1570 C1586 0.959 . S
H1571 C1586 0.959 . S
H1572 C1586 0.961 . S
H1573 C1587 0.960 . S
H1574 C1587 0.961 . S
H1575 C1587 0.959 . S
H1576 C1590 0.929 . S
H1577 C1591 0.931 . S
H1578 C1593 0.930 . S
C1579 H1567 0.930 . S
C1579 C1580 1.399 . S
C1579 C1584 1.399 . S
C1580 C1579 1.399 . S
C1580 C1581 1.376 . S
C1581 H1568 0.930 . S
C1581 C1580 1.376 . S
C1581 C1582 1.388 . S
C1582 H1569 0.930 . S
C1582 C1581 1.388 . S
C1582 C1583 1.390 . S
C1583 C1582 1.390 . S
C1583 C1584 1.394 . S
C1583 C1589 1.465 . S
C1584 C1579 1.399 . S
C1584 C1583 1.394 . S
C1584 C1585 1.516 . S
C1585 C1584 1.516 . S
C1585 C1586 1.502 . S
C1585 C1587 1.561 . S
C1585 C1588 1.526 . S
C1586 H1570 0.959 . S
C1586 H1571 0.959 . S
C1586 H1572 0.961 . S
C1586 C1585 1.502 . S
C1587 H1573 0.960 . S
C1587 H1574 0.961 . S
C1587 H1575 0.959 . S
C1587 C1585 1.561 . S
C1588 C1585 1.526 . S
C1588 C1589 1.396 . S
C1588 C1593 1.390 . S
C1589 C1583 1.465 . S
C1589 C1588 1.396 . S
C1589 C1590 1.399 . S
C1590 H1576 0.929 . S
C1590 C1589 1.399 . S
C1590 C1591 1.385 . S
C1591 H1577 0.931 . S
C1591 C1590 1.385 . S
C1591 C1592 1.389 . S
C1592 C1591 1.389 . S
C1592 C1593 1.387 . S
C1593 H1578 0.930 . S
C1593 C1588 1.390 . S
C1593 C1592 1.387 . S
H1594 C1606 0.930 . S
H1595 C1608 0.930 . S
H1596 C1609 0.930 . S
H1597 C1613 0.959 . S
H1598 C1613 0.959 . S
H1599 C1613 0.961 . S
H1600 C1614 0.960 . S
H1601 C1614 0.961 . S
H1602 C1614 0.959 . S
H1603 C1617 0.929 . S
H1604 C1618 0.931 . S
H1605 C1620 0.930 . S
C1606 H1594 0.930 . S
C1606 C1607 1.399 . S
C1606 C1611 1.399 . S
C1607 C1606 1.399 . S
C1607 C1608 1.376 . S
C1608 H1595 0.930 . S
C1608 C1607 1.376 . S
C1608 C1609 1.388 . S
C1609 H1596 0.930 . S
C1609 C1608 1.388 . S
C1609 C1610 1.390 . S
C1610 C1609 1.390 . S
C1610 C1611 1.394 . S
C1610 C1616 1.465 . S
C1611 C1606 1.399 . S
C1611 C1610 1.394 . S
C1611 C1612 1.516 . S
C1612 C1611 1.516 . S
C1612 C1613 1.502 . S
C1612 C1614 1.561 . S
C1612 C1615 1.526 . S
C1613 H1597 0.959 . S
C1613 H1598 0.959 . S
C1613 H1599 0.961 . S
C1613 C1612 1.502 . S
C1614 H1600 0.960 . S
C1614 H1601 0.961 . S
C1614 H1602 0.959 . S
C1614 C1612 1.561 . S
C1615 C1612 1.526 . S
C1615 C1616 1.396 . S
C1615 C1620 1.390 . S
C1616 C1610 1.465 . S
C1616 C1615 1.396 . S
C1616 C1617 1.399 . S
C1617 H1603 0.929 . S
C1617 C1616 1.399 . S
C1617 C1618 1.385 . S
C1618 H1604 0.931 . S
C1618 C1617 1.385 . S
C1618 C1619 1.389 . S
C1619 C1618 1.389 . S
C1619 C1620 1.387 . S
C1620 H1605 0.930 . S
C1620 C1615 1.390 . S
C1620 C1619 1.387 . S
H1621 C1633 0.930 . S
H1622 C1635 0.930 . S
H1623 C1636 0.930 . S
H1624 C1640 0.959 . S
H1625 C1640 0.959 . S
H1626 C1640 0.961 . S
H1627 C1641 0.960 . S
H1628 C1641 0.961 . S
H1629 C1641 0.959 . S
H1630 C1644 0.929 . S
H1631 C1645 0.931 . S
H1632 C1647 0.930 . S
C1633 H1621 0.930 . S
C1633 C1634 1.399 . S
C1633 C1638 1.399 . S
C1634 C1633 1.399 . S
C1634 C1635 1.376 . S
C1635 H1622 0.930 . S
C1635 C1634 1.376 . S
C1635 C1636 1.388 . S
C1636 H1623 0.930 . S
C1636 C1635 1.388 . S
C1636 C1637 1.390 . S
C1637 C1636 1.390 . S
C1637 C1638 1.394 . S
C1637 C1643 1.465 . S
C1638 C1633 1.399 . S
C1638 C1637 1.394 . S
C1638 C1639 1.516 . S
C1639 C1638 1.516 . S
C1639 C1640 1.502 . S
C1639 C1641 1.561 . S
C1639 C1642 1.526 . S
C1640 H1624 0.959 . S
C1640 H1625 0.959 . S
C1640 H1626 0.961 . S
C1640 C1639 1.502 . S
C1641 H1627 0.960 . S
C1641 H1628 0.961 . S
C1641 H1629 0.959 . S
C1641 C1639 1.561 . S
C1642 C1639 1.526 . S
C1642 C1643 1.396 . S
C1642 C1647 1.390 . S
C1643 C1637 1.465 . S
C1643 C1642 1.396 . S
C1643 C1644 1.399 . S
C1644 H1630 0.929 . S
C1644 C1643 1.399 . S
C1644 C1645 1.385 . S
C1645 H1631 0.931 . S
C1645 C1644 1.385 . S
C1645 C1646 1.389 . S
C1646 C1645 1.389 . S
C1646 C1647 1.387 . S
C1647 H1632 0.930 . S
C1647 C1642 1.390 . S
C1647 C1646 1.387 . S
H1648 C1660 0.930 . S
H1649 C1662 0.930 . S
H1650 C1663 0.930 . S
H1651 C1667 0.959 . S
H1652 C1667 0.959 . S
H1653 C1667 0.961 . S
H1654 C1668 0.960 . S
H1655 C1668 0.961 . S
H1656 C1668 0.959 . S
H1657 C1671 0.929 . S
H1658 C1672 0.931 1_556 S
H1659 C1674 0.930 . S
C1660 H1648 0.930 . S
C1660 C1661 1.399 1_554 S
C1660 C1665 1.399 . S
C1661 C1660 1.399 1_556 S
C1661 C1662 1.376 . S
C1662 H1649 0.930 . S
C1662 C1661 1.376 . S
C1662 C1663 1.388 . S
C1663 H1650 0.930 . S
C1663 C1662 1.388 . S
C1663 C1664 1.390 . S
C1664 C1663 1.390 . S
C1664 C1665 1.394 1_556 S
C1664 C1670 1.465 1_556 S
C1665 C1660 1.399 . S
C1665 C1664 1.394 1_554 S
C1665 C1666 1.516 . S
C1666 C1665 1.516 . S
C1666 C1667 1.502 . S
C1666 C1668 1.561 . S
C1666 C1669 1.526 . S
C1667 H1651 0.959 . S
C1667 H1652 0.959 . S
C1667 H1653 0.961 . S
C1667 C1666 1.502 . S
C1668 H1654 0.960 . S
C1668 H1655 0.961 . S
C1668 H1656 0.959 . S
C1668 C1666 1.561 . S
C1669 C1666 1.526 . S
C1669 C1670 1.396 . S
C1669 C1674 1.390 . S
C1670 C1664 1.465 1_554 S
C1670 C1669 1.396 . S
C1670 C1671 1.399 1_554 S
C1671 H1657 0.929 . S
C1671 C1670 1.399 1_556 S
C1671 C1672 1.385 1_556 S
C1672 H1658 0.931 1_554 S
C1672 C1671 1.385 1_554 S
C1672 C1673 1.389 . S
C1673 C1672 1.389 . S
C1673 C1674 1.387 . S
C1674 H1659 0.930 . S
C1674 C1669 1.390 . S
C1674 C1673 1.387 . S
H1675 C1687 0.930 . S
H1676 C1689 0.930 . S
H1677 C1690 0.930 . S
H1678 C1694 0.959 . S
H1679 C1694 0.959 . S
H1680 C1694 0.961 . S
H1681 C1695 0.960 . S
H1682 C1695 0.961 . S
H1683 C1695 0.959 . S
H1684 C1698 0.929 . S
H1685 C1699 0.931 . S
H1686 C1701 0.930 . S
C1687 H1675 0.930 . S
C1687 C1688 1.399 . S
C1687 C1692 1.399 . S
C1688 C1687 1.399 . S
C1688 C1689 1.376 . S
C1689 H1676 0.930 . S
C1689 C1688 1.376 . S
C1689 C1690 1.388 1_554 S
C1690 H1677 0.930 . S
C1690 C1689 1.388 1_556 S
C1690 C1691 1.390 1_556 S
C1691 C1690 1.390 1_554 S
C1691 C1692 1.394 . S
C1691 C1697 1.465 . S
C1692 C1687 1.399 . S
C1692 C1691 1.394 . S
C1692 C1693 1.516 . S
C1693 C1692 1.516 . S
C1693 C1694 1.502 . S
C1693 C1695 1.561 . S
C1693 C1696 1.526 . S
C1694 H1678 0.959 . S
C1694 H1679 0.959 . S
C1694 H1680 0.961 . S
C1694 C1693 1.502 . S
C1695 H1681 0.960 . S
C1695 H1682 0.961 . S
C1695 H1683 0.959 . S
C1695 C1693 1.561 . S
C1696 C1693 1.526 . S
C1696 C1697 1.396 . S
C1696 C1701 1.390 . S
C1697 C1691 1.465 . S
C1697 C1696 1.396 . S
C1697 C1698 1.399 1_554 S
C1698 H1684 0.929 . S
C1698 C1697 1.399 1_556 S
C1698 C1699 1.385 . S
C1699 H1685 0.931 . S
C1699 C1698 1.385 . S
C1699 C1700 1.389 . S
C1700 C1699 1.389 . S
C1700 C1701 1.387 1_556 S
C1701 H1686 0.930 . S
C1701 C1696 1.390 . S
C1701 C1700 1.387 1_554 S
H1702 C1714 0.930 . S
H1703 C1716 0.930 . S
H1704 C1717 0.930 . S
H1705 C1721 0.959 . S
H1706 C1721 0.959 . S
H1707 C1721 0.961 . S
H1708 C1722 0.960 . S
H1709 C1722 0.961 . S
H1710 C1722 0.959 . S
H1711 C1725 0.929 . S
H1712 C1726 0.931 . S
H1713 C1728 0.930 . S
C1714 H1702 0.930 . S
C1714 C1715 1.399 . S
C1714 C1719 1.399 . S
C1715 C1714 1.399 . S
C1715 C1716 1.376 . S
C1716 H1703 0.930 . S
C1716 C1715 1.376 . S
C1716 C1717 1.388 . S
C1717 H1704 0.930 . S
C1717 C1716 1.388 . S
C1717 C1718 1.390 . S
C1718 C1717 1.390 . S
C1718 C1719 1.394 . S
C1718 C1724 1.465 . S
C1719 C1714 1.399 . S
C1719 C1718 1.394 . S
C1719 C1720 1.516 . S
C1720 C1719 1.516 . S
C1720 C1721 1.502 . S
C1720 C1722 1.561 . S
C1720 C1723 1.526 . S
C1721 H1705 0.959 . S
C1721 H1706 0.959 . S
C1721 H1707 0.961 . S
C1721 C1720 1.502 . S
C1722 H1708 0.960 . S
C1722 H1709 0.961 . S
C1722 H1710 0.959 . S
C1722 C1720 1.561 . S
C1723 C1720 1.526 . S
C1723 C1724 1.396 . S
C1723 C1728 1.390 . S
C1724 C1718 1.465 . S
C1724 C1723 1.396 . S
C1724 C1725 1.399 . S
C1725 H1711 0.929 . S
C1725 C1724 1.399 . S
C1725 C1726 1.385 . S
C1726 H1712 0.931 . S
C1726 C1725 1.385 . S
C1726 C1727 1.389 . S
C1727 C1726 1.389 . S
C1727 C1728 1.387 . S
C1728 H1713 0.930 . S
C1728 C1723 1.390 . S
C1728 C1727 1.387 . S
H1729 C1741 0.930 . S
H1730 C1743 0.930 . S
H1731 C1744 0.930 . S
H1732 C1748 0.959 . S
H1733 C1748 0.959 . S
H1734 C1748 0.961 . S
H1735 C1749 0.960 . S
H1736 C1749 0.961 . S
H1737 C1749 0.959 . S
H1738 C1752 0.929 . S
H1739 C1753 0.931 . S
H1740 C1755 0.930 . S
C1741 H1729 0.930 . S
C1741 C1742 1.399 . S
C1741 C1746 1.399 . S
C1742 C1741 1.399 . S
C1742 C1743 1.376 . S
C1743 H1730 0.930 . S
C1743 C1742 1.376 . S
C1743 C1744 1.388 . S
C1744 H1731 0.930 . S
C1744 C1743 1.388 . S
C1744 C1745 1.390 . S
C1745 C1744 1.390 . S
C1745 C1746 1.394 . S
C1745 C1751 1.465 . S
C1746 C1741 1.399 . S
C1746 C1745 1.394 . S
C1746 C1747 1.516 . S
C1747 C1746 1.516 . S
C1747 C1748 1.502 . S
C1747 C1749 1.561 . S
C1747 C1750 1.526 . S
C1748 H1732 0.959 . S
C1748 H1733 0.959 . S
C1748 H1734 0.961 . S
C1748 C1747 1.502 . S
C1749 H1735 0.960 . S
C1749 H1736 0.961 . S
C1749 H1737 0.959 . S
C1749 C1747 1.561 . S
C1750 C1747 1.526 . S
C1750 C1751 1.396 . S
C1750 C1755 1.390 . S
C1751 C1745 1.465 . S
C1751 C1750 1.396 . S
C1751 C1752 1.399 . S
C1752 H1738 0.929 . S
C1752 C1751 1.399 . S
C1752 C1753 1.385 . S
C1753 H1739 0.931 . S
C1753 C1752 1.385 . S
C1753 C1754 1.389 . S
C1754 C1753 1.389 . S
C1754 C1755 1.387 . S
C1755 H1740 0.930 . S
C1755 C1750 1.390 . S
C1755 C1754 1.387 . S
H1756 C1768 0.930 . S
H1757 C1770 0.930 . S
H1758 C1771 0.930 . S
H1759 C1775 0.959 . S
H1760 C1775 0.959 . S
H1761 C1775 0.961 . S
H1762 C1776 0.960 . S
H1763 C1776 0.961 . S
H1764 C1776 0.959 . S
H1765 C1779 0.929 1_554 S
H1766 C1780 0.931 . S
H1767 C1782 0.930 . S
C1768 H1756 0.930 . S
C1768 C1769 1.399 1_556 S
C1768 C1773 1.399 . S
C1769 C1768 1.399 1_554 S
C1769 C1770 1.376 . S
C1770 H1757 0.930 . S
C1770 C1769 1.376 . S
C1770 C1771 1.388 . S
C1771 H1758 0.930 . S
C1771 C1770 1.388 . S
C1771 C1772 1.390 1_554 S
C1772 C1771 1.390 1_556 S
C1772 C1773 1.394 . S
C1772 C1778 1.465 . S
C1773 C1768 1.399 . S
C1773 C1772 1.394 . S
C1773 C1774 1.516 . S
C1774 C1773 1.516 . S
C1774 C1775 1.502 . S
C1774 C1776 1.561 . S
C1774 C1777 1.526 . S
C1775 H1759 0.959 . S
C1775 H1760 0.959 . S
C1775 H1761 0.961 . S
C1775 C1774 1.502 . S
C1776 H1762 0.960 . S
C1776 H1763 0.961 . S
C1776 H1764 0.959 . S
C1776 C1774 1.561 . S
C1777 C1774 1.526 . S
C1777 C1778 1.396 . S
C1777 C1782 1.390 . S
C1778 C1772 1.465 . S
C1778 C1777 1.396 . S
C1778 C1779 1.399 . S
C1779 H1765 0.929 1_556 S
C1779 C1778 1.399 . S
C1779 C1780 1.385 . S
C1780 H1766 0.931 . S
C1780 C1779 1.385 . S
C1780 C1781 1.389 . S
C1781 C1780 1.389 . S
C1781 C1782 1.387 . S
C1782 H1767 0.930 . S
C1782 C1777 1.390 . S
C1782 C1781 1.387 . S
H1783 C1795 0.930 . S
H1784 C1797 0.930 . S
H1785 C1798 0.930 . S
H1786 C1802 0.959 . S
H1787 C1802 0.959 . S
H1788 C1802 0.961 . S
H1789 C1803 0.960 . S
H1790 C1803 0.961 . S
H1791 C1803 0.959 . S
H1792 C1806 0.929 1_554 S
H1793 C1807 0.931 . S
H1794 C1809 0.930 . S
C1795 H1783 0.930 . S
C1795 C1796 1.399 1_556 S
C1795 C1800 1.399 . S
C1796 C1795 1.399 1_554 S
C1796 C1797 1.376 . S
C1797 H1784 0.930 . S
C1797 C1796 1.376 . S
C1797 C1798 1.388 . S
C1798 H1785 0.930 . S
C1798 C1797 1.388 . S
C1798 C1799 1.390 1_554 S
C1799 C1798 1.390 1_556 S
C1799 C1800 1.394 . S
C1799 C1805 1.465 . S
C1800 C1795 1.399 . S
C1800 C1799 1.394 . S
C1800 C1801 1.516 . S
C1801 C1800 1.516 . S
C1801 C1802 1.502 . S
C1801 C1803 1.561 . S
C1801 C1804 1.526 . S
C1802 H1786 0.959 . S
C1802 H1787 0.959 . S
C1802 H1788 0.961 . S
C1802 C1801 1.502 . S
C1803 H1789 0.960 . S
C1803 H1790 0.961 . S
C1803 H1791 0.959 . S
C1803 C1801 1.561 . S
C1804 C1801 1.526 . S
C1804 C1805 1.396 . S
C1804 C1809 1.390 . S
C1805 C1799 1.465 . S
C1805 C1804 1.396 . S
C1805 C1806 1.399 . S
C1806 H1792 0.929 1_556 S
C1806 C1805 1.399 . S
C1806 C1807 1.385 . S
C1807 H1793 0.931 . S
C1807 C1806 1.385 . S
C1807 C1808 1.389 . S
C1808 C1807 1.389 . S
C1808 C1809 1.387 . S
C1809 H1794 0.930 . S
C1809 C1804 1.390 . S
C1809 C1808 1.387 . S
H1810 C1822 0.930 . S
H1811 C1824 0.930 . S
H1812 C1825 0.930 . S
H1813 C1829 0.959 . S
H1814 C1829 0.959 . S
H1815 C1829 0.961 . S
H1816 C1830 0.960 . S
H1817 C1830 0.961 . S
H1818 C1830 0.959 . S
H1819 C1833 0.929 . S
H1820 C1834 0.931 . S
H1821 C1836 0.930 . S
C1822 H1810 0.930 . S
C1822 C1823 1.399 . S
C1822 C1827 1.399 . S
C1823 C1822 1.399 . S
C1823 C1824 1.376 . S
C1824 H1811 0.930 . S
C1824 C1823 1.376 . S
C1824 C1825 1.388 . S
C1825 H1812 0.930 . S
C1825 C1824 1.388 . S
C1825 C1826 1.390 . S
C1826 C1825 1.390 . S
C1826 C1827 1.394 . S
C1826 C1832 1.465 . S
C1827 C1822 1.399 . S
C1827 C1826 1.394 . S
C1827 C1828 1.516 . S
C1828 C1827 1.516 . S
C1828 C1829 1.502 . S
C1828 C1830 1.561 . S
C1828 C1831 1.526 . S
C1829 H1813 0.959 . S
C1829 H1814 0.959 . S
C1829 H1815 0.961 . S
C1829 C1828 1.502 . S
C1830 H1816 0.960 . S
C1830 H1817 0.961 . S
C1830 H1818 0.959 . S
C1830 C1828 1.561 . S
C1831 C1828 1.526 . S
C1831 C1832 1.396 . S
C1831 C1836 1.390 . S
C1832 C1826 1.465 . S
C1832 C1831 1.396 . S
C1832 C1833 1.399 . S
C1833 H1819 0.929 . S
C1833 C1832 1.399 . S
C1833 C1834 1.385 . S
C1834 H1820 0.931 . S
C1834 C1833 1.385 . S
C1834 C1835 1.389 . S
C1835 C1834 1.389 . S
C1835 C1836 1.387 . S
C1836 H1821 0.930 . S
C1836 C1831 1.390 . S
C1836 C1835 1.387 . S
H1837 C1849 0.930 . S
H1838 C1851 0.930 . S
H1839 C1852 0.930 . S
H1840 C1856 0.959 . S
H1841 C1856 0.959 . S
H1842 C1856 0.961 . S
H1843 C1857 0.960 . S
H1844 C1857 0.961 . S
H1845 C1857 0.959 . S
H1846 C1860 0.929 . S
H1847 C1861 0.931 . S
H1848 C1863 0.930 . S
C1849 H1837 0.930 . S
C1849 C1850 1.399 . S
C1849 C1854 1.399 . S
C1850 C1849 1.399 . S
C1850 C1851 1.376 . S
C1851 H1838 0.930 . S
C1851 C1850 1.376 . S
C1851 C1852 1.388 . S
C1852 H1839 0.930 . S
C1852 C1851 1.388 . S
C1852 C1853 1.390 . S
C1853 C1852 1.390 . S
C1853 C1854 1.394 . S
C1853 C1859 1.465 . S
C1854 C1849 1.399 . S
C1854 C1853 1.394 . S
C1854 C1855 1.516 . S
C1855 C1854 1.516 . S
C1855 C1856 1.502 . S
C1855 C1857 1.561 . S
C1855 C1858 1.526 . S
C1856 H1840 0.959 . S
C1856 H1841 0.959 . S
C1856 H1842 0.961 . S
C1856 C1855 1.502 . S
C1857 H1843 0.960 . S
C1857 H1844 0.961 . S
C1857 H1845 0.959 . S
C1857 C1855 1.561 . S
C1858 C1855 1.526 . S
C1858 C1859 1.396 . S
C1858 C1863 1.390 . S
C1859 C1853 1.465 . S
C1859 C1858 1.396 . S
C1859 C1860 1.399 . S
C1860 H1846 0.929 . S
C1860 C1859 1.399 . S
C1860 C1861 1.385 . S
C1861 H1847 0.931 . S
C1861 C1860 1.385 . S
C1861 C1862 1.389 . S
C1862 C1861 1.389 . S
C1862 C1863 1.387 . S
C1863 H1848 0.930 . S
C1863 C1858 1.390 . S
C1863 C1862 1.387 . S
H1864 C1876 0.930 . S
H1865 C1878 0.930 . S
H1866 C1879 0.930 . S
H1867 C1883 0.959 . S
H1868 C1883 0.959 . S
H1869 C1883 0.961 . S
H1870 C1884 0.960 . S
H1871 C1884 0.961 . S
H1872 C1884 0.959 . S
H1873 C1887 0.929 . S
H1874 C1888 0.931 . S
H1875 C1890 0.930 . S
C1876 H1864 0.930 . S
C1876 C1877 1.399 . S
C1876 C1881 1.399 . S
C1877 C1876 1.399 . S
C1877 C1878 1.376 . S
C1878 H1865 0.930 . S
C1878 C1877 1.376 . S
C1878 C1879 1.388 . S
C1879 H1866 0.930 . S
C1879 C1878 1.388 . S
C1879 C1880 1.390 . S
C1880 C1879 1.390 . S
C1880 C1881 1.394 . S
C1880 C1886 1.465 . S
C1881 C1876 1.399 . S
C1881 C1880 1.394 . S
C1881 C1882 1.516 . S
C1882 C1881 1.516 . S
C1882 C1883 1.502 . S
C1882 C1884 1.561 . S
C1882 C1885 1.526 . S
C1883 H1867 0.959 . S
C1883 H1868 0.959 . S
C1883 H1869 0.961 . S
C1883 C1882 1.502 . S
C1884 H1870 0.960 . S
C1884 H1871 0.961 . S
C1884 H1872 0.959 . S
C1884 C1882 1.561 . S
C1885 C1882 1.526 . S
C1885 C1886 1.396 . S
C1885 C1890 1.390 . S
C1886 C1880 1.465 . S
C1886 C1885 1.396 . S
C1886 C1887 1.399 . S
C1887 H1873 0.929 . S
C1887 C1886 1.399 . S
C1887 C1888 1.385 . S
C1888 H1874 0.931 . S
C1888 C1887 1.385 . S
C1888 C1889 1.389 . S
C1889 C1888 1.389 . S
C1889 C1890 1.387 . S
C1890 H1875 0.930 . S
C1890 C1885 1.390 . S
C1890 C1889 1.387 . S
H1891 C1903 0.930 . S
H1892 C1905 0.930 . S
H1893 C1906 0.930 . S
H1894 C1910 0.959 . S
H1895 C1910 0.959 . S
H1896 C1910 0.961 . S
H1897 C1911 0.960 . S
H1898 C1911 0.961 . S
H1899 C1911 0.959 . S
H1900 C1914 0.929 . S
H1901 C1915 0.931 . S
H1902 C1917 0.930 . S
C1903 H1891 0.930 . S
C1903 C1904 1.399 . S
C1903 C1908 1.399 . S
C1904 C1903 1.399 . S
C1904 C1905 1.376 . S
C1905 H1892 0.930 . S
C1905 C1904 1.376 . S
C1905 C1906 1.388 . S
C1906 H1893 0.930 . S
C1906 C1905 1.388 . S
C1906 C1907 1.390 . S
C1907 C1906 1.390 . S
C1907 C1908 1.394 . S
C1907 C1913 1.465 . S
C1908 C1903 1.399 . S
C1908 C1907 1.394 . S
C1908 C1909 1.516 . S
C1909 C1908 1.516 . S
C1909 C1910 1.502 . S
C1909 C1911 1.561 . S
C1909 C1912 1.526 . S
C1910 H1894 0.959 . S
C1910 H1895 0.959 . S
C1910 H1896 0.961 . S
C1910 C1909 1.502 . S
C1911 H1897 0.960 . S
C1911 H1898 0.961 . S
C1911 H1899 0.959 . S
C1911 C1909 1.561 . S
C1912 C1909 1.526 . S
C1912 C1913 1.396 . S
C1912 C1917 1.390 . S
C1913 C1907 1.465 . S
C1913 C1912 1.396 . S
C1913 C1914 1.399 . S
C1914 H1900 0.929 . S
C1914 C1913 1.399 . S
C1914 C1915 1.385 . S
C1915 H1901 0.931 . S
C1915 C1914 1.385 . S
C1915 C1916 1.389 . S
C1916 C1915 1.389 . S
C1916 C1917 1.387 . S
C1917 H1902 0.930 . S
C1917 C1912 1.390 . S
C1917 C1916 1.387 . S
H1918 C1930 0.930 . S
H1919 C1932 0.930 . S
H1920 C1933 0.930 . S
H1921 C1937 0.959 . S
H1922 C1937 0.959 . S
H1923 C1937 0.961 . S
H1924 C1938 0.960 . S
H1925 C1938 0.961 . S
H1926 C1938 0.959 . S
H1927 C1941 0.929 . S
H1928 C1942 0.931 . S
H1929 C1944 0.930 . S
C1930 H1918 0.930 . S
C1930 C1931 1.399 . S
C1930 C1935 1.399 . S
C1931 C1930 1.399 . S
C1931 C1932 1.376 . S
C1932 H1919 0.930 . S
C1932 C1931 1.376 . S
C1932 C1933 1.388 . S
C1933 H1920 0.930 . S
C1933 C1932 1.388 . S
C1933 C1934 1.390 . S
C1934 C1933 1.390 . S
C1934 C1935 1.394 . S
C1934 C1940 1.465 . S
C1935 C1930 1.399 . S
C1935 C1934 1.394 . S
C1935 C1936 1.516 . S
C1936 C1935 1.516 . S
C1936 C1937 1.502 . S
C1936 C1938 1.561 . S
C1936 C1939 1.526 . S
C1937 H1921 0.959 . S
C1937 H1922 0.959 . S
C1937 H1923 0.961 . S
C1937 C1936 1.502 . S
C1938 H1924 0.960 . S
C1938 H1925 0.961 . S
C1938 H1926 0.959 . S
C1938 C1936 1.561 . S
C1939 C1936 1.526 . S
C1939 C1940 1.396 . S
C1939 C1944 1.390 . S
C1940 C1934 1.465 . S
C1940 C1939 1.396 . S
C1940 C1941 1.399 . S
C1941 H1927 0.929 . S
C1941 C1940 1.399 . S
C1941 C1942 1.385 . S
C1942 H1928 0.931 . S
C1942 C1941 1.385 . S
C1942 C1943 1.389 . S
C1943 C1942 1.389 . S
C1943 C1944 1.387 . S
C1944 H1929 0.930 . S
C1944 C1939 1.390 . S
C1944 C1943 1.387 . S
H1945 C1957 0.930 . S
H1946 C1959 0.930 . S
H1947 C1960 0.930 . S
H1948 C1964 0.959 . S
H1949 C1964 0.959 . S
H1950 C1964 0.961 . S
H1951 C1965 0.960 1_545 S
H1952 C1965 0.961 . S
H1953 C1965 0.959 . S
H1954 C1968 0.929 . S
H1955 C1969 0.931 . S
H1956 C1971 0.930 . S
C1957 H1945 0.930 . S
C1957 C1958 1.399 . S
C1957 C1962 1.399 . S
C1958 C1957 1.399 . S
C1958 C1959 1.376 . S
C1959 H1946 0.930 . S
C1959 C1958 1.376 . S
C1959 C1960 1.388 . S
C1960 H1947 0.930 . S
C1960 C1959 1.388 . S
C1960 C1961 1.390 . S
C1961 C1960 1.390 . S
C1961 C1962 1.394 . S
C1961 C1967 1.465 . S
C1962 C1957 1.399 . S
C1962 C1961 1.394 . S
C1962 C1963 1.516 . S
C1963 C1962 1.516 . S
C1963 C1964 1.502 . S
C1963 C1965 1.561 . S
C1963 C1966 1.526 . S
C1964 H1948 0.959 . S
C1964 H1949 0.959 . S
C1964 H1950 0.961 . S
C1964 C1963 1.502 . S
C1965 H1951 0.960 1_565 S
C1965 H1952 0.961 . S
C1965 H1953 0.959 . S
C1965 C1963 1.561 . S
C1966 C1963 1.526 . S
C1966 C1967 1.396 . S
C1966 C1971 1.390 . S
C1967 C1961 1.465 . S
C1967 C1966 1.396 . S
C1967 C1968 1.399 . S
C1968 H1954 0.929 . S
C1968 C1967 1.399 . S
C1968 C1969 1.385 . S
C1969 H1955 0.931 . S
C1969 C1968 1.385 . S
C1969 C1970 1.389 . S
C1970 C1969 1.389 . S
C1970 C1971 1.387 . S
C1971 H1956 0.930 . S
C1971 C1966 1.390 . S
C1971 C1970 1.387 . S
H1972 C1984 0.930 . S
H1973 C1986 0.911 1_565 S
H1974 C1987 0.930 . S
H1975 C1991 0.959 . S
H1976 C1991 0.959 . S
H1977 C1991 0.961 . S
H1978 C1992 0.960 . S
H1979 C1992 0.961 . S
H1980 C1992 0.959 . S
H1981 C1995 0.929 . S
H1982 C1996 0.931 . S
H1983 C1998 0.930 . S
C1984 H1972 0.930 . S
C1984 C1985 1.399 . S
C1984 C1989 1.399 . S
C1985 C1984 1.399 . S
C1985 C1986 1.386 . S
C1986 H1973 0.911 1_545 S
C1986 C1985 1.386 . S
C1986 C1987 1.398 . S
C1987 H1974 0.930 . S
C1987 C1986 1.398 . S
C1987 C1988 1.390 . S
C1988 C1987 1.390 . S
C1988 C1989 1.394 . S
C1988 C1994 1.465 . S
C1989 C1984 1.399 . S
C1989 C1988 1.394 . S
C1989 C1990 1.516 . S
C1990 C1989 1.516 . S
C1990 C1991 1.502 . S
C1990 C1992 1.561 . S
C1990 C1993 1.526 . S
C1991 H1975 0.959 . S
C1991 H1976 0.959 . S
C1991 H1977 0.961 . S
C1991 C1990 1.502 . S
C1992 H1978 0.960 . S
C1992 H1979 0.961 . S
C1992 H1980 0.959 . S
C1992 C1990 1.561 . S
C1993 C1990 1.526 . S
C1993 C1994 1.396 . S
C1993 C1998 1.390 . S
C1994 C1988 1.465 . S
C1994 C1993 1.396 . S
C1994 C1995 1.399 . S
C1995 H1981 0.929 . S
C1995 C1994 1.399 . S
C1995 C1996 1.385 . S
C1996 H1982 0.931 . S
C1996 C1995 1.385 . S
C1996 C1997 1.389 . S
C1997 C1996 1.389 . S
C1997 C1998 1.387 . S
C1998 H1983 0.930 . S
C1998 C1993 1.390 . S
C1998 C1997 1.387 . S
H1999 C2011 0.930 . S
H2000 C2013 0.930 . S
H2001 C2014 0.930 . S
H2002 C2018 0.959 . S
H2003 C2018 0.959 . S
H2004 C2018 0.961 . S
H2005 C2019 0.960 . S
H2006 C2019 0.961 . S
H2007 C2019 0.959 . S
H2008 C2022 0.929 . S
H2009 C2023 0.931 . S
H2010 C2025 0.930 . S
C2011 H1999 0.930 . S
C2011 C2012 1.399 . S
C2011 C2016 1.399 . S
C2012 C2011 1.399 . S
C2012 C2013 1.376 . S
C2013 H2000 0.930 . S
C2013 C2012 1.376 . S
C2013 C2014 1.388 . S
C2014 H2001 0.930 . S
C2014 C2013 1.388 . S
C2014 C2015 1.390 . S
C2015 C2014 1.390 . S
C2015 C2016 1.394 . S
C2015 C2021 1.465 . S
C2016 C2011 1.399 . S
C2016 C2015 1.394 . S
C2016 C2017 1.516 . S
C2017 C2016 1.516 . S
C2017 C2018 1.502 . S
C2017 C2019 1.561 . S
C2017 C2020 1.526 . S
C2018 H2002 0.959 . S
C2018 H2003 0.959 . S
C2018 H2004 0.961 . S
C2018 C2017 1.502 . S
C2019 H2005 0.960 . S
C2019 H2006 0.961 . S
C2019 H2007 0.959 . S
C2019 C2017 1.561 . S
C2020 C2017 1.526 . S
C2020 C2021 1.396 . S
C2020 C2025 1.390 . S
C2021 C2015 1.465 . S
C2021 C2020 1.396 . S
C2021 C2022 1.399 . S
C2022 H2008 0.929 . S
C2022 C2021 1.399 . S
C2022 C2023 1.385 . S
C2023 H2009 0.931 . S
C2023 C2022 1.385 . S
C2023 C2024 1.389 . S
C2024 C2023 1.389 . S
C2024 C2025 1.387 . S
C2025 H2010 0.930 . S
C2025 C2020 1.390 . S
C2025 C2024 1.387 . S
H2026 C2038 0.930 . S
H2027 C2040 0.930 . S
H2028 C2041 0.930 . S
H2029 C2045 0.959 . S
H2030 C2045 0.959 . S
H2031 C2045 0.961 . S
H2032 C2046 0.960 . S
H2033 C2046 0.961 . S
H2034 C2046 0.959 . S
H2035 C2049 0.929 . S
H2036 C2050 0.931 . S
H2037 C2052 0.930 . S
C2038 H2026 0.930 . S
C2038 C2039 1.399 . S
C2038 C2043 1.399 . S
C2039 C2038 1.399 . S
C2039 C2040 1.376 . S
C2040 H2027 0.930 . S
C2040 C2039 1.376 . S
C2040 C2041 1.388 . S
C2041 H2028 0.930 . S
C2041 C2040 1.388 . S
C2041 C2042 1.390 . S
C2042 C2041 1.390 . S
C2042 C2043 1.394 . S
C2042 C2048 1.465 . S
C2043 C2038 1.399 . S
C2043 C2042 1.394 . S
C2043 C2044 1.516 . S
C2044 C2043 1.516 . S
C2044 C2045 1.502 . S
C2044 C2046 1.561 . S
C2044 C2047 1.526 . S
C2045 H2029 0.959 . S
C2045 H2030 0.959 . S
C2045 H2031 0.961 . S
C2045 C2044 1.502 . S
C2046 H2032 0.960 . S
C2046 H2033 0.961 . S
C2046 H2034 0.959 . S
C2046 C2044 1.561 . S
C2047 C2044 1.526 . S
C2047 C2048 1.396 . S
C2047 C2052 1.390 . S
C2048 C2042 1.465 . S
C2048 C2047 1.396 . S
C2048 C2049 1.399 . S
C2049 H2035 0.929 . S
C2049 C2048 1.399 . S
C2049 C2050 1.385 . S
C2050 H2036 0.931 . S
C2050 C2049 1.385 . S
C2050 C2051 1.389 . S
C2051 C2050 1.389 . S
C2051 C2052 1.387 . S
C2052 H2037 0.930 . S
C2052 C2047 1.390 . S
C2052 C2051 1.387 . S
H2053 C2065 0.930 . S
H2054 C2067 0.930 . S
H2055 C2068 0.930 . S
H2056 C2072 0.959 . S
H2057 C2072 0.959 . S
H2058 C2072 0.961 . S
H2059 C2073 0.960 . S
H2060 C2073 0.961 . S
H2061 C2073 0.959 . S
H2062 C2076 0.929 1_565 S
H2063 C2077 0.931 . S
H2064 C2079 0.930 . S
C2065 H2053 0.930 . S
C2065 C2066 1.399 . S
C2065 C2070 1.399 . S
C2066 C2065 1.399 . S
C2066 C2067 1.376 . S
C2067 H2054 0.930 . S
C2067 C2066 1.376 . S
C2067 C2068 1.388 . S
C2068 H2055 0.930 . S
C2068 C2067 1.388 . S
C2068 C2069 1.390 . S
C2069 C2068 1.390 . S
C2069 C2070 1.394 . S
C2069 C2075 1.465 . S
C2070 C2065 1.399 . S
C2070 C2069 1.394 . S
C2070 C2071 1.516 . S
C2071 C2070 1.516 . S
C2071 C2072 1.502 . S
C2071 C2073 1.561 . S
C2071 C2074 1.526 . S
C2072 H2056 0.959 . S
C2072 H2057 0.959 . S
C2072 H2058 0.961 . S
C2072 C2071 1.502 . S
C2073 H2059 0.960 . S
C2073 H2060 0.961 . S
C2073 H2061 0.959 . S
C2073 C2071 1.561 . S
C2074 C2071 1.526 . S
C2074 C2075 1.396 . S
C2074 C2079 1.390 . S
C2075 C2069 1.465 . S
C2075 C2074 1.396 . S
C2075 C2076 1.399 . S
C2076 H2062 0.929 1_545 S
C2076 C2075 1.399 . S
C2076 C2077 1.385 1_545 S
C2077 H2063 0.931 . S
C2077 C2076 1.385 1_565 S
C2077 C2078 1.389 1_565 S
C2078 C2077 1.389 1_545 S
C2078 C2079 1.387 . S
C2079 H2064 0.930 . S
C2079 C2074 1.390 . S
C2079 C2078 1.387 . S
H2080 C2092 0.930 . S
H2081 C2094 0.930 . S
H2082 C2095 0.930 . S
H2083 C2099 0.959 . S
H2084 C2099 0.959 . S
H2085 C2099 0.961 . S
H2086 C2100 0.960 . S
H2087 C2100 0.961 . S
H2088 C2100 0.959 . S
H2089 C2103 0.929 . S
H2090 C2104 0.931 . S
H2091 C2106 0.930 . S
C2092 H2080 0.930 . S
C2092 C2093 1.399 . S
C2092 C2097 1.399 . S
C2093 C2092 1.399 . S
C2093 C2094 1.376 . S
C2094 H2081 0.930 . S
C2094 C2093 1.376 . S
C2094 C2095 1.388 . S
C2095 H2082 0.930 . S
C2095 C2094 1.388 . S
C2095 C2096 1.390 . S
C2096 C2095 1.390 . S
C2096 C2097 1.394 . S
C2096 C2102 1.465 . S
C2097 C2092 1.399 . S
C2097 C2096 1.394 . S
C2097 C2098 1.516 . S
C2098 C2097 1.516 . S
C2098 C2099 1.502 . S
C2098 C2100 1.561 . S
C2098 C2101 1.526 . S
C2099 H2083 0.959 . S
C2099 H2084 0.959 . S
C2099 H2085 0.961 . S
C2099 C2098 1.502 . S
C2100 H2086 0.960 . S
C2100 H2087 0.961 . S
C2100 H2088 0.959 . S
C2100 C2098 1.561 . S
C2101 C2098 1.526 . S
C2101 C2102 1.396 . S
C2101 C2106 1.390 . S
C2102 C2096 1.465 . S
C2102 C2101 1.396 . S
C2102 C2103 1.399 . S
C2103 H2089 0.929 . S
C2103 C2102 1.399 . S
C2103 C2104 1.385 . S
C2104 H2090 0.931 . S
C2104 C2103 1.385 . S
C2104 C2105 1.389 . S
C2105 C2104 1.389 . S
C2105 C2106 1.387 . S
C2106 H2091 0.930 . S
C2106 C2101 1.390 . S
C2106 C2105 1.387 . S
H2107 C2119 0.930 . S
H2108 C2121 0.930 . S
H2109 C2122 0.930 . S
H2110 C2126 0.959 . S
H2111 C2126 0.959 . S
H2112 C2126 0.961 . S
H2113 C2127 0.960 . S
H2114 C2127 0.961 . S
H2115 C2127 0.959 . S
H2116 C2130 0.929 . S
H2117 C2131 0.931 . S
H2118 C2133 0.930 . S
C2119 H2107 0.930 . S
C2119 C2120 1.399 . S
C2119 C2124 1.399 . S
C2120 C2119 1.399 . S
C2120 C2121 1.376 . S
C2121 H2108 0.930 . S
C2121 C2120 1.376 . S
C2121 C2122 1.388 . S
C2122 H2109 0.930 . S
C2122 C2121 1.388 . S
C2122 C2123 1.390 . S
C2123 C2122 1.390 . S
C2123 C2124 1.394 . S
C2123 C2129 1.465 . S
C2124 C2119 1.399 . S
C2124 C2123 1.394 . S
C2124 C2125 1.516 . S
C2125 C2124 1.516 . S
C2125 C2126 1.502 . S
C2125 C2127 1.561 . S
C2125 C2128 1.526 . S
C2126 H2110 0.959 . S
C2126 H2111 0.959 . S
C2126 H2112 0.961 . S
C2126 C2125 1.502 . S
C2127 H2113 0.960 . S
C2127 H2114 0.961 . S
C2127 H2115 0.959 . S
C2127 C2125 1.561 . S
C2128 C2125 1.526 . S
C2128 C2129 1.396 . S
C2128 C2133 1.390 . S
C2129 C2123 1.465 . S
C2129 C2128 1.396 . S
C2129 C2130 1.399 . S
C2130 H2116 0.929 . S
C2130 C2129 1.399 . S
C2130 C2131 1.385 . S
C2131 H2117 0.931 . S
C2131 C2130 1.385 . S
C2131 C2132 1.389 . S
C2132 C2131 1.389 . S
C2132 C2133 1.387 . S
C2133 H2118 0.930 . S
C2133 C2128 1.390 . S
C2133 C2132 1.387 . S
H2134 C2146 0.930 . S
H2135 C2148 0.930 . S
H2136 C2149 0.930 . S
H2137 C2153 0.959 . S
H2138 C2153 0.959 . S
H2139 C2153 0.961 . S
H2140 C2154 0.960 . S
H2141 C2154 0.961 . S
H2142 C2154 0.959 . S
H2143 C2157 0.929 . S
H2144 C2158 0.931 . S
H2145 C2160 0.930 . S
C2146 H2134 0.930 . S
C2146 C2147 1.399 . S
C2146 C2151 1.399 . S
C2147 C2146 1.399 . S
C2147 C2148 1.376 . S
C2148 H2135 0.930 . S
C2148 C2147 1.376 . S
C2148 C2149 1.388 . S
C2149 H2136 0.930 . S
C2149 C2148 1.388 . S
C2149 C2150 1.390 . S
C2150 C2149 1.390 . S
C2150 C2151 1.394 . S
C2150 C2156 1.465 . S
C2151 C2146 1.399 . S
C2151 C2150 1.394 . S
C2151 C2152 1.516 . S
C2152 C2151 1.516 . S
C2152 C2153 1.502 . S
C2152 C2154 1.561 . S
C2152 C2155 1.526 . S
C2153 H2137 0.959 . S
C2153 H2138 0.959 . S
C2153 H2139 0.961 . S
C2153 C2152 1.502 . S
C2154 H2140 0.960 . S
C2154 H2141 0.961 . S
C2154 H2142 0.959 . S
C2154 C2152 1.561 . S
C2155 C2152 1.526 . S
C2155 C2156 1.396 . S
C2155 C2160 1.390 . S
C2156 C2150 1.465 . S
C2156 C2155 1.396 . S
C2156 C2157 1.399 . S
C2157 H2143 0.929 . S
C2157 C2156 1.399 . S
C2157 C2158 1.385 . S
C2158 H2144 0.931 . S
C2158 C2157 1.385 . S
C2158 C2159 1.389 . S
C2159 C2158 1.389 . S
C2159 C2160 1.387 . S
C2160 H2145 0.930 . S
C2160 C2155 1.390 . S
C2160 C2159 1.387 . S
H2161 C2173 0.930 . S
H2162 C2175 0.930 . S
H2163 C2176 0.930 . S
H2164 C2180 0.959 . S
H2165 C2180 0.959 . S
H2166 C2180 0.961 . S
H2167 C2181 0.960 . S
H2168 C2181 0.961 . S
H2169 C2181 0.959 . S
H2170 C2184 0.929 . S
H2171 C2185 0.931 . S
H2172 C2187 0.930 . S
C2173 H2161 0.930 . S
C2173 C2174 1.399 . S
C2173 C2178 1.399 . S
C2174 C2173 1.399 . S
C2174 C2175 1.376 . S
C2175 H2162 0.930 . S
C2175 C2174 1.376 . S
C2175 C2176 1.388 . S
C2176 H2163 0.930 . S
C2176 C2175 1.388 . S
C2176 C2177 1.390 . S
C2177 C2176 1.390 . S
C2177 C2178 1.394 . S
C2177 C2183 1.465 . S
C2178 C2173 1.399 . S
C2178 C2177 1.394 . S
C2178 C2179 1.516 . S
C2179 C2178 1.516 . S
C2179 C2180 1.502 . S
C2179 C2181 1.561 . S
C2179 C2182 1.526 . S
C2180 H2164 0.959 . S
C2180 H2165 0.959 . S
C2180 H2166 0.961 . S
C2180 C2179 1.502 . S
C2181 H2167 0.960 . S
C2181 H2168 0.961 . S
C2181 H2169 0.959 . S
C2181 C2179 1.561 . S
C2182 C2179 1.526 . S
C2182 C2183 1.396 . S
C2182 C2187 1.390 . S
C2183 C2177 1.465 . S
C2183 C2182 1.396 . S
C2183 C2184 1.399 . S
C2184 H2170 0.929 . S
C2184 C2183 1.399 . S
C2184 C2185 1.385 . S
C2185 H2171 0.931 . S
C2185 C2184 1.385 . S
C2185 C2186 1.389 . S
C2186 C2185 1.389 . S
C2186 C2187 1.387 . S
C2187 H2172 0.930 . S
C2187 C2182 1.390 . S
C2187 C2186 1.387 . S
H2188 C2200 0.930 . S
H2189 C2202 0.930 . S
H2190 C2203 0.930 . S
H2191 C2207 0.959 . S
H2192 C2207 0.959 . S
H2193 C2207 0.961 . S
H2194 C2208 0.960 . S
H2195 C2208 0.961 . S
H2196 C2208 0.959 . S
H2197 C2211 0.929 . S
H2198 C2212 0.931 . S
H2199 C2214 0.930 . S
C2200 H2188 0.930 . S
C2200 C2201 1.399 . S
C2200 C2205 1.399 . S
C2201 C2200 1.399 . S
C2201 C2202 1.376 . S
C2202 H2189 0.930 . S
C2202 C2201 1.376 . S
C2202 C2203 1.388 . S
C2203 H2190 0.930 . S
C2203 C2202 1.388 . S
C2203 C2204 1.390 . S
C2204 C2203 1.390 . S
C2204 C2205 1.394 . S
C2204 C2210 1.465 . S
C2205 C2200 1.399 . S
C2205 C2204 1.394 . S
C2205 C2206 1.516 . S
C2206 C2205 1.516 . S
C2206 C2207 1.502 . S
C2206 C2208 1.561 . S
C2206 C2209 1.526 . S
C2207 H2191 0.959 . S
C2207 H2192 0.959 . S
C2207 H2193 0.961 . S
C2207 C2206 1.502 . S
C2208 H2194 0.960 . S
C2208 H2195 0.961 . S
C2208 H2196 0.959 . S
C2208 C2206 1.561 . S
C2209 C2206 1.526 . S
C2209 C2210 1.396 . S
C2209 C2214 1.390 . S
C2210 C2204 1.465 . S
C2210 C2209 1.396 . S
C2210 C2211 1.399 . S
C2211 H2197 0.929 . S
C2211 C2210 1.399 . S
C2211 C2212 1.385 . S
C2212 H2198 0.931 . S
C2212 C2211 1.385 . S
C2212 C2213 1.389 . S
C2213 C2212 1.389 . S
C2213 C2214 1.387 . S
C2214 H2199 0.930 . S
C2214 C2209 1.390 . S
C2214 C2213 1.387 . S
H2215 C2227 0.930 . S
H2216 C2229 0.930 . S
H2217 C2230 0.930 . S
H2218 C2234 0.959 . S
H2219 C2234 0.959 . S
H2220 C2234 0.961 . S
H2221 C2235 0.960 . S
H2222 C2235 0.961 . S
H2223 C2235 0.959 . S
H2224 C2238 0.929 . S
H2225 C2239 0.931 . S
H2226 C2241 0.930 . S
C2227 H2215 0.930 . S
C2227 C2228 1.399 . S
C2227 C2232 1.399 . S
C2228 C2227 1.399 . S
C2228 C2229 1.376 . S
C2229 H2216 0.930 . S
C2229 C2228 1.376 . S
C2229 C2230 1.388 . S
C2230 H2217 0.930 . S
C2230 C2229 1.388 . S
C2230 C2231 1.390 . S
C2231 C2230 1.390 . S
C2231 C2232 1.394 . S
C2231 C2237 1.465 . S
C2232 C2227 1.399 . S
C2232 C2231 1.394 . S
C2232 C2233 1.516 . S
C2233 C2232 1.516 . S
C2233 C2234 1.502 . S
C2233 C2235 1.561 . S
C2233 C2236 1.526 . S
C2234 H2218 0.959 . S
C2234 H2219 0.959 . S
C2234 H2220 0.961 . S
C2234 C2233 1.502 . S
C2235 H2221 0.960 . S
C2235 H2222 0.961 . S
C2235 H2223 0.959 . S
C2235 C2233 1.561 . S
C2236 C2233 1.526 . S
C2236 C2237 1.396 . S
C2236 C2241 1.390 . S
C2237 C2231 1.465 . S
C2237 C2236 1.396 . S
C2237 C2238 1.399 . S
C2238 H2224 0.929 . S
C2238 C2237 1.399 . S
C2238 C2239 1.385 . S
C2239 H2225 0.931 . S
C2239 C2238 1.385 . S
C2239 C2240 1.389 . S
C2240 C2239 1.389 . S
C2240 C2241 1.387 . S
C2241 H2226 0.930 . S
C2241 C2236 1.390 . S
C2241 C2240 1.387 . S
H2242 C2254 0.930 . S
H2243 C2256 0.930 . S
H2244 C2257 0.930 . S
H2245 C2261 0.959 . S
H2246 C2261 0.959 . S
H2247 C2261 0.961 . S
H2248 C2262 0.960 . S
H2249 C2262 0.961 . S
H2250 C2262 0.959 . S
H2251 C2265 0.929 . S
H2252 C2266 0.931 . S
H2253 C2268 0.930 . S
C2254 H2242 0.930 . S
C2254 C2255 1.399 . S
C2254 C2259 1.399 . S
C2255 C2254 1.399 . S
C2255 C2256 1.376 . S
C2256 H2243 0.930 . S
C2256 C2255 1.376 . S
C2256 C2257 1.388 . S
C2257 H2244 0.930 . S
C2257 C2256 1.388 . S
C2257 C2258 1.390 . S
C2258 C2257 1.390 . S
C2258 C2259 1.394 . S
C2258 C2264 1.465 . S
C2259 C2254 1.399 . S
C2259 C2258 1.394 . S
C2259 C2260 1.516 . S
C2260 C2259 1.516 . S
C2260 C2261 1.502 . S
C2260 C2262 1.561 . S
C2260 C2263 1.526 . S
C2261 H2245 0.959 . S
C2261 H2246 0.959 . S
C2261 H2247 0.961 . S
C2261 C2260 1.502 . S
C2262 H2248 0.960 . S
C2262 H2249 0.961 . S
C2262 H2250 0.959 . S
C2262 C2260 1.561 . S
C2263 C2260 1.526 . S
C2263 C2264 1.396 . S
C2263 C2268 1.390 . S
C2264 C2258 1.465 . S
C2264 C2263 1.396 . S
C2264 C2265 1.399 . S
C2265 H2251 0.929 . S
C2265 C2264 1.399 . S
C2265 C2266 1.385 . S
C2266 H2252 0.931 . S
C2266 C2265 1.385 . S
C2266 C2267 1.389 . S
C2267 C2266 1.389 . S
C2267 C2268 1.387 . S
C2268 H2253 0.930 . S
C2268 C2263 1.390 . S
C2268 C2267 1.387 . S
H2269 C2281 0.930 . S
H2270 C2283 0.930 . S
H2271 C2284 0.930 . S
H2272 C2288 0.959 . S
H2273 C2288 0.959 . S
H2274 C2288 0.961 . S
H2275 C2289 0.960 . S
H2276 C2289 0.961 . S
H2277 C2289 0.959 . S
H2278 C2292 0.929 . S
H2279 C2293 0.931 . S
H2280 C2295 0.930 . S
C2281 H2269 0.930 . S
C2281 C2282 1.399 . S
C2281 C2286 1.399 . S
C2282 C2281 1.399 . S
C2282 C2283 1.376 . S
C2283 H2270 0.930 . S
C2283 C2282 1.376 . S
C2283 C2284 1.388 . S
C2284 H2271 0.930 . S
C2284 C2283 1.388 . S
C2284 C2285 1.390 . S
C2285 C2284 1.390 . S
C2285 C2286 1.394 . S
C2285 C2291 1.465 . S
C2286 C2281 1.399 . S
C2286 C2285 1.394 . S
C2286 C2287 1.516 . S
C2287 C2286 1.516 . S
C2287 C2288 1.502 . S
C2287 C2289 1.561 . S
C2287 C2290 1.526 . S
C2288 H2272 0.959 . S
C2288 H2273 0.959 . S
C2288 H2274 0.961 . S
C2288 C2287 1.502 . S
C2289 H2275 0.960 . S
C2289 H2276 0.961 . S
C2289 H2277 0.959 . S
C2289 C2287 1.561 . S
C2290 C2287 1.526 . S
C2290 C2291 1.396 . S
C2290 C2295 1.390 . S
C2291 C2285 1.465 . S
C2291 C2290 1.396 . S
C2291 C2292 1.399 . S
C2292 H2278 0.929 . S
C2292 C2291 1.399 . S
C2292 C2293 1.385 . S
C2293 H2279 0.931 . S
C2293 C2292 1.385 . S
C2293 C2294 1.389 . S
C2294 C2293 1.389 . S
C2294 C2295 1.387 . S
C2295 H2280 0.930 . S
C2295 C2290 1.390 . S
C2295 C2294 1.387 . S
H2296 C2308 0.930 . S
H2297 C2310 0.930 . S
H2298 C2311 0.930 . S
H2299 C2315 0.959 . S
H2300 C2315 0.959 . S
H2301 C2315 0.961 . S
H2302 C2316 0.960 . S
H2303 C2316 0.961 . S
H2304 C2316 0.959 . S
H2305 C2319 0.929 . S
H2306 C2320 0.931 1_556 S
H2307 C2322 0.930 . S
C2308 H2296 0.930 . S
C2308 C2309 1.399 1_554 S
C2308 C2313 1.399 . S
C2309 C2308 1.399 1_556 S
C2309 C2310 1.376 . S
C2310 H2297 0.930 . S
C2310 C2309 1.376 . S
C2310 C2311 1.388 . S
C2311 H2298 0.930 . S
C2311 C2310 1.388 . S
C2311 C2312 1.390 . S
C2312 C2311 1.390 . S
C2312 C2313 1.394 1_556 S
C2312 C2318 1.465 1_556 S
C2313 C2308 1.399 . S
C2313 C2312 1.394 1_554 S
C2313 C2314 1.516 . S
C2314 C2313 1.516 . S
C2314 C2315 1.502 . S
C2314 C2316 1.561 . S
C2314 C2317 1.526 . S
C2315 H2299 0.959 . S
C2315 H2300 0.959 . S
C2315 H2301 0.961 . S
C2315 C2314 1.502 . S
C2316 H2302 0.960 . S
C2316 H2303 0.961 . S
C2316 H2304 0.959 . S
C2316 C2314 1.561 . S
C2317 C2314 1.526 . S
C2317 C2318 1.396 . S
C2317 C2322 1.390 . S
C2318 C2312 1.465 1_554 S
C2318 C2317 1.396 . S
C2318 C2319 1.399 1_554 S
C2319 H2305 0.929 . S
C2319 C2318 1.399 1_556 S
C2319 C2320 1.385 1_556 S
C2320 H2306 0.931 1_554 S
C2320 C2319 1.385 1_554 S
C2320 C2321 1.389 . S
C2321 C2320 1.389 . S
C2321 C2322 1.387 . S
C2322 H2307 0.930 . S
C2322 C2317 1.390 . S
C2322 C2321 1.387 . S
H2323 C2335 0.930 . S
H2324 C2337 0.930 . S
H2325 C2338 0.930 . S
H2326 C2342 0.959 . S
H2327 C2342 0.959 . S
H2328 C2342 0.961 . S
H2329 C2343 0.960 . S
H2330 C2343 0.961 . S
H2331 C2343 0.959 . S
H2332 C2346 0.929 . S
H2333 C2347 0.931 1_556 S
H2334 C2349 0.930 . S
C2335 H2323 0.930 . S
C2335 C2336 1.399 1_554 S
C2335 C2340 1.399 . S
C2336 C2335 1.399 1_556 S
C2336 C2337 1.376 . S
C2337 H2324 0.930 . S
C2337 C2336 1.376 . S
C2337 C2338 1.388 . S
C2338 H2325 0.930 . S
C2338 C2337 1.388 . S
C2338 C2339 1.390 . S
C2339 C2338 1.390 . S
C2339 C2340 1.394 1_556 S
C2339 C2345 1.465 1_556 S
C2340 C2335 1.399 . S
C2340 C2339 1.394 1_554 S
C2340 C2341 1.516 . S
C2341 C2340 1.516 . S
C2341 C2342 1.502 . S
C2341 C2343 1.561 . S
C2341 C2344 1.526 . S
C2342 H2326 0.959 . S
C2342 H2327 0.959 . S
C2342 H2328 0.961 . S
C2342 C2341 1.502 . S
C2343 H2329 0.960 . S
C2343 H2330 0.961 . S
C2343 H2331 0.959 . S
C2343 C2341 1.561 . S
C2344 C2341 1.526 . S
C2344 C2345 1.396 . S
C2344 C2349 1.390 . S
C2345 C2339 1.465 1_554 S
C2345 C2344 1.396 . S
C2345 C2346 1.399 1_554 S
C2346 H2332 0.929 . S
C2346 C2345 1.399 1_556 S
C2346 C2347 1.385 1_556 S
C2347 H2333 0.931 1_554 S
C2347 C2346 1.385 1_554 S
C2347 C2348 1.389 . S
C2348 C2347 1.389 . S
C2348 C2349 1.387 . S
C2349 H2334 0.930 . S
C2349 C2344 1.390 . S
C2349 C2348 1.387 . S
H2350 C2362 0.930 . S
H2351 C2364 0.930 . S
H2352 C2365 0.930 . S
H2353 C2369 0.959 . S
H2354 C2369 0.959 . S
H2355 C2369 0.961 . S
H2356 C2370 0.960 . S
H2357 C2370 0.961 . S
H2358 C2370 0.959 . S
H2359 C2373 0.929 . S
H2360 C2374 0.931 . S
H2361 C2376 0.930 . S
C2362 H2350 0.930 . S
C2362 C2363 1.399 . S
C2362 C2367 1.399 . S
C2363 C2362 1.399 . S
C2363 C2364 1.376 . S
C2364 H2351 0.930 . S
C2364 C2363 1.376 . S
C2364 C2365 1.388 . S
C2365 H2352 0.930 . S
C2365 C2364 1.388 . S
C2365 C2366 1.390 . S
C2366 C2365 1.390 . S
C2366 C2367 1.394 . S
C2366 C2372 1.465 . S
C2367 C2362 1.399 . S
C2367 C2366 1.394 . S
C2367 C2368 1.516 . S
C2368 C2367 1.516 . S
C2368 C2369 1.502 . S
C2368 C2370 1.561 . S
C2368 C2371 1.526 . S
C2369 H2353 0.959 . S
C2369 H2354 0.959 . S
C2369 H2355 0.961 . S
C2369 C2368 1.502 . S
C2370 H2356 0.960 . S
C2370 H2357 0.961 . S
C2370 H2358 0.959 . S
C2370 C2368 1.561 . S
C2371 C2368 1.526 . S
C2371 C2372 1.396 . S
C2371 C2376 1.390 . S
C2372 C2366 1.465 . S
C2372 C2371 1.396 . S
C2372 C2373 1.399 . S
C2373 H2359 0.929 . S
C2373 C2372 1.399 . S
C2373 C2374 1.385 . S
C2374 H2360 0.931 . S
C2374 C2373 1.385 . S
C2374 C2375 1.389 . S
C2375 C2374 1.389 . S
C2375 C2376 1.387 . S
C2376 H2361 0.930 . S
C2376 C2371 1.390 . S
C2376 C2375 1.387 . S
H2377 C2389 0.930 . S
H2378 C2391 0.930 . S
H2379 C2392 0.930 . S
H2380 C2396 0.959 . S
H2381 C2396 0.959 . S
H2382 C2396 0.961 . S
H2383 C2397 0.960 . S
H2384 C2397 0.961 . S
H2385 C2397 0.959 . S
H2386 C2400 0.929 1_545 S
H2387 C2401 0.931 . S
H2388 C2403 0.930 . S
C2389 H2377 0.930 . S
C2389 C2390 1.399 . S
C2389 C2394 1.399 . S
C2390 C2389 1.399 . S
C2390 C2391 1.376 . S
C2391 H2378 0.930 . S
C2391 C2390 1.376 . S
C2391 C2392 1.388 . S
C2392 H2379 0.930 . S
C2392 C2391 1.388 . S
C2392 C2393 1.390 . S
C2393 C2392 1.390 . S
C2393 C2394 1.394 . S
C2393 C2399 1.465 . S
C2394 C2389 1.399 . S
C2394 C2393 1.394 . S
C2394 C2395 1.516 . S
C2395 C2394 1.516 . S
C2395 C2396 1.502 . S
C2395 C2397 1.561 . S
C2395 C2398 1.526 . S
C2396 H2380 0.959 . S
C2396 H2381 0.959 . S
C2396 H2382 0.961 . S
C2396 C2395 1.502 . S
C2397 H2383 0.960 . S
C2397 H2384 0.961 . S
C2397 H2385 0.959 . S
C2397 C2395 1.561 . S
C2398 C2395 1.526 . S
C2398 C2399 1.396 . S
C2398 C2403 1.390 . S
C2399 C2393 1.465 . S
C2399 C2398 1.396 . S
C2399 C2400 1.399 . S
C2400 H2386 0.929 1_565 S
C2400 C2399 1.399 . S
C2400 C2401 1.385 1_565 S
C2401 H2387 0.931 . S
C2401 C2400 1.385 1_545 S
C2401 C2402 1.389 1_545 S
C2402 C2401 1.389 1_565 S
C2402 C2403 1.387 . S
C2403 H2388 0.930 . S
C2403 C2398 1.390 . S
C2403 C2402 1.387 . S
H2404 C2416 0.930 . S
H2405 C2418 0.932 . S
H2406 C2419 0.930 . S
H2407 C2423 0.959 . S
H2408 C2423 0.959 . S
H2409 C2423 0.961 . S
H2410 C2424 0.960 . S
H2411 C2424 0.961 . S
H2412 C2424 0.959 . S
H2413 C2427 0.929 . S
H2414 C2428 0.931 1_565 S
H2415 C2430 0.930 . S
C2416 H2404 0.930 . S
C2416 C2417 1.399 . S
C2416 C2421 1.399 . S
C2417 C2416 1.399 . S
C2417 C2418 1.376 . S
C2418 H2405 0.932 . S
C2418 C2417 1.376 . S
C2418 C2419 1.388 1_556 S
C2419 H2406 0.930 . S
C2419 C2418 1.388 1_554 S
C2419 C2420 1.390 1_554 S
C2420 C2419 1.390 1_556 S
C2420 C2421 1.394 . S
C2420 C2426 1.465 . S
C2421 C2416 1.399 . S
C2421 C2420 1.394 . S
C2421 C2422 1.516 . S
C2422 C2421 1.516 . S
C2422 C2423 1.502 . S
C2422 C2424 1.561 . S
C2422 C2425 1.526 . S
C2423 H2407 0.959 . S
C2423 H2408 0.959 . S
C2423 H2409 0.961 . S
C2423 C2422 1.502 . S
C2424 H2410 0.960 . S
C2424 H2411 0.961 . S
C2424 H2412 0.959 . S
C2424 C2422 1.561 . S
C2425 C2422 1.526 . S
C2425 C2426 1.396 . S
C2425 C2430 1.390 . S
C2426 C2420 1.465 . S
C2426 C2425 1.396 . S
C2426 C2427 1.399 1_556 S
C2427 H2413 0.929 . S
C2427 C2426 1.399 1_554 S
C2427 C2428 1.385 . S
C2428 H2414 0.931 1_545 S
C2428 C2427 1.385 . S
C2428 C2429 1.389 . S
C2429 C2428 1.389 . S
C2429 C2430 1.387 1_554 S
C2430 H2415 0.930 . S
C2430 C2425 1.390 . S
C2430 C2429 1.387 1_556 S
H2431 C2443 0.930 . S
H2432 C2445 0.930 . S
H2433 C2446 0.930 . S
H2434 C2450 0.959 . S
H2435 C2450 0.959 . S
H2436 C2450 0.961 . S
H2437 C2451 0.960 . S
H2438 C2451 0.961 . S
H2439 C2451 0.959 . S
H2440 C2454 0.929 . S
H2441 C2455 0.934 . S
H2442 C2457 0.930 1_554 S
C2443 H2431 0.930 . S
C2443 C2444 1.399 . S
C2443 C2448 1.399 . S
C2444 C2443 1.399 . S
C2444 C2445 1.376 . S
C2445 H2432 0.930 . S
C2445 C2444 1.376 . S
C2445 C2446 1.388 . S
C2446 H2433 0.930 . S
C2446 C2445 1.388 . S
C2446 C2447 1.390 . S
C2447 C2446 1.390 . S
C2447 C2448 1.394 . S
C2447 C2453 1.465 . S
C2448 C2443 1.399 . S
C2448 C2447 1.394 . S
C2448 C2449 1.516 . S
C2449 C2448 1.516 . S
C2449 C2450 1.502 . S
C2449 C2451 1.561 1_556 S
C2449 C2452 1.526 . S
C2450 H2434 0.959 . S
C2450 H2435 0.959 . S
C2450 H2436 0.961 . S
C2450 C2449 1.502 . S
C2451 H2437 0.960 . S
C2451 H2438 0.961 . S
C2451 H2439 0.959 . S
C2451 C2449 1.561 1_554 S
C2452 C2449 1.526 . S
C2452 C2453 1.396 . S
C2452 C2457 1.390 . S
C2453 C2447 1.465 . S
C2453 C2452 1.396 . S
C2453 C2454 1.399 . S
C2454 H2440 0.929 . S
C2454 C2453 1.399 . S
C2454 C2455 1.380 1_556 S
C2455 H2441 0.934 . S
C2455 C2454 1.380 1_554 S
C2455 C2456 1.392 . S
C2456 C2455 1.392 . S
C2456 C2457 1.386 1_554 S
C2457 H2442 0.930 1_556 S
C2457 C2452 1.390 . S
C2457 C2456 1.386 1_556 S
H2458 C2470 0.930 . S
H2459 C2472 0.930 . S
H2460 C2473 0.930 . S
H2461 C2477 0.959 . S
H2462 C2477 0.959 . S
H2463 C2477 0.961 . S
H2464 C2478 0.960 . S
H2465 C2478 0.961 . S
H2466 C2478 0.959 . S
H2467 C2481 0.929 . S
H2468 C2482 0.931 . S
H2469 C2484 0.930 . S
C2470 H2458 0.930 . S
C2470 C2471 1.399 . S
C2470 C2475 1.399 . S
C2471 C2470 1.399 . S
C2471 C2472 1.376 . S
C2472 H2459 0.930 . S
C2472 C2471 1.376 . S
C2472 C2473 1.388 . S
C2473 H2460 0.930 . S
C2473 C2472 1.388 . S
C2473 C2474 1.390 . S
C2474 C2473 1.390 . S
C2474 C2475 1.394 . S
C2474 C2480 1.465 . S
C2475 C2470 1.399 . S
C2475 C2474 1.394 . S
C2475 C2476 1.516 . S
C2476 C2475 1.516 . S
C2476 C2477 1.502 . S
C2476 C2478 1.561 . S
C2476 C2479 1.526 . S
C2477 H2461 0.959 . S
C2477 H2462 0.959 . S
C2477 H2463 0.961 . S
C2477 C2476 1.502 . S
C2478 H2464 0.960 . S
C2478 H2465 0.961 . S
C2478 H2466 0.959 . S
C2478 C2476 1.561 . S
C2479 C2476 1.526 . S
C2479 C2480 1.396 . S
C2479 C2484 1.390 . S
C2480 C2474 1.465 . S
C2480 C2479 1.396 . S
C2480 C2481 1.399 . S
C2481 H2467 0.929 . S
C2481 C2480 1.399 . S
C2481 C2482 1.385 . S
C2482 H2468 0.931 . S
C2482 C2481 1.385 . S
C2482 C2483 1.389 . S
C2483 C2482 1.389 . S
C2483 C2484 1.387 . S
C2484 H2469 0.930 . S
C2484 C2479 1.390 . S
C2484 C2483 1.387 . S
H2485 C2497 0.930 . S
H2486 C2499 0.930 . S
H2487 C2500 0.930 . S
H2488 C2504 0.959 . S
H2489 C2504 0.959 . S
H2490 C2504 0.961 . S
H2491 C2505 0.960 . S
H2492 C2505 0.961 . S
H2493 C2505 0.959 . S
H2494 C2508 0.929 . S
H2495 C2509 0.931 . S
H2496 C2511 0.930 . S
C2497 H2485 0.930 . S
C2497 C2498 1.399 . S
C2497 C2502 1.399 . S
C2498 C2497 1.399 . S
C2498 C2499 1.376 . S
C2499 H2486 0.930 . S
C2499 C2498 1.376 . S
C2499 C2500 1.388 . S
C2500 H2487 0.930 . S
C2500 C2499 1.388 . S
C2500 C2501 1.390 . S
C2501 C2500 1.390 . S
C2501 C2502 1.394 . S
C2501 C2507 1.465 . S
C2502 C2497 1.399 . S
C2502 C2501 1.394 . S
C2502 C2503 1.516 . S
C2503 C2502 1.516 . S
C2503 C2504 1.502 . S
C2503 C2505 1.561 . S
C2503 C2506 1.526 . S
C2504 H2488 0.959 . S
C2504 H2489 0.959 . S
C2504 H2490 0.961 . S
C2504 C2503 1.502 . S
C2505 H2491 0.960 . S
C2505 H2492 0.961 . S
C2505 H2493 0.959 . S
C2505 C2503 1.561 . S
C2506 C2503 1.526 . S
C2506 C2507 1.396 . S
C2506 C2511 1.390 . S
C2507 C2501 1.465 . S
C2507 C2506 1.396 . S
C2507 C2508 1.399 . S
C2508 H2494 0.929 . S
C2508 C2507 1.399 . S
C2508 C2509 1.385 . S
C2509 H2495 0.931 . S
C2509 C2508 1.385 . S
C2509 C2510 1.389 . S
C2510 C2509 1.389 . S
C2510 C2511 1.387 . S
C2511 H2496 0.930 . S
C2511 C2506 1.390 . S
C2511 C2510 1.387 . S
H2512 C2524 0.930 . S
H2513 C2526 0.927 1_455 S
H2514 C2527 0.930 . S
H2515 C2531 0.959 . S
H2516 C2531 0.959 . S
H2517 C2531 0.961 . S
H2518 C2532 0.960 . S
H2519 C2532 0.961 . S
H2520 C2532 0.959 . S
H2521 C2535 0.929 . S
H2522 C2536 0.931 . S
H2523 C2538 0.930 . S
C2524 H2512 0.930 . S
C2524 C2525 1.399 . S
C2524 C2529 1.399 . S
C2525 C2524 1.399 . S
C2525 C2526 1.384 . S
C2526 H2513 0.927 1_655 S
C2526 C2525 1.384 . S
C2526 C2527 1.385 1_655 S
C2527 H2514 0.930 . S
C2527 C2526 1.385 1_455 S
C2527 C2528 1.383 1_455 S
C2528 C2527 1.383 1_655 S
C2528 C2529 1.408 . S
C2528 C2534 1.461 1_655 S
C2529 C2524 1.399 . S
C2529 C2528 1.408 . S
C2529 C2530 1.516 . S
C2530 C2529 1.516 . S
C2530 C2531 1.502 . S
C2530 C2532 1.561 1_655 S
C2530 C2533 1.526 . S
C2531 H2515 0.959 . S
C2531 H2516 0.959 . S
C2531 H2517 0.961 . S
C2531 C2530 1.502 . S
C2532 H2518 0.960 . S
C2532 H2519 0.961 . S
C2532 H2520 0.959 . S
C2532 C2530 1.561 1_455 S
C2533 C2530 1.526 . S
C2533 C2534 1.382 1_655 S
C2533 C2538 1.390 . S
C2534 C2528 1.461 1_455 S
C2534 C2533 1.382 1_455 S
C2534 C2535 1.416 . S
C2535 H2521 0.929 . S
C2535 C2534 1.416 . S
C2535 C2536 1.385 . S
C2536 H2522 0.931 . S
C2536 C2535 1.385 . S
C2536 C2537 1.396 . S
C2537 C2536 1.396 . S
C2537 C2538 1.381 1_455 S
C2538 H2523 0.930 . S
C2538 C2533 1.390 . S
C2538 C2537 1.381 1_655 S
H2539 C2551 0.930 1_565 S
H2540 C2553 0.930 . S
H2541 C2554 0.930 . S
H2542 C2558 0.959 . S
H2543 C2558 0.959 . S
H2544 C2558 0.961 . S
H2545 C2559 0.960 . S
H2546 C2559 0.961 . S
H2547 C2559 0.959 . S
H2548 C2562 0.929 . S
H2549 C2563 0.931 . S
H2550 C2565 0.930 . S
C2551 H2539 0.930 1_545 S
C2551 C2552 1.399 1_545 S
C2551 C2556 1.399 . S
C2552 C2551 1.399 1_565 S
C2552 C2553 1.376 1_565 S
C2553 H2540 0.930 . S
C2553 C2552 1.376 1_545 S
C2553 C2554 1.388 . S
C2554 H2541 0.930 . S
C2554 C2553 1.388 . S
C2554 C2555 1.390 . S
C2555 C2554 1.390 . S
C2555 C2556 1.394 . S
C2555 C2561 1.465 . S
C2556 C2551 1.399 . S
C2556 C2555 1.394 . S
C2556 C2557 1.516 . S
C2557 C2556 1.516 . S
C2557 C2558 1.502 . S
C2557 C2559 1.561 . S
C2557 C2560 1.526 . S
C2558 H2542 0.959 . S
C2558 H2543 0.959 . S
C2558 H2544 0.961 . S
C2558 C2557 1.502 . S
C2559 H2545 0.960 . S
C2559 H2546 0.961 . S
C2559 H2547 0.959 . S
C2559 C2557 1.561 . S
C2560 C2557 1.526 . S
C2560 C2561 1.396 . S
C2560 C2565 1.390 . S
C2561 C2555 1.465 . S
C2561 C2560 1.396 . S
C2561 C2562 1.399 . S
C2562 H2548 0.929 . S
C2562 C2561 1.399 . S
C2562 C2563 1.385 . S
C2563 H2549 0.931 . S
C2563 C2562 1.385 . S
C2563 C2564 1.389 . S
C2564 C2563 1.389 . S
C2564 C2565 1.387 . S
C2565 H2550 0.930 . S
C2565 C2560 1.390 . S
C2565 C2564 1.387 . S
H2566 C2578 0.930 . S
H2567 C2580 0.930 . S
H2568 C2581 0.930 . S
H2569 C2585 0.959 . S
H2570 C2585 0.959 . S
H2571 C2585 0.961 . S
H2572 C2586 0.960 . S
H2573 C2586 0.961 . S
H2574 C2586 0.959 . S
H2575 C2589 0.929 . S
H2576 C2590 0.931 . S
H2577 C2592 0.930 . S
C2578 H2566 0.930 . S
C2578 C2579 1.399 . S
C2578 C2583 1.399 . S
C2579 C2578 1.399 . S
C2579 C2580 1.376 1_655 S
C2580 H2567 0.930 . S
C2580 C2579 1.376 1_455 S
C2580 C2581 1.388 . S
C2581 H2568 0.930 . S
C2581 C2580 1.388 . S
C2581 C2582 1.390 . S
C2582 C2581 1.390 . S
C2582 C2583 1.394 1_455 S
C2582 C2588 1.465 . S
C2583 C2578 1.399 . S
C2583 C2582 1.394 1_655 S
C2583 C2584 1.516 . S
C2584 C2583 1.516 . S
C2584 C2585 1.502 . S
C2584 C2586 1.561 . S
C2584 C2587 1.526 . S
C2585 H2569 0.959 . S
C2585 H2570 0.959 . S
C2585 H2571 0.961 . S
C2585 C2584 1.502 . S
C2586 H2572 0.960 . S
C2586 H2573 0.961 . S
C2586 H2574 0.959 . S
C2586 C2584 1.561 . S
C2587 C2584 1.526 . S
C2587 C2588 1.396 1_655 S
C2587 C2592 1.390 . S
C2588 C2582 1.465 . S
C2588 C2587 1.396 1_455 S
C2588 C2589 1.399 . S
C2589 H2575 0.929 . S
C2589 C2588 1.399 . S
C2589 C2590 1.385 1_545 S
C2590 H2576 0.931 . S
C2590 C2589 1.385 1_565 S
C2590 C2591 1.389 . S
C2591 C2590 1.389 . S
C2591 C2592 1.387 1_465 S
C2592 H2577 0.930 . S
C2592 C2587 1.390 . S
C2592 C2591 1.387 1_645 S
H2593 C2605 0.930 . S
H2594 C2607 0.930 . S
H2595 C2608 0.930 . S
H2596 C2612 0.959 . S
H2597 C2612 0.959 . S
H2598 C2612 0.961 . S
H2599 C2613 0.960 . S
H2600 C2613 0.961 . S
H2601 C2613 0.959 . S
H2602 C2616 0.929 . S
H2603 C2617 0.931 . S
H2604 C2619 0.930 . S
C2605 H2593 0.930 . S
C2605 C2606 1.399 . S
C2605 C2610 1.399 . S
C2606 C2605 1.399 . S
C2606 C2607 1.376 . S
C2607 H2594 0.930 . S
C2607 C2606 1.376 . S
C2607 C2608 1.388 . S
C2608 H2595 0.930 . S
C2608 C2607 1.388 . S
C2608 C2609 1.390 . S
C2609 C2608 1.390 . S
C2609 C2610 1.394 . S
C2609 C2615 1.465 . S
C2610 C2605 1.399 . S
C2610 C2609 1.394 . S
C2610 C2611 1.516 . S
C2611 C2610 1.516 . S
C2611 C2612 1.502 . S
C2611 C2613 1.561 . S
C2611 C2614 1.526 . S
C2612 H2596 0.959 . S
C2612 H2597 0.959 . S
C2612 H2598 0.961 . S
C2612 C2611 1.502 . S
C2613 H2599 0.960 . S
C2613 H2600 0.961 . S
C2613 H2601 0.959 . S
C2613 C2611 1.561 . S
C2614 C2611 1.526 . S
C2614 C2615 1.396 . S
C2614 C2619 1.390 . S
C2615 C2609 1.465 . S
C2615 C2614 1.396 . S
C2615 C2616 1.399 . S
C2616 H2602 0.929 . S
C2616 C2615 1.399 . S
C2616 C2617 1.385 . S
C2617 H2603 0.931 . S
C2617 C2616 1.385 . S
C2617 C2618 1.389 . S
C2618 C2617 1.389 . S
C2618 C2619 1.387 . S
C2619 H2604 0.930 . S
C2619 C2614 1.390 . S
C2619 C2618 1.387 . S
H2620 C2632 0.930 . S
H2621 C2634 0.930 . S
H2622 C2635 0.930 . S
H2623 C2639 0.959 . S
H2624 C2639 0.959 . S
H2625 C2639 0.961 . S
H2626 C2640 0.960 . S
H2627 C2640 0.961 . S
H2628 C2640 0.959 . S
H2629 C2643 0.929 . S
H2630 C2644 0.931 . S
H2631 C2646 0.930 . S
C2632 H2620 0.930 . S
C2632 C2633 1.399 . S
C2632 C2637 1.399 . S
C2633 C2632 1.399 . S
C2633 C2634 1.376 1_455 S
C2634 H2621 0.930 . S
C2634 C2633 1.376 1_655 S
C2634 C2635 1.388 . S
C2635 H2622 0.930 . S
C2635 C2634 1.388 . S
C2635 C2636 1.390 . S
C2636 C2635 1.390 . S
C2636 C2637 1.394 1_655 S
C2636 C2642 1.465 . S
C2637 C2632 1.399 . S
C2637 C2636 1.394 1_455 S
C2637 C2638 1.516 . S
C2638 C2637 1.516 . S
C2638 C2639 1.502 . S
C2638 C2640 1.561 . S
C2638 C2641 1.526 . S
C2639 H2623 0.959 . S
C2639 H2624 0.959 . S
C2639 H2625 0.961 . S
C2639 C2638 1.502 . S
C2640 H2626 0.960 . S
C2640 H2627 0.961 . S
C2640 H2628 0.959 . S
C2640 C2638 1.561 . S
C2641 C2638 1.526 . S
C2641 C2642 1.396 1_455 S
C2641 C2646 1.390 . S
C2642 C2636 1.465 . S
C2642 C2641 1.396 1_655 S
C2642 C2643 1.399 . S
C2643 H2629 0.929 . S
C2643 C2642 1.399 . S
C2643 C2644 1.385 . S
C2644 H2630 0.931 . S
C2644 C2643 1.385 . S
C2644 C2645 1.389 . S
C2645 C2644 1.389 . S
C2645 C2646 1.387 1_655 S
C2646 H2631 0.930 . S
C2646 C2641 1.390 . S
C2646 C2645 1.387 1_455 S
H2647 C2659 0.961 . S
H2648 C2661 0.930 . S
H2649 C2662 0.930 . S
H2650 C2666 0.959 . S
H2651 C2666 0.959 . S
H2652 C2666 0.961 1_545 S
H2653 C2667 0.960 . S
H2654 C2667 0.961 . S
H2655 C2667 0.959 . S
H2656 C2670 0.929 . S
H2657 C2671 0.931 . S
H2658 C2673 0.930 . S
C2659 H2647 0.961 . S
C2659 C2660 1.401 . S
C2659 C2664 1.366 1_545 S
C2660 C2659 1.401 . S
C2660 C2661 1.376 1_545 S
C2661 H2648 0.930 . S
C2661 C2660 1.376 1_565 S
C2661 C2662 1.388 . S
C2662 H2649 0.930 . S
C2662 C2661 1.388 . S
C2662 C2663 1.390 . S
C2663 C2662 1.390 . S
C2663 C2664 1.394 . S
C2663 C2669 1.465 . S
C2664 C2659 1.366 1_565 S
C2664 C2663 1.394 . S
C2664 C2665 1.516 . S
C2665 C2664 1.516 . S
C2665 C2666 1.502 . S
C2665 C2667 1.561 . S
C2665 C2668 1.526 . S
C2666 H2650 0.959 . S
C2666 H2651 0.959 . S
C2666 H2652 0.961 1_565 S
C2666 C2665 1.502 . S
C2667 H2653 0.960 . S
C2667 H2654 0.961 . S
C2667 H2655 0.959 . S
C2667 C2665 1.561 . S
C2668 C2665 1.526 . S
C2668 C2669 1.396 . S
C2668 C2673 1.390 . S
C2669 C2663 1.465 . S
C2669 C2668 1.396 . S
C2669 C2670 1.399 . S
C2670 H2656 0.929 . S
C2670 C2669 1.399 . S
C2670 C2671 1.385 . S
C2671 H2657 0.931 . S
C2671 C2670 1.385 . S
C2671 C2672 1.389 . S
C2672 C2671 1.389 . S
C2672 C2673 1.387 . S
C2673 H2658 0.930 . S
C2673 C2668 1.390 . S
C2673 C2672 1.387 . S
H2674 C2686 0.930 . S
H2675 C2688 0.930 . S
H2676 C2689 0.930 . S
H2677 C2693 0.959 . S
H2678 C2693 0.959 1_545 S
H2679 C2693 0.961 . S
H2680 C2694 0.960 . S
H2681 C2694 0.976 . S
H2682 C2694 0.959 . S
H2683 C2697 0.929 1_655 S
H2684 C2698 0.929 . S
H2685 C2700 0.930 . S
C2686 H2674 0.930 . S
C2686 C2687 1.399 . S
C2686 C2691 1.399 . S
C2687 C2686 1.399 . S
C2687 C2688 1.376 . S
C2688 H2675 0.930 . S
C2688 C2687 1.376 . S
C2688 C2689 1.388 . S
C2689 H2676 0.930 . S
C2689 C2688 1.388 . S
C2689 C2690 1.390 . S
C2690 C2689 1.390 . S
C2690 C2691 1.394 . S
C2690 C2696 1.465 . S
C2691 C2686 1.399 . S
C2691 C2690 1.394 . S
C2691 C2692 1.516 . S
C2692 C2691 1.516 . S
C2692 C2693 1.502 . S
C2692 C2694 1.561 1_455 S
C2692 C2695 1.526 . S
C2693 H2677 0.959 . S
C2693 H2678 0.959 1_565 S
C2693 H2679 0.961 . S
C2693 C2692 1.502 . S
C2694 H2680 0.960 . S
C2694 H2681 0.976 . S
C2694 H2682 0.959 . S
C2694 C2692 1.561 1_655 S
C2695 C2692 1.526 . S
C2695 C2696 1.396 . S
C2695 C2700 1.394 1_565 S
C2696 C2690 1.465 . S
C2696 C2695 1.396 . S
C2696 C2697 1.401 . S
C2697 H2683 0.929 1_455 S
C2697 C2696 1.401 . S
C2697 C2698 1.384 1_455 S
C2698 H2684 0.929 . S
C2698 C2697 1.384 1_655 S
C2698 C2699 1.389 1_665 S
C2699 C2698 1.389 1_445 S
C2699 C2700 1.385 . S
C2700 H2685 0.930 . S
C2700 C2695 1.394 1_545 S
C2700 C2699 1.385 . S
H2701 C2713 0.930 . S
H2702 C2715 0.930 . S
H2703 C2716 0.930 . S
H2704 C2720 0.959 . S
H2705 C2720 0.959 . S
H2706 C2720 0.961 . S
H2707 C2721 0.960 . S
H2708 C2721 0.961 . S
H2709 C2721 0.959 . S
H2710 C2724 0.929 . S
H2711 C2725 0.931 . S
H2712 C2727 0.930 . S
C2713 H2701 0.930 . S
C2713 C2714 1.399 . S
C2713 C2718 1.399 . S
C2714 C2713 1.399 . S
C2714 C2715 1.376 . S
C2715 H2702 0.930 . S
C2715 C2714 1.376 . S
C2715 C2716 1.388 . S
C2716 H2703 0.930 . S
C2716 C2715 1.388 . S
C2716 C2717 1.390 . S
C2717 C2716 1.390 . S
C2717 C2718 1.394 . S
C2717 C2723 1.465 . S
C2718 C2713 1.399 . S
C2718 C2717 1.394 . S
C2718 C2719 1.516 . S
C2719 C2718 1.516 . S
C2719 C2720 1.502 . S
C2719 C2721 1.561 . S
C2719 C2722 1.526 . S
C2720 H2704 0.959 . S
C2720 H2705 0.959 . S
C2720 H2706 0.961 . S
C2720 C2719 1.502 . S
C2721 H2707 0.960 . S
C2721 H2708 0.961 . S
C2721 H2709 0.959 . S
C2721 C2719 1.561 . S
C2722 C2719 1.526 . S
C2722 C2723 1.396 . S
C2722 C2727 1.390 . S
C2723 C2717 1.465 . S
C2723 C2722 1.396 . S
C2723 C2724 1.399 . S
C2724 H2710 0.929 . S
C2724 C2723 1.399 . S
C2724 C2725 1.385 . S
C2725 H2711 0.931 . S
C2725 C2724 1.385 . S
C2725 C2726 1.389 . S
C2726 C2725 1.389 . S
C2726 C2727 1.387 . S
C2727 H2712 0.930 . S
C2727 C2722 1.390 . S
C2727 C2726 1.387 . S
H2728 C2740 0.930 . S
H2729 C2742 0.930 . S
H2730 C2743 0.930 . S
H2731 C2747 0.959 1_455 S
H2732 C2747 0.959 . S
H2733 C2747 0.961 . S
H2734 C2748 0.960 . S
H2735 C2748 0.961 . S
H2736 C2748 0.959 . S
H2737 C2751 0.913 1_455 S
H2738 C2752 0.938 . S
H2739 C2754 0.930 . S
C2740 H2728 0.930 . S
C2740 C2741 1.411 . S
C2740 C2745 1.399 . S
C2741 C2740 1.411 . S
C2741 C2742 1.368 1_655 S
C2742 H2729 0.930 . S
C2742 C2741 1.368 1_455 S
C2742 C2743 1.388 . S
C2743 H2730 0.930 . S
C2743 C2742 1.388 . S
C2743 C2744 1.390 1_455 S
C2744 C2743 1.390 1_655 S
C2744 C2745 1.394 . S
C2744 C2750 1.465 . S
C2745 C2740 1.399 . S
C2745 C2744 1.394 . S
C2745 C2746 1.516 . S
C2746 C2745 1.516 . S
C2746 C2747 1.502 . S
C2746 C2748 1.561 . S
C2746 C2749 1.526 . S
C2747 H2731 0.959 1_655 S
C2747 H2732 0.959 . S
C2747 H2733 0.961 . S
C2747 C2746 1.502 . S
C2748 H2734 0.960 . S
C2748 H2735 0.961 . S
C2748 H2736 0.959 . S
C2748 C2746 1.561 . S
C2749 C2746 1.526 . S
C2749 C2750 1.396 . S
C2749 C2754 1.390 . S
C2750 C2744 1.465 . S
C2750 C2749 1.396 . S
C2750 C2751 1.412 . S
C2751 H2737 0.913 1_655 S
C2751 C2750 1.412 . S
C2751 C2752 1.394 . S
C2752 H2738 0.938 . S
C2752 C2751 1.394 . S
C2752 C2753 1.389 . S
C2753 C2752 1.389 . S
C2753 C2754 1.387 . S
C2754 H2739 0.930 . S
C2754 C2749 1.390 . S
C2754 C2753 1.387 . S
H2755 C2767 0.930 . S
H2756 C2769 0.930 . S
H2757 C2770 0.930 . S
H2758 C2774 0.959 . S
H2759 C2774 0.959 . S
H2760 C2774 0.961 . S
H2761 C2775 0.960 . S
H2762 C2775 0.961 . S
H2763 C2775 0.959 . S
H2764 C2778 0.929 . S
H2765 C2779 0.931 . S
H2766 C2781 0.930 . S
C2767 H2755 0.930 . S
C2767 C2768 1.399 . S
C2767 C2772 1.399 . S
C2768 C2767 1.399 . S
C2768 C2769 1.376 . S
C2769 H2756 0.930 . S
C2769 C2768 1.376 . S
C2769 C2770 1.388 . S
C2770 H2757 0.930 . S
C2770 C2769 1.388 . S
C2770 C2771 1.390 . S
C2771 C2770 1.390 . S
C2771 C2772 1.394 . S
C2771 C2777 1.465 . S
C2772 C2767 1.399 . S
C2772 C2771 1.394 . S
C2772 C2773 1.516 . S
C2773 C2772 1.516 . S
C2773 C2774 1.502 . S
C2773 C2775 1.561 . S
C2773 C2776 1.526 . S
C2774 H2758 0.959 . S
C2774 H2759 0.959 . S
C2774 H2760 0.961 . S
C2774 C2773 1.502 . S
C2775 H2761 0.960 . S
C2775 H2762 0.961 . S
C2775 H2763 0.959 . S
C2775 C2773 1.561 . S
C2776 C2773 1.526 . S
C2776 C2777 1.396 . S
C2776 C2781 1.390 . S
C2777 C2771 1.465 . S
C2777 C2776 1.396 . S
C2777 C2778 1.399 . S
C2778 H2764 0.929 . S
C2778 C2777 1.399 . S
C2778 C2779 1.385 . S
C2779 H2765 0.931 . S
C2779 C2778 1.385 . S
C2779 C2780 1.389 . S
C2780 C2779 1.389 . S
C2780 C2781 1.387 . S
C2781 H2766 0.930 . S
C2781 C2776 1.390 . S
C2781 C2780 1.387 . S
H2782 C2794 0.930 . S
H2783 C2796 0.930 . S
H2784 C2797 0.930 . S
H2785 C2801 0.959 . S
H2786 C2801 0.959 . S
H2787 C2801 0.961 . S
H2788 C2802 0.960 . S
H2789 C2802 0.961 . S
H2790 C2802 0.959 . S
H2791 C2805 0.929 . S
H2792 C2806 0.931 . S
H2793 C2808 0.930 . S
C2794 H2782 0.930 . S
C2794 C2795 1.399 1_655 S
C2794 C2799 1.399 . S
C2795 C2794 1.399 1_455 S
C2795 C2796 1.376 . S
C2796 H2783 0.930 . S
C2796 C2795 1.376 . S
C2796 C2797 1.388 . S
C2797 H2784 0.930 . S
C2797 C2796 1.388 . S
C2797 C2798 1.390 . S
C2798 C2797 1.390 . S
C2798 C2799 1.394 1_455 S
C2798 C2804 1.465 . S
C2799 C2794 1.399 . S
C2799 C2798 1.394 1_655 S
C2799 C2800 1.516 . S
C2800 C2799 1.516 . S
C2800 C2801 1.502 . S
C2800 C2802 1.561 . S
C2800 C2803 1.526 . S
C2801 H2785 0.959 . S
C2801 H2786 0.959 . S
C2801 H2787 0.961 . S
C2801 C2800 1.502 . S
C2802 H2788 0.960 . S
C2802 H2789 0.961 . S
C2802 H2790 0.959 . S
C2802 C2800 1.561 . S
C2803 C2800 1.526 . S
C2803 C2804 1.396 1_655 S
C2803 C2808 1.390 . S
C2804 C2798 1.465 . S
C2804 C2803 1.396 1_455 S
C2804 C2805 1.399 . S
C2805 H2791 0.929 . S
C2805 C2804 1.399 . S
C2805 C2806 1.385 . S
C2806 H2792 0.931 . S
C2806 C2805 1.385 . S
C2806 C2807 1.389 1_455 S
C2807 C2806 1.389 1_655 S
C2807 C2808 1.387 . S
C2808 H2793 0.930 . S
C2808 C2803 1.390 . S
C2808 C2807 1.387 . S
H2809 C2821 0.930 . S
H2810 C2823 0.930 . S
H2811 C2824 0.930 . S
H2812 C2828 0.959 . S
H2813 C2828 0.959 . S
H2814 C2828 0.961 . S
H2815 C2829 0.960 . S
H2816 C2829 0.961 . S
H2817 C2829 0.959 . S
H2818 C2832 0.929 . S
H2819 C2833 0.931 . S
H2820 C2835 0.930 . S
C2821 H2809 0.930 . S
C2821 C2822 1.399 . S
C2821 C2826 1.399 . S
C2822 C2821 1.399 . S
C2822 C2823 1.376 . S
C2823 H2810 0.930 . S
C2823 C2822 1.376 . S
C2823 C2824 1.388 . S
C2824 H2811 0.930 . S
C2824 C2823 1.388 . S
C2824 C2825 1.390 . S
C2825 C2824 1.390 . S
C2825 C2826 1.394 . S
C2825 C2831 1.465 . S
C2826 C2821 1.399 . S
C2826 C2825 1.394 . S
C2826 C2827 1.516 . S
C2827 C2826 1.516 . S
C2827 C2828 1.502 . S
C2827 C2829 1.561 . S
C2827 C2830 1.526 . S
C2828 H2812 0.959 . S
C2828 H2813 0.959 . S
C2828 H2814 0.961 . S
C2828 C2827 1.502 . S
C2829 H2815 0.960 . S
C2829 H2816 0.961 . S
C2829 H2817 0.959 . S
C2829 C2827 1.561 . S
C2830 C2827 1.526 . S
C2830 C2831 1.396 . S
C2830 C2835 1.390 . S
C2831 C2825 1.465 . S
C2831 C2830 1.396 . S
C2831 C2832 1.399 . S
C2832 H2818 0.929 . S
C2832 C2831 1.399 . S
C2832 C2833 1.385 . S
C2833 H2819 0.931 . S
C2833 C2832 1.385 . S
C2833 C2834 1.389 . S
C2834 C2833 1.389 . S
C2834 C2835 1.387 . S
C2835 H2820 0.930 . S
C2835 C2830 1.390 . S
C2835 C2834 1.387 . S
H2836 C2848 0.930 . S
H2837 C2850 0.930 . S
H2838 C2851 0.930 . S
H2839 C2855 0.959 . S
H2840 C2855 0.959 . S
H2841 C2855 0.961 . S
H2842 C2856 0.960 . S
H2843 C2856 0.961 . S
H2844 C2856 0.959 . S
H2845 C2859 0.929 . S
H2846 C2860 0.931 . S
H2847 C2862 0.930 . S
C2848 H2836 0.930 . S
C2848 C2849 1.399 1_655 S
C2848 C2853 1.399 . S
C2849 C2848 1.399 1_455 S
C2849 C2850 1.376 . S
C2850 H2837 0.930 . S
C2850 C2849 1.376 . S
C2850 C2851 1.388 . S
C2851 H2838 0.930 . S
C2851 C2850 1.388 . S
C2851 C2852 1.390 . S
C2852 C2851 1.390 . S
C2852 C2853 1.394 1_455 S
C2852 C2858 1.465 . S
C2853 C2848 1.399 . S
C2853 C2852 1.394 1_655 S
C2853 C2854 1.516 . S
C2854 C2853 1.516 . S
C2854 C2855 1.502 . S
C2854 C2856 1.561 . S
C2854 C2857 1.526 . S
C2855 H2839 0.959 . S
C2855 H2840 0.959 . S
C2855 H2841 0.961 . S
C2855 C2854 1.502 . S
C2856 H2842 0.960 . S
C2856 H2843 0.961 . S
C2856 H2844 0.959 . S
C2856 C2854 1.561 . S
C2857 C2854 1.526 . S
C2857 C2858 1.396 1_655 S
C2857 C2862 1.390 . S
C2858 C2852 1.465 . S
C2858 C2857 1.396 1_455 S
C2858 C2859 1.399 . S
C2859 H2845 0.929 . S
C2859 C2858 1.399 . S
C2859 C2860 1.385 . S
C2860 H2846 0.931 . S
C2860 C2859 1.385 . S
C2860 C2861 1.389 . S
C2861 C2860 1.389 . S
C2861 C2862 1.387 1_455 S
C2862 H2847 0.930 . S
C2862 C2857 1.390 . S
C2862 C2861 1.387 1_655 S
H2863 C2875 0.930 . S
H2864 C2877 0.930 . S
H2865 C2878 0.930 . S
H2866 C2882 0.959 . S
H2867 C2882 0.959 . S
H2868 C2882 0.961 . S
H2869 C2883 0.960 . S
H2870 C2883 0.961 . S
H2871 C2883 0.959 . S
H2872 C2886 0.929 . S
H2873 C2887 0.931 . S
H2874 C2889 0.930 . S
C2875 H2863 0.930 . S
C2875 C2876 1.399 . S
C2875 C2880 1.399 . S
C2876 C2875 1.399 . S
C2876 C2877 1.376 . S
C2877 H2864 0.930 . S
C2877 C2876 1.376 . S
C2877 C2878 1.388 . S
C2878 H2865 0.930 . S
C2878 C2877 1.388 . S
C2878 C2879 1.390 . S
C2879 C2878 1.390 . S
C2879 C2880 1.394 . S
C2879 C2885 1.465 . S
C2880 C2875 1.399 . S
C2880 C2879 1.394 . S
C2880 C2881 1.516 . S
C2881 C2880 1.516 . S
C2881 C2882 1.502 . S
C2881 C2883 1.561 . S
C2881 C2884 1.526 . S
C2882 H2866 0.959 . S
C2882 H2867 0.959 . S
C2882 H2868 0.961 . S
C2882 C2881 1.502 . S
C2883 H2869 0.960 . S
C2883 H2870 0.961 . S
C2883 H2871 0.959 . S
C2883 C2881 1.561 . S
C2884 C2881 1.526 . S
C2884 C2885 1.396 . S
C2884 C2889 1.390 . S
C2885 C2879 1.465 . S
C2885 C2884 1.396 . S
C2885 C2886 1.399 . S
C2886 H2872 0.929 . S
C2886 C2885 1.399 . S
C2886 C2887 1.385 . S
C2887 H2873 0.931 . S
C2887 C2886 1.385 . S
C2887 C2888 1.389 . S
C2888 C2887 1.389 . S
C2888 C2889 1.387 . S
C2889 H2874 0.930 . S
C2889 C2884 1.390 . S
C2889 C2888 1.387 . S
H2890 C2902 0.930 . S
H2891 C2904 0.930 . S
H2892 C2905 0.930 . S
H2893 C2909 0.959 . S
H2894 C2909 0.959 . S
H2895 C2909 0.961 . S
H2896 C2910 0.968 . S
H2897 C2910 0.989 . S
H2898 C2910 0.886 1_655 S
H2899 C2913 0.929 . S
H2900 C2914 0.931 . S
H2901 C2916 0.930 . S
C2902 H2890 0.930 . S
C2902 C2903 1.368 1_455 S
C2902 C2907 1.399 . S
C2903 C2902 1.368 1_655 S
C2903 C2904 1.414 . S
C2904 H2891 0.930 . S
C2904 C2903 1.414 . S
C2904 C2905 1.388 . S
C2905 H2892 0.930 . S
C2905 C2904 1.388 . S
C2905 C2906 1.390 . S
C2906 C2905 1.390 . S
C2906 C2907 1.394 1_655 S
C2906 C2912 1.468 . S
C2907 C2902 1.399 . S
C2907 C2906 1.394 1_455 S
C2907 C2908 1.516 . S
C2908 C2907 1.516 . S
C2908 C2909 1.502 . S
C2908 C2910 1.605 . S
C2908 C2911 1.526 . S
C2909 H2893 0.959 . S
C2909 H2894 0.959 . S
C2909 H2895 0.961 . S
C2909 C2908 1.502 . S
C2910 H2896 0.968 . S
C2910 H2897 0.989 . S
C2910 H2898 0.886 1_455 S
C2910 C2908 1.605 . S
C2911 C2908 1.526 . S
C2911 C2912 1.385 1_455 S
C2911 C2916 1.390 . S
C2912 C2906 1.468 . S
C2912 C2911 1.385 1_655 S
C2912 C2913 1.405 . S
C2913 H2899 0.929 . S
C2913 C2912 1.405 . S
C2913 C2914 1.385 . S
C2914 H2900 0.931 . S
C2914 C2913 1.385 . S
C2914 C2915 1.389 1_655 S
C2915 C2914 1.389 1_455 S
C2915 C2916 1.387 . S
C2916 H2901 0.930 . S
C2916 C2911 1.390 . S
C2916 C2915 1.387 . S
H2917 C2929 0.930 . S
H2918 C2931 0.930 . S
H2919 C2932 0.930 . S
H2920 C2936 0.959 . S
H2921 C2936 0.959 . S
H2922 C2936 0.961 . S
H2923 C2937 0.960 . S
H2924 C2937 0.961 . S
H2925 C2937 0.959 . S
H2926 C2940 0.929 . S
H2927 C2941 0.931 . S
H2928 C2943 0.930 . S
C2929 H2917 0.930 . S
C2929 C2930 1.399 . S
C2929 C2934 1.399 . S
C2930 C2929 1.399 . S
C2930 C2931 1.376 . S
C2931 H2918 0.930 . S
C2931 C2930 1.376 . S
C2931 C2932 1.388 . S
C2932 H2919 0.930 . S
C2932 C2931 1.388 . S
C2932 C2933 1.390 . S
C2933 C2932 1.390 . S
C2933 C2934 1.394 . S
C2933 C2939 1.465 . S
C2934 C2929 1.399 . S
C2934 C2933 1.394 . S
C2934 C2935 1.516 . S
C2935 C2934 1.516 . S
C2935 C2936 1.502 . S
C2935 C2937 1.561 . S
C2935 C2938 1.526 . S
C2936 H2920 0.959 . S
C2936 H2921 0.959 . S
C2936 H2922 0.961 . S
C2936 C2935 1.502 . S
C2937 H2923 0.960 . S
C2937 H2924 0.961 . S
C2937 H2925 0.959 . S
C2937 C2935 1.561 . S
C2938 C2935 1.526 . S
C2938 C2939 1.396 . S
C2938 C2943 1.390 . S
C2939 C2933 1.465 . S
C2939 C2938 1.396 . S
C2939 C2940 1.399 . S
C2940 H2926 0.929 . S
C2940 C2939 1.399 . S
C2940 C2941 1.385 . S
C2941 H2927 0.931 . S
C2941 C2940 1.385 . S
C2941 C2942 1.389 . S
C2942 C2941 1.389 . S
C2942 C2943 1.387 . S
C2943 H2928 0.930 . S
C2943 C2938 1.390 . S
C2943 C2942 1.387 . S
H2944 C2956 0.930 . S
H2945 C2958 0.930 . S
H2946 C2959 0.930 . S
H2947 C2963 0.959 . S
H2948 C2963 0.959 . S
H2949 C2963 0.961 . S
H2950 C2964 0.960 . S
H2951 C2964 0.961 . S
H2952 C2964 0.959 . S
H2953 C2967 0.929 . S
H2954 C2968 0.931 . S
H2955 C2970 0.930 . S
C2956 H2944 0.930 . S
C2956 C2957 1.399 . S
C2956 C2961 1.399 . S
C2957 C2956 1.399 . S
C2957 C2958 1.376 . S
C2958 H2945 0.930 . S
C2958 C2957 1.376 . S
C2958 C2959 1.388 . S
C2959 H2946 0.930 . S
C2959 C2958 1.388 . S
C2959 C2960 1.390 . S
C2960 C2959 1.390 . S
C2960 C2961 1.394 . S
C2960 C2966 1.465 . S
C2961 C2956 1.399 . S
C2961 C2960 1.394 . S
C2961 C2962 1.516 . S
C2962 C2961 1.516 . S
C2962 C2963 1.502 . S
C2962 C2964 1.561 . S
C2962 C2965 1.526 . S
C2963 H2947 0.959 . S
C2963 H2948 0.959 . S
C2963 H2949 0.961 . S
C2963 C2962 1.502 . S
C2964 H2950 0.960 . S
C2964 H2951 0.961 . S
C2964 H2952 0.959 . S
C2964 C2962 1.561 . S
C2965 C2962 1.526 . S
C2965 C2966 1.396 . S
C2965 C2970 1.390 . S
C2966 C2960 1.465 . S
C2966 C2965 1.396 . S
C2966 C2967 1.399 . S
C2967 H2953 0.929 . S
C2967 C2966 1.399 . S
C2967 C2968 1.385 . S
C2968 H2954 0.931 . S
C2968 C2967 1.385 . S
C2968 C2969 1.389 . S
C2969 C2968 1.389 . S
C2969 C2970 1.387 . S
C2970 H2955 0.930 . S
C2970 C2965 1.390 . S
C2970 C2969 1.387 . S
H2971 C2983 0.930 . S
H2972 C2985 0.930 . S
H2973 C2986 0.930 . S
H2974 C2990 0.959 . S
H2975 C2990 0.959 . S
H2976 C2990 0.961 . S
H2977 C2991 0.960 . S
H2978 C2991 0.961 . S
H2979 C2991 0.959 . S
H2980 C2994 0.929 . S
H2981 C2995 0.931 . S
H2982 C2997 0.930 . S
C2983 H2971 0.930 . S
C2983 C2984 1.399 1_545 S
C2983 C2988 1.399 . S
C2984 C2983 1.399 1_565 S
C2984 C2985 1.376 . S
C2985 H2972 0.930 . S
C2985 C2984 1.376 . S
C2985 C2986 1.388 1_565 S
C2986 H2973 0.930 . S
C2986 C2985 1.388 1_545 S
C2986 C2987 1.390 . S
C2987 C2986 1.390 . S
C2987 C2988 1.394 . S
C2987 C2993 1.465 . S
C2988 C2983 1.399 . S
C2988 C2987 1.394 . S
C2988 C2989 1.516 . S
C2989 C2988 1.516 . S
C2989 C2990 1.502 . S
C2989 C2991 1.561 . S
C2989 C2992 1.526 . S
C2990 H2974 0.959 . S
C2990 H2975 0.959 . S
C2990 H2976 0.961 . S
C2990 C2989 1.502 . S
C2991 H2977 0.960 . S
C2991 H2978 0.961 . S
C2991 H2979 0.959 . S
C2991 C2989 1.561 . S
C2992 C2989 1.526 . S
C2992 C2993 1.396 . S
C2992 C2997 1.390 . S
C2993 C2987 1.465 . S
C2993 C2992 1.396 . S
C2993 C2994 1.399 . S
C2994 H2980 0.929 . S
C2994 C2993 1.399 . S
C2994 C2995 1.385 . S
C2995 H2981 0.931 . S
C2995 C2994 1.385 . S
C2995 C2996 1.389 . S
C2996 C2995 1.389 . S
C2996 C2997 1.387 . S
C2997 H2982 0.930 . S
C2997 C2992 1.390 . S
C2997 C2996 1.387 . S
H2998 C3010 0.930 . S
H2999 C3012 0.930 . S
H3000 C3013 0.930 . S
H3001 C3017 0.959 . S
H3002 C3017 0.959 . S
H3003 C3017 0.961 . S
H3004 C3018 0.960 . S
H3005 C3018 0.961 1_565 S
H3006 C3018 0.959 . S
H3007 C3021 0.929 . S
H3008 C3022 0.931 . S
H3009 C3024 0.930 . S
C3010 H2998 0.930 . S
C3010 C3011 1.399 . S
C3010 C3015 1.399 . S
C3011 C3010 1.399 . S
C3011 C3012 1.376 . S
C3012 H2999 0.930 . S
C3012 C3011 1.376 . S
C3012 C3013 1.388 . S
C3013 H3000 0.930 . S
C3013 C3012 1.388 . S
C3013 C3014 1.390 . S
C3014 C3013 1.390 . S
C3014 C3015 1.394 . S
C3014 C3020 1.465 . S
C3015 C3010 1.399 . S
C3015 C3014 1.394 . S
C3015 C3016 1.516 . S
C3016 C3015 1.516 . S
C3016 C3017 1.502 . S
C3016 C3018 1.561 . S
C3016 C3019 1.526 . S
C3017 H3001 0.959 . S
C3017 H3002 0.959 . S
C3017 H3003 0.961 . S
C3017 C3016 1.502 . S
C3018 H3004 0.960 . S
C3018 H3005 0.961 1_545 S
C3018 H3006 0.959 . S
C3018 C3016 1.561 . S
C3019 C3016 1.526 . S
C3019 C3020 1.396 . S
C3019 C3024 1.390 1_545 S
C3020 C3014 1.465 . S
C3020 C3019 1.396 . S
C3020 C3021 1.399 . S
C3021 H3007 0.929 . S
C3021 C3020 1.399 . S
C3021 C3022 1.385 . S
C3022 H3008 0.931 . S
C3022 C3021 1.385 . S
C3022 C3023 1.389 1_545 S
C3023 C3022 1.389 1_565 S
C3023 C3024 1.387 . S
C3024 H3009 0.930 . S
C3024 C3019 1.390 1_565 S
C3024 C3023 1.387 . S
H3025 C3037 0.930 . S
H3026 C3039 0.930 . S
H3027 C3040 0.930 . S
H3028 C3044 0.959 . S
H3029 C3044 0.959 . S
H3030 C3044 0.961 . S
H3031 C3045 0.960 . S
H3032 C3045 0.961 . S
H3033 C3045 0.959 . S
H3034 C3048 0.929 . S
H3035 C3049 0.931 . S
H3036 C3051 0.930 . S
C3037 H3025 0.930 . S
C3037 C3038 1.399 . S
C3037 C3042 1.399 . S
C3038 C3037 1.399 . S
C3038 C3039 1.376 . S
C3039 H3026 0.930 . S
C3039 C3038 1.376 . S
C3039 C3040 1.388 . S
C3040 H3027 0.930 . S
C3040 C3039 1.388 . S
C3040 C3041 1.390 . S
C3041 C3040 1.390 . S
C3041 C3042 1.394 . S
C3041 C3047 1.465 . S
C3042 C3037 1.399 . S
C3042 C3041 1.394 . S
C3042 C3043 1.516 . S
C3043 C3042 1.516 . S
C3043 C3044 1.502 . S
C3043 C3045 1.561 . S
C3043 C3046 1.526 . S
C3044 H3028 0.959 . S
C3044 H3029 0.959 . S
C3044 H3030 0.961 . S
C3044 C3043 1.502 . S
C3045 H3031 0.960 . S
C3045 H3032 0.961 . S
C3045 H3033 0.959 . S
C3045 C3043 1.561 . S
C3046 C3043 1.526 . S
C3046 C3047 1.396 . S
C3046 C3051 1.390 . S
C3047 C3041 1.465 . S
C3047 C3046 1.396 . S
C3047 C3048 1.399 . S
C3048 H3034 0.929 . S
C3048 C3047 1.399 . S
C3048 C3049 1.385 . S
C3049 H3035 0.931 . S
C3049 C3048 1.385 . S
C3049 C3050 1.389 . S
C3050 C3049 1.389 . S
C3050 C3051 1.387 . S
C3051 H3036 0.930 . S
C3051 C3046 1.390 . S
C3051 C3050 1.387 . S
H3052 C3064 0.930 . S
H3053 C3066 0.930 . S
H3054 C3067 0.930 . S
H3055 C3071 0.959 . S
H3056 C3071 0.959 . S
H3057 C3071 0.961 . S
H3058 C3072 0.960 . S
H3059 C3072 0.961 . S
H3060 C3072 0.959 . S
H3061 C3075 0.929 . S
H3062 C3076 0.931 . S
H3063 C3078 0.930 . S
C3064 H3052 0.930 . S
C3064 C3065 1.399 . S
C3064 C3069 1.399 . S
C3065 C3064 1.399 . S
C3065 C3066 1.376 . S
C3066 H3053 0.930 . S
C3066 C3065 1.376 . S
C3066 C3067 1.388 . S
C3067 H3054 0.930 . S
C3067 C3066 1.388 . S
C3067 C3068 1.390 . S
C3068 C3067 1.390 . S
C3068 C3069 1.394 . S
C3068 C3074 1.465 . S
C3069 C3064 1.399 . S
C3069 C3068 1.394 . S
C3069 C3070 1.516 . S
C3070 C3069 1.516 . S
C3070 C3071 1.502 . S
C3070 C3072 1.561 . S
C3070 C3073 1.526 . S
C3071 H3055 0.959 . S
C3071 H3056 0.959 . S
C3071 H3057 0.961 . S
C3071 C3070 1.502 . S
C3072 H3058 0.960 . S
C3072 H3059 0.961 . S
C3072 H3060 0.959 . S
C3072 C3070 1.561 . S
C3073 C3070 1.526 . S
C3073 C3074 1.396 . S
C3073 C3078 1.390 . S
C3074 C3068 1.465 . S
C3074 C3073 1.396 . S
C3074 C3075 1.399 . S
C3075 H3061 0.929 . S
C3075 C3074 1.399 . S
C3075 C3076 1.385 . S
C3076 H3062 0.931 . S
C3076 C3075 1.385 . S
C3076 C3077 1.389 . S
C3077 C3076 1.389 . S
C3077 C3078 1.387 . S
C3078 H3063 0.930 . S
C3078 C3073 1.390 . S
C3078 C3077 1.387 . S
H3079 C3091 0.930 . S
H3080 C3093 0.930 . S
H3081 C3094 0.930 1_545 S
H3082 C3098 0.959 . S
H3083 C3098 0.959 . S
H3084 C3098 0.961 . S
H3085 C3099 0.960 . S
H3086 C3099 0.961 . S
H3087 C3099 0.959 . S
H3088 C3102 0.929 . S
H3089 C3103 0.931 . S
H3090 C3105 0.930 . S
C3091 H3079 0.930 . S
C3091 C3092 1.399 1_565 S
C3091 C3096 1.399 . S
C3092 C3091 1.399 1_545 S
C3092 C3093 1.376 . S
C3093 H3080 0.930 . S
C3093 C3092 1.376 . S
C3093 C3094 1.388 1_545 S
C3094 H3081 0.930 1_565 S
C3094 C3093 1.388 1_565 S
C3094 C3095 1.390 . S
C3095 C3094 1.390 . S
C3095 C3096 1.394 . S
C3095 C3101 1.465 . S
C3096 C3091 1.399 . S
C3096 C3095 1.394 . S
C3096 C3097 1.516 . S
C3097 C3096 1.516 . S
C3097 C3098 1.502 . S
C3097 C3099 1.561 . S
C3097 C3100 1.526 . S
C3098 H3082 0.959 . S
C3098 H3083 0.959 . S
C3098 H3084 0.961 . S
C3098 C3097 1.502 . S
C3099 H3085 0.960 . S
C3099 H3086 0.961 . S
C3099 H3087 0.959 . S
C3099 C3097 1.561 . S
C3100 C3097 1.526 . S
C3100 C3101 1.396 . S
C3100 C3105 1.390 . S
C3101 C3095 1.465 . S
C3101 C3100 1.396 . S
C3101 C3102 1.399 . S
C3102 H3088 0.929 . S
C3102 C3101 1.399 . S
C3102 C3103 1.385 . S
C3103 H3089 0.931 . S
C3103 C3102 1.385 . S
C3103 C3104 1.389 . S
C3104 C3103 1.389 . S
C3104 C3105 1.387 . S
C3105 H3090 0.930 . S
C3105 C3100 1.390 . S
C3105 C3104 1.387 . S
H3106 C3118 0.930 . S
H3107 C3120 0.930 . S
H3108 C3121 0.930 . S
H3109 C3125 0.959 . S
H3110 C3125 0.959 . S
H3111 C3125 0.961 . S
H3112 C3126 0.960 . S
H3113 C3126 0.961 . S
H3114 C3126 0.959 . S
H3115 C3129 0.929 1_545 S
H3116 C3130 0.931 . S
H3117 C3132 0.930 . S
C3118 H3106 0.930 . S
C3118 C3119 1.399 . S
C3118 C3123 1.399 . S
C3119 C3118 1.399 . S
C3119 C3120 1.376 . S
C3120 H3107 0.930 . S
C3120 C3119 1.376 . S
C3120 C3121 1.388 . S
C3121 H3108 0.930 . S
C3121 C3120 1.388 . S
C3121 C3122 1.390 . S
C3122 C3121 1.390 . S
C3122 C3123 1.394 . S
C3122 C3128 1.465 . S
C3123 C3118 1.399 . S
C3123 C3122 1.394 . S
C3123 C3124 1.516 . S
C3124 C3123 1.516 . S
C3124 C3125 1.502 . S
C3124 C3126 1.561 . S
C3124 C3127 1.526 . S
C3125 H3109 0.959 . S
C3125 H3110 0.959 . S
C3125 H3111 0.961 . S
C3125 C3124 1.502 . S
C3126 H3112 0.960 . S
C3126 H3113 0.961 . S
C3126 H3114 0.959 . S
C3126 C3124 1.561 . S
C3127 C3124 1.526 . S
C3127 C3128 1.396 . S
C3127 C3132 1.390 . S
C3128 C3122 1.465 . S
C3128 C3127 1.396 . S
C3128 C3129 1.399 . S
C3129 H3115 0.929 1_565 S
C3129 C3128 1.399 . S
C3129 C3130 1.385 1_565 S
C3130 H3116 0.931 . S
C3130 C3129 1.385 1_545 S
C3130 C3131 1.389 . S
C3131 C3130 1.389 . S
C3131 C3132 1.387 1_545 S
C3132 H3117 0.930 . S
C3132 C3127 1.390 . S
C3132 C3131 1.387 1_565 S
H3133 C3145 0.930 . S
H3134 C3147 0.930 . S
H3135 C3148 0.930 . S
H3136 C3152 0.959 . S
H3137 C3152 0.959 . S
H3138 C3152 0.961 . S
H3139 C3153 0.960 . S
H3140 C3153 0.961 . S
H3141 C3153 0.959 . S
H3142 C3156 0.929 . S
H3143 C3157 0.931 . S
H3144 C3159 0.930 . S
C3145 H3133 0.930 . S
C3145 C3146 1.399 . S
C3145 C3150 1.399 . S
C3146 C3145 1.399 . S
C3146 C3147 1.376 . S
C3147 H3134 0.930 . S
C3147 C3146 1.376 . S
C3147 C3148 1.388 . S
C3148 H3135 0.930 . S
C3148 C3147 1.388 . S
C3148 C3149 1.390 . S
C3149 C3148 1.390 . S
C3149 C3150 1.394 . S
C3149 C3155 1.465 . S
C3150 C3145 1.399 . S
C3150 C3149 1.394 . S
C3150 C3151 1.516 . S
C3151 C3150 1.516 . S
C3151 C3152 1.502 . S
C3151 C3153 1.561 . S
C3151 C3154 1.526 . S
C3152 H3136 0.959 . S
C3152 H3137 0.959 . S
C3152 H3138 0.961 . S
C3152 C3151 1.502 . S
C3153 H3139 0.960 . S
C3153 H3140 0.961 . S
C3153 H3141 0.959 . S
C3153 C3151 1.561 . S
C3154 C3151 1.526 . S
C3154 C3155 1.396 . S
C3154 C3159 1.390 . S
C3155 C3149 1.465 . S
C3155 C3154 1.396 . S
C3155 C3156 1.399 . S
C3156 H3142 0.929 . S
C3156 C3155 1.399 . S
C3156 C3157 1.385 . S
C3157 H3143 0.931 . S
C3157 C3156 1.385 . S
C3157 C3158 1.389 . S
C3158 C3157 1.389 . S
C3158 C3159 1.387 . S
C3159 H3144 0.930 . S
C3159 C3154 1.390 . S
C3159 C3158 1.387 . S
H3160 C3172 0.930 . S
H3161 C3174 0.930 . S
H3162 C3175 0.930 . S
H3163 C3179 0.959 . S
H3164 C3179 0.959 . S
H3165 C3179 0.961 . S
H3166 C3180 0.960 . S
H3167 C3180 0.961 . S
H3168 C3180 0.959 . S
H3169 C3183 0.929 . S
H3170 C3184 0.931 . S
H3171 C3186 0.930 . S
C3172 H3160 0.930 . S
C3172 C3173 1.399 . S
C3172 C3177 1.399 . S
C3173 C3172 1.399 . S
C3173 C3174 1.376 . S
C3174 H3161 0.930 . S
C3174 C3173 1.376 . S
C3174 C3175 1.388 . S
C3175 H3162 0.930 . S
C3175 C3174 1.388 . S
C3175 C3176 1.390 . S
C3176 C3175 1.390 . S
C3176 C3177 1.394 . S
C3176 C3182 1.465 . S
C3177 C3172 1.399 . S
C3177 C3176 1.394 . S
C3177 C3178 1.516 . S
C3178 C3177 1.516 . S
C3178 C3179 1.502 . S
C3178 C3180 1.561 . S
C3178 C3181 1.526 . S
C3179 H3163 0.959 . S
C3179 H3164 0.959 . S
C3179 H3165 0.961 . S
C3179 C3178 1.502 . S
C3180 H3166 0.960 . S
C3180 H3167 0.961 . S
C3180 H3168 0.959 . S
C3180 C3178 1.561 . S
C3181 C3178 1.526 . S
C3181 C3182 1.396 . S
C3181 C3186 1.390 . S
C3182 C3176 1.465 . S
C3182 C3181 1.396 . S
C3182 C3183 1.399 . S
C3183 H3169 0.929 . S
C3183 C3182 1.399 . S
C3183 C3184 1.385 . S
C3184 H3170 0.931 . S
C3184 C3183 1.385 . S
C3184 C3185 1.389 . S
C3185 C3184 1.389 . S
C3185 C3186 1.387 . S
C3186 H3171 0.930 . S
C3186 C3181 1.390 . S
C3186 C3185 1.387 . S
H3187 C3199 0.930 . S
H3188 C3201 0.930 . S
H3189 C3202 0.930 . S
H3190 C3206 0.959 . S
H3191 C3206 0.959 . S
H3192 C3206 0.961 . S
H3193 C3207 0.960 . S
H3194 C3207 0.961 . S
H3195 C3207 0.959 . S
H3196 C3210 0.929 . S
H3197 C3211 0.931 . S
H3198 C3213 0.930 . S
C3199 H3187 0.930 . S
C3199 C3200 1.399 . S
C3199 C3204 1.399 . S
C3200 C3199 1.399 . S
C3200 C3201 1.376 . S
C3201 H3188 0.930 . S
C3201 C3200 1.376 . S
C3201 C3202 1.388 . S
C3202 H3189 0.930 . S
C3202 C3201 1.388 . S
C3202 C3203 1.390 . S
C3203 C3202 1.390 . S
C3203 C3204 1.394 . S
C3203 C3209 1.465 . S
C3204 C3199 1.399 . S
C3204 C3203 1.394 . S
C3204 C3205 1.516 . S
C3205 C3204 1.516 . S
C3205 C3206 1.502 . S
C3205 C3207 1.561 . S
C3205 C3208 1.526 . S
C3206 H3190 0.959 . S
C3206 H3191 0.959 . S
C3206 H3192 0.961 . S
C3206 C3205 1.502 . S
C3207 H3193 0.960 . S
C3207 H3194 0.961 . S
C3207 H3195 0.959 . S
C3207 C3205 1.561 . S
C3208 C3205 1.526 . S
C3208 C3209 1.396 . S
C3208 C3213 1.390 . S
C3209 C3203 1.465 . S
C3209 C3208 1.396 . S
C3209 C3210 1.399 . S
C3210 H3196 0.929 . S
C3210 C3209 1.399 . S
C3210 C3211 1.385 . S
C3211 H3197 0.931 . S
C3211 C3210 1.385 . S
C3211 C3212 1.389 . S
C3212 C3211 1.389 . S
C3212 C3213 1.387 . S
C3213 H3198 0.930 . S
C3213 C3208 1.390 . S
C3213 C3212 1.387 . S
H3214 C3226 0.930 . S
H3215 C3228 0.930 . S
H3216 C3229 0.930 . S
H3217 C3233 0.959 . S
H3218 C3233 0.959 . S
H3219 C3233 0.961 . S
H3220 C3234 0.960 . S
H3221 C3234 0.961 . S
H3222 C3234 0.959 . S
H3223 C3237 0.929 . S
H3224 C3238 0.931 . S
H3225 C3240 0.930 . S
C3226 H3214 0.930 . S
C3226 C3227 1.399 . S
C3226 C3231 1.399 . S
C3227 C3226 1.399 . S
C3227 C3228 1.376 . S
C3228 H3215 0.930 . S
C3228 C3227 1.376 . S
C3228 C3229 1.388 . S
C3229 H3216 0.930 . S
C3229 C3228 1.388 . S
C3229 C3230 1.390 . S
C3230 C3229 1.390 . S
C3230 C3231 1.394 . S
C3230 C3236 1.465 . S
C3231 C3226 1.399 . S
C3231 C3230 1.394 . S
C3231 C3232 1.516 . S
C3232 C3231 1.516 . S
C3232 C3233 1.502 . S
C3232 C3234 1.561 . S
C3232 C3235 1.526 . S
C3233 H3217 0.959 . S
C3233 H3218 0.959 . S
C3233 H3219 0.961 . S
C3233 C3232 1.502 . S
C3234 H3220 0.960 . S
C3234 H3221 0.961 . S
C3234 H3222 0.959 . S
C3234 C3232 1.561 . S
C3235 C3232 1.526 . S
C3235 C3236 1.396 . S
C3235 C3240 1.390 . S
C3236 C3230 1.465 . S
C3236 C3235 1.396 . S
C3236 C3237 1.399 . S
C3237 H3223 0.929 . S
C3237 C3236 1.399 . S
C3237 C3238 1.385 . S
C3238 H3224 0.931 . S
C3238 C3237 1.385 . S
C3238 C3239 1.389 . S
C3239 C3238 1.389 . S
C3239 C3240 1.387 . S
C3240 H3225 0.930 . S
C3240 C3235 1.390 . S
C3240 C3239 1.387 . S
H3241 C3253 0.930 . S
H3242 C3255 0.930 . S
H3243 C3256 0.930 . S
H3244 C3260 0.959 . S
H3245 C3260 0.959 . S
H3246 C3260 0.961 . S
H3247 C3261 0.960 . S
H3248 C3261 0.961 . S
H3249 C3261 0.959 . S
H3250 C3264 0.929 . S
H3251 C3265 0.931 . S
H3252 C3267 0.930 . S
C3253 H3241 0.930 . S
C3253 C3254 1.399 . S
C3253 C3258 1.399 . S
C3254 C3253 1.399 . S
C3254 C3255 1.376 . S
C3255 H3242 0.930 . S
C3255 C3254 1.376 . S
C3255 C3256 1.388 . S
C3256 H3243 0.930 . S
C3256 C3255 1.388 . S
C3256 C3257 1.390 . S
C3257 C3256 1.390 . S
C3257 C3258 1.394 . S
C3257 C3263 1.465 . S
C3258 C3253 1.399 . S
C3258 C3257 1.394 . S
C3258 C3259 1.516 . S
C3259 C3258 1.516 . S
C3259 C3260 1.502 . S
C3259 C3261 1.561 . S
C3259 C3262 1.526 . S
C3260 H3244 0.959 . S
C3260 H3245 0.959 . S
C3260 H3246 0.961 . S
C3260 C3259 1.502 . S
C3261 H3247 0.960 . S
C3261 H3248 0.961 . S
C3261 H3249 0.959 . S
C3261 C3259 1.561 . S
C3262 C3259 1.526 . S
C3262 C3263 1.396 . S
C3262 C3267 1.390 . S
C3263 C3257 1.465 . S
C3263 C3262 1.396 . S
C3263 C3264 1.399 . S
C3264 H3250 0.929 . S
C3264 C3263 1.399 . S
C3264 C3265 1.385 . S
C3265 H3251 0.931 . S
C3265 C3264 1.385 . S
C3265 C3266 1.389 . S
C3266 C3265 1.389 . S
C3266 C3267 1.387 . S
C3267 H3252 0.930 . S
C3267 C3262 1.390 . S
C3267 C3266 1.387 . S
H3268 C3280 0.930 . S
H3269 C3282 0.930 . S
H3270 C3283 0.930 . S
H3271 C3287 0.959 . S
H3272 C3287 0.959 . S
H3273 C3287 0.961 . S
H3274 C3288 0.960 . S
H3275 C3288 0.961 . S
H3276 C3288 0.959 . S
H3277 C3291 0.929 . S
H3278 C3292 0.931 . S
H3279 C3294 0.930 . S
C3280 H3268 0.930 . S
C3280 C3281 1.399 . S
C3280 C3285 1.399 . S
C3281 C3280 1.399 . S
C3281 C3282 1.376 . S
C3282 H3269 0.930 . S
C3282 C3281 1.376 . S
C3282 C3283 1.388 . S
C3283 H3270 0.930 . S
C3283 C3282 1.388 . S
C3283 C3284 1.390 . S
C3284 C3283 1.390 . S
C3284 C3285 1.394 . S
C3284 C3290 1.465 . S
C3285 C3280 1.399 . S
C3285 C3284 1.394 . S
C3285 C3286 1.516 . S
C3286 C3285 1.516 . S
C3286 C3287 1.502 . S
C3286 C3288 1.561 . S
C3286 C3289 1.526 . S
C3287 H3271 0.959 . S
C3287 H3272 0.959 . S
C3287 H3273 0.961 . S
C3287 C3286 1.502 . S
C3288 H3274 0.960 . S
C3288 H3275 0.961 . S
C3288 H3276 0.959 . S
C3288 C3286 1.561 . S
C3289 C3286 1.526 . S
C3289 C3290 1.396 . S
C3289 C3294 1.390 . S
C3290 C3284 1.465 . S
C3290 C3289 1.396 . S
C3290 C3291 1.399 . S
C3291 H3277 0.929 . S
C3291 C3290 1.399 . S
C3291 C3292 1.385 . S
C3292 H3278 0.931 . S
C3292 C3291 1.385 . S
C3292 C3293 1.389 . S
C3293 C3292 1.389 . S
C3293 C3294 1.387 . S
C3294 H3279 0.930 . S
C3294 C3289 1.390 . S
C3294 C3293 1.387 . S
H3295 C3307 0.930 . S
H3296 C3309 0.930 . S
H3297 C3310 0.930 . S
H3298 C3314 0.959 . S
H3299 C3314 0.959 . S
H3300 C3314 0.961 . S
H3301 C3315 0.960 . S
H3302 C3315 0.961 . S
H3303 C3315 0.959 . S
H3304 C3318 0.929 . S
H3305 C3319 0.931 . S
H3306 C3321 0.930 . S
C3307 H3295 0.930 . S
C3307 C3308 1.399 . S
C3307 C3312 1.399 . S
C3308 C3307 1.399 . S
C3308 C3309 1.376 . S
C3309 H3296 0.930 . S
C3309 C3308 1.376 . S
C3309 C3310 1.388 . S
C3310 H3297 0.930 . S
C3310 C3309 1.388 . S
C3310 C3311 1.390 . S
C3311 C3310 1.390 . S
C3311 C3312 1.394 . S
C3311 C3317 1.465 . S
C3312 C3307 1.399 . S
C3312 C3311 1.394 . S
C3312 C3313 1.516 . S
C3313 C3312 1.516 . S
C3313 C3314 1.502 . S
C3313 C3315 1.561 . S
C3313 C3316 1.526 . S
C3314 H3298 0.959 . S
C3314 H3299 0.959 . S
C3314 H3300 0.961 . S
C3314 C3313 1.502 . S
C3315 H3301 0.960 . S
C3315 H3302 0.961 . S
C3315 H3303 0.959 . S
C3315 C3313 1.561 . S
C3316 C3313 1.526 . S
C3316 C3317 1.396 . S
C3316 C3321 1.390 . S
C3317 C3311 1.465 . S
C3317 C3316 1.396 . S
C3317 C3318 1.399 . S
C3318 H3304 0.929 . S
C3318 C3317 1.399 . S
C3318 C3319 1.385 . S
C3319 H3305 0.931 . S
C3319 C3318 1.385 . S
C3319 C3320 1.389 . S
C3320 C3319 1.389 . S
C3320 C3321 1.387 . S
C3321 H3306 0.930 . S
C3321 C3316 1.390 . S
C3321 C3320 1.387 . S
H3322 C3334 0.930 . S
H3323 C3336 0.930 . S
H3324 C3337 0.930 . S
H3325 C3341 0.959 . S
H3326 C3341 0.959 . S
H3327 C3341 0.961 . S
H3328 C3342 0.960 . S
H3329 C3342 0.961 . S
H3330 C3342 0.959 . S
H3331 C3345 0.929 . S
H3332 C3346 0.931 . S
H3333 C3348 0.930 . S
C3334 H3322 0.930 . S
C3334 C3335 1.399 . S
C3334 C3339 1.399 . S
C3335 C3334 1.399 . S
C3335 C3336 1.376 . S
C3336 H3323 0.930 . S
C3336 C3335 1.376 . S
C3336 C3337 1.388 . S
C3337 H3324 0.930 . S
C3337 C3336 1.388 . S
C3337 C3338 1.390 . S
C3338 C3337 1.390 . S
C3338 C3339 1.394 . S
C3338 C3344 1.465 . S
C3339 C3334 1.399 . S
C3339 C3338 1.394 . S
C3339 C3340 1.516 . S
C3340 C3339 1.516 . S
C3340 C3341 1.502 . S
C3340 C3342 1.561 . S
C3340 C3343 1.526 . S
C3341 H3325 0.959 . S
C3341 H3326 0.959 . S
C3341 H3327 0.961 . S
C3341 C3340 1.502 . S
C3342 H3328 0.960 . S
C3342 H3329 0.961 . S
C3342 H3330 0.959 . S
C3342 C3340 1.561 . S
C3343 C3340 1.526 . S
C3343 C3344 1.396 . S
C3343 C3348 1.390 . S
C3344 C3338 1.465 . S
C3344 C3343 1.396 . S
C3344 C3345 1.399 . S
C3345 H3331 0.929 . S
C3345 C3344 1.399 . S
C3345 C3346 1.385 . S
C3346 H3332 0.931 . S
C3346 C3345 1.385 . S
C3346 C3347 1.389 . S
C3347 C3346 1.389 . S
C3347 C3348 1.387 . S
C3348 H3333 0.930 . S
C3348 C3343 1.390 . S
C3348 C3347 1.387 . S
H3349 C3361 0.930 . S
H3350 C3363 0.930 . S
H3351 C3364 0.930 . S
H3352 C3368 0.959 . S
H3353 C3368 0.959 . S
H3354 C3368 0.961 . S
H3355 C3369 0.960 . S
H3356 C3369 0.961 . S
H3357 C3369 0.959 . S
H3358 C3372 0.929 . S
H3359 C3373 0.931 . S
H3360 C3375 0.930 . S
C3361 H3349 0.930 . S
C3361 C3362 1.399 . S
C3361 C3366 1.399 . S
C3362 C3361 1.399 . S
C3362 C3363 1.376 . S
C3363 H3350 0.930 . S
C3363 C3362 1.376 . S
C3363 C3364 1.388 . S
C3364 H3351 0.930 . S
C3364 C3363 1.388 . S
C3364 C3365 1.390 . S
C3365 C3364 1.390 . S
C3365 C3366 1.394 . S
C3365 C3371 1.465 . S
C3366 C3361 1.399 . S
C3366 C3365 1.394 . S
C3366 C3367 1.516 . S
C3367 C3366 1.516 . S
C3367 C3368 1.502 . S
C3367 C3369 1.561 . S
C3367 C3370 1.526 . S
C3368 H3352 0.959 . S
C3368 H3353 0.959 . S
C3368 H3354 0.961 . S
C3368 C3367 1.502 . S
C3369 H3355 0.960 . S
C3369 H3356 0.961 . S
C3369 H3357 0.959 . S
C3369 C3367 1.561 . S
C3370 C3367 1.526 . S
C3370 C3371 1.396 . S
C3370 C3375 1.390 . S
C3371 C3365 1.465 . S
C3371 C3370 1.396 . S
C3371 C3372 1.399 . S
C3372 H3358 0.929 . S
C3372 C3371 1.399 . S
C3372 C3373 1.385 . S
C3373 H3359 0.931 . S
C3373 C3372 1.385 . S
C3373 C3374 1.389 . S
C3374 C3373 1.389 . S
C3374 C3375 1.387 . S
C3375 H3360 0.930 . S
C3375 C3370 1.390 . S
C3375 C3374 1.387 . S
H3376 C3388 0.930 . S
H3377 C3390 0.930 . S
H3378 C3391 0.930 . S
H3379 C3395 0.959 . S
H3380 C3395 0.959 . S
H3381 C3395 0.961 . S
H3382 C3396 0.960 . S
H3383 C3396 0.961 . S
H3384 C3396 0.959 . S
H3385 C3399 0.929 . S
H3386 C3400 0.931 . S
H3387 C3402 0.930 . S
C3388 H3376 0.930 . S
C3388 C3389 1.399 . S
C3388 C3393 1.399 . S
C3389 C3388 1.399 . S
C3389 C3390 1.376 . S
C3390 H3377 0.930 . S
C3390 C3389 1.376 . S
C3390 C3391 1.388 . S
C3391 H3378 0.930 . S
C3391 C3390 1.388 . S
C3391 C3392 1.390 . S
C3392 C3391 1.390 . S
C3392 C3393 1.394 . S
C3392 C3398 1.465 . S
C3393 C3388 1.399 . S
C3393 C3392 1.394 . S
C3393 C3394 1.516 . S
C3394 C3393 1.516 . S
C3394 C3395 1.502 . S
C3394 C3396 1.561 . S
C3394 C3397 1.526 . S
C3395 H3379 0.959 . S
C3395 H3380 0.959 . S
C3395 H3381 0.961 . S
C3395 C3394 1.502 . S
C3396 H3382 0.960 . S
C3396 H3383 0.961 . S
C3396 H3384 0.959 . S
C3396 C3394 1.561 . S
C3397 C3394 1.526 . S
C3397 C3398 1.396 . S
C3397 C3402 1.390 . S
C3398 C3392 1.465 . S
C3398 C3397 1.396 . S
C3398 C3399 1.399 . S
C3399 H3385 0.929 . S
C3399 C3398 1.399 . S
C3399 C3400 1.385 . S
C3400 H3386 0.931 . S
C3400 C3399 1.385 . S
C3400 C3401 1.389 . S
C3401 C3400 1.389 . S
C3401 C3402 1.387 . S
C3402 H3387 0.930 . S
C3402 C3397 1.390 . S
C3402 C3401 1.387 . S
H3403 C3415 0.930 . S
H3404 C3417 0.930 . S
H3405 C3418 0.930 . S
H3406 C3422 0.959 . S
H3407 C3422 0.959 . S
H3408 C3422 0.961 . S
H3409 C3423 0.960 . S
H3410 C3423 0.961 . S
H3411 C3423 0.959 . S
H3412 C3426 0.929 . S
H3413 C3427 0.931 . S
H3414 C3429 0.930 . S
C3415 H3403 0.930 . S
C3415 C3416 1.399 . S
C3415 C3420 1.399 . S
C3416 C3415 1.399 . S
C3416 C3417 1.376 . S
C3417 H3404 0.930 . S
C3417 C3416 1.376 . S
C3417 C3418 1.388 . S
C3418 H3405 0.930 . S
C3418 C3417 1.388 . S
C3418 C3419 1.390 . S
C3419 C3418 1.390 . S
C3419 C3420 1.394 . S
C3419 C3425 1.465 . S
C3420 C3415 1.399 . S
C3420 C3419 1.394 . S
C3420 C3421 1.516 . S
C3421 C3420 1.516 . S
C3421 C3422 1.502 . S
C3421 C3423 1.561 . S
C3421 C3424 1.526 . S
C3422 H3406 0.959 . S
C3422 H3407 0.959 . S
C3422 H3408 0.961 . S
C3422 C3421 1.502 . S
C3423 H3409 0.960 . S
C3423 H3410 0.961 . S
C3423 H3411 0.959 . S
C3423 C3421 1.561 . S
C3424 C3421 1.526 . S
C3424 C3425 1.396 . S
C3424 C3429 1.390 . S
C3425 C3419 1.465 . S
C3425 C3424 1.396 . S
C3425 C3426 1.399 . S
C3426 H3412 0.929 . S
C3426 C3425 1.399 . S
C3426 C3427 1.385 . S
C3427 H3413 0.931 . S
C3427 C3426 1.385 . S
C3427 C3428 1.389 . S
C3428 C3427 1.389 . S
C3428 C3429 1.387 . S
C3429 H3414 0.930 . S
C3429 C3424 1.390 . S
C3429 C3428 1.387 . S
H3430 C3442 0.930 . S
H3431 C3444 0.930 . S
H3432 C3445 0.930 . S
H3433 C3449 0.959 . S
H3434 C3449 0.959 . S
H3435 C3449 0.961 . S
H3436 C3450 0.960 . S
H3437 C3450 0.961 . S
H3438 C3450 0.959 . S
H3439 C3453 0.929 . S
H3440 C3454 0.931 . S
H3441 C3456 0.930 . S
C3442 H3430 0.930 . S
C3442 C3443 1.399 . S
C3442 C3447 1.399 . S
C3443 C3442 1.399 . S
C3443 C3444 1.376 . S
C3444 H3431 0.930 . S
C3444 C3443 1.376 . S
C3444 C3445 1.388 . S
C3445 H3432 0.930 . S
C3445 C3444 1.388 . S
C3445 C3446 1.390 . S
C3446 C3445 1.390 . S
C3446 C3447 1.394 . S
C3446 C3452 1.465 . S
C3447 C3442 1.399 . S
C3447 C3446 1.394 . S
C3447 C3448 1.516 . S
C3448 C3447 1.516 . S
C3448 C3449 1.502 . S
C3448 C3450 1.561 . S
C3448 C3451 1.526 . S
C3449 H3433 0.959 . S
C3449 H3434 0.959 . S
C3449 H3435 0.961 . S
C3449 C3448 1.502 . S
C3450 H3436 0.960 . S
C3450 H3437 0.961 . S
C3450 H3438 0.959 . S
C3450 C3448 1.561 . S
C3451 C3448 1.526 . S
C3451 C3452 1.396 . S
C3451 C3456 1.390 . S
C3452 C3446 1.465 . S
C3452 C3451 1.396 . S
C3452 C3453 1.399 . S
C3453 H3439 0.929 . S
C3453 C3452 1.399 . S
C3453 C3454 1.385 . S
C3454 H3440 0.931 . S
C3454 C3453 1.385 . S
C3454 C3455 1.389 . S
C3455 C3454 1.389 . S
C3455 C3456 1.387 . S
C3456 H3441 0.930 . S
C3456 C3451 1.390 . S
C3456 C3455 1.387 . S
H3457 C3469 0.930 . S
H3458 C3471 0.930 . S
H3459 C3472 0.930 . S
H3460 C3476 0.959 . S
H3461 C3476 0.959 . S
H3462 C3476 0.961 . S
H3463 C3477 0.960 . S
H3464 C3477 0.961 . S
H3465 C3477 0.959 . S
H3466 C3480 0.929 . S
H3467 C3481 0.931 . S
H3468 C3483 0.930 . S
C3469 H3457 0.930 . S
C3469 C3470 1.399 . S
C3469 C3474 1.399 . S
C3470 C3469 1.399 . S
C3470 C3471 1.376 . S
C3471 H3458 0.930 . S
C3471 C3470 1.376 . S
C3471 C3472 1.388 . S
C3472 H3459 0.930 . S
C3472 C3471 1.388 . S
C3472 C3473 1.390 . S
C3473 C3472 1.390 . S
C3473 C3474 1.394 . S
C3473 C3479 1.465 . S
C3474 C3469 1.399 . S
C3474 C3473 1.394 . S
C3474 C3475 1.516 . S
C3475 C3474 1.516 . S
C3475 C3476 1.502 . S
C3475 C3477 1.561 . S
C3475 C3478 1.526 . S
C3476 H3460 0.959 . S
C3476 H3461 0.959 . S
C3476 H3462 0.961 . S
C3476 C3475 1.502 . S
C3477 H3463 0.960 . S
C3477 H3464 0.961 . S
C3477 H3465 0.959 . S
C3477 C3475 1.561 . S
C3478 C3475 1.526 . S
C3478 C3479 1.396 . S
C3478 C3483 1.390 . S
C3479 C3473 1.465 . S
C3479 C3478 1.396 . S
C3479 C3480 1.399 . S
C3480 H3466 0.929 . S
C3480 C3479 1.399 . S
C3480 C3481 1.385 . S
C3481 H3467 0.931 . S
C3481 C3480 1.385 . S
C3481 C3482 1.389 . S
C3482 C3481 1.389 . S
C3482 C3483 1.387 . S
C3483 H3468 0.930 . S
C3483 C3478 1.390 . S
C3483 C3482 1.387 . S
H3484 C3496 0.930 . S
H3485 C3498 0.930 . S
H3486 C3499 0.930 . S
H3487 C3503 0.959 . S
H3488 C3503 0.959 . S
H3489 C3503 0.961 . S
H3490 C3504 0.960 . S
H3491 C3504 0.961 . S
H3492 C3504 0.959 . S
H3493 C3507 0.929 . S
H3494 C3508 0.931 . S
H3495 C3510 0.930 . S
C3496 H3484 0.930 . S
C3496 C3497 1.399 . S
C3496 C3501 1.399 . S
C3497 C3496 1.399 . S
C3497 C3498 1.376 . S
C3498 H3485 0.930 . S
C3498 C3497 1.376 . S
C3498 C3499 1.388 . S
C3499 H3486 0.930 . S
C3499 C3498 1.388 . S
C3499 C3500 1.390 . S
C3500 C3499 1.390 . S
C3500 C3501 1.394 . S
C3500 C3506 1.465 . S
C3501 C3496 1.399 . S
C3501 C3500 1.394 . S
C3501 C3502 1.516 . S
C3502 C3501 1.516 . S
C3502 C3503 1.502 . S
C3502 C3504 1.561 . S
C3502 C3505 1.526 . S
C3503 H3487 0.959 . S
C3503 H3488 0.959 . S
C3503 H3489 0.961 . S
C3503 C3502 1.502 . S
C3504 H3490 0.960 . S
C3504 H3491 0.961 . S
C3504 H3492 0.959 . S
C3504 C3502 1.561 . S
C3505 C3502 1.526 . S
C3505 C3506 1.396 . S
C3505 C3510 1.390 . S
C3506 C3500 1.465 . S
C3506 C3505 1.396 . S
C3506 C3507 1.399 . S
C3507 H3493 0.929 . S
C3507 C3506 1.399 . S
C3507 C3508 1.385 . S
C3508 H3494 0.931 . S
C3508 C3507 1.385 . S
C3508 C3509 1.389 . S
C3509 C3508 1.389 . S
C3509 C3510 1.387 . S
C3510 H3495 0.930 . S
C3510 C3505 1.390 . S
C3510 C3509 1.387 . S
H3511 C3523 0.930 . S
H3512 C3525 0.930 . S
H3513 C3526 0.930 . S
H3514 C3530 0.959 . S
H3515 C3530 0.959 . S
H3516 C3530 0.961 . S
H3517 C3531 0.960 . S
H3518 C3531 0.961 . S
H3519 C3531 0.959 . S
H3520 C3534 0.929 . S
H3521 C3535 0.931 . S
H3522 C3537 0.930 . S
C3523 H3511 0.930 . S
C3523 C3524 1.399 . S
C3523 C3528 1.399 . S
C3524 C3523 1.399 . S
C3524 C3525 1.376 . S
C3525 H3512 0.930 . S
C3525 C3524 1.376 . S
C3525 C3526 1.388 . S
C3526 H3513 0.930 . S
C3526 C3525 1.388 . S
C3526 C3527 1.390 . S
C3527 C3526 1.390 . S
C3527 C3528 1.394 . S
C3527 C3533 1.465 . S
C3528 C3523 1.399 . S
C3528 C3527 1.394 . S
C3528 C3529 1.516 . S
C3529 C3528 1.516 . S
C3529 C3530 1.502 . S
C3529 C3531 1.561 . S
C3529 C3532 1.526 . S
C3530 H3514 0.959 . S
C3530 H3515 0.959 . S
C3530 H3516 0.961 . S
C3530 C3529 1.502 . S
C3531 H3517 0.960 . S
C3531 H3518 0.961 . S
C3531 H3519 0.959 . S
C3531 C3529 1.561 . S
C3532 C3529 1.526 . S
C3532 C3533 1.396 . S
C3532 C3537 1.390 . S
C3533 C3527 1.465 . S
C3533 C3532 1.396 . S
C3533 C3534 1.399 . S
C3534 H3520 0.929 . S
C3534 C3533 1.399 . S
C3534 C3535 1.385 . S
C3535 H3521 0.931 . S
C3535 C3534 1.385 . S
C3535 C3536 1.389 . S
C3536 C3535 1.389 . S
C3536 C3537 1.387 . S
C3537 H3522 0.930 . S
C3537 C3532 1.390 . S
C3537 C3536 1.387 . S
H3538 C3550 0.930 . S
H3539 C3552 0.930 . S
H3540 C3553 0.930 . S
H3541 C3557 0.959 . S
H3542 C3557 0.959 . S
H3543 C3557 0.961 . S
H3544 C3558 0.960 . S
H3545 C3558 0.961 . S
H3546 C3558 0.959 . S
H3547 C3561 0.929 . S
H3548 C3562 0.931 . S
H3549 C3564 0.930 . S
C3550 H3538 0.930 . S
C3550 C3551 1.399 . S
C3550 C3555 1.399 . S
C3551 C3550 1.399 . S
C3551 C3552 1.376 . S
C3552 H3539 0.930 . S
C3552 C3551 1.376 . S
C3552 C3553 1.388 . S
C3553 H3540 0.930 . S
C3553 C3552 1.388 . S
C3553 C3554 1.390 . S
C3554 C3553 1.390 . S
C3554 C3555 1.394 . S
C3554 C3560 1.465 . S
C3555 C3550 1.399 . S
C3555 C3554 1.394 . S
C3555 C3556 1.516 . S
C3556 C3555 1.516 . S
C3556 C3557 1.502 . S
C3556 C3558 1.561 . S
C3556 C3559 1.526 . S
C3557 H3541 0.959 . S
C3557 H3542 0.959 . S
C3557 H3543 0.961 . S
C3557 C3556 1.502 . S
C3558 H3544 0.960 . S
C3558 H3545 0.961 . S
C3558 H3546 0.959 . S
C3558 C3556 1.561 . S
C3559 C3556 1.526 . S
C3559 C3560 1.396 . S
C3559 C3564 1.390 . S
C3560 C3554 1.465 . S
C3560 C3559 1.396 . S
C3560 C3561 1.399 . S
C3561 H3547 0.929 . S
C3561 C3560 1.399 . S
C3561 C3562 1.385 . S
C3562 H3548 0.931 . S
C3562 C3561 1.385 . S
C3562 C3563 1.389 . S
C3563 C3562 1.389 . S
C3563 C3564 1.387 . S
C3564 H3549 0.930 . S
C3564 C3559 1.390 . S
C3564 C3563 1.387 . S
H3565 C3577 0.930 . S
H3566 C3579 0.930 . S
H3567 C3580 0.930 . S
H3568 C3584 0.959 . S
H3569 C3584 0.959 . S
H3570 C3584 0.961 . S
H3571 C3585 0.960 . S
H3572 C3585 0.961 . S
H3573 C3585 0.959 . S
H3574 C3588 0.929 . S
H3575 C3589 0.931 . S
H3576 C3591 0.930 . S
C3577 H3565 0.930 . S
C3577 C3578 1.399 . S
C3577 C3582 1.399 . S
C3578 C3577 1.399 . S
C3578 C3579 1.376 . S
C3579 H3566 0.930 . S
C3579 C3578 1.376 . S
C3579 C3580 1.388 . S
C3580 H3567 0.930 . S
C3580 C3579 1.388 . S
C3580 C3581 1.390 . S
C3581 C3580 1.390 . S
C3581 C3582 1.394 . S
C3581 C3587 1.465 . S
C3582 C3577 1.399 . S
C3582 C3581 1.394 . S
C3582 C3583 1.516 . S
C3583 C3582 1.516 . S
C3583 C3584 1.502 . S
C3583 C3585 1.561 . S
C3583 C3586 1.526 . S
C3584 H3568 0.959 . S
C3584 H3569 0.959 . S
C3584 H3570 0.961 . S
C3584 C3583 1.502 . S
C3585 H3571 0.960 . S
C3585 H3572 0.961 . S
C3585 H3573 0.959 . S
C3585 C3583 1.561 . S
C3586 C3583 1.526 . S
C3586 C3587 1.396 . S
C3586 C3591 1.390 . S
C3587 C3581 1.465 . S
C3587 C3586 1.396 . S
C3587 C3588 1.399 . S
C3588 H3574 0.929 . S
C3588 C3587 1.399 . S
C3588 C3589 1.385 . S
C3589 H3575 0.931 . S
C3589 C3588 1.385 . S
C3589 C3590 1.389 . S
C3590 C3589 1.389 . S
C3590 C3591 1.387 . S
C3591 H3576 0.930 . S
C3591 C3586 1.390 . S
C3591 C3590 1.387 . S
H3592 C3604 0.930 . S
H3593 C3606 0.930 . S
H3594 C3607 0.930 . S
H3595 C3611 0.959 . S
H3596 C3611 0.959 . S
H3597 C3611 0.961 . S
H3598 C3612 0.960 . S
H3599 C3612 0.961 . S
H3600 C3612 0.959 . S
H3601 C3615 0.929 . S
H3602 C3616 0.931 . S
H3603 C3618 0.930 . S
C3604 H3592 0.930 . S
C3604 C3605 1.399 . S
C3604 C3609 1.399 . S
C3605 C3604 1.399 . S
C3605 C3606 1.376 . S
C3606 H3593 0.930 . S
C3606 C3605 1.376 . S
C3606 C3607 1.388 . S
C3607 H3594 0.930 . S
C3607 C3606 1.388 . S
C3607 C3608 1.390 . S
C3608 C3607 1.390 . S
C3608 C3609 1.394 . S
C3608 C3614 1.465 . S
C3609 C3604 1.399 . S
C3609 C3608 1.394 . S
C3609 C3610 1.516 . S
C3610 C3609 1.516 . S
C3610 C3611 1.502 . S
C3610 C3612 1.561 . S
C3610 C3613 1.526 . S
C3611 H3595 0.959 . S
C3611 H3596 0.959 . S
C3611 H3597 0.961 . S
C3611 C3610 1.502 . S
C3612 H3598 0.960 . S
C3612 H3599 0.961 . S
C3612 H3600 0.959 . S
C3612 C3610 1.561 . S
C3613 C3610 1.526 . S
C3613 C3614 1.396 . S
C3613 C3618 1.390 . S
C3614 C3608 1.465 . S
C3614 C3613 1.396 . S
C3614 C3615 1.399 . S
C3615 H3601 0.929 . S
C3615 C3614 1.399 . S
C3615 C3616 1.385 . S
C3616 H3602 0.931 . S
C3616 C3615 1.385 . S
C3616 C3617 1.389 . S
C3617 C3616 1.389 . S
C3617 C3618 1.387 . S
C3618 H3603 0.930 . S
C3618 C3613 1.390 . S
C3618 C3617 1.387 . S
H3619 C3631 0.930 . S
H3620 C3633 0.930 . S
H3621 C3634 0.930 . S
H3622 C3638 0.959 . S
H3623 C3638 0.959 1_545 S
H3624 C3638 0.960 1_545 S
H3625 C3639 0.966 . S
H3626 C3639 0.967 . S
H3627 C3639 0.955 1_565 S
H3628 C3642 0.929 . S
H3629 C3643 0.931 . S
H3630 C3645 0.930 . S
C3631 H3619 0.930 . S
C3631 C3632 1.399 . S
C3631 C3636 1.399 . S
C3632 C3631 1.399 . S
C3632 C3633 1.376 . S
C3633 H3620 0.930 . S
C3633 C3632 1.376 . S
C3633 C3634 1.388 . S
C3634 H3621 0.930 . S
C3634 C3633 1.388 . S
C3634 C3635 1.390 . S
C3635 C3634 1.390 . S
C3635 C3636 1.394 . S
C3635 C3641 1.465 . S
C3636 C3631 1.399 . S
C3636 C3635 1.394 . S
C3636 C3637 1.516 . S
C3637 C3636 1.516 . S
C3637 C3638 1.502 . S
C3637 C3639 1.553 1_565 S
C3637 C3640 1.526 . S
C3638 H3622 0.959 . S
C3638 H3623 0.959 1_565 S
C3638 H3624 0.960 1_565 S
C3638 C3637 1.502 . S
C3639 H3625 0.966 . S
C3639 H3626 0.967 . S
C3639 H3627 0.955 1_545 S
C3639 C3637 1.553 1_545 S
C3640 C3637 1.526 . S
C3640 C3641 1.396 . S
C3640 C3645 1.390 . S
C3641 C3635 1.465 . S
C3641 C3640 1.396 . S
C3641 C3642 1.399 . S
C3642 H3628 0.929 . S
C3642 C3641 1.399 . S
C3642 C3643 1.385 . S
C3643 H3629 0.931 . S
C3643 C3642 1.385 . S
C3643 C3644 1.389 . S
C3644 C3643 1.389 . S
C3644 C3645 1.387 . S
C3645 H3630 0.930 . S
C3645 C3640 1.390 . S
C3645 C3644 1.387 . S
H3646 C3658 0.930 . S
H3647 C3660 0.930 . S
H3648 C3661 0.930 . S
H3649 C3665 0.959 . S
H3650 C3665 0.959 . S
H3651 C3665 0.961 . S
H3652 C3666 0.960 . S
H3653 C3666 0.961 . S
H3654 C3666 0.959 . S
H3655 C3669 0.929 . S
H3656 C3670 0.931 . S
H3657 C3672 0.930 . S
C3658 H3646 0.930 . S
C3658 C3659 1.399 . S
C3658 C3663 1.399 . S
C3659 C3658 1.399 . S
C3659 C3660 1.376 . S
C3660 H3647 0.930 . S
C3660 C3659 1.376 . S
C3660 C3661 1.388 . S
C3661 H3648 0.930 . S
C3661 C3660 1.388 . S
C3661 C3662 1.390 . S
C3662 C3661 1.390 . S
C3662 C3663 1.394 . S
C3662 C3668 1.465 . S
C3663 C3658 1.399 . S
C3663 C3662 1.394 . S
C3663 C3664 1.516 . S
C3664 C3663 1.516 . S
C3664 C3665 1.502 . S
C3664 C3666 1.561 . S
C3664 C3667 1.526 . S
C3665 H3649 0.959 . S
C3665 H3650 0.959 . S
C3665 H3651 0.961 . S
C3665 C3664 1.502 . S
C3666 H3652 0.960 . S
C3666 H3653 0.961 . S
C3666 H3654 0.959 . S
C3666 C3664 1.561 . S
C3667 C3664 1.526 . S
C3667 C3668 1.396 . S
C3667 C3672 1.390 . S
C3668 C3662 1.465 . S
C3668 C3667 1.396 . S
C3668 C3669 1.399 . S
C3669 H3655 0.929 . S
C3669 C3668 1.399 . S
C3669 C3670 1.385 . S
C3670 H3656 0.931 . S
C3670 C3669 1.385 . S
C3670 C3671 1.389 . S
C3671 C3670 1.389 . S
C3671 C3672 1.387 . S
C3672 H3657 0.930 . S
C3672 C3667 1.390 . S
C3672 C3671 1.387 . S
H3673 C3685 0.930 . S
H3674 C3687 0.930 . S
H3675 C3688 0.930 . S
H3676 C3692 0.959 . S
H3677 C3692 0.959 . S
H3678 C3692 0.961 . S
H3679 C3693 0.960 . S
H3680 C3693 0.961 . S
H3681 C3693 0.959 . S
H3682 C3696 0.929 . S
H3683 C3697 0.931 . S
H3684 C3699 0.930 . S
C3685 H3673 0.930 . S
C3685 C3686 1.399 . S
C3685 C3690 1.399 . S
C3686 C3685 1.399 . S
C3686 C3687 1.376 . S
C3687 H3674 0.930 . S
C3687 C3686 1.376 . S
C3687 C3688 1.388 . S
C3688 H3675 0.930 . S
C3688 C3687 1.388 . S
C3688 C3689 1.390 . S
C3689 C3688 1.390 . S
C3689 C3690 1.394 . S
C3689 C3695 1.465 . S
C3690 C3685 1.399 . S
C3690 C3689 1.394 . S
C3690 C3691 1.516 . S
C3691 C3690 1.516 . S
C3691 C3692 1.502 . S
C3691 C3693 1.561 . S
C3691 C3694 1.526 . S
C3692 H3676 0.959 . S
C3692 H3677 0.959 . S
C3692 H3678 0.961 . S
C3692 C3691 1.502 . S
C3693 H3679 0.960 . S
C3693 H3680 0.961 . S
C3693 H3681 0.959 . S
C3693 C3691 1.561 . S
C3694 C3691 1.526 . S
C3694 C3695 1.396 . S
C3694 C3699 1.390 . S
C3695 C3689 1.465 . S
C3695 C3694 1.396 . S
C3695 C3696 1.399 . S
C3696 H3682 0.929 . S
C3696 C3695 1.399 . S
C3696 C3697 1.385 . S
C3697 H3683 0.931 . S
C3697 C3696 1.385 . S
C3697 C3698 1.389 . S
C3698 C3697 1.389 . S
C3698 C3699 1.387 . S
C3699 H3684 0.930 . S
C3699 C3694 1.390 . S
C3699 C3698 1.387 . S
H3700 C3712 0.930 . S
H3701 C3714 0.930 . S
H3702 C3715 0.930 . S
H3703 C3719 0.959 . S
H3704 C3719 0.959 . S
H3705 C3719 0.961 . S
H3706 C3720 0.960 . S
H3707 C3720 0.961 . S
H3708 C3720 0.959 . S
H3709 C3723 0.929 . S
H3710 C3724 0.931 . S
H3711 C3726 0.930 . S
C3712 H3700 0.930 . S
C3712 C3713 1.399 . S
C3712 C3717 1.399 . S
C3713 C3712 1.399 . S
C3713 C3714 1.376 . S
C3714 H3701 0.930 . S
C3714 C3713 1.376 . S
C3714 C3715 1.388 . S
C3715 H3702 0.930 . S
C3715 C3714 1.388 . S
C3715 C3716 1.390 . S
C3716 C3715 1.390 . S
C3716 C3717 1.394 . S
C3716 C3722 1.465 . S
C3717 C3712 1.399 . S
C3717 C3716 1.394 . S
C3717 C3718 1.516 . S
C3718 C3717 1.516 . S
C3718 C3719 1.502 . S
C3718 C3720 1.561 . S
C3718 C3721 1.526 . S
C3719 H3703 0.959 . S
C3719 H3704 0.959 . S
C3719 H3705 0.961 . S
C3719 C3718 1.502 . S
C3720 H3706 0.960 . S
C3720 H3707 0.961 . S
C3720 H3708 0.959 . S
C3720 C3718 1.561 . S
C3721 C3718 1.526 . S
C3721 C3722 1.396 . S
C3721 C3726 1.390 . S
C3722 C3716 1.465 . S
C3722 C3721 1.396 . S
C3722 C3723 1.399 . S
C3723 H3709 0.929 . S
C3723 C3722 1.399 . S
C3723 C3724 1.385 . S
C3724 H3710 0.931 . S
C3724 C3723 1.385 . S
C3724 C3725 1.389 . S
C3725 C3724 1.389 . S
C3725 C3726 1.387 . S
C3726 H3711 0.930 . S
C3726 C3721 1.390 . S
C3726 C3725 1.387 . S
H3727 C3739 0.930 . S
H3728 C3741 0.930 . S
H3729 C3742 0.930 . S
H3730 C3746 0.959 . S
H3731 C3746 0.959 . S
H3732 C3746 0.961 . S
H3733 C3747 0.960 . S
H3734 C3747 0.961 . S
H3735 C3747 0.959 . S
H3736 C3750 0.929 . S
H3737 C3751 0.931 . S
H3738 C3753 0.930 . S
C3739 H3727 0.930 . S
C3739 C3740 1.399 . S
C3739 C3744 1.399 . S
C3740 C3739 1.399 . S
C3740 C3741 1.376 . S
C3741 H3728 0.930 . S
C3741 C3740 1.376 . S
C3741 C3742 1.388 . S
C3742 H3729 0.930 . S
C3742 C3741 1.388 . S
C3742 C3743 1.390 . S
C3743 C3742 1.390 . S
C3743 C3744 1.394 . S
C3743 C3749 1.465 . S
C3744 C3739 1.399 . S
C3744 C3743 1.394 . S
C3744 C3745 1.516 . S
C3745 C3744 1.516 . S
C3745 C3746 1.502 . S
C3745 C3747 1.561 . S
C3745 C3748 1.526 . S
C3746 H3730 0.959 . S
C3746 H3731 0.959 . S
C3746 H3732 0.961 . S
C3746 C3745 1.502 . S
C3747 H3733 0.960 . S
C3747 H3734 0.961 . S
C3747 H3735 0.959 . S
C3747 C3745 1.561 . S
C3748 C3745 1.526 . S
C3748 C3749 1.396 . S
C3748 C3753 1.390 . S
C3749 C3743 1.465 . S
C3749 C3748 1.396 . S
C3749 C3750 1.399 . S
C3750 H3736 0.929 . S
C3750 C3749 1.399 . S
C3750 C3751 1.385 . S
C3751 H3737 0.931 . S
C3751 C3750 1.385 . S
C3751 C3752 1.389 . S
C3752 C3751 1.389 . S
C3752 C3753 1.387 . S
C3753 H3738 0.930 . S
C3753 C3748 1.390 . S
C3753 C3752 1.387 . S
H3754 C3766 0.930 . S
H3755 C3768 0.930 . S
H3756 C3769 0.930 . S
H3757 C3773 0.959 . S
H3758 C3773 0.959 . S
H3759 C3773 0.961 . S
H3760 C3774 0.960 . S
H3761 C3774 0.961 . S
H3762 C3774 0.959 . S
H3763 C3777 0.929 . S
H3764 C3778 0.931 . S
H3765 C3780 0.930 . S
C3766 H3754 0.930 . S
C3766 C3767 1.399 . S
C3766 C3771 1.399 . S
C3767 C3766 1.399 . S
C3767 C3768 1.376 . S
C3768 H3755 0.930 . S
C3768 C3767 1.376 . S
C3768 C3769 1.388 . S
C3769 H3756 0.930 . S
C3769 C3768 1.388 . S
C3769 C3770 1.390 . S
C3770 C3769 1.390 . S
C3770 C3771 1.394 . S
C3770 C3776 1.465 . S
C3771 C3766 1.399 . S
C3771 C3770 1.394 . S
C3771 C3772 1.516 . S
C3772 C3771 1.516 . S
C3772 C3773 1.502 . S
C3772 C3774 1.561 . S
C3772 C3775 1.526 . S
C3773 H3757 0.959 . S
C3773 H3758 0.959 . S
C3773 H3759 0.961 . S
C3773 C3772 1.502 . S
C3774 H3760 0.960 . S
C3774 H3761 0.961 . S
C3774 H3762 0.959 . S
C3774 C3772 1.561 . S
C3775 C3772 1.526 . S
C3775 C3776 1.396 . S
C3775 C3780 1.390 . S
C3776 C3770 1.465 . S
C3776 C3775 1.396 . S
C3776 C3777 1.399 . S
C3777 H3763 0.929 . S
C3777 C3776 1.399 . S
C3777 C3778 1.385 . S
C3778 H3764 0.931 . S
C3778 C3777 1.385 . S
C3778 C3779 1.389 . S
C3779 C3778 1.389 . S
C3779 C3780 1.387 . S
C3780 H3765 0.930 . S
C3780 C3775 1.390 . S
C3780 C3779 1.387 . S
H3781 C3793 0.930 . S
H3782 C3795 0.930 . S
H3783 C3796 0.930 . S
H3784 C3800 0.959 . S
H3785 C3800 0.959 . S
H3786 C3800 0.961 . S
H3787 C3801 0.960 . S
H3788 C3801 0.961 . S
H3789 C3801 0.959 . S
H3790 C3804 0.929 . S
H3791 C3805 0.931 . S
H3792 C3807 0.930 . S
C3793 H3781 0.930 . S
C3793 C3794 1.399 . S
C3793 C3798 1.399 . S
C3794 C3793 1.399 . S
C3794 C3795 1.376 . S
C3795 H3782 0.930 . S
C3795 C3794 1.376 . S
C3795 C3796 1.388 . S
C3796 H3783 0.930 . S
C3796 C3795 1.388 . S
C3796 C3797 1.390 . S
C3797 C3796 1.390 . S
C3797 C3798 1.394 . S
C3797 C3803 1.465 . S
C3798 C3793 1.399 . S
C3798 C3797 1.394 . S
C3798 C3799 1.516 . S
C3799 C3798 1.516 . S
C3799 C3800 1.502 . S
C3799 C3801 1.561 . S
C3799 C3802 1.526 . S
C3800 H3784 0.959 . S
C3800 H3785 0.959 . S
C3800 H3786 0.961 . S
C3800 C3799 1.502 . S
C3801 H3787 0.960 . S
C3801 H3788 0.961 . S
C3801 H3789 0.959 . S
C3801 C3799 1.561 . S
C3802 C3799 1.526 . S
C3802 C3803 1.396 . S
C3802 C3807 1.390 . S
C3803 C3797 1.465 . S
C3803 C3802 1.396 . S
C3803 C3804 1.399 . S
C3804 H3790 0.929 . S
C3804 C3803 1.399 . S
C3804 C3805 1.385 . S
C3805 H3791 0.931 . S
C3805 C3804 1.385 . S
C3805 C3806 1.389 . S
C3806 C3805 1.389 . S
C3806 C3807 1.387 . S
C3807 H3792 0.930 . S
C3807 C3802 1.390 . S
C3807 C3806 1.387 . S
H3808 C3820 0.929 . S
H3809 C3822 0.930 . S
H3810 C3823 0.930 . S
H3811 C3827 0.959 . S
H3812 C3827 0.959 . S
H3813 C3827 0.961 . S
H3814 C3828 0.960 . S
H3815 C3828 0.961 . S
H3816 C3828 0.959 . S
H3817 C3831 0.929 . S
H3818 C3832 0.931 1_655 S
H3819 C3834 0.949 . S
C3820 H3808 0.929 . S
C3820 C3821 1.399 . S
C3820 C3825 1.399 . S
C3821 C3820 1.399 . S
C3821 C3822 1.376 1_556 S
C3822 H3809 0.930 . S
C3822 C3821 1.376 1_554 S
C3822 C3823 1.388 . S
C3823 H3810 0.930 . S
C3823 C3822 1.388 . S
C3823 C3824 1.390 . S
C3824 C3823 1.390 . S
C3824 C3825 1.394 1_554 S
C3824 C3830 1.465 . S
C3825 C3820 1.399 . S
C3825 C3824 1.394 1_556 S
C3825 C3826 1.513 1_655 S
C3826 C3825 1.513 1_455 S
C3826 C3827 1.526 . S
C3826 C3828 1.537 1_455 S
C3826 C3829 1.525 . S
C3827 H3811 0.959 . S
C3827 H3812 0.959 . S
C3827 H3813 0.961 . S
C3827 C3826 1.526 . S
C3828 H3814 0.960 . S
C3828 H3815 0.961 . S
C3828 H3816 0.959 . S
C3828 C3826 1.537 1_655 S
C3829 C3826 1.525 . S
C3829 C3830 1.386 1_456 S
C3829 C3834 1.405 . S
C3830 C3824 1.465 . S
C3830 C3829 1.386 1_654 S
C3830 C3831 1.399 . S
C3831 H3817 0.929 . S
C3831 C3830 1.399 . S
C3831 C3832 1.384 1_655 S
C3832 H3818 0.931 1_455 S
C3832 C3831 1.384 1_455 S
C3832 C3833 1.390 . S
C3833 C3832 1.390 . S
C3833 C3834 1.364 1_554 S
C3834 H3819 0.949 . S
C3834 C3829 1.405 . S
C3834 C3833 1.364 1_556 S
H3835 C3847 0.930 . S
H3836 C3849 0.930 . S
H3837 C3850 0.930 . S
H3838 C3854 0.959 . S
H3839 C3854 0.959 . S
H3840 C3854 0.961 . S
H3841 C3855 0.960 . S
H3842 C3855 0.961 . S
H3843 C3855 0.959 . S
H3844 C3858 0.929 . S
H3845 C3859 0.931 . S
H3846 C3861 0.915 1_554 S
C3847 H3835 0.930 . S
C3847 C3848 1.399 . S
C3847 C3852 1.399 . S
C3848 C3847 1.399 . S
C3848 C3849 1.376 1_554 S
C3849 H3836 0.930 . S
C3849 C3848 1.376 1_556 S
C3849 C3850 1.388 . S
C3850 H3837 0.930 . S
C3850 C3849 1.388 . S
C3850 C3851 1.390 . S
C3851 C3850 1.390 . S
C3851 C3852 1.394 1_556 S
C3851 C3857 1.465 . S
C3852 C3847 1.399 . S
C3852 C3851 1.394 1_554 S
C3852 C3853 1.516 . S
C3853 C3852 1.516 . S
C3853 C3854 1.502 . S
C3853 C3855 1.561 . S
C3853 C3856 1.526 . S
C3854 H3838 0.959 . S
C3854 H3839 0.959 . S
C3854 H3840 0.961 . S
C3854 C3853 1.502 . S
C3855 H3841 0.960 . S
C3855 H3842 0.961 . S
C3855 H3843 0.959 . S
C3855 C3853 1.561 . S
C3856 C3853 1.526 . S
C3856 C3857 1.396 1_554 S
C3856 C3861 1.386 1_554 S
C3857 C3851 1.465 . S
C3857 C3856 1.396 1_556 S
C3857 C3858 1.399 . S
C3858 H3844 0.929 . S
C3858 C3857 1.399 . S
C3858 C3859 1.385 . S
C3859 H3845 0.931 . S
C3859 C3858 1.385 . S
C3859 C3860 1.389 . S
C3860 C3859 1.389 . S
C3860 C3861 1.406 . S
C3861 H3846 0.915 1_556 S
C3861 C3856 1.386 1_556 S
C3861 C3860 1.406 . S
H3862 C3874 0.952 . S
H3863 C3876 0.930 . S
H3864 C3877 0.930 . S
H3865 C3881 0.959 . S
H3866 C3881 0.959 . S
H3867 C3881 0.961 . S
H3868 C3882 0.960 . S
H3869 C3882 0.961 . S
H3870 C3882 0.959 . S
H3871 C3885 0.929 . S
H3872 C3886 0.931 . S
H3873 C3888 0.930 . S
C3874 H3862 0.952 . S
C3874 C3875 1.381 1_655 S
C3874 C3879 1.398 . S
C3875 C3874 1.381 1_455 S
C3875 C3876 1.376 . S
C3876 H3863 0.930 . S
C3876 C3875 1.376 . S
C3876 C3877 1.388 . S
C3877 H3864 0.930 . S
C3877 C3876 1.388 . S
C3877 C3878 1.390 . S
C3878 C3877 1.390 . S
C3878 C3879 1.388 1_455 S
C3878 C3884 1.465 . S
C3879 C3874 1.398 . S
C3879 C3878 1.388 1_655 S
C3879 C3880 1.520 . S
C3880 C3879 1.520 . S
C3880 C3881 1.502 . S
C3880 C3882 1.561 1_655 S
C3880 C3883 1.526 . S
C3881 H3865 0.959 . S
C3881 H3866 0.959 . S
C3881 H3867 0.961 . S
C3881 C3880 1.502 . S
C3882 H3868 0.960 . S
C3882 H3869 0.961 . S
C3882 H3870 0.959 . S
C3882 C3880 1.561 1_455 S
C3883 C3880 1.526 . S
C3883 C3884 1.396 1_655 S
C3883 C3888 1.390 . S
C3884 C3878 1.465 . S
C3884 C3883 1.396 1_455 S
C3884 C3885 1.399 . S
C3885 H3871 0.929 . S
C3885 C3884 1.399 . S
C3885 C3886 1.385 . S
C3886 H3872 0.931 . S
C3886 C3885 1.385 . S
C3886 C3887 1.389 1_455 S
C3887 C3886 1.389 1_655 S
C3887 C3888 1.387 . S
C3888 H3873 0.930 . S
C3888 C3883 1.390 . S
C3888 C3887 1.387 . S
H3889 C3901 0.930 . S
H3890 C3903 0.930 . S
H3891 C3904 0.930 . S
H3892 C3908 0.959 . S
H3893 C3908 0.959 . S
H3894 C3908 0.961 . S
H3895 C3909 0.960 . S
H3896 C3909 0.961 . S
H3897 C3909 0.959 . S
H3898 C3912 0.929 . S
H3899 C3913 0.931 . S
H3900 C3915 0.930 . S
C3901 H3889 0.930 . S
C3901 C3902 1.399 . S
C3901 C3906 1.399 . S
C3902 C3901 1.399 . S
C3902 C3903 1.376 . S
C3903 H3890 0.930 . S
C3903 C3902 1.376 . S
C3903 C3904 1.388 . S
C3904 H3891 0.930 . S
C3904 C3903 1.388 . S
C3904 C3905 1.390 . S
C3905 C3904 1.390 . S
C3905 C3906 1.394 . S
C3905 C3911 1.465 . S
C3906 C3901 1.399 . S
C3906 C3905 1.394 . S
C3906 C3907 1.516 . S
C3907 C3906 1.516 . S
C3907 C3908 1.502 . S
C3907 C3909 1.561 . S
C3907 C3910 1.526 . S
C3908 H3892 0.959 . S
C3908 H3893 0.959 . S
C3908 H3894 0.961 . S
C3908 C3907 1.502 . S
C3909 H3895 0.960 . S
C3909 H3896 0.961 . S
C3909 H3897 0.959 . S
C3909 C3907 1.561 . S
C3910 C3907 1.526 . S
C3910 C3911 1.396 . S
C3910 C3915 1.390 . S
C3911 C3905 1.465 . S
C3911 C3910 1.396 . S
C3911 C3912 1.399 . S
C3912 H3898 0.929 . S
C3912 C3911 1.399 . S
C3912 C3913 1.385 . S
C3913 H3899 0.931 . S
C3913 C3912 1.385 . S
C3913 C3914 1.389 . S
C3914 C3913 1.389 . S
C3914 C3915 1.387 . S
C3915 H3900 0.930 . S
C3915 C3910 1.390 . S
C3915 C3914 1.387 . S
H3916 C3928 0.930 . S
H3917 C3930 0.930 . S
H3918 C3931 0.930 . S
H3919 C3935 0.959 . S
H3920 C3935 0.959 . S
H3921 C3935 0.961 . S
H3922 C3936 0.960 . S
H3923 C3936 0.961 . S
H3924 C3936 0.959 . S
H3925 C3939 0.929 . S
H3926 C3940 0.931 . S
H3927 C3942 0.930 1_556 S
C3928 H3916 0.930 . S
C3928 C3929 1.399 . S
C3928 C3933 1.399 . S
C3929 C3928 1.399 . S
C3929 C3930 1.376 1_556 S
C3930 H3917 0.930 . S
C3930 C3929 1.376 1_554 S
C3930 C3931 1.388 . S
C3931 H3918 0.930 . S
C3931 C3930 1.388 . S
C3931 C3932 1.390 . S
C3932 C3931 1.390 . S
C3932 C3933 1.394 1_554 S
C3932 C3938 1.465 . S
C3933 C3928 1.399 . S
C3933 C3932 1.394 1_556 S
C3933 C3934 1.516 . S
C3934 C3933 1.516 . S
C3934 C3935 1.502 . S
C3934 C3936 1.561 . S
C3934 C3937 1.526 . S
C3935 H3919 0.959 . S
C3935 H3920 0.959 . S
C3935 H3921 0.961 . S
C3935 C3934 1.502 . S
C3936 H3922 0.960 . S
C3936 H3923 0.961 . S
C3936 H3924 0.959 . S
C3936 C3934 1.561 . S
C3937 C3934 1.526 . S
C3937 C3938 1.396 1_556 S
C3937 C3942 1.390 1_556 S
C3938 C3932 1.465 . S
C3938 C3937 1.396 1_554 S
C3938 C3939 1.399 . S
C3939 H3925 0.929 . S
C3939 C3938 1.399 . S
C3939 C3940 1.385 . S
C3940 H3926 0.931 . S
C3940 C3939 1.385 . S
C3940 C3941 1.389 . S
C3941 C3940 1.389 . S
C3941 C3942 1.387 . S
C3942 H3927 0.930 1_554 S
C3942 C3937 1.390 1_554 S
C3942 C3941 1.387 . S
H3943 C3955 0.930 . S
H3944 C3957 0.930 . S
H3945 C3958 0.930 . S
H3946 C3962 0.959 . S
H3947 C3962 0.959 . S
H3948 C3962 0.961 . S
H3949 C3963 0.960 . S
H3950 C3963 0.961 . S
H3951 C3963 0.959 . S
H3952 C3966 0.929 . S
H3953 C3967 0.931 . S
H3954 C3969 0.936 . S
C3955 H3943 0.930 . S
C3955 C3956 1.399 . S
C3955 C3960 1.399 . S
C3956 C3955 1.399 . S
C3956 C3957 1.376 1_655 S
C3957 H3944 0.930 . S
C3957 C3956 1.376 1_455 S
C3957 C3958 1.388 . S
C3958 H3945 0.930 . S
C3958 C3957 1.388 . S
C3958 C3959 1.390 . S
C3959 C3958 1.390 . S
C3959 C3960 1.394 1_455 S
C3959 C3965 1.465 . S
C3960 C3955 1.399 . S
C3960 C3959 1.394 1_655 S
C3960 C3961 1.516 . S
C3961 C3960 1.516 . S
C3961 C3962 1.502 . S
C3961 C3963 1.561 1_655 S
C3961 C3964 1.525 . S
C3962 H3946 0.959 . S
C3962 H3947 0.959 . S
C3962 H3948 0.961 . S
C3962 C3961 1.502 . S
C3963 H3949 0.960 . S
C3963 H3950 0.961 . S
C3963 H3951 0.959 . S
C3963 C3961 1.561 1_455 S
C3964 C3961 1.525 . S
C3964 C3965 1.397 1_655 S
C3964 C3969 1.389 . S
C3965 C3959 1.465 . S
C3965 C3964 1.397 1_455 S
C3965 C3966 1.399 . S
C3966 H3952 0.929 . S
C3966 C3965 1.399 . S
C3966 C3967 1.385 . S
C3967 H3953 0.931 . S
C3967 C3966 1.385 . S
C3967 C3968 1.389 . S
C3968 C3967 1.389 . S
C3968 C3969 1.381 1_455 S
C3969 H3954 0.936 . S
C3969 C3964 1.389 . S
C3969 C3968 1.381 1_655 S
H3970 C3982 0.930 . S
H3971 C3984 0.930 . S
H3972 C3985 0.930 . S
H3973 C3989 0.959 . S
H3974 C3989 0.959 . S
H3975 C3989 0.961 . S
H3976 C3990 0.960 . S
H3977 C3990 0.961 . S
H3978 C3990 0.959 . S
H3979 C3993 0.929 . S
H3980 C3994 0.931 . S
H3981 C3996 0.930 . S
C3982 H3970 0.930 . S
C3982 C3983 1.399 . S
C3982 C3987 1.399 . S
C3983 C3982 1.399 . S
C3983 C3984 1.376 . S
C3984 H3971 0.930 . S
C3984 C3983 1.376 . S
C3984 C3985 1.388 . S
C3985 H3972 0.930 . S
C3985 C3984 1.388 . S
C3985 C3986 1.390 . S
C3986 C3985 1.390 . S
C3986 C3987 1.394 . S
C3986 C3992 1.465 . S
C3987 C3982 1.399 . S
C3987 C3986 1.394 . S
C3987 C3988 1.516 . S
C3988 C3987 1.516 . S
C3988 C3989 1.502 . S
C3988 C3990 1.561 . S
C3988 C3991 1.526 . S
C3989 H3973 0.959 . S
C3989 H3974 0.959 . S
C3989 H3975 0.961 . S
C3989 C3988 1.502 . S
C3990 H3976 0.960 . S
C3990 H3977 0.961 . S
C3990 H3978 0.959 . S
C3990 C3988 1.561 . S
C3991 C3988 1.526 . S
C3991 C3992 1.396 . S
C3991 C3996 1.390 . S
C3992 C3986 1.465 . S
C3992 C3991 1.396 . S
C3992 C3993 1.399 . S
C3993 H3979 0.929 . S
C3993 C3992 1.399 . S
C3993 C3994 1.385 . S
C3994 H3980 0.931 . S
C3994 C3993 1.385 . S
C3994 C3995 1.389 . S
C3995 C3994 1.389 . S
C3995 C3996 1.387 . S
C3996 H3981 0.930 . S
C3996 C3991 1.390 . S
C3996 C3995 1.387 . S
H3997 C4009 0.930 . S
H3998 C4011 0.930 . S
H3999 C4012 0.930 . S
H4000 C4016 0.959 . S
H4001 C4016 0.959 . S
H4002 C4016 0.961 . S
H4003 C4017 0.960 . S
H4004 C4017 0.961 . S
H4005 C4017 0.959 . S
H4006 C4020 0.929 . S
H4007 C4021 0.931 . S
H4008 C4023 0.930 . S
C4009 H3997 0.930 . S
C4009 C4010 1.399 1_655 S
C4009 C4014 1.403 . S
C4010 C4009 1.399 1_455 S
C4010 C4011 1.376 . S
C4011 H3998 0.930 . S
C4011 C4010 1.376 . S
C4011 C4012 1.388 . S
C4012 H3999 0.930 . S
C4012 C4011 1.388 . S
C4012 C4013 1.390 . S
C4013 C4012 1.390 . S
C4013 C4014 1.368 1_455 S
C4013 C4019 1.465 1_545 S
C4014 C4009 1.403 . S
C4014 C4013 1.368 1_655 S
C4014 C4015 1.538 . S
C4015 C4014 1.538 . S
C4015 C4016 1.502 . S
C4015 C4017 1.561 1_655 S
C4015 C4018 1.526 1_545 S
C4016 H4000 0.959 . S
C4016 H4001 0.959 . S
C4016 H4002 0.961 . S
C4016 C4015 1.502 . S
C4017 H4003 0.960 . S
C4017 H4004 0.961 . S
C4017 H4005 0.959 . S
C4017 C4015 1.561 1_455 S
C4018 C4015 1.526 1_565 S
C4018 C4019 1.396 1_655 S
C4018 C4023 1.390 . S
C4019 C4013 1.465 1_565 S
C4019 C4018 1.396 1_455 S
C4019 C4020 1.399 . S
C4020 H4006 0.929 . S
C4020 C4019 1.399 . S
C4020 C4021 1.385 . S
C4021 H4007 0.931 . S
C4021 C4020 1.385 . S
C4021 C4022 1.389 1_455 S
C4022 C4021 1.389 1_655 S
C4022 C4023 1.387 . S
C4023 H4008 0.930 . S
C4023 C4018 1.390 . S
C4023 C4022 1.387 . S
H4024 C4036 0.930 . S
H4025 C4038 0.930 . S
H4026 C4039 0.930 . S
H4027 C4043 0.959 . S
H4028 C4043 0.959 . S
H4029 C4043 0.961 . S
H4030 C4044 0.960 . S
H4031 C4044 0.961 . S
H4032 C4044 0.959 . S
H4033 C4047 0.929 . S
H4034 C4048 0.931 . S
H4035 C4050 0.930 . S
C4036 H4024 0.930 . S
C4036 C4037 1.399 . S
C4036 C4041 1.399 . S
C4037 C4036 1.399 . S
C4037 C4038 1.376 . S
C4038 H4025 0.930 . S
C4038 C4037 1.376 . S
C4038 C4039 1.388 . S
C4039 H4026 0.930 . S
C4039 C4038 1.388 . S
C4039 C4040 1.390 . S
C4040 C4039 1.390 . S
C4040 C4041 1.394 . S
C4040 C4046 1.465 . S
C4041 C4036 1.399 . S
C4041 C4040 1.394 . S
C4041 C4042 1.516 . S
C4042 C4041 1.516 . S
C4042 C4043 1.502 . S
C4042 C4044 1.561 . S
C4042 C4045 1.526 . S
C4043 H4027 0.959 . S
C4043 H4028 0.959 . S
C4043 H4029 0.961 . S
C4043 C4042 1.502 . S
C4044 H4030 0.960 . S
C4044 H4031 0.961 . S
C4044 H4032 0.959 . S
C4044 C4042 1.561 . S
C4045 C4042 1.526 . S
C4045 C4046 1.396 . S
C4045 C4050 1.390 . S
C4046 C4040 1.465 . S
C4046 C4045 1.396 . S
C4046 C4047 1.399 . S
C4047 H4033 0.929 . S
C4047 C4046 1.399 . S
C4047 C4048 1.385 . S
C4048 H4034 0.931 . S
C4048 C4047 1.385 . S
C4048 C4049 1.389 . S
C4049 C4048 1.389 . S
C4049 C4050 1.387 . S
C4050 H4035 0.930 . S
C4050 C4045 1.390 . S
C4050 C4049 1.387 . S
H4051 C4063 0.930 . S
H4052 C4065 0.930 . S
H4053 C4066 0.930 . S
H4054 C4070 0.959 . S
H4055 C4070 0.959 1_545 S
H4056 C4070 0.961 . S
H4057 C4071 0.960 . S
H4058 C4071 0.961 . S
H4059 C4071 0.959 . S
H4060 C4074 0.929 . S
H4061 C4075 0.931 . S
H4062 C4077 0.930 . S
C4063 H4051 0.930 . S
C4063 C4064 1.399 . S
C4063 C4068 1.399 . S
C4064 C4063 1.399 . S
C4064 C4065 1.376 . S
C4065 H4052 0.930 . S
C4065 C4064 1.376 . S
C4065 C4066 1.388 . S
C4066 H4053 0.930 . S
C4066 C4065 1.388 . S
C4066 C4067 1.390 . S
C4067 C4066 1.390 . S
C4067 C4068 1.394 . S
C4067 C4073 1.465 1_565 S
C4068 C4063 1.399 . S
C4068 C4067 1.394 . S
C4068 C4069 1.516 . S
C4069 C4068 1.516 . S
C4069 C4070 1.502 . S
C4069 C4071 1.561 . S
C4069 C4072 1.526 1_565 S
C4070 H4054 0.959 . S
C4070 H4055 0.959 1_565 S
C4070 H4056 0.961 . S
C4070 C4069 1.502 . S
C4071 H4057 0.960 . S
C4071 H4058 0.961 . S
C4071 H4059 0.959 . S
C4071 C4069 1.561 . S
C4072 C4069 1.526 1_545 S
C4072 C4073 1.396 . S
C4072 C4077 1.390 . S
C4073 C4067 1.465 1_545 S
C4073 C4072 1.396 . S
C4073 C4074 1.399 . S
C4074 H4060 0.929 . S
C4074 C4073 1.399 . S
C4074 C4075 1.385 . S
C4075 H4061 0.931 . S
C4075 C4074 1.385 . S
C4075 C4076 1.389 . S
C4076 C4075 1.389 . S
C4076 C4077 1.387 . S
C4077 H4062 0.930 . S
C4077 C4072 1.390 . S
C4077 C4076 1.387 . S
H4078 C4090 0.930 . S
H4079 C4092 0.930 . S
H4080 C4093 0.930 . S
H4081 C4097 0.959 . S
H4082 C4097 0.959 . S
H4083 C4097 0.961 . S
H4084 C4098 0.960 . S
H4085 C4098 0.961 . S
H4086 C4098 0.959 . S
H4087 C4101 0.929 . S
H4088 C4102 0.931 . S
H4089 C4104 0.930 . S
C4090 H4078 0.930 . S
C4090 C4091 1.399 . S
C4090 C4095 1.399 . S
C4091 C4090 1.399 . S
C4091 C4092 1.376 . S
C4092 H4079 0.930 . S
C4092 C4091 1.376 . S
C4092 C4093 1.388 . S
C4093 H4080 0.930 . S
C4093 C4092 1.388 . S
C4093 C4094 1.390 . S
C4094 C4093 1.390 . S
C4094 C4095 1.394 . S
C4094 C4100 1.465 . S
C4095 C4090 1.399 . S
C4095 C4094 1.394 . S
C4095 C4096 1.516 . S
C4096 C4095 1.516 . S
C4096 C4097 1.502 . S
C4096 C4098 1.561 . S
C4096 C4099 1.526 . S
C4097 H4081 0.959 . S
C4097 H4082 0.959 . S
C4097 H4083 0.961 . S
C4097 C4096 1.502 . S
C4098 H4084 0.960 . S
C4098 H4085 0.961 . S
C4098 H4086 0.959 . S
C4098 C4096 1.561 . S
C4099 C4096 1.526 . S
C4099 C4100 1.396 . S
C4099 C4104 1.390 . S
C4100 C4094 1.465 . S
C4100 C4099 1.396 . S
C4100 C4101 1.399 . S
C4101 H4087 0.929 . S
C4101 C4100 1.399 . S
C4101 C4102 1.385 . S
C4102 H4088 0.931 . S
C4102 C4101 1.385 . S
C4102 C4103 1.389 . S
C4103 C4102 1.389 . S
C4103 C4104 1.387 . S
C4104 H4089 0.930 . S
C4104 C4099 1.390 . S
C4104 C4103 1.387 . S
H4105 C4117 0.930 . S
H4106 C4119 0.930 . S
H4107 C4120 0.930 . S
H4108 C4124 0.959 . S
H4109 C4124 0.959 . S
H4110 C4124 0.961 . S
H4111 C4125 0.960 . S
H4112 C4125 0.961 . S
H4113 C4125 0.959 . S
H4114 C4128 0.929 . S
H4115 C4129 0.931 . S
H4116 C4131 0.930 . S
C4117 H4105 0.930 . S
C4117 C4118 1.399 . S
C4117 C4122 1.399 . S
C4118 C4117 1.399 . S
C4118 C4119 1.376 . S
C4119 H4106 0.930 . S
C4119 C4118 1.376 . S
C4119 C4120 1.388 . S
C4120 H4107 0.930 . S
C4120 C4119 1.388 . S
C4120 C4121 1.390 . S
C4121 C4120 1.390 . S
C4121 C4122 1.394 . S
C4121 C4127 1.465 1_565 S
C4122 C4117 1.399 . S
C4122 C4121 1.394 . S
C4122 C4123 1.516 . S
C4123 C4122 1.516 . S
C4123 C4124 1.502 . S
C4123 C4125 1.561 . S
C4123 C4126 1.526 1_565 S
C4124 H4108 0.959 . S
C4124 H4109 0.959 . S
C4124 H4110 0.961 . S
C4124 C4123 1.502 . S
C4125 H4111 0.960 . S
C4125 H4112 0.961 . S
C4125 H4113 0.959 . S
C4125 C4123 1.561 . S
C4126 C4123 1.526 1_545 S
C4126 C4127 1.396 . S
C4126 C4131 1.390 . S
C4127 C4121 1.465 1_545 S
C4127 C4126 1.396 . S
C4127 C4128 1.399 . S
C4128 H4114 0.929 . S
C4128 C4127 1.399 . S
C4128 C4129 1.385 . S
C4129 H4115 0.931 . S
C4129 C4128 1.385 . S
C4129 C4130 1.389 . S
C4130 C4129 1.389 . S
C4130 C4131 1.387 . S
C4131 H4116 0.930 . S
C4131 C4126 1.390 . S
C4131 C4130 1.387 . S
H4132 C4144 0.930 . S
H4133 C4146 0.930 . S
H4134 C4147 0.930 . S
H4135 C4151 0.959 . S
H4136 C4151 0.959 . S
H4137 C4151 0.961 . S
H4138 C4152 0.960 . S
H4139 C4152 0.961 . S
H4140 C4152 0.959 . S
H4141 C4155 0.929 . S
H4142 C4156 0.931 . S
H4143 C4158 0.930 . S
C4144 H4132 0.930 . S
C4144 C4145 1.399 . S
C4144 C4149 1.399 . S
C4145 C4144 1.399 . S
C4145 C4146 1.376 . S
C4146 H4133 0.930 . S
C4146 C4145 1.376 . S
C4146 C4147 1.388 . S
C4147 H4134 0.930 . S
C4147 C4146 1.388 . S
C4147 C4148 1.390 . S
C4148 C4147 1.390 . S
C4148 C4149 1.394 . S
C4148 C4154 1.465 . S
C4149 C4144 1.399 . S
C4149 C4148 1.394 . S
C4149 C4150 1.516 . S
C4150 C4149 1.516 . S
C4150 C4151 1.502 . S
C4150 C4152 1.561 . S
C4150 C4153 1.526 . S
C4151 H4135 0.959 . S
C4151 H4136 0.959 . S
C4151 H4137 0.961 . S
C4151 C4150 1.502 . S
C4152 H4138 0.960 . S
C4152 H4139 0.961 . S
C4152 H4140 0.959 . S
C4152 C4150 1.561 . S
C4153 C4150 1.526 . S
C4153 C4154 1.396 . S
C4153 C4158 1.390 . S
C4154 C4148 1.465 . S
C4154 C4153 1.396 . S
C4154 C4155 1.399 . S
C4155 H4141 0.929 . S
C4155 C4154 1.399 . S
C4155 C4156 1.385 . S
C4156 H4142 0.931 . S
C4156 C4155 1.385 . S
C4156 C4157 1.389 . S
C4157 C4156 1.389 . S
C4157 C4158 1.387 . S
C4158 H4143 0.930 . S
C4158 C4153 1.390 . S
C4158 C4157 1.387 . S
H4159 C4171 0.930 . S
H4160 C4173 0.930 . S
H4161 C4174 0.930 . S
H4162 C4178 0.959 . S
H4163 C4178 0.959 . S
H4164 C4178 0.961 . S
H4165 C4179 0.960 . S
H4166 C4179 0.961 . S
H4167 C4179 0.959 . S
H4168 C4182 0.929 . S
H4169 C4183 0.931 . S
H4170 C4185 0.930 . S
C4171 H4159 0.930 . S
C4171 C4172 1.399 . S
C4171 C4176 1.399 . S
C4172 C4171 1.399 . S
C4172 C4173 1.376 . S
C4173 H4160 0.930 . S
C4173 C4172 1.376 . S
C4173 C4174 1.388 . S
C4174 H4161 0.930 . S
C4174 C4173 1.388 . S
C4174 C4175 1.390 . S
C4175 C4174 1.390 . S
C4175 C4176 1.394 . S
C4175 C4181 1.465 . S
C4176 C4171 1.399 . S
C4176 C4175 1.394 . S
C4176 C4177 1.516 . S
C4177 C4176 1.516 . S
C4177 C4178 1.502 . S
C4177 C4179 1.561 . S
C4177 C4180 1.526 . S
C4178 H4162 0.959 . S
C4178 H4163 0.959 . S
C4178 H4164 0.961 . S
C4178 C4177 1.502 . S
C4179 H4165 0.960 . S
C4179 H4166 0.961 . S
C4179 H4167 0.959 . S
C4179 C4177 1.561 . S
C4180 C4177 1.526 . S
C4180 C4181 1.396 . S
C4180 C4185 1.390 . S
C4181 C4175 1.465 . S
C4181 C4180 1.396 . S
C4181 C4182 1.399 . S
C4182 H4168 0.929 . S
C4182 C4181 1.399 . S
C4182 C4183 1.385 . S
C4183 H4169 0.931 . S
C4183 C4182 1.385 . S
C4183 C4184 1.389 . S
C4184 C4183 1.389 . S
C4184 C4185 1.387 . S
C4185 H4170 0.930 . S
C4185 C4180 1.390 . S
C4185 C4184 1.387 . S
H4186 C4198 0.930 . S
H4187 C4200 0.930 . S
H4188 C4201 0.930 . S
H4189 C4205 0.959 . S
H4190 C4205 0.959 . S
H4191 C4205 0.961 . S
H4192 C4206 0.960 . S
H4193 C4206 0.961 . S
H4194 C4206 0.959 . S
H4195 C4209 0.929 . S
H4196 C4210 0.931 . S
H4197 C4212 0.930 . S
C4198 H4186 0.930 . S
C4198 C4199 1.399 . S
C4198 C4203 1.399 . S
C4199 C4198 1.399 . S
C4199 C4200 1.376 . S
C4200 H4187 0.930 . S
C4200 C4199 1.376 . S
C4200 C4201 1.388 . S
C4201 H4188 0.930 . S
C4201 C4200 1.388 . S
C4201 C4202 1.390 . S
C4202 C4201 1.390 . S
C4202 C4203 1.394 . S
C4202 C4208 1.465 . S
C4203 C4198 1.399 . S
C4203 C4202 1.394 . S
C4203 C4204 1.516 . S
C4204 C4203 1.516 . S
C4204 C4205 1.502 . S
C4204 C4206 1.561 . S
C4204 C4207 1.526 . S
C4205 H4189 0.959 . S
C4205 H4190 0.959 . S
C4205 H4191 0.961 . S
C4205 C4204 1.502 . S
C4206 H4192 0.960 . S
C4206 H4193 0.961 . S
C4206 H4194 0.959 . S
C4206 C4204 1.561 . S
C4207 C4204 1.526 . S
C4207 C4208 1.396 . S
C4207 C4212 1.390 . S
C4208 C4202 1.465 . S
C4208 C4207 1.396 . S
C4208 C4209 1.399 . S
C4209 H4195 0.929 . S
C4209 C4208 1.399 . S
C4209 C4210 1.385 . S
C4210 H4196 0.931 . S
C4210 C4209 1.385 . S
C4210 C4211 1.389 . S
C4211 C4210 1.389 . S
C4211 C4212 1.387 . S
C4212 H4197 0.930 . S
C4212 C4207 1.390 . S
C4212 C4211 1.387 . S
H4213 C4225 0.930 . S
H4214 C4227 0.930 . S
H4215 C4228 0.930 . S
H4216 C4232 0.959 . S
H4217 C4232 0.959 . S
H4218 C4232 0.961 . S
H4219 C4233 0.960 1_545 S
H4220 C4233 0.961 . S
H4221 C4233 0.959 . S
H4222 C4236 0.929 . S
H4223 C4237 0.931 . S
H4224 C4239 0.941 . S
C4225 H4213 0.930 . S
C4225 C4226 1.399 . S
C4225 C4230 1.399 . S
C4226 C4225 1.399 . S
C4226 C4227 1.376 1_554 S
C4227 H4214 0.930 . S
C4227 C4226 1.376 1_556 S
C4227 C4228 1.388 . S
C4228 H4215 0.930 . S
C4228 C4227 1.388 . S
C4228 C4229 1.390 . S
C4229 C4228 1.390 . S
C4229 C4230 1.394 1_556 S
C4229 C4235 1.465 1_545 S
C4230 C4225 1.399 . S
C4230 C4229 1.394 1_554 S
C4230 C4231 1.516 1_545 S
C4231 C4230 1.516 1_565 S
C4231 C4232 1.502 . S
C4231 C4233 1.561 . S
C4231 C4234 1.526 . S
C4232 H4216 0.959 . S
C4232 H4217 0.959 . S
C4232 H4218 0.961 . S
C4232 C4231 1.502 . S
C4233 H4219 0.960 1_565 S
C4233 H4220 0.961 . S
C4233 H4221 0.959 . S
C4233 C4231 1.561 . S
C4234 C4231 1.526 . S
C4234 C4235 1.396 1_554 S
C4234 C4239 1.391 . S
C4235 C4229 1.465 1_565 S
C4235 C4234 1.396 1_556 S
C4235 C4236 1.399 . S
C4236 H4222 0.929 . S
C4236 C4235 1.399 . S
C4236 C4237 1.385 . S
C4237 H4223 0.931 . S
C4237 C4236 1.385 . S
C4237 C4238 1.389 . S
C4238 C4237 1.389 . S
C4238 C4239 1.374 1_556 S
C4239 H4224 0.941 . S
C4239 C4234 1.391 . S
C4239 C4238 1.374 1_554 S
H4240 C4252 0.930 . S
H4241 C4254 0.930 . S
H4242 C4255 0.930 . S
H4243 C4259 0.959 . S
H4244 C4259 0.959 . S
H4245 C4259 0.961 . S
H4246 C4260 0.960 . S
H4247 C4260 0.961 . S
H4248 C4260 0.959 . S
H4249 C4263 0.929 . S
H4250 C4264 0.931 . S
H4251 C4266 0.930 . S
C4252 H4240 0.930 . S
C4252 C4253 1.399 . S
C4252 C4257 1.399 . S
C4253 C4252 1.399 . S
C4253 C4254 1.376 . S
C4254 H4241 0.930 . S
C4254 C4253 1.376 . S
C4254 C4255 1.388 . S
C4255 H4242 0.930 . S
C4255 C4254 1.388 . S
C4255 C4256 1.390 . S
C4256 C4255 1.390 . S
C4256 C4257 1.394 . S
C4256 C4262 1.465 . S
C4257 C4252 1.399 . S
C4257 C4256 1.394 . S
C4257 C4258 1.516 . S
C4258 C4257 1.516 . S
C4258 C4259 1.502 . S
C4258 C4260 1.561 1_455 S
C4258 C4261 1.526 . S
C4259 H4243 0.959 . S
C4259 H4244 0.959 . S
C4259 H4245 0.961 . S
C4259 C4258 1.502 . S
C4260 H4246 0.960 . S
C4260 H4247 0.961 . S
C4260 H4248 0.959 . S
C4260 C4258 1.561 1_655 S
C4261 C4258 1.526 . S
C4261 C4262 1.396 . S
C4261 C4266 1.390 . S
C4262 C4256 1.465 . S
C4262 C4261 1.396 . S
C4262 C4263 1.399 . S
C4263 H4249 0.929 . S
C4263 C4262 1.399 . S
C4263 C4264 1.385 . S
C4264 H4250 0.931 . S
C4264 C4263 1.385 . S
C4264 C4265 1.389 . S
C4265 C4264 1.389 . S
C4265 C4266 1.387 . S
C4266 H4251 0.930 . S
C4266 C4261 1.390 . S
C4266 C4265 1.387 . S
H4267 C4279 0.930 . S
H4268 C4281 0.930 . S
H4269 C4282 0.930 . S
H4270 C4286 0.959 . S
H4271 C4286 0.959 . S
H4272 C4286 0.961 . S
H4273 C4287 0.960 . S
H4274 C4287 0.961 . S
H4275 C4287 0.959 . S
H4276 C4290 0.929 . S
H4277 C4291 0.931 . S
H4278 C4293 0.930 . S
C4279 H4267 0.930 . S
C4279 C4280 1.399 . S
C4279 C4284 1.399 . S
C4280 C4279 1.399 . S
C4280 C4281 1.376 . S
C4281 H4268 0.930 . S
C4281 C4280 1.376 . S
C4281 C4282 1.388 . S
C4282 H4269 0.930 . S
C4282 C4281 1.388 . S
C4282 C4283 1.390 . S
C4283 C4282 1.390 . S
C4283 C4284 1.394 . S
C4283 C4289 1.465 . S
C4284 C4279 1.399 . S
C4284 C4283 1.394 . S
C4284 C4285 1.516 . S
C4285 C4284 1.516 . S
C4285 C4286 1.502 . S
C4285 C4287 1.561 . S
C4285 C4288 1.526 . S
C4286 H4270 0.959 . S
C4286 H4271 0.959 . S
C4286 H4272 0.961 . S
C4286 C4285 1.502 . S
C4287 H4273 0.960 . S
C4287 H4274 0.961 . S
C4287 H4275 0.959 . S
C4287 C4285 1.561 . S
C4288 C4285 1.526 . S
C4288 C4289 1.396 . S
C4288 C4293 1.390 . S
C4289 C4283 1.465 . S
C4289 C4288 1.396 . S
C4289 C4290 1.399 . S
C4290 H4276 0.929 . S
C4290 C4289 1.399 . S
C4290 C4291 1.385 . S
C4291 H4277 0.931 . S
C4291 C4290 1.385 . S
C4291 C4292 1.389 . S
C4292 C4291 1.389 . S
C4292 C4293 1.387 . S
C4293 H4278 0.930 . S
C4293 C4288 1.390 . S
C4293 C4292 1.387 . S
H4294 C4306 0.930 . S
H4295 C4308 0.930 . S
H4296 C4309 0.930 . S
H4297 C4313 0.960 1_455 S
H4298 C4313 0.959 . S
H4299 C4313 0.961 . S
H4300 C4314 0.960 . S
H4301 C4314 0.961 . S
H4302 C4314 0.959 . S
H4303 C4317 0.929 . S
H4304 C4318 0.931 . S
H4305 C4320 0.930 . S
C4306 H4294 0.930 . S
C4306 C4307 1.399 . S
C4306 C4311 1.399 . S
C4307 C4306 1.399 . S
C4307 C4308 1.376 . S
C4308 H4295 0.930 . S
C4308 C4307 1.376 . S
C4308 C4309 1.388 . S
C4309 H4296 0.930 . S
C4309 C4308 1.388 . S
C4309 C4310 1.390 . S
C4310 C4309 1.390 . S
C4310 C4311 1.394 . S
C4310 C4316 1.465 . S
C4311 C4306 1.399 . S
C4311 C4310 1.394 . S
C4311 C4312 1.516 . S
C4312 C4311 1.516 . S
C4312 C4313 1.502 . S
C4312 C4314 1.561 . S
C4312 C4315 1.526 . S
C4313 H4297 0.960 1_655 S
C4313 H4298 0.959 . S
C4313 H4299 0.961 . S
C4313 C4312 1.502 . S
C4314 H4300 0.960 . S
C4314 H4301 0.961 . S
C4314 H4302 0.959 . S
C4314 C4312 1.561 . S
C4315 C4312 1.526 . S
C4315 C4316 1.396 . S
C4315 C4320 1.390 . S
C4316 C4310 1.465 . S
C4316 C4315 1.396 . S
C4316 C4317 1.399 . S
C4317 H4303 0.929 . S
C4317 C4316 1.399 . S
C4317 C4318 1.385 . S
C4318 H4304 0.931 . S
C4318 C4317 1.385 . S
C4318 C4319 1.389 . S
C4319 C4318 1.389 . S
C4319 C4320 1.387 . S
C4320 H4305 0.930 . S
C4320 C4315 1.390 . S
C4320 C4319 1.387 . S
H4321 C4333 0.930 . S
H4322 C4335 0.930 . S
H4323 C4336 0.930 . S
H4324 C4340 0.959 . S
H4325 C4340 0.959 . S
H4326 C4340 0.961 . S
H4327 C4341 0.960 . S
H4328 C4341 0.961 . S
H4329 C4341 0.959 . S
H4330 C4344 0.929 . S
H4331 C4345 0.931 . S
H4332 C4347 0.930 . S
C4333 H4321 0.930 . S
C4333 C4334 1.399 . S
C4333 C4338 1.399 . S
C4334 C4333 1.399 . S
C4334 C4335 1.376 . S
C4335 H4322 0.930 . S
C4335 C4334 1.376 . S
C4335 C4336 1.388 . S
C4336 H4323 0.930 . S
C4336 C4335 1.388 . S
C4336 C4337 1.390 . S
C4337 C4336 1.390 . S
C4337 C4338 1.394 . S
C4337 C4343 1.465 . S
C4338 C4333 1.399 . S
C4338 C4337 1.394 . S
C4338 C4339 1.516 . S
C4339 C4338 1.516 . S
C4339 C4340 1.502 . S
C4339 C4341 1.561 . S
C4339 C4342 1.526 . S
C4340 H4324 0.959 . S
C4340 H4325 0.959 . S
C4340 H4326 0.961 . S
C4340 C4339 1.502 . S
C4341 H4327 0.960 . S
C4341 H4328 0.961 . S
C4341 H4329 0.959 . S
C4341 C4339 1.561 . S
C4342 C4339 1.526 . S
C4342 C4343 1.396 . S
C4342 C4347 1.390 . S
C4343 C4337 1.465 . S
C4343 C4342 1.396 . S
C4343 C4344 1.399 . S
C4344 H4330 0.929 . S
C4344 C4343 1.399 . S
C4344 C4345 1.385 . S
C4345 H4331 0.931 . S
C4345 C4344 1.385 . S
C4345 C4346 1.389 . S
C4346 C4345 1.389 . S
C4346 C4347 1.387 . S
C4347 H4332 0.930 . S
C4347 C4342 1.390 . S
C4347 C4346 1.387 . S
H4348 C4360 0.930 . S
H4349 C4362 0.930 . S
H4350 C4363 0.930 . S
H4351 C4367 0.959 . S
H4352 C4367 0.959 . S
H4353 C4367 0.961 . S
H4354 C4368 0.960 . S
H4355 C4368 0.961 . S
H4356 C4368 0.959 . S
H4357 C4371 0.929 . S
H4358 C4372 0.931 . S
H4359 C4374 0.930 . S
C4360 H4348 0.930 . S
C4360 C4361 1.399 . S
C4360 C4365 1.399 . S
C4361 C4360 1.399 . S
C4361 C4362 1.376 . S
C4362 H4349 0.930 . S
C4362 C4361 1.376 . S
C4362 C4363 1.388 . S
C4363 H4350 0.930 . S
C4363 C4362 1.388 . S
C4363 C4364 1.390 . S
C4364 C4363 1.390 . S
C4364 C4365 1.394 . S
C4364 C4370 1.465 . S
C4365 C4360 1.399 . S
C4365 C4364 1.394 . S
C4365 C4366 1.516 . S
C4366 C4365 1.516 . S
C4366 C4367 1.502 1_455 S
C4366 C4368 1.561 . S
C4366 C4369 1.526 . S
C4367 H4351 0.959 . S
C4367 H4352 0.959 . S
C4367 H4353 0.961 . S
C4367 C4366 1.502 1_655 S
C4368 H4354 0.960 . S
C4368 H4355 0.961 . S
C4368 H4356 0.959 . S
C4368 C4366 1.561 . S
C4369 C4366 1.526 . S
C4369 C4370 1.396 . S
C4369 C4374 1.390 . S
C4370 C4364 1.465 . S
C4370 C4369 1.396 . S
C4370 C4371 1.399 . S
C4371 H4357 0.929 . S
C4371 C4370 1.399 . S
C4371 C4372 1.385 . S
C4372 H4358 0.931 . S
C4372 C4371 1.385 . S
C4372 C4373 1.389 . S
C4373 C4372 1.389 . S
C4373 C4374 1.387 . S
C4374 H4359 0.930 . S
C4374 C4369 1.390 . S
C4374 C4373 1.387 . S
H4375 C4387 0.930 . S
H4376 C4389 0.930 . S
H4377 C4390 0.930 . S
H4378 C4394 0.959 . S
H4379 C4394 0.959 . S
H4380 C4394 0.961 . S
H4381 C4395 0.960 . S
H4382 C4395 0.961 . S
H4383 C4395 0.959 . S
H4384 C4398 0.929 . S
H4385 C4399 0.931 . S
H4386 C4401 0.930 . S
C4387 H4375 0.930 . S
C4387 C4388 1.399 . S
C4387 C4392 1.399 . S
C4388 C4387 1.399 . S
C4388 C4389 1.376 . S
C4389 H4376 0.930 . S
C4389 C4388 1.376 . S
C4389 C4390 1.388 . S
C4390 H4377 0.930 . S
C4390 C4389 1.388 . S
C4390 C4391 1.390 . S
C4391 C4390 1.390 . S
C4391 C4392 1.394 . S
C4391 C4397 1.465 . S
C4392 C4387 1.399 . S
C4392 C4391 1.394 . S
C4392 C4393 1.516 . S
C4393 C4392 1.516 . S
C4393 C4394 1.502 . S
C4393 C4395 1.561 . S
C4393 C4396 1.526 . S
C4394 H4378 0.959 . S
C4394 H4379 0.959 . S
C4394 H4380 0.961 . S
C4394 C4393 1.502 . S
C4395 H4381 0.960 . S
C4395 H4382 0.961 . S
C4395 H4383 0.959 . S
C4395 C4393 1.561 . S
C4396 C4393 1.526 . S
C4396 C4397 1.396 . S
C4396 C4401 1.390 . S
C4397 C4391 1.465 . S
C4397 C4396 1.396 . S
C4397 C4398 1.399 . S
C4398 H4384 0.929 . S
C4398 C4397 1.399 . S
C4398 C4399 1.385 . S
C4399 H4385 0.931 . S
C4399 C4398 1.385 . S
C4399 C4400 1.389 . S
C4400 C4399 1.389 . S
C4400 C4401 1.387 . S
C4401 H4386 0.930 . S
C4401 C4396 1.390 . S
C4401 C4400 1.387 . S
H4402 C4414 0.930 . S
H4403 C4416 0.930 . S
H4404 C4417 0.930 . S
H4405 C4421 0.959 . S
H4406 C4421 0.959 . S
H4407 C4421 0.961 . S
H4408 C4422 0.960 . S
H4409 C4422 0.961 . S
H4410 C4422 0.959 . S
H4411 C4425 0.929 . S
H4412 C4426 0.931 . S
H4413 C4428 0.930 . S
C4414 H4402 0.930 . S
C4414 C4415 1.399 . S
C4414 C4419 1.399 . S
C4415 C4414 1.399 . S
C4415 C4416 1.376 . S
C4416 H4403 0.930 . S
C4416 C4415 1.376 . S
C4416 C4417 1.388 . S
C4417 H4404 0.930 . S
C4417 C4416 1.388 . S
C4417 C4418 1.390 . S
C4418 C4417 1.390 . S
C4418 C4419 1.394 . S
C4418 C4424 1.465 . S
C4419 C4414 1.399 . S
C4419 C4418 1.394 . S
C4419 C4420 1.516 . S
C4420 C4419 1.516 . S
C4420 C4421 1.502 1_655 S
C4420 C4422 1.561 . S
C4420 C4423 1.526 . S
C4421 H4405 0.959 . S
C4421 H4406 0.959 . S
C4421 H4407 0.961 . S
C4421 C4420 1.502 1_455 S
C4422 H4408 0.960 . S
C4422 H4409 0.961 . S
C4422 H4410 0.959 . S
C4422 C4420 1.561 . S
C4423 C4420 1.526 . S
C4423 C4424 1.396 . S
C4423 C4428 1.390 . S
C4424 C4418 1.465 . S
C4424 C4423 1.396 . S
C4424 C4425 1.399 . S
C4425 H4411 0.929 . S
C4425 C4424 1.399 . S
C4425 C4426 1.385 . S
C4426 H4412 0.931 . S
C4426 C4425 1.385 . S
C4426 C4427 1.389 . S
C4427 C4426 1.389 . S
C4427 C4428 1.387 . S
C4428 H4413 0.930 . S
C4428 C4423 1.390 . S
C4428 C4427 1.387 . S
H4429 C4441 0.930 . S
H4430 C4443 0.930 . S
H4431 C4444 0.930 . S
H4432 C4448 0.959 . S
H4433 C4448 0.959 . S
H4434 C4448 0.961 . S
H4435 C4449 0.960 . S
H4436 C4449 0.961 . S
H4437 C4449 0.959 . S
H4438 C4452 0.929 . S
H4439 C4453 0.931 . S
H4440 C4455 0.930 . S
C4441 H4429 0.930 . S
C4441 C4442 1.399 . S
C4441 C4446 1.399 . S
C4442 C4441 1.399 . S
C4442 C4443 1.376 . S
C4443 H4430 0.930 . S
C4443 C4442 1.376 . S
C4443 C4444 1.388 . S
C4444 H4431 0.930 . S
C4444 C4443 1.388 . S
C4444 C4445 1.390 . S
C4445 C4444 1.390 . S
C4445 C4446 1.394 . S
C4445 C4451 1.465 . S
C4446 C4441 1.399 . S
C4446 C4445 1.394 . S
C4446 C4447 1.516 . S
C4447 C4446 1.516 . S
C4447 C4448 1.502 . S
C4447 C4449 1.561 . S
C4447 C4450 1.526 . S
C4448 H4432 0.959 . S
C4448 H4433 0.959 . S
C4448 H4434 0.961 . S
C4448 C4447 1.502 . S
C4449 H4435 0.960 . S
C4449 H4436 0.961 . S
C4449 H4437 0.959 . S
C4449 C4447 1.561 . S
C4450 C4447 1.526 . S
C4450 C4451 1.396 . S
C4450 C4455 1.390 . S
C4451 C4445 1.465 . S
C4451 C4450 1.396 . S
C4451 C4452 1.399 . S
C4452 H4438 0.929 . S
C4452 C4451 1.399 . S
C4452 C4453 1.385 . S
C4453 H4439 0.931 . S
C4453 C4452 1.385 . S
C4453 C4454 1.389 . S
C4454 C4453 1.389 . S
C4454 C4455 1.387 . S
C4455 H4440 0.930 . S
C4455 C4450 1.390 . S
C4455 C4454 1.387 . S
H4456 C4468 0.930 . S
H4457 C4470 0.930 . S
H4458 C4471 0.930 . S
H4459 C4475 0.959 . S
H4460 C4475 0.959 . S
H4461 C4475 0.961 . S
H4462 C4476 0.960 . S
H4463 C4476 0.961 . S
H4464 C4476 0.959 . S
H4465 C4479 0.929 . S
H4466 C4480 0.931 . S
H4467 C4482 0.930 . S
C4468 H4456 0.930 . S
C4468 C4469 1.399 . S
C4468 C4473 1.399 . S
C4469 C4468 1.399 . S
C4469 C4470 1.376 . S
C4470 H4457 0.930 . S
C4470 C4469 1.376 . S
C4470 C4471 1.388 . S
C4471 H4458 0.930 . S
C4471 C4470 1.388 . S
C4471 C4472 1.390 . S
C4472 C4471 1.390 . S
C4472 C4473 1.394 . S
C4472 C4478 1.465 . S
C4473 C4468 1.399 . S
C4473 C4472 1.394 . S
C4473 C4474 1.516 . S
C4474 C4473 1.516 . S
C4474 C4475 1.502 . S
C4474 C4476 1.561 . S
C4474 C4477 1.526 . S
C4475 H4459 0.959 . S
C4475 H4460 0.959 . S
C4475 H4461 0.961 . S
C4475 C4474 1.502 . S
C4476 H4462 0.960 . S
C4476 H4463 0.961 . S
C4476 H4464 0.959 . S
C4476 C4474 1.561 . S
C4477 C4474 1.526 . S
C4477 C4478 1.396 . S
C4477 C4482 1.390 . S
C4478 C4472 1.465 . S
C4478 C4477 1.396 . S
C4478 C4479 1.399 . S
C4479 H4465 0.929 . S
C4479 C4478 1.399 . S
C4479 C4480 1.385 . S
C4480 H4466 0.931 . S
C4480 C4479 1.385 . S
C4480 C4481 1.389 . S
C4481 C4480 1.389 . S
C4481 C4482 1.387 . S
C4482 H4467 0.930 . S
C4482 C4477 1.390 . S
C4482 C4481 1.387 . S
H4483 C4495 0.930 . S
H4484 C4497 0.930 . S
H4485 C4498 0.930 . S
H4486 C4502 0.959 . S
H4487 C4502 0.959 . S
H4488 C4502 0.961 . S
H4489 C4503 0.960 . S
H4490 C4503 0.961 . S
H4491 C4503 0.959 . S
H4492 C4506 0.929 . S
H4493 C4507 0.931 . S
H4494 C4509 0.930 . S
C4495 H4483 0.930 . S
C4495 C4496 1.399 . S
C4495 C4500 1.399 . S
C4496 C4495 1.399 . S
C4496 C4497 1.376 . S
C4497 H4484 0.930 . S
C4497 C4496 1.376 . S
C4497 C4498 1.388 . S
C4498 H4485 0.930 . S
C4498 C4497 1.388 . S
C4498 C4499 1.390 . S
C4499 C4498 1.390 . S
C4499 C4500 1.394 . S
C4499 C4505 1.465 . S
C4500 C4495 1.399 . S
C4500 C4499 1.394 . S
C4500 C4501 1.516 . S
C4501 C4500 1.516 . S
C4501 C4502 1.502 . S
C4501 C4503 1.561 . S
C4501 C4504 1.526 . S
C4502 H4486 0.959 . S
C4502 H4487 0.959 . S
C4502 H4488 0.961 . S
C4502 C4501 1.502 . S
C4503 H4489 0.960 . S
C4503 H4490 0.961 . S
C4503 H4491 0.959 . S
C4503 C4501 1.561 . S
C4504 C4501 1.526 . S
C4504 C4505 1.396 . S
C4504 C4509 1.390 . S
C4505 C4499 1.465 . S
C4505 C4504 1.396 . S
C4505 C4506 1.399 . S
C4506 H4492 0.929 . S
C4506 C4505 1.399 . S
C4506 C4507 1.385 . S
C4507 H4493 0.931 . S
C4507 C4506 1.385 . S
C4507 C4508 1.389 . S
C4508 C4507 1.389 . S
C4508 C4509 1.387 . S
C4509 H4494 0.930 . S
C4509 C4504 1.390 . S
C4509 C4508 1.387 . S
H4510 C4522 0.930 . S
H4511 C4524 0.930 . S
H4512 C4525 0.930 . S
H4513 C4529 0.959 . S
H4514 C4529 0.959 . S
H4515 C4529 0.961 . S
H4516 C4530 0.960 . S
H4517 C4530 0.961 . S
H4518 C4530 0.959 . S
H4519 C4533 0.929 . S
H4520 C4534 0.931 . S
H4521 C4536 0.930 . S
C4522 H4510 0.930 . S
C4522 C4523 1.399 . S
C4522 C4527 1.399 . S
C4523 C4522 1.399 . S
C4523 C4524 1.376 . S
C4524 H4511 0.930 . S
C4524 C4523 1.376 . S
C4524 C4525 1.388 . S
C4525 H4512 0.930 . S
C4525 C4524 1.388 . S
C4525 C4526 1.390 . S
C4526 C4525 1.390 . S
C4526 C4527 1.394 . S
C4526 C4532 1.465 . S
C4527 C4522 1.399 . S
C4527 C4526 1.394 . S
C4527 C4528 1.516 . S
C4528 C4527 1.516 . S
C4528 C4529 1.502 . S
C4528 C4530 1.561 . S
C4528 C4531 1.526 . S
C4529 H4513 0.959 . S
C4529 H4514 0.959 . S
C4529 H4515 0.961 . S
C4529 C4528 1.502 . S
C4530 H4516 0.960 . S
C4530 H4517 0.961 . S
C4530 H4518 0.959 . S
C4530 C4528 1.561 . S
C4531 C4528 1.526 . S
C4531 C4532 1.396 . S
C4531 C4536 1.390 . S
C4532 C4526 1.465 . S
C4532 C4531 1.396 . S
C4532 C4533 1.399 . S
C4533 H4519 0.929 . S
C4533 C4532 1.399 . S
C4533 C4534 1.385 . S
C4534 H4520 0.931 . S
C4534 C4533 1.385 . S
C4534 C4535 1.389 . S
C4535 C4534 1.389 . S
C4535 C4536 1.387 . S
C4536 H4521 0.930 . S
C4536 C4531 1.390 . S
C4536 C4535 1.387 . S
H4537 C4549 0.930 . S
H4538 C4551 0.930 . S
H4539 C4552 0.930 . S
H4540 C4556 0.959 . S
H4541 C4556 0.959 . S
H4542 C4556 0.961 . S
H4543 C4557 0.960 . S
H4544 C4557 0.961 . S
H4545 C4557 0.959 . S
H4546 C4560 0.929 . S
H4547 C4561 0.931 . S
H4548 C4563 0.930 . S
C4549 H4537 0.930 . S
C4549 C4550 1.399 . S
C4549 C4554 1.399 . S
C4550 C4549 1.399 . S
C4550 C4551 1.376 . S
C4551 H4538 0.930 . S
C4551 C4550 1.376 . S
C4551 C4552 1.388 . S
C4552 H4539 0.930 . S
C4552 C4551 1.388 . S
C4552 C4553 1.390 . S
C4553 C4552 1.390 . S
C4553 C4554 1.394 . S
C4553 C4559 1.465 . S
C4554 C4549 1.399 . S
C4554 C4553 1.394 . S
C4554 C4555 1.516 . S
C4555 C4554 1.516 . S
C4555 C4556 1.502 . S
C4555 C4557 1.561 . S
C4555 C4558 1.526 . S
C4556 H4540 0.959 . S
C4556 H4541 0.959 . S
C4556 H4542 0.961 . S
C4556 C4555 1.502 . S
C4557 H4543 0.960 . S
C4557 H4544 0.961 . S
C4557 H4545 0.959 . S
C4557 C4555 1.561 . S
C4558 C4555 1.526 . S
C4558 C4559 1.396 . S
C4558 C4563 1.390 . S
C4559 C4553 1.465 . S
C4559 C4558 1.396 . S
C4559 C4560 1.399 . S
C4560 H4546 0.929 . S
C4560 C4559 1.399 . S
C4560 C4561 1.385 . S
C4561 H4547 0.931 . S
C4561 C4560 1.385 . S
C4561 C4562 1.389 . S
C4562 C4561 1.389 . S
C4562 C4563 1.387 . S
C4563 H4548 0.930 . S
C4563 C4558 1.390 . S
C4563 C4562 1.387 . S
H4564 C4576 0.930 . S
H4565 C4578 0.930 . S
H4566 C4579 0.930 . S
H4567 C4583 0.959 . S
H4568 C4583 0.959 . S
H4569 C4583 0.961 . S
H4570 C4584 0.960 . S
H4571 C4584 0.961 . S
H4572 C4584 0.959 . S
H4573 C4587 0.929 . S
H4574 C4588 0.931 . S
H4575 C4590 0.930 . S
C4576 H4564 0.930 . S
C4576 C4577 1.399 . S
C4576 C4581 1.399 . S
C4577 C4576 1.399 . S
C4577 C4578 1.376 . S
C4578 H4565 0.930 . S
C4578 C4577 1.376 . S
C4578 C4579 1.388 . S
C4579 H4566 0.930 . S
C4579 C4578 1.388 . S
C4579 C4580 1.390 . S
C4580 C4579 1.390 . S
C4580 C4581 1.394 . S
C4580 C4586 1.465 . S
C4581 C4576 1.399 . S
C4581 C4580 1.394 . S
C4581 C4582 1.516 . S
C4582 C4581 1.516 . S
C4582 C4583 1.502 . S
C4582 C4584 1.561 . S
C4582 C4585 1.526 . S
C4583 H4567 0.959 . S
C4583 H4568 0.959 . S
C4583 H4569 0.961 . S
C4583 C4582 1.502 . S
C4584 H4570 0.960 . S
C4584 H4571 0.961 . S
C4584 H4572 0.959 . S
C4584 C4582 1.561 . S
C4585 C4582 1.526 . S
C4585 C4586 1.396 . S
C4585 C4590 1.390 . S
C4586 C4580 1.465 . S
C4586 C4585 1.396 . S
C4586 C4587 1.399 . S
C4587 H4573 0.929 . S
C4587 C4586 1.399 . S
C4587 C4588 1.385 . S
C4588 H4574 0.931 . S
C4588 C4587 1.385 . S
C4588 C4589 1.389 . S
C4589 C4588 1.389 . S
C4589 C4590 1.387 . S
C4590 H4575 0.930 . S
C4590 C4585 1.390 . S
C4590 C4589 1.387 . S
H4591 C4603 0.930 . S
H4592 C4605 0.930 . S
H4593 C4606 0.930 . S
H4594 C4610 0.959 . S
H4595 C4610 0.959 . S
H4596 C4610 0.961 . S
H4597 C4611 0.960 . S
H4598 C4611 0.961 . S
H4599 C4611 0.959 . S
H4600 C4614 0.929 . S
H4601 C4615 0.931 . S
H4602 C4617 0.930 . S
C4603 H4591 0.930 . S
C4603 C4604 1.399 . S
C4603 C4608 1.399 . S
C4604 C4603 1.399 . S
C4604 C4605 1.376 . S
C4605 H4592 0.930 . S
C4605 C4604 1.376 . S
C4605 C4606 1.388 . S
C4606 H4593 0.930 . S
C4606 C4605 1.388 . S
C4606 C4607 1.390 . S
C4607 C4606 1.390 . S
C4607 C4608 1.394 . S
C4607 C4613 1.465 . S
C4608 C4603 1.399 . S
C4608 C4607 1.394 . S
C4608 C4609 1.516 . S
C4609 C4608 1.516 . S
C4609 C4610 1.502 . S
C4609 C4611 1.561 . S
C4609 C4612 1.526 . S
C4610 H4594 0.959 . S
C4610 H4595 0.959 . S
C4610 H4596 0.961 . S
C4610 C4609 1.502 . S
C4611 H4597 0.960 . S
C4611 H4598 0.961 . S
C4611 H4599 0.959 . S
C4611 C4609 1.561 . S
C4612 C4609 1.526 . S
C4612 C4613 1.396 . S
C4612 C4617 1.390 . S
C4613 C4607 1.465 . S
C4613 C4612 1.396 . S
C4613 C4614 1.399 . S
C4614 H4600 0.929 . S
C4614 C4613 1.399 . S
C4614 C4615 1.385 . S
C4615 H4601 0.931 . S
C4615 C4614 1.385 . S
C4615 C4616 1.389 . S
C4616 C4615 1.389 . S
C4616 C4617 1.387 . S
C4617 H4602 0.930 . S
C4617 C4612 1.390 . S
C4617 C4616 1.387 . S
H4618 C4630 0.930 . S
H4619 C4632 0.930 . S
H4620 C4633 0.930 . S
H4621 C4637 0.959 . S
H4622 C4637 0.959 . S
H4623 C4637 0.961 . S
H4624 C4638 0.960 . S
H4625 C4638 0.961 . S
H4626 C4638 0.959 . S
H4627 C4641 0.929 . S
H4628 C4642 0.931 . S
H4629 C4644 0.930 . S
C4630 H4618 0.930 . S
C4630 C4631 1.399 . S
C4630 C4635 1.399 . S
C4631 C4630 1.399 . S
C4631 C4632 1.376 . S
C4632 H4619 0.930 . S
C4632 C4631 1.376 . S
C4632 C4633 1.388 . S
C4633 H4620 0.930 . S
C4633 C4632 1.388 . S
C4633 C4634 1.390 . S
C4634 C4633 1.390 . S
C4634 C4635 1.394 . S
C4634 C4640 1.465 . S
C4635 C4630 1.399 . S
C4635 C4634 1.394 . S
C4635 C4636 1.516 . S
C4636 C4635 1.516 . S
C4636 C4637 1.502 . S
C4636 C4638 1.561 . S
C4636 C4639 1.526 . S
C4637 H4621 0.959 . S
C4637 H4622 0.959 . S
C4637 H4623 0.961 . S
C4637 C4636 1.502 . S
C4638 H4624 0.960 . S
C4638 H4625 0.961 . S
C4638 H4626 0.959 . S
C4638 C4636 1.561 . S
C4639 C4636 1.526 . S
C4639 C4640 1.396 . S
C4639 C4644 1.390 . S
C4640 C4634 1.465 . S
C4640 C4639 1.396 . S
C4640 C4641 1.399 . S
C4641 H4627 0.929 . S
C4641 C4640 1.399 . S
C4641 C4642 1.385 . S
C4642 H4628 0.931 . S
C4642 C4641 1.385 . S
C4642 C4643 1.389 . S
C4643 C4642 1.389 . S
C4643 C4644 1.387 . S
C4644 H4629 0.930 . S
C4644 C4639 1.390 . S
C4644 C4643 1.387 . S
H4645 C4657 0.930 . S
H4646 C4659 0.930 . S
H4647 C4660 0.930 . S
H4648 C4664 0.959 . S
H4649 C4664 0.959 . S
H4650 C4664 0.961 . S
H4651 C4665 0.960 . S
H4652 C4665 0.961 . S
H4653 C4665 0.959 . S
H4654 C4668 0.929 . S
H4655 C4669 0.931 . S
H4656 C4671 0.930 . S
C4657 H4645 0.930 . S
C4657 C4658 1.399 . S
C4657 C4662 1.399 . S
C4658 C4657 1.399 . S
C4658 C4659 1.376 . S
C4659 H4646 0.930 . S
C4659 C4658 1.376 . S
C4659 C4660 1.388 . S
C4660 H4647 0.930 . S
C4660 C4659 1.388 . S
C4660 C4661 1.390 . S
C4661 C4660 1.390 . S
C4661 C4662 1.394 . S
C4661 C4667 1.465 . S
C4662 C4657 1.399 . S
C4662 C4661 1.394 . S
C4662 C4663 1.516 . S
C4663 C4662 1.516 . S
C4663 C4664 1.502 . S
C4663 C4665 1.561 . S
C4663 C4666 1.526 . S
C4664 H4648 0.959 . S
C4664 H4649 0.959 . S
C4664 H4650 0.961 . S
C4664 C4663 1.502 . S
C4665 H4651 0.960 . S
C4665 H4652 0.961 . S
C4665 H4653 0.959 . S
C4665 C4663 1.561 . S
C4666 C4663 1.526 . S
C4666 C4667 1.396 . S
C4666 C4671 1.390 . S
C4667 C4661 1.465 . S
C4667 C4666 1.396 . S
C4667 C4668 1.399 . S
C4668 H4654 0.929 . S
C4668 C4667 1.399 . S
C4668 C4669 1.385 . S
C4669 H4655 0.931 . S
C4669 C4668 1.385 . S
C4669 C4670 1.389 . S
C4670 C4669 1.389 . S
C4670 C4671 1.387 . S
C4671 H4656 0.930 . S
C4671 C4666 1.390 . S
C4671 C4670 1.387 . S
C1229 C973 2.049 1_556 S
C1241 C23 2.097 1_556 S
C1256 C61 2.020 1_556 S
C1268 C935 2.050 1_556 S
C1283 C1049 2.049 . S
C1295 C99 2.097 . S
C1310 C137 2.053 . S
C1322 C1011 2.097 . S
C1337 C1106 2.052 1_554 S
C1349 C156 2.037 1_554 S
C1364 C194 2.044 1_554 S
C1376 C1068 2.093 1_554 S
C1391 C1182 2.049 . S
C1403 C232 2.090 . S
C1418 C270 2.055 . S
C1430 C1144 2.087 . S
C1445 C327 2.049 . S
C1457 C669 2.097 . S
C1472 C365 2.021 . S
C1484 C631 2.056 . S
C1499 C745 2.020 . S
C1511 C403 2.059 . S
C1526 C441 2.023 . S
C1538 C707 2.051 . S
C1553 C460 2.073 . S
C1565 C802 2.024 . S
C1580 C764 2.049 . S
C1592 C498 2.090 . S
C1607 C878 2.063 . S
C1619 C536 2.030 . S
C1634 C840 2.054 . S
C1646 C574 2.087 . S
C1661 C1104 1.865 . S
C1673 C2 1.798 . S
C1688 C40 1.793 . S
C1700 C154 1.876 . S
C1715 C78 1.835 . S
C1727 C876 1.832 . S
C1742 C116 1.805 . S
C1754 C534 1.880 . S
C1769 C976 1.881 . S
C1781 C178 1.794 . S
C1796 C26 1.880 . S
C1808 C216 1.794 . S
C1823 C748 1.869 . S
C1835 C254 1.811 . S
C1850 C292 1.826 . S
C1862 C406 1.852 . S
C1877 C800 1.862 1_565 S
C1889 C306 1.839 . S
C1904 C458 1.875 . S
C1916 C344 1.819 . S
C1931 C382 1.861 . S
C1943 C1180 1.833 . S
C1958 C230 1.854 1_565 S
C1970 C420 1.805 . S
C1985 C672 1.827 1_545 S
C1997 C482 1.859 . S
C2012 C520 1.794 . S
C2024 C330 1.879 . S
C2039 C558 1.827 . S
C2051 C1052 1.855 . S
C2066 C596 1.860 . S
C2078 C102 1.825 1_545 S
C2093 C610 1.793 . S
C2105 C496 1.872 . S
C2120 C762 1.863 . S
C2132 C648 1.837 . S
C2147 C268 1.826 . S
C2159 C686 1.845 . S
C2174 C1142 1.826 . S
C2186 C724 1.858 . S
C2201 C786 1.808 . S
C2213 C368 1.870 . S
C2228 C824 1.848 . S
C2240 C634 1.837 . S
C2255 C862 1.817 . S
C2267 C140 1.860 . S
C2282 C900 1.860 . S
C2294 C1014 1.826 . S
C2309 C192 1.845 1_565 S
C2321 C914 1.815 . S
C2336 C1066 1.853 . S
C2348 C952 1.806 . S
C2363 C572 1.866 . S
C2375 C990 1.834 . S
C2390 C1028 1.860 . S
C2402 C838 1.828 1_565 S
C2417 C1090 1.840 . S
C2429 C64 1.842 1_545 S
C2444 C1128 1.793 . S
C2456 C938 1.880 . S
C2471 C1166 1.822 . S
C2483 C444 1.856 . S
C2498 C1204 1.825 . S
C2510 C710 1.856 1_545 S
C2525 C248 1.732 . S
C2537 C20 1.762 . S
C2552 C58 1.778 . S
C2564 C1198 1.764 . S
C2579 C476 1.723 . S
C2591 C96 1.755 . S
C2606 C818 1.753 . S
C2618 C134 1.770 . S
C2633 C95 1.722 . S
C2645 C171 1.757 . S
C2660 C209 1.771 . S
C2672 C1045 1.735 . S
C2687 C323 1.732 . S
C2699 C247 1.769 1_455 S
C2714 C285 1.756 . S
C2726 C665 1.738 . S
C2741 C324 1.757 1_655 S
C2753 C552 1.745 . S
C2768 C894 1.769 . S
C2780 C362 1.780 . S
C2795 C400 1.755 . S
C2807 C172 1.723 . S
C2822 C1122 1.727 . S
C2834 C438 1.757 . S
C2849 C475 1.778 1_455 S
C2861 C399 1.766 . S
C2876 C741 1.729 . S
C2888 C513 1.768 . S
C2903 C551 1.765 . S
C2915 C19 1.735 . S
C2930 C969 1.769 . S
C2942 C589 1.778 . S
C2957 C628 1.764 . S
C2969 C856 1.744 . S
C2984 C666 1.780 . S
C2996 C590 1.769 . S
C3011 C1084 1.759 . S
C3023 C704 1.776 . S
C3038 C742 1.772 . S
C3050 C210 1.758 . S
C3065 C703 1.751 . S
C3077 C779 1.761 . S
C3092 C817 1.760 . S
C3104 C437 1.747 . S
C3119 C931 1.751 . S
C3131 C855 1.761 . S
C3146 C893 1.779 . S
C3158 C57 1.767 . S
C3173 C1160 1.762 . S
C3185 C932 1.777 . S
C3200 C970 1.760 . S
C3212 C286 1.729 . S
C3227 C1008 1.774 . S
C3239 C780 1.761 . S
C3254 C1046 1.765 . S
C3266 C514 1.745 . S
C3281 C1007 1.724 . S
C3293 C1083 1.763 . S
C3308 C1121 1.776 . S
C3320 C133 1.769 . S
C3335 C627 1.732 . S
C3347 C1159 1.769 . S
C3362 C1197 1.767 . S
C3374 C361 1.762 . S
C3389 C118 1.552 . S
C3401 C4 1.558 . S
C3416 C80 1.636 . S
C3428 C42 1.639 . S
C3443 C175 1.637 . S
C3455 C289 1.615 . S
C3470 C251 1.635 . S
C3482 C213 1.612 . S
C3497 C422 1.640 . S
C3509 C308 1.643 . S
C3524 C346 1.551 . S
C3536 C384 1.558 . S
C3551 C593 1.622 . S
C3563 C479 1.640 . S
C3578 C555 1.628 . S
C3590 C517 1.643 . S
C3605 C612 1.549 . S
C3617 C726 1.545 . S
C3632 C688 1.543 . S
C3644 C650 1.541 . S
C3659 C783 1.543 . S
C3671 C897 1.568 . S
C3686 C859 1.622 . S
C3698 C821 1.640 . S
C3713 C1030 1.549 . S
C3725 C916 1.545 . S
C3740 C954 1.630 . S
C3752 C992 1.634 . S
C3767 C1087 1.636 . S
C3779 C1201 1.612 . S
C3794 C1125 1.565 . S
C3806 C1163 1.543 . S
C3821 C28 0.155 . S
C3833 C169 0.235 . S
C3848 C1119 0.141 . S
C3860 C66 0.240 . S
C3875 C549 0.238 . S
C3887 C104 0.130 . S
C3902 C891 0.243 . S
C3914 C142 0.128 . S
C3929 C978 0.179 . S
C3941 C207 0.222 . S
C3956 C408 0.221 . S
C3968 C245 0.148 . S
C3983 C283 0.231 . S
C3995 C750 0.136 . S
C4010 C473 0.236 . S
C4022 C332 0.132 . S
C4037 C370 0.186 . S
C4049 C815 0.185 . S
C4064 C446 0.212 . S
C4076 C1195 0.158 . S
C4091 C511 0.162 . S
C4103 C674 0.232 . S
C4118 C1054 0.232 . S
C4130 C587 0.135 . S
C4145 C777 0.232 . S
C4157 C636 0.135 . S
C4172 C1157 0.232 . S
C4184 C712 0.135 . S
C4199 C853 0.242 . S
C4211 C1016 0.128 . S
C4226 C1081 0.129 . S
C4238 C940 0.240 . S
C4253 C93 1.138 . S
C4265 C17 1.003 . S
C4280 C131 1.026 . S
C4292 C55 1.122 . S
C4307 C180 1.137 . S
C4319 C256 1.005 . S
C4334 C218 1.025 . S
C4346 C294 1.134 . S
C4361 C397 1.011 . S
C4373 C321 1.133 . S
C4388 C435 1.096 . S
C4400 C359 1.039 . S
C4415 C484 1.110 . S
C4427 C560 1.011 . S
C4442 C598 1.124 . S
C4454 C522 1.003 . S
C4469 C701 1.113 . S
C4481 C625 1.025 . S
C4496 C663 1.061 . S
C4508 C739 1.091 . S
C4523 C864 1.080 . S
C4535 C788 1.097 . S
C4550 C826 1.114 . S
C4562 C902 1.008 . S
C4577 C929 1.004 . S
C4589 C1005 1.138 . S
C4604 C967 1.111 . S
C4616 C1043 1.040 . S
C4631 C1168 1.126 . S
C4643 C1092 1.004 . S
C4658 C1206 1.015 . S
C4670 C1130 1.137 . S
