# Generated by pormake.
# Topology uns, (4)-cn, num edge types: 1
# Building blocks:
#     Node 0, Type 0, BuildingBlock: ESEHIV_clean_sbu_0, # of connection points: 4
#     Node 1, Type 0, BuildingBlock: ESEHIV_clean_sbu_0, # of connection points: 4
#     Node 2, Type 0, BuildingBlock: ESEHIV_clean_sbu_0, # of connection points: 4
#     Node 3, Type 0, BuildingBlock: ESEHIV_clean_sbu_0, # of connection points: 4
#     Node 4, Type 0, BuildingBlock: ESEHIV_clean_sbu_0, # of connection points: 4
#     Node 5, Type 0, BuildingBlock: ESEHIV_clean_sbu_0, # of connection points: 4
#     Node 6, Type 0, BuildingBlock: ESEHIV_clean_sbu_0, # of connection points: 4
#     Node 7, Type 0, BuildingBlock: ESEHIV_clean_sbu_0, # of connection points: 4
#     Node 8, Type 0, BuildingBlock: ESEHIV_clean_sbu_0, # of connection points: 4
#     Node 9, Type 0, BuildingBlock: ESEHIV_clean_sbu_0, # of connection points: 4
#     Node 10, Type 0, BuildingBlock: ESEHIV_clean_sbu_0, # of connection points: 4
#     Node 11, Type 0, BuildingBlock: ESEHIV_clean_sbu_0, # of connection points: 4
#     Node 12, Type 0, BuildingBlock: ESEHIV_clean_sbu_0, # of connection points: 4
#     Node 13, Type 0, BuildingBlock: ESEHIV_clean_sbu_0, # of connection points: 4
#     Node 14, Type 0, BuildingBlock: ESEHIV_clean_sbu_0, # of connection points: 4
#     Node 15, Type 0, BuildingBlock: ESEHIV_clean_sbu_0, # of connection points: 4
#     Node 16, Type 0, BuildingBlock: ESEHIV_clean_sbu_0, # of connection points: 4
#     Node 17, Type 0, BuildingBlock: ESEHIV_clean_sbu_0, # of connection points: 4
#     Node 18, Type 0, BuildingBlock: ESEHIV_clean_sbu_0, # of connection points: 4
#     Node 19, Type 0, BuildingBlock: ESEHIV_clean_sbu_0, # of connection points: 4
#     Node 20, Type 0, BuildingBlock: ESEHIV_clean_sbu_0, # of connection points: 4
#     Node 21, Type 0, BuildingBlock: ESEHIV_clean_sbu_0, # of connection points: 4
#     Node 22, Type 0, BuildingBlock: ESEHIV_clean_sbu_0, # of connection points: 4
#     Node 23, Type 0, BuildingBlock: ESEHIV_clean_sbu_0, # of connection points: 4
#     Node 24, Type 0, BuildingBlock: ESEHIV_clean_sbu_0, # of connection points: 4
#     Node 25, Type 0, BuildingBlock: ESEHIV_clean_sbu_0, # of connection points: 4
#     Node 26, Type 0, BuildingBlock: ESEHIV_clean_sbu_0, # of connection points: 4
#     Node 27, Type 0, BuildingBlock: ESEHIV_clean_sbu_0, # of connection points: 4
#     Node 28, Type 0, BuildingBlock: ESEHIV_clean_sbu_0, # of connection points: 4
#     Node 29, Type 0, BuildingBlock: ESEHIV_clean_sbu_0, # of connection points: 4
#     Node 30, Type 0, BuildingBlock: ESEHIV_clean_sbu_0, # of connection points: 4
#     Node 31, Type 0, BuildingBlock: ESEHIV_clean_sbu_0, # of connection points: 4
#     Node 32, Type 0, BuildingBlock: ESEHIV_clean_sbu_0, # of connection points: 4
#     Node 33, Type 0, BuildingBlock: ESEHIV_clean_sbu_0, # of connection points: 4
#     Node 34, Type 0, BuildingBlock: ESEHIV_clean_sbu_0, # of connection points: 4
#     Node 35, Type 0, BuildingBlock: ESEHIV_clean_sbu_0, # of connection points: 4
#     Edge 36, Type (0, 0), BuildingBlock: KIFKEQ_clean_linker_1, # of connection points: 2
#     Edge 37, Type (0, 0), BuildingBlock: KIFKEQ_clean_linker_1, # of connection points: 2
#     Edge 38, Type (0, 0), BuildingBlock: KIFKEQ_clean_linker_1, # of connection points: 2
#     Edge 39, Type (0, 0), BuildingBlock: KIFKEQ_clean_linker_1, # of connection points: 2
#     Edge 40, Type (0, 0), BuildingBlock: KIFKEQ_clean_linker_1, # of connection points: 2
#     Edge 41, Type (0, 0), BuildingBlock: KIFKEQ_clean_linker_1, # of connection points: 2
#     Edge 42, Type (0, 0), BuildingBlock: KIFKEQ_clean_linker_1, # of connection points: 2
#     Edge 43, Type (0, 0), BuildingBlock: KIFKEQ_clean_linker_1, # of connection points: 2
#     Edge 44, Type (0, 0), BuildingBlock: KIFKEQ_clean_linker_1, # of connection points: 2
#     Edge 45, Type (0, 0), BuildingBlock: KIFKEQ_clean_linker_1, # of connection points: 2
#     Edge 46, Type (0, 0), BuildingBlock: KIFKEQ_clean_linker_1, # of connection points: 2
#     Edge 47, Type (0, 0), BuildingBlock: KIFKEQ_clean_linker_1, # of connection points: 2
#     Edge 48, Type (0, 0), BuildingBlock: KIFKEQ_clean_linker_1, # of connection points: 2
#     Edge 49, Type (0, 0), BuildingBlock: KIFKEQ_clean_linker_1, # of connection points: 2
#     Edge 50, Type (0, 0), BuildingBlock: KIFKEQ_clean_linker_1, # of connection points: 2
#     Edge 51, Type (0, 0), BuildingBlock: KIFKEQ_clean_linker_1, # of connection points: 2
#     Edge 52, Type (0, 0), BuildingBlock: KIFKEQ_clean_linker_1, # of connection points: 2
#     Edge 53, Type (0, 0), BuildingBlock: KIFKEQ_clean_linker_1, # of connection points: 2
#     Edge 54, Type (0, 0), BuildingBlock: KIFKEQ_clean_linker_1, # of connection points: 2
#     Edge 55, Type (0, 0), BuildingBlock: KIFKEQ_clean_linker_1, # of connection points: 2
#     Edge 56, Type (0, 0), BuildingBlock: KIFKEQ_clean_linker_1, # of connection points: 2
#     Edge 57, Type (0, 0), BuildingBlock: KIFKEQ_clean_linker_1, # of connection points: 2
#     Edge 58, Type (0, 0), BuildingBlock: KIFKEQ_clean_linker_1, # of connection points: 2
#     Edge 59, Type (0, 0), BuildingBlock: KIFKEQ_clean_linker_1, # of connection points: 2
#     Edge 60, Type (0, 0), BuildingBlock: KIFKEQ_clean_linker_1, # of connection points: 2
#     Edge 61, Type (0, 0), BuildingBlock: KIFKEQ_clean_linker_1, # of connection points: 2
#     Edge 62, Type (0, 0), BuildingBlock: KIFKEQ_clean_linker_1, # of connection points: 2
#     Edge 63, Type (0, 0), BuildingBlock: KIFKEQ_clean_linker_1, # of connection points: 2
#     Edge 64, Type (0, 0), BuildingBlock: KIFKEQ_clean_linker_1, # of connection points: 2
#     Edge 65, Type (0, 0), BuildingBlock: KIFKEQ_clean_linker_1, # of connection points: 2
#     Edge 66, Type (0, 0), BuildingBlock: KIFKEQ_clean_linker_1, # of connection points: 2
#     Edge 67, Type (0, 0), BuildingBlock: KIFKEQ_clean_linker_1, # of connection points: 2
#     Edge 68, Type (0, 0), BuildingBlock: KIFKEQ_clean_linker_1, # of connection points: 2
#     Edge 69, Type (0, 0), BuildingBlock: KIFKEQ_clean_linker_1, # of connection points: 2
#     Edge 70, Type (0, 0), BuildingBlock: KIFKEQ_clean_linker_1, # of connection points: 2
#     Edge 71, Type (0, 0), BuildingBlock: KIFKEQ_clean_linker_1, # of connection points: 2
#     Edge 72, Type (0, 0), BuildingBlock: KIFKEQ_clean_linker_1, # of connection points: 2
#     Edge 73, Type (0, 0), BuildingBlock: KIFKEQ_clean_linker_1, # of connection points: 2
#     Edge 74, Type (0, 0), BuildingBlock: KIFKEQ_clean_linker_1, # of connection points: 2
#     Edge 75, Type (0, 0), BuildingBlock: KIFKEQ_clean_linker_1, # of connection points: 2
#     Edge 76, Type (0, 0), BuildingBlock: KIFKEQ_clean_linker_1, # of connection points: 2
#     Edge 77, Type (0, 0), BuildingBlock: KIFKEQ_clean_linker_1, # of connection points: 2
#     Edge 78, Type (0, 0), BuildingBlock: KIFKEQ_clean_linker_1, # of connection points: 2
#     Edge 79, Type (0, 0), BuildingBlock: KIFKEQ_clean_linker_1, # of connection points: 2
#     Edge 80, Type (0, 0), BuildingBlock: KIFKEQ_clean_linker_1, # of connection points: 2
#     Edge 81, Type (0, 0), BuildingBlock: KIFKEQ_clean_linker_1, # of connection points: 2
#     Edge 82, Type (0, 0), BuildingBlock: KIFKEQ_clean_linker_1, # of connection points: 2
#     Edge 83, Type (0, 0), BuildingBlock: KIFKEQ_clean_linker_1, # of connection points: 2
#     Edge 84, Type (0, 0), BuildingBlock: KIFKEQ_clean_linker_1, # of connection points: 2
#     Edge 85, Type (0, 0), BuildingBlock: KIFKEQ_clean_linker_1, # of connection points: 2
#     Edge 86, Type (0, 0), BuildingBlock: KIFKEQ_clean_linker_1, # of connection points: 2
#     Edge 87, Type (0, 0), BuildingBlock: KIFKEQ_clean_linker_1, # of connection points: 2
#     Edge 88, Type (0, 0), BuildingBlock: KIFKEQ_clean_linker_1, # of connection points: 2
#     Edge 89, Type (0, 0), BuildingBlock: KIFKEQ_clean_linker_1, # of connection points: 2
#     Edge 90, Type (0, 0), BuildingBlock: KIFKEQ_clean_linker_1, # of connection points: 2
#     Edge 91, Type (0, 0), BuildingBlock: KIFKEQ_clean_linker_1, # of connection points: 2
#     Edge 92, Type (0, 0), BuildingBlock: KIFKEQ_clean_linker_1, # of connection points: 2
#     Edge 93, Type (0, 0), BuildingBlock: KIFKEQ_clean_linker_1, # of connection points: 2
#     Edge 94, Type (0, 0), BuildingBlock: KIFKEQ_clean_linker_1, # of connection points: 2
#     Edge 95, Type (0, 0), BuildingBlock: KIFKEQ_clean_linker_1, # of connection points: 2
#     Edge 96, Type (0, 0), BuildingBlock: KIFKEQ_clean_linker_1, # of connection points: 2
#     Edge 97, Type (0, 0), BuildingBlock: KIFKEQ_clean_linker_1, # of connection points: 2
#     Edge 98, Type (0, 0), BuildingBlock: KIFKEQ_clean_linker_1, # of connection points: 2
#     Edge 99, Type (0, 0), BuildingBlock: KIFKEQ_clean_linker_1, # of connection points: 2
#     Edge 100, Type (0, 0), BuildingBlock: KIFKEQ_clean_linker_1, # of connection points: 2
#     Edge 101, Type (0, 0), BuildingBlock: KIFKEQ_clean_linker_1, # of connection points: 2
#     Edge 102, Type (0, 0), BuildingBlock: KIFKEQ_clean_linker_1, # of connection points: 2
#     Edge 103, Type (0, 0), BuildingBlock: KIFKEQ_clean_linker_1, # of connection points: 2
#     Edge 104, Type (0, 0), BuildingBlock: KIFKEQ_clean_linker_1, # of connection points: 2
#     Edge 105, Type (0, 0), BuildingBlock: KIFKEQ_clean_linker_1, # of connection points: 2
#     Edge 106, Type (0, 0), BuildingBlock: KIFKEQ_clean_linker_1, # of connection points: 2
#     Edge 107, Type (0, 0), BuildingBlock: KIFKEQ_clean_linker_1, # of connection points: 2
# Relax obj value: 0.008
# Max RMSD: 0.094
# Mean RMSD: 0.066
data_MOF--net-uns--node1-ESEHIV_clean_sbu_0--edge1-KIFKEQ_clean_linker_1
_symmetry_space_group_name_H-M    P1
_symmetry_Int_Tables_number       1
_symmetry_cell_setting            triclinic
loop_
_symmetry_equiv_pos_as_xyz
'x, y, z'
_cell_length_a     67.292378
_cell_length_b     66.069833
_cell_length_c     47.161113
_cell_angle_alpha  94.196802
_cell_angle_beta   89.873075
_cell_angle_gamma 120.84102
loop_
_atom_site_label
_atom_site_type_symbol
_atom_site_fract_x
_atom_site_fract_y
_atom_site_fract_z
_atom_type_partial_charge
Cu0 Cu 0.28094 0.23056 0.04388 0.0
N1 N 0.28769 0.22107 0.07738 0.0
N2 N 0.30552 0.20939 0.10655 0.0
C3 C 0.29998 0.21025 0.07929 0.0
C4 C 0.29586 0.21973 0.12242 0.0
C5 C 0.28497 0.22695 0.10441 0.0
O6 O 0.27764 0.20788 0.01271 0.0
C7 C 0.3229 0.27517 0.05524 0.0
O8 O 0.32856 0.26385 0.07215 0.0
H9 H 0.30549 0.20391 0.06098 0.0
H10 H 0.2768 0.23698 0.11053 0.0
N11 N 0.25243 0.22919 0.0456 0.0
N12 N 0.22234 0.23285 0.03312 0.0
C13 C 0.24425 0.23845 0.02757 0.0
C14 C 0.23519 0.21742 0.06324 0.0
C15 C 0.21664 0.21963 0.05561 0.0
C16 C 0.29356 0.20468 0.00295 0.0
O17 O 0.31519 0.21954 0.01157 0.0
H18 H 0.25385 0.24827 0.01 0.0
H19 H 0.23584 0.20744 0.08002 0.0
O20 O 0.3044 0.26361 0.03953 0.0
H21 H 0.29765 0.22312 0.14534 0.0
H22 H 0.20012 0.21183 0.06566 0.0
Cu23 Cu 0.82437 0.06749 0.01867 0.0
N24 N 0.79412 0.06053 0.01124 0.0
N25 N 0.75535 0.04121 0.00898 0.0
C26 C 0.77438 0.04028 0.01571 0.0
C27 C 0.76356 0.06294 -0.0001 0.0
C28 C 0.78745 0.07477 0.00127 0.0
O29 O 0.82203 0.03724 0.02503 0.0
C30 C 0.82759 0.09433 0.07147 0.0
O31 O 0.80633 0.07726 0.07533 0.0
H32 H 0.77404 0.02546 0.02458 0.0
H33 H 0.79916 0.09259 0.9957 0.0
N34 N 0.84201 0.08066 0.98704 0.0
N35 N 0.87197 0.10352 0.96081 0.0
C36 C 0.86504 0.09613 0.98696 0.0
C37 C 0.83413 0.07814 0.96007 0.0
C38 C 0.85253 0.09223 0.94385 0.0
C39 C 0.83418 0.02979 0.01249 0.0
O40 O 0.85134 0.04409 0.99719 0.0
H41 H 0.87636 0.10228 0.00585 0.0
H42 H 0.81618 0.06711 0.95281 0.0
O43 O 0.83827 0.09227 0.05012 0.0
H44 H 0.75308 0.06986 0.99283 0.0
H45 H 0.85169 0.09395 0.9213 0.0
Cu46 Cu 0.99313 0.79326 0.05737 0.0
N47 N 0.97728 0.78801 0.09161 0.0
N48 N 0.94897 0.77018 0.12232 0.0
C49 C 0.95433 0.77347 0.09471 0.0
C50 C 0.96933 0.78364 0.13719 0.0
C51 C 0.9867 0.79446 0.11825 0.0
O52 O 0.97372 0.79422 0.02744 0.0
C53 C 0.98887 0.74826 0.05903 0.0
O54 O 0.96801 0.74165 0.06766 0.0
H55 H 0.94197 0.76451 0.07699 0.0
H56 H 1.00508 0.80519 0.12347 0.0
N57 N 1.02097 0.82279 0.06015 0.0
N58 N 0.05606 0.85293 0.05041 0.0
C59 C 0.03954 0.82997 0.04367 0.0
C60 C 1.02593 0.84178 0.07793 0.0
C61 C 0.04746 0.86028 0.07206 0.0
C62 C 0.95462 0.77703 0.01665 0.0
O63 O 0.94746 0.75552 0.0236 0.0
H64 H 0.04057 0.81876 0.02653 0.0
H65 H 1.01451 0.84226 0.09378 0.0
O66 O 1.00144 0.76901 0.051 0.0
H67 H 0.97176 0.78443 0.16001 0.0
H68 H 0.05606 0.87783 0.08299 0.0
Cu69 Cu 0.23434 0.26659 0.46542 0.0
N70 N 0.22399 0.27193 0.43131 0.0
N71 N 0.21556 0.29036 0.39947 0.0
C72 C 0.227 0.29272 0.4242 0.0
C73 C 0.20532 0.26719 0.39044 0.0
C74 C 0.21053 0.25592 0.41006 0.0
O75 O 0.21382 0.26613 0.49536 0.0
C76 C 0.28054 0.29235 0.49162 0.0
O77 O 0.27153 0.27946 0.51323 0.0
H78 H 0.23716 0.30921 0.43717 0.0
H79 H 0.20433 0.23721 0.40922 0.0
N80 N 0.23112 0.23651 0.4626 0.0
N81 N 0.23757 0.20692 0.46865 0.0
C82 C 0.24688 0.23066 0.46967 0.0
C83 C 0.21121 0.2158 0.45693 0.0
C84 C 0.21512 0.19759 0.46046 0.0
C85 C 0.2073 0.28113 0.49927 0.0
O86 O 0.21732 0.30031 0.48555 0.0
H87 H 0.26466 0.24352 0.47611 0.0
H88 H 0.1947 0.21407 0.45189 0.0
O89 O 0.26725 0.29038 0.47106 0.0
H90 H 0.19403 0.25874 0.37164 0.0
H91 H 0.20208 0.17895 0.45864 0.0
Cu92 Cu 0.78872 0.98616 0.46354 0.0
N93 N 0.76312 0.9903 0.46575 0.0
N94 N 0.73907 1.00302 0.45526 0.0
C95 C 0.75974 1.00489 0.45054 0.0
C96 C 0.72919 0.98685 0.47456 0.0
C97 C 0.744 0.97896 0.48088 0.0
O98 O 0.81588 1.01796 0.46286 0.0
C99 C 0.7718 0.96179 0.40807 0.0
O100 O 0.76735 0.97842 0.40322 0.0
H101 H 0.77212 1.01644 0.43596 0.0
H102 H 0.74082 0.96552 0.49501 0.0
N103 N 0.79115 0.97141 0.49489 0.0
N104 N 0.7963 0.94656 0.5197 0.0
C105 C 0.79726 0.95482 0.49398 0.0
C106 C 0.78625 0.97384 0.52215 0.0
C107 C 0.78936 0.95854 0.53746 0.0
C108 C 0.83674 1.02418 0.46926 0.0
O109 O 0.84173 1.00793 0.47415 0.0
H110 H 0.8018 0.94856 0.47462 0.0
H111 H 0.78058 0.98572 0.53025 0.0
O112 O 0.78316 0.96387 0.43074 0.0
H113 H 0.71214 0.98058 0.48277 0.0
H114 H 0.78685 0.95655 0.55998 0.0
Cu115 Cu 0.07872 0.82885 0.4388 0.0
N116 N 0.09621 0.83943 0.40609 0.0
N117 N 0.12403 0.84745 0.37489 0.0
C118 C 0.1166 0.84075 0.40113 0.0
C119 C 0.10759 0.85034 0.36279 0.0
C120 C 0.0905 0.84538 0.38201 0.0
O121 O 0.0979 0.85075 0.47123 0.0
C122 C 0.05889 0.7829 0.41593 0.0
O123 O 0.0565 0.79354 0.39488 0.0
H124 H 0.12539 0.83599 0.41602 0.0
H125 H 0.0747 0.84543 0.37825 0.0
N126 N 0.0521 0.83133 0.43694 0.0
N127 N 1.01695 0.82607 0.44559 0.0
C128 C 1.0313 0.81749 0.44819 0.0
C129 C 0.05087 0.84923 0.42702 0.0
C130 C 1.02931 0.84597 0.43206 0.0
C131 C 0.11771 0.85513 0.48015 0.0
O132 O 0.12567 0.84172 0.47003 0.0
H133 H 1.02721 0.80206 0.45914 0.0
H134 H 0.06499 0.86411 0.41764 0.0
O135 O 0.06844 0.79515 0.43942 0.0
H136 H 0.10783 0.8556 0.34153 0.0
H137 H 1.02339 0.85767 0.42648 0.0
Cu138 Cu 0.79047 0.82728 0.92779 0.0
N139 N 0.78397 0.83608 0.89379 0.0
N140 N 0.7646 0.84341 0.86152 0.0
C141 C 0.76337 0.83305 0.88565 0.0
C142 C 0.78681 0.85297 0.85395 0.0
C143 C 0.79868 0.84839 0.87383 0.0
O144 O 0.79345 0.85101 0.9578 0.0
C145 C 0.76528 0.77994 0.94743 0.0
O146 O 0.78129 0.7877 0.96796 0.0
H147 H 0.74801 0.82422 0.89786 0.0
H148 H 0.81689 0.85415 0.87401 0.0
N149 N 0.81969 0.83008 0.9262 0.0
N150 N 0.84955 0.82432 0.93103 0.0
C151 C 0.82623 0.81436 0.93104 0.0
C152 C 0.83951 0.85054 0.92305 0.0
C153 C 0.85786 0.84705 0.92584 0.0
C154 C 0.77895 0.85783 0.96164 0.0
O155 O 0.75851 0.84563 0.94845 0.0
H156 H 0.8143 0.79617 0.93497 0.0
H157 H 0.84058 0.86714 0.9201 0.0
O158 O 0.76579 0.79435 0.93051 0.0
H159 H 0.79411 0.86288 0.83559 0.0
H160 H 0.876 0.86058 0.9256 0.0
Cu161 Cu 0.23333 0.97561 0.90775 0.0
N162 N 0.22228 0.96068 0.87123 0.0
N163 N 0.20726 0.93281 0.83469 0.0
C164 C 0.21324 0.93759 0.86282 0.0
C165 C 0.21277 0.9538 0.82517 0.0
C166 C 0.22199 0.9709 0.84772 0.0
O167 O 0.21274 0.95295 0.93433 0.0
C168 C 0.28065 0.99726 0.931 0.0
O169 O 0.27323 1.0027 0.95447 0.0
H170 H 0.21158 0.92469 0.877 0.0
H171 H 0.22815 0.98953 0.84704 0.0
N172 N 0.23011 1.00224 0.91104 0.0
N173 N 0.23636 0.03895 0.91893 0.0
C174 C 0.24565 0.02502 0.91976 0.0
C175 C 0.21043 1.00179 0.90459 0.0
C176 C 0.2142 1.0243 0.90939 0.0
C177 C 0.20685 0.95916 0.9576 0.0
O178 O 0.21734 0.98174 0.96635 0.0
H179 H 0.26341 0.03129 0.92629 0.0
H180 H 0.19438 0.98605 0.89705 0.0
O181 O 0.26621 0.98521 0.91033 0.0
H182 H 0.21023 0.95664 0.80349 0.0
H183 H 0.2014 0.02936 0.90664 0.0
Cu184 Cu 0.09073 0.26857 0.87511 0.0
N185 N 0.10393 0.27127 0.83946 0.0
N186 N 0.12887 0.2845 0.80431 0.0
C187 C 0.12627 0.28515 0.83279 0.0
C188 C 0.10738 0.26957 0.79278 0.0
C189 C 0.09211 0.26152 0.81443 0.0
O190 O 0.11286 0.27148 0.9046 0.0
C191 C 0.07339 0.298 0.89977 0.0
O192 O 0.07238 0.28887 0.92393 0.0
H193 H 0.14012 0.29629 0.84838 0.0
H194 H 0.07352 0.24992 0.81206 0.0
N195 N 0.06387 0.23845 0.87562 0.0
N196 N 1.02971 0.20823 0.88738 0.0
C197 C 0.04502 0.23178 0.89141 0.0
C198 C 0.06013 0.21845 0.86098 0.0
C199 C 0.03921 0.19985 0.86824 0.0
C200 C 0.11911 0.25619 0.90174 0.0
O201 O 0.11122 0.24087 0.87927 0.0
H202 H 0.04279 0.24378 0.90605 0.0
H203 H 0.07196 0.2174 0.84623 0.0
O204 O 0.0816 0.29236 0.87831 0.0
H205 H 0.10293 0.26504 0.77025 0.0
H206 H 1.03151 0.18156 0.85991 0.0
Cu207 Cu 0.83248 0.76331 0.57608 0.0
N208 N 0.84052 0.75557 0.61007 0.0
N209 N 0.84963 0.73676 0.64067 0.0
C210 C 0.84488 0.73802 0.61315 0.0
C211 C 0.84815 0.75429 0.65532 0.0
C212 C 0.84252 0.76577 0.63646 0.0
O213 O 0.85316 0.76178 0.5477 0.0
C214 C 0.78636 0.74058 0.54897 0.0
O215 O 0.7957 0.75567 0.52946 0.0
H216 H 0.84464 0.72651 0.59545 0.0
H217 H 0.83982 0.78038 0.64167 0.0
N218 N 0.83864 0.79471 0.58052 0.0
N219 N 0.83813 0.82801 0.5753 0.0
C220 C 0.82618 0.80404 0.57146 0.0
C221 C 0.85893 0.8134 0.59072 0.0
C222 C 0.85869 0.83384 0.58757 0.0
C223 C 0.86079 0.77529 0.52744 0.0
O224 O 0.852 0.78853 0.52265 0.0
H225 H 0.80915 0.79367 0.56119 0.0
H226 H 0.87327 0.81225 0.599 0.0
O227 O 0.79927 0.74066 0.56875 0.0
H228 H 0.85046 0.75829 0.67815 0.0
H229 H 0.87276 0.85166 0.5935 0.0
Cu230 Cu 0.28658 0.07731 0.59688 0.0
N231 N 0.29707 0.09701 0.63126 0.0
N232 N 0.31957 0.12788 0.66268 0.0
C233 C 0.31439 0.11992 0.63487 0.0
C234 C 0.30488 0.10933 0.67711 0.0
C235 C 0.29108 0.09043 0.65779 0.0
O236 O 0.28183 0.09427 0.56792 0.0
C237 C 0.31125 0.05584 0.60727 0.0
O238 O 0.29876 0.05178 0.62992 0.0
H239 H 0.32383 0.13022 0.61758 0.0
H240 H 0.27825 0.07279 0.66284 0.0
N241 N 0.25759 0.04957 0.60003 0.0
N242 N 0.22657 1.01316 0.58939 0.0
C243 C 0.24842 0.02938 0.58265 0.0
C244 C 0.24101 0.04611 0.61832 0.0
C245 C 0.22203 1.02378 0.61199 0.0
C246 C 0.29707 0.11282 0.55697 0.0
O247 O 0.31911 0.12127 0.56313 0.0
H248 H 0.25744 0.02703 0.56489 0.0
H249 H 0.24237 0.05911 0.63476 0.0
O250 O 0.30886 0.06732 0.58827 0.0
H251 H 0.30442 0.10929 0.70006 0.0
H252 H 0.20609 1.01615 0.62325 0.0
Cu253 Cu 0.98894 0.22398 0.5833 0.0
N254 N 0.97103 0.21716 0.6158 0.0
N255 N 0.94123 0.20896 0.64382 0.0
C256 C 0.94904 0.21252 0.6171 0.0
C257 C 0.95907 0.21147 0.65987 0.0
C258 C 0.97735 0.21651 0.6426 0.0
O259 O 0.97058 0.19824 0.55408 0.0
C260 C 1.00988 0.27198 0.59542 0.0
O261 O 1.01336 0.26493 0.61927 0.0
H262 H 0.93915 0.21226 0.59889 0.0
H263 H 0.99417 0.21972 0.64922 0.0
N264 N 1.01611 0.22322 0.58974 0.0
N265 N 0.05213 0.22985 0.58448 0.0
C266 C 0.03666 0.23625 0.57766 0.0
C267 C 1.01856 0.20798 0.6046 0.0
C268 C 0.04069 0.21207 0.60154 0.0
C269 C 0.95229 0.19381 0.54042 0.0
O270 O 0.94547 0.20925 0.54267 0.0
H271 H 0.03995 0.24986 0.56374 0.0
H272 H 1.00494 0.19429 0.61606 0.0
O273 O 0.99864 0.25634 0.57489 0.0
H274 H 0.95895 0.20963 0.68249 0.0
H275 H 0.04741 0.20199 0.61032 0.0
Cu276 Cu 0.94632 0.55866 0.39262 0.0
N277 N 0.95313 0.54944 0.42599 0.0
N278 N 0.97109 0.53818 0.45533 0.0
C279 C 0.96875 0.54263 0.42842 0.0
C280 C 0.95629 0.54241 0.47039 0.0
C281 C 0.94527 0.54938 0.45223 0.0
O282 O 0.94422 0.53552 0.36205 0.0
C283 C 0.97414 0.60526 0.37183 0.0
O284 O 0.96148 0.59643 0.34802 0.0
H285 H 0.97871 0.54171 0.41085 0.0
H286 H 0.93273 0.55444 0.45788 0.0
N287 N 0.9179 0.55775 0.39497 0.0
N288 N 0.89006 0.56649 0.38903 0.0
C289 C 0.91199 0.57214 0.38337 0.0
C290 C 0.89909 0.54256 0.40859 0.0
C291 C 0.88197 0.54783 0.40494 0.0
C292 C 0.93015 0.5139 0.36645 0.0
O293 O 0.91806 0.50951 0.38946 0.0
H294 H 0.92362 0.58662 0.37127 0.0
H295 H 0.89783 0.52853 0.42034 0.0
O296 O 0.97111 0.59163 0.39121 0.0
H297 H 0.95364 0.5407 0.49293 0.0
H298 H 0.86475 0.53828 0.41304 0.0
Cu299 Cu 0.49913 0.39381 0.39545 0.0
N300 N 0.48197 0.38078 0.42769 0.0
N301 N 0.4505 0.36556 0.45407 0.0
C302 C 0.45989 0.37557 0.42983 0.0
C303 C 0.46742 0.36435 0.4678 0.0
C304 C 0.48687 0.37387 0.45154 0.0
O305 O 0.48878 0.36689 0.36662 0.0
C306 C 0.49954 0.4339 0.41125 0.0
O307 O 0.507 0.42908 0.43405 0.0
H308 H 0.45072 0.3786 0.41342 0.0
H309 H 0.50322 0.37531 0.45663 0.0
N310 N 0.53157 0.40918 0.39968 0.0
N311 N 0.56834 0.43458 0.38909 0.0
C312 C 0.54569 0.42617 0.38293 0.0
C313 C 0.54575 0.40665 0.41723 0.0
C314 C 0.56844 0.42225 0.41069 0.0
C315 C 0.49197 0.35071 0.37491 0.0
O316 O 0.50221 0.35438 0.40001 0.0
H317 H 0.5393 0.43186 0.36606 0.0
H318 H 0.54009 0.39428 0.43344 0.0
O319 O 0.49409 0.41981 0.38872 0.0
H320 H 0.46589 0.35717 0.48813 0.0
H321 H 0.58376 0.42439 0.42119 0.0
Cu322 Cu 0.65279 0.12046 0.38052 0.0
N323 N 0.6371 0.11803 0.41425 0.0
N324 N 0.61038 0.10074 0.44673 0.0
C325 C 0.62032 0.09745 0.42335 0.0
C326 C 0.62175 0.12437 0.45309 0.0
C327 C 0.6382 0.13501 0.43297 0.0
O328 O 0.63269 0.11911 0.34919 0.0
C329 C 0.67241 0.09062 0.36481 0.0
O330 O 0.68139 0.1028 0.34266 0.0
H331 H 0.61513 0.08033 0.41257 0.0
H332 H 0.64962 0.1538 0.43167 0.0
N333 N 0.68062 0.15002 0.38092 0.0
N334 N 0.71698 0.17855 0.37275 0.0
C335 C 0.70217 0.15504 0.37421 0.0
C336 C 0.68197 0.1711 0.38393 0.0
C337 C 0.70425 0.18864 0.37909 0.0
C338 C 0.6107 0.10547 0.34788 0.0
O339 O 0.60111 0.08865 0.36528 0.0
H340 H 0.70685 0.14179 0.36992 0.0
H341 H 0.66742 0.17345 0.38794 0.0
O342 O 0.65925 0.09474 0.3805 0.0
H343 H 0.61777 0.13337 0.47025 0.0
H344 H 0.71021 0.20725 0.37869 0.0
Cu345 Cu 0.89777 0.59051 0.78653 0.0
N346 N 0.89036 0.59924 0.7526 0.0
N347 N 0.88251 0.61909 0.72206 0.0
C348 C 0.88748 0.61778 0.74947 0.0
C349 C 0.88232 0.60061 0.70747 0.0
C350 C 0.88718 0.58852 0.72624 0.0
O351 O 0.87477 0.58706 0.81419 0.0
C352 C 0.94442 0.61576 0.77898 0.0
O353 O 0.93615 0.60392 0.75404 0.0
H354 H 0.88943 0.63032 0.76688 0.0
H355 H 0.8885 0.57308 0.7209 0.0
N356 N 0.89557 0.5609 0.78098 0.0
N357 N 0.90213 0.53124 0.78649 0.0
C358 C 0.90894 0.55419 0.79388 0.0
C359 C 0.87967 0.54157 0.765 0.0
C360 C 0.88371 0.52339 0.76818 0.0
C361 C 0.87211 0.60354 0.82561 0.0
O362 O 0.8873 0.62561 0.82132 0.0
H363 H 0.92298 0.56582 0.809 0.0
H364 H 0.86583 0.54064 0.75227 0.0
O365 O 0.9301 0.61332 0.79811 0.0
H366 H 0.8787 0.5959 0.68484 0.0
H367 H 0.87368 0.50572 0.75776 0.0
Cu368 Cu 0.45032 0.3212 0.80524 0.0
N369 N 0.42935 0.33043 0.81677 0.0
N370 N 0.41123 0.35095 0.81884 0.0
C371 C 0.4295 0.34973 0.80904 0.0
C372 C 0.39912 0.3316 0.83335 0.0
C373 C 0.41039 0.31902 0.83211 0.0
O374 O 0.47796 0.35088 0.79654 0.0
C375 C 0.44173 0.28395 0.76131 0.0
O376 O 0.46264 0.28835 0.76773 0.0
H377 H 0.44225 0.36208 0.79541 0.0
H378 H 0.40487 0.30243 0.84113 0.0
N379 N 0.45729 0.30892 0.83587 0.0
N380 N 0.4658 0.28732 0.8624 0.0
C381 C 0.45807 0.28891 0.83665 0.0
C382 C 0.46442 0.32009 0.86205 0.0
C383 C 0.46968 0.30691 0.87841 0.0
C384 C 0.49876 0.35698 0.8032 0.0
O385 O 0.50303 0.34116 0.8121 0.0
H386 H 0.45371 0.27612 0.8186 0.0
H387 H 0.46614 0.33698 0.86858 0.0
O388 O 0.43464 0.29679 0.77359 0.0
H389 H 0.3831 0.32671 0.84377 0.0
H390 H 0.476 0.3115 0.90039 0.0
Cu391 Cu 0.73878 0.15139 0.77671 0.0
N392 N 0.7548 0.15846 0.74278 0.0
N393 N 0.78404 0.16797 0.71336 0.0
C394 C 0.77767 0.16679 0.7407 0.0
C395 C 0.76432 0.16026 0.69764 0.0
C396 C 0.74633 0.15431 0.71582 0.0
O397 O 0.75967 0.17569 0.80585 0.0
C398 C 0.73937 0.1081 0.7763 0.0
O399 O 0.76133 0.12071 0.77047 0.0
H400 H 0.78931 0.17143 0.75898 0.0
H401 H 0.72824 0.14676 0.70977 0.0
N402 N 0.712 0.15353 0.7747 0.0
N403 N 0.67808 0.15011 0.78646 0.0
C404 C 0.69383 0.14378 0.79188 0.0
C405 C 0.70755 0.16637 0.75776 0.0
C406 C 0.68672 0.16431 0.76493 0.0
C407 C 0.77706 0.17729 0.81882 0.0
O408 O 0.78082 0.15962 0.81584 0.0
H409 H 0.69268 0.13301 0.80875 0.0
H410 H 0.71893 0.17695 0.74177 0.0
O411 O 0.72804 0.1184 0.78218 0.0
H412 H 0.76276 0.15812 0.67464 0.0
H413 H 0.67869 0.17284 0.75518 0.0
Cu414 Cu 0.44889 0.15408 0.24372 0.0
N415 N 0.43861 0.15791 0.20869 0.0
N416 N 0.41824 0.16548 0.17811 0.0
C417 C 0.42381 0.16572 0.20569 0.0
C418 C 0.43018 0.15724 0.16316 0.0
C419 C 0.44273 0.1526 0.18209 0.0
O420 O 0.45053 0.17928 0.27054 0.0
C421 C 0.40619 0.1098 0.24506 0.0
O422 O 0.39685 0.12115 0.23491 0.0
H423 H 0.41666 0.17067 0.22359 0.0
H424 H 0.45378 0.14554 0.17686 0.0
N425 N 0.47853 0.1578 0.24171 0.0
N426 N 0.50904 0.1539 0.25109 0.0
C427 C 0.48657 0.14633 0.25613 0.0
C428 C 0.49648 0.17298 0.22687 0.0
C429 C 0.5153 0.1707 0.2327 0.0
C430 C 0.46163 0.20017 0.26222 0.0
O431 O 0.47165 0.20314 0.23769 0.0
H432 H 0.47629 0.1331 0.27058 0.0
H433 H 0.49598 0.185 0.21291 0.0
O434 O 0.42766 0.12132 0.25257 0.0
H435 H 0.42989 0.15469 0.14021 0.0
H436 H 0.53225 0.18056 0.22393 0.0
Cu437 Cu 0.90231 0.30267 0.24621 0.0
N438 N 0.89543 0.28475 0.21077 0.0
N439 N 0.8862 0.25451 0.1781 0.0
C440 C 0.88378 0.26094 0.20521 0.0
C441 C 0.8996 0.27496 0.16612 0.0
C442 C 0.90517 0.29349 0.1862 0.0
O443 O 0.8779 0.28526 0.27267 0.0
C444 C 0.9462 0.30506 0.2469 0.0
O445 O 0.93621 0.28695 0.22772 0.0
H446 H 0.875 0.24859 0.22109 0.0
H447 H 0.91669 0.31208 0.18359 0.0
N448 N 0.90261 0.33098 0.24219 0.0
N449 N 0.90803 0.36728 0.25265 0.0
C450 C 0.91046 0.34966 0.26183 0.0
C451 C 0.89488 0.33692 0.21983 0.0
C452 C 0.89823 0.35923 0.22615 0.0
C453 C 0.87239 0.26571 0.28266 0.0
O454 O 0.88491 0.25598 0.27682 0.0
H455 H 0.91784 0.35024 0.28245 0.0
H456 H 0.88705 0.3257 0.2004 0.0
O457 O 0.93402 0.3126 0.25924 0.0
H458 H 0.90556 0.27638 0.14462 0.0
H459 H 0.89322 0.36848 0.21251 0.0
Cu460 Cu 0.75725 0.61581 0.26732 0.0
N461 N 0.77372 0.62421 0.23342 0.0
N462 N 0.80084 0.64553 0.20273 0.0
C463 C 0.79446 0.64386 0.2301 0.0
C464 C 0.78327 0.62625 0.1882 0.0
C465 C 0.76662 0.61327 0.20706 0.0
O466 O 0.77691 0.61484 0.29706 0.0
C467 C 0.7326 0.63715 0.25535 0.0
O468 O 0.72819 0.6228 0.23234 0.0
H469 H 0.80428 0.65725 0.24714 0.0
H470 H 0.75016 0.59735 0.20164 0.0
N471 N 0.73162 0.58467 0.26398 0.0
N472 N 0.70083 0.55147 0.27762 0.0
C473 C 0.71423 0.57531 0.2823 0.0
C474 C 0.72919 0.56609 0.24725 0.0
C475 C 0.71019 0.54573 0.25537 0.0
C476 C 0.79731 0.63046 0.30622 0.0
O477 O 0.80692 0.65196 0.29805 0.0
H478 H 0.71242 0.58566 0.29989 0.0
H479 H 0.74118 0.567 0.23141 0.0
O480 O 0.74555 0.63728 0.27521 0.0
H481 H 0.7824 0.62183 0.1655 0.0
H482 H 0.70427 0.52798 0.24611 0.0
Cu483 Cu 0.50124 0.10622 0.93317 0.0
N484 N 0.50947 0.10095 0.96877 0.0
N485 N 0.52089 0.08743 0.00375 0.0
C486 C 0.52008 0.08908 0.97532 0.0
C487 C 0.51052 0.0988 0.0153 0.0
C488 C 0.50345 0.10693 0.99379 0.0
O489 O 0.52238 0.10547 0.90459 0.0
C490 C 0.45448 0.07955 0.90638 0.0
O491 O 0.46311 0.09145 0.88395 0.0
H492 H 0.52625 0.08108 0.95954 0.0
H493 H 0.49406 0.11618 0.99615 0.0
N494 N 0.5049 0.13658 0.93623 0.0
N495 N 0.50128 0.16796 0.93038 0.0
C496 C 0.49467 0.14548 0.92076 0.0
C497 C 0.51853 0.15416 0.95599 0.0
C498 C 0.51633 0.1734 0.9525 0.0
C499 C 0.54374 0.1215 0.9086 0.0
O500 O 0.54982 0.13649 0.93129 0.0
H501 H 0.48235 0.13561 0.90321 0.0
H502 H 0.52937 0.15306 0.97196 0.0
O503 O 0.46807 0.08259 0.92718 0.0
H504 H 0.50802 0.10096 0.03774 0.0
H505 H 0.52534 0.19022 0.96514 0.0
Cu506 Cu 0.95918 0.40185 0.90753 0.0
N507 N 0.97081 0.42146 0.94158 0.0
N508 N 0.99258 0.45305 0.97221 0.0
C509 C 0.98587 0.44506 0.94466 0.0
C510 C 0.98148 0.43377 0.98697 0.0
C511 C 0.96836 0.41435 0.96806 0.0
O512 O 0.95176 0.41826 0.88023 0.0
C513 C 0.98289 0.38036 0.87735 0.0
O514 O 0.96693 0.37232 0.85675 0.0
H515 H 0.99216 0.4561 0.92709 0.0
H516 H 0.95855 0.39615 0.9732 0.0
N517 N 0.93122 0.37384 0.91384 0.0
N518 N 0.90019 0.33711 0.90772 0.0
C519 C 0.92007 0.35355 0.89667 0.0
C520 C 0.91756 0.37015 0.93615 0.0
C521 C 0.89861 0.34751 0.9326 0.0
C522 C 0.96568 0.43699 0.86848 0.0
O523 O 0.9881 0.44589 0.87185 0.0
H524 H 0.92629 0.35085 0.87644 0.0
H525 H 0.92078 0.38318 0.95355 0.0
O526 O 0.98276 0.39381 0.89802 0.0
H527 H 0.98356 0.43356 0.00969 0.0
H528 H 0.88439 0.33958 0.94678 0.0
Cu529 Cu 0.65694 0.55792 0.9074 0.0
N530 N 0.64056 0.55446 0.94068 0.0
N531 N 0.6118 0.54796 0.96966 0.0
C532 C 0.61774 0.5465 0.94249 0.0
C533 C 0.63169 0.55706 0.98549 0.0
C534 C 0.64937 0.56114 0.96758 0.0
O535 O 0.63701 0.53112 0.87998 0.0
C536 C 0.6606 0.60296 0.90364 0.0
O537 O 0.63989 0.59304 0.91412 0.0
H538 H 0.60582 0.54016 0.92419 0.0
H539 H 0.6675 0.56904 0.97365 0.0
N540 N 0.68312 0.55574 0.91477 0.0
N541 N 0.71831 0.56011 0.91032 0.0
C542 C 0.70283 0.56546 0.90034 0.0
C543 C 0.68613 0.5438 0.93456 0.0
C544 C 0.70777 0.54648 0.93193 0.0
C545 C 0.61892 0.52703 0.86609 0.0
O546 O 0.61321 0.54333 0.86691 0.0
H547 H 0.70547 0.57581 0.88245 0.0
H548 H 0.67342 0.53371 0.94972 0.0
O549 O 0.66922 0.59016 0.89639 0.0
H550 H 0.63354 0.56134 0.00829 0.0
H551 H 0.71512 0.53902 0.9451 0.0
Cu552 Cu 0.61247 0.88681 0.72235 0.0
N553 N 0.62188 0.87954 0.75536 0.0
N554 N 0.64199 0.87043 0.78419 0.0
C555 C 0.63706 0.87211 0.757 0.0
C556 C 0.62914 0.87687 0.80021 0.0
C557 C 0.61681 0.88254 0.78236 0.0
O558 O 0.60715 0.86269 0.69183 0.0
C559 C 0.65606 0.93114 0.72301 0.0
O560 O 0.66619 0.91968 0.73024 0.0
H561 H 0.64468 0.86849 0.73857 0.0
H562 H 0.60554 0.8891 0.78866 0.0
N563 N 0.58443 0.88577 0.72726 0.0
N564 N 0.55672 0.89444 0.7206 0.0
C565 C 0.57867 0.90005 0.71534 0.0
C566 C 0.56561 0.87057 0.74079 0.0
C567 C 0.5485 0.87588 0.73676 0.0
C568 C 0.62225 0.86087 0.67741 0.0
O569 O 0.64415 0.87762 0.68085 0.0
H570 H 0.59041 0.91406 0.70264 0.0
H571 H 0.56422 0.85625 0.75209 0.0
O572 O 0.63451 0.91973 0.71615 0.0
H573 H 0.62933 0.87835 0.82322 0.0
H574 H 0.53108 0.86614 0.74424 0.0
Cu575 Cu 0.16684 0.73471 0.73845 0.0
N576 N 0.15091 0.72154 0.77103 0.0
N577 N 0.11802 0.70156 0.79401 0.0
C578 C 0.12838 0.70451 0.76889 0.0
C579 C 0.13482 0.71732 0.81296 0.0
C580 C 0.15518 0.7296 0.79872 0.0
O581 O 0.15511 0.7079 0.70958 0.0
C582 C 0.17137 0.77766 0.75019 0.0
O583 O 0.18448 0.77712 0.7703 0.0
H584 H 0.11921 0.69608 0.74867 0.0
H585 H 0.17134 0.74448 0.80756 0.0
N586 N 0.19926 0.74954 0.74104 0.0
N587 N 0.23564 0.77296 0.72775 0.0
C588 C 0.21285 0.76301 0.72094 0.0
C589 C 0.21387 0.75093 0.76156 0.0
C590 C 0.23634 0.76536 0.7534 0.0
C591 C 0.16329 0.69443 0.71225 0.0
O592 O 0.1794 0.70042 0.73217 0.0
H593 H 0.20593 0.76595 0.70203 0.0
H594 H 0.20857 0.74232 0.78113 0.0
O595 O 0.16077 0.75993 0.7318 0.0
H596 H 0.13232 0.72058 0.83513 0.0
H597 H 0.25192 0.76982 0.76546 0.0
Cu598 Cu 0.3271 0.44614 0.68853 0.0
N599 N 0.30456 0.41382 0.685 0.0
N600 N 0.27293 0.38109 0.69755 0.0
C601 C 0.28447 0.40491 0.69852 0.0
C602 C 0.28634 0.37467 0.68281 0.0
C603 C 0.30589 0.39494 0.67508 0.0
O604 O 0.30952 0.46239 0.69023 0.0
C605 C 0.35944 0.44166 0.71807 0.0
O606 O 0.36153 0.43482 0.69195 0.0
H607 H 0.27916 0.41585 0.71046 0.0
H608 H 0.32051 0.39587 0.66433 0.0
N609 N 0.34691 0.45688 0.65775 0.0
N610 N 0.37846 0.47952 0.63347 0.0
C611 C 0.36872 0.47577 0.65913 0.0
C612 C 0.34268 0.44839 0.63024 0.0
C613 C 0.36205 0.46235 0.61521 0.0
C614 C 0.29433 0.45522 0.66985 0.0
O615 O 0.29306 0.4394 0.6502 0.0
H616 H 0.3772 0.48669 0.6786 0.0
H617 H 0.32663 0.43314 0.62171 0.0
O618 O 0.34547 0.44915 0.72239 0.0
H619 H 0.28262 0.35671 0.67859 0.0
H620 H 0.364 0.45986 0.59266 0.0
Cu621 Cu 0.57077 0.93746 0.12386 0.0
N622 N 0.57956 0.96944 0.12633 0.0
N623 N 0.57864 1.00068 0.11238 0.0
C624 C 0.5671 0.97696 0.11311 0.0
C625 C 0.59934 1.00847 0.12578 0.0
C626 C 0.59989 0.98913 0.13432 0.0
O627 O 0.53686 0.92043 0.12457 0.0
C628 C 0.60713 0.9417 0.09306 0.0
O629 O 0.61652 0.94854 0.11892 0.0
H630 H 0.55045 0.96499 0.10238 0.0
H631 H 0.6145 0.98932 0.14412 0.0
N632 N 0.58159 0.9281 0.15417 0.0
N633 N 0.59337 0.90701 0.1766 0.0
C634 C 0.5825 0.90812 0.15319 0.0
C635 C 0.59201 0.94001 0.17922 0.0
C636 C 0.59929 0.92707 0.19308 0.0
C637 C 0.53005 0.92713 0.1467 0.0
O638 O 0.54579 0.94244 0.16578 0.0
H639 H 0.57635 0.89527 0.13489 0.0
H640 H 0.59475 0.9572 0.18648 0.0
O641 O 0.5856 0.93438 0.08934 0.0
H642 H 0.61336 0.02672 0.12844 0.0
H643 H 0.60849 0.93224 0.21357 0.0
Cu644 Cu 0.11603 0.64602 0.11623 0.0
N645 N 0.09178 0.65052 0.12652 0.0
N646 N 0.06619 0.66224 0.12254 0.0
C647 C 0.08712 0.66588 0.11531 0.0
C648 C 0.05739 0.64393 0.13907 0.0
C649 C 0.07325 0.63674 0.1415 0.0
O650 O 0.1412 0.67741 0.10846 0.0
C651 C 0.11029 0.61021 0.07085 0.0
O652 O 0.13141 0.61494 0.07662 0.0
H653 H 0.09818 0.6784 0.10057 0.0
H654 H 0.07094 0.62176 0.15214 0.0
N655 N 0.12476 0.63521 0.14679 0.0
N656 N 0.13467 0.61496 0.17383 0.0
C657 C 0.12636 0.6157 0.14803 0.0
C658 C 0.13205 0.64697 0.17265 0.0
C659 C 0.13815 0.63461 0.18932 0.0
C660 C 0.16268 0.68504 0.11261 0.0
O661 O 0.16927 0.67017 0.11852 0.0
H662 H 0.12204 0.60265 0.13026 0.0
H663 H 0.13311 0.66361 0.1788 0.0
O664 O 0.10272 0.62218 0.08413 0.0
H665 H 0.04043 0.63588 0.14803 0.0
H666 H 0.1446 0.63972 0.21123 0.0
Cu667 Cu 0.4157 0.49862 0.10943 0.0
N668 N 0.43094 0.50731 0.07532 0.0
N669 N 0.45906 0.51627 0.04446 0.0
C670 C 0.453 0.51288 0.07179 0.0
C671 C 0.43997 0.51269 0.03022 0.0
C672 C 0.42265 0.50717 0.04933 0.0
O673 O 0.43902 0.51954 0.13909 0.0
C674 C 0.38821 0.4511 0.09265 0.0
O675 O 0.37936 0.46004 0.07633 0.0
H676 H 0.46406 0.51346 0.08885 0.0
H677 H 0.40511 0.50277 0.0445 0.0
N678 N 0.39013 0.5029 0.11071 0.0
N679 N 0.3559 0.49876 0.12202 0.0
C680 C 0.37035 0.49035 0.12451 0.0
C681 C 0.38809 0.51973 0.09899 0.0
C682 C 0.36707 0.51726 0.10593 0.0
C683 C 0.435 0.52895 0.16121 0.0
O684 O 0.41347 0.52214 0.16703 0.0
H685 H 0.36699 0.4758 0.13685 0.0
H686 H 0.40114 0.53307 0.08658 0.0
O687 O 0.40473 0.46504 0.11042 0.0
H688 H 0.43853 0.51378 0.00761 0.0
H689 H 0.36058 0.5283 0.09964 0.0
Cu690 Cu 0.12002 0.49799 0.59986 0.0
N691 N 0.113 0.50376 0.56396 0.0
N692 N 0.09183 0.5078 0.53072 0.0
C693 C 0.09152 0.49656 0.55369 0.0
C694 C 0.11449 0.52192 0.5257 0.0
C695 C 0.12748 0.51942 0.54622 0.0
O696 O 0.11792 0.52022 0.62789 0.0
C697 C 0.09866 0.44965 0.58524 0.0
O698 O 0.11192 0.45795 0.56347 0.0
H699 H 0.07601 0.48454 0.5642 0.0
H700 H 0.14612 0.52959 0.54912 0.0
N701 N 0.15102 0.50588 0.60284 0.0
N702 N 0.18333 0.50634 0.61606 0.0
C703 C 0.15989 0.49327 0.61252 0.0
C704 C 0.16935 0.52761 0.60036 0.0
C705 C 0.18917 0.52794 0.60827 0.0
C706 C 0.10411 0.52794 0.62565 0.0
O707 O 0.08695 0.51751 0.60653 0.0
H708 H 0.14921 0.47514 0.61766 0.0
H709 H 0.16826 0.54257 0.59461 0.0
O710 O 0.0994 0.46436 0.60496 0.0
H711 H 0.1213 0.53463 0.50982 0.0
H712 H 0.20643 0.54338 0.60939 0.0
Cu713 Cu 0.56855 0.64339 0.54735 0.0
N714 N 0.56385 0.62826 0.51062 0.0
N715 N 0.55181 0.59952 0.47516 0.0
C716 C 0.54891 0.60526 0.50235 0.0
C717 C 0.5692 0.61975 0.46598 0.0
C718 C 0.57654 0.63742 0.48785 0.0
O719 O 0.54254 0.62249 0.57006 0.0
C720 C 0.61126 0.64352 0.55336 0.0
O721 O 0.60064 0.62319 0.53784 0.0
H722 H 0.53695 0.59271 0.51644 0.0
H723 H 0.59069 0.6555 0.48753 0.0
N724 N 0.56859 0.67172 0.54597 0.0
N725 N 0.57547 0.70817 0.55888 0.0
C726 C 0.57519 0.68891 0.56738 0.0
C727 C 0.56444 0.68034 0.5232 0.0
C728 C 0.5687 0.7028 0.53106 0.0
C729 C 0.53865 0.60298 0.57868 0.0
O730 O 0.55418 0.59673 0.57489 0.0
H731 H 0.58052 0.68763 0.58849 0.0
H732 H 0.55919 0.67115 0.50218 0.0
O733 O 0.5998 0.65322 0.56166 0.0
H734 H 0.57642 0.62158 0.44514 0.0
H735 H 0.56701 0.71431 0.51733 0.0
Cu736 Cu 0.42367 0.94803 0.59835 0.0
N737 N 0.43845 0.95628 0.56362 0.0
N738 N 0.46594 0.9765 0.53309 0.0
C739 C 0.45953 0.97539 0.56037 0.0
C740 C 0.44814 0.9574 0.5186 0.0
C741 C 0.43117 0.94506 0.53743 0.0
O742 O 0.44622 0.94947 0.62572 0.0
C743 C 0.39849 0.96901 0.58843 0.0
O744 O 0.39309 0.95423 0.56563 0.0
H745 H 0.4701 0.98801 0.57781 0.0
H746 H 0.41463 0.92914 0.53226 0.0
N747 N 0.39836 0.91685 0.59661 0.0
N748 N 0.36736 0.8843 0.61098 0.0
C749 C 0.38149 0.90806 0.61558 0.0
C750 C 0.39488 0.89805 0.57945 0.0
C751 C 0.37579 0.87805 0.58812 0.0
C752 C 0.45558 0.93771 0.61684 0.0
O753 O 0.44955 0.92669 0.59121 0.0
H754 H 0.38008 0.91891 0.63283 0.0
H755 H 0.40608 0.89858 0.5627 0.0
O756 O 0.41219 0.96944 0.60745 0.0
H757 H 0.44729 0.95289 0.49593 0.0
H758 H 0.36938 0.86017 0.57901 0.0
Cu759 Cu 0.16819 0.43525 0.25191 0.0
N760 N 0.17458 0.42646 0.28615 0.0
N761 N 0.18263 0.40695 0.31678 0.0
C762 C 0.18112 0.4105 0.28913 0.0
C763 C 0.17683 0.42133 0.33161 0.0
C764 C 0.17179 0.43319 0.31273 0.0
O765 O 0.19096 0.43704 0.2245 0.0
C766 C 0.12076 0.41465 0.25664 0.0
O767 O 0.12847 0.43204 0.2768 0.0
H768 H 0.18395 0.40115 0.27128 0.0
H769 H 0.16599 0.44548 0.31803 0.0
N770 N 0.172 0.46562 0.25684 0.0
N771 N 0.16897 0.4972 0.25007 0.0
C772 C 0.16284 0.4749 0.24026 0.0
C773 C 0.18452 0.48272 0.27758 0.0
C774 C 0.18265 0.50211 0.27353 0.0
C775 C 0.212 0.45187 0.23246 0.0
O776 O 0.21615 0.46333 0.25774 0.0
H777 H 0.15162 0.46531 0.22167 0.0
H778 H 0.19451 0.4813 0.29441 0.0
O779 O 0.13544 0.41239 0.24161 0.0
H780 H 0.17614 0.42316 0.35452 0.0
H781 H 0.19108 0.51871 0.28664 0.0
Cu782 Cu 0.62131 0.74691 0.25975 0.0
N783 N 0.63347 0.76659 0.29367 0.0
N784 N 0.65706 0.79831 0.32323 0.0
C785 C 0.65247 0.78845 0.29614 0.0
C786 C 0.64034 0.78183 0.33848 0.0
C787 C 0.62587 0.76231 0.32023 0.0
O788 O 0.61722 0.76569 0.23259 0.0
C789 C 0.64414 0.7235 0.26959 0.0
O790 O 0.63245 0.72087 0.29277 0.0
H791 H 0.663 0.79681 0.2785 0.0
H792 H 0.61095 0.74611 0.32602 0.0
N793 N 0.59156 0.72104 0.26454 0.0
N794 N 0.55867 0.68592 0.25648 0.0
C795 C 0.5812 0.69943 0.25011 0.0
C796 C 0.57506 0.7212 0.2805 0.0
C797 C 0.55487 0.69963 0.27572 0.0
C798 C 0.63301 0.78437 0.22239 0.0
O799 O 0.65475 0.7903 0.22586 0.0
H800 H 0.58973 0.69417 0.2343 0.0
H801 H 0.5773 0.73628 0.29391 0.0
O802 O 0.64188 0.73478 0.25019 0.0
H803 H 0.63844 0.78378 0.36113 0.0
H804 H 0.53854 0.69462 0.28537 0.0
Cu805 Cu 0.31364 0.88559 0.22138 0.0
N806 N 0.29836 0.88005 0.25588 0.0
N807 N 0.27082 0.87243 0.28732 0.0
C808 C 0.27591 0.87313 0.25952 0.0
C809 C 0.29082 0.87894 0.30168 0.0
C810 C 0.30775 0.88372 0.28228 0.0
O811 O 0.2932 0.86027 0.19296 0.0
C812 C 0.31562 0.93002 0.22177 0.0
O813 O 0.29523 0.9187 0.23295 0.0
H814 H 0.26368 0.86915 0.24213 0.0
H815 H 0.32581 0.89006 0.28711 0.0
N816 N 0.33945 0.88209 0.22442 0.0
N817 N 0.37199 0.88255 0.21271 0.0
C818 C 0.35794 0.89109 0.2078 0.0
C819 C 0.34184 0.86734 0.24036 0.0
C820 C 0.3619 0.86766 0.23331 0.0
C821 C 0.27427 0.85564 0.18088 0.0
O822 O 0.26705 0.87068 0.18475 0.0
H823 H 0.36045 0.90286 0.19156 0.0
H824 H 0.32946 0.8565 0.2554 0.0
O825 O 0.32522 0.91845 0.21308 0.0
H826 H 0.29328 0.88102 0.32461 0.0
H827 H 0.36842 0.85755 0.24251 0.0
H828 H 0.3085 0.19671 0.15929 0.0
H829 H 0.33793 0.20501 0.07638 0.0
H830 H 0.3356 0.18576 0.1764 0.0
H831 H 0.36475 0.19389 0.09343 0.0
H832 H 0.3945 0.15076 0.12687 0.0
H833 H 0.36661 0.16052 0.10937 0.0
H834 H 0.37713 0.204 0.1873 0.0
H835 H 0.40509 0.19444 0.20472 0.0
C836 C 0.32072 0.19628 0.14469 0.0
C837 C 0.32087 0.2018 0.11639 0.0
C838 C 0.33631 0.19 0.15452 0.0
C839 C 0.35243 0.18899 0.13632 0.0
C840 C 0.35237 0.19416 0.10795 0.0
C841 C 0.33687 0.20052 0.09814 0.0
C842 C 0.39108 0.16259 0.1402 0.0
C843 C 0.4021 0.17171 0.16731 0.0
C844 C 0.37501 0.16816 0.13016 0.0
C845 C 0.36949 0.18296 0.14697 0.0
C846 C 0.38061 0.19219 0.17399 0.0
C847 C 0.39671 0.18669 0.18398 0.0
H848 H 0.81531 0.10277 0.12464 0.0
H849 H 0.86265 0.13774 0.05873 0.0
H850 H 0.83035 0.14068 0.15251 0.0
H851 H 0.87667 0.17569 0.08539 0.0
H852 H 0.91097 0.241 0.14543 0.0
H853 H 0.89826 0.20189 0.12244 0.0
H854 H 0.83071 0.17576 0.15759 0.0
H855 H 0.84434 0.21485 0.18206 0.0
C856 C 0.82895 0.11858 0.1161 0.0
C857 C 0.83785 0.11714 0.08951 0.0
C858 C 0.83746 0.14047 0.13196 0.0
C859 C 0.8548 0.16164 0.12143 0.0
C860 C 0.86376 0.16 0.09483 0.0
C861 C 0.85559 0.1381 0.07931 0.0
C862 C 0.89343 0.22681 0.14825 0.0
C863 C 0.87858 0.23099 0.16533 0.0
C864 C 0.88599 0.20431 0.13487 0.0
C865 C 0.8632 0.18535 0.13755 0.0
C866 C 0.84845 0.18958 0.15513 0.0
C867 C 0.85615 0.21205 0.16908 0.0
H868 H 0.80661 0.65964 0.14909 0.0
H869 H 0.84268 0.67398 0.23034 0.0
H870 H 0.84181 0.69054 0.12963 0.0
H871 H 0.87806 0.70468 0.21083 0.0
H872 H 0.93311 0.77257 0.17473 0.0
H873 H 0.89693 0.74316 0.19428 0.0
H874 H 0.87892 0.69945 0.11491 0.0
H875 H 0.91483 0.72898 0.09538 0.0
C876 C 0.8221 0.66923 0.16278 0.0
C877 C 0.82172 0.66419 0.19132 0.0
C878 C 0.84238 0.68701 0.15158 0.0
C879 C 0.86298 0.70021 0.16853 0.0
C880 C 0.86254 0.69525 0.19716 0.0
C881 C 0.8422 0.67754 0.2084 0.0
C882 C 0.92141 0.75669 0.16146 0.0
C883 C 0.92696 0.75327 0.13342 0.0
C884 C 0.90064 0.73972 0.17271 0.0
C885 C 0.88485 0.71875 0.15629 0.0
C886 C 0.89034 0.71549 0.12813 0.0
C887 C 0.91103 0.7325 0.11685 0.0
H888 H 0.21916 0.33 0.42638 0.0
H889 H 0.20534 0.29122 0.34397 0.0
H890 H 0.21257 0.35887 0.40578 0.0
H891 H 0.19795 0.31973 0.32351 0.0
H892 H 0.20696 0.3883 0.29181 0.0
H893 H 0.21621 0.36071 0.31128 0.0
H894 H 0.18006 0.36059 0.38708 0.0
H895 H 0.17075 0.38792 0.36771 0.0
C896 C 0.21493 0.32769 0.40381 0.0
C897 C 0.21278 0.30816 0.3869 0.0
C898 C 0.21085 0.34414 0.39203 0.0
C899 C 0.20453 0.34158 0.36299 0.0
C900 C 0.20291 0.32237 0.34591 0.0
C901 C 0.20693 0.30586 0.35772 0.0
C902 C 0.20084 0.38229 0.31253 0.0
C903 C 0.18817 0.39055 0.32815 0.0
C904 C 0.20617 0.36645 0.32373 0.0
C905 C 0.19901 0.3585 0.35086 0.0
C906 C 0.18628 0.36668 0.36638 0.0
C907 C 0.18093 0.38243 0.35521 0.0
H908 H 0.68048 0.83674 0.29286 0.0
H909 H 0.67609 0.8132 0.37696 0.0
H910 H 0.71134 0.87619 0.31027 0.0
H911 H 0.70628 0.8529 0.39461 0.0
H912 H 0.77279 0.92155 0.41573 0.0
H913 H 0.74709 0.88189 0.39314 0.0
H914 H 0.71573 0.90949 0.34013 0.0
H915 H 0.74172 0.94915 0.36221 0.0
C916 C 0.68616 0.83987 0.31502 0.0
C917 C 0.67568 0.82166 0.33348 0.0
C918 C 0.70375 0.86262 0.32508 0.0
C919 C 0.71136 0.86781 0.35387 0.0
C920 C 0.70111 0.84952 0.37223 0.0
C921 C 0.68352 0.82677 0.36217 0.0
C922 C 0.76074 0.91925 0.39886 0.0
C923 C 0.75925 0.93858 0.39096 0.0
C924 C 0.74582 0.89644 0.38609 0.0
C925 C 0.72906 0.89238 0.36509 0.0
C926 C 0.72848 0.91192 0.35609 0.0
C927 C 0.7434 0.93472 0.36884 0.0
H928 H 0.1649 0.86066 0.40199 0.0
H929 H 0.13039 0.84073 0.31896 0.0
H930 H 0.20019 0.86622 0.3806 0.0
H931 H 0.16541 0.84566 0.29749 0.0
H932 H 0.2388 0.88069 0.26488 0.0
H933 H 0.20321 0.87435 0.28604 0.0
H934 H 0.21791 0.84668 0.35822 0.0
H935 H 0.25381 0.85364 0.33721 0.0
C936 C 0.16477 0.85719 0.37918 0.0
C937 C 0.14481 0.85032 0.36221 0.0
C938 C 0.18502 0.86031 0.36685 0.0
C939 C 0.18581 0.85642 0.3372 0.0
C940 C 0.16571 0.8493 0.3203 0.0
C941 C 0.14555 0.8464 0.33262 0.0
C942 C 0.23432 0.87303 0.28512 0.0
C943 C 0.24919 0.86768 0.29933 0.0
C944 C 0.21383 0.86934 0.29731 0.0
C945 C 0.20753 0.85999 0.32397 0.0
C946 C 0.22231 0.85434 0.33796 0.0
C947 C 0.24289 0.85823 0.32587 0.0
H948 H 0.64295 0.85317 0.83436 0.0
H949 H 0.67958 0.87531 0.75673 0.0
H950 H 0.67246 0.84577 0.85208 0.0
H951 H 0.70849 0.86703 0.77395 0.0
H952 H 0.77004 0.8782 0.8293 0.0
H953 H 0.73979 0.88351 0.80967 0.0
H954 H 0.68775 0.81956 0.84462 0.0
H955 H 0.71808 0.81423 0.86431 0.0
C956 C 0.65721 0.85638 0.82101 0.0
C957 C 0.65883 0.86491 0.79412 0.0
C958 C 0.67401 0.85188 0.83105 0.0
C959 C 0.69289 0.85582 0.81446 0.0
C960 C 0.69434 0.86404 0.78743 0.0
C961 C 0.67755 0.86852 0.77739 0.0
C962 C 0.75217 0.86505 0.83247 0.0
C963 C 0.74657 0.8458 0.84848 0.0
C964 C 0.73477 0.86812 0.8212 0.0
C965 C 0.71131 0.852 0.82561 0.0
C966 C 0.70566 0.83253 0.84121 0.0
C967 C 0.72307 0.82946 0.85249 0.0
H968 H 0.18209 0.88903 0.85353 0.0
H969 H 0.21102 0.92526 0.77799 0.0
H970 H 0.16883 0.85123 0.82639 0.0
H971 H 0.19705 0.88736 0.7506 0.0
H972 H 0.20314 0.81951 0.73199 0.0
H973 H 0.2084 0.85779 0.74886 0.0
H974 H 0.1425 0.82245 0.7889 0.0
H975 H 0.13757 0.7841 0.7721 0.0
C976 C 0.18549 0.88896 0.8311 0.0
C977 C 0.19788 0.91029 0.8181 0.0
C978 C 0.17754 0.86721 0.81538 0.0
C979 C 0.18181 0.86619 0.78623 0.0
C980 C 0.19357 0.88748 0.77303 0.0
C981 C 0.20146 0.90924 0.78874 0.0
C982 C 0.18927 0.82002 0.74315 0.0
C983 C 0.16973 0.79897 0.75024 0.0
C984 C 0.19232 0.84195 0.75303 0.0
C985 C 0.17601 0.84324 0.7706 0.0
C986 C 0.15554 0.82208 0.77575 0.0
C987 C 0.15247 0.80013 0.76571 0.0
H988 H 0.13199 0.30145 0.75294 0.0
H989 H 0.17302 0.29854 0.82093 0.0
H990 H 0.16685 0.32407 0.72661 0.0
H991 H 0.20816 0.32143 0.79451 0.0
H992 H 0.26114 0.34066 0.72213 0.0
H993 H 0.22623 0.31686 0.74845 0.0
H994 H 0.2024 0.36455 0.73208 0.0
H995 H 0.23715 0.38817 0.7058 0.0
C996 C 0.14846 0.30552 0.7622 0.0
C997 C 0.1497 0.29811 0.78902 0.0
C998 C 0.16848 0.31867 0.7472 0.0
C999 C 0.19029 0.32455 0.75844 0.0
C1000 C 0.19159 0.31702 0.78518 0.0
C1001 C 0.17152 0.30411 0.80041 0.0
C1002 C 0.24832 0.34588 0.72393 0.0
C1003 C 0.25188 0.36627 0.71184 0.0
C1004 C 0.22846 0.33242 0.73926 0.0
C1005 C 0.21156 0.33884 0.7424 0.0
C1006 C 0.215 0.35903 0.72991 0.0
C1007 C 0.23496 0.37264 0.71499 0.0
H1008 H 0.83907 0.6934 0.6166 0.0
H1009 H 0.87192 0.74188 0.69123 0.0
H1010 H 0.8472 0.66525 0.63639 0.0
H1011 H 0.87996 0.71369 0.711 0.0
H1012 H 0.86883 0.64708 0.7505 0.0
H1013 H 0.86109 0.6756 0.73085 0.0
H1014 H 0.87874 0.65919 0.64771 0.0
H1015 H 0.88655 0.63081 0.66728 0.0
C1016 C 0.8482 0.69823 0.63709 0.0
C1017 C 0.85476 0.72007 0.65221 0.0
C1018 C 0.85288 0.682 0.6485 0.0
C1019 C 0.86423 0.68709 0.67539 0.0
C1020 C 0.87085 0.70893 0.69047 0.0
C1021 C 0.86622 0.72517 0.67906 0.0
C1022 C 0.87129 0.64966 0.72809 0.0
C1023 C 0.87828 0.63642 0.71058 0.0
C1024 C 0.86683 0.66608 0.71677 0.0
C1025 C 0.86918 0.66973 0.6876 0.0
C1026 C 0.87631 0.6566 0.67015 0.0
C1027 C 0.88081 0.64025 0.68145 0.0
H1028 H 0.44562 0.24544 0.74553 0.0
H1029 H 0.40033 0.27305 0.73593 0.0
H1030 H 0.41686 0.20816 0.71977 0.0
H1031 H 0.37169 0.23577 0.70979 0.0
H1032 H 0.33526 0.17061 0.64203 0.0
H1033 H 0.36591 0.20937 0.66338 0.0
H1034 H 0.3764 0.17541 0.73174 0.0
H1035 H 0.3458 0.13693 0.71061 0.0
C1036 C 0.4297 0.24373 0.73756 0.0
C1037 C 0.42531 0.26229 0.7429 0.0
C1038 C 0.41315 0.22227 0.72294 0.0
C1039 C 0.39193 0.21894 0.71285 0.0
C1040 C 0.3879 0.23781 0.71716 0.0
C1041 C 0.4043 0.25915 0.73222 0.0
C1042 C 0.34423 0.17148 0.66153 0.0
C1043 C 0.33802 0.15071 0.67469 0.0
C1044 C 0.36167 0.19365 0.67383 0.0
C1045 C 0.37363 0.19547 0.69924 0.0
C1046 C 0.36767 0.17463 0.71207 0.0
C1047 C 0.34998 0.15259 0.70009 0.0
H1048 H 0.93055 0.2183 0.69688 0.0
H1049 H 0.90057 0.1879 0.61253 0.0
H1050 H 0.89272 0.20898 0.71332 0.0
H1051 H 0.86257 0.17839 0.62904 0.0
H1052 H 0.80155 0.18469 0.66249 0.0
H1053 H 0.83961 0.19514 0.64525 0.0
H1054 H 0.85607 0.17596 0.72368 0.0
H1055 H 0.81823 0.1657 0.74088 0.0
C1056 C 0.91587 0.20944 0.68185 0.0
C1057 C 0.91872 0.20378 0.65336 0.0
C1058 C 0.89409 0.20406 0.69131 0.0
C1059 C 0.87443 0.19279 0.67261 0.0
C1060 C 0.87731 0.18734 0.64402 0.0
C1061 C 0.89915 0.19279 0.63452 0.0
C1062 C 0.81324 0.1826 0.67601 0.0
C1063 C 0.80672 0.17443 0.70318 0.0
C1064 C 0.83511 0.18856 0.66609 0.0
C1065 C 0.85107 0.18649 0.68305 0.0
C1066 C 0.8445 0.17826 0.71019 0.0
C1067 C 0.82269 0.17235 0.7201 0.0
H1068 H 0.98959 0.51553 0.42531 0.0
H1069 H 0.98897 0.54598 0.50929 0.0
H1070 H 1.01765 0.50594 0.44263 0.0
H1071 H 1.01694 0.53638 0.52658 0.0
H1072 H 0.05176 0.49832 0.55565 0.0
H1073 H 1.02124 0.50338 0.53662 0.0
H1074 H 0.05814 0.52588 0.45927 0.0
H1075 H 0.0884 0.51993 0.47795 0.0
C1076 C 0.99549 0.52029 0.44743 0.0
C1077 C 0.98701 0.53163 0.46585 0.0
C1078 C 1.01159 0.51476 0.45737 0.0
C1079 C 1.01958 0.52038 0.486 0.0
C1080 C 1.01089 0.53143 0.5045 0.0
C1081 C 0.99481 0.53697 0.49456 0.0
C1082 C 0.05323 0.50384 0.53434 0.0
C1083 C 0.07268 0.50872 0.51837 0.0
C1084 C 0.03581 0.50707 0.52357 0.0
C1085 C 0.03731 0.51527 0.49653 0.0
C1086 C 0.05634 0.51941 0.48012 0.0
C1087 C 0.07381 0.5162 0.49093 0.0
H1088 H 0.51515 0.46798 0.37296 0.0
H1089 H 0.48478 0.45055 0.45473 0.0
H1090 H 0.52427 0.50892 0.38356 0.0
H1091 H 0.49421 0.49094 0.46573 0.0
H1092 H 0.50788 0.56368 0.48089 0.0
H1093 H 0.48982 0.52324 0.45903 0.0
H1094 H 0.55235 0.5418 0.41444 0.0
H1095 H 0.57 0.5823 0.43568 0.0
C1096 C 0.5097 0.47271 0.39271 0.0
C1097 C 0.49919 0.45614 0.41299 0.0
C1098 C 0.51524 0.49622 0.39905 0.0
C1099 C 0.51026 0.50346 0.42571 0.0
C1100 C 0.49814 0.48622 0.4449 0.0
C1101 C 0.49275 0.46295 0.43862 0.0
C1102 C 0.51766 0.55912 0.46623 0.0
C1103 C 0.54046 0.57617 0.46029 0.0
C1104 C 0.50733 0.53592 0.45365 0.0
C1105 C 0.51965 0.52901 0.4351 0.0
C1106 C 0.54213 0.54639 0.42823 0.0
C1107 C 0.55235 0.56967 0.44057 0.0
H1108 H 0.57414 0.06124 0.42055 0.0
H1109 H 0.60049 0.09999 0.50256 0.0
H1110 H 0.53954 0.03148 0.44201 0.0
H1111 H 0.56616 0.06967 0.5246 0.0
H1112 H 0.49108 1.02321 0.55055 0.0
H1113 H 0.52633 0.05349 0.53017 0.0
H1114 H 0.52485 0.99992 0.47022 0.0
H1115 H 0.48918 0.97006 0.48997 0.0
C1116 C 0.57269 0.06316 0.44332 0.0
C1117 C 0.59014 0.0829 0.45989 0.0
C1118 C 0.55282 0.04601 0.45574 0.0
C1119 C 0.54992 0.04789 0.48522 0.0
C1120 C 0.56749 0.06768 0.50181 0.0
C1121 C 0.58726 0.08505 0.48925 0.0
C1122 C 0.49841 1.01797 0.5331 0.0
C1123 C 0.48726 0.99428 0.52174 0.0
C1124 C 0.51871 0.03531 0.52143 0.0
C1125 C 0.52858 0.02935 0.49833 0.0
C1126 C 0.5176 1.00546 0.48747 0.0
C1127 C 0.49714 0.98823 0.49886 0.0
H1128 H 0.5554 0.0792 0.98871 0.0
H1129 H 0.50598 0.06738 0.05346 0.0
H1130 H 0.57009 0.05862 0.01521 0.0
H1131 H 0.52091 0.04756 0.08006 0.0
H1132 H 0.53447 0.98996 0.10357 0.0
H1133 H 0.52095 1.01079 0.07632 0.0
H1134 H 0.5917 0.06292 0.06034 0.0
H1135 H 0.60524 0.04159 0.08718 0.0
C1136 C 0.54766 0.07221 0.00851 0.0
C1137 C 0.52955 0.07506 0.01894 0.0
C1138 C 0.55622 0.06063 0.02386 0.0
C1139 C 0.54669 0.05141 0.04981 0.0
C1140 C 0.52854 0.05421 0.06006 0.0
C1141 C 0.52012 0.06584 0.04489 0.0
C1142 C 0.54717 1.00581 0.09419 0.0
C1143 C 0.57095 1.01405 0.09759 0.0
C1144 C 0.53943 1.01789 0.07871 0.0
C1145 C 0.55522 0.03858 0.06609 0.0
C1146 C 0.57905 0.04693 0.06954 0.0
C1147 C 0.58683 0.03488 0.08524 0.0
H1148 H 1.03158 0.48539 0.94777 0.0
H1149 H 0.99168 0.47422 0.02287 0.0
H1150 H 0.06096 0.52485 0.96883 0.0
H1151 H 1.02082 0.51345 0.04381 0.0
H1152 H 0.06429 0.59307 0.06015 0.0
H1153 H 0.03613 0.55608 0.03394 0.0
H1154 H 0.09035 0.54179 0.01233 0.0
H1155 H 0.11884 0.579 0.0389 0.0
C1156 C 1.02898 0.49148 0.96861 0.0
C1157 C 1.00933 0.47674 0.98369 0.0
C1158 C 0.04587 0.51393 0.98075 0.0
C1159 C 0.04318 0.52225 0.00795 0.0
C1160 C 1.02331 0.50763 0.02273 0.0
C1161 C 1.00669 0.48512 0.01083 0.0
C1162 C 0.07039 0.58226 0.04961 0.0
C1163 C 0.09389 0.58901 0.05189 0.0
C1164 C 0.05416 0.56097 0.03468 0.0
C1165 C 0.06097 0.54592 0.02132 0.0
C1166 C 0.0846 0.55309 0.02236 0.0
C1167 C 0.1009 0.57436 0.03764 0.0
H1168 H 0.59499 0.53469 0.02165 0.0
H1169 H 0.57763 0.54903 0.9404 0.0
H1170 H 0.55786 0.52693 0.03918 0.0
H1171 H 0.54056 0.54156 0.95798 0.0
H1172 H 0.46668 0.50436 0.99085 0.0
H1173 H 0.50336 0.51146 0.97219 0.0
H1174 H 0.53791 0.54698 0.05328 0.0
H1175 H 0.50123 0.5396 0.07191 0.0
C1176 C 0.58331 0.53634 0.00756 0.0
C1177 C 0.58938 0.54255 0.97962 0.0
C1178 C 0.56199 0.53194 0.01764 0.0
C1179 C 0.54616 0.53375 0.0001 0.0
C1180 C 0.55212 0.53968 0.97202 0.0
C1181 C 0.57343 0.54398 0.96189 0.0
C1182 C 0.48213 0.51387 0.0046 0.0
C1183 C 0.48093 0.5213 0.03295 0.0
C1184 C 0.50322 0.51796 0.9939 0.0
C1185 C 0.52368 0.52969 0.01123 0.0
C1186 C 0.52249 0.53744 0.03944 0.0
C1187 C 0.50142 0.53326 0.05015 0.0
H1188 H 0.22564 0.06968 0.89875 0.0
H1189 H 0.27163 0.06518 0.95821 0.0
H1190 H 0.24126 0.11095 0.91558 0.0
H1191 H 0.28724 0.1066 0.97529 0.0
H1192 H 0.32145 0.18695 0.98735 0.0
H1193 H 0.30953 0.14785 0.96413 0.0
H1194 H 0.23887 0.13206 0.95788 0.0
H1195 H 0.25077 0.17106 0.98045 0.0
C1196 C 0.23907 0.07748 0.91548 0.0
C1197 C 0.24715 0.06397 0.92736 0.0
C1198 C 0.24806 0.1012 0.92514 0.0
C1199 C 0.26536 0.11211 0.94704 0.0
C1200 C 0.27409 0.09887 0.95822 0.0
C1201 C 0.26511 0.07509 0.94846 0.0
C1202 C 0.30344 0.17527 0.98058 0.0
C1203 C 0.28708 0.1822 0.9858 0.0
C1204 C 0.29657 0.15276 0.96751 0.0
C1205 C 0.27321 0.1367 0.95921 0.0
C1206 C 0.25705 0.14399 0.96362 0.0
C1207 C 0.26388 0.1664 0.97673 0.0
H1208 H 0.99931 0.22203 0.90294 0.0
H1209 H 1.01063 0.16337 0.90203 0.0
H1210 H 0.96127 0.1978 0.92302 0.0
H1211 H 0.97278 0.13922 0.92202 0.0
H1212 H 0.91234 0.11018 0.98255 0.0
H1213 H 0.95145 0.13706 0.9671 0.0
H1214 H 0.92315 0.16127 0.90487 0.0
H1215 H 0.88413 0.13445 0.92036 0.0
C1216 C 0.99377 0.20406 0.9073 0.0
C1217 C 1.0079 0.19456 0.90074 0.0
C1218 C 0.97195 0.19015 0.9186 0.0
C1219 C 0.964 0.16657 0.92406 0.0
C1220 C 0.97845 0.15734 0.91824 0.0
C1221 C 1.00004 0.17111 0.90656 0.0
C1222 C 0.91452 0.12142 0.96578 0.0
C1223 C 0.89513 0.12009 0.95258 0.0
C1224 C 0.93688 0.13669 0.95681 0.0
C1225 C 0.9404 0.15128 0.93473 0.0
C1226 C 0.92105 0.15039 0.92206 0.0
C1227 C 0.89868 0.13487 0.93073 0.0
H1228 H 0.9644 0.81929 0.99804 0.0
H1229 H 0.90998 0.74591 0.99646 0.0
H1230 H 0.93823 0.82838 0.9743 0.0
H1231 H 0.8838 0.75498 0.9721 0.0
H1232 H 0.83805 0.78924 0.96598 0.0
H1233 H 0.86324 0.77586 0.98318 0.0
H1234 H 0.9174 0.82306 0.93036 0.0
H1235 H 0.89229 0.83651 0.91341 0.0
C1236 C 0.94694 0.80499 0.99225 0.0
C1237 C 0.93932 0.78187 -0.00071 0.0
C1238 C 0.93191 0.81019 0.97844 0.0
C1239 C 0.90882 0.79243 0.97127 0.0
C1240 C 0.90136 0.76915 0.9776 0.0
C1241 C 0.91645 0.76392 0.99138 0.0
C1242 C 0.85517 0.79643 0.95764 0.0
C1243 C 0.86323 0.81418 0.93856 0.0
C1244 C 0.86964 0.78875 0.9675 0.0
C1245 C 0.89251 0.79858 0.95845 0.0
C1246 C 0.90011 0.81548 0.93831 0.0
C1247 C 0.88569 0.82318 0.92854 0.0
H1248 H 0.07047 0.25404 0.53758 0.0
H1249 H 0.08698 0.2261 0.60794 0.0
H1250 H 0.10881 0.26758 0.51956 0.0
H1251 H 0.12528 0.23951 0.58969 0.0
H1252 H 0.18023 0.24169 0.52788 0.0
H1253 H 0.14347 0.23039 0.54987 0.0
H1254 H 0.14981 0.29608 0.52957 0.0
H1255 H 0.18638 0.30726 0.50733 0.0
C1256 C 0.08226 0.25098 0.54947 0.0
C1257 C 0.07533 0.2388 0.57427 0.0
C1258 C 0.10437 0.25879 0.53907 0.0
C1259 C 0.12023 0.25463 0.5531 0.0
C1260 C 0.11344 0.24272 0.57806 0.0
C1261 C 0.09137 0.23499 0.58853 0.0
C1262 C 0.17395 0.25387 0.52841 0.0
C1263 C 0.18633 0.27538 0.51571 0.0
C1264 C 0.15285 0.2474 0.5411 0.0
C1265 C 0.14349 0.26222 0.54133 0.0
C1266 C 0.15624 0.28404 0.52939 0.0
C1267 C 0.17737 0.29054 0.51682 0.0
H1268 H 0.7946 0.82085 0.57098 0.0
H1269 H 0.86635 0.87215 0.5589 0.0
H1270 H 0.78359 0.84881 0.5565 0.0
H1271 H 0.85549 0.90004 0.54489 0.0
H1272 H 0.82596 0.93552 0.49358 0.0
H1273 H 0.83512 0.90585 0.50588 0.0
H1274 H 0.78772 0.88731 0.57435 0.0
H1275 H 0.7783 0.91675 0.56176 0.0
C1276 C 0.808 0.83802 0.56516 0.0
C1277 C 0.83138 0.84424 0.56631 0.0
C1278 C 0.80173 0.85413 0.55707 0.0
C1279 C 0.81865 0.87674 0.54951 0.0
C1280 C 0.84196 0.88277 0.55031 0.0
C1281 C 0.84823 0.86682 0.55868 0.0
C1282 C 0.81732 0.92499 0.51109 0.0
C1283 C 0.80143 0.92866 0.5267 0.0
C1284 C 0.82272 0.90808 0.51832 0.0
C1285 C 0.81222 0.89417 0.54119 0.0
C1286 C 0.79603 0.89754 0.5565 0.0
C1287 C 0.7908 0.91463 0.54945 0.0
H1288 H 0.17971 0.9856 0.59399 0.0
H1289 H 0.23743 0.98724 0.5515 0.0
H1290 H 0.15367 0.94693 0.57015 0.0
H1291 H 0.21103 0.94893 0.52646 0.0
H1292 H 0.161 0.87028 0.50343 0.0
H1293 H 0.18709 0.90766 0.53085 0.0
H1294 H 0.13552 0.92782 0.5256 0.0
H1295 H 0.10927 0.89022 0.49902 0.0
C1296 C 0.18701 0.97785 0.57964 0.0
C1297 C 0.21096 0.98993 0.57493 0.0
C1298 C 0.17186 0.95559 0.56558 0.0
C1299 C 0.18004 0.9446 0.54613 0.0
C1300 C 0.20399 0.95656 0.54149 0.0
C1301 C 0.21919 0.97883 0.55568 0.0
C1302 C 0.15511 0.88257 0.5084 0.0
C1303 C 0.13292 0.87708 0.49899 0.0
C1304 C 0.17021 0.90419 0.52394 0.0
C1305 C 0.16362 0.92105 0.53046 0.0
C1306 C 0.14124 0.91531 0.52146 0.0
C1307 C 0.12612 0.89366 0.50605 0.0
H1308 H 0.82185 0.8907 0.98572 0.0
H1309 H 0.75342 0.8792 0.97039 0.0
H1310 H 0.83557 0.9316 0.00329 0.0
H1311 H 0.76723 0.92013 0.98735 0.0
H1312 H 0.79498 0.99277 0.03298 0.0
H1313 H 0.78173 0.95061 0.02625 0.0
H1314 H 0.84399 0.96704 0.98228 0.0
H1315 H 0.85735 1.00897 0.98948 0.0
C1316 C 0.80962 0.89675 0.98645 0.0
C1317 C 0.78652 0.88158 0.97642 0.0
C1318 C 0.81756 0.92033 0.99632 0.0
C1319 C 0.80263 0.9294 0.99648 0.0
C1320 C 0.77924 0.91385 0.98781 0.0
C1321 C 0.77131 0.8903 0.97793 0.0
C1322 C 0.80602 0.98741 0.02231 0.0
C1323 C 0.82723 1.00436 0.0117 0.0
C1324 C 0.79833 0.96317 0.01823 0.0
C1325 C 0.81168 0.95525 0.00355 0.0
C1326 C 0.8333 0.97233 0.99398 0.0
C1327 C 0.84093 0.99649 0.99797 0.0
H1328 H 0.19241 0.96591 0.00978 0.0
H1329 H 0.17432 0.91297 0.93957 0.0
H1330 H 0.15682 0.93939 0.03246 0.0
H1331 H 0.13819 0.88652 0.96195 0.0
H1332 H 0.08193 0.83773 0.0217 0.0
H1333 H 0.11918 0.86207 0.00021 0.0
H1334 H 0.11672 0.92472 0.02654 0.0
H1335 H 0.07993 0.90058 0.04807 0.0
C1336 C 0.18089 0.94854 -0.00081 0.0
C1337 C 0.1863 0.94171 0.97273 0.0
C1338 C 0.16027 0.93333 0.01213 0.0
C1339 C 0.14424 0.91082 0.99893 0.0
C1340 C 0.15006 0.90361 0.97292 0.0
C1341 C 0.17082 0.91883 0.96002 0.0
C1342 C 0.0893 0.85669 0.02277 0.0
C1343 C 0.07788 0.86711 0.03694 0.0
C1344 C 0.11072 0.8707 0.01041 0.0
C1345 C 0.12129 0.89552 0.01182 0.0
C1346 C 0.1096 0.9058 0.0256 0.0
C1347 C 0.08833 0.89187 0.03798 0.0
H1348 H 0.12251 0.21783 0.90928 0.0
H1349 H 0.14958 0.29014 0.94298 0.0
H1350 H 0.14726 0.21381 0.94295 0.0
H1351 H 0.17491 0.28609 0.97691 0.0
H1352 H 0.23509 0.27126 0.00354 0.0
H1353 H 0.20983 0.27862 0.97396 0.0
H1354 H 0.15057 0.21344 0.99643 0.0
H1355 H 0.17564 0.20605 0.0257 0.0
C1356 C 0.13377 0.23293 0.92392 0.0
C1357 C 0.13404 0.25434 0.92338 0.0
C1358 C 0.14789 0.23055 0.94337 0.0
C1359 C 0.163 0.24958 0.96268 0.0
C1360 C 0.16347 0.27112 0.96221 0.0
C1361 C 0.14891 0.27341 0.94293 0.0
C1362 C 0.21666 0.25857 0.00221 0.0
C1363 C 0.20744 0.238 0.01691 0.0
C1364 C 0.20218 0.2629 0.98551 0.0
C1365 C 0.17821 0.24658 0.98279 0.0
C1366 C 0.16898 0.2263 0.99796 0.0
C1367 C 0.18335 0.22213 0.0149 0.0
H1368 H 0.88904 0.75767 0.53845 0.0
H1369 H 0.88038 0.80163 0.48232 0.0
H1370 H 0.92619 0.76841 0.51769 0.0
H1371 H 0.9171 0.81193 0.46129 0.0
H1372 H 0.99562 0.85089 0.4586 0.0
H1373 H 0.95718 0.8363 0.47617 0.0
H1374 H 0.94694 0.76621 0.47589 0.0
H1375 H 0.98582 0.78094 0.45805 0.0
C1376 C 0.89482 0.76927 0.52134 0.0
C1377 C 0.88172 0.77893 0.51227 0.0
C1378 C 0.91615 0.77541 0.50938 0.0
C1379 C 0.92493 0.79135 0.48806 0.0
C1380 C 0.91124 0.80006 0.47812 0.0
C1381 C 0.89001 0.79398 0.49006 0.0
C1382 C 0.98521 0.83229 0.46183 0.0
C1383 C 0.99397 0.81712 0.45651 0.0
C1384 C 0.96299 0.82387 0.47197 0.0
C1385 C 0.94869 0.79996 0.47719 0.0
C1386 C 0.95747 0.78476 0.47228 0.0
C1387 C 0.97981 0.79322 0.46204 0.0
H1388 H 0.27469 0.22298 0.50559 0.0
H1389 H 0.22482 0.16147 0.45231 0.0
H1390 H 0.29032 0.20016 0.52379 0.0
H1391 H 0.24044 0.13866 0.47055 0.0
H1392 H 0.2531 0.09932 0.5387 0.0
H1393 H 0.24031 0.12237 0.51491 0.0
H1394 H 0.31127 0.17958 0.51266 0.0
H1395 H 0.32411 0.15657 0.53696 0.0
C1396 C 0.26727 0.20473 0.49736 0.0
C1397 C 0.24828 0.19408 0.47762 0.0
C1398 C 0.27627 0.19159 0.50783 0.0
C1399 C 0.26653 0.16746 0.49886 0.0
C1400 C 0.24809 0.15706 0.47839 0.0
C1401 C 0.23911 0.17017 0.46791 0.0
C1402 C 0.26605 0.11672 0.53292 0.0
C1403 C 0.28966 0.12607 0.53988 0.0
C1404 C 0.2587 0.12993 0.51909 0.0
C1405 C 0.27473 0.15291 0.51187 0.0
C1406 C 0.29842 0.16207 0.5182 0.0
C1407 C 0.30579 0.14879 0.53195 0.0
H1408 H 0.88397 0.04466 0.47345 0.0
H1409 H 0.83002 0.06165 0.47771 0.0
H1410 H 0.91293 0.08607 0.48608 0.0
H1411 H 0.85863 0.10272 0.49189 0.0
H1412 H 0.9153 0.17923 0.50291 0.0
H1413 H 0.88882 0.1393 0.48152 0.0
H1414 H 0.92774 0.11408 0.52434 0.0
H1415 H 0.95471 0.15404 0.54424 0.0
C1416 C 0.87828 0.05725 0.47707 0.0
C1417 C 0.85464 0.04975 0.4746 0.0
C1418 C 0.89491 0.08107 0.48461 0.0
C1419 C 0.88833 0.09804 0.49044 0.0
C1420 C 0.86465 0.09051 0.48722 0.0
C1421 C 0.8481 0.06679 0.47921 0.0
C1422 C 0.91836 0.16518 0.50739 0.0
C1423 C 0.93719 0.16994 0.52532 0.0
C1424 C 0.903 0.14214 0.49533 0.0
C1425 C 0.90581 0.12309 0.50122 0.0
C1426 C 0.92502 0.12809 0.5187 0.0
C1427 C 0.94053 0.15114 0.53036 0.0
H1428 H 0.90083 0.46722 0.37237 0.0
H1429 H 0.95405 0.51398 0.31822 0.0
H1430 H 0.89726 0.43323 0.34449 0.0
H1431 H 0.9505 0.47935 0.29 0.0
H1432 H 0.91682 0.40807 0.23083 0.0
H1433 H 0.92339 0.44439 0.25713 0.0
H1434 H 0.91906 0.41364 0.33624 0.0
H1435 H 0.91181 0.37722 0.31009 0.0
C1436 C 0.91187 0.47034 0.35447 0.0
C1437 C 0.92784 0.49351 0.34771 0.0
C1438 C 0.9099 0.45069 0.33853 0.0
C1439 C 0.9238 0.45342 0.31517 0.0
C1440 C 0.93948 0.47657 0.30785 0.0
C1441 C 0.94155 0.49643 0.32402 0.0
C1442 C 0.91718 0.40899 0.25383 0.0
C1443 C 0.91351 0.38944 0.26822 0.0
C1444 C 0.92123 0.42998 0.26893 0.0
C1445 C 0.92157 0.43197 0.29885 0.0
C1446 C 0.91857 0.41268 0.31321 0.0
C1447 C 0.91462 0.39178 0.29816 0.0
H1448 H 0.61123 0.44017 0.38522 0.0
H1449 H 0.57037 0.4698 0.36037 0.0
H1450 H 0.64377 0.46931 0.35973 0.0
H1451 H 0.60259 0.4984 0.33413 0.0
H1452 H 0.67251 0.56056 0.31046 0.0
H1453 H 0.64118 0.53322 0.33913 0.0
H1454 H 0.65489 0.47795 0.31139 0.0
H1455 H 0.6865 0.50534 0.28363 0.0
C1456 C 0.60917 0.45293 0.37446 0.0
C1457 C 0.588 0.45242 0.37481 0.0
C1458 C 0.6278 0.46954 0.35954 0.0
C1459 C 0.62586 0.48621 0.34462 0.0
C1460 C 0.60486 0.486 0.34548 0.0
C1461 C 0.58621 0.46935 0.3603 0.0
C1462 C 0.66896 0.54264 0.31065 0.0
C1463 C 0.6821 0.53527 0.29452 0.0
C1464 C 0.65083 0.52686 0.32691 0.0
C1465 C 0.64541 0.50328 0.32767 0.0
C1466 C 0.65865 0.49599 0.31167 0.0
C1467 C 0.67667 0.5117 0.29535 0.0
H1468 H 0.62326 0.13648 0.30605 0.0
H1469 H 0.56403 0.08674 0.35055 0.0
H1470 H 0.59872 0.14703 0.28061 0.0
H1471 H 0.53986 0.09803 0.32651 0.0
H1472 H 0.49599 0.1099 0.26551 0.0
H1473 H 0.52045 0.09684 0.2857 0.0
H1474 H 0.57954 0.16787 0.28559 0.0
H1475 H 0.55511 0.18042 0.26423 0.0
C1476 C 0.605 0.12773 0.31035 0.0
C1477 C 0.59569 0.11069 0.33033 0.0
C1478 C 0.59089 0.13397 0.29596 0.0
C1479 C 0.56712 0.12358 0.30144 0.0
C1480 C 0.55785 0.10622 0.32111 0.0
C1481 C 0.57185 0.09978 0.33513 0.0
C1482 C 0.5142 0.12268 0.26985 0.0
C1483 C 0.52356 0.14619 0.26326 0.0
C1484 C 0.52832 0.11524 0.28156 0.0
C1485 C 0.55219 0.13123 0.28754 0.0
C1486 C 0.56146 0.1548 0.28087 0.0
C1487 C 0.5474 0.1621 0.26873 0.0
H1488 H 0.74319 0.53868 0.91745 0.0
H1489 H 0.74536 0.59711 0.87895 0.0
H1490 H 0.78109 0.54995 0.89962 0.0
H1491 H 0.78286 0.60772 0.86 0.0
H1492 H 0.85954 0.63394 0.85073 0.0
H1493 H 0.82309 0.62397 0.87271 0.0
H1494 H 0.79916 0.54963 0.85612 0.0
H1495 H 0.83573 0.55959 0.83485 0.0
C1496 C 0.7517 0.55398 0.90527 0.0
C1497 C 0.74098 0.56691 0.89973 0.0
C1498 C 0.77343 0.5603 0.89471 0.0
C1499 C 0.78514 0.57973 0.87822 0.0
C1500 C 0.77455 0.5928 0.87286 0.0
C1501 C 0.75281 0.5865 0.88346 0.0
C1502 C 0.8466 0.61546 0.85203 0.0
C1503 C 0.85065 0.59759 0.84098 0.0
C1504 C 0.82557 0.60973 0.86443 0.0
C1505 C 0.80801 0.58596 0.86612 0.0
C1506 C 0.8123 0.56813 0.85558 0.0
C1507 C 0.83331 0.57385 0.84323 0.0
H1508 H 0.49778 0.29293 0.90182 0.0
H1509 H 0.44452 0.24102 0.84185 0.0
H1510 H 0.50514 0.26304 0.91714 0.0
H1511 H 0.45171 0.21071 0.85752 0.0
H1512 H 0.48861 0.16899 0.87595 0.0
H1513 H 0.47928 0.19724 0.8582 0.0
H1514 H 0.48753 0.22938 0.94382 0.0
H1515 H 0.49714 0.20161 0.96119 0.0
C1516 C 0.4874 0.27504 0.89211 0.0
C1517 C 0.47034 0.26939 0.87083 0.0
C1518 C 0.49162 0.25781 0.90093 0.0
C1519 C 0.47881 0.23428 0.88891 0.0
C1520 C 0.46202 0.22865 0.86717 0.0
C1521 C 0.45786 0.24602 0.8582 0.0
C1522 C 0.48821 0.18198 0.89093 0.0
C1523 C 0.49397 0.18326 0.91992 0.0
C1524 C 0.48284 0.19817 0.88079 0.0
C1525 C 0.48299 0.21591 0.89948 0.0
C1526 C 0.48788 0.21647 0.92861 0.0
C1527 C 0.49336 0.20048 0.93864 0.0
H1528 H 0.88755 0.32358 0.85191 0.0
H1529 H 0.87473 0.29774 0.93534 0.0
H1530 H 0.85758 0.28439 0.83116 0.0
H1531 H 0.84496 0.25848 0.9146 0.0
H1532 H 0.81198 0.18614 0.85697 0.0
H1533 H 0.84237 0.22466 0.87893 0.0
H1534 H 0.81282 0.25902 0.8356 0.0
H1535 H 0.78229 0.22071 0.81413 0.0
C1536 C 0.87851 0.30945 0.86574 0.0
C1537 C 0.88345 0.31374 0.89525 0.0
C1538 C 0.86125 0.28709 0.85392 0.0
C1539 C 0.84888 0.26839 0.87128 0.0
C1540 C 0.85425 0.27251 0.90069 0.0
C1541 C 0.87118 0.29499 0.91257 0.0
C1542 C 0.81185 0.20189 0.85235 0.0
C1543 C 0.79463 0.20029 0.83387 0.0
C1544 C 0.82924 0.22393 0.86493 0.0
C1545 C 0.83006 0.24486 0.8588 0.0
C1546 C 0.81277 0.24323 0.84049 0.0
C1547 C 0.79516 0.22122 0.82839 0.0
H1548 H 0.44645 0.20333 0.31608 0.0
H1549 H 0.48018 0.24471 0.24547 0.0
H1550 H 0.45054 0.23869 0.3426 0.0
H1551 H 0.48452 0.27976 0.27187 0.0
H1552 H 0.47537 0.3371 0.31876 0.0
H1553 H 0.46495 0.29963 0.29146 0.0
H1554 H 0.48146 0.27543 0.36553 0.0
H1555 H 0.4914 0.31221 0.39255 0.0
C1556 C 0.45466 0.21988 0.30619 0.0
C1557 C 0.46313 0.2211 0.27871 0.0
C1558 C 0.45708 0.24021 0.32139 0.0
C1559 C 0.4679 0.26221 0.30942 0.0
C1560 C 0.47582 0.26318 0.2817 0.0
C1561 C 0.47351 0.243 0.26664 0.0
C1562 C 0.47657 0.32367 0.32919 0.0
C1563 C 0.4844 0.32784 0.35781 0.0
C1564 C 0.4707 0.30221 0.31355 0.0
C1565 C 0.47234 0.28438 0.32626 0.0
C1566 C 0.47962 0.28846 0.35505 0.0
C1567 C 0.48557 0.30981 0.37052 0.0
H1568 H 0.73698 0.15981 0.33797 0.0
H1569 H 0.75067 0.2244 0.38534 0.0
H1570 H 0.77536 0.18081 0.31841 0.0
H1571 H 0.78904 0.24536 0.36595 0.0
H1572 H 0.84244 0.28073 0.29795 0.0
H1573 H 0.80594 0.25936 0.32148 0.0
H1574 H 0.81677 0.2008 0.32795 0.0
H1575 H 0.8532 0.22208 0.3038 0.0
C1576 C 0.74827 0.17838 0.34463 0.0
C1577 C 0.74052 0.19039 0.36311 0.0
C1578 C 0.77037 0.19048 0.33336 0.0
C1579 C 0.78536 0.21492 0.3403 0.0
C1580 C 0.77786 0.2267 0.35956 0.0
C1581 C 0.7558 0.21463 0.37076 0.0
C1582 C 0.83717 0.26336 0.30453 0.0
C1583 C 0.85086 0.25318 0.29887 0.0
C1584 C 0.81622 0.2511 0.31823 0.0
C1585 C 0.80826 0.22826 0.32672 0.0
C1586 C 0.82213 0.21821 0.32144 0.0
C1587 C 0.84315 0.23051 0.30775 0.0
H1588 H 0.90013 0.59444 0.345 0.0
H1589 H 0.85154 0.56397 0.41143 0.0
H1590 H 0.87835 0.61165 0.32812 0.0
H1591 H 0.82967 0.58095 0.3942 0.0
H1592 H 0.78194 0.58877 0.33041 0.0
H1593 H 0.80502 0.57484 0.35228 0.0
H1594 H 0.86728 0.64146 0.34087 0.0
H1595 H 0.84416 0.6554 0.31874 0.0
C1596 C 0.88501 0.59157 0.35628 0.0
C1597 C 0.87765 0.57756 0.37958 0.0
C1598 C 0.87249 0.60151 0.34655 0.0
C1599 C 0.85219 0.59764 0.35973 0.0
C1600 C 0.84503 0.584 0.38328 0.0
C1601 C 0.8576 0.57418 0.39312 0.0
C1602 C 0.80052 0.6006 0.33286 0.0
C1603 C 0.81116 0.62322 0.32272 0.0
C1604 C 0.81377 0.59262 0.34552 0.0
C1605 C 0.83805 0.60696 0.34821 0.0
C1606 C 0.84865 0.62984 0.33882 0.0
C1607 C 0.83536 0.63791 0.32635 0.0
H1608 H 0.54303 0.08883 0.86744 0.0
H1609 H 0.58593 0.1607 0.90416 0.0
H1610 H 0.57457 0.09437 0.8362 0.0
H1611 H 0.61689 0.16617 0.87321 0.0
H1612 H 0.65837 0.17698 0.79416 0.0
H1613 H 0.62446 0.16853 0.82123 0.0
H1614 H 0.61655 0.10216 0.84125 0.0
H1615 H 0.65063 0.11058 0.81379 0.0
C1616 C 0.55904 0.1058 0.86873 0.0
C1617 C 0.56189 0.1243 0.88835 0.0
C1618 C 0.57715 0.10893 0.85099 0.0
C1619 C 0.59825 0.13077 0.85212 0.0
C1620 C 0.60084 0.14922 0.8715 0.0
C1621 C 0.58304 0.146 0.8894 0.0
C1622 C 0.64931 0.16044 0.80398 0.0
C1623 C 0.65738 0.14452 0.80179 0.0
C1624 C 0.6299 0.15565 0.81971 0.0
C1625 C 0.61778 0.13469 0.83353 0.0
C1626 C 0.62539 0.1184 0.83074 0.0
C1627 C 0.64506 0.12334 0.81525 0.0
H1628 H 0.92062 0.42603 0.86296 0.0
H1629 H 0.98995 0.47779 0.84121 0.0
H1630 H 0.90588 0.4488 0.8427 0.0
H1631 H 0.97507 0.50031 0.82004 0.0
H1632 H 0.94429 0.54801 0.81346 0.0
H1633 H 0.95962 0.52509 0.83199 0.0
H1634 H 0.89784 0.46045 0.80026 0.0
H1635 H 0.88201 0.48318 0.78312 0.0
C1636 C 0.93273 0.44211 0.85348 0.0
C1637 C 0.95653 0.45 0.85378 0.0
C1638 C 0.92422 0.45519 0.84168 0.0
C1639 C 0.9392 0.47654 0.82964 0.0
C1640 C 0.96298 0.4842 0.82948 0.0
C1641 C 0.97152 0.47114 0.84141 0.0
C1642 C 0.93381 0.52893 0.8106 0.0
C1643 C 0.91173 0.51766 0.79677 0.0
C1644 C 0.94279 0.51571 0.82097 0.0
C1645 C 0.93003 0.49079 0.81777 0.0
C1646 C 0.90811 0.47955 0.80361 0.0
C1647 C 0.8991 0.49273 0.79338 0.0
H1648 H 0.6192 0.48639 0.87262 0.0
H1649 H 0.58208 0.51269 0.82835 0.0
H1650 H 0.59112 0.44635 0.85412 0.0
H1651 H 0.55446 0.47259 0.80838 0.0
H1652 H 0.49363 0.39564 0.80708 0.0
H1653 H 0.52327 0.43678 0.81919 0.0
H1654 H 0.57574 0.41746 0.81698 0.0
H1655 H 0.54577 0.37612 0.80648 0.0
C1656 C 0.60528 0.4837 0.85841 0.0
C1657 C 0.60294 0.50288 0.85209 0.0
C1658 C 0.58912 0.46058 0.84754 0.0
C1659 C 0.57024 0.45584 0.82958 0.0
C1660 C 0.56837 0.47522 0.82253 0.0
C1661 C 0.58438 0.49836 0.8338 0.0
C1662 C 0.51154 0.40022 0.80879 0.0
C1663 C 0.51726 0.38248 0.80595 0.0
C1664 C 0.52868 0.42397 0.81569 0.0
C1665 C 0.55215 0.43078 0.81951 0.0
C1666 C 0.55792 0.41307 0.8151 0.0
C1667 C 0.54071 0.38928 0.80872 0.0
H1668 H 0.5703 0.71425 0.61533 0.0
H1669 H 0.59651 0.75217 0.5404 0.0
H1670 H 0.58174 0.75149 0.64349 0.0
H1671 H 0.60791 0.78938 0.56849 0.0
H1672 H 0.64781 0.85277 0.63757 0.0
H1673 H 0.63664 0.81593 0.60863 0.0
H1674 H 0.56986 0.78221 0.64646 0.0
H1675 H 0.58085 0.81894 0.67517 0.0
C1676 C 0.57859 0.73054 0.6049 0.0
C1677 C 0.58242 0.7302 0.57559 0.0
C1678 C 0.58499 0.75185 0.62097 0.0
C1679 C 0.5957 0.77342 0.60823 0.0
C1680 C 0.59981 0.77312 0.57899 0.0
C1681 C 0.59309 0.75176 0.56284 0.0
C1682 C 0.63069 0.83755 0.6396 0.0
C1683 C 0.61524 0.8389 0.6587 0.0
C1684 C 0.62428 0.81645 0.62295 0.0
C1685 C 0.60239 0.79608 0.62533 0.0
C1686 C 0.58693 0.79748 0.64433 0.0
C1687 C 0.5932 0.81863 0.66064 0.0
H1688 H 0.23502 0.77789 0.67104 0.0
H1689 H 0.28027 0.80427 0.74648 0.0
H1690 H 0.26654 0.80539 0.64352 0.0
H1691 H 0.3123 0.83106 0.71845 0.0
H1692 H 0.35871 0.89302 0.66577 0.0
H1693 H 0.32696 0.86631 0.69404 0.0
H1694 H 0.30157 0.81245 0.62367 0.0
H1695 H 0.33249 0.83947 0.59498 0.0
C1696 C 0.25166 0.78952 0.68188 0.0
C1697 C 0.25487 0.7888 0.71121 0.0
C1698 C 0.26994 0.80517 0.66589 0.0
C1699 C 0.29212 0.82052 0.67862 0.0
C1700 C 0.29543 0.81974 0.70791 0.0
C1701 C 0.27707 0.80411 0.72398 0.0
C1702 C 0.34624 0.87562 0.65612 0.0
C1703 C 0.34835 0.86857 0.62789 0.0
C1704 C 0.32813 0.86012 0.67255 0.0
C1705 C 0.3116 0.83711 0.66128 0.0
C1706 C 0.31372 0.83009 0.63307 0.0
C1707 C 0.33173 0.84559 0.61663 0.0
H1708 H 0.25068 0.42931 0.64744 0.0
H1709 H 0.29946 0.49853 0.68749 0.0
H1710 H 0.2235 0.44215 0.63819 0.0
H1711 H 0.27199 0.51162 0.67799 0.0
H1712 H 0.23055 0.52994 0.61438 0.0
H1713 H 0.25661 0.51842 0.63277 0.0
H1714 H 0.19838 0.45537 0.66144 0.0
H1715 H 0.17207 0.46699 0.64364 0.0
C1716 C 0.25549 0.44727 0.65457 0.0
C1717 C 0.27728 0.46298 0.66803 0.0
C1718 C 0.2398 0.45458 0.64942 0.0
C1719 C 0.24556 0.47792 0.65725 0.0
C1720 C 0.26712 0.49354 0.67154 0.0
C1721 C 0.28277 0.48605 0.67716 0.0
C1722 C 0.2231 0.5138 0.62497 0.0
C1723 C 0.19891 0.49946 0.6273 0.0
C1724 C 0.23821 0.50725 0.63564 0.0
C1725 C 0.22963 0.48603 0.64866 0.0
C1726 C 0.20555 0.47178 0.65134 0.0
C1727 C 0.19041 0.47843 0.64092 0.0
H1728 H 0.40156 0.92263 0.18805 0.0
H1729 H 0.39027 0.85424 0.205 0.0
H1730 H 0.43819 0.93238 0.16678 0.0
H1731 H 0.42719 0.86423 0.18425 0.0
H1732 H 0.49001 0.8857 0.12707 0.0
H1733 H 0.44998 0.87379 0.13908 0.0
H1734 H 0.47536 0.94084 0.18809 0.0
H1735 H 0.51469 0.9525 0.17635 0.0
C1736 C 0.40673 0.90956 0.18698 0.0
C1737 C 0.39302 0.88776 0.19858 0.0
C1738 C 0.42781 0.9152 0.17491 0.0
C1739 C 0.4357 0.89913 0.17394 0.0
C1740 C 0.42157 0.87694 0.18448 0.0
C1741 C 0.40055 0.87136 0.19675 0.0
C1742 C 0.48688 0.89791 0.14008 0.0
C1743 C 0.5055 0.91995 0.15091 0.0
C1744 C 0.46404 0.89108 0.1471 0.0
C1745 C 0.45947 0.9064 0.16453 0.0
C1746 C 0.47814 0.9287 0.17439 0.0
C1747 C 0.50077 0.9353 0.1678 0.0
H1748 H 0.16526 0.53206 0.27872 0.0
H1749 H 0.15782 0.4977 0.19472 0.0
H1750 H 0.15641 0.55967 0.25917 0.0
H1751 H 0.14911 0.52565 0.17489 0.0
H1752 H 0.11385 0.56834 0.15484 0.0
H1753 H 0.1212 0.53872 0.17246 0.0
H1754 H 0.17442 0.59265 0.23097 0.0
H1755 H 0.16695 0.62192 0.21366 0.0
C1756 C 0.16191 0.5305 0.256 0.0
C1757 C 0.16254 0.51278 0.2383 0.0
C1758 C 0.15684 0.5464 0.24472 0.0
C1759 C 0.15234 0.54518 0.21533 0.0
C1760 C 0.15234 0.52706 0.19764 0.0
C1761 C 0.15735 0.51103 0.209 0.0
C1762 C 0.12721 0.57386 0.17132 0.0
C1763 C 0.13957 0.59749 0.18307 0.0
C1764 C 0.13146 0.55688 0.18142 0.0
C1765 C 0.14821 0.56316 0.20346 0.0
C1766 C 0.16095 0.58695 0.21456 0.0
C1767 C 0.15667 0.60381 0.20458 0.0
H1768 H 0.51232 0.66739 0.25002 0.0
H1769 H 0.56619 0.65143 0.23385 0.0
H1770 H 0.48356 0.62852 0.2288 0.0
H1771 H 0.53719 0.61206 0.21279 0.0
H1772 H 0.48088 0.55446 0.14827 0.0
H1773 H 0.51131 0.59167 0.17218 0.0
H1774 H 0.46355 0.58775 0.23599 0.0
H1775 H 0.43301 0.55102 0.21159 0.0
C1776 C 0.51803 0.65546 0.24232 0.0
C1777 C 0.54164 0.6626 0.24387 0.0
C1778 C 0.50145 0.63302 0.23014 0.0
C1779 C 0.50789 0.61688 0.21923 0.0
C1780 C 0.53154 0.62402 0.22069 0.0
C1781 C 0.54821 0.64661 0.2328 0.0
C1782 C 0.47694 0.56138 0.16761 0.0
C1783 C 0.45439 0.54978 0.17785 0.0
C1784 C 0.49446 0.58275 0.18141 0.0
C1785 C 0.48992 0.59302 0.2059 0.0
C1786 C 0.46762 0.58077 0.21682 0.0
C1787 C 0.4501 0.55953 0.20294 0.0
H1788 H 0.1865 0.67219 0.69721 0.0
H1789 H 0.11867 0.66379 0.69129 0.0
H1790 H 0.17085 0.63185 0.67683 0.0
H1791 H 0.10251 0.62268 0.67187 0.0
H1792 H 0.08614 0.5556 0.61449 0.0
H1793 H 0.09971 0.59601 0.63355 0.0
H1794 H 0.14867 0.59314 0.68982 0.0
H1795 H 0.13578 0.55311 0.66978 0.0
C1796 C 0.16817 0.66167 0.69136 0.0
C1797 C 0.15382 0.67116 0.69581 0.0
C1798 C 0.1591 0.63835 0.68001 0.0
C1799 C 0.13525 0.62361 0.67326 0.0
C1800 C 0.12097 0.63343 0.67669 0.0
C1801 C 0.1302 0.65702 0.68773 0.0
C1802 C 0.09962 0.56348 0.63119 0.0
C1803 C 0.10997 0.5511 0.64047 0.0
C1804 C 0.1074 0.58674 0.64218 0.0
C1805 C 0.1256 0.59818 0.66296 0.0
C1806 C 0.1351 0.58528 0.67324 0.0
C1807 C 0.12752 0.56215 0.662 0.0
H1808 H 0.39169 0.5015 0.58472 0.0
H1809 H 0.41759 0.49921 0.66726 0.0
H1810 H 0.43067 0.53219 0.57326 0.0
H1811 H 0.45669 0.52991 0.65579 0.0
H1812 H 0.52613 0.56322 0.60636 0.0
H1813 H 0.4875 0.53401 0.62092 0.0
H1814 H 0.46009 0.57497 0.58966 0.0
H1815 H 0.49866 0.60429 0.57539 0.0
C1816 C 0.40573 0.50751 0.60039 0.0
C1817 C 0.4015 0.49789 0.6269 0.0
C1818 C 0.42804 0.52524 0.59392 0.0
C1819 C 0.44682 0.53355 0.61362 0.0
C1820 C 0.44264 0.52384 0.6401 0.0
C1821 C 0.42022 0.50638 0.64675 0.0
C1822 C 0.51192 0.56614 0.60285 0.0
C1823 C 0.51558 0.58616 0.58969 0.0
C1824 C 0.48978 0.54941 0.61128 0.0
C1825 C 0.47066 0.55207 0.60631 0.0
C1826 C 0.47439 0.57226 0.59355 0.0
C1827 C 0.49656 0.58916 0.58555 0.0
H1828 H 0.51643 0.89063 0.73875 0.0
H1829 H 0.56817 0.92155 0.67564 0.0
H1830 H 0.4935 0.9044 0.71587 0.0
H1831 H 0.54586 0.93601 0.65389 0.0
H1832 H 0.48451 0.92309 0.59811 0.0
H1833 H 0.50997 0.91555 0.62561 0.0
H1834 H 0.49088 0.9393 0.70305 0.0
H1835 H 0.46472 0.94668 0.67508 0.0
C1836 C 0.52309 0.90048 0.72023 0.0
C1837 C 0.54413 0.90455 0.70894 0.0
C1838 C 0.51004 0.90866 0.70735 0.0
C1839 C 0.51772 0.92109 0.68286 0.0
C1840 C 0.53924 0.92615 0.67245 0.0
C1841 C 0.5522 0.91796 0.6852 0.0
C1842 C 0.48577 0.92691 0.62098 0.0
C1843 C 0.4725 0.93545 0.63439 0.0
C1844 C 0.50057 0.92274 0.63678 0.0
C1845 C 0.5026 0.92692 0.66655 0.0
C1846 C 0.48961 0.9358 0.68013 0.0
C1847 C 0.47479 0.94019 0.66414 0.0
H1848 H 0.25553 0.48988 0.23956 0.0
H1849 H 0.21375 0.42669 0.18371 0.0
H1850 H 0.28886 0.49989 0.21103 0.0
H1851 H 0.24772 0.43687 0.15483 0.0
H1852 H 0.32486 0.45432 0.13619 0.0
H1853 H 0.28858 0.44166 0.16065 0.0
H1854 H 0.30082 0.51255 0.16208 0.0
H1855 H 0.33694 0.5252 0.13814 0.0
C1856 C 0.2534 0.47805 0.22113 0.0
C1857 C 0.23186 0.45744 0.21396 0.0
C1858 C 0.27258 0.48392 0.20464 0.0
C1859 C 0.27097 0.46928 0.18055 0.0
C1860 C 0.24951 0.44848 0.17334 0.0
C1861 C 0.23006 0.44272 0.18976 0.0
C1862 C 0.31977 0.46717 0.14173 0.0
C1863 C 0.33394 0.49083 0.13529 0.0
C1864 C 0.29887 0.45985 0.15546 0.0
C1865 C 0.29185 0.47611 0.1634 0.0
C1866 C 0.3058 0.49961 0.15645 0.0
C1867 C 0.32648 0.50684 0.14252 0.0
H1868 H 0.57057 0.86098 0.15514 0.0
H1869 H 0.62893 0.91208 0.20977 0.0
H1870 H 0.5804 0.83098 0.16306 0.0
H1871 H 0.63835 0.88197 0.21833 0.0
H1872 H 0.66271 0.82933 0.2074 0.0
H1873 H 0.65317 0.85861 0.19475 0.0
H1874 H 0.58038 0.80738 0.20041 0.0
H1875 H 0.58989 0.77802 0.21269 0.0
C1876 C 0.58551 0.86587 0.1688 0.0
C1877 C 0.59891 0.88905 0.1818 0.0
C1878 C 0.59105 0.84858 0.17355 0.0
C1879 C 0.61023 0.85399 0.1913 0.0
C1880 C 0.62364 0.87718 0.20424 0.0
C1881 C 0.61804 0.89443 0.19962 0.0
C1882 C 0.64465 0.82417 0.20555 0.0
C1883 C 0.6271 0.80125 0.21114 0.0
C1884 C 0.63917 0.84107 0.19856 0.0
C1885 C 0.61599 0.83551 0.19682 0.0
C1886 C 0.59841 0.81231 0.20135 0.0
C1887 C 0.60389 0.79544 0.20848 0.0
H1888 H 0.27906 0.81708 0.18102 0.0
H1889 H 0.23512 0.84001 0.14666 0.0
H1890 H 0.25285 0.77717 0.16078 0.0
H1891 H 0.20924 0.80002 0.1248 0.0
H1892 H 0.15356 0.72076 0.12246 0.0
H1893 H 0.18105 0.7624 0.13527 0.0
H1894 H 0.23767 0.74998 0.12197 0.0
H1895 H 0.20997 0.70799 0.11085 0.0
C1896 C 0.264 0.81372 0.16857 0.0
C1897 C 0.25921 0.83185 0.16561 0.0
C1898 C 0.24893 0.79068 0.15667 0.0
C1899 C 0.2287 0.78501 0.14095 0.0
C1900 C 0.22433 0.8034 0.13715 0.0
C1901 C 0.23929 0.82646 0.1495 0.0
C1902 C 0.1719 0.72697 0.12191 0.0
C1903 C 0.17954 0.71096 0.11585 0.0
C1904 C 0.18778 0.75102 0.12917 0.0
C1905 C 0.21181 0.75985 0.13012 0.0
C1906 C 0.21939 0.74394 0.12237 0.0
C1907 C 0.20348 0.71981 0.11566 0.0
H1908 H 0.31942 0.30512 0.02099 0.0
H1909 H 0.35471 0.30468 0.09711 0.0
H1910 H 0.33684 0.3478 0.0296 0.0
H1911 H 0.37116 0.34704 0.10657 0.0
H1912 H 0.41044 0.42766 0.10621 0.0
H1913 H 0.39699 0.38574 0.09507 0.0
H1914 H 0.33258 0.37474 0.05978 0.0
H1915 H 0.3465 0.41653 0.06968 0.0
C1916 C 0.33098 0.31415 0.03949 0.0
C1917 C 0.33557 0.30143 0.05837 0.0
C1918 C 0.34081 0.33864 0.04466 0.0
C1919 C 0.35517 0.35101 0.06912 0.0
C1920 C 0.36041 0.33833 0.0874 0.0
C1921 C 0.35086 0.31391 0.082 0.0
C1922 C 0.39337 0.41617 0.09623 0.0
C1923 C 0.37958 0.42541 0.08873 0.0
C1924 C 0.3856 0.39211 0.08982 0.0
C1925 C 0.36373 0.37671 0.07612 0.0
C1926 C 0.34977 0.38601 0.0695 0.0
C1927 C 0.35766 0.41001 0.0755 0.0
H1928 H 0.64288 0.93438 0.08966 0.0
H1929 H 0.60854 0.96339 0.04511 0.0
H1930 H 0.67693 0.95551 0.06192 0.0
H1931 H 0.64274 0.98454 0.01661 0.0
H1932 H 0.7195 0.04826 0.01878 0.0
H1933 H 0.68026 1.01897 0.03011 0.0
H1934 H 0.69732 0.9642 0.01889 0.0
H1935 H 0.73677 0.99371 0.00788 0.0
C1936 C 0.64229 0.9445 0.07294 0.0
C1937 C 0.6231 0.94723 0.06948 0.0
C1938 C 0.66186 0.95669 0.05699 0.0
C1939 C 0.66282 0.97211 0.03727 0.0
C1940 C 0.64273 0.97312 0.03195 0.0
C1941 C 0.62298 0.96071 0.0479 0.0
C1942 C 0.7148 0.02993 0.01816 0.0
C1943 C 0.73145 1.02344 0.01281 0.0
C1944 C 0.69217 1.01303 0.02452 0.0
C1945 C 0.68554 0.98915 0.02558 0.0
C1946 C 0.70188 0.98247 0.01874 0.0
C1947 C 0.72455 0.99941 0.01252 0.0
H1948 H 0.97048 0.70877 0.08808 0.0
H1949 H 1.03051 0.75447 0.04163 0.0
H1950 H 0.98903 0.6877 0.10221 0.0
H1951 H 0.0488 0.73251 0.05461 0.0
H1952 H 0.08601 0.70811 0.1119 0.0
H1953 H 0.06686 0.72775 0.09387 0.0
H1954 H 1.00141 0.66147 0.08955 0.0
H1955 H 1.02059 0.64233 0.10877 0.0
C1956 C 0.98747 0.714 0.08029 0.0
C1957 C 0.99904 0.73342 0.0638 0.0
C1958 C 0.99814 0.70178 0.08834 0.0
C1959 C 1.02057 0.70838 0.07978 0.0
C1960 C 1.03174 0.72719 0.06219 0.0
C1961 C 1.02116 0.73966 0.05445 0.0
C1962 C 0.06754 0.69783 0.10707 0.0
C1963 C 0.05476 0.67377 0.11199 0.0
C1964 C 0.05653 0.709 0.09649 0.0
C1965 C 1.03249 0.69628 0.09013 0.0
C1966 C 1.01982 0.67205 0.0947 0.0
C1967 C 1.0308 0.66101 0.10572 0.0
H1968 H 0.30466 0.31676 0.44684 0.0
H1969 H 0.31451 0.29894 0.52989 0.0
H1970 H 0.34598 0.33552 0.43981 0.0
H1971 H 0.35614 0.31846 0.52325 0.0
H1972 H 0.42415 0.32882 0.48581 0.0
H1973 H 0.3836 0.31302 0.49694 0.0
H1974 H 0.38319 0.36799 0.45306 0.0
H1975 H 0.42346 0.38332 0.44152 0.0
C1976 C 0.31569 0.3172 0.46386 0.0
C1977 C 0.30614 0.30624 0.48893 0.0
C1978 C 0.33952 0.3281 0.45988 0.0
C1979 C 0.3546 0.32854 0.4809 0.0
C1980 C 0.34512 0.31818 0.50635 0.0
C1981 C 0.32121 0.30716 0.51029 0.0
C1982 C 0.41545 0.33765 0.47883 0.0
C1983 C 0.42702 0.35719 0.46251 0.0
C1984 C 0.39216 0.32864 0.48527 0.0
C1985 C 0.37988 0.33905 0.47575 0.0
C1986 C 0.39178 0.35909 0.46022 0.0
C1987 C 0.41496 0.36796 0.45362 0.0
H1988 H 0.7119 0.09045 0.35108 0.0
H1989 H 0.65145 0.05592 0.40141 0.0
H1990 H 0.72773 0.06895 0.37235 0.0
H1991 H 0.66658 0.0334 0.42166 0.0
H1992 H 0.71077 1.01726 0.47781 0.0
H1993 H 0.69401 0.03711 0.45446 0.0
H1994 H 0.72699 0.03387 0.37682 0.0
H1995 H 0.74446 1.01498 0.40083 0.0
C1996 C 0.70171 0.07781 0.36619 0.0
C1997 C 0.68042 0.07497 0.37456 0.0
C1998 C 0.71078 0.06536 0.37843 0.0
C1999 C 0.69865 0.04944 0.39911 0.0
C2000 C 0.67684 0.0459 0.40647 0.0
C2001 C 0.66797 0.05863 0.39458 0.0
C2002 C 0.71436 1.02078 0.45575 0.0
C2003 C 0.72904 1.01466 0.44126 0.0
C2004 C 0.70463 0.03205 0.44218 0.0
C2005 C 0.70895 0.03716 0.41351 0.0
C2006 C 0.72351 0.03075 0.39899 0.0
C2007 C 0.73354 1.01983 0.41274 0.0
H2008 H 0.05537 0.75847 0.36583 0.0
H2009 H 0.04282 0.74913 0.45501 0.0
H2010 H 0.03768 0.71612 0.35549 0.0
H2011 H 1.02401 0.70613 0.44454 0.0
H2012 H 1.00409 0.62956 0.41797 0.0
H2013 H 1.02688 0.67232 0.42954 0.0
H2014 H 1.00053 0.68264 0.35182 0.0
H2015 H 0.97854 0.64017 0.3399 0.0
C2016 C 0.04879 0.74729 0.38332 0.0
C2017 C 0.05033 0.75718 0.41123 0.0
C2018 C 0.03843 0.72287 0.37733 0.0
C2019 C 1.02887 0.70742 0.399 0.0
C2020 C 1.03123 0.71738 0.42724 0.0
C2021 C 0.04198 0.74204 0.43331 0.0
C2022 C 1.00341 0.641 0.40318 0.0
C2023 C 0.98953 0.63134 0.37787 0.0
C2024 C 1.01634 0.66557 0.40997 0.0
C2025 C 1.01568 0.68116 0.3917 0.0
C2026 C 1.00196 0.6714 0.36625 0.0
C2027 C 0.98919 0.64691 0.35939 0.0
H2028 H 0.70786 0.62999 0.90099 0.0
H2029 H 0.64704 0.63554 0.91204 0.0
H2030 H 0.73246 0.67277 0.91138 0.0
H2031 H 0.67171 0.67837 0.92221 0.0
H2032 H 0.7261 0.75802 0.91237 0.0
H2033 H 0.70061 0.71559 0.8996 0.0
H2034 H 0.74159 0.7009 0.9554 0.0
H2035 H 0.76696 0.74322 0.96836 0.0
C2036 C 0.69969 0.64035 0.90513 0.0
C2037 C 0.67542 0.62925 0.90567 0.0
C2038 C 0.71383 0.66486 0.91138 0.0
C2039 C 0.70407 0.67897 0.91793 0.0
C2040 C 0.67979 0.66804 0.91721 0.0
C2041 C 0.66565 0.64347 0.91137 0.0
C2042 C 0.72956 0.74573 0.92213 0.0
C2043 C 0.74859 0.75409 0.94147 0.0
C2044 C 0.71493 0.72141 0.9148 0.0
C2045 C 0.71917 0.70485 0.92627 0.0
C2046 C 0.73802 0.71319 0.94587 0.0
C2047 C 0.75243 0.73747 0.95352 0.0
H2048 H 0.31635 1.02384 0.97048 0.0
H2049 H 0.30253 0.99278 0.88373 0.0
H2050 H 0.35784 0.04183 0.96402 0.0
H2051 H 0.34405 1.01052 0.87739 0.0
H2052 H 0.42004 0.07025 0.86719 0.0
H2053 H 0.37829 0.04896 0.87314 0.0
H2054 H 0.38885 0.03379 0.95744 0.0
H2055 H 0.43061 0.05536 0.95167 0.0
C2056 C 0.32211 1.02062 0.95009 0.0
C2057 C 0.30596 1.00683 0.92764 0.0
C2058 C 0.34599 0.03088 0.94641 0.0
C2059 C 0.35446 0.02774 0.92013 0.0
C2060 C 0.33827 1.01363 0.89781 0.0
C2061 C 0.31438 1.00329 0.90153 0.0
C2062 C 0.41349 0.0622 0.88691 0.0
C2063 C 0.42884 0.06465 0.90895 0.0
C2064 C 0.38945 0.04987 0.8903 0.0
C2065 C 0.38004 0.03968 0.91587 0.0
C2066 C 0.39539 0.04167 0.93763 0.0
C2067 C 0.41941 0.05393 0.93421 0.0
H2068 H 0.06917 0.31648 0.85147 0.0
H2069 H 0.05352 0.31307 0.94048 0.0
H2070 H 0.04952 0.33836 0.8452 0.0
H2071 H 1.03363 0.33472 0.93411 0.0
H2072 H 1.01571 0.39077 0.91925 0.0
H2073 H 0.03941 0.37301 0.9243 0.0
H2074 H 1.01015 0.33111 0.84444 0.0
H2075 H 0.9866 0.34909 0.83917 0.0
C2076 C 0.06168 0.32051 0.86978 0.0
C2077 C 0.06294 0.31293 0.89651 0.0
C2078 C 0.05025 0.33294 0.86611 0.0
C2079 C 0.03985 0.33826 0.88909 0.0
C2080 C 0.04162 0.33119 0.91597 0.0
C2081 C 0.05297 0.31866 0.91962 0.0
C2082 C 1.01448 0.37797 0.90255 0.0
C2083 C 0.99913 0.37135 0.8788 0.0
C2084 C 1.02798 0.36763 0.90559 0.0
C2085 C 1.02661 0.35045 0.88492 0.0
C2086 C 1.01184 0.34441 0.86069 0.0
C2087 C 0.99825 0.35469 0.8577 0.0
H2088 H 0.76127 0.70088 0.57776 0.0
H2089 H 0.75328 0.7456 0.52222 0.0
H2090 H 0.71908 0.67691 0.58081 0.0
H2091 H 0.71125 0.72191 0.52573 0.0
H2092 H 0.64017 0.69111 0.56656 0.0
H2093 H 0.68244 0.71388 0.56587 0.0
H2094 H 0.68318 0.64942 0.54673 0.0
H2095 H 0.64079 0.62656 0.54692 0.0
C2096 C 0.75054 0.70556 0.56613 0.0
C2097 C 0.7607 0.72515 0.54967 0.0
C2098 C 0.72637 0.6918 0.56786 0.0
C2099 C 0.71183 0.69761 0.55368 0.0
C2100 C 0.72199 0.71712 0.53715 0.0
C2101 C 0.74609 0.73059 0.53496 0.0
C2102 C 0.64931 0.68171 0.5626 0.0
C2103 C 0.63702 0.65696 0.55679 0.0
C2104 C 0.67354 0.6948 0.56196 0.0
C2105 C 0.68616 0.68347 0.55601 0.0
C2106 C 0.67397 0.65866 0.55143 0.0
C2107 C 0.64968 0.64557 0.55153 0.0
H2108 H 0.33588 0.05476 0.56088 0.0
H2109 H 0.32244 0.03543 0.64741 0.0
H2110 H 0.35988 0.03673 0.55641 0.0
H2111 H 0.34586 1.01724 0.64282 0.0
H2112 H 0.40273 0.99999 0.63378 0.0
H2113 H 0.38469 1.02415 0.63798 0.0
H2114 H 0.35338 0.99688 0.55348 0.0
H2115 H 0.37156 0.97324 0.54912 0.0
C2116 C 0.33814 0.04683 0.57896 0.0
C2117 C 0.32708 0.04642 0.6044 0.0
C2118 C 0.3518 0.03639 0.57639 0.0
C2119 C 0.35479 0.02546 0.59926 0.0
C2120 C 0.34425 0.02573 0.6249 0.0
C2121 C 0.33059 0.03602 0.62741 0.0
C2122 C 0.39212 0.99931 0.61607 0.0
C2123 C 0.38849 0.98454 0.59123 0.0
C2124 C 0.38172 1.01309 0.61847 0.0
C2125 C 0.36753 1.01247 0.59605 0.0
C2126 C 0.36442 0.9981 0.57102 0.0
C2127 C 0.37472 0.98433 0.56865 0.0
H2128 H 0.09383 0.41493 0.54576 0.0
H2129 H 0.06881 0.4252 0.62677 0.0
H2130 H 0.07023 0.37231 0.54744 0.0
H2131 H 0.04467 0.3823 0.62818 0.0
H2132 H 1.03059 0.30728 0.63787 0.0
H2133 H 0.04983 0.34962 0.63484 0.0
H2134 H 1.03137 0.33817 0.54499 0.0
H2135 H 1.01232 0.2953 0.54795 0.0
C2136 C 0.08314 0.40812 0.56389 0.0
C2137 C 0.0834 0.4236 0.58626 0.0
C2138 C 0.0694 0.38357 0.5647 0.0
C2139 C 0.05548 0.37371 0.58792 0.0
C2140 C 0.05539 0.38921 0.61009 0.0
C2141 C 0.06917 0.41384 0.60927 0.0
C2142 C 1.03045 0.31366 0.6174 0.0
C2143 C 1.01997 0.29777 0.59308 0.0
C2144 C 0.04138 0.33808 0.61575 0.0
C2145 C 0.04222 0.34748 0.5897 0.0
C2146 C 1.0313 0.3316 0.56538 0.0
C2147 C 1.02024 0.30701 0.56707 0.0
H2148 H 0.96952 0.63513 0.83022 0.0
H2149 H 0.97721 0.62857 0.73962 0.0
H2150 H 1.01184 0.65519 0.83775 0.0
H2151 H 1.01883 0.64855 0.74703 0.0
H2152 H 0.08803 0.65928 0.76672 0.0
H2153 H 0.04591 0.63865 0.76631 0.0
H2154 H 0.04955 0.69198 0.82838 0.0
H2155 H 0.09201 0.71255 0.82896 0.0
C2156 C 0.98019 0.63818 0.81195 0.0
C2157 C 0.96994 0.63002 0.78435 0.0
C2158 C 1.0044 0.64964 0.81625 0.0
C2159 C 1.01871 0.65303 0.79303 0.0
C2160 C 1.00836 0.64564 0.76549 0.0
C2161 C 0.98441 0.6343 0.76123 0.0
C2162 C 0.07984 0.66645 0.78052 0.0
C2163 C 0.09335 0.68767 0.79759 0.0
C2164 C 0.0557 0.65471 0.78022 0.0
C2165 C 0.04431 0.66394 0.79684 0.0
C2166 C 0.05776 0.6844 0.81532 0.0
C2167 C 0.08207 0.69615 0.8157 0.0
H2168 H 0.34234 0.42595 0.77012 0.0
H2169 H 0.40079 0.44446 0.71747 0.0
H2170 H 0.35633 0.40756 0.80174 0.0
H2171 H 0.41453 0.42602 0.74831 0.0
H2172 H 0.44033 0.39689 0.80971 0.0
H2173 H 0.4299 0.42443 0.79299 0.0
H2174 H 0.3574 0.3712 0.796 0.0
H2175 H 0.36793 0.34389 0.81321 0.0
C2176 C 0.35857 0.42682 0.7659 0.0
C2177 C 0.37049 0.4366 0.74137 0.0
C2178 C 0.36643 0.41601 0.78373 0.0
C2179 C 0.38645 0.41503 0.77745 0.0
C2180 C 0.39922 0.42655 0.75411 0.0
C2181 C 0.3913 0.43711 0.7363 0.0
C2182 C 0.42217 0.39117 0.80705 0.0
C2183 C 0.40498 0.36807 0.81237 0.0
C2184 C 0.41616 0.40696 0.7975 0.0
C2185 C 0.39278 0.4 0.79278 0.0
C2186 C 0.37557 0.37732 0.79967 0.0
C2187 C 0.3816 0.36157 0.80944 0.0
H2188 H 0.63717 0.95789 0.73844 0.0
H2189 H 0.70259 0.96323 0.72124 0.0
H2190 H 0.65694 0.99973 0.75328 0.0
H2191 H 0.72261 1.0058 0.73379 0.0
H2192 H 0.75603 0.07839 0.78145 0.0
H2193 H 0.73602 0.03586 0.76869 0.0
H2194 H 0.67523 0.03726 0.74199 0.0
H2195 H 0.69468 0.07908 0.75707 0.0
C2196 C 0.65583 0.96822 0.73707 0.0
C2197 C 0.6683 0.95726 0.72849 0.0
C2198 C 0.6673 0.99243 0.74551 0.0
C2199 C 0.69161 1.00665 0.74483 0.0
C2200 C 0.704 0.99564 0.73538 0.0
C2201 C 0.69251 0.97121 0.72774 0.0
C2202 C 0.73824 0.06938 0.77331 0.0
C2203 C 0.72684 0.082 0.77064 0.0
C2204 C 0.72678 0.04498 0.76554 0.0
C2205 C 0.70381 0.03267 0.75403 0.0
C2206 C 0.69258 0.04558 0.75138 0.0
C2207 C 0.7038 0.06976 0.75996 0.0
H2208 H 0.30007 0.95949 0.24001 0.0
H2209 H 0.36056 0.96043 0.20748 0.0
H2210 H 0.32181 1.00243 0.24699 0.0
H2211 H 0.38229 1.00367 0.2139 0.0
H2212 H 0.42102 0.07939 0.25728 0.0
H2213 H 0.39918 0.03616 0.25092 0.0
H2214 H 0.33893 0.03737 0.22216 0.0
H2215 H 0.36049 0.08032 0.2291 0.0
C2216 C 0.31795 0.96886 0.23396 0.0
C2217 C 0.32849 0.95638 0.2231 0.0
C2218 C 0.33045 0.9936 0.23792 0.0
C2219 C 0.35391 1.00668 0.23113 0.0
C2220 C 0.36438 0.99423 0.21979 0.0
C2221 C 0.35183 0.96941 0.2158 0.0
C2222 C 0.40303 0.07041 0.24993 0.0
C2223 C 0.39255 0.08344 0.24382 0.0
C2224 C 0.39056 0.04559 0.24596 0.0
C2225 C 0.36725 0.03314 0.23585 0.0
C2226 C 0.35672 0.04622 0.23027 0.0
C2227 C 0.36916 0.07096 0.2342 0.0
H2228 H 0.97346 0.34059 0.28796 0.0
H2229 H 0.97735 0.30131 0.21305 0.0
H2230 H 1.01554 0.36563 0.29037 0.0
H2231 H 1.01918 0.32702 0.21442 0.0
H2232 H 0.09735 0.36779 0.23555 0.0
H2233 H 0.05553 0.33985 0.2351 0.0
H2234 H 0.04524 0.39642 0.26843 0.0
H2235 H 0.08675 0.42366 0.27016 0.0
C2236 C 0.9833 0.33725 0.27204 0.0
C2237 C 0.97194 0.31893 0.25033 0.0
C2238 C 1.0075 0.35182 0.27317 0.0
C2239 C 1.02104 0.34877 0.2523 0.0
C2240 C 1.00962 0.32993 0.23108 0.0
C2241 C 0.98547 0.31516 0.23023 0.0
C2242 C 0.08604 0.37418 0.24255 0.0
C2243 C 0.09538 0.3979 0.25299 0.0
C2244 C 0.06201 0.35818 0.24232 0.0
C2245 C 0.04673 0.36564 0.25212 0.0
C2246 C 0.05624 0.38964 0.26157 0.0
C2247 C 0.08015 0.40543 0.26224 0.0
H2248 H 0.70688 0.64161 0.21448 0.0
H2249 H 0.73451 0.66709 0.30072 0.0
H2250 H 0.68785 0.66446 0.2176 0.0
H2251 H 0.71566 0.6905 0.30369 0.0
H2252 H 0.65354 0.70177 0.30983 0.0
H2253 H 0.67681 0.68339 0.30635 0.0
H2254 H 0.69314 0.70368 0.22051 0.0
H2255 H 0.66926 0.72191 0.22385 0.0
C2256 C 0.70908 0.65226 0.23411 0.0
C2257 C 0.72214 0.65232 0.25746 0.0
C2258 C 0.69828 0.66558 0.23578 0.0
C2259 C 0.70013 0.67938 0.26087 0.0
C2260 C 0.7136 0.67986 0.2841 0.0
C2261 C 0.72451 0.66652 0.2824 0.0
C2262 C 0.66211 0.70246 0.29016 0.0
C2263 C 0.65935 0.71325 0.26702 0.0
C2264 C 0.6757 0.69205 0.28829 0.0
C2265 C 0.68697 0.69203 0.2632 0.0
C2266 C 0.68453 0.70314 0.24011 0.0
C2267 C 0.67092 0.71368 0.24202 0.0
loop_
_geom_bond_atom_site_label_1
_geom_bond_atom_site_label_2
_geom_bond_distance
_geom_bond_site_symmetry_2
_ccdc_geom_bond_type
Cu0 N1 1.999 . S
Cu0 O6 1.974 . S
Cu0 N11 1.985 . S
Cu0 O20 1.959 . S
N1 Cu0 1.999 . S
N1 C3 1.263 . S
N1 C5 1.389 . S
N2 C3 1.358 . S
N2 C4 1.400 . S
C3 N1 1.263 . S
C3 N2 1.358 . S
C3 H9 0.930 . S
C4 N2 1.400 . S
C4 C5 1.351 . S
C4 H21 0.930 . S
C5 N1 1.389 . S
C5 C4 1.351 . S
C5 H10 0.930 . S
O6 Cu0 1.974 . S
O6 C16 1.282 . S
C7 O8 1.261 . S
C7 O20 1.251 . S
O8 C7 1.261 . S
H9 C3 0.930 . S
H10 C5 0.930 . S
N11 Cu0 1.985 . S
N11 C13 1.335 . S
N11 C14 1.390 . S
N12 C13 1.345 . S
N12 C15 1.335 . S
C13 N11 1.335 . S
C13 N12 1.345 . S
C13 H18 0.930 . S
C14 N11 1.390 . S
C14 C15 1.345 . S
C14 H19 0.930 . S
C15 N12 1.335 . S
C15 C14 1.345 . S
C15 H22 0.932 1_554 S
C16 O6 1.282 . S
C16 O17 1.216 . S
O17 C16 1.216 . S
H18 C13 0.930 . S
H19 C14 0.930 . S
O20 Cu0 1.959 . S
O20 C7 1.251 . S
H21 C4 0.930 . S
H22 C15 0.932 1_556 S
Cu23 N24 1.999 . S
Cu23 O29 1.974 . S
Cu23 N34 1.985 . S
Cu23 O43 1.959 . S
N24 Cu23 1.999 . S
N24 C26 1.263 . S
N24 C28 1.389 . S
N25 C26 1.358 . S
N25 C27 1.400 . S
C26 N24 1.263 . S
C26 N25 1.358 . S
C26 H32 0.930 1_545 S
C27 N25 1.400 . S
C27 C28 1.351 . S
C27 H44 0.930 . S
C28 N24 1.389 . S
C28 C27 1.351 . S
C28 H33 0.930 . S
O29 Cu23 1.974 . S
O29 C39 1.282 1_545 S
C30 O31 1.261 . S
C30 O43 1.251 . S
O31 C30 1.261 . S
H32 C26 0.930 1_565 S
H33 C28 0.930 . S
N34 Cu23 1.985 . S
N34 C36 1.335 . S
N34 C37 1.390 . S
N35 C36 1.345 . S
N35 C38 1.336 . S
C36 N34 1.335 . S
C36 N35 1.345 . S
C36 H41 0.930 . S
C37 N34 1.390 . S
C37 C38 1.346 . S
C37 H42 0.930 . S
C38 N35 1.336 . S
C38 C37 1.346 . S
C38 H45 0.929 . S
C39 O29 1.282 1_565 S
C39 O40 1.214 . S
O40 C39 1.214 . S
H41 C36 0.930 . S
H42 C37 0.930 . S
O43 Cu23 1.959 . S
O43 C30 1.251 . S
H44 C27 0.930 . S
H45 C38 0.929 . S
Cu46 N47 1.999 . S
Cu46 O52 1.974 . S
Cu46 N57 1.985 . S
Cu46 O66 1.959 . S
N47 Cu46 1.999 . S
N47 C49 1.263 . S
N47 C51 1.389 . S
N48 C49 1.358 . S
N48 C50 1.400 . S
C49 N47 1.263 . S
C49 N48 1.358 . S
C49 H55 0.930 . S
C50 N48 1.400 . S
C50 C51 1.351 . S
C50 H67 0.930 . S
C51 N47 1.389 . S
C51 C50 1.351 . S
C51 H56 0.930 . S
O52 Cu46 1.974 . S
O52 C62 1.282 . S
C53 O54 1.261 . S
C53 O66 1.251 . S
O54 C53 1.261 . S
H55 C49 0.930 . S
H56 C51 0.930 . S
N57 Cu46 1.985 . S
N57 C59 1.335 1_655 S
N57 C60 1.390 . S
N58 C59 1.345 . S
N58 C61 1.336 1_455 S
C59 N57 1.335 1_455 S
C59 N58 1.345 . S
C59 H64 0.930 . S
C60 N57 1.390 . S
C60 C61 1.346 . S
C60 H65 0.930 . S
C61 N58 1.336 1_655 S
C61 C60 1.346 . S
C61 H68 0.924 1_554 S
C62 O52 1.282 . S
C62 O63 1.216 . S
O63 C62 1.216 . S
H64 C59 0.930 . S
H65 C60 0.930 . S
O66 Cu46 1.959 . S
O66 C53 1.251 . S
H67 C50 0.930 . S
H68 C61 0.924 1_556 S
Cu69 N70 1.999 . S
Cu69 O75 1.974 . S
Cu69 N80 1.985 . S
Cu69 O89 1.959 . S
N70 Cu69 1.999 . S
N70 C72 1.263 . S
N70 C74 1.389 . S
N71 C72 1.358 . S
N71 C73 1.400 . S
C72 N70 1.263 . S
C72 N71 1.358 . S
C72 H78 0.930 . S
C73 N71 1.400 . S
C73 C74 1.351 . S
C73 H90 0.930 . S
C74 N70 1.389 . S
C74 C73 1.351 . S
C74 H79 0.930 . S
O75 Cu69 1.974 . S
O75 C85 1.282 . S
C76 O77 1.261 . S
C76 O89 1.251 . S
O77 C76 1.261 . S
H78 C72 0.930 . S
H79 C74 0.930 . S
N80 Cu69 1.985 . S
N80 C82 1.335 . S
N80 C83 1.390 . S
N81 C82 1.345 . S
N81 C84 1.336 . S
C82 N80 1.335 . S
C82 N81 1.345 . S
C82 H87 0.930 . S
C83 N80 1.390 . S
C83 C84 1.346 . S
C83 H88 0.930 . S
C84 N81 1.336 . S
C84 C83 1.346 . S
C84 H91 0.929 . S
C85 O75 1.282 . S
C85 O86 1.216 . S
O86 C85 1.216 . S
H87 C82 0.930 . S
H88 C83 0.930 . S
O89 Cu69 1.959 . S
O89 C76 1.251 . S
H90 C73 0.930 . S
H91 C84 0.929 . S
Cu92 N93 1.999 . S
Cu92 O98 1.974 . S
Cu92 N103 1.985 . S
Cu92 O112 1.959 . S
N93 Cu92 1.999 . S
N93 C95 1.263 . S
N93 C97 1.389 . S
N94 C95 1.358 . S
N94 C96 1.400 . S
C95 N93 1.263 . S
C95 N94 1.358 . S
C95 H101 0.930 1_565 S
C96 N94 1.400 . S
C96 C97 1.351 . S
C96 H113 0.930 . S
C97 N93 1.389 . S
C97 C96 1.351 . S
C97 H102 0.930 . S
O98 Cu92 1.974 . S
O98 C108 1.282 1_565 S
C99 O100 1.261 . S
C99 O112 1.251 . S
O100 C99 1.261 . S
H101 C95 0.930 1_545 S
H102 C97 0.930 . S
N103 Cu92 1.985 . S
N103 C105 1.335 . S
N103 C106 1.390 . S
N104 C105 1.345 . S
N104 C107 1.336 . S
C105 N103 1.335 . S
C105 N104 1.345 . S
C105 H110 0.930 . S
C106 N103 1.390 . S
C106 C107 1.346 . S
C106 H111 0.930 . S
C107 N104 1.336 . S
C107 C106 1.346 . S
C107 H114 0.929 . S
C108 O98 1.282 1_545 S
C108 O109 1.219 . S
O109 C108 1.219 . S
H110 C105 0.930 . S
H111 C106 0.930 . S
O112 Cu92 1.959 . S
O112 C99 1.251 . S
H113 C96 0.930 . S
H114 C107 0.929 . S
Cu115 N116 1.999 . S
Cu115 O121 1.974 . S
Cu115 N126 1.985 . S
Cu115 O135 1.959 . S
N116 Cu115 1.999 . S
N116 C118 1.263 . S
N116 C120 1.389 . S
N117 C118 1.358 . S
N117 C119 1.400 . S
C118 N116 1.263 . S
C118 N117 1.358 . S
C118 H124 0.930 . S
C119 N117 1.400 . S
C119 C120 1.351 . S
C119 H136 0.930 . S
C120 N116 1.389 . S
C120 C119 1.351 . S
C120 H125 0.930 . S
O121 Cu115 1.974 . S
O121 C131 1.282 . S
C122 O123 1.261 . S
C122 O135 1.251 . S
O123 C122 1.261 . S
H124 C118 0.930 . S
H125 C120 0.930 . S
N126 Cu115 1.985 . S
N126 C128 1.335 1_455 S
N126 C129 1.390 . S
N127 C128 1.345 . S
N127 C130 1.336 1_655 S
C128 N126 1.335 1_655 S
C128 N127 1.345 . S
C128 H133 0.930 . S
C129 N126 1.390 . S
C129 C130 1.346 . S
C129 H134 0.930 . S
C130 N127 1.336 1_455 S
C130 C129 1.346 . S
C130 H137 0.929 . S
C131 O121 1.282 . S
C131 O132 1.216 . S
O132 C131 1.216 . S
H133 C128 0.930 . S
H134 C129 0.930 . S
O135 Cu115 1.959 . S
O135 C122 1.251 . S
H136 C119 0.930 . S
H137 C130 0.929 . S
Cu138 N139 1.999 . S
Cu138 O144 1.974 . S
Cu138 N149 1.985 . S
Cu138 O158 1.959 . S
N139 Cu138 1.999 . S
N139 C141 1.263 . S
N139 C143 1.389 . S
N140 C141 1.358 . S
N140 C142 1.400 . S
C141 N139 1.263 . S
C141 N140 1.358 . S
C141 H147 0.930 . S
C142 N140 1.400 . S
C142 C143 1.351 . S
C142 H159 0.930 . S
C143 N139 1.389 . S
C143 C142 1.351 . S
C143 H148 0.930 . S
O144 Cu138 1.974 . S
O144 C154 1.282 . S
C145 O146 1.261 . S
C145 O158 1.251 . S
O146 C145 1.261 . S
H147 C141 0.930 . S
H148 C143 0.930 . S
N149 Cu138 1.985 . S
N149 C151 1.335 . S
N149 C152 1.390 . S
N150 C151 1.345 . S
N150 C153 1.336 . S
C151 N149 1.335 . S
C151 N150 1.345 . S
C151 H156 0.930 . S
C152 N149 1.390 . S
C152 C153 1.346 . S
C152 H157 0.930 . S
C153 N150 1.336 . S
C153 C152 1.346 . S
C153 H160 0.929 1_556 S
C154 O144 1.282 . S
C154 O155 1.216 . S
O155 C154 1.216 . S
H156 C151 0.930 . S
H157 C152 0.930 . S
O158 Cu138 1.959 . S
O158 C145 1.251 . S
H159 C142 0.930 . S
H160 C153 0.929 1_554 S
Cu161 N162 1.999 . S
Cu161 O167 1.974 . S
Cu161 N172 1.985 . S
Cu161 O181 1.959 . S
N162 Cu161 1.999 . S
N162 C164 1.263 . S
N162 C166 1.389 . S
N163 C164 1.358 . S
N163 C165 1.400 . S
C164 N162 1.263 . S
C164 N163 1.358 . S
C164 H170 0.930 . S
C165 N163 1.400 . S
C165 C166 1.351 . S
C165 H182 0.930 . S
C166 N162 1.389 . S
C166 C165 1.351 . S
C166 H171 0.930 . S
O167 Cu161 1.974 . S
O167 C177 1.282 . S
C168 O169 1.261 . S
C168 O181 1.251 . S
O169 C168 1.261 . S
H170 C164 0.930 . S
H171 C166 0.930 . S
N172 Cu161 1.985 . S
N172 C174 1.315 1_565 S
N172 C175 1.390 . S
N173 C174 1.362 . S
N173 C176 1.336 1_545 S
C174 N172 1.315 1_545 S
C174 N173 1.362 . S
C174 H179 0.933 . S
C175 N172 1.390 . S
C175 C176 1.346 . S
C175 H180 0.930 . S
C176 N173 1.336 1_565 S
C176 C175 1.346 . S
C176 H183 0.929 1_565 S
C177 O167 1.282 . S
C177 O178 1.216 . S
O178 C177 1.216 . S
H179 C174 0.933 . S
H180 C175 0.930 . S
O181 Cu161 1.959 . S
O181 C168 1.251 . S
H182 C165 0.930 . S
H183 C176 0.929 1_545 S
Cu184 N185 1.999 . S
Cu184 O190 1.974 . S
Cu184 N195 1.985 . S
Cu184 O204 1.959 . S
N185 Cu184 1.999 . S
N185 C187 1.263 . S
N185 C189 1.389 . S
N186 C187 1.358 . S
N186 C188 1.400 . S
C187 N185 1.263 . S
C187 N186 1.358 . S
C187 H193 0.930 . S
C188 N186 1.400 . S
C188 C189 1.351 . S
C188 H205 0.930 . S
C189 N185 1.389 . S
C189 C188 1.351 . S
C189 H194 0.930 . S
O190 Cu184 1.974 . S
O190 C200 1.282 . S
C191 O192 1.261 . S
C191 O204 1.251 . S
O192 C191 1.261 . S
H193 C187 0.930 . S
H194 C189 0.930 . S
N195 Cu184 1.985 . S
N195 C197 1.335 . S
N195 C198 1.390 . S
N196 C197 1.345 1_655 S
N196 C199 1.336 1_655 S
C197 N195 1.335 . S
C197 N196 1.345 1_455 S
C197 H202 0.930 1_455 S
C198 N195 1.390 . S
C198 C199 1.346 . S
C198 H203 0.930 . S
C199 N196 1.336 1_455 S
C199 C198 1.346 . S
C199 H206 0.929 . S
C200 O190 1.282 . S
C200 O201 1.216 . S
O201 C200 1.216 . S
H202 C197 0.930 1_655 S
H203 C198 0.930 . S
O204 Cu184 1.959 . S
O204 C191 1.251 . S
H205 C188 0.930 . S
H206 C199 0.929 . S
Cu207 N208 1.999 . S
Cu207 O213 1.974 . S
Cu207 N218 1.985 . S
Cu207 O227 1.959 . S
N208 Cu207 1.999 . S
N208 C210 1.263 . S
N208 C212 1.389 . S
N209 C210 1.358 . S
N209 C211 1.400 . S
C210 N208 1.263 . S
C210 N209 1.358 . S
C210 H216 0.930 . S
C211 N209 1.400 . S
C211 C212 1.351 . S
C211 H228 0.930 . S
C212 N208 1.389 . S
C212 C211 1.351 . S
C212 H217 0.930 . S
O213 Cu207 1.974 . S
O213 C223 1.282 . S
C214 O215 1.261 . S
C214 O227 1.251 . S
O215 C214 1.261 . S
H216 C210 0.930 . S
H217 C212 0.930 . S
N218 Cu207 1.985 . S
N218 C220 1.335 . S
N218 C221 1.390 . S
N219 C220 1.345 . S
N219 C222 1.336 . S
C220 N218 1.335 . S
C220 N219 1.345 . S
C220 H225 0.930 . S
C221 N218 1.390 . S
C221 C222 1.346 . S
C221 H226 0.930 . S
C222 N219 1.336 . S
C222 C221 1.346 . S
C222 H229 0.929 . S
C223 O213 1.282 . S
C223 O224 1.216 . S
O224 C223 1.216 . S
H225 C220 0.930 . S
H226 C221 0.930 . S
O227 Cu207 1.959 . S
O227 C214 1.251 . S
H228 C211 0.930 . S
H229 C222 0.929 . S
Cu230 N231 1.999 . S
Cu230 O236 1.974 . S
Cu230 N241 1.985 . S
Cu230 O250 1.959 . S
N231 Cu230 1.999 . S
N231 C233 1.263 . S
N231 C235 1.389 . S
N232 C233 1.358 . S
N232 C234 1.400 . S
C233 N231 1.263 . S
C233 N232 1.358 . S
C233 H239 0.930 . S
C234 N232 1.400 . S
C234 C235 1.351 . S
C234 H251 0.930 . S
C235 N231 1.389 . S
C235 C234 1.351 . S
C235 H240 0.930 . S
O236 Cu230 1.974 . S
O236 C246 1.282 . S
C237 O238 1.261 . S
C237 O250 1.251 . S
O238 C237 1.261 . S
H239 C233 0.930 . S
H240 C235 0.930 . S
N241 Cu230 1.985 . S
N241 C243 1.311 1_545 S
N241 C244 1.390 . S
N242 C243 1.350 . S
N242 C245 1.336 1_565 S
C243 N241 1.311 1_565 S
C243 N242 1.350 . S
C243 H248 0.947 . S
C244 N241 1.390 . S
C244 C245 1.346 . S
C244 H249 0.930 . S
C245 N242 1.336 1_545 S
C245 C244 1.346 . S
C245 H252 0.929 1_545 S
C246 O236 1.282 . S
C246 O247 1.216 . S
O247 C246 1.216 . S
H248 C243 0.947 . S
H249 C244 0.930 . S
O250 Cu230 1.959 . S
O250 C237 1.251 . S
H251 C234 0.930 . S
H252 C245 0.929 1_565 S
Cu253 N254 1.999 . S
Cu253 O259 1.974 . S
Cu253 N264 1.985 . S
Cu253 O273 1.959 . S
N254 Cu253 1.999 . S
N254 C256 1.263 . S
N254 C258 1.389 . S
N255 C256 1.358 . S
N255 C257 1.400 . S
C256 N254 1.263 . S
C256 N255 1.358 . S
C256 H262 0.930 . S
C257 N255 1.400 . S
C257 C258 1.351 . S
C257 H274 0.930 . S
C258 N254 1.389 . S
C258 C257 1.351 . S
C258 H263 0.930 . S
O259 Cu253 1.974 . S
O259 C269 1.282 . S
C260 O261 1.261 . S
C260 O273 1.251 . S
O261 C260 1.261 . S
H262 C256 0.930 . S
H263 C258 0.930 . S
N264 Cu253 1.985 . S
N264 C266 1.335 . S
N264 C267 1.390 . S
N265 C266 1.345 1_455 S
N265 C268 1.336 1_455 S
C266 N264 1.335 . S
C266 N265 1.345 1_655 S
C266 H271 0.930 1_655 S
C267 N264 1.390 . S
C267 C268 1.346 . S
C267 H272 0.930 . S
C268 N265 1.336 1_655 S
C268 C267 1.346 . S
C268 H275 0.929 . S
C269 O259 1.282 . S
C269 O270 1.216 . S
O270 C269 1.216 . S
H271 C266 0.930 1_455 S
H272 C267 0.930 . S
O273 Cu253 1.959 . S
O273 C260 1.251 . S
H274 C257 0.930 . S
H275 C268 0.929 . S
Cu276 N277 1.999 . S
Cu276 O282 1.974 . S
Cu276 N287 1.985 . S
Cu276 O296 1.959 . S
N277 Cu276 1.999 . S
N277 C279 1.263 . S
N277 C281 1.389 . S
N278 C279 1.358 . S
N278 C280 1.400 . S
C279 N277 1.263 . S
C279 N278 1.358 . S
C279 H285 0.930 . S
C280 N278 1.400 . S
C280 C281 1.351 . S
C280 H297 0.930 . S
C281 N277 1.389 . S
C281 C280 1.351 . S
C281 H286 0.930 . S
O282 Cu276 1.974 . S
O282 C292 1.282 . S
C283 O284 1.261 . S
C283 O296 1.251 . S
O284 C283 1.261 . S
H285 C279 0.930 . S
H286 C281 0.930 . S
N287 Cu276 1.985 . S
N287 C289 1.335 . S
N287 C290 1.390 . S
N288 C289 1.345 . S
N288 C291 1.336 . S
C289 N287 1.335 . S
C289 N288 1.345 . S
C289 H294 0.930 . S
C290 N287 1.390 . S
C290 C291 1.346 . S
C290 H295 0.930 . S
C291 N288 1.336 . S
C291 C290 1.346 . S
C291 H298 0.929 . S
C292 O282 1.282 . S
C292 O293 1.216 . S
O293 C292 1.216 . S
H294 C289 0.930 . S
H295 C290 0.930 . S
O296 Cu276 1.959 . S
O296 C283 1.251 . S
H297 C280 0.930 . S
H298 C291 0.929 . S
Cu299 N300 1.999 . S
Cu299 O305 1.974 . S
Cu299 N310 1.985 . S
Cu299 O319 1.959 . S
N300 Cu299 1.999 . S
N300 C302 1.263 . S
N300 C304 1.389 . S
N301 C302 1.358 . S
N301 C303 1.400 . S
C302 N300 1.263 . S
C302 N301 1.358 . S
C302 H308 0.930 . S
C303 N301 1.400 . S
C303 C304 1.351 . S
C303 H320 0.930 . S
C304 N300 1.389 . S
C304 C303 1.351 . S
C304 H309 0.930 . S
O305 Cu299 1.974 . S
O305 C315 1.282 . S
C306 O307 1.261 . S
C306 O319 1.251 . S
O307 C306 1.261 . S
H308 C302 0.930 . S
H309 C304 0.930 . S
N310 Cu299 1.985 . S
N310 C312 1.335 . S
N310 C313 1.390 . S
N311 C312 1.345 . S
N311 C314 1.336 . S
C312 N310 1.335 . S
C312 N311 1.345 . S
C312 H317 0.930 . S
C313 N310 1.390 . S
C313 C314 1.346 . S
C313 H318 0.930 . S
C314 N311 1.336 . S
C314 C313 1.346 . S
C314 H321 0.929 . S
C315 O305 1.282 . S
C315 O316 1.216 . S
O316 C315 1.216 . S
H317 C312 0.930 . S
H318 C313 0.930 . S
O319 Cu299 1.959 . S
O319 C306 1.251 . S
H320 C303 0.930 . S
H321 C314 0.929 . S
Cu322 N323 1.999 . S
Cu322 O328 1.974 . S
Cu322 N333 1.985 . S
Cu322 O342 1.959 . S
N323 Cu322 1.999 . S
N323 C325 1.263 . S
N323 C327 1.389 . S
N324 C325 1.358 . S
N324 C326 1.400 . S
C325 N323 1.263 . S
C325 N324 1.358 . S
C325 H331 0.930 . S
C326 N324 1.400 . S
C326 C327 1.351 . S
C326 H343 0.930 . S
C327 N323 1.389 . S
C327 C326 1.351 . S
C327 H332 0.930 . S
O328 Cu322 1.974 . S
O328 C338 1.282 . S
C329 O330 1.261 . S
C329 O342 1.251 . S
O330 C329 1.261 . S
H331 C325 0.930 . S
H332 C327 0.930 . S
N333 Cu322 1.985 . S
N333 C335 1.335 . S
N333 C336 1.390 . S
N334 C335 1.345 . S
N334 C337 1.336 . S
C335 N333 1.335 . S
C335 N334 1.345 . S
C335 H340 0.930 . S
C336 N333 1.390 . S
C336 C337 1.346 . S
C336 H341 0.930 . S
C337 N334 1.336 . S
C337 C336 1.346 . S
C337 H344 0.929 . S
C338 O328 1.282 . S
C338 O339 1.216 . S
O339 C338 1.216 . S
H340 C335 0.930 . S
H341 C336 0.930 . S
O342 Cu322 1.959 . S
O342 C329 1.251 . S
H343 C326 0.930 . S
H344 C337 0.929 . S
Cu345 N346 1.999 . S
Cu345 O351 1.974 . S
Cu345 N356 1.985 . S
Cu345 O365 1.959 . S
N346 Cu345 1.999 . S
N346 C348 1.263 . S
N346 C350 1.389 . S
N347 C348 1.358 . S
N347 C349 1.400 . S
C348 N346 1.263 . S
C348 N347 1.358 . S
C348 H354 0.930 . S
C349 N347 1.400 . S
C349 C350 1.351 . S
C349 H366 0.930 . S
C350 N346 1.389 . S
C350 C349 1.351 . S
C350 H355 0.930 . S
O351 Cu345 1.974 . S
O351 C361 1.282 . S
C352 O353 1.261 . S
C352 O365 1.251 . S
O353 C352 1.261 . S
H354 C348 0.930 . S
H355 C350 0.930 . S
N356 Cu345 1.985 . S
N356 C358 1.335 . S
N356 C359 1.390 . S
N357 C358 1.345 . S
N357 C360 1.336 . S
C358 N356 1.335 . S
C358 N357 1.345 . S
C358 H363 0.930 . S
C359 N356 1.390 . S
C359 C360 1.346 . S
C359 H364 0.930 . S
C360 N357 1.336 . S
C360 C359 1.346 . S
C360 H367 0.929 . S
C361 O351 1.282 . S
C361 O362 1.216 . S
O362 C361 1.216 . S
H363 C358 0.930 . S
H364 C359 0.930 . S
O365 Cu345 1.959 . S
O365 C352 1.251 . S
H366 C349 0.930 . S
H367 C360 0.929 . S
Cu368 N369 1.999 . S
Cu368 O374 1.974 . S
Cu368 N379 1.985 . S
Cu368 O388 1.959 . S
N369 Cu368 1.999 . S
N369 C371 1.263 . S
N369 C373 1.389 . S
N370 C371 1.358 . S
N370 C372 1.400 . S
C371 N369 1.263 . S
C371 N370 1.358 . S
C371 H377 0.930 . S
C372 N370 1.400 . S
C372 C373 1.351 . S
C372 H389 0.930 . S
C373 N369 1.389 . S
C373 C372 1.351 . S
C373 H378 0.930 . S
O374 Cu368 1.974 . S
O374 C384 1.282 . S
C375 O376 1.261 . S
C375 O388 1.251 . S
O376 C375 1.261 . S
H377 C371 0.930 . S
H378 C373 0.930 . S
N379 Cu368 1.985 . S
N379 C381 1.335 . S
N379 C382 1.390 . S
N380 C381 1.345 . S
N380 C383 1.336 . S
C381 N379 1.335 . S
C381 N380 1.345 . S
C381 H386 0.930 . S
C382 N379 1.390 . S
C382 C383 1.346 . S
C382 H387 0.930 . S
C383 N380 1.336 . S
C383 C382 1.346 . S
C383 H390 0.929 . S
C384 O374 1.282 . S
C384 O385 1.216 . S
O385 C384 1.216 . S
H386 C381 0.930 . S
H387 C382 0.930 . S
O388 Cu368 1.959 . S
O388 C375 1.251 . S
H389 C372 0.930 . S
H390 C383 0.929 . S
Cu391 N392 1.999 . S
Cu391 O397 1.974 . S
Cu391 N402 1.985 . S
Cu391 O411 1.959 . S
N392 Cu391 1.999 . S
N392 C394 1.263 . S
N392 C396 1.389 . S
N393 C394 1.358 . S
N393 C395 1.400 . S
C394 N392 1.263 . S
C394 N393 1.358 . S
C394 H400 0.930 . S
C395 N393 1.400 . S
C395 C396 1.351 . S
C395 H412 0.930 . S
C396 N392 1.389 . S
C396 C395 1.351 . S
C396 H401 0.930 . S
O397 Cu391 1.974 . S
O397 C407 1.282 . S
C398 O399 1.261 . S
C398 O411 1.251 . S
O399 C398 1.261 . S
H400 C394 0.930 . S
H401 C396 0.930 . S
N402 Cu391 1.985 . S
N402 C404 1.335 . S
N402 C405 1.390 . S
N403 C404 1.345 . S
N403 C406 1.336 . S
C404 N402 1.335 . S
C404 N403 1.345 . S
C404 H409 0.930 . S
C405 N402 1.390 . S
C405 C406 1.346 . S
C405 H410 0.930 . S
C406 N403 1.336 . S
C406 C405 1.346 . S
C406 H413 0.929 . S
C407 O397 1.282 . S
C407 O408 1.216 . S
O408 C407 1.216 . S
H409 C404 0.930 . S
H410 C405 0.930 . S
O411 Cu391 1.959 . S
O411 C398 1.251 . S
H412 C395 0.930 . S
H413 C406 0.929 . S
Cu414 N415 1.999 . S
Cu414 O420 1.974 . S
Cu414 N425 1.985 . S
Cu414 O434 1.959 . S
N415 Cu414 1.999 . S
N415 C417 1.263 . S
N415 C419 1.389 . S
N416 C417 1.358 . S
N416 C418 1.400 . S
C417 N415 1.263 . S
C417 N416 1.358 . S
C417 H423 0.930 . S
C418 N416 1.400 . S
C418 C419 1.351 . S
C418 H435 0.930 . S
C419 N415 1.389 . S
C419 C418 1.351 . S
C419 H424 0.930 . S
O420 Cu414 1.974 . S
O420 C430 1.282 . S
C421 O422 1.261 . S
C421 O434 1.251 . S
O422 C421 1.261 . S
H423 C417 0.930 . S
H424 C419 0.930 . S
N425 Cu414 1.985 . S
N425 C427 1.335 . S
N425 C428 1.390 . S
N426 C427 1.345 . S
N426 C429 1.336 . S
C427 N425 1.335 . S
C427 N426 1.345 . S
C427 H432 0.930 . S
C428 N425 1.390 . S
C428 C429 1.346 . S
C428 H433 0.930 . S
C429 N426 1.336 . S
C429 C428 1.346 . S
C429 H436 0.929 . S
C430 O420 1.282 . S
C430 O431 1.216 . S
O431 C430 1.216 . S
H432 C427 0.930 . S
H433 C428 0.930 . S
O434 Cu414 1.959 . S
O434 C421 1.251 . S
H435 C418 0.930 . S
H436 C429 0.929 . S
Cu437 N438 1.999 . S
Cu437 O443 1.974 . S
Cu437 N448 1.985 . S
Cu437 O457 1.959 . S
N438 Cu437 1.999 . S
N438 C440 1.263 . S
N438 C442 1.389 . S
N439 C440 1.358 . S
N439 C441 1.400 . S
C440 N438 1.263 . S
C440 N439 1.358 . S
C440 H446 0.930 . S
C441 N439 1.400 . S
C441 C442 1.351 . S
C441 H458 0.930 . S
C442 N438 1.389 . S
C442 C441 1.351 . S
C442 H447 0.930 . S
O443 Cu437 1.974 . S
O443 C453 1.282 . S
C444 O445 1.261 . S
C444 O457 1.251 . S
O445 C444 1.261 . S
H446 C440 0.930 . S
H447 C442 0.930 . S
N448 Cu437 1.985 . S
N448 C450 1.335 . S
N448 C451 1.390 . S
N449 C450 1.345 . S
N449 C452 1.336 . S
C450 N448 1.335 . S
C450 N449 1.345 . S
C450 H455 0.930 . S
C451 N448 1.390 . S
C451 C452 1.346 . S
C451 H456 0.930 . S
C452 N449 1.336 . S
C452 C451 1.346 . S
C452 H459 0.929 . S
C453 O443 1.282 . S
C453 O454 1.216 . S
O454 C453 1.216 . S
H455 C450 0.930 . S
H456 C451 0.930 . S
O457 Cu437 1.959 . S
O457 C444 1.251 . S
H458 C441 0.930 . S
H459 C452 0.929 . S
Cu460 N461 1.999 . S
Cu460 O466 1.974 . S
Cu460 N471 1.985 . S
Cu460 O480 1.959 . S
N461 Cu460 1.999 . S
N461 C463 1.263 . S
N461 C465 1.389 . S
N462 C463 1.358 . S
N462 C464 1.400 . S
C463 N461 1.263 . S
C463 N462 1.358 . S
C463 H469 0.930 . S
C464 N462 1.400 . S
C464 C465 1.351 . S
C464 H481 0.930 . S
C465 N461 1.389 . S
C465 C464 1.351 . S
C465 H470 0.930 . S
O466 Cu460 1.974 . S
O466 C476 1.282 . S
C467 O468 1.261 . S
C467 O480 1.251 . S
O468 C467 1.261 . S
H469 C463 0.930 . S
H470 C465 0.930 . S
N471 Cu460 1.985 . S
N471 C473 1.335 . S
N471 C474 1.390 . S
N472 C473 1.345 . S
N472 C475 1.336 . S
C473 N471 1.335 . S
C473 N472 1.345 . S
C473 H478 0.930 . S
C474 N471 1.390 . S
C474 C475 1.346 . S
C474 H479 0.930 . S
C475 N472 1.336 . S
C475 C474 1.346 . S
C475 H482 0.929 . S
C476 O466 1.282 . S
C476 O477 1.216 . S
O477 C476 1.216 . S
H478 C473 0.930 . S
H479 C474 0.930 . S
O480 Cu460 1.959 . S
O480 C467 1.251 . S
H481 C464 0.930 . S
H482 C475 0.929 . S
Cu483 N484 1.999 . S
Cu483 O489 1.974 . S
Cu483 N494 1.985 . S
Cu483 O503 1.959 . S
N484 Cu483 1.999 . S
N484 C486 1.263 . S
N484 C488 1.389 . S
N485 C486 1.358 . S
N485 C487 1.400 . S
C486 N484 1.263 . S
C486 N485 1.358 . S
C486 H492 0.930 . S
C487 N485 1.400 . S
C487 C488 1.351 . S
C487 H504 0.930 . S
C488 N484 1.389 . S
C488 C487 1.351 . S
C488 H493 0.930 . S
O489 Cu483 1.974 . S
O489 C499 1.282 . S
C490 O491 1.261 . S
C490 O503 1.251 . S
O491 C490 1.261 . S
H492 C486 0.930 . S
H493 C488 0.930 . S
N494 Cu483 1.985 . S
N494 C496 1.335 . S
N494 C497 1.390 . S
N495 C496 1.345 . S
N495 C498 1.336 . S
C496 N494 1.335 . S
C496 N495 1.345 . S
C496 H501 0.930 . S
C497 N494 1.390 . S
C497 C498 1.346 . S
C497 H502 0.930 . S
C498 N495 1.336 . S
C498 C497 1.346 . S
C498 H505 0.929 . S
C499 O489 1.282 . S
C499 O500 1.216 . S
O500 C499 1.216 . S
H501 C496 0.930 . S
H502 C497 0.930 . S
O503 Cu483 1.959 . S
O503 C490 1.251 . S
H504 C487 0.930 . S
H505 C498 0.929 . S
Cu506 N507 1.999 . S
Cu506 O512 1.974 . S
Cu506 N517 1.985 . S
Cu506 O526 1.959 . S
N507 Cu506 1.999 . S
N507 C509 1.263 . S
N507 C511 1.389 . S
N508 C509 1.358 . S
N508 C510 1.400 . S
C509 N507 1.263 . S
C509 N508 1.358 . S
C509 H515 0.930 . S
C510 N508 1.400 . S
C510 C511 1.351 . S
C510 H527 0.930 1_556 S
C511 N507 1.389 . S
C511 C510 1.351 . S
C511 H516 0.930 . S
O512 Cu506 1.974 . S
O512 C522 1.282 . S
C513 O514 1.261 . S
C513 O526 1.251 . S
O514 C513 1.261 . S
H515 C509 0.930 . S
H516 C511 0.930 . S
N517 Cu506 1.985 . S
N517 C519 1.335 . S
N517 C520 1.390 . S
N518 C519 1.345 . S
N518 C521 1.336 . S
C519 N517 1.335 . S
C519 N518 1.345 . S
C519 H524 0.930 . S
C520 N517 1.390 . S
C520 C521 1.346 . S
C520 H525 0.930 . S
C521 N518 1.336 . S
C521 C520 1.346 . S
C521 H528 0.929 . S
C522 O512 1.282 . S
C522 O523 1.216 . S
O523 C522 1.216 . S
H524 C519 0.930 . S
H525 C520 0.930 . S
O526 Cu506 1.959 . S
O526 C513 1.251 . S
H527 C510 0.930 1_554 S
H528 C521 0.929 . S
Cu529 N530 1.999 . S
Cu529 O535 1.974 . S
Cu529 N540 1.985 . S
Cu529 O549 1.959 . S
N530 Cu529 1.999 . S
N530 C532 1.263 . S
N530 C534 1.389 . S
N531 C532 1.358 . S
N531 C533 1.400 . S
C532 N530 1.263 . S
C532 N531 1.358 . S
C532 H538 0.930 . S
C533 N531 1.400 . S
C533 C534 1.351 . S
C533 H550 0.930 . S
C534 N530 1.389 . S
C534 C533 1.351 . S
C534 H539 0.930 . S
O535 Cu529 1.974 . S
O535 C545 1.282 . S
C536 O537 1.261 . S
C536 O549 1.251 . S
O537 C536 1.261 . S
H538 C532 0.930 . S
H539 C534 0.930 . S
N540 Cu529 1.985 . S
N540 C542 1.335 . S
N540 C543 1.390 . S
N541 C542 1.345 . S
N541 C544 1.336 . S
C542 N540 1.335 . S
C542 N541 1.345 . S
C542 H547 0.930 . S
C543 N540 1.390 . S
C543 C544 1.346 . S
C543 H548 0.930 . S
C544 N541 1.336 . S
C544 C543 1.346 . S
C544 H551 0.929 . S
C545 O535 1.282 . S
C545 O546 1.216 . S
O546 C545 1.216 . S
H547 C542 0.930 . S
H548 C543 0.930 . S
O549 Cu529 1.959 . S
O549 C536 1.251 . S
H550 C533 0.930 . S
H551 C544 0.929 . S
Cu552 N553 1.999 . S
Cu552 O558 1.974 . S
Cu552 N563 1.985 . S
Cu552 O572 1.959 . S
N553 Cu552 1.999 . S
N553 C555 1.263 . S
N553 C557 1.389 . S
N554 C555 1.358 . S
N554 C556 1.400 . S
C555 N553 1.263 . S
C555 N554 1.358 . S
C555 H561 0.930 . S
C556 N554 1.400 . S
C556 C557 1.351 . S
C556 H573 0.930 . S
C557 N553 1.389 . S
C557 C556 1.351 . S
C557 H562 0.930 . S
O558 Cu552 1.974 . S
O558 C568 1.282 . S
C559 O560 1.261 . S
C559 O572 1.251 . S
O560 C559 1.261 . S
H561 C555 0.930 . S
H562 C557 0.930 . S
N563 Cu552 1.985 . S
N563 C565 1.335 . S
N563 C566 1.390 . S
N564 C565 1.345 . S
N564 C567 1.336 . S
C565 N563 1.335 . S
C565 N564 1.345 . S
C565 H570 0.930 . S
C566 N563 1.390 . S
C566 C567 1.346 . S
C566 H571 0.930 . S
C567 N564 1.336 . S
C567 C566 1.346 . S
C567 H574 0.929 . S
C568 O558 1.282 . S
C568 O569 1.216 . S
O569 C568 1.216 . S
H570 C565 0.930 . S
H571 C566 0.930 . S
O572 Cu552 1.959 . S
O572 C559 1.251 . S
H573 C556 0.930 . S
H574 C567 0.929 . S
Cu575 N576 1.999 . S
Cu575 O581 1.974 . S
Cu575 N586 1.985 . S
Cu575 O595 1.959 . S
N576 Cu575 1.999 . S
N576 C578 1.263 . S
N576 C580 1.389 . S
N577 C578 1.358 . S
N577 C579 1.400 . S
C578 N576 1.263 . S
C578 N577 1.358 . S
C578 H584 0.930 . S
C579 N577 1.400 . S
C579 C580 1.351 . S
C579 H596 0.930 . S
C580 N576 1.389 . S
C580 C579 1.351 . S
C580 H585 0.930 . S
O581 Cu575 1.974 . S
O581 C591 1.282 . S
C582 O583 1.261 . S
C582 O595 1.251 . S
O583 C582 1.261 . S
H584 C578 0.930 . S
H585 C580 0.930 . S
N586 Cu575 1.985 . S
N586 C588 1.335 . S
N586 C589 1.390 . S
N587 C588 1.345 . S
N587 C590 1.336 . S
C588 N586 1.335 . S
C588 N587 1.345 . S
C588 H593 0.930 . S
C589 N586 1.390 . S
C589 C590 1.346 . S
C589 H594 0.930 . S
C590 N587 1.336 . S
C590 C589 1.346 . S
C590 H597 0.929 . S
C591 O581 1.282 . S
C591 O592 1.216 . S
O592 C591 1.216 . S
H593 C588 0.930 . S
H594 C589 0.930 . S
O595 Cu575 1.959 . S
O595 C582 1.251 . S
H596 C579 0.930 . S
H597 C590 0.929 . S
Cu598 N599 1.999 . S
Cu598 O604 1.974 . S
Cu598 N609 1.985 . S
Cu598 O618 1.959 . S
N599 Cu598 1.999 . S
N599 C601 1.263 . S
N599 C603 1.389 . S
N600 C601 1.358 . S
N600 C602 1.400 . S
C601 N599 1.263 . S
C601 N600 1.358 . S
C601 H607 0.930 . S
C602 N600 1.400 . S
C602 C603 1.351 . S
C602 H619 0.930 . S
C603 N599 1.389 . S
C603 C602 1.351 . S
C603 H608 0.930 . S
O604 Cu598 1.974 . S
O604 C614 1.282 . S
C605 O606 1.261 . S
C605 O618 1.251 . S
O606 C605 1.261 . S
H607 C601 0.930 . S
H608 C603 0.930 . S
N609 Cu598 1.985 . S
N609 C611 1.335 . S
N609 C612 1.390 . S
N610 C611 1.345 . S
N610 C613 1.336 . S
C611 N609 1.335 . S
C611 N610 1.345 . S
C611 H616 0.930 . S
C612 N609 1.390 . S
C612 C613 1.346 . S
C612 H617 0.930 . S
C613 N610 1.336 . S
C613 C612 1.346 . S
C613 H620 0.929 . S
C614 O604 1.282 . S
C614 O615 1.216 . S
O615 C614 1.216 . S
H616 C611 0.930 . S
H617 C612 0.930 . S
O618 Cu598 1.959 . S
O618 C605 1.251 . S
H619 C602 0.930 . S
H620 C613 0.929 . S
Cu621 N622 1.999 . S
Cu621 O627 1.974 . S
Cu621 N632 1.985 . S
Cu621 O641 1.959 . S
N622 Cu621 1.999 . S
N622 C624 1.263 . S
N622 C626 1.389 . S
N623 C624 1.358 . S
N623 C625 1.400 . S
C624 N622 1.263 . S
C624 N623 1.358 . S
C624 H630 0.930 . S
C625 N623 1.400 . S
C625 C626 1.351 . S
C625 H642 0.930 . S
C626 N622 1.389 . S
C626 C625 1.351 . S
C626 H631 0.930 . S
O627 Cu621 1.974 . S
O627 C637 1.282 . S
C628 O629 1.261 . S
C628 O641 1.251 . S
O629 C628 1.261 . S
H630 C624 0.930 . S
H631 C626 0.930 . S
N632 Cu621 1.985 . S
N632 C634 1.335 . S
N632 C635 1.390 . S
N633 C634 1.345 . S
N633 C636 1.336 . S
C634 N632 1.335 . S
C634 N633 1.345 . S
C634 H639 0.930 . S
C635 N632 1.390 . S
C635 C636 1.346 . S
C635 H640 0.930 . S
C636 N633 1.336 . S
C636 C635 1.346 . S
C636 H643 0.929 . S
C637 O627 1.282 . S
C637 O638 1.216 . S
O638 C637 1.216 . S
H639 C634 0.930 . S
H640 C635 0.930 . S
O641 Cu621 1.959 . S
O641 C628 1.251 . S
H642 C625 0.930 . S
H643 C636 0.929 . S
Cu644 N645 1.999 . S
Cu644 O650 1.974 . S
Cu644 N655 1.985 . S
Cu644 O664 1.959 . S
N645 Cu644 1.999 . S
N645 C647 1.263 . S
N645 C649 1.389 . S
N646 C647 1.358 . S
N646 C648 1.400 . S
C647 N645 1.263 . S
C647 N646 1.358 . S
C647 H653 0.930 . S
C648 N646 1.400 . S
C648 C649 1.351 . S
C648 H665 0.930 . S
C649 N645 1.389 . S
C649 C648 1.351 . S
C649 H654 0.930 . S
O650 Cu644 1.974 . S
O650 C660 1.282 . S
C651 O652 1.261 . S
C651 O664 1.251 . S
O652 C651 1.261 . S
H653 C647 0.930 . S
H654 C649 0.930 . S
N655 Cu644 1.985 . S
N655 C657 1.335 . S
N655 C658 1.390 . S
N656 C657 1.345 . S
N656 C659 1.336 . S
C657 N655 1.335 . S
C657 N656 1.345 . S
C657 H662 0.930 . S
C658 N655 1.390 . S
C658 C659 1.346 . S
C658 H663 0.930 . S
C659 N656 1.336 . S
C659 C658 1.346 . S
C659 H666 0.929 . S
C660 O650 1.282 . S
C660 O661 1.216 . S
O661 C660 1.216 . S
H662 C657 0.930 . S
H663 C658 0.930 . S
O664 Cu644 1.959 . S
O664 C651 1.251 . S
H665 C648 0.930 . S
H666 C659 0.929 . S
Cu667 N668 1.999 . S
Cu667 O673 1.974 . S
Cu667 N678 1.985 . S
Cu667 O687 1.959 . S
N668 Cu667 1.999 . S
N668 C670 1.263 . S
N668 C672 1.389 . S
N669 C670 1.358 . S
N669 C671 1.400 . S
C670 N668 1.263 . S
C670 N669 1.358 . S
C670 H676 0.930 . S
C671 N669 1.400 . S
C671 C672 1.351 . S
C671 H688 0.930 . S
C672 N668 1.389 . S
C672 C671 1.351 . S
C672 H677 0.930 . S
O673 Cu667 1.974 . S
O673 C683 1.282 . S
C674 O675 1.261 . S
C674 O687 1.251 . S
O675 C674 1.261 . S
H676 C670 0.930 . S
H677 C672 0.930 . S
N678 Cu667 1.985 . S
N678 C680 1.335 . S
N678 C681 1.390 . S
N679 C680 1.345 . S
N679 C682 1.336 . S
C680 N678 1.335 . S
C680 N679 1.345 . S
C680 H685 0.930 . S
C681 N678 1.390 . S
C681 C682 1.346 . S
C681 H686 0.930 . S
C682 N679 1.336 . S
C682 C681 1.346 . S
C682 H689 0.929 . S
C683 O673 1.282 . S
C683 O684 1.216 . S
O684 C683 1.216 . S
H685 C680 0.930 . S
H686 C681 0.930 . S
O687 Cu667 1.959 . S
O687 C674 1.251 . S
H688 C671 0.930 . S
H689 C682 0.929 . S
Cu690 N691 1.999 . S
Cu690 O696 1.974 . S
Cu690 N701 1.985 . S
Cu690 O710 1.959 . S
N691 Cu690 1.999 . S
N691 C693 1.263 . S
N691 C695 1.389 . S
N692 C693 1.358 . S
N692 C694 1.400 . S
C693 N691 1.263 . S
C693 N692 1.358 . S
C693 H699 0.930 . S
C694 N692 1.400 . S
C694 C695 1.351 . S
C694 H711 0.930 . S
C695 N691 1.389 . S
C695 C694 1.351 . S
C695 H700 0.930 . S
O696 Cu690 1.974 . S
O696 C706 1.282 . S
C697 O698 1.261 . S
C697 O710 1.251 . S
O698 C697 1.261 . S
H699 C693 0.930 . S
H700 C695 0.930 . S
N701 Cu690 1.985 . S
N701 C703 1.335 . S
N701 C704 1.390 . S
N702 C703 1.345 . S
N702 C705 1.336 . S
C703 N701 1.335 . S
C703 N702 1.345 . S
C703 H708 0.930 . S
C704 N701 1.390 . S
C704 C705 1.346 . S
C704 H709 0.930 . S
C705 N702 1.336 . S
C705 C704 1.346 . S
C705 H712 0.929 . S
C706 O696 1.282 . S
C706 O707 1.216 . S
O707 C706 1.216 . S
H708 C703 0.930 . S
H709 C704 0.930 . S
O710 Cu690 1.959 . S
O710 C697 1.251 . S
H711 C694 0.930 . S
H712 C705 0.929 . S
Cu713 N714 1.999 . S
Cu713 O719 1.974 . S
Cu713 N724 1.985 . S
Cu713 O733 1.959 . S
N714 Cu713 1.999 . S
N714 C716 1.263 . S
N714 C718 1.389 . S
N715 C716 1.358 . S
N715 C717 1.400 . S
C716 N714 1.263 . S
C716 N715 1.358 . S
C716 H722 0.930 . S
C717 N715 1.400 . S
C717 C718 1.351 . S
C717 H734 0.930 . S
C718 N714 1.389 . S
C718 C717 1.351 . S
C718 H723 0.930 . S
O719 Cu713 1.974 . S
O719 C729 1.282 . S
C720 O721 1.261 . S
C720 O733 1.251 . S
O721 C720 1.261 . S
H722 C716 0.930 . S
H723 C718 0.930 . S
N724 Cu713 1.985 . S
N724 C726 1.335 . S
N724 C727 1.390 . S
N725 C726 1.345 . S
N725 C728 1.336 . S
C726 N724 1.335 . S
C726 N725 1.345 . S
C726 H731 0.930 . S
C727 N724 1.390 . S
C727 C728 1.346 . S
C727 H732 0.930 . S
C728 N725 1.336 . S
C728 C727 1.346 . S
C728 H735 0.929 . S
C729 O719 1.282 . S
C729 O730 1.216 . S
O730 C729 1.216 . S
H731 C726 0.930 . S
H732 C727 0.930 . S
O733 Cu713 1.959 . S
O733 C720 1.251 . S
H734 C717 0.930 . S
H735 C728 0.929 . S
Cu736 N737 1.999 . S
Cu736 O742 1.974 . S
Cu736 N747 1.985 . S
Cu736 O756 1.959 . S
N737 Cu736 1.999 . S
N737 C739 1.263 . S
N737 C741 1.389 . S
N738 C739 1.358 . S
N738 C740 1.400 . S
C739 N737 1.263 . S
C739 N738 1.358 . S
C739 H745 0.930 . S
C740 N738 1.400 . S
C740 C741 1.351 . S
C740 H757 0.930 . S
C741 N737 1.389 . S
C741 C740 1.351 . S
C741 H746 0.930 . S
O742 Cu736 1.974 . S
O742 C752 1.282 . S
C743 O744 1.261 . S
C743 O756 1.251 . S
O744 C743 1.261 . S
H745 C739 0.930 . S
H746 C741 0.930 . S
N747 Cu736 1.985 . S
N747 C749 1.335 . S
N747 C750 1.390 . S
N748 C749 1.345 . S
N748 C751 1.336 . S
C749 N747 1.335 . S
C749 N748 1.345 . S
C749 H754 0.930 . S
C750 N747 1.390 . S
C750 C751 1.346 . S
C750 H755 0.930 . S
C751 N748 1.336 . S
C751 C750 1.346 . S
C751 H758 0.929 . S
C752 O742 1.282 . S
C752 O753 1.216 . S
O753 C752 1.216 . S
H754 C749 0.930 . S
H755 C750 0.930 . S
O756 Cu736 1.959 . S
O756 C743 1.251 . S
H757 C740 0.930 . S
H758 C751 0.929 . S
Cu759 N760 1.999 . S
Cu759 O765 1.974 . S
Cu759 N770 1.985 . S
Cu759 O779 1.959 . S
N760 Cu759 1.999 . S
N760 C762 1.263 . S
N760 C764 1.389 . S
N761 C762 1.358 . S
N761 C763 1.400 . S
C762 N760 1.263 . S
C762 N761 1.358 . S
C762 H768 0.930 . S
C763 N761 1.400 . S
C763 C764 1.351 . S
C763 H780 0.930 . S
C764 N760 1.389 . S
C764 C763 1.351 . S
C764 H769 0.930 . S
O765 Cu759 1.974 . S
O765 C775 1.282 . S
C766 O767 1.261 . S
C766 O779 1.251 . S
O767 C766 1.261 . S
H768 C762 0.930 . S
H769 C764 0.930 . S
N770 Cu759 1.985 . S
N770 C772 1.335 . S
N770 C773 1.390 . S
N771 C772 1.345 . S
N771 C774 1.336 . S
C772 N770 1.335 . S
C772 N771 1.345 . S
C772 H777 0.930 . S
C773 N770 1.390 . S
C773 C774 1.346 . S
C773 H778 0.930 . S
C774 N771 1.336 . S
C774 C773 1.346 . S
C774 H781 0.929 . S
C775 O765 1.282 . S
C775 O776 1.216 . S
O776 C775 1.216 . S
H777 C772 0.930 . S
H778 C773 0.930 . S
O779 Cu759 1.959 . S
O779 C766 1.251 . S
H780 C763 0.930 . S
H781 C774 0.929 . S
Cu782 N783 1.999 . S
Cu782 O788 1.974 . S
Cu782 N793 1.985 . S
Cu782 O802 1.959 . S
N783 Cu782 1.999 . S
N783 C785 1.263 . S
N783 C787 1.389 . S
N784 C785 1.358 . S
N784 C786 1.400 . S
C785 N783 1.263 . S
C785 N784 1.358 . S
C785 H791 0.930 . S
C786 N784 1.400 . S
C786 C787 1.351 . S
C786 H803 0.930 . S
C787 N783 1.389 . S
C787 C786 1.351 . S
C787 H792 0.930 . S
O788 Cu782 1.974 . S
O788 C798 1.282 . S
C789 O790 1.261 . S
C789 O802 1.251 . S
O790 C789 1.261 . S
H791 C785 0.930 . S
H792 C787 0.930 . S
N793 Cu782 1.985 . S
N793 C795 1.335 . S
N793 C796 1.390 . S
N794 C795 1.345 . S
N794 C797 1.336 . S
C795 N793 1.335 . S
C795 N794 1.345 . S
C795 H800 0.930 . S
C796 N793 1.390 . S
C796 C797 1.346 . S
C796 H801 0.930 . S
C797 N794 1.336 . S
C797 C796 1.346 . S
C797 H804 0.929 . S
C798 O788 1.282 . S
C798 O799 1.216 . S
O799 C798 1.216 . S
H800 C795 0.930 . S
H801 C796 0.930 . S
O802 Cu782 1.959 . S
O802 C789 1.251 . S
H803 C786 0.930 . S
H804 C797 0.929 . S
Cu805 N806 1.999 . S
Cu805 O811 1.974 . S
Cu805 N816 1.985 . S
Cu805 O825 1.959 . S
N806 Cu805 1.999 . S
N806 C808 1.263 . S
N806 C810 1.389 . S
N807 C808 1.358 . S
N807 C809 1.400 . S
C808 N806 1.263 . S
C808 N807 1.358 . S
C808 H814 0.930 . S
C809 N807 1.400 . S
C809 C810 1.351 . S
C809 H826 0.930 . S
C810 N806 1.389 . S
C810 C809 1.351 . S
C810 H815 0.930 . S
O811 Cu805 1.974 . S
O811 C821 1.282 . S
C812 O813 1.261 . S
C812 O825 1.251 . S
O813 C812 1.261 . S
H814 C808 0.930 . S
H815 C810 0.930 . S
N816 Cu805 1.985 . S
N816 C818 1.335 . S
N816 C819 1.390 . S
N817 C818 1.345 . S
N817 C820 1.336 . S
C818 N816 1.335 . S
C818 N817 1.345 . S
C818 H823 0.930 . S
C819 N816 1.390 . S
C819 C820 1.346 . S
C819 H824 0.930 . S
C820 N817 1.336 . S
C820 C819 1.346 . S
C820 H827 0.929 . S
C821 O811 1.282 . S
C821 O822 1.216 . S
O822 C821 1.216 . S
H823 C818 0.930 . S
H824 C819 0.930 . S
O825 Cu805 1.959 . S
O825 C812 1.251 . S
H826 C809 0.930 . S
H827 C820 0.929 . S
H828 C836 0.950 . S
H829 C841 0.950 . S
H830 C838 0.950 . S
H831 C840 0.950 . S
H832 C842 0.950 . S
H833 C844 0.950 . S
H834 C846 0.950 . S
H835 C847 0.950 . S
C836 H828 0.950 . S
C836 C837 1.386 . S
C836 C838 1.391 . S
C837 C836 1.386 . S
C837 C841 1.393 . S
C838 H830 0.950 . S
C838 C836 1.391 . S
C838 C839 1.400 . S
C839 C838 1.400 . S
C839 C840 1.398 . S
C839 C845 1.491 . S
C840 H831 0.950 . S
C840 C839 1.398 . S
C840 C841 1.391 . S
C841 H829 0.950 . S
C841 C837 1.393 . S
C841 C840 1.391 . S
C842 H832 0.950 . S
C842 C843 1.386 . S
C842 C844 1.391 . S
C843 C842 1.386 . S
C843 C847 1.393 . S
C844 H833 0.950 . S
C844 C842 1.391 . S
C844 C845 1.400 . S
C845 C839 1.491 . S
C845 C844 1.400 . S
C845 C846 1.398 . S
C846 H834 0.950 . S
C846 C845 1.398 . S
C846 C847 1.391 . S
C847 H835 0.950 . S
C847 C843 1.393 . S
C847 C846 1.391 . S
H848 C856 0.950 . S
H849 C861 0.950 . S
H850 C858 0.950 . S
H851 C860 0.950 . S
H852 C862 0.950 . S
H853 C864 0.950 . S
H854 C866 0.950 . S
H855 C867 0.950 . S
C856 H848 0.950 . S
C856 C857 1.386 . S
C856 C858 1.391 . S
C857 C856 1.386 . S
C857 C861 1.393 . S
C858 H850 0.950 . S
C858 C856 1.391 . S
C858 C859 1.400 . S
C859 C858 1.400 . S
C859 C860 1.398 . S
C859 C865 1.491 . S
C860 H851 0.950 . S
C860 C859 1.398 . S
C860 C861 1.391 . S
C861 H849 0.950 . S
C861 C857 1.393 . S
C861 C860 1.391 . S
C862 H852 0.950 . S
C862 C863 1.386 . S
C862 C864 1.391 . S
C863 C862 1.386 . S
C863 C867 1.393 . S
C864 H853 0.950 . S
C864 C862 1.391 . S
C864 C865 1.400 . S
C865 C859 1.491 . S
C865 C864 1.400 . S
C865 C866 1.398 . S
C866 H854 0.950 . S
C866 C865 1.398 . S
C866 C867 1.391 . S
C867 H855 0.950 . S
C867 C863 1.393 . S
C867 C866 1.391 . S
H868 C876 0.950 . S
H869 C881 0.950 . S
H870 C878 0.950 . S
H871 C880 0.950 . S
H872 C882 0.950 . S
H873 C884 0.950 . S
H874 C886 0.950 . S
H875 C887 0.950 . S
C876 H868 0.950 . S
C876 C877 1.386 . S
C876 C878 1.391 . S
C877 C876 1.386 . S
C877 C881 1.393 . S
C878 H870 0.950 . S
C878 C876 1.391 . S
C878 C879 1.400 . S
C879 C878 1.400 . S
C879 C880 1.398 . S
C879 C885 1.491 . S
C880 H871 0.950 . S
C880 C879 1.398 . S
C880 C881 1.391 . S
C881 H869 0.950 . S
C881 C877 1.393 . S
C881 C880 1.391 . S
C882 H872 0.950 . S
C882 C883 1.386 . S
C882 C884 1.391 . S
C883 C882 1.386 . S
C883 C887 1.393 . S
C884 H873 0.950 . S
C884 C882 1.391 . S
C884 C885 1.400 . S
C885 C879 1.491 . S
C885 C884 1.400 . S
C885 C886 1.398 . S
C886 H874 0.950 . S
C886 C885 1.398 . S
C886 C887 1.391 . S
C887 H875 0.950 . S
C887 C883 1.393 . S
C887 C886 1.391 . S
H888 C896 0.950 . S
H889 C901 0.950 . S
H890 C898 0.950 . S
H891 C900 0.950 . S
H892 C902 0.950 . S
H893 C904 0.950 . S
H894 C906 0.950 . S
H895 C907 0.950 . S
C896 H888 0.950 . S
C896 C897 1.386 . S
C896 C898 1.391 . S
C897 C896 1.386 . S
C897 C901 1.393 . S
C898 H890 0.950 . S
C898 C896 1.391 . S
C898 C899 1.400 . S
C899 C898 1.400 . S
C899 C900 1.398 . S
C899 C905 1.491 . S
C900 H891 0.950 . S
C900 C899 1.398 . S
C900 C901 1.391 . S
C901 H889 0.950 . S
C901 C897 1.393 . S
C901 C900 1.391 . S
C902 H892 0.950 . S
C902 C903 1.386 . S
C902 C904 1.391 . S
C903 C902 1.386 . S
C903 C907 1.393 . S
C904 H893 0.950 . S
C904 C902 1.391 . S
C904 C905 1.400 . S
C905 C899 1.491 . S
C905 C904 1.400 . S
C905 C906 1.398 . S
C906 H894 0.950 . S
C906 C905 1.398 . S
C906 C907 1.391 . S
C907 H895 0.950 . S
C907 C903 1.393 . S
C907 C906 1.391 . S
H908 C916 0.950 . S
H909 C921 0.950 . S
H910 C918 0.950 . S
H911 C920 0.950 . S
H912 C922 0.950 . S
H913 C924 0.950 . S
H914 C926 0.950 . S
H915 C927 0.950 . S
C916 H908 0.950 . S
C916 C917 1.386 . S
C916 C918 1.391 . S
C917 C916 1.386 . S
C917 C921 1.393 . S
C918 H910 0.950 . S
C918 C916 1.391 . S
C918 C919 1.400 . S
C919 C918 1.400 . S
C919 C920 1.398 . S
C919 C925 1.491 . S
C920 H911 0.950 . S
C920 C919 1.398 . S
C920 C921 1.391 . S
C921 H909 0.950 . S
C921 C917 1.393 . S
C921 C920 1.391 . S
C922 H912 0.950 . S
C922 C923 1.386 . S
C922 C924 1.391 . S
C923 C922 1.386 . S
C923 C927 1.393 . S
C924 H913 0.950 . S
C924 C922 1.391 . S
C924 C925 1.400 . S
C925 C919 1.491 . S
C925 C924 1.400 . S
C925 C926 1.398 . S
C926 H914 0.950 . S
C926 C925 1.398 . S
C926 C927 1.391 . S
C927 H915 0.950 . S
C927 C923 1.393 . S
C927 C926 1.391 . S
H928 C936 0.950 . S
H929 C941 0.950 . S
H930 C938 0.950 . S
H931 C940 0.950 . S
H932 C942 0.950 . S
H933 C944 0.950 . S
H934 C946 0.950 . S
H935 C947 0.950 . S
C936 H928 0.950 . S
C936 C937 1.386 . S
C936 C938 1.391 . S
C937 C936 1.386 . S
C937 C941 1.393 . S
C938 H930 0.950 . S
C938 C936 1.391 . S
C938 C939 1.400 . S
C939 C938 1.400 . S
C939 C940 1.398 . S
C939 C945 1.491 . S
C940 H931 0.950 . S
C940 C939 1.398 . S
C940 C941 1.391 . S
C941 H929 0.950 . S
C941 C937 1.393 . S
C941 C940 1.391 . S
C942 H932 0.950 . S
C942 C943 1.386 . S
C942 C944 1.391 . S
C943 C942 1.386 . S
C943 C947 1.393 . S
C944 H933 0.950 . S
C944 C942 1.391 . S
C944 C945 1.400 . S
C945 C939 1.491 . S
C945 C944 1.400 . S
C945 C946 1.398 . S
C946 H934 0.950 . S
C946 C945 1.398 . S
C946 C947 1.391 . S
C947 H935 0.950 . S
C947 C943 1.393 . S
C947 C946 1.391 . S
H948 C956 0.950 . S
H949 C961 0.950 . S
H950 C958 0.950 . S
H951 C960 0.950 . S
H952 C962 0.950 . S
H953 C964 0.950 . S
H954 C966 0.950 . S
H955 C967 0.950 . S
C956 H948 0.950 . S
C956 C957 1.386 . S
C956 C958 1.391 . S
C957 C956 1.386 . S
C957 C961 1.393 . S
C958 H950 0.950 . S
C958 C956 1.391 . S
C958 C959 1.400 . S
C959 C958 1.400 . S
C959 C960 1.398 . S
C959 C965 1.491 . S
C960 H951 0.950 . S
C960 C959 1.398 . S
C960 C961 1.391 . S
C961 H949 0.950 . S
C961 C957 1.393 . S
C961 C960 1.391 . S
C962 H952 0.950 . S
C962 C963 1.386 . S
C962 C964 1.391 . S
C963 C962 1.386 . S
C963 C967 1.393 . S
C964 H953 0.950 . S
C964 C962 1.391 . S
C964 C965 1.400 . S
C965 C959 1.491 . S
C965 C964 1.400 . S
C965 C966 1.398 . S
C966 H954 0.950 . S
C966 C965 1.398 . S
C966 C967 1.391 . S
C967 H955 0.950 . S
C967 C963 1.393 . S
C967 C966 1.391 . S
H968 C976 0.950 . S
H969 C981 0.950 . S
H970 C978 0.950 . S
H971 C980 0.950 . S
H972 C982 0.950 . S
H973 C984 0.950 . S
H974 C986 0.950 . S
H975 C987 0.950 . S
C976 H968 0.950 . S
C976 C977 1.386 . S
C976 C978 1.391 . S
C977 C976 1.386 . S
C977 C981 1.393 . S
C978 H970 0.950 . S
C978 C976 1.391 . S
C978 C979 1.400 . S
C979 C978 1.400 . S
C979 C980 1.398 . S
C979 C985 1.491 . S
C980 H971 0.950 . S
C980 C979 1.398 . S
C980 C981 1.391 . S
C981 H969 0.950 . S
C981 C977 1.393 . S
C981 C980 1.391 . S
C982 H972 0.950 . S
C982 C983 1.386 . S
C982 C984 1.391 . S
C983 C982 1.386 . S
C983 C987 1.393 . S
C984 H973 0.950 . S
C984 C982 1.391 . S
C984 C985 1.400 . S
C985 C979 1.491 . S
C985 C984 1.400 . S
C985 C986 1.398 . S
C986 H974 0.950 . S
C986 C985 1.398 . S
C986 C987 1.391 . S
C987 H975 0.950 . S
C987 C983 1.393 . S
C987 C986 1.391 . S
H988 C996 0.950 . S
H989 C1001 0.950 . S
H990 C998 0.950 . S
H991 C1000 0.950 . S
H992 C1002 0.950 . S
H993 C1004 0.950 . S
H994 C1006 0.950 . S
H995 C1007 0.950 . S
C996 H988 0.950 . S
C996 C997 1.386 . S
C996 C998 1.391 . S
C997 C996 1.386 . S
C997 C1001 1.393 . S
C998 H990 0.950 . S
C998 C996 1.391 . S
C998 C999 1.400 . S
C999 C998 1.400 . S
C999 C1000 1.398 . S
C999 C1005 1.491 . S
C1000 H991 0.950 . S
C1000 C999 1.398 . S
C1000 C1001 1.391 . S
C1001 H989 0.950 . S
C1001 C997 1.393 . S
C1001 C1000 1.391 . S
C1002 H992 0.950 . S
C1002 C1003 1.386 . S
C1002 C1004 1.391 . S
C1003 C1002 1.386 . S
C1003 C1007 1.393 . S
C1004 H993 0.950 . S
C1004 C1002 1.391 . S
C1004 C1005 1.400 . S
C1005 C999 1.491 . S
C1005 C1004 1.400 . S
C1005 C1006 1.398 . S
C1006 H994 0.950 . S
C1006 C1005 1.398 . S
C1006 C1007 1.391 . S
C1007 H995 0.950 . S
C1007 C1003 1.393 . S
C1007 C1006 1.391 . S
H1008 C1016 0.950 . S
H1009 C1021 0.950 . S
H1010 C1018 0.950 . S
H1011 C1020 0.950 . S
H1012 C1022 0.950 . S
H1013 C1024 0.950 . S
H1014 C1026 0.950 . S
H1015 C1027 0.950 . S
C1016 H1008 0.950 . S
C1016 C1017 1.386 . S
C1016 C1018 1.391 . S
C1017 C1016 1.386 . S
C1017 C1021 1.393 . S
C1018 H1010 0.950 . S
C1018 C1016 1.391 . S
C1018 C1019 1.400 . S
C1019 C1018 1.400 . S
C1019 C1020 1.398 . S
C1019 C1025 1.491 . S
C1020 H1011 0.950 . S
C1020 C1019 1.398 . S
C1020 C1021 1.391 . S
C1021 H1009 0.950 . S
C1021 C1017 1.393 . S
C1021 C1020 1.391 . S
C1022 H1012 0.950 . S
C1022 C1023 1.386 . S
C1022 C1024 1.391 . S
C1023 C1022 1.386 . S
C1023 C1027 1.393 . S
C1024 H1013 0.950 . S
C1024 C1022 1.391 . S
C1024 C1025 1.400 . S
C1025 C1019 1.491 . S
C1025 C1024 1.400 . S
C1025 C1026 1.398 . S
C1026 H1014 0.950 . S
C1026 C1025 1.398 . S
C1026 C1027 1.391 . S
C1027 H1015 0.950 . S
C1027 C1023 1.393 . S
C1027 C1026 1.391 . S
H1028 C1036 0.950 . S
H1029 C1041 0.950 . S
H1030 C1038 0.950 . S
H1031 C1040 0.950 . S
H1032 C1042 0.950 . S
H1033 C1044 0.950 . S
H1034 C1046 0.950 . S
H1035 C1047 0.950 . S
C1036 H1028 0.950 . S
C1036 C1037 1.386 . S
C1036 C1038 1.391 . S
C1037 C1036 1.386 . S
C1037 C1041 1.393 . S
C1038 H1030 0.950 . S
C1038 C1036 1.391 . S
C1038 C1039 1.400 . S
C1039 C1038 1.400 . S
C1039 C1040 1.398 . S
C1039 C1045 1.491 . S
C1040 H1031 0.950 . S
C1040 C1039 1.398 . S
C1040 C1041 1.391 . S
C1041 H1029 0.950 . S
C1041 C1037 1.393 . S
C1041 C1040 1.391 . S
C1042 H1032 0.950 . S
C1042 C1043 1.386 . S
C1042 C1044 1.391 . S
C1043 C1042 1.386 . S
C1043 C1047 1.393 . S
C1044 H1033 0.950 . S
C1044 C1042 1.391 . S
C1044 C1045 1.400 . S
C1045 C1039 1.491 . S
C1045 C1044 1.400 . S
C1045 C1046 1.398 . S
C1046 H1034 0.950 . S
C1046 C1045 1.398 . S
C1046 C1047 1.391 . S
C1047 H1035 0.950 . S
C1047 C1043 1.393 . S
C1047 C1046 1.391 . S
H1048 C1056 0.950 . S
H1049 C1061 0.950 . S
H1050 C1058 0.950 . S
H1051 C1060 0.950 . S
H1052 C1062 0.950 . S
H1053 C1064 0.950 . S
H1054 C1066 0.950 . S
H1055 C1067 0.950 . S
C1056 H1048 0.950 . S
C1056 C1057 1.386 . S
C1056 C1058 1.391 . S
C1057 C1056 1.386 . S
C1057 C1061 1.393 . S
C1058 H1050 0.950 . S
C1058 C1056 1.391 . S
C1058 C1059 1.400 . S
C1059 C1058 1.400 . S
C1059 C1060 1.398 . S
C1059 C1065 1.491 . S
C1060 H1051 0.950 . S
C1060 C1059 1.398 . S
C1060 C1061 1.391 . S
C1061 H1049 0.950 . S
C1061 C1057 1.393 . S
C1061 C1060 1.391 . S
C1062 H1052 0.950 . S
C1062 C1063 1.386 . S
C1062 C1064 1.391 . S
C1063 C1062 1.386 . S
C1063 C1067 1.393 . S
C1064 H1053 0.950 . S
C1064 C1062 1.391 . S
C1064 C1065 1.400 . S
C1065 C1059 1.491 . S
C1065 C1064 1.400 . S
C1065 C1066 1.398 . S
C1066 H1054 0.950 . S
C1066 C1065 1.398 . S
C1066 C1067 1.391 . S
C1067 H1055 0.950 . S
C1067 C1063 1.393 . S
C1067 C1066 1.391 . S
H1068 C1076 0.950 . S
H1069 C1081 0.950 . S
H1070 C1078 0.950 . S
H1071 C1080 0.950 . S
H1072 C1082 0.950 . S
H1073 C1084 0.950 . S
H1074 C1086 0.950 . S
H1075 C1087 0.950 . S
C1076 H1068 0.950 . S
C1076 C1077 1.386 . S
C1076 C1078 1.391 1_655 S
C1077 C1076 1.386 . S
C1077 C1081 1.393 . S
C1078 H1070 0.950 . S
C1078 C1076 1.391 1_455 S
C1078 C1079 1.400 1_455 S
C1079 C1078 1.400 1_655 S
C1079 C1080 1.398 . S
C1079 C1085 1.491 1_655 S
C1080 H1071 0.950 . S
C1080 C1079 1.398 . S
C1080 C1081 1.391 . S
C1081 H1069 0.950 . S
C1081 C1077 1.393 . S
C1081 C1080 1.391 . S
C1082 H1072 0.950 . S
C1082 C1083 1.386 . S
C1082 C1084 1.391 1_455 S
C1083 C1082 1.386 . S
C1083 C1087 1.393 . S
C1084 H1073 0.950 . S
C1084 C1082 1.391 1_655 S
C1084 C1085 1.400 1_655 S
C1085 C1079 1.491 1_455 S
C1085 C1084 1.400 1_455 S
C1085 C1086 1.398 . S
C1086 H1074 0.950 . S
C1086 C1085 1.398 . S
C1086 C1087 1.391 . S
C1087 H1075 0.950 . S
C1087 C1083 1.393 . S
C1087 C1086 1.391 . S
H1088 C1096 0.950 . S
H1089 C1101 0.950 . S
H1090 C1098 0.950 . S
H1091 C1100 0.950 . S
H1092 C1102 0.950 . S
H1093 C1104 0.950 . S
H1094 C1106 0.950 . S
H1095 C1107 0.950 . S
C1096 H1088 0.950 . S
C1096 C1097 1.386 . S
C1096 C1098 1.391 . S
C1097 C1096 1.386 . S
C1097 C1101 1.393 . S
C1098 H1090 0.950 . S
C1098 C1096 1.391 . S
C1098 C1099 1.400 . S
C1099 C1098 1.400 . S
C1099 C1100 1.398 . S
C1099 C1105 1.491 . S
C1100 H1091 0.950 . S
C1100 C1099 1.398 . S
C1100 C1101 1.391 . S
C1101 H1089 0.950 . S
C1101 C1097 1.393 . S
C1101 C1100 1.391 . S
C1102 H1092 0.950 . S
C1102 C1103 1.386 . S
C1102 C1104 1.391 . S
C1103 C1102 1.386 . S
C1103 C1107 1.393 . S
C1104 H1093 0.950 . S
C1104 C1102 1.391 . S
C1104 C1105 1.400 . S
C1105 C1099 1.491 . S
C1105 C1104 1.400 . S
C1105 C1106 1.398 . S
C1106 H1094 0.950 . S
C1106 C1105 1.398 . S
C1106 C1107 1.391 . S
C1107 H1095 0.950 . S
C1107 C1103 1.393 . S
C1107 C1106 1.391 . S
H1108 C1116 0.950 . S
H1109 C1121 0.950 . S
H1110 C1118 0.950 1_565 S
H1111 C1120 0.950 . S
H1112 C1122 0.934 1_545 S
H1113 C1124 0.950 . S
H1114 C1126 0.950 . S
H1115 C1127 0.950 . S
C1116 H1108 0.950 . S
C1116 C1117 1.386 . S
C1116 C1118 1.391 . S
C1117 C1116 1.386 . S
C1117 C1121 1.393 . S
C1118 H1110 0.950 1_545 S
C1118 C1116 1.391 . S
C1118 C1119 1.400 . S
C1119 C1118 1.400 . S
C1119 C1120 1.398 . S
C1119 C1125 1.491 . S
C1120 H1111 0.950 . S
C1120 C1119 1.398 . S
C1120 C1121 1.391 . S
C1121 H1109 0.950 . S
C1121 C1117 1.393 . S
C1121 C1120 1.391 . S
C1122 H1112 0.934 1_565 S
C1122 C1123 1.386 . S
C1122 C1124 1.391 1_565 S
C1123 C1122 1.386 . S
C1123 C1127 1.393 . S
C1124 H1113 0.950 . S
C1124 C1122 1.391 1_545 S
C1124 C1125 1.400 . S
C1125 C1119 1.491 . S
C1125 C1124 1.400 . S
C1125 C1126 1.398 1_545 S
C1126 H1114 0.950 . S
C1126 C1125 1.398 1_565 S
C1126 C1127 1.391 . S
C1127 H1115 0.950 . S
C1127 C1123 1.393 . S
C1127 C1126 1.391 . S
H1128 C1136 0.950 . S
H1129 C1141 0.950 1_565 S
H1130 C1138 0.950 1_554 S
H1131 C1140 0.950 . S
H1132 C1142 0.950 . S
H1133 C1144 0.950 . S
H1134 C1146 0.950 1_545 S
H1135 C1147 0.950 . S
C1136 H1128 0.950 . S
C1136 C1137 1.386 . S
C1136 C1138 1.391 . S
C1137 C1136 1.386 . S
C1137 C1141 1.393 . S
C1138 H1130 0.950 1_556 S
C1138 C1136 1.391 . S
C1138 C1139 1.397 1_546 S
C1139 C1138 1.397 1_564 S
C1139 C1140 1.390 1_554 S
C1139 C1145 1.502 . S
C1140 H1131 0.950 . S
C1140 C1139 1.390 1_556 S
C1140 C1141 1.391 1_565 S
C1141 H1129 0.950 1_545 S
C1141 C1137 1.393 . S
C1141 C1140 1.391 1_545 S
C1142 H1132 0.950 . S
C1142 C1143 1.386 . S
C1142 C1144 1.391 . S
C1143 C1142 1.386 . S
C1143 C1147 1.393 . S
C1144 H1133 0.950 . S
C1144 C1142 1.391 . S
C1144 C1145 1.400 . S
C1145 C1139 1.502 . S
C1145 C1144 1.400 . S
C1145 C1146 1.398 . S
C1146 H1134 0.950 1_565 S
C1146 C1145 1.398 . S
C1146 C1147 1.391 . S
C1147 H1135 0.950 . S
C1147 C1143 1.393 . S
C1147 C1146 1.391 . S
H1148 C1156 0.950 . S
H1149 C1161 0.950 . S
H1150 C1158 0.950 . S
H1151 C1160 0.950 . S
H1152 C1162 0.950 . S
H1153 C1164 0.950 . S
H1154 C1166 0.950 1_556 S
H1155 C1167 0.950 . S
C1156 H1148 0.950 . S
C1156 C1157 1.386 . S
C1156 C1158 1.391 1_655 S
C1157 C1156 1.386 . S
C1157 C1161 1.393 1_556 S
C1158 H1150 0.950 . S
C1158 C1156 1.391 1_455 S
C1158 C1159 1.400 1_556 S
C1159 C1158 1.400 1_554 S
C1159 C1160 1.398 1_455 S
C1159 C1165 1.491 . S
C1160 H1151 0.950 . S
C1160 C1159 1.398 1_655 S
C1160 C1161 1.391 . S
C1161 H1149 0.950 . S
C1161 C1157 1.393 1_554 S
C1161 C1160 1.391 . S
C1162 H1152 0.950 . S
C1162 C1163 1.386 . S
C1162 C1164 1.391 . S
C1163 C1162 1.386 . S
C1163 C1167 1.393 . S
C1164 H1153 0.950 . S
C1164 C1162 1.391 . S
C1164 C1165 1.400 . S
C1165 C1159 1.491 . S
C1165 C1164 1.400 . S
C1165 C1166 1.398 . S
C1166 H1154 0.950 1_554 S
C1166 C1165 1.398 . S
C1166 C1167 1.391 . S
C1167 H1155 0.950 . S
C1167 C1163 1.393 . S
C1167 C1166 1.391 . S
H1168 C1176 0.950 . S
H1169 C1181 0.950 . S
H1170 C1178 0.950 . S
H1171 C1180 0.950 . S
H1172 C1182 0.950 . S
H1173 C1184 0.950 . S
H1174 C1186 0.950 . S
H1175 C1187 0.950 . S
C1176 H1168 0.950 . S
C1176 C1177 1.386 . S
C1176 C1178 1.391 . S
C1177 C1176 1.386 . S
C1177 C1181 1.393 . S
C1178 H1170 0.950 . S
C1178 C1176 1.391 . S
C1178 C1179 1.400 . S
C1179 C1178 1.400 . S
C1179 C1180 1.398 . S
C1179 C1185 1.491 1_556 S
C1180 H1171 0.950 . S
C1180 C1179 1.398 . S
C1180 C1181 1.391 . S
C1181 H1169 0.950 . S
C1181 C1177 1.393 . S
C1181 C1180 1.391 . S
C1182 H1172 0.950 . S
C1182 C1183 1.386 . S
C1182 C1184 1.391 . S
C1183 C1182 1.386 . S
C1183 C1187 1.393 . S
C1184 H1173 0.950 . S
C1184 C1182 1.391 . S
C1184 C1185 1.400 . S
C1185 C1179 1.491 1_554 S
C1185 C1184 1.400 . S
C1185 C1186 1.398 . S
C1186 H1174 0.950 . S
C1186 C1185 1.398 . S
C1186 C1187 1.391 . S
C1187 H1175 0.950 . S
C1187 C1183 1.393 . S
C1187 C1186 1.391 . S
H1188 C1196 0.950 . S
H1189 C1201 0.950 . S
H1190 C1198 0.950 . S
H1191 C1200 0.950 . S
H1192 C1202 0.950 . S
H1193 C1204 0.950 . S
H1194 C1206 0.950 . S
H1195 C1207 0.950 . S
C1196 H1188 0.950 . S
C1196 C1197 1.386 . S
C1196 C1198 1.391 . S
C1197 C1196 1.386 . S
C1197 C1201 1.393 . S
C1198 H1190 0.950 . S
C1198 C1196 1.391 . S
C1198 C1199 1.400 . S
C1199 C1198 1.400 . S
C1199 C1200 1.398 . S
C1199 C1205 1.491 . S
C1200 H1191 0.950 . S
C1200 C1199 1.398 . S
C1200 C1201 1.391 . S
C1201 H1189 0.950 . S
C1201 C1197 1.393 . S
C1201 C1200 1.391 . S
C1202 H1192 0.950 . S
C1202 C1203 1.386 . S
C1202 C1204 1.391 1_554 S
C1203 C1202 1.386 . S
C1203 C1207 1.393 . S
C1204 H1193 0.950 . S
C1204 C1202 1.391 1_556 S
C1204 C1205 1.400 . S
C1205 C1199 1.491 . S
C1205 C1204 1.400 . S
C1205 C1206 1.398 1_556 S
C1206 H1194 0.950 . S
C1206 C1205 1.398 1_554 S
C1206 C1207 1.391 . S
C1207 H1195 0.950 . S
C1207 C1203 1.393 . S
C1207 C1206 1.391 . S
H1208 C1216 0.950 . S
H1209 C1221 0.950 . S
H1210 C1218 0.950 . S
H1211 C1220 0.950 . S
H1212 C1222 0.950 . S
H1213 C1224 0.950 . S
H1214 C1226 0.950 . S
H1215 C1227 0.950 . S
C1216 H1208 0.950 . S
C1216 C1217 1.386 . S
C1216 C1218 1.391 . S
C1217 C1216 1.386 . S
C1217 C1221 1.393 . S
C1218 H1210 0.950 . S
C1218 C1216 1.391 . S
C1218 C1219 1.400 . S
C1219 C1218 1.400 . S
C1219 C1220 1.398 . S
C1219 C1225 1.491 1_556 S
C1220 H1211 0.950 . S
C1220 C1219 1.398 . S
C1220 C1221 1.391 . S
C1221 H1209 0.950 . S
C1221 C1217 1.393 . S
C1221 C1220 1.391 . S
C1222 H1212 0.950 . S
C1222 C1223 1.386 . S
C1222 C1224 1.391 . S
C1223 C1222 1.386 . S
C1223 C1227 1.393 . S
C1224 H1213 0.950 . S
C1224 C1222 1.391 . S
C1224 C1225 1.400 . S
C1225 C1219 1.491 1_554 S
C1225 C1224 1.400 . S
C1225 C1226 1.398 . S
C1226 H1214 0.950 . S
C1226 C1225 1.398 . S
C1226 C1227 1.391 . S
C1227 H1215 0.950 . S
C1227 C1223 1.393 . S
C1227 C1226 1.391 . S
H1228 C1236 0.957 . S
H1229 C1241 0.950 . S
H1230 C1238 0.966 . S
H1231 C1240 0.950 . S
H1232 C1242 0.950 . S
H1233 C1244 0.950 . S
H1234 C1246 0.950 . S
H1235 C1247 0.950 . S
C1236 H1228 0.957 . S
C1236 C1237 1.386 . S
C1236 C1238 1.385 1_554 S
C1237 C1236 1.386 . S
C1237 C1241 1.393 . S
C1238 H1230 0.966 . S
C1238 C1236 1.385 1_556 S
C1238 C1239 1.391 1_556 S
C1239 C1238 1.391 1_554 S
C1239 C1240 1.398 . S
C1239 C1245 1.491 . S
C1240 H1231 0.950 . S
C1240 C1239 1.398 . S
C1240 C1241 1.391 . S
C1241 H1229 0.950 . S
C1241 C1237 1.393 . S
C1241 C1240 1.391 . S
C1242 H1232 0.950 . S
C1242 C1243 1.386 1_554 S
C1242 C1244 1.391 . S
C1243 C1242 1.386 1_556 S
C1243 C1247 1.393 . S
C1244 H1233 0.950 . S
C1244 C1242 1.391 . S
C1244 C1245 1.400 . S
C1245 C1239 1.491 . S
C1245 C1244 1.400 . S
C1245 C1246 1.398 1_554 S
C1246 H1234 0.950 . S
C1246 C1245 1.398 1_556 S
C1246 C1247 1.391 . S
C1247 H1235 0.950 . S
C1247 C1243 1.393 . S
C1247 C1246 1.391 . S
H1248 C1256 0.950 . S
H1249 C1261 0.950 . S
H1250 C1258 0.950 . S
H1251 C1260 0.950 . S
H1252 C1262 0.950 . S
H1253 C1264 0.950 . S
H1254 C1266 0.950 . S
H1255 C1267 0.950 . S
C1256 H1248 0.950 . S
C1256 C1257 1.386 . S
C1256 C1258 1.391 . S
C1257 C1256 1.386 . S
C1257 C1261 1.393 . S
C1258 H1250 0.950 . S
C1258 C1256 1.391 . S
C1258 C1259 1.400 . S
C1259 C1258 1.400 . S
C1259 C1260 1.398 . S
C1259 C1265 1.491 . S
C1260 H1251 0.950 . S
C1260 C1259 1.398 . S
C1260 C1261 1.391 . S
C1261 H1249 0.950 . S
C1261 C1257 1.393 . S
C1261 C1260 1.391 . S
C1262 H1252 0.950 . S
C1262 C1263 1.386 . S
C1262 C1264 1.391 . S
C1263 C1262 1.386 . S
C1263 C1267 1.393 . S
C1264 H1253 0.950 . S
C1264 C1262 1.391 . S
C1264 C1265 1.400 . S
C1265 C1259 1.491 . S
C1265 C1264 1.400 . S
C1265 C1266 1.398 . S
C1266 H1254 0.950 . S
C1266 C1265 1.398 . S
C1266 C1267 1.391 . S
C1267 H1255 0.950 . S
C1267 C1263 1.393 . S
C1267 C1266 1.391 . S
H1268 C1276 0.950 . S
H1269 C1281 0.950 . S
H1270 C1278 0.950 . S
H1271 C1280 0.950 . S
H1272 C1282 0.950 . S
H1273 C1284 0.950 . S
H1274 C1286 0.950 . S
H1275 C1287 0.950 . S
C1276 H1268 0.950 . S
C1276 C1277 1.386 . S
C1276 C1278 1.391 . S
C1277 C1276 1.386 . S
C1277 C1281 1.393 . S
C1278 H1270 0.950 . S
C1278 C1276 1.391 . S
C1278 C1279 1.400 . S
C1279 C1278 1.400 . S
C1279 C1280 1.398 . S
C1279 C1285 1.491 . S
C1280 H1271 0.950 . S
C1280 C1279 1.398 . S
C1280 C1281 1.391 . S
C1281 H1269 0.950 . S
C1281 C1277 1.393 . S
C1281 C1280 1.391 . S
C1282 H1272 0.950 . S
C1282 C1283 1.386 . S
C1282 C1284 1.391 . S
C1283 C1282 1.386 . S
C1283 C1287 1.393 . S
C1284 H1273 0.950 . S
C1284 C1282 1.391 . S
C1284 C1285 1.400 . S
C1285 C1279 1.491 . S
C1285 C1284 1.400 . S
C1285 C1286 1.398 . S
C1286 H1274 0.950 . S
C1286 C1285 1.398 . S
C1286 C1287 1.391 . S
C1287 H1275 0.950 . S
C1287 C1283 1.393 . S
C1287 C1286 1.391 . S
H1288 C1296 0.950 . S
H1289 C1301 0.950 . S
H1290 C1298 0.950 . S
H1291 C1300 0.950 . S
H1292 C1302 0.950 . S
H1293 C1304 0.950 . S
H1294 C1306 0.950 . S
H1295 C1307 0.950 . S
C1296 H1288 0.950 . S
C1296 C1297 1.386 . S
C1296 C1298 1.391 . S
C1297 C1296 1.386 . S
C1297 C1301 1.393 . S
C1298 H1290 0.950 . S
C1298 C1296 1.391 . S
C1298 C1299 1.400 . S
C1299 C1298 1.400 . S
C1299 C1300 1.398 . S
C1299 C1305 1.491 . S
C1300 H1291 0.950 . S
C1300 C1299 1.398 . S
C1300 C1301 1.391 . S
C1301 H1289 0.950 . S
C1301 C1297 1.393 . S
C1301 C1300 1.391 . S
C1302 H1292 0.950 . S
C1302 C1303 1.386 . S
C1302 C1304 1.391 . S
C1303 C1302 1.386 . S
C1303 C1307 1.393 . S
C1304 H1293 0.950 . S
C1304 C1302 1.391 . S
C1304 C1305 1.400 . S
C1305 C1299 1.491 . S
C1305 C1304 1.400 . S
C1305 C1306 1.398 . S
C1306 H1294 0.950 . S
C1306 C1305 1.398 . S
C1306 C1307 1.391 . S
C1307 H1295 0.950 . S
C1307 C1303 1.393 . S
C1307 C1306 1.391 . S
H1308 C1316 0.950 . S
H1309 C1321 0.950 . S
H1310 C1318 0.950 . S
H1311 C1320 0.950 1_554 S
H1312 C1322 0.950 . S
H1313 C1324 0.950 . S
H1314 C1326 0.950 . S
H1315 C1327 0.950 . S
C1316 H1308 0.950 . S
C1316 C1317 1.386 . S
C1316 C1318 1.391 . S
C1317 C1316 1.386 . S
C1317 C1321 1.393 . S
C1318 H1310 0.950 . S
C1318 C1316 1.391 . S
C1318 C1319 1.400 . S
C1319 C1318 1.400 . S
C1319 C1320 1.398 . S
C1319 C1325 1.491 1_556 S
C1320 H1311 0.950 1_556 S
C1320 C1319 1.398 . S
C1320 C1321 1.391 . S
C1321 H1309 0.950 . S
C1321 C1317 1.393 . S
C1321 C1320 1.391 . S
C1322 H1312 0.950 . S
C1322 C1323 1.386 . S
C1322 C1324 1.391 . S
C1323 C1322 1.386 . S
C1323 C1327 1.393 . S
C1324 H1313 0.950 . S
C1324 C1322 1.391 . S
C1324 C1325 1.400 . S
C1325 C1319 1.491 1_554 S
C1325 C1324 1.400 . S
C1325 C1326 1.398 . S
C1326 H1314 0.950 . S
C1326 C1325 1.398 . S
C1326 C1327 1.391 . S
C1327 H1315 0.950 . S
C1327 C1323 1.393 . S
C1327 C1326 1.391 . S
H1328 C1336 0.950 . S
H1329 C1341 0.950 . S
H1330 C1338 0.950 1_554 S
H1331 C1340 0.950 . S
H1332 C1342 0.950 . S
H1333 C1344 0.950 . S
H1334 C1346 0.950 . S
H1335 C1347 0.950 . S
C1336 H1328 0.950 . S
C1336 C1337 1.386 . S
C1336 C1338 1.391 . S
C1337 C1336 1.386 . S
C1337 C1341 1.393 . S
C1338 H1330 0.950 1_556 S
C1338 C1336 1.391 . S
C1338 C1339 1.400 . S
C1339 C1338 1.400 . S
C1339 C1340 1.398 . S
C1339 C1345 1.491 . S
C1340 H1331 0.950 . S
C1340 C1339 1.398 . S
C1340 C1341 1.391 . S
C1341 H1329 0.950 . S
C1341 C1337 1.393 . S
C1341 C1340 1.391 . S
C1342 H1332 0.950 . S
C1342 C1343 1.386 1_556 S
C1342 C1344 1.391 . S
C1343 C1342 1.386 1_554 S
C1343 C1347 1.393 . S
C1344 H1333 0.950 . S
C1344 C1342 1.391 . S
C1344 C1345 1.400 . S
C1345 C1339 1.491 . S
C1345 C1344 1.400 . S
C1345 C1346 1.398 1_556 S
C1346 H1334 0.950 . S
C1346 C1345 1.398 1_554 S
C1346 C1347 1.391 . S
C1347 H1335 0.950 . S
C1347 C1343 1.393 . S
C1347 C1346 1.391 . S
H1348 C1356 0.950 . S
H1349 C1361 0.950 . S
H1350 C1358 0.942 1_554 S
H1351 C1360 0.950 . S
H1352 C1362 0.950 . S
H1353 C1364 0.950 . S
H1354 C1366 0.950 . S
H1355 C1367 0.950 . S
C1356 H1348 0.950 . S
C1356 C1357 1.386 . S
C1356 C1358 1.391 . S
C1357 C1356 1.386 . S
C1357 C1361 1.393 . S
C1358 H1350 0.942 1_556 S
C1358 C1356 1.391 . S
C1358 C1359 1.400 . S
C1359 C1358 1.400 . S
C1359 C1360 1.398 . S
C1359 C1365 1.491 . S
C1360 H1351 0.950 . S
C1360 C1359 1.398 . S
C1360 C1361 1.391 . S
C1361 H1349 0.950 . S
C1361 C1357 1.393 . S
C1361 C1360 1.391 . S
C1362 H1352 0.950 . S
C1362 C1363 1.386 1_556 S
C1362 C1364 1.391 . S
C1363 C1362 1.386 1_554 S
C1363 C1367 1.393 . S
C1364 H1353 0.950 . S
C1364 C1362 1.391 . S
C1364 C1365 1.400 . S
C1365 C1359 1.491 . S
C1365 C1364 1.400 . S
C1365 C1366 1.398 1_556 S
C1366 H1354 0.950 . S
C1366 C1365 1.398 1_554 S
C1366 C1367 1.391 . S
C1367 H1355 0.950 . S
C1367 C1363 1.393 . S
C1367 C1366 1.391 . S
H1368 C1376 0.950 . S
H1369 C1381 0.950 . S
H1370 C1378 0.950 . S
H1371 C1380 0.950 . S
H1372 C1382 0.950 . S
H1373 C1384 0.950 . S
H1374 C1386 0.950 . S
H1375 C1387 0.950 . S
C1376 H1368 0.950 . S
C1376 C1377 1.386 . S
C1376 C1378 1.391 . S
C1377 C1376 1.386 . S
C1377 C1381 1.393 . S
C1378 H1370 0.950 . S
C1378 C1376 1.391 . S
C1378 C1379 1.400 . S
C1379 C1378 1.400 . S
C1379 C1380 1.398 . S
C1379 C1385 1.491 . S
C1380 H1371 0.950 . S
C1380 C1379 1.398 . S
C1380 C1381 1.391 . S
C1381 H1369 0.950 . S
C1381 C1377 1.393 . S
C1381 C1380 1.391 . S
C1382 H1372 0.950 . S
C1382 C1383 1.386 . S
C1382 C1384 1.391 . S
C1383 C1382 1.386 . S
C1383 C1387 1.393 . S
C1384 H1373 0.950 . S
C1384 C1382 1.391 . S
C1384 C1385 1.400 . S
C1385 C1379 1.491 . S
C1385 C1384 1.400 . S
C1385 C1386 1.398 . S
C1386 H1374 0.950 . S
C1386 C1385 1.398 . S
C1386 C1387 1.391 . S
C1387 H1375 0.950 . S
C1387 C1383 1.393 . S
C1387 C1386 1.391 . S
H1388 C1396 0.950 . S
H1389 C1401 0.950 . S
H1390 C1398 0.950 . S
H1391 C1400 0.950 . S
H1392 C1402 0.950 . S
H1393 C1404 0.950 . S
H1394 C1406 0.950 . S
H1395 C1407 0.950 . S
C1396 H1388 0.950 . S
C1396 C1397 1.386 . S
C1396 C1398 1.391 . S
C1397 C1396 1.386 . S
C1397 C1401 1.393 . S
C1398 H1390 0.950 . S
C1398 C1396 1.391 . S
C1398 C1399 1.400 . S
C1399 C1398 1.400 . S
C1399 C1400 1.398 . S
C1399 C1405 1.491 . S
C1400 H1391 0.950 . S
C1400 C1399 1.398 . S
C1400 C1401 1.391 . S
C1401 H1389 0.950 . S
C1401 C1397 1.393 . S
C1401 C1400 1.391 . S
C1402 H1392 0.950 . S
C1402 C1403 1.386 . S
C1402 C1404 1.391 . S
C1403 C1402 1.386 . S
C1403 C1407 1.393 . S
C1404 H1393 0.950 . S
C1404 C1402 1.391 . S
C1404 C1405 1.400 . S
C1405 C1399 1.491 . S
C1405 C1404 1.400 . S
C1405 C1406 1.398 . S
C1406 H1394 0.950 . S
C1406 C1405 1.398 . S
C1406 C1407 1.391 . S
C1407 H1395 0.950 . S
C1407 C1403 1.393 . S
C1407 C1406 1.391 . S
H1408 C1416 0.950 . S
H1409 C1421 0.950 . S
H1410 C1418 0.950 . S
H1411 C1420 0.950 . S
H1412 C1422 0.950 . S
H1413 C1424 0.950 . S
H1414 C1426 0.950 . S
H1415 C1427 0.950 . S
C1416 H1408 0.950 . S
C1416 C1417 1.386 . S
C1416 C1418 1.391 . S
C1417 C1416 1.386 . S
C1417 C1421 1.393 . S
C1418 H1410 0.950 . S
C1418 C1416 1.391 . S
C1418 C1419 1.400 . S
C1419 C1418 1.400 . S
C1419 C1420 1.398 . S
C1419 C1425 1.491 . S
C1420 H1411 0.950 . S
C1420 C1419 1.398 . S
C1420 C1421 1.391 . S
C1421 H1409 0.950 . S
C1421 C1417 1.393 . S
C1421 C1420 1.391 . S
C1422 H1412 0.950 . S
C1422 C1423 1.386 . S
C1422 C1424 1.391 . S
C1423 C1422 1.386 . S
C1423 C1427 1.393 . S
C1424 H1413 0.950 . S
C1424 C1422 1.391 . S
C1424 C1425 1.400 . S
C1425 C1419 1.491 . S
C1425 C1424 1.400 . S
C1425 C1426 1.398 . S
C1426 H1414 0.950 . S
C1426 C1425 1.398 . S
C1426 C1427 1.391 . S
C1427 H1415 0.950 . S
C1427 C1423 1.393 . S
C1427 C1426 1.391 . S
H1428 C1436 0.950 . S
H1429 C1441 0.950 . S
H1430 C1438 0.950 . S
H1431 C1440 0.950 . S
H1432 C1442 0.950 . S
H1433 C1444 0.950 . S
H1434 C1446 0.950 . S
H1435 C1447 0.950 . S
C1436 H1428 0.950 . S
C1436 C1437 1.386 . S
C1436 C1438 1.391 . S
C1437 C1436 1.386 . S
C1437 C1441 1.393 . S
C1438 H1430 0.950 . S
C1438 C1436 1.391 . S
C1438 C1439 1.400 . S
C1439 C1438 1.400 . S
C1439 C1440 1.398 . S
C1439 C1445 1.491 . S
C1440 H1431 0.950 . S
C1440 C1439 1.398 . S
C1440 C1441 1.391 . S
C1441 H1429 0.950 . S
C1441 C1437 1.393 . S
C1441 C1440 1.391 . S
C1442 H1432 0.950 . S
C1442 C1443 1.386 . S
C1442 C1444 1.391 . S
C1443 C1442 1.386 . S
C1443 C1447 1.393 . S
C1444 H1433 0.950 . S
C1444 C1442 1.391 . S
C1444 C1445 1.400 . S
C1445 C1439 1.491 . S
C1445 C1444 1.400 . S
C1445 C1446 1.398 . S
C1446 H1434 0.950 . S
C1446 C1445 1.398 . S
C1446 C1447 1.391 . S
C1447 H1435 0.950 . S
C1447 C1443 1.393 . S
C1447 C1446 1.391 . S
H1448 C1456 0.950 . S
H1449 C1461 0.950 . S
H1450 C1458 0.950 . S
H1451 C1460 0.950 . S
H1452 C1462 0.950 . S
H1453 C1464 0.950 . S
H1454 C1466 0.950 . S
H1455 C1467 0.950 . S
C1456 H1448 0.950 . S
C1456 C1457 1.386 . S
C1456 C1458 1.391 . S
C1457 C1456 1.386 . S
C1457 C1461 1.393 . S
C1458 H1450 0.950 . S
C1458 C1456 1.391 . S
C1458 C1459 1.400 . S
C1459 C1458 1.400 . S
C1459 C1460 1.398 . S
C1459 C1465 1.491 . S
C1460 H1451 0.950 . S
C1460 C1459 1.398 . S
C1460 C1461 1.391 . S
C1461 H1449 0.950 . S
C1461 C1457 1.393 . S
C1461 C1460 1.391 . S
C1462 H1452 0.950 . S
C1462 C1463 1.386 . S
C1462 C1464 1.391 . S
C1463 C1462 1.386 . S
C1463 C1467 1.393 . S
C1464 H1453 0.950 . S
C1464 C1462 1.391 . S
C1464 C1465 1.400 . S
C1465 C1459 1.491 . S
C1465 C1464 1.400 . S
C1465 C1466 1.398 . S
C1466 H1454 0.950 . S
C1466 C1465 1.398 . S
C1466 C1467 1.391 . S
C1467 H1455 0.950 . S
C1467 C1463 1.393 . S
C1467 C1466 1.391 . S
H1468 C1476 0.950 . S
H1469 C1481 0.950 . S
H1470 C1478 0.950 . S
H1471 C1480 0.950 . S
H1472 C1482 0.950 . S
H1473 C1484 0.950 . S
H1474 C1486 0.950 . S
H1475 C1487 0.950 . S
C1476 H1468 0.950 . S
C1476 C1477 1.386 . S
C1476 C1478 1.391 . S
C1477 C1476 1.386 . S
C1477 C1481 1.393 . S
C1478 H1470 0.950 . S
C1478 C1476 1.391 . S
C1478 C1479 1.400 . S
C1479 C1478 1.400 . S
C1479 C1480 1.398 . S
C1479 C1485 1.491 . S
C1480 H1471 0.950 . S
C1480 C1479 1.398 . S
C1480 C1481 1.391 . S
C1481 H1469 0.950 . S
C1481 C1477 1.393 . S
C1481 C1480 1.391 . S
C1482 H1472 0.950 . S
C1482 C1483 1.386 . S
C1482 C1484 1.391 . S
C1483 C1482 1.386 . S
C1483 C1487 1.393 . S
C1484 H1473 0.950 . S
C1484 C1482 1.391 . S
C1484 C1485 1.400 . S
C1485 C1479 1.491 . S
C1485 C1484 1.400 . S
C1485 C1486 1.398 . S
C1486 H1474 0.950 . S
C1486 C1485 1.398 . S
C1486 C1487 1.391 . S
C1487 H1475 0.950 . S
C1487 C1483 1.393 . S
C1487 C1486 1.391 . S
H1488 C1496 0.950 . S
H1489 C1501 0.950 . S
H1490 C1498 0.950 . S
H1491 C1500 0.950 . S
H1492 C1502 0.950 . S
H1493 C1504 0.950 . S
H1494 C1506 0.950 . S
H1495 C1507 0.950 . S
C1496 H1488 0.950 . S
C1496 C1497 1.386 . S
C1496 C1498 1.391 . S
C1497 C1496 1.386 . S
C1497 C1501 1.393 . S
C1498 H1490 0.950 . S
C1498 C1496 1.391 . S
C1498 C1499 1.400 . S
C1499 C1498 1.400 . S
C1499 C1500 1.398 . S
C1499 C1505 1.491 . S
C1500 H1491 0.950 . S
C1500 C1499 1.398 . S
C1500 C1501 1.391 . S
C1501 H1489 0.950 . S
C1501 C1497 1.393 . S
C1501 C1500 1.391 . S
C1502 H1492 0.950 . S
C1502 C1503 1.386 . S
C1502 C1504 1.391 . S
C1503 C1502 1.386 . S
C1503 C1507 1.393 . S
C1504 H1493 0.950 . S
C1504 C1502 1.391 . S
C1504 C1505 1.400 . S
C1505 C1499 1.491 . S
C1505 C1504 1.400 . S
C1505 C1506 1.398 . S
C1506 H1494 0.950 . S
C1506 C1505 1.398 . S
C1506 C1507 1.391 . S
C1507 H1495 0.950 . S
C1507 C1503 1.393 . S
C1507 C1506 1.391 . S
H1508 C1516 0.950 . S
H1509 C1521 0.950 . S
H1510 C1518 0.950 . S
H1511 C1520 0.950 . S
H1512 C1522 0.950 . S
H1513 C1524 0.950 . S
H1514 C1526 0.950 . S
H1515 C1527 0.950 . S
C1516 H1508 0.950 . S
C1516 C1517 1.386 . S
C1516 C1518 1.391 . S
C1517 C1516 1.386 . S
C1517 C1521 1.393 . S
C1518 H1510 0.950 . S
C1518 C1516 1.391 . S
C1518 C1519 1.400 . S
C1519 C1518 1.400 . S
C1519 C1520 1.398 . S
C1519 C1525 1.491 . S
C1520 H1511 0.950 . S
C1520 C1519 1.398 . S
C1520 C1521 1.391 . S
C1521 H1509 0.950 . S
C1521 C1517 1.393 . S
C1521 C1520 1.391 . S
C1522 H1512 0.950 . S
C1522 C1523 1.386 . S
C1522 C1524 1.391 . S
C1523 C1522 1.386 . S
C1523 C1527 1.393 . S
C1524 H1513 0.950 . S
C1524 C1522 1.391 . S
C1524 C1525 1.400 . S
C1525 C1519 1.491 . S
C1525 C1524 1.400 . S
C1525 C1526 1.398 . S
C1526 H1514 0.950 . S
C1526 C1525 1.398 . S
C1526 C1527 1.391 . S
C1527 H1515 0.950 . S
C1527 C1523 1.393 . S
C1527 C1526 1.391 . S
H1528 C1536 0.950 . S
H1529 C1541 0.950 . S
H1530 C1538 0.950 . S
H1531 C1540 0.950 . S
H1532 C1542 0.950 . S
H1533 C1544 0.950 . S
H1534 C1546 0.950 . S
H1535 C1547 0.950 . S
C1536 H1528 0.950 . S
C1536 C1537 1.386 . S
C1536 C1538 1.391 . S
C1537 C1536 1.386 . S
C1537 C1541 1.393 . S
C1538 H1530 0.950 . S
C1538 C1536 1.391 . S
C1538 C1539 1.400 . S
C1539 C1538 1.400 . S
C1539 C1540 1.398 . S
C1539 C1545 1.491 . S
C1540 H1531 0.950 . S
C1540 C1539 1.398 . S
C1540 C1541 1.391 . S
C1541 H1529 0.950 . S
C1541 C1537 1.393 . S
C1541 C1540 1.391 . S
C1542 H1532 0.950 . S
C1542 C1543 1.386 . S
C1542 C1544 1.391 . S
C1543 C1542 1.386 . S
C1543 C1547 1.393 . S
C1544 H1533 0.950 . S
C1544 C1542 1.391 . S
C1544 C1545 1.400 . S
C1545 C1539 1.491 . S
C1545 C1544 1.400 . S
C1545 C1546 1.398 . S
C1546 H1534 0.950 . S
C1546 C1545 1.398 . S
C1546 C1547 1.391 . S
C1547 H1535 0.950 . S
C1547 C1543 1.393 . S
C1547 C1546 1.391 . S
H1548 C1556 0.950 . S
H1549 C1561 0.950 . S
H1550 C1558 0.950 . S
H1551 C1560 0.950 . S
H1552 C1562 0.950 . S
H1553 C1564 0.950 . S
H1554 C1566 0.950 . S
H1555 C1567 0.950 . S
C1556 H1548 0.950 . S
C1556 C1557 1.386 . S
C1556 C1558 1.391 . S
C1557 C1556 1.386 . S
C1557 C1561 1.393 . S
C1558 H1550 0.950 . S
C1558 C1556 1.391 . S
C1558 C1559 1.400 . S
C1559 C1558 1.400 . S
C1559 C1560 1.398 . S
C1559 C1565 1.491 . S
C1560 H1551 0.950 . S
C1560 C1559 1.398 . S
C1560 C1561 1.391 . S
C1561 H1549 0.950 . S
C1561 C1557 1.393 . S
C1561 C1560 1.391 . S
C1562 H1552 0.950 . S
C1562 C1563 1.386 . S
C1562 C1564 1.391 . S
C1563 C1562 1.386 . S
C1563 C1567 1.393 . S
C1564 H1553 0.950 . S
C1564 C1562 1.391 . S
C1564 C1565 1.400 . S
C1565 C1559 1.491 . S
C1565 C1564 1.400 . S
C1565 C1566 1.398 . S
C1566 H1554 0.950 . S
C1566 C1565 1.398 . S
C1566 C1567 1.391 . S
C1567 H1555 0.950 . S
C1567 C1563 1.393 . S
C1567 C1566 1.391 . S
H1568 C1576 0.950 . S
H1569 C1581 0.950 . S
H1570 C1578 0.950 . S
H1571 C1580 0.950 . S
H1572 C1582 0.950 . S
H1573 C1584 0.950 . S
H1574 C1586 0.950 . S
H1575 C1587 0.950 . S
C1576 H1568 0.950 . S
C1576 C1577 1.386 . S
C1576 C1578 1.391 . S
C1577 C1576 1.386 . S
C1577 C1581 1.393 . S
C1578 H1570 0.950 . S
C1578 C1576 1.391 . S
C1578 C1579 1.400 . S
C1579 C1578 1.400 . S
C1579 C1580 1.398 . S
C1579 C1585 1.491 . S
C1580 H1571 0.950 . S
C1580 C1579 1.398 . S
C1580 C1581 1.391 . S
C1581 H1569 0.950 . S
C1581 C1577 1.393 . S
C1581 C1580 1.391 . S
C1582 H1572 0.950 . S
C1582 C1583 1.386 . S
C1582 C1584 1.391 . S
C1583 C1582 1.386 . S
C1583 C1587 1.393 . S
C1584 H1573 0.950 . S
C1584 C1582 1.391 . S
C1584 C1585 1.400 . S
C1585 C1579 1.491 . S
C1585 C1584 1.400 . S
C1585 C1586 1.398 . S
C1586 H1574 0.950 . S
C1586 C1585 1.398 . S
C1586 C1587 1.391 . S
C1587 H1575 0.950 . S
C1587 C1583 1.393 . S
C1587 C1586 1.391 . S
H1588 C1596 0.950 . S
H1589 C1601 0.950 . S
H1590 C1598 0.950 . S
H1591 C1600 0.950 . S
H1592 C1602 0.950 . S
H1593 C1604 0.950 . S
H1594 C1606 0.950 . S
H1595 C1607 0.950 . S
C1596 H1588 0.950 . S
C1596 C1597 1.386 . S
C1596 C1598 1.391 . S
C1597 C1596 1.386 . S
C1597 C1601 1.393 . S
C1598 H1590 0.950 . S
C1598 C1596 1.391 . S
C1598 C1599 1.400 . S
C1599 C1598 1.400 . S
C1599 C1600 1.398 . S
C1599 C1605 1.491 . S
C1600 H1591 0.950 . S
C1600 C1599 1.398 . S
C1600 C1601 1.391 . S
C1601 H1589 0.950 . S
C1601 C1597 1.393 . S
C1601 C1600 1.391 . S
C1602 H1592 0.950 . S
C1602 C1603 1.386 . S
C1602 C1604 1.391 . S
C1603 C1602 1.386 . S
C1603 C1607 1.393 . S
C1604 H1593 0.950 . S
C1604 C1602 1.391 . S
C1604 C1605 1.400 . S
C1605 C1599 1.491 . S
C1605 C1604 1.400 . S
C1605 C1606 1.398 . S
C1606 H1594 0.950 . S
C1606 C1605 1.398 . S
C1606 C1607 1.391 . S
C1607 H1595 0.950 . S
C1607 C1603 1.393 . S
C1607 C1606 1.391 . S
H1608 C1616 0.950 . S
H1609 C1621 0.950 . S
H1610 C1618 0.950 . S
H1611 C1620 0.950 . S
H1612 C1622 0.950 . S
H1613 C1624 0.950 . S
H1614 C1626 0.950 . S
H1615 C1627 0.950 . S
C1616 H1608 0.950 . S
C1616 C1617 1.386 . S
C1616 C1618 1.391 . S
C1617 C1616 1.386 . S
C1617 C1621 1.393 . S
C1618 H1610 0.950 . S
C1618 C1616 1.391 . S
C1618 C1619 1.400 . S
C1619 C1618 1.400 . S
C1619 C1620 1.398 . S
C1619 C1625 1.491 . S
C1620 H1611 0.950 . S
C1620 C1619 1.398 . S
C1620 C1621 1.391 . S
C1621 H1609 0.950 . S
C1621 C1617 1.393 . S
C1621 C1620 1.391 . S
C1622 H1612 0.950 . S
C1622 C1623 1.386 . S
C1622 C1624 1.391 . S
C1623 C1622 1.386 . S
C1623 C1627 1.393 . S
C1624 H1613 0.950 . S
C1624 C1622 1.391 . S
C1624 C1625 1.400 . S
C1625 C1619 1.491 . S
C1625 C1624 1.400 . S
C1625 C1626 1.398 . S
C1626 H1614 0.950 . S
C1626 C1625 1.398 . S
C1626 C1627 1.391 . S
C1627 H1615 0.950 . S
C1627 C1623 1.393 . S
C1627 C1626 1.391 . S
H1628 C1636 0.950 . S
H1629 C1641 0.950 . S
H1630 C1638 0.950 . S
H1631 C1640 0.950 . S
H1632 C1642 0.950 . S
H1633 C1644 0.950 . S
H1634 C1646 0.950 . S
H1635 C1647 0.950 . S
C1636 H1628 0.950 . S
C1636 C1637 1.386 . S
C1636 C1638 1.391 . S
C1637 C1636 1.386 . S
C1637 C1641 1.393 . S
C1638 H1630 0.950 . S
C1638 C1636 1.391 . S
C1638 C1639 1.400 . S
C1639 C1638 1.400 . S
C1639 C1640 1.398 . S
C1639 C1645 1.491 . S
C1640 H1631 0.950 . S
C1640 C1639 1.398 . S
C1640 C1641 1.391 . S
C1641 H1629 0.950 . S
C1641 C1637 1.393 . S
C1641 C1640 1.391 . S
C1642 H1632 0.950 . S
C1642 C1643 1.386 . S
C1642 C1644 1.391 . S
C1643 C1642 1.386 . S
C1643 C1647 1.393 . S
C1644 H1633 0.950 . S
C1644 C1642 1.391 . S
C1644 C1645 1.400 . S
C1645 C1639 1.491 . S
C1645 C1644 1.400 . S
C1645 C1646 1.398 . S
C1646 H1634 0.950 . S
C1646 C1645 1.398 . S
C1646 C1647 1.391 . S
C1647 H1635 0.950 . S
C1647 C1643 1.393 . S
C1647 C1646 1.391 . S
H1648 C1656 0.950 . S
H1649 C1661 0.950 . S
H1650 C1658 0.950 . S
H1651 C1660 0.950 . S
H1652 C1662 0.950 . S
H1653 C1664 0.950 . S
H1654 C1666 0.950 . S
H1655 C1667 0.950 . S
C1656 H1648 0.950 . S
C1656 C1657 1.386 . S
C1656 C1658 1.391 . S
C1657 C1656 1.386 . S
C1657 C1661 1.393 . S
C1658 H1650 0.950 . S
C1658 C1656 1.391 . S
C1658 C1659 1.400 . S
C1659 C1658 1.400 . S
C1659 C1660 1.398 . S
C1659 C1665 1.491 . S
C1660 H1651 0.950 . S
C1660 C1659 1.398 . S
C1660 C1661 1.391 . S
C1661 H1649 0.950 . S
C1661 C1657 1.393 . S
C1661 C1660 1.391 . S
C1662 H1652 0.950 . S
C1662 C1663 1.386 . S
C1662 C1664 1.391 . S
C1663 C1662 1.386 . S
C1663 C1667 1.393 . S
C1664 H1653 0.950 . S
C1664 C1662 1.391 . S
C1664 C1665 1.400 . S
C1665 C1659 1.491 . S
C1665 C1664 1.400 . S
C1665 C1666 1.398 . S
C1666 H1654 0.950 . S
C1666 C1665 1.398 . S
C1666 C1667 1.391 . S
C1667 H1655 0.950 . S
C1667 C1663 1.393 . S
C1667 C1666 1.391 . S
H1668 C1676 0.950 . S
H1669 C1681 0.950 . S
H1670 C1678 0.950 . S
H1671 C1680 0.950 . S
H1672 C1682 0.950 . S
H1673 C1684 0.950 . S
H1674 C1686 0.950 . S
H1675 C1687 0.950 . S
C1676 H1668 0.950 . S
C1676 C1677 1.386 . S
C1676 C1678 1.391 . S
C1677 C1676 1.386 . S
C1677 C1681 1.393 . S
C1678 H1670 0.950 . S
C1678 C1676 1.391 . S
C1678 C1679 1.400 . S
C1679 C1678 1.400 . S
C1679 C1680 1.398 . S
C1679 C1685 1.491 . S
C1680 H1671 0.950 . S
C1680 C1679 1.398 . S
C1680 C1681 1.391 . S
C1681 H1669 0.950 . S
C1681 C1677 1.393 . S
C1681 C1680 1.391 . S
C1682 H1672 0.950 . S
C1682 C1683 1.386 . S
C1682 C1684 1.391 . S
C1683 C1682 1.386 . S
C1683 C1687 1.393 . S
C1684 H1673 0.950 . S
C1684 C1682 1.391 . S
C1684 C1685 1.400 . S
C1685 C1679 1.491 . S
C1685 C1684 1.400 . S
C1685 C1686 1.398 . S
C1686 H1674 0.950 . S
C1686 C1685 1.398 . S
C1686 C1687 1.391 . S
C1687 H1675 0.950 . S
C1687 C1683 1.393 . S
C1687 C1686 1.391 . S
H1688 C1696 0.950 . S
H1689 C1701 0.950 . S
H1690 C1698 0.950 . S
H1691 C1700 0.950 . S
H1692 C1702 0.950 . S
H1693 C1704 0.950 . S
H1694 C1706 0.950 . S
H1695 C1707 0.950 . S
C1696 H1688 0.950 . S
C1696 C1697 1.386 . S
C1696 C1698 1.391 . S
C1697 C1696 1.386 . S
C1697 C1701 1.393 . S
C1698 H1690 0.950 . S
C1698 C1696 1.391 . S
C1698 C1699 1.400 . S
C1699 C1698 1.400 . S
C1699 C1700 1.398 . S
C1699 C1705 1.491 . S
C1700 H1691 0.950 . S
C1700 C1699 1.398 . S
C1700 C1701 1.391 . S
C1701 H1689 0.950 . S
C1701 C1697 1.393 . S
C1701 C1700 1.391 . S
C1702 H1692 0.950 . S
C1702 C1703 1.386 . S
C1702 C1704 1.391 . S
C1703 C1702 1.386 . S
C1703 C1707 1.393 . S
C1704 H1693 0.950 . S
C1704 C1702 1.391 . S
C1704 C1705 1.400 . S
C1705 C1699 1.491 . S
C1705 C1704 1.400 . S
C1705 C1706 1.398 . S
C1706 H1694 0.950 . S
C1706 C1705 1.398 . S
C1706 C1707 1.391 . S
C1707 H1695 0.950 . S
C1707 C1703 1.393 . S
C1707 C1706 1.391 . S
H1708 C1716 0.950 . S
H1709 C1721 0.950 . S
H1710 C1718 0.950 . S
H1711 C1720 0.950 . S
H1712 C1722 0.950 . S
H1713 C1724 0.950 . S
H1714 C1726 0.950 . S
H1715 C1727 0.950 . S
C1716 H1708 0.950 . S
C1716 C1717 1.386 . S
C1716 C1718 1.391 . S
C1717 C1716 1.386 . S
C1717 C1721 1.393 . S
C1718 H1710 0.950 . S
C1718 C1716 1.391 . S
C1718 C1719 1.400 . S
C1719 C1718 1.400 . S
C1719 C1720 1.398 . S
C1719 C1725 1.491 . S
C1720 H1711 0.950 . S
C1720 C1719 1.398 . S
C1720 C1721 1.391 . S
C1721 H1709 0.950 . S
C1721 C1717 1.393 . S
C1721 C1720 1.391 . S
C1722 H1712 0.950 . S
C1722 C1723 1.386 . S
C1722 C1724 1.391 . S
C1723 C1722 1.386 . S
C1723 C1727 1.393 . S
C1724 H1713 0.950 . S
C1724 C1722 1.391 . S
C1724 C1725 1.400 . S
C1725 C1719 1.491 . S
C1725 C1724 1.400 . S
C1725 C1726 1.398 . S
C1726 H1714 0.950 . S
C1726 C1725 1.398 . S
C1726 C1727 1.391 . S
C1727 H1715 0.950 . S
C1727 C1723 1.393 . S
C1727 C1726 1.391 . S
H1728 C1736 0.950 . S
H1729 C1741 0.950 . S
H1730 C1738 0.950 . S
H1731 C1740 0.950 . S
H1732 C1742 0.950 . S
H1733 C1744 0.950 . S
H1734 C1746 0.950 . S
H1735 C1747 0.950 . S
C1736 H1728 0.950 . S
C1736 C1737 1.386 . S
C1736 C1738 1.391 . S
C1737 C1736 1.386 . S
C1737 C1741 1.393 . S
C1738 H1730 0.950 . S
C1738 C1736 1.391 . S
C1738 C1739 1.400 . S
C1739 C1738 1.400 . S
C1739 C1740 1.398 . S
C1739 C1745 1.491 . S
C1740 H1731 0.950 . S
C1740 C1739 1.398 . S
C1740 C1741 1.391 . S
C1741 H1729 0.950 . S
C1741 C1737 1.393 . S
C1741 C1740 1.391 . S
C1742 H1732 0.950 . S
C1742 C1743 1.386 . S
C1742 C1744 1.391 . S
C1743 C1742 1.386 . S
C1743 C1747 1.393 . S
C1744 H1733 0.950 . S
C1744 C1742 1.391 . S
C1744 C1745 1.400 . S
C1745 C1739 1.491 . S
C1745 C1744 1.400 . S
C1745 C1746 1.398 . S
C1746 H1734 0.950 . S
C1746 C1745 1.398 . S
C1746 C1747 1.391 . S
C1747 H1735 0.950 . S
C1747 C1743 1.393 . S
C1747 C1746 1.391 . S
H1748 C1756 0.950 . S
H1749 C1761 0.950 . S
H1750 C1758 0.950 . S
H1751 C1760 0.950 . S
H1752 C1762 0.950 . S
H1753 C1764 0.950 . S
H1754 C1766 0.950 . S
H1755 C1767 0.950 . S
C1756 H1748 0.950 . S
C1756 C1757 1.386 . S
C1756 C1758 1.391 . S
C1757 C1756 1.386 . S
C1757 C1761 1.393 . S
C1758 H1750 0.950 . S
C1758 C1756 1.391 . S
C1758 C1759 1.400 . S
C1759 C1758 1.400 . S
C1759 C1760 1.398 . S
C1759 C1765 1.491 . S
C1760 H1751 0.950 . S
C1760 C1759 1.398 . S
C1760 C1761 1.391 . S
C1761 H1749 0.950 . S
C1761 C1757 1.393 . S
C1761 C1760 1.391 . S
C1762 H1752 0.950 . S
C1762 C1763 1.386 . S
C1762 C1764 1.391 . S
C1763 C1762 1.386 . S
C1763 C1767 1.393 . S
C1764 H1753 0.950 . S
C1764 C1762 1.391 . S
C1764 C1765 1.400 . S
C1765 C1759 1.491 . S
C1765 C1764 1.400 . S
C1765 C1766 1.398 . S
C1766 H1754 0.950 . S
C1766 C1765 1.398 . S
C1766 C1767 1.391 . S
C1767 H1755 0.950 . S
C1767 C1763 1.393 . S
C1767 C1766 1.391 . S
H1768 C1776 0.950 . S
H1769 C1781 0.950 . S
H1770 C1778 0.950 . S
H1771 C1780 0.950 . S
H1772 C1782 0.950 . S
H1773 C1784 0.950 . S
H1774 C1786 0.950 . S
H1775 C1787 0.950 . S
C1776 H1768 0.950 . S
C1776 C1777 1.386 . S
C1776 C1778 1.391 . S
C1777 C1776 1.386 . S
C1777 C1781 1.393 . S
C1778 H1770 0.950 . S
C1778 C1776 1.391 . S
C1778 C1779 1.400 . S
C1779 C1778 1.400 . S
C1779 C1780 1.398 . S
C1779 C1785 1.491 . S
C1780 H1771 0.950 . S
C1780 C1779 1.398 . S
C1780 C1781 1.391 . S
C1781 H1769 0.950 . S
C1781 C1777 1.393 . S
C1781 C1780 1.391 . S
C1782 H1772 0.950 . S
C1782 C1783 1.386 . S
C1782 C1784 1.391 . S
C1783 C1782 1.386 . S
C1783 C1787 1.393 . S
C1784 H1773 0.950 . S
C1784 C1782 1.391 . S
C1784 C1785 1.400 . S
C1785 C1779 1.491 . S
C1785 C1784 1.400 . S
C1785 C1786 1.398 . S
C1786 H1774 0.950 . S
C1786 C1785 1.398 . S
C1786 C1787 1.391 . S
C1787 H1775 0.950 . S
C1787 C1783 1.393 . S
C1787 C1786 1.391 . S
H1788 C1796 0.950 . S
H1789 C1801 0.950 . S
H1790 C1798 0.950 . S
H1791 C1800 0.950 . S
H1792 C1802 0.950 . S
H1793 C1804 0.950 . S
H1794 C1806 0.950 . S
H1795 C1807 0.950 . S
C1796 H1788 0.950 . S
C1796 C1797 1.386 . S
C1796 C1798 1.391 . S
C1797 C1796 1.386 . S
C1797 C1801 1.393 . S
C1798 H1790 0.950 . S
C1798 C1796 1.391 . S
C1798 C1799 1.400 . S
C1799 C1798 1.400 . S
C1799 C1800 1.398 . S
C1799 C1805 1.491 . S
C1800 H1791 0.950 . S
C1800 C1799 1.398 . S
C1800 C1801 1.391 . S
C1801 H1789 0.950 . S
C1801 C1797 1.393 . S
C1801 C1800 1.391 . S
C1802 H1792 0.950 . S
C1802 C1803 1.386 . S
C1802 C1804 1.391 . S
C1803 C1802 1.386 . S
C1803 C1807 1.393 . S
C1804 H1793 0.950 . S
C1804 C1802 1.391 . S
C1804 C1805 1.400 . S
C1805 C1799 1.491 . S
C1805 C1804 1.400 . S
C1805 C1806 1.398 . S
C1806 H1794 0.950 . S
C1806 C1805 1.398 . S
C1806 C1807 1.391 . S
C1807 H1795 0.950 . S
C1807 C1803 1.393 . S
C1807 C1806 1.391 . S
H1808 C1816 0.950 . S
H1809 C1821 0.950 . S
H1810 C1818 0.950 . S
H1811 C1820 0.950 . S
H1812 C1822 0.950 . S
H1813 C1824 0.950 . S
H1814 C1826 0.950 . S
H1815 C1827 0.950 . S
C1816 H1808 0.950 . S
C1816 C1817 1.386 . S
C1816 C1818 1.391 . S
C1817 C1816 1.386 . S
C1817 C1821 1.393 . S
C1818 H1810 0.950 . S
C1818 C1816 1.391 . S
C1818 C1819 1.400 . S
C1819 C1818 1.400 . S
C1819 C1820 1.398 . S
C1819 C1825 1.491 . S
C1820 H1811 0.950 . S
C1820 C1819 1.398 . S
C1820 C1821 1.391 . S
C1821 H1809 0.950 . S
C1821 C1817 1.393 . S
C1821 C1820 1.391 . S
C1822 H1812 0.950 . S
C1822 C1823 1.386 . S
C1822 C1824 1.391 . S
C1823 C1822 1.386 . S
C1823 C1827 1.393 . S
C1824 H1813 0.950 . S
C1824 C1822 1.391 . S
C1824 C1825 1.400 . S
C1825 C1819 1.491 . S
C1825 C1824 1.400 . S
C1825 C1826 1.398 . S
C1826 H1814 0.950 . S
C1826 C1825 1.398 . S
C1826 C1827 1.391 . S
C1827 H1815 0.950 . S
C1827 C1823 1.393 . S
C1827 C1826 1.391 . S
H1828 C1836 0.950 . S
H1829 C1841 0.950 . S
H1830 C1838 0.950 . S
H1831 C1840 0.950 . S
H1832 C1842 0.950 . S
H1833 C1844 0.950 . S
H1834 C1846 0.950 . S
H1835 C1847 0.950 . S
C1836 H1828 0.950 . S
C1836 C1837 1.386 . S
C1836 C1838 1.391 . S
C1837 C1836 1.386 . S
C1837 C1841 1.393 . S
C1838 H1830 0.950 . S
C1838 C1836 1.391 . S
C1838 C1839 1.400 . S
C1839 C1838 1.400 . S
C1839 C1840 1.398 . S
C1839 C1845 1.491 . S
C1840 H1831 0.950 . S
C1840 C1839 1.398 . S
C1840 C1841 1.391 . S
C1841 H1829 0.950 . S
C1841 C1837 1.393 . S
C1841 C1840 1.391 . S
C1842 H1832 0.950 . S
C1842 C1843 1.386 . S
C1842 C1844 1.391 . S
C1843 C1842 1.386 . S
C1843 C1847 1.393 . S
C1844 H1833 0.950 . S
C1844 C1842 1.391 . S
C1844 C1845 1.400 . S
C1845 C1839 1.491 . S
C1845 C1844 1.400 . S
C1845 C1846 1.398 . S
C1846 H1834 0.950 . S
C1846 C1845 1.398 . S
C1846 C1847 1.391 . S
C1847 H1835 0.950 . S
C1847 C1843 1.393 . S
C1847 C1846 1.391 . S
H1848 C1856 0.950 . S
H1849 C1861 0.950 . S
H1850 C1858 0.950 . S
H1851 C1860 0.950 . S
H1852 C1862 0.950 . S
H1853 C1864 0.950 . S
H1854 C1866 0.950 . S
H1855 C1867 0.950 . S
C1856 H1848 0.950 . S
C1856 C1857 1.386 . S
C1856 C1858 1.391 . S
C1857 C1856 1.386 . S
C1857 C1861 1.393 . S
C1858 H1850 0.950 . S
C1858 C1856 1.391 . S
C1858 C1859 1.400 . S
C1859 C1858 1.400 . S
C1859 C1860 1.398 . S
C1859 C1865 1.491 . S
C1860 H1851 0.950 . S
C1860 C1859 1.398 . S
C1860 C1861 1.391 . S
C1861 H1849 0.950 . S
C1861 C1857 1.393 . S
C1861 C1860 1.391 . S
C1862 H1852 0.950 . S
C1862 C1863 1.386 . S
C1862 C1864 1.391 . S
C1863 C1862 1.386 . S
C1863 C1867 1.393 . S
C1864 H1853 0.950 . S
C1864 C1862 1.391 . S
C1864 C1865 1.400 . S
C1865 C1859 1.491 . S
C1865 C1864 1.400 . S
C1865 C1866 1.398 . S
C1866 H1854 0.950 . S
C1866 C1865 1.398 . S
C1866 C1867 1.391 . S
C1867 H1855 0.950 . S
C1867 C1863 1.393 . S
C1867 C1866 1.391 . S
H1868 C1876 0.950 . S
H1869 C1881 0.950 . S
H1870 C1878 0.950 . S
H1871 C1880 0.950 . S
H1872 C1882 0.950 . S
H1873 C1884 0.950 . S
H1874 C1886 0.950 . S
H1875 C1887 0.950 . S
C1876 H1868 0.950 . S
C1876 C1877 1.386 . S
C1876 C1878 1.391 . S
C1877 C1876 1.386 . S
C1877 C1881 1.393 . S
C1878 H1870 0.950 . S
C1878 C1876 1.391 . S
C1878 C1879 1.400 . S
C1879 C1878 1.400 . S
C1879 C1880 1.398 . S
C1879 C1885 1.491 . S
C1880 H1871 0.950 . S
C1880 C1879 1.398 . S
C1880 C1881 1.391 . S
C1881 H1869 0.950 . S
C1881 C1877 1.393 . S
C1881 C1880 1.391 . S
C1882 H1872 0.950 . S
C1882 C1883 1.386 . S
C1882 C1884 1.391 . S
C1883 C1882 1.386 . S
C1883 C1887 1.393 . S
C1884 H1873 0.950 . S
C1884 C1882 1.391 . S
C1884 C1885 1.400 . S
C1885 C1879 1.491 . S
C1885 C1884 1.400 . S
C1885 C1886 1.398 . S
C1886 H1874 0.950 . S
C1886 C1885 1.398 . S
C1886 C1887 1.391 . S
C1887 H1875 0.950 . S
C1887 C1883 1.393 . S
C1887 C1886 1.391 . S
H1888 C1896 0.950 . S
H1889 C1901 0.950 . S
H1890 C1898 0.950 . S
H1891 C1900 0.950 . S
H1892 C1902 0.950 . S
H1893 C1904 0.950 . S
H1894 C1906 0.950 . S
H1895 C1907 0.950 . S
C1896 H1888 0.950 . S
C1896 C1897 1.386 . S
C1896 C1898 1.391 . S
C1897 C1896 1.386 . S
C1897 C1901 1.393 . S
C1898 H1890 0.950 . S
C1898 C1896 1.391 . S
C1898 C1899 1.400 . S
C1899 C1898 1.400 . S
C1899 C1900 1.398 . S
C1899 C1905 1.491 . S
C1900 H1891 0.950 . S
C1900 C1899 1.398 . S
C1900 C1901 1.391 . S
C1901 H1889 0.950 . S
C1901 C1897 1.393 . S
C1901 C1900 1.391 . S
C1902 H1892 0.950 . S
C1902 C1903 1.386 . S
C1902 C1904 1.391 . S
C1903 C1902 1.386 . S
C1903 C1907 1.393 . S
C1904 H1893 0.950 . S
C1904 C1902 1.391 . S
C1904 C1905 1.400 . S
C1905 C1899 1.491 . S
C1905 C1904 1.400 . S
C1905 C1906 1.398 . S
C1906 H1894 0.950 . S
C1906 C1905 1.398 . S
C1906 C1907 1.391 . S
C1907 H1895 0.950 . S
C1907 C1903 1.393 . S
C1907 C1906 1.391 . S
H1908 C1916 0.950 . S
H1909 C1921 0.950 . S
H1910 C1918 0.950 . S
H1911 C1920 0.950 . S
H1912 C1922 0.950 . S
H1913 C1924 0.950 . S
H1914 C1926 0.950 . S
H1915 C1927 0.950 . S
C1916 H1908 0.950 . S
C1916 C1917 1.386 . S
C1916 C1918 1.391 . S
C1917 C1916 1.386 . S
C1917 C1921 1.393 . S
C1918 H1910 0.950 . S
C1918 C1916 1.391 . S
C1918 C1919 1.400 . S
C1919 C1918 1.400 . S
C1919 C1920 1.398 . S
C1919 C1925 1.491 . S
C1920 H1911 0.950 . S
C1920 C1919 1.398 . S
C1920 C1921 1.391 . S
C1921 H1909 0.950 . S
C1921 C1917 1.393 . S
C1921 C1920 1.391 . S
C1922 H1912 0.950 . S
C1922 C1923 1.386 . S
C1922 C1924 1.391 . S
C1923 C1922 1.386 . S
C1923 C1927 1.393 . S
C1924 H1913 0.950 . S
C1924 C1922 1.391 . S
C1924 C1925 1.400 . S
C1925 C1919 1.491 . S
C1925 C1924 1.400 . S
C1925 C1926 1.398 . S
C1926 H1914 0.950 . S
C1926 C1925 1.398 . S
C1926 C1927 1.391 . S
C1927 H1915 0.950 . S
C1927 C1923 1.393 . S
C1927 C1926 1.391 . S
H1928 C1936 0.950 . S
H1929 C1941 0.950 . S
H1930 C1938 0.950 . S
H1931 C1940 0.950 . S
H1932 C1942 0.950 1_545 S
H1933 C1944 0.950 . S
H1934 C1946 0.950 . S
H1935 C1947 0.950 . S
C1936 H1928 0.950 . S
C1936 C1937 1.386 . S
C1936 C1938 1.391 . S
C1937 C1936 1.386 . S
C1937 C1941 1.393 . S
C1938 H1930 0.950 . S
C1938 C1936 1.391 . S
C1938 C1939 1.400 . S
C1939 C1938 1.400 . S
C1939 C1940 1.398 . S
C1939 C1945 1.491 . S
C1940 H1931 0.950 . S
C1940 C1939 1.398 . S
C1940 C1941 1.391 . S
C1941 H1929 0.950 . S
C1941 C1937 1.393 . S
C1941 C1940 1.391 . S
C1942 H1932 0.950 1_565 S
C1942 C1943 1.386 . S
C1942 C1944 1.391 . S
C1943 C1942 1.386 . S
C1943 C1947 1.393 . S
C1944 H1933 0.950 . S
C1944 C1942 1.391 . S
C1944 C1945 1.400 . S
C1945 C1939 1.491 . S
C1945 C1944 1.400 . S
C1945 C1946 1.398 . S
C1946 H1934 0.950 . S
C1946 C1945 1.398 . S
C1946 C1947 1.391 . S
C1947 H1935 0.950 . S
C1947 C1943 1.393 . S
C1947 C1946 1.391 . S
H1948 C1956 0.950 . S
H1949 C1961 0.950 . S
H1950 C1958 0.956 1_655 S
H1951 C1960 0.950 . S
H1952 C1962 0.950 . S
H1953 C1964 0.950 . S
H1954 C1966 0.950 . S
H1955 C1967 0.950 . S
C1956 H1948 0.950 . S
C1956 C1957 1.386 . S
C1956 C1958 1.350 1_655 S
C1957 C1956 1.386 . S
C1957 C1961 1.393 1_655 S
C1958 H1950 0.956 1_455 S
C1958 C1956 1.350 1_455 S
C1958 C1959 1.437 . S
C1959 C1958 1.437 . S
C1959 C1960 1.398 . S
C1959 C1965 1.491 . S
C1960 H1951 0.950 . S
C1960 C1959 1.398 . S
C1960 C1961 1.391 . S
C1961 H1949 0.950 . S
C1961 C1957 1.393 1_455 S
C1961 C1960 1.391 . S
C1962 H1952 0.950 . S
C1962 C1963 1.386 . S
C1962 C1964 1.391 . S
C1963 C1962 1.386 . S
C1963 C1967 1.393 . S
C1964 H1953 0.950 . S
C1964 C1962 1.391 . S
C1964 C1965 1.400 . S
C1965 C1959 1.491 . S
C1965 C1964 1.400 . S
C1965 C1966 1.398 . S
C1966 H1954 0.950 . S
C1966 C1965 1.398 . S
C1966 C1967 1.391 . S
C1967 H1955 0.950 . S
C1967 C1963 1.393 . S
C1967 C1966 1.391 . S
H1968 C1976 0.950 . S
H1969 C1981 0.950 . S
H1970 C1978 0.950 . S
H1971 C1980 0.950 . S
H1972 C1982 0.950 . S
H1973 C1984 0.950 . S
H1974 C1986 0.950 . S
H1975 C1987 0.950 . S
C1976 H1968 0.950 . S
C1976 C1977 1.386 . S
C1976 C1978 1.391 . S
C1977 C1976 1.386 . S
C1977 C1981 1.393 . S
C1978 H1970 0.950 . S
C1978 C1976 1.391 . S
C1978 C1979 1.400 . S
C1979 C1978 1.400 . S
C1979 C1980 1.398 . S
C1979 C1985 1.491 . S
C1980 H1971 0.950 . S
C1980 C1979 1.398 . S
C1980 C1981 1.391 . S
C1981 H1969 0.950 . S
C1981 C1977 1.393 . S
C1981 C1980 1.391 . S
C1982 H1972 0.950 . S
C1982 C1983 1.386 . S
C1982 C1984 1.391 . S
C1983 C1982 1.386 . S
C1983 C1987 1.393 . S
C1984 H1973 0.950 . S
C1984 C1982 1.391 . S
C1984 C1985 1.400 . S
C1985 C1979 1.491 . S
C1985 C1984 1.400 . S
C1985 C1986 1.398 . S
C1986 H1974 0.950 . S
C1986 C1985 1.398 . S
C1986 C1987 1.391 . S
C1987 H1975 0.950 . S
C1987 C1983 1.393 . S
C1987 C1986 1.391 . S
H1988 C1996 0.950 . S
H1989 C2001 0.950 . S
H1990 C1998 0.950 . S
H1991 C2000 0.950 . S
H1992 C2002 0.950 . S
H1993 C2004 0.950 . S
H1994 C2006 0.950 . S
H1995 C2007 0.950 . S
C1996 H1988 0.950 . S
C1996 C1997 1.386 . S
C1996 C1998 1.391 . S
C1997 C1996 1.386 . S
C1997 C2001 1.393 . S
C1998 H1990 0.950 . S
C1998 C1996 1.391 . S
C1998 C1999 1.400 . S
C1999 C1998 1.400 . S
C1999 C2000 1.398 . S
C1999 C2005 1.491 . S
C2000 H1991 0.950 . S
C2000 C1999 1.398 . S
C2000 C2001 1.391 . S
C2001 H1989 0.950 . S
C2001 C1997 1.393 . S
C2001 C2000 1.391 . S
C2002 H1992 0.950 . S
C2002 C2003 1.386 . S
C2002 C2004 1.391 . S
C2003 C2002 1.386 . S
C2003 C2007 1.393 . S
C2004 H1993 0.950 . S
C2004 C2002 1.391 . S
C2004 C2005 1.400 . S
C2005 C1999 1.491 . S
C2005 C2004 1.400 . S
C2005 C2006 1.398 . S
C2006 H1994 0.950 . S
C2006 C2005 1.398 . S
C2006 C2007 1.391 . S
C2007 H1995 0.950 . S
C2007 C2003 1.393 . S
C2007 C2006 1.391 . S
H2008 C2016 0.950 . S
H2009 C2021 0.950 . S
H2010 C2018 0.950 . S
H2011 C2020 0.950 . S
H2012 C2022 0.950 . S
H2013 C2024 0.950 . S
H2014 C2026 0.950 . S
H2015 C2027 0.950 . S
C2016 H2008 0.950 . S
C2016 C2017 1.386 . S
C2016 C2018 1.391 . S
C2017 C2016 1.386 . S
C2017 C2021 1.393 1_455 S
C2018 H2010 0.950 . S
C2018 C2016 1.391 . S
C2018 C2019 1.400 1_455 S
C2019 C2018 1.400 1_655 S
C2019 C2020 1.398 . S
C2019 C2025 1.491 . S
C2020 H2011 0.950 . S
C2020 C2019 1.398 . S
C2020 C2021 1.391 . S
C2021 H2009 0.950 . S
C2021 C2017 1.393 1_655 S
C2021 C2020 1.391 . S
C2022 H2012 0.950 . S
C2022 C2023 1.386 . S
C2022 C2024 1.391 . S
C2023 C2022 1.386 . S
C2023 C2027 1.393 . S
C2024 H2013 0.950 . S
C2024 C2022 1.391 . S
C2024 C2025 1.400 . S
C2025 C2019 1.491 . S
C2025 C2024 1.400 . S
C2025 C2026 1.398 . S
C2026 H2014 0.950 . S
C2026 C2025 1.398 . S
C2026 C2027 1.391 . S
C2027 H2015 0.950 . S
C2027 C2023 1.393 . S
C2027 C2026 1.391 . S
H2028 C2036 0.950 . S
H2029 C2041 0.950 . S
H2030 C2038 0.950 . S
H2031 C2040 0.950 . S
H2032 C2042 0.950 . S
H2033 C2044 0.950 . S
H2034 C2046 0.950 . S
H2035 C2047 0.950 . S
C2036 H2028 0.950 . S
C2036 C2037 1.386 . S
C2036 C2038 1.391 . S
C2037 C2036 1.386 . S
C2037 C2041 1.393 . S
C2038 H2030 0.950 . S
C2038 C2036 1.391 . S
C2038 C2039 1.400 . S
C2039 C2038 1.400 . S
C2039 C2040 1.398 . S
C2039 C2045 1.491 . S
C2040 H2031 0.950 . S
C2040 C2039 1.398 . S
C2040 C2041 1.391 . S
C2041 H2029 0.950 . S
C2041 C2037 1.393 . S
C2041 C2040 1.391 . S
C2042 H2032 0.950 . S
C2042 C2043 1.386 . S
C2042 C2044 1.391 . S
C2043 C2042 1.386 . S
C2043 C2047 1.393 . S
C2044 H2033 0.950 . S
C2044 C2042 1.391 . S
C2044 C2045 1.400 . S
C2045 C2039 1.491 . S
C2045 C2044 1.400 . S
C2045 C2046 1.398 . S
C2046 H2034 0.950 . S
C2046 C2045 1.398 . S
C2046 C2047 1.391 . S
C2047 H2035 0.950 . S
C2047 C2043 1.393 . S
C2047 C2046 1.391 . S
H2048 C2056 0.950 . S
H2049 C2061 0.950 . S
H2050 C2058 0.950 . S
H2051 C2060 0.950 . S
H2052 C2062 0.950 . S
H2053 C2064 0.950 . S
H2054 C2066 0.950 . S
H2055 C2067 0.950 . S
C2056 H2048 0.950 . S
C2056 C2057 1.386 1_545 S
C2056 C2058 1.391 . S
C2057 C2056 1.386 1_565 S
C2057 C2061 1.393 . S
C2058 H2050 0.950 . S
C2058 C2056 1.391 . S
C2058 C2059 1.400 . S
C2059 C2058 1.400 . S
C2059 C2060 1.398 1_545 S
C2059 C2065 1.491 . S
C2060 H2051 0.950 . S
C2060 C2059 1.398 1_565 S
C2060 C2061 1.391 . S
C2061 H2049 0.950 . S
C2061 C2057 1.393 . S
C2061 C2060 1.391 . S
C2062 H2052 0.950 . S
C2062 C2063 1.386 . S
C2062 C2064 1.391 . S
C2063 C2062 1.386 . S
C2063 C2067 1.393 . S
C2064 H2053 0.950 . S
C2064 C2062 1.391 . S
C2064 C2065 1.400 . S
C2065 C2059 1.491 . S
C2065 C2064 1.400 . S
C2065 C2066 1.398 . S
C2066 H2054 0.950 . S
C2066 C2065 1.398 . S
C2066 C2067 1.391 . S
C2067 H2055 0.950 . S
C2067 C2063 1.393 . S
C2067 C2066 1.391 . S
H2068 C2076 0.950 . S
H2069 C2081 0.952 1_455 S
H2070 C2078 0.950 . S
H2071 C2080 0.950 . S
H2072 C2082 0.950 . S
H2073 C2084 0.950 . S
H2074 C2086 0.950 . S
H2075 C2087 0.950 . S
C2076 H2068 0.950 . S
C2076 C2077 1.386 . S
C2076 C2078 1.391 1_455 S
C2077 C2076 1.386 . S
C2077 C2081 1.396 1_455 S
C2078 H2070 0.950 . S
C2078 C2076 1.391 1_655 S
C2078 C2079 1.400 . S
C2079 C2078 1.400 . S
C2079 C2080 1.398 . S
C2079 C2085 1.491 . S
C2080 H2071 0.950 . S
C2080 C2079 1.398 . S
C2080 C2081 1.385 . S
C2081 H2069 0.952 1_655 S
C2081 C2077 1.396 1_655 S
C2081 C2080 1.385 . S
C2082 H2072 0.950 . S
C2082 C2083 1.386 . S
C2082 C2084 1.391 . S
C2083 C2082 1.386 . S
C2083 C2087 1.393 . S
C2084 H2073 0.950 . S
C2084 C2082 1.391 . S
C2084 C2085 1.400 . S
C2085 C2079 1.491 . S
C2085 C2084 1.400 . S
C2085 C2086 1.398 . S
C2086 H2074 0.950 . S
C2086 C2085 1.398 . S
C2086 C2087 1.391 . S
C2087 H2075 0.950 . S
C2087 C2083 1.393 . S
C2087 C2086 1.391 . S
H2088 C2096 0.950 . S
H2089 C2101 0.950 . S
H2090 C2098 0.950 . S
H2091 C2100 0.950 . S
H2092 C2102 0.950 . S
H2093 C2104 0.950 . S
H2094 C2106 0.950 . S
H2095 C2107 0.950 . S
C2096 H2088 0.950 . S
C2096 C2097 1.386 . S
C2096 C2098 1.391 . S
C2097 C2096 1.386 . S
C2097 C2101 1.393 . S
C2098 H2090 0.950 . S
C2098 C2096 1.391 . S
C2098 C2099 1.400 . S
C2099 C2098 1.400 . S
C2099 C2100 1.398 . S
C2099 C2105 1.491 . S
C2100 H2091 0.950 . S
C2100 C2099 1.398 . S
C2100 C2101 1.391 . S
C2101 H2089 0.950 . S
C2101 C2097 1.393 . S
C2101 C2100 1.391 . S
C2102 H2092 0.950 . S
C2102 C2103 1.386 . S
C2102 C2104 1.391 . S
C2103 C2102 1.386 . S
C2103 C2107 1.393 . S
C2104 H2093 0.950 . S
C2104 C2102 1.391 . S
C2104 C2105 1.400 . S
C2105 C2099 1.491 . S
C2105 C2104 1.400 . S
C2105 C2106 1.398 . S
C2106 H2094 0.950 . S
C2106 C2105 1.398 . S
C2106 C2107 1.391 . S
C2107 H2095 0.950 . S
C2107 C2103 1.393 . S
C2107 C2106 1.391 . S
H2108 C2116 0.950 . S
H2109 C2121 0.950 . S
H2110 C2118 0.950 . S
H2111 C2120 0.950 . S
H2112 C2122 0.950 . S
H2113 C2124 0.950 . S
H2114 C2126 0.950 . S
H2115 C2127 0.950 . S
C2116 H2108 0.950 . S
C2116 C2117 1.386 . S
C2116 C2118 1.391 . S
C2117 C2116 1.386 . S
C2117 C2121 1.393 1_545 S
C2118 H2110 0.950 . S
C2118 C2116 1.391 . S
C2118 C2119 1.400 1_545 S
C2119 C2118 1.400 1_565 S
C2119 C2120 1.398 . S
C2119 C2125 1.491 . S
C2120 H2111 0.950 . S
C2120 C2119 1.398 . S
C2120 C2121 1.391 . S
C2121 H2109 0.950 . S
C2121 C2117 1.393 1_565 S
C2121 C2120 1.391 . S
C2122 H2112 0.950 . S
C2122 C2123 1.386 . S
C2122 C2124 1.391 . S
C2123 C2122 1.386 . S
C2123 C2127 1.393 . S
C2124 H2113 0.950 . S
C2124 C2122 1.391 . S
C2124 C2125 1.400 . S
C2125 C2119 1.491 . S
C2125 C2124 1.400 . S
C2125 C2126 1.398 . S
C2126 H2114 0.950 . S
C2126 C2125 1.398 . S
C2126 C2127 1.391 . S
C2127 H2115 0.950 . S
C2127 C2123 1.393 . S
C2127 C2126 1.391 . S
H2128 C2136 0.950 . S
H2129 C2141 0.950 . S
H2130 C2138 0.950 . S
H2131 C2140 0.950 . S
H2132 C2142 0.950 . S
H2133 C2144 0.950 . S
H2134 C2146 0.950 . S
H2135 C2147 0.950 . S
C2136 H2128 0.950 . S
C2136 C2137 1.386 . S
C2136 C2138 1.391 . S
C2137 C2136 1.386 . S
C2137 C2141 1.393 . S
C2138 H2130 0.950 . S
C2138 C2136 1.391 . S
C2138 C2139 1.400 . S
C2139 C2138 1.400 . S
C2139 C2140 1.398 . S
C2139 C2145 1.491 . S
C2140 H2131 0.950 . S
C2140 C2139 1.398 . S
C2140 C2141 1.391 . S
C2141 H2129 0.950 . S
C2141 C2137 1.393 . S
C2141 C2140 1.391 . S
C2142 H2132 0.950 . S
C2142 C2143 1.386 . S
C2142 C2144 1.391 . S
C2143 C2142 1.386 . S
C2143 C2147 1.393 1_655 S
C2144 H2133 0.950 . S
C2144 C2142 1.391 . S
C2144 C2145 1.400 1_655 S
C2145 C2139 1.491 . S
C2145 C2144 1.400 1_455 S
C2145 C2146 1.398 . S
C2146 H2134 0.950 . S
C2146 C2145 1.398 . S
C2146 C2147 1.391 . S
C2147 H2135 0.950 . S
C2147 C2143 1.393 1_455 S
C2147 C2146 1.391 . S
H2148 C2156 0.950 . S
H2149 C2161 0.950 . S
H2150 C2158 0.950 . S
H2151 C2160 0.950 . S
H2152 C2162 0.950 . S
H2153 C2164 0.950 . S
H2154 C2166 0.949 1_655 S
H2155 C2167 0.950 . S
C2156 H2148 0.950 . S
C2156 C2157 1.386 . S
C2156 C2158 1.391 . S
C2157 C2156 1.386 . S
C2157 C2161 1.393 . S
C2158 H2150 0.950 . S
C2158 C2156 1.391 . S
C2158 C2159 1.400 . S
C2159 C2158 1.400 . S
C2159 C2160 1.398 . S
C2159 C2165 1.491 . S
C2160 H2151 0.950 . S
C2160 C2159 1.398 . S
C2160 C2161 1.391 . S
C2161 H2149 0.950 . S
C2161 C2157 1.393 . S
C2161 C2160 1.391 . S
C2162 H2152 0.950 . S
C2162 C2163 1.386 . S
C2162 C2164 1.391 . S
C2163 C2162 1.386 . S
C2163 C2167 1.393 . S
C2164 H2153 0.950 . S
C2164 C2162 1.391 . S
C2164 C2165 1.400 1_455 S
C2165 C2159 1.491 . S
C2165 C2164 1.400 1_655 S
C2165 C2166 1.398 1_655 S
C2166 H2154 0.949 1_455 S
C2166 C2165 1.398 1_455 S
C2166 C2167 1.391 . S
C2167 H2155 0.950 . S
C2167 C2163 1.393 . S
C2167 C2166 1.391 . S
H2168 C2176 0.950 . S
H2169 C2181 0.950 . S
H2170 C2178 0.950 . S
H2171 C2180 0.950 . S
H2172 C2182 0.950 . S
H2173 C2184 0.950 . S
H2174 C2186 0.950 . S
H2175 C2187 0.950 . S
C2176 H2168 0.950 . S
C2176 C2177 1.386 . S
C2176 C2178 1.391 . S
C2177 C2176 1.386 . S
C2177 C2181 1.393 . S
C2178 H2170 0.950 . S
C2178 C2176 1.391 . S
C2178 C2179 1.400 . S
C2179 C2178 1.400 . S
C2179 C2180 1.398 . S
C2179 C2185 1.491 . S
C2180 H2171 0.950 . S
C2180 C2179 1.398 . S
C2180 C2181 1.391 . S
C2181 H2169 0.950 . S
C2181 C2177 1.393 . S
C2181 C2180 1.391 . S
C2182 H2172 0.950 . S
C2182 C2183 1.386 . S
C2182 C2184 1.391 . S
C2183 C2182 1.386 . S
C2183 C2187 1.393 . S
C2184 H2173 0.950 . S
C2184 C2182 1.391 . S
C2184 C2185 1.400 . S
C2185 C2179 1.491 . S
C2185 C2184 1.400 . S
C2185 C2186 1.398 . S
C2186 H2174 0.950 . S
C2186 C2185 1.398 . S
C2186 C2187 1.391 . S
C2187 H2175 0.950 . S
C2187 C2183 1.393 . S
C2187 C2186 1.391 . S
H2188 C2196 0.950 . S
H2189 C2201 0.950 . S
H2190 C2198 0.950 . S
H2191 C2200 0.950 . S
H2192 C2202 0.950 . S
H2193 C2204 0.950 . S
H2194 C2206 0.950 . S
H2195 C2207 0.950 . S
C2196 H2188 0.950 . S
C2196 C2197 1.386 . S
C2196 C2198 1.391 . S
C2197 C2196 1.386 . S
C2197 C2201 1.393 . S
C2198 H2190 0.950 . S
C2198 C2196 1.391 . S
C2198 C2199 1.400 . S
C2199 C2198 1.400 . S
C2199 C2200 1.398 . S
C2199 C2205 1.491 1_565 S
C2200 H2191 0.950 . S
C2200 C2199 1.398 . S
C2200 C2201 1.391 . S
C2201 H2189 0.950 . S
C2201 C2197 1.393 . S
C2201 C2200 1.391 . S
C2202 H2192 0.950 . S
C2202 C2203 1.386 . S
C2202 C2204 1.391 . S
C2203 C2202 1.386 . S
C2203 C2207 1.393 . S
C2204 H2193 0.950 . S
C2204 C2202 1.391 . S
C2204 C2205 1.400 . S
C2205 C2199 1.491 1_545 S
C2205 C2204 1.400 . S
C2205 C2206 1.398 . S
C2206 H2194 0.950 . S
C2206 C2205 1.398 . S
C2206 C2207 1.391 . S
C2207 H2195 0.950 . S
C2207 C2203 1.393 . S
C2207 C2206 1.391 . S
H2208 C2216 0.950 . S
H2209 C2221 0.950 . S
H2210 C2218 0.950 . S
H2211 C2220 0.950 . S
H2212 C2222 0.950 . S
H2213 C2224 0.950 . S
H2214 C2226 0.950 . S
H2215 C2227 0.950 . S
C2216 H2208 0.950 . S
C2216 C2217 1.386 . S
C2216 C2218 1.391 . S
C2217 C2216 1.386 . S
C2217 C2221 1.393 . S
C2218 H2210 0.950 . S
C2218 C2216 1.391 . S
C2218 C2219 1.400 . S
C2219 C2218 1.400 . S
C2219 C2220 1.398 . S
C2219 C2225 1.491 1_565 S
C2220 H2211 0.950 . S
C2220 C2219 1.398 . S
C2220 C2221 1.391 . S
C2221 H2209 0.950 . S
C2221 C2217 1.393 . S
C2221 C2220 1.391 . S
C2222 H2212 0.950 . S
C2222 C2223 1.386 . S
C2222 C2224 1.391 . S
C2223 C2222 1.386 . S
C2223 C2227 1.393 . S
C2224 H2213 0.950 . S
C2224 C2222 1.391 . S
C2224 C2225 1.400 . S
C2225 C2219 1.491 1_545 S
C2225 C2224 1.400 . S
C2225 C2226 1.398 . S
C2226 H2214 0.950 . S
C2226 C2225 1.398 . S
C2226 C2227 1.391 . S
C2227 H2215 0.950 . S
C2227 C2223 1.393 . S
C2227 C2226 1.391 . S
H2228 C2236 0.950 . S
H2229 C2241 0.950 . S
H2230 C2238 0.950 . S
H2231 C2240 0.950 . S
H2232 C2242 0.950 . S
H2233 C2244 0.950 . S
H2234 C2246 0.950 . S
H2235 C2247 0.950 . S
C2236 H2228 0.950 . S
C2236 C2237 1.386 . S
C2236 C2238 1.391 . S
C2237 C2236 1.386 . S
C2237 C2241 1.393 . S
C2238 H2230 0.950 . S
C2238 C2236 1.391 . S
C2238 C2239 1.400 . S
C2239 C2238 1.400 . S
C2239 C2240 1.398 . S
C2239 C2245 1.491 1_655 S
C2240 H2231 0.950 . S
C2240 C2239 1.398 . S
C2240 C2241 1.391 . S
C2241 H2229 0.950 . S
C2241 C2237 1.393 . S
C2241 C2240 1.391 . S
C2242 H2232 0.950 . S
C2242 C2243 1.386 . S
C2242 C2244 1.391 . S
C2243 C2242 1.386 . S
C2243 C2247 1.393 . S
C2244 H2233 0.950 . S
C2244 C2242 1.391 . S
C2244 C2245 1.400 . S
C2245 C2239 1.491 1_455 S
C2245 C2244 1.400 . S
C2245 C2246 1.398 . S
C2246 H2234 0.950 . S
C2246 C2245 1.398 . S
C2246 C2247 1.391 . S
C2247 H2235 0.950 . S
C2247 C2243 1.393 . S
C2247 C2246 1.391 . S
H2248 C2256 0.950 . S
H2249 C2261 0.950 . S
H2250 C2258 0.950 . S
H2251 C2260 0.950 . S
H2252 C2262 0.950 . S
H2253 C2264 0.950 . S
H2254 C2266 0.950 . S
H2255 C2267 0.950 . S
C2256 H2248 0.950 . S
C2256 C2257 1.386 . S
C2256 C2258 1.391 . S
C2257 C2256 1.386 . S
C2257 C2261 1.393 . S
C2258 H2250 0.950 . S
C2258 C2256 1.391 . S
C2258 C2259 1.400 . S
C2259 C2258 1.400 . S
C2259 C2260 1.398 . S
C2259 C2265 1.491 . S
C2260 H2251 0.950 . S
C2260 C2259 1.398 . S
C2260 C2261 1.391 . S
C2261 H2249 0.950 . S
C2261 C2257 1.393 . S
C2261 C2260 1.391 . S
C2262 H2252 0.950 . S
C2262 C2263 1.386 . S
C2262 C2264 1.391 . S
C2263 C2262 1.386 . S
C2263 C2267 1.393 . S
C2264 H2253 0.950 . S
C2264 C2262 1.391 . S
C2264 C2265 1.400 . S
C2265 C2259 1.491 . S
C2265 C2264 1.400 . S
C2265 C2266 1.398 . S
C2266 H2254 0.950 . S
C2266 C2265 1.398 . S
C2266 C2267 1.391 . S
C2267 H2255 0.950 . S
C2267 C2263 1.393 . S
C2267 C2266 1.391 . S
C837 N2 1.384 . S
C843 N416 1.383 . S
C857 C30 1.407 . S
C863 N439 1.363 . S
C877 N462 1.365 . S
C883 N48 1.365 . S
C897 N71 1.365 . S
C903 N761 1.365 . S
C917 N784 1.369 . S
C923 C99 1.408 . S
C937 N117 1.378 . S
C943 N807 1.377 . S
C957 N554 1.395 . S
C963 N140 1.394 . S
C977 N163 1.381 . S
C983 C582 1.408 . S
C997 N186 1.383 . S
C1003 N600 1.383 . S
C1017 N209 1.358 . S
C1023 N347 1.359 . S
C1037 C375 1.407 . S
C1043 N232 1.381 . S
C1057 N255 1.381 . S
C1063 N393 1.382 . S
C1077 N278 1.372 . S
C1083 N692 1.371 . S
C1097 C306 1.406 . S
C1103 N715 1.377 . S
C1117 N324 1.360 . S
C1123 N738 1.360 . S
C1137 N485 1.357 . S
C1143 N623 1.358 . S
C1157 N508 1.380 . S
C1163 C651 1.408 . S
C1177 N531 1.397 . S
C1183 N669 1.398 . S
C1197 N173 1.472 . S
C1203 C16 1.485 . S
C1217 N196 1.517 . S
C1223 N35 1.561 . S
C1237 C62 1.573 . S
C1243 N150 1.554 . S
C1257 N265 1.568 . S
C1263 C85 1.589 . S
C1277 N219 1.500 . S
C1283 N104 1.552 . S
C1297 N242 1.461 . S
C1303 C131 1.480 . S
C1317 C154 1.666 . S
C1323 C39 1.688 . S
C1337 C177 1.623 . S
C1343 N58 1.636 . S
C1357 C200 1.649 . S
C1363 N12 1.644 . S
C1377 C223 1.637 . S
C1383 N127 1.627 . S
C1397 N81 1.628 . S
C1403 C246 1.614 . S
C1417 C108 1.694 . S
C1423 C269 1.670 . S
C1437 C292 1.496 . S
C1443 N449 1.483 . S
C1457 N311 1.546 . S
C1463 N472 1.506 . S
C1477 C338 1.582 . S
C1483 N426 1.572 . S
C1497 N541 1.555 . S
C1503 C361 1.572 . S
C1517 N380 1.548 . S
C1523 N495 1.502 . S
C1537 N518 1.480 . S
C1543 C407 1.492 . S
C1557 C430 1.666 . S
C1563 C315 1.697 . S
C1577 N334 1.619 . S
C1583 C453 1.611 . S
C1597 N288 1.628 . S
C1603 C476 1.630 . S
C1617 C499 1.631 . S
C1623 N403 1.626 . S
C1637 C522 1.630 . S
C1643 N357 1.633 . S
C1657 C545 1.670 . S
C1663 C384 1.691 . S
C1677 N725 1.480 . S
C1683 C568 1.493 . S
C1697 N587 1.558 . S
C1703 N748 1.503 . S
C1717 C614 1.590 . S
C1723 N702 1.577 . S
C1737 N817 1.573 . S
C1743 C637 1.591 . S
C1757 N771 1.514 . S
C1763 N656 1.545 . S
C1777 N794 1.460 . S
C1783 C683 1.483 . S
C1797 C591 1.687 . S
C1803 C706 1.665 . S
C1817 N610 1.637 . S
C1823 C729 1.632 . S
C1837 N564 1.643 . S
C1843 C752 1.642 . S
C1857 C775 1.646 . S
C1863 N679 1.645 . S
C1877 N633 1.638 . S
C1883 C798 1.631 . S
C1897 C821 1.670 . S
C1903 C660 1.693 . S
C1917 C7 1.474 . S
C1923 C674 1.485 . S
C1937 C628 1.588 . S
C1943 N25 1.492 1_565 S
C1957 C53 1.585 . S
C1963 N646 1.466 . S
C1977 C76 1.579 . S
C1983 N301 1.494 . S
C1997 C329 1.589 . S
C2003 N94 1.467 1_545 S
C2017 C122 1.475 . S
C2023 C283 1.479 . S
C2037 C536 1.863 . S
C2043 C145 1.861 . S
C2057 C168 1.885 . S
C2063 C490 1.901 . S
C2077 C191 1.903 . S
C2083 C513 1.887 . S
C2097 C214 1.904 . S
C2103 C720 1.893 . S
C2117 C237 1.898 . S
C2123 C743 1.898 . S
C2137 C697 1.860 . S
C2143 C260 1.868 . S
C2157 C352 1.590 . S
C2163 N577 1.485 . S
C2177 C605 1.582 . S
C2183 N370 1.471 . S
C2197 C559 1.480 . S
C2203 C398 1.482 . S
C2217 C812 1.870 . S
C2223 C421 1.867 . S
C2237 C444 1.893 . S
C2243 C766 1.893 . S
C2257 C467 1.902 . S
C2263 C789 1.896 . S
