# Generated by pormake.
# Topology dia, (4)-cn, num edge types: 1
# Building blocks:
#     Node 0, Type 0, BuildingBlock: NAHDIM_clean_sbu_0, # of connection points: 4
#     Node 1, Type 0, BuildingBlock: NAHDIM_clean_sbu_0, # of connection points: 4
#     Node 2, Type 0, BuildingBlock: NAHDIM_clean_sbu_0, # of connection points: 4
#     Node 3, Type 0, BuildingBlock: NAHDIM_clean_sbu_0, # of connection points: 4
#     Node 4, Type 0, BuildingBlock: NAHDIM_clean_sbu_0, # of connection points: 4
#     Node 5, Type 0, BuildingBlock: NAHDIM_clean_sbu_0, # of connection points: 4
#     Node 6, Type 0, BuildingBlock: NAHDIM_clean_sbu_0, # of connection points: 4
#     Node 7, Type 0, BuildingBlock: NAHDIM_clean_sbu_0, # of connection points: 4
#     Edge 8, Type (0, 0), BuildingBlock: XUDNAN_clean_linker_2, # of connection points: 2
#     Edge 9, Type (0, 0), BuildingBlock: XUDNAN_clean_linker_2, # of connection points: 2
#     Edge 10, Type (0, 0), BuildingBlock: XUDNAN_clean_linker_2, # of connection points: 2
#     Edge 11, Type (0, 0), BuildingBlock: XUDNAN_clean_linker_2, # of connection points: 2
#     Edge 12, Type (0, 0), BuildingBlock: XUDNAN_clean_linker_2, # of connection points: 2
#     Edge 13, Type (0, 0), BuildingBlock: XUDNAN_clean_linker_2, # of connection points: 2
#     Edge 14, Type (0, 0), BuildingBlock: XUDNAN_clean_linker_2, # of connection points: 2
#     Edge 15, Type (0, 0), BuildingBlock: XUDNAN_clean_linker_2, # of connection points: 2
#     Edge 16, Type (0, 0), BuildingBlock: XUDNAN_clean_linker_2, # of connection points: 2
#     Edge 17, Type (0, 0), BuildingBlock: XUDNAN_clean_linker_2, # of connection points: 2
#     Edge 18, Type (0, 0), BuildingBlock: XUDNAN_clean_linker_2, # of connection points: 2
#     Edge 19, Type (0, 0), BuildingBlock: XUDNAN_clean_linker_2, # of connection points: 2
#     Edge 20, Type (0, 0), BuildingBlock: XUDNAN_clean_linker_2, # of connection points: 2
#     Edge 21, Type (0, 0), BuildingBlock: XUDNAN_clean_linker_2, # of connection points: 2
#     Edge 22, Type (0, 0), BuildingBlock: XUDNAN_clean_linker_2, # of connection points: 2
#     Edge 23, Type (0, 0), BuildingBlock: XUDNAN_clean_linker_2, # of connection points: 2
# Relax obj value: 0.005
# Max RMSD: 0.034
# Mean RMSD: 0.034
data_MOF--net-dia--node1-NAHDIM_clean_sbu_0--edge1-XUDNAN_clean_linker_2
_symmetry_space_group_name_H-M    P1
_symmetry_Int_Tables_number       1
_symmetry_cell_setting            triclinic
loop_
_symmetry_equiv_pos_as_xyz
'x, y, z'
_cell_length_a     37.092238
_cell_length_b     34.015842
_cell_length_c     33.982798
_cell_angle_alpha  88.847191
_cell_angle_beta   93.506633
_cell_angle_gamma 93.499566
loop_
_atom_site_label
_atom_site_type_symbol
_atom_site_fract_x
_atom_site_fract_y
_atom_site_fract_z
_atom_type_partial_charge
C0 C 0.0826 0.14144 0.69396 0.0
O1 O 0.08773 0.10362 0.69768 0.0
O2 O 0.17226 0.109 0.67978 0.0
Zn3 Zn 0.13515 0.13046 0.64017 0.0
O4 O 0.1054 0.0856 0.61357 0.0
C5 C 0.17883 0.14471 0.57507 0.0
O6 O 0.17813 0.1061 0.5779 0.0
O7 O 0.10095 0.16188 0.66963 0.0
C8 C 0.08766 0.09141 0.58098 0.0
O9 O 0.0894 0.12674 0.5646 0.0
C10 C 0.18489 0.07521 0.67764 0.0
O11 O 0.17341 0.05213 0.64838 0.0
O12 O 0.16153 0.16334 0.59918 0.0
C13 C 0.91255 0.29848 0.82668 0.0
O14 O 0.8833 0.28643 0.84443 0.0
O15 O 0.86177 0.34803 0.89188 0.0
Zn16 Zn 0.8904 0.37481 0.84889 0.0
O17 O 0.92347 0.42015 0.87038 0.0
C18 C 0.83804 0.42619 0.81285 0.0
O19 O 0.84509 0.44554 0.84576 0.0
O20 O 0.92102 0.33522 0.82439 0.0
C21 C 0.92053 0.43613 0.90349 0.0
O22 O 0.89436 0.42346 0.92572 0.0
C23 C 0.87648 0.33354 0.92324 0.0
O24 O 0.9119 0.33654 0.92888 0.0
O25 O 0.85459 0.39527 0.80737 0.0
C26 C 0.60247 0.1768 0.19107 0.0
O27 O 0.6108 0.14538 0.21197 0.0
O28 O 0.67743 0.11877 0.18576 0.0
Zn29 Zn 0.6536 0.14733 0.13951 0.0
O30 O 0.628 0.1062 0.10389 0.0
C31 C 0.69176 0.19213 0.07729 0.0
O32 O 0.66137 0.18706 0.05559 0.0
O33 O 0.61742 0.1839 0.15874 0.0
C34 C 0.60239 0.11303 0.07855 0.0
O35 O 0.59171 0.14904 0.07397 0.0
C36 C 0.69843 0.09167 0.17952 0.0
O37 O 0.70393 0.08285 0.14299 0.0
O38 O 0.69366 0.17821 0.11232 0.0
C39 C 0.92431 0.79488 0.36117 0.0
O40 O 0.91625 0.78703 0.39774 0.0
O41 O 0.8426 0.81665 0.39958 0.0
Zn42 Zn 0.87946 0.85552 0.37667 0.0
O43 O 0.91087 0.8824 0.4201 0.0
C44 C 0.83589 0.92083 0.36275 0.0
O45 O 0.8378 0.91921 0.40146 0.0
O46 O 0.91146 0.82488 0.34378 0.0
C47 C 0.92856 0.91461 0.41266 0.0
O48 O 0.92582 0.92978 0.37681 0.0
C49 C 0.82905 0.81977 0.43279 0.0
O50 O 0.83928 0.85011 0.45496 0.0
O51 O 0.85247 0.8961 0.34413 0.0
C52 C 0.07686 0.65229 0.19183 0.0
O53 O 0.08598 0.61557 0.19455 0.0
O54 O 0.15044 0.61064 0.15268 0.0
Zn55 Zn 0.11871 0.64991 0.12398 0.0
O56 O 0.0857 0.62156 0.08227 0.0
C57 C 0.17673 0.68463 0.07855 0.0
O58 O 0.18106 0.64766 0.0705 0.0
O59 O 0.0877 0.67375 0.16331 0.0
C60 C 0.08507 0.62967 0.04554 0.0
O61 O 0.10612 0.659 0.03273 0.0
C62 C 0.1564 0.57804 0.13735 0.0
O63 O 0.14183 0.56981 0.10204 0.0
O64 O 0.15148 0.69272 0.10023 0.0
C65 C 0.42206 0.31554 0.32703 0.0
O66 O 0.41736 0.29891 0.36172 0.0
O67 O 0.33677 0.31921 0.37458 0.0
Zn68 Zn 0.36427 0.36443 0.34806 0.0
O69 O 0.38777 0.39978 0.39049 0.0
C70 C 0.31585 0.42527 0.31612 0.0
O71 O 0.32357 0.44384 0.34938 0.0
O72 O 0.40276 0.34373 0.31564 0.0
C73 C 0.40792 0.43052 0.38397 0.0
O74 O 0.41352 0.44132 0.34741 0.0
C75 C 0.31548 0.32589 0.40132 0.0
O76 O 0.31134 0.3625 0.4109 0.0
O77 O 0.3298 0.39274 0.31062 0.0
C78 C 0.43558 0.80434 0.86441 0.0
O79 O 0.43038 0.80113 0.90227 0.0
O80 O 0.36242 0.84254 0.9115 0.0
Zn81 Zn 0.39783 0.87238 0.87667 0.0
O82 O 0.43598 0.90215 0.91172 0.0
C83 C 0.35796 0.94046 0.85631 0.0
O84 O 0.36632 0.94753 0.89371 0.0
O85 O 0.42326 0.83354 0.8451 0.0
C86 C 0.45109 0.93561 0.90339 0.0
O87 O 0.44235 0.95304 0.86961 0.0
C88 C 0.35471 0.85713 0.94391 0.0
O89 O 0.37073 0.89096 0.95495 0.0
O90 O 0.36916 0.90982 0.84128 0.0
C91 C 0.57557 0.63926 0.70213 0.0
O92 O 0.58208 0.60189 0.70709 0.0
O93 O 0.64541 0.58925 0.66174 0.0
Zn94 Zn 0.61078 0.62526 0.63231 0.0
O95 O 0.57218 0.59177 0.60144 0.0
C96 C 0.65407 0.6434 0.5672 0.0
O97 O 0.6472 0.60541 0.5624 0.0
O98 O 0.58598 0.65731 0.67131 0.0
C99 C 0.55893 0.60012 0.56709 0.0
O100 O 0.5699 0.63309 0.54956 0.0
C101 C 0.64935 0.55474 0.64952 0.0
O102 O 0.62988 0.54213 0.61821 0.0
O103 O 0.64049 0.66 0.59559 0.0
H104 H 0.26956 0.33018 0.4614 0.0
H105 H 0.31808 0.24686 0.38848 0.0
H106 H 0.28719 0.19182 0.42402 0.0
H107 H 0.27683 0.27424 0.55125 0.0
H108 H 0.23415 0.28773 0.56799 0.0
H109 H 0.25912 0.32071 0.53603 0.0
H110 H 0.20334 0.32159 0.4863 0.0
H111 H 0.17818 0.28862 0.51814 0.0
H112 H 0.18287 0.27573 0.46759 0.0
H113 H 0.25233 0.14588 0.46828 0.0
H114 H 0.21589 0.11188 0.51832 0.0
H115 H 0.18978 0.22491 0.56277 0.0
C116 C 0.27358 0.30038 0.45273 0.0
C117 C 0.29625 0.29288 0.42206 0.0
C118 C 0.30084 0.2534 0.4118 0.0
C119 C 0.28338 0.22192 0.43181 0.0
C120 C 0.26138 0.23037 0.46197 0.0
C121 C 0.25637 0.2686 0.47239 0.0
C122 C 0.23176 0.26955 0.50636 0.0
C123 C 0.25167 0.28922 0.54255 0.0
C124 C 0.19698 0.29009 0.49383 0.0
C125 C 0.22395 0.22584 0.51361 0.0
C126 C 0.24124 0.20381 0.48758 0.0
C127 C 0.23858 0.16281 0.48875 0.0
C128 C 0.2178 0.14378 0.51736 0.0
C129 C 0.19991 0.16567 0.54453 0.0
C130 C 0.203 0.2073 0.54239 0.0
H131 H 0.69127 0.56888 0.71814 0.0
H132 H 0.66901 0.48343 0.6252 0.0
H133 H 0.71512 0.44176 0.65645 0.0
H134 H 0.78735 0.55962 0.72895 0.0
H135 H 0.78991 0.56429 0.7818 0.0
H136 H 0.75504 0.58756 0.75223 0.0
H137 H 0.70602 0.55098 0.79278 0.0
H138 H 0.74074 0.52768 0.82255 0.0
H139 H 0.70491 0.49803 0.79737 0.0
H140 H 0.76435 0.40976 0.69701 0.0
H141 H 0.81173 0.38848 0.74562 0.0
H142 H 0.80138 0.49401 0.81288 0.0
C143 C 0.69605 0.54139 0.70437 0.0
C144 C 0.6765 0.52949 0.66915 0.0
C145 C 0.68355 0.49321 0.65218 0.0
C146 C 0.70977 0.46932 0.66967 0.0
C147 C 0.72865 0.48198 0.70423 0.0
C148 C 0.72203 0.51704 0.72155 0.0
C149 C 0.74592 0.52358 0.75893 0.0
C150 C 0.77105 0.56098 0.75524 0.0
C151 C 0.72302 0.52515 0.79504 0.0
C152 C 0.76703 0.48677 0.75983 0.0
C153 C 0.75674 0.46326 0.72792 0.0
C154 C 0.77259 0.42788 0.72218 0.0
C155 C 0.79953 0.41608 0.74993 0.0
C156 C 0.81028 0.4395 0.78312 0.0
C157 C 0.79375 0.47536 0.78791 0.0
H158 H 0.55714 0.11819 0.0118 0.0
H159 H 0.60593 0.03397 0.09328 0.0
H160 H 0.57353 0.97936 0.05649 0.0
H161 H 0.47048 0.06751 0.99849 0.0
H162 H 0.46464 0.07952 0.94668 0.0
H163 H 0.49211 0.11202 0.97902 0.0
H164 H 0.54617 0.10732 0.93485 0.0
H165 H 0.51884 0.07482 0.90234 0.0
H166 H 0.56143 0.05961 0.92403 0.0
H167 H 0.53306 0.93414 0.01328 0.0
H168 H 0.49032 0.90123 0.96397 0.0
H169 H 0.47039 0.01453 0.90852 0.0
C170 C 0.56109 0.08826 0.02184 0.0
C171 C 0.58397 0.08036 0.05551 0.0
C172 C 0.5886 0.04075 0.06753 0.0
C173 C 0.57027 0.00953 0.04687 0.0
C174 C 0.54775 0.01834 0.01397 0.0
C175 C 0.54338 0.0567 1.00125 0.0
C176 C 0.51775 0.0581 0.96483 0.0
C177 C 0.48426 0.08061 0.97275 0.0
C178 C 0.53722 0.07602 0.92942 0.0
C179 C 0.50801 0.01457 0.9594 0.0
C180 C 0.52546 0.99216 0.98818 0.0
C181 C 0.51955 0.95134 0.99033 0.0
C182 C 0.49516 0.93293 0.96229 0.0
C183 C 0.47731 0.95528 0.93226 0.0
C184 C 0.48406 0.99661 0.93078 0.0
H185 H 0.95365 0.80584 0.28856 0.0
H186 H 0.94731 0.72419 0.38819 0.0
H187 H 0.98536 0.67948 0.35558 0.0
H188 H 0.95067 0.73258 0.21294 0.0
H189 H 0.98267 0.75971 0.18332 0.0
H190 H 0.95465 0.78564 0.21424 0.0
H191 H 0.01182 0.82062 0.24843 0.0
H192 H 0.04003 0.79481 0.21762 0.0
H193 H 0.04696 0.7915 0.27052 0.0
H194 H 0.02298 0.64295 0.31242 0.0
H195 H 0.05973 0.61747 0.26175 0.0
H196 H 0.04368 0.72289 0.19014 0.0
C197 C 0.96024 0.77853 0.30346 0.0
C198 C 0.94739 0.76854 0.34096 0.0
C199 C 0.9568 0.7326 0.35953 0.0
C200 C 0.9784 0.70691 0.34123 0.0
C201 C 0.99061 0.71758 0.30438 0.0
C202 C 0.98207 0.75255 0.28568 0.0
C203 C 0.99918 0.75691 0.24625 0.0
C204 C 0.97005 0.75881 0.21218 0.0
C205 C 0.0261 0.79311 0.24569 0.0
C206 C 0.01853 0.71889 0.24578 0.0
C207 C 0.01303 0.69664 0.27958 0.0
C208 C 0.02759 0.66012 0.28585 0.0
C209 C 0.0484 0.64588 0.25682 0.0
C210 C 0.05469 0.66817 0.22198 0.0
C211 C 0.03954 0.70523 0.21653 0.0
H212 H 0.32191 0.92776 0.78384 0.0
H213 H 0.34163 0.01426 0.87612 0.0
H214 H 0.30104 0.05867 0.83947 0.0
H215 H 0.3163 0.99766 0.70101 0.0
H216 H 0.28036 0.96911 0.67474 0.0
H217 H 0.31258 0.94482 0.70714 0.0
H218 H 0.26012 0.91218 0.74557 0.0
H219 H 0.22777 0.93647 0.71342 0.0
H220 H 0.22812 0.94273 0.76598 0.0
H221 H 0.25703 0.09293 0.79429 0.0
H222 H 0.21201 0.11477 0.74337 0.0
H223 H 0.21967 0.00588 0.6806 0.0
C224 C 0.31802 0.95624 0.79607 0.0
C225 C 0.33506 0.96758 0.83281 0.0
C226 C 0.32887 0.00489 0.84806 0.0
C227 C 0.30591 0.03039 0.82744 0.0
C228 C 0.28918 0.01816 0.7916 0.0
C229 C 0.2949 0.98202 0.77597 0.0
C230 C 0.27246 0.97557 0.73756 0.0
C231 C 0.29689 0.97156 0.70307 0.0
C232 C 0.24552 0.93961 0.74085 0.0
C233 C 0.25312 0.01362 0.73427 0.0
C234 C 0.26333 0.03782 0.76567 0.0
C235 C 0.24889 0.07431 0.76946 0.0
C236 C 0.2233 0.08644 0.74037 0.0
C237 C 0.21225 0.06209 0.70794 0.0
C238 C 0.22752 0.02522 0.70497 0.0
H239 H 0.93297 0.46393 0.97859 0.0
H240 H 0.96769 0.4806 0.8594 0.0
H241 H 0.01206 0.5336 0.8824 0.0
H242 H 0.94202 0.56648 0.00662 0.0
H243 H 0.95887 0.55563 0.05629 0.0
H244 H 0.92869 0.52031 0.0301 0.0
H245 H 0.97559 0.46724 0.04207 0.0
H246 H 1.00589 0.50238 0.06828 0.0
H247 H 0.02098 0.47713 0.02672 0.0
H248 H 0.05269 0.58474 0.91846 0.0
H249 H 0.08901 0.62772 0.96549 0.0
H250 H 0.02948 0.57572 0.06162 0.0
C251 C 0.94969 0.47895 0.95724 0.0
C252 C 0.94673 0.46829 0.91713 0.0
C253 C 0.96948 0.48828 0.89026 0.0
C254 C 0.99468 0.5185 0.90302 0.0
C255 C 0.99698 0.52817 0.94279 0.0
C256 C 0.97527 0.50884 0.96956 0.0
C257 C 0.98415 0.52379 0.01094 0.0
C258 C 0.95149 0.54268 0.02692 0.0
C259 C 0.99745 0.49066 0.03862 0.0
C260 C 0.0144 0.55443 0.0033 0.0
C261 C 0.02111 0.55679 0.96375 0.0
C262 C 0.04769 0.58312 0.94951 0.0
C263 C 0.06813 0.60748 0.97646 0.0
C264 C 0.06217 0.60504 0.01725 0.0
C265 C 0.03481 0.57819 0.03066 0.0
H266 H 0.46592 0.25387 0.34104 0.0
H267 H 0.43896 0.3443 0.25402 0.0
H268 H 0.48281 0.31945 0.21017 0.0
H269 H 0.56162 0.25594 0.32502 0.0
H270 H 0.56415 0.20347 0.33181 0.0
H271 H 0.53123 0.22899 0.35668 0.0
H272 H 0.47995 0.18212 0.32575 0.0
H273 H 0.51269 0.1565 0.30076 0.0
H274 H 0.47522 0.17712 0.27294 0.0
H275 H 0.52926 0.28407 0.1753 0.0
H276 H 0.57427 0.24055 0.15209 0.0
H277 H 0.57029 0.17307 0.26173 0.0
C278 C 0.4693 0.26859 0.31284 0.0
C279 C 0.44896 0.30109 0.30104 0.0
C280 C 0.4542 0.31938 0.26379 0.0
C281 C 0.47908 0.30549 0.23865 0.0
C282 C 0.49856 0.2733 0.25114 0.0
C283 C 0.49397 0.2551 0.28737 0.0
C284 C 0.51789 0.2207 0.29356 0.0
C285 C 0.54535 0.22771 0.32886 0.0
C286 C 0.49506 0.18181 0.29853 0.0
C287 C 0.53641 0.22216 0.25501 0.0
C288 C 0.52505 0.25282 0.231 0.0
C289 C 0.53839 0.25999 0.19389 0.0
C290 C 0.56396 0.23512 0.18096 0.0
C291 C 0.57583 0.20335 0.20502 0.0
C292 C 0.56178 0.19701 0.24254 0.0
H293 H 0.79013 0.81992 0.49923 0.0
H294 H 0.80695 0.7505 0.39676 0.0
H295 H 0.76259 0.69919 0.41908 0.0
H296 H 0.78138 0.73924 0.56768 0.0
H297 H 0.74659 0.76009 0.59404 0.0
H298 H 0.77907 0.79195 0.56961 0.0
H299 H 0.72691 0.82547 0.53036 0.0
H300 H 0.69425 0.79364 0.55463 0.0
H301 H 0.69359 0.7957 0.50155 0.0
H302 H 0.71824 0.65446 0.4533 0.0
H303 H 0.6761 0.61922 0.49703 0.0
H304 H 0.68669 0.71789 0.57689 0.0
C305 C 0.78443 0.79398 0.48142 0.0
C306 C 0.80208 0.78927 0.44622 0.0
C307 C 0.79379 0.75486 0.42378 0.0
C308 C 0.7686 0.72553 0.4362 0.0
C309 C 0.75175 0.73107 0.47101 0.0
C310 C 0.75919 0.76444 0.49328 0.0
C311 C 0.73751 0.76283 0.52977 0.0
C312 C 0.76264 0.76356 0.5675 0.0
C313 C 0.71152 0.7964 0.52901 0.0
C314 C 0.71702 0.72313 0.52469 0.0
C315 C 0.72567 0.70539 0.49056 0.0
C316 C 0.71108 0.66814 0.47999 0.0
C317 C 0.6872 0.64834 0.50508 0.0
C318 C 0.67798 0.66582 0.54032 0.0
C319 C 0.69293 0.7039 0.54998 0.0
H320 H 0.19125 0.5856 0.21101 0.0
H321 H 0.17372 0.50605 0.11236 0.0
H322 H 0.21204 0.45844 0.14767 0.0
H323 H 0.28445 0.56603 0.23405 0.0
H324 H 0.28124 0.56874 0.28663 0.0
H325 H 0.2521 0.5966 0.25382 0.0
H326 H 0.19587 0.56382 0.28573 0.0
H327 H 0.22483 0.53585 0.31864 0.0
H328 H 0.18976 0.51084 0.28779 0.0
H329 H 0.25244 0.41965 0.19309 0.0
H330 H 0.29246 0.39204 0.24579 0.0
H331 H 0.28394 0.49644 0.3154 0.0
C332 C 0.19543 0.55816 0.19683 0.0
C333 C 0.17944 0.5496 0.15885 0.0
C334 C 0.18565 0.51334 0.14138 0.0
C335 C 0.20738 0.48606 0.16121 0.0
C336 C 0.22273 0.49542 0.19852 0.0
C337 C 0.21708 0.53055 0.21621 0.0
C338 C 0.23695 0.53335 0.25651 0.0
C339 C 0.26537 0.56825 0.25781 0.0
C340 C 0.21025 0.53612 0.28909 0.0
C341 C 0.25467 0.4943 0.25864 0.0
C342 C 0.24607 0.47292 0.22486 0.0
C343 C 0.25935 0.43609 0.21972 0.0
C344 C 0.2821 0.42067 0.24987 0.0
C345 C 0.29139 0.44201 0.28482 0.0
C346 C 0.27733 0.47932 0.28914 0.0
H347 H 0.80461 0.30902 0.91432 0.0
H348 H 0.89744 0.3113 0.99867 0.0
H349 H 0.86003 0.27635 0.04761 0.0
H350 H 0.73683 0.32358 0.98337 0.0
H351 H 0.70336 0.29028 0.95901 0.0
H352 H 0.73724 0.31628 0.931 0.0
H353 H 0.75663 0.24998 0.90538 0.0
H354 H 0.72284 0.22377 0.93334 0.0
H355 H 0.76954 0.21196 0.94025 0.0
H356 H 0.81257 0.24086 0.08721 0.0
H357 H 0.75891 0.20624 0.11427 0.0
H358 H 0.69729 0.22609 0.00357 0.0
C359 C 0.81705 0.3024 0.94316 0.0
C360 C 0.85395 0.31303 0.95273 0.0
C361 C 0.86925 0.30342 0.99066 0.0
C362 C 0.84821 0.28363 0.01867 0.0
C363 C 0.81197 0.27345 0.00823 0.0
C364 C 0.79653 0.28238 0.97135 0.0
C365 C 0.75722 0.26726 0.96722 0.0
C366 C 0.73219 0.30139 0.95972 0.0
C367 C 0.75122 0.23641 0.93462 0.0
C368 C 0.75288 0.24864 0.00765 0.0
C369 C 0.78476 0.25258 0.03086 0.0
C370 C 0.78746 0.23759 0.06931 0.0
C371 C 0.75679 0.21797 0.08441 0.0
C372 C 0.72381 0.2134 0.06109 0.0
C373 C 0.72201 0.22908 0.02221 0.0
H374 H 0.82402 0.93156 0.28249 0.0
H375 H 0.79822 0.97735 0.39514 0.0
H376 H 0.76068 0.02612 0.36059 0.0
H377 H 0.82977 0.02536 0.2305 0.0
H378 H 0.80944 0.00577 0.18493 0.0
H379 H 0.83475 0.97466 0.2185 0.0
H380 H 0.77931 0.92459 0.22028 0.0
H381 H 0.75381 0.95558 0.18679 0.0
H382 H 0.73647 0.94103 0.23365 0.0
H383 H 0.72508 0.06926 0.31407 0.0
H384 H 0.69453 0.10443 0.25849 0.0
H385 H 0.74353 0.03088 0.17607 0.0
C386 C 0.81059 0.95193 0.2999 0.0
C387 C 0.8141 0.95058 0.34157 0.0
C388 C 0.79599 0.97774 0.36321 0.0
C389 C 0.77456 0.0056 0.34387 0.0
C390 C 0.77152 0.006 0.30283 0.0
C391 C 0.78906 0.97997 0.28106 0.0
C392 C 0.78103 0.98653 0.23724 0.0
C393 C 0.81582 0.99882 0.21659 0.0
C394 C 0.76149 0.94974 0.21839 0.0
C395 C 0.75617 0.02022 0.23784 0.0
C396 C 0.75103 0.03099 0.27597 0.0
C397 C 0.72895 0.06117 0.28405 0.0
C398 C 0.71169 0.08095 0.25227 0.0
C399 C 0.71664 0.07049 0.21289 0.0
C400 C 0.73922 0.03967 0.20578 0.0
H401 H 0.96225 0.9884 0.40891 0.0
H402 H 0.94787 0.88666 0.4868 0.0
H403 H 0.98769 0.92039 0.53826 0.0
H404 H 0.0557 0.01255 0.43713 0.0
H405 H 0.05113 0.06499 0.43417 0.0
H406 H 0.02183 0.03262 0.40347 0.0
H407 H 0.96566 0.0616 0.43106 0.0
H408 H 0.99478 0.0941 0.4618 0.0
H409 H 0.96118 0.06141 0.4836 0.0
H410 H 0.03001 0.96516 0.58085 0.0
H411 H 0.0693 0.01845 0.61223 0.0
H412 H 0.05437 0.09122 0.50675 0.0
C413 C 0.96749 0.97312 0.43674 0.0
C414 C 0.95204 0.93481 0.44377 0.0
C415 C 0.95941 0.91601 0.48074 0.0
C416 C 0.98204 0.9349 0.51012 0.0
C417 C 0.9969 0.97264 0.50214 0.0
C418 C 0.98976 0.99162 0.46643 0.0
C419 C 0.00856 0.03237 0.46545 0.0
C420 C 0.03593 0.03581 0.43314 0.0
C421 C 0.98089 0.06424 0.46018 0.0
C422 C 0.02746 0.03339 0.50619 0.0
C423 C 0.02059 0.9986 0.52684 0.0
C424 C 0.03548 0.99256 0.56499 0.0
C425 C 0.05782 0.02298 0.58253 0.0
C426 C 0.06483 0.05905 0.56201 0.0
C427 C 0.04942 0.0641 0.52331 0.0
H428 H 0.96721 0.31145 0.77538 0.0
H429 H 0.90999 0.21937 0.84156 0.0
H430 H 0.94786 0.17009 0.81549 0.0
H431 H 0.97553 0.25353 0.68897 0.0
H432 H 0.01999 0.2745 0.67932 0.0
H433 H 0.98905 0.30309 0.70387 0.0
H434 H 0.0367 0.3143 0.76213 0.0
H435 H 0.06779 0.28574 0.73777 0.0
H436 H 0.05578 0.27242 0.78709 0.0
H437 H 0.99155 0.13077 0.78301 0.0
H438 H 0.03741 0.10301 0.74417 0.0
H439 H 0.06615 0.21963 0.69704 0.0
C440 C 0.96276 0.28094 0.78448 0.0
C441 C 0.93562 0.2693 0.81061 0.0
C442 C 0.93047 0.22903 0.82152 0.0
C443 C 0.95192 0.20078 0.80694 0.0
C444 C 0.97831 0.21315 0.78123 0.0
C445 C 0.98376 0.25218 0.76986 0.0
C446 C 0.01348 0.25724 0.74103 0.0
C447 C 0.99862 0.27302 0.70092 0.0
C448 C 0.04533 0.28401 0.75804 0.0
C449 C 0.02394 0.21498 0.7382 0.0
C450 C 1.00332 0.19016 0.76178 0.0
C451 C 0.00783 0.14987 0.76436 0.0
C452 C 0.03404 0.1344 0.74213 0.0
C453 C 0.05543 0.15906 0.71743 0.0
C454 C 0.05024 0.19997 0.71556 0.0
H455 H 0.54555 0.71173 0.69592 0.0
H456 H 0.56052 0.6118 0.77556 0.0
H457 H 0.52644 0.64327 0.82499 0.0
H458 H 0.55355 0.78698 0.77043 0.0
H459 H 0.51897 0.81581 0.74677 0.0
H460 H 0.54527 0.78593 0.71761 0.0
H461 H 0.48633 0.75061 0.68773 0.0
H462 H 0.45986 0.78028 0.71689 0.0
H463 H 0.4544 0.72732 0.72009 0.0
H464 H 0.49113 0.6849 0.86591 0.0
H465 H 0.45593 0.73423 0.89593 0.0
H466 H 0.46188 0.80721 0.78988 0.0
C467 C 0.54183 0.69661 0.72385 0.0
C468 C 0.55582 0.65928 0.73186 0.0
C469 C 0.55007 0.64033 0.76865 0.0
C470 C 0.53075 0.65798 0.797 0.0
C471 C 0.51712 0.69456 0.78812 0.0
C472 C 0.52228 0.71371 0.75249 0.0
C473 C 0.50413 0.75259 0.75038 0.0
C474 C 0.53215 0.78738 0.74605 0.0
C475 C 0.47441 0.75269 0.71678 0.0
C476 C 0.48807 0.75223 0.79043 0.0
C477 C 0.49605 0.71848 0.81167 0.0
C478 C 0.48464 0.71144 0.84957 0.0
C479 C 0.46465 0.73971 0.86637 0.0
C480 C 0.45603 0.7746 0.8453 0.0
C481 C 0.46783 0.78076 0.80669 0.0
H482 H 0.22354 0.67967 0.01954 0.0
H483 H 0.18487 0.76148 0.10151 0.0
H484 H 0.22642 0.81419 0.07611 0.0
H485 H 0.31658 0.71574 0.02513 0.0
H486 H 0.32254 0.70942 0.97344 0.0
H487 H 0.2899 0.67799 0.99814 0.0
H488 H 0.2395 0.69797 0.94675 0.0
H489 H 0.272 0.72941 0.92184 0.0
H490 H 0.23179 0.74939 0.93851 0.0
H491 H 0.27347 0.85732 0.04348 0.0
H492 H 0.32025 0.88927 0.00304 0.0
H493 H 0.3267 0.7803 0.94015 0.0
C494 C 0.22382 0.70866 0.03218 0.0
C495 C 0.20105 0.71643 0.06265 0.0
C496 C 0.20202 0.75485 0.07814 0.0
C497 C 0.22559 0.78496 0.06397 0.0
C498 C 0.24777 0.77627 0.03405 0.0
C499 C 0.24689 0.73918 0.01807 0.0
C500 C 0.27308 0.73785 0.98563 0.0
C501 C 0.30225 0.70851 0.99623 0.0
C502 C 0.25288 0.72809 0.94583 0.0
C503 C 0.289 0.77995 0.98604 0.0
C504 C 0.27417 0.8015 0.01439 0.0
C505 C 0.28513 0.84081 0.02104 0.0
C506 C 0.31181 0.85866 0.99797 0.0
C507 C 0.32705 0.83735 0.96834 0.0
C508 C 0.31537 0.79745 0.96237 0.0
H509 H 0.45071 0.49941 0.38121 0.0
H510 H 0.40639 0.41174 0.46256 0.0
H511 H 0.43858 0.44683 0.5183 0.0
H512 H 0.53794 0.51228 0.43025 0.0
H513 H 0.54268 0.56462 0.42086 0.0
H514 H 0.51505 0.53352 0.38734 0.0
H515 H 0.46042 0.57587 0.39598 0.0
H516 H 0.48792 0.60718 0.42951 0.0
H517 H 0.44604 0.58373 0.44479 0.0
H518 H 0.47815 0.48919 0.56487 0.0
H519 H 0.52071 0.53747 0.59935 0.0
H520 H 0.53802 0.59875 0.48817 0.0
C521 C 0.44755 0.48772 0.41075 0.0
C522 C 0.42602 0.45276 0.41745 0.0
C523 C 0.42267 0.43847 0.45662 0.0
C524 C 0.44087 0.45819 0.48852 0.0
C525 C 0.46212 0.49234 0.48086 0.0
C526 C 0.46538 0.50717 0.44301 0.0
C527 C 0.49038 0.54412 0.44285 0.0
C528 C 0.52347 0.53826 0.41891 0.0
C529 C 0.46996 0.57984 0.42737 0.0
C530 C 0.50097 0.54746 0.48649 0.0
C531 C 0.4844 0.51725 0.50787 0.0
C532 C 0.49104 0.51319 0.5485 0.0
C533 C 0.51531 0.54071 0.56781 0.0
C534 C 0.53251 0.57203 0.54652 0.0
C535 C 0.52497 0.57545 0.50535 0.0
loop_
_geom_bond_atom_site_label_1
_geom_bond_atom_site_label_2
_geom_bond_distance
_geom_bond_site_symmetry_2
_ccdc_geom_bond_type
C0 O1 1.160 . S
C0 O7 1.185 . S
O1 C0 1.160 . S
O2 Zn3 1.899 . S
O2 C10 1.284 . S
Zn3 O2 1.899 . S
Zn3 O4 2.032 . S
Zn3 O7 2.086 . S
Zn3 O12 1.977 . S
O4 Zn3 2.032 . S
O4 C8 1.278 . S
C5 O6 1.203 . S
C5 O12 1.267 . S
O6 C5 1.203 . S
O7 C0 1.185 . S
O7 Zn3 2.086 . S
C8 O4 1.278 . S
C8 O9 1.211 . S
O9 C8 1.211 . S
C10 O2 1.284 . S
C10 O11 1.273 . S
O11 C10 1.273 . S
O12 Zn3 1.977 . S
O12 C5 1.267 . S
C13 O14 1.160 . S
C13 O20 1.185 . S
O14 C13 1.160 . S
O15 Zn16 1.899 . S
O15 C23 1.284 . S
Zn16 O15 1.899 . S
Zn16 O17 2.032 . S
Zn16 O20 2.086 . S
Zn16 O25 1.977 . S
O17 Zn16 2.032 . S
O17 C21 1.278 . S
C18 O19 1.203 . S
C18 O25 1.267 . S
O19 C18 1.203 . S
O20 C13 1.185 . S
O20 Zn16 2.086 . S
C21 O17 1.278 . S
C21 O22 1.211 . S
O22 C21 1.211 . S
C23 O15 1.284 . S
C23 O24 1.273 . S
O24 C23 1.273 . S
O25 Zn16 1.977 . S
O25 C18 1.267 . S
C26 O27 1.160 . S
C26 O33 1.185 . S
O27 C26 1.160 . S
O28 Zn29 1.899 . S
O28 C36 1.284 . S
Zn29 O28 1.899 . S
Zn29 O30 2.032 . S
Zn29 O33 2.086 . S
Zn29 O38 1.977 . S
O30 Zn29 2.032 . S
O30 C34 1.278 . S
C31 O32 1.203 . S
C31 O38 1.267 . S
O32 C31 1.203 . S
O33 C26 1.185 . S
O33 Zn29 2.086 . S
C34 O30 1.278 . S
C34 O35 1.211 . S
O35 C34 1.211 . S
C36 O28 1.284 . S
C36 O37 1.273 . S
O37 C36 1.273 . S
O38 Zn29 1.977 . S
O38 C31 1.267 . S
C39 O40 1.160 . S
C39 O46 1.185 . S
O40 C39 1.160 . S
O41 Zn42 1.899 . S
O41 C49 1.284 . S
Zn42 O41 1.899 . S
Zn42 O43 2.032 . S
Zn42 O46 2.086 . S
Zn42 O51 1.977 . S
O43 Zn42 2.032 . S
O43 C47 1.278 . S
C44 O45 1.203 . S
C44 O51 1.267 . S
O45 C44 1.203 . S
O46 C39 1.185 . S
O46 Zn42 2.086 . S
C47 O43 1.278 . S
C47 O48 1.211 . S
O48 C47 1.211 . S
C49 O41 1.284 . S
C49 O50 1.273 . S
O50 C49 1.273 . S
O51 Zn42 1.977 . S
O51 C44 1.267 . S
C52 O53 1.160 . S
C52 O59 1.185 . S
O53 C52 1.160 . S
O54 Zn55 1.899 . S
O54 C62 1.284 . S
Zn55 O54 1.899 . S
Zn55 O56 2.032 . S
Zn55 O59 2.086 . S
Zn55 O64 1.977 . S
O56 Zn55 2.032 . S
O56 C60 1.278 . S
C57 O58 1.203 . S
C57 O64 1.267 . S
O58 C57 1.203 . S
O59 C52 1.185 . S
O59 Zn55 2.086 . S
C60 O56 1.278 . S
C60 O61 1.211 . S
O61 C60 1.211 . S
C62 O54 1.284 . S
C62 O63 1.273 . S
O63 C62 1.273 . S
O64 Zn55 1.977 . S
O64 C57 1.267 . S
C65 O66 1.160 . S
C65 O72 1.185 . S
O66 C65 1.160 . S
O67 Zn68 1.899 . S
O67 C75 1.284 . S
Zn68 O67 1.899 . S
Zn68 O69 2.032 . S
Zn68 O72 2.086 . S
Zn68 O77 1.977 . S
O69 Zn68 2.032 . S
O69 C73 1.278 . S
C70 O71 1.203 . S
C70 O77 1.267 . S
O71 C70 1.203 . S
O72 C65 1.185 . S
O72 Zn68 2.086 . S
C73 O69 1.278 . S
C73 O74 1.211 . S
O74 C73 1.211 . S
C75 O67 1.284 . S
C75 O76 1.273 . S
O76 C75 1.273 . S
O77 Zn68 1.977 . S
O77 C70 1.267 . S
C78 O79 1.160 . S
C78 O85 1.185 . S
O79 C78 1.160 . S
O80 Zn81 1.899 . S
O80 C88 1.284 . S
Zn81 O80 1.899 . S
Zn81 O82 2.032 . S
Zn81 O85 2.086 . S
Zn81 O90 1.977 . S
O82 Zn81 2.032 . S
O82 C86 1.278 . S
C83 O84 1.203 . S
C83 O90 1.267 . S
O84 C83 1.203 . S
O85 C78 1.185 . S
O85 Zn81 2.086 . S
C86 O82 1.278 . S
C86 O87 1.211 . S
O87 C86 1.211 . S
C88 O80 1.284 . S
C88 O89 1.273 . S
O89 C88 1.273 . S
O90 Zn81 1.977 . S
O90 C83 1.267 . S
C91 O92 1.160 . S
C91 O98 1.185 . S
O92 C91 1.160 . S
O93 Zn94 1.899 . S
O93 C101 1.284 . S
Zn94 O93 1.899 . S
Zn94 O95 2.032 . S
Zn94 O98 2.086 . S
Zn94 O103 1.977 . S
O95 Zn94 2.032 . S
O95 C99 1.278 . S
C96 O97 1.203 . S
C96 O103 1.267 . S
O97 C96 1.203 . S
O98 C91 1.185 . S
O98 Zn94 2.086 . S
C99 O95 1.278 . S
C99 O100 1.211 . S
O100 C99 1.211 . S
C101 O93 1.284 . S
C101 O102 1.273 . S
O102 C101 1.273 . S
O103 Zn94 1.977 . S
O103 C96 1.267 . S
H104 C116 0.930 . S
H105 C118 0.930 . S
H106 C119 0.930 . S
H107 C123 0.959 . S
H108 C123 0.959 . S
H109 C123 0.961 . S
H110 C124 0.960 . S
H111 C124 0.961 . S
H112 C124 0.959 . S
H113 C127 0.929 . S
H114 C128 0.931 . S
H115 C130 0.930 . S
C116 H104 0.930 . S
C116 C117 1.399 . S
C116 C121 1.399 . S
C117 C116 1.399 . S
C117 C118 1.376 . S
C118 H105 0.930 . S
C118 C117 1.376 . S
C118 C119 1.388 . S
C119 H106 0.930 . S
C119 C118 1.388 . S
C119 C120 1.390 . S
C120 C119 1.390 . S
C120 C121 1.394 . S
C120 C126 1.465 . S
C121 C116 1.399 . S
C121 C120 1.394 . S
C121 C122 1.516 . S
C122 C121 1.516 . S
C122 C123 1.502 . S
C122 C124 1.561 . S
C122 C125 1.526 . S
C123 H107 0.959 . S
C123 H108 0.959 . S
C123 H109 0.961 . S
C123 C122 1.502 . S
C124 H110 0.960 . S
C124 H111 0.961 . S
C124 H112 0.959 . S
C124 C122 1.561 . S
C125 C122 1.526 . S
C125 C126 1.396 . S
C125 C130 1.390 . S
C126 C120 1.465 . S
C126 C125 1.396 . S
C126 C127 1.399 . S
C127 H113 0.929 . S
C127 C126 1.399 . S
C127 C128 1.385 . S
C128 H114 0.931 . S
C128 C127 1.385 . S
C128 C129 1.389 . S
C129 C128 1.389 . S
C129 C130 1.387 . S
C130 H115 0.930 . S
C130 C125 1.390 . S
C130 C129 1.387 . S
H131 C143 0.930 . S
H132 C145 0.930 . S
H133 C146 0.930 . S
H134 C150 0.959 . S
H135 C150 0.959 . S
H136 C150 0.961 . S
H137 C151 0.960 . S
H138 C151 0.961 . S
H139 C151 0.959 . S
H140 C154 0.929 . S
H141 C155 0.931 . S
H142 C157 0.930 . S
C143 H131 0.930 . S
C143 C144 1.399 . S
C143 C148 1.399 . S
C144 C143 1.399 . S
C144 C145 1.376 . S
C145 H132 0.930 . S
C145 C144 1.376 . S
C145 C146 1.388 . S
C146 H133 0.930 . S
C146 C145 1.388 . S
C146 C147 1.390 . S
C147 C146 1.390 . S
C147 C148 1.394 . S
C147 C153 1.465 . S
C148 C143 1.399 . S
C148 C147 1.394 . S
C148 C149 1.516 . S
C149 C148 1.516 . S
C149 C150 1.502 . S
C149 C151 1.561 . S
C149 C152 1.526 . S
C150 H134 0.959 . S
C150 H135 0.959 . S
C150 H136 0.961 . S
C150 C149 1.502 . S
C151 H137 0.960 . S
C151 H138 0.961 . S
C151 H139 0.959 . S
C151 C149 1.561 . S
C152 C149 1.526 . S
C152 C153 1.396 . S
C152 C157 1.390 . S
C153 C147 1.465 . S
C153 C152 1.396 . S
C153 C154 1.399 . S
C154 H140 0.929 . S
C154 C153 1.399 . S
C154 C155 1.385 . S
C155 H141 0.931 . S
C155 C154 1.385 . S
C155 C156 1.389 . S
C156 C155 1.389 . S
C156 C157 1.387 . S
C157 H142 0.930 . S
C157 C152 1.390 . S
C157 C156 1.387 . S
H158 C170 0.930 . S
H159 C172 0.930 . S
H160 C173 0.930 . S
H161 C177 0.959 . S
H162 C177 0.959 . S
H163 C177 0.961 . S
H164 C178 0.960 . S
H165 C178 0.961 . S
H166 C178 0.959 . S
H167 C181 0.929 1_554 S
H168 C182 0.931 . S
H169 C184 0.930 . S
C170 H158 0.930 . S
C170 C171 1.399 . S
C170 C175 1.399 . S
C171 C170 1.399 . S
C171 C172 1.376 . S
C172 H159 0.930 . S
C172 C171 1.376 . S
C172 C173 1.388 1_545 S
C173 H160 0.930 . S
C173 C172 1.388 1_565 S
C173 C174 1.390 . S
C174 C173 1.390 . S
C174 C175 1.394 1_565 S
C174 C180 1.465 1_554 S
C175 C170 1.399 . S
C175 C174 1.394 1_545 S
C175 C176 1.516 1_554 S
C176 C175 1.516 1_556 S
C176 C177 1.502 . S
C176 C178 1.561 . S
C176 C179 1.526 1_545 S
C177 H161 0.959 . S
C177 H162 0.959 . S
C177 H163 0.961 . S
C177 C176 1.502 . S
C178 H164 0.960 . S
C178 H165 0.961 . S
C178 H166 0.959 . S
C178 C176 1.561 . S
C179 C176 1.526 1_565 S
C179 C180 1.396 . S
C179 C184 1.390 . S
C180 C174 1.465 1_556 S
C180 C179 1.396 . S
C180 C181 1.399 . S
C181 H167 0.929 1_556 S
C181 C180 1.399 . S
C181 C182 1.385 . S
C182 H168 0.931 . S
C182 C181 1.385 . S
C182 C183 1.389 . S
C183 C182 1.389 . S
C183 C184 1.387 . S
C184 H169 0.930 . S
C184 C179 1.390 . S
C184 C183 1.387 . S
H185 C197 0.930 . S
H186 C199 0.930 . S
H187 C200 0.920 1_455 S
H188 C204 0.959 . S
H189 C204 0.959 . S
H190 C204 0.961 . S
H191 C205 0.960 . S
H192 C205 0.961 . S
H193 C205 0.959 . S
H194 C208 0.929 . S
H195 C209 0.931 . S
H196 C211 0.930 . S
C197 H185 0.930 . S
C197 C198 1.399 . S
C197 C202 1.399 . S
C198 C197 1.399 . S
C198 C199 1.376 . S
C199 H186 0.930 . S
C199 C198 1.376 . S
C199 C200 1.388 . S
C200 H187 0.920 1_655 S
C200 C199 1.388 . S
C200 C201 1.390 . S
C201 C200 1.390 . S
C201 C202 1.394 . S
C201 C207 1.465 1_655 S
C202 C197 1.399 . S
C202 C201 1.394 . S
C202 C203 1.516 . S
C203 C202 1.516 . S
C203 C204 1.502 . S
C203 C205 1.561 1_655 S
C203 C206 1.526 1_655 S
C204 H188 0.959 . S
C204 H189 0.959 . S
C204 H190 0.961 . S
C204 C203 1.502 . S
C205 H191 0.960 . S
C205 H192 0.961 . S
C205 H193 0.959 . S
C205 C203 1.561 1_455 S
C206 C203 1.526 1_455 S
C206 C207 1.396 . S
C206 C211 1.390 . S
C207 C201 1.465 1_455 S
C207 C206 1.396 . S
C207 C208 1.399 . S
C208 H194 0.929 . S
C208 C207 1.399 . S
C208 C209 1.385 . S
C209 H195 0.931 . S
C209 C208 1.385 . S
C209 C210 1.389 . S
C210 C209 1.389 . S
C210 C211 1.387 . S
C211 H196 0.930 . S
C211 C206 1.390 . S
C211 C210 1.387 . S
H212 C224 0.930 . S
H213 C226 0.930 . S
H214 C227 0.930 1_545 S
H215 C231 0.959 1_545 S
H216 C231 0.959 . S
H217 C231 0.961 . S
H218 C232 0.960 . S
H219 C232 0.961 . S
H220 C232 0.959 . S
H221 C235 0.929 . S
H222 C236 0.931 . S
H223 C238 0.930 . S
C224 H212 0.930 . S
C224 C225 1.399 . S
C224 C229 1.399 . S
C225 C224 1.399 . S
C225 C226 1.376 . S
C226 H213 0.930 . S
C226 C225 1.376 . S
C226 C227 1.388 . S
C227 H214 0.930 1_565 S
C227 C226 1.388 . S
C227 C228 1.390 . S
C228 C227 1.390 . S
C228 C229 1.394 . S
C228 C234 1.465 1_565 S
C229 C224 1.399 . S
C229 C228 1.394 . S
C229 C230 1.516 . S
C230 C229 1.516 . S
C230 C231 1.502 . S
C230 C232 1.561 . S
C230 C233 1.526 1_565 S
C231 H215 0.959 1_565 S
C231 H216 0.959 . S
C231 H217 0.961 . S
C231 C230 1.502 . S
C232 H218 0.960 . S
C232 H219 0.961 . S
C232 H220 0.959 . S
C232 C230 1.561 . S
C233 C230 1.526 1_545 S
C233 C234 1.396 . S
C233 C238 1.390 . S
C234 C228 1.465 1_545 S
C234 C233 1.396 . S
C234 C235 1.399 . S
C235 H221 0.929 . S
C235 C234 1.399 . S
C235 C236 1.385 . S
C236 H222 0.931 . S
C236 C235 1.385 . S
C236 C237 1.389 . S
C237 C236 1.389 . S
C237 C238 1.387 . S
C238 H223 0.930 . S
C238 C233 1.390 . S
C238 C237 1.387 . S
H239 C251 0.930 . S
H240 C253 0.930 . S
H241 C254 0.930 . S
H242 C258 0.959 . S
H243 C258 0.959 . S
H244 C258 0.961 . S
H245 C259 0.960 . S
H246 C259 0.961 . S
H247 C259 0.959 . S
H248 C262 0.927 . S
H249 C263 0.931 . S
H250 C265 0.930 . S
C251 H239 0.930 . S
C251 C252 1.399 . S
C251 C256 1.399 . S
C252 C251 1.399 . S
C252 C253 1.376 . S
C253 H240 0.930 . S
C253 C252 1.376 . S
C253 C254 1.388 1_655 S
C254 H241 0.930 . S
C254 C253 1.388 1_455 S
C254 C255 1.390 . S
C255 C254 1.390 . S
C255 C256 1.394 1_455 S
C255 C261 1.465 1_556 S
C256 C251 1.399 . S
C256 C255 1.394 1_655 S
C256 C257 1.516 1_556 S
C257 C256 1.516 1_554 S
C257 C258 1.502 . S
C257 C259 1.561 . S
C257 C260 1.526 1_655 S
C258 H242 0.959 . S
C258 H243 0.959 . S
C258 H244 0.961 . S
C258 C257 1.502 . S
C259 H245 0.960 . S
C259 H246 0.961 . S
C259 H247 0.959 . S
C259 C257 1.561 . S
C260 C257 1.526 1_455 S
C260 C261 1.396 . S
C260 C265 1.390 . S
C261 C255 1.465 1_554 S
C261 C260 1.396 . S
C261 C262 1.399 1_554 S
C262 H248 0.927 . S
C262 C261 1.399 1_556 S
C262 C263 1.387 1_556 S
C263 H249 0.931 . S
C263 C262 1.387 1_554 S
C263 C264 1.389 . S
C264 C263 1.389 . S
C264 C265 1.387 . S
C265 H250 0.930 . S
C265 C260 1.390 . S
C265 C264 1.387 . S
H266 C278 0.930 . S
H267 C280 0.930 . S
H268 C281 0.930 . S
H269 C285 0.959 . S
H270 C285 0.959 . S
H271 C285 0.961 . S
H272 C286 0.960 . S
H273 C286 0.961 . S
H274 C286 0.959 . S
H275 C289 0.929 . S
H276 C290 0.931 . S
H277 C292 0.930 . S
C278 H266 0.930 . S
C278 C279 1.399 . S
C278 C283 1.399 . S
C279 C278 1.399 . S
C279 C280 1.376 . S
C280 H267 0.930 . S
C280 C279 1.376 . S
C280 C281 1.388 . S
C281 H268 0.930 . S
C281 C280 1.388 . S
C281 C282 1.390 . S
C282 C281 1.390 . S
C282 C283 1.394 . S
C282 C288 1.465 . S
C283 C278 1.399 . S
C283 C282 1.394 . S
C283 C284 1.516 . S
C284 C283 1.516 . S
C284 C285 1.502 . S
C284 C286 1.561 . S
C284 C287 1.526 . S
C285 H269 0.959 . S
C285 H270 0.959 . S
C285 H271 0.961 . S
C285 C284 1.502 . S
C286 H272 0.960 . S
C286 H273 0.961 . S
C286 H274 0.959 . S
C286 C284 1.561 . S
C287 C284 1.526 . S
C287 C288 1.396 . S
C287 C292 1.390 . S
C288 C282 1.465 . S
C288 C287 1.396 . S
C288 C289 1.399 . S
C289 H275 0.929 . S
C289 C288 1.399 . S
C289 C290 1.385 . S
C290 H276 0.931 . S
C290 C289 1.385 . S
C290 C291 1.389 . S
C291 C290 1.389 . S
C291 C292 1.387 . S
C292 H277 0.930 . S
C292 C287 1.390 . S
C292 C291 1.387 . S
H293 C305 0.930 . S
H294 C307 0.930 . S
H295 C308 0.930 . S
H296 C312 0.959 . S
H297 C312 0.959 . S
H298 C312 0.961 . S
H299 C313 0.960 . S
H300 C313 0.961 . S
H301 C313 0.959 . S
H302 C316 0.929 . S
H303 C317 0.931 . S
H304 C319 0.930 . S
C305 H293 0.930 . S
C305 C306 1.399 . S
C305 C310 1.399 . S
C306 C305 1.399 . S
C306 C307 1.376 . S
C307 H294 0.930 . S
C307 C306 1.376 . S
C307 C308 1.388 . S
C308 H295 0.930 . S
C308 C307 1.388 . S
C308 C309 1.390 . S
C309 C308 1.390 . S
C309 C310 1.394 . S
C309 C315 1.465 . S
C310 C305 1.399 . S
C310 C309 1.394 . S
C310 C311 1.516 . S
C311 C310 1.516 . S
C311 C312 1.502 . S
C311 C313 1.561 . S
C311 C314 1.526 . S
C312 H296 0.959 . S
C312 H297 0.959 . S
C312 H298 0.961 . S
C312 C311 1.502 . S
C313 H299 0.960 . S
C313 H300 0.961 . S
C313 H301 0.959 . S
C313 C311 1.561 . S
C314 C311 1.526 . S
C314 C315 1.396 . S
C314 C319 1.390 . S
C315 C309 1.465 . S
C315 C314 1.396 . S
C315 C316 1.399 . S
C316 H302 0.929 . S
C316 C315 1.399 . S
C316 C317 1.385 . S
C317 H303 0.931 . S
C317 C316 1.385 . S
C317 C318 1.389 . S
C318 C317 1.389 . S
C318 C319 1.387 . S
C319 H304 0.930 . S
C319 C314 1.390 . S
C319 C318 1.387 . S
H320 C332 0.930 . S
H321 C334 0.930 . S
H322 C335 0.930 . S
H323 C339 0.959 . S
H324 C339 0.959 . S
H325 C339 0.961 . S
H326 C340 0.960 . S
H327 C340 0.961 . S
H328 C340 0.959 . S
H329 C343 0.929 . S
H330 C344 0.931 . S
H331 C346 0.930 . S
C332 H320 0.930 . S
C332 C333 1.399 . S
C332 C337 1.399 . S
C333 C332 1.399 . S
C333 C334 1.376 . S
C334 H321 0.930 . S
C334 C333 1.376 . S
C334 C335 1.388 . S
C335 H322 0.930 . S
C335 C334 1.388 . S
C335 C336 1.390 . S
C336 C335 1.390 . S
C336 C337 1.394 . S
C336 C342 1.465 . S
C337 C332 1.399 . S
C337 C336 1.394 . S
C337 C338 1.516 . S
C338 C337 1.516 . S
C338 C339 1.502 . S
C338 C340 1.561 . S
C338 C341 1.526 . S
C339 H323 0.959 . S
C339 H324 0.959 . S
C339 H325 0.961 . S
C339 C338 1.502 . S
C340 H326 0.960 . S
C340 H327 0.961 . S
C340 H328 0.959 . S
C340 C338 1.561 . S
C341 C338 1.526 . S
C341 C342 1.396 . S
C341 C346 1.390 . S
C342 C336 1.465 . S
C342 C341 1.396 . S
C342 C343 1.399 . S
C343 H329 0.929 . S
C343 C342 1.399 . S
C343 C344 1.385 . S
C344 H330 0.931 . S
C344 C343 1.385 . S
C344 C345 1.389 . S
C345 C344 1.389 . S
C345 C346 1.387 . S
C346 H331 0.930 . S
C346 C341 1.390 . S
C346 C345 1.387 . S
H347 C359 0.930 . S
H348 C361 0.930 . S
H349 C362 0.930 . S
H350 C366 0.959 . S
H351 C366 0.959 . S
H352 C366 0.961 . S
H353 C367 0.960 . S
H354 C367 0.961 . S
H355 C367 0.959 . S
H356 C370 0.929 . S
H357 C371 0.931 . S
H358 C373 0.930 . S
C359 H347 0.930 . S
C359 C360 1.399 . S
C359 C364 1.399 . S
C360 C359 1.399 . S
C360 C361 1.376 . S
C361 H348 0.930 . S
C361 C360 1.376 . S
C361 C362 1.388 1_556 S
C362 H349 0.930 . S
C362 C361 1.388 1_554 S
C362 C363 1.389 1_554 S
C363 C362 1.389 1_556 S
C363 C364 1.398 . S
C363 C369 1.462 1_556 S
C364 C359 1.399 . S
C364 C363 1.398 . S
C364 C365 1.516 . S
C365 C364 1.516 . S
C365 C366 1.502 . S
C365 C367 1.561 . S
C365 C368 1.526 1_556 S
C366 H350 0.959 . S
C366 H351 0.959 . S
C366 H352 0.961 . S
C366 C365 1.502 . S
C367 H353 0.960 . S
C367 H354 0.961 . S
C367 H355 0.959 . S
C367 C365 1.561 . S
C368 C365 1.526 1_554 S
C368 C369 1.396 . S
C368 C373 1.390 . S
C369 C363 1.462 1_554 S
C369 C368 1.396 . S
C369 C370 1.399 . S
C370 H356 0.929 . S
C370 C369 1.399 . S
C370 C371 1.385 . S
C371 H357 0.931 . S
C371 C370 1.385 . S
C371 C372 1.389 . S
C372 C371 1.389 . S
C372 C373 1.387 . S
C373 H358 0.930 . S
C373 C368 1.390 . S
C373 C372 1.387 . S
H374 C386 0.930 . S
H375 C388 0.930 . S
H376 C389 0.930 . S
H377 C393 0.959 . S
H378 C393 0.959 . S
H379 C393 0.961 . S
H380 C394 0.960 . S
H381 C394 0.961 . S
H382 C394 0.959 . S
H383 C397 0.929 . S
H384 C398 0.931 . S
H385 C400 0.930 . S
C386 H374 0.930 . S
C386 C387 1.399 . S
C386 C391 1.399 . S
C387 C386 1.399 . S
C387 C388 1.376 . S
C388 H375 0.930 . S
C388 C387 1.376 . S
C388 C389 1.388 1_565 S
C389 H376 0.930 . S
C389 C388 1.388 1_545 S
C389 C390 1.390 . S
C390 C389 1.390 . S
C390 C391 1.394 1_545 S
C390 C396 1.465 . S
C391 C386 1.399 . S
C391 C390 1.394 1_565 S
C391 C392 1.516 . S
C392 C391 1.516 . S
C392 C393 1.502 . S
C392 C394 1.561 . S
C392 C395 1.526 1_565 S
C393 H377 0.959 . S
C393 H378 0.959 . S
C393 H379 0.961 . S
C393 C392 1.502 . S
C394 H380 0.960 . S
C394 H381 0.961 . S
C394 H382 0.959 . S
C394 C392 1.561 . S
C395 C392 1.526 1_545 S
C395 C396 1.396 . S
C395 C400 1.390 . S
C396 C390 1.465 . S
C396 C395 1.396 . S
C396 C397 1.399 . S
C397 H383 0.929 . S
C397 C396 1.399 . S
C397 C398 1.385 . S
C398 H384 0.931 . S
C398 C397 1.385 . S
C398 C399 1.389 . S
C399 C398 1.389 . S
C399 C400 1.387 . S
C400 H385 0.930 . S
C400 C395 1.390 . S
C400 C399 1.387 . S
H401 C413 0.930 . S
H402 C415 0.930 . S
H403 C416 0.930 . S
H404 C420 0.959 . S
H405 C420 0.959 . S
H406 C420 0.961 . S
H407 C421 0.960 . S
H408 C421 0.961 . S
H409 C421 0.959 . S
H410 C424 0.929 . S
H411 C425 0.931 . S
H412 C427 0.930 . S
C413 H401 0.930 . S
C413 C414 1.399 . S
C413 C418 1.399 . S
C414 C413 1.399 . S
C414 C415 1.376 . S
C415 H402 0.930 . S
C415 C414 1.376 . S
C415 C416 1.388 . S
C416 H403 0.930 . S
C416 C415 1.388 . S
C416 C417 1.390 . S
C417 C416 1.390 . S
C417 C418 1.394 . S
C417 C423 1.465 1_665 S
C418 C413 1.399 . S
C418 C417 1.394 . S
C418 C419 1.517 1_665 S
C419 C418 1.517 1_445 S
C419 C420 1.500 . S
C419 C421 1.563 1_455 S
C419 C422 1.525 . S
C420 H404 0.959 . S
C420 H405 0.959 . S
C420 H406 0.961 . S
C420 C419 1.500 . S
C421 H407 0.960 . S
C421 H408 0.961 . S
C421 H409 0.959 . S
C421 C419 1.563 1_655 S
C422 C419 1.525 . S
C422 C423 1.396 . S
C422 C427 1.390 . S
C423 C417 1.465 1_445 S
C423 C422 1.396 . S
C423 C424 1.399 1_545 S
C424 H410 0.929 . S
C424 C423 1.399 1_565 S
C424 C425 1.385 1_565 S
C425 H411 0.931 . S
C425 C424 1.385 1_545 S
C425 C426 1.389 . S
C426 C425 1.389 . S
C426 C427 1.387 . S
C427 H412 0.930 . S
C427 C422 1.390 . S
C427 C426 1.387 . S
H428 C440 0.930 . S
H429 C442 0.930 . S
H430 C443 0.930 1_455 S
H431 C447 0.959 . S
H432 C447 0.959 . S
H433 C447 0.961 . S
H434 C448 0.960 1_655 S
H435 C448 0.961 . S
H436 C448 0.959 . S
H437 C451 0.929 . S
H438 C452 0.931 . S
H439 C454 0.930 . S
C440 H428 0.930 . S
C440 C441 1.399 . S
C440 C445 1.399 . S
C441 C440 1.399 . S
C441 C442 1.376 . S
C442 H429 0.930 . S
C442 C441 1.376 . S
C442 C443 1.388 . S
C443 H430 0.930 1_655 S
C443 C442 1.388 . S
C443 C444 1.390 . S
C444 C443 1.390 . S
C444 C445 1.394 . S
C444 C450 1.465 1_655 S
C445 C440 1.399 . S
C445 C444 1.394 . S
C445 C446 1.516 . S
C446 C445 1.516 . S
C446 C447 1.502 . S
C446 C448 1.561 1_655 S
C446 C449 1.526 1_655 S
C447 H431 0.959 . S
C447 H432 0.959 . S
C447 H433 0.961 . S
C447 C446 1.502 . S
C448 H434 0.960 1_455 S
C448 H435 0.961 . S
C448 H436 0.959 . S
C448 C446 1.561 1_455 S
C449 C446 1.526 1_455 S
C449 C450 1.396 . S
C449 C454 1.390 . S
C450 C444 1.465 1_455 S
C450 C449 1.396 . S
C450 C451 1.399 . S
C451 H437 0.929 . S
C451 C450 1.399 . S
C451 C452 1.385 . S
C452 H438 0.931 . S
C452 C451 1.385 . S
C452 C453 1.389 . S
C453 C452 1.389 . S
C453 C454 1.387 . S
C454 H439 0.930 . S
C454 C449 1.390 . S
C454 C453 1.387 . S
H455 C467 0.930 . S
H456 C469 0.930 . S
H457 C470 0.930 . S
H458 C474 0.959 . S
H459 C474 0.959 . S
H460 C474 0.961 . S
H461 C475 0.960 . S
H462 C475 0.961 . S
H463 C475 0.959 . S
H464 C478 0.929 . S
H465 C479 0.931 . S
H466 C481 0.930 . S
C467 H455 0.930 . S
C467 C468 1.399 . S
C467 C472 1.399 . S
C468 C467 1.399 . S
C468 C469 1.376 . S
C469 H456 0.930 . S
C469 C468 1.376 . S
C469 C470 1.388 . S
C470 H457 0.930 . S
C470 C469 1.388 . S
C470 C471 1.390 . S
C471 C470 1.390 . S
C471 C472 1.394 . S
C471 C477 1.465 . S
C472 C467 1.399 . S
C472 C471 1.394 . S
C472 C473 1.516 . S
C473 C472 1.516 . S
C473 C474 1.502 . S
C473 C475 1.561 . S
C473 C476 1.526 . S
C474 H458 0.959 . S
C474 H459 0.959 . S
C474 H460 0.961 . S
C474 C473 1.502 . S
C475 H461 0.960 . S
C475 H462 0.961 . S
C475 H463 0.959 . S
C475 C473 1.561 . S
C476 C473 1.526 . S
C476 C477 1.396 . S
C476 C481 1.390 . S
C477 C471 1.465 . S
C477 C476 1.396 . S
C477 C478 1.399 . S
C478 H464 0.929 . S
C478 C477 1.399 . S
C478 C479 1.385 . S
C479 H465 0.931 . S
C479 C478 1.385 . S
C479 C480 1.389 . S
C480 C479 1.389 . S
C480 C481 1.387 . S
C481 H466 0.930 . S
C481 C476 1.390 . S
C481 C480 1.387 . S
H482 C494 0.930 . S
H483 C496 0.930 . S
H484 C497 0.930 . S
H485 C501 0.959 . S
H486 C501 0.959 . S
H487 C501 0.961 . S
H488 C502 0.960 . S
H489 C502 0.961 . S
H490 C502 0.959 . S
H491 C505 0.929 . S
H492 C506 0.931 . S
H493 C508 0.930 . S
C494 H482 0.930 . S
C494 C495 1.399 . S
C494 C499 1.408 . S
C495 C494 1.399 . S
C495 C496 1.376 . S
C496 H483 0.930 . S
C496 C495 1.376 . S
C496 C497 1.388 . S
C497 H484 0.930 . S
C497 C496 1.388 . S
C497 C498 1.390 . S
C498 C497 1.390 . S
C498 C499 1.404 . S
C498 C504 1.465 1_554 S
C499 C494 1.408 . S
C499 C498 1.404 . S
C499 C500 1.498 1_554 S
C500 C499 1.498 1_556 S
C500 C501 1.502 . S
C500 C502 1.561 . S
C500 C503 1.526 . S
C501 H485 0.959 . S
C501 H486 0.959 . S
C501 H487 0.961 . S
C501 C500 1.502 . S
C502 H488 0.960 . S
C502 H489 0.961 . S
C502 H490 0.959 . S
C502 C500 1.561 . S
C503 C500 1.526 . S
C503 C504 1.396 . S
C503 C508 1.390 . S
C504 C498 1.465 1_556 S
C504 C503 1.396 . S
C504 C505 1.399 1_556 S
C505 H491 0.929 . S
C505 C504 1.399 1_554 S
C505 C506 1.385 1_554 S
C506 H492 0.931 . S
C506 C505 1.385 1_556 S
C506 C507 1.389 . S
C507 C506 1.389 . S
C507 C508 1.387 . S
C508 H493 0.930 . S
C508 C503 1.390 . S
C508 C507 1.387 . S
H509 C521 0.930 . S
H510 C523 0.930 . S
H511 C524 0.930 . S
H512 C528 0.959 . S
H513 C528 0.959 . S
H514 C528 0.961 . S
H515 C529 0.960 . S
H516 C529 0.961 . S
H517 C529 0.959 . S
H518 C532 0.929 . S
H519 C533 0.931 . S
H520 C535 0.930 . S
C521 H509 0.930 . S
C521 C522 1.399 . S
C521 C526 1.399 . S
C522 C521 1.399 . S
C522 C523 1.376 . S
C523 H510 0.930 . S
C523 C522 1.376 . S
C523 C524 1.388 . S
C524 H511 0.930 . S
C524 C523 1.388 . S
C524 C525 1.390 . S
C525 C524 1.390 . S
C525 C526 1.394 . S
C525 C531 1.465 . S
C526 C521 1.399 . S
C526 C525 1.394 . S
C526 C527 1.516 . S
C527 C526 1.516 . S
C527 C528 1.502 . S
C527 C529 1.561 . S
C527 C530 1.526 . S
C528 H512 0.959 . S
C528 H513 0.959 . S
C528 H514 0.961 . S
C528 C527 1.502 . S
C529 H515 0.960 . S
C529 H516 0.961 . S
C529 H517 0.959 . S
C529 C527 1.561 . S
C530 C527 1.526 . S
C530 C531 1.396 . S
C530 C535 1.390 . S
C531 C525 1.465 . S
C531 C530 1.396 . S
C531 C532 1.399 . S
C532 H518 0.929 . S
C532 C531 1.399 . S
C532 C533 1.385 . S
C533 H519 0.931 . S
C533 C532 1.385 . S
C533 C534 1.389 . S
C534 C533 1.389 . S
C534 C535 1.387 . S
C535 H520 0.930 . S
C535 C530 1.390 . S
C535 C534 1.387 . S
C117 C75 1.478 . S
C129 C5 1.450 . S
C144 C101 1.458 . S
C156 C18 1.482 . S
C171 C34 1.465 . S
C183 C86 1.493 . S
C198 C39 1.469 . S
C210 C52 1.449 . S
C225 C83 1.446 . S
C237 C10 1.492 . S
C252 C21 1.489 . S
C264 C60 1.445 . S
C279 C65 1.468 . S
C291 C26 1.498 . S
C306 C49 1.500 . S
C318 C96 1.465 . S
C333 C62 1.459 . S
C345 C70 1.476 . S
C360 C23 1.459 . S
C372 C31 1.482 . S
C387 C44 1.451 . S
C399 C36 1.497 . S
C414 C47 1.473 . S
C426 C8 1.490 . S
C441 C13 1.474 . S
C453 C0 1.449 . S
C468 C91 1.451 . S
C480 C78 1.461 . S
C495 C57 1.488 . S
C507 C88 1.460 . S
C522 C73 1.459 . S
C534 C99 1.494 . S
