# Generated by pormake.
# Topology cbo, (4)-cn, num edge types: 1
# Building blocks:
#     Node 0, Type 0, BuildingBlock: NAHDIM_clean_sbu_0, # of connection points: 4
#     Node 1, Type 0, BuildingBlock: NAHDIM_clean_sbu_0, # of connection points: 4
#     Node 2, Type 0, BuildingBlock: NAHDIM_clean_sbu_0, # of connection points: 4
#     Node 3, Type 0, BuildingBlock: NAHDIM_clean_sbu_0, # of connection points: 4
#     Node 4, Type 0, BuildingBlock: NAHDIM_clean_sbu_0, # of connection points: 4
#     Node 5, Type 0, BuildingBlock: NAHDIM_clean_sbu_0, # of connection points: 4
#     Node 6, Type 0, BuildingBlock: NAHDIM_clean_sbu_0, # of connection points: 4
#     Node 7, Type 0, BuildingBlock: NAHDIM_clean_sbu_0, # of connection points: 4
#     Node 8, Type 0, BuildingBlock: NAHDIM_clean_sbu_0, # of connection points: 4
#     Node 9, Type 0, BuildingBlock: NAHDIM_clean_sbu_0, # of connection points: 4
#     Node 10, Type 0, BuildingBlock: NAHDIM_clean_sbu_0, # of connection points: 4
#     Node 11, Type 0, BuildingBlock: NAHDIM_clean_sbu_0, # of connection points: 4
#     Node 12, Type 0, BuildingBlock: NAHDIM_clean_sbu_0, # of connection points: 4
#     Node 13, Type 0, BuildingBlock: NAHDIM_clean_sbu_0, # of connection points: 4
#     Node 14, Type 0, BuildingBlock: NAHDIM_clean_sbu_0, # of connection points: 4
#     Node 15, Type 0, BuildingBlock: NAHDIM_clean_sbu_0, # of connection points: 4
#     Node 16, Type 0, BuildingBlock: NAHDIM_clean_sbu_0, # of connection points: 4
#     Node 17, Type 0, BuildingBlock: NAHDIM_clean_sbu_0, # of connection points: 4
#     Node 18, Type 0, BuildingBlock: NAHDIM_clean_sbu_0, # of connection points: 4
#     Node 19, Type 0, BuildingBlock: NAHDIM_clean_sbu_0, # of connection points: 4
#     Node 20, Type 0, BuildingBlock: NAHDIM_clean_sbu_0, # of connection points: 4
#     Node 21, Type 0, BuildingBlock: NAHDIM_clean_sbu_0, # of connection points: 4
#     Node 22, Type 0, BuildingBlock: NAHDIM_clean_sbu_0, # of connection points: 4
#     Node 23, Type 0, BuildingBlock: NAHDIM_clean_sbu_0, # of connection points: 4
#     Edge 24, Type (0, 0), BuildingBlock: CIFDUS_clean_linker_0, # of connection points: 2
#     Edge 25, Type (0, 0), BuildingBlock: CIFDUS_clean_linker_0, # of connection points: 2
#     Edge 26, Type (0, 0), BuildingBlock: CIFDUS_clean_linker_0, # of connection points: 2
#     Edge 27, Type (0, 0), BuildingBlock: CIFDUS_clean_linker_0, # of connection points: 2
#     Edge 28, Type (0, 0), BuildingBlock: CIFDUS_clean_linker_0, # of connection points: 2
#     Edge 29, Type (0, 0), BuildingBlock: CIFDUS_clean_linker_0, # of connection points: 2
#     Edge 30, Type (0, 0), BuildingBlock: CIFDUS_clean_linker_0, # of connection points: 2
#     Edge 31, Type (0, 0), BuildingBlock: CIFDUS_clean_linker_0, # of connection points: 2
#     Edge 32, Type (0, 0), BuildingBlock: CIFDUS_clean_linker_0, # of connection points: 2
#     Edge 33, Type (0, 0), BuildingBlock: CIFDUS_clean_linker_0, # of connection points: 2
#     Edge 34, Type (0, 0), BuildingBlock: CIFDUS_clean_linker_0, # of connection points: 2
#     Edge 35, Type (0, 0), BuildingBlock: CIFDUS_clean_linker_0, # of connection points: 2
#     Edge 36, Type (0, 0), BuildingBlock: CIFDUS_clean_linker_0, # of connection points: 2
#     Edge 37, Type (0, 0), BuildingBlock: CIFDUS_clean_linker_0, # of connection points: 2
#     Edge 38, Type (0, 0), BuildingBlock: CIFDUS_clean_linker_0, # of connection points: 2
#     Edge 39, Type (0, 0), BuildingBlock: CIFDUS_clean_linker_0, # of connection points: 2
#     Edge 40, Type (0, 0), BuildingBlock: CIFDUS_clean_linker_0, # of connection points: 2
#     Edge 41, Type (0, 0), BuildingBlock: CIFDUS_clean_linker_0, # of connection points: 2
#     Edge 42, Type (0, 0), BuildingBlock: CIFDUS_clean_linker_0, # of connection points: 2
#     Edge 43, Type (0, 0), BuildingBlock: CIFDUS_clean_linker_0, # of connection points: 2
#     Edge 44, Type (0, 0), BuildingBlock: CIFDUS_clean_linker_0, # of connection points: 2
#     Edge 45, Type (0, 0), BuildingBlock: CIFDUS_clean_linker_0, # of connection points: 2
#     Edge 46, Type (0, 0), BuildingBlock: CIFDUS_clean_linker_0, # of connection points: 2
#     Edge 47, Type (0, 0), BuildingBlock: CIFDUS_clean_linker_0, # of connection points: 2
#     Edge 48, Type (0, 0), BuildingBlock: CIFDUS_clean_linker_0, # of connection points: 2
#     Edge 49, Type (0, 0), BuildingBlock: CIFDUS_clean_linker_0, # of connection points: 2
#     Edge 50, Type (0, 0), BuildingBlock: CIFDUS_clean_linker_0, # of connection points: 2
#     Edge 51, Type (0, 0), BuildingBlock: CIFDUS_clean_linker_0, # of connection points: 2
#     Edge 52, Type (0, 0), BuildingBlock: CIFDUS_clean_linker_0, # of connection points: 2
#     Edge 53, Type (0, 0), BuildingBlock: CIFDUS_clean_linker_0, # of connection points: 2
#     Edge 54, Type (0, 0), BuildingBlock: CIFDUS_clean_linker_0, # of connection points: 2
#     Edge 55, Type (0, 0), BuildingBlock: CIFDUS_clean_linker_0, # of connection points: 2
#     Edge 56, Type (0, 0), BuildingBlock: CIFDUS_clean_linker_0, # of connection points: 2
#     Edge 57, Type (0, 0), BuildingBlock: CIFDUS_clean_linker_0, # of connection points: 2
#     Edge 58, Type (0, 0), BuildingBlock: CIFDUS_clean_linker_0, # of connection points: 2
#     Edge 59, Type (0, 0), BuildingBlock: CIFDUS_clean_linker_0, # of connection points: 2
#     Edge 60, Type (0, 0), BuildingBlock: CIFDUS_clean_linker_0, # of connection points: 2
#     Edge 61, Type (0, 0), BuildingBlock: CIFDUS_clean_linker_0, # of connection points: 2
#     Edge 62, Type (0, 0), BuildingBlock: CIFDUS_clean_linker_0, # of connection points: 2
#     Edge 63, Type (0, 0), BuildingBlock: CIFDUS_clean_linker_0, # of connection points: 2
#     Edge 64, Type (0, 0), BuildingBlock: CIFDUS_clean_linker_0, # of connection points: 2
#     Edge 65, Type (0, 0), BuildingBlock: CIFDUS_clean_linker_0, # of connection points: 2
#     Edge 66, Type (0, 0), BuildingBlock: CIFDUS_clean_linker_0, # of connection points: 2
#     Edge 67, Type (0, 0), BuildingBlock: CIFDUS_clean_linker_0, # of connection points: 2
#     Edge 68, Type (0, 0), BuildingBlock: CIFDUS_clean_linker_0, # of connection points: 2
#     Edge 69, Type (0, 0), BuildingBlock: CIFDUS_clean_linker_0, # of connection points: 2
#     Edge 70, Type (0, 0), BuildingBlock: CIFDUS_clean_linker_0, # of connection points: 2
#     Edge 71, Type (0, 0), BuildingBlock: CIFDUS_clean_linker_0, # of connection points: 2
# Relax obj value: 0.273
# Max RMSD: 0.282
# Mean RMSD: 0.265
data_MOF--net-cbo--node1-NAHDIM_clean_sbu_0--edge1-CIFDUS_clean_linker_0
_symmetry_space_group_name_H-M    P1
_symmetry_Int_Tables_number       1
_symmetry_cell_setting            triclinic
loop_
_symmetry_equiv_pos_as_xyz
'x, y, z'
_cell_length_a     47.50167
_cell_length_b     44.754037
_cell_length_c     46.147504
_cell_angle_alpha  90.031847
_cell_angle_beta   90.454528
_cell_angle_gamma 90.47369
loop_
_atom_site_label
_atom_site_type_symbol
_atom_site_fract_x
_atom_site_fract_y
_atom_site_fract_z
_atom_type_partial_charge
C0 C 0.00183 0.14775 0.29812 0.0
O1 O 0.0136 0.17152 0.30995 0.0
O2 O 0.06237 0.17818 0.25184 0.0
Zn3 Zn 0.05772 0.14402 0.28016 0.0
O4 O 0.06977 0.15672 0.32067 0.0
C5 C 0.09032 0.1091 0.24037 0.0
O6 O 0.07554 0.12418 0.22124 0.0
O7 O 0.01678 0.13097 0.28228 0.0
C8 C 0.09353 0.14985 0.33155 0.0
O9 O 0.11155 0.135 0.31573 0.0
C10 C 0.08547 0.19269 0.25278 0.0
O11 O 0.10377 0.18646 0.27335 0.0
O12 O 0.08438 0.1117 0.26706 0.0
C13 C 0.45452 0.81806 0.80197 0.0
O14 O 0.44423 0.79379 0.81407 0.0
O15 O 0.39408 0.78502 0.76006 0.0
Zn16 Zn 0.39735 0.8206 0.78692 0.0
O17 O 0.38562 0.81177 0.82816 0.0
C18 C 0.34473 0.84558 0.77326 0.0
O19 O 0.33727 0.82146 0.78759 0.0
O20 O 0.4379 0.83492 0.78789 0.0
C21 C 0.37378 0.78813 0.83753 0.0
O22 O 0.36826 0.7661 0.81948 0.0
C23 C 0.40556 0.78869 0.73548 0.0
O24 O 0.41975 0.81352 0.73076 0.0
O25 O 0.37084 0.85142 0.77043 0.0
C26 C 0.49839 0.33139 0.678 0.0
O27 O 0.50198 0.30247 0.68086 0.0
O28 O 0.5585 0.29585 0.70767 0.0
Zn29 Zn 0.55889 0.33005 0.67893 0.0
O30 O 0.57115 0.31672 0.63888 0.0
C31 C 0.61095 0.36624 0.68598 0.0
O32 O 0.6177 0.35641 0.66016 0.0
O33 O 0.51998 0.34833 0.67656 0.0
C34 C 0.59226 0.2999 0.635 0.0
O35 O 0.60642 0.29033 0.6577 0.0
C36 C 0.55654 0.26795 0.70277 0.0
O37 O 0.55349 0.25838 0.67601 0.0
O38 O 0.587 0.35946 0.6964 0.0
C39 C 0.93421 0.59185 0.19144 0.0
O40 O 0.91482 0.57746 0.20617 0.0
O41 O 0.88769 0.66988 0.20425 0.0
Zn42 Zn 0.88854 0.63331 0.17867 0.0
O43 O 0.87615 0.64319 0.13775 0.0
C44 C 0.83418 0.61168 0.19357 0.0
O45 O 0.82737 0.63419 0.17671 0.0
O46 O 0.92766 0.61574 0.17821 0.0
C47 C 0.89348 0.65141 0.11839 0.0
O48 O 0.92027 0.6542 0.12526 0.0
C49 C 0.90334 0.67231 0.22665 0.0
O50 O 0.92275 0.65214 0.23145 0.0
O51 O 0.86007 0.6053 0.19677 0.0
C52 C 0.338 0.07548 0.15058 0.0
O53 O 0.33861 0.04926 0.13781 0.0
O54 O 0.27649 0.10993 0.09419 0.0
Zn55 Zn 0.28257 0.07769 0.12388 0.0
O56 O 0.29077 0.03822 0.10447 0.0
C57 C 0.23815 0.06971 0.17059 0.0
O58 O 0.25731 0.06171 0.18967 0.0
O59 O 0.31562 0.09086 0.14901 0.0
C60 C 0.27354 0.01632 0.10376 0.0
O61 O 0.24853 0.01935 0.11529 0.0
C62 C 0.25464 0.10766 0.07827 0.0
O63 O 0.23962 0.0829 0.07944 0.0
O64 O 0.24542 0.07613 0.14489 0.0
C65 C 0.10465 0.90992 0.639 0.0
O66 O 0.11623 0.92021 0.6152 0.0
O67 O 0.17156 0.87285 0.62409 0.0
Zn68 Zn 0.16228 0.90623 0.65183 0.0
O69 O 0.16993 0.94798 0.63656 0.0
C70 C 0.21203 0.90793 0.68702 0.0
O71 O 0.22055 0.92432 0.66512 0.0
O72 O 0.12063 0.9024 0.65997 0.0
C73 C 0.16872 0.96865 0.65546 0.0
O74 O 0.16337 0.96135 0.68245 0.0
C75 C 0.19431 0.87056 0.60999 0.0
O76 O 0.21244 0.89288 0.61036 0.0
O77 O 0.18665 0.89855 0.68724 0.0
C78 C 0.84863 0.36548 0.82695 0.0
O79 O 0.83568 0.36121 0.85168 0.0
O80 O 0.77779 0.35229 0.83594 0.0
Zn81 Zn 0.79489 0.38796 0.81555 0.0
O82 O 0.795 0.42503 0.84072 0.0
C83 C 0.74519 0.40035 0.78411 0.0
O84 O 0.73713 0.40537 0.81083 0.0
O85 O 0.83522 0.37771 0.80621 0.0
C86 C 0.79326 0.45071 0.82909 0.0
O87 O 0.7906 0.45263 0.80079 0.0
C88 C 0.76277 0.35292 0.85858 0.0
O89 O 0.75806 0.37864 0.87132 0.0
O90 O 0.77078 0.39362 0.77967 0.0
C91 C 0.60083 0.6087 0.33931 0.0
O92 O 0.61329 0.6143 0.36427 0.0
O93 O 0.67144 0.6202 0.35261 0.0
Zn94 Zn 0.65518 0.58608 0.32918 0.0
O95 O 0.65599 0.54775 0.35218 0.0
C96 C 0.70409 0.57434 0.29482 0.0
O97 O 0.71332 0.56403 0.31977 0.0
O98 O 0.61472 0.59585 0.3195 0.0
C99 C 0.65668 0.52257 0.33949 0.0
O100 O 0.65749 0.52175 0.31105 0.0
C101 C 0.68986 0.61703 0.37244 0.0
O102 O 0.69847 0.59006 0.37912 0.0
O103 O 0.67892 0.58372 0.29304 0.0
C104 C 0.1213 0.27446 -0.00828 0.0
O105 O 0.13744 0.25174 -0.00164 0.0
O106 O 0.16954 0.26572 0.04787 0.0
Zn107 Zn 0.13692 0.29427 0.04967 0.0
O108 O 0.14727 0.33704 0.06026 0.0
C109 C 0.12428 0.27585 0.10583 0.0
O110 O 0.15061 0.28479 0.10786 0.0
O111 O 0.11719 0.29467 0.01061 0.0
C112 C 0.16812 0.34658 0.07518 0.0
O113 O 0.18704 0.32764 0.08464 0.0
C114 C 0.19563 0.26812 0.04239 0.0
O115 O 0.20681 0.29436 0.03661 0.0
O116 O 0.11182 0.27785 0.0814 0.0
C117 C 0.6264 0.15115 0.95808 0.0
O118 O 0.64845 0.13732 0.94776 0.0
O119 O 0.66239 0.20039 0.90125 0.0
Zn120 Zn 0.6287 0.17259 0.90103 0.0
O121 O 0.63837 0.1307 0.88811 0.0
C122 C 0.59864 0.18128 0.84691 0.0
O123 O 0.61188 0.15675 0.83977 0.0
O124 O 0.6132 0.16923 0.94174 0.0
C125 C 0.66051 0.12258 0.87508 0.0
O126 O 0.67964 0.14267 0.86824 0.0
C127 C 0.65974 0.22478 0.9151 0.0
O128 O 0.63668 0.22905 0.93004 0.0
O129 O 0.60115 0.19123 0.87267 0.0
C130 C 0.84153 0.77638 0.45933 0.0
O131 O 0.82552 0.75307 0.45337 0.0
O132 O 0.78778 0.76884 0.40895 0.0
Zn133 Zn 0.82141 0.79609 0.40305 0.0
O134 O 0.81009 0.83886 0.39397 0.0
C135 C 0.82838 0.7673 0.34868 0.0
O136 O 0.8009 0.76643 0.35136 0.0
O137 O 0.84417 0.79689 0.44042 0.0
C138 C 0.79968 0.84695 0.36976 0.0
O139 O 0.79492 0.82681 0.34961 0.0
C140 C 0.76198 0.77408 0.40381 0.0
O141 O 0.75445 0.80091 0.39541 0.0
O142 O 0.84324 0.77886 0.36897 0.0
C143 C 0.32402 0.68494 0.49364 0.0
O144 O 0.29724 0.68971 0.49866 0.0
O145 O 0.2967 0.71858 0.55515 0.0
Zn146 Zn 0.32279 0.68318 0.55468 0.0
O147 O 0.30464 0.64309 0.56296 0.0
C148 C 0.36847 0.7134 0.58418 0.0
O149 O 0.37037 0.72746 0.55928 0.0
O150 O 0.34063 0.68131 0.51509 0.0
C151 C 0.29974 0.6349 0.58882 0.0
O152 O 0.30386 0.65411 0.61001 0.0
C153 C 0.27157 0.72086 0.56404 0.0
O154 O 0.25828 0.69704 0.57364 0.0
O155 O 0.35088 0.69203 0.58656 0.0
C156 C 0.94421 0.85988 0.65961 0.0
O157 O 0.92945 0.86463 0.63588 0.0
O158 O 0.89218 0.79344 0.70665 0.0
Zn159 Zn 0.89468 0.82572 0.6762 0.0
O160 O 0.88925 0.80989 0.63524 0.0
C161 C 0.83976 0.85404 0.6734 0.0
O162 O 0.83607 0.83588 0.65132 0.0
O163 O 0.93327 0.84468 0.67994 0.0
C164 C 0.8745 0.78693 0.62886 0.0
O165 O 0.86224 0.77184 0.64973 0.0
C166 C 0.90171 0.76699 0.70602 0.0
O167 O 0.91468 0.75739 0.68281 0.0
O168 O 0.86363 0.85487 0.68616 0.0
C169 C 0.49407 0.13302 0.18357 0.0
O170 O 0.4943 0.16191 0.18867 0.0
O171 O 0.55257 0.17777 0.20691 0.0
Zn172 Zn 0.55362 0.14367 0.17832 0.0
O173 O 0.56025 0.1575 0.1371 0.0
C174 C 0.61125 0.12937 0.18577 0.0
O175 O 0.61326 0.15442 0.17107 0.0
O176 O 0.5173 0.11989 0.17919 0.0
C177 C 0.56842 0.13743 0.11964 0.0
O178 O 0.57118 0.10996 0.12923 0.0
C179 C 0.5638 0.20307 0.20183 0.0
O180 O 0.57406 0.20838 0.17597 0.0
O181 O 0.58688 0.11883 0.19118 0.0
C182 C 0.44155 0.64424 0.29555 0.0
O183 O 0.43326 0.66877 0.30847 0.0
O184 O 0.38564 0.68238 0.24989 0.0
Zn185 Zn 0.38509 0.64763 0.27754 0.0
O186 O 0.37428 0.66074 0.31785 0.0
C187 C 0.33504 0.62637 0.24777 0.0
O188 O 0.33439 0.6543 0.23909 0.0
O189 O 0.424 0.62983 0.27985 0.0
C190 C 0.35026 0.6716 0.32331 0.0
O191 O 0.33226 0.67555 0.30192 0.0
C192 C 0.39798 0.67931 0.22573 0.0
O193 O 0.4117 0.65449 0.2207 0.0
O194 O 0.35545 0.61778 0.26372 0.0
C195 C 0.0081 0.32448 0.79133 0.0
O196 O 0.01539 0.30023 0.80545 0.0
O197 O 0.06459 0.2863 0.74479 0.0
Zn198 Zn 0.06496 0.31882 0.77509 0.0
O199 O 0.07399 0.30371 0.81552 0.0
C200 C 0.11964 0.34859 0.77374 0.0
O201 O 0.12438 0.33203 0.7967 0.0
O202 O 0.02638 0.33767 0.77579 0.0
C203 C 0.08888 0.28111 0.82183 0.0
O204 O 0.09989 0.26526 0.80087 0.0
C205 C 0.05629 0.25926 0.74603 0.0
O206 O 0.04619 0.24856 0.77036 0.0
O207 O 0.09528 0.34802 0.76201 0.0
C208 C 0.65252 0.94775 0.84037 0.0
O209 O 0.63221 0.9289 0.84685 0.0
O210 O 0.69605 0.90357 0.76704 0.0
Zn211 Zn 0.66947 0.90039 0.80088 0.0
O212 O 0.62879 0.89117 0.78911 0.0
C213 C 0.68315 0.84089 0.8101 0.0
O214 O 0.67124 0.84093 0.78431 0.0
O215 O 0.6712 0.93985 0.82239 0.0
C216 C 0.61438 0.87532 0.80657 0.0
O217 O 0.62633 0.866 0.83065 0.0
C218 C 0.69199 0.89423 0.74133 0.0
O219 O 0.66714 0.88345 0.73395 0.0
O220 O 0.68477 0.86543 0.82402 0.0
C221 C 0.79252 0.02428 0.35278 0.0
O222 O 0.80152 0.04541 0.37041 0.0
O223 O 0.75701 0.0757 0.27872 0.0
Zn224 Zn 0.78495 0.07321 0.31175 0.0
O225 O 0.82472 0.08307 0.29889 0.0
C226 C 0.77499 0.1307 0.33632 0.0
O227 O 0.78961 0.13864 0.31351 0.0
O228 O 0.78418 0.03126 0.32745 0.0
C229 C 0.8423 0.09345 0.3173 0.0
O230 O 0.83411 0.09779 0.34409 0.0
C231 C 0.75995 0.09338 0.2574 0.0
O232 O 0.78334 0.10905 0.25519 0.0
O233 O 0.77117 0.10302 0.34134 0.0
C234 C 0.18553 0.50594 0.15127 0.0
O235 O 0.20469 0.51505 0.17005 0.0
O236 O 0.16477 0.54952 0.21214 0.0
Zn237 Zn 0.15848 0.55987 0.16967 0.0
O238 O 0.11765 0.57179 0.16571 0.0
C239 C 0.1733 0.61666 0.14369 0.0
O240 O 0.14597 0.62053 0.14507 0.0
O241 O 0.16395 0.52198 0.14686 0.0
C242 C 0.09835 0.55642 0.17767 0.0
O243 O 0.10523 0.53221 0.19208 0.0
C244 C 0.18413 0.55137 0.2313 0.0
O245 O 0.17976 0.53889 0.25665 0.0
O246 O 0.18377 0.59252 0.15339 0.0
C247 C 0.29122 0.45725 0.60352 0.0
O248 O 0.2937 0.43653 0.58354 0.0
O249 O 0.2614 0.40313 0.67639 0.0
Zn250 Zn 0.29046 0.40705 0.64485 0.0
O251 O 0.32971 0.39609 0.65836 0.0
C252 C 0.25392 0.37616 0.60458 0.0
O253 O 0.23685 0.39804 0.61123 0.0
O254 O 0.28972 0.44956 0.62998 0.0
C255 C 0.3345 0.36869 0.66358 0.0
O256 O 0.31353 0.34943 0.66176 0.0
C257 C 0.26543 0.39634 0.70282 0.0
O258 O 0.29124 0.39223 0.71237 0.0
O259 O 0.27883 0.37657 0.61477 0.0
C260 C 0.818 0.66946 0.96376 0.0
O261 O 0.79114 0.66652 0.95721 0.0
O262 O 0.78798 0.70792 0.90183 0.0
Zn263 Zn 0.82007 0.67869 0.90268 0.0
O264 O 0.8072 0.63862 0.88673 0.0
C265 C 0.85488 0.68536 0.85121 0.0
O266 O 0.84551 0.65841 0.84496 0.0
O267 O 0.83533 0.67493 0.94355 0.0
C268 C 0.81287 0.61339 0.89792 0.0
O269 O 0.8272 0.61238 0.92236 0.0
C270 C 0.77387 0.70932 0.87836 0.0
O271 O 0.77925 0.69007 0.85765 0.0
O272 O 0.84848 0.69707 0.87539 0.0
C273 C 0.31291 0.75846 -0.00374 0.0
O274 O 0.29748 0.73603 0.00564 0.0
O275 O 0.27393 0.75143 0.06243 0.0
Zn276 Zn 0.30274 0.78355 0.05379 0.0
O277 O 0.28646 0.82457 0.05986 0.0
C278 C 0.32706 0.78459 0.1095 0.0
O279 O 0.3035 0.79899 0.11398 0.0
O280 O 0.31798 0.78042 0.01307 0.0
C281 C 0.30235 0.84741 0.05749 0.0
O282 O 0.32876 0.84368 0.05013 0.0
C283 C 0.24814 0.75632 0.06756 0.0
O284 O 0.23838 0.78356 0.0648 0.0
O285 O 0.333 0.77673 0.08378 0.0
C286 C 0.1516 0.1698 0.49344 0.0
O287 O 0.17679 0.16354 0.50361 0.0
O288 O 0.17587 0.21393 0.55499 0.0
Zn289 Zn 0.14604 0.1817 0.55249 0.0
O290 O 0.15931 0.14068 0.56459 0.0
C291 C 0.10314 0.18251 0.5992 0.0
O292 O 0.1073 0.1537 0.60219 0.0
O293 O 0.13301 0.1789 0.51096 0.0
C294 C 0.16801 0.1335 0.58973 0.0
O295 O 0.1702 0.15419 0.60986 0.0
C296 C 0.20188 0.2128 0.56146 0.0
O297 O 0.21353 0.18683 0.56676 0.0
O298 O 0.1156 0.19665 0.57905 0.0
C299 C 0.6309 0.28471 0.46719 0.0
O300 O 0.65607 0.27329 0.46401 0.0
O301 O 0.66812 0.26454 0.40298 0.0
Zn302 Zn 0.6343 0.29178 0.40462 0.0
O303 O 0.6447 0.33326 0.39089 0.0
C304 C 0.61143 0.28125 0.34879 0.0
O305 O 0.63253 0.2993 0.3428 0.0
O306 O 0.61748 0.29358 0.44486 0.0
C307 C 0.64269 0.35781 0.40451 0.0
O308 O 0.63373 0.35773 0.43137 0.0
C309 C 0.69054 0.27237 0.39005 0.0
O310 O 0.69261 0.29965 0.37976 0.0
O311 O 0.60671 0.27467 0.37516 0.0
H312 H 0.14409 0.27522 0.1608 0.0
H313 H 0.07383 0.24531 0.1082 0.0
H314 H 0.05417 0.21871 0.14992 0.0
H315 H 0.05904 0.20097 0.20049 0.0
H316 H 0.13031 0.23069 0.25192 0.0
H317 H 0.14735 0.26048 0.21148 0.0
C318 C 0.12436 0.26306 0.15841 0.0
C319 C 0.1106 0.26202 0.13133 0.0
C320 C 0.1134 0.24769 0.1823 0.0
C321 C 0.0849 0.2464 0.12878 0.0
C322 C 0.0737 0.23113 0.15262 0.0
C323 C 0.07807 0.21431 0.20296 0.0
C324 C 0.09346 0.21343 0.22919 0.0
C325 C 0.08805 0.23119 0.17937 0.0
C326 C 0.11813 0.23078 0.23197 0.0
C327 C 0.12794 0.24782 0.20883 0.0
H328 H 0.4263 0.79184 0.68098 0.0
H329 H 0.3722 0.73835 0.73534 0.0
H330 H 0.35841 0.70787 0.6935 0.0
H331 H 0.35801 0.69989 0.64072 0.0
H332 H 0.41057 0.75514 0.58637 0.0
H333 H 0.4289 0.78121 0.62907 0.0
C334 C 0.41173 0.7733 0.68381 0.0
C335 C 0.40007 0.76763 0.71124 0.0
C336 C 0.4035 0.75627 0.6596 0.0
C337 C 0.3814 0.74334 0.71448 0.0
C338 C 0.37344 0.72594 0.69052 0.0
C339 C 0.37383 0.71728 0.63823 0.0
C340 C 0.38272 0.72572 0.61031 0.0
C341 C 0.38381 0.7327 0.66285 0.0
C342 C 0.40321 0.74834 0.60754 0.0
C343 C 0.41365 0.76333 0.63196 0.0
H344 H 0.55563 0.27998 0.76051 0.0
H345 H 0.56613 0.20787 0.69948 0.0
H346 H 0.57762 0.17389 0.7392 0.0
H347 H 0.58865 0.16582 0.79071 0.0
H348 H 0.57831 0.2381 0.85163 0.0
H349 H 0.56244 0.27069 0.81249 0.0
C350 C 0.5602 0.25676 0.75588 0.0
C351 C 0.56036 0.24659 0.727 0.0
C352 C 0.56689 0.23738 0.7788 0.0
C353 C 0.56596 0.21634 0.72147 0.0
C354 C 0.57262 0.1969 0.74418 0.0
C355 C 0.58259 0.18859 0.79552 0.0
C356 C 0.58498 0.19955 0.82406 0.0
C357 C 0.57374 0.20734 0.77286 0.0
C358 C 0.57678 0.22905 0.82989 0.0
C359 C 0.56782 0.24779 0.80748 0.0
H360 H 0.85672 0.70669 0.22985 0.0
H361 H 0.93386 0.6864 0.27547 0.0
H362 H 0.91878 0.71665 0.31662 0.0
H363 H 0.8814 0.7449 0.34154 0.0
H364 H 0.80336 0.76185 0.29617 0.0
H365 H 0.82112 0.73709 0.25314 0.0
C366 C 0.8705 0.70924 0.24856 0.0
C367 C 0.89631 0.69415 0.2496 0.0
C368 C 0.86136 0.72589 0.27242 0.0
C369 C 0.9138 0.69767 0.27414 0.0
C370 C 0.90515 0.7149 0.29774 0.0
C371 C 0.86852 0.7435 0.32207 0.0
C372 C 0.84104 0.75496 0.32213 0.0
C373 C 0.87863 0.7285 0.29744 0.0
C374 C 0.82448 0.75289 0.29681 0.0
C375 C 0.83461 0.73877 0.27213 0.0
H376 H 0.21457 0.06349 0.22436 0.0
H377 H 0.19425 0.08449 0.13529 0.0
H378 H 0.14603 0.09538 0.14866 0.0
H379 H 0.11059 0.10308 0.18589 0.0
H380 H 0.13036 0.08328 0.27524 0.0
H381 H 0.17746 0.06733 0.26139 0.0
C382 C 0.19952 0.07016 0.20784 0.0
C383 C 0.20825 0.07348 0.17892 0.0
C384 C 0.17162 0.07666 0.21569 0.0
C385 C 0.18833 0.08199 0.15778 0.0
C386 C 0.16065 0.08823 0.16538 0.0
C387 C 0.12501 0.09487 0.20234 0.0
C388 C 0.11695 0.09466 0.23159 0.0
C389 C 0.15221 0.08624 0.19432 0.0
C390 C 0.13596 0.08378 0.25254 0.0
C391 C 0.163 0.07479 0.24466 0.0
H392 H 0.28797 0.83958 0.77722 0.0
H393 H 0.35266 0.89193 0.73537 0.0
H394 H 0.31683 0.91771 0.70673 0.0
H395 H 0.26763 0.92241 0.69083 0.0
H396 H 0.2031 0.86925 0.73202 0.0
H397 H 0.23844 0.847 0.7639 0.0
C398 C 0.29427 0.85682 0.76203 0.0
C399 C 0.32301 0.86358 0.75825 0.0
C400 C 0.2736 0.87133 0.74543 0.0
C401 C 0.33072 0.88618 0.73865 0.0
C402 C 0.31024 0.90089 0.7222 0.0
C403 C 0.2612 0.9062 0.70698 0.0
C404 C 0.23275 0.89732 0.7088 0.0
C405 C 0.28168 0.89319 0.72499 0.0
C406 C 0.22483 0.87642 0.73002 0.0
C407 C 0.24505 0.8636 0.74821 0.0
H408 H 0.68912 0.41069 0.78791 0.0
H409 H 0.75342 0.38584 0.72707 0.0
H410 H 0.71739 0.37648 0.68998 0.0
H411 H 0.66744 0.37025 0.6766 0.0
H412 H 0.60334 0.3931 0.73843 0.0
H413 H 0.63954 0.40867 0.7732 0.0
C414 C 0.69535 0.40358 0.76644 0.0
C415 C 0.72395 0.39865 0.76043 0.0
C416 C 0.67452 0.39771 0.74541 0.0
C417 C 0.73157 0.38965 0.73239 0.0
C418 C 0.71095 0.38421 0.71117 0.0
C419 C 0.66134 0.37913 0.69748 0.0
C420 C 0.63268 0.38022 0.70496 0.0
C421 C 0.68232 0.38741 0.71768 0.0
C422 C 0.62522 0.39179 0.73216 0.0
C423 C 0.64592 0.40063 0.75211 0.0
H424 H 0.77747 0.61861 0.19001 0.0
H425 H 0.84197 0.57249 0.2384 0.0
H426 H 0.80676 0.55461 0.27271 0.0
H427 H 0.75853 0.55616 0.29154 0.0
H428 H 0.69421 0.60282 0.24335 0.0
H429 H 0.72846 0.61611 0.20629 0.0
C430 C 0.78382 0.60435 0.20785 0.0
C431 C 0.8124 0.59722 0.21179 0.0
C432 C 0.76351 0.59439 0.22768 0.0
C433 C 0.82016 0.57844 0.23488 0.0
C434 C 0.80003 0.5683 0.2546 0.0
C435 C 0.75189 0.56894 0.27277 0.0
C436 C 0.72388 0.57878 0.27047 0.0
C437 C 0.77177 0.57677 0.25163 0.0
C438 C 0.71564 0.59507 0.24581 0.0
C439 C 0.73525 0.60278 0.22462 0.0
H440 H 0.27772 0.16379 0.07541 0.0
H441 H 0.2051 0.11172 0.04854 0.0
H442 H 0.18151 0.15696 0.03259 0.0
H443 H 0.17915 0.21148 0.03164 0.0
H444 H 0.25126 0.26426 0.05795 0.0
H445 H 0.27754 0.21854 0.0685 0.0
C446 C 0.25694 0.16228 0.06559 0.0
C447 C 0.24304 0.13439 0.06365 0.0
C448 C 0.24329 0.18852 0.05666 0.0
C449 C 0.21623 0.13284 0.05059 0.0
C450 C 0.20263 0.15875 0.04154 0.0
C451 C 0.20076 0.21296 0.03936 0.0
C452 C 0.21316 0.2411 0.04446 0.0
C453 C 0.21558 0.18672 0.04537 0.0
C454 C 0.24128 0.24279 0.05394 0.0
C455 C 0.25623 0.21667 0.0601 0.0
H456 H 0.72572 0.34677 0.90303 0.0
H457 H 0.76813 0.29654 0.83672 0.0
H458 H 0.74179 0.25171 0.85008 0.0
H459 H 0.70408 0.22765 0.87798 0.0
H460 H 0.66092 0.27821 0.94352 0.0
H461 H 0.69037 0.32175 0.93326 0.0
C462 C 0.72943 0.32596 0.89168 0.0
C463 C 0.7487 0.32518 0.86872 0.0
C464 C 0.71397 0.30025 0.89926 0.0
C465 C 0.75329 0.29792 0.85435 0.0
C466 C 0.73821 0.27221 0.86196 0.0
C467 C 0.70137 0.24806 0.89031 0.0
C468 C 0.68014 0.24968 0.91132 0.0
C469 C 0.7181 0.27324 0.884 0.0
C470 C 0.67695 0.27634 0.92708 0.0
C471 C 0.69376 0.30133 0.92119 0.0
H472 H 0.77039 0.71716 0.42199 0.0
H473 H 0.70886 0.77353 0.38033 0.0
H474 H 0.67972 0.72973 0.36912 0.0
H475 H 0.67436 0.67513 0.36651 0.0
H476 H 0.73644 0.61888 0.40748 0.0
H477 H 0.76262 0.66303 0.42373 0.0
C478 C 0.75042 0.71996 0.4108 0.0
C479 C 0.74203 0.74856 0.40166 0.0
C480 C 0.734 0.69467 0.40404 0.0
C481 C 0.71591 0.75178 0.38752 0.0
C482 C 0.6993 0.72672 0.38095 0.0
C483 C 0.69347 0.67251 0.37925 0.0
C484 C 0.70364 0.64371 0.3854 0.0
C485 C 0.70856 0.69799 0.38834 0.0
C486 C 0.72822 0.64075 0.40227 0.0
C487 C 0.74325 0.66599 0.41152 0.0
H488 H 0.24198 0.85679 0.58061 0.0
H489 H 0.16474 0.81789 0.61247 0.0
H490 H 0.18095 0.76819 0.59923 0.0
H491 H 0.21888 0.73524 0.5827 0.0
H492 H 0.29607 0.77447 0.55099 0.0
H493 H 0.27795 0.82431 0.55992 0.0
C494 C 0.2285 0.83751 0.58431 0.0
C495 C 0.20233 0.84115 0.59783 0.0
C496 C 0.23805 0.80888 0.57691 0.0
C497 C 0.18508 0.81584 0.60224 0.0
C498 C 0.19437 0.78731 0.59478 0.0
C499 C 0.23162 0.75469 0.57745 0.0
C500 C 0.25894 0.75098 0.56652 0.0
C501 C 0.22112 0.78348 0.58276 0.0
C502 C 0.27504 0.77652 0.55962 0.0
C503 C 0.26472 0.80513 0.56476 0.0
H504 H 0.87331 0.66735 0.79821 0.0
H505 H 0.86582 0.74532 0.8527 0.0
H506 H 0.8808 0.7772 0.81281 0.0
H507 H 0.89233 0.78345 0.76151 0.0
H508 H 0.90093 0.70586 0.7069 0.0
H509 H 0.8893 0.67332 0.74782 0.0
C510 C 0.8753 0.69127 0.80148 0.0
C511 C 0.86815 0.7039 0.82838 0.0
C512 C 0.88386 0.70959 0.77835 0.0
C513 C 0.87111 0.73494 0.83227 0.0
C514 C 0.87954 0.75326 0.8094 0.0
C515 C 0.8918 0.75939 0.75859 0.0
C516 C 0.89711 0.74708 0.73115 0.0
C517 C 0.88533 0.74089 0.7822 0.0
C518 C 0.89684 0.71588 0.72781 0.0
C519 C 0.89012 0.69728 0.75117 0.0
H520 H 0.55077 0.196 0.25891 0.0
H521 H 0.59023 0.25737 0.1992 0.0
H522 H 0.60623 0.28842 0.23962 0.0
H523 H 0.61307 0.29546 0.29179 0.0
H524 H 0.57467 0.23378 0.35183 0.0
H525 H 0.55395 0.20572 0.31134 0.0
C526 C 0.56252 0.21639 0.25468 0.0
C527 C 0.56956 0.22411 0.22602 0.0
C528 C 0.57205 0.23396 0.27809 0.0
C529 C 0.58466 0.25073 0.221 0.0
C530 C 0.59391 0.26848 0.24413 0.0
C531 C 0.59994 0.27604 0.29609 0.0
C532 C 0.59574 0.26651 0.3248 0.0
C533 C 0.58839 0.25987 0.27275 0.0
C534 C 0.57835 0.24154 0.32995 0.0
C535 C 0.56658 0.22542 0.30679 0.0
H536 H 0.36741 0.73038 0.22779 0.0
H537 H 0.41678 0.67635 0.17001 0.0
H538 H 0.40191 0.70692 0.12899 0.0
H539 H 0.3703 0.7449 0.10881 0.0
H540 H 0.31987 0.79782 0.16659 0.0
H541 H 0.34008 0.77205 0.20825 0.0
C542 C 0.37529 0.72555 0.20631 0.0
C543 C 0.39283 0.70081 0.20195 0.0
C544 C 0.3663 0.7429 0.18272 0.0
C545 C 0.40304 0.69508 0.17399 0.0
C546 C 0.39449 0.71251 0.15046 0.0
C547 C 0.36411 0.7512 0.13053 0.0
C548 C 0.34328 0.77294 0.13451 0.0
C549 C 0.37541 0.73587 0.15444 0.0
C550 C 0.33564 0.78093 0.16285 0.0
C551 C 0.34713 0.76615 0.18673 0.0
H552 H 0.08411 0.16225 0.65147 0.0
H553 H 0.09027 0.24172 0.59873 0.0
H554 H 0.07438 0.27205 0.63913 0.0
H555 H 0.06333 0.27684 0.6905 0.0
H556 H 0.05717 0.19803 0.74394 0.0
H557 H 0.06825 0.16663 0.70213 0.0
C558 C 0.0815 0.18612 0.64865 0.0
C559 C 0.08874 0.19968 0.62215 0.0
C560 C 0.07266 0.20363 0.67218 0.0
C561 C 0.08512 0.23066 0.6189 0.0
C562 C 0.07611 0.2481 0.64205 0.0
C563 C 0.0642 0.25276 0.693 0.0
C564 C 0.05984 0.23982 0.72037 0.0
C565 C 0.07063 0.23494 0.66898 0.0
C566 C 0.06056 0.20856 0.72312 0.0
C567 C 0.06698 0.19061 0.69923 0.0
H568 H 0.7465 0.91019 0.75208 0.0
H569 H 0.6927 0.86964 0.68698 0.0
H570 H 0.73393 0.85654 0.65852 0.0
H571 H 0.78524 0.85172 0.65483 0.0
H572 H 0.83895 0.89064 0.72093 0.0
H573 H 0.79772 0.9095 0.74608 0.0
C574 C 0.7437 0.89886 0.73146 0.0
C575 C 0.71648 0.8906 0.7219 0.0
C576 C 0.76752 0.89087 0.71547 0.0
C577 C 0.71335 0.87612 0.69501 0.0
C578 C 0.73695 0.86851 0.67874 0.0
C579 C 0.78801 0.8647 0.67451 0.0
C580 C 0.81521 0.86941 0.68613 0.0
C581 C 0.76416 0.87502 0.68918 0.0
C582 C 0.81831 0.88646 0.71158 0.0
C583 C 0.79471 0.8972 0.72604 0.0
H584 H 0.66553 0.14548 0.17592 0.0
H585 H 0.61468 0.0825 0.22377 0.0
H586 H 0.6568 0.06388 0.24835 0.0
H587 H 0.70739 0.06852 0.25921 0.0
H588 H 0.75788 0.13234 0.21191 0.0
H589 H 0.71655 0.14734 0.18397 0.0
C590 C 0.66363 0.12748 0.19153 0.0
C591 C 0.63692 0.11564 0.19821 0.0
C592 C 0.68787 0.11711 0.20578 0.0
C593 C 0.63495 0.09213 0.21829 0.0
C594 C 0.65902 0.08152 0.23242 0.0
C595 C 0.70946 0.08546 0.24255 0.0
C596 C 0.73571 0.09948 0.23791 0.0
C597 C 0.68551 0.09429 0.22679 0.0
C598 C 0.73796 0.12127 0.2161 0.0
C599 C 0.7143 0.12994 0.20014 0.0
H600 H 0.28656 0.63993 0.21895 0.0
H601 H 0.32823 0.56801 0.26404 0.0
H602 H 0.28571 0.53725 0.25989 0.0
H603 H 0.23543 0.53257 0.2477 0.0
H604 H 0.19281 0.60555 0.20601 0.0
H605 H 0.23709 0.63389 0.20376 0.0
C606 C 0.28651 0.61739 0.22756 0.0
C607 C 0.31052 0.60643 0.24207 0.0
C608 C 0.26181 0.59998 0.22552 0.0
C609 C 0.31004 0.57711 0.25295 0.0
C610 C 0.2857 0.5595 0.25063 0.0
C611 C 0.23604 0.55448 0.23766 0.0
C612 C 0.2112 0.5667 0.22617 0.0
C613 C 0.2613 0.57098 0.23761 0.0
C614 C 0.21199 0.59521 0.21364 0.0
C615 C 0.23719 0.61161 0.21295 0.0
H616 H 0.20998 0.40427 0.68993 0.0
H617 H 0.26574 0.37439 0.75815 0.0
H618 H 0.22527 0.35944 0.78723 0.0
H619 H 0.17434 0.35116 0.79161 0.0
H620 H 0.11866 0.38021 0.72297 0.0
H621 H 0.15887 0.3995 0.69594 0.0
C622 C 0.21333 0.39474 0.71128 0.0
C623 C 0.24093 0.3902 0.72169 0.0
C624 C 0.18997 0.38595 0.7278 0.0
C625 C 0.24479 0.37804 0.74951 0.0
C626 C 0.22163 0.36941 0.76615 0.0
C627 C 0.1709 0.36203 0.7709 0.0
C628 C 0.14348 0.36395 0.75925 0.0
C629 C 0.19416 0.37272 0.75526 0.0
C630 C 0.1395 0.37829 0.73244 0.0
C631 C 0.16251 0.38924 0.71689 0.0
H632 H 0.73811 0.71559 0.8329 0.0
H633 H 0.7669 0.76015 0.91073 0.0
H634 H 0.74001 0.80455 0.89744 0.0
H635 H 0.71125 0.8321 0.86154 0.0
H636 H 0.68314 0.78662 0.78381 0.0
H637 H 0.70676 0.74136 0.79932 0.0
C638 C 0.73831 0.73488 0.84715 0.0
C639 C 0.75472 0.73462 0.87261 0.0
C640 C 0.72307 0.76036 0.83926 0.0
C641 C 0.75448 0.75974 0.89095 0.0
C642 C 0.73921 0.78522 0.88329 0.0
C643 C 0.71011 0.81221 0.84815 0.0
C644 C 0.69567 0.81296 0.82139 0.0
C645 C 0.7239 0.78602 0.85716 0.0
C646 C 0.69425 0.78687 0.8044 0.0
C647 C 0.70777 0.76087 0.81323 0.0
H648 H 0.15671 0.66929 0.12008 0.0
H649 H 0.23055 0.61623 0.13694 0.0
H650 H 0.25999 0.65417 0.1137 0.0
H651 H 0.26479 0.70259 0.089 0.0
H652 H 0.191 0.7561 0.07342 0.0
H653 H 0.16148 0.71759 0.09558 0.0
C654 C 0.17924 0.66596 0.11871 0.0
C655 C 0.19136 0.63987 0.13019 0.0
C656 C 0.19604 0.68788 0.10542 0.0
C657 C 0.22063 0.63604 0.12824 0.0
C658 C 0.23749 0.65772 0.11493 0.0
C659 C 0.24221 0.70574 0.09022 0.0
C660 C 0.23011 0.73217 0.07943 0.0
C661 C 0.22541 0.68371 0.1034 0.0
C662 C 0.20086 0.736 0.08151 0.0
C663 C 0.18397 0.714 0.09423 0.0
H664 H 0.27848 0.32142 0.60108 0.0
H665 H 0.20406 0.36981 0.5755 0.0
H666 H 0.18253 0.32367 0.55744 0.0
H667 H 0.18299 0.26926 0.55313 0.0
H668 H 0.25637 0.22016 0.58056 0.0
H669 H 0.28024 0.267 0.59343 0.0
C670 C 0.25774 0.32198 0.59112 0.0
C671 C 0.24283 0.34905 0.58982 0.0
C672 C 0.24519 0.2952 0.58136 0.0
C673 C 0.21594 0.3493 0.57693 0.0
C674 C 0.20357 0.32289 0.56666 0.0
C675 C 0.20432 0.26872 0.56166 0.0
C676 C 0.21773 0.24113 0.56615 0.0
C677 C 0.2177 0.29564 0.56946 0.0
C678 C 0.24546 0.24101 0.57701 0.0
C679 C 0.25911 0.26781 0.58445 0.0
H680 H 0.69076 0.21299 0.40371 0.0
H681 H 0.73883 0.28119 0.35953 0.0
H682 H 0.77079 0.24343 0.34123 0.0
H683 H 0.78234 0.19079 0.33375 0.0
H684 H 0.73417 0.12225 0.3772 0.0
H685 H 0.70529 0.16044 0.40004 0.0
C686 C 0.70845 0.21966 0.39041 0.0
C687 C 0.71211 0.24989 0.38272 0.0
C688 C 0.72666 0.19774 0.37964 0.0
C689 C 0.7353 0.25811 0.36563 0.0
C690 C 0.75361 0.2365 0.35507 0.0
C691 C 0.76573 0.18418 0.34848 0.0
C692 C 0.76021 0.15369 0.35344 0.0
C693 C 0.74903 0.2062 0.36129 0.0
C694 C 0.73882 0.14555 0.37287 0.0
C695 C 0.7222 0.16738 0.38587 0.0
H696 H 0.10283 0.1829 0.46452 0.0
H697 H 0.18601 0.14703 0.45219 0.0
H698 H 0.1756 0.13853 0.40108 0.0
H699 H 0.14275 0.1401 0.36009 0.0
H700 H 0.05953 0.17598 0.3718 0.0
H701 H 0.0702 0.18578 0.42284 0.0
C702 C 0.11869 0.17328 0.45063 0.0
C703 C 0.14512 0.16552 0.46226 0.0
C704 C 0.1126 0.16844 0.42112 0.0
C705 C 0.16547 0.15319 0.4439 0.0
C706 C 0.15955 0.14829 0.41462 0.0
C707 C 0.12694 0.15016 0.37374 0.0
C708 C 0.10036 0.15719 0.36212 0.0
C709 C 0.13316 0.15567 0.40304 0.0
C710 C 0.08019 0.17033 0.38016 0.0
C711 C 0.08624 0.17589 0.40938 0.0
H712 H 0.34406 0.80183 0.97 0.0
H713 H 0.30526 0.71567 0.95448 0.0
H714 H 0.32117 0.71684 0.9043 0.0
H715 H 0.3452 0.74288 0.86439 0.0
H716 H 0.38358 0.82923 0.8802 0.0
H717 H 0.36878 0.8273 0.93059 0.0
C718 C 0.33914 0.78323 0.95571 0.0
C719 C 0.32342 0.75874 0.96606 0.0
C720 C 0.34825 0.78408 0.92683 0.0
C721 C 0.31729 0.73485 0.94715 0.0
C722 C 0.32637 0.73549 0.9184 0.0
C723 C 0.35042 0.76123 0.87887 0.0
C724 C 0.36543 0.78618 0.8684 0.0
C725 C 0.34173 0.76008 0.90793 0.0
C726 C 0.372 0.80975 0.88755 0.0
C727 C 0.36353 0.8087 0.91644 0.0
H728 H 0.65265 0.26512 0.51842 0.0
H729 H 0.58216 0.3129 0.48205 0.0
H730 H 0.56355 0.32106 0.53059 0.0
H731 H 0.56806 0.31602 0.58352 0.0
H732 H 0.63861 0.2681 0.61966 0.0
H733 H 0.65628 0.25857 0.57108 0.0
C734 C 0.63316 0.27725 0.52105 0.0
C735 C 0.61892 0.28847 0.49656 0.0
C736 C 0.62257 0.2819 0.54904 0.0
C737 C 0.5936 0.304 0.50047 0.0
C738 C 0.58295 0.30873 0.52825 0.0
C739 C 0.58724 0.30338 0.58079 0.0
C740 C 0.60202 0.29292 0.6053 0.0
C741 C 0.59737 0.29799 0.55272 0.0
C742 C 0.62679 0.27649 0.60126 0.0
C743 C 0.63696 0.27104 0.57345 0.0
H744 H 0.83987 0.64758 0.09725 0.0
H745 H 0.92524 0.66728 0.07161 0.0
H746 H 0.9095 0.67483 0.02167 0.0
H747 H 0.87158 0.67515 -0.01496 0.0
H748 H 0.78627 0.65547 0.01093 0.0
H749 H 0.80197 0.64864 0.0609 0.0
C750 C 0.85506 0.65359 0.08078 0.0
C751 C 0.88372 0.65679 0.08824 0.0
C752 C 0.84589 0.65787 0.05206 0.0
C753 C 0.90305 0.66464 0.06655 0.0
C754 C 0.89408 0.66895 0.03793 0.0
C755 C 0.85641 0.6694 0.0016 0.0
C756 C 0.82779 0.66579 -0.00585 0.0
C757 C 0.86557 0.6655 0.03041 0.0
C758 C 0.80844 0.65839 0.01597 0.0
C759 C 0.81738 0.65446 0.04461 0.0
H760 H 0.38993 0.05038 0.1528 0.0
H761 H 0.34528 0.13065 0.17534 0.0
H762 H 0.38958 0.15481 0.18945 0.0
H763 H 0.44126 0.15455 0.19162 0.0
H764 H 0.4859 0.07457 0.16811 0.0
H765 H 0.44129 0.04892 0.1583 0.0
C766 C 0.38979 0.07305 0.16112 0.0
C767 C 0.36428 0.08873 0.16274 0.0
C768 C 0.41539 0.08698 0.16881 0.0
C769 C 0.36457 0.11805 0.17372 0.0
C770 C 0.38994 0.13195 0.18171 0.0
C771 C 0.44127 0.13143 0.18459 0.0
C772 C 0.46696 0.11664 0.18035 0.0
C773 C 0.41552 0.11685 0.17873 0.0
C774 C 0.46649 0.08658 0.17143 0.0
C775 C 0.44097 0.07188 0.16576 0.0
H776 H 0.97404 0.89146 0.61977 0.0
H777 H -0.01846 0.85061 0.70416 0.0
H778 H 0.03152 0.86375 0.706 0.0
H779 H 0.07377 0.88455 0.68248 0.0
H780 H 0.06589 0.92486 0.59784 0.0
H781 H 0.01552 0.91433 0.59742 0.0
C782 C -0.01348 0.88559 0.63868 0.0
C783 C 0.97401 0.8699 0.66169 0.0
C784 C 0.01531 0.89302 0.63953 0.0
C785 C -0.00942 0.86261 0.68606 0.0
C786 C 0.01922 0.87008 0.68713 0.0
C787 C 0.061 0.89124 0.66405 0.0
C788 C 0.07372 0.90531 0.64016 0.0
C789 C 0.03191 0.88493 0.66381 0.0
C790 C 0.05678 0.91386 0.61648 0.0
C791 C 0.0279 0.90783 0.61618 0.0
H792 H 0.96949 0.30884 0.8313 0.0
H793 H -0.01848 0.36589 0.75703 0.0
H794 H 0.93293 0.38335 0.76095 0.0
H795 H 0.88676 0.38201 0.78559 0.0
H796 H 0.87644 0.32601 0.86099 0.0
H797 H 0.92457 0.30852 0.85641 0.0
C798 C 0.96153 0.32507 0.8159 0.0
C799 C -0.02094 0.33592 0.79382 0.0
C800 C 0.93381 0.33518 0.81847 0.0
C801 C 0.96846 0.3572 0.77426 0.0
C802 C 0.94065 0.36713 0.77645 0.0
C803 C 0.89508 0.36594 0.80094 0.0
C804 C 0.87798 0.35528 0.82354 0.0
C805 C 0.92309 0.3562 0.79846 0.0
C806 C 0.88913 0.33466 0.84344 0.0
C807 C 0.91667 0.32458 0.84084 0.0
H808 H 0.47869 0.66234 0.33668 0.0
H809 H 0.47 0.60261 0.26369 0.0
H810 H 0.51882 0.58656 0.27033 0.0
H811 H 0.56415 0.58986 0.29698 0.0
H812 H 0.57129 0.6485 0.37106 0.0
H813 H 0.52291 0.66463 0.36381 0.0
C814 C 0.48744 0.64584 0.32215 0.0
C815 C 0.47079 0.6338 0.29964 0.0
C816 C 0.51529 0.63653 0.32629 0.0
C817 C 0.48239 0.61219 0.28123 0.0
C818 C 0.51031 0.60307 0.28498 0.0
C819 C 0.5551 0.60621 0.31146 0.0
C820 C 0.57136 0.61802 0.33447 0.0
C821 C 0.527 0.61515 0.30743 0.0
C822 C 0.55925 0.63898 0.35323 0.0
C823 C 0.53158 0.64828 0.34909 0.0
H824 H 0.20744 0.37377 0.10981 0.0
H825 H 0.13132 0.39094 0.06104 0.0
H826 H 0.13079 0.44211 0.07915 0.0
H827 H 0.15034 0.48115 0.11091 0.0
H828 H 0.22624 0.46404 0.16001 0.0
H829 H 0.22846 0.41382 0.13956 0.0
C830 C 0.19086 0.38876 0.10293 0.0
C831 C 0.16936 0.37837 0.08423 0.0
C832 C 0.19053 0.41818 0.11359 0.0
C833 C 0.14809 0.39821 0.0755 0.0
C834 C 0.14772 0.42752 0.08589 0.0
C835 C 0.16749 0.46653 0.11701 0.0
C836 C 0.18797 0.47634 0.13714 0.0
C837 C 0.16858 0.4376 0.10528 0.0
C838 C 0.21012 0.4571 0.14464 0.0
C839 C 0.2114 0.42831 0.13299 0.0
H840 H 0.68871 -0.00635 0.82795 0.0
H841 H 0.61484 0.97179 0.87789 0.0
H842 H 0.61131 0.02366 0.89346 0.0
H843 H 0.62785 0.07553 0.89138 0.0
H844 H 0.70156 0.09789 0.84149 0.0
H845 H 0.70647 0.0455 0.8275 0.0
C846 C 0.67196 0.00016 0.84242 0.0
C847 C 0.652 0.97879 0.85161 0.0
C848 C 0.6699 0.03016 0.85118 0.0
C849 C 0.63047 -0.01231 0.8704 0.0
C850 C 0.62837 0.01741 0.87929 0.0
C851 C 0.64504 0.069 0.87746 0.0
C852 C 0.66418 0.0907 0.86734 0.0
C853 C 0.64774 0.03889 0.86952 0.0
C854 C 0.68647 0.08171 0.84955 0.0
C855 C 0.68928 0.05173 0.84151 0.0
H856 H 0.77576 0.97596 0.32126 0.0
H857 H 0.81179 0.00102 0.40403 0.0
H858 H 0.81604 0.94836 0.41721 0.0
H859 H 0.81141 0.89512 0.40431 0.0
H860 H 0.77589 0.87061 0.32111 0.0
H861 H 0.76949 0.92313 0.30916 0.0
C862 C 0.78442 0.96997 0.34226 0.0
C863 C 0.79358 -0.00754 0.36154 0.0
C864 C 0.78698 0.9397 0.34962 0.0
C865 C 0.80464 -0.0158 0.38871 0.0
C866 C 0.80711 0.95407 0.39626 0.0
C867 C 0.8021 0.90125 0.38364 0.0
C868 C 0.7943 0.87889 0.3636 0.0
C869 C 0.79864 0.93161 0.37676 0.0
C870 C 0.78223 0.88729 0.33693 0.0
C871 C 0.77855 0.91736 0.33003 0.0
H872 H 0.28389 0.50496 0.63923 0.0
H873 H 0.29783 0.48183 0.54968 0.0
H874 H 0.29952 0.53475 0.53684 0.0
H875 H 0.29957 0.58761 0.55145 0.0
H876 H 0.28643 0.61052 0.6412 0.0
H877 H 0.28157 0.5577 0.6534 0.0
C878 C 0.28719 0.51144 0.61686 0.0
C879 C 0.29095 0.48937 0.59551 0.0
C880 C 0.28825 0.54192 0.60963 0.0
C881 C 0.295 0.49827 0.56661 0.0
C882 C 0.29596 0.52857 0.55923 0.0
C883 C 0.29531 0.5811 0.57363 0.0
C884 C 0.29351 0.60308 0.59539 0.0
C885 C 0.29294 0.5506 0.58061 0.0
C886 C 0.28802 0.59414 0.62402 0.0
C887 C 0.28532 0.5639 0.63105 0.0
H888 H 0.83307 0.74097 0.50638 0.0
H889 H 0.87631 0.82122 0.47901 0.0
H890 H 0.89181 0.83056 0.52883 0.0
H891 H 0.89049 0.81771 0.58061 0.0
H892 H 0.84591 0.73824 0.60795 0.0
H893 H 0.83366 0.72685 0.55768 0.0
C894 C 0.84614 0.76035 0.5112 0.0
C895 C 0.85338 0.78042 0.48894 0.0
C896 C 0.85459 0.76586 0.53996 0.0
C897 C 0.87032 0.80543 0.49569 0.0
C898 C 0.87915 0.81084 0.52421 0.0
C899 C 0.8783 0.79775 0.57558 0.0
C900 C 0.86901 0.77896 0.59811 0.0
C901 C 0.87101 0.79148 0.5466 0.0
C902 C 0.85323 0.7532 0.59112 0.0
C903 C 0.84619 0.74665 0.56234 0.0
H904 H 0.59318 0.18527 -0.00693 0.0
H905 H 0.63866 0.10222 -0.00993 0.0
H906 H 0.62412 0.09052 0.03925 0.0
H907 H 0.59913 0.10379 0.08327 0.0
H908 H 0.55541 0.18769 0.08834 0.0
H909 H 0.56862 0.19918 0.03829 0.0
C910 C 0.59977 0.16459 0.0032 0.0
C911 C 0.61693 0.14463 -0.01211 0.0
C912 C 0.59171 0.15817 0.03187 0.0
C913 C 0.62556 0.11805 0.00139 0.0
C914 C 0.61721 0.11128 0.02952 0.0
C915 C 0.59235 0.12456 0.07343 0.0
C916 C 0.57616 0.14476 0.08944 0.0
C917 C 0.60039 0.13118 0.04497 0.0
C918 C 0.56789 0.17174 0.07646 0.0
C919 C 0.57541 0.1783 0.04784 0.0
H920 H 0.38206 0.66513 0.3724 0.0
H921 H 0.29963 0.69173 0.34244 0.0
H922 H 0.28471 0.69896 0.39236 0.0
H923 H 0.29432 0.69599 0.44443 0.0
H924 H 0.37654 0.6694 0.47486 0.0
H925 H 0.39227 0.66401 0.4248 0.0
C926 C 0.36087 0.67266 0.37677 0.0
C927 C 0.34197 0.67773 0.35363 0.0
C928 C 0.35234 0.67668 0.4056 0.0
C929 C 0.31463 0.68759 0.35975 0.0
C930 C 0.30603 0.69169 0.38833 0.0
C931 C 0.31573 0.68908 0.44018 0.0
C932 C 0.33416 0.68293 0.46341 0.0
C933 C 0.3246 0.686 0.41141 0.0
C934 C 0.36188 0.67422 0.45742 0.0
C935 C 0.37088 0.6711 0.42878 0.0
H936 H 0.13221 0.23952 0.94493 0.0
H937 H 0.08585 0.31748 0.97108 0.0
H938 H 0.07069 0.3255 0.92104 0.0
H939 H 0.07251 0.31192 0.8696 0.0
H940 H 0.11982 0.23469 0.84322 0.0
H941 H 0.13258 0.22485 0.89367 0.0
C942 C 0.11859 0.25813 0.93977 0.0
C943 C 0.11028 0.27792 0.96178 0.0
C944 C 0.11023 0.26286 0.91087 0.0
C945 C 0.09265 0.30194 0.95461 0.0
C946 C 0.08399 0.30658 0.92596 0.0
C947 C 0.08549 0.29281 0.87485 0.0
C948 C 0.0953 0.27417 0.85257 0.0
C949 C 0.09297 0.28743 0.90387 0.0
C950 C 0.11205 0.2495 0.85986 0.0
C951 C 0.11938 0.24384 0.88873 0.0
H952 H 0.5828 0.83406 0.83426 0.0
H953 H 0.57871 0.89945 0.76574 0.0
H954 H 0.52864 0.88781 0.75824 0.0
H955 H 0.48573 0.85939 0.77199 0.0
H956 H 0.49143 0.7933 0.83991 0.0
H957 H 0.54112 0.80501 0.8468 0.0
C958 C 0.57102 0.84583 0.81764 0.0
C959 C 0.58445 0.86772 0.80071 0.0
C960 C 0.54245 0.83894 0.8134 0.0
C961 C 0.56888 0.88247 0.77908 0.0
C962 C 0.54023 0.87588 0.77484 0.0
C963 C 0.49788 0.84761 0.7883 0.0
C964 C 0.48479 0.82557 0.80548 0.0
C965 C 0.52673 0.85425 0.79202 0.0
C966 C 0.50089 0.81032 0.82635 0.0
C967 C 0.52936 0.81701 0.83036 0.0
H968 H 0.87906 0.12934 0.34603 0.0
H969 H 0.87118 0.0742 0.26967 0.0
H970 H 0.92012 0.0855 0.25702 0.0
H971 H 0.9655 0.11096 0.26812 0.0
H972 H 0.97158 0.16789 0.34351 0.0
H973 H 0.92312 0.15593 0.35604 0.0
C974 C 0.88803 0.11974 0.32662 0.0
C975 C 0.87157 0.10081 0.30894 0.0
C976 C 0.91594 0.12665 0.31931 0.0
C977 C 0.88342 0.08887 0.28366 0.0
C978 C 0.91142 0.09527 0.27646 0.0
C979 C 0.95617 0.12068 0.28728 0.0
C980 C 0.97219 0.14021 0.30488 0.0
C981 C 0.92795 0.11408 0.29418 0.0
C982 C 0.95973 0.15287 0.3295 0.0
C983 C 0.932 0.14601 0.33676 0.0
H984 H 0.0529 0.53016 0.203 0.0
H985 H 0.07701 0.60512 0.14954 0.0
H986 H 0.02837 0.62236 0.14869 0.0
H987 H -0.02082 0.61674 0.16387 0.0
H988 H 0.95522 0.54197 0.21767 0.0
H989 H 0.00362 0.52413 0.21757 0.0
C990 C 0.04755 0.55022 0.19106 0.0
C991 C 0.06865 0.56631 0.17639 0.0
C992 C 0.01955 0.56011 0.19077 0.0
C993 C 0.06124 0.59228 0.16106 0.0
C994 C 0.03341 0.60219 0.16057 0.0
C995 C -0.0155 0.5965 0.17554 0.0
C996 C 0.96353 0.58078 0.1908 0.0
C997 C 0.01242 0.58637 0.17547 0.0
C998 C 0.97087 0.55457 0.20576 0.0
C999 C -0.00142 0.54433 0.20573 0.0
H1000 H 0.38372 0.40088 0.66231 0.0
H1001 H 0.35048 0.31227 0.67785 0.0
H1002 H 0.39803 0.29329 0.68427 0.0
H1003 H 0.44899 0.30119 0.68377 0.0
H1004 H 0.48287 0.38942 0.66799 0.0
H1005 H 0.43516 0.40913 0.66342 0.0
C1006 C 0.38687 0.37747 0.66732 0.0
C1007 C 0.36348 0.35805 0.66948 0.0
C1008 C 0.4144 0.36655 0.67079 0.0
C1009 C 0.36801 0.32776 0.67595 0.0
C1010 C 0.39524 0.31682 0.6796 0.0
C1011 C 0.44602 0.32477 0.67938 0.0
C1012 C 0.46954 0.34374 0.67608 0.0
C1013 C 0.41858 0.33593 0.67675 0.0
C1014 C 0.46518 0.37426 0.67057 0.0
C1015 C 0.43788 0.38557 0.66795 0.0
H1016 H 0.81768 0.55605 0.9172 0.0
H1017 H 0.79123 0.60804 0.84318 0.0
H1018 H 0.78193 0.56233 0.81586 0.0
H1019 H 0.7833 0.50774 0.81209 0.0
H1020 H 0.80911 0.45544 0.88607 0.0
H1021 H 0.81649 0.50112 0.91428 0.0
C1022 C 0.80974 0.55739 0.89515 0.0
C1023 C 0.80536 0.58549 0.88225 0.0
C1024 C 0.80439 0.53096 0.87948 0.0
C1025 C 0.79485 0.58676 0.8537 0.0
C1026 C 0.78957 0.56061 0.83798 0.0
C1027 C 0.79043 0.50629 0.83442 0.0
C1028 C 0.79585 0.4782 0.84685 0.0
C1029 C 0.79459 0.53261 0.85053 0.0
C1030 C 0.80481 0.47676 0.87593 0.0
C1031 C 0.80911 0.50288 0.89207 0.0
H1032 H 0.33116 0.90011 0.05548 0.0
H1033 H 0.24988 0.86237 0.07638 0.0
H1034 H 0.23345 0.91151 0.0914 0.0
H1035 H 0.24276 0.96478 0.10052 0.0
H1036 H 0.32427 0.00227 0.08007 0.0
H1037 H 0.33988 0.95365 0.06286 0.0
C1038 C 0.30979 0.90262 0.06317 0.0
C1039 C 0.29185 0.87752 0.0649 0.0
C1040 C 0.30051 0.9309 0.07194 0.0
C1041 C 0.26419 0.88126 0.07485 0.0
C1042 C 0.25476 0.90937 0.08349 0.0
C1043 C 0.26389 0.96239 0.09215 0.0
C1044 C 0.28232 -0.01283 0.09173 0.0
C1045 C 0.27284 0.93429 0.08243 0.0
C1046 C 0.30962 -0.01639 0.08073 0.0
C1047 C 0.31861 0.95578 0.0709 0.0
H1048 H 0.17084 -0.00708 0.60117 0.0
H1049 H 0.17401 0.01619 0.69195 0.0
H1050 H 0.1763 0.06907 0.67959 0.0
H1051 H 0.17451 0.10894 0.64326 0.0
H1052 H 0.16973 0.08606 0.55248 0.0
H1053 H 0.17123 0.03299 0.5646 0.0
C1054 C 0.17228 0.00955 0.61823 0.0
C1055 C 0.17207 0.00054 0.64744 0.0
C1056 C 0.17324 0.04009 0.611 0.0
C1057 C 0.17392 0.02244 0.66927 0.0
C1058 C 0.17526 0.05275 0.66225 0.0
C1059 C 0.17414 0.09238 0.62609 0.0
C1060 C 0.1719 0.10153 0.59702 0.0
C1061 C 0.17451 0.06186 0.63321 0.0
C1062 C 0.17133 0.07969 0.57507 0.0
C1063 C 0.17214 0.04929 0.58197 0.0
H1064 H 0.64042 0.41458 0.42612 0.0
H1065 H 0.65801 0.36495 0.34812 0.0
H1066 H 0.66467 0.4114 0.32153 0.0
H1067 H 0.66367 0.46602 0.3197 0.0
H1068 H 0.64653 0.51609 0.39745 0.0
H1069 H 0.64168 0.46961 0.42477 0.0
C1070 C 0.64586 0.41392 0.40335 0.0
C1071 C 0.64851 0.38626 0.38917 0.0
C1072 C 0.64967 0.44081 0.38805 0.0
C1073 C 0.65572 0.38587 0.35965 0.0
C1074 C 0.65951 0.41245 0.34434 0.0
C1075 C 0.65896 0.46681 0.34264 0.0
C1076 C 0.65528 0.4945 0.35642 0.0
C1077 C 0.65622 0.44003 0.35823 0.0
C1078 C 0.64943 0.49508 0.38625 0.0
C1079 C 0.6466 0.46849 0.40191 0.0
loop_
_geom_bond_atom_site_label_1
_geom_bond_atom_site_label_2
_geom_bond_distance
_geom_bond_site_symmetry_2
_ccdc_geom_bond_type
C0 O1 1.160 . S
C0 O7 1.185 . S
O1 C0 1.160 . S
O2 Zn3 1.899 . S
O2 C10 1.284 . S
Zn3 O2 1.899 . S
Zn3 O4 2.032 . S
Zn3 O7 2.086 . S
Zn3 O12 1.977 . S
O4 Zn3 2.032 . S
O4 C8 1.278 . S
C5 O6 1.203 . S
C5 O12 1.267 . S
O6 C5 1.203 . S
O7 C0 1.185 . S
O7 Zn3 2.086 . S
C8 O4 1.278 . S
C8 O9 1.211 . S
O9 C8 1.211 . S
C10 O2 1.284 . S
C10 O11 1.273 . S
O11 C10 1.273 . S
O12 Zn3 1.977 . S
O12 C5 1.267 . S
C13 O14 1.160 . S
C13 O20 1.185 . S
O14 C13 1.160 . S
O15 Zn16 1.899 . S
O15 C23 1.284 . S
Zn16 O15 1.899 . S
Zn16 O17 2.032 . S
Zn16 O20 2.086 . S
Zn16 O25 1.977 . S
O17 Zn16 2.032 . S
O17 C21 1.278 . S
C18 O19 1.203 . S
C18 O25 1.267 . S
O19 C18 1.203 . S
O20 C13 1.185 . S
O20 Zn16 2.086 . S
C21 O17 1.278 . S
C21 O22 1.211 . S
O22 C21 1.211 . S
C23 O15 1.284 . S
C23 O24 1.273 . S
O24 C23 1.273 . S
O25 Zn16 1.977 . S
O25 C18 1.267 . S
C26 O27 1.160 . S
C26 O33 1.185 . S
O27 C26 1.160 . S
O28 Zn29 1.899 . S
O28 C36 1.284 . S
Zn29 O28 1.899 . S
Zn29 O30 2.032 . S
Zn29 O33 2.086 . S
Zn29 O38 1.977 . S
O30 Zn29 2.032 . S
O30 C34 1.278 . S
C31 O32 1.203 . S
C31 O38 1.267 . S
O32 C31 1.203 . S
O33 C26 1.185 . S
O33 Zn29 2.086 . S
C34 O30 1.278 . S
C34 O35 1.211 . S
O35 C34 1.211 . S
C36 O28 1.284 . S
C36 O37 1.273 . S
O37 C36 1.273 . S
O38 Zn29 1.977 . S
O38 C31 1.267 . S
C39 O40 1.160 . S
C39 O46 1.185 . S
O40 C39 1.160 . S
O41 Zn42 1.899 . S
O41 C49 1.284 . S
Zn42 O41 1.899 . S
Zn42 O43 2.032 . S
Zn42 O46 2.086 . S
Zn42 O51 1.977 . S
O43 Zn42 2.032 . S
O43 C47 1.278 . S
C44 O45 1.203 . S
C44 O51 1.267 . S
O45 C44 1.203 . S
O46 C39 1.185 . S
O46 Zn42 2.086 . S
C47 O43 1.278 . S
C47 O48 1.211 . S
O48 C47 1.211 . S
C49 O41 1.284 . S
C49 O50 1.273 . S
O50 C49 1.273 . S
O51 Zn42 1.977 . S
O51 C44 1.267 . S
C52 O53 1.160 . S
C52 O59 1.185 . S
O53 C52 1.160 . S
O54 Zn55 1.899 . S
O54 C62 1.284 . S
Zn55 O54 1.899 . S
Zn55 O56 2.032 . S
Zn55 O59 2.086 . S
Zn55 O64 1.977 . S
O56 Zn55 2.032 . S
O56 C60 1.278 . S
C57 O58 1.203 . S
C57 O64 1.267 . S
O58 C57 1.203 . S
O59 C52 1.185 . S
O59 Zn55 2.086 . S
C60 O56 1.278 . S
C60 O61 1.211 . S
O61 C60 1.211 . S
C62 O54 1.284 . S
C62 O63 1.273 . S
O63 C62 1.273 . S
O64 Zn55 1.977 . S
O64 C57 1.267 . S
C65 O66 1.160 . S
C65 O72 1.185 . S
O66 C65 1.160 . S
O67 Zn68 1.899 . S
O67 C75 1.284 . S
Zn68 O67 1.899 . S
Zn68 O69 2.032 . S
Zn68 O72 2.086 . S
Zn68 O77 1.977 . S
O69 Zn68 2.032 . S
O69 C73 1.278 . S
C70 O71 1.203 . S
C70 O77 1.267 . S
O71 C70 1.203 . S
O72 C65 1.185 . S
O72 Zn68 2.086 . S
C73 O69 1.278 . S
C73 O74 1.211 . S
O74 C73 1.211 . S
C75 O67 1.284 . S
C75 O76 1.273 . S
O76 C75 1.273 . S
O77 Zn68 1.977 . S
O77 C70 1.267 . S
C78 O79 1.160 . S
C78 O85 1.185 . S
O79 C78 1.160 . S
O80 Zn81 1.899 . S
O80 C88 1.284 . S
Zn81 O80 1.899 . S
Zn81 O82 2.032 . S
Zn81 O85 2.086 . S
Zn81 O90 1.977 . S
O82 Zn81 2.032 . S
O82 C86 1.278 . S
C83 O84 1.203 . S
C83 O90 1.267 . S
O84 C83 1.203 . S
O85 C78 1.185 . S
O85 Zn81 2.086 . S
C86 O82 1.278 . S
C86 O87 1.211 . S
O87 C86 1.211 . S
C88 O80 1.284 . S
C88 O89 1.273 . S
O89 C88 1.273 . S
O90 Zn81 1.977 . S
O90 C83 1.267 . S
C91 O92 1.160 . S
C91 O98 1.185 . S
O92 C91 1.160 . S
O93 Zn94 1.899 . S
O93 C101 1.284 . S
Zn94 O93 1.899 . S
Zn94 O95 2.032 . S
Zn94 O98 2.086 . S
Zn94 O103 1.977 . S
O95 Zn94 2.032 . S
O95 C99 1.278 . S
C96 O97 1.203 . S
C96 O103 1.267 . S
O97 C96 1.203 . S
O98 C91 1.185 . S
O98 Zn94 2.086 . S
C99 O95 1.278 . S
C99 O100 1.211 . S
O100 C99 1.211 . S
C101 O93 1.284 . S
C101 O102 1.273 . S
O102 C101 1.273 . S
O103 Zn94 1.977 . S
O103 C96 1.267 . S
C104 O105 1.160 . S
C104 O111 1.185 . S
O105 C104 1.160 . S
O106 Zn107 1.899 . S
O106 C114 1.284 . S
Zn107 O106 1.899 . S
Zn107 O108 2.032 . S
Zn107 O111 2.086 . S
Zn107 O116 1.977 . S
O108 Zn107 2.032 . S
O108 C112 1.278 . S
C109 O110 1.203 . S
C109 O116 1.267 . S
O110 C109 1.203 . S
O111 C104 1.185 . S
O111 Zn107 2.086 . S
C112 O108 1.278 . S
C112 O113 1.211 . S
O113 C112 1.211 . S
C114 O106 1.284 . S
C114 O115 1.273 . S
O115 C114 1.273 . S
O116 Zn107 1.977 . S
O116 C109 1.267 . S
C117 O118 1.160 . S
C117 O124 1.185 . S
O118 C117 1.160 . S
O119 Zn120 1.899 . S
O119 C127 1.284 . S
Zn120 O119 1.899 . S
Zn120 O121 2.032 . S
Zn120 O124 2.086 . S
Zn120 O129 1.977 . S
O121 Zn120 2.032 . S
O121 C125 1.278 . S
C122 O123 1.203 . S
C122 O129 1.267 . S
O123 C122 1.203 . S
O124 C117 1.185 . S
O124 Zn120 2.086 . S
C125 O121 1.278 . S
C125 O126 1.211 . S
O126 C125 1.211 . S
C127 O119 1.284 . S
C127 O128 1.273 . S
O128 C127 1.273 . S
O129 Zn120 1.977 . S
O129 C122 1.267 . S
C130 O131 1.160 . S
C130 O137 1.185 . S
O131 C130 1.160 . S
O132 Zn133 1.899 . S
O132 C140 1.284 . S
Zn133 O132 1.899 . S
Zn133 O134 2.032 . S
Zn133 O137 2.086 . S
Zn133 O142 1.977 . S
O134 Zn133 2.032 . S
O134 C138 1.278 . S
C135 O136 1.203 . S
C135 O142 1.267 . S
O136 C135 1.203 . S
O137 C130 1.185 . S
O137 Zn133 2.086 . S
C138 O134 1.278 . S
C138 O139 1.211 . S
O139 C138 1.211 . S
C140 O132 1.284 . S
C140 O141 1.273 . S
O141 C140 1.273 . S
O142 Zn133 1.977 . S
O142 C135 1.267 . S
C143 O144 1.160 . S
C143 O150 1.185 . S
O144 C143 1.160 . S
O145 Zn146 1.899 . S
O145 C153 1.284 . S
Zn146 O145 1.899 . S
Zn146 O147 2.032 . S
Zn146 O150 2.086 . S
Zn146 O155 1.977 . S
O147 Zn146 2.032 . S
O147 C151 1.278 . S
C148 O149 1.203 . S
C148 O155 1.267 . S
O149 C148 1.203 . S
O150 C143 1.185 . S
O150 Zn146 2.086 . S
C151 O147 1.278 . S
C151 O152 1.211 . S
O152 C151 1.211 . S
C153 O145 1.284 . S
C153 O154 1.273 . S
O154 C153 1.273 . S
O155 Zn146 1.977 . S
O155 C148 1.267 . S
C156 O157 1.160 . S
C156 O163 1.185 . S
O157 C156 1.160 . S
O158 Zn159 1.899 . S
O158 C166 1.284 . S
Zn159 O158 1.899 . S
Zn159 O160 2.032 . S
Zn159 O163 2.086 . S
Zn159 O168 1.977 . S
O160 Zn159 2.032 . S
O160 C164 1.278 . S
C161 O162 1.203 . S
C161 O168 1.267 . S
O162 C161 1.203 . S
O163 C156 1.185 . S
O163 Zn159 2.086 . S
C164 O160 1.278 . S
C164 O165 1.211 . S
O165 C164 1.211 . S
C166 O158 1.284 . S
C166 O167 1.273 . S
O167 C166 1.273 . S
O168 Zn159 1.977 . S
O168 C161 1.267 . S
C169 O170 1.160 . S
C169 O176 1.185 . S
O170 C169 1.160 . S
O171 Zn172 1.899 . S
O171 C179 1.284 . S
Zn172 O171 1.899 . S
Zn172 O173 2.032 . S
Zn172 O176 2.086 . S
Zn172 O181 1.977 . S
O173 Zn172 2.032 . S
O173 C177 1.278 . S
C174 O175 1.203 . S
C174 O181 1.267 . S
O175 C174 1.203 . S
O176 C169 1.185 . S
O176 Zn172 2.086 . S
C177 O173 1.278 . S
C177 O178 1.211 . S
O178 C177 1.211 . S
C179 O171 1.284 . S
C179 O180 1.273 . S
O180 C179 1.273 . S
O181 Zn172 1.977 . S
O181 C174 1.267 . S
C182 O183 1.160 . S
C182 O189 1.185 . S
O183 C182 1.160 . S
O184 Zn185 1.899 . S
O184 C192 1.284 . S
Zn185 O184 1.899 . S
Zn185 O186 2.032 . S
Zn185 O189 2.086 . S
Zn185 O194 1.977 . S
O186 Zn185 2.032 . S
O186 C190 1.278 . S
C187 O188 1.203 . S
C187 O194 1.267 . S
O188 C187 1.203 . S
O189 C182 1.185 . S
O189 Zn185 2.086 . S
C190 O186 1.278 . S
C190 O191 1.211 . S
O191 C190 1.211 . S
C192 O184 1.284 . S
C192 O193 1.273 . S
O193 C192 1.273 . S
O194 Zn185 1.977 . S
O194 C187 1.267 . S
C195 O196 1.160 . S
C195 O202 1.185 . S
O196 C195 1.160 . S
O197 Zn198 1.899 . S
O197 C205 1.284 . S
Zn198 O197 1.899 . S
Zn198 O199 2.032 . S
Zn198 O202 2.086 . S
Zn198 O207 1.977 . S
O199 Zn198 2.032 . S
O199 C203 1.278 . S
C200 O201 1.203 . S
C200 O207 1.267 . S
O201 C200 1.203 . S
O202 C195 1.185 . S
O202 Zn198 2.086 . S
C203 O199 1.278 . S
C203 O204 1.211 . S
O204 C203 1.211 . S
C205 O197 1.284 . S
C205 O206 1.273 . S
O206 C205 1.273 . S
O207 Zn198 1.977 . S
O207 C200 1.267 . S
C208 O209 1.160 . S
C208 O215 1.185 . S
O209 C208 1.160 . S
O210 Zn211 1.899 . S
O210 C218 1.284 . S
Zn211 O210 1.899 . S
Zn211 O212 2.032 . S
Zn211 O215 2.086 . S
Zn211 O220 1.977 . S
O212 Zn211 2.032 . S
O212 C216 1.278 . S
C213 O214 1.203 . S
C213 O220 1.267 . S
O214 C213 1.203 . S
O215 C208 1.185 . S
O215 Zn211 2.086 . S
C216 O212 1.278 . S
C216 O217 1.211 . S
O217 C216 1.211 . S
C218 O210 1.284 . S
C218 O219 1.273 . S
O219 C218 1.273 . S
O220 Zn211 1.977 . S
O220 C213 1.267 . S
C221 O222 1.160 . S
C221 O228 1.185 . S
O222 C221 1.160 . S
O223 Zn224 1.899 . S
O223 C231 1.284 . S
Zn224 O223 1.899 . S
Zn224 O225 2.032 . S
Zn224 O228 2.086 . S
Zn224 O233 1.977 . S
O225 Zn224 2.032 . S
O225 C229 1.278 . S
C226 O227 1.203 . S
C226 O233 1.267 . S
O227 C226 1.203 . S
O228 C221 1.185 . S
O228 Zn224 2.086 . S
C229 O225 1.278 . S
C229 O230 1.211 . S
O230 C229 1.211 . S
C231 O223 1.284 . S
C231 O232 1.273 . S
O232 C231 1.273 . S
O233 Zn224 1.977 . S
O233 C226 1.267 . S
C234 O235 1.160 . S
C234 O241 1.185 . S
O235 C234 1.160 . S
O236 Zn237 1.899 . S
O236 C244 1.284 . S
Zn237 O236 1.899 . S
Zn237 O238 2.032 . S
Zn237 O241 2.086 . S
Zn237 O246 1.977 . S
O238 Zn237 2.032 . S
O238 C242 1.278 . S
C239 O240 1.203 . S
C239 O246 1.267 . S
O240 C239 1.203 . S
O241 C234 1.185 . S
O241 Zn237 2.086 . S
C242 O238 1.278 . S
C242 O243 1.211 . S
O243 C242 1.211 . S
C244 O236 1.284 . S
C244 O245 1.273 . S
O245 C244 1.273 . S
O246 Zn237 1.977 . S
O246 C239 1.267 . S
C247 O248 1.160 . S
C247 O254 1.185 . S
O248 C247 1.160 . S
O249 Zn250 1.899 . S
O249 C257 1.284 . S
Zn250 O249 1.899 . S
Zn250 O251 2.032 . S
Zn250 O254 2.086 . S
Zn250 O259 1.977 . S
O251 Zn250 2.032 . S
O251 C255 1.278 . S
C252 O253 1.203 . S
C252 O259 1.267 . S
O253 C252 1.203 . S
O254 C247 1.185 . S
O254 Zn250 2.086 . S
C255 O251 1.278 . S
C255 O256 1.211 . S
O256 C255 1.211 . S
C257 O249 1.284 . S
C257 O258 1.273 . S
O258 C257 1.273 . S
O259 Zn250 1.977 . S
O259 C252 1.267 . S
C260 O261 1.160 . S
C260 O267 1.185 . S
O261 C260 1.160 . S
O262 Zn263 1.899 . S
O262 C270 1.284 . S
Zn263 O262 1.899 . S
Zn263 O264 2.032 . S
Zn263 O267 2.086 . S
Zn263 O272 1.977 . S
O264 Zn263 2.032 . S
O264 C268 1.278 . S
C265 O266 1.203 . S
C265 O272 1.267 . S
O266 C265 1.203 . S
O267 C260 1.185 . S
O267 Zn263 2.086 . S
C268 O264 1.278 . S
C268 O269 1.211 . S
O269 C268 1.211 . S
C270 O262 1.284 . S
C270 O271 1.273 . S
O271 C270 1.273 . S
O272 Zn263 1.977 . S
O272 C265 1.267 . S
C273 O274 1.160 . S
C273 O280 1.185 . S
O274 C273 1.160 . S
O275 Zn276 1.899 . S
O275 C283 1.284 . S
Zn276 O275 1.899 . S
Zn276 O277 2.032 . S
Zn276 O280 2.086 . S
Zn276 O285 1.977 . S
O277 Zn276 2.032 . S
O277 C281 1.278 . S
C278 O279 1.203 . S
C278 O285 1.267 . S
O279 C278 1.203 . S
O280 C273 1.185 . S
O280 Zn276 2.086 . S
C281 O277 1.278 . S
C281 O282 1.211 . S
O282 C281 1.211 . S
C283 O275 1.284 . S
C283 O284 1.273 . S
O284 C283 1.273 . S
O285 Zn276 1.977 . S
O285 C278 1.267 . S
C286 O287 1.160 . S
C286 O293 1.185 . S
O287 C286 1.160 . S
O288 Zn289 1.899 . S
O288 C296 1.284 . S
Zn289 O288 1.899 . S
Zn289 O290 2.032 . S
Zn289 O293 2.086 . S
Zn289 O298 1.977 . S
O290 Zn289 2.032 . S
O290 C294 1.278 . S
C291 O292 1.203 . S
C291 O298 1.267 . S
O292 C291 1.203 . S
O293 C286 1.185 . S
O293 Zn289 2.086 . S
C294 O290 1.278 . S
C294 O295 1.211 . S
O295 C294 1.211 . S
C296 O288 1.284 . S
C296 O297 1.273 . S
O297 C296 1.273 . S
O298 Zn289 1.977 . S
O298 C291 1.267 . S
C299 O300 1.160 . S
C299 O306 1.185 . S
O300 C299 1.160 . S
O301 Zn302 1.899 . S
O301 C309 1.284 . S
Zn302 O301 1.899 . S
Zn302 O303 2.032 . S
Zn302 O306 2.086 . S
Zn302 O311 1.977 . S
O303 Zn302 2.032 . S
O303 C307 1.278 . S
C304 O305 1.203 . S
C304 O311 1.267 . S
O305 C304 1.203 . S
O306 C299 1.185 . S
O306 Zn302 2.086 . S
C307 O303 1.278 . S
C307 O308 1.211 . S
O308 C307 1.211 . S
C309 O301 1.284 . S
C309 O310 1.273 . S
O310 C309 1.273 . S
O311 Zn302 1.977 . S
O311 C304 1.267 . S
H312 C318 0.930 . S
H313 C321 0.930 . S
H314 C322 0.930 . S
H315 C323 0.930 . S
H316 C326 0.930 . S
H317 C327 0.930 . S
C318 H312 0.930 . S
C318 C319 1.355 . S
C318 C320 1.415 . S
C319 C318 1.355 . S
C319 C321 1.419 . S
C320 C318 1.415 . S
C320 C325 1.425 . S
C320 C327 1.409 . S
C321 H313 0.930 . S
C321 C319 1.419 . S
C321 C322 1.362 . S
C322 H314 0.930 . S
C322 C321 1.362 . S
C322 C325 1.409 . S
C323 H315 0.930 . S
C323 C324 1.355 . S
C323 C325 1.415 . S
C324 C323 1.355 . S
C324 C326 1.419 . S
C325 C320 1.425 . S
C325 C322 1.409 . S
C325 C323 1.415 . S
C326 H316 0.930 . S
C326 C324 1.419 . S
C326 C327 1.362 . S
C327 H317 0.930 . S
C327 C320 1.409 . S
C327 C326 1.362 . S
H328 C334 0.930 . S
H329 C337 0.930 . S
H330 C338 0.930 . S
H331 C339 0.930 . S
H332 C342 0.930 . S
H333 C343 0.930 . S
C334 H328 0.930 . S
C334 C335 1.355 . S
C334 C336 1.415 . S
C335 C334 1.355 . S
C335 C337 1.419 . S
C336 C334 1.415 . S
C336 C341 1.425 . S
C336 C343 1.409 . S
C337 H329 0.930 . S
C337 C335 1.419 . S
C337 C338 1.362 . S
C338 H330 0.930 . S
C338 C337 1.362 . S
C338 C341 1.409 . S
C339 H331 0.930 . S
C339 C340 1.355 . S
C339 C341 1.415 . S
C340 C339 1.355 . S
C340 C342 1.419 . S
C341 C336 1.425 . S
C341 C338 1.409 . S
C341 C339 1.415 . S
C342 H332 0.930 . S
C342 C340 1.419 . S
C342 C343 1.362 . S
C343 H333 0.930 . S
C343 C336 1.409 . S
C343 C342 1.362 . S
H344 C350 0.930 . S
H345 C353 0.930 . S
H346 C354 0.930 . S
H347 C355 0.930 . S
H348 C358 0.930 . S
H349 C359 0.930 . S
C350 H344 0.930 . S
C350 C351 1.355 . S
C350 C352 1.415 . S
C351 C350 1.355 . S
C351 C353 1.419 . S
C352 C350 1.415 . S
C352 C357 1.425 . S
C352 C359 1.409 . S
C353 H345 0.930 . S
C353 C351 1.419 . S
C353 C354 1.362 . S
C354 H346 0.930 . S
C354 C353 1.362 . S
C354 C357 1.409 . S
C355 H347 0.930 . S
C355 C356 1.355 . S
C355 C357 1.415 . S
C356 C355 1.355 . S
C356 C358 1.419 . S
C357 C352 1.425 . S
C357 C354 1.409 . S
C357 C355 1.415 . S
C358 H348 0.930 . S
C358 C356 1.419 . S
C358 C359 1.362 . S
C359 H349 0.930 . S
C359 C352 1.409 . S
C359 C358 1.362 . S
H360 C366 0.930 . S
H361 C369 0.930 . S
H362 C370 0.930 . S
H363 C371 0.930 . S
H364 C374 0.930 . S
H365 C375 0.930 . S
C366 H360 0.930 . S
C366 C367 1.355 . S
C366 C368 1.415 . S
C367 C366 1.355 . S
C367 C369 1.419 . S
C368 C366 1.415 . S
C368 C373 1.425 . S
C368 C375 1.409 . S
C369 H361 0.930 . S
C369 C367 1.419 . S
C369 C370 1.362 . S
C370 H362 0.930 . S
C370 C369 1.362 . S
C370 C373 1.409 . S
C371 H363 0.930 . S
C371 C372 1.355 . S
C371 C373 1.415 . S
C372 C371 1.355 . S
C372 C374 1.419 . S
C373 C368 1.425 . S
C373 C370 1.409 . S
C373 C371 1.415 . S
C374 H364 0.930 . S
C374 C372 1.419 . S
C374 C375 1.362 . S
C375 H365 0.930 . S
C375 C368 1.409 . S
C375 C374 1.362 . S
H376 C382 0.930 . S
H377 C385 0.930 . S
H378 C386 0.930 . S
H379 C387 0.930 . S
H380 C390 0.930 . S
H381 C391 0.930 . S
C382 H376 0.930 . S
C382 C383 1.355 . S
C382 C384 1.415 . S
C383 C382 1.355 . S
C383 C385 1.419 . S
C384 C382 1.415 . S
C384 C389 1.425 . S
C384 C391 1.409 . S
C385 H377 0.930 . S
C385 C383 1.419 . S
C385 C386 1.362 . S
C386 H378 0.930 . S
C386 C385 1.362 . S
C386 C389 1.409 . S
C387 H379 0.930 . S
C387 C388 1.355 . S
C387 C389 1.415 . S
C388 C387 1.355 . S
C388 C390 1.419 . S
C389 C384 1.425 . S
C389 C386 1.409 . S
C389 C387 1.415 . S
C390 H380 0.930 . S
C390 C388 1.419 . S
C390 C391 1.362 . S
C391 H381 0.930 . S
C391 C384 1.409 . S
C391 C390 1.362 . S
H392 C398 0.930 . S
H393 C401 0.930 . S
H394 C402 0.930 . S
H395 C403 0.930 . S
H396 C406 0.930 . S
H397 C407 0.930 . S
C398 H392 0.930 . S
C398 C399 1.355 . S
C398 C400 1.415 . S
C399 C398 1.355 . S
C399 C401 1.419 . S
C400 C398 1.415 . S
C400 C405 1.425 . S
C400 C407 1.409 . S
C401 H393 0.930 . S
C401 C399 1.419 . S
C401 C402 1.362 . S
C402 H394 0.930 . S
C402 C401 1.362 . S
C402 C405 1.409 . S
C403 H395 0.930 . S
C403 C404 1.355 . S
C403 C405 1.415 . S
C404 C403 1.355 . S
C404 C406 1.419 . S
C405 C400 1.425 . S
C405 C402 1.409 . S
C405 C403 1.415 . S
C406 H396 0.930 . S
C406 C404 1.419 . S
C406 C407 1.362 . S
C407 H397 0.930 . S
C407 C400 1.409 . S
C407 C406 1.362 . S
H408 C414 0.930 . S
H409 C417 0.930 . S
H410 C418 0.930 . S
H411 C419 0.930 . S
H412 C422 0.930 . S
H413 C423 0.930 . S
C414 H408 0.930 . S
C414 C415 1.355 . S
C414 C416 1.415 . S
C415 C414 1.355 . S
C415 C417 1.419 . S
C416 C414 1.415 . S
C416 C421 1.425 . S
C416 C423 1.409 . S
C417 H409 0.930 . S
C417 C415 1.419 . S
C417 C418 1.362 . S
C418 H410 0.930 . S
C418 C417 1.362 . S
C418 C421 1.409 . S
C419 H411 0.930 . S
C419 C420 1.355 . S
C419 C421 1.415 . S
C420 C419 1.355 . S
C420 C422 1.419 . S
C421 C416 1.425 . S
C421 C418 1.409 . S
C421 C419 1.415 . S
C422 H412 0.930 . S
C422 C420 1.419 . S
C422 C423 1.362 . S
C423 H413 0.930 . S
C423 C416 1.409 . S
C423 C422 1.362 . S
H424 C430 0.930 . S
H425 C433 0.930 . S
H426 C434 0.930 . S
H427 C435 0.930 . S
H428 C438 0.930 . S
H429 C439 0.930 . S
C430 H424 0.930 . S
C430 C431 1.355 . S
C430 C432 1.415 . S
C431 C430 1.355 . S
C431 C433 1.419 . S
C432 C430 1.415 . S
C432 C437 1.425 . S
C432 C439 1.409 . S
C433 H425 0.930 . S
C433 C431 1.419 . S
C433 C434 1.362 . S
C434 H426 0.930 . S
C434 C433 1.362 . S
C434 C437 1.409 . S
C435 H427 0.930 . S
C435 C436 1.355 . S
C435 C437 1.415 . S
C436 C435 1.355 . S
C436 C438 1.419 . S
C437 C432 1.425 . S
C437 C434 1.409 . S
C437 C435 1.415 . S
C438 H428 0.930 . S
C438 C436 1.419 . S
C438 C439 1.362 . S
C439 H429 0.930 . S
C439 C432 1.409 . S
C439 C438 1.362 . S
H440 C446 0.930 . S
H441 C449 0.930 . S
H442 C450 0.930 . S
H443 C451 0.930 . S
H444 C454 0.930 . S
H445 C455 0.930 . S
C446 H440 0.930 . S
C446 C447 1.355 . S
C446 C448 1.415 . S
C447 C446 1.355 . S
C447 C449 1.419 . S
C448 C446 1.415 . S
C448 C453 1.425 . S
C448 C455 1.409 . S
C449 H441 0.930 . S
C449 C447 1.419 . S
C449 C450 1.362 . S
C450 H442 0.930 . S
C450 C449 1.362 . S
C450 C453 1.409 . S
C451 H443 0.930 . S
C451 C452 1.355 . S
C451 C453 1.415 . S
C452 C451 1.355 . S
C452 C454 1.419 . S
C453 C448 1.425 . S
C453 C450 1.409 . S
C453 C451 1.415 . S
C454 H444 0.930 . S
C454 C452 1.419 . S
C454 C455 1.362 . S
C455 H445 0.930 . S
C455 C448 1.409 . S
C455 C454 1.362 . S
H456 C462 0.930 . S
H457 C465 0.930 . S
H458 C466 0.930 . S
H459 C467 0.930 . S
H460 C470 0.930 . S
H461 C471 0.930 . S
C462 H456 0.930 . S
C462 C463 1.355 . S
C462 C464 1.415 . S
C463 C462 1.355 . S
C463 C465 1.419 . S
C464 C462 1.415 . S
C464 C469 1.425 . S
C464 C471 1.409 . S
C465 H457 0.930 . S
C465 C463 1.419 . S
C465 C466 1.362 . S
C466 H458 0.930 . S
C466 C465 1.362 . S
C466 C469 1.409 . S
C467 H459 0.930 . S
C467 C468 1.355 . S
C467 C469 1.415 . S
C468 C467 1.355 . S
C468 C470 1.419 . S
C469 C464 1.425 . S
C469 C466 1.409 . S
C469 C467 1.415 . S
C470 H460 0.930 . S
C470 C468 1.419 . S
C470 C471 1.362 . S
C471 H461 0.930 . S
C471 C464 1.409 . S
C471 C470 1.362 . S
H472 C478 0.930 . S
H473 C481 0.930 . S
H474 C482 0.930 . S
H475 C483 0.930 . S
H476 C486 0.930 . S
H477 C487 0.930 . S
C478 H472 0.930 . S
C478 C479 1.355 . S
C478 C480 1.415 . S
C479 C478 1.355 . S
C479 C481 1.419 . S
C480 C478 1.415 . S
C480 C485 1.425 . S
C480 C487 1.409 . S
C481 H473 0.930 . S
C481 C479 1.419 . S
C481 C482 1.362 . S
C482 H474 0.930 . S
C482 C481 1.362 . S
C482 C485 1.409 . S
C483 H475 0.930 . S
C483 C484 1.355 . S
C483 C485 1.415 . S
C484 C483 1.355 . S
C484 C486 1.419 . S
C485 C480 1.425 . S
C485 C482 1.409 . S
C485 C483 1.415 . S
C486 H476 0.930 . S
C486 C484 1.419 . S
C486 C487 1.362 . S
C487 H477 0.930 . S
C487 C480 1.409 . S
C487 C486 1.362 . S
H488 C494 0.930 . S
H489 C497 0.930 . S
H490 C498 0.930 . S
H491 C499 0.930 . S
H492 C502 0.930 . S
H493 C503 0.930 . S
C494 H488 0.930 . S
C494 C495 1.355 . S
C494 C496 1.415 . S
C495 C494 1.355 . S
C495 C497 1.419 . S
C496 C494 1.415 . S
C496 C501 1.425 . S
C496 C503 1.409 . S
C497 H489 0.930 . S
C497 C495 1.419 . S
C497 C498 1.362 . S
C498 H490 0.930 . S
C498 C497 1.362 . S
C498 C501 1.409 . S
C499 H491 0.930 . S
C499 C500 1.355 . S
C499 C501 1.415 . S
C500 C499 1.355 . S
C500 C502 1.419 . S
C501 C496 1.425 . S
C501 C498 1.409 . S
C501 C499 1.415 . S
C502 H492 0.930 . S
C502 C500 1.419 . S
C502 C503 1.362 . S
C503 H493 0.930 . S
C503 C496 1.409 . S
C503 C502 1.362 . S
H504 C510 0.930 . S
H505 C513 0.930 . S
H506 C514 0.930 . S
H507 C515 0.930 . S
H508 C518 0.930 . S
H509 C519 0.930 . S
C510 H504 0.930 . S
C510 C511 1.355 . S
C510 C512 1.415 . S
C511 C510 1.355 . S
C511 C513 1.419 . S
C512 C510 1.415 . S
C512 C517 1.425 . S
C512 C519 1.409 . S
C513 H505 0.930 . S
C513 C511 1.419 . S
C513 C514 1.362 . S
C514 H506 0.930 . S
C514 C513 1.362 . S
C514 C517 1.409 . S
C515 H507 0.930 . S
C515 C516 1.355 . S
C515 C517 1.415 . S
C516 C515 1.355 . S
C516 C518 1.419 . S
C517 C512 1.425 . S
C517 C514 1.409 . S
C517 C515 1.415 . S
C518 H508 0.930 . S
C518 C516 1.419 . S
C518 C519 1.362 . S
C519 H509 0.930 . S
C519 C512 1.409 . S
C519 C518 1.362 . S
H520 C526 0.930 . S
H521 C529 0.930 . S
H522 C530 0.930 . S
H523 C531 0.930 . S
H524 C534 0.930 . S
H525 C535 0.930 . S
C526 H520 0.930 . S
C526 C527 1.355 . S
C526 C528 1.415 . S
C527 C526 1.355 . S
C527 C529 1.419 . S
C528 C526 1.415 . S
C528 C533 1.425 . S
C528 C535 1.409 . S
C529 H521 0.930 . S
C529 C527 1.419 . S
C529 C530 1.362 . S
C530 H522 0.930 . S
C530 C529 1.362 . S
C530 C533 1.409 . S
C531 H523 0.930 . S
C531 C532 1.355 . S
C531 C533 1.415 . S
C532 C531 1.355 . S
C532 C534 1.419 . S
C533 C528 1.425 . S
C533 C530 1.409 . S
C533 C531 1.415 . S
C534 H524 0.930 . S
C534 C532 1.419 . S
C534 C535 1.362 . S
C535 H525 0.930 . S
C535 C528 1.409 . S
C535 C534 1.362 . S
H536 C542 0.930 . S
H537 C545 0.930 . S
H538 C546 0.930 . S
H539 C547 0.930 . S
H540 C550 0.930 . S
H541 C551 0.930 . S
C542 H536 0.930 . S
C542 C543 1.355 . S
C542 C544 1.415 . S
C543 C542 1.355 . S
C543 C545 1.419 . S
C544 C542 1.415 . S
C544 C549 1.425 . S
C544 C551 1.409 . S
C545 H537 0.930 . S
C545 C543 1.419 . S
C545 C546 1.362 . S
C546 H538 0.930 . S
C546 C545 1.362 . S
C546 C549 1.409 . S
C547 H539 0.930 . S
C547 C548 1.355 . S
C547 C549 1.415 . S
C548 C547 1.355 . S
C548 C550 1.419 . S
C549 C544 1.425 . S
C549 C546 1.409 . S
C549 C547 1.415 . S
C550 H540 0.930 . S
C550 C548 1.419 . S
C550 C551 1.362 . S
C551 H541 0.930 . S
C551 C544 1.409 . S
C551 C550 1.362 . S
H552 C558 0.930 . S
H553 C561 0.930 . S
H554 C562 0.930 . S
H555 C563 0.930 . S
H556 C566 0.930 . S
H557 C567 0.930 . S
C558 H552 0.930 . S
C558 C559 1.355 . S
C558 C560 1.415 . S
C559 C558 1.355 . S
C559 C561 1.419 . S
C560 C558 1.415 . S
C560 C565 1.425 . S
C560 C567 1.409 . S
C561 H553 0.930 . S
C561 C559 1.419 . S
C561 C562 1.362 . S
C562 H554 0.930 . S
C562 C561 1.362 . S
C562 C565 1.409 . S
C563 H555 0.930 . S
C563 C564 1.355 . S
C563 C565 1.415 . S
C564 C563 1.355 . S
C564 C566 1.419 . S
C565 C560 1.425 . S
C565 C562 1.409 . S
C565 C563 1.415 . S
C566 H556 0.930 . S
C566 C564 1.419 . S
C566 C567 1.362 . S
C567 H557 0.930 . S
C567 C560 1.409 . S
C567 C566 1.362 . S
H568 C574 0.930 . S
H569 C577 0.930 . S
H570 C578 0.930 . S
H571 C579 0.930 . S
H572 C582 0.930 . S
H573 C583 0.930 . S
C574 H568 0.930 . S
C574 C575 1.355 . S
C574 C576 1.415 . S
C575 C574 1.355 . S
C575 C577 1.419 . S
C576 C574 1.415 . S
C576 C581 1.425 . S
C576 C583 1.409 . S
C577 H569 0.930 . S
C577 C575 1.419 . S
C577 C578 1.362 . S
C578 H570 0.930 . S
C578 C577 1.362 . S
C578 C581 1.409 . S
C579 H571 0.930 . S
C579 C580 1.355 . S
C579 C581 1.415 . S
C580 C579 1.355 . S
C580 C582 1.419 . S
C581 C576 1.425 . S
C581 C578 1.409 . S
C581 C579 1.415 . S
C582 H572 0.930 . S
C582 C580 1.419 . S
C582 C583 1.362 . S
C583 H573 0.930 . S
C583 C576 1.409 . S
C583 C582 1.362 . S
H584 C590 0.930 . S
H585 C593 0.930 . S
H586 C594 0.930 . S
H587 C595 0.930 . S
H588 C598 0.930 . S
H589 C599 0.930 . S
C590 H584 0.930 . S
C590 C591 1.355 . S
C590 C592 1.415 . S
C591 C590 1.355 . S
C591 C593 1.419 . S
C592 C590 1.415 . S
C592 C597 1.425 . S
C592 C599 1.409 . S
C593 H585 0.930 . S
C593 C591 1.419 . S
C593 C594 1.362 . S
C594 H586 0.930 . S
C594 C593 1.362 . S
C594 C597 1.409 . S
C595 H587 0.930 . S
C595 C596 1.355 . S
C595 C597 1.415 . S
C596 C595 1.355 . S
C596 C598 1.419 . S
C597 C592 1.425 . S
C597 C594 1.409 . S
C597 C595 1.415 . S
C598 H588 0.930 . S
C598 C596 1.419 . S
C598 C599 1.362 . S
C599 H589 0.930 . S
C599 C592 1.409 . S
C599 C598 1.362 . S
H600 C606 0.930 . S
H601 C609 0.930 . S
H602 C610 0.930 . S
H603 C611 0.930 . S
H604 C614 0.930 . S
H605 C615 0.930 . S
C606 H600 0.930 . S
C606 C607 1.355 . S
C606 C608 1.415 . S
C607 C606 1.355 . S
C607 C609 1.419 . S
C608 C606 1.415 . S
C608 C613 1.425 . S
C608 C615 1.409 . S
C609 H601 0.930 . S
C609 C607 1.419 . S
C609 C610 1.362 . S
C610 H602 0.930 . S
C610 C609 1.362 . S
C610 C613 1.409 . S
C611 H603 0.930 . S
C611 C612 1.355 . S
C611 C613 1.415 . S
C612 C611 1.355 . S
C612 C614 1.419 . S
C613 C608 1.425 . S
C613 C610 1.409 . S
C613 C611 1.415 . S
C614 H604 0.930 . S
C614 C612 1.419 . S
C614 C615 1.362 . S
C615 H605 0.930 . S
C615 C608 1.409 . S
C615 C614 1.362 . S
H616 C622 0.930 . S
H617 C625 0.930 . S
H618 C626 0.930 . S
H619 C627 0.930 . S
H620 C630 0.930 . S
H621 C631 0.930 . S
C622 H616 0.930 . S
C622 C623 1.355 . S
C622 C624 1.415 . S
C623 C622 1.355 . S
C623 C625 1.419 . S
C624 C622 1.415 . S
C624 C629 1.425 . S
C624 C631 1.409 . S
C625 H617 0.930 . S
C625 C623 1.419 . S
C625 C626 1.362 . S
C626 H618 0.930 . S
C626 C625 1.362 . S
C626 C629 1.409 . S
C627 H619 0.930 . S
C627 C628 1.355 . S
C627 C629 1.415 . S
C628 C627 1.355 . S
C628 C630 1.419 . S
C629 C624 1.425 . S
C629 C626 1.409 . S
C629 C627 1.415 . S
C630 H620 0.930 . S
C630 C628 1.419 . S
C630 C631 1.362 . S
C631 H621 0.930 . S
C631 C624 1.409 . S
C631 C630 1.362 . S
H632 C638 0.930 . S
H633 C641 0.930 . S
H634 C642 0.930 . S
H635 C643 0.930 . S
H636 C646 0.930 . S
H637 C647 0.930 . S
C638 H632 0.930 . S
C638 C639 1.355 . S
C638 C640 1.415 . S
C639 C638 1.355 . S
C639 C641 1.419 . S
C640 C638 1.415 . S
C640 C645 1.425 . S
C640 C647 1.409 . S
C641 H633 0.930 . S
C641 C639 1.419 . S
C641 C642 1.362 . S
C642 H634 0.930 . S
C642 C641 1.362 . S
C642 C645 1.409 . S
C643 H635 0.930 . S
C643 C644 1.355 . S
C643 C645 1.415 . S
C644 C643 1.355 . S
C644 C646 1.419 . S
C645 C640 1.425 . S
C645 C642 1.409 . S
C645 C643 1.415 . S
C646 H636 0.930 . S
C646 C644 1.419 . S
C646 C647 1.362 . S
C647 H637 0.930 . S
C647 C640 1.409 . S
C647 C646 1.362 . S
H648 C654 0.930 . S
H649 C657 0.930 . S
H650 C658 0.930 . S
H651 C659 0.930 . S
H652 C662 0.930 . S
H653 C663 0.930 . S
C654 H648 0.930 . S
C654 C655 1.355 . S
C654 C656 1.415 . S
C655 C654 1.355 . S
C655 C657 1.419 . S
C656 C654 1.415 . S
C656 C661 1.425 . S
C656 C663 1.409 . S
C657 H649 0.930 . S
C657 C655 1.419 . S
C657 C658 1.362 . S
C658 H650 0.930 . S
C658 C657 1.362 . S
C658 C661 1.409 . S
C659 H651 0.930 . S
C659 C660 1.355 . S
C659 C661 1.415 . S
C660 C659 1.355 . S
C660 C662 1.419 . S
C661 C656 1.425 . S
C661 C658 1.409 . S
C661 C659 1.415 . S
C662 H652 0.930 . S
C662 C660 1.419 . S
C662 C663 1.362 . S
C663 H653 0.930 . S
C663 C656 1.409 . S
C663 C662 1.362 . S
H664 C670 0.930 . S
H665 C673 0.930 . S
H666 C674 0.930 . S
H667 C675 0.930 . S
H668 C678 0.930 . S
H669 C679 0.930 . S
C670 H664 0.930 . S
C670 C671 1.355 . S
C670 C672 1.415 . S
C671 C670 1.355 . S
C671 C673 1.419 . S
C672 C670 1.415 . S
C672 C677 1.425 . S
C672 C679 1.409 . S
C673 H665 0.930 . S
C673 C671 1.419 . S
C673 C674 1.362 . S
C674 H666 0.930 . S
C674 C673 1.362 . S
C674 C677 1.409 . S
C675 H667 0.930 . S
C675 C676 1.355 . S
C675 C677 1.415 . S
C676 C675 1.355 . S
C676 C678 1.419 . S
C677 C672 1.425 . S
C677 C674 1.409 . S
C677 C675 1.415 . S
C678 H668 0.930 . S
C678 C676 1.419 . S
C678 C679 1.362 . S
C679 H669 0.930 . S
C679 C672 1.409 . S
C679 C678 1.362 . S
H680 C686 0.930 . S
H681 C689 0.930 . S
H682 C690 0.930 . S
H683 C691 0.930 . S
H684 C694 0.930 . S
H685 C695 0.930 . S
C686 H680 0.930 . S
C686 C687 1.355 . S
C686 C688 1.415 . S
C687 C686 1.355 . S
C687 C689 1.419 . S
C688 C686 1.415 . S
C688 C693 1.425 . S
C688 C695 1.409 . S
C689 H681 0.930 . S
C689 C687 1.419 . S
C689 C690 1.362 . S
C690 H682 0.930 . S
C690 C689 1.362 . S
C690 C693 1.409 . S
C691 H683 0.930 . S
C691 C692 1.355 . S
C691 C693 1.415 . S
C692 C691 1.355 . S
C692 C694 1.419 . S
C693 C688 1.425 . S
C693 C690 1.409 . S
C693 C691 1.415 . S
C694 H684 0.930 . S
C694 C692 1.419 . S
C694 C695 1.362 . S
C695 H685 0.930 . S
C695 C688 1.409 . S
C695 C694 1.362 . S
H696 C702 0.930 . S
H697 C705 0.930 . S
H698 C706 0.930 . S
H699 C707 0.930 . S
H700 C710 0.930 . S
H701 C711 0.930 . S
C702 H696 0.930 . S
C702 C703 1.355 . S
C702 C704 1.415 . S
C703 C702 1.355 . S
C703 C705 1.419 . S
C704 C702 1.415 . S
C704 C709 1.425 . S
C704 C711 1.409 . S
C705 H697 0.930 . S
C705 C703 1.419 . S
C705 C706 1.362 . S
C706 H698 0.930 . S
C706 C705 1.362 . S
C706 C709 1.409 . S
C707 H699 0.930 . S
C707 C708 1.355 . S
C707 C709 1.415 . S
C708 C707 1.355 . S
C708 C710 1.419 . S
C709 C704 1.425 . S
C709 C706 1.409 . S
C709 C707 1.415 . S
C710 H700 0.930 . S
C710 C708 1.419 . S
C710 C711 1.362 . S
C711 H701 0.930 . S
C711 C704 1.409 . S
C711 C710 1.362 . S
H712 C718 0.930 . S
H713 C721 0.930 . S
H714 C722 0.930 . S
H715 C723 0.930 . S
H716 C726 0.930 . S
H717 C727 0.930 . S
C718 H712 0.930 . S
C718 C719 1.355 . S
C718 C720 1.415 . S
C719 C718 1.355 . S
C719 C721 1.419 . S
C720 C718 1.415 . S
C720 C725 1.425 . S
C720 C727 1.409 . S
C721 H713 0.930 . S
C721 C719 1.419 . S
C721 C722 1.362 . S
C722 H714 0.930 . S
C722 C721 1.362 . S
C722 C725 1.409 . S
C723 H715 0.930 . S
C723 C724 1.355 . S
C723 C725 1.415 . S
C724 C723 1.355 . S
C724 C726 1.419 . S
C725 C720 1.425 . S
C725 C722 1.409 . S
C725 C723 1.415 . S
C726 H716 0.930 . S
C726 C724 1.419 . S
C726 C727 1.362 . S
C727 H717 0.930 . S
C727 C720 1.409 . S
C727 C726 1.362 . S
H728 C734 0.930 . S
H729 C737 0.930 . S
H730 C738 0.930 . S
H731 C739 0.930 . S
H732 C742 0.930 . S
H733 C743 0.930 . S
C734 H728 0.930 . S
C734 C735 1.355 . S
C734 C736 1.415 . S
C735 C734 1.355 . S
C735 C737 1.419 . S
C736 C734 1.415 . S
C736 C741 1.425 . S
C736 C743 1.409 . S
C737 H729 0.930 . S
C737 C735 1.419 . S
C737 C738 1.362 . S
C738 H730 0.930 . S
C738 C737 1.362 . S
C738 C741 1.409 . S
C739 H731 0.930 . S
C739 C740 1.355 . S
C739 C741 1.415 . S
C740 C739 1.355 . S
C740 C742 1.419 . S
C741 C736 1.425 . S
C741 C738 1.409 . S
C741 C739 1.415 . S
C742 H732 0.930 . S
C742 C740 1.419 . S
C742 C743 1.362 . S
C743 H733 0.930 . S
C743 C736 1.409 . S
C743 C742 1.362 . S
H744 C750 0.930 . S
H745 C753 0.930 . S
H746 C754 0.930 . S
H747 C755 0.930 . S
H748 C758 0.930 . S
H749 C759 0.930 . S
C750 H744 0.930 . S
C750 C751 1.355 . S
C750 C752 1.415 . S
C751 C750 1.355 . S
C751 C753 1.419 . S
C752 C750 1.415 . S
C752 C757 1.425 . S
C752 C759 1.409 . S
C753 H745 0.930 . S
C753 C751 1.419 . S
C753 C754 1.362 . S
C754 H746 0.930 . S
C754 C753 1.362 . S
C754 C757 1.409 . S
C755 H747 0.930 . S
C755 C756 1.355 . S
C755 C757 1.415 . S
C756 C755 1.355 . S
C756 C758 1.419 . S
C757 C752 1.425 . S
C757 C754 1.409 . S
C757 C755 1.415 . S
C758 H748 0.930 . S
C758 C756 1.419 . S
C758 C759 1.362 . S
C759 H749 0.930 . S
C759 C752 1.409 . S
C759 C758 1.362 . S
H760 C766 0.930 . S
H761 C769 0.930 . S
H762 C770 0.930 . S
H763 C771 0.930 . S
H764 C774 0.930 . S
H765 C775 0.930 . S
C766 H760 0.930 . S
C766 C767 1.355 . S
C766 C768 1.415 . S
C767 C766 1.355 . S
C767 C769 1.419 . S
C768 C766 1.415 . S
C768 C773 1.425 . S
C768 C775 1.409 . S
C769 H761 0.930 . S
C769 C767 1.419 . S
C769 C770 1.362 . S
C770 H762 0.930 . S
C770 C769 1.362 . S
C770 C773 1.409 . S
C771 H763 0.930 . S
C771 C772 1.355 . S
C771 C773 1.415 . S
C772 C771 1.355 . S
C772 C774 1.419 . S
C773 C768 1.425 . S
C773 C770 1.409 . S
C773 C771 1.415 . S
C774 H764 0.930 . S
C774 C772 1.419 . S
C774 C775 1.362 . S
C775 H765 0.930 . S
C775 C768 1.409 . S
C775 C774 1.362 . S
H776 C782 0.930 . S
H777 C785 0.930 . S
H778 C786 0.930 . S
H779 C787 0.930 . S
H780 C790 0.930 . S
H781 C791 0.930 . S
C782 H776 0.930 . S
C782 C783 1.355 1_455 S
C782 C784 1.415 . S
C783 C782 1.355 1_655 S
C783 C785 1.419 . S
C784 C782 1.415 . S
C784 C789 1.425 . S
C784 C791 1.409 . S
C785 H777 0.930 . S
C785 C783 1.419 . S
C785 C786 1.362 1_655 S
C786 H778 0.930 . S
C786 C785 1.362 1_455 S
C786 C789 1.409 . S
C787 H779 0.930 . S
C787 C788 1.355 . S
C787 C789 1.415 . S
C788 C787 1.355 . S
C788 C790 1.419 . S
C789 C784 1.425 . S
C789 C786 1.409 . S
C789 C787 1.415 . S
C790 H780 0.930 . S
C790 C788 1.419 . S
C790 C791 1.362 . S
C791 H781 0.930 . S
C791 C784 1.409 . S
C791 C790 1.362 . S
H792 C798 0.930 . S
H793 C801 0.930 . S
H794 C802 0.930 . S
H795 C803 0.930 . S
H796 C806 0.930 . S
H797 C807 0.930 . S
C798 H792 0.930 . S
C798 C799 1.355 1_655 S
C798 C800 1.415 . S
C799 C798 1.355 1_455 S
C799 C801 1.419 . S
C800 C798 1.415 . S
C800 C805 1.425 . S
C800 C807 1.409 . S
C801 H793 0.930 . S
C801 C799 1.419 . S
C801 C802 1.362 1_455 S
C802 H794 0.930 . S
C802 C801 1.362 1_655 S
C802 C805 1.409 . S
C803 H795 0.930 . S
C803 C804 1.355 . S
C803 C805 1.415 . S
C804 C803 1.355 . S
C804 C806 1.419 . S
C805 C800 1.425 . S
C805 C802 1.409 . S
C805 C803 1.415 . S
C806 H796 0.930 . S
C806 C804 1.419 . S
C806 C807 1.362 . S
C807 H797 0.930 . S
C807 C800 1.409 . S
C807 C806 1.362 . S
H808 C814 0.930 . S
H809 C817 0.930 . S
H810 C818 0.930 . S
H811 C819 0.930 . S
H812 C822 0.930 . S
H813 C823 0.930 . S
C814 H808 0.930 . S
C814 C815 1.355 . S
C814 C816 1.415 . S
C815 C814 1.355 . S
C815 C817 1.419 . S
C816 C814 1.415 . S
C816 C821 1.425 . S
C816 C823 1.409 . S
C817 H809 0.930 . S
C817 C815 1.419 . S
C817 C818 1.362 . S
C818 H810 0.930 . S
C818 C817 1.362 . S
C818 C821 1.409 . S
C819 H811 0.930 . S
C819 C820 1.355 . S
C819 C821 1.415 . S
C820 C819 1.355 . S
C820 C822 1.419 . S
C821 C816 1.425 . S
C821 C818 1.409 . S
C821 C819 1.415 . S
C822 H812 0.930 . S
C822 C820 1.419 . S
C822 C823 1.362 . S
C823 H813 0.930 . S
C823 C816 1.409 . S
C823 C822 1.362 . S
H824 C830 0.930 . S
H825 C833 0.930 . S
H826 C834 0.930 . S
H827 C835 0.930 . S
H828 C838 0.930 . S
H829 C839 0.930 . S
C830 H824 0.930 . S
C830 C831 1.355 . S
C830 C832 1.415 . S
C831 C830 1.355 . S
C831 C833 1.419 . S
C832 C830 1.415 . S
C832 C837 1.425 . S
C832 C839 1.409 . S
C833 H825 0.930 . S
C833 C831 1.419 . S
C833 C834 1.362 . S
C834 H826 0.930 . S
C834 C833 1.362 . S
C834 C837 1.409 . S
C835 H827 0.930 . S
C835 C836 1.355 . S
C835 C837 1.415 . S
C836 C835 1.355 . S
C836 C838 1.419 . S
C837 C832 1.425 . S
C837 C834 1.409 . S
C837 C835 1.415 . S
C838 H828 0.930 . S
C838 C836 1.419 . S
C838 C839 1.362 . S
C839 H829 0.930 . S
C839 C832 1.409 . S
C839 C838 1.362 . S
H840 C846 0.930 . S
H841 C849 0.935 . S
H842 C850 0.930 . S
H843 C851 0.930 . S
H844 C854 0.930 . S
H845 C855 0.930 . S
C846 H840 0.930 . S
C846 C847 1.355 . S
C846 C848 1.415 . S
C847 C846 1.355 . S
C847 C849 1.419 . S
C848 C846 1.415 . S
C848 C853 1.425 . S
C848 C855 1.409 . S
C849 H841 0.935 . S
C849 C847 1.419 . S
C849 C850 1.362 . S
C850 H842 0.930 . S
C850 C849 1.362 . S
C850 C853 1.409 . S
C851 H843 0.930 . S
C851 C852 1.355 . S
C851 C853 1.415 . S
C852 C851 1.355 . S
C852 C854 1.419 . S
C853 C848 1.425 . S
C853 C850 1.409 . S
C853 C851 1.415 . S
C854 H844 0.930 . S
C854 C852 1.419 . S
C854 C855 1.362 . S
C855 H845 0.930 . S
C855 C848 1.409 . S
C855 C854 1.362 . S
H856 C862 0.930 . S
H857 C865 0.930 1_545 S
H858 C866 0.930 . S
H859 C867 0.930 . S
H860 C870 0.930 . S
H861 C871 0.930 . S
C862 H856 0.930 . S
C862 C863 1.355 . S
C862 C864 1.415 . S
C863 C862 1.355 . S
C863 C865 1.419 . S
C864 C862 1.415 . S
C864 C869 1.425 . S
C864 C871 1.409 . S
C865 H857 0.930 1_565 S
C865 C863 1.419 . S
C865 C866 1.362 . S
C866 H858 0.930 . S
C866 C865 1.362 . S
C866 C869 1.409 . S
C867 H859 0.930 . S
C867 C868 1.355 . S
C867 C869 1.415 . S
C868 C867 1.355 . S
C868 C870 1.419 . S
C869 C864 1.425 . S
C869 C866 1.409 . S
C869 C867 1.415 . S
C870 H860 0.930 . S
C870 C868 1.419 . S
C870 C871 1.362 . S
C871 H861 0.930 . S
C871 C864 1.409 . S
C871 C870 1.362 . S
H872 C878 0.930 . S
H873 C881 0.930 . S
H874 C882 0.930 . S
H875 C883 0.930 . S
H876 C886 0.930 . S
H877 C887 0.930 . S
C878 H872 0.930 . S
C878 C879 1.355 . S
C878 C880 1.415 . S
C879 C878 1.355 . S
C879 C881 1.419 . S
C880 C878 1.415 . S
C880 C885 1.425 . S
C880 C887 1.409 . S
C881 H873 0.930 . S
C881 C879 1.419 . S
C881 C882 1.362 . S
C882 H874 0.930 . S
C882 C881 1.362 . S
C882 C885 1.409 . S
C883 H875 0.930 . S
C883 C884 1.355 . S
C883 C885 1.415 . S
C884 C883 1.355 . S
C884 C886 1.419 . S
C885 C880 1.425 . S
C885 C882 1.409 . S
C885 C883 1.415 . S
C886 H876 0.930 . S
C886 C884 1.419 . S
C886 C887 1.362 . S
C887 H877 0.930 . S
C887 C880 1.409 . S
C887 C886 1.362 . S
H888 C894 0.930 . S
H889 C897 0.930 . S
H890 C898 0.930 . S
H891 C899 0.930 . S
H892 C902 0.930 . S
H893 C903 0.930 . S
C894 H888 0.930 . S
C894 C895 1.355 . S
C894 C896 1.415 . S
C895 C894 1.355 . S
C895 C897 1.419 . S
C896 C894 1.415 . S
C896 C901 1.425 . S
C896 C903 1.409 . S
C897 H889 0.930 . S
C897 C895 1.419 . S
C897 C898 1.362 . S
C898 H890 0.930 . S
C898 C897 1.362 . S
C898 C901 1.409 . S
C899 H891 0.930 . S
C899 C900 1.355 . S
C899 C901 1.415 . S
C900 C899 1.355 . S
C900 C902 1.419 . S
C901 C896 1.425 . S
C901 C898 1.409 . S
C901 C899 1.415 . S
C902 H892 0.930 . S
C902 C900 1.419 . S
C902 C903 1.362 . S
C903 H893 0.930 . S
C903 C896 1.409 . S
C903 C902 1.362 . S
H904 C910 0.930 . S
H905 C913 0.930 . S
H906 C914 0.930 . S
H907 C915 0.930 . S
H908 C918 0.930 . S
H909 C919 0.930 . S
C910 H904 0.930 . S
C910 C911 1.355 . S
C910 C912 1.415 . S
C911 C910 1.355 . S
C911 C913 1.419 . S
C912 C910 1.415 . S
C912 C917 1.425 . S
C912 C919 1.409 . S
C913 H905 0.930 . S
C913 C911 1.419 . S
C913 C914 1.362 . S
C914 H906 0.930 . S
C914 C913 1.362 . S
C914 C917 1.409 . S
C915 H907 0.930 . S
C915 C916 1.355 . S
C915 C917 1.415 . S
C916 C915 1.355 . S
C916 C918 1.419 . S
C917 C912 1.425 . S
C917 C914 1.409 . S
C917 C915 1.415 . S
C918 H908 0.930 . S
C918 C916 1.419 . S
C918 C919 1.362 . S
C919 H909 0.930 . S
C919 C912 1.409 . S
C919 C918 1.362 . S
H920 C926 0.930 . S
H921 C929 0.930 . S
H922 C930 0.930 . S
H923 C931 0.930 . S
H924 C934 0.930 . S
H925 C935 0.930 . S
C926 H920 0.930 . S
C926 C927 1.355 . S
C926 C928 1.415 . S
C927 C926 1.355 . S
C927 C929 1.419 . S
C928 C926 1.415 . S
C928 C933 1.425 . S
C928 C935 1.409 . S
C929 H921 0.930 . S
C929 C927 1.419 . S
C929 C930 1.362 . S
C930 H922 0.930 . S
C930 C929 1.362 . S
C930 C933 1.409 . S
C931 H923 0.930 . S
C931 C932 1.355 . S
C931 C933 1.415 . S
C932 C931 1.355 . S
C932 C934 1.419 . S
C933 C928 1.425 . S
C933 C930 1.409 . S
C933 C931 1.415 . S
C934 H924 0.930 . S
C934 C932 1.419 . S
C934 C935 1.362 . S
C935 H925 0.930 . S
C935 C928 1.409 . S
C935 C934 1.362 . S
H936 C942 0.930 . S
H937 C945 0.930 1_554 S
H938 C946 0.930 . S
H939 C947 0.930 . S
H940 C950 0.930 . S
H941 C951 0.930 . S
C942 H936 0.930 . S
C942 C943 1.375 . S
C942 C944 1.415 . S
C943 C942 1.375 . S
C943 C945 1.421 . S
C944 C942 1.415 . S
C944 C949 1.425 . S
C944 C951 1.409 . S
C945 H937 0.930 1_556 S
C945 C943 1.421 . S
C945 C946 1.362 . S
C946 H938 0.930 . S
C946 C945 1.362 . S
C946 C949 1.409 . S
C947 H939 0.930 . S
C947 C948 1.355 . S
C947 C949 1.415 . S
C948 C947 1.355 . S
C948 C950 1.419 . S
C949 C944 1.425 . S
C949 C946 1.409 . S
C949 C947 1.415 . S
C950 H940 0.930 . S
C950 C948 1.419 . S
C950 C951 1.362 . S
C951 H941 0.930 . S
C951 C944 1.409 . S
C951 C950 1.362 . S
H952 C958 0.930 . S
H953 C961 0.930 . S
H954 C962 0.930 . S
H955 C963 0.930 . S
H956 C966 0.930 . S
H957 C967 0.930 . S
C958 H952 0.930 . S
C958 C959 1.355 . S
C958 C960 1.415 . S
C959 C958 1.355 . S
C959 C961 1.419 . S
C960 C958 1.415 . S
C960 C965 1.425 . S
C960 C967 1.409 . S
C961 H953 0.930 . S
C961 C959 1.419 . S
C961 C962 1.362 . S
C962 H954 0.930 . S
C962 C961 1.362 . S
C962 C965 1.409 . S
C963 H955 0.930 . S
C963 C964 1.355 . S
C963 C965 1.415 . S
C964 C963 1.355 . S
C964 C966 1.419 . S
C965 C960 1.425 . S
C965 C962 1.409 . S
C965 C963 1.415 . S
C966 H956 0.930 . S
C966 C964 1.419 . S
C966 C967 1.362 . S
C967 H957 0.930 . S
C967 C960 1.409 . S
C967 C966 1.362 . S
H968 C974 0.930 . S
H969 C977 0.930 . S
H970 C978 0.930 . S
H971 C979 0.930 . S
H972 C982 0.930 . S
H973 C983 0.930 . S
C974 H968 0.930 . S
C974 C975 1.355 . S
C974 C976 1.415 . S
C975 C974 1.355 . S
C975 C977 1.419 . S
C976 C974 1.415 . S
C976 C981 1.425 . S
C976 C983 1.409 . S
C977 H969 0.930 . S
C977 C975 1.419 . S
C977 C978 1.362 . S
C978 H970 0.930 . S
C978 C977 1.362 . S
C978 C981 1.409 . S
C979 H971 0.930 . S
C979 C980 1.360 . S
C979 C981 1.415 . S
C980 C979 1.360 . S
C980 C982 1.426 . S
C981 C976 1.425 . S
C981 C978 1.409 . S
C981 C979 1.415 . S
C982 H972 0.930 . S
C982 C980 1.426 . S
C982 C983 1.362 . S
C983 H973 0.930 . S
C983 C976 1.409 . S
C983 C982 1.362 . S
H984 C990 0.930 . S
H985 C993 0.930 . S
H986 C994 0.930 . S
H987 C995 0.930 . S
H988 C998 0.930 1_655 S
H989 C999 0.930 . S
C990 H984 0.930 . S
C990 C991 1.355 . S
C990 C992 1.415 . S
C991 C990 1.355 . S
C991 C993 1.419 . S
C992 C990 1.415 . S
C992 C997 1.425 . S
C992 C999 1.409 . S
C993 H985 0.930 . S
C993 C991 1.419 . S
C993 C994 1.362 . S
C994 H986 0.930 . S
C994 C993 1.362 . S
C994 C997 1.409 . S
C995 H987 0.930 . S
C995 C996 1.348 1_455 S
C995 C997 1.415 . S
C996 C995 1.348 1_655 S
C996 C998 1.417 1_655 S
C997 C992 1.425 . S
C997 C994 1.409 . S
C997 C995 1.415 . S
C998 H988 0.930 1_455 S
C998 C996 1.417 1_455 S
C998 C999 1.362 . S
C999 H989 0.930 . S
C999 C992 1.409 . S
C999 C998 1.362 . S
H1000 C1006 0.930 . S
H1001 C1009 0.930 . S
H1002 C1010 0.930 . S
H1003 C1011 0.930 . S
H1004 C1014 0.930 . S
H1005 C1015 0.930 . S
C1006 H1000 0.930 . S
C1006 C1007 1.355 . S
C1006 C1008 1.415 . S
C1007 C1006 1.355 . S
C1007 C1009 1.419 . S
C1008 C1006 1.415 . S
C1008 C1013 1.425 . S
C1008 C1015 1.409 . S
C1009 H1001 0.930 . S
C1009 C1007 1.419 . S
C1009 C1010 1.362 . S
C1010 H1002 0.930 . S
C1010 C1009 1.362 . S
C1010 C1013 1.409 . S
C1011 H1003 0.930 . S
C1011 C1012 1.355 . S
C1011 C1013 1.415 . S
C1012 C1011 1.355 . S
C1012 C1014 1.419 . S
C1013 C1008 1.425 . S
C1013 C1010 1.409 . S
C1013 C1011 1.415 . S
C1014 H1004 0.930 . S
C1014 C1012 1.419 . S
C1014 C1015 1.362 . S
C1015 H1005 0.930 . S
C1015 C1008 1.409 . S
C1015 C1014 1.362 . S
H1016 C1022 0.930 . S
H1017 C1025 0.930 . S
H1018 C1026 0.930 . S
H1019 C1027 0.930 . S
H1020 C1030 0.930 . S
H1021 C1031 0.930 . S
C1022 H1016 0.930 . S
C1022 C1023 1.355 . S
C1022 C1024 1.415 . S
C1023 C1022 1.355 . S
C1023 C1025 1.419 . S
C1024 C1022 1.415 . S
C1024 C1029 1.425 . S
C1024 C1031 1.409 . S
C1025 H1017 0.930 . S
C1025 C1023 1.419 . S
C1025 C1026 1.362 . S
C1026 H1018 0.930 . S
C1026 C1025 1.362 . S
C1026 C1029 1.409 . S
C1027 H1019 0.930 . S
C1027 C1028 1.355 . S
C1027 C1029 1.415 . S
C1028 C1027 1.355 . S
C1028 C1030 1.419 . S
C1029 C1024 1.425 . S
C1029 C1026 1.409 . S
C1029 C1027 1.415 . S
C1030 H1020 0.930 . S
C1030 C1028 1.419 . S
C1030 C1031 1.362 . S
C1031 H1021 0.930 . S
C1031 C1024 1.409 . S
C1031 C1030 1.362 . S
H1032 C1038 0.930 . S
H1033 C1041 0.930 . S
H1034 C1042 0.930 . S
H1035 C1043 0.930 . S
H1036 C1046 0.930 . S
H1037 C1047 0.930 . S
C1038 H1032 0.930 . S
C1038 C1039 1.355 . S
C1038 C1040 1.415 . S
C1039 C1038 1.355 . S
C1039 C1041 1.419 . S
C1040 C1038 1.415 . S
C1040 C1045 1.425 . S
C1040 C1047 1.409 . S
C1041 H1033 0.930 . S
C1041 C1039 1.419 . S
C1041 C1042 1.362 . S
C1042 H1034 0.930 . S
C1042 C1041 1.362 . S
C1042 C1045 1.409 . S
C1043 H1035 0.930 . S
C1043 C1044 1.355 1_565 S
C1043 C1045 1.415 . S
C1044 C1043 1.355 1_545 S
C1044 C1046 1.419 . S
C1045 C1040 1.425 . S
C1045 C1042 1.409 . S
C1045 C1043 1.415 . S
C1046 H1036 0.930 . S
C1046 C1044 1.419 . S
C1046 C1047 1.362 1_545 S
C1047 H1037 0.930 . S
C1047 C1040 1.409 . S
C1047 C1046 1.362 1_565 S
H1048 C1054 0.930 1_565 S
H1049 C1057 0.930 1_565 S
H1050 C1058 0.930 . S
H1051 C1059 0.930 . S
H1052 C1062 0.930 . S
H1053 C1063 0.930 . S
C1054 H1048 0.930 1_545 S
C1054 C1055 1.355 1_545 S
C1054 C1056 1.415 . S
C1055 C1054 1.355 1_565 S
C1055 C1057 1.419 1_565 S
C1056 C1054 1.415 . S
C1056 C1061 1.425 . S
C1056 C1063 1.409 . S
C1057 H1049 0.930 1_545 S
C1057 C1055 1.419 1_545 S
C1057 C1058 1.362 . S
C1058 H1050 0.930 . S
C1058 C1057 1.362 . S
C1058 C1061 1.409 . S
C1059 H1051 0.930 . S
C1059 C1060 1.355 . S
C1059 C1061 1.415 . S
C1060 C1059 1.355 . S
C1060 C1062 1.419 . S
C1061 C1056 1.425 . S
C1061 C1058 1.409 . S
C1061 C1059 1.415 . S
C1062 H1052 0.930 . S
C1062 C1060 1.419 . S
C1062 C1063 1.362 . S
C1063 H1053 0.930 . S
C1063 C1056 1.409 . S
C1063 C1062 1.362 . S
H1064 C1070 0.930 . S
H1065 C1073 0.930 . S
H1066 C1074 0.930 . S
H1067 C1075 0.930 . S
H1068 C1078 0.930 . S
H1069 C1079 0.930 . S
C1070 H1064 0.930 . S
C1070 C1071 1.355 . S
C1070 C1072 1.415 . S
C1071 C1070 1.355 . S
C1071 C1073 1.419 . S
C1072 C1070 1.415 . S
C1072 C1077 1.425 . S
C1072 C1079 1.409 . S
C1073 H1065 0.930 . S
C1073 C1071 1.419 . S
C1073 C1074 1.362 . S
C1074 H1066 0.930 . S
C1074 C1073 1.362 . S
C1074 C1077 1.409 . S
C1075 H1067 0.930 . S
C1075 C1076 1.355 . S
C1075 C1077 1.415 . S
C1076 C1075 1.355 . S
C1076 C1078 1.419 . S
C1077 C1072 1.425 . S
C1077 C1074 1.409 . S
C1077 C1075 1.415 . S
C1078 H1068 0.930 . S
C1078 C1076 1.419 . S
C1078 C1079 1.362 . S
C1079 H1069 0.930 . S
C1079 C1072 1.409 . S
C1079 C1078 1.362 . S
C319 C109 1.072 . S
C324 C10 1.088 . S
C335 C23 1.093 . S
C340 C148 0.955 . S
C351 C36 1.110 . S
C356 C122 1.028 . S
C367 C49 1.112 . S
C372 C135 1.018 . S
C383 C57 0.979 . S
C388 C5 0.914 . S
C399 C18 1.039 . S
C404 C70 1.027 . S
C415 C83 0.880 . S
C420 C31 1.004 . S
C431 C44 0.943 . S
C436 C96 1.039 . S
C447 C62 1.042 . S
C452 C114 1.072 . S
C463 C88 1.032 . S
C468 C127 1.053 . S
C479 C140 1.045 . S
C484 C101 1.061 . S
C495 C75 1.036 . S
C500 C153 1.039 . S
C511 C265 1.052 . S
C516 C166 1.039 . S
C527 C179 1.076 . S
C532 C304 0.960 . S
C543 C192 1.057 . S
C548 C278 0.918 . S
C559 C291 0.996 . S
C564 C205 1.070 . S
C575 C218 1.043 . S
C580 C161 1.040 . S
C591 C174 1.049 . S
C596 C231 1.000 . S
C607 C187 0.997 . S
C612 C244 1.000 . S
C623 C257 1.048 . S
C628 C200 1.034 . S
C639 C270 1.072 . S
C644 C213 1.041 . S
C655 C239 1.012 . S
C660 C283 1.142 . S
C671 C252 1.060 . S
C676 C296 1.133 . S
C687 C309 1.131 . S
C692 C226 1.067 . S
C703 C286 1.387 . S
C708 C8 1.353 . S
C719 C273 1.337 1_556 S
C724 C21 1.349 . S
C735 C299 1.384 . S
C740 C34 1.290 . S
C751 C47 1.368 . S
C756 C260 1.367 1_554 S
C767 C52 1.293 . S
C772 C169 1.362 . S
C783 C156 1.338 . S
C788 C65 1.258 . S
C799 C195 1.310 . S
C804 C78 1.262 . S
C815 C182 1.333 . S
C820 C91 1.256 . S
C831 C112 1.329 . S
C836 C234 1.298 . S
C847 C208 1.340 1_545 S
C852 C125 1.301 . S
C863 C221 1.341 1_565 S
C868 C138 1.297 . S
C879 C247 1.339 . S
C884 C151 1.305 . S
C895 C130 1.299 . S
C900 C164 1.283 . S
C911 C117 1.245 1_554 S
C916 C177 1.278 . S
C927 C190 1.219 . S
C932 C143 1.262 . S
C943 C104 1.282 1_556 S
C948 C203 1.228 . S
C959 C216 1.328 . S
C964 C13 1.284 . S
C975 C229 1.335 . S
C980 C0 1.287 1_655 S
C991 C242 1.266 . S
C996 C39 1.288 . S
C1007 C255 1.259 . S
C1012 C26 1.330 . S
C1023 C268 1.329 . S
C1028 C86 1.337 . S
C1039 C281 1.257 . S
C1044 C60 1.341 . S
C1055 C73 1.283 . S
C1060 C294 1.275 . S
C1071 C307 1.325 . S
C1076 C99 1.302 . S
