# Generated by pormake.
# Topology fnh, (5)-cn, num edge types: 1
# Building blocks:
#     Node 0, Type 0, BuildingBlock: BEQFEK_clean_sbu_0, # of connection points: 5
#     Node 1, Type 0, BuildingBlock: BEQFEK_clean_sbu_0, # of connection points: 5
#     Node 2, Type 0, BuildingBlock: BEQFEK_clean_sbu_0, # of connection points: 5
#     Node 3, Type 0, BuildingBlock: BEQFEK_clean_sbu_0, # of connection points: 5
#     Node 4, Type 0, BuildingBlock: BEQFEK_clean_sbu_0, # of connection points: 5
#     Node 5, Type 0, BuildingBlock: BEQFEK_clean_sbu_0, # of connection points: 5
#     Node 6, Type 0, BuildingBlock: BEQFEK_clean_sbu_0, # of connection points: 5
#     Node 7, Type 0, BuildingBlock: BEQFEK_clean_sbu_0, # of connection points: 5
#     Node 8, Type 0, BuildingBlock: BEQFEK_clean_sbu_0, # of connection points: 5
#     Node 9, Type 0, BuildingBlock: BEQFEK_clean_sbu_0, # of connection points: 5
#     Node 10, Type 0, BuildingBlock: BEQFEK_clean_sbu_0, # of connection points: 5
#     Node 11, Type 0, BuildingBlock: BEQFEK_clean_sbu_0, # of connection points: 5
#     Node 12, Type 0, BuildingBlock: BEQFEK_clean_sbu_0, # of connection points: 5
#     Node 13, Type 0, BuildingBlock: BEQFEK_clean_sbu_0, # of connection points: 5
#     Node 14, Type 0, BuildingBlock: BEQFEK_clean_sbu_0, # of connection points: 5
#     Node 15, Type 0, BuildingBlock: BEQFEK_clean_sbu_0, # of connection points: 5
#     Node 16, Type 0, BuildingBlock: BEQFEK_clean_sbu_0, # of connection points: 5
#     Node 17, Type 0, BuildingBlock: BEQFEK_clean_sbu_0, # of connection points: 5
#     Edge 18, Type (0, 0), BuildingBlock: XIVTED_clean_linker_0, # of connection points: 2
#     Edge 19, Type (0, 0), BuildingBlock: XIVTED_clean_linker_0, # of connection points: 2
#     Edge 20, Type (0, 0), BuildingBlock: XIVTED_clean_linker_0, # of connection points: 2
#     Edge 21, Type (0, 0), BuildingBlock: XIVTED_clean_linker_0, # of connection points: 2
#     Edge 22, Type (0, 0), BuildingBlock: XIVTED_clean_linker_0, # of connection points: 2
#     Edge 23, Type (0, 0), BuildingBlock: XIVTED_clean_linker_0, # of connection points: 2
#     Edge 24, Type (0, 0), BuildingBlock: XIVTED_clean_linker_0, # of connection points: 2
#     Edge 25, Type (0, 0), BuildingBlock: XIVTED_clean_linker_0, # of connection points: 2
#     Edge 26, Type (0, 0), BuildingBlock: XIVTED_clean_linker_0, # of connection points: 2
#     Edge 27, Type (0, 0), BuildingBlock: XIVTED_clean_linker_0, # of connection points: 2
#     Edge 28, Type (0, 0), BuildingBlock: XIVTED_clean_linker_0, # of connection points: 2
#     Edge 29, Type (0, 0), BuildingBlock: XIVTED_clean_linker_0, # of connection points: 2
#     Edge 30, Type (0, 0), BuildingBlock: XIVTED_clean_linker_0, # of connection points: 2
#     Edge 31, Type (0, 0), BuildingBlock: XIVTED_clean_linker_0, # of connection points: 2
#     Edge 32, Type (0, 0), BuildingBlock: XIVTED_clean_linker_0, # of connection points: 2
#     Edge 33, Type (0, 0), BuildingBlock: XIVTED_clean_linker_0, # of connection points: 2
#     Edge 34, Type (0, 0), BuildingBlock: XIVTED_clean_linker_0, # of connection points: 2
#     Edge 35, Type (0, 0), BuildingBlock: XIVTED_clean_linker_0, # of connection points: 2
#     Edge 36, Type (0, 0), BuildingBlock: XIVTED_clean_linker_0, # of connection points: 2
#     Edge 37, Type (0, 0), BuildingBlock: XIVTED_clean_linker_0, # of connection points: 2
#     Edge 38, Type (0, 0), BuildingBlock: XIVTED_clean_linker_0, # of connection points: 2
#     Edge 39, Type (0, 0), BuildingBlock: XIVTED_clean_linker_0, # of connection points: 2
#     Edge 40, Type (0, 0), BuildingBlock: XIVTED_clean_linker_0, # of connection points: 2
#     Edge 41, Type (0, 0), BuildingBlock: XIVTED_clean_linker_0, # of connection points: 2
#     Edge 42, Type (0, 0), BuildingBlock: XIVTED_clean_linker_0, # of connection points: 2
#     Edge 43, Type (0, 0), BuildingBlock: XIVTED_clean_linker_0, # of connection points: 2
#     Edge 44, Type (0, 0), BuildingBlock: XIVTED_clean_linker_0, # of connection points: 2
#     Edge 45, Type (0, 0), BuildingBlock: XIVTED_clean_linker_0, # of connection points: 2
#     Edge 46, Type (0, 0), BuildingBlock: XIVTED_clean_linker_0, # of connection points: 2
#     Edge 47, Type (0, 0), BuildingBlock: XIVTED_clean_linker_0, # of connection points: 2
#     Edge 48, Type (0, 0), BuildingBlock: XIVTED_clean_linker_0, # of connection points: 2
#     Edge 49, Type (0, 0), BuildingBlock: XIVTED_clean_linker_0, # of connection points: 2
#     Edge 50, Type (0, 0), BuildingBlock: XIVTED_clean_linker_0, # of connection points: 2
#     Edge 51, Type (0, 0), BuildingBlock: XIVTED_clean_linker_0, # of connection points: 2
#     Edge 52, Type (0, 0), BuildingBlock: XIVTED_clean_linker_0, # of connection points: 2
#     Edge 53, Type (0, 0), BuildingBlock: XIVTED_clean_linker_0, # of connection points: 2
#     Edge 54, Type (0, 0), BuildingBlock: XIVTED_clean_linker_0, # of connection points: 2
#     Edge 55, Type (0, 0), BuildingBlock: XIVTED_clean_linker_0, # of connection points: 2
#     Edge 56, Type (0, 0), BuildingBlock: XIVTED_clean_linker_0, # of connection points: 2
#     Edge 57, Type (0, 0), BuildingBlock: XIVTED_clean_linker_0, # of connection points: 2
#     Edge 58, Type (0, 0), BuildingBlock: XIVTED_clean_linker_0, # of connection points: 2
#     Edge 59, Type (0, 0), BuildingBlock: XIVTED_clean_linker_0, # of connection points: 2
#     Edge 60, Type (0, 0), BuildingBlock: XIVTED_clean_linker_0, # of connection points: 2
#     Edge 61, Type (0, 0), BuildingBlock: XIVTED_clean_linker_0, # of connection points: 2
#     Edge 62, Type (0, 0), BuildingBlock: XIVTED_clean_linker_0, # of connection points: 2
# Relax obj value: 0.244
# Max RMSD: 0.099
# Mean RMSD: 0.099
data_MOF--net-fnh--node1-BEQFEK_clean_sbu_0--edge1-XIVTED_clean_linker_0
_symmetry_space_group_name_H-M    P1
_symmetry_Int_Tables_number       1
_symmetry_cell_setting            triclinic
loop_
_symmetry_equiv_pos_as_xyz
'x, y, z'
_cell_length_a     67.602451
_cell_length_b     67.581267
_cell_length_c     23.863677
_cell_angle_alpha  90.057209
_cell_angle_beta   90.037408
_cell_angle_gamma 119.99126
loop_
_atom_site_label
_atom_site_type_symbol
_atom_site_fract_x
_atom_site_fract_y
_atom_site_fract_z
_atom_type_partial_charge
Co0 Co 0.13352 0.21695 0.33115 0.0
Co1 Co 0.10587 0.22674 0.2511 0.0
C2 C 0.08315 0.20176 0.35898 0.0
O3 O 0.10256 0.20377 0.37039 0.0
O4 O 0.08035 0.20896 0.31134 0.0
C5 C 0.14529 0.18588 0.37361 0.0
O6 O 0.12616 0.17036 0.3502 0.0
C7 C 0.07908 0.23967 0.17521 0.0
C8 C 0.10831 0.2656 0.12586 0.0
C9 C 0.08508 0.25633 0.13381 0.0
N10 N 0.09812 0.23964 0.19108 0.0
N11 N 0.11542 0.25513 0.16138 0.0
C12 C 0.05594 0.2235 0.19824 0.0
H13 H 0.0561 0.20908 0.21999 0.0
H14 H 0.04306 0.21675 0.16408 0.0
H15 H 0.05105 0.23266 0.22888 0.0
C16 C 0.14501 0.19872 0.22456 0.0
N17 N 0.13358 0.2073 0.25359 0.0
N18 N 0.12028 0.21026 0.21877 0.0
C19 C 0.1225 0.20317 0.16673 0.0
C20 C 0.13823 0.19526 0.16816 0.0
C21 C 0.16444 0.19662 0.24792 0.0
H22 H 0.17314 0.20929 0.28183 0.0
H23 H 0.15784 0.17913 0.26462 0.0
H24 H 0.17709 0.19945 0.21474 0.0
O25 O 0.15112 0.25089 0.34132 0.0
O26 O 0.12942 0.25705 0.28392 0.0
H27 H 0.12058 0.22082 0.09483 0.0
H28 H 0.1069 0.19033 0.08623 0.0
C29 C 0.11001 0.20419 0.11613 0.0
H30 H 0.09356 0.20284 0.12847 0.0
H31 H 0.13229 0.25892 0.16638 0.0
O32 O 0.15057 0.20665 0.3729 0.0
C33 C 0.14621 0.26467 0.31757 0.0
Co34 Co 0.8198 0.92229 0.33293 0.0
Co35 Co 0.81399 0.88694 0.25117 0.0
C36 C 0.83607 0.88719 0.36024 0.0
O37 O 0.83208 0.9033 0.37221 0.0
O38 O 0.83141 0.87867 0.31061 0.0
C39 C 0.81503 0.93539 0.43273 0.0
O40 O 0.80458 0.91302 0.43641 0.0
C41 C 0.80241 0.84802 0.17391 0.0
C42 C 0.77608 0.85065 0.12443 0.0
C43 C 0.78564 0.83695 0.13278 0.0
N44 N 0.8022 0.86705 0.1892 0.0
N45 N 0.78647 0.86845 0.15941 0.0
C46 C 0.81861 0.84128 0.19799 0.0
H47 H 0.83305 0.85608 0.21921 0.0
H48 H 0.82537 0.83489 0.16451 0.0
H49 H 0.80951 0.82753 0.22931 0.0
C50 C 0.84312 0.95555 0.23532 0.0
N51 N 0.83303 0.93463 0.26009 0.0
N52 N 0.83056 0.91917 0.22304 0.0
C53 C 0.83927 0.93003 0.17319 0.0
C54 C 0.8475 0.95377 0.17826 0.0
C55 C 0.84896 0.97697 0.26663 0.0
H56 H 0.85175 0.97504 0.31161 0.0
H57 H 0.86451 0.99176 0.24906 0.0
H58 H 0.8345 0.98029 0.2633 0.0
O59 O 0.78578 0.90623 0.32943 0.0
O60 O 0.78254 0.87697 0.28273 0.0
H61 H 0.82738 0.89936 0.12355 0.0
H62 H 0.83455 0.92488 0.08408 0.0
C63 C 0.83923 0.91791 0.12062 0.0
H64 H 0.8566 0.92054 0.11366 0.0
H65 H 0.78232 0.88129 0.1644 0.0
O66 O 0.82495 0.94527 0.38745 0.0
C67 C 0.7733 0.88642 0.30963 0.0
Co68 Co 0.1148 0.90445 0.3389 0.0
Co69 Co 0.15056 0.93433 0.25986 0.0
C70 C 0.15118 0.95489 0.37079 0.0
O71 O 0.13525 0.93463 0.3818 0.0
O72 O 0.15895 0.95933 0.32073 0.0
C73 C 0.08245 0.90554 0.39756 0.0
O74 O 0.08956 0.9236 0.36536 0.0
C75 C 0.19336 0.96154 0.20133 0.0
C76 C 0.18577 0.94426 0.11899 0.0
C77 C 0.20316 0.96148 0.15018 0.0
N78 N 0.17118 0.94552 0.1995 0.0
N79 N 0.16689 0.93486 0.1508 0.0
C80 C 0.20529 0.97356 0.25417 0.0
H81 H 0.19714 0.96224 0.29073 0.0
H82 H 0.20374 0.98904 0.25962 0.0
H83 H 0.22362 0.97854 0.25317 0.0
C84 C 0.08309 0.89492 0.23919 0.0
N85 N 0.10375 0.90613 0.26507 0.0
N86 N 0.11902 0.92056 0.23004 0.0
C87 C 0.10818 0.91976 0.18102 0.0
C88 C 0.08472 0.90305 0.18409 0.0
C89 C 0.06264 0.87529 0.26564 0.0
H90 H 0.06801 0.86727 0.2983 0.0
H91 H 0.0521 0.88166 0.28583 0.0
H92 H 0.05211 0.86225 0.23381 0.0
O93 O 0.12922 0.88508 0.33886 0.0
O94 O 0.15812 0.91032 0.28845 0.0
H95 H 0.12388 0.92736 0.10004 0.0
H96 H 0.10788 0.94132 0.11532 0.0
C97 C 0.11958 0.93596 0.1335 0.0
H98 H 0.13551 0.95122 0.148 0.0
H99 H 0.15144 0.92041 0.14035 0.0
O100 O 0.08925 0.89144 0.38816 0.0
C101 C 0.14859 0.89177 0.31651 0.0
Co102 Co 0.2296 0.12847 0.70759 0.0
Co103 Co 0.23709 0.10098 0.79314 0.0
C104 C 0.2143 0.07757 0.68381 0.0
O105 O 0.21696 0.09707 0.67113 0.0
O106 O 0.22043 0.07482 0.73286 0.0
C107 C 0.23218 0.1444 0.60601 0.0
O108 O 0.24268 0.13255 0.60162 0.0
C109 C 0.24698 0.0729 0.87156 0.0
C110 C 0.27396 0.1013 0.92122 0.0
C111 C 0.26342 0.07794 0.91311 0.0
N112 N 0.2483 0.09258 0.85568 0.0
N113 N 0.26441 0.10938 0.88558 0.0
C114 C 0.22995 0.05015 0.84792 0.0
H115 H 0.21579 0.05116 0.8272 0.0
H116 H 0.22289 0.03708 0.88153 0.0
H117 H 0.23844 0.04487 0.81625 0.0
C118 C 0.2067 0.13931 0.80463 0.0
N119 N 0.21705 0.12848 0.7811 0.0
N120 N 0.21988 0.11616 0.8194 0.0
C121 C 0.21123 0.11881 0.86882 0.0
C122 C 0.2026 0.13391 0.86207 0.0
C123 C 0.20028 0.15411 0.77183 0.0
H124 H 0.19686 0.1484 0.72754 0.0
H125 H 0.18494 0.15366 0.78992 0.0
H126 H 0.21471 0.17197 0.7727 0.0
O127 O 0.26363 0.14595 0.70686 0.0
O128 O 0.2687 0.12388 0.76493 0.0
H129 H 0.21618 0.11987 0.9581 0.0
H130 H 0.19464 0.09278 0.93044 0.0
C131 C 0.21179 0.10775 0.92261 0.0
H132 H 0.22411 0.1016 0.92084 0.0
H133 H 0.26935 0.12658 0.88041 0.0
O134 O 0.22347 0.14531 0.65247 0.0
C135 C 0.27697 0.141 0.73243 0.0
Co136 Co 0.91246 0.10564 0.70886 0.0
Co137 Co 0.94266 0.14261 0.78673 0.0
C138 C 0.96238 0.13881 0.67475 0.0
O139 O 0.9426 0.12173 0.66451 0.0
O140 O 0.96606 0.14871 0.72264 0.0
C141 C 0.89659 0.06201 0.66666 0.0
O142 O 0.91545 0.06426 0.68855 0.0
C143 C 0.97209 0.1863 0.84064 0.0
C144 C 0.95483 0.18095 0.92247 0.0
C145 C 0.97236 0.19734 0.89011 0.0
N146 N 0.95552 0.16435 0.84462 0.0
N147 N 0.94494 0.16144 0.89298 0.0
C148 C 0.98416 0.19695 0.78695 0.0
H149 H 0.97273 0.18824 0.75084 0.0
H150 H 0.99939 0.1949 0.78301 0.0
H151 H 0.98953 0.21537 0.78543 0.0
C152 C 0.90153 0.0759 0.81556 0.0
N153 N 0.91322 0.09581 0.7862 0.0
N154 N 0.92817 0.11164 0.81972 0.0
C155 C 0.92721 0.10184 0.87055 0.0
C156 C 0.91007 0.07867 0.87029 0.0
C157 C 0.88057 0.0551 0.7946 0.0
H158 H 0.87182 0.0598 0.7624 0.0
H159 H 0.88543 0.04303 0.77646 0.0
H160 H 0.86851 0.04622 0.82954 0.0
O161 O 0.89681 0.12385 0.70216 0.0
O162 O 0.91926 0.15108 0.76043 0.0
H163 H 0.93451 0.11809 0.95085 0.0
H164 H 0.94867 0.10223 0.93727 0.0
C165 C 0.94332 0.11377 0.91797 0.0
H166 H 0.95861 0.12957 0.90322 0.0
H167 H 0.93007 0.14656 0.90443 0.0
O168 O 0.89282 0.07852 0.66834 0.0
C169 C 0.9023 0.14249 0.72706 0.0
Co170 Co 0.93422 0.81644 0.71452 0.0
Co171 Co 0.89612 0.80682 0.79116 0.0
C172 C 0.89748 0.82915 0.68029 0.0
O173 O 0.91482 0.82693 0.6703 0.0
O174 O 0.8881 0.82335 0.7287 0.0
C175 C 0.97108 0.85385 0.67989 0.0
O176 O 0.95879 0.86203 0.70168 0.0
C177 C 0.85187 0.7893 0.84514 0.0
C178 C 0.85844 0.77836 0.92693 0.0
C179 C 0.84138 0.77848 0.89496 0.0
N180 N 0.87409 0.79568 0.84855 0.0
N181 N 0.87777 0.78857 0.89688 0.0
C182 C 0.8407 0.7904 0.79197 0.0
H183 H 0.84945 0.78806 0.75542 0.0
H184 H 0.84221 0.80748 0.78846 0.0
H185 H 0.8224 0.77697 0.79087 0.0
C186 C 0.96254 0.83506 0.82089 0.0
N187 N 0.94255 0.82634 0.79206 0.0
N188 N 0.92657 0.82495 0.82542 0.0
C189 C 0.93632 0.83408 0.87615 0.0
C190 C 0.95982 0.84089 0.87577 0.0
C191 C 0.98325 0.83517 0.79832 0.0
H192 H 0.9784 0.82216 0.76484 0.0
H193 H 0.99508 0.85226 0.78066 0.0
H194 H 0.9923 0.83157 0.83207 0.0
O195 O 0.92021 0.78266 0.70672 0.0
O196 O 0.89161 0.7764 0.76244 0.0
H197 H 0.91937 0.82398 0.95537 0.0
H198 H 0.93476 0.85424 0.94375 0.0
C199 C 0.92376 0.83744 0.92339 0.0
H200 H 0.90781 0.83648 0.908 0.0
H201 H 0.89322 0.78978 0.90834 0.0
O202 O 0.96309 0.83241 0.67733 0.0
C203 C 0.90162 0.76879 0.73109 0.0
Co204 Co 0.80416 0.5499 0.68002 0.0
Co205 Co 0.77848 0.5614 0.59732 0.0
C206 C 0.7541 0.53832 0.70339 0.0
O207 O 0.77323 0.54012 0.71617 0.0
O208 O 0.75174 0.5447 0.65449 0.0
C209 C 0.79905 0.51132 0.7216 0.0
O210 O 0.78327 0.50397 0.68249 0.0
C211 C 0.75034 0.57053 0.51949 0.0
C212 C 0.77756 0.5998 0.47282 0.0
C213 C 0.75412 0.58682 0.47892 0.0
N214 N 0.7707 0.5742 0.53727 0.0
N215 N 0.78687 0.59165 0.50925 0.0
C216 C 0.72811 0.55095 0.53896 0.0
H217 H 0.73069 0.53708 0.55559 0.0
H218 H 0.71554 0.54418 0.50415 0.0
H219 H 0.72117 0.55688 0.57308 0.0
C220 C 0.81562 0.53123 0.57527 0.0
N221 N 0.80441 0.54036 0.60273 0.0
N222 N 0.79166 0.54366 0.56682 0.0
C223 C 0.79398 0.5362 0.51544 0.0
C224 C 0.80937 0.52792 0.5185 0.0
C225 C 0.83222 0.52583 0.60291 0.0
H226 H 0.84022 0.53712 0.63968 0.0
H227 H 0.82294 0.50784 0.61751 0.0
H228 H 0.84563 0.52769 0.57315 0.0
O229 O 0.82419 0.58379 0.69083 0.0
O230 O 0.80329 0.59074 0.63169 0.0
H231 H 0.79386 0.55639 0.4471 0.0
H232 H 0.78199 0.52655 0.43053 0.0
C233 C 0.78321 0.53877 0.46333 0.0
H234 H 0.766 0.53613 0.47292 0.0
H235 H 0.80432 0.5982 0.51559 0.0
O236 O 0.81305 0.53256 0.72688 0.0
C237 C 0.82 0.59795 0.6658 0.0
Co238 Co 0.49541 0.25982 0.66559 0.0
Co239 Co 0.48112 0.22 0.58848 0.0
C240 C 0.50575 0.22087 0.69469 0.0
O241 O 0.50496 0.23901 0.70488 0.0
O242 O 0.49835 0.21087 0.64718 0.0
C243 C 0.53509 0.29542 0.69943 0.0
O244 O 0.54203 0.28213 0.67736 0.0
C245 C 0.46652 0.18003 0.51258 0.0
C246 C 0.43778 0.18108 0.47085 0.0
C247 C 0.44885 0.16858 0.47397 0.0
N248 N 0.46547 0.19815 0.53173 0.0
N249 N 0.44827 0.19862 0.50665 0.0
C250 C 0.48497 0.17504 0.52865 0.0
H251 H 0.4996 0.19037 0.54769 0.0
H252 H 0.4909 0.16959 0.49144 0.0
H253 H 0.47819 0.16103 0.55991 0.0
C254 C 0.51279 0.28681 0.55696 0.0
N255 N 0.50353 0.26704 0.58687 0.0
N256 N 0.49864 0.25002 0.55274 0.0
C257 C 0.50484 0.25855 0.49977 0.0
C258 C 0.51442 0.28253 0.50021 0.0
C259 C 0.51759 0.30925 0.58085 0.0
H260 H 0.50619 0.30656 0.61691 0.0
H261 H 0.53563 0.31882 0.59497 0.0
H262 H 0.51507 0.31968 0.5488 0.0
O263 O 0.46183 0.24721 0.67983 0.0
O264 O 0.45329 0.2175 0.62581 0.0
H265 H 0.4838 0.23844 0.43207 0.0
H266 H 0.5139 0.25369 0.41646 0.0
C267 C 0.50105 0.24397 0.4493 0.0
H268 H 0.50185 0.2285 0.46099 0.0
H269 H 0.44367 0.211 0.5141 0.0
O270 O 0.51389 0.2887 0.70225 0.0
C271 C 0.44702 0.2282 0.65853 0.0
Co272 Co 0.78196 0.23958 0.67612 0.0
Co273 Co 0.81761 0.26851 0.59459 0.0
C274 C 0.81784 0.29003 0.70487 0.0
O275 O 0.8016 0.27008 0.71657 0.0
O276 O 0.82605 0.29383 0.65519 0.0
C277 C 0.74923 0.24007 0.73519 0.0
O278 O 0.75567 0.25795 0.7027 0.0
C279 C 0.85982 0.29701 0.53454 0.0
C280 C 0.85275 0.27914 0.45305 0.0
C281 C 0.86963 0.29725 0.48323 0.0
N282 N 0.83804 0.27995 0.5338 0.0
N283 N 0.83409 0.26899 0.4856 0.0
C284 C 0.87162 0.30999 0.58653 0.0
H285 H 0.86461 0.29873 0.62366 0.0
H286 H 0.86848 0.32451 0.5918 0.0
H287 H 0.89028 0.31654 0.58454 0.0
C288 C 0.75006 0.22869 0.57592 0.0
N289 N 0.77079 0.24016 0.60142 0.0
N290 N 0.78595 0.25427 0.56563 0.0
C291 C 0.77497 0.25296 0.5165 0.0
C292 C 0.75153 0.23627 0.52029 0.0
C293 C 0.72963 0.20943 0.60344 0.0
H294 H 0.73503 0.20169 0.63674 0.0
H295 H 0.71924 0.21611 0.62299 0.0
H296 H 0.71894 0.19609 0.57238 0.0
O297 O 0.79787 0.2217 0.68058 0.0
O298 O 0.82537 0.24465 0.62321 0.0
H299 H 0.79068 0.25987 0.43559 0.0
H300 H 0.77439 0.2737 0.44901 0.0
C301 C 0.78623 0.2687 0.46812 0.0
H302 H 0.80206 0.28423 0.482 0.0
H303 H 0.81904 0.25396 0.47591 0.0
O304 O 0.75647 0.22635 0.72553 0.0
C305 C 0.81656 0.22735 0.65569 0.0
Co306 Co 0.89159 0.46206 0.04629 0.0
Co307 Co 0.90325 0.43511 0.12399 0.0
C308 C 0.88011 0.41185 1.01876 0.0
O309 O 0.88256 0.43143 1.00788 0.0
O310 O 0.88573 0.40843 0.06757 0.0
C311 C 0.85186 0.45555 1.00935 0.0
O312 O 0.84572 0.43923 0.04658 0.0
C313 C 0.91614 0.40901 0.20082 0.0
C314 C 0.94578 0.43804 0.24225 0.0
C315 C 0.9337 0.41445 0.23915 0.0
N316 N 0.91821 0.4286 0.18164 0.0
N317 N 0.93593 0.44582 0.20651 0.0
C318 C 0.89691 0.38593 0.18487 0.0
H319 H 0.90292 0.37836 0.15252 0.0
H320 H 0.88249 0.38738 0.1672 0.0
H321 H 0.89091 0.37444 0.22181 0.0
C322 C 0.87368 0.47249 0.15306 0.0
N323 N 0.88259 0.46148 0.12389 0.0
N324 N 0.88602 0.44833 0.15808 0.0
C325 C 0.87886 0.45022 0.21023 0.0
C326 C 0.87068 0.46576 0.20937 0.0
C327 C 0.86807 0.48926 0.12731 0.0
H328 H 0.87898 0.49742 0.09013 0.0
H329 H 0.84993 0.48009 0.11373 0.0
H330 H 0.87029 0.50257 0.15793 0.0
O331 O 0.92527 0.48335 0.03594 0.0
O332 O 0.93153 0.45944 0.08514 0.0
H333 H 0.89906 0.44962 0.27804 0.0
H334 H 0.86908 0.43679 0.29387 0.0
C335 C 0.88157 0.43886 0.26097 0.0
H336 H 0.87947 0.42199 0.2495 0.0
H337 H 0.94143 0.46299 0.19865 0.0
O338 O 0.87284 0.4702 1.00246 0.0
C339 C 0.93907 0.47732 0.05502 0.0
Co340 Co 0.58002 0.43699 0.035 0.0
Co341 Co 0.60639 0.4734 0.11718 0.0
C342 C 0.63047 0.47551 1.01182 0.0
O343 O 0.61085 0.45907 0.99832 0.0
O344 O 0.63349 0.48312 0.06207 0.0
C345 C 0.58637 0.40749 0.97521 0.0
O346 O 0.60351 0.41499 1.01066 0.0
C347 C 0.63456 0.51084 0.19446 0.0
C348 C 0.60759 0.51465 0.23735 0.0
C349 C 0.63101 0.52426 0.23282 0.0
N350 N 0.61412 0.49443 0.17637 0.0
N351 N 0.5981 0.49677 0.20208 0.0
C352 C 0.65663 0.51258 0.17702 0.0
H353 H 0.65368 0.49569 0.16264 0.0
H354 H 0.66903 0.51872 0.21224 0.0
H355 H 0.664 0.52481 0.14173 0.0
C356 C 0.56954 0.40534 0.13676 0.0
N357 N 0.58028 0.42603 0.11067 0.0
N358 N 0.59232 0.44195 0.14766 0.0
C359 C 0.58974 0.43173 0.19863 0.0
C360 C 0.57498 0.40786 0.19422 0.0
C361 C 0.55399 0.38337 0.10732 0.0
H362 H 0.55852 0.38423 0.06264 0.0
H363 H 0.55474 0.36891 0.12711 0.0
H364 H 0.5362 0.38008 0.10983 0.0
O365 O 0.55937 0.45022 0.02841 0.0
O366 O 0.58323 0.47968 0.07956 0.0
H367 H 0.58868 0.43607 0.28786 0.0
H368 H 0.61655 0.4451 0.2592 0.0
C369 C 0.60011 0.44461 0.25168 0.0
H370 H 0.60359 0.46237 0.24865 0.0
H371 H 0.58063 0.48635 0.19479 0.0
O372 O 0.57072 0.41241 0.98277 0.0
C373 C 0.56553 0.46989 0.04864 0.0
Co374 Co 0.60194 0.14788 0.0509 0.0
Co375 Co 0.56344 0.13959 0.12415 0.0
C376 C 0.56592 0.16153 1.01374 0.0
O377 O 0.5826 0.1581 1.00478 0.0
O378 O 0.55668 0.15698 0.06234 0.0
C379 C 0.63863 0.18536 1.01771 0.0
O380 O 0.62586 0.19305 0.03916 0.0
C381 C 0.51923 0.12384 0.17744 0.0
C382 C 0.52475 0.1118 0.2589 0.0
C383 C 0.50836 0.11324 0.22709 0.0
N384 N 0.54106 0.12879 0.1807 0.0
N385 N 0.54409 0.12108 0.22887 0.0
C386 C 0.50863 0.12634 0.1248 0.0
H387 H 0.51661 0.12319 0.0878 0.0
H388 H 0.51175 0.14406 0.122 0.0
H389 H 0.48997 0.11412 0.12386 0.0
C390 C 0.62959 0.16652 0.15759 0.0
N391 N 0.60979 0.15793 0.12806 0.0
N392 N 0.59369 0.15688 0.16036 0.0
C393 C 0.60322 0.16608 0.21126 0.0
C394 C 0.62667 0.17265 0.21193 0.0
C395 C 0.65027 0.16628 0.13616 0.0
H396 H 0.64544 0.15309 0.10313 0.0
H397 H 0.66232 0.18322 0.11813 0.0
H398 H 0.65908 0.16272 0.17061 0.0
O399 O 0.58805 0.11414 0.04502 0.0
O400 O 0.55782 0.10906 0.09238 0.0
H401 H 0.58559 0.15596 0.28954 0.0
H402 H 0.60149 0.18626 0.27859 0.0
C403 C 0.59046 0.16958 0.25775 0.0
H404 H 0.57476 0.16894 0.24151 0.0
H405 H 0.55915 0.12145 0.24045 0.0
O406 O 0.63105 0.16399 1.01468 0.0
C407 C 0.56818 0.10084 0.06441 0.0
Co408 Co 0.47172 0.88294 1.00896 0.0
Co409 Co 0.44379 0.89097 0.92688 0.0
C410 C 0.4208 0.86946 0.03358 0.0
O411 O 0.44066 0.87306 0.04654 0.0
O412 O 0.41737 0.87388 0.98352 0.0
C413 C 0.46832 0.8479 0.0663 0.0
O414 O 0.45141 0.83759 0.03044 0.0
C415 C 0.41584 0.90064 0.8494 0.0
C416 C 0.44346 0.92784 0.79867 0.0
C417 C 0.42012 0.91664 0.80757 0.0
N418 N 0.43587 0.90285 0.86515 0.0
N419 N 0.45226 0.91903 0.83461 0.0
C420 C 0.39334 0.88278 0.87244 0.0
H421 H 0.39477 0.86829 0.88955 0.0
H422 H 0.37997 0.87633 0.83946 0.0
H423 H 0.38819 0.89028 0.90692 0.0
C424 C 0.48229 0.86178 0.90805 0.0
N425 N 0.4712 0.87131 0.9342 0.0
N426 N 0.458 0.87373 0.8981 0.0
C427 C 0.45981 0.86524 0.84775 0.0
C428 C 0.47554 0.85721 0.85134 0.0
C429 C 0.50065 0.85916 0.93609 0.0
H430 H 0.50804 0.87129 0.97165 0.0
H431 H 0.49316 0.84154 0.95275 0.0
H432 H 0.51441 0.86224 0.90601 0.0
O433 O 0.49135 0.91691 1.01362 0.0
O434 O 0.46681 0.92128 0.96203 0.0
H435 H 0.45647 0.88009 0.77199 0.0
H436 H 0.4419 0.84925 0.77134 0.0
C437 C 0.44625 0.86449 0.79744 0.0
H438 H 0.43032 0.86412 0.81052 0.0
H439 H 0.46958 0.92445 0.83942 0.0
O440 O 0.4828 0.86892 0.05998 0.0
C441 C 0.48472 0.92987 0.99244 0.0
Co442 Co 0.15792 0.59496 1.00232 0.0
Co443 Co 0.14627 0.55687 0.9229 0.0
C444 C 0.16895 0.55583 0.02813 0.0
O445 O 0.16662 0.57299 0.03985 0.0
O446 O 0.1634 0.54711 0.97894 0.0
C447 C 0.19746 0.62786 0.04149 0.0
O448 O 0.20395 0.61831 1.00328 0.0
C449 C 0.13219 0.51783 0.84481 0.0
C450 C 0.1041 0.51958 0.80164 0.0
C451 C 0.11481 0.50675 0.80535 0.0
N452 N 0.1313 0.53604 0.86393 0.0
N453 N 0.11451 0.53696 0.83797 0.0
C454 C 0.15016 0.51231 0.8621 0.0
H455 H 0.14297 0.49851 0.89392 0.0
H456 H 0.16497 0.52754 0.88088 0.0
H457 H 0.15596 0.50638 0.82556 0.0
C458 C 0.1766 0.62406 0.89717 0.0
N459 N 0.1674 0.60391 0.92524 0.0
N460 N 0.16392 0.58756 0.89031 0.0
C461 C 0.17135 0.59692 0.83861 0.0
C462 C 0.17991 0.62083 0.84029 0.0
C463 C 0.17996 0.64559 0.92376 0.0
H464 H 0.16856 0.64156 0.96057 0.0
H465 H 0.19789 0.65589 0.93837 0.0
H466 H 0.17638 0.65584 0.8934 0.0
O467 O 0.12432 0.58285 1.01189 0.0
O468 O 0.11782 0.55287 0.9614 0.0
H469 H 0.15434 0.57813 0.76499 0.0
H470 H 0.18512 0.59304 0.7607 0.0
C471 C 0.17028 0.58305 0.78866 0.0
H472 H 0.17001 0.56719 0.80208 0.0
H473 H 0.10999 0.54938 0.84563 0.0
O474 O 0.17643 0.62141 0.04769 0.0
C475 C 0.11039 0.56323 0.99191 0.0
Co476 Co 0.44574 0.56765 1.00056 0.0
Co477 Co 0.48164 0.59752 0.92128 0.0
C478 C 0.48187 0.61814 0.03165 0.0
O479 O 0.46602 0.59791 0.043 0.0
O480 O 0.48971 0.62248 0.98167 0.0
C481 C 0.41352 0.56854 0.06043 0.0
O482 O 0.42029 0.58655 0.02824 0.0
C483 C 0.5246 0.62525 0.86374 0.0
C484 C 0.51764 0.60813 0.78126 0.0
C485 C 0.53472 0.62547 0.81289 0.0
N486 N 0.50252 0.60895 0.86134 0.0
N487 N 0.49862 0.5984 0.81255 0.0
C488 C 0.5362 0.63732 0.91682 0.0
H489 H 0.5281 0.62589 0.95321 0.0
H490 H 0.53425 0.65258 0.92217 0.0
H491 H 0.55462 0.64268 0.91625 0.0
C492 C 0.41411 0.5582 0.9007 0.0
N493 N 0.43478 0.5693 0.92657 0.0
N494 N 0.4501 0.58375 0.89149 0.0
C495 C 0.43919 0.58307 0.84265 0.0
C496 C 0.41586 0.56641 0.84593 0.0
C497 C 0.39288 0.54034 0.92883 0.0
H498 H 0.38591 0.54889 0.95541 0.0
H499 H 0.3796 0.52937 0.89806 0.0
H500 H 0.397 0.52968 0.95644 0.0
O501 O 0.4604 0.54851 1.00098 0.0
O502 O 0.48934 0.57369 0.95058 0.0
H503 H 0.45255 0.5875 0.75961 0.0
H504 H 0.44001 0.60467 0.77573 0.0
C505 C 0.45067 0.59788 0.79299 0.0
H506 H 0.46765 0.61236 0.80464 0.0
H507 H 0.48329 0.58389 0.80157 0.0
O508 O 0.42025 0.55444 0.05018 0.0
C509 C 0.47984 0.55522 0.97897 0.0
Co510 Co 0.55542 0.78833 0.37942 0.0
Co511 Co 0.56731 0.76095 0.45498 0.0
C512 C 0.54274 0.73801 0.34994 0.0
O513 O 0.54498 0.75757 0.33925 0.0
O514 O 0.54909 0.73474 0.39805 0.0
C515 C 0.51636 0.78568 0.34666 0.0
O516 O 0.5089 0.76556 0.36988 0.0
C517 C 0.58106 0.73468 0.52923 0.0
C518 C 0.61031 0.7638 0.57156 0.0
C519 C 0.59874 0.74024 0.5673 0.0
N520 N 0.58257 0.75419 0.51136 0.0
N521 N 0.60007 0.77147 0.53673 0.0
C522 C 0.56223 0.71152 0.51243 0.0
H523 H 0.54763 0.71266 0.49489 0.0
H524 H 0.55639 0.69979 0.54893 0.0
H525 H 0.56861 0.7044 0.47977 0.0
C526 C 0.53904 0.79918 0.48733 0.0
N527 N 0.54735 0.78777 0.45757 0.0
N528 N 0.55064 0.77442 0.49115 0.0
C529 C 0.54372 0.77635 0.54364 0.0
C530 C 0.53576 0.7922 0.54372 0.0
C531 C 0.53714 0.81865 0.46348 0.0
H532 H 0.54911 0.82647 0.42788 0.0
H533 H 0.51948 0.81222 0.44816 0.0
H534 H 0.54109 0.83196 0.49574 0.0
O535 O 0.58898 0.80885 0.36703 0.0
O536 O 0.59556 0.78485 0.41481 0.0
H537 H 0.56094 0.77418 0.61627 0.0
H538 H 0.53021 0.75849 0.62128 0.0
C539 C 0.5449 0.7633 0.5928 0.0
H540 H 0.545 0.74771 0.57855 0.0
H541 H 0.60513 0.7886 0.52984 0.0
O542 O 0.53769 0.79952 0.34278 0.0
C543 C 0.60285 0.80263 0.38441 0.0
Co544 Co 0.24726 0.77177 0.36872 0.0
Co545 Co 0.27451 0.80911 0.44899 0.0
C546 C 0.29804 0.80938 0.34404 0.0
O547 O 0.27834 0.79274 0.33152 0.0
O548 O 0.3012 0.81793 0.39335 0.0
C549 C 0.25168 0.73791 0.32692 0.0
O550 O 0.26756 0.74618 0.36583 0.0
C551 C 0.30226 0.84725 0.52536 0.0
C552 C 0.27469 0.84862 0.5722 0.0
C553 C 0.29813 0.85971 0.56546 0.0
N554 N 0.28209 0.82999 0.50843 0.0
N555 N 0.26571 0.83087 0.53653 0.0
C556 C 0.32472 0.85055 0.50562 0.0
H557 H 0.32266 0.83418 0.48977 0.0
H558 H 0.33746 0.857 0.54008 0.0
H559 H 0.33114 0.86313 0.4709 0.0
C560 C 0.23585 0.74195 0.47328 0.0
N561 N 0.24722 0.76217 0.44559 0.0
N562 N 0.2604 0.77823 0.48083 0.0
C563 C 0.25829 0.7686 0.53225 0.0
C564 C 0.24244 0.74483 0.53015 0.0
C565 C 0.21736 0.72071 0.44635 0.0
H566 H 0.21019 0.72511 0.40972 0.0
H567 H 0.22461 0.71011 0.43144 0.0
H568 H 0.20346 0.71061 0.47663 0.0
O569 O 0.22721 0.78558 0.3594 0.0
O570 O 0.25119 0.81502 0.4108 0.0
H571 H 0.26112 0.78756 0.60634 0.0
H572 H 0.27591 0.77155 0.60976 0.0
C573 C 0.27157 0.78206 0.58223 0.0
H574 H 0.28748 0.79756 0.56881 0.0
H575 H 0.24831 0.8195 0.53064 0.0
O576 O 0.23787 0.7454 0.32204 0.0
C577 C 0.23354 0.80532 0.37956 0.0
Co578 Co 0.26515 0.48231 0.37891 0.0
Co579 Co 0.22719 0.47326 0.45596 0.0
C580 C 0.22926 0.49621 0.34588 0.0
O581 O 0.24635 0.49362 0.33556 0.0
O582 O 0.21986 0.49043 0.39421 0.0
C583 C 0.30256 0.51917 0.34375 0.0
O584 O 0.29098 0.52794 0.36665 0.0
C585 C 0.18347 0.45841 0.51069 0.0
C586 C 0.18882 0.44601 0.5918 0.0
C587 C 0.17265 0.44808 0.5606 0.0
N588 N 0.2051 0.46273 0.51331 0.0
N589 N 0.208 0.45473 0.56119 0.0
C590 C 0.17284 0.46103 0.45823 0.0
H591 H 0.18028 0.45723 0.42116 0.0
H592 H 0.17657 0.47895 0.45481 0.0
H593 H 0.15408 0.44929 0.45797 0.0
C594 C 0.29348 0.49981 0.48598 0.0
N595 N 0.27362 0.49174 0.45671 0.0
N596 N 0.25774 0.49067 0.49006 0.0
C597 C 0.26752 0.49946 0.54097 0.0
C598 C 0.29067 0.50539 0.54074 0.0
C599 C 0.31496 0.50194 0.46227 0.0
H600 H 0.31094 0.48938 0.42806 0.0
H601 H 0.32568 0.51945 0.44548 0.0
H602 H 0.32503 0.49927 0.49497 0.0
O603 O 0.2501 0.44851 0.36993 0.0
O604 O 0.22172 0.44266 0.42606 0.0
H605 H 0.25189 0.48836 0.62123 0.0
H606 H 0.26578 0.51857 0.61066 0.0
C607 C 0.25508 0.50178 0.58999 0.0
H608 H 0.23864 0.50023 0.57661 0.0
H609 H 0.22285 0.45458 0.57226 0.0
O610 O 0.29391 0.49764 0.34114 0.0
C611 C 0.23132 0.43486 0.39392 0.0
H612 H 0.20724 0.17734 0.87228 0.0
H613 H 0.14283 0.1568 0.16934 0.0
H614 H 0.17468 0.11201 0.95519 0.0
H615 H 0.15332 0.21165 0.05946 0.0
H616 H 0.15764 0.14201 0.09612 0.0
H617 H 0.1909 0.19159 0.94259 0.0
C618 C 0.19653 0.16575 0.90464 0.0
C619 C 0.19254 0.1431 0.90631 0.0
C620 C 0.1567 0.15726 0.08771 0.0
C621 C 0.17405 0.16008 0.99008 0.0
C622 C 0.14824 0.16583 0.12987 0.0
C623 C 0.1466 0.18564 0.12136 0.0
C624 C 0.16422 0.16864 0.03593 0.0
C625 C 0.15392 0.19627 0.06848 0.0
C626 C 0.18729 0.17411 0.94547 0.0
C627 C 0.17893 0.12962 0.95155 0.0
N628 N 0.1625 0.18785 0.0285 0.0
N629 N 0.17045 0.13825 0.99113 0.0
H630 H 0.89855 0.08207 0.9808 0.0
H631 H 0.87527 0.95875 0.0855 0.0
H632 H 0.90217 0.03414 0.8685 0.0
H633 H 0.84323 0.9928 0.16501 0.0
H634 H 0.88981 0.98807 1.01232 0.0
H635 H 0.88371 0.05253 0.05455 0.0
C636 C 0.89651 0.06547 0.97156 0.0
C637 C 0.90183 0.06092 0.91758 0.0
C638 C 0.87962 0.98918 0.04584 0.0
C639 C 0.88475 0.02651 1.0034 0.0
C640 C 0.87097 0.97211 0.08796 0.0
C641 C 0.85753 0.97258 0.13283 0.0
C642 C 0.8755 1.00766 0.04811 0.0
C643 C 0.85373 0.99142 0.13292 0.0
C644 C 0.88781 0.04844 1.01387 0.0
C645 C 0.89833 0.03869 0.90891 0.0
N646 N 0.86266 1.008 0.09206 0.0
N647 N 0.89031 0.02261 0.95095 0.0
H648 H 0.03788 0.88713 0.19555 0.0
H649 H 1.00632 0.87253 0.86706 0.0
H650 H 0.0877 0.89992 0.06733 0.0
H651 H 0.95587 0.83396 0.9927 0.0
H652 H 0.03587 0.88704 0.93966 0.0
H653 H 1.00789 0.87213 0.12363 0.0
C654 C 0.04274 0.88675 0.1526 0.0
C655 C 0.06592 0.89487 0.13889 0.0
C656 C 1.01834 0.87539 0.95153 0.0
C657 C 0.03087 0.87815 0.05422 0.0
C658 C 1.00124 0.8668 0.90962 0.0
C659 C 0.97806 0.85136 0.92227 0.0
C660 C 1.01264 0.86921 1.00804 0.0
C661 C 0.97313 0.84582 0.97971 0.0
C662 C 1.02539 0.87825 0.11114 0.0
C663 C 0.07052 0.89442 0.08117 0.0
N664 N 0.99005 0.85468 1.01988 0.0
N665 N 0.05341 0.8864 0.04161 0.0
H666 H 0.76526 0.82621 0.03049 0.0
H667 H 0.81829 0.74894 0.97999 0.0
H668 H 0.78989 0.79907 0.1593 0.0
H669 H 0.81257 0.79428 0.86198 0.0
H670 H 0.78926 0.75031 0.03798 0.0
H671 H 0.76277 0.79716 0.96638 0.0
C672 C 0.77 0.81405 0.04571 0.0
C673 C 0.77964 0.81631 0.09914 0.0
C674 C 0.79369 0.75909 0.99804 0.0
C675 C 0.77685 0.78309 0.02556 0.0
C676 C 0.81033 0.75842 0.96496 0.0
C677 C 0.81851 0.77211 0.91678 0.0
C678 C 0.78535 0.77357 0.98261 0.0
C679 C 0.80717 0.78354 0.89864 0.0
C680 C 0.76837 0.79733 1.00902 0.0
C681 C 0.78436 0.79934 0.11704 0.0
N682 N 0.79152 0.78442 0.93229 0.0
N683 N 0.7836 0.78381 0.07968 0.0
H684 H 0.28217 0.08628 1.01716 0.0
H685 H 0.22555 0.95513 0.06321 0.0
H686 H 0.25798 0.03545 0.88594 0.0
H687 H 0.23208 1.006 0.18313 0.0
H688 H 0.25501 0.98553 1.00607 0.0
H689 H 0.28275 0.05869 0.08121 0.0
C690 C 0.27715 0.06937 1.00146 0.0
C691 C 0.26822 0.0626 0.94721 0.0
C692 C 0.25063 0.98981 0.04619 0.0
C693 C 0.26879 0.03099 1.02059 0.0
C694 C 0.23375 0.97252 0.07875 0.0
C695 C 0.22582 0.978 0.12745 0.0
C696 C 0.25943 1.01262 0.06259 0.0
C697 C 0.23739 1.0007 0.14619 0.0
C698 C 0.27765 0.05367 0.0381 0.0
C699 C 0.26304 0.04083 0.9287 0.0
N700 N 0.25329 1.01723 0.11306 0.0
N701 N 0.26272 0.02549 0.96591 0.0
H702 H 1.01693 0.2254 0.85599 0.0
H703 H 0.04341 0.25321 0.15857 0.0
H704 H 0.96639 0.22173 0.97274 0.0
H705 H 0.09461 0.27443 0.02921 0.0
H706 H 1.0169 0.25361 0.09007 0.0
H707 H 0.0463 0.25593 0.91015 0.0
C708 C 1.01171 0.23155 0.89156 0.0
C709 C 0.98906 0.22041 0.91047 0.0
C710 C 0.03411 0.25866 0.0769 0.0
C711 C 1.02321 0.25438 0.9758 0.0
C712 C 0.0491 0.25788 0.11585 0.0
C713 C 0.07057 0.26187 0.09846 0.0
C714 C 0.04072 0.26321 1.02038 0.0
C715 C 0.07775 0.27001 0.04387 0.0
C716 C 0.02874 0.24903 0.92329 0.0
C717 C 0.98379 0.22926 0.9578 0.0
N718 N 0.06264 0.26978 1.00632 0.0
N719 N 1.00084 0.24517 0.99014 0.0
H720 H 0.85314 0.54742 0.47504 0.0
H721 H 0.83112 0.44198 0.27255 0.0
H722 H 0.78664 0.48804 0.45526 0.0
H723 H 0.88957 0.50923 0.25526 0.0
H724 H 0.81601 0.45675 0.34575 0.0
H725 H 0.86795 0.53249 0.40184 0.0
C726 C 0.84159 0.53122 0.45535 0.0
C727 C 0.81848 0.51912 0.47182 0.0
C728 C 0.83218 0.46832 0.32615 0.0
C729 C 0.83564 0.50143 0.3873 0.0
C730 C 0.84092 0.45982 0.28437 0.0
C731 C 0.86177 0.47426 0.25714 0.0
C732 C 0.84445 0.49154 0.34228 0.0
C733 C 0.87346 0.49733 0.27457 0.0
C734 C 0.8501 0.52266 0.41328 0.0
C735 C 0.80451 0.49815 0.44417 0.0
N736 N 0.86479 0.50512 0.31572 0.0
N737 N 0.81325 0.48998 0.40405 0.0
H738 H 0.59805 0.40348 0.28658 0.0
H739 H 0.49562 0.2811 0.39466 0.0
H740 H 0.53163 0.36932 0.20879 0.0
H741 H 0.55424 0.32459 0.49601 0.0
H742 H 0.50997 0.31094 0.32162 0.0
H743 H 0.58382 0.37358 0.3588 0.0
C744 C 0.58045 0.38987 0.28437 0.0
C745 C 0.5663 0.38937 0.24013 0.0
C746 C 0.51978 0.31398 0.35975 0.0
C747 C 0.54973 0.35397 0.32371 0.0
C748 C 0.51162 0.29676 0.40157 0.0
C749 C 0.52357 0.30002 0.45239 0.0
C750 C 0.5404 0.33482 0.3676 0.0
C751 C 0.54416 0.32109 0.45822 0.0
C752 C 0.57233 0.37254 0.32583 0.0
C753 C 0.54367 0.37059 0.24036 0.0
N754 N 0.55184 0.3374 0.41683 0.0
N755 N 0.53627 0.35386 0.28071 0.0
H756 H 0.70469 0.22051 0.5318 0.0
H757 H 0.67315 0.20412 0.20333 0.0
H758 H 0.75429 0.23214 0.40389 0.0
H759 H 0.62243 0.16645 0.32916 0.0
H760 H 0.7026 0.21887 0.27609 0.0
H761 H 0.6746 0.20515 0.46005 0.0
C762 C 0.70949 0.2198 0.48897 0.0
C763 C 0.73263 0.22774 0.47528 0.0
C764 C 0.68504 0.20737 0.28799 0.0
C765 C 0.69749 0.21059 0.39079 0.0
C766 C 0.66799 0.19863 0.24599 0.0
C767 C 0.64478 0.18334 0.25863 0.0
C768 C 0.67926 0.2015 0.3446 0.0
C769 C 0.63974 0.17815 0.31618 0.0
C770 C 0.69209 0.21109 0.4476 0.0
C771 C 0.73715 0.22683 0.41768 0.0
N772 N 0.65663 0.18714 0.35646 0.0
N773 N 0.72 0.21863 0.37822 0.0
H774 H 0.48332 0.08283 0.30871 0.0
H775 H 0.43108 0.1611 0.36893 0.0
H776 H 0.48258 0.13285 0.19749 0.0
H777 H 0.45413 0.1312 0.49439 0.0
H778 H 0.43092 0.13444 0.30002 0.0
H779 H 0.45448 0.08469 0.36649 0.0
C780 C 0.47648 0.0935 0.29509 0.0
C781 C 0.48585 0.10811 0.24881 0.0
C782 C 0.43555 0.1334 0.34295 0.0
C783 C 0.45295 0.11018 0.31438 0.0
C784 C 0.43579 0.14869 0.38231 0.0
C785 C 0.44413 0.14934 0.43655 0.0
C786 C 0.44389 0.11887 0.35796 0.0
C787 C 0.44917 0.13236 0.45199 0.0
C788 C 0.45998 0.09447 0.32802 0.0
C789 C 0.47606 0.12124 0.23249 0.0
N790 N 0.44957 0.11814 0.41239 0.0
N791 N 0.46047 0.12232 0.26599 0.0
H792 H 0.95062 0.42327 0.34507 0.0
H793 H 0.89337 0.29161 0.39842 0.0
H794 H 0.92712 0.37152 0.21629 0.0
H795 H 0.89594 0.34257 0.51234 0.0
H796 H 0.9228 0.3222 0.34146 0.0
H797 H 0.94888 0.39548 0.41273 0.0
C798 C 0.94544 0.40613 0.33076 0.0
C799 C 0.93751 0.39919 0.27592 0.0
C800 C 0.91753 0.3265 0.38029 0.0
C801 C 0.93553 0.36749 0.35293 0.0
C802 C 0.90068 0.30912 0.4127 0.0
C803 C 0.89184 0.31449 0.45985 0.0
C804 C 0.92541 0.34931 0.39525 0.0
C805 C 0.90216 0.33738 0.47688 0.0
C806 C 0.94456 0.39034 0.36937 0.0
C807 C 0.9318 0.37709 0.25916 0.0
N808 N 0.91811 0.35398 0.44395 0.0
N809 N 0.93031 0.36175 0.29799 0.0
H810 H 0.62651 0.53498 0.33993 0.0
H811 H 0.75875 0.60049 0.37045 0.0
H812 H 0.67351 0.55845 0.20094 0.0
H813 H 0.71188 0.5798 0.50953 0.0
H814 H 0.72846 0.59671 0.30835 0.0
H815 H 0.657 0.56211 0.40087 0.0
C816 C 0.64322 0.54608 0.3221 0.0
C817 C 0.64799 0.54357 0.26628 0.0
C818 C 0.72482 0.59329 0.3526 0.0
C819 C 0.68286 0.57441 0.33547 0.0
C820 C 0.74211 0.5954 0.38805 0.0
C821 C 0.73731 0.58901 0.44441 0.0
C822 C 0.70262 0.58447 0.37381 0.0
C823 C 0.7158 0.58335 0.46551 0.0
C824 C 0.66061 0.5616 0.35685 0.0
C825 C 0.6696 0.55883 0.24471 0.0
N826 N 0.699 0.58061 0.42986 0.0
N827 N 0.68647 0.57326 0.27973 0.0
H828 H 0.54647 0.79803 0.65912 0.0
H829 H 0.48112 0.86609 0.73573 0.0
H830 H 0.50292 0.8057 0.53973 0.0
H831 H 0.48992 0.82486 0.85996 0.0
H832 H 0.49434 0.84949 0.66376 0.0
H833 H 0.53151 0.81248 0.73289 0.0
C834 C 0.53374 0.80254 0.64783 0.0
C835 C 0.52639 0.80058 0.59154 0.0
C836 C 0.49342 0.84408 0.70685 0.0
C837 C 0.50957 0.81835 0.67735 0.0
C838 C 0.48554 0.85345 0.74848 0.0
C839 C 0.48401 0.8471 0.80545 0.0
C840 C 0.50063 0.82845 0.72136 0.0
C841 C 0.49109 0.83103 0.81769 0.0
C842 C 0.52529 0.81106 0.69041 0.0
C843 C 0.51002 0.80742 0.58118 0.0
N844 N 0.49916 0.82257 0.77666 0.0
N845 N 0.50252 0.81611 0.62285 0.0
H846 H 0.1692 0.61642 0.72524 0.0
H847 H 0.23667 0.74926 0.64539 0.0
H848 H 0.21314 0.66724 0.84515 0.0
H849 H 0.22801 0.69809 0.52447 0.0
H850 H 0.22289 0.71994 0.71878 0.0
H851 H 0.18489 0.64565 0.65161 0.0
C852 C 0.1822 0.63352 0.7367 0.0
C853 C 0.18953 0.63879 0.79304 0.0
C854 C 0.22396 0.71512 0.67608 0.0
C855 C 0.20713 0.6733 0.70721 0.0
C856 C 0.23214 0.73206 0.63365 0.0
C857 C 0.23381 0.72673 0.57713 0.0
C858 C 0.2166 0.69213 0.66274 0.0
C859 C 0.22667 0.70347 0.56623 0.0
C860 C 0.19106 0.65041 0.69414 0.0
C861 C 0.20613 0.66193 0.8036 0.0
N862 N 0.21829 0.68726 0.60791 0.0
N863 N 0.21404 0.67809 0.76184 0.0
H864 H 0.31134 0.48374 0.59208 0.0
H865 H 0.39886 0.59035 0.78695 0.0
H866 H 0.31056 0.54694 0.59815 0.0
H867 H 0.39024 0.52303 0.80063 0.0
H868 H 0.36848 0.5759 0.71514 0.0
H869 H 0.34119 0.49841 0.6648 0.0
C870 C 0.31738 0.50072 0.60874 0.0
C871 C 0.30816 0.51398 0.58836 0.0
C872 C 0.37319 0.56423 0.73372 0.0
C873 C 0.34309 0.53132 0.67271 0.0
C874 C 0.39075 0.57256 0.77473 0.0
C875 C 0.39741 0.55801 0.80052 0.0
C876 C 0.36204 0.54106 0.71716 0.0
C877 C 0.38579 0.53499 0.78269 0.0
C878 C 0.33453 0.50915 0.65056 0.0
C879 C 0.31687 0.53591 0.61236 0.0
N880 N 0.36897 0.52737 0.74251 0.0
N881 N 0.33377 0.54385 0.65255 0.0
H882 H 0.09763 0.49939 0.69974 0.0
H883 H 0.14754 0.41872 0.64405 0.0
H884 H 0.11893 0.4688 0.82749 0.0
H885 H 0.14785 0.46873 0.53086 0.0
H886 H 0.11924 0.42172 0.70152 0.0
H887 H 0.09711 0.47222 0.63187 0.0
C888 C 0.1019 0.48675 0.71381 0.0
C889 C 0.10988 0.48733 0.76841 0.0
C890 C 0.12485 0.43124 0.6627 0.0
C891 C 0.10927 0.4563 0.69104 0.0
C892 C 0.14104 0.42963 0.62995 0.0
C893 C 0.15051 0.44383 0.58302 0.0
C894 C 0.1182 0.44716 0.64821 0.0
C895 C 0.14119 0.45732 0.5662 0.0
C896 C 0.10147 0.47117 0.67505 0.0
C897 C 0.11432 0.47002 0.78478 0.0
N898 N 0.12587 0.45898 0.59945 0.0
N899 N 0.11458 0.45553 0.74577 0.0
H900 H 0.59321 0.69784 0.54283 0.0
H901 H 0.56306 0.67013 0.84607 0.0
H902 H 0.61544 0.74875 0.67337 0.0
H903 H 0.55795 0.61939 0.72759 0.0
H904 H 0.59357 0.69935 0.79171 0.0
H905 H 0.59131 0.67022 0.61144 0.0
C906 C 0.59778 0.70322 0.58588 0.0
C907 C 0.60289 0.72505 0.60344 0.0
C908 C 0.58636 0.68177 0.77825 0.0
C909 C 0.60128 0.69388 0.68174 0.0
C910 C 0.56891 0.66483 0.81005 0.0
C911 C 0.55748 0.64216 0.791 0.0
C912 C 0.59153 0.67616 0.72565 0.0
C913 C 0.56581 0.63679 0.74288 0.0
C914 C 0.59712 0.68758 0.62493 0.0
C915 C 0.6104 0.73171 0.65863 0.0
N916 N 0.58183 0.65378 0.71072 0.0
N917 N 0.60873 0.71598 0.6963 0.0
H918 H 0.42471 0.93105 0.69975 0.0
H919 H 0.29372 0.86893 0.67405 0.0
H920 H 0.37926 0.91268 0.84136 0.0
H921 H 0.33965 0.89568 0.53334 0.0
H922 H 0.32423 0.89562 0.73543 0.0
H923 H 0.39496 0.9298 0.64005 0.0
C924 C 0.4085 0.92695 0.71845 0.0
C925 C 0.40382 0.92034 0.77473 0.0
C926 C 0.3276 0.89598 0.69097 0.0
C927 C 0.36967 0.91865 0.70668 0.0
C928 C 0.31018 0.88069 0.65593 0.0
C929 C 0.31473 0.87913 0.59933 0.0
C930 C 0.34967 0.90945 0.66909 0.0
C931 C 0.33598 0.89526 0.57756 0.0
C932 C 0.39152 0.92632 0.68434 0.0
C933 C 0.38294 0.91612 0.79724 0.0
N934 N 0.35294 0.90938 0.6128 0.0
N935 N 0.36633 0.91469 0.76276 0.0
H936 H 0.20485 0.40009 0.46653 0.0
H937 H 0.15528 0.29966 0.24523 0.0
H938 H 0.23181 0.41207 0.29859 0.0
H939 H 0.16841 0.28712 0.41451 0.0
H940 H 0.17729 0.34098 0.26369 0.0
H941 H 0.18545 0.35869 0.4487 0.0
C942 C 0.20671 0.39404 0.42591 0.0
C943 C 0.2201 0.40966 0.38407 0.0
C944 C 0.17539 0.32916 0.29669 0.0
C945 C 0.19738 0.36223 0.36301 0.0
C946 C 0.16277 0.30558 0.28632 0.0
C947 C 0.16002 0.28982 0.32833 0.0
C948 C 0.18479 0.33719 0.35006 0.0
C949 C 0.17019 0.29859 0.38077 0.0
C950 C 0.1957 0.37041 0.4159 0.0
C951 C 0.22185 0.40072 0.33222 0.0
N952 N 0.18182 0.32162 0.39039 0.0
N953 N 0.21038 0.37767 0.3229 0.0
H954 H 0.7426 0.84054 0.29848 0.0
H955 H 0.62938 0.8479 0.35179 0.0
H956 H 0.74595 0.90426 0.34016 0.0
H957 H 0.63335 0.78723 0.38452 0.0
H958 H 0.67074 0.86872 0.33232 0.0
H959 H 0.70125 0.82061 0.31451 0.0
C960 C 0.73467 0.85039 0.31075 0.0
C961 C 0.74795 0.87417 0.31818 0.0
C962 C 0.66248 0.85083 0.34367 0.0
C963 C 0.70027 0.85134 0.3359 0.0
C964 C 0.63885 0.8389 0.35451 0.0
C965 C 0.62774 0.81573 0.36999 0.0
C966 C 0.67508 0.83942 0.34703 0.0
C967 C 0.64106 0.80507 0.37305 0.0
C968 C 0.71103 0.83896 0.32007 0.0
C969 C 0.73652 0.88592 0.33422 0.0
N970 N 0.66384 0.81689 0.36139 0.0
N971 N 0.71341 0.87445 0.3422 0.0
H972 H 0.24963 0.85131 0.38403 0.0
H973 H 0.13008 0.84635 0.34549 0.0
H974 H 0.18828 0.78771 0.34764 0.0
H975 H 0.19423 0.90608 0.30394 0.0
H976 H 0.15019 0.82473 0.35786 0.0
H977 H 0.22889 0.87175 0.36661 0.0
C978 C 0.23176 0.84158 0.37237 0.0
C979 C 0.22076 0.81766 0.36723 0.0
C980 C 0.15981 0.84255 0.34586 0.0
C981 C 0.19667 0.84118 0.34798 0.0
C982 C 0.14837 0.85496 0.33901 0.0
C983 C 0.16042 0.87816 0.3236 0.0
C984 C 0.18361 0.85347 0.33857 0.0
C985 C 0.18415 0.88827 0.31563 0.0
C986 C 0.21995 0.85334 0.36223 0.0
C987 C 0.19754 0.80613 0.35182 0.0
N988 N 0.19493 0.87598 0.32373 0.0
N989 N 0.18623 0.81795 0.34331 0.0
H990 H 0.41192 0.20652 0.58456 0.0
H991 H 0.31166 0.14774 0.80469 0.0
H992 H 0.42512 0.22568 0.75867 0.0
H993 H 0.30002 0.16649 0.64045 0.0
H994 H 0.35315 0.17098 0.78873 0.0
H995 H 0.3708 0.18672 0.60358 0.0
C996 C 0.40616 0.2067 0.62681 0.0
C997 C 0.42206 0.21798 0.66998 0.0
C998 C 0.34147 0.17005 0.75638 0.0
C999 C 0.37478 0.19459 0.69241 0.0
C1000 C 0.31779 0.15669 0.76527 0.0
C1001 C 0.30224 0.15512 0.72385 0.0
C1002 C 0.34974 0.18142 0.70506 0.0
C1003 C 0.31128 0.16722 0.67368 0.0
C1004 C 0.38266 0.19539 0.63758 0.0
C1005 C 0.4135 0.21746 0.72401 0.0
N1006 N 0.33433 0.17955 0.66544 0.0
N1007 N 0.39047 0.20568 0.73389 0.0
H1008 H 0.88064 0.14301 0.63013 0.0
H1009 H 0.81677 0.20511 0.75167 0.0
H1010 H 0.89423 0.16969 0.79859 0.0
H1011 H 0.84412 0.21984 0.58408 0.0
H1012 H 0.83776 0.1847 0.76949 0.0
H1013 H 0.85997 0.16373 0.612 0.0
C1014 C 0.87915 0.15308 0.66345 0.0
C1015 C 0.88924 0.15459 0.71601 0.0
C1016 C 0.83909 0.19236 0.72881 0.0
C1017 C 0.86514 0.17797 0.69574 0.0
C1018 C 0.82703 0.2039 0.71844 0.0
C1019 C 0.82865 0.21425 0.66624 0.0
C1020 C 0.85238 0.19047 0.68618 0.0
C1021 C 0.8424 0.21222 0.62496 0.0
C1022 C 0.86746 0.16499 0.65292 0.0
C1023 C 0.88683 0.16808 0.75742 0.0
N1024 N 0.85349 0.20036 0.63556 0.0
N1025 N 0.87482 0.17899 0.74666 0.0
H1026 H 0.87498 0.73444 0.80464 0.0
H1027 H 0.83163 0.63219 0.58969 0.0
H1028 H 0.90422 0.74538 0.63927 0.0
H1029 H 0.84056 0.62129 0.76358 0.0
H1030 H 0.85307 0.6736 0.6059 0.0
H1031 H 0.85709 0.69295 0.79006 0.0
C1032 C 0.87767 0.72814 0.76526 0.0
C1033 C 0.89122 0.74353 0.72316 0.0
C1034 C 0.85047 0.66216 0.64043 0.0
C1035 C 0.87029 0.69591 0.70583 0.0
C1036 C 0.83819 0.6385 0.6313 0.0
C1037 C 0.83435 0.62315 0.67528 0.0
C1038 C 0.85844 0.67074 0.69441 0.0
C1039 C 0.84326 0.63243 0.72834 0.0
C1040 C 0.86752 0.70445 0.75714 0.0
C1041 C 0.89407 0.73425 0.67303 0.0
N1042 N 0.85456 0.65557 0.73663 0.0
N1043 N 0.88345 0.71113 0.66547 0.0
H1044 H 0.08414 0.58242 0.02492 0.0
H1045 H 0.96946 0.46202 0.05823 0.0
H1046 H 0.07889 0.51786 0.98298 0.0
H1047 H 0.96636 0.52323 0.02661 0.0
H1048 H 1.01065 0.48346 0.0436 0.0
H1049 H 0.04231 0.56245 0.03839 0.0
C1050 C 0.07429 0.56409 1.01888 0.0
C1051 C 0.0852 0.55187 1.00281 0.0
C1052 C 1.00103 0.49227 0.03965 0.0
C1053 C 0.03736 0.52892 1.01861 0.0
C1054 C 0.97741 0.48001 0.04811 0.0
C1055 C 0.96421 0.49072 0.04345 0.0
C1056 C 1.01199 0.51571 0.02739 0.0
C1057 C 0.97574 0.51417 0.0302 0.0
C1058 C 0.0504 0.55274 0.02621 0.0
C1059 C 0.0714 0.52812 0.99523 0.0
N1060 N 0.99896 0.52593 1.02311 0.0
N1061 N 0.04842 0.51751 1.00356 0.0
H1062 H 0.46146 0.50989 1.00848 0.0
H1063 H 0.58115 0.5158 0.05412 0.0
H1064 H 0.52563 0.56985 0.96836 0.0
H1065 H 0.5204 0.45202 1.0152 0.0
H1066 H 0.56027 0.536 0.03521 0.0
H1067 H 0.48176 0.48857 1.02294 0.0
C1068 C 0.4798 0.51861 1.00273 0.0
C1069 C 0.49179 0.54179 0.98708 0.0
C1070 C 0.55149 0.51759 0.03066 0.0
C1071 C 0.51521 0.51744 1.00453 0.0
C1072 C 0.56338 0.50598 0.04167 0.0
C1073 C 0.5526 0.48207 0.03622 0.0
C1074 C 0.52835 0.50532 1.01517 0.0
C1075 C 0.5295 0.47042 1.01972 0.0
C1076 C 0.49135 0.50637 1.01079 0.0
C1077 C 0.51559 0.55205 0.98014 0.0
N1078 N 0.51811 0.4821 1.01034 0.0
N1079 N 0.52647 0.53993 0.98944 0.0
H1080 H 0.58748 0.07452 0.03582 0.0
H1081 H 0.46879 0.95988 0.98288 0.0
H1082 H 0.52238 0.06933 0.06937 0.0
H1083 H 0.52956 0.9577 0.02687 0.0
H1084 H 0.48922 1.00106 1.00094 0.0
H1085 H 0.56775 0.03298 1.01946 0.0
C1086 C 0.56907 0.06471 0.03962 0.0
C1087 C 0.55664 0.07558 0.05413 0.0
C1088 C 0.49811 0.99159 1.0067 0.0
C1089 C 0.53389 0.02796 0.03456 0.0
C1090 C 0.48647 0.96803 0.99618 0.0
C1091 C 0.49738 0.95511 1.00343 0.0
C1092 C 0.5211 1.0027 1.02355 0.0
C1093 C 0.52036 0.96683 1.02095 0.0
C1094 C 0.55783 0.04097 0.0305 0.0
C1095 C 0.53276 0.06182 0.05857 0.0
N1096 N 0.53149 0.98993 0.02994 0.0
N1097 N 0.52222 0.0389 0.04837 0.0
H1098 H 0.14188 0.14379 0.38181 0.0
H1099 H 0.23617 0.18592 0.59634 0.0
H1100 H 0.18883 0.21607 0.40368 0.0
H1101 H 0.21852 0.12426 0.5045 0.0
H1102 H 0.22154 0.19857 0.51936 0.0
H1103 H 0.17108 0.13604 0.41934 0.0
C1104 C 0.15833 0.15796 0.39405 0.0
C1105 C 0.16267 0.18048 0.39193 0.0
C1106 C 0.22141 0.18255 0.51519 0.0
C1107 C 0.19591 0.1719 0.43321 0.0
C1108 C 0.22961 0.17535 0.55918 0.0
C1109 C 0.22802 0.15401 0.55636 0.0
C1110 C 0.21077 0.16776 0.46972 0.0
C1111 C 0.2197 0.14081 0.50767 0.0
C1112 C 0.17505 0.15359 0.41452 0.0
C1113 C 0.18445 0.19835 0.40662 0.0
N1114 N 0.21061 0.14759 0.4665 0.0
N1115 N 0.20015 0.19364 0.42761 0.0
H1116 H 0.85542 0.05263 0.62509 0.0
H1117 H 0.82201 0.9268 0.53955 0.0
H1118 H 0.89502 0.02073 0.6692 0.0
H1119 H 0.81285 0.97416 0.43699 0.0
H1120 H 0.83408 0.9541 0.61764 0.0
H1121 H 0.82559 1.01631 0.58841 0.0
C1122 C 0.8578 0.03795 0.62742 0.0
C1123 C 0.8781 0.0398 0.64808 0.0
C1124 C 0.82866 0.95806 0.57855 0.0
C1125 C 0.84389 0.99839 0.6073 0.0
C1126 C 0.82188 0.94265 0.53426 0.0
C1127 C 0.8172 0.94884 0.48205 0.0
C1128 C 0.83023 0.97929 0.57 0.0
C1129 C 0.81699 0.96927 0.4766 0.0
C1130 C 0.84063 1.01724 0.60719 0.0
C1131 C 0.87994 0.02012 0.65175 0.0
N1132 N 0.82375 0.98401 0.52013 0.0
N1133 N 0.86312 1.00016 0.63043 0.0
H1134 H 0.06076 0.92883 0.428 0.0
H1135 H 1.00741 0.84746 0.68327 0.0
H1136 H 0.08031 0.88084 0.4888 0.0
H1137 H 0.98637 0.89519 0.63042 0.0
H1138 H 0.04295 0.86934 0.6326 0.0
H1139 H 0.04145 0.92549 0.51718 0.0
C1140 C 0.06101 0.91767 0.46019 0.0
C1141 C 0.07121 0.90434 0.45052 0.0
C1142 C 0.0308 0.87535 0.63261 0.0
C1143 C 0.04991 0.9009 0.55211 0.0
C1144 C 1.01051 0.8628 0.66141 0.0
C1145 C 0.99386 0.86923 0.6589 0.0
C1146 C 0.03375 0.89365 0.5989 0.0
C1147 C 0.99876 0.8895 0.63172 0.0
C1148 C 0.05029 0.916 0.51117 0.0
C1149 C 0.0718 0.89071 0.4938 0.0
N1150 N 1.0181 0.9007 0.60095 0.0
N1151 N 0.06104 0.88915 0.54252 0.0
H1152 H 0.86645 0.84518 0.68662 0.0
H1153 H 0.85635 0.85971 0.35216 0.0
H1154 H 0.90658 0.83296 0.56615 0.0
H1155 H 0.83703 0.89365 0.47508 0.0
H1156 H 0.87106 0.84593 0.4286 0.0
H1157 H 0.85191 0.85897 0.60998 0.0
C1158 C 0.87226 0.84531 0.64427 0.0
C1159 C 0.88805 0.83785 0.63387 0.0
C1160 C 0.8636 0.8564 0.43891 0.0
C1161 C 0.87084 0.85348 0.54422 0.0
C1162 C 0.8551 0.8643 0.39497 0.0
C1163 C 0.84537 0.87814 0.40617 0.0
C1164 C 0.86207 0.86181 0.49543 0.0
C1165 C 0.84441 0.88325 0.4634 0.0
C1166 C 0.86391 0.85327 0.60021 0.0
C1167 C 0.89464 0.83857 0.57719 0.0
N1168 N 0.85239 0.87506 0.50519 0.0
N1169 N 0.88599 0.84598 0.53514 0.0
H1170 H 0.14454 0.94882 0.48566 0.0
H1171 H 0.21086 0.08228 0.57007 0.0
H1172 H 0.17975 1.00245 0.36461 0.0
H1173 H 0.19637 0.02982 0.69211 0.0
H1174 H 0.1964 0.0533 0.49607 0.0
H1175 H 0.15986 0.97745 0.56113 0.0
C1176 C 0.15544 0.9666 0.47454 0.0
C1177 C 0.16067 0.97287 0.4176 0.0
C1178 C 0.19633 0.04799 0.5389 0.0
C1179 C 0.17836 1.0064 0.50577 0.0
C1180 C 0.20458 0.06466 0.58179 0.0
C1181 C 0.20502 0.05889 0.6386 0.0
C1182 C 0.1878 0.0248 0.5517 0.0
C1183 C 0.19656 0.03544 0.64957 0.0
C1184 C 0.16429 0.98303 0.51816 0.0
C1185 C 0.17507 0.99645 0.40721 0.0
N1186 N 0.18823 0.01944 0.60702 0.0
N1187 N 0.18313 1.01214 0.45032 0.0
H1188 H 1.00955 0.16846 0.68271 0.0
H1189 H 0.03569 0.18387 0.34972 0.0
H1190 H 0.95721 0.13053 0.56012 0.0
H1191 H 0.08765 0.19746 0.47274 0.0
H1192 H 1.00673 0.16844 0.42505 0.0
H1193 H 0.03809 0.18323 0.60678 0.0
C1194 C 1.00394 0.16314 0.64003 0.0
C1195 C 0.98063 0.14789 0.62879 0.0
C1196 C 1.02448 0.1748 0.43557 0.0
C1197 C 1.0137 0.16548 0.54001 0.0
C1198 C 0.04114 0.1837 0.39231 0.0
C1199 C 0.06448 0.19203 0.40392 0.0
C1200 C 0.03098 0.17458 0.49181 0.0
C1201 C 0.07006 0.1912 0.46078 0.0
C1202 C 1.02036 0.17164 0.59639 0.0
C1203 C 0.97482 0.14198 0.57175 0.0
N1204 N 0.0537 0.18293 0.50196 0.0
N1205 N 0.991 0.15082 0.53007 0.0
H1206 H 0.79535 0.46976 0.70636 0.0
H1207 H 0.81532 0.46063 0.03117 0.0
H1208 H 0.7993 0.51716 0.83302 0.0
H1209 H 0.85064 0.44743 0.89902 0.0
H1210 H 0.79122 0.46486 0.96024 0.0
H1211 H 0.79773 0.44567 0.78047 0.0
C1212 C 0.79631 0.47477 0.74987 0.0
C1213 C 0.79803 0.49562 0.76432 0.0
C1214 C 0.80378 0.46032 0.9472 0.0
C1215 C 0.79967 0.46821 0.84777 0.0
C1216 C 0.81752 0.45812 0.98726 0.0
C1217 C 0.83517 0.45451 0.96982 0.0
C1218 C 0.80781 0.45852 0.89023 0.0
C1219 C 0.83746 0.45093 0.91315 0.0
C1220 C 0.79741 0.46104 0.79177 0.0
C1221 C 0.79877 0.50146 0.82075 0.0
N1222 N 0.82405 0.45332 0.87491 0.0
N1223 N 0.79981 0.48787 0.86071 0.0
H1224 H 0.60834 0.38365 0.95329 0.0
H1225 H 0.53239 0.33378 0.68994 0.0
H1226 H 0.56784 0.40938 0.87667 0.0
H1227 H 0.57521 0.30836 0.75345 0.0
H1228 H 0.55598 0.36964 0.73793 0.0
H1229 H 0.60647 0.36386 0.86558 0.0
C1230 C 0.59924 0.38524 0.91779 0.0
C1231 C 0.58724 0.39707 0.92254 0.0
C1232 C 0.56058 0.35645 0.74089 0.0
C1233 C 0.58547 0.37524 0.82281 0.0
C1234 C 0.54704 0.33596 0.71352 0.0
C1235 C 0.55159 0.31807 0.71958 0.0
C1236 C 0.57785 0.35842 0.77716 0.0
C1237 C 0.57098 0.32178 0.74928 0.0
C1238 C 0.59839 0.37422 0.86772 0.0
C1239 C 0.57637 0.39944 0.87531 0.0
N1240 N 0.58308 0.34141 0.77884 0.0
N1241 N 0.5755 0.38834 0.82757 0.0
H1242 H 0.67554 0.17987 1.02002 0.0
H1243 H 0.72654 0.26226 0.7668 0.0
H1244 H 0.65324 0.227 0.97071 0.0
H1245 H 0.74893 0.21634 0.82667 0.0
H1246 H 0.70757 0.25844 0.85672 0.0
H1247 H 0.71108 0.20279 0.96997 0.0
C1248 C 0.67836 0.19528 0.99904 0.0
C1249 C 0.66136 0.20124 0.99723 0.0
C1250 C 0.71697 0.24952 0.85037 0.0
C1251 C 0.70125 0.22689 0.93809 0.0
C1252 C 0.72749 0.25146 0.79896 0.0
C1253 C 0.73834 0.23877 0.78878 0.0
C1254 C 0.71739 0.23478 0.8912 0.0
C1255 C 0.73986 0.22564 0.83204 0.0
C1256 C 0.69864 0.20844 0.97067 0.0
C1257 C 0.66589 0.22164 0.97137 0.0
N1258 N 0.72923 0.22378 0.88117 0.0
N1259 N 0.68525 0.23347 0.94097 0.0
H1260 H 0.57377 0.16222 0.89948 0.0
H1261 H 0.50969 0.23045 0.80768 0.0
H1262 H 0.5373 0.18045 1.0174 0.0
H1263 H 0.52188 0.18957 0.6893 0.0
H1264 H 0.52345 0.21595 0.8833 0.0
H1265 H 0.55901 0.1754 0.8225 0.0
C1266 C 0.56274 0.16907 0.90958 0.0
C1267 C 0.55698 0.17011 0.96606 0.0
C1268 C 0.52316 0.21007 0.84091 0.0
C1269 C 0.53995 0.18575 0.87628 0.0
C1270 C 0.51532 0.21846 0.79715 0.0
C1271 C 0.51445 0.21141 0.74093 0.0
C1272 C 0.53089 0.19464 0.82949 0.0
C1273 C 0.52204 0.19563 0.73138 0.0
C1274 C 0.5542 0.17655 0.86513 0.0
C1275 C 0.54239 0.17917 0.97518 0.0
N1276 N 0.53006 0.18804 0.77471 0.0
N1277 N 0.53467 0.18673 0.93132 0.0
H1278 H 0.87698 0.4174 0.90508 0.0
H1279 H 0.8107 0.28431 0.81915 0.0
H1280 H 0.86262 0.36436 0.02525 0.0
H1281 H 0.84692 0.33762 0.69787 0.0
H1282 H 0.82594 0.31296 0.89426 0.0
H1283 H 0.86283 0.38874 0.83001 0.0
C1284 C 0.87083 0.39973 0.9161 0.0
C1285 C 0.8712 0.39365 0.97263 0.0
C1286 C 0.83062 0.31849 0.85133 0.0
C1287 C 0.85434 0.36004 0.88488 0.0
C1288 C 0.8218 0.30204 0.8079 0.0
C1289 C 0.82734 0.30821 0.75104 0.0
C1290 C 0.84496 0.34177 0.83884 0.0
C1291 C 0.84201 0.33173 0.74047 0.0
C1292 C 0.86275 0.38327 0.87269 0.0
C1293 C 0.86288 0.37019 0.9829 0.0
N1294 N 0.85004 0.34747 0.78346 0.0
N1295 N 0.8547 0.35442 0.93996 0.0
H1296 H 0.67778 0.5043 1.0238 0.0
H1297 H 0.70703 0.52189 0.69182 0.0
H1298 H 0.6264 0.47001 0.89669 0.0
H1299 H 0.75765 0.53405 0.81757 0.0
H1300 H 0.67749 0.50709 0.76575 0.0
H1301 H 0.70719 0.51946 0.94969 0.0
C1302 C 0.67256 0.49997 0.98052 0.0
C1303 C 0.64926 0.48562 0.96737 0.0
C1304 C 0.69508 0.51303 0.7772 0.0
C1305 C 0.6833 0.5035 0.88093 0.0
C1306 C 0.71206 0.52158 0.73475 0.0
C1307 C 0.73518 0.52932 0.74756 0.0
C1308 C 0.70103 0.51252 0.8338 0.0
C1309 C 0.74024 0.52829 0.80476 0.0
C1310 C 0.68947 0.50864 0.93795 0.0
C1311 C 0.64396 0.48083 0.90972 0.0
N1312 N 0.72356 0.52031 0.84514 0.0
N1313 N 0.66061 0.48975 0.86925 0.0
H1314 H 0.47484 0.75825 0.29853 0.0
H1315 H 0.48332 0.86873 0.16654 0.0
H1316 H 0.52159 0.82792 0.34714 0.0
H1317 H 0.44974 0.80236 0.08747 0.0
H1318 H 0.48389 0.85097 0.25454 0.0
H1319 H 0.4528 0.77153 0.24453 0.0
C1320 C 0.48004 0.77623 0.29898 0.0
C1321 C 0.50036 0.79224 0.32513 0.0
C1322 C 0.47618 0.84022 0.21812 0.0
C1323 C 0.47547 0.80729 0.26504 0.0
C1324 C 0.47617 0.85037 0.16779 0.0
C1325 C 0.46748 0.83698 0.11949 0.0
C1326 C 0.46812 0.81667 0.21955 0.0
C1327 C 0.45733 0.81323 0.12371 0.0
C1328 C 0.46749 0.78376 0.26846 0.0
C1329 C 0.50636 0.81522 0.32575 0.0
N1330 N 0.45846 0.80378 0.17284 0.0
N1331 N 0.49411 0.82214 0.29528 0.0
H1332 H 0.25059 0.74334 0.21565 0.0
H1333 H 0.19566 0.62113 0.15257 0.0
H1334 H 0.25564 0.70015 0.34097 0.0
H1335 H 0.23623 0.66812 1.02244 0.0
H1336 H 0.22007 0.64887 0.22309 0.0
H1337 H 0.24847 0.71693 0.14296 0.0
C1338 C 0.25139 0.72828 0.22751 0.0
C1339 C 0.25248 0.72323 0.28377 0.0
C1340 C 0.22408 0.65287 0.17914 0.0
C1341 C 0.25011 0.69327 0.20186 0.0
C1342 C 0.21 0.63727 0.13921 0.0
C1343 C 0.21381 0.64297 0.0825 0.0
C1344 C 0.24135 0.67447 0.16172 0.0
C1345 C 0.23272 0.66361 0.06629 0.0
C1346 C 0.25064 0.71351 0.1862 0.0
C1347 C 0.25425 0.70409 0.29767 0.0
N1348 N 0.24552 0.67911 0.10605 0.0
N1349 N 0.25227 0.68925 0.25682 0.0
H1350 H 0.31975 0.56204 0.30112 0.0
H1351 H 0.41557 0.54712 0.15413 0.0
H1352 H 0.3371 0.51006 0.33826 0.0
H1353 H 0.38916 0.58911 0.09003 0.0
H1354 H 0.39718 0.54455 0.2433 0.0
H1355 H 0.35518 0.5828 0.24723 0.0
C1356 C 0.33132 0.55533 0.29892 0.0
C1357 C 0.32534 0.534 0.32175 0.0
C1358 C 0.39555 0.55449 0.20993 0.0
C1359 C 0.36539 0.5574 0.26155 0.0
C1360 C 0.40573 0.55568 0.15882 0.0
C1361 C 0.40292 0.5675 0.11424 0.0
C1362 C 0.38196 0.56465 0.21582 0.0
C1363 C 0.391 0.57921 0.12314 0.0
C1364 C 0.35146 0.56715 0.26845 0.0
C1365 C 0.34086 0.52611 0.31919 0.0
N1366 N 0.38043 0.57705 0.17283 0.0
N1367 N 0.3601 0.53767 0.28865 0.0
H1368 H 0.19925 0.51336 0.35324 0.0
H1369 H 0.18686 0.52632 1.01947 0.0
H1370 H 0.2377 0.49933 0.23159 0.0
H1371 H 0.17127 0.56319 0.14251 0.0
H1372 H 0.20134 0.51209 0.09546 0.0
H1373 H 0.1848 0.52739 0.27696 0.0
C1374 C 0.2047 0.51316 0.3107 0.0
C1375 C 0.22 0.50514 0.29979 0.0
C1376 C 0.19471 0.52328 0.10586 0.0
C1377 C 0.20288 0.52097 0.21069 0.0
C1378 C 0.18634 0.53141 0.06223 0.0
C1379 C 0.17773 0.5462 0.07367 0.0
C1380 C 0.19416 0.52943 0.16226 0.0
C1381 C 0.17772 0.552 0.13074 0.0
C1382 C 0.19641 0.52124 0.26687 0.0
C1383 C 0.22616 0.50541 0.24294 0.0
N1384 N 0.18554 0.54358 0.17225 0.0
N1385 N 0.21756 0.51293 0.20111 0.0
H1386 H 0.52618 0.69086 0.3576 0.0
H1387 H 0.50966 0.66562 1.02387 0.0
H1388 H 0.53818 0.74285 0.23627 0.0
H1389 H 0.47572 0.61243 0.14668 0.0
H1390 H 0.52404 0.69407 0.10024 0.0
H1391 H 0.51157 0.66217 0.28156 0.0
C1392 C 0.52582 0.69637 0.3152 0.0
C1393 C 0.53348 0.71962 0.30428 0.0
C1394 C 0.51345 0.67617 0.11057 0.0
C1395 C 0.51692 0.68644 0.21554 0.0
C1396 C 0.50521 0.6598 0.06669 0.0
C1397 C 0.49122 0.63627 0.07792 0.0
C1398 C 0.50822 0.66926 0.16706 0.0
C1399 C 0.48628 0.63019 0.1351 0.0
C1400 C 0.51739 0.67987 0.27153 0.0
C1401 C 0.53245 0.72531 0.24766 0.0
N1402 N 0.49479 0.64636 0.17693 0.0
N1403 N 0.52459 0.70908 0.20602 0.0
H1404 H 0.34526 0.83888 0.35489 0.0
H1405 H 0.37351 0.85098 1.0225 0.0
H1406 H 0.29392 0.80166 0.22957 0.0
H1407 H 0.42514 0.86755 0.1486 0.0
H1408 H 0.34428 0.8367 0.09696 0.0
H1409 H 0.37457 0.85324 0.28053 0.0
C1410 C 0.34003 0.8337 0.31195 0.0
C1411 C 0.31677 0.8188 0.29939 0.0
C1412 C 0.36201 0.84348 0.10841 0.0
C1413 C 0.35068 0.83574 0.21263 0.0
C1414 C 0.37883 0.85173 0.06564 0.0
C1415 C 0.40215 0.86058 0.07839 0.0
C1416 C 0.36829 0.84435 0.16526 0.0
C1417 C 0.40756 0.86091 0.13586 0.0
C1418 C 0.35688 0.84193 0.26925 0.0
C1419 C 0.31145 0.81294 0.24217 0.0
N1420 N 0.391 0.85316 0.17656 0.0
N1421 N 0.32803 0.82143 0.20152 0.0
loop_
_geom_bond_atom_site_label_1
_geom_bond_atom_site_label_2
_geom_bond_distance
_geom_bond_site_symmetry_2
_ccdc_geom_bond_type
Co0 O3 1.970 . S
Co0 N17 1.989 . S
Co0 O25 1.967 . S
Co0 O32 1.920 . S
Co1 O4 1.966 . S
Co1 N10 2.022 . S
Co1 N18 1.993 . S
Co1 O26 1.941 . S
C2 O3 1.258 . S
C2 O4 1.263 . S
O3 Co0 1.970 . S
O3 C2 1.258 . S
O4 Co1 1.966 . S
O4 C2 1.263 . S
C5 O6 1.235 . S
C5 O32 1.289 . S
O6 C5 1.235 . S
C7 C9 1.400 . S
C7 N10 1.351 . S
C7 C12 1.501 . S
C8 C9 1.387 . S
C8 N11 1.341 . S
C9 C7 1.400 . S
C9 C8 1.387 . S
N10 Co1 2.022 . S
N10 C7 1.351 . S
N10 N11 1.365 . S
N11 C8 1.341 . S
N11 N10 1.365 . S
N11 H31 0.862 . S
C12 C7 1.501 . S
C12 H13 0.961 . S
C12 H14 0.961 . S
C12 H15 0.960 . S
H13 C12 0.961 . S
H14 C12 0.961 . S
H15 C12 0.960 . S
C16 N17 1.342 . S
C16 C20 1.401 . S
C16 C21 1.499 . S
N17 Co0 1.989 . S
N17 C16 1.342 . S
N17 N18 1.388 . S
N18 Co1 1.993 . S
N18 N17 1.388 . S
N18 C19 1.346 . S
C19 N18 1.346 . S
C19 C20 1.396 . S
C19 C29 1.510 . S
C20 C16 1.401 . S
C20 C19 1.396 . S
C21 C16 1.499 . S
C21 H22 0.959 . S
C21 H23 0.960 . S
C21 H24 0.961 . S
H22 C21 0.959 . S
H23 C21 0.960 . S
H24 C21 0.961 . S
O25 Co0 1.967 . S
O25 C33 1.258 . S
O26 Co1 1.941 . S
O26 C33 1.266 . S
H27 C29 0.959 . S
H28 C29 0.961 . S
C29 C19 1.510 . S
C29 H27 0.959 . S
C29 H28 0.961 . S
C29 H30 0.960 . S
H30 C29 0.960 . S
H31 N11 0.862 . S
O32 Co0 1.920 . S
O32 C5 1.289 . S
C33 O25 1.258 . S
C33 O26 1.266 . S
Co34 O37 1.970 . S
Co34 N51 1.989 . S
Co34 O59 1.967 . S
Co34 O66 1.920 . S
Co35 O38 1.966 . S
Co35 N44 2.022 . S
Co35 N52 1.993 . S
Co35 O60 1.941 . S
C36 O37 1.258 . S
C36 O38 1.263 . S
O37 Co34 1.970 . S
O37 C36 1.258 . S
O38 Co35 1.966 . S
O38 C36 1.263 . S
C39 O40 1.235 . S
C39 O66 1.289 . S
O40 C39 1.235 . S
C41 C43 1.400 . S
C41 N44 1.351 . S
C41 C46 1.501 . S
C42 C43 1.387 . S
C42 N45 1.341 . S
C43 C41 1.400 . S
C43 C42 1.387 . S
N44 Co35 2.022 . S
N44 C41 1.351 . S
N44 N45 1.365 . S
N45 C42 1.341 . S
N45 N44 1.365 . S
N45 H65 0.862 . S
C46 C41 1.501 . S
C46 H47 0.961 . S
C46 H48 0.961 . S
C46 H49 0.960 . S
H47 C46 0.961 . S
H48 C46 0.961 . S
H49 C46 0.960 . S
C50 N51 1.342 . S
C50 C54 1.401 . S
C50 C55 1.499 . S
N51 Co34 1.989 . S
N51 C50 1.342 . S
N51 N52 1.388 . S
N52 Co35 1.993 . S
N52 N51 1.388 . S
N52 C53 1.346 . S
C53 N52 1.346 . S
C53 C54 1.396 . S
C53 C63 1.510 . S
C54 C50 1.401 . S
C54 C53 1.396 . S
C55 C50 1.499 . S
C55 H56 0.959 . S
C55 H57 0.960 . S
C55 H58 0.961 . S
H56 C55 0.959 . S
H57 C55 0.960 . S
H58 C55 0.961 . S
O59 Co34 1.967 . S
O59 C67 1.258 . S
O60 Co35 1.941 . S
O60 C67 1.266 . S
H61 C63 0.959 . S
H62 C63 0.961 . S
C63 C53 1.510 . S
C63 H61 0.959 . S
C63 H62 0.961 . S
C63 H64 0.960 . S
H64 C63 0.960 . S
H65 N45 0.862 . S
O66 Co34 1.920 . S
O66 C39 1.289 . S
C67 O59 1.258 . S
C67 O60 1.266 . S
Co68 O71 1.970 . S
Co68 N85 1.989 . S
Co68 O93 1.967 . S
Co68 O100 1.920 . S
Co69 O72 1.966 . S
Co69 N78 2.022 . S
Co69 N86 1.993 . S
Co69 O94 1.941 . S
C70 O71 1.258 . S
C70 O72 1.263 . S
O71 Co68 1.970 . S
O71 C70 1.258 . S
O72 Co69 1.966 . S
O72 C70 1.263 . S
C73 O74 1.235 . S
C73 O100 1.289 . S
O74 C73 1.235 . S
C75 C77 1.400 . S
C75 N78 1.351 . S
C75 C80 1.501 . S
C76 C77 1.387 . S
C76 N79 1.341 . S
C77 C75 1.400 . S
C77 C76 1.387 . S
N78 Co69 2.022 . S
N78 C75 1.351 . S
N78 N79 1.365 . S
N79 C76 1.341 . S
N79 N78 1.365 . S
N79 H99 0.862 . S
C80 C75 1.501 . S
C80 H81 0.961 . S
C80 H82 0.961 . S
C80 H83 0.960 . S
H81 C80 0.961 . S
H82 C80 0.961 . S
H83 C80 0.960 . S
C84 N85 1.342 . S
C84 C88 1.401 . S
C84 C89 1.499 . S
N85 Co68 1.989 . S
N85 C84 1.342 . S
N85 N86 1.388 . S
N86 Co69 1.993 . S
N86 N85 1.388 . S
N86 C87 1.346 . S
C87 N86 1.346 . S
C87 C88 1.396 . S
C87 C97 1.510 . S
C88 C84 1.401 . S
C88 C87 1.396 . S
C89 C84 1.499 . S
C89 H90 0.959 . S
C89 H91 0.960 . S
C89 H92 0.961 . S
H90 C89 0.959 . S
H91 C89 0.960 . S
H92 C89 0.961 . S
O93 Co68 1.967 . S
O93 C101 1.258 . S
O94 Co69 1.941 . S
O94 C101 1.266 . S
H95 C97 0.959 . S
H96 C97 0.961 . S
C97 C87 1.510 . S
C97 H95 0.959 . S
C97 H96 0.961 . S
C97 H98 0.960 . S
H98 C97 0.960 . S
H99 N79 0.862 . S
O100 Co68 1.920 . S
O100 C73 1.289 . S
C101 O93 1.258 . S
C101 O94 1.266 . S
Co102 O105 1.970 . S
Co102 N119 1.989 . S
Co102 O127 1.967 . S
Co102 O134 1.920 . S
Co103 O106 1.966 . S
Co103 N112 2.022 . S
Co103 N120 1.993 . S
Co103 O128 1.941 . S
C104 O105 1.258 . S
C104 O106 1.263 . S
O105 Co102 1.970 . S
O105 C104 1.258 . S
O106 Co103 1.966 . S
O106 C104 1.263 . S
C107 O108 1.235 . S
C107 O134 1.289 . S
O108 C107 1.235 . S
C109 C111 1.400 . S
C109 N112 1.351 . S
C109 C114 1.501 . S
C110 C111 1.387 . S
C110 N113 1.341 . S
C111 C109 1.400 . S
C111 C110 1.387 . S
N112 Co103 2.022 . S
N112 C109 1.351 . S
N112 N113 1.365 . S
N113 C110 1.341 . S
N113 N112 1.365 . S
N113 H133 0.862 . S
C114 C109 1.501 . S
C114 H115 0.961 . S
C114 H116 0.961 . S
C114 H117 0.960 . S
H115 C114 0.961 . S
H116 C114 0.961 . S
H117 C114 0.960 . S
C118 N119 1.342 . S
C118 C122 1.401 . S
C118 C123 1.499 . S
N119 Co102 1.989 . S
N119 C118 1.342 . S
N119 N120 1.388 . S
N120 Co103 1.993 . S
N120 N119 1.388 . S
N120 C121 1.346 . S
C121 N120 1.346 . S
C121 C122 1.396 . S
C121 C131 1.510 . S
C122 C118 1.401 . S
C122 C121 1.396 . S
C123 C118 1.499 . S
C123 H124 0.959 . S
C123 H125 0.960 . S
C123 H126 0.961 . S
H124 C123 0.959 . S
H125 C123 0.960 . S
H126 C123 0.961 . S
O127 Co102 1.967 . S
O127 C135 1.258 . S
O128 Co103 1.941 . S
O128 C135 1.266 . S
H129 C131 0.959 . S
H130 C131 0.961 . S
C131 C121 1.510 . S
C131 H129 0.959 . S
C131 H130 0.961 . S
C131 H132 0.960 . S
H132 C131 0.960 . S
H133 N113 0.862 . S
O134 Co102 1.920 . S
O134 C107 1.289 . S
C135 O127 1.258 . S
C135 O128 1.266 . S
Co136 O139 1.970 . S
Co136 N153 1.989 . S
Co136 O161 1.967 . S
Co136 O168 1.920 . S
Co137 O140 1.966 . S
Co137 N146 2.022 . S
Co137 N154 1.993 . S
Co137 O162 1.941 . S
C138 O139 1.258 . S
C138 O140 1.263 . S
O139 Co136 1.970 . S
O139 C138 1.258 . S
O140 Co137 1.966 . S
O140 C138 1.263 . S
C141 O142 1.235 . S
C141 O168 1.289 . S
O142 C141 1.235 . S
C143 C145 1.400 . S
C143 N146 1.351 . S
C143 C148 1.501 . S
C144 C145 1.387 . S
C144 N147 1.341 . S
C145 C143 1.400 . S
C145 C144 1.387 . S
N146 Co137 2.022 . S
N146 C143 1.351 . S
N146 N147 1.365 . S
N147 C144 1.341 . S
N147 N146 1.365 . S
N147 H167 0.862 . S
C148 C143 1.501 . S
C148 H149 0.961 . S
C148 H150 0.961 . S
C148 H151 0.960 . S
H149 C148 0.961 . S
H150 C148 0.961 . S
H151 C148 0.960 . S
C152 N153 1.342 . S
C152 C156 1.401 . S
C152 C157 1.499 . S
N153 Co136 1.989 . S
N153 C152 1.342 . S
N153 N154 1.388 . S
N154 Co137 1.993 . S
N154 N153 1.388 . S
N154 C155 1.346 . S
C155 N154 1.346 . S
C155 C156 1.396 . S
C155 C165 1.510 . S
C156 C152 1.401 . S
C156 C155 1.396 . S
C157 C152 1.499 . S
C157 H158 0.959 . S
C157 H159 0.960 . S
C157 H160 0.961 . S
H158 C157 0.959 . S
H159 C157 0.960 . S
H160 C157 0.961 . S
O161 Co136 1.967 . S
O161 C169 1.258 . S
O162 Co137 1.941 . S
O162 C169 1.266 . S
H163 C165 0.959 . S
H164 C165 0.961 . S
C165 C155 1.510 . S
C165 H163 0.959 . S
C165 H164 0.961 . S
C165 H166 0.960 . S
H166 C165 0.960 . S
H167 N147 0.862 . S
O168 Co136 1.920 . S
O168 C141 1.289 . S
C169 O161 1.258 . S
C169 O162 1.266 . S
Co170 O173 1.970 . S
Co170 N187 1.989 . S
Co170 O195 1.967 . S
Co170 O202 1.920 . S
Co171 O174 1.966 . S
Co171 N180 2.022 . S
Co171 N188 1.993 . S
Co171 O196 1.941 . S
C172 O173 1.258 . S
C172 O174 1.263 . S
O173 Co170 1.970 . S
O173 C172 1.258 . S
O174 Co171 1.966 . S
O174 C172 1.263 . S
C175 O176 1.235 . S
C175 O202 1.289 . S
O176 C175 1.235 . S
C177 C179 1.400 . S
C177 N180 1.351 . S
C177 C182 1.501 . S
C178 C179 1.387 . S
C178 N181 1.341 . S
C179 C177 1.400 . S
C179 C178 1.387 . S
N180 Co171 2.022 . S
N180 C177 1.351 . S
N180 N181 1.365 . S
N181 C178 1.341 . S
N181 N180 1.365 . S
N181 H201 0.862 . S
C182 C177 1.501 . S
C182 H183 0.961 . S
C182 H184 0.961 . S
C182 H185 0.960 . S
H183 C182 0.961 . S
H184 C182 0.961 . S
H185 C182 0.960 . S
C186 N187 1.342 . S
C186 C190 1.401 . S
C186 C191 1.499 . S
N187 Co170 1.989 . S
N187 C186 1.342 . S
N187 N188 1.388 . S
N188 Co171 1.993 . S
N188 N187 1.388 . S
N188 C189 1.346 . S
C189 N188 1.346 . S
C189 C190 1.396 . S
C189 C199 1.510 . S
C190 C186 1.401 . S
C190 C189 1.396 . S
C191 C186 1.499 . S
C191 H192 0.959 . S
C191 H193 0.960 . S
C191 H194 0.961 . S
H192 C191 0.959 . S
H193 C191 0.960 . S
H194 C191 0.961 . S
O195 Co170 1.967 . S
O195 C203 1.258 . S
O196 Co171 1.941 . S
O196 C203 1.266 . S
H197 C199 0.959 . S
H198 C199 0.961 . S
C199 C189 1.510 . S
C199 H197 0.959 . S
C199 H198 0.961 . S
C199 H200 0.960 . S
H200 C199 0.960 . S
H201 N181 0.862 . S
O202 Co170 1.920 . S
O202 C175 1.289 . S
C203 O195 1.258 . S
C203 O196 1.266 . S
Co204 O207 1.970 . S
Co204 N221 1.989 . S
Co204 O229 1.967 . S
Co204 O236 1.920 . S
Co205 O208 1.966 . S
Co205 N214 2.022 . S
Co205 N222 1.993 . S
Co205 O230 1.941 . S
C206 O207 1.258 . S
C206 O208 1.263 . S
O207 Co204 1.970 . S
O207 C206 1.258 . S
O208 Co205 1.966 . S
O208 C206 1.263 . S
C209 O210 1.235 . S
C209 O236 1.289 . S
O210 C209 1.235 . S
C211 C213 1.400 . S
C211 N214 1.351 . S
C211 C216 1.501 . S
C212 C213 1.387 . S
C212 N215 1.341 . S
C213 C211 1.400 . S
C213 C212 1.387 . S
N214 Co205 2.022 . S
N214 C211 1.351 . S
N214 N215 1.365 . S
N215 C212 1.341 . S
N215 N214 1.365 . S
N215 H235 0.862 . S
C216 C211 1.501 . S
C216 H217 0.961 . S
C216 H218 0.961 . S
C216 H219 0.960 . S
H217 C216 0.961 . S
H218 C216 0.961 . S
H219 C216 0.960 . S
C220 N221 1.342 . S
C220 C224 1.401 . S
C220 C225 1.499 . S
N221 Co204 1.989 . S
N221 C220 1.342 . S
N221 N222 1.388 . S
N222 Co205 1.993 . S
N222 N221 1.388 . S
N222 C223 1.346 . S
C223 N222 1.346 . S
C223 C224 1.396 . S
C223 C233 1.510 . S
C224 C220 1.401 . S
C224 C223 1.396 . S
C225 C220 1.499 . S
C225 H226 0.959 . S
C225 H227 0.960 . S
C225 H228 0.961 . S
H226 C225 0.959 . S
H227 C225 0.960 . S
H228 C225 0.961 . S
O229 Co204 1.967 . S
O229 C237 1.258 . S
O230 Co205 1.941 . S
O230 C237 1.266 . S
H231 C233 0.959 . S
H232 C233 0.961 . S
C233 C223 1.510 . S
C233 H231 0.959 . S
C233 H232 0.961 . S
C233 H234 0.960 . S
H234 C233 0.960 . S
H235 N215 0.862 . S
O236 Co204 1.920 . S
O236 C209 1.289 . S
C237 O229 1.258 . S
C237 O230 1.266 . S
Co238 O241 1.970 . S
Co238 N255 1.989 . S
Co238 O263 1.967 . S
Co238 O270 1.920 . S
Co239 O242 1.966 . S
Co239 N248 2.022 . S
Co239 N256 1.993 . S
Co239 O264 1.941 . S
C240 O241 1.258 . S
C240 O242 1.263 . S
O241 Co238 1.970 . S
O241 C240 1.258 . S
O242 Co239 1.966 . S
O242 C240 1.263 . S
C243 O244 1.235 . S
C243 O270 1.289 . S
O244 C243 1.235 . S
C245 C247 1.400 . S
C245 N248 1.351 . S
C245 C250 1.501 . S
C246 C247 1.387 . S
C246 N249 1.341 . S
C247 C245 1.400 . S
C247 C246 1.387 . S
N248 Co239 2.022 . S
N248 C245 1.351 . S
N248 N249 1.365 . S
N249 C246 1.341 . S
N249 N248 1.365 . S
N249 H269 0.862 . S
C250 C245 1.501 . S
C250 H251 0.961 . S
C250 H252 0.961 . S
C250 H253 0.960 . S
H251 C250 0.961 . S
H252 C250 0.961 . S
H253 C250 0.960 . S
C254 N255 1.342 . S
C254 C258 1.401 . S
C254 C259 1.499 . S
N255 Co238 1.989 . S
N255 C254 1.342 . S
N255 N256 1.388 . S
N256 Co239 1.993 . S
N256 N255 1.388 . S
N256 C257 1.346 . S
C257 N256 1.346 . S
C257 C258 1.396 . S
C257 C267 1.510 . S
C258 C254 1.401 . S
C258 C257 1.396 . S
C259 C254 1.499 . S
C259 H260 0.959 . S
C259 H261 0.960 . S
C259 H262 0.961 . S
H260 C259 0.959 . S
H261 C259 0.960 . S
H262 C259 0.961 . S
O263 Co238 1.967 . S
O263 C271 1.258 . S
O264 Co239 1.941 . S
O264 C271 1.266 . S
H265 C267 0.959 . S
H266 C267 0.961 . S
C267 C257 1.510 . S
C267 H265 0.959 . S
C267 H266 0.961 . S
C267 H268 0.960 . S
H268 C267 0.960 . S
H269 N249 0.862 . S
O270 Co238 1.920 . S
O270 C243 1.289 . S
C271 O263 1.258 . S
C271 O264 1.266 . S
Co272 O275 1.970 . S
Co272 N289 1.989 . S
Co272 O297 1.967 . S
Co272 O304 1.920 . S
Co273 O276 1.966 . S
Co273 N282 2.022 . S
Co273 N290 1.993 . S
Co273 O298 1.941 . S
C274 O275 1.258 . S
C274 O276 1.263 . S
O275 Co272 1.970 . S
O275 C274 1.258 . S
O276 Co273 1.966 . S
O276 C274 1.263 . S
C277 O278 1.235 . S
C277 O304 1.289 . S
O278 C277 1.235 . S
C279 C281 1.400 . S
C279 N282 1.351 . S
C279 C284 1.501 . S
C280 C281 1.387 . S
C280 N283 1.341 . S
C281 C279 1.400 . S
C281 C280 1.387 . S
N282 Co273 2.022 . S
N282 C279 1.351 . S
N282 N283 1.365 . S
N283 C280 1.341 . S
N283 N282 1.365 . S
N283 H303 0.862 . S
C284 C279 1.501 . S
C284 H285 0.961 . S
C284 H286 0.961 . S
C284 H287 0.960 . S
H285 C284 0.961 . S
H286 C284 0.961 . S
H287 C284 0.960 . S
C288 N289 1.342 . S
C288 C292 1.401 . S
C288 C293 1.499 . S
N289 Co272 1.989 . S
N289 C288 1.342 . S
N289 N290 1.388 . S
N290 Co273 1.993 . S
N290 N289 1.388 . S
N290 C291 1.346 . S
C291 N290 1.346 . S
C291 C292 1.396 . S
C291 C301 1.510 . S
C292 C288 1.401 . S
C292 C291 1.396 . S
C293 C288 1.499 . S
C293 H294 0.959 . S
C293 H295 0.960 . S
C293 H296 0.961 . S
H294 C293 0.959 . S
H295 C293 0.960 . S
H296 C293 0.961 . S
O297 Co272 1.967 . S
O297 C305 1.258 . S
O298 Co273 1.941 . S
O298 C305 1.266 . S
H299 C301 0.959 . S
H300 C301 0.961 . S
C301 C291 1.510 . S
C301 H299 0.959 . S
C301 H300 0.961 . S
C301 H302 0.960 . S
H302 C301 0.960 . S
H303 N283 0.862 . S
O304 Co272 1.920 . S
O304 C277 1.289 . S
C305 O297 1.258 . S
C305 O298 1.266 . S
Co306 O309 1.970 1_554 S
Co306 N323 1.989 . S
Co306 O331 1.967 . S
Co306 O338 1.920 1_554 S
Co307 O310 1.966 . S
Co307 N316 2.022 . S
Co307 N324 1.993 . S
Co307 O332 1.941 . S
C308 O309 1.257 1_554 S
C308 O310 1.267 . S
O309 Co306 1.970 1_556 S
O309 C308 1.257 1_556 S
O310 Co307 1.966 . S
O310 C308 1.267 . S
C311 O312 1.235 . S
C311 O338 1.289 . S
O312 C311 1.235 . S
C313 C315 1.400 . S
C313 N316 1.351 . S
C313 C318 1.501 . S
C314 C315 1.387 . S
C314 N317 1.341 . S
C315 C313 1.400 . S
C315 C314 1.387 . S
N316 Co307 2.022 . S
N316 C313 1.351 . S
N316 N317 1.365 . S
N317 C314 1.341 . S
N317 N316 1.365 . S
N317 H337 0.862 . S
C318 C313 1.501 . S
C318 H319 0.961 . S
C318 H320 0.961 . S
C318 H321 0.960 . S
H319 C318 0.961 . S
H320 C318 0.961 . S
H321 C318 0.960 . S
C322 N323 1.342 . S
C322 C326 1.401 . S
C322 C327 1.499 . S
N323 Co306 1.989 . S
N323 C322 1.342 . S
N323 N324 1.388 . S
N324 Co307 1.993 . S
N324 N323 1.388 . S
N324 C325 1.346 . S
C325 N324 1.346 . S
C325 C326 1.396 . S
C325 C335 1.510 . S
C326 C322 1.401 . S
C326 C325 1.396 . S
C327 C322 1.499 . S
C327 H328 0.959 . S
C327 H329 0.960 . S
C327 H330 0.961 . S
H328 C327 0.959 . S
H329 C327 0.960 . S
H330 C327 0.961 . S
O331 Co306 1.967 . S
O331 C339 1.258 . S
O332 Co307 1.941 . S
O332 C339 1.266 . S
H333 C335 0.959 . S
H334 C335 0.961 . S
C335 C325 1.510 . S
C335 H333 0.959 . S
C335 H334 0.961 . S
C335 H336 0.960 . S
H336 C335 0.960 . S
H337 N317 0.862 . S
O338 Co306 1.920 1_556 S
O338 C311 1.289 . S
C339 O331 1.258 . S
C339 O332 1.266 . S
Co340 O343 1.970 1_554 S
Co340 N357 1.989 . S
Co340 O365 1.967 . S
Co340 O372 1.920 1_554 S
Co341 O344 1.966 . S
Co341 N350 2.022 . S
Co341 N358 1.993 . S
Co341 O366 1.941 . S
C342 O343 1.257 1_554 S
C342 O344 1.267 . S
O343 Co340 1.970 1_556 S
O343 C342 1.257 1_556 S
O344 Co341 1.966 . S
O344 C342 1.267 . S
C345 O346 1.235 . S
C345 O372 1.289 . S
O346 C345 1.235 . S
C347 C349 1.400 . S
C347 N350 1.351 . S
C347 C352 1.501 . S
C348 C349 1.387 . S
C348 N351 1.341 . S
C349 C347 1.400 . S
C349 C348 1.387 . S
N350 Co341 2.022 . S
N350 C347 1.351 . S
N350 N351 1.365 . S
N351 C348 1.341 . S
N351 N350 1.365 . S
N351 H371 0.862 . S
C352 C347 1.501 . S
C352 H353 0.961 . S
C352 H354 0.961 . S
C352 H355 0.960 . S
H353 C352 0.961 . S
H354 C352 0.961 . S
H355 C352 0.960 . S
C356 N357 1.342 . S
C356 C360 1.401 . S
C356 C361 1.499 . S
N357 Co340 1.989 . S
N357 C356 1.342 . S
N357 N358 1.388 . S
N358 Co341 1.993 . S
N358 N357 1.388 . S
N358 C359 1.346 . S
C359 N358 1.346 . S
C359 C360 1.396 . S
C359 C369 1.510 . S
C360 C356 1.401 . S
C360 C359 1.396 . S
C361 C356 1.499 . S
C361 H362 0.959 . S
C361 H363 0.960 . S
C361 H364 0.961 . S
H362 C361 0.959 . S
H363 C361 0.960 . S
H364 C361 0.961 . S
O365 Co340 1.967 . S
O365 C373 1.258 . S
O366 Co341 1.941 . S
O366 C373 1.266 . S
H367 C369 0.959 . S
H368 C369 0.961 . S
C369 C359 1.510 . S
C369 H367 0.959 . S
C369 H368 0.961 . S
C369 H370 0.960 . S
H370 C369 0.960 . S
H371 N351 0.862 . S
O372 Co340 1.920 1_556 S
O372 C345 1.289 . S
C373 O365 1.258 . S
C373 O366 1.266 . S
Co374 O377 1.970 1_554 S
Co374 N391 1.989 . S
Co374 O399 1.967 . S
Co374 O406 1.920 1_554 S
Co375 O378 1.966 . S
Co375 N384 2.022 . S
Co375 N392 1.993 . S
Co375 O400 1.941 . S
C376 O377 1.257 1_554 S
C376 O378 1.266 . S
O377 Co374 1.970 1_556 S
O377 C376 1.257 1_556 S
O378 Co375 1.966 . S
O378 C376 1.266 . S
C379 O380 1.235 . S
C379 O406 1.289 . S
O380 C379 1.235 . S
C381 C383 1.400 . S
C381 N384 1.351 . S
C381 C386 1.501 . S
C382 C383 1.387 . S
C382 N385 1.341 . S
C383 C381 1.400 . S
C383 C382 1.387 . S
N384 Co375 2.022 . S
N384 C381 1.351 . S
N384 N385 1.365 . S
N385 C382 1.341 . S
N385 N384 1.365 . S
N385 H405 0.862 . S
C386 C381 1.501 . S
C386 H387 0.961 . S
C386 H388 0.961 . S
C386 H389 0.960 . S
H387 C386 0.961 . S
H388 C386 0.961 . S
H389 C386 0.960 . S
C390 N391 1.342 . S
C390 C394 1.401 . S
C390 C395 1.499 . S
N391 Co374 1.989 . S
N391 C390 1.342 . S
N391 N392 1.388 . S
N392 Co375 1.993 . S
N392 N391 1.388 . S
N392 C393 1.346 . S
C393 N392 1.346 . S
C393 C394 1.396 . S
C393 C403 1.510 . S
C394 C390 1.401 . S
C394 C393 1.396 . S
C395 C390 1.499 . S
C395 H396 0.959 . S
C395 H397 0.960 . S
C395 H398 0.961 . S
H396 C395 0.959 . S
H397 C395 0.960 . S
H398 C395 0.961 . S
O399 Co374 1.967 . S
O399 C407 1.258 . S
O400 Co375 1.941 . S
O400 C407 1.266 . S
H401 C403 0.959 . S
H402 C403 0.961 . S
C403 C393 1.510 . S
C403 H401 0.959 . S
C403 H402 0.961 . S
C403 H404 0.960 . S
H404 C403 0.960 . S
H405 N385 0.862 . S
O406 Co374 1.920 1_556 S
O406 C379 1.289 . S
C407 O399 1.258 . S
C407 O400 1.266 . S
Co408 O411 1.970 1_556 S
Co408 N425 1.989 . S
Co408 O433 1.967 . S
Co408 O440 1.920 1_556 S
Co409 O412 1.966 . S
Co409 N418 2.022 . S
Co409 N426 1.993 . S
Co409 O434 1.941 . S
C410 O411 1.257 1_556 S
C410 O412 1.267 . S
O411 Co408 1.970 1_554 S
O411 C410 1.257 1_554 S
O412 Co409 1.966 . S
O412 C410 1.267 . S
C413 O414 1.235 . S
C413 O440 1.289 . S
O414 C413 1.235 . S
C415 C417 1.400 . S
C415 N418 1.351 . S
C415 C420 1.501 . S
C416 C417 1.387 . S
C416 N419 1.341 . S
C417 C415 1.400 . S
C417 C416 1.387 . S
N418 Co409 2.022 . S
N418 C415 1.351 . S
N418 N419 1.365 . S
N419 C416 1.341 . S
N419 N418 1.365 . S
N419 H439 0.862 . S
C420 C415 1.501 . S
C420 H421 0.961 . S
C420 H422 0.961 . S
C420 H423 0.960 . S
H421 C420 0.961 . S
H422 C420 0.961 . S
H423 C420 0.960 . S
C424 N425 1.342 . S
C424 C428 1.401 . S
C424 C429 1.499 . S
N425 Co408 1.989 . S
N425 C424 1.342 . S
N425 N426 1.388 . S
N426 Co409 1.993 . S
N426 N425 1.388 . S
N426 C427 1.346 . S
C427 N426 1.346 . S
C427 C428 1.396 . S
C427 C437 1.510 . S
C428 C424 1.401 . S
C428 C427 1.396 . S
C429 C424 1.499 . S
C429 H430 0.959 . S
C429 H431 0.960 . S
C429 H432 0.961 . S
H430 C429 0.959 . S
H431 C429 0.960 . S
H432 C429 0.961 . S
O433 Co408 1.967 . S
O433 C441 1.258 . S
O434 Co409 1.941 . S
O434 C441 1.266 . S
H435 C437 0.959 . S
H436 C437 0.961 . S
C437 C427 1.510 . S
C437 H435 0.959 . S
C437 H436 0.961 . S
C437 H438 0.960 . S
H438 C437 0.960 . S
H439 N419 0.862 . S
O440 Co408 1.920 1_554 S
O440 C413 1.289 . S
C441 O433 1.258 . S
C441 O434 1.266 . S
Co442 O445 1.970 1_556 S
Co442 N459 1.989 . S
Co442 O467 1.967 . S
Co442 O474 1.920 1_556 S
Co443 O446 1.966 . S
Co443 N452 2.022 . S
Co443 N460 1.993 . S
Co443 O468 1.941 . S
C444 O445 1.257 1_556 S
C444 O446 1.266 . S
O445 Co442 1.970 1_554 S
O445 C444 1.257 1_554 S
O446 Co443 1.966 . S
O446 C444 1.266 . S
C447 O448 1.235 . S
C447 O474 1.289 . S
O448 C447 1.235 . S
C449 C451 1.400 . S
C449 N452 1.351 . S
C449 C454 1.501 . S
C450 C451 1.387 . S
C450 N453 1.341 . S
C451 C449 1.400 . S
C451 C450 1.387 . S
N452 Co443 2.022 . S
N452 C449 1.351 . S
N452 N453 1.365 . S
N453 C450 1.341 . S
N453 N452 1.365 . S
N453 H473 0.862 . S
C454 C449 1.501 . S
C454 H455 0.961 . S
C454 H456 0.961 . S
C454 H457 0.960 . S
H455 C454 0.961 . S
H456 C454 0.961 . S
H457 C454 0.960 . S
C458 N459 1.342 . S
C458 C462 1.401 . S
C458 C463 1.499 . S
N459 Co442 1.989 . S
N459 C458 1.342 . S
N459 N460 1.388 . S
N460 Co443 1.993 . S
N460 N459 1.388 . S
N460 C461 1.346 . S
C461 N460 1.346 . S
C461 C462 1.396 . S
C461 C471 1.510 . S
C462 C458 1.401 . S
C462 C461 1.396 . S
C463 C458 1.499 . S
C463 H464 0.959 . S
C463 H465 0.960 . S
C463 H466 0.961 . S
H464 C463 0.959 . S
H465 C463 0.960 . S
H466 C463 0.961 . S
O467 Co442 1.967 . S
O467 C475 1.258 . S
O468 Co443 1.941 . S
O468 C475 1.266 . S
H469 C471 0.959 . S
H470 C471 0.961 . S
C471 C461 1.510 . S
C471 H469 0.959 . S
C471 H470 0.961 . S
C471 H472 0.960 . S
H472 C471 0.960 . S
H473 N453 0.862 . S
O474 Co442 1.920 1_554 S
O474 C447 1.289 . S
C475 O467 1.258 . S
C475 O468 1.266 . S
Co476 O479 1.970 1_556 S
Co476 N493 1.989 . S
Co476 O501 1.967 . S
Co476 O508 1.920 1_556 S
Co477 O480 1.966 . S
Co477 N486 2.022 . S
Co477 N494 1.993 . S
Co477 O502 1.941 . S
C478 O479 1.257 1_556 S
C478 O480 1.267 . S
O479 Co476 1.970 1_554 S
O479 C478 1.257 1_554 S
O480 Co477 1.966 . S
O480 C478 1.267 . S
C481 O482 1.235 . S
C481 O508 1.289 . S
O482 C481 1.235 . S
C483 C485 1.400 . S
C483 N486 1.351 . S
C483 C488 1.501 . S
C484 C485 1.387 . S
C484 N487 1.341 . S
C485 C483 1.400 . S
C485 C484 1.387 . S
N486 Co477 2.022 . S
N486 C483 1.351 . S
N486 N487 1.365 . S
N487 C484 1.341 . S
N487 N486 1.365 . S
N487 H507 0.862 . S
C488 C483 1.501 . S
C488 H489 0.961 . S
C488 H490 0.961 . S
C488 H491 0.960 . S
H489 C488 0.961 . S
H490 C488 0.961 . S
H491 C488 0.960 . S
C492 N493 1.342 . S
C492 C496 1.401 . S
C492 C497 1.499 . S
N493 Co476 1.989 . S
N493 C492 1.342 . S
N493 N494 1.388 . S
N494 Co477 1.993 . S
N494 N493 1.388 . S
N494 C495 1.346 . S
C495 N494 1.346 . S
C495 C496 1.396 . S
C495 C505 1.510 . S
C496 C492 1.401 . S
C496 C495 1.396 . S
C497 C492 1.499 . S
C497 H498 0.959 . S
C497 H499 0.960 . S
C497 H500 0.961 . S
H498 C497 0.959 . S
H499 C497 0.960 . S
H500 C497 0.961 . S
O501 Co476 1.967 . S
O501 C509 1.258 . S
O502 Co477 1.941 . S
O502 C509 1.266 . S
H503 C505 0.959 . S
H504 C505 0.961 . S
C505 C495 1.510 . S
C505 H503 0.959 . S
C505 H504 0.961 . S
C505 H506 0.960 . S
H506 C505 0.960 . S
H507 N487 0.862 . S
O508 Co476 1.920 1_554 S
O508 C481 1.289 . S
C509 O501 1.258 . S
C509 O502 1.266 . S
Co510 O513 1.970 . S
Co510 N527 1.989 . S
Co510 O535 1.967 . S
Co510 O542 1.920 . S
Co511 O514 1.966 . S
Co511 N520 2.022 . S
Co511 N528 1.993 . S
Co511 O536 1.941 . S
C512 O513 1.258 . S
C512 O514 1.263 . S
O513 Co510 1.970 . S
O513 C512 1.258 . S
O514 Co511 1.966 . S
O514 C512 1.263 . S
C515 O516 1.235 . S
C515 O542 1.289 . S
O516 C515 1.235 . S
C517 C519 1.400 . S
C517 N520 1.351 . S
C517 C522 1.501 . S
C518 C519 1.387 . S
C518 N521 1.341 . S
C519 C517 1.400 . S
C519 C518 1.387 . S
N520 Co511 2.022 . S
N520 C517 1.351 . S
N520 N521 1.365 . S
N521 C518 1.341 . S
N521 N520 1.365 . S
N521 H541 0.862 . S
C522 C517 1.501 . S
C522 H523 0.961 . S
C522 H524 0.961 . S
C522 H525 0.960 . S
H523 C522 0.961 . S
H524 C522 0.961 . S
H525 C522 0.960 . S
C526 N527 1.342 . S
C526 C530 1.401 . S
C526 C531 1.499 . S
N527 Co510 1.989 . S
N527 C526 1.342 . S
N527 N528 1.388 . S
N528 Co511 1.993 . S
N528 N527 1.388 . S
N528 C529 1.346 . S
C529 N528 1.346 . S
C529 C530 1.396 . S
C529 C539 1.510 . S
C530 C526 1.401 . S
C530 C529 1.396 . S
C531 C526 1.499 . S
C531 H532 0.959 . S
C531 H533 0.960 . S
C531 H534 0.961 . S
H532 C531 0.959 . S
H533 C531 0.960 . S
H534 C531 0.961 . S
O535 Co510 1.967 . S
O535 C543 1.258 . S
O536 Co511 1.941 . S
O536 C543 1.266 . S
H537 C539 0.959 . S
H538 C539 0.961 . S
C539 C529 1.510 . S
C539 H537 0.959 . S
C539 H538 0.961 . S
C539 H540 0.960 . S
H540 C539 0.960 . S
H541 N521 0.862 . S
O542 Co510 1.920 . S
O542 C515 1.289 . S
C543 O535 1.258 . S
C543 O536 1.266 . S
Co544 O547 1.970 . S
Co544 N561 1.989 . S
Co544 O569 1.967 . S
Co544 O576 1.920 . S
Co545 O548 1.966 . S
Co545 N554 2.022 . S
Co545 N562 1.993 . S
Co545 O570 1.941 . S
C546 O547 1.258 . S
C546 O548 1.263 . S
O547 Co544 1.970 . S
O547 C546 1.258 . S
O548 Co545 1.966 . S
O548 C546 1.263 . S
C549 O550 1.235 . S
C549 O576 1.289 . S
O550 C549 1.235 . S
C551 C553 1.400 . S
C551 N554 1.351 . S
C551 C556 1.501 . S
C552 C553 1.387 . S
C552 N555 1.341 . S
C553 C551 1.400 . S
C553 C552 1.387 . S
N554 Co545 2.022 . S
N554 C551 1.351 . S
N554 N555 1.365 . S
N555 C552 1.341 . S
N555 N554 1.365 . S
N555 H575 0.862 . S
C556 C551 1.501 . S
C556 H557 0.961 . S
C556 H558 0.961 . S
C556 H559 0.960 . S
H557 C556 0.961 . S
H558 C556 0.961 . S
H559 C556 0.960 . S
C560 N561 1.342 . S
C560 C564 1.401 . S
C560 C565 1.499 . S
N561 Co544 1.989 . S
N561 C560 1.342 . S
N561 N562 1.388 . S
N562 Co545 1.993 . S
N562 N561 1.388 . S
N562 C563 1.346 . S
C563 N562 1.346 . S
C563 C564 1.396 . S
C563 C573 1.510 . S
C564 C560 1.401 . S
C564 C563 1.396 . S
C565 C560 1.499 . S
C565 H566 0.959 . S
C565 H567 0.960 . S
C565 H568 0.961 . S
H566 C565 0.959 . S
H567 C565 0.960 . S
H568 C565 0.961 . S
O569 Co544 1.967 . S
O569 C577 1.258 . S
O570 Co545 1.941 . S
O570 C577 1.266 . S
H571 C573 0.959 . S
H572 C573 0.961 . S
C573 C563 1.510 . S
C573 H571 0.959 . S
C573 H572 0.961 . S
C573 H574 0.960 . S
H574 C573 0.960 . S
H575 N555 0.862 . S
O576 Co544 1.920 . S
O576 C549 1.289 . S
C577 O569 1.258 . S
C577 O570 1.266 . S
Co578 O581 1.970 . S
Co578 N595 1.989 . S
Co578 O603 1.967 . S
Co578 O610 1.920 . S
Co579 O582 1.966 . S
Co579 N588 2.022 . S
Co579 N596 1.993 . S
Co579 O604 1.941 . S
C580 O581 1.258 . S
C580 O582 1.263 . S
O581 Co578 1.970 . S
O581 C580 1.258 . S
O582 Co579 1.966 . S
O582 C580 1.263 . S
C583 O584 1.235 . S
C583 O610 1.289 . S
O584 C583 1.235 . S
C585 C587 1.400 . S
C585 N588 1.351 . S
C585 C590 1.501 . S
C586 C587 1.387 . S
C586 N589 1.341 . S
C587 C585 1.400 . S
C587 C586 1.387 . S
N588 Co579 2.022 . S
N588 C585 1.351 . S
N588 N589 1.365 . S
N589 C586 1.341 . S
N589 N588 1.365 . S
N589 H609 0.862 . S
C590 C585 1.501 . S
C590 H591 0.961 . S
C590 H592 0.961 . S
C590 H593 0.960 . S
H591 C590 0.961 . S
H592 C590 0.961 . S
H593 C590 0.960 . S
C594 N595 1.342 . S
C594 C598 1.401 . S
C594 C599 1.499 . S
N595 Co578 1.989 . S
N595 C594 1.342 . S
N595 N596 1.388 . S
N596 Co579 1.993 . S
N596 N595 1.388 . S
N596 C597 1.346 . S
C597 N596 1.346 . S
C597 C598 1.396 . S
C597 C607 1.510 . S
C598 C594 1.401 . S
C598 C597 1.396 . S
C599 C594 1.499 . S
C599 H600 0.959 . S
C599 H601 0.960 . S
C599 H602 0.961 . S
H600 C599 0.959 . S
H601 C599 0.960 . S
H602 C599 0.961 . S
O603 Co578 1.967 . S
O603 C611 1.258 . S
O604 Co579 1.941 . S
O604 C611 1.266 . S
H605 C607 0.959 . S
H606 C607 0.961 . S
C607 C597 1.510 . S
C607 H605 0.959 . S
C607 H606 0.961 . S
C607 H608 0.960 . S
H608 C607 0.960 . S
H609 N589 0.862 . S
O610 Co578 1.920 . S
O610 C583 1.289 . S
C611 O603 1.258 . S
C611 O604 1.266 . S
H612 C618 0.930 . S
H613 C622 0.930 . S
H614 C627 0.929 . S
H615 C625 0.929 . S
H616 C620 0.929 . S
H617 C626 0.929 . S
C618 H612 0.930 . S
C618 C619 1.367 . S
C618 C626 1.378 . S
C619 C618 1.367 . S
C619 C627 1.433 . S
C620 H616 0.929 . S
C620 C622 1.378 . S
C620 C624 1.350 . S
C621 C624 1.463 1_556 S
C621 C626 1.350 . S
C621 N629 1.427 . S
C622 H613 0.930 . S
C622 C620 1.378 . S
C622 C623 1.367 . S
C623 C622 1.367 . S
C623 C625 1.433 . S
C624 C620 1.350 . S
C624 C621 1.463 1_554 S
C624 N628 1.427 . S
C625 H615 0.929 . S
C625 C623 1.433 . S
C625 N628 1.384 . S
C626 H617 0.929 . S
C626 C618 1.378 . S
C626 C621 1.350 . S
C627 H614 0.929 . S
C627 C619 1.433 . S
C627 N629 1.384 . S
N628 C624 1.427 . S
N628 C625 1.384 . S
N629 C621 1.427 . S
N629 C627 1.384 . S
H630 C636 0.930 . S
H631 C640 0.930 . S
H632 C645 0.929 . S
H633 C643 0.929 . S
H634 C638 0.929 . S
H635 C644 0.929 . S
C636 H630 0.930 . S
C636 C637 1.367 . S
C636 C644 1.378 . S
C637 C636 1.367 . S
C637 C645 1.433 . S
C638 H634 0.929 . S
C638 C640 1.378 . S
C638 C642 1.350 . S
C639 C642 1.463 1_546 S
C639 C644 1.350 . S
C639 N647 1.427 . S
C640 H631 0.930 . S
C640 C638 1.378 . S
C640 C641 1.367 . S
C641 C640 1.367 . S
C641 C643 1.433 . S
C642 C638 1.350 . S
C642 C639 1.463 1_564 S
C642 N646 1.427 . S
C643 H633 0.929 . S
C643 C641 1.433 . S
C643 N646 1.384 . S
C644 H635 0.929 . S
C644 C636 1.378 . S
C644 C639 1.350 . S
C645 H632 0.929 . S
C645 C637 1.433 . S
C645 N647 1.384 . S
N646 C642 1.427 . S
N646 C643 1.384 . S
N647 C639 1.427 . S
N647 C645 1.384 . S
H648 C654 0.930 . S
H649 C658 0.930 . S
H650 C663 0.929 . S
H651 C661 0.929 . S
H652 C656 0.929 1_455 S
H653 C662 0.916 1_655 S
C654 H648 0.930 . S
C654 C655 1.367 . S
C654 C662 1.387 . S
C655 C654 1.367 . S
C655 C663 1.433 . S
C656 H652 0.929 1_655 S
C656 C658 1.378 . S
C656 C660 1.350 . S
C657 C660 1.463 1_454 S
C657 C662 1.353 . S
C657 N665 1.427 . S
C658 H649 0.930 . S
C658 C656 1.378 . S
C658 C659 1.367 . S
C659 C658 1.367 . S
C659 C661 1.433 . S
C660 C656 1.350 . S
C660 C657 1.463 1_656 S
C660 N664 1.427 . S
C661 H651 0.929 . S
C661 C659 1.433 . S
C661 N664 1.384 . S
C662 H653 0.916 1_455 S
C662 C654 1.387 . S
C662 C657 1.353 . S
C663 H650 0.929 . S
C663 C655 1.433 . S
C663 N665 1.384 . S
N664 C660 1.427 . S
N664 C661 1.384 . S
N665 C657 1.427 . S
N665 C663 1.384 . S
H666 C672 0.930 . S
H667 C676 0.930 . S
H668 C681 0.929 . S
H669 C679 0.929 . S
H670 C674 0.929 1_554 S
H671 C680 0.929 1_556 S
C672 H666 0.930 . S
C672 C673 1.367 . S
C672 C680 1.378 . S
C673 C672 1.367 . S
C673 C681 1.433 . S
C674 H670 0.929 1_556 S
C674 C676 1.378 . S
C674 C678 1.350 . S
C675 C678 1.463 1_554 S
C675 C680 1.350 . S
C675 N683 1.427 . S
C676 H667 0.930 . S
C676 C674 1.378 . S
C676 C677 1.367 . S
C677 C676 1.367 . S
C677 C679 1.433 . S
C678 C674 1.350 . S
C678 C675 1.463 1_556 S
C678 N682 1.427 . S
C679 H669 0.929 . S
C679 C677 1.433 . S
C679 N682 1.384 . S
C680 H671 0.929 1_554 S
C680 C672 1.378 . S
C680 C675 1.350 . S
C681 H668 0.929 . S
C681 C673 1.433 . S
C681 N683 1.384 . S
N682 C678 1.427 . S
N682 C679 1.384 . S
N683 C675 1.427 . S
N683 C681 1.384 . S
H684 C690 0.930 . S
H685 C694 0.930 . S
H686 C699 0.929 . S
H687 C697 0.929 . S
H688 C692 0.929 1_556 S
H689 C698 0.929 1_554 S
C690 H684 0.930 . S
C690 C691 1.367 . S
C690 C698 1.378 . S
C691 C690 1.367 . S
C691 C699 1.433 . S
C692 H688 0.929 1_554 S
C692 C694 1.378 . S
C692 C696 1.350 . S
C693 C696 1.463 1_546 S
C693 C698 1.350 . S
C693 N701 1.427 . S
C694 H685 0.930 . S
C694 C692 1.378 . S
C694 C695 1.367 . S
C695 C694 1.367 . S
C695 C697 1.433 . S
C696 C692 1.350 . S
C696 C693 1.463 1_564 S
C696 N700 1.427 . S
C697 H687 0.929 . S
C697 C695 1.433 . S
C697 N700 1.384 . S
C698 H689 0.929 1_556 S
C698 C690 1.378 . S
C698 C693 1.350 . S
C699 H686 0.929 . S
C699 C691 1.433 . S
C699 N701 1.384 . S
N700 C696 1.427 . S
N700 C697 1.384 . S
N701 C693 1.427 . S
N701 C699 1.384 . S
H702 C708 0.930 . S
H703 C712 0.930 . S
H704 C717 0.929 . S
H705 C715 0.929 . S
H706 C710 0.978 . S
H707 C716 0.929 . S
C708 H702 0.930 . S
C708 C709 1.367 . S
C708 C716 1.378 . S
C709 C708 1.367 . S
C709 C717 1.433 . S
C710 H706 0.978 . S
C710 C712 1.378 . S
C710 C714 1.350 . S
C711 C714 1.463 1_656 S
C711 C716 1.350 . S
C711 N719 1.427 . S
C712 H703 0.930 . S
C712 C710 1.378 . S
C712 C713 1.367 . S
C713 C712 1.367 . S
C713 C715 1.433 . S
C714 C710 1.350 . S
C714 C711 1.463 1_454 S
C714 N718 1.427 . S
C715 H705 0.929 . S
C715 C713 1.433 . S
C715 N718 1.384 . S
C716 H707 0.929 . S
C716 C708 1.378 . S
C716 C711 1.350 . S
C717 H704 0.929 . S
C717 C709 1.433 . S
C717 N719 1.384 . S
N718 C714 1.427 . S
N718 C715 1.384 . S
N719 C711 1.427 . S
N719 C717 1.384 . S
H720 C726 0.930 . S
H721 C730 0.930 . S
H722 C735 0.929 . S
H723 C733 0.929 . S
H724 C728 0.929 . S
H725 C734 0.929 . S
C726 H720 0.930 . S
C726 C727 1.367 . S
C726 C734 1.378 . S
C727 C726 1.367 . S
C727 C735 1.433 . S
C728 H724 0.929 . S
C728 C730 1.378 . S
C728 C732 1.350 . S
C729 C732 1.463 . S
C729 C734 1.350 . S
C729 N737 1.427 . S
C730 H721 0.930 . S
C730 C728 1.378 . S
C730 C731 1.367 . S
C731 C730 1.367 . S
C731 C733 1.433 . S
C732 C728 1.350 . S
C732 C729 1.463 . S
C732 N736 1.427 . S
C733 H723 0.929 . S
C733 C731 1.433 . S
C733 N736 1.384 . S
C734 H725 0.929 . S
C734 C726 1.378 . S
C734 C729 1.350 . S
C735 H722 0.929 . S
C735 C727 1.433 . S
C735 N737 1.384 . S
N736 C732 1.427 . S
N736 C733 1.384 . S
N737 C729 1.427 . S
N737 C735 1.384 . S
H738 C744 0.930 . S
H739 C748 0.930 . S
H740 C753 0.929 . S
H741 C751 0.929 . S
H742 C746 0.929 . S
H743 C752 0.929 . S
C744 H738 0.930 . S
C744 C745 1.367 . S
C744 C752 1.378 . S
C745 C744 1.367 . S
C745 C753 1.433 . S
C746 H742 0.929 . S
C746 C748 1.378 . S
C746 C750 1.350 . S
C747 C750 1.463 . S
C747 C752 1.350 . S
C747 N755 1.427 . S
C748 H739 0.930 . S
C748 C746 1.378 . S
C748 C749 1.367 . S
C749 C748 1.367 . S
C749 C751 1.433 . S
C750 C746 1.350 . S
C750 C747 1.463 . S
C750 N754 1.427 . S
C751 H741 0.929 . S
C751 C749 1.433 . S
C751 N754 1.384 . S
C752 H743 0.929 . S
C752 C744 1.378 . S
C752 C747 1.350 . S
C753 H740 0.929 . S
C753 C745 1.433 . S
C753 N755 1.384 . S
N754 C750 1.427 . S
N754 C751 1.384 . S
N755 C747 1.427 . S
N755 C753 1.384 . S
H756 C762 0.930 . S
H757 C766 0.930 . S
H758 C771 0.929 . S
H759 C769 0.929 . S
H760 C764 0.929 . S
H761 C770 0.929 . S
C762 H756 0.930 . S
C762 C763 1.367 . S
C762 C770 1.378 . S
C763 C762 1.367 . S
C763 C771 1.433 . S
C764 H760 0.929 . S
C764 C766 1.378 . S
C764 C768 1.350 . S
C765 C768 1.463 . S
C765 C770 1.350 . S
C765 N773 1.427 . S
C766 H757 0.930 . S
C766 C764 1.378 . S
C766 C767 1.367 . S
C767 C766 1.367 . S
C767 C769 1.433 . S
C768 C764 1.350 . S
C768 C765 1.463 . S
C768 N772 1.427 . S
C769 H759 0.929 . S
C769 C767 1.433 . S
C769 N772 1.384 . S
C770 H761 0.929 . S
C770 C762 1.378 . S
C770 C765 1.350 . S
C771 H758 0.929 . S
C771 C763 1.433 . S
C771 N773 1.384 . S
N772 C768 1.427 . S
N772 C769 1.384 . S
N773 C765 1.427 . S
N773 C771 1.384 . S
H774 C780 0.930 . S
H775 C784 0.930 . S
H776 C789 0.929 . S
H777 C787 0.929 . S
H778 C782 0.929 . S
H779 C788 0.929 . S
C780 H774 0.930 . S
C780 C781 1.367 . S
C780 C788 1.378 . S
C781 C780 1.367 . S
C781 C789 1.433 . S
C782 H778 0.929 . S
C782 C784 1.378 . S
C782 C786 1.350 . S
C783 C786 1.463 . S
C783 C788 1.350 . S
C783 N791 1.427 . S
C784 H775 0.930 . S
C784 C782 1.378 . S
C784 C785 1.367 . S
C785 C784 1.367 . S
C785 C787 1.433 . S
C786 C782 1.350 . S
C786 C783 1.463 . S
C786 N790 1.427 . S
C787 H777 0.929 . S
C787 C785 1.433 . S
C787 N790 1.384 . S
C788 H779 0.929 . S
C788 C780 1.378 . S
C788 C783 1.350 . S
C789 H776 0.929 . S
C789 C781 1.433 . S
C789 N791 1.384 . S
N790 C786 1.427 . S
N790 C787 1.384 . S
N791 C783 1.427 . S
N791 C789 1.384 . S
H792 C798 0.930 . S
H793 C802 0.930 . S
H794 C807 0.929 . S
H795 C805 0.929 . S
H796 C800 0.929 . S
H797 C806 0.929 . S
C798 H792 0.930 . S
C798 C799 1.367 . S
C798 C806 1.378 . S
C799 C798 1.367 . S
C799 C807 1.433 . S
C800 H796 0.929 . S
C800 C802 1.378 . S
C800 C804 1.350 . S
C801 C804 1.463 . S
C801 C806 1.350 . S
C801 N809 1.427 . S
C802 H793 0.930 . S
C802 C800 1.378 . S
C802 C803 1.367 . S
C803 C802 1.367 . S
C803 C805 1.433 . S
C804 C800 1.350 . S
C804 C801 1.463 . S
C804 N808 1.427 . S
C805 H795 0.929 . S
C805 C803 1.433 . S
C805 N808 1.384 . S
C806 H797 0.929 . S
C806 C798 1.378 . S
C806 C801 1.350 . S
C807 H794 0.929 . S
C807 C799 1.433 . S
C807 N809 1.384 . S
N808 C804 1.427 . S
N808 C805 1.384 . S
N809 C801 1.427 . S
N809 C807 1.384 . S
H810 C816 0.930 . S
H811 C820 0.930 . S
H812 C825 0.929 . S
H813 C823 0.929 . S
H814 C818 0.929 . S
H815 C824 0.929 . S
C816 H810 0.930 . S
C816 C817 1.367 . S
C816 C824 1.378 . S
C817 C816 1.367 . S
C817 C825 1.433 . S
C818 H814 0.929 . S
C818 C820 1.378 . S
C818 C822 1.350 . S
C819 C822 1.463 . S
C819 C824 1.350 . S
C819 N827 1.427 . S
C820 H811 0.930 . S
C820 C818 1.378 . S
C820 C821 1.367 . S
C821 C820 1.367 . S
C821 C823 1.433 . S
C822 C818 1.350 . S
C822 C819 1.463 . S
C822 N826 1.427 . S
C823 H813 0.929 . S
C823 C821 1.433 . S
C823 N826 1.384 . S
C824 H815 0.929 . S
C824 C816 1.378 . S
C824 C819 1.350 . S
C825 H812 0.929 . S
C825 C817 1.433 . S
C825 N827 1.384 . S
N826 C822 1.427 . S
N826 C823 1.384 . S
N827 C819 1.427 . S
N827 C825 1.384 . S
H828 C834 0.930 . S
H829 C838 0.930 . S
H830 C843 0.929 . S
H831 C841 0.929 . S
H832 C836 0.929 . S
H833 C842 0.929 . S
C834 H828 0.930 . S
C834 C835 1.367 . S
C834 C842 1.378 . S
C835 C834 1.367 . S
C835 C843 1.433 . S
C836 H832 0.929 . S
C836 C838 1.378 . S
C836 C840 1.350 . S
C837 C840 1.463 . S
C837 C842 1.350 . S
C837 N845 1.427 . S
C838 H829 0.930 . S
C838 C836 1.378 . S
C838 C839 1.367 . S
C839 C838 1.367 . S
C839 C841 1.433 . S
C840 C836 1.350 . S
C840 C837 1.463 . S
C840 N844 1.427 . S
C841 H831 0.929 . S
C841 C839 1.433 . S
C841 N844 1.384 . S
C842 H833 0.929 . S
C842 C834 1.378 . S
C842 C837 1.350 . S
C843 H830 0.929 . S
C843 C835 1.433 . S
C843 N845 1.384 . S
N844 C840 1.427 . S
N844 C841 1.384 . S
N845 C837 1.427 . S
N845 C843 1.384 . S
H846 C852 0.930 . S
H847 C856 0.930 . S
H848 C861 0.929 . S
H849 C859 0.929 . S
H850 C854 0.929 . S
H851 C860 0.929 . S
C852 H846 0.930 . S
C852 C853 1.367 . S
C852 C860 1.378 . S
C853 C852 1.367 . S
C853 C861 1.433 . S
C854 H850 0.929 . S
C854 C856 1.378 . S
C854 C858 1.350 . S
C855 C858 1.463 . S
C855 C860 1.350 . S
C855 N863 1.427 . S
C856 H847 0.930 . S
C856 C854 1.378 . S
C856 C857 1.367 . S
C857 C856 1.367 . S
C857 C859 1.433 . S
C858 C854 1.350 . S
C858 C855 1.463 . S
C858 N862 1.427 . S
C859 H849 0.929 . S
C859 C857 1.433 . S
C859 N862 1.384 . S
C860 H851 0.929 . S
C860 C852 1.378 . S
C860 C855 1.350 . S
C861 H848 0.929 . S
C861 C853 1.433 . S
C861 N863 1.384 . S
N862 C858 1.427 . S
N862 C859 1.384 . S
N863 C855 1.427 . S
N863 C861 1.384 . S
H864 C870 0.930 . S
H865 C874 0.930 . S
H866 C879 0.929 . S
H867 C877 0.929 . S
H868 C872 0.929 . S
H869 C878 0.929 . S
C870 H864 0.930 . S
C870 C871 1.367 . S
C870 C878 1.378 . S
C871 C870 1.367 . S
C871 C879 1.433 . S
C872 H868 0.929 . S
C872 C874 1.378 . S
C872 C876 1.350 . S
C873 C876 1.463 . S
C873 C878 1.350 . S
C873 N881 1.427 . S
C874 H865 0.930 . S
C874 C872 1.378 . S
C874 C875 1.367 . S
C875 C874 1.367 . S
C875 C877 1.433 . S
C876 C872 1.350 . S
C876 C873 1.463 . S
C876 N880 1.427 . S
C877 H867 0.929 . S
C877 C875 1.433 . S
C877 N880 1.384 . S
C878 H869 0.929 . S
C878 C870 1.378 . S
C878 C873 1.350 . S
C879 H866 0.929 . S
C879 C871 1.433 . S
C879 N881 1.384 . S
N880 C876 1.427 . S
N880 C877 1.384 . S
N881 C873 1.427 . S
N881 C879 1.384 . S
H882 C888 0.930 . S
H883 C892 0.930 . S
H884 C897 0.929 . S
H885 C895 0.929 . S
H886 C890 0.929 . S
H887 C896 0.929 . S
C888 H882 0.930 . S
C888 C889 1.367 . S
C888 C896 1.378 . S
C889 C888 1.367 . S
C889 C897 1.433 . S
C890 H886 0.929 . S
C890 C892 1.378 . S
C890 C894 1.350 . S
C891 C894 1.463 . S
C891 C896 1.350 . S
C891 N899 1.427 . S
C892 H883 0.930 . S
C892 C890 1.378 . S
C892 C893 1.367 . S
C893 C892 1.367 . S
C893 C895 1.433 . S
C894 C890 1.350 . S
C894 C891 1.463 . S
C894 N898 1.427 . S
C895 H885 0.929 . S
C895 C893 1.433 . S
C895 N898 1.384 . S
C896 H887 0.929 . S
C896 C888 1.378 . S
C896 C891 1.350 . S
C897 H884 0.929 . S
C897 C889 1.433 . S
C897 N899 1.384 . S
N898 C894 1.427 . S
N898 C895 1.384 . S
N899 C891 1.427 . S
N899 C897 1.384 . S
H900 C906 0.930 . S
H901 C910 0.930 . S
H902 C915 0.929 . S
H903 C913 0.929 . S
H904 C908 0.929 . S
H905 C914 0.929 . S
C906 H900 0.930 . S
C906 C907 1.367 . S
C906 C914 1.378 . S
C907 C906 1.367 . S
C907 C915 1.433 . S
C908 H904 0.929 . S
C908 C910 1.378 . S
C908 C912 1.350 . S
C909 C912 1.463 . S
C909 C914 1.350 . S
C909 N917 1.427 . S
C910 H901 0.930 . S
C910 C908 1.378 . S
C910 C911 1.367 . S
C911 C910 1.367 . S
C911 C913 1.433 . S
C912 C908 1.350 . S
C912 C909 1.463 . S
C912 N916 1.427 . S
C913 H903 0.929 . S
C913 C911 1.433 . S
C913 N916 1.384 . S
C914 H905 0.929 . S
C914 C906 1.378 . S
C914 C909 1.350 . S
C915 H902 0.929 . S
C915 C907 1.433 . S
C915 N917 1.384 . S
N916 C912 1.427 . S
N916 C913 1.384 . S
N917 C909 1.427 . S
N917 C915 1.384 . S
H918 C924 0.930 . S
H919 C928 0.930 . S
H920 C933 0.929 . S
H921 C931 0.929 . S
H922 C926 0.929 . S
H923 C932 0.929 . S
C924 H918 0.930 . S
C924 C925 1.367 . S
C924 C932 1.378 . S
C925 C924 1.367 . S
C925 C933 1.433 . S
C926 H922 0.929 . S
C926 C928 1.378 . S
C926 C930 1.350 . S
C927 C930 1.463 . S
C927 C932 1.350 . S
C927 N935 1.427 . S
C928 H919 0.930 . S
C928 C926 1.378 . S
C928 C929 1.367 . S
C929 C928 1.367 . S
C929 C931 1.433 . S
C930 C926 1.350 . S
C930 C927 1.463 . S
C930 N934 1.427 . S
C931 H921 0.929 . S
C931 C929 1.433 . S
C931 N934 1.384 . S
C932 H923 0.929 . S
C932 C924 1.378 . S
C932 C927 1.350 . S
C933 H920 0.929 . S
C933 C925 1.433 . S
C933 N935 1.384 . S
N934 C930 1.427 . S
N934 C931 1.384 . S
N935 C927 1.427 . S
N935 C933 1.384 . S
H936 C942 0.930 . S
H937 C946 0.930 . S
H938 C951 0.929 . S
H939 C949 0.929 . S
H940 C944 0.929 . S
H941 C950 0.929 . S
C942 H936 0.930 . S
C942 C943 1.367 . S
C942 C950 1.378 . S
C943 C942 1.367 . S
C943 C951 1.433 . S
C944 H940 0.929 . S
C944 C946 1.378 . S
C944 C948 1.350 . S
C945 C948 1.463 . S
C945 C950 1.350 . S
C945 N953 1.427 . S
C946 H937 0.930 . S
C946 C944 1.378 . S
C946 C947 1.367 . S
C947 C946 1.367 . S
C947 C949 1.433 . S
C948 C944 1.350 . S
C948 C945 1.463 . S
C948 N952 1.427 . S
C949 H939 0.929 . S
C949 C947 1.433 . S
C949 N952 1.384 . S
C950 H941 0.929 . S
C950 C942 1.378 . S
C950 C945 1.350 . S
C951 H938 0.929 . S
C951 C943 1.433 . S
C951 N953 1.384 . S
N952 C948 1.427 . S
N952 C949 1.384 . S
N953 C945 1.427 . S
N953 C951 1.384 . S
H954 C960 0.930 . S
H955 C964 0.930 . S
H956 C969 0.929 . S
H957 C967 0.929 . S
H958 C962 0.929 . S
H959 C968 0.929 . S
C960 H954 0.930 . S
C960 C961 1.367 . S
C960 C968 1.378 . S
C961 C960 1.367 . S
C961 C969 1.433 . S
C962 H958 0.929 . S
C962 C964 1.378 . S
C962 C966 1.350 . S
C963 C966 1.463 . S
C963 C968 1.350 . S
C963 N971 1.427 . S
C964 H955 0.930 . S
C964 C962 1.378 . S
C964 C965 1.367 . S
C965 C964 1.367 . S
C965 C967 1.433 . S
C966 C962 1.350 . S
C966 C963 1.463 . S
C966 N970 1.427 . S
C967 H957 0.929 . S
C967 C965 1.433 . S
C967 N970 1.384 . S
C968 H959 0.929 . S
C968 C960 1.378 . S
C968 C963 1.350 . S
C969 H956 0.929 . S
C969 C961 1.433 . S
C969 N971 1.384 . S
N970 C966 1.427 . S
N970 C967 1.384 . S
N971 C963 1.427 . S
N971 C969 1.384 . S
H972 C978 0.930 . S
H973 C982 0.930 . S
H974 C987 0.929 . S
H975 C985 0.929 . S
H976 C980 0.929 . S
H977 C986 0.929 . S
C978 H972 0.930 . S
C978 C979 1.367 . S
C978 C986 1.378 . S
C979 C978 1.367 . S
C979 C987 1.433 . S
C980 H976 0.929 . S
C980 C982 1.378 . S
C980 C984 1.350 . S
C981 C984 1.463 . S
C981 C986 1.350 . S
C981 N989 1.427 . S
C982 H973 0.930 . S
C982 C980 1.378 . S
C982 C983 1.367 . S
C983 C982 1.367 . S
C983 C985 1.433 . S
C984 C980 1.350 . S
C984 C981 1.463 . S
C984 N988 1.427 . S
C985 H975 0.929 . S
C985 C983 1.433 . S
C985 N988 1.384 . S
C986 H977 0.929 . S
C986 C978 1.378 . S
C986 C981 1.350 . S
C987 H974 0.929 . S
C987 C979 1.433 . S
C987 N989 1.384 . S
N988 C984 1.427 . S
N988 C985 1.384 . S
N989 C981 1.427 . S
N989 C987 1.384 . S
H990 C996 0.930 . S
H991 C1000 0.930 . S
H992 C1005 0.929 . S
H993 C1003 0.929 . S
H994 C998 0.929 . S
H995 C1004 0.929 . S
C996 H990 0.930 . S
C996 C997 1.367 . S
C996 C1004 1.378 . S
C997 C996 1.367 . S
C997 C1005 1.433 . S
C998 H994 0.929 . S
C998 C1000 1.378 . S
C998 C1002 1.350 . S
C999 C1002 1.463 . S
C999 C1004 1.350 . S
C999 N1007 1.427 . S
C1000 H991 0.930 . S
C1000 C998 1.378 . S
C1000 C1001 1.367 . S
C1001 C1000 1.367 . S
C1001 C1003 1.433 . S
C1002 C998 1.350 . S
C1002 C999 1.463 . S
C1002 N1006 1.427 . S
C1003 H993 0.929 . S
C1003 C1001 1.433 . S
C1003 N1006 1.384 . S
C1004 H995 0.929 . S
C1004 C996 1.378 . S
C1004 C999 1.350 . S
C1005 H992 0.929 . S
C1005 C997 1.433 . S
C1005 N1007 1.384 . S
N1006 C1002 1.427 . S
N1006 C1003 1.384 . S
N1007 C999 1.427 . S
N1007 C1005 1.384 . S
H1008 C1014 0.930 . S
H1009 C1018 0.930 . S
H1010 C1023 0.929 . S
H1011 C1021 0.929 . S
H1012 C1016 0.929 . S
H1013 C1022 0.929 . S
C1014 H1008 0.930 . S
C1014 C1015 1.367 . S
C1014 C1022 1.378 . S
C1015 C1014 1.367 . S
C1015 C1023 1.433 . S
C1016 H1012 0.929 . S
C1016 C1018 1.378 . S
C1016 C1020 1.350 . S
C1017 C1020 1.463 . S
C1017 C1022 1.350 . S
C1017 N1025 1.427 . S
C1018 H1009 0.930 . S
C1018 C1016 1.378 . S
C1018 C1019 1.367 . S
C1019 C1018 1.367 . S
C1019 C1021 1.433 . S
C1020 C1016 1.350 . S
C1020 C1017 1.463 . S
C1020 N1024 1.427 . S
C1021 H1011 0.929 . S
C1021 C1019 1.433 . S
C1021 N1024 1.384 . S
C1022 H1013 0.929 . S
C1022 C1014 1.378 . S
C1022 C1017 1.350 . S
C1023 H1010 0.929 . S
C1023 C1015 1.433 . S
C1023 N1025 1.384 . S
N1024 C1020 1.427 . S
N1024 C1021 1.384 . S
N1025 C1017 1.427 . S
N1025 C1023 1.384 . S
H1026 C1032 0.930 . S
H1027 C1036 0.930 . S
H1028 C1041 0.929 . S
H1029 C1039 0.929 . S
H1030 C1034 0.929 . S
H1031 C1040 0.929 . S
C1032 H1026 0.930 . S
C1032 C1033 1.367 . S
C1032 C1040 1.378 . S
C1033 C1032 1.367 . S
C1033 C1041 1.433 . S
C1034 H1030 0.929 . S
C1034 C1036 1.378 . S
C1034 C1038 1.350 . S
C1035 C1038 1.463 . S
C1035 C1040 1.350 . S
C1035 N1043 1.427 . S
C1036 H1027 0.930 . S
C1036 C1034 1.378 . S
C1036 C1037 1.367 . S
C1037 C1036 1.367 . S
C1037 C1039 1.433 . S
C1038 C1034 1.350 . S
C1038 C1035 1.463 . S
C1038 N1042 1.427 . S
C1039 H1029 0.929 . S
C1039 C1037 1.433 . S
C1039 N1042 1.384 . S
C1040 H1031 0.929 . S
C1040 C1032 1.378 . S
C1040 C1035 1.350 . S
C1041 H1028 0.929 . S
C1041 C1033 1.433 . S
C1041 N1043 1.384 . S
N1042 C1038 1.427 . S
N1042 C1039 1.384 . S
N1043 C1035 1.427 . S
N1043 C1041 1.384 . S
H1044 C1050 0.930 . S
H1045 C1054 0.930 . S
H1046 C1059 0.929 . S
H1047 C1057 0.929 . S
H1048 C1052 0.929 . S
H1049 C1058 0.929 . S
C1050 H1044 0.930 . S
C1050 C1051 1.367 . S
C1050 C1058 1.378 . S
C1051 C1050 1.367 . S
C1051 C1059 1.433 . S
C1052 H1048 0.929 . S
C1052 C1054 1.378 . S
C1052 C1056 1.350 . S
C1053 C1056 1.463 1_456 S
C1053 C1058 1.350 . S
C1053 N1061 1.427 . S
C1054 H1045 0.930 . S
C1054 C1052 1.378 . S
C1054 C1055 1.367 . S
C1055 C1054 1.367 . S
C1055 C1057 1.433 . S
C1056 C1052 1.350 . S
C1056 C1053 1.463 1_654 S
C1056 N1060 1.427 . S
C1057 H1047 0.929 . S
C1057 C1055 1.433 . S
C1057 N1060 1.384 . S
C1058 H1049 0.929 . S
C1058 C1050 1.378 . S
C1058 C1053 1.350 . S
C1059 H1046 0.929 . S
C1059 C1051 1.433 . S
C1059 N1061 1.384 . S
N1060 C1056 1.427 . S
N1060 C1057 1.384 . S
N1061 C1053 1.427 . S
N1061 C1059 1.384 . S
H1062 C1068 0.930 . S
H1063 C1072 0.930 . S
H1064 C1077 0.929 . S
H1065 C1075 0.929 . S
H1066 C1070 0.929 . S
H1067 C1076 0.929 . S
C1068 H1062 0.930 . S
C1068 C1069 1.367 . S
C1068 C1076 1.378 . S
C1069 C1068 1.367 . S
C1069 C1077 1.433 1_556 S
C1070 H1066 0.929 . S
C1070 C1072 1.378 . S
C1070 C1074 1.350 . S
C1071 C1074 1.463 1_556 S
C1071 C1076 1.350 . S
C1071 N1079 1.427 1_556 S
C1072 H1063 0.930 . S
C1072 C1070 1.378 . S
C1072 C1073 1.367 . S
C1073 C1072 1.367 . S
C1073 C1075 1.433 1_554 S
C1074 C1070 1.350 . S
C1074 C1071 1.463 1_554 S
C1074 N1078 1.427 1_554 S
C1075 H1065 0.929 . S
C1075 C1073 1.433 1_556 S
C1075 N1078 1.384 . S
C1076 H1067 0.929 . S
C1076 C1068 1.378 . S
C1076 C1071 1.350 . S
C1077 H1064 0.929 . S
C1077 C1069 1.433 1_554 S
C1077 N1079 1.384 . S
N1078 C1074 1.427 1_556 S
N1078 C1075 1.384 . S
N1079 C1071 1.427 1_554 S
N1079 C1077 1.384 . S
H1080 C1086 0.930 . S
H1081 C1090 0.930 . S
H1082 C1095 0.929 . S
H1083 C1093 0.929 . S
H1084 C1088 0.929 . S
H1085 C1094 0.929 . S
C1086 H1080 0.930 . S
C1086 C1087 1.367 1_556 S
C1086 C1094 1.378 . S
C1087 C1086 1.367 1_554 S
C1087 C1095 1.433 . S
C1088 H1084 0.929 . S
C1088 C1090 1.378 . S
C1088 C1092 1.350 1_554 S
C1089 C1092 1.463 1_544 S
C1089 C1094 1.350 1_554 S
C1089 N1097 1.427 . S
C1090 H1081 0.930 . S
C1090 C1088 1.378 . S
C1090 C1091 1.367 1_554 S
C1091 C1090 1.367 1_556 S
C1091 C1093 1.433 . S
C1092 C1088 1.350 1_556 S
C1092 C1089 1.463 1_566 S
C1092 N1096 1.427 . S
C1093 H1083 0.929 . S
C1093 C1091 1.433 . S
C1093 N1096 1.384 . S
C1094 H1085 0.929 . S
C1094 C1086 1.378 . S
C1094 C1089 1.350 1_556 S
C1095 H1082 0.929 . S
C1095 C1087 1.433 . S
C1095 N1097 1.384 . S
N1096 C1092 1.427 . S
N1096 C1093 1.384 . S
N1097 C1089 1.427 . S
N1097 C1095 1.384 . S
H1098 C1104 0.930 . S
H1099 C1108 0.930 . S
H1100 C1113 0.929 . S
H1101 C1111 0.929 . S
H1102 C1106 0.929 . S
H1103 C1112 0.929 . S
C1104 H1098 0.930 . S
C1104 C1105 1.367 . S
C1104 C1112 1.378 . S
C1105 C1104 1.367 . S
C1105 C1113 1.433 . S
C1106 H1102 0.929 . S
C1106 C1108 1.378 . S
C1106 C1110 1.350 . S
C1107 C1110 1.463 . S
C1107 C1112 1.350 . S
C1107 N1115 1.427 . S
C1108 H1099 0.930 . S
C1108 C1106 1.378 . S
C1108 C1109 1.367 . S
C1109 C1108 1.367 . S
C1109 C1111 1.433 . S
C1110 C1106 1.350 . S
C1110 C1107 1.463 . S
C1110 N1114 1.427 . S
C1111 H1101 0.929 . S
C1111 C1109 1.433 . S
C1111 N1114 1.384 . S
C1112 H1103 0.929 . S
C1112 C1104 1.378 . S
C1112 C1107 1.350 . S
C1113 H1100 0.929 . S
C1113 C1105 1.433 . S
C1113 N1115 1.384 . S
N1114 C1110 1.427 . S
N1114 C1111 1.384 . S
N1115 C1107 1.427 . S
N1115 C1113 1.384 . S
H1116 C1122 0.930 . S
H1117 C1126 0.930 . S
H1118 C1131 0.929 . S
H1119 C1129 0.929 . S
H1120 C1124 0.929 . S
H1121 C1130 0.929 . S
C1122 H1116 0.930 . S
C1122 C1123 1.367 . S
C1122 C1130 1.378 . S
C1123 C1122 1.367 . S
C1123 C1131 1.433 . S
C1124 H1120 0.929 . S
C1124 C1126 1.378 . S
C1124 C1128 1.350 . S
C1125 C1128 1.463 1_545 S
C1125 C1130 1.350 . S
C1125 N1133 1.427 . S
C1126 H1117 0.930 . S
C1126 C1124 1.378 . S
C1126 C1127 1.367 . S
C1127 C1126 1.367 . S
C1127 C1129 1.433 . S
C1128 C1124 1.350 . S
C1128 C1125 1.463 1_565 S
C1128 N1132 1.427 . S
C1129 H1119 0.929 . S
C1129 C1127 1.433 . S
C1129 N1132 1.384 . S
C1130 H1121 0.929 . S
C1130 C1122 1.378 . S
C1130 C1125 1.350 . S
C1131 H1118 0.929 . S
C1131 C1123 1.433 . S
C1131 N1133 1.384 . S
N1132 C1128 1.427 . S
N1132 C1129 1.384 . S
N1133 C1125 1.427 . S
N1133 C1131 1.384 . S
H1134 C1140 0.930 . S
H1135 C1144 0.930 . S
H1136 C1149 0.929 . S
H1137 C1147 0.929 . S
H1138 C1142 0.929 . S
H1139 C1148 0.929 . S
C1140 H1134 0.930 . S
C1140 C1141 1.367 . S
C1140 C1148 1.378 . S
C1141 C1140 1.367 . S
C1141 C1149 1.433 . S
C1142 H1138 0.929 . S
C1142 C1144 1.378 . S
C1142 C1146 1.350 . S
C1143 C1146 1.463 1_455 S
C1143 C1148 1.350 . S
C1143 N1151 1.427 . S
C1144 H1135 0.930 . S
C1144 C1142 1.378 . S
C1144 C1145 1.367 . S
C1145 C1144 1.367 . S
C1145 C1147 1.433 . S
C1146 C1142 1.350 . S
C1146 C1143 1.463 1_655 S
C1146 N1150 1.427 . S
C1147 H1137 0.929 . S
C1147 C1145 1.433 . S
C1147 N1150 1.384 . S
C1148 H1139 0.929 . S
C1148 C1140 1.378 . S
C1148 C1143 1.350 . S
C1149 H1136 0.929 . S
C1149 C1141 1.433 . S
C1149 N1151 1.384 . S
N1150 C1146 1.427 . S
N1150 C1147 1.384 . S
N1151 C1143 1.427 . S
N1151 C1149 1.384 . S
H1152 C1158 0.930 . S
H1153 C1162 0.930 . S
H1154 C1167 0.929 . S
H1155 C1165 0.929 . S
H1156 C1160 0.929 . S
H1157 C1166 0.929 . S
C1158 H1152 0.930 . S
C1158 C1159 1.367 . S
C1158 C1166 1.378 . S
C1159 C1158 1.367 . S
C1159 C1167 1.433 . S
C1160 H1156 0.929 . S
C1160 C1162 1.378 . S
C1160 C1164 1.350 . S
C1161 C1164 1.463 . S
C1161 C1166 1.350 . S
C1161 N1169 1.427 . S
C1162 H1153 0.930 . S
C1162 C1160 1.378 . S
C1162 C1163 1.367 . S
C1163 C1162 1.367 . S
C1163 C1165 1.433 . S
C1164 C1160 1.350 . S
C1164 C1161 1.463 . S
C1164 N1168 1.427 . S
C1165 H1155 0.929 . S
C1165 C1163 1.433 . S
C1165 N1168 1.384 . S
C1166 H1157 0.929 . S
C1166 C1158 1.378 . S
C1166 C1161 1.350 . S
C1167 H1154 0.929 . S
C1167 C1159 1.433 . S
C1167 N1169 1.384 . S
N1168 C1164 1.427 . S
N1168 C1165 1.384 . S
N1169 C1161 1.427 . S
N1169 C1167 1.384 . S
H1170 C1176 0.930 . S
H1171 C1180 0.930 . S
H1172 C1185 0.929 . S
H1173 C1183 0.929 . S
H1174 C1178 0.929 . S
H1175 C1184 0.929 . S
C1176 H1170 0.930 . S
C1176 C1177 1.367 . S
C1176 C1184 1.378 . S
C1177 C1176 1.367 . S
C1177 C1185 1.433 . S
C1178 H1174 0.929 . S
C1178 C1180 1.378 . S
C1178 C1182 1.350 . S
C1179 C1182 1.463 1_565 S
C1179 C1184 1.350 . S
C1179 N1187 1.427 . S
C1180 H1171 0.930 . S
C1180 C1178 1.378 . S
C1180 C1181 1.367 . S
C1181 C1180 1.367 . S
C1181 C1183 1.433 . S
C1182 C1178 1.350 . S
C1182 C1179 1.463 1_545 S
C1182 N1186 1.427 . S
C1183 H1173 0.929 . S
C1183 C1181 1.433 . S
C1183 N1186 1.384 . S
C1184 H1175 0.929 . S
C1184 C1176 1.378 . S
C1184 C1179 1.350 . S
C1185 H1172 0.929 . S
C1185 C1177 1.433 . S
C1185 N1187 1.384 . S
N1186 C1182 1.427 . S
N1186 C1183 1.384 . S
N1187 C1179 1.427 . S
N1187 C1185 1.384 . S
H1188 C1194 0.930 . S
H1189 C1198 0.930 . S
H1190 C1203 0.929 . S
H1191 C1201 0.929 . S
H1192 C1196 0.929 1_655 S
H1193 C1202 0.929 1_455 S
C1194 H1188 0.930 . S
C1194 C1195 1.367 . S
C1194 C1202 1.378 . S
C1195 C1194 1.367 . S
C1195 C1203 1.433 . S
C1196 H1192 0.929 1_455 S
C1196 C1198 1.378 . S
C1196 C1200 1.350 . S
C1197 C1200 1.463 1_655 S
C1197 C1202 1.350 . S
C1197 N1205 1.427 . S
C1198 H1189 0.930 . S
C1198 C1196 1.378 . S
C1198 C1199 1.367 . S
C1199 C1198 1.367 . S
C1199 C1201 1.433 . S
C1200 C1196 1.350 . S
C1200 C1197 1.463 1_455 S
C1200 N1204 1.427 . S
C1201 H1191 0.929 . S
C1201 C1199 1.433 . S
C1201 N1204 1.384 . S
C1202 H1193 0.929 1_655 S
C1202 C1194 1.378 . S
C1202 C1197 1.350 . S
C1203 H1190 0.929 . S
C1203 C1195 1.433 . S
C1203 N1205 1.384 . S
N1204 C1200 1.427 . S
N1204 C1201 1.384 . S
N1205 C1197 1.427 . S
N1205 C1203 1.384 . S
H1206 C1212 0.930 . S
H1207 C1216 0.930 . S
H1208 C1221 0.929 . S
H1209 C1219 0.929 . S
H1210 C1214 0.929 . S
H1211 C1220 0.929 . S
C1212 H1206 0.930 . S
C1212 C1213 1.367 . S
C1212 C1220 1.378 . S
C1213 C1212 1.367 . S
C1213 C1221 1.433 . S
C1214 H1210 0.929 . S
C1214 C1216 1.378 . S
C1214 C1218 1.350 . S
C1215 C1218 1.463 . S
C1215 C1220 1.350 . S
C1215 N1223 1.427 . S
C1216 H1207 0.930 . S
C1216 C1214 1.378 . S
C1216 C1217 1.367 . S
C1217 C1216 1.367 . S
C1217 C1219 1.433 . S
C1218 C1214 1.350 . S
C1218 C1215 1.463 . S
C1218 N1222 1.427 . S
C1219 H1209 0.929 . S
C1219 C1217 1.433 . S
C1219 N1222 1.384 . S
C1220 H1211 0.929 . S
C1220 C1212 1.378 . S
C1220 C1215 1.350 . S
C1221 H1208 0.929 . S
C1221 C1213 1.433 . S
C1221 N1223 1.384 . S
N1222 C1218 1.427 . S
N1222 C1219 1.384 . S
N1223 C1215 1.427 . S
N1223 C1221 1.384 . S
H1224 C1230 0.930 . S
H1225 C1234 0.930 . S
H1226 C1239 0.929 . S
H1227 C1237 0.929 . S
H1228 C1232 0.929 . S
H1229 C1238 0.929 . S
C1230 H1224 0.930 . S
C1230 C1231 1.367 . S
C1230 C1238 1.378 . S
C1231 C1230 1.367 . S
C1231 C1239 1.433 . S
C1232 H1228 0.929 . S
C1232 C1234 1.378 . S
C1232 C1236 1.350 . S
C1233 C1236 1.463 . S
C1233 C1238 1.350 . S
C1233 N1241 1.427 . S
C1234 H1225 0.930 . S
C1234 C1232 1.378 . S
C1234 C1235 1.367 . S
C1235 C1234 1.367 . S
C1235 C1237 1.433 . S
C1236 C1232 1.350 . S
C1236 C1233 1.463 . S
C1236 N1240 1.427 . S
C1237 H1227 0.929 . S
C1237 C1235 1.433 . S
C1237 N1240 1.384 . S
C1238 H1229 0.929 . S
C1238 C1230 1.378 . S
C1238 C1233 1.350 . S
C1239 H1226 0.929 . S
C1239 C1231 1.433 . S
C1239 N1241 1.384 . S
N1240 C1236 1.427 . S
N1240 C1237 1.384 . S
N1241 C1233 1.427 . S
N1241 C1239 1.384 . S
H1242 C1248 0.930 . S
H1243 C1252 0.930 . S
H1244 C1257 0.929 . S
H1245 C1255 0.929 . S
H1246 C1250 0.929 . S
H1247 C1256 0.929 . S
C1248 H1242 0.930 . S
C1248 C1249 1.367 . S
C1248 C1256 1.378 . S
C1249 C1248 1.367 . S
C1249 C1257 1.433 . S
C1250 H1246 0.929 . S
C1250 C1252 1.378 . S
C1250 C1254 1.350 . S
C1251 C1254 1.463 . S
C1251 C1256 1.350 . S
C1251 N1259 1.427 . S
C1252 H1243 0.930 . S
C1252 C1250 1.378 . S
C1252 C1253 1.367 . S
C1253 C1252 1.367 . S
C1253 C1255 1.433 . S
C1254 C1250 1.350 . S
C1254 C1251 1.463 . S
C1254 N1258 1.427 . S
C1255 H1245 0.929 . S
C1255 C1253 1.433 . S
C1255 N1258 1.384 . S
C1256 H1247 0.929 . S
C1256 C1248 1.378 . S
C1256 C1251 1.350 . S
C1257 H1244 0.929 . S
C1257 C1249 1.433 . S
C1257 N1259 1.384 . S
N1258 C1254 1.427 . S
N1258 C1255 1.384 . S
N1259 C1251 1.427 . S
N1259 C1257 1.384 . S
H1260 C1266 0.930 . S
H1261 C1270 0.930 . S
H1262 C1275 0.929 . S
H1263 C1273 0.929 . S
H1264 C1268 0.929 . S
H1265 C1274 0.929 . S
C1266 H1260 0.930 . S
C1266 C1267 1.367 . S
C1266 C1274 1.378 . S
C1267 C1266 1.367 . S
C1267 C1275 1.433 . S
C1268 H1264 0.929 . S
C1268 C1270 1.378 . S
C1268 C1272 1.350 . S
C1269 C1272 1.463 . S
C1269 C1274 1.350 . S
C1269 N1277 1.427 . S
C1270 H1261 0.930 . S
C1270 C1268 1.378 . S
C1270 C1271 1.367 . S
C1271 C1270 1.367 . S
C1271 C1273 1.433 . S
C1272 C1268 1.350 . S
C1272 C1269 1.463 . S
C1272 N1276 1.427 . S
C1273 H1263 0.929 . S
C1273 C1271 1.433 . S
C1273 N1276 1.384 . S
C1274 H1265 0.929 . S
C1274 C1266 1.378 . S
C1274 C1269 1.350 . S
C1275 H1262 0.929 . S
C1275 C1267 1.433 . S
C1275 N1277 1.384 . S
N1276 C1272 1.427 . S
N1276 C1273 1.384 . S
N1277 C1269 1.427 . S
N1277 C1275 1.384 . S
H1278 C1284 0.930 . S
H1279 C1288 0.930 . S
H1280 C1293 0.929 . S
H1281 C1291 0.929 . S
H1282 C1286 0.929 . S
H1283 C1292 0.929 . S
C1284 H1278 0.930 . S
C1284 C1285 1.367 . S
C1284 C1292 1.378 . S
C1285 C1284 1.367 . S
C1285 C1293 1.433 . S
C1286 H1282 0.929 . S
C1286 C1288 1.378 . S
C1286 C1290 1.350 . S
C1287 C1290 1.463 . S
C1287 C1292 1.350 . S
C1287 N1295 1.427 . S
C1288 H1279 0.930 . S
C1288 C1286 1.378 . S
C1288 C1289 1.367 . S
C1289 C1288 1.367 . S
C1289 C1291 1.433 . S
C1290 C1286 1.350 . S
C1290 C1287 1.463 . S
C1290 N1294 1.427 . S
C1291 H1281 0.929 . S
C1291 C1289 1.433 . S
C1291 N1294 1.384 . S
C1292 H1283 0.929 . S
C1292 C1284 1.378 . S
C1292 C1287 1.350 . S
C1293 H1280 0.929 . S
C1293 C1285 1.433 . S
C1293 N1295 1.384 . S
N1294 C1290 1.427 . S
N1294 C1291 1.384 . S
N1295 C1287 1.427 . S
N1295 C1293 1.384 . S
H1296 C1302 0.930 . S
H1297 C1306 0.930 . S
H1298 C1311 0.929 . S
H1299 C1309 0.929 . S
H1300 C1304 0.929 . S
H1301 C1310 0.929 . S
C1302 H1296 0.930 . S
C1302 C1303 1.367 . S
C1302 C1310 1.378 . S
C1303 C1302 1.367 . S
C1303 C1311 1.433 . S
C1304 H1300 0.929 . S
C1304 C1306 1.378 . S
C1304 C1308 1.350 . S
C1305 C1308 1.463 . S
C1305 C1310 1.350 . S
C1305 N1313 1.427 . S
C1306 H1297 0.930 . S
C1306 C1304 1.378 . S
C1306 C1307 1.367 . S
C1307 C1306 1.367 . S
C1307 C1309 1.433 . S
C1308 C1304 1.350 . S
C1308 C1305 1.463 . S
C1308 N1312 1.427 . S
C1309 H1299 0.929 . S
C1309 C1307 1.433 . S
C1309 N1312 1.384 . S
C1310 H1301 0.929 . S
C1310 C1302 1.378 . S
C1310 C1305 1.350 . S
C1311 H1298 0.929 . S
C1311 C1303 1.433 . S
C1311 N1313 1.384 . S
N1312 C1308 1.427 . S
N1312 C1309 1.384 . S
N1313 C1305 1.427 . S
N1313 C1311 1.384 . S
H1314 C1320 0.930 . S
H1315 C1324 0.930 . S
H1316 C1329 0.929 . S
H1317 C1327 0.929 . S
H1318 C1322 0.929 . S
H1319 C1328 0.929 . S
C1320 H1314 0.930 . S
C1320 C1321 1.367 . S
C1320 C1328 1.378 . S
C1321 C1320 1.367 . S
C1321 C1329 1.433 . S
C1322 H1318 0.929 . S
C1322 C1324 1.378 . S
C1322 C1326 1.350 . S
C1323 C1326 1.463 . S
C1323 C1328 1.350 . S
C1323 N1331 1.427 . S
C1324 H1315 0.930 . S
C1324 C1322 1.378 . S
C1324 C1325 1.367 . S
C1325 C1324 1.367 . S
C1325 C1327 1.433 . S
C1326 C1322 1.350 . S
C1326 C1323 1.463 . S
C1326 N1330 1.427 . S
C1327 H1317 0.929 . S
C1327 C1325 1.433 . S
C1327 N1330 1.384 . S
C1328 H1319 0.929 . S
C1328 C1320 1.378 . S
C1328 C1323 1.350 . S
C1329 H1316 0.929 . S
C1329 C1321 1.433 . S
C1329 N1331 1.384 . S
N1330 C1326 1.427 . S
N1330 C1327 1.384 . S
N1331 C1323 1.427 . S
N1331 C1329 1.384 . S
H1332 C1338 0.930 . S
H1333 C1342 0.930 . S
H1334 C1347 0.929 . S
H1335 C1345 0.929 . S
H1336 C1340 0.929 . S
H1337 C1346 0.929 . S
C1338 H1332 0.930 . S
C1338 C1339 1.367 . S
C1338 C1346 1.378 . S
C1339 C1338 1.367 . S
C1339 C1347 1.433 . S
C1340 H1336 0.929 . S
C1340 C1342 1.378 . S
C1340 C1344 1.350 . S
C1341 C1344 1.463 . S
C1341 C1346 1.350 . S
C1341 N1349 1.427 . S
C1342 H1333 0.930 . S
C1342 C1340 1.378 . S
C1342 C1343 1.367 . S
C1343 C1342 1.367 . S
C1343 C1345 1.433 . S
C1344 C1340 1.350 . S
C1344 C1341 1.463 . S
C1344 N1348 1.427 . S
C1345 H1335 0.929 . S
C1345 C1343 1.433 . S
C1345 N1348 1.384 . S
C1346 H1337 0.929 . S
C1346 C1338 1.378 . S
C1346 C1341 1.350 . S
C1347 H1334 0.929 . S
C1347 C1339 1.433 . S
C1347 N1349 1.384 . S
N1348 C1344 1.427 . S
N1348 C1345 1.384 . S
N1349 C1341 1.427 . S
N1349 C1347 1.384 . S
H1350 C1356 0.930 . S
H1351 C1360 0.930 . S
H1352 C1365 0.929 . S
H1353 C1363 0.929 . S
H1354 C1358 0.929 . S
H1355 C1364 0.929 . S
C1356 H1350 0.930 . S
C1356 C1357 1.367 . S
C1356 C1364 1.378 . S
C1357 C1356 1.367 . S
C1357 C1365 1.433 . S
C1358 H1354 0.929 . S
C1358 C1360 1.378 . S
C1358 C1362 1.350 . S
C1359 C1362 1.463 . S
C1359 C1364 1.350 . S
C1359 N1367 1.427 . S
C1360 H1351 0.930 . S
C1360 C1358 1.378 . S
C1360 C1361 1.367 . S
C1361 C1360 1.367 . S
C1361 C1363 1.433 . S
C1362 C1358 1.350 . S
C1362 C1359 1.463 . S
C1362 N1366 1.427 . S
C1363 H1353 0.929 . S
C1363 C1361 1.433 . S
C1363 N1366 1.384 . S
C1364 H1355 0.929 . S
C1364 C1356 1.378 . S
C1364 C1359 1.350 . S
C1365 H1352 0.929 . S
C1365 C1357 1.433 . S
C1365 N1367 1.384 . S
N1366 C1362 1.427 . S
N1366 C1363 1.384 . S
N1367 C1359 1.427 . S
N1367 C1365 1.384 . S
H1368 C1374 0.930 . S
H1369 C1378 0.930 . S
H1370 C1383 0.929 . S
H1371 C1381 0.929 . S
H1372 C1376 0.929 . S
H1373 C1382 0.929 . S
C1374 H1368 0.930 . S
C1374 C1375 1.367 . S
C1374 C1382 1.378 . S
C1375 C1374 1.367 . S
C1375 C1383 1.433 . S
C1376 H1372 0.929 . S
C1376 C1378 1.378 . S
C1376 C1380 1.350 . S
C1377 C1380 1.463 . S
C1377 C1382 1.350 . S
C1377 N1385 1.427 . S
C1378 H1369 0.930 . S
C1378 C1376 1.378 . S
C1378 C1379 1.367 . S
C1379 C1378 1.367 . S
C1379 C1381 1.433 . S
C1380 C1376 1.350 . S
C1380 C1377 1.463 . S
C1380 N1384 1.427 . S
C1381 H1371 0.929 . S
C1381 C1379 1.433 . S
C1381 N1384 1.384 . S
C1382 H1373 0.929 . S
C1382 C1374 1.378 . S
C1382 C1377 1.350 . S
C1383 H1370 0.929 . S
C1383 C1375 1.433 . S
C1383 N1385 1.384 . S
N1384 C1380 1.427 . S
N1384 C1381 1.384 . S
N1385 C1377 1.427 . S
N1385 C1383 1.384 . S
H1386 C1392 0.930 . S
H1387 C1396 0.930 . S
H1388 C1401 0.929 . S
H1389 C1399 0.929 . S
H1390 C1394 0.929 . S
H1391 C1400 0.929 . S
C1392 H1386 0.930 . S
C1392 C1393 1.367 . S
C1392 C1400 1.378 . S
C1393 C1392 1.367 . S
C1393 C1401 1.433 . S
C1394 H1390 0.929 . S
C1394 C1396 1.378 . S
C1394 C1398 1.350 . S
C1395 C1398 1.463 . S
C1395 C1400 1.350 . S
C1395 N1403 1.427 . S
C1396 H1387 0.930 . S
C1396 C1394 1.378 . S
C1396 C1397 1.367 . S
C1397 C1396 1.367 . S
C1397 C1399 1.433 . S
C1398 C1394 1.350 . S
C1398 C1395 1.463 . S
C1398 N1402 1.427 . S
C1399 H1389 0.929 . S
C1399 C1397 1.433 . S
C1399 N1402 1.384 . S
C1400 H1391 0.929 . S
C1400 C1392 1.378 . S
C1400 C1395 1.350 . S
C1401 H1388 0.929 . S
C1401 C1393 1.433 . S
C1401 N1403 1.384 . S
N1402 C1398 1.427 . S
N1402 C1399 1.384 . S
N1403 C1395 1.427 . S
N1403 C1401 1.384 . S
H1404 C1410 0.930 . S
H1405 C1414 0.930 . S
H1406 C1419 0.929 . S
H1407 C1417 0.929 . S
H1408 C1412 0.929 . S
H1409 C1418 0.929 . S
C1410 H1404 0.930 . S
C1410 C1411 1.367 . S
C1410 C1418 1.378 . S
C1411 C1410 1.367 . S
C1411 C1419 1.433 . S
C1412 H1408 0.929 . S
C1412 C1414 1.378 . S
C1412 C1416 1.350 . S
C1413 C1416 1.463 . S
C1413 C1418 1.350 . S
C1413 N1421 1.427 . S
C1414 H1405 0.930 . S
C1414 C1412 1.378 . S
C1414 C1415 1.367 . S
C1415 C1414 1.367 . S
C1415 C1417 1.433 . S
C1416 C1412 1.350 . S
C1416 C1413 1.463 . S
C1416 N1420 1.427 . S
C1417 H1407 0.929 . S
C1417 C1415 1.433 . S
C1417 N1420 1.384 . S
C1418 H1409 0.929 . S
C1418 C1410 1.378 . S
C1418 C1413 1.350 . S
C1419 H1406 0.929 . S
C1419 C1411 1.433 . S
C1419 N1421 1.384 . S
N1420 C1416 1.427 . S
N1420 C1417 1.384 . S
N1421 C1413 1.427 . S
N1421 C1419 1.384 . S
C619 C122 2.334 . S
C623 C20 2.332 . S
C637 C156 2.334 . S
C641 C54 2.332 . S
C655 C88 2.333 . S
C659 C190 2.333 . S
C673 C43 0.640 . S
C677 C179 0.632 . S
C691 C111 0.640 . S
C695 C77 0.632 . S
C709 C145 0.649 . S
C713 C9 0.639 . S
C727 C224 2.334 . S
C731 C326 2.332 . S
C745 C360 2.332 . S
C749 C258 2.334 . S
C763 C292 2.333 . S
C767 C394 2.333 . S
C781 C383 0.632 . S
C785 C247 0.637 . S
C799 C315 0.644 . S
C803 C281 0.633 . S
C817 C349 0.633 . S
C821 C213 0.634 . S
C835 C530 2.332 . S
C839 C428 2.334 . S
C853 C462 2.334 . S
C857 C564 2.333 . S
C871 C598 2.334 . S
C875 C496 2.332 . S
C889 C451 0.645 . S
C893 C587 0.634 . S
C907 C519 0.644 . S
C911 C485 0.650 . S
C925 C417 0.635 . S
C929 C553 0.633 . S
C943 C611 0.898 . S
C947 C33 0.898 . S
C961 C67 0.896 . S
C965 C543 0.898 . S
C979 C577 0.898 . S
C983 C101 0.899 . S
C997 C271 0.898 . S
C1001 C135 0.898 . S
C1015 C169 0.897 . S
C1019 C305 0.897 . S
C1033 C203 0.897 . S
C1037 C237 0.898 . S
C1051 C475 0.898 . S
C1055 C339 0.897 . S
C1069 C509 0.899 . S
C1073 C373 0.898 . S
C1087 C407 0.897 . S
C1091 C441 0.896 . S
C1105 C5 1.182 . S
C1109 C107 1.189 . S
C1123 C141 1.195 . S
C1127 C39 1.187 . S
C1141 C73 1.186 . S
C1145 C175 1.196 . S
C1159 C172 2.913 . S
C1163 C36 2.912 . S
C1177 C70 2.912 . S
C1181 C104 2.912 . S
C1195 C138 2.913 . S
C1199 C2 2.912 . S
C1213 C209 1.185 . S
C1217 C311 1.185 . S
C1231 C345 1.183 . S
C1235 C243 1.197 . S
C1249 C379 1.196 . S
C1253 C277 1.185 . S
C1267 C376 2.910 1_556 S
C1271 C240 2.913 . S
C1285 C308 2.910 1_556 S
C1289 C274 2.912 . S
C1303 C342 2.911 1_556 S
C1307 C206 2.912 . S
C1321 C515 1.180 . S
C1325 C413 1.191 . S
C1339 C549 1.191 . S
C1343 C447 1.192 . S
C1357 C583 1.182 . S
C1361 C481 1.189 . S
C1375 C580 2.914 . S
C1379 C444 2.910 1_554 S
C1393 C512 2.913 . S
C1397 C478 2.911 1_554 S
C1411 C546 2.913 . S
C1415 C410 2.911 1_554 S
