# Generated by pormake.
# Topology uta, (3)-cn, num edge types: 1
# Building blocks:
#     Node 0, Type 0, BuildingBlock: WUSLED_clean_sbu_0, # of connection points: 3
#     Node 1, Type 0, BuildingBlock: WUSLED_clean_sbu_0, # of connection points: 3
#     Node 2, Type 0, BuildingBlock: WUSLED_clean_sbu_0, # of connection points: 3
#     Node 3, Type 0, BuildingBlock: WUSLED_clean_sbu_0, # of connection points: 3
#     Node 4, Type 0, BuildingBlock: WUSLED_clean_sbu_0, # of connection points: 3
#     Node 5, Type 0, BuildingBlock: WUSLED_clean_sbu_0, # of connection points: 3
#     Node 6, Type 0, BuildingBlock: WUSLED_clean_sbu_0, # of connection points: 3
#     Node 7, Type 0, BuildingBlock: WUSLED_clean_sbu_0, # of connection points: 3
#     Node 8, Type 0, BuildingBlock: WUSLED_clean_sbu_0, # of connection points: 3
#     Node 9, Type 0, BuildingBlock: WUSLED_clean_sbu_0, # of connection points: 3
#     Node 10, Type 0, BuildingBlock: WUSLED_clean_sbu_0, # of connection points: 3
#     Node 11, Type 0, BuildingBlock: WUSLED_clean_sbu_0, # of connection points: 3
#     Node 12, Type 0, BuildingBlock: WUSLED_clean_sbu_0, # of connection points: 3
#     Node 13, Type 0, BuildingBlock: WUSLED_clean_sbu_0, # of connection points: 3
#     Node 14, Type 0, BuildingBlock: WUSLED_clean_sbu_0, # of connection points: 3
#     Node 15, Type 0, BuildingBlock: WUSLED_clean_sbu_0, # of connection points: 3
#     Node 16, Type 0, BuildingBlock: WUSLED_clean_sbu_0, # of connection points: 3
#     Node 17, Type 0, BuildingBlock: WUSLED_clean_sbu_0, # of connection points: 3
#     Node 18, Type 0, BuildingBlock: WUSLED_clean_sbu_0, # of connection points: 3
#     Node 19, Type 0, BuildingBlock: WUSLED_clean_sbu_0, # of connection points: 3
#     Node 20, Type 0, BuildingBlock: WUSLED_clean_sbu_0, # of connection points: 3
#     Node 21, Type 0, BuildingBlock: WUSLED_clean_sbu_0, # of connection points: 3
#     Node 22, Type 0, BuildingBlock: WUSLED_clean_sbu_0, # of connection points: 3
#     Node 23, Type 0, BuildingBlock: WUSLED_clean_sbu_0, # of connection points: 3
#     Node 24, Type 0, BuildingBlock: WUSLED_clean_sbu_0, # of connection points: 3
#     Node 25, Type 0, BuildingBlock: WUSLED_clean_sbu_0, # of connection points: 3
#     Node 26, Type 0, BuildingBlock: WUSLED_clean_sbu_0, # of connection points: 3
#     Node 27, Type 0, BuildingBlock: WUSLED_clean_sbu_0, # of connection points: 3
#     Node 28, Type 0, BuildingBlock: WUSLED_clean_sbu_0, # of connection points: 3
#     Node 29, Type 0, BuildingBlock: WUSLED_clean_sbu_0, # of connection points: 3
#     Node 30, Type 0, BuildingBlock: WUSLED_clean_sbu_0, # of connection points: 3
#     Node 31, Type 0, BuildingBlock: WUSLED_clean_sbu_0, # of connection points: 3
#     Node 32, Type 0, BuildingBlock: WUSLED_clean_sbu_0, # of connection points: 3
#     Node 33, Type 0, BuildingBlock: WUSLED_clean_sbu_0, # of connection points: 3
#     Node 34, Type 0, BuildingBlock: WUSLED_clean_sbu_0, # of connection points: 3
#     Node 35, Type 0, BuildingBlock: WUSLED_clean_sbu_0, # of connection points: 3
#     Node 36, Type 0, BuildingBlock: WUSLED_clean_sbu_0, # of connection points: 3
#     Node 37, Type 0, BuildingBlock: WUSLED_clean_sbu_0, # of connection points: 3
#     Node 38, Type 0, BuildingBlock: WUSLED_clean_sbu_0, # of connection points: 3
#     Node 39, Type 0, BuildingBlock: WUSLED_clean_sbu_0, # of connection points: 3
#     Node 40, Type 0, BuildingBlock: WUSLED_clean_sbu_0, # of connection points: 3
#     Node 41, Type 0, BuildingBlock: WUSLED_clean_sbu_0, # of connection points: 3
#     Node 42, Type 0, BuildingBlock: WUSLED_clean_sbu_0, # of connection points: 3
#     Node 43, Type 0, BuildingBlock: WUSLED_clean_sbu_0, # of connection points: 3
#     Node 44, Type 0, BuildingBlock: WUSLED_clean_sbu_0, # of connection points: 3
#     Node 45, Type 0, BuildingBlock: WUSLED_clean_sbu_0, # of connection points: 3
#     Node 46, Type 0, BuildingBlock: WUSLED_clean_sbu_0, # of connection points: 3
#     Node 47, Type 0, BuildingBlock: WUSLED_clean_sbu_0, # of connection points: 3
#     Node 48, Type 0, BuildingBlock: WUSLED_clean_sbu_0, # of connection points: 3
#     Node 49, Type 0, BuildingBlock: WUSLED_clean_sbu_0, # of connection points: 3
#     Node 50, Type 0, BuildingBlock: WUSLED_clean_sbu_0, # of connection points: 3
#     Node 51, Type 0, BuildingBlock: WUSLED_clean_sbu_0, # of connection points: 3
#     Node 52, Type 0, BuildingBlock: WUSLED_clean_sbu_0, # of connection points: 3
#     Node 53, Type 0, BuildingBlock: WUSLED_clean_sbu_0, # of connection points: 3
#     Node 54, Type 0, BuildingBlock: WUSLED_clean_sbu_0, # of connection points: 3
#     Node 55, Type 0, BuildingBlock: WUSLED_clean_sbu_0, # of connection points: 3
#     Node 56, Type 0, BuildingBlock: WUSLED_clean_sbu_0, # of connection points: 3
#     Node 57, Type 0, BuildingBlock: WUSLED_clean_sbu_0, # of connection points: 3
#     Node 58, Type 0, BuildingBlock: WUSLED_clean_sbu_0, # of connection points: 3
#     Node 59, Type 0, BuildingBlock: WUSLED_clean_sbu_0, # of connection points: 3
#     Node 60, Type 0, BuildingBlock: WUSLED_clean_sbu_0, # of connection points: 3
#     Node 61, Type 0, BuildingBlock: WUSLED_clean_sbu_0, # of connection points: 3
#     Node 62, Type 0, BuildingBlock: WUSLED_clean_sbu_0, # of connection points: 3
#     Node 63, Type 0, BuildingBlock: WUSLED_clean_sbu_0, # of connection points: 3
#     Node 64, Type 0, BuildingBlock: WUSLED_clean_sbu_0, # of connection points: 3
#     Node 65, Type 0, BuildingBlock: WUSLED_clean_sbu_0, # of connection points: 3
#     Node 66, Type 0, BuildingBlock: WUSLED_clean_sbu_0, # of connection points: 3
#     Node 67, Type 0, BuildingBlock: WUSLED_clean_sbu_0, # of connection points: 3
#     Node 68, Type 0, BuildingBlock: WUSLED_clean_sbu_0, # of connection points: 3
#     Node 69, Type 0, BuildingBlock: WUSLED_clean_sbu_0, # of connection points: 3
#     Node 70, Type 0, BuildingBlock: WUSLED_clean_sbu_0, # of connection points: 3
#     Node 71, Type 0, BuildingBlock: WUSLED_clean_sbu_0, # of connection points: 3
#     Node 72, Type 0, BuildingBlock: WUSLED_clean_sbu_0, # of connection points: 3
#     Node 73, Type 0, BuildingBlock: WUSLED_clean_sbu_0, # of connection points: 3
#     Node 74, Type 0, BuildingBlock: WUSLED_clean_sbu_0, # of connection points: 3
#     Node 75, Type 0, BuildingBlock: WUSLED_clean_sbu_0, # of connection points: 3
#     Node 76, Type 0, BuildingBlock: WUSLED_clean_sbu_0, # of connection points: 3
#     Node 77, Type 0, BuildingBlock: WUSLED_clean_sbu_0, # of connection points: 3
#     Node 78, Type 0, BuildingBlock: WUSLED_clean_sbu_0, # of connection points: 3
#     Node 79, Type 0, BuildingBlock: WUSLED_clean_sbu_0, # of connection points: 3
#     Node 80, Type 0, BuildingBlock: WUSLED_clean_sbu_0, # of connection points: 3
#     Node 81, Type 0, BuildingBlock: WUSLED_clean_sbu_0, # of connection points: 3
#     Node 82, Type 0, BuildingBlock: WUSLED_clean_sbu_0, # of connection points: 3
#     Node 83, Type 0, BuildingBlock: WUSLED_clean_sbu_0, # of connection points: 3
#     Node 84, Type 0, BuildingBlock: WUSLED_clean_sbu_0, # of connection points: 3
#     Node 85, Type 0, BuildingBlock: WUSLED_clean_sbu_0, # of connection points: 3
#     Node 86, Type 0, BuildingBlock: WUSLED_clean_sbu_0, # of connection points: 3
#     Node 87, Type 0, BuildingBlock: WUSLED_clean_sbu_0, # of connection points: 3
#     Node 88, Type 0, BuildingBlock: WUSLED_clean_sbu_0, # of connection points: 3
#     Node 89, Type 0, BuildingBlock: WUSLED_clean_sbu_0, # of connection points: 3
#     Node 90, Type 0, BuildingBlock: WUSLED_clean_sbu_0, # of connection points: 3
#     Node 91, Type 0, BuildingBlock: WUSLED_clean_sbu_0, # of connection points: 3
#     Node 92, Type 0, BuildingBlock: WUSLED_clean_sbu_0, # of connection points: 3
#     Node 93, Type 0, BuildingBlock: WUSLED_clean_sbu_0, # of connection points: 3
#     Node 94, Type 0, BuildingBlock: WUSLED_clean_sbu_0, # of connection points: 3
#     Node 95, Type 0, BuildingBlock: WUSLED_clean_sbu_0, # of connection points: 3
#     Edge 96, Type (0, 0), BuildingBlock: XIVTED_clean_linker_0, # of connection points: 2
#     Edge 97, Type (0, 0), BuildingBlock: XIVTED_clean_linker_0, # of connection points: 2
#     Edge 98, Type (0, 0), BuildingBlock: XIVTED_clean_linker_0, # of connection points: 2
#     Edge 99, Type (0, 0), BuildingBlock: XIVTED_clean_linker_0, # of connection points: 2
#     Edge 100, Type (0, 0), BuildingBlock: XIVTED_clean_linker_0, # of connection points: 2
#     Edge 101, Type (0, 0), BuildingBlock: XIVTED_clean_linker_0, # of connection points: 2
#     Edge 102, Type (0, 0), BuildingBlock: XIVTED_clean_linker_0, # of connection points: 2
#     Edge 103, Type (0, 0), BuildingBlock: XIVTED_clean_linker_0, # of connection points: 2
#     Edge 104, Type (0, 0), BuildingBlock: XIVTED_clean_linker_0, # of connection points: 2
#     Edge 105, Type (0, 0), BuildingBlock: XIVTED_clean_linker_0, # of connection points: 2
#     Edge 106, Type (0, 0), BuildingBlock: XIVTED_clean_linker_0, # of connection points: 2
#     Edge 107, Type (0, 0), BuildingBlock: XIVTED_clean_linker_0, # of connection points: 2
#     Edge 108, Type (0, 0), BuildingBlock: XIVTED_clean_linker_0, # of connection points: 2
#     Edge 109, Type (0, 0), BuildingBlock: XIVTED_clean_linker_0, # of connection points: 2
#     Edge 110, Type (0, 0), BuildingBlock: XIVTED_clean_linker_0, # of connection points: 2
#     Edge 111, Type (0, 0), BuildingBlock: XIVTED_clean_linker_0, # of connection points: 2
#     Edge 112, Type (0, 0), BuildingBlock: XIVTED_clean_linker_0, # of connection points: 2
#     Edge 113, Type (0, 0), BuildingBlock: XIVTED_clean_linker_0, # of connection points: 2
#     Edge 114, Type (0, 0), BuildingBlock: XIVTED_clean_linker_0, # of connection points: 2
#     Edge 115, Type (0, 0), BuildingBlock: XIVTED_clean_linker_0, # of connection points: 2
#     Edge 116, Type (0, 0), BuildingBlock: XIVTED_clean_linker_0, # of connection points: 2
#     Edge 117, Type (0, 0), BuildingBlock: XIVTED_clean_linker_0, # of connection points: 2
#     Edge 118, Type (0, 0), BuildingBlock: XIVTED_clean_linker_0, # of connection points: 2
#     Edge 119, Type (0, 0), BuildingBlock: XIVTED_clean_linker_0, # of connection points: 2
#     Edge 120, Type (0, 0), BuildingBlock: XIVTED_clean_linker_0, # of connection points: 2
#     Edge 121, Type (0, 0), BuildingBlock: XIVTED_clean_linker_0, # of connection points: 2
#     Edge 122, Type (0, 0), BuildingBlock: XIVTED_clean_linker_0, # of connection points: 2
#     Edge 123, Type (0, 0), BuildingBlock: XIVTED_clean_linker_0, # of connection points: 2
#     Edge 124, Type (0, 0), BuildingBlock: XIVTED_clean_linker_0, # of connection points: 2
#     Edge 125, Type (0, 0), BuildingBlock: XIVTED_clean_linker_0, # of connection points: 2
#     Edge 126, Type (0, 0), BuildingBlock: XIVTED_clean_linker_0, # of connection points: 2
#     Edge 127, Type (0, 0), BuildingBlock: XIVTED_clean_linker_0, # of connection points: 2
#     Edge 128, Type (0, 0), BuildingBlock: XIVTED_clean_linker_0, # of connection points: 2
#     Edge 129, Type (0, 0), BuildingBlock: XIVTED_clean_linker_0, # of connection points: 2
#     Edge 130, Type (0, 0), BuildingBlock: XIVTED_clean_linker_0, # of connection points: 2
#     Edge 131, Type (0, 0), BuildingBlock: XIVTED_clean_linker_0, # of connection points: 2
#     Edge 132, Type (0, 0), BuildingBlock: XIVTED_clean_linker_0, # of connection points: 2
#     Edge 133, Type (0, 0), BuildingBlock: XIVTED_clean_linker_0, # of connection points: 2
#     Edge 134, Type (0, 0), BuildingBlock: XIVTED_clean_linker_0, # of connection points: 2
#     Edge 135, Type (0, 0), BuildingBlock: XIVTED_clean_linker_0, # of connection points: 2
#     Edge 136, Type (0, 0), BuildingBlock: XIVTED_clean_linker_0, # of connection points: 2
#     Edge 137, Type (0, 0), BuildingBlock: XIVTED_clean_linker_0, # of connection points: 2
#     Edge 138, Type (0, 0), BuildingBlock: XIVTED_clean_linker_0, # of connection points: 2
#     Edge 139, Type (0, 0), BuildingBlock: XIVTED_clean_linker_0, # of connection points: 2
#     Edge 140, Type (0, 0), BuildingBlock: XIVTED_clean_linker_0, # of connection points: 2
#     Edge 141, Type (0, 0), BuildingBlock: XIVTED_clean_linker_0, # of connection points: 2
#     Edge 142, Type (0, 0), BuildingBlock: XIVTED_clean_linker_0, # of connection points: 2
#     Edge 143, Type (0, 0), BuildingBlock: XIVTED_clean_linker_0, # of connection points: 2
#     Edge 144, Type (0, 0), BuildingBlock: XIVTED_clean_linker_0, # of connection points: 2
#     Edge 145, Type (0, 0), BuildingBlock: XIVTED_clean_linker_0, # of connection points: 2
#     Edge 146, Type (0, 0), BuildingBlock: XIVTED_clean_linker_0, # of connection points: 2
#     Edge 147, Type (0, 0), BuildingBlock: XIVTED_clean_linker_0, # of connection points: 2
#     Edge 148, Type (0, 0), BuildingBlock: XIVTED_clean_linker_0, # of connection points: 2
#     Edge 149, Type (0, 0), BuildingBlock: XIVTED_clean_linker_0, # of connection points: 2
#     Edge 150, Type (0, 0), BuildingBlock: XIVTED_clean_linker_0, # of connection points: 2
#     Edge 151, Type (0, 0), BuildingBlock: XIVTED_clean_linker_0, # of connection points: 2
#     Edge 152, Type (0, 0), BuildingBlock: XIVTED_clean_linker_0, # of connection points: 2
#     Edge 153, Type (0, 0), BuildingBlock: XIVTED_clean_linker_0, # of connection points: 2
#     Edge 154, Type (0, 0), BuildingBlock: XIVTED_clean_linker_0, # of connection points: 2
#     Edge 155, Type (0, 0), BuildingBlock: XIVTED_clean_linker_0, # of connection points: 2
#     Edge 156, Type (0, 0), BuildingBlock: XIVTED_clean_linker_0, # of connection points: 2
#     Edge 157, Type (0, 0), BuildingBlock: XIVTED_clean_linker_0, # of connection points: 2
#     Edge 158, Type (0, 0), BuildingBlock: XIVTED_clean_linker_0, # of connection points: 2
#     Edge 159, Type (0, 0), BuildingBlock: XIVTED_clean_linker_0, # of connection points: 2
#     Edge 160, Type (0, 0), BuildingBlock: XIVTED_clean_linker_0, # of connection points: 2
#     Edge 161, Type (0, 0), BuildingBlock: XIVTED_clean_linker_0, # of connection points: 2
#     Edge 162, Type (0, 0), BuildingBlock: XIVTED_clean_linker_0, # of connection points: 2
#     Edge 163, Type (0, 0), BuildingBlock: XIVTED_clean_linker_0, # of connection points: 2
#     Edge 164, Type (0, 0), BuildingBlock: XIVTED_clean_linker_0, # of connection points: 2
#     Edge 165, Type (0, 0), BuildingBlock: XIVTED_clean_linker_0, # of connection points: 2
#     Edge 166, Type (0, 0), BuildingBlock: XIVTED_clean_linker_0, # of connection points: 2
#     Edge 167, Type (0, 0), BuildingBlock: XIVTED_clean_linker_0, # of connection points: 2
#     Edge 168, Type (0, 0), BuildingBlock: XIVTED_clean_linker_0, # of connection points: 2
#     Edge 169, Type (0, 0), BuildingBlock: XIVTED_clean_linker_0, # of connection points: 2
#     Edge 170, Type (0, 0), BuildingBlock: XIVTED_clean_linker_0, # of connection points: 2
#     Edge 171, Type (0, 0), BuildingBlock: XIVTED_clean_linker_0, # of connection points: 2
#     Edge 172, Type (0, 0), BuildingBlock: XIVTED_clean_linker_0, # of connection points: 2
#     Edge 173, Type (0, 0), BuildingBlock: XIVTED_clean_linker_0, # of connection points: 2
#     Edge 174, Type (0, 0), BuildingBlock: XIVTED_clean_linker_0, # of connection points: 2
#     Edge 175, Type (0, 0), BuildingBlock: XIVTED_clean_linker_0, # of connection points: 2
#     Edge 176, Type (0, 0), BuildingBlock: XIVTED_clean_linker_0, # of connection points: 2
#     Edge 177, Type (0, 0), BuildingBlock: XIVTED_clean_linker_0, # of connection points: 2
#     Edge 178, Type (0, 0), BuildingBlock: XIVTED_clean_linker_0, # of connection points: 2
#     Edge 179, Type (0, 0), BuildingBlock: XIVTED_clean_linker_0, # of connection points: 2
#     Edge 180, Type (0, 0), BuildingBlock: XIVTED_clean_linker_0, # of connection points: 2
#     Edge 181, Type (0, 0), BuildingBlock: XIVTED_clean_linker_0, # of connection points: 2
#     Edge 182, Type (0, 0), BuildingBlock: XIVTED_clean_linker_0, # of connection points: 2
#     Edge 183, Type (0, 0), BuildingBlock: XIVTED_clean_linker_0, # of connection points: 2
#     Edge 184, Type (0, 0), BuildingBlock: XIVTED_clean_linker_0, # of connection points: 2
#     Edge 185, Type (0, 0), BuildingBlock: XIVTED_clean_linker_0, # of connection points: 2
#     Edge 186, Type (0, 0), BuildingBlock: XIVTED_clean_linker_0, # of connection points: 2
#     Edge 187, Type (0, 0), BuildingBlock: XIVTED_clean_linker_0, # of connection points: 2
#     Edge 188, Type (0, 0), BuildingBlock: XIVTED_clean_linker_0, # of connection points: 2
#     Edge 189, Type (0, 0), BuildingBlock: XIVTED_clean_linker_0, # of connection points: 2
#     Edge 190, Type (0, 0), BuildingBlock: XIVTED_clean_linker_0, # of connection points: 2
#     Edge 191, Type (0, 0), BuildingBlock: XIVTED_clean_linker_0, # of connection points: 2
#     Edge 192, Type (0, 0), BuildingBlock: XIVTED_clean_linker_0, # of connection points: 2
#     Edge 193, Type (0, 0), BuildingBlock: XIVTED_clean_linker_0, # of connection points: 2
#     Edge 194, Type (0, 0), BuildingBlock: XIVTED_clean_linker_0, # of connection points: 2
#     Edge 195, Type (0, 0), BuildingBlock: XIVTED_clean_linker_0, # of connection points: 2
#     Edge 196, Type (0, 0), BuildingBlock: XIVTED_clean_linker_0, # of connection points: 2
#     Edge 197, Type (0, 0), BuildingBlock: XIVTED_clean_linker_0, # of connection points: 2
#     Edge 198, Type (0, 0), BuildingBlock: XIVTED_clean_linker_0, # of connection points: 2
#     Edge 199, Type (0, 0), BuildingBlock: XIVTED_clean_linker_0, # of connection points: 2
#     Edge 200, Type (0, 0), BuildingBlock: XIVTED_clean_linker_0, # of connection points: 2
#     Edge 201, Type (0, 0), BuildingBlock: XIVTED_clean_linker_0, # of connection points: 2
#     Edge 202, Type (0, 0), BuildingBlock: XIVTED_clean_linker_0, # of connection points: 2
#     Edge 203, Type (0, 0), BuildingBlock: XIVTED_clean_linker_0, # of connection points: 2
#     Edge 204, Type (0, 0), BuildingBlock: XIVTED_clean_linker_0, # of connection points: 2
#     Edge 205, Type (0, 0), BuildingBlock: XIVTED_clean_linker_0, # of connection points: 2
#     Edge 206, Type (0, 0), BuildingBlock: XIVTED_clean_linker_0, # of connection points: 2
#     Edge 207, Type (0, 0), BuildingBlock: XIVTED_clean_linker_0, # of connection points: 2
#     Edge 208, Type (0, 0), BuildingBlock: XIVTED_clean_linker_0, # of connection points: 2
#     Edge 209, Type (0, 0), BuildingBlock: XIVTED_clean_linker_0, # of connection points: 2
#     Edge 210, Type (0, 0), BuildingBlock: XIVTED_clean_linker_0, # of connection points: 2
#     Edge 211, Type (0, 0), BuildingBlock: XIVTED_clean_linker_0, # of connection points: 2
#     Edge 212, Type (0, 0), BuildingBlock: XIVTED_clean_linker_0, # of connection points: 2
#     Edge 213, Type (0, 0), BuildingBlock: XIVTED_clean_linker_0, # of connection points: 2
#     Edge 214, Type (0, 0), BuildingBlock: XIVTED_clean_linker_0, # of connection points: 2
#     Edge 215, Type (0, 0), BuildingBlock: XIVTED_clean_linker_0, # of connection points: 2
#     Edge 216, Type (0, 0), BuildingBlock: XIVTED_clean_linker_0, # of connection points: 2
#     Edge 217, Type (0, 0), BuildingBlock: XIVTED_clean_linker_0, # of connection points: 2
#     Edge 218, Type (0, 0), BuildingBlock: XIVTED_clean_linker_0, # of connection points: 2
#     Edge 219, Type (0, 0), BuildingBlock: XIVTED_clean_linker_0, # of connection points: 2
#     Edge 220, Type (0, 0), BuildingBlock: XIVTED_clean_linker_0, # of connection points: 2
#     Edge 221, Type (0, 0), BuildingBlock: XIVTED_clean_linker_0, # of connection points: 2
#     Edge 222, Type (0, 0), BuildingBlock: XIVTED_clean_linker_0, # of connection points: 2
#     Edge 223, Type (0, 0), BuildingBlock: XIVTED_clean_linker_0, # of connection points: 2
#     Edge 224, Type (0, 0), BuildingBlock: XIVTED_clean_linker_0, # of connection points: 2
#     Edge 225, Type (0, 0), BuildingBlock: XIVTED_clean_linker_0, # of connection points: 2
#     Edge 226, Type (0, 0), BuildingBlock: XIVTED_clean_linker_0, # of connection points: 2
#     Edge 227, Type (0, 0), BuildingBlock: XIVTED_clean_linker_0, # of connection points: 2
#     Edge 228, Type (0, 0), BuildingBlock: XIVTED_clean_linker_0, # of connection points: 2
#     Edge 229, Type (0, 0), BuildingBlock: XIVTED_clean_linker_0, # of connection points: 2
#     Edge 230, Type (0, 0), BuildingBlock: XIVTED_clean_linker_0, # of connection points: 2
#     Edge 231, Type (0, 0), BuildingBlock: XIVTED_clean_linker_0, # of connection points: 2
#     Edge 232, Type (0, 0), BuildingBlock: XIVTED_clean_linker_0, # of connection points: 2
#     Edge 233, Type (0, 0), BuildingBlock: XIVTED_clean_linker_0, # of connection points: 2
#     Edge 234, Type (0, 0), BuildingBlock: XIVTED_clean_linker_0, # of connection points: 2
#     Edge 235, Type (0, 0), BuildingBlock: XIVTED_clean_linker_0, # of connection points: 2
#     Edge 236, Type (0, 0), BuildingBlock: XIVTED_clean_linker_0, # of connection points: 2
#     Edge 237, Type (0, 0), BuildingBlock: XIVTED_clean_linker_0, # of connection points: 2
#     Edge 238, Type (0, 0), BuildingBlock: XIVTED_clean_linker_0, # of connection points: 2
#     Edge 239, Type (0, 0), BuildingBlock: XIVTED_clean_linker_0, # of connection points: 2
# Relax obj value: 0.003
# Max RMSD: 0.010
# Mean RMSD: 0.006
data_MOF--net-uta--node1-WUSLED_clean_sbu_0--edge1-XIVTED_clean_linker_0
_symmetry_space_group_name_H-M    P1
_symmetry_Int_Tables_number       1
_symmetry_cell_setting            triclinic
loop_
_symmetry_equiv_pos_as_xyz
'x, y, z'
_cell_length_a     153.97722
_cell_length_b     155.22786
_cell_length_c     154.17452
_cell_angle_alpha  90.181476
_cell_angle_beta   90.308527
_cell_angle_gamma 90.281283
loop_
_atom_site_label
_atom_site_type_symbol
_atom_site_fract_x
_atom_site_fract_y
_atom_site_fract_z
_atom_type_partial_charge
C0 C 0.06367 0.17678 0.35162 0.0
C1 C 0.05878 0.18411 0.34957 0.0
C2 C 0.04542 0.17559 0.34981 0.0
C3 C 0.04974 0.18352 0.34866 0.0
C4 C 0.05038 0.16829 0.35197 0.0
C5 C 0.05941 0.16889 0.35286 0.0
U6 U 0.0844 0.19005 0.35352 0.0
O7 O 0.09604 0.18819 0.3617 0.0
O8 O 0.0972 0.18838 0.34751 0.0
C9 C 0.10113 0.18707 0.35498 0.0
C10 C 0.07318 0.1773 0.35248 0.0
C11 C 0.10703 0.17961 0.3554 0.0
C12 C 0.11114 0.16505 0.35122 0.0
C13 C 0.10513 0.17181 0.35112 0.0
C14 C 0.12087 0.17371 0.36007 0.0
C15 C 0.11914 0.16596 0.3556 0.0
C16 C 0.11489 0.18045 0.35995 0.0
C17 C 0.08186 0.21484 0.35359 0.0
C18 C 0.09287 0.22573 0.35061 0.0
C19 C 0.07922 0.22986 0.35712 0.0
C20 C 0.07648 0.22127 0.35695 0.0
C21 C 0.08743 0.23222 0.35391 0.0
C22 C 0.09012 0.2171 0.35047 0.0
C23 C 0.07855 0.20592 0.35319 0.0
O24 O 0.07728 0.18044 0.34572 0.0
O25 O 0.07607 0.18042 0.35989 0.0
O26 O 0.07927 0.20141 0.36035 0.0
O27 O 0.08041 0.20149 0.34617 0.0
H28 H 0.06196 0.19027 0.34861 0.0
H29 H 0.04617 0.18925 0.34688 0.0
H30 H 0.04727 0.16212 0.35305 0.0
H31 H 0.06308 0.16318 0.35451 0.0
H32 H 0.10961 0.1592 0.34767 0.0
H33 H 0.09908 0.17101 0.34759 0.0
H34 H 0.12687 0.17459 0.36366 0.0
H35 H 0.11645 0.18639 0.36334 0.0
H36 H 0.09926 0.22731 0.34817 0.0
H37 H 0.07481 0.23469 0.35959 0.0
H38 H 0.07007 0.21966 0.35935 0.0
H39 H 0.0944 0.21222 0.34788 0.0
C40 C 0.8497 0.31422 0.60438 0.0
C41 C 0.84191 0.30951 0.60463 0.0
C42 C 0.84982 0.29611 0.60245 0.0
C43 C 0.84196 0.30055 0.60369 0.0
C44 C 0.85763 0.30087 0.60235 0.0
C45 C 0.85756 0.30984 0.60329 0.0
U46 U 0.83688 0.33489 0.60458 0.0
O47 O 0.83842 0.34689 0.61211 0.0
O48 O 0.839 0.34721 0.59789 0.0
C49 C 0.83997 0.35155 0.60517 0.0
C50 C 0.84959 0.32369 0.60489 0.0
C51 C 0.84765 0.35722 0.60564 0.0
C52 C 0.8633 0.35944 0.60545 0.0
C53 C 0.85609 0.35389 0.60522 0.0
C54 C 0.85368 0.37169 0.60661 0.0
C55 C 0.86218 0.36843 0.6061 0.0
C56 C 0.8465 0.36614 0.60638 0.0
C57 C 0.81191 0.33173 0.6026 0.0
C58 C 0.80107 0.34292 0.60067 0.0
C59 C 0.79669 0.32791 0.60098 0.0
C60 C 0.80532 0.3255 0.60224 0.0
C61 C 0.79446 0.33663 0.60004 0.0
C62 C 0.80975 0.34048 0.60191 0.0
C63 C 0.82096 0.32882 0.60332 0.0
O64 O 0.84698 0.32755 0.59778 0.0
O65 O 0.8461 0.32692 0.61195 0.0
O66 O 0.8249 0.3302 0.61078 0.0
O67 O 0.82591 0.33036 0.59658 0.0
H68 H 0.83577 0.31278 0.60545 0.0
H69 H 0.83584 0.2971 0.60394 0.0
H70 H 0.86378 0.29769 0.6013 0.0
H71 H 0.86364 0.31339 0.60304 0.0
H72 H 0.86973 0.35671 0.60496 0.0
H73 H 0.8571 0.34701 0.60463 0.0
H74 H 0.85257 0.37855 0.60725 0.0
H75 H 0.84003 0.36882 0.60674 0.0
H76 H 0.79956 0.34968 0.59993 0.0
H77 H 0.79176 0.32292 0.60067 0.0
H78 H 0.80688 0.31872 0.6028 0.0
H79 H 0.81478 0.34538 0.60216 0.0
C80 C 0.67549 0.06413 0.85122 0.0
C81 C 0.68199 0.05952 0.84688 0.0
C82 C 0.675 0.04593 0.85066 0.0
C83 C 0.68172 0.05051 0.84656 0.0
C84 C 0.66855 0.05057 0.85507 0.0
C85 C 0.66878 0.05959 0.85532 0.0
U86 U 0.68843 0.08499 0.85208 0.0
O87 O 0.68647 0.09747 0.84567 0.0
O88 O 0.68667 0.09676 0.85989 0.0
C89 C 0.68542 0.10162 0.85304 0.0
C90 C 0.67576 0.07362 0.85172 0.0
C91 C 0.67802 0.10758 0.85342 0.0
C92 C 0.66277 0.111 0.85109 0.0
C93 C 0.66957 0.10501 0.85106 0.0
C94 C 0.67278 0.12209 0.85599 0.0
C95 C 0.66432 0.11965 0.85346 0.0
C96 C 0.67954 0.11612 0.85596 0.0
C97 C 0.71342 0.0827 0.85172 0.0
C98 C 0.72412 0.09384 0.84862 0.0
C99 C 0.7287 0.08027 0.85481 0.0
C100 C 0.72009 0.0774 0.85481 0.0
C101 C 0.73084 0.08851 0.85168 0.0
C102 C 0.71547 0.09097 0.84867 0.0
C103 C 0.70447 0.07931 0.8516 0.0
O104 O 0.67898 0.07682 0.85896 0.0
O105 O 0.67861 0.0776 0.84476 0.0
O106 O 0.69983 0.08091 0.84461 0.0
O107 O 0.70008 0.0802 0.85883 0.0
H108 H 0.6873 0.06288 0.84376 0.0
H109 H 0.68685 0.04713 0.84321 0.0
H110 H 0.66325 0.04724 0.85824 0.0
H111 H 0.66372 0.06302 0.85874 0.0
H112 H 0.65635 0.10891 0.84906 0.0
H113 H 0.66827 0.09842 0.84908 0.0
H114 H 0.67419 0.12864 0.85801 0.0
H115 H 0.68601 0.11822 0.85785 0.0
H116 H 0.72554 0.10026 0.84625 0.0
H117 H 0.7337 0.07593 0.85708 0.0
H118 H 0.71863 0.07099 0.85717 0.0
H119 H 0.71041 0.09518 0.84628 0.0
C120 C 0.92657 0.9622 0.10309 0.0
C121 C 0.9342 0.96711 0.10233 0.0
C122 C 0.92575 0.98036 0.10232 0.0
C123 C 0.9338 0.9761 0.10194 0.0
C124 C 0.91813 0.97538 0.10312 0.0
C125 C 0.91854 0.96638 0.1035 0.0
U126 U 0.93978 0.94165 0.103 0.0
O127 O 0.93841 0.92969 0.11051 0.0
O128 O 0.9376 0.92928 0.09631 0.0
C129 C 0.93677 0.92498 0.10359 0.0
C130 C 0.92696 0.95273 0.10341 0.0
C131 C 0.92912 0.91929 0.10411 0.0
C132 C 0.91349 0.91709 0.10488 0.0
C133 C 0.92068 0.92264 0.10451 0.0
C134 C 0.9231 0.90479 0.10446 0.0
C135 C 0.91461 0.90808 0.10481 0.0
C136 C 0.93027 0.91034 0.10411 0.0
C137 C 0.96468 0.94451 0.10129 0.0
C138 C 0.97544 0.93315 0.10241 0.0
C139 C 0.97987 0.94762 0.09852 0.0
C140 C 0.97127 0.95034 0.09908 0.0
C141 C 0.98208 0.93899 0.10017 0.0
C142 C 0.96679 0.93589 0.10294 0.0
C143 C 0.95571 0.94768 0.10183 0.0
O144 O 0.92961 0.94899 0.09625 0.0
O145 O 0.93056 0.94952 0.11044 0.0
O146 O 0.95173 0.94646 0.10926 0.0
O147 O 0.95073 0.94611 0.09505 0.0
H148 H 0.94047 0.96398 0.10203 0.0
H149 H 0.9398 0.97973 0.10145 0.0
H150 H 0.91182 0.97842 0.10333 0.0
H151 H 0.91259 0.96268 0.10406 0.0
H152 H 0.90705 0.91985 0.10505 0.0
H153 H 0.91967 0.92955 0.1045 0.0
H154 H 0.92423 0.89791 0.10453 0.0
H155 H 0.93674 0.90764 0.10382 0.0
H156 H 0.9769 0.92645 0.10365 0.0
H157 H 0.98483 0.95232 0.09693 0.0
H158 H 0.96976 0.95703 0.09781 0.0
H159 H 0.96176 0.93129 0.10464 0.0
C160 C 0.06361 0.09935 0.92226 0.0
C161 C 0.05873 0.09196 0.92425 0.0
C162 C 0.0454 0.1004 0.92412 0.0
C163 C 0.04971 0.09248 0.92518 0.0
C164 C 0.05034 0.10775 0.92201 0.0
C165 C 0.05936 0.10722 0.9211 0.0
U166 U 0.08428 0.08617 0.92146 0.0
O167 O 0.09598 0.08756 0.91339 0.0
O168 O 0.09704 0.0883 0.92758 0.0
C169 C 0.10102 0.08919 0.92011 0.0
C170 C 0.07311 0.09889 0.92147 0.0
C171 C 0.10684 0.09672 0.91935 0.0
C172 C 0.11055 0.11168 0.92248 0.0
C173 C 0.10465 0.10478 0.92285 0.0
C174 C 0.12077 0.1026 0.91489 0.0
C175 C 0.11874 0.11064 0.91859 0.0
C176 C 0.11489 0.09572 0.91529 0.0
C177 C 0.0815 0.06147 0.92344 0.0
C178 C 0.09292 0.0508 0.92197 0.0
C179 C 0.07849 0.04639 0.92636 0.0
C180 C 0.07572 0.05493 0.92587 0.0
C181 C 0.08712 0.0442 0.92443 0.0
C182 C 0.09013 0.05938 0.9215 0.0
C183 C 0.07829 0.07036 0.92298 0.0
O184 O 0.07724 0.0963 0.92847 0.0
O185 O 0.07597 0.09525 0.91434 0.0
O186 O 0.07917 0.07428 0.91549 0.0
O187 O 0.08016 0.07532 0.92966 0.0
H188 H 0.06191 0.08582 0.92517 0.0
H189 H 0.04614 0.08672 0.92691 0.0
H190 H 0.04724 0.11392 0.92102 0.0
H191 H 0.06303 0.11297 0.91952 0.0
H192 H 0.10878 0.11775 0.92544 0.0
H193 H 0.09845 0.10571 0.92599 0.0
H194 H 0.12693 0.1016 0.91169 0.0
H195 H 0.11668 0.08957 0.9125 0.0
H196 H 0.09963 0.04935 0.92051 0.0
H197 H 0.07381 0.04148 0.92812 0.0
H198 H 0.06902 0.05642 0.92736 0.0
H199 H 0.0947 0.06437 0.91964 0.0
C200 C 0.92569 0.31311 0.17208 0.0
C201 C 0.93339 0.30831 0.1719 0.0
C202 C 0.92507 0.29493 0.17272 0.0
C203 C 0.93308 0.2993 0.1722 0.0
C204 C 0.91738 0.2998 0.17292 0.0
C205 C 0.9177 0.3088 0.17259 0.0
U206 U 0.93855 0.33405 0.17188 0.0
O207 O 0.93671 0.3459 0.16427 0.0
O208 O 0.93627 0.3464 0.17849 0.0
C209 C 0.93522 0.35063 0.17119 0.0
C210 C 0.92596 0.32258 0.17176 0.0
C211 C 0.92755 0.35625 0.17074 0.0
C212 C 0.91193 0.35846 0.17122 0.0
C213 C 0.9191 0.35292 0.17142 0.0
C214 C 0.92163 0.37067 0.16958 0.0
C215 C 0.91312 0.36742 0.17036 0.0
C216 C 0.92876 0.36514 0.16977 0.0
C217 C 0.9636 0.33239 0.17318 0.0
C218 C 0.97554 0.34045 0.16675 0.0
C219 C 0.97776 0.33284 0.18026 0.0
C220 C 0.96912 0.33005 0.18005 0.0
C221 C 0.98111 0.33799 0.17356 0.0
C222 C 0.96687 0.3377 0.16657 0.0
C223 C 0.9547 0.32875 0.17283 0.0
O224 O 0.92877 0.3264 0.17886 0.0
O225 O 0.92929 0.32586 0.16466 0.0
O226 O 0.95041 0.3295 0.16548 0.0
O227 O 0.94985 0.33007 0.1797 0.0
H228 H 0.93963 0.31154 0.17154 0.0
H229 H 0.93913 0.29577 0.17215 0.0
H230 H 0.91109 0.29665 0.1732 0.0
H231 H 0.91169 0.31241 0.17272 0.0
H232 H 0.90549 0.35574 0.17192 0.0
H233 H 0.91805 0.34605 0.17219 0.0
H234 H 0.92279 0.37751 0.16875 0.0
H235 H 0.93524 0.36782 0.1692 0.0
H236 H 0.9779 0.34449 0.16154 0.0
H237 H 0.98189 0.33074 0.18554 0.0
H238 H 0.96678 0.32591 0.18518 0.0
H239 H 0.96278 0.33962 0.16118 0.0
C240 C 0.67592 0.21393 0.42396 0.0
C241 C 0.68382 0.21847 0.42421 0.0
C242 C 0.67606 0.23204 0.42591 0.0
C243 C 0.68389 0.22744 0.42517 0.0
C244 C 0.66816 0.22743 0.42557 0.0
C245 C 0.6681 0.21846 0.42461 0.0
U246 U 0.68808 0.19286 0.42181 0.0
O247 O 0.68598 0.18023 0.42788 0.0
O248 O 0.68542 0.18141 0.4137 0.0
C249 C 0.68418 0.17641 0.42045 0.0
C250 C 0.67582 0.20449 0.4231 0.0
C251 C 0.67628 0.17096 0.4202 0.0
C252 C 0.66189 0.16714 0.42545 0.0
C253 C 0.66911 0.17267 0.42552 0.0
C254 C 0.66881 0.15827 0.41457 0.0
C255 C 0.66168 0.15984 0.42 0.0
C256 C 0.67604 0.16376 0.4147 0.0
C257 C 0.71318 0.19456 0.42136 0.0
C258 C 0.72392 0.18359 0.42469 0.0
C259 C 0.7283 0.19672 0.41745 0.0
C260 C 0.71972 0.19961 0.41762 0.0
C261 C 0.73053 0.18871 0.42104 0.0
C262 C 0.71531 0.18648 0.42483 0.0
C263 C 0.70433 0.1981 0.42186 0.0
O264 O 0.67859 0.20149 0.41564 0.0
O265 O 0.67895 0.20028 0.4298 0.0
O266 O 0.69995 0.19641 0.42896 0.0
O267 O 0.69959 0.19752 0.41477 0.0
H268 H 0.68992 0.21508 0.42368 0.0
H269 H 0.69008 0.23077 0.42529 0.0
H270 H 0.66202 0.23074 0.42622 0.0
H271 H 0.66195 0.21505 0.42444 0.0
H272 H 0.65646 0.16859 0.42963 0.0
H273 H 0.6691 0.17823 0.42979 0.0
H274 H 0.6689 0.15266 0.41037 0.0
H275 H 0.68151 0.16232 0.41055 0.0
H276 H 0.7254 0.17735 0.42743 0.0
H277 H 0.73322 0.20089 0.41471 0.0
H278 H 0.71822 0.20588 0.41495 0.0
H279 H 0.71035 0.18246 0.42773 0.0
C280 C 0.85014 0.96242 0.67196 0.0
C281 C 0.84244 0.96719 0.67141 0.0
C282 C 0.85068 0.98062 0.6724 0.0
C283 C 0.8427 0.9762 0.67162 0.0
C284 C 0.85838 0.97578 0.67295 0.0
C285 C 0.8581 0.96677 0.67272 0.0
U286 U 0.8372 0.94159 0.67199 0.0
O287 O 0.83894 0.92949 0.66475 0.0
O288 O 0.83929 0.92943 0.67897 0.0
C289 C 0.84036 0.92496 0.6718 0.0
C290 C 0.84989 0.95294 0.67182 0.0
C291 C 0.84801 0.91932 0.67162 0.0
C292 C 0.86364 0.91716 0.67095 0.0
C293 C 0.85646 0.92269 0.67106 0.0
C294 C 0.85396 0.90485 0.67194 0.0
C295 C 0.86247 0.90816 0.67142 0.0
C296 C 0.84682 0.91038 0.67205 0.0
C297 C 0.81224 0.94386 0.67274 0.0
C298 C 0.80193 0.93214 0.6748 0.0
C299 C 0.79674 0.94665 0.6724 0.0
C300 C 0.8053 0.94959 0.6718 0.0
C301 C 0.79493 0.93789 0.67396 0.0
C302 C 0.81053 0.9351 0.67418 0.0
C303 C 0.82116 0.94728 0.67245 0.0
O304 O 0.84702 0.94933 0.67896 0.0
O305 O 0.8466 0.94946 0.66475 0.0
O306 O 0.82541 0.94598 0.6652 0.0
O307 O 0.82592 0.94602 0.67942 0.0
H308 H 0.83622 0.96393 0.67087 0.0
H309 H 0.83664 0.9797 0.67129 0.0
H310 H 0.86463 0.97897 0.67345 0.0
H311 H 0.86411 0.96319 0.67315 0.0
H312 H 0.87009 0.91994 0.67063 0.0
H313 H 0.8575 0.92959 0.67075 0.0
H314 H 0.8528 0.89797 0.67217 0.0
H315 H 0.84034 0.90766 0.67245 0.0
H316 H 0.80078 0.92534 0.67591 0.0
H317 H 0.79154 0.95129 0.67187 0.0
H318 H 0.80651 0.95638 0.67072 0.0
H319 H 0.81582 0.93058 0.6749 0.0
C320 C 0.35409 0.06412 0.17502 0.0
C321 C 0.35435 0.05932 0.18272 0.0
C322 C 0.35344 0.04593 0.17444 0.0
C323 C 0.35404 0.05032 0.18243 0.0
C324 C 0.35314 0.05079 0.16675 0.0
C325 C 0.35347 0.05981 0.16705 0.0
U326 U 0.35423 0.08486 0.18803 0.0
O327 O 0.3619 0.09679 0.18657 0.0
O328 O 0.34766 0.09721 0.18588 0.0
C329 C 0.35499 0.1015 0.18504 0.0
C330 C 0.35442 0.07359 0.1753 0.0
C331 C 0.35554 0.10743 0.17761 0.0
C332 C 0.35247 0.11121 0.16259 0.0
C333 C 0.35228 0.10521 0.16937 0.0
C334 C 0.35938 0.12161 0.17216 0.0
C335 C 0.35592 0.11954 0.16394 0.0
C336 C 0.35917 0.11563 0.17891 0.0
C337 C 0.35285 0.08251 0.21289 0.0
C338 C 0.35138 0.09439 0.22309 0.0
C339 C 0.35244 0.07975 0.22838 0.0
C340 C 0.35309 0.07675 0.21985 0.0
C341 C 0.35153 0.0886 0.23012 0.0
C342 C 0.35204 0.09137 0.21454 0.0
C343 C 0.35324 0.07908 0.20401 0.0
O344 O 0.3473 0.07734 0.17801 0.0
O345 O 0.36151 0.07691 0.17876 0.0
O346 O 0.36063 0.0802 0.19992 0.0
O347 O 0.34641 0.08054 0.1991 0.0
H348 H 0.35478 0.06255 0.18895 0.0
H349 H 0.35417 0.04679 0.18848 0.0
H350 H 0.35278 0.04763 0.16049 0.0
H351 H 0.35327 0.06341 0.16104 0.0
H352 H 0.34971 0.10941 0.15637 0.0
H353 H 0.34947 0.09889 0.16822 0.0
H354 H 0.36224 0.12788 0.1734 0.0
H355 H 0.36177 0.11745 0.18521 0.0
H356 H 0.35077 0.10125 0.2242 0.0
H357 H 0.35243 0.07509 0.23359 0.0
H358 H 0.35368 0.06989 0.21869 0.0
H359 H 0.35187 0.09591 0.20923 0.0
C360 C 0.92571 0.60253 0.46112 0.0
C361 C 0.93309 0.59986 0.46573 0.0
C362 C 0.92515 0.6008 0.47935 0.0
C363 C 0.93281 0.59897 0.47475 0.0
C364 C 0.91779 0.60356 0.47467 0.0
C365 C 0.91807 0.60441 0.46564 0.0
U366 U 0.93873 0.60392 0.44041 0.0
O367 O 0.93676 0.59794 0.42761 0.0
O368 O 0.93713 0.61203 0.42881 0.0
C369 C 0.93577 0.60538 0.42368 0.0
C370 C 0.92596 0.60341 0.45161 0.0
C371 C 0.92831 0.60601 0.4177 0.0
C372 C 0.91309 0.60357 0.41407 0.0
C373 C 0.91994 0.60332 0.4201 0.0
C374 C 0.92286 0.60941 0.40331 0.0
C375 C 0.9145 0.60652 0.40556 0.0
C376 C 0.92969 0.60914 0.40931 0.0
C377 C 0.96377 0.60286 0.44315 0.0
C378 C 0.97531 0.59667 0.43441 0.0
C379 C 0.97873 0.60758 0.44516 0.0
C380 C 0.96995 0.60812 0.44732 0.0
C381 C 0.98156 0.60172 0.43881 0.0
C382 C 0.9665 0.59723 0.43656 0.0
C383 C 0.95473 0.60293 0.44631 0.0
O384 O 0.92937 0.61064 0.44877 0.0
O385 O 0.92873 0.59659 0.44739 0.0
O386 O 0.9499 0.59615 0.44451 0.0
O387 O 0.95053 0.61025 0.44559 0.0
H388 H 0.93905 0.5984 0.46235 0.0
H389 H 0.93856 0.59672 0.4781 0.0
H390 H 0.91183 0.60515 0.47799 0.0
H391 H 0.91233 0.60654 0.46218 0.0
H392 H 0.90675 0.60125 0.41602 0.0
H393 H 0.91875 0.60089 0.42657 0.0
H394 H 0.92416 0.61187 0.39688 0.0
H395 H 0.93609 0.6113 0.40736 0.0
H396 H 0.97726 0.59204 0.42953 0.0
H397 H 0.98333 0.61169 0.44857 0.0
H398 H 0.968 0.61252 0.45241 0.0
H399 H 0.96187 0.59309 0.43322 0.0
C400 C 0.42238 0.21271 0.67586 0.0
C401 C 0.42288 0.21761 0.68351 0.0
C402 C 0.42301 0.23089 0.67509 0.0
C403 C 0.42321 0.22661 0.68313 0.0
C404 C 0.42248 0.22592 0.66744 0.0
C405 C 0.42217 0.21691 0.66783 0.0
U406 U 0.42149 0.19212 0.68901 0.0
O407 O 0.41398 0.18017 0.68704 0.0
O408 O 0.42821 0.17975 0.68734 0.0
C409 C 0.42096 0.17545 0.68596 0.0
C410 C 0.42204 0.20324 0.67622 0.0
C411 C 0.42088 0.16972 0.67833 0.0
C412 C 0.42095 0.16743 0.66271 0.0
C413 C 0.42099 0.17303 0.66987 0.0
C414 C 0.42068 0.15519 0.67242 0.0
C415 C 0.42082 0.15843 0.6639 0.0
C416 C 0.4207 0.16079 0.67955 0.0
C417 C 0.42121 0.19487 0.71396 0.0
C418 C 0.42399 0.18388 0.72483 0.0
C419 C 0.41827 0.19775 0.72916 0.0
C420 C 0.41831 0.20041 0.72051 0.0
C421 C 0.42115 0.18946 0.73145 0.0
C422 C 0.424 0.18655 0.71615 0.0
C423 C 0.42145 0.19807 0.70499 0.0
O424 O 0.429 0.19955 0.67947 0.0
O425 O 0.41477 0.19997 0.67921 0.0
O426 O 0.41434 0.19693 0.70036 0.0
O427 O 0.42859 0.19652 0.70062 0.0
H428 H 0.42301 0.21446 0.68977 0.0
H429 H 0.4235 0.23022 0.68915 0.0
H430 H 0.42243 0.22898 0.66114 0.0
H431 H 0.4218 0.21322 0.66186 0.0
H432 H 0.42116 0.17015 0.65626 0.0
H433 H 0.42115 0.17993 0.66881 0.0
H434 H 0.42043 0.14832 0.67359 0.0
H435 H 0.42058 0.15812 0.68603 0.0
H436 H 0.42616 0.17743 0.72635 0.0
H437 H 0.41617 0.20227 0.73407 0.0
H438 H 0.41617 0.20686 0.71895 0.0
H439 H 0.42623 0.18217 0.71117 0.0
C440 C 0.81323 0.67276 0.92588 0.0
C441 C 0.80845 0.67211 0.93358 0.0
C442 C 0.795 0.67483 0.92565 0.0
C443 C 0.79943 0.67311 0.93346 0.0
C444 C 0.79983 0.67538 0.91793 0.0
C445 C 0.80887 0.67436 0.91806 0.0
U446 U 0.83405 0.67185 0.93887 0.0
O447 O 0.8458 0.66392 0.9374 0.0
O448 O 0.84676 0.67804 0.93694 0.0
C449 C 0.85081 0.67065 0.93598 0.0
C450 C 0.82275 0.67203 0.92607 0.0
C451 C 0.85671 0.67002 0.92851 0.0
C452 C 0.86047 0.67311 0.91351 0.0
C453 C 0.85449 0.67336 0.92034 0.0
C454 C 0.87082 0.66595 0.92288 0.0
C455 C 0.86876 0.6695 0.91473 0.0
C456 C 0.86486 0.66623 0.92968 0.0
C457 C 0.83112 0.67343 0.96378 0.0
C458 C 0.8426 0.673 0.97467 0.0
C459 C 0.8277 0.67539 0.97901 0.0
C460 C 0.82505 0.67485 0.97035 0.0
C461 C 0.8365 0.67451 0.98129 0.0
C462 C 0.83992 0.67249 0.96597 0.0
C463 C 0.82803 0.67307 0.95475 0.0
O464 O 0.82688 0.67896 0.92882 0.0
O465 O 0.82578 0.66489 0.92948 0.0
O466 O 0.82902 0.66569 0.95067 0.0
O467 O 0.8299 0.67978 0.94993 0.0
H468 H 0.81171 0.67089 0.9397 0.0
H469 H 0.79593 0.67251 0.9395 0.0
H470 H 0.79667 0.6768 0.91182 0.0
H471 H 0.81246 0.67492 0.91206 0.0
H472 H 0.85868 0.67595 0.90735 0.0
H473 H 0.84821 0.6763 0.91929 0.0
H474 H 0.87706 0.66296 0.92402 0.0
H475 H 0.86668 0.66356 0.93592 0.0
H476 H 0.84943 0.67236 0.9762 0.0
H477 H 0.82281 0.6764 0.98393 0.0
H478 H 0.81822 0.67556 0.96878 0.0
H479 H 0.8447 0.67141 0.96096 0.0
C480 C 0.35224 0.17805 0.0631 0.0
C481 C 0.35231 0.18581 0.05847 0.0
C482 C 0.34993 0.178 0.0449 0.0
C483 C 0.35118 0.18579 0.04946 0.0
C484 C 0.34998 0.17022 0.04959 0.0
C485 C 0.35111 0.17026 0.05861 0.0
U486 U 0.35371 0.19062 0.08408 0.0
O487 O 0.34761 0.18856 0.09676 0.0
O488 O 0.36183 0.18886 0.09576 0.0
C489 C 0.35509 0.18748 0.10077 0.0
C490 C 0.35312 0.1781 0.07261 0.0
C491 C 0.35566 0.18001 0.10662 0.0
C492 C 0.35252 0.16506 0.11021 0.0
C493 C 0.35235 0.17188 0.10427 0.0
C494 C 0.3595 0.17437 0.1208 0.0
C495 C 0.35598 0.16626 0.11861 0.0
C496 C 0.35932 0.18116 0.11488 0.0
C497 C 0.35264 0.21539 0.08182 0.0
C498 C 0.3516 0.22563 0.09374 0.0
C499 C 0.35241 0.23076 0.07894 0.0
C500 C 0.35286 0.22226 0.07596 0.0
C501 C 0.35173 0.23257 0.08786 0.0
C502 C 0.35206 0.2171 0.09074 0.0
C503 C 0.35276 0.20654 0.0784 0.0
O504 O 0.36042 0.18137 0.07563 0.0
O505 O 0.34625 0.18085 0.0768 0.0
O506 O 0.34591 0.20178 0.08014 0.0
O507 O 0.36011 0.20237 0.07923 0.0
H508 H 0.35318 0.1919 0.06183 0.0
H509 H 0.35131 0.19189 0.04606 0.0
H510 H 0.34893 0.16412 0.04632 0.0
H511 H 0.35101 0.16421 0.06209 0.0
H512 H 0.34971 0.15892 0.10832 0.0
H513 H 0.34951 0.17085 0.0979 0.0
H514 H 0.36238 0.1755 0.12713 0.0
H515 H 0.36195 0.18738 0.1168 0.0
H516 H 0.35116 0.22679 0.10065 0.0
H517 H 0.35237 0.2359 0.0742 0.0
H518 H 0.35326 0.22105 0.06905 0.0
H519 H 0.35189 0.21186 0.09536 0.0
C520 C 0.81267 0.6051 0.3473 0.0
C521 C 0.8079 0.60508 0.33953 0.0
C522 C 0.79442 0.60313 0.34754 0.0
C523 C 0.79886 0.60412 0.33965 0.0
C524 C 0.79925 0.60329 0.35533 0.0
C525 C 0.8083 0.60426 0.3552 0.0
U526 U 0.83351 0.60443 0.33452 0.0
O527 O 0.84565 0.61197 0.33559 0.0
O528 O 0.84588 0.5979 0.33706 0.0
C529 C 0.85031 0.60516 0.33753 0.0
C530 C 0.82222 0.6056 0.34715 0.0
C531 C 0.85627 0.60604 0.345 0.0
C532 C 0.85992 0.60381 0.36021 0.0
C533 C 0.85386 0.60348 0.35338 0.0
C534 C 0.87073 0.6095 0.35039 0.0
C535 C 0.86848 0.60669 0.35876 0.0
C536 C 0.8647 0.60916 0.34359 0.0
C537 C 0.83077 0.60071 0.3098 0.0
C538 C 0.84135 0.60291 0.29834 0.0
C539 C 0.82852 0.59421 0.29561 0.0
C540 C 0.82576 0.59566 0.3041 0.0
C541 C 0.83635 0.59779 0.29262 0.0
C542 C 0.8386 0.60433 0.30688 0.0
C543 C 0.82755 0.60208 0.31868 0.0
O544 O 0.82609 0.59838 0.34504 0.0
O545 O 0.82548 0.61236 0.34317 0.0
O546 O 0.82885 0.60974 0.32213 0.0
O547 O 0.82892 0.59574 0.32414 0.0
H548 H 0.81117 0.6057 0.33336 0.0
H549 H 0.79536 0.60416 0.33354 0.0
H550 H 0.79607 0.60243 0.36152 0.0
H551 H 0.81189 0.60421 0.36126 0.0
H552 H 0.85797 0.60155 0.36655 0.0
H553 H 0.84737 0.60107 0.35461 0.0
H554 H 0.8772 0.61192 0.34906 0.0
H555 H 0.86666 0.61121 0.33718 0.0
H556 H 0.84745 0.6057 0.29625 0.0
H557 H 0.82444 0.59035 0.29135 0.0
H558 H 0.81968 0.59285 0.30622 0.0
H559 H 0.84258 0.60822 0.3112 0.0
C560 C 0.42281 0.0641 0.59916 0.0
C561 C 0.42382 0.0593 0.5915 0.0
C562 C 0.42334 0.04592 0.59974 0.0
C563 C 0.42409 0.0503 0.59179 0.0
C564 C 0.42233 0.05079 0.60739 0.0
C565 C 0.42207 0.05979 0.60709 0.0
U566 U 0.42269 0.08507 0.58647 0.0
O567 O 0.41506 0.09689 0.58831 0.0
O568 O 0.42928 0.09744 0.58903 0.0
C569 C 0.42196 0.10164 0.59 0.0
C570 C 0.42249 0.07357 0.59893 0.0
C571 C 0.42144 0.10718 0.59775 0.0
C572 C 0.42094 0.10915 0.61339 0.0
C573 C 0.42131 0.10371 0.60613 0.0
C574 C 0.42078 0.12158 0.60393 0.0
C575 C 0.42067 0.11817 0.61238 0.0
C576 C 0.42116 0.11614 0.5967 0.0
C577 C 0.42408 0.08349 0.56144 0.0
C578 C 0.41769 0.09165 0.54956 0.0
C579 C 0.43109 0.08387 0.54734 0.0
C580 C 0.43089 0.08108 0.55594 0.0
C581 C 0.42444 0.08911 0.54401 0.0
C582 C 0.41752 0.08889 0.5582 0.0
C583 C 0.42372 0.07983 0.57029 0.0
O584 O 0.42962 0.07741 0.59627 0.0
O585 O 0.41541 0.07683 0.59549 0.0
O586 O 0.41634 0.08055 0.57448 0.0
O587 O 0.43058 0.08118 0.57524 0.0
H588 H 0.42436 0.06253 0.58531 0.0
H589 H 0.42476 0.04676 0.58577 0.0
H590 H 0.42185 0.04765 0.61363 0.0
H591 H 0.42131 0.0634 0.61307 0.0
H592 H 0.42077 0.1063 0.61979 0.0
H593 H 0.42151 0.09679 0.60706 0.0
H594 H 0.42073 0.12848 0.60289 0.0
H595 H 0.42129 0.11894 0.59027 0.0
H596 H 0.41252 0.09576 0.54723 0.0
H597 H 0.43632 0.08171 0.54321 0.0
H598 H 0.43598 0.07686 0.55826 0.0
H599 H 0.41219 0.09089 0.56229 0.0
C600 C 0.92613 0.67346 0.81311 0.0
C601 C 0.93394 0.67379 0.80847 0.0
C602 C 0.92594 0.67582 0.79495 0.0
C603 C 0.93384 0.67494 0.79948 0.0
C604 C 0.91812 0.67536 0.79963 0.0
C605 C 0.91823 0.6742 0.80864 0.0
U606 U 0.9391 0.67234 0.83389 0.0
O607 O 0.93717 0.67837 0.84665 0.0
O608 O 0.93767 0.66427 0.84555 0.0
C609 C 0.93625 0.67094 0.85062 0.0
C610 C 0.92628 0.67258 0.82261 0.0
C611 C 0.92881 0.67021 0.85656 0.0
C612 C 0.91386 0.67331 0.86053 0.0
C613 C 0.92062 0.67361 0.85448 0.0
C614 C 0.92331 0.66599 0.87068 0.0
C615 C 0.91516 0.66961 0.86876 0.0
C616 C 0.93005 0.6663 0.86465 0.0
C617 C 0.96403 0.67415 0.83094 0.0
C618 C 0.97498 0.67354 0.84235 0.0
C619 C 0.97924 0.67637 0.82752 0.0
C620 C 0.97057 0.67581 0.82489 0.0
C621 C 0.98156 0.6753 0.83629 0.0
C622 C 0.96626 0.67299 0.8397 0.0
C623 C 0.95498 0.67375 0.82787 0.0
O624 O 0.92974 0.66542 0.82553 0.0
O625 O 0.92897 0.67946 0.82684 0.0
O626 O 0.95012 0.68041 0.82981 0.0
O627 O 0.95094 0.66633 0.82879 0.0
H628 H 0.94011 0.67321 0.81182 0.0
H629 H 0.93998 0.67513 0.79608 0.0
H630 H 0.91192 0.67611 0.79637 0.0
H631 H 0.91214 0.67399 0.81213 0.0
H632 H 0.90769 0.67621 0.85885 0.0
H633 H 0.91952 0.67664 0.84825 0.0
H634 H 0.92451 0.66293 0.87687 0.0
H635 H 0.9363 0.66359 0.86636 0.0
H636 H 0.97654 0.67273 0.84916 0.0
H637 H 0.98414 0.67758 0.82266 0.0
H638 H 0.96896 0.67668 0.8181 0.0
H639 H 0.96127 0.67172 0.84446 0.0
C640 C 0.17598 0.35327 0.0637 0.0
C641 C 0.1836 0.35345 0.05875 0.0
C642 C 0.17508 0.35252 0.04541 0.0
C643 C 0.18316 0.35309 0.04969 0.0
C644 C 0.16746 0.35232 0.05042 0.0
C645 C 0.16791 0.3527 0.05948 0.0
U646 U 0.1894 0.35338 0.08434 0.0
O647 O 0.18819 0.36099 0.09636 0.0
O648 O 0.18748 0.34686 0.09682 0.0
C649 C 0.18668 0.35414 0.10113 0.0
C650 C 0.17643 0.35362 0.07323 0.0
C651 C 0.17925 0.3547 0.10708 0.0
C652 C 0.16412 0.35191 0.1107 0.0
C653 C 0.17095 0.35169 0.10471 0.0
C654 C 0.17378 0.35833 0.12138 0.0
C655 C 0.16548 0.35513 0.11915 0.0
C656 C 0.18057 0.3581 0.11541 0.0
C657 C 0.21426 0.35182 0.0813 0.0
C658 C 0.22512 0.35247 0.0928 0.0
C659 C 0.22949 0.34962 0.078 0.0
C660 C 0.22084 0.35015 0.0753 0.0
C661 C 0.23175 0.35074 0.08678 0.0
C662 C 0.21643 0.35298 0.09008 0.0
C663 C 0.20524 0.35227 0.07817 0.0
O664 O 0.17918 0.34655 0.07698 0.0
O665 O 0.18 0.36064 0.07648 0.0
O666 O 0.20124 0.35963 0.0794 0.0
O667 O 0.20034 0.34552 0.0798 0.0
H668 H 0.1899 0.35384 0.06191 0.0
H669 H 0.18915 0.35314 0.04605 0.0
H670 H 0.16113 0.35198 0.04733 0.0
H671 H 0.16197 0.35256 0.0632 0.0
H672 H 0.15785 0.34934 0.10877 0.0
H673 H 0.16978 0.34906 0.09829 0.0
H674 H 0.17503 0.36102 0.12776 0.0
H675 H 0.18692 0.3605 0.11735 0.0
H676 H 0.22664 0.35331 0.09962 0.0
H677 H 0.23442 0.34843 0.07317 0.0
H678 H 0.21928 0.34926 0.06849 0.0
H679 H 0.21142 0.35426 0.09481 0.0
C680 C 0.67742 0.42261 0.2126 0.0
C681 C 0.68526 0.423 0.21726 0.0
C682 C 0.67735 0.42494 0.23078 0.0
C683 C 0.68523 0.42415 0.22626 0.0
C684 C 0.6695 0.42444 0.22606 0.0
C685 C 0.66954 0.4233 0.21705 0.0
U686 U 0.69005 0.42129 0.19168 0.0
O687 O 0.68828 0.41314 0.18006 0.0
O688 O 0.68787 0.42723 0.17895 0.0
C689 C 0.68681 0.41978 0.175 0.0
C690 C 0.67746 0.4217 0.20309 0.0
C691 C 0.67926 0.41904 0.1691 0.0
C692 C 0.66449 0.42272 0.16485 0.0
C693 C 0.67131 0.42304 0.17091 0.0
C694 C 0.67341 0.41418 0.15524 0.0
C695 C 0.66551 0.4184 0.15687 0.0
C696 C 0.6802 0.41452 0.16128 0.0
C697 C 0.71499 0.42281 0.19392 0.0
C698 C 0.72512 0.42429 0.18197 0.0
C699 C 0.73052 0.42304 0.1967 0.0
C700 C 0.72201 0.42244 0.19972 0.0
C701 C 0.73221 0.42403 0.18779 0.0
C702 C 0.71658 0.42367 0.18501 0.0
C703 C 0.70612 0.42255 0.19739 0.0
O704 O 0.68016 0.42854 0.19887 0.0
O705 O 0.68082 0.4145 0.20015 0.0
O706 O 0.70196 0.41517 0.19662 0.0
O707 O 0.70124 0.42925 0.19561 0.0
H708 H 0.69141 0.42248 0.21392 0.0
H709 H 0.69139 0.42438 0.22968 0.0
H710 H 0.66332 0.42514 0.2293 0.0
H711 H 0.66343 0.42304 0.21354 0.0
H712 H 0.65852 0.42608 0.1663 0.0
H713 H 0.67043 0.42655 0.17693 0.0
H714 H 0.67437 0.41065 0.14926 0.0
H715 H 0.68627 0.41135 0.15978 0.0
H716 H 0.72618 0.42496 0.17507 0.0
H717 H 0.73578 0.42297 0.20139 0.0
H718 H 0.72089 0.42181 0.20662 0.0
H719 H 0.71122 0.42395 0.18044 0.0
C720 C 0.60284 0.96205 0.42638 0.0
C721 C 0.602 0.96695 0.43399 0.0
C722 C 0.60225 0.98022 0.42557 0.0
C723 C 0.6017 0.97595 0.43359 0.0
C724 C 0.60311 0.97526 0.41796 0.0
C725 C 0.60339 0.96626 0.41837 0.0
U726 U 0.60286 0.94143 0.43951 0.0
O727 O 0.59606 0.92909 0.43739 0.0
O728 O 0.6103 0.92946 0.43796 0.0
C729 C 0.60332 0.92477 0.43643 0.0
C730 C 0.6031 0.95259 0.42674 0.0
C731 C 0.60369 0.91909 0.42878 0.0
C732 C 0.60409 0.91689 0.41316 0.0
C733 C 0.60383 0.92245 0.42034 0.0
C734 C 0.60408 0.9046 0.4228 0.0
C735 C 0.60418 0.90789 0.4143 0.0
C736 C 0.60384 0.91015 0.42995 0.0
C737 C 0.60166 0.94398 0.46439 0.0
C738 C 0.59988 0.93225 0.47465 0.0
C739 C 0.60157 0.9469 0.47987 0.0
C740 C 0.60222 0.9498 0.47133 0.0
C741 C 0.60034 0.9381 0.48165 0.0
C742 C 0.60054 0.93517 0.46608 0.0
C743 C 0.60205 0.94732 0.45549 0.0
O744 O 0.61017 0.94933 0.43021 0.0
O745 O 0.59596 0.94887 0.42952 0.0
O746 O 0.59516 0.94585 0.45062 0.0
O747 O 0.6094 0.94613 0.45136 0.0
H748 H 0.60159 0.9638 0.44024 0.0
H749 H 0.60116 0.97956 0.43959 0.0
H750 H 0.60344 0.97832 0.41167 0.0
H751 H 0.60402 0.96257 0.41243 0.0
H752 H 0.60406 0.91965 0.40672 0.0
H753 H 0.6037 0.92935 0.41932 0.0
H754 H 0.60429 0.89772 0.42394 0.0
H755 H 0.60376 0.90745 0.43643 0.0
H756 H 0.59902 0.92542 0.47579 0.0
H757 H 0.6018 0.95161 0.48506 0.0
H758 H 0.60305 0.95663 0.47013 0.0
H759 H 0.60012 0.93058 0.46079 0.0
C760 C 0.06339 0.85293 0.67669 0.0
C761 C 0.05875 0.85266 0.68449 0.0
C762 C 0.04515 0.85083 0.6765 0.0
C763 C 0.04973 0.85164 0.6844 0.0
C764 C 0.04985 0.85121 0.66869 0.0
C765 C 0.05889 0.85224 0.66879 0.0
U766 U 0.08445 0.85406 0.68938 0.0
O767 O 0.0971 0.84795 0.68717 0.0
O768 O 0.09618 0.86205 0.68767 0.0
C769 C 0.10114 0.85536 0.68613 0.0
C770 C 0.07292 0.85371 0.67679 0.0
C771 C 0.10679 0.85601 0.67847 0.0
C772 C 0.10951 0.85395 0.66307 0.0
C773 C 0.10389 0.8535 0.67018 0.0
C774 C 0.12091 0.85954 0.67244 0.0
C775 C 0.1181 0.85696 0.66412 0.0
C776 C 0.11531 0.85906 0.67953 0.0
C777 C 0.08231 0.85276 0.71432 0.0
C778 C 0.09425 0.85141 0.72459 0.0
C779 C 0.07949 0.85263 0.72979 0.0
C780 C 0.07648 0.85316 0.72125 0.0
C781 C 0.0884 0.8517 0.73159 0.0
C782 C 0.09122 0.85195 0.71602 0.0
C783 C 0.07884 0.85298 0.70542 0.0
O784 O 0.07599 0.8609 0.68017 0.0
O785 O 0.07706 0.84684 0.67949 0.0
O786 O 0.08053 0.84623 0.70056 0.0
O787 O 0.07968 0.86032 0.70127 0.0
H788 H 0.06213 0.8532 0.69065 0.0
H789 H 0.04632 0.8515 0.69053 0.0
H790 H 0.04656 0.8505 0.6625 0.0
H791 H 0.06238 0.8524 0.66271 0.0
H792 H 0.10711 0.852 0.65674 0.0
H793 H 0.09732 0.85116 0.66923 0.0
H794 H 0.1275 0.86176 0.67352 0.0
H795 H 0.11766 0.861 0.68588 0.0
H796 H 0.10116 0.85078 0.72574 0.0
H797 H 0.07478 0.85273 0.73498 0.0
H798 H 0.06957 0.85375 0.72005 0.0
H799 H 0.09581 0.85165 0.71072 0.0
C800 C 0.67208 0.35094 0.46174 0.0
C801 C 0.67178 0.34337 0.46668 0.0
C802 C 0.67263 0.35179 0.48004 0.0
C803 C 0.67203 0.34379 0.47575 0.0
C804 C 0.67296 0.35936 0.47503 0.0
C805 C 0.67268 0.35893 0.46596 0.0
U806 U 0.6724 0.33774 0.44105 0.0
O807 O 0.66485 0.33892 0.42893 0.0
O808 O 0.67908 0.33988 0.42866 0.0
C809 C 0.67177 0.34061 0.42427 0.0
C810 C 0.67185 0.35053 0.45221 0.0
C811 C 0.67113 0.34813 0.41849 0.0
C812 C 0.67285 0.36346 0.41565 0.0
C813 C 0.67335 0.35645 0.42135 0.0
C814 C 0.66779 0.3539 0.40423 0.0
C815 C 0.67007 0.36226 0.40701 0.0
C816 C 0.66832 0.34692 0.40992 0.0
C817 C 0.67422 0.31304 0.44414 0.0
C818 C 0.67329 0.30209 0.43285 0.0
C819 C 0.67686 0.29803 0.4476 0.0
C820 C 0.67628 0.30664 0.45018 0.0
C821 C 0.67539 0.29563 0.43891 0.0
C822 C 0.67273 0.31074 0.43545 0.0
C823 C 0.67363 0.32201 0.44718 0.0
O824 O 0.67906 0.34791 0.44855 0.0
O825 O 0.66486 0.34691 0.44884 0.0
O826 O 0.66618 0.3259 0.44584 0.0
O827 O 0.6804 0.32694 0.44562 0.0
H828 H 0.67137 0.33714 0.46352 0.0
H829 H 0.67189 0.33784 0.47939 0.0
H830 H 0.67332 0.36563 0.47812 0.0
H831 H 0.67291 0.36484 0.46224 0.0
H832 H 0.67457 0.36982 0.41803 0.0
H833 H 0.6755 0.35753 0.42798 0.0
H834 H 0.66573 0.35271 0.39761 0.0
H835 H 0.6666 0.34054 0.40758 0.0
H836 H 0.67219 0.30047 0.42609 0.0
H837 H 0.67834 0.29323 0.45247 0.0
H838 H 0.67741 0.3083 0.45693 0.0
H839 H 0.67115 0.31562 0.43069 0.0
C840 C 0.06414 0.92335 0.09799 0.0
C841 C 0.05944 0.92334 0.09017 0.0
C842 C 0.04594 0.92556 0.09805 0.0
C843 C 0.05043 0.92442 0.0902 0.0
C844 C 0.0507 0.92546 0.10588 0.0
C845 C 0.05972 0.92437 0.10584 0.0
U846 U 0.0851 0.92224 0.08539 0.0
O847 O 0.09785 0.92828 0.08769 0.0
O848 O 0.09673 0.91419 0.08706 0.0
C849 C 0.1018 0.92085 0.08867 0.0
C850 C 0.07366 0.92253 0.09794 0.0
C851 C 0.10751 0.92011 0.09632 0.0
C852 C 0.11044 0.92206 0.11173 0.0
C853 C 0.10476 0.92261 0.10462 0.0
C854 C 0.12161 0.91639 0.10233 0.0
C855 C 0.11896 0.91896 0.11066 0.0
C856 C 0.11595 0.91697 0.09524 0.0
C857 C 0.08283 0.92373 0.06047 0.0
C858 C 0.09477 0.92514 0.0503 0.0
C859 C 0.07998 0.92394 0.04497 0.0
C860 C 0.07699 0.92337 0.05349 0.0
C861 C 0.0889 0.92488 0.04326 0.0
C862 C 0.09175 0.92456 0.05885 0.0
C863 C 0.07939 0.92346 0.06934 0.0
O864 O 0.07663 0.91536 0.09453 0.0
O865 O 0.07788 0.92942 0.09531 0.0
O866 O 0.0812 0.93017 0.07426 0.0
O867 O 0.08015 0.91609 0.07344 0.0
H868 H 0.06276 0.92255 0.08404 0.0
H869 H 0.04698 0.92433 0.08406 0.0
H870 H 0.04748 0.92643 0.11203 0.0
H871 H 0.06326 0.92443 0.11194 0.0
H872 H 0.10816 0.92401 0.11807 0.0
H873 H 0.09824 0.92502 0.10559 0.0
H874 H 0.12815 0.9141 0.10123 0.0
H875 H 0.11819 0.91503 0.08888 0.0
H876 H 0.10168 0.92578 0.04922 0.0
H877 H 0.07526 0.92386 0.03974 0.0
H878 H 0.07007 0.92276 0.05463 0.0
H879 H 0.09636 0.92483 0.06418 0.0
C880 C 0.60266 0.81399 0.34918 0.0
C881 C 0.60301 0.80939 0.34135 0.0
C882 C 0.60064 0.79589 0.34905 0.0
C883 C 0.60203 0.80043 0.34128 0.0
C884 C 0.60041 0.80055 0.3569 0.0
C885 C 0.60141 0.80952 0.35696 0.0
U886 U 0.60388 0.83489 0.33671 0.0
O887 O 0.59742 0.84733 0.33877 0.0
O888 O 0.61165 0.84666 0.3388 0.0
C889 C 0.60477 0.85147 0.34011 0.0
C890 C 0.60333 0.82345 0.34921 0.0
C891 C 0.60507 0.85702 0.34787 0.0
C892 C 0.60514 0.85895 0.36353 0.0
C893 C 0.60495 0.85352 0.35625 0.0
C894 C 0.60559 0.8714 0.35411 0.0
C895 C 0.60546 0.86797 0.36255 0.0
C896 C 0.6054 0.86598 0.34686 0.0
C897 C 0.60329 0.83261 0.31172 0.0
C898 C 0.60161 0.84428 0.30136 0.0
C899 C 0.60386 0.82969 0.29625 0.0
C900 C 0.60426 0.82681 0.30482 0.0
C901 C 0.60247 0.83845 0.2944 0.0
C902 C 0.60202 0.84138 0.30996 0.0
C903 C 0.60333 0.82925 0.32062 0.0
O904 O 0.61062 0.82662 0.34613 0.0
O905 O 0.59642 0.82746 0.34628 0.0
O906 O 0.59636 0.83082 0.32523 0.0
O907 O 0.6106 0.83024 0.32503 0.0
H908 H 0.60397 0.81274 0.33527 0.0
H909 H 0.60237 0.79706 0.33513 0.0
H910 H 0.59925 0.79729 0.36299 0.0
H911 H 0.60108 0.81298 0.36306 0.0
H912 H 0.60513 0.85608 0.36992 0.0
H913 H 0.60471 0.8466 0.35714 0.0
H914 H 0.6057 0.8783 0.3531 0.0
H915 H 0.60546 0.86879 0.34043 0.0
H916 H 0.60062 0.85107 0.30017 0.0
H917 H 0.6044 0.82499 0.29108 0.0
H918 H 0.6052 0.82001 0.30606 0.0
H919 H 0.60128 0.84595 0.31523 0.0
C920 C 0.17198 0.46301 0.84939 0.0
C921 C 0.17711 0.46767 0.84353 0.0
C922 C 0.1724 0.48124 0.84999 0.0
C923 C 0.17736 0.47668 0.84385 0.0
C924 C 0.1672 0.47651 0.85578 0.0
C925 C 0.16701 0.4675 0.85549 0.0
U926 U 0.1725 0.44184 0.83683 0.0
O927 O 0.17885 0.42953 0.83977 0.0
O928 O 0.16467 0.43 0.83829 0.0
C929 C 0.17145 0.42531 0.84036 0.0
C930 C 0.17162 0.45351 0.84915 0.0
C931 C 0.17046 0.41968 0.84798 0.0
C932 C 0.17253 0.4166 0.86333 0.0
C933 C 0.17319 0.42228 0.8563 0.0
C934 C 0.16625 0.40576 0.85382 0.0
C935 C 0.16908 0.40825 0.86216 0.0
C936 C 0.16694 0.41142 0.84682 0.0
C937 C 0.17517 0.44322 0.81185 0.0
C938 C 0.16857 0.43739 0.79866 0.0
C939 C 0.18386 0.44107 0.79887 0.0
C940 C 0.18317 0.44367 0.80753 0.0
C941 C 0.17654 0.43804 0.79427 0.0
C942 C 0.16789 0.43996 0.80734 0.0
C943 C 0.17439 0.44691 0.8207 0.0
O944 O 0.16472 0.45017 0.84536 0.0
O945 O 0.17887 0.4496 0.84701 0.0
O946 O 0.18097 0.44567 0.82602 0.0
O947 O 0.1668 0.44621 0.82452 0.0
H948 H 0.18097 0.46435 0.83872 0.0
H949 H 0.18153 0.48006 0.83936 0.0
H950 H 0.16317 0.47976 0.86049 0.0
H951 H 0.16294 0.46402 0.86002 0.0
H952 H 0.17468 0.41876 0.86967 0.0
H953 H 0.1759 0.42866 0.85734 0.0
H954 H 0.16368 0.39936 0.85264 0.0
H955 H 0.16483 0.40929 0.84045 0.0
H956 H 0.16277 0.43518 0.79531 0.0
H957 H 0.19013 0.44154 0.79575 0.0
H958 H 0.18888 0.44621 0.8108 0.0
H959 H 0.1616 0.43961 0.81042 0.0
C960 C 0.92549 0.81391 0.67141 0.0
C961 C 0.9331 0.80903 0.67231 0.0
C962 C 0.9246 0.79573 0.67194 0.0
C963 C 0.93266 0.80003 0.67257 0.0
C964 C 0.91701 0.80067 0.671 0.0
C965 C 0.91746 0.80968 0.67075 0.0
U966 U 0.9388 0.83451 0.67184 0.0
O967 O 0.93744 0.84658 0.6645 0.0
O968 O 0.93675 0.84677 0.6787 0.0
C969 C 0.93587 0.85117 0.67149 0.0
C970 C 0.92592 0.82338 0.67122 0.0
C971 C 0.92822 0.85681 0.67103 0.0
C972 C 0.91258 0.85894 0.67117 0.0
C973 C 0.91977 0.85343 0.67143 0.0
C974 C 0.92225 0.87124 0.67003 0.0
C975 C 0.91373 0.86792 0.67049 0.0
C976 C 0.92941 0.86573 0.6703 0.0
C977 C 0.96371 0.8316 0.67362 0.0
C978 C 0.97464 0.84293 0.6728 0.0
C979 C 0.97888 0.82836 0.67638 0.0
C980 C 0.97023 0.8257 0.67573 0.0
C981 C 0.98121 0.83701 0.67495 0.0
C982 C 0.96595 0.84025 0.67216 0.0
C983 C 0.9547 0.8285 0.67298 0.0
O984 O 0.92864 0.82704 0.67845 0.0
O985 O 0.9295 0.8267 0.66426 0.0
O986 O 0.95069 0.82984 0.66556 0.0
O987 O 0.94978 0.82996 0.67977 0.0
H988 H 0.93937 0.8122 0.6728 0.0
H989 H 0.93864 0.79644 0.67318 0.0
H990 H 0.9107 0.79759 0.6706 0.0
H991 H 0.91153 0.81335 0.67008 0.0
H992 H 0.90613 0.85615 0.67143 0.0
H993 H 0.91873 0.84654 0.67196 0.0
H994 H 0.9234 0.87811 0.66963 0.0
H995 H 0.93589 0.86845 0.67002 0.0
H996 H 0.97621 0.84965 0.67172 0.0
H997 H 0.98377 0.82359 0.6779 0.0
H998 H 0.96862 0.81899 0.67684 0.0
H999 H 0.96098 0.84491 0.67055 0.0
C1000 C 0.17559 0.71298 0.42307 0.0
C1001 C 0.18303 0.71787 0.42506 0.0
C1002 C 0.17455 0.73109 0.42459 0.0
C1003 C 0.18251 0.72684 0.42582 0.0
C1004 C 0.16714 0.72614 0.42247 0.0
C1005 C 0.16766 0.71716 0.42173 0.0
U1006 U 0.18897 0.69255 0.42266 0.0
O1007 O 0.18705 0.6801 0.42916 0.0
O1008 O 0.18756 0.68065 0.41496 0.0
C1009 C 0.18612 0.67586 0.42182 0.0
C1010 C 0.17605 0.70352 0.4225 0.0
C1011 C 0.17854 0.67006 0.4213 0.0
C1012 C 0.16292 0.66762 0.42108 0.0
C1013 C 0.17004 0.67329 0.42134 0.0
C1014 C 0.17274 0.65549 0.42068 0.0
C1015 C 0.16419 0.65864 0.4208 0.0
C1016 C 0.17984 0.66115 0.42093 0.0
C1017 C 0.21385 0.69561 0.42437 0.0
C1018 C 0.22463 0.68426 0.42339 0.0
C1019 C 0.2291 0.69886 0.42686 0.0
C1020 C 0.22047 0.70153 0.42635 0.0
C1021 C 0.2313 0.69019 0.42541 0.0
C1022 C 0.21596 0.68695 0.4229 0.0
C1023 C 0.20486 0.69871 0.42389 0.0
O1024 O 0.17961 0.70047 0.4154 0.0
O1025 O 0.1788 0.69967 0.42957 0.0
O1026 O 0.19998 0.69704 0.43066 0.0
O1027 O 0.2008 0.69753 0.41646 0.0
H1028 H 0.18922 0.71474 0.42612 0.0
H1029 H 0.18833 0.73041 0.42757 0.0
H1030 H 0.16093 0.72919 0.42135 0.0
H1031 H 0.16186 0.71349 0.42015 0.0
H1032 H 0.15643 0.67028 0.42127 0.0
H1033 H 0.16892 0.68017 0.42165 0.0
H1034 H 0.17397 0.64863 0.42033 0.0
H1035 H 0.18635 0.65855 0.42087 0.0
H1036 H 0.2261 0.67752 0.42231 0.0
H1037 H 0.23407 0.70363 0.42828 0.0
H1038 H 0.21896 0.70825 0.42748 0.0
H1039 H 0.21091 0.68229 0.42138 0.0
C1040 C 0.35076 0.96286 0.17127 0.0
C1041 C 0.34301 0.96756 0.17092 0.0
C1042 C 0.35116 0.98105 0.1718 0.0
C1043 C 0.3432 0.97657 0.17117 0.0
C1044 C 0.35891 0.97628 0.17216 0.0
C1045 C 0.3587 0.96726 0.17189 0.0
U1046 U 0.33812 0.9418 0.17154 0.0
O1047 O 0.33993 0.92975 0.16422 0.0
O1048 O 0.34061 0.92966 0.17844 0.0
C1049 C 0.34159 0.92524 0.17123 0.0
C1050 C 0.3506 0.95338 0.17112 0.0
C1051 C 0.34931 0.91969 0.17084 0.0
C1052 C 0.36496 0.91774 0.17062 0.0
C1053 C 0.35773 0.92318 0.17093 0.0
C1054 C 0.3554 0.90531 0.17009 0.0
C1055 C 0.36389 0.90872 0.1702 0.0
C1056 C 0.3482 0.91074 0.17041 0.0
C1057 C 0.31306 0.94333 0.17277 0.0
C1058 C 0.29822 0.94315 0.16726 0.0
C1059 C 0.30181 0.93521 0.18027 0.0
C1060 C 0.31048 0.93788 0.17956 0.0
C1061 C 0.29554 0.93792 0.1742 0.0
C1062 C 0.30686 0.94585 0.16658 0.0
C1063 C 0.32194 0.947 0.17234 0.0
O1064 O 0.34795 0.94971 0.17831 0.0
O1065 O 0.34719 0.94987 0.16411 0.0
O1066 O 0.32609 0.94595 0.16499 0.0
O1067 O 0.32693 0.94603 0.17921 0.0
H1068 H 0.3368 0.96425 0.17049 0.0
H1069 H 0.33711 0.98003 0.17099 0.0
H1070 H 0.36515 0.97951 0.17254 0.0
H1071 H 0.36475 0.96373 0.17217 0.0
H1072 H 0.37139 0.9206 0.17061 0.0
H1073 H 0.3587 0.93009 0.17123 0.0
H1074 H 0.35431 0.89841 0.16991 0.0
H1075 H 0.34173 0.90794 0.17037 0.0
H1076 H 0.29361 0.94524 0.16238 0.0
H1077 H 0.29999 0.93126 0.18575 0.0
H1078 H 0.31509 0.93583 0.18446 0.0
H1079 H 0.30868 0.95006 0.1613 0.0
C1080 C 0.06375 0.6776 0.85232 0.0
C1081 C 0.05905 0.6853 0.8519 0.0
C1082 C 0.04551 0.67724 0.85022 0.0
C1083 C 0.05002 0.68513 0.85087 0.0
C1084 C 0.05026 0.66953 0.85077 0.0
C1085 C 0.0593 0.66971 0.8518 0.0
U1086 U 0.08459 0.69051 0.85329 0.0
O1087 O 0.09645 0.689 0.86121 0.0
O1088 O 0.0972 0.68858 0.847 0.0
C1089 C 0.10135 0.6876 0.85441 0.0
C1090 C 0.07328 0.6778 0.85306 0.0
C1091 C 0.10721 0.68013 0.85494 0.0
C1092 C 0.1105 0.66503 0.85227 0.0
C1093 C 0.10461 0.6719 0.85213 0.0
C1094 C 0.12156 0.67453 0.85823 0.0
C1095 C 0.1191 0.6663 0.85522 0.0
C1096 C 0.11568 0.68137 0.85807 0.0
C1097 C 0.08163 0.71526 0.85183 0.0
C1098 C 0.09311 0.72609 0.85213 0.0
C1099 C 0.07814 0.73038 0.85001 0.0
C1100 C 0.07552 0.72178 0.85055 0.0
C1101 C 0.08697 0.73265 0.85074 0.0
C1102 C 0.09046 0.71744 0.85265 0.0
C1103 C 0.07856 0.70628 0.85217 0.0
O1104 O 0.07734 0.68051 0.8461 0.0
O1105 O 0.07636 0.68122 0.86027 0.0
O1106 O 0.07966 0.70225 0.85958 0.0
O1107 O 0.08033 0.70149 0.84538 0.0
H1108 H 0.06238 0.69146 0.8523 0.0
H1109 H 0.04657 0.69119 0.85061 0.0
H1110 H 0.04702 0.66334 0.8502 0.0
H1111 H 0.06284 0.6637 0.85208 0.0
H1112 H 0.1084 0.6588 0.84986 0.0
H1113 H 0.09808 0.67081 0.8497 0.0
H1114 H 0.12805 0.67572 0.8607 0.0
H1115 H 0.11779 0.68767 0.86031 0.0
H1116 H 0.09996 0.72762 0.85267 0.0
H1117 H 0.07322 0.73526 0.8491 0.0
H1118 H 0.06867 0.72021 0.84994 0.0
H1119 H 0.09528 0.71247 0.85363 0.0
C1120 C 0.34871 0.81458 0.60349 0.0
C1121 C 0.34083 0.81 0.6035 0.0
C1122 C 0.34858 0.79648 0.60152 0.0
C1123 C 0.34077 0.80104 0.60254 0.0
C1124 C 0.35647 0.80111 0.60164 0.0
C1125 C 0.35653 0.81009 0.60261 0.0
U1126 U 0.33624 0.83547 0.60438 0.0
O1127 O 0.33824 0.8473 0.61207 0.0
O1128 O 0.33837 0.84787 0.59786 0.0
C1129 C 0.33961 0.85207 0.60518 0.0
C1130 C 0.34875 0.82404 0.60411 0.0
C1131 C 0.34732 0.8577 0.60551 0.0
C1132 C 0.36296 0.8599 0.6049 0.0
C1133 C 0.35574 0.85436 0.60479 0.0
C1134 C 0.35341 0.87215 0.60651 0.0
C1135 C 0.36188 0.86888 0.60571 0.0
C1136 C 0.34622 0.86661 0.6064 0.0
C1137 C 0.31123 0.83321 0.60337 0.0
C1138 C 0.301 0.84496 0.6016 0.0
C1139 C 0.29572 0.83035 0.60337 0.0
C1140 C 0.30426 0.82743 0.604 0.0
C1141 C 0.29396 0.83914 0.6021 0.0
C1142 C 0.30957 0.84202 0.60224 0.0
C1143 C 0.32013 0.82982 0.60362 0.0
O1144 O 0.34594 0.82803 0.59714 0.0
O1145 O 0.34555 0.82723 0.61132 0.0
O1146 O 0.32442 0.83087 0.61094 0.0
O1147 O 0.32487 0.83133 0.59673 0.0
H1148 H 0.33473 0.81337 0.60418 0.0
H1149 H 0.33459 0.79768 0.6026 0.0
H1150 H 0.3626 0.79783 0.60077 0.0
H1151 H 0.36266 0.81353 0.60255 0.0
H1152 H 0.36937 0.85716 0.60418 0.0
H1153 H 0.35671 0.84748 0.60408 0.0
H1154 H 0.35233 0.87899 0.60728 0.0
H1155 H 0.33976 0.8693 0.607 0.0
H1156 H 0.29988 0.85179 0.60071 0.0
H1157 H 0.2905 0.82566 0.60364 0.0
H1158 H 0.30543 0.8206 0.60484 0.0
H1159 H 0.31489 0.84658 0.60175 0.0
C1160 C 0.1768 0.06429 0.35202 0.0
C1161 C 0.18298 0.0597 0.3472 0.0
C1162 C 0.17637 0.04609 0.35153 0.0
C1163 C 0.18273 0.05069 0.34692 0.0
C1164 C 0.17023 0.05071 0.35639 0.0
C1165 C 0.17044 0.05972 0.3566 0.0
U1166 U 0.18957 0.08532 0.35288 0.0
O1167 O 0.18734 0.09783 0.34664 0.0
O1168 O 0.18771 0.09697 0.36086 0.0
C1169 C 0.18623 0.10186 0.35407 0.0
C1170 C 0.17705 0.07379 0.35253 0.0
C1171 C 0.17867 0.10764 0.35464 0.0
C1172 C 0.16395 0.11175 0.3506 0.0
C1173 C 0.17079 0.10582 0.35036 0.0
C1174 C 0.17269 0.12125 0.3596 0.0
C1175 C 0.16487 0.11961 0.35513 0.0
C1176 C 0.17951 0.11534 0.35934 0.0
C1177 C 0.21462 0.08336 0.35242 0.0
C1178 C 0.22536 0.09431 0.34879 0.0
C1179 C 0.22982 0.08124 0.35609 0.0
C1180 C 0.22122 0.07835 0.35608 0.0
C1181 C 0.23202 0.08924 0.35241 0.0
C1182 C 0.21672 0.0914 0.34882 0.0
C1183 C 0.20569 0.07989 0.35227 0.0
O1184 O 0.18027 0.07698 0.35977 0.0
O1185 O 0.17982 0.07781 0.34557 0.0
O1186 O 0.201 0.0815 0.34531 0.0
O1187 O 0.20132 0.08061 0.35952 0.0
H1188 H 0.18803 0.06308 0.3437 0.0
H1189 H 0.18762 0.04732 0.34321 0.0
H1190 H 0.16521 0.04736 0.35995 0.0
H1191 H 0.16563 0.06314 0.36038 0.0
H1192 H 0.15804 0.11029 0.34704 0.0
H1193 H 0.16998 0.09989 0.34671 0.0
H1194 H 0.17358 0.12713 0.3633 0.0
H1195 H 0.18551 0.11685 0.36274 0.0
H1196 H 0.22682 0.10053 0.34599 0.0
H1197 H 0.23478 0.07712 0.35881 0.0
H1198 H 0.21973 0.07211 0.35885 0.0
H1199 H 0.21171 0.0954 0.34599 0.0
C1200 C 0.67302 0.96275 0.84899 0.0
C1201 C 0.67787 0.9674 0.84288 0.0
C1202 C 0.6735 0.98098 0.84956 0.0
C1203 C 0.67815 0.97641 0.84319 0.0
C1204 C 0.66861 0.97626 0.85562 0.0
C1205 C 0.6684 0.96725 0.85534 0.0
U1206 U 0.67218 0.9418 0.83612 0.0
O1207 O 0.67853 0.92932 0.83823 0.0
O1208 O 0.66429 0.93007 0.83798 0.0
C1209 C 0.67113 0.92522 0.83935 0.0
C1210 C 0.67255 0.95325 0.84869 0.0
C1211 C 0.67066 0.91936 0.84686 0.0
C1212 C 0.67454 0.91537 0.86165 0.0
C1213 C 0.67465 0.92136 0.85484 0.0
C1214 C 0.66626 0.90547 0.85264 0.0
C1215 C 0.67044 0.9073 0.86058 0.0
C1216 C 0.66639 0.91143 0.84587 0.0
C1217 C 0.6725 0.94396 0.81111 0.0
C1218 C 0.676 0.93305 0.80032 0.0
C1219 C 0.6689 0.94623 0.79593 0.0
C1220 C 0.66893 0.94907 0.80454 0.0
C1221 C 0.67247 0.93821 0.79369 0.0
C1222 C 0.67599 0.93589 0.80897 0.0
C1223 C 0.67267 0.94736 0.82004 0.0
O1224 O 0.6653 0.95003 0.84549 0.0
O1225 O 0.67952 0.94928 0.84586 0.0
O1226 O 0.67966 0.94576 0.82468 0.0
O1227 O 0.66543 0.94653 0.82445 0.0
H1228 H 0.68146 0.96408 0.83786 0.0
H1229 H 0.68209 0.97979 0.83849 0.0
H1230 H 0.66482 0.97953 0.86052 0.0
H1231 H 0.66455 0.96379 0.86007 0.0
H1232 H 0.67786 0.91698 0.86765 0.0
H1233 H 0.67797 0.92746 0.85576 0.0
H1234 H 0.66289 0.89941 0.85164 0.0
H1235 H 0.66323 0.90979 0.83978 0.0
H1236 H 0.67872 0.9268 0.79884 0.0
H1237 H 0.66625 0.95044 0.79099 0.0
H1238 H 0.66623 0.95533 0.80605 0.0
H1239 H 0.67875 0.93182 0.81396 0.0
C1240 C 0.06335 0.42344 0.59871 0.0
C1241 C 0.05874 0.42393 0.59085 0.0
C1242 C 0.04516 0.42574 0.5987 0.0
C1243 C 0.04973 0.42506 0.59084 0.0
C1244 C 0.04982 0.42512 0.60656 0.0
C1245 C 0.05883 0.42399 0.60655 0.0
U1246 U 0.08438 0.42209 0.58623 0.0
O1247 O 0.09715 0.42806 0.58857 0.0
O1248 O 0.09594 0.41397 0.58806 0.0
C1249 C 0.10104 0.42061 0.58964 0.0
C1250 C 0.07286 0.42255 0.59871 0.0
C1251 C 0.10672 0.4199 0.59733 0.0
C1252 C 0.10965 0.42209 0.6127 0.0
C1253 C 0.10399 0.4226 0.60557 0.0
C1254 C 0.12074 0.41606 0.60344 0.0
C1255 C 0.11811 0.41883 0.61172 0.0
C1256 C 0.1151 0.41659 0.59633 0.0
C1257 C 0.08215 0.42329 0.56114 0.0
C1258 C 0.09076 0.4298 0.54966 0.0
C1259 C 0.08047 0.41845 0.5462 0.0
C1260 C 0.07825 0.41784 0.55496 0.0
C1261 C 0.08661 0.42457 0.54341 0.0
C1262 C 0.08855 0.42917 0.55845 0.0
C1263 C 0.07884 0.42316 0.57012 0.0
O1264 O 0.07579 0.41534 0.59537 0.0
O1265 O 0.07713 0.42939 0.59605 0.0
O1266 O 0.08057 0.42993 0.57501 0.0
O1267 O 0.07946 0.41583 0.57431 0.0
H1268 H 0.06213 0.4235 0.58472 0.0
H1269 H 0.04636 0.42538 0.58467 0.0
H1270 H 0.04653 0.42571 0.61272 0.0
H1271 H 0.0623 0.42365 0.61268 0.0
H1272 H 0.10739 0.4242 0.619 0.0
H1273 H 0.09751 0.42514 0.60648 0.0
H1274 H 0.12724 0.41363 0.6024 0.0
H1275 H 0.11732 0.4145 0.59001 0.0
H1276 H 0.09547 0.43462 0.54774 0.0
H1277 H 0.07726 0.4142 0.5416 0.0
H1278 H 0.0733 0.41326 0.55687 0.0
H1279 H 0.09167 0.43346 0.56307 0.0
C1280 C 0.67311 0.84949 0.9616 0.0
C1281 C 0.67285 0.84184 0.96642 0.0
C1282 C 0.67396 0.85005 0.9799 0.0
C1283 C 0.67326 0.84212 0.97549 0.0
C1284 C 0.67425 0.85769 0.975 0.0
C1285 C 0.67382 0.85741 0.96593 0.0
U1286 U 0.67259 0.83653 0.94076 0.0
O1287 O 0.66482 0.83805 0.92881 0.0
O1288 O 0.67906 0.83854 0.92825 0.0
C1289 C 0.6717 0.83951 0.92401 0.0
C1290 C 0.67267 0.84922 0.95206 0.0
C1291 C 0.67118 0.84696 0.91811 0.0
C1292 C 0.67477 0.86175 0.91423 0.0
C1293 C 0.67496 0.85496 0.92021 0.0
C1294 C 0.66682 0.85269 0.9041 0.0
C1295 C 0.6708 0.86066 0.90604 0.0
C1296 C 0.66703 0.84593 0.91006 0.0
C1297 C 0.67372 0.81176 0.94361 0.0
C1298 C 0.67343 0.80104 0.93206 0.0
C1299 C 0.67518 0.79658 0.94701 0.0
C1300 C 0.67477 0.80516 0.94969 0.0
C1301 C 0.67457 0.7944 0.93816 0.0
C1302 C 0.67303 0.80967 0.93477 0.0
C1303 C 0.67346 0.82071 0.94674 0.0
O1304 O 0.67972 0.84642 0.94822 0.0
O1305 O 0.66551 0.84586 0.9488 0.0
O1306 O 0.66611 0.82483 0.94558 0.0
O1307 O 0.68034 0.82546 0.94508 0.0
H1308 H 0.67235 0.83566 0.96317 0.0
H1309 H 0.67315 0.83611 0.97904 0.0
H1310 H 0.67469 0.86391 0.97818 0.0
H1311 H 0.67401 0.86337 0.9623 0.0
H1312 H 0.67794 0.86777 0.91593 0.0
H1313 H 0.67817 0.85592 0.92641 0.0
H1314 H 0.66355 0.85166 0.89795 0.0
H1315 H 0.66403 0.83983 0.90834 0.0
H1316 H 0.67299 0.79959 0.9252 0.0
H1317 H 0.6759 0.79163 0.9519 0.0
H1318 H 0.67527 0.80666 0.95655 0.0
H1319 H 0.67223 0.81471 0.92998 0.0
C1320 C 0.17816 0.42361 0.71186 0.0
C1321 C 0.18591 0.42524 0.71641 0.0
C1322 C 0.17799 0.42585 0.73005 0.0
C1323 C 0.18583 0.42636 0.72541 0.0
C1324 C 0.17025 0.42411 0.72545 0.0
C1325 C 0.17034 0.42301 0.71643 0.0
U1326 U 0.19072 0.4221 0.69089 0.0
O1327 O 0.18884 0.41386 0.67936 0.0
O1328 O 0.18841 0.42793 0.67811 0.0
C1329 C 0.18727 0.42044 0.67425 0.0
C1330 C 0.1782 0.42262 0.70237 0.0
C1331 C 0.17952 0.41966 0.66866 0.0
C1332 C 0.16412 0.42184 0.66586 0.0
C1333 C 0.17132 0.42241 0.67144 0.0
C1334 C 0.17322 0.41562 0.65474 0.0
C1335 C 0.16498 0.41845 0.65743 0.0
C1336 C 0.1804 0.41622 0.6603 0.0
C1337 C 0.21571 0.42351 0.69304 0.0
C1338 C 0.22594 0.42519 0.68119 0.0
C1339 C 0.23123 0.42324 0.69588 0.0
C1340 C 0.22269 0.42273 0.69884 0.0
C1341 C 0.23298 0.42453 0.68703 0.0
C1342 C 0.21736 0.42467 0.68418 0.0
C1343 C 0.20683 0.42334 0.69649 0.0
O1344 O 0.18089 0.42943 0.69808 0.0
O1345 O 0.18155 0.4154 0.69949 0.0
O1346 O 0.20263 0.41598 0.69581 0.0
O1347 O 0.20198 0.43005 0.69464 0.0
H1348 H 0.19202 0.42568 0.71298 0.0
H1349 H 0.19192 0.42757 0.72875 0.0
H1350 H 0.16409 0.42377 0.7288 0.0
H1351 H 0.16429 0.42177 0.71302 0.0
H1352 H 0.15786 0.424 0.66817 0.0
H1353 H 0.1705 0.42505 0.6779 0.0
H1354 H 0.17416 0.41309 0.64826 0.0
H1355 H 0.18668 0.41408 0.65803 0.0
H1356 H 0.22705 0.4261 0.67433 0.0
H1357 H 0.23646 0.42284 0.70058 0.0
H1358 H 0.22153 0.42187 0.70571 0.0
H1359 H 0.21204 0.42526 0.6796 0.0
C1360 C 0.06375 0.3513 0.17619 0.0
C1361 C 0.05915 0.34849 0.18349 0.0
C1362 C 0.04547 0.3496 0.17553 0.0
C1363 C 0.05011 0.34762 0.18316 0.0
C1364 C 0.05014 0.35249 0.16825 0.0
C1365 C 0.05919 0.35333 0.16858 0.0
U1366 U 0.08453 0.35256 0.18935 0.0
O1367 O 0.09728 0.34656 0.18746 0.0
O1368 O 0.09624 0.36066 0.18789 0.0
C1369 C 0.10129 0.354 0.18653 0.0
C1370 C 0.07327 0.35218 0.17651 0.0
C1371 C 0.10726 0.35466 0.17911 0.0
C1372 C 0.11108 0.35172 0.16409 0.0
C1373 C 0.10502 0.35148 0.17085 0.0
C1374 C 0.12155 0.35851 0.17373 0.0
C1375 C 0.11947 0.35512 0.16549 0.0
C1376 C 0.11552 0.35826 0.18046 0.0
C1377 C 0.08192 0.35119 0.2142 0.0
C1378 C 0.09375 0.34994 0.22463 0.0
C1379 C 0.0789 0.35104 0.22964 0.0
C1380 C 0.07601 0.35154 0.22105 0.0
C1381 C 0.0878 0.35019 0.23155 0.0
C1382 C 0.09083 0.35045 0.21602 0.0
C1383 C 0.07858 0.3514 0.20525 0.0
O1384 O 0.0762 0.35938 0.17998 0.0
O1385 O 0.07745 0.34533 0.17924 0.0
O1386 O 0.08041 0.34467 0.20041 0.0
O1387 O 0.07945 0.35875 0.20114 0.0
H1388 H 0.06256 0.34692 0.18944 0.0
H1389 H 0.04678 0.34526 0.18885 0.0
H1390 H 0.04679 0.3542 0.16231 0.0
H1391 H 0.06263 0.35557 0.1629 0.0
H1392 H 0.10927 0.34901 0.15785 0.0
H1393 H 0.09866 0.34868 0.16968 0.0
H1394 H 0.12788 0.36133 0.175 0.0
H1395 H 0.11735 0.36079 0.18677 0.0
H1396 H 0.10065 0.34937 0.22587 0.0
H1397 H 0.07413 0.35111 0.23477 0.0
H1398 H 0.06911 0.35208 0.21976 0.0
H1399 H 0.09549 0.35019 0.21079 0.0
C1400 C 0.31278 0.60405 0.84714 0.0
C1401 C 0.30805 0.60402 0.83933 0.0
C1402 C 0.29454 0.60193 0.84726 0.0
C1403 C 0.29903 0.60298 0.83939 0.0
C1404 C 0.29933 0.60206 0.85507 0.0
C1405 C 0.30837 0.60311 0.855 0.0
U1406 U 0.3337 0.6051 0.83446 0.0
O1407 O 0.34548 0.61308 0.83618 0.0
O1408 O 0.34636 0.59897 0.83662 0.0
C1409 C 0.35044 0.60637 0.83765 0.0
C1410 C 0.32231 0.60484 0.84706 0.0
C1411 C 0.35638 0.60702 0.84517 0.0
C1412 C 0.36048 0.60345 0.86 0.0
C1413 C 0.35441 0.60323 0.85319 0.0
C1414 C 0.37041 0.61149 0.85093 0.0
C1415 C 0.36863 0.60747 0.85891 0.0
C1416 C 0.36436 0.61124 0.84415 0.0
C1417 C 0.33136 0.60361 0.80955 0.0
C1418 C 0.34327 0.60195 0.79939 0.0
C1419 C 0.32852 0.60336 0.79405 0.0
C1420 C 0.32554 0.60403 0.80257 0.0
C1421 C 0.33741 0.60225 0.79234 0.0
C1422 C 0.34026 0.60263 0.80794 0.0
C1423 C 0.32792 0.60392 0.81843 0.0
O1424 O 0.32642 0.59794 0.84437 0.0
O1425 O 0.32536 0.612 0.84369 0.0
O1426 O 0.32883 0.61129 0.82257 0.0
O1427 O 0.32961 0.5972 0.8233 0.0
H1428 H 0.31136 0.60475 0.83319 0.0
H1429 H 0.29556 0.60304 0.83326 0.0
H1430 H 0.29612 0.60116 0.86124 0.0
H1431 H 0.31192 0.60308 0.86109 0.0
H1432 H 0.3589 0.60026 0.86603 0.0
H1433 H 0.34826 0.59995 0.85413 0.0
H1434 H 0.37653 0.61479 0.84991 0.0
H1435 H 0.36598 0.61425 0.83803 0.0
H1436 H 0.35016 0.60119 0.79831 0.0
H1437 H 0.3238 0.60347 0.78882 0.0
H1438 H 0.31864 0.60474 0.8037 0.0
H1439 H 0.34486 0.60231 0.81327 0.0
C1440 C 0.92582 0.17441 0.31378 0.0
C1441 C 0.93365 0.17494 0.30921 0.0
C1442 C 0.92571 0.17658 0.29559 0.0
C1443 C 0.9336 0.17601 0.3002 0.0
C1444 C 0.91787 0.17593 0.30021 0.0
C1445 C 0.91793 0.17487 0.30923 0.0
U1446 U 0.93849 0.17252 0.33475 0.0
O1447 O 0.93651 0.17837 0.3476 0.0
O1448 O 0.9365 0.16429 0.3462 0.0
C1449 C 0.93523 0.17089 0.35138 0.0
C1450 C 0.92588 0.17348 0.32327 0.0
C1451 C 0.92758 0.1703 0.35707 0.0
C1452 C 0.91225 0.17261 0.36 0.0
C1453 C 0.91934 0.17306 0.35434 0.0
C1454 C 0.92155 0.16651 0.37109 0.0
C1455 C 0.91328 0.16933 0.36845 0.0
C1456 C 0.92862 0.16699 0.36545 0.0
C1457 C 0.96355 0.17284 0.33245 0.0
C1458 C 0.97455 0.17602 0.3434 0.0
C1459 C 0.97869 0.1695 0.32975 0.0
C1460 C 0.97002 0.16954 0.32705 0.0
C1461 C 0.98109 0.17279 0.33794 0.0
C1462 C 0.96584 0.17602 0.34069 0.0
C1463 C 0.95456 0.17313 0.32914 0.0
O1464 O 0.92895 0.16614 0.32616 0.0
O1465 O 0.92888 0.1802 0.32758 0.0
O1466 O 0.95003 0.18003 0.33109 0.0
O1467 O 0.95006 0.16594 0.32968 0.0
H1468 H 0.93981 0.17456 0.31262 0.0
H1469 H 0.93976 0.17635 0.29685 0.0
H1470 H 0.91168 0.17644 0.29689 0.0
H1471 H 0.91182 0.17448 0.31267 0.0
H1472 H 0.90596 0.17476 0.35773 0.0
H1473 H 0.91841 0.1756 0.34787 0.0
H1474 H 0.92262 0.16408 0.37758 0.0
H1475 H 0.93493 0.16485 0.36768 0.0
H1476 H 0.97616 0.17852 0.34978 0.0
H1477 H 0.98355 0.16709 0.32532 0.0
H1478 H 0.96838 0.16709 0.32065 0.0
H1479 H 0.96093 0.17858 0.34498 0.0
C1480 C 0.35201 0.678 0.56438 0.0
C1481 C 0.34938 0.68532 0.55976 0.0
C1482 C 0.35047 0.67741 0.54612 0.0
C1483 C 0.3486 0.68502 0.55072 0.0
C1484 C 0.35318 0.67012 0.55081 0.0
C1485 C 0.35394 0.67042 0.55986 0.0
U1486 U 0.35277 0.69086 0.58531 0.0
O1487 O 0.34659 0.68859 0.59792 0.0
O1488 O 0.3608 0.68936 0.59707 0.0
C1489 C 0.35406 0.68766 0.60199 0.0
C1490 C 0.35275 0.67826 0.5739 0.0
C1491 C 0.3548 0.67998 0.60753 0.0
C1492 C 0.35304 0.66458 0.60994 0.0
C1493 C 0.35251 0.67175 0.60445 0.0
C1494 C 0.35827 0.67379 0.62158 0.0
C1495 C 0.35591 0.66552 0.61859 0.0
C1496 C 0.35771 0.68094 0.6161 0.0
C1497 C 0.35094 0.71562 0.58271 0.0
C1498 C 0.35212 0.72635 0.59419 0.0
C1499 C 0.34847 0.73072 0.57955 0.0
C1500 C 0.34891 0.72215 0.57681 0.0
C1501 C 0.35004 0.73294 0.58827 0.0
C1502 C 0.35255 0.71774 0.59143 0.0
C1503 C 0.35136 0.7067 0.57951 0.0
O1504 O 0.35991 0.68183 0.57695 0.0
O1505 O 0.34574 0.6808 0.57799 0.0
O1506 O 0.34463 0.70177 0.58126 0.0
O1507 O 0.35883 0.70276 0.58047 0.0
H1508 H 0.34788 0.69125 0.56315 0.0
H1509 H 0.34637 0.69072 0.54736 0.0
H1510 H 0.3548 0.66419 0.54748 0.0
H1511 H 0.35603 0.66472 0.56332 0.0
H1512 H 0.35126 0.6583 0.6074 0.0
H1513 H 0.35029 0.67087 0.59783 0.0
H1514 H 0.36039 0.67478 0.62822 0.0
H1515 H 0.35949 0.68724 0.6186 0.0
H1516 H 0.3533 0.72784 0.60096 0.0
H1517 H 0.347 0.73562 0.57478 0.0
H1518 H 0.34769 0.72063 0.57004 0.0
H1519 H 0.35411 0.71276 0.59607 0.0
C1520 C 0.92641 0.10088 0.96139 0.0
C1521 C 0.93414 0.09913 0.9659 0.0
C1522 C 0.92623 0.09836 0.97953 0.0
C1523 C 0.93406 0.09787 0.97487 0.0
C1524 C 0.91851 0.1002 0.97498 0.0
C1525 C 0.91861 0.10144 0.96598 0.0
U1526 U 0.9391 0.10355 0.94063 0.0
O1527 O 0.93716 0.09811 0.92758 0.0
O1528 O 0.93711 0.11214 0.92943 0.0
C1529 C 0.9359 0.10569 0.92401 0.0
C1530 C 0.92649 0.10212 0.95193 0.0
C1531 C 0.9284 0.10639 0.91807 0.0
C1532 C 0.91363 0.10265 0.91369 0.0
C1533 C 0.92042 0.10232 0.91979 0.0
C1534 C 0.92264 0.11131 0.90426 0.0
C1535 C 0.91471 0.10704 0.90579 0.0
C1536 C 0.9294 0.11098 0.91033 0.0
C1537 C 0.96412 0.10331 0.94299 0.0
C1538 C 0.97491 0.10052 0.93187 0.0
C1539 C 0.97932 0.10674 0.94564 0.0
C1540 C 0.9707 0.10655 0.94842 0.0
C1541 C 0.98155 0.10368 0.93735 0.0
C1542 C 0.96626 0.10036 0.93465 0.0
C1543 C 0.95519 0.10286 0.94634 0.0
O1544 O 0.92959 0.10958 0.94934 0.0
O1545 O 0.92946 0.09558 0.94742 0.0
O1546 O 0.95061 0.096 0.94418 0.0
O1547 O 0.9507 0.11003 0.94601 0.0
H1548 H 0.94025 0.09874 0.96246 0.0
H1549 H 0.94014 0.09659 0.97818 0.0
H1550 H 0.91237 0.10054 0.97834 0.0
H1551 H 0.91258 0.10279 0.96261 0.0
H1552 H 0.90764 0.09925 0.91507 0.0
H1553 H 0.9195 0.09877 0.92575 0.0
H1554 H 0.92365 0.1149 0.89833 0.0
H1555 H 0.93548 0.1142 0.90891 0.0
H1556 H 0.9764 0.0982 0.92541 0.0
H1557 H 0.98426 0.10911 0.95008 0.0
H1558 H 0.96918 0.10883 0.95488 0.0
H1559 H 0.96126 0.09787 0.93034 0.0
C1560 C 0.85427 0.563 0.17447 0.0
C1561 C 0.85338 0.55816 0.18209 0.0
C1562 C 0.85357 0.54482 0.17369 0.0
C1563 C 0.85303 0.54916 0.1817 0.0
C1564 C 0.85447 0.54973 0.16608 0.0
C1565 C 0.85481 0.55874 0.16647 0.0
U1566 U 0.85437 0.58356 0.18774 0.0
O1567 O 0.86204 0.59551 0.18647 0.0
O1568 O 0.8478 0.59594 0.18575 0.0
C1569 C 0.85514 0.60023 0.18495 0.0
C1570 C 0.85462 0.57247 0.17486 0.0
C1571 C 0.85572 0.60621 0.17755 0.0
C1572 C 0.85235 0.61025 0.16267 0.0
C1573 C 0.85211 0.6042 0.1694 0.0
C1574 C 0.86002 0.62025 0.17209 0.0
C1575 C 0.85622 0.6184 0.16396 0.0
C1576 C 0.85976 0.61423 0.1788 0.0
C1577 C 0.85291 0.58057 0.21266 0.0
C1578 C 0.84789 0.59062 0.22368 0.0
C1579 C 0.8552 0.57751 0.22794 0.0
C1580 C 0.85618 0.57526 0.21922 0.0
C1581 C 0.85089 0.58513 0.23029 0.0
C1582 C 0.84889 0.58836 0.21493 0.0
C1583 C 0.85334 0.57753 0.20361 0.0
O1584 O 0.84749 0.5762 0.17758 0.0
O1585 O 0.8617 0.57572 0.17841 0.0
O1586 O 0.86075 0.57873 0.19959 0.0
O1587 O 0.84652 0.57906 0.1987 0.0
H1588 H 0.85298 0.56135 0.18834 0.0
H1589 H 0.85245 0.54559 0.1877 0.0
H1590 H 0.8548 0.54662 0.15979 0.0
H1591 H 0.85548 0.56238 0.16053 0.0
H1592 H 0.84931 0.60862 0.15652 0.0
H1593 H 0.84898 0.59803 0.16829 0.0
H1594 H 0.86321 0.62638 0.17328 0.0
H1595 H 0.86263 0.61588 0.18502 0.0
H1596 H 0.8445 0.59651 0.22526 0.0
H1597 H 0.85774 0.57321 0.23285 0.0
H1598 H 0.85934 0.56924 0.2176 0.0
H1599 H 0.84633 0.59257 0.20995 0.0
C1600 C 0.85079 0.81356 0.10301 0.0
C1601 C 0.84332 0.8087 0.10103 0.0
C1602 C 0.85178 0.79546 0.10128 0.0
C1603 C 0.84381 0.79974 0.10016 0.0
C1604 C 0.85921 0.80037 0.1034 0.0
C1605 C 0.85871 0.80934 0.10425 0.0
U1606 U 0.83765 0.83419 0.1039 0.0
O1607 O 0.83948 0.846 0.11166 0.0
O1608 O 0.83968 0.84666 0.09746 0.0
C1609 C 0.84089 0.85081 0.10481 0.0
C1610 C 0.85039 0.82301 0.10367 0.0
C1611 C 0.84866 0.85637 0.1052 0.0
C1612 C 0.86434 0.85829 0.10518 0.0
C1613 C 0.85704 0.85287 0.10498 0.0
C1614 C 0.85495 0.87074 0.10588 0.0
C1615 C 0.86339 0.86731 0.10561 0.0
C1616 C 0.84766 0.86532 0.10568 0.0
C1617 C 0.8127 0.83173 0.10281 0.0
C1618 C 0.80242 0.84346 0.10125 0.0
C1619 C 0.7972 0.82881 0.10283 0.0
C1620 C 0.80575 0.82591 0.10337 0.0
C1621 C 0.7954 0.83762 0.10171 0.0
C1622 C 0.811 0.84054 0.1018 0.0
C1623 C 0.82161 0.82837 0.10304 0.0
O1624 O 0.84751 0.82694 0.09669 0.0
O1625 O 0.84703 0.82604 0.11087 0.0
O1626 O 0.82587 0.82941 0.11038 0.0
O1627 O 0.82637 0.82996 0.09617 0.0
H1628 H 0.83713 0.81187 0.10006 0.0
H1629 H 0.83798 0.7962 0.09842 0.0
H1630 H 0.86543 0.79729 0.10444 0.0
H1631 H 0.86454 0.81298 0.10583 0.0
H1632 H 0.87073 0.85541 0.10507 0.0
H1633 H 0.85792 0.84596 0.10463 0.0
H1634 H 0.85395 0.87764 0.10608 0.0
H1635 H 0.84124 0.86813 0.10582 0.0
H1636 H 0.80127 0.8503 0.10048 0.0
H1637 H 0.79199 0.8241 0.10306 0.0
H1638 H 0.80695 0.81907 0.10411 0.0
H1639 H 0.81631 0.84513 0.10138 0.0
C1640 C 0.67546 0.56442 0.35341 0.0
C1641 C 0.68312 0.55964 0.35248 0.0
C1642 C 0.67482 0.54623 0.35289 0.0
C1643 C 0.6828 0.55064 0.35221 0.0
C1644 C 0.66717 0.55107 0.35384 0.0
C1645 C 0.6675 0.56008 0.35409 0.0
U1646 U 0.68852 0.58515 0.35289 0.0
O1647 O 0.68612 0.59745 0.34628 0.0
O1648 O 0.68736 0.59714 0.36047 0.0
C1649 C 0.68552 0.60179 0.35359 0.0
C1650 C 0.67577 0.57389 0.35367 0.0
C1651 C 0.67798 0.60754 0.35437 0.0
C1652 C 0.66254 0.61048 0.3528 0.0
C1653 C 0.66954 0.60477 0.35224 0.0
C1654 C 0.67234 0.62174 0.35776 0.0
C1655 C 0.66386 0.61906 0.35555 0.0
C1656 C 0.67931 0.61604 0.35717 0.0
C1657 C 0.71337 0.58264 0.35057 0.0
C1658 C 0.72412 0.59411 0.3518 0.0
C1659 C 0.72848 0.57982 0.34725 0.0
C1660 C 0.7199 0.57697 0.34795 0.0
C1661 C 0.73072 0.58842 0.34916 0.0
C1662 C 0.7155 0.59124 0.35248 0.0
C1663 C 0.70443 0.57933 0.35132 0.0
O1664 O 0.67953 0.57723 0.36059 0.0
O1665 O 0.67821 0.5776 0.34643 0.0
O1666 O 0.69929 0.58079 0.34466 0.0
O1667 O 0.70063 0.58051 0.35884 0.0
H1668 H 0.68934 0.56289 0.35197 0.0
H1669 H 0.68883 0.54713 0.3516 0.0
H1670 H 0.66091 0.5479 0.35426 0.0
H1671 H 0.66152 0.56367 0.35479 0.0
H1672 H 0.6561 0.60818 0.35113 0.0
H1673 H 0.66838 0.5982 0.3501 0.0
H1674 H 0.67362 0.62832 0.35978 0.0
H1675 H 0.68578 0.61831 0.35883 0.0
H1676 H 0.72561 0.60079 0.35325 0.0
H1677 H 0.73339 0.57523 0.34535 0.0
H1678 H 0.71837 0.5703 0.34649 0.0
H1679 H 0.71052 0.59571 0.35449 0.0
C1680 C 0.92613 0.46314 0.6033 0.0
C1681 C 0.93387 0.46796 0.60351 0.0
C1682 C 0.92565 0.48131 0.60245 0.0
C1683 C 0.93363 0.47696 0.60311 0.0
C1684 C 0.91792 0.47642 0.60222 0.0
C1685 C 0.91817 0.46742 0.60265 0.0
U1686 U 0.93903 0.44242 0.60348 0.0
O1687 O 0.93745 0.43053 0.61105 0.0
O1688 O 0.93677 0.43003 0.59684 0.0
C1689 C 0.93581 0.42579 0.60414 0.0
C1690 C 0.92636 0.45367 0.60366 0.0
C1691 C 0.92807 0.42021 0.60463 0.0
C1692 C 0.91243 0.41826 0.60565 0.0
C1693 C 0.91971 0.4237 0.60528 0.0
C1694 C 0.92182 0.40581 0.60477 0.0
C1695 C 0.91339 0.40923 0.6054 0.0
C1696 C 0.92907 0.41125 0.60439 0.0
C1697 C 0.964 0.44512 0.60205 0.0
C1698 C 0.97464 0.4336 0.60246 0.0
C1699 C 0.97931 0.44833 0.6001 0.0
C1700 C 0.97071 0.45107 0.60063 0.0
C1701 C 0.98139 0.43956 0.60097 0.0
C1702 C 0.96599 0.43636 0.60298 0.0
C1703 C 0.95504 0.4483 0.60248 0.0
O1704 O 0.92905 0.44986 0.59655 0.0
O1705 O 0.92981 0.45043 0.61074 0.0
O1706 O 0.95097 0.44714 0.60986 0.0
O1707 O 0.95014 0.44672 0.59565 0.0
H1708 H 0.94009 0.46475 0.60396 0.0
H1709 H 0.93971 0.4805 0.60318 0.0
H1710 H 0.91167 0.47956 0.60182 0.0
H1711 H 0.91214 0.4638 0.60248 0.0
H1712 H 0.90606 0.42112 0.60623 0.0
H1713 H 0.91882 0.43062 0.60548 0.0
H1714 H 0.92281 0.39892 0.60442 0.0
H1715 H 0.93548 0.40845 0.60386 0.0
H1716 H 0.97601 0.42679 0.6031 0.0
H1717 H 0.98434 0.45311 0.5991 0.0
H1718 H 0.96929 0.45786 0.59994 0.0
H1719 H 0.96087 0.43168 0.60406 0.0
C1720 C 0.09941 0.56414 0.42206 0.0
C1721 C 0.09166 0.55935 0.42189 0.0
C1722 C 0.09985 0.54596 0.42265 0.0
C1723 C 0.09187 0.55034 0.42216 0.0
C1724 C 0.10759 0.55082 0.42283 0.0
C1725 C 0.10737 0.55983 0.42253 0.0
U1726 U 0.08683 0.58508 0.42313 0.0
O1727 O 0.08976 0.59725 0.4299 0.0
O1728 O 0.0882 0.59714 0.41575 0.0
C1729 C 0.09031 0.60167 0.42267 0.0
C1730 C 0.09924 0.57362 0.42188 0.0
C1731 C 0.09804 0.60722 0.42187 0.0
C1732 C 0.1137 0.60919 0.42107 0.0
C1733 C 0.10643 0.60375 0.42161 0.0
C1734 C 0.10424 0.62161 0.42096 0.0
C1735 C 0.11269 0.61821 0.42076 0.0
C1736 C 0.097 0.61617 0.42151 0.0
C1737 C 0.06196 0.58324 0.42637 0.0
C1738 C 0.04978 0.59211 0.42178 0.0
C1739 C 0.04841 0.58298 0.4344 0.0
C1740 C 0.05692 0.58014 0.43325 0.0
C1741 C 0.04471 0.58897 0.42866 0.0
C1742 C 0.05834 0.5893 0.42066 0.0
C1743 C 0.07077 0.5797 0.42515 0.0
O1744 O 0.09536 0.57703 0.41511 0.0
O1745 O 0.09709 0.57732 0.42923 0.0
O1746 O 0.07622 0.58082 0.43164 0.0
O1747 O 0.07438 0.58077 0.41751 0.0
H1748 H 0.08545 0.56259 0.42158 0.0
H1749 H 0.08579 0.54682 0.42212 0.0
H1750 H 0.11384 0.54766 0.42311 0.0
H1751 H 0.11342 0.56343 0.42267 0.0
H1752 H 0.1201 0.60634 0.42082 0.0
H1753 H 0.10736 0.59683 0.42186 0.0
H1754 H 0.10321 0.62851 0.42087 0.0
H1755 H 0.09057 0.61897 0.42174 0.0
H1756 H 0.04714 0.59679 0.41729 0.0
H1757 H 0.04466 0.58032 0.43969 0.0
H1758 H 0.05954 0.57541 0.4377 0.0
H1759 H 0.06207 0.59181 0.41529 0.0
C1760 C 0.67637 0.71286 0.92227 0.0
C1761 C 0.68424 0.71738 0.92308 0.0
C1762 C 0.67643 0.73093 0.92456 0.0
C1763 C 0.68428 0.72632 0.9242 0.0
C1764 C 0.66855 0.72636 0.92361 0.0
C1765 C 0.66853 0.7174 0.92249 0.0
U1766 U 0.68886 0.69199 0.92154 0.0
O1767 O 0.68642 0.67943 0.92761 0.0
O1768 O 0.6873 0.68036 0.91344 0.0
C1769 C 0.68558 0.67542 0.92013 0.0
C1770 C 0.67634 0.70341 0.92143 0.0
C1771 C 0.67796 0.6697 0.91923 0.0
C1772 C 0.66254 0.66668 0.92098 0.0
C1773 C 0.6696 0.6724 0.92156 0.0
C1774 C 0.67211 0.65557 0.91559 0.0
C1775 C 0.66372 0.65817 0.91802 0.0
C1776 C 0.67914 0.66127 0.9162 0.0
C1777 C 0.71382 0.69435 0.92388 0.0
C1778 C 0.72464 0.68322 0.92156 0.0
C1779 C 0.7289 0.69697 0.92778 0.0
C1780 C 0.72031 0.69976 0.92726 0.0
C1781 C 0.73119 0.68867 0.92494 0.0
C1782 C 0.71601 0.68604 0.92105 0.0
C1783 C 0.7049 0.69765 0.9233 0.0
O1784 O 0.67991 0.70039 0.91432 0.0
O1785 O 0.67878 0.69925 0.92844 0.0
O1786 O 0.69983 0.69592 0.9299 0.0
O1787 O 0.70097 0.6968 0.91575 0.0
H1788 H 0.69037 0.71398 0.92291 0.0
H1789 H 0.69046 0.72963 0.92478 0.0
H1790 H 0.66239 0.72967 0.92395 0.0
H1791 H 0.66239 0.714 0.92191 0.0
H1792 H 0.65616 0.66893 0.92282 0.0
H1793 H 0.66855 0.67891 0.92389 0.0
H1794 H 0.6733 0.64904 0.91341 0.0
H1795 H 0.68555 0.65906 0.9144 0.0
H1796 H 0.72617 0.67677 0.91938 0.0
H1797 H 0.73378 0.70138 0.93029 0.0
H1798 H 0.71875 0.70622 0.92944 0.0
H1799 H 0.71106 0.68176 0.91845 0.0
C1800 C 0.84978 0.46175 0.17124 0.0
C1801 C 0.84212 0.46656 0.17193 0.0
C1802 C 0.85049 0.47994 0.17176 0.0
C1803 C 0.84247 0.47557 0.17219 0.0
C1804 C 0.85814 0.47506 0.17103 0.0
C1805 C 0.85778 0.46605 0.17078 0.0
U1806 U 0.83667 0.44103 0.17148 0.0
O1807 O 0.83813 0.42894 0.16415 0.0
O1808 O 0.83883 0.42882 0.17836 0.0
C1809 C 0.83971 0.42438 0.17115 0.0
C1810 C 0.84945 0.45228 0.17105 0.0
C1811 C 0.84735 0.41873 0.17076 0.0
C1812 C 0.86294 0.4166 0.16973 0.0
C1813 C 0.85577 0.42212 0.17003 0.0
C1814 C 0.85332 0.40427 0.17088 0.0
C1815 C 0.86181 0.4076 0.17015 0.0
C1816 C 0.84617 0.40979 0.17118 0.0
C1817 C 0.81177 0.44344 0.17283 0.0
C1818 C 0.8015 0.4316 0.17439 0.0
C1819 C 0.79629 0.44627 0.17332 0.0
C1820 C 0.80484 0.44923 0.17262 0.0
C1821 C 0.7945 0.43742 0.17426 0.0
C1822 C 0.81008 0.43459 0.17368 0.0
C1823 C 0.82069 0.44683 0.17236 0.0
O1824 O 0.84673 0.44865 0.17824 0.0
O1825 O 0.84593 0.44887 0.16404 0.0
O1826 O 0.82476 0.44555 0.165 0.0
O1827 O 0.8256 0.4455 0.17921 0.0
H1828 H 0.83587 0.46334 0.17226 0.0
H1829 H 0.83644 0.4791 0.17263 0.0
H1830 H 0.86443 0.4782 0.1708 0.0
H1831 H 0.86376 0.46243 0.17027 0.0
H1832 H 0.86937 0.41939 0.16906 0.0
H1833 H 0.85679 0.42902 0.16969 0.0
H1834 H 0.85219 0.3974 0.17136 0.0
H1835 H 0.83971 0.40707 0.17179 0.0
H1836 H 0.80035 0.42475 0.17502 0.0
H1837 H 0.7911 0.45095 0.17335 0.0
H1838 H 0.80604 0.45609 0.17201 0.0
H1839 H 0.81537 0.43002 0.17384 0.0
C1840 C 0.35379 0.56385 0.67509 0.0
C1841 C 0.35288 0.55907 0.68275 0.0
C1842 C 0.35309 0.54567 0.67446 0.0
C1843 C 0.35253 0.55007 0.68244 0.0
C1844 C 0.35401 0.55051 0.66681 0.0
C1845 C 0.35435 0.55952 0.66713 0.0
U1846 U 0.35373 0.58459 0.68812 0.0
O1847 O 0.36146 0.5965 0.68681 0.0
O1848 O 0.34724 0.59696 0.68581 0.0
C1849 C 0.3546 0.60122 0.68511 0.0
C1850 C 0.35415 0.57332 0.67539 0.0
C1851 C 0.35534 0.60704 0.67761 0.0
C1852 C 0.35333 0.61027 0.66229 0.0
C1853 C 0.35278 0.60447 0.66923 0.0
C1854 C 0.35911 0.62118 0.67201 0.0
C1855 C 0.35649 0.61871 0.6636 0.0
C1856 C 0.35854 0.61541 0.67893 0.0
C1857 C 0.35195 0.58225 0.71295 0.0
C1858 C 0.35056 0.59414 0.72315 0.0
C1859 C 0.35135 0.57948 0.72843 0.0
C1860 C 0.35203 0.57648 0.71991 0.0
C1861 C 0.35057 0.58835 0.73017 0.0
C1862 C 0.35126 0.59111 0.7146 0.0
C1863 C 0.35245 0.57882 0.70407 0.0
O1864 O 0.34698 0.57709 0.67797 0.0
O1865 O 0.36118 0.5766 0.67901 0.0
O1866 O 0.35991 0.5799 0.70011 0.0
O1867 O 0.3457 0.58032 0.69906 0.0
H1868 H 0.35247 0.56232 0.68897 0.0
H1869 H 0.35194 0.54656 0.68847 0.0
H1870 H 0.35434 0.54735 0.66055 0.0
H1871 H 0.35502 0.56311 0.66116 0.0
H1872 H 0.35134 0.60812 0.65589 0.0
H1873 H 0.35033 0.59801 0.66807 0.0
H1874 H 0.36145 0.62765 0.6733 0.0
H1875 H 0.36052 0.61752 0.68535 0.0
H1876 H 0.35006 0.60101 0.72426 0.0
H1877 H 0.35123 0.57482 0.73364 0.0
H1878 H 0.35253 0.56961 0.71875 0.0
H1879 H 0.35121 0.59567 0.70929 0.0
C1880 C 0.42339 0.71287 0.17563 0.0
C1881 C 0.42385 0.7177 0.18332 0.0
C1882 C 0.42417 0.73105 0.17501 0.0
C1883 C 0.42424 0.72671 0.18302 0.0
C1884 C 0.42367 0.72614 0.16732 0.0
C1885 C 0.42329 0.71713 0.16763 0.0
U1886 U 0.42237 0.69222 0.18864 0.0
O1887 O 0.41483 0.68031 0.18662 0.0
O1888 O 0.42906 0.67983 0.18694 0.0
C1889 C 0.42179 0.67557 0.18553 0.0
C1890 C 0.42301 0.7034 0.17591 0.0
C1891 C 0.42171 0.66986 0.17788 0.0
C1892 C 0.42089 0.66758 0.16228 0.0
C1893 C 0.42098 0.67316 0.16945 0.0
C1894 C 0.42231 0.65537 0.17192 0.0
C1895 C 0.42158 0.65861 0.16343 0.0
C1896 C 0.42237 0.66094 0.17906 0.0
C1897 C 0.42204 0.69486 0.2136 0.0
C1898 C 0.42487 0.68384 0.22443 0.0
C1899 C 0.41897 0.69762 0.22879 0.0
C1900 C 0.41903 0.70033 0.22016 0.0
C1901 C 0.42193 0.68936 0.23105 0.0
C1902 C 0.42491 0.68656 0.21576 0.0
C1903 C 0.42232 0.6981 0.20465 0.0
O1904 O 0.42993 0.69965 0.17916 0.0
O1905 O 0.41571 0.70014 0.17887 0.0
O1906 O 0.41521 0.69701 0.2 0.0
O1907 O 0.42946 0.69656 0.20029 0.0
H1908 H 0.4239 0.71451 0.18956 0.0
H1909 H 0.4245 0.73027 0.18906 0.0
H1910 H 0.4237 0.72926 0.16104 0.0
H1911 H 0.42295 0.71349 0.16163 0.0
H1912 H 0.42042 0.67031 0.15584 0.0
H1913 H 0.42049 0.68005 0.16842 0.0
H1914 H 0.42272 0.6485 0.17306 0.0
H1915 H 0.42292 0.65828 0.18553 0.0
H1916 H 0.42711 0.67741 0.22594 0.0
H1917 H 0.41679 0.70209 0.23371 0.0
H1918 H 0.41683 0.70676 0.21861 0.0
H1919 H 0.42722 0.68222 0.21078 0.0
C1920 C 0.81263 0.17399 0.42598 0.0
C1921 C 0.8078 0.17627 0.43332 0.0
C1922 C 0.7944 0.17569 0.42482 0.0
C1923 C 0.79877 0.17712 0.43275 0.0
C1924 C 0.79929 0.17328 0.41752 0.0
C1925 C 0.80833 0.17245 0.4181 0.0
U1926 U 0.83339 0.17352 0.43935 0.0
O1927 O 0.84515 0.16559 0.43807 0.0
O1928 O 0.84608 0.17967 0.43721 0.0
C1929 C 0.85012 0.17228 0.43639 0.0
C1930 C 0.82215 0.17329 0.42648 0.0
C1931 C 0.8558 0.17145 0.42876 0.0
C1932 C 0.85858 0.17324 0.41335 0.0
C1933 C 0.85295 0.17381 0.42044 0.0
C1934 C 0.86989 0.1678 0.42281 0.0
C1935 C 0.86714 0.17025 0.41445 0.0
C1936 C 0.86428 0.16841 0.42988 0.0
C1937 C 0.83062 0.17573 0.46421 0.0
C1938 C 0.84199 0.1744 0.47512 0.0
C1939 C 0.82752 0.17876 0.47933 0.0
C1940 C 0.8248 0.17818 0.4707 0.0
C1941 C 0.83615 0.17689 0.48167 0.0
C1942 C 0.83925 0.17384 0.46644 0.0
C1943 C 0.82743 0.17515 0.45521 0.0
O1944 O 0.82624 0.1803 0.42907 0.0
O1945 O 0.82508 0.16626 0.4302 0.0
O1946 O 0.82837 0.16768 0.45131 0.0
O1947 O 0.82925 0.18175 0.45021 0.0
H1948 H 0.81103 0.17748 0.43947 0.0
H1949 H 0.79525 0.17909 0.43848 0.0
H1950 H 0.79614 0.172 0.41135 0.0
H1951 H 0.81195 0.17064 0.41238 0.0
H1952 H 0.85622 0.17509 0.40699 0.0
H1953 H 0.8464 0.17614 0.41944 0.0
H1954 H 0.87646 0.16558 0.42393 0.0
H1955 H 0.8666 0.16658 0.43626 0.0
H1956 H 0.8487 0.17298 0.47669 0.0
H1957 H 0.82281 0.18054 0.4842 0.0
H1958 H 0.8181 0.17962 0.46909 0.0
H1959 H 0.84384 0.17195 0.4615 0.0
C1960 C 0.81302 0.10387 0.84791 0.0
C1961 C 0.8081 0.10168 0.84054 0.0
C1962 C 0.79481 0.10192 0.84907 0.0
C1963 C 0.79908 0.1007 0.84111 0.0
C1964 C 0.79979 0.10426 0.85641 0.0
C1965 C 0.80881 0.10521 0.85583 0.0
U1966 U 0.83373 0.1048 0.83465 0.0
O1967 O 0.84552 0.11278 0.83624 0.0
O1968 O 0.84641 0.09868 0.83673 0.0
C1969 C 0.85048 0.10608 0.83775 0.0
C1970 C 0.82253 0.10466 0.84744 0.0
C1971 C 0.85634 0.10675 0.84533 0.0
C1972 C 0.86023 0.10326 0.86024 0.0
C1973 C 0.85427 0.10298 0.85333 0.0
C1974 C 0.87027 0.1113 0.8513 0.0
C1975 C 0.86837 0.10732 0.85927 0.0
C1976 C 0.86433 0.111 0.84442 0.0
C1977 C 0.83122 0.10313 0.80978 0.0
C1978 C 0.84312 0.10163 0.79959 0.0
C1979 C 0.82833 0.1027 0.79429 0.0
C1980 C 0.82536 0.10338 0.80282 0.0
C1981 C 0.83724 0.10177 0.79256 0.0
C1982 C 0.84014 0.10232 0.80814 0.0
C1983 C 0.82782 0.1035 0.81867 0.0
O1984 O 0.82658 0.09774 0.84471 0.0
O1985 O 0.82546 0.11179 0.84389 0.0
O1986 O 0.82876 0.1109 0.82276 0.0
O1987 O 0.82954 0.09681 0.82359 0.0
H1988 H 0.81125 0.10063 0.83436 0.0
H1989 H 0.79549 0.0988 0.83535 0.0
H1990 H 0.79672 0.10538 0.86261 0.0
H1991 H 0.8125 0.10696 0.86158 0.0
H1992 H 0.85856 0.10008 0.86625 0.0
H1993 H 0.84811 0.09969 0.85419 0.0
H1994 H 0.87638 0.11465 0.85036 0.0
H1995 H 0.86603 0.11399 0.83831 0.0
H1996 H 0.85003 0.10101 0.79849 0.0
H1997 H 0.82359 0.10269 0.78908 0.0
H1998 H 0.81846 0.10397 0.80397 0.0
H1999 H 0.84476 0.10214 0.81346 0.0
C2000 C 0.42272 0.56441 0.09852 0.0
C2001 C 0.42237 0.55959 0.09081 0.0
C2002 C 0.42335 0.54623 0.09904 0.0
C2003 C 0.42267 0.55058 0.09107 0.0
C2004 C 0.42372 0.55112 0.10674 0.0
C2005 C 0.4234 0.56013 0.10648 0.0
U2006 U 0.4226 0.58539 0.08588 0.0
O2007 O 0.41496 0.59721 0.08773 0.0
O2008 O 0.42919 0.59775 0.08844 0.0
C2009 C 0.42187 0.60194 0.08945 0.0
C2010 C 0.4224 0.57388 0.09832 0.0
C2011 C 0.42135 0.60745 0.09722 0.0
C2012 C 0.42177 0.60941 0.11288 0.0
C2013 C 0.42208 0.60399 0.10559 0.0
C2014 C 0.41992 0.62175 0.10349 0.0
C2015 C 0.4207 0.61837 0.11191 0.0
C2016 C 0.42024 0.61634 0.09623 0.0
C2017 C 0.42404 0.58377 0.06083 0.0
C2018 C 0.41738 0.59117 0.04859 0.0
C2019 C 0.43151 0.58462 0.04698 0.0
C2020 C 0.43125 0.58192 0.05562 0.0
C2021 C 0.42453 0.58918 0.04332 0.0
C2022 C 0.41713 0.58851 0.05726 0.0
C2023 C 0.42365 0.58015 0.0697 0.0
O2024 O 0.42953 0.57771 0.09567 0.0
O2025 O 0.41532 0.57716 0.0949 0.0
O2026 O 0.41626 0.58088 0.07388 0.0
O2027 O 0.43049 0.58148 0.07467 0.0
H2028 H 0.42188 0.5628 0.0846 0.0
H2029 H 0.42248 0.54703 0.08501 0.0
H2030 H 0.42414 0.54799 0.113 0.0
H2031 H 0.42366 0.56375 0.11249 0.0
H2032 H 0.42229 0.60656 0.11926 0.0
H2033 H 0.42292 0.59712 0.10648 0.0
H2034 H 0.41922 0.62861 0.10248 0.0
H2035 H 0.4197 0.61912 0.08981 0.0
H2036 H 0.41194 0.59476 0.046 0.0
H2037 H 0.43707 0.58288 0.04308 0.0
H2038 H 0.43661 0.5782 0.05818 0.0
H2039 H 0.41148 0.59005 0.0611 0.0
C2040 C 0.17633 0.85397 0.56343 0.0
C2041 C 0.18399 0.8529 0.55866 0.0
C2042 C 0.17572 0.85323 0.54512 0.0
C2043 C 0.18369 0.85252 0.54959 0.0
C2044 C 0.16807 0.85431 0.54997 0.0
C2045 C 0.16838 0.85467 0.55904 0.0
U2046 U 0.18933 0.85421 0.58438 0.0
O2047 O 0.18787 0.86196 0.59627 0.0
O2048 O 0.18703 0.84785 0.59689 0.0
C2049 C 0.18619 0.85518 0.60109 0.0
C2050 C 0.17662 0.8544 0.57296 0.0
C2051 C 0.17857 0.85589 0.60679 0.0
C2052 C 0.16317 0.85391 0.60968 0.0
C2053 C 0.17024 0.85335 0.60402 0.0
C2054 C 0.17267 0.85967 0.62088 0.0
C2055 C 0.1643 0.85707 0.61819 0.0
C2056 C 0.17972 0.85908 0.61523 0.0
C2057 C 0.21424 0.85269 0.58213 0.0
C2058 C 0.2245 0.85151 0.5941 0.0
C2059 C 0.22973 0.85224 0.57933 0.0
C2060 C 0.22119 0.8528 0.57631 0.0
C2061 C 0.23151 0.85156 0.58826 0.0
C2062 C 0.21593 0.85208 0.59106 0.0
C2063 C 0.20534 0.85306 0.57867 0.0
O2064 O 0.17927 0.84735 0.57684 0.0
O2065 O 0.18016 0.86143 0.57621 0.0
O2066 O 0.20128 0.86042 0.57966 0.0
O2067 O 0.20039 0.84632 0.58023 0.0
H2068 H 0.1902 0.85238 0.56195 0.0
H2069 H 0.18971 0.8518 0.54608 0.0
H2070 H 0.16182 0.85476 0.54675 0.0
H2071 H 0.16241 0.85548 0.56263 0.0
H2072 H 0.1568 0.85194 0.60738 0.0
H2073 H 0.16922 0.85092 0.5975 0.0
H2074 H 0.17382 0.86201 0.62741 0.0
H2075 H 0.1861 0.86105 0.6175 0.0
H2076 H 0.22564 0.85108 0.60102 0.0
H2077 H 0.23493 0.85214 0.57463 0.0
H2078 H 0.22 0.85323 0.56939 0.0
H2079 H 0.21062 0.85201 0.59564 0.0
C2080 C 0.67722 0.92294 0.71168 0.0
C2081 C 0.68461 0.9252 0.71655 0.0
C2082 C 0.67615 0.92481 0.72988 0.0
C2083 C 0.68409 0.92615 0.72557 0.0
C2084 C 0.6688 0.92242 0.72495 0.0
C2085 C 0.66933 0.9215 0.71593 0.0
U2086 U 0.69054 0.92186 0.69107 0.0
O2087 O 0.68899 0.91382 0.67933 0.0
O2088 O 0.68861 0.92793 0.67835 0.0
C2089 C 0.68761 0.92051 0.67431 0.0
C2090 C 0.67768 0.92212 0.70218 0.0
C2091 C 0.68013 0.91986 0.66832 0.0
C2092 C 0.66512 0.92291 0.66442 0.0
C2093 C 0.67194 0.92315 0.67048 0.0
C2094 C 0.67454 0.91587 0.65409 0.0
C2095 C 0.66637 0.91938 0.6561 0.0
C2096 C 0.68133 0.91612 0.66014 0.0
C2097 C 0.71543 0.92332 0.69378 0.0
C2098 C 0.72578 0.92454 0.68199 0.0
C2099 C 0.73092 0.92362 0.69684 0.0
C2100 C 0.72234 0.92309 0.69971 0.0
C2101 C 0.73276 0.92439 0.68794 0.0
C2102 C 0.71718 0.924 0.68489 0.0
C2103 C 0.7065 0.92306 0.69709 0.0
O2104 O 0.68048 0.92901 0.6981 0.0
O2105 O 0.68116 0.91496 0.69929 0.0
O2106 O 0.70234 0.91569 0.69618 0.0
O2107 O 0.70166 0.92978 0.69528 0.0
H2108 H 0.69077 0.92633 0.71337 0.0
H2109 H 0.68985 0.9281 0.72912 0.0
H2110 H 0.66262 0.92121 0.72805 0.0
H2111 H 0.66358 0.91969 0.71227 0.0
H2112 H 0.65894 0.92572 0.66617 0.0
H2113 H 0.67087 0.92605 0.67679 0.0
H2114 H 0.6757 0.91294 0.64783 0.0
H2115 H 0.68759 0.9135 0.65837 0.0
H2116 H 0.72697 0.92505 0.67509 0.0
H2117 H 0.73609 0.92363 0.70162 0.0
H2118 H 0.72111 0.9226 0.70661 0.0
H2119 H 0.71191 0.92417 0.68022 0.0
C2120 C 0.60266 0.46302 0.92685 0.0
C2121 C 0.60234 0.46772 0.93463 0.0
C2122 C 0.60065 0.4811 0.92656 0.0
C2123 C 0.60135 0.47667 0.93449 0.0
C2124 C 0.6011 0.47635 0.91878 0.0
C2125 C 0.60209 0.46738 0.91893 0.0
U2126 U 0.60376 0.44228 0.93964 0.0
O2127 O 0.59733 0.42975 0.93758 0.0
O2128 O 0.61156 0.43056 0.93781 0.0
C2129 C 0.6047 0.42566 0.93644 0.0
C2130 C 0.60336 0.45357 0.927 0.0
C2131 C 0.60506 0.42 0.92877 0.0
C2132 C 0.60459 0.41775 0.91316 0.0
C2133 C 0.60444 0.42331 0.92034 0.0
C2134 C 0.60603 0.40554 0.92279 0.0
C2135 C 0.60533 0.40878 0.9143 0.0
C2136 C 0.60589 0.4111 0.92995 0.0
C2137 C 0.60283 0.44461 0.96456 0.0
C2138 C 0.60141 0.43279 0.97477 0.0
C2139 C 0.60286 0.44744 0.98005 0.0
C2140 C 0.60336 0.4504 0.97152 0.0
C2141 C 0.60183 0.4386 0.9818 0.0
C2142 C 0.60191 0.43577 0.96621 0.0
C2143 C 0.603 0.44801 0.95567 0.0
O2144 O 0.61061 0.45055 0.9303 0.0
O2145 O 0.59642 0.44951 0.92981 0.0
O2146 O 0.59609 0.44636 0.95089 0.0
O2147 O 0.61032 0.44708 0.95144 0.0
H2148 H 0.60279 0.46444 0.94082 0.0
H2149 H 0.60116 0.48012 0.9406 0.0
H2150 H 0.60047 0.47952 0.91257 0.0
H2151 H 0.60229 0.46385 0.91287 0.0
H2152 H 0.60395 0.42046 0.90672 0.0
H2153 H 0.60377 0.43018 0.91931 0.0
H2154 H 0.60675 0.3987 0.92393 0.0
H2155 H 0.6064 0.40843 0.93641 0.0
H2156 H 0.6007 0.42593 0.97588 0.0
H2157 H 0.60307 0.45213 0.98527 0.0
H2158 H 0.60403 0.45725 0.97036 0.0
H2159 H 0.60151 0.4312 0.96089 0.0
C2160 C 0.60201 0.31471 0.85022 0.0
C2161 C 0.60017 0.3099 0.84271 0.0
C2162 C 0.60031 0.2966 0.85109 0.0
C2163 C 0.59931 0.30093 0.84314 0.0
C2164 C 0.60228 0.30147 0.85858 0.0
C2165 C 0.60312 0.31045 0.85813 0.0
U2166 U 0.60305 0.33539 0.83716 0.0
O2167 O 0.59664 0.34788 0.83917 0.0
O2168 O 0.61087 0.34716 0.83901 0.0
C2169 C 0.60403 0.35201 0.84037 0.0
C2170 C 0.60268 0.32417 0.84986 0.0
C2171 C 0.60445 0.35762 0.84807 0.0
C2172 C 0.60538 0.35968 0.8637 0.0
C2173 C 0.60502 0.35419 0.85646 0.0
C2174 C 0.60458 0.37206 0.85421 0.0
C2175 C 0.60517 0.36869 0.86266 0.0
C2176 C 0.60423 0.36658 0.847 0.0
C2177 C 0.60228 0.33289 0.8121 0.0
C2178 C 0.59588 0.34139 0.80048 0.0
C2179 C 0.6073 0.33122 0.79726 0.0
C2180 C 0.60781 0.32904 0.80604 0.0
C2181 C 0.6012 0.33729 0.79434 0.0
C2182 C 0.59641 0.33921 0.80928 0.0
C2183 C 0.60235 0.32967 0.82112 0.0
O2184 O 0.60993 0.32721 0.84659 0.0
O2185 O 0.59573 0.32811 0.84693 0.0
O2186 O 0.59542 0.33119 0.82582 0.0
O2187 O 0.60966 0.33059 0.82546 0.0
H2188 H 0.59929 0.31309 0.83653 0.0
H2189 H 0.59768 0.29742 0.83727 0.0
H2190 H 0.60323 0.29836 0.86478 0.0
H2191 H 0.60459 0.31406 0.86399 0.0
H2192 H 0.60592 0.35685 0.87009 0.0
H2193 H 0.60521 0.34728 0.85741 0.0
H2194 H 0.60426 0.37895 0.85316 0.0
H2195 H 0.60375 0.36934 0.84057 0.0
H2196 H 0.59106 0.34604 0.79846 0.0
H2197 H 0.61161 0.32806 0.79275 0.0
H2198 H 0.61239 0.32415 0.80806 0.0
H2199 H 0.59206 0.3423 0.81382 0.0
C2200 C 0.17438 0.96295 0.34895 0.0
C2201 C 0.17882 0.96754 0.34249 0.0
C2202 C 0.17498 0.98117 0.34938 0.0
C2203 C 0.17915 0.97655 0.34273 0.0
C2204 C 0.1705 0.97651 0.3558 0.0
C2205 C 0.17023 0.9675 0.35559 0.0
U2206 U 0.17334 0.94198 0.33617 0.0
O2207 O 0.17957 0.92945 0.33835 0.0
O2208 O 0.16534 0.93033 0.33807 0.0
C2209 C 0.17213 0.92542 0.33951 0.0
C2210 C 0.17383 0.95345 0.34871 0.0
C2211 C 0.1716 0.91976 0.34715 0.0
C2212 C 0.17427 0.91675 0.36241 0.0
C2213 C 0.17467 0.92239 0.35533 0.0
C2214 C 0.1676 0.90588 0.35322 0.0
C2215 C 0.17073 0.90841 0.36144 0.0
C2216 C 0.16804 0.91149 0.34616 0.0
C2217 C 0.17356 0.94406 0.31115 0.0
C2218 C 0.17697 0.93313 0.30036 0.0
C2219 C 0.16982 0.94631 0.29601 0.0
C2220 C 0.16992 0.94916 0.30461 0.0
C2221 C 0.17337 0.93828 0.29375 0.0
C2222 C 0.17704 0.93599 0.309 0.0
C2223 C 0.17381 0.94748 0.32008 0.0
O2224 O 0.16655 0.95028 0.34554 0.0
O2225 O 0.18076 0.94943 0.34586 0.0
O2226 O 0.18081 0.94582 0.32469 0.0
O2227 O 0.16659 0.94674 0.32452 0.0
H2228 H 0.18202 0.96416 0.33725 0.0
H2229 H 0.18276 0.97987 0.33774 0.0
H2230 H 0.16708 0.97982 0.36093 0.0
H2231 H 0.1667 0.96408 0.36058 0.0
H2232 H 0.17666 0.91895 0.36867 0.0
H2233 H 0.1774 0.92878 0.35624 0.0
H2234 H 0.16496 0.89948 0.35218 0.0
H2235 H 0.16565 0.90934 0.33989 0.0
H2236 H 0.17968 0.92688 0.29885 0.0
H2237 H 0.16712 0.9505 0.29109 0.0
H2238 H 0.16724 0.95542 0.30614 0.0
H2239 H 0.17985 0.93193 0.31397 0.0
C2240 C 0.17606 0.21289 0.92276 0.0
C2241 C 0.18391 0.2175 0.92327 0.0
C2242 C 0.176 0.23094 0.92511 0.0
C2243 C 0.18388 0.22643 0.92443 0.0
C2244 C 0.16814 0.22628 0.92449 0.0
C2245 C 0.16819 0.21733 0.92333 0.0
U2246 U 0.18874 0.19221 0.92061 0.0
O2247 O 0.1869 0.17944 0.92644 0.0
O2248 O 0.18673 0.18081 0.91226 0.0
C2249 C 0.18561 0.17564 0.9189 0.0
C2250 C 0.17611 0.20346 0.92174 0.0
C2251 C 0.17815 0.16965 0.91833 0.0
C2252 C 0.16344 0.16532 0.92215 0.0
C2253 C 0.17018 0.17144 0.92232 0.0
C2254 C 0.17251 0.1557 0.91379 0.0
C2255 C 0.16459 0.15731 0.91799 0.0
C2256 C 0.17921 0.1618 0.91398 0.0
C2257 C 0.21375 0.19467 0.92087 0.0
C2258 C 0.22447 0.18349 0.92347 0.0
C2259 C 0.229 0.1974 0.91798 0.0
C2260 C 0.22039 0.20017 0.91806 0.0
C2261 C 0.23117 0.18904 0.92072 0.0
C2262 C 0.21582 0.18627 0.92352 0.0
C2263 C 0.20481 0.19798 0.9212 0.0
O2264 O 0.17914 0.20063 0.91431 0.0
O2265 O 0.17915 0.19919 0.92845 0.0
O2266 O 0.2003 0.19603 0.92814 0.0
O2267 O 0.20028 0.19738 0.91397 0.0
H2268 H 0.19006 0.21417 0.92281 0.0
H2269 H 0.19004 0.22982 0.92476 0.0
H2270 H 0.16196 0.22952 0.92508 0.0
H2271 H 0.16207 0.21386 0.92296 0.0
H2272 H 0.15745 0.16676 0.92548 0.0
H2273 H 0.16922 0.17749 0.9257 0.0
H2274 H 0.17356 0.14969 0.91038 0.0
H2275 H 0.1853 0.16032 0.91082 0.0
H2276 H 0.22591 0.17699 0.92554 0.0
H2277 H 0.23399 0.20189 0.91595 0.0
H2278 H 0.21892 0.20668 0.91602 0.0
H2279 H 0.21077 0.18191 0.92569 0.0
C2280 C 0.35051 0.46257 0.67152 0.0
C2281 C 0.34284 0.46737 0.67217 0.0
C2282 C 0.35119 0.48076 0.67194 0.0
C2283 C 0.34317 0.47638 0.67239 0.0
C2284 C 0.35885 0.47589 0.67126 0.0
C2285 C 0.35851 0.46688 0.67106 0.0
U2286 U 0.33742 0.44183 0.67157 0.0
O2287 O 0.33905 0.42972 0.66432 0.0
O2288 O 0.33944 0.42965 0.67854 0.0
C2289 C 0.34047 0.42518 0.67136 0.0
C2290 C 0.35019 0.45309 0.67137 0.0
C2291 C 0.3481 0.4195 0.67116 0.0
C2292 C 0.3637 0.41728 0.67038 0.0
C2293 C 0.35655 0.42284 0.6705 0.0
C2294 C 0.35399 0.40502 0.67157 0.0
C2295 C 0.36251 0.40829 0.67094 0.0
C2296 C 0.34687 0.41057 0.67168 0.0
C2297 C 0.31249 0.44428 0.6724 0.0
C2298 C 0.30212 0.43251 0.67388 0.0
C2299 C 0.29701 0.44718 0.67246 0.0
C2300 C 0.30558 0.4501 0.67192 0.0
C2301 C 0.29515 0.43836 0.67348 0.0
C2302 C 0.31073 0.43545 0.67333 0.0
C2303 C 0.32142 0.44764 0.6721 0.0
O2304 O 0.34733 0.44948 0.67851 0.0
O2305 O 0.34683 0.44966 0.6643 0.0
O2306 O 0.32565 0.44632 0.66483 0.0
O2307 O 0.32619 0.44632 0.67906 0.0
H2308 H 0.3366 0.46414 0.67251 0.0
H2309 H 0.33714 0.47991 0.6728 0.0
H2310 H 0.36514 0.47904 0.67102 0.0
H2311 H 0.36449 0.46327 0.67058 0.0
H2312 H 0.37016 0.42003 0.66998 0.0
H2313 H 0.35762 0.42974 0.67012 0.0
H2314 H 0.35281 0.39815 0.67187 0.0
H2315 H 0.34039 0.40788 0.67216 0.0
H2316 H 0.30092 0.42567 0.67458 0.0
H2317 H 0.29184 0.45188 0.67228 0.0
H2318 H 0.30683 0.45694 0.67124 0.0
H2319 H 0.316 0.43087 0.67369 0.0
C2320 C 0.314 0.34881 0.10238 0.0
C2321 C 0.3094 0.34099 0.10204 0.0
C2322 C 0.29577 0.34873 0.10021 0.0
C2323 C 0.30037 0.34095 0.10097 0.0
C2324 C 0.30043 0.35655 0.10068 0.0
C2325 C 0.30947 0.35658 0.10174 0.0
U2326 U 0.33512 0.3365 0.10355 0.0
O2327 O 0.34776 0.33885 0.0974 0.0
O2328 O 0.34684 0.33844 0.1116 0.0
C2329 C 0.35179 0.34001 0.10486 0.0
C2330 C 0.32353 0.34885 0.10319 0.0
C2331 C 0.35738 0.34772 0.1055 0.0
C2332 C 0.36 0.36304 0.10339 0.0
C2333 C 0.35443 0.35588 0.10295 0.0
C2334 C 0.37145 0.35399 0.10906 0.0
C2335 C 0.36859 0.36218 0.10643 0.0
C2336 C 0.3659 0.34684 0.10859 0.0
C2337 C 0.33305 0.31169 0.10224 0.0
C2338 C 0.34494 0.30158 0.10052 0.0
C2339 C 0.33024 0.29628 0.10237 0.0
C2340 C 0.32725 0.30475 0.10294 0.0
C2341 C 0.33911 0.29457 0.1011 0.0
C2342 C 0.34193 0.31008 0.1011 0.0
C2343 C 0.32957 0.32049 0.10246 0.0
O2344 O 0.32661 0.34557 0.11043 0.0
O2345 O 0.32769 0.34618 0.09627 0.0
O2346 O 0.33124 0.32529 0.09566 0.0
O2347 O 0.33041 0.32467 0.10985 0.0
H2348 H 0.31281 0.33492 0.10254 0.0
H2349 H 0.297 0.33481 0.10077 0.0
H2350 H 0.29712 0.36266 0.10001 0.0
H2351 H 0.31293 0.36267 0.10197 0.0
H2352 H 0.35755 0.36927 0.1014 0.0
H2353 H 0.34785 0.35669 0.10058 0.0
H2354 H 0.37805 0.35305 0.11131 0.0
H2355 H 0.36831 0.3406 0.11056 0.0
H2356 H 0.35182 0.3005 0.09963 0.0
H2357 H 0.32554 0.29108 0.10269 0.0
H2358 H 0.32037 0.30588 0.10378 0.0
H2359 H 0.3465 0.31537 0.10057 0.0
C2360 C 0.17523 0.56434 0.85235 0.0
C2361 C 0.18177 0.55967 0.84813 0.0
C2362 C 0.17451 0.54615 0.85167 0.0
C2363 C 0.18139 0.55067 0.84775 0.0
C2364 C 0.16802 0.55086 0.85597 0.0
C2365 C 0.16837 0.55987 0.85628 0.0
U2366 U 0.18842 0.58501 0.85219 0.0
O2367 O 0.18619 0.59744 0.8458 0.0
O2368 O 0.18737 0.59689 0.85999 0.0
C2369 C 0.18566 0.60168 0.85318 0.0
C2370 C 0.17561 0.57382 0.85284 0.0
C2371 C 0.17832 0.60768 0.85399 0.0
C2372 C 0.16321 0.61159 0.85148 0.0
C2373 C 0.1699 0.60549 0.85116 0.0
C2374 C 0.17323 0.62201 0.8577 0.0
C2375 C 0.16483 0.61998 0.85463 0.0
C2376 C 0.17988 0.61594 0.85736 0.0
C2377 C 0.21324 0.58226 0.84972 0.0
C2378 C 0.22413 0.5936 0.85101 0.0
C2379 C 0.22833 0.57927 0.84646 0.0
C2380 C 0.21972 0.57652 0.84712 0.0
C2381 C 0.23067 0.58784 0.84839 0.0
C2382 C 0.21547 0.59083 0.85164 0.0
C2383 C 0.20427 0.57905 0.85045 0.0
O2384 O 0.17943 0.57698 0.85981 0.0
O2385 O 0.17796 0.57774 0.84567 0.0
O2386 O 0.19911 0.58067 0.84384 0.0
O2387 O 0.20052 0.58016 0.858 0.0
H2388 H 0.18718 0.56299 0.84515 0.0
H2389 H 0.18655 0.54724 0.8445 0.0
H2390 H 0.16261 0.54757 0.85899 0.0
H2391 H 0.16329 0.56335 0.8596 0.0
H2392 H 0.15685 0.60981 0.84902 0.0
H2393 H 0.16855 0.59914 0.84854 0.0
H2394 H 0.17468 0.62834 0.86033 0.0
H2395 H 0.18632 0.61774 0.85963 0.0
H2396 H 0.22569 0.60026 0.85247 0.0
H2397 H 0.2332 0.57462 0.84458 0.0
H2398 H 0.21811 0.56987 0.84564 0.0
H2399 H 0.21053 0.59536 0.85364 0.0
C2400 C 0.67266 0.46313 0.34974 0.0
C2401 C 0.67341 0.46791 0.34207 0.0
C2402 C 0.67323 0.48132 0.35036 0.0
C2403 C 0.6737 0.47692 0.34238 0.0
C2404 C 0.67245 0.47647 0.35803 0.0
C2405 C 0.67218 0.46746 0.35771 0.0
U2406 U 0.67301 0.44243 0.33669 0.0
O2407 O 0.67963 0.43013 0.33901 0.0
O2408 O 0.66542 0.43043 0.33794 0.0
C2409 C 0.67232 0.42579 0.3397 0.0
C2410 C 0.67238 0.45366 0.34945 0.0
C2411 C 0.67162 0.42004 0.34725 0.0
C2412 C 0.67327 0.41715 0.36268 0.0
C2413 C 0.67378 0.42285 0.35566 0.0
C2414 C 0.66832 0.40583 0.35297 0.0
C2415 C 0.67055 0.40855 0.36141 0.0
C2416 C 0.66886 0.41151 0.34597 0.0
C2417 C 0.67501 0.44512 0.31184 0.0
C2418 C 0.6741 0.43366 0.30107 0.0
C2419 C 0.67774 0.4482 0.29667 0.0
C2420 C 0.67712 0.45096 0.30527 0.0
C2421 C 0.67625 0.43952 0.29444 0.0
C2422 C 0.67351 0.43644 0.30971 0.0
C2423 C 0.67438 0.44833 0.32079 0.0
O2424 O 0.66541 0.45031 0.34577 0.0
O2425 O 0.6796 0.44996 0.34692 0.0
O2426 O 0.68111 0.44683 0.32584 0.0
O2427 O 0.6669 0.4471 0.32468 0.0
H2428 H 0.67376 0.46467 0.33585 0.0
H2429 H 0.67417 0.48043 0.33634 0.0
H2430 H 0.67219 0.47963 0.36429 0.0
H2431 H 0.67161 0.46386 0.3637 0.0
H2432 H 0.67494 0.41949 0.3691 0.0
H2433 H 0.67589 0.42943 0.35678 0.0
H2434 H 0.66633 0.39924 0.35172 0.0
H2435 H 0.66719 0.40922 0.33953 0.0
H2436 H 0.67298 0.42692 0.29958 0.0
H2437 H 0.67926 0.45292 0.29173 0.0
H2438 H 0.67827 0.45769 0.30679 0.0
H2439 H 0.67188 0.43183 0.31472 0.0
C2440 C 0.17748 0.92327 0.21169 0.0
C2441 C 0.18489 0.92556 0.21651 0.0
C2442 C 0.17656 0.92501 0.22991 0.0
C2443 C 0.18444 0.92644 0.22553 0.0
C2444 C 0.16918 0.92258 0.22503 0.0
C2445 C 0.16964 0.92173 0.216 0.0
U2446 U 0.19051 0.92264 0.19086 0.0
O2447 O 0.18889 0.91473 0.17906 0.0
O2448 O 0.18821 0.92883 0.17825 0.0
C2449 C 0.18726 0.92145 0.17415 0.0
C2450 C 0.17783 0.92257 0.20218 0.0
C2451 C 0.17958 0.9207 0.16845 0.0
C2452 C 0.16412 0.92246 0.16565 0.0
C2453 C 0.17126 0.923 0.17131 0.0
C2454 C 0.17352 0.91719 0.15428 0.0
C2455 C 0.16517 0.91956 0.15705 0.0
C2456 C 0.18064 0.91776 0.15992 0.0
C2457 C 0.21542 0.92442 0.19301 0.0
C2458 C 0.22558 0.92828 0.18162 0.0
C2459 C 0.23095 0.92281 0.19533 0.0
C2460 C 0.22242 0.92202 0.1983 0.0
C2461 C 0.23265 0.92604 0.18699 0.0
C2462 C 0.21704 0.92746 0.1846 0.0
C2463 C 0.20657 0.92399 0.19655 0.0
O2464 O 0.18047 0.92955 0.19815 0.0
O2465 O 0.18139 0.9155 0.19916 0.0
O2466 O 0.20251 0.91657 0.19567 0.0
O2467 O 0.20158 0.93066 0.19499 0.0
H2468 H 0.19101 0.92677 0.21328 0.0
H2469 H 0.19023 0.92842 0.22905 0.0
H2470 H 0.16305 0.9213 0.22818 0.0
H2471 H 0.16386 0.9199 0.21239 0.0
H2472 H 0.15777 0.92424 0.16803 0.0
H2473 H 0.17031 0.92524 0.1779 0.0
H2474 H 0.1746 0.91506 0.14768 0.0
H2475 H 0.18702 0.91599 0.15759 0.0
H2476 H 0.22666 0.93069 0.17513 0.0
H2477 H 0.23622 0.92113 0.19967 0.0
H2478 H 0.2213 0.91968 0.20482 0.0
H2479 H 0.2117 0.9293 0.18039 0.0
C2480 C 0.3141 0.10473 0.34761 0.0
C2481 C 0.30924 0.10234 0.34026 0.0
C2482 C 0.29587 0.10288 0.34866 0.0
C2483 C 0.30021 0.10141 0.34078 0.0
C2484 C 0.30079 0.10541 0.35597 0.0
C2485 C 0.30982 0.10631 0.35544 0.0
U2486 U 0.33484 0.10557 0.33442 0.0
O2487 O 0.34663 0.11356 0.33596 0.0
O2488 O 0.34751 0.09945 0.33652 0.0
C2489 C 0.35159 0.10685 0.33748 0.0
C2490 C 0.32362 0.1055 0.34718 0.0
C2491 C 0.3575 0.10756 0.34502 0.0
C2492 C 0.36144 0.10423 0.35995 0.0
C2493 C 0.35542 0.10396 0.3531 0.0
C2494 C 0.37156 0.11194 0.35081 0.0
C2495 C 0.36964 0.10812 0.35885 0.0
C2496 C 0.36556 0.11164 0.34398 0.0
C2497 C 0.33232 0.1038 0.30955 0.0
C2498 C 0.3442 0.1022 0.29935 0.0
C2499 C 0.32941 0.10337 0.29406 0.0
C2500 C 0.32646 0.10408 0.30259 0.0
C2501 C 0.33831 0.10237 0.29232 0.0
C2502 C 0.34122 0.10292 0.3079 0.0
C2503 C 0.32892 0.10421 0.31844 0.0
O2504 O 0.32768 0.09856 0.3445 0.0
O2505 O 0.32657 0.11261 0.34362 0.0
O2506 O 0.32986 0.11162 0.32249 0.0
O2507 O 0.33064 0.09754 0.32338 0.0
H2508 H 0.31244 0.10111 0.33414 0.0
H2509 H 0.29666 0.09936 0.33504 0.0
H2510 H 0.29767 0.10673 0.3621 0.0
H2511 H 0.31347 0.10822 0.36117 0.0
H2512 H 0.35976 0.10118 0.36603 0.0
H2513 H 0.34921 0.10079 0.35405 0.0
H2514 H 0.37773 0.11515 0.34977 0.0
H2515 H 0.36727 0.11451 0.33781 0.0
H2516 H 0.3511 0.10153 0.29825 0.0
H2517 H 0.32467 0.10339 0.28885 0.0
H2518 H 0.31955 0.10472 0.30375 0.0
H2519 H 0.34585 0.10271 0.31322 0.0
C2520 C 0.85374 0.0637 0.67531 0.0
C2521 C 0.85387 0.05892 0.68303 0.0
C2522 C 0.85311 0.04551 0.67478 0.0
C2523 C 0.85357 0.04992 0.68276 0.0
C2524 C 0.85295 0.05035 0.66707 0.0
C2525 C 0.85327 0.05936 0.66734 0.0
U2526 U 0.85375 0.08445 0.68828 0.0
O2527 O 0.86146 0.09637 0.68692 0.0
O2528 O 0.84723 0.09682 0.68605 0.0
C2529 C 0.85458 0.10109 0.6853 0.0
C2530 C 0.85408 0.07317 0.67557 0.0
C2531 C 0.85525 0.10708 0.67792 0.0
C2532 C 0.85171 0.11137 0.66314 0.0
C2533 C 0.85144 0.10525 0.66981 0.0
C2534 C 0.8598 0.12108 0.67252 0.0
C2535 C 0.85578 0.11942 0.66446 0.0
C2536 C 0.85952 0.11498 0.67917 0.0
C2537 C 0.85211 0.0821 0.71314 0.0
C2538 C 0.8505 0.09395 0.72334 0.0
C2539 C 0.85164 0.07931 0.72861 0.0
C2540 C 0.85235 0.07633 0.72009 0.0
C2541 C 0.85067 0.08816 0.73036 0.0
C2542 C 0.85123 0.09095 0.71479 0.0
C2543 C 0.85258 0.07868 0.70425 0.0
O2544 O 0.84692 0.07693 0.6782 0.0
O2545 O 0.86113 0.07649 0.67911 0.0
O2546 O 0.86001 0.07978 0.70024 0.0
O2547 O 0.8458 0.08016 0.69927 0.0
H2548 H 0.85418 0.06217 0.68925 0.0
H2549 H 0.85358 0.04641 0.68883 0.0
H2550 H 0.85271 0.04717 0.66081 0.0
H2551 H 0.85318 0.06295 0.66132 0.0
H2552 H 0.84851 0.1099 0.65704 0.0
H2553 H 0.84813 0.09918 0.66869 0.0
H2554 H 0.86315 0.12712 0.67373 0.0
H2555 H 0.86254 0.1165 0.68535 0.0
H2556 H 0.84985 0.10081 0.72446 0.0
H2557 H 0.85164 0.07465 0.73382 0.0
H2558 H 0.85299 0.06947 0.71892 0.0
H2559 H 0.85105 0.0955 0.70948 0.0
C2560 C 0.56404 0.17755 0.85064 0.0
C2561 C 0.55915 0.18499 0.84909 0.0
C2562 C 0.54579 0.17647 0.84885 0.0
C2563 C 0.55011 0.18446 0.84819 0.0
C2564 C 0.55075 0.16905 0.85052 0.0
C2565 C 0.55979 0.16959 0.8514 0.0
U2566 U 0.58476 0.19079 0.85269 0.0
O2567 O 0.59648 0.18879 0.86068 0.0
O2568 O 0.59749 0.18929 0.84649 0.0
C2569 C 0.60152 0.18787 0.85388 0.0
C2570 C 0.57356 0.17803 0.85145 0.0
C2571 C 0.60742 0.18043 0.85403 0.0
C2572 C 0.61045 0.16523 0.85162 0.0
C2573 C 0.60457 0.17211 0.85176 0.0
C2574 C 0.62201 0.17491 0.85615 0.0
C2575 C 0.61927 0.16658 0.85372 0.0
C2576 C 0.61614 0.18175 0.85629 0.0
C2577 C 0.58211 0.21557 0.85324 0.0
C2578 C 0.5931 0.22652 0.85047 0.0
C2579 C 0.57936 0.23055 0.85684 0.0
C2580 C 0.57665 0.22195 0.85658 0.0
C2581 C 0.5876 0.23297 0.85375 0.0
C2582 C 0.59039 0.21788 0.85024 0.0
C2583 C 0.57884 0.20664 0.85272 0.0
O2584 O 0.57761 0.18131 0.84474 0.0
O2585 O 0.5765 0.181 0.85891 0.0
O2586 O 0.57966 0.20201 0.85979 0.0
O2587 O 0.58064 0.20235 0.8456 0.0
H2588 H 0.56233 0.19121 0.8485 0.0
H2589 H 0.54653 0.19029 0.8468 0.0
H2590 H 0.54765 0.16282 0.85121 0.0
H2591 H 0.56346 0.16379 0.85266 0.0
H2592 H 0.60813 0.15892 0.84967 0.0
H2593 H 0.59784 0.17097 0.85 0.0
H2594 H 0.6287 0.17616 0.85797 0.0
H2595 H 0.61845 0.18812 0.85811 0.0
H2596 H 0.59952 0.22814 0.84812 0.0
H2597 H 0.57489 0.23534 0.85929 0.0
H2598 H 0.57023 0.22029 0.85889 0.0
H2599 H 0.59472 0.21304 0.84766 0.0
C2600 C 0.42655 0.96288 0.60265 0.0
C2601 C 0.43426 0.96771 0.60208 0.0
C2602 C 0.42595 0.98105 0.60182 0.0
C2603 C 0.43396 0.97671 0.60166 0.0
C2604 C 0.41826 0.97615 0.60241 0.0
C2605 C 0.41856 0.96715 0.60281 0.0
U2606 U 0.43945 0.94212 0.6037 0.0
O2607 O 0.43745 0.93038 0.61141 0.0
O2608 O 0.4374 0.92962 0.5972 0.0
C2609 C 0.43612 0.92552 0.60453 0.0
C2610 C 0.42681 0.95342 0.60311 0.0
C2611 C 0.42838 0.91992 0.6048 0.0
C2612 C 0.41274 0.91788 0.60574 0.0
C2613 C 0.42 0.92336 0.60545 0.0
C2614 C 0.42219 0.90549 0.6047 0.0
C2615 C 0.41375 0.90886 0.60539 0.0
C2616 C 0.42942 0.91097 0.60441 0.0
C2617 C 0.46447 0.94443 0.60374 0.0
C2618 C 0.47511 0.93329 0.60077 0.0
C2619 C 0.47975 0.94697 0.60685 0.0
C2620 C 0.47116 0.9498 0.60682 0.0
C2621 C 0.48186 0.9387 0.60379 0.0
C2622 C 0.46648 0.93612 0.60077 0.0
C2623 C 0.45555 0.9478 0.60351 0.0
O2624 O 0.42988 0.94954 0.59619 0.0
O2625 O 0.42991 0.95027 0.61039 0.0
O2626 O 0.45104 0.94693 0.61066 0.0
O2627 O 0.45101 0.94618 0.59644 0.0
H2628 H 0.44049 0.96451 0.60199 0.0
H2629 H 0.44002 0.98027 0.60134 0.0
H2630 H 0.41198 0.97927 0.60243 0.0
H2631 H 0.41255 0.96352 0.60323 0.0
H2632 H 0.40636 0.9207 0.60637 0.0
H2633 H 0.41908 0.93027 0.60576 0.0
H2634 H 0.42322 0.8986 0.60427 0.0
H2635 H 0.43584 0.9082 0.60387 0.0
H2636 H 0.4765 0.92685 0.59845 0.0
H2637 H 0.48478 0.95136 0.60909 0.0
H2638 H 0.46973 0.95625 0.60911 0.0
H2639 H 0.4614 0.93187 0.5984 0.0
C2640 C 0.59892 0.06323 0.42252 0.0
C2641 C 0.59122 0.05843 0.42325 0.0
C2642 C 0.59949 0.04506 0.42328 0.0
C2643 C 0.5915 0.04943 0.42364 0.0
C2644 C 0.60719 0.04994 0.42253 0.0
C2645 C 0.6069 0.05894 0.42216 0.0
U2646 U 0.58609 0.08405 0.42197 0.0
O2647 O 0.58831 0.09649 0.42847 0.0
O2648 O 0.58796 0.09584 0.41425 0.0
C2649 C 0.58956 0.10061 0.42114 0.0
C2650 C 0.59868 0.0727 0.42209 0.0
C2651 C 0.59734 0.10622 0.4207 0.0
C2652 C 0.61183 0.11038 0.42558 0.0
C2653 C 0.60473 0.10472 0.42586 0.0
C2654 C 0.60438 0.11898 0.41481 0.0
C2655 C 0.61173 0.1176 0.42008 0.0
C2656 C 0.59725 0.11336 0.41515 0.0
C2657 C 0.5611 0.08185 0.4229 0.0
C2658 C 0.55092 0.09362 0.42475 0.0
C2659 C 0.54558 0.07906 0.42254 0.0
C2660 C 0.55411 0.07611 0.42201 0.0
C2661 C 0.54385 0.08785 0.42397 0.0
C2662 C 0.55948 0.09064 0.42421 0.0
C2663 C 0.56999 0.07841 0.42269 0.0
O2664 O 0.59535 0.07588 0.41493 0.0
O2665 O 0.59587 0.07657 0.42913 0.0
O2666 O 0.57479 0.07995 0.4296 0.0
O2667 O 0.57422 0.07941 0.41538 0.0
H2668 H 0.585 0.06164 0.42351 0.0
H2669 H 0.58545 0.04588 0.4241 0.0
H2670 H 0.61345 0.04681 0.42235 0.0
H2671 H 0.6129 0.06256 0.42161 0.0
H2672 H 0.61744 0.10907 0.42963 0.0
H2673 H 0.60499 0.09922 0.43015 0.0
H2674 H 0.60404 0.12452 0.41057 0.0
H2675 H 0.59162 0.11465 0.41112 0.0
H2676 H 0.54983 0.10043 0.42576 0.0
H2677 H 0.54033 0.07441 0.42206 0.0
H2678 H 0.55525 0.06929 0.42104 0.0
H2679 H 0.56482 0.09517 0.42489 0.0
C2680 C 0.42572 0.31392 0.67127 0.0
C2681 C 0.43336 0.30912 0.67229 0.0
C2682 C 0.42499 0.29574 0.67189 0.0
C2683 C 0.433 0.30012 0.6726 0.0
C2684 C 0.41736 0.30061 0.67083 0.0
C2685 C 0.41773 0.30962 0.67053 0.0
U2686 U 0.43888 0.33461 0.67141 0.0
O2687 O 0.43738 0.34661 0.66398 0.0
O2688 O 0.43683 0.34691 0.6782 0.0
C2689 C 0.43587 0.35125 0.67095 0.0
C2690 C 0.42607 0.32339 0.67101 0.0
C2691 C 0.4282 0.35688 0.67052 0.0
C2692 C 0.41257 0.359 0.6708 0.0
C2693 C 0.41975 0.3535 0.67105 0.0
C2694 C 0.42221 0.37129 0.66941 0.0
C2695 C 0.4137 0.36797 0.67 0.0
C2696 C 0.42937 0.36579 0.66968 0.0
C2697 C 0.46383 0.33186 0.67292 0.0
C2698 C 0.47459 0.34337 0.67258 0.0
C2699 C 0.47911 0.32863 0.67494 0.0
C2700 C 0.47047 0.3259 0.67437 0.0
C2701 C 0.48129 0.33739 0.67409 0.0
C2702 C 0.46591 0.34062 0.67202 0.0
C2703 C 0.45482 0.32869 0.67242 0.0
O2704 O 0.42883 0.32712 0.67818 0.0
O2705 O 0.42954 0.32669 0.66399 0.0
O2706 O 0.45072 0.32995 0.66503 0.0
O2707 O 0.44998 0.33019 0.67924 0.0
H2708 H 0.43959 0.31234 0.67284 0.0
H2709 H 0.439 0.29658 0.6733 0.0
H2710 H 0.41108 0.29746 0.67036 0.0
H2711 H 0.41178 0.31322 0.66976 0.0
H2712 H 0.40612 0.35621 0.67116 0.0
H2713 H 0.41873 0.34662 0.67168 0.0
H2714 H 0.42334 0.37816 0.66891 0.0
H2715 H 0.43585 0.36851 0.66929 0.0
H2716 H 0.47605 0.35017 0.67195 0.0
H2717 H 0.48409 0.32383 0.67596 0.0
H2718 H 0.46898 0.31911 0.67504 0.0
H2719 H 0.46084 0.34531 0.67091 0.0
C2720 C 0.4263 0.60191 0.96075 0.0
C2721 C 0.43368 0.59932 0.96543 0.0
C2722 C 0.42556 0.60001 0.97896 0.0
C2723 C 0.4333 0.59835 0.97444 0.0
C2724 C 0.41821 0.60268 0.97422 0.0
C2725 C 0.41859 0.60361 0.9652 0.0
U2726 U 0.43941 0.60396 0.9401 0.0
O2727 O 0.43753 0.59825 0.92716 0.0
O2728 O 0.43762 0.61232 0.9287 0.0
C2729 C 0.43634 0.60576 0.92342 0.0
C2730 C 0.42664 0.60293 0.95127 0.0
C2731 C 0.4288 0.6064 0.91753 0.0
C2732 C 0.41384 0.603 0.91357 0.0
C2733 C 0.42073 0.6027 0.91956 0.0
C2734 C 0.42297 0.6109 0.9036 0.0
C2735 C 0.41492 0.607 0.90546 0.0
C2736 C 0.42983 0.61058 0.90956 0.0
C2737 C 0.46439 0.60352 0.9427 0.0
C2738 C 0.4751 0.60096 0.93144 0.0
C2739 C 0.47967 0.60635 0.94551 0.0
C2740 C 0.47105 0.60627 0.94828 0.0
C2741 C 0.48183 0.60366 0.93707 0.0
C2742 C 0.46644 0.60091 0.93422 0.0
C2743 C 0.45543 0.60323 0.94599 0.0
O2744 O 0.42988 0.61029 0.94857 0.0
O2745 O 0.42961 0.59625 0.94696 0.0
O2746 O 0.45081 0.59637 0.94393 0.0
O2747 O 0.45103 0.61044 0.94545 0.0
H2748 H 0.43971 0.598 0.9621 0.0
H2749 H 0.43906 0.59617 0.97784 0.0
H2750 H 0.41218 0.60414 0.97748 0.0
H2751 H 0.41285 0.60568 0.96169 0.0
H2752 H 0.40776 0.59988 0.91521 0.0
H2753 H 0.41979 0.59945 0.9257 0.0
H2754 H 0.42399 0.61419 0.8975 0.0
H2755 H 0.43599 0.61352 0.90789 0.0
H2756 H 0.47652 0.59893 0.92488 0.0
H2757 H 0.48468 0.60834 0.95006 0.0
H2758 H 0.46959 0.60828 0.95485 0.0
H2759 H 0.46138 0.5988 0.92979 0.0
C2760 C 0.92129 0.21191 0.17603 0.0
C2761 C 0.92091 0.2168 0.18369 0.0
C2762 C 0.92198 0.23009 0.17537 0.0
C2763 C 0.92124 0.2258 0.18337 0.0
C2764 C 0.92237 0.22514 0.16771 0.0
C2765 C 0.92202 0.21613 0.16805 0.0
U2766 U 0.92117 0.19135 0.18917 0.0
O2767 O 0.91373 0.1793 0.1876 0.0
O2768 O 0.92797 0.17906 0.18724 0.0
C2769 C 0.92072 0.17467 0.18619 0.0
C2770 C 0.92102 0.20244 0.17635 0.0
C2771 C 0.92037 0.16898 0.17853 0.0
C2772 C 0.9203 0.16678 0.1629 0.0
C2773 C 0.92052 0.17233 0.17009 0.0
C2774 C 0.91975 0.1545 0.17253 0.0
C2775 C 0.91995 0.15778 0.16403 0.0
C2776 C 0.91996 0.16005 0.1797 0.0
C2777 C 0.92232 0.19446 0.21411 0.0
C2778 C 0.92195 0.18313 0.22496 0.0
C2779 C 0.92413 0.19799 0.22936 0.0
C2780 C 0.92362 0.20055 0.2207 0.0
C2781 C 0.92335 0.18925 0.23161 0.0
C2782 C 0.92147 0.18572 0.21626 0.0
C2783 C 0.92194 0.19746 0.20508 0.0
O2784 O 0.92814 0.19879 0.17925 0.0
O2785 O 0.91392 0.19911 0.17969 0.0
O2786 O 0.91461 0.19609 0.20089 0.0
O2787 O 0.92885 0.19594 0.20036 0.0
H2788 H 0.9204 0.21363 0.18993 0.0
H2789 H 0.92104 0.22939 0.1894 0.0
H2790 H 0.92284 0.22823 0.16145 0.0
H2791 H 0.92232 0.21246 0.16207 0.0
H2792 H 0.92056 0.16954 0.15647 0.0
H2793 H 0.92085 0.17923 0.16907 0.0
H2794 H 0.91934 0.14762 0.17366 0.0
H2795 H 0.91981 0.15735 0.18617 0.0
H2796 H 0.92138 0.17634 0.22648 0.0
H2797 H 0.92505 0.20289 0.2343 0.0
H2798 H 0.92426 0.20733 0.21915 0.0
H2799 H 0.92047 0.18092 0.21123 0.0
C2800 C 0.31345 0.67488 0.427 0.0
C2801 C 0.30895 0.67511 0.43488 0.0
C2802 C 0.29525 0.67706 0.42715 0.0
C2803 C 0.29994 0.67617 0.43496 0.0
C2804 C 0.29981 0.67673 0.41926 0.0
C2805 C 0.30883 0.67566 0.41919 0.0
U2806 U 0.33481 0.67368 0.43922 0.0
O2807 O 0.34628 0.66546 0.43727 0.0
O2808 O 0.34754 0.67954 0.43659 0.0
C2809 C 0.35136 0.67205 0.43554 0.0
C2810 C 0.32296 0.67399 0.42691 0.0
C2811 C 0.35685 0.6712 0.42779 0.0
C2812 C 0.35956 0.67344 0.41242 0.0
C2813 C 0.35403 0.67399 0.41959 0.0
C2814 C 0.3707 0.66716 0.42154 0.0
C2815 C 0.36799 0.67005 0.41332 0.0
C2816 C 0.36519 0.66774 0.42869 0.0
C2817 C 0.33359 0.67543 0.46427 0.0
C2818 C 0.34143 0.66878 0.47625 0.0
C2819 C 0.33441 0.68255 0.47834 0.0
C2820 C 0.33158 0.6824 0.46971 0.0
C2821 C 0.33927 0.67569 0.48175 0.0
C2822 C 0.33863 0.66866 0.46759 0.0
C2823 C 0.32982 0.67515 0.45542 0.0
O2824 O 0.32731 0.68086 0.42946 0.0
O2825 O 0.32595 0.66682 0.43029 0.0
O2826 O 0.33012 0.66775 0.45126 0.0
O2827 O 0.33147 0.68181 0.45044 0.0
H2828 H 0.31243 0.6745 0.44098 0.0
H2829 H 0.29664 0.67627 0.44114 0.0
H2830 H 0.29643 0.6775 0.41313 0.0
H2831 H 0.31221 0.67552 0.41305 0.0
H2832 H 0.35723 0.67563 0.40617 0.0
H2833 H 0.34759 0.67665 0.41876 0.0
H2834 H 0.37718 0.66463 0.42251 0.0
H2835 H 0.36749 0.66558 0.43497 0.0
H2836 H 0.34524 0.66345 0.47866 0.0
H2837 H 0.33253 0.68792 0.48242 0.0
H2838 H 0.32763 0.68766 0.46733 0.0
H2839 H 0.3403 0.66319 0.46356 0.0
C2840 C 0.85237 0.17815 0.56374 0.0
C2841 C 0.85233 0.1859 0.55908 0.0
C2842 C 0.85022 0.17801 0.54552 0.0
C2843 C 0.85128 0.18583 0.55006 0.0
C2844 C 0.85037 0.17025 0.55024 0.0
C2845 C 0.85143 0.17033 0.55926 0.0
U2846 U 0.85331 0.19074 0.58477 0.0
O2847 O 0.84713 0.18847 0.59737 0.0
O2848 O 0.86135 0.18911 0.59652 0.0
C2849 C 0.85459 0.18749 0.60144 0.0
C2850 C 0.85316 0.17824 0.57325 0.0
C2851 C 0.85527 0.17993 0.60717 0.0
C2852 C 0.85195 0.165 0.61071 0.0
C2853 C 0.85166 0.17191 0.60487 0.0
C2854 C 0.85967 0.174 0.62108 0.0
C2855 C 0.85585 0.166 0.61895 0.0
C2856 C 0.85936 0.18088 0.61526 0.0
C2857 C 0.85153 0.21552 0.58237 0.0
C2858 C 0.85324 0.22624 0.59381 0.0
C2859 C 0.84842 0.23056 0.57949 0.0
C2860 C 0.8489 0.22202 0.57668 0.0
C2861 C 0.85056 0.23279 0.5881 0.0
C2862 C 0.8537 0.21765 0.59097 0.0
C2863 C 0.85195 0.20663 0.57909 0.0
O2864 O 0.86035 0.1817 0.57634 0.0
O2865 O 0.84618 0.18079 0.57738 0.0
O2866 O 0.84522 0.2017 0.58078 0.0
O2867 O 0.85942 0.20266 0.58002 0.0
H2868 H 0.85305 0.19201 0.56244 0.0
H2869 H 0.85133 0.19192 0.54665 0.0
H2870 H 0.84947 0.16412 0.54698 0.0
H2871 H 0.85141 0.16429 0.56277 0.0
H2872 H 0.84889 0.15897 0.60887 0.0
H2873 H 0.84849 0.17103 0.59864 0.0
H2874 H 0.86288 0.17496 0.62727 0.0
H2875 H 0.86223 0.187 0.61713 0.0
H2876 H 0.85487 0.22773 0.60049 0.0
H2877 H 0.84648 0.23544 0.57488 0.0
H2878 H 0.84724 0.2205 0.57 0.0
H2879 H 0.85572 0.21269 0.59547 0.0
C2880 C 0.9219 0.06336 0.0994 0.0
C2881 C 0.92282 0.05854 0.09175 0.0
C2882 C 0.92248 0.04518 0.10003 0.0
C2883 C 0.92312 0.04954 0.09205 0.0
C2884 C 0.92154 0.05007 0.10767 0.0
C2885 C 0.92126 0.05907 0.10735 0.0
U2886 U 0.92205 0.08431 0.08669 0.0
O2887 O 0.91452 0.09621 0.08846 0.0
O2888 O 0.92874 0.09661 0.0893 0.0
C2889 C 0.92146 0.10088 0.09025 0.0
C2890 C 0.92163 0.07283 0.09915 0.0
C2891 C 0.92093 0.10635 0.09804 0.0
C2892 C 0.9202 0.10814 0.11369 0.0
C2893 C 0.92056 0.10277 0.10637 0.0
C2894 C 0.92055 0.12069 0.1044 0.0
C2895 C 0.92021 0.11717 0.1128 0.0
C2896 C 0.92091 0.11532 0.09711 0.0
C2897 C 0.92375 0.08257 0.06161 0.0
C2898 C 0.91685 0.08833 0.0486 0.0
C2899 C 0.93201 0.08433 0.04829 0.0
C2900 C 0.93156 0.08189 0.057 0.0
C2901 C 0.92462 0.08745 0.04393 0.0
C2902 C 0.91641 0.08591 0.05733 0.0
C2903 C 0.92321 0.07904 0.07052 0.0
O2904 O 0.92881 0.07662 0.09657 0.0
O2905 O 0.9146 0.07612 0.09563 0.0
O2906 O 0.91578 0.07987 0.07461 0.0
O2907 O 0.93 0.08029 0.07558 0.0
H2908 H 0.9233 0.06176 0.08554 0.0
H2909 H 0.92374 0.04598 0.08603 0.0
H2910 H 0.92115 0.04694 0.11393 0.0
H2911 H 0.92057 0.06269 0.11333 0.0
H2912 H 0.91984 0.10521 0.12005 0.0
H2913 H 0.92056 0.09585 0.10721 0.0
H2914 H 0.92071 0.12759 0.10345 0.0
H2915 H 0.92124 0.1182 0.09072 0.0
H2916 H 0.911 0.09062 0.04544 0.0
H2917 H 0.93814 0.08369 0.04495 0.0
H2918 H 0.93731 0.07927 0.06008 0.0
H2919 H 0.91025 0.08644 0.06064 0.0
C2920 C 0.42587 0.67497 0.31325 0.0
C2921 C 0.4333 0.67689 0.30837 0.0
C2922 C 0.42463 0.67698 0.29507 0.0
C2923 C 0.43268 0.67789 0.29937 0.0
C2924 C 0.41723 0.67496 0.30002 0.0
C2925 C 0.41785 0.67397 0.30902 0.0
U2926 U 0.43931 0.67309 0.33389 0.0
O2927 O 0.43755 0.67889 0.34678 0.0
O2928 O 0.43755 0.66481 0.34534 0.0
C2929 C 0.4363 0.6714 0.35055 0.0
C2930 C 0.42642 0.67403 0.32272 0.0
C2931 C 0.42865 0.67078 0.35623 0.0
C2932 C 0.41332 0.67312 0.35913 0.0
C2933 C 0.42044 0.67362 0.35351 0.0
C2934 C 0.42254 0.66681 0.37016 0.0
C2935 C 0.4143 0.66971 0.36754 0.0
C2936 C 0.42964 0.66735 0.36457 0.0
C2937 C 0.46428 0.67347 0.33137 0.0
C2938 C 0.47511 0.67607 0.34264 0.0
C2939 C 0.4795 0.67052 0.32864 0.0
C2940 C 0.47086 0.67062 0.32583 0.0
C2941 C 0.48175 0.67327 0.33706 0.0
C2942 C 0.46643 0.67614 0.33982 0.0
C2943 C 0.4553 0.67376 0.32804 0.0
O2944 O 0.42965 0.66669 0.32546 0.0
O2945 O 0.42954 0.68075 0.32694 0.0
O2946 O 0.45077 0.68064 0.33005 0.0
O2947 O 0.45082 0.66656 0.3286 0.0
H2948 H 0.43955 0.67767 0.31153 0.0
H2949 H 0.43849 0.67955 0.2958 0.0
H2950 H 0.41096 0.67408 0.29693 0.0
H2951 H 0.41207 0.67244 0.31268 0.0
H2952 H 0.40705 0.67533 0.35687 0.0
H2953 H 0.41954 0.67625 0.34707 0.0
H2954 H 0.42357 0.66427 0.37662 0.0
H2955 H 0.43593 0.66513 0.36678 0.0
H2956 H 0.47661 0.67815 0.34919 0.0
H2957 H 0.48444 0.66845 0.32412 0.0
H2958 H 0.46932 0.66856 0.31928 0.0
H2959 H 0.46143 0.67832 0.34421 0.0
C2960 C 0.67641 0.35556 0.5636 0.0
C2961 C 0.68405 0.3558 0.55867 0.0
C2962 C 0.67555 0.35503 0.5453 0.0
C2963 C 0.68362 0.35555 0.54961 0.0
C2964 C 0.66792 0.35478 0.55029 0.0
C2965 C 0.66836 0.35505 0.55936 0.0
U2966 U 0.6899 0.35491 0.58413 0.0
O2967 O 0.68892 0.36214 0.59641 0.0
O2968 O 0.68797 0.34802 0.59641 0.0
C2969 C 0.68735 0.35517 0.60097 0.0
C2970 C 0.67686 0.3557 0.57313 0.0
C2971 C 0.67996 0.35564 0.60699 0.0
C2972 C 0.66467 0.35352 0.61038 0.0
C2973 C 0.67149 0.3534 0.60438 0.0
C2974 C 0.67471 0.3583 0.62157 0.0
C2975 C 0.66623 0.35587 0.61909 0.0
C2976 C 0.68149 0.35817 0.61559 0.0
C2977 C 0.71471 0.35282 0.58058 0.0
C2978 C 0.72574 0.35113 0.5918 0.0
C2979 C 0.72979 0.35076 0.57664 0.0
C2980 C 0.72115 0.35208 0.57426 0.0
C2981 C 0.73219 0.35014 0.58543 0.0
C2982 C 0.71704 0.35242 0.58939 0.0
C2983 C 0.70563 0.35367 0.57773 0.0
O2984 O 0.67947 0.34848 0.57671 0.0
O2985 O 0.68059 0.36257 0.57654 0.0
O2986 O 0.70186 0.36108 0.57934 0.0
O2987 O 0.70059 0.34699 0.57919 0.0
H2988 H 0.69034 0.35613 0.56185 0.0
H2989 H 0.68963 0.35563 0.54599 0.0
H2990 H 0.6616 0.35447 0.54718 0.0
H2991 H 0.6624 0.35486 0.56307 0.0
H2992 H 0.65825 0.35155 0.60825 0.0
H2993 H 0.67017 0.35145 0.59774 0.0
H2994 H 0.67612 0.36031 0.62816 0.0
H2995 H 0.68797 0.35997 0.61771 0.0
H2996 H 0.72737 0.35064 0.59862 0.0
H2997 H 0.73461 0.35017 0.57158 0.0
H2998 H 0.71947 0.3524 0.56743 0.0
H2999 H 0.71213 0.35297 0.59436 0.0
C3000 C 0.10291 0.96278 0.92629 0.0
C3001 C 0.10318 0.96743 0.9341 0.0
C3002 C 0.10076 0.98085 0.92628 0.0
C3003 C 0.10214 0.97638 0.9341 0.0
C3004 C 0.10061 0.97614 0.91845 0.0
C3005 C 0.10167 0.96718 0.91847 0.0
U3006 U 0.1041 0.94193 0.93886 0.0
O3007 O 0.09774 0.92939 0.93669 0.0
O3008 O 0.11196 0.93027 0.93697 0.0
C3009 C 0.10513 0.92535 0.93554 0.0
C3010 C 0.10365 0.95333 0.92632 0.0
C3011 C 0.10554 0.91975 0.92783 0.0
C3012 C 0.10524 0.91765 0.91219 0.0
C3013 C 0.105 0.92314 0.91942 0.0
C3014 C 0.10662 0.90535 0.92172 0.0
C3015 C 0.106 0.90867 0.91326 0.0
C3016 C 0.10638 0.91084 0.92892 0.0
C3017 C 0.10312 0.94411 0.9638 0.0
C3018 C 0.10169 0.93225 0.97396 0.0
C3019 C 0.10308 0.94689 0.97931 0.0
C3020 C 0.10361 0.94988 0.97079 0.0
C3021 C 0.10206 0.93804 0.98102 0.0
C3022 C 0.10222 0.93526 0.96542 0.0
C3023 C 0.10329 0.94756 0.95493 0.0
O3024 O 0.11092 0.9503 0.92959 0.0
O3025 O 0.09672 0.94921 0.92909 0.0
O3026 O 0.0964 0.9459 0.95014 0.0
O3027 O 0.11063 0.94668 0.95071 0.0
H3028 H 0.10414 0.96413 0.94021 0.0
H3029 H 0.10242 0.97979 0.94023 0.0
H3030 H 0.09946 0.97934 0.91233 0.0
H3031 H 0.1014 0.96368 0.91238 0.0
H3032 H 0.10466 0.92042 0.90578 0.0
H3033 H 0.10433 0.93002 0.91845 0.0
H3034 H 0.10735 0.8985 0.9228 0.0
H3035 H 0.10684 0.90812 0.93537 0.0
H3036 H 0.10099 0.92539 0.97504 0.0
H3037 H 0.10324 0.95155 0.98454 0.0
H3038 H 0.10426 0.95674 0.96965 0.0
H3039 H 0.10185 0.93071 0.96008 0.0
C3040 C 0.56557 0.85163 0.17643 0.0
C3041 C 0.56093 0.84875 0.18367 0.0
C3042 C 0.5473 0.84985 0.17561 0.0
C3043 C 0.55189 0.84784 0.18327 0.0
C3044 C 0.55201 0.85283 0.1684 0.0
C3045 C 0.56106 0.8537 0.1688 0.0
U3046 U 0.58632 0.85309 0.18966 0.0
O3047 O 0.59909 0.84713 0.18782 0.0
O3048 O 0.59799 0.86123 0.18811 0.0
C3049 C 0.60306 0.85457 0.18678 0.0
C3050 C 0.57508 0.85254 0.1768 0.0
C3051 C 0.60894 0.85518 0.17928 0.0
C3052 C 0.6126 0.85203 0.16427 0.0
C3053 C 0.60666 0.8518 0.17112 0.0
C3054 C 0.62306 0.85924 0.17361 0.0
C3055 C 0.62094 0.85565 0.16546 0.0
C3056 C 0.61713 0.85899 0.18043 0.0
C3057 C 0.58363 0.85198 0.21454 0.0
C3058 C 0.59536 0.8508 0.22508 0.0
C3059 C 0.58049 0.8521 0.22995 0.0
C3060 C 0.57767 0.85248 0.22134 0.0
C3061 C 0.58937 0.85121 0.23195 0.0
C3062 C 0.59252 0.8512 0.21644 0.0
C3063 C 0.58035 0.85207 0.20557 0.0
O3064 O 0.57797 0.85978 0.18021 0.0
O3065 O 0.57928 0.84573 0.17963 0.0
O3066 O 0.58223 0.8453 0.20081 0.0
O3067 O 0.5812 0.85939 0.20138 0.0
H3068 H 0.5643 0.84715 0.18964 0.0
H3069 H 0.54853 0.84541 0.18891 0.0
H3070 H 0.5487 0.85456 0.16244 0.0
H3071 H 0.56453 0.856 0.16317 0.0
H3072 H 0.61076 0.84917 0.15811 0.0
H3073 H 0.60034 0.84885 0.17009 0.0
H3074 H 0.62934 0.86223 0.17472 0.0
H3075 H 0.619 0.86168 0.18667 0.0
H3076 H 0.60225 0.85021 0.22639 0.0
H3077 H 0.57568 0.85228 0.23504 0.0
H3078 H 0.57078 0.85305 0.21999 0.0
H3079 H 0.59722 0.85082 0.21125 0.0
C3080 C 0.17178 0.34964 0.9618 0.0
C3081 C 0.17146 0.34205 0.9667 0.0
C3082 C 0.1726 0.3504 0.98009 0.0
C3083 C 0.17185 0.34242 0.97577 0.0
C3084 C 0.17294 0.35798 0.97511 0.0
C3085 C 0.17252 0.3576 0.96605 0.0
U3086 U 0.17156 0.33659 0.94098 0.0
O3087 O 0.16389 0.33806 0.92897 0.0
O3088 O 0.17812 0.33871 0.92853 0.0
C3089 C 0.17078 0.33968 0.92425 0.0
C3090 C 0.17141 0.34929 0.95226 0.0
C3091 C 0.17024 0.34732 0.91863 0.0
C3092 C 0.17228 0.36266 0.91609 0.0
C3093 C 0.17269 0.35553 0.92163 0.0
C3094 C 0.16683 0.35346 0.90454 0.0
C3095 C 0.16935 0.36171 0.90746 0.0
C3096 C 0.16728 0.34635 0.91007 0.0
C3097 C 0.17293 0.31183 0.94383 0.0
C3098 C 0.1724 0.30106 0.93234 0.0
C3099 C 0.17484 0.29669 0.94723 0.0
C3100 C 0.17436 0.30528 0.94989 0.0
C3101 C 0.17391 0.29446 0.93842 0.0
C3102 C 0.17194 0.30969 0.93503 0.0
C3103 C 0.17255 0.32078 0.94695 0.0
O3104 O 0.17852 0.34655 0.94849 0.0
O3105 O 0.16431 0.34583 0.94897 0.0
O3106 O 0.16516 0.32482 0.94573 0.0
O3107 O 0.17939 0.32559 0.94535 0.0
H3108 H 0.17094 0.33584 0.96351 0.0
H3109 H 0.1717 0.33645 0.97938 0.0
H3110 H 0.1734 0.36423 0.97823 0.0
H3111 H 0.17277 0.36353 0.96236 0.0
H3112 H 0.17417 0.36893 0.91858 0.0
H3113 H 0.17494 0.35642 0.92824 0.0
H3114 H 0.16465 0.35246 0.89792 0.0
H3115 H 0.16537 0.34006 0.90763 0.0
H3116 H 0.17171 0.29956 0.9255 0.0
H3117 H 0.17585 0.29179 0.9521 0.0
H3118 H 0.17511 0.30681 0.95672 0.0
H3119 H 0.17084 0.31468 0.93026 0.0
C3120 C 0.56393 0.92353 0.59969 0.0
C3121 C 0.55898 0.92559 0.59233 0.0
C3122 C 0.54575 0.92555 0.60097 0.0
C3123 C 0.54997 0.9266 0.59296 0.0
C3124 C 0.55077 0.92337 0.60831 0.0
C3125 C 0.55977 0.92238 0.60766 0.0
U3126 U 0.58444 0.92244 0.58619 0.0
O3127 O 0.59726 0.92845 0.58811 0.0
O3128 O 0.5961 0.91435 0.58753 0.0
C3129 C 0.60122 0.92101 0.58898 0.0
C3130 C 0.57343 0.92268 0.59913 0.0
C3131 C 0.60722 0.92029 0.59643 0.0
C3132 C 0.61114 0.92316 0.61148 0.0
C3133 C 0.60508 0.92349 0.60467 0.0
C3134 C 0.62143 0.91623 0.60194 0.0
C3135 C 0.61944 0.91963 0.61016 0.0
C3136 C 0.61538 0.91658 0.59515 0.0
C3137 C 0.58157 0.92408 0.56137 0.0
C3138 C 0.59336 0.92531 0.551 0.0
C3139 C 0.57845 0.92456 0.54593 0.0
C3140 C 0.5756 0.92396 0.55449 0.0
C3141 C 0.58736 0.92528 0.54406 0.0
C3142 C 0.59048 0.92471 0.5596 0.0
C3143 C 0.5783 0.92377 0.57031 0.0
O3144 O 0.57619 0.91553 0.59552 0.0
O3145 O 0.57756 0.92957 0.59639 0.0
O3146 O 0.58022 0.93045 0.57522 0.0
O3147 O 0.57915 0.91637 0.57434 0.0
H3148 H 0.56209 0.9265 0.58611 0.0
H3149 H 0.54635 0.92838 0.5872 0.0
H3150 H 0.54773 0.92239 0.61455 0.0
H3151 H 0.5635 0.92075 0.61341 0.0
H3152 H 0.60941 0.92589 0.61771 0.0
H3153 H 0.59878 0.92637 0.6058 0.0
H3154 H 0.62768 0.91331 0.60072 0.0
H3155 H 0.61714 0.91403 0.58885 0.0
H3156 H 0.60027 0.92577 0.5498 0.0
H3157 H 0.57364 0.92466 0.54078 0.0
H3158 H 0.5687 0.92352 0.55575 0.0
H3159 H 0.59519 0.92479 0.56485 0.0
C3160 C 0.103 0.81415 0.84881 0.0
C3161 C 0.10233 0.80953 0.841 0.0
C3162 C 0.10098 0.79605 0.84898 0.0
C3163 C 0.10134 0.80057 0.84108 0.0
C3164 C 0.10179 0.80073 0.85679 0.0
C3165 C 0.10278 0.8097 0.8567 0.0
U3166 U 0.10394 0.83501 0.8362 0.0
O3167 O 0.0975 0.84745 0.83837 0.0
O3168 O 0.11173 0.8468 0.83811 0.0
C3169 C 0.10487 0.8516 0.83956 0.0
C3170 C 0.10369 0.82361 0.84874 0.0
C3171 C 0.10531 0.85714 0.84732 0.0
C3172 C 0.1062 0.85904 0.86296 0.0
C3173 C 0.10591 0.85363 0.85567 0.0
C3174 C 0.10532 0.87152 0.8536 0.0
C3175 C 0.10591 0.86807 0.86202 0.0
C3176 C 0.10503 0.8661 0.84634 0.0
C3177 C 0.10275 0.8328 0.81124 0.0
C3178 C 0.10128 0.84462 0.80104 0.0
C3179 C 0.10261 0.82997 0.79574 0.0
C3180 C 0.10318 0.82701 0.80427 0.0
C3181 C 0.10161 0.83881 0.794 0.0
C3182 C 0.10186 0.84163 0.8096 0.0
C3183 C 0.10301 0.82938 0.82012 0.0
O3184 O 0.11091 0.82673 0.84546 0.0
O3185 O 0.09671 0.82762 0.84596 0.0
O3186 O 0.09615 0.83093 0.8249 0.0
O3187 O 0.11038 0.83037 0.82436 0.0
H3188 H 0.10252 0.81287 0.83484 0.0
H3189 H 0.10086 0.79718 0.83495 0.0
H3190 H 0.10144 0.79748 0.86299 0.0
H3191 H 0.10326 0.81318 0.86279 0.0
H3192 H 0.10675 0.85616 0.86933 0.0
H3193 H 0.10614 0.84671 0.85655 0.0
H3194 H 0.10494 0.87841 0.85262 0.0
H3195 H 0.10453 0.86893 0.83994 0.0
H3196 H 0.10059 0.85146 0.79993 0.0
H3197 H 0.10274 0.82529 0.79052 0.0
H3198 H 0.10383 0.82016 0.80543 0.0
H3199 H 0.10153 0.84619 0.81492 0.0
C3200 C 0.42728 0.8141 0.17203 0.0
C3201 C 0.4349 0.80929 0.1731 0.0
C3202 C 0.42653 0.79592 0.17247 0.0
C3203 C 0.43453 0.80028 0.17333 0.0
C3204 C 0.41892 0.8008 0.17137 0.0
C3205 C 0.4193 0.80981 0.17116 0.0
U3206 U 0.4403 0.83494 0.17218 0.0
O3207 O 0.43864 0.84689 0.1647 0.0
O3208 O 0.43806 0.84724 0.17891 0.0
C3209 C 0.43712 0.85156 0.17165 0.0
C3210 C 0.42761 0.82357 0.17179 0.0
C3211 C 0.42951 0.85724 0.1712 0.0
C3212 C 0.41389 0.8595 0.17079 0.0
C3213 C 0.42102 0.85392 0.17102 0.0
C3214 C 0.42369 0.87176 0.17087 0.0
C3215 C 0.41515 0.8685 0.17077 0.0
C3216 C 0.43079 0.86618 0.17109 0.0
C3217 C 0.46532 0.83309 0.17371 0.0
C3218 C 0.47742 0.84102 0.16741 0.0
C3219 C 0.47936 0.83353 0.18103 0.0
C3220 C 0.4707 0.83079 0.18069 0.0
C3221 C 0.48286 0.83859 0.17434 0.0
C3222 C 0.46873 0.83831 0.1671 0.0
C3223 C 0.4564 0.82951 0.17324 0.0
O3224 O 0.43037 0.82732 0.17896 0.0
O3225 O 0.43106 0.82689 0.16477 0.0
O3226 O 0.45218 0.83037 0.16585 0.0
O3227 O 0.45149 0.83079 0.18006 0.0
H3228 H 0.44113 0.81251 0.17375 0.0
H3229 H 0.44053 0.79674 0.17407 0.0
H3230 H 0.41264 0.79766 0.1708 0.0
H3231 H 0.41335 0.81343 0.17034 0.0
H3232 H 0.40741 0.85677 0.1708 0.0
H3233 H 0.41992 0.84702 0.17112 0.0
H3234 H 0.42491 0.87863 0.17072 0.0
H3235 H 0.4373 0.86886 0.1712 0.0
H3236 H 0.47989 0.84499 0.1622 0.0
H3237 H 0.48339 0.83145 0.1864 0.0
H3238 H 0.46825 0.8267 0.18582 0.0
H3239 H 0.46475 0.84022 0.16163 0.0
C3240 C 0.56407 0.6769 0.35205 0.0
C3241 C 0.55916 0.68425 0.35014 0.0
C3242 C 0.54584 0.67568 0.35012 0.0
C3243 C 0.55013 0.68365 0.34917 0.0
C3244 C 0.55081 0.66835 0.35215 0.0
C3245 C 0.55984 0.66896 0.3531 0.0
U3246 U 0.58476 0.69026 0.35288 0.0
O3247 O 0.59654 0.68897 0.36094 0.0
O3248 O 0.59744 0.68823 0.34675 0.0
C3249 C 0.60151 0.68737 0.35422 0.0
C3250 C 0.57358 0.67744 0.35283 0.0
C3251 C 0.60721 0.67981 0.35498 0.0
C3252 C 0.60992 0.66447 0.35329 0.0
C3253 C 0.60428 0.67151 0.35274 0.0
C3254 C 0.6214 0.67393 0.35845 0.0
C3255 C 0.61856 0.66559 0.35613 0.0
C3256 C 0.61578 0.68095 0.35787 0.0
C3257 C 0.58193 0.71495 0.35102 0.0
C3258 C 0.59329 0.72578 0.35271 0.0
C3259 C 0.57884 0.73 0.34816 0.0
C3260 C 0.57612 0.72142 0.34856 0.0
C3261 C 0.58746 0.7323 0.35021 0.0
C3262 C 0.59055 0.71716 0.35309 0.0
C3263 C 0.57875 0.70601 0.35143 0.0
O3264 O 0.57763 0.68009 0.34584 0.0
O3265 O 0.57651 0.68108 0.35998 0.0
O3266 O 0.57971 0.70207 0.35891 0.0
O3267 O 0.58056 0.70111 0.34473 0.0
H3268 H 0.56233 0.69044 0.3493 0.0
H3269 H 0.54655 0.6894 0.3475 0.0
H3270 H 0.54772 0.66214 0.35306 0.0
H3271 H 0.56352 0.66323 0.35462 0.0
H3272 H 0.60749 0.65813 0.35155 0.0
H3273 H 0.59766 0.67049 0.35054 0.0
H3274 H 0.62803 0.67507 0.36055 0.0
H3275 H 0.61816 0.68732 0.35961 0.0
H3276 H 0.59999 0.72732 0.35426 0.0
H3277 H 0.57414 0.73485 0.34636 0.0
H3278 H 0.56943 0.71983 0.34698 0.0
H3279 H 0.59513 0.71223 0.35499 0.0
C3280 C 0.56341 0.42327 0.09842 0.0
C3281 C 0.5588 0.42385 0.09058 0.0
C3282 C 0.54525 0.42574 0.09845 0.0
C3283 C 0.54981 0.42507 0.09058 0.0
C3284 C 0.54991 0.42503 0.1063 0.0
C3285 C 0.55892 0.42381 0.10628 0.0
U3286 U 0.58436 0.42178 0.08586 0.0
O3287 O 0.5972 0.42763 0.08811 0.0
O3288 O 0.59587 0.41355 0.0876 0.0
C3289 C 0.60103 0.42015 0.08915 0.0
C3290 C 0.57291 0.42229 0.0984 0.0
C3291 C 0.60686 0.41939 0.09673 0.0
C3292 C 0.61092 0.42292 0.11161 0.0
C3293 C 0.60494 0.42329 0.10472 0.0
C3294 C 0.62064 0.41454 0.10267 0.0
C3295 C 0.6189 0.41864 0.11062 0.0
C3296 C 0.61469 0.41492 0.0958 0.0
C3297 C 0.58213 0.42326 0.06093 0.0
C3298 C 0.594 0.42504 0.05074 0.0
C3299 C 0.57928 0.42309 0.04543 0.0
C3300 C 0.57631 0.42252 0.05396 0.0
C3301 C 0.58815 0.42442 0.0437 0.0
C3302 C 0.59101 0.42445 0.0593 0.0
C3303 C 0.57869 0.42305 0.06981 0.0
O3304 O 0.57576 0.41506 0.09501 0.0
O3305 O 0.57726 0.42909 0.09577 0.0
O3306 O 0.58058 0.42974 0.07472 0.0
O3307 O 0.57934 0.41567 0.07391 0.0
H3308 H 0.56218 0.42343 0.08444 0.0
H3309 H 0.54643 0.42546 0.08442 0.0
H3310 H 0.54663 0.42561 0.11247 0.0
H3311 H 0.56238 0.4234 0.1124 0.0
H3312 H 0.60939 0.4262 0.11762 0.0
H3313 H 0.59892 0.42675 0.10559 0.0
H3314 H 0.62662 0.41104 0.10172 0.0
H3315 H 0.61626 0.41183 0.08971 0.0
H3316 H 0.60088 0.42597 0.04964 0.0
H3317 H 0.57456 0.42273 0.0402 0.0
H3318 H 0.56943 0.42164 0.05511 0.0
H3319 H 0.5956 0.42502 0.06462 0.0
C3320 C 0.17346 0.84971 0.46149 0.0
C3321 C 0.17395 0.84208 0.46631 0.0
C3322 C 0.17418 0.85035 0.47979 0.0
C3323 C 0.17432 0.84239 0.47538 0.0
C3324 C 0.17369 0.85798 0.47489 0.0
C3325 C 0.17334 0.85765 0.46582 0.0
U3326 U 0.17218 0.83684 0.44055 0.0
O3327 O 0.16428 0.83881 0.42877 0.0
O3328 O 0.17851 0.83879 0.42794 0.0
C3329 C 0.17111 0.8401 0.42386 0.0
C3330 C 0.17296 0.84942 0.45196 0.0
C3331 C 0.17075 0.84772 0.41819 0.0
C3332 C 0.17359 0.86289 0.41532 0.0
C3333 C 0.17392 0.85579 0.42093 0.0
C3334 C 0.16684 0.85393 0.40427 0.0
C3335 C 0.17004 0.86204 0.40692 0.0
C3336 C 0.1672 0.84686 0.40985 0.0
C3337 C 0.17185 0.81201 0.44286 0.0
C3338 C 0.17493 0.80116 0.43189 0.0
C3339 C 0.16812 0.797 0.44538 0.0
C3340 C 0.16832 0.80557 0.44815 0.0
C3341 C 0.17146 0.79466 0.43723 0.0
C3342 C 0.1751 0.80977 0.43467 0.0
C3343 C 0.17226 0.8209 0.44622 0.0
O3344 O 0.17984 0.8463 0.44806 0.0
O3345 O 0.16562 0.84641 0.44876 0.0
O3346 O 0.16514 0.82546 0.4454 0.0
O3347 O 0.17937 0.8253 0.44454 0.0
H3348 H 0.17401 0.83588 0.46306 0.0
H3349 H 0.17458 0.83639 0.47894 0.0
H3350 H 0.17368 0.86421 0.47806 0.0
H3351 H 0.17297 0.8636 0.46219 0.0
H3352 H 0.17603 0.86905 0.4176 0.0
H3353 H 0.17664 0.8566 0.42737 0.0
H3354 H 0.16417 0.85301 0.39782 0.0
H3355 H 0.16474 0.84068 0.40762 0.0
H3356 H 0.17747 0.79959 0.42554 0.0
H3357 H 0.16553 0.79217 0.44972 0.0
H3358 H 0.16582 0.80717 0.45451 0.0
H3359 H 0.17782 0.81465 0.43047 0.0
C3360 C 0.5635 0.35311 0.6765 0.0
C3361 C 0.55897 0.35251 0.68435 0.0
C3362 C 0.54526 0.35099 0.67649 0.0
C3363 C 0.54995 0.35148 0.68435 0.0
C3364 C 0.54984 0.35173 0.66863 0.0
C3365 C 0.55888 0.35277 0.66865 0.0
U3366 U 0.58469 0.35296 0.68895 0.0
O3367 O 0.59715 0.34671 0.68621 0.0
O3368 O 0.59662 0.36078 0.68769 0.0
C3369 C 0.6014 0.35406 0.68573 0.0
C3370 C 0.57303 0.35378 0.6765 0.0
C3371 C 0.60728 0.35502 0.67827 0.0
C3372 C 0.61078 0.35294 0.66303 0.0
C3373 C 0.60479 0.35256 0.66984 0.0
C3374 C 0.6217 0.35848 0.67297 0.0
C3375 C 0.61937 0.35577 0.66455 0.0
C3376 C 0.61573 0.3581 0.67974 0.0
C3377 C 0.5829 0.34948 0.71376 0.0
C3378 C 0.59159 0.35433 0.72611 0.0
C3379 C 0.58287 0.34136 0.72722 0.0
C3380 C 0.58002 0.34246 0.71868 0.0
C3381 C 0.58865 0.34731 0.73106 0.0
C3382 C 0.58876 0.3554 0.71752 0.0
C3383 C 0.57932 0.35064 0.70492 0.0
O3384 O 0.57626 0.36064 0.6804 0.0
O3385 O 0.57711 0.34666 0.67857 0.0
O3386 O 0.58065 0.34427 0.69945 0.0
O3387 O 0.58018 0.35828 0.70137 0.0
H3388 H 0.56244 0.35276 0.69048 0.0
H3389 H 0.54664 0.35107 0.69051 0.0
H3390 H 0.54646 0.35128 0.66247 0.0
H3391 H 0.56228 0.35318 0.66253 0.0
H3392 H 0.60878 0.35076 0.65664 0.0
H3393 H 0.59828 0.35017 0.66857 0.0
H3394 H 0.62819 0.36085 0.67435 0.0
H3395 H 0.61776 0.36006 0.6862 0.0
H3396 H 0.5961 0.35898 0.72886 0.0
H3397 H 0.58038 0.33595 0.73088 0.0
H3398 H 0.57544 0.33785 0.71595 0.0
H3399 H 0.59111 0.36089 0.71388 0.0
C3400 C 0.42539 0.17533 0.81369 0.0
C3401 C 0.4328 0.1771 0.80874 0.0
C3402 C 0.42404 0.17731 0.79552 0.0
C3403 C 0.43214 0.17809 0.79974 0.0
C3404 C 0.41665 0.17544 0.80053 0.0
C3405 C 0.41732 0.17447 0.80953 0.0
U3406 U 0.43906 0.17331 0.83414 0.0
O3407 O 0.43764 0.17918 0.84704 0.0
O3408 O 0.43737 0.1651 0.84565 0.0
C3409 C 0.43639 0.17173 0.85088 0.0
C3410 C 0.42601 0.1744 0.82317 0.0
C3411 C 0.42899 0.17126 0.85689 0.0
C3412 C 0.41399 0.17432 0.8607 0.0
C3413 C 0.42077 0.17446 0.85465 0.0
C3414 C 0.42354 0.16758 0.87117 0.0
C3415 C 0.41534 0.17097 0.86908 0.0
C3416 C 0.43029 0.16773 0.86514 0.0
C3417 C 0.46399 0.17343 0.83113 0.0
C3418 C 0.4751 0.17608 0.84211 0.0
C3419 C 0.47911 0.1703 0.82809 0.0
C3420 C 0.47041 0.17045 0.82549 0.0
C3421 C 0.48159 0.17315 0.83642 0.0
C3422 C 0.46636 0.17619 0.8395 0.0
C3423 C 0.45494 0.17379 0.828 0.0
O3424 O 0.42917 0.16703 0.82588 0.0
O3425 O 0.42926 0.18108 0.82734 0.0
O3426 O 0.45053 0.18072 0.83006 0.0
O3427 O 0.4504 0.16664 0.82868 0.0
H3428 H 0.4391 0.17778 0.81186 0.0
H3429 H 0.43795 0.17963 0.79613 0.0
H3430 H 0.41033 0.17466 0.79749 0.0
H3431 H 0.41154 0.17305 0.81324 0.0
H3432 H 0.40778 0.17704 0.85888 0.0
H3433 H 0.41963 0.1772 0.84829 0.0
H3434 H 0.42477 0.16479 0.87749 0.0
H3435 H 0.43657 0.16518 0.86697 0.0
H3436 H 0.47677 0.17823 0.8486 0.0
H3437 H 0.48392 0.16813 0.82349 0.0
H3438 H 0.4687 0.16832 0.81899 0.0
H3439 H 0.46149 0.17849 0.84398 0.0
C3440 C 0.85205 0.6773 0.06347 0.0
C3441 C 0.85163 0.68506 0.05885 0.0
C3442 C 0.84973 0.67715 0.04528 0.0
C3443 C 0.85049 0.68499 0.04985 0.0
C3444 C 0.85026 0.66938 0.04995 0.0
C3445 C 0.8514 0.66947 0.05897 0.0
U3446 U 0.85439 0.68986 0.08443 0.0
O3447 O 0.84854 0.68799 0.09726 0.0
O3448 O 0.86272 0.68776 0.0959 0.0
C3449 C 0.85606 0.68662 0.10107 0.0
C3450 C 0.85306 0.67738 0.07297 0.0
C3451 C 0.8565 0.67911 0.10689 0.0
C3452 C 0.85277 0.66431 0.1106 0.0
C3453 C 0.85267 0.67116 0.10468 0.0
C3454 C 0.86072 0.67323 0.12086 0.0
C3455 C 0.85669 0.66531 0.11882 0.0
C3456 C 0.86061 0.68004 0.11496 0.0
C3457 C 0.85454 0.7147 0.08227 0.0
C3458 C 0.8516 0.72547 0.09337 0.0
C3459 C 0.85816 0.72974 0.0798 0.0
C3460 C 0.85796 0.72119 0.07697 0.0
C3461 C 0.85494 0.73201 0.08802 0.0
C3462 C 0.85143 0.71687 0.09054 0.0
C3463 C 0.85406 0.70584 0.07885 0.0
O3464 O 0.86055 0.68035 0.07585 0.0
O3465 O 0.84639 0.68043 0.07726 0.0
O3466 O 0.84703 0.70139 0.08074 0.0
O3467 O 0.86122 0.7013 0.07939 0.0
H3468 H 0.85216 0.69118 0.06223 0.0
H3469 H 0.85024 0.69108 0.04646 0.0
H3470 H 0.84961 0.66323 0.04667 0.0
H3471 H 0.8517 0.66342 0.06244 0.0
H3472 H 0.84956 0.65833 0.10883 0.0
H3473 H 0.84948 0.6703 0.09845 0.0
H3474 H 0.86396 0.67418 0.12705 0.0
H3475 H 0.86365 0.6861 0.11676 0.0
H3476 H 0.84915 0.72698 0.09977 0.0
H3477 H 0.86066 0.73461 0.07545 0.0
H3478 H 0.86036 0.71965 0.07056 0.0
H3479 H 0.84879 0.71195 0.09475 0.0
C3480 C 0.42658 0.10282 0.46163 0.0
C3481 C 0.43388 0.09985 0.46618 0.0
C3482 C 0.42606 0.10094 0.47986 0.0
C3483 C 0.43362 0.09889 0.4752 0.0
C3484 C 0.41877 0.10398 0.47524 0.0
C3485 C 0.41904 0.1049 0.46621 0.0
U3486 U 0.43955 0.1042 0.44089 0.0
O3487 O 0.43743 0.09841 0.42803 0.0
O3488 O 0.43806 0.11248 0.42939 0.0
C3489 C 0.43653 0.10591 0.4242 0.0
C3490 C 0.42682 0.1038 0.45214 0.0
C3491 C 0.42905 0.10675 0.41825 0.0
C3492 C 0.41409 0.10357 0.4141 0.0
C3493 C 0.4209 0.10315 0.42017 0.0
C3494 C 0.42344 0.11141 0.40428 0.0
C3495 C 0.41532 0.10761 0.40602 0.0
C3496 C 0.43022 0.11097 0.41033 0.0
C3497 C 0.46446 0.10256 0.44347 0.0
C3498 C 0.4748 0.10125 0.43169 0.0
C3499 C 0.47994 0.1024 0.44653 0.0
C3500 C 0.47137 0.10292 0.4494 0.0
C3501 C 0.48178 0.10151 0.43764 0.0
C3502 C 0.4662 0.10178 0.43458 0.0
C3503 C 0.45553 0.1028 0.44679 0.0
O3504 O 0.43035 0.111 0.44937 0.0
O3505 O 0.42943 0.09697 0.44782 0.0
O3506 O 0.45059 0.09614 0.44481 0.0
O3507 O 0.45148 0.1102 0.4461 0.0
H3508 H 0.43978 0.09823 0.46275 0.0
H3509 H 0.43931 0.09642 0.47849 0.0
H3510 H 0.41289 0.10574 0.47861 0.0
H3511 H 0.41336 0.10726 0.46281 0.0
H3512 H 0.40795 0.10053 0.41564 0.0
H3513 H 0.41984 0.09988 0.42627 0.0
H3514 H 0.42459 0.11472 0.39822 0.0
H3515 H 0.43645 0.11384 0.40875 0.0
H3516 H 0.47599 0.10065 0.42479 0.0
H3517 H 0.48511 0.10248 0.45131 0.0
H3518 H 0.47014 0.10349 0.45629 0.0
H3519 H 0.46093 0.10152 0.42991 0.0
C3520 C 0.42623 0.46325 0.10302 0.0
C3521 C 0.43396 0.46808 0.10314 0.0
C3522 C 0.42573 0.48142 0.10211 0.0
C3523 C 0.43372 0.47707 0.1027 0.0
C3524 C 0.418 0.47653 0.10195 0.0
C3525 C 0.41826 0.46752 0.10241 0.0
U3526 U 0.43922 0.44262 0.10334 0.0
O3527 O 0.43786 0.43086 0.1112 0.0
O3528 O 0.43697 0.43009 0.09701 0.0
C3529 C 0.43618 0.42598 0.10441 0.0
C3530 C 0.42648 0.45379 0.10349 0.0
C3531 C 0.4286 0.4202 0.10517 0.0
C3532 C 0.41322 0.41703 0.10318 0.0
C3533 C 0.42025 0.42277 0.10259 0.0
C3534 C 0.4228 0.40616 0.10908 0.0
C3535 C 0.41442 0.40864 0.10642 0.0
C3536 C 0.42981 0.41188 0.10845 0.0
C3537 C 0.46414 0.4454 0.10166 0.0
C3538 C 0.47477 0.43387 0.10211 0.0
C3539 C 0.47945 0.4486 0.09976 0.0
C3540 C 0.47085 0.45134 0.10026 0.0
C3541 C 0.48153 0.43983 0.10064 0.0
C3542 C 0.46612 0.43664 0.1026 0.0
C3543 C 0.45517 0.44857 0.10208 0.0
O3544 O 0.42911 0.44989 0.09641 0.0
O3545 O 0.43002 0.45066 0.11059 0.0
O3546 O 0.45117 0.44756 0.10952 0.0
O3547 O 0.45022 0.44682 0.09532 0.0
H3548 H 0.44019 0.46488 0.10356 0.0
H3549 H 0.43979 0.48062 0.10272 0.0
H3550 H 0.41174 0.47966 0.1016 0.0
H3551 H 0.41223 0.46389 0.10232 0.0
H3552 H 0.40684 0.41918 0.10117 0.0
H3553 H 0.41918 0.42919 0.10008 0.0
H3554 H 0.424 0.39973 0.11148 0.0
H3555 H 0.43621 0.40977 0.11046 0.0
H3556 H 0.47614 0.42706 0.10276 0.0
H3557 H 0.4845 0.45338 0.09877 0.0
H3558 H 0.46944 0.45814 0.09956 0.0
H3559 H 0.461 0.43196 0.10368 0.0
C3560 C 0.56395 0.59978 0.92209 0.0
C3561 C 0.55897 0.59243 0.92397 0.0
C3562 C 0.54576 0.60104 0.92407 0.0
C3563 C 0.54997 0.59305 0.92495 0.0
C3564 C 0.5508 0.60837 0.92207 0.0
C3565 C 0.5598 0.60773 0.92109 0.0
U3566 U 0.58452 0.58642 0.92132 0.0
O3567 O 0.59621 0.58769 0.91323 0.0
O3568 O 0.59729 0.58853 0.92741 0.0
C3569 C 0.60127 0.58936 0.91993 0.0
C3570 C 0.57344 0.59923 0.92129 0.0
C3571 C 0.60697 0.59696 0.9191 0.0
C3572 C 0.60975 0.61233 0.92074 0.0
C3573 C 0.60411 0.60524 0.92135 0.0
C3574 C 0.6211 0.60295 0.91549 0.0
C3575 C 0.61833 0.61127 0.91782 0.0
C3576 C 0.61548 0.59588 0.91613 0.0
C3577 C 0.58144 0.56173 0.92342 0.0
C3578 C 0.59283 0.55095 0.92273 0.0
C3579 C 0.57803 0.54666 0.92586 0.0
C3580 C 0.5754 0.55523 0.92525 0.0
C3581 C 0.58678 0.5444 0.92464 0.0
C3582 C 0.59018 0.55957 0.92214 0.0
C3583 C 0.57838 0.57068 0.92291 0.0
O3584 O 0.57755 0.59663 0.92829 0.0
O3585 O 0.57625 0.59553 0.91416 0.0
O3586 O 0.57931 0.57454 0.9154 0.0
O3587 O 0.58033 0.57565 0.92957 0.0
H3588 H 0.56208 0.58623 0.92476 0.0
H3589 H 0.54633 0.5873 0.9266 0.0
H3590 H 0.54778 0.61459 0.92121 0.0
H3591 H 0.56354 0.61347 0.9196 0.0
H3592 H 0.60737 0.61865 0.9225 0.0
H3593 H 0.59754 0.60622 0.92362 0.0
H3594 H 0.62769 0.60187 0.91333 0.0
H3595 H 0.61781 0.58954 0.91438 0.0
H3596 H 0.59963 0.54944 0.92182 0.0
H3597 H 0.57317 0.54178 0.92718 0.0
H3598 H 0.56862 0.55678 0.92621 0.0
H3599 H 0.59494 0.56454 0.92074 0.0
C3600 C 0.92133 0.71271 0.6757 0.0
C3601 C 0.92206 0.71759 0.68335 0.0
C3602 C 0.92202 0.73089 0.67497 0.0
C3603 C 0.92241 0.72659 0.68299 0.0
C3604 C 0.92124 0.72595 0.66733 0.0
C3605 C 0.92091 0.71694 0.6677 0.0
U3606 U 0.92138 0.6921 0.68881 0.0
O3607 O 0.91399 0.68002 0.6872 0.0
O3608 O 0.92822 0.67986 0.68677 0.0
C3609 C 0.92099 0.67544 0.68571 0.0
C3610 C 0.92107 0.70324 0.67604 0.0
C3611 C 0.92065 0.66984 0.67799 0.0
C3612 C 0.9202 0.66785 0.66234 0.0
C3613 C 0.92038 0.67331 0.66961 0.0
C3614 C 0.9205 0.65542 0.6718 0.0
C3615 C 0.92027 0.65883 0.66335 0.0
C3616 C 0.92069 0.66088 0.67904 0.0
C3617 C 0.92269 0.69495 0.71374 0.0
C3618 C 0.92189 0.68352 0.72447 0.0
C3619 C 0.92494 0.69819 0.729 0.0
C3620 C 0.92444 0.70089 0.72038 0.0
C3621 C 0.9237 0.68948 0.73116 0.0
C3622 C 0.92141 0.68624 0.71581 0.0
C3623 C 0.92224 0.69809 0.70476 0.0
O3624 O 0.92823 0.6996 0.67886 0.0
O3625 O 0.91401 0.69991 0.67944 0.0
O3626 O 0.91488 0.69674 0.7006 0.0
O3627 O 0.92912 0.69665 0.69997 0.0
H3628 H 0.92237 0.71442 0.6896 0.0
H3629 H 0.92288 0.73018 0.68901 0.0
H3630 H 0.92103 0.72904 0.66104 0.0
H3631 H 0.92037 0.71328 0.66172 0.0
H3632 H 0.91991 0.67071 0.65595 0.0
H3633 H 0.92033 0.68022 0.66868 0.0
H3634 H 0.92069 0.64853 0.67283 0.0
H3635 H 0.92093 0.65809 0.68547 0.0
H3636 H 0.92097 0.67676 0.7259 0.0
H3637 H 0.92619 0.70297 0.73399 0.0
H3638 H 0.92541 0.70765 0.7189 0.0
H3639 H 0.92007 0.68156 0.71074 0.0
C3640 C 0.31336 0.17436 0.92497 0.0
C3641 C 0.3084 0.17621 0.93235 0.0
C3642 C 0.29516 0.17625 0.92359 0.0
C3643 C 0.29939 0.17715 0.93167 0.0
C3644 C 0.30018 0.17429 0.91624 0.0
C3645 C 0.30919 0.17336 0.91693 0.0
U3646 U 0.33389 0.1735 0.93864 0.0
O3647 O 0.34563 0.16552 0.93739 0.0
O3648 O 0.34665 0.17962 0.93687 0.0
C3649 C 0.35068 0.17222 0.936 0.0
C3650 C 0.32286 0.17359 0.92559 0.0
C3651 C 0.35664 0.17155 0.92858 0.0
C3652 C 0.36036 0.17431 0.91351 0.0
C3653 C 0.35435 0.17458 0.92031 0.0
C3654 C 0.3709 0.16777 0.92313 0.0
C3655 C 0.36876 0.17101 0.91487 0.0
C3656 C 0.3649 0.16805 0.9299 0.0
C3657 C 0.33083 0.17527 0.96346 0.0
C3658 C 0.34223 0.17396 0.97436 0.0
C3659 C 0.32765 0.17789 0.97865 0.0
C3660 C 0.32495 0.17744 0.97 0.0
C3661 C 0.33633 0.17618 0.98095 0.0
C3662 C 0.3395 0.17354 0.96567 0.0
C3663 C 0.3277 0.17487 0.95444 0.0
O3664 O 0.32695 0.18052 0.92839 0.0
O3665 O 0.32569 0.16647 0.92921 0.0
O3666 O 0.32865 0.16746 0.95041 0.0
O3667 O 0.32961 0.18154 0.94958 0.0
H3668 H 0.31152 0.17701 0.93862 0.0
H3669 H 0.29577 0.17878 0.93744 0.0
H3670 H 0.29714 0.17342 0.90994 0.0
H3671 H 0.31292 0.17189 0.91117 0.0
H3672 H 0.3585 0.17692 0.90726 0.0
H3673 H 0.34797 0.17729 0.91915 0.0
H3674 H 0.37723 0.16502 0.92438 0.0
H3675 H 0.36677 0.16563 0.93622 0.0
H3676 H 0.34897 0.17268 0.9759 0.0
H3677 H 0.3229 0.17946 0.98355 0.0
H3678 H 0.31822 0.17876 0.96841 0.0
H3679 H 0.34414 0.17187 0.96069 0.0
C3680 C 0.92258 0.5643 0.59872 0.0
C3681 C 0.92223 0.55947 0.59101 0.0
C3682 C 0.92326 0.54612 0.59926 0.0
C3683 C 0.92255 0.55046 0.59128 0.0
C3684 C 0.92362 0.55103 0.60696 0.0
C3685 C 0.92328 0.56003 0.60668 0.0
U3686 U 0.92224 0.58527 0.58606 0.0
O3687 O 0.91461 0.59708 0.588 0.0
O3688 O 0.92884 0.59765 0.58853 0.0
C3689 C 0.92152 0.60183 0.58961 0.0
C3690 C 0.92223 0.57377 0.59851 0.0
C3691 C 0.9211 0.60736 0.59737 0.0
C3692 C 0.92101 0.60931 0.61303 0.0
C3693 C 0.92126 0.60387 0.60576 0.0
C3694 C 0.92041 0.62174 0.60359 0.0
C3695 C 0.92063 0.61832 0.61204 0.0
C3696 C 0.92064 0.61631 0.59635 0.0
C3697 C 0.92336 0.58369 0.56101 0.0
C3698 C 0.91672 0.59155 0.54906 0.0
C3699 C 0.93044 0.58432 0.54694 0.0
C3700 C 0.9303 0.58154 0.55556 0.0
C3701 C 0.9236 0.58927 0.54355 0.0
C3702 C 0.9166 0.58881 0.5577 0.0
C3703 C 0.92309 0.58004 0.56986 0.0
O3704 O 0.92932 0.57762 0.59576 0.0
O3705 O 0.9151 0.57703 0.59518 0.0
O3706 O 0.91576 0.58075 0.57414 0.0
O3707 O 0.93 0.58138 0.57475 0.0
H3708 H 0.92173 0.56267 0.5848 0.0
H3709 H 0.92237 0.5469 0.58523 0.0
H3710 H 0.92405 0.5479 0.61322 0.0
H3711 H 0.92354 0.56366 0.61269 0.0
H3712 H 0.92128 0.60646 0.61943 0.0
H3713 H 0.92163 0.59697 0.60667 0.0
H3714 H 0.91997 0.62862 0.60257 0.0
H3715 H 0.92049 0.61911 0.58992 0.0
H3716 H 0.9114 0.59544 0.54667 0.0
H3717 H 0.93578 0.58235 0.54286 0.0
H3718 H 0.93554 0.57754 0.55792 0.0
H3719 H 0.91116 0.59059 0.56174 0.0
C3720 C 0.67787 0.85345 0.06349 0.0
C3721 C 0.68555 0.85368 0.05863 0.0
C3722 C 0.67717 0.85272 0.04518 0.0
C3723 C 0.6852 0.85334 0.04956 0.0
C3724 C 0.6695 0.85245 0.05012 0.0
C3725 C 0.66986 0.85282 0.05919 0.0
U3726 U 0.69104 0.85376 0.08431 0.0
O3727 O 0.68963 0.86144 0.09626 0.0
O3728 O 0.68901 0.84731 0.09681 0.0
C3729 C 0.68815 0.85461 0.10107 0.0
C3730 C 0.67821 0.85383 0.07302 0.0
C3731 C 0.68074 0.85517 0.10706 0.0
C3732 C 0.6658 0.8519 0.11104 0.0
C3733 C 0.67255 0.8517 0.10496 0.0
C3734 C 0.67531 0.85924 0.12125 0.0
C3735 C 0.66714 0.85557 0.11932 0.0
C3736 C 0.68202 0.85903 0.11519 0.0
C3737 C 0.71593 0.8525 0.08181 0.0
C3738 C 0.72628 0.85083 0.09365 0.0
C3739 C 0.73141 0.8525 0.07892 0.0
C3740 C 0.72284 0.85309 0.07598 0.0
C3741 C 0.73325 0.85132 0.08779 0.0
C3742 C 0.71768 0.85142 0.09068 0.0
C3743 C 0.707 0.85282 0.07841 0.0
O3744 O 0.68099 0.84679 0.07684 0.0
O3745 O 0.68167 0.86089 0.07629 0.0
O3746 O 0.70288 0.86013 0.0795 0.0
O3747 O 0.70213 0.84602 0.07997 0.0
H3748 H 0.69181 0.85412 0.06185 0.0
H3749 H 0.69124 0.85344 0.04598 0.0
H3750 H 0.66321 0.85208 0.04696 0.0
H3751 H 0.66387 0.85264 0.06284 0.0
H3752 H 0.65962 0.84898 0.10935 0.0
H3753 H 0.67141 0.84871 0.0987 0.0
H3754 H 0.67653 0.86228 0.12748 0.0
H3755 H 0.68828 0.86179 0.11692 0.0
H3756 H 0.72746 0.85 0.10053 0.0
H3757 H 0.73659 0.85277 0.0742 0.0
H3758 H 0.72161 0.85389 0.0691 0.0
H3759 H 0.7124 0.85098 0.09528 0.0
C3760 C 0.10286 0.46295 0.42574 0.0
C3761 C 0.10307 0.46775 0.43346 0.0
C3762 C 0.10228 0.48113 0.42526 0.0
C3763 C 0.1028 0.47675 0.43323 0.0
C3764 C 0.10206 0.47626 0.41753 0.0
C3765 C 0.10235 0.46726 0.41778 0.0
U3766 U 0.1019 0.44201 0.43836 0.0
O3767 O 0.09511 0.42982 0.43552 0.0
O3768 O 0.10929 0.42997 0.43696 0.0
C3769 C 0.10235 0.42542 0.43493 0.0
C3770 C 0.10304 0.45347 0.42593 0.0
C3771 C 0.10309 0.41982 0.42725 0.0
C3772 C 0.10325 0.41767 0.41161 0.0
C3773 C 0.10282 0.42319 0.41881 0.0
C3774 C 0.10433 0.4054 0.42122 0.0
C3775 C 0.10395 0.40869 0.41273 0.0
C3776 C 0.1039 0.41091 0.42839 0.0
C3777 C 0.09882 0.44378 0.46321 0.0
C3778 C 0.10361 0.43499 0.47538 0.0
C3779 C 0.09074 0.44378 0.47672 0.0
C3780 C 0.09185 0.44668 0.46823 0.0
C3781 C 0.09663 0.43794 0.48043 0.0
C3782 C 0.10469 0.43786 0.46684 0.0
C3783 C 0.09998 0.44737 0.45442 0.0
O3784 O 0.10985 0.45008 0.42976 0.0
O3785 O 0.0957 0.44975 0.42814 0.0
O3786 O 0.09344 0.44625 0.44901 0.0
O3787 O 0.10761 0.44634 0.45075 0.0
H3788 H 0.1034 0.46452 0.43968 0.0
H3789 H 0.10287 0.48029 0.4393 0.0
H3790 H 0.10177 0.47942 0.41129 0.0
H3791 H 0.10218 0.46365 0.41175 0.0
H3792 H 0.10286 0.42042 0.40518 0.0
H3793 H 0.10218 0.43006 0.41781 0.0
H3794 H 0.10502 0.39855 0.42234 0.0
H3795 H 0.10415 0.4082 0.43486 0.0
H3796 H 0.10822 0.43043 0.47802 0.0
H3797 H 0.08538 0.44629 0.48046 0.0
H3798 H 0.08729 0.45131 0.46561 0.0
H3799 H 0.11013 0.4355 0.46312 0.0
C3800 C 0.10192 0.31389 0.34959 0.0
C3801 C 0.09997 0.30902 0.34215 0.0
C3802 C 0.10027 0.29578 0.35064 0.0
C3803 C 0.09914 0.30005 0.34266 0.0
C3804 C 0.10235 0.30072 0.35805 0.0
C3805 C 0.10316 0.30969 0.35752 0.0
U3806 U 0.10272 0.33446 0.33636 0.0
O3807 O 0.09623 0.34691 0.3383 0.0
O3808 O 0.11046 0.34631 0.33805 0.0
C3809 C 0.10359 0.35111 0.33944 0.0
C3810 C 0.10255 0.32334 0.34915 0.0
C3811 C 0.104 0.35674 0.34714 0.0
C3812 C 0.10472 0.35878 0.36277 0.0
C3813 C 0.10448 0.3533 0.35553 0.0
C3814 C 0.10404 0.37117 0.35328 0.0
C3815 C 0.10448 0.36779 0.36174 0.0
C3816 C 0.1038 0.36569 0.34607 0.0
C3817 C 0.10157 0.33186 0.31146 0.0
C3818 C 0.10017 0.34358 0.30113 0.0
C3819 C 0.10144 0.32888 0.296 0.0
C3820 C 0.10198 0.32601 0.30456 0.0
C3821 C 0.10048 0.3377 0.29416 0.0
C3822 C 0.10071 0.34069 0.30972 0.0
C3823 C 0.10183 0.32855 0.32038 0.0
O3824 O 0.10975 0.32639 0.34577 0.0
O3825 O 0.09555 0.32724 0.34627 0.0
O3826 O 0.09496 0.33014 0.32513 0.0
O3827 O 0.10919 0.32963 0.32461 0.0
H3828 H 0.099 0.31216 0.33595 0.0
H3829 H 0.09743 0.29649 0.33685 0.0
H3830 H 0.1034 0.29766 0.36427 0.0
H3831 H 0.10472 0.31335 0.36333 0.0
H3832 H 0.10516 0.35595 0.36917 0.0
H3833 H 0.10464 0.34639 0.35647 0.0
H3834 H 0.10371 0.37805 0.35224 0.0
H3835 H 0.1034 0.36845 0.33963 0.0
H3836 H 0.09952 0.35042 0.29995 0.0
H3837 H 0.10155 0.32415 0.29082 0.0
H3838 H 0.1026 0.31917 0.30579 0.0
H3839 H 0.10041 0.34531 0.31499 0.0
H3840 H 0.10521 0.28326 0.33899 0.0
H3841 H 0.08498 0.24442 0.36657 0.0
H3842 H 0.09255 0.28654 0.36369 0.0
H3843 H 0.09606 0.2411 0.34114 0.0
H3844 H 0.08856 0.25974 0.36598 0.0
H3845 H 0.10269 0.26773 0.33996 0.0
C3846 C 0.10189 0.28073 0.34461 0.0
C3847 C 0.09908 0.28626 0.35126 0.0
C3848 C 0.09024 0.25566 0.36053 0.0
C3849 C 0.09624 0.26842 0.35245 0.0
C3850 C 0.08816 0.24691 0.36085 0.0
C3851 C 0.09016 0.24144 0.35387 0.0
C3852 C 0.09435 0.25904 0.35316 0.0
C3853 C 0.09445 0.24503 0.3467 0.0
C3854 C 0.10049 0.27185 0.34518 0.0
C3855 C 0.09494 0.28256 0.35845 0.0
N3856 N 0.09636 0.2536 0.34652 0.0
N3857 N 0.09363 0.2739 0.35884 0.0
H3858 H 0.74287 0.33832 0.57794 0.0
H3859 H 0.78476 0.34989 0.60688 0.0
H3860 H 0.74234 0.35736 0.59838 0.0
H3861 H 0.78334 0.32882 0.58859 0.0
H3862 H 0.76954 0.35334 0.60354 0.0
H3863 H 0.75797 0.33531 0.58149 0.0
C3864 C 0.74595 0.34191 0.58316 0.0
C3865 C 0.74134 0.34815 0.58783 0.0
C3866 C 0.77257 0.34796 0.60029 0.0
C3867 C 0.75871 0.34467 0.592 0.0
C3868 C 0.78127 0.34602 0.60214 0.0
C3869 C 0.78532 0.33902 0.59805 0.0
C3870 C 0.76794 0.3429 0.59423 0.0
C3871 C 0.78046 0.33419 0.59202 0.0
C3872 C 0.75458 0.34015 0.58523 0.0
C3873 C 0.74564 0.35246 0.59465 0.0
N3874 N 0.77206 0.33622 0.59029 0.0
N3875 N 0.75411 0.35067 0.59651 0.0
H3876 H 0.67357 0.99164 0.86388 0.0
H3877 H 0.67797 0.0353 0.83675 0.0
H3878 H 0.67397 0.99237 0.83588 0.0
H3879 H 0.67153 0.03471 0.86394 0.0
H3880 H 0.67766 0.01954 0.83646 0.0
H3881 H 0.6738 1.00737 0.86417 0.0
C3882 C 0.67365 0.99508 0.85778 0.0
C3883 C 0.67373 0.9906 0.84984 0.0
C3884 C 0.6763 0.02286 0.84249 0.0
C3885 C 0.67416 1.00869 0.85015 0.0
C3886 C 0.67652 0.03186 0.84267 0.0
C3887 C 0.67477 0.03634 0.85038 0.0
C3888 C 0.67439 0.01828 0.8501 0.0
C3889 C 0.67284 0.03153 0.85783 0.0
C3890 C 0.67382 1.00408 0.85796 0.0
C3891 C 0.67403 0.99548 0.84217 0.0
N3892 N 0.67274 0.02277 0.85752 0.0
N3893 N 0.67424 1.00424 0.84252 0.0
H3894 H 0.99106 0.92806 0.11098 0.0
H3895 H 0.03641 0.93532 0.0867 0.0
H3896 H 0.99416 0.94357 0.08801 0.0
H3897 H 0.03366 0.91933 0.10939 0.0
H3898 H 0.02082 0.93795 0.08686 0.0
H3899 H 1.00647 0.92427 0.11025 0.0
C3900 C 0.99495 0.93061 0.10573 0.0
C3901 C 0.99131 0.9362 0.09958 0.0
C3902 C 0.0236 0.93384 0.09179 0.0
C3903 C 1.00898 0.93196 0.09876 0.0
C3904 C 0.03252 0.93229 0.09168 0.0
C3905 C 0.03639 0.92708 0.09804 0.0
C3906 C 0.01845 0.93018 0.09832 0.0
C3907 C 0.031 0.92348 0.10442 0.0
C3908 C 1.00377 0.92848 0.10535 0.0
C3909 C 0.99671 0.93937 0.09299 0.0
N3910 N 0.02232 0.9251 0.1044 0.0
N3911 N 1.00525 0.93723 0.09277 0.0
H3912 H 0.09129 0.99031 0.9379 0.0
H3913 H 0.09778 0.03529 0.91331 0.0
H3914 H 0.10668 0.99304 0.91474 0.0
H3915 H 0.08293 0.03222 0.93676 0.0
H3916 H 0.10164 0.02001 0.91396 0.0
H3917 H 0.08864 1.00578 0.9378 0.0
C3918 C 0.09419 0.99417 0.93283 0.0
C3919 C 0.09924 0.99033 0.92633 0.0
C3920 C 0.09756 0.02269 0.91897 0.0
C3921 C 0.0961 1.00812 0.92609 0.0
C3922 C 0.09539 0.03143 0.91864 0.0
C3923 C 0.08996 0.03505 0.92496 0.0
C3924 C 0.09428 0.01752 0.92569 0.0
C3925 C 0.087 0.02969 0.93166 0.0
C3926 C 0.09262 1.00301 0.93274 0.0
C3927 C 0.10266 0.99568 0.91983 0.0
N3928 N 0.08917 0.02122 0.93183 0.0
N3929 N 0.10102 1.00429 0.91987 0.0
H3930 H 0.03352 0.35307 0.18827 0.0
H3931 H 0.9924 0.33802 0.15986 0.0
H3932 H 0.03538 0.34372 0.16194 0.0
H3933 H 0.99117 0.34357 0.18726 0.0
H3934 H 1.00792 0.34142 0.16013 0.0
H3935 H 0.01783 0.35077 0.18769 0.0
C3936 C 0.03066 0.3505 0.18237 0.0
C3937 C 0.03584 0.34854 0.17516 0.0
C3938 C 1.00426 0.34192 0.16608 0.0
C3939 C 0.01779 0.34601 0.17442 0.0
C3940 C 0.99537 0.34004 0.16592 0.0
C3941 C 0.99046 0.34049 0.17355 0.0
C3942 C 1.00828 0.34431 0.17393 0.0
C3943 C 0.99471 0.34303 0.18124 0.0
C3944 C 0.02167 0.34924 0.18203 0.0
C3945 C 0.03168 0.34542 0.16764 0.0
N3946 N 1.00336 0.34483 0.18124 0.0
N3947 N 0.02292 0.34423 0.16747 0.0
H3948 H 0.66513 0.24415 0.41883 0.0
H3949 H 0.68744 0.28375 0.44408 0.0
H3950 H 0.68719 0.24168 0.43602 0.0
H3951 H 0.66476 0.28646 0.42776 0.0
H3952 H 0.68783 0.26843 0.44054 0.0
H3953 H 0.66521 0.25971 0.42144 0.0
C3954 C 0.66997 0.24686 0.42317 0.0
C3955 C 0.67615 0.24156 0.42722 0.0
C3956 C 0.68278 0.27237 0.43771 0.0
C3957 C 0.67632 0.25941 0.43018 0.0
C3958 C 0.68253 0.28112 0.43976 0.0
C3959 C 0.67601 0.28641 0.43628 0.0
C3960 C 0.67646 0.26881 0.43213 0.0
C3961 C 0.66994 0.28266 0.43056 0.0
C3962 C 0.67004 0.25576 0.42462 0.0
C3963 C 0.68236 0.24549 0.43266 0.0
N3964 N 0.67028 0.27408 0.42871 0.0
N3965 N 0.68227 0.25415 0.43399 0.0
H3966 H 0.74723 0.91597 0.694 0.0
H3967 H 0.78048 0.94288 0.66474 0.0
H3968 H 0.73924 0.93493 0.67518 0.0
H3969 H 0.78844 0.92615 0.6856 0.0
H3970 H 0.76537 0.93889 0.66741 0.0
H3971 H 0.76234 0.91847 0.68994 0.0
C3972 C 0.74864 0.92066 0.689 0.0
C3973 C 0.74192 0.92531 0.68499 0.0
C3974 C 0.77043 0.93605 0.67138 0.0
C3975 C 0.75927 0.92814 0.68025 0.0
C3976 C 0.77907 0.93836 0.66988 0.0
C3977 C 0.78577 0.93492 0.67501 0.0
C3978 C 0.76843 0.93025 0.67805 0.0
C3979 C 0.78352 0.92894 0.68144 0.0
C3980 C 0.75728 0.92205 0.68666 0.0
C3981 C 0.74417 0.93115 0.67842 0.0
N3982 N 0.77505 0.92684 0.68281 0.0
N3983 N 0.75264 0.93244 0.6763 0.0
H3984 H 0.34067 0.10123 0.23623 0.0
H3985 H 0.35087 0.09143 0.2862 0.0
H3986 H 0.35991 0.08296 0.24482 0.0
H3987 H 0.33259 0.11065 0.27763 0.0
H3988 H 0.35493 0.0889 0.27111 0.0
H3989 H 0.33829 0.10542 0.25132 0.0
C3990 C 0.34448 0.09817 0.24127 0.0
C3991 C 0.35046 0.09168 0.23922 0.0
C3992 C 0.35007 0.0937 0.27253 0.0
C3993 C 0.34766 0.09637 0.25658 0.0
C3994 C 0.34778 0.0952 0.28117 0.0
C3995 C 0.34133 0.10122 0.28322 0.0
C3996 C 0.34586 0.09825 0.26586 0.0
C3997 C 0.33748 0.10582 0.27637 0.0
C3998 C 0.34307 0.10053 0.2499 0.0
C3999 C 0.35511 0.08787 0.24607 0.0
N4000 N 0.33977 0.10421 0.26802 0.0
N4001 N 0.35358 0.09024 0.25443 0.0
H4002 H 0.90986 0.58891 0.53215 0.0
H4003 H 0.93789 0.60453 0.4914 0.0
H4004 H 0.93717 0.59516 0.53366 0.0
H4005 H 0.91169 0.59465 0.48929 0.0
H4006 H 0.93741 0.60223 0.50706 0.0
H4007 H 0.91003 0.59227 0.51666 0.0
C4008 C 0.91588 0.59108 0.52925 0.0
C4009 C 0.92352 0.59173 0.53422 0.0
C4010 C 0.93176 0.60058 0.50317 0.0
C4011 C 0.92378 0.59551 0.51645 0.0
C4012 C 0.93204 0.60184 0.49421 0.0
C4013 C 0.92484 0.59974 0.48896 0.0
C4014 C 0.9242 0.59721 0.50697 0.0
C4015 C 0.91738 0.59646 0.49304 0.0
C4016 C 0.91598 0.59294 0.52039 0.0
C4017 C 0.93115 0.59446 0.53006 0.0
N4018 N 0.91727 0.59529 0.50178 0.0
N4019 N 0.93108 0.59624 0.52143 0.0
H4020 H 0.43371 0.18027 0.74009 0.0
H4021 H 0.41108 0.18551 0.78649 0.0
H4022 H 0.409 0.19265 0.74401 0.0
H4023 H 0.43527 0.17209 0.7827 0.0
H4024 H 0.41006 0.18778 0.77087 0.0
H4025 H 0.43422 0.17675 0.75555 0.0
C4026 C 0.42835 0.18217 0.74417 0.0
C4027 C 0.42132 0.18681 0.74073 0.0
C4028 C 0.41558 0.18431 0.77344 0.0
C4029 C 0.42192 0.1829 0.75848 0.0
C4030 C 0.41615 0.18296 0.78238 0.0
C4031 C 0.42328 0.17859 0.78596 0.0
C4032 C 0.4222 0.1813 0.76799 0.0
C4033 C 0.42972 0.1756 0.78027 0.0
C4034 C 0.42867 0.18021 0.75302 0.0
C4035 C 0.41462 0.1892 0.74638 0.0
N4036 N 0.42903 0.17702 0.77159 0.0
N4037 N 0.4151 0.18724 0.75496 0.0
H4038 H 0.84841 0.66468 0.99019 0.0
H4039 H 0.83921 0.6878 0.03579 0.0
H4040 H 0.83079 0.68595 0.99354 0.0
H4041 H 0.85669 0.66634 0.03296 0.0
H4042 H 0.83659 0.68754 0.02018 0.0
H4043 H 0.85212 0.66555 1.00565 0.0
C4044 C 0.84538 0.66958 0.99415 0.0
C4045 C 0.83922 0.6752 0.99056 0.0
C4046 C 0.84102 0.68289 0.02295 0.0
C4047 C 0.84338 0.67618 1.00828 0.0
C4048 C 0.84257 0.68307 0.03188 0.0
C4049 C 0.8482 0.67709 0.03573 0.0
C4050 C 0.84512 0.67668 0.01777 0.0
C4051 C 0.85222 0.67101 0.03031 0.0
C4052 C 0.84746 0.67003 1.00299 0.0
C4053 C 0.83545 0.68137 0.99604 0.0
N4054 N 0.8506 0.67096 0.02162 0.0
N4055 N 0.83757 0.68167 1.0046 0.0
H4056 H 0.34015 0.18934 0.03542 0.0
H4057 H 0.34724 0.16533 0.98991 0.0
H4058 H 0.35605 0.16669 0.03257 0.0
H4059 H 0.33175 0.1882 0.99314 0.0
H4060 H 0.35105 0.16596 1.00535 0.0
H4061 H 0.33746 0.18923 0.01983 0.0
C4062 C 0.34314 0.18438 0.03151 0.0
C4063 C 0.34835 0.17803 0.03535 0.0
C4064 C 0.34684 0.17085 1.00267 0.0
C4065 C 0.34518 0.17779 0.01741 0.0
C4066 C 0.3447 0.17053 0.99384 0.0
C4067 C 0.33911 0.17669 0.99021 0.0
C4068 C 0.34337 0.17739 1.00792 0.0
C4069 C 0.33595 0.18322 0.99566 0.0
C4070 C 0.34156 0.18429 0.02259 0.0
C4071 C 0.35191 0.17166 0.02993 0.0
N4072 N 0.3381 0.18338 1.00422 0.0
N4073 N 0.35025 0.1717 0.02125 0.0
H4074 H 0.84584 0.57387 0.24292 0.0
H4075 H 0.84343 0.60916 0.28091 0.0
H4076 H 0.85186 0.60074 0.23888 0.0
H4077 H 0.83581 0.58254 0.28371 0.0
H4078 H 0.8474 0.60622 0.26579 0.0
H4079 H 0.84294 0.57695 0.25812 0.0
C4080 C 0.84664 0.58042 0.24525 0.0
C4081 C 0.84916 0.58705 0.2396 0.0
C4082 C 0.84487 0.60103 0.26973 0.0
C4083 C 0.8457 0.59066 0.25708 0.0
C4084 C 0.84266 0.60269 0.27837 0.0
C4085 C 0.83923 0.5961 0.28357 0.0
C4086 C 0.8437 0.5927 0.26628 0.0
C4087 C 0.8383 0.58785 0.27991 0.0
C4088 C 0.84491 0.58219 0.25393 0.0
C4089 C 0.84988 0.59544 0.24298 0.0
N4090 N 0.8405 0.5864 0.27152 0.0
N4091 N 0.84817 0.59701 0.2515 0.0
H4092 H 0.43898 0.10412 0.49186 0.0
H4093 H 0.41063 0.08934 0.53269 0.0
H4094 H 0.41245 0.09518 0.48983 0.0
H4095 H 0.43817 0.0945 0.53405 0.0
H4096 H 0.41084 0.09276 0.51722 0.0
H4097 H 0.43851 0.10174 0.5075 0.0
C4098 C 0.43306 0.10163 0.49468 0.0
C4099 C 0.42576 0.09981 0.48946 0.0
C4100 C 0.41683 0.09317 0.5209 0.0
C4101 C 0.42514 0.09719 0.50746 0.0
C4102 C 0.41671 0.09128 0.52976 0.0
C4103 C 0.4244 0.09161 0.53469 0.0
C4104 C 0.4247 0.09546 0.51693 0.0
C4105 C 0.4321 0.09405 0.53049 0.0
C4106 C 0.43278 0.10032 0.50363 0.0
C4107 C 0.41821 0.09677 0.49356 0.0
N4108 N 0.43206 0.09587 0.52187 0.0
N4109 N 0.41811 0.09554 0.5023 0.0
H4110 H 0.93691 0.68619 0.78565 0.0
H4111 H 0.91331 0.67793 0.73987 0.0
H4112 H 0.91482 0.66922 0.78249 0.0
H4113 H 0.93546 0.69472 0.74352 0.0
H4114 H 0.91403 0.67413 0.75528 0.0
H4115 H 0.93671 0.68892 0.7701 0.0
C4116 C 0.93206 0.68297 0.78168 0.0
C4117 C 0.92588 0.67744 0.78542 0.0
C4118 C 0.91875 0.67863 0.7527 0.0
C4119 C 0.92554 0.68066 0.76752 0.0
C4120 C 0.91837 0.68076 0.74389 0.0
C4121 C 0.92429 0.68671 0.74039 0.0
C4122 C 0.92511 0.68246 0.75805 0.0
C4123 C 0.93065 0.69023 0.74594 0.0
C4124 C 0.93191 0.68458 0.77278 0.0
C4125 C 0.91964 0.67361 0.77993 0.0
N4126 N 0.93087 0.68808 0.75447 0.0
N4127 N 0.91963 0.67529 0.77126 0.0
H4128 H 0.28627 0.3378 0.08981 0.0
H4129 H 0.24068 0.36091 0.09851 0.0
H4130 H 0.28342 0.35953 0.10708 0.0
H4131 H 0.24397 0.33916 0.08136 0.0
H4132 H 0.25613 0.36017 0.10231 0.0
H4133 H 0.27065 0.3379 0.08717 0.0
C4134 C 0.28236 0.34256 0.09312 0.0
C4135 C 0.2862 0.34866 0.09869 0.0
C4136 C 0.25346 0.35555 0.09773 0.0
C4137 C 0.26823 0.34889 0.09559 0.0
C4138 C 0.24462 0.35593 0.0956 0.0
C4139 C 0.24101 0.35013 0.08956 0.0
C4140 C 0.25873 0.3493 0.09381 0.0
C4141 C 0.24648 0.34387 0.08593 0.0
C4142 C 0.27342 0.34264 0.09156 0.0
C4143 C 0.28077 0.35476 0.10265 0.0
N4144 N 0.25504 0.34364 0.08809 0.0
N4145 N 0.27207 0.35473 0.10102 0.0
H4146 H 0.73835 0.43495 0.17521 0.0
H4147 H 0.78834 0.42483 0.18515 0.0
H4148 H 0.74686 0.41561 0.19338 0.0
H4149 H 0.7798 0.44312 0.16592 0.0
H4150 H 0.77321 0.42071 0.18759 0.0
H4151 H 0.75345 0.43737 0.17105 0.0
C4152 C 0.74337 0.43113 0.17825 0.0
C4153 C 0.74131 0.4251 0.18471 0.0
C4154 C 0.77465 0.42559 0.1828 0.0
C4155 C 0.75868 0.42796 0.18007 0.0
C4156 C 0.7833 0.42791 0.18136 0.0
C4157 C 0.78537 0.43438 0.17536 0.0
C4158 C 0.76798 0.42978 0.17823 0.0
C4159 C 0.77852 0.43822 0.17073 0.0
C4160 C 0.75202 0.43256 0.17592 0.0
C4161 C 0.74814 0.42044 0.1885 0.0
N4162 N 0.77015 0.4359 0.17229 0.0
N4163 N 0.7565 0.422 0.18616 0.0
H4164 H 0.58985 0.03419 0.4335 0.0
H4165 H 0.61184 0.99109 0.4153 0.0
H4166 H 0.60984 0.03403 0.41399 0.0
H4167 H 0.5919 0.99125 0.43486 0.0
H4168 H 0.61112 1.0068 0.41465 0.0
H4169 H 0.59043 0.01847 0.43401 0.0
C4170 C 0.59433 0.03086 0.42929 0.0
C4171 C 0.5998 0.03547 0.42369 0.0
C4172 C 0.6069 1.0034 0.41909 0.0
C4173 C 0.60056 0.01742 0.42431 0.0
C4174 C 0.60727 0.99442 0.41943 0.0
C4175 C 0.60192 0.98981 0.42514 0.0
C4176 C 0.60112 1.00786 0.42449 0.0
C4177 C 0.59623 0.99451 0.43044 0.0
C4178 C 0.59469 0.02187 0.42962 0.0
C4179 C 0.60557 0.03078 0.41848 0.0
N4180 N 0.59598 1.00326 0.42997 0.0
N4181 N 0.60579 0.02203 0.41891 0.0
H4182 H 0.0329 0.85762 0.66541 0.0
H4183 H 0.99323 0.83212 0.68711 0.0
H4184 H 0.03552 0.84068 0.68741 0.0
H4185 H 0.99035 0.84809 0.66443 0.0
H4186 H 1.00863 0.83584 0.68769 0.0
H4187 H 0.01725 0.85478 0.66525 0.0
C4188 C 0.0302 0.85329 0.67019 0.0
C4189 C 0.03557 0.84938 0.67643 0.0
C4190 C 1.00464 0.83856 0.68259 0.0
C4191 C 0.01762 0.84617 0.67633 0.0
C4192 C 0.99584 0.8364 0.68224 0.0
C4193 C 0.99048 0.83973 0.67566 0.0
C4194 C 1.00817 0.84409 0.67633 0.0
C4195 C 0.99421 0.84541 0.66964 0.0
C4196 C 0.02125 0.85171 0.67013 0.0
C4197 C 0.03166 0.84394 0.68255 0.0
N4198 N 1.00283 0.84737 0.67009 0.0
N4199 N 0.02295 0.84248 0.68232 0.0
H4200 H 0.59129 0.78635 0.33722 0.0
H4201 H 0.59802 0.7413 0.36155 0.0
H4202 H 0.60659 0.78372 0.36059 0.0
H4203 H 0.58324 0.74431 0.33791 0.0
H4204 H 0.60177 0.75665 0.36108 0.0
H4205 H 0.58875 0.77085 0.33717 0.0
C4206 C 0.59419 0.78251 0.34231 0.0
C4207 C 0.59918 0.78639 0.34891 0.0
C4208 C 0.59773 0.75394 0.35599 0.0
C4209 C 0.59618 0.76854 0.34896 0.0
C4210 C 0.59563 0.74516 0.35622 0.0
C4211 C 0.59025 0.7415 0.34979 0.0
C4212 C 0.59444 0.7591 0.34927 0.0
C4213 C 0.58727 0.74686 0.34309 0.0
C4214 C 0.59269 0.77364 0.3423 0.0
C4215 C 0.60262 0.78105 0.35543 0.0
N4216 N 0.58938 0.75537 0.34302 0.0
N4217 N 0.60105 0.77241 0.35529 0.0
H4218 H 0.17772 0.53561 0.83775 0.0
H4219 H 0.17186 0.49179 0.86436 0.0
H4220 H 0.17049 0.53486 0.86474 0.0
H4221 H 0.17355 0.49271 0.83643 0.0
H4222 H 0.17219 0.50751 0.86477 0.0
H4223 H 0.17722 0.51985 0.83732 0.0
C4224 C 0.17606 0.53213 0.8436 0.0
C4225 C 0.17414 0.53657 0.8513 0.0
C4226 C 0.17248 0.50427 0.85855 0.0
C4227 C 0.17354 0.51852 0.85084 0.0
C4228 C 0.17224 0.49527 0.8583 0.0
C4229 C 0.17265 0.49085 0.85034 0.0
C4230 C 0.1732 0.50894 0.8508 0.0
C4231 C 0.17334 0.49578 0.84273 0.0
C4232 C 0.17573 0.52313 0.84333 0.0
C4233 C 0.17193 0.53172 0.85864 0.0
N4234 N 0.1736 0.50453 0.84316 0.0
N4235 N 0.17172 0.52296 0.85824 0.0
H4236 H 0.91426 0.78481 0.66228 0.0
H4237 H 0.93234 0.74184 0.68459 0.0
H4238 H 0.93386 0.78475 0.68239 0.0
H4239 H 0.91274 0.74184 0.66448 0.0
H4240 H 0.93292 0.75755 0.68392 0.0
H4241 H 0.91354 0.7691 0.66303 0.0
C4242 C 0.91838 0.78151 0.66689 0.0
C4243 C 0.92413 0.78614 0.67228 0.0
C4244 C 0.92849 0.75412 0.67965 0.0
C4245 C 0.9234 0.76809 0.67312 0.0
C4246 C 0.92812 0.74514 0.68006 0.0
C4247 C 0.92247 0.74048 0.67459 0.0
C4248 C 0.92317 0.75853 0.67372 0.0
C4249 C 0.91727 0.74513 0.66875 0.0
C4250 C 0.91801 0.77252 0.66728 0.0
C4251 C 0.92942 0.78147 0.67802 0.0
N4252 N 0.91773 0.75388 0.66848 0.0
N4253 N 0.92891 0.77272 0.6783 0.0
H4254 H 0.28593 0.68712 0.43837 0.0
H4255 H 0.24009 0.67895 0.41479 0.0
H4256 H 0.28274 0.67042 0.41613 0.0
H4257 H 0.24363 0.69519 0.43733 0.0
H4258 H 0.25552 0.67523 0.41546 0.0
H4259 H 0.27032 0.68967 0.43834 0.0
C4260 C 0.28195 0.68392 0.43352 0.0
C4261 C 0.28569 0.67853 0.42725 0.0
C4262 C 0.25291 0.67958 0.42027 0.0
C4263 C 0.26774 0.68154 0.4271 0.0
C4264 C 0.24408 0.68167 0.41993 0.0
C4265 C 0.24055 0.68745 0.42598 0.0
C4266 C 0.25825 0.68328 0.42672 0.0
C4267 C 0.24608 0.69084 0.43243 0.0
C4268 C 0.27302 0.68543 0.43347 0.0
C4269 C 0.28017 0.67471 0.42103 0.0
N4270 N 0.25463 0.68873 0.43261 0.0
N4271 N 0.27149 0.67629 0.4211 0.0
H4272 H 0.34132 0.99248 0.16241 0.0
H4273 H 0.36285 0.03447 0.18421 0.0
H4274 H 0.36148 0.99154 0.18194 0.0
H4275 H 0.34339 0.03548 0.16399 0.0
H4276 H 0.36222 0.01875 0.18366 0.0
H4277 H 0.34177 1.00821 0.16309 0.0
C4278 C 0.34582 0.99557 0.16688 0.0
C4279 C 0.35138 0.99065 0.17212 0.0
C4280 C 0.35809 0.0224 0.17934 0.0
C4281 C 0.35197 1.00871 0.17288 0.0
C4282 C 0.3584 0.0314 0.17968 0.0
C4283 C 0.35315 0.03633 0.17414 0.0
C4284 C 0.35247 0.01827 0.17342 0.0
C4285 C 0.34763 0.03195 0.16831 0.0
C4286 C 0.3461 1.00456 0.16722 0.0
C4287 C 0.35715 0.99505 0.17769 0.0
N4288 N 0.34742 0.02319 0.16812 0.0
N4289 N 0.35729 1.00381 0.17793 0.0
H4290 H 0.99395 0.11618 0.94001 0.0
H4291 H 0.03267 0.08883 0.91919 0.0
H4292 H 0.9903 0.09107 0.92843 0.0
H4293 H 0.03625 0.11336 0.93201 0.0
H4294 H 0.01706 0.08981 0.92182 0.0
H4295 H 1.00934 0.11558 0.93635 0.0
C4296 C 0.99638 0.11053 0.9367 0.0
C4297 C 0.99081 0.10364 0.93459 0.0
C4298 C 0.02126 0.09499 0.92403 0.0
C4299 C 1.00848 0.10293 0.93031 0.0
C4300 C 0.03019 0.09442 0.92257 0.0
C4301 C 0.03583 0.10101 0.9254 0.0
C4302 C 0.0179 0.10221 0.92835 0.0
C4303 C 0.03218 0.10816 0.92961 0.0
C4304 C 1.00517 0.11021 0.93458 0.0
C4305 C 0.99432 0.09656 0.93013 0.0
N4306 N 0.02348 0.10856 0.93098 0.0
N4307 N 1.00293 0.09637 0.92819 0.0
H4308 H 0.93523 0.9913 0.09202 0.0
H4309 H 0.91281 0.03422 0.11013 0.0
H4310 H 0.91527 0.99131 0.11158 0.0
H4311 H 0.93292 0.03423 0.09073 0.0
H4312 H 0.91361 0.01851 0.11073 0.0
H4313 H 0.93447 1.00701 0.09145 0.0
C4314 C 0.93072 0.9946 0.09624 0.0
C4315 C 0.92531 0.98994 0.10187 0.0
C4316 C 0.91784 0.02195 0.10634 0.0
C4317 C 0.92435 1.00798 0.10118 0.0
C4318 C 0.91743 0.03093 0.10602 0.0
C4319 C 0.92282 0.03559 0.10038 0.0
C4320 C 0.9237 0.01754 0.10098 0.0
C4321 C 0.92857 0.03093 0.09511 0.0
C4322 C 0.93025 1.00358 0.09587 0.0
C4323 C 0.91949 0.99459 0.10706 0.0
N4324 N 0.92886 0.02218 0.09555 0.0
N4325 N 0.91918 1.00333 0.1066 0.0
H4326 H 0.99365 0.68707 0.83086 0.0
H4327 H 0.03329 0.66633 0.85729 0.0
H4328 H 0.99066 0.66525 0.84787 0.0
H4329 H 0.03586 0.68776 0.8397 0.0
H4330 H 0.01764 0.66606 0.85441 0.0
H4331 H 1.00904 0.68772 0.83458 0.0
C4332 C 0.99623 0.6824 0.83537 0.0
C4333 C 0.99084 0.67604 0.83899 0.0
C4334 C 0.02163 0.67084 0.85121 0.0
C4335 C 1.00854 0.67679 0.84336 0.0
C4336 C 0.03058 0.67097 0.85281 0.0
C4337 C 0.03593 0.67708 0.84874 0.0
C4338 C 0.01798 0.67685 0.84546 0.0
C4339 C 0.03201 0.683 0.84309 0.0
C4340 C 1.00503 0.68279 0.83753 0.0
C4341 C 0.99455 0.67028 0.84496 0.0
N4342 N 0.0233 0.68272 0.84161 0.0
N4343 N 1.00317 0.67076 0.84692 0.0
H4344 H 0.33715 0.78701 0.59161 0.0
H4345 H 0.36084 0.74181 0.5995 0.0
H4346 H 0.35977 0.78424 0.60801 0.0
H4347 H 0.33807 0.74503 0.58342 0.0
H4348 H 0.36027 0.75715 0.60327 0.0
H4349 H 0.33714 0.77151 0.58905 0.0
C4350 C 0.34208 0.78314 0.59475 0.0
C4351 C 0.34846 0.78698 0.60005 0.0
C4352 C 0.35539 0.75449 0.59893 0.0
C4353 C 0.34856 0.76914 0.59703 0.0
C4354 C 0.35567 0.74571 0.59682 0.0
C4355 C 0.34953 0.74212 0.59107 0.0
C4356 C 0.34889 0.75971 0.59529 0.0
C4357 C 0.34304 0.74753 0.58774 0.0
C4358 C 0.3421 0.77427 0.59324 0.0
C4359 C 0.35478 0.7816 0.60379 0.0
N4360 N 0.34291 0.75603 0.58988 0.0
N4361 N 0.35467 0.77297 0.6022 0.0
H4362 H 0.28319 0.10695 0.33669 0.0
H4363 H 0.24432 0.0878 0.36526 0.0
H4364 H 0.28664 0.0958 0.36208 0.0
H4365 H 0.24083 0.09724 0.33918 0.0
H4366 H 0.25969 0.0916 0.36451 0.0
H4367 H 0.26757 0.10425 0.33774 0.0
C4368 C 0.28069 0.10392 0.34248 0.0
C4369 C 0.28629 0.10158 0.3493 0.0
C4370 C 0.25557 0.09287 0.35896 0.0
C4371 C 0.26835 0.09856 0.35058 0.0
C4372 C 0.24678 0.09067 0.35936 0.0
C4373 C 0.24126 0.09213 0.35224 0.0
C4374 C 0.25892 0.09657 0.35136 0.0
C4375 C 0.24482 0.09604 0.34485 0.0
C4376 C 0.27175 0.10243 0.34309 0.0
C4377 C 0.2826 0.09782 0.3567 0.0
N4378 N 0.25342 0.09808 0.34458 0.0
N4379 N 0.27389 0.09641 0.35713 0.0
H4380 H 0.68803 0.92051 0.74256 0.0
H4381 H 0.65967 0.93992 0.78138 0.0
H4382 H 0.66283 0.93211 0.73908 0.0
H4383 H 0.68561 0.93008 0.78489 0.0
H4384 H 0.6604 0.93621 0.76601 0.0
H4385 H 0.68699 0.92317 0.75816 0.0
C4386 C 0.68229 0.92363 0.74506 0.0
C4387 C 0.67552 0.9261 0.73945 0.0
C4388 C 0.66593 0.93483 0.77013 0.0
C4389 C 0.67425 0.92908 0.75737 0.0
C4390 C 0.66553 0.93698 0.77892 0.0
C4391 C 0.67262 0.93538 0.78445 0.0
C4392 C 0.67348 0.93104 0.76679 0.0
C4393 C 0.67997 0.93138 0.7809 0.0
C4394 C 0.68168 0.9251 0.75399 0.0
C4395 C 0.66817 0.92998 0.74313 0.0
N4396 N 0.68022 0.9294 0.7723 0.0
N4397 N 0.66775 0.93137 0.75182 0.0
H4398 H 0.10916 0.43604 0.49306 0.0
H4399 H 0.07479 0.42423 0.53007 0.0
H4400 H 0.08157 0.43341 0.48866 0.0
H4401 H 0.10216 0.42786 0.5352 0.0
H4402 H 0.07741 0.42668 0.51471 0.0
H4403 H 0.10698 0.43215 0.50829 0.0
C4404 C 0.10266 0.43456 0.49527 0.0
C4405 C 0.09553 0.4351 0.48957 0.0
C4406 C 0.08287 0.42691 0.51918 0.0
C4407 C 0.09299 0.43072 0.50702 0.0
C4408 C 0.08138 0.42545 0.52796 0.0
C4409 C 0.08827 0.4258 0.53397 0.0
C4410 C 0.0913 0.42878 0.5163 0.0
C4411 C 0.09663 0.4276 0.53083 0.0
C4412 C 0.10141 0.4324 0.50398 0.0
C4413 C 0.08724 0.43321 0.49284 0.0
N4414 N 0.09792 0.42903 0.52222 0.0
N4415 N 0.0862 0.43113 0.50132 0.0
H4416 H 0.61184 0.83318 0.28023 0.0
H4417 H 0.58339 0.86003 0.24619 0.0
H4418 H 0.59111 0.85028 0.28759 0.0
H4419 H 0.60189 0.84058 0.23877 0.0
H4420 H 0.58728 0.85774 0.26138 0.0
H4421 H 0.60943 0.83702 0.26505 0.0
C4422 C 0.60679 0.83776 0.27867 0.0
C4423 C 0.60161 0.84134 0.28522 0.0
C4424 C 0.59053 0.854 0.25643 0.0
C4425 C 0.59887 0.84584 0.26781 0.0
C4426 C 0.58828 0.85528 0.24774 0.0
C4427 C 0.59225 0.85043 0.24116 0.0
C4428 C 0.5968 0.84783 0.2586 0.0
C4429 C 0.59869 0.84451 0.24359 0.0
C4430 C 0.60544 0.83997 0.26999 0.0
C4431 C 0.59529 0.84739 0.28279 0.0
N4432 N 0.60072 0.84334 0.25211 0.0
N4433 N 0.59406 0.84939 0.27429 0.0
H4434 H 0.18297 0.36074 0.99032 0.0
H4435 H 0.16438 0.34249 0.03518 0.0
H4436 H 0.16325 0.34096 0.99188 0.0
H4437 H 0.1847 0.36166 0.0336 0.0
H4438 H 0.1637 0.342 0.01935 0.0
H4439 H 0.18353 0.36133 1.00616 0.0
C4440 C 0.17872 0.35655 0.99399 0.0
C4441 C 0.17304 0.3508 0.98974 0.0
C4442 C 0.16832 0.34632 0.02246 0.0
C4443 C 0.17371 0.35138 1.00792 0.0
C4444 C 0.16867 0.34664 0.03151 0.0
C4445 C 0.1746 0.35213 0.03576 0.0
C4446 C 0.17392 0.35155 0.01757 0.0
C4447 C 0.1801 0.35725 0.03063 0.0
C4448 C 0.17908 0.35685 1.00304 0.0
C4449 C 0.16779 0.34543 0.99486 0.0
N4450 N 0.17961 0.35684 0.02183 0.0
N4451 N 0.16825 0.34586 1.00366 0.0
H4452 H 0.66466 0.8404 0.99155 0.0
H4453 H 0.68687 0.86197 0.03353 0.0
H4454 H 0.68421 0.86037 0.9903 0.0
H4455 H 0.66663 0.84269 0.03479 0.0
H4456 H 0.6862 0.86127 0.0177 0.0
H4457 H 0.6655 0.84095 1.00738 0.0
C4458 C 0.66917 0.84488 0.9946 0.0
C4459 C 0.67438 0.85035 0.98956 0.0
C4460 C 0.6819 0.85719 0.02144 0.0
C4461 C 0.67531 0.85106 1.00773 0.0
C4462 C 0.68232 0.85755 0.03049 0.0
C4463 C 0.6768 0.85238 0.03553 0.0
C4464 C 0.67594 0.8516 0.01735 0.0
C4465 C 0.67094 0.84688 0.03119 0.0
C4466 C 0.66961 0.84522 1.00365 0.0
C4467 C 0.67999 0.8561 0.9939 0.0
N4468 N 0.67067 0.84663 0.02237 0.0
N4469 N 0.68032 0.8563 1.00271 0.0
H4470 H 0.16865 0.4171 0.7424 0.0
H4471 H 0.1858 0.44655 0.78175 0.0
H4472 H 0.18707 0.43792 0.7395 0.0
H4473 H 0.16853 0.42485 0.78519 0.0
H4474 H 0.18641 0.44334 0.76629 0.0
H4475 H 0.16844 0.4198 0.75805 0.0
C4476 C 0.17263 0.42226 0.74504 0.0
C4477 C 0.17788 0.42729 0.7396 0.0
C4478 C 0.1825 0.43925 0.77042 0.0
C4479 C 0.17771 0.43039 0.75754 0.0
C4480 C 0.1822 0.44105 0.77929 0.0
C4481 C 0.17712 0.43595 0.78484 0.0
C4482 C 0.17768 0.43232 0.767 0.0
C4483 C 0.17245 0.42902 0.78118 0.0
C4484 C 0.17254 0.42376 0.75399 0.0
C4485 C 0.183 0.43381 0.74343 0.0
N4486 N 0.17283 0.42742 0.7725 0.0
N4487 N 0.18276 0.43517 0.75214 0.0
H4488 H 0.60027 0.93581 0.53776 0.0
H4489 H 0.58907 0.92586 0.48794 0.0
H4490 H 0.58111 0.91709 0.52946 0.0
H4491 H 0.60912 0.94363 0.49623 0.0
H4492 H 0.58669 0.92189 0.50307 0.0
H4493 H 0.60423 0.93809 0.52261 0.0
C4494 C 0.59696 0.93209 0.53277 0.0
C4495 C 0.59029 0.92628 0.53492 0.0
C4496 C 0.59165 0.92663 0.50158 0.0
C4497 C 0.59473 0.92897 0.5175 0.0
C4498 C 0.59305 0.92886 0.49292 0.0
C4499 C 0.59927 0.93514 0.49078 0.0
C4500 C 0.59648 0.93072 0.50818 0.0
C4501 C 0.60414 0.93888 0.49756 0.0
C4502 C 0.59919 0.93345 0.5241 0.0
C4503 C 0.58617 0.92175 0.52813 0.0
N4504 N 0.60262 0.93665 0.50594 0.0
N4505 N 0.58842 0.92322 0.51974 0.0
H4506 H 0.08959 0.35012 0.28766 0.0
H4507 H 0.10043 0.33951 0.23806 0.0
H4508 H 0.10914 0.33193 0.27973 0.0
H4509 H 0.08189 0.35871 0.246 0.0
H4510 H 0.10439 0.33733 0.25326 0.0
H4511 H 0.08736 0.35403 0.27248 0.0
C4512 C 0.0935 0.34702 0.28275 0.0
C4513 C 0.09952 0.34063 0.28501 0.0
C4514 C 0.09949 0.34206 0.25168 0.0
C4515 C 0.09689 0.345 0.26755 0.0
C4516 C 0.09726 0.34335 0.24298 0.0
C4517 C 0.09076 0.34926 0.24072 0.0
C4518 C 0.09518 0.34669 0.2582 0.0
C4519 C 0.08682 0.35397 0.24742 0.0
C4520 C 0.09217 0.34922 0.27406 0.0
C4521 C 0.10431 0.33677 0.27831 0.0
N4522 N 0.08905 0.35254 0.25584 0.0
N4523 N 0.10285 0.33897 0.2699 0.0
H4524 H 0.7829 0.66951 0.9135 0.0
H4525 H 0.74292 0.69146 0.9381 0.0
H4526 H 0.78523 0.68347 0.93767 0.0
H4527 H 0.74052 0.67942 0.91293 0.0
H4528 H 0.75827 0.6877 0.93842 0.0
H4529 H 0.76726 0.67231 0.91347 0.0
C4530 C 0.78014 0.67318 0.91879 0.0
C4531 C 0.78543 0.67626 0.9256 0.0
C4532 C 0.7544 0.68585 0.93282 0.0
C4533 C 0.76749 0.6794 0.92565 0.0
C4534 C 0.74562 0.68803 0.93262 0.0
C4535 C 0.74041 0.68583 0.92544 0.0
C4536 C 0.75806 0.68142 0.92579 0.0
C4537 C 0.74426 0.68121 0.91862 0.0
C4538 C 0.7712 0.67473 0.91879 0.0
C4539 C 0.78144 0.68086 0.93235 0.0
N4540 N 0.75285 0.6792 0.91894 0.0
N4541 N 0.77274 0.68229 0.93218 0.0
H4542 H 0.24248 0.58364 0.83585 0.0
H4543 H 0.28241 0.60829 0.85865 0.0
H4544 H 0.23996 0.59841 0.85946 0.0
H4545 H 0.28479 0.59216 0.83594 0.0
H4546 H 0.26677 0.60541 0.85871 0.0
H4547 H 0.25785 0.58745 0.83538 0.0
C4548 C 0.24516 0.58768 0.84095 0.0
C4549 C 0.23991 0.59064 0.84775 0.0
C4550 C 0.27072 0.60253 0.8537 0.0
C4551 C 0.25758 0.5951 0.84721 0.0
C4552 C 0.27967 0.60413 0.85369 0.0
C4553 C 0.28497 0.60046 0.84728 0.0
C4554 C 0.26702 0.5972 0.84728 0.0
C4555 C 0.28098 0.59523 0.84094 0.0
C4556 C 0.25395 0.58988 0.84066 0.0
C4557 C 0.24373 0.59602 0.85407 0.0
N4558 N 0.27228 0.59375 0.84111 0.0
N4559 N 0.25234 0.59804 0.85367 0.0
H4560 H 0.43581 0.99194 0.59182 0.0
H4561 H 0.41345 0.035 0.60967 0.0
H4562 H 0.41536 0.99206 0.61086 0.0
H4563 H 0.43383 0.03492 0.59056 0.0
H4564 H 0.4141 0.01929 0.61022 0.0
H4565 H 0.43523 1.00766 0.59131 0.0
C4566 C 0.43123 0.99527 0.59593 0.0
C4567 C 0.42563 0.99064 0.6014 0.0
C4568 C 0.41843 0.0227 0.6059 0.0
C4569 C 0.42487 1.00869 0.60077 0.0
C4570 C 0.4181 0.03169 0.60562 0.0
C4571 C 0.42361 0.03632 0.60007 0.0
C4572 C 0.42432 0.01826 0.60061 0.0
C4573 C 0.42939 0.03164 0.59486 0.0
C4574 C 0.43086 1.00426 0.59559 0.0
C4575 C 0.41973 0.99533 0.60646 0.0
N4576 N 0.4296 0.02289 0.59527 0.0
N4577 N 0.41952 1.00408 0.60604 0.0
H4578 H 0.98999 0.18567 0.34655 0.0
H4579 H 0.03613 0.16243 0.34218 0.0
H4580 H 0.99349 0.16041 0.33536 0.0
H4581 H 0.03278 0.18716 0.35458 0.0
H4582 H 0.02045 0.16146 0.34002 0.0
H4583 H 1.00552 0.18619 0.35001 0.0
C4584 C 0.994 0.18019 0.3449 0.0
C4585 C 0.99041 0.173 0.3406 0.0
C4586 C 0.02313 0.1671 0.34324 0.0
C4587 C 1.00824 0.17361 0.34445 0.0
C4588 C 0.0321 0.16763 0.34453 0.0
C4589 C 0.03583 0.17489 0.34858 0.0
C4590 C 0.01779 0.17387 0.346 0.0
C4591 C 0.03024 0.18149 0.35132 0.0
C4592 C 1.00288 0.18052 0.34683 0.0
C4593 C 0.99597 0.16615 0.33853 0.0
N4594 N 0.02152 0.18083 0.34997 0.0
N4595 N 1.00458 0.16664 0.34045 0.0
H4596 H 0.43298 0.24197 0.68493 0.0
H4597 H 0.4149 0.28469 0.66212 0.0
H4598 H 0.41389 0.2417 0.66432 0.0
H4599 H 0.4342 0.28489 0.68252 0.0
H4600 H 0.41433 0.26897 0.66291 0.0
H4601 H 0.43341 0.25769 0.68422 0.0
C4602 C 0.42884 0.24521 0.68028 0.0
C4603 C 0.42338 0.24048 0.67469 0.0
C4604 C 0.4187 0.27245 0.66722 0.0
C4605 C 0.42391 0.25853 0.67378 0.0
C4606 C 0.41899 0.28144 0.6668 0.0
C4607 C 0.4246 0.28615 0.67227 0.0
C4608 C 0.42405 0.2681 0.67315 0.0
C4609 C 0.42985 0.28154 0.6781 0.0
C4610 C 0.42913 0.2542 0.67985 0.0
C4611 C 0.41828 0.24506 0.6687 0.0
N4612 N 0.42943 0.2728 0.6784 0.0
N4613 N 0.41866 0.25381 0.66842 0.0
H4614 H 0.86311 0.53389 0.16345 0.0
H4615 H 0.84095 0.4909 0.18195 0.0
H4616 H 0.84314 0.53384 0.183 0.0
H4617 H 0.86089 0.49089 0.16238 0.0
H4618 H 0.84161 0.50662 0.18235 0.0
H4619 H 0.86233 0.51817 0.16289 0.0
C4620 C 0.85852 0.53059 0.16759 0.0
C4621 C 0.85318 0.53523 0.17328 0.0
C4622 C 0.84585 0.50319 0.17797 0.0
C4623 C 0.85232 0.51717 0.17273 0.0
C4624 C 0.84544 0.4942 0.17769 0.0
C4625 C 0.85087 0.48953 0.17211 0.0
C4626 C 0.85172 0.50759 0.17261 0.0
C4627 C 0.85665 0.49419 0.16686 0.0
C4628 C 0.85812 0.52159 0.16731 0.0
C4629 C 0.84747 0.53055 0.17859 0.0
N4630 N 0.85692 0.50295 0.16723 0.0
N4631 N 0.84718 0.5218 0.17818 0.0
H4632 H 0.10848 0.78389 0.8596 0.0
H4633 H 0.08095 0.74471 0.83929 0.0
H4634 H 0.09005 0.78652 0.83859 0.0
H4635 H 0.09911 0.7416 0.86046 0.0
H4636 H 0.0847 0.75996 0.83866 0.0
H4637 H 0.10557 0.76837 0.8598 0.0
C4638 C 0.10381 0.78122 0.85504 0.0
C4639 C 0.0995 0.78656 0.84907 0.0
C4640 C 0.0879 0.75596 0.84343 0.0
C4641 C 0.09619 0.76876 0.84922 0.0
C4642 C 0.08573 0.74724 0.84383 0.0
C4643 C 0.08966 0.74185 0.84999 0.0
C4644 C 0.09405 0.75939 0.84926 0.0
C4645 C 0.09594 0.74548 0.85557 0.0
C4646 C 0.10219 0.77235 0.85513 0.0
C4647 C 0.09362 0.78269 0.84323 0.0
N4648 N 0.0979 0.75404 0.85511 0.0
N4649 N 0.09212 0.77405 0.84348 0.0
H4650 H 0.74773 0.86015 0.08233 0.0
H4651 H 0.78095 0.83205 0.11051 0.0
H4652 H 0.73972 0.84022 0.10007 0.0
H4653 H 0.78893 0.84989 0.09062 0.0
H4654 H 0.76585 0.83607 0.1079 0.0
H4655 H 0.76284 0.85758 0.08641 0.0
C4656 C 0.74914 0.85523 0.08709 0.0
C4657 C 0.74242 0.85034 0.09079 0.0
C4658 C 0.7709 0.83914 0.10414 0.0
C4659 C 0.75976 0.84741 0.09557 0.0
C4660 C 0.77954 0.83682 0.1056 0.0
C4661 C 0.78625 0.84057 0.10072 0.0
C4662 C 0.76892 0.84526 0.09775 0.0
C4663 C 0.78401 0.84686 0.09458 0.0
C4664 C 0.75778 0.8538 0.08945 0.0
C4665 C 0.74465 0.8442 0.09708 0.0
N4666 N 0.77554 0.84896 0.09324 0.0
N4667 N 0.75313 0.84287 0.09923 0.0
H4668 H 0.66474 0.53528 0.36261 0.0
H4669 H 0.68343 0.49228 0.34079 0.0
H4670 H 0.68414 0.53525 0.3425 0.0
H4671 H 0.66378 0.49228 0.36066 0.0
H4672 H 0.68377 0.50801 0.34133 0.0
H4673 H 0.66428 0.51955 0.36199 0.0
C4674 C 0.66887 0.53198 0.35803 0.0
C4675 C 0.67449 0.53663 0.3526 0.0
C4676 C 0.67938 0.50457 0.34558 0.0
C4677 C 0.67405 0.51856 0.35191 0.0
C4678 C 0.67915 0.49558 0.34524 0.0
C4679 C 0.67355 0.49092 0.35068 0.0
C4680 C 0.67398 0.50898 0.35139 0.0
C4681 C 0.66827 0.49558 0.35641 0.0
C4682 C 0.66864 0.52298 0.35771 0.0
C4683 C 0.67979 0.53196 0.34689 0.0
N4684 N 0.66861 0.50433 0.35661 0.0
N4685 N 0.67943 0.5232 0.34669 0.0
H4686 H 0.99006 0.42759 0.61088 0.0
H4687 H 0.03586 0.43634 0.58795 0.0
H4688 H 0.99375 0.44511 0.58952 0.0
H4689 H 0.03268 0.41884 0.60941 0.0
H4690 H 0.02029 0.43909 0.58811 0.0
H4691 H 1.00544 0.42372 0.61008 0.0
C4692 C 0.99408 0.43057 0.60598 0.0
C4693 C 0.9906 0.43674 0.60031 0.0
C4694 C 0.02298 0.43463 0.59277 0.0
C4695 C 1.00824 0.4324 0.5994 0.0
C4696 C 0.03188 0.43301 0.59266 0.0
C4697 C 0.03562 0.42733 0.59867 0.0
C4698 C 0.01771 0.43056 0.59896 0.0
C4699 C 0.03012 0.42334 0.60472 0.0
C4700 C 1.00287 0.42839 0.60556 0.0
C4701 C 0.99616 0.44044 0.59413 0.0
N4702 N 0.02145 0.42503 0.60471 0.0
N4703 N 1.00468 0.43823 0.59387 0.0
H4704 H 0.11159 0.49274 0.43513 0.0
H4705 H 0.0899 0.53435 0.41343 0.0
H4706 H 0.09224 0.49141 0.4148 0.0
H4707 H 0.11033 0.53567 0.43266 0.0
H4708 H 0.09037 0.51863 0.41413 0.0
H4709 H 0.11093 0.50846 0.43461 0.0
C4710 C 0.10717 0.49575 0.43058 0.0
C4711 C 0.10196 0.49072 0.425 0.0
C4712 C 0.09476 0.52236 0.41819 0.0
C4713 C 0.10122 0.50877 0.42432 0.0
C4714 C 0.09445 0.53134 0.41783 0.0
C4715 C 0.10008 0.53637 0.42299 0.0
C4716 C 0.10071 0.51832 0.42378 0.0
C4717 C 0.10594 0.53208 0.42849 0.0
C4718 C 0.10683 0.50473 0.43026 0.0
C4719 C 0.09645 0.49501 0.41916 0.0
N4720 N 0.10609 0.52332 0.42874 0.0
N4721 N 0.09622 0.50376 0.41898 0.0
H4722 H 0.66491 0.7858 0.92574 0.0
H4723 H 0.6869 0.74014 0.93568 0.0
H4724 H 0.68559 0.78201 0.94433 0.0
H4725 H 0.66604 0.74336 0.91718 0.0
H4726 H 0.68683 0.75561 0.93842 0.0
H4727 H 0.66559 0.77047 0.92196 0.0
C4728 C 0.66964 0.78177 0.92898 0.0
C4729 C 0.67515 0.7852 0.93542 0.0
C4730 C 0.68227 0.75295 0.93374 0.0
C4731 C 0.67591 0.76763 0.93117 0.0
C4732 C 0.68235 0.7441 0.93213 0.0
C4733 C 0.67648 0.7404 0.92617 0.0
C4734 C 0.67628 0.75821 0.92938 0.0
C4735 C 0.67062 0.74589 0.9219 0.0
C4736 C 0.66998 0.773 0.92685 0.0
C4737 C 0.68109 0.77964 0.93944 0.0
N4738 N 0.67067 0.75451 0.92359 0.0
N4739 N 0.6813 0.77115 0.93727 0.0
H4740 H 0.3399 0.60114 0.73626 0.0
H4741 H 0.34983 0.59114 0.78624 0.0
H4742 H 0.35883 0.58258 0.74488 0.0
H4743 H 0.33187 0.61065 0.77766 0.0
H4744 H 0.35389 0.58858 0.77116 0.0
H4745 H 0.33754 0.60536 0.75135 0.0
C4746 C 0.34364 0.59802 0.7413 0.0
C4747 C 0.34953 0.59144 0.73927 0.0
C4748 C 0.3491 0.59346 0.77257 0.0
C4749 C 0.34677 0.59617 0.75662 0.0
C4750 C 0.34682 0.59497 0.7812 0.0
C4751 C 0.34045 0.60109 0.78325 0.0
C4752 C 0.34498 0.59807 0.7659 0.0
C4753 C 0.33669 0.60575 0.7764 0.0
C4754 C 0.34225 0.6004 0.74994 0.0
C4755 C 0.35411 0.58756 0.74613 0.0
N4756 N 0.33898 0.60412 0.76805 0.0
N4757 N 0.3526 0.58995 0.75448 0.0
H4758 H 0.91675 0.10073 0.03507 0.0
H4759 H 0.93512 0.08613 0.98875 0.0
H4760 H 0.93317 0.0786 0.03114 0.0
H4761 H 0.91711 0.10708 0.99207 0.0
H4762 H 0.93491 0.0837 1.00438 0.0
H4763 H 0.91712 0.1035 0.01946 0.0
C4764 C 0.92042 0.09644 0.03094 0.0
C4765 C 0.92495 0.08942 0.03447 0.0
C4766 C 0.931 0.08884 1.0017 0.0
C4767 C 0.92546 0.09261 0.01656 0.0
C4768 C 0.93116 0.09026 0.99277 0.0
C4769 C 0.92613 0.09683 0.98906 0.0
C4770 C 0.9258 0.09403 1.00703 0.0
C4771 C 0.92101 0.10188 0.99461 0.0
C4772 C 0.92065 0.09805 0.02202 0.0
C4773 C 0.92969 0.08417 0.02878 0.0
N4774 N 0.92099 0.10039 1.00331 0.0
N4775 N 0.92981 0.08586 0.02014 0.0
H4776 H 0.43458 0.6803 0.23973 0.0
H4777 H 0.4116 0.68501 0.286 0.0
H4778 H 0.40967 0.69232 0.24355 0.0
H4779 H 0.43604 0.67201 0.28231 0.0
H4780 H 0.41063 0.68732 0.27039 0.0
H4781 H 0.43504 0.67673 0.25517 0.0
C4782 C 0.42916 0.68211 0.24379 0.0
C4783 C 0.42209 0.68666 0.24032 0.0
C4784 C 0.4162 0.68394 0.27298 0.0
C4785 C 0.42264 0.68269 0.25806 0.0
C4786 C 0.41673 0.68257 0.28191 0.0
C4787 C 0.42391 0.6783 0.28552 0.0
C4788 C 0.42289 0.68105 0.26756 0.0
C4789 C 0.43044 0.67544 0.27986 0.0
C4790 C 0.42946 0.68012 0.25262 0.0
C4791 C 0.41532 0.68893 0.24595 0.0
N4792 N 0.42977 0.67688 0.27118 0.0
N4793 N 0.41578 0.68695 0.25451 0.0
H4794 H 0.83187 0.18926 0.4936 0.0
H4795 H 0.85664 0.16674 0.53331 0.0
H4796 H 0.84679 0.16595 0.49086 0.0
H4797 H 0.84037 0.18917 0.53587 0.0
H4798 H 0.85376 0.16666 0.51768 0.0
H4799 H 0.83566 0.18971 0.50897 0.0
C4800 C 0.83594 0.18422 0.49624 0.0
C4801 C 0.83894 0.17751 0.49092 0.0
C4802 C 0.85084 0.17161 0.52167 0.0
C4803 C 0.84338 0.17803 0.50859 0.0
C4804 C 0.85245 0.17164 0.53061 0.0
C4805 C 0.84875 0.17797 0.53595 0.0
C4806 C 0.84548 0.17796 0.51802 0.0
C4807 C 0.84348 0.18423 0.53203 0.0
C4808 C 0.83813 0.1845 0.50502 0.0
C4809 C 0.84436 0.17127 0.49468 0.0
N4810 N 0.84199 0.18404 0.52333 0.0
N4811 N 0.84636 0.17165 0.50329 0.0
H4812 H 0.35441 0.68997 0.53419 0.0
H4813 H 0.33864 0.66213 0.4931 0.0
H4814 H 0.34427 0.66406 0.53602 0.0
H4815 H 0.34542 0.6891 0.49175 0.0
H4816 H 0.34195 0.66233 0.50863 0.0
H4817 H 0.35223 0.68943 0.51849 0.0
C4818 C 0.3517 0.68417 0.53131 0.0
C4819 C 0.34948 0.67706 0.53649 0.0
C4820 C 0.34274 0.6682 0.50494 0.0
C4821 C 0.34709 0.67637 0.51844 0.0
C4822 C 0.34092 0.66808 0.49605 0.0
C4823 C 0.34174 0.67562 0.4911 0.0
C4824 C 0.34545 0.67591 0.50893 0.0
C4825 C 0.34459 0.68316 0.49532 0.0
C4826 C 0.3505 0.68386 0.52233 0.0
C4827 C 0.34617 0.66967 0.53232 0.0
N4828 N 0.34633 0.68312 0.50398 0.0
N4829 N 0.34505 0.66952 0.52357 0.0
H4830 H 0.84989 0.09093 0.78644 0.0
H4831 H 0.8397 0.1007 0.73646 0.0
H4832 H 0.83147 0.11 0.77786 0.0
H4833 H 0.85906 0.08256 0.74507 0.0
H4834 H 0.83725 0.10485 0.75155 0.0
H4835 H 0.85399 0.08844 0.77136 0.0
C4836 C 0.84677 0.09467 0.78141 0.0
C4837 C 0.84027 0.10065 0.78346 0.0
C4838 C 0.84207 0.1 0.75014 0.0
C4839 C 0.84485 0.09772 0.7661 0.0
C4840 C 0.84352 0.09766 0.74151 0.0
C4841 C 0.84956 0.09122 0.73947 0.0
C4842 C 0.84668 0.09586 0.75682 0.0
C4843 C 0.85422 0.08744 0.74632 0.0
C4844 C 0.84908 0.09321 0.77278 0.0
C4845 C 0.83639 0.10522 0.77661 0.0
N4846 N 0.85265 0.08978 0.75467 0.0
N4847 N 0.83871 0.10363 0.76825 0.0
H4848 H 0.4121 0.59351 0.98864 0.0
H4849 H 0.43808 0.5956 0.03374 0.0
H4850 H 0.43806 0.60387 0.99123 0.0
H4851 H 0.41116 0.58801 0.03154 0.0
H4852 H 0.43824 0.59861 0.01818 0.0
H4853 H 0.41163 0.59149 1.00433 0.0
C4854 C 0.41768 0.59543 0.9925 0.0
C4855 C 0.42514 0.59886 0.98856 0.0
C4856 C 0.43228 0.59632 0.0211 0.0
C4857 C 0.42468 0.59643 1.00658 0.0
C4858 C 0.4322 0.59457 0.02999 0.0
C4859 C 0.4246 0.59153 0.03397 0.0
C4860 C 0.42473 0.59498 0.01612 0.0
C4861 C 0.41714 0.59043 0.02878 0.0
C4862 C 0.41742 0.59423 1.00147 0.0
C4863 C 0.43222 0.60108 0.99392 0.0
N4864 N 0.41741 0.5921 0.02013 0.0
N4865 N 0.43182 0.5998 1.00264 0.0
H4866 H 0.93639 0.18718 0.28621 0.0
H4867 H 0.9135 0.17728 0.24038 0.0
H4868 H 0.91494 0.16939 0.28317 0.0
H4869 H 0.93471 0.19524 0.24399 0.0
H4870 H 0.91429 0.17372 0.25585 0.0
H4871 H 0.93619 0.18967 0.27061 0.0
C4872 C 0.93168 0.18373 0.28226 0.0
C4873 C 0.92568 0.17805 0.28604 0.0
C4874 C 0.91878 0.17842 0.25324 0.0
C4875 C 0.92535 0.18098 0.26809 0.0
C4876 C 0.91837 0.18042 0.2444 0.0
C4877 C 0.924 0.18662 0.24088 0.0
C4878 C 0.92489 0.18263 0.2586 0.0
C4879 C 0.93013 0.19053 0.24643 0.0
C4880 C 0.93153 0.1852 0.27333 0.0
C4881 C 0.91962 0.1739 0.28057 0.0
N4882 N 0.93039 0.18849 0.25499 0.0
N4883 N 0.91961 0.17545 0.27188 0.0
H4884 H 0.23779 0.84115 0.60124 0.0
H4885 H 0.28766 0.85126 0.59076 0.0
H4886 H 0.24612 0.85987 0.58234 0.0
H4887 H 0.27938 0.83373 0.6108 0.0
H4888 H 0.27251 0.85516 0.58823 0.0
H4889 H 0.25295 0.839 0.60546 0.0
C4890 C 0.24279 0.84489 0.59805 0.0
C4891 C 0.24065 0.85065 0.59137 0.0
C4892 C 0.27401 0.8505 0.59322 0.0
C4893 C 0.25807 0.84813 0.5961 0.0
C4894 C 0.28268 0.84831 0.59471 0.0
C4895 C 0.28483 0.8421 0.60097 0.0
C4896 C 0.2674 0.84645 0.59799 0.0
C4897 C 0.27804 0.83842 0.6058 0.0
C4898 C 0.25146 0.84362 0.60043 0.0
C4899 C 0.24745 0.85524 0.5874 0.0
N4900 N 0.26965 0.84061 0.60417 0.0
N4901 N 0.25583 0.85384 0.58979 0.0
H4902 H 0.5815 0.5325 0.93661 0.0
H4903 H 0.60765 0.49319 0.91554 0.0
H4904 H 0.59821 0.53536 0.91441 0.0
H4905 H 0.59026 0.49068 0.93727 0.0
H4906 H 0.60478 0.50869 0.91528 0.0
H4907 H 0.58522 0.51727 0.93727 0.0
C4908 C 0.58595 0.52992 0.93185 0.0
C4909 C 0.58948 0.53522 0.92539 0.0
C4910 C 0.60162 0.50474 0.92012 0.0
C4911 C 0.59384 0.51772 0.92615 0.0
C4912 C 0.60322 0.49588 0.92024 0.0
C4913 C 0.59919 0.49059 0.92643 0.0
C4914 C 0.59594 0.50837 0.92621 0.0
C4915 C 0.59361 0.49449 0.93245 0.0
C4916 C 0.5881 0.52121 0.93226 0.0
C4917 C 0.59536 0.53153 0.91953 0.0
N4918 N 0.59215 0.50311 0.93217 0.0
N4919 N 0.59732 0.523 0.92002 0.0
H4920 H 0.60543 0.28417 0.83942 0.0
H4921 H 0.58491 0.24508 0.86645 0.0
H4922 H 0.59239 0.28724 0.86395 0.0
H4923 H 0.59636 0.24197 0.84115 0.0
H4924 H 0.58844 0.26042 0.86599 0.0
H4925 H 0.60291 0.26862 0.84024 0.0
C4926 C 0.60202 0.28159 0.84497 0.0
C4927 C 0.59911 0.28707 0.85162 0.0
C4928 C 0.59021 0.25638 0.86055 0.0
C4929 C 0.59628 0.26922 0.85264 0.0
C4930 C 0.58816 0.24762 0.86078 0.0
C4931 C 0.59028 0.24221 0.85379 0.0
C4932 C 0.5944 0.25983 0.85326 0.0
C4933 C 0.59466 0.24586 0.84671 0.0
C4934 C 0.60063 0.2727 0.84546 0.0
C4935 C 0.59486 0.28331 0.85872 0.0
N4936 N 0.59653 0.25444 0.84661 0.0
N4937 N 0.59356 0.27464 0.85902 0.0
H4938 H 0.17445 0.99244 0.33562 0.0
H4939 H 0.17399 0.03496 0.3651 0.0
H4940 H 0.17608 0.99194 0.36359 0.0
H4941 H 0.17832 0.03537 0.33748 0.0
H4942 H 0.17365 0.0192 0.36461 0.0
H4943 H 0.17495 1.00816 0.33611 0.0
C4944 C 0.17498 0.99561 0.34187 0.0
C4945 C 0.17524 0.99079 0.34957 0.0
C4946 C 0.17468 0.02273 0.35865 0.0
C4947 C 0.17564 1.00887 0.35017 0.0
C4948 C 0.17482 0.03173 0.35892 0.0
C4949 C 0.17617 0.0365 0.35132 0.0
C4950 C 0.17582 0.01844 0.35071 0.0
C4951 C 0.17734 0.03196 0.34352 0.0
C4952 C 0.17521 1.0046 0.34214 0.0
C4953 C 0.17572 0.99533 0.35748 0.0
N4954 N 0.1771 0.0232 0.3434 0.0
N4955 N 0.17589 1.00409 0.35757 0.0
H4956 H 0.93483 0.28331 0.16352 0.0
H4957 H 0.91254 0.24173 0.18486 0.0
H4958 H 0.91452 0.28464 0.18266 0.0
H4959 H 0.93226 0.24035 0.16513 0.0
H4960 H 0.91334 0.25744 0.1843 0.0
H4961 H 0.93416 0.26759 0.16419 0.0
C4962 C 0.93026 0.28031 0.1679 0.0
C4963 C 0.92472 0.28533 0.17305 0.0
C4964 C 0.91749 0.25371 0.18009 0.0
C4965 C 0.92387 0.26728 0.17378 0.0
C4966 C 0.91707 0.24472 0.18044 0.0
C4967 C 0.92234 0.23968 0.17504 0.0
C4968 C 0.92325 0.25773 0.17431 0.0
C4969 C 0.928 0.24396 0.16934 0.0
C4970 C 0.92985 0.27132 0.16824 0.0
C4971 C 0.91884 0.28105 0.1785 0.0
N4972 N 0.92831 0.25271 0.16914 0.0
N4973 N 0.91858 0.27229 0.17873 0.0
H4974 H 0.28619 0.18437 0.91055 0.0
H4975 H 0.23969 0.1796 0.93318 0.0
H4976 H 0.28228 0.1712 0.93485 0.0
H4977 H 0.2438 0.19221 0.90863 0.0
H4978 H 0.25512 0.17589 0.93366 0.0
H4979 H 0.27058 0.18677 0.90951 0.0
C4980 C 0.28205 0.1819 0.91563 0.0
C4981 C 0.2856 0.17757 0.9228 0.0
C4982 C 0.25263 0.17944 0.92815 0.0
C4983 C 0.26764 0.18042 0.9217 0.0
C4984 C 0.24381 0.18151 0.92785 0.0
C4985 C 0.24043 0.18627 0.92087 0.0
C4986 C 0.25814 0.18213 0.92143 0.0
C4987 C 0.24612 0.18866 0.9142 0.0
C4988 C 0.27312 0.18333 0.91506 0.0
C4989 C 0.27988 0.17468 0.92926 0.0
N4990 N 0.25468 0.18659 0.91466 0.0
N4991 N 0.2712 0.17617 0.92857 0.0
H4992 H 0.36158 0.49164 0.66248 0.0
H4993 H 0.34266 0.53476 0.68385 0.0
H4994 H 0.34162 0.4918 0.68203 0.0
H4995 H 0.36264 0.53465 0.66433 0.0
H4996 H 0.34223 0.51904 0.6833 0.0
H4997 H 0.3621 0.50737 0.6631 0.0
C4998 C 0.35734 0.49497 0.66694 0.0
C4999 C 0.35155 0.49036 0.67221 0.0
C5000 C 0.34671 0.52245 0.67913 0.0
C5001 C 0.35206 0.50843 0.67289 0.0
C5002 C 0.34699 0.53144 0.67948 0.0
C5003 C 0.35271 0.53607 0.67414 0.0
C5004 C 0.35218 0.518 0.67341 0.0
C5005 C 0.35806 0.53138 0.66849 0.0
C5006 C 0.35761 0.50397 0.66725 0.0
C5007 C 0.34611 0.49506 0.67776 0.0
N5008 N 0.35767 0.52262 0.66829 0.0
N5009 N 0.34651 0.50382 0.67796 0.0
H5010 H 0.0321 0.59116 0.41617 0.0
H5011 H 0.99485 0.60161 0.45069 0.0
H5012 H 0.0364 0.59304 0.44379 0.0
H5013 H 0.98987 0.59905 0.42322 0.0
H5014 H 1.01025 0.59932 0.44806 0.0
H5015 H 0.01682 0.5949 0.41839 0.0
C5016 C 0.02986 0.59244 0.42269 0.0
C5017 C 0.03554 0.59173 0.42981 0.0
C5018 C 1.00581 0.59929 0.44259 0.0
C5019 C 0.01804 0.59593 0.43241 0.0
C5020 C 0.997 0.60066 0.44408 0.0
C5021 C 0.99102 0.60056 0.43716 0.0
C5022 C 1.00873 0.59776 0.43411 0.0
C5023 C 0.99421 0.5991 0.42876 0.0
C5024 C 0.02112 0.59452 0.42396 0.0
C5025 C 0.03224 0.59337 0.43812 0.0
N5026 N 1.00284 0.59775 0.42747 0.0
N5027 N 0.02373 0.59537 0.43918 0.0
H5028 H 0.93551 0.49301 0.61165 0.0
H5029 H 0.91382 0.53444 0.58959 0.0
H5030 H 0.91523 0.49151 0.59227 0.0
H5031 H 0.93346 0.5359 0.60963 0.0
H5032 H 0.91446 0.51873 0.59024 0.0
H5033 H 0.93506 0.50872 0.61078 0.0
C5034 C 0.93099 0.49597 0.60717 0.0
C5035 C 0.9254 0.4909 0.60202 0.0
C5036 C 0.91863 0.52248 0.5945 0.0
C5037 C 0.92479 0.50894 0.60104 0.0
C5038 C 0.91831 0.53147 0.5941 0.0
C5039 C 0.92359 0.53653 0.59957 0.0
C5040 C 0.9243 0.51849 0.6004 0.0
C5041 C 0.92918 0.53228 0.60537 0.0
C5042 C 0.9307 0.50496 0.60671 0.0
C5043 C 0.91959 0.49514 0.59644 0.0
N5044 N 0.92939 0.52353 0.60562 0.0
N5045 N 0.91945 0.50389 0.59609 0.0
H5046 H 0.34125 0.23888 0.10077 0.0
H5047 H 0.35131 0.28827 0.0898 0.0
H5048 H 0.36014 0.24701 0.08185 0.0
H5049 H 0.33376 0.28017 0.10997 0.0
H5050 H 0.3553 0.27324 0.08743 0.0
H5051 H 0.33909 0.25394 0.10486 0.0
C5052 C 0.34503 0.24381 0.09754 0.0
C5053 C 0.35084 0.24165 0.0909 0.0
C5054 C 0.35061 0.27475 0.09241 0.0
C5055 C 0.34829 0.25896 0.09547 0.0
C5056 C 0.34837 0.28336 0.09382 0.0
C5057 C 0.34213 0.28552 0.10006 0.0
C5058 C 0.34658 0.26822 0.09726 0.0
C5059 C 0.33847 0.27882 0.10497 0.0
C5060 C 0.34375 0.25243 0.09985 0.0
C5061 C 0.35546 0.24836 0.08689 0.0
N5062 N 0.34071 0.27049 0.10343 0.0
N5063 N 0.35405 0.2567 0.0892 0.0
H5064 H 0.68837 0.44434 0.28242 0.0
H5065 H 0.66633 0.41822 0.24307 0.0
H5066 H 0.66563 0.42828 0.28542 0.0
H5067 H 0.68833 0.4353 0.24029 0.0
H5068 H 0.66628 0.42125 0.25866 0.0
H5069 H 0.68883 0.44045 0.2671 0.0
C5070 C 0.68346 0.44 0.27985 0.0
C5071 C 0.6769 0.4367 0.28522 0.0
C5072 C 0.67113 0.42431 0.25464 0.0
C5073 C 0.67744 0.43214 0.26761 0.0
C5074 C 0.67113 0.42262 0.24572 0.0
C5075 C 0.67734 0.42651 0.24032 0.0
C5076 C 0.67737 0.42995 0.25821 0.0
C5077 C 0.68349 0.43206 0.24418 0.0
C5078 C 0.68375 0.43774 0.27109 0.0
C5079 C 0.67083 0.43094 0.28155 0.0
N5080 N 0.68333 0.43362 0.25285 0.0
N5081 N 0.67122 0.42888 0.27297 0.0
H5082 H 0.10161 0.93571 0.03708 0.0
H5083 H 0.09106 0.92551 0.9872 0.0
H5084 H 0.08312 0.9164 0.02863 0.0
H5085 H 0.11072 0.94366 0.99564 0.0
H5086 H 0.08873 0.92142 1.0023 0.0
H5087 H 0.1057 0.93805 0.02197 0.0
C5088 C 0.09848 0.93188 0.03207 0.0
C5089 C 0.09195 0.92589 0.03416 0.0
C5090 C 0.0936 0.92626 1.00085 0.0
C5091 C 0.09652 0.92864 0.01679 0.0
C5092 C 0.09498 0.92856 0.99221 0.0
C5093 C 0.10106 0.93499 0.99012 0.0
C5094 C 0.09831 0.93043 1.00749 0.0
C5095 C 0.10584 0.93879 0.99693 0.0
C5096 C 0.10078 0.93326 0.02343 0.0
C5097 C 0.08806 0.9212 0.02734 0.0
N5098 N 0.10433 0.93649 1.00529 0.0
N5099 N 0.09037 0.92271 0.01898 0.0
H5100 H 0.60167 0.3256 0.781 0.0
H5101 H 0.59028 0.3597 0.74377 0.0
H5102 H 0.59805 0.35271 0.78606 0.0
H5103 H 0.59326 0.33241 0.73936 0.0
H5104 H 0.59398 0.35753 0.75908 0.0
H5105 H 0.59945 0.32824 0.76559 0.0
C5106 C 0.60051 0.33214 0.77887 0.0
C5107 C 0.60009 0.33895 0.78488 0.0
C5108 C 0.59385 0.35203 0.75475 0.0
C5109 C 0.59737 0.342 0.76714 0.0
C5110 C 0.5918 0.35327 0.746 0.0
C5111 C 0.59141 0.34622 0.74027 0.0
C5112 C 0.59556 0.34368 0.75781 0.0
C5113 C 0.59334 0.33802 0.74355 0.0
C5114 C 0.59917 0.33363 0.77005 0.0
C5115 C 0.59835 0.34725 0.7817 0.0
N5116 N 0.59531 0.33698 0.75209 0.0
N5117 N 0.59705 0.34854 0.77305 0.0
H5118 H 0.18402 0.84054 0.4909 0.0
H5119 H 0.16583 0.86296 0.53401 0.0
H5120 H 0.16507 0.86093 0.49076 0.0
H5121 H 0.18489 0.84268 0.53417 0.0
H5122 H 0.16538 0.86223 0.51818 0.0
H5123 H 0.18435 0.84114 0.50674 0.0
C5124 C 0.17989 0.84512 0.49419 0.0
C5125 C 0.1745 0.85069 0.48945 0.0
C5126 C 0.16966 0.85794 0.52168 0.0
C5127 C 0.17491 0.85147 0.50764 0.0
C5128 C 0.16989 0.85831 0.53073 0.0
C5129 C 0.1754 0.85287 0.53546 0.0
C5130 C 0.17498 0.85205 0.51728 0.0
C5131 C 0.18062 0.84708 0.53082 0.0
C5132 C 0.18012 0.84549 0.50324 0.0
C5133 C 0.1694 0.85658 0.4941 0.0
N5134 N 0.18027 0.84682 0.522 0.0
N5135 N 0.16973 0.85681 0.50292 0.0
H5136 H 0.68523 0.36425 0.5336 0.0
H5137 H 0.6632 0.34231 0.49173 0.0
H5138 H 0.66491 0.34506 0.53496 0.0
H5139 H 0.68274 0.36228 0.49039 0.0
H5140 H 0.66388 0.34307 0.50755 0.0
H5141 H 0.68455 0.36347 0.51778 0.0
C5142 C 0.68065 0.35984 0.53058 0.0
C5143 C 0.67512 0.3547 0.53564 0.0
C5144 C 0.66802 0.34729 0.5038 0.0
C5145 C 0.67427 0.35382 0.51748 0.0
C5146 C 0.66767 0.34683 0.49476 0.0
C5147 C 0.67293 0.35224 0.48969 0.0
C5148 C 0.67369 0.35319 0.50786 0.0
C5149 C 0.67849 0.35806 0.494 0.0
C5150 C 0.68023 0.35943 0.52153 0.0
C5151 C 0.66922 0.34921 0.53134 0.0
N5152 N 0.67874 0.35836 0.50282 0.0
N5153 N 0.66897 0.3489 0.52252 0.0
H5154 H 0.18857 0.92074 0.24247 0.0
H5155 H 0.16045 0.93994 0.28156 0.0
H5156 H 0.16326 0.93218 0.23924 0.0
H5157 H 0.18646 0.93019 0.28484 0.0
H5158 H 0.16105 0.93623 0.26619 0.0
H5159 H 0.18764 0.92334 0.25809 0.0
C5160 C 0.18282 0.92381 0.24503 0.0
C5161 C 0.17599 0.92626 0.23949 0.0
C5162 C 0.16662 0.93487 0.27026 0.0
C5163 C 0.17486 0.92917 0.25742 0.0
C5164 C 0.1663 0.93702 0.27905 0.0
C5165 C 0.17344 0.93545 0.28451 0.0
C5166 C 0.17416 0.93111 0.26685 0.0
C5167 C 0.18077 0.93147 0.2809 0.0
C5168 C 0.18228 0.92525 0.25397 0.0
C5169 C 0.16865 0.93008 0.24323 0.0
N5170 N 0.18096 0.92949 0.27229 0.0
N5171 N 0.16829 0.93144 0.25194 0.0
H5172 H 0.61064 0.44424 0.99632 0.0
H5173 H 0.58278 0.4155 0.02919 0.0
H5174 H 0.59087 0.42611 0.98813 0.0
H5175 H 0.60034 0.43574 0.03737 0.0
H5176 H 0.58683 0.41819 0.01414 0.0
H5177 H 0.6081 0.4401 1.01137 0.0
C5178 C 0.60577 0.43938 0.99767 0.0
C5179 C 0.6009 0.43558 0.99092 0.0
C5180 C 0.58983 0.42201 0.01923 0.0
C5181 C 0.59802 0.43075 1.00819 0.0
C5182 C 0.5875 0.42051 0.02783 0.0
C5183 C 0.59115 0.42545 0.03458 0.0
C5184 C 0.59589 0.42852 0.01732 0.0
C5185 C 0.59738 0.43172 0.03242 0.0
C5186 C 0.60435 0.43699 1.00628 0.0
C5187 C 0.59482 0.42917 0.99309 0.0
N5188 N 0.59951 0.43311 0.02398 0.0
N5189 N 0.59352 0.427 1.00153 0.0
H5190 H 0.10105 0.84093 0.73793 0.0
H5191 H 0.09064 0.85125 0.78768 0.0
H5192 H 0.08272 0.86023 0.74614 0.0
H5193 H 0.11021 0.8332 0.77947 0.0
H5194 H 0.0883 0.85528 0.77254 0.0
H5195 H 0.10514 0.83866 0.75308 0.0
C5196 C 0.09796 0.84478 0.74289 0.0
C5197 C 0.09147 0.85074 0.74072 0.0
C5198 C 0.09315 0.85047 0.77405 0.0
C5199 C 0.09605 0.84807 0.75815 0.0
C5200 C 0.09453 0.84821 0.78272 0.0
C5201 C 0.10059 0.84182 0.78488 0.0
C5202 C 0.09784 0.84632 0.76747 0.0
C5203 C 0.10535 0.83803 0.77812 0.0
C5204 C 0.10026 0.84344 0.75156 0.0
C5205 C 0.08763 0.85544 0.74749 0.0
N5206 N 0.10384 0.8403 0.76974 0.0
N5207 N 0.08993 0.85397 0.75588 0.0
H5208 H 0.74269 0.19037 0.4082 0.0
H5209 H 0.78181 0.17132 0.43667 0.0
H5210 H 0.73947 0.18067 0.43419 0.0
H5211 H 0.78508 0.18281 0.41143 0.0
H5212 H 0.76618 0.17385 0.43558 0.0
H5213 H 0.75808 0.1867 0.40892 0.0
C5214 C 0.74522 0.18746 0.41407 0.0
C5215 C 0.73977 0.18589 0.42117 0.0
C5216 C 0.77032 0.17579 0.43027 0.0
C5217 C 0.75743 0.18161 0.42202 0.0
C5218 C 0.77926 0.17439 0.4309 0.0
C5219 C 0.78482 0.17688 0.42414 0.0
C5220 C 0.76687 0.17971 0.42281 0.0
C5221 C 0.78108 0.18069 0.41676 0.0
C5222 C 0.75401 0.18534 0.41446 0.0
C5223 C 0.74339 0.18195 0.42853 0.0
N5224 N 0.77236 0.18201 0.41632 0.0
N5225 N 0.752 0.17999 0.42879 0.0
H5226 H 0.43564 0.4931 0.11126 0.0
H5227 H 0.41388 0.53458 0.08936 0.0
H5228 H 0.41523 0.49162 0.09201 0.0
H5229 H 0.43354 0.53599 0.10938 0.0
H5230 H 0.41451 0.51886 0.08999 0.0
H5231 H 0.43518 0.5088 0.11042 0.0
C5232 C 0.43109 0.49607 0.10682 0.0
C5233 C 0.42547 0.491 0.10169 0.0
C5234 C 0.41869 0.5226 0.09425 0.0
C5235 C 0.42486 0.50904 0.10075 0.0
C5236 C 0.41837 0.53159 0.09386 0.0
C5237 C 0.42367 0.53664 0.09933 0.0
C5238 C 0.42436 0.5186 0.10013 0.0
C5239 C 0.42926 0.53238 0.10512 0.0
C5240 C 0.4308 0.50505 0.10638 0.0
C5241 C 0.41962 0.49525 0.09616 0.0
N5242 N 0.42946 0.52362 0.10535 0.0
N5243 N 0.41947 0.50401 0.09583 0.0
H5244 H 0.43412 0.74197 0.18504 0.0
H5245 H 0.41654 0.78501 0.16245 0.0
H5246 H 0.41524 0.74202 0.16424 0.0
H5247 H 0.43559 0.78492 0.18308 0.0
H5248 H 0.4159 0.76929 0.16306 0.0
H5249 H 0.43467 0.75769 0.18448 0.0
C5250 C 0.43005 0.74528 0.18038 0.0
C5251 C 0.42461 0.74064 0.17469 0.0
C5252 C 0.42023 0.7727 0.16746 0.0
C5253 C 0.42528 0.75869 0.17395 0.0
C5254 C 0.42056 0.78169 0.16714 0.0
C5255 C 0.42612 0.78632 0.17273 0.0
C5256 C 0.42548 0.76826 0.17341 0.0
C5257 C 0.43128 0.78164 0.17858 0.0
C5258 C 0.43041 0.75427 0.18003 0.0
C5259 C 0.41961 0.7453 0.16869 0.0
N5260 N 0.43083 0.77289 0.17877 0.0
N5261 N 0.42005 0.75406 0.16849 0.0
H5262 H 0.84113 0.99204 0.66271 0.0
H5263 H 0.86232 0.03407 0.68476 0.0
H5264 H 0.86086 0.99111 0.68267 0.0
H5265 H 0.84326 0.03502 0.66416 0.0
H5266 H 0.86169 0.01835 0.68426 0.0
H5267 H 0.84163 1.00777 0.66332 0.0
C5268 C 0.84554 0.99513 0.66726 0.0
C5269 C 0.85096 0.99021 0.67265 0.0
C5270 C 0.85764 0.02199 0.67984 0.0
C5271 C 0.85162 1.00828 0.67333 0.0
C5272 C 0.85796 0.03098 0.68016 0.0
C5273 C 0.85283 0.03591 0.6745 0.0
C5274 C 0.85213 0.01785 0.67384 0.0
C5275 C 0.84741 0.03151 0.66858 0.0
C5276 C 0.84586 1.00413 0.66756 0.0
C5277 C 0.85664 0.99462 0.67831 0.0
N5278 N 0.8472 0.02275 0.66842 0.0
N5279 N 0.85681 1.00338 0.67851 0.0
H5280 H 0.53688 0.93341 0.61419 0.0
H5281 H 0.49029 0.9296 0.59104 0.0
H5282 H 0.53281 0.92089 0.58945 0.0
H5283 H 0.49453 0.94139 0.6161 0.0
H5284 H 0.50569 0.92581 0.59055 0.0
H5285 H 0.52129 0.93589 0.61519 0.0
C5286 C 0.53271 0.93111 0.609 0.0
C5287 C 0.53621 0.92693 0.60172 0.0
C5288 C 0.50324 0.9292 0.59617 0.0
C5289 C 0.51827 0.92988 0.60277 0.0
C5290 C 0.49443 0.93132 0.59648 0.0
C5291 C 0.4911 0.93587 0.6036 0.0
C5292 C 0.50878 0.93164 0.60303 0.0
C5293 C 0.49682 0.93801 0.61041 0.0
C5294 C 0.52379 0.93258 0.60955 0.0
C5295 C 0.53045 0.92424 0.59513 0.0
N5296 N 0.50536 0.93591 0.60994 0.0
N5297 N 0.52178 0.92577 0.5958 0.0
H5298 H 0.53594 0.34027 0.68708 0.0
H5299 H 0.49002 0.34937 0.66423 0.0
H5300 H 0.53275 0.35811 0.66589 0.0
H5301 H 0.49368 0.33179 0.68555 0.0
H5302 H 0.50546 0.3532 0.66507 0.0
H5303 H 0.52033 0.33758 0.68691 0.0
C5304 C 0.53195 0.34369 0.68243 0.0
C5305 C 0.5357 0.34944 0.6765 0.0
C5306 C 0.50287 0.34852 0.66957 0.0
C5307 C 0.51774 0.34628 0.67618 0.0
C5308 C 0.49404 0.34637 0.66913 0.0
C5309 C 0.49054 0.34019 0.67478 0.0
C5310 C 0.50824 0.34448 0.67572 0.0
C5311 C 0.4961 0.33646 0.68095 0.0
C5312 C 0.52303 0.34211 0.6823 0.0
C5313 C 0.53018 0.35354 0.67052 0.0
N5314 N 0.50466 0.33864 0.68124 0.0
N5315 N 0.52149 0.35188 0.67051 0.0
H5316 H 0.18679 0.24033 0.93577 0.0
H5317 H 0.16387 0.28567 0.92645 0.0
H5318 H 0.16517 0.24321 0.9181 0.0
H5319 H 0.18535 0.28226 0.94418 0.0
H5320 H 0.16459 0.27033 0.92273 0.0
H5321 H 0.18665 0.25582 0.93842 0.0
C5322 C 0.18205 0.24422 0.93238 0.0
C5323 C 0.17599 0.24043 0.92668 0.0
C5324 C 0.16915 0.27295 0.92742 0.0
C5325 C 0.17573 0.25825 0.92979 0.0
C5326 C 0.16878 0.28172 0.9295 0.0
C5327 C 0.17452 0.28527 0.93569 0.0
C5328 C 0.17532 0.26767 0.93153 0.0
C5329 C 0.18069 0.2798 0.9395 0.0
C5330 C 0.18195 0.25308 0.93394 0.0
C5331 C 0.16991 0.24582 0.92262 0.0
N5332 N 0.18091 0.2713 0.93738 0.0
N5333 N 0.16993 0.25445 0.92425 0.0
H5334 H 0.23942 0.93975 0.17805 0.0
H5335 H 0.28843 0.92261 0.17986 0.0
H5336 H 0.24669 0.91543 0.18939 0.0
H5337 H 0.28126 0.94803 0.17115 0.0
H5338 H 0.27309 0.91936 0.18232 0.0
H5339 H 0.25458 0.94227 0.17419 0.0
C5340 C 0.24418 0.93488 0.17964 0.0
C5341 C 0.24176 0.92737 0.18408 0.0
C5342 C 0.27488 0.92563 0.17983 0.0
C5343 C 0.2592 0.93028 0.17977 0.0
C5344 C 0.28365 0.92752 0.17846 0.0
C5345 C 0.28619 0.93563 0.17531 0.0
C5346 C 0.26856 0.93189 0.17803 0.0
C5347 C 0.27965 0.94165 0.17348 0.0
C5348 C 0.25286 0.93636 0.17749 0.0
C5349 C 0.24827 0.92137 0.18608 0.0
N5350 N 0.27116 0.93967 0.17489 0.0
N5351 N 0.25668 0.92296 0.18393 0.0
H5352 H 0.24738 0.41552 0.69234 0.0
H5353 H 0.2807 0.44401 0.66469 0.0
H5354 H 0.23948 0.43578 0.67491 0.0
H5355 H 0.28864 0.42594 0.68439 0.0
H5356 H 0.26558 0.43994 0.66718 0.0
H5357 H 0.26249 0.41812 0.68832 0.0
C5358 C 0.24881 0.42051 0.68765 0.0
C5359 C 0.24212 0.42549 0.68403 0.0
C5360 C 0.27063 0.43683 0.67092 0.0
C5361 C 0.25946 0.42845 0.67933 0.0
C5362 C 0.27928 0.43918 0.66953 0.0
C5363 C 0.28598 0.43538 0.67439 0.0
C5364 C 0.26863 0.43062 0.67722 0.0
C5365 C 0.28372 0.42901 0.68044 0.0
C5366 C 0.25745 0.42197 0.68533 0.0
C5367 C 0.24439 0.43173 0.67784 0.0
N5368 N 0.27524 0.42688 0.68172 0.0
N5369 N 0.25286 0.43307 0.67574 0.0
H5370 H 0.49269 0.84426 0.18815 0.0
H5371 H 0.53739 0.844 0.16189 0.0
H5372 H 0.49439 0.8384 0.16084 0.0
H5373 H 0.5352 0.85312 0.18827 0.0
H5374 H 0.52168 0.84192 0.16138 0.0
H5375 H 0.50826 0.84744 0.18837 0.0
C5376 C 0.49634 0.84365 0.18219 0.0
C5377 C 0.49222 0.84104 0.17447 0.0
C5378 C 0.52463 0.8444 0.16727 0.0
C5379 C 0.51008 0.84468 0.17466 0.0
C5380 C 0.53362 0.84564 0.16756 0.0
C5381 C 0.53768 0.84873 0.17514 0.0
C5382 C 0.51962 0.84622 0.17463 0.0
C5383 C 0.53241 0.85059 0.18232 0.0
C5384 C 0.50523 0.8455 0.18231 0.0
C5385 C 0.49726 0.84047 0.16692 0.0
N5386 N 0.52368 0.84928 0.1819 0.0
N5387 N 0.50592 0.84222 0.16722 0.0
H5388 H 0.52939 0.08269 0.41476 0.0
H5389 H 0.4963 0.11007 0.44362 0.0
H5390 H 0.53745 0.09981 0.43544 0.0
H5391 H 0.4882 0.0908 0.42499 0.0
H5392 H 0.5114 0.10754 0.43962 0.0
H5393 H 0.51431 0.08674 0.41733 0.0
C5394 C 0.528 0.08731 0.41984 0.0
C5395 C 0.53473 0.09085 0.42494 0.0
C5396 C 0.50632 0.1039 0.43637 0.0
C5397 C 0.51742 0.09557 0.42787 0.0
C5398 C 0.49768 0.10531 0.43868 0.0
C5399 C 0.49094 0.10058 0.4347 0.0
C5400 C 0.50827 0.09771 0.43002 0.0
C5401 C 0.49315 0.09464 0.4282 0.0
C5402 C 0.51938 0.08965 0.42128 0.0
C5403 C 0.53251 0.09695 0.4313 0.0
N5404 N 0.50162 0.09333 0.42611 0.0
N5405 N 0.52406 0.09907 0.43261 0.0
H5406 H 0.5367 0.66271 0.34199 0.0
H5407 H 0.49043 0.68564 0.34659 0.0
H5408 H 0.5331 0.68703 0.35511 0.0
H5409 H 0.49425 0.66114 0.33391 0.0
H5410 H 0.50588 0.68601 0.35037 0.0
H5411 H 0.52107 0.66179 0.33953 0.0
C5412 C 0.53263 0.66783 0.34443 0.0
C5413 C 0.53627 0.67496 0.34877 0.0
C5414 C 0.50333 0.68054 0.34679 0.0
C5415 C 0.51828 0.674 0.34585 0.0
C5416 C 0.49449 0.6803 0.34467 0.0
C5417 C 0.49102 0.67337 0.33987 0.0
C5418 C 0.50877 0.6738 0.3441 0.0
C5419 C 0.49665 0.66668 0.33749 0.0
C5420 C 0.52368 0.66732 0.34297 0.0
C5421 C 0.53063 0.68146 0.35164 0.0
N5422 N 0.50522 0.66708 0.3396 0.0
N5423 N 0.52193 0.68083 0.35012 0.0
H5424 H 0.84008 0.7829 0.10612 0.0
H5425 H 0.86766 0.74422 0.08571 0.0
H5426 H 0.86484 0.78627 0.09353 0.0
H5427 H 0.84215 0.74081 0.09668 0.0
H5428 H 0.86709 0.75951 0.0894 0.0
H5429 H 0.84102 0.76739 0.1035 0.0
C5430 C 0.84571 0.7804 0.10279 0.0
C5431 C 0.85238 0.78595 0.10003 0.0
C5432 C 0.86162 0.75542 0.09103 0.0
C5433 C 0.85354 0.76813 0.09709 0.0
C5434 C 0.86193 0.74668 0.08889 0.0
C5435 C 0.85492 0.74121 0.09082 0.0
C5436 C 0.85424 0.75877 0.09513 0.0
C5437 C 0.84774 0.74476 0.09512 0.0
C5438 C 0.84626 0.77152 0.10134 0.0
C5439 C 0.85958 0.78227 0.09588 0.0
N5440 N 0.84757 0.75331 0.09708 0.0
N5441 N 0.85995 0.77362 0.09452 0.0
H5442 H 0.7858 0.09432 0.86235 0.0
H5443 H 0.73936 0.09745 0.83888 0.0
H5444 H 0.78196 0.10629 0.83739 0.0
H5445 H 0.74344 0.0861 0.86408 0.0
H5446 H 0.75478 0.10133 0.83842 0.0
H5447 H 0.77019 0.0918 0.86328 0.0
C5448 C 0.78168 0.0965 0.85709 0.0
C5449 C 0.78525 0.10053 0.84978 0.0
C5450 C 0.75229 0.09802 0.84407 0.0
C5451 C 0.76729 0.09753 0.85075 0.0
C5452 C 0.74347 0.09585 0.84436 0.0
C5453 C 0.74009 0.09139 0.85151 0.0
C5454 C 0.75779 0.09572 0.85098 0.0
C5455 C 0.74577 0.0894 0.85837 0.0
C5456 C 0.77275 0.095 0.85761 0.0
C5457 C 0.77955 0.10306 0.8431 0.0
N5458 N 0.75432 0.09155 0.85792 0.0
N5459 N 0.77087 0.1015 0.84375 0.0
H5460 H 0.78231 0.60947 0.35898 0.0
H5461 H 0.74247 0.58438 0.33652 0.0
H5462 H 0.78467 0.59328 0.33631 0.0
H5463 H 0.73997 0.59911 0.36015 0.0
H5464 H 0.75778 0.58838 0.33592 0.0
H5465 H 0.76669 0.60646 0.35916 0.0
C5466 C 0.77956 0.60527 0.35405 0.0
C5467 C 0.78485 0.60162 0.34762 0.0
C5468 C 0.7539 0.59076 0.34123 0.0
C5469 C 0.76693 0.59822 0.34775 0.0
C5470 C 0.74514 0.58845 0.3416 0.0
C5471 C 0.73992 0.59134 0.34844 0.0
C5472 C 0.75752 0.59602 0.34776 0.0
C5473 C 0.74372 0.59676 0.35473 0.0
C5474 C 0.77063 0.6036 0.35413 0.0
C5475 C 0.78087 0.59634 0.34132 0.0
N5476 N 0.7523 0.59888 0.35426 0.0
N5477 N 0.77218 0.59479 0.34156 0.0
H5478 H 0.5332 0.18771 0.85447 0.0
H5479 H 0.4939 0.16087 0.83312 0.0
H5480 H 0.53642 0.16384 0.84043 0.0
H5481 H 0.4906 0.18555 0.84561 0.0
H5482 H 0.50938 0.16149 0.83654 0.0
H5483 H 0.51753 0.18673 0.85199 0.0
C5484 C 0.53063 0.18227 0.85085 0.0
C5485 C 0.53619 0.17586 0.84764 0.0
C5486 C 0.50528 0.16677 0.83856 0.0
C5487 C 0.51819 0.17465 0.84487 0.0
C5488 C 0.49643 0.16643 0.83658 0.0
C5489 C 0.49092 0.1732 0.83902 0.0
C5490 C 0.50871 0.17393 0.84303 0.0
C5491 C 0.49457 0.18015 0.84365 0.0
C5492 C 0.52166 0.18169 0.84948 0.0
C5493 C 0.53243 0.16889 0.84313 0.0
N5494 N 0.50323 0.18036 0.84546 0.0
N5495 N 0.52369 0.16849 0.84186 0.0
H5496 H 0.49014 0.42784 0.11057 0.0
H5497 H 0.53603 0.43649 0.08778 0.0
H5498 H 0.49395 0.44538 0.08925 0.0
H5499 H 0.53272 0.41887 0.10912 0.0
H5500 H 0.52048 0.43933 0.08793 0.0
H5501 H 0.50552 0.42392 0.1098 0.0
C5502 C 0.49418 0.43081 0.10568 0.0
C5503 C 0.49074 0.437 0.10001 0.0
C5504 C 0.52314 0.43482 0.09257 0.0
C5505 C 0.50838 0.43261 0.09915 0.0
C5506 C 0.53203 0.43315 0.09245 0.0
C5507 C 0.53572 0.42741 0.09844 0.0
C5508 C 0.51783 0.43074 0.09872 0.0
C5509 C 0.53019 0.42342 0.10445 0.0
C5510 C 0.50298 0.42861 0.10528 0.0
C5511 C 0.49633 0.4407 0.09386 0.0
N5512 N 0.52153 0.42516 0.10444 0.0
N5513 N 0.50484 0.43847 0.09362 0.0
H5514 H 0.15863 0.78254 0.43943 0.0
H5515 H 0.18629 0.74358 0.41968 0.0
H5516 H 0.18432 0.78573 0.4288 0.0
H5517 H 0.16142 0.74039 0.43209 0.0
H5518 H 0.18536 0.75912 0.42213 0.0
H5519 H 0.15917 0.76723 0.43586 0.0
C5520 C 0.1644 0.78002 0.43634 0.0
C5521 C 0.17147 0.78545 0.43448 0.0
C5522 C 0.18009 0.75502 0.42428 0.0
C5523 C 0.17211 0.76785 0.4303 0.0
C5524 C 0.18064 0.74613 0.42294 0.0
C5525 C 0.17394 0.74062 0.42571 0.0
C5526 C 0.17279 0.75847 0.42844 0.0
C5527 C 0.1667 0.74435 0.42974 0.0
C5528 C 0.16468 0.77127 0.43427 0.0
C5529 C 0.17868 0.78182 0.43031 0.0
N5530 N 0.16634 0.75302 0.43101 0.0
N5531 N 0.17884 0.77326 0.42841 0.0
H5532 H 0.5369 0.61397 0.93232 0.0
H5533 H 0.49023 0.59132 0.92746 0.0
H5534 H 0.53281 0.58977 0.91901 0.0
H5535 H 0.49455 0.61568 0.94039 0.0
H5536 H 0.50565 0.59089 0.92371 0.0
H5537 H 0.5213 0.61494 0.93479 0.0
C5538 C 0.53273 0.60889 0.92984 0.0
C5539 C 0.53622 0.60177 0.92544 0.0
C5540 C 0.50322 0.59635 0.92734 0.0
C5541 C 0.51828 0.60279 0.92837 0.0
C5542 C 0.49439 0.59663 0.92944 0.0
C5543 C 0.49108 0.60353 0.93429 0.0
C5544 C 0.50878 0.60303 0.93011 0.0
C5545 C 0.49683 0.61016 0.93676 0.0
C5546 C 0.5238 0.60942 0.9313 0.0
C5547 C 0.53045 0.59532 0.92253 0.0
N5548 N 0.50538 0.60973 0.93467 0.0
N5549 N 0.52178 0.59597 0.92405 0.0
H5550 H 0.86143 0.28406 0.60855 0.0
H5551 H 0.83792 0.24455 0.58422 0.0
H5552 H 0.83821 0.28644 0.59294 0.0
H5553 H 0.86191 0.24192 0.59855 0.0
H5554 H 0.83757 0.25978 0.58812 0.0
H5555 H 0.86143 0.26854 0.60563 0.0
C5556 C 0.85634 0.28134 0.6045 0.0
C5557 C 0.84981 0.2866 0.60099 0.0
C5558 C 0.84291 0.25588 0.59044 0.0
C5559 C 0.84973 0.2688 0.59769 0.0
C5560 C 0.84314 0.24718 0.58818 0.0
C5561 C 0.85001 0.24194 0.59098 0.0
C5562 C 0.8496 0.25944 0.59555 0.0
C5563 C 0.85647 0.24569 0.59628 0.0
C5564 C 0.85632 0.27246 0.60288 0.0
C5565 C 0.84331 0.28266 0.59589 0.0
N5566 N 0.85613 0.25422 0.59835 0.0
N5567 N 0.84346 0.27403 0.59439 0.0
H5568 H 0.13677 0.16774 0.35394 0.0
H5569 H 0.14711 0.11719 0.35611 0.0
H5570 H 0.11679 0.14833 0.35653 0.0
H5571 H 0.16659 0.13713 0.35376 0.0
H5572 H 0.13584 0.1283 0.35599 0.0
H5573 H 0.14768 0.15645 0.35375 0.0
C5574 C 0.13466 0.1611 0.35453 0.0
C5575 C 0.12581 0.15902 0.35533 0.0
C5576 C 0.14258 0.13023 0.35551 0.0
C5577 C 0.13837 0.14596 0.35498 0.0
C5578 C 0.14903 0.12389 0.35553 0.0
C5579 C 0.15785 0.12621 0.355 0.0
C5580 C 0.14496 0.13896 0.35492 0.0
C5581 C 0.15991 0.13501 0.35435 0.0
C5582 C 0.14092 0.15463 0.35436 0.0
C5583 C 0.12351 0.15026 0.35585 0.0
N5584 N 0.15354 0.14103 0.35433 0.0
N5585 N 0.12975 0.14405 0.35569 0.0
H5586 H 0.8975 0.41131 0.59745 0.0
H5587 H 0.87797 0.3664 0.61429 0.0
H5588 H 0.91162 0.3938 0.61396 0.0
H5589 H 0.86383 0.3841 0.59801 0.0
H5590 H 0.89036 0.37632 0.61425 0.0
H5591 H 0.88504 0.40152 0.59777 0.0
C5592 C 0.89797 0.40544 0.6012 0.0
C5593 C 0.90566 0.4034 0.60568 0.0
C5594 C 0.88454 0.37804 0.61069 0.0
C5595 C 0.8914 0.39206 0.60598 0.0
C5596 C 0.87747 0.37235 0.61067 0.0
C5597 C 0.86981 0.3744 0.60615 0.0
C5598 C 0.88399 0.38585 0.60615 0.0
C5599 C 0.86953 0.38228 0.60169 0.0
C5600 C 0.89086 0.39981 0.60133 0.0
C5601 C 0.9059 0.39561 0.6103 0.0
N5602 N 0.8765 0.38769 0.60179 0.0
N5603 N 0.89889 0.39023 0.61033 0.0
H5604 H 0.64718 0.118 0.85838 0.0
H5605 H 0.63589 0.1672 0.8475 0.0
H5606 H 0.66536 0.13628 0.84766 0.0
H5607 H 0.61732 0.1496 0.8587 0.0
H5608 H 0.64655 0.15568 0.84715 0.0
H5609 H 0.63593 0.12914 0.85806 0.0
C5610 C 0.6488 0.12433 0.85591 0.0
C5611 C 0.65727 0.12621 0.85311 0.0
C5612 C 0.64015 0.15431 0.84968 0.0
C5613 C 0.64443 0.139 0.85278 0.0
C5614 C 0.63405 0.16092 0.84993 0.0
C5615 C 0.62569 0.15942 0.85321 0.0
C5616 C 0.63792 0.14607 0.85273 0.0
C5617 C 0.62366 0.15106 0.85607 0.0
C5618 C 0.64238 0.1307 0.85577 0.0
C5619 C 0.65899 0.13456 0.85005 0.0
N5620 N 0.62974 0.14471 0.8558 0.0
N5621 N 0.65266 0.14062 0.84998 0.0
H5622 H 0.87845 0.86575 0.09625 0.0
H5623 H 0.89965 0.9096 0.11438 0.0
H5624 H 0.866 0.8822 0.11502 0.0
H5625 H 0.91214 0.89295 0.09582 0.0
H5626 H 0.88726 0.89969 0.11469 0.0
H5627 H 0.89092 0.87554 0.09618 0.0
C5628 C 0.87836 0.87138 0.10041 0.0
C5629 C 0.87113 0.87313 0.10565 0.0
C5630 C 0.89271 0.8982 0.11055 0.0
C5631 C 0.8854 0.88447 0.1055 0.0
C5632 C 0.89978 0.90389 0.11033 0.0
C5633 C 0.90698 0.90213 0.10507 0.0
C5634 C 0.89281 0.89067 0.10546 0.0
C5635 C 0.9068 0.89453 0.10007 0.0
C5636 C 0.88547 0.87701 0.10032 0.0
C5637 C 0.87135 0.88063 0.11078 0.0
N5638 N 0.89985 0.88911 0.10039 0.0
N5639 N 0.87835 0.88601 0.11058 0.0
H5640 H 0.11608 0.12806 0.91616 0.0
H5641 H 0.16667 0.13997 0.92036 0.0
H5642 H 0.13634 0.10956 0.92115 0.0
H5643 H 0.14682 0.15909 0.91632 0.0
H5644 H 0.1555 0.12881 0.92053 0.0
H5645 H 0.12705 0.13956 0.91621 0.0
C5646 C 0.12282 0.1264 0.9173 0.0
C5647 C 0.12527 0.11779 0.9186 0.0
C5648 C 0.15356 0.13544 0.9196 0.0
C5649 C 0.13787 0.13094 0.91861 0.0
C5650 C 0.15996 0.14183 0.91945 0.0
C5651 C 0.15771 0.15051 0.91825 0.0
C5652 C 0.14479 0.13768 0.91856 0.0
C5653 C 0.14886 0.15251 0.91731 0.0
C5654 C 0.12908 0.13298 0.91729 0.0
C5655 C 0.13412 0.11606 0.91995 0.0
N5656 N 0.14273 0.14614 0.91745 0.0
N5657 N 0.14007 0.12256 0.91991 0.0
H5658 H 0.86319 0.39198 0.1618 0.0
H5659 H 0.91184 0.38326 0.17821 0.0
H5660 H 0.87779 0.40967 0.17795 0.0
H5661 H 0.89712 0.36524 0.16255 0.0
H5662 H 0.89952 0.39309 0.17796 0.0
H5663 H 0.87556 0.38218 0.16186 0.0
C5664 C 0.86898 0.3938 0.16539 0.0
C5665 C 0.86941 0.40168 0.16991 0.0
C5666 C 0.89897 0.38699 0.17458 0.0
C5667 C 0.88368 0.39048 0.16992 0.0
C5668 C 0.90604 0.38138 0.17467 0.0
C5669 C 0.90556 0.3734 0.17036 0.0
C5670 C 0.89133 0.38464 0.17014 0.0
C5671 C 0.89778 0.37127 0.16604 0.0
C5672 C 0.87607 0.38821 0.16538 0.0
C5673 C 0.87717 0.40373 0.1743 0.0
N5674 N 0.89099 0.37686 0.16602 0.0
N5675 N 0.88397 0.39817 0.17421 0.0
H5676 H 0.6527 0.15377 0.43408 0.0
H5677 H 0.6193 0.12525 0.40595 0.0
H5678 H 0.65349 0.15204 0.40616 0.0
H5679 H 0.6211 0.12406 0.43385 0.0
H5680 H 0.6313 0.13564 0.40589 0.0
H5681 H 0.64056 0.14355 0.43412 0.0
C5682 C 0.65028 0.15129 0.42795 0.0
C5683 C 0.65414 0.15378 0.4201 0.0
C5684 C 0.62909 0.13309 0.41202 0.0
C5685 C 0.64025 0.142 0.4201 0.0
C5686 C 0.6222 0.12719 0.41207 0.0
C5687 C 0.61918 0.12376 0.41992 0.0
C5688 C 0.63296 0.13567 0.4199 0.0
C5689 C 0.62328 0.12645 0.42764 0.0
C5690 C 0.64339 0.1454 0.42798 0.0
C5691 C 0.65079 0.15025 0.41236 0.0
N5692 N 0.62992 0.13225 0.42744 0.0
N5693 N 0.64404 0.14456 0.41256 0.0
H5694 H 0.86488 0.8935 0.68105 0.0
H5695 H 0.91133 0.88248 0.66065 0.0
H5696 H 0.87741 0.90924 0.66172 0.0
H5697 H 0.89877 0.86691 0.68009 0.0
H5698 H 0.89899 0.89232 0.6609 0.0
H5699 H 0.87719 0.88366 0.68068 0.0
C5700 C 0.8702 0.89487 0.67669 0.0
C5701 C 0.87006 0.90222 0.67138 0.0
C5702 C 0.89892 0.88675 0.66511 0.0
C5703 C 0.88428 0.89096 0.67099 0.0
C5704 C 0.906 0.88114 0.665 0.0
C5705 C 0.90613 0.87384 0.67038 0.0
C5706 C 0.89189 0.88508 0.67064 0.0
C5707 C 0.89893 0.87238 0.67576 0.0
C5708 C 0.87726 0.88926 0.67652 0.0
C5709 C 0.87725 0.90372 0.66599 0.0
N5710 N 0.89214 0.87795 0.67576 0.0
N5711 N 0.88404 0.89814 0.66593 0.0
H5712 H 0.35228 0.16759 0.13591 0.0
H5713 H 0.35901 0.11749 0.14643 0.0
H5714 H 0.35897 0.14887 0.11633 0.0
H5715 H 0.35226 0.13673 0.16547 0.0
H5716 H 0.35877 0.12865 0.13521 0.0
H5717 H 0.35215 0.15619 0.14672 0.0
C5718 C 0.35378 0.16109 0.13388 0.0
C5719 C 0.35572 0.15923 0.12518 0.0
C5720 C 0.35735 0.13042 0.14185 0.0
C5721 C 0.35545 0.14603 0.13759 0.0
C5722 C 0.35743 0.12404 0.14826 0.0
C5723 C 0.35571 0.12616 0.15695 0.0
C5724 C 0.35549 0.13898 0.14413 0.0
C5725 C 0.3538 0.13479 0.15891 0.0
C5726 C 0.35365 0.15455 0.14006 0.0
C5727 C 0.3574 0.15061 0.12294 0.0
N5728 N 0.35375 0.14085 0.15258 0.0
N5729 N 0.35726 0.14434 0.1291 0.0
H5730 H 0.89721 0.61069 0.40755 0.0
H5731 H 0.88553 0.60194 0.35753 0.0
H5732 H 0.91556 0.60193 0.38843 0.0
H5733 H 0.86668 0.61086 0.37608 0.0
H5734 H 0.8965 0.60182 0.36895 0.0
H5735 H 0.88581 0.61054 0.39638 0.0
C5736 C 0.89885 0.6087 0.40103 0.0
C5737 C 0.9074 0.60637 0.39894 0.0
C5738 C 0.88997 0.60381 0.37055 0.0
C5739 C 0.89439 0.60625 0.3861 0.0
C5740 C 0.8837 0.60394 0.364 0.0
C5741 C 0.87515 0.60649 0.3658 0.0
C5742 C 0.88775 0.60623 0.37904 0.0
C5743 C 0.87316 0.6088 0.37439 0.0
C5744 C 0.89234 0.60866 0.39464 0.0
C5745 C 0.90913 0.60393 0.39034 0.0
N5746 N 0.87941 0.60864 0.38068 0.0
N5747 N 0.9027 0.60394 0.38426 0.0
H5748 H 0.41132 0.13308 0.61438 0.0
H5749 H 0.42967 0.1432 0.66212 0.0
H5750 H 0.42938 0.11668 0.62794 0.0
H5751 H 0.41205 0.15992 0.64837 0.0
H5752 H 0.42944 0.1333 0.64978 0.0
H5753 H 0.41135 0.14287 0.62682 0.0
C5754 C 0.41532 0.13154 0.61996 0.0
C5755 C 0.42039 0.12403 0.62007 0.0
C5756 C 0.42562 0.13914 0.64945 0.0
C5757 C 0.42038 0.13523 0.63442 0.0
C5758 C 0.42571 0.14478 0.65653 0.0
C5759 C 0.42085 0.15242 0.65632 0.0
C5760 C 0.42062 0.1411 0.64208 0.0
C5761 C 0.41597 0.15417 0.64881 0.0
C5762 C 0.4153 0.13713 0.62708 0.0
C5763 C 0.42531 0.12232 0.62757 0.0
N5764 N 0.41597 0.14855 0.64201 0.0
N5765 N 0.4252 0.12788 0.63441 0.0
H5766 H 0.86638 0.66673 0.89717 0.0
H5767 H 0.91691 0.67269 0.88619 0.0
H5768 H 0.88624 0.67266 0.91617 0.0
H5769 H 0.89752 0.66694 0.86666 0.0
H5770 H 0.90561 0.6727 0.89717 0.0
H5771 H 0.87748 0.66694 0.88583 0.0
C5772 C 0.87306 0.66811 0.89897 0.0
C5773 C 0.87536 0.66963 0.90768 0.0
C5774 C 0.9038 0.67143 0.89049 0.0
C5775 C 0.88812 0.66981 0.89472 0.0
C5776 C 0.91028 0.67136 0.8842 0.0
C5777 C 0.90821 0.66974 0.87546 0.0
C5778 C 0.89512 0.66987 0.88808 0.0
C5779 C 0.89943 0.66828 0.8733 0.0
C5780 C 0.8794 0.66819 0.89249 0.0
C5781 C 0.88415 0.6713 0.90959 0.0
N5782 N 0.89322 0.66835 0.87956 0.0
N5783 N 0.89017 0.67134 0.90319 0.0
H5784 H 0.14804 0.35857 0.1169 0.0
H5785 H 0.13677 0.35137 0.16709 0.0
H5786 H 0.16675 0.35124 0.13644 0.0
H5787 H 0.11746 0.3583 0.14798 0.0
H5788 H 0.14775 0.3513 0.15579 0.0
H5789 H 0.13667 0.35836 0.12797 0.0
C5790 C 0.14976 0.35688 0.1235 0.0
C5791 C 0.15841 0.35497 0.12573 0.0
C5792 C 0.14112 0.35284 0.15404 0.0
C5793 C 0.14542 0.35478 0.13845 0.0
C5794 C 0.13483 0.35294 0.16052 0.0
C5795 C 0.12616 0.35492 0.15852 0.0
C5796 C 0.13877 0.35473 0.14544 0.0
C5797 C 0.12405 0.35669 0.14982 0.0
C5798 C 0.14327 0.3568 0.12982 0.0
C5799 C 0.16024 0.35291 0.13441 0.0
N5800 N 0.13031 0.35658 0.14361 0.0
N5801 N 0.15382 0.35288 0.14043 0.0
H5802 H 0.66734 0.42021 0.13931 0.0
H5803 H 0.61647 0.41701 0.12828 0.0
H5804 H 0.64775 0.41697 0.15897 0.0
H5805 H 0.63654 0.42046 0.10915 0.0
H5806 H 0.62763 0.41709 0.13967 0.0
H5807 H 0.656 0.42025 0.12825 0.0
C5808 C 0.66065 0.41944 0.14131 0.0
C5809 C 0.65853 0.41852 0.15011 0.0
C5810 C 0.62958 0.41782 0.13298 0.0
C5811 C 0.64541 0.41869 0.1374 0.0
C5812 C 0.6232 0.41781 0.12646 0.0
C5813 C 0.62555 0.41868 0.11771 0.0
C5814 C 0.63838 0.41871 0.13073 0.0
C5815 C 0.63441 0.41961 0.11577 0.0
C5816 C 0.65415 0.41953 0.13498 0.0
C5817 C 0.6497 0.41776 0.15229 0.0
N5818 N 0.64047 0.4196 0.12221 0.0
N5819 N 0.64347 0.41784 0.14598 0.0
H5820 H 0.6148 0.88294 0.36497 0.0
H5821 H 0.59533 0.89262 0.41211 0.0
H5822 H 0.59633 0.86635 0.37776 0.0
H5823 H 0.61336 0.90953 0.39911 0.0
H5824 H 0.59583 0.88281 0.39971 0.0
H5825 H 0.61451 0.89265 0.37746 0.0
C5826 C 0.61065 0.88134 0.37038 0.0
C5827 C 0.60556 0.8738 0.37027 0.0
C5828 C 0.59968 0.88867 0.39956 0.0
C5829 C 0.60526 0.8849 0.38468 0.0
C5830 C 0.59944 0.89426 0.40667 0.0
C5831 C 0.60433 0.90193 0.40669 0.0
C5832 C 0.60486 0.89072 0.39238 0.0
C5833 C 0.6094 0.90376 0.39936 0.0
C5834 C 0.61052 0.88688 0.37754 0.0
C5835 C 0.60044 0.87202 0.37758 0.0
N5836 N 0.60954 0.89819 0.39252 0.0
N5837 N 0.60041 0.87753 0.38446 0.0
H5838 H 0.12014 0.8451 0.65099 0.0
H5839 H 0.16053 0.86995 0.6298 0.0
H5840 H 0.13004 0.86955 0.6602 0.0
H5841 H 0.15111 0.8453 0.62063 0.0
H5842 H 0.14887 0.87023 0.64045 0.0
H5843 H 0.13078 0.84544 0.63925 0.0
C5844 C 0.12449 0.85058 0.6505 0.0
C5845 C 0.12421 0.85728 0.65665 0.0
C5846 C 0.14932 0.86477 0.63609 0.0
C5847 C 0.13649 0.85767 0.64325 0.0
C5848 C 0.15602 0.86458 0.63003 0.0
C5849 C 0.15687 0.85755 0.62433 0.0
C5850 C 0.1434 0.85787 0.63653 0.0
C5851 C 0.15069 0.85088 0.62484 0.0
C5852 C 0.1306 0.85075 0.64382 0.0
C5853 C 0.13009 0.86417 0.65572 0.0
N5854 N 0.14426 0.85118 0.63086 0.0
N5855 N 0.13599 0.86416 0.64919 0.0
H5856 H 0.65749 0.36567 0.39483 0.0
H5857 H 0.68209 0.4067 0.37497 0.0
H5858 H 0.68164 0.37569 0.4051 0.0
H5859 H 0.65811 0.39627 0.3647 0.0
H5860 H 0.68165 0.39598 0.38658 0.0
H5861 H 0.65728 0.37731 0.38422 0.0
C5862 C 0.66276 0.37031 0.39485 0.0
C5863 C 0.66963 0.36964 0.40085 0.0
C5864 C 0.67647 0.39606 0.3818 0.0
C5865 C 0.6694 0.38308 0.3887 0.0
C5866 C 0.67669 0.40222 0.37519 0.0
C5867 C 0.67015 0.40237 0.3688 0.0
C5868 C 0.66966 0.39001 0.38204 0.0
C5869 C 0.66337 0.39632 0.36939 0.0
C5870 C 0.66262 0.37699 0.38881 0.0
C5871 C 0.67619 0.37597 0.40066 0.0
N5872 N 0.66331 0.39039 0.37586 0.0
N5873 N 0.67594 0.38238 0.39466 0.0
H5874 H 0.13062 0.90619 0.11451 0.0
H5875 H 0.15188 0.93118 0.15503 0.0
H5876 H 0.12142 0.93073 0.12385 0.0
H5877 H 0.16134 0.907 0.14503 0.0
H5878 H 0.14007 0.9307 0.14434 0.0
H5879 H 0.14135 0.90601 0.12622 0.0
C5880 C 0.13085 0.91156 0.11902 0.0
C5881 C 0.12513 0.91852 0.11813 0.0
C5882 C 0.14471 0.92548 0.14451 0.0
C5883 C 0.13741 0.91833 0.13165 0.0
C5884 C 0.15143 0.92573 0.15065 0.0
C5885 C 0.15766 0.91915 0.15091 0.0
C5886 C 0.14419 0.9186 0.13858 0.0
C5887 C 0.15679 0.9123 0.14499 0.0
C5888 C 0.13697 0.91143 0.12574 0.0
C5889 C 0.12565 0.9252 0.1243 0.0
N5890 N 0.15021 0.91222 0.13907 0.0
N5891 N 0.13171 0.92496 0.13076 0.0
H5892 H 0.18126 0.37485 0.90567 0.0
H5893 H 0.15595 0.39687 0.86599 0.0
H5894 H 0.15669 0.36572 0.89554 0.0
H5895 H 0.18111 0.40541 0.8751 0.0
H5896 H 0.15571 0.38604 0.87743 0.0
H5897 H 0.18087 0.38673 0.89527 0.0
C5898 C 0.17574 0.37538 0.90132 0.0
C5899 C 0.16902 0.36922 0.90147 0.0
C5900 C 0.16128 0.3903 0.87696 0.0
C5901 C 0.16858 0.38279 0.88947 0.0
C5902 C 0.16143 0.39647 0.87039 0.0
C5903 C 0.16859 0.40204 0.86951 0.0
C5904 C 0.16834 0.38963 0.88272 0.0
C5905 C 0.17543 0.40131 0.87554 0.0
C5906 C 0.17555 0.38214 0.89535 0.0
C5907 C 0.16209 0.37021 0.89559 0.0
N5908 N 0.17515 0.3952 0.88185 0.0
N5909 N 0.16206 0.37683 0.88983 0.0
H5910 H 0.11465 0.63311 0.41134 0.0
H5911 H 0.16251 0.6433 0.42948 0.0
H5912 H 0.12833 0.61672 0.42933 0.0
H5913 H 0.14865 0.66008 0.41201 0.0
H5914 H 0.15019 0.63334 0.42921 0.0
H5915 H 0.12711 0.64291 0.41127 0.0
C5916 C 0.12025 0.63157 0.4153 0.0
C5917 C 0.12039 0.62407 0.42038 0.0
C5918 C 0.14984 0.6392 0.42543 0.0
C5919 C 0.13477 0.63527 0.42026 0.0
C5920 C 0.1569 0.64488 0.42554 0.0
C5921 C 0.15665 0.65256 0.42074 0.0
C5922 C 0.14243 0.64117 0.42048 0.0
C5923 C 0.14911 0.6543 0.41589 0.0
C5924 C 0.12739 0.63717 0.41523 0.0
C5925 C 0.12793 0.62236 0.42524 0.0
N5926 N 0.14232 0.64865 0.41587 0.0
N5927 N 0.13479 0.62793 0.42508 0.0
H5928 H 0.41328 0.88365 0.1798 0.0
H5929 H 0.36597 0.89391 0.16062 0.0
H5930 H 0.39979 0.86707 0.16162 0.0
H5931 H 0.37928 0.91014 0.17923 0.0
H5932 H 0.37835 0.88412 0.16073 0.0
H5933 H 0.40101 0.89354 0.17945 0.0
C5934 C 0.40776 0.8821 0.17569 0.0
C5935 C 0.40761 0.8745 0.17071 0.0
C5936 C 0.37857 0.88983 0.16479 0.0
C5937 C 0.39344 0.88581 0.17035 0.0
C5938 C 0.37148 0.89541 0.16476 0.0
C5939 C 0.37154 0.90287 0.16996 0.0
C5940 C 0.38582 0.89168 0.17005 0.0
C5941 C 0.37896 0.90453 0.17505 0.0
C5942 C 0.40072 0.88774 0.17553 0.0
C5943 C 0.40018 0.87279 0.16564 0.0
N5944 N 0.38577 0.89898 0.17499 0.0
N5945 N 0.39341 0.8784 0.16558 0.0
H5946 H 0.16651 0.63701 0.85034 0.0
H5947 H 0.11672 0.64909 0.85908 0.0
H5948 H 0.14741 0.61831 0.8585 0.0
H5949 H 0.13626 0.66722 0.85069 0.0
H5950 H 0.12763 0.63764 0.85871 0.0
H5951 H 0.15534 0.64806 0.85039 0.0
C5952 C 0.15997 0.63523 0.85221 0.0
C5953 C 0.15794 0.6267 0.8545 0.0
C5954 C 0.12952 0.64413 0.85696 0.0
C5955 C 0.14501 0.6394 0.85445 0.0
C5956 C 0.12328 0.65067 0.85712 0.0
C5957 C 0.12557 0.65917 0.85497 0.0
C5958 C 0.13811 0.64609 0.85459 0.0
C5959 C 0.13421 0.66082 0.85256 0.0
C5960 C 0.15357 0.64155 0.85218 0.0
C5961 C 0.14928 0.62478 0.85664 0.0
N5962 N 0.14013 0.65436 0.85245 0.0
N5963 N 0.14314 0.63108 0.85659 0.0
H5964 H 0.41216 0.89337 0.61387 0.0
H5965 H 0.36331 0.88463 0.59776 0.0
H5966 H 0.39776 0.91088 0.5976 0.0
H5967 H 0.37789 0.86676 0.61345 0.0
H5968 H 0.37576 0.89442 0.59787 0.0
H5969 H 0.39965 0.88364 0.61394 0.0
C5970 C 0.40639 0.89517 0.61027 0.0
C5971 C 0.40606 0.90297 0.60569 0.0
C5972 C 0.37625 0.88836 0.60129 0.0
C5973 C 0.39162 0.89184 0.60583 0.0
C5974 C 0.36911 0.88277 0.60127 0.0
C5975 C 0.36951 0.87484 0.60563 0.0
C5976 C 0.38389 0.88604 0.6057 0.0
C5977 C 0.37729 0.87275 0.60993 0.0
C5978 C 0.39922 0.88961 0.61036 0.0
C5979 C 0.39831 0.90499 0.6013 0.0
N5980 N 0.38415 0.87831 0.60986 0.0
N5981 N 0.39143 0.89947 0.60147 0.0
H5982 H 0.6688 0.90954 0.87828 0.0
H5983 H 0.6733 0.85912 0.88852 0.0
H5984 H 0.6728 0.88989 0.85885 0.0
H5985 H 0.66883 0.87819 0.90841 0.0
H5986 H 0.67332 0.87048 0.87768 0.0
H5987 H 0.66914 0.89838 0.8895 0.0
C5988 C 0.66979 0.9029 0.87636 0.0
C5989 C 0.67072 0.90067 0.86757 0.0
C5990 C 0.67233 0.87221 0.88441 0.0
C5991 C 0.67105 0.88785 0.8804 0.0
C5992 C 0.67226 0.86569 0.89062 0.0
C5993 C 0.67098 0.86766 0.89942 0.0
C5994 C 0.67113 0.88081 0.88695 0.0
C5995 C 0.66989 0.87636 0.90172 0.0
C5996 C 0.66994 0.89652 0.88278 0.0
C5997 C 0.67189 0.89193 0.8655 0.0
N5998 N 0.66996 0.88261 0.89553 0.0
N5999 N 0.67202 0.88587 0.87184 0.0
H6000 H 0.12073 0.43085 0.62464 0.0
H6001 H 0.16057 0.40542 0.64613 0.0
H6002 H 0.12961 0.406 0.61585 0.0
H6003 H 0.15215 0.43047 0.65483 0.0
H6004 H 0.14871 0.4052 0.63556 0.0
H6005 H 0.13151 0.43044 0.63635 0.0
C6006 C 0.12488 0.42526 0.62522 0.0
C6007 C 0.12428 0.41847 0.6192 0.0
C6008 C 0.14942 0.41074 0.6398 0.0
C6009 C 0.13673 0.41801 0.63256 0.0
C6010 C 0.15623 0.41089 0.64582 0.0
C6011 C 0.15742 0.41801 0.65135 0.0
C6012 C 0.14373 0.41777 0.63925 0.0
C6013 C 0.15147 0.42482 0.65075 0.0
C6014 C 0.13108 0.42506 0.63188 0.0
C6015 C 0.12992 0.41145 0.62023 0.0
N6016 N 0.14492 0.42455 0.64478 0.0
N6017 N 0.13591 0.41142 0.62675 0.0
H6018 H 0.38613 0.605 0.85714 0.0
H6019 H 0.3973 0.60913 0.90786 0.0
H6020 H 0.36656 0.60934 0.8766 0.0
H6021 H 0.41631 0.60463 0.8879 0.0
H6022 H 0.38587 0.60906 0.89671 0.0
H6023 H 0.39718 0.60485 0.86848 0.0
C6024 C 0.38415 0.60599 0.8638 0.0
C6025 C 0.37537 0.60726 0.86588 0.0
C6026 C 0.39255 0.60809 0.89479 0.0
C6027 C 0.38808 0.60696 0.87901 0.0
C6028 C 0.39908 0.60809 0.90115 0.0
C6029 C 0.40782 0.60693 0.89884 0.0
C6030 C 0.39476 0.60691 0.88603 0.0
C6031 C 0.40971 0.60571 0.89001 0.0
C6032 C 0.39048 0.60584 0.8703 0.0
C6033 C 0.37322 0.60828 0.87468 0.0
N6034 N 0.40327 0.60573 0.88397 0.0
N6035 N 0.37953 0.60814 0.88091 0.0
H6036 H 0.90912 0.15648 0.37992 0.0
H6037 H 0.86935 0.18194 0.40126 0.0
H6038 H 0.90045 0.18135 0.37104 0.0
H6039 H 0.87893 0.15759 0.41064 0.0
H6040 H 0.87996 0.1814 0.38951 0.0
H6041 H 0.89748 0.1564 0.39061 0.0
C6042 C 0.90477 0.16194 0.38022 0.0
C6043 C 0.90583 0.16897 0.3746 0.0
C6044 C 0.87972 0.17616 0.39412 0.0
C6045 C 0.89239 0.16889 0.38684 0.0
C6046 C 0.87362 0.17643 0.40081 0.0
C6047 C 0.87326 0.16982 0.407 0.0
C6048 C 0.88551 0.16921 0.39358 0.0
C6049 C 0.87905 0.16291 0.40612 0.0
C6050 C 0.89809 0.16187 0.38631 0.0
C6051 C 0.89986 0.17577 0.37519 0.0
N6052 N 0.88493 0.1628 0.39957 0.0
N6053 N 0.89344 0.17558 0.38122 0.0
H6054 H 0.36938 0.63046 0.66011 0.0
H6055 H 0.3442 0.65218 0.62019 0.0
H6056 H 0.3446 0.62135 0.65049 0.0
H6057 H 0.36851 0.66166 0.63062 0.0
H6058 H 0.34467 0.64026 0.63053 0.0
H6059 H 0.36955 0.64137 0.64875 0.0
C6060 C 0.36396 0.63075 0.65562 0.0
C6061 C 0.35693 0.625 0.65633 0.0
C6062 C 0.34992 0.64493 0.63053 0.0
C6063 C 0.35712 0.6375 0.6432 0.0
C6064 C 0.34968 0.65172 0.62459 0.0
C6065 C 0.3563 0.65798 0.62455 0.0
C6066 C 0.35684 0.64437 0.63648 0.0
C6067 C 0.36318 0.65708 0.63049 0.0
C6068 C 0.36408 0.63697 0.64909 0.0
C6069 C 0.35019 0.6256 0.65017 0.0
N6070 N 0.36326 0.65043 0.63622 0.0
N6071 N 0.35042 0.63176 0.64391 0.0
H6072 H 0.86589 0.10912 0.87691 0.0
H6073 H 0.91662 0.10531 0.88822 0.0
H6074 H 0.88597 0.10516 0.8579 0.0
H6075 H 0.89696 0.10847 0.90781 0.0
H6076 H 0.90534 0.10538 0.8771 0.0
H6077 H 0.87698 0.10888 0.88837 0.0
C6078 C 0.87261 0.10817 0.87513 0.0
C6079 C 0.87498 0.10721 0.86639 0.0
C6080 C 0.90346 0.10607 0.88382 0.0
C6081 C 0.88772 0.107 0.87949 0.0
C6082 C 0.90993 0.10608 0.89019 0.0
C6083 C 0.90777 0.10695 0.89899 0.0
C6084 C 0.89472 0.10692 0.88621 0.0
C6085 C 0.89894 0.10773 0.90113 0.0
C6086 C 0.87895 0.10807 0.88168 0.0
C6087 C 0.88382 0.10609 0.8645 0.0
N6088 N 0.89274 0.10772 0.89478 0.0
N6089 N 0.88984 0.10602 0.87098 0.0
H6090 H 0.85392 0.66675 0.1363 0.0
H6091 H 0.85857 0.61632 0.14634 0.0
H6092 H 0.85867 0.6478 0.11636 0.0
H6093 H 0.85349 0.63575 0.16572 0.0
H6094 H 0.85844 0.62754 0.13518 0.0
H6095 H 0.85371 0.65532 0.14707 0.0
C6096 C 0.85498 0.66018 0.13418 0.0
C6097 C 0.85639 0.65827 0.12539 0.0
C6098 C 0.85736 0.62934 0.14188 0.0
C6099 C 0.85604 0.64504 0.13776 0.0
C6100 C 0.85739 0.62292 0.14825 0.0
C6101 C 0.85609 0.62508 0.15702 0.0
C6102 C 0.856 0.63797 0.14427 0.0
C6103 C 0.85468 0.63378 0.15909 0.0
C6104 C 0.8548 0.65363 0.14034 0.0
C6105 C 0.85751 0.64958 0.12304 0.0
N6106 N 0.85468 0.63987 0.15279 0.0
N6107 N 0.85734 0.6433 0.12919 0.0
H6108 H 0.6503 0.62103 0.34404 0.0
H6109 H 0.63069 0.66204 0.36873 0.0
H6110 H 0.66065 0.63129 0.36802 0.0
H6111 H 0.6204 0.65222 0.34453 0.0
H6112 H 0.64122 0.65034 0.36892 0.0
H6113 H 0.63875 0.6318 0.34452 0.0
C6114 C 0.6501 0.62548 0.34945 0.0
C6115 C 0.65651 0.62526 0.35597 0.0
C6116 C 0.63665 0.65072 0.36357 0.0
C6117 C 0.64334 0.6377 0.35651 0.0
C6118 C 0.63065 0.65743 0.36344 0.0
C6119 C 0.62467 0.65818 0.35657 0.0
C6120 C 0.63672 0.64467 0.35678 0.0
C6121 C 0.62483 0.65189 0.34999 0.0
C6122 C 0.64353 0.63167 0.34969 0.0
C6123 C 0.65596 0.63129 0.36277 0.0
N6124 N 0.63079 0.64543 0.35024 0.0
N6125 N 0.64952 0.63726 0.36284 0.0
H6126 H 0.6302 0.61493 0.90511 0.0
H6127 H 0.65049 0.65596 0.92975 0.0
H6128 H 0.62044 0.62464 0.92942 0.0
H6129 H 0.66008 0.64608 0.90544 0.0
H6130 H 0.63892 0.64511 0.92936 0.0
H6131 H 0.64074 0.62673 0.90482 0.0
C6132 C 0.63028 0.61954 0.9104 0.0
C6133 C 0.62444 0.61873 0.91733 0.0
C6134 C 0.64353 0.64534 0.9241 0.0
C6135 C 0.6365 0.63236 0.91701 0.0
C6136 C 0.65012 0.65158 0.92428 0.0
C6137 C 0.65632 0.65193 0.91764 0.0
C6138 C 0.64312 0.63939 0.91721 0.0
C6139 C 0.65555 0.64598 0.91078 0.0
C6140 C 0.63627 0.62631 0.91021 0.0
C6141 C 0.62475 0.62502 0.92391 0.0
N6142 N 0.64911 0.63996 0.91077 0.0
N6143 N 0.6307 0.63153 0.92361 0.0
H6144 H 0.41033 0.63248 0.11468 0.0
H6145 H 0.4315 0.64416 0.1609 0.0
H6146 H 0.43068 0.61762 0.12674 0.0
H6147 H 0.41154 0.65936 0.14863 0.0
H6148 H 0.43111 0.63426 0.14856 0.0
H6149 H 0.41054 0.64227 0.12712 0.0
C6150 C 0.41487 0.63128 0.11993 0.0
C6151 C 0.42052 0.6242 0.11962 0.0
C6152 C 0.42681 0.63976 0.14856 0.0
C6153 C 0.42074 0.6354 0.13396 0.0
C6154 C 0.427 0.6454 0.15563 0.0
C6155 C 0.42152 0.65262 0.15584 0.0
C6156 C 0.4211 0.64129 0.1416 0.0
C6157 C 0.41594 0.65395 0.14873 0.0
C6158 C 0.41496 0.63687 0.12705 0.0
C6159 C 0.42614 0.62292 0.12671 0.0
N6160 N 0.41587 0.64834 0.14192 0.0
N6161 N 0.42612 0.62846 0.13356 0.0
H6162 H 0.6679 0.92278 0.63874 0.0
H6163 H 0.6173 0.91656 0.62765 0.0
H6164 H 0.64878 0.9165 0.65814 0.0
H6165 H 0.63688 0.92295 0.60878 0.0
H6166 H 0.62853 0.91667 0.63899 0.0
H6167 H 0.65647 0.92286 0.62777 0.0
C6168 C 0.6613 0.92135 0.6407 0.0
C6169 C 0.65934 0.91956 0.6494 0.0
C6170 C 0.63036 0.91804 0.63236 0.0
C6171 C 0.64611 0.91978 0.63679 0.0
C6172 C 0.62394 0.91802 0.62589 0.0
C6173 C 0.62613 0.9197 0.61721 0.0
C6174 C 0.63904 0.91977 0.63016 0.0
C6175 C 0.63488 0.92146 0.61532 0.0
C6176 C 0.65475 0.92146 0.63442 0.0
C6177 C 0.65061 0.91798 0.65153 0.0
N6178 N 0.64098 0.92144 0.62172 0.0
N6179 N 0.64433 0.9181 0.64527 0.0
H6180 H 0.61384 0.38414 0.86438 0.0
H6181 H 0.59727 0.39302 0.91278 0.0
H6182 H 0.59719 0.36672 0.87846 0.0
H6183 H 0.61327 0.41085 0.89848 0.0
H6184 H 0.59744 0.38319 0.90039 0.0
H6185 H 0.61389 0.3939 0.87685 0.0
C6186 C 0.61016 0.38237 0.87008 0.0
C6187 C 0.60547 0.37458 0.87033 0.0
C6188 C 0.60092 0.38925 0.89995 0.0
C6189 C 0.60559 0.38573 0.88471 0.0
C6190 C 0.60087 0.39486 0.90706 0.0
C6191 C 0.60529 0.40279 0.90671 0.0
C6192 C 0.60542 0.39155 0.89241 0.0
C6193 C 0.6097 0.40486 0.89903 0.0
C6194 C 0.61023 0.38794 0.87722 0.0
C6195 C 0.60097 0.37259 0.87798 0.0
N6196 N 0.60966 0.39928 0.8922 0.0
N6197 N 0.60113 0.37812 0.88484 0.0
H6198 H 0.18314 0.90556 0.37402 0.0
H6199 H 0.15683 0.86664 0.39588 0.0
H6200 H 0.15759 0.89726 0.36581 0.0
H6201 H 0.18251 0.87448 0.40412 0.0
H6202 H 0.15675 0.87835 0.38536 0.0
H6203 H 0.18273 0.89487 0.38566 0.0
C6204 C 0.17741 0.90156 0.37471 0.0
C6205 C 0.17041 0.90229 0.36887 0.0
C6206 C 0.1624 0.87755 0.38948 0.0
C6207 C 0.16994 0.88996 0.38215 0.0
C6208 C 0.16247 0.87082 0.39547 0.0
C6209 C 0.16972 0.86951 0.40086 0.0
C6210 C 0.16964 0.88303 0.38881 0.0
C6211 C 0.17676 0.87526 0.40014 0.0
C6212 C 0.1772 0.89542 0.38133 0.0
C6213 C 0.1632 0.89684 0.37005 0.0
N6214 N 0.17656 0.88173 0.3942 0.0
N6215 N 0.16317 0.89091 0.37652 0.0
H6216 H 0.36496 0.39372 0.68069 0.0
H6217 H 0.4112 0.3824 0.65999 0.0
H6218 H 0.37736 0.40923 0.6611 0.0
H6219 H 0.39882 0.36708 0.67975 0.0
H6220 H 0.39886 0.39225 0.66024 0.0
H6221 H 0.37724 0.38384 0.68031 0.0
C6222 C 0.37024 0.39503 0.67627 0.0
C6223 C 0.37008 0.40233 0.6709 0.0
C6224 C 0.39884 0.38673 0.66452 0.0
C6225 C 0.38426 0.39103 0.6705 0.0
C6226 C 0.40591 0.38111 0.66441 0.0
C6227 C 0.40609 0.37389 0.66988 0.0
C6228 C 0.39186 0.38514 0.67014 0.0
C6229 C 0.39895 0.37249 0.67535 0.0
C6230 C 0.37728 0.3894 0.67609 0.0
C6231 C 0.37722 0.40376 0.66543 0.0
N6232 N 0.39215 0.37807 0.67535 0.0
N6233 N 0.384 0.39816 0.66536 0.0
H6234 H 0.37054 0.37514 0.09445 0.0
H6235 H 0.41072 0.39719 0.11944 0.0
H6236 H 0.38049 0.3664 0.1191 0.0
H6237 H 0.40127 0.40583 0.09456 0.0
H6238 H 0.39914 0.3864 0.11976 0.0
H6239 H 0.38108 0.38699 0.09476 0.0
C6240 C 0.37488 0.37575 0.09997 0.0
C6241 C 0.37464 0.36971 0.10673 0.0
C6242 C 0.39957 0.39067 0.11423 0.0
C6243 C 0.38682 0.38324 0.10709 0.0
C6244 C 0.40622 0.39682 0.11403 0.0
C6245 C 0.40704 0.40241 0.10693 0.0
C6246 C 0.39367 0.39005 0.10728 0.0
C6247 C 0.40088 0.40172 0.1002 0.0
C6248 C 0.38094 0.3825 0.10012 0.0
C6249 C 0.38051 0.3708 0.11367 0.0
N6250 N 0.39449 0.39562 0.10051 0.0
N6251 N 0.38636 0.3774 0.11365 0.0
H6252 H 0.39769 0.1099 0.40816 0.0
H6253 H 0.38715 0.10548 0.35733 0.0
H6254 H 0.41696 0.10525 0.38848 0.0
H6255 H 0.3674 0.11029 0.37649 0.0
H6256 H 0.39807 0.10538 0.36881 0.0
H6257 H 0.38643 0.1099 0.39686 0.0
C6258 C 0.39956 0.10884 0.40148 0.0
C6259 C 0.40832 0.10762 0.39929 0.0
C6260 C 0.39135 0.10646 0.37053 0.0
C6261 C 0.39545 0.10767 0.3863 0.0
C6262 C 0.3851 0.10659 0.36395 0.0
C6263 C 0.37632 0.10797 0.36591 0.0
C6264 C 0.38886 0.10772 0.37919 0.0
C6265 C 0.37407 0.10914 0.37466 0.0
C6266 C 0.39313 0.10889 0.39502 0.0
C6267 C 0.41034 0.10638 0.3905 0.0
N6268 N 0.3803 0.10901 0.38097 0.0
N6269 N 0.40397 0.10643 0.38436 0.0
H6270 H 0.8581 0.14856 0.61621 0.0
H6271 H 0.85333 0.13676 0.66658 0.0
H6272 H 0.85323 0.16713 0.63648 0.0
H6273 H 0.85777 0.11762 0.64675 0.0
H6274 H 0.85332 0.1479 0.65549 0.0
H6275 H 0.85789 0.13708 0.62709 0.0
C6276 C 0.85695 0.15023 0.62293 0.0
C6277 C 0.85573 0.15886 0.62542 0.0
C6278 C 0.8543 0.14127 0.65354 0.0
C6279 C 0.85554 0.14574 0.63792 0.0
C6280 C 0.85436 0.13489 0.65989 0.0
C6281 C 0.85562 0.12621 0.65763 0.0
C6282 C 0.8555 0.13901 0.6448 0.0
C6283 C 0.85672 0.1242 0.6488 0.0
C6284 C 0.85687 0.14367 0.62915 0.0
C6285 C 0.85436 0.16062 0.63425 0.0
N6286 N 0.85666 0.13055 0.64272 0.0
N6287 N 0.85431 0.15414 0.64015 0.0
H6288 H 0.92861 0.1152 0.12845 0.0
H6289 H 0.91124 0.15961 0.14852 0.0
H6290 H 0.91128 0.13235 0.11487 0.0
H6291 H 0.9284 0.14234 0.16214 0.0
H6292 H 0.91116 0.14972 0.13614 0.0
H6293 H 0.9284 0.12494 0.14094 0.0
C6294 C 0.9247 0.12097 0.12811 0.0
C6295 C 0.91997 0.12294 0.12056 0.0
C6296 C 0.91493 0.14809 0.14184 0.0
C6297 C 0.91979 0.13421 0.13485 0.0
C6298 C 0.91503 0.15377 0.1489 0.0
C6299 C 0.91983 0.15183 0.15641 0.0
C6300 C 0.91969 0.14039 0.14226 0.0
C6301 C 0.92451 0.14407 0.15655 0.0
C6302 C 0.92464 0.12657 0.13523 0.0
C6303 C 0.91514 0.13061 0.12048 0.0
N6304 N 0.92433 0.13866 0.1496 0.0
N6305 N 0.91518 0.13595 0.1275 0.0
H6306 H 0.40995 0.65665 0.37868 0.0
H6307 H 0.37057 0.68217 0.4006 0.0
H6308 H 0.40158 0.6818 0.37031 0.0
H6309 H 0.37929 0.65713 0.40892 0.0
H6310 H 0.3812 0.68179 0.38886 0.0
H6311 H 0.39821 0.65642 0.38925 0.0
C6312 C 0.40565 0.66214 0.37907 0.0
C6313 C 0.40682 0.66929 0.37363 0.0
C6314 C 0.38076 0.67637 0.39323 0.0
C6315 C 0.39326 0.66904 0.38573 0.0
C6316 C 0.37464 0.67655 0.39991 0.0
C6317 C 0.37405 0.66969 0.40581 0.0
C6318 C 0.38633 0.66927 0.39243 0.0
C6319 C 0.3796 0.66263 0.40464 0.0
C6320 C 0.39891 0.66198 0.38509 0.0
C6321 C 0.40091 0.67612 0.37432 0.0
N6322 N 0.38551 0.66262 0.39812 0.0
N6323 N 0.39443 0.67585 0.38029 0.0
H6324 H 0.66719 0.3503 0.63591 0.0
H6325 H 0.61748 0.36029 0.64734 0.0
H6326 H 0.64907 0.36069 0.61727 0.0
H6327 H 0.63637 0.35083 0.66571 0.0
H6328 H 0.62865 0.36008 0.63606 0.0
H6329 H 0.65574 0.35017 0.64673 0.0
C6330 C 0.66081 0.35261 0.63409 0.0
C6331 C 0.65914 0.35559 0.62565 0.0
C6332 C 0.63034 0.35806 0.64256 0.0
C6333 C 0.64588 0.35534 0.63808 0.0
C6334 C 0.62395 0.35814 0.649 0.0
C6335 C 0.62599 0.35563 0.65752 0.0
C6336 C 0.63882 0.35542 0.64464 0.0
C6337 C 0.63452 0.35297 0.65929 0.0
C6338 C 0.65424 0.35249 0.64028 0.0
C6339 C 0.65066 0.3583 0.62366 0.0
N6340 N 0.64059 0.35294 0.65293 0.0
N6341 N 0.64436 0.35814 0.62983 0.0
H6342 H 0.11414 0.91096 0.89757 0.0
H6343 H 0.09785 0.86581 0.87774 0.0
H6344 H 0.09807 0.89286 0.91147 0.0
H6345 H 0.11436 0.88362 0.86397 0.0
H6346 H 0.09799 0.87558 0.8902 0.0
H6347 H 0.11424 0.9011 0.88517 0.0
C6348 C 0.11059 0.90494 0.89801 0.0
C6349 C 0.1061 0.90276 0.90561 0.0
C6350 C 0.10159 0.87735 0.88445 0.0
C6351 C 0.10625 0.89136 0.89142 0.0
C6352 C 0.10156 0.87174 0.87734 0.0
C6353 C 0.10609 0.87388 0.86975 0.0
C6354 C 0.10618 0.88518 0.88401 0.0
C6355 C 0.11066 0.88174 0.86961 0.0
C6356 C 0.11069 0.89928 0.89094 0.0
C6357 C 0.10173 0.89479 0.90581 0.0
N6358 N 0.11059 0.88709 0.87662 0.0
N6359 N 0.10191 0.8894 0.89884 0.0
H6360 H 0.66892 0.85242 0.1367 0.0
H6361 H 0.6185 0.85837 0.14793 0.0
H6362 H 0.64952 0.85818 0.11729 0.0
H6363 H 0.63839 0.85249 0.16681 0.0
H6364 H 0.62955 0.85813 0.13653 0.0
H6365 H 0.65766 0.85238 0.14773 0.0
C6366 C 0.66229 0.85373 0.13475 0.0
C6367 C 0.6602 0.85538 0.12603 0.0
C6368 C 0.63148 0.8569 0.14317 0.0
C6369 C 0.64717 0.85522 0.1387 0.0
C6370 C 0.62517 0.85699 0.14968 0.0
C6371 C 0.6275 0.8555 0.15838 0.0
C6372 C 0.64019 0.85528 0.14536 0.0
C6373 C 0.63628 0.85384 0.16025 0.0
C6374 C 0.65584 0.85365 0.14106 0.0
C6375 C 0.65144 0.85683 0.12391 0.0
N6376 N 0.64227 0.85378 0.15382 0.0
N6377 N 0.64525 0.85674 0.13019 0.0
H6378 H 0.36654 0.16765 0.8974 0.0
H6379 H 0.41691 0.17476 0.88639 0.0
H6380 H 0.38613 0.17476 0.91626 0.0
H6381 H 0.39778 0.16782 0.867 0.0
H6382 H 0.40556 0.17483 0.89732 0.0
H6383 H 0.37767 0.16787 0.88609 0.0
C6384 C 0.37316 0.1693 0.89917 0.0
C6385 C 0.37538 0.17114 0.90784 0.0
C6386 C 0.40382 0.17329 0.89068 0.0
C6387 C 0.38818 0.17134 0.89491 0.0
C6388 C 0.41032 0.17319 0.88442 0.0
C6389 C 0.40834 0.17121 0.87574 0.0
C6390 C 0.3952 0.1714 0.8883 0.0
C6391 C 0.39962 0.16944 0.87359 0.0
C6392 C 0.37952 0.16938 0.89271 0.0
C6393 C 0.3841 0.17314 0.90973 0.0
N6394 N 0.39338 0.16955 0.87983 0.0
N6395 N 0.39015 0.17317 0.90334 0.0
H6396 H 0.92894 0.66082 0.64793 0.0
H6397 H 0.91192 0.61622 0.62745 0.0
H6398 H 0.91153 0.64346 0.66116 0.0
H6399 H 0.9291 0.6338 0.61422 0.0
H6400 H 0.91177 0.62602 0.6399 0.0
H6401 H 0.92896 0.65105 0.63549 0.0
C6402 C 0.92506 0.65499 0.64821 0.0
C6403 C 0.92022 0.65299 0.65564 0.0
C6404 C 0.91557 0.62773 0.63427 0.0
C6405 C 0.92031 0.64166 0.6414 0.0
C6406 C 0.9157 0.62211 0.62717 0.0
C6407 C 0.92052 0.62417 0.61974 0.0
C6408 C 0.9203 0.63549 0.63398 0.0
C6409 C 0.92519 0.63198 0.61973 0.0
C6410 C 0.92513 0.64937 0.64111 0.0
C6411 C 0.91545 0.64524 0.65564 0.0
N6412 N 0.92497 0.63733 0.62673 0.0
N6413 N 0.91562 0.63987 0.64865 0.0
H6414 H 0.11243 0.41085 0.3972 0.0
H6415 H 0.09616 0.3657 0.37733 0.0
H6416 H 0.09594 0.39294 0.41086 0.0
H6417 H 0.11298 0.38333 0.3637 0.0
H6418 H 0.09616 0.37554 0.38973 0.0
H6419 H 0.11267 0.40092 0.38484 0.0
C6420 C 0.10882 0.40485 0.39759 0.0
C6421 C 0.10417 0.40274 0.40511 0.0
C6422 C 0.09986 0.37726 0.38403 0.0
C6423 C 0.10449 0.39128 0.39098 0.0
C6424 C 0.09991 0.3716 0.37696 0.0
C6425 C 0.10457 0.37366 0.36943 0.0
C6426 C 0.10451 0.38506 0.38361 0.0
C6427 C 0.10919 0.3815 0.3693 0.0
C6428 C 0.10901 0.39916 0.39055 0.0
C6429 C 0.09973 0.39481 0.40527 0.0
N6430 N 0.10903 0.3869 0.37627 0.0
N6431 N 0.09999 0.38939 0.39833 0.0
loop_
_geom_bond_atom_site_label_1
_geom_bond_atom_site_label_2
_geom_bond_distance
_geom_bond_site_symmetry_2
_ccdc_geom_bond_type
C0 C1 1.264 . S
C0 C5 1.479 . S
C0 C10 1.465 . S
C1 C0 1.264 . S
C1 C3 1.339 . S
C1 H28 0.931 . S
C2 C3 1.395 . S
C2 C4 1.320 . S
C3 C1 1.339 . S
C3 C2 1.395 . S
C3 H29 0.929 . S
C4 C2 1.320 . S
C4 C5 1.405 . S
C4 H30 0.930 . S
C5 C0 1.479 . S
C5 C4 1.405 . S
C5 H31 0.931 . S
U6 O7 2.454 . S
U6 O8 2.458 . S
U6 C9 2.984 . S
U6 C10 2.847 . S
U6 C23 2.882 . S
U6 O24 2.441 . S
U6 O25 2.420 . S
U6 O26 2.455 . S
U6 O27 2.449 . S
O7 U6 2.454 . S
O7 C9 1.353 . S
O8 U6 2.458 . S
O8 C9 1.286 . S
C9 U6 2.984 . S
C9 O7 1.353 . S
C9 O8 1.286 . S
C9 C11 1.363 . S
C10 C0 1.465 . S
C10 U6 2.847 . S
C10 O24 1.249 . S
C10 O25 1.202 . S
C11 C9 1.363 . S
C11 C13 1.408 . S
C11 C16 1.342 . S
C12 C13 1.310 . S
C12 C15 1.461 . S
C12 H32 0.932 . S
C13 C11 1.408 . S
C13 C12 1.310 . S
C13 H33 0.930 . S
C14 C15 1.474 . S
C14 C16 1.285 . S
C14 H34 0.929 . S
C15 C12 1.461 . S
C15 C14 1.474 . S
C16 C11 1.342 . S
C16 C14 1.285 . S
C16 H35 0.930 . S
C17 C20 1.424 . S
C17 C22 1.245 . S
C17 C23 1.428 . S
C18 C21 1.260 . S
C18 C22 1.477 . S
C18 H36 0.932 . S
C19 C20 1.384 . S
C19 C21 1.479 . S
C19 H37 0.929 . S
C20 C17 1.424 . S
C20 C19 1.384 . S
C20 H38 0.928 . S
C21 C18 1.260 . S
C21 C19 1.479 . S
C22 C17 1.245 . S
C22 C18 1.477 . S
C22 H39 0.932 . S
C23 U6 2.882 . S
C23 C17 1.428 . S
C23 O26 1.301 . S
C23 O27 1.282 . S
O24 U6 2.441 . S
O24 C10 1.249 . S
O25 U6 2.420 . S
O25 C10 1.202 . S
O26 U6 2.455 . S
O26 C23 1.301 . S
O27 U6 2.449 . S
O27 C23 1.282 . S
H28 C1 0.931 . S
H29 C3 0.929 . S
H30 C4 0.930 . S
H31 C5 0.931 . S
H32 C12 0.932 . S
H33 C13 0.930 . S
H34 C14 0.929 . S
H35 C16 0.930 . S
H36 C18 0.932 . S
H37 C19 0.929 . S
H38 C20 0.928 . S
H39 C22 0.932 . S
C40 C41 1.264 . S
C40 C45 1.479 . S
C40 C50 1.465 . S
C41 C40 1.264 . S
C41 C43 1.339 . S
C41 H68 0.931 . S
C42 C43 1.395 . S
C42 C44 1.320 . S
C43 C41 1.339 . S
C43 C42 1.395 . S
C43 H69 0.929 . S
C44 C42 1.320 . S
C44 C45 1.405 . S
C44 H70 0.930 . S
C45 C40 1.479 . S
C45 C44 1.405 . S
C45 H71 0.931 . S
U46 O47 2.454 . S
U46 O48 2.458 . S
U46 C49 2.984 . S
U46 C50 2.847 . S
U46 C63 2.882 . S
U46 O64 2.441 . S
U46 O65 2.420 . S
U46 O66 2.455 . S
U46 O67 2.449 . S
O47 U46 2.454 . S
O47 C49 1.353 . S
O48 U46 2.458 . S
O48 C49 1.286 . S
C49 U46 2.984 . S
C49 O47 1.353 . S
C49 O48 1.286 . S
C49 C51 1.363 . S
C50 C40 1.465 . S
C50 U46 2.847 . S
C50 O64 1.249 . S
C50 O65 1.202 . S
C51 C49 1.363 . S
C51 C53 1.408 . S
C51 C56 1.342 . S
C52 C53 1.310 . S
C52 C55 1.461 . S
C52 H72 0.932 . S
C53 C51 1.408 . S
C53 C52 1.310 . S
C53 H73 0.930 . S
C54 C55 1.474 . S
C54 C56 1.285 . S
C54 H74 0.929 . S
C55 C52 1.461 . S
C55 C54 1.474 . S
C56 C51 1.342 . S
C56 C54 1.285 . S
C56 H75 0.930 . S
C57 C60 1.424 . S
C57 C62 1.245 . S
C57 C63 1.428 . S
C58 C61 1.260 . S
C58 C62 1.477 . S
C58 H76 0.932 . S
C59 C60 1.384 . S
C59 C61 1.479 . S
C59 H77 0.929 . S
C60 C57 1.424 . S
C60 C59 1.384 . S
C60 H78 0.928 . S
C61 C58 1.260 . S
C61 C59 1.479 . S
C62 C57 1.245 . S
C62 C58 1.477 . S
C62 H79 0.932 . S
C63 U46 2.882 . S
C63 C57 1.428 . S
C63 O66 1.301 . S
C63 O67 1.282 . S
O64 U46 2.441 . S
O64 C50 1.249 . S
O65 U46 2.420 . S
O65 C50 1.202 . S
O66 U46 2.455 . S
O66 C63 1.301 . S
O67 U46 2.449 . S
O67 C63 1.282 . S
H68 C41 0.931 . S
H69 C43 0.929 . S
H70 C44 0.930 . S
H71 C45 0.931 . S
H72 C52 0.932 . S
H73 C53 0.930 . S
H74 C54 0.929 . S
H75 C56 0.930 . S
H76 C58 0.932 . S
H77 C59 0.929 . S
H78 C60 0.928 . S
H79 C62 0.932 . S
C80 C81 1.264 . S
C80 C85 1.479 . S
C80 C90 1.465 . S
C81 C80 1.264 . S
C81 C83 1.339 . S
C81 H108 0.931 . S
C82 C83 1.395 . S
C82 C84 1.320 . S
C83 C81 1.339 . S
C83 C82 1.395 . S
C83 H109 0.929 . S
C84 C82 1.320 . S
C84 C85 1.405 . S
C84 H110 0.930 . S
C85 C80 1.479 . S
C85 C84 1.405 . S
C85 H111 0.931 . S
U86 O87 2.454 . S
U86 O88 2.458 . S
U86 C89 2.984 . S
U86 C90 2.847 . S
U86 C103 2.882 . S
U86 O104 2.441 . S
U86 O105 2.420 . S
U86 O106 2.455 . S
U86 O107 2.449 . S
O87 U86 2.454 . S
O87 C89 1.353 . S
O88 U86 2.458 . S
O88 C89 1.286 . S
C89 U86 2.984 . S
C89 O87 1.353 . S
C89 O88 1.286 . S
C89 C91 1.363 . S
C90 C80 1.465 . S
C90 U86 2.847 . S
C90 O104 1.249 . S
C90 O105 1.202 . S
C91 C89 1.363 . S
C91 C93 1.408 . S
C91 C96 1.342 . S
C92 C93 1.310 . S
C92 C95 1.461 . S
C92 H112 0.932 . S
C93 C91 1.408 . S
C93 C92 1.310 . S
C93 H113 0.930 . S
C94 C95 1.474 . S
C94 C96 1.285 . S
C94 H114 0.929 . S
C95 C92 1.461 . S
C95 C94 1.474 . S
C96 C91 1.342 . S
C96 C94 1.285 . S
C96 H115 0.930 . S
C97 C100 1.424 . S
C97 C102 1.245 . S
C97 C103 1.428 . S
C98 C101 1.260 . S
C98 C102 1.477 . S
C98 H116 0.932 . S
C99 C100 1.384 . S
C99 C101 1.479 . S
C99 H117 0.929 . S
C100 C97 1.424 . S
C100 C99 1.384 . S
C100 H118 0.928 . S
C101 C98 1.260 . S
C101 C99 1.479 . S
C102 C97 1.245 . S
C102 C98 1.477 . S
C102 H119 0.932 . S
C103 U86 2.882 . S
C103 C97 1.428 . S
C103 O106 1.301 . S
C103 O107 1.282 . S
O104 U86 2.441 . S
O104 C90 1.249 . S
O105 U86 2.420 . S
O105 C90 1.202 . S
O106 U86 2.455 . S
O106 C103 1.301 . S
O107 U86 2.449 . S
O107 C103 1.282 . S
H108 C81 0.931 . S
H109 C83 0.929 . S
H110 C84 0.930 . S
H111 C85 0.931 . S
H112 C92 0.932 . S
H113 C93 0.930 . S
H114 C94 0.929 . S
H115 C96 0.930 . S
H116 C98 0.932 . S
H117 C99 0.929 . S
H118 C100 0.928 . S
H119 C102 0.932 . S
C120 C121 1.264 . S
C120 C125 1.479 . S
C120 C130 1.465 . S
C121 C120 1.264 . S
C121 C123 1.339 . S
C121 H148 0.931 . S
C122 C123 1.395 . S
C122 C124 1.320 . S
C123 C121 1.339 . S
C123 C122 1.395 . S
C123 H149 0.929 . S
C124 C122 1.320 . S
C124 C125 1.405 . S
C124 H150 0.930 . S
C125 C120 1.479 . S
C125 C124 1.405 . S
C125 H151 0.931 . S
U126 O127 2.454 . S
U126 O128 2.458 . S
U126 C129 2.984 . S
U126 C130 2.847 . S
U126 C143 2.882 . S
U126 O144 2.441 . S
U126 O145 2.420 . S
U126 O146 2.455 . S
U126 O147 2.449 . S
O127 U126 2.454 . S
O127 C129 1.353 . S
O128 U126 2.458 . S
O128 C129 1.286 . S
C129 U126 2.984 . S
C129 O127 1.353 . S
C129 O128 1.286 . S
C129 C131 1.363 . S
C130 C120 1.465 . S
C130 U126 2.847 . S
C130 O144 1.249 . S
C130 O145 1.202 . S
C131 C129 1.363 . S
C131 C133 1.408 . S
C131 C136 1.342 . S
C132 C133 1.310 . S
C132 C135 1.461 . S
C132 H152 0.932 . S
C133 C131 1.408 . S
C133 C132 1.310 . S
C133 H153 0.930 . S
C134 C135 1.474 . S
C134 C136 1.285 . S
C134 H154 0.929 . S
C135 C132 1.461 . S
C135 C134 1.474 . S
C136 C131 1.342 . S
C136 C134 1.285 . S
C136 H155 0.930 . S
C137 C140 1.424 . S
C137 C142 1.245 . S
C137 C143 1.428 . S
C138 C141 1.260 . S
C138 C142 1.477 . S
C138 H156 0.932 . S
C139 C140 1.384 . S
C139 C141 1.479 . S
C139 H157 0.929 . S
C140 C137 1.424 . S
C140 C139 1.384 . S
C140 H158 0.928 . S
C141 C138 1.260 . S
C141 C139 1.479 . S
C142 C137 1.245 . S
C142 C138 1.477 . S
C142 H159 0.932 . S
C143 U126 2.882 . S
C143 C137 1.428 . S
C143 O146 1.301 . S
C143 O147 1.282 . S
O144 U126 2.441 . S
O144 C130 1.249 . S
O145 U126 2.420 . S
O145 C130 1.202 . S
O146 U126 2.455 . S
O146 C143 1.301 . S
O147 U126 2.449 . S
O147 C143 1.282 . S
H148 C121 0.931 . S
H149 C123 0.929 . S
H150 C124 0.930 . S
H151 C125 0.931 . S
H152 C132 0.932 . S
H153 C133 0.930 . S
H154 C134 0.929 . S
H155 C136 0.930 . S
H156 C138 0.932 . S
H157 C139 0.929 . S
H158 C140 0.928 . S
H159 C142 0.932 . S
C160 C161 1.264 . S
C160 C165 1.479 . S
C160 C170 1.465 . S
C161 C160 1.264 . S
C161 C163 1.339 . S
C161 H188 0.931 . S
C162 C163 1.395 . S
C162 C164 1.320 . S
C163 C161 1.339 . S
C163 C162 1.395 . S
C163 H189 0.929 . S
C164 C162 1.320 . S
C164 C165 1.405 . S
C164 H190 0.930 . S
C165 C160 1.479 . S
C165 C164 1.405 . S
C165 H191 0.931 . S
U166 O167 2.454 . S
U166 O168 2.458 . S
U166 C169 2.984 . S
U166 C170 2.847 . S
U166 C183 2.882 . S
U166 O184 2.441 . S
U166 O185 2.420 . S
U166 O186 2.455 . S
U166 O187 2.449 . S
O167 U166 2.454 . S
O167 C169 1.353 . S
O168 U166 2.458 . S
O168 C169 1.286 . S
C169 U166 2.984 . S
C169 O167 1.353 . S
C169 O168 1.286 . S
C169 C171 1.363 . S
C170 C160 1.465 . S
C170 U166 2.847 . S
C170 O184 1.249 . S
C170 O185 1.202 . S
C171 C169 1.363 . S
C171 C173 1.408 . S
C171 C176 1.342 . S
C172 C173 1.310 . S
C172 C175 1.461 . S
C172 H192 0.932 . S
C173 C171 1.408 . S
C173 C172 1.310 . S
C173 H193 0.930 . S
C174 C175 1.474 . S
C174 C176 1.285 . S
C174 H194 0.929 . S
C175 C172 1.461 . S
C175 C174 1.474 . S
C176 C171 1.342 . S
C176 C174 1.285 . S
C176 H195 0.930 . S
C177 C180 1.424 . S
C177 C182 1.245 . S
C177 C183 1.428 . S
C178 C181 1.260 . S
C178 C182 1.477 . S
C178 H196 0.932 . S
C179 C180 1.384 . S
C179 C181 1.479 . S
C179 H197 0.929 . S
C180 C177 1.424 . S
C180 C179 1.384 . S
C180 H198 0.928 . S
C181 C178 1.260 . S
C181 C179 1.479 . S
C182 C177 1.245 . S
C182 C178 1.477 . S
C182 H199 0.932 . S
C183 U166 2.882 . S
C183 C177 1.428 . S
C183 O186 1.301 . S
C183 O187 1.282 . S
O184 U166 2.441 . S
O184 C170 1.249 . S
O185 U166 2.420 . S
O185 C170 1.202 . S
O186 U166 2.455 . S
O186 C183 1.301 . S
O187 U166 2.449 . S
O187 C183 1.282 . S
H188 C161 0.931 . S
H189 C163 0.929 . S
H190 C164 0.930 . S
H191 C165 0.931 . S
H192 C172 0.932 . S
H193 C173 0.930 . S
H194 C174 0.929 . S
H195 C176 0.930 . S
H196 C178 0.932 . S
H197 C179 0.929 . S
H198 C180 0.928 . S
H199 C182 0.932 . S
C200 C201 1.264 . S
C200 C205 1.479 . S
C200 C210 1.465 . S
C201 C200 1.264 . S
C201 C203 1.339 . S
C201 H228 0.931 . S
C202 C203 1.395 . S
C202 C204 1.320 . S
C203 C201 1.339 . S
C203 C202 1.395 . S
C203 H229 0.929 . S
C204 C202 1.320 . S
C204 C205 1.405 . S
C204 H230 0.930 . S
C205 C200 1.479 . S
C205 C204 1.405 . S
C205 H231 0.931 . S
U206 O207 2.454 . S
U206 O208 2.458 . S
U206 C209 2.984 . S
U206 C210 2.847 . S
U206 C223 2.882 . S
U206 O224 2.441 . S
U206 O225 2.420 . S
U206 O226 2.455 . S
U206 O227 2.449 . S
O207 U206 2.454 . S
O207 C209 1.353 . S
O208 U206 2.458 . S
O208 C209 1.286 . S
C209 U206 2.984 . S
C209 O207 1.353 . S
C209 O208 1.286 . S
C209 C211 1.363 . S
C210 C200 1.465 . S
C210 U206 2.847 . S
C210 O224 1.249 . S
C210 O225 1.202 . S
C211 C209 1.363 . S
C211 C213 1.408 . S
C211 C216 1.342 . S
C212 C213 1.310 . S
C212 C215 1.461 . S
C212 H232 0.932 . S
C213 C211 1.408 . S
C213 C212 1.310 . S
C213 H233 0.930 . S
C214 C215 1.474 . S
C214 C216 1.285 . S
C214 H234 0.929 . S
C215 C212 1.461 . S
C215 C214 1.474 . S
C216 C211 1.342 . S
C216 C214 1.285 . S
C216 H235 0.930 . S
C217 C220 1.424 . S
C217 C222 1.245 . S
C217 C223 1.428 . S
C218 C221 1.260 . S
C218 C222 1.477 . S
C218 H236 0.932 . S
C219 C220 1.384 . S
C219 C221 1.479 . S
C219 H237 0.929 . S
C220 C217 1.424 . S
C220 C219 1.384 . S
C220 H238 0.928 . S
C221 C218 1.260 . S
C221 C219 1.479 . S
C222 C217 1.245 . S
C222 C218 1.477 . S
C222 H239 0.932 . S
C223 U206 2.882 . S
C223 C217 1.428 . S
C223 O226 1.301 . S
C223 O227 1.282 . S
O224 U206 2.441 . S
O224 C210 1.249 . S
O225 U206 2.420 . S
O225 C210 1.202 . S
O226 U206 2.455 . S
O226 C223 1.301 . S
O227 U206 2.449 . S
O227 C223 1.282 . S
H228 C201 0.931 . S
H229 C203 0.929 . S
H230 C204 0.930 . S
H231 C205 0.931 . S
H232 C212 0.932 . S
H233 C213 0.930 . S
H234 C214 0.929 . S
H235 C216 0.930 . S
H236 C218 0.932 . S
H237 C219 0.929 . S
H238 C220 0.928 . S
H239 C222 0.932 . S
C240 C241 1.264 . S
C240 C245 1.479 . S
C240 C250 1.465 . S
C241 C240 1.264 . S
C241 C243 1.339 . S
C241 H268 0.931 . S
C242 C243 1.395 . S
C242 C244 1.320 . S
C243 C241 1.339 . S
C243 C242 1.395 . S
C243 H269 0.929 . S
C244 C242 1.320 . S
C244 C245 1.405 . S
C244 H270 0.930 . S
C245 C240 1.479 . S
C245 C244 1.405 . S
C245 H271 0.931 . S
U246 O247 2.454 . S
U246 O248 2.458 . S
U246 C249 2.984 . S
U246 C250 2.847 . S
U246 C263 2.882 . S
U246 O264 2.441 . S
U246 O265 2.420 . S
U246 O266 2.455 . S
U246 O267 2.449 . S
O247 U246 2.454 . S
O247 C249 1.353 . S
O248 U246 2.458 . S
O248 C249 1.286 . S
C249 U246 2.984 . S
C249 O247 1.353 . S
C249 O248 1.286 . S
C249 C251 1.363 . S
C250 C240 1.465 . S
C250 U246 2.847 . S
C250 O264 1.249 . S
C250 O265 1.202 . S
C251 C249 1.363 . S
C251 C253 1.408 . S
C251 C256 1.342 . S
C252 C253 1.310 . S
C252 C255 1.461 . S
C252 H272 0.932 . S
C253 C251 1.408 . S
C253 C252 1.310 . S
C253 H273 0.930 . S
C254 C255 1.474 . S
C254 C256 1.285 . S
C254 H274 0.929 . S
C255 C252 1.461 . S
C255 C254 1.474 . S
C256 C251 1.342 . S
C256 C254 1.285 . S
C256 H275 0.930 . S
C257 C260 1.424 . S
C257 C262 1.245 . S
C257 C263 1.428 . S
C258 C261 1.260 . S
C258 C262 1.477 . S
C258 H276 0.932 . S
C259 C260 1.384 . S
C259 C261 1.479 . S
C259 H277 0.929 . S
C260 C257 1.424 . S
C260 C259 1.384 . S
C260 H278 0.928 . S
C261 C258 1.260 . S
C261 C259 1.479 . S
C262 C257 1.245 . S
C262 C258 1.477 . S
C262 H279 0.932 . S
C263 U246 2.882 . S
C263 C257 1.428 . S
C263 O266 1.301 . S
C263 O267 1.282 . S
O264 U246 2.441 . S
O264 C250 1.249 . S
O265 U246 2.420 . S
O265 C250 1.202 . S
O266 U246 2.455 . S
O266 C263 1.301 . S
O267 U246 2.449 . S
O267 C263 1.282 . S
H268 C241 0.931 . S
H269 C243 0.929 . S
H270 C244 0.930 . S
H271 C245 0.931 . S
H272 C252 0.932 . S
H273 C253 0.930 . S
H274 C254 0.929 . S
H275 C256 0.930 . S
H276 C258 0.932 . S
H277 C259 0.929 . S
H278 C260 0.928 . S
H279 C262 0.932 . S
C280 C281 1.264 . S
C280 C285 1.479 . S
C280 C290 1.465 . S
C281 C280 1.264 . S
C281 C283 1.339 . S
C281 H308 0.931 . S
C282 C283 1.395 . S
C282 C284 1.320 . S
C283 C281 1.339 . S
C283 C282 1.395 . S
C283 H309 0.929 . S
C284 C282 1.320 . S
C284 C285 1.405 . S
C284 H310 0.930 . S
C285 C280 1.479 . S
C285 C284 1.405 . S
C285 H311 0.931 . S
U286 O287 2.454 . S
U286 O288 2.458 . S
U286 C289 2.984 . S
U286 C290 2.847 . S
U286 C303 2.882 . S
U286 O304 2.441 . S
U286 O305 2.420 . S
U286 O306 2.455 . S
U286 O307 2.449 . S
O287 U286 2.454 . S
O287 C289 1.353 . S
O288 U286 2.458 . S
O288 C289 1.286 . S
C289 U286 2.984 . S
C289 O287 1.353 . S
C289 O288 1.286 . S
C289 C291 1.363 . S
C290 C280 1.465 . S
C290 U286 2.847 . S
C290 O304 1.249 . S
C290 O305 1.202 . S
C291 C289 1.363 . S
C291 C293 1.408 . S
C291 C296 1.342 . S
C292 C293 1.310 . S
C292 C295 1.461 . S
C292 H312 0.932 . S
C293 C291 1.408 . S
C293 C292 1.310 . S
C293 H313 0.930 . S
C294 C295 1.474 . S
C294 C296 1.285 . S
C294 H314 0.929 . S
C295 C292 1.461 . S
C295 C294 1.474 . S
C296 C291 1.342 . S
C296 C294 1.285 . S
C296 H315 0.930 . S
C297 C300 1.424 . S
C297 C302 1.245 . S
C297 C303 1.428 . S
C298 C301 1.260 . S
C298 C302 1.477 . S
C298 H316 0.932 . S
C299 C300 1.384 . S
C299 C301 1.479 . S
C299 H317 0.929 . S
C300 C297 1.424 . S
C300 C299 1.384 . S
C300 H318 0.928 . S
C301 C298 1.260 . S
C301 C299 1.479 . S
C302 C297 1.245 . S
C302 C298 1.477 . S
C302 H319 0.932 . S
C303 U286 2.882 . S
C303 C297 1.428 . S
C303 O306 1.301 . S
C303 O307 1.282 . S
O304 U286 2.441 . S
O304 C290 1.249 . S
O305 U286 2.420 . S
O305 C290 1.202 . S
O306 U286 2.455 . S
O306 C303 1.301 . S
O307 U286 2.449 . S
O307 C303 1.282 . S
H308 C281 0.931 . S
H309 C283 0.929 . S
H310 C284 0.930 . S
H311 C285 0.931 . S
H312 C292 0.932 . S
H313 C293 0.930 . S
H314 C294 0.929 . S
H315 C296 0.930 . S
H316 C298 0.932 . S
H317 C299 0.929 . S
H318 C300 0.928 . S
H319 C302 0.932 . S
C320 C321 1.264 . S
C320 C325 1.479 . S
C320 C330 1.465 . S
C321 C320 1.264 . S
C321 C323 1.339 . S
C321 H348 0.931 . S
C322 C323 1.395 . S
C322 C324 1.320 . S
C323 C321 1.339 . S
C323 C322 1.395 . S
C323 H349 0.929 . S
C324 C322 1.320 . S
C324 C325 1.405 . S
C324 H350 0.930 . S
C325 C320 1.479 . S
C325 C324 1.405 . S
C325 H351 0.931 . S
U326 O327 2.454 . S
U326 O328 2.458 . S
U326 C329 2.984 . S
U326 C330 2.847 . S
U326 C343 2.882 . S
U326 O344 2.441 . S
U326 O345 2.420 . S
U326 O346 2.455 . S
U326 O347 2.449 . S
O327 U326 2.454 . S
O327 C329 1.353 . S
O328 U326 2.458 . S
O328 C329 1.286 . S
C329 U326 2.984 . S
C329 O327 1.353 . S
C329 O328 1.286 . S
C329 C331 1.363 . S
C330 C320 1.465 . S
C330 U326 2.847 . S
C330 O344 1.249 . S
C330 O345 1.202 . S
C331 C329 1.363 . S
C331 C333 1.408 . S
C331 C336 1.342 . S
C332 C333 1.310 . S
C332 C335 1.461 . S
C332 H352 0.932 . S
C333 C331 1.408 . S
C333 C332 1.310 . S
C333 H353 0.930 . S
C334 C335 1.474 . S
C334 C336 1.285 . S
C334 H354 0.929 . S
C335 C332 1.461 . S
C335 C334 1.474 . S
C336 C331 1.342 . S
C336 C334 1.285 . S
C336 H355 0.930 . S
C337 C340 1.424 . S
C337 C342 1.245 . S
C337 C343 1.428 . S
C338 C341 1.260 . S
C338 C342 1.477 . S
C338 H356 0.932 . S
C339 C340 1.384 . S
C339 C341 1.479 . S
C339 H357 0.929 . S
C340 C337 1.424 . S
C340 C339 1.384 . S
C340 H358 0.928 . S
C341 C338 1.260 . S
C341 C339 1.479 . S
C342 C337 1.245 . S
C342 C338 1.477 . S
C342 H359 0.932 . S
C343 U326 2.882 . S
C343 C337 1.428 . S
C343 O346 1.301 . S
C343 O347 1.282 . S
O344 U326 2.441 . S
O344 C330 1.249 . S
O345 U326 2.420 . S
O345 C330 1.202 . S
O346 U326 2.455 . S
O346 C343 1.301 . S
O347 U326 2.449 . S
O347 C343 1.282 . S
H348 C321 0.931 . S
H349 C323 0.929 . S
H350 C324 0.930 . S
H351 C325 0.931 . S
H352 C332 0.932 . S
H353 C333 0.930 . S
H354 C334 0.929 . S
H355 C336 0.930 . S
H356 C338 0.932 . S
H357 C339 0.929 . S
H358 C340 0.928 . S
H359 C342 0.932 . S
C360 C361 1.264 . S
C360 C365 1.479 . S
C360 C370 1.465 . S
C361 C360 1.264 . S
C361 C363 1.339 . S
C361 H388 0.931 . S
C362 C363 1.395 . S
C362 C364 1.320 . S
C363 C361 1.339 . S
C363 C362 1.395 . S
C363 H389 0.929 . S
C364 C362 1.320 . S
C364 C365 1.405 . S
C364 H390 0.930 . S
C365 C360 1.479 . S
C365 C364 1.405 . S
C365 H391 0.931 . S
U366 O367 2.454 . S
U366 O368 2.458 . S
U366 C369 2.984 . S
U366 C370 2.847 . S
U366 C383 2.882 . S
U366 O384 2.441 . S
U366 O385 2.420 . S
U366 O386 2.455 . S
U366 O387 2.449 . S
O367 U366 2.454 . S
O367 C369 1.353 . S
O368 U366 2.458 . S
O368 C369 1.286 . S
C369 U366 2.984 . S
C369 O367 1.353 . S
C369 O368 1.286 . S
C369 C371 1.363 . S
C370 C360 1.465 . S
C370 U366 2.847 . S
C370 O384 1.249 . S
C370 O385 1.202 . S
C371 C369 1.363 . S
C371 C373 1.408 . S
C371 C376 1.342 . S
C372 C373 1.310 . S
C372 C375 1.461 . S
C372 H392 0.932 . S
C373 C371 1.408 . S
C373 C372 1.310 . S
C373 H393 0.930 . S
C374 C375 1.474 . S
C374 C376 1.285 . S
C374 H394 0.929 . S
C375 C372 1.461 . S
C375 C374 1.474 . S
C376 C371 1.342 . S
C376 C374 1.285 . S
C376 H395 0.930 . S
C377 C380 1.424 . S
C377 C382 1.245 . S
C377 C383 1.428 . S
C378 C381 1.260 . S
C378 C382 1.477 . S
C378 H396 0.932 . S
C379 C380 1.384 . S
C379 C381 1.479 . S
C379 H397 0.929 . S
C380 C377 1.424 . S
C380 C379 1.384 . S
C380 H398 0.928 . S
C381 C378 1.260 . S
C381 C379 1.479 . S
C382 C377 1.245 . S
C382 C378 1.477 . S
C382 H399 0.932 . S
C383 U366 2.882 . S
C383 C377 1.428 . S
C383 O386 1.301 . S
C383 O387 1.282 . S
O384 U366 2.441 . S
O384 C370 1.249 . S
O385 U366 2.420 . S
O385 C370 1.202 . S
O386 U366 2.455 . S
O386 C383 1.301 . S
O387 U366 2.449 . S
O387 C383 1.282 . S
H388 C361 0.931 . S
H389 C363 0.929 . S
H390 C364 0.930 . S
H391 C365 0.931 . S
H392 C372 0.932 . S
H393 C373 0.930 . S
H394 C374 0.929 . S
H395 C376 0.930 . S
H396 C378 0.932 . S
H397 C379 0.929 . S
H398 C380 0.928 . S
H399 C382 0.932 . S
C400 C401 1.264 . S
C400 C405 1.479 . S
C400 C410 1.465 . S
C401 C400 1.264 . S
C401 C403 1.339 . S
C401 H428 0.931 . S
C402 C403 1.395 . S
C402 C404 1.320 . S
C403 C401 1.339 . S
C403 C402 1.395 . S
C403 H429 0.929 . S
C404 C402 1.320 . S
C404 C405 1.405 . S
C404 H430 0.930 . S
C405 C400 1.479 . S
C405 C404 1.405 . S
C405 H431 0.931 . S
U406 O407 2.454 . S
U406 O408 2.458 . S
U406 C409 2.984 . S
U406 C410 2.847 . S
U406 C423 2.882 . S
U406 O424 2.441 . S
U406 O425 2.420 . S
U406 O426 2.455 . S
U406 O427 2.449 . S
O407 U406 2.454 . S
O407 C409 1.353 . S
O408 U406 2.458 . S
O408 C409 1.286 . S
C409 U406 2.984 . S
C409 O407 1.353 . S
C409 O408 1.286 . S
C409 C411 1.363 . S
C410 C400 1.465 . S
C410 U406 2.847 . S
C410 O424 1.249 . S
C410 O425 1.202 . S
C411 C409 1.363 . S
C411 C413 1.408 . S
C411 C416 1.342 . S
C412 C413 1.310 . S
C412 C415 1.461 . S
C412 H432 0.932 . S
C413 C411 1.408 . S
C413 C412 1.310 . S
C413 H433 0.930 . S
C414 C415 1.474 . S
C414 C416 1.285 . S
C414 H434 0.929 . S
C415 C412 1.461 . S
C415 C414 1.474 . S
C416 C411 1.342 . S
C416 C414 1.285 . S
C416 H435 0.930 . S
C417 C420 1.424 . S
C417 C422 1.245 . S
C417 C423 1.428 . S
C418 C421 1.260 . S
C418 C422 1.477 . S
C418 H436 0.932 . S
C419 C420 1.384 . S
C419 C421 1.479 . S
C419 H437 0.929 . S
C420 C417 1.424 . S
C420 C419 1.384 . S
C420 H438 0.928 . S
C421 C418 1.260 . S
C421 C419 1.479 . S
C422 C417 1.245 . S
C422 C418 1.477 . S
C422 H439 0.932 . S
C423 U406 2.882 . S
C423 C417 1.428 . S
C423 O426 1.301 . S
C423 O427 1.282 . S
O424 U406 2.441 . S
O424 C410 1.249 . S
O425 U406 2.420 . S
O425 C410 1.202 . S
O426 U406 2.455 . S
O426 C423 1.301 . S
O427 U406 2.449 . S
O427 C423 1.282 . S
H428 C401 0.931 . S
H429 C403 0.929 . S
H430 C404 0.930 . S
H431 C405 0.931 . S
H432 C412 0.932 . S
H433 C413 0.930 . S
H434 C414 0.929 . S
H435 C416 0.930 . S
H436 C418 0.932 . S
H437 C419 0.929 . S
H438 C420 0.928 . S
H439 C422 0.932 . S
C440 C441 1.264 . S
C440 C445 1.479 . S
C440 C450 1.465 . S
C441 C440 1.264 . S
C441 C443 1.339 . S
C441 H468 0.931 . S
C442 C443 1.395 . S
C442 C444 1.320 . S
C443 C441 1.339 . S
C443 C442 1.395 . S
C443 H469 0.929 . S
C444 C442 1.320 . S
C444 C445 1.405 . S
C444 H470 0.930 . S
C445 C440 1.479 . S
C445 C444 1.405 . S
C445 H471 0.931 . S
U446 O447 2.454 . S
U446 O448 2.458 . S
U446 C449 2.984 . S
U446 C450 2.847 . S
U446 C463 2.882 . S
U446 O464 2.441 . S
U446 O465 2.420 . S
U446 O466 2.455 . S
U446 O467 2.449 . S
O447 U446 2.454 . S
O447 C449 1.353 . S
O448 U446 2.458 . S
O448 C449 1.286 . S
C449 U446 2.984 . S
C449 O447 1.353 . S
C449 O448 1.286 . S
C449 C451 1.363 . S
C450 C440 1.465 . S
C450 U446 2.847 . S
C450 O464 1.249 . S
C450 O465 1.202 . S
C451 C449 1.363 . S
C451 C453 1.408 . S
C451 C456 1.342 . S
C452 C453 1.310 . S
C452 C455 1.461 . S
C452 H472 0.932 . S
C453 C451 1.408 . S
C453 C452 1.310 . S
C453 H473 0.930 . S
C454 C455 1.474 . S
C454 C456 1.285 . S
C454 H474 0.929 . S
C455 C452 1.461 . S
C455 C454 1.474 . S
C456 C451 1.342 . S
C456 C454 1.285 . S
C456 H475 0.930 . S
C457 C460 1.424 . S
C457 C462 1.245 . S
C457 C463 1.428 . S
C458 C461 1.260 . S
C458 C462 1.477 . S
C458 H476 0.932 . S
C459 C460 1.384 . S
C459 C461 1.479 . S
C459 H477 0.929 . S
C460 C457 1.424 . S
C460 C459 1.384 . S
C460 H478 0.928 . S
C461 C458 1.260 . S
C461 C459 1.479 . S
C462 C457 1.245 . S
C462 C458 1.477 . S
C462 H479 0.932 . S
C463 U446 2.882 . S
C463 C457 1.428 . S
C463 O466 1.301 . S
C463 O467 1.282 . S
O464 U446 2.441 . S
O464 C450 1.249 . S
O465 U446 2.420 . S
O465 C450 1.202 . S
O466 U446 2.455 . S
O466 C463 1.301 . S
O467 U446 2.449 . S
O467 C463 1.282 . S
H468 C441 0.931 . S
H469 C443 0.929 . S
H470 C444 0.930 . S
H471 C445 0.931 . S
H472 C452 0.932 . S
H473 C453 0.930 . S
H474 C454 0.929 . S
H475 C456 0.930 . S
H476 C458 0.932 . S
H477 C459 0.929 . S
H478 C460 0.928 . S
H479 C462 0.932 . S
C480 C481 1.264 . S
C480 C485 1.479 . S
C480 C490 1.465 . S
C481 C480 1.264 . S
C481 C483 1.339 . S
C481 H508 0.931 . S
C482 C483 1.395 . S
C482 C484 1.320 . S
C483 C481 1.339 . S
C483 C482 1.395 . S
C483 H509 0.929 . S
C484 C482 1.320 . S
C484 C485 1.405 . S
C484 H510 0.930 . S
C485 C480 1.479 . S
C485 C484 1.405 . S
C485 H511 0.931 . S
U486 O487 2.454 . S
U486 O488 2.458 . S
U486 C489 2.984 . S
U486 C490 2.847 . S
U486 C503 2.882 . S
U486 O504 2.441 . S
U486 O505 2.420 . S
U486 O506 2.455 . S
U486 O507 2.449 . S
O487 U486 2.454 . S
O487 C489 1.353 . S
O488 U486 2.458 . S
O488 C489 1.286 . S
C489 U486 2.984 . S
C489 O487 1.353 . S
C489 O488 1.286 . S
C489 C491 1.363 . S
C490 C480 1.465 . S
C490 U486 2.847 . S
C490 O504 1.249 . S
C490 O505 1.202 . S
C491 C489 1.363 . S
C491 C493 1.408 . S
C491 C496 1.342 . S
C492 C493 1.310 . S
C492 C495 1.461 . S
C492 H512 0.932 . S
C493 C491 1.408 . S
C493 C492 1.310 . S
C493 H513 0.930 . S
C494 C495 1.474 . S
C494 C496 1.285 . S
C494 H514 0.929 . S
C495 C492 1.461 . S
C495 C494 1.474 . S
C496 C491 1.342 . S
C496 C494 1.285 . S
C496 H515 0.930 . S
C497 C500 1.424 . S
C497 C502 1.245 . S
C497 C503 1.428 . S
C498 C501 1.260 . S
C498 C502 1.477 . S
C498 H516 0.932 . S
C499 C500 1.384 . S
C499 C501 1.479 . S
C499 H517 0.929 . S
C500 C497 1.424 . S
C500 C499 1.384 . S
C500 H518 0.928 . S
C501 C498 1.260 . S
C501 C499 1.479 . S
C502 C497 1.245 . S
C502 C498 1.477 . S
C502 H519 0.932 . S
C503 U486 2.882 . S
C503 C497 1.428 . S
C503 O506 1.301 . S
C503 O507 1.282 . S
O504 U486 2.441 . S
O504 C490 1.249 . S
O505 U486 2.420 . S
O505 C490 1.202 . S
O506 U486 2.455 . S
O506 C503 1.301 . S
O507 U486 2.449 . S
O507 C503 1.282 . S
H508 C481 0.931 . S
H509 C483 0.929 . S
H510 C484 0.930 . S
H511 C485 0.931 . S
H512 C492 0.932 . S
H513 C493 0.930 . S
H514 C494 0.929 . S
H515 C496 0.930 . S
H516 C498 0.932 . S
H517 C499 0.929 . S
H518 C500 0.928 . S
H519 C502 0.932 . S
C520 C521 1.264 . S
C520 C525 1.479 . S
C520 C530 1.465 . S
C521 C520 1.264 . S
C521 C523 1.339 . S
C521 H548 0.931 . S
C522 C523 1.395 . S
C522 C524 1.320 . S
C523 C521 1.339 . S
C523 C522 1.395 . S
C523 H549 0.929 . S
C524 C522 1.320 . S
C524 C525 1.405 . S
C524 H550 0.930 . S
C525 C520 1.479 . S
C525 C524 1.405 . S
C525 H551 0.931 . S
U526 O527 2.454 . S
U526 O528 2.458 . S
U526 C529 2.984 . S
U526 C530 2.847 . S
U526 C543 2.882 . S
U526 O544 2.441 . S
U526 O545 2.420 . S
U526 O546 2.455 . S
U526 O547 2.449 . S
O527 U526 2.454 . S
O527 C529 1.353 . S
O528 U526 2.458 . S
O528 C529 1.286 . S
C529 U526 2.984 . S
C529 O527 1.353 . S
C529 O528 1.286 . S
C529 C531 1.363 . S
C530 C520 1.465 . S
C530 U526 2.847 . S
C530 O544 1.249 . S
C530 O545 1.202 . S
C531 C529 1.363 . S
C531 C533 1.408 . S
C531 C536 1.342 . S
C532 C533 1.310 . S
C532 C535 1.461 . S
C532 H552 0.932 . S
C533 C531 1.408 . S
C533 C532 1.310 . S
C533 H553 0.930 . S
C534 C535 1.474 . S
C534 C536 1.285 . S
C534 H554 0.929 . S
C535 C532 1.461 . S
C535 C534 1.474 . S
C536 C531 1.342 . S
C536 C534 1.285 . S
C536 H555 0.930 . S
C537 C540 1.424 . S
C537 C542 1.245 . S
C537 C543 1.428 . S
C538 C541 1.260 . S
C538 C542 1.477 . S
C538 H556 0.932 . S
C539 C540 1.384 . S
C539 C541 1.479 . S
C539 H557 0.929 . S
C540 C537 1.424 . S
C540 C539 1.384 . S
C540 H558 0.928 . S
C541 C538 1.260 . S
C541 C539 1.479 . S
C542 C537 1.245 . S
C542 C538 1.477 . S
C542 H559 0.932 . S
C543 U526 2.882 . S
C543 C537 1.428 . S
C543 O546 1.301 . S
C543 O547 1.282 . S
O544 U526 2.441 . S
O544 C530 1.249 . S
O545 U526 2.420 . S
O545 C530 1.202 . S
O546 U526 2.455 . S
O546 C543 1.301 . S
O547 U526 2.449 . S
O547 C543 1.282 . S
H548 C521 0.931 . S
H549 C523 0.929 . S
H550 C524 0.930 . S
H551 C525 0.931 . S
H552 C532 0.932 . S
H553 C533 0.930 . S
H554 C534 0.929 . S
H555 C536 0.930 . S
H556 C538 0.932 . S
H557 C539 0.929 . S
H558 C540 0.928 . S
H559 C542 0.932 . S
C560 C561 1.264 . S
C560 C565 1.479 . S
C560 C570 1.465 . S
C561 C560 1.264 . S
C561 C563 1.339 . S
C561 H588 0.931 . S
C562 C563 1.395 . S
C562 C564 1.320 . S
C563 C561 1.339 . S
C563 C562 1.395 . S
C563 H589 0.929 . S
C564 C562 1.320 . S
C564 C565 1.405 . S
C564 H590 0.930 . S
C565 C560 1.479 . S
C565 C564 1.405 . S
C565 H591 0.931 . S
U566 O567 2.454 . S
U566 O568 2.458 . S
U566 C569 2.984 . S
U566 C570 2.847 . S
U566 C583 2.882 . S
U566 O584 2.441 . S
U566 O585 2.420 . S
U566 O586 2.455 . S
U566 O587 2.449 . S
O567 U566 2.454 . S
O567 C569 1.353 . S
O568 U566 2.458 . S
O568 C569 1.286 . S
C569 U566 2.984 . S
C569 O567 1.353 . S
C569 O568 1.286 . S
C569 C571 1.363 . S
C570 C560 1.465 . S
C570 U566 2.847 . S
C570 O584 1.249 . S
C570 O585 1.202 . S
C571 C569 1.363 . S
C571 C573 1.408 . S
C571 C576 1.342 . S
C572 C573 1.310 . S
C572 C575 1.461 . S
C572 H592 0.932 . S
C573 C571 1.408 . S
C573 C572 1.310 . S
C573 H593 0.930 . S
C574 C575 1.474 . S
C574 C576 1.285 . S
C574 H594 0.929 . S
C575 C572 1.461 . S
C575 C574 1.474 . S
C576 C571 1.342 . S
C576 C574 1.285 . S
C576 H595 0.930 . S
C577 C580 1.424 . S
C577 C582 1.245 . S
C577 C583 1.428 . S
C578 C581 1.260 . S
C578 C582 1.477 . S
C578 H596 0.932 . S
C579 C580 1.384 . S
C579 C581 1.479 . S
C579 H597 0.929 . S
C580 C577 1.424 . S
C580 C579 1.384 . S
C580 H598 0.928 . S
C581 C578 1.260 . S
C581 C579 1.479 . S
C582 C577 1.245 . S
C582 C578 1.477 . S
C582 H599 0.932 . S
C583 U566 2.882 . S
C583 C577 1.428 . S
C583 O586 1.301 . S
C583 O587 1.282 . S
O584 U566 2.441 . S
O584 C570 1.249 . S
O585 U566 2.420 . S
O585 C570 1.202 . S
O586 U566 2.455 . S
O586 C583 1.301 . S
O587 U566 2.449 . S
O587 C583 1.282 . S
H588 C561 0.931 . S
H589 C563 0.929 . S
H590 C564 0.930 . S
H591 C565 0.931 . S
H592 C572 0.932 . S
H593 C573 0.930 . S
H594 C574 0.929 . S
H595 C576 0.930 . S
H596 C578 0.932 . S
H597 C579 0.929 . S
H598 C580 0.928 . S
H599 C582 0.932 . S
C600 C601 1.264 . S
C600 C605 1.479 . S
C600 C610 1.465 . S
C601 C600 1.264 . S
C601 C603 1.339 . S
C601 H628 0.931 . S
C602 C603 1.395 . S
C602 C604 1.320 . S
C603 C601 1.339 . S
C603 C602 1.395 . S
C603 H629 0.929 . S
C604 C602 1.320 . S
C604 C605 1.405 . S
C604 H630 0.930 . S
C605 C600 1.479 . S
C605 C604 1.405 . S
C605 H631 0.931 . S
U606 O607 2.454 . S
U606 O608 2.458 . S
U606 C609 2.984 . S
U606 C610 2.847 . S
U606 C623 2.882 . S
U606 O624 2.441 . S
U606 O625 2.420 . S
U606 O626 2.455 . S
U606 O627 2.449 . S
O607 U606 2.454 . S
O607 C609 1.353 . S
O608 U606 2.458 . S
O608 C609 1.286 . S
C609 U606 2.984 . S
C609 O607 1.353 . S
C609 O608 1.286 . S
C609 C611 1.363 . S
C610 C600 1.465 . S
C610 U606 2.847 . S
C610 O624 1.249 . S
C610 O625 1.202 . S
C611 C609 1.363 . S
C611 C613 1.408 . S
C611 C616 1.342 . S
C612 C613 1.310 . S
C612 C615 1.461 . S
C612 H632 0.932 . S
C613 C611 1.408 . S
C613 C612 1.310 . S
C613 H633 0.930 . S
C614 C615 1.474 . S
C614 C616 1.285 . S
C614 H634 0.929 . S
C615 C612 1.461 . S
C615 C614 1.474 . S
C616 C611 1.342 . S
C616 C614 1.285 . S
C616 H635 0.930 . S
C617 C620 1.424 . S
C617 C622 1.245 . S
C617 C623 1.428 . S
C618 C621 1.260 . S
C618 C622 1.477 . S
C618 H636 0.932 . S
C619 C620 1.384 . S
C619 C621 1.479 . S
C619 H637 0.929 . S
C620 C617 1.424 . S
C620 C619 1.384 . S
C620 H638 0.928 . S
C621 C618 1.260 . S
C621 C619 1.479 . S
C622 C617 1.245 . S
C622 C618 1.477 . S
C622 H639 0.932 . S
C623 U606 2.882 . S
C623 C617 1.428 . S
C623 O626 1.301 . S
C623 O627 1.282 . S
O624 U606 2.441 . S
O624 C610 1.249 . S
O625 U606 2.420 . S
O625 C610 1.202 . S
O626 U606 2.455 . S
O626 C623 1.301 . S
O627 U606 2.449 . S
O627 C623 1.282 . S
H628 C601 0.931 . S
H629 C603 0.929 . S
H630 C604 0.930 . S
H631 C605 0.931 . S
H632 C612 0.932 . S
H633 C613 0.930 . S
H634 C614 0.929 . S
H635 C616 0.930 . S
H636 C618 0.932 . S
H637 C619 0.929 . S
H638 C620 0.928 . S
H639 C622 0.932 . S
C640 C641 1.264 . S
C640 C645 1.479 . S
C640 C650 1.465 . S
C641 C640 1.264 . S
C641 C643 1.339 . S
C641 H668 0.931 . S
C642 C643 1.395 . S
C642 C644 1.320 . S
C643 C641 1.339 . S
C643 C642 1.395 . S
C643 H669 0.929 . S
C644 C642 1.320 . S
C644 C645 1.405 . S
C644 H670 0.930 . S
C645 C640 1.479 . S
C645 C644 1.405 . S
C645 H671 0.931 . S
U646 O647 2.454 . S
U646 O648 2.458 . S
U646 C649 2.984 . S
U646 C650 2.847 . S
U646 C663 2.882 . S
U646 O664 2.441 . S
U646 O665 2.420 . S
U646 O666 2.455 . S
U646 O667 2.449 . S
O647 U646 2.454 . S
O647 C649 1.353 . S
O648 U646 2.458 . S
O648 C649 1.286 . S
C649 U646 2.984 . S
C649 O647 1.353 . S
C649 O648 1.286 . S
C649 C651 1.363 . S
C650 C640 1.465 . S
C650 U646 2.847 . S
C650 O664 1.249 . S
C650 O665 1.202 . S
C651 C649 1.363 . S
C651 C653 1.408 . S
C651 C656 1.342 . S
C652 C653 1.310 . S
C652 C655 1.461 . S
C652 H672 0.932 . S
C653 C651 1.408 . S
C653 C652 1.310 . S
C653 H673 0.930 . S
C654 C655 1.474 . S
C654 C656 1.285 . S
C654 H674 0.929 . S
C655 C652 1.461 . S
C655 C654 1.474 . S
C656 C651 1.342 . S
C656 C654 1.285 . S
C656 H675 0.930 . S
C657 C660 1.424 . S
C657 C662 1.245 . S
C657 C663 1.428 . S
C658 C661 1.260 . S
C658 C662 1.477 . S
C658 H676 0.932 . S
C659 C660 1.384 . S
C659 C661 1.479 . S
C659 H677 0.929 . S
C660 C657 1.424 . S
C660 C659 1.384 . S
C660 H678 0.928 . S
C661 C658 1.260 . S
C661 C659 1.479 . S
C662 C657 1.245 . S
C662 C658 1.477 . S
C662 H679 0.932 . S
C663 U646 2.882 . S
C663 C657 1.428 . S
C663 O666 1.301 . S
C663 O667 1.282 . S
O664 U646 2.441 . S
O664 C650 1.249 . S
O665 U646 2.420 . S
O665 C650 1.202 . S
O666 U646 2.455 . S
O666 C663 1.301 . S
O667 U646 2.449 . S
O667 C663 1.282 . S
H668 C641 0.931 . S
H669 C643 0.929 . S
H670 C644 0.930 . S
H671 C645 0.931 . S
H672 C652 0.932 . S
H673 C653 0.930 . S
H674 C654 0.929 . S
H675 C656 0.930 . S
H676 C658 0.932 . S
H677 C659 0.929 . S
H678 C660 0.928 . S
H679 C662 0.932 . S
C680 C681 1.264 . S
C680 C685 1.479 . S
C680 C690 1.465 . S
C681 C680 1.264 . S
C681 C683 1.339 . S
C681 H708 0.931 . S
C682 C683 1.395 . S
C682 C684 1.320 . S
C683 C681 1.339 . S
C683 C682 1.395 . S
C683 H709 0.929 . S
C684 C682 1.320 . S
C684 C685 1.405 . S
C684 H710 0.930 . S
C685 C680 1.479 . S
C685 C684 1.405 . S
C685 H711 0.931 . S
U686 O687 2.454 . S
U686 O688 2.458 . S
U686 C689 2.984 . S
U686 C690 2.847 . S
U686 C703 2.882 . S
U686 O704 2.441 . S
U686 O705 2.420 . S
U686 O706 2.455 . S
U686 O707 2.449 . S
O687 U686 2.454 . S
O687 C689 1.353 . S
O688 U686 2.458 . S
O688 C689 1.286 . S
C689 U686 2.984 . S
C689 O687 1.353 . S
C689 O688 1.286 . S
C689 C691 1.363 . S
C690 C680 1.465 . S
C690 U686 2.847 . S
C690 O704 1.249 . S
C690 O705 1.202 . S
C691 C689 1.363 . S
C691 C693 1.408 . S
C691 C696 1.342 . S
C692 C693 1.310 . S
C692 C695 1.461 . S
C692 H712 0.932 . S
C693 C691 1.408 . S
C693 C692 1.310 . S
C693 H713 0.930 . S
C694 C695 1.474 . S
C694 C696 1.285 . S
C694 H714 0.929 . S
C695 C692 1.461 . S
C695 C694 1.474 . S
C696 C691 1.342 . S
C696 C694 1.285 . S
C696 H715 0.930 . S
C697 C700 1.424 . S
C697 C702 1.245 . S
C697 C703 1.428 . S
C698 C701 1.260 . S
C698 C702 1.477 . S
C698 H716 0.932 . S
C699 C700 1.384 . S
C699 C701 1.479 . S
C699 H717 0.929 . S
C700 C697 1.424 . S
C700 C699 1.384 . S
C700 H718 0.928 . S
C701 C698 1.260 . S
C701 C699 1.479 . S
C702 C697 1.245 . S
C702 C698 1.477 . S
C702 H719 0.932 . S
C703 U686 2.882 . S
C703 C697 1.428 . S
C703 O706 1.301 . S
C703 O707 1.282 . S
O704 U686 2.441 . S
O704 C690 1.249 . S
O705 U686 2.420 . S
O705 C690 1.202 . S
O706 U686 2.455 . S
O706 C703 1.301 . S
O707 U686 2.449 . S
O707 C703 1.282 . S
H708 C681 0.931 . S
H709 C683 0.929 . S
H710 C684 0.930 . S
H711 C685 0.931 . S
H712 C692 0.932 . S
H713 C693 0.930 . S
H714 C694 0.929 . S
H715 C696 0.930 . S
H716 C698 0.932 . S
H717 C699 0.929 . S
H718 C700 0.928 . S
H719 C702 0.932 . S
C720 C721 1.264 . S
C720 C725 1.479 . S
C720 C730 1.465 . S
C721 C720 1.264 . S
C721 C723 1.339 . S
C721 H748 0.931 . S
C722 C723 1.395 . S
C722 C724 1.320 . S
C723 C721 1.339 . S
C723 C722 1.395 . S
C723 H749 0.929 . S
C724 C722 1.320 . S
C724 C725 1.405 . S
C724 H750 0.930 . S
C725 C720 1.479 . S
C725 C724 1.405 . S
C725 H751 0.931 . S
U726 O727 2.454 . S
U726 O728 2.458 . S
U726 C729 2.984 . S
U726 C730 2.847 . S
U726 C743 2.882 . S
U726 O744 2.441 . S
U726 O745 2.420 . S
U726 O746 2.455 . S
U726 O747 2.449 . S
O727 U726 2.454 . S
O727 C729 1.353 . S
O728 U726 2.458 . S
O728 C729 1.286 . S
C729 U726 2.984 . S
C729 O727 1.353 . S
C729 O728 1.286 . S
C729 C731 1.363 . S
C730 C720 1.465 . S
C730 U726 2.847 . S
C730 O744 1.249 . S
C730 O745 1.202 . S
C731 C729 1.363 . S
C731 C733 1.408 . S
C731 C736 1.342 . S
C732 C733 1.310 . S
C732 C735 1.461 . S
C732 H752 0.932 . S
C733 C731 1.408 . S
C733 C732 1.310 . S
C733 H753 0.930 . S
C734 C735 1.474 . S
C734 C736 1.285 . S
C734 H754 0.929 . S
C735 C732 1.461 . S
C735 C734 1.474 . S
C736 C731 1.342 . S
C736 C734 1.285 . S
C736 H755 0.930 . S
C737 C740 1.424 . S
C737 C742 1.245 . S
C737 C743 1.428 . S
C738 C741 1.260 . S
C738 C742 1.477 . S
C738 H756 0.932 . S
C739 C740 1.384 . S
C739 C741 1.479 . S
C739 H757 0.929 . S
C740 C737 1.424 . S
C740 C739 1.384 . S
C740 H758 0.928 . S
C741 C738 1.260 . S
C741 C739 1.479 . S
C742 C737 1.245 . S
C742 C738 1.477 . S
C742 H759 0.932 . S
C743 U726 2.882 . S
C743 C737 1.428 . S
C743 O746 1.301 . S
C743 O747 1.282 . S
O744 U726 2.441 . S
O744 C730 1.249 . S
O745 U726 2.420 . S
O745 C730 1.202 . S
O746 U726 2.455 . S
O746 C743 1.301 . S
O747 U726 2.449 . S
O747 C743 1.282 . S
H748 C721 0.931 . S
H749 C723 0.929 . S
H750 C724 0.930 . S
H751 C725 0.931 . S
H752 C732 0.932 . S
H753 C733 0.930 . S
H754 C734 0.929 . S
H755 C736 0.930 . S
H756 C738 0.932 . S
H757 C739 0.929 . S
H758 C740 0.928 . S
H759 C742 0.932 . S
C760 C761 1.264 . S
C760 C765 1.479 . S
C760 C770 1.465 . S
C761 C760 1.264 . S
C761 C763 1.339 . S
C761 H788 0.931 . S
C762 C763 1.395 . S
C762 C764 1.320 . S
C763 C761 1.339 . S
C763 C762 1.395 . S
C763 H789 0.929 . S
C764 C762 1.320 . S
C764 C765 1.405 . S
C764 H790 0.930 . S
C765 C760 1.479 . S
C765 C764 1.405 . S
C765 H791 0.931 . S
U766 O767 2.454 . S
U766 O768 2.458 . S
U766 C769 2.984 . S
U766 C770 2.847 . S
U766 C783 2.882 . S
U766 O784 2.441 . S
U766 O785 2.420 . S
U766 O786 2.455 . S
U766 O787 2.449 . S
O767 U766 2.454 . S
O767 C769 1.353 . S
O768 U766 2.458 . S
O768 C769 1.286 . S
C769 U766 2.984 . S
C769 O767 1.353 . S
C769 O768 1.286 . S
C769 C771 1.363 . S
C770 C760 1.465 . S
C770 U766 2.847 . S
C770 O784 1.249 . S
C770 O785 1.202 . S
C771 C769 1.363 . S
C771 C773 1.408 . S
C771 C776 1.342 . S
C772 C773 1.310 . S
C772 C775 1.461 . S
C772 H792 0.932 . S
C773 C771 1.408 . S
C773 C772 1.310 . S
C773 H793 0.930 . S
C774 C775 1.474 . S
C774 C776 1.285 . S
C774 H794 0.929 . S
C775 C772 1.461 . S
C775 C774 1.474 . S
C776 C771 1.342 . S
C776 C774 1.285 . S
C776 H795 0.930 . S
C777 C780 1.424 . S
C777 C782 1.245 . S
C777 C783 1.428 . S
C778 C781 1.260 . S
C778 C782 1.477 . S
C778 H796 0.932 . S
C779 C780 1.384 . S
C779 C781 1.479 . S
C779 H797 0.929 . S
C780 C777 1.424 . S
C780 C779 1.384 . S
C780 H798 0.928 . S
C781 C778 1.260 . S
C781 C779 1.479 . S
C782 C777 1.245 . S
C782 C778 1.477 . S
C782 H799 0.932 . S
C783 U766 2.882 . S
C783 C777 1.428 . S
C783 O786 1.301 . S
C783 O787 1.282 . S
O784 U766 2.441 . S
O784 C770 1.249 . S
O785 U766 2.420 . S
O785 C770 1.202 . S
O786 U766 2.455 . S
O786 C783 1.301 . S
O787 U766 2.449 . S
O787 C783 1.282 . S
H788 C761 0.931 . S
H789 C763 0.929 . S
H790 C764 0.930 . S
H791 C765 0.931 . S
H792 C772 0.932 . S
H793 C773 0.930 . S
H794 C774 0.929 . S
H795 C776 0.930 . S
H796 C778 0.932 . S
H797 C779 0.929 . S
H798 C780 0.928 . S
H799 C782 0.932 . S
C800 C801 1.264 . S
C800 C805 1.479 . S
C800 C810 1.465 . S
C801 C800 1.264 . S
C801 C803 1.339 . S
C801 H828 0.931 . S
C802 C803 1.395 . S
C802 C804 1.320 . S
C803 C801 1.339 . S
C803 C802 1.395 . S
C803 H829 0.929 . S
C804 C802 1.320 . S
C804 C805 1.405 . S
C804 H830 0.930 . S
C805 C800 1.479 . S
C805 C804 1.405 . S
C805 H831 0.931 . S
U806 O807 2.454 . S
U806 O808 2.458 . S
U806 C809 2.984 . S
U806 C810 2.847 . S
U806 C823 2.882 . S
U806 O824 2.441 . S
U806 O825 2.420 . S
U806 O826 2.455 . S
U806 O827 2.449 . S
O807 U806 2.454 . S
O807 C809 1.353 . S
O808 U806 2.458 . S
O808 C809 1.286 . S
C809 U806 2.984 . S
C809 O807 1.353 . S
C809 O808 1.286 . S
C809 C811 1.363 . S
C810 C800 1.465 . S
C810 U806 2.847 . S
C810 O824 1.249 . S
C810 O825 1.202 . S
C811 C809 1.363 . S
C811 C813 1.408 . S
C811 C816 1.342 . S
C812 C813 1.310 . S
C812 C815 1.461 . S
C812 H832 0.932 . S
C813 C811 1.408 . S
C813 C812 1.310 . S
C813 H833 0.930 . S
C814 C815 1.474 . S
C814 C816 1.285 . S
C814 H834 0.929 . S
C815 C812 1.461 . S
C815 C814 1.474 . S
C816 C811 1.342 . S
C816 C814 1.285 . S
C816 H835 0.930 . S
C817 C820 1.424 . S
C817 C822 1.245 . S
C817 C823 1.428 . S
C818 C821 1.260 . S
C818 C822 1.477 . S
C818 H836 0.932 . S
C819 C820 1.384 . S
C819 C821 1.479 . S
C819 H837 0.929 . S
C820 C817 1.424 . S
C820 C819 1.384 . S
C820 H838 0.928 . S
C821 C818 1.260 . S
C821 C819 1.479 . S
C822 C817 1.245 . S
C822 C818 1.477 . S
C822 H839 0.932 . S
C823 U806 2.882 . S
C823 C817 1.428 . S
C823 O826 1.301 . S
C823 O827 1.282 . S
O824 U806 2.441 . S
O824 C810 1.249 . S
O825 U806 2.420 . S
O825 C810 1.202 . S
O826 U806 2.455 . S
O826 C823 1.301 . S
O827 U806 2.449 . S
O827 C823 1.282 . S
H828 C801 0.931 . S
H829 C803 0.929 . S
H830 C804 0.930 . S
H831 C805 0.931 . S
H832 C812 0.932 . S
H833 C813 0.930 . S
H834 C814 0.929 . S
H835 C816 0.930 . S
H836 C818 0.932 . S
H837 C819 0.929 . S
H838 C820 0.928 . S
H839 C822 0.932 . S
C840 C841 1.264 . S
C840 C845 1.479 . S
C840 C850 1.465 . S
C841 C840 1.264 . S
C841 C843 1.339 . S
C841 H868 0.931 . S
C842 C843 1.395 . S
C842 C844 1.320 . S
C843 C841 1.339 . S
C843 C842 1.395 . S
C843 H869 0.929 . S
C844 C842 1.320 . S
C844 C845 1.405 . S
C844 H870 0.930 . S
C845 C840 1.479 . S
C845 C844 1.405 . S
C845 H871 0.931 . S
U846 O847 2.454 . S
U846 O848 2.458 . S
U846 C849 2.984 . S
U846 C850 2.847 . S
U846 C863 2.882 . S
U846 O864 2.441 . S
U846 O865 2.420 . S
U846 O866 2.455 . S
U846 O867 2.449 . S
O847 U846 2.454 . S
O847 C849 1.353 . S
O848 U846 2.458 . S
O848 C849 1.286 . S
C849 U846 2.984 . S
C849 O847 1.353 . S
C849 O848 1.286 . S
C849 C851 1.363 . S
C850 C840 1.465 . S
C850 U846 2.847 . S
C850 O864 1.249 . S
C850 O865 1.202 . S
C851 C849 1.363 . S
C851 C853 1.408 . S
C851 C856 1.342 . S
C852 C853 1.310 . S
C852 C855 1.461 . S
C852 H872 0.932 . S
C853 C851 1.408 . S
C853 C852 1.310 . S
C853 H873 0.930 . S
C854 C855 1.474 . S
C854 C856 1.285 . S
C854 H874 0.929 . S
C855 C852 1.461 . S
C855 C854 1.474 . S
C856 C851 1.342 . S
C856 C854 1.285 . S
C856 H875 0.930 . S
C857 C860 1.424 . S
C857 C862 1.245 . S
C857 C863 1.428 . S
C858 C861 1.260 . S
C858 C862 1.477 . S
C858 H876 0.932 . S
C859 C860 1.384 . S
C859 C861 1.479 . S
C859 H877 0.929 . S
C860 C857 1.424 . S
C860 C859 1.384 . S
C860 H878 0.928 . S
C861 C858 1.260 . S
C861 C859 1.479 . S
C862 C857 1.245 . S
C862 C858 1.477 . S
C862 H879 0.932 . S
C863 U846 2.882 . S
C863 C857 1.428 . S
C863 O866 1.301 . S
C863 O867 1.282 . S
O864 U846 2.441 . S
O864 C850 1.249 . S
O865 U846 2.420 . S
O865 C850 1.202 . S
O866 U846 2.455 . S
O866 C863 1.301 . S
O867 U846 2.449 . S
O867 C863 1.282 . S
H868 C841 0.931 . S
H869 C843 0.929 . S
H870 C844 0.930 . S
H871 C845 0.931 . S
H872 C852 0.932 . S
H873 C853 0.930 . S
H874 C854 0.929 . S
H875 C856 0.930 . S
H876 C858 0.932 . S
H877 C859 0.929 . S
H878 C860 0.928 . S
H879 C862 0.932 . S
C880 C881 1.264 . S
C880 C885 1.479 . S
C880 C890 1.465 . S
C881 C880 1.264 . S
C881 C883 1.339 . S
C881 H908 0.931 . S
C882 C883 1.395 . S
C882 C884 1.320 . S
C883 C881 1.339 . S
C883 C882 1.395 . S
C883 H909 0.929 . S
C884 C882 1.320 . S
C884 C885 1.405 . S
C884 H910 0.930 . S
C885 C880 1.479 . S
C885 C884 1.405 . S
C885 H911 0.931 . S
U886 O887 2.454 . S
U886 O888 2.458 . S
U886 C889 2.984 . S
U886 C890 2.847 . S
U886 C903 2.882 . S
U886 O904 2.441 . S
U886 O905 2.420 . S
U886 O906 2.455 . S
U886 O907 2.449 . S
O887 U886 2.454 . S
O887 C889 1.353 . S
O888 U886 2.458 . S
O888 C889 1.286 . S
C889 U886 2.984 . S
C889 O887 1.353 . S
C889 O888 1.286 . S
C889 C891 1.363 . S
C890 C880 1.465 . S
C890 U886 2.847 . S
C890 O904 1.249 . S
C890 O905 1.202 . S
C891 C889 1.363 . S
C891 C893 1.408 . S
C891 C896 1.342 . S
C892 C893 1.310 . S
C892 C895 1.461 . S
C892 H912 0.932 . S
C893 C891 1.408 . S
C893 C892 1.310 . S
C893 H913 0.930 . S
C894 C895 1.474 . S
C894 C896 1.285 . S
C894 H914 0.929 . S
C895 C892 1.461 . S
C895 C894 1.474 . S
C896 C891 1.342 . S
C896 C894 1.285 . S
C896 H915 0.930 . S
C897 C900 1.424 . S
C897 C902 1.245 . S
C897 C903 1.428 . S
C898 C901 1.260 . S
C898 C902 1.477 . S
C898 H916 0.932 . S
C899 C900 1.384 . S
C899 C901 1.479 . S
C899 H917 0.929 . S
C900 C897 1.424 . S
C900 C899 1.384 . S
C900 H918 0.928 . S
C901 C898 1.260 . S
C901 C899 1.479 . S
C902 C897 1.245 . S
C902 C898 1.477 . S
C902 H919 0.932 . S
C903 U886 2.882 . S
C903 C897 1.428 . S
C903 O906 1.301 . S
C903 O907 1.282 . S
O904 U886 2.441 . S
O904 C890 1.249 . S
O905 U886 2.420 . S
O905 C890 1.202 . S
O906 U886 2.455 . S
O906 C903 1.301 . S
O907 U886 2.449 . S
O907 C903 1.282 . S
H908 C881 0.931 . S
H909 C883 0.929 . S
H910 C884 0.930 . S
H911 C885 0.931 . S
H912 C892 0.932 . S
H913 C893 0.930 . S
H914 C894 0.929 . S
H915 C896 0.930 . S
H916 C898 0.932 . S
H917 C899 0.929 . S
H918 C900 0.928 . S
H919 C902 0.932 . S
C920 C921 1.264 . S
C920 C925 1.479 . S
C920 C930 1.465 . S
C921 C920 1.264 . S
C921 C923 1.339 . S
C921 H948 0.931 . S
C922 C923 1.395 . S
C922 C924 1.320 . S
C923 C921 1.339 . S
C923 C922 1.395 . S
C923 H949 0.929 . S
C924 C922 1.320 . S
C924 C925 1.405 . S
C924 H950 0.930 . S
C925 C920 1.479 . S
C925 C924 1.405 . S
C925 H951 0.931 . S
U926 O927 2.454 . S
U926 O928 2.458 . S
U926 C929 2.984 . S
U926 C930 2.847 . S
U926 C943 2.882 . S
U926 O944 2.441 . S
U926 O945 2.420 . S
U926 O946 2.455 . S
U926 O947 2.449 . S
O927 U926 2.454 . S
O927 C929 1.353 . S
O928 U926 2.458 . S
O928 C929 1.286 . S
C929 U926 2.984 . S
C929 O927 1.353 . S
C929 O928 1.286 . S
C929 C931 1.363 . S
C930 C920 1.465 . S
C930 U926 2.847 . S
C930 O944 1.249 . S
C930 O945 1.202 . S
C931 C929 1.363 . S
C931 C933 1.408 . S
C931 C936 1.342 . S
C932 C933 1.310 . S
C932 C935 1.461 . S
C932 H952 0.932 . S
C933 C931 1.408 . S
C933 C932 1.310 . S
C933 H953 0.930 . S
C934 C935 1.474 . S
C934 C936 1.285 . S
C934 H954 0.929 . S
C935 C932 1.461 . S
C935 C934 1.474 . S
C936 C931 1.342 . S
C936 C934 1.285 . S
C936 H955 0.930 . S
C937 C940 1.424 . S
C937 C942 1.245 . S
C937 C943 1.428 . S
C938 C941 1.260 . S
C938 C942 1.477 . S
C938 H956 0.932 . S
C939 C940 1.384 . S
C939 C941 1.479 . S
C939 H957 0.929 . S
C940 C937 1.424 . S
C940 C939 1.384 . S
C940 H958 0.928 . S
C941 C938 1.260 . S
C941 C939 1.479 . S
C942 C937 1.245 . S
C942 C938 1.477 . S
C942 H959 0.932 . S
C943 U926 2.882 . S
C943 C937 1.428 . S
C943 O946 1.301 . S
C943 O947 1.282 . S
O944 U926 2.441 . S
O944 C930 1.249 . S
O945 U926 2.420 . S
O945 C930 1.202 . S
O946 U926 2.455 . S
O946 C943 1.301 . S
O947 U926 2.449 . S
O947 C943 1.282 . S
H948 C921 0.931 . S
H949 C923 0.929 . S
H950 C924 0.930 . S
H951 C925 0.931 . S
H952 C932 0.932 . S
H953 C933 0.930 . S
H954 C934 0.929 . S
H955 C936 0.930 . S
H956 C938 0.932 . S
H957 C939 0.929 . S
H958 C940 0.928 . S
H959 C942 0.932 . S
C960 C961 1.264 . S
C960 C965 1.479 . S
C960 C970 1.465 . S
C961 C960 1.264 . S
C961 C963 1.339 . S
C961 H988 0.931 . S
C962 C963 1.395 . S
C962 C964 1.320 . S
C963 C961 1.339 . S
C963 C962 1.395 . S
C963 H989 0.929 . S
C964 C962 1.320 . S
C964 C965 1.405 . S
C964 H990 0.930 . S
C965 C960 1.479 . S
C965 C964 1.405 . S
C965 H991 0.931 . S
U966 O967 2.454 . S
U966 O968 2.458 . S
U966 C969 2.984 . S
U966 C970 2.847 . S
U966 C983 2.882 . S
U966 O984 2.441 . S
U966 O985 2.420 . S
U966 O986 2.455 . S
U966 O987 2.449 . S
O967 U966 2.454 . S
O967 C969 1.353 . S
O968 U966 2.458 . S
O968 C969 1.286 . S
C969 U966 2.984 . S
C969 O967 1.353 . S
C969 O968 1.286 . S
C969 C971 1.363 . S
C970 C960 1.465 . S
C970 U966 2.847 . S
C970 O984 1.249 . S
C970 O985 1.202 . S
C971 C969 1.363 . S
C971 C973 1.408 . S
C971 C976 1.342 . S
C972 C973 1.310 . S
C972 C975 1.461 . S
C972 H992 0.932 . S
C973 C971 1.408 . S
C973 C972 1.310 . S
C973 H993 0.930 . S
C974 C975 1.474 . S
C974 C976 1.285 . S
C974 H994 0.929 . S
C975 C972 1.461 . S
C975 C974 1.474 . S
C976 C971 1.342 . S
C976 C974 1.285 . S
C976 H995 0.930 . S
C977 C980 1.424 . S
C977 C982 1.245 . S
C977 C983 1.428 . S
C978 C981 1.260 . S
C978 C982 1.477 . S
C978 H996 0.932 . S
C979 C980 1.384 . S
C979 C981 1.479 . S
C979 H997 0.929 . S
C980 C977 1.424 . S
C980 C979 1.384 . S
C980 H998 0.928 . S
C981 C978 1.260 . S
C981 C979 1.479 . S
C982 C977 1.245 . S
C982 C978 1.477 . S
C982 H999 0.932 . S
C983 U966 2.882 . S
C983 C977 1.428 . S
C983 O986 1.301 . S
C983 O987 1.282 . S
O984 U966 2.441 . S
O984 C970 1.249 . S
O985 U966 2.420 . S
O985 C970 1.202 . S
O986 U966 2.455 . S
O986 C983 1.301 . S
O987 U966 2.449 . S
O987 C983 1.282 . S
H988 C961 0.931 . S
H989 C963 0.929 . S
H990 C964 0.930 . S
H991 C965 0.931 . S
H992 C972 0.932 . S
H993 C973 0.930 . S
H994 C974 0.929 . S
H995 C976 0.930 . S
H996 C978 0.932 . S
H997 C979 0.929 . S
H998 C980 0.928 . S
H999 C982 0.932 . S
C1000 C1001 1.264 . S
C1000 C1005 1.479 . S
C1000 C1010 1.465 . S
C1001 C1000 1.264 . S
C1001 C1003 1.339 . S
C1001 H1028 0.931 . S
C1002 C1003 1.395 . S
C1002 C1004 1.320 . S
C1003 C1001 1.339 . S
C1003 C1002 1.395 . S
C1003 H1029 0.929 . S
C1004 C1002 1.320 . S
C1004 C1005 1.405 . S
C1004 H1030 0.930 . S
C1005 C1000 1.479 . S
C1005 C1004 1.405 . S
C1005 H1031 0.931 . S
U1006 O1007 2.454 . S
U1006 O1008 2.458 . S
U1006 C1009 2.984 . S
U1006 C1010 2.847 . S
U1006 C1023 2.882 . S
U1006 O1024 2.441 . S
U1006 O1025 2.420 . S
U1006 O1026 2.455 . S
U1006 O1027 2.449 . S
O1007 U1006 2.454 . S
O1007 C1009 1.353 . S
O1008 U1006 2.458 . S
O1008 C1009 1.286 . S
C1009 U1006 2.984 . S
C1009 O1007 1.353 . S
C1009 O1008 1.286 . S
C1009 C1011 1.363 . S
C1010 C1000 1.465 . S
C1010 U1006 2.847 . S
C1010 O1024 1.249 . S
C1010 O1025 1.202 . S
C1011 C1009 1.363 . S
C1011 C1013 1.408 . S
C1011 C1016 1.342 . S
C1012 C1013 1.310 . S
C1012 C1015 1.461 . S
C1012 H1032 0.932 . S
C1013 C1011 1.408 . S
C1013 C1012 1.310 . S
C1013 H1033 0.930 . S
C1014 C1015 1.474 . S
C1014 C1016 1.285 . S
C1014 H1034 0.929 . S
C1015 C1012 1.461 . S
C1015 C1014 1.474 . S
C1016 C1011 1.342 . S
C1016 C1014 1.285 . S
C1016 H1035 0.930 . S
C1017 C1020 1.424 . S
C1017 C1022 1.245 . S
C1017 C1023 1.428 . S
C1018 C1021 1.260 . S
C1018 C1022 1.477 . S
C1018 H1036 0.932 . S
C1019 C1020 1.384 . S
C1019 C1021 1.479 . S
C1019 H1037 0.929 . S
C1020 C1017 1.424 . S
C1020 C1019 1.384 . S
C1020 H1038 0.928 . S
C1021 C1018 1.260 . S
C1021 C1019 1.479 . S
C1022 C1017 1.245 . S
C1022 C1018 1.477 . S
C1022 H1039 0.932 . S
C1023 U1006 2.882 . S
C1023 C1017 1.428 . S
C1023 O1026 1.301 . S
C1023 O1027 1.282 . S
O1024 U1006 2.441 . S
O1024 C1010 1.249 . S
O1025 U1006 2.420 . S
O1025 C1010 1.202 . S
O1026 U1006 2.455 . S
O1026 C1023 1.301 . S
O1027 U1006 2.449 . S
O1027 C1023 1.282 . S
H1028 C1001 0.931 . S
H1029 C1003 0.929 . S
H1030 C1004 0.930 . S
H1031 C1005 0.931 . S
H1032 C1012 0.932 . S
H1033 C1013 0.930 . S
H1034 C1014 0.929 . S
H1035 C1016 0.930 . S
H1036 C1018 0.932 . S
H1037 C1019 0.929 . S
H1038 C1020 0.928 . S
H1039 C1022 0.932 . S
C1040 C1041 1.264 . S
C1040 C1045 1.479 . S
C1040 C1050 1.465 . S
C1041 C1040 1.264 . S
C1041 C1043 1.339 . S
C1041 H1068 0.931 . S
C1042 C1043 1.395 . S
C1042 C1044 1.320 . S
C1043 C1041 1.339 . S
C1043 C1042 1.395 . S
C1043 H1069 0.929 . S
C1044 C1042 1.320 . S
C1044 C1045 1.405 . S
C1044 H1070 0.930 . S
C1045 C1040 1.479 . S
C1045 C1044 1.405 . S
C1045 H1071 0.931 . S
U1046 O1047 2.454 . S
U1046 O1048 2.458 . S
U1046 C1049 2.984 . S
U1046 C1050 2.847 . S
U1046 C1063 2.882 . S
U1046 O1064 2.441 . S
U1046 O1065 2.420 . S
U1046 O1066 2.455 . S
U1046 O1067 2.449 . S
O1047 U1046 2.454 . S
O1047 C1049 1.353 . S
O1048 U1046 2.458 . S
O1048 C1049 1.286 . S
C1049 U1046 2.984 . S
C1049 O1047 1.353 . S
C1049 O1048 1.286 . S
C1049 C1051 1.363 . S
C1050 C1040 1.465 . S
C1050 U1046 2.847 . S
C1050 O1064 1.249 . S
C1050 O1065 1.202 . S
C1051 C1049 1.363 . S
C1051 C1053 1.408 . S
C1051 C1056 1.342 . S
C1052 C1053 1.310 . S
C1052 C1055 1.461 . S
C1052 H1072 0.932 . S
C1053 C1051 1.408 . S
C1053 C1052 1.310 . S
C1053 H1073 0.930 . S
C1054 C1055 1.474 . S
C1054 C1056 1.285 . S
C1054 H1074 0.929 . S
C1055 C1052 1.461 . S
C1055 C1054 1.474 . S
C1056 C1051 1.342 . S
C1056 C1054 1.285 . S
C1056 H1075 0.930 . S
C1057 C1060 1.424 . S
C1057 C1062 1.245 . S
C1057 C1063 1.428 . S
C1058 C1061 1.260 . S
C1058 C1062 1.477 . S
C1058 H1076 0.932 . S
C1059 C1060 1.384 . S
C1059 C1061 1.479 . S
C1059 H1077 0.929 . S
C1060 C1057 1.424 . S
C1060 C1059 1.384 . S
C1060 H1078 0.928 . S
C1061 C1058 1.260 . S
C1061 C1059 1.479 . S
C1062 C1057 1.245 . S
C1062 C1058 1.477 . S
C1062 H1079 0.932 . S
C1063 U1046 2.882 . S
C1063 C1057 1.428 . S
C1063 O1066 1.301 . S
C1063 O1067 1.282 . S
O1064 U1046 2.441 . S
O1064 C1050 1.249 . S
O1065 U1046 2.420 . S
O1065 C1050 1.202 . S
O1066 U1046 2.455 . S
O1066 C1063 1.301 . S
O1067 U1046 2.449 . S
O1067 C1063 1.282 . S
H1068 C1041 0.931 . S
H1069 C1043 0.929 . S
H1070 C1044 0.930 . S
H1071 C1045 0.931 . S
H1072 C1052 0.932 . S
H1073 C1053 0.930 . S
H1074 C1054 0.929 . S
H1075 C1056 0.930 . S
H1076 C1058 0.932 . S
H1077 C1059 0.929 . S
H1078 C1060 0.928 . S
H1079 C1062 0.932 . S
C1080 C1081 1.264 . S
C1080 C1085 1.479 . S
C1080 C1090 1.465 . S
C1081 C1080 1.264 . S
C1081 C1083 1.339 . S
C1081 H1108 0.931 . S
C1082 C1083 1.395 . S
C1082 C1084 1.320 . S
C1083 C1081 1.339 . S
C1083 C1082 1.395 . S
C1083 H1109 0.929 . S
C1084 C1082 1.320 . S
C1084 C1085 1.405 . S
C1084 H1110 0.930 . S
C1085 C1080 1.479 . S
C1085 C1084 1.405 . S
C1085 H1111 0.931 . S
U1086 O1087 2.454 . S
U1086 O1088 2.458 . S
U1086 C1089 2.984 . S
U1086 C1090 2.847 . S
U1086 C1103 2.882 . S
U1086 O1104 2.441 . S
U1086 O1105 2.420 . S
U1086 O1106 2.455 . S
U1086 O1107 2.449 . S
O1087 U1086 2.454 . S
O1087 C1089 1.353 . S
O1088 U1086 2.458 . S
O1088 C1089 1.286 . S
C1089 U1086 2.984 . S
C1089 O1087 1.353 . S
C1089 O1088 1.286 . S
C1089 C1091 1.363 . S
C1090 C1080 1.465 . S
C1090 U1086 2.847 . S
C1090 O1104 1.249 . S
C1090 O1105 1.202 . S
C1091 C1089 1.363 . S
C1091 C1093 1.408 . S
C1091 C1096 1.342 . S
C1092 C1093 1.310 . S
C1092 C1095 1.461 . S
C1092 H1112 0.932 . S
C1093 C1091 1.408 . S
C1093 C1092 1.310 . S
C1093 H1113 0.930 . S
C1094 C1095 1.474 . S
C1094 C1096 1.285 . S
C1094 H1114 0.929 . S
C1095 C1092 1.461 . S
C1095 C1094 1.474 . S
C1096 C1091 1.342 . S
C1096 C1094 1.285 . S
C1096 H1115 0.930 . S
C1097 C1100 1.424 . S
C1097 C1102 1.245 . S
C1097 C1103 1.428 . S
C1098 C1101 1.260 . S
C1098 C1102 1.477 . S
C1098 H1116 0.932 . S
C1099 C1100 1.384 . S
C1099 C1101 1.479 . S
C1099 H1117 0.929 . S
C1100 C1097 1.424 . S
C1100 C1099 1.384 . S
C1100 H1118 0.928 . S
C1101 C1098 1.260 . S
C1101 C1099 1.479 . S
C1102 C1097 1.245 . S
C1102 C1098 1.477 . S
C1102 H1119 0.932 . S
C1103 U1086 2.882 . S
C1103 C1097 1.428 . S
C1103 O1106 1.301 . S
C1103 O1107 1.282 . S
O1104 U1086 2.441 . S
O1104 C1090 1.249 . S
O1105 U1086 2.420 . S
O1105 C1090 1.202 . S
O1106 U1086 2.455 . S
O1106 C1103 1.301 . S
O1107 U1086 2.449 . S
O1107 C1103 1.282 . S
H1108 C1081 0.931 . S
H1109 C1083 0.929 . S
H1110 C1084 0.930 . S
H1111 C1085 0.931 . S
H1112 C1092 0.932 . S
H1113 C1093 0.930 . S
H1114 C1094 0.929 . S
H1115 C1096 0.930 . S
H1116 C1098 0.932 . S
H1117 C1099 0.929 . S
H1118 C1100 0.928 . S
H1119 C1102 0.932 . S
C1120 C1121 1.264 . S
C1120 C1125 1.479 . S
C1120 C1130 1.465 . S
C1121 C1120 1.264 . S
C1121 C1123 1.339 . S
C1121 H1148 0.931 . S
C1122 C1123 1.395 . S
C1122 C1124 1.320 . S
C1123 C1121 1.339 . S
C1123 C1122 1.395 . S
C1123 H1149 0.929 . S
C1124 C1122 1.320 . S
C1124 C1125 1.405 . S
C1124 H1150 0.930 . S
C1125 C1120 1.479 . S
C1125 C1124 1.405 . S
C1125 H1151 0.931 . S
U1126 O1127 2.454 . S
U1126 O1128 2.458 . S
U1126 C1129 2.984 . S
U1126 C1130 2.847 . S
U1126 C1143 2.882 . S
U1126 O1144 2.441 . S
U1126 O1145 2.420 . S
U1126 O1146 2.455 . S
U1126 O1147 2.449 . S
O1127 U1126 2.454 . S
O1127 C1129 1.353 . S
O1128 U1126 2.458 . S
O1128 C1129 1.286 . S
C1129 U1126 2.984 . S
C1129 O1127 1.353 . S
C1129 O1128 1.286 . S
C1129 C1131 1.363 . S
C1130 C1120 1.465 . S
C1130 U1126 2.847 . S
C1130 O1144 1.249 . S
C1130 O1145 1.202 . S
C1131 C1129 1.363 . S
C1131 C1133 1.408 . S
C1131 C1136 1.342 . S
C1132 C1133 1.310 . S
C1132 C1135 1.461 . S
C1132 H1152 0.932 . S
C1133 C1131 1.408 . S
C1133 C1132 1.310 . S
C1133 H1153 0.930 . S
C1134 C1135 1.474 . S
C1134 C1136 1.285 . S
C1134 H1154 0.929 . S
C1135 C1132 1.461 . S
C1135 C1134 1.474 . S
C1136 C1131 1.342 . S
C1136 C1134 1.285 . S
C1136 H1155 0.930 . S
C1137 C1140 1.424 . S
C1137 C1142 1.245 . S
C1137 C1143 1.428 . S
C1138 C1141 1.260 . S
C1138 C1142 1.477 . S
C1138 H1156 0.932 . S
C1139 C1140 1.384 . S
C1139 C1141 1.479 . S
C1139 H1157 0.929 . S
C1140 C1137 1.424 . S
C1140 C1139 1.384 . S
C1140 H1158 0.928 . S
C1141 C1138 1.260 . S
C1141 C1139 1.479 . S
C1142 C1137 1.245 . S
C1142 C1138 1.477 . S
C1142 H1159 0.932 . S
C1143 U1126 2.882 . S
C1143 C1137 1.428 . S
C1143 O1146 1.301 . S
C1143 O1147 1.282 . S
O1144 U1126 2.441 . S
O1144 C1130 1.249 . S
O1145 U1126 2.420 . S
O1145 C1130 1.202 . S
O1146 U1126 2.455 . S
O1146 C1143 1.301 . S
O1147 U1126 2.449 . S
O1147 C1143 1.282 . S
H1148 C1121 0.931 . S
H1149 C1123 0.929 . S
H1150 C1124 0.930 . S
H1151 C1125 0.931 . S
H1152 C1132 0.932 . S
H1153 C1133 0.930 . S
H1154 C1134 0.929 . S
H1155 C1136 0.930 . S
H1156 C1138 0.932 . S
H1157 C1139 0.929 . S
H1158 C1140 0.928 . S
H1159 C1142 0.932 . S
C1160 C1161 1.264 . S
C1160 C1165 1.479 . S
C1160 C1170 1.465 . S
C1161 C1160 1.264 . S
C1161 C1163 1.339 . S
C1161 H1188 0.931 . S
C1162 C1163 1.395 . S
C1162 C1164 1.320 . S
C1163 C1161 1.339 . S
C1163 C1162 1.395 . S
C1163 H1189 0.929 . S
C1164 C1162 1.320 . S
C1164 C1165 1.405 . S
C1164 H1190 0.930 . S
C1165 C1160 1.479 . S
C1165 C1164 1.405 . S
C1165 H1191 0.931 . S
U1166 O1167 2.454 . S
U1166 O1168 2.458 . S
U1166 C1169 2.984 . S
U1166 C1170 2.847 . S
U1166 C1183 2.882 . S
U1166 O1184 2.441 . S
U1166 O1185 2.420 . S
U1166 O1186 2.455 . S
U1166 O1187 2.449 . S
O1167 U1166 2.454 . S
O1167 C1169 1.353 . S
O1168 U1166 2.458 . S
O1168 C1169 1.286 . S
C1169 U1166 2.984 . S
C1169 O1167 1.353 . S
C1169 O1168 1.286 . S
C1169 C1171 1.363 . S
C1170 C1160 1.465 . S
C1170 U1166 2.847 . S
C1170 O1184 1.249 . S
C1170 O1185 1.202 . S
C1171 C1169 1.363 . S
C1171 C1173 1.408 . S
C1171 C1176 1.342 . S
C1172 C1173 1.310 . S
C1172 C1175 1.461 . S
C1172 H1192 0.932 . S
C1173 C1171 1.408 . S
C1173 C1172 1.310 . S
C1173 H1193 0.930 . S
C1174 C1175 1.474 . S
C1174 C1176 1.285 . S
C1174 H1194 0.929 . S
C1175 C1172 1.461 . S
C1175 C1174 1.474 . S
C1176 C1171 1.342 . S
C1176 C1174 1.285 . S
C1176 H1195 0.930 . S
C1177 C1180 1.424 . S
C1177 C1182 1.245 . S
C1177 C1183 1.428 . S
C1178 C1181 1.260 . S
C1178 C1182 1.477 . S
C1178 H1196 0.932 . S
C1179 C1180 1.384 . S
C1179 C1181 1.479 . S
C1179 H1197 0.929 . S
C1180 C1177 1.424 . S
C1180 C1179 1.384 . S
C1180 H1198 0.928 . S
C1181 C1178 1.260 . S
C1181 C1179 1.479 . S
C1182 C1177 1.245 . S
C1182 C1178 1.477 . S
C1182 H1199 0.932 . S
C1183 U1166 2.882 . S
C1183 C1177 1.428 . S
C1183 O1186 1.301 . S
C1183 O1187 1.282 . S
O1184 U1166 2.441 . S
O1184 C1170 1.249 . S
O1185 U1166 2.420 . S
O1185 C1170 1.202 . S
O1186 U1166 2.455 . S
O1186 C1183 1.301 . S
O1187 U1166 2.449 . S
O1187 C1183 1.282 . S
H1188 C1161 0.931 . S
H1189 C1163 0.929 . S
H1190 C1164 0.930 . S
H1191 C1165 0.931 . S
H1192 C1172 0.932 . S
H1193 C1173 0.930 . S
H1194 C1174 0.929 . S
H1195 C1176 0.930 . S
H1196 C1178 0.932 . S
H1197 C1179 0.929 . S
H1198 C1180 0.928 . S
H1199 C1182 0.932 . S
C1200 C1201 1.264 . S
C1200 C1205 1.479 . S
C1200 C1210 1.465 . S
C1201 C1200 1.264 . S
C1201 C1203 1.339 . S
C1201 H1228 0.931 . S
C1202 C1203 1.395 . S
C1202 C1204 1.320 . S
C1203 C1201 1.339 . S
C1203 C1202 1.395 . S
C1203 H1229 0.929 . S
C1204 C1202 1.320 . S
C1204 C1205 1.405 . S
C1204 H1230 0.930 . S
C1205 C1200 1.479 . S
C1205 C1204 1.405 . S
C1205 H1231 0.931 . S
U1206 O1207 2.454 . S
U1206 O1208 2.458 . S
U1206 C1209 2.984 . S
U1206 C1210 2.847 . S
U1206 C1223 2.882 . S
U1206 O1224 2.441 . S
U1206 O1225 2.420 . S
U1206 O1226 2.455 . S
U1206 O1227 2.449 . S
O1207 U1206 2.454 . S
O1207 C1209 1.353 . S
O1208 U1206 2.458 . S
O1208 C1209 1.286 . S
C1209 U1206 2.984 . S
C1209 O1207 1.353 . S
C1209 O1208 1.286 . S
C1209 C1211 1.363 . S
C1210 C1200 1.465 . S
C1210 U1206 2.847 . S
C1210 O1224 1.249 . S
C1210 O1225 1.202 . S
C1211 C1209 1.363 . S
C1211 C1213 1.408 . S
C1211 C1216 1.342 . S
C1212 C1213 1.310 . S
C1212 C1215 1.461 . S
C1212 H1232 0.932 . S
C1213 C1211 1.408 . S
C1213 C1212 1.310 . S
C1213 H1233 0.930 . S
C1214 C1215 1.474 . S
C1214 C1216 1.285 . S
C1214 H1234 0.929 . S
C1215 C1212 1.461 . S
C1215 C1214 1.474 . S
C1216 C1211 1.342 . S
C1216 C1214 1.285 . S
C1216 H1235 0.930 . S
C1217 C1220 1.424 . S
C1217 C1222 1.245 . S
C1217 C1223 1.428 . S
C1218 C1221 1.260 . S
C1218 C1222 1.477 . S
C1218 H1236 0.932 . S
C1219 C1220 1.384 . S
C1219 C1221 1.479 . S
C1219 H1237 0.929 . S
C1220 C1217 1.424 . S
C1220 C1219 1.384 . S
C1220 H1238 0.928 . S
C1221 C1218 1.260 . S
C1221 C1219 1.479 . S
C1222 C1217 1.245 . S
C1222 C1218 1.477 . S
C1222 H1239 0.932 . S
C1223 U1206 2.882 . S
C1223 C1217 1.428 . S
C1223 O1226 1.301 . S
C1223 O1227 1.282 . S
O1224 U1206 2.441 . S
O1224 C1210 1.249 . S
O1225 U1206 2.420 . S
O1225 C1210 1.202 . S
O1226 U1206 2.455 . S
O1226 C1223 1.301 . S
O1227 U1206 2.449 . S
O1227 C1223 1.282 . S
H1228 C1201 0.931 . S
H1229 C1203 0.929 . S
H1230 C1204 0.930 . S
H1231 C1205 0.931 . S
H1232 C1212 0.932 . S
H1233 C1213 0.930 . S
H1234 C1214 0.929 . S
H1235 C1216 0.930 . S
H1236 C1218 0.932 . S
H1237 C1219 0.929 . S
H1238 C1220 0.928 . S
H1239 C1222 0.932 . S
C1240 C1241 1.264 . S
C1240 C1245 1.479 . S
C1240 C1250 1.465 . S
C1241 C1240 1.264 . S
C1241 C1243 1.339 . S
C1241 H1268 0.931 . S
C1242 C1243 1.395 . S
C1242 C1244 1.320 . S
C1243 C1241 1.339 . S
C1243 C1242 1.395 . S
C1243 H1269 0.929 . S
C1244 C1242 1.320 . S
C1244 C1245 1.405 . S
C1244 H1270 0.930 . S
C1245 C1240 1.479 . S
C1245 C1244 1.405 . S
C1245 H1271 0.931 . S
U1246 O1247 2.454 . S
U1246 O1248 2.458 . S
U1246 C1249 2.984 . S
U1246 C1250 2.847 . S
U1246 C1263 2.882 . S
U1246 O1264 2.441 . S
U1246 O1265 2.420 . S
U1246 O1266 2.455 . S
U1246 O1267 2.449 . S
O1247 U1246 2.454 . S
O1247 C1249 1.353 . S
O1248 U1246 2.458 . S
O1248 C1249 1.286 . S
C1249 U1246 2.984 . S
C1249 O1247 1.353 . S
C1249 O1248 1.286 . S
C1249 C1251 1.363 . S
C1250 C1240 1.465 . S
C1250 U1246 2.847 . S
C1250 O1264 1.249 . S
C1250 O1265 1.202 . S
C1251 C1249 1.363 . S
C1251 C1253 1.408 . S
C1251 C1256 1.342 . S
C1252 C1253 1.310 . S
C1252 C1255 1.461 . S
C1252 H1272 0.932 . S
C1253 C1251 1.408 . S
C1253 C1252 1.310 . S
C1253 H1273 0.930 . S
C1254 C1255 1.474 . S
C1254 C1256 1.285 . S
C1254 H1274 0.929 . S
C1255 C1252 1.461 . S
C1255 C1254 1.474 . S
C1256 C1251 1.342 . S
C1256 C1254 1.285 . S
C1256 H1275 0.930 . S
C1257 C1260 1.424 . S
C1257 C1262 1.245 . S
C1257 C1263 1.428 . S
C1258 C1261 1.260 . S
C1258 C1262 1.477 . S
C1258 H1276 0.932 . S
C1259 C1260 1.384 . S
C1259 C1261 1.479 . S
C1259 H1277 0.929 . S
C1260 C1257 1.424 . S
C1260 C1259 1.384 . S
C1260 H1278 0.928 . S
C1261 C1258 1.260 . S
C1261 C1259 1.479 . S
C1262 C1257 1.245 . S
C1262 C1258 1.477 . S
C1262 H1279 0.932 . S
C1263 U1246 2.882 . S
C1263 C1257 1.428 . S
C1263 O1266 1.301 . S
C1263 O1267 1.282 . S
O1264 U1246 2.441 . S
O1264 C1250 1.249 . S
O1265 U1246 2.420 . S
O1265 C1250 1.202 . S
O1266 U1246 2.455 . S
O1266 C1263 1.301 . S
O1267 U1246 2.449 . S
O1267 C1263 1.282 . S
H1268 C1241 0.931 . S
H1269 C1243 0.929 . S
H1270 C1244 0.930 . S
H1271 C1245 0.931 . S
H1272 C1252 0.932 . S
H1273 C1253 0.930 . S
H1274 C1254 0.929 . S
H1275 C1256 0.930 . S
H1276 C1258 0.932 . S
H1277 C1259 0.929 . S
H1278 C1260 0.928 . S
H1279 C1262 0.932 . S
C1280 C1281 1.264 . S
C1280 C1285 1.479 . S
C1280 C1290 1.465 . S
C1281 C1280 1.264 . S
C1281 C1283 1.339 . S
C1281 H1308 0.931 . S
C1282 C1283 1.395 . S
C1282 C1284 1.320 . S
C1283 C1281 1.339 . S
C1283 C1282 1.395 . S
C1283 H1309 0.929 . S
C1284 C1282 1.320 . S
C1284 C1285 1.405 . S
C1284 H1310 0.930 . S
C1285 C1280 1.479 . S
C1285 C1284 1.405 . S
C1285 H1311 0.931 . S
U1286 O1287 2.454 . S
U1286 O1288 2.458 . S
U1286 C1289 2.984 . S
U1286 C1290 2.847 . S
U1286 C1303 2.882 . S
U1286 O1304 2.441 . S
U1286 O1305 2.420 . S
U1286 O1306 2.455 . S
U1286 O1307 2.449 . S
O1287 U1286 2.454 . S
O1287 C1289 1.353 . S
O1288 U1286 2.458 . S
O1288 C1289 1.286 . S
C1289 U1286 2.984 . S
C1289 O1287 1.353 . S
C1289 O1288 1.286 . S
C1289 C1291 1.363 . S
C1290 C1280 1.465 . S
C1290 U1286 2.847 . S
C1290 O1304 1.249 . S
C1290 O1305 1.202 . S
C1291 C1289 1.363 . S
C1291 C1293 1.408 . S
C1291 C1296 1.342 . S
C1292 C1293 1.310 . S
C1292 C1295 1.461 . S
C1292 H1312 0.932 . S
C1293 C1291 1.408 . S
C1293 C1292 1.310 . S
C1293 H1313 0.930 . S
C1294 C1295 1.474 . S
C1294 C1296 1.285 . S
C1294 H1314 0.929 . S
C1295 C1292 1.461 . S
C1295 C1294 1.474 . S
C1296 C1291 1.342 . S
C1296 C1294 1.285 . S
C1296 H1315 0.930 . S
C1297 C1300 1.424 . S
C1297 C1302 1.245 . S
C1297 C1303 1.428 . S
C1298 C1301 1.260 . S
C1298 C1302 1.477 . S
C1298 H1316 0.932 . S
C1299 C1300 1.384 . S
C1299 C1301 1.479 . S
C1299 H1317 0.929 . S
C1300 C1297 1.424 . S
C1300 C1299 1.384 . S
C1300 H1318 0.928 . S
C1301 C1298 1.260 . S
C1301 C1299 1.479 . S
C1302 C1297 1.245 . S
C1302 C1298 1.477 . S
C1302 H1319 0.932 . S
C1303 U1286 2.882 . S
C1303 C1297 1.428 . S
C1303 O1306 1.301 . S
C1303 O1307 1.282 . S
O1304 U1286 2.441 . S
O1304 C1290 1.249 . S
O1305 U1286 2.420 . S
O1305 C1290 1.202 . S
O1306 U1286 2.455 . S
O1306 C1303 1.301 . S
O1307 U1286 2.449 . S
O1307 C1303 1.282 . S
H1308 C1281 0.931 . S
H1309 C1283 0.929 . S
H1310 C1284 0.930 . S
H1311 C1285 0.931 . S
H1312 C1292 0.932 . S
H1313 C1293 0.930 . S
H1314 C1294 0.929 . S
H1315 C1296 0.930 . S
H1316 C1298 0.932 . S
H1317 C1299 0.929 . S
H1318 C1300 0.928 . S
H1319 C1302 0.932 . S
C1320 C1321 1.264 . S
C1320 C1325 1.479 . S
C1320 C1330 1.465 . S
C1321 C1320 1.264 . S
C1321 C1323 1.339 . S
C1321 H1348 0.931 . S
C1322 C1323 1.395 . S
C1322 C1324 1.320 . S
C1323 C1321 1.339 . S
C1323 C1322 1.395 . S
C1323 H1349 0.929 . S
C1324 C1322 1.320 . S
C1324 C1325 1.405 . S
C1324 H1350 0.930 . S
C1325 C1320 1.479 . S
C1325 C1324 1.405 . S
C1325 H1351 0.931 . S
U1326 O1327 2.454 . S
U1326 O1328 2.458 . S
U1326 C1329 2.984 . S
U1326 C1330 2.847 . S
U1326 C1343 2.882 . S
U1326 O1344 2.441 . S
U1326 O1345 2.420 . S
U1326 O1346 2.455 . S
U1326 O1347 2.449 . S
O1327 U1326 2.454 . S
O1327 C1329 1.353 . S
O1328 U1326 2.458 . S
O1328 C1329 1.286 . S
C1329 U1326 2.984 . S
C1329 O1327 1.353 . S
C1329 O1328 1.286 . S
C1329 C1331 1.363 . S
C1330 C1320 1.465 . S
C1330 U1326 2.847 . S
C1330 O1344 1.249 . S
C1330 O1345 1.202 . S
C1331 C1329 1.363 . S
C1331 C1333 1.408 . S
C1331 C1336 1.342 . S
C1332 C1333 1.310 . S
C1332 C1335 1.461 . S
C1332 H1352 0.932 . S
C1333 C1331 1.408 . S
C1333 C1332 1.310 . S
C1333 H1353 0.930 . S
C1334 C1335 1.474 . S
C1334 C1336 1.285 . S
C1334 H1354 0.929 . S
C1335 C1332 1.461 . S
C1335 C1334 1.474 . S
C1336 C1331 1.342 . S
C1336 C1334 1.285 . S
C1336 H1355 0.930 . S
C1337 C1340 1.424 . S
C1337 C1342 1.245 . S
C1337 C1343 1.428 . S
C1338 C1341 1.260 . S
C1338 C1342 1.477 . S
C1338 H1356 0.932 . S
C1339 C1340 1.384 . S
C1339 C1341 1.479 . S
C1339 H1357 0.929 . S
C1340 C1337 1.424 . S
C1340 C1339 1.384 . S
C1340 H1358 0.928 . S
C1341 C1338 1.260 . S
C1341 C1339 1.479 . S
C1342 C1337 1.245 . S
C1342 C1338 1.477 . S
C1342 H1359 0.932 . S
C1343 U1326 2.882 . S
C1343 C1337 1.428 . S
C1343 O1346 1.301 . S
C1343 O1347 1.282 . S
O1344 U1326 2.441 . S
O1344 C1330 1.249 . S
O1345 U1326 2.420 . S
O1345 C1330 1.202 . S
O1346 U1326 2.455 . S
O1346 C1343 1.301 . S
O1347 U1326 2.449 . S
O1347 C1343 1.282 . S
H1348 C1321 0.931 . S
H1349 C1323 0.929 . S
H1350 C1324 0.930 . S
H1351 C1325 0.931 . S
H1352 C1332 0.932 . S
H1353 C1333 0.930 . S
H1354 C1334 0.929 . S
H1355 C1336 0.930 . S
H1356 C1338 0.932 . S
H1357 C1339 0.929 . S
H1358 C1340 0.928 . S
H1359 C1342 0.932 . S
C1360 C1361 1.264 . S
C1360 C1365 1.479 . S
C1360 C1370 1.465 . S
C1361 C1360 1.264 . S
C1361 C1363 1.339 . S
C1361 H1388 0.931 . S
C1362 C1363 1.395 . S
C1362 C1364 1.320 . S
C1363 C1361 1.339 . S
C1363 C1362 1.395 . S
C1363 H1389 0.929 . S
C1364 C1362 1.320 . S
C1364 C1365 1.405 . S
C1364 H1390 0.930 . S
C1365 C1360 1.479 . S
C1365 C1364 1.405 . S
C1365 H1391 0.931 . S
U1366 O1367 2.454 . S
U1366 O1368 2.458 . S
U1366 C1369 2.984 . S
U1366 C1370 2.847 . S
U1366 C1383 2.882 . S
U1366 O1384 2.441 . S
U1366 O1385 2.420 . S
U1366 O1386 2.455 . S
U1366 O1387 2.449 . S
O1367 U1366 2.454 . S
O1367 C1369 1.353 . S
O1368 U1366 2.458 . S
O1368 C1369 1.286 . S
C1369 U1366 2.984 . S
C1369 O1367 1.353 . S
C1369 O1368 1.286 . S
C1369 C1371 1.363 . S
C1370 C1360 1.465 . S
C1370 U1366 2.847 . S
C1370 O1384 1.249 . S
C1370 O1385 1.202 . S
C1371 C1369 1.363 . S
C1371 C1373 1.408 . S
C1371 C1376 1.342 . S
C1372 C1373 1.310 . S
C1372 C1375 1.461 . S
C1372 H1392 0.932 . S
C1373 C1371 1.408 . S
C1373 C1372 1.310 . S
C1373 H1393 0.930 . S
C1374 C1375 1.474 . S
C1374 C1376 1.285 . S
C1374 H1394 0.929 . S
C1375 C1372 1.461 . S
C1375 C1374 1.474 . S
C1376 C1371 1.342 . S
C1376 C1374 1.285 . S
C1376 H1395 0.930 . S
C1377 C1380 1.424 . S
C1377 C1382 1.245 . S
C1377 C1383 1.428 . S
C1378 C1381 1.260 . S
C1378 C1382 1.477 . S
C1378 H1396 0.932 . S
C1379 C1380 1.384 . S
C1379 C1381 1.479 . S
C1379 H1397 0.929 . S
C1380 C1377 1.424 . S
C1380 C1379 1.384 . S
C1380 H1398 0.928 . S
C1381 C1378 1.260 . S
C1381 C1379 1.479 . S
C1382 C1377 1.245 . S
C1382 C1378 1.477 . S
C1382 H1399 0.932 . S
C1383 U1366 2.882 . S
C1383 C1377 1.428 . S
C1383 O1386 1.301 . S
C1383 O1387 1.282 . S
O1384 U1366 2.441 . S
O1384 C1370 1.249 . S
O1385 U1366 2.420 . S
O1385 C1370 1.202 . S
O1386 U1366 2.455 . S
O1386 C1383 1.301 . S
O1387 U1366 2.449 . S
O1387 C1383 1.282 . S
H1388 C1361 0.931 . S
H1389 C1363 0.929 . S
H1390 C1364 0.930 . S
H1391 C1365 0.931 . S
H1392 C1372 0.932 . S
H1393 C1373 0.930 . S
H1394 C1374 0.929 . S
H1395 C1376 0.930 . S
H1396 C1378 0.932 . S
H1397 C1379 0.929 . S
H1398 C1380 0.928 . S
H1399 C1382 0.932 . S
C1400 C1401 1.264 . S
C1400 C1405 1.479 . S
C1400 C1410 1.465 . S
C1401 C1400 1.264 . S
C1401 C1403 1.339 . S
C1401 H1428 0.931 . S
C1402 C1403 1.395 . S
C1402 C1404 1.320 . S
C1403 C1401 1.339 . S
C1403 C1402 1.395 . S
C1403 H1429 0.929 . S
C1404 C1402 1.320 . S
C1404 C1405 1.405 . S
C1404 H1430 0.930 . S
C1405 C1400 1.479 . S
C1405 C1404 1.405 . S
C1405 H1431 0.931 . S
U1406 O1407 2.454 . S
U1406 O1408 2.458 . S
U1406 C1409 2.984 . S
U1406 C1410 2.847 . S
U1406 C1423 2.882 . S
U1406 O1424 2.441 . S
U1406 O1425 2.420 . S
U1406 O1426 2.455 . S
U1406 O1427 2.449 . S
O1407 U1406 2.454 . S
O1407 C1409 1.353 . S
O1408 U1406 2.458 . S
O1408 C1409 1.286 . S
C1409 U1406 2.984 . S
C1409 O1407 1.353 . S
C1409 O1408 1.286 . S
C1409 C1411 1.363 . S
C1410 C1400 1.465 . S
C1410 U1406 2.847 . S
C1410 O1424 1.249 . S
C1410 O1425 1.202 . S
C1411 C1409 1.363 . S
C1411 C1413 1.408 . S
C1411 C1416 1.342 . S
C1412 C1413 1.310 . S
C1412 C1415 1.461 . S
C1412 H1432 0.932 . S
C1413 C1411 1.408 . S
C1413 C1412 1.310 . S
C1413 H1433 0.930 . S
C1414 C1415 1.474 . S
C1414 C1416 1.285 . S
C1414 H1434 0.929 . S
C1415 C1412 1.461 . S
C1415 C1414 1.474 . S
C1416 C1411 1.342 . S
C1416 C1414 1.285 . S
C1416 H1435 0.930 . S
C1417 C1420 1.424 . S
C1417 C1422 1.245 . S
C1417 C1423 1.428 . S
C1418 C1421 1.260 . S
C1418 C1422 1.477 . S
C1418 H1436 0.932 . S
C1419 C1420 1.384 . S
C1419 C1421 1.479 . S
C1419 H1437 0.929 . S
C1420 C1417 1.424 . S
C1420 C1419 1.384 . S
C1420 H1438 0.928 . S
C1421 C1418 1.260 . S
C1421 C1419 1.479 . S
C1422 C1417 1.245 . S
C1422 C1418 1.477 . S
C1422 H1439 0.932 . S
C1423 U1406 2.882 . S
C1423 C1417 1.428 . S
C1423 O1426 1.301 . S
C1423 O1427 1.282 . S
O1424 U1406 2.441 . S
O1424 C1410 1.249 . S
O1425 U1406 2.420 . S
O1425 C1410 1.202 . S
O1426 U1406 2.455 . S
O1426 C1423 1.301 . S
O1427 U1406 2.449 . S
O1427 C1423 1.282 . S
H1428 C1401 0.931 . S
H1429 C1403 0.929 . S
H1430 C1404 0.930 . S
H1431 C1405 0.931 . S
H1432 C1412 0.932 . S
H1433 C1413 0.930 . S
H1434 C1414 0.929 . S
H1435 C1416 0.930 . S
H1436 C1418 0.932 . S
H1437 C1419 0.929 . S
H1438 C1420 0.928 . S
H1439 C1422 0.932 . S
C1440 C1441 1.264 . S
C1440 C1445 1.479 . S
C1440 C1450 1.465 . S
C1441 C1440 1.264 . S
C1441 C1443 1.339 . S
C1441 H1468 0.931 . S
C1442 C1443 1.395 . S
C1442 C1444 1.320 . S
C1443 C1441 1.339 . S
C1443 C1442 1.395 . S
C1443 H1469 0.929 . S
C1444 C1442 1.320 . S
C1444 C1445 1.405 . S
C1444 H1470 0.930 . S
C1445 C1440 1.479 . S
C1445 C1444 1.405 . S
C1445 H1471 0.931 . S
U1446 O1447 2.454 . S
U1446 O1448 2.458 . S
U1446 C1449 2.984 . S
U1446 C1450 2.847 . S
U1446 C1463 2.882 . S
U1446 O1464 2.441 . S
U1446 O1465 2.420 . S
U1446 O1466 2.455 . S
U1446 O1467 2.449 . S
O1447 U1446 2.454 . S
O1447 C1449 1.353 . S
O1448 U1446 2.458 . S
O1448 C1449 1.286 . S
C1449 U1446 2.984 . S
C1449 O1447 1.353 . S
C1449 O1448 1.286 . S
C1449 C1451 1.363 . S
C1450 C1440 1.465 . S
C1450 U1446 2.847 . S
C1450 O1464 1.249 . S
C1450 O1465 1.202 . S
C1451 C1449 1.363 . S
C1451 C1453 1.408 . S
C1451 C1456 1.342 . S
C1452 C1453 1.310 . S
C1452 C1455 1.461 . S
C1452 H1472 0.932 . S
C1453 C1451 1.408 . S
C1453 C1452 1.310 . S
C1453 H1473 0.930 . S
C1454 C1455 1.474 . S
C1454 C1456 1.285 . S
C1454 H1474 0.929 . S
C1455 C1452 1.461 . S
C1455 C1454 1.474 . S
C1456 C1451 1.342 . S
C1456 C1454 1.285 . S
C1456 H1475 0.930 . S
C1457 C1460 1.424 . S
C1457 C1462 1.245 . S
C1457 C1463 1.428 . S
C1458 C1461 1.260 . S
C1458 C1462 1.477 . S
C1458 H1476 0.932 . S
C1459 C1460 1.384 . S
C1459 C1461 1.479 . S
C1459 H1477 0.929 . S
C1460 C1457 1.424 . S
C1460 C1459 1.384 . S
C1460 H1478 0.928 . S
C1461 C1458 1.260 . S
C1461 C1459 1.479 . S
C1462 C1457 1.245 . S
C1462 C1458 1.477 . S
C1462 H1479 0.932 . S
C1463 U1446 2.882 . S
C1463 C1457 1.428 . S
C1463 O1466 1.301 . S
C1463 O1467 1.282 . S
O1464 U1446 2.441 . S
O1464 C1450 1.249 . S
O1465 U1446 2.420 . S
O1465 C1450 1.202 . S
O1466 U1446 2.455 . S
O1466 C1463 1.301 . S
O1467 U1446 2.449 . S
O1467 C1463 1.282 . S
H1468 C1441 0.931 . S
H1469 C1443 0.929 . S
H1470 C1444 0.930 . S
H1471 C1445 0.931 . S
H1472 C1452 0.932 . S
H1473 C1453 0.930 . S
H1474 C1454 0.929 . S
H1475 C1456 0.930 . S
H1476 C1458 0.932 . S
H1477 C1459 0.929 . S
H1478 C1460 0.928 . S
H1479 C1462 0.932 . S
C1480 C1481 1.264 . S
C1480 C1485 1.479 . S
C1480 C1490 1.465 . S
C1481 C1480 1.264 . S
C1481 C1483 1.339 . S
C1481 H1508 0.931 . S
C1482 C1483 1.395 . S
C1482 C1484 1.320 . S
C1483 C1481 1.339 . S
C1483 C1482 1.395 . S
C1483 H1509 0.929 . S
C1484 C1482 1.320 . S
C1484 C1485 1.405 . S
C1484 H1510 0.930 . S
C1485 C1480 1.479 . S
C1485 C1484 1.405 . S
C1485 H1511 0.931 . S
U1486 O1487 2.454 . S
U1486 O1488 2.458 . S
U1486 C1489 2.984 . S
U1486 C1490 2.847 . S
U1486 C1503 2.882 . S
U1486 O1504 2.441 . S
U1486 O1505 2.420 . S
U1486 O1506 2.455 . S
U1486 O1507 2.449 . S
O1487 U1486 2.454 . S
O1487 C1489 1.353 . S
O1488 U1486 2.458 . S
O1488 C1489 1.286 . S
C1489 U1486 2.984 . S
C1489 O1487 1.353 . S
C1489 O1488 1.286 . S
C1489 C1491 1.363 . S
C1490 C1480 1.465 . S
C1490 U1486 2.847 . S
C1490 O1504 1.249 . S
C1490 O1505 1.202 . S
C1491 C1489 1.363 . S
C1491 C1493 1.408 . S
C1491 C1496 1.342 . S
C1492 C1493 1.310 . S
C1492 C1495 1.461 . S
C1492 H1512 0.932 . S
C1493 C1491 1.408 . S
C1493 C1492 1.310 . S
C1493 H1513 0.930 . S
C1494 C1495 1.474 . S
C1494 C1496 1.285 . S
C1494 H1514 0.929 . S
C1495 C1492 1.461 . S
C1495 C1494 1.474 . S
C1496 C1491 1.342 . S
C1496 C1494 1.285 . S
C1496 H1515 0.930 . S
C1497 C1500 1.424 . S
C1497 C1502 1.245 . S
C1497 C1503 1.428 . S
C1498 C1501 1.260 . S
C1498 C1502 1.477 . S
C1498 H1516 0.932 . S
C1499 C1500 1.384 . S
C1499 C1501 1.479 . S
C1499 H1517 0.929 . S
C1500 C1497 1.424 . S
C1500 C1499 1.384 . S
C1500 H1518 0.928 . S
C1501 C1498 1.260 . S
C1501 C1499 1.479 . S
C1502 C1497 1.245 . S
C1502 C1498 1.477 . S
C1502 H1519 0.932 . S
C1503 U1486 2.882 . S
C1503 C1497 1.428 . S
C1503 O1506 1.301 . S
C1503 O1507 1.282 . S
O1504 U1486 2.441 . S
O1504 C1490 1.249 . S
O1505 U1486 2.420 . S
O1505 C1490 1.202 . S
O1506 U1486 2.455 . S
O1506 C1503 1.301 . S
O1507 U1486 2.449 . S
O1507 C1503 1.282 . S
H1508 C1481 0.931 . S
H1509 C1483 0.929 . S
H1510 C1484 0.930 . S
H1511 C1485 0.931 . S
H1512 C1492 0.932 . S
H1513 C1493 0.930 . S
H1514 C1494 0.929 . S
H1515 C1496 0.930 . S
H1516 C1498 0.932 . S
H1517 C1499 0.929 . S
H1518 C1500 0.928 . S
H1519 C1502 0.932 . S
C1520 C1521 1.264 . S
C1520 C1525 1.479 . S
C1520 C1530 1.465 . S
C1521 C1520 1.264 . S
C1521 C1523 1.339 . S
C1521 H1548 0.931 . S
C1522 C1523 1.395 . S
C1522 C1524 1.320 . S
C1523 C1521 1.339 . S
C1523 C1522 1.395 . S
C1523 H1549 0.929 . S
C1524 C1522 1.320 . S
C1524 C1525 1.405 . S
C1524 H1550 0.930 . S
C1525 C1520 1.479 . S
C1525 C1524 1.405 . S
C1525 H1551 0.931 . S
U1526 O1527 2.454 . S
U1526 O1528 2.458 . S
U1526 C1529 2.984 . S
U1526 C1530 2.847 . S
U1526 C1543 2.882 . S
U1526 O1544 2.441 . S
U1526 O1545 2.420 . S
U1526 O1546 2.455 . S
U1526 O1547 2.449 . S
O1527 U1526 2.454 . S
O1527 C1529 1.353 . S
O1528 U1526 2.458 . S
O1528 C1529 1.286 . S
C1529 U1526 2.984 . S
C1529 O1527 1.353 . S
C1529 O1528 1.286 . S
C1529 C1531 1.363 . S
C1530 C1520 1.465 . S
C1530 U1526 2.847 . S
C1530 O1544 1.249 . S
C1530 O1545 1.202 . S
C1531 C1529 1.363 . S
C1531 C1533 1.408 . S
C1531 C1536 1.342 . S
C1532 C1533 1.310 . S
C1532 C1535 1.461 . S
C1532 H1552 0.932 . S
C1533 C1531 1.408 . S
C1533 C1532 1.310 . S
C1533 H1553 0.930 . S
C1534 C1535 1.474 . S
C1534 C1536 1.285 . S
C1534 H1554 0.929 . S
C1535 C1532 1.461 . S
C1535 C1534 1.474 . S
C1536 C1531 1.342 . S
C1536 C1534 1.285 . S
C1536 H1555 0.930 . S
C1537 C1540 1.424 . S
C1537 C1542 1.245 . S
C1537 C1543 1.428 . S
C1538 C1541 1.260 . S
C1538 C1542 1.477 . S
C1538 H1556 0.932 . S
C1539 C1540 1.384 . S
C1539 C1541 1.479 . S
C1539 H1557 0.929 . S
C1540 C1537 1.424 . S
C1540 C1539 1.384 . S
C1540 H1558 0.928 . S
C1541 C1538 1.260 . S
C1541 C1539 1.479 . S
C1542 C1537 1.245 . S
C1542 C1538 1.477 . S
C1542 H1559 0.932 . S
C1543 U1526 2.882 . S
C1543 C1537 1.428 . S
C1543 O1546 1.301 . S
C1543 O1547 1.282 . S
O1544 U1526 2.441 . S
O1544 C1530 1.249 . S
O1545 U1526 2.420 . S
O1545 C1530 1.202 . S
O1546 U1526 2.455 . S
O1546 C1543 1.301 . S
O1547 U1526 2.449 . S
O1547 C1543 1.282 . S
H1548 C1521 0.931 . S
H1549 C1523 0.929 . S
H1550 C1524 0.930 . S
H1551 C1525 0.931 . S
H1552 C1532 0.932 . S
H1553 C1533 0.930 . S
H1554 C1534 0.929 . S
H1555 C1536 0.930 . S
H1556 C1538 0.932 . S
H1557 C1539 0.929 . S
H1558 C1540 0.928 . S
H1559 C1542 0.932 . S
C1560 C1561 1.264 . S
C1560 C1565 1.479 . S
C1560 C1570 1.465 . S
C1561 C1560 1.264 . S
C1561 C1563 1.339 . S
C1561 H1588 0.931 . S
C1562 C1563 1.395 . S
C1562 C1564 1.320 . S
C1563 C1561 1.339 . S
C1563 C1562 1.395 . S
C1563 H1589 0.929 . S
C1564 C1562 1.320 . S
C1564 C1565 1.405 . S
C1564 H1590 0.930 . S
C1565 C1560 1.479 . S
C1565 C1564 1.405 . S
C1565 H1591 0.931 . S
U1566 O1567 2.454 . S
U1566 O1568 2.458 . S
U1566 C1569 2.984 . S
U1566 C1570 2.847 . S
U1566 C1583 2.882 . S
U1566 O1584 2.441 . S
U1566 O1585 2.420 . S
U1566 O1586 2.455 . S
U1566 O1587 2.449 . S
O1567 U1566 2.454 . S
O1567 C1569 1.353 . S
O1568 U1566 2.458 . S
O1568 C1569 1.286 . S
C1569 U1566 2.984 . S
C1569 O1567 1.353 . S
C1569 O1568 1.286 . S
C1569 C1571 1.363 . S
C1570 C1560 1.465 . S
C1570 U1566 2.847 . S
C1570 O1584 1.249 . S
C1570 O1585 1.202 . S
C1571 C1569 1.363 . S
C1571 C1573 1.408 . S
C1571 C1576 1.342 . S
C1572 C1573 1.310 . S
C1572 C1575 1.461 . S
C1572 H1592 0.932 . S
C1573 C1571 1.408 . S
C1573 C1572 1.310 . S
C1573 H1593 0.930 . S
C1574 C1575 1.474 . S
C1574 C1576 1.285 . S
C1574 H1594 0.929 . S
C1575 C1572 1.461 . S
C1575 C1574 1.474 . S
C1576 C1571 1.342 . S
C1576 C1574 1.285 . S
C1576 H1595 0.930 . S
C1577 C1580 1.424 . S
C1577 C1582 1.245 . S
C1577 C1583 1.428 . S
C1578 C1581 1.260 . S
C1578 C1582 1.477 . S
C1578 H1596 0.932 . S
C1579 C1580 1.384 . S
C1579 C1581 1.479 . S
C1579 H1597 0.929 . S
C1580 C1577 1.424 . S
C1580 C1579 1.384 . S
C1580 H1598 0.928 . S
C1581 C1578 1.260 . S
C1581 C1579 1.479 . S
C1582 C1577 1.245 . S
C1582 C1578 1.477 . S
C1582 H1599 0.932 . S
C1583 U1566 2.882 . S
C1583 C1577 1.428 . S
C1583 O1586 1.301 . S
C1583 O1587 1.282 . S
O1584 U1566 2.441 . S
O1584 C1570 1.249 . S
O1585 U1566 2.420 . S
O1585 C1570 1.202 . S
O1586 U1566 2.455 . S
O1586 C1583 1.301 . S
O1587 U1566 2.449 . S
O1587 C1583 1.282 . S
H1588 C1561 0.931 . S
H1589 C1563 0.929 . S
H1590 C1564 0.930 . S
H1591 C1565 0.931 . S
H1592 C1572 0.932 . S
H1593 C1573 0.930 . S
H1594 C1574 0.929 . S
H1595 C1576 0.930 . S
H1596 C1578 0.932 . S
H1597 C1579 0.929 . S
H1598 C1580 0.928 . S
H1599 C1582 0.932 . S
C1600 C1601 1.264 . S
C1600 C1605 1.479 . S
C1600 C1610 1.465 . S
C1601 C1600 1.264 . S
C1601 C1603 1.339 . S
C1601 H1628 0.931 . S
C1602 C1603 1.395 . S
C1602 C1604 1.320 . S
C1603 C1601 1.339 . S
C1603 C1602 1.395 . S
C1603 H1629 0.929 . S
C1604 C1602 1.320 . S
C1604 C1605 1.405 . S
C1604 H1630 0.930 . S
C1605 C1600 1.479 . S
C1605 C1604 1.405 . S
C1605 H1631 0.931 . S
U1606 O1607 2.454 . S
U1606 O1608 2.458 . S
U1606 C1609 2.984 . S
U1606 C1610 2.847 . S
U1606 C1623 2.882 . S
U1606 O1624 2.441 . S
U1606 O1625 2.420 . S
U1606 O1626 2.455 . S
U1606 O1627 2.449 . S
O1607 U1606 2.454 . S
O1607 C1609 1.353 . S
O1608 U1606 2.458 . S
O1608 C1609 1.286 . S
C1609 U1606 2.984 . S
C1609 O1607 1.353 . S
C1609 O1608 1.286 . S
C1609 C1611 1.363 . S
C1610 C1600 1.465 . S
C1610 U1606 2.847 . S
C1610 O1624 1.249 . S
C1610 O1625 1.202 . S
C1611 C1609 1.363 . S
C1611 C1613 1.408 . S
C1611 C1616 1.342 . S
C1612 C1613 1.310 . S
C1612 C1615 1.461 . S
C1612 H1632 0.932 . S
C1613 C1611 1.408 . S
C1613 C1612 1.310 . S
C1613 H1633 0.930 . S
C1614 C1615 1.474 . S
C1614 C1616 1.285 . S
C1614 H1634 0.929 . S
C1615 C1612 1.461 . S
C1615 C1614 1.474 . S
C1616 C1611 1.342 . S
C1616 C1614 1.285 . S
C1616 H1635 0.930 . S
C1617 C1620 1.424 . S
C1617 C1622 1.245 . S
C1617 C1623 1.428 . S
C1618 C1621 1.260 . S
C1618 C1622 1.477 . S
C1618 H1636 0.932 . S
C1619 C1620 1.384 . S
C1619 C1621 1.479 . S
C1619 H1637 0.929 . S
C1620 C1617 1.424 . S
C1620 C1619 1.384 . S
C1620 H1638 0.928 . S
C1621 C1618 1.260 . S
C1621 C1619 1.479 . S
C1622 C1617 1.245 . S
C1622 C1618 1.477 . S
C1622 H1639 0.932 . S
C1623 U1606 2.882 . S
C1623 C1617 1.428 . S
C1623 O1626 1.301 . S
C1623 O1627 1.282 . S
O1624 U1606 2.441 . S
O1624 C1610 1.249 . S
O1625 U1606 2.420 . S
O1625 C1610 1.202 . S
O1626 U1606 2.455 . S
O1626 C1623 1.301 . S
O1627 U1606 2.449 . S
O1627 C1623 1.282 . S
H1628 C1601 0.931 . S
H1629 C1603 0.929 . S
H1630 C1604 0.930 . S
H1631 C1605 0.931 . S
H1632 C1612 0.932 . S
H1633 C1613 0.930 . S
H1634 C1614 0.929 . S
H1635 C1616 0.930 . S
H1636 C1618 0.932 . S
H1637 C1619 0.929 . S
H1638 C1620 0.928 . S
H1639 C1622 0.932 . S
C1640 C1641 1.264 . S
C1640 C1645 1.479 . S
C1640 C1650 1.465 . S
C1641 C1640 1.264 . S
C1641 C1643 1.339 . S
C1641 H1668 0.931 . S
C1642 C1643 1.395 . S
C1642 C1644 1.320 . S
C1643 C1641 1.339 . S
C1643 C1642 1.395 . S
C1643 H1669 0.929 . S
C1644 C1642 1.320 . S
C1644 C1645 1.405 . S
C1644 H1670 0.930 . S
C1645 C1640 1.479 . S
C1645 C1644 1.405 . S
C1645 H1671 0.931 . S
U1646 O1647 2.454 . S
U1646 O1648 2.458 . S
U1646 C1649 2.984 . S
U1646 C1650 2.847 . S
U1646 C1663 2.882 . S
U1646 O1664 2.441 . S
U1646 O1665 2.420 . S
U1646 O1666 2.455 . S
U1646 O1667 2.449 . S
O1647 U1646 2.454 . S
O1647 C1649 1.353 . S
O1648 U1646 2.458 . S
O1648 C1649 1.286 . S
C1649 U1646 2.984 . S
C1649 O1647 1.353 . S
C1649 O1648 1.286 . S
C1649 C1651 1.363 . S
C1650 C1640 1.465 . S
C1650 U1646 2.847 . S
C1650 O1664 1.249 . S
C1650 O1665 1.202 . S
C1651 C1649 1.363 . S
C1651 C1653 1.408 . S
C1651 C1656 1.342 . S
C1652 C1653 1.310 . S
C1652 C1655 1.461 . S
C1652 H1672 0.932 . S
C1653 C1651 1.408 . S
C1653 C1652 1.310 . S
C1653 H1673 0.930 . S
C1654 C1655 1.474 . S
C1654 C1656 1.285 . S
C1654 H1674 0.929 . S
C1655 C1652 1.461 . S
C1655 C1654 1.474 . S
C1656 C1651 1.342 . S
C1656 C1654 1.285 . S
C1656 H1675 0.930 . S
C1657 C1660 1.424 . S
C1657 C1662 1.245 . S
C1657 C1663 1.428 . S
C1658 C1661 1.260 . S
C1658 C1662 1.477 . S
C1658 H1676 0.932 . S
C1659 C1660 1.384 . S
C1659 C1661 1.479 . S
C1659 H1677 0.929 . S
C1660 C1657 1.424 . S
C1660 C1659 1.384 . S
C1660 H1678 0.928 . S
C1661 C1658 1.260 . S
C1661 C1659 1.479 . S
C1662 C1657 1.245 . S
C1662 C1658 1.477 . S
C1662 H1679 0.932 . S
C1663 U1646 2.882 . S
C1663 C1657 1.428 . S
C1663 O1666 1.301 . S
C1663 O1667 1.282 . S
O1664 U1646 2.441 . S
O1664 C1650 1.249 . S
O1665 U1646 2.420 . S
O1665 C1650 1.202 . S
O1666 U1646 2.455 . S
O1666 C1663 1.301 . S
O1667 U1646 2.449 . S
O1667 C1663 1.282 . S
H1668 C1641 0.931 . S
H1669 C1643 0.929 . S
H1670 C1644 0.930 . S
H1671 C1645 0.931 . S
H1672 C1652 0.932 . S
H1673 C1653 0.930 . S
H1674 C1654 0.929 . S
H1675 C1656 0.930 . S
H1676 C1658 0.932 . S
H1677 C1659 0.929 . S
H1678 C1660 0.928 . S
H1679 C1662 0.932 . S
C1680 C1681 1.264 . S
C1680 C1685 1.479 . S
C1680 C1690 1.465 . S
C1681 C1680 1.264 . S
C1681 C1683 1.339 . S
C1681 H1708 0.931 . S
C1682 C1683 1.395 . S
C1682 C1684 1.320 . S
C1683 C1681 1.339 . S
C1683 C1682 1.395 . S
C1683 H1709 0.929 . S
C1684 C1682 1.320 . S
C1684 C1685 1.405 . S
C1684 H1710 0.930 . S
C1685 C1680 1.479 . S
C1685 C1684 1.405 . S
C1685 H1711 0.931 . S
U1686 O1687 2.454 . S
U1686 O1688 2.458 . S
U1686 C1689 2.984 . S
U1686 C1690 2.847 . S
U1686 C1703 2.882 . S
U1686 O1704 2.441 . S
U1686 O1705 2.420 . S
U1686 O1706 2.455 . S
U1686 O1707 2.449 . S
O1687 U1686 2.454 . S
O1687 C1689 1.353 . S
O1688 U1686 2.458 . S
O1688 C1689 1.286 . S
C1689 U1686 2.984 . S
C1689 O1687 1.353 . S
C1689 O1688 1.286 . S
C1689 C1691 1.363 . S
C1690 C1680 1.465 . S
C1690 U1686 2.847 . S
C1690 O1704 1.249 . S
C1690 O1705 1.202 . S
C1691 C1689 1.363 . S
C1691 C1693 1.408 . S
C1691 C1696 1.342 . S
C1692 C1693 1.310 . S
C1692 C1695 1.461 . S
C1692 H1712 0.932 . S
C1693 C1691 1.408 . S
C1693 C1692 1.310 . S
C1693 H1713 0.930 . S
C1694 C1695 1.474 . S
C1694 C1696 1.285 . S
C1694 H1714 0.929 . S
C1695 C1692 1.461 . S
C1695 C1694 1.474 . S
C1696 C1691 1.342 . S
C1696 C1694 1.285 . S
C1696 H1715 0.930 . S
C1697 C1700 1.424 . S
C1697 C1702 1.245 . S
C1697 C1703 1.428 . S
C1698 C1701 1.260 . S
C1698 C1702 1.477 . S
C1698 H1716 0.932 . S
C1699 C1700 1.384 . S
C1699 C1701 1.479 . S
C1699 H1717 0.929 . S
C1700 C1697 1.424 . S
C1700 C1699 1.384 . S
C1700 H1718 0.928 . S
C1701 C1698 1.260 . S
C1701 C1699 1.479 . S
C1702 C1697 1.245 . S
C1702 C1698 1.477 . S
C1702 H1719 0.932 . S
C1703 U1686 2.882 . S
C1703 C1697 1.428 . S
C1703 O1706 1.301 . S
C1703 O1707 1.282 . S
O1704 U1686 2.441 . S
O1704 C1690 1.249 . S
O1705 U1686 2.420 . S
O1705 C1690 1.202 . S
O1706 U1686 2.455 . S
O1706 C1703 1.301 . S
O1707 U1686 2.449 . S
O1707 C1703 1.282 . S
H1708 C1681 0.931 . S
H1709 C1683 0.929 . S
H1710 C1684 0.930 . S
H1711 C1685 0.931 . S
H1712 C1692 0.932 . S
H1713 C1693 0.930 . S
H1714 C1694 0.929 . S
H1715 C1696 0.930 . S
H1716 C1698 0.932 . S
H1717 C1699 0.929 . S
H1718 C1700 0.928 . S
H1719 C1702 0.932 . S
C1720 C1721 1.264 . S
C1720 C1725 1.479 . S
C1720 C1730 1.465 . S
C1721 C1720 1.264 . S
C1721 C1723 1.339 . S
C1721 H1748 0.931 . S
C1722 C1723 1.395 . S
C1722 C1724 1.320 . S
C1723 C1721 1.339 . S
C1723 C1722 1.395 . S
C1723 H1749 0.929 . S
C1724 C1722 1.320 . S
C1724 C1725 1.405 . S
C1724 H1750 0.930 . S
C1725 C1720 1.479 . S
C1725 C1724 1.405 . S
C1725 H1751 0.931 . S
U1726 O1727 2.454 . S
U1726 O1728 2.458 . S
U1726 C1729 2.984 . S
U1726 C1730 2.847 . S
U1726 C1743 2.882 . S
U1726 O1744 2.441 . S
U1726 O1745 2.420 . S
U1726 O1746 2.455 . S
U1726 O1747 2.449 . S
O1727 U1726 2.454 . S
O1727 C1729 1.353 . S
O1728 U1726 2.458 . S
O1728 C1729 1.286 . S
C1729 U1726 2.984 . S
C1729 O1727 1.353 . S
C1729 O1728 1.286 . S
C1729 C1731 1.363 . S
C1730 C1720 1.465 . S
C1730 U1726 2.847 . S
C1730 O1744 1.249 . S
C1730 O1745 1.202 . S
C1731 C1729 1.363 . S
C1731 C1733 1.408 . S
C1731 C1736 1.342 . S
C1732 C1733 1.310 . S
C1732 C1735 1.461 . S
C1732 H1752 0.932 . S
C1733 C1731 1.408 . S
C1733 C1732 1.310 . S
C1733 H1753 0.930 . S
C1734 C1735 1.474 . S
C1734 C1736 1.285 . S
C1734 H1754 0.929 . S
C1735 C1732 1.461 . S
C1735 C1734 1.474 . S
C1736 C1731 1.342 . S
C1736 C1734 1.285 . S
C1736 H1755 0.930 . S
C1737 C1740 1.424 . S
C1737 C1742 1.245 . S
C1737 C1743 1.428 . S
C1738 C1741 1.260 . S
C1738 C1742 1.477 . S
C1738 H1756 0.932 . S
C1739 C1740 1.384 . S
C1739 C1741 1.479 . S
C1739 H1757 0.929 . S
C1740 C1737 1.424 . S
C1740 C1739 1.384 . S
C1740 H1758 0.928 . S
C1741 C1738 1.260 . S
C1741 C1739 1.479 . S
C1742 C1737 1.245 . S
C1742 C1738 1.477 . S
C1742 H1759 0.932 . S
C1743 U1726 2.882 . S
C1743 C1737 1.428 . S
C1743 O1746 1.301 . S
C1743 O1747 1.282 . S
O1744 U1726 2.441 . S
O1744 C1730 1.249 . S
O1745 U1726 2.420 . S
O1745 C1730 1.202 . S
O1746 U1726 2.455 . S
O1746 C1743 1.301 . S
O1747 U1726 2.449 . S
O1747 C1743 1.282 . S
H1748 C1721 0.931 . S
H1749 C1723 0.929 . S
H1750 C1724 0.930 . S
H1751 C1725 0.931 . S
H1752 C1732 0.932 . S
H1753 C1733 0.930 . S
H1754 C1734 0.929 . S
H1755 C1736 0.930 . S
H1756 C1738 0.932 . S
H1757 C1739 0.929 . S
H1758 C1740 0.928 . S
H1759 C1742 0.932 . S
C1760 C1761 1.264 . S
C1760 C1765 1.479 . S
C1760 C1770 1.465 . S
C1761 C1760 1.264 . S
C1761 C1763 1.339 . S
C1761 H1788 0.931 . S
C1762 C1763 1.395 . S
C1762 C1764 1.320 . S
C1763 C1761 1.339 . S
C1763 C1762 1.395 . S
C1763 H1789 0.929 . S
C1764 C1762 1.320 . S
C1764 C1765 1.405 . S
C1764 H1790 0.930 . S
C1765 C1760 1.479 . S
C1765 C1764 1.405 . S
C1765 H1791 0.931 . S
U1766 O1767 2.454 . S
U1766 O1768 2.458 . S
U1766 C1769 2.984 . S
U1766 C1770 2.847 . S
U1766 C1783 2.882 . S
U1766 O1784 2.441 . S
U1766 O1785 2.420 . S
U1766 O1786 2.455 . S
U1766 O1787 2.449 . S
O1767 U1766 2.454 . S
O1767 C1769 1.353 . S
O1768 U1766 2.458 . S
O1768 C1769 1.286 . S
C1769 U1766 2.984 . S
C1769 O1767 1.353 . S
C1769 O1768 1.286 . S
C1769 C1771 1.363 . S
C1770 C1760 1.465 . S
C1770 U1766 2.847 . S
C1770 O1784 1.249 . S
C1770 O1785 1.202 . S
C1771 C1769 1.363 . S
C1771 C1773 1.408 . S
C1771 C1776 1.342 . S
C1772 C1773 1.310 . S
C1772 C1775 1.461 . S
C1772 H1792 0.932 . S
C1773 C1771 1.408 . S
C1773 C1772 1.310 . S
C1773 H1793 0.930 . S
C1774 C1775 1.474 . S
C1774 C1776 1.285 . S
C1774 H1794 0.929 . S
C1775 C1772 1.461 . S
C1775 C1774 1.474 . S
C1776 C1771 1.342 . S
C1776 C1774 1.285 . S
C1776 H1795 0.930 . S
C1777 C1780 1.424 . S
C1777 C1782 1.245 . S
C1777 C1783 1.428 . S
C1778 C1781 1.260 . S
C1778 C1782 1.477 . S
C1778 H1796 0.932 . S
C1779 C1780 1.384 . S
C1779 C1781 1.479 . S
C1779 H1797 0.929 . S
C1780 C1777 1.424 . S
C1780 C1779 1.384 . S
C1780 H1798 0.928 . S
C1781 C1778 1.260 . S
C1781 C1779 1.479 . S
C1782 C1777 1.245 . S
C1782 C1778 1.477 . S
C1782 H1799 0.932 . S
C1783 U1766 2.882 . S
C1783 C1777 1.428 . S
C1783 O1786 1.301 . S
C1783 O1787 1.282 . S
O1784 U1766 2.441 . S
O1784 C1770 1.249 . S
O1785 U1766 2.420 . S
O1785 C1770 1.202 . S
O1786 U1766 2.455 . S
O1786 C1783 1.301 . S
O1787 U1766 2.449 . S
O1787 C1783 1.282 . S
H1788 C1761 0.931 . S
H1789 C1763 0.929 . S
H1790 C1764 0.930 . S
H1791 C1765 0.931 . S
H1792 C1772 0.932 . S
H1793 C1773 0.930 . S
H1794 C1774 0.929 . S
H1795 C1776 0.930 . S
H1796 C1778 0.932 . S
H1797 C1779 0.929 . S
H1798 C1780 0.928 . S
H1799 C1782 0.932 . S
C1800 C1801 1.264 . S
C1800 C1805 1.479 . S
C1800 C1810 1.465 . S
C1801 C1800 1.264 . S
C1801 C1803 1.339 . S
C1801 H1828 0.931 . S
C1802 C1803 1.395 . S
C1802 C1804 1.320 . S
C1803 C1801 1.339 . S
C1803 C1802 1.395 . S
C1803 H1829 0.929 . S
C1804 C1802 1.320 . S
C1804 C1805 1.405 . S
C1804 H1830 0.930 . S
C1805 C1800 1.479 . S
C1805 C1804 1.405 . S
C1805 H1831 0.931 . S
U1806 O1807 2.454 . S
U1806 O1808 2.458 . S
U1806 C1809 2.984 . S
U1806 C1810 2.847 . S
U1806 C1823 2.882 . S
U1806 O1824 2.441 . S
U1806 O1825 2.420 . S
U1806 O1826 2.455 . S
U1806 O1827 2.449 . S
O1807 U1806 2.454 . S
O1807 C1809 1.353 . S
O1808 U1806 2.458 . S
O1808 C1809 1.286 . S
C1809 U1806 2.984 . S
C1809 O1807 1.353 . S
C1809 O1808 1.286 . S
C1809 C1811 1.363 . S
C1810 C1800 1.465 . S
C1810 U1806 2.847 . S
C1810 O1824 1.249 . S
C1810 O1825 1.202 . S
C1811 C1809 1.363 . S
C1811 C1813 1.408 . S
C1811 C1816 1.342 . S
C1812 C1813 1.310 . S
C1812 C1815 1.461 . S
C1812 H1832 0.932 . S
C1813 C1811 1.408 . S
C1813 C1812 1.310 . S
C1813 H1833 0.930 . S
C1814 C1815 1.474 . S
C1814 C1816 1.285 . S
C1814 H1834 0.929 . S
C1815 C1812 1.461 . S
C1815 C1814 1.474 . S
C1816 C1811 1.342 . S
C1816 C1814 1.285 . S
C1816 H1835 0.930 . S
C1817 C1820 1.424 . S
C1817 C1822 1.245 . S
C1817 C1823 1.428 . S
C1818 C1821 1.260 . S
C1818 C1822 1.477 . S
C1818 H1836 0.932 . S
C1819 C1820 1.384 . S
C1819 C1821 1.479 . S
C1819 H1837 0.929 . S
C1820 C1817 1.424 . S
C1820 C1819 1.384 . S
C1820 H1838 0.928 . S
C1821 C1818 1.260 . S
C1821 C1819 1.479 . S
C1822 C1817 1.245 . S
C1822 C1818 1.477 . S
C1822 H1839 0.932 . S
C1823 U1806 2.882 . S
C1823 C1817 1.428 . S
C1823 O1826 1.301 . S
C1823 O1827 1.282 . S
O1824 U1806 2.441 . S
O1824 C1810 1.249 . S
O1825 U1806 2.420 . S
O1825 C1810 1.202 . S
O1826 U1806 2.455 . S
O1826 C1823 1.301 . S
O1827 U1806 2.449 . S
O1827 C1823 1.282 . S
H1828 C1801 0.931 . S
H1829 C1803 0.929 . S
H1830 C1804 0.930 . S
H1831 C1805 0.931 . S
H1832 C1812 0.932 . S
H1833 C1813 0.930 . S
H1834 C1814 0.929 . S
H1835 C1816 0.930 . S
H1836 C1818 0.932 . S
H1837 C1819 0.929 . S
H1838 C1820 0.928 . S
H1839 C1822 0.932 . S
C1840 C1841 1.264 . S
C1840 C1845 1.479 . S
C1840 C1850 1.465 . S
C1841 C1840 1.264 . S
C1841 C1843 1.339 . S
C1841 H1868 0.931 . S
C1842 C1843 1.395 . S
C1842 C1844 1.320 . S
C1843 C1841 1.339 . S
C1843 C1842 1.395 . S
C1843 H1869 0.929 . S
C1844 C1842 1.320 . S
C1844 C1845 1.405 . S
C1844 H1870 0.930 . S
C1845 C1840 1.479 . S
C1845 C1844 1.405 . S
C1845 H1871 0.931 . S
U1846 O1847 2.454 . S
U1846 O1848 2.458 . S
U1846 C1849 2.984 . S
U1846 C1850 2.847 . S
U1846 C1863 2.882 . S
U1846 O1864 2.441 . S
U1846 O1865 2.420 . S
U1846 O1866 2.455 . S
U1846 O1867 2.449 . S
O1847 U1846 2.454 . S
O1847 C1849 1.353 . S
O1848 U1846 2.458 . S
O1848 C1849 1.286 . S
C1849 U1846 2.984 . S
C1849 O1847 1.353 . S
C1849 O1848 1.286 . S
C1849 C1851 1.363 . S
C1850 C1840 1.465 . S
C1850 U1846 2.847 . S
C1850 O1864 1.249 . S
C1850 O1865 1.202 . S
C1851 C1849 1.363 . S
C1851 C1853 1.408 . S
C1851 C1856 1.342 . S
C1852 C1853 1.310 . S
C1852 C1855 1.461 . S
C1852 H1872 0.932 . S
C1853 C1851 1.408 . S
C1853 C1852 1.310 . S
C1853 H1873 0.930 . S
C1854 C1855 1.474 . S
C1854 C1856 1.285 . S
C1854 H1874 0.929 . S
C1855 C1852 1.461 . S
C1855 C1854 1.474 . S
C1856 C1851 1.342 . S
C1856 C1854 1.285 . S
C1856 H1875 0.930 . S
C1857 C1860 1.424 . S
C1857 C1862 1.245 . S
C1857 C1863 1.428 . S
C1858 C1861 1.260 . S
C1858 C1862 1.477 . S
C1858 H1876 0.932 . S
C1859 C1860 1.384 . S
C1859 C1861 1.479 . S
C1859 H1877 0.929 . S
C1860 C1857 1.424 . S
C1860 C1859 1.384 . S
C1860 H1878 0.928 . S
C1861 C1858 1.260 . S
C1861 C1859 1.479 . S
C1862 C1857 1.245 . S
C1862 C1858 1.477 . S
C1862 H1879 0.932 . S
C1863 U1846 2.882 . S
C1863 C1857 1.428 . S
C1863 O1866 1.301 . S
C1863 O1867 1.282 . S
O1864 U1846 2.441 . S
O1864 C1850 1.249 . S
O1865 U1846 2.420 . S
O1865 C1850 1.202 . S
O1866 U1846 2.455 . S
O1866 C1863 1.301 . S
O1867 U1846 2.449 . S
O1867 C1863 1.282 . S
H1868 C1841 0.931 . S
H1869 C1843 0.929 . S
H1870 C1844 0.930 . S
H1871 C1845 0.931 . S
H1872 C1852 0.932 . S
H1873 C1853 0.930 . S
H1874 C1854 0.929 . S
H1875 C1856 0.930 . S
H1876 C1858 0.932 . S
H1877 C1859 0.929 . S
H1878 C1860 0.928 . S
H1879 C1862 0.932 . S
C1880 C1881 1.264 . S
C1880 C1885 1.479 . S
C1880 C1890 1.465 . S
C1881 C1880 1.264 . S
C1881 C1883 1.339 . S
C1881 H1908 0.931 . S
C1882 C1883 1.395 . S
C1882 C1884 1.320 . S
C1883 C1881 1.339 . S
C1883 C1882 1.395 . S
C1883 H1909 0.929 . S
C1884 C1882 1.320 . S
C1884 C1885 1.405 . S
C1884 H1910 0.930 . S
C1885 C1880 1.479 . S
C1885 C1884 1.405 . S
C1885 H1911 0.931 . S
U1886 O1887 2.454 . S
U1886 O1888 2.458 . S
U1886 C1889 2.984 . S
U1886 C1890 2.847 . S
U1886 C1903 2.882 . S
U1886 O1904 2.441 . S
U1886 O1905 2.420 . S
U1886 O1906 2.455 . S
U1886 O1907 2.449 . S
O1887 U1886 2.454 . S
O1887 C1889 1.353 . S
O1888 U1886 2.458 . S
O1888 C1889 1.286 . S
C1889 U1886 2.984 . S
C1889 O1887 1.353 . S
C1889 O1888 1.286 . S
C1889 C1891 1.363 . S
C1890 C1880 1.465 . S
C1890 U1886 2.847 . S
C1890 O1904 1.249 . S
C1890 O1905 1.202 . S
C1891 C1889 1.363 . S
C1891 C1893 1.408 . S
C1891 C1896 1.342 . S
C1892 C1893 1.310 . S
C1892 C1895 1.461 . S
C1892 H1912 0.932 . S
C1893 C1891 1.408 . S
C1893 C1892 1.310 . S
C1893 H1913 0.930 . S
C1894 C1895 1.474 . S
C1894 C1896 1.285 . S
C1894 H1914 0.929 . S
C1895 C1892 1.461 . S
C1895 C1894 1.474 . S
C1896 C1891 1.342 . S
C1896 C1894 1.285 . S
C1896 H1915 0.930 . S
C1897 C1900 1.424 . S
C1897 C1902 1.245 . S
C1897 C1903 1.428 . S
C1898 C1901 1.260 . S
C1898 C1902 1.477 . S
C1898 H1916 0.932 . S
C1899 C1900 1.384 . S
C1899 C1901 1.479 . S
C1899 H1917 0.929 . S
C1900 C1897 1.424 . S
C1900 C1899 1.384 . S
C1900 H1918 0.928 . S
C1901 C1898 1.260 . S
C1901 C1899 1.479 . S
C1902 C1897 1.245 . S
C1902 C1898 1.477 . S
C1902 H1919 0.932 . S
C1903 U1886 2.882 . S
C1903 C1897 1.428 . S
C1903 O1906 1.301 . S
C1903 O1907 1.282 . S
O1904 U1886 2.441 . S
O1904 C1890 1.249 . S
O1905 U1886 2.420 . S
O1905 C1890 1.202 . S
O1906 U1886 2.455 . S
O1906 C1903 1.301 . S
O1907 U1886 2.449 . S
O1907 C1903 1.282 . S
H1908 C1881 0.931 . S
H1909 C1883 0.929 . S
H1910 C1884 0.930 . S
H1911 C1885 0.931 . S
H1912 C1892 0.932 . S
H1913 C1893 0.930 . S
H1914 C1894 0.929 . S
H1915 C1896 0.930 . S
H1916 C1898 0.932 . S
H1917 C1899 0.929 . S
H1918 C1900 0.928 . S
H1919 C1902 0.932 . S
C1920 C1921 1.264 . S
C1920 C1925 1.479 . S
C1920 C1930 1.465 . S
C1921 C1920 1.264 . S
C1921 C1923 1.339 . S
C1921 H1948 0.931 . S
C1922 C1923 1.395 . S
C1922 C1924 1.320 . S
C1923 C1921 1.339 . S
C1923 C1922 1.395 . S
C1923 H1949 0.929 . S
C1924 C1922 1.320 . S
C1924 C1925 1.405 . S
C1924 H1950 0.930 . S
C1925 C1920 1.479 . S
C1925 C1924 1.405 . S
C1925 H1951 0.931 . S
U1926 O1927 2.454 . S
U1926 O1928 2.458 . S
U1926 C1929 2.984 . S
U1926 C1930 2.847 . S
U1926 C1943 2.882 . S
U1926 O1944 2.441 . S
U1926 O1945 2.420 . S
U1926 O1946 2.455 . S
U1926 O1947 2.449 . S
O1927 U1926 2.454 . S
O1927 C1929 1.353 . S
O1928 U1926 2.458 . S
O1928 C1929 1.286 . S
C1929 U1926 2.984 . S
C1929 O1927 1.353 . S
C1929 O1928 1.286 . S
C1929 C1931 1.363 . S
C1930 C1920 1.465 . S
C1930 U1926 2.847 . S
C1930 O1944 1.249 . S
C1930 O1945 1.202 . S
C1931 C1929 1.363 . S
C1931 C1933 1.408 . S
C1931 C1936 1.342 . S
C1932 C1933 1.310 . S
C1932 C1935 1.461 . S
C1932 H1952 0.932 . S
C1933 C1931 1.408 . S
C1933 C1932 1.310 . S
C1933 H1953 0.930 . S
C1934 C1935 1.474 . S
C1934 C1936 1.285 . S
C1934 H1954 0.929 . S
C1935 C1932 1.461 . S
C1935 C1934 1.474 . S
C1936 C1931 1.342 . S
C1936 C1934 1.285 . S
C1936 H1955 0.930 . S
C1937 C1940 1.424 . S
C1937 C1942 1.245 . S
C1937 C1943 1.428 . S
C1938 C1941 1.260 . S
C1938 C1942 1.477 . S
C1938 H1956 0.932 . S
C1939 C1940 1.384 . S
C1939 C1941 1.479 . S
C1939 H1957 0.929 . S
C1940 C1937 1.424 . S
C1940 C1939 1.384 . S
C1940 H1958 0.928 . S
C1941 C1938 1.260 . S
C1941 C1939 1.479 . S
C1942 C1937 1.245 . S
C1942 C1938 1.477 . S
C1942 H1959 0.932 . S
C1943 U1926 2.882 . S
C1943 C1937 1.428 . S
C1943 O1946 1.301 . S
C1943 O1947 1.282 . S
O1944 U1926 2.441 . S
O1944 C1930 1.249 . S
O1945 U1926 2.420 . S
O1945 C1930 1.202 . S
O1946 U1926 2.455 . S
O1946 C1943 1.301 . S
O1947 U1926 2.449 . S
O1947 C1943 1.282 . S
H1948 C1921 0.931 . S
H1949 C1923 0.929 . S
H1950 C1924 0.930 . S
H1951 C1925 0.931 . S
H1952 C1932 0.932 . S
H1953 C1933 0.930 . S
H1954 C1934 0.929 . S
H1955 C1936 0.930 . S
H1956 C1938 0.932 . S
H1957 C1939 0.929 . S
H1958 C1940 0.928 . S
H1959 C1942 0.932 . S
C1960 C1961 1.264 . S
C1960 C1965 1.479 . S
C1960 C1970 1.465 . S
C1961 C1960 1.264 . S
C1961 C1963 1.339 . S
C1961 H1988 0.931 . S
C1962 C1963 1.395 . S
C1962 C1964 1.320 . S
C1963 C1961 1.339 . S
C1963 C1962 1.395 . S
C1963 H1989 0.929 . S
C1964 C1962 1.320 . S
C1964 C1965 1.405 . S
C1964 H1990 0.930 . S
C1965 C1960 1.479 . S
C1965 C1964 1.405 . S
C1965 H1991 0.931 . S
U1966 O1967 2.454 . S
U1966 O1968 2.458 . S
U1966 C1969 2.984 . S
U1966 C1970 2.847 . S
U1966 C1983 2.882 . S
U1966 O1984 2.441 . S
U1966 O1985 2.420 . S
U1966 O1986 2.455 . S
U1966 O1987 2.449 . S
O1967 U1966 2.454 . S
O1967 C1969 1.353 . S
O1968 U1966 2.458 . S
O1968 C1969 1.286 . S
C1969 U1966 2.984 . S
C1969 O1967 1.353 . S
C1969 O1968 1.286 . S
C1969 C1971 1.363 . S
C1970 C1960 1.465 . S
C1970 U1966 2.847 . S
C1970 O1984 1.249 . S
C1970 O1985 1.202 . S
C1971 C1969 1.363 . S
C1971 C1973 1.408 . S
C1971 C1976 1.342 . S
C1972 C1973 1.310 . S
C1972 C1975 1.461 . S
C1972 H1992 0.932 . S
C1973 C1971 1.408 . S
C1973 C1972 1.310 . S
C1973 H1993 0.930 . S
C1974 C1975 1.474 . S
C1974 C1976 1.285 . S
C1974 H1994 0.929 . S
C1975 C1972 1.461 . S
C1975 C1974 1.474 . S
C1976 C1971 1.342 . S
C1976 C1974 1.285 . S
C1976 H1995 0.930 . S
C1977 C1980 1.424 . S
C1977 C1982 1.245 . S
C1977 C1983 1.428 . S
C1978 C1981 1.260 . S
C1978 C1982 1.477 . S
C1978 H1996 0.932 . S
C1979 C1980 1.384 . S
C1979 C1981 1.479 . S
C1979 H1997 0.929 . S
C1980 C1977 1.424 . S
C1980 C1979 1.384 . S
C1980 H1998 0.928 . S
C1981 C1978 1.260 . S
C1981 C1979 1.479 . S
C1982 C1977 1.245 . S
C1982 C1978 1.477 . S
C1982 H1999 0.932 . S
C1983 U1966 2.882 . S
C1983 C1977 1.428 . S
C1983 O1986 1.301 . S
C1983 O1987 1.282 . S
O1984 U1966 2.441 . S
O1984 C1970 1.249 . S
O1985 U1966 2.420 . S
O1985 C1970 1.202 . S
O1986 U1966 2.455 . S
O1986 C1983 1.301 . S
O1987 U1966 2.449 . S
O1987 C1983 1.282 . S
H1988 C1961 0.931 . S
H1989 C1963 0.929 . S
H1990 C1964 0.930 . S
H1991 C1965 0.931 . S
H1992 C1972 0.932 . S
H1993 C1973 0.930 . S
H1994 C1974 0.929 . S
H1995 C1976 0.930 . S
H1996 C1978 0.932 . S
H1997 C1979 0.929 . S
H1998 C1980 0.928 . S
H1999 C1982 0.932 . S
C2000 C2001 1.264 . S
C2000 C2005 1.479 . S
C2000 C2010 1.465 . S
C2001 C2000 1.264 . S
C2001 C2003 1.339 . S
C2001 H2028 0.931 . S
C2002 C2003 1.395 . S
C2002 C2004 1.320 . S
C2003 C2001 1.339 . S
C2003 C2002 1.395 . S
C2003 H2029 0.929 . S
C2004 C2002 1.320 . S
C2004 C2005 1.405 . S
C2004 H2030 0.930 . S
C2005 C2000 1.479 . S
C2005 C2004 1.405 . S
C2005 H2031 0.931 . S
U2006 O2007 2.454 . S
U2006 O2008 2.458 . S
U2006 C2009 2.984 . S
U2006 C2010 2.847 . S
U2006 C2023 2.882 . S
U2006 O2024 2.441 . S
U2006 O2025 2.420 . S
U2006 O2026 2.455 . S
U2006 O2027 2.449 . S
O2007 U2006 2.454 . S
O2007 C2009 1.353 . S
O2008 U2006 2.458 . S
O2008 C2009 1.286 . S
C2009 U2006 2.984 . S
C2009 O2007 1.353 . S
C2009 O2008 1.286 . S
C2009 C2011 1.363 . S
C2010 C2000 1.465 . S
C2010 U2006 2.847 . S
C2010 O2024 1.249 . S
C2010 O2025 1.202 . S
C2011 C2009 1.363 . S
C2011 C2013 1.408 . S
C2011 C2016 1.342 . S
C2012 C2013 1.310 . S
C2012 C2015 1.461 . S
C2012 H2032 0.932 . S
C2013 C2011 1.408 . S
C2013 C2012 1.310 . S
C2013 H2033 0.930 . S
C2014 C2015 1.474 . S
C2014 C2016 1.285 . S
C2014 H2034 0.929 . S
C2015 C2012 1.461 . S
C2015 C2014 1.474 . S
C2016 C2011 1.342 . S
C2016 C2014 1.285 . S
C2016 H2035 0.930 . S
C2017 C2020 1.424 . S
C2017 C2022 1.245 . S
C2017 C2023 1.428 . S
C2018 C2021 1.260 . S
C2018 C2022 1.477 . S
C2018 H2036 0.932 . S
C2019 C2020 1.384 . S
C2019 C2021 1.479 . S
C2019 H2037 0.929 . S
C2020 C2017 1.424 . S
C2020 C2019 1.384 . S
C2020 H2038 0.928 . S
C2021 C2018 1.260 . S
C2021 C2019 1.479 . S
C2022 C2017 1.245 . S
C2022 C2018 1.477 . S
C2022 H2039 0.932 . S
C2023 U2006 2.882 . S
C2023 C2017 1.428 . S
C2023 O2026 1.301 . S
C2023 O2027 1.282 . S
O2024 U2006 2.441 . S
O2024 C2010 1.249 . S
O2025 U2006 2.420 . S
O2025 C2010 1.202 . S
O2026 U2006 2.455 . S
O2026 C2023 1.301 . S
O2027 U2006 2.449 . S
O2027 C2023 1.282 . S
H2028 C2001 0.931 . S
H2029 C2003 0.929 . S
H2030 C2004 0.930 . S
H2031 C2005 0.931 . S
H2032 C2012 0.932 . S
H2033 C2013 0.930 . S
H2034 C2014 0.929 . S
H2035 C2016 0.930 . S
H2036 C2018 0.932 . S
H2037 C2019 0.929 . S
H2038 C2020 0.928 . S
H2039 C2022 0.932 . S
C2040 C2041 1.264 . S
C2040 C2045 1.479 . S
C2040 C2050 1.465 . S
C2041 C2040 1.264 . S
C2041 C2043 1.339 . S
C2041 H2068 0.931 . S
C2042 C2043 1.395 . S
C2042 C2044 1.320 . S
C2043 C2041 1.339 . S
C2043 C2042 1.395 . S
C2043 H2069 0.929 . S
C2044 C2042 1.320 . S
C2044 C2045 1.405 . S
C2044 H2070 0.930 . S
C2045 C2040 1.479 . S
C2045 C2044 1.405 . S
C2045 H2071 0.931 . S
U2046 O2047 2.454 . S
U2046 O2048 2.458 . S
U2046 C2049 2.984 . S
U2046 C2050 2.847 . S
U2046 C2063 2.882 . S
U2046 O2064 2.441 . S
U2046 O2065 2.420 . S
U2046 O2066 2.455 . S
U2046 O2067 2.449 . S
O2047 U2046 2.454 . S
O2047 C2049 1.353 . S
O2048 U2046 2.458 . S
O2048 C2049 1.286 . S
C2049 U2046 2.984 . S
C2049 O2047 1.353 . S
C2049 O2048 1.286 . S
C2049 C2051 1.363 . S
C2050 C2040 1.465 . S
C2050 U2046 2.847 . S
C2050 O2064 1.249 . S
C2050 O2065 1.202 . S
C2051 C2049 1.363 . S
C2051 C2053 1.408 . S
C2051 C2056 1.342 . S
C2052 C2053 1.310 . S
C2052 C2055 1.461 . S
C2052 H2072 0.932 . S
C2053 C2051 1.408 . S
C2053 C2052 1.310 . S
C2053 H2073 0.930 . S
C2054 C2055 1.474 . S
C2054 C2056 1.285 . S
C2054 H2074 0.929 . S
C2055 C2052 1.461 . S
C2055 C2054 1.474 . S
C2056 C2051 1.342 . S
C2056 C2054 1.285 . S
C2056 H2075 0.930 . S
C2057 C2060 1.424 . S
C2057 C2062 1.245 . S
C2057 C2063 1.428 . S
C2058 C2061 1.260 . S
C2058 C2062 1.477 . S
C2058 H2076 0.932 . S
C2059 C2060 1.384 . S
C2059 C2061 1.479 . S
C2059 H2077 0.929 . S
C2060 C2057 1.424 . S
C2060 C2059 1.384 . S
C2060 H2078 0.928 . S
C2061 C2058 1.260 . S
C2061 C2059 1.479 . S
C2062 C2057 1.245 . S
C2062 C2058 1.477 . S
C2062 H2079 0.932 . S
C2063 U2046 2.882 . S
C2063 C2057 1.428 . S
C2063 O2066 1.301 . S
C2063 O2067 1.282 . S
O2064 U2046 2.441 . S
O2064 C2050 1.249 . S
O2065 U2046 2.420 . S
O2065 C2050 1.202 . S
O2066 U2046 2.455 . S
O2066 C2063 1.301 . S
O2067 U2046 2.449 . S
O2067 C2063 1.282 . S
H2068 C2041 0.931 . S
H2069 C2043 0.929 . S
H2070 C2044 0.930 . S
H2071 C2045 0.931 . S
H2072 C2052 0.932 . S
H2073 C2053 0.930 . S
H2074 C2054 0.929 . S
H2075 C2056 0.930 . S
H2076 C2058 0.932 . S
H2077 C2059 0.929 . S
H2078 C2060 0.928 . S
H2079 C2062 0.932 . S
C2080 C2081 1.264 . S
C2080 C2085 1.479 . S
C2080 C2090 1.465 . S
C2081 C2080 1.264 . S
C2081 C2083 1.339 . S
C2081 H2108 0.931 . S
C2082 C2083 1.395 . S
C2082 C2084 1.320 . S
C2083 C2081 1.339 . S
C2083 C2082 1.395 . S
C2083 H2109 0.929 . S
C2084 C2082 1.320 . S
C2084 C2085 1.405 . S
C2084 H2110 0.930 . S
C2085 C2080 1.479 . S
C2085 C2084 1.405 . S
C2085 H2111 0.931 . S
U2086 O2087 2.454 . S
U2086 O2088 2.458 . S
U2086 C2089 2.984 . S
U2086 C2090 2.847 . S
U2086 C2103 2.882 . S
U2086 O2104 2.441 . S
U2086 O2105 2.420 . S
U2086 O2106 2.455 . S
U2086 O2107 2.449 . S
O2087 U2086 2.454 . S
O2087 C2089 1.353 . S
O2088 U2086 2.458 . S
O2088 C2089 1.286 . S
C2089 U2086 2.984 . S
C2089 O2087 1.353 . S
C2089 O2088 1.286 . S
C2089 C2091 1.363 . S
C2090 C2080 1.465 . S
C2090 U2086 2.847 . S
C2090 O2104 1.249 . S
C2090 O2105 1.202 . S
C2091 C2089 1.363 . S
C2091 C2093 1.408 . S
C2091 C2096 1.342 . S
C2092 C2093 1.310 . S
C2092 C2095 1.461 . S
C2092 H2112 0.932 . S
C2093 C2091 1.408 . S
C2093 C2092 1.310 . S
C2093 H2113 0.930 . S
C2094 C2095 1.474 . S
C2094 C2096 1.285 . S
C2094 H2114 0.929 . S
C2095 C2092 1.461 . S
C2095 C2094 1.474 . S
C2096 C2091 1.342 . S
C2096 C2094 1.285 . S
C2096 H2115 0.930 . S
C2097 C2100 1.424 . S
C2097 C2102 1.245 . S
C2097 C2103 1.428 . S
C2098 C2101 1.260 . S
C2098 C2102 1.477 . S
C2098 H2116 0.932 . S
C2099 C2100 1.384 . S
C2099 C2101 1.479 . S
C2099 H2117 0.929 . S
C2100 C2097 1.424 . S
C2100 C2099 1.384 . S
C2100 H2118 0.928 . S
C2101 C2098 1.260 . S
C2101 C2099 1.479 . S
C2102 C2097 1.245 . S
C2102 C2098 1.477 . S
C2102 H2119 0.932 . S
C2103 U2086 2.882 . S
C2103 C2097 1.428 . S
C2103 O2106 1.301 . S
C2103 O2107 1.282 . S
O2104 U2086 2.441 . S
O2104 C2090 1.249 . S
O2105 U2086 2.420 . S
O2105 C2090 1.202 . S
O2106 U2086 2.455 . S
O2106 C2103 1.301 . S
O2107 U2086 2.449 . S
O2107 C2103 1.282 . S
H2108 C2081 0.931 . S
H2109 C2083 0.929 . S
H2110 C2084 0.930 . S
H2111 C2085 0.931 . S
H2112 C2092 0.932 . S
H2113 C2093 0.930 . S
H2114 C2094 0.929 . S
H2115 C2096 0.930 . S
H2116 C2098 0.932 . S
H2117 C2099 0.929 . S
H2118 C2100 0.928 . S
H2119 C2102 0.932 . S
C2120 C2121 1.264 . S
C2120 C2125 1.479 . S
C2120 C2130 1.465 . S
C2121 C2120 1.264 . S
C2121 C2123 1.339 . S
C2121 H2148 0.931 . S
C2122 C2123 1.395 . S
C2122 C2124 1.320 . S
C2123 C2121 1.339 . S
C2123 C2122 1.395 . S
C2123 H2149 0.929 . S
C2124 C2122 1.320 . S
C2124 C2125 1.405 . S
C2124 H2150 0.930 . S
C2125 C2120 1.479 . S
C2125 C2124 1.405 . S
C2125 H2151 0.931 . S
U2126 O2127 2.454 . S
U2126 O2128 2.458 . S
U2126 C2129 2.984 . S
U2126 C2130 2.847 . S
U2126 C2143 2.882 . S
U2126 O2144 2.441 . S
U2126 O2145 2.420 . S
U2126 O2146 2.455 . S
U2126 O2147 2.449 . S
O2127 U2126 2.454 . S
O2127 C2129 1.353 . S
O2128 U2126 2.458 . S
O2128 C2129 1.286 . S
C2129 U2126 2.984 . S
C2129 O2127 1.353 . S
C2129 O2128 1.286 . S
C2129 C2131 1.363 . S
C2130 C2120 1.465 . S
C2130 U2126 2.847 . S
C2130 O2144 1.249 . S
C2130 O2145 1.202 . S
C2131 C2129 1.363 . S
C2131 C2133 1.408 . S
C2131 C2136 1.342 . S
C2132 C2133 1.310 . S
C2132 C2135 1.461 . S
C2132 H2152 0.932 . S
C2133 C2131 1.408 . S
C2133 C2132 1.310 . S
C2133 H2153 0.930 . S
C2134 C2135 1.474 . S
C2134 C2136 1.285 . S
C2134 H2154 0.929 . S
C2135 C2132 1.461 . S
C2135 C2134 1.474 . S
C2136 C2131 1.342 . S
C2136 C2134 1.285 . S
C2136 H2155 0.930 . S
C2137 C2140 1.424 . S
C2137 C2142 1.245 . S
C2137 C2143 1.428 . S
C2138 C2141 1.260 . S
C2138 C2142 1.477 . S
C2138 H2156 0.932 . S
C2139 C2140 1.384 . S
C2139 C2141 1.479 . S
C2139 H2157 0.929 . S
C2140 C2137 1.424 . S
C2140 C2139 1.384 . S
C2140 H2158 0.928 . S
C2141 C2138 1.260 . S
C2141 C2139 1.479 . S
C2142 C2137 1.245 . S
C2142 C2138 1.477 . S
C2142 H2159 0.932 . S
C2143 U2126 2.882 . S
C2143 C2137 1.428 . S
C2143 O2146 1.301 . S
C2143 O2147 1.282 . S
O2144 U2126 2.441 . S
O2144 C2130 1.249 . S
O2145 U2126 2.420 . S
O2145 C2130 1.202 . S
O2146 U2126 2.455 . S
O2146 C2143 1.301 . S
O2147 U2126 2.449 . S
O2147 C2143 1.282 . S
H2148 C2121 0.931 . S
H2149 C2123 0.929 . S
H2150 C2124 0.930 . S
H2151 C2125 0.931 . S
H2152 C2132 0.932 . S
H2153 C2133 0.930 . S
H2154 C2134 0.929 . S
H2155 C2136 0.930 . S
H2156 C2138 0.932 . S
H2157 C2139 0.929 . S
H2158 C2140 0.928 . S
H2159 C2142 0.932 . S
C2160 C2161 1.264 . S
C2160 C2165 1.479 . S
C2160 C2170 1.465 . S
C2161 C2160 1.264 . S
C2161 C2163 1.339 . S
C2161 H2188 0.931 . S
C2162 C2163 1.395 . S
C2162 C2164 1.320 . S
C2163 C2161 1.339 . S
C2163 C2162 1.395 . S
C2163 H2189 0.929 . S
C2164 C2162 1.320 . S
C2164 C2165 1.405 . S
C2164 H2190 0.930 . S
C2165 C2160 1.479 . S
C2165 C2164 1.405 . S
C2165 H2191 0.931 . S
U2166 O2167 2.454 . S
U2166 O2168 2.458 . S
U2166 C2169 2.984 . S
U2166 C2170 2.847 . S
U2166 C2183 2.882 . S
U2166 O2184 2.441 . S
U2166 O2185 2.420 . S
U2166 O2186 2.455 . S
U2166 O2187 2.449 . S
O2167 U2166 2.454 . S
O2167 C2169 1.353 . S
O2168 U2166 2.458 . S
O2168 C2169 1.286 . S
C2169 U2166 2.984 . S
C2169 O2167 1.353 . S
C2169 O2168 1.286 . S
C2169 C2171 1.363 . S
C2170 C2160 1.465 . S
C2170 U2166 2.847 . S
C2170 O2184 1.249 . S
C2170 O2185 1.202 . S
C2171 C2169 1.363 . S
C2171 C2173 1.408 . S
C2171 C2176 1.342 . S
C2172 C2173 1.310 . S
C2172 C2175 1.461 . S
C2172 H2192 0.932 . S
C2173 C2171 1.408 . S
C2173 C2172 1.310 . S
C2173 H2193 0.930 . S
C2174 C2175 1.474 . S
C2174 C2176 1.285 . S
C2174 H2194 0.929 . S
C2175 C2172 1.461 . S
C2175 C2174 1.474 . S
C2176 C2171 1.342 . S
C2176 C2174 1.285 . S
C2176 H2195 0.930 . S
C2177 C2180 1.424 . S
C2177 C2182 1.245 . S
C2177 C2183 1.428 . S
C2178 C2181 1.260 . S
C2178 C2182 1.477 . S
C2178 H2196 0.932 . S
C2179 C2180 1.384 . S
C2179 C2181 1.479 . S
C2179 H2197 0.929 . S
C2180 C2177 1.424 . S
C2180 C2179 1.384 . S
C2180 H2198 0.928 . S
C2181 C2178 1.260 . S
C2181 C2179 1.479 . S
C2182 C2177 1.245 . S
C2182 C2178 1.477 . S
C2182 H2199 0.932 . S
C2183 U2166 2.882 . S
C2183 C2177 1.428 . S
C2183 O2186 1.301 . S
C2183 O2187 1.282 . S
O2184 U2166 2.441 . S
O2184 C2170 1.249 . S
O2185 U2166 2.420 . S
O2185 C2170 1.202 . S
O2186 U2166 2.455 . S
O2186 C2183 1.301 . S
O2187 U2166 2.449 . S
O2187 C2183 1.282 . S
H2188 C2161 0.931 . S
H2189 C2163 0.929 . S
H2190 C2164 0.930 . S
H2191 C2165 0.931 . S
H2192 C2172 0.932 . S
H2193 C2173 0.930 . S
H2194 C2174 0.929 . S
H2195 C2176 0.930 . S
H2196 C2178 0.932 . S
H2197 C2179 0.929 . S
H2198 C2180 0.928 . S
H2199 C2182 0.932 . S
C2200 C2201 1.264 . S
C2200 C2205 1.479 . S
C2200 C2210 1.465 . S
C2201 C2200 1.264 . S
C2201 C2203 1.339 . S
C2201 H2228 0.931 . S
C2202 C2203 1.395 . S
C2202 C2204 1.320 . S
C2203 C2201 1.339 . S
C2203 C2202 1.395 . S
C2203 H2229 0.929 . S
C2204 C2202 1.320 . S
C2204 C2205 1.405 . S
C2204 H2230 0.930 . S
C2205 C2200 1.479 . S
C2205 C2204 1.405 . S
C2205 H2231 0.931 . S
U2206 O2207 2.454 . S
U2206 O2208 2.458 . S
U2206 C2209 2.984 . S
U2206 C2210 2.847 . S
U2206 C2223 2.882 . S
U2206 O2224 2.441 . S
U2206 O2225 2.420 . S
U2206 O2226 2.455 . S
U2206 O2227 2.449 . S
O2207 U2206 2.454 . S
O2207 C2209 1.353 . S
O2208 U2206 2.458 . S
O2208 C2209 1.286 . S
C2209 U2206 2.984 . S
C2209 O2207 1.353 . S
C2209 O2208 1.286 . S
C2209 C2211 1.363 . S
C2210 C2200 1.465 . S
C2210 U2206 2.847 . S
C2210 O2224 1.249 . S
C2210 O2225 1.202 . S
C2211 C2209 1.363 . S
C2211 C2213 1.408 . S
C2211 C2216 1.342 . S
C2212 C2213 1.310 . S
C2212 C2215 1.461 . S
C2212 H2232 0.932 . S
C2213 C2211 1.408 . S
C2213 C2212 1.310 . S
C2213 H2233 0.930 . S
C2214 C2215 1.474 . S
C2214 C2216 1.285 . S
C2214 H2234 0.929 . S
C2215 C2212 1.461 . S
C2215 C2214 1.474 . S
C2216 C2211 1.342 . S
C2216 C2214 1.285 . S
C2216 H2235 0.930 . S
C2217 C2220 1.424 . S
C2217 C2222 1.245 . S
C2217 C2223 1.428 . S
C2218 C2221 1.260 . S
C2218 C2222 1.477 . S
C2218 H2236 0.932 . S
C2219 C2220 1.384 . S
C2219 C2221 1.479 . S
C2219 H2237 0.929 . S
C2220 C2217 1.424 . S
C2220 C2219 1.384 . S
C2220 H2238 0.928 . S
C2221 C2218 1.260 . S
C2221 C2219 1.479 . S
C2222 C2217 1.245 . S
C2222 C2218 1.477 . S
C2222 H2239 0.932 . S
C2223 U2206 2.882 . S
C2223 C2217 1.428 . S
C2223 O2226 1.301 . S
C2223 O2227 1.282 . S
O2224 U2206 2.441 . S
O2224 C2210 1.249 . S
O2225 U2206 2.420 . S
O2225 C2210 1.202 . S
O2226 U2206 2.455 . S
O2226 C2223 1.301 . S
O2227 U2206 2.449 . S
O2227 C2223 1.282 . S
H2228 C2201 0.931 . S
H2229 C2203 0.929 . S
H2230 C2204 0.930 . S
H2231 C2205 0.931 . S
H2232 C2212 0.932 . S
H2233 C2213 0.930 . S
H2234 C2214 0.929 . S
H2235 C2216 0.930 . S
H2236 C2218 0.932 . S
H2237 C2219 0.929 . S
H2238 C2220 0.928 . S
H2239 C2222 0.932 . S
C2240 C2241 1.264 . S
C2240 C2245 1.479 . S
C2240 C2250 1.465 . S
C2241 C2240 1.264 . S
C2241 C2243 1.339 . S
C2241 H2268 0.931 . S
C2242 C2243 1.395 . S
C2242 C2244 1.320 . S
C2243 C2241 1.339 . S
C2243 C2242 1.395 . S
C2243 H2269 0.929 . S
C2244 C2242 1.320 . S
C2244 C2245 1.405 . S
C2244 H2270 0.930 . S
C2245 C2240 1.479 . S
C2245 C2244 1.405 . S
C2245 H2271 0.931 . S
U2246 O2247 2.454 . S
U2246 O2248 2.458 . S
U2246 C2249 2.984 . S
U2246 C2250 2.847 . S
U2246 C2263 2.882 . S
U2246 O2264 2.441 . S
U2246 O2265 2.420 . S
U2246 O2266 2.455 . S
U2246 O2267 2.449 . S
O2247 U2246 2.454 . S
O2247 C2249 1.353 . S
O2248 U2246 2.458 . S
O2248 C2249 1.286 . S
C2249 U2246 2.984 . S
C2249 O2247 1.353 . S
C2249 O2248 1.286 . S
C2249 C2251 1.363 . S
C2250 C2240 1.465 . S
C2250 U2246 2.847 . S
C2250 O2264 1.249 . S
C2250 O2265 1.202 . S
C2251 C2249 1.363 . S
C2251 C2253 1.408 . S
C2251 C2256 1.342 . S
C2252 C2253 1.310 . S
C2252 C2255 1.461 . S
C2252 H2272 0.932 . S
C2253 C2251 1.408 . S
C2253 C2252 1.310 . S
C2253 H2273 0.930 . S
C2254 C2255 1.474 . S
C2254 C2256 1.285 . S
C2254 H2274 0.929 . S
C2255 C2252 1.461 . S
C2255 C2254 1.474 . S
C2256 C2251 1.342 . S
C2256 C2254 1.285 . S
C2256 H2275 0.930 . S
C2257 C2260 1.424 . S
C2257 C2262 1.245 . S
C2257 C2263 1.428 . S
C2258 C2261 1.260 . S
C2258 C2262 1.477 . S
C2258 H2276 0.932 . S
C2259 C2260 1.384 . S
C2259 C2261 1.479 . S
C2259 H2277 0.929 . S
C2260 C2257 1.424 . S
C2260 C2259 1.384 . S
C2260 H2278 0.928 . S
C2261 C2258 1.260 . S
C2261 C2259 1.479 . S
C2262 C2257 1.245 . S
C2262 C2258 1.477 . S
C2262 H2279 0.932 . S
C2263 U2246 2.882 . S
C2263 C2257 1.428 . S
C2263 O2266 1.301 . S
C2263 O2267 1.282 . S
O2264 U2246 2.441 . S
O2264 C2250 1.249 . S
O2265 U2246 2.420 . S
O2265 C2250 1.202 . S
O2266 U2246 2.455 . S
O2266 C2263 1.301 . S
O2267 U2246 2.449 . S
O2267 C2263 1.282 . S
H2268 C2241 0.931 . S
H2269 C2243 0.929 . S
H2270 C2244 0.930 . S
H2271 C2245 0.931 . S
H2272 C2252 0.932 . S
H2273 C2253 0.930 . S
H2274 C2254 0.929 . S
H2275 C2256 0.930 . S
H2276 C2258 0.932 . S
H2277 C2259 0.929 . S
H2278 C2260 0.928 . S
H2279 C2262 0.932 . S
C2280 C2281 1.264 . S
C2280 C2285 1.479 . S
C2280 C2290 1.465 . S
C2281 C2280 1.264 . S
C2281 C2283 1.339 . S
C2281 H2308 0.931 . S
C2282 C2283 1.395 . S
C2282 C2284 1.320 . S
C2283 C2281 1.339 . S
C2283 C2282 1.395 . S
C2283 H2309 0.929 . S
C2284 C2282 1.320 . S
C2284 C2285 1.405 . S
C2284 H2310 0.930 . S
C2285 C2280 1.479 . S
C2285 C2284 1.405 . S
C2285 H2311 0.931 . S
U2286 O2287 2.454 . S
U2286 O2288 2.458 . S
U2286 C2289 2.984 . S
U2286 C2290 2.847 . S
U2286 C2303 2.882 . S
U2286 O2304 2.441 . S
U2286 O2305 2.420 . S
U2286 O2306 2.455 . S
U2286 O2307 2.449 . S
O2287 U2286 2.454 . S
O2287 C2289 1.353 . S
O2288 U2286 2.458 . S
O2288 C2289 1.286 . S
C2289 U2286 2.984 . S
C2289 O2287 1.353 . S
C2289 O2288 1.286 . S
C2289 C2291 1.363 . S
C2290 C2280 1.465 . S
C2290 U2286 2.847 . S
C2290 O2304 1.249 . S
C2290 O2305 1.202 . S
C2291 C2289 1.363 . S
C2291 C2293 1.408 . S
C2291 C2296 1.342 . S
C2292 C2293 1.310 . S
C2292 C2295 1.461 . S
C2292 H2312 0.932 . S
C2293 C2291 1.408 . S
C2293 C2292 1.310 . S
C2293 H2313 0.930 . S
C2294 C2295 1.474 . S
C2294 C2296 1.285 . S
C2294 H2314 0.929 . S
C2295 C2292 1.461 . S
C2295 C2294 1.474 . S
C2296 C2291 1.342 . S
C2296 C2294 1.285 . S
C2296 H2315 0.930 . S
C2297 C2300 1.424 . S
C2297 C2302 1.245 . S
C2297 C2303 1.428 . S
C2298 C2301 1.260 . S
C2298 C2302 1.477 . S
C2298 H2316 0.932 . S
C2299 C2300 1.384 . S
C2299 C2301 1.479 . S
C2299 H2317 0.929 . S
C2300 C2297 1.424 . S
C2300 C2299 1.384 . S
C2300 H2318 0.928 . S
C2301 C2298 1.260 . S
C2301 C2299 1.479 . S
C2302 C2297 1.245 . S
C2302 C2298 1.477 . S
C2302 H2319 0.932 . S
C2303 U2286 2.882 . S
C2303 C2297 1.428 . S
C2303 O2306 1.301 . S
C2303 O2307 1.282 . S
O2304 U2286 2.441 . S
O2304 C2290 1.249 . S
O2305 U2286 2.420 . S
O2305 C2290 1.202 . S
O2306 U2286 2.455 . S
O2306 C2303 1.301 . S
O2307 U2286 2.449 . S
O2307 C2303 1.282 . S
H2308 C2281 0.931 . S
H2309 C2283 0.929 . S
H2310 C2284 0.930 . S
H2311 C2285 0.931 . S
H2312 C2292 0.932 . S
H2313 C2293 0.930 . S
H2314 C2294 0.929 . S
H2315 C2296 0.930 . S
H2316 C2298 0.932 . S
H2317 C2299 0.929 . S
H2318 C2300 0.928 . S
H2319 C2302 0.932 . S
C2320 C2321 1.264 . S
C2320 C2325 1.479 . S
C2320 C2330 1.465 . S
C2321 C2320 1.264 . S
C2321 C2323 1.339 . S
C2321 H2348 0.931 . S
C2322 C2323 1.395 . S
C2322 C2324 1.320 . S
C2323 C2321 1.339 . S
C2323 C2322 1.395 . S
C2323 H2349 0.929 . S
C2324 C2322 1.320 . S
C2324 C2325 1.405 . S
C2324 H2350 0.930 . S
C2325 C2320 1.479 . S
C2325 C2324 1.405 . S
C2325 H2351 0.931 . S
U2326 O2327 2.454 . S
U2326 O2328 2.458 . S
U2326 C2329 2.984 . S
U2326 C2330 2.847 . S
U2326 C2343 2.882 . S
U2326 O2344 2.441 . S
U2326 O2345 2.420 . S
U2326 O2346 2.455 . S
U2326 O2347 2.449 . S
O2327 U2326 2.454 . S
O2327 C2329 1.353 . S
O2328 U2326 2.458 . S
O2328 C2329 1.286 . S
C2329 U2326 2.984 . S
C2329 O2327 1.353 . S
C2329 O2328 1.286 . S
C2329 C2331 1.363 . S
C2330 C2320 1.465 . S
C2330 U2326 2.847 . S
C2330 O2344 1.249 . S
C2330 O2345 1.202 . S
C2331 C2329 1.363 . S
C2331 C2333 1.408 . S
C2331 C2336 1.342 . S
C2332 C2333 1.310 . S
C2332 C2335 1.461 . S
C2332 H2352 0.932 . S
C2333 C2331 1.408 . S
C2333 C2332 1.310 . S
C2333 H2353 0.930 . S
C2334 C2335 1.474 . S
C2334 C2336 1.285 . S
C2334 H2354 0.929 . S
C2335 C2332 1.461 . S
C2335 C2334 1.474 . S
C2336 C2331 1.342 . S
C2336 C2334 1.285 . S
C2336 H2355 0.930 . S
C2337 C2340 1.424 . S
C2337 C2342 1.245 . S
C2337 C2343 1.428 . S
C2338 C2341 1.260 . S
C2338 C2342 1.477 . S
C2338 H2356 0.932 . S
C2339 C2340 1.384 . S
C2339 C2341 1.479 . S
C2339 H2357 0.929 . S
C2340 C2337 1.424 . S
C2340 C2339 1.384 . S
C2340 H2358 0.928 . S
C2341 C2338 1.260 . S
C2341 C2339 1.479 . S
C2342 C2337 1.245 . S
C2342 C2338 1.477 . S
C2342 H2359 0.932 . S
C2343 U2326 2.882 . S
C2343 C2337 1.428 . S
C2343 O2346 1.301 . S
C2343 O2347 1.282 . S
O2344 U2326 2.441 . S
O2344 C2330 1.249 . S
O2345 U2326 2.420 . S
O2345 C2330 1.202 . S
O2346 U2326 2.455 . S
O2346 C2343 1.301 . S
O2347 U2326 2.449 . S
O2347 C2343 1.282 . S
H2348 C2321 0.931 . S
H2349 C2323 0.929 . S
H2350 C2324 0.930 . S
H2351 C2325 0.931 . S
H2352 C2332 0.932 . S
H2353 C2333 0.930 . S
H2354 C2334 0.929 . S
H2355 C2336 0.930 . S
H2356 C2338 0.932 . S
H2357 C2339 0.929 . S
H2358 C2340 0.928 . S
H2359 C2342 0.932 . S
C2360 C2361 1.264 . S
C2360 C2365 1.479 . S
C2360 C2370 1.465 . S
C2361 C2360 1.264 . S
C2361 C2363 1.339 . S
C2361 H2388 0.931 . S
C2362 C2363 1.395 . S
C2362 C2364 1.320 . S
C2363 C2361 1.339 . S
C2363 C2362 1.395 . S
C2363 H2389 0.929 . S
C2364 C2362 1.320 . S
C2364 C2365 1.405 . S
C2364 H2390 0.930 . S
C2365 C2360 1.479 . S
C2365 C2364 1.405 . S
C2365 H2391 0.931 . S
U2366 O2367 2.454 . S
U2366 O2368 2.458 . S
U2366 C2369 2.984 . S
U2366 C2370 2.847 . S
U2366 C2383 2.882 . S
U2366 O2384 2.441 . S
U2366 O2385 2.420 . S
U2366 O2386 2.455 . S
U2366 O2387 2.449 . S
O2367 U2366 2.454 . S
O2367 C2369 1.353 . S
O2368 U2366 2.458 . S
O2368 C2369 1.286 . S
C2369 U2366 2.984 . S
C2369 O2367 1.353 . S
C2369 O2368 1.286 . S
C2369 C2371 1.363 . S
C2370 C2360 1.465 . S
C2370 U2366 2.847 . S
C2370 O2384 1.249 . S
C2370 O2385 1.202 . S
C2371 C2369 1.363 . S
C2371 C2373 1.408 . S
C2371 C2376 1.342 . S
C2372 C2373 1.310 . S
C2372 C2375 1.461 . S
C2372 H2392 0.932 . S
C2373 C2371 1.408 . S
C2373 C2372 1.310 . S
C2373 H2393 0.930 . S
C2374 C2375 1.474 . S
C2374 C2376 1.285 . S
C2374 H2394 0.929 . S
C2375 C2372 1.461 . S
C2375 C2374 1.474 . S
C2376 C2371 1.342 . S
C2376 C2374 1.285 . S
C2376 H2395 0.930 . S
C2377 C2380 1.424 . S
C2377 C2382 1.245 . S
C2377 C2383 1.428 . S
C2378 C2381 1.260 . S
C2378 C2382 1.477 . S
C2378 H2396 0.932 . S
C2379 C2380 1.384 . S
C2379 C2381 1.479 . S
C2379 H2397 0.929 . S
C2380 C2377 1.424 . S
C2380 C2379 1.384 . S
C2380 H2398 0.928 . S
C2381 C2378 1.260 . S
C2381 C2379 1.479 . S
C2382 C2377 1.245 . S
C2382 C2378 1.477 . S
C2382 H2399 0.932 . S
C2383 U2366 2.882 . S
C2383 C2377 1.428 . S
C2383 O2386 1.301 . S
C2383 O2387 1.282 . S
O2384 U2366 2.441 . S
O2384 C2370 1.249 . S
O2385 U2366 2.420 . S
O2385 C2370 1.202 . S
O2386 U2366 2.455 . S
O2386 C2383 1.301 . S
O2387 U2366 2.449 . S
O2387 C2383 1.282 . S
H2388 C2361 0.931 . S
H2389 C2363 0.929 . S
H2390 C2364 0.930 . S
H2391 C2365 0.931 . S
H2392 C2372 0.932 . S
H2393 C2373 0.930 . S
H2394 C2374 0.929 . S
H2395 C2376 0.930 . S
H2396 C2378 0.932 . S
H2397 C2379 0.929 . S
H2398 C2380 0.928 . S
H2399 C2382 0.932 . S
C2400 C2401 1.264 . S
C2400 C2405 1.479 . S
C2400 C2410 1.465 . S
C2401 C2400 1.264 . S
C2401 C2403 1.339 . S
C2401 H2428 0.931 . S
C2402 C2403 1.395 . S
C2402 C2404 1.320 . S
C2403 C2401 1.339 . S
C2403 C2402 1.395 . S
C2403 H2429 0.929 . S
C2404 C2402 1.320 . S
C2404 C2405 1.405 . S
C2404 H2430 0.930 . S
C2405 C2400 1.479 . S
C2405 C2404 1.405 . S
C2405 H2431 0.931 . S
U2406 O2407 2.454 . S
U2406 O2408 2.458 . S
U2406 C2409 2.984 . S
U2406 C2410 2.847 . S
U2406 C2423 2.882 . S
U2406 O2424 2.441 . S
U2406 O2425 2.420 . S
U2406 O2426 2.455 . S
U2406 O2427 2.449 . S
O2407 U2406 2.454 . S
O2407 C2409 1.353 . S
O2408 U2406 2.458 . S
O2408 C2409 1.286 . S
C2409 U2406 2.984 . S
C2409 O2407 1.353 . S
C2409 O2408 1.286 . S
C2409 C2411 1.363 . S
C2410 C2400 1.465 . S
C2410 U2406 2.847 . S
C2410 O2424 1.249 . S
C2410 O2425 1.202 . S
C2411 C2409 1.363 . S
C2411 C2413 1.408 . S
C2411 C2416 1.342 . S
C2412 C2413 1.310 . S
C2412 C2415 1.461 . S
C2412 H2432 0.932 . S
C2413 C2411 1.408 . S
C2413 C2412 1.310 . S
C2413 H2433 0.930 . S
C2414 C2415 1.474 . S
C2414 C2416 1.285 . S
C2414 H2434 0.929 . S
C2415 C2412 1.461 . S
C2415 C2414 1.474 . S
C2416 C2411 1.342 . S
C2416 C2414 1.285 . S
C2416 H2435 0.930 . S
C2417 C2420 1.424 . S
C2417 C2422 1.245 . S
C2417 C2423 1.428 . S
C2418 C2421 1.260 . S
C2418 C2422 1.477 . S
C2418 H2436 0.932 . S
C2419 C2420 1.384 . S
C2419 C2421 1.479 . S
C2419 H2437 0.929 . S
C2420 C2417 1.424 . S
C2420 C2419 1.384 . S
C2420 H2438 0.928 . S
C2421 C2418 1.260 . S
C2421 C2419 1.479 . S
C2422 C2417 1.245 . S
C2422 C2418 1.477 . S
C2422 H2439 0.932 . S
C2423 U2406 2.882 . S
C2423 C2417 1.428 . S
C2423 O2426 1.301 . S
C2423 O2427 1.282 . S
O2424 U2406 2.441 . S
O2424 C2410 1.249 . S
O2425 U2406 2.420 . S
O2425 C2410 1.202 . S
O2426 U2406 2.455 . S
O2426 C2423 1.301 . S
O2427 U2406 2.449 . S
O2427 C2423 1.282 . S
H2428 C2401 0.931 . S
H2429 C2403 0.929 . S
H2430 C2404 0.930 . S
H2431 C2405 0.931 . S
H2432 C2412 0.932 . S
H2433 C2413 0.930 . S
H2434 C2414 0.929 . S
H2435 C2416 0.930 . S
H2436 C2418 0.932 . S
H2437 C2419 0.929 . S
H2438 C2420 0.928 . S
H2439 C2422 0.932 . S
C2440 C2441 1.264 . S
C2440 C2445 1.479 . S
C2440 C2450 1.465 . S
C2441 C2440 1.264 . S
C2441 C2443 1.339 . S
C2441 H2468 0.931 . S
C2442 C2443 1.395 . S
C2442 C2444 1.320 . S
C2443 C2441 1.339 . S
C2443 C2442 1.395 . S
C2443 H2469 0.929 . S
C2444 C2442 1.320 . S
C2444 C2445 1.405 . S
C2444 H2470 0.930 . S
C2445 C2440 1.479 . S
C2445 C2444 1.405 . S
C2445 H2471 0.931 . S
U2446 O2447 2.454 . S
U2446 O2448 2.458 . S
U2446 C2449 2.984 . S
U2446 C2450 2.847 . S
U2446 C2463 2.882 . S
U2446 O2464 2.441 . S
U2446 O2465 2.420 . S
U2446 O2466 2.455 . S
U2446 O2467 2.449 . S
O2447 U2446 2.454 . S
O2447 C2449 1.353 . S
O2448 U2446 2.458 . S
O2448 C2449 1.286 . S
C2449 U2446 2.984 . S
C2449 O2447 1.353 . S
C2449 O2448 1.286 . S
C2449 C2451 1.363 . S
C2450 C2440 1.465 . S
C2450 U2446 2.847 . S
C2450 O2464 1.249 . S
C2450 O2465 1.202 . S
C2451 C2449 1.363 . S
C2451 C2453 1.408 . S
C2451 C2456 1.342 . S
C2452 C2453 1.310 . S
C2452 C2455 1.461 . S
C2452 H2472 0.932 . S
C2453 C2451 1.408 . S
C2453 C2452 1.310 . S
C2453 H2473 0.930 . S
C2454 C2455 1.474 . S
C2454 C2456 1.285 . S
C2454 H2474 0.929 . S
C2455 C2452 1.461 . S
C2455 C2454 1.474 . S
C2456 C2451 1.342 . S
C2456 C2454 1.285 . S
C2456 H2475 0.930 . S
C2457 C2460 1.424 . S
C2457 C2462 1.245 . S
C2457 C2463 1.428 . S
C2458 C2461 1.260 . S
C2458 C2462 1.477 . S
C2458 H2476 0.932 . S
C2459 C2460 1.384 . S
C2459 C2461 1.479 . S
C2459 H2477 0.929 . S
C2460 C2457 1.424 . S
C2460 C2459 1.384 . S
C2460 H2478 0.928 . S
C2461 C2458 1.260 . S
C2461 C2459 1.479 . S
C2462 C2457 1.245 . S
C2462 C2458 1.477 . S
C2462 H2479 0.932 . S
C2463 U2446 2.882 . S
C2463 C2457 1.428 . S
C2463 O2466 1.301 . S
C2463 O2467 1.282 . S
O2464 U2446 2.441 . S
O2464 C2450 1.249 . S
O2465 U2446 2.420 . S
O2465 C2450 1.202 . S
O2466 U2446 2.455 . S
O2466 C2463 1.301 . S
O2467 U2446 2.449 . S
O2467 C2463 1.282 . S
H2468 C2441 0.931 . S
H2469 C2443 0.929 . S
H2470 C2444 0.930 . S
H2471 C2445 0.931 . S
H2472 C2452 0.932 . S
H2473 C2453 0.930 . S
H2474 C2454 0.929 . S
H2475 C2456 0.930 . S
H2476 C2458 0.932 . S
H2477 C2459 0.929 . S
H2478 C2460 0.928 . S
H2479 C2462 0.932 . S
C2480 C2481 1.264 . S
C2480 C2485 1.479 . S
C2480 C2490 1.465 . S
C2481 C2480 1.264 . S
C2481 C2483 1.339 . S
C2481 H2508 0.931 . S
C2482 C2483 1.395 . S
C2482 C2484 1.320 . S
C2483 C2481 1.339 . S
C2483 C2482 1.395 . S
C2483 H2509 0.929 . S
C2484 C2482 1.320 . S
C2484 C2485 1.405 . S
C2484 H2510 0.930 . S
C2485 C2480 1.479 . S
C2485 C2484 1.405 . S
C2485 H2511 0.931 . S
U2486 O2487 2.454 . S
U2486 O2488 2.458 . S
U2486 C2489 2.984 . S
U2486 C2490 2.847 . S
U2486 C2503 2.882 . S
U2486 O2504 2.441 . S
U2486 O2505 2.420 . S
U2486 O2506 2.455 . S
U2486 O2507 2.449 . S
O2487 U2486 2.454 . S
O2487 C2489 1.353 . S
O2488 U2486 2.458 . S
O2488 C2489 1.286 . S
C2489 U2486 2.984 . S
C2489 O2487 1.353 . S
C2489 O2488 1.286 . S
C2489 C2491 1.363 . S
C2490 C2480 1.465 . S
C2490 U2486 2.847 . S
C2490 O2504 1.249 . S
C2490 O2505 1.202 . S
C2491 C2489 1.363 . S
C2491 C2493 1.408 . S
C2491 C2496 1.342 . S
C2492 C2493 1.310 . S
C2492 C2495 1.461 . S
C2492 H2512 0.932 . S
C2493 C2491 1.408 . S
C2493 C2492 1.310 . S
C2493 H2513 0.930 . S
C2494 C2495 1.474 . S
C2494 C2496 1.285 . S
C2494 H2514 0.929 . S
C2495 C2492 1.461 . S
C2495 C2494 1.474 . S
C2496 C2491 1.342 . S
C2496 C2494 1.285 . S
C2496 H2515 0.930 . S
C2497 C2500 1.424 . S
C2497 C2502 1.245 . S
C2497 C2503 1.428 . S
C2498 C2501 1.260 . S
C2498 C2502 1.477 . S
C2498 H2516 0.932 . S
C2499 C2500 1.384 . S
C2499 C2501 1.479 . S
C2499 H2517 0.929 . S
C2500 C2497 1.424 . S
C2500 C2499 1.384 . S
C2500 H2518 0.928 . S
C2501 C2498 1.260 . S
C2501 C2499 1.479 . S
C2502 C2497 1.245 . S
C2502 C2498 1.477 . S
C2502 H2519 0.932 . S
C2503 U2486 2.882 . S
C2503 C2497 1.428 . S
C2503 O2506 1.301 . S
C2503 O2507 1.282 . S
O2504 U2486 2.441 . S
O2504 C2490 1.249 . S
O2505 U2486 2.420 . S
O2505 C2490 1.202 . S
O2506 U2486 2.455 . S
O2506 C2503 1.301 . S
O2507 U2486 2.449 . S
O2507 C2503 1.282 . S
H2508 C2481 0.931 . S
H2509 C2483 0.929 . S
H2510 C2484 0.930 . S
H2511 C2485 0.931 . S
H2512 C2492 0.932 . S
H2513 C2493 0.930 . S
H2514 C2494 0.929 . S
H2515 C2496 0.930 . S
H2516 C2498 0.932 . S
H2517 C2499 0.929 . S
H2518 C2500 0.928 . S
H2519 C2502 0.932 . S
C2520 C2521 1.264 . S
C2520 C2525 1.479 . S
C2520 C2530 1.465 . S
C2521 C2520 1.264 . S
C2521 C2523 1.339 . S
C2521 H2548 0.931 . S
C2522 C2523 1.395 . S
C2522 C2524 1.320 . S
C2523 C2521 1.339 . S
C2523 C2522 1.395 . S
C2523 H2549 0.929 . S
C2524 C2522 1.320 . S
C2524 C2525 1.405 . S
C2524 H2550 0.930 . S
C2525 C2520 1.479 . S
C2525 C2524 1.405 . S
C2525 H2551 0.931 . S
U2526 O2527 2.454 . S
U2526 O2528 2.458 . S
U2526 C2529 2.984 . S
U2526 C2530 2.847 . S
U2526 C2543 2.882 . S
U2526 O2544 2.441 . S
U2526 O2545 2.420 . S
U2526 O2546 2.455 . S
U2526 O2547 2.449 . S
O2527 U2526 2.454 . S
O2527 C2529 1.353 . S
O2528 U2526 2.458 . S
O2528 C2529 1.286 . S
C2529 U2526 2.984 . S
C2529 O2527 1.353 . S
C2529 O2528 1.286 . S
C2529 C2531 1.363 . S
C2530 C2520 1.465 . S
C2530 U2526 2.847 . S
C2530 O2544 1.249 . S
C2530 O2545 1.202 . S
C2531 C2529 1.363 . S
C2531 C2533 1.408 . S
C2531 C2536 1.342 . S
C2532 C2533 1.310 . S
C2532 C2535 1.461 . S
C2532 H2552 0.932 . S
C2533 C2531 1.408 . S
C2533 C2532 1.310 . S
C2533 H2553 0.930 . S
C2534 C2535 1.474 . S
C2534 C2536 1.285 . S
C2534 H2554 0.929 . S
C2535 C2532 1.461 . S
C2535 C2534 1.474 . S
C2536 C2531 1.342 . S
C2536 C2534 1.285 . S
C2536 H2555 0.930 . S
C2537 C2540 1.424 . S
C2537 C2542 1.245 . S
C2537 C2543 1.428 . S
C2538 C2541 1.260 . S
C2538 C2542 1.477 . S
C2538 H2556 0.932 . S
C2539 C2540 1.384 . S
C2539 C2541 1.479 . S
C2539 H2557 0.929 . S
C2540 C2537 1.424 . S
C2540 C2539 1.384 . S
C2540 H2558 0.928 . S
C2541 C2538 1.260 . S
C2541 C2539 1.479 . S
C2542 C2537 1.245 . S
C2542 C2538 1.477 . S
C2542 H2559 0.932 . S
C2543 U2526 2.882 . S
C2543 C2537 1.428 . S
C2543 O2546 1.301 . S
C2543 O2547 1.282 . S
O2544 U2526 2.441 . S
O2544 C2530 1.249 . S
O2545 U2526 2.420 . S
O2545 C2530 1.202 . S
O2546 U2526 2.455 . S
O2546 C2543 1.301 . S
O2547 U2526 2.449 . S
O2547 C2543 1.282 . S
H2548 C2521 0.931 . S
H2549 C2523 0.929 . S
H2550 C2524 0.930 . S
H2551 C2525 0.931 . S
H2552 C2532 0.932 . S
H2553 C2533 0.930 . S
H2554 C2534 0.929 . S
H2555 C2536 0.930 . S
H2556 C2538 0.932 . S
H2557 C2539 0.929 . S
H2558 C2540 0.928 . S
H2559 C2542 0.932 . S
C2560 C2561 1.264 . S
C2560 C2565 1.479 . S
C2560 C2570 1.465 . S
C2561 C2560 1.264 . S
C2561 C2563 1.339 . S
C2561 H2588 0.931 . S
C2562 C2563 1.395 . S
C2562 C2564 1.320 . S
C2563 C2561 1.339 . S
C2563 C2562 1.395 . S
C2563 H2589 0.929 . S
C2564 C2562 1.320 . S
C2564 C2565 1.405 . S
C2564 H2590 0.930 . S
C2565 C2560 1.479 . S
C2565 C2564 1.405 . S
C2565 H2591 0.931 . S
U2566 O2567 2.454 . S
U2566 O2568 2.458 . S
U2566 C2569 2.984 . S
U2566 C2570 2.847 . S
U2566 C2583 2.882 . S
U2566 O2584 2.441 . S
U2566 O2585 2.420 . S
U2566 O2586 2.455 . S
U2566 O2587 2.449 . S
O2567 U2566 2.454 . S
O2567 C2569 1.353 . S
O2568 U2566 2.458 . S
O2568 C2569 1.286 . S
C2569 U2566 2.984 . S
C2569 O2567 1.353 . S
C2569 O2568 1.286 . S
C2569 C2571 1.363 . S
C2570 C2560 1.465 . S
C2570 U2566 2.847 . S
C2570 O2584 1.249 . S
C2570 O2585 1.202 . S
C2571 C2569 1.363 . S
C2571 C2573 1.408 . S
C2571 C2576 1.342 . S
C2572 C2573 1.310 . S
C2572 C2575 1.461 . S
C2572 H2592 0.932 . S
C2573 C2571 1.408 . S
C2573 C2572 1.310 . S
C2573 H2593 0.930 . S
C2574 C2575 1.474 . S
C2574 C2576 1.285 . S
C2574 H2594 0.929 . S
C2575 C2572 1.461 . S
C2575 C2574 1.474 . S
C2576 C2571 1.342 . S
C2576 C2574 1.285 . S
C2576 H2595 0.930 . S
C2577 C2580 1.424 . S
C2577 C2582 1.245 . S
C2577 C2583 1.428 . S
C2578 C2581 1.260 . S
C2578 C2582 1.477 . S
C2578 H2596 0.932 . S
C2579 C2580 1.384 . S
C2579 C2581 1.479 . S
C2579 H2597 0.929 . S
C2580 C2577 1.424 . S
C2580 C2579 1.384 . S
C2580 H2598 0.928 . S
C2581 C2578 1.260 . S
C2581 C2579 1.479 . S
C2582 C2577 1.245 . S
C2582 C2578 1.477 . S
C2582 H2599 0.932 . S
C2583 U2566 2.882 . S
C2583 C2577 1.428 . S
C2583 O2586 1.301 . S
C2583 O2587 1.282 . S
O2584 U2566 2.441 . S
O2584 C2570 1.249 . S
O2585 U2566 2.420 . S
O2585 C2570 1.202 . S
O2586 U2566 2.455 . S
O2586 C2583 1.301 . S
O2587 U2566 2.449 . S
O2587 C2583 1.282 . S
H2588 C2561 0.931 . S
H2589 C2563 0.929 . S
H2590 C2564 0.930 . S
H2591 C2565 0.931 . S
H2592 C2572 0.932 . S
H2593 C2573 0.930 . S
H2594 C2574 0.929 . S
H2595 C2576 0.930 . S
H2596 C2578 0.932 . S
H2597 C2579 0.929 . S
H2598 C2580 0.928 . S
H2599 C2582 0.932 . S
C2600 C2601 1.264 . S
C2600 C2605 1.479 . S
C2600 C2610 1.465 . S
C2601 C2600 1.264 . S
C2601 C2603 1.339 . S
C2601 H2628 0.931 . S
C2602 C2603 1.395 . S
C2602 C2604 1.320 . S
C2603 C2601 1.339 . S
C2603 C2602 1.395 . S
C2603 H2629 0.929 . S
C2604 C2602 1.320 . S
C2604 C2605 1.405 . S
C2604 H2630 0.930 . S
C2605 C2600 1.479 . S
C2605 C2604 1.405 . S
C2605 H2631 0.931 . S
U2606 O2607 2.454 . S
U2606 O2608 2.458 . S
U2606 C2609 2.984 . S
U2606 C2610 2.847 . S
U2606 C2623 2.882 . S
U2606 O2624 2.441 . S
U2606 O2625 2.420 . S
U2606 O2626 2.455 . S
U2606 O2627 2.449 . S
O2607 U2606 2.454 . S
O2607 C2609 1.353 . S
O2608 U2606 2.458 . S
O2608 C2609 1.286 . S
C2609 U2606 2.984 . S
C2609 O2607 1.353 . S
C2609 O2608 1.286 . S
C2609 C2611 1.363 . S
C2610 C2600 1.465 . S
C2610 U2606 2.847 . S
C2610 O2624 1.249 . S
C2610 O2625 1.202 . S
C2611 C2609 1.363 . S
C2611 C2613 1.408 . S
C2611 C2616 1.342 . S
C2612 C2613 1.310 . S
C2612 C2615 1.461 . S
C2612 H2632 0.932 . S
C2613 C2611 1.408 . S
C2613 C2612 1.310 . S
C2613 H2633 0.930 . S
C2614 C2615 1.474 . S
C2614 C2616 1.285 . S
C2614 H2634 0.929 . S
C2615 C2612 1.461 . S
C2615 C2614 1.474 . S
C2616 C2611 1.342 . S
C2616 C2614 1.285 . S
C2616 H2635 0.930 . S
C2617 C2620 1.424 . S
C2617 C2622 1.245 . S
C2617 C2623 1.428 . S
C2618 C2621 1.260 . S
C2618 C2622 1.477 . S
C2618 H2636 0.932 . S
C2619 C2620 1.384 . S
C2619 C2621 1.479 . S
C2619 H2637 0.929 . S
C2620 C2617 1.424 . S
C2620 C2619 1.384 . S
C2620 H2638 0.928 . S
C2621 C2618 1.260 . S
C2621 C2619 1.479 . S
C2622 C2617 1.245 . S
C2622 C2618 1.477 . S
C2622 H2639 0.932 . S
C2623 U2606 2.882 . S
C2623 C2617 1.428 . S
C2623 O2626 1.301 . S
C2623 O2627 1.282 . S
O2624 U2606 2.441 . S
O2624 C2610 1.249 . S
O2625 U2606 2.420 . S
O2625 C2610 1.202 . S
O2626 U2606 2.455 . S
O2626 C2623 1.301 . S
O2627 U2606 2.449 . S
O2627 C2623 1.282 . S
H2628 C2601 0.931 . S
H2629 C2603 0.929 . S
H2630 C2604 0.930 . S
H2631 C2605 0.931 . S
H2632 C2612 0.932 . S
H2633 C2613 0.930 . S
H2634 C2614 0.929 . S
H2635 C2616 0.930 . S
H2636 C2618 0.932 . S
H2637 C2619 0.929 . S
H2638 C2620 0.928 . S
H2639 C2622 0.932 . S
C2640 C2641 1.264 . S
C2640 C2645 1.479 . S
C2640 C2650 1.465 . S
C2641 C2640 1.264 . S
C2641 C2643 1.339 . S
C2641 H2668 0.931 . S
C2642 C2643 1.395 . S
C2642 C2644 1.320 . S
C2643 C2641 1.339 . S
C2643 C2642 1.395 . S
C2643 H2669 0.929 . S
C2644 C2642 1.320 . S
C2644 C2645 1.405 . S
C2644 H2670 0.930 . S
C2645 C2640 1.479 . S
C2645 C2644 1.405 . S
C2645 H2671 0.931 . S
U2646 O2647 2.454 . S
U2646 O2648 2.458 . S
U2646 C2649 2.984 . S
U2646 C2650 2.847 . S
U2646 C2663 2.882 . S
U2646 O2664 2.441 . S
U2646 O2665 2.420 . S
U2646 O2666 2.455 . S
U2646 O2667 2.449 . S
O2647 U2646 2.454 . S
O2647 C2649 1.353 . S
O2648 U2646 2.458 . S
O2648 C2649 1.286 . S
C2649 U2646 2.984 . S
C2649 O2647 1.353 . S
C2649 O2648 1.286 . S
C2649 C2651 1.363 . S
C2650 C2640 1.465 . S
C2650 U2646 2.847 . S
C2650 O2664 1.249 . S
C2650 O2665 1.202 . S
C2651 C2649 1.363 . S
C2651 C2653 1.408 . S
C2651 C2656 1.342 . S
C2652 C2653 1.310 . S
C2652 C2655 1.461 . S
C2652 H2672 0.932 . S
C2653 C2651 1.408 . S
C2653 C2652 1.310 . S
C2653 H2673 0.930 . S
C2654 C2655 1.474 . S
C2654 C2656 1.285 . S
C2654 H2674 0.929 . S
C2655 C2652 1.461 . S
C2655 C2654 1.474 . S
C2656 C2651 1.342 . S
C2656 C2654 1.285 . S
C2656 H2675 0.930 . S
C2657 C2660 1.424 . S
C2657 C2662 1.245 . S
C2657 C2663 1.428 . S
C2658 C2661 1.260 . S
C2658 C2662 1.477 . S
C2658 H2676 0.932 . S
C2659 C2660 1.384 . S
C2659 C2661 1.479 . S
C2659 H2677 0.929 . S
C2660 C2657 1.424 . S
C2660 C2659 1.384 . S
C2660 H2678 0.928 . S
C2661 C2658 1.260 . S
C2661 C2659 1.479 . S
C2662 C2657 1.245 . S
C2662 C2658 1.477 . S
C2662 H2679 0.932 . S
C2663 U2646 2.882 . S
C2663 C2657 1.428 . S
C2663 O2666 1.301 . S
C2663 O2667 1.282 . S
O2664 U2646 2.441 . S
O2664 C2650 1.249 . S
O2665 U2646 2.420 . S
O2665 C2650 1.202 . S
O2666 U2646 2.455 . S
O2666 C2663 1.301 . S
O2667 U2646 2.449 . S
O2667 C2663 1.282 . S
H2668 C2641 0.931 . S
H2669 C2643 0.929 . S
H2670 C2644 0.930 . S
H2671 C2645 0.931 . S
H2672 C2652 0.932 . S
H2673 C2653 0.930 . S
H2674 C2654 0.929 . S
H2675 C2656 0.930 . S
H2676 C2658 0.932 . S
H2677 C2659 0.929 . S
H2678 C2660 0.928 . S
H2679 C2662 0.932 . S
C2680 C2681 1.264 . S
C2680 C2685 1.479 . S
C2680 C2690 1.465 . S
C2681 C2680 1.264 . S
C2681 C2683 1.339 . S
C2681 H2708 0.931 . S
C2682 C2683 1.395 . S
C2682 C2684 1.320 . S
C2683 C2681 1.339 . S
C2683 C2682 1.395 . S
C2683 H2709 0.929 . S
C2684 C2682 1.320 . S
C2684 C2685 1.405 . S
C2684 H2710 0.930 . S
C2685 C2680 1.479 . S
C2685 C2684 1.405 . S
C2685 H2711 0.931 . S
U2686 O2687 2.454 . S
U2686 O2688 2.458 . S
U2686 C2689 2.984 . S
U2686 C2690 2.847 . S
U2686 C2703 2.882 . S
U2686 O2704 2.441 . S
U2686 O2705 2.420 . S
U2686 O2706 2.455 . S
U2686 O2707 2.449 . S
O2687 U2686 2.454 . S
O2687 C2689 1.353 . S
O2688 U2686 2.458 . S
O2688 C2689 1.286 . S
C2689 U2686 2.984 . S
C2689 O2687 1.353 . S
C2689 O2688 1.286 . S
C2689 C2691 1.363 . S
C2690 C2680 1.465 . S
C2690 U2686 2.847 . S
C2690 O2704 1.249 . S
C2690 O2705 1.202 . S
C2691 C2689 1.363 . S
C2691 C2693 1.408 . S
C2691 C2696 1.342 . S
C2692 C2693 1.310 . S
C2692 C2695 1.461 . S
C2692 H2712 0.932 . S
C2693 C2691 1.408 . S
C2693 C2692 1.310 . S
C2693 H2713 0.930 . S
C2694 C2695 1.474 . S
C2694 C2696 1.285 . S
C2694 H2714 0.929 . S
C2695 C2692 1.461 . S
C2695 C2694 1.474 . S
C2696 C2691 1.342 . S
C2696 C2694 1.285 . S
C2696 H2715 0.930 . S
C2697 C2700 1.424 . S
C2697 C2702 1.245 . S
C2697 C2703 1.428 . S
C2698 C2701 1.260 . S
C2698 C2702 1.477 . S
C2698 H2716 0.932 . S
C2699 C2700 1.384 . S
C2699 C2701 1.479 . S
C2699 H2717 0.929 . S
C2700 C2697 1.424 . S
C2700 C2699 1.384 . S
C2700 H2718 0.928 . S
C2701 C2698 1.260 . S
C2701 C2699 1.479 . S
C2702 C2697 1.245 . S
C2702 C2698 1.477 . S
C2702 H2719 0.932 . S
C2703 U2686 2.882 . S
C2703 C2697 1.428 . S
C2703 O2706 1.301 . S
C2703 O2707 1.282 . S
O2704 U2686 2.441 . S
O2704 C2690 1.249 . S
O2705 U2686 2.420 . S
O2705 C2690 1.202 . S
O2706 U2686 2.455 . S
O2706 C2703 1.301 . S
O2707 U2686 2.449 . S
O2707 C2703 1.282 . S
H2708 C2681 0.931 . S
H2709 C2683 0.929 . S
H2710 C2684 0.930 . S
H2711 C2685 0.931 . S
H2712 C2692 0.932 . S
H2713 C2693 0.930 . S
H2714 C2694 0.929 . S
H2715 C2696 0.930 . S
H2716 C2698 0.932 . S
H2717 C2699 0.929 . S
H2718 C2700 0.928 . S
H2719 C2702 0.932 . S
C2720 C2721 1.264 . S
C2720 C2725 1.479 . S
C2720 C2730 1.465 . S
C2721 C2720 1.264 . S
C2721 C2723 1.339 . S
C2721 H2748 0.931 . S
C2722 C2723 1.395 . S
C2722 C2724 1.320 . S
C2723 C2721 1.339 . S
C2723 C2722 1.395 . S
C2723 H2749 0.929 . S
C2724 C2722 1.320 . S
C2724 C2725 1.405 . S
C2724 H2750 0.930 . S
C2725 C2720 1.479 . S
C2725 C2724 1.405 . S
C2725 H2751 0.931 . S
U2726 O2727 2.454 . S
U2726 O2728 2.458 . S
U2726 C2729 2.984 . S
U2726 C2730 2.847 . S
U2726 C2743 2.882 . S
U2726 O2744 2.441 . S
U2726 O2745 2.420 . S
U2726 O2746 2.455 . S
U2726 O2747 2.449 . S
O2727 U2726 2.454 . S
O2727 C2729 1.353 . S
O2728 U2726 2.458 . S
O2728 C2729 1.286 . S
C2729 U2726 2.984 . S
C2729 O2727 1.353 . S
C2729 O2728 1.286 . S
C2729 C2731 1.363 . S
C2730 C2720 1.465 . S
C2730 U2726 2.847 . S
C2730 O2744 1.249 . S
C2730 O2745 1.202 . S
C2731 C2729 1.363 . S
C2731 C2733 1.408 . S
C2731 C2736 1.342 . S
C2732 C2733 1.310 . S
C2732 C2735 1.461 . S
C2732 H2752 0.932 . S
C2733 C2731 1.408 . S
C2733 C2732 1.310 . S
C2733 H2753 0.930 . S
C2734 C2735 1.474 . S
C2734 C2736 1.285 . S
C2734 H2754 0.929 . S
C2735 C2732 1.461 . S
C2735 C2734 1.474 . S
C2736 C2731 1.342 . S
C2736 C2734 1.285 . S
C2736 H2755 0.930 . S
C2737 C2740 1.424 . S
C2737 C2742 1.245 . S
C2737 C2743 1.428 . S
C2738 C2741 1.260 . S
C2738 C2742 1.477 . S
C2738 H2756 0.932 . S
C2739 C2740 1.384 . S
C2739 C2741 1.479 . S
C2739 H2757 0.929 . S
C2740 C2737 1.424 . S
C2740 C2739 1.384 . S
C2740 H2758 0.928 . S
C2741 C2738 1.260 . S
C2741 C2739 1.479 . S
C2742 C2737 1.245 . S
C2742 C2738 1.477 . S
C2742 H2759 0.932 . S
C2743 U2726 2.882 . S
C2743 C2737 1.428 . S
C2743 O2746 1.301 . S
C2743 O2747 1.282 . S
O2744 U2726 2.441 . S
O2744 C2730 1.249 . S
O2745 U2726 2.420 . S
O2745 C2730 1.202 . S
O2746 U2726 2.455 . S
O2746 C2743 1.301 . S
O2747 U2726 2.449 . S
O2747 C2743 1.282 . S
H2748 C2721 0.931 . S
H2749 C2723 0.929 . S
H2750 C2724 0.930 . S
H2751 C2725 0.931 . S
H2752 C2732 0.932 . S
H2753 C2733 0.930 . S
H2754 C2734 0.929 . S
H2755 C2736 0.930 . S
H2756 C2738 0.932 . S
H2757 C2739 0.929 . S
H2758 C2740 0.928 . S
H2759 C2742 0.932 . S
C2760 C2761 1.264 . S
C2760 C2765 1.479 . S
C2760 C2770 1.465 . S
C2761 C2760 1.264 . S
C2761 C2763 1.339 . S
C2761 H2788 0.931 . S
C2762 C2763 1.395 . S
C2762 C2764 1.320 . S
C2763 C2761 1.339 . S
C2763 C2762 1.395 . S
C2763 H2789 0.929 . S
C2764 C2762 1.320 . S
C2764 C2765 1.405 . S
C2764 H2790 0.930 . S
C2765 C2760 1.479 . S
C2765 C2764 1.405 . S
C2765 H2791 0.931 . S
U2766 O2767 2.454 . S
U2766 O2768 2.458 . S
U2766 C2769 2.984 . S
U2766 C2770 2.847 . S
U2766 C2783 2.882 . S
U2766 O2784 2.441 . S
U2766 O2785 2.420 . S
U2766 O2786 2.455 . S
U2766 O2787 2.449 . S
O2767 U2766 2.454 . S
O2767 C2769 1.353 . S
O2768 U2766 2.458 . S
O2768 C2769 1.286 . S
C2769 U2766 2.984 . S
C2769 O2767 1.353 . S
C2769 O2768 1.286 . S
C2769 C2771 1.363 . S
C2770 C2760 1.465 . S
C2770 U2766 2.847 . S
C2770 O2784 1.249 . S
C2770 O2785 1.202 . S
C2771 C2769 1.363 . S
C2771 C2773 1.408 . S
C2771 C2776 1.342 . S
C2772 C2773 1.310 . S
C2772 C2775 1.461 . S
C2772 H2792 0.932 . S
C2773 C2771 1.408 . S
C2773 C2772 1.310 . S
C2773 H2793 0.930 . S
C2774 C2775 1.474 . S
C2774 C2776 1.285 . S
C2774 H2794 0.929 . S
C2775 C2772 1.461 . S
C2775 C2774 1.474 . S
C2776 C2771 1.342 . S
C2776 C2774 1.285 . S
C2776 H2795 0.930 . S
C2777 C2780 1.424 . S
C2777 C2782 1.245 . S
C2777 C2783 1.428 . S
C2778 C2781 1.260 . S
C2778 C2782 1.477 . S
C2778 H2796 0.932 . S
C2779 C2780 1.384 . S
C2779 C2781 1.479 . S
C2779 H2797 0.929 . S
C2780 C2777 1.424 . S
C2780 C2779 1.384 . S
C2780 H2798 0.928 . S
C2781 C2778 1.260 . S
C2781 C2779 1.479 . S
C2782 C2777 1.245 . S
C2782 C2778 1.477 . S
C2782 H2799 0.932 . S
C2783 U2766 2.882 . S
C2783 C2777 1.428 . S
C2783 O2786 1.301 . S
C2783 O2787 1.282 . S
O2784 U2766 2.441 . S
O2784 C2770 1.249 . S
O2785 U2766 2.420 . S
O2785 C2770 1.202 . S
O2786 U2766 2.455 . S
O2786 C2783 1.301 . S
O2787 U2766 2.449 . S
O2787 C2783 1.282 . S
H2788 C2761 0.931 . S
H2789 C2763 0.929 . S
H2790 C2764 0.930 . S
H2791 C2765 0.931 . S
H2792 C2772 0.932 . S
H2793 C2773 0.930 . S
H2794 C2774 0.929 . S
H2795 C2776 0.930 . S
H2796 C2778 0.932 . S
H2797 C2779 0.929 . S
H2798 C2780 0.928 . S
H2799 C2782 0.932 . S
C2800 C2801 1.264 . S
C2800 C2805 1.479 . S
C2800 C2810 1.465 . S
C2801 C2800 1.264 . S
C2801 C2803 1.339 . S
C2801 H2828 0.931 . S
C2802 C2803 1.395 . S
C2802 C2804 1.320 . S
C2803 C2801 1.339 . S
C2803 C2802 1.395 . S
C2803 H2829 0.929 . S
C2804 C2802 1.320 . S
C2804 C2805 1.405 . S
C2804 H2830 0.930 . S
C2805 C2800 1.479 . S
C2805 C2804 1.405 . S
C2805 H2831 0.931 . S
U2806 O2807 2.454 . S
U2806 O2808 2.458 . S
U2806 C2809 2.984 . S
U2806 C2810 2.847 . S
U2806 C2823 2.882 . S
U2806 O2824 2.441 . S
U2806 O2825 2.420 . S
U2806 O2826 2.455 . S
U2806 O2827 2.449 . S
O2807 U2806 2.454 . S
O2807 C2809 1.353 . S
O2808 U2806 2.458 . S
O2808 C2809 1.286 . S
C2809 U2806 2.984 . S
C2809 O2807 1.353 . S
C2809 O2808 1.286 . S
C2809 C2811 1.363 . S
C2810 C2800 1.465 . S
C2810 U2806 2.847 . S
C2810 O2824 1.249 . S
C2810 O2825 1.202 . S
C2811 C2809 1.363 . S
C2811 C2813 1.408 . S
C2811 C2816 1.342 . S
C2812 C2813 1.310 . S
C2812 C2815 1.461 . S
C2812 H2832 0.932 . S
C2813 C2811 1.408 . S
C2813 C2812 1.310 . S
C2813 H2833 0.930 . S
C2814 C2815 1.474 . S
C2814 C2816 1.285 . S
C2814 H2834 0.929 . S
C2815 C2812 1.461 . S
C2815 C2814 1.474 . S
C2816 C2811 1.342 . S
C2816 C2814 1.285 . S
C2816 H2835 0.930 . S
C2817 C2820 1.424 . S
C2817 C2822 1.245 . S
C2817 C2823 1.428 . S
C2818 C2821 1.260 . S
C2818 C2822 1.477 . S
C2818 H2836 0.932 . S
C2819 C2820 1.384 . S
C2819 C2821 1.479 . S
C2819 H2837 0.929 . S
C2820 C2817 1.424 . S
C2820 C2819 1.384 . S
C2820 H2838 0.928 . S
C2821 C2818 1.260 . S
C2821 C2819 1.479 . S
C2822 C2817 1.245 . S
C2822 C2818 1.477 . S
C2822 H2839 0.932 . S
C2823 U2806 2.882 . S
C2823 C2817 1.428 . S
C2823 O2826 1.301 . S
C2823 O2827 1.282 . S
O2824 U2806 2.441 . S
O2824 C2810 1.249 . S
O2825 U2806 2.420 . S
O2825 C2810 1.202 . S
O2826 U2806 2.455 . S
O2826 C2823 1.301 . S
O2827 U2806 2.449 . S
O2827 C2823 1.282 . S
H2828 C2801 0.931 . S
H2829 C2803 0.929 . S
H2830 C2804 0.930 . S
H2831 C2805 0.931 . S
H2832 C2812 0.932 . S
H2833 C2813 0.930 . S
H2834 C2814 0.929 . S
H2835 C2816 0.930 . S
H2836 C2818 0.932 . S
H2837 C2819 0.929 . S
H2838 C2820 0.928 . S
H2839 C2822 0.932 . S
C2840 C2841 1.264 . S
C2840 C2845 1.479 . S
C2840 C2850 1.465 . S
C2841 C2840 1.264 . S
C2841 C2843 1.339 . S
C2841 H2868 0.931 . S
C2842 C2843 1.395 . S
C2842 C2844 1.320 . S
C2843 C2841 1.339 . S
C2843 C2842 1.395 . S
C2843 H2869 0.929 . S
C2844 C2842 1.320 . S
C2844 C2845 1.405 . S
C2844 H2870 0.930 . S
C2845 C2840 1.479 . S
C2845 C2844 1.405 . S
C2845 H2871 0.931 . S
U2846 O2847 2.454 . S
U2846 O2848 2.458 . S
U2846 C2849 2.984 . S
U2846 C2850 2.847 . S
U2846 C2863 2.882 . S
U2846 O2864 2.441 . S
U2846 O2865 2.420 . S
U2846 O2866 2.455 . S
U2846 O2867 2.449 . S
O2847 U2846 2.454 . S
O2847 C2849 1.353 . S
O2848 U2846 2.458 . S
O2848 C2849 1.286 . S
C2849 U2846 2.984 . S
C2849 O2847 1.353 . S
C2849 O2848 1.286 . S
C2849 C2851 1.363 . S
C2850 C2840 1.465 . S
C2850 U2846 2.847 . S
C2850 O2864 1.249 . S
C2850 O2865 1.202 . S
C2851 C2849 1.363 . S
C2851 C2853 1.408 . S
C2851 C2856 1.342 . S
C2852 C2853 1.310 . S
C2852 C2855 1.461 . S
C2852 H2872 0.932 . S
C2853 C2851 1.408 . S
C2853 C2852 1.310 . S
C2853 H2873 0.930 . S
C2854 C2855 1.474 . S
C2854 C2856 1.285 . S
C2854 H2874 0.929 . S
C2855 C2852 1.461 . S
C2855 C2854 1.474 . S
C2856 C2851 1.342 . S
C2856 C2854 1.285 . S
C2856 H2875 0.930 . S
C2857 C2860 1.424 . S
C2857 C2862 1.245 . S
C2857 C2863 1.428 . S
C2858 C2861 1.260 . S
C2858 C2862 1.477 . S
C2858 H2876 0.932 . S
C2859 C2860 1.384 . S
C2859 C2861 1.479 . S
C2859 H2877 0.929 . S
C2860 C2857 1.424 . S
C2860 C2859 1.384 . S
C2860 H2878 0.928 . S
C2861 C2858 1.260 . S
C2861 C2859 1.479 . S
C2862 C2857 1.245 . S
C2862 C2858 1.477 . S
C2862 H2879 0.932 . S
C2863 U2846 2.882 . S
C2863 C2857 1.428 . S
C2863 O2866 1.301 . S
C2863 O2867 1.282 . S
O2864 U2846 2.441 . S
O2864 C2850 1.249 . S
O2865 U2846 2.420 . S
O2865 C2850 1.202 . S
O2866 U2846 2.455 . S
O2866 C2863 1.301 . S
O2867 U2846 2.449 . S
O2867 C2863 1.282 . S
H2868 C2841 0.931 . S
H2869 C2843 0.929 . S
H2870 C2844 0.930 . S
H2871 C2845 0.931 . S
H2872 C2852 0.932 . S
H2873 C2853 0.930 . S
H2874 C2854 0.929 . S
H2875 C2856 0.930 . S
H2876 C2858 0.932 . S
H2877 C2859 0.929 . S
H2878 C2860 0.928 . S
H2879 C2862 0.932 . S
C2880 C2881 1.264 . S
C2880 C2885 1.479 . S
C2880 C2890 1.465 . S
C2881 C2880 1.264 . S
C2881 C2883 1.339 . S
C2881 H2908 0.931 . S
C2882 C2883 1.395 . S
C2882 C2884 1.320 . S
C2883 C2881 1.339 . S
C2883 C2882 1.395 . S
C2883 H2909 0.929 . S
C2884 C2882 1.320 . S
C2884 C2885 1.405 . S
C2884 H2910 0.930 . S
C2885 C2880 1.479 . S
C2885 C2884 1.405 . S
C2885 H2911 0.931 . S
U2886 O2887 2.454 . S
U2886 O2888 2.458 . S
U2886 C2889 2.984 . S
U2886 C2890 2.847 . S
U2886 C2903 2.882 . S
U2886 O2904 2.441 . S
U2886 O2905 2.420 . S
U2886 O2906 2.455 . S
U2886 O2907 2.449 . S
O2887 U2886 2.454 . S
O2887 C2889 1.353 . S
O2888 U2886 2.458 . S
O2888 C2889 1.286 . S
C2889 U2886 2.984 . S
C2889 O2887 1.353 . S
C2889 O2888 1.286 . S
C2889 C2891 1.363 . S
C2890 C2880 1.465 . S
C2890 U2886 2.847 . S
C2890 O2904 1.249 . S
C2890 O2905 1.202 . S
C2891 C2889 1.363 . S
C2891 C2893 1.408 . S
C2891 C2896 1.342 . S
C2892 C2893 1.310 . S
C2892 C2895 1.461 . S
C2892 H2912 0.932 . S
C2893 C2891 1.408 . S
C2893 C2892 1.310 . S
C2893 H2913 0.930 . S
C2894 C2895 1.474 . S
C2894 C2896 1.285 . S
C2894 H2914 0.929 . S
C2895 C2892 1.461 . S
C2895 C2894 1.474 . S
C2896 C2891 1.342 . S
C2896 C2894 1.285 . S
C2896 H2915 0.930 . S
C2897 C2900 1.424 . S
C2897 C2902 1.245 . S
C2897 C2903 1.428 . S
C2898 C2901 1.260 . S
C2898 C2902 1.477 . S
C2898 H2916 0.932 . S
C2899 C2900 1.384 . S
C2899 C2901 1.479 . S
C2899 H2917 0.929 . S
C2900 C2897 1.424 . S
C2900 C2899 1.384 . S
C2900 H2918 0.928 . S
C2901 C2898 1.260 . S
C2901 C2899 1.479 . S
C2902 C2897 1.245 . S
C2902 C2898 1.477 . S
C2902 H2919 0.932 . S
C2903 U2886 2.882 . S
C2903 C2897 1.428 . S
C2903 O2906 1.301 . S
C2903 O2907 1.282 . S
O2904 U2886 2.441 . S
O2904 C2890 1.249 . S
O2905 U2886 2.420 . S
O2905 C2890 1.202 . S
O2906 U2886 2.455 . S
O2906 C2903 1.301 . S
O2907 U2886 2.449 . S
O2907 C2903 1.282 . S
H2908 C2881 0.931 . S
H2909 C2883 0.929 . S
H2910 C2884 0.930 . S
H2911 C2885 0.931 . S
H2912 C2892 0.932 . S
H2913 C2893 0.930 . S
H2914 C2894 0.929 . S
H2915 C2896 0.930 . S
H2916 C2898 0.932 . S
H2917 C2899 0.929 . S
H2918 C2900 0.928 . S
H2919 C2902 0.932 . S
C2920 C2921 1.264 . S
C2920 C2925 1.479 . S
C2920 C2930 1.465 . S
C2921 C2920 1.264 . S
C2921 C2923 1.339 . S
C2921 H2948 0.931 . S
C2922 C2923 1.395 . S
C2922 C2924 1.320 . S
C2923 C2921 1.339 . S
C2923 C2922 1.395 . S
C2923 H2949 0.929 . S
C2924 C2922 1.320 . S
C2924 C2925 1.405 . S
C2924 H2950 0.930 . S
C2925 C2920 1.479 . S
C2925 C2924 1.405 . S
C2925 H2951 0.931 . S
U2926 O2927 2.454 . S
U2926 O2928 2.458 . S
U2926 C2929 2.984 . S
U2926 C2930 2.847 . S
U2926 C2943 2.882 . S
U2926 O2944 2.441 . S
U2926 O2945 2.420 . S
U2926 O2946 2.455 . S
U2926 O2947 2.449 . S
O2927 U2926 2.454 . S
O2927 C2929 1.353 . S
O2928 U2926 2.458 . S
O2928 C2929 1.286 . S
C2929 U2926 2.984 . S
C2929 O2927 1.353 . S
C2929 O2928 1.286 . S
C2929 C2931 1.363 . S
C2930 C2920 1.465 . S
C2930 U2926 2.847 . S
C2930 O2944 1.249 . S
C2930 O2945 1.202 . S
C2931 C2929 1.363 . S
C2931 C2933 1.408 . S
C2931 C2936 1.342 . S
C2932 C2933 1.310 . S
C2932 C2935 1.461 . S
C2932 H2952 0.932 . S
C2933 C2931 1.408 . S
C2933 C2932 1.310 . S
C2933 H2953 0.930 . S
C2934 C2935 1.474 . S
C2934 C2936 1.285 . S
C2934 H2954 0.929 . S
C2935 C2932 1.461 . S
C2935 C2934 1.474 . S
C2936 C2931 1.342 . S
C2936 C2934 1.285 . S
C2936 H2955 0.930 . S
C2937 C2940 1.424 . S
C2937 C2942 1.245 . S
C2937 C2943 1.428 . S
C2938 C2941 1.260 . S
C2938 C2942 1.477 . S
C2938 H2956 0.932 . S
C2939 C2940 1.384 . S
C2939 C2941 1.479 . S
C2939 H2957 0.929 . S
C2940 C2937 1.424 . S
C2940 C2939 1.384 . S
C2940 H2958 0.928 . S
C2941 C2938 1.260 . S
C2941 C2939 1.479 . S
C2942 C2937 1.245 . S
C2942 C2938 1.477 . S
C2942 H2959 0.932 . S
C2943 U2926 2.882 . S
C2943 C2937 1.428 . S
C2943 O2946 1.301 . S
C2943 O2947 1.282 . S
O2944 U2926 2.441 . S
O2944 C2930 1.249 . S
O2945 U2926 2.420 . S
O2945 C2930 1.202 . S
O2946 U2926 2.455 . S
O2946 C2943 1.301 . S
O2947 U2926 2.449 . S
O2947 C2943 1.282 . S
H2948 C2921 0.931 . S
H2949 C2923 0.929 . S
H2950 C2924 0.930 . S
H2951 C2925 0.931 . S
H2952 C2932 0.932 . S
H2953 C2933 0.930 . S
H2954 C2934 0.929 . S
H2955 C2936 0.930 . S
H2956 C2938 0.932 . S
H2957 C2939 0.929 . S
H2958 C2940 0.928 . S
H2959 C2942 0.932 . S
C2960 C2961 1.264 . S
C2960 C2965 1.479 . S
C2960 C2970 1.465 . S
C2961 C2960 1.264 . S
C2961 C2963 1.339 . S
C2961 H2988 0.931 . S
C2962 C2963 1.395 . S
C2962 C2964 1.320 . S
C2963 C2961 1.339 . S
C2963 C2962 1.395 . S
C2963 H2989 0.929 . S
C2964 C2962 1.320 . S
C2964 C2965 1.405 . S
C2964 H2990 0.930 . S
C2965 C2960 1.479 . S
C2965 C2964 1.405 . S
C2965 H2991 0.931 . S
U2966 O2967 2.454 . S
U2966 O2968 2.458 . S
U2966 C2969 2.984 . S
U2966 C2970 2.847 . S
U2966 C2983 2.882 . S
U2966 O2984 2.441 . S
U2966 O2985 2.420 . S
U2966 O2986 2.455 . S
U2966 O2987 2.449 . S
O2967 U2966 2.454 . S
O2967 C2969 1.353 . S
O2968 U2966 2.458 . S
O2968 C2969 1.286 . S
C2969 U2966 2.984 . S
C2969 O2967 1.353 . S
C2969 O2968 1.286 . S
C2969 C2971 1.363 . S
C2970 C2960 1.465 . S
C2970 U2966 2.847 . S
C2970 O2984 1.249 . S
C2970 O2985 1.202 . S
C2971 C2969 1.363 . S
C2971 C2973 1.408 . S
C2971 C2976 1.342 . S
C2972 C2973 1.310 . S
C2972 C2975 1.461 . S
C2972 H2992 0.932 . S
C2973 C2971 1.408 . S
C2973 C2972 1.310 . S
C2973 H2993 0.930 . S
C2974 C2975 1.474 . S
C2974 C2976 1.285 . S
C2974 H2994 0.929 . S
C2975 C2972 1.461 . S
C2975 C2974 1.474 . S
C2976 C2971 1.342 . S
C2976 C2974 1.285 . S
C2976 H2995 0.930 . S
C2977 C2980 1.424 . S
C2977 C2982 1.245 . S
C2977 C2983 1.428 . S
C2978 C2981 1.260 . S
C2978 C2982 1.477 . S
C2978 H2996 0.932 . S
C2979 C2980 1.384 . S
C2979 C2981 1.479 . S
C2979 H2997 0.929 . S
C2980 C2977 1.424 . S
C2980 C2979 1.384 . S
C2980 H2998 0.928 . S
C2981 C2978 1.260 . S
C2981 C2979 1.479 . S
C2982 C2977 1.245 . S
C2982 C2978 1.477 . S
C2982 H2999 0.932 . S
C2983 U2966 2.882 . S
C2983 C2977 1.428 . S
C2983 O2986 1.301 . S
C2983 O2987 1.282 . S
O2984 U2966 2.441 . S
O2984 C2970 1.249 . S
O2985 U2966 2.420 . S
O2985 C2970 1.202 . S
O2986 U2966 2.455 . S
O2986 C2983 1.301 . S
O2987 U2966 2.449 . S
O2987 C2983 1.282 . S
H2988 C2961 0.931 . S
H2989 C2963 0.929 . S
H2990 C2964 0.930 . S
H2991 C2965 0.931 . S
H2992 C2972 0.932 . S
H2993 C2973 0.930 . S
H2994 C2974 0.929 . S
H2995 C2976 0.930 . S
H2996 C2978 0.932 . S
H2997 C2979 0.929 . S
H2998 C2980 0.928 . S
H2999 C2982 0.932 . S
C3000 C3001 1.264 . S
C3000 C3005 1.479 . S
C3000 C3010 1.465 . S
C3001 C3000 1.264 . S
C3001 C3003 1.339 . S
C3001 H3028 0.931 . S
C3002 C3003 1.395 . S
C3002 C3004 1.320 . S
C3003 C3001 1.339 . S
C3003 C3002 1.395 . S
C3003 H3029 0.929 . S
C3004 C3002 1.320 . S
C3004 C3005 1.405 . S
C3004 H3030 0.930 . S
C3005 C3000 1.479 . S
C3005 C3004 1.405 . S
C3005 H3031 0.931 . S
U3006 O3007 2.454 . S
U3006 O3008 2.458 . S
U3006 C3009 2.984 . S
U3006 C3010 2.847 . S
U3006 C3023 2.882 . S
U3006 O3024 2.441 . S
U3006 O3025 2.420 . S
U3006 O3026 2.455 . S
U3006 O3027 2.449 . S
O3007 U3006 2.454 . S
O3007 C3009 1.353 . S
O3008 U3006 2.458 . S
O3008 C3009 1.286 . S
C3009 U3006 2.984 . S
C3009 O3007 1.353 . S
C3009 O3008 1.286 . S
C3009 C3011 1.363 . S
C3010 C3000 1.465 . S
C3010 U3006 2.847 . S
C3010 O3024 1.249 . S
C3010 O3025 1.202 . S
C3011 C3009 1.363 . S
C3011 C3013 1.408 . S
C3011 C3016 1.342 . S
C3012 C3013 1.310 . S
C3012 C3015 1.461 . S
C3012 H3032 0.932 . S
C3013 C3011 1.408 . S
C3013 C3012 1.310 . S
C3013 H3033 0.930 . S
C3014 C3015 1.474 . S
C3014 C3016 1.285 . S
C3014 H3034 0.929 . S
C3015 C3012 1.461 . S
C3015 C3014 1.474 . S
C3016 C3011 1.342 . S
C3016 C3014 1.285 . S
C3016 H3035 0.930 . S
C3017 C3020 1.424 . S
C3017 C3022 1.245 . S
C3017 C3023 1.428 . S
C3018 C3021 1.260 . S
C3018 C3022 1.477 . S
C3018 H3036 0.932 . S
C3019 C3020 1.384 . S
C3019 C3021 1.479 . S
C3019 H3037 0.929 . S
C3020 C3017 1.424 . S
C3020 C3019 1.384 . S
C3020 H3038 0.928 . S
C3021 C3018 1.260 . S
C3021 C3019 1.479 . S
C3022 C3017 1.245 . S
C3022 C3018 1.477 . S
C3022 H3039 0.932 . S
C3023 U3006 2.882 . S
C3023 C3017 1.428 . S
C3023 O3026 1.301 . S
C3023 O3027 1.282 . S
O3024 U3006 2.441 . S
O3024 C3010 1.249 . S
O3025 U3006 2.420 . S
O3025 C3010 1.202 . S
O3026 U3006 2.455 . S
O3026 C3023 1.301 . S
O3027 U3006 2.449 . S
O3027 C3023 1.282 . S
H3028 C3001 0.931 . S
H3029 C3003 0.929 . S
H3030 C3004 0.930 . S
H3031 C3005 0.931 . S
H3032 C3012 0.932 . S
H3033 C3013 0.930 . S
H3034 C3014 0.929 . S
H3035 C3016 0.930 . S
H3036 C3018 0.932 . S
H3037 C3019 0.929 . S
H3038 C3020 0.928 . S
H3039 C3022 0.932 . S
C3040 C3041 1.264 . S
C3040 C3045 1.479 . S
C3040 C3050 1.465 . S
C3041 C3040 1.264 . S
C3041 C3043 1.339 . S
C3041 H3068 0.931 . S
C3042 C3043 1.395 . S
C3042 C3044 1.320 . S
C3043 C3041 1.339 . S
C3043 C3042 1.395 . S
C3043 H3069 0.929 . S
C3044 C3042 1.320 . S
C3044 C3045 1.405 . S
C3044 H3070 0.930 . S
C3045 C3040 1.479 . S
C3045 C3044 1.405 . S
C3045 H3071 0.931 . S
U3046 O3047 2.454 . S
U3046 O3048 2.458 . S
U3046 C3049 2.984 . S
U3046 C3050 2.847 . S
U3046 C3063 2.882 . S
U3046 O3064 2.441 . S
U3046 O3065 2.420 . S
U3046 O3066 2.455 . S
U3046 O3067 2.449 . S
O3047 U3046 2.454 . S
O3047 C3049 1.353 . S
O3048 U3046 2.458 . S
O3048 C3049 1.286 . S
C3049 U3046 2.984 . S
C3049 O3047 1.353 . S
C3049 O3048 1.286 . S
C3049 C3051 1.363 . S
C3050 C3040 1.465 . S
C3050 U3046 2.847 . S
C3050 O3064 1.249 . S
C3050 O3065 1.202 . S
C3051 C3049 1.363 . S
C3051 C3053 1.408 . S
C3051 C3056 1.342 . S
C3052 C3053 1.310 . S
C3052 C3055 1.461 . S
C3052 H3072 0.932 . S
C3053 C3051 1.408 . S
C3053 C3052 1.310 . S
C3053 H3073 0.930 . S
C3054 C3055 1.474 . S
C3054 C3056 1.285 . S
C3054 H3074 0.929 . S
C3055 C3052 1.461 . S
C3055 C3054 1.474 . S
C3056 C3051 1.342 . S
C3056 C3054 1.285 . S
C3056 H3075 0.930 . S
C3057 C3060 1.424 . S
C3057 C3062 1.245 . S
C3057 C3063 1.428 . S
C3058 C3061 1.260 . S
C3058 C3062 1.477 . S
C3058 H3076 0.932 . S
C3059 C3060 1.384 . S
C3059 C3061 1.479 . S
C3059 H3077 0.929 . S
C3060 C3057 1.424 . S
C3060 C3059 1.384 . S
C3060 H3078 0.928 . S
C3061 C3058 1.260 . S
C3061 C3059 1.479 . S
C3062 C3057 1.245 . S
C3062 C3058 1.477 . S
C3062 H3079 0.932 . S
C3063 U3046 2.882 . S
C3063 C3057 1.428 . S
C3063 O3066 1.301 . S
C3063 O3067 1.282 . S
O3064 U3046 2.441 . S
O3064 C3050 1.249 . S
O3065 U3046 2.420 . S
O3065 C3050 1.202 . S
O3066 U3046 2.455 . S
O3066 C3063 1.301 . S
O3067 U3046 2.449 . S
O3067 C3063 1.282 . S
H3068 C3041 0.931 . S
H3069 C3043 0.929 . S
H3070 C3044 0.930 . S
H3071 C3045 0.931 . S
H3072 C3052 0.932 . S
H3073 C3053 0.930 . S
H3074 C3054 0.929 . S
H3075 C3056 0.930 . S
H3076 C3058 0.932 . S
H3077 C3059 0.929 . S
H3078 C3060 0.928 . S
H3079 C3062 0.932 . S
C3080 C3081 1.264 . S
C3080 C3085 1.479 . S
C3080 C3090 1.465 . S
C3081 C3080 1.264 . S
C3081 C3083 1.339 . S
C3081 H3108 0.931 . S
C3082 C3083 1.395 . S
C3082 C3084 1.320 . S
C3083 C3081 1.339 . S
C3083 C3082 1.395 . S
C3083 H3109 0.929 . S
C3084 C3082 1.320 . S
C3084 C3085 1.405 . S
C3084 H3110 0.930 . S
C3085 C3080 1.479 . S
C3085 C3084 1.405 . S
C3085 H3111 0.931 . S
U3086 O3087 2.454 . S
U3086 O3088 2.458 . S
U3086 C3089 2.984 . S
U3086 C3090 2.847 . S
U3086 C3103 2.882 . S
U3086 O3104 2.441 . S
U3086 O3105 2.420 . S
U3086 O3106 2.455 . S
U3086 O3107 2.449 . S
O3087 U3086 2.454 . S
O3087 C3089 1.353 . S
O3088 U3086 2.458 . S
O3088 C3089 1.286 . S
C3089 U3086 2.984 . S
C3089 O3087 1.353 . S
C3089 O3088 1.286 . S
C3089 C3091 1.363 . S
C3090 C3080 1.465 . S
C3090 U3086 2.847 . S
C3090 O3104 1.249 . S
C3090 O3105 1.202 . S
C3091 C3089 1.363 . S
C3091 C3093 1.408 . S
C3091 C3096 1.342 . S
C3092 C3093 1.310 . S
C3092 C3095 1.461 . S
C3092 H3112 0.932 . S
C3093 C3091 1.408 . S
C3093 C3092 1.310 . S
C3093 H3113 0.930 . S
C3094 C3095 1.474 . S
C3094 C3096 1.285 . S
C3094 H3114 0.929 . S
C3095 C3092 1.461 . S
C3095 C3094 1.474 . S
C3096 C3091 1.342 . S
C3096 C3094 1.285 . S
C3096 H3115 0.930 . S
C3097 C3100 1.424 . S
C3097 C3102 1.245 . S
C3097 C3103 1.428 . S
C3098 C3101 1.260 . S
C3098 C3102 1.477 . S
C3098 H3116 0.932 . S
C3099 C3100 1.384 . S
C3099 C3101 1.479 . S
C3099 H3117 0.929 . S
C3100 C3097 1.424 . S
C3100 C3099 1.384 . S
C3100 H3118 0.928 . S
C3101 C3098 1.260 . S
C3101 C3099 1.479 . S
C3102 C3097 1.245 . S
C3102 C3098 1.477 . S
C3102 H3119 0.932 . S
C3103 U3086 2.882 . S
C3103 C3097 1.428 . S
C3103 O3106 1.301 . S
C3103 O3107 1.282 . S
O3104 U3086 2.441 . S
O3104 C3090 1.249 . S
O3105 U3086 2.420 . S
O3105 C3090 1.202 . S
O3106 U3086 2.455 . S
O3106 C3103 1.301 . S
O3107 U3086 2.449 . S
O3107 C3103 1.282 . S
H3108 C3081 0.931 . S
H3109 C3083 0.929 . S
H3110 C3084 0.930 . S
H3111 C3085 0.931 . S
H3112 C3092 0.932 . S
H3113 C3093 0.930 . S
H3114 C3094 0.929 . S
H3115 C3096 0.930 . S
H3116 C3098 0.932 . S
H3117 C3099 0.929 . S
H3118 C3100 0.928 . S
H3119 C3102 0.932 . S
C3120 C3121 1.264 . S
C3120 C3125 1.479 . S
C3120 C3130 1.465 . S
C3121 C3120 1.264 . S
C3121 C3123 1.339 . S
C3121 H3148 0.931 . S
C3122 C3123 1.395 . S
C3122 C3124 1.320 . S
C3123 C3121 1.339 . S
C3123 C3122 1.395 . S
C3123 H3149 0.929 . S
C3124 C3122 1.320 . S
C3124 C3125 1.405 . S
C3124 H3150 0.930 . S
C3125 C3120 1.479 . S
C3125 C3124 1.405 . S
C3125 H3151 0.931 . S
U3126 O3127 2.454 . S
U3126 O3128 2.458 . S
U3126 C3129 2.984 . S
U3126 C3130 2.847 . S
U3126 C3143 2.882 . S
U3126 O3144 2.441 . S
U3126 O3145 2.420 . S
U3126 O3146 2.455 . S
U3126 O3147 2.449 . S
O3127 U3126 2.454 . S
O3127 C3129 1.353 . S
O3128 U3126 2.458 . S
O3128 C3129 1.286 . S
C3129 U3126 2.984 . S
C3129 O3127 1.353 . S
C3129 O3128 1.286 . S
C3129 C3131 1.363 . S
C3130 C3120 1.465 . S
C3130 U3126 2.847 . S
C3130 O3144 1.249 . S
C3130 O3145 1.202 . S
C3131 C3129 1.363 . S
C3131 C3133 1.408 . S
C3131 C3136 1.342 . S
C3132 C3133 1.310 . S
C3132 C3135 1.461 . S
C3132 H3152 0.932 . S
C3133 C3131 1.408 . S
C3133 C3132 1.310 . S
C3133 H3153 0.930 . S
C3134 C3135 1.474 . S
C3134 C3136 1.285 . S
C3134 H3154 0.929 . S
C3135 C3132 1.461 . S
C3135 C3134 1.474 . S
C3136 C3131 1.342 . S
C3136 C3134 1.285 . S
C3136 H3155 0.930 . S
C3137 C3140 1.424 . S
C3137 C3142 1.245 . S
C3137 C3143 1.428 . S
C3138 C3141 1.260 . S
C3138 C3142 1.477 . S
C3138 H3156 0.932 . S
C3139 C3140 1.384 . S
C3139 C3141 1.479 . S
C3139 H3157 0.929 . S
C3140 C3137 1.424 . S
C3140 C3139 1.384 . S
C3140 H3158 0.928 . S
C3141 C3138 1.260 . S
C3141 C3139 1.479 . S
C3142 C3137 1.245 . S
C3142 C3138 1.477 . S
C3142 H3159 0.932 . S
C3143 U3126 2.882 . S
C3143 C3137 1.428 . S
C3143 O3146 1.301 . S
C3143 O3147 1.282 . S
O3144 U3126 2.441 . S
O3144 C3130 1.249 . S
O3145 U3126 2.420 . S
O3145 C3130 1.202 . S
O3146 U3126 2.455 . S
O3146 C3143 1.301 . S
O3147 U3126 2.449 . S
O3147 C3143 1.282 . S
H3148 C3121 0.931 . S
H3149 C3123 0.929 . S
H3150 C3124 0.930 . S
H3151 C3125 0.931 . S
H3152 C3132 0.932 . S
H3153 C3133 0.930 . S
H3154 C3134 0.929 . S
H3155 C3136 0.930 . S
H3156 C3138 0.932 . S
H3157 C3139 0.929 . S
H3158 C3140 0.928 . S
H3159 C3142 0.932 . S
C3160 C3161 1.264 . S
C3160 C3165 1.479 . S
C3160 C3170 1.465 . S
C3161 C3160 1.264 . S
C3161 C3163 1.339 . S
C3161 H3188 0.931 . S
C3162 C3163 1.395 . S
C3162 C3164 1.320 . S
C3163 C3161 1.339 . S
C3163 C3162 1.395 . S
C3163 H3189 0.929 . S
C3164 C3162 1.320 . S
C3164 C3165 1.405 . S
C3164 H3190 0.930 . S
C3165 C3160 1.479 . S
C3165 C3164 1.405 . S
C3165 H3191 0.931 . S
U3166 O3167 2.454 . S
U3166 O3168 2.458 . S
U3166 C3169 2.984 . S
U3166 C3170 2.847 . S
U3166 C3183 2.882 . S
U3166 O3184 2.441 . S
U3166 O3185 2.420 . S
U3166 O3186 2.455 . S
U3166 O3187 2.449 . S
O3167 U3166 2.454 . S
O3167 C3169 1.353 . S
O3168 U3166 2.458 . S
O3168 C3169 1.286 . S
C3169 U3166 2.984 . S
C3169 O3167 1.353 . S
C3169 O3168 1.286 . S
C3169 C3171 1.363 . S
C3170 C3160 1.465 . S
C3170 U3166 2.847 . S
C3170 O3184 1.249 . S
C3170 O3185 1.202 . S
C3171 C3169 1.363 . S
C3171 C3173 1.408 . S
C3171 C3176 1.342 . S
C3172 C3173 1.310 . S
C3172 C3175 1.461 . S
C3172 H3192 0.932 . S
C3173 C3171 1.408 . S
C3173 C3172 1.310 . S
C3173 H3193 0.930 . S
C3174 C3175 1.474 . S
C3174 C3176 1.285 . S
C3174 H3194 0.929 . S
C3175 C3172 1.461 . S
C3175 C3174 1.474 . S
C3176 C3171 1.342 . S
C3176 C3174 1.285 . S
C3176 H3195 0.930 . S
C3177 C3180 1.424 . S
C3177 C3182 1.245 . S
C3177 C3183 1.428 . S
C3178 C3181 1.260 . S
C3178 C3182 1.477 . S
C3178 H3196 0.932 . S
C3179 C3180 1.384 . S
C3179 C3181 1.479 . S
C3179 H3197 0.929 . S
C3180 C3177 1.424 . S
C3180 C3179 1.384 . S
C3180 H3198 0.928 . S
C3181 C3178 1.260 . S
C3181 C3179 1.479 . S
C3182 C3177 1.245 . S
C3182 C3178 1.477 . S
C3182 H3199 0.932 . S
C3183 U3166 2.882 . S
C3183 C3177 1.428 . S
C3183 O3186 1.301 . S
C3183 O3187 1.282 . S
O3184 U3166 2.441 . S
O3184 C3170 1.249 . S
O3185 U3166 2.420 . S
O3185 C3170 1.202 . S
O3186 U3166 2.455 . S
O3186 C3183 1.301 . S
O3187 U3166 2.449 . S
O3187 C3183 1.282 . S
H3188 C3161 0.931 . S
H3189 C3163 0.929 . S
H3190 C3164 0.930 . S
H3191 C3165 0.931 . S
H3192 C3172 0.932 . S
H3193 C3173 0.930 . S
H3194 C3174 0.929 . S
H3195 C3176 0.930 . S
H3196 C3178 0.932 . S
H3197 C3179 0.929 . S
H3198 C3180 0.928 . S
H3199 C3182 0.932 . S
C3200 C3201 1.264 . S
C3200 C3205 1.479 . S
C3200 C3210 1.465 . S
C3201 C3200 1.264 . S
C3201 C3203 1.339 . S
C3201 H3228 0.931 . S
C3202 C3203 1.395 . S
C3202 C3204 1.320 . S
C3203 C3201 1.339 . S
C3203 C3202 1.395 . S
C3203 H3229 0.929 . S
C3204 C3202 1.320 . S
C3204 C3205 1.405 . S
C3204 H3230 0.930 . S
C3205 C3200 1.479 . S
C3205 C3204 1.405 . S
C3205 H3231 0.931 . S
U3206 O3207 2.454 . S
U3206 O3208 2.458 . S
U3206 C3209 2.984 . S
U3206 C3210 2.847 . S
U3206 C3223 2.882 . S
U3206 O3224 2.441 . S
U3206 O3225 2.420 . S
U3206 O3226 2.455 . S
U3206 O3227 2.449 . S
O3207 U3206 2.454 . S
O3207 C3209 1.353 . S
O3208 U3206 2.458 . S
O3208 C3209 1.286 . S
C3209 U3206 2.984 . S
C3209 O3207 1.353 . S
C3209 O3208 1.286 . S
C3209 C3211 1.363 . S
C3210 C3200 1.465 . S
C3210 U3206 2.847 . S
C3210 O3224 1.249 . S
C3210 O3225 1.202 . S
C3211 C3209 1.363 . S
C3211 C3213 1.408 . S
C3211 C3216 1.342 . S
C3212 C3213 1.310 . S
C3212 C3215 1.461 . S
C3212 H3232 0.932 . S
C3213 C3211 1.408 . S
C3213 C3212 1.310 . S
C3213 H3233 0.930 . S
C3214 C3215 1.474 . S
C3214 C3216 1.285 . S
C3214 H3234 0.929 . S
C3215 C3212 1.461 . S
C3215 C3214 1.474 . S
C3216 C3211 1.342 . S
C3216 C3214 1.285 . S
C3216 H3235 0.930 . S
C3217 C3220 1.424 . S
C3217 C3222 1.245 . S
C3217 C3223 1.428 . S
C3218 C3221 1.260 . S
C3218 C3222 1.477 . S
C3218 H3236 0.932 . S
C3219 C3220 1.384 . S
C3219 C3221 1.479 . S
C3219 H3237 0.929 . S
C3220 C3217 1.424 . S
C3220 C3219 1.384 . S
C3220 H3238 0.928 . S
C3221 C3218 1.260 . S
C3221 C3219 1.479 . S
C3222 C3217 1.245 . S
C3222 C3218 1.477 . S
C3222 H3239 0.932 . S
C3223 U3206 2.882 . S
C3223 C3217 1.428 . S
C3223 O3226 1.301 . S
C3223 O3227 1.282 . S
O3224 U3206 2.441 . S
O3224 C3210 1.249 . S
O3225 U3206 2.420 . S
O3225 C3210 1.202 . S
O3226 U3206 2.455 . S
O3226 C3223 1.301 . S
O3227 U3206 2.449 . S
O3227 C3223 1.282 . S
H3228 C3201 0.931 . S
H3229 C3203 0.929 . S
H3230 C3204 0.930 . S
H3231 C3205 0.931 . S
H3232 C3212 0.932 . S
H3233 C3213 0.930 . S
H3234 C3214 0.929 . S
H3235 C3216 0.930 . S
H3236 C3218 0.932 . S
H3237 C3219 0.929 . S
H3238 C3220 0.928 . S
H3239 C3222 0.932 . S
C3240 C3241 1.264 . S
C3240 C3245 1.479 . S
C3240 C3250 1.465 . S
C3241 C3240 1.264 . S
C3241 C3243 1.339 . S
C3241 H3268 0.931 . S
C3242 C3243 1.395 . S
C3242 C3244 1.320 . S
C3243 C3241 1.339 . S
C3243 C3242 1.395 . S
C3243 H3269 0.929 . S
C3244 C3242 1.320 . S
C3244 C3245 1.405 . S
C3244 H3270 0.930 . S
C3245 C3240 1.479 . S
C3245 C3244 1.405 . S
C3245 H3271 0.931 . S
U3246 O3247 2.454 . S
U3246 O3248 2.458 . S
U3246 C3249 2.984 . S
U3246 C3250 2.847 . S
U3246 C3263 2.882 . S
U3246 O3264 2.441 . S
U3246 O3265 2.420 . S
U3246 O3266 2.455 . S
U3246 O3267 2.449 . S
O3247 U3246 2.454 . S
O3247 C3249 1.353 . S
O3248 U3246 2.458 . S
O3248 C3249 1.286 . S
C3249 U3246 2.984 . S
C3249 O3247 1.353 . S
C3249 O3248 1.286 . S
C3249 C3251 1.363 . S
C3250 C3240 1.465 . S
C3250 U3246 2.847 . S
C3250 O3264 1.249 . S
C3250 O3265 1.202 . S
C3251 C3249 1.363 . S
C3251 C3253 1.408 . S
C3251 C3256 1.342 . S
C3252 C3253 1.310 . S
C3252 C3255 1.461 . S
C3252 H3272 0.932 . S
C3253 C3251 1.408 . S
C3253 C3252 1.310 . S
C3253 H3273 0.930 . S
C3254 C3255 1.474 . S
C3254 C3256 1.285 . S
C3254 H3274 0.929 . S
C3255 C3252 1.461 . S
C3255 C3254 1.474 . S
C3256 C3251 1.342 . S
C3256 C3254 1.285 . S
C3256 H3275 0.930 . S
C3257 C3260 1.424 . S
C3257 C3262 1.245 . S
C3257 C3263 1.428 . S
C3258 C3261 1.260 . S
C3258 C3262 1.477 . S
C3258 H3276 0.932 . S
C3259 C3260 1.384 . S
C3259 C3261 1.479 . S
C3259 H3277 0.929 . S
C3260 C3257 1.424 . S
C3260 C3259 1.384 . S
C3260 H3278 0.928 . S
C3261 C3258 1.260 . S
C3261 C3259 1.479 . S
C3262 C3257 1.245 . S
C3262 C3258 1.477 . S
C3262 H3279 0.932 . S
C3263 U3246 2.882 . S
C3263 C3257 1.428 . S
C3263 O3266 1.301 . S
C3263 O3267 1.282 . S
O3264 U3246 2.441 . S
O3264 C3250 1.249 . S
O3265 U3246 2.420 . S
O3265 C3250 1.202 . S
O3266 U3246 2.455 . S
O3266 C3263 1.301 . S
O3267 U3246 2.449 . S
O3267 C3263 1.282 . S
H3268 C3241 0.931 . S
H3269 C3243 0.929 . S
H3270 C3244 0.930 . S
H3271 C3245 0.931 . S
H3272 C3252 0.932 . S
H3273 C3253 0.930 . S
H3274 C3254 0.929 . S
H3275 C3256 0.930 . S
H3276 C3258 0.932 . S
H3277 C3259 0.929 . S
H3278 C3260 0.928 . S
H3279 C3262 0.932 . S
C3280 C3281 1.264 . S
C3280 C3285 1.479 . S
C3280 C3290 1.465 . S
C3281 C3280 1.264 . S
C3281 C3283 1.339 . S
C3281 H3308 0.931 . S
C3282 C3283 1.395 . S
C3282 C3284 1.320 . S
C3283 C3281 1.339 . S
C3283 C3282 1.395 . S
C3283 H3309 0.929 . S
C3284 C3282 1.320 . S
C3284 C3285 1.405 . S
C3284 H3310 0.930 . S
C3285 C3280 1.479 . S
C3285 C3284 1.405 . S
C3285 H3311 0.931 . S
U3286 O3287 2.454 . S
U3286 O3288 2.458 . S
U3286 C3289 2.984 . S
U3286 C3290 2.847 . S
U3286 C3303 2.882 . S
U3286 O3304 2.441 . S
U3286 O3305 2.420 . S
U3286 O3306 2.455 . S
U3286 O3307 2.449 . S
O3287 U3286 2.454 . S
O3287 C3289 1.353 . S
O3288 U3286 2.458 . S
O3288 C3289 1.286 . S
C3289 U3286 2.984 . S
C3289 O3287 1.353 . S
C3289 O3288 1.286 . S
C3289 C3291 1.363 . S
C3290 C3280 1.465 . S
C3290 U3286 2.847 . S
C3290 O3304 1.249 . S
C3290 O3305 1.202 . S
C3291 C3289 1.363 . S
C3291 C3293 1.408 . S
C3291 C3296 1.342 . S
C3292 C3293 1.310 . S
C3292 C3295 1.461 . S
C3292 H3312 0.932 . S
C3293 C3291 1.408 . S
C3293 C3292 1.310 . S
C3293 H3313 0.930 . S
C3294 C3295 1.474 . S
C3294 C3296 1.285 . S
C3294 H3314 0.929 . S
C3295 C3292 1.461 . S
C3295 C3294 1.474 . S
C3296 C3291 1.342 . S
C3296 C3294 1.285 . S
C3296 H3315 0.930 . S
C3297 C3300 1.424 . S
C3297 C3302 1.245 . S
C3297 C3303 1.428 . S
C3298 C3301 1.260 . S
C3298 C3302 1.477 . S
C3298 H3316 0.932 . S
C3299 C3300 1.384 . S
C3299 C3301 1.479 . S
C3299 H3317 0.929 . S
C3300 C3297 1.424 . S
C3300 C3299 1.384 . S
C3300 H3318 0.928 . S
C3301 C3298 1.260 . S
C3301 C3299 1.479 . S
C3302 C3297 1.245 . S
C3302 C3298 1.477 . S
C3302 H3319 0.932 . S
C3303 U3286 2.882 . S
C3303 C3297 1.428 . S
C3303 O3306 1.301 . S
C3303 O3307 1.282 . S
O3304 U3286 2.441 . S
O3304 C3290 1.249 . S
O3305 U3286 2.420 . S
O3305 C3290 1.202 . S
O3306 U3286 2.455 . S
O3306 C3303 1.301 . S
O3307 U3286 2.449 . S
O3307 C3303 1.282 . S
H3308 C3281 0.931 . S
H3309 C3283 0.929 . S
H3310 C3284 0.930 . S
H3311 C3285 0.931 . S
H3312 C3292 0.932 . S
H3313 C3293 0.930 . S
H3314 C3294 0.929 . S
H3315 C3296 0.930 . S
H3316 C3298 0.932 . S
H3317 C3299 0.929 . S
H3318 C3300 0.928 . S
H3319 C3302 0.932 . S
C3320 C3321 1.264 . S
C3320 C3325 1.479 . S
C3320 C3330 1.465 . S
C3321 C3320 1.264 . S
C3321 C3323 1.339 . S
C3321 H3348 0.931 . S
C3322 C3323 1.395 . S
C3322 C3324 1.320 . S
C3323 C3321 1.339 . S
C3323 C3322 1.395 . S
C3323 H3349 0.929 . S
C3324 C3322 1.320 . S
C3324 C3325 1.405 . S
C3324 H3350 0.930 . S
C3325 C3320 1.479 . S
C3325 C3324 1.405 . S
C3325 H3351 0.931 . S
U3326 O3327 2.454 . S
U3326 O3328 2.458 . S
U3326 C3329 2.984 . S
U3326 C3330 2.847 . S
U3326 C3343 2.882 . S
U3326 O3344 2.441 . S
U3326 O3345 2.420 . S
U3326 O3346 2.455 . S
U3326 O3347 2.449 . S
O3327 U3326 2.454 . S
O3327 C3329 1.353 . S
O3328 U3326 2.458 . S
O3328 C3329 1.286 . S
C3329 U3326 2.984 . S
C3329 O3327 1.353 . S
C3329 O3328 1.286 . S
C3329 C3331 1.363 . S
C3330 C3320 1.465 . S
C3330 U3326 2.847 . S
C3330 O3344 1.249 . S
C3330 O3345 1.202 . S
C3331 C3329 1.363 . S
C3331 C3333 1.408 . S
C3331 C3336 1.342 . S
C3332 C3333 1.310 . S
C3332 C3335 1.461 . S
C3332 H3352 0.932 . S
C3333 C3331 1.408 . S
C3333 C3332 1.310 . S
C3333 H3353 0.930 . S
C3334 C3335 1.474 . S
C3334 C3336 1.285 . S
C3334 H3354 0.929 . S
C3335 C3332 1.461 . S
C3335 C3334 1.474 . S
C3336 C3331 1.342 . S
C3336 C3334 1.285 . S
C3336 H3355 0.930 . S
C3337 C3340 1.424 . S
C3337 C3342 1.245 . S
C3337 C3343 1.428 . S
C3338 C3341 1.260 . S
C3338 C3342 1.477 . S
C3338 H3356 0.932 . S
C3339 C3340 1.384 . S
C3339 C3341 1.479 . S
C3339 H3357 0.929 . S
C3340 C3337 1.424 . S
C3340 C3339 1.384 . S
C3340 H3358 0.928 . S
C3341 C3338 1.260 . S
C3341 C3339 1.479 . S
C3342 C3337 1.245 . S
C3342 C3338 1.477 . S
C3342 H3359 0.932 . S
C3343 U3326 2.882 . S
C3343 C3337 1.428 . S
C3343 O3346 1.301 . S
C3343 O3347 1.282 . S
O3344 U3326 2.441 . S
O3344 C3330 1.249 . S
O3345 U3326 2.420 . S
O3345 C3330 1.202 . S
O3346 U3326 2.455 . S
O3346 C3343 1.301 . S
O3347 U3326 2.449 . S
O3347 C3343 1.282 . S
H3348 C3321 0.931 . S
H3349 C3323 0.929 . S
H3350 C3324 0.930 . S
H3351 C3325 0.931 . S
H3352 C3332 0.932 . S
H3353 C3333 0.930 . S
H3354 C3334 0.929 . S
H3355 C3336 0.930 . S
H3356 C3338 0.932 . S
H3357 C3339 0.929 . S
H3358 C3340 0.928 . S
H3359 C3342 0.932 . S
C3360 C3361 1.264 . S
C3360 C3365 1.479 . S
C3360 C3370 1.465 . S
C3361 C3360 1.264 . S
C3361 C3363 1.339 . S
C3361 H3388 0.931 . S
C3362 C3363 1.395 . S
C3362 C3364 1.320 . S
C3363 C3361 1.339 . S
C3363 C3362 1.395 . S
C3363 H3389 0.929 . S
C3364 C3362 1.320 . S
C3364 C3365 1.405 . S
C3364 H3390 0.930 . S
C3365 C3360 1.479 . S
C3365 C3364 1.405 . S
C3365 H3391 0.931 . S
U3366 O3367 2.454 . S
U3366 O3368 2.458 . S
U3366 C3369 2.984 . S
U3366 C3370 2.847 . S
U3366 C3383 2.882 . S
U3366 O3384 2.441 . S
U3366 O3385 2.420 . S
U3366 O3386 2.455 . S
U3366 O3387 2.449 . S
O3367 U3366 2.454 . S
O3367 C3369 1.353 . S
O3368 U3366 2.458 . S
O3368 C3369 1.286 . S
C3369 U3366 2.984 . S
C3369 O3367 1.353 . S
C3369 O3368 1.286 . S
C3369 C3371 1.363 . S
C3370 C3360 1.465 . S
C3370 U3366 2.847 . S
C3370 O3384 1.249 . S
C3370 O3385 1.202 . S
C3371 C3369 1.363 . S
C3371 C3373 1.408 . S
C3371 C3376 1.342 . S
C3372 C3373 1.310 . S
C3372 C3375 1.461 . S
C3372 H3392 0.932 . S
C3373 C3371 1.408 . S
C3373 C3372 1.310 . S
C3373 H3393 0.930 . S
C3374 C3375 1.474 . S
C3374 C3376 1.285 . S
C3374 H3394 0.929 . S
C3375 C3372 1.461 . S
C3375 C3374 1.474 . S
C3376 C3371 1.342 . S
C3376 C3374 1.285 . S
C3376 H3395 0.930 . S
C3377 C3380 1.424 . S
C3377 C3382 1.245 . S
C3377 C3383 1.428 . S
C3378 C3381 1.260 . S
C3378 C3382 1.477 . S
C3378 H3396 0.932 . S
C3379 C3380 1.384 . S
C3379 C3381 1.479 . S
C3379 H3397 0.929 . S
C3380 C3377 1.424 . S
C3380 C3379 1.384 . S
C3380 H3398 0.928 . S
C3381 C3378 1.260 . S
C3381 C3379 1.479 . S
C3382 C3377 1.245 . S
C3382 C3378 1.477 . S
C3382 H3399 0.932 . S
C3383 U3366 2.882 . S
C3383 C3377 1.428 . S
C3383 O3386 1.301 . S
C3383 O3387 1.282 . S
O3384 U3366 2.441 . S
O3384 C3370 1.249 . S
O3385 U3366 2.420 . S
O3385 C3370 1.202 . S
O3386 U3366 2.455 . S
O3386 C3383 1.301 . S
O3387 U3366 2.449 . S
O3387 C3383 1.282 . S
H3388 C3361 0.931 . S
H3389 C3363 0.929 . S
H3390 C3364 0.930 . S
H3391 C3365 0.931 . S
H3392 C3372 0.932 . S
H3393 C3373 0.930 . S
H3394 C3374 0.929 . S
H3395 C3376 0.930 . S
H3396 C3378 0.932 . S
H3397 C3379 0.929 . S
H3398 C3380 0.928 . S
H3399 C3382 0.932 . S
C3400 C3401 1.264 . S
C3400 C3405 1.479 . S
C3400 C3410 1.465 . S
C3401 C3400 1.264 . S
C3401 C3403 1.339 . S
C3401 H3428 0.931 . S
C3402 C3403 1.395 . S
C3402 C3404 1.320 . S
C3403 C3401 1.339 . S
C3403 C3402 1.395 . S
C3403 H3429 0.929 . S
C3404 C3402 1.320 . S
C3404 C3405 1.405 . S
C3404 H3430 0.930 . S
C3405 C3400 1.479 . S
C3405 C3404 1.405 . S
C3405 H3431 0.931 . S
U3406 O3407 2.454 . S
U3406 O3408 2.458 . S
U3406 C3409 2.984 . S
U3406 C3410 2.847 . S
U3406 C3423 2.882 . S
U3406 O3424 2.441 . S
U3406 O3425 2.420 . S
U3406 O3426 2.455 . S
U3406 O3427 2.449 . S
O3407 U3406 2.454 . S
O3407 C3409 1.353 . S
O3408 U3406 2.458 . S
O3408 C3409 1.286 . S
C3409 U3406 2.984 . S
C3409 O3407 1.353 . S
C3409 O3408 1.286 . S
C3409 C3411 1.363 . S
C3410 C3400 1.465 . S
C3410 U3406 2.847 . S
C3410 O3424 1.249 . S
C3410 O3425 1.202 . S
C3411 C3409 1.363 . S
C3411 C3413 1.408 . S
C3411 C3416 1.342 . S
C3412 C3413 1.310 . S
C3412 C3415 1.461 . S
C3412 H3432 0.932 . S
C3413 C3411 1.408 . S
C3413 C3412 1.310 . S
C3413 H3433 0.930 . S
C3414 C3415 1.474 . S
C3414 C3416 1.285 . S
C3414 H3434 0.929 . S
C3415 C3412 1.461 . S
C3415 C3414 1.474 . S
C3416 C3411 1.342 . S
C3416 C3414 1.285 . S
C3416 H3435 0.930 . S
C3417 C3420 1.424 . S
C3417 C3422 1.245 . S
C3417 C3423 1.428 . S
C3418 C3421 1.260 . S
C3418 C3422 1.477 . S
C3418 H3436 0.932 . S
C3419 C3420 1.384 . S
C3419 C3421 1.479 . S
C3419 H3437 0.929 . S
C3420 C3417 1.424 . S
C3420 C3419 1.384 . S
C3420 H3438 0.928 . S
C3421 C3418 1.260 . S
C3421 C3419 1.479 . S
C3422 C3417 1.245 . S
C3422 C3418 1.477 . S
C3422 H3439 0.932 . S
C3423 U3406 2.882 . S
C3423 C3417 1.428 . S
C3423 O3426 1.301 . S
C3423 O3427 1.282 . S
O3424 U3406 2.441 . S
O3424 C3410 1.249 . S
O3425 U3406 2.420 . S
O3425 C3410 1.202 . S
O3426 U3406 2.455 . S
O3426 C3423 1.301 . S
O3427 U3406 2.449 . S
O3427 C3423 1.282 . S
H3428 C3401 0.931 . S
H3429 C3403 0.929 . S
H3430 C3404 0.930 . S
H3431 C3405 0.931 . S
H3432 C3412 0.932 . S
H3433 C3413 0.930 . S
H3434 C3414 0.929 . S
H3435 C3416 0.930 . S
H3436 C3418 0.932 . S
H3437 C3419 0.929 . S
H3438 C3420 0.928 . S
H3439 C3422 0.932 . S
C3440 C3441 1.264 . S
C3440 C3445 1.479 . S
C3440 C3450 1.465 . S
C3441 C3440 1.264 . S
C3441 C3443 1.339 . S
C3441 H3468 0.931 . S
C3442 C3443 1.395 . S
C3442 C3444 1.320 . S
C3443 C3441 1.339 . S
C3443 C3442 1.395 . S
C3443 H3469 0.929 . S
C3444 C3442 1.320 . S
C3444 C3445 1.405 . S
C3444 H3470 0.930 . S
C3445 C3440 1.479 . S
C3445 C3444 1.405 . S
C3445 H3471 0.931 . S
U3446 O3447 2.454 . S
U3446 O3448 2.458 . S
U3446 C3449 2.984 . S
U3446 C3450 2.847 . S
U3446 C3463 2.882 . S
U3446 O3464 2.441 . S
U3446 O3465 2.420 . S
U3446 O3466 2.455 . S
U3446 O3467 2.449 . S
O3447 U3446 2.454 . S
O3447 C3449 1.353 . S
O3448 U3446 2.458 . S
O3448 C3449 1.286 . S
C3449 U3446 2.984 . S
C3449 O3447 1.353 . S
C3449 O3448 1.286 . S
C3449 C3451 1.363 . S
C3450 C3440 1.465 . S
C3450 U3446 2.847 . S
C3450 O3464 1.249 . S
C3450 O3465 1.202 . S
C3451 C3449 1.363 . S
C3451 C3453 1.408 . S
C3451 C3456 1.342 . S
C3452 C3453 1.310 . S
C3452 C3455 1.461 . S
C3452 H3472 0.932 . S
C3453 C3451 1.408 . S
C3453 C3452 1.310 . S
C3453 H3473 0.930 . S
C3454 C3455 1.474 . S
C3454 C3456 1.285 . S
C3454 H3474 0.929 . S
C3455 C3452 1.461 . S
C3455 C3454 1.474 . S
C3456 C3451 1.342 . S
C3456 C3454 1.285 . S
C3456 H3475 0.930 . S
C3457 C3460 1.424 . S
C3457 C3462 1.245 . S
C3457 C3463 1.428 . S
C3458 C3461 1.260 . S
C3458 C3462 1.477 . S
C3458 H3476 0.932 . S
C3459 C3460 1.384 . S
C3459 C3461 1.479 . S
C3459 H3477 0.929 . S
C3460 C3457 1.424 . S
C3460 C3459 1.384 . S
C3460 H3478 0.928 . S
C3461 C3458 1.260 . S
C3461 C3459 1.479 . S
C3462 C3457 1.245 . S
C3462 C3458 1.477 . S
C3462 H3479 0.932 . S
C3463 U3446 2.882 . S
C3463 C3457 1.428 . S
C3463 O3466 1.301 . S
C3463 O3467 1.282 . S
O3464 U3446 2.441 . S
O3464 C3450 1.249 . S
O3465 U3446 2.420 . S
O3465 C3450 1.202 . S
O3466 U3446 2.455 . S
O3466 C3463 1.301 . S
O3467 U3446 2.449 . S
O3467 C3463 1.282 . S
H3468 C3441 0.931 . S
H3469 C3443 0.929 . S
H3470 C3444 0.930 . S
H3471 C3445 0.931 . S
H3472 C3452 0.932 . S
H3473 C3453 0.930 . S
H3474 C3454 0.929 . S
H3475 C3456 0.930 . S
H3476 C3458 0.932 . S
H3477 C3459 0.929 . S
H3478 C3460 0.928 . S
H3479 C3462 0.932 . S
C3480 C3481 1.264 . S
C3480 C3485 1.479 . S
C3480 C3490 1.465 . S
C3481 C3480 1.264 . S
C3481 C3483 1.339 . S
C3481 H3508 0.931 . S
C3482 C3483 1.395 . S
C3482 C3484 1.320 . S
C3483 C3481 1.339 . S
C3483 C3482 1.395 . S
C3483 H3509 0.929 . S
C3484 C3482 1.320 . S
C3484 C3485 1.405 . S
C3484 H3510 0.930 . S
C3485 C3480 1.479 . S
C3485 C3484 1.405 . S
C3485 H3511 0.931 . S
U3486 O3487 2.454 . S
U3486 O3488 2.458 . S
U3486 C3489 2.984 . S
U3486 C3490 2.847 . S
U3486 C3503 2.882 . S
U3486 O3504 2.441 . S
U3486 O3505 2.420 . S
U3486 O3506 2.455 . S
U3486 O3507 2.449 . S
O3487 U3486 2.454 . S
O3487 C3489 1.353 . S
O3488 U3486 2.458 . S
O3488 C3489 1.286 . S
C3489 U3486 2.984 . S
C3489 O3487 1.353 . S
C3489 O3488 1.286 . S
C3489 C3491 1.363 . S
C3490 C3480 1.465 . S
C3490 U3486 2.847 . S
C3490 O3504 1.249 . S
C3490 O3505 1.202 . S
C3491 C3489 1.363 . S
C3491 C3493 1.408 . S
C3491 C3496 1.342 . S
C3492 C3493 1.310 . S
C3492 C3495 1.461 . S
C3492 H3512 0.932 . S
C3493 C3491 1.408 . S
C3493 C3492 1.310 . S
C3493 H3513 0.930 . S
C3494 C3495 1.474 . S
C3494 C3496 1.285 . S
C3494 H3514 0.929 . S
C3495 C3492 1.461 . S
C3495 C3494 1.474 . S
C3496 C3491 1.342 . S
C3496 C3494 1.285 . S
C3496 H3515 0.930 . S
C3497 C3500 1.424 . S
C3497 C3502 1.245 . S
C3497 C3503 1.428 . S
C3498 C3501 1.260 . S
C3498 C3502 1.477 . S
C3498 H3516 0.932 . S
C3499 C3500 1.384 . S
C3499 C3501 1.479 . S
C3499 H3517 0.929 . S
C3500 C3497 1.424 . S
C3500 C3499 1.384 . S
C3500 H3518 0.928 . S
C3501 C3498 1.260 . S
C3501 C3499 1.479 . S
C3502 C3497 1.245 . S
C3502 C3498 1.477 . S
C3502 H3519 0.932 . S
C3503 U3486 2.882 . S
C3503 C3497 1.428 . S
C3503 O3506 1.301 . S
C3503 O3507 1.282 . S
O3504 U3486 2.441 . S
O3504 C3490 1.249 . S
O3505 U3486 2.420 . S
O3505 C3490 1.202 . S
O3506 U3486 2.455 . S
O3506 C3503 1.301 . S
O3507 U3486 2.449 . S
O3507 C3503 1.282 . S
H3508 C3481 0.931 . S
H3509 C3483 0.929 . S
H3510 C3484 0.930 . S
H3511 C3485 0.931 . S
H3512 C3492 0.932 . S
H3513 C3493 0.930 . S
H3514 C3494 0.929 . S
H3515 C3496 0.930 . S
H3516 C3498 0.932 . S
H3517 C3499 0.929 . S
H3518 C3500 0.928 . S
H3519 C3502 0.932 . S
C3520 C3521 1.264 . S
C3520 C3525 1.479 . S
C3520 C3530 1.465 . S
C3521 C3520 1.264 . S
C3521 C3523 1.339 . S
C3521 H3548 0.931 . S
C3522 C3523 1.395 . S
C3522 C3524 1.320 . S
C3523 C3521 1.339 . S
C3523 C3522 1.395 . S
C3523 H3549 0.929 . S
C3524 C3522 1.320 . S
C3524 C3525 1.405 . S
C3524 H3550 0.930 . S
C3525 C3520 1.479 . S
C3525 C3524 1.405 . S
C3525 H3551 0.931 . S
U3526 O3527 2.454 . S
U3526 O3528 2.458 . S
U3526 C3529 2.984 . S
U3526 C3530 2.847 . S
U3526 C3543 2.882 . S
U3526 O3544 2.441 . S
U3526 O3545 2.420 . S
U3526 O3546 2.455 . S
U3526 O3547 2.449 . S
O3527 U3526 2.454 . S
O3527 C3529 1.353 . S
O3528 U3526 2.458 . S
O3528 C3529 1.286 . S
C3529 U3526 2.984 . S
C3529 O3527 1.353 . S
C3529 O3528 1.286 . S
C3529 C3531 1.363 . S
C3530 C3520 1.465 . S
C3530 U3526 2.847 . S
C3530 O3544 1.249 . S
C3530 O3545 1.202 . S
C3531 C3529 1.363 . S
C3531 C3533 1.408 . S
C3531 C3536 1.342 . S
C3532 C3533 1.310 . S
C3532 C3535 1.461 . S
C3532 H3552 0.932 . S
C3533 C3531 1.408 . S
C3533 C3532 1.310 . S
C3533 H3553 0.930 . S
C3534 C3535 1.474 . S
C3534 C3536 1.285 . S
C3534 H3554 0.929 . S
C3535 C3532 1.461 . S
C3535 C3534 1.474 . S
C3536 C3531 1.342 . S
C3536 C3534 1.285 . S
C3536 H3555 0.930 . S
C3537 C3540 1.424 . S
C3537 C3542 1.245 . S
C3537 C3543 1.428 . S
C3538 C3541 1.260 . S
C3538 C3542 1.477 . S
C3538 H3556 0.932 . S
C3539 C3540 1.384 . S
C3539 C3541 1.479 . S
C3539 H3557 0.929 . S
C3540 C3537 1.424 . S
C3540 C3539 1.384 . S
C3540 H3558 0.928 . S
C3541 C3538 1.260 . S
C3541 C3539 1.479 . S
C3542 C3537 1.245 . S
C3542 C3538 1.477 . S
C3542 H3559 0.932 . S
C3543 U3526 2.882 . S
C3543 C3537 1.428 . S
C3543 O3546 1.301 . S
C3543 O3547 1.282 . S
O3544 U3526 2.441 . S
O3544 C3530 1.249 . S
O3545 U3526 2.420 . S
O3545 C3530 1.202 . S
O3546 U3526 2.455 . S
O3546 C3543 1.301 . S
O3547 U3526 2.449 . S
O3547 C3543 1.282 . S
H3548 C3521 0.931 . S
H3549 C3523 0.929 . S
H3550 C3524 0.930 . S
H3551 C3525 0.931 . S
H3552 C3532 0.932 . S
H3553 C3533 0.930 . S
H3554 C3534 0.929 . S
H3555 C3536 0.930 . S
H3556 C3538 0.932 . S
H3557 C3539 0.929 . S
H3558 C3540 0.928 . S
H3559 C3542 0.932 . S
C3560 C3561 1.264 . S
C3560 C3565 1.479 . S
C3560 C3570 1.465 . S
C3561 C3560 1.264 . S
C3561 C3563 1.339 . S
C3561 H3588 0.931 . S
C3562 C3563 1.395 . S
C3562 C3564 1.320 . S
C3563 C3561 1.339 . S
C3563 C3562 1.395 . S
C3563 H3589 0.929 . S
C3564 C3562 1.320 . S
C3564 C3565 1.405 . S
C3564 H3590 0.930 . S
C3565 C3560 1.479 . S
C3565 C3564 1.405 . S
C3565 H3591 0.931 . S
U3566 O3567 2.454 . S
U3566 O3568 2.458 . S
U3566 C3569 2.984 . S
U3566 C3570 2.847 . S
U3566 C3583 2.882 . S
U3566 O3584 2.441 . S
U3566 O3585 2.420 . S
U3566 O3586 2.455 . S
U3566 O3587 2.449 . S
O3567 U3566 2.454 . S
O3567 C3569 1.353 . S
O3568 U3566 2.458 . S
O3568 C3569 1.286 . S
C3569 U3566 2.984 . S
C3569 O3567 1.353 . S
C3569 O3568 1.286 . S
C3569 C3571 1.363 . S
C3570 C3560 1.465 . S
C3570 U3566 2.847 . S
C3570 O3584 1.249 . S
C3570 O3585 1.202 . S
C3571 C3569 1.363 . S
C3571 C3573 1.408 . S
C3571 C3576 1.342 . S
C3572 C3573 1.310 . S
C3572 C3575 1.461 . S
C3572 H3592 0.932 . S
C3573 C3571 1.408 . S
C3573 C3572 1.310 . S
C3573 H3593 0.930 . S
C3574 C3575 1.474 . S
C3574 C3576 1.285 . S
C3574 H3594 0.929 . S
C3575 C3572 1.461 . S
C3575 C3574 1.474 . S
C3576 C3571 1.342 . S
C3576 C3574 1.285 . S
C3576 H3595 0.930 . S
C3577 C3580 1.424 . S
C3577 C3582 1.245 . S
C3577 C3583 1.428 . S
C3578 C3581 1.260 . S
C3578 C3582 1.477 . S
C3578 H3596 0.932 . S
C3579 C3580 1.384 . S
C3579 C3581 1.479 . S
C3579 H3597 0.929 . S
C3580 C3577 1.424 . S
C3580 C3579 1.384 . S
C3580 H3598 0.928 . S
C3581 C3578 1.260 . S
C3581 C3579 1.479 . S
C3582 C3577 1.245 . S
C3582 C3578 1.477 . S
C3582 H3599 0.932 . S
C3583 U3566 2.882 . S
C3583 C3577 1.428 . S
C3583 O3586 1.301 . S
C3583 O3587 1.282 . S
O3584 U3566 2.441 . S
O3584 C3570 1.249 . S
O3585 U3566 2.420 . S
O3585 C3570 1.202 . S
O3586 U3566 2.455 . S
O3586 C3583 1.301 . S
O3587 U3566 2.449 . S
O3587 C3583 1.282 . S
H3588 C3561 0.931 . S
H3589 C3563 0.929 . S
H3590 C3564 0.930 . S
H3591 C3565 0.931 . S
H3592 C3572 0.932 . S
H3593 C3573 0.930 . S
H3594 C3574 0.929 . S
H3595 C3576 0.930 . S
H3596 C3578 0.932 . S
H3597 C3579 0.929 . S
H3598 C3580 0.928 . S
H3599 C3582 0.932 . S
C3600 C3601 1.264 . S
C3600 C3605 1.479 . S
C3600 C3610 1.465 . S
C3601 C3600 1.264 . S
C3601 C3603 1.339 . S
C3601 H3628 0.931 . S
C3602 C3603 1.395 . S
C3602 C3604 1.320 . S
C3603 C3601 1.339 . S
C3603 C3602 1.395 . S
C3603 H3629 0.929 . S
C3604 C3602 1.320 . S
C3604 C3605 1.405 . S
C3604 H3630 0.930 . S
C3605 C3600 1.479 . S
C3605 C3604 1.405 . S
C3605 H3631 0.931 . S
U3606 O3607 2.454 . S
U3606 O3608 2.458 . S
U3606 C3609 2.984 . S
U3606 C3610 2.847 . S
U3606 C3623 2.882 . S
U3606 O3624 2.441 . S
U3606 O3625 2.420 . S
U3606 O3626 2.455 . S
U3606 O3627 2.449 . S
O3607 U3606 2.454 . S
O3607 C3609 1.353 . S
O3608 U3606 2.458 . S
O3608 C3609 1.286 . S
C3609 U3606 2.984 . S
C3609 O3607 1.353 . S
C3609 O3608 1.286 . S
C3609 C3611 1.363 . S
C3610 C3600 1.465 . S
C3610 U3606 2.847 . S
C3610 O3624 1.249 . S
C3610 O3625 1.202 . S
C3611 C3609 1.363 . S
C3611 C3613 1.408 . S
C3611 C3616 1.342 . S
C3612 C3613 1.310 . S
C3612 C3615 1.461 . S
C3612 H3632 0.932 . S
C3613 C3611 1.408 . S
C3613 C3612 1.310 . S
C3613 H3633 0.930 . S
C3614 C3615 1.474 . S
C3614 C3616 1.285 . S
C3614 H3634 0.929 . S
C3615 C3612 1.461 . S
C3615 C3614 1.474 . S
C3616 C3611 1.342 . S
C3616 C3614 1.285 . S
C3616 H3635 0.930 . S
C3617 C3620 1.424 . S
C3617 C3622 1.245 . S
C3617 C3623 1.428 . S
C3618 C3621 1.260 . S
C3618 C3622 1.477 . S
C3618 H3636 0.932 . S
C3619 C3620 1.384 . S
C3619 C3621 1.479 . S
C3619 H3637 0.929 . S
C3620 C3617 1.424 . S
C3620 C3619 1.384 . S
C3620 H3638 0.928 . S
C3621 C3618 1.260 . S
C3621 C3619 1.479 . S
C3622 C3617 1.245 . S
C3622 C3618 1.477 . S
C3622 H3639 0.932 . S
C3623 U3606 2.882 . S
C3623 C3617 1.428 . S
C3623 O3626 1.301 . S
C3623 O3627 1.282 . S
O3624 U3606 2.441 . S
O3624 C3610 1.249 . S
O3625 U3606 2.420 . S
O3625 C3610 1.202 . S
O3626 U3606 2.455 . S
O3626 C3623 1.301 . S
O3627 U3606 2.449 . S
O3627 C3623 1.282 . S
H3628 C3601 0.931 . S
H3629 C3603 0.929 . S
H3630 C3604 0.930 . S
H3631 C3605 0.931 . S
H3632 C3612 0.932 . S
H3633 C3613 0.930 . S
H3634 C3614 0.929 . S
H3635 C3616 0.930 . S
H3636 C3618 0.932 . S
H3637 C3619 0.929 . S
H3638 C3620 0.928 . S
H3639 C3622 0.932 . S
C3640 C3641 1.264 . S
C3640 C3645 1.479 . S
C3640 C3650 1.465 . S
C3641 C3640 1.264 . S
C3641 C3643 1.339 . S
C3641 H3668 0.931 . S
C3642 C3643 1.395 . S
C3642 C3644 1.320 . S
C3643 C3641 1.339 . S
C3643 C3642 1.395 . S
C3643 H3669 0.929 . S
C3644 C3642 1.320 . S
C3644 C3645 1.405 . S
C3644 H3670 0.930 . S
C3645 C3640 1.479 . S
C3645 C3644 1.405 . S
C3645 H3671 0.931 . S
U3646 O3647 2.454 . S
U3646 O3648 2.458 . S
U3646 C3649 2.984 . S
U3646 C3650 2.847 . S
U3646 C3663 2.882 . S
U3646 O3664 2.441 . S
U3646 O3665 2.420 . S
U3646 O3666 2.455 . S
U3646 O3667 2.449 . S
O3647 U3646 2.454 . S
O3647 C3649 1.353 . S
O3648 U3646 2.458 . S
O3648 C3649 1.286 . S
C3649 U3646 2.984 . S
C3649 O3647 1.353 . S
C3649 O3648 1.286 . S
C3649 C3651 1.363 . S
C3650 C3640 1.465 . S
C3650 U3646 2.847 . S
C3650 O3664 1.249 . S
C3650 O3665 1.202 . S
C3651 C3649 1.363 . S
C3651 C3653 1.408 . S
C3651 C3656 1.342 . S
C3652 C3653 1.310 . S
C3652 C3655 1.461 . S
C3652 H3672 0.932 . S
C3653 C3651 1.408 . S
C3653 C3652 1.310 . S
C3653 H3673 0.930 . S
C3654 C3655 1.474 . S
C3654 C3656 1.285 . S
C3654 H3674 0.929 . S
C3655 C3652 1.461 . S
C3655 C3654 1.474 . S
C3656 C3651 1.342 . S
C3656 C3654 1.285 . S
C3656 H3675 0.930 . S
C3657 C3660 1.424 . S
C3657 C3662 1.245 . S
C3657 C3663 1.428 . S
C3658 C3661 1.260 . S
C3658 C3662 1.477 . S
C3658 H3676 0.932 . S
C3659 C3660 1.384 . S
C3659 C3661 1.479 . S
C3659 H3677 0.929 . S
C3660 C3657 1.424 . S
C3660 C3659 1.384 . S
C3660 H3678 0.928 . S
C3661 C3658 1.260 . S
C3661 C3659 1.479 . S
C3662 C3657 1.245 . S
C3662 C3658 1.477 . S
C3662 H3679 0.932 . S
C3663 U3646 2.882 . S
C3663 C3657 1.428 . S
C3663 O3666 1.301 . S
C3663 O3667 1.282 . S
O3664 U3646 2.441 . S
O3664 C3650 1.249 . S
O3665 U3646 2.420 . S
O3665 C3650 1.202 . S
O3666 U3646 2.455 . S
O3666 C3663 1.301 . S
O3667 U3646 2.449 . S
O3667 C3663 1.282 . S
H3668 C3641 0.931 . S
H3669 C3643 0.929 . S
H3670 C3644 0.930 . S
H3671 C3645 0.931 . S
H3672 C3652 0.932 . S
H3673 C3653 0.930 . S
H3674 C3654 0.929 . S
H3675 C3656 0.930 . S
H3676 C3658 0.932 . S
H3677 C3659 0.929 . S
H3678 C3660 0.928 . S
H3679 C3662 0.932 . S
C3680 C3681 1.264 . S
C3680 C3685 1.479 . S
C3680 C3690 1.465 . S
C3681 C3680 1.264 . S
C3681 C3683 1.339 . S
C3681 H3708 0.931 . S
C3682 C3683 1.395 . S
C3682 C3684 1.320 . S
C3683 C3681 1.339 . S
C3683 C3682 1.395 . S
C3683 H3709 0.929 . S
C3684 C3682 1.320 . S
C3684 C3685 1.405 . S
C3684 H3710 0.930 . S
C3685 C3680 1.479 . S
C3685 C3684 1.405 . S
C3685 H3711 0.931 . S
U3686 O3687 2.454 . S
U3686 O3688 2.458 . S
U3686 C3689 2.984 . S
U3686 C3690 2.847 . S
U3686 C3703 2.882 . S
U3686 O3704 2.441 . S
U3686 O3705 2.420 . S
U3686 O3706 2.455 . S
U3686 O3707 2.449 . S
O3687 U3686 2.454 . S
O3687 C3689 1.353 . S
O3688 U3686 2.458 . S
O3688 C3689 1.286 . S
C3689 U3686 2.984 . S
C3689 O3687 1.353 . S
C3689 O3688 1.286 . S
C3689 C3691 1.363 . S
C3690 C3680 1.465 . S
C3690 U3686 2.847 . S
C3690 O3704 1.249 . S
C3690 O3705 1.202 . S
C3691 C3689 1.363 . S
C3691 C3693 1.408 . S
C3691 C3696 1.342 . S
C3692 C3693 1.310 . S
C3692 C3695 1.461 . S
C3692 H3712 0.932 . S
C3693 C3691 1.408 . S
C3693 C3692 1.310 . S
C3693 H3713 0.930 . S
C3694 C3695 1.474 . S
C3694 C3696 1.285 . S
C3694 H3714 0.929 . S
C3695 C3692 1.461 . S
C3695 C3694 1.474 . S
C3696 C3691 1.342 . S
C3696 C3694 1.285 . S
C3696 H3715 0.930 . S
C3697 C3700 1.424 . S
C3697 C3702 1.245 . S
C3697 C3703 1.428 . S
C3698 C3701 1.260 . S
C3698 C3702 1.477 . S
C3698 H3716 0.932 . S
C3699 C3700 1.384 . S
C3699 C3701 1.479 . S
C3699 H3717 0.929 . S
C3700 C3697 1.424 . S
C3700 C3699 1.384 . S
C3700 H3718 0.928 . S
C3701 C3698 1.260 . S
C3701 C3699 1.479 . S
C3702 C3697 1.245 . S
C3702 C3698 1.477 . S
C3702 H3719 0.932 . S
C3703 U3686 2.882 . S
C3703 C3697 1.428 . S
C3703 O3706 1.301 . S
C3703 O3707 1.282 . S
O3704 U3686 2.441 . S
O3704 C3690 1.249 . S
O3705 U3686 2.420 . S
O3705 C3690 1.202 . S
O3706 U3686 2.455 . S
O3706 C3703 1.301 . S
O3707 U3686 2.449 . S
O3707 C3703 1.282 . S
H3708 C3681 0.931 . S
H3709 C3683 0.929 . S
H3710 C3684 0.930 . S
H3711 C3685 0.931 . S
H3712 C3692 0.932 . S
H3713 C3693 0.930 . S
H3714 C3694 0.929 . S
H3715 C3696 0.930 . S
H3716 C3698 0.932 . S
H3717 C3699 0.929 . S
H3718 C3700 0.928 . S
H3719 C3702 0.932 . S
C3720 C3721 1.264 . S
C3720 C3725 1.479 . S
C3720 C3730 1.465 . S
C3721 C3720 1.264 . S
C3721 C3723 1.339 . S
C3721 H3748 0.931 . S
C3722 C3723 1.395 . S
C3722 C3724 1.320 . S
C3723 C3721 1.339 . S
C3723 C3722 1.395 . S
C3723 H3749 0.929 . S
C3724 C3722 1.320 . S
C3724 C3725 1.405 . S
C3724 H3750 0.930 . S
C3725 C3720 1.479 . S
C3725 C3724 1.405 . S
C3725 H3751 0.931 . S
U3726 O3727 2.454 . S
U3726 O3728 2.458 . S
U3726 C3729 2.984 . S
U3726 C3730 2.847 . S
U3726 C3743 2.882 . S
U3726 O3744 2.441 . S
U3726 O3745 2.420 . S
U3726 O3746 2.455 . S
U3726 O3747 2.449 . S
O3727 U3726 2.454 . S
O3727 C3729 1.353 . S
O3728 U3726 2.458 . S
O3728 C3729 1.286 . S
C3729 U3726 2.984 . S
C3729 O3727 1.353 . S
C3729 O3728 1.286 . S
C3729 C3731 1.363 . S
C3730 C3720 1.465 . S
C3730 U3726 2.847 . S
C3730 O3744 1.249 . S
C3730 O3745 1.202 . S
C3731 C3729 1.363 . S
C3731 C3733 1.408 . S
C3731 C3736 1.342 . S
C3732 C3733 1.310 . S
C3732 C3735 1.461 . S
C3732 H3752 0.932 . S
C3733 C3731 1.408 . S
C3733 C3732 1.310 . S
C3733 H3753 0.930 . S
C3734 C3735 1.474 . S
C3734 C3736 1.285 . S
C3734 H3754 0.929 . S
C3735 C3732 1.461 . S
C3735 C3734 1.474 . S
C3736 C3731 1.342 . S
C3736 C3734 1.285 . S
C3736 H3755 0.930 . S
C3737 C3740 1.424 . S
C3737 C3742 1.245 . S
C3737 C3743 1.428 . S
C3738 C3741 1.260 . S
C3738 C3742 1.477 . S
C3738 H3756 0.932 . S
C3739 C3740 1.384 . S
C3739 C3741 1.479 . S
C3739 H3757 0.929 . S
C3740 C3737 1.424 . S
C3740 C3739 1.384 . S
C3740 H3758 0.928 . S
C3741 C3738 1.260 . S
C3741 C3739 1.479 . S
C3742 C3737 1.245 . S
C3742 C3738 1.477 . S
C3742 H3759 0.932 . S
C3743 U3726 2.882 . S
C3743 C3737 1.428 . S
C3743 O3746 1.301 . S
C3743 O3747 1.282 . S
O3744 U3726 2.441 . S
O3744 C3730 1.249 . S
O3745 U3726 2.420 . S
O3745 C3730 1.202 . S
O3746 U3726 2.455 . S
O3746 C3743 1.301 . S
O3747 U3726 2.449 . S
O3747 C3743 1.282 . S
H3748 C3721 0.931 . S
H3749 C3723 0.929 . S
H3750 C3724 0.930 . S
H3751 C3725 0.931 . S
H3752 C3732 0.932 . S
H3753 C3733 0.930 . S
H3754 C3734 0.929 . S
H3755 C3736 0.930 . S
H3756 C3738 0.932 . S
H3757 C3739 0.929 . S
H3758 C3740 0.928 . S
H3759 C3742 0.932 . S
C3760 C3761 1.264 . S
C3760 C3765 1.479 . S
C3760 C3770 1.465 . S
C3761 C3760 1.264 . S
C3761 C3763 1.339 . S
C3761 H3788 0.931 . S
C3762 C3763 1.395 . S
C3762 C3764 1.320 . S
C3763 C3761 1.339 . S
C3763 C3762 1.395 . S
C3763 H3789 0.929 . S
C3764 C3762 1.320 . S
C3764 C3765 1.405 . S
C3764 H3790 0.930 . S
C3765 C3760 1.479 . S
C3765 C3764 1.405 . S
C3765 H3791 0.931 . S
U3766 O3767 2.454 . S
U3766 O3768 2.458 . S
U3766 C3769 2.984 . S
U3766 C3770 2.847 . S
U3766 C3783 2.882 . S
U3766 O3784 2.441 . S
U3766 O3785 2.420 . S
U3766 O3786 2.455 . S
U3766 O3787 2.449 . S
O3767 U3766 2.454 . S
O3767 C3769 1.353 . S
O3768 U3766 2.458 . S
O3768 C3769 1.286 . S
C3769 U3766 2.984 . S
C3769 O3767 1.353 . S
C3769 O3768 1.286 . S
C3769 C3771 1.363 . S
C3770 C3760 1.465 . S
C3770 U3766 2.847 . S
C3770 O3784 1.249 . S
C3770 O3785 1.202 . S
C3771 C3769 1.363 . S
C3771 C3773 1.408 . S
C3771 C3776 1.342 . S
C3772 C3773 1.310 . S
C3772 C3775 1.461 . S
C3772 H3792 0.932 . S
C3773 C3771 1.408 . S
C3773 C3772 1.310 . S
C3773 H3793 0.930 . S
C3774 C3775 1.474 . S
C3774 C3776 1.285 . S
C3774 H3794 0.929 . S
C3775 C3772 1.461 . S
C3775 C3774 1.474 . S
C3776 C3771 1.342 . S
C3776 C3774 1.285 . S
C3776 H3795 0.930 . S
C3777 C3780 1.424 . S
C3777 C3782 1.245 . S
C3777 C3783 1.428 . S
C3778 C3781 1.260 . S
C3778 C3782 1.477 . S
C3778 H3796 0.932 . S
C3779 C3780 1.384 . S
C3779 C3781 1.479 . S
C3779 H3797 0.929 . S
C3780 C3777 1.424 . S
C3780 C3779 1.384 . S
C3780 H3798 0.928 . S
C3781 C3778 1.260 . S
C3781 C3779 1.479 . S
C3782 C3777 1.245 . S
C3782 C3778 1.477 . S
C3782 H3799 0.932 . S
C3783 U3766 2.882 . S
C3783 C3777 1.428 . S
C3783 O3786 1.301 . S
C3783 O3787 1.282 . S
O3784 U3766 2.441 . S
O3784 C3770 1.249 . S
O3785 U3766 2.420 . S
O3785 C3770 1.202 . S
O3786 U3766 2.455 . S
O3786 C3783 1.301 . S
O3787 U3766 2.449 . S
O3787 C3783 1.282 . S
H3788 C3761 0.931 . S
H3789 C3763 0.929 . S
H3790 C3764 0.930 . S
H3791 C3765 0.931 . S
H3792 C3772 0.932 . S
H3793 C3773 0.930 . S
H3794 C3774 0.929 . S
H3795 C3776 0.930 . S
H3796 C3778 0.932 . S
H3797 C3779 0.929 . S
H3798 C3780 0.928 . S
H3799 C3782 0.932 . S
C3800 C3801 1.264 . S
C3800 C3805 1.479 . S
C3800 C3810 1.465 . S
C3801 C3800 1.264 . S
C3801 C3803 1.339 . S
C3801 H3828 0.931 . S
C3802 C3803 1.395 . S
C3802 C3804 1.320 . S
C3803 C3801 1.339 . S
C3803 C3802 1.395 . S
C3803 H3829 0.929 . S
C3804 C3802 1.320 . S
C3804 C3805 1.405 . S
C3804 H3830 0.930 . S
C3805 C3800 1.479 . S
C3805 C3804 1.405 . S
C3805 H3831 0.931 . S
U3806 O3807 2.454 . S
U3806 O3808 2.458 . S
U3806 C3809 2.984 . S
U3806 C3810 2.847 . S
U3806 C3823 2.882 . S
U3806 O3824 2.441 . S
U3806 O3825 2.420 . S
U3806 O3826 2.455 . S
U3806 O3827 2.449 . S
O3807 U3806 2.454 . S
O3807 C3809 1.353 . S
O3808 U3806 2.458 . S
O3808 C3809 1.286 . S
C3809 U3806 2.984 . S
C3809 O3807 1.353 . S
C3809 O3808 1.286 . S
C3809 C3811 1.363 . S
C3810 C3800 1.465 . S
C3810 U3806 2.847 . S
C3810 O3824 1.249 . S
C3810 O3825 1.202 . S
C3811 C3809 1.363 . S
C3811 C3813 1.408 . S
C3811 C3816 1.342 . S
C3812 C3813 1.310 . S
C3812 C3815 1.461 . S
C3812 H3832 0.932 . S
C3813 C3811 1.408 . S
C3813 C3812 1.310 . S
C3813 H3833 0.930 . S
C3814 C3815 1.474 . S
C3814 C3816 1.285 . S
C3814 H3834 0.929 . S
C3815 C3812 1.461 . S
C3815 C3814 1.474 . S
C3816 C3811 1.342 . S
C3816 C3814 1.285 . S
C3816 H3835 0.930 . S
C3817 C3820 1.424 . S
C3817 C3822 1.245 . S
C3817 C3823 1.428 . S
C3818 C3821 1.260 . S
C3818 C3822 1.477 . S
C3818 H3836 0.932 . S
C3819 C3820 1.384 . S
C3819 C3821 1.479 . S
C3819 H3837 0.929 . S
C3820 C3817 1.424 . S
C3820 C3819 1.384 . S
C3820 H3838 0.928 . S
C3821 C3818 1.260 . S
C3821 C3819 1.479 . S
C3822 C3817 1.245 . S
C3822 C3818 1.477 . S
C3822 H3839 0.932 . S
C3823 U3806 2.882 . S
C3823 C3817 1.428 . S
C3823 O3826 1.301 . S
C3823 O3827 1.282 . S
O3824 U3806 2.441 . S
O3824 C3810 1.249 . S
O3825 U3806 2.420 . S
O3825 C3810 1.202 . S
O3826 U3806 2.455 . S
O3826 C3823 1.301 . S
O3827 U3806 2.449 . S
O3827 C3823 1.282 . S
H3828 C3801 0.931 . S
H3829 C3803 0.929 . S
H3830 C3804 0.930 . S
H3831 C3805 0.931 . S
H3832 C3812 0.932 . S
H3833 C3813 0.930 . S
H3834 C3814 0.929 . S
H3835 C3816 0.930 . S
H3836 C3818 0.932 . S
H3837 C3819 0.929 . S
H3838 C3820 0.928 . S
H3839 C3822 0.932 . S
H3840 C3846 0.930 . S
H3841 C3850 0.930 . S
H3842 C3855 0.929 . S
H3843 C3853 0.929 . S
H3844 C3848 0.929 . S
H3845 C3854 0.929 . S
C3846 H3840 0.930 . S
C3846 C3847 1.367 . S
C3846 C3854 1.378 . S
C3847 C3846 1.367 . S
C3847 C3855 1.433 . S
C3848 H3844 0.929 . S
C3848 C3850 1.378 . S
C3848 C3852 1.350 . S
C3849 C3852 1.463 . S
C3849 C3854 1.350 . S
C3849 N3857 1.427 . S
C3850 H3841 0.930 . S
C3850 C3848 1.378 . S
C3850 C3851 1.367 . S
C3851 C3850 1.367 . S
C3851 C3853 1.433 . S
C3852 C3848 1.350 . S
C3852 C3849 1.463 . S
C3852 N3856 1.427 . S
C3853 H3843 0.929 . S
C3853 C3851 1.433 . S
C3853 N3856 1.384 . S
C3854 H3845 0.929 . S
C3854 C3846 1.378 . S
C3854 C3849 1.350 . S
C3855 H3842 0.929 . S
C3855 C3847 1.433 . S
C3855 N3857 1.384 . S
N3856 C3852 1.427 . S
N3856 C3853 1.384 . S
N3857 C3849 1.427 . S
N3857 C3855 1.384 . S
H3858 C3864 0.930 . S
H3859 C3868 0.930 . S
H3860 C3873 0.929 . S
H3861 C3871 0.929 . S
H3862 C3866 0.929 . S
H3863 C3872 0.929 . S
C3864 H3858 0.930 . S
C3864 C3865 1.367 . S
C3864 C3872 1.378 . S
C3865 C3864 1.367 . S
C3865 C3873 1.433 . S
C3866 H3862 0.929 . S
C3866 C3868 1.378 . S
C3866 C3870 1.350 . S
C3867 C3870 1.463 . S
C3867 C3872 1.350 . S
C3867 N3875 1.427 . S
C3868 H3859 0.930 . S
C3868 C3866 1.378 . S
C3868 C3869 1.367 . S
C3869 C3868 1.367 . S
C3869 C3871 1.433 . S
C3870 C3866 1.350 . S
C3870 C3867 1.463 . S
C3870 N3874 1.427 . S
C3871 H3861 0.929 . S
C3871 C3869 1.433 . S
C3871 N3874 1.384 . S
C3872 H3863 0.929 . S
C3872 C3864 1.378 . S
C3872 C3867 1.350 . S
C3873 H3860 0.929 . S
C3873 C3865 1.433 . S
C3873 N3875 1.384 . S
N3874 C3870 1.427 . S
N3874 C3871 1.384 . S
N3875 C3867 1.427 . S
N3875 C3873 1.384 . S
H3876 C3882 0.930 . S
H3877 C3886 0.930 . S
H3878 C3891 0.929 . S
H3879 C3889 0.929 . S
H3880 C3884 0.929 . S
H3881 C3890 0.929 . S
C3882 H3876 0.930 . S
C3882 C3883 1.367 . S
C3882 C3890 1.378 . S
C3883 C3882 1.367 . S
C3883 C3891 1.433 . S
C3884 H3880 0.929 . S
C3884 C3886 1.378 . S
C3884 C3888 1.350 . S
C3885 C3888 1.463 1_565 S
C3885 C3890 1.350 . S
C3885 N3893 1.427 . S
C3886 H3877 0.930 . S
C3886 C3884 1.378 . S
C3886 C3887 1.367 . S
C3887 C3886 1.367 . S
C3887 C3889 1.433 . S
C3888 C3884 1.350 . S
C3888 C3885 1.463 1_545 S
C3888 N3892 1.427 . S
C3889 H3879 0.929 . S
C3889 C3887 1.433 . S
C3889 N3892 1.384 . S
C3890 H3881 0.929 . S
C3890 C3882 1.378 . S
C3890 C3885 1.350 . S
C3891 H3878 0.929 . S
C3891 C3883 1.433 . S
C3891 N3893 1.384 . S
N3892 C3888 1.427 . S
N3892 C3889 1.384 . S
N3893 C3885 1.427 . S
N3893 C3891 1.384 . S
H3894 C3900 0.930 . S
H3895 C3904 0.930 . S
H3896 C3909 0.929 . S
H3897 C3907 0.929 . S
H3898 C3902 0.929 . S
H3899 C3908 0.929 . S
C3900 H3894 0.930 . S
C3900 C3901 1.367 . S
C3900 C3908 1.378 . S
C3901 C3900 1.367 . S
C3901 C3909 1.433 . S
C3902 H3898 0.929 . S
C3902 C3904 1.378 . S
C3902 C3906 1.350 . S
C3903 C3906 1.463 1_655 S
C3903 C3908 1.350 . S
C3903 N3911 1.427 . S
C3904 H3895 0.930 . S
C3904 C3902 1.378 . S
C3904 C3905 1.367 . S
C3905 C3904 1.367 . S
C3905 C3907 1.433 . S
C3906 C3902 1.350 . S
C3906 C3903 1.463 1_455 S
C3906 N3910 1.427 . S
C3907 H3897 0.929 . S
C3907 C3905 1.433 . S
C3907 N3910 1.384 . S
C3908 H3899 0.929 . S
C3908 C3900 1.378 . S
C3908 C3903 1.350 . S
C3909 H3896 0.929 . S
C3909 C3901 1.433 . S
C3909 N3911 1.384 . S
N3910 C3906 1.427 . S
N3910 C3907 1.384 . S
N3911 C3903 1.427 . S
N3911 C3909 1.384 . S
H3912 C3918 0.930 . S
H3913 C3922 0.930 . S
H3914 C3927 0.929 . S
H3915 C3925 0.929 . S
H3916 C3920 0.929 . S
H3917 C3926 0.929 . S
C3918 H3912 0.930 . S
C3918 C3919 1.367 . S
C3918 C3926 1.378 . S
C3919 C3918 1.367 . S
C3919 C3927 1.433 . S
C3920 H3916 0.929 . S
C3920 C3922 1.378 . S
C3920 C3924 1.350 . S
C3921 C3924 1.463 1_565 S
C3921 C3926 1.350 . S
C3921 N3929 1.427 . S
C3922 H3913 0.930 . S
C3922 C3920 1.378 . S
C3922 C3923 1.367 . S
C3923 C3922 1.367 . S
C3923 C3925 1.433 . S
C3924 C3920 1.350 . S
C3924 C3921 1.463 1_545 S
C3924 N3928 1.427 . S
C3925 H3915 0.929 . S
C3925 C3923 1.433 . S
C3925 N3928 1.384 . S
C3926 H3917 0.929 . S
C3926 C3918 1.378 . S
C3926 C3921 1.350 . S
C3927 H3914 0.929 . S
C3927 C3919 1.433 . S
C3927 N3929 1.384 . S
N3928 C3924 1.427 . S
N3928 C3925 1.384 . S
N3929 C3921 1.427 . S
N3929 C3927 1.384 . S
H3930 C3936 0.930 . S
H3931 C3940 0.930 . S
H3932 C3945 0.929 . S
H3933 C3943 0.929 . S
H3934 C3938 0.929 . S
H3935 C3944 0.929 1_655 S
C3936 H3930 0.930 . S
C3936 C3937 1.367 . S
C3936 C3944 1.378 . S
C3937 C3936 1.367 . S
C3937 C3945 1.433 . S
C3938 H3934 0.929 . S
C3938 C3940 1.378 . S
C3938 C3942 1.350 . S
C3939 C3942 1.463 1_455 S
C3939 C3944 1.350 . S
C3939 N3947 1.427 . S
C3940 H3931 0.930 . S
C3940 C3938 1.378 . S
C3940 C3941 1.367 . S
C3941 C3940 1.367 . S
C3941 C3943 1.433 . S
C3942 C3938 1.350 . S
C3942 C3939 1.463 1_655 S
C3942 N3946 1.427 . S
C3943 H3933 0.929 . S
C3943 C3941 1.433 . S
C3943 N3946 1.384 . S
C3944 H3935 0.929 1_455 S
C3944 C3936 1.378 . S
C3944 C3939 1.350 . S
C3945 H3932 0.929 . S
C3945 C3937 1.433 . S
C3945 N3947 1.384 . S
N3946 C3942 1.427 . S
N3946 C3943 1.384 . S
N3947 C3939 1.427 . S
N3947 C3945 1.384 . S
H3948 C3954 0.930 . S
H3949 C3958 0.930 . S
H3950 C3963 0.929 . S
H3951 C3961 0.929 . S
H3952 C3956 0.929 . S
H3953 C3962 0.929 . S
C3954 H3948 0.930 . S
C3954 C3955 1.367 . S
C3954 C3962 1.378 . S
C3955 C3954 1.367 . S
C3955 C3963 1.433 . S
C3956 H3952 0.929 . S
C3956 C3958 1.378 . S
C3956 C3960 1.350 . S
C3957 C3960 1.463 . S
C3957 C3962 1.350 . S
C3957 N3965 1.427 . S
C3958 H3949 0.930 . S
C3958 C3956 1.378 . S
C3958 C3959 1.367 . S
C3959 C3958 1.367 . S
C3959 C3961 1.433 . S
C3960 C3956 1.350 . S
C3960 C3957 1.463 . S
C3960 N3964 1.427 . S
C3961 H3951 0.929 . S
C3961 C3959 1.433 . S
C3961 N3964 1.384 . S
C3962 H3953 0.929 . S
C3962 C3954 1.378 . S
C3962 C3957 1.350 . S
C3963 H3950 0.929 . S
C3963 C3955 1.433 . S
C3963 N3965 1.384 . S
N3964 C3960 1.427 . S
N3964 C3961 1.384 . S
N3965 C3957 1.427 . S
N3965 C3963 1.384 . S
H3966 C3972 0.930 . S
H3967 C3976 0.930 . S
H3968 C3981 0.929 . S
H3969 C3979 0.929 . S
H3970 C3974 0.929 . S
H3971 C3980 0.929 . S
C3972 H3966 0.930 . S
C3972 C3973 1.367 . S
C3972 C3980 1.378 . S
C3973 C3972 1.367 . S
C3973 C3981 1.433 . S
C3974 H3970 0.929 . S
C3974 C3976 1.378 . S
C3974 C3978 1.350 . S
C3975 C3978 1.463 . S
C3975 C3980 1.350 . S
C3975 N3983 1.427 . S
C3976 H3967 0.930 . S
C3976 C3974 1.378 . S
C3976 C3977 1.367 . S
C3977 C3976 1.367 . S
C3977 C3979 1.433 . S
C3978 C3974 1.350 . S
C3978 C3975 1.463 . S
C3978 N3982 1.427 . S
C3979 H3969 0.929 . S
C3979 C3977 1.433 . S
C3979 N3982 1.384 . S
C3980 H3971 0.929 . S
C3980 C3972 1.378 . S
C3980 C3975 1.350 . S
C3981 H3968 0.929 . S
C3981 C3973 1.433 . S
C3981 N3983 1.384 . S
N3982 C3978 1.427 . S
N3982 C3979 1.384 . S
N3983 C3975 1.427 . S
N3983 C3981 1.384 . S
H3984 C3990 0.930 . S
H3985 C3994 0.930 . S
H3986 C3999 0.929 . S
H3987 C3997 0.929 . S
H3988 C3992 0.929 . S
H3989 C3998 0.929 . S
C3990 H3984 0.930 . S
C3990 C3991 1.367 . S
C3990 C3998 1.378 . S
C3991 C3990 1.367 . S
C3991 C3999 1.433 . S
C3992 H3988 0.929 . S
C3992 C3994 1.378 . S
C3992 C3996 1.350 . S
C3993 C3996 1.463 . S
C3993 C3998 1.350 . S
C3993 N4001 1.427 . S
C3994 H3985 0.930 . S
C3994 C3992 1.378 . S
C3994 C3995 1.367 . S
C3995 C3994 1.367 . S
C3995 C3997 1.433 . S
C3996 C3992 1.350 . S
C3996 C3993 1.463 . S
C3996 N4000 1.427 . S
C3997 H3987 0.929 . S
C3997 C3995 1.433 . S
C3997 N4000 1.384 . S
C3998 H3989 0.929 . S
C3998 C3990 1.378 . S
C3998 C3993 1.350 . S
C3999 H3986 0.929 . S
C3999 C3991 1.433 . S
C3999 N4001 1.384 . S
N4000 C3996 1.427 . S
N4000 C3997 1.384 . S
N4001 C3993 1.427 . S
N4001 C3999 1.384 . S
H4002 C4008 0.930 . S
H4003 C4012 0.930 . S
H4004 C4017 0.929 . S
H4005 C4015 0.929 . S
H4006 C4010 0.929 . S
H4007 C4016 0.929 . S
C4008 H4002 0.930 . S
C4008 C4009 1.367 . S
C4008 C4016 1.378 . S
C4009 C4008 1.367 . S
C4009 C4017 1.433 . S
C4010 H4006 0.929 . S
C4010 C4012 1.378 . S
C4010 C4014 1.350 . S
C4011 C4014 1.463 . S
C4011 C4016 1.350 . S
C4011 N4019 1.427 . S
C4012 H4003 0.930 . S
C4012 C4010 1.378 . S
C4012 C4013 1.367 . S
C4013 C4012 1.367 . S
C4013 C4015 1.433 . S
C4014 C4010 1.350 . S
C4014 C4011 1.463 . S
C4014 N4018 1.427 . S
C4015 H4005 0.929 . S
C4015 C4013 1.433 . S
C4015 N4018 1.384 . S
C4016 H4007 0.929 . S
C4016 C4008 1.378 . S
C4016 C4011 1.350 . S
C4017 H4004 0.929 . S
C4017 C4009 1.433 . S
C4017 N4019 1.384 . S
N4018 C4014 1.427 . S
N4018 C4015 1.384 . S
N4019 C4011 1.427 . S
N4019 C4017 1.384 . S
H4020 C4026 0.930 . S
H4021 C4030 0.930 . S
H4022 C4035 0.929 . S
H4023 C4033 0.929 . S
H4024 C4028 0.929 . S
H4025 C4034 0.929 . S
C4026 H4020 0.930 . S
C4026 C4027 1.367 . S
C4026 C4034 1.378 . S
C4027 C4026 1.367 . S
C4027 C4035 1.433 . S
C4028 H4024 0.929 . S
C4028 C4030 1.378 . S
C4028 C4032 1.350 . S
C4029 C4032 1.463 . S
C4029 C4034 1.350 . S
C4029 N4037 1.427 . S
C4030 H4021 0.930 . S
C4030 C4028 1.378 . S
C4030 C4031 1.367 . S
C4031 C4030 1.367 . S
C4031 C4033 1.433 . S
C4032 C4028 1.350 . S
C4032 C4029 1.463 . S
C4032 N4036 1.427 . S
C4033 H4023 0.929 . S
C4033 C4031 1.433 . S
C4033 N4036 1.384 . S
C4034 H4025 0.929 . S
C4034 C4026 1.378 . S
C4034 C4029 1.350 . S
C4035 H4022 0.929 . S
C4035 C4027 1.433 . S
C4035 N4037 1.384 . S
N4036 C4032 1.427 . S
N4036 C4033 1.384 . S
N4037 C4029 1.427 . S
N4037 C4035 1.384 . S
H4038 C4044 0.930 . S
H4039 C4048 0.930 . S
H4040 C4053 0.929 . S
H4041 C4051 0.929 . S
H4042 C4046 0.929 . S
H4043 C4052 0.929 . S
C4044 H4038 0.930 . S
C4044 C4045 1.367 . S
C4044 C4052 1.378 . S
C4045 C4044 1.367 . S
C4045 C4053 1.433 . S
C4046 H4042 0.929 . S
C4046 C4048 1.378 . S
C4046 C4050 1.350 . S
C4047 C4050 1.463 1_556 S
C4047 C4052 1.350 . S
C4047 N4055 1.427 . S
C4048 H4039 0.930 . S
C4048 C4046 1.378 . S
C4048 C4049 1.367 . S
C4049 C4048 1.367 . S
C4049 C4051 1.433 . S
C4050 C4046 1.350 . S
C4050 C4047 1.463 1_554 S
C4050 N4054 1.427 . S
C4051 H4041 0.929 . S
C4051 C4049 1.433 . S
C4051 N4054 1.384 . S
C4052 H4043 0.929 . S
C4052 C4044 1.378 . S
C4052 C4047 1.350 . S
C4053 H4040 0.929 . S
C4053 C4045 1.433 . S
C4053 N4055 1.384 . S
N4054 C4050 1.427 . S
N4054 C4051 1.384 . S
N4055 C4047 1.427 . S
N4055 C4053 1.384 . S
H4056 C4062 0.930 . S
H4057 C4066 0.930 . S
H4058 C4071 0.929 . S
H4059 C4069 0.929 . S
H4060 C4064 0.929 . S
H4061 C4070 0.929 . S
C4062 H4056 0.930 . S
C4062 C4063 1.367 . S
C4062 C4070 1.378 . S
C4063 C4062 1.367 . S
C4063 C4071 1.433 . S
C4064 H4060 0.929 . S
C4064 C4066 1.378 . S
C4064 C4068 1.350 . S
C4065 C4068 1.463 1_554 S
C4065 C4070 1.350 . S
C4065 N4073 1.427 . S
C4066 H4057 0.930 . S
C4066 C4064 1.378 . S
C4066 C4067 1.367 . S
C4067 C4066 1.367 . S
C4067 C4069 1.433 . S
C4068 C4064 1.350 . S
C4068 C4065 1.463 1_556 S
C4068 N4072 1.427 . S
C4069 H4059 0.929 . S
C4069 C4067 1.433 . S
C4069 N4072 1.384 . S
C4070 H4061 0.929 . S
C4070 C4062 1.378 . S
C4070 C4065 1.350 . S
C4071 H4058 0.929 . S
C4071 C4063 1.433 . S
C4071 N4073 1.384 . S
N4072 C4068 1.427 . S
N4072 C4069 1.384 . S
N4073 C4065 1.427 . S
N4073 C4071 1.384 . S
H4074 C4080 0.930 . S
H4075 C4084 0.930 . S
H4076 C4089 0.929 . S
H4077 C4087 0.929 . S
H4078 C4082 0.929 . S
H4079 C4088 0.929 . S
C4080 H4074 0.930 . S
C4080 C4081 1.367 . S
C4080 C4088 1.378 . S
C4081 C4080 1.367 . S
C4081 C4089 1.433 . S
C4082 H4078 0.929 . S
C4082 C4084 1.378 . S
C4082 C4086 1.350 . S
C4083 C4086 1.463 . S
C4083 C4088 1.350 . S
C4083 N4091 1.427 . S
C4084 H4075 0.930 . S
C4084 C4082 1.378 . S
C4084 C4085 1.367 . S
C4085 C4084 1.367 . S
C4085 C4087 1.433 . S
C4086 C4082 1.350 . S
C4086 C4083 1.463 . S
C4086 N4090 1.427 . S
C4087 H4077 0.929 . S
C4087 C4085 1.433 . S
C4087 N4090 1.384 . S
C4088 H4079 0.929 . S
C4088 C4080 1.378 . S
C4088 C4083 1.350 . S
C4089 H4076 0.929 . S
C4089 C4081 1.433 . S
C4089 N4091 1.384 . S
N4090 C4086 1.427 . S
N4090 C4087 1.384 . S
N4091 C4083 1.427 . S
N4091 C4089 1.384 . S
H4092 C4098 0.930 . S
H4093 C4102 0.930 . S
H4094 C4107 0.929 . S
H4095 C4105 0.929 . S
H4096 C4100 0.929 . S
H4097 C4106 0.929 . S
C4098 H4092 0.930 . S
C4098 C4099 1.367 . S
C4098 C4106 1.378 . S
C4099 C4098 1.367 . S
C4099 C4107 1.433 . S
C4100 H4096 0.929 . S
C4100 C4102 1.378 . S
C4100 C4104 1.350 . S
C4101 C4104 1.463 . S
C4101 C4106 1.350 . S
C4101 N4109 1.427 . S
C4102 H4093 0.930 . S
C4102 C4100 1.378 . S
C4102 C4103 1.367 . S
C4103 C4102 1.367 . S
C4103 C4105 1.433 . S
C4104 C4100 1.350 . S
C4104 C4101 1.463 . S
C4104 N4108 1.427 . S
C4105 H4095 0.929 . S
C4105 C4103 1.433 . S
C4105 N4108 1.384 . S
C4106 H4097 0.929 . S
C4106 C4098 1.378 . S
C4106 C4101 1.350 . S
C4107 H4094 0.929 . S
C4107 C4099 1.433 . S
C4107 N4109 1.384 . S
N4108 C4104 1.427 . S
N4108 C4105 1.384 . S
N4109 C4101 1.427 . S
N4109 C4107 1.384 . S
H4110 C4116 0.930 . S
H4111 C4120 0.930 . S
H4112 C4125 0.929 . S
H4113 C4123 0.929 . S
H4114 C4118 0.929 . S
H4115 C4124 0.929 . S
C4116 H4110 0.930 . S
C4116 C4117 1.367 . S
C4116 C4124 1.378 . S
C4117 C4116 1.367 . S
C4117 C4125 1.433 . S
C4118 H4114 0.929 . S
C4118 C4120 1.378 . S
C4118 C4122 1.350 . S
C4119 C4122 1.463 . S
C4119 C4124 1.350 . S
C4119 N4127 1.427 . S
C4120 H4111 0.930 . S
C4120 C4118 1.378 . S
C4120 C4121 1.367 . S
C4121 C4120 1.367 . S
C4121 C4123 1.433 . S
C4122 C4118 1.350 . S
C4122 C4119 1.463 . S
C4122 N4126 1.427 . S
C4123 H4113 0.929 . S
C4123 C4121 1.433 . S
C4123 N4126 1.384 . S
C4124 H4115 0.929 . S
C4124 C4116 1.378 . S
C4124 C4119 1.350 . S
C4125 H4112 0.929 . S
C4125 C4117 1.433 . S
C4125 N4127 1.384 . S
N4126 C4122 1.427 . S
N4126 C4123 1.384 . S
N4127 C4119 1.427 . S
N4127 C4125 1.384 . S
H4128 C4134 0.930 . S
H4129 C4138 0.930 . S
H4130 C4143 0.929 . S
H4131 C4141 0.929 . S
H4132 C4136 0.929 . S
H4133 C4142 0.929 . S
C4134 H4128 0.930 . S
C4134 C4135 1.367 . S
C4134 C4142 1.378 . S
C4135 C4134 1.367 . S
C4135 C4143 1.433 . S
C4136 H4132 0.929 . S
C4136 C4138 1.378 . S
C4136 C4140 1.350 . S
C4137 C4140 1.463 . S
C4137 C4142 1.350 . S
C4137 N4145 1.427 . S
C4138 H4129 0.930 . S
C4138 C4136 1.378 . S
C4138 C4139 1.367 . S
C4139 C4138 1.367 . S
C4139 C4141 1.433 . S
C4140 C4136 1.350 . S
C4140 C4137 1.463 . S
C4140 N4144 1.427 . S
C4141 H4131 0.929 . S
C4141 C4139 1.433 . S
C4141 N4144 1.384 . S
C4142 H4133 0.929 . S
C4142 C4134 1.378 . S
C4142 C4137 1.350 . S
C4143 H4130 0.929 . S
C4143 C4135 1.433 . S
C4143 N4145 1.384 . S
N4144 C4140 1.427 . S
N4144 C4141 1.384 . S
N4145 C4137 1.427 . S
N4145 C4143 1.384 . S
H4146 C4152 0.930 . S
H4147 C4156 0.930 . S
H4148 C4161 0.929 . S
H4149 C4159 0.929 . S
H4150 C4154 0.929 . S
H4151 C4160 0.929 . S
C4152 H4146 0.930 . S
C4152 C4153 1.367 . S
C4152 C4160 1.378 . S
C4153 C4152 1.367 . S
C4153 C4161 1.433 . S
C4154 H4150 0.929 . S
C4154 C4156 1.378 . S
C4154 C4158 1.350 . S
C4155 C4158 1.463 . S
C4155 C4160 1.350 . S
C4155 N4163 1.427 . S
C4156 H4147 0.930 . S
C4156 C4154 1.378 . S
C4156 C4157 1.367 . S
C4157 C4156 1.367 . S
C4157 C4159 1.433 . S
C4158 C4154 1.350 . S
C4158 C4155 1.463 . S
C4158 N4162 1.427 . S
C4159 H4149 0.929 . S
C4159 C4157 1.433 . S
C4159 N4162 1.384 . S
C4160 H4151 0.929 . S
C4160 C4152 1.378 . S
C4160 C4155 1.350 . S
C4161 H4148 0.929 . S
C4161 C4153 1.433 . S
C4161 N4163 1.384 . S
N4162 C4158 1.427 . S
N4162 C4159 1.384 . S
N4163 C4155 1.427 . S
N4163 C4161 1.384 . S
H4164 C4170 0.930 . S
H4165 C4174 0.930 . S
H4166 C4179 0.929 . S
H4167 C4177 0.929 . S
H4168 C4172 0.929 . S
H4169 C4178 0.929 . S
C4170 H4164 0.930 . S
C4170 C4171 1.367 . S
C4170 C4178 1.378 . S
C4171 C4170 1.367 . S
C4171 C4179 1.433 . S
C4172 H4168 0.929 . S
C4172 C4174 1.378 . S
C4172 C4176 1.350 . S
C4173 C4176 1.463 1_545 S
C4173 C4178 1.350 . S
C4173 N4181 1.427 . S
C4174 H4165 0.930 . S
C4174 C4172 1.378 . S
C4174 C4175 1.367 . S
C4175 C4174 1.367 . S
C4175 C4177 1.433 . S
C4176 C4172 1.350 . S
C4176 C4173 1.463 1_565 S
C4176 N4180 1.427 . S
C4177 H4167 0.929 . S
C4177 C4175 1.433 . S
C4177 N4180 1.384 . S
C4178 H4169 0.929 . S
C4178 C4170 1.378 . S
C4178 C4173 1.350 . S
C4179 H4166 0.929 . S
C4179 C4171 1.433 . S
C4179 N4181 1.384 . S
N4180 C4176 1.427 . S
N4180 C4177 1.384 . S
N4181 C4173 1.427 . S
N4181 C4179 1.384 . S
H4182 C4188 0.930 . S
H4183 C4192 0.930 . S
H4184 C4197 0.929 . S
H4185 C4195 0.929 . S
H4186 C4190 0.929 . S
H4187 C4196 0.929 . S
C4188 H4182 0.930 . S
C4188 C4189 1.367 . S
C4188 C4196 1.378 . S
C4189 C4188 1.367 . S
C4189 C4197 1.433 . S
C4190 H4186 0.929 . S
C4190 C4192 1.378 . S
C4190 C4194 1.350 . S
C4191 C4194 1.463 1_455 S
C4191 C4196 1.350 . S
C4191 N4199 1.427 . S
C4192 H4183 0.930 . S
C4192 C4190 1.378 . S
C4192 C4193 1.367 . S
C4193 C4192 1.367 . S
C4193 C4195 1.433 . S
C4194 C4190 1.350 . S
C4194 C4191 1.463 1_655 S
C4194 N4198 1.427 . S
C4195 H4185 0.929 . S
C4195 C4193 1.433 . S
C4195 N4198 1.384 . S
C4196 H4187 0.929 . S
C4196 C4188 1.378 . S
C4196 C4191 1.350 . S
C4197 H4184 0.929 . S
C4197 C4189 1.433 . S
C4197 N4199 1.384 . S
N4198 C4194 1.427 . S
N4198 C4195 1.384 . S
N4199 C4191 1.427 . S
N4199 C4197 1.384 . S
H4200 C4206 0.930 . S
H4201 C4210 0.930 . S
H4202 C4215 0.929 . S
H4203 C4213 0.929 . S
H4204 C4208 0.929 . S
H4205 C4214 0.929 . S
C4206 H4200 0.930 . S
C4206 C4207 1.367 . S
C4206 C4214 1.378 . S
C4207 C4206 1.367 . S
C4207 C4215 1.433 . S
C4208 H4204 0.929 . S
C4208 C4210 1.378 . S
C4208 C4212 1.350 . S
C4209 C4212 1.463 . S
C4209 C4214 1.350 . S
C4209 N4217 1.427 . S
C4210 H4201 0.930 . S
C4210 C4208 1.378 . S
C4210 C4211 1.367 . S
C4211 C4210 1.367 . S
C4211 C4213 1.433 . S
C4212 C4208 1.350 . S
C4212 C4209 1.463 . S
C4212 N4216 1.427 . S
C4213 H4203 0.929 . S
C4213 C4211 1.433 . S
C4213 N4216 1.384 . S
C4214 H4205 0.929 . S
C4214 C4206 1.378 . S
C4214 C4209 1.350 . S
C4215 H4202 0.929 . S
C4215 C4207 1.433 . S
C4215 N4217 1.384 . S
N4216 C4212 1.427 . S
N4216 C4213 1.384 . S
N4217 C4209 1.427 . S
N4217 C4215 1.384 . S
H4218 C4224 0.930 . S
H4219 C4228 0.930 . S
H4220 C4233 0.929 . S
H4221 C4231 0.929 . S
H4222 C4226 0.929 . S
H4223 C4232 0.929 . S
C4224 H4218 0.930 . S
C4224 C4225 1.367 . S
C4224 C4232 1.378 . S
C4225 C4224 1.367 . S
C4225 C4233 1.433 . S
C4226 H4222 0.929 . S
C4226 C4228 1.378 . S
C4226 C4230 1.350 . S
C4227 C4230 1.463 . S
C4227 C4232 1.350 . S
C4227 N4235 1.427 . S
C4228 H4219 0.930 . S
C4228 C4226 1.378 . S
C4228 C4229 1.367 . S
C4229 C4228 1.367 . S
C4229 C4231 1.433 . S
C4230 C4226 1.350 . S
C4230 C4227 1.463 . S
C4230 N4234 1.427 . S
C4231 H4221 0.929 . S
C4231 C4229 1.433 . S
C4231 N4234 1.384 . S
C4232 H4223 0.929 . S
C4232 C4224 1.378 . S
C4232 C4227 1.350 . S
C4233 H4220 0.929 . S
C4233 C4225 1.433 . S
C4233 N4235 1.384 . S
N4234 C4230 1.427 . S
N4234 C4231 1.384 . S
N4235 C4227 1.427 . S
N4235 C4233 1.384 . S
H4236 C4242 0.930 . S
H4237 C4246 0.930 . S
H4238 C4251 0.929 . S
H4239 C4249 0.929 . S
H4240 C4244 0.929 . S
H4241 C4250 0.929 . S
C4242 H4236 0.930 . S
C4242 C4243 1.367 . S
C4242 C4250 1.378 . S
C4243 C4242 1.367 . S
C4243 C4251 1.433 . S
C4244 H4240 0.929 . S
C4244 C4246 1.378 . S
C4244 C4248 1.350 . S
C4245 C4248 1.463 . S
C4245 C4250 1.350 . S
C4245 N4253 1.427 . S
C4246 H4237 0.930 . S
C4246 C4244 1.378 . S
C4246 C4247 1.367 . S
C4247 C4246 1.367 . S
C4247 C4249 1.433 . S
C4248 C4244 1.350 . S
C4248 C4245 1.463 . S
C4248 N4252 1.427 . S
C4249 H4239 0.929 . S
C4249 C4247 1.433 . S
C4249 N4252 1.384 . S
C4250 H4241 0.929 . S
C4250 C4242 1.378 . S
C4250 C4245 1.350 . S
C4251 H4238 0.929 . S
C4251 C4243 1.433 . S
C4251 N4253 1.384 . S
N4252 C4248 1.427 . S
N4252 C4249 1.384 . S
N4253 C4245 1.427 . S
N4253 C4251 1.384 . S
H4254 C4260 0.930 . S
H4255 C4264 0.930 . S
H4256 C4269 0.929 . S
H4257 C4267 0.929 . S
H4258 C4262 0.929 . S
H4259 C4268 0.929 . S
C4260 H4254 0.930 . S
C4260 C4261 1.367 . S
C4260 C4268 1.378 . S
C4261 C4260 1.367 . S
C4261 C4269 1.433 . S
C4262 H4258 0.929 . S
C4262 C4264 1.378 . S
C4262 C4266 1.350 . S
C4263 C4266 1.463 . S
C4263 C4268 1.350 . S
C4263 N4271 1.427 . S
C4264 H4255 0.930 . S
C4264 C4262 1.378 . S
C4264 C4265 1.367 . S
C4265 C4264 1.367 . S
C4265 C4267 1.433 . S
C4266 C4262 1.350 . S
C4266 C4263 1.463 . S
C4266 N4270 1.427 . S
C4267 H4257 0.929 . S
C4267 C4265 1.433 . S
C4267 N4270 1.384 . S
C4268 H4259 0.929 . S
C4268 C4260 1.378 . S
C4268 C4263 1.350 . S
C4269 H4256 0.929 . S
C4269 C4261 1.433 . S
C4269 N4271 1.384 . S
N4270 C4266 1.427 . S
N4270 C4267 1.384 . S
N4271 C4263 1.427 . S
N4271 C4269 1.384 . S
H4272 C4278 0.930 . S
H4273 C4282 0.930 . S
H4274 C4287 0.929 . S
H4275 C4285 0.929 . S
H4276 C4280 0.864 1_565 S
H4277 C4286 0.929 1_545 S
C4278 H4272 0.930 . S
C4278 C4279 1.367 . S
C4278 C4286 1.378 . S
C4279 C4278 1.367 . S
C4279 C4287 1.433 . S
C4280 H4276 0.864 1_545 S
C4280 C4282 1.378 . S
C4280 C4284 1.350 . S
C4281 C4284 1.463 1_565 S
C4281 C4286 1.350 . S
C4281 N4289 1.427 . S
C4282 H4273 0.930 . S
C4282 C4280 1.378 . S
C4282 C4283 1.367 . S
C4283 C4282 1.367 . S
C4283 C4285 1.433 . S
C4284 C4280 1.350 . S
C4284 C4281 1.463 1_545 S
C4284 N4288 1.427 . S
C4285 H4275 0.929 . S
C4285 C4283 1.433 . S
C4285 N4288 1.384 . S
C4286 H4277 0.929 1_565 S
C4286 C4278 1.378 . S
C4286 C4281 1.350 . S
C4287 H4274 0.929 . S
C4287 C4279 1.433 . S
C4287 N4289 1.384 . S
N4288 C4284 1.427 . S
N4288 C4285 1.384 . S
N4289 C4281 1.427 . S
N4289 C4287 1.384 . S
H4290 C4296 0.930 . S
H4291 C4300 0.930 . S
H4292 C4305 0.929 . S
H4293 C4303 0.929 . S
H4294 C4298 0.929 1_655 S
H4295 C4304 0.837 1_455 S
C4296 H4290 0.930 . S
C4296 C4297 1.367 . S
C4296 C4304 1.378 . S
C4297 C4296 1.367 . S
C4297 C4305 1.433 . S
C4298 H4294 0.929 1_455 S
C4298 C4300 1.378 . S
C4298 C4302 1.350 . S
C4299 C4302 1.463 1_655 S
C4299 C4304 1.350 . S
C4299 N4307 1.427 . S
C4300 H4291 0.930 . S
C4300 C4298 1.378 . S
C4300 C4301 1.367 . S
C4301 C4300 1.367 . S
C4301 C4303 1.433 . S
C4302 C4298 1.350 . S
C4302 C4299 1.463 1_455 S
C4302 N4306 1.427 . S
C4303 H4293 0.929 . S
C4303 C4301 1.433 . S
C4303 N4306 1.384 . S
C4304 H4295 0.837 1_655 S
C4304 C4296 1.378 . S
C4304 C4299 1.350 . S
C4305 H4292 0.929 . S
C4305 C4297 1.433 . S
C4305 N4307 1.384 . S
N4306 C4302 1.427 . S
N4306 C4303 1.384 . S
N4307 C4299 1.427 . S
N4307 C4305 1.384 . S
H4308 C4314 0.930 . S
H4309 C4318 0.930 . S
H4310 C4323 0.929 . S
H4311 C4321 0.929 . S
H4312 C4316 0.929 . S
H4313 C4322 0.929 . S
C4314 H4308 0.930 . S
C4314 C4315 1.367 . S
C4314 C4322 1.378 . S
C4315 C4314 1.367 . S
C4315 C4323 1.433 . S
C4316 H4312 0.929 . S
C4316 C4318 1.378 . S
C4316 C4320 1.350 . S
C4317 C4320 1.463 1_565 S
C4317 C4322 1.350 . S
C4317 N4325 1.427 . S
C4318 H4309 0.930 . S
C4318 C4316 1.378 . S
C4318 C4319 1.367 . S
C4319 C4318 1.367 . S
C4319 C4321 1.433 . S
C4320 C4316 1.350 . S
C4320 C4317 1.463 1_545 S
C4320 N4324 1.427 . S
C4321 H4311 0.929 . S
C4321 C4319 1.433 . S
C4321 N4324 1.384 . S
C4322 H4313 0.929 . S
C4322 C4314 1.378 . S
C4322 C4317 1.350 . S
C4323 H4310 0.929 . S
C4323 C4315 1.433 . S
C4323 N4325 1.384 . S
N4324 C4320 1.427 . S
N4324 C4321 1.384 . S
N4325 C4317 1.427 . S
N4325 C4323 1.384 . S
H4326 C4332 0.930 . S
H4327 C4336 0.930 . S
H4328 C4341 0.929 . S
H4329 C4339 0.929 . S
H4330 C4334 0.841 1_655 S
H4331 C4340 0.929 . S
C4332 H4326 0.930 . S
C4332 C4333 1.367 . S
C4332 C4340 1.378 . S
C4333 C4332 1.367 . S
C4333 C4341 1.433 . S
C4334 H4330 0.841 1_455 S
C4334 C4336 1.378 . S
C4334 C4338 1.350 . S
C4335 C4338 1.463 1_655 S
C4335 C4340 1.350 . S
C4335 N4343 1.427 . S
C4336 H4327 0.930 . S
C4336 C4334 1.378 . S
C4336 C4337 1.367 . S
C4337 C4336 1.367 . S
C4337 C4339 1.433 . S
C4338 C4334 1.350 . S
C4338 C4335 1.463 1_455 S
C4338 N4342 1.427 . S
C4339 H4329 0.929 . S
C4339 C4337 1.433 . S
C4339 N4342 1.384 . S
C4340 H4331 0.929 . S
C4340 C4332 1.378 . S
C4340 C4335 1.350 . S
C4341 H4328 0.929 . S
C4341 C4333 1.433 . S
C4341 N4343 1.384 . S
N4342 C4338 1.427 . S
N4342 C4339 1.384 . S
N4343 C4335 1.427 . S
N4343 C4341 1.384 . S
H4344 C4350 0.930 . S
H4345 C4354 0.930 . S
H4346 C4359 0.929 . S
H4347 C4357 0.929 . S
H4348 C4352 0.929 . S
H4349 C4358 0.929 . S
C4350 H4344 0.930 . S
C4350 C4351 1.367 . S
C4350 C4358 1.378 . S
C4351 C4350 1.367 . S
C4351 C4359 1.433 . S
C4352 H4348 0.929 . S
C4352 C4354 1.378 . S
C4352 C4356 1.350 . S
C4353 C4356 1.463 . S
C4353 C4358 1.350 . S
C4353 N4361 1.427 . S
C4354 H4345 0.930 . S
C4354 C4352 1.378 . S
C4354 C4355 1.367 . S
C4355 C4354 1.367 . S
C4355 C4357 1.433 . S
C4356 C4352 1.350 . S
C4356 C4353 1.463 . S
C4356 N4360 1.427 . S
C4357 H4347 0.929 . S
C4357 C4355 1.433 . S
C4357 N4360 1.384 . S
C4358 H4349 0.929 . S
C4358 C4350 1.378 . S
C4358 C4353 1.350 . S
C4359 H4346 0.929 . S
C4359 C4351 1.433 . S
C4359 N4361 1.384 . S
N4360 C4356 1.427 . S
N4360 C4357 1.384 . S
N4361 C4353 1.427 . S
N4361 C4359 1.384 . S
H4362 C4368 0.930 . S
H4363 C4372 0.930 . S
H4364 C4377 0.929 . S
H4365 C4375 0.929 . S
H4366 C4370 0.929 . S
H4367 C4376 0.929 . S
C4368 H4362 0.930 . S
C4368 C4369 1.367 . S
C4368 C4376 1.378 . S
C4369 C4368 1.367 . S
C4369 C4377 1.433 . S
C4370 H4366 0.929 . S
C4370 C4372 1.378 . S
C4370 C4374 1.350 . S
C4371 C4374 1.463 . S
C4371 C4376 1.350 . S
C4371 N4379 1.427 . S
C4372 H4363 0.930 . S
C4372 C4370 1.378 . S
C4372 C4373 1.367 . S
C4373 C4372 1.367 . S
C4373 C4375 1.433 . S
C4374 C4370 1.350 . S
C4374 C4371 1.463 . S
C4374 N4378 1.427 . S
C4375 H4365 0.929 . S
C4375 C4373 1.433 . S
C4375 N4378 1.384 . S
C4376 H4367 0.929 . S
C4376 C4368 1.378 . S
C4376 C4371 1.350 . S
C4377 H4364 0.929 . S
C4377 C4369 1.433 . S
C4377 N4379 1.384 . S
N4378 C4374 1.427 . S
N4378 C4375 1.384 . S
N4379 C4371 1.427 . S
N4379 C4377 1.384 . S
H4380 C4386 0.930 . S
H4381 C4390 0.930 . S
H4382 C4395 0.929 . S
H4383 C4393 0.929 . S
H4384 C4388 0.929 . S
H4385 C4394 0.929 . S
C4386 H4380 0.930 . S
C4386 C4387 1.367 . S
C4386 C4394 1.378 . S
C4387 C4386 1.367 . S
C4387 C4395 1.433 . S
C4388 H4384 0.929 . S
C4388 C4390 1.378 . S
C4388 C4392 1.350 . S
C4389 C4392 1.463 . S
C4389 C4394 1.350 . S
C4389 N4397 1.427 . S
C4390 H4381 0.930 . S
C4390 C4388 1.378 . S
C4390 C4391 1.367 . S
C4391 C4390 1.367 . S
C4391 C4393 1.433 . S
C4392 C4388 1.350 . S
C4392 C4389 1.463 . S
C4392 N4396 1.427 . S
C4393 H4383 0.929 . S
C4393 C4391 1.433 . S
C4393 N4396 1.384 . S
C4394 H4385 0.929 . S
C4394 C4386 1.378 . S
C4394 C4389 1.350 . S
C4395 H4382 0.929 . S
C4395 C4387 1.433 . S
C4395 N4397 1.384 . S
N4396 C4392 1.427 . S
N4396 C4393 1.384 . S
N4397 C4389 1.427 . S
N4397 C4395 1.384 . S
H4398 C4404 0.930 . S
H4399 C4408 0.930 . S
H4400 C4413 0.929 . S
H4401 C4411 0.929 . S
H4402 C4406 0.929 . S
H4403 C4412 0.929 . S
C4404 H4398 0.930 . S
C4404 C4405 1.367 . S
C4404 C4412 1.378 . S
C4405 C4404 1.367 . S
C4405 C4413 1.433 . S
C4406 H4402 0.929 . S
C4406 C4408 1.378 . S
C4406 C4410 1.350 . S
C4407 C4410 1.463 . S
C4407 C4412 1.350 . S
C4407 N4415 1.427 . S
C4408 H4399 0.930 . S
C4408 C4406 1.378 . S
C4408 C4409 1.367 . S
C4409 C4408 1.367 . S
C4409 C4411 1.433 . S
C4410 C4406 1.350 . S
C4410 C4407 1.463 . S
C4410 N4414 1.427 . S
C4411 H4401 0.929 . S
C4411 C4409 1.433 . S
C4411 N4414 1.384 . S
C4412 H4403 0.929 . S
C4412 C4404 1.378 . S
C4412 C4407 1.350 . S
C4413 H4400 0.929 . S
C4413 C4405 1.433 . S
C4413 N4415 1.384 . S
N4414 C4410 1.427 . S
N4414 C4411 1.384 . S
N4415 C4407 1.427 . S
N4415 C4413 1.384 . S
H4416 C4422 0.930 . S
H4417 C4426 0.930 . S
H4418 C4431 0.929 . S
H4419 C4429 0.929 . S
H4420 C4424 0.929 . S
H4421 C4430 0.929 . S
C4422 H4416 0.930 . S
C4422 C4423 1.367 . S
C4422 C4430 1.378 . S
C4423 C4422 1.367 . S
C4423 C4431 1.433 . S
C4424 H4420 0.929 . S
C4424 C4426 1.378 . S
C4424 C4428 1.350 . S
C4425 C4428 1.463 . S
C4425 C4430 1.350 . S
C4425 N4433 1.427 . S
C4426 H4417 0.930 . S
C4426 C4424 1.378 . S
C4426 C4427 1.367 . S
C4427 C4426 1.367 . S
C4427 C4429 1.433 . S
C4428 C4424 1.350 . S
C4428 C4425 1.463 . S
C4428 N4432 1.427 . S
C4429 H4419 0.929 . S
C4429 C4427 1.433 . S
C4429 N4432 1.384 . S
C4430 H4421 0.929 . S
C4430 C4422 1.378 . S
C4430 C4425 1.350 . S
C4431 H4418 0.929 . S
C4431 C4423 1.433 . S
C4431 N4433 1.384 . S
N4432 C4428 1.427 . S
N4432 C4429 1.384 . S
N4433 C4425 1.427 . S
N4433 C4431 1.384 . S
H4434 C4440 0.930 . S
H4435 C4444 0.930 . S
H4436 C4449 0.929 . S
H4437 C4447 0.929 . S
H4438 C4442 0.929 . S
H4439 C4448 0.929 . S
C4440 H4434 0.930 . S
C4440 C4441 1.367 . S
C4440 C4448 1.378 . S
C4441 C4440 1.367 . S
C4441 C4449 1.433 . S
C4442 H4438 0.929 . S
C4442 C4444 1.378 . S
C4442 C4446 1.350 . S
C4443 C4446 1.463 1_556 S
C4443 C4448 1.350 . S
C4443 N4451 1.427 . S
C4444 H4435 0.930 . S
C4444 C4442 1.378 . S
C4444 C4445 1.367 . S
C4445 C4444 1.367 . S
C4445 C4447 1.433 . S
C4446 C4442 1.350 . S
C4446 C4443 1.463 1_554 S
C4446 N4450 1.427 . S
C4447 H4437 0.929 . S
C4447 C4445 1.433 . S
C4447 N4450 1.384 . S
C4448 H4439 0.929 . S
C4448 C4440 1.378 . S
C4448 C4443 1.350 . S
C4449 H4436 0.929 . S
C4449 C4441 1.433 . S
C4449 N4451 1.384 . S
N4450 C4446 1.427 . S
N4450 C4447 1.384 . S
N4451 C4443 1.427 . S
N4451 C4449 1.384 . S
H4452 C4458 0.930 . S
H4453 C4462 0.930 . S
H4454 C4467 0.929 . S
H4455 C4465 0.929 . S
H4456 C4460 1.010 . S
H4457 C4466 0.929 1_554 S
C4458 H4452 0.930 . S
C4458 C4459 1.367 . S
C4458 C4466 1.378 . S
C4459 C4458 1.367 . S
C4459 C4467 1.433 . S
C4460 H4456 1.010 . S
C4460 C4462 1.378 . S
C4460 C4464 1.350 . S
C4461 C4464 1.463 1_556 S
C4461 C4466 1.350 . S
C4461 N4469 1.427 . S
C4462 H4453 0.930 . S
C4462 C4460 1.378 . S
C4462 C4463 1.367 . S
C4463 C4462 1.367 . S
C4463 C4465 1.433 . S
C4464 C4460 1.350 . S
C4464 C4461 1.463 1_554 S
C4464 N4468 1.427 . S
C4465 H4455 0.929 . S
C4465 C4463 1.433 . S
C4465 N4468 1.384 . S
C4466 H4457 0.929 1_556 S
C4466 C4458 1.378 . S
C4466 C4461 1.350 . S
C4467 H4454 0.929 . S
C4467 C4459 1.433 . S
C4467 N4469 1.384 . S
N4468 C4464 1.427 . S
N4468 C4465 1.384 . S
N4469 C4461 1.427 . S
N4469 C4467 1.384 . S
H4470 C4476 0.930 . S
H4471 C4480 0.930 . S
H4472 C4485 0.929 . S
H4473 C4483 0.929 . S
H4474 C4478 0.929 . S
H4475 C4484 0.929 . S
C4476 H4470 0.930 . S
C4476 C4477 1.367 . S
C4476 C4484 1.378 . S
C4477 C4476 1.367 . S
C4477 C4485 1.433 . S
C4478 H4474 0.929 . S
C4478 C4480 1.378 . S
C4478 C4482 1.350 . S
C4479 C4482 1.463 . S
C4479 C4484 1.350 . S
C4479 N4487 1.427 . S
C4480 H4471 0.930 . S
C4480 C4478 1.378 . S
C4480 C4481 1.367 . S
C4481 C4480 1.367 . S
C4481 C4483 1.433 . S
C4482 C4478 1.350 . S
C4482 C4479 1.463 . S
C4482 N4486 1.427 . S
C4483 H4473 0.929 . S
C4483 C4481 1.433 . S
C4483 N4486 1.384 . S
C4484 H4475 0.929 . S
C4484 C4476 1.378 . S
C4484 C4479 1.350 . S
C4485 H4472 0.929 . S
C4485 C4477 1.433 . S
C4485 N4487 1.384 . S
N4486 C4482 1.427 . S
N4486 C4483 1.384 . S
N4487 C4479 1.427 . S
N4487 C4485 1.384 . S
H4488 C4494 0.930 . S
H4489 C4498 0.930 . S
H4490 C4503 0.929 . S
H4491 C4501 0.929 . S
H4492 C4496 0.929 . S
H4493 C4502 0.929 . S
C4494 H4488 0.930 . S
C4494 C4495 1.367 . S
C4494 C4502 1.378 . S
C4495 C4494 1.367 . S
C4495 C4503 1.433 . S
C4496 H4492 0.929 . S
C4496 C4498 1.378 . S
C4496 C4500 1.350 . S
C4497 C4500 1.463 . S
C4497 C4502 1.350 . S
C4497 N4505 1.427 . S
C4498 H4489 0.930 . S
C4498 C4496 1.378 . S
C4498 C4499 1.367 . S
C4499 C4498 1.367 . S
C4499 C4501 1.433 . S
C4500 C4496 1.350 . S
C4500 C4497 1.463 . S
C4500 N4504 1.427 . S
C4501 H4491 0.929 . S
C4501 C4499 1.433 . S
C4501 N4504 1.384 . S
C4502 H4493 0.929 . S
C4502 C4494 1.378 . S
C4502 C4497 1.350 . S
C4503 H4490 0.929 . S
C4503 C4495 1.433 . S
C4503 N4505 1.384 . S
N4504 C4500 1.427 . S
N4504 C4501 1.384 . S
N4505 C4497 1.427 . S
N4505 C4503 1.384 . S
H4506 C4512 0.930 . S
H4507 C4516 0.930 . S
H4508 C4521 0.929 . S
H4509 C4519 0.929 . S
H4510 C4514 0.929 . S
H4511 C4520 0.929 . S
C4512 H4506 0.930 . S
C4512 C4513 1.367 . S
C4512 C4520 1.378 . S
C4513 C4512 1.367 . S
C4513 C4521 1.433 . S
C4514 H4510 0.929 . S
C4514 C4516 1.378 . S
C4514 C4518 1.350 . S
C4515 C4518 1.463 . S
C4515 C4520 1.350 . S
C4515 N4523 1.427 . S
C4516 H4507 0.930 . S
C4516 C4514 1.378 . S
C4516 C4517 1.367 . S
C4517 C4516 1.367 . S
C4517 C4519 1.433 . S
C4518 C4514 1.350 . S
C4518 C4515 1.463 . S
C4518 N4522 1.427 . S
C4519 H4509 0.929 . S
C4519 C4517 1.433 . S
C4519 N4522 1.384 . S
C4520 H4511 0.929 . S
C4520 C4512 1.378 . S
C4520 C4515 1.350 . S
C4521 H4508 0.929 . S
C4521 C4513 1.433 . S
C4521 N4523 1.384 . S
N4522 C4518 1.427 . S
N4522 C4519 1.384 . S
N4523 C4515 1.427 . S
N4523 C4521 1.384 . S
H4524 C4530 0.930 . S
H4525 C4534 0.930 . S
H4526 C4539 0.929 . S
H4527 C4537 0.929 . S
H4528 C4532 0.929 . S
H4529 C4538 0.929 . S
C4530 H4524 0.930 . S
C4530 C4531 1.367 . S
C4530 C4538 1.378 . S
C4531 C4530 1.367 . S
C4531 C4539 1.433 . S
C4532 H4528 0.929 . S
C4532 C4534 1.378 . S
C4532 C4536 1.350 . S
C4533 C4536 1.463 . S
C4533 C4538 1.350 . S
C4533 N4541 1.427 . S
C4534 H4525 0.930 . S
C4534 C4532 1.378 . S
C4534 C4535 1.367 . S
C4535 C4534 1.367 . S
C4535 C4537 1.433 . S
C4536 C4532 1.350 . S
C4536 C4533 1.463 . S
C4536 N4540 1.427 . S
C4537 H4527 0.929 . S
C4537 C4535 1.433 . S
C4537 N4540 1.384 . S
C4538 H4529 0.929 . S
C4538 C4530 1.378 . S
C4538 C4533 1.350 . S
C4539 H4526 0.929 . S
C4539 C4531 1.433 . S
C4539 N4541 1.384 . S
N4540 C4536 1.427 . S
N4540 C4537 1.384 . S
N4541 C4533 1.427 . S
N4541 C4539 1.384 . S
H4542 C4548 0.930 . S
H4543 C4552 0.930 . S
H4544 C4557 0.929 . S
H4545 C4555 0.929 . S
H4546 C4550 0.929 . S
H4547 C4556 0.929 . S
C4548 H4542 0.930 . S
C4548 C4549 1.367 . S
C4548 C4556 1.378 . S
C4549 C4548 1.367 . S
C4549 C4557 1.433 . S
C4550 H4546 0.929 . S
C4550 C4552 1.378 . S
C4550 C4554 1.350 . S
C4551 C4554 1.463 . S
C4551 C4556 1.350 . S
C4551 N4559 1.427 . S
C4552 H4543 0.930 . S
C4552 C4550 1.378 . S
C4552 C4553 1.367 . S
C4553 C4552 1.367 . S
C4553 C4555 1.433 . S
C4554 C4550 1.350 . S
C4554 C4551 1.463 . S
C4554 N4558 1.427 . S
C4555 H4545 0.929 . S
C4555 C4553 1.433 . S
C4555 N4558 1.384 . S
C4556 H4547 0.929 . S
C4556 C4548 1.378 . S
C4556 C4551 1.350 . S
C4557 H4544 0.929 . S
C4557 C4549 1.433 . S
C4557 N4559 1.384 . S
N4558 C4554 1.427 . S
N4558 C4555 1.384 . S
N4559 C4551 1.427 . S
N4559 C4557 1.384 . S
H4560 C4566 0.930 . S
H4561 C4570 0.930 . S
H4562 C4575 0.929 . S
H4563 C4573 0.929 . S
H4564 C4568 0.929 . S
H4565 C4574 0.929 . S
C4566 H4560 0.930 . S
C4566 C4567 1.367 . S
C4566 C4574 1.378 . S
C4567 C4566 1.367 . S
C4567 C4575 1.433 . S
C4568 H4564 0.929 . S
C4568 C4570 1.378 . S
C4568 C4572 1.350 . S
C4569 C4572 1.463 1_565 S
C4569 C4574 1.350 . S
C4569 N4577 1.427 . S
C4570 H4561 0.930 . S
C4570 C4568 1.378 . S
C4570 C4571 1.367 . S
C4571 C4570 1.367 . S
C4571 C4573 1.433 . S
C4572 C4568 1.350 . S
C4572 C4569 1.463 1_545 S
C4572 N4576 1.427 . S
C4573 H4563 0.929 . S
C4573 C4571 1.433 . S
C4573 N4576 1.384 . S
C4574 H4565 0.929 . S
C4574 C4566 1.378 . S
C4574 C4569 1.350 . S
C4575 H4562 0.929 . S
C4575 C4567 1.433 . S
C4575 N4577 1.384 . S
N4576 C4572 1.427 . S
N4576 C4573 1.384 . S
N4577 C4569 1.427 . S
N4577 C4575 1.384 . S
H4578 C4584 0.930 . S
H4579 C4588 0.930 . S
H4580 C4593 0.929 . S
H4581 C4591 0.929 . S
H4582 C4586 0.929 . S
H4583 C4592 0.929 . S
C4584 H4578 0.930 . S
C4584 C4585 1.367 . S
C4584 C4592 1.378 . S
C4585 C4584 1.367 . S
C4585 C4593 1.433 . S
C4586 H4582 0.929 . S
C4586 C4588 1.378 . S
C4586 C4590 1.350 . S
C4587 C4590 1.463 1_655 S
C4587 C4592 1.350 . S
C4587 N4595 1.427 . S
C4588 H4579 0.930 . S
C4588 C4586 1.378 . S
C4588 C4589 1.367 . S
C4589 C4588 1.367 . S
C4589 C4591 1.433 . S
C4590 C4586 1.350 . S
C4590 C4587 1.463 1_455 S
C4590 N4594 1.427 . S
C4591 H4581 0.929 . S
C4591 C4589 1.433 . S
C4591 N4594 1.384 . S
C4592 H4583 0.929 . S
C4592 C4584 1.378 . S
C4592 C4587 1.350 . S
C4593 H4580 0.929 . S
C4593 C4585 1.433 . S
C4593 N4595 1.384 . S
N4594 C4590 1.427 . S
N4594 C4591 1.384 . S
N4595 C4587 1.427 . S
N4595 C4593 1.384 . S
H4596 C4602 0.930 . S
H4597 C4606 0.930 . S
H4598 C4611 0.929 . S
H4599 C4609 0.929 . S
H4600 C4604 0.929 . S
H4601 C4610 0.929 . S
C4602 H4596 0.930 . S
C4602 C4603 1.367 . S
C4602 C4610 1.378 . S
C4603 C4602 1.367 . S
C4603 C4611 1.433 . S
C4604 H4600 0.929 . S
C4604 C4606 1.378 . S
C4604 C4608 1.350 . S
C4605 C4608 1.463 . S
C4605 C4610 1.350 . S
C4605 N4613 1.427 . S
C4606 H4597 0.930 . S
C4606 C4604 1.378 . S
C4606 C4607 1.367 . S
C4607 C4606 1.367 . S
C4607 C4609 1.433 . S
C4608 C4604 1.350 . S
C4608 C4605 1.463 . S
C4608 N4612 1.427 . S
C4609 H4599 0.929 . S
C4609 C4607 1.433 . S
C4609 N4612 1.384 . S
C4610 H4601 0.929 . S
C4610 C4602 1.378 . S
C4610 C4605 1.350 . S
C4611 H4598 0.929 . S
C4611 C4603 1.433 . S
C4611 N4613 1.384 . S
N4612 C4608 1.427 . S
N4612 C4609 1.384 . S
N4613 C4605 1.427 . S
N4613 C4611 1.384 . S
H4614 C4620 0.930 . S
H4615 C4624 0.930 . S
H4616 C4629 0.929 . S
H4617 C4627 0.929 . S
H4618 C4622 0.929 . S
H4619 C4628 0.929 . S
C4620 H4614 0.930 . S
C4620 C4621 1.367 . S
C4620 C4628 1.378 . S
C4621 C4620 1.367 . S
C4621 C4629 1.433 . S
C4622 H4618 0.929 . S
C4622 C4624 1.378 . S
C4622 C4626 1.350 . S
C4623 C4626 1.463 . S
C4623 C4628 1.350 . S
C4623 N4631 1.427 . S
C4624 H4615 0.930 . S
C4624 C4622 1.378 . S
C4624 C4625 1.367 . S
C4625 C4624 1.367 . S
C4625 C4627 1.433 . S
C4626 C4622 1.350 . S
C4626 C4623 1.463 . S
C4626 N4630 1.427 . S
C4627 H4617 0.929 . S
C4627 C4625 1.433 . S
C4627 N4630 1.384 . S
C4628 H4619 0.929 . S
C4628 C4620 1.378 . S
C4628 C4623 1.350 . S
C4629 H4616 0.929 . S
C4629 C4621 1.433 . S
C4629 N4631 1.384 . S
N4630 C4626 1.427 . S
N4630 C4627 1.384 . S
N4631 C4623 1.427 . S
N4631 C4629 1.384 . S
H4632 C4638 0.930 . S
H4633 C4642 0.930 . S
H4634 C4647 0.929 . S
H4635 C4645 0.929 . S
H4636 C4640 0.929 . S
H4637 C4646 0.929 . S
C4638 H4632 0.930 . S
C4638 C4639 1.367 . S
C4638 C4646 1.378 . S
C4639 C4638 1.367 . S
C4639 C4647 1.433 . S
C4640 H4636 0.929 . S
C4640 C4642 1.378 . S
C4640 C4644 1.350 . S
C4641 C4644 1.463 . S
C4641 C4646 1.350 . S
C4641 N4649 1.427 . S
C4642 H4633 0.930 . S
C4642 C4640 1.378 . S
C4642 C4643 1.367 . S
C4643 C4642 1.367 . S
C4643 C4645 1.433 . S
C4644 C4640 1.350 . S
C4644 C4641 1.463 . S
C4644 N4648 1.427 . S
C4645 H4635 0.929 . S
C4645 C4643 1.433 . S
C4645 N4648 1.384 . S
C4646 H4637 0.929 . S
C4646 C4638 1.378 . S
C4646 C4641 1.350 . S
C4647 H4634 0.929 . S
C4647 C4639 1.433 . S
C4647 N4649 1.384 . S
N4648 C4644 1.427 . S
N4648 C4645 1.384 . S
N4649 C4641 1.427 . S
N4649 C4647 1.384 . S
H4650 C4656 0.930 . S
H4651 C4660 0.930 . S
H4652 C4665 0.929 . S
H4653 C4663 0.929 . S
H4654 C4658 0.929 . S
H4655 C4664 0.929 . S
C4656 H4650 0.930 . S
C4656 C4657 1.367 . S
C4656 C4664 1.378 . S
C4657 C4656 1.367 . S
C4657 C4665 1.433 . S
C4658 H4654 0.929 . S
C4658 C4660 1.378 . S
C4658 C4662 1.350 . S
C4659 C4662 1.463 . S
C4659 C4664 1.350 . S
C4659 N4667 1.427 . S
C4660 H4651 0.930 . S
C4660 C4658 1.378 . S
C4660 C4661 1.367 . S
C4661 C4660 1.367 . S
C4661 C4663 1.433 . S
C4662 C4658 1.350 . S
C4662 C4659 1.463 . S
C4662 N4666 1.427 . S
C4663 H4653 0.929 . S
C4663 C4661 1.433 . S
C4663 N4666 1.384 . S
C4664 H4655 0.929 . S
C4664 C4656 1.378 . S
C4664 C4659 1.350 . S
C4665 H4652 0.929 . S
C4665 C4657 1.433 . S
C4665 N4667 1.384 . S
N4666 C4662 1.427 . S
N4666 C4663 1.384 . S
N4667 C4659 1.427 . S
N4667 C4665 1.384 . S
H4668 C4674 0.930 . S
H4669 C4678 0.930 . S
H4670 C4683 0.929 . S
H4671 C4681 0.929 . S
H4672 C4676 0.929 . S
H4673 C4682 0.929 . S
C4674 H4668 0.930 . S
C4674 C4675 1.367 . S
C4674 C4682 1.378 . S
C4675 C4674 1.367 . S
C4675 C4683 1.433 . S
C4676 H4672 0.929 . S
C4676 C4678 1.378 . S
C4676 C4680 1.350 . S
C4677 C4680 1.463 . S
C4677 C4682 1.350 . S
C4677 N4685 1.427 . S
C4678 H4669 0.930 . S
C4678 C4676 1.378 . S
C4678 C4679 1.367 . S
C4679 C4678 1.367 . S
C4679 C4681 1.433 . S
C4680 C4676 1.350 . S
C4680 C4677 1.463 . S
C4680 N4684 1.427 . S
C4681 H4671 0.929 . S
C4681 C4679 1.433 . S
C4681 N4684 1.384 . S
C4682 H4673 0.929 . S
C4682 C4674 1.378 . S
C4682 C4677 1.350 . S
C4683 H4670 0.929 . S
C4683 C4675 1.433 . S
C4683 N4685 1.384 . S
N4684 C4680 1.427 . S
N4684 C4681 1.384 . S
N4685 C4677 1.427 . S
N4685 C4683 1.384 . S
H4686 C4692 0.930 . S
H4687 C4696 0.930 . S
H4688 C4701 0.929 . S
H4689 C4699 0.929 . S
H4690 C4694 0.929 . S
H4691 C4700 0.929 . S
C4692 H4686 0.930 . S
C4692 C4693 1.367 . S
C4692 C4700 1.378 . S
C4693 C4692 1.367 . S
C4693 C4701 1.433 . S
C4694 H4690 0.929 . S
C4694 C4696 1.378 . S
C4694 C4698 1.350 . S
C4695 C4698 1.463 1_655 S
C4695 C4700 1.350 . S
C4695 N4703 1.427 . S
C4696 H4687 0.930 . S
C4696 C4694 1.378 . S
C4696 C4697 1.367 . S
C4697 C4696 1.367 . S
C4697 C4699 1.433 . S
C4698 C4694 1.350 . S
C4698 C4695 1.463 1_455 S
C4698 N4702 1.427 . S
C4699 H4689 0.929 . S
C4699 C4697 1.433 . S
C4699 N4702 1.384 . S
C4700 H4691 0.929 . S
C4700 C4692 1.378 . S
C4700 C4695 1.350 . S
C4701 H4688 0.929 . S
C4701 C4693 1.433 . S
C4701 N4703 1.384 . S
N4702 C4698 1.427 . S
N4702 C4699 1.384 . S
N4703 C4695 1.427 . S
N4703 C4701 1.384 . S
H4704 C4710 0.930 . S
H4705 C4714 0.930 . S
H4706 C4719 0.929 . S
H4707 C4717 0.929 . S
H4708 C4712 0.929 . S
H4709 C4718 0.929 . S
C4710 H4704 0.930 . S
C4710 C4711 1.367 . S
C4710 C4718 1.378 . S
C4711 C4710 1.367 . S
C4711 C4719 1.433 . S
C4712 H4708 0.929 . S
C4712 C4714 1.378 . S
C4712 C4716 1.350 . S
C4713 C4716 1.463 . S
C4713 C4718 1.350 . S
C4713 N4721 1.427 . S
C4714 H4705 0.930 . S
C4714 C4712 1.378 . S
C4714 C4715 1.367 . S
C4715 C4714 1.367 . S
C4715 C4717 1.433 . S
C4716 C4712 1.350 . S
C4716 C4713 1.463 . S
C4716 N4720 1.427 . S
C4717 H4707 0.929 . S
C4717 C4715 1.433 . S
C4717 N4720 1.384 . S
C4718 H4709 0.929 . S
C4718 C4710 1.378 . S
C4718 C4713 1.350 . S
C4719 H4706 0.929 . S
C4719 C4711 1.433 . S
C4719 N4721 1.384 . S
N4720 C4716 1.427 . S
N4720 C4717 1.384 . S
N4721 C4713 1.427 . S
N4721 C4719 1.384 . S
H4722 C4728 0.930 . S
H4723 C4732 0.930 . S
H4724 C4737 0.929 . S
H4725 C4735 0.929 . S
H4726 C4730 0.929 . S
H4727 C4736 0.929 . S
C4728 H4722 0.930 . S
C4728 C4729 1.367 . S
C4728 C4736 1.378 . S
C4729 C4728 1.367 . S
C4729 C4737 1.433 . S
C4730 H4726 0.929 . S
C4730 C4732 1.378 . S
C4730 C4734 1.350 . S
C4731 C4734 1.463 . S
C4731 C4736 1.350 . S
C4731 N4739 1.427 . S
C4732 H4723 0.930 . S
C4732 C4730 1.378 . S
C4732 C4733 1.367 . S
C4733 C4732 1.367 . S
C4733 C4735 1.433 . S
C4734 C4730 1.350 . S
C4734 C4731 1.463 . S
C4734 N4738 1.427 . S
C4735 H4725 0.929 . S
C4735 C4733 1.433 . S
C4735 N4738 1.384 . S
C4736 H4727 0.929 . S
C4736 C4728 1.378 . S
C4736 C4731 1.350 . S
C4737 H4724 0.929 . S
C4737 C4729 1.433 . S
C4737 N4739 1.384 . S
N4738 C4734 1.427 . S
N4738 C4735 1.384 . S
N4739 C4731 1.427 . S
N4739 C4737 1.384 . S
H4740 C4746 0.930 . S
H4741 C4750 0.930 . S
H4742 C4755 0.929 . S
H4743 C4753 0.929 . S
H4744 C4748 0.929 . S
H4745 C4754 0.929 . S
C4746 H4740 0.930 . S
C4746 C4747 1.367 . S
C4746 C4754 1.378 . S
C4747 C4746 1.367 . S
C4747 C4755 1.433 . S
C4748 H4744 0.929 . S
C4748 C4750 1.378 . S
C4748 C4752 1.350 . S
C4749 C4752 1.463 . S
C4749 C4754 1.350 . S
C4749 N4757 1.427 . S
C4750 H4741 0.930 . S
C4750 C4748 1.378 . S
C4750 C4751 1.367 . S
C4751 C4750 1.367 . S
C4751 C4753 1.433 . S
C4752 C4748 1.350 . S
C4752 C4749 1.463 . S
C4752 N4756 1.427 . S
C4753 H4743 0.929 . S
C4753 C4751 1.433 . S
C4753 N4756 1.384 . S
C4754 H4745 0.929 . S
C4754 C4746 1.378 . S
C4754 C4749 1.350 . S
C4755 H4742 0.929 . S
C4755 C4747 1.433 . S
C4755 N4757 1.384 . S
N4756 C4752 1.427 . S
N4756 C4753 1.384 . S
N4757 C4749 1.427 . S
N4757 C4755 1.384 . S
H4758 C4764 0.930 . S
H4759 C4768 0.930 . S
H4760 C4773 0.929 . S
H4761 C4771 0.929 . S
H4762 C4766 0.929 . S
H4763 C4772 0.929 . S
C4764 H4758 0.930 . S
C4764 C4765 1.367 . S
C4764 C4772 1.378 . S
C4765 C4764 1.367 . S
C4765 C4773 1.433 . S
C4766 H4762 0.929 . S
C4766 C4768 1.378 . S
C4766 C4770 1.350 . S
C4767 C4770 1.463 1_554 S
C4767 C4772 1.350 . S
C4767 N4775 1.427 . S
C4768 H4759 0.930 . S
C4768 C4766 1.378 . S
C4768 C4769 1.367 . S
C4769 C4768 1.367 . S
C4769 C4771 1.433 . S
C4770 C4766 1.350 . S
C4770 C4767 1.463 1_556 S
C4770 N4774 1.427 . S
C4771 H4761 0.929 . S
C4771 C4769 1.433 . S
C4771 N4774 1.384 . S
C4772 H4763 0.929 . S
C4772 C4764 1.378 . S
C4772 C4767 1.350 . S
C4773 H4760 0.929 . S
C4773 C4765 1.433 . S
C4773 N4775 1.384 . S
N4774 C4770 1.427 . S
N4774 C4771 1.384 . S
N4775 C4767 1.427 . S
N4775 C4773 1.384 . S
H4776 C4782 0.930 . S
H4777 C4786 0.930 . S
H4778 C4791 0.929 . S
H4779 C4789 0.929 . S
H4780 C4784 0.929 . S
H4781 C4790 0.929 . S
C4782 H4776 0.930 . S
C4782 C4783 1.367 . S
C4782 C4790 1.378 . S
C4783 C4782 1.367 . S
C4783 C4791 1.433 . S
C4784 H4780 0.929 . S
C4784 C4786 1.378 . S
C4784 C4788 1.350 . S
C4785 C4788 1.463 . S
C4785 C4790 1.350 . S
C4785 N4793 1.427 . S
C4786 H4777 0.930 . S
C4786 C4784 1.378 . S
C4786 C4787 1.367 . S
C4787 C4786 1.367 . S
C4787 C4789 1.433 . S
C4788 C4784 1.350 . S
C4788 C4785 1.463 . S
C4788 N4792 1.427 . S
C4789 H4779 0.929 . S
C4789 C4787 1.433 . S
C4789 N4792 1.384 . S
C4790 H4781 0.929 . S
C4790 C4782 1.378 . S
C4790 C4785 1.350 . S
C4791 H4778 0.929 . S
C4791 C4783 1.433 . S
C4791 N4793 1.384 . S
N4792 C4788 1.427 . S
N4792 C4789 1.384 . S
N4793 C4785 1.427 . S
N4793 C4791 1.384 . S
H4794 C4800 0.930 . S
H4795 C4804 0.930 . S
H4796 C4809 0.929 . S
H4797 C4807 0.929 . S
H4798 C4802 0.929 . S
H4799 C4808 0.929 . S
C4800 H4794 0.930 . S
C4800 C4801 1.367 . S
C4800 C4808 1.378 . S
C4801 C4800 1.367 . S
C4801 C4809 1.433 . S
C4802 H4798 0.929 . S
C4802 C4804 1.378 . S
C4802 C4806 1.350 . S
C4803 C4806 1.463 . S
C4803 C4808 1.350 . S
C4803 N4811 1.427 . S
C4804 H4795 0.930 . S
C4804 C4802 1.378 . S
C4804 C4805 1.367 . S
C4805 C4804 1.367 . S
C4805 C4807 1.433 . S
C4806 C4802 1.350 . S
C4806 C4803 1.463 . S
C4806 N4810 1.427 . S
C4807 H4797 0.929 . S
C4807 C4805 1.433 . S
C4807 N4810 1.384 . S
C4808 H4799 0.929 . S
C4808 C4800 1.378 . S
C4808 C4803 1.350 . S
C4809 H4796 0.929 . S
C4809 C4801 1.433 . S
C4809 N4811 1.384 . S
N4810 C4806 1.427 . S
N4810 C4807 1.384 . S
N4811 C4803 1.427 . S
N4811 C4809 1.384 . S
H4812 C4818 0.930 . S
H4813 C4822 0.930 . S
H4814 C4827 0.929 . S
H4815 C4825 0.929 . S
H4816 C4820 0.929 . S
H4817 C4826 0.929 . S
C4818 H4812 0.930 . S
C4818 C4819 1.367 . S
C4818 C4826 1.378 . S
C4819 C4818 1.367 . S
C4819 C4827 1.433 . S
C4820 H4816 0.929 . S
C4820 C4822 1.378 . S
C4820 C4824 1.350 . S
C4821 C4824 1.463 . S
C4821 C4826 1.350 . S
C4821 N4829 1.427 . S
C4822 H4813 0.930 . S
C4822 C4820 1.378 . S
C4822 C4823 1.367 . S
C4823 C4822 1.367 . S
C4823 C4825 1.433 . S
C4824 C4820 1.350 . S
C4824 C4821 1.463 . S
C4824 N4828 1.427 . S
C4825 H4815 0.929 . S
C4825 C4823 1.433 . S
C4825 N4828 1.384 . S
C4826 H4817 0.929 . S
C4826 C4818 1.378 . S
C4826 C4821 1.350 . S
C4827 H4814 0.929 . S
C4827 C4819 1.433 . S
C4827 N4829 1.384 . S
N4828 C4824 1.427 . S
N4828 C4825 1.384 . S
N4829 C4821 1.427 . S
N4829 C4827 1.384 . S
H4830 C4836 0.930 . S
H4831 C4840 0.930 . S
H4832 C4845 0.929 . S
H4833 C4843 0.929 . S
H4834 C4838 0.929 . S
H4835 C4844 0.929 . S
C4836 H4830 0.930 . S
C4836 C4837 1.367 . S
C4836 C4844 1.378 . S
C4837 C4836 1.367 . S
C4837 C4845 1.433 . S
C4838 H4834 0.929 . S
C4838 C4840 1.378 . S
C4838 C4842 1.350 . S
C4839 C4842 1.463 . S
C4839 C4844 1.350 . S
C4839 N4847 1.427 . S
C4840 H4831 0.930 . S
C4840 C4838 1.378 . S
C4840 C4841 1.367 . S
C4841 C4840 1.367 . S
C4841 C4843 1.433 . S
C4842 C4838 1.350 . S
C4842 C4839 1.463 . S
C4842 N4846 1.427 . S
C4843 H4833 0.929 . S
C4843 C4841 1.433 . S
C4843 N4846 1.384 . S
C4844 H4835 0.929 . S
C4844 C4836 1.378 . S
C4844 C4839 1.350 . S
C4845 H4832 0.929 . S
C4845 C4837 1.433 . S
C4845 N4847 1.384 . S
N4846 C4842 1.427 . S
N4846 C4843 1.384 . S
N4847 C4839 1.427 . S
N4847 C4845 1.384 . S
H4848 C4854 0.930 . S
H4849 C4858 0.930 . S
H4850 C4863 0.929 . S
H4851 C4861 0.929 . S
H4852 C4856 0.929 . S
H4853 C4862 0.929 . S
C4854 H4848 0.930 . S
C4854 C4855 1.367 . S
C4854 C4862 1.378 . S
C4855 C4854 1.367 . S
C4855 C4863 1.433 . S
C4856 H4852 0.929 . S
C4856 C4858 1.378 . S
C4856 C4860 1.350 . S
C4857 C4860 1.463 1_556 S
C4857 C4862 1.350 . S
C4857 N4865 1.427 . S
C4858 H4849 0.930 . S
C4858 C4856 1.378 . S
C4858 C4859 1.367 . S
C4859 C4858 1.367 . S
C4859 C4861 1.433 . S
C4860 C4856 1.350 . S
C4860 C4857 1.463 1_554 S
C4860 N4864 1.427 . S
C4861 H4851 0.929 . S
C4861 C4859 1.433 . S
C4861 N4864 1.384 . S
C4862 H4853 0.929 . S
C4862 C4854 1.378 . S
C4862 C4857 1.350 . S
C4863 H4850 0.929 . S
C4863 C4855 1.433 . S
C4863 N4865 1.384 . S
N4864 C4860 1.427 . S
N4864 C4861 1.384 . S
N4865 C4857 1.427 . S
N4865 C4863 1.384 . S
H4866 C4872 0.930 . S
H4867 C4876 0.930 . S
H4868 C4881 0.929 . S
H4869 C4879 0.929 . S
H4870 C4874 0.929 . S
H4871 C4880 0.929 . S
C4872 H4866 0.930 . S
C4872 C4873 1.367 . S
C4872 C4880 1.378 . S
C4873 C4872 1.367 . S
C4873 C4881 1.433 . S
C4874 H4870 0.929 . S
C4874 C4876 1.378 . S
C4874 C4878 1.350 . S
C4875 C4878 1.463 . S
C4875 C4880 1.350 . S
C4875 N4883 1.427 . S
C4876 H4867 0.930 . S
C4876 C4874 1.378 . S
C4876 C4877 1.367 . S
C4877 C4876 1.367 . S
C4877 C4879 1.433 . S
C4878 C4874 1.350 . S
C4878 C4875 1.463 . S
C4878 N4882 1.427 . S
C4879 H4869 0.929 . S
C4879 C4877 1.433 . S
C4879 N4882 1.384 . S
C4880 H4871 0.929 . S
C4880 C4872 1.378 . S
C4880 C4875 1.350 . S
C4881 H4868 0.929 . S
C4881 C4873 1.433 . S
C4881 N4883 1.384 . S
N4882 C4878 1.427 . S
N4882 C4879 1.384 . S
N4883 C4875 1.427 . S
N4883 C4881 1.384 . S
H4884 C4890 0.930 . S
H4885 C4894 0.930 . S
H4886 C4899 0.929 . S
H4887 C4897 0.929 . S
H4888 C4892 0.929 . S
H4889 C4898 0.929 . S
C4890 H4884 0.930 . S
C4890 C4891 1.367 . S
C4890 C4898 1.378 . S
C4891 C4890 1.367 . S
C4891 C4899 1.433 . S
C4892 H4888 0.929 . S
C4892 C4894 1.378 . S
C4892 C4896 1.350 . S
C4893 C4896 1.463 . S
C4893 C4898 1.350 . S
C4893 N4901 1.427 . S
C4894 H4885 0.930 . S
C4894 C4892 1.378 . S
C4894 C4895 1.367 . S
C4895 C4894 1.367 . S
C4895 C4897 1.433 . S
C4896 C4892 1.350 . S
C4896 C4893 1.463 . S
C4896 N4900 1.427 . S
C4897 H4887 0.929 . S
C4897 C4895 1.433 . S
C4897 N4900 1.384 . S
C4898 H4889 0.929 . S
C4898 C4890 1.378 . S
C4898 C4893 1.350 . S
C4899 H4886 0.929 . S
C4899 C4891 1.433 . S
C4899 N4901 1.384 . S
N4900 C4896 1.427 . S
N4900 C4897 1.384 . S
N4901 C4893 1.427 . S
N4901 C4899 1.384 . S
H4902 C4908 0.930 . S
H4903 C4912 0.930 . S
H4904 C4917 0.929 . S
H4905 C4915 0.929 . S
H4906 C4910 0.929 . S
H4907 C4916 0.929 . S
C4908 H4902 0.930 . S
C4908 C4909 1.367 . S
C4908 C4916 1.378 . S
C4909 C4908 1.367 . S
C4909 C4917 1.433 . S
C4910 H4906 0.929 . S
C4910 C4912 1.378 . S
C4910 C4914 1.350 . S
C4911 C4914 1.463 . S
C4911 C4916 1.350 . S
C4911 N4919 1.427 . S
C4912 H4903 0.930 . S
C4912 C4910 1.378 . S
C4912 C4913 1.367 . S
C4913 C4912 1.367 . S
C4913 C4915 1.433 . S
C4914 C4910 1.350 . S
C4914 C4911 1.463 . S
C4914 N4918 1.427 . S
C4915 H4905 0.929 . S
C4915 C4913 1.433 . S
C4915 N4918 1.384 . S
C4916 H4907 0.929 . S
C4916 C4908 1.378 . S
C4916 C4911 1.350 . S
C4917 H4904 0.929 . S
C4917 C4909 1.433 . S
C4917 N4919 1.384 . S
N4918 C4914 1.427 . S
N4918 C4915 1.384 . S
N4919 C4911 1.427 . S
N4919 C4917 1.384 . S
H4920 C4926 0.930 . S
H4921 C4930 0.930 . S
H4922 C4935 0.929 . S
H4923 C4933 0.929 . S
H4924 C4928 0.929 . S
H4925 C4934 0.929 . S
C4926 H4920 0.930 . S
C4926 C4927 1.367 . S
C4926 C4934 1.378 . S
C4927 C4926 1.367 . S
C4927 C4935 1.433 . S
C4928 H4924 0.929 . S
C4928 C4930 1.378 . S
C4928 C4932 1.350 . S
C4929 C4932 1.463 . S
C4929 C4934 1.350 . S
C4929 N4937 1.427 . S
C4930 H4921 0.930 . S
C4930 C4928 1.378 . S
C4930 C4931 1.367 . S
C4931 C4930 1.367 . S
C4931 C4933 1.433 . S
C4932 C4928 1.350 . S
C4932 C4929 1.463 . S
C4932 N4936 1.427 . S
C4933 H4923 0.929 . S
C4933 C4931 1.433 . S
C4933 N4936 1.384 . S
C4934 H4925 0.929 . S
C4934 C4926 1.378 . S
C4934 C4929 1.350 . S
C4935 H4922 0.929 . S
C4935 C4927 1.433 . S
C4935 N4937 1.384 . S
N4936 C4932 1.427 . S
N4936 C4933 1.384 . S
N4937 C4929 1.427 . S
N4937 C4935 1.384 . S
H4938 C4944 0.930 . S
H4939 C4948 0.930 . S
H4940 C4953 0.929 . S
H4941 C4951 0.929 . S
H4942 C4946 0.911 1_565 S
H4943 C4952 0.929 1_545 S
C4944 H4938 0.930 . S
C4944 C4945 1.367 . S
C4944 C4952 1.378 . S
C4945 C4944 1.367 . S
C4945 C4953 1.433 . S
C4946 H4942 0.911 1_545 S
C4946 C4948 1.378 . S
C4946 C4950 1.350 . S
C4947 C4950 1.463 1_565 S
C4947 C4952 1.350 . S
C4947 N4955 1.427 . S
C4948 H4939 0.930 . S
C4948 C4946 1.378 . S
C4948 C4949 1.367 . S
C4949 C4948 1.367 . S
C4949 C4951 1.433 . S
C4950 C4946 1.350 . S
C4950 C4947 1.463 1_545 S
C4950 N4954 1.427 . S
C4951 H4941 0.929 . S
C4951 C4949 1.433 . S
C4951 N4954 1.384 . S
C4952 H4943 0.929 1_565 S
C4952 C4944 1.378 . S
C4952 C4947 1.350 . S
C4953 H4940 0.929 . S
C4953 C4945 1.433 . S
C4953 N4955 1.384 . S
N4954 C4950 1.427 . S
N4954 C4951 1.384 . S
N4955 C4947 1.427 . S
N4955 C4953 1.384 . S
H4956 C4962 0.930 . S
H4957 C4966 0.930 . S
H4958 C4971 0.929 . S
H4959 C4969 0.929 . S
H4960 C4964 0.929 . S
H4961 C4970 0.929 . S
C4962 H4956 0.930 . S
C4962 C4963 1.367 . S
C4962 C4970 1.378 . S
C4963 C4962 1.367 . S
C4963 C4971 1.433 . S
C4964 H4960 0.929 . S
C4964 C4966 1.378 . S
C4964 C4968 1.350 . S
C4965 C4968 1.463 . S
C4965 C4970 1.350 . S
C4965 N4973 1.427 . S
C4966 H4957 0.930 . S
C4966 C4964 1.378 . S
C4966 C4967 1.367 . S
C4967 C4966 1.367 . S
C4967 C4969 1.433 . S
C4968 C4964 1.350 . S
C4968 C4965 1.463 . S
C4968 N4972 1.427 . S
C4969 H4959 0.929 . S
C4969 C4967 1.433 . S
C4969 N4972 1.384 . S
C4970 H4961 0.929 . S
C4970 C4962 1.378 . S
C4970 C4965 1.350 . S
C4971 H4958 0.929 . S
C4971 C4963 1.433 . S
C4971 N4973 1.384 . S
N4972 C4968 1.427 . S
N4972 C4969 1.384 . S
N4973 C4965 1.427 . S
N4973 C4971 1.384 . S
H4974 C4980 0.930 . S
H4975 C4984 0.930 . S
H4976 C4989 0.929 . S
H4977 C4987 0.929 . S
H4978 C4982 0.929 . S
H4979 C4988 0.929 . S
C4980 H4974 0.930 . S
C4980 C4981 1.367 . S
C4980 C4988 1.378 . S
C4981 C4980 1.367 . S
C4981 C4989 1.433 . S
C4982 H4978 0.929 . S
C4982 C4984 1.378 . S
C4982 C4986 1.350 . S
C4983 C4986 1.463 . S
C4983 C4988 1.350 . S
C4983 N4991 1.427 . S
C4984 H4975 0.930 . S
C4984 C4982 1.378 . S
C4984 C4985 1.367 . S
C4985 C4984 1.367 . S
C4985 C4987 1.433 . S
C4986 C4982 1.350 . S
C4986 C4983 1.463 . S
C4986 N4990 1.427 . S
C4987 H4977 0.929 . S
C4987 C4985 1.433 . S
C4987 N4990 1.384 . S
C4988 H4979 0.929 . S
C4988 C4980 1.378 . S
C4988 C4983 1.350 . S
C4989 H4976 0.929 . S
C4989 C4981 1.433 . S
C4989 N4991 1.384 . S
N4990 C4986 1.427 . S
N4990 C4987 1.384 . S
N4991 C4983 1.427 . S
N4991 C4989 1.384 . S
H4992 C4998 0.930 . S
H4993 C5002 0.930 . S
H4994 C5007 0.929 . S
H4995 C5005 0.929 . S
H4996 C5000 0.929 . S
H4997 C5006 0.929 . S
C4998 H4992 0.930 . S
C4998 C4999 1.367 . S
C4998 C5006 1.378 . S
C4999 C4998 1.367 . S
C4999 C5007 1.433 . S
C5000 H4996 0.929 . S
C5000 C5002 1.378 . S
C5000 C5004 1.350 . S
C5001 C5004 1.463 . S
C5001 C5006 1.350 . S
C5001 N5009 1.427 . S
C5002 H4993 0.930 . S
C5002 C5000 1.378 . S
C5002 C5003 1.367 . S
C5003 C5002 1.367 . S
C5003 C5005 1.433 . S
C5004 C5000 1.350 . S
C5004 C5001 1.463 . S
C5004 N5008 1.427 . S
C5005 H4995 0.929 . S
C5005 C5003 1.433 . S
C5005 N5008 1.384 . S
C5006 H4997 0.929 . S
C5006 C4998 1.378 . S
C5006 C5001 1.350 . S
C5007 H4994 0.929 . S
C5007 C4999 1.433 . S
C5007 N5009 1.384 . S
N5008 C5004 1.427 . S
N5008 C5005 1.384 . S
N5009 C5001 1.427 . S
N5009 C5007 1.384 . S
H5010 C5016 0.930 . S
H5011 C5020 0.930 . S
H5012 C5025 0.929 . S
H5013 C5023 0.929 . S
H5014 C5018 0.929 . S
H5015 C5024 0.929 . S
C5016 H5010 0.930 . S
C5016 C5017 1.367 . S
C5016 C5024 1.378 . S
C5017 C5016 1.367 . S
C5017 C5025 1.433 . S
C5018 H5014 0.929 . S
C5018 C5020 1.378 . S
C5018 C5022 1.350 . S
C5019 C5022 1.463 1_455 S
C5019 C5024 1.350 . S
C5019 N5027 1.427 . S
C5020 H5011 0.930 . S
C5020 C5018 1.378 . S
C5020 C5021 1.367 . S
C5021 C5020 1.367 . S
C5021 C5023 1.433 . S
C5022 C5018 1.350 . S
C5022 C5019 1.463 1_655 S
C5022 N5026 1.427 . S
C5023 H5013 0.929 . S
C5023 C5021 1.433 . S
C5023 N5026 1.384 . S
C5024 H5015 0.929 . S
C5024 C5016 1.378 . S
C5024 C5019 1.350 . S
C5025 H5012 0.929 . S
C5025 C5017 1.433 . S
C5025 N5027 1.384 . S
N5026 C5022 1.427 . S
N5026 C5023 1.384 . S
N5027 C5019 1.427 . S
N5027 C5025 1.384 . S
H5028 C5034 0.930 . S
H5029 C5038 0.930 . S
H5030 C5043 0.929 . S
H5031 C5041 0.929 . S
H5032 C5036 0.929 . S
H5033 C5042 0.929 . S
C5034 H5028 0.930 . S
C5034 C5035 1.367 . S
C5034 C5042 1.378 . S
C5035 C5034 1.367 . S
C5035 C5043 1.433 . S
C5036 H5032 0.929 . S
C5036 C5038 1.378 . S
C5036 C5040 1.350 . S
C5037 C5040 1.463 . S
C5037 C5042 1.350 . S
C5037 N5045 1.427 . S
C5038 H5029 0.930 . S
C5038 C5036 1.378 . S
C5038 C5039 1.367 . S
C5039 C5038 1.367 . S
C5039 C5041 1.433 . S
C5040 C5036 1.350 . S
C5040 C5037 1.463 . S
C5040 N5044 1.427 . S
C5041 H5031 0.929 . S
C5041 C5039 1.433 . S
C5041 N5044 1.384 . S
C5042 H5033 0.929 . S
C5042 C5034 1.378 . S
C5042 C5037 1.350 . S
C5043 H5030 0.929 . S
C5043 C5035 1.433 . S
C5043 N5045 1.384 . S
N5044 C5040 1.427 . S
N5044 C5041 1.384 . S
N5045 C5037 1.427 . S
N5045 C5043 1.384 . S
H5046 C5052 0.930 . S
H5047 C5056 0.930 . S
H5048 C5061 0.929 . S
H5049 C5059 0.929 . S
H5050 C5054 0.929 . S
H5051 C5060 0.929 . S
C5052 H5046 0.930 . S
C5052 C5053 1.367 . S
C5052 C5060 1.378 . S
C5053 C5052 1.367 . S
C5053 C5061 1.433 . S
C5054 H5050 0.929 . S
C5054 C5056 1.378 . S
C5054 C5058 1.350 . S
C5055 C5058 1.463 . S
C5055 C5060 1.350 . S
C5055 N5063 1.427 . S
C5056 H5047 0.930 . S
C5056 C5054 1.378 . S
C5056 C5057 1.367 . S
C5057 C5056 1.367 . S
C5057 C5059 1.433 . S
C5058 C5054 1.350 . S
C5058 C5055 1.463 . S
C5058 N5062 1.427 . S
C5059 H5049 0.929 . S
C5059 C5057 1.433 . S
C5059 N5062 1.384 . S
C5060 H5051 0.929 . S
C5060 C5052 1.378 . S
C5060 C5055 1.350 . S
C5061 H5048 0.929 . S
C5061 C5053 1.433 . S
C5061 N5063 1.384 . S
N5062 C5058 1.427 . S
N5062 C5059 1.384 . S
N5063 C5055 1.427 . S
N5063 C5061 1.384 . S
H5064 C5070 0.930 . S
H5065 C5074 0.930 . S
H5066 C5079 0.929 . S
H5067 C5077 0.929 . S
H5068 C5072 0.929 . S
H5069 C5078 0.929 . S
C5070 H5064 0.930 . S
C5070 C5071 1.367 . S
C5070 C5078 1.378 . S
C5071 C5070 1.367 . S
C5071 C5079 1.433 . S
C5072 H5068 0.929 . S
C5072 C5074 1.378 . S
C5072 C5076 1.350 . S
C5073 C5076 1.463 . S
C5073 C5078 1.350 . S
C5073 N5081 1.427 . S
C5074 H5065 0.930 . S
C5074 C5072 1.378 . S
C5074 C5075 1.367 . S
C5075 C5074 1.367 . S
C5075 C5077 1.433 . S
C5076 C5072 1.350 . S
C5076 C5073 1.463 . S
C5076 N5080 1.427 . S
C5077 H5067 0.929 . S
C5077 C5075 1.433 . S
C5077 N5080 1.384 . S
C5078 H5069 0.929 . S
C5078 C5070 1.378 . S
C5078 C5073 1.350 . S
C5079 H5066 0.929 . S
C5079 C5071 1.433 . S
C5079 N5081 1.384 . S
N5080 C5076 1.427 . S
N5080 C5077 1.384 . S
N5081 C5073 1.427 . S
N5081 C5079 1.384 . S
H5082 C5088 0.930 . S
H5083 C5092 0.930 . S
H5084 C5097 0.929 . S
H5085 C5095 0.929 . S
H5086 C5090 0.929 . S
H5087 C5096 0.929 . S
C5088 H5082 0.930 . S
C5088 C5089 1.367 . S
C5088 C5096 1.378 . S
C5089 C5088 1.367 . S
C5089 C5097 1.433 . S
C5090 H5086 0.929 . S
C5090 C5092 1.378 . S
C5090 C5094 1.350 . S
C5091 C5094 1.463 1_554 S
C5091 C5096 1.350 . S
C5091 N5099 1.427 . S
C5092 H5083 0.930 . S
C5092 C5090 1.378 . S
C5092 C5093 1.367 . S
C5093 C5092 1.367 . S
C5093 C5095 1.433 . S
C5094 C5090 1.350 . S
C5094 C5091 1.463 1_556 S
C5094 N5098 1.427 . S
C5095 H5085 0.929 . S
C5095 C5093 1.433 . S
C5095 N5098 1.384 . S
C5096 H5087 0.929 . S
C5096 C5088 1.378 . S
C5096 C5091 1.350 . S
C5097 H5084 0.929 . S
C5097 C5089 1.433 . S
C5097 N5099 1.384 . S
N5098 C5094 1.427 . S
N5098 C5095 1.384 . S
N5099 C5091 1.427 . S
N5099 C5097 1.384 . S
H5100 C5106 0.930 . S
H5101 C5110 0.930 . S
H5102 C5115 0.929 . S
H5103 C5113 0.929 . S
H5104 C5108 0.929 . S
H5105 C5114 0.929 . S
C5106 H5100 0.930 . S
C5106 C5107 1.367 . S
C5106 C5114 1.378 . S
C5107 C5106 1.367 . S
C5107 C5115 1.433 . S
C5108 H5104 0.929 . S
C5108 C5110 1.378 . S
C5108 C5112 1.350 . S
C5109 C5112 1.463 . S
C5109 C5114 1.350 . S
C5109 N5117 1.427 . S
C5110 H5101 0.930 . S
C5110 C5108 1.378 . S
C5110 C5111 1.367 . S
C5111 C5110 1.367 . S
C5111 C5113 1.433 . S
C5112 C5108 1.350 . S
C5112 C5109 1.463 . S
C5112 N5116 1.427 . S
C5113 H5103 0.929 . S
C5113 C5111 1.433 . S
C5113 N5116 1.384 . S
C5114 H5105 0.929 . S
C5114 C5106 1.378 . S
C5114 C5109 1.350 . S
C5115 H5102 0.929 . S
C5115 C5107 1.433 . S
C5115 N5117 1.384 . S
N5116 C5112 1.427 . S
N5116 C5113 1.384 . S
N5117 C5109 1.427 . S
N5117 C5115 1.384 . S
H5118 C5124 0.930 . S
H5119 C5128 0.930 . S
H5120 C5133 0.929 . S
H5121 C5131 0.929 . S
H5122 C5126 0.929 . S
H5123 C5132 0.929 . S
C5124 H5118 0.930 . S
C5124 C5125 1.367 . S
C5124 C5132 1.378 . S
C5125 C5124 1.367 . S
C5125 C5133 1.433 . S
C5126 H5122 0.929 . S
C5126 C5128 1.378 . S
C5126 C5130 1.350 . S
C5127 C5130 1.463 . S
C5127 C5132 1.350 . S
C5127 N5135 1.427 . S
C5128 H5119 0.930 . S
C5128 C5126 1.378 . S
C5128 C5129 1.367 . S
C5129 C5128 1.367 . S
C5129 C5131 1.433 . S
C5130 C5126 1.350 . S
C5130 C5127 1.463 . S
C5130 N5134 1.427 . S
C5131 H5121 0.929 . S
C5131 C5129 1.433 . S
C5131 N5134 1.384 . S
C5132 H5123 0.929 . S
C5132 C5124 1.378 . S
C5132 C5127 1.350 . S
C5133 H5120 0.929 . S
C5133 C5125 1.433 . S
C5133 N5135 1.384 . S
N5134 C5130 1.427 . S
N5134 C5131 1.384 . S
N5135 C5127 1.427 . S
N5135 C5133 1.384 . S
H5136 C5142 0.930 . S
H5137 C5146 0.930 . S
H5138 C5151 0.929 . S
H5139 C5149 0.929 . S
H5140 C5144 0.929 . S
H5141 C5150 0.929 . S
C5142 H5136 0.930 . S
C5142 C5143 1.367 . S
C5142 C5150 1.378 . S
C5143 C5142 1.367 . S
C5143 C5151 1.433 . S
C5144 H5140 0.929 . S
C5144 C5146 1.378 . S
C5144 C5148 1.350 . S
C5145 C5148 1.463 . S
C5145 C5150 1.350 . S
C5145 N5153 1.427 . S
C5146 H5137 0.930 . S
C5146 C5144 1.378 . S
C5146 C5147 1.367 . S
C5147 C5146 1.367 . S
C5147 C5149 1.433 . S
C5148 C5144 1.350 . S
C5148 C5145 1.463 . S
C5148 N5152 1.427 . S
C5149 H5139 0.929 . S
C5149 C5147 1.433 . S
C5149 N5152 1.384 . S
C5150 H5141 0.929 . S
C5150 C5142 1.378 . S
C5150 C5145 1.350 . S
C5151 H5138 0.929 . S
C5151 C5143 1.433 . S
C5151 N5153 1.384 . S
N5152 C5148 1.427 . S
N5152 C5149 1.384 . S
N5153 C5145 1.427 . S
N5153 C5151 1.384 . S
H5154 C5160 0.930 . S
H5155 C5164 0.930 . S
H5156 C5169 0.929 . S
H5157 C5167 0.929 . S
H5158 C5162 0.929 . S
H5159 C5168 0.929 . S
C5160 H5154 0.930 . S
C5160 C5161 1.367 . S
C5160 C5168 1.378 . S
C5161 C5160 1.367 . S
C5161 C5169 1.433 . S
C5162 H5158 0.929 . S
C5162 C5164 1.378 . S
C5162 C5166 1.350 . S
C5163 C5166 1.463 . S
C5163 C5168 1.350 . S
C5163 N5171 1.427 . S
C5164 H5155 0.930 . S
C5164 C5162 1.378 . S
C5164 C5165 1.367 . S
C5165 C5164 1.367 . S
C5165 C5167 1.433 . S
C5166 C5162 1.350 . S
C5166 C5163 1.463 . S
C5166 N5170 1.427 . S
C5167 H5157 0.929 . S
C5167 C5165 1.433 . S
C5167 N5170 1.384 . S
C5168 H5159 0.929 . S
C5168 C5160 1.378 . S
C5168 C5163 1.350 . S
C5169 H5156 0.929 . S
C5169 C5161 1.433 . S
C5169 N5171 1.384 . S
N5170 C5166 1.427 . S
N5170 C5167 1.384 . S
N5171 C5163 1.427 . S
N5171 C5169 1.384 . S
H5172 C5178 0.930 . S
H5173 C5182 0.930 . S
H5174 C5187 0.929 . S
H5175 C5185 0.929 . S
H5176 C5180 0.929 1_556 S
H5177 C5186 0.929 1_554 S
C5178 H5172 0.930 . S
C5178 C5179 1.367 . S
C5178 C5186 1.378 . S
C5179 C5178 1.367 . S
C5179 C5187 1.433 . S
C5180 H5176 0.929 1_554 S
C5180 C5182 1.378 . S
C5180 C5184 1.350 . S
C5181 C5184 1.463 1_556 S
C5181 C5186 1.350 . S
C5181 N5189 1.427 . S
C5182 H5173 0.930 . S
C5182 C5180 1.378 . S
C5182 C5183 1.367 . S
C5183 C5182 1.367 . S
C5183 C5185 1.433 . S
C5184 C5180 1.350 . S
C5184 C5181 1.463 1_554 S
C5184 N5188 1.427 . S
C5185 H5175 0.929 . S
C5185 C5183 1.433 . S
C5185 N5188 1.384 . S
C5186 H5177 0.929 1_556 S
C5186 C5178 1.378 . S
C5186 C5181 1.350 . S
C5187 H5174 0.929 . S
C5187 C5179 1.433 . S
C5187 N5189 1.384 . S
N5188 C5184 1.427 . S
N5188 C5185 1.384 . S
N5189 C5181 1.427 . S
N5189 C5187 1.384 . S
H5190 C5196 0.930 . S
H5191 C5200 0.930 . S
H5192 C5205 0.929 . S
H5193 C5203 0.929 . S
H5194 C5198 0.929 . S
H5195 C5204 0.929 . S
C5196 H5190 0.930 . S
C5196 C5197 1.367 . S
C5196 C5204 1.378 . S
C5197 C5196 1.367 . S
C5197 C5205 1.433 . S
C5198 H5194 0.929 . S
C5198 C5200 1.378 . S
C5198 C5202 1.350 . S
C5199 C5202 1.463 . S
C5199 C5204 1.350 . S
C5199 N5207 1.427 . S
C5200 H5191 0.930 . S
C5200 C5198 1.378 . S
C5200 C5201 1.367 . S
C5201 C5200 1.367 . S
C5201 C5203 1.433 . S
C5202 C5198 1.350 . S
C5202 C5199 1.463 . S
C5202 N5206 1.427 . S
C5203 H5193 0.929 . S
C5203 C5201 1.433 . S
C5203 N5206 1.384 . S
C5204 H5195 0.929 . S
C5204 C5196 1.378 . S
C5204 C5199 1.350 . S
C5205 H5192 0.929 . S
C5205 C5197 1.433 . S
C5205 N5207 1.384 . S
N5206 C5202 1.427 . S
N5206 C5203 1.384 . S
N5207 C5199 1.427 . S
N5207 C5205 1.384 . S
H5208 C5214 0.930 . S
H5209 C5218 0.930 . S
H5210 C5223 0.929 . S
H5211 C5221 0.929 . S
H5212 C5216 0.929 . S
H5213 C5222 0.929 . S
C5214 H5208 0.930 . S
C5214 C5215 1.367 . S
C5214 C5222 1.378 . S
C5215 C5214 1.367 . S
C5215 C5223 1.433 . S
C5216 H5212 0.929 . S
C5216 C5218 1.378 . S
C5216 C5220 1.350 . S
C5217 C5220 1.463 . S
C5217 C5222 1.350 . S
C5217 N5225 1.427 . S
C5218 H5209 0.930 . S
C5218 C5216 1.378 . S
C5218 C5219 1.367 . S
C5219 C5218 1.367 . S
C5219 C5221 1.433 . S
C5220 C5216 1.350 . S
C5220 C5217 1.463 . S
C5220 N5224 1.427 . S
C5221 H5211 0.929 . S
C5221 C5219 1.433 . S
C5221 N5224 1.384 . S
C5222 H5213 0.929 . S
C5222 C5214 1.378 . S
C5222 C5217 1.350 . S
C5223 H5210 0.929 . S
C5223 C5215 1.433 . S
C5223 N5225 1.384 . S
N5224 C5220 1.427 . S
N5224 C5221 1.384 . S
N5225 C5217 1.427 . S
N5225 C5223 1.384 . S
H5226 C5232 0.930 . S
H5227 C5236 0.930 . S
H5228 C5241 0.929 . S
H5229 C5239 0.929 . S
H5230 C5234 0.929 . S
H5231 C5240 0.929 . S
C5232 H5226 0.930 . S
C5232 C5233 1.367 . S
C5232 C5240 1.378 . S
C5233 C5232 1.367 . S
C5233 C5241 1.433 . S
C5234 H5230 0.929 . S
C5234 C5236 1.378 . S
C5234 C5238 1.350 . S
C5235 C5238 1.463 . S
C5235 C5240 1.350 . S
C5235 N5243 1.427 . S
C5236 H5227 0.930 . S
C5236 C5234 1.378 . S
C5236 C5237 1.367 . S
C5237 C5236 1.367 . S
C5237 C5239 1.433 . S
C5238 C5234 1.350 . S
C5238 C5235 1.463 . S
C5238 N5242 1.427 . S
C5239 H5229 0.929 . S
C5239 C5237 1.433 . S
C5239 N5242 1.384 . S
C5240 H5231 0.929 . S
C5240 C5232 1.378 . S
C5240 C5235 1.350 . S
C5241 H5228 0.929 . S
C5241 C5233 1.433 . S
C5241 N5243 1.384 . S
N5242 C5238 1.427 . S
N5242 C5239 1.384 . S
N5243 C5235 1.427 . S
N5243 C5241 1.384 . S
H5244 C5250 0.930 . S
H5245 C5254 0.930 . S
H5246 C5259 0.929 . S
H5247 C5257 0.929 . S
H5248 C5252 0.929 . S
H5249 C5258 0.929 . S
C5250 H5244 0.930 . S
C5250 C5251 1.367 . S
C5250 C5258 1.378 . S
C5251 C5250 1.367 . S
C5251 C5259 1.433 . S
C5252 H5248 0.929 . S
C5252 C5254 1.378 . S
C5252 C5256 1.350 . S
C5253 C5256 1.463 . S
C5253 C5258 1.350 . S
C5253 N5261 1.427 . S
C5254 H5245 0.930 . S
C5254 C5252 1.378 . S
C5254 C5255 1.367 . S
C5255 C5254 1.367 . S
C5255 C5257 1.433 . S
C5256 C5252 1.350 . S
C5256 C5253 1.463 . S
C5256 N5260 1.427 . S
C5257 H5247 0.929 . S
C5257 C5255 1.433 . S
C5257 N5260 1.384 . S
C5258 H5249 0.929 . S
C5258 C5250 1.378 . S
C5258 C5253 1.350 . S
C5259 H5246 0.929 . S
C5259 C5251 1.433 . S
C5259 N5261 1.384 . S
N5260 C5256 1.427 . S
N5260 C5257 1.384 . S
N5261 C5253 1.427 . S
N5261 C5259 1.384 . S
H5262 C5268 0.930 . S
H5263 C5272 0.930 . S
H5264 C5277 0.929 . S
H5265 C5275 0.929 . S
H5266 C5270 0.929 1_565 S
H5267 C5276 0.929 1_545 S
C5268 H5262 0.930 . S
C5268 C5269 1.367 . S
C5268 C5276 1.378 . S
C5269 C5268 1.367 . S
C5269 C5277 1.433 . S
C5270 H5266 0.929 1_545 S
C5270 C5272 1.378 . S
C5270 C5274 1.350 . S
C5271 C5274 1.463 1_565 S
C5271 C5276 1.350 . S
C5271 N5279 1.427 . S
C5272 H5263 0.930 . S
C5272 C5270 1.378 . S
C5272 C5273 1.367 . S
C5273 C5272 1.367 . S
C5273 C5275 1.433 . S
C5274 C5270 1.350 . S
C5274 C5271 1.463 1_545 S
C5274 N5278 1.427 . S
C5275 H5265 0.929 . S
C5275 C5273 1.433 . S
C5275 N5278 1.384 . S
C5276 H5267 0.929 1_565 S
C5276 C5268 1.378 . S
C5276 C5271 1.350 . S
C5277 H5264 0.929 . S
C5277 C5269 1.433 . S
C5277 N5279 1.384 . S
N5278 C5274 1.427 . S
N5278 C5275 1.384 . S
N5279 C5271 1.427 . S
N5279 C5277 1.384 . S
H5280 C5286 0.930 . S
H5281 C5290 0.930 . S
H5282 C5295 0.929 . S
H5283 C5293 0.929 . S
H5284 C5288 0.929 . S
H5285 C5294 0.929 . S
C5286 H5280 0.930 . S
C5286 C5287 1.367 . S
C5286 C5294 1.378 . S
C5287 C5286 1.367 . S
C5287 C5295 1.433 . S
C5288 H5284 0.929 . S
C5288 C5290 1.378 . S
C5288 C5292 1.350 . S
C5289 C5292 1.463 . S
C5289 C5294 1.350 . S
C5289 N5297 1.427 . S
C5290 H5281 0.930 . S
C5290 C5288 1.378 . S
C5290 C5291 1.367 . S
C5291 C5290 1.367 . S
C5291 C5293 1.433 . S
C5292 C5288 1.350 . S
C5292 C5289 1.463 . S
C5292 N5296 1.427 . S
C5293 H5283 0.929 . S
C5293 C5291 1.433 . S
C5293 N5296 1.384 . S
C5294 H5285 0.929 . S
C5294 C5286 1.378 . S
C5294 C5289 1.350 . S
C5295 H5282 0.929 . S
C5295 C5287 1.433 . S
C5295 N5297 1.384 . S
N5296 C5292 1.427 . S
N5296 C5293 1.384 . S
N5297 C5289 1.427 . S
N5297 C5295 1.384 . S
H5298 C5304 0.930 . S
H5299 C5308 0.930 . S
H5300 C5313 0.929 . S
H5301 C5311 0.929 . S
H5302 C5306 0.929 . S
H5303 C5312 0.929 . S
C5304 H5298 0.930 . S
C5304 C5305 1.367 . S
C5304 C5312 1.378 . S
C5305 C5304 1.367 . S
C5305 C5313 1.433 . S
C5306 H5302 0.929 . S
C5306 C5308 1.378 . S
C5306 C5310 1.350 . S
C5307 C5310 1.463 . S
C5307 C5312 1.350 . S
C5307 N5315 1.427 . S
C5308 H5299 0.930 . S
C5308 C5306 1.378 . S
C5308 C5309 1.367 . S
C5309 C5308 1.367 . S
C5309 C5311 1.433 . S
C5310 C5306 1.350 . S
C5310 C5307 1.463 . S
C5310 N5314 1.427 . S
C5311 H5301 0.929 . S
C5311 C5309 1.433 . S
C5311 N5314 1.384 . S
C5312 H5303 0.929 . S
C5312 C5304 1.378 . S
C5312 C5307 1.350 . S
C5313 H5300 0.929 . S
C5313 C5305 1.433 . S
C5313 N5315 1.384 . S
N5314 C5310 1.427 . S
N5314 C5311 1.384 . S
N5315 C5307 1.427 . S
N5315 C5313 1.384 . S
H5316 C5322 0.930 . S
H5317 C5326 0.930 . S
H5318 C5331 0.929 . S
H5319 C5329 0.929 . S
H5320 C5324 0.929 . S
H5321 C5330 0.929 . S
C5322 H5316 0.930 . S
C5322 C5323 1.367 . S
C5322 C5330 1.378 . S
C5323 C5322 1.367 . S
C5323 C5331 1.433 . S
C5324 H5320 0.929 . S
C5324 C5326 1.378 . S
C5324 C5328 1.350 . S
C5325 C5328 1.463 . S
C5325 C5330 1.350 . S
C5325 N5333 1.427 . S
C5326 H5317 0.930 . S
C5326 C5324 1.378 . S
C5326 C5327 1.367 . S
C5327 C5326 1.367 . S
C5327 C5329 1.433 . S
C5328 C5324 1.350 . S
C5328 C5325 1.463 . S
C5328 N5332 1.427 . S
C5329 H5319 0.929 . S
C5329 C5327 1.433 . S
C5329 N5332 1.384 . S
C5330 H5321 0.929 . S
C5330 C5322 1.378 . S
C5330 C5325 1.350 . S
C5331 H5318 0.929 . S
C5331 C5323 1.433 . S
C5331 N5333 1.384 . S
N5332 C5328 1.427 . S
N5332 C5329 1.384 . S
N5333 C5325 1.427 . S
N5333 C5331 1.384 . S
H5334 C5340 0.930 . S
H5335 C5344 0.930 . S
H5336 C5349 0.929 . S
H5337 C5347 0.929 . S
H5338 C5342 0.929 . S
H5339 C5348 0.929 . S
C5340 H5334 0.930 . S
C5340 C5341 1.367 . S
C5340 C5348 1.378 . S
C5341 C5340 1.367 . S
C5341 C5349 1.433 . S
C5342 H5338 0.929 . S
C5342 C5344 1.378 . S
C5342 C5346 1.350 . S
C5343 C5346 1.463 . S
C5343 C5348 1.350 . S
C5343 N5351 1.427 . S
C5344 H5335 0.930 . S
C5344 C5342 1.378 . S
C5344 C5345 1.367 . S
C5345 C5344 1.367 . S
C5345 C5347 1.433 . S
C5346 C5342 1.350 . S
C5346 C5343 1.463 . S
C5346 N5350 1.427 . S
C5347 H5337 0.929 . S
C5347 C5345 1.433 . S
C5347 N5350 1.384 . S
C5348 H5339 0.929 . S
C5348 C5340 1.378 . S
C5348 C5343 1.350 . S
C5349 H5336 0.929 . S
C5349 C5341 1.433 . S
C5349 N5351 1.384 . S
N5350 C5346 1.427 . S
N5350 C5347 1.384 . S
N5351 C5343 1.427 . S
N5351 C5349 1.384 . S
H5352 C5358 0.930 . S
H5353 C5362 0.930 . S
H5354 C5367 0.929 . S
H5355 C5365 0.929 . S
H5356 C5360 0.929 . S
H5357 C5366 0.929 . S
C5358 H5352 0.930 . S
C5358 C5359 1.367 . S
C5358 C5366 1.378 . S
C5359 C5358 1.367 . S
C5359 C5367 1.433 . S
C5360 H5356 0.929 . S
C5360 C5362 1.378 . S
C5360 C5364 1.350 . S
C5361 C5364 1.463 . S
C5361 C5366 1.350 . S
C5361 N5369 1.427 . S
C5362 H5353 0.930 . S
C5362 C5360 1.378 . S
C5362 C5363 1.367 . S
C5363 C5362 1.367 . S
C5363 C5365 1.433 . S
C5364 C5360 1.350 . S
C5364 C5361 1.463 . S
C5364 N5368 1.427 . S
C5365 H5355 0.929 . S
C5365 C5363 1.433 . S
C5365 N5368 1.384 . S
C5366 H5357 0.929 . S
C5366 C5358 1.378 . S
C5366 C5361 1.350 . S
C5367 H5354 0.929 . S
C5367 C5359 1.433 . S
C5367 N5369 1.384 . S
N5368 C5364 1.427 . S
N5368 C5365 1.384 . S
N5369 C5361 1.427 . S
N5369 C5367 1.384 . S
H5370 C5376 0.930 . S
H5371 C5380 0.930 . S
H5372 C5385 0.929 . S
H5373 C5383 0.929 . S
H5374 C5378 0.929 . S
H5375 C5384 0.929 . S
C5376 H5370 0.930 . S
C5376 C5377 1.367 . S
C5376 C5384 1.378 . S
C5377 C5376 1.367 . S
C5377 C5385 1.433 . S
C5378 H5374 0.929 . S
C5378 C5380 1.378 . S
C5378 C5382 1.350 . S
C5379 C5382 1.463 . S
C5379 C5384 1.350 . S
C5379 N5387 1.427 . S
C5380 H5371 0.930 . S
C5380 C5378 1.378 . S
C5380 C5381 1.367 . S
C5381 C5380 1.367 . S
C5381 C5383 1.433 . S
C5382 C5378 1.350 . S
C5382 C5379 1.463 . S
C5382 N5386 1.427 . S
C5383 H5373 0.929 . S
C5383 C5381 1.433 . S
C5383 N5386 1.384 . S
C5384 H5375 0.929 . S
C5384 C5376 1.378 . S
C5384 C5379 1.350 . S
C5385 H5372 0.929 . S
C5385 C5377 1.433 . S
C5385 N5387 1.384 . S
N5386 C5382 1.427 . S
N5386 C5383 1.384 . S
N5387 C5379 1.427 . S
N5387 C5385 1.384 . S
H5388 C5394 0.930 . S
H5389 C5398 0.930 . S
H5390 C5403 0.929 . S
H5391 C5401 0.929 . S
H5392 C5396 0.929 . S
H5393 C5402 0.929 . S
C5394 H5388 0.930 . S
C5394 C5395 1.367 . S
C5394 C5402 1.378 . S
C5395 C5394 1.367 . S
C5395 C5403 1.433 . S
C5396 H5392 0.929 . S
C5396 C5398 1.378 . S
C5396 C5400 1.350 . S
C5397 C5400 1.463 . S
C5397 C5402 1.350 . S
C5397 N5405 1.427 . S
C5398 H5389 0.930 . S
C5398 C5396 1.378 . S
C5398 C5399 1.367 . S
C5399 C5398 1.367 . S
C5399 C5401 1.433 . S
C5400 C5396 1.350 . S
C5400 C5397 1.463 . S
C5400 N5404 1.427 . S
C5401 H5391 0.929 . S
C5401 C5399 1.433 . S
C5401 N5404 1.384 . S
C5402 H5393 0.929 . S
C5402 C5394 1.378 . S
C5402 C5397 1.350 . S
C5403 H5390 0.929 . S
C5403 C5395 1.433 . S
C5403 N5405 1.384 . S
N5404 C5400 1.427 . S
N5404 C5401 1.384 . S
N5405 C5397 1.427 . S
N5405 C5403 1.384 . S
H5406 C5412 0.930 . S
H5407 C5416 0.930 . S
H5408 C5421 0.929 . S
H5409 C5419 0.929 . S
H5410 C5414 0.929 . S
H5411 C5420 0.929 . S
C5412 H5406 0.930 . S
C5412 C5413 1.367 . S
C5412 C5420 1.378 . S
C5413 C5412 1.367 . S
C5413 C5421 1.433 . S
C5414 H5410 0.929 . S
C5414 C5416 1.378 . S
C5414 C5418 1.350 . S
C5415 C5418 1.463 . S
C5415 C5420 1.350 . S
C5415 N5423 1.427 . S
C5416 H5407 0.930 . S
C5416 C5414 1.378 . S
C5416 C5417 1.367 . S
C5417 C5416 1.367 . S
C5417 C5419 1.433 . S
C5418 C5414 1.350 . S
C5418 C5415 1.463 . S
C5418 N5422 1.427 . S
C5419 H5409 0.929 . S
C5419 C5417 1.433 . S
C5419 N5422 1.384 . S
C5420 H5411 0.929 . S
C5420 C5412 1.378 . S
C5420 C5415 1.350 . S
C5421 H5408 0.929 . S
C5421 C5413 1.433 . S
C5421 N5423 1.384 . S
N5422 C5418 1.427 . S
N5422 C5419 1.384 . S
N5423 C5415 1.427 . S
N5423 C5421 1.384 . S
H5424 C5430 0.930 . S
H5425 C5434 0.930 . S
H5426 C5439 0.929 . S
H5427 C5437 0.929 . S
H5428 C5432 0.929 . S
H5429 C5438 0.929 . S
C5430 H5424 0.930 . S
C5430 C5431 1.367 . S
C5430 C5438 1.378 . S
C5431 C5430 1.367 . S
C5431 C5439 1.433 . S
C5432 H5428 0.929 . S
C5432 C5434 1.378 . S
C5432 C5436 1.350 . S
C5433 C5436 1.463 . S
C5433 C5438 1.350 . S
C5433 N5441 1.427 . S
C5434 H5425 0.930 . S
C5434 C5432 1.378 . S
C5434 C5435 1.367 . S
C5435 C5434 1.367 . S
C5435 C5437 1.433 . S
C5436 C5432 1.350 . S
C5436 C5433 1.463 . S
C5436 N5440 1.427 . S
C5437 H5427 0.929 . S
C5437 C5435 1.433 . S
C5437 N5440 1.384 . S
C5438 H5429 0.929 . S
C5438 C5430 1.378 . S
C5438 C5433 1.350 . S
C5439 H5426 0.929 . S
C5439 C5431 1.433 . S
C5439 N5441 1.384 . S
N5440 C5436 1.427 . S
N5440 C5437 1.384 . S
N5441 C5433 1.427 . S
N5441 C5439 1.384 . S
H5442 C5448 0.930 . S
H5443 C5452 0.930 . S
H5444 C5457 0.929 . S
H5445 C5455 0.929 . S
H5446 C5450 0.929 . S
H5447 C5456 0.929 . S
C5448 H5442 0.930 . S
C5448 C5449 1.367 . S
C5448 C5456 1.378 . S
C5449 C5448 1.367 . S
C5449 C5457 1.433 . S
C5450 H5446 0.929 . S
C5450 C5452 1.378 . S
C5450 C5454 1.350 . S
C5451 C5454 1.463 . S
C5451 C5456 1.350 . S
C5451 N5459 1.427 . S
C5452 H5443 0.930 . S
C5452 C5450 1.378 . S
C5452 C5453 1.367 . S
C5453 C5452 1.367 . S
C5453 C5455 1.433 . S
C5454 C5450 1.350 . S
C5454 C5451 1.463 . S
C5454 N5458 1.427 . S
C5455 H5445 0.929 . S
C5455 C5453 1.433 . S
C5455 N5458 1.384 . S
C5456 H5447 0.929 . S
C5456 C5448 1.378 . S
C5456 C5451 1.350 . S
C5457 H5444 0.929 . S
C5457 C5449 1.433 . S
C5457 N5459 1.384 . S
N5458 C5454 1.427 . S
N5458 C5455 1.384 . S
N5459 C5451 1.427 . S
N5459 C5457 1.384 . S
H5460 C5466 0.930 . S
H5461 C5470 0.930 . S
H5462 C5475 0.929 . S
H5463 C5473 0.929 . S
H5464 C5468 0.929 . S
H5465 C5474 0.929 . S
C5466 H5460 0.930 . S
C5466 C5467 1.367 . S
C5466 C5474 1.378 . S
C5467 C5466 1.367 . S
C5467 C5475 1.433 . S
C5468 H5464 0.929 . S
C5468 C5470 1.378 . S
C5468 C5472 1.350 . S
C5469 C5472 1.463 . S
C5469 C5474 1.350 . S
C5469 N5477 1.427 . S
C5470 H5461 0.930 . S
C5470 C5468 1.378 . S
C5470 C5471 1.367 . S
C5471 C5470 1.367 . S
C5471 C5473 1.433 . S
C5472 C5468 1.350 . S
C5472 C5469 1.463 . S
C5472 N5476 1.427 . S
C5473 H5463 0.929 . S
C5473 C5471 1.433 . S
C5473 N5476 1.384 . S
C5474 H5465 0.929 . S
C5474 C5466 1.378 . S
C5474 C5469 1.350 . S
C5475 H5462 0.929 . S
C5475 C5467 1.433 . S
C5475 N5477 1.384 . S
N5476 C5472 1.427 . S
N5476 C5473 1.384 . S
N5477 C5469 1.427 . S
N5477 C5475 1.384 . S
H5478 C5484 0.930 . S
H5479 C5488 0.930 . S
H5480 C5493 0.929 . S
H5481 C5491 0.929 . S
H5482 C5486 0.929 . S
H5483 C5492 0.929 . S
C5484 H5478 0.930 . S
C5484 C5485 1.367 . S
C5484 C5492 1.378 . S
C5485 C5484 1.367 . S
C5485 C5493 1.433 . S
C5486 H5482 0.929 . S
C5486 C5488 1.378 . S
C5486 C5490 1.350 . S
C5487 C5490 1.463 . S
C5487 C5492 1.350 . S
C5487 N5495 1.427 . S
C5488 H5479 0.930 . S
C5488 C5486 1.378 . S
C5488 C5489 1.367 . S
C5489 C5488 1.367 . S
C5489 C5491 1.433 . S
C5490 C5486 1.350 . S
C5490 C5487 1.463 . S
C5490 N5494 1.427 . S
C5491 H5481 0.929 . S
C5491 C5489 1.433 . S
C5491 N5494 1.384 . S
C5492 H5483 0.929 . S
C5492 C5484 1.378 . S
C5492 C5487 1.350 . S
C5493 H5480 0.929 . S
C5493 C5485 1.433 . S
C5493 N5495 1.384 . S
N5494 C5490 1.427 . S
N5494 C5491 1.384 . S
N5495 C5487 1.427 . S
N5495 C5493 1.384 . S
H5496 C5502 0.930 . S
H5497 C5506 0.930 . S
H5498 C5511 0.929 . S
H5499 C5509 0.929 . S
H5500 C5504 0.929 . S
H5501 C5510 0.929 . S
C5502 H5496 0.930 . S
C5502 C5503 1.367 . S
C5502 C5510 1.378 . S
C5503 C5502 1.367 . S
C5503 C5511 1.433 . S
C5504 H5500 0.929 . S
C5504 C5506 1.378 . S
C5504 C5508 1.350 . S
C5505 C5508 1.463 . S
C5505 C5510 1.350 . S
C5505 N5513 1.427 . S
C5506 H5497 0.930 . S
C5506 C5504 1.378 . S
C5506 C5507 1.367 . S
C5507 C5506 1.367 . S
C5507 C5509 1.433 . S
C5508 C5504 1.350 . S
C5508 C5505 1.463 . S
C5508 N5512 1.427 . S
C5509 H5499 0.929 . S
C5509 C5507 1.433 . S
C5509 N5512 1.384 . S
C5510 H5501 0.929 . S
C5510 C5502 1.378 . S
C5510 C5505 1.350 . S
C5511 H5498 0.929 . S
C5511 C5503 1.433 . S
C5511 N5513 1.384 . S
N5512 C5508 1.427 . S
N5512 C5509 1.384 . S
N5513 C5505 1.427 . S
N5513 C5511 1.384 . S
H5514 C5520 0.930 . S
H5515 C5524 0.930 . S
H5516 C5529 0.929 . S
H5517 C5527 0.929 . S
H5518 C5522 0.929 . S
H5519 C5528 0.929 . S
C5520 H5514 0.930 . S
C5520 C5521 1.367 . S
C5520 C5528 1.378 . S
C5521 C5520 1.367 . S
C5521 C5529 1.433 . S
C5522 H5518 0.929 . S
C5522 C5524 1.378 . S
C5522 C5526 1.350 . S
C5523 C5526 1.463 . S
C5523 C5528 1.350 . S
C5523 N5531 1.427 . S
C5524 H5515 0.930 . S
C5524 C5522 1.378 . S
C5524 C5525 1.367 . S
C5525 C5524 1.367 . S
C5525 C5527 1.433 . S
C5526 C5522 1.350 . S
C5526 C5523 1.463 . S
C5526 N5530 1.427 . S
C5527 H5517 0.929 . S
C5527 C5525 1.433 . S
C5527 N5530 1.384 . S
C5528 H5519 0.929 . S
C5528 C5520 1.378 . S
C5528 C5523 1.350 . S
C5529 H5516 0.929 . S
C5529 C5521 1.433 . S
C5529 N5531 1.384 . S
N5530 C5526 1.427 . S
N5530 C5527 1.384 . S
N5531 C5523 1.427 . S
N5531 C5529 1.384 . S
H5532 C5538 0.930 . S
H5533 C5542 0.930 . S
H5534 C5547 0.929 . S
H5535 C5545 0.929 . S
H5536 C5540 0.929 . S
H5537 C5546 0.929 . S
C5538 H5532 0.930 . S
C5538 C5539 1.367 . S
C5538 C5546 1.378 . S
C5539 C5538 1.367 . S
C5539 C5547 1.433 . S
C5540 H5536 0.929 . S
C5540 C5542 1.378 . S
C5540 C5544 1.350 . S
C5541 C5544 1.463 . S
C5541 C5546 1.350 . S
C5541 N5549 1.427 . S
C5542 H5533 0.930 . S
C5542 C5540 1.378 . S
C5542 C5543 1.367 . S
C5543 C5542 1.367 . S
C5543 C5545 1.433 . S
C5544 C5540 1.350 . S
C5544 C5541 1.463 . S
C5544 N5548 1.427 . S
C5545 H5535 0.929 . S
C5545 C5543 1.433 . S
C5545 N5548 1.384 . S
C5546 H5537 0.929 . S
C5546 C5538 1.378 . S
C5546 C5541 1.350 . S
C5547 H5534 0.929 . S
C5547 C5539 1.433 . S
C5547 N5549 1.384 . S
N5548 C5544 1.427 . S
N5548 C5545 1.384 . S
N5549 C5541 1.427 . S
N5549 C5547 1.384 . S
H5550 C5556 0.930 . S
H5551 C5560 0.930 . S
H5552 C5565 0.929 . S
H5553 C5563 0.929 . S
H5554 C5558 0.929 . S
H5555 C5564 0.929 . S
C5556 H5550 0.930 . S
C5556 C5557 1.367 . S
C5556 C5564 1.378 . S
C5557 C5556 1.367 . S
C5557 C5565 1.433 . S
C5558 H5554 0.929 . S
C5558 C5560 1.378 . S
C5558 C5562 1.350 . S
C5559 C5562 1.463 . S
C5559 C5564 1.350 . S
C5559 N5567 1.427 . S
C5560 H5551 0.930 . S
C5560 C5558 1.378 . S
C5560 C5561 1.367 . S
C5561 C5560 1.367 . S
C5561 C5563 1.433 . S
C5562 C5558 1.350 . S
C5562 C5559 1.463 . S
C5562 N5566 1.427 . S
C5563 H5553 0.929 . S
C5563 C5561 1.433 . S
C5563 N5566 1.384 . S
C5564 H5555 0.929 . S
C5564 C5556 1.378 . S
C5564 C5559 1.350 . S
C5565 H5552 0.929 . S
C5565 C5557 1.433 . S
C5565 N5567 1.384 . S
N5566 C5562 1.427 . S
N5566 C5563 1.384 . S
N5567 C5559 1.427 . S
N5567 C5565 1.384 . S
H5568 C5574 0.930 . S
H5569 C5578 0.930 . S
H5570 C5583 0.929 . S
H5571 C5581 0.929 . S
H5572 C5576 0.929 . S
H5573 C5582 0.929 . S
C5574 H5568 0.930 . S
C5574 C5575 1.367 . S
C5574 C5582 1.378 . S
C5575 C5574 1.367 . S
C5575 C5583 1.433 . S
C5576 H5572 0.929 . S
C5576 C5578 1.378 . S
C5576 C5580 1.350 . S
C5577 C5580 1.463 . S
C5577 C5582 1.350 . S
C5577 N5585 1.427 . S
C5578 H5569 0.930 . S
C5578 C5576 1.378 . S
C5578 C5579 1.367 . S
C5579 C5578 1.367 . S
C5579 C5581 1.433 . S
C5580 C5576 1.350 . S
C5580 C5577 1.463 . S
C5580 N5584 1.427 . S
C5581 H5571 0.929 . S
C5581 C5579 1.433 . S
C5581 N5584 1.384 . S
C5582 H5573 0.929 . S
C5582 C5574 1.378 . S
C5582 C5577 1.350 . S
C5583 H5570 0.929 . S
C5583 C5575 1.433 . S
C5583 N5585 1.384 . S
N5584 C5580 1.427 . S
N5584 C5581 1.384 . S
N5585 C5577 1.427 . S
N5585 C5583 1.384 . S
H5586 C5592 0.930 . S
H5587 C5596 0.930 . S
H5588 C5601 0.929 . S
H5589 C5599 0.929 . S
H5590 C5594 0.929 . S
H5591 C5600 0.929 . S
C5592 H5586 0.930 . S
C5592 C5593 1.367 . S
C5592 C5600 1.378 . S
C5593 C5592 1.367 . S
C5593 C5601 1.433 . S
C5594 H5590 0.929 . S
C5594 C5596 1.378 . S
C5594 C5598 1.350 . S
C5595 C5598 1.463 . S
C5595 C5600 1.350 . S
C5595 N5603 1.427 . S
C5596 H5587 0.930 . S
C5596 C5594 1.378 . S
C5596 C5597 1.367 . S
C5597 C5596 1.367 . S
C5597 C5599 1.433 . S
C5598 C5594 1.350 . S
C5598 C5595 1.463 . S
C5598 N5602 1.427 . S
C5599 H5589 0.929 . S
C5599 C5597 1.433 . S
C5599 N5602 1.384 . S
C5600 H5591 0.929 . S
C5600 C5592 1.378 . S
C5600 C5595 1.350 . S
C5601 H5588 0.929 . S
C5601 C5593 1.433 . S
C5601 N5603 1.384 . S
N5602 C5598 1.427 . S
N5602 C5599 1.384 . S
N5603 C5595 1.427 . S
N5603 C5601 1.384 . S
H5604 C5610 0.930 . S
H5605 C5614 0.930 . S
H5606 C5619 0.929 . S
H5607 C5617 0.929 . S
H5608 C5612 0.929 . S
H5609 C5618 0.929 . S
C5610 H5604 0.930 . S
C5610 C5611 1.367 . S
C5610 C5618 1.378 . S
C5611 C5610 1.367 . S
C5611 C5619 1.433 . S
C5612 H5608 0.929 . S
C5612 C5614 1.378 . S
C5612 C5616 1.350 . S
C5613 C5616 1.463 . S
C5613 C5618 1.350 . S
C5613 N5621 1.427 . S
C5614 H5605 0.930 . S
C5614 C5612 1.378 . S
C5614 C5615 1.367 . S
C5615 C5614 1.367 . S
C5615 C5617 1.433 . S
C5616 C5612 1.350 . S
C5616 C5613 1.463 . S
C5616 N5620 1.427 . S
C5617 H5607 0.929 . S
C5617 C5615 1.433 . S
C5617 N5620 1.384 . S
C5618 H5609 0.929 . S
C5618 C5610 1.378 . S
C5618 C5613 1.350 . S
C5619 H5606 0.929 . S
C5619 C5611 1.433 . S
C5619 N5621 1.384 . S
N5620 C5616 1.427 . S
N5620 C5617 1.384 . S
N5621 C5613 1.427 . S
N5621 C5619 1.384 . S
H5622 C5628 0.930 . S
H5623 C5632 0.930 . S
H5624 C5637 0.929 . S
H5625 C5635 0.929 . S
H5626 C5630 0.929 . S
H5627 C5636 0.929 . S
C5628 H5622 0.930 . S
C5628 C5629 1.367 . S
C5628 C5636 1.378 . S
C5629 C5628 1.367 . S
C5629 C5637 1.433 . S
C5630 H5626 0.929 . S
C5630 C5632 1.378 . S
C5630 C5634 1.350 . S
C5631 C5634 1.463 . S
C5631 C5636 1.350 . S
C5631 N5639 1.427 . S
C5632 H5623 0.930 . S
C5632 C5630 1.378 . S
C5632 C5633 1.367 . S
C5633 C5632 1.367 . S
C5633 C5635 1.433 . S
C5634 C5630 1.350 . S
C5634 C5631 1.463 . S
C5634 N5638 1.427 . S
C5635 H5625 0.929 . S
C5635 C5633 1.433 . S
C5635 N5638 1.384 . S
C5636 H5627 0.929 . S
C5636 C5628 1.378 . S
C5636 C5631 1.350 . S
C5637 H5624 0.929 . S
C5637 C5629 1.433 . S
C5637 N5639 1.384 . S
N5638 C5634 1.427 . S
N5638 C5635 1.384 . S
N5639 C5631 1.427 . S
N5639 C5637 1.384 . S
H5640 C5646 0.930 . S
H5641 C5650 0.930 . S
H5642 C5655 0.929 . S
H5643 C5653 0.929 . S
H5644 C5648 0.929 . S
H5645 C5654 0.929 . S
C5646 H5640 0.930 . S
C5646 C5647 1.367 . S
C5646 C5654 1.378 . S
C5647 C5646 1.367 . S
C5647 C5655 1.433 . S
C5648 H5644 0.929 . S
C5648 C5650 1.378 . S
C5648 C5652 1.350 . S
C5649 C5652 1.463 . S
C5649 C5654 1.350 . S
C5649 N5657 1.427 . S
C5650 H5641 0.930 . S
C5650 C5648 1.378 . S
C5650 C5651 1.367 . S
C5651 C5650 1.367 . S
C5651 C5653 1.433 . S
C5652 C5648 1.350 . S
C5652 C5649 1.463 . S
C5652 N5656 1.427 . S
C5653 H5643 0.929 . S
C5653 C5651 1.433 . S
C5653 N5656 1.384 . S
C5654 H5645 0.929 . S
C5654 C5646 1.378 . S
C5654 C5649 1.350 . S
C5655 H5642 0.929 . S
C5655 C5647 1.433 . S
C5655 N5657 1.384 . S
N5656 C5652 1.427 . S
N5656 C5653 1.384 . S
N5657 C5649 1.427 . S
N5657 C5655 1.384 . S
H5658 C5664 0.930 . S
H5659 C5668 0.930 . S
H5660 C5673 0.929 . S
H5661 C5671 0.929 . S
H5662 C5666 0.929 . S
H5663 C5672 0.929 . S
C5664 H5658 0.930 . S
C5664 C5665 1.367 . S
C5664 C5672 1.378 . S
C5665 C5664 1.367 . S
C5665 C5673 1.433 . S
C5666 H5662 0.929 . S
C5666 C5668 1.378 . S
C5666 C5670 1.350 . S
C5667 C5670 1.463 . S
C5667 C5672 1.350 . S
C5667 N5675 1.427 . S
C5668 H5659 0.930 . S
C5668 C5666 1.378 . S
C5668 C5669 1.367 . S
C5669 C5668 1.367 . S
C5669 C5671 1.433 . S
C5670 C5666 1.350 . S
C5670 C5667 1.463 . S
C5670 N5674 1.427 . S
C5671 H5661 0.929 . S
C5671 C5669 1.433 . S
C5671 N5674 1.384 . S
C5672 H5663 0.929 . S
C5672 C5664 1.378 . S
C5672 C5667 1.350 . S
C5673 H5660 0.929 . S
C5673 C5665 1.433 . S
C5673 N5675 1.384 . S
N5674 C5670 1.427 . S
N5674 C5671 1.384 . S
N5675 C5667 1.427 . S
N5675 C5673 1.384 . S
H5676 C5682 0.930 . S
H5677 C5686 0.930 . S
H5678 C5691 0.929 . S
H5679 C5689 0.929 . S
H5680 C5684 0.929 . S
H5681 C5690 0.929 . S
C5682 H5676 0.930 . S
C5682 C5683 1.367 . S
C5682 C5690 1.378 . S
C5683 C5682 1.367 . S
C5683 C5691 1.433 . S
C5684 H5680 0.929 . S
C5684 C5686 1.378 . S
C5684 C5688 1.350 . S
C5685 C5688 1.463 . S
C5685 C5690 1.350 . S
C5685 N5693 1.427 . S
C5686 H5677 0.930 . S
C5686 C5684 1.378 . S
C5686 C5687 1.367 . S
C5687 C5686 1.367 . S
C5687 C5689 1.433 . S
C5688 C5684 1.350 . S
C5688 C5685 1.463 . S
C5688 N5692 1.427 . S
C5689 H5679 0.929 . S
C5689 C5687 1.433 . S
C5689 N5692 1.384 . S
C5690 H5681 0.929 . S
C5690 C5682 1.378 . S
C5690 C5685 1.350 . S
C5691 H5678 0.929 . S
C5691 C5683 1.433 . S
C5691 N5693 1.384 . S
N5692 C5688 1.427 . S
N5692 C5689 1.384 . S
N5693 C5685 1.427 . S
N5693 C5691 1.384 . S
H5694 C5700 0.930 . S
H5695 C5704 0.930 . S
H5696 C5709 0.929 . S
H5697 C5707 0.929 . S
H5698 C5702 0.929 . S
H5699 C5708 0.929 . S
C5700 H5694 0.930 . S
C5700 C5701 1.367 . S
C5700 C5708 1.378 . S
C5701 C5700 1.367 . S
C5701 C5709 1.433 . S
C5702 H5698 0.929 . S
C5702 C5704 1.378 . S
C5702 C5706 1.350 . S
C5703 C5706 1.463 . S
C5703 C5708 1.350 . S
C5703 N5711 1.427 . S
C5704 H5695 0.930 . S
C5704 C5702 1.378 . S
C5704 C5705 1.367 . S
C5705 C5704 1.367 . S
C5705 C5707 1.433 . S
C5706 C5702 1.350 . S
C5706 C5703 1.463 . S
C5706 N5710 1.427 . S
C5707 H5697 0.929 . S
C5707 C5705 1.433 . S
C5707 N5710 1.384 . S
C5708 H5699 0.929 . S
C5708 C5700 1.378 . S
C5708 C5703 1.350 . S
C5709 H5696 0.929 . S
C5709 C5701 1.433 . S
C5709 N5711 1.384 . S
N5710 C5706 1.427 . S
N5710 C5707 1.384 . S
N5711 C5703 1.427 . S
N5711 C5709 1.384 . S
H5712 C5718 0.930 . S
H5713 C5722 0.930 . S
H5714 C5727 0.929 . S
H5715 C5725 0.929 . S
H5716 C5720 0.929 . S
H5717 C5726 0.929 . S
C5718 H5712 0.930 . S
C5718 C5719 1.367 . S
C5718 C5726 1.378 . S
C5719 C5718 1.367 . S
C5719 C5727 1.433 . S
C5720 H5716 0.929 . S
C5720 C5722 1.378 . S
C5720 C5724 1.350 . S
C5721 C5724 1.463 . S
C5721 C5726 1.350 . S
C5721 N5729 1.427 . S
C5722 H5713 0.930 . S
C5722 C5720 1.378 . S
C5722 C5723 1.367 . S
C5723 C5722 1.367 . S
C5723 C5725 1.433 . S
C5724 C5720 1.350 . S
C5724 C5721 1.463 . S
C5724 N5728 1.427 . S
C5725 H5715 0.929 . S
C5725 C5723 1.433 . S
C5725 N5728 1.384 . S
C5726 H5717 0.929 . S
C5726 C5718 1.378 . S
C5726 C5721 1.350 . S
C5727 H5714 0.929 . S
C5727 C5719 1.433 . S
C5727 N5729 1.384 . S
N5728 C5724 1.427 . S
N5728 C5725 1.384 . S
N5729 C5721 1.427 . S
N5729 C5727 1.384 . S
H5730 C5736 0.930 . S
H5731 C5740 0.930 . S
H5732 C5745 0.929 . S
H5733 C5743 0.929 . S
H5734 C5738 0.929 . S
H5735 C5744 0.929 . S
C5736 H5730 0.930 . S
C5736 C5737 1.367 . S
C5736 C5744 1.378 . S
C5737 C5736 1.367 . S
C5737 C5745 1.433 . S
C5738 H5734 0.929 . S
C5738 C5740 1.378 . S
C5738 C5742 1.350 . S
C5739 C5742 1.463 . S
C5739 C5744 1.350 . S
C5739 N5747 1.427 . S
C5740 H5731 0.930 . S
C5740 C5738 1.378 . S
C5740 C5741 1.367 . S
C5741 C5740 1.367 . S
C5741 C5743 1.433 . S
C5742 C5738 1.350 . S
C5742 C5739 1.463 . S
C5742 N5746 1.427 . S
C5743 H5733 0.929 . S
C5743 C5741 1.433 . S
C5743 N5746 1.384 . S
C5744 H5735 0.929 . S
C5744 C5736 1.378 . S
C5744 C5739 1.350 . S
C5745 H5732 0.929 . S
C5745 C5737 1.433 . S
C5745 N5747 1.384 . S
N5746 C5742 1.427 . S
N5746 C5743 1.384 . S
N5747 C5739 1.427 . S
N5747 C5745 1.384 . S
H5748 C5754 0.930 . S
H5749 C5758 0.930 . S
H5750 C5763 0.929 . S
H5751 C5761 0.929 . S
H5752 C5756 0.929 . S
H5753 C5762 0.929 . S
C5754 H5748 0.930 . S
C5754 C5755 1.367 . S
C5754 C5762 1.378 . S
C5755 C5754 1.367 . S
C5755 C5763 1.433 . S
C5756 H5752 0.929 . S
C5756 C5758 1.378 . S
C5756 C5760 1.350 . S
C5757 C5760 1.463 . S
C5757 C5762 1.350 . S
C5757 N5765 1.427 . S
C5758 H5749 0.930 . S
C5758 C5756 1.378 . S
C5758 C5759 1.367 . S
C5759 C5758 1.367 . S
C5759 C5761 1.433 . S
C5760 C5756 1.350 . S
C5760 C5757 1.463 . S
C5760 N5764 1.427 . S
C5761 H5751 0.929 . S
C5761 C5759 1.433 . S
C5761 N5764 1.384 . S
C5762 H5753 0.929 . S
C5762 C5754 1.378 . S
C5762 C5757 1.350 . S
C5763 H5750 0.929 . S
C5763 C5755 1.433 . S
C5763 N5765 1.384 . S
N5764 C5760 1.427 . S
N5764 C5761 1.384 . S
N5765 C5757 1.427 . S
N5765 C5763 1.384 . S
H5766 C5772 0.930 . S
H5767 C5776 0.930 . S
H5768 C5781 0.929 . S
H5769 C5779 0.929 . S
H5770 C5774 0.929 . S
H5771 C5780 0.929 . S
C5772 H5766 0.930 . S
C5772 C5773 1.367 . S
C5772 C5780 1.378 . S
C5773 C5772 1.367 . S
C5773 C5781 1.433 . S
C5774 H5770 0.929 . S
C5774 C5776 1.378 . S
C5774 C5778 1.350 . S
C5775 C5778 1.463 . S
C5775 C5780 1.350 . S
C5775 N5783 1.427 . S
C5776 H5767 0.930 . S
C5776 C5774 1.378 . S
C5776 C5777 1.367 . S
C5777 C5776 1.367 . S
C5777 C5779 1.433 . S
C5778 C5774 1.350 . S
C5778 C5775 1.463 . S
C5778 N5782 1.427 . S
C5779 H5769 0.929 . S
C5779 C5777 1.433 . S
C5779 N5782 1.384 . S
C5780 H5771 0.929 . S
C5780 C5772 1.378 . S
C5780 C5775 1.350 . S
C5781 H5768 0.929 . S
C5781 C5773 1.433 . S
C5781 N5783 1.384 . S
N5782 C5778 1.427 . S
N5782 C5779 1.384 . S
N5783 C5775 1.427 . S
N5783 C5781 1.384 . S
H5784 C5790 0.930 . S
H5785 C5794 0.930 . S
H5786 C5799 0.929 . S
H5787 C5797 0.929 . S
H5788 C5792 0.929 . S
H5789 C5798 0.929 . S
C5790 H5784 0.930 . S
C5790 C5791 1.367 . S
C5790 C5798 1.378 . S
C5791 C5790 1.367 . S
C5791 C5799 1.433 . S
C5792 H5788 0.929 . S
C5792 C5794 1.378 . S
C5792 C5796 1.350 . S
C5793 C5796 1.463 . S
C5793 C5798 1.350 . S
C5793 N5801 1.427 . S
C5794 H5785 0.930 . S
C5794 C5792 1.378 . S
C5794 C5795 1.367 . S
C5795 C5794 1.367 . S
C5795 C5797 1.433 . S
C5796 C5792 1.350 . S
C5796 C5793 1.463 . S
C5796 N5800 1.427 . S
C5797 H5787 0.929 . S
C5797 C5795 1.433 . S
C5797 N5800 1.384 . S
C5798 H5789 0.929 . S
C5798 C5790 1.378 . S
C5798 C5793 1.350 . S
C5799 H5786 0.929 . S
C5799 C5791 1.433 . S
C5799 N5801 1.384 . S
N5800 C5796 1.427 . S
N5800 C5797 1.384 . S
N5801 C5793 1.427 . S
N5801 C5799 1.384 . S
H5802 C5808 0.930 . S
H5803 C5812 0.930 . S
H5804 C5817 0.929 . S
H5805 C5815 0.929 . S
H5806 C5810 0.929 . S
H5807 C5816 0.929 . S
C5808 H5802 0.930 . S
C5808 C5809 1.367 . S
C5808 C5816 1.378 . S
C5809 C5808 1.367 . S
C5809 C5817 1.433 . S
C5810 H5806 0.929 . S
C5810 C5812 1.378 . S
C5810 C5814 1.350 . S
C5811 C5814 1.463 . S
C5811 C5816 1.350 . S
C5811 N5819 1.427 . S
C5812 H5803 0.930 . S
C5812 C5810 1.378 . S
C5812 C5813 1.367 . S
C5813 C5812 1.367 . S
C5813 C5815 1.433 . S
C5814 C5810 1.350 . S
C5814 C5811 1.463 . S
C5814 N5818 1.427 . S
C5815 H5805 0.929 . S
C5815 C5813 1.433 . S
C5815 N5818 1.384 . S
C5816 H5807 0.929 . S
C5816 C5808 1.378 . S
C5816 C5811 1.350 . S
C5817 H5804 0.929 . S
C5817 C5809 1.433 . S
C5817 N5819 1.384 . S
N5818 C5814 1.427 . S
N5818 C5815 1.384 . S
N5819 C5811 1.427 . S
N5819 C5817 1.384 . S
H5820 C5826 0.930 . S
H5821 C5830 0.930 . S
H5822 C5835 0.929 . S
H5823 C5833 0.929 . S
H5824 C5828 0.929 . S
H5825 C5834 0.929 . S
C5826 H5820 0.930 . S
C5826 C5827 1.367 . S
C5826 C5834 1.378 . S
C5827 C5826 1.367 . S
C5827 C5835 1.433 . S
C5828 H5824 0.929 . S
C5828 C5830 1.378 . S
C5828 C5832 1.350 . S
C5829 C5832 1.463 . S
C5829 C5834 1.350 . S
C5829 N5837 1.427 . S
C5830 H5821 0.930 . S
C5830 C5828 1.378 . S
C5830 C5831 1.367 . S
C5831 C5830 1.367 . S
C5831 C5833 1.433 . S
C5832 C5828 1.350 . S
C5832 C5829 1.463 . S
C5832 N5836 1.427 . S
C5833 H5823 0.929 . S
C5833 C5831 1.433 . S
C5833 N5836 1.384 . S
C5834 H5825 0.929 . S
C5834 C5826 1.378 . S
C5834 C5829 1.350 . S
C5835 H5822 0.929 . S
C5835 C5827 1.433 . S
C5835 N5837 1.384 . S
N5836 C5832 1.427 . S
N5836 C5833 1.384 . S
N5837 C5829 1.427 . S
N5837 C5835 1.384 . S
H5838 C5844 0.930 . S
H5839 C5848 0.930 . S
H5840 C5853 0.929 . S
H5841 C5851 0.929 . S
H5842 C5846 0.929 . S
H5843 C5852 0.929 . S
C5844 H5838 0.930 . S
C5844 C5845 1.367 . S
C5844 C5852 1.378 . S
C5845 C5844 1.367 . S
C5845 C5853 1.433 . S
C5846 H5842 0.929 . S
C5846 C5848 1.378 . S
C5846 C5850 1.350 . S
C5847 C5850 1.463 . S
C5847 C5852 1.350 . S
C5847 N5855 1.427 . S
C5848 H5839 0.930 . S
C5848 C5846 1.378 . S
C5848 C5849 1.367 . S
C5849 C5848 1.367 . S
C5849 C5851 1.433 . S
C5850 C5846 1.350 . S
C5850 C5847 1.463 . S
C5850 N5854 1.427 . S
C5851 H5841 0.929 . S
C5851 C5849 1.433 . S
C5851 N5854 1.384 . S
C5852 H5843 0.929 . S
C5852 C5844 1.378 . S
C5852 C5847 1.350 . S
C5853 H5840 0.929 . S
C5853 C5845 1.433 . S
C5853 N5855 1.384 . S
N5854 C5850 1.427 . S
N5854 C5851 1.384 . S
N5855 C5847 1.427 . S
N5855 C5853 1.384 . S
H5856 C5862 0.930 . S
H5857 C5866 0.930 . S
H5858 C5871 0.929 . S
H5859 C5869 0.929 . S
H5860 C5864 0.929 . S
H5861 C5870 0.929 . S
C5862 H5856 0.930 . S
C5862 C5863 1.367 . S
C5862 C5870 1.378 . S
C5863 C5862 1.367 . S
C5863 C5871 1.433 . S
C5864 H5860 0.929 . S
C5864 C5866 1.378 . S
C5864 C5868 1.350 . S
C5865 C5868 1.463 . S
C5865 C5870 1.350 . S
C5865 N5873 1.427 . S
C5866 H5857 0.930 . S
C5866 C5864 1.378 . S
C5866 C5867 1.367 . S
C5867 C5866 1.367 . S
C5867 C5869 1.433 . S
C5868 C5864 1.350 . S
C5868 C5865 1.463 . S
C5868 N5872 1.427 . S
C5869 H5859 0.929 . S
C5869 C5867 1.433 . S
C5869 N5872 1.384 . S
C5870 H5861 0.929 . S
C5870 C5862 1.378 . S
C5870 C5865 1.350 . S
C5871 H5858 0.929 . S
C5871 C5863 1.433 . S
C5871 N5873 1.384 . S
N5872 C5868 1.427 . S
N5872 C5869 1.384 . S
N5873 C5865 1.427 . S
N5873 C5871 1.384 . S
H5874 C5880 0.930 . S
H5875 C5884 0.930 . S
H5876 C5889 0.929 . S
H5877 C5887 0.929 . S
H5878 C5882 0.929 . S
H5879 C5888 0.929 . S
C5880 H5874 0.930 . S
C5880 C5881 1.367 . S
C5880 C5888 1.378 . S
C5881 C5880 1.367 . S
C5881 C5889 1.433 . S
C5882 H5878 0.929 . S
C5882 C5884 1.378 . S
C5882 C5886 1.350 . S
C5883 C5886 1.463 . S
C5883 C5888 1.350 . S
C5883 N5891 1.427 . S
C5884 H5875 0.930 . S
C5884 C5882 1.378 . S
C5884 C5885 1.367 . S
C5885 C5884 1.367 . S
C5885 C5887 1.433 . S
C5886 C5882 1.350 . S
C5886 C5883 1.463 . S
C5886 N5890 1.427 . S
C5887 H5877 0.929 . S
C5887 C5885 1.433 . S
C5887 N5890 1.384 . S
C5888 H5879 0.929 . S
C5888 C5880 1.378 . S
C5888 C5883 1.350 . S
C5889 H5876 0.929 . S
C5889 C5881 1.433 . S
C5889 N5891 1.384 . S
N5890 C5886 1.427 . S
N5890 C5887 1.384 . S
N5891 C5883 1.427 . S
N5891 C5889 1.384 . S
H5892 C5898 0.930 . S
H5893 C5902 0.930 . S
H5894 C5907 0.929 . S
H5895 C5905 0.929 . S
H5896 C5900 0.929 . S
H5897 C5906 0.929 . S
C5898 H5892 0.930 . S
C5898 C5899 1.367 . S
C5898 C5906 1.378 . S
C5899 C5898 1.367 . S
C5899 C5907 1.433 . S
C5900 H5896 0.929 . S
C5900 C5902 1.378 . S
C5900 C5904 1.350 . S
C5901 C5904 1.463 . S
C5901 C5906 1.350 . S
C5901 N5909 1.427 . S
C5902 H5893 0.930 . S
C5902 C5900 1.378 . S
C5902 C5903 1.367 . S
C5903 C5902 1.367 . S
C5903 C5905 1.433 . S
C5904 C5900 1.350 . S
C5904 C5901 1.463 . S
C5904 N5908 1.427 . S
C5905 H5895 0.929 . S
C5905 C5903 1.433 . S
C5905 N5908 1.384 . S
C5906 H5897 0.929 . S
C5906 C5898 1.378 . S
C5906 C5901 1.350 . S
C5907 H5894 0.929 . S
C5907 C5899 1.433 . S
C5907 N5909 1.384 . S
N5908 C5904 1.427 . S
N5908 C5905 1.384 . S
N5909 C5901 1.427 . S
N5909 C5907 1.384 . S
H5910 C5916 0.930 . S
H5911 C5920 0.930 . S
H5912 C5925 0.929 . S
H5913 C5923 0.929 . S
H5914 C5918 0.929 . S
H5915 C5924 0.929 . S
C5916 H5910 0.930 . S
C5916 C5917 1.367 . S
C5916 C5924 1.378 . S
C5917 C5916 1.367 . S
C5917 C5925 1.433 . S
C5918 H5914 0.929 . S
C5918 C5920 1.378 . S
C5918 C5922 1.350 . S
C5919 C5922 1.463 . S
C5919 C5924 1.350 . S
C5919 N5927 1.427 . S
C5920 H5911 0.930 . S
C5920 C5918 1.378 . S
C5920 C5921 1.367 . S
C5921 C5920 1.367 . S
C5921 C5923 1.433 . S
C5922 C5918 1.350 . S
C5922 C5919 1.463 . S
C5922 N5926 1.427 . S
C5923 H5913 0.929 . S
C5923 C5921 1.433 . S
C5923 N5926 1.384 . S
C5924 H5915 0.929 . S
C5924 C5916 1.378 . S
C5924 C5919 1.350 . S
C5925 H5912 0.929 . S
C5925 C5917 1.433 . S
C5925 N5927 1.384 . S
N5926 C5922 1.427 . S
N5926 C5923 1.384 . S
N5927 C5919 1.427 . S
N5927 C5925 1.384 . S
H5928 C5934 0.930 . S
H5929 C5938 0.930 . S
H5930 C5943 0.929 . S
H5931 C5941 0.929 . S
H5932 C5936 0.929 . S
H5933 C5942 0.929 . S
C5934 H5928 0.930 . S
C5934 C5935 1.367 . S
C5934 C5942 1.378 . S
C5935 C5934 1.367 . S
C5935 C5943 1.433 . S
C5936 H5932 0.929 . S
C5936 C5938 1.378 . S
C5936 C5940 1.350 . S
C5937 C5940 1.463 . S
C5937 C5942 1.350 . S
C5937 N5945 1.427 . S
C5938 H5929 0.930 . S
C5938 C5936 1.378 . S
C5938 C5939 1.367 . S
C5939 C5938 1.367 . S
C5939 C5941 1.433 . S
C5940 C5936 1.350 . S
C5940 C5937 1.463 . S
C5940 N5944 1.427 . S
C5941 H5931 0.929 . S
C5941 C5939 1.433 . S
C5941 N5944 1.384 . S
C5942 H5933 0.929 . S
C5942 C5934 1.378 . S
C5942 C5937 1.350 . S
C5943 H5930 0.929 . S
C5943 C5935 1.433 . S
C5943 N5945 1.384 . S
N5944 C5940 1.427 . S
N5944 C5941 1.384 . S
N5945 C5937 1.427 . S
N5945 C5943 1.384 . S
H5946 C5952 0.930 . S
H5947 C5956 0.930 . S
H5948 C5961 0.929 . S
H5949 C5959 0.929 . S
H5950 C5954 0.929 . S
H5951 C5960 0.929 . S
C5952 H5946 0.930 . S
C5952 C5953 1.367 . S
C5952 C5960 1.378 . S
C5953 C5952 1.367 . S
C5953 C5961 1.433 . S
C5954 H5950 0.929 . S
C5954 C5956 1.378 . S
C5954 C5958 1.350 . S
C5955 C5958 1.463 . S
C5955 C5960 1.350 . S
C5955 N5963 1.427 . S
C5956 H5947 0.930 . S
C5956 C5954 1.378 . S
C5956 C5957 1.367 . S
C5957 C5956 1.367 . S
C5957 C5959 1.433 . S
C5958 C5954 1.350 . S
C5958 C5955 1.463 . S
C5958 N5962 1.427 . S
C5959 H5949 0.929 . S
C5959 C5957 1.433 . S
C5959 N5962 1.384 . S
C5960 H5951 0.929 . S
C5960 C5952 1.378 . S
C5960 C5955 1.350 . S
C5961 H5948 0.929 . S
C5961 C5953 1.433 . S
C5961 N5963 1.384 . S
N5962 C5958 1.427 . S
N5962 C5959 1.384 . S
N5963 C5955 1.427 . S
N5963 C5961 1.384 . S
H5964 C5970 0.930 . S
H5965 C5974 0.930 . S
H5966 C5979 0.929 . S
H5967 C5977 0.929 . S
H5968 C5972 0.929 . S
H5969 C5978 0.929 . S
C5970 H5964 0.930 . S
C5970 C5971 1.367 . S
C5970 C5978 1.378 . S
C5971 C5970 1.367 . S
C5971 C5979 1.433 . S
C5972 H5968 0.929 . S
C5972 C5974 1.378 . S
C5972 C5976 1.350 . S
C5973 C5976 1.463 . S
C5973 C5978 1.350 . S
C5973 N5981 1.427 . S
C5974 H5965 0.930 . S
C5974 C5972 1.378 . S
C5974 C5975 1.367 . S
C5975 C5974 1.367 . S
C5975 C5977 1.433 . S
C5976 C5972 1.350 . S
C5976 C5973 1.463 . S
C5976 N5980 1.427 . S
C5977 H5967 0.929 . S
C5977 C5975 1.433 . S
C5977 N5980 1.384 . S
C5978 H5969 0.929 . S
C5978 C5970 1.378 . S
C5978 C5973 1.350 . S
C5979 H5966 0.929 . S
C5979 C5971 1.433 . S
C5979 N5981 1.384 . S
N5980 C5976 1.427 . S
N5980 C5977 1.384 . S
N5981 C5973 1.427 . S
N5981 C5979 1.384 . S
H5982 C5988 0.930 . S
H5983 C5992 0.930 . S
H5984 C5997 0.929 . S
H5985 C5995 0.929 . S
H5986 C5990 0.929 . S
H5987 C5996 0.929 . S
C5988 H5982 0.930 . S
C5988 C5989 1.367 . S
C5988 C5996 1.378 . S
C5989 C5988 1.367 . S
C5989 C5997 1.433 . S
C5990 H5986 0.929 . S
C5990 C5992 1.378 . S
C5990 C5994 1.350 . S
C5991 C5994 1.463 . S
C5991 C5996 1.350 . S
C5991 N5999 1.427 . S
C5992 H5983 0.930 . S
C5992 C5990 1.378 . S
C5992 C5993 1.367 . S
C5993 C5992 1.367 . S
C5993 C5995 1.433 . S
C5994 C5990 1.350 . S
C5994 C5991 1.463 . S
C5994 N5998 1.427 . S
C5995 H5985 0.929 . S
C5995 C5993 1.433 . S
C5995 N5998 1.384 . S
C5996 H5987 0.929 . S
C5996 C5988 1.378 . S
C5996 C5991 1.350 . S
C5997 H5984 0.929 . S
C5997 C5989 1.433 . S
C5997 N5999 1.384 . S
N5998 C5994 1.427 . S
N5998 C5995 1.384 . S
N5999 C5991 1.427 . S
N5999 C5997 1.384 . S
H6000 C6006 0.930 . S
H6001 C6010 0.930 . S
H6002 C6015 0.929 . S
H6003 C6013 0.929 . S
H6004 C6008 0.929 . S
H6005 C6014 0.929 . S
C6006 H6000 0.930 . S
C6006 C6007 1.367 . S
C6006 C6014 1.378 . S
C6007 C6006 1.367 . S
C6007 C6015 1.433 . S
C6008 H6004 0.929 . S
C6008 C6010 1.378 . S
C6008 C6012 1.350 . S
C6009 C6012 1.463 . S
C6009 C6014 1.350 . S
C6009 N6017 1.427 . S
C6010 H6001 0.930 . S
C6010 C6008 1.378 . S
C6010 C6011 1.367 . S
C6011 C6010 1.367 . S
C6011 C6013 1.433 . S
C6012 C6008 1.350 . S
C6012 C6009 1.463 . S
C6012 N6016 1.427 . S
C6013 H6003 0.929 . S
C6013 C6011 1.433 . S
C6013 N6016 1.384 . S
C6014 H6005 0.929 . S
C6014 C6006 1.378 . S
C6014 C6009 1.350 . S
C6015 H6002 0.929 . S
C6015 C6007 1.433 . S
C6015 N6017 1.384 . S
N6016 C6012 1.427 . S
N6016 C6013 1.384 . S
N6017 C6009 1.427 . S
N6017 C6015 1.384 . S
H6018 C6024 0.930 . S
H6019 C6028 0.930 . S
H6020 C6033 0.929 . S
H6021 C6031 0.929 . S
H6022 C6026 0.929 . S
H6023 C6032 0.929 . S
C6024 H6018 0.930 . S
C6024 C6025 1.367 . S
C6024 C6032 1.378 . S
C6025 C6024 1.367 . S
C6025 C6033 1.433 . S
C6026 H6022 0.929 . S
C6026 C6028 1.378 . S
C6026 C6030 1.350 . S
C6027 C6030 1.463 . S
C6027 C6032 1.350 . S
C6027 N6035 1.427 . S
C6028 H6019 0.930 . S
C6028 C6026 1.378 . S
C6028 C6029 1.367 . S
C6029 C6028 1.367 . S
C6029 C6031 1.433 . S
C6030 C6026 1.350 . S
C6030 C6027 1.463 . S
C6030 N6034 1.427 . S
C6031 H6021 0.929 . S
C6031 C6029 1.433 . S
C6031 N6034 1.384 . S
C6032 H6023 0.929 . S
C6032 C6024 1.378 . S
C6032 C6027 1.350 . S
C6033 H6020 0.929 . S
C6033 C6025 1.433 . S
C6033 N6035 1.384 . S
N6034 C6030 1.427 . S
N6034 C6031 1.384 . S
N6035 C6027 1.427 . S
N6035 C6033 1.384 . S
H6036 C6042 0.930 . S
H6037 C6046 0.930 . S
H6038 C6051 0.929 . S
H6039 C6049 0.929 . S
H6040 C6044 0.929 . S
H6041 C6050 0.929 . S
C6042 H6036 0.930 . S
C6042 C6043 1.367 . S
C6042 C6050 1.378 . S
C6043 C6042 1.367 . S
C6043 C6051 1.433 . S
C6044 H6040 0.929 . S
C6044 C6046 1.378 . S
C6044 C6048 1.350 . S
C6045 C6048 1.463 . S
C6045 C6050 1.350 . S
C6045 N6053 1.427 . S
C6046 H6037 0.930 . S
C6046 C6044 1.378 . S
C6046 C6047 1.367 . S
C6047 C6046 1.367 . S
C6047 C6049 1.433 . S
C6048 C6044 1.350 . S
C6048 C6045 1.463 . S
C6048 N6052 1.427 . S
C6049 H6039 0.929 . S
C6049 C6047 1.433 . S
C6049 N6052 1.384 . S
C6050 H6041 0.929 . S
C6050 C6042 1.378 . S
C6050 C6045 1.350 . S
C6051 H6038 0.929 . S
C6051 C6043 1.433 . S
C6051 N6053 1.384 . S
N6052 C6048 1.427 . S
N6052 C6049 1.384 . S
N6053 C6045 1.427 . S
N6053 C6051 1.384 . S
H6054 C6060 0.930 . S
H6055 C6064 0.930 . S
H6056 C6069 0.929 . S
H6057 C6067 0.929 . S
H6058 C6062 0.929 . S
H6059 C6068 0.929 . S
C6060 H6054 0.930 . S
C6060 C6061 1.367 . S
C6060 C6068 1.378 . S
C6061 C6060 1.367 . S
C6061 C6069 1.433 . S
C6062 H6058 0.929 . S
C6062 C6064 1.378 . S
C6062 C6066 1.350 . S
C6063 C6066 1.463 . S
C6063 C6068 1.350 . S
C6063 N6071 1.427 . S
C6064 H6055 0.930 . S
C6064 C6062 1.378 . S
C6064 C6065 1.367 . S
C6065 C6064 1.367 . S
C6065 C6067 1.433 . S
C6066 C6062 1.350 . S
C6066 C6063 1.463 . S
C6066 N6070 1.427 . S
C6067 H6057 0.929 . S
C6067 C6065 1.433 . S
C6067 N6070 1.384 . S
C6068 H6059 0.929 . S
C6068 C6060 1.378 . S
C6068 C6063 1.350 . S
C6069 H6056 0.929 . S
C6069 C6061 1.433 . S
C6069 N6071 1.384 . S
N6070 C6066 1.427 . S
N6070 C6067 1.384 . S
N6071 C6063 1.427 . S
N6071 C6069 1.384 . S
H6072 C6078 0.930 . S
H6073 C6082 0.930 . S
H6074 C6087 0.929 . S
H6075 C6085 0.929 . S
H6076 C6080 0.929 . S
H6077 C6086 0.929 . S
C6078 H6072 0.930 . S
C6078 C6079 1.367 . S
C6078 C6086 1.378 . S
C6079 C6078 1.367 . S
C6079 C6087 1.433 . S
C6080 H6076 0.929 . S
C6080 C6082 1.378 . S
C6080 C6084 1.350 . S
C6081 C6084 1.463 . S
C6081 C6086 1.350 . S
C6081 N6089 1.427 . S
C6082 H6073 0.930 . S
C6082 C6080 1.378 . S
C6082 C6083 1.367 . S
C6083 C6082 1.367 . S
C6083 C6085 1.433 . S
C6084 C6080 1.350 . S
C6084 C6081 1.463 . S
C6084 N6088 1.427 . S
C6085 H6075 0.929 . S
C6085 C6083 1.433 . S
C6085 N6088 1.384 . S
C6086 H6077 0.929 . S
C6086 C6078 1.378 . S
C6086 C6081 1.350 . S
C6087 H6074 0.929 . S
C6087 C6079 1.433 . S
C6087 N6089 1.384 . S
N6088 C6084 1.427 . S
N6088 C6085 1.384 . S
N6089 C6081 1.427 . S
N6089 C6087 1.384 . S
H6090 C6096 0.930 . S
H6091 C6100 0.930 . S
H6092 C6105 0.929 . S
H6093 C6103 0.929 . S
H6094 C6098 0.929 . S
H6095 C6104 0.929 . S
C6096 H6090 0.930 . S
C6096 C6097 1.367 . S
C6096 C6104 1.378 . S
C6097 C6096 1.367 . S
C6097 C6105 1.433 . S
C6098 H6094 0.929 . S
C6098 C6100 1.378 . S
C6098 C6102 1.350 . S
C6099 C6102 1.463 . S
C6099 C6104 1.350 . S
C6099 N6107 1.427 . S
C6100 H6091 0.930 . S
C6100 C6098 1.378 . S
C6100 C6101 1.367 . S
C6101 C6100 1.367 . S
C6101 C6103 1.433 . S
C6102 C6098 1.350 . S
C6102 C6099 1.463 . S
C6102 N6106 1.427 . S
C6103 H6093 0.929 . S
C6103 C6101 1.433 . S
C6103 N6106 1.384 . S
C6104 H6095 0.929 . S
C6104 C6096 1.378 . S
C6104 C6099 1.350 . S
C6105 H6092 0.929 . S
C6105 C6097 1.433 . S
C6105 N6107 1.384 . S
N6106 C6102 1.427 . S
N6106 C6103 1.384 . S
N6107 C6099 1.427 . S
N6107 C6105 1.384 . S
H6108 C6114 0.930 . S
H6109 C6118 0.930 . S
H6110 C6123 0.929 . S
H6111 C6121 0.929 . S
H6112 C6116 0.929 . S
H6113 C6122 0.929 . S
C6114 H6108 0.930 . S
C6114 C6115 1.367 . S
C6114 C6122 1.378 . S
C6115 C6114 1.367 . S
C6115 C6123 1.433 . S
C6116 H6112 0.929 . S
C6116 C6118 1.378 . S
C6116 C6120 1.350 . S
C6117 C6120 1.463 . S
C6117 C6122 1.350 . S
C6117 N6125 1.427 . S
C6118 H6109 0.930 . S
C6118 C6116 1.378 . S
C6118 C6119 1.367 . S
C6119 C6118 1.367 . S
C6119 C6121 1.433 . S
C6120 C6116 1.350 . S
C6120 C6117 1.463 . S
C6120 N6124 1.427 . S
C6121 H6111 0.929 . S
C6121 C6119 1.433 . S
C6121 N6124 1.384 . S
C6122 H6113 0.929 . S
C6122 C6114 1.378 . S
C6122 C6117 1.350 . S
C6123 H6110 0.929 . S
C6123 C6115 1.433 . S
C6123 N6125 1.384 . S
N6124 C6120 1.427 . S
N6124 C6121 1.384 . S
N6125 C6117 1.427 . S
N6125 C6123 1.384 . S
H6126 C6132 0.930 . S
H6127 C6136 0.930 . S
H6128 C6141 0.929 . S
H6129 C6139 0.929 . S
H6130 C6134 0.929 . S
H6131 C6140 0.929 . S
C6132 H6126 0.930 . S
C6132 C6133 1.367 . S
C6132 C6140 1.378 . S
C6133 C6132 1.367 . S
C6133 C6141 1.433 . S
C6134 H6130 0.929 . S
C6134 C6136 1.378 . S
C6134 C6138 1.350 . S
C6135 C6138 1.463 . S
C6135 C6140 1.350 . S
C6135 N6143 1.427 . S
C6136 H6127 0.930 . S
C6136 C6134 1.378 . S
C6136 C6137 1.367 . S
C6137 C6136 1.367 . S
C6137 C6139 1.433 . S
C6138 C6134 1.350 . S
C6138 C6135 1.463 . S
C6138 N6142 1.427 . S
C6139 H6129 0.929 . S
C6139 C6137 1.433 . S
C6139 N6142 1.384 . S
C6140 H6131 0.929 . S
C6140 C6132 1.378 . S
C6140 C6135 1.350 . S
C6141 H6128 0.929 . S
C6141 C6133 1.433 . S
C6141 N6143 1.384 . S
N6142 C6138 1.427 . S
N6142 C6139 1.384 . S
N6143 C6135 1.427 . S
N6143 C6141 1.384 . S
H6144 C6150 0.930 . S
H6145 C6154 0.930 . S
H6146 C6159 0.929 . S
H6147 C6157 0.929 . S
H6148 C6152 0.929 . S
H6149 C6158 0.929 . S
C6150 H6144 0.930 . S
C6150 C6151 1.367 . S
C6150 C6158 1.378 . S
C6151 C6150 1.367 . S
C6151 C6159 1.433 . S
C6152 H6148 0.929 . S
C6152 C6154 1.378 . S
C6152 C6156 1.350 . S
C6153 C6156 1.463 . S
C6153 C6158 1.350 . S
C6153 N6161 1.427 . S
C6154 H6145 0.930 . S
C6154 C6152 1.378 . S
C6154 C6155 1.367 . S
C6155 C6154 1.367 . S
C6155 C6157 1.433 . S
C6156 C6152 1.350 . S
C6156 C6153 1.463 . S
C6156 N6160 1.427 . S
C6157 H6147 0.929 . S
C6157 C6155 1.433 . S
C6157 N6160 1.384 . S
C6158 H6149 0.929 . S
C6158 C6150 1.378 . S
C6158 C6153 1.350 . S
C6159 H6146 0.929 . S
C6159 C6151 1.433 . S
C6159 N6161 1.384 . S
N6160 C6156 1.427 . S
N6160 C6157 1.384 . S
N6161 C6153 1.427 . S
N6161 C6159 1.384 . S
H6162 C6168 0.930 . S
H6163 C6172 0.930 . S
H6164 C6177 0.929 . S
H6165 C6175 0.929 . S
H6166 C6170 0.929 . S
H6167 C6176 0.929 . S
C6168 H6162 0.930 . S
C6168 C6169 1.367 . S
C6168 C6176 1.378 . S
C6169 C6168 1.367 . S
C6169 C6177 1.433 . S
C6170 H6166 0.929 . S
C6170 C6172 1.378 . S
C6170 C6174 1.350 . S
C6171 C6174 1.463 . S
C6171 C6176 1.350 . S
C6171 N6179 1.427 . S
C6172 H6163 0.930 . S
C6172 C6170 1.378 . S
C6172 C6173 1.367 . S
C6173 C6172 1.367 . S
C6173 C6175 1.433 . S
C6174 C6170 1.350 . S
C6174 C6171 1.463 . S
C6174 N6178 1.427 . S
C6175 H6165 0.929 . S
C6175 C6173 1.433 . S
C6175 N6178 1.384 . S
C6176 H6167 0.929 . S
C6176 C6168 1.378 . S
C6176 C6171 1.350 . S
C6177 H6164 0.929 . S
C6177 C6169 1.433 . S
C6177 N6179 1.384 . S
N6178 C6174 1.427 . S
N6178 C6175 1.384 . S
N6179 C6171 1.427 . S
N6179 C6177 1.384 . S
H6180 C6186 0.930 . S
H6181 C6190 0.930 . S
H6182 C6195 0.929 . S
H6183 C6193 0.929 . S
H6184 C6188 0.929 . S
H6185 C6194 0.929 . S
C6186 H6180 0.930 . S
C6186 C6187 1.367 . S
C6186 C6194 1.378 . S
C6187 C6186 1.367 . S
C6187 C6195 1.433 . S
C6188 H6184 0.929 . S
C6188 C6190 1.378 . S
C6188 C6192 1.350 . S
C6189 C6192 1.463 . S
C6189 C6194 1.350 . S
C6189 N6197 1.427 . S
C6190 H6181 0.930 . S
C6190 C6188 1.378 . S
C6190 C6191 1.367 . S
C6191 C6190 1.367 . S
C6191 C6193 1.433 . S
C6192 C6188 1.350 . S
C6192 C6189 1.463 . S
C6192 N6196 1.427 . S
C6193 H6183 0.929 . S
C6193 C6191 1.433 . S
C6193 N6196 1.384 . S
C6194 H6185 0.929 . S
C6194 C6186 1.378 . S
C6194 C6189 1.350 . S
C6195 H6182 0.929 . S
C6195 C6187 1.433 . S
C6195 N6197 1.384 . S
N6196 C6192 1.427 . S
N6196 C6193 1.384 . S
N6197 C6189 1.427 . S
N6197 C6195 1.384 . S
H6198 C6204 0.930 . S
H6199 C6208 0.930 . S
H6200 C6213 0.929 . S
H6201 C6211 0.929 . S
H6202 C6206 0.929 . S
H6203 C6212 0.929 . S
C6204 H6198 0.930 . S
C6204 C6205 1.367 . S
C6204 C6212 1.378 . S
C6205 C6204 1.367 . S
C6205 C6213 1.433 . S
C6206 H6202 0.929 . S
C6206 C6208 1.378 . S
C6206 C6210 1.350 . S
C6207 C6210 1.463 . S
C6207 C6212 1.350 . S
C6207 N6215 1.427 . S
C6208 H6199 0.930 . S
C6208 C6206 1.378 . S
C6208 C6209 1.367 . S
C6209 C6208 1.367 . S
C6209 C6211 1.433 . S
C6210 C6206 1.350 . S
C6210 C6207 1.463 . S
C6210 N6214 1.427 . S
C6211 H6201 0.929 . S
C6211 C6209 1.433 . S
C6211 N6214 1.384 . S
C6212 H6203 0.929 . S
C6212 C6204 1.378 . S
C6212 C6207 1.350 . S
C6213 H6200 0.929 . S
C6213 C6205 1.433 . S
C6213 N6215 1.384 . S
N6214 C6210 1.427 . S
N6214 C6211 1.384 . S
N6215 C6207 1.427 . S
N6215 C6213 1.384 . S
H6216 C6222 0.930 . S
H6217 C6226 0.930 . S
H6218 C6231 0.929 . S
H6219 C6229 0.929 . S
H6220 C6224 0.929 . S
H6221 C6230 0.929 . S
C6222 H6216 0.930 . S
C6222 C6223 1.367 . S
C6222 C6230 1.378 . S
C6223 C6222 1.367 . S
C6223 C6231 1.433 . S
C6224 H6220 0.929 . S
C6224 C6226 1.378 . S
C6224 C6228 1.350 . S
C6225 C6228 1.463 . S
C6225 C6230 1.350 . S
C6225 N6233 1.427 . S
C6226 H6217 0.930 . S
C6226 C6224 1.378 . S
C6226 C6227 1.367 . S
C6227 C6226 1.367 . S
C6227 C6229 1.433 . S
C6228 C6224 1.350 . S
C6228 C6225 1.463 . S
C6228 N6232 1.427 . S
C6229 H6219 0.929 . S
C6229 C6227 1.433 . S
C6229 N6232 1.384 . S
C6230 H6221 0.929 . S
C6230 C6222 1.378 . S
C6230 C6225 1.350 . S
C6231 H6218 0.929 . S
C6231 C6223 1.433 . S
C6231 N6233 1.384 . S
N6232 C6228 1.427 . S
N6232 C6229 1.384 . S
N6233 C6225 1.427 . S
N6233 C6231 1.384 . S
H6234 C6240 0.930 . S
H6235 C6244 0.930 . S
H6236 C6249 0.929 . S
H6237 C6247 0.929 . S
H6238 C6242 0.929 . S
H6239 C6248 0.929 . S
C6240 H6234 0.930 . S
C6240 C6241 1.367 . S
C6240 C6248 1.378 . S
C6241 C6240 1.367 . S
C6241 C6249 1.433 . S
C6242 H6238 0.929 . S
C6242 C6244 1.378 . S
C6242 C6246 1.350 . S
C6243 C6246 1.463 . S
C6243 C6248 1.350 . S
C6243 N6251 1.427 . S
C6244 H6235 0.930 . S
C6244 C6242 1.378 . S
C6244 C6245 1.367 . S
C6245 C6244 1.367 . S
C6245 C6247 1.433 . S
C6246 C6242 1.350 . S
C6246 C6243 1.463 . S
C6246 N6250 1.427 . S
C6247 H6237 0.929 . S
C6247 C6245 1.433 . S
C6247 N6250 1.384 . S
C6248 H6239 0.929 . S
C6248 C6240 1.378 . S
C6248 C6243 1.350 . S
C6249 H6236 0.929 . S
C6249 C6241 1.433 . S
C6249 N6251 1.384 . S
N6250 C6246 1.427 . S
N6250 C6247 1.384 . S
N6251 C6243 1.427 . S
N6251 C6249 1.384 . S
H6252 C6258 0.930 . S
H6253 C6262 0.930 . S
H6254 C6267 0.929 . S
H6255 C6265 0.929 . S
H6256 C6260 0.929 . S
H6257 C6266 0.929 . S
C6258 H6252 0.930 . S
C6258 C6259 1.367 . S
C6258 C6266 1.378 . S
C6259 C6258 1.367 . S
C6259 C6267 1.433 . S
C6260 H6256 0.929 . S
C6260 C6262 1.378 . S
C6260 C6264 1.350 . S
C6261 C6264 1.463 . S
C6261 C6266 1.350 . S
C6261 N6269 1.427 . S
C6262 H6253 0.930 . S
C6262 C6260 1.378 . S
C6262 C6263 1.367 . S
C6263 C6262 1.367 . S
C6263 C6265 1.433 . S
C6264 C6260 1.350 . S
C6264 C6261 1.463 . S
C6264 N6268 1.427 . S
C6265 H6255 0.929 . S
C6265 C6263 1.433 . S
C6265 N6268 1.384 . S
C6266 H6257 0.929 . S
C6266 C6258 1.378 . S
C6266 C6261 1.350 . S
C6267 H6254 0.929 . S
C6267 C6259 1.433 . S
C6267 N6269 1.384 . S
N6268 C6264 1.427 . S
N6268 C6265 1.384 . S
N6269 C6261 1.427 . S
N6269 C6267 1.384 . S
H6270 C6276 0.930 . S
H6271 C6280 0.930 . S
H6272 C6285 0.929 . S
H6273 C6283 0.929 . S
H6274 C6278 0.929 . S
H6275 C6284 0.929 . S
C6276 H6270 0.930 . S
C6276 C6277 1.367 . S
C6276 C6284 1.378 . S
C6277 C6276 1.367 . S
C6277 C6285 1.433 . S
C6278 H6274 0.929 . S
C6278 C6280 1.378 . S
C6278 C6282 1.350 . S
C6279 C6282 1.463 . S
C6279 C6284 1.350 . S
C6279 N6287 1.427 . S
C6280 H6271 0.930 . S
C6280 C6278 1.378 . S
C6280 C6281 1.367 . S
C6281 C6280 1.367 . S
C6281 C6283 1.433 . S
C6282 C6278 1.350 . S
C6282 C6279 1.463 . S
C6282 N6286 1.427 . S
C6283 H6273 0.929 . S
C6283 C6281 1.433 . S
C6283 N6286 1.384 . S
C6284 H6275 0.929 . S
C6284 C6276 1.378 . S
C6284 C6279 1.350 . S
C6285 H6272 0.929 . S
C6285 C6277 1.433 . S
C6285 N6287 1.384 . S
N6286 C6282 1.427 . S
N6286 C6283 1.384 . S
N6287 C6279 1.427 . S
N6287 C6285 1.384 . S
H6288 C6294 0.930 . S
H6289 C6298 0.930 . S
H6290 C6303 0.929 . S
H6291 C6301 0.929 . S
H6292 C6296 0.929 . S
H6293 C6302 0.929 . S
C6294 H6288 0.930 . S
C6294 C6295 1.367 . S
C6294 C6302 1.378 . S
C6295 C6294 1.367 . S
C6295 C6303 1.433 . S
C6296 H6292 0.929 . S
C6296 C6298 1.378 . S
C6296 C6300 1.350 . S
C6297 C6300 1.463 . S
C6297 C6302 1.350 . S
C6297 N6305 1.427 . S
C6298 H6289 0.930 . S
C6298 C6296 1.378 . S
C6298 C6299 1.367 . S
C6299 C6298 1.367 . S
C6299 C6301 1.433 . S
C6300 C6296 1.350 . S
C6300 C6297 1.463 . S
C6300 N6304 1.427 . S
C6301 H6291 0.929 . S
C6301 C6299 1.433 . S
C6301 N6304 1.384 . S
C6302 H6293 0.929 . S
C6302 C6294 1.378 . S
C6302 C6297 1.350 . S
C6303 H6290 0.929 . S
C6303 C6295 1.433 . S
C6303 N6305 1.384 . S
N6304 C6300 1.427 . S
N6304 C6301 1.384 . S
N6305 C6297 1.427 . S
N6305 C6303 1.384 . S
H6306 C6312 0.930 . S
H6307 C6316 0.930 . S
H6308 C6321 0.929 . S
H6309 C6319 0.929 . S
H6310 C6314 0.929 . S
H6311 C6320 0.929 . S
C6312 H6306 0.930 . S
C6312 C6313 1.367 . S
C6312 C6320 1.378 . S
C6313 C6312 1.367 . S
C6313 C6321 1.433 . S
C6314 H6310 0.929 . S
C6314 C6316 1.378 . S
C6314 C6318 1.350 . S
C6315 C6318 1.463 . S
C6315 C6320 1.350 . S
C6315 N6323 1.427 . S
C6316 H6307 0.930 . S
C6316 C6314 1.378 . S
C6316 C6317 1.367 . S
C6317 C6316 1.367 . S
C6317 C6319 1.433 . S
C6318 C6314 1.350 . S
C6318 C6315 1.463 . S
C6318 N6322 1.427 . S
C6319 H6309 0.929 . S
C6319 C6317 1.433 . S
C6319 N6322 1.384 . S
C6320 H6311 0.929 . S
C6320 C6312 1.378 . S
C6320 C6315 1.350 . S
C6321 H6308 0.929 . S
C6321 C6313 1.433 . S
C6321 N6323 1.384 . S
N6322 C6318 1.427 . S
N6322 C6319 1.384 . S
N6323 C6315 1.427 . S
N6323 C6321 1.384 . S
H6324 C6330 0.930 . S
H6325 C6334 0.930 . S
H6326 C6339 0.929 . S
H6327 C6337 0.929 . S
H6328 C6332 0.929 . S
H6329 C6338 0.929 . S
C6330 H6324 0.930 . S
C6330 C6331 1.367 . S
C6330 C6338 1.378 . S
C6331 C6330 1.367 . S
C6331 C6339 1.433 . S
C6332 H6328 0.929 . S
C6332 C6334 1.378 . S
C6332 C6336 1.350 . S
C6333 C6336 1.463 . S
C6333 C6338 1.350 . S
C6333 N6341 1.427 . S
C6334 H6325 0.930 . S
C6334 C6332 1.378 . S
C6334 C6335 1.367 . S
C6335 C6334 1.367 . S
C6335 C6337 1.433 . S
C6336 C6332 1.350 . S
C6336 C6333 1.463 . S
C6336 N6340 1.427 . S
C6337 H6327 0.929 . S
C6337 C6335 1.433 . S
C6337 N6340 1.384 . S
C6338 H6329 0.929 . S
C6338 C6330 1.378 . S
C6338 C6333 1.350 . S
C6339 H6326 0.929 . S
C6339 C6331 1.433 . S
C6339 N6341 1.384 . S
N6340 C6336 1.427 . S
N6340 C6337 1.384 . S
N6341 C6333 1.427 . S
N6341 C6339 1.384 . S
H6342 C6348 0.930 . S
H6343 C6352 0.930 . S
H6344 C6357 0.929 . S
H6345 C6355 0.929 . S
H6346 C6350 0.929 . S
H6347 C6356 0.929 . S
C6348 H6342 0.930 . S
C6348 C6349 1.367 . S
C6348 C6356 1.378 . S
C6349 C6348 1.367 . S
C6349 C6357 1.433 . S
C6350 H6346 0.929 . S
C6350 C6352 1.378 . S
C6350 C6354 1.350 . S
C6351 C6354 1.463 . S
C6351 C6356 1.350 . S
C6351 N6359 1.427 . S
C6352 H6343 0.930 . S
C6352 C6350 1.378 . S
C6352 C6353 1.367 . S
C6353 C6352 1.367 . S
C6353 C6355 1.433 . S
C6354 C6350 1.350 . S
C6354 C6351 1.463 . S
C6354 N6358 1.427 . S
C6355 H6345 0.929 . S
C6355 C6353 1.433 . S
C6355 N6358 1.384 . S
C6356 H6347 0.929 . S
C6356 C6348 1.378 . S
C6356 C6351 1.350 . S
C6357 H6344 0.929 . S
C6357 C6349 1.433 . S
C6357 N6359 1.384 . S
N6358 C6354 1.427 . S
N6358 C6355 1.384 . S
N6359 C6351 1.427 . S
N6359 C6357 1.384 . S
H6360 C6366 0.930 . S
H6361 C6370 0.930 . S
H6362 C6375 0.929 . S
H6363 C6373 0.929 . S
H6364 C6368 0.929 . S
H6365 C6374 0.929 . S
C6366 H6360 0.930 . S
C6366 C6367 1.367 . S
C6366 C6374 1.378 . S
C6367 C6366 1.367 . S
C6367 C6375 1.433 . S
C6368 H6364 0.929 . S
C6368 C6370 1.378 . S
C6368 C6372 1.350 . S
C6369 C6372 1.463 . S
C6369 C6374 1.350 . S
C6369 N6377 1.427 . S
C6370 H6361 0.930 . S
C6370 C6368 1.378 . S
C6370 C6371 1.367 . S
C6371 C6370 1.367 . S
C6371 C6373 1.433 . S
C6372 C6368 1.350 . S
C6372 C6369 1.463 . S
C6372 N6376 1.427 . S
C6373 H6363 0.929 . S
C6373 C6371 1.433 . S
C6373 N6376 1.384 . S
C6374 H6365 0.929 . S
C6374 C6366 1.378 . S
C6374 C6369 1.350 . S
C6375 H6362 0.929 . S
C6375 C6367 1.433 . S
C6375 N6377 1.384 . S
N6376 C6372 1.427 . S
N6376 C6373 1.384 . S
N6377 C6369 1.427 . S
N6377 C6375 1.384 . S
H6378 C6384 0.930 . S
H6379 C6388 0.930 . S
H6380 C6393 0.929 . S
H6381 C6391 0.929 . S
H6382 C6386 0.929 . S
H6383 C6392 0.929 . S
C6384 H6378 0.930 . S
C6384 C6385 1.367 . S
C6384 C6392 1.378 . S
C6385 C6384 1.367 . S
C6385 C6393 1.433 . S
C6386 H6382 0.929 . S
C6386 C6388 1.378 . S
C6386 C6390 1.350 . S
C6387 C6390 1.463 . S
C6387 C6392 1.350 . S
C6387 N6395 1.427 . S
C6388 H6379 0.930 . S
C6388 C6386 1.378 . S
C6388 C6389 1.367 . S
C6389 C6388 1.367 . S
C6389 C6391 1.433 . S
C6390 C6386 1.350 . S
C6390 C6387 1.463 . S
C6390 N6394 1.427 . S
C6391 H6381 0.929 . S
C6391 C6389 1.433 . S
C6391 N6394 1.384 . S
C6392 H6383 0.929 . S
C6392 C6384 1.378 . S
C6392 C6387 1.350 . S
C6393 H6380 0.929 . S
C6393 C6385 1.433 . S
C6393 N6395 1.384 . S
N6394 C6390 1.427 . S
N6394 C6391 1.384 . S
N6395 C6387 1.427 . S
N6395 C6393 1.384 . S
H6396 C6402 0.930 . S
H6397 C6406 0.930 . S
H6398 C6411 0.929 . S
H6399 C6409 0.929 . S
H6400 C6404 0.929 . S
H6401 C6410 0.929 . S
C6402 H6396 0.930 . S
C6402 C6403 1.367 . S
C6402 C6410 1.378 . S
C6403 C6402 1.367 . S
C6403 C6411 1.433 . S
C6404 H6400 0.929 . S
C6404 C6406 1.378 . S
C6404 C6408 1.350 . S
C6405 C6408 1.463 . S
C6405 C6410 1.350 . S
C6405 N6413 1.427 . S
C6406 H6397 0.930 . S
C6406 C6404 1.378 . S
C6406 C6407 1.367 . S
C6407 C6406 1.367 . S
C6407 C6409 1.433 . S
C6408 C6404 1.350 . S
C6408 C6405 1.463 . S
C6408 N6412 1.427 . S
C6409 H6399 0.929 . S
C6409 C6407 1.433 . S
C6409 N6412 1.384 . S
C6410 H6401 0.929 . S
C6410 C6402 1.378 . S
C6410 C6405 1.350 . S
C6411 H6398 0.929 . S
C6411 C6403 1.433 . S
C6411 N6413 1.384 . S
N6412 C6408 1.427 . S
N6412 C6409 1.384 . S
N6413 C6405 1.427 . S
N6413 C6411 1.384 . S
H6414 C6420 0.930 . S
H6415 C6424 0.930 . S
H6416 C6429 0.929 . S
H6417 C6427 0.929 . S
H6418 C6422 0.929 . S
H6419 C6428 0.929 . S
C6420 H6414 0.930 . S
C6420 C6421 1.367 . S
C6420 C6428 1.378 . S
C6421 C6420 1.367 . S
C6421 C6429 1.433 . S
C6422 H6418 0.929 . S
C6422 C6424 1.378 . S
C6422 C6426 1.350 . S
C6423 C6426 1.463 . S
C6423 C6428 1.350 . S
C6423 N6431 1.427 . S
C6424 H6415 0.930 . S
C6424 C6422 1.378 . S
C6424 C6425 1.367 . S
C6425 C6424 1.367 . S
C6425 C6427 1.433 . S
C6426 C6422 1.350 . S
C6426 C6423 1.463 . S
C6426 N6430 1.427 . S
C6427 H6417 0.929 . S
C6427 C6425 1.433 . S
C6427 N6430 1.384 . S
C6428 H6419 0.929 . S
C6428 C6420 1.378 . S
C6428 C6423 1.350 . S
C6429 H6416 0.929 . S
C6429 C6421 1.433 . S
C6429 N6431 1.384 . S
N6430 C6426 1.427 . S
N6430 C6427 1.384 . S
N6431 C6423 1.427 . S
N6431 C6429 1.384 . S
C3847 C3802 1.764 . S
C3851 C21 1.843 . S
C3865 C2981 1.837 . S
C3869 C61 1.836 . S
C3883 C1202 1.713 . S
C3887 C82 1.712 . S
C3901 C141 1.824 . S
C3905 C842 1.743 . S
C3919 C3002 1.777 . S
C3923 C181 1.861 . S
C3937 C1362 1.740 . S
C3941 C221 1.821 . S
C3955 C242 1.725 . S
C3959 C821 1.804 . S
C3973 C2101 1.837 . S
C3977 C301 1.837 . S
C3991 C341 1.847 . S
C3995 C2501 1.846 . S
C4009 C3701 1.814 . S
C4013 C362 1.734 . S
C4027 C421 1.798 . S
C4031 C3402 1.712 . S
C4045 C461 1.826 . S
C4049 C3442 1.741 . S
C4063 C482 1.753 . S
C4067 C3661 1.837 . S
C4081 C1581 1.841 . S
C4085 C541 1.841 . S
C4099 C3482 1.733 . S
C4103 C581 1.812 . S
C4117 C602 1.714 . S
C4121 C3621 1.795 . S
C4135 C2322 1.729 . S
C4139 C661 1.818 . S
C4153 C701 1.821 . S
C4157 C1821 1.821 . S
C4171 C2642 1.758 . S
C4175 C722 1.761 . S
C4189 C762 1.753 . S
C4193 C981 1.835 . S
C4207 C882 1.762 . S
C4211 C3261 1.847 . S
C4225 C2362 1.711 . S
C4229 C922 1.713 . S
C4243 C962 1.764 . S
C4247 C3602 1.768 . S
C4261 C2802 1.804 . S
C4265 C1021 1.746 . S
C4279 C1042 1.827 . S
C4283 C322 1.826 . S
C4297 C1541 1.732 . S
C4301 C162 1.786 . S
C4315 C122 1.765 . S
C4319 C2882 1.762 . S
C4333 C621 1.741 . S
C4337 C1082 1.799 . S
C4351 C1122 1.825 . S
C4355 C1501 1.765 . S
C4369 C2482 1.813 . S
C4373 C1181 1.760 . S
C4387 C2082 1.807 . S
C4391 C1221 1.753 . S
C4405 C3781 1.765 . S
C4409 C1261 1.757 . S
C4423 C901 1.771 . S
C4427 C3061 1.776 . S
C4441 C3082 1.773 . S
C4445 C642 1.772 . S
C4459 C1282 1.790 . S
C4463 C3722 1.787 . S
C4477 C1322 1.801 . S
C4481 C941 1.746 . S
C4495 C3141 1.752 . S
C4499 C741 1.752 . S
C4513 C3821 1.761 . S
C4517 C1381 1.756 . S
C4531 C442 1.790 . S
C4535 C1781 1.727 . S
C4549 C2381 1.738 . S
C4553 C1402 1.794 . S
C4567 C2602 1.767 . S
C4571 C562 1.764 . S
C4585 C1461 1.747 . S
C4589 C2 1.810 . S
C4603 C402 1.770 . S
C4607 C2682 1.766 . S
C4621 C1562 1.805 . S
C4625 C1802 1.809 . S
C4639 C3162 1.778 . S
C4643 C1101 1.859 . S
C4657 C3741 1.837 . S
C4661 C1621 1.836 . S
C4675 C1642 1.712 . S
C4679 C2402 1.707 . S
C4693 C1701 1.821 . S
C4697 C1242 1.735 . S
C4711 C3762 1.768 . S
C4715 C1722 1.769 . S
C4729 C1301 1.812 . S
C4733 C1762 1.726 . S
C4747 C1861 1.840 . S
C4751 C1421 1.839 . S
C4765 C2901 1.792 . S
C4769 C1522 1.708 . S
C4783 C1901 1.798 . S
C4787 C2922 1.713 . S
C4801 C1941 1.812 . S
C4805 C2842 1.730 . S
C4819 C1482 1.738 . S
C4823 C2821 1.816 . S
C4837 C1981 1.838 . S
C4841 C2541 1.839 . S
C4855 C2722 1.709 . S
C4859 C2021 1.789 . S
C4873 C1442 1.722 . S
C4877 C2781 1.806 . S
C4891 C2061 1.834 . S
C4895 C1141 1.833 . S
C4909 C3581 1.866 . S
C4913 C2122 1.782 . S
C4927 C2162 1.782 . S
C4931 C2581 1.860 . S
C4945 C2202 1.707 . S
C4949 C1162 1.709 . S
C4963 C202 1.767 . S
C4967 C2762 1.766 . S
C4981 C3642 1.791 . S
C4985 C2261 1.729 . S
C4999 C2282 1.809 . S
C5003 C1842 1.811 . S
C5017 C1741 1.750 . S
C5021 C381 1.742 . S
C5035 C1682 1.769 . S
C5039 C3682 1.768 . S
C5053 C501 1.781 . S
C5057 C2341 1.774 . S
C5071 C2421 1.743 . S
C5075 C682 1.800 . S
C5089 C861 1.769 . S
C5093 C3021 1.769 . S
C5107 C2181 1.768 . S
C5111 C3381 1.774 . S
C5125 C3322 1.801 . S
C5129 C2042 1.797 . S
C5143 C2962 1.799 . S
C5147 C802 1.800 . S
C5161 C2442 1.796 . S
C5165 C2221 1.744 . S
C5179 C2141 1.782 . S
C5183 C3301 1.785 . S
C5197 C781 1.764 . S
C5201 C3181 1.765 . S
C5215 C261 1.745 . S
C5219 C1922 1.803 . S
C5233 C3522 1.781 . S
C5237 C2002 1.781 . S
C5251 C1882 1.781 . S
C5255 C3202 1.778 . S
C5269 C282 1.811 . S
C5273 C2522 1.811 . S
C5287 C3122 1.734 . S
C5291 C2621 1.821 . S
C5305 C3362 1.748 . S
C5309 C2701 1.835 . S
C5323 C2242 1.731 . S
C5327 C3101 1.814 . S
C5341 C2461 1.839 . S
C5345 C1061 1.839 . S
C5359 C1341 1.837 . S
C5363 C2301 1.837 . S
C5377 C3221 1.836 . S
C5381 C3042 1.751 . S
C5395 C2661 1.748 . S
C5399 C3501 1.744 . S
C5413 C3242 1.803 . S
C5417 C2941 1.741 . S
C5431 C1602 1.829 . S
C5435 C3461 1.770 . S
C5449 C1962 1.791 . S
C5453 C101 1.733 . S
C5467 C522 1.805 . S
C5471 C1661 1.749 . S
C5485 C2562 1.801 . S
C5489 C3421 1.744 . S
C5503 C3541 1.809 . S
C5507 C3282 1.723 . S
C5521 C3341 1.808 . S
C5525 C1002 1.733 . S
C5539 C3562 1.776 . S
C5543 C2741 1.717 . S
C5557 C42 1.825 . S
C5561 C2861 1.764 . S
C5575 C15 1.670 . S
C5579 C1175 1.671 . S
C5593 C1695 1.689 . S
C5597 C55 1.688 . S
C5611 C95 1.671 . S
C5615 C2575 1.667 . S
C5629 C1615 1.684 . S
C5633 C135 1.691 . S
C5647 C175 1.689 . S
C5651 C2255 1.683 . S
C5665 C1815 1.659 . S
C5669 C215 1.658 . S
C5683 C255 1.680 . S
C5687 C2655 1.686 . S
C5701 C295 1.669 . S
C5705 C975 1.673 . S
C5719 C495 1.696 . S
C5723 C335 1.704 . S
C5737 C375 1.700 . S
C5741 C535 1.696 . S
C5755 C575 1.656 . S
C5759 C415 1.654 . S
C5773 C455 1.662 . S
C5777 C615 1.656 . S
C5791 C655 1.669 . S
C5795 C1375 1.659 . S
C5809 C695 1.698 . S
C5813 C3295 1.699 . S
C5827 C895 1.699 . S
C5831 C735 1.699 . S
C5845 C775 1.684 . S
C5849 C2055 1.692 . S
C5863 C815 1.662 . S
C5867 C2415 1.658 . S
C5881 C855 1.705 . S
C5885 C2455 1.703 . S
C5899 C3095 1.667 . S
C5903 C935 1.668 . S
C5917 C1735 1.689 . S
C5921 C1015 1.683 . S
C5935 C3215 1.682 . S
C5939 C1055 1.685 . S
C5953 C2375 1.669 . S
C5957 C1095 1.673 . S
C5971 C2615 1.691 . S
C5975 C1135 1.685 . S
C5989 C1215 1.667 . S
C5993 C1295 1.667 . S
C6007 C1255 1.701 . S
C6011 C1335 1.707 . S
C6025 C1415 1.675 . S
C6029 C2735 1.680 . S
C6043 C1455 1.665 . S
C6047 C1935 1.668 . S
C6061 C1855 1.681 . S
C6065 C1495 1.675 . S
C6079 C1975 1.677 . S
C6083 C1535 1.675 . S
C6097 C3455 1.674 . S
C6101 C1575 1.679 . S
C6115 C1655 1.668 . S
C6119 C3255 1.672 . S
C6133 C3575 1.690 . S
C6137 C1775 1.682 . S
C6151 C2015 1.663 . S
C6155 C1895 1.659 . S
C6169 C2095 1.705 . S
C6173 C3135 1.706 . S
C6187 C2175 1.720 . S
C6191 C2135 1.719 . S
C6205 C2215 1.658 . S
C6209 C3335 1.662 . S
C6223 C2295 1.669 . S
C6227 C2695 1.673 . S
C6241 C2335 1.681 . S
C6245 C3535 1.692 . S
C6259 C3495 1.700 . S
C6263 C2495 1.697 . S
C6277 C2855 1.677 . S
C6281 C2535 1.677 . S
C6295 C2895 1.655 . S
C6299 C2775 1.657 . S
C6313 C2935 1.665 . S
C6317 C2815 1.666 . S
C6331 C2975 1.688 . S
C6335 C3375 1.687 . S
C6349 C3015 1.721 . S
C6353 C3175 1.721 . S
C6367 C3735 1.689 . S
C6371 C3055 1.688 . S
C6385 C3655 1.662 . S
C6389 C3415 1.654 . S
C6403 C3615 1.652 . S
C6407 C3695 1.656 . S
C6421 C3775 1.700 . S
C6425 C3815 1.696 . S
