# Generated by pormake.
# Topology rkf, (6)-cn, num edge types: 1
# Building blocks:
#     Node 0, Type 0, BuildingBlock: BETGAK_clean_sbu_0, # of connection points: 6
#     Node 1, Type 0, BuildingBlock: BETGAK_clean_sbu_0, # of connection points: 6
#     Node 2, Type 0, BuildingBlock: BETGAK_clean_sbu_0, # of connection points: 6
#     Node 3, Type 0, BuildingBlock: BETGAK_clean_sbu_0, # of connection points: 6
#     Node 4, Type 0, BuildingBlock: BETGAK_clean_sbu_0, # of connection points: 6
#     Node 5, Type 0, BuildingBlock: BETGAK_clean_sbu_0, # of connection points: 6
#     Edge 6, Type (0, 0), BuildingBlock: AJUNOK_clean_linker_0, # of connection points: 2
#     Edge 7, Type (0, 0), BuildingBlock: AJUNOK_clean_linker_0, # of connection points: 2
#     Edge 8, Type (0, 0), BuildingBlock: AJUNOK_clean_linker_0, # of connection points: 2
#     Edge 9, Type (0, 0), BuildingBlock: AJUNOK_clean_linker_0, # of connection points: 2
#     Edge 10, Type (0, 0), BuildingBlock: AJUNOK_clean_linker_0, # of connection points: 2
#     Edge 11, Type (0, 0), BuildingBlock: AJUNOK_clean_linker_0, # of connection points: 2
#     Edge 12, Type (0, 0), BuildingBlock: AJUNOK_clean_linker_0, # of connection points: 2
#     Edge 13, Type (0, 0), BuildingBlock: AJUNOK_clean_linker_0, # of connection points: 2
#     Edge 14, Type (0, 0), BuildingBlock: AJUNOK_clean_linker_0, # of connection points: 2
#     Edge 15, Type (0, 0), BuildingBlock: AJUNOK_clean_linker_0, # of connection points: 2
#     Edge 16, Type (0, 0), BuildingBlock: AJUNOK_clean_linker_0, # of connection points: 2
#     Edge 17, Type (0, 0), BuildingBlock: AJUNOK_clean_linker_0, # of connection points: 2
#     Edge 18, Type (0, 0), BuildingBlock: AJUNOK_clean_linker_0, # of connection points: 2
#     Edge 19, Type (0, 0), BuildingBlock: AJUNOK_clean_linker_0, # of connection points: 2
#     Edge 20, Type (0, 0), BuildingBlock: AJUNOK_clean_linker_0, # of connection points: 2
#     Edge 21, Type (0, 0), BuildingBlock: AJUNOK_clean_linker_0, # of connection points: 2
#     Edge 22, Type (0, 0), BuildingBlock: AJUNOK_clean_linker_0, # of connection points: 2
#     Edge 23, Type (0, 0), BuildingBlock: AJUNOK_clean_linker_0, # of connection points: 2
# Relax obj value: 1.055
# Max RMSD: 0.251
# Mean RMSD: 0.251
data_MOF--net-rkf--node1-BETGAK_clean_sbu_0--edge1-AJUNOK_clean_linker_0
_symmetry_space_group_name_H-M    P1
_symmetry_Int_Tables_number       1
_symmetry_cell_setting            triclinic
loop_
_symmetry_equiv_pos_as_xyz
'x, y, z'
_cell_length_a     20.121968
_cell_length_b     20.251058
_cell_length_c     30.951472
_cell_angle_alpha  90.911758
_cell_angle_beta   89.725652
_cell_angle_gamma 119.9621
loop_
_atom_site_label
_atom_site_type_symbol
_atom_site_fract_x
_atom_site_fract_y
_atom_site_fract_z
_atom_type_partial_charge
La0 La 0.29634 0.02136 0.29607 0.0
La1 La 0.3542 0.16632 1.25366 0.0
C2 C 0.2899 0.89585 0.30799 0.0
C3 C 0.31465 0.85474 0.33569 0.0
C4 C 0.34199 0.88149 0.37749 0.0
C5 C 0.33473 0.82964 0.40886 0.0
C6 C 0.29629 0.75121 0.39854 0.0
C7 C 0.28644 0.72826 0.35493 0.0
C8 C 0.29419 0.78005 0.32347 0.0
C9 C 0.19606 0.06665 0.29928 0.0
C10 C 0.3414 0.1604 0.35661 0.0
C11 C 0.40649 0.29975 1.22708 0.0
C12 C 0.40859 0.37281 1.22905 0.0
C13 C 0.3976 0.40489 1.26715 0.0
C14 C 0.39978 0.47533 1.26572 0.0
C15 C 0.41323 0.51363 1.22629 0.0
C16 C 0.42407 0.48025 1.1887 0.0
C17 C 0.42258 0.41133 1.19019 0.0
C18 C 0.44818 0.1105 1.25347 0.0
C19 C 0.25964 0.02184 1.19456 0.0
O20 O 0.24142 0.91441 0.32484 0.0
O21 O 0.34228 0.94973 0.2844 0.0
O22 O 0.19978 0.02118 0.32719 0.0
O23 O 0.24071 0.07726 1.26778 0.0
O24 O 0.34007 0.09405 0.35447 0.0
O25 O 0.33745 0.19335 0.32072 0.0
O26 O 0.43792 0.28221 1.2584 0.0
O27 O 0.34417 0.24111 1.21176 0.0
O28 O 0.43603 0.14154 1.22084 0.0
O29 O 0.4089 0.11214 0.28468 0.0
O30 O 0.294 0.0971 1.1966 0.0
O31 O 0.25449 -0.0176 1.22933 0.0
H32 H 0.35942 0.93965 0.38705 0.0
H33 H 0.34426 0.84887 0.44232 0.0
H34 H 0.25783 0.66818 0.34628 0.0
H35 H 0.27429 0.7592 0.29091 0.0
H36 H 0.38634 0.37524 0.29748 0.0
H37 H 0.38966 0.49903 0.29495 0.0
H38 H 0.43063 0.50598 1.15743 0.0
H39 H 0.43083 0.38715 1.16051 0.0
La40 La 0.36958 0.31889 0.62941 0.0
La41 La 0.26373 0.36405 0.59314 0.0
C42 C 0.49605 0.32525 0.64147 0.0
C43 C 0.55302 0.35159 0.67609 0.0
C44 C 0.56496 0.41205 0.70382 0.0
C45 C 0.60178 0.4218 0.74347 0.0
C46 C 0.62344 0.36887 0.75644 0.0
C47 C 0.62119 0.31574 0.72557 0.0
C48 C 0.58629 0.3074 0.68566 0.0
C49 C 0.22708 0.2093 0.63 0.0
C50 C 0.27232 0.34911 0.6958 0.0
C51 C 0.15664 0.39198 0.58303 0.0
C52 C 0.12493 0.42467 0.55356 0.0
C53 C 0.10172 0.47456 0.57054 0.0
C54 C 0.06036 0.49761 0.54504 0.0
C55 C 0.0421 0.47106 0.50226 0.0
C56 C 0.06851 0.42369 0.48486 0.0
C57 C 0.11028 0.4012 0.51021 0.0
C58 C 0.4088 0.47135 0.59414 0.0
C59 C 0.32757 0.29408 0.5258 0.0
O60 O 0.42966 0.26591 0.65088 0.0
O61 O 0.48886 0.37778 0.62143 0.0
O62 O 0.27711 0.21627 0.65887 0.0
O63 O 0.25937 0.25812 0.60098 0.0
O64 O 0.3399 0.35301 0.69139 0.0
O65 O 0.23107 0.34275 0.66131 0.0
O66 O 0.22209 0.43973 0.60124 0.0
O67 O 0.15207 0.32718 0.57165 0.0
O68 O 0.36223 0.45962 0.5624 0.0
O69 O 0.37327 0.42493 0.62382 0.0
O70 O 0.2783 0.31885 0.53162 0.0
O71 O 0.3682 0.29122 0.55896 0.0
H72 H 0.54013 0.4473 0.69664 0.0
H73 H 0.60414 0.46433 0.76608 0.0
H74 H 0.63642 0.27328 0.73386 0.0
H75 H 0.57809 0.26099 0.66426 0.0
H76 H 0.11274 0.49307 0.60409 0.0
H77 H 0.04033 0.53382 0.55911 0.0
H78 H 0.05311 0.40021 0.45238 0.0
H79 H 0.12765 0.36258 0.49654 0.0
La80 La 0.13613 0.38273 0.96567 0.0
La81 La -0.01513 0.26759 0.92718 0.0
C82 C 0.24652 0.50985 0.98901 0.0
C83 C 0.26395 0.54868 1.03122 0.0
C84 C 0.22508 0.50715 1.06761 0.0
C85 C 0.24682 0.5393 1.10864 0.0
C86 C 0.30806 0.6145 1.11448 0.0
C87 C 0.34298 0.65813 1.0775 0.0
C88 C 0.3212 0.6252 1.03607 0.0
C89 C 0.11139 0.24316 0.96733 0.0
C90 C 0.00704 0.27661 1.02901 0.0
C91 C 0.85384 0.15317 0.91564 0.0
C92 C 0.77728 0.12445 0.89674 0.0
C93 C 0.71441 0.10486 0.92432 0.0
C94 C 0.63947 0.06549 0.90823 0.0
C95 C 0.62676 0.04572 0.86434 0.0
C96 C 0.68974 0.06754 0.83658 0.0
C97 C 0.76435 0.10652 0.85261 0.0
C98 C 0.01375 0.40985 0.92624 0.0
C99 C 0.12572 0.3382 0.86373 0.0
O100 O 0.24962 0.44674 0.98772 0.0
O101 O 0.18476 0.50161 0.97012 0.0
O102 O 0.1559 0.29592 0.99487 0.0
O103 O 0.09038 0.27167 0.93838 0.0
O104 O 0.06715 0.34602 1.02515 0.0
O105 O -0.02421 0.23317 0.99451 0.0
O106 O 0.8719 0.20126 0.94802 0.0
O107 O 0.91219 0.16997 0.89007 0.0
O108 O -0.02519 0.35923 0.89672 0.0
O109 O 0.02921 0.37815 0.95611 0.0
O110 O 0.0546 0.28139 0.87001 0.0
O111 O 0.16535 0.38709 0.8957 0.0
H112 H 0.18114 0.44795 1.0646 0.0
H113 H 0.21974 0.50204 1.13566 0.0
H114 H 0.3903 0.716 1.08067 0.0
H115 H 0.35129 0.65827 1.00809 0.0
H116 H 0.72303 0.11697 0.9587 0.0
H117 H 0.59164 0.04834 0.93013 0.0
H118 H 0.6811 0.05132 0.80264 0.0
H119 H 0.81144 0.11989 0.83072 0.0
La120 La 0.83061 0.15243 0.29543 0.0
La121 La 0.80132 0.00089 1.26093 0.0
C122 C 0.80703 0.26309 0.30031 0.0
C123 C 0.77672 0.29624 0.33115 0.0
C124 C 0.76236 0.27013 0.37359 0.0
C125 C 0.77027 0.32051 0.40692 0.0
C126 C 0.7959 0.3974 0.39747 0.0
C127 C 0.78879 0.41595 0.35486 0.0
C128 C 0.78167 0.36584 0.32135 0.0
C129 C -0.05129 0.13321 0.30179 0.0
C130 C 0.80609 0.03284 0.3634 0.0
C131 C 0.79259 0.87279 1.25698 0.0
C132 C 0.76215 0.79707 1.2368 0.0
C133 C 0.68471 0.74027 1.24155 0.0
C134 C 0.65961 0.66567 1.22726 0.0
C135 C 0.71149 0.64709 1.20812 0.0
C136 C 0.78881 0.70381 1.20375 0.0
C137 C 0.81392 0.77795 1.21815 0.0
C138 C 0.68439 0.02445 1.25704 0.0
C139 C 0.86786 0.13323 1.19446 0.0
O140 O 0.87131 0.26661 0.3121 0.0
O141 O 0.75791 0.19672 0.28364 0.0
O142 O 0.93826 0.17879 0.32755 0.0
O143 O 0.89996 0.10896 1.27171 0.0
O144 O 0.79684 0.09254 0.35717 0.0
O145 O 0.82061 -0.0004 0.33049 0.0
O146 O 0.74439 0.88672 0.27802 0.0
O147 O 0.84593 0.93279 1.2371 0.0
O148 O 0.69839 -0.01363 1.2278 0.0
O149 O 0.73236 0.04333 0.28721 0.0
O150 O 0.84884 0.06104 1.20042 0.0
O151 O 0.86196 0.17505 1.22622 0.0
H152 H 0.7564 0.21544 0.38143 0.0
H153 H 0.772 0.30329 0.43968 0.0
H154 H 0.80518 0.47407 0.34698 0.0
H155 H 0.79086 0.38576 0.28839 0.0
H156 H 0.64373 0.75302 1.25673 0.0
H157 H 0.59979 0.62272 1.23071 0.0
H158 H 0.82962 0.69128 1.18806 0.0
H159 H 0.87412 0.82025 1.21509 0.0
La160 La 0.76136 0.87567 0.63508 0.0
La161 La 0.86941 0.83198 0.59754 0.0
C162 C 0.63451 0.86953 0.64601 0.0
C163 C 0.57454 0.8437 0.67858 0.0
C164 C 0.58706 0.82365 0.71945 0.0
C165 C 0.54191 0.82223 0.754 0.0
C166 C 0.48393 0.84126 0.74795 0.0
C167 C 0.46389 0.8484 0.70552 0.0
C168 C 0.50993 0.85084 0.671 0.0
C169 C 0.90351 -0.01327 0.63583 0.0
C170 C 0.85889 0.84564 0.69964 0.0
C171 C -0.0188 0.81021 0.59083 0.0
C172 C 0.0141 0.76971 0.56866 0.0
C173 C -0.03053 0.70435 0.54334 0.0
C174 C 0.00442 0.66859 0.52196 0.0
C175 C 0.08412 0.69818 0.52567 0.0
C176 C 0.1272 0.76138 0.55309 0.0
C177 C 0.09227 0.79663 0.57448 0.0
C178 C 0.72489 0.72272 0.59659 0.0
C179 C 0.8048 0.90121 0.53212 0.0
O180 O 0.70066 0.92802 0.6576 0.0
O181 O 0.64206 0.81636 0.62594 0.0
O182 O 0.85428 -0.02014 0.6654 0.0
O183 O 0.87087 0.93657 0.60688 0.0
O184 O 0.79001 0.83864 0.69523 0.0
O185 O 0.90304 0.85883 0.66553 0.0
O186 O 0.92075 0.76866 0.6143 0.0
O187 O -0.02336 0.86352 0.56982 0.0
O188 O 0.77349 0.73235 0.56629 0.0
O189 O 0.7592 0.77038 0.62668 0.0
O190 O 0.85475 0.87722 0.53712 0.0
O191 O 0.76297 0.90267 0.56527 0.0
H192 H 0.63638 0.81694 0.72549 0.0
H193 H 0.55993 0.81662 0.78597 0.0
H194 H 0.41907 0.86204 0.69974 0.0
H195 H 0.49917 0.86523 0.63921 0.0
H196 H 0.90854 0.68257 0.53913 0.0
H197 H -0.02982 0.62107 0.50037 0.0
H198 H 0.18895 0.78754 0.55551 0.0
H199 H 0.12694 0.84671 0.59448 0.0
La200 La -0.01193 0.78263 0.96378 0.0
La201 La 0.1408 0.87615 0.92472 0.0
C202 C 0.86392 0.66097 0.97515 0.0
C203 C 0.83342 0.60162 1.00747 0.0
C204 C 0.87087 0.61451 1.0472 0.0
C205 C 0.83175 0.56924 1.08211 0.0
C206 C 0.75453 0.51074 1.07757 0.0
C207 C 0.72305 0.48976 1.03577 0.0
C208 C 0.76182 0.53627 1.0009 0.0
C209 C 0.03543 0.92811 0.96859 0.0
C210 C 0.12182 0.87 1.02823 0.0
C211 C 0.2759 -0.02679 0.90831 0.0
C212 C 0.3549 0.02997 0.89861 0.0
C213 C 0.37691 0.04627 0.85549 0.0
C214 C 0.4463 0.11047 0.84546 0.0
C215 C 0.49393 0.15942 0.87846 0.0
C216 C 0.47429 0.14044 0.92176 0.0
C217 C 0.40499 0.07515 0.93186 0.0
C218 C 0.08862 0.7282 0.92259 0.0
C219 C -0.00052 0.82737 0.86273 0.0
O220 O 0.87688 0.72808 0.98876 0.0
O221 O 0.92022 0.66513 0.95185 0.0
O222 O -0.01499 0.87868 0.99488 0.0
O223 O 0.04756 0.89391 0.93786 0.0
O224 O 0.05337 0.80781 1.02422 0.0
O225 O 0.15988 0.90793 0.99366 0.0
O226 O 0.25836 0.91201 0.93017 0.0
O227 O 0.2176 -0.02092 0.89474 0.0
O228 O 0.12627 0.77369 0.89146 0.0
O229 O 0.08374 0.76655 0.95364 0.0
O230 O 0.07535 0.86798 0.86633 0.0
O231 O -0.04339 0.78953 0.8962 0.0
H232 H 0.92718 0.66396 1.05232 0.0
H233 H 0.85894 0.58705 1.11355 0.0
H234 H 0.66498 0.44327 1.03095 0.0
H235 H 0.7333 0.52477 0.96981 0.0
H236 H 0.33846 0.01198 0.82959 0.0
H237 H 0.4599 0.1254 0.81181 0.0
H238 H 0.5097 0.17862 0.94745 0.0
H239 H 0.38796 0.06323 0.96539 0.0
C240 C 0.00544 0.05373 0.32132 0.0
C241 C 0.01416 0.12049 0.30306 0.0
C242 C 0.06515 0.03732 0.32013 0.0
C243 C 0.13496 0.08643 0.2998 0.0
H244 H -0.04783 0.01353 0.33641 0.0
H245 H 0.05596 -0.01498 0.33456 0.0
S246 S 0.18706 0.27054 1.24894 0.0
N247 N 0.09791 0.23746 1.26552 0.0
N248 N 0.21055 0.20625 1.26266 0.0
C249 C 0.14461 0.15384 0.28173 0.0
C250 C 0.08397 0.171 0.28352 0.0
C251 C 0.02917 0.07038 0.67227 0.0
C252 C -0.01517 0.04588 0.63433 0.0
C253 C 0.10821 0.12251 0.67055 0.0
C254 C 0.1445 0.15319 0.63101 0.0
H255 H 0.00306 0.04767 0.70324 0.0
H256 H 0.14087 0.13972 0.70041 0.0
S257 S 0.05248 0.10854 0.52278 0.0
N258 N -0.01777 0.05589 0.55628 0.0
N259 N 0.12987 0.15603 0.55322 0.0
C260 C 0.10026 0.13006 0.59301 0.0
C261 C 0.02052 0.07571 0.59463 0.0
C262 C -0.00076 0.02788 0.96054 0.0
C263 C 0.05624 0.00856 0.96751 0.0
C264 C 0.01783 0.1044 0.95962 0.0
C265 C 0.09334 0.16346 0.96744 0.0
H266 H 0.9402 -0.01637 0.95528 0.0
H267 H -0.02742 0.11717 0.95359 0.0
S268 S 0.26355 0.14259 0.98553 0.0
N269 N 0.19166 0.05442 0.97962 0.0
N270 N 0.22552 0.19802 0.9811 0.0
C271 C 0.15064 0.14482 0.9745 0.0
C272 C 0.1323 0.06719 0.97369 0.0
C273 C 0.45496 0.63698 1.19145 0.0
C274 C 0.40501 0.58179 1.22078 0.0
C275 C 0.42546 0.66314 1.15933 0.0
C276 C 0.34624 0.63734 1.15763 0.0
H277 H 0.51277 0.64717 1.18743 0.0
H278 H 0.46224 0.69187 1.13218 0.0
S279 S 0.20645 0.53682 1.24462 0.0
N280 N 0.28291 0.53126 1.25796 0.0
N281 N 0.22973 0.58813 1.20033 0.0
C282 C 0.30343 0.60426 1.1952 0.0
C283 C 0.33236 0.57422 1.22656 0.0
C284 C 0.91553 0.46402 0.49568 0.0
C285 C -0.01305 0.48308 0.47736 0.0
C286 C 0.85328 0.45004 0.4694 0.0
C287 C 0.86083 0.45387 0.4242 0.0
H288 H 0.90533 0.45183 0.52979 0.0
H289 H 0.79693 0.42581 0.4839 0.0
S290 S 0.04162 0.52073 0.36225 0.0
N291 N 0.06564 0.51928 0.41293 0.0
N292 N -0.05006 0.49517 0.36347 0.0
C293 C 0.93525 0.48535 0.40656 0.0
C294 C -0.00206 0.49828 0.43317 0.0
C295 C 0.52841 0.01267 0.80826 0.0
C296 C 0.54951 -0.00646 0.84719 0.0
C297 C 0.48677 0.9563 0.77718 0.0
C298 C 0.46779 0.88016 0.78418 0.0
H299 H 0.55475 0.07187 0.79898 0.0
H300 H 0.48333 -0.0247 0.74519 0.0
S301 S 0.47702 0.799 0.88858 0.0
N302 N 0.52409 0.89221 0.89712 0.0
N303 N 0.44461 0.78578 0.83841 0.0
C304 C 0.4704 0.85908 0.82687 0.0
C305 C 0.51296 0.91649 0.85858 0.0
C306 C 0.72714 0.53552 1.19111 0.0
C307 C 0.68512 0.57326 1.18588 0.0
C308 C 0.73485 0.49431 1.15662 0.0
C309 C 0.70395 0.49384 1.11581 0.0
H310 H 0.76292 0.54706 1.21946 0.0
H311 H 0.77704 0.47625 1.15954 0.0
S312 S 0.56208 0.5552 1.09288 0.0
N313 N 0.5915 0.58521 1.14273 0.0
N314 N 0.60644 0.50878 1.07773 0.0
C315 C 0.64677 0.5147 1.11412 0.0
C316 C 0.63823 0.55577 1.14932 0.0
C317 C 0.10794 0.68001 0.44974 0.0
C318 C 0.1253 0.67795 0.49335 0.0
C319 C 0.16128 0.69215 0.41775 0.0
C320 C 0.23418 0.70333 0.42822 0.0
H321 H 0.05643 0.68061 0.44037 0.0
H322 H 0.14843 0.70185 0.38527 0.0
S323 S 0.3005 0.68477 0.53607 0.0
N324 N 0.2138 0.67224 0.54451 0.0
N325 N 0.3163 0.69872 0.48367 0.0
C326 C 0.24876 0.692 0.47079 0.0
C327 C 0.19359 0.67824 0.50357 0.0
C328 C 0.52326 0.28705 0.85822 0.0
C329 C 0.55095 0.2372 0.86631 0.0
C330 C 0.5577 0.34309 0.827 0.0
C331 C 0.6206 0.35021 0.80289 0.0
H332 H 0.46854 0.27564 0.87137 0.0
H333 H 0.52708 0.37185 0.81742 0.0
S334 S 0.73244 0.25511 0.82627 0.0
N335 N 0.65653 0.21271 0.85791 0.0
N336 N 0.72438 0.32157 0.80052 0.0
C337 C 0.65805 0.31201 0.81785 0.0
C338 C 0.62178 0.25358 0.84896 0.0
C339 C 0.53653 0.07853 0.29363 0.0
C340 C 0.50501 0.08425 1.25435 0.0
C341 C 0.59427 0.05864 0.29429 0.0
C342 C 0.6213 0.04226 1.25578 0.0
H343 H 0.51787 0.09131 0.32393 0.0
H344 H 0.61825 0.05651 0.32516 0.0
S345 S 0.55451 0.04535 1.14482 0.0
N346 N 0.50343 0.06974 1.1762 0.0
N347 N 0.61043 0.03099 1.1776 0.0
C348 C 0.5886 0.04566 1.21652 0.0
C349 C 0.53089 0.06707 1.21578 0.0
C350 C 0.53166 0.56152 0.55801 0.0
C351 C 0.48937 0.53475 0.59635 0.0
C352 C 0.60784 0.6219 0.55862 0.0
C353 C 0.64415 0.65921 0.59748 0.0
H354 H 0.50592 0.53498 0.52725 0.0
H355 H 0.63827 0.64003 0.52826 0.0
S356 S 0.55722 0.61322 0.70673 0.0
N357 N 0.48886 0.55083 0.67432 0.0
N358 N 0.63122 0.66588 0.67537 0.0
C359 C 0.6021 0.63378 0.63608 0.0
C360 C 0.52496 0.57107 0.63554 0.0
C361 C 0.04369 0.53328 0.96397 0.0
C362 C 0.03249 0.49081 0.92547 0.0
C363 C 0.0598 0.60955 0.96311 0.0
C364 C 0.0672 0.6465 0.92368 0.0
H365 H 0.03924 0.5072 0.99494 0.0
H366 H 0.06791 0.64014 0.99344 0.0
S367 S 0.04351 0.56059 0.8141 0.0
N368 N 0.02915 0.49141 0.84707 0.0
N369 N 0.06142 0.63442 0.84543 0.0
C370 C 0.05633 0.6046 0.88516 0.0
C371 C 0.03848 0.52689 0.88605 0.0
C372 C 0.36711 0.18108 0.4377 0.0
C373 C 0.33872 0.19543 0.39955 0.0
C374 C 0.36473 0.21413 0.47796 0.0
C375 C 0.33244 0.26199 0.48225 0.0
H376 H 0.39205 0.14448 0.43645 0.0
H377 H 0.38748 0.20097 0.50611 0.0
S378 S 0.24658 0.31513 0.39272 0.0
N379 N 0.27542 0.26007 0.36929 0.0
N380 N 0.26989 0.32028 0.44421 0.0
C381 C 0.30294 0.27589 0.4444 0.0
C382 C 0.30637 0.24327 0.40341 0.0
C383 C 0.27981 0.3798 0.77679 0.0
C384 C 0.23608 0.34493 0.7392 0.0
C385 C 0.24435 0.37909 0.81669 0.0
C386 C 0.16359 0.34229 0.82093 0.0
H387 H 0.34184 0.40902 0.77524 0.0
H388 H 0.28061 0.4068 0.84455 0.0
S389 S 0.02252 0.23982 0.73284 0.0
N390 N 0.10673 0.27123 0.70961 0.0
N391 N 0.04154 0.26905 0.78363 0.0
C392 C 0.11955 0.30639 0.78369 0.0
C393 C 0.15529 0.30794 0.74324 0.0
C394 C 0.92271 0.16336 1.07499 0.0
C395 C -0.02557 0.24266 1.07217 0.0
C396 C 0.8891 0.12865 1.11438 0.0
C397 C 0.90443 0.17154 1.1529 0.0
H398 H 0.9079 0.12707 1.04643 0.0
H399 H 0.84997 0.06768 1.11446 0.0
S400 S 0.03819 0.38055 1.16422 0.0
N401 N 0.041 0.36245 1.11225 0.0
N402 N -0.02224 0.29797 1.18604 0.0
C403 C -0.04341 0.25084 1.1508 0.0
C404 C -0.00842 0.28608 1.11064 0.0
C405 C 0.8289 0.94772 0.41212 0.0
C406 C 0.80473 0.00196 0.40747 0.0
C407 C 0.8282 0.91576 0.45218 0.0
C408 C 0.802 0.93502 0.48982 0.0
H409 H 0.849 0.92927 0.38451 0.0
H410 H 0.84802 0.87496 0.45346 0.0
S411 S 0.73298 0.07457 0.49627 0.0
N412 N 0.7546 0.07408 0.44477 0.0
N413 N 0.75198 0.01332 0.52003 0.0
C414 C 0.77728 -0.01101 0.48593 0.0
C415 C 0.77904 0.02254 0.44493 0.0
C416 C -0.02907 0.86672 0.74569 0.0
C417 C 0.89178 0.84221 0.74254 0.0
C418 C 0.00458 0.86144 0.78427 0.0
C419 C -0.03902 0.83071 0.82185 0.0
H420 H 0.00801 0.89047 0.71796 0.0
H421 H 0.06555 0.88134 0.78439 0.0
S422 S 0.75146 0.75992 0.83173 0.0
N423 N 0.77101 0.78733 0.78106 0.0
N424 N 0.83343 0.77697 0.85354 0.0
C425 C 0.88167 0.80649 0.81941 0.0
C426 C 0.84746 0.81246 0.77995 0.0
C427 C 0.22204 -0.02213 1.07388 0.0
C428 C 0.15571 0.90471 1.07171 0.0
C429 C 0.25411 0.01513 1.11345 0.0
C430 C 0.22295 -0.01944 1.15312 0.0
H431 H 0.24983 0.00761 1.04466 0.0
H432 H 0.30466 0.07131 1.11286 0.0
S433 S 0.04986 0.78973 1.16658 0.0
N434 N 0.05966 0.79966 1.11367 0.0
N435 N 0.12134 0.86836 1.18799 0.0
C436 C 0.1573 0.90702 1.1518 0.0
C437 C 0.12347 0.86955 1.11126 0.0
loop_
_geom_bond_atom_site_label_1
_geom_bond_atom_site_label_2
_geom_bond_distance
_geom_bond_site_symmetry_2
_ccdc_geom_bond_type
La0 C2 2.928 . S
La0 O20 2.521 . S
La0 O21 2.628 . S
La0 O22 2.554 . S
La0 O23 2.757 . S
La0 O24 2.470 . S
La0 O29 2.482 . S
La0 O31 2.503 1_554 S
La1 C11 2.928 . S
La1 O23 2.482 1_556 S
La1 O25 2.503 1_556 S
La1 O26 2.521 . S
La1 O27 2.628 . S
La1 O28 2.554 . S
La1 O29 2.757 1_556 S
La1 O30 2.470 . S
C2 La0 2.928 . S
C2 C3 1.503 . S
C2 O20 1.261 . S
C2 O21 1.243 . S
C3 C2 1.503 . S
C3 C4 1.394 1_545 S
C3 C8 1.373 . S
C4 C3 1.394 1_565 S
C4 C5 1.380 . S
C4 H32 0.930 . S
C5 C4 1.380 . S
C5 C6 1.376 . S
C5 H33 0.930 . S
C6 C5 1.376 . S
C6 C7 1.370 1_565 S
C7 C6 1.370 1_545 S
C7 C8 1.396 . S
C7 H34 0.929 . S
C8 C3 1.373 . S
C8 C7 1.396 . S
C8 H35 0.929 . S
C9 O22 1.240 . S
C9 O23 1.289 . S
C10 O24 1.258 . S
C10 O25 1.256 . S
C11 La1 2.928 . S
C11 C12 1.503 . S
C11 O26 1.261 . S
C11 O27 1.243 . S
C12 C11 1.503 . S
C12 C13 1.394 . S
C12 C17 1.373 . S
C13 C12 1.394 . S
C13 C14 1.380 . S
C13 H36 0.930 . S
C14 C13 1.380 . S
C14 C15 1.376 . S
C14 H37 0.930 . S
C15 C14 1.376 . S
C15 C16 1.370 . S
C16 C15 1.370 . S
C16 C17 1.396 . S
C16 H38 0.929 . S
C17 C12 1.373 . S
C17 C16 1.396 . S
C17 H39 0.929 . S
C18 O28 1.240 1_554 S
C18 O29 1.289 . S
C19 O30 1.258 . S
C19 O31 1.256 . S
O20 La0 2.521 . S
O20 C2 1.261 . S
O21 La0 2.628 . S
O21 C2 1.243 . S
O22 La0 2.554 . S
O22 C9 1.240 . S
O23 La0 2.757 . S
O23 La1 2.482 1_554 S
O23 C9 1.289 . S
O24 La0 2.470 . S
O24 C10 1.258 . S
O25 La1 2.503 1_554 S
O25 C10 1.256 . S
O26 La1 2.521 . S
O26 C11 1.261 . S
O27 La1 2.628 . S
O27 C11 1.243 . S
O28 La1 2.554 . S
O28 C18 1.240 1_556 S
O29 La0 2.482 . S
O29 La1 2.757 1_554 S
O29 C18 1.289 . S
O30 La1 2.470 . S
O30 C19 1.258 . S
O31 La0 2.503 1_556 S
O31 C19 1.256 . S
H32 C4 0.930 . S
H33 C5 0.930 . S
H34 C7 0.929 . S
H35 C8 0.929 . S
H36 C13 0.930 . S
H37 C14 0.930 . S
H38 C16 0.929 . S
H39 C17 0.929 . S
La40 C42 2.928 . S
La40 O60 2.521 . S
La40 O61 2.628 . S
La40 O62 2.554 . S
La40 O63 2.757 . S
La40 O64 2.470 . S
La40 O69 2.482 . S
La40 O71 2.503 . S
La41 C51 2.928 . S
La41 O63 2.482 . S
La41 O65 2.503 . S
La41 O66 2.521 . S
La41 O67 2.628 . S
La41 O68 2.554 . S
La41 O69 2.757 . S
La41 O70 2.470 . S
C42 La40 2.928 . S
C42 C43 1.503 . S
C42 O60 1.261 . S
C42 O61 1.243 . S
C43 C42 1.503 . S
C43 C44 1.394 . S
C43 C48 1.373 . S
C44 C43 1.394 . S
C44 C45 1.380 . S
C44 H72 0.930 . S
C45 C44 1.380 . S
C45 C46 1.376 . S
C45 H73 0.930 . S
C46 C45 1.376 . S
C46 C47 1.370 . S
C47 C46 1.370 . S
C47 C48 1.396 . S
C47 H74 0.929 . S
C48 C43 1.373 . S
C48 C47 1.396 . S
C48 H75 0.929 . S
C49 O62 1.240 . S
C49 O63 1.289 . S
C50 O64 1.258 . S
C50 O65 1.256 . S
C51 La41 2.928 . S
C51 C52 1.503 . S
C51 O66 1.261 . S
C51 O67 1.243 . S
C52 C51 1.503 . S
C52 C53 1.394 . S
C52 C57 1.373 . S
C53 C52 1.394 . S
C53 C54 1.380 . S
C53 H76 0.930 . S
C54 C53 1.380 . S
C54 C55 1.376 . S
C54 H77 0.930 . S
C55 C54 1.376 . S
C55 C56 1.370 . S
C56 C55 1.370 . S
C56 C57 1.396 . S
C56 H78 0.929 . S
C57 C52 1.373 . S
C57 C56 1.396 . S
C57 H79 0.929 . S
C58 O68 1.240 . S
C58 O69 1.289 . S
C59 O70 1.258 . S
C59 O71 1.256 . S
O60 La40 2.521 . S
O60 C42 1.261 . S
O61 La40 2.628 . S
O61 C42 1.243 . S
O62 La40 2.554 . S
O62 C49 1.240 . S
O63 La40 2.757 . S
O63 La41 2.482 . S
O63 C49 1.289 . S
O64 La40 2.470 . S
O64 C50 1.258 . S
O65 La41 2.503 . S
O65 C50 1.256 . S
O66 La41 2.521 . S
O66 C51 1.261 . S
O67 La41 2.628 . S
O67 C51 1.243 . S
O68 La41 2.554 . S
O68 C58 1.240 . S
O69 La40 2.482 . S
O69 La41 2.757 . S
O69 C58 1.289 . S
O70 La41 2.470 . S
O70 C59 1.258 . S
O71 La40 2.503 . S
O71 C59 1.256 . S
H72 C44 0.930 . S
H73 C45 0.930 . S
H74 C47 0.929 . S
H75 C48 0.929 . S
H76 C53 0.930 . S
H77 C54 0.930 . S
H78 C56 0.929 . S
H79 C57 0.929 . S
La80 C82 2.928 . S
La80 O100 2.521 . S
La80 O101 2.628 . S
La80 O102 2.554 . S
La80 O103 2.757 . S
La80 O104 2.470 1_455 S
La80 O109 2.481 1_455 S
La80 O111 2.503 . S
La81 C91 2.928 . S
La81 O103 2.482 1_655 S
La81 O105 2.503 . S
La81 O106 2.521 . S
La81 O107 2.628 . S
La81 O108 2.554 . S
La81 O109 2.757 . S
La81 O110 2.470 1_655 S
C82 La80 2.928 . S
C82 C83 1.503 . S
C82 O100 1.261 . S
C82 O101 1.243 . S
C83 C82 1.503 . S
C83 C84 1.394 . S
C83 C88 1.373 . S
C84 C83 1.394 . S
C84 C85 1.380 . S
C84 H112 0.930 . S
C85 C84 1.380 . S
C85 C86 1.376 . S
C85 H113 0.930 . S
C86 C85 1.376 . S
C86 C87 1.370 . S
C87 C86 1.370 . S
C87 C88 1.396 . S
C87 H114 0.929 . S
C88 C83 1.373 . S
C88 C87 1.396 . S
C88 H115 0.929 . S
C89 O102 1.240 . S
C89 O103 1.289 . S
C90 O104 1.258 . S
C90 O105 1.256 . S
C91 La81 2.928 . S
C91 C92 1.503 . S
C91 O106 1.261 . S
C91 O107 1.243 . S
C92 C91 1.503 . S
C92 C93 1.394 . S
C92 C97 1.373 . S
C93 C92 1.394 . S
C93 C94 1.380 . S
C93 H116 0.930 . S
C94 C93 1.380 . S
C94 C95 1.376 . S
C94 H117 0.930 . S
C95 C94 1.376 . S
C95 C96 1.370 . S
C96 C95 1.370 . S
C96 C97 1.396 . S
C96 H118 0.929 . S
C97 C92 1.373 . S
C97 C96 1.396 . S
C97 H119 0.929 . S
C98 O108 1.240 . S
C98 O109 1.290 . S
C99 O110 1.258 . S
C99 O111 1.256 . S
O100 La80 2.521 . S
O100 C82 1.261 . S
O101 La80 2.628 . S
O101 C82 1.243 . S
O102 La80 2.554 . S
O102 C89 1.240 . S
O103 La80 2.757 . S
O103 La81 2.482 1_455 S
O103 C89 1.289 . S
O104 La80 2.470 1_655 S
O104 C90 1.258 . S
O105 La81 2.503 . S
O105 C90 1.256 . S
O106 La81 2.521 . S
O106 C91 1.261 . S
O107 La81 2.628 . S
O107 C91 1.243 . S
O108 La81 2.554 . S
O108 C98 1.240 . S
O109 La80 2.481 1_655 S
O109 La81 2.757 . S
O109 C98 1.290 . S
O110 La81 2.470 1_455 S
O110 C99 1.258 . S
O111 La80 2.503 . S
O111 C99 1.256 . S
H112 C84 0.930 . S
H113 C85 0.930 . S
H114 C87 0.929 . S
H115 C88 0.929 . S
H116 C93 0.930 . S
H117 C94 0.930 . S
H118 C96 0.929 . S
H119 C97 0.929 . S
La120 C122 2.928 . S
La120 O140 2.521 . S
La120 O141 2.628 . S
La120 O142 2.554 . S
La120 O143 2.757 . S
La120 O144 2.470 1_545 S
La120 O149 2.482 1_545 S
La120 O151 2.503 1_554 S
La121 C131 2.928 . S
La121 O143 2.482 1_566 S
La121 O145 2.503 1_556 S
La121 O146 2.521 . S
La121 O147 2.628 . S
La121 O148 2.554 . S
La121 O149 2.756 1_556 S
La121 O150 2.470 1_565 S
C122 La120 2.928 . S
C122 C123 1.503 . S
C122 O140 1.261 . S
C122 O141 1.243 . S
C123 C122 1.503 . S
C123 C124 1.394 . S
C123 C128 1.373 . S
C124 C123 1.394 . S
C124 C125 1.380 . S
C124 H152 0.930 . S
C125 C124 1.380 . S
C125 C126 1.376 . S
C125 H153 0.930 1_655 S
C126 C125 1.376 . S
C126 C127 1.370 . S
C127 C126 1.370 . S
C127 C128 1.396 . S
C127 H154 0.929 . S
C128 C123 1.373 . S
C128 C127 1.396 . S
C128 H155 0.929 . S
C129 O142 1.240 . S
C129 O143 1.289 . S
C130 O144 1.258 . S
C130 O145 1.256 . S
C131 La121 2.928 . S
C131 C132 1.503 . S
C131 O146 1.261 . S
C131 O147 1.243 . S
C132 C131 1.503 . S
C132 C133 1.394 . S
C132 C137 1.373 . S
C133 C132 1.394 . S
C133 C134 1.380 . S
C133 H156 0.930 . S
C134 C133 1.380 . S
C134 C135 1.376 . S
C134 H157 0.930 . S
C135 C134 1.376 . S
C135 C136 1.370 . S
C136 C135 1.370 . S
C136 C137 1.396 . S
C136 H158 0.929 . S
C137 C132 1.373 . S
C137 C136 1.396 . S
C137 H159 0.929 . S
C138 O148 1.240 1_554 S
C138 O149 1.289 . S
C139 O150 1.258 . S
C139 O151 1.256 . S
O140 La120 2.521 . S
O140 C122 1.261 . S
O141 La120 2.628 . S
O141 C122 1.243 . S
O142 La120 2.554 . S
O142 C129 1.240 . S
O143 La120 2.757 . S
O143 La121 2.482 1_544 S
O143 C129 1.289 . S
O144 La120 2.470 1_565 S
O144 C130 1.258 . S
O145 La121 2.503 1_554 S
O145 C130 1.256 . S
O146 La121 2.521 . S
O146 C131 1.261 . S
O147 La121 2.628 . S
O147 C131 1.243 . S
O148 La121 2.554 . S
O148 C138 1.240 1_556 S
O149 La120 2.482 1_565 S
O149 La121 2.756 1_554 S
O149 C138 1.289 . S
O150 La121 2.470 1_545 S
O150 C139 1.258 . S
O151 La120 2.503 1_556 S
O151 C139 1.256 . S
H152 C124 0.930 . S
H153 C125 0.930 1_455 S
H154 C127 0.929 . S
H155 C128 0.929 . S
H156 C133 0.930 . S
H157 C134 0.930 . S
H158 C136 0.929 . S
H159 C137 0.929 . S
La160 C162 2.928 . S
La160 O180 2.521 . S
La160 O181 2.628 . S
La160 O182 2.554 1_655 S
La160 O183 2.764 . S
La160 O184 2.470 . S
La160 O189 2.482 . S
La160 O191 2.503 . S
La161 C171 2.928 1_655 S
La161 O183 2.479 . S
La161 O185 2.503 . S
La161 O186 2.521 . S
La161 O187 2.628 1_655 S
La161 O188 2.554 . S
La161 O189 2.757 . S
La161 O190 2.470 . S
C162 La160 2.928 . S
C162 C163 1.503 . S
C162 O180 1.261 . S
C162 O181 1.243 . S
C163 C162 1.503 . S
C163 C164 1.394 . S
C163 C168 1.373 . S
C164 C163 1.394 . S
C164 C165 1.380 . S
C164 H192 0.930 . S
C165 C164 1.380 . S
C165 C166 1.376 . S
C165 H193 0.930 1_565 S
C166 C165 1.376 . S
C166 C167 1.370 . S
C167 C166 1.370 . S
C167 C168 1.396 . S
C167 H194 0.929 . S
C168 C163 1.373 . S
C168 C167 1.396 . S
C168 H195 0.929 . S
C169 O182 1.240 . S
C169 O183 1.289 1_455 S
C170 O184 1.258 . S
C170 O185 1.256 . S
C171 La161 2.928 1_455 S
C171 C172 1.503 . S
C171 O186 1.261 1_455 S
C171 O187 1.243 . S
C172 C171 1.503 . S
C172 C173 1.394 . S
C172 C177 1.373 . S
C173 C172 1.394 . S
C173 C174 1.380 . S
C173 H196 0.930 1_455 S
C174 C173 1.380 . S
C174 C175 1.376 . S
C174 H197 0.930 . S
C175 C174 1.376 . S
C175 C176 1.370 . S
C176 C175 1.370 . S
C176 C177 1.396 . S
C176 H198 0.929 . S
C177 C172 1.373 . S
C177 C176 1.396 . S
C177 H199 0.929 . S
C178 O188 1.240 . S
C178 O189 1.289 . S
C179 O190 1.258 . S
C179 O191 1.256 . S
O180 La160 2.521 . S
O180 C162 1.261 . S
O181 La160 2.628 . S
O181 C162 1.243 . S
O182 La160 2.554 1_455 S
O182 C169 1.240 . S
O183 La160 2.764 . S
O183 La161 2.479 . S
O183 C169 1.289 1_655 S
O184 La160 2.470 . S
O184 C170 1.258 . S
O185 La161 2.503 . S
O185 C170 1.256 . S
O186 La161 2.521 . S
O186 C171 1.261 1_655 S
O187 La161 2.628 1_455 S
O187 C171 1.243 . S
O188 La161 2.554 . S
O188 C178 1.240 . S
O189 La160 2.482 . S
O189 La161 2.757 . S
O189 C178 1.289 . S
O190 La161 2.470 . S
O190 C179 1.258 . S
O191 La160 2.503 . S
O191 C179 1.256 . S
H192 C164 0.930 . S
H193 C165 0.930 1_545 S
H194 C167 0.929 . S
H195 C168 0.929 . S
H196 C173 0.930 1_655 S
H197 C174 0.930 . S
H198 C176 0.929 . S
H199 C177 0.929 . S
La200 C202 2.928 . S
La200 O220 2.521 . S
La200 O221 2.628 . S
La200 O222 2.554 1_565 S
La200 O223 2.764 . S
La200 O224 2.470 . S
La200 O229 2.482 . S
La200 O231 2.503 . S
La201 C211 2.928 1_565 S
La201 O223 2.490 . S
La201 O225 2.503 . S
La201 O226 2.521 . S
La201 O227 2.628 1_565 S
La201 O228 2.554 . S
La201 O229 2.757 . S
La201 O230 2.470 . S
C202 La200 2.928 . S
C202 C203 1.503 . S
C202 O220 1.261 . S
C202 O221 1.243 . S
C203 C202 1.503 . S
C203 C204 1.394 1_455 S
C203 C208 1.373 . S
C204 C203 1.394 1_655 S
C204 C205 1.380 . S
C204 H232 0.930 . S
C205 C204 1.380 . S
C205 C206 1.376 . S
C205 H233 0.930 . S
C206 C205 1.376 . S
C206 C207 1.370 1_655 S
C207 C206 1.370 1_455 S
C207 C208 1.396 . S
C207 H234 0.929 . S
C208 C203 1.373 . S
C208 C207 1.396 . S
C208 H235 0.929 . S
C209 O222 1.240 . S
C209 O223 1.279 1_545 S
C210 O224 1.258 . S
C210 O225 1.256 . S
C211 La201 2.928 1_545 S
C211 C212 1.503 . S
C211 O226 1.261 1_545 S
C211 O227 1.243 . S
C212 C211 1.503 . S
C212 C213 1.394 . S
C212 C217 1.373 . S
C213 C212 1.394 . S
C213 C214 1.380 . S
C213 H236 0.930 1_545 S
C214 C213 1.380 . S
C214 C215 1.376 . S
C214 H237 0.930 . S
C215 C214 1.376 . S
C215 C216 1.370 . S
C216 C215 1.370 . S
C216 C217 1.396 . S
C216 H238 0.929 . S
C217 C212 1.373 . S
C217 C216 1.396 . S
C217 H239 0.929 . S
C218 O228 1.240 . S
C218 O229 1.289 . S
C219 O230 1.258 . S
C219 O231 1.256 . S
O220 La200 2.521 . S
O220 C202 1.261 . S
O221 La200 2.628 . S
O221 C202 1.243 . S
O222 La200 2.554 1_545 S
O222 C209 1.240 . S
O223 La200 2.764 . S
O223 La201 2.490 . S
O223 C209 1.279 1_565 S
O224 La200 2.470 . S
O224 C210 1.258 . S
O225 La201 2.503 . S
O225 C210 1.256 . S
O226 La201 2.521 . S
O226 C211 1.261 1_565 S
O227 La201 2.628 1_545 S
O227 C211 1.243 . S
O228 La201 2.554 . S
O228 C218 1.240 . S
O229 La200 2.482 . S
O229 La201 2.757 . S
O229 C218 1.289 . S
O230 La201 2.470 . S
O230 C219 1.258 . S
O231 La200 2.503 . S
O231 C219 1.256 . S
H232 C204 0.930 . S
H233 C205 0.930 . S
H234 C207 0.929 . S
H235 C208 0.929 . S
H236 C213 0.930 1_565 S
H237 C214 0.930 . S
H238 C216 0.929 . S
H239 C217 0.929 . S
C240 C241 1.369 . S
C240 C242 1.419 . S
C240 H244 0.930 1_545 S
C241 C240 1.369 . S
C241 C250 1.429 1_554 S
C242 C240 1.419 . S
C242 C243 1.363 . S
C242 H245 0.929 . S
C243 C242 1.363 . S
C243 C249 1.428 1_554 S
H244 C240 0.930 1_565 S
H245 C242 0.929 . S
S246 N247 1.613 . S
S246 N248 1.610 . S
N247 S246 1.613 . S
N247 C250 1.350 . S
N248 S246 1.610 . S
N248 C249 1.351 . S
C249 C243 1.428 1_556 S
C249 N248 1.351 . S
C249 C250 1.434 . S
C250 C241 1.429 1_556 S
C250 N247 1.350 . S
C250 C249 1.434 . S
C251 C252 1.369 . S
C251 C253 1.419 . S
C251 H255 0.930 . S
C252 C251 1.369 . S
C252 C261 1.429 . S
C253 C251 1.419 . S
C253 C254 1.363 . S
C253 H256 0.929 . S
C254 C253 1.363 . S
C254 C260 1.428 . S
H255 C251 0.930 . S
H256 C253 0.929 . S
S257 N258 1.613 . S
S257 N259 1.610 . S
N258 S257 1.613 . S
N258 C261 1.350 1_655 S
N259 S257 1.610 . S
N259 C260 1.351 1_655 S
C260 C254 1.428 . S
C260 N259 1.351 1_455 S
C260 C261 1.434 . S
C261 C252 1.429 . S
C261 N258 1.350 1_455 S
C261 C260 1.434 . S
C262 C263 1.369 . S
C262 C264 1.419 . S
C262 H266 0.930 1_545 S
C263 C262 1.369 . S
C263 C272 1.429 . S
C264 C262 1.419 . S
C264 C265 1.363 . S
C264 H267 0.929 1_455 S
C265 C264 1.363 . S
C265 C271 1.428 . S
H266 C262 0.930 1_565 S
H267 C264 0.929 1_655 S
S268 N269 1.613 . S
S268 N270 1.610 . S
N269 S268 1.613 . S
N269 C272 1.350 . S
N270 S268 1.610 . S
N270 C271 1.351 . S
C271 C265 1.428 . S
C271 N270 1.351 . S
C271 C272 1.434 . S
C272 C263 1.429 . S
C272 N269 1.350 . S
C272 C271 1.434 . S
C273 C274 1.369 . S
C273 C275 1.419 . S
C273 H277 0.930 . S
C274 C273 1.369 . S
C274 C283 1.429 . S
C275 C273 1.419 . S
C275 C276 1.363 . S
C275 H278 0.929 . S
C276 C275 1.363 . S
C276 C282 1.428 . S
H277 C273 0.930 . S
H278 C275 0.929 . S
S279 N280 1.613 . S
S279 N281 1.610 . S
N280 S279 1.613 . S
N280 C283 1.350 . S
N281 S279 1.610 . S
N281 C282 1.351 . S
C282 C276 1.428 . S
C282 N281 1.351 . S
C282 C283 1.434 . S
C283 C274 1.429 . S
C283 N280 1.350 . S
C283 C282 1.434 . S
C284 C285 1.369 . S
C284 C286 1.416 1_455 S
C284 H288 0.930 . S
C285 C284 1.369 . S
C285 C294 1.429 . S
C286 C284 1.416 1_655 S
C286 C287 1.366 . S
C286 H289 0.929 . S
C287 C286 1.366 . S
C287 C293 1.428 . S
H288 C284 0.930 . S
H289 C286 0.929 . S
S290 N291 1.613 1_655 S
S290 N292 1.610 . S
N291 S290 1.613 1_455 S
N291 C294 1.350 . S
N292 S290 1.610 . S
N292 C293 1.351 . S
C293 C287 1.428 . S
C293 N292 1.351 . S
C293 C294 1.434 1_655 S
C294 C285 1.429 . S
C294 N291 1.350 . S
C294 C293 1.434 1_455 S
C295 C296 1.369 . S
C295 C297 1.419 1_545 S
C295 H299 0.930 . S
C296 C295 1.369 . S
C296 C305 1.429 . S
C297 C295 1.419 1_565 S
C297 C298 1.363 . S
C297 H300 0.929 . S
C298 C297 1.363 . S
C298 C304 1.437 . S
H299 C295 0.930 . S
H300 C297 0.929 . S
S301 N302 1.613 . S
S301 N303 1.610 1_545 S
N302 S301 1.613 . S
N302 C305 1.350 . S
N303 S301 1.610 1_565 S
N303 C304 1.354 . S
C304 C298 1.437 . S
C304 N303 1.354 . S
C304 C305 1.421 1_565 S
C305 C296 1.429 . S
C305 N302 1.350 . S
C305 C304 1.421 1_545 S
C306 C307 1.369 . S
C306 C308 1.419 . S
C306 H310 0.930 . S
C307 C306 1.369 . S
C307 C316 1.429 . S
C308 C306 1.419 . S
C308 C309 1.363 . S
C308 H311 0.929 . S
C309 C308 1.363 . S
C309 C315 1.428 . S
H310 C306 0.930 . S
H311 C308 0.929 . S
S312 N313 1.613 . S
S312 N314 1.610 . S
N313 S312 1.613 . S
N313 C316 1.350 . S
N314 S312 1.610 . S
N314 C315 1.351 . S
C315 C309 1.428 . S
C315 N314 1.351 . S
C315 C316 1.434 . S
C316 C307 1.429 . S
C316 N313 1.350 . S
C316 C315 1.434 . S
C317 C318 1.369 . S
C317 C319 1.419 . S
C317 H321 0.930 . S
C318 C317 1.369 . S
C318 C327 1.429 . S
C319 C317 1.419 . S
C319 C320 1.363 . S
C319 H322 0.929 . S
C320 C319 1.363 . S
C320 C326 1.428 . S
H321 C317 0.930 . S
H322 C319 0.929 . S
S323 N324 1.613 . S
S323 N325 1.610 . S
N324 S323 1.613 . S
N324 C327 1.350 . S
N325 S323 1.610 . S
N325 C326 1.351 . S
C326 C320 1.428 . S
C326 N325 1.351 . S
C326 C327 1.434 . S
C327 C318 1.429 . S
C327 N324 1.350 . S
C327 C326 1.434 . S
C328 C329 1.369 . S
C328 C330 1.419 . S
C328 H332 0.930 . S
C329 C328 1.369 . S
C329 C338 1.429 . S
C330 C328 1.419 . S
C330 C331 1.363 . S
C330 H333 0.929 . S
C331 C330 1.363 . S
C331 C337 1.428 . S
H332 C328 0.930 . S
H333 C330 0.929 . S
S334 N335 1.613 . S
S334 N336 1.610 . S
N335 S334 1.613 . S
N335 C338 1.350 . S
N336 S334 1.610 . S
N336 C337 1.351 . S
C337 C331 1.428 . S
C337 N336 1.351 . S
C337 C338 1.434 . S
C338 C329 1.429 . S
C338 N335 1.350 . S
C338 C337 1.434 . S
C339 C340 1.369 . S
C339 C341 1.419 . S
C339 H343 0.930 . S
C340 C339 1.369 . S
C340 C349 1.429 1_554 S
C341 C339 1.419 . S
C341 C342 1.363 . S
C341 H344 0.929 . S
C342 C341 1.363 . S
C342 C348 1.428 1_554 S
H343 C339 0.930 . S
H344 C341 0.929 . S
S345 N346 1.613 . S
S345 N347 1.610 . S
N346 S345 1.613 . S
N346 C349 1.350 . S
N347 S345 1.610 . S
N347 C348 1.351 . S
C348 C342 1.428 1_556 S
C348 N347 1.351 . S
C348 C349 1.434 . S
C349 C340 1.429 1_556 S
C349 N346 1.350 . S
C349 C348 1.434 . S
C350 C351 1.369 . S
C350 C352 1.419 . S
C350 H354 0.930 . S
C351 C350 1.369 . S
C351 C360 1.429 . S
C352 C350 1.419 . S
C352 C353 1.363 . S
C352 H355 0.929 . S
C353 C352 1.363 . S
C353 C359 1.428 . S
H354 C350 0.930 . S
H355 C352 0.929 . S
S356 N357 1.613 . S
S356 N358 1.610 . S
N357 S356 1.613 . S
N357 C360 1.350 . S
N358 S356 1.610 . S
N358 C359 1.351 . S
C359 C353 1.428 . S
C359 N358 1.351 . S
C359 C360 1.434 . S
C360 C351 1.429 . S
C360 N357 1.350 . S
C360 C359 1.434 . S
C361 C362 1.369 . S
C361 C363 1.419 . S
C361 H365 0.930 . S
C362 C361 1.369 . S
C362 C371 1.429 . S
C363 C361 1.419 . S
C363 C364 1.363 . S
C363 H366 0.929 . S
C364 C363 1.363 . S
C364 C370 1.428 . S
H365 C361 0.930 . S
H366 C363 0.929 . S
S367 N368 1.613 . S
S367 N369 1.610 . S
N368 S367 1.613 . S
N368 C371 1.350 . S
N369 S367 1.610 . S
N369 C370 1.351 . S
C370 C364 1.428 . S
C370 N369 1.351 . S
C370 C371 1.434 . S
C371 C362 1.429 . S
C371 N368 1.350 . S
C371 C370 1.434 . S
C372 C373 1.369 . S
C372 C374 1.419 . S
C372 H376 0.930 . S
C373 C372 1.369 . S
C373 C382 1.429 . S
C374 C372 1.419 . S
C374 C375 1.363 . S
C374 H377 0.929 . S
C375 C374 1.363 . S
C375 C381 1.428 . S
H376 C372 0.930 . S
H377 C374 0.929 . S
S378 N379 1.613 . S
S378 N380 1.610 . S
N379 S378 1.613 . S
N379 C382 1.350 . S
N380 S378 1.610 . S
N380 C381 1.351 . S
C381 C375 1.428 . S
C381 N380 1.351 . S
C381 C382 1.434 . S
C382 C373 1.429 . S
C382 N379 1.350 . S
C382 C381 1.434 . S
C383 C384 1.369 . S
C383 C385 1.419 . S
C383 H387 0.930 . S
C384 C383 1.369 . S
C384 C393 1.429 . S
C385 C383 1.419 . S
C385 C386 1.363 . S
C385 H388 0.929 . S
C386 C385 1.363 . S
C386 C392 1.428 . S
H387 C383 0.930 . S
H388 C385 0.929 . S
S389 N390 1.613 . S
S389 N391 1.610 . S
N390 S389 1.613 . S
N390 C393 1.350 . S
N391 S389 1.610 . S
N391 C392 1.351 . S
C392 C386 1.428 . S
C392 N391 1.351 . S
C392 C393 1.434 . S
C393 C384 1.429 . S
C393 N390 1.350 . S
C393 C392 1.434 . S
C394 C395 1.369 . S
C394 C396 1.419 . S
C394 H398 0.930 . S
C395 C394 1.369 . S
C395 C404 1.429 . S
C396 C394 1.419 . S
C396 C397 1.363 . S
C396 H399 0.929 . S
C397 C396 1.363 . S
C397 C403 1.428 . S
H398 C394 0.930 . S
H399 C396 0.929 . S
S400 N401 1.613 . S
S400 N402 1.610 . S
N401 S400 1.613 . S
N401 C404 1.350 . S
N402 S400 1.610 . S
N402 C403 1.351 . S
C403 C397 1.428 . S
C403 N402 1.351 . S
C403 C404 1.434 . S
C404 C395 1.429 . S
C404 N401 1.350 . S
C404 C403 1.434 . S
C405 C406 1.369 . S
C405 C407 1.419 . S
C405 H409 0.930 . S
C406 C405 1.369 . S
C406 C415 1.429 . S
C407 C405 1.419 . S
C407 C408 1.363 . S
C407 H410 0.929 . S
C408 C407 1.363 . S
C408 C414 1.428 . S
H409 C405 0.930 . S
H410 C407 0.929 . S
S411 N412 1.613 1_545 S
S411 N413 1.610 1_545 S
N412 S411 1.613 1_565 S
N412 C415 1.350 . S
N413 S411 1.610 1_565 S
N413 C414 1.351 . S
C414 C408 1.428 . S
C414 N413 1.351 . S
C414 C415 1.434 . S
C415 C406 1.429 . S
C415 N412 1.350 . S
C415 C414 1.434 . S
C416 C417 1.369 . S
C416 C418 1.419 . S
C416 H420 0.930 . S
C417 C416 1.369 . S
C417 C426 1.429 . S
C418 C416 1.419 . S
C418 C419 1.363 . S
C418 H421 0.929 . S
C419 C418 1.363 . S
C419 C425 1.428 . S
H420 C416 0.930 . S
H421 C418 0.929 . S
S422 N423 1.619 . S
S422 N424 1.616 . S
N423 S422 1.619 . S
N423 C426 1.350 . S
N424 S422 1.616 . S
N424 C425 1.351 . S
C425 C419 1.428 . S
C425 N424 1.351 . S
C425 C426 1.434 . S
C426 C417 1.429 . S
C426 N423 1.350 . S
C426 C425 1.434 . S
C427 C428 1.369 . S
C427 C429 1.419 . S
C427 H431 0.930 . S
C428 C427 1.369 . S
C428 C437 1.429 1_545 S
C429 C427 1.419 . S
C429 C430 1.363 . S
C429 H432 0.929 . S
C430 C429 1.363 . S
C430 C436 1.428 1_545 S
H431 C427 0.930 . S
H432 C429 0.929 . S
S433 N434 1.613 . S
S433 N435 1.610 . S
N434 S433 1.613 . S
N434 C437 1.350 . S
N435 S433 1.610 . S
N435 C436 1.351 . S
C436 C430 1.428 1_565 S
C436 N435 1.351 . S
C436 C437 1.434 . S
C437 C428 1.429 1_565 S
C437 N434 1.350 . S
C437 C436 1.434 . S
C241 C129 1.244 1_455 S
C243 C9 1.253 . S
C252 C169 1.242 1_545 S
C254 C49 1.254 . S
C263 C209 1.252 . S
C265 C89 1.240 . S
C274 C15 1.155 . S
C276 C86 1.278 . S
C285 C55 1.171 . S
C287 C126 1.276 . S
C296 C95 1.149 . S
C298 C166 1.285 . S
C307 C135 1.167 . S
C309 C206 1.279 . S
C318 C175 1.159 . S
C320 C6 1.285 . S
C329 C215 1.164 . S
C331 C46 1.283 . S
C340 C18 1.655 . S
C342 C138 1.662 1_545 S
C351 C58 1.664 . S
C353 C178 1.665 . S
C362 C98 1.661 1_455 S
C364 C218 1.666 . S
C373 C10 4.253 . S
C375 C59 4.319 . S
C384 C50 4.254 . S
C386 C99 4.320 . S
C395 C90 4.253 . S
C397 C139 4.320 . S
C406 C130 4.253 . S
C408 C179 4.321 . S
C417 C170 4.251 1_455 S
C419 C219 4.321 . S
C428 C210 4.253 1_545 S
C430 C19 4.321 . S
