# Generated by pormake.
# Topology ukl, (4)-cn, num edge types: 1
# Building blocks:
#     Node 0, Type 0, BuildingBlock: KOZSID_clean_sbu_0, # of connection points: 4
#     Node 1, Type 0, BuildingBlock: KOZSID_clean_sbu_0, # of connection points: 4
#     Node 2, Type 0, BuildingBlock: KOZSID_clean_sbu_0, # of connection points: 4
#     Node 3, Type 0, BuildingBlock: KOZSID_clean_sbu_0, # of connection points: 4
#     Node 4, Type 0, BuildingBlock: KOZSID_clean_sbu_0, # of connection points: 4
#     Node 5, Type 0, BuildingBlock: KOZSID_clean_sbu_0, # of connection points: 4
#     Node 6, Type 0, BuildingBlock: KOZSID_clean_sbu_0, # of connection points: 4
#     Node 7, Type 0, BuildingBlock: KOZSID_clean_sbu_0, # of connection points: 4
#     Node 8, Type 0, BuildingBlock: KOZSID_clean_sbu_0, # of connection points: 4
#     Node 9, Type 0, BuildingBlock: KOZSID_clean_sbu_0, # of connection points: 4
#     Node 10, Type 0, BuildingBlock: KOZSID_clean_sbu_0, # of connection points: 4
#     Node 11, Type 0, BuildingBlock: KOZSID_clean_sbu_0, # of connection points: 4
#     Node 12, Type 0, BuildingBlock: KOZSID_clean_sbu_0, # of connection points: 4
#     Node 13, Type 0, BuildingBlock: KOZSID_clean_sbu_0, # of connection points: 4
#     Node 14, Type 0, BuildingBlock: KOZSID_clean_sbu_0, # of connection points: 4
#     Node 15, Type 0, BuildingBlock: KOZSID_clean_sbu_0, # of connection points: 4
#     Edge 16, Type (0, 0), BuildingBlock: ZUJKAS_clean_linker_0, # of connection points: 2
#     Edge 17, Type (0, 0), BuildingBlock: ZUJKAS_clean_linker_0, # of connection points: 2
#     Edge 18, Type (0, 0), BuildingBlock: ZUJKAS_clean_linker_0, # of connection points: 2
#     Edge 19, Type (0, 0), BuildingBlock: ZUJKAS_clean_linker_0, # of connection points: 2
#     Edge 20, Type (0, 0), BuildingBlock: ZUJKAS_clean_linker_0, # of connection points: 2
#     Edge 21, Type (0, 0), BuildingBlock: ZUJKAS_clean_linker_0, # of connection points: 2
#     Edge 22, Type (0, 0), BuildingBlock: ZUJKAS_clean_linker_0, # of connection points: 2
#     Edge 23, Type (0, 0), BuildingBlock: ZUJKAS_clean_linker_0, # of connection points: 2
#     Edge 24, Type (0, 0), BuildingBlock: ZUJKAS_clean_linker_0, # of connection points: 2
#     Edge 25, Type (0, 0), BuildingBlock: ZUJKAS_clean_linker_0, # of connection points: 2
#     Edge 26, Type (0, 0), BuildingBlock: ZUJKAS_clean_linker_0, # of connection points: 2
#     Edge 27, Type (0, 0), BuildingBlock: ZUJKAS_clean_linker_0, # of connection points: 2
#     Edge 28, Type (0, 0), BuildingBlock: ZUJKAS_clean_linker_0, # of connection points: 2
#     Edge 29, Type (0, 0), BuildingBlock: ZUJKAS_clean_linker_0, # of connection points: 2
#     Edge 30, Type (0, 0), BuildingBlock: ZUJKAS_clean_linker_0, # of connection points: 2
#     Edge 31, Type (0, 0), BuildingBlock: ZUJKAS_clean_linker_0, # of connection points: 2
#     Edge 32, Type (0, 0), BuildingBlock: ZUJKAS_clean_linker_0, # of connection points: 2
#     Edge 33, Type (0, 0), BuildingBlock: ZUJKAS_clean_linker_0, # of connection points: 2
#     Edge 34, Type (0, 0), BuildingBlock: ZUJKAS_clean_linker_0, # of connection points: 2
#     Edge 35, Type (0, 0), BuildingBlock: ZUJKAS_clean_linker_0, # of connection points: 2
#     Edge 36, Type (0, 0), BuildingBlock: ZUJKAS_clean_linker_0, # of connection points: 2
#     Edge 37, Type (0, 0), BuildingBlock: ZUJKAS_clean_linker_0, # of connection points: 2
#     Edge 38, Type (0, 0), BuildingBlock: ZUJKAS_clean_linker_0, # of connection points: 2
#     Edge 39, Type (0, 0), BuildingBlock: ZUJKAS_clean_linker_0, # of connection points: 2
#     Edge 40, Type (0, 0), BuildingBlock: ZUJKAS_clean_linker_0, # of connection points: 2
#     Edge 41, Type (0, 0), BuildingBlock: ZUJKAS_clean_linker_0, # of connection points: 2
#     Edge 42, Type (0, 0), BuildingBlock: ZUJKAS_clean_linker_0, # of connection points: 2
#     Edge 43, Type (0, 0), BuildingBlock: ZUJKAS_clean_linker_0, # of connection points: 2
#     Edge 44, Type (0, 0), BuildingBlock: ZUJKAS_clean_linker_0, # of connection points: 2
#     Edge 45, Type (0, 0), BuildingBlock: ZUJKAS_clean_linker_0, # of connection points: 2
#     Edge 46, Type (0, 0), BuildingBlock: ZUJKAS_clean_linker_0, # of connection points: 2
#     Edge 47, Type (0, 0), BuildingBlock: ZUJKAS_clean_linker_0, # of connection points: 2
# Relax obj value: 0.079
# Max RMSD: 0.106
# Mean RMSD: 0.083
data_MOF--net-ukl--node1-KOZSID_clean_sbu_0--edge1-ZUJKAS_clean_linker_0
_symmetry_space_group_name_H-M    P1
_symmetry_Int_Tables_number       1
_symmetry_cell_setting            triclinic
loop_
_symmetry_equiv_pos_as_xyz
'x, y, z'
_cell_length_a     46.365692
_cell_length_b     47.85966
_cell_length_c     35.985249
_cell_angle_alpha  89.978707
_cell_angle_beta   89.992147
_cell_angle_gamma 93.926874
loop_
_atom_site_label
_atom_site_type_symbol
_atom_site_fract_x
_atom_site_fract_y
_atom_site_fract_z
_atom_type_partial_charge
C0 C 0.37337 0.14385 0.0348 0.0
C1 C 0.38056 0.15399 -0.00039 0.0
C2 C 0.36115 0.14115 0.97553 0.0
C3 C 0.34332 0.12398 0.99729 0.0
N4 N 0.35014 0.1251 0.03381 0.0
Co5 Co 0.33013 0.10334 0.07502 0.0
N6 N 0.29942 0.08697 0.04041 0.0
C7 C 0.2981 0.09072 0.00321 0.0
C8 C 0.27313 0.07927 0.98741 0.0
C9 C 0.25717 0.06807 0.01632 0.0
C10 C 0.27348 0.0732 0.04826 0.0
N11 N 0.30996 0.08131 0.11603 0.0
C12 C 0.2833 0.06764 0.11661 0.0
C13 C 0.27689 0.05609 0.15125 0.0
C14 C 0.29993 0.06345 0.17367 0.0
C15 C 0.31909 0.0789 0.1515 0.0
N16 N 0.36003 0.12018 0.11013 0.0
C17 C 0.36234 0.11475 0.14687 0.0
C18 C 0.38473 0.12996 0.16386 0.0
C19 C 0.3974 0.14618 0.13637 0.0
C20 C 0.38194 0.13983 0.10405 0.0
N21 N 0.30609 0.13539 0.08516 0.0
C22 C 0.28088 0.18664 0.09913 0.0
C23 C 0.28965 0.16976 0.12831 0.0
C24 C 0.30193 0.1444 0.12079 0.0
C25 C 0.28334 0.17632 0.0629 0.0
C26 C 0.29571 0.1508 0.05661 0.0
N27 N 0.35579 0.07187 0.06457 0.0
C28 C 0.39743 0.04705 0.08367 0.0
C29 C 0.4042 0.04069 0.04687 0.0
C30 C 0.38444 0.04772 0.01953 0.0
C31 C 0.36052 0.06291 0.02893 0.0
C32 C 0.37313 0.06195 0.09184 0.0
H33 H 0.34679 0.06799 0.00659 0.0
H34 H 0.36948 0.06594 0.12044 0.0
H35 H 0.30865 0.13269 0.14418 0.0
H36 H 0.29756 0.1443 0.02835 0.0
C37 C 0.31899 0.10794 0.98467 0.0
C38 C 0.38911 0.15276 0.06826 0.0
C39 C 0.26282 0.06626 0.08568 0.0
C40 C 0.34314 0.09521 0.16452 0.0
H41 H 0.39793 0.16924 0.99217 0.0
H42 H 0.3599 0.14431 0.9458 0.0
H43 H 0.26659 0.08031 0.95858 0.0
H44 H 0.23553 0.05826 0.01416 0.0
H45 H 0.25713 0.04448 0.15973 0.0
H46 H 0.30169 0.05949 0.20318 0.0
H47 H 0.39105 0.12936 0.19279 0.0
H48 H 0.41595 0.16097 0.13968 0.0
H49 H 0.2874 0.17619 0.15695 0.0
H50 H 0.27682 0.18833 0.03921 0.0
H51 H 0.41112 0.04095 0.10625 0.0
H52 H 0.38805 0.04272 0.99063 0.0
C53 C 0.71927 0.62076 0.31876 0.0
C54 C 0.73253 0.63384 0.34928 0.0
C55 C 0.72126 0.62039 0.3801 0.0
C56 C 0.70164 0.60008 0.36676 0.0
N57 N 0.70052 0.59907 0.32925 0.0
Co58 Co 0.67167 0.57628 0.29818 0.0
N59 N 0.64859 0.56369 0.34279 0.0
C60 C 0.65642 0.56746 0.37872 0.0
C61 C 0.63614 0.55641 0.40336 0.0
C62 C 0.614 0.54514 0.38183 0.0
C63 C 0.622 0.55009 0.34512 0.0
N64 N 0.64216 0.55489 0.26665 0.0
C65 C 0.6158 0.54276 0.27589 0.0
C66 C 0.60126 0.53187 0.24481 0.0
C67 C 0.61907 0.53731 0.21502 0.0
C68 C 0.64328 0.55139 0.22939 0.0
N69 N 0.69504 0.58893 0.2538 0.0
C70 C 0.69159 0.57961 0.21855 0.0
C71 C 0.70936 0.59416 0.19365 0.0
C72 C 0.7243 0.61445 0.21411 0.0
C73 C 0.71471 0.61115 0.25041 0.0
N74 N 0.69401 0.54171 0.30311 0.0
C75 C 0.71159 0.48675 0.31649 0.0
C76 C 0.70188 0.49464 0.2815 0.0
C77 C 0.6937 0.52195 0.27537 0.0
C78 C 0.71504 0.50774 0.34349 0.0
C79 C 0.70669 0.53484 0.33607 0.0
N80 N 0.64906 0.6095 0.29369 0.0
C81 C 0.62204 0.64035 0.25624 0.0
C82 C 0.61345 0.65448 0.28795 0.0
C83 C 0.62378 0.64619 0.32249 0.0
C84 C 0.64152 0.62385 0.3247 0.0
C85 C 0.63975 0.61807 0.2597 0.0
H86 H 0.64856 0.6181 0.3518 0.0
H87 H 0.64544 0.60776 0.23466 0.0
H88 H 0.68646 0.52607 0.24813 0.0
H89 H 0.71027 0.54956 0.35791 0.0
C90 C 0.68093 0.58471 0.3883 0.0
C91 C 0.72331 0.63066 0.28039 0.0
C92 C 0.60356 0.54175 0.31345 0.0
C93 C 0.6669 0.56272 0.20863 0.0
H94 H 0.74774 0.65201 0.34945 0.0
H95 H 0.72537 0.62606 0.40882 0.0
H96 H 0.63684 0.55742 0.4334 0.0
H97 H 0.59401 0.53487 0.392 0.0
H98 H 0.57983 0.52147 0.24361 0.0
H99 H 0.61456 0.53225 0.18619 0.0
H100 H 0.70953 0.59197 0.16371 0.0
H101 H 0.73934 0.63077 0.20333 0.0
H102 H 0.69934 0.47953 0.25916 0.0
H103 H 0.72385 0.50326 0.37055 0.0
H104 H 0.61505 0.64635 0.22882 0.0
H105 H 0.61756 0.6563 0.34788 0.0
C106 C 0.14298 0.86784 0.52034 0.0
C107 C 0.13612 0.85625 0.48581 0.0
C108 C 0.15683 0.86668 0.46164 0.0
C109 C 0.17502 0.88405 0.48263 0.0
N110 N 0.16732 0.88518 0.51884 0.0
Co111 Co 0.18705 0.90872 0.5587 0.0
N112 N 0.21766 0.92398 0.52318 0.0
C113 C 0.219 0.91909 0.48622 0.0
C114 C 0.24362 0.93081 0.46972 0.0
C115 C 0.25927 0.94344 0.49794 0.0
C116 C 0.24325 0.93859 0.53014 0.0
N117 N 0.20721 0.93221 0.59845 0.0
C118 C 0.23365 0.94637 0.59814 0.0
C119 C 0.24043 0.95826 0.63249 0.0
C120 C 0.21776 0.95098 0.6555 0.0
C121 C 0.19855 0.93504 0.63407 0.0
N122 N 0.15682 0.89348 0.5945 0.0
C123 C 0.15464 0.89998 0.63093 0.0
C124 C 0.13159 0.88622 0.64844 0.0
C125 C 0.11804 0.87017 0.62151 0.0
C126 C 0.1336 0.87524 0.58892 0.0
N127 N 0.21121 0.87715 0.57109 0.0
C128 C 0.2372 0.82672 0.58747 0.0
C129 C 0.22684 0.84344 0.61579 0.0
C130 C 0.21423 0.86844 0.60709 0.0
C131 C 0.23588 0.83676 0.551 0.0
C132 C 0.2231 0.86185 0.54354 0.0
N133 N 0.1614 0.93957 0.54608 0.0
C134 C 0.12125 0.96645 0.56504 0.0
C135 C 0.11171 0.96857 0.52828 0.0
C136 C 0.12945 0.95861 0.50046 0.0
C137 C 0.15424 0.94484 0.50986 0.0
C138 C 0.14607 0.95227 0.57318 0.0
H139 H 0.16657 0.93765 0.48729 0.0
H140 H 0.15163 0.95078 0.60179 0.0
H141 H 0.20646 0.88011 0.62984 0.0
H142 H 0.22232 0.86809 0.51511 0.0
C143 C 0.19892 0.90026 0.46894 0.0
C144 C 0.12505 0.86274 0.55328 0.0
C145 C 0.25385 0.9472 0.5669 0.0
C146 C 0.17429 0.91945 0.64774 0.0
H147 H 0.11775 0.84213 0.47862 0.0
H148 H 0.15816 0.86253 0.43215 0.0
H149 H 0.25015 0.92907 0.44097 0.0
H150 H 0.2805 0.95417 0.49539 0.0
H151 H 0.26019 0.96998 0.6406 0.0
H152 H 0.21624 0.95542 0.68491 0.0
H153 H 0.12524 0.88787 0.67727 0.0
H154 H 0.0987 0.85649 0.62537 0.0
H155 H 0.22816 0.8372 0.64463 0.0
H156 H 0.24364 0.82483 0.52794 0.0
H157 H 0.10887 0.9744 0.58775 0.0
H158 H 0.12395 0.96089 0.47142 0.0
C159 C 0.79273 0.39163 0.81948 0.0
C160 C 0.77766 0.37806 0.84826 0.0
C161 C 0.78808 0.3901 0.88049 0.0
C162 C 0.80882 0.41032 0.86959 0.0
N163 N 0.81152 0.41244 0.8323 0.0
Co164 Co 0.84081 0.43675 0.8042 0.0
N165 N 0.86348 0.44634 0.85043 0.0
C166 C 0.85618 0.43853 0.88552 0.0
C167 C 0.87704 0.44614 0.91125 0.0
C168 C 0.89915 0.4592 0.89133 0.0
C169 C 0.89037 0.45914 0.85441 0.0
N170 N 0.86992 0.46101 0.77585 0.0
C171 C 0.89569 0.47337 0.78691 0.0
C172 C 0.90913 0.48874 0.75827 0.0
C173 C 0.8915 0.48539 0.72792 0.0
C174 C 0.86827 0.4684 0.73969 0.0
N175 N 0.81876 0.42581 0.75788 0.0
C176 C 0.82374 0.43609 0.7233 0.0
C177 C 0.80773 0.42192 0.69638 0.0
C178 C 0.79235 0.40074 0.71469 0.0
C179 C 0.79972 0.40333 0.75195 0.0
N180 N 0.81765 0.47055 0.81193 0.0
C181 C 0.79761 0.52482 0.82397 0.0
C182 C 0.80125 0.51439 0.7881 0.0
C183 C 0.81066 0.48739 0.78279 0.0
C184 C 0.80175 0.50658 0.85355 0.0
C185 C 0.81138 0.47984 0.84696 0.0
N186 N 0.86423 0.40429 0.79678 0.0
C187 C 0.89581 0.37856 0.7583 0.0
C188 C 0.90117 0.36059 0.78778 0.0
C189 C 0.88692 0.36437 0.82149 0.0
C190 C 0.86864 0.38619 0.82536 0.0
C191 C 0.87731 0.40008 0.76332 0.0
H192 H 0.85864 0.38846 0.85188 0.0
H193 H 0.87411 0.41339 0.74001 0.0
H194 H 0.81249 0.48101 0.75474 0.0
H195 H 0.8142 0.46752 0.87099 0.0
C196 C 0.83044 0.42234 0.89291 0.0
C197 C 0.78997 0.38298 0.78057 0.0
C198 C 0.90845 0.47067 0.82386 0.0
C199 C 0.84675 0.45599 0.71651 0.0
H200 H 0.7619 0.36038 0.84617 0.0
H201 H 0.78294 0.38325 0.90854 0.0
H202 H 0.87666 0.44183 0.94078 0.0
H203 H 0.91963 0.46723 0.90277 0.0
H204 H 0.92981 0.50066 0.75903 0.0
H205 H 0.89572 0.49343 0.70018 0.0
H206 H 0.80868 0.42531 0.66665 0.0
H207 H 0.77841 0.38452 0.70174 0.0
H208 H 0.79708 0.52708 0.76401 0.0
H209 H 0.79873 0.5132 0.88198 0.0
H210 H 0.90593 0.37614 0.73147 0.0
H211 H 0.8905 0.35113 0.84522 0.0
C212 C 0.70265 0.92306 0.96974 0.0
C213 C 0.70741 0.93343 0.00537 0.0
C214 C 0.73274 0.92306 0.01767 0.0
C215 C 0.74202 0.90678 0.98914 0.0
N216 N 0.72405 0.90652 0.95984 0.0
Co217 Co 0.727 0.88346 0.91457 0.0
N218 N 0.75137 0.85693 0.93966 0.0
C219 C 0.76694 0.86236 0.97069 0.0
C220 C 0.78194 0.83992 0.98152 0.0
C221 C 0.77543 0.81935 0.9555 0.0
C222 C 0.75666 0.83034 0.93021 0.0
N223 N 0.72933 0.86045 0.86915 0.0
C224 C 0.73605 0.83346 0.86542 0.0
C225 C 0.7341 0.8253 0.82841 0.0
C226 C 0.72653 0.84823 0.80857 0.0
C227 C 0.72405 0.86906 0.83435 0.0
N228 N 0.70271 0.91006 0.88963 0.0
C229 C 0.70075 0.91414 0.85281 0.0
C230 C 0.68102 0.93333 0.84406 0.0
C231 C 0.66993 0.94152 0.87753 0.0
C232 C 0.68347 0.92674 0.90485 0.0
N233 N 0.76211 0.90588 0.89938 0.0
C234 C 0.81435 0.93633 0.88218 0.0
C235 C 0.8108 0.9075 0.87563 0.0
C236 C 0.78478 0.8927 0.88467 0.0
C237 C 0.79097 0.94978 0.89699 0.0
C238 C 0.76489 0.93423 0.90493 0.0
N239 N 0.69263 0.86103 0.93004 0.0
C240 C 0.64552 0.8395 0.91695 0.0
C241 C 0.64294 0.83026 0.95384 0.0
C242 C 0.6658 0.83649 0.97841 0.0
C243 C 0.69044 0.85182 0.96594 0.0
C244 C 0.67059 0.85488 0.9056 0.0
H245 H 0.70768 0.85638 0.98551 0.0
H246 H 0.67209 0.86204 0.87721 0.0
H247 H 0.7833 0.87037 0.88041 0.0
H248 H 0.74712 0.94502 0.91614 0.0
C249 C 0.76237 0.88631 0.99216 0.0
C250 C 0.6784 0.92935 0.94502 0.0
C251 C 0.74606 0.81602 0.89606 0.0
C252 C 0.71178 0.89475 0.82815 0.0
H253 H 0.69387 0.94649 0.0213 0.0
H254 H 0.74204 0.92548 0.04517 0.0
H255 H 0.79508 0.83824 0.00617 0.0
H256 H 0.78365 0.79873 0.95507 0.0
H257 H 0.73766 0.80498 0.81681 0.0
H258 H 0.72202 0.84916 0.77914 0.0
H259 H 0.67402 0.93923 0.81663 0.0
H260 H 0.65346 0.95622 0.8814 0.0
H261 H 0.82839 0.89622 0.86462 0.0
H262 H 0.79278 0.97211 0.90225 0.0
H263 H 0.62815 0.83527 0.8972 0.0
H264 H 0.66477 0.82939 0.00699 0.0
C265 C 0.3519 0.43893 0.71708 0.0
C266 C 0.34128 0.43962 0.75307 0.0
C267 C 0.35404 0.46341 0.76938 0.0
C268 C 0.37181 0.47589 0.74263 0.0
N269 N 0.37069 0.46139 0.71066 0.0
Co270 Co 0.39473 0.46975 0.66615 0.0
N271 N 0.42427 0.49224 0.69495 0.0
C272 C 0.42015 0.5035 0.72865 0.0
C273 C 0.44481 0.51748 0.74219 0.0
C274 C 0.46546 0.51499 0.71516 0.0
C275 C 0.45221 0.49975 0.68627 0.0
N276 N 0.41848 0.47769 0.62133 0.0
C277 C 0.4468 0.48647 0.61846 0.0
C278 C 0.45461 0.49005 0.58142 0.0
C279 C 0.43021 0.48324 0.56069 0.0
C280 C 0.40883 0.47599 0.58606 0.0
N281 N 0.36521 0.44713 0.63769 0.0
C282 C 0.36073 0.44839 0.60087 0.0
C283 C 0.33976 0.42855 0.5892 0.0
C284 C 0.33086 0.41401 0.62071 0.0
C285 C 0.34699 0.42577 0.64986 0.0
N286 N 0.37438 0.5038 0.65686 0.0
C287 C 0.34672 0.55363 0.64483 0.0
C288 C 0.37673 0.55284 0.64101 0.0
C289 C 0.39002 0.52796 0.64707 0.0
C290 C 0.33081 0.5287 0.65492 0.0
C291 C 0.34502 0.50402 0.66066 0.0
N292 N 0.4151 0.43628 0.67549 0.0
C293 C 0.43251 0.39311 0.6539 0.0
C294 C 0.44117 0.38664 0.69002 0.0
C295 C 0.43706 0.40584 0.71853 0.0
C296 C 0.4241 0.43055 0.71066 0.0
C297 C 0.41954 0.41804 0.64723 0.0
H298 H 0.42086 0.4448 0.7332 0.0
H299 H 0.41275 0.42241 0.6193 0.0
H300 H 0.41316 0.52844 0.64408 0.0
H301 H 0.33233 0.48511 0.66829 0.0
C302 C 0.39491 0.49594 0.74913 0.0
C303 C 0.34407 0.41723 0.68902 0.0
C304 C 0.46587 0.49403 0.65019 0.0
C305 C 0.38134 0.46297 0.57806 0.0
H306 H 0.32655 0.42432 0.76652 0.0
H307 H 0.35224 0.4696 0.79817 0.0
H308 H 0.44785 0.52718 0.76919 0.0
H309 H 0.48767 0.52338 0.71678 0.0
H310 H 0.47561 0.49715 0.57056 0.0
H311 H 0.42857 0.48271 0.53069 0.0
H312 H 0.33314 0.42388 0.56091 0.0
H313 H 0.31478 0.39654 0.62207 0.0
H314 H 0.39013 0.57153 0.63401 0.0
H315 H 0.30755 0.52816 0.65799 0.0
H316 H 0.43577 0.37909 0.6309 0.0
H317 H 0.44325 0.40158 0.74689 0.0
C318 C 0.8148 0.0878 0.46697 0.0
C319 C 0.81404 0.07921 0.5038 0.0
C320 C 0.79986 0.09865 0.5231 0.0
C321 C 0.79259 0.11786 0.49704 0.0
N322 N 0.80054 0.11155 0.46215 0.0
Co323 Co 0.79473 0.1349 0.41667 0.0
N324 N 0.77085 0.16153 0.44438 0.0
C325 C 0.76694 0.16206 0.4815 0.0
C326 C 0.75029 0.18294 0.49321 0.0
C327 C 0.74351 0.19693 0.46164 0.0
C328 C 0.75641 0.1837 0.43229 0.0
N329 N 0.7893 0.1583 0.37129 0.0
C330 C 0.77321 0.18066 0.36565 0.0
C331 C 0.77597 0.19056 0.32946 0.0
C332 C 0.79494 0.1744 0.312 0.0
C333 C 0.80245 0.15547 0.33822 0.0
N334 N 0.81861 0.10816 0.38894 0.0
C335 C 0.8277 0.11118 0.35347 0.0
C336 C 0.84428 0.09038 0.34154 0.0
C337 C 0.84656 0.07324 0.37149 0.0
C338 C 0.8311 0.08455 0.40027 0.0
N339 N 0.7591 0.11173 0.40447 0.0
C340 C 0.70482 0.08494 0.38659 0.0
C341 C 0.72623 0.0897 0.35935 0.0
C342 C 0.75312 0.10309 0.36883 0.0
C343 C 0.71176 0.09265 0.42319 0.0
C344 C 0.73883 0.10577 0.43148 0.0
N345 N 0.82974 0.15847 0.4294 0.0
C346 C 0.87678 0.16239 0.45776 0.0
C347 C 0.87564 0.19132 0.46045 0.0
C348 C 0.85216 0.20389 0.44495 0.0
C349 C 0.82946 0.18706 0.42955 0.0
C350 C 0.85391 0.14652 0.44163 0.0
H351 H 0.81151 0.19738 0.41881 0.0
H352 H 0.85583 0.12462 0.43996 0.0
H353 H 0.76864 0.10703 0.34698 0.0
H354 H 0.74279 0.11166 0.45981 0.0
C355 C 0.77787 0.14171 0.50423 0.0
C356 C 0.83304 0.07504 0.4391 0.0
C357 C 0.75762 0.19521 0.39443 0.0
C358 C 0.82012 0.13366 0.33198 0.0
H359 H 0.82398 0.06143 0.51566 0.0
H360 H 0.79581 0.09902 0.55272 0.0
H361 H 0.74393 0.18753 0.52138 0.0
H362 H 0.73124 0.21534 0.46053 0.0
H363 H 0.76591 0.20815 0.3173 0.0
H364 H 0.8024 0.1762 0.28359 0.0
H365 H 0.85411 0.08826 0.31448 0.0
H366 H 0.85931 0.0552 0.37214 0.0
H367 H 0.72194 0.08405 0.33064 0.0
H368 H 0.69624 0.08881 0.44543 0.0
H369 H 0.89526 0.15204 0.46807 0.0
H370 H 0.85095 0.22641 0.44568 0.0
C371 C 0.16679 0.5773 0.23176 0.0
C372 C 0.17467 0.57776 0.26902 0.0
C373 C 0.1611 0.55436 0.2852 0.0
C374 C 0.14528 0.541 0.25737 0.0
N375 N 0.14834 0.5546 0.22477 0.0
Co376 Co 0.12614 0.5454 0.17894 0.0
N377 N 0.09504 0.52402 0.20653 0.0
C378 C 0.0975 0.51342 0.24092 0.0
C379 C 0.0721 0.50012 0.25329 0.0
C380 C 0.05269 0.50235 0.22474 0.0
C381 C 0.0674 0.51677 0.19622 0.0
N382 N 0.10419 0.53667 0.13287 0.0
C383 C 0.07586 0.52839 0.12837 0.0
C384 C 0.06954 0.52409 0.09102 0.0
C385 C 0.09492 0.52989 0.07179 0.0
C386 C 0.11534 0.53732 0.09833 0.0
N387 N 0.15722 0.56682 0.15169 0.0
C388 C 0.16334 0.56428 0.11541 0.0
C389 C 0.18559 0.58298 0.10438 0.0
C390 C 0.19358 0.59814 0.13572 0.0
C391 C 0.17564 0.58793 0.16416 0.0
N392 N 0.14624 0.51077 0.17269 0.0
C393 C 0.17379 0.46073 0.16123 0.0
C394 C 0.14383 0.46168 0.15695 0.0
C395 C 0.13062 0.48665 0.16271 0.0
C396 C 0.18963 0.48551 0.17213 0.0
C397 C 0.17547 0.51028 0.17765 0.0
N398 N 0.10592 0.57941 0.18496 0.0
C399 C 0.08861 0.62136 0.15908 0.0
C400 C 0.07714 0.62831 0.19361 0.0
C401 C 0.08043 0.61029 0.22372 0.0
C402 C 0.09483 0.58594 0.21879 0.0
C403 C 0.10289 0.59683 0.15535 0.0
H404 H 0.09699 0.57237 0.24238 0.0
H405 H 0.11158 0.59198 0.12851 0.0
H406 H 0.10756 0.48635 0.15886 0.0
H407 H 0.18815 0.5291 0.18563 0.0
C408 C 0.12177 0.52128 0.2629 0.0
C409 C 0.17695 0.5979 0.20295 0.0
C410 C 0.05539 0.52192 0.15902 0.0
C411 C 0.14343 0.54952 0.09182 0.0
H412 H 0.18778 0.59356 0.28381 0.0
H413 H 0.16081 0.54917 0.31448 0.0
H414 H 0.06775 0.49111 0.28048 0.0
H415 H 0.03031 0.49437 0.22515 0.0
H416 H 0.04888 0.51716 0.079 0.0
H417 H 0.09782 0.52964 0.04195 0.0
H418 H 0.19376 0.58649 0.07646 0.0
H419 H 0.21029 0.61503 0.13736 0.0
H420 H 0.13044 0.44312 0.14945 0.0
H421 H 0.21284 0.48595 0.1757 0.0
H422 H 0.08687 0.63491 0.13519 0.0
H423 H 0.07159 0.61472 0.25078 0.0
C424 C 0.85964 0.66276 0.5189 0.0
C425 C 0.86507 0.67382 0.48367 0.0
C426 C 0.85289 0.65481 0.4587 0.0
C427 C 0.84066 0.63328 0.47989 0.0
N428 N 0.84415 0.63782 0.51661 0.0
Co429 Co 0.83011 0.61213 0.55672 0.0
N430 N 0.80228 0.59176 0.52302 0.0
C431 C 0.80328 0.59157 0.4857 0.0
C432 C 0.77972 0.5768 0.47031 0.0
C433 C 0.76296 0.56732 0.49989 0.0
C434 C 0.77732 0.57685 0.53171 0.0
N435 N 0.8156 0.58628 0.5964 0.0
C436 C 0.78948 0.57198 0.59908 0.0
C437 C 0.78704 0.55723 0.63219 0.0
C438 C 0.81268 0.56285 0.65092 0.0
C439 C 0.82926 0.58063 0.62817 0.0
N440 N 0.85766 0.63214 0.59099 0.0
C441 C 0.86694 0.62217 0.62358 0.0
C442 C 0.88634 0.64065 0.64115 0.0
C443 C 0.88967 0.66341 0.61792 0.0
C444 C 0.87202 0.65754 0.58728 0.0
N445 N 0.801 0.63837 0.56985 0.0
C446 C 0.77275 0.68691 0.5864 0.0
C447 C 0.78479 0.67122 0.61468 0.0
C448 C 0.79854 0.64694 0.6059 0.0
C449 C 0.7727 0.67611 0.55014 0.0
C450 C 0.7868 0.65178 0.54251 0.0
N451 N 0.86065 0.58691 0.5434 0.0
C452 C 0.87902 0.54152 0.53148 0.0
C453 C 0.9068 0.55406 0.52371 0.0
C454 C 0.91072 0.58316 0.5268 0.0
C455 C 0.88778 0.59893 0.5365 0.0
C456 C 0.85615 0.55837 0.54107 0.0
H457 H 0.8924 0.62115 0.53843 0.0
H458 H 0.83493 0.54843 0.54654 0.0
H459 H 0.80887 0.63618 0.62802 0.0
H460 H 0.78791 0.64495 0.51403 0.0
C461 C 0.82221 0.61087 0.46691 0.0
C462 C 0.87239 0.67473 0.55332 0.0
C463 C 0.76736 0.5714 0.56992 0.0
C464 C 0.85372 0.59754 0.63909 0.0
H465 H 0.87706 0.69333 0.47674 0.0
H466 H 0.85235 0.65686 0.42876 0.0
H467 H 0.77428 0.57483 0.44113 0.0
H468 H 0.74236 0.55534 0.49819 0.0
H469 H 0.76858 0.54418 0.6419 0.0
H470 H 0.81776 0.55624 0.6788 0.0
H471 H 0.89634 0.63824 0.66803 0.0
H472 H 0.90395 0.68191 0.62263 0.0
H473 H 0.78459 0.67821 0.6433 0.0
H474 H 0.7635 0.68729 0.52734 0.0
H475 H 0.87487 0.51903 0.52961 0.0
H476 H 0.93172 0.59396 0.52217 0.0
C477 C 0.22442 0.12653 0.82054 0.0
C478 C 0.2393 0.14004 0.84951 0.0
C479 C 0.22887 0.12778 0.88159 0.0
C480 C 0.20829 0.10751 0.87043 0.0
N481 N 0.20569 0.10554 0.8331 0.0
Co482 Co 0.17644 0.08136 0.80471 0.0
N483 N 0.15411 0.07089 0.85096 0.0
C484 C 0.16167 0.07801 0.8862 0.0
C485 C 0.14108 0.06972 0.91199 0.0
C486 C 0.11889 0.05691 0.89198 0.0
C487 C 0.12734 0.05782 0.85493 0.0
N488 N 0.14717 0.05751 0.77602 0.0
C489 C 0.12144 0.045 0.78703 0.0
C490 C 0.10768 0.03033 0.75805 0.0
C491 C 0.12502 0.0343 0.72752 0.0
C492 C 0.14841 0.05096 0.73954 0.0
N493 N 0.19835 0.09285 0.75846 0.0
C494 C 0.19337 0.08287 0.72374 0.0
C495 C 0.20952 0.09716 0.69704 0.0
C496 C 0.22503 0.11807 0.71565 0.0
C497 C 0.21758 0.11524 0.75285 0.0
N498 N 0.19976 0.04756 0.81149 0.0
C499 C 0.2197 0.99322 0.82342 0.0
C500 C 0.21452 1.00312 0.78761 0.0
C501 C 0.20516 0.03014 0.78232 0.0
C502 C 0.21723 0.01207 0.85275 0.0
C503 C 0.20767 0.03884 0.84618 0.0
N504 N 0.15281 0.11379 0.79831 0.0
C505 C 0.12113 0.14011 0.76068 0.0
C506 C 0.11469 0.15668 0.79117 0.0
C507 C 0.12864 0.15214 0.82486 0.0
C508 C 0.14759 0.13082 0.82777 0.0
C509 C 0.14014 0.1189 0.76483 0.0
H510 H 0.15747 0.12806 0.85425 0.0
H511 H 0.14389 0.10641 0.74091 0.0
H512 H 0.202 0.03605 0.75432 0.0
H513 H 0.20622 0.05168 0.87 0.0
C514 C 0.18704 0.09472 0.8937 0.0
C515 C 0.22741 0.13535 0.7817 0.0
C516 C 0.10899 0.04694 0.82427 0.0
C517 C 0.17001 0.06347 0.71654 0.0
H518 H 0.25503 0.15777 0.84763 0.0
H519 H 0.23399 0.1344 0.90972 0.0
H520 H 0.14162 0.07355 0.94163 0.0
H521 H 0.09855 0.04856 0.90347 0.0
H522 H 0.08697 0.01845 0.75872 0.0
H523 H 0.12056 0.02683 0.69957 0.0
H524 H 0.20854 0.09407 0.66725 0.0
H525 H 0.23909 0.13431 0.70293 0.0
H526 H 0.2174 0.98998 0.76357 0.0
H527 H 0.22149 1.00592 0.88108 0.0
H528 H 0.11082 0.14283 0.73403 0.0
H529 H 0.12481 0.16486 0.84902 0.0
C530 C 0.64211 0.37038 0.03254 0.0
C531 C 0.63503 0.36057 0.99716 0.0
C532 C 0.65457 0.37355 0.97336 0.0
C533 C 0.67232 0.39054 0.99541 0.0
N534 N 0.66525 0.38926 0.03186 0.0
Co535 Co 0.68508 0.41074 0.07341 0.0
N536 N 0.71594 0.4273 0.03912 0.0
C537 C 0.71731 0.42403 0.00185 0.0
C538 C 0.7422 0.43595 0.98628 0.0
C539 C 0.75802 0.44696 0.01543 0.0
C540 C 0.74175 0.44117 0.04722 0.0
N541 N 0.70524 0.4323 0.11481 0.0
C542 C 0.73199 0.44579 0.11569 0.0
C543 C 0.73857 0.45666 0.15062 0.0
C544 C 0.71549 0.44915 0.1729 0.0
C545 C 0.69616 0.43426 0.15037 0.0
N546 N 0.65486 0.39389 0.10811 0.0
C547 C 0.65238 0.39914 0.14488 0.0
C548 C 0.63003 0.38376 0.16167 0.0
C549 C 0.61751 0.36765 0.13401 0.0
C550 C 0.63292 0.37431 0.10173 0.0
N551 N 0.7089 0.37847 0.08327 0.0
C552 C 0.7334 0.32678 0.09622 0.0
C553 C 0.7237 0.34281 0.12565 0.0
C554 C 0.71193 0.3685 0.11867 0.0
C555 C 0.73234 0.33813 0.06039 0.0
C556 C 0.72016 0.36382 0.0546 0.0
N557 N 0.65964 0.44244 0.0632 0.0
C558 C 0.61859 0.4679 0.08286 0.0
C559 C 0.61157 0.47426 0.04613 0.0
C560 C 0.63092 0.46683 0.01851 0.0
C561 C 0.65467 0.45133 0.0276 0.0
C562 C 0.64274 0.45268 0.09071 0.0
H563 H 0.66805 0.44598 0.00504 0.0
H564 H 0.64665 0.44872 0.11926 0.0
H565 H 0.70462 0.37964 0.14221 0.0
H566 H 0.71917 0.37107 0.02655 0.0
C567 C 0.6966 0.40682 0.98303 0.0
C568 C 0.62609 0.36133 0.06581 0.0
C569 C 0.75238 0.44762 0.0847 0.0
C570 C 0.67182 0.41819 0.16296 0.0
H571 H 0.61759 0.34553 0.98937 0.0
H572 H 0.6559 0.37066 0.94359 0.0
H573 H 0.74876 0.43537 0.95743 0.0
H574 H 0.77954 0.45714 0.01361 0.0
H575 H 0.75846 0.46794 0.15936 0.0
H576 H 0.71379 0.45263 0.20251 0.0
H577 H 0.6238 0.38399 0.19066 0.0
H578 H 0.59922 0.35256 0.13735 0.0
H579 H 0.72485 0.33543 0.15404 0.0
H580 H 0.73975 0.32673 0.03663 0.0
H581 H 0.60523 0.47427 0.10562 0.0
H582 H 0.62709 0.47179 0.98963 0.0
C583 C 0.29712 0.89281 0.32954 0.0
C584 C 0.28561 0.87928 0.36092 0.0
C585 C 0.29691 0.89349 0.39107 0.0
C586 C 0.3151 0.91452 0.37671 0.0
N587 N 0.31534 0.91524 0.33915 0.0
Co588 Co 0.34344 0.93816 0.30707 0.0
N589 N 0.36706 0.95163 0.35085 0.0
C590 C 0.35968 0.94828 0.38699 0.0
C591 C 0.38036 0.95936 0.41102 0.0
C592 C 0.40225 0.97033 0.38887 0.0
C593 C 0.3936 0.96546 0.35235 0.0
N594 N 0.37237 0.95928 0.27444 0.0
C595 C 0.39886 0.97151 0.28277 0.0
C596 C 0.41264 0.98263 0.25129 0.0
C597 C 0.39442 0.97676 0.22201 0.0
C598 C 0.37064 0.96242 0.23717 0.0
N599 N 0.31943 0.92503 0.2636 0.0
C600 C 0.32194 0.93452 0.22832 0.0
C601 C 0.30304 0.92055 0.20426 0.0
C602 C 0.28831 0.90046 0.2253 0.0
C603 C 0.29927 0.90315 0.26106 0.0
N604 N 0.32082 0.97252 0.31201 0.0
C605 C 0.30273 0.0272 0.32586 0.0
C606 C 0.31309 0.01977 0.29102 0.0
C607 C 0.32154 0.99262 0.28466 0.0
C608 C 0.29891 1.0059 0.35241 0.0
C609 C 0.3075 0.97891 0.34474 0.0
N610 N 0.36638 0.90519 0.3026 0.0
C611 C 0.39339 0.87437 0.26509 0.0
C612 C 0.40349 0.86149 0.29697 0.0
C613 C 0.39372 0.8701 0.33159 0.0
C614 C 0.37518 0.89177 0.33376 0.0
C615 C 0.37493 0.8961 0.26851 0.0
H616 H 0.36852 0.89776 0.36092 0.0
H617 H 0.36825 0.90575 0.24338 0.0
H618 H 0.32933 0.98893 0.25756 0.0
H619 H 0.3036 0.96389 0.3662 0.0
C620 C 0.33568 0.93071 0.39733 0.0
C621 C 0.29168 0.88318 0.29106 0.0
C622 C 0.4116 0.97333 0.32 0.0
C623 C 0.34648 0.95122 0.21736 0.0
H624 H 0.27171 0.8603 0.36252 0.0
H625 H 0.29395 0.88778 0.42 0.0
H626 H 0.38023 0.95827 0.44107 0.0
H627 H 0.42257 0.98005 0.39869 0.0
H628 H 0.43373 0.99375 0.24964 0.0
H629 H 0.39824 0.98198 0.19308 0.0
H630 H 0.30185 0.92303 0.17441 0.0
H631 H 0.27248 0.88463 0.2151 0.0
H632 H 0.31595 0.03513 0.26898 0.0
H633 H 0.28961 0.01004 0.3793 0.0
H634 H 0.40042 0.86838 0.23769 0.0
H635 H 0.4005 0.86029 0.35698 0.0
C636 C 0.19961 0.42658 0.46834 0.0
C637 C 0.19968 0.43546 0.50503 0.0
C638 C 0.21431 0.41666 0.52491 0.0
C639 C 0.22248 0.39751 0.49932 0.0
N640 N 0.2147 0.40329 0.46417 0.0
Co641 Co 0.22163 0.37974 0.41921 0.0
N642 N 0.24593 0.35399 0.44785 0.0
C643 C 0.24967 0.35404 0.48501 0.0
C644 C 0.26671 0.33367 0.49741 0.0
C645 C 0.27394 0.31941 0.46627 0.0
C646 C 0.2609 0.33198 0.43647 0.0
N647 N 0.2281 0.3561 0.37437 0.0
C648 C 0.24474 0.33406 0.3695 0.0
C649 C 0.24284 0.32393 0.33338 0.0
C650 C 0.22384 0.3396 0.31513 0.0
C651 C 0.21543 0.35847 0.3409 0.0
N652 N 0.19742 0.40567 0.39053 0.0
C653 C 0.18899 0.40228 0.35485 0.0
C654 C 0.17206 0.42261 0.34224 0.0
C655 C 0.16886 0.43979 0.37193 0.0
C656 C 0.18415 0.42899 0.40124 0.0
N657 N 0.25692 0.40358 0.40723 0.0
C658 C 0.31112 0.43092 0.38982 0.0
C659 C 0.29028 0.42497 0.36215 0.0
C660 C 0.26341 0.41144 0.37142 0.0
C661 C 0.30353 0.42418 0.42657 0.0
C662 C 0.27657 0.41068 0.43459 0.0
N663 N 0.18698 0.35553 0.43173 0.0
C664 C 0.13958 0.35082 0.45906 0.0
C665 C 0.14148 0.32203 0.46267 0.0
C666 C 0.16553 0.30986 0.4481 0.0
C667 C 0.18801 0.32701 0.43275 0.0
C668 C 0.16226 0.36699 0.44297 0.0
H669 H 0.20638 0.31702 0.42275 0.0
H670 H 0.15973 0.38874 0.44051 0.0
H671 H 0.24838 0.40673 0.34927 0.0
H672 H 0.27221 0.40541 0.46305 0.0
C673 C 0.23793 0.37425 0.50717 0.0
C674 C 0.18133 0.43859 0.4399 0.0
C675 C 0.26001 0.31989 0.39894 0.0
C676 C 0.1974 0.37987 0.33386 0.0
H677 H 0.18904 0.453 0.5164 0.0
H678 H 0.21805 0.41665 0.5546 0.0
H679 H 0.27296 0.32954 0.52576 0.0
H680 H 0.28657 0.30123 0.46575 0.0
H681 H 0.25349 0.30649 0.32177 0.0
H682 H 0.217 0.3375 0.2865 0.0
H683 H 0.1626 0.42437 0.31491 0.0
H684 H 0.15563 0.45749 0.37205 0.0
H685 H 0.29498 0.42978 0.33328 0.0
H686 H 0.31845 0.42901 0.44919 0.0
H687 H 0.12064 0.36081 0.46859 0.0
H688 H 0.16733 0.28743 0.44951 0.0
C689 C 0.84608 0.93486 0.21928 0.0
C690 C 0.83588 0.93472 0.25547 0.0
C691 C 0.84899 0.95808 0.27251 0.0
C692 C 0.86638 0.9712 0.24581 0.0
N693 N 0.86466 0.95749 0.21323 0.0
Co694 Co 0.88762 0.96697 0.16828 0.0
N695 N 0.91786 0.98839 0.19713 0.0
C696 C 0.91438 0.99916 0.23125 0.0
C697 C 0.93921 0.01328 0.24414 0.0
C698 C 0.95929 0.01131 0.21624 0.0
C699 C 0.94561 0.99597 0.18779 0.0
N700 N 0.91052 0.97611 0.12301 0.0
C701 C 0.93888 0.98466 0.11959 0.0
C702 C 0.94621 0.98823 0.08238 0.0
C703 C 0.92137 0.98214 0.06221 0.0
C704 C 0.90028 0.97504 0.08801 0.0
N705 N 0.85722 0.94535 0.13986 0.0
C706 C 0.85217 0.94754 0.10325 0.0
C707 C 0.83094 0.92811 0.09128 0.0
C708 C 0.82245 0.91281 0.12232 0.0
C709 C 0.83893 0.92385 0.15167 0.0
N710 N 0.86736 1.00147 0.16157 0.0
C711 C 0.84003 0.05202 0.15377 0.0
C712 C 0.86989 0.05103 0.14852 0.0
C713 C 0.88301 0.02581 0.15253 0.0
C714 C 0.82403 0.02681 0.16241 0.0
C715 C 0.83809 1.00181 0.16626 0.0
N716 N 0.90799 0.93312 0.17502 0.0
C717 C 0.92566 0.89094 0.15034 0.0
C718 C 0.93582 0.88386 0.18554 0.0
C719 C 0.93196 0.90207 0.21526 0.0
C720 C 0.91808 0.92659 0.2094 0.0
C721 C 0.91183 0.91566 0.14567 0.0
H722 H 0.91535 0.94021 0.23278 0.0
H723 H 0.90398 0.92056 0.1184 0.0
H724 H 0.90605 0.02615 0.14845 0.0
H725 H 0.82538 0.98279 0.17334 0.0
C726 C 0.88953 0.99122 0.25237 0.0
C727 C 0.83713 0.91413 0.19057 0.0
C728 C 0.95856 0.99107 0.15115 0.0
C729 C 0.87258 0.96238 0.08046 0.0
H730 H 0.82098 0.91917 0.26822 0.0
H731 H 0.84753 0.96365 0.30157 0.0
H732 H 0.94269 0.02294 0.2711 0.0
H733 H 0.98135 0.02032 0.21663 0.0
H734 H 0.96721 0.9945 0.07089 0.0
H735 H 0.91931 0.98173 0.03225 0.0
H736 H 0.82399 0.92406 0.06296 0.0
H737 H 0.80657 0.8952 0.12287 0.0
H738 H 0.88321 0.06964 0.14102 0.0
H739 H 0.80091 0.02645 0.16688 0.0
H740 H 0.92798 0.87729 0.12668 0.0
H741 H 0.93985 0.89758 0.24281 0.0
C742 C 0.31458 0.5946 0.96887 0.0
C743 C 0.30982 0.5842 0.0045 0.0
C744 C 0.28457 0.59468 0.01689 0.0
C745 C 0.27534 0.61105 0.98841 0.0
N746 N 0.29327 0.61127 0.95905 0.0
Co747 Co 0.29035 0.63441 0.91383 0.0
N748 N 0.26612 0.661 0.93903 0.0
C749 C 0.25059 0.6556 0.97011 0.0
C750 C 0.2357 0.67808 0.98102 0.0
C751 C 0.24224 0.69866 0.95501 0.0
C752 C 0.26092 0.68763 0.92963 0.0
N753 N 0.28802 0.65748 0.86844 0.0
C754 C 0.2813 0.68448 0.86474 0.0
C755 C 0.28302 0.69262 0.8277 0.0
C756 C 0.29045 0.66968 0.80778 0.0
C757 C 0.29311 0.64886 0.83359 0.0
N758 N 0.3145 0.60776 0.88878 0.0
C759 C 0.31639 0.60372 0.85194 0.0
C760 C 0.33602 0.58446 0.8431 0.0
C761 C 0.34712 0.57618 0.87652 0.0
C762 C 0.33369 0.59097 0.90392 0.0
N763 N 0.25516 0.61211 0.89872 0.0
C764 C 0.20287 0.58175 0.88154 0.0
C765 C 0.20642 0.61062 0.87518 0.0
C766 C 0.23248 0.62537 0.88419 0.0
C767 C 0.22628 0.56824 0.89616 0.0
C768 C 0.25237 0.58374 0.90412 0.0
N769 N 0.32482 0.6567 0.92923 0.0
C770 C 0.37208 0.67788 0.91611 0.0
C771 C 0.37481 0.68692 0.95306 0.0
C772 C 0.35193 0.68083 0.97765 0.0
C773 C 0.32713 0.66579 0.96516 0.0
C774 C 0.34685 0.66277 0.90474 0.0
H775 H 0.30989 0.66131 0.98476 0.0
H776 H 0.34524 0.65572 0.87631 0.0
H777 H 0.23398 0.64771 0.88004 0.0
H778 H 0.27014 0.57289 0.9152 0.0
C779 C 0.2551 0.6316 0.99152 0.0
C780 C 0.33875 0.58821 0.94408 0.0
C781 C 0.27148 0.70194 0.89545 0.0
C782 C 0.30532 0.62314 0.82733 0.0
H783 H 0.32331 0.57106 0.02037 0.0
H784 H 0.27531 0.59227 0.04441 0.0
H785 H 0.22261 0.67979 0.00572 0.0
H786 H 0.2341 0.71932 0.95463 0.0
H787 H 0.27933 0.71292 0.81613 0.0
H788 H 0.29467 0.66874 0.77824 0.0
H789 H 0.34292 0.57854 0.81564 0.0
H790 H 0.36352 0.56138 0.88032 0.0
H791 H 0.18882 0.62196 0.86432 0.0
H792 H 0.22447 0.54589 0.90128 0.0
H793 H 0.38946 0.68201 0.89633 0.0
H794 H 0.35308 0.6878 0.00628 0.0
C795 C 0.66836 0.07866 0.71396 0.0
C796 C 0.67834 0.07762 0.75022 0.0
C797 C 0.66506 0.05382 0.76596 0.0
C798 C 0.64763 0.04169 0.73861 0.0
N799 N 0.64947 0.05642 0.70682 0.0
Co800 Co 0.62618 0.04866 0.66157 0.0
N801 N 0.59591 0.02639 0.68939 0.0
C802 C 0.59935 0.01459 0.72291 0.0
C803 C 0.57446 1.00027 0.73523 0.0
C804 C 0.55437 1.00315 0.70756 0.0
C805 C 0.56817 0.01909 0.67973 0.0
N806 N 0.60316 0.04128 0.61601 0.0
C807 C 0.57479 0.03296 0.61235 0.0
C808 C 0.56745 0.02992 0.5751 0.0
C809 C 0.59226 0.03652 0.55504 0.0
C810 C 0.61337 0.04316 0.58102 0.0
N811 N 0.65645 0.07105 0.63412 0.0
C812 C 0.66155 0.07001 0.59741 0.0
C813 C 0.68294 0.08971 0.58653 0.0
C814 C 0.69144 0.10394 0.61843 0.0
C815 C 0.67467 0.09214 0.647 0.0
N816 N 0.64613 0.01432 0.65268 0.0
C817 C 0.67258 0.96347 0.64437 0.0
C818 C 0.64291 0.96504 0.63825 0.0
C819 C 0.63022 0.99042 0.6425 0.0
C820 C 0.68896 0.98831 0.65365 0.0
C821 C 0.67531 0.0135 0.65772 0.0
N822 N 0.60608 0.08234 0.67057 0.0
C823 C 0.58828 0.12524 0.64854 0.0
C824 C 0.57888 0.13139 0.6844 0.0
C825 C 0.5831 0.11241 0.7131 0.0
C826 C 0.59656 0.08792 0.70555 0.0
C827 C 0.60192 0.10062 0.64223 0.0
H828 H 0.59947 0.07359 0.72811 0.0
H829 H 0.60936 0.09648 0.61452 0.0
H830 H 0.60726 0.99049 0.63803 0.0
H831 H 0.68822 0.03222 0.66554 0.0
C832 C 0.62428 0.02172 0.74423 0.0
C833 C 0.67689 0.10045 0.68629 0.0
C834 C 0.55522 0.02549 0.64355 0.0
C835 C 0.64114 0.05588 0.57388 0.0
H836 H 0.69301 0.09269 0.76419 0.0
H837 H 0.66632 0.04739 0.79472 0.0
H838 H 0.57092 0.98993 0.76176 0.0
H839 H 0.53221 0.99445 0.70784 0.0
H840 H 0.54648 0.02337 0.56368 0.0
H841 H 0.59434 0.03737 0.52509 0.0
H842 H 0.69009 0.09453 0.55848 0.0
H843 H 0.70765 0.12126 0.62041 0.0
H844 H 0.62939 0.9467 0.63015 0.0
H845 H 0.71197 0.98818 0.65867 0.0
H846 H 0.58558 0.13956 0.62568 0.0
H847 H 0.57578 0.11629 0.7411 0.0
H848 H 0.62395 0.90569 0.93459 0.0
H849 H 0.57766 0.92418 0.95164 0.0
H850 H 0.62341 0.99555 0.00303 0.0
H851 H 0.66953 0.97786 0.98403 0.0
H852 H 0.55196 0.93493 0.01454 0.0
H853 H 0.56963 0.03563 0.93982 0.0
H854 H 0.59346 1.0077 0.93438 0.0
H855 H 0.59731 0.03108 0.9736 0.0
C856 C 0.62407 0.92531 0.94964 0.0
C857 C 0.65049 0.93997 0.95863 0.0
C858 C 0.59755 0.9359 0.95943 0.0
C859 C 0.59665 0.96163 0.97824 0.0
C860 C 0.62316 0.97603 0.98784 0.0
H861 H 0.45832 0.05322 0.07594 0.0
H862 H 0.504 0.0335 0.05938 0.0
C863 C 0.64968 0.96556 0.9777 0.0
C864 C 0.5681 0.97315 0.98784 0.0
H865 H 0.52939 0.03159 0.98124 0.0
C866 C 0.54707 0.95602 0.00696 0.0
C867 C 0.56121 1.00067 0.97791 0.0
C868 C 0.58146 0.01972 0.95496 0.0
C869 C 0.52002 0.96571 0.01698 0.0
C870 C 0.51352 0.99334 0.00777 0.0
C871 C 0.53436 0.01047 0.98857 0.0
C872 C 0.48531 1.00491 0.01809 0.0
C873 C 0.49864 0.94651 0.03799 0.0
C874 C 0.45937 0.9956 0.00033 0.0
C875 C 0.4331 1.00701 0.00961 0.0
C876 C 0.43201 0.02783 0.0372 0.0
C877 C 0.45808 0.03695 0.055 0.0
C878 C 0.48435 0.0258 0.04539 0.0
H879 H 0.50837 0.92724 0.04776 0.0
H880 H 0.49008 0.95755 0.06234 0.0
H881 H 0.4801 0.94026 0.01959 0.0
H882 H 0.45949 0.97967 0.97899 0.0
H883 H 0.41357 0.99933 0.99535 0.0
H884 H 0.78141 0.89091 0.18337 0.0
H885 H 0.76267 0.84312 0.19933 0.0
H886 H 0.84737 0.82439 0.23749 0.0
H887 H 0.866 0.87222 0.22162 0.0
H888 H 0.77772 0.79221 0.17331 0.0
H889 H 0.798 0.79771 0.32496 0.0
H890 H 0.7999 0.82846 0.29578 0.0
H891 H 0.82964 0.80624 0.29739 0.0
C892 C 0.79601 0.87651 0.19502 0.0
C893 C 0.82525 0.88521 0.20087 0.0
C894 C 0.78528 0.84919 0.20428 0.0
C895 C 0.80341 0.82995 0.22011 0.0
C896 C 0.83266 0.83877 0.2261 0.0
H897 H 0.77878 0.65389 0.29028 0.0
H898 H 0.798 0.70174 0.27516 0.0
C899 C 0.84337 0.8661 0.21683 0.0
C900 C 0.79185 0.80061 0.2294 0.0
H901 H 0.78366 0.75287 0.30036 0.0
C902 C 0.77892 0.78371 0.20117 0.0
C903 C 0.79338 0.7892 0.26569 0.0
C904 C 0.80572 0.80639 0.29781 0.0
C905 C 0.76806 0.75587 0.20795 0.0
C906 C 0.76949 0.74448 0.24427 0.0
C907 C 0.78248 0.76136 0.2725 0.0
C908 C 0.75764 0.71523 0.25357 0.0
C909 C 0.75585 0.73867 0.17576 0.0
C910 C 0.72841 0.70662 0.24701 0.0
C911 C 0.71745 0.67927 0.2557 0.0
C912 C 0.73529 0.65991 0.27167 0.0
C913 C 0.76444 0.66846 0.27841 0.0
C914 C 0.77543 0.69582 0.26969 0.0
H915 H 0.76394 0.74719 0.14869 0.0
H916 H 0.7614 0.71653 0.17801 0.0
H917 H 0.73196 0.73909 0.17575 0.0
H918 H 0.71393 0.72115 0.23543 0.0
H919 H 0.6949 0.67326 0.25022 0.0
H920 H 0.0715 0.94875 0.47697 0.0
H921 H 0.02418 0.96607 0.4631 0.0
H922 H 0.03888 0.03081 0.54541 0.0
H923 H 0.08642 0.01377 0.55928 0.0
H924 H 0.97624 0.97229 0.51417 0.0
H925 H 0.01557 0.07344 0.45011 0.0
H926 H 0.03835 0.04457 0.45547 0.0
H927 H 0.03066 0.06595 0.49475 0.0
C928 C 0.06492 0.96693 0.49184 0.0
C929 C 0.08309 0.97994 0.51911 0.0
C930 C 0.03766 0.97668 0.48404 0.0
C931 C 0.02791 0.99994 0.5029 0.0
C932 C 0.04595 0.01303 0.53011 0.0
H933 H 0.87593 0.09695 0.48537 0.0
H934 H 0.92159 0.07763 0.5017 0.0
C935 C 0.07313 1.00312 0.5382 0.0
C936 C 0.99877 0.0102 0.49445 0.0
H937 H 0.96525 0.06607 0.4595 0.0
C938 C 0.97382 0.99277 0.50212 0.0
C939 C 0.99547 0.03695 0.47885 0.0
C940 C 0.02137 0.05632 0.46898 0.0
C941 C 0.9458 1.00155 0.49541 0.0
C942 C 0.94245 0.02828 0.47947 0.0
C943 C 0.96752 0.04561 0.47169 0.0
C944 C 0.91336 0.039 0.47107 0.0
C945 C 0.92012 0.98236 0.50669 0.0
C946 C 0.89286 0.02377 0.44871 0.0
C947 C 0.86634 0.03476 0.43965 0.0
C948 C 0.85994 0.06159 0.45179 0.0
C949 C 0.88017 0.07645 0.4749 0.0
C950 C 0.90646 0.06538 0.48427 0.0
H951 H 0.92596 0.96735 0.52854 0.0
H952 H 0.90218 0.99439 0.51722 0.0
H953 H 0.91225 0.97 0.48219 0.0
H954 H 0.89758 1.00362 0.43745 0.0
H955 H 0.8511 0.02253 0.42236 0.0
H956 H 0.65229 0.14972 0.67431 0.0
H957 H 0.67144 0.19743 0.69007 0.0
H958 H 0.74712 0.16398 0.73784 0.0
H959 H 0.72823 0.1164 0.72128 0.0
H960 H 0.68552 0.22195 0.75738 0.0
H961 H 0.78348 0.22338 0.66903 0.0
H962 H 0.75424 0.1967 0.66478 0.0
H963 H 0.78057 0.19468 0.70122 0.0
C964 C 0.67304 0.15263 0.68815 0.0
C965 C 0.6886 0.12932 0.69696 0.0
C966 C 0.68397 0.17991 0.69721 0.0
C967 C 0.71099 0.1846 0.71481 0.0
C968 C 0.7265 0.16119 0.72372 0.0
H969 H 0.81426 0.33353 0.79312 0.0
H970 H 0.79473 0.28581 0.77799 0.0
C971 C 0.71553 0.13391 0.7147 0.0
C972 C 0.72266 0.21384 0.72424 0.0
H973 H 0.78047 0.26138 0.71095 0.0
C974 C 0.70623 0.23058 0.74704 0.0
C975 C 0.74973 0.22534 0.71091 0.0
C976 C 0.76794 0.20923 0.68484 0.0
C977 C 0.71628 0.258 0.75744 0.0
C978 C 0.74336 0.26949 0.74414 0.0
C979 C 0.75977 0.25275 0.72131 0.0
C980 C 0.75509 0.29871 0.75358 0.0
C981 C 0.69804 0.27413 0.78345 0.0
C982 C 0.73961 0.32216 0.74474 0.0
C983 C 0.75079 0.34943 0.75346 0.0
C984 C 0.77788 0.35399 0.77078 0.0
C985 C 0.79339 0.33063 0.77961 0.0
C986 C 0.78223 0.30336 0.7709 0.0
H987 H 0.68251 0.25998 0.79929 0.0
H988 H 0.71172 0.28671 0.80349 0.0
H989 H 0.68539 0.28863 0.76702 0.0
H990 H 0.71894 0.31941 0.73078 0.0
H991 H 0.73825 0.36702 0.74666 0.0
H992 H 0.27965 0.15075 0.74869 0.0
H993 H 0.29964 0.19816 0.73289 0.0
H994 H 0.2238 0.23267 0.77861 0.0
H995 H 0.20361 0.18514 0.79369 0.0
H996 H 0.23901 0.25674 0.71149 0.0
H997 H 0.33597 0.25753 0.80159 0.0
H998 H 0.33309 0.22879 0.76951 0.0
H999 H 0.30645 0.2311 0.80553 0.0
C1000 C 0.26726 0.16849 0.75522 0.0
C1001 C 0.23996 0.16424 0.77212 0.0
C1002 C 0.27881 0.19565 0.74653 0.0
C1003 C 0.26352 0.2193 0.75495 0.0
C1004 C 0.23618 0.21496 0.77185 0.0
H1005 H 0.29196 0.4014 0.72225 0.0
H1006 H 0.27257 0.35388 0.73829 0.0
C1007 C 0.22464 0.1878 0.78054 0.0
C1008 C 0.27563 0.24841 0.74548 0.0
H1009 H 0.33368 0.29555 0.75952 0.0
C1010 C 0.25965 0.26523 0.7222 0.0
C1011 C 0.30265 0.25971 0.75919 0.0
C1012 C 0.32045 0.24349 0.78562 0.0
C1013 C 0.27005 0.29255 0.7118 0.0
C1014 C 0.29703 0.3039 0.72561 0.0
C1015 C 0.31304 0.28706 0.74882 0.0
C1016 C 0.30899 0.33311 0.71637 0.0
C1017 C 0.25231 0.30872 0.68524 0.0
C1018 C 0.33633 0.3377 0.69956 0.0
C1019 C 0.34757 0.36496 0.69081 0.0
C1020 C 0.33197 0.38835 0.69917 0.0
C1021 C 0.3047 0.38384 0.71605 0.0
C1022 C 0.29343 0.35659 0.72477 0.0
H1023 H 0.23698 0.29461 0.66906 0.0
H1024 H 0.23944 0.32329 0.70126 0.0
H1025 H 0.26634 0.32123 0.6655 0.0
H1026 H 0.34891 0.32013 0.69281 0.0
H1027 H 0.36857 0.3678 0.67762 0.0
H1028 H 0.31429 0.84527 0.24444 0.0
H1029 H 0.29412 0.79875 0.22633 0.0
H1030 H 0.22243 0.8073 0.30111 0.0
H1031 H 0.24029 0.85533 0.3144 0.0
H1032 H 0.28664 0.75323 0.25314 0.0
H1033 H 0.17495 0.77738 0.22204 0.0
H1034 H 0.20248 0.80464 0.2319 0.0
H1035 H 0.18273 0.78668 0.26924 0.0
C1036 C 0.29396 0.83733 0.25656 0.0
C1037 C 0.2794 0.85394 0.28173 0.0
C1038 C 0.28244 0.81047 0.24641 0.0
C1039 C 0.25622 0.79895 0.2617 0.0
C1040 C 0.24202 0.81546 0.28751 0.0
H1041 H 0.22227 0.61531 0.25006 0.0
H1042 H 0.23937 0.66294 0.26614 0.0
C1043 C 0.25287 0.84283 0.2963 0.0
C1044 C 0.24448 0.76961 0.25144 0.0
H1045 H 0.18228 0.72903 0.23316 0.0
C1046 C 0.2638 0.74824 0.24823 0.0
C1047 C 0.21475 0.76241 0.24396 0.0
C1048 C 0.19268 0.7841 0.24152 0.0
C1049 C 0.25454 0.72052 0.23825 0.0
C1050 C 0.22453 0.71281 0.23405 0.0
C1051 C 0.20522 0.73422 0.23691 0.0
C1052 C 0.21265 0.68311 0.22608 0.0
C1053 C 0.27751 0.70036 0.23071 0.0
C1054 C 0.19026 0.6777 0.19995 0.0
C1055 C 0.17863 0.65025 0.1931 0.0
C1056 C 0.18927 0.62718 0.21163 0.0
C1057 C 0.21217 0.63243 0.23688 0.0
C1058 C 0.22291 0.65994 0.24498 0.0
H1059 H 0.2978 0.71161 0.2207 0.0
H1060 H 0.28277 0.68959 0.25692 0.0
H1061 H 0.27042 0.6845 0.20954 0.0
H1062 H 0.18173 0.69472 0.18453 0.0
H1063 H 0.16127 0.64703 0.17307 0.0
H1064 H 0.94702 0.56741 0.46979 0.0
H1065 H 0.99238 0.54604 0.45774 0.0
H1066 H 0.9703 0.48273 0.54001 0.0
H1067 H 0.92469 0.50446 0.55281 0.0
H1068 H 0.03651 0.53925 0.51233 0.0
H1069 H 0.9976 0.43775 0.44869 0.0
H1070 H 0.97538 0.46727 0.45112 0.0
H1071 H 0.98106 0.44677 0.49189 0.0
C1072 C 0.95162 0.54883 0.48531 0.0
C1073 C 0.93215 0.5379 0.51265 0.0
C1074 C 0.97765 0.53659 0.47828 0.0
C1075 C 0.98498 0.51276 0.49792 0.0
C1076 C 0.96512 0.50096 0.52416 0.0
H1077 H 0.13833 0.41574 0.48541 0.0
H1078 H 0.09197 0.43405 0.50088 0.0
C1079 C 0.93894 0.51335 0.53139 0.0
C1080 C 0.01403 0.50151 0.492 0.0
H1081 H 0.04782 0.44538 0.4583 0.0
C1082 C 0.03897 0.5187 0.50055 0.0
C1083 C 0.0174 0.47465 0.47681 0.0
C1084 C 0.99153 0.45549 0.46628 0.0
C1085 C 0.067 0.50979 0.49464 0.0
C1086 C 0.07046 0.48315 0.47859 0.0
C1087 C 0.04544 0.46583 0.47042 0.0
C1088 C 0.09966 0.47273 0.4702 0.0
C1089 C 0.09258 0.52884 0.50661 0.0
C1090 C 0.12002 0.4883 0.44798 0.0
C1091 C 0.14688 0.47789 0.43935 0.0
C1092 C 0.15382 0.4513 0.45182 0.0
C1093 C 0.13367 0.43606 0.47467 0.0
C1094 C 0.10699 0.44654 0.48356 0.0
H1095 H 0.08651 0.54364 0.52861 0.0
H1096 H 0.1104 0.51671 0.51724 0.0
H1097 H 0.1007 0.54146 0.48245 0.0
H1098 H 0.11495 0.50833 0.43663 0.0
H1099 H 0.16203 0.4904 0.42225 0.0
H1100 H 0.39343 0.61144 0.93391 0.0
H1101 H 0.43947 0.59252 0.95115 0.0
H1102 H 0.39294 0.52132 0.002 0.0
H1103 H 0.34707 0.53944 0.98278 0.0
H1104 H 0.46476 0.58141 0.01422 0.0
H1105 H 0.44665 0.48097 0.93907 0.0
H1106 H 0.42307 0.50911 0.93355 0.0
H1107 H 0.41887 0.48565 0.97267 0.0
C1108 C 0.39309 0.59176 0.94886 0.0
C1109 C 0.36652 0.57728 0.95764 0.0
C1110 C 0.41946 0.58093 0.95877 0.0
C1111 C 0.42006 0.55513 0.97751 0.0
C1112 C 0.39342 0.54089 0.98687 0.0
H1113 H 0.55754 0.46265 0.07604 0.0
H1114 H 0.51205 0.48281 0.05965 0.0
C1115 C 0.36704 0.55161 0.9766 0.0
C1116 C 0.44846 0.54335 0.98728 0.0
H1117 H 0.48671 0.48462 0.98075 0.0
C1118 C 0.46952 0.56029 0.00661 0.0
C1119 C 0.45516 0.5158 0.97732 0.0
C1120 C 0.43488 0.49694 0.95417 0.0
C1121 C 0.49643 0.55037 0.01677 0.0
C1122 C 0.50275 0.5227 0.00752 0.0
C1123 C 0.48187 0.50577 0.98813 0.0
C1124 C 0.53084 0.51094 0.01786 0.0
C1125 C 0.51789 0.56936 0.03793 0.0
C1126 C 0.55677 0.51986 -0.00019 0.0
C1127 C 0.58293 0.50821 0.00898 0.0
C1128 C 0.58391 0.4875 0.03677 0.0
C1129 C 0.55786 0.4788 0.05493 0.0
C1130 C 0.5317 0.49021 0.04542 0.0
H1131 H 0.50835 0.58878 0.0475 0.0
H1132 H 0.52611 0.55824 0.06244 0.0
H1133 H 0.53663 0.57535 0.01974 0.0
H1134 H 0.55673 0.53568 0.97828 0.0
H1135 H 0.60245 0.51557 0.99445 0.0
H1136 H 0.16124 0.42187 0.1065 0.0
H1137 H 0.18129 0.37653 0.09761 0.0
H1138 H 0.23943 0.39359 0.18955 0.0
H1139 H 0.21859 0.4387 0.19965 0.0
H1140 H 0.23585 0.36197 0.08168 0.0
H1141 H 0.20193 0.31786 0.21893 0.0
H1142 H 0.1879 0.34926 0.2004 0.0
H1143 H 0.22338 0.35055 0.22067 0.0
C1144 C 0.17808 0.41595 0.12519 0.0
C1145 C 0.1879 0.43394 0.15423 0.0
C1146 C 0.18971 0.39001 0.11984 0.0
C1147 C 0.2115 0.38122 0.14334 0.0
C1148 C 0.22214 0.39949 0.17156 0.0
H1149 H 0.29992 0.22534 0.15176 0.0
H1150 H 0.28371 0.27224 0.16229 0.0
C1151 C 0.21044 0.42551 0.17701 0.0
C1152 C 0.22281 0.35293 0.13806 0.0
H1153 H 0.22965 0.28981 0.18085 0.0
C1154 C 0.23447 0.34621 0.10339 0.0
C1155 C 0.22105 0.33224 0.16631 0.0
C1156 C 0.20767 0.33762 0.2036 0.0
C1157 C 0.24457 0.31962 0.09631 0.0
C1158 C 0.24253 0.29884 0.12443 0.0
C1159 C 0.23119 0.30565 0.15924 0.0
C1160 C 0.25193 0.26992 0.11823 0.0
C1161 C 0.25779 0.31418 0.05892 0.0
C1162 C 0.23912 0.25259 0.09042 0.0
C1163 C 0.2482 0.22557 0.08445 0.0
C1164 C 0.27025 0.21508 0.10633 0.0
C1165 C 0.28265 0.23238 0.13463 0.0
C1166 C 0.27353 0.25937 0.14057 0.0
H1167 H 0.26493 0.334 0.04451 0.0
H1168 H 0.27663 0.3012 0.06174 0.0
H1169 H 0.24144 0.30269 0.04112 0.0
H1170 H 0.22191 0.25989 0.07338 0.0
H1171 H 0.23771 0.21281 0.06288 0.0
H1172 H 0.32735 0.47173 0.33827 0.0
H1173 H 0.3763 0.49135 0.32384 0.0
H1174 H 0.41122 0.4375 0.40604 0.0
H1175 H 0.3626 0.4177 0.42043 0.0
H1176 H 0.43449 0.49173 0.41138 0.0
H1177 H 0.43903 0.45462 0.26552 0.0
H1178 H 0.40882 0.47492 0.27562 0.0
H1179 H 0.41148 0.44151 0.29772 0.0
C1180 C 0.34545 0.46384 0.35302 0.0
C1181 C 0.34087 0.44312 0.38061 0.0
C1182 C 0.37348 0.47508 0.34471 0.0
C1183 C 0.39757 0.4657 0.36353 0.0
C1184 C 0.39304 0.44514 0.39114 0.0
H1185 H 0.58009 0.48809 0.30566 0.0
H1186 H 0.52998 0.47028 0.31787 0.0
C1187 C 0.36512 0.43393 0.39948 0.0
C1188 C 0.4275 0.47751 0.35514 0.0
H1189 H 0.47829 0.48497 0.28623 0.0
C1190 C 0.44404 0.49028 0.38399 0.0
C1191 C 0.44017 0.47531 0.31954 0.0
C1192 C 0.42412 0.46063 0.28786 0.0
C1193 C 0.4727 0.50105 0.37818 0.0
C1194 C 0.48514 0.49943 0.34237 0.0
C1195 C 0.4687 0.48646 0.31358 0.0
C1196 C 0.51541 0.51045 0.33444 0.0
C1197 C 0.48964 0.51345 0.41073 0.0
C1198 C 0.52388 0.539 0.33925 0.0
C1199 C 0.55245 0.54913 0.33221 0.0
C1200 C 0.57299 0.53098 0.31991 0.0
C1201 C 0.56452 0.5025 0.31483 0.0
C1202 C 0.53596 0.49236 0.32182 0.0
H1203 H 0.47979 0.50669 0.4377 0.0
H1204 H 0.51234 0.50742 0.41009 0.0
H1205 H 0.48995 0.53663 0.40931 0.0
H1206 H 0.50837 0.55348 0.34833 0.0
H1207 H 0.55854 0.57117 0.33634 0.0
H1208 H 0.28265 0.80193 0.55451 0.0
H1209 H 0.29889 0.7551 0.56568 0.0
H1210 H 0.23419 0.7413 0.65095 0.0
H1211 H 0.21705 0.78764 0.63902 0.0
H1212 H 0.32068 0.73188 0.62859 0.0
H1213 H 0.21908 0.67199 0.58709 0.0
H1214 H 0.22585 0.70882 0.57718 0.0
H1215 H 0.21452 0.69744 0.62286 0.0
C1216 C 0.27161 0.78888 0.57539 0.0
C1217 C 0.24834 0.79868 0.59565 0.0
C1218 C 0.28108 0.7621 0.58191 0.0
C1219 C 0.26746 0.74436 0.6087 0.0
C1220 C 0.24468 0.75427 0.62956 0.0
H1221 H 0.30226 0.57513 0.68431 0.0
H1222 H 0.28226 0.62097 0.67649 0.0
C1223 C 0.23516 0.78103 0.62304 0.0
C1224 C 0.27749 0.71573 0.61511 0.0
H1225 H 0.25571 0.64589 0.61327 0.0
C1226 C 0.30646 0.71311 0.62515 0.0
C1227 C 0.25895 0.69112 0.61081 0.0
C1228 C 0.22794 0.69235 0.59857 0.0
C1229 C 0.31733 0.68673 0.63114 0.0
C1230 C 0.2989 0.66215 0.62644 0.0
C1231 C 0.26983 0.66472 0.61692 0.0
C1232 C 0.30979 0.63365 0.63007 0.0
C1233 C 0.34844 0.68542 0.64293 0.0
C1234 C 0.33127 0.62514 0.60592 0.0
C1235 C 0.34257 0.59895 0.61013 0.0
C1236 C 0.33267 0.5805 0.63863 0.0
C1237 C 0.31034 0.58866 0.66197 0.0
C1238 C 0.29898 0.61495 0.65767 0.0
H1239 H 0.35735 0.70567 0.6547 0.0
H1240 H 0.35068 0.6687 0.66393 0.0
H1241 H 0.36167 0.68057 0.61836 0.0
H1242 H 0.33946 0.63888 0.58383 0.0
H1243 H 0.35922 0.5932 0.59104 0.0
H1244 H 0.92962 0.514 0.86794 0.0
H1245 H 0.98026 0.53055 0.87778 0.0
H1246 H 1.0072 0.4677 0.80169 0.0
H1247 H 0.95655 0.45027 0.79342 0.0
H1248 H 0.0421 0.47087 0.85974 0.0
H1249 H 0.02965 0.57855 0.80931 0.0
H1250 H 1.00609 0.56971 0.84765 0.0
H1251 H 1.00143 0.55097 0.8044 0.0
C1252 C 0.94644 0.50359 0.85368 0.0
C1253 C 0.93928 0.4807 0.83024 0.0
C1254 C 0.97536 0.51327 0.85889 0.0
C1255 C 0.99769 0.50078 0.83993 0.0
C1256 C 0.99047 0.47779 0.81659 0.0
H1257 H 0.17038 0.58339 0.81842 0.0
H1258 H 0.12182 0.56164 0.80753 0.0
C1259 C 0.96157 0.46787 0.81177 0.0
C1260 C 0.02852 0.51149 0.84463 0.0
H1261 H 0.0738 0.57084 0.84029 0.0
C1262 C 0.04905 0.49271 0.85527 0.0
C1263 C 0.03787 0.53989 0.83818 0.0
C1264 C 0.01766 0.56086 0.82387 0.0
C1265 C 0.07841 0.50157 0.8602 0.0
C1266 C 0.08747 0.53025 0.85548 0.0
C1267 C 0.06698 0.54891 0.84433 0.0
C1268 C 0.11804 0.54147 0.86137 0.0
C1269 C 0.09944 0.4799 0.86949 0.0
C1270 C 0.13247 0.53726 0.89511 0.0
C1271 C 0.16053 0.54931 0.90109 0.0
C1272 C 0.17448 0.56639 0.87381 0.0
C1273 C 0.16015 0.5704 0.84 0.0
C1274 C 0.13234 0.558 0.8338 0.0
H1275 H 0.09123 0.45867 0.86027 0.0
H1276 H 0.12083 0.48498 0.85636 0.0
H1277 H 0.1024 0.47917 0.90006 0.0
H1278 H 0.12176 0.52534 0.91732 0.0
H1279 H 0.17085 0.54624 0.92765 0.0
H1280 H 0.7611 0.54529 0.87651 0.0
H1281 H 0.75124 0.59411 0.88841 0.0
H1282 H 0.80873 0.62084 0.79916 0.0
H1283 H 0.8184 0.57217 0.78686 0.0
H1284 H 0.78597 0.6381 0.90964 0.0
H1285 H 0.73998 0.66288 0.77258 0.0
H1286 H 0.74605 0.62753 0.78638 0.0
H1287 H 0.77543 0.65036 0.7688 0.0
C1288 C 0.7716 0.56152 0.85929 0.0
C1289 C 0.79042 0.55457 0.83049 0.0
C1290 C 0.76588 0.58952 0.8661 0.0
C1291 C 0.77877 0.61138 0.84432 0.0
C1292 C 0.79774 0.6045 0.81573 0.0
H1293 H 0.7856 0.794 0.84975 0.0
H1294 H 0.79314 0.74441 0.83835 0.0
C1295 C 0.80331 0.57652 0.80874 0.0
C1296 C 0.77321 0.64132 0.85234 0.0
H1297 H 0.75215 0.7017 0.81249 0.0
C1298 C 0.77834 0.65189 0.88841 0.0
C1299 C 0.76323 0.65957 0.8248 0.0
C1300 C 0.75557 0.64946 0.78609 0.0
C1301 C 0.77447 0.68009 0.89738 0.0
C1302 C 0.7649 0.69836 0.86971 0.0
C1303 C 0.75961 0.68781 0.83373 0.0
C1304 C 0.76049 0.72853 0.87736 0.0
C1305 C 0.78139 0.6903 0.93623 0.0
C1306 C 0.7396 0.7363 0.90307 0.0
C1307 C 0.73513 0.76467 0.90936 0.0
C1308 C 0.75129 0.78583 0.88987 0.0
C1309 C 0.7725 0.77809 0.86466 0.0
C1310 C 0.77685 0.74976 0.85821 0.0
H1311 H 0.79478 0.67574 0.95157 0.0
H1312 H 0.79302 0.71137 0.93564 0.0
H1313 H 0.76095 0.69195 0.95185 0.0
H1314 H 0.72643 0.7204 0.9179 0.0
H1315 H 0.71877 0.7701 0.92908 0.0
H1316 H 0.49499 0.54588 0.6531 0.0
H1317 H 0.54633 0.55801 0.63995 0.0
H1318 H 0.55856 0.47132 0.61629 0.0
H1319 H 0.50723 0.45913 0.62997 0.0
H1320 H 0.59673 0.53635 0.67458 0.0
H1321 H 0.59124 0.51405 0.52315 0.0
H1322 H 0.55944 0.5189 0.55076 0.0
H1323 H 0.57659 0.48642 0.55291 0.0
C1324 C 0.50878 0.52938 0.64566 0.0
C1325 C 0.49732 0.50146 0.64338 0.0
C1326 C 0.53806 0.53634 0.63791 0.0
C1327 C 0.55638 0.51564 0.6269 0.0
C1328 C 0.54487 0.48773 0.62435 0.0
H1329 H 0.73817 0.52038 0.55864 0.0
H1330 H 0.68737 0.5066 0.57349 0.0
C1331 C 0.51562 0.48075 0.63238 0.0
C1332 C 0.5875 0.52326 0.61842 0.0
H1333 H 0.63759 0.52552 0.54842 0.0
C1334 C 0.60566 0.53404 0.64698 0.0
C1335 C 0.59925 0.52014 0.58246 0.0
C1336 C 0.58066 0.50946 0.55039 0.0
C1337 C 0.63524 0.54138 0.64076 0.0
C1338 C 0.64698 0.53862 0.60463 0.0
C1339 C 0.62877 0.52771 0.5761 0.0
C1340 C 0.67798 0.54701 0.59581 0.0
C1341 C 0.65374 0.55131 0.67329 0.0
C1342 C 0.68975 0.57439 0.6029 0.0
C1343 C 0.71878 0.58214 0.59462 0.0
C1344 C 0.73653 0.56287 0.57848 0.0
C1345 C 0.72482 0.53562 0.57095 0.0
C1346 C 0.69582 0.52779 0.57943 0.0
H1347 H 0.64403 0.54407 0.70014 0.0
H1348 H 0.67581 0.54377 0.67127 0.0
H1349 H 0.65561 0.57454 0.67365 0.0
H1350 H 0.67643 0.5899 0.61457 0.0
H1351 H 0.72735 0.60331 0.60051 0.0
H1352 H 0.79707 0.23944 0.38458 0.0
H1353 H 0.78839 0.28847 0.37226 0.0
H1354 H 0.69642 0.26813 0.37766 0.0
H1355 H 0.70522 0.21868 0.38939 0.0
H1356 H 0.71143 0.30226 0.31806 0.0
H1357 H 0.7636 0.34641 0.44547 0.0
H1358 H 0.78701 0.3258 0.41881 0.0
H1359 H 0.75484 0.30936 0.43956 0.0
C1360 C 0.77501 0.24548 0.38337 0.0
C1361 C 0.7518 0.22531 0.38819 0.0
C1362 C 0.77004 0.27357 0.37652 0.0
C1363 C 0.74174 0.28228 0.37464 0.0
C1364 C 0.71847 0.26206 0.37919 0.0
H1365 H 0.69911 0.45743 0.38077 0.0
H1366 H 0.70577 0.40821 0.39408 0.0
C1367 C 0.72345 0.23385 0.38602 0.0
C1368 C 0.73659 0.31232 0.36711 0.0
H1369 H 0.75286 0.3791 0.39833 0.0
C1370 C 0.72037 0.31905 0.33574 0.0
C1371 C 0.74789 0.33435 0.39033 0.0
C1372 C 0.76406 0.32866 0.42563 0.0
C1373 C 0.71569 0.34704 0.32657 0.0
C1374 C 0.72799 0.36914 0.34898 0.0
C1375 C 0.74369 0.36234 0.38078 0.0
C1376 C 0.72433 0.39938 0.34054 0.0
C1377 C 0.69711 0.35258 0.29329 0.0
C1378 C 0.733 0.41126 0.3062 0.0
C1379 C 0.72923 0.43956 0.29848 0.0
C1380 C 0.71701 0.45685 0.32508 0.0
C1381 C 0.70894 0.445 0.35972 0.0
C1382 C 0.71258 0.41671 0.36733 0.0
H1383 H 0.68275 0.33388 0.28584 0.0
H1384 H 0.68352 0.3704 0.29848 0.0
H1385 H 0.71123 0.35786 0.26904 0.0
H1386 H 0.74289 0.39871 0.28536 0.0
H1387 H 0.73618 0.44794 0.27174 0.0
H1388 H 0.0147 0.55691 0.13643 0.0
H1389 H 0.96322 0.545 0.12294 0.0
H1390 H 0.97478 0.45837 0.14793 0.0
H1391 H 0.02617 0.47021 0.16089 0.0
H1392 H 0.93736 0.50445 0.06989 0.0
H1393 H 0.90622 0.47847 0.21555 0.0
H1394 H 0.93929 0.49871 0.20387 0.0
H1395 H 0.93677 0.46136 0.19804 0.0
C1396 C 1.00612 0.53537 0.13911 0.0
C1397 C 0.02417 0.51459 0.15062 0.0
C1398 C 0.97677 0.52856 0.13137 0.0
C1399 C 0.96492 0.50086 0.13511 0.0
C1400 C 0.9832 0.47998 0.14564 0.0
H1401 H 0.79302 0.41582 0.11455 0.0
H1402 H 0.8445 0.42897 0.12558 0.0
C1403 C 0.01253 0.48675 0.1531 0.0
C1404 C 0.93356 0.49367 0.12779 0.0
H1405 H 0.87069 0.46845 0.1694 0.0
C1406 C 0.92272 0.49673 0.09167 0.0
C1407 C 0.91445 0.48342 0.15613 0.0
C1408 C 0.92459 0.48046 0.19568 0.0
C1409 C 0.89355 0.48924 0.08295 0.0
C1410 C 0.87435 0.4791 0.11137 0.0
C1411 C 0.88524 0.47619 0.14754 0.0
C1412 C 0.84301 0.47116 0.10422 0.0
C1413 C 0.88386 0.49142 0.04309 0.0
C1414 C 0.82472 0.4905 0.08903 0.0
C1415 C 0.79536 0.4829 0.08256 0.0
C1416 C 0.78364 0.45588 0.09141 0.0
C1417 C 0.80167 0.43671 0.10725 0.0
C1418 C 0.83104 0.44425 0.11358 0.0
H1419 H 0.9024 0.49143 0.02351 0.0
H1420 H 0.86802 0.47387 0.03563 0.0
H1421 H 0.87337 0.51137 0.03922 0.0
H1422 H 0.83306 0.51162 0.08251 0.0
H1423 H 0.78175 0.49814 0.07078 0.0
H1424 H 0.72474 0.71069 0.5586 0.0
H1425 H 0.70983 0.75817 0.56932 0.0
H1426 H 0.78308 0.77515 0.64163 0.0
H1427 H 0.79793 0.72778 0.63133 0.0
H1428 H 0.7355 0.79443 0.67132 0.0
H1429 H 0.74484 0.83018 0.52517 0.0
H1430 H 0.7209 0.79938 0.5306 0.0
H1431 H 0.75876 0.79791 0.54085 0.0
C1432 C 0.73772 0.72456 0.57669 0.0
C1433 C 0.76252 0.7153 0.59412 0.0
C1434 C 0.72925 0.7518 0.58266 0.0
C1435 C 0.74561 0.77056 0.60574 0.0
C1436 C 0.77009 0.76119 0.62362 0.0
H1437 H 0.72475 0.95184 0.6131 0.0
H1438 H 0.74445 0.90583 0.60554 0.0
C1439 C 0.77846 0.73396 0.61787 0.0
C1440 C 0.73704 0.79974 0.61191 0.0
H1441 H 0.72164 0.86003 0.56711 0.0
C1442 C 0.73261 0.80878 0.6485 0.0
C1443 C 0.73381 0.81881 0.58229 0.0
C1444 C 0.74011 0.81122 0.54256 0.0
C1445 C 0.72434 0.83594 0.65618 0.0
C1446 C 0.7197 0.85452 0.62645 0.0
C1447 C 0.72489 0.84577 0.58993 0.0
C1448 C 0.70857 0.88271 0.63257 0.0
C1449 C 0.72107 0.84454 0.6962 0.0
C1450 C 0.68189 0.88514 0.65027 0.0
C1451 C 0.67071 0.91134 0.65481 0.0
C1452 C 0.68576 0.93588 0.64142 0.0
C1453 C 0.71269 0.93348 0.62405 0.0
C1454 C 0.72388 0.90715 0.61948 0.0
H1455 H 0.73409 0.83192 0.71496 0.0
H1456 H 0.72779 0.86704 0.70029 0.0
H1457 H 0.69807 0.84098 0.70453 0.0
H1458 H 0.66936 0.86666 0.66006 0.0
H1459 H 0.65009 0.91234 0.66873 0.0
H1460 H 0.84671 0.97118 0.92871 0.0
H1461 H 0.89583 0.99198 0.91837 0.0
H1462 H 0.89509 0.95708 0.8078 0.0
H1463 H 0.8465 0.93536 0.81872 0.0
H1464 H 0.94318 0.94732 0.83959 0.0
H1465 H 0.92649 0.05926 0.86277 0.0
H1466 H 0.91546 0.03827 0.9022 0.0
H1467 H 0.89673 0.03315 0.85859 0.0
C1468 C 0.85688 0.9684 0.90199 0.0
C1469 C 0.84274 0.95172 0.87448 0.0
C1470 C 0.88497 0.98041 0.896 0.0
C1471 C 0.89923 0.97656 0.86203 0.0
C1472 C 0.88471 0.96044 0.83424 0.0
H1473 H 0.06085 0.06826 0.79527 0.0
H1474 H 0.01016 0.05092 0.80353 0.0
C1475 C 0.85689 0.94806 0.84045 0.0
C1476 C 0.92982 0.98773 0.85609 0.0
H1477 H 0.97554 0.04681 0.86156 0.0
C1478 C 0.95014 0.96914 0.84418 0.0
C1479 C 0.93907 0.01629 0.8615 0.0
C1480 C 0.91822 0.03794 0.87158 0.0
C1481 C 0.97926 0.97812 0.83796 0.0
C1482 C 0.98881 1.00636 0.84514 0.0
C1483 C 0.96844 0.02507 0.85653 0.0
C1484 C 0.01968 0.017 0.84044 0.0
C1485 C 0.99925 0.95728 0.82277 0.0
C1486 C 0.04204 1.004 0.85866 0.0
C1487 C 0.07098 0.01362 0.85342 0.0
C1488 C 0.07814 0.03696 0.83074 0.0
C1489 C 0.05583 0.0503 0.81304 0.0
C1490 C 0.0269 0.04043 0.81785 0.0
H1491 H 0.98707 0.93994 0.80777 0.0
H1492 H 0.01546 0.96742 0.80348 0.0
H1493 H 0.01085 0.9479 0.84615 0.0
H1494 H 0.03715 0.98637 0.87698 0.0
H1495 H 0.08782 1.00282 0.86707 0.0
H1496 H 0.86121 0.10395 0.17738 0.0
H1497 H 0.84072 0.14899 0.16805 0.0
H1498 H 0.76662 0.10768 0.11392 0.0
H1499 H 0.78759 0.06234 0.122 0.0
H1500 H 0.78708 0.15382 0.07531 0.0
H1501 H 0.77544 0.18221 0.22303 0.0
H1502 H 0.81183 0.17454 0.21211 0.0
H1503 H 0.78308 0.1474 0.20859 0.0
C1504 C 0.84058 0.10432 0.16335 0.0
C1505 C 0.82618 0.07933 0.1503 0.0
C1506 C 0.82868 0.13018 0.15845 0.0
C1507 C 0.80187 0.13188 0.14072 0.0
C1508 C 0.78726 0.107 0.12787 0.0
H1509 H 0.70981 0.2858 0.14249 0.0
H1510 H 0.72519 0.23847 0.15201 0.0
C1511 C 0.79919 0.08101 0.13278 0.0
C1512 C 0.78978 0.15972 0.13453 0.0
H1513 H 0.77277 0.21952 0.17918 0.0
C1514 C 0.78374 0.16809 0.09807 0.0
C1515 C 0.78489 0.17831 0.16416 0.0
C1516 C 0.78885 0.17005 0.20418 0.0
C1517 C 0.77381 0.19469 0.09038 0.0
C1518 C 0.77045 0.21388 0.11986 0.0
C1519 C 0.77571 0.20515 0.1564 0.0
C1520 C 0.76114 0.24289 0.11361 0.0
C1521 C 0.76653 0.20169 0.05074 0.0
C1522 C 0.77637 0.26159 0.08924 0.0
C1523 C 0.7675 0.28874 0.08359 0.0
C1524 C 0.74346 0.29808 0.10269 0.0
C1525 C 0.7286 0.27951 0.1276 0.0
C1526 C 0.73732 0.25231 0.13296 0.0
H1527 H 0.76154 0.18246 0.03399 0.0
H1528 H 0.74774 0.21484 0.04937 0.0
H1529 H 0.78541 0.21342 0.03778 0.0
H1530 H 0.79535 0.2553 0.07477 0.0
H1531 H 0.77973 0.30256 0.06463 0.0
H1532 H 0.46064 0.94926 0.29877 0.0
H1533 H 0.51115 0.96733 0.30796 0.0
H1534 H 0.48165 0.0409 0.36112 0.0
H1535 H 0.43124 0.02302 0.35151 0.0
H1536 H 0.53927 0.02206 0.28411 0.0
H1537 H 0.53848 1.00688 0.43725 0.0
H1538 H 0.51227 0.98888 0.40696 0.0
H1539 H 0.50903 0.02502 0.41851 0.0
C1540 C 0.46507 0.9693 0.31235 0.0
C1541 C 0.4422 0.9846 0.32497 0.0
C1542 C 0.49384 0.97959 0.31756 0.0
C1543 C 0.50018 1.00527 0.33571 0.0
C1544 C 0.47728 0.02084 0.34759 0.0
H1545 H 0.65324 0.10197 0.41176 0.0
H1546 H 0.60454 0.08217 0.39769 0.0
C1547 C 0.44855 0.01066 0.34211 0.0
C1548 C 0.5307 0.01582 0.34236 0.0
H1549 H 0.57977 0.03128 0.41143 0.0
C1550 C 0.54824 0.02396 0.3119 0.0
C1551 C 0.54232 0.01832 0.37864 0.0
C1552 C 0.52471 0.00914 0.4123 0.0
C1553 C 0.57684 0.03531 0.31681 0.0
C1554 C 0.5885 0.0379 0.35317 0.0
C1555 C 0.57096 0.02937 0.38356 0.0
C1556 C 0.61846 0.05013 0.36062 0.0
C1557 C 0.59387 0.04533 0.28306 0.0
C1558 C 0.64275 0.03874 0.34466 0.0
C1559 C 0.67077 0.05018 0.35256 0.0
C1560 C 0.67513 0.07296 0.37713 0.0
C1561 C 0.65076 0.08421 0.39312 0.0
C1562 C 0.62283 0.07295 0.38498 0.0
H1563 H 0.57951 0.04921 0.25915 0.0
H1564 H 0.60729 0.06491 0.28911 0.0
H1565 H 0.60845 0.02903 0.27459 0.0
H1566 H 0.64011 0.0207 0.32653 0.0
H1567 H 0.68905 0.04079 0.34013 0.0
H1568 H 0.31413 0.05599 0.39078 0.0
H1569 H 0.30738 0.10514 0.40433 0.0
H1570 H 0.27243 0.11559 0.2946 0.0
H1571 H 0.27918 0.0664 0.28073 0.0
H1572 H 0.31128 0.15851 0.31214 0.0
H1573 H 0.23374 0.14155 0.42843 0.0
H1574 H 0.26678 0.12487 0.43558 0.0
H1575 H 0.2431 0.11358 0.39807 0.0
C1576 C 0.30452 0.06855 0.36968 0.0
C1577 C 0.29702 0.05697 0.3347 0.0
C1578 C 0.30068 0.09677 0.3775 0.0
C1579 C 0.28896 0.11416 0.35075 0.0
C1580 C 0.28147 0.1027 0.3158 0.0
H1581 H 0.22014 0.27608 0.38866 0.0
H1582 H 0.2283 0.22687 0.37709 0.0
C1583 C 0.2854 0.07449 0.30788 0.0
C1584 C 0.28516 0.14438 0.35885 0.0
H1585 H 0.25312 0.18825 0.41892 0.0
C1586 C 0.29852 0.16498 0.33547 0.0
C1587 C 0.26825 0.153 0.38903 0.0
C1588 C 0.2519 0.13211 0.41401 0.0
C1589 C 0.29566 0.19377 0.34159 0.0
C1590 C 0.27944 0.2024 0.37241 0.0
C1591 C 0.26588 0.18179 0.39558 0.0
C1592 C 0.27495 0.23255 0.38006 0.0
C1593 C 0.30941 0.21462 0.31433 0.0
C1594 C 0.29839 0.25233 0.38619 0.0
C1595 C 0.29371 0.28063 0.39275 0.0
C1596 C 0.26551 0.28963 0.39363 0.0
C1597 C 0.24212 0.26975 0.3882 0.0
C1598 C 0.24678 0.24159 0.38158 0.0
H1599 H 0.31451 0.20456 0.28751 0.0
H1600 H 0.29504 0.23177 0.30874 0.0
H1601 H 0.32993 0.22399 0.3262 0.0
H1602 H 0.32032 0.24588 0.38598 0.0
H1603 H 0.31208 0.29553 0.39689 0.0
H1604 H 1.00445 0.96269 0.17397 0.0
H1605 H 0.05622 0.97506 0.16371 0.0
H1606 H 0.03509 0.04949 0.10488 0.0
H1607 H 0.9834 0.03701 0.11508 0.0
H1608 H 0.07611 0.02053 0.06778 0.0
H1609 H 0.10733 0.03602 0.2155 0.0
H1610 H 0.0892 1.00245 0.20583 0.0
H1611 H 0.07013 0.03365 0.20036 0.0
C1612 C 0.01098 0.98167 0.15889 0.0
C1613 C 0.99001 0.9987 0.14487 0.0
C1614 C 0.04054 0.98885 0.15321 0.0
C1615 C 0.04973 0.01339 0.13375 0.0
C1616 C 0.02866 0.03045 0.1199 0.0
H1617 H 0.22398 0.09555 0.12371 0.0
H1618 H 0.17246 0.08268 0.13501 0.0
C1619 C 0.99915 0.0233 0.12565 0.0
C1620 C 0.08117 0.02109 0.12723 0.0
H1621 H 0.14561 0.03661 0.1716 0.0
C1622 C 0.09128 0.02405 0.09051 0.0
C1623 C 0.10103 0.02609 0.15681 0.0
C1624 C 0.09142 0.02467 0.19686 0.0
C1625 C 0.1206 0.03142 0.08258 0.0
C1626 C 0.14061 0.03565 0.11215 0.0
C1627 C 0.13043 0.03311 0.14888 0.0
C1628 C 0.17205 0.04323 0.10554 0.0
C1629 C 0.12978 0.03518 0.04255 0.0
C1630 C 0.18924 0.0252 0.08579 0.0
C1631 C 0.21866 0.03254 0.07942 0.0
C1632 C 0.23149 0.05812 0.09254 0.0
C1633 C 0.2145 0.07586 0.11298 0.0
C1634 C 0.18511 0.06848 0.11946 0.0
H1635 H 0.11107 0.03823 0.02404 0.0
H1636 H 0.14575 0.0534 0.0394 0.0
H1637 H 0.1401 0.01618 0.0331 0.0
H1638 H 0.17995 1.00532 0.0755 0.0
H1639 H 0.23144 0.01826 0.06422 0.0
H1640 H 0.23145 0.72403 0.84999 0.0
H1641 H 0.2241 0.7736 0.8384 0.0
H1642 H 0.29117 0.79747 0.91754 0.0
H1643 H 0.29908 0.74781 0.92818 0.0
H1644 H 0.2078 0.81468 0.88283 0.0
H1645 H 0.31784 0.84491 0.83003 0.0
H1646 H 0.30488 0.80885 0.83661 0.0
H1647 H 0.3177 0.8297 0.87561 0.0
C1648 C 0.24482 0.73993 0.86454 0.0
C1649 C 0.26633 0.73215 0.88928 0.0
C1650 C 0.24054 0.76827 0.85807 0.0
C1651 C 0.25754 0.78953 0.87634 0.0
C1652 C 0.27835 0.78166 0.90214 0.0
H1653 H 0.25766 0.97287 0.87436 0.0
H1654 H 0.26653 0.92394 0.88746 0.0
C1655 C 0.28273 0.75328 0.90847 0.0
C1656 C 0.25299 0.81977 0.86882 0.0
H1657 H 0.28719 0.8819 0.84043 0.0
C1658 C 0.22518 0.8293 0.87342 0.0
C1659 C 0.27558 0.83907 0.85651 0.0
C1660 C 0.30561 0.83012 0.84903 0.0
C1661 C 0.21945 0.8574 0.86658 0.0
C1662 C 0.24202 0.87666 0.85428 0.0
C1663 C 0.26987 0.86724 0.8499 0.0
C1664 C 0.23705 0.90656 0.84559 0.0
C1665 C 0.18932 0.86637 0.87326 0.0
C1666 C 0.21793 0.91333 0.81716 0.0
C1667 C 0.21278 0.94133 0.80959 0.0
C1668 C 0.22663 0.96341 0.83022 0.0
C1669 C 0.24624 0.95655 0.85819 0.0
C1670 C 0.25148 0.92852 0.86562 0.0
H1671 H 0.17656 0.85132 0.89138 0.0
H1672 H 0.18996 0.88744 0.88628 0.0
H1673 H 0.17788 0.86744 0.84627 0.0
H1674 H 0.20687 0.89689 0.80083 0.0
H1675 H 0.19736 0.9456 0.78807 0.0
H1676 H 0.27857 0.99999 0.57934 0.0
H1677 H 0.32991 0.01398 0.59029 0.0
H1678 H 0.35056 0.92789 0.57864 0.0
H1679 H 0.29931 0.91408 0.56724 0.0
H1680 H 0.36544 0.99818 0.64587 0.0
H1681 H 0.40971 0.96702 0.5102 0.0
H1682 H 0.37151 0.96949 0.51789 0.0
H1683 H 0.38895 0.93904 0.53305 0.0
C1684 C 0.2942 0.98417 0.57893 0.0
C1685 C 0.28511 0.95598 0.57258 0.0
C1686 C 0.32349 0.99213 0.5852 0.0
C1687 C 0.34432 0.97209 0.58484 0.0
C1688 C 0.33514 0.94389 0.57828 0.0
H1689 H 0.52877 0.97334 0.63321 0.0
H1690 H 0.47754 0.96095 0.61922 0.0
C1691 C 0.30586 0.93595 0.572 0.0
C1692 C 0.37539 0.98053 0.59275 0.0
H1693 H 0.44401 0.97842 0.55814 0.0
C1694 C 0.38257 0.99403 0.62653 0.0
C1695 C 0.39789 0.97516 0.5676 0.0
C1696 C 0.39168 0.96214 0.53001 0.0
C1697 C 0.41149 1.00169 0.63618 0.0
C1698 C 0.43398 0.99605 0.61122 0.0
C1699 C 0.42683 0.98267 0.57737 0.0
C1700 C 0.46505 1.0037 0.61986 0.0
C1701 C 0.41781 0.01513 0.67348 0.0
C1702 C 0.47524 0.03185 0.6245 0.0
C1703 C 0.50447 0.03889 0.63247 0.0
C1704 C 0.52401 0.01792 0.6361 0.0
C1705 C 0.51396 0.98981 0.63105 0.0
C1706 C 0.48478 0.98278 0.62292 0.0
H1707 H 0.39915 0.01204 0.69278 0.0
H1708 H 0.43698 1.0065 0.68658 0.0
H1709 H 0.42257 0.03798 0.66961 0.0
H1710 H 0.46062 0.04843 0.62158 0.0
H1711 H 0.51187 0.06072 0.63572 0.0
H1712 H 0.44496 0.14374 0.05289 0.0
H1713 H 0.4862 0.17882 0.04949 0.0
H1714 H 0.42936 0.24407 0.07437 0.0
H1715 H 0.38813 0.20892 0.07746 0.0
H1716 H 0.46876 0.25592 0.0137 0.0
H1717 H 0.5237 0.21976 0.14057 0.0
H1718 H 0.51457 0.19314 0.10653 0.0
H1719 H 0.48629 0.20976 0.13029 0.0
C1720 C 0.44148 0.16562 0.05757 0.0
C1721 C 0.41375 0.17393 0.06554 0.0
C1722 C 0.4649 0.18554 0.05579 0.0
C1723 C 0.4608 0.21394 0.06215 0.0
C1724 C 0.43291 0.22223 0.06952 0.0
H1725 H 0.56865 0.36873 0.07045 0.0
H1726 H 0.52848 0.33259 0.06754 0.0
C1727 C 0.40949 0.20229 0.07134 0.0
C1728 C 0.48561 0.23503 0.06117 0.0
H1729 H 0.54862 0.25548 0.10544 0.0
C1730 C 0.48624 0.2559 0.03374 0.0
C1731 C 0.50835 0.23478 0.08731 0.0
C1732 C 0.50823 0.21333 0.11807 0.0
C1733 C 0.50923 0.27648 0.03154 0.0
C1734 C 0.53182 0.27643 0.05796 0.0
C1735 C 0.53128 0.25541 0.0852 0.0
C1736 C 0.55592 0.29837 0.05847 0.0
C1737 C 0.50937 0.2978 0.00063 0.0
C1738 C 0.5846 0.291 0.05511 0.0
C1739 C 0.60745 0.31155 0.05715 0.0
C1740 C 0.60186 0.33965 0.0628 0.0
C1741 C 0.57324 0.34708 0.06601 0.0
C1742 C 0.55041 0.32655 0.06407 0.0
H1743 H 0.49535 0.29033 0.97711 0.0
H1744 H 0.50097 0.31739 0.01139 0.0
H1745 H 0.53161 0.3028 0.98999 0.0
H1746 H 0.58928 0.26935 0.051 0.0
H1747 H 0.62948 0.30554 0.05466 0.0
H1748 H 0.40391 0.81742 0.24836 0.0
H1749 H 0.43951 0.7819 0.24473 0.0
H1750 H 0.48713 0.82186 0.33538 0.0
H1751 H 0.45172 0.85724 0.33927 0.0
H1752 H 0.49886 0.78819 0.23207 0.0
H1753 H 0.47541 0.74099 0.37051 0.0
H1754 H 0.4517 0.76432 0.34837 0.0
H1755 H 0.48367 0.77815 0.3722 0.0
C1756 C 0.42201 0.81861 0.26745 0.0
C1757 C 0.42486 0.83991 0.29438 0.0
C1758 C 0.44226 0.79831 0.26541 0.0
C1759 C 0.46562 0.79897 0.29025 0.0
C1760 C 0.46883 0.82054 0.31661 0.0
H1761 H 0.61458 0.70377 0.32685 0.0
H1762 H 0.57889 0.73912 0.32532 0.0
C1763 C 0.44858 0.84073 0.31879 0.0
C1764 C 0.48698 0.7774 0.2884 0.0
H1765 H 0.518 0.72773 0.34013 0.0
C1766 C 0.50292 0.7748 0.25556 0.0
C1767 C 0.49215 0.75996 0.31911 0.0
C1768 C 0.47464 0.76075 0.35442 0.0
C1769 C 0.52449 0.75569 0.25297 0.0
C1770 C 0.52998 0.73866 0.28392 0.0
C1771 C 0.51384 0.74103 0.31658 0.0
C1772 C 0.5523 0.71805 0.28308 0.0
C1773 C 0.54172 0.75428 0.21753 0.0
C1774 C 0.54906 0.69454 0.25985 0.0
C1775 C 0.56925 0.67419 0.26088 0.0
C1776 C 0.59301 0.67697 0.28526 0.0
C1777 C 0.59636 0.70081 0.30811 0.0
C1778 C 0.5761 0.7211 0.30713 0.0
H1779 H 0.5391 0.77273 0.1994 0.0
H1780 H 0.56505 0.75296 0.22372 0.0
H1781 H 0.5342 0.73518 0.20187 0.0
H1782 H 0.53052 0.69158 0.24161 0.0
H1783 H 0.56573 0.65586 0.2434 0.0
H1784 H 0.07069 0.88046 0.5569 0.0
H1785 H 0.02484 0.85141 0.55667 0.0
H1786 H 0.07194 0.77741 0.54262 0.0
H1787 H 0.11771 0.80642 0.54374 0.0
H1788 H 1.00024 0.81449 0.50389 0.0
H1789 H 0.02314 0.75915 0.63486 0.0
H1790 H 0.04402 0.79039 0.62003 0.0
H1791 H 0.05106 0.75686 0.60068 0.0
C1792 C 0.07104 0.85798 0.55368 0.0
C1793 C 0.09741 0.84544 0.55053 0.0
C1794 C 0.04499 0.84147 0.55351 0.0
C1795 C 0.04508 0.81225 0.5503 0.0
C1796 C 0.07147 0.79987 0.54594 0.0
H1797 H 0.92657 0.66984 0.52833 0.0
H1798 H 0.96675 0.70592 0.52716 0.0
C1799 C 0.0975 0.81635 0.5463 0.0
C1800 C 0.01763 0.7946 0.55187 0.0
H1801 H 0.98363 0.73964 0.59849 0.0
C1802 C 0.99641 0.79834 0.5248 0.0
C1803 C 0.01262 0.77377 0.57947 0.0
C1804 C 0.03378 0.76995 0.61064 0.0
C1805 C 0.97081 0.78088 0.52369 0.0
C1806 C 0.96647 0.75937 0.55034 0.0
C1807 C 0.98723 0.75617 0.57802 0.0
C1808 C 0.94147 0.73866 0.54862 0.0
C1809 C 0.94897 0.78476 0.49341 0.0
C1810 C 0.91404 0.74535 0.56095 0.0
C1811 C 0.89111 0.72474 0.56171 0.0
C1812 C 0.89551 0.69744 0.54996 0.0
C1813 C 0.92282 0.69095 0.53712 0.0
C1814 C 0.94566 0.71142 0.53652 0.0
H1815 H 0.95636 0.80147 0.47346 0.0
H1816 H 0.94461 0.76483 0.47798 0.0
H1817 H 0.92827 0.79033 0.50601 0.0
H1818 H 0.91061 0.76627 0.57074 0.0
H1819 H 0.87018 0.7299 0.57205 0.0
H1820 H 0.07223 0.16672 0.84093 0.0
H1821 H 0.03582 0.20113 0.83637 0.0
H1822 H 0.07107 0.22892 0.73067 0.0
H1823 H 0.10757 0.19436 0.73497 0.0
H1824 H 0.04363 0.25831 0.83156 0.0
H1825 H 0.98532 0.21506 0.70717 0.0
H1826 H 0.01085 0.19562 0.73268 0.0
H1827 H 0.02346 0.22252 0.70055 0.0
C1828 C 0.07235 0.18025 0.81679 0.0
C1829 C 0.0928 0.17784 0.78832 0.0
C1830 C 0.05143 0.1998 0.81414 0.0
C1831 C 0.05046 0.21731 0.78295 0.0
C1832 C 0.07099 0.21517 0.75458 0.0
H1833 H 0.95373 0.36513 0.75285 0.0
H1834 H 0.98973 0.33006 0.74963 0.0
C1835 C 0.09188 0.19548 0.75713 0.0
C1836 C 0.02843 0.23832 0.78092 0.0
H1837 H 0.9711 0.25856 0.73016 0.0
C1838 C 0.02778 0.25833 0.80939 0.0
C1839 C 1.00769 0.23825 0.75202 0.0
C1840 C 1.00659 0.21658 0.72151 0.0
C1841 C 1.00704 0.27833 0.80964 0.0
C1842 C 0.98649 0.27831 0.78073 0.0
C1843 C 0.98707 0.25845 0.75217 0.0
C1844 C 0.96394 0.29862 0.78036 0.0
C1845 C 1.00695 0.29935 0.84085 0.0
C1846 C 0.9375 0.29226 0.79836 0.0
C1847 C 0.91683 0.31216 0.80016 0.0
C1848 C 0.9223 0.33876 0.78394 0.0
C1849 C 0.94867 0.34475 0.76521 0.0
C1850 C 0.96931 0.32483 0.76347 0.0
H1851 H 0.02456 0.29672 0.86122 0.0
H1852 H 0.00939 0.32091 0.82933 0.0
H1853 H 0.98589 0.29715 0.85563 0.0
H1854 H 0.93308 0.27206 0.81153 0.0
H1855 H 0.89663 0.30676 0.81437 0.0
H1856 H 0.40462 0.67905 0.01721 0.0
H1857 H 0.4494 0.7046 0.03782 0.0
H1858 H 0.4499 0.75486 0.93821 0.0
H1859 H 0.40492 0.73 0.91798 0.0
H1860 H 0.50106 0.70628 0.00055 0.0
H1861 H 0.46655 0.81346 0.01893 0.0
H1862 H 0.44116 0.78309 0.0174 0.0
H1863 H 0.45451 0.79934 0.97501 0.0
C1864 C 0.41406 0.69592 0.00011 0.0
C1865 C 0.40139 0.70263 0.96601 0.0
C1866 C 0.43956 0.71041 0.01188 0.0
C1867 C 0.45252 0.73194 0.98989 0.0
C1868 C 0.43978 0.73877 0.95601 0.0
H1869 H 0.61323 0.78711 0.91843 0.0
H1870 H 0.56843 0.76181 0.93844 0.0
C1871 C 0.41437 0.7243 0.94421 0.0
C1872 C 0.48087 0.74556 -4e-05 0.0
H1873 H 0.51708 0.80985 0.00147 0.0
C1874 C 0.50457 0.72891 0.00183 0.0
C1875 C 0.48529 0.77498 0.00258 0.0
C1876 C 0.46043 0.7937 0.0038 0.0
C1877 C 0.53286 0.74114 0.00231 0.0
C1878 C 0.53729 0.77059 0.00021 0.0
C1879 C 0.51358 0.78721 0.00235 0.0
C1880 C 0.56565 0.78433 0.99038 0.0
C1881 C 0.55772 0.7224 0.00325 0.0
C1882 C 0.57846 0.80578 0.0126 0.0
C1883 C 0.60386 0.82054 0.00095 0.0
C1884 C 0.61655 0.81419 0.96674 0.0
C1885 C 0.60375 0.79255 0.94474 0.0
C1886 C 0.57845 0.77781 0.95643 0.0
H1887 H 0.55159 0.70253 0.01813 0.0
H1888 H 0.56363 0.71699 0.97438 0.0
H1889 H 0.577 0.7329 0.01696 0.0
H1890 H 0.56857 0.81135 0.03861 0.0
H1891 H 0.61316 0.83736 0.01821 0.0
H1892 H 0.5359 0.15308 0.64441 0.0
H1893 H 0.51286 0.19678 0.65615 0.0
H1894 H 0.5665 0.21197 0.75292 0.0
H1895 H 0.58986 0.16832 0.74122 0.0
H1896 H 0.48505 0.21352 0.73096 0.0
H1897 H 0.57814 0.2827 0.67888 0.0
H1898 H 0.57259 0.2466 0.66439 0.0
H1899 H 0.58484 0.25473 0.71061 0.0
C1900 C 0.54283 0.1658 0.66809 0.0
C1901 C 0.56468 0.15747 0.69185 0.0
C1902 C 0.52956 0.19056 0.67489 0.0
C1903 C 0.53812 0.2074 0.7053 0.0
C1904 C 0.55973 0.1991 0.72931 0.0
H1905 H 0.48725 0.37825 0.73514 0.0
H1906 H 0.50985 0.33431 0.74633 0.0
C1907 C 0.57291 0.17422 0.72267 0.0
C1908 C 0.52482 0.23407 0.71103 0.0
H1909 H 0.53583 0.30409 0.69482 0.0
C1910 C 0.49616 0.23342 0.72352 0.0
C1911 C 0.53965 0.25983 0.70161 0.0
C1912 C 0.57049 0.26128 0.68799 0.0
C1913 C 0.48154 0.25803 0.72587 0.0
C1914 C 0.49583 0.28365 0.71441 0.0
C1915 C 0.52493 0.28438 0.70346 0.0
C1916 C 0.48049 0.30954 0.7107 0.0
C1917 C 0.45092 0.25629 0.74032 0.0
C1918 C 0.45653 0.3101 0.68697 0.0
C1919 C 0.44344 0.33504 0.68081 0.0
C1920 C 0.45434 0.35997 0.69787 0.0
C1921 C 0.47817 0.35931 0.72194 0.0
C1922 C 0.49117 0.33429 0.72824 0.0
H1923 H 0.44691 0.23819 0.75942 0.0
H1924 H 0.44603 0.27572 0.75523 0.0
H1925 H 0.43572 0.25327 0.71661 0.0
H1926 H 0.44838 0.29137 0.67245 0.0
H1927 H 0.42488 0.33483 0.66251 0.0
H1928 H 0.11139 0.27652 0.43396 0.0
H1929 H 0.06667 0.25358 0.45844 0.0
H1930 H 0.07394 0.30583 0.55625 0.0
H1931 H 0.11821 0.32964 0.53094 0.0
H1932 H 0.04911 0.22526 0.5208 0.0
H1933 H 0.9987 0.32764 0.51265 0.0
H1934 H 0.03414 0.3231 0.49407 0.0
H1935 H 0.02896 0.32564 0.54343 0.0
C1936 C 0.10369 0.28268 0.46097 0.0
C1937 C 0.11775 0.305 0.48039 0.0
C1938 C 0.07823 0.2696 0.475 0.0
C1939 C 0.06672 0.27847 0.50878 0.0
C1940 C 0.0821 0.29921 0.5297 0.0
H1941 H 0.89819 0.18375 0.52916 0.0
H1942 H 0.9424 0.20725 0.55503 0.0
C1943 C 0.10733 0.31266 0.51535 0.0
C1944 C 0.03721 0.26788 0.51929 0.0
H1945 H 0.96789 0.28751 0.51922 0.0
C1946 C 0.03129 0.23881 0.52136 0.0
C1947 C 0.01416 0.28581 0.52017 0.0
C1948 C 0.01911 0.31727 0.51727 0.0
C1949 C 1.00283 0.22697 0.52037 0.0
C1950 C 0.97981 0.24489 0.51857 0.0
C1951 C 0.9857 0.27397 0.52047 0.0
C1952 C 0.95048 0.23426 0.50737 0.0
C1953 C 0.99791 0.1955 0.51775 0.0
C1954 C 0.93952 0.243 0.47319 0.0
C1955 C 0.91411 0.23008 0.45882 0.0
C1956 C 0.89954 0.20805 0.47828 0.0
C1957 C 0.90947 0.20048 0.51353 0.0
C1958 C 0.93466 0.21376 0.52821 0.0
H1959 H 0.01839 0.18509 0.51388 0.0
H1960 H 0.98759 0.18729 0.54372 0.0
H1961 H 0.98329 0.18954 0.49419 0.0
H1962 H 0.95144 0.25883 0.45668 0.0
H1963 H 0.90681 0.23617 0.43157 0.0
H1964 H 0.92836 0.84659 0.24287 0.0
H1965 H 0.95301 0.8035 0.25237 0.0
H1966 H 1.0 0.81848 0.15002 0.0
H1967 H 0.97619 0.86196 0.14093 0.0
H1968 H 0.95209 0.75708 0.20658 0.0
H1969 H 0.06391 0.8037 0.22427 0.0
H1970 H 0.03264 0.8241 0.22741 0.0
H1971 H 0.04699 0.8154 0.18275 0.0
C1972 C 0.94427 0.84089 0.22269 0.0
C1973 C 0.95049 0.85769 0.19125 0.0
C1974 C 0.95818 0.81624 0.22806 0.0
C1975 C 0.97865 0.80813 0.20222 0.0
C1976 C 0.98471 0.82472 0.17067 0.0
H1977 H 0.03795 0.6491 0.14625 0.0
H1978 H 0.01334 0.69236 0.15272 0.0
C1979 C 0.97083 0.84935 0.16528 0.0
C1980 C 0.99278 0.78166 0.2072 0.0
H1981 H 0.05885 0.75455 0.21066 0.0
C1982 C 0.97541 0.75649 0.20795 0.0
C1983 C 0.02317 0.78106 0.20965 0.0
C1984 C 0.04276 0.80753 0.21138 0.0
C1985 C 0.98774 0.73058 0.20925 0.0
C1986 C 0.01818 0.72995 0.20915 0.0
C1987 C 0.03551 0.75514 0.21026 0.0
C1988 C 0.0325 0.70344 0.20602 0.0
C1989 C 0.96808 0.70414 0.21047 0.0
C1990 C 0.05195 0.69576 0.23343 0.0
C1991 C 0.06634 0.67123 0.22957 0.0
C1992 C 0.06165 0.65413 0.19807 0.0
C1993 C 0.04218 0.66197 0.17066 0.0
C1994 C 0.02783 0.68646 0.17455 0.0
H1995 H 0.94644 0.70816 0.22173 0.0
H1996 H 0.96503 0.69584 0.18184 0.0
H1997 H 0.9775 0.68781 0.22772 0.0
H1998 H 0.05604 0.7088 0.25773 0.0
H1999 H 0.08151 0.6659 0.2509 0.0
loop_
_geom_bond_atom_site_label_1
_geom_bond_atom_site_label_2
_geom_bond_distance
_geom_bond_site_symmetry_2
_ccdc_geom_bond_type
C0 C1 1.443 . S
C0 N4 1.376 . S
C0 C38 1.389 . S
C1 C0 1.443 . S
C1 C2 1.340 . S
C1 H41 0.951 . S
C2 C1 1.340 . S
C2 C3 1.439 . S
C2 H42 0.950 . S
C3 C2 1.439 . S
C3 N4 1.374 . S
C3 C37 1.395 . S
N4 C0 1.376 . S
N4 C3 1.374 . S
N4 Co5 2.008 1_556 S
Co5 N4 2.008 1_554 S
Co5 N6 1.995 1_554 S
Co5 N11 2.008 . S
Co5 N16 1.995 . S
Co5 N21 2.282 . S
Co5 N27 2.282 1_554 S
N6 Co5 1.995 1_556 S
N6 C7 1.376 . S
N6 C10 1.383 . S
C7 N6 1.376 . S
C7 C8 1.446 . S
C7 C37 1.391 . S
C8 C7 1.446 . S
C8 C9 1.339 . S
C8 H43 0.949 . S
C9 C8 1.339 . S
C9 C10 1.439 . S
C9 H44 0.950 . S
C10 N6 1.383 . S
C10 C9 1.439 . S
C10 C39 1.392 1_556 S
N11 Co5 2.008 . S
N11 C12 1.376 . S
N11 C15 1.374 . S
C12 N11 1.376 . S
C12 C13 1.443 . S
C12 C39 1.389 . S
C13 C12 1.443 . S
C13 C14 1.340 . S
C13 H45 0.951 . S
C14 C13 1.340 . S
C14 C15 1.439 . S
C14 H46 0.950 . S
C15 N11 1.374 . S
C15 C14 1.439 . S
C15 C40 1.395 . S
N16 Co5 1.995 . S
N16 C17 1.376 . S
N16 C20 1.383 . S
C17 N16 1.376 . S
C17 C18 1.446 . S
C17 C40 1.391 . S
C18 C17 1.446 . S
C18 C19 1.339 . S
C18 H47 0.949 . S
C19 C18 1.339 . S
C19 C20 1.439 . S
C19 H48 0.950 . S
C20 N16 1.383 . S
C20 C19 1.439 . S
C20 C38 1.392 1_554 S
N21 Co5 2.282 . S
N21 C24 1.332 . S
N21 C26 1.332 1_554 S
C22 C23 1.386 . S
C22 C25 1.388 1_554 S
C23 C22 1.386 . S
C23 C24 1.382 . S
C23 H49 0.950 . S
C24 N21 1.332 . S
C24 C23 1.382 . S
C24 H35 0.952 . S
C25 C22 1.388 1_556 S
C25 C26 1.382 . S
C25 H50 0.950 . S
C26 N21 1.332 1_556 S
C26 C25 1.382 . S
C26 H36 0.948 . S
N27 Co5 2.282 1_556 S
N27 C31 1.332 . S
N27 C32 1.332 1_556 S
C28 C29 1.388 1_554 S
C28 C32 1.382 . S
C28 H51 0.950 . S
C29 C28 1.388 1_556 S
C29 C30 1.386 . S
C30 C29 1.386 . S
C30 C31 1.382 . S
C30 H52 0.950 . S
C31 N27 1.332 . S
C31 C30 1.382 . S
C31 H33 0.952 . S
C32 N27 1.332 1_554 S
C32 C28 1.382 . S
C32 H34 0.948 . S
H33 C31 0.952 . S
H34 C32 0.948 . S
H35 C24 0.952 . S
H36 C26 0.948 . S
C37 C3 1.395 . S
C37 C7 1.391 . S
C38 C0 1.389 . S
C38 C20 1.392 1_556 S
C39 C10 1.392 1_554 S
C39 C12 1.389 . S
C40 C15 1.395 . S
C40 C17 1.391 . S
H41 C1 0.951 . S
H42 C2 0.950 . S
H43 C8 0.949 . S
H44 C9 0.950 . S
H45 C13 0.951 . S
H46 C14 0.950 . S
H47 C18 0.949 . S
H48 C19 0.950 . S
H49 C23 0.950 . S
H50 C25 0.950 . S
H51 C28 0.950 . S
H52 C30 0.950 . S
C53 C54 1.443 . S
C53 N57 1.376 . S
C53 C91 1.389 . S
C54 C53 1.443 . S
C54 C55 1.340 . S
C54 H94 0.951 . S
C55 C54 1.340 . S
C55 C56 1.439 . S
C55 H95 0.950 . S
C56 C55 1.439 . S
C56 N57 1.374 . S
C56 C90 1.395 . S
N57 C53 1.376 . S
N57 C56 1.374 . S
N57 Co58 2.008 . S
Co58 N57 2.008 . S
Co58 N59 1.995 . S
Co58 N64 2.008 . S
Co58 N69 1.995 . S
Co58 N74 2.282 . S
Co58 N80 2.282 . S
N59 Co58 1.995 . S
N59 C60 1.376 . S
N59 C63 1.383 . S
C60 N59 1.376 . S
C60 C61 1.446 . S
C60 C90 1.391 . S
C61 C60 1.446 . S
C61 C62 1.339 . S
C61 H96 0.949 . S
C62 C61 1.339 . S
C62 C63 1.439 . S
C62 H97 0.950 . S
C63 N59 1.383 . S
C63 C62 1.439 . S
C63 C92 1.392 . S
N64 Co58 2.008 . S
N64 C65 1.376 . S
N64 C68 1.374 . S
C65 N64 1.376 . S
C65 C66 1.443 . S
C65 C92 1.389 . S
C66 C65 1.443 . S
C66 C67 1.340 . S
C66 H98 0.951 . S
C67 C66 1.340 . S
C67 C68 1.439 . S
C67 H99 0.950 . S
C68 N64 1.374 . S
C68 C67 1.439 . S
C68 C93 1.395 . S
N69 Co58 1.995 . S
N69 C70 1.376 . S
N69 C73 1.383 . S
C70 N69 1.376 . S
C70 C71 1.446 . S
C70 C93 1.391 . S
C71 C70 1.446 . S
C71 C72 1.339 . S
C71 H100 0.949 . S
C72 C71 1.339 . S
C72 C73 1.439 . S
C72 H101 0.950 . S
C73 N69 1.383 . S
C73 C72 1.439 . S
C73 C91 1.392 . S
N74 Co58 2.282 . S
N74 C77 1.332 . S
N74 C79 1.332 . S
C75 C76 1.386 . S
C75 C78 1.388 . S
C76 C75 1.386 . S
C76 C77 1.382 . S
C76 H102 0.950 . S
C77 N74 1.332 . S
C77 C76 1.382 . S
C77 H88 0.952 . S
C78 C75 1.388 . S
C78 C79 1.382 . S
C78 H103 0.950 . S
C79 N74 1.332 . S
C79 C78 1.382 . S
C79 H89 0.948 . S
N80 Co58 2.282 . S
N80 C84 1.332 . S
N80 C85 1.332 . S
C81 C82 1.388 . S
C81 C85 1.382 . S
C81 H104 0.950 . S
C82 C81 1.388 . S
C82 C83 1.386 . S
C83 C82 1.386 . S
C83 C84 1.382 . S
C83 H105 0.950 . S
C84 N80 1.332 . S
C84 C83 1.382 . S
C84 H86 0.952 . S
C85 N80 1.332 . S
C85 C81 1.382 . S
C85 H87 0.948 . S
H86 C84 0.952 . S
H87 C85 0.948 . S
H88 C77 0.952 . S
H89 C79 0.948 . S
C90 C56 1.395 . S
C90 C60 1.391 . S
C91 C53 1.389 . S
C91 C73 1.392 . S
C92 C63 1.392 . S
C92 C65 1.389 . S
C93 C68 1.395 . S
C93 C70 1.391 . S
H94 C54 0.951 . S
H95 C55 0.950 . S
H96 C61 0.949 . S
H97 C62 0.950 . S
H98 C66 0.951 . S
H99 C67 0.950 . S
H100 C71 0.949 . S
H101 C72 0.950 . S
H102 C76 0.950 . S
H103 C78 0.950 . S
H104 C81 0.950 . S
H105 C83 0.950 . S
C106 C107 1.443 . S
C106 N110 1.376 . S
C106 C144 1.389 . S
C107 C106 1.443 . S
C107 C108 1.340 . S
C107 H147 0.951 . S
C108 C107 1.340 . S
C108 C109 1.439 . S
C108 H148 0.950 . S
C109 C108 1.439 . S
C109 N110 1.374 . S
C109 C143 1.395 . S
N110 C106 1.376 . S
N110 C109 1.374 . S
N110 Co111 2.008 . S
Co111 N110 2.008 . S
Co111 N112 1.995 . S
Co111 N117 2.008 . S
Co111 N122 1.995 . S
Co111 N127 2.282 . S
Co111 N133 2.282 . S
N112 Co111 1.995 . S
N112 C113 1.376 . S
N112 C116 1.383 . S
C113 N112 1.376 . S
C113 C114 1.446 . S
C113 C143 1.391 . S
C114 C113 1.446 . S
C114 C115 1.339 . S
C114 H149 0.949 . S
C115 C114 1.339 . S
C115 C116 1.439 . S
C115 H150 0.950 . S
C116 N112 1.383 . S
C116 C115 1.439 . S
C116 C145 1.392 . S
N117 Co111 2.008 . S
N117 C118 1.376 . S
N117 C121 1.374 . S
C118 N117 1.376 . S
C118 C119 1.443 . S
C118 C145 1.389 . S
C119 C118 1.443 . S
C119 C120 1.340 . S
C119 H151 0.951 . S
C120 C119 1.340 . S
C120 C121 1.439 . S
C120 H152 0.950 . S
C121 N117 1.374 . S
C121 C120 1.439 . S
C121 C146 1.395 . S
N122 Co111 1.995 . S
N122 C123 1.376 . S
N122 C126 1.383 . S
C123 N122 1.376 . S
C123 C124 1.446 . S
C123 C146 1.391 . S
C124 C123 1.446 . S
C124 C125 1.339 . S
C124 H153 0.949 . S
C125 C124 1.339 . S
C125 C126 1.439 . S
C125 H154 0.950 . S
C126 N122 1.383 . S
C126 C125 1.439 . S
C126 C144 1.392 . S
N127 Co111 2.282 . S
N127 C130 1.332 . S
N127 C132 1.332 . S
C128 C129 1.386 . S
C128 C131 1.388 . S
C129 C128 1.386 . S
C129 C130 1.382 . S
C129 H155 0.950 . S
C130 N127 1.332 . S
C130 C129 1.382 . S
C130 H141 0.952 . S
C131 C128 1.388 . S
C131 C132 1.382 . S
C131 H156 0.950 . S
C132 N127 1.332 . S
C132 C131 1.382 . S
C132 H142 0.948 . S
N133 Co111 2.282 . S
N133 C137 1.332 . S
N133 C138 1.332 . S
C134 C135 1.388 . S
C134 C138 1.382 . S
C134 H157 0.950 . S
C135 C134 1.388 . S
C135 C136 1.386 . S
C136 C135 1.386 . S
C136 C137 1.382 . S
C136 H158 0.950 . S
C137 N133 1.332 . S
C137 C136 1.382 . S
C137 H139 0.952 . S
C138 N133 1.332 . S
C138 C134 1.382 . S
C138 H140 0.948 . S
H139 C137 0.952 . S
H140 C138 0.948 . S
H141 C130 0.952 . S
H142 C132 0.948 . S
C143 C109 1.395 . S
C143 C113 1.391 . S
C144 C106 1.389 . S
C144 C126 1.392 . S
C145 C116 1.392 . S
C145 C118 1.389 . S
C146 C121 1.395 . S
C146 C123 1.391 . S
H147 C107 0.951 . S
H148 C108 0.950 . S
H149 C114 0.949 . S
H150 C115 0.950 . S
H151 C119 0.951 . S
H152 C120 0.950 . S
H153 C124 0.949 . S
H154 C125 0.950 . S
H155 C129 0.950 . S
H156 C131 0.950 . S
H157 C134 0.950 . S
H158 C136 0.950 . S
C159 C160 1.443 . S
C159 N163 1.376 . S
C159 C197 1.389 . S
C160 C159 1.443 . S
C160 C161 1.340 . S
C160 H200 0.951 . S
C161 C160 1.340 . S
C161 C162 1.439 . S
C161 H201 0.950 . S
C162 C161 1.439 . S
C162 N163 1.374 . S
C162 C196 1.395 . S
N163 C159 1.376 . S
N163 C162 1.374 . S
N163 Co164 2.008 . S
Co164 N163 2.008 . S
Co164 N165 1.995 . S
Co164 N170 2.008 . S
Co164 N175 1.995 . S
Co164 N180 2.282 . S
Co164 N186 2.282 . S
N165 Co164 1.995 . S
N165 C166 1.376 . S
N165 C169 1.383 . S
C166 N165 1.376 . S
C166 C167 1.446 . S
C166 C196 1.391 . S
C167 C166 1.446 . S
C167 C168 1.339 . S
C167 H202 0.949 . S
C168 C167 1.339 . S
C168 C169 1.439 . S
C168 H203 0.950 . S
C169 N165 1.383 . S
C169 C168 1.439 . S
C169 C198 1.392 . S
N170 Co164 2.008 . S
N170 C171 1.376 . S
N170 C174 1.374 . S
C171 N170 1.376 . S
C171 C172 1.443 . S
C171 C198 1.389 . S
C172 C171 1.443 . S
C172 C173 1.340 . S
C172 H204 0.951 . S
C173 C172 1.340 . S
C173 C174 1.439 . S
C173 H205 0.950 . S
C174 N170 1.374 . S
C174 C173 1.439 . S
C174 C199 1.395 . S
N175 Co164 1.995 . S
N175 C176 1.376 . S
N175 C179 1.383 . S
C176 N175 1.376 . S
C176 C177 1.446 . S
C176 C199 1.391 . S
C177 C176 1.446 . S
C177 C178 1.339 . S
C177 H206 0.949 . S
C178 C177 1.339 . S
C178 C179 1.439 . S
C178 H207 0.950 . S
C179 N175 1.383 . S
C179 C178 1.439 . S
C179 C197 1.392 . S
N180 Co164 2.282 . S
N180 C183 1.332 . S
N180 C185 1.332 . S
C181 C182 1.386 . S
C181 C184 1.388 . S
C182 C181 1.386 . S
C182 C183 1.382 . S
C182 H208 0.950 . S
C183 N180 1.332 . S
C183 C182 1.382 . S
C183 H194 0.952 . S
C184 C181 1.388 . S
C184 C185 1.382 . S
C184 H209 0.950 . S
C185 N180 1.332 . S
C185 C184 1.382 . S
C185 H195 0.948 . S
N186 Co164 2.282 . S
N186 C190 1.332 . S
N186 C191 1.332 . S
C187 C188 1.388 . S
C187 C191 1.382 . S
C187 H210 0.950 . S
C188 C187 1.388 . S
C188 C189 1.386 . S
C189 C188 1.386 . S
C189 C190 1.382 . S
C189 H211 0.950 . S
C190 N186 1.332 . S
C190 C189 1.382 . S
C190 H192 0.952 . S
C191 N186 1.332 . S
C191 C187 1.382 . S
C191 H193 0.948 . S
H192 C190 0.952 . S
H193 C191 0.948 . S
H194 C183 0.952 . S
H195 C185 0.948 . S
C196 C162 1.395 . S
C196 C166 1.391 . S
C197 C159 1.389 . S
C197 C179 1.392 . S
C198 C169 1.392 . S
C198 C171 1.389 . S
C199 C174 1.395 . S
C199 C176 1.391 . S
H200 C160 0.951 . S
H201 C161 0.950 . S
H202 C167 0.949 . S
H203 C168 0.950 . S
H204 C172 0.951 . S
H205 C173 0.950 . S
H206 C177 0.949 . S
H207 C178 0.950 . S
H208 C182 0.950 . S
H209 C184 0.950 . S
H210 C187 0.950 . S
H211 C189 0.950 . S
C212 C213 1.443 . S
C212 N216 1.376 . S
C212 C250 1.389 . S
C213 C212 1.443 . S
C213 C214 1.340 . S
C213 H253 0.951 . S
C214 C213 1.340 . S
C214 C215 1.439 . S
C214 H254 0.950 . S
C215 C214 1.439 . S
C215 N216 1.374 . S
C215 C249 1.395 . S
N216 C212 1.376 . S
N216 C215 1.374 . S
N216 Co217 2.008 1_554 S
Co217 N216 2.008 1_556 S
Co217 N218 1.995 1_556 S
Co217 N223 2.008 . S
Co217 N228 1.995 . S
Co217 N233 2.282 . S
Co217 N239 2.282 1_556 S
N218 Co217 1.995 1_554 S
N218 C219 1.376 . S
N218 C222 1.383 . S
C219 N218 1.376 . S
C219 C220 1.446 . S
C219 C249 1.391 . S
C220 C219 1.446 . S
C220 C221 1.339 . S
C220 H255 0.949 . S
C221 C220 1.339 . S
C221 C222 1.439 . S
C221 H256 0.950 . S
C222 N218 1.383 . S
C222 C221 1.439 . S
C222 C251 1.392 1_554 S
N223 Co217 2.008 . S
N223 C224 1.376 . S
N223 C227 1.374 . S
C224 N223 1.376 . S
C224 C225 1.443 . S
C224 C251 1.389 . S
C225 C224 1.443 . S
C225 C226 1.340 . S
C225 H257 0.951 . S
C226 C225 1.340 . S
C226 C227 1.439 . S
C226 H258 0.950 . S
C227 N223 1.374 . S
C227 C226 1.439 . S
C227 C252 1.395 . S
N228 Co217 1.995 . S
N228 C229 1.376 . S
N228 C232 1.383 . S
C229 N228 1.376 . S
C229 C230 1.446 . S
C229 C252 1.391 . S
C230 C229 1.446 . S
C230 C231 1.339 . S
C230 H259 0.949 . S
C231 C230 1.339 . S
C231 C232 1.439 . S
C231 H260 0.950 . S
C232 N228 1.383 . S
C232 C231 1.439 . S
C232 C250 1.392 1_556 S
N233 Co217 2.282 . S
N233 C236 1.332 . S
N233 C238 1.332 1_556 S
C234 C235 1.386 . S
C234 C237 1.388 1_556 S
C235 C234 1.386 . S
C235 C236 1.382 . S
C235 H261 0.950 . S
C236 N233 1.332 . S
C236 C235 1.382 . S
C236 H247 0.952 . S
C237 C234 1.388 1_554 S
C237 C238 1.382 . S
C237 H262 0.950 . S
C238 N233 1.332 1_554 S
C238 C237 1.382 . S
C238 H248 0.948 . S
N239 Co217 2.282 1_554 S
N239 C243 1.332 . S
N239 C244 1.332 1_554 S
C240 C241 1.388 1_556 S
C240 C244 1.382 . S
C240 H263 0.950 . S
C241 C240 1.388 1_554 S
C241 C242 1.386 . S
C242 C241 1.386 . S
C242 C243 1.382 . S
C242 H264 0.950 . S
C243 N239 1.332 . S
C243 C242 1.382 . S
C243 H245 0.952 . S
C244 N239 1.332 1_556 S
C244 C240 1.382 . S
C244 H246 0.948 . S
H245 C243 0.952 . S
H246 C244 0.948 . S
H247 C236 0.952 . S
H248 C238 0.948 . S
C249 C215 1.395 . S
C249 C219 1.391 . S
C250 C212 1.389 . S
C250 C232 1.392 1_554 S
C251 C222 1.392 1_556 S
C251 C224 1.389 . S
C252 C227 1.395 . S
C252 C229 1.391 . S
H253 C213 0.951 . S
H254 C214 0.950 . S
H255 C220 0.949 . S
H256 C221 0.950 . S
H257 C225 0.951 . S
H258 C226 0.950 . S
H259 C230 0.949 . S
H260 C231 0.950 . S
H261 C235 0.950 . S
H262 C237 0.950 . S
H263 C240 0.950 . S
H264 C242 0.950 . S
C265 C266 1.443 . S
C265 N269 1.376 . S
C265 C303 1.389 . S
C266 C265 1.443 . S
C266 C267 1.340 . S
C266 H306 0.951 . S
C267 C266 1.340 . S
C267 C268 1.439 . S
C267 H307 0.950 . S
C268 C267 1.439 . S
C268 N269 1.374 . S
C268 C302 1.395 . S
N269 C265 1.376 . S
N269 C268 1.374 . S
N269 Co270 2.008 . S
Co270 N269 2.008 . S
Co270 N271 1.995 . S
Co270 N276 2.008 . S
Co270 N281 1.995 . S
Co270 N286 2.282 . S
Co270 N292 2.282 . S
N271 Co270 1.995 . S
N271 C272 1.376 . S
N271 C275 1.383 . S
C272 N271 1.376 . S
C272 C273 1.446 . S
C272 C302 1.391 . S
C273 C272 1.446 . S
C273 C274 1.339 . S
C273 H308 0.949 . S
C274 C273 1.339 . S
C274 C275 1.439 . S
C274 H309 0.950 . S
C275 N271 1.383 . S
C275 C274 1.439 . S
C275 C304 1.392 . S
N276 Co270 2.008 . S
N276 C277 1.376 . S
N276 C280 1.374 . S
C277 N276 1.376 . S
C277 C278 1.443 . S
C277 C304 1.389 . S
C278 C277 1.443 . S
C278 C279 1.340 . S
C278 H310 0.951 . S
C279 C278 1.340 . S
C279 C280 1.439 . S
C279 H311 0.950 . S
C280 N276 1.374 . S
C280 C279 1.439 . S
C280 C305 1.395 . S
N281 Co270 1.995 . S
N281 C282 1.376 . S
N281 C285 1.383 . S
C282 N281 1.376 . S
C282 C283 1.446 . S
C282 C305 1.391 . S
C283 C282 1.446 . S
C283 C284 1.339 . S
C283 H312 0.949 . S
C284 C283 1.339 . S
C284 C285 1.439 . S
C284 H313 0.950 . S
C285 N281 1.383 . S
C285 C284 1.439 . S
C285 C303 1.392 . S
N286 Co270 2.282 . S
N286 C289 1.332 . S
N286 C291 1.332 . S
C287 C288 1.386 . S
C287 C290 1.388 . S
C288 C287 1.386 . S
C288 C289 1.382 . S
C288 H314 0.950 . S
C289 N286 1.332 . S
C289 C288 1.382 . S
C289 H300 0.952 . S
C290 C287 1.388 . S
C290 C291 1.382 . S
C290 H315 0.950 . S
C291 N286 1.332 . S
C291 C290 1.382 . S
C291 H301 0.948 . S
N292 Co270 2.282 . S
N292 C296 1.332 . S
N292 C297 1.332 . S
C293 C294 1.388 . S
C293 C297 1.382 . S
C293 H316 0.950 . S
C294 C293 1.388 . S
C294 C295 1.386 . S
C295 C294 1.386 . S
C295 C296 1.382 . S
C295 H317 0.950 . S
C296 N292 1.332 . S
C296 C295 1.382 . S
C296 H298 0.952 . S
C297 N292 1.332 . S
C297 C293 1.382 . S
C297 H299 0.948 . S
H298 C296 0.952 . S
H299 C297 0.948 . S
H300 C289 0.952 . S
H301 C291 0.948 . S
C302 C268 1.395 . S
C302 C272 1.391 . S
C303 C265 1.389 . S
C303 C285 1.392 . S
C304 C275 1.392 . S
C304 C277 1.389 . S
C305 C280 1.395 . S
C305 C282 1.391 . S
H306 C266 0.951 . S
H307 C267 0.950 . S
H308 C273 0.949 . S
H309 C274 0.950 . S
H310 C278 0.951 . S
H311 C279 0.950 . S
H312 C283 0.949 . S
H313 C284 0.950 . S
H314 C288 0.950 . S
H315 C290 0.950 . S
H316 C293 0.950 . S
H317 C295 0.950 . S
C318 C319 1.443 . S
C318 N322 1.376 . S
C318 C356 1.389 . S
C319 C318 1.443 . S
C319 C320 1.340 . S
C319 H359 0.951 . S
C320 C319 1.340 . S
C320 C321 1.439 . S
C320 H360 0.950 . S
C321 C320 1.439 . S
C321 N322 1.374 . S
C321 C355 1.395 . S
N322 C318 1.376 . S
N322 C321 1.374 . S
N322 Co323 2.008 . S
Co323 N322 2.008 . S
Co323 N324 1.995 . S
Co323 N329 2.008 . S
Co323 N334 1.995 . S
Co323 N339 2.282 . S
Co323 N345 2.282 . S
N324 Co323 1.995 . S
N324 C325 1.376 . S
N324 C328 1.383 . S
C325 N324 1.376 . S
C325 C326 1.446 . S
C325 C355 1.391 . S
C326 C325 1.446 . S
C326 C327 1.339 . S
C326 H361 0.949 . S
C327 C326 1.339 . S
C327 C328 1.439 . S
C327 H362 0.950 . S
C328 N324 1.383 . S
C328 C327 1.439 . S
C328 C357 1.392 . S
N329 Co323 2.008 . S
N329 C330 1.376 . S
N329 C333 1.374 . S
C330 N329 1.376 . S
C330 C331 1.443 . S
C330 C357 1.389 . S
C331 C330 1.443 . S
C331 C332 1.340 . S
C331 H363 0.951 . S
C332 C331 1.340 . S
C332 C333 1.439 . S
C332 H364 0.950 . S
C333 N329 1.374 . S
C333 C332 1.439 . S
C333 C358 1.395 . S
N334 Co323 1.995 . S
N334 C335 1.376 . S
N334 C338 1.383 . S
C335 N334 1.376 . S
C335 C336 1.446 . S
C335 C358 1.391 . S
C336 C335 1.446 . S
C336 C337 1.339 . S
C336 H365 0.949 . S
C337 C336 1.339 . S
C337 C338 1.439 . S
C337 H366 0.950 . S
C338 N334 1.383 . S
C338 C337 1.439 . S
C338 C356 1.392 . S
N339 Co323 2.282 . S
N339 C342 1.332 . S
N339 C344 1.332 . S
C340 C341 1.386 . S
C340 C343 1.388 . S
C341 C340 1.386 . S
C341 C342 1.382 . S
C341 H367 0.950 . S
C342 N339 1.332 . S
C342 C341 1.382 . S
C342 H353 0.952 . S
C343 C340 1.388 . S
C343 C344 1.382 . S
C343 H368 0.950 . S
C344 N339 1.332 . S
C344 C343 1.382 . S
C344 H354 0.948 . S
N345 Co323 2.282 . S
N345 C349 1.332 . S
N345 C350 1.332 . S
C346 C347 1.388 . S
C346 C350 1.382 . S
C346 H369 0.950 . S
C347 C346 1.388 . S
C347 C348 1.386 . S
C348 C347 1.386 . S
C348 C349 1.382 . S
C348 H370 0.950 . S
C349 N345 1.332 . S
C349 C348 1.382 . S
C349 H351 0.952 . S
C350 N345 1.332 . S
C350 C346 1.382 . S
C350 H352 0.948 . S
H351 C349 0.952 . S
H352 C350 0.948 . S
H353 C342 0.952 . S
H354 C344 0.948 . S
C355 C321 1.395 . S
C355 C325 1.391 . S
C356 C318 1.389 . S
C356 C338 1.392 . S
C357 C328 1.392 . S
C357 C330 1.389 . S
C358 C333 1.395 . S
C358 C335 1.391 . S
H359 C319 0.951 . S
H360 C320 0.950 . S
H361 C326 0.949 . S
H362 C327 0.950 . S
H363 C331 0.951 . S
H364 C332 0.950 . S
H365 C336 0.949 . S
H366 C337 0.950 . S
H367 C341 0.950 . S
H368 C343 0.950 . S
H369 C346 0.950 . S
H370 C348 0.950 . S
C371 C372 1.443 . S
C371 N375 1.376 . S
C371 C409 1.389 . S
C372 C371 1.443 . S
C372 C373 1.340 . S
C372 H412 0.951 . S
C373 C372 1.340 . S
C373 C374 1.439 . S
C373 H413 0.950 . S
C374 C373 1.439 . S
C374 N375 1.374 . S
C374 C408 1.395 . S
N375 C371 1.376 . S
N375 C374 1.374 . S
N375 Co376 2.008 . S
Co376 N375 2.008 . S
Co376 N377 1.995 . S
Co376 N382 2.008 . S
Co376 N387 1.995 . S
Co376 N392 2.282 . S
Co376 N398 2.282 . S
N377 Co376 1.995 . S
N377 C378 1.376 . S
N377 C381 1.383 . S
C378 N377 1.376 . S
C378 C379 1.446 . S
C378 C408 1.391 . S
C379 C378 1.446 . S
C379 C380 1.339 . S
C379 H414 0.949 . S
C380 C379 1.339 . S
C380 C381 1.439 . S
C380 H415 0.950 . S
C381 N377 1.383 . S
C381 C380 1.439 . S
C381 C410 1.392 . S
N382 Co376 2.008 . S
N382 C383 1.376 . S
N382 C386 1.374 . S
C383 N382 1.376 . S
C383 C384 1.443 . S
C383 C410 1.389 . S
C384 C383 1.443 . S
C384 C385 1.340 . S
C384 H416 0.951 . S
C385 C384 1.340 . S
C385 C386 1.439 . S
C385 H417 0.950 . S
C386 N382 1.374 . S
C386 C385 1.439 . S
C386 C411 1.395 . S
N387 Co376 1.995 . S
N387 C388 1.376 . S
N387 C391 1.383 . S
C388 N387 1.376 . S
C388 C389 1.446 . S
C388 C411 1.391 . S
C389 C388 1.446 . S
C389 C390 1.339 . S
C389 H418 0.949 . S
C390 C389 1.339 . S
C390 C391 1.439 . S
C390 H419 0.950 . S
C391 N387 1.383 . S
C391 C390 1.439 . S
C391 C409 1.392 . S
N392 Co376 2.282 . S
N392 C395 1.332 . S
N392 C397 1.332 . S
C393 C394 1.386 . S
C393 C396 1.388 . S
C394 C393 1.386 . S
C394 C395 1.382 . S
C394 H420 0.950 . S
C395 N392 1.332 . S
C395 C394 1.382 . S
C395 H406 0.952 . S
C396 C393 1.388 . S
C396 C397 1.382 . S
C396 H421 0.950 . S
C397 N392 1.332 . S
C397 C396 1.382 . S
C397 H407 0.948 . S
N398 Co376 2.282 . S
N398 C402 1.332 . S
N398 C403 1.332 . S
C399 C400 1.388 . S
C399 C403 1.382 . S
C399 H422 0.950 . S
C400 C399 1.388 . S
C400 C401 1.386 . S
C401 C400 1.386 . S
C401 C402 1.382 . S
C401 H423 0.950 . S
C402 N398 1.332 . S
C402 C401 1.382 . S
C402 H404 0.952 . S
C403 N398 1.332 . S
C403 C399 1.382 . S
C403 H405 0.948 . S
H404 C402 0.952 . S
H405 C403 0.948 . S
H406 C395 0.952 . S
H407 C397 0.948 . S
C408 C374 1.395 . S
C408 C378 1.391 . S
C409 C371 1.389 . S
C409 C391 1.392 . S
C410 C381 1.392 . S
C410 C383 1.389 . S
C411 C386 1.395 . S
C411 C388 1.391 . S
H412 C372 0.951 . S
H413 C373 0.950 . S
H414 C379 0.949 . S
H415 C380 0.950 . S
H416 C384 0.951 . S
H417 C385 0.950 . S
H418 C389 0.949 . S
H419 C390 0.950 . S
H420 C394 0.950 . S
H421 C396 0.950 . S
H422 C399 0.950 . S
H423 C401 0.950 . S
C424 C425 1.443 . S
C424 N428 1.376 . S
C424 C462 1.389 . S
C425 C424 1.443 . S
C425 C426 1.340 . S
C425 H465 0.951 . S
C426 C425 1.340 . S
C426 C427 1.439 . S
C426 H466 0.950 . S
C427 C426 1.439 . S
C427 N428 1.374 . S
C427 C461 1.395 . S
N428 C424 1.376 . S
N428 C427 1.374 . S
N428 Co429 2.008 . S
Co429 N428 2.008 . S
Co429 N430 1.995 . S
Co429 N435 2.008 . S
Co429 N440 1.995 . S
Co429 N445 2.282 . S
Co429 N451 2.282 . S
N430 Co429 1.995 . S
N430 C431 1.376 . S
N430 C434 1.383 . S
C431 N430 1.376 . S
C431 C432 1.446 . S
C431 C461 1.391 . S
C432 C431 1.446 . S
C432 C433 1.339 . S
C432 H467 0.949 . S
C433 C432 1.339 . S
C433 C434 1.439 . S
C433 H468 0.950 . S
C434 N430 1.383 . S
C434 C433 1.439 . S
C434 C463 1.392 . S
N435 Co429 2.008 . S
N435 C436 1.376 . S
N435 C439 1.374 . S
C436 N435 1.376 . S
C436 C437 1.443 . S
C436 C463 1.389 . S
C437 C436 1.443 . S
C437 C438 1.340 . S
C437 H469 0.951 . S
C438 C437 1.340 . S
C438 C439 1.439 . S
C438 H470 0.950 . S
C439 N435 1.374 . S
C439 C438 1.439 . S
C439 C464 1.395 . S
N440 Co429 1.995 . S
N440 C441 1.376 . S
N440 C444 1.383 . S
C441 N440 1.376 . S
C441 C442 1.446 . S
C441 C464 1.391 . S
C442 C441 1.446 . S
C442 C443 1.339 . S
C442 H471 0.949 . S
C443 C442 1.339 . S
C443 C444 1.439 . S
C443 H472 0.950 . S
C444 N440 1.383 . S
C444 C443 1.439 . S
C444 C462 1.392 . S
N445 Co429 2.282 . S
N445 C448 1.332 . S
N445 C450 1.332 . S
C446 C447 1.386 . S
C446 C449 1.388 . S
C447 C446 1.386 . S
C447 C448 1.382 . S
C447 H473 0.950 . S
C448 N445 1.332 . S
C448 C447 1.382 . S
C448 H459 0.952 . S
C449 C446 1.388 . S
C449 C450 1.382 . S
C449 H474 0.950 . S
C450 N445 1.332 . S
C450 C449 1.382 . S
C450 H460 0.948 . S
N451 Co429 2.282 . S
N451 C455 1.332 . S
N451 C456 1.332 . S
C452 C453 1.388 . S
C452 C456 1.382 . S
C452 H475 0.950 . S
C453 C452 1.388 . S
C453 C454 1.386 . S
C454 C453 1.386 . S
C454 C455 1.382 . S
C454 H476 0.950 . S
C455 N451 1.332 . S
C455 C454 1.382 . S
C455 H457 0.952 . S
C456 N451 1.332 . S
C456 C452 1.382 . S
C456 H458 0.948 . S
H457 C455 0.952 . S
H458 C456 0.948 . S
H459 C448 0.952 . S
H460 C450 0.948 . S
C461 C427 1.395 . S
C461 C431 1.391 . S
C462 C424 1.389 . S
C462 C444 1.392 . S
C463 C434 1.392 . S
C463 C436 1.389 . S
C464 C439 1.395 . S
C464 C441 1.391 . S
H465 C425 0.951 . S
H466 C426 0.950 . S
H467 C432 0.949 . S
H468 C433 0.950 . S
H469 C437 0.951 . S
H470 C438 0.950 . S
H471 C442 0.949 . S
H472 C443 0.950 . S
H473 C447 0.950 . S
H474 C449 0.950 . S
H475 C452 0.950 . S
H476 C454 0.950 . S
C477 C478 1.443 . S
C477 N481 1.376 . S
C477 C515 1.389 . S
C478 C477 1.443 . S
C478 C479 1.340 . S
C478 H518 0.951 . S
C479 C478 1.340 . S
C479 C480 1.439 . S
C479 H519 0.950 . S
C480 C479 1.439 . S
C480 N481 1.374 . S
C480 C514 1.395 . S
N481 C477 1.376 . S
N481 C480 1.374 . S
N481 Co482 2.008 . S
Co482 N481 2.008 . S
Co482 N483 1.995 . S
Co482 N488 2.008 . S
Co482 N493 1.995 . S
Co482 N498 2.282 . S
Co482 N504 2.282 . S
N483 Co482 1.995 . S
N483 C484 1.376 . S
N483 C487 1.383 . S
C484 N483 1.376 . S
C484 C485 1.446 . S
C484 C514 1.391 . S
C485 C484 1.446 . S
C485 C486 1.339 . S
C485 H520 0.949 . S
C486 C485 1.339 . S
C486 C487 1.439 . S
C486 H521 0.950 . S
C487 N483 1.383 . S
C487 C486 1.439 . S
C487 C516 1.392 . S
N488 Co482 2.008 . S
N488 C489 1.376 . S
N488 C492 1.374 . S
C489 N488 1.376 . S
C489 C490 1.443 1_545 S
C489 C516 1.389 . S
C490 C489 1.443 1_565 S
C490 C491 1.340 . S
C490 H522 0.951 . S
C491 C490 1.340 . S
C491 C492 1.439 1_565 S
C491 H523 0.950 . S
C492 N488 1.374 . S
C492 C491 1.439 1_545 S
C492 C517 1.395 . S
N493 Co482 1.995 . S
N493 C494 1.376 . S
N493 C497 1.383 . S
C494 N493 1.376 . S
C494 C495 1.446 . S
C494 C517 1.391 . S
C495 C494 1.446 . S
C495 C496 1.339 . S
C495 H524 0.949 . S
C496 C495 1.339 . S
C496 C497 1.439 . S
C496 H525 0.950 . S
C497 N493 1.383 . S
C497 C496 1.439 . S
C497 C515 1.392 . S
N498 Co482 2.282 . S
N498 C501 1.338 . S
N498 C503 1.332 . S
C499 C500 1.386 . S
C499 C502 1.388 . S
C500 C499 1.386 . S
C500 C501 1.373 1_565 S
C500 H526 0.950 . S
C501 N498 1.338 . S
C501 C500 1.373 1_545 S
C501 H512 0.955 . S
C502 C499 1.388 . S
C502 C503 1.382 1_565 S
C502 H527 0.950 . S
C503 N498 1.332 . S
C503 C502 1.382 1_545 S
C503 H513 0.948 . S
N504 Co482 2.282 . S
N504 C508 1.332 . S
N504 C509 1.332 . S
C505 C506 1.388 . S
C505 C509 1.382 . S
C505 H528 0.950 . S
C506 C505 1.388 . S
C506 C507 1.386 . S
C507 C506 1.386 . S
C507 C508 1.382 . S
C507 H529 0.950 . S
C508 N504 1.332 . S
C508 C507 1.382 . S
C508 H510 0.952 . S
C509 N504 1.332 . S
C509 C505 1.382 . S
C509 H511 0.948 . S
H510 C508 0.952 . S
H511 C509 0.948 . S
H512 C501 0.955 . S
H513 C503 0.948 . S
C514 C480 1.395 . S
C514 C484 1.391 . S
C515 C477 1.389 . S
C515 C497 1.392 . S
C516 C487 1.392 . S
C516 C489 1.389 . S
C517 C492 1.395 . S
C517 C494 1.391 . S
H518 C478 0.951 . S
H519 C479 0.950 . S
H520 C485 0.949 . S
H521 C486 0.950 . S
H522 C490 0.951 . S
H523 C491 0.950 . S
H524 C495 0.949 . S
H525 C496 0.950 . S
H526 C500 0.950 . S
H527 C502 0.950 . S
H528 C505 0.950 . S
H529 C507 0.950 . S
C530 C531 1.443 . S
C530 N534 1.376 . S
C530 C568 1.389 . S
C531 C530 1.443 . S
C531 C532 1.340 . S
C531 H571 0.951 . S
C532 C531 1.340 . S
C532 C533 1.439 . S
C532 H572 0.950 . S
C533 C532 1.439 . S
C533 N534 1.374 . S
C533 C567 1.395 . S
N534 C530 1.376 . S
N534 C533 1.374 . S
N534 Co535 2.008 1_556 S
Co535 N534 2.008 1_554 S
Co535 N536 1.995 1_554 S
Co535 N541 2.008 . S
Co535 N546 1.995 . S
Co535 N551 2.282 . S
Co535 N557 2.282 1_554 S
N536 Co535 1.995 1_556 S
N536 C537 1.376 . S
N536 C540 1.383 . S
C537 N536 1.376 . S
C537 C538 1.446 . S
C537 C567 1.391 . S
C538 C537 1.446 . S
C538 C539 1.339 . S
C538 H573 0.949 . S
C539 C538 1.339 . S
C539 C540 1.439 . S
C539 H574 0.950 . S
C540 N536 1.383 . S
C540 C539 1.439 . S
C540 C569 1.392 1_556 S
N541 Co535 2.008 . S
N541 C542 1.376 . S
N541 C545 1.374 . S
C542 N541 1.376 . S
C542 C543 1.443 . S
C542 C569 1.389 . S
C543 C542 1.443 . S
C543 C544 1.340 . S
C543 H575 0.951 . S
C544 C543 1.340 . S
C544 C545 1.439 . S
C544 H576 0.950 . S
C545 N541 1.374 . S
C545 C544 1.439 . S
C545 C570 1.395 . S
N546 Co535 1.995 . S
N546 C547 1.376 . S
N546 C550 1.383 . S
C547 N546 1.376 . S
C547 C548 1.446 . S
C547 C570 1.391 . S
C548 C547 1.446 . S
C548 C549 1.339 . S
C548 H577 0.949 . S
C549 C548 1.339 . S
C549 C550 1.439 . S
C549 H578 0.950 . S
C550 N546 1.383 . S
C550 C549 1.439 . S
C550 C568 1.392 1_554 S
N551 Co535 2.282 . S
N551 C554 1.332 . S
N551 C556 1.332 1_554 S
C552 C553 1.386 . S
C552 C555 1.388 1_554 S
C553 C552 1.386 . S
C553 C554 1.382 . S
C553 H579 0.950 . S
C554 N551 1.332 . S
C554 C553 1.382 . S
C554 H565 0.952 . S
C555 C552 1.388 1_556 S
C555 C556 1.382 . S
C555 H580 0.950 . S
C556 N551 1.332 1_556 S
C556 C555 1.382 . S
C556 H566 0.948 . S
N557 Co535 2.282 1_556 S
N557 C561 1.332 . S
N557 C562 1.332 1_556 S
C558 C559 1.388 1_554 S
C558 C562 1.382 . S
C558 H581 0.950 . S
C559 C558 1.388 1_556 S
C559 C560 1.386 . S
C560 C559 1.386 . S
C560 C561 1.382 . S
C560 H582 0.950 . S
C561 N557 1.332 . S
C561 C560 1.382 . S
C561 H563 0.952 . S
C562 N557 1.332 1_554 S
C562 C558 1.382 . S
C562 H564 0.948 . S
H563 C561 0.952 . S
H564 C562 0.948 . S
H565 C554 0.952 . S
H566 C556 0.948 . S
C567 C533 1.395 . S
C567 C537 1.391 . S
C568 C530 1.389 . S
C568 C550 1.392 1_556 S
C569 C540 1.392 1_554 S
C569 C542 1.389 . S
C570 C545 1.395 . S
C570 C547 1.391 . S
H571 C531 0.951 . S
H572 C532 0.950 . S
H573 C538 0.949 . S
H574 C539 0.950 . S
H575 C543 0.951 . S
H576 C544 0.950 . S
H577 C548 0.949 . S
H578 C549 0.950 . S
H579 C553 0.950 . S
H580 C555 0.950 . S
H581 C558 0.950 . S
H582 C560 0.950 . S
C583 C584 1.443 . S
C583 N587 1.376 . S
C583 C621 1.389 . S
C584 C583 1.443 . S
C584 C585 1.340 . S
C584 H624 0.951 . S
C585 C584 1.340 . S
C585 C586 1.439 . S
C585 H625 0.950 . S
C586 C585 1.439 . S
C586 N587 1.374 . S
C586 C620 1.395 . S
N587 C583 1.376 . S
N587 C586 1.374 . S
N587 Co588 2.008 . S
Co588 N587 2.008 . S
Co588 N589 1.995 . S
Co588 N594 2.008 . S
Co588 N599 1.995 . S
Co588 N604 2.282 . S
Co588 N610 2.282 . S
N589 Co588 1.995 . S
N589 C590 1.376 . S
N589 C593 1.383 . S
C590 N589 1.376 . S
C590 C591 1.446 . S
C590 C620 1.391 . S
C591 C590 1.446 . S
C591 C592 1.339 . S
C591 H626 0.949 . S
C592 C591 1.339 . S
C592 C593 1.439 . S
C592 H627 0.950 . S
C593 N589 1.383 . S
C593 C592 1.439 . S
C593 C622 1.392 . S
N594 Co588 2.008 . S
N594 C595 1.376 . S
N594 C598 1.374 . S
C595 N594 1.376 . S
C595 C596 1.443 1_565 S
C595 C622 1.389 . S
C596 C595 1.443 1_545 S
C596 C597 1.340 . S
C596 H628 0.951 . S
C597 C596 1.340 . S
C597 C598 1.439 1_545 S
C597 H629 0.950 . S
C598 N594 1.374 . S
C598 C597 1.439 1_565 S
C598 C623 1.395 . S
N599 Co588 1.995 . S
N599 C600 1.376 . S
N599 C603 1.383 . S
C600 N599 1.376 . S
C600 C601 1.446 . S
C600 C623 1.391 . S
C601 C600 1.446 . S
C601 C602 1.339 . S
C601 H630 0.949 . S
C602 C601 1.339 . S
C602 C603 1.439 . S
C602 H631 0.950 . S
C603 N599 1.383 . S
C603 C602 1.439 . S
C603 C621 1.392 . S
N604 Co588 2.282 . S
N604 C607 1.336 . S
N604 C609 1.332 . S
C605 C606 1.386 . S
C605 C608 1.388 . S
C606 C605 1.386 . S
C606 C607 1.375 1_545 S
C606 H632 0.950 . S
C607 N604 1.336 . S
C607 C606 1.375 1_565 S
C607 H618 0.954 . S
C608 C605 1.388 . S
C608 C609 1.382 1_545 S
C608 H633 0.950 . S
C609 N604 1.332 . S
C609 C608 1.382 1_565 S
C609 H619 0.948 . S
N610 Co588 2.282 . S
N610 C614 1.332 . S
N610 C615 1.332 . S
C611 C612 1.388 . S
C611 C615 1.382 . S
C611 H634 0.950 . S
C612 C611 1.388 . S
C612 C613 1.386 . S
C613 C612 1.386 . S
C613 C614 1.382 . S
C613 H635 0.950 . S
C614 N610 1.332 . S
C614 C613 1.382 . S
C614 H616 0.952 . S
C615 N610 1.332 . S
C615 C611 1.382 . S
C615 H617 0.948 . S
H616 C614 0.952 . S
H617 C615 0.948 . S
H618 C607 0.954 . S
H619 C609 0.948 . S
C620 C586 1.395 . S
C620 C590 1.391 . S
C621 C583 1.389 . S
C621 C603 1.392 . S
C622 C593 1.392 . S
C622 C595 1.389 . S
C623 C598 1.395 . S
C623 C600 1.391 . S
H624 C584 0.951 . S
H625 C585 0.950 . S
H626 C591 0.949 . S
H627 C592 0.950 . S
H628 C596 0.951 . S
H629 C597 0.950 . S
H630 C601 0.949 . S
H631 C602 0.950 . S
H632 C606 0.950 . S
H633 C608 0.950 . S
H634 C611 0.950 . S
H635 C613 0.950 . S
C636 C637 1.443 . S
C636 N640 1.376 . S
C636 C674 1.389 . S
C637 C636 1.443 . S
C637 C638 1.340 . S
C637 H677 0.951 . S
C638 C637 1.340 . S
C638 C639 1.439 . S
C638 H678 0.950 . S
C639 C638 1.439 . S
C639 N640 1.374 . S
C639 C673 1.395 . S
N640 C636 1.376 . S
N640 C639 1.374 . S
N640 Co641 2.008 . S
Co641 N640 2.008 . S
Co641 N642 1.995 . S
Co641 N647 2.008 . S
Co641 N652 1.995 . S
Co641 N657 2.282 . S
Co641 N663 2.282 . S
N642 Co641 1.995 . S
N642 C643 1.376 . S
N642 C646 1.383 . S
C643 N642 1.376 . S
C643 C644 1.446 . S
C643 C673 1.391 . S
C644 C643 1.446 . S
C644 C645 1.339 . S
C644 H679 0.949 . S
C645 C644 1.339 . S
C645 C646 1.439 . S
C645 H680 0.950 . S
C646 N642 1.383 . S
C646 C645 1.439 . S
C646 C675 1.392 . S
N647 Co641 2.008 . S
N647 C648 1.376 . S
N647 C651 1.374 . S
C648 N647 1.376 . S
C648 C649 1.443 . S
C648 C675 1.389 . S
C649 C648 1.443 . S
C649 C650 1.340 . S
C649 H681 0.951 . S
C650 C649 1.340 . S
C650 C651 1.439 . S
C650 H682 0.950 . S
C651 N647 1.374 . S
C651 C650 1.439 . S
C651 C676 1.395 . S
N652 Co641 1.995 . S
N652 C653 1.376 . S
N652 C656 1.383 . S
C653 N652 1.376 . S
C653 C654 1.446 . S
C653 C676 1.391 . S
C654 C653 1.446 . S
C654 C655 1.339 . S
C654 H683 0.949 . S
C655 C654 1.339 . S
C655 C656 1.439 . S
C655 H684 0.950 . S
C656 N652 1.383 . S
C656 C655 1.439 . S
C656 C674 1.392 . S
N657 Co641 2.282 . S
N657 C660 1.332 . S
N657 C662 1.332 . S
C658 C659 1.386 . S
C658 C661 1.388 . S
C659 C658 1.386 . S
C659 C660 1.382 . S
C659 H685 0.950 . S
C660 N657 1.332 . S
C660 C659 1.382 . S
C660 H671 0.952 . S
C661 C658 1.388 . S
C661 C662 1.382 . S
C661 H686 0.950 . S
C662 N657 1.332 . S
C662 C661 1.382 . S
C662 H672 0.948 . S
N663 Co641 2.282 . S
N663 C667 1.332 . S
N663 C668 1.332 . S
C664 C665 1.388 . S
C664 C668 1.382 . S
C664 H687 0.950 . S
C665 C664 1.388 . S
C665 C666 1.386 . S
C666 C665 1.386 . S
C666 C667 1.382 . S
C666 H688 0.950 . S
C667 N663 1.332 . S
C667 C666 1.382 . S
C667 H669 0.952 . S
C668 N663 1.332 . S
C668 C664 1.382 . S
C668 H670 0.948 . S
H669 C667 0.952 . S
H670 C668 0.948 . S
H671 C660 0.952 . S
H672 C662 0.948 . S
C673 C639 1.395 . S
C673 C643 1.391 . S
C674 C636 1.389 . S
C674 C656 1.392 . S
C675 C646 1.392 . S
C675 C648 1.389 . S
C676 C651 1.395 . S
C676 C653 1.391 . S
H677 C637 0.951 . S
H678 C638 0.950 . S
H679 C644 0.949 . S
H680 C645 0.950 . S
H681 C649 0.951 . S
H682 C650 0.950 . S
H683 C654 0.949 . S
H684 C655 0.950 . S
H685 C659 0.950 . S
H686 C661 0.950 . S
H687 C664 0.950 . S
H688 C666 0.950 . S
C689 C690 1.443 . S
C689 N693 1.376 . S
C689 C727 1.389 . S
C690 C689 1.443 . S
C690 C691 1.340 . S
C690 H730 0.951 . S
C691 C690 1.340 . S
C691 C692 1.439 . S
C691 H731 0.950 . S
C692 C691 1.439 . S
C692 N693 1.374 . S
C692 C726 1.395 . S
N693 C689 1.376 . S
N693 C692 1.374 . S
N693 Co694 2.008 . S
Co694 N693 2.008 . S
Co694 N695 1.995 . S
Co694 N700 2.008 . S
Co694 N705 1.995 . S
Co694 N710 2.282 . S
Co694 N716 2.282 . S
N695 Co694 1.995 . S
N695 C696 1.376 . S
N695 C699 1.383 . S
C696 N695 1.376 . S
C696 C697 1.446 . S
C696 C726 1.391 . S
C697 C696 1.446 . S
C697 C698 1.339 1_565 S
C697 H732 0.947 1_565 S
C698 C697 1.339 1_545 S
C698 C699 1.439 1_545 S
C698 H733 0.950 . S
C699 N695 1.383 . S
C699 C698 1.439 1_565 S
C699 C728 1.392 . S
N700 Co694 2.008 . S
N700 C701 1.376 . S
N700 C704 1.374 . S
C701 N700 1.376 . S
C701 C702 1.443 . S
C701 C728 1.389 . S
C702 C701 1.443 . S
C702 C703 1.340 . S
C702 H734 0.959 . S
C703 C702 1.340 . S
C703 C704 1.439 . S
C703 H735 0.950 . S
C704 N700 1.374 . S
C704 C703 1.439 . S
C704 C729 1.395 . S
N705 Co694 1.995 . S
N705 C706 1.376 . S
N705 C709 1.383 . S
C706 N705 1.376 . S
C706 C707 1.446 . S
C706 C729 1.391 . S
C707 C706 1.446 . S
C707 C708 1.339 . S
C707 H736 0.949 . S
C708 C707 1.339 . S
C708 C709 1.439 . S
C708 H737 0.950 . S
C709 N705 1.383 . S
C709 C708 1.439 . S
C709 C727 1.392 . S
N710 Co694 2.282 . S
N710 C713 1.332 . S
N710 C715 1.332 1_565 S
C711 C712 1.386 . S
C711 C714 1.388 . S
C712 C711 1.386 . S
C712 C713 1.382 1_545 S
C712 H738 0.950 . S
C713 N710 1.332 . S
C713 C712 1.382 1_565 S
C713 H724 0.952 . S
C714 C711 1.388 . S
C714 C715 1.382 . S
C714 H739 0.950 . S
C715 N710 1.332 1_545 S
C715 C714 1.382 . S
C715 H725 0.948 . S
N716 Co694 2.282 . S
N716 C720 1.332 . S
N716 C721 1.332 . S
C717 C718 1.388 . S
C717 C721 1.382 . S
C717 H740 0.950 . S
C718 C717 1.388 . S
C718 C719 1.386 . S
C719 C718 1.386 . S
C719 C720 1.382 . S
C719 H741 0.950 . S
C720 N716 1.332 . S
C720 C719 1.382 . S
C720 H722 0.952 . S
C721 N716 1.332 . S
C721 C717 1.382 . S
C721 H723 0.948 . S
H722 C720 0.952 . S
H723 C721 0.948 . S
H724 C713 0.952 . S
H725 C715 0.948 . S
C726 C692 1.395 . S
C726 C696 1.391 . S
C727 C689 1.389 . S
C727 C709 1.392 . S
C728 C699 1.392 . S
C728 C701 1.389 . S
C729 C704 1.395 . S
C729 C706 1.391 . S
H730 C690 0.951 . S
H731 C691 0.950 . S
H732 C697 0.947 1_545 S
H733 C698 0.950 . S
H734 C702 0.959 . S
H735 C703 0.950 . S
H736 C707 0.949 . S
H737 C708 0.950 . S
H738 C712 0.950 . S
H739 C714 0.950 . S
H740 C717 0.950 . S
H741 C719 0.950 . S
C742 C743 1.443 . S
C742 N746 1.376 . S
C742 C780 1.389 . S
C743 C742 1.443 . S
C743 C744 1.340 . S
C743 H783 0.951 . S
C744 C743 1.340 . S
C744 C745 1.439 . S
C744 H784 0.950 . S
C745 C744 1.439 . S
C745 N746 1.374 . S
C745 C779 1.395 . S
N746 C742 1.376 . S
N746 C745 1.374 . S
N746 Co747 2.008 1_554 S
Co747 N746 2.008 1_556 S
Co747 N748 1.995 1_556 S
Co747 N753 2.008 . S
Co747 N758 1.995 . S
Co747 N763 2.282 . S
Co747 N769 2.282 1_556 S
N748 Co747 1.995 1_554 S
N748 C749 1.376 . S
N748 C752 1.383 . S
C749 N748 1.376 . S
C749 C750 1.446 . S
C749 C779 1.391 . S
C750 C749 1.446 . S
C750 C751 1.339 . S
C750 H785 0.949 . S
C751 C750 1.339 . S
C751 C752 1.439 . S
C751 H786 0.950 . S
C752 N748 1.383 . S
C752 C751 1.439 . S
C752 C781 1.392 1_554 S
N753 Co747 2.008 . S
N753 C754 1.376 . S
N753 C757 1.374 . S
C754 N753 1.376 . S
C754 C755 1.443 . S
C754 C781 1.389 . S
C755 C754 1.443 . S
C755 C756 1.340 . S
C755 H787 0.951 . S
C756 C755 1.340 . S
C756 C757 1.439 . S
C756 H788 0.950 . S
C757 N753 1.374 . S
C757 C756 1.439 . S
C757 C782 1.395 . S
N758 Co747 1.995 . S
N758 C759 1.376 . S
N758 C762 1.383 . S
C759 N758 1.376 . S
C759 C760 1.446 . S
C759 C782 1.391 . S
C760 C759 1.446 . S
C760 C761 1.339 . S
C760 H789 0.949 . S
C761 C760 1.339 . S
C761 C762 1.439 . S
C761 H790 0.950 . S
C762 N758 1.383 . S
C762 C761 1.439 . S
C762 C780 1.392 1_556 S
N763 Co747 2.282 . S
N763 C766 1.332 . S
N763 C768 1.332 1_556 S
C764 C765 1.386 . S
C764 C767 1.388 1_556 S
C765 C764 1.386 . S
C765 C766 1.382 . S
C765 H791 0.950 . S
C766 N763 1.332 . S
C766 C765 1.382 . S
C766 H777 0.952 . S
C767 C764 1.388 1_554 S
C767 C768 1.382 . S
C767 H792 0.950 . S
C768 N763 1.332 1_554 S
C768 C767 1.382 . S
C768 H778 0.948 . S
N769 Co747 2.282 1_554 S
N769 C773 1.332 . S
N769 C774 1.332 1_554 S
C770 C771 1.388 1_556 S
C770 C774 1.382 . S
C770 H793 0.950 . S
C771 C770 1.388 1_554 S
C771 C772 1.386 . S
C772 C771 1.386 . S
C772 C773 1.382 . S
C772 H794 0.950 . S
C773 N769 1.332 . S
C773 C772 1.382 . S
C773 H775 0.952 . S
C774 N769 1.332 1_556 S
C774 C770 1.382 . S
C774 H776 0.948 . S
H775 C773 0.952 . S
H776 C774 0.948 . S
H777 C766 0.952 . S
H778 C768 0.948 . S
C779 C745 1.395 . S
C779 C749 1.391 . S
C780 C742 1.389 . S
C780 C762 1.392 1_554 S
C781 C752 1.392 1_556 S
C781 C754 1.389 . S
C782 C757 1.395 . S
C782 C759 1.391 . S
H783 C743 0.951 . S
H784 C744 0.950 . S
H785 C750 0.949 . S
H786 C751 0.950 . S
H787 C755 0.951 . S
H788 C756 0.950 . S
H789 C760 0.949 . S
H790 C761 0.950 . S
H791 C765 0.950 . S
H792 C767 0.950 . S
H793 C770 0.950 . S
H794 C772 0.950 . S
C795 C796 1.443 . S
C795 N799 1.376 . S
C795 C833 1.389 . S
C796 C795 1.443 . S
C796 C797 1.340 . S
C796 H836 0.951 . S
C797 C796 1.340 . S
C797 C798 1.439 . S
C797 H837 0.950 . S
C798 C797 1.439 . S
C798 N799 1.374 . S
C798 C832 1.395 . S
N799 C795 1.376 . S
N799 C798 1.374 . S
N799 Co800 2.008 . S
Co800 N799 2.008 . S
Co800 N801 1.995 . S
Co800 N806 2.008 . S
Co800 N811 1.995 . S
Co800 N816 2.282 . S
Co800 N822 2.282 . S
N801 Co800 1.995 . S
N801 C802 1.376 . S
N801 C805 1.383 . S
C802 N801 1.376 . S
C802 C803 1.446 . S
C802 C832 1.391 . S
C803 C802 1.446 . S
C803 C804 1.339 1_545 S
C803 H838 0.946 1_545 S
C804 C803 1.339 1_565 S
C804 C805 1.439 1_565 S
C804 H839 0.950 . S
C805 N801 1.383 . S
C805 C804 1.439 1_545 S
C805 C834 1.392 . S
N806 Co800 2.008 . S
N806 C807 1.376 . S
N806 C810 1.374 . S
C807 N806 1.376 . S
C807 C808 1.443 . S
C807 C834 1.389 . S
C808 C807 1.443 . S
C808 C809 1.340 . S
C808 H840 0.960 . S
C809 C808 1.340 . S
C809 C810 1.439 . S
C809 H841 0.950 . S
C810 N806 1.374 . S
C810 C809 1.439 . S
C810 C835 1.395 . S
N811 Co800 1.995 . S
N811 C812 1.376 . S
N811 C815 1.383 . S
C812 N811 1.376 . S
C812 C813 1.446 . S
C812 C835 1.391 . S
C813 C812 1.446 . S
C813 C814 1.339 . S
C813 H842 0.949 . S
C814 C813 1.339 . S
C814 C815 1.439 . S
C814 H843 0.950 . S
C815 N811 1.383 . S
C815 C814 1.439 . S
C815 C833 1.392 . S
N816 Co800 2.282 . S
N816 C819 1.332 . S
N816 C821 1.332 1_545 S
C817 C818 1.386 . S
C817 C820 1.388 . S
C818 C817 1.386 . S
C818 C819 1.382 1_565 S
C818 H844 0.950 . S
C819 N816 1.332 . S
C819 C818 1.382 1_545 S
C819 H830 0.952 . S
C820 C817 1.388 . S
C820 C821 1.382 . S
C820 H845 0.950 . S
C821 N816 1.332 1_565 S
C821 C820 1.382 . S
C821 H831 0.948 . S
N822 Co800 2.282 . S
N822 C826 1.332 . S
N822 C827 1.332 . S
C823 C824 1.388 . S
C823 C827 1.382 . S
C823 H846 0.950 . S
C824 C823 1.388 . S
C824 C825 1.386 . S
C825 C824 1.386 . S
C825 C826 1.382 . S
C825 H847 0.950 . S
C826 N822 1.332 . S
C826 C825 1.382 . S
C826 H828 0.952 . S
C827 N822 1.332 . S
C827 C823 1.382 . S
C827 H829 0.948 . S
H828 C826 0.952 . S
H829 C827 0.948 . S
H830 C819 0.952 . S
H831 C821 0.948 . S
C832 C798 1.395 . S
C832 C802 1.391 . S
C833 C795 1.389 . S
C833 C815 1.392 . S
C834 C805 1.392 . S
C834 C807 1.389 . S
C835 C810 1.395 . S
C835 C812 1.391 . S
H836 C796 0.951 . S
H837 C797 0.950 . S
H838 C803 0.946 1_565 S
H839 C804 0.950 . S
H840 C808 0.960 . S
H841 C809 0.950 . S
H842 C813 0.949 . S
H843 C814 0.950 . S
H844 C818 0.950 . S
H845 C820 0.950 . S
H846 C823 0.950 . S
H847 C825 0.950 . S
H848 C856 0.929 . S
H849 C858 0.930 . S
H850 C860 0.930 . S
H851 C863 0.929 . S
H852 C866 0.929 1_554 S
H853 C868 0.960 . S
H854 C868 0.960 . S
H855 C868 0.960 1_554 S
C856 H848 0.929 . S
C856 C857 1.377 1_556 S
C856 C858 1.384 . S
C857 C856 1.377 1_554 S
C857 C863 1.390 . S
C858 H849 0.930 . S
C858 C856 1.384 . S
C858 C859 1.372 1_556 S
C859 C858 1.372 1_554 S
C859 C860 1.400 . S
C859 C864 1.490 . S
C860 H850 0.930 . S
C860 C859 1.400 . S
C860 C863 1.386 . S
H861 C877 0.930 . S
H862 C878 0.931 . S
C863 H851 0.929 . S
C863 C857 1.390 . S
C863 C860 1.386 . S
C864 C859 1.490 . S
C864 C866 1.395 1_554 S
C864 C867 1.403 1_554 S
H865 C871 0.930 . S
C866 H852 0.929 1_556 S
C866 C864 1.395 1_556 S
C866 C869 1.403 . S
C867 C864 1.403 1_556 S
C867 C868 1.524 1_565 S
C867 C871 1.400 1_565 S
C868 H853 0.960 . S
C868 H854 0.960 . S
C868 H855 0.960 1_556 S
C868 C867 1.524 1_545 S
C869 C866 1.403 . S
C869 C870 1.392 . S
C869 C873 1.495 . S
C870 C869 1.392 . S
C870 C871 1.385 1_565 S
C870 C872 1.478 1_565 S
C871 H865 0.930 . S
C871 C867 1.400 1_545 S
C871 C870 1.385 1_545 S
C872 C870 1.478 1_545 S
C872 C874 1.381 . S
C872 C878 1.383 1_556 S
C873 C869 1.495 . S
C873 H879 0.959 . S
C873 H880 0.961 1_556 S
C873 H881 0.960 . S
C874 C872 1.381 . S
C874 C875 1.394 . S
C874 H882 0.930 1_545 S
C875 C874 1.394 . S
C875 C876 1.383 . S
C875 H883 0.929 . S
C876 C875 1.383 . S
C876 C877 1.377 1_556 S
C877 H861 0.930 . S
C877 C876 1.377 1_554 S
C877 C878 1.379 . S
C878 H862 0.931 . S
C878 C872 1.383 1_554 S
C878 C877 1.379 . S
H879 C873 0.959 . S
H880 C873 0.961 1_554 S
H881 C873 0.960 . S
H882 C874 0.930 1_565 S
H883 C875 0.929 . S
H884 C892 0.929 . S
H885 C894 0.930 . S
H886 C896 0.930 . S
H887 C899 0.929 . S
H888 C902 0.930 . S
H889 C904 0.960 . S
H890 C904 0.960 . S
H891 C904 0.960 . S
C892 H884 0.929 . S
C892 C893 1.377 . S
C892 C894 1.384 . S
C893 C892 1.377 . S
C893 C899 1.390 . S
C894 H885 0.930 . S
C894 C892 1.384 . S
C894 C895 1.372 . S
C895 C894 1.372 . S
C895 C896 1.400 . S
C895 C900 1.490 . S
C896 H886 0.930 . S
C896 C895 1.400 . S
C896 C899 1.386 . S
H897 C913 0.930 . S
H898 C914 0.931 . S
C899 H887 0.929 . S
C899 C893 1.390 . S
C899 C896 1.386 . S
C900 C895 1.490 . S
C900 C902 1.395 . S
C900 C903 1.403 . S
H901 C907 0.930 . S
C902 H888 0.930 . S
C902 C900 1.395 . S
C902 C905 1.403 . S
C903 C900 1.403 . S
C903 C904 1.524 . S
C903 C907 1.400 . S
C904 H889 0.960 . S
C904 H890 0.960 . S
C904 H891 0.960 . S
C904 C903 1.524 . S
C905 C902 1.403 . S
C905 C906 1.392 . S
C905 C909 1.495 . S
C906 C905 1.392 . S
C906 C907 1.385 . S
C906 C908 1.478 . S
C907 H901 0.930 . S
C907 C903 1.400 . S
C907 C906 1.385 . S
C908 C906 1.478 . S
C908 C910 1.381 . S
C908 C914 1.383 . S
C909 C905 1.495 . S
C909 H915 0.959 . S
C909 H916 0.961 . S
C909 H917 0.960 . S
C910 C908 1.381 . S
C910 C911 1.394 . S
C910 H918 0.930 . S
C911 C910 1.394 . S
C911 C912 1.383 . S
C911 H919 0.929 . S
C912 C911 1.383 . S
C912 C913 1.377 . S
C913 H897 0.930 . S
C913 C912 1.377 . S
C913 C914 1.379 . S
C914 H898 0.931 . S
C914 C908 1.383 . S
C914 C913 1.379 . S
H915 C909 0.959 . S
H916 C909 0.961 . S
H917 C909 0.960 . S
H918 C910 0.930 . S
H919 C911 0.929 . S
H920 C928 0.929 . S
H921 C930 0.930 . S
H922 C932 0.930 . S
H923 C935 0.929 . S
H924 C938 0.930 . S
H925 C940 0.960 . S
H926 C940 0.960 . S
H927 C940 0.960 . S
C928 H920 0.929 . S
C928 C929 1.377 . S
C928 C930 1.384 . S
C929 C928 1.377 . S
C929 C935 1.390 . S
C930 H921 0.930 . S
C930 C928 1.384 . S
C930 C931 1.372 . S
C931 C930 1.372 . S
C931 C932 1.400 . S
C931 C936 1.490 1_465 S
C932 H922 0.930 . S
C932 C931 1.400 . S
C932 C935 1.386 . S
H933 C949 0.930 . S
H934 C950 0.931 . S
C935 H923 0.929 . S
C935 C929 1.390 . S
C935 C932 1.386 . S
C936 C931 1.490 1_645 S
C936 C938 1.395 1_545 S
C936 C939 1.403 . S
H937 C943 0.930 . S
C938 H924 0.930 . S
C938 C936 1.395 1_565 S
C938 C941 1.385 1_565 S
C939 C936 1.403 . S
C939 C940 1.519 1_655 S
C939 C943 1.405 . S
C940 H925 0.960 . S
C940 H926 0.960 . S
C940 H927 0.960 . S
C940 C939 1.519 1_455 S
C941 C938 1.385 1_545 S
C941 C942 1.426 . S
C941 C945 1.480 1_545 S
C942 C941 1.426 . S
C942 C943 1.385 . S
C942 C944 1.478 . S
C943 H937 0.930 . S
C943 C939 1.405 . S
C943 C942 1.385 . S
C944 C942 1.478 . S
C944 C946 1.381 . S
C944 C950 1.383 . S
C945 C941 1.480 1_565 S
C945 H951 0.959 . S
C945 H952 0.961 . S
C945 H953 0.960 . S
C946 C944 1.381 . S
C946 C947 1.394 . S
C946 H954 0.930 . S
C947 C946 1.394 . S
C947 C948 1.383 . S
C947 H955 0.929 . S
C948 C947 1.383 . S
C948 C949 1.377 . S
C949 H933 0.930 . S
C949 C948 1.377 . S
C949 C950 1.379 . S
C950 H934 0.931 . S
C950 C944 1.383 . S
C950 C949 1.379 . S
H951 C945 0.959 . S
H952 C945 0.961 . S
H953 C945 0.960 . S
H954 C946 0.930 . S
H955 C947 0.929 . S
H956 C964 0.929 . S
H957 C966 0.930 . S
H958 C968 0.930 . S
H959 C971 0.929 . S
H960 C974 0.930 . S
H961 C976 0.960 . S
H962 C976 0.960 . S
H963 C976 0.960 . S
C964 H956 0.929 . S
C964 C965 1.377 . S
C964 C966 1.384 . S
C965 C964 1.377 . S
C965 C971 1.390 . S
C966 H957 0.930 . S
C966 C964 1.384 . S
C966 C967 1.372 . S
C967 C966 1.372 . S
C967 C968 1.400 . S
C967 C972 1.490 . S
C968 H958 0.930 . S
C968 C967 1.400 . S
C968 C971 1.386 . S
H969 C985 0.930 . S
H970 C986 0.931 . S
C971 H959 0.929 . S
C971 C965 1.390 . S
C971 C968 1.386 . S
C972 C967 1.490 . S
C972 C974 1.395 . S
C972 C975 1.403 . S
H973 C979 0.930 . S
C974 H960 0.930 . S
C974 C972 1.395 . S
C974 C977 1.403 . S
C975 C972 1.403 . S
C975 C976 1.524 . S
C975 C979 1.400 . S
C976 H961 0.960 . S
C976 H962 0.960 . S
C976 H963 0.960 . S
C976 C975 1.524 . S
C977 C974 1.403 . S
C977 C978 1.392 . S
C977 C981 1.495 . S
C978 C977 1.392 . S
C978 C979 1.385 . S
C978 C980 1.478 . S
C979 H973 0.930 . S
C979 C975 1.400 . S
C979 C978 1.385 . S
C980 C978 1.478 . S
C980 C982 1.381 . S
C980 C986 1.383 . S
C981 C977 1.495 . S
C981 H987 0.959 . S
C981 H988 0.961 . S
C981 H989 0.960 . S
C982 C980 1.381 . S
C982 C983 1.394 . S
C982 H990 0.930 . S
C983 C982 1.394 . S
C983 C984 1.383 . S
C983 H991 0.929 . S
C984 C983 1.383 . S
C984 C985 1.377 . S
C985 H969 0.930 . S
C985 C984 1.377 . S
C985 C986 1.379 . S
C986 H970 0.931 . S
C986 C980 1.383 . S
C986 C985 1.379 . S
H987 C981 0.959 . S
H988 C981 0.961 . S
H989 C981 0.960 . S
H990 C982 0.930 . S
H991 C983 0.929 . S
H992 C1000 0.929 . S
H993 C1002 0.930 . S
H994 C1004 0.930 . S
H995 C1007 0.929 . S
H996 C1010 0.930 . S
H997 C1012 0.960 . S
H998 C1012 0.960 . S
H999 C1012 0.960 . S
C1000 H992 0.929 . S
C1000 C1001 1.377 . S
C1000 C1002 1.384 . S
C1001 C1000 1.377 . S
C1001 C1007 1.390 . S
C1002 H993 0.930 . S
C1002 C1000 1.384 . S
C1002 C1003 1.372 . S
C1003 C1002 1.372 . S
C1003 C1004 1.400 . S
C1003 C1008 1.490 . S
C1004 H994 0.930 . S
C1004 C1003 1.400 . S
C1004 C1007 1.386 . S
H1005 C1021 0.930 . S
H1006 C1022 0.931 . S
C1007 H995 0.929 . S
C1007 C1001 1.390 . S
C1007 C1004 1.386 . S
C1008 C1003 1.490 . S
C1008 C1010 1.395 . S
C1008 C1011 1.403 . S
H1009 C1015 0.930 . S
C1010 H996 0.930 . S
C1010 C1008 1.395 . S
C1010 C1013 1.403 . S
C1011 C1008 1.403 . S
C1011 C1012 1.524 . S
C1011 C1015 1.400 . S
C1012 H997 0.960 . S
C1012 H998 0.960 . S
C1012 H999 0.960 . S
C1012 C1011 1.524 . S
C1013 C1010 1.403 . S
C1013 C1014 1.392 . S
C1013 C1017 1.495 . S
C1014 C1013 1.392 . S
C1014 C1015 1.385 . S
C1014 C1016 1.478 . S
C1015 H1009 0.930 . S
C1015 C1011 1.400 . S
C1015 C1014 1.385 . S
C1016 C1014 1.478 . S
C1016 C1018 1.381 . S
C1016 C1022 1.383 . S
C1017 C1013 1.495 . S
C1017 H1023 0.959 . S
C1017 H1024 0.961 . S
C1017 H1025 0.960 . S
C1018 C1016 1.381 . S
C1018 C1019 1.394 . S
C1018 H1026 0.930 . S
C1019 C1018 1.394 . S
C1019 C1020 1.383 . S
C1019 H1027 0.929 . S
C1020 C1019 1.383 . S
C1020 C1021 1.377 . S
C1021 H1005 0.930 . S
C1021 C1020 1.377 . S
C1021 C1022 1.379 . S
C1022 H1006 0.931 . S
C1022 C1016 1.383 . S
C1022 C1021 1.379 . S
H1023 C1017 0.959 . S
H1024 C1017 0.961 . S
H1025 C1017 0.960 . S
H1026 C1018 0.930 . S
H1027 C1019 0.929 . S
H1028 C1036 0.929 . S
H1029 C1038 0.930 . S
H1030 C1040 0.930 . S
H1031 C1043 0.929 . S
H1032 C1046 0.930 . S
H1033 C1048 0.960 . S
H1034 C1048 0.960 . S
H1035 C1048 0.960 . S
C1036 H1028 0.929 . S
C1036 C1037 1.377 . S
C1036 C1038 1.384 . S
C1037 C1036 1.377 . S
C1037 C1043 1.390 . S
C1038 H1029 0.930 . S
C1038 C1036 1.384 . S
C1038 C1039 1.372 . S
C1039 C1038 1.372 . S
C1039 C1040 1.400 . S
C1039 C1044 1.490 . S
C1040 H1030 0.930 . S
C1040 C1039 1.400 . S
C1040 C1043 1.386 . S
H1041 C1057 0.930 . S
H1042 C1058 0.931 . S
C1043 H1031 0.929 . S
C1043 C1037 1.390 . S
C1043 C1040 1.386 . S
C1044 C1039 1.490 . S
C1044 C1046 1.395 . S
C1044 C1047 1.403 . S
H1045 C1051 0.930 . S
C1046 H1032 0.930 . S
C1046 C1044 1.395 . S
C1046 C1049 1.403 . S
C1047 C1044 1.403 . S
C1047 C1048 1.524 . S
C1047 C1051 1.400 . S
C1048 H1033 0.960 . S
C1048 H1034 0.960 . S
C1048 H1035 0.960 . S
C1048 C1047 1.524 . S
C1049 C1046 1.403 . S
C1049 C1050 1.392 . S
C1049 C1053 1.495 . S
C1050 C1049 1.392 . S
C1050 C1051 1.385 . S
C1050 C1052 1.478 . S
C1051 H1045 0.930 . S
C1051 C1047 1.400 . S
C1051 C1050 1.385 . S
C1052 C1050 1.478 . S
C1052 C1054 1.381 . S
C1052 C1058 1.383 . S
C1053 C1049 1.495 . S
C1053 H1059 0.959 . S
C1053 H1060 0.961 . S
C1053 H1061 0.960 . S
C1054 C1052 1.381 . S
C1054 C1055 1.394 . S
C1054 H1062 0.930 . S
C1055 C1054 1.394 . S
C1055 C1056 1.383 . S
C1055 H1063 0.929 . S
C1056 C1055 1.383 . S
C1056 C1057 1.377 . S
C1057 H1041 0.930 . S
C1057 C1056 1.377 . S
C1057 C1058 1.379 . S
C1058 H1042 0.931 . S
C1058 C1052 1.383 . S
C1058 C1057 1.379 . S
H1059 C1053 0.959 . S
H1060 C1053 0.961 . S
H1061 C1053 0.960 . S
H1062 C1054 0.930 . S
H1063 C1055 0.929 . S
H1064 C1072 0.929 . S
H1065 C1074 0.930 . S
H1066 C1076 0.930 . S
H1067 C1079 0.929 . S
H1068 C1082 0.930 . S
H1069 C1084 0.960 . S
H1070 C1084 0.960 . S
H1071 C1084 0.960 . S
C1072 H1064 0.929 . S
C1072 C1073 1.377 . S
C1072 C1074 1.384 . S
C1073 C1072 1.377 . S
C1073 C1079 1.390 . S
C1074 H1065 0.930 . S
C1074 C1072 1.384 . S
C1074 C1075 1.372 . S
C1075 C1074 1.372 . S
C1075 C1076 1.400 . S
C1075 C1080 1.490 1_655 S
C1076 H1066 0.930 . S
C1076 C1075 1.400 . S
C1076 C1079 1.386 . S
H1077 C1093 0.930 . S
H1078 C1094 0.931 . S
C1079 H1067 0.929 . S
C1079 C1073 1.390 . S
C1079 C1076 1.386 . S
C1080 C1075 1.490 1_455 S
C1080 C1082 1.395 . S
C1080 C1083 1.403 . S
H1081 C1087 0.930 . S
C1082 H1068 0.930 . S
C1082 C1080 1.395 . S
C1082 C1085 1.403 . S
C1083 C1080 1.403 . S
C1083 C1084 1.515 1_455 S
C1083 C1087 1.409 . S
C1084 H1069 0.960 . S
C1084 H1070 0.960 . S
C1084 H1071 0.960 . S
C1084 C1083 1.515 1_655 S
C1085 C1082 1.403 . S
C1085 C1086 1.392 . S
C1085 C1089 1.495 . S
C1086 C1085 1.392 . S
C1086 C1087 1.385 . S
C1086 C1088 1.478 . S
C1087 H1081 0.930 . S
C1087 C1083 1.409 . S
C1087 C1086 1.385 . S
C1088 C1086 1.478 . S
C1088 C1090 1.381 . S
C1088 C1094 1.383 . S
C1089 C1085 1.495 . S
C1089 H1095 0.959 . S
C1089 H1096 0.961 . S
C1089 H1097 0.960 . S
C1090 C1088 1.381 . S
C1090 C1091 1.394 . S
C1090 H1098 0.930 . S
C1091 C1090 1.394 . S
C1091 C1092 1.383 . S
C1091 H1099 0.929 . S
C1092 C1091 1.383 . S
C1092 C1093 1.377 . S
C1093 H1077 0.930 . S
C1093 C1092 1.377 . S
C1093 C1094 1.379 . S
C1094 H1078 0.931 . S
C1094 C1088 1.383 . S
C1094 C1093 1.379 . S
H1095 C1089 0.959 . S
H1096 C1089 0.961 . S
H1097 C1089 0.960 . S
H1098 C1090 0.930 . S
H1099 C1091 0.929 . S
H1100 C1108 0.929 . S
H1101 C1110 0.930 . S
H1102 C1112 0.930 . S
H1103 C1115 0.929 . S
H1104 C1118 0.928 1_554 S
H1105 C1120 0.960 . S
H1106 C1120 0.960 . S
H1107 C1120 0.960 1_554 S
C1108 H1100 0.929 . S
C1108 C1109 1.377 1_556 S
C1108 C1110 1.384 . S
C1109 C1108 1.377 1_554 S
C1109 C1115 1.390 . S
C1110 H1101 0.930 . S
C1110 C1108 1.384 . S
C1110 C1111 1.372 1_556 S
C1111 C1110 1.372 1_554 S
C1111 C1112 1.400 . S
C1111 C1116 1.490 . S
C1112 H1102 0.930 . S
C1112 C1111 1.400 . S
C1112 C1115 1.386 . S
H1113 C1129 0.930 . S
H1114 C1130 0.931 . S
C1115 H1103 0.929 . S
C1115 C1109 1.390 . S
C1115 C1112 1.386 . S
C1116 C1111 1.490 . S
C1116 C1118 1.394 1_554 S
C1116 C1119 1.403 1_554 S
H1117 C1123 0.930 . S
C1118 H1104 0.928 1_556 S
C1118 C1116 1.394 1_556 S
C1118 C1121 1.407 . S
C1119 C1116 1.403 1_556 S
C1119 C1120 1.524 . S
C1119 C1123 1.400 . S
C1120 H1105 0.960 . S
C1120 H1106 0.960 . S
C1120 H1107 0.960 1_556 S
C1120 C1119 1.524 . S
C1121 C1118 1.407 . S
C1121 C1122 1.392 . S
C1121 C1125 1.495 . S
C1122 C1121 1.392 . S
C1122 C1123 1.385 . S
C1122 C1124 1.478 . S
C1123 H1117 0.930 . S
C1123 C1119 1.400 . S
C1123 C1122 1.385 . S
C1124 C1122 1.478 . S
C1124 C1126 1.381 . S
C1124 C1130 1.383 1_556 S
C1125 C1121 1.495 . S
C1125 H1131 0.959 . S
C1125 H1132 0.961 1_556 S
C1125 H1133 0.960 . S
C1126 C1124 1.381 . S
C1126 C1127 1.394 . S
C1126 H1134 0.930 . S
C1127 C1126 1.394 . S
C1127 C1128 1.383 . S
C1127 H1135 0.929 . S
C1128 C1127 1.383 . S
C1128 C1129 1.377 1_556 S
C1129 H1113 0.930 . S
C1129 C1128 1.377 1_554 S
C1129 C1130 1.379 . S
C1130 H1114 0.931 . S
C1130 C1124 1.383 1_554 S
C1130 C1129 1.379 . S
H1131 C1125 0.959 . S
H1132 C1125 0.961 1_554 S
H1133 C1125 0.960 . S
H1134 C1126 0.930 . S
H1135 C1127 0.929 . S
H1136 C1144 0.929 . S
H1137 C1146 0.930 . S
H1138 C1148 0.930 . S
H1139 C1151 0.929 . S
H1140 C1154 0.930 . S
H1141 C1156 0.960 . S
H1142 C1156 0.960 . S
H1143 C1156 0.960 . S
C1144 H1136 0.929 . S
C1144 C1145 1.377 . S
C1144 C1146 1.384 . S
C1145 C1144 1.377 . S
C1145 C1151 1.390 . S
C1146 H1137 0.930 . S
C1146 C1144 1.384 . S
C1146 C1147 1.372 . S
C1147 C1146 1.372 . S
C1147 C1148 1.400 . S
C1147 C1152 1.490 . S
C1148 H1138 0.930 . S
C1148 C1147 1.400 . S
C1148 C1151 1.386 . S
H1149 C1165 0.930 . S
H1150 C1166 0.931 . S
C1151 H1139 0.929 . S
C1151 C1145 1.390 . S
C1151 C1148 1.386 . S
C1152 C1147 1.490 . S
C1152 C1154 1.395 . S
C1152 C1155 1.403 . S
H1153 C1159 0.930 . S
C1154 H1140 0.930 . S
C1154 C1152 1.395 . S
C1154 C1157 1.403 . S
C1155 C1152 1.403 . S
C1155 C1156 1.524 . S
C1155 C1159 1.400 . S
C1156 H1141 0.960 . S
C1156 H1142 0.960 . S
C1156 H1143 0.960 . S
C1156 C1155 1.524 . S
C1157 C1154 1.403 . S
C1157 C1158 1.392 . S
C1157 C1161 1.495 . S
C1158 C1157 1.392 . S
C1158 C1159 1.385 . S
C1158 C1160 1.478 . S
C1159 H1153 0.930 . S
C1159 C1155 1.400 . S
C1159 C1158 1.385 . S
C1160 C1158 1.478 . S
C1160 C1162 1.381 . S
C1160 C1166 1.383 . S
C1161 C1157 1.495 . S
C1161 H1167 0.959 . S
C1161 H1168 0.961 . S
C1161 H1169 0.960 . S
C1162 C1160 1.381 . S
C1162 C1163 1.394 . S
C1162 H1170 0.930 . S
C1163 C1162 1.394 . S
C1163 C1164 1.383 . S
C1163 H1171 0.929 . S
C1164 C1163 1.383 . S
C1164 C1165 1.377 . S
C1165 H1149 0.930 . S
C1165 C1164 1.377 . S
C1165 C1166 1.379 . S
C1166 H1150 0.931 . S
C1166 C1160 1.383 . S
C1166 C1165 1.379 . S
H1167 C1161 0.959 . S
H1168 C1161 0.961 . S
H1169 C1161 0.960 . S
H1170 C1162 0.930 . S
H1171 C1163 0.929 . S
H1172 C1180 0.929 . S
H1173 C1182 0.930 . S
H1174 C1184 0.930 . S
H1175 C1187 0.929 . S
H1176 C1190 0.930 . S
H1177 C1192 0.960 . S
H1178 C1192 0.960 . S
H1179 C1192 0.960 . S
C1180 H1172 0.929 . S
C1180 C1181 1.377 . S
C1180 C1182 1.384 . S
C1181 C1180 1.377 . S
C1181 C1187 1.390 . S
C1182 H1173 0.930 . S
C1182 C1180 1.384 . S
C1182 C1183 1.372 . S
C1183 C1182 1.372 . S
C1183 C1184 1.400 . S
C1183 C1188 1.490 . S
C1184 H1174 0.930 . S
C1184 C1183 1.400 . S
C1184 C1187 1.386 . S
H1185 C1201 0.930 . S
H1186 C1202 0.931 . S
C1187 H1175 0.929 . S
C1187 C1181 1.390 . S
C1187 C1184 1.386 . S
C1188 C1183 1.490 . S
C1188 C1190 1.395 . S
C1188 C1191 1.403 . S
H1189 C1195 0.930 . S
C1190 H1176 0.930 . S
C1190 C1188 1.395 . S
C1190 C1193 1.403 . S
C1191 C1188 1.403 . S
C1191 C1192 1.524 . S
C1191 C1195 1.400 . S
C1192 H1177 0.960 . S
C1192 H1178 0.960 . S
C1192 H1179 0.960 . S
C1192 C1191 1.524 . S
C1193 C1190 1.403 . S
C1193 C1194 1.392 . S
C1193 C1197 1.495 . S
C1194 C1193 1.392 . S
C1194 C1195 1.385 . S
C1194 C1196 1.478 . S
C1195 H1189 0.930 . S
C1195 C1191 1.400 . S
C1195 C1194 1.385 . S
C1196 C1194 1.478 . S
C1196 C1198 1.381 . S
C1196 C1202 1.383 . S
C1197 C1193 1.495 . S
C1197 H1203 0.959 . S
C1197 H1204 0.961 . S
C1197 H1205 0.960 . S
C1198 C1196 1.381 . S
C1198 C1199 1.394 . S
C1198 H1206 0.930 . S
C1199 C1198 1.394 . S
C1199 C1200 1.383 . S
C1199 H1207 0.929 . S
C1200 C1199 1.383 . S
C1200 C1201 1.377 . S
C1201 H1185 0.930 . S
C1201 C1200 1.377 . S
C1201 C1202 1.379 . S
C1202 H1186 0.931 . S
C1202 C1196 1.383 . S
C1202 C1201 1.379 . S
H1203 C1197 0.959 . S
H1204 C1197 0.961 . S
H1205 C1197 0.960 . S
H1206 C1198 0.930 . S
H1207 C1199 0.929 . S
H1208 C1216 0.929 . S
H1209 C1218 0.930 . S
H1210 C1220 0.930 . S
H1211 C1223 0.929 . S
H1212 C1226 0.930 . S
H1213 C1228 0.960 . S
H1214 C1228 0.960 . S
H1215 C1228 0.960 . S
C1216 H1208 0.929 . S
C1216 C1217 1.377 . S
C1216 C1218 1.384 . S
C1217 C1216 1.377 . S
C1217 C1223 1.390 . S
C1218 H1209 0.930 . S
C1218 C1216 1.384 . S
C1218 C1219 1.372 . S
C1219 C1218 1.372 . S
C1219 C1220 1.400 . S
C1219 C1224 1.490 . S
C1220 H1210 0.930 . S
C1220 C1219 1.400 . S
C1220 C1223 1.386 . S
H1221 C1237 0.930 . S
H1222 C1238 0.931 . S
C1223 H1211 0.929 . S
C1223 C1217 1.390 . S
C1223 C1220 1.386 . S
C1224 C1219 1.490 . S
C1224 C1226 1.395 . S
C1224 C1227 1.403 . S
H1225 C1231 0.930 . S
C1226 H1212 0.930 . S
C1226 C1224 1.395 . S
C1226 C1229 1.403 . S
C1227 C1224 1.403 . S
C1227 C1228 1.524 . S
C1227 C1231 1.400 . S
C1228 H1213 0.960 . S
C1228 H1214 0.960 . S
C1228 H1215 0.960 . S
C1228 C1227 1.524 . S
C1229 C1226 1.403 . S
C1229 C1230 1.392 . S
C1229 C1233 1.495 . S
C1230 C1229 1.392 . S
C1230 C1231 1.385 . S
C1230 C1232 1.478 . S
C1231 H1225 0.930 . S
C1231 C1227 1.400 . S
C1231 C1230 1.385 . S
C1232 C1230 1.478 . S
C1232 C1234 1.381 . S
C1232 C1238 1.383 . S
C1233 C1229 1.495 . S
C1233 H1239 0.959 . S
C1233 H1240 0.961 . S
C1233 H1241 0.960 . S
C1234 C1232 1.381 . S
C1234 C1235 1.394 . S
C1234 H1242 0.930 . S
C1235 C1234 1.394 . S
C1235 C1236 1.383 . S
C1235 H1243 0.929 . S
C1236 C1235 1.383 . S
C1236 C1237 1.377 . S
C1237 H1221 0.930 . S
C1237 C1236 1.377 . S
C1237 C1238 1.379 . S
C1238 H1222 0.931 . S
C1238 C1232 1.383 . S
C1238 C1237 1.379 . S
H1239 C1233 0.959 . S
H1240 C1233 0.961 . S
H1241 C1233 0.960 . S
H1242 C1234 0.930 . S
H1243 C1235 0.929 . S
H1244 C1252 0.929 . S
H1245 C1254 0.932 . S
H1246 C1256 0.930 . S
H1247 C1259 0.929 . S
H1248 C1262 0.930 . S
H1249 C1264 0.960 . S
H1250 C1264 0.960 . S
H1251 C1264 0.960 . S
C1252 H1244 0.929 . S
C1252 C1253 1.377 . S
C1252 C1254 1.397 . S
C1253 C1252 1.377 . S
C1253 C1259 1.390 1_655 S
C1254 H1245 0.932 . S
C1254 C1252 1.397 . S
C1254 C1255 1.358 1_655 S
C1255 C1254 1.358 1_455 S
C1255 C1256 1.400 . S
C1255 C1260 1.490 . S
C1256 H1246 0.930 . S
C1256 C1255 1.400 . S
C1256 C1259 1.386 . S
H1257 C1273 0.930 . S
H1258 C1274 0.931 . S
C1259 H1247 0.929 . S
C1259 C1253 1.390 1_455 S
C1259 C1256 1.386 . S
C1260 C1255 1.490 . S
C1260 C1262 1.395 . S
C1260 C1263 1.403 . S
H1261 C1267 0.930 . S
C1262 H1248 0.930 . S
C1262 C1260 1.395 . S
C1262 C1265 1.403 . S
C1263 C1260 1.403 . S
C1263 C1264 1.524 . S
C1263 C1267 1.400 . S
C1264 H1249 0.960 . S
C1264 H1250 0.960 . S
C1264 H1251 0.960 . S
C1264 C1263 1.524 . S
C1265 C1262 1.403 . S
C1265 C1266 1.392 . S
C1265 C1269 1.495 . S
C1266 C1265 1.392 . S
C1266 C1267 1.385 . S
C1266 C1268 1.478 . S
C1267 H1261 0.930 . S
C1267 C1263 1.400 . S
C1267 C1266 1.385 . S
C1268 C1266 1.478 . S
C1268 C1270 1.381 . S
C1268 C1274 1.383 . S
C1269 C1265 1.495 . S
C1269 H1275 0.959 . S
C1269 H1276 0.961 . S
C1269 H1277 0.960 . S
C1270 C1268 1.381 . S
C1270 C1271 1.394 . S
C1270 H1278 0.930 . S
C1271 C1270 1.394 . S
C1271 C1272 1.383 . S
C1271 H1279 0.929 . S
C1272 C1271 1.383 . S
C1272 C1273 1.377 . S
C1273 H1257 0.930 . S
C1273 C1272 1.377 . S
C1273 C1274 1.379 . S
C1274 H1258 0.931 . S
C1274 C1268 1.383 . S
C1274 C1273 1.379 . S
H1275 C1269 0.959 . S
H1276 C1269 0.961 . S
H1277 C1269 0.960 . S
H1278 C1270 0.930 . S
H1279 C1271 0.929 . S
H1280 C1288 0.929 . S
H1281 C1290 0.930 . S
H1282 C1292 0.930 . S
H1283 C1295 0.929 . S
H1284 C1298 0.930 . S
H1285 C1300 0.960 . S
H1286 C1300 0.960 . S
H1287 C1300 0.960 . S
C1288 H1280 0.929 . S
C1288 C1289 1.377 . S
C1288 C1290 1.384 . S
C1289 C1288 1.377 . S
C1289 C1295 1.390 . S
C1290 H1281 0.930 . S
C1290 C1288 1.384 . S
C1290 C1291 1.372 . S
C1291 C1290 1.372 . S
C1291 C1292 1.400 . S
C1291 C1296 1.490 . S
C1292 H1282 0.930 . S
C1292 C1291 1.400 . S
C1292 C1295 1.386 . S
H1293 C1309 0.930 . S
H1294 C1310 0.931 . S
C1295 H1283 0.929 . S
C1295 C1289 1.390 . S
C1295 C1292 1.386 . S
C1296 C1291 1.490 . S
C1296 C1298 1.395 . S
C1296 C1299 1.403 . S
H1297 C1303 0.930 . S
C1298 H1284 0.930 . S
C1298 C1296 1.395 . S
C1298 C1301 1.403 . S
C1299 C1296 1.403 . S
C1299 C1300 1.524 . S
C1299 C1303 1.400 . S
C1300 H1285 0.960 . S
C1300 H1286 0.960 . S
C1300 H1287 0.960 . S
C1300 C1299 1.524 . S
C1301 C1298 1.403 . S
C1301 C1302 1.392 . S
C1301 C1305 1.495 . S
C1302 C1301 1.392 . S
C1302 C1303 1.385 . S
C1302 C1304 1.478 . S
C1303 H1297 0.930 . S
C1303 C1299 1.400 . S
C1303 C1302 1.385 . S
C1304 C1302 1.478 . S
C1304 C1306 1.381 . S
C1304 C1310 1.383 . S
C1305 C1301 1.495 . S
C1305 H1311 0.959 . S
C1305 H1312 0.961 . S
C1305 H1313 0.960 . S
C1306 C1304 1.381 . S
C1306 C1307 1.394 . S
C1306 H1314 0.930 . S
C1307 C1306 1.394 . S
C1307 C1308 1.383 . S
C1307 H1315 0.929 . S
C1308 C1307 1.383 . S
C1308 C1309 1.377 . S
C1309 H1293 0.930 . S
C1309 C1308 1.377 . S
C1309 C1310 1.379 . S
C1310 H1294 0.931 . S
C1310 C1304 1.383 . S
C1310 C1309 1.379 . S
H1311 C1305 0.959 . S
H1312 C1305 0.961 . S
H1313 C1305 0.960 . S
H1314 C1306 0.930 . S
H1315 C1307 0.929 . S
H1316 C1324 0.929 . S
H1317 C1326 0.930 . S
H1318 C1328 0.930 . S
H1319 C1331 0.929 . S
H1320 C1334 0.930 . S
H1321 C1336 0.960 . S
H1322 C1336 0.960 . S
H1323 C1336 0.960 . S
C1324 H1316 0.929 . S
C1324 C1325 1.377 . S
C1324 C1326 1.384 . S
C1325 C1324 1.377 . S
C1325 C1331 1.390 . S
C1326 H1317 0.930 . S
C1326 C1324 1.384 . S
C1326 C1327 1.372 . S
C1327 C1326 1.372 . S
C1327 C1328 1.400 . S
C1327 C1332 1.490 . S
C1328 H1318 0.930 . S
C1328 C1327 1.400 . S
C1328 C1331 1.386 . S
H1329 C1345 0.930 . S
H1330 C1346 0.931 . S
C1331 H1319 0.929 . S
C1331 C1325 1.390 . S
C1331 C1328 1.386 . S
C1332 C1327 1.490 . S
C1332 C1334 1.395 . S
C1332 C1335 1.403 . S
H1333 C1339 0.930 . S
C1334 H1320 0.930 . S
C1334 C1332 1.395 . S
C1334 C1337 1.403 . S
C1335 C1332 1.403 . S
C1335 C1336 1.524 . S
C1335 C1339 1.400 . S
C1336 H1321 0.960 . S
C1336 H1322 0.960 . S
C1336 H1323 0.960 . S
C1336 C1335 1.524 . S
C1337 C1334 1.403 . S
C1337 C1338 1.392 . S
C1337 C1341 1.495 . S
C1338 C1337 1.392 . S
C1338 C1339 1.385 . S
C1338 C1340 1.478 . S
C1339 H1333 0.930 . S
C1339 C1335 1.400 . S
C1339 C1338 1.385 . S
C1340 C1338 1.478 . S
C1340 C1342 1.381 . S
C1340 C1346 1.383 . S
C1341 C1337 1.495 . S
C1341 H1347 0.959 . S
C1341 H1348 0.961 . S
C1341 H1349 0.960 . S
C1342 C1340 1.381 . S
C1342 C1343 1.394 . S
C1342 H1350 0.930 . S
C1343 C1342 1.394 . S
C1343 C1344 1.383 . S
C1343 H1351 0.929 . S
C1344 C1343 1.383 . S
C1344 C1345 1.377 . S
C1345 H1329 0.930 . S
C1345 C1344 1.377 . S
C1345 C1346 1.379 . S
C1346 H1330 0.931 . S
C1346 C1340 1.383 . S
C1346 C1345 1.379 . S
H1347 C1341 0.959 . S
H1348 C1341 0.961 . S
H1349 C1341 0.960 . S
H1350 C1342 0.930 . S
H1351 C1343 0.929 . S
H1352 C1360 0.929 . S
H1353 C1362 0.930 . S
H1354 C1364 0.930 . S
H1355 C1367 0.929 . S
H1356 C1370 0.930 . S
H1357 C1372 0.960 . S
H1358 C1372 0.960 . S
H1359 C1372 0.960 . S
C1360 H1352 0.929 . S
C1360 C1361 1.377 . S
C1360 C1362 1.384 . S
C1361 C1360 1.377 . S
C1361 C1367 1.390 . S
C1362 H1353 0.930 . S
C1362 C1360 1.384 . S
C1362 C1363 1.372 . S
C1363 C1362 1.372 . S
C1363 C1364 1.400 . S
C1363 C1368 1.490 . S
C1364 H1354 0.930 . S
C1364 C1363 1.400 . S
C1364 C1367 1.386 . S
H1365 C1381 0.930 . S
H1366 C1382 0.931 . S
C1367 H1355 0.929 . S
C1367 C1361 1.390 . S
C1367 C1364 1.386 . S
C1368 C1363 1.490 . S
C1368 C1370 1.395 . S
C1368 C1371 1.403 . S
H1369 C1375 0.930 . S
C1370 H1356 0.930 . S
C1370 C1368 1.395 . S
C1370 C1373 1.403 . S
C1371 C1368 1.403 . S
C1371 C1372 1.524 . S
C1371 C1375 1.400 . S
C1372 H1357 0.960 . S
C1372 H1358 0.960 . S
C1372 H1359 0.960 . S
C1372 C1371 1.524 . S
C1373 C1370 1.403 . S
C1373 C1374 1.392 . S
C1373 C1377 1.495 . S
C1374 C1373 1.392 . S
C1374 C1375 1.385 . S
C1374 C1376 1.478 . S
C1375 H1369 0.930 . S
C1375 C1371 1.400 . S
C1375 C1374 1.385 . S
C1376 C1374 1.478 . S
C1376 C1378 1.381 . S
C1376 C1382 1.383 . S
C1377 C1373 1.495 . S
C1377 H1383 0.959 . S
C1377 H1384 0.961 . S
C1377 H1385 0.960 . S
C1378 C1376 1.381 . S
C1378 C1379 1.394 . S
C1378 H1386 0.930 . S
C1379 C1378 1.394 . S
C1379 C1380 1.383 . S
C1379 H1387 0.929 . S
C1380 C1379 1.383 . S
C1380 C1381 1.377 . S
C1381 H1365 0.930 . S
C1381 C1380 1.377 . S
C1381 C1382 1.379 . S
C1382 H1366 0.931 . S
C1382 C1376 1.383 . S
C1382 C1381 1.379 . S
H1383 C1377 0.959 . S
H1384 C1377 0.961 . S
H1385 C1377 0.960 . S
H1386 C1378 0.930 . S
H1387 C1379 0.929 . S
H1388 C1396 0.929 . S
H1389 C1398 0.930 . S
H1390 C1400 0.930 . S
H1391 C1403 0.929 . S
H1392 C1406 0.930 . S
H1393 C1408 0.960 . S
H1394 C1408 0.960 . S
H1395 C1408 0.960 . S
C1396 H1388 0.929 . S
C1396 C1397 1.377 . S
C1396 C1398 1.384 . S
C1397 C1396 1.377 . S
C1397 C1403 1.390 . S
C1398 H1389 0.930 . S
C1398 C1396 1.384 . S
C1398 C1399 1.372 . S
C1399 C1398 1.372 . S
C1399 C1400 1.400 . S
C1399 C1404 1.490 . S
C1400 H1390 0.930 . S
C1400 C1399 1.400 . S
C1400 C1403 1.386 . S
H1401 C1417 0.930 . S
H1402 C1418 0.931 . S
C1403 H1391 0.929 . S
C1403 C1397 1.390 . S
C1403 C1400 1.386 . S
C1404 C1399 1.490 . S
C1404 C1406 1.395 . S
C1404 C1407 1.403 . S
H1405 C1411 0.930 . S
C1406 H1392 0.930 . S
C1406 C1404 1.395 . S
C1406 C1409 1.403 . S
C1407 C1404 1.403 . S
C1407 C1408 1.524 . S
C1407 C1411 1.400 . S
C1408 H1393 0.960 . S
C1408 H1394 0.960 . S
C1408 H1395 0.960 . S
C1408 C1407 1.524 . S
C1409 C1406 1.403 . S
C1409 C1410 1.392 . S
C1409 C1413 1.495 . S
C1410 C1409 1.392 . S
C1410 C1411 1.385 . S
C1410 C1412 1.478 . S
C1411 H1405 0.930 . S
C1411 C1407 1.400 . S
C1411 C1410 1.385 . S
C1412 C1410 1.478 . S
C1412 C1414 1.381 . S
C1412 C1418 1.383 . S
C1413 C1409 1.495 . S
C1413 H1419 0.959 . S
C1413 H1420 0.961 . S
C1413 H1421 0.960 . S
C1414 C1412 1.381 . S
C1414 C1415 1.394 . S
C1414 H1422 0.930 . S
C1415 C1414 1.394 . S
C1415 C1416 1.383 . S
C1415 H1423 0.929 . S
C1416 C1415 1.383 . S
C1416 C1417 1.377 . S
C1417 H1401 0.930 . S
C1417 C1416 1.377 . S
C1417 C1418 1.379 . S
C1418 H1402 0.931 . S
C1418 C1412 1.383 . S
C1418 C1417 1.379 . S
H1419 C1413 0.959 . S
H1420 C1413 0.961 . S
H1421 C1413 0.960 . S
H1422 C1414 0.930 . S
H1423 C1415 0.929 . S
H1424 C1432 0.929 . S
H1425 C1434 0.930 . S
H1426 C1436 0.930 . S
H1427 C1439 0.929 . S
H1428 C1442 0.930 . S
H1429 C1444 0.960 . S
H1430 C1444 0.960 . S
H1431 C1444 0.960 . S
C1432 H1424 0.929 . S
C1432 C1433 1.377 . S
C1432 C1434 1.384 . S
C1433 C1432 1.377 . S
C1433 C1439 1.390 . S
C1434 H1425 0.930 . S
C1434 C1432 1.384 . S
C1434 C1435 1.372 . S
C1435 C1434 1.372 . S
C1435 C1436 1.400 . S
C1435 C1440 1.490 . S
C1436 H1426 0.930 . S
C1436 C1435 1.400 . S
C1436 C1439 1.386 . S
H1437 C1453 0.930 . S
H1438 C1454 0.931 . S
C1439 H1427 0.929 . S
C1439 C1433 1.390 . S
C1439 C1436 1.386 . S
C1440 C1435 1.490 . S
C1440 C1442 1.395 . S
C1440 C1443 1.403 . S
H1441 C1447 0.930 . S
C1442 H1428 0.930 . S
C1442 C1440 1.395 . S
C1442 C1445 1.403 . S
C1443 C1440 1.403 . S
C1443 C1444 1.524 . S
C1443 C1447 1.400 . S
C1444 H1429 0.960 . S
C1444 H1430 0.960 . S
C1444 H1431 0.960 . S
C1444 C1443 1.524 . S
C1445 C1442 1.403 . S
C1445 C1446 1.392 . S
C1445 C1449 1.495 . S
C1446 C1445 1.392 . S
C1446 C1447 1.385 . S
C1446 C1448 1.478 . S
C1447 H1441 0.930 . S
C1447 C1443 1.400 . S
C1447 C1446 1.385 . S
C1448 C1446 1.478 . S
C1448 C1450 1.381 . S
C1448 C1454 1.383 . S
C1449 C1445 1.495 . S
C1449 H1455 0.959 . S
C1449 H1456 0.961 . S
C1449 H1457 0.960 . S
C1450 C1448 1.381 . S
C1450 C1451 1.394 . S
C1450 H1458 0.930 . S
C1451 C1450 1.394 . S
C1451 C1452 1.383 . S
C1451 H1459 0.929 . S
C1452 C1451 1.383 . S
C1452 C1453 1.377 . S
C1453 H1437 0.930 . S
C1453 C1452 1.377 . S
C1453 C1454 1.379 . S
C1454 H1438 0.931 . S
C1454 C1448 1.383 . S
C1454 C1453 1.379 . S
H1455 C1449 0.959 . S
H1456 C1449 0.961 . S
H1457 C1449 0.960 . S
H1458 C1450 0.930 . S
H1459 C1451 0.929 . S
H1460 C1468 0.929 . S
H1461 C1470 0.930 . S
H1462 C1472 0.930 . S
H1463 C1475 0.929 . S
H1464 C1478 0.930 . S
H1465 C1480 0.960 . S
H1466 C1480 0.960 . S
H1467 C1480 0.960 . S
C1468 H1460 0.929 . S
C1468 C1469 1.377 . S
C1468 C1470 1.384 . S
C1469 C1468 1.377 . S
C1469 C1475 1.390 . S
C1470 H1461 0.930 . S
C1470 C1468 1.384 . S
C1470 C1471 1.372 . S
C1471 C1470 1.372 . S
C1471 C1472 1.400 . S
C1471 C1476 1.490 . S
C1472 H1462 0.930 . S
C1472 C1471 1.400 . S
C1472 C1475 1.386 . S
H1473 C1489 0.930 . S
H1474 C1490 0.931 . S
C1475 H1463 0.929 . S
C1475 C1469 1.390 . S
C1475 C1472 1.386 . S
C1476 C1471 1.490 . S
C1476 C1478 1.395 . S
C1476 C1479 1.403 . S
H1477 C1483 0.930 . S
C1478 H1464 0.930 . S
C1478 C1476 1.395 . S
C1478 C1481 1.403 . S
C1479 C1476 1.403 . S
C1479 C1480 1.524 . S
C1479 C1483 1.400 . S
C1480 H1465 0.960 . S
C1480 H1466 0.960 . S
C1480 H1467 0.960 . S
C1480 C1479 1.524 . S
C1481 C1478 1.403 . S
C1481 C1482 1.392 . S
C1481 C1485 1.495 . S
C1482 C1481 1.392 . S
C1482 C1483 1.385 . S
C1482 C1484 1.478 . S
C1483 H1477 0.930 . S
C1483 C1479 1.400 . S
C1483 C1482 1.385 . S
C1484 C1482 1.478 . S
C1484 C1486 1.381 1_655 S
C1484 C1490 1.383 . S
C1485 C1481 1.495 . S
C1485 H1491 0.959 . S
C1485 H1492 0.961 . S
C1485 H1493 0.960 . S
C1486 C1484 1.381 1_455 S
C1486 C1487 1.394 . S
C1486 H1494 0.930 . S
C1487 C1486 1.394 . S
C1487 C1488 1.383 . S
C1487 H1495 0.929 . S
C1488 C1487 1.383 . S
C1488 C1489 1.377 1_455 S
C1489 H1473 0.930 . S
C1489 C1488 1.377 1_655 S
C1489 C1490 1.379 . S
C1490 H1474 0.931 . S
C1490 C1484 1.383 . S
C1490 C1489 1.379 . S
H1491 C1485 0.959 . S
H1492 C1485 0.961 . S
H1493 C1485 0.960 . S
H1494 C1486 0.930 . S
H1495 C1487 0.929 . S
H1496 C1504 0.929 . S
H1497 C1506 0.930 . S
H1498 C1508 0.930 . S
H1499 C1511 0.929 . S
H1500 C1514 0.930 . S
H1501 C1516 0.960 . S
H1502 C1516 0.960 . S
H1503 C1516 0.960 . S
C1504 H1496 0.929 . S
C1504 C1505 1.377 . S
C1504 C1506 1.384 . S
C1505 C1504 1.377 . S
C1505 C1511 1.390 . S
C1506 H1497 0.930 . S
C1506 C1504 1.384 . S
C1506 C1507 1.372 . S
C1507 C1506 1.372 . S
C1507 C1508 1.400 . S
C1507 C1512 1.490 . S
C1508 H1498 0.930 . S
C1508 C1507 1.400 . S
C1508 C1511 1.386 . S
H1509 C1525 0.930 . S
H1510 C1526 0.931 . S
C1511 H1499 0.929 . S
C1511 C1505 1.390 . S
C1511 C1508 1.386 . S
C1512 C1507 1.490 . S
C1512 C1514 1.395 . S
C1512 C1515 1.403 . S
H1513 C1519 0.930 . S
C1514 H1500 0.930 . S
C1514 C1512 1.395 . S
C1514 C1517 1.403 . S
C1515 C1512 1.403 . S
C1515 C1516 1.524 . S
C1515 C1519 1.400 . S
C1516 H1501 0.960 . S
C1516 H1502 0.960 . S
C1516 H1503 0.960 . S
C1516 C1515 1.524 . S
C1517 C1514 1.403 . S
C1517 C1518 1.392 . S
C1517 C1521 1.495 . S
C1518 C1517 1.392 . S
C1518 C1519 1.385 . S
C1518 C1520 1.478 . S
C1519 H1513 0.930 . S
C1519 C1515 1.400 . S
C1519 C1518 1.385 . S
C1520 C1518 1.478 . S
C1520 C1522 1.381 . S
C1520 C1526 1.383 . S
C1521 C1517 1.495 . S
C1521 H1527 0.959 . S
C1521 H1528 0.961 . S
C1521 H1529 0.960 . S
C1522 C1520 1.381 . S
C1522 C1523 1.394 . S
C1522 H1530 0.930 . S
C1523 C1522 1.394 . S
C1523 C1524 1.383 . S
C1523 H1531 0.929 . S
C1524 C1523 1.383 . S
C1524 C1525 1.377 . S
C1525 H1509 0.930 . S
C1525 C1524 1.377 . S
C1525 C1526 1.379 . S
C1526 H1510 0.931 . S
C1526 C1520 1.383 . S
C1526 C1525 1.379 . S
H1527 C1521 0.959 . S
H1528 C1521 0.961 . S
H1529 C1521 0.960 . S
H1530 C1522 0.930 . S
H1531 C1523 0.929 . S
H1532 C1540 0.929 . S
H1533 C1542 0.930 1_565 S
H1534 C1544 0.930 . S
H1535 C1547 0.929 . S
H1536 C1550 0.930 . S
H1537 C1552 0.960 . S
H1538 C1552 0.960 . S
H1539 C1552 0.960 . S
C1540 H1532 0.929 . S
C1540 C1541 1.377 1_565 S
C1540 C1542 1.384 1_565 S
C1541 C1540 1.377 1_545 S
C1541 C1547 1.390 . S
C1542 H1533 0.930 1_545 S
C1542 C1540 1.384 1_545 S
C1542 C1543 1.372 . S
C1543 C1542 1.372 . S
C1543 C1544 1.400 . S
C1543 C1548 1.490 . S
C1544 H1534 0.930 . S
C1544 C1543 1.400 . S
C1544 C1547 1.386 . S
H1545 C1561 0.930 . S
H1546 C1562 0.931 . S
C1547 H1535 0.929 . S
C1547 C1541 1.390 . S
C1547 C1544 1.386 . S
C1548 C1543 1.490 . S
C1548 C1550 1.395 . S
C1548 C1551 1.403 . S
H1549 C1555 0.930 . S
C1550 H1536 0.930 . S
C1550 C1548 1.395 . S
C1550 C1553 1.403 . S
C1551 C1548 1.403 . S
C1551 C1552 1.524 . S
C1551 C1555 1.400 . S
C1552 H1537 0.960 . S
C1552 H1538 0.960 . S
C1552 H1539 0.960 . S
C1552 C1551 1.524 . S
C1553 C1550 1.403 . S
C1553 C1554 1.392 . S
C1553 C1557 1.495 . S
C1554 C1553 1.392 . S
C1554 C1555 1.385 . S
C1554 C1556 1.478 . S
C1555 H1549 0.930 . S
C1555 C1551 1.400 . S
C1555 C1554 1.385 . S
C1556 C1554 1.478 . S
C1556 C1558 1.381 . S
C1556 C1562 1.383 . S
C1557 C1553 1.495 . S
C1557 H1563 0.959 . S
C1557 H1564 0.961 . S
C1557 H1565 0.960 . S
C1558 C1556 1.381 . S
C1558 C1559 1.394 . S
C1558 H1566 0.930 . S
C1559 C1558 1.394 . S
C1559 C1560 1.383 . S
C1559 H1567 0.929 . S
C1560 C1559 1.383 . S
C1560 C1561 1.377 . S
C1561 H1545 0.930 . S
C1561 C1560 1.377 . S
C1561 C1562 1.379 . S
C1562 H1546 0.931 . S
C1562 C1556 1.383 . S
C1562 C1561 1.379 . S
H1563 C1557 0.959 . S
H1564 C1557 0.961 . S
H1565 C1557 0.960 . S
H1566 C1558 0.930 . S
H1567 C1559 0.929 . S
H1568 C1576 0.929 . S
H1569 C1578 0.930 . S
H1570 C1580 0.930 . S
H1571 C1583 0.929 . S
H1572 C1586 0.930 . S
H1573 C1588 0.960 . S
H1574 C1588 0.960 . S
H1575 C1588 0.960 . S
C1576 H1568 0.929 . S
C1576 C1577 1.377 . S
C1576 C1578 1.384 . S
C1577 C1576 1.377 . S
C1577 C1583 1.390 . S
C1578 H1569 0.930 . S
C1578 C1576 1.384 . S
C1578 C1579 1.372 . S
C1579 C1578 1.372 . S
C1579 C1580 1.400 . S
C1579 C1584 1.490 . S
C1580 H1570 0.930 . S
C1580 C1579 1.400 . S
C1580 C1583 1.386 . S
H1581 C1597 0.930 . S
H1582 C1598 0.931 . S
C1583 H1571 0.929 . S
C1583 C1577 1.390 . S
C1583 C1580 1.386 . S
C1584 C1579 1.490 . S
C1584 C1586 1.395 . S
C1584 C1587 1.403 . S
H1585 C1591 0.930 . S
C1586 H1572 0.930 . S
C1586 C1584 1.395 . S
C1586 C1589 1.403 . S
C1587 C1584 1.403 . S
C1587 C1588 1.524 . S
C1587 C1591 1.400 . S
C1588 H1573 0.960 . S
C1588 H1574 0.960 . S
C1588 H1575 0.960 . S
C1588 C1587 1.524 . S
C1589 C1586 1.403 . S
C1589 C1590 1.392 . S
C1589 C1593 1.495 . S
C1590 C1589 1.392 . S
C1590 C1591 1.385 . S
C1590 C1592 1.478 . S
C1591 H1585 0.930 . S
C1591 C1587 1.400 . S
C1591 C1590 1.385 . S
C1592 C1590 1.478 . S
C1592 C1594 1.381 . S
C1592 C1598 1.383 . S
C1593 C1589 1.495 . S
C1593 H1599 0.959 . S
C1593 H1600 0.961 . S
C1593 H1601 0.960 . S
C1594 C1592 1.381 . S
C1594 C1595 1.394 . S
C1594 H1602 0.930 . S
C1595 C1594 1.394 . S
C1595 C1596 1.383 . S
C1595 H1603 0.929 . S
C1596 C1595 1.383 . S
C1596 C1597 1.377 . S
C1597 H1581 0.930 . S
C1597 C1596 1.377 . S
C1597 C1598 1.379 . S
C1598 H1582 0.931 . S
C1598 C1592 1.383 . S
C1598 C1597 1.379 . S
H1599 C1593 0.959 . S
H1600 C1593 0.961 . S
H1601 C1593 0.960 . S
H1602 C1594 0.930 . S
H1603 C1595 0.929 . S
H1604 C1612 0.929 1_565 S
H1605 C1614 0.930 . S
H1606 C1616 0.930 . S
H1607 C1619 0.929 . S
H1608 C1622 0.930 . S
H1609 C1624 0.960 . S
H1610 C1624 0.960 . S
H1611 C1624 0.960 . S
C1612 H1604 0.929 1_545 S
C1612 C1613 1.377 . S
C1612 C1614 1.384 . S
C1613 C1612 1.377 . S
C1613 C1619 1.390 . S
C1614 H1605 0.930 . S
C1614 C1612 1.384 . S
C1614 C1615 1.372 . S
C1615 C1614 1.372 . S
C1615 C1616 1.400 . S
C1615 C1620 1.490 . S
C1616 H1606 0.930 . S
C1616 C1615 1.400 . S
C1616 C1619 1.386 . S
H1617 C1633 0.930 . S
H1618 C1634 0.931 . S
C1619 H1607 0.929 . S
C1619 C1613 1.390 . S
C1619 C1616 1.386 . S
C1620 C1615 1.490 . S
C1620 C1622 1.395 . S
C1620 C1623 1.403 . S
H1621 C1627 0.930 . S
C1622 H1608 0.930 . S
C1622 C1620 1.395 . S
C1622 C1625 1.403 . S
C1623 C1620 1.403 . S
C1623 C1624 1.524 . S
C1623 C1627 1.400 . S
C1624 H1609 0.960 . S
C1624 H1610 0.960 . S
C1624 H1611 0.960 . S
C1624 C1623 1.524 . S
C1625 C1622 1.403 . S
C1625 C1626 1.392 . S
C1625 C1629 1.495 . S
C1626 C1625 1.392 . S
C1626 C1627 1.385 . S
C1626 C1628 1.478 . S
C1627 H1621 0.930 . S
C1627 C1623 1.400 . S
C1627 C1626 1.385 . S
C1628 C1626 1.478 . S
C1628 C1630 1.381 . S
C1628 C1634 1.383 . S
C1629 C1625 1.495 . S
C1629 H1635 0.959 . S
C1629 H1636 0.961 . S
C1629 H1637 0.960 . S
C1630 C1628 1.381 . S
C1630 C1631 1.394 . S
C1630 H1638 0.930 . S
C1631 C1630 1.394 . S
C1631 C1632 1.383 . S
C1631 H1639 0.929 . S
C1632 C1631 1.383 . S
C1632 C1633 1.377 . S
C1633 H1617 0.930 . S
C1633 C1632 1.377 . S
C1633 C1634 1.379 . S
C1634 H1618 0.931 . S
C1634 C1628 1.383 . S
C1634 C1633 1.379 . S
H1635 C1629 0.959 . S
H1636 C1629 0.961 . S
H1637 C1629 0.960 . S
H1638 C1630 0.930 . S
H1639 C1631 0.929 . S
H1640 C1648 0.929 . S
H1641 C1650 0.930 . S
H1642 C1652 0.930 . S
H1643 C1655 0.929 . S
H1644 C1658 0.930 . S
H1645 C1660 0.960 . S
H1646 C1660 0.960 . S
H1647 C1660 0.960 . S
C1648 H1640 0.929 . S
C1648 C1649 1.377 . S
C1648 C1650 1.384 . S
C1649 C1648 1.377 . S
C1649 C1655 1.390 . S
C1650 H1641 0.930 . S
C1650 C1648 1.384 . S
C1650 C1651 1.372 . S
C1651 C1650 1.372 . S
C1651 C1652 1.400 . S
C1651 C1656 1.490 . S
C1652 H1642 0.930 . S
C1652 C1651 1.400 . S
C1652 C1655 1.386 . S
H1653 C1669 0.930 . S
H1654 C1670 0.931 . S
C1655 H1643 0.929 . S
C1655 C1649 1.390 . S
C1655 C1652 1.386 . S
C1656 C1651 1.490 . S
C1656 C1658 1.395 . S
C1656 C1659 1.403 . S
H1657 C1663 0.930 . S
C1658 H1644 0.930 . S
C1658 C1656 1.395 . S
C1658 C1661 1.403 . S
C1659 C1656 1.403 . S
C1659 C1660 1.524 . S
C1659 C1663 1.400 . S
C1660 H1645 0.960 . S
C1660 H1646 0.960 . S
C1660 H1647 0.960 . S
C1660 C1659 1.524 . S
C1661 C1658 1.403 . S
C1661 C1662 1.392 . S
C1661 C1665 1.495 . S
C1662 C1661 1.392 . S
C1662 C1663 1.385 . S
C1662 C1664 1.478 . S
C1663 H1657 0.930 . S
C1663 C1659 1.400 . S
C1663 C1662 1.385 . S
C1664 C1662 1.478 . S
C1664 C1666 1.381 . S
C1664 C1670 1.383 . S
C1665 C1661 1.495 . S
C1665 H1671 0.959 . S
C1665 H1672 0.961 . S
C1665 H1673 0.960 . S
C1666 C1664 1.381 . S
C1666 C1667 1.394 . S
C1666 H1674 0.930 . S
C1667 C1666 1.394 . S
C1667 C1668 1.383 . S
C1667 H1675 0.929 . S
C1668 C1667 1.383 . S
C1668 C1669 1.377 . S
C1669 H1653 0.930 . S
C1669 C1668 1.377 . S
C1669 C1670 1.379 . S
C1670 H1654 0.931 . S
C1670 C1664 1.383 . S
C1670 C1669 1.379 . S
H1671 C1665 0.959 . S
H1672 C1665 0.961 . S
H1673 C1665 0.960 . S
H1674 C1666 0.930 . S
H1675 C1667 0.929 . S
H1676 C1684 0.929 . S
H1677 C1686 0.930 . S
H1678 C1688 0.930 . S
H1679 C1691 0.929 . S
H1680 C1694 0.930 . S
H1681 C1696 0.960 . S
H1682 C1696 0.960 . S
H1683 C1696 0.960 . S
C1684 H1676 0.929 . S
C1684 C1685 1.377 . S
C1684 C1686 1.384 . S
C1685 C1684 1.377 . S
C1685 C1691 1.390 . S
C1686 H1677 0.930 . S
C1686 C1684 1.384 . S
C1686 C1687 1.372 . S
C1687 C1686 1.372 . S
C1687 C1688 1.400 . S
C1687 C1692 1.490 . S
C1688 H1678 0.930 . S
C1688 C1687 1.400 . S
C1688 C1691 1.386 . S
H1689 C1705 0.930 . S
H1690 C1706 0.931 . S
C1691 H1679 0.929 . S
C1691 C1685 1.390 . S
C1691 C1688 1.386 . S
C1692 C1687 1.490 . S
C1692 C1694 1.395 . S
C1692 C1695 1.403 . S
H1693 C1699 0.930 . S
C1694 H1680 0.930 . S
C1694 C1692 1.395 . S
C1694 C1697 1.403 . S
C1695 C1692 1.403 . S
C1695 C1696 1.524 . S
C1695 C1699 1.400 . S
C1696 H1681 0.960 . S
C1696 H1682 0.960 . S
C1696 H1683 0.960 . S
C1696 C1695 1.524 . S
C1697 C1694 1.403 . S
C1697 C1698 1.392 . S
C1697 C1701 1.495 . S
C1698 C1697 1.392 . S
C1698 C1699 1.385 . S
C1698 C1700 1.478 . S
C1699 H1693 0.930 . S
C1699 C1695 1.400 . S
C1699 C1698 1.385 . S
C1700 C1698 1.478 . S
C1700 C1702 1.381 . S
C1700 C1706 1.383 . S
C1701 C1697 1.495 . S
C1701 H1707 0.959 . S
C1701 H1708 0.961 . S
C1701 H1709 0.960 . S
C1702 C1700 1.381 . S
C1702 C1703 1.394 1_565 S
C1702 H1710 0.930 1_565 S
C1703 C1702 1.394 1_545 S
C1703 C1704 1.383 1_545 S
C1703 H1711 0.929 . S
C1704 C1703 1.383 1_565 S
C1704 C1705 1.377 . S
C1705 H1689 0.930 . S
C1705 C1704 1.377 . S
C1705 C1706 1.379 . S
C1706 H1690 0.931 . S
C1706 C1700 1.383 . S
C1706 C1705 1.379 . S
H1707 C1701 0.959 . S
H1708 C1701 0.961 . S
H1709 C1701 0.960 . S
H1710 C1702 0.930 1_545 S
H1711 C1703 0.929 . S
H1712 C1720 0.929 . S
H1713 C1722 0.930 . S
H1714 C1724 0.930 . S
H1715 C1727 0.929 . S
H1716 C1730 0.930 . S
H1717 C1732 0.960 . S
H1718 C1732 0.960 . S
H1719 C1732 0.960 . S
C1720 H1712 0.929 . S
C1720 C1721 1.377 . S
C1720 C1722 1.384 . S
C1721 C1720 1.377 . S
C1721 C1727 1.390 1_556 S
C1722 H1713 0.930 . S
C1722 C1720 1.384 . S
C1722 C1723 1.372 . S
C1723 C1722 1.372 . S
C1723 C1724 1.400 1_556 S
C1723 C1728 1.490 . S
C1724 H1714 0.930 . S
C1724 C1723 1.400 1_554 S
C1724 C1727 1.386 . S
H1725 C1741 0.930 1_554 S
H1726 C1742 0.931 1_554 S
C1727 H1715 0.929 . S
C1727 C1721 1.390 1_554 S
C1727 C1724 1.386 . S
C1728 C1723 1.490 . S
C1728 C1730 1.395 . S
C1728 C1731 1.416 . S
H1729 C1735 0.930 1_554 S
C1730 H1716 0.930 . S
C1730 C1728 1.395 . S
C1730 C1733 1.403 . S
C1731 C1728 1.416 . S
C1731 C1732 1.510 1_556 S
C1731 C1735 1.401 . S
C1732 H1717 0.960 . S
C1732 H1718 0.960 . S
C1732 H1719 0.960 . S
C1732 C1731 1.510 1_554 S
C1733 C1730 1.403 . S
C1733 C1734 1.392 . S
C1733 C1737 1.495 . S
C1734 C1733 1.392 . S
C1734 C1735 1.385 . S
C1734 C1736 1.478 . S
C1735 H1729 0.930 1_556 S
C1735 C1731 1.401 . S
C1735 C1734 1.385 . S
C1736 C1734 1.478 . S
C1736 C1738 1.381 . S
C1736 C1742 1.383 . S
C1737 C1733 1.495 . S
C1737 H1743 0.959 . S
C1737 H1744 0.961 . S
C1737 H1745 0.960 . S
C1738 C1736 1.381 . S
C1738 C1739 1.394 . S
C1738 H1746 0.930 . S
C1739 C1738 1.394 . S
C1739 C1740 1.383 . S
C1739 H1747 0.929 . S
C1740 C1739 1.383 . S
C1740 C1741 1.377 . S
C1741 H1725 0.930 1_556 S
C1741 C1740 1.377 . S
C1741 C1742 1.379 . S
C1742 H1726 0.931 1_556 S
C1742 C1736 1.383 . S
C1742 C1741 1.379 . S
H1743 C1737 0.959 . S
H1744 C1737 0.961 . S
H1745 C1737 0.960 . S
H1746 C1738 0.930 . S
H1747 C1739 0.929 . S
H1748 C1756 0.929 . S
H1749 C1758 0.930 . S
H1750 C1760 0.930 . S
H1751 C1763 0.929 . S
H1752 C1766 0.930 . S
H1753 C1768 0.960 . S
H1754 C1768 0.960 . S
H1755 C1768 0.960 . S
C1756 H1748 0.929 . S
C1756 C1757 1.377 . S
C1756 C1758 1.384 . S
C1757 C1756 1.377 . S
C1757 C1763 1.390 . S
C1758 H1749 0.930 . S
C1758 C1756 1.384 . S
C1758 C1759 1.372 . S
C1759 C1758 1.372 . S
C1759 C1760 1.400 . S
C1759 C1764 1.490 . S
C1760 H1750 0.930 . S
C1760 C1759 1.400 . S
C1760 C1763 1.386 . S
H1761 C1777 0.930 . S
H1762 C1778 0.931 . S
C1763 H1751 0.929 . S
C1763 C1757 1.390 . S
C1763 C1760 1.386 . S
C1764 C1759 1.490 . S
C1764 C1766 1.395 . S
C1764 C1767 1.403 . S
H1765 C1771 0.930 . S
C1766 H1752 0.930 . S
C1766 C1764 1.395 . S
C1766 C1769 1.403 . S
C1767 C1764 1.403 . S
C1767 C1768 1.524 . S
C1767 C1771 1.400 . S
C1768 H1753 0.960 . S
C1768 H1754 0.960 . S
C1768 H1755 0.960 . S
C1768 C1767 1.524 . S
C1769 C1766 1.403 . S
C1769 C1770 1.392 . S
C1769 C1773 1.495 . S
C1770 C1769 1.392 . S
C1770 C1771 1.385 . S
C1770 C1772 1.478 . S
C1771 H1765 0.930 . S
C1771 C1767 1.400 . S
C1771 C1770 1.385 . S
C1772 C1770 1.478 . S
C1772 C1774 1.381 . S
C1772 C1778 1.383 . S
C1773 C1769 1.495 . S
C1773 H1779 0.959 . S
C1773 H1780 0.961 . S
C1773 H1781 0.960 . S
C1774 C1772 1.381 . S
C1774 C1775 1.394 . S
C1774 H1782 0.930 . S
C1775 C1774 1.394 . S
C1775 C1776 1.383 . S
C1775 H1783 0.929 . S
C1776 C1775 1.383 . S
C1776 C1777 1.377 . S
C1777 H1761 0.930 . S
C1777 C1776 1.377 . S
C1777 C1778 1.379 . S
C1778 H1762 0.931 . S
C1778 C1772 1.383 . S
C1778 C1777 1.379 . S
H1779 C1773 0.959 . S
H1780 C1773 0.961 . S
H1781 C1773 0.960 . S
H1782 C1774 0.930 . S
H1783 C1775 0.929 . S
H1784 C1792 0.929 . S
H1785 C1794 0.930 . S
H1786 C1796 0.930 . S
H1787 C1799 0.929 . S
H1788 C1802 0.930 . S
H1789 C1804 0.960 . S
H1790 C1804 0.960 . S
H1791 C1804 0.960 . S
C1792 H1784 0.929 . S
C1792 C1793 1.377 . S
C1792 C1794 1.384 . S
C1793 C1792 1.377 . S
C1793 C1799 1.390 . S
C1794 H1785 0.930 . S
C1794 C1792 1.384 . S
C1794 C1795 1.372 . S
C1795 C1794 1.372 . S
C1795 C1796 1.400 . S
C1795 C1800 1.490 . S
C1796 H1786 0.930 . S
C1796 C1795 1.400 . S
C1796 C1799 1.386 . S
H1797 C1813 0.930 . S
H1798 C1814 0.931 . S
C1799 H1787 0.929 . S
C1799 C1793 1.390 . S
C1799 C1796 1.386 . S
C1800 C1795 1.490 . S
C1800 C1802 1.395 . S
C1800 C1803 1.403 . S
H1801 C1807 0.930 . S
C1802 H1788 0.930 . S
C1802 C1800 1.395 . S
C1802 C1805 1.403 1_455 S
C1803 C1800 1.403 . S
C1803 C1804 1.524 . S
C1803 C1807 1.400 1_455 S
C1804 H1789 0.960 . S
C1804 H1790 0.960 . S
C1804 H1791 0.960 . S
C1804 C1803 1.524 . S
C1805 C1802 1.403 1_655 S
C1805 C1806 1.392 . S
C1805 C1809 1.495 . S
C1806 C1805 1.392 . S
C1806 C1807 1.385 . S
C1806 C1808 1.478 . S
C1807 H1801 0.930 . S
C1807 C1803 1.400 1_655 S
C1807 C1806 1.385 . S
C1808 C1806 1.478 . S
C1808 C1810 1.381 . S
C1808 C1814 1.383 . S
C1809 C1805 1.495 . S
C1809 H1815 0.959 . S
C1809 H1816 0.961 . S
C1809 H1817 0.960 . S
C1810 C1808 1.381 . S
C1810 C1811 1.394 . S
C1810 H1818 0.930 . S
C1811 C1810 1.394 . S
C1811 C1812 1.383 . S
C1811 H1819 0.929 . S
C1812 C1811 1.383 . S
C1812 C1813 1.377 . S
C1813 H1797 0.930 . S
C1813 C1812 1.377 . S
C1813 C1814 1.379 . S
C1814 H1798 0.931 . S
C1814 C1808 1.383 . S
C1814 C1813 1.379 . S
H1815 C1809 0.959 . S
H1816 C1809 0.961 . S
H1817 C1809 0.960 . S
H1818 C1810 0.930 . S
H1819 C1811 0.929 . S
H1820 C1828 0.929 . S
H1821 C1830 0.930 1_655 S
H1822 C1832 0.930 . S
H1823 C1835 0.929 . S
H1824 C1838 0.930 . S
H1825 C1840 0.960 . S
H1826 C1840 0.960 . S
H1827 C1840 0.960 . S
C1828 H1820 0.929 . S
C1828 C1829 1.377 . S
C1828 C1830 1.384 . S
C1829 C1828 1.377 . S
C1829 C1835 1.390 . S
C1830 H1821 0.930 1_455 S
C1830 C1828 1.384 . S
C1830 C1831 1.372 . S
C1831 C1830 1.372 . S
C1831 C1832 1.400 . S
C1831 C1836 1.490 . S
C1832 H1822 0.930 . S
C1832 C1831 1.400 . S
C1832 C1835 1.386 . S
H1833 C1849 0.930 . S
H1834 C1850 0.931 1_455 S
C1835 H1823 0.929 . S
C1835 C1829 1.390 . S
C1835 C1832 1.386 . S
C1836 C1831 1.490 . S
C1836 C1838 1.395 . S
C1836 C1839 1.403 . S
H1837 C1843 0.930 . S
C1838 H1824 0.930 . S
C1838 C1836 1.395 . S
C1838 C1841 1.403 1_455 S
C1839 C1836 1.403 . S
C1839 C1840 1.524 . S
C1839 C1843 1.400 1_455 S
C1840 H1825 0.960 . S
C1840 H1826 0.960 . S
C1840 H1827 0.960 . S
C1840 C1839 1.524 . S
C1841 C1838 1.403 1_655 S
C1841 C1842 1.392 . S
C1841 C1845 1.495 . S
C1842 C1841 1.392 . S
C1842 C1843 1.385 . S
C1842 C1844 1.478 . S
C1843 H1837 0.930 . S
C1843 C1839 1.400 1_655 S
C1843 C1842 1.385 . S
C1844 C1842 1.478 . S
C1844 C1846 1.381 . S
C1844 C1850 1.383 . S
C1845 C1841 1.495 . S
C1845 H1851 0.959 . S
C1845 H1852 0.961 . S
C1845 H1853 0.960 . S
C1846 C1844 1.381 . S
C1846 C1847 1.394 . S
C1846 H1854 0.930 . S
C1847 C1846 1.394 . S
C1847 C1848 1.383 . S
C1847 H1855 0.929 . S
C1848 C1847 1.383 . S
C1848 C1849 1.377 . S
C1849 H1833 0.930 . S
C1849 C1848 1.377 . S
C1849 C1850 1.379 . S
C1850 H1834 0.931 1_655 S
C1850 C1844 1.383 . S
C1850 C1849 1.379 . S
H1851 C1845 0.959 . S
H1852 C1845 0.961 . S
H1853 C1845 0.960 . S
H1854 C1846 0.930 . S
H1855 C1847 0.929 . S
H1856 C1864 0.929 . S
H1857 C1866 0.930 . S
H1858 C1868 0.930 1_556 S
H1859 C1871 0.929 1_556 S
H1860 C1874 0.930 . S
H1861 C1876 0.960 . S
H1862 C1876 0.960 . S
H1863 C1876 0.960 . S
C1864 H1856 0.929 . S
C1864 C1865 1.377 . S
C1864 C1866 1.384 . S
C1865 C1864 1.377 . S
C1865 C1871 1.390 . S
C1866 H1857 0.930 . S
C1866 C1864 1.384 . S
C1866 C1867 1.372 . S
C1867 C1866 1.372 . S
C1867 C1868 1.400 . S
C1867 C1872 1.490 . S
C1868 H1858 0.930 1_554 S
C1868 C1867 1.400 . S
C1868 C1871 1.386 . S
H1869 C1885 0.930 1_556 S
H1870 C1886 0.931 1_556 S
C1871 H1859 0.929 1_554 S
C1871 C1865 1.390 . S
C1871 C1868 1.386 . S
C1872 C1867 1.490 . S
C1872 C1874 1.395 . S
C1872 C1875 1.403 . S
H1873 C1879 0.930 . S
C1874 H1860 0.930 . S
C1874 C1872 1.395 . S
C1874 C1877 1.403 . S
C1875 C1872 1.403 . S
C1875 C1876 1.524 . S
C1875 C1879 1.400 . S
C1876 H1861 0.960 . S
C1876 H1862 0.960 . S
C1876 H1863 0.960 . S
C1876 C1875 1.524 . S
C1877 C1874 1.403 . S
C1877 C1878 1.392 . S
C1877 C1881 1.495 . S
C1878 C1877 1.392 . S
C1878 C1879 1.385 . S
C1878 C1880 1.478 . S
C1879 H1873 0.930 . S
C1879 C1875 1.400 . S
C1879 C1878 1.385 . S
C1880 C1878 1.478 . S
C1880 C1882 1.381 . S
C1880 C1886 1.383 . S
C1881 C1877 1.495 . S
C1881 H1887 0.959 . S
C1881 H1888 0.961 . S
C1881 H1889 0.960 . S
C1882 C1880 1.381 . S
C1882 C1883 1.394 . S
C1882 H1890 0.930 . S
C1883 C1882 1.394 . S
C1883 C1884 1.383 . S
C1883 H1891 0.929 . S
C1884 C1883 1.383 . S
C1884 C1885 1.377 . S
C1885 H1869 0.930 1_554 S
C1885 C1884 1.377 . S
C1885 C1886 1.379 . S
C1886 H1870 0.931 1_554 S
C1886 C1880 1.383 . S
C1886 C1885 1.379 . S
H1887 C1881 0.959 . S
H1888 C1881 0.961 . S
H1889 C1881 0.960 . S
H1890 C1882 0.930 . S
H1891 C1883 0.929 . S
H1892 C1900 0.929 . S
H1893 C1902 0.930 . S
H1894 C1904 0.930 . S
H1895 C1907 0.929 . S
H1896 C1910 0.930 . S
H1897 C1912 0.960 . S
H1898 C1912 0.960 . S
H1899 C1912 0.960 . S
C1900 H1892 0.929 . S
C1900 C1901 1.377 . S
C1900 C1902 1.384 . S
C1901 C1900 1.377 . S
C1901 C1907 1.390 . S
C1902 H1893 0.930 . S
C1902 C1900 1.384 . S
C1902 C1903 1.372 . S
C1903 C1902 1.372 . S
C1903 C1904 1.400 . S
C1903 C1908 1.490 . S
C1904 H1894 0.930 . S
C1904 C1903 1.400 . S
C1904 C1907 1.386 . S
H1905 C1921 0.930 . S
H1906 C1922 0.931 . S
C1907 H1895 0.929 . S
C1907 C1901 1.390 . S
C1907 C1904 1.386 . S
C1908 C1903 1.490 . S
C1908 C1910 1.395 . S
C1908 C1911 1.403 . S
H1909 C1915 0.930 . S
C1910 H1896 0.930 . S
C1910 C1908 1.395 . S
C1910 C1913 1.403 . S
C1911 C1908 1.403 . S
C1911 C1912 1.524 . S
C1911 C1915 1.400 . S
C1912 H1897 0.960 . S
C1912 H1898 0.960 . S
C1912 H1899 0.960 . S
C1912 C1911 1.524 . S
C1913 C1910 1.403 . S
C1913 C1914 1.392 . S
C1913 C1917 1.495 . S
C1914 C1913 1.392 . S
C1914 C1915 1.385 . S
C1914 C1916 1.478 . S
C1915 H1909 0.930 . S
C1915 C1911 1.400 . S
C1915 C1914 1.385 . S
C1916 C1914 1.478 . S
C1916 C1918 1.381 . S
C1916 C1922 1.383 . S
C1917 C1913 1.495 . S
C1917 H1923 0.959 . S
C1917 H1924 0.961 . S
C1917 H1925 0.960 . S
C1918 C1916 1.381 . S
C1918 C1919 1.394 . S
C1918 H1926 0.930 . S
C1919 C1918 1.394 . S
C1919 C1920 1.383 . S
C1919 H1927 0.929 . S
C1920 C1919 1.383 . S
C1920 C1921 1.377 . S
C1921 H1905 0.930 . S
C1921 C1920 1.377 . S
C1921 C1922 1.379 . S
C1922 H1906 0.931 . S
C1922 C1916 1.383 . S
C1922 C1921 1.379 . S
H1923 C1917 0.959 . S
H1924 C1917 0.961 . S
H1925 C1917 0.960 . S
H1926 C1918 0.930 . S
H1927 C1919 0.929 . S
H1928 C1936 0.929 . S
H1929 C1938 0.930 . S
H1930 C1940 0.930 . S
H1931 C1943 0.929 . S
H1932 C1946 0.930 . S
H1933 C1948 0.960 1_655 S
H1934 C1948 0.960 . S
H1935 C1948 0.960 . S
C1936 H1928 0.929 . S
C1936 C1937 1.377 . S
C1936 C1938 1.384 . S
C1937 C1936 1.377 . S
C1937 C1943 1.390 . S
C1938 H1929 0.930 . S
C1938 C1936 1.384 . S
C1938 C1939 1.372 . S
C1939 C1938 1.372 . S
C1939 C1940 1.400 . S
C1939 C1944 1.490 . S
C1940 H1930 0.930 . S
C1940 C1939 1.400 . S
C1940 C1943 1.386 . S
H1941 C1957 0.930 . S
H1942 C1958 0.931 . S
C1943 H1931 0.929 . S
C1943 C1937 1.390 . S
C1943 C1940 1.386 . S
C1944 C1939 1.490 . S
C1944 C1946 1.395 . S
C1944 C1947 1.403 . S
H1945 C1951 0.930 . S
C1946 H1932 0.930 . S
C1946 C1944 1.395 . S
C1946 C1949 1.403 1_455 S
C1947 C1944 1.403 . S
C1947 C1948 1.524 . S
C1947 C1951 1.400 1_455 S
C1948 H1933 0.960 1_455 S
C1948 H1934 0.960 . S
C1948 H1935 0.960 . S
C1948 C1947 1.524 . S
C1949 C1946 1.403 1_655 S
C1949 C1950 1.392 . S
C1949 C1953 1.495 . S
C1950 C1949 1.392 . S
C1950 C1951 1.385 . S
C1950 C1952 1.478 . S
C1951 H1945 0.930 . S
C1951 C1947 1.400 1_655 S
C1951 C1950 1.385 . S
C1952 C1950 1.478 . S
C1952 C1954 1.381 . S
C1952 C1958 1.383 . S
C1953 C1949 1.495 . S
C1953 H1959 0.959 1_655 S
C1953 H1960 0.961 . S
C1953 H1961 0.960 . S
C1954 C1952 1.381 . S
C1954 C1955 1.394 . S
C1954 H1962 0.930 . S
C1955 C1954 1.394 . S
C1955 C1956 1.383 . S
C1955 H1963 0.929 . S
C1956 C1955 1.383 . S
C1956 C1957 1.377 . S
C1957 H1941 0.930 . S
C1957 C1956 1.377 . S
C1957 C1958 1.379 . S
C1958 H1942 0.931 . S
C1958 C1952 1.383 . S
C1958 C1957 1.379 . S
H1959 C1953 0.959 1_455 S
H1960 C1953 0.961 . S
H1961 C1953 0.960 . S
H1962 C1954 0.930 . S
H1963 C1955 0.929 . S
H1964 C1972 0.929 . S
H1965 C1974 0.930 . S
H1966 C1976 0.930 . S
H1967 C1979 0.929 . S
H1968 C1982 0.930 . S
H1969 C1984 0.960 . S
H1970 C1984 0.960 . S
H1971 C1984 0.960 . S
C1972 H1964 0.929 . S
C1972 C1973 1.377 . S
C1972 C1974 1.384 . S
C1973 C1972 1.377 . S
C1973 C1979 1.390 . S
C1974 H1965 0.930 . S
C1974 C1972 1.384 . S
C1974 C1975 1.372 . S
C1975 C1974 1.372 . S
C1975 C1976 1.400 . S
C1975 C1980 1.490 . S
C1976 H1966 0.930 . S
C1976 C1975 1.400 . S
C1976 C1979 1.386 . S
H1977 C1993 0.930 . S
H1978 C1994 0.931 . S
C1979 H1967 0.929 . S
C1979 C1973 1.390 . S
C1979 C1976 1.386 . S
C1980 C1975 1.490 . S
C1980 C1982 1.395 . S
C1980 C1983 1.403 1_655 S
H1981 C1987 0.930 . S
C1982 H1968 0.930 . S
C1982 C1980 1.395 . S
C1982 C1985 1.403 . S
C1983 C1980 1.403 1_455 S
C1983 C1984 1.524 . S
C1983 C1987 1.400 . S
C1984 H1969 0.960 . S
C1984 H1970 0.960 . S
C1984 H1971 0.960 . S
C1984 C1983 1.524 . S
C1985 C1982 1.403 . S
C1985 C1986 1.392 1_655 S
C1985 C1989 1.495 . S
C1986 C1985 1.392 1_455 S
C1986 C1987 1.385 . S
C1986 C1988 1.478 . S
C1987 H1981 0.930 . S
C1987 C1983 1.400 . S
C1987 C1986 1.385 . S
C1988 C1986 1.478 . S
C1988 C1990 1.381 . S
C1988 C1994 1.383 . S
C1989 C1985 1.495 . S
C1989 H1995 0.959 . S
C1989 H1996 0.961 . S
C1989 H1997 0.960 . S
C1990 C1988 1.381 . S
C1990 C1991 1.394 . S
C1990 H1998 0.930 . S
C1991 C1990 1.394 . S
C1991 C1992 1.383 . S
C1991 H1999 0.929 . S
C1992 C1991 1.383 . S
C1992 C1993 1.377 . S
C1993 H1977 0.930 . S
C1993 C1992 1.377 . S
C1993 C1994 1.379 . S
C1994 H1978 0.931 . S
C1994 C1988 1.383 . S
C1994 C1993 1.379 . S
H1995 C1989 0.959 . S
H1996 C1989 0.961 . S
H1997 C1989 0.960 . S
H1998 C1990 0.930 . S
H1999 C1991 0.929 . S
C857 C250 2.808 . S
C876 C29 2.809 . S
C893 C727 2.894 . S
C912 C91 2.883 . S
C929 C135 2.830 . S
C948 C356 2.827 . S
C965 C833 2.890 . S
C984 C197 2.875 . S
C1001 C515 2.880 . S
C1020 C303 2.886 . S
C1037 C621 2.880 . S
C1056 C409 2.887 . S
C1073 C453 2.830 . S
C1092 C674 2.829 . S
C1109 C780 2.808 . S
C1128 C559 2.809 . S
C1145 C393 1.875 . S
C1164 C22 1.862 . S
C1181 C658 1.835 . S
C1200 C92 1.794 . S
C1217 C128 1.871 . S
C1236 C287 1.890 . S
C1253 C198 1.818 . S
C1272 C764 1.839 . S
C1289 C181 2.190 . S
C1308 C251 2.169 . S
C1325 C304 2.268 . S
C1344 C463 2.290 . S
C1361 C357 2.163 . S
C1380 C75 2.201 . S
C1397 C410 2.264 1_655 S
C1416 C569 2.309 . S
C1433 C446 1.872 . S
C1452 C817 1.895 . S
C1469 C234 1.843 . S
C1488 C516 1.825 1_565 S
C1505 C711 1.876 . S
C1524 C552 1.867 . S
C1541 C622 1.811 1_545 S
C1560 C340 1.820 . S
C1577 C605 2.198 . S
C1596 C675 2.176 . S
C1613 C728 2.263 1_445 S
C1632 C39 2.308 . S
C1649 C781 2.157 . S
C1668 C499 2.174 . S
C1685 C145 2.306 . S
C1704 C834 2.265 1_565 S
C1721 C38 0.698 . S
C1740 C568 0.720 . S
C1757 C612 0.499 . S
C1776 C82 0.534 . S
C1793 C144 0.699 . S
C1812 C462 0.690 . S
C1829 C506 0.500 . S
C1848 C188 0.470 . S
C1865 C771 0.239 . S
C1884 C241 0.252 . S
C1901 C824 0.171 . S
C1920 C294 0.248 . S
C1937 C665 0.199 . S
C1956 C347 0.219 . S
C1973 C718 0.206 . S
C1992 C400 0.259 . S
