# Generated by pormake.
# Topology smd, (6)-cn, num edge types: 1
# Building blocks:
#     Node 0, Type 0, BuildingBlock: GEDQOX_clean_sbu_0, # of connection points: 6
#     Node 1, Type 0, BuildingBlock: GEDQOX_clean_sbu_0, # of connection points: 6
#     Node 2, Type 0, BuildingBlock: GEDQOX_clean_sbu_0, # of connection points: 6
#     Node 3, Type 0, BuildingBlock: GEDQOX_clean_sbu_0, # of connection points: 6
#     Node 4, Type 0, BuildingBlock: GEDQOX_clean_sbu_0, # of connection points: 6
#     Node 5, Type 0, BuildingBlock: GEDQOX_clean_sbu_0, # of connection points: 6
#     Node 6, Type 0, BuildingBlock: GEDQOX_clean_sbu_0, # of connection points: 6
#     Node 7, Type 0, BuildingBlock: GEDQOX_clean_sbu_0, # of connection points: 6
#     Node 8, Type 0, BuildingBlock: GEDQOX_clean_sbu_0, # of connection points: 6
#     Node 9, Type 0, BuildingBlock: GEDQOX_clean_sbu_0, # of connection points: 6
#     Node 10, Type 0, BuildingBlock: GEDQOX_clean_sbu_0, # of connection points: 6
#     Node 11, Type 0, BuildingBlock: GEDQOX_clean_sbu_0, # of connection points: 6
#     Node 12, Type 0, BuildingBlock: GEDQOX_clean_sbu_0, # of connection points: 6
#     Node 13, Type 0, BuildingBlock: GEDQOX_clean_sbu_0, # of connection points: 6
#     Node 14, Type 0, BuildingBlock: GEDQOX_clean_sbu_0, # of connection points: 6
#     Node 15, Type 0, BuildingBlock: GEDQOX_clean_sbu_0, # of connection points: 6
#     Node 16, Type 0, BuildingBlock: GEDQOX_clean_sbu_0, # of connection points: 6
#     Node 17, Type 0, BuildingBlock: GEDQOX_clean_sbu_0, # of connection points: 6
#     Edge 18, Type (0, 0), BuildingBlock: CIFDUS_clean_linker_0, # of connection points: 2
#     Edge 19, Type (0, 0), BuildingBlock: CIFDUS_clean_linker_0, # of connection points: 2
#     Edge 20, Type (0, 0), BuildingBlock: CIFDUS_clean_linker_0, # of connection points: 2
#     Edge 21, Type (0, 0), BuildingBlock: CIFDUS_clean_linker_0, # of connection points: 2
#     Edge 22, Type (0, 0), BuildingBlock: CIFDUS_clean_linker_0, # of connection points: 2
#     Edge 23, Type (0, 0), BuildingBlock: CIFDUS_clean_linker_0, # of connection points: 2
#     Edge 24, Type (0, 0), BuildingBlock: CIFDUS_clean_linker_0, # of connection points: 2
#     Edge 25, Type (0, 0), BuildingBlock: CIFDUS_clean_linker_0, # of connection points: 2
#     Edge 26, Type (0, 0), BuildingBlock: CIFDUS_clean_linker_0, # of connection points: 2
#     Edge 27, Type (0, 0), BuildingBlock: CIFDUS_clean_linker_0, # of connection points: 2
#     Edge 28, Type (0, 0), BuildingBlock: CIFDUS_clean_linker_0, # of connection points: 2
#     Edge 29, Type (0, 0), BuildingBlock: CIFDUS_clean_linker_0, # of connection points: 2
#     Edge 30, Type (0, 0), BuildingBlock: CIFDUS_clean_linker_0, # of connection points: 2
#     Edge 31, Type (0, 0), BuildingBlock: CIFDUS_clean_linker_0, # of connection points: 2
#     Edge 32, Type (0, 0), BuildingBlock: CIFDUS_clean_linker_0, # of connection points: 2
#     Edge 33, Type (0, 0), BuildingBlock: CIFDUS_clean_linker_0, # of connection points: 2
#     Edge 34, Type (0, 0), BuildingBlock: CIFDUS_clean_linker_0, # of connection points: 2
#     Edge 35, Type (0, 0), BuildingBlock: CIFDUS_clean_linker_0, # of connection points: 2
#     Edge 36, Type (0, 0), BuildingBlock: CIFDUS_clean_linker_0, # of connection points: 2
#     Edge 37, Type (0, 0), BuildingBlock: CIFDUS_clean_linker_0, # of connection points: 2
#     Edge 38, Type (0, 0), BuildingBlock: CIFDUS_clean_linker_0, # of connection points: 2
#     Edge 39, Type (0, 0), BuildingBlock: CIFDUS_clean_linker_0, # of connection points: 2
#     Edge 40, Type (0, 0), BuildingBlock: CIFDUS_clean_linker_0, # of connection points: 2
#     Edge 41, Type (0, 0), BuildingBlock: CIFDUS_clean_linker_0, # of connection points: 2
#     Edge 42, Type (0, 0), BuildingBlock: CIFDUS_clean_linker_0, # of connection points: 2
#     Edge 43, Type (0, 0), BuildingBlock: CIFDUS_clean_linker_0, # of connection points: 2
#     Edge 44, Type (0, 0), BuildingBlock: CIFDUS_clean_linker_0, # of connection points: 2
#     Edge 45, Type (0, 0), BuildingBlock: CIFDUS_clean_linker_0, # of connection points: 2
#     Edge 46, Type (0, 0), BuildingBlock: CIFDUS_clean_linker_0, # of connection points: 2
#     Edge 47, Type (0, 0), BuildingBlock: CIFDUS_clean_linker_0, # of connection points: 2
#     Edge 48, Type (0, 0), BuildingBlock: CIFDUS_clean_linker_0, # of connection points: 2
#     Edge 49, Type (0, 0), BuildingBlock: CIFDUS_clean_linker_0, # of connection points: 2
#     Edge 50, Type (0, 0), BuildingBlock: CIFDUS_clean_linker_0, # of connection points: 2
#     Edge 51, Type (0, 0), BuildingBlock: CIFDUS_clean_linker_0, # of connection points: 2
#     Edge 52, Type (0, 0), BuildingBlock: CIFDUS_clean_linker_0, # of connection points: 2
#     Edge 53, Type (0, 0), BuildingBlock: CIFDUS_clean_linker_0, # of connection points: 2
#     Edge 54, Type (0, 0), BuildingBlock: CIFDUS_clean_linker_0, # of connection points: 2
#     Edge 55, Type (0, 0), BuildingBlock: CIFDUS_clean_linker_0, # of connection points: 2
#     Edge 56, Type (0, 0), BuildingBlock: CIFDUS_clean_linker_0, # of connection points: 2
#     Edge 57, Type (0, 0), BuildingBlock: CIFDUS_clean_linker_0, # of connection points: 2
#     Edge 58, Type (0, 0), BuildingBlock: CIFDUS_clean_linker_0, # of connection points: 2
#     Edge 59, Type (0, 0), BuildingBlock: CIFDUS_clean_linker_0, # of connection points: 2
#     Edge 60, Type (0, 0), BuildingBlock: CIFDUS_clean_linker_0, # of connection points: 2
#     Edge 61, Type (0, 0), BuildingBlock: CIFDUS_clean_linker_0, # of connection points: 2
#     Edge 62, Type (0, 0), BuildingBlock: CIFDUS_clean_linker_0, # of connection points: 2
#     Edge 63, Type (0, 0), BuildingBlock: CIFDUS_clean_linker_0, # of connection points: 2
#     Edge 64, Type (0, 0), BuildingBlock: CIFDUS_clean_linker_0, # of connection points: 2
#     Edge 65, Type (0, 0), BuildingBlock: CIFDUS_clean_linker_0, # of connection points: 2
#     Edge 66, Type (0, 0), BuildingBlock: CIFDUS_clean_linker_0, # of connection points: 2
#     Edge 67, Type (0, 0), BuildingBlock: CIFDUS_clean_linker_0, # of connection points: 2
#     Edge 68, Type (0, 0), BuildingBlock: CIFDUS_clean_linker_0, # of connection points: 2
#     Edge 69, Type (0, 0), BuildingBlock: CIFDUS_clean_linker_0, # of connection points: 2
#     Edge 70, Type (0, 0), BuildingBlock: CIFDUS_clean_linker_0, # of connection points: 2
#     Edge 71, Type (0, 0), BuildingBlock: CIFDUS_clean_linker_0, # of connection points: 2
# Relax obj value: 0.278
# Max RMSD: 0.259
# Mean RMSD: 0.259
data_MOF--net-smd--node1-GEDQOX_clean_sbu_0--edge1-CIFDUS_clean_linker_0
_symmetry_space_group_name_H-M    P1
_symmetry_Int_Tables_number       1
_symmetry_cell_setting            triclinic
loop_
_symmetry_equiv_pos_as_xyz
'x, y, z'
_cell_length_a     84.873299
_cell_length_b     85.022449
_cell_length_c     13.659689
_cell_angle_alpha  89.870765
_cell_angle_beta   90.176568
_cell_angle_gamma 119.96594
loop_
_atom_site_label
_atom_site_type_symbol
_atom_site_fract_x
_atom_site_fract_y
_atom_site_fract_z
_atom_type_partial_charge
Nd0 Nd 0.05307 0.24144 0.60484 0.0
Nd1 Nd 1.02092 0.25145 0.62468 0.0
C2 C 0.08364 0.24125 0.57213 0.0
C3 C 0.10093 0.24134 0.55316 0.0
C4 C 0.11532 0.25597 0.50377 0.0
C5 C 0.13183 0.25637 0.48817 0.0
C6 C 0.13445 0.24216 0.52171 0.0
C7 C 0.11996 0.22746 0.57066 0.0
C8 C 0.10343 0.22706 0.5861 0.0
C9 C 1.01749 0.21283 0.60822 0.0
C10 C 0.03522 0.24831 0.40453 0.0
C11 C 0.98911 0.24967 0.6451 0.0
C12 C 0.98115 0.25924 0.69706 0.0
C13 C 0.96221 0.25153 0.70024 0.0
C14 C 0.95439 0.26114 0.74082 0.0
C15 C 0.96538 0.27871 0.77901 0.0
C16 C 0.98441 0.28615 0.77843 0.0
C17 C 0.99222 0.27651 0.73786 0.0
C18 C 0.05457 0.28243 0.64082 0.0
C19 C 0.04035 0.24613 0.82036 0.0
O20 O 0.08096 0.25441 0.54272 0.0
O21 O 0.06986 0.22802 0.61836 0.0
O22 O 0.03109 0.21159 0.64363 0.0
O23 O 0.02332 0.22803 0.56852 0.0
O24 O 0.04836 0.2462 0.44394 0.0
O25 O 0.0226 0.24918 0.45761 0.0
O26 O 0.99406 0.23997 0.69817 0.0
O27 O 1.00071 0.25888 0.57545 0.0
O28 O 0.03931 0.28241 0.64694 0.0
O29 O 0.05118 0.26635 0.63032 0.0
O30 O 0.02502 0.24372 0.78066 0.0
O31 O 0.05437 0.24856 0.76694 0.0
H32 H 0.11386 0.26719 0.47729 0.0
H33 H 0.1425 0.26778 0.4489 0.0
H34 H 0.12148 0.21637 0.59883 0.0
H35 H 0.09266 0.21561 0.62476 0.0
H36 H 0.95345 0.23821 0.66925 0.0
H37 H 0.93972 0.25487 0.74129 0.0
H38 H 0.99334 0.29971 0.80603 0.0
H39 H 1.0069 0.28273 0.7359 0.0
Nd40 Nd 0.8279 0.8352 0.63847 0.0
Nd41 Nd 0.82176 0.79697 0.61257 0.0
C42 C 0.82754 0.86629 0.64205 0.0
C43 C 0.82926 0.88289 0.59555 0.0
C44 C 0.81681 0.88208 0.52477 0.0
C45 C 0.81707 0.89798 0.49377 0.0
C46 C 0.82971 0.91503 0.53321 0.0
C47 C 0.84249 0.91577 0.60172 0.0
C48 C 0.84226 0.89993 0.63231 0.0
C49 C 0.85889 0.83223 0.64647 0.0
C50 C 0.82765 0.82013 0.41756 0.0
C51 C 0.82146 0.76559 0.61935 0.0
C52 C 0.81247 0.74816 0.67304 0.0
C53 C 0.81984 0.73665 0.66858 0.0
C54 C 0.81063 0.71929 0.71032 0.0
C55 C 0.7938 0.71301 0.75743 0.0
C56 C 0.78678 0.7249 0.76479 0.0
C57 C 0.79602 0.7423 0.72298 0.0
C58 C 0.79094 0.79915 0.59192 0.0
C59 C 0.82251 0.81257 0.83492 0.0
O60 O 0.81312 0.85052 0.62453 0.0
O61 O 0.84218 0.86523 0.65777 0.0
O62 O 0.8561 0.84284 0.70307 0.0
O63 O 0.84599 0.82425 0.5868 0.0
O64 O 0.8241 0.83082 0.47191 0.0
O65 O 0.83101 0.80793 0.45765 0.0
O66 O 0.83326 0.78005 0.66727 0.0
O67 O 0.81109 0.76877 0.56144 0.0
O68 O 0.79455 0.78844 0.54201 0.0
O69 O 0.80281 0.80752 0.65754 0.0
O70 O 0.82439 0.80088 0.77985 0.0
O71 O 0.82091 0.82592 0.79643 0.0
H72 H 0.80655 0.86915 0.49528 0.0
H73 H 0.80719 0.89685 0.43981 0.0
H74 H 0.85226 0.92851 0.63515 0.0
H75 H 0.85184 0.90095 0.68807 0.0
H76 H 0.83254 0.74093 0.63062 0.0
H77 H 0.81662 0.71067 0.70454 0.0
H78 H 0.77378 0.72053 0.79954 0.0
H79 H 0.79007 0.75097 0.72722 0.0
Nd80 Nd 0.23646 0.01691 0.60491 0.0
Nd81 Nd 0.27806 0.05381 0.6278 0.0
C82 C 0.20961 0.9829 0.59625 0.0
C83 C 0.19264 0.96873 0.55036 0.0
C84 C 0.19128 0.95198 0.52952 0.0
C85 C 0.17508 0.93753 0.49396 0.0
C86 C 0.15976 0.93948 0.47728 0.0
C87 C 0.16124 0.95646 0.49684 0.0
C88 C 0.17753 0.97095 0.53337 0.0
C89 C 0.23623 0.04951 0.59438 0.0
C90 C 0.25905 0.03908 0.40936 0.0
C91 C 0.30689 0.08623 0.65318 0.0
C92 C 0.326 0.0931 0.68319 0.0
C93 C 0.33448 0.10769 0.74889 0.0
C94 C 0.35264 0.11442 0.77713 0.0
C95 C 0.3627 0.10674 0.73964 0.0
C96 C 0.35401 0.09185 0.67546 0.0
C97 C 0.33587 0.08507 0.64783 0.0
C98 C 0.2789 0.02155 0.62024 0.0
C99 C 0.2541 0.03291 0.82323 0.0
O100 O 0.22477 0.98895 0.54689 0.0
O101 O 0.20908 0.99526 0.65133 0.0
O102 O 0.22169 0.03368 0.58294 0.0
O103 O 0.24927 0.0469 0.61192 0.0
O104 O 0.24635 0.02335 0.4463 0.0
O105 O 0.27062 0.05311 0.46417 0.0
O106 O 0.29454 0.07799 0.72107 0.0
O107 O 0.30197 0.0782 0.56757 0.0
O108 O 0.29339 0.03738 0.62881 0.0
O109 O 0.26542 0.02386 0.6206 0.0
O110 O 0.26687 0.04835 0.78456 0.0
O111 O 0.24282 0.01864 0.76981 0.0
H112 H 0.20269 0.94989 0.54317 0.0
H113 H 0.17448 0.92466 0.4823 0.0
H114 H 0.14984 0.95858 0.48402 0.0
H115 H 0.17822 0.98376 0.54921 0.0
H116 H 0.32708 0.11397 0.77788 0.0
H117 H 0.35891 0.12588 0.82663 0.0
H118 H 0.36122 0.08535 0.64691 0.0
H119 H 0.32959 0.07357 0.59853 0.0
Nd120 Nd 0.05962 0.81744 0.39938 0.0
Nd121 Nd 0.02639 0.8245 0.41765 0.0
C122 C 0.09192 0.82068 0.37305 0.0
C123 C 0.09918 0.81068 0.31816 0.0
C124 C 0.09645 0.8078 0.21669 0.0
C125 C 0.1025 0.7974 0.16733 0.0
C126 C 0.11128 0.78951 0.21826 0.0
C127 C 0.11436 0.79278 0.31937 0.0
C128 C 0.1084 0.80327 0.36862 0.0
C129 C 0.02791 0.78429 0.407 0.0
C130 C 0.03834 0.81917 0.20083 0.0
C131 C 0.99706 0.82707 0.4474 0.0
C132 C 0.97969 0.82477 0.48466 0.0
C133 C 0.9636 0.80785 0.48309 0.0
C134 C 0.94689 0.80654 0.50573 0.0
C135 C 0.94589 0.82214 0.52985 0.0
C136 C 0.96215 0.83894 0.53436 0.0
C137 C 0.97882 0.84022 0.51205 0.0
C138 C 0.06045 0.8546 0.38777 0.0
C139 C 0.04482 0.81912 0.61619 0.0
O140 O 0.08601 0.82978 0.32178 0.0
O141 O 0.0815 0.81215 0.44803 0.0
O142 O 0.04398 0.78632 0.39675 0.0
O143 O 0.02908 0.79967 0.4085 0.0
O144 O 0.05363 0.82143 0.23974 0.0
O145 O 0.02479 0.81769 0.25487 0.0
O146 O 0.99715 0.81446 0.39271 0.0
O147 O 1.01261 0.83793 0.49006 0.0
O148 O 0.04554 0.85296 0.35206 0.0
O149 O 0.05674 0.84125 0.44183 0.0
O150 O 0.02966 0.81681 0.57499 0.0
O151 O 0.05926 0.82235 0.56398 0.0
H152 H 0.08938 0.8133 0.17549 0.0
H153 H 0.10009 0.79536 0.08927 0.0
H154 H 0.12079 0.7867 0.3613 0.0
H155 H 0.11063 0.80525 0.44687 0.0
H156 H 0.96385 0.7957 0.46196 0.0
H157 H 0.9347 0.79333 0.50294 0.0
H158 H 0.96196 0.85129 0.55114 0.0
H159 H 0.99101 0.85347 0.51252 0.0
Nd160 Nd 0.25772 0.27005 0.42099 0.0
Nd161 Nd 0.2529 0.22833 0.4042 0.0
C162 C 0.2544 0.29923 0.41433 0.0
C163 C 0.26456 0.31663 0.36017 0.0
C164 C 0.26778 0.31686 0.25907 0.0
C165 C 0.27884 0.33325 0.21039 0.0
C166 C 0.2871 0.34984 0.26153 0.0
C167 C 0.28343 0.34964 0.36209 0.0
C168 C 0.27229 0.33321 0.41083 0.0
C169 C 0.29078 0.27091 0.40334 0.0
C170 C 0.25481 0.25132 0.20524 0.0
C171 C 0.25989 0.20125 0.39665 0.0
C172 C 0.25641 0.18346 0.43604 0.0
C173 C 0.26733 0.18287 0.5121 0.0
C174 C 0.26616 0.16646 0.53977 0.0
C175 C 0.2541 0.15016 0.4919 0.0
C176 C 0.24273 0.15065 0.41799 0.0
C177 C 0.24393 0.16711 0.39014 0.0
C178 C 0.22006 0.22778 0.43118 0.0
C179 C 0.25493 0.24671 0.61977 0.0
O180 O 0.24422 0.28462 0.36208 0.0
O181 O 0.26348 0.29647 0.48378 0.0
O182 O 0.28928 0.2853 0.41133 0.0
O183 O 0.27498 0.25739 0.4006 0.0
O184 O 0.25287 0.26331 0.25775 0.0
O185 O 0.25719 0.23833 0.24439 0.0
O186 O 0.2687 0.21555 0.4526 0.0
O187 O 0.2476 0.20196 0.341 0.0
O188 O 0.22122 0.21315 0.4222 0.0
O189 O 0.23584 0.24115 0.42567 0.0
O190 O 0.25737 0.23494 0.56767 0.0
O191 O 0.25231 0.25956 0.5802 0.0
H192 H 0.26214 0.30434 0.21775 0.0
H193 H 0.28119 0.33289 0.13273 0.0
H194 H 0.28974 0.36211 0.40406 0.0
H195 H 0.27015 0.3334 0.48886 0.0
H196 H 0.27725 0.1952 0.54847 0.0
H197 H 0.27492 0.16659 0.59797 0.0
H198 H 0.2334 0.13842 0.37877 0.0
H199 H 0.23551 0.16708 0.33031 0.0
Nd200 Nd 0.80094 1.00822 0.40895 0.0
Nd201 Nd 0.84142 0.04623 0.43149 0.0
C202 C 0.77343 0.97484 0.38706 0.0
C203 C 0.75514 0.96695 0.34333 0.0
C204 C 0.7429 0.94827 0.35029 0.0
C205 C 0.72519 0.94086 0.31311 0.0
C206 C 0.71937 0.95203 0.26838 0.0
C207 C 0.73186 0.97077 0.26045 0.0
C208 C 0.74955 0.97814 0.29741 0.0
C209 C 0.79792 0.03926 0.40723 0.0
C210 C 0.82348 0.03027 0.21329 0.0
C211 C 0.86799 0.08043 0.44239 0.0
C212 C 0.88678 0.09334 0.47586 0.0
C213 C 0.89152 0.09632 0.57568 0.0
C214 C 0.9089 0.11007 0.60459 0.0
C215 C 0.92182 0.12122 0.53441 0.0
C216 C 0.91715 0.11785 0.43473 0.0
C217 C 0.89988 0.10412 0.40595 0.0
C218 C 0.84353 0.0145 0.43958 0.0
C219 C 0.81902 0.02407 0.627 0.0
O220 O 0.78716 0.98238 0.32594 0.0
O221 O 0.77608 0.98446 0.46666 0.0
O222 O 0.78419 0.02297 0.39746 0.0
O223 O 0.81212 0.03821 0.41489 0.0
O224 O 0.81153 0.01437 0.25132 0.0
O225 O 0.83419 0.04467 0.26752 0.0
O226 O 0.85494 0.07284 0.50759 0.0
O227 O 0.86603 0.0697 0.36881 0.0
O228 O 0.85768 0.03067 0.44819 0.0
O229 O 0.82998 0.0164 0.42649 0.0
O230 O 0.83088 0.04007 0.58915 0.0
O231 O 0.80835 1.0096 0.57271 0.0
H232 H 0.74699 0.93942 0.38539 0.0
H233 H 0.71605 0.92637 0.31954 0.0
H234 H 0.72783 0.97987 0.22805 0.0
H235 H 0.75878 0.99262 0.29153 0.0
H236 H 0.88171 0.08833 0.63148 0.0
H237 H 0.91202 0.11237 0.68197 0.0
H238 H 0.92684 0.12598 0.37868 0.0
H239 H 0.8966 0.10221 0.32859 0.0
Nd240 Nd 0.72298 0.5793 0.9637 0.0
Nd241 Nd 0.68639 0.58458 0.94569 0.0
C242 C 0.75678 0.58551 0.97305 0.0
C243 C 0.76987 0.57984 0.94036 0.0
C244 C 0.7864 0.59282 0.89842 0.0
C245 C 0.80008 0.58866 0.8783 0.0
C246 C 0.79759 0.57134 0.89962 0.0
C247 C 0.78072 0.55813 0.93847 0.0
C248 C 0.76704 0.56233 0.95884 0.0
C249 C 0.69041 0.54658 0.94204 0.0
C250 C 0.706 0.58015 0.74731 0.0
C251 C 0.6536 0.58071 0.95541 0.0
C252 C 0.64714 0.5919 1.00433 0.0
C253 C 0.62872 0.58705 1.00185 0.0
C254 C 0.62312 0.59874 0.04102 0.0
C255 C 0.63593 0.61545 0.08224 0.0
C256 C 0.6542 0.6198 0.08877 0.0
C257 C 0.65972 0.6081 0.05074 0.0
C258 C 0.71862 0.61748 0.95947 0.0
C259 C 0.70319 0.58334 0.16219 0.0
O260 O 0.7515 0.59354 0.90941 0.0
O261 O 0.74397 0.57499 0.03484 0.0
O262 O 0.7062 0.54759 0.9498 0.0
O263 O 0.693 0.56242 0.94688 0.0
O264 O 0.72025 0.58243 0.79905 0.0
O265 O 0.69089 0.57845 0.78693 0.0
O266 O 0.65908 0.57214 1.01389 0.0
O267 O 0.66461 0.58848 0.88111 0.0
O268 O 0.70275 0.61611 0.95173 0.0
O269 O 0.7165 0.60176 0.9612 0.0
O270 O 0.68918 0.58145 0.11011 0.0
O271 O 0.71811 0.58475 0.12276 0.0
H272 H 0.78901 0.60646 0.88423 0.0
H273 H 0.81288 0.59929 0.84958 0.0
H274 H 0.77812 0.54455 0.95422 0.0
H275 H 0.75444 0.55199 0.99108 0.0
H276 H 0.61879 0.57455 0.96689 0.0
H277 H 0.609 0.59519 0.03427 0.0
H278 H 0.66434 0.63262 0.12005 0.0
H279 H 0.67396 0.612 0.05467 0.0
Nd280 Nd 0.49835 0.17311 0.95273 0.0
Nd281 Nd 0.49083 0.13154 0.97548 0.0
C282 C 0.49647 0.20324 0.95866 0.0
C283 C 0.5007 0.22116 0.91845 0.0
C284 C 0.48631 0.22408 0.89325 0.0
C285 C 0.48955 0.24152 0.87069 0.0
C286 C 0.50731 0.25655 0.87294 0.0
C287 C 0.52181 0.25347 0.89424 0.0
C288 C 0.51855 0.236 0.91702 0.0
C289 C 0.528 0.16851 0.92865 0.0
C290 C 0.49436 0.14975 0.75809 0.0
C291 C 0.49322 0.10204 1.00417 0.0
C292 C 0.48253 0.08455 0.05645 0.0
C293 C 0.47968 0.08401 0.15809 0.0
C294 C 0.46912 0.06745 0.20601 0.0
C295 C 0.46105 0.05102 0.15358 0.0
C296 C 0.46422 0.05155 0.05223 0.0
C297 C 0.47487 0.06814 1.00429 0.0
C298 C 0.45863 0.13236 0.96571 0.0
C299 C 0.49236 0.15391 0.17307 0.0
O300 O 0.48424 0.18841 0.91443 0.0
O301 O 0.50949 0.20157 1.00062 0.0
O302 O 0.52669 0.18169 0.88796 0.0
O303 O 0.51497 0.15978 0.98707 0.0
O304 O 0.49129 0.1623 0.79627 0.0
O305 O 0.49782 0.13884 0.81255 0.0
O306 O 0.50173 0.11667 0.05823 0.0
O307 O 0.48577 0.10452 0.92575 0.0
O308 O 0.45917 0.11743 0.97311 0.0
O309 O 0.47463 0.14539 0.96521 0.0
O310 O 0.4917 0.13926 0.13595 0.0
O311 O 0.49376 0.16747 0.11856 0.0
H312 H 0.4724 0.21296 0.89509 0.0
H313 H 0.47799 0.2433 0.85587 0.0
H314 H 0.5357 0.26463 0.89502 0.0
H315 H 0.52996 0.23424 0.93644 0.0
H316 H 0.48542 0.09638 0.2008 0.0
H317 H 0.46715 0.06753 0.28427 0.0
H318 H 0.45801 0.03919 1.00933 0.0
H319 H 0.47688 0.06818 0.92598 0.0
Nd320 Nd 0.90361 0.35038 0.96363 0.0
Nd321 Nd 0.94493 0.38751 0.94646 0.0
C322 C 0.8765 0.31642 0.97347 0.0
C323 C 0.85759 0.30347 0.94103 0.0
C324 C 0.85422 0.29328 0.85458 0.0
C325 C 0.83652 0.27965 0.83022 0.0
C326 C 0.82175 0.27575 0.89204 0.0
C327 C 0.82517 0.28616 0.97776 0.0
C328 C 0.84281 0.29979 1.00186 0.0
C329 C 0.90244 0.3824 0.93989 0.0
C330 C 0.92131 0.36707 0.74768 0.0
C331 C 0.97367 0.4204 0.94969 0.0
C332 C 0.99242 0.42726 0.9856 0.0
C333 C 1.00317 0.44531 0.01723 0.0
C334 C 1.02115 0.45176 0.04867 0.0
C335 C 0.02861 0.44025 0.04828 0.0
C336 C 1.01751 0.42202 0.02039 0.0
C337 C 0.99966 0.41561 0.98951 0.0
C338 C 0.9466 0.35583 0.9648 0.0
C339 C 0.92659 0.37144 0.1619 0.0
O340 O 0.88968 0.32202 0.90901 0.0
O341 O 0.87888 0.329 0.03699 0.0
O342 O 0.88792 0.36647 0.94763 0.0
O343 O 0.91595 0.38021 0.94543 0.0
O344 O 0.90978 0.3527 0.79967 0.0
O345 O 0.93414 0.38248 0.7875 0.0
O346 O 0.96101 0.41449 0.01709 0.0
O347 O 0.9689 0.40977 0.8726 0.0
O348 O 0.96082 0.37183 0.95774 0.0
O349 O 0.93276 0.35756 0.96371 0.0
O350 O 0.93788 0.38574 0.10914 0.0
O351 O 0.91414 0.35585 0.12263 0.0
H352 H 0.86529 0.29558 0.80649 0.0
H353 H 0.83445 0.27213 0.763 0.0
H354 H 0.8143 0.28342 0.02835 0.0
H355 H 0.84492 0.30712 0.06987 0.0
H356 H 0.99775 0.45445 0.01606 0.0
H357 H 0.02941 0.46586 0.06987 0.0
H358 H 0.02277 0.41273 0.02092 0.0
H359 H 0.99162 0.40159 0.96702 0.0
Nd360 Nd 0.72774 0.14883 0.71816 0.0
Nd361 Nd 0.69336 0.15576 0.74036 0.0
C362 C 0.76014 0.15182 0.69628 0.0
C363 C 0.76737 0.14023 0.66216 0.0
C364 C 0.78616 0.14764 0.65 0.0
C365 C 0.7932 0.13686 0.61603 0.0
C366 C 0.78154 0.11844 0.59325 0.0
C367 C 0.76266 0.1111 0.60537 0.0
C368 C 0.75565 0.12189 0.63934 0.0
C369 C 0.69517 0.11629 0.73018 0.0
C370 C 0.70686 0.15039 0.52061 0.0
C371 C 0.66145 0.15429 0.73268 0.0
C372 C 0.64848 0.15983 0.76966 0.0
C373 C 0.63688 0.1509 0.84915 0.0
C374 C 0.62293 0.15449 0.8739 0.0
C375 C 0.62015 0.16699 0.81929 0.0
C376 C 0.63201 0.17609 0.74089 0.0
C377 C 0.64595 0.17257 0.71657 0.0
C378 C 0.72755 0.18568 0.76288 0.0
C379 C 0.71289 0.15228 0.93543 0.0
O380 O 0.75241 0.15676 0.62939 0.0
O381 O 0.75116 0.14719 0.77904 0.0
O382 O 0.71079 0.11726 0.7184 0.0
O383 O 0.69765 0.13211 0.73091 0.0
O384 O 0.72163 0.15122 0.55794 0.0
O385 O 0.69389 0.15019 0.57536 0.0
O386 O 0.66432 0.14288 0.78391 0.0
O387 O 0.67582 0.16623 0.68418 0.0
O388 O 0.7131 0.1842 0.80468 0.0
O389 O 0.72318 0.17262 0.70485 0.0
O390 O 0.69714 0.14885 0.89698 0.0
O391 O 0.7273 0.15596 0.881 0.0
H392 H 0.7954 0.16182 0.66644 0.0
H393 H 0.80776 0.14302 0.6065 0.0
H394 H 0.75328 0.09692 0.58992 0.0
H395 H 0.74109 0.11592 0.64785 0.0
H396 H 0.63826 0.14081 0.89085 0.0
H397 H 0.61426 0.14736 0.93545 0.0
H398 H 0.63017 0.18552 0.69562 0.0
H399 H 0.65435 0.17939 0.65359 0.0
Nd400 Nd 0.92154 0.59943 0.71984 0.0
Nd401 Nd 0.91648 0.56095 0.73993 0.0
C402 C 0.91996 0.62923 0.67973 0.0
C403 C 0.93248 0.6472 0.63781 0.0
C404 C 0.92984 0.66196 0.65607 0.0
C405 C 0.9425 0.67939 0.62282 0.0
C406 C 0.95803 0.68233 0.5709 0.0
C407 C 0.96019 0.66729 0.54977 0.0
C408 C 0.94763 0.64995 0.58343 0.0
C409 C 0.95289 0.59936 0.76622 0.0
C410 C 0.92178 0.57878 0.51936 0.0
C411 C 0.91943 0.53131 0.73614 0.0
C412 C 0.91726 0.51433 0.78042 0.0
C413 C 0.9306 0.5148 0.84368 0.0
C414 C 0.93029 0.49875 0.87119 0.0
C415 C 0.91668 0.48179 0.83587 0.0
C416 C 0.90296 0.48129 0.77552 0.0
C417 C 0.90328 0.49735 0.74796 0.0
C418 C 0.88521 0.56309 0.7624 0.0
C419 C 0.91752 0.58225 0.9352 0.0
O420 O 0.91408 0.61539 0.62048 0.0
O421 O 0.92452 0.62587 0.7652 0.0
O422 O 0.94934 0.61175 0.79445 0.0
O423 O 0.94096 0.58844 0.70734 0.0
O424 O 0.92498 0.59424 0.55904 0.0
O425 O 0.91794 0.56429 0.57256 0.0
O426 O 0.93212 0.547 0.77005 0.0
O427 O 0.90512 0.53172 0.70305 0.0
O428 O 0.88847 0.55204 0.8131 0.0
O429 O 0.89766 0.57155 0.70115 0.0
O430 O 0.92308 0.57163 0.8966 0.0
O431 O 0.91203 0.59137 0.87929 0.0
H432 H 0.91823 0.66007 0.69817 0.0
H433 H 0.94047 0.69064 0.64107 0.0
H434 H 0.9718 0.66895 0.50841 0.0
H435 H 0.94992 0.63873 0.56853 0.0
H436 H 0.9417 0.52763 0.86937 0.0
H437 H 0.94093 0.49969 0.91898 0.0
H438 H 0.89237 0.46856 0.74584 0.0
H439 H 0.89297 0.49649 0.69776 0.0
Nd440 Nd 0.47249 0.34737 0.70723 0.0
Nd441 Nd 0.51141 0.38339 0.7324 0.0
C442 C 0.44438 0.31444 0.6792 0.0
C443 C 0.42552 0.30821 0.64686 0.0
C444 C 0.41618 0.29265 0.58816 0.0
C445 C 0.39919 0.288 0.54742 0.0
C446 C 0.39144 0.29903 0.56354 0.0
C447 C 0.4006 0.31427 0.62472 0.0
C448 C 0.41739 0.31876 0.66615 0.0
C449 C 0.46734 0.37676 0.73108 0.0
C450 C 0.49375 0.36953 0.51074 0.0
C451 C 0.54054 0.41637 0.7298 0.0
C452 C 0.55757 0.43102 0.77495 0.0
C453 C 0.55715 0.44399 0.837 0.0
C454 C 0.5733 0.45954 0.86571 0.0
C455 C 0.59032 0.46262 0.83275 0.0
C456 C 0.59074 0.4493 0.77351 0.0
C457 C 0.5746 0.43375 0.74482 0.0
C458 C 0.51037 0.35047 0.7488 0.0
C459 C 0.48976 0.36243 0.92618 0.0
O460 O 0.45685 0.32318 0.61293 0.0
O461 O 0.44909 0.3221 0.76565 0.0
O462 O 0.45456 0.36038 0.71335 0.0
O463 O 0.48244 0.37728 0.72749 0.0
O464 O 0.4804 0.3544 0.54756 0.0
O465 O 0.50602 0.38279 0.56615 0.0
O466 O 0.52478 0.41284 0.76568 0.0
O467 O 0.54037 0.40203 0.69349 0.0
O468 O 0.52153 0.36476 0.79911 0.0
O469 O 0.50145 0.35438 0.68975 0.0
O470 O 0.50086 0.3786 0.88857 0.0
O471 O 0.48016 0.34783 0.87065 0.0
H472 H 0.42226 0.28439 0.57167 0.0
H473 H 0.39245 0.27621 0.50039 0.0
H474 H 0.39485 0.32288 0.63972 0.0
H475 H 0.42418 0.33074 0.71155 0.0
H476 H 0.54431 0.44248 0.86084 0.0
H477 H 0.57239 0.46931 0.91262 0.0
H478 H 0.60351 0.45122 0.74555 0.0
H479 H 0.57545 0.42423 0.69561 0.0
Nd480 Nd 0.39271 0.91231 0.30839 0.0
Nd481 Nd 0.35618 0.91806 0.28998 0.0
C482 C 0.42674 0.91914 0.31851 0.0
C483 C 0.44118 0.91609 0.27688 0.0
C484 C 0.45386 0.92866 0.21029 0.0
C485 C 0.4691 0.92753 0.18168 0.0
C486 C 0.47218 0.91388 0.21932 0.0
C487 C 0.45918 0.90095 0.28357 0.0
C488 C 0.44391 0.90208 0.3122 0.0
C489 C 0.36004 0.87996 0.28191 0.0
C490 C 0.37608 0.91389 0.09214 0.0
C491 C 0.32415 0.91602 0.29664 0.0
C492 C 0.31848 0.92811 0.34312 0.0
C493 C 0.30046 0.92146 0.37352 0.0
C494 C 0.29548 0.93286 0.42229 0.0
C495 C 0.30852 0.95108 0.44217 0.0
C496 C 0.3265 0.95766 0.41039 0.0
C497 C 0.3314 0.94632 0.36186 0.0
C498 C 0.38897 0.95045 0.30588 0.0
C499 C 0.37158 0.91429 0.50635 0.0
O500 O 0.42169 0.92901 0.2679 0.0
O501 O 0.41336 0.90602 0.368 0.0
O502 O 0.37572 0.88074 0.29044 0.0
O503 O 0.36273 0.89584 0.2875 0.0
O504 O 0.39031 0.91618 0.14431 0.0
O505 O 0.36079 0.91179 0.13157 0.0
O506 O 0.32888 0.90709 0.3572 0.0
O507 O 0.33523 0.92286 0.22176 0.0
O508 O 0.3734 0.94964 0.29629 0.0
O509 O 0.38604 0.93449 0.31036 0.0
O510 O 0.35781 0.91274 0.45308 0.0
O511 O 0.38688 0.91639 0.46805 0.0
H512 H 0.45233 0.93976 0.18236 0.0
H513 H 0.47861 0.93755 0.1309 0.0
H514 H 0.46114 0.89035 0.31502 0.0
H515 H 0.4346 0.89232 0.36468 0.0
H516 H 0.29029 0.90741 0.36058 0.0
H517 H 0.28155 0.92733 0.44624 0.0
H518 H 0.33684 0.97168 0.42257 0.0
H519 H 0.34538 0.95183 0.3395 0.0
Nd520 Nd 0.16227 0.50428 0.27992 0.0
Nd521 Nd 0.15555 0.46299 0.29726 0.0
C522 C 0.15722 0.5325 0.26592 0.0
C523 C 0.16234 0.55039 0.222 0.0
C524 C 0.14897 0.55259 0.17334 0.0
C525 C 0.1525 0.56979 0.14323 0.0
C526 C 0.1695 0.5853 0.16147 0.0
C527 C 0.18311 0.583 0.20738 0.0
C528 C 0.17956 0.56575 0.2375 0.0
C529 C 0.19431 0.50272 0.26807 0.0
C530 C 0.16183 0.48209 0.08383 0.0
C531 C 0.15686 0.43305 0.33293 0.0
C532 C 0.14687 0.41602 0.38963 0.0
C533 C 0.14472 0.41605 0.49162 0.0
C534 C 0.13473 0.39969 0.5426 0.0
C535 C 0.12661 0.38295 0.49271 0.0
C536 C 0.12906 0.38301 0.3909 0.0
C537 C 0.13912 0.39935 0.34013 0.0
C538 C 0.12539 0.46571 0.25863 0.0
C539 C 0.15742 0.48556 0.49856 0.0
O540 O 0.14829 0.51785 0.21203 0.0
O541 O 0.16838 0.53152 0.32909 0.0
O542 O 0.19423 0.51795 0.26013 0.0
O543 O 0.1783 0.49054 0.28153 0.0
O544 O 0.15748 0.49377 0.12169 0.0
O545 O 0.1656 0.47151 0.13922 0.0
O546 O 0.16654 0.44822 0.38142 0.0
O547 O 0.14821 0.43486 0.25822 0.0
O548 O 0.12729 0.4521 0.23241 0.0
O549 O 0.13824 0.47634 0.31459 0.0
O550 O 0.15622 0.47075 0.45921 0.0
O551 O 0.15869 0.49923 0.44574 0.0
H552 H 0.13553 0.54103 0.16119 0.0
H553 H 0.14179 0.57096 0.10673 0.0
H554 H 0.1963 0.59462 0.22352 0.0
H555 H 0.19013 0.56456 0.2756 0.0
H556 H 0.15056 0.42869 0.53197 0.0
H557 H 0.13326 0.40015 0.6211 0.0
H558 H 0.12274 0.37045 0.34972 0.0
H559 H 0.14058 0.39896 0.26153 0.0
Nd560 Nd 0.56911 0.68332 0.30629 0.0
Nd561 Nd 0.6086 0.71991 0.28764 0.0
C562 C 0.54217 0.64928 0.31548 0.0
C563 C 0.52324 0.63642 0.28329 0.0
C564 C 0.51981 0.62589 0.19818 0.0
C565 C 0.50206 0.61237 0.17412 0.0
C566 C 0.48731 0.60892 0.23501 0.0
C567 C 0.49078 0.61968 0.31933 0.0
C568 C 0.50847 0.63321 0.34308 0.0
C569 C 0.56664 0.71471 0.28242 0.0
C570 C 0.58493 0.70129 0.09205 0.0
C571 C 0.63773 0.75241 0.30646 0.0
C572 C 0.65626 0.75894 0.34455 0.0
C573 C 0.66567 0.77569 0.39322 0.0
C574 C 0.68361 0.78228 0.42528 0.0
C575 C 0.69237 0.77224 0.40818 0.0
C576 C 0.6826 0.7551 0.36348 0.0
C577 C 0.6647 0.74847 0.33246 0.0
C578 C 0.60887 0.68816 0.26077 0.0
C579 C 0.5918 0.70327 0.50704 0.0
O580 O 0.55529 0.65499 0.25063 0.0
O581 O 0.54456 0.66176 0.37957 0.0
O582 O 0.55234 0.69858 0.2851 0.0
O583 O 0.58013 0.71272 0.29179 0.0
O584 O 0.57565 0.68609 0.14276 0.0
O585 O 0.59595 0.71716 0.13445 0.0
O586 O 0.62465 0.74555 0.37105 0.0
O587 O 0.63347 0.74298 0.22526 0.0
O588 O 0.62078 0.70373 0.22478 0.0
O589 O 0.59866 0.69008 0.32147 0.0
O590 O 0.60464 0.71634 0.45369 0.0
O591 O 0.57768 0.68883 0.46813 0.0
H592 H 0.53088 0.62784 0.15099 0.0
H593 H 0.49994 0.60457 0.10795 0.0
H594 H 0.47991 0.61728 0.36916 0.0
H595 H 0.51061 0.64081 0.41009 0.0
H596 H 0.65928 0.78383 0.40453 0.0
H597 H 0.69087 0.79552 0.45957 0.0
H598 H 0.68898 0.74699 0.35063 0.0
H599 H 0.65759 0.73532 0.29712 0.0
Nd600 Nd 0.39325 0.48203 0.06963 0.0
Nd601 Nd 0.35878 0.48877 0.09117 0.0
C602 C 0.42592 0.48585 0.04451 0.0
C603 C 0.43422 0.47519 1.00876 0.0
C604 C 0.44424 0.48024 0.92117 0.0
C605 C 0.45195 0.47021 0.88507 0.0
C606 C 0.44986 0.4549 0.93604 0.0
C607 C 0.44016 0.45011 0.02487 0.0
C608 C 0.43239 0.46009 0.06071 0.0
C609 C 0.36084 0.44938 0.08579 0.0
C610 C 0.37195 0.48285 0.87182 0.0
C611 C 0.327 0.48753 0.08409 0.0
C612 C 0.31453 0.49344 0.12414 0.0
C613 C 0.30152 0.48301 0.1954 0.0
C614 C 0.28796 0.48699 0.22196 0.0
C615 C 0.28697 0.50143 0.17738 0.0
C616 C 0.30032 0.51216 0.10813 0.0
C617 C 0.31388 0.5082 0.08176 0.0
C618 C 0.39288 0.51879 0.11213 0.0
C619 C 0.37846 0.48566 0.28668 0.0
O620 O 0.41779 0.49054 0.9787 0.0
O621 O 0.41725 0.48121 0.12835 0.0
O622 O 0.3765 0.45041 0.07387 0.0
O623 O 0.36322 0.46517 0.08402 0.0
O624 O 0.38669 0.48362 0.90922 0.0
O625 O 0.3591 0.48289 0.92644 0.0
O626 O 0.32973 0.4759 0.13413 0.0
O627 O 0.34137 0.49937 0.03531 0.0
O628 O 0.37848 0.51732 0.15442 0.0
O629 O 0.38849 0.50565 0.05474 0.0
O630 O 0.36268 0.48212 0.24817 0.0
O631 O 0.39289 0.48937 0.23225 0.0
H632 H 0.44594 0.49188 0.87986 0.0
H633 H 0.45913 0.47416 0.81598 0.0
H634 H 0.4385 0.43855 0.06683 0.0
H635 H 0.42488 0.45588 0.12876 0.0
H636 H 0.30146 0.4714 0.22866 0.0
H637 H 0.27808 0.47857 0.27652 0.0
H638 H 0.29988 0.5232 0.07105 0.0
H639 H 0.32345 0.51632 0.02527 0.0
Nd640 Nd 0.59216 0.93675 0.07613 0.0
Nd641 Nd 0.58703 0.89501 0.09938 0.0
C642 C 0.5892 0.96595 0.05102 0.0
C643 C 0.60111 0.98345 1.00202 0.0
C644 C 0.59435 0.99469 0.97061 0.0
C645 C 0.60574 1.01106 0.92167 0.0
C646 C 0.62405 0.01636 0.90295 0.0
C647 C 0.63072 1.00509 0.9358 0.0
C648 C 0.61939 0.98884 0.98426 0.0
C649 C 0.62494 0.93684 0.07132 0.0
C650 C 0.58886 0.9129 0.88075 0.0
C651 C 0.59428 0.86822 0.10525 0.0
C652 C 0.5916 0.8508 0.14327 0.0
C653 C 0.60646 0.84793 0.14139 0.0
C654 C 0.60445 0.83118 0.16825 0.0
C655 C 0.58751 0.81681 0.19907 0.0
C656 C 0.57258 0.8198 0.20198 0.0
C657 C 0.5746 0.83664 0.17394 0.0
C658 C 0.55439 0.89521 0.11136 0.0
C659 C 0.58853 0.91808 0.29489 0.0
O660 O 0.58124 0.95174 0.99334 0.0
O661 O 0.59583 0.96284 0.13102 0.0
O662 O 0.62375 0.95138 0.06244 0.0
O663 O 0.60915 0.92361 0.07994 0.0
O664 O 0.58655 0.92592 0.91887 0.0
O665 O 0.59147 0.90137 0.93451 0.0
O666 O 0.60297 0.88287 0.15942 0.0
O667 O 0.58161 0.86805 0.04914 0.0
O668 O 0.55547 0.8805 0.12016 0.0
O669 O 0.57012 0.90821 0.0962 0.0
O670 O 0.59111 0.9051 0.25789 0.0
O671 O 0.58624 0.9298 0.24027 0.0
H672 H 0.58026 0.99074 0.98326 0.0
H673 H 0.60014 0.01937 0.89694 0.0
H674 H 0.64481 1.00887 0.92471 0.0
H675 H 0.62496 0.98048 1.00782 0.0
H676 H 0.61964 0.85858 0.11662 0.0
H677 H 0.6162 0.82942 0.16236 0.0
H678 H 0.55936 0.80919 0.22614 0.0
H679 H 0.56289 0.83853 0.17534 0.0
Nd680 Nd 0.13665 0.68318 0.0766 0.0
Nd681 Nd 0.17867 0.71553 0.09785 0.0
C682 C 0.10662 0.65172 0.0504 0.0
C683 C 0.08884 0.64458 0.99956 0.0
C684 C 0.08516 0.63424 0.91352 0.0
C685 C 0.06811 0.62682 0.86774 0.0
C686 C 0.05432 0.62941 0.90768 0.0
C687 C 0.05813 0.63997 0.99292 0.0
C688 C 0.07513 0.64742 0.03833 0.0
C689 C 0.13885 0.71669 0.06499 0.0
C690 C 0.16127 0.70297 0.88195 0.0
C691 C 0.20936 0.74598 0.13197 0.0
C692 C 0.22659 0.76315 0.15138 0.0
C693 C 0.2265 0.77736 0.20326 0.0
C694 C 0.24271 0.7937 0.22004 0.0
C695 C 0.25944 0.79626 0.18527 0.0
C696 C 0.25946 0.78196 0.1335 0.0
C697 C 0.24326 0.76562 0.11689 0.0
C698 C 0.17226 0.68024 0.08891 0.0
C699 C 0.1542 0.69694 0.29733 0.0
O700 O 0.12115 0.65713 0.99584 0.0
O701 O 0.10948 0.66217 0.12671 0.0
O702 O 0.1237 0.70139 0.05831 0.0
O703 O 0.15168 0.71341 0.07352 0.0
O704 O 0.14863 0.68754 0.92132 0.0
O705 O 0.17264 0.71705 0.93585 0.0
O706 O 0.19358 0.74316 0.16314 0.0
O707 O 0.20878 0.73245 0.08311 0.0
O708 O 0.18716 0.69412 0.057 0.0
O709 O 0.16269 0.68567 0.13011 0.0
O710 O 0.16925 0.71035 0.25844 0.0
O711 O 0.14082 0.68426 0.2437 0.0
H712 H 0.0954 0.63172 0.88217 0.0
H713 H 0.06559 0.61871 0.80237 0.0
H714 H 0.04795 0.64255 0.02458 0.0
H715 H 0.07743 0.65532 0.10434 0.0
H716 H 0.21389 0.77589 0.23093 0.0
H717 H 0.24213 0.80425 0.26132 0.0
H718 H 0.27199 0.78346 0.10427 0.0
H719 H 0.2438 0.75497 0.07632 0.0
H720 H 0.12376 0.34963 0.46646 0.0
H721 H 0.10198 0.37721 0.63604 0.0
H722 H 0.07963 0.3485 0.70871 0.0
H723 H 0.06378 0.31536 0.7087 0.0
H724 H 0.08403 0.28712 0.53465 0.0
H725 H 0.10953 0.31622 0.4796 0.0
C726 C 0.11418 0.34936 0.51967 0.0
C727 C 0.11451 0.36562 0.54492 0.0
C728 C 0.10105 0.33267 0.56014 0.0
C729 C 0.10221 0.36503 0.6156 0.0
C730 C 0.0893 0.34857 0.65681 0.0
C731 C 0.07404 0.31561 0.66046 0.0
C732 C 0.0721 0.29921 0.62569 0.0
C733 C 0.08828 0.3323 0.62761 0.0
C734 C 0.08541 0.2996 0.56339 0.0
C735 C 0.09984 0.31624 0.531 0.0
H736 H 0.77463 0.79431 0.42054 0.0
H737 H 0.76935 0.80455 0.72384 0.0
H738 H 0.73818 0.79851 0.69225 0.0
H739 H 0.71126 0.78665 0.57967 0.0
H740 H 0.71762 0.77546 0.27883 0.0
H741 H 0.74956 0.78549 0.30791 0.0
C742 C 0.76674 0.79547 0.4796 0.0
C743 C 0.77405 0.79962 0.5744 0.0
C744 C 0.74894 0.79154 0.46128 0.0
C745 C 0.76391 0.80139 0.65013 0.0
C746 C 0.74607 0.79776 0.63211 0.0
C747 C 0.71977 0.78666 0.52063 0.0
C748 C 0.71207 0.78004 0.42756 0.0
C749 C 0.73823 0.79225 0.53836 0.0
C750 C 0.72318 0.78016 0.35135 0.0
C751 C 0.74145 0.78595 0.36778 0.0
H752 H 0.30466 1.01352 0.67064 0.0
H753 H 0.25496 0.99308 0.50619 0.0
H754 H 0.25863 0.96813 0.44372 0.0
H755 H 0.27802 0.95425 0.42174 0.0
H756 H 0.32823 0.97558 0.58467 0.0
H757 H 0.32251 0.99814 0.66054 0.0
C758 C 0.29446 1.00338 0.62256 0.0
C759 C 0.27934 1.00489 0.59453 0.0
C760 C 0.29701 0.98945 0.58496 0.0
C761 C 0.26632 0.9918 0.53161 0.0
C762 C 0.26863 0.97773 0.49451 0.0
C763 C 0.28754 0.96361 0.47516 0.0
C764 C 0.30371 0.96337 0.49594 0.0
C765 C 0.28417 0.97667 0.51886 0.0
C766 C 0.31591 0.9757 0.56526 0.0
C767 C 0.3126 0.98857 0.60926 0.0
H768 H 0.37885 0.11748 0.9199 0.0
H769 H 0.39056 0.11296 0.6174 0.0
H770 H 0.42213 0.12297 0.65947 0.0
H771 H 0.44578 0.13035 0.78412 0.0
H772 H 0.43415 0.13387 0.08703 0.0
H773 H 0.40339 0.12742 0.04324 0.0
C774 C 0.38838 0.11897 0.86302 0.0
C775 C 0.38224 0.11423 0.76575 0.0
C776 C 0.40658 0.12466 0.88789 0.0
C777 C 0.39479 0.11613 0.69311 0.0
C778 C 0.4129 0.12198 0.71696 0.0
C779 C 0.43661 0.1302 0.83985 0.0
C780 C 0.44215 0.13287 0.93818 0.0
C781 C 0.41886 0.12593 0.81428 0.0
C782 C 0.43017 0.1322 1.01063 0.0
C783 C 0.41256 0.12833 0.98562 0.0
H784 H 0.92828 0.32667 0.84411 0.0
H785 H 0.96845 0.34846 0.07376 0.0
H786 H 0.97676 0.32524 0.04298 0.0
H787 H 0.97528 0.30122 0.93775 0.0
H788 H 0.93691 0.28091 0.69846 0.0
H789 H 0.92514 0.30074 0.74619 0.0
C790 C 0.93839 0.32587 0.88931 0.0
C791 C 0.9476 0.33903 0.96196 0.0
C792 C 0.9437 0.31294 0.86804 0.0
C793 C 0.96106 0.33827 0.01827 0.0
C794 C 0.96594 0.32512 1.00001 0.0
C795 C 0.96431 0.30108 0.89613 0.0
C796 C 0.95713 0.28963 0.81413 0.0
C797 C 0.95783 0.31282 0.92272 0.0
C798 C 0.94265 0.28943 0.76239 0.0
C799 C 0.93595 0.30087 0.7893 0.0
H800 H 0.77379 0.70047 0.92563 0.0
H801 H 0.78959 0.68223 0.66908 0.0
H802 H 0.77021 0.65071 0.7191 0.0
H803 H 0.74577 0.62805 0.82555 0.0
H804 H 0.72838 0.64654 0.07396 0.0
H805 H 0.7514 0.67797 0.03874 0.0
C806 C 0.77306 0.68962 0.88076 0.0
C807 C 0.78312 0.69384 0.7933 0.0
C808 C 0.76158 0.67142 0.90902 0.0
C809 C 0.78218 0.67951 0.73721 0.0
C810 C 0.77098 0.6614 0.76549 0.0
C811 C 0.74755 0.63895 0.87371 0.0
C812 C 0.73568 0.63504 0.95324 0.0
C813 C 0.7603 0.65714 0.85017 0.0
C814 C 0.73762 0.64927 1.01334 0.0
C815 C 0.75063 0.66726 0.99252 0.0
H816 H 0.02932 0.75581 0.47621 0.0
H817 H 0.99109 0.77324 0.40051 0.0
H818 H 0.9657 0.74294 0.44441 0.0
H819 H 0.95475 0.71118 0.50192 0.0
H820 H 0.99444 0.69587 0.58511 0.0
H821 H 1.01892 0.72574 0.54012 0.0
C822 C 1.01543 0.75304 0.46881 0.0
C823 C 1.01204 0.76662 0.43397 0.0
C824 C 1.00119 0.73594 0.49535 0.0
C825 C 0.994 0.76292 0.42675 0.0
C826 C 0.97954 0.74563 0.4518 0.0
C827 C 0.96876 0.71444 0.51066 0.0
C828 C 0.97266 0.70104 0.54491 0.0
C829 C 0.98299 0.73196 0.48594 0.0
C830 C 0.99094 0.70559 0.55608 0.0
C831 C 1.005 0.72277 0.53118 0.0
H832 H 0.32395 0.29945 0.37423 0.0
H833 H 0.29697 0.2438 0.46905 0.0
H834 H 0.32615 0.24691 0.51845 0.0
H835 H 0.35917 0.26685 0.5518 0.0
H836 H 0.38531 0.32307 0.46384 0.0
H837 H 0.35675 0.31849 0.39545 0.0
C838 C 0.32449 0.28789 0.40415 0.0
C839 C 0.30829 0.27131 0.41717 0.0
C840 C 0.34123 0.29007 0.43531 0.0
C841 C 0.3092 0.25651 0.45617 0.0
C842 C 0.32592 0.25842 0.48575 0.0
C843 C 0.35862 0.27799 0.51636 0.0
C844 C 0.37428 0.29535 0.51417 0.0
C845 C 0.34199 0.27531 0.47813 0.0
C846 C 0.37337 0.30968 0.46813 0.0
C847 C 0.35707 0.30706 0.42863 0.0
H848 H 0.76808 0.09296 0.44902 0.0
H849 H 0.81188 0.11783 0.65864 0.0
H850 H 0.82274 0.09725 0.60944 0.0
H851 H 0.81784 0.06989 0.51811 0.0
H852 H 0.77276 0.04433 0.31675 0.0
H853 H 0.76448 0.06741 0.35065 0.0
C854 C 0.77999 0.09389 0.48416 0.0
C855 C 0.78898 0.10681 0.55831 0.0
C856 C 0.78598 0.08182 0.45671 0.0
C857 C 0.80468 0.10807 0.60114 0.0
C858 C 0.81087 0.09623 0.57335 0.0
C859 C 0.80652 0.06972 0.48007 0.0
C860 C 0.79592 0.05549 0.41491 0.0
C861 C 0.80142 0.08278 0.50252 0.0
C862 C 0.7811 0.05519 0.36719 0.0
C863 C 0.77629 0.06832 0.38693 0.0
H864 H 0.63462 0.9191 0.20393 0.0
H865 H 0.65454 0.95634 0.96076 0.0
H866 H 0.68557 0.96301 0.99405 0.0
H867 H 0.7074 0.96099 0.10322 0.0
H868 H 0.68805 0.92588 0.35593 0.0
H869 H 0.65663 0.91546 0.30758 0.0
C870 C 0.64573 0.92822 0.15674 0.0
C871 C 0.64238 0.93711 0.07945 0.0
C872 C 0.66372 0.93262 0.17913 0.0
C873 C 0.65687 0.94927 0.02019 0.0
C874 C 0.67461 0.95319 0.03968 0.0
C875 C 0.69633 0.95105 0.14783 0.0
C876 C 0.7002 0.94441 0.2337 0.0
C877 C 0.67828 0.94545 0.12099 0.0
C878 C 0.68558 0.93119 0.28912 0.0
C879 C 0.66755 0.92528 0.26184 0.0
H880 H 0.1417 0.78625 0.24194 0.0
H881 H 0.09109 0.76391 0.08161 0.0
H882 H 0.0968 0.74115 1.00921 0.0
H883 H 0.11425 0.72545 1.00484 0.0
H884 H 0.16411 0.74629 0.16891 0.0
H885 H 0.16075 0.77182 0.22585 0.0
C886 C 0.13196 0.77644 0.19089 0.0
C887 C 0.11592 0.77682 0.16782 0.0
C888 C 0.13519 0.76309 0.15029 0.0
C889 C 0.10362 0.76416 0.10013 0.0
C890 C 0.10681 0.75101 0.05906 0.0
C891 C 0.12458 0.73581 0.05149 0.0
C892 C 0.13941 0.73407 0.08267 0.0
C893 C 0.1223 0.75009 0.0853 0.0
C894 C 0.15272 0.74752 0.14292 0.0
C895 C 0.15065 0.76197 0.17636 0.0
H896 H 0.35287 0.41533 0.04481 0.0
H897 H 0.33151 0.44564 0.18943 0.0
H898 H 0.30616 0.41736 0.25422 0.0
H899 H 0.29137 0.384 0.2788 0.0
H900 H 0.31345 0.3543 0.13265 0.0
H901 H 0.33697 0.38223 0.05841 0.0
C902 C 0.34249 0.4157 0.08936 0.0
C903 C 0.34401 0.43249 0.11242 0.0
C904 C 0.32811 0.39945 0.12647 0.0
C905 C 0.3305 0.43284 0.16986 0.0
C906 C 0.31611 0.41668 0.20758 0.0
C907 C 0.30131 0.38366 0.23054 0.0
C908 C 0.30059 0.36699 0.21177 0.0
C909 C 0.31498 0.3999 0.18799 0.0
C910 C 0.31347 0.3668 0.14781 0.0
C911 C 0.32704 0.38282 0.10567 0.0
H912 H 0.04922 0.46076 0.20485 0.0
H913 H 0.05199 0.43533 0.93724 0.0
H914 H 0.08312 0.44327 0.97444 0.0
H915 H 0.1083 0.45449 0.08876 0.0
H916 H 0.10671 0.47955 0.3592 0.0
H917 H 0.0766 0.47519 0.31451 0.0
C918 C 0.05679 0.45724 0.15433 0.0
C919 C 0.04818 0.44716 0.0692 0.0
C920 C 0.07484 0.46175 0.17671 0.0
C921 C 0.05815 0.44272 1.00413 0.0
C922 C 0.07599 0.44732 0.02507 0.0
C923 C 0.10147 0.45926 0.13737 0.0
C924 C 0.10949 0.46712 0.22736 0.0
C925 C 0.08426 0.45638 0.11206 0.0
C926 C 0.10073 0.47349 0.28927 0.0
C927 C 0.08348 0.47083 0.26402 0.0
H928 H 0.61088 0.61464 0.21439 0.0
H929 H 0.65035 0.64809 0.99709 0.0
H930 H 0.64434 0.6727 0.03011 0.0
H931 H 0.62915 0.68521 0.12265 0.0
H932 H 0.59041 0.65378 0.34686 0.0
H933 H 0.59464 0.62774 0.30891 0.0
C934 C 0.61803 0.62732 0.17439 0.0
C935 C 0.63116 0.62966 0.10382 0.0
C936 C 0.61467 0.6417 0.19506 0.0
C937 C 0.64037 0.6461 0.05232 0.0
C938 C 0.63691 0.66014 0.07096 0.0
C939 C 0.62155 0.67268 0.16371 0.0
C940 C 0.60962 0.67149 0.23818 0.0
C941 C 0.6243 0.65816 0.14266 0.0
C942 C 0.59974 0.65505 0.28938 0.0
C943 C 0.60222 0.64022 0.26775 0.0
H944 H 0.458 0.01757 0.12835 0.0
H945 H 0.43539 0.04522 0.2902 0.0
H946 H 0.41288 0.01662 0.36307 0.0
H947 H 0.39746 0.98348 0.36748 0.0
H948 H 0.41843 0.95517 0.20021 0.0
H949 H 0.44386 0.98417 0.144 0.0
C950 C 0.44819 0.01733 0.17986 0.0
C951 C 0.4484 0.03358 0.20327 0.0
C952 C 0.43503 1.00069 0.2209 0.0
C953 C 0.43573 0.03303 0.27141 0.0
C954 C 0.42274 0.01663 0.31282 0.0
C955 C 0.4079 0.98372 0.32074 0.0
C956 C 0.40636 0.9673 0.28956 0.0
C957 C 0.42202 1.00037 0.28652 0.0
C958 C 0.41974 0.96766 0.22802 0.0
C959 C 0.43406 0.98426 0.19439 0.0
H960 H 0.68736 0.08272 0.68095 0.0
H961 H 0.6655 0.11184 0.83352 0.0
H962 H 0.6404 0.08308 0.89564 0.0
H963 H 0.62677 0.04985 0.92039 0.0
H964 H 0.64898 0.02132 0.76336 0.0
H965 H 0.67187 0.04964 0.68961 0.0
C966 C 0.6769 0.08273 0.72645 0.0
C967 C 0.67825 0.09929 0.75307 0.0
C968 C 0.66274 0.06626 0.76231 0.0
C969 C 0.66463 0.0992 0.81151 0.0
C970 C 0.65039 0.08278 0.8477 0.0
C971 C 0.6364 0.04979 0.86863 0.0
C972 C 0.63636 0.03347 0.84935 0.0
C973 C 0.64959 0.06623 0.82564 0.0
C974 C 0.64898 0.0337 0.78192 0.0
C975 C 0.66203 0.04989 0.73907 0.0
H976 H 1.02163 0.61248 0.99933 0.0
H977 H 0.04573 0.62775 0.7125 0.0
H978 H 1.01562 0.61676 0.63962 0.0
H979 H 0.98274 0.60612 0.66057 0.0
H980 H 0.95962 0.5932 0.94991 0.0
H981 H 0.98885 0.5997 0.01861 0.0
C982 C 1.02031 0.61338 0.9208 0.0
C983 C 0.03595 0.62118 0.86173 0.0
C984 C 1.00304 0.60735 0.87982 0.0
C985 C 0.03393 0.62181 0.75977 0.0
C986 C 1.01671 0.6156 0.71807 0.0
C987 C 0.98408 0.6042 0.73804 0.0
C988 C 0.96909 0.59889 0.8002 0.0
C989 C 1.00119 0.60872 0.77764 0.0
C990 C 0.97096 0.59695 0.90083 0.0
C991 C 0.98771 0.60085 0.94019 0.0
H992 H 0.4326 0.41832 0.93283 0.0
H993 H 0.4826 0.46544 0.84366 0.0
H994 H 0.49327 0.4458 0.77425 0.0
H995 H 0.48794 0.41456 0.73749 0.0
H996 H 0.43702 0.36845 0.82818 0.0
H997 H 0.42754 0.38828 0.90027 0.0
C998 C 0.44598 0.42437 0.89974 0.0
C999 C 0.45682 0.44332 0.89458 0.0
C1000 C 0.45195 0.41309 0.8602 0.0
C1001 C 0.47391 0.45086 0.84848 0.0
C1002 C 0.48006 0.43963 0.80913 0.0
C1003 C 0.47486 0.40898 0.77348 0.0
C1004 C 0.46318 0.39004 0.77661 0.0
C1005 C 0.46916 0.42063 0.81431 0.0
C1006 C 0.44623 0.38296 0.82338 0.0
C1007 C 0.44073 0.39429 0.86507 0.0
H1008 H 0.14007 0.21398 0.47693 0.0
H1009 H 0.16905 0.27168 0.53138 0.0
H1010 H 0.19799 0.27264 0.50555 0.0
H1011 H 0.21534 0.25689 0.47035 0.0
H1012 H 0.18597 0.19905 0.42165 0.0
H1013 H 0.15713 0.19835 0.44391 0.0
C1014 C 0.15269 0.22676 0.4843 0.0
C1015 C 0.15221 0.24271 0.50612 0.0
C1016 C 0.16935 0.22721 0.47054 0.0
C1017 C 0.16884 0.25918 0.5133 0.0
C1018 C 0.18547 0.25975 0.49917 0.0
C1019 C 0.20261 0.24418 0.46426 0.0
C1020 C 0.20282 0.22805 0.4441 0.0
C1021 C 0.18593 0.24383 0.47786 0.0
C1022 C 0.18621 0.21166 0.43714 0.0
C1023 C 0.16968 0.21124 0.44984 0.0
H1024 H 0.81441 0.97982 0.44628 0.0
H1025 H 0.87299 1.01041 0.46048 0.0
H1026 H 0.87397 0.9825 0.48623 0.0
H1027 H 0.85833 0.94951 0.50788 0.0
H1028 H 0.79968 0.91867 0.50054 0.0
H1029 H 0.79863 0.94636 0.46672 0.0
C1030 C 0.82736 0.98032 0.45442 0.0
C1031 C 0.84362 0.99719 0.4514 0.0
C1032 C 0.82784 0.96413 0.47002 0.0
C1033 C 0.86029 0.99763 0.46255 0.0
C1034 C 0.86087 0.98165 0.47731 0.0
C1035 C 0.84528 0.94879 0.49956 0.0
C1036 C 0.82913 0.93188 0.50704 0.0
C1037 C 0.84474 0.96484 0.4819 0.0
C1038 C 0.81239 0.93135 0.4939 0.0
C1039 C 0.81175 0.94725 0.47535 0.0
H1040 H 0.09429 0.86524 0.32136 0.0
H1041 H 0.06347 0.88313 0.49053 0.0
H1042 H 0.09141 0.91135 0.53199 0.0
H1043 H 0.1248 0.93006 0.52725 0.0
H1044 H 0.15532 0.91293 0.34776 0.0
H1045 H 0.12742 0.88532 0.30403 0.0
C1046 C 0.09376 0.87546 0.36628 0.0
C1047 C 0.07699 0.87229 0.40269 0.0
C1048 C 0.10984 0.8917 0.38873 0.0
C1049 C 0.07631 0.8855 0.46097 0.0
C1050 C 0.09227 0.90155 0.48502 0.0
C1051 C 0.12538 0.92052 0.47698 0.0
C1052 C 0.14234 0.92359 0.4425 0.0
C1053 C 0.10916 0.90474 0.45008 0.0
C1054 C 0.14263 0.91082 0.37802 0.0
C1055 C 0.12663 0.89502 0.35216 0.0
H1056 H 0.22468 0.11602 0.50725 0.0
H1057 H 0.28319 0.1454 0.53104 0.0
H1058 H 0.28304 0.11719 0.56801 0.0
H1059 H 0.26622 0.08374 0.58982 0.0
H1060 H 0.20778 0.05469 0.5618 0.0
H1061 H 0.20802 0.08302 0.52955 0.0
C1062 C 0.23742 0.11627 0.51987 0.0
C1063 C 0.25389 0.1329 0.51639 0.0
C1064 C 0.23727 0.09996 0.54025 0.0
C1065 C 0.27025 0.13289 0.53455 0.0
C1066 C 0.2702 0.11672 0.5551 0.0
C1067 C 0.25357 0.08368 0.57701 0.0
C1068 C 0.237 0.06712 0.57812 0.0
C1069 C 0.25379 0.10012 0.55786 0.0
C1070 C 0.22072 0.06723 0.56117 0.0
C1071 C 0.22083 0.08344 0.54267 0.0
H1072 H 0.93884 0.15552 0.4612 0.0
H1073 H 0.94529 0.12189 0.6758 0.0
H1074 H 0.97533 0.1472 0.71999 0.0
H1075 H 1.00042 0.17891 0.693 0.0
H1076 H 0.99274 0.21225 0.48117 0.0
H1077 H 0.96281 0.18709 0.43999 0.0
C1078 C 0.94686 0.15366 0.51724 0.0
C1079 C 0.93988 0.13673 0.56418 0.0
C1080 C 0.96402 0.16827 0.54259 0.0
C1081 C 0.9503 0.13476 0.63843 0.0
C1082 C 0.96753 0.14922 0.66346 0.0
C1083 C 0.99212 0.18063 0.63826 0.0
C1084 C 0.9989 0.19743 0.58994 0.0
C1085 C 0.97462 0.16604 0.61547 0.0
C1086 C 0.98791 0.1995 0.51965 0.0
C1087 C 0.97076 0.18509 0.49574 0.0
H1088 H 0.93716 0.84058 0.66337 0.0
H1089 H 0.91421 0.80154 0.4286 0.0
H1090 H 0.88523 0.80066 0.44702 0.0
H1091 H 0.86661 0.81177 0.52521 0.0
H1092 H 0.88961 0.85145 0.75644 0.0
H1093 H 0.91837 0.85144 0.74314 0.0
C1094 C 0.92586 0.83193 0.61588 0.0
C1095 C 0.92797 0.8211 0.54486 0.0
C1096 C 0.90923 0.83167 0.62585 0.0
C1097 C 0.913 0.80979 0.48506 0.0
C1098 C 0.89641 0.80939 0.49493 0.0
C1099 C 0.87791 0.82038 0.57291 0.0
C1100 C 0.87602 0.83166 0.64147 0.0
C1101 C 0.8944 0.82035 0.56453 0.0
C1102 C 0.89074 0.84267 0.70299 0.0
C1103 C 0.90719 0.84268 0.69533 0.0
H1104 H 0.85925 0.54957 0.90549 0.0
H1105 H 0.87585 0.5831 0.64651 0.0
H1106 H 0.85014 0.5882 0.66399 0.0
H1107 H 0.82285 0.58313 0.75219 0.0
H1108 H 0.8069 0.55084 0.01611 0.0
H1109 H 0.83208 0.54502 0.99617 0.0
C1110 C 0.85716 0.55793 0.85281 0.0
C1111 C 0.86939 0.56585 0.77452 0.0
C1112 C 0.84236 0.56095 0.86376 0.0
C1113 C 0.86662 0.5768 0.70732 0.0
C1114 C 0.8519 0.57972 0.71722 0.0
C1115 C 0.82491 0.57493 0.80597 0.0
C1116 C 0.81279 0.5674 0.88534 0.0
C1117 C 0.83967 0.57189 0.79518 0.0
C1118 C 0.81568 0.55657 0.95313 0.0
C1119 C 0.83023 0.55334 0.94232 0.0
H1120 H 0.52816 0.33949 0.87394 0.0
H1121 H 0.48694 0.31994 0.64903 0.0
H1122 H 0.48244 0.28937 0.66627 0.0
H1123 H 0.49039 0.26814 0.74404 0.0
H1124 H 0.53131 0.28751 0.97107 0.0
H1125 H 0.53601 0.3181 0.95253 0.0
C1126 C 0.51822 0.32853 0.82871 0.0
C1127 C 0.50789 0.332 0.76037 0.0
C1128 C 0.51576 0.31092 0.83865 0.0
C1129 C 0.49504 0.31764 0.70236 0.0
C1130 C 0.49248 0.30014 0.71203 0.0
C1131 C 0.50027 0.279 0.78999 0.0
C1132 C 0.51052 0.27539 0.85857 0.0
C1133 C 0.50278 0.2966 0.77986 0.0
C1134 C 0.52343 0.28982 0.91633 0.0
C1135 C 0.52603 0.30735 0.90645 0.0
H1136 H 0.73773 0.21864 0.84203 0.0
H1137 H 0.75944 0.18691 0.71816 0.0
H1138 H 0.79046 0.21182 0.74624 0.0
H1139 H 0.81141 0.24253 0.80926 0.0
H1140 H 0.78943 0.27495 0.92287 0.0
H1141 H 0.75865 0.24992 0.89609 0.0
C1142 C 0.74927 0.21721 0.82116 0.0
C1143 C 0.74631 0.20092 0.77845 0.0
C1144 C 0.76706 0.23175 0.83593 0.0
C1145 C 0.76137 0.19931 0.75101 0.0
C1146 C 0.77911 0.21356 0.76717 0.0
C1147 C 0.79994 0.24428 0.82688 0.0
C1148 C 0.80292 0.26069 0.8692 0.0
C1149 C 0.78214 0.22987 0.80967 0.0
C1150 C 0.78771 0.26244 0.8924 0.0
C1151 C 0.77003 0.24813 0.87651 0.0
H1152 H 0.88818 0.4479 0.87609 0.0
H1153 H 0.94655 0.47732 0.84455 0.0
H1154 H 0.94755 0.44954 0.87627 0.0
H1155 H 0.93168 0.41643 0.90916 0.0
H1156 H 0.87326 0.38721 0.93621 0.0
H1157 H 0.87246 0.41517 0.90887 0.0
C1158 C 0.90113 0.44826 0.87549 0.0
C1159 C 0.91725 0.46481 0.8581 0.0
C1160 C 0.90161 0.43216 0.89269 0.0
C1161 C 0.93392 0.46492 0.85922 0.0
C1162 C 0.9345 0.44897 0.87663 0.0
C1163 C 0.91881 0.41624 0.90935 0.0
C1164 C 0.90254 0.39974 0.92472 0.0
C1165 C 0.91843 0.43246 0.89313 0.0
C1166 C 0.88597 0.3997 0.92447 0.0
C1167 C 0.88549 0.41571 0.90884 0.0
H1168 H 0.62398 0.46743 0.87634 0.0
H1169 H 0.59539 0.49715 0.8408 0.0
H1170 H 0.62341 0.52561 0.87396 0.0
H1171 H 0.65656 0.54239 0.90863 0.0
H1172 H 0.68492 0.51241 0.93991 0.0
H1173 H 0.6567 0.48397 0.91144 0.0
C1174 C 0.62385 0.48012 0.87517 0.0
C1175 C 0.60745 0.47999 0.85616 0.0
C1176 C 0.6401 0.49652 0.89318 0.0
C1177 C 0.60765 0.49666 0.85666 0.0
C1178 C 0.62375 0.51303 0.87489 0.0
C1179 C 0.6565 0.52961 0.90968 0.0
C1180 C 0.67285 0.52954 0.92654 0.0
C1181 C 0.64011 0.51317 0.89286 0.0
C1182 C 0.67256 0.51287 0.9271 0.0
C1183 C 0.6564 0.49656 0.91082 0.0
H1184 H 0.58554 0.14241 0.88031 0.0
H1185 H 0.61994 0.1991 0.80832 0.0
H1186 H 0.5945 0.20431 0.83204 0.0
H1187 H 0.5623 0.19289 0.87171 0.0
H1188 H 0.52832 0.13684 0.95236 0.0
H1189 H 0.55371 0.13133 0.92861 0.0
C1190 C 0.58761 0.15598 0.87127 0.0
C1191 C 0.60474 0.17027 0.84135 0.0
C1192 C 0.57292 0.15903 0.88671 0.0
C1193 C 0.60691 0.1877 0.82903 0.0
C1194 C 0.59236 0.19076 0.8432 0.0
C1195 C 0.56049 0.17948 0.88411 0.0
C1196 C 0.54346 0.16528 0.91442 0.0
C1197 C 0.57527 0.17652 0.87125 0.0
C1198 C 0.54133 0.14801 0.93067 0.0
C1199 C 0.55586 0.14486 0.91646 0.0
H1200 H 0.5509 0.92542 0.13218 0.0
H1201 H 0.52007 0.86692 0.12311 0.0
H1202 H 0.49201 0.86745 0.15279 0.0
H1203 H 0.47612 0.88435 0.18422 0.0
H1204 H 0.50682 0.94283 0.20037 0.0
H1205 H 0.53479 0.94248 0.16396 0.0
C1206 C 0.538 0.91283 0.13615 0.0
C1207 C 0.53756 0.89615 0.12535 0.0
C1208 C 0.52183 0.9132 0.1545 0.0
C1209 C 0.52078 0.87994 0.13129 0.0
C1210 C 0.50471 0.88021 0.14833 0.0
C1211 C 0.48892 0.89704 0.18047 0.0
C1212 C 0.48922 0.91358 0.19487 0.0
C1213 C 0.50506 0.89674 0.16082 0.0
C1214 C 0.50601 0.92987 0.1881 0.0
C1215 C 0.5221 0.9297 0.16794 0.0
H1216 H 0.19539 0.66732 0.0504 0.0
H1217 H 0.14113 0.65086 0.14987 0.0
H1218 H 0.13531 0.62009 0.17818 0.0
H1219 H 0.14602 0.59818 0.18277 0.0
H1220 H 0.20032 0.61426 0.08522 0.0
H1221 H 0.20582 0.64481 0.04997 0.0
C1222 C 0.18225 0.65692 0.07731 0.0
C1223 C 0.1687 0.66137 0.09779 0.0
C1224 C 0.17907 0.63921 0.09505 0.0
C1225 C 0.15178 0.6478 0.13333 0.0
C1226 C 0.14845 0.63019 0.14989 0.0
C1227 C 0.15898 0.60824 0.1523 0.0
C1228 C 0.17271 0.60381 0.13656 0.0
C1229 C 0.16205 0.62578 0.13206 0.0
C1230 C 0.18955 0.61726 0.09913 0.0
C1231 C 0.19268 0.63474 0.07838 0.0
H1232 H 0.47676 0.57533 0.1575 0.0
H1233 H 0.45514 0.60862 0.26242 0.0
H1234 H 0.42427 0.58364 0.23699 0.0
H1235 H 0.40319 0.55214 0.18649 0.0
H1236 H 0.42465 0.5196 0.07105 0.0
H1237 H 0.45571 0.54444 0.0979 0.0
C1238 C 0.46535 0.57728 0.17344 0.0
C1239 C 0.46844 0.59391 0.21289 0.0
C1240 C 0.44752 0.56291 0.15697 0.0
C1241 C 0.45331 0.59593 0.23411 0.0
C1242 C 0.43559 0.58165 0.21901 0.0
C1243 C 0.41469 0.55052 0.16721 0.0
C1244 C 0.41165 0.53402 0.12714 0.0
C1245 C 0.43251 0.56503 0.18121 0.0
C1246 C 0.42665 0.53216 0.1017 0.0
C1247 C 0.44441 0.54638 0.1172 0.0
H1248 H 0.59464 0.74847 0.31725 0.0
H1249 H 0.53981 0.71991 0.20584 0.0
H1250 H 0.54119 0.7489 0.17084 0.0
H1251 H 0.55843 0.78245 0.16818 0.0
H1252 H 0.61246 0.81058 0.29313 0.0
H1253 H 0.61098 0.78175 0.32551 0.0
C1254 C 0.58299 0.74862 0.28539 0.0
C1255 C 0.56719 0.73213 0.26348 0.0
C1256 C 0.58378 0.76529 0.26746 0.0
C1257 C 0.55213 0.73247 0.22325 0.0
C1258 C 0.55293 0.74903 0.20321 0.0
C1259 C 0.56979 0.78233 0.20395 0.0
C1260 C 0.58567 0.79888 0.22636 0.0
C1261 C 0.56872 0.76556 0.22482 0.0
C1262 C 0.60024 0.79823 0.27214 0.0
C1263 C 0.59938 0.78169 0.29156 0.0
H1264 H 0.32646 0.87616 0.2449 0.0
H1265 H 0.35409 0.84568 0.28702 0.0
H1266 H 0.32564 0.81731 0.26258 0.0
H1267 H 0.29295 0.80099 0.2292 0.0
H1268 H 0.26502 0.83105 0.18103 0.0
H1269 H 0.29331 0.85954 0.2094 0.0
C1270 C 0.32619 0.86329 0.24892 0.0
C1271 C 0.34238 0.86304 0.26782 0.0
C1272 C 0.30968 0.84689 0.23403 0.0
C1273 C 0.34184 0.84626 0.27246 0.0
C1274 C 0.32555 0.83 0.25851 0.0
C1275 C 0.29303 0.81375 0.22374 0.0
C1276 C 0.27676 0.81374 0.2028 0.0
C1277 C 0.3094 0.83013 0.2389 0.0
C1278 C 0.2772 0.83051 0.19824 0.0
C1279 C 0.29345 0.84688 0.21384 0.0
H1280 H 0.25117 0.47638 0.20665 0.0
H1281 H 0.28824 0.53419 0.19633 0.0
H1282 H 0.263 0.53976 0.22252 0.0
H1283 H 0.23014 0.52822 0.24653 0.0
H1284 H 0.19345 0.47044 0.26007 0.0
H1285 H 0.21874 0.46489 0.23636 0.0
C1286 C 0.25383 0.49022 0.21172 0.0
C1287 C 0.27167 0.50482 0.19928 0.0
C1288 C 0.23925 0.49335 0.22745 0.0
C1289 C 0.27467 0.52265 0.20423 0.0
C1290 C 0.26023 0.52587 0.2197 0.0
C1291 C 0.22775 0.51444 0.24449 0.0
C1292 C 0.20996 0.49977 0.25522 0.0
C1293 C 0.24243 0.51134 0.2308 0.0
C1294 C 0.20702 0.48197 0.25255 0.0
C1295 C 0.22149 0.47878 0.23872 0.0
H1296 H 0.05873 0.24795 0.27014 0.0
H1297 H 1.00835 0.24865 0.29506 0.0
H1298 H 1.00542 0.2478 0.11733 0.0
H1299 H 1.01699 0.24671 0.95475 0.0
H1300 H 0.0675 0.24629 0.92964 0.0
H1301 H 0.07044 0.24712 0.1075 0.0
C1302 C 0.0471 0.24795 0.23691 0.0
C1303 C 0.03379 0.24836 0.29632 0.0
C1304 C 0.04547 0.24745 0.13445 0.0
C1305 C 1.01886 0.24839 0.2515 0.0
C1306 C 1.01713 0.24786 0.14967 0.0
C1307 C 0.02863 0.24674 0.98799 0.0
C1308 C 0.04197 0.24639 0.92856 0.0
C1309 C 0.03032 0.24734 0.09044 0.0
C1310 C 0.05701 0.24657 0.9733 0.0
C1311 C 0.05872 0.24704 0.07517 0.0
H1312 H 0.82743 0.79664 0.28204 0.0
H1313 H 0.82697 0.84698 0.31133 0.0
H1314 H 0.82494 0.84885 0.13404 0.0
H1315 H 0.82306 0.83615 0.97096 0.0
H1316 H 0.82325 0.78568 0.9412 0.0
H1317 H 0.82549 0.78389 0.11852 0.0
C1318 C 0.82702 0.8081 0.24963 0.0
C1319 C 0.82741 0.82167 0.30989 0.0
C1320 C 0.82565 0.80901 0.14759 0.0
C1321 C 0.82669 0.83633 0.26671 0.0
C1322 C 0.82549 0.83741 0.16527 0.0
C1323 C 0.82348 0.82469 1.0031 0.0
C1324 C 0.82294 0.81106 0.94268 0.0
C1325 C 0.82486 0.82377 0.10507 0.0
C1326 C 0.82363 0.79637 0.98584 0.0
C1327 C 0.82495 0.79535 0.08731 0.0
H1328 H 0.23724 0.01434 0.27266 0.0
H1329 H 0.28384 0.06819 0.30131 0.0
H1330 H 0.2863 0.07105 0.12342 0.0
H1331 H 0.27548 0.05819 0.95957 0.0
H1332 H 0.2289 1.0043 0.93185 0.0
H1333 H 0.22626 1.00165 0.10948 0.0
C1334 C 0.24795 0.02675 0.24037 0.0
C1335 C 0.26033 0.04101 0.30097 0.0
C1336 C 0.24933 0.02832 0.13788 0.0
C1337 C 0.27407 0.05696 0.25701 0.0
C1338 C 0.27552 0.05862 0.15504 0.0
C1339 C 0.26471 0.04586 0.99211 0.0
C1340 C 0.25244 0.03147 0.93171 0.0
C1341 C 0.26325 0.04437 0.09472 0.0
C1342 C 0.2386 0.01561 0.97591 0.0
C1343 C 0.23705 0.01406 0.07777 0.0
H1344 H 1.02009 0.81721 0.75004 0.0
H1345 H 0.07218 0.82002 0.72638 0.0
H1346 H 0.0746 0.82008 0.90419 0.0
H1347 H 0.06227 0.81978 0.06636 0.0
H1348 H 1.01029 0.81717 0.0911 0.0
H1349 H 1.00756 0.81658 0.91301 0.0
C1350 C 0.03195 0.81776 0.78362 0.0
C1351 C 0.04593 0.81864 0.72449 0.0
C1352 C 0.03333 0.81788 0.88628 0.0
C1353 C 0.06122 0.8194 0.7697 0.0
C1354 C 0.06263 0.81943 0.87159 0.0
C1355 C 0.05032 0.81907 0.03309 0.0
C1356 C 0.03653 0.81854 0.09252 0.0
C1357 C 0.04882 0.81876 0.93058 0.0
C1358 C 1.02113 0.81757 0.04754 0.0
C1359 C 1.01955 0.81725 0.94552 0.0
H1360 H 0.2598 0.2309 0.06783 0.0
H1361 H 0.24844 0.27484 0.09856 0.0
H1362 H 0.24735 0.27723 0.92143 0.0
H1363 H 0.24966 0.26698 0.75704 0.0
H1364 H 0.26112 0.2231 0.7266 0.0
H1365 H 0.26209 0.22065 0.90362 0.0
C1366 C 0.25708 0.241 0.03599 0.0
C1367 C 0.25424 0.25265 0.09704 0.0
C1368 C 0.25647 0.24236 0.93363 0.0
C1369 C 0.25074 0.26567 0.05388 0.0
C1370 C 0.25009 0.26707 0.95227 0.0
C1371 C 0.25235 0.25687 0.78895 0.0
C1372 C 0.25527 0.24526 0.72797 0.0
C1373 C 0.25294 0.2555 0.89134 0.0
C1374 C 0.25876 0.23224 0.77119 0.0
C1375 C 0.25934 0.2308 0.87276 0.0
H1376 H 0.80453 1.00404 0.07657 0.0
H1377 H 0.84548 0.06061 0.10501 0.0
H1378 H 0.84768 0.06362 0.92725 0.0
H1379 H 0.83803 0.0503 0.76362 0.0
H1380 H 0.79714 0.99372 0.73521 0.0
H1381 H 0.79495 0.99071 0.91295 0.0
C1382 C 0.81396 0.01706 0.0442 0.0
C1383 C 0.8248 0.03206 0.10479 0.0
C1384 C 0.81519 0.01872 0.94164 0.0
C1385 C 0.83693 0.04879 0.06077 0.0
C1386 C 0.83822 0.05055 0.95885 0.0
C1387 C 0.82863 0.03728 0.796 0.0
C1388 C 0.81777 0.02227 0.73544 0.0
C1389 C 0.82741 0.03561 0.89855 0.0
C1390 C 0.80568 1.00554 0.77945 0.0
C1391 C 0.8044 1.00378 0.88135 0.0
H1392 H 0.72356 0.57813 0.29967 0.0
H1393 H 0.67947 0.58932 0.2679 0.0
H1394 H 0.67612 0.58891 0.44512 0.0
H1395 H 0.68556 0.58525 0.60987 0.0
H1396 H 0.72969 0.57413 0.64164 0.0
H1397 H 0.73301 0.5745 0.46443 0.0
C1398 C 0.71328 0.58057 0.33148 0.0
C1399 C 0.70178 0.58371 0.27026 0.0
C1400 C 0.71132 0.58021 0.4338 0.0
C1401 C 0.68845 0.58674 0.31299 0.0
C1402 C 0.68651 0.58652 0.41454 0.0
C1403 C 0.69582 0.5828 0.57805 0.0
C1404 C 0.70734 0.57968 0.63926 0.0
C1405 C 0.69779 0.58317 0.47573 0.0
C1406 C 0.72068 0.57668 0.59654 0.0
C1407 C 0.72261 0.57688 0.49499 0.0
H1408 H 0.49109 0.1714 0.62145 0.0
H1409 H 0.49708 0.12405 0.65106 0.0
H1410 H 0.49656 0.12099 0.47346 0.0
H1411 H 0.49465 0.13179 0.30993 0.0
H1412 H 0.48923 0.17946 0.27979 0.0
H1413 H 0.48924 0.18226 0.45757 0.0
C1414 C 0.49227 0.16038 0.5893 0.0
C1415 C 0.49413 0.14799 0.64998 0.0
C1416 C 0.49204 0.15872 0.48691 0.0
C1417 C 0.49568 0.13384 0.60652 0.0
C1418 C 0.49536 0.13205 0.50478 0.0
C1419 C 0.49339 0.14277 0.34197 0.0
C1420 C 0.4919 0.15537 0.28114 0.0
C1421 C 0.49356 0.14441 0.4443 0.0
C1422 C 0.49041 0.16956 0.32449 0.0
C1423 C 0.49041 0.17118 0.4263 0.0
H1424 H 0.90348 0.34784 0.29928 0.0
H1425 H 0.9533 0.39914 0.26855 0.0
H1426 H 0.95595 0.40247 0.44579 0.0
H1427 H 0.94426 0.39089 0.61033 0.0
H1428 H 0.89443 0.33959 0.64077 0.0
H1429 H 0.89173 0.33634 0.46366 0.0
C1430 C 0.91495 0.35974 0.33121 0.0
C1431 C 0.92813 0.37319 0.27014 0.0
C1432 C 0.91641 0.36165 0.43361 0.0
C1433 C 0.94286 0.38855 0.3133 0.0
C1434 C 0.94443 0.3905 0.41495 0.0
C1435 C 0.93277 0.37903 0.57837 0.0
C1436 C 0.91962 0.36554 0.63939 0.0
C1437 C 0.93127 0.37716 0.47592 0.0
C1438 C 0.90485 0.35022 0.59614 0.0
C1439 C 0.90325 0.34831 0.49452 0.0
H1440 H 0.68766 0.14827 0.07145 0.0
H1441 H 0.74191 0.15635 0.04336 0.0
H1442 H 0.74463 0.1562 0.22109 0.0
H1443 H 0.73177 0.15387 0.38424 0.0
H1444 H 0.67769 0.14621 0.41295 0.0
H1445 H 0.67483 0.14609 0.23505 0.0
C1446 C 0.7001 0.14999 0.10396 0.0
C1447 C 0.71455 0.15231 0.04364 0.0
C1448 C 0.70163 0.14995 0.20644 0.0
C1449 C 0.73056 0.15457 0.08759 0.0
C1450 C 0.73214 0.15446 0.18941 0.0
C1451 C 0.7193 0.15211 0.3519 0.0
C1452 C 0.70495 0.15 0.4124 0.0
C1453 C 0.71776 0.15216 0.24951 0.0
C1454 C 0.68897 0.14785 0.36858 0.0
C1455 C 0.68731 0.14778 0.26668 0.0
H1456 H 0.92132 0.56093 0.07061 0.0
H1457 H 0.91422 0.6076 0.04257 0.0
H1458 H 0.91563 0.61105 0.22058 0.0
H1459 H 0.91882 0.60078 0.38425 0.0
H1460 H 0.92472 0.55337 0.41146 0.0
H1461 H 0.92391 0.55033 0.23359 0.0
C1462 C 0.92007 0.57187 0.10327 0.0
C1463 C 0.91768 0.584 0.04317 0.0
C1464 C 0.92074 0.57369 0.20558 0.0
C1465 C 0.91597 0.59801 0.087 0.0
C1466 C 0.91685 0.60004 0.18883 0.0
C1467 C 0.92007 0.58986 0.35128 0.0
C1468 C 0.92196 0.5774 0.41125 0.0
C1469 C 0.91926 0.58798 0.24884 0.0
C1470 C 0.92327 0.56317 0.36721 0.0
C1471 C 0.9228 0.5614 0.26542 0.0
H1472 H 0.50976 0.38836 0.06141 0.0
H1473 H 0.46649 0.33268 0.03466 0.0
H1474 H 0.46383 0.33017 0.21271 0.0
H1475 H 0.47368 0.34372 0.37528 0.0
H1476 H 0.51724 0.39927 0.40232 0.0
H1477 H 0.51982 0.40183 0.22421 0.0
C1478 C 0.49972 0.37564 0.09422 0.0
C1479 C 0.48832 0.36072 0.03432 0.0
C1480 C 0.49828 0.37427 0.19664 0.0
C1481 C 0.47547 0.34437 0.07866 0.0
C1482 C 0.47391 0.34293 0.18057 0.0
C1483 C 0.48372 0.35645 0.34256 0.0
C1484 C 0.49519 0.37131 0.40256 0.0
C1485 C 0.48522 0.3578 0.24018 0.0
C1486 C 0.50819 0.38761 0.35828 0.0
C1487 C 0.50969 0.38909 0.25632 0.0
H1488 H 0.3962 0.91719 0.64472 0.0
H1489 H 0.34228 0.90985 0.61199 0.0
H1490 H 0.33878 0.9088 0.78908 0.0
H1491 H 0.35101 0.91021 0.95407 0.0
H1492 H 0.405 0.91767 0.98599 0.0
H1493 H 0.40833 0.91838 0.80917 0.0
C1494 C 0.38367 0.91535 0.67608 0.0
C1495 C 0.36958 0.91363 0.6145 0.0
C1496 C 0.38168 0.91477 0.77836 0.0
C1497 C 0.35343 0.91125 0.65709 0.0
C1498 C 0.35137 0.91063 0.75867 0.0
C1499 C 0.36349 0.91195 0.92251 0.0
C1500 C 0.37768 0.91387 0.98393 0.0
C1501 C 0.36541 0.91241 0.82013 0.0
C1502 C 0.39377 0.91613 0.94114 0.0
C1503 C 0.39574 0.91657 0.83964 0.0
H1504 H 0.15851 0.50371 0.94778 0.0
H1505 H 0.16515 0.45675 0.9759 0.0
H1506 H 0.1639 0.45339 0.798 0.0
H1507 H 0.16077 0.4637 0.63424 0.0
H1508 H 0.15466 0.51101 0.60745 0.0
H1509 H 0.15579 0.5142 0.78494 0.0
C1510 C 0.15973 0.49274 0.91527 0.0
C1511 C 0.16193 0.48051 0.97558 0.0
C1512 C 0.15902 0.49089 0.81291 0.0
C1513 C 0.16353 0.46643 0.93159 0.0
C1514 C 0.16275 0.46445 0.82971 0.0
C1515 C 0.15959 0.47467 0.66708 0.0
C1516 C 0.15756 0.48704 0.60702 0.0
C1517 C 0.16044 0.47657 0.76961 0.0
C1518 C 0.15622 0.50125 0.65136 0.0
C1519 C 0.15688 0.50312 0.7531 0.0
H1520 H 0.60831 0.72474 0.95481 0.0
H1521 H 0.55761 0.67438 0.98634 0.0
H1522 H 0.55534 0.67036 0.80945 0.0
H1523 H 0.56791 0.68073 0.64529 0.0
H1524 H 0.61889 0.73084 0.61301 0.0
H1525 H 0.62085 0.73522 0.78967 0.0
C1526 C 0.59668 0.713 0.92284 0.0
C1527 C 0.58316 0.69993 0.98397 0.0
C1528 C 0.59555 0.71059 0.82056 0.0
C1529 C 0.56827 0.68467 0.94124 0.0
C1530 C 0.56695 0.68231 0.83988 0.0
C1531 C 0.57949 0.69258 0.6767 0.0
C1532 C 0.59322 0.70537 0.61529 0.0
C1533 C 0.58058 0.69509 0.77878 0.0
C1534 C 0.60809 0.72069 0.65795 0.0
C1535 C 0.60924 0.72327 0.7593 0.0
H1536 H 0.39737 0.48763 0.73579 0.0
H1537 H 0.34231 0.47727 0.76389 0.0
H1538 H 0.33951 0.47722 0.5859 0.0
H1539 H 0.3527 0.48026 0.42246 0.0
H1540 H 0.40794 0.49109 0.39506 0.0
H1541 H 0.41059 0.49083 0.57281 0.0
C1542 C 0.3847 0.48527 0.70328 0.0
C1543 C 0.37005 0.48239 0.7636 0.0
C1544 C 0.38321 0.4854 0.60087 0.0
C1545 C 0.35382 0.47952 0.71961 0.0
C1546 C 0.3522 0.47949 0.61768 0.0
C1547 C 0.36535 0.48257 0.45511 0.0
C1548 C 0.38009 0.48568 0.39495 0.0
C1549 C 0.36682 0.48245 0.55761 0.0
C1550 C 0.39635 0.48867 0.43912 0.0
C1551 C 0.39789 0.48851 0.54096 0.0
H1552 H 0.58594 0.93478 0.74375 0.0
H1553 H 0.59175 0.88732 0.77322 0.0
H1554 H 0.59206 0.88475 0.5957 0.0
H1555 H 0.59089 0.89597 0.43208 0.0
H1556 H 0.58508 0.94342 0.40203 0.0
H1557 H 0.58457 0.9459 0.5797 0.0
C1558 C 0.58724 0.92383 0.71161 0.0
C1559 C 0.58883 0.91128 0.77241 0.0
C1560 C 0.58743 0.92241 0.60912 0.0
C1561 C 0.59053 0.89722 0.72878 0.0
C1562 C 0.59071 0.89572 0.627 0.0
C1563 C 0.5895 0.90688 0.46406 0.0
C1564 C 0.58804 0.91948 0.40315 0.0
C1565 C 0.58921 0.90825 0.56647 0.0
C1566 C 0.58622 0.93348 0.44662 0.0
C1567 C 0.58593 0.93494 0.54845 0.0
H1568 H 0.1776 0.72092 0.43196 0.0
H1569 H 0.12751 0.66969 0.40675 0.0
H1570 H 0.12542 0.66702 0.58463 0.0
H1571 H 0.1378 0.67908 0.74735 0.0
H1572 H 0.1877 0.73046 0.77263 0.0
H1573 H 0.18983 0.73312 0.59465 0.0
C1574 C 0.1662 0.70915 0.46513 0.0
C1575 C 0.15276 0.69552 0.40559 0.0
C1576 C 0.16504 0.70769 0.56764 0.0
C1577 C 0.13807 0.68042 0.45038 0.0
C1578 C 0.13686 0.67885 0.55229 0.0
C1579 C 0.14918 0.69086 0.71415 0.0
C1580 C 0.16259 0.70452 0.77369 0.0
C1581 C 0.15029 0.69238 0.61163 0.0
C1582 C 0.17716 0.71973 0.72893 0.0
C1583 C 0.1784 0.72127 0.627 0.0
loop_
_geom_bond_atom_site_label_1
_geom_bond_atom_site_label_2
_geom_bond_distance
_geom_bond_site_symmetry_2
_ccdc_geom_bond_type
Nd0 C2 2.836 . S
Nd0 O20 2.500 . S
Nd0 O21 2.492 . S
Nd0 O22 2.487 . S
Nd0 O23 2.682 . S
Nd0 O24 2.410 . S
Nd0 O29 2.414 . S
Nd0 O31 2.424 . S
Nd1 C11 2.836 1_455 S
Nd1 O23 2.414 . S
Nd1 O25 2.424 . S
Nd1 O26 2.500 1_455 S
Nd1 O27 2.492 1_455 S
Nd1 O28 2.487 . S
Nd1 O29 2.682 . S
Nd1 O30 2.410 . S
C2 Nd0 2.836 . S
C2 C3 1.498 . S
C2 O20 1.258 . S
C2 O21 1.239 . S
C3 C2 1.498 . S
C3 C4 1.366 . S
C3 C8 1.407 . S
C4 C3 1.366 . S
C4 C5 1.392 . S
C4 H32 0.930 . S
C5 C4 1.392 . S
C5 C6 1.398 . S
C5 H33 0.929 . S
C6 C5 1.398 . S
C6 C7 1.352 . S
C7 C6 1.352 . S
C7 C8 1.384 . S
C7 H34 0.930 . S
C8 C3 1.407 . S
C8 C7 1.384 . S
C8 H35 0.929 . S
C9 O22 1.194 1_655 S
C9 O23 1.287 1_655 S
C10 O24 1.251 . S
C10 O25 1.268 . S
C11 Nd1 2.836 1_655 S
C11 C12 1.498 . S
C11 O26 1.258 . S
C11 O27 1.239 . S
C12 C11 1.498 . S
C12 C13 1.366 . S
C12 C17 1.407 . S
C13 C12 1.366 . S
C13 C14 1.392 . S
C13 H36 0.930 . S
C14 C13 1.392 . S
C14 C15 1.398 . S
C14 H37 0.929 . S
C15 C14 1.398 . S
C15 C16 1.352 . S
C16 C15 1.352 . S
C16 C17 1.384 . S
C16 H38 0.930 . S
C17 C12 1.407 . S
C17 C16 1.384 . S
C17 H39 0.929 . S
C18 O28 1.241 . S
C18 O29 1.273 . S
C19 O30 1.251 . S
C19 O31 1.268 . S
O20 Nd0 2.500 . S
O20 C2 1.258 . S
O21 Nd0 2.492 . S
O21 C2 1.239 . S
O22 Nd0 2.487 . S
O22 C9 1.194 1_455 S
O23 Nd0 2.682 . S
O23 Nd1 2.414 . S
O23 C9 1.287 1_455 S
O24 Nd0 2.410 . S
O24 C10 1.251 . S
O25 Nd1 2.424 . S
O25 C10 1.268 . S
O26 Nd1 2.500 1_655 S
O26 C11 1.258 . S
O27 Nd1 2.492 1_655 S
O27 C11 1.239 . S
O28 Nd1 2.487 . S
O28 C18 1.241 . S
O29 Nd0 2.414 . S
O29 Nd1 2.682 . S
O29 C18 1.273 . S
O30 Nd1 2.410 . S
O30 C19 1.251 . S
O31 Nd0 2.424 . S
O31 C19 1.268 . S
H32 C4 0.930 . S
H33 C5 0.929 . S
H34 C7 0.930 . S
H35 C8 0.929 . S
H36 C13 0.930 . S
H37 C14 0.929 . S
H38 C16 0.930 . S
H39 C17 0.929 . S
Nd40 C42 2.836 . S
Nd40 O60 2.500 . S
Nd40 O61 2.492 . S
Nd40 O62 2.487 . S
Nd40 O63 2.682 . S
Nd40 O64 2.410 . S
Nd40 O69 2.414 . S
Nd40 O71 2.424 . S
Nd41 C51 2.836 . S
Nd41 O63 2.414 . S
Nd41 O65 2.424 . S
Nd41 O66 2.500 . S
Nd41 O67 2.492 . S
Nd41 O68 2.487 . S
Nd41 O69 2.682 . S
Nd41 O70 2.410 . S
C42 Nd40 2.836 . S
C42 C43 1.498 . S
C42 O60 1.258 . S
C42 O61 1.239 . S
C43 C42 1.498 . S
C43 C44 1.366 . S
C43 C48 1.407 . S
C44 C43 1.366 . S
C44 C45 1.392 . S
C44 H72 0.930 . S
C45 C44 1.392 . S
C45 C46 1.398 . S
C45 H73 0.929 . S
C46 C45 1.398 . S
C46 C47 1.352 . S
C47 C46 1.352 . S
C47 C48 1.384 . S
C47 H74 0.930 . S
C48 C43 1.407 . S
C48 C47 1.384 . S
C48 H75 0.929 . S
C49 O62 1.241 . S
C49 O63 1.273 . S
C50 O64 1.251 . S
C50 O65 1.268 . S
C51 Nd41 2.836 . S
C51 C52 1.498 . S
C51 O66 1.258 . S
C51 O67 1.239 . S
C52 C51 1.498 . S
C52 C53 1.366 . S
C52 C57 1.407 . S
C53 C52 1.366 . S
C53 C54 1.392 . S
C53 H76 0.930 . S
C54 C53 1.392 . S
C54 C55 1.398 . S
C54 H77 0.929 . S
C55 C54 1.398 . S
C55 C56 1.352 . S
C56 C55 1.352 . S
C56 C57 1.384 . S
C56 H78 0.930 . S
C57 C52 1.407 . S
C57 C56 1.384 . S
C57 H79 0.929 . S
C58 O68 1.241 . S
C58 O69 1.273 . S
C59 O70 1.251 . S
C59 O71 1.268 . S
O60 Nd40 2.500 . S
O60 C42 1.258 . S
O61 Nd40 2.492 . S
O61 C42 1.239 . S
O62 Nd40 2.487 . S
O62 C49 1.241 . S
O63 Nd40 2.682 . S
O63 Nd41 2.414 . S
O63 C49 1.273 . S
O64 Nd40 2.410 . S
O64 C50 1.251 . S
O65 Nd41 2.424 . S
O65 C50 1.268 . S
O66 Nd41 2.500 . S
O66 C51 1.258 . S
O67 Nd41 2.492 . S
O67 C51 1.239 . S
O68 Nd41 2.487 . S
O68 C58 1.241 . S
O69 Nd40 2.414 . S
O69 Nd41 2.682 . S
O69 C58 1.273 . S
O70 Nd41 2.410 . S
O70 C59 1.251 . S
O71 Nd40 2.424 . S
O71 C59 1.268 . S
H72 C44 0.930 . S
H73 C45 0.929 . S
H74 C47 0.930 . S
H75 C48 0.929 . S
H76 C53 0.930 . S
H77 C54 0.929 . S
H78 C56 0.930 . S
H79 C57 0.929 . S
Nd80 C82 2.836 1_545 S
Nd80 O100 2.500 1_545 S
Nd80 O101 2.492 1_545 S
Nd80 O102 2.487 . S
Nd80 O103 2.682 . S
Nd80 O104 2.410 . S
Nd80 O109 2.420 . S
Nd80 O111 2.424 . S
Nd81 C91 2.836 . S
Nd81 O103 2.414 . S
Nd81 O105 2.424 . S
Nd81 O106 2.500 . S
Nd81 O107 2.492 . S
Nd81 O108 2.487 . S
Nd81 O109 2.690 . S
Nd81 O110 2.410 . S
C82 Nd80 2.836 1_565 S
C82 C83 1.498 . S
C82 O100 1.258 . S
C82 O101 1.239 . S
C83 C82 1.498 . S
C83 C84 1.366 . S
C83 C88 1.407 . S
C84 C83 1.366 . S
C84 C85 1.392 . S
C84 H112 0.930 . S
C85 C84 1.392 . S
C85 C86 1.398 . S
C85 H113 0.929 . S
C86 C85 1.398 . S
C86 C87 1.352 . S
C87 C86 1.352 . S
C87 C88 1.384 . S
C87 H114 0.930 . S
C88 C83 1.407 . S
C88 C87 1.384 . S
C88 H115 0.929 . S
C89 O102 1.241 . S
C89 O103 1.273 . S
C90 O104 1.251 . S
C90 O105 1.268 . S
C91 Nd81 2.836 . S
C91 C92 1.498 . S
C91 O106 1.258 . S
C91 O107 1.239 . S
C92 C91 1.498 . S
C92 C93 1.366 . S
C92 C97 1.407 . S
C93 C92 1.366 . S
C93 C94 1.392 . S
C93 H116 0.930 . S
C94 C93 1.392 . S
C94 C95 1.398 . S
C94 H117 0.929 . S
C95 C94 1.398 . S
C95 C96 1.352 . S
C96 C95 1.352 . S
C96 C97 1.384 . S
C96 H118 0.930 . S
C97 C92 1.407 . S
C97 C96 1.384 . S
C97 H119 0.929 . S
C98 O108 1.241 1_565 S
C98 O109 1.265 1_565 S
C99 O110 1.251 . S
C99 O111 1.268 . S
O100 Nd80 2.500 1_565 S
O100 C82 1.258 . S
O101 Nd80 2.492 1_565 S
O101 C82 1.239 . S
O102 Nd80 2.487 . S
O102 C89 1.241 . S
O103 Nd80 2.682 . S
O103 Nd81 2.414 . S
O103 C89 1.273 . S
O104 Nd80 2.410 . S
O104 C90 1.251 . S
O105 Nd81 2.424 . S
O105 C90 1.268 . S
O106 Nd81 2.500 . S
O106 C91 1.258 . S
O107 Nd81 2.492 . S
O107 C91 1.239 . S
O108 Nd81 2.487 . S
O108 C98 1.241 1_545 S
O109 Nd80 2.420 . S
O109 Nd81 2.690 . S
O109 C98 1.265 1_545 S
O110 Nd81 2.410 . S
O110 C99 1.251 . S
O111 Nd80 2.424 . S
O111 C99 1.268 . S
H112 C84 0.930 . S
H113 C85 0.929 . S
H114 C87 0.930 . S
H115 C88 0.929 . S
H116 C93 0.930 . S
H117 C94 0.929 . S
H118 C96 0.930 . S
H119 C97 0.929 . S
Nd120 C122 2.836 . S
Nd120 O140 2.500 . S
Nd120 O141 2.492 . S
Nd120 O142 2.487 . S
Nd120 O143 2.666 1_455 S
Nd120 O144 2.410 . S
Nd120 O149 2.414 . S
Nd120 O151 2.424 . S
Nd121 C131 2.799 1_455 S
Nd121 O143 2.443 1_455 S
Nd121 O145 2.446 . S
Nd121 O146 2.465 1_455 S
Nd121 O147 2.460 1_455 S
Nd121 O148 2.507 . S
Nd121 O149 2.726 . S
Nd121 O150 2.423 . S
C122 Nd120 2.836 . S
C122 C123 1.498 . S
C122 O140 1.258 . S
C122 O141 1.239 . S
C123 C122 1.498 . S
C123 C124 1.366 . S
C123 C128 1.407 . S
C124 C123 1.366 . S
C124 C125 1.392 . S
C124 H152 0.930 . S
C125 C124 1.392 . S
C125 C126 1.398 . S
C125 H153 0.929 . S
C126 C125 1.398 . S
C126 C127 1.352 . S
C127 C126 1.352 . S
C127 C128 1.384 . S
C127 H154 0.930 . S
C128 C123 1.407 . S
C128 C127 1.384 . S
C128 H155 0.929 . S
C129 O142 1.241 1_655 S
C129 O143 1.269 . S
C130 O144 1.251 . S
C130 O145 1.268 . S
C131 Nd121 2.799 1_655 S
C131 C132 1.498 . S
C131 O146 1.258 . S
C131 O147 1.239 . S
C132 C131 1.498 . S
C132 C133 1.366 . S
C132 C137 1.407 . S
C133 C132 1.366 . S
C133 C134 1.392 . S
C133 H156 0.930 . S
C134 C133 1.392 . S
C134 C135 1.398 . S
C134 H157 0.929 . S
C135 C134 1.398 . S
C135 C136 1.352 . S
C136 C135 1.352 . S
C136 C137 1.384 . S
C136 H158 0.930 . S
C137 C132 1.407 . S
C137 C136 1.384 . S
C137 H159 0.929 . S
C138 O148 1.241 . S
C138 O149 1.273 . S
C139 O150 1.251 . S
C139 O151 1.268 . S
O140 Nd120 2.500 . S
O140 C122 1.258 . S
O141 Nd120 2.492 . S
O141 C122 1.239 . S
O142 Nd120 2.487 . S
O142 C129 1.241 1_455 S
O143 Nd120 2.666 1_655 S
O143 Nd121 2.443 1_655 S
O143 C129 1.269 . S
O144 Nd120 2.410 . S
O144 C130 1.251 . S
O145 Nd121 2.446 . S
O145 C130 1.268 . S
O146 Nd121 2.465 1_655 S
O146 C131 1.258 . S
O147 Nd121 2.460 1_655 S
O147 C131 1.239 . S
O148 Nd121 2.507 . S
O148 C138 1.241 . S
O149 Nd120 2.414 . S
O149 Nd121 2.726 . S
O149 C138 1.273 . S
O150 Nd121 2.423 . S
O150 C139 1.251 . S
O151 Nd120 2.424 . S
O151 C139 1.268 . S
H152 C124 0.930 . S
H153 C125 0.929 . S
H154 C127 0.930 . S
H155 C128 0.929 . S
H156 C133 0.930 . S
H157 C134 0.929 . S
H158 C136 0.930 . S
H159 C137 0.929 . S
Nd160 C162 2.836 . S
Nd160 O180 2.500 . S
Nd160 O181 2.492 . S
Nd160 O182 2.487 . S
Nd160 O183 2.682 . S
Nd160 O184 2.410 . S
Nd160 O189 2.414 . S
Nd160 O191 2.424 . S
Nd161 C171 2.836 . S
Nd161 O183 2.414 . S
Nd161 O185 2.424 . S
Nd161 O186 2.500 . S
Nd161 O187 2.492 . S
Nd161 O188 2.487 . S
Nd161 O189 2.682 . S
Nd161 O190 2.410 . S
C162 Nd160 2.836 . S
C162 C163 1.498 . S
C162 O180 1.258 . S
C162 O181 1.239 . S
C163 C162 1.498 . S
C163 C164 1.366 . S
C163 C168 1.407 . S
C164 C163 1.366 . S
C164 C165 1.392 . S
C164 H192 0.930 . S
C165 C164 1.392 . S
C165 C166 1.398 . S
C165 H193 0.929 . S
C166 C165 1.398 . S
C166 C167 1.352 . S
C167 C166 1.352 . S
C167 C168 1.384 . S
C167 H194 0.930 . S
C168 C163 1.407 . S
C168 C167 1.384 . S
C168 H195 0.929 . S
C169 O182 1.241 . S
C169 O183 1.273 . S
C170 O184 1.251 . S
C170 O185 1.268 . S
C171 Nd161 2.836 . S
C171 C172 1.498 . S
C171 O186 1.258 . S
C171 O187 1.239 . S
C172 C171 1.498 . S
C172 C173 1.366 . S
C172 C177 1.407 . S
C173 C172 1.366 . S
C173 C174 1.392 . S
C173 H196 0.930 . S
C174 C173 1.392 . S
C174 C175 1.398 . S
C174 H197 0.929 . S
C175 C174 1.398 . S
C175 C176 1.352 . S
C176 C175 1.352 . S
C176 C177 1.384 . S
C176 H198 0.930 . S
C177 C172 1.407 . S
C177 C176 1.384 . S
C177 H199 0.929 . S
C178 O188 1.241 . S
C178 O189 1.273 . S
C179 O190 1.251 . S
C179 O191 1.268 . S
O180 Nd160 2.500 . S
O180 C162 1.258 . S
O181 Nd160 2.492 . S
O181 C162 1.239 . S
O182 Nd160 2.487 . S
O182 C169 1.241 . S
O183 Nd160 2.682 . S
O183 Nd161 2.414 . S
O183 C169 1.273 . S
O184 Nd160 2.410 . S
O184 C170 1.251 . S
O185 Nd161 2.424 . S
O185 C170 1.268 . S
O186 Nd161 2.500 . S
O186 C171 1.258 . S
O187 Nd161 2.492 . S
O187 C171 1.239 . S
O188 Nd161 2.487 . S
O188 C178 1.241 . S
O189 Nd160 2.414 . S
O189 Nd161 2.682 . S
O189 C178 1.273 . S
O190 Nd161 2.410 . S
O190 C179 1.251 . S
O191 Nd160 2.424 . S
O191 C179 1.268 . S
H192 C164 0.930 . S
H193 C165 0.929 . S
H194 C167 0.930 . S
H195 C168 0.929 . S
H196 C173 0.930 . S
H197 C174 0.929 . S
H198 C176 0.930 . S
H199 C177 0.929 . S
Nd200 C202 2.836 1_545 S
Nd200 O220 2.500 1_545 S
Nd200 O221 2.492 1_545 S
Nd200 O222 2.487 . S
Nd200 O223 2.682 . S
Nd200 O224 2.410 . S
Nd200 O229 2.414 . S
Nd200 O231 2.424 . S
Nd201 C211 2.836 . S
Nd201 O223 2.414 . S
Nd201 O225 2.424 . S
Nd201 O226 2.500 . S
Nd201 O227 2.492 . S
Nd201 O228 2.487 . S
Nd201 O229 2.682 . S
Nd201 O230 2.410 . S
C202 Nd200 2.836 1_565 S
C202 C203 1.498 . S
C202 O220 1.258 . S
C202 O221 1.239 . S
C203 C202 1.498 . S
C203 C204 1.366 . S
C203 C208 1.407 . S
C204 C203 1.366 . S
C204 C205 1.392 . S
C204 H232 0.930 . S
C205 C204 1.392 . S
C205 C206 1.398 . S
C205 H233 0.929 . S
C206 C205 1.398 . S
C206 C207 1.352 . S
C207 C206 1.352 . S
C207 C208 1.384 . S
C207 H234 0.930 . S
C208 C203 1.407 . S
C208 C207 1.384 . S
C208 H235 0.929 . S
C209 O222 1.241 . S
C209 O223 1.273 . S
C210 O224 1.251 . S
C210 O225 1.268 . S
C211 Nd201 2.836 . S
C211 C212 1.498 . S
C211 O226 1.258 . S
C211 O227 1.239 . S
C212 C211 1.498 . S
C212 C213 1.366 . S
C212 C217 1.407 . S
C213 C212 1.366 . S
C213 C214 1.392 . S
C213 H236 0.930 . S
C214 C213 1.392 . S
C214 C215 1.398 . S
C214 H237 0.929 . S
C215 C214 1.398 . S
C215 C216 1.352 . S
C216 C215 1.352 . S
C216 C217 1.384 . S
C216 H238 0.930 . S
C217 C212 1.407 . S
C217 C216 1.384 . S
C217 H239 0.929 . S
C218 O228 1.240 1_565 S
C218 O229 1.270 1_565 S
C219 O230 1.251 . S
C219 O231 1.268 . S
O220 Nd200 2.500 1_565 S
O220 C202 1.258 . S
O221 Nd200 2.492 1_565 S
O221 C202 1.239 . S
O222 Nd200 2.487 . S
O222 C209 1.241 . S
O223 Nd200 2.682 . S
O223 Nd201 2.414 . S
O223 C209 1.273 . S
O224 Nd200 2.410 . S
O224 C210 1.251 . S
O225 Nd201 2.424 . S
O225 C210 1.268 . S
O226 Nd201 2.500 . S
O226 C211 1.258 . S
O227 Nd201 2.492 . S
O227 C211 1.239 . S
O228 Nd201 2.487 . S
O228 C218 1.240 1_545 S
O229 Nd200 2.414 . S
O229 Nd201 2.682 . S
O229 C218 1.270 1_545 S
O230 Nd201 2.410 . S
O230 C219 1.251 . S
O231 Nd200 2.424 . S
O231 C219 1.268 . S
H232 C204 0.930 . S
H233 C205 0.929 . S
H234 C207 0.930 . S
H235 C208 0.929 . S
H236 C213 0.930 . S
H237 C214 0.929 . S
H238 C216 0.930 . S
H239 C217 0.929 . S
Nd240 C242 2.836 1_554 S
Nd240 O260 2.500 1_554 S
Nd240 O261 2.492 1_554 S
Nd240 O262 2.487 . S
Nd240 O263 2.682 . S
Nd240 O264 2.410 1_554 S
Nd240 O269 2.414 1_554 S
Nd240 O271 2.424 . S
Nd241 C251 2.836 1_556 S
Nd241 O263 2.414 1_556 S
Nd241 O265 2.424 . S
Nd241 O266 2.500 1_556 S
Nd241 O267 2.492 1_556 S
Nd241 O268 2.487 . S
Nd241 O269 2.682 . S
Nd241 O270 2.410 1_556 S
C242 Nd240 2.836 1_556 S
C242 C243 1.498 . S
C242 O260 1.258 . S
C242 O261 1.239 . S
C243 C242 1.498 . S
C243 C244 1.366 . S
C243 C248 1.407 . S
C244 C243 1.366 . S
C244 C245 1.392 . S
C244 H272 0.930 . S
C245 C244 1.392 . S
C245 C246 1.398 . S
C245 H273 0.929 . S
C246 C245 1.398 . S
C246 C247 1.352 . S
C247 C246 1.352 . S
C247 C248 1.384 . S
C247 H274 0.930 . S
C248 C243 1.407 . S
C248 C247 1.384 . S
C248 H275 0.929 . S
C249 O262 1.241 . S
C249 O263 1.273 . S
C250 O264 1.251 . S
C250 O265 1.268 . S
C251 Nd241 2.836 1_554 S
C251 C252 1.498 . S
C251 O266 1.258 . S
C251 O267 1.239 . S
C252 C251 1.498 . S
C252 C253 1.366 . S
C252 C257 1.407 . S
C253 C252 1.366 . S
C253 C254 1.392 . S
C253 H276 0.930 . S
C254 C253 1.392 . S
C254 C255 1.398 . S
C254 H277 0.929 . S
C255 C254 1.398 . S
C255 C256 1.352 . S
C256 C255 1.352 . S
C256 C257 1.384 . S
C256 H278 0.930 . S
C257 C252 1.407 . S
C257 C256 1.384 . S
C257 H279 0.929 . S
C258 O268 1.241 . S
C258 O269 1.273 . S
C259 O270 1.251 . S
C259 O271 1.268 . S
O260 Nd240 2.500 1_556 S
O260 C242 1.258 . S
O261 Nd240 2.492 1_556 S
O261 C242 1.239 . S
O262 Nd240 2.487 . S
O262 C249 1.241 . S
O263 Nd240 2.682 . S
O263 Nd241 2.414 1_554 S
O263 C249 1.273 . S
O264 Nd240 2.410 1_556 S
O264 C250 1.251 . S
O265 Nd241 2.424 . S
O265 C250 1.268 . S
O266 Nd241 2.500 1_554 S
O266 C251 1.258 . S
O267 Nd241 2.492 1_554 S
O267 C251 1.239 . S
O268 Nd241 2.487 . S
O268 C258 1.241 . S
O269 Nd240 2.414 1_556 S
O269 Nd241 2.682 . S
O269 C258 1.273 . S
O270 Nd241 2.410 1_554 S
O270 C259 1.251 . S
O271 Nd240 2.424 . S
O271 C259 1.268 . S
H272 C244 0.930 . S
H273 C245 0.929 . S
H274 C247 0.930 . S
H275 C248 0.929 . S
H276 C253 0.930 . S
H277 C254 0.929 . S
H278 C256 0.930 . S
H279 C257 0.929 . S
Nd280 C282 2.836 1_554 S
Nd280 O300 2.500 1_554 S
Nd280 O301 2.492 1_554 S
Nd280 O302 2.487 . S
Nd280 O303 2.682 . S
Nd280 O304 2.410 1_554 S
Nd280 O309 2.414 1_554 S
Nd280 O311 2.424 . S
Nd281 C291 2.836 1_556 S
Nd281 O303 2.414 1_556 S
Nd281 O305 2.424 . S
Nd281 O306 2.500 1_556 S
Nd281 O307 2.492 1_556 S
Nd281 O308 2.487 . S
Nd281 O309 2.682 . S
Nd281 O310 2.410 1_556 S
C282 Nd280 2.836 1_556 S
C282 C283 1.498 . S
C282 O300 1.258 . S
C282 O301 1.239 . S
C283 C282 1.498 . S
C283 C284 1.366 . S
C283 C288 1.407 . S
C284 C283 1.366 . S
C284 C285 1.392 . S
C284 H312 0.930 . S
C285 C284 1.392 . S
C285 C286 1.398 . S
C285 H313 0.929 . S
C286 C285 1.398 . S
C286 C287 1.352 . S
C287 C286 1.352 . S
C287 C288 1.384 . S
C287 H314 0.930 . S
C288 C283 1.407 . S
C288 C287 1.384 . S
C288 H315 0.929 . S
C289 O302 1.241 . S
C289 O303 1.273 . S
C290 O304 1.251 . S
C290 O305 1.268 . S
C291 Nd281 2.836 1_554 S
C291 C292 1.498 . S
C291 O306 1.258 . S
C291 O307 1.239 . S
C292 C291 1.498 . S
C292 C293 1.366 . S
C292 C297 1.407 . S
C293 C292 1.366 . S
C293 C294 1.392 . S
C293 H316 0.930 . S
C294 C293 1.392 . S
C294 C295 1.398 . S
C294 H317 0.929 . S
C295 C294 1.398 . S
C295 C296 1.352 . S
C296 C295 1.352 . S
C296 C297 1.384 . S
C296 H318 0.930 . S
C297 C292 1.407 . S
C297 C296 1.384 . S
C297 H319 0.929 . S
C298 O308 1.241 . S
C298 O309 1.273 . S
C299 O310 1.251 . S
C299 O311 1.268 . S
O300 Nd280 2.500 1_556 S
O300 C282 1.258 . S
O301 Nd280 2.492 1_556 S
O301 C282 1.239 . S
O302 Nd280 2.487 . S
O302 C289 1.241 . S
O303 Nd280 2.682 . S
O303 Nd281 2.414 1_554 S
O303 C289 1.273 . S
O304 Nd280 2.410 1_556 S
O304 C290 1.251 . S
O305 Nd281 2.424 . S
O305 C290 1.268 . S
O306 Nd281 2.500 1_554 S
O306 C291 1.258 . S
O307 Nd281 2.492 1_554 S
O307 C291 1.239 . S
O308 Nd281 2.487 . S
O308 C298 1.241 . S
O309 Nd280 2.414 1_556 S
O309 Nd281 2.682 . S
O309 C298 1.273 . S
O310 Nd281 2.410 1_554 S
O310 C299 1.251 . S
O311 Nd280 2.424 . S
O311 C299 1.268 . S
H312 C284 0.930 . S
H313 C285 0.929 . S
H314 C287 0.930 . S
H315 C288 0.929 . S
H316 C293 0.930 . S
H317 C294 0.929 . S
H318 C296 0.930 . S
H319 C297 0.929 . S
Nd320 C322 2.836 1_554 S
Nd320 O340 2.500 1_554 S
Nd320 O341 2.492 1_554 S
Nd320 O342 2.487 . S
Nd320 O343 2.682 . S
Nd320 O344 2.410 1_554 S
Nd320 O349 2.414 1_554 S
Nd320 O351 2.424 . S
Nd321 C331 2.836 1_556 S
Nd321 O343 2.414 1_556 S
Nd321 O345 2.424 . S
Nd321 O346 2.500 1_556 S
Nd321 O347 2.492 1_556 S
Nd321 O348 2.487 . S
Nd321 O349 2.682 . S
Nd321 O350 2.410 1_556 S
C322 Nd320 2.836 1_556 S
C322 C323 1.498 . S
C322 O340 1.258 . S
C322 O341 1.239 . S
C323 C322 1.498 . S
C323 C324 1.366 . S
C323 C328 1.407 . S
C324 C323 1.366 . S
C324 C325 1.392 . S
C324 H352 0.930 . S
C325 C324 1.392 . S
C325 C326 1.398 . S
C325 H353 0.929 . S
C326 C325 1.398 . S
C326 C327 1.352 . S
C327 C326 1.352 . S
C327 C328 1.384 . S
C327 H354 0.930 . S
C328 C323 1.407 . S
C328 C327 1.384 . S
C328 H355 0.929 . S
C329 O342 1.241 . S
C329 O343 1.273 . S
C330 O344 1.251 . S
C330 O345 1.268 . S
C331 Nd321 2.836 1_554 S
C331 C332 1.498 . S
C331 O346 1.258 . S
C331 O347 1.239 . S
C332 C331 1.498 . S
C332 C333 1.366 . S
C332 C337 1.407 . S
C333 C332 1.366 . S
C333 C334 1.392 . S
C333 H356 0.930 . S
C334 C333 1.392 . S
C334 C335 1.398 . S
C334 H357 0.929 . S
C335 C334 1.398 . S
C335 C336 1.352 . S
C336 C335 1.352 . S
C336 C337 1.384 . S
C336 H358 0.930 1_655 S
C337 C332 1.407 . S
C337 C336 1.384 . S
C337 H359 0.929 . S
C338 O348 1.241 . S
C338 O349 1.273 . S
C339 O350 1.251 . S
C339 O351 1.268 . S
O340 Nd320 2.500 1_556 S
O340 C322 1.258 . S
O341 Nd320 2.492 1_556 S
O341 C322 1.239 . S
O342 Nd320 2.487 . S
O342 C329 1.241 . S
O343 Nd320 2.682 . S
O343 Nd321 2.414 1_554 S
O343 C329 1.273 . S
O344 Nd320 2.410 1_556 S
O344 C330 1.251 . S
O345 Nd321 2.424 . S
O345 C330 1.268 . S
O346 Nd321 2.500 1_554 S
O346 C331 1.258 . S
O347 Nd321 2.492 1_554 S
O347 C331 1.239 . S
O348 Nd321 2.487 . S
O348 C338 1.241 . S
O349 Nd320 2.414 1_556 S
O349 Nd321 2.682 . S
O349 C338 1.273 . S
O350 Nd321 2.410 1_554 S
O350 C339 1.251 . S
O351 Nd320 2.424 . S
O351 C339 1.268 . S
H352 C324 0.930 . S
H353 C325 0.929 . S
H354 C327 0.930 . S
H355 C328 0.929 . S
H356 C333 0.930 . S
H357 C334 0.929 . S
H358 C336 0.930 1_455 S
H359 C337 0.929 . S
Nd360 C362 2.836 . S
Nd360 O380 2.500 . S
Nd360 O381 2.492 . S
Nd360 O382 2.487 . S
Nd360 O383 2.682 . S
Nd360 O384 2.410 . S
Nd360 O389 2.414 . S
Nd360 O391 2.424 . S
Nd361 C371 2.836 . S
Nd361 O383 2.414 . S
Nd361 O385 2.424 . S
Nd361 O386 2.500 . S
Nd361 O387 2.492 . S
Nd361 O388 2.487 . S
Nd361 O389 2.682 . S
Nd361 O390 2.410 . S
C362 Nd360 2.836 . S
C362 C363 1.498 . S
C362 O380 1.258 . S
C362 O381 1.239 . S
C363 C362 1.498 . S
C363 C364 1.366 . S
C363 C368 1.407 . S
C364 C363 1.366 . S
C364 C365 1.392 . S
C364 H392 0.930 . S
C365 C364 1.392 . S
C365 C366 1.398 . S
C365 H393 0.929 . S
C366 C365 1.398 . S
C366 C367 1.352 . S
C367 C366 1.352 . S
C367 C368 1.384 . S
C367 H394 0.930 . S
C368 C363 1.407 . S
C368 C367 1.384 . S
C368 H395 0.929 . S
C369 O382 1.241 . S
C369 O383 1.273 . S
C370 O384 1.251 . S
C370 O385 1.268 . S
C371 Nd361 2.836 . S
C371 C372 1.498 . S
C371 O386 1.258 . S
C371 O387 1.239 . S
C372 C371 1.498 . S
C372 C373 1.366 . S
C372 C377 1.407 . S
C373 C372 1.366 . S
C373 C374 1.392 . S
C373 H396 0.930 . S
C374 C373 1.392 . S
C374 C375 1.398 . S
C374 H397 0.929 . S
C375 C374 1.398 . S
C375 C376 1.352 . S
C376 C375 1.352 . S
C376 C377 1.384 . S
C376 H398 0.930 . S
C377 C372 1.407 . S
C377 C376 1.384 . S
C377 H399 0.929 . S
C378 O388 1.241 . S
C378 O389 1.273 . S
C379 O390 1.251 . S
C379 O391 1.268 . S
O380 Nd360 2.500 . S
O380 C362 1.258 . S
O381 Nd360 2.492 . S
O381 C362 1.239 . S
O382 Nd360 2.487 . S
O382 C369 1.241 . S
O383 Nd360 2.682 . S
O383 Nd361 2.414 . S
O383 C369 1.273 . S
O384 Nd360 2.410 . S
O384 C370 1.251 . S
O385 Nd361 2.424 . S
O385 C370 1.268 . S
O386 Nd361 2.500 . S
O386 C371 1.258 . S
O387 Nd361 2.492 . S
O387 C371 1.239 . S
O388 Nd361 2.487 . S
O388 C378 1.241 . S
O389 Nd360 2.414 . S
O389 Nd361 2.682 . S
O389 C378 1.273 . S
O390 Nd361 2.410 . S
O390 C379 1.251 . S
O391 Nd360 2.424 . S
O391 C379 1.268 . S
H392 C364 0.930 . S
H393 C365 0.929 . S
H394 C367 0.930 . S
H395 C368 0.929 . S
H396 C373 0.930 . S
H397 C374 0.929 . S
H398 C376 0.930 . S
H399 C377 0.929 . S
Nd400 C402 2.836 . S
Nd400 O420 2.500 . S
Nd400 O421 2.492 . S
Nd400 O422 2.487 . S
Nd400 O423 2.682 . S
Nd400 O424 2.410 . S
Nd400 O429 2.414 . S
Nd400 O431 2.424 . S
Nd401 C411 2.836 . S
Nd401 O423 2.414 . S
Nd401 O425 2.424 . S
Nd401 O426 2.500 . S
Nd401 O427 2.492 . S
Nd401 O428 2.487 . S
Nd401 O429 2.682 . S
Nd401 O430 2.410 . S
C402 Nd400 2.836 . S
C402 C403 1.498 . S
C402 O420 1.258 . S
C402 O421 1.239 . S
C403 C402 1.498 . S
C403 C404 1.366 . S
C403 C408 1.407 . S
C404 C403 1.366 . S
C404 C405 1.392 . S
C404 H432 0.930 . S
C405 C404 1.392 . S
C405 C406 1.398 . S
C405 H433 0.929 . S
C406 C405 1.398 . S
C406 C407 1.352 . S
C407 C406 1.352 . S
C407 C408 1.384 . S
C407 H434 0.930 . S
C408 C403 1.407 . S
C408 C407 1.384 . S
C408 H435 0.929 . S
C409 O422 1.241 . S
C409 O423 1.273 . S
C410 O424 1.251 . S
C410 O425 1.268 . S
C411 Nd401 2.836 . S
C411 C412 1.498 . S
C411 O426 1.258 . S
C411 O427 1.239 . S
C412 C411 1.498 . S
C412 C413 1.366 . S
C412 C417 1.407 . S
C413 C412 1.366 . S
C413 C414 1.392 . S
C413 H436 0.930 . S
C414 C413 1.392 . S
C414 C415 1.398 . S
C414 H437 0.929 . S
C415 C414 1.398 . S
C415 C416 1.352 . S
C416 C415 1.352 . S
C416 C417 1.384 . S
C416 H438 0.930 . S
C417 C412 1.407 . S
C417 C416 1.384 . S
C417 H439 0.929 . S
C418 O428 1.241 . S
C418 O429 1.273 . S
C419 O430 1.251 . S
C419 O431 1.268 . S
O420 Nd400 2.500 . S
O420 C402 1.258 . S
O421 Nd400 2.492 . S
O421 C402 1.239 . S
O422 Nd400 2.487 . S
O422 C409 1.241 . S
O423 Nd400 2.682 . S
O423 Nd401 2.414 . S
O423 C409 1.273 . S
O424 Nd400 2.410 . S
O424 C410 1.251 . S
O425 Nd401 2.424 . S
O425 C410 1.268 . S
O426 Nd401 2.500 . S
O426 C411 1.258 . S
O427 Nd401 2.492 . S
O427 C411 1.239 . S
O428 Nd401 2.487 . S
O428 C418 1.241 . S
O429 Nd400 2.414 . S
O429 Nd401 2.682 . S
O429 C418 1.273 . S
O430 Nd401 2.410 . S
O430 C419 1.251 . S
O431 Nd400 2.424 . S
O431 C419 1.268 . S
H432 C404 0.930 . S
H433 C405 0.929 . S
H434 C407 0.930 . S
H435 C408 0.929 . S
H436 C413 0.930 . S
H437 C414 0.929 . S
H438 C416 0.930 . S
H439 C417 0.929 . S
Nd440 C442 2.836 . S
Nd440 O460 2.500 . S
Nd440 O461 2.492 . S
Nd440 O462 2.487 . S
Nd440 O463 2.682 . S
Nd440 O464 2.410 . S
Nd440 O469 2.414 . S
Nd440 O471 2.424 . S
Nd441 C451 2.836 . S
Nd441 O463 2.414 . S
Nd441 O465 2.424 . S
Nd441 O466 2.500 . S
Nd441 O467 2.492 . S
Nd441 O468 2.487 . S
Nd441 O469 2.682 . S
Nd441 O470 2.410 . S
C442 Nd440 2.836 . S
C442 C443 1.498 . S
C442 O460 1.258 . S
C442 O461 1.239 . S
C443 C442 1.498 . S
C443 C444 1.366 . S
C443 C448 1.407 . S
C444 C443 1.366 . S
C444 C445 1.392 . S
C444 H472 0.930 . S
C445 C444 1.392 . S
C445 C446 1.398 . S
C445 H473 0.929 . S
C446 C445 1.398 . S
C446 C447 1.352 . S
C447 C446 1.352 . S
C447 C448 1.384 . S
C447 H474 0.930 . S
C448 C443 1.407 . S
C448 C447 1.384 . S
C448 H475 0.929 . S
C449 O462 1.241 . S
C449 O463 1.273 . S
C450 O464 1.251 . S
C450 O465 1.268 . S
C451 Nd441 2.836 . S
C451 C452 1.498 . S
C451 O466 1.258 . S
C451 O467 1.239 . S
C452 C451 1.498 . S
C452 C453 1.366 . S
C452 C457 1.407 . S
C453 C452 1.366 . S
C453 C454 1.392 . S
C453 H476 0.930 . S
C454 C453 1.392 . S
C454 C455 1.398 . S
C454 H477 0.929 . S
C455 C454 1.398 . S
C455 C456 1.352 . S
C456 C455 1.352 . S
C456 C457 1.384 . S
C456 H478 0.930 . S
C457 C452 1.407 . S
C457 C456 1.384 . S
C457 H479 0.929 . S
C458 O468 1.241 . S
C458 O469 1.273 . S
C459 O470 1.251 . S
C459 O471 1.268 . S
O460 Nd440 2.500 . S
O460 C442 1.258 . S
O461 Nd440 2.492 . S
O461 C442 1.239 . S
O462 Nd440 2.487 . S
O462 C449 1.241 . S
O463 Nd440 2.682 . S
O463 Nd441 2.414 . S
O463 C449 1.273 . S
O464 Nd440 2.410 . S
O464 C450 1.251 . S
O465 Nd441 2.424 . S
O465 C450 1.268 . S
O466 Nd441 2.500 . S
O466 C451 1.258 . S
O467 Nd441 2.492 . S
O467 C451 1.239 . S
O468 Nd441 2.487 . S
O468 C458 1.241 . S
O469 Nd440 2.414 . S
O469 Nd441 2.682 . S
O469 C458 1.273 . S
O470 Nd441 2.410 . S
O470 C459 1.251 . S
O471 Nd440 2.424 . S
O471 C459 1.268 . S
H472 C444 0.930 . S
H473 C445 0.929 . S
H474 C447 0.930 . S
H475 C448 0.929 . S
H476 C453 0.930 . S
H477 C454 0.929 . S
H478 C456 0.930 . S
H479 C457 0.929 . S
Nd480 C482 2.836 . S
Nd480 O500 2.500 . S
Nd480 O501 2.492 . S
Nd480 O502 2.487 . S
Nd480 O503 2.682 . S
Nd480 O504 2.410 . S
Nd480 O509 2.414 . S
Nd480 O511 2.424 . S
Nd481 C491 2.836 . S
Nd481 O503 2.414 . S
Nd481 O505 2.424 . S
Nd481 O506 2.500 . S
Nd481 O507 2.492 . S
Nd481 O508 2.487 . S
Nd481 O509 2.682 . S
Nd481 O510 2.410 . S
C482 Nd480 2.836 . S
C482 C483 1.498 . S
C482 O500 1.258 . S
C482 O501 1.239 . S
C483 C482 1.498 . S
C483 C484 1.366 . S
C483 C488 1.407 . S
C484 C483 1.366 . S
C484 C485 1.392 . S
C484 H512 0.930 . S
C485 C484 1.392 . S
C485 C486 1.398 . S
C485 H513 0.929 . S
C486 C485 1.398 . S
C486 C487 1.352 . S
C487 C486 1.352 . S
C487 C488 1.384 . S
C487 H514 0.930 . S
C488 C483 1.407 . S
C488 C487 1.384 . S
C488 H515 0.929 . S
C489 O502 1.241 . S
C489 O503 1.273 . S
C490 O504 1.251 . S
C490 O505 1.268 . S
C491 Nd481 2.836 . S
C491 C492 1.498 . S
C491 O506 1.258 . S
C491 O507 1.239 . S
C492 C491 1.498 . S
C492 C493 1.366 . S
C492 C497 1.407 . S
C493 C492 1.366 . S
C493 C494 1.392 . S
C493 H516 0.930 . S
C494 C493 1.392 . S
C494 C495 1.398 . S
C494 H517 0.929 . S
C495 C494 1.398 . S
C495 C496 1.352 . S
C496 C495 1.352 . S
C496 C497 1.384 . S
C496 H518 0.930 . S
C497 C492 1.407 . S
C497 C496 1.384 . S
C497 H519 0.929 . S
C498 O508 1.241 . S
C498 O509 1.273 . S
C499 O510 1.251 . S
C499 O511 1.268 . S
O500 Nd480 2.500 . S
O500 C482 1.258 . S
O501 Nd480 2.492 . S
O501 C482 1.239 . S
O502 Nd480 2.487 . S
O502 C489 1.241 . S
O503 Nd480 2.682 . S
O503 Nd481 2.414 . S
O503 C489 1.273 . S
O504 Nd480 2.410 . S
O504 C490 1.251 . S
O505 Nd481 2.424 . S
O505 C490 1.268 . S
O506 Nd481 2.500 . S
O506 C491 1.258 . S
O507 Nd481 2.492 . S
O507 C491 1.239 . S
O508 Nd481 2.487 . S
O508 C498 1.241 . S
O509 Nd480 2.414 . S
O509 Nd481 2.682 . S
O509 C498 1.273 . S
O510 Nd481 2.410 . S
O510 C499 1.251 . S
O511 Nd480 2.424 . S
O511 C499 1.268 . S
H512 C484 0.930 . S
H513 C485 0.929 . S
H514 C487 0.930 . S
H515 C488 0.929 . S
H516 C493 0.930 . S
H517 C494 0.929 . S
H518 C496 0.930 . S
H519 C497 0.929 . S
Nd520 C522 2.836 . S
Nd520 O540 2.500 . S
Nd520 O541 2.492 . S
Nd520 O542 2.487 . S
Nd520 O543 2.682 . S
Nd520 O544 2.410 . S
Nd520 O549 2.414 . S
Nd520 O551 2.424 . S
Nd521 C531 2.836 . S
Nd521 O543 2.414 . S
Nd521 O545 2.424 . S
Nd521 O546 2.500 . S
Nd521 O547 2.492 . S
Nd521 O548 2.487 . S
Nd521 O549 2.682 . S
Nd521 O550 2.410 . S
C522 Nd520 2.836 . S
C522 C523 1.498 . S
C522 O540 1.258 . S
C522 O541 1.239 . S
C523 C522 1.498 . S
C523 C524 1.366 . S
C523 C528 1.407 . S
C524 C523 1.366 . S
C524 C525 1.392 . S
C524 H552 0.930 . S
C525 C524 1.392 . S
C525 C526 1.398 . S
C525 H553 0.929 . S
C526 C525 1.398 . S
C526 C527 1.352 . S
C527 C526 1.352 . S
C527 C528 1.384 . S
C527 H554 0.930 . S
C528 C523 1.407 . S
C528 C527 1.384 . S
C528 H555 0.929 . S
C529 O542 1.241 . S
C529 O543 1.273 . S
C530 O544 1.251 . S
C530 O545 1.268 . S
C531 Nd521 2.836 . S
C531 C532 1.498 . S
C531 O546 1.258 . S
C531 O547 1.239 . S
C532 C531 1.498 . S
C532 C533 1.366 . S
C532 C537 1.407 . S
C533 C532 1.366 . S
C533 C534 1.392 . S
C533 H556 0.930 . S
C534 C533 1.392 . S
C534 C535 1.398 . S
C534 H557 0.929 . S
C535 C534 1.398 . S
C535 C536 1.352 . S
C536 C535 1.352 . S
C536 C537 1.384 . S
C536 H558 0.930 . S
C537 C532 1.407 . S
C537 C536 1.384 . S
C537 H559 0.929 . S
C538 O548 1.241 . S
C538 O549 1.273 . S
C539 O550 1.251 . S
C539 O551 1.268 . S
O540 Nd520 2.500 . S
O540 C522 1.258 . S
O541 Nd520 2.492 . S
O541 C522 1.239 . S
O542 Nd520 2.487 . S
O542 C529 1.241 . S
O543 Nd520 2.682 . S
O543 Nd521 2.414 . S
O543 C529 1.273 . S
O544 Nd520 2.410 . S
O544 C530 1.251 . S
O545 Nd521 2.424 . S
O545 C530 1.268 . S
O546 Nd521 2.500 . S
O546 C531 1.258 . S
O547 Nd521 2.492 . S
O547 C531 1.239 . S
O548 Nd521 2.487 . S
O548 C538 1.241 . S
O549 Nd520 2.414 . S
O549 Nd521 2.682 . S
O549 C538 1.273 . S
O550 Nd521 2.410 . S
O550 C539 1.251 . S
O551 Nd520 2.424 . S
O551 C539 1.268 . S
H552 C524 0.930 . S
H553 C525 0.929 . S
H554 C527 0.930 . S
H555 C528 0.929 . S
H556 C533 0.930 . S
H557 C534 0.929 . S
H558 C536 0.930 . S
H559 C537 0.929 . S
Nd560 C562 2.836 . S
Nd560 O580 2.500 . S
Nd560 O581 2.492 . S
Nd560 O582 2.487 . S
Nd560 O583 2.682 . S
Nd560 O584 2.410 . S
Nd560 O589 2.414 . S
Nd560 O591 2.424 . S
Nd561 C571 2.836 . S
Nd561 O583 2.414 . S
Nd561 O585 2.424 . S
Nd561 O586 2.500 . S
Nd561 O587 2.492 . S
Nd561 O588 2.487 . S
Nd561 O589 2.682 . S
Nd561 O590 2.410 . S
C562 Nd560 2.836 . S
C562 C563 1.498 . S
C562 O580 1.258 . S
C562 O581 1.239 . S
C563 C562 1.498 . S
C563 C564 1.366 . S
C563 C568 1.407 . S
C564 C563 1.366 . S
C564 C565 1.392 . S
C564 H592 0.930 . S
C565 C564 1.392 . S
C565 C566 1.398 . S
C565 H593 0.929 . S
C566 C565 1.398 . S
C566 C567 1.352 . S
C567 C566 1.352 . S
C567 C568 1.384 . S
C567 H594 0.930 . S
C568 C563 1.407 . S
C568 C567 1.384 . S
C568 H595 0.929 . S
C569 O582 1.241 . S
C569 O583 1.273 . S
C570 O584 1.251 . S
C570 O585 1.268 . S
C571 Nd561 2.836 . S
C571 C572 1.498 . S
C571 O586 1.258 . S
C571 O587 1.239 . S
C572 C571 1.498 . S
C572 C573 1.366 . S
C572 C577 1.407 . S
C573 C572 1.366 . S
C573 C574 1.392 . S
C573 H596 0.930 . S
C574 C573 1.392 . S
C574 C575 1.398 . S
C574 H597 0.929 . S
C575 C574 1.398 . S
C575 C576 1.352 . S
C576 C575 1.352 . S
C576 C577 1.384 . S
C576 H598 0.930 . S
C577 C572 1.407 . S
C577 C576 1.384 . S
C577 H599 0.929 . S
C578 O588 1.241 . S
C578 O589 1.273 . S
C579 O590 1.251 . S
C579 O591 1.268 . S
O580 Nd560 2.500 . S
O580 C562 1.258 . S
O581 Nd560 2.492 . S
O581 C562 1.239 . S
O582 Nd560 2.487 . S
O582 C569 1.241 . S
O583 Nd560 2.682 . S
O583 Nd561 2.414 . S
O583 C569 1.273 . S
O584 Nd560 2.410 . S
O584 C570 1.251 . S
O585 Nd561 2.424 . S
O585 C570 1.268 . S
O586 Nd561 2.500 . S
O586 C571 1.258 . S
O587 Nd561 2.492 . S
O587 C571 1.239 . S
O588 Nd561 2.487 . S
O588 C578 1.241 . S
O589 Nd560 2.414 . S
O589 Nd561 2.682 . S
O589 C578 1.273 . S
O590 Nd561 2.410 . S
O590 C579 1.251 . S
O591 Nd560 2.424 . S
O591 C579 1.268 . S
H592 C564 0.930 . S
H593 C565 0.929 . S
H594 C567 0.930 . S
H595 C568 0.929 . S
H596 C573 0.930 . S
H597 C574 0.929 . S
H598 C576 0.930 . S
H599 C577 0.929 . S
Nd600 C602 2.836 1_554 S
Nd600 O620 2.500 1_554 S
Nd600 O621 2.492 1_554 S
Nd600 O622 2.487 . S
Nd600 O623 2.682 . S
Nd600 O624 2.410 1_554 S
Nd600 O629 2.414 1_554 S
Nd600 O631 2.424 . S
Nd601 C611 2.836 1_556 S
Nd601 O623 2.414 1_556 S
Nd601 O625 2.424 . S
Nd601 O626 2.500 1_556 S
Nd601 O627 2.492 1_556 S
Nd601 O628 2.487 . S
Nd601 O629 2.682 . S
Nd601 O630 2.410 1_556 S
C602 Nd600 2.836 1_556 S
C602 C603 1.498 . S
C602 O620 1.258 . S
C602 O621 1.239 . S
C603 C602 1.498 . S
C603 C604 1.366 . S
C603 C608 1.407 . S
C604 C603 1.366 . S
C604 C605 1.392 . S
C604 H632 0.930 . S
C605 C604 1.392 . S
C605 C606 1.398 . S
C605 H633 0.929 . S
C606 C605 1.398 . S
C606 C607 1.352 . S
C607 C606 1.352 . S
C607 C608 1.384 . S
C607 H634 0.930 . S
C608 C603 1.407 . S
C608 C607 1.384 . S
C608 H635 0.929 . S
C609 O622 1.241 . S
C609 O623 1.273 . S
C610 O624 1.251 . S
C610 O625 1.268 . S
C611 Nd601 2.836 1_554 S
C611 C612 1.498 . S
C611 O626 1.258 . S
C611 O627 1.239 . S
C612 C611 1.498 . S
C612 C613 1.366 . S
C612 C617 1.407 . S
C613 C612 1.366 . S
C613 C614 1.392 . S
C613 H636 0.930 . S
C614 C613 1.392 . S
C614 C615 1.398 . S
C614 H637 0.929 . S
C615 C614 1.398 . S
C615 C616 1.352 . S
C616 C615 1.352 . S
C616 C617 1.384 . S
C616 H638 0.930 . S
C617 C612 1.407 . S
C617 C616 1.384 . S
C617 H639 0.929 . S
C618 O628 1.241 . S
C618 O629 1.273 . S
C619 O630 1.251 . S
C619 O631 1.268 . S
O620 Nd600 2.500 1_556 S
O620 C602 1.258 . S
O621 Nd600 2.492 1_556 S
O621 C602 1.239 . S
O622 Nd600 2.487 . S
O622 C609 1.241 . S
O623 Nd600 2.682 . S
O623 Nd601 2.414 1_554 S
O623 C609 1.273 . S
O624 Nd600 2.410 1_556 S
O624 C610 1.251 . S
O625 Nd601 2.424 . S
O625 C610 1.268 . S
O626 Nd601 2.500 1_554 S
O626 C611 1.258 . S
O627 Nd601 2.492 1_554 S
O627 C611 1.239 . S
O628 Nd601 2.487 . S
O628 C618 1.241 . S
O629 Nd600 2.414 1_556 S
O629 Nd601 2.682 . S
O629 C618 1.273 . S
O630 Nd601 2.410 1_554 S
O630 C619 1.251 . S
O631 Nd600 2.424 . S
O631 C619 1.268 . S
H632 C604 0.930 . S
H633 C605 0.929 . S
H634 C607 0.930 . S
H635 C608 0.929 . S
H636 C613 0.930 . S
H637 C614 0.929 . S
H638 C616 0.930 . S
H639 C617 0.929 . S
Nd640 C642 2.836 1_554 S
Nd640 O660 2.500 1_554 S
Nd640 O661 2.492 1_554 S
Nd640 O662 2.487 . S
Nd640 O663 2.682 . S
Nd640 O664 2.410 1_554 S
Nd640 O669 2.414 1_554 S
Nd640 O671 2.424 . S
Nd641 C651 2.836 1_556 S
Nd641 O663 2.414 1_556 S
Nd641 O665 2.424 . S
Nd641 O666 2.500 1_556 S
Nd641 O667 2.492 1_556 S
Nd641 O668 2.487 . S
Nd641 O669 2.682 . S
Nd641 O670 2.410 1_556 S
C642 Nd640 2.836 1_556 S
C642 C643 1.498 . S
C642 O660 1.258 . S
C642 O661 1.239 . S
C643 C642 1.498 . S
C643 C644 1.366 . S
C643 C648 1.407 . S
C644 C643 1.366 . S
C644 C645 1.392 . S
C644 H672 0.930 . S
C645 C644 1.392 . S
C645 C646 1.398 . S
C645 H673 0.929 . S
C646 C645 1.398 . S
C646 C647 1.352 . S
C647 C646 1.352 . S
C647 C648 1.384 . S
C647 H674 0.930 1_565 S
C648 C643 1.407 . S
C648 C647 1.384 . S
C648 H675 0.929 . S
C649 O662 1.241 . S
C649 O663 1.273 . S
C650 O664 1.251 . S
C650 O665 1.268 . S
C651 Nd641 2.836 1_554 S
C651 C652 1.498 . S
C651 O666 1.258 . S
C651 O667 1.239 . S
C652 C651 1.498 . S
C652 C653 1.366 . S
C652 C657 1.407 . S
C653 C652 1.366 . S
C653 C654 1.392 . S
C653 H676 0.930 . S
C654 C653 1.392 . S
C654 C655 1.398 . S
C654 H677 0.929 . S
C655 C654 1.398 . S
C655 C656 1.352 . S
C656 C655 1.352 . S
C656 C657 1.384 . S
C656 H678 0.930 . S
C657 C652 1.407 . S
C657 C656 1.384 . S
C657 H679 0.929 . S
C658 O668 1.241 . S
C658 O669 1.273 . S
C659 O670 1.251 . S
C659 O671 1.268 . S
O660 Nd640 2.500 1_556 S
O660 C642 1.258 . S
O661 Nd640 2.492 1_556 S
O661 C642 1.239 . S
O662 Nd640 2.487 . S
O662 C649 1.241 . S
O663 Nd640 2.682 . S
O663 Nd641 2.414 1_554 S
O663 C649 1.273 . S
O664 Nd640 2.410 1_556 S
O664 C650 1.251 . S
O665 Nd641 2.424 . S
O665 C650 1.268 . S
O666 Nd641 2.500 1_554 S
O666 C651 1.258 . S
O667 Nd641 2.492 1_554 S
O667 C651 1.239 . S
O668 Nd641 2.487 . S
O668 C658 1.241 . S
O669 Nd640 2.414 1_556 S
O669 Nd641 2.682 . S
O669 C658 1.273 . S
O670 Nd641 2.410 1_554 S
O670 C659 1.251 . S
O671 Nd640 2.424 . S
O671 C659 1.268 . S
H672 C644 0.930 . S
H673 C645 0.929 . S
H674 C647 0.930 1_545 S
H675 C648 0.929 . S
H676 C653 0.930 . S
H677 C654 0.929 . S
H678 C656 0.930 . S
H679 C657 0.929 . S
Nd680 C682 2.836 1_554 S
Nd680 O700 2.500 1_554 S
Nd680 O701 2.492 1_554 S
Nd680 O702 2.487 . S
Nd680 O703 2.682 . S
Nd680 O704 2.410 1_554 S
Nd680 O709 2.414 1_554 S
Nd680 O711 2.424 . S
Nd681 C691 2.836 1_556 S
Nd681 O703 2.414 1_556 S
Nd681 O705 2.424 . S
Nd681 O706 2.500 1_556 S
Nd681 O707 2.492 1_556 S
Nd681 O708 2.487 . S
Nd681 O709 2.682 . S
Nd681 O710 2.410 1_556 S
C682 Nd680 2.836 1_556 S
C682 C683 1.498 . S
C682 O700 1.258 . S
C682 O701 1.239 . S
C683 C682 1.498 . S
C683 C684 1.366 . S
C683 C688 1.407 . S
C684 C683 1.366 . S
C684 C685 1.392 . S
C684 H712 0.930 . S
C685 C684 1.392 . S
C685 C686 1.398 . S
C685 H713 0.929 . S
C686 C685 1.398 . S
C686 C687 1.352 . S
C687 C686 1.352 . S
C687 C688 1.384 . S
C687 H714 0.930 . S
C688 C683 1.407 . S
C688 C687 1.384 . S
C688 H715 0.929 . S
C689 O702 1.241 . S
C689 O703 1.273 . S
C690 O704 1.251 . S
C690 O705 1.268 . S
C691 Nd681 2.836 1_554 S
C691 C692 1.498 . S
C691 O706 1.258 . S
C691 O707 1.239 . S
C692 C691 1.498 . S
C692 C693 1.366 . S
C692 C697 1.407 . S
C693 C692 1.366 . S
C693 C694 1.392 . S
C693 H716 0.930 . S
C694 C693 1.392 . S
C694 C695 1.398 . S
C694 H717 0.929 . S
C695 C694 1.398 . S
C695 C696 1.352 . S
C696 C695 1.352 . S
C696 C697 1.384 . S
C696 H718 0.930 . S
C697 C692 1.407 . S
C697 C696 1.384 . S
C697 H719 0.929 . S
C698 O708 1.241 . S
C698 O709 1.273 . S
C699 O710 1.251 . S
C699 O711 1.268 . S
O700 Nd680 2.500 1_556 S
O700 C682 1.258 . S
O701 Nd680 2.492 1_556 S
O701 C682 1.239 . S
O702 Nd680 2.487 . S
O702 C689 1.241 . S
O703 Nd680 2.682 . S
O703 Nd681 2.414 1_554 S
O703 C689 1.273 . S
O704 Nd680 2.410 1_556 S
O704 C690 1.251 . S
O705 Nd681 2.424 . S
O705 C690 1.268 . S
O706 Nd681 2.500 1_554 S
O706 C691 1.258 . S
O707 Nd681 2.492 1_554 S
O707 C691 1.239 . S
O708 Nd681 2.487 . S
O708 C698 1.241 . S
O709 Nd680 2.414 1_556 S
O709 Nd681 2.682 . S
O709 C698 1.273 . S
O710 Nd681 2.410 1_554 S
O710 C699 1.251 . S
O711 Nd680 2.424 . S
O711 C699 1.268 . S
H712 C684 0.930 . S
H713 C685 0.929 . S
H714 C687 0.930 . S
H715 C688 0.929 . S
H716 C693 0.930 . S
H717 C694 0.929 . S
H718 C696 0.930 . S
H719 C697 0.929 . S
H720 C726 0.930 . S
H721 C729 0.930 . S
H722 C730 0.930 . S
H723 C731 0.930 . S
H724 C734 0.930 . S
H725 C735 0.930 . S
C726 H720 0.930 . S
C726 C727 1.355 . S
C726 C728 1.415 . S
C727 C726 1.355 . S
C727 C729 1.419 . S
C728 C726 1.415 . S
C728 C733 1.425 . S
C728 C735 1.409 . S
C729 H721 0.930 . S
C729 C727 1.419 . S
C729 C730 1.362 . S
C730 H722 0.930 . S
C730 C729 1.362 . S
C730 C733 1.409 . S
C731 H723 0.930 . S
C731 C732 1.355 . S
C731 C733 1.415 . S
C732 C731 1.355 . S
C732 C734 1.419 . S
C733 C728 1.425 . S
C733 C730 1.409 . S
C733 C731 1.415 . S
C734 H724 0.930 . S
C734 C732 1.419 . S
C734 C735 1.362 . S
C735 H725 0.930 . S
C735 C728 1.409 . S
C735 C734 1.362 . S
H736 C742 0.930 . S
H737 C745 0.930 . S
H738 C746 0.930 . S
H739 C747 0.930 . S
H740 C750 0.930 . S
H741 C751 0.930 . S
C742 H736 0.930 . S
C742 C743 1.355 . S
C742 C744 1.415 . S
C743 C742 1.355 . S
C743 C745 1.419 . S
C744 C742 1.415 . S
C744 C749 1.425 . S
C744 C751 1.409 . S
C745 H737 0.930 . S
C745 C743 1.419 . S
C745 C746 1.362 . S
C746 H738 0.930 . S
C746 C745 1.362 . S
C746 C749 1.409 . S
C747 H739 0.930 . S
C747 C748 1.355 . S
C747 C749 1.415 . S
C748 C747 1.355 . S
C748 C750 1.419 . S
C749 C744 1.425 . S
C749 C746 1.409 . S
C749 C747 1.415 . S
C750 H740 0.930 . S
C750 C748 1.419 . S
C750 C751 1.362 . S
C751 H741 0.930 . S
C751 C744 1.409 . S
C751 C750 1.362 . S
H752 C758 0.930 . S
H753 C761 0.930 . S
H754 C762 0.930 . S
H755 C763 0.930 . S
H756 C766 0.930 . S
H757 C767 0.930 . S
C758 H752 0.930 . S
C758 C759 1.355 . S
C758 C760 1.415 . S
C759 C758 1.355 . S
C759 C761 1.419 . S
C760 C758 1.415 . S
C760 C765 1.425 . S
C760 C767 1.409 . S
C761 H753 0.930 . S
C761 C759 1.419 . S
C761 C762 1.362 . S
C762 H754 0.930 . S
C762 C761 1.362 . S
C762 C765 1.409 . S
C763 H755 0.930 . S
C763 C764 1.355 . S
C763 C765 1.415 . S
C764 C763 1.355 . S
C764 C766 1.419 . S
C765 C760 1.425 . S
C765 C762 1.409 . S
C765 C763 1.415 . S
C766 H756 0.930 . S
C766 C764 1.419 . S
C766 C767 1.362 . S
C767 H757 0.930 . S
C767 C760 1.409 . S
C767 C766 1.362 . S
H768 C774 0.930 . S
H769 C777 0.930 . S
H770 C778 0.930 . S
H771 C779 0.930 . S
H772 C782 0.930 . S
H773 C783 0.930 . S
C774 H768 0.930 . S
C774 C775 1.355 1_554 S
C774 C776 1.415 . S
C775 C774 1.355 1_556 S
C775 C777 1.419 . S
C776 C774 1.415 . S
C776 C781 1.425 1_554 S
C776 C783 1.409 . S
C777 H769 0.930 . S
C777 C775 1.419 . S
C777 C778 1.362 . S
C778 H770 0.930 . S
C778 C777 1.362 . S
C778 C781 1.409 . S
C779 H771 0.930 . S
C779 C780 1.355 . S
C779 C781 1.415 . S
C780 C779 1.355 . S
C780 C782 1.419 1_556 S
C781 C776 1.425 1_556 S
C781 C778 1.409 . S
C781 C779 1.415 . S
C782 H772 0.930 . S
C782 C780 1.419 1_554 S
C782 C783 1.362 . S
C783 H773 0.930 . S
C783 C776 1.409 . S
C783 C782 1.362 . S
H784 C790 0.930 . S
H785 C793 0.930 . S
H786 C794 0.930 . S
H787 C795 0.930 . S
H788 C798 0.930 . S
H789 C799 0.930 . S
C790 H784 0.930 . S
C790 C791 1.355 . S
C790 C792 1.415 . S
C791 C790 1.355 . S
C791 C793 1.419 1_556 S
C792 C790 1.415 . S
C792 C797 1.425 . S
C792 C799 1.409 . S
C793 H785 0.930 . S
C793 C791 1.419 1_554 S
C793 C794 1.362 . S
C794 H786 0.930 . S
C794 C793 1.362 . S
C794 C797 1.409 1_554 S
C795 H787 0.930 . S
C795 C796 1.355 . S
C795 C797 1.415 . S
C796 C795 1.355 . S
C796 C798 1.419 . S
C797 C792 1.425 . S
C797 C794 1.409 1_556 S
C797 C795 1.415 . S
C798 H788 0.930 . S
C798 C796 1.419 . S
C798 C799 1.362 . S
C799 H789 0.930 . S
C799 C792 1.409 . S
C799 C798 1.362 . S
H800 C806 0.930 . S
H801 C809 0.930 . S
H802 C810 0.930 . S
H803 C811 0.930 . S
H804 C814 0.930 . S
H805 C815 0.930 . S
C806 H800 0.930 . S
C806 C807 1.355 1_554 S
C806 C808 1.415 1_554 S
C807 C806 1.355 1_556 S
C807 C809 1.419 . S
C808 C806 1.415 1_556 S
C808 C813 1.425 . S
C808 C815 1.409 1_556 S
C809 H801 0.930 . S
C809 C807 1.419 . S
C809 C810 1.362 . S
C810 H802 0.930 . S
C810 C809 1.362 . S
C810 C813 1.409 . S
C811 H803 0.930 . S
C811 C812 1.355 . S
C811 C813 1.415 . S
C812 C811 1.355 . S
C812 C814 1.419 1_556 S
C813 C808 1.425 . S
C813 C810 1.409 . S
C813 C811 1.415 . S
C814 H804 0.930 . S
C814 C812 1.419 1_554 S
C814 C815 1.362 . S
C815 H805 0.930 . S
C815 C808 1.409 1_554 S
C815 C814 1.362 . S
H816 C822 0.930 . S
H817 C825 0.930 . S
H818 C826 0.930 . S
H819 C827 0.930 . S
H820 C830 0.930 . S
H821 C831 0.930 . S
C822 H816 0.930 . S
C822 C823 1.355 . S
C822 C824 1.415 . S
C823 C822 1.355 . S
C823 C825 1.419 . S
C824 C822 1.415 . S
C824 C829 1.425 . S
C824 C831 1.409 . S
C825 H817 0.930 . S
C825 C823 1.419 . S
C825 C826 1.362 . S
C826 H818 0.930 . S
C826 C825 1.362 . S
C826 C829 1.409 . S
C827 H819 0.930 . S
C827 C828 1.355 . S
C827 C829 1.415 . S
C828 C827 1.355 . S
C828 C830 1.419 . S
C829 C824 1.425 . S
C829 C826 1.409 . S
C829 C827 1.415 . S
C830 H820 0.930 . S
C830 C828 1.419 . S
C830 C831 1.362 . S
C831 H821 0.930 . S
C831 C824 1.409 . S
C831 C830 1.362 . S
H832 C838 0.930 . S
H833 C841 0.930 . S
H834 C842 0.930 . S
H835 C843 0.930 . S
H836 C846 0.930 . S
H837 C847 0.930 . S
C838 H832 0.930 . S
C838 C839 1.355 . S
C838 C840 1.415 . S
C839 C838 1.355 . S
C839 C841 1.419 . S
C840 C838 1.415 . S
C840 C845 1.425 . S
C840 C847 1.409 . S
C841 H833 0.930 . S
C841 C839 1.419 . S
C841 C842 1.362 . S
C842 H834 0.930 . S
C842 C841 1.362 . S
C842 C845 1.409 . S
C843 H835 0.930 . S
C843 C844 1.355 . S
C843 C845 1.415 . S
C844 C843 1.355 . S
C844 C846 1.419 . S
C845 C840 1.425 . S
C845 C842 1.409 . S
C845 C843 1.415 . S
C846 H836 0.930 . S
C846 C844 1.419 . S
C846 C847 1.362 . S
C847 H837 0.930 . S
C847 C840 1.409 . S
C847 C846 1.362 . S
H848 C854 0.930 . S
H849 C857 0.930 . S
H850 C858 0.930 . S
H851 C859 0.930 . S
H852 C862 0.930 . S
H853 C863 0.930 . S
C854 H848 0.930 . S
C854 C855 1.355 . S
C854 C856 1.415 . S
C855 C854 1.355 . S
C855 C857 1.419 . S
C856 C854 1.415 . S
C856 C861 1.425 . S
C856 C863 1.409 . S
C857 H849 0.930 . S
C857 C855 1.419 . S
C857 C858 1.362 . S
C858 H850 0.930 . S
C858 C857 1.362 . S
C858 C861 1.409 . S
C859 H851 0.930 . S
C859 C860 1.355 . S
C859 C861 1.415 . S
C860 C859 1.355 . S
C860 C862 1.419 . S
C861 C856 1.425 . S
C861 C858 1.409 . S
C861 C859 1.415 . S
C862 H852 0.930 . S
C862 C860 1.419 . S
C862 C863 1.362 . S
C863 H853 0.930 . S
C863 C856 1.409 . S
C863 C862 1.362 . S
H864 C870 0.930 . S
H865 C873 0.930 . S
H866 C874 0.930 . S
H867 C875 0.930 . S
H868 C878 0.930 . S
H869 C879 0.930 . S
C870 H864 0.930 . S
C870 C871 1.355 . S
C870 C872 1.415 . S
C871 C870 1.355 . S
C871 C873 1.419 1_554 S
C872 C870 1.415 . S
C872 C877 1.425 . S
C872 C879 1.409 . S
C873 H865 0.930 . S
C873 C871 1.419 1_556 S
C873 C874 1.362 . S
C874 H866 0.930 . S
C874 C873 1.362 . S
C874 C877 1.409 1_556 S
C875 H867 0.930 . S
C875 C876 1.355 1_556 S
C875 C877 1.415 1_556 S
C876 C875 1.355 1_554 S
C876 C878 1.419 . S
C877 C872 1.425 . S
C877 C874 1.409 1_554 S
C877 C875 1.415 1_554 S
C878 H868 0.930 . S
C878 C876 1.419 . S
C878 C879 1.362 . S
C879 H869 0.930 . S
C879 C872 1.409 . S
C879 C878 1.362 . S
H880 C886 0.930 . S
H881 C889 0.930 . S
H882 C890 0.930 . S
H883 C891 0.930 . S
H884 C894 0.930 . S
H885 C895 0.930 . S
C886 H880 0.930 . S
C886 C887 1.355 . S
C886 C888 1.415 . S
C887 C886 1.355 . S
C887 C889 1.419 1_554 S
C888 C886 1.415 . S
C888 C893 1.425 1_554 S
C888 C895 1.409 . S
C889 H881 0.930 . S
C889 C887 1.419 1_556 S
C889 C890 1.362 . S
C890 H882 0.930 . S
C890 C889 1.362 . S
C890 C893 1.409 . S
C891 H883 0.930 . S
C891 C892 1.355 1_556 S
C891 C893 1.415 . S
C892 C891 1.355 1_554 S
C892 C894 1.419 . S
C893 C888 1.425 1_556 S
C893 C890 1.409 . S
C893 C891 1.415 . S
C894 H884 0.930 . S
C894 C892 1.419 . S
C894 C895 1.362 . S
C895 H885 0.930 . S
C895 C888 1.409 . S
C895 C894 1.362 . S
H896 C902 0.930 . S
H897 C905 0.930 . S
H898 C906 0.930 . S
H899 C907 0.930 . S
H900 C910 0.930 . S
H901 C911 0.930 . S
C902 H896 0.930 . S
C902 C903 1.355 1_556 S
C902 C904 1.415 . S
C903 C902 1.355 1_554 S
C903 C905 1.419 . S
C904 C902 1.415 . S
C904 C909 1.425 1_556 S
C904 C911 1.409 . S
C905 H897 0.930 . S
C905 C903 1.419 . S
C905 C906 1.362 . S
C906 H898 0.930 . S
C906 C905 1.362 . S
C906 C909 1.409 . S
C907 H899 0.930 . S
C907 C908 1.355 . S
C907 C909 1.415 . S
C908 C907 1.355 . S
C908 C910 1.419 1_554 S
C909 C904 1.425 1_554 S
C909 C906 1.409 . S
C909 C907 1.415 . S
C910 H900 0.930 . S
C910 C908 1.419 1_556 S
C910 C911 1.362 . S
C911 H901 0.930 . S
C911 C904 1.409 . S
C911 C910 1.362 . S
H912 C918 0.930 . S
H913 C921 0.930 . S
H914 C922 0.930 . S
H915 C923 0.930 . S
H916 C926 0.930 . S
H917 C927 0.930 . S
C918 H912 0.930 . S
C918 C919 1.355 . S
C918 C920 1.415 . S
C919 C918 1.355 . S
C919 C921 1.419 . S
C920 C918 1.415 . S
C920 C925 1.425 . S
C920 C927 1.409 . S
C921 H913 0.930 . S
C921 C919 1.419 . S
C921 C922 1.362 . S
C922 H914 0.930 . S
C922 C921 1.362 . S
C922 C925 1.409 . S
C923 H915 0.930 . S
C923 C924 1.355 . S
C923 C925 1.415 . S
C924 C923 1.355 . S
C924 C926 1.419 . S
C925 C920 1.425 . S
C925 C922 1.409 . S
C925 C923 1.415 . S
C926 H916 0.930 . S
C926 C924 1.419 . S
C926 C927 1.362 . S
C927 H917 0.930 . S
C927 C920 1.409 . S
C927 C926 1.362 . S
H928 C934 0.930 . S
H929 C937 0.930 . S
H930 C938 0.930 . S
H931 C939 0.930 . S
H932 C942 0.930 . S
H933 C943 0.930 . S
C934 H928 0.930 . S
C934 C935 1.355 . S
C934 C936 1.415 . S
C935 C934 1.355 . S
C935 C937 1.419 . S
C936 C934 1.415 . S
C936 C941 1.425 . S
C936 C943 1.409 . S
C937 H929 0.930 . S
C937 C935 1.419 . S
C937 C938 1.362 . S
C938 H930 0.930 . S
C938 C937 1.362 . S
C938 C941 1.409 . S
C939 H931 0.930 . S
C939 C940 1.355 . S
C939 C941 1.415 . S
C940 C939 1.355 . S
C940 C942 1.419 . S
C941 C936 1.425 . S
C941 C938 1.409 . S
C941 C939 1.415 . S
C942 H932 0.930 . S
C942 C940 1.419 . S
C942 C943 1.362 . S
C943 H933 0.930 . S
C943 C936 1.409 . S
C943 C942 1.362 . S
H944 C950 0.930 . S
H945 C953 0.930 . S
H946 C954 0.939 1_565 S
H947 C955 0.930 . S
H948 C958 0.930 . S
H949 C959 0.930 . S
C950 H944 0.930 . S
C950 C951 1.355 . S
C950 C952 1.415 1_545 S
C951 C950 1.355 . S
C951 C953 1.419 . S
C952 C950 1.415 1_565 S
C952 C957 1.425 . S
C952 C959 1.409 . S
C953 H945 0.930 . S
C953 C951 1.419 . S
C953 C954 1.362 . S
C954 H946 0.939 1_545 S
C954 C953 1.362 . S
C954 C957 1.409 1_545 S
C955 H947 0.930 . S
C955 C956 1.355 . S
C955 C957 1.415 . S
C956 C955 1.355 . S
C956 C958 1.419 . S
C957 C952 1.425 . S
C957 C954 1.409 1_565 S
C957 C955 1.415 . S
C958 H948 0.930 . S
C958 C956 1.419 . S
C958 C959 1.362 . S
C959 H949 0.930 . S
C959 C952 1.409 . S
C959 C958 1.362 . S
H960 C966 0.930 . S
H961 C969 0.930 . S
H962 C970 0.930 . S
H963 C971 0.930 . S
H964 C974 0.930 . S
H965 C975 0.930 . S
C966 H960 0.930 . S
C966 C967 1.355 . S
C966 C968 1.415 . S
C967 C966 1.355 . S
C967 C969 1.419 . S
C968 C966 1.415 . S
C968 C973 1.425 . S
C968 C975 1.409 . S
C969 H961 0.930 . S
C969 C967 1.419 . S
C969 C970 1.362 . S
C970 H962 0.930 . S
C970 C969 1.362 . S
C970 C973 1.409 . S
C971 H963 0.930 . S
C971 C972 1.355 . S
C971 C973 1.415 . S
C972 C971 1.355 . S
C972 C974 1.419 . S
C973 C968 1.425 . S
C973 C970 1.409 . S
C973 C971 1.415 . S
C974 H964 0.930 . S
C974 C972 1.419 . S
C974 C975 1.362 . S
C975 H965 0.930 . S
C975 C968 1.409 . S
C975 C974 1.362 . S
H976 C982 0.930 . S
H977 C985 0.930 . S
H978 C986 0.930 . S
H979 C987 0.930 . S
H980 C990 0.930 . S
H981 C991 0.930 . S
C982 H976 0.930 . S
C982 C983 1.355 . S
C982 C984 1.415 1_455 S
C983 C982 1.355 . S
C983 C985 1.419 . S
C984 C982 1.415 1_655 S
C984 C989 1.425 . S
C984 C991 1.409 . S
C985 H977 0.930 . S
C985 C983 1.419 . S
C985 C986 1.362 1_455 S
C986 H978 0.930 . S
C986 C985 1.362 1_655 S
C986 C989 1.409 . S
C987 H979 0.930 . S
C987 C988 1.355 . S
C987 C989 1.415 . S
C988 C987 1.355 . S
C988 C990 1.419 . S
C989 C984 1.425 . S
C989 C986 1.409 . S
C989 C987 1.415 . S
C990 H980 0.930 . S
C990 C988 1.419 . S
C990 C991 1.362 . S
C991 H981 0.930 . S
C991 C984 1.409 . S
C991 C990 1.362 . S
H992 C998 0.930 . S
H993 C1001 0.930 . S
H994 C1002 0.930 . S
H995 C1003 0.930 . S
H996 C1006 0.930 . S
H997 C1007 0.930 . S
C998 H992 0.930 . S
C998 C999 1.355 . S
C998 C1000 1.415 . S
C999 C998 1.355 . S
C999 C1001 1.419 . S
C1000 C998 1.415 . S
C1000 C1005 1.425 . S
C1000 C1007 1.409 . S
C1001 H993 0.930 . S
C1001 C999 1.419 . S
C1001 C1002 1.362 . S
C1002 H994 0.930 . S
C1002 C1001 1.362 . S
C1002 C1005 1.409 . S
C1003 H995 0.930 . S
C1003 C1004 1.355 . S
C1003 C1005 1.415 . S
C1004 C1003 1.355 . S
C1004 C1006 1.419 . S
C1005 C1000 1.425 . S
C1005 C1002 1.409 . S
C1005 C1003 1.415 . S
C1006 H996 0.930 . S
C1006 C1004 1.419 . S
C1006 C1007 1.362 . S
C1007 H997 0.930 . S
C1007 C1000 1.409 . S
C1007 C1006 1.362 . S
H1008 C1014 0.930 . S
H1009 C1017 0.930 . S
H1010 C1018 0.930 . S
H1011 C1019 0.930 . S
H1012 C1022 0.930 . S
H1013 C1023 0.930 . S
C1014 H1008 0.930 . S
C1014 C1015 1.355 . S
C1014 C1016 1.415 . S
C1015 C1014 1.355 . S
C1015 C1017 1.419 . S
C1016 C1014 1.415 . S
C1016 C1021 1.425 . S
C1016 C1023 1.409 . S
C1017 H1009 0.930 . S
C1017 C1015 1.419 . S
C1017 C1018 1.362 . S
C1018 H1010 0.930 . S
C1018 C1017 1.362 . S
C1018 C1021 1.409 . S
C1019 H1011 0.930 . S
C1019 C1020 1.355 . S
C1019 C1021 1.415 . S
C1020 C1019 1.355 . S
C1020 C1022 1.419 . S
C1021 C1016 1.425 . S
C1021 C1018 1.409 . S
C1021 C1019 1.415 . S
C1022 H1012 0.930 . S
C1022 C1020 1.419 . S
C1022 C1023 1.362 . S
C1023 H1013 0.930 . S
C1023 C1016 1.409 . S
C1023 C1022 1.362 . S
H1024 C1030 0.930 . S
H1025 C1033 0.930 . S
H1026 C1034 0.930 . S
H1027 C1035 0.930 . S
H1028 C1038 0.930 . S
H1029 C1039 0.930 . S
C1030 H1024 0.930 . S
C1030 C1031 1.355 . S
C1030 C1032 1.415 . S
C1031 C1030 1.355 . S
C1031 C1033 1.419 . S
C1032 C1030 1.415 . S
C1032 C1037 1.425 . S
C1032 C1039 1.409 . S
C1033 H1025 0.930 . S
C1033 C1031 1.419 . S
C1033 C1034 1.362 . S
C1034 H1026 0.930 . S
C1034 C1033 1.362 . S
C1034 C1037 1.409 . S
C1035 H1027 0.930 . S
C1035 C1036 1.355 . S
C1035 C1037 1.415 . S
C1036 C1035 1.355 . S
C1036 C1038 1.419 . S
C1037 C1032 1.425 . S
C1037 C1034 1.409 . S
C1037 C1035 1.415 . S
C1038 H1028 0.930 . S
C1038 C1036 1.419 . S
C1038 C1039 1.362 . S
C1039 H1029 0.930 . S
C1039 C1032 1.409 . S
C1039 C1038 1.362 . S
H1040 C1046 0.930 . S
H1041 C1049 0.930 . S
H1042 C1050 0.930 . S
H1043 C1051 0.930 . S
H1044 C1054 0.930 . S
H1045 C1055 0.930 . S
C1046 H1040 0.930 . S
C1046 C1047 1.355 . S
C1046 C1048 1.415 . S
C1047 C1046 1.355 . S
C1047 C1049 1.419 . S
C1048 C1046 1.415 . S
C1048 C1053 1.425 . S
C1048 C1055 1.409 . S
C1049 H1041 0.930 . S
C1049 C1047 1.419 . S
C1049 C1050 1.362 . S
C1050 H1042 0.930 . S
C1050 C1049 1.362 . S
C1050 C1053 1.409 . S
C1051 H1043 0.930 . S
C1051 C1052 1.355 . S
C1051 C1053 1.415 . S
C1052 C1051 1.355 . S
C1052 C1054 1.419 . S
C1053 C1048 1.425 . S
C1053 C1050 1.409 . S
C1053 C1051 1.415 . S
C1054 H1044 0.930 . S
C1054 C1052 1.419 . S
C1054 C1055 1.362 . S
C1055 H1045 0.930 . S
C1055 C1048 1.409 . S
C1055 C1054 1.362 . S
H1056 C1062 0.930 . S
H1057 C1065 0.930 . S
H1058 C1066 0.930 . S
H1059 C1067 0.930 . S
H1060 C1070 0.930 . S
H1061 C1071 0.930 . S
C1062 H1056 0.930 . S
C1062 C1063 1.355 . S
C1062 C1064 1.415 . S
C1063 C1062 1.355 . S
C1063 C1065 1.419 . S
C1064 C1062 1.415 . S
C1064 C1069 1.425 . S
C1064 C1071 1.409 . S
C1065 H1057 0.930 . S
C1065 C1063 1.419 . S
C1065 C1066 1.362 . S
C1066 H1058 0.930 . S
C1066 C1065 1.362 . S
C1066 C1069 1.409 . S
C1067 H1059 0.930 . S
C1067 C1068 1.355 . S
C1067 C1069 1.415 . S
C1068 C1067 1.355 . S
C1068 C1070 1.419 . S
C1069 C1064 1.425 . S
C1069 C1066 1.409 . S
C1069 C1067 1.415 . S
C1070 H1060 0.930 . S
C1070 C1068 1.419 . S
C1070 C1071 1.362 . S
C1071 H1061 0.930 . S
C1071 C1064 1.409 . S
C1071 C1070 1.362 . S
H1072 C1078 0.930 . S
H1073 C1081 0.930 . S
H1074 C1082 0.930 . S
H1075 C1083 0.930 . S
H1076 C1086 0.930 . S
H1077 C1087 0.930 . S
C1078 H1072 0.930 . S
C1078 C1079 1.355 . S
C1078 C1080 1.415 . S
C1079 C1078 1.355 . S
C1079 C1081 1.419 . S
C1080 C1078 1.415 . S
C1080 C1085 1.425 . S
C1080 C1087 1.409 . S
C1081 H1073 0.930 . S
C1081 C1079 1.419 . S
C1081 C1082 1.362 . S
C1082 H1074 0.930 . S
C1082 C1081 1.362 . S
C1082 C1085 1.409 . S
C1083 H1075 0.930 . S
C1083 C1084 1.355 . S
C1083 C1085 1.415 . S
C1084 C1083 1.355 . S
C1084 C1086 1.419 . S
C1085 C1080 1.425 . S
C1085 C1082 1.409 . S
C1085 C1083 1.415 . S
C1086 H1076 0.930 . S
C1086 C1084 1.419 . S
C1086 C1087 1.362 . S
C1087 H1077 0.930 . S
C1087 C1080 1.409 . S
C1087 C1086 1.362 . S
H1088 C1094 0.930 . S
H1089 C1097 0.930 . S
H1090 C1098 0.930 . S
H1091 C1099 0.930 . S
H1092 C1102 0.930 . S
H1093 C1103 0.930 . S
C1094 H1088 0.930 . S
C1094 C1095 1.355 . S
C1094 C1096 1.415 . S
C1095 C1094 1.355 . S
C1095 C1097 1.419 . S
C1096 C1094 1.415 . S
C1096 C1101 1.425 . S
C1096 C1103 1.409 . S
C1097 H1089 0.930 . S
C1097 C1095 1.419 . S
C1097 C1098 1.362 . S
C1098 H1090 0.930 . S
C1098 C1097 1.362 . S
C1098 C1101 1.409 . S
C1099 H1091 0.930 . S
C1099 C1100 1.355 . S
C1099 C1101 1.415 . S
C1100 C1099 1.355 . S
C1100 C1102 1.419 . S
C1101 C1096 1.425 . S
C1101 C1098 1.409 . S
C1101 C1099 1.415 . S
C1102 H1092 0.930 . S
C1102 C1100 1.419 . S
C1102 C1103 1.362 . S
C1103 H1093 0.930 . S
C1103 C1096 1.409 . S
C1103 C1102 1.362 . S
H1104 C1110 0.930 . S
H1105 C1113 0.930 . S
H1106 C1114 0.930 . S
H1107 C1115 0.930 . S
H1108 C1118 0.930 . S
H1109 C1119 0.930 . S
C1110 H1104 0.930 . S
C1110 C1111 1.355 . S
C1110 C1112 1.415 . S
C1111 C1110 1.355 . S
C1111 C1113 1.419 . S
C1112 C1110 1.415 . S
C1112 C1117 1.425 . S
C1112 C1119 1.409 . S
C1113 H1105 0.930 . S
C1113 C1111 1.419 . S
C1113 C1114 1.362 . S
C1114 H1106 0.930 . S
C1114 C1113 1.362 . S
C1114 C1117 1.409 . S
C1115 H1107 0.930 . S
C1115 C1116 1.355 . S
C1115 C1117 1.415 . S
C1116 C1115 1.355 . S
C1116 C1118 1.419 . S
C1117 C1112 1.425 . S
C1117 C1114 1.409 . S
C1117 C1115 1.415 . S
C1118 H1108 0.930 . S
C1118 C1116 1.419 . S
C1118 C1119 1.362 . S
C1119 H1109 0.930 . S
C1119 C1112 1.409 . S
C1119 C1118 1.362 . S
H1120 C1126 0.930 . S
H1121 C1129 0.930 . S
H1122 C1130 0.930 . S
H1123 C1131 0.930 . S
H1124 C1134 0.930 . S
H1125 C1135 0.930 . S
C1126 H1120 0.930 . S
C1126 C1127 1.355 . S
C1126 C1128 1.415 . S
C1127 C1126 1.355 . S
C1127 C1129 1.419 . S
C1128 C1126 1.415 . S
C1128 C1133 1.425 . S
C1128 C1135 1.409 . S
C1129 H1121 0.930 . S
C1129 C1127 1.419 . S
C1129 C1130 1.362 . S
C1130 H1122 0.930 . S
C1130 C1129 1.362 . S
C1130 C1133 1.409 . S
C1131 H1123 0.930 . S
C1131 C1132 1.355 . S
C1131 C1133 1.415 . S
C1132 C1131 1.355 . S
C1132 C1134 1.419 . S
C1133 C1128 1.425 . S
C1133 C1130 1.409 . S
C1133 C1131 1.415 . S
C1134 H1124 0.930 . S
C1134 C1132 1.419 . S
C1134 C1135 1.362 . S
C1135 H1125 0.930 . S
C1135 C1128 1.409 . S
C1135 C1134 1.362 . S
H1136 C1142 0.930 . S
H1137 C1145 0.930 . S
H1138 C1146 0.930 . S
H1139 C1147 0.930 . S
H1140 C1150 0.930 . S
H1141 C1151 0.930 . S
C1142 H1136 0.930 . S
C1142 C1143 1.355 . S
C1142 C1144 1.415 . S
C1143 C1142 1.355 . S
C1143 C1145 1.419 . S
C1144 C1142 1.415 . S
C1144 C1149 1.425 . S
C1144 C1151 1.409 . S
C1145 H1137 0.930 . S
C1145 C1143 1.419 . S
C1145 C1146 1.362 . S
C1146 H1138 0.930 . S
C1146 C1145 1.362 . S
C1146 C1149 1.409 . S
C1147 H1139 0.930 . S
C1147 C1148 1.355 . S
C1147 C1149 1.415 . S
C1148 C1147 1.355 . S
C1148 C1150 1.419 . S
C1149 C1144 1.425 . S
C1149 C1146 1.409 . S
C1149 C1147 1.415 . S
C1150 H1140 0.930 . S
C1150 C1148 1.419 . S
C1150 C1151 1.362 . S
C1151 H1141 0.930 . S
C1151 C1144 1.409 . S
C1151 C1150 1.362 . S
H1152 C1158 0.930 . S
H1153 C1161 0.930 . S
H1154 C1162 0.930 . S
H1155 C1163 0.930 . S
H1156 C1166 0.930 . S
H1157 C1167 0.930 . S
C1158 H1152 0.930 . S
C1158 C1159 1.355 1_554 S
C1158 C1160 1.415 . S
C1159 C1158 1.355 1_556 S
C1159 C1161 1.419 . S
C1160 C1158 1.415 . S
C1160 C1165 1.425 1_554 S
C1160 C1167 1.409 . S
C1161 H1153 0.930 . S
C1161 C1159 1.419 . S
C1161 C1162 1.362 . S
C1162 H1154 0.930 . S
C1162 C1161 1.362 . S
C1162 C1165 1.409 . S
C1163 H1155 0.930 . S
C1163 C1164 1.355 1_556 S
C1163 C1165 1.415 . S
C1164 C1163 1.355 1_554 S
C1164 C1166 1.419 . S
C1165 C1160 1.425 1_556 S
C1165 C1162 1.409 . S
C1165 C1163 1.415 . S
C1166 H1156 0.930 . S
C1166 C1164 1.419 . S
C1166 C1167 1.362 . S
C1167 H1157 0.930 . S
C1167 C1160 1.409 . S
C1167 C1166 1.362 . S
H1168 C1174 0.930 1_554 S
H1169 C1177 0.930 . S
H1170 C1178 0.930 . S
H1171 C1179 0.930 . S
H1172 C1182 0.930 . S
H1173 C1183 0.930 . S
C1174 H1168 0.930 1_556 S
C1174 C1175 1.355 . S
C1174 C1176 1.415 . S
C1175 C1174 1.355 . S
C1175 C1177 1.419 . S
C1176 C1174 1.415 . S
C1176 C1181 1.425 . S
C1176 C1183 1.409 1_556 S
C1177 H1169 0.930 . S
C1177 C1175 1.419 . S
C1177 C1178 1.362 . S
C1178 H1170 0.930 . S
C1178 C1177 1.362 . S
C1178 C1181 1.409 . S
C1179 H1171 0.930 . S
C1179 C1180 1.355 1_556 S
C1179 C1181 1.415 . S
C1180 C1179 1.355 1_554 S
C1180 C1182 1.419 . S
C1181 C1176 1.425 . S
C1181 C1178 1.409 . S
C1181 C1179 1.415 . S
C1182 H1172 0.930 . S
C1182 C1180 1.419 . S
C1182 C1183 1.362 . S
C1183 H1173 0.930 . S
C1183 C1176 1.409 1_554 S
C1183 C1182 1.362 . S
H1184 C1190 0.930 . S
H1185 C1193 0.930 . S
H1186 C1194 0.930 . S
H1187 C1195 0.930 . S
H1188 C1198 0.930 . S
H1189 C1199 0.930 . S
C1190 H1184 0.930 . S
C1190 C1191 1.355 . S
C1190 C1192 1.415 . S
C1191 C1190 1.355 . S
C1191 C1193 1.419 . S
C1192 C1190 1.415 . S
C1192 C1197 1.425 . S
C1192 C1199 1.409 1_556 S
C1193 H1185 0.930 . S
C1193 C1191 1.419 . S
C1193 C1194 1.362 . S
C1194 H1186 0.930 . S
C1194 C1193 1.362 . S
C1194 C1197 1.409 . S
C1195 H1187 0.930 . S
C1195 C1196 1.355 1_556 S
C1195 C1197 1.415 . S
C1196 C1195 1.355 1_554 S
C1196 C1198 1.419 . S
C1197 C1192 1.425 . S
C1197 C1194 1.409 . S
C1197 C1195 1.415 . S
C1198 H1188 0.930 . S
C1198 C1196 1.419 . S
C1198 C1199 1.362 . S
C1199 H1189 0.930 . S
C1199 C1192 1.409 1_554 S
C1199 C1198 1.362 . S
H1200 C1206 0.930 . S
H1201 C1209 0.930 . S
H1202 C1210 0.930 . S
H1203 C1211 0.930 . S
H1204 C1214 0.930 . S
H1205 C1215 0.930 . S
C1206 H1200 0.930 . S
C1206 C1207 1.355 1_554 S
C1206 C1208 1.415 . S
C1207 C1206 1.355 1_556 S
C1207 C1209 1.419 . S
C1208 C1206 1.415 . S
C1208 C1213 1.425 1_554 S
C1208 C1215 1.409 . S
C1209 H1201 0.930 . S
C1209 C1207 1.419 . S
C1209 C1210 1.362 . S
C1210 H1202 0.930 . S
C1210 C1209 1.362 . S
C1210 C1213 1.409 . S
C1211 H1203 0.930 . S
C1211 C1212 1.355 1_556 S
C1211 C1213 1.415 . S
C1212 C1211 1.355 1_554 S
C1212 C1214 1.419 . S
C1213 C1208 1.425 1_556 S
C1213 C1210 1.409 . S
C1213 C1211 1.415 . S
C1214 H1204 0.930 . S
C1214 C1212 1.419 . S
C1214 C1215 1.362 . S
C1215 H1205 0.930 . S
C1215 C1208 1.409 . S
C1215 C1214 1.362 . S
H1216 C1222 0.930 . S
H1217 C1225 0.930 . S
H1218 C1226 0.930 . S
H1219 C1227 0.930 . S
H1220 C1230 0.930 . S
H1221 C1231 0.930 . S
C1222 H1216 0.930 . S
C1222 C1223 1.355 1_556 S
C1222 C1224 1.415 . S
C1223 C1222 1.355 1_554 S
C1223 C1225 1.419 . S
C1224 C1222 1.415 . S
C1224 C1229 1.425 1_556 S
C1224 C1231 1.409 . S
C1225 H1217 0.930 . S
C1225 C1223 1.419 . S
C1225 C1226 1.362 . S
C1226 H1218 0.930 . S
C1226 C1225 1.362 . S
C1226 C1229 1.409 . S
C1227 H1219 0.930 . S
C1227 C1228 1.355 . S
C1227 C1229 1.415 . S
C1228 C1227 1.355 . S
C1228 C1230 1.419 1_554 S
C1229 C1224 1.425 1_554 S
C1229 C1226 1.409 . S
C1229 C1227 1.415 . S
C1230 H1220 0.930 . S
C1230 C1228 1.419 1_556 S
C1230 C1231 1.362 . S
C1231 H1221 0.930 . S
C1231 C1224 1.409 . S
C1231 C1230 1.362 . S
H1232 C1238 0.930 . S
H1233 C1241 0.930 . S
H1234 C1242 0.930 . S
H1235 C1243 0.930 . S
H1236 C1246 0.930 . S
H1237 C1247 0.930 . S
C1238 H1232 0.930 . S
C1238 C1239 1.355 . S
C1238 C1240 1.415 . S
C1239 C1238 1.355 . S
C1239 C1241 1.419 1_554 S
C1240 C1238 1.415 . S
C1240 C1245 1.425 1_554 S
C1240 C1247 1.409 . S
C1241 H1233 0.930 . S
C1241 C1239 1.419 1_556 S
C1241 C1242 1.362 . S
C1242 H1234 0.930 . S
C1242 C1241 1.362 . S
C1242 C1245 1.409 . S
C1243 H1235 0.930 . S
C1243 C1244 1.355 1_556 S
C1243 C1245 1.415 . S
C1244 C1243 1.355 1_554 S
C1244 C1246 1.419 . S
C1245 C1240 1.425 1_556 S
C1245 C1242 1.409 . S
C1245 C1243 1.415 . S
C1246 H1236 0.930 . S
C1246 C1244 1.419 . S
C1246 C1247 1.362 . S
C1247 H1237 0.930 . S
C1247 C1240 1.409 . S
C1247 C1246 1.362 . S
H1248 C1254 0.930 . S
H1249 C1257 0.930 . S
H1250 C1258 0.930 . S
H1251 C1259 0.930 . S
H1252 C1262 0.930 . S
H1253 C1263 0.930 . S
C1254 H1248 0.930 . S
C1254 C1255 1.355 . S
C1254 C1256 1.415 . S
C1255 C1254 1.355 . S
C1255 C1257 1.419 . S
C1256 C1254 1.415 . S
C1256 C1261 1.425 . S
C1256 C1263 1.409 . S
C1257 H1249 0.930 . S
C1257 C1255 1.419 . S
C1257 C1258 1.362 . S
C1258 H1250 0.930 . S
C1258 C1257 1.362 . S
C1258 C1261 1.409 . S
C1259 H1251 0.930 . S
C1259 C1260 1.355 . S
C1259 C1261 1.415 . S
C1260 C1259 1.355 . S
C1260 C1262 1.419 . S
C1261 C1256 1.425 . S
C1261 C1258 1.409 . S
C1261 C1259 1.415 . S
C1262 H1252 0.930 . S
C1262 C1260 1.419 . S
C1262 C1263 1.362 . S
C1263 H1253 0.930 . S
C1263 C1256 1.409 . S
C1263 C1262 1.362 . S
H1264 C1270 0.930 . S
H1265 C1273 0.930 . S
H1266 C1274 0.930 . S
H1267 C1275 0.930 . S
H1268 C1278 0.930 . S
H1269 C1279 0.930 . S
C1270 H1264 0.930 . S
C1270 C1271 1.355 . S
C1270 C1272 1.415 . S
C1271 C1270 1.355 . S
C1271 C1273 1.419 . S
C1272 C1270 1.415 . S
C1272 C1277 1.425 . S
C1272 C1279 1.409 . S
C1273 H1265 0.930 . S
C1273 C1271 1.419 . S
C1273 C1274 1.362 . S
C1274 H1266 0.930 . S
C1274 C1273 1.362 . S
C1274 C1277 1.409 . S
C1275 H1267 0.930 . S
C1275 C1276 1.355 . S
C1275 C1277 1.415 . S
C1276 C1275 1.355 . S
C1276 C1278 1.419 . S
C1277 C1272 1.425 . S
C1277 C1274 1.409 . S
C1277 C1275 1.415 . S
C1278 H1268 0.930 . S
C1278 C1276 1.419 . S
C1278 C1279 1.362 . S
C1279 H1269 0.930 . S
C1279 C1272 1.409 . S
C1279 C1278 1.362 . S
H1280 C1286 0.930 . S
H1281 C1289 0.930 . S
H1282 C1290 0.930 . S
H1283 C1291 0.930 . S
H1284 C1294 0.930 . S
H1285 C1295 0.930 . S
C1286 H1280 0.930 . S
C1286 C1287 1.355 . S
C1286 C1288 1.415 . S
C1287 C1286 1.355 . S
C1287 C1289 1.419 . S
C1288 C1286 1.415 . S
C1288 C1293 1.425 . S
C1288 C1295 1.409 . S
C1289 H1281 0.930 . S
C1289 C1287 1.419 . S
C1289 C1290 1.362 . S
C1290 H1282 0.930 . S
C1290 C1289 1.362 . S
C1290 C1293 1.409 . S
C1291 H1283 0.930 . S
C1291 C1292 1.355 . S
C1291 C1293 1.415 . S
C1292 C1291 1.355 . S
C1292 C1294 1.419 . S
C1293 C1288 1.425 . S
C1293 C1290 1.409 . S
C1293 C1291 1.415 . S
C1294 H1284 0.930 . S
C1294 C1292 1.419 . S
C1294 C1295 1.362 . S
C1295 H1285 0.930 . S
C1295 C1288 1.409 . S
C1295 C1294 1.362 . S
H1296 C1302 0.930 . S
H1297 C1305 0.928 1_655 S
H1298 C1306 0.930 1_655 S
H1299 C1307 0.930 1_655 S
H1300 C1310 0.930 1_556 S
H1301 C1311 0.930 . S
C1302 H1296 0.930 . S
C1302 C1303 1.355 . S
C1302 C1304 1.415 . S
C1303 C1302 1.355 . S
C1303 C1305 1.419 . S
C1304 C1302 1.415 . S
C1304 C1309 1.425 . S
C1304 C1311 1.409 . S
C1305 H1297 0.928 1_455 S
C1305 C1303 1.419 . S
C1305 C1306 1.362 . S
C1306 H1298 0.930 1_455 S
C1306 C1305 1.362 . S
C1306 C1309 1.409 . S
C1307 H1299 0.930 1_455 S
C1307 C1308 1.355 . S
C1307 C1309 1.415 . S
C1308 C1307 1.355 . S
C1308 C1310 1.419 . S
C1309 C1304 1.425 . S
C1309 C1306 1.409 . S
C1309 C1307 1.415 . S
C1310 H1300 0.930 1_554 S
C1310 C1308 1.419 . S
C1310 C1311 1.362 . S
C1311 H1301 0.930 . S
C1311 C1304 1.409 . S
C1311 C1310 1.362 . S
H1312 C1318 0.930 . S
H1313 C1321 0.930 . S
H1314 C1322 0.930 . S
H1315 C1323 0.930 . S
H1316 C1326 0.930 . S
H1317 C1327 0.930 . S
C1318 H1312 0.930 . S
C1318 C1319 1.355 . S
C1318 C1320 1.415 . S
C1319 C1318 1.355 . S
C1319 C1321 1.419 . S
C1320 C1318 1.415 . S
C1320 C1325 1.425 . S
C1320 C1327 1.409 . S
C1321 H1313 0.930 . S
C1321 C1319 1.419 . S
C1321 C1322 1.362 . S
C1322 H1314 0.930 . S
C1322 C1321 1.362 . S
C1322 C1325 1.409 . S
C1323 H1315 0.930 . S
C1323 C1324 1.355 . S
C1323 C1325 1.415 . S
C1324 C1323 1.355 . S
C1324 C1326 1.419 . S
C1325 C1320 1.425 . S
C1325 C1322 1.409 . S
C1325 C1323 1.415 . S
C1326 H1316 0.930 . S
C1326 C1324 1.419 . S
C1326 C1327 1.362 . S
C1327 H1317 0.930 . S
C1327 C1320 1.409 . S
C1327 C1326 1.362 . S
H1328 C1334 0.930 . S
H1329 C1337 0.930 . S
H1330 C1338 0.930 . S
H1331 C1339 0.930 . S
H1332 C1342 0.930 1_556 S
H1333 C1343 0.930 . S
C1334 H1328 0.930 . S
C1334 C1335 1.355 . S
C1334 C1336 1.415 . S
C1335 C1334 1.355 . S
C1335 C1337 1.419 . S
C1336 C1334 1.415 . S
C1336 C1341 1.425 . S
C1336 C1343 1.409 . S
C1337 H1329 0.930 . S
C1337 C1335 1.419 . S
C1337 C1338 1.362 . S
C1338 H1330 0.930 . S
C1338 C1337 1.362 . S
C1338 C1341 1.409 . S
C1339 H1331 0.930 . S
C1339 C1340 1.355 . S
C1339 C1341 1.415 . S
C1340 C1339 1.355 . S
C1340 C1342 1.419 . S
C1341 C1336 1.425 . S
C1341 C1338 1.409 . S
C1341 C1339 1.415 . S
C1342 H1332 0.930 1_554 S
C1342 C1340 1.419 . S
C1342 C1343 1.362 . S
C1343 H1333 0.930 . S
C1343 C1336 1.409 . S
C1343 C1342 1.362 . S
H1344 C1350 0.930 . S
H1345 C1353 0.930 . S
H1346 C1354 0.930 . S
H1347 C1355 0.930 . S
H1348 C1358 0.930 1_554 S
H1349 C1359 0.930 . S
C1350 H1344 0.930 . S
C1350 C1351 1.355 . S
C1350 C1352 1.415 . S
C1351 C1350 1.355 . S
C1351 C1353 1.419 . S
C1352 C1350 1.415 . S
C1352 C1357 1.425 . S
C1352 C1359 1.409 . S
C1353 H1345 0.930 . S
C1353 C1351 1.419 . S
C1353 C1354 1.362 . S
C1354 H1346 0.930 . S
C1354 C1353 1.362 . S
C1354 C1357 1.409 . S
C1355 H1347 0.930 . S
C1355 C1356 1.355 . S
C1355 C1357 1.415 . S
C1356 C1355 1.355 . S
C1356 C1358 1.419 . S
C1357 C1352 1.425 . S
C1357 C1354 1.409 . S
C1357 C1355 1.415 . S
C1358 H1348 0.930 1_556 S
C1358 C1356 1.419 . S
C1358 C1359 1.362 . S
C1359 H1349 0.930 . S
C1359 C1352 1.409 . S
C1359 C1358 1.362 . S
H1360 C1366 0.930 . S
H1361 C1369 0.930 . S
H1362 C1370 0.930 . S
H1363 C1371 0.930 . S
H1364 C1374 0.930 . S
H1365 C1375 0.930 . S
C1366 H1360 0.930 . S
C1366 C1367 1.355 . S
C1366 C1368 1.415 . S
C1367 C1366 1.355 . S
C1367 C1369 1.419 . S
C1368 C1366 1.415 . S
C1368 C1373 1.425 . S
C1368 C1375 1.409 . S
C1369 H1361 0.930 . S
C1369 C1367 1.419 . S
C1369 C1370 1.362 . S
C1370 H1362 0.930 . S
C1370 C1369 1.362 . S
C1370 C1373 1.409 . S
C1371 H1363 0.930 . S
C1371 C1372 1.355 . S
C1371 C1373 1.415 . S
C1372 C1371 1.355 . S
C1372 C1374 1.419 . S
C1373 C1368 1.425 . S
C1373 C1370 1.409 . S
C1373 C1371 1.415 . S
C1374 H1364 0.930 . S
C1374 C1372 1.419 . S
C1374 C1375 1.362 . S
C1375 H1365 0.930 . S
C1375 C1368 1.409 . S
C1375 C1374 1.362 . S
H1376 C1382 0.930 . S
H1377 C1385 0.930 1_554 S
H1378 C1386 0.930 . S
H1379 C1387 0.930 . S
H1380 C1390 0.930 . S
H1381 C1391 0.930 . S
C1382 H1376 0.930 . S
C1382 C1383 1.355 . S
C1382 C1384 1.415 . S
C1383 C1382 1.355 . S
C1383 C1385 1.419 . S
C1384 C1382 1.415 . S
C1384 C1389 1.425 . S
C1384 C1391 1.409 . S
C1385 H1377 0.930 1_556 S
C1385 C1383 1.419 . S
C1385 C1386 1.362 . S
C1386 H1378 0.930 . S
C1386 C1385 1.362 . S
C1386 C1389 1.409 . S
C1387 H1379 0.930 . S
C1387 C1388 1.355 . S
C1387 C1389 1.415 . S
C1388 C1387 1.355 . S
C1388 C1390 1.419 . S
C1389 C1384 1.425 . S
C1389 C1386 1.409 . S
C1389 C1387 1.415 . S
C1390 H1380 0.930 . S
C1390 C1388 1.419 . S
C1390 C1391 1.362 . S
C1391 H1381 0.930 . S
C1391 C1384 1.409 . S
C1391 C1390 1.362 . S
H1392 C1398 0.930 . S
H1393 C1401 0.930 . S
H1394 C1402 0.930 . S
H1395 C1403 0.930 . S
H1396 C1406 0.930 . S
H1397 C1407 0.930 . S
C1398 H1392 0.930 . S
C1398 C1399 1.355 . S
C1398 C1400 1.415 . S
C1399 C1398 1.355 . S
C1399 C1401 1.419 . S
C1400 C1398 1.415 . S
C1400 C1405 1.425 . S
C1400 C1407 1.409 . S
C1401 H1393 0.930 . S
C1401 C1399 1.419 . S
C1401 C1402 1.362 . S
C1402 H1394 0.930 . S
C1402 C1401 1.362 . S
C1402 C1405 1.409 . S
C1403 H1395 0.930 . S
C1403 C1404 1.355 . S
C1403 C1405 1.415 . S
C1404 C1403 1.355 . S
C1404 C1406 1.419 . S
C1405 C1400 1.425 . S
C1405 C1402 1.409 . S
C1405 C1403 1.415 . S
C1406 H1396 0.930 . S
C1406 C1404 1.419 . S
C1406 C1407 1.362 . S
C1407 H1397 0.930 . S
C1407 C1400 1.409 . S
C1407 C1406 1.362 . S
H1408 C1414 0.930 . S
H1409 C1417 0.930 . S
H1410 C1418 0.930 . S
H1411 C1419 0.930 . S
H1412 C1422 0.930 . S
H1413 C1423 0.930 . S
C1414 H1408 0.930 . S
C1414 C1415 1.355 . S
C1414 C1416 1.415 . S
C1415 C1414 1.355 . S
C1415 C1417 1.419 . S
C1416 C1414 1.415 . S
C1416 C1421 1.425 . S
C1416 C1423 1.409 . S
C1417 H1409 0.930 . S
C1417 C1415 1.419 . S
C1417 C1418 1.362 . S
C1418 H1410 0.930 . S
C1418 C1417 1.362 . S
C1418 C1421 1.409 . S
C1419 H1411 0.930 . S
C1419 C1420 1.355 . S
C1419 C1421 1.415 . S
C1420 C1419 1.355 . S
C1420 C1422 1.419 . S
C1421 C1416 1.425 . S
C1421 C1418 1.409 . S
C1421 C1419 1.415 . S
C1422 H1412 0.930 . S
C1422 C1420 1.419 . S
C1422 C1423 1.362 . S
C1423 H1413 0.930 . S
C1423 C1416 1.409 . S
C1423 C1422 1.362 . S
H1424 C1430 0.930 . S
H1425 C1433 0.930 . S
H1426 C1434 0.930 . S
H1427 C1435 0.930 . S
H1428 C1438 0.930 . S
H1429 C1439 0.930 . S
C1430 H1424 0.930 . S
C1430 C1431 1.355 . S
C1430 C1432 1.415 . S
C1431 C1430 1.355 . S
C1431 C1433 1.419 . S
C1432 C1430 1.415 . S
C1432 C1437 1.425 . S
C1432 C1439 1.409 . S
C1433 H1425 0.930 . S
C1433 C1431 1.419 . S
C1433 C1434 1.362 . S
C1434 H1426 0.930 . S
C1434 C1433 1.362 . S
C1434 C1437 1.409 . S
C1435 H1427 0.930 . S
C1435 C1436 1.355 . S
C1435 C1437 1.415 . S
C1436 C1435 1.355 . S
C1436 C1438 1.419 . S
C1437 C1432 1.425 . S
C1437 C1434 1.409 . S
C1437 C1435 1.415 . S
C1438 H1428 0.930 . S
C1438 C1436 1.419 . S
C1438 C1439 1.362 . S
C1439 H1429 0.930 . S
C1439 C1432 1.409 . S
C1439 C1438 1.362 . S
H1440 C1446 0.930 . S
H1441 C1449 0.930 . S
H1442 C1450 0.930 . S
H1443 C1451 0.930 . S
H1444 C1454 0.930 . S
H1445 C1455 0.930 . S
C1446 H1440 0.930 . S
C1446 C1447 1.355 1_554 S
C1446 C1448 1.415 . S
C1447 C1446 1.355 1_556 S
C1447 C1449 1.419 . S
C1448 C1446 1.415 . S
C1448 C1453 1.425 . S
C1448 C1455 1.409 . S
C1449 H1441 0.930 . S
C1449 C1447 1.419 . S
C1449 C1450 1.362 1_556 S
C1450 H1442 0.930 . S
C1450 C1449 1.362 1_554 S
C1450 C1453 1.409 . S
C1451 H1443 0.930 . S
C1451 C1452 1.355 . S
C1451 C1453 1.415 . S
C1452 C1451 1.355 . S
C1452 C1454 1.419 . S
C1453 C1448 1.425 . S
C1453 C1450 1.409 . S
C1453 C1451 1.415 . S
C1454 H1444 0.930 . S
C1454 C1452 1.419 . S
C1454 C1455 1.362 . S
C1455 H1445 0.930 . S
C1455 C1448 1.409 . S
C1455 C1454 1.362 . S
H1456 C1462 0.930 . S
H1457 C1465 0.930 . S
H1458 C1466 0.930 . S
H1459 C1467 0.930 . S
H1460 C1470 0.930 . S
H1461 C1471 0.930 . S
C1462 H1456 0.930 . S
C1462 C1463 1.355 1_554 S
C1462 C1464 1.415 . S
C1463 C1462 1.355 1_556 S
C1463 C1465 1.419 . S
C1464 C1462 1.415 . S
C1464 C1469 1.425 . S
C1464 C1471 1.409 . S
C1465 H1457 0.930 . S
C1465 C1463 1.419 . S
C1465 C1466 1.362 1_556 S
C1466 H1458 0.930 . S
C1466 C1465 1.362 1_554 S
C1466 C1469 1.409 . S
C1467 H1459 0.930 . S
C1467 C1468 1.355 . S
C1467 C1469 1.415 . S
C1468 C1467 1.355 . S
C1468 C1470 1.419 . S
C1469 C1464 1.425 . S
C1469 C1466 1.409 . S
C1469 C1467 1.415 . S
C1470 H1460 0.930 . S
C1470 C1468 1.419 . S
C1470 C1471 1.362 . S
C1471 H1461 0.930 . S
C1471 C1464 1.409 . S
C1471 C1470 1.362 . S
H1472 C1478 0.930 . S
H1473 C1481 0.930 . S
H1474 C1482 0.930 . S
H1475 C1483 0.930 . S
H1476 C1486 0.930 . S
H1477 C1487 0.930 . S
C1478 H1472 0.930 . S
C1478 C1479 1.355 1_554 S
C1478 C1480 1.415 . S
C1479 C1478 1.355 1_556 S
C1479 C1481 1.419 . S
C1480 C1478 1.415 . S
C1480 C1485 1.425 . S
C1480 C1487 1.409 . S
C1481 H1473 0.930 . S
C1481 C1479 1.419 . S
C1481 C1482 1.362 1_556 S
C1482 H1474 0.930 . S
C1482 C1481 1.362 1_554 S
C1482 C1485 1.409 . S
C1483 H1475 0.930 . S
C1483 C1484 1.355 . S
C1483 C1485 1.415 . S
C1484 C1483 1.355 . S
C1484 C1486 1.419 . S
C1485 C1480 1.425 . S
C1485 C1482 1.409 . S
C1485 C1483 1.415 . S
C1486 H1476 0.930 . S
C1486 C1484 1.419 . S
C1486 C1487 1.362 . S
C1487 H1477 0.930 . S
C1487 C1480 1.409 . S
C1487 C1486 1.362 . S
H1488 C1494 0.930 . S
H1489 C1497 0.930 . S
H1490 C1498 0.930 . S
H1491 C1499 0.930 1_554 S
H1492 C1502 0.930 1_554 S
H1493 C1503 0.930 . S
C1494 H1488 0.930 . S
C1494 C1495 1.355 . S
C1494 C1496 1.415 . S
C1495 C1494 1.355 . S
C1495 C1497 1.419 . S
C1496 C1494 1.415 . S
C1496 C1501 1.425 . S
C1496 C1503 1.409 . S
C1497 H1489 0.930 . S
C1497 C1495 1.419 . S
C1497 C1498 1.362 . S
C1498 H1490 0.930 . S
C1498 C1497 1.362 . S
C1498 C1501 1.409 . S
C1499 H1491 0.930 1_556 S
C1499 C1500 1.355 1_556 S
C1499 C1501 1.415 . S
C1500 C1499 1.355 1_554 S
C1500 C1502 1.419 1_554 S
C1501 C1496 1.425 . S
C1501 C1498 1.409 . S
C1501 C1499 1.415 . S
C1502 H1492 0.930 1_556 S
C1502 C1500 1.419 1_556 S
C1502 C1503 1.362 . S
C1503 H1493 0.930 . S
C1503 C1496 1.409 . S
C1503 C1502 1.362 . S
H1504 C1510 0.930 . S
H1505 C1513 0.930 . S
H1506 C1514 0.930 . S
H1507 C1515 0.930 . S
H1508 C1518 0.930 . S
H1509 C1519 0.930 . S
C1510 H1504 0.930 . S
C1510 C1511 1.355 1_556 S
C1510 C1512 1.415 . S
C1511 C1510 1.355 1_554 S
C1511 C1513 1.419 . S
C1512 C1510 1.415 . S
C1512 C1517 1.425 . S
C1512 C1519 1.409 . S
C1513 H1505 0.930 . S
C1513 C1511 1.419 . S
C1513 C1514 1.362 1_554 S
C1514 H1506 0.930 . S
C1514 C1513 1.362 1_556 S
C1514 C1517 1.409 . S
C1515 H1507 0.930 . S
C1515 C1516 1.355 . S
C1515 C1517 1.415 . S
C1516 C1515 1.355 . S
C1516 C1518 1.419 . S
C1517 C1512 1.425 . S
C1517 C1514 1.409 . S
C1517 C1515 1.415 . S
C1518 H1508 0.930 . S
C1518 C1516 1.419 . S
C1518 C1519 1.362 . S
C1519 H1509 0.930 . S
C1519 C1512 1.409 . S
C1519 C1518 1.362 . S
H1520 C1526 0.930 1_554 S
H1521 C1529 0.930 1_554 S
H1522 C1530 0.930 . S
H1523 C1531 0.930 . S
H1524 C1534 0.930 . S
H1525 C1535 0.930 . S
C1526 H1520 0.930 1_556 S
C1526 C1527 1.355 1_556 S
C1526 C1528 1.415 . S
C1527 C1526 1.355 1_554 S
C1527 C1529 1.419 1_554 S
C1528 C1526 1.415 . S
C1528 C1533 1.425 . S
C1528 C1535 1.409 . S
C1529 H1521 0.930 1_556 S
C1529 C1527 1.419 1_556 S
C1529 C1530 1.362 . S
C1530 H1522 0.930 . S
C1530 C1529 1.362 . S
C1530 C1533 1.409 . S
C1531 H1523 0.930 . S
C1531 C1532 1.355 . S
C1531 C1533 1.415 . S
C1532 C1531 1.355 . S
C1532 C1534 1.419 . S
C1533 C1528 1.425 . S
C1533 C1530 1.409 . S
C1533 C1531 1.415 . S
C1534 H1524 0.930 . S
C1534 C1532 1.419 . S
C1534 C1535 1.362 . S
C1535 H1525 0.930 . S
C1535 C1528 1.409 . S
C1535 C1534 1.362 . S
H1536 C1542 0.930 . S
H1537 C1545 0.930 . S
H1538 C1546 0.930 . S
H1539 C1547 0.930 . S
H1540 C1550 0.930 . S
H1541 C1551 0.930 . S
C1542 H1536 0.930 . S
C1542 C1543 1.355 . S
C1542 C1544 1.415 . S
C1543 C1542 1.355 . S
C1543 C1545 1.419 . S
C1544 C1542 1.415 . S
C1544 C1549 1.425 . S
C1544 C1551 1.409 . S
C1545 H1537 0.930 . S
C1545 C1543 1.419 . S
C1545 C1546 1.362 . S
C1546 H1538 0.930 . S
C1546 C1545 1.362 . S
C1546 C1549 1.409 . S
C1547 H1539 0.930 . S
C1547 C1548 1.355 . S
C1547 C1549 1.415 . S
C1548 C1547 1.355 . S
C1548 C1550 1.419 . S
C1549 C1544 1.425 . S
C1549 C1546 1.409 . S
C1549 C1547 1.415 . S
C1550 H1540 0.930 . S
C1550 C1548 1.419 . S
C1550 C1551 1.362 . S
C1551 H1541 0.930 . S
C1551 C1544 1.409 . S
C1551 C1550 1.362 . S
H1552 C1558 0.930 . S
H1553 C1561 0.930 . S
H1554 C1562 0.930 . S
H1555 C1563 0.930 . S
H1556 C1566 0.930 . S
H1557 C1567 0.930 . S
C1558 H1552 0.930 . S
C1558 C1559 1.355 . S
C1558 C1560 1.415 . S
C1559 C1558 1.355 . S
C1559 C1561 1.419 . S
C1560 C1558 1.415 . S
C1560 C1565 1.425 . S
C1560 C1567 1.409 . S
C1561 H1553 0.930 . S
C1561 C1559 1.419 . S
C1561 C1562 1.362 . S
C1562 H1554 0.930 . S
C1562 C1561 1.362 . S
C1562 C1565 1.409 . S
C1563 H1555 0.930 . S
C1563 C1564 1.355 . S
C1563 C1565 1.415 . S
C1564 C1563 1.355 . S
C1564 C1566 1.419 . S
C1565 C1560 1.425 . S
C1565 C1562 1.409 . S
C1565 C1563 1.415 . S
C1566 H1556 0.930 . S
C1566 C1564 1.419 . S
C1566 C1567 1.362 . S
C1567 H1557 0.930 . S
C1567 C1560 1.409 . S
C1567 C1566 1.362 . S
H1568 C1574 0.930 . S
H1569 C1577 0.930 . S
H1570 C1578 0.930 . S
H1571 C1579 0.930 . S
H1572 C1582 0.930 . S
H1573 C1583 0.930 . S
C1574 H1568 0.930 . S
C1574 C1575 1.355 . S
C1574 C1576 1.415 . S
C1575 C1574 1.355 . S
C1575 C1577 1.419 . S
C1576 C1574 1.415 . S
C1576 C1581 1.425 . S
C1576 C1583 1.409 . S
C1577 H1569 0.930 . S
C1577 C1575 1.419 . S
C1577 C1578 1.362 . S
C1578 H1570 0.930 . S
C1578 C1577 1.362 . S
C1578 C1581 1.409 . S
C1579 H1571 0.930 . S
C1579 C1580 1.355 . S
C1579 C1581 1.415 . S
C1580 C1579 1.355 . S
C1580 C1582 1.419 . S
C1581 C1576 1.425 . S
C1581 C1578 1.409 . S
C1581 C1579 1.415 . S
C1582 H1572 0.930 . S
C1582 C1580 1.419 . S
C1582 C1583 1.362 . S
C1583 H1573 0.930 . S
C1583 C1576 1.409 . S
C1583 C1582 1.362 . S
C727 C535 1.720 . S
C732 C18 1.767 . S
C743 C58 1.755 . S
C748 C575 1.682 . S
C759 C98 1.774 . S
C764 C495 1.706 . S
C775 C95 1.702 . S
C780 C298 1.743 . S
C791 C338 1.726 . S
C796 C15 1.729 . S
C807 C55 1.743 . S
C812 C258 1.721 . S
C823 C129 1.763 . S
C828 C406 1.680 . S
C839 C169 1.771 . S
C844 C446 1.681 . S
C855 C366 1.738 . S
C860 C209 1.710 . S
C871 C649 1.721 . S
C876 C206 1.744 . S
C887 C126 1.750 . S
C892 C689 1.756 . S
C903 C609 1.754 . S
C908 C166 1.751 . S
C919 C335 1.704 1_455 S
C924 C538 1.761 . S
C935 C255 1.698 . S
C940 C578 1.772 . S
C951 C295 1.734 . S
C956 C498 1.778 . S
C967 C369 1.787 . S
C972 C646 1.704 1_545 S
C983 C686 1.767 . S
C988 C409 1.724 . S
C999 C606 1.758 . S
C1004 C449 1.722 . S
C1015 C6 1.824 . S
C1020 C178 1.832 . S
C1031 C218 1.828 . S
C1036 C46 1.843 . S
C1047 C138 1.826 . S
C1052 C86 1.851 . S
C1063 C175 1.837 . S
C1068 C89 1.825 . S
C1079 C215 1.868 . S
C1084 C9 1.869 . S
C1095 C135 1.822 . S
C1100 C49 1.837 . S
C1111 C418 1.861 . S
C1116 C246 1.830 . S
C1127 C458 1.880 . S
C1132 C286 1.839 . S
C1143 C378 1.883 . S
C1148 C326 1.875 . S
C1159 C415 1.820 . S
C1164 C329 1.833 . S
C1175 C455 1.822 . S
C1180 C249 1.829 . S
C1191 C375 1.842 . S
C1196 C289 1.872 . S
C1207 C658 1.838 . S
C1212 C486 1.816 . S
C1223 C698 1.860 1_554 S
C1228 C526 1.864 . S
C1239 C566 1.865 . S
C1244 C618 1.852 1_554 S
C1255 C569 1.843 . S
C1260 C655 1.845 . S
C1271 C489 1.847 . S
C1276 C695 1.837 . S
C1287 C615 1.862 . S
C1292 C529 1.889 . S
C1303 C10 1.824 . S
C1308 C19 1.823 1_554 S
C1319 C50 1.871 . S
C1324 C59 1.871 1_554 S
C1335 C90 1.854 . S
C1340 C99 1.854 1_554 S
C1351 C139 1.835 . S
C1356 C130 1.835 1_556 S
C1367 C170 1.877 1_556 S
C1372 C179 1.877 . S
C1383 C210 1.836 1_556 S
C1388 C219 1.836 . S
C1399 C259 1.853 . S
C1404 C250 1.853 . S
C1415 C290 1.820 . S
C1420 C299 1.820 . S
C1431 C339 1.873 . S
C1436 C330 1.873 . S
C1447 C379 1.827 . S
C1452 C370 1.827 . S
C1463 C419 1.829 . S
C1468 C410 1.829 . S
C1479 C459 1.834 . S
C1484 C450 1.834 . S
C1495 C499 1.876 . S
C1500 C490 1.876 . S
C1511 C530 1.855 . S
C1516 C539 1.855 . S
C1527 C570 1.878 . S
C1532 C579 1.878 . S
C1543 C610 1.830 . S
C1548 C619 1.830 . S
C1559 C650 1.842 . S
C1564 C659 1.842 . S
C1575 C699 1.834 . S
C1580 C690 1.834 . S
