# Generated by pormake.
# Topology fng, (5)-cn, num edge types: 1
# Building blocks:
#     Node 0, Type 0, BuildingBlock: XOMCOT_clean_sbu_1, # of connection points: 5
#     Node 1, Type 0, BuildingBlock: XOMCOT_clean_sbu_1, # of connection points: 5
#     Node 2, Type 0, BuildingBlock: XOMCOT_clean_sbu_1, # of connection points: 5
#     Node 3, Type 0, BuildingBlock: XOMCOT_clean_sbu_1, # of connection points: 5
#     Node 4, Type 0, BuildingBlock: XOMCOT_clean_sbu_1, # of connection points: 5
#     Node 5, Type 0, BuildingBlock: XOMCOT_clean_sbu_1, # of connection points: 5
#     Node 6, Type 0, BuildingBlock: XOMCOT_clean_sbu_1, # of connection points: 5
#     Node 7, Type 0, BuildingBlock: XOMCOT_clean_sbu_1, # of connection points: 5
#     Node 8, Type 0, BuildingBlock: XOMCOT_clean_sbu_1, # of connection points: 5
#     Node 9, Type 0, BuildingBlock: XOMCOT_clean_sbu_1, # of connection points: 5
#     Node 10, Type 0, BuildingBlock: XOMCOT_clean_sbu_1, # of connection points: 5
#     Node 11, Type 0, BuildingBlock: XOMCOT_clean_sbu_1, # of connection points: 5
#     Node 12, Type 0, BuildingBlock: XOMCOT_clean_sbu_1, # of connection points: 5
#     Node 13, Type 0, BuildingBlock: XOMCOT_clean_sbu_1, # of connection points: 5
#     Node 14, Type 0, BuildingBlock: XOMCOT_clean_sbu_1, # of connection points: 5
#     Node 15, Type 0, BuildingBlock: XOMCOT_clean_sbu_1, # of connection points: 5
#     Node 16, Type 0, BuildingBlock: XOMCOT_clean_sbu_1, # of connection points: 5
#     Node 17, Type 0, BuildingBlock: XOMCOT_clean_sbu_1, # of connection points: 5
#     Edge 18, Type (0, 0), BuildingBlock: ZUJKAS_clean_linker_0, # of connection points: 2
#     Edge 19, Type (0, 0), BuildingBlock: ZUJKAS_clean_linker_0, # of connection points: 2
#     Edge 20, Type (0, 0), BuildingBlock: ZUJKAS_clean_linker_0, # of connection points: 2
#     Edge 21, Type (0, 0), BuildingBlock: ZUJKAS_clean_linker_0, # of connection points: 2
#     Edge 22, Type (0, 0), BuildingBlock: ZUJKAS_clean_linker_0, # of connection points: 2
#     Edge 23, Type (0, 0), BuildingBlock: ZUJKAS_clean_linker_0, # of connection points: 2
#     Edge 24, Type (0, 0), BuildingBlock: ZUJKAS_clean_linker_0, # of connection points: 2
#     Edge 25, Type (0, 0), BuildingBlock: ZUJKAS_clean_linker_0, # of connection points: 2
#     Edge 26, Type (0, 0), BuildingBlock: ZUJKAS_clean_linker_0, # of connection points: 2
#     Edge 27, Type (0, 0), BuildingBlock: ZUJKAS_clean_linker_0, # of connection points: 2
#     Edge 28, Type (0, 0), BuildingBlock: ZUJKAS_clean_linker_0, # of connection points: 2
#     Edge 29, Type (0, 0), BuildingBlock: ZUJKAS_clean_linker_0, # of connection points: 2
#     Edge 30, Type (0, 0), BuildingBlock: ZUJKAS_clean_linker_0, # of connection points: 2
#     Edge 31, Type (0, 0), BuildingBlock: ZUJKAS_clean_linker_0, # of connection points: 2
#     Edge 32, Type (0, 0), BuildingBlock: ZUJKAS_clean_linker_0, # of connection points: 2
#     Edge 33, Type (0, 0), BuildingBlock: ZUJKAS_clean_linker_0, # of connection points: 2
#     Edge 34, Type (0, 0), BuildingBlock: ZUJKAS_clean_linker_0, # of connection points: 2
#     Edge 35, Type (0, 0), BuildingBlock: ZUJKAS_clean_linker_0, # of connection points: 2
#     Edge 36, Type (0, 0), BuildingBlock: ZUJKAS_clean_linker_0, # of connection points: 2
#     Edge 37, Type (0, 0), BuildingBlock: ZUJKAS_clean_linker_0, # of connection points: 2
#     Edge 38, Type (0, 0), BuildingBlock: ZUJKAS_clean_linker_0, # of connection points: 2
#     Edge 39, Type (0, 0), BuildingBlock: ZUJKAS_clean_linker_0, # of connection points: 2
#     Edge 40, Type (0, 0), BuildingBlock: ZUJKAS_clean_linker_0, # of connection points: 2
#     Edge 41, Type (0, 0), BuildingBlock: ZUJKAS_clean_linker_0, # of connection points: 2
#     Edge 42, Type (0, 0), BuildingBlock: ZUJKAS_clean_linker_0, # of connection points: 2
#     Edge 43, Type (0, 0), BuildingBlock: ZUJKAS_clean_linker_0, # of connection points: 2
#     Edge 44, Type (0, 0), BuildingBlock: ZUJKAS_clean_linker_0, # of connection points: 2
#     Edge 45, Type (0, 0), BuildingBlock: ZUJKAS_clean_linker_0, # of connection points: 2
#     Edge 46, Type (0, 0), BuildingBlock: ZUJKAS_clean_linker_0, # of connection points: 2
#     Edge 47, Type (0, 0), BuildingBlock: ZUJKAS_clean_linker_0, # of connection points: 2
#     Edge 48, Type (0, 0), BuildingBlock: ZUJKAS_clean_linker_0, # of connection points: 2
#     Edge 49, Type (0, 0), BuildingBlock: ZUJKAS_clean_linker_0, # of connection points: 2
#     Edge 50, Type (0, 0), BuildingBlock: ZUJKAS_clean_linker_0, # of connection points: 2
#     Edge 51, Type (0, 0), BuildingBlock: ZUJKAS_clean_linker_0, # of connection points: 2
#     Edge 52, Type (0, 0), BuildingBlock: ZUJKAS_clean_linker_0, # of connection points: 2
#     Edge 53, Type (0, 0), BuildingBlock: ZUJKAS_clean_linker_0, # of connection points: 2
#     Edge 54, Type (0, 0), BuildingBlock: ZUJKAS_clean_linker_0, # of connection points: 2
#     Edge 55, Type (0, 0), BuildingBlock: ZUJKAS_clean_linker_0, # of connection points: 2
#     Edge 56, Type (0, 0), BuildingBlock: ZUJKAS_clean_linker_0, # of connection points: 2
#     Edge 57, Type (0, 0), BuildingBlock: ZUJKAS_clean_linker_0, # of connection points: 2
#     Edge 58, Type (0, 0), BuildingBlock: ZUJKAS_clean_linker_0, # of connection points: 2
#     Edge 59, Type (0, 0), BuildingBlock: ZUJKAS_clean_linker_0, # of connection points: 2
#     Edge 60, Type (0, 0), BuildingBlock: ZUJKAS_clean_linker_0, # of connection points: 2
#     Edge 61, Type (0, 0), BuildingBlock: ZUJKAS_clean_linker_0, # of connection points: 2
#     Edge 62, Type (0, 0), BuildingBlock: ZUJKAS_clean_linker_0, # of connection points: 2
# Relax obj value: 0.115
# Max RMSD: 0.142
# Mean RMSD: 0.142
data_MOF--net-fng--node1-XOMCOT_clean_sbu_1--edge1-ZUJKAS_clean_linker_0
_symmetry_space_group_name_H-M    P1
_symmetry_Int_Tables_number       1
_symmetry_cell_setting            triclinic
loop_
_symmetry_equiv_pos_as_xyz
'x, y, z'
_cell_length_a     101.84837
_cell_length_b     101.95422
_cell_length_c     21.593271
_cell_angle_alpha  89.906075
_cell_angle_beta   90.027567
_cell_angle_gamma 119.93493
loop_
_atom_site_label
_atom_site_type_symbol
_atom_site_fract_x
_atom_site_fract_y
_atom_site_fract_z
_atom_type_partial_charge
C0 C 0.15537 0.27178 0.03927 0.0
C1 C 0.15876 0.27441 0.97731 0.0
N2 N 0.15846 0.26211 0.95282 0.0
N3 N 0.15303 0.25792 0.054 0.0
C4 C 0.15501 0.25231 0.0004 0.0
H5 H 0.15419 0.27932 0.07088 0.0
Co6 Co 0.14645 0.24834 0.13007 0.0
C7 C 0.15718 0.22571 0.13715 0.0
O8 O 0.14696 0.2176 0.17903 0.0
N9 N 0.13955 0.23882 0.20837 0.0
C10 C 0.12488 0.22543 0.28741 0.0
C11 C 0.12527 0.2284 0.22528 0.0
C12 C 0.14759 0.24187 0.2617 0.0
N13 N 0.13891 0.234 0.31046 0.0
O14 O 0.1641 0.26478 0.16871 0.0
H15 H 0.11551 0.22328 0.1953 0.0
H16 H 0.15952 0.25008 0.26538 0.0
O17 O 0.15769 0.2376 0.11494 0.0
C18 C 0.16116 0.27454 0.19187 0.0
O19 O 0.14715 0.27189 0.18863 0.0
N20 N 0.12864 0.23344 0.09157 0.0
C21 C 0.09935 0.2142 0.04788 0.0
C22 C 0.11045 0.20986 0.04504 0.0
C23 C 0.12512 0.21969 0.06725 0.0
C24 C 0.11828 0.23818 0.09057 0.0
C25 C 0.10355 0.2287 0.06974 0.0
H26 H 0.13342 0.2161 0.06528 0.0
H27 H 0.12136 0.24923 0.10873 0.0
H28 H 0.15318 0.24095 0.9957 0.0
H29 H 0.16093 0.28448 0.95207 0.0
H30 H 0.11493 0.2177 0.31367 0.0
H31 H 0.10768 0.19882 0.02765 0.0
H32 H 0.09544 0.23262 0.07145 0.0
C33 C 0.75739 0.88952 0.04927 0.0
C34 C 0.75486 0.89082 0.98757 0.0
N35 N 0.76782 0.90185 0.96263 0.0
N36 N 0.77185 0.89977 0.06317 0.0
C37 C 0.77792 0.90709 0.00951 0.0
H38 H 0.74932 0.88132 0.08136 0.0
Co39 Co 0.7815 0.90225 0.13849 0.0
C40 C 0.80321 0.93595 0.14945 0.0
O41 O 0.81054 0.93439 0.1963 0.0
N42 N 0.79107 0.90435 0.21592 0.0
C43 C 0.8038 0.90167 0.29415 0.0
C44 C 0.8008 0.89952 0.23193 0.0
C45 C 0.78834 0.90935 0.26983 0.0
N46 N 0.79584 0.90774 0.31819 0.0
O47 O 0.7651 0.90333 0.17854 0.0
H48 H 0.80515 0.89422 0.20137 0.0
H49 H 0.78055 0.91359 0.27408 0.0
O50 O 0.79222 0.92425 0.12439 0.0
C51 C 0.75576 0.89101 0.20552 0.0
O52 O 0.75854 0.87973 0.20457 0.0
N53 N 0.79646 0.89961 0.09857 0.0
C54 C 0.8159 0.88982 0.05351 0.0
C55 C 0.82104 0.90533 0.06194 0.0
C56 C 0.81111 0.91003 0.08439 0.0
C57 C 0.79112 0.88462 0.08812 0.0
C58 C 0.80061 0.87948 0.06593 0.0
H59 H 0.8154 0.92192 0.09184 0.0
H60 H 0.77951 0.87651 0.09987 0.0
H61 H 0.78963 0.91591 0.00475 0.0
H62 H 0.74449 0.88371 0.96245 0.0
H63 H 0.81099 0.8986 0.3198 0.0
H64 H 0.83268 0.91376 0.05208 0.0
H65 H 0.79608 0.86741 0.06122 0.0
C66 C 0.14601 0.89337 0.0572 0.0
C67 C 0.14998 0.89369 0.99618 0.0
N68 N 0.13739 0.88434 0.96403 0.0
N69 N 0.131 0.88391 0.06347 0.0
C70 C 0.12607 0.87842 0.00612 0.0
H71 H 0.15347 0.90007 0.09432 0.0
Co72 Co 0.12048 0.88142 0.13661 0.0
C73 C 0.09009 0.87443 0.09161 0.0
O74 O 0.0914 0.88568 0.12584 0.0
N75 N 0.11036 0.87858 0.21253 0.0
C76 C 0.09412 0.8675 0.29031 0.0
C77 C 0.09582 0.86847 0.22725 0.0
C78 C 0.11735 0.883 0.26804 0.0
N79 N 0.10773 0.87656 0.31605 0.0
O80 O 0.11967 0.86235 0.15034 0.0
H81 H 0.08716 0.86101 0.19536 0.0
H82 H 0.12953 0.88961 0.27317 0.0
O83 O 0.10078 0.87124 0.09176 0.0
C84 C 0.13199 0.86456 0.17511 0.0
O85 O 0.1426 0.87856 0.18645 0.0
N86 N 0.12284 0.90107 0.12422 0.0
C87 C 0.1329 0.93172 0.09913 0.0
C88 C 0.12446 0.92048 0.05531 0.0
C89 C 0.11972 0.90532 0.06837 0.0
C90 C 0.13102 0.9119 0.16734 0.0
C91 C 0.13594 0.92719 0.1562 0.0
H92 H 0.11407 0.89708 0.03222 0.0
H93 H 0.1347 0.90897 0.20915 0.0
H94 H 0.11428 0.87097 0.99468 0.0
H95 H 0.16119 0.90059 0.97681 0.0
H96 H 0.08382 0.85999 0.31509 0.0
H97 H 0.12187 0.9234 0.01047 0.0
H98 H 0.14284 0.93548 0.19074 0.0
C99 C 0.27156 0.1383 0.95012 0.0
C100 C 0.2749 0.14095 0.01206 0.0
N101 N 0.26589 0.14573 0.03699 0.0
N102 N 0.26055 0.14146 0.93582 0.0
C103 C 0.25736 0.14599 0.98967 0.0
H104 H 0.27642 0.13375 0.9182 0.0
Co105 Co 0.25111 0.1379 0.8593 0.0
C106 C 0.22748 0.14688 0.87555 0.0
O107 O 0.21759 0.13481 0.84527 0.0
N108 N 0.24163 0.13412 0.77983 0.0
C109 C 0.22627 0.1236 0.69874 0.0
C110 C 0.22859 0.12195 0.76015 0.0
C111 C 0.24695 0.14294 0.72854 0.0
N112 N 0.23789 0.13678 0.67891 0.0
O113 O 0.26808 0.15646 0.82917 0.0
H114 H 0.22096 0.11238 0.7882 0.0
H115 H 0.25732 0.15371 0.72678 0.0
O116 O 0.24086 0.14912 0.88472 0.0
C117 C 0.27841 0.15424 0.80684 0.0
O118 O 0.27585 0.14028 0.80405 0.0
N119 N 0.23578 0.11914 0.88985 0.0
C120 C 0.21721 0.08957 0.93335 0.0
C121 C 0.21566 0.10164 0.95627 0.0
C122 C 0.22522 0.11641 0.93458 0.0
C123 C 0.23776 0.10765 0.86872 0.0
C124 C 0.22846 0.09281 0.88881 0.0
H125 H 0.22441 0.1256 0.95531 0.0
H126 H 0.24662 0.11009 0.83537 0.0
H127 H 0.24833 0.14858 0.995 0.0
H128 H 0.28305 0.1391 0.037 0.0
H129 H 0.21701 0.11549 0.67034 0.0
H130 H 0.20748 0.09978 0.99211 0.0
H131 H 0.23011 0.08395 0.86935 0.0
C132 C 0.8993 0.13878 0.92753 0.0
C133 C 0.89716 0.14128 0.98822 0.0
N134 N 0.88669 0.12801 0.01322 0.0
N135 N 0.89024 0.124 0.91431 0.0
C136 C 0.88256 0.11775 0.96716 0.0
H137 H 0.90736 0.14706 0.89558 0.0
Co138 Co 0.89006 0.11516 0.8389 0.0
C139 C 0.88424 0.08516 0.89241 0.0
O140 O 0.89819 0.08832 0.88142 0.0
N141 N 0.88957 0.10662 0.76138 0.0
C142 C 0.88942 0.0931 0.68036 0.0
C143 C 0.89112 0.09477 0.74348 0.0
C144 C 0.88711 0.11201 0.70809 0.0
N145 N 0.88685 0.10395 0.65814 0.0
O146 O 0.8704 0.11297 0.82097 0.0
H147 H 0.89346 0.08774 0.77319 0.0
H148 H 0.8854 0.12163 0.70611 0.0
O149 O 0.88003 0.0947 0.87765 0.0
C150 C 0.8713 0.12555 0.80653 0.0
O151 O 0.88473 0.13781 0.80631 0.0
N152 N 0.91018 0.11897 0.8548 0.0
C153 C 0.94126 0.13067 0.87787 0.0
C154 C 0.93049 0.12371 0.92517 0.0
C155 C 0.9151 0.11808 0.91288 0.0
C156 C 0.92053 0.12575 0.80837 0.0
C157 C 0.936 0.13137 0.81853 0.0
H158 H 0.90715 0.11323 0.95071 0.0
H159 H 0.91698 0.12746 0.76339 0.0
H160 H 0.87441 0.10584 0.9723 0.0
H161 H 0.90345 0.15187 0.01287 0.0
H162 H 0.89027 0.08467 0.65301 0.0
H163 H 0.9339 0.12317 0.97215 0.0
H164 H 0.94377 0.13655 0.78022 0.0
C165 C 0.89545 0.75057 0.93564 0.0
C166 C 0.89705 0.7482 -0.00278 0.0
N167 N 0.90809 0.76127 0.02125 0.0
N168 N 0.90552 0.76503 0.92088 0.0
C169 C 0.91306 0.77126 0.97393 0.0
H170 H 0.88713 0.74239 0.9043 0.0
Co171 Co 0.90747 0.77442 0.84531 0.0
C172 C 0.94101 0.79643 0.83074 0.0
O173 O 0.93892 0.80398 0.78624 0.0
N174 N 0.90903 0.78371 0.76775 0.0
C175 C 0.90582 0.79608 0.68951 0.0
C176 C 0.90381 0.79312 0.75183 0.0
C177 C 0.91411 0.78112 0.71377 0.0
N178 N 0.91221 0.78843 0.66541 0.0
O179 O 0.90832 0.75794 0.80502 0.0
H180 H 0.89839 0.7973 0.7826 0.0
H181 H 0.91866 0.77359 0.70955 0.0
O182 O 0.92961 0.78521 0.85641 0.0
C183 C 0.89579 0.74853 0.77961 0.0
O184 O 0.8845 0.75129 0.7823 0.0
N185 N 0.90505 0.78948 0.88552 0.0
C186 C 0.89545 0.80904 0.93091 0.0
C187 C 0.91094 0.81411 0.92176 0.0
C188 C 0.91554 0.80412 0.8992 0.0
C189 C 0.89008 0.7842 0.89699 0.0
C190 C 0.88503 0.79374 0.9193 0.0
H191 H 0.92742 0.80836 0.8915 0.0
H192 H 0.88191 0.77258 0.88581 0.0
H193 H 0.92179 0.78301 0.97801 0.0
H194 H 0.89011 0.73788 0.02297 0.0
H195 H 0.90249 0.80308 0.66389 0.0
H196 H 0.91943 0.82574 0.93118 0.0
H197 H 0.87297 0.78926 0.92467 0.0
C198 C 0.80143 0.59229 0.39549 0.0
C199 C 0.80393 0.59618 0.33396 0.0
N200 N 0.81209 0.59032 0.30977 0.0
N201 N 0.80803 0.58409 0.41033 0.0
C202 C 0.81451 0.58313 0.35721 0.0
H203 H 0.7947 0.59479 0.42688 0.0
Co204 Co 0.80599 0.57511 0.48728 0.0
C205 C 0.81458 0.55145 0.46 0.0
O206 O 0.80176 0.54079 0.48311 0.0
N207 N 0.80374 0.5661 0.56723 0.0
C208 C 0.79493 0.55041 0.64828 0.0
C209 C 0.79339 0.55197 0.58613 0.0
C210 C 0.81141 0.57286 0.61989 0.0
N211 N 0.80622 0.56361 0.66971 0.0
O212 O 0.82487 0.59247 0.51241 0.0
H213 H 0.78478 0.54324 0.55747 0.0
H214 H 0.82023 0.58455 0.62276 0.0
O215 O 0.81723 0.56511 0.45794 0.0
C216 C 0.82263 0.60311 0.53057 0.0
O217 O 0.8086 0.60039 0.53349 0.0
N218 N 0.78682 0.5594 0.46208 0.0
C219 C 0.75663 0.54081 0.42564 0.0
C220 C 0.76854 0.54072 0.39293 0.0
C221 C 0.78361 0.55032 0.41131 0.0
C222 C 0.77544 0.5599 0.49314 0.0
C223 C 0.76032 0.55051 0.47673 0.0
H224 H 0.79266 0.55082 0.38346 0.0
H225 H 0.77817 0.56779 0.53099 0.0
H226 H 0.82014 0.57657 0.35239 0.0
H227 H 0.79972 0.6025 0.30875 0.0
H228 H 0.78804 0.54038 0.67567 0.0
H229 H 0.76629 0.53378 0.35206 0.0
H230 H 0.75163 0.551 0.50372 0.0
C231 C 0.42669 0.21419 0.37685 0.0
C232 C 0.42261 0.21388 0.316 0.0
N233 N 0.42999 0.22814 0.29395 0.0
N234 N 0.43648 0.22859 0.39334 0.0
C235 C 0.43831 0.23684 0.34173 0.0
H236 H 0.42323 0.20444 0.40638 0.0
Co237 Co 0.44589 0.2342 0.47003 0.0
C238 C 0.4704 0.26647 0.44974 0.0
O239 O 0.48056 0.26392 0.47568 0.0
N240 N 0.45531 0.23956 0.54963 0.0
C241 C 0.47083 0.24423 0.63002 0.0
C242 C 0.46895 0.24158 0.56753 0.0
C243 C 0.44918 0.24104 0.60307 0.0
N244 N 0.45832 0.2438 0.6525 0.0
O245 O 0.42925 0.23648 0.49975 0.0
H246 H 0.47717 0.24105 0.53763 0.0
H247 H 0.43796 0.23953 0.60672 0.0
O248 O 0.4567 0.25567 0.44453 0.0
C249 C 0.41811 0.22384 0.51727 0.0
O250 O 0.41971 0.21182 0.51618 0.0
N251 N 0.46086 0.23017 0.44 0.0
C252 C 0.47884 0.21843 0.39705 0.0
C253 C 0.47999 0.23158 0.37058 0.0
C254 C 0.47067 0.23713 0.392 0.0
C255 C 0.45929 0.21716 0.46478 0.0
C256 C 0.46831 0.21126 0.44488 0.0
H257 H 0.47103 0.24668 0.36867 0.0
H258 H 0.45092 0.21132 0.50056 0.0
H259 H 0.44592 0.24892 0.33842 0.0
H260 H 0.41544 0.20385 0.28912 0.0
H261 H 0.48061 0.24613 0.65676 0.0
H262 H 0.48762 0.23723 0.33227 0.0
H263 H 0.46699 0.20112 0.46689 0.0
C264 C 0.81425 0.21913 0.37384 0.0
C265 C 0.81685 0.21766 0.31255 0.0
N266 N 0.80349 0.20814 0.28557 0.0
N267 N 0.79932 0.21057 0.38571 0.0
C268 C 0.79308 0.20376 0.33132 0.0
H269 H 0.82258 0.22668 0.40685 0.0
Co270 Co 0.79043 0.21122 0.46029 0.0
C271 C 0.75994 0.20314 0.40332 0.0
O272 O 0.76255 0.21709 0.40472 0.0
N273 N 0.78177 0.21166 0.53654 0.0
C274 C 0.76801 0.21339 0.61275 0.0
C275 C 0.77056 0.21463 0.54993 0.0
C276 C 0.78595 0.20886 0.59217 0.0
N277 N 0.77771 0.20971 0.63929 0.0
O278 O 0.78897 0.19218 0.48415 0.0
H279 H 0.76475 0.21785 0.51696 0.0
H280 H 0.79484 0.20613 0.59807 0.0
O281 O 0.76981 0.19989 0.42366 0.0
C282 C 0.80167 0.19384 0.50185 0.0
O283 O 0.81349 0.20756 0.50242 0.0
N284 N 0.79361 0.23084 0.43826 0.0
C285 C 0.80438 0.26132 0.40721 0.0
C286 C 0.79748 0.24989 0.36263 0.0
C287 C 0.79235 0.23481 0.37883 0.0
C288 C 0.80052 0.24191 0.48193 0.0
C289 C 0.80569 0.25713 0.46777 0.0
H290 H 0.78744 0.22635 0.343 0.0
H291 H 0.80269 0.23913 0.5277 0.0
H292 H 0.78101 0.19681 0.32401 0.0
H293 H 0.82767 0.22372 0.28912 0.0
H294 H 0.75987 0.21537 0.63699 0.0
H295 H 0.79622 0.25258 0.31524 0.0
H296 H 0.81134 0.26561 0.5033 0.0
C297 C 0.93063 0.46206 0.26719 0.0
C298 C 0.93488 0.46328 0.32823 0.0
N299 N 0.93066 0.4723 0.35721 0.0
N300 N 0.92375 0.47025 0.25751 0.0
C301 C 0.92421 0.47662 0.31292 0.0
H302 H 0.93169 0.45495 0.2328 0.0
Co303 Co 0.91399 0.46981 0.18383 0.0
C304 C 0.89107 0.47682 0.2426 0.0
O305 O 0.87998 0.46281 0.23683 0.0
N306 N 0.9047 0.46956 0.10773 0.0
C307 C 0.88966 0.46876 0.03113 0.0
C308 C 0.89104 0.46801 0.09418 0.0
C309 C 0.91126 0.47104 0.05176 0.0
N310 N 0.90244 0.47071 0.00441 0.0
O311 O 0.93133 0.48905 0.1609 0.0
H312 H 0.88239 0.46625 0.12696 0.0
H313 H 0.92237 0.47239 0.04569 0.0
O314 O 0.90442 0.48059 0.22345 0.0
C315 C 0.94179 0.48714 0.13774 0.0
O316 O 0.93948 0.47327 0.1344 0.0
N317 N 0.89785 0.44997 0.20469 0.0
C318 C 0.87902 0.41915 0.23383 0.0
C319 C 0.88325 0.43038 0.27928 0.0
C320 C 0.89273 0.44562 0.264 0.0
C321 C 0.89388 0.43917 0.16 0.0
C322 C 0.88431 0.42381 0.17322 0.0
H323 H 0.89611 0.45388 0.30053 0.0
H324 H 0.89864 0.44227 0.11405 0.0
H325 H 0.91877 0.48321 0.32196 0.0
H326 H 0.94004 0.45741 0.35009 0.0
H327 H 0.87985 0.46767 0.00699 0.0
H328 H 0.8798 0.42743 0.32707 0.0
H329 H 0.8814 0.41565 0.13628 0.0
C330 C 0.53893 0.46082 0.29269 0.0
C331 C 0.53484 0.45892 0.3541 0.0
N332 N 0.5367 0.44768 0.37715 0.0
N333 N 0.54322 0.45073 0.27691 0.0
C334 C 0.54181 0.44292 0.32943 0.0
H335 H 0.53916 0.46935 0.26224 0.0
Co336 Co 0.55058 0.44894 0.20064 0.0
C337 C 0.53925 0.41543 0.18612 0.0
O338 O 0.54865 0.41748 0.14067 0.0
N339 N 0.55817 0.44753 0.12268 0.0
C340 C 0.57358 0.45111 0.0434 0.0
C341 C 0.57279 0.45305 0.10589 0.0
C342 C 0.55035 0.44237 0.06908 0.0
N343 N 0.55945 0.44447 0.02014 0.0
O344 O 0.53314 0.44803 0.16092 0.0
H345 H 0.58247 0.45864 0.1362 0.0
H346 H 0.53822 0.43764 0.06553 0.0
O347 O 0.53947 0.42684 0.21173 0.0
C348 C 0.5361 0.4609 0.13962 0.0
O349 O 0.54998 0.47232 0.14583 0.0
N350 N 0.56819 0.45143 0.24008 0.0
C351 C 0.59741 0.4612 0.28522 0.0
C352 C 0.58722 0.44573 0.27491 0.0
C353 C 0.57259 0.44105 0.2525 0.0
C354 C 0.57768 0.46636 0.25239 0.0
C355 C 0.59229 0.47149 0.27467 0.0
H356 H 0.56513 0.42919 0.24391 0.0
H357 H 0.57405 0.47446 0.24208 0.0
H358 H 0.54472 0.43408 0.33281 0.0
H359 H 0.53142 0.46575 0.3804 0.0
H360 H 0.58385 0.45467 0.01704 0.0
H361 H 0.59056 0.43734 0.28335 0.0
H362 H 0.59971 0.48354 0.28092 0.0
C363 C 0.5498 0.08968 0.27524 0.0
C364 C 0.54719 0.0857 0.33666 0.0
N365 N 0.56047 0.08904 0.36327 0.0
N366 N 0.56465 0.09549 0.26293 0.0
C367 C 0.57085 0.09475 0.31727 0.0
H368 H 0.54153 0.08908 0.24221 0.0
Co369 Co 0.5735 0.10441 0.18742 0.0
C370 C 0.60431 0.12682 0.24192 0.0
O371 O 0.6022 0.13847 0.2378 0.0
N372 N 0.58215 0.11299 0.11034 0.0
C373 C 0.59507 0.12851 0.03276 0.0
C374 C 0.5925 0.12741 0.09554 0.0
C375 C 0.57859 0.1056 0.05557 0.0
N376 N 0.58633 0.11474 0.00775 0.0
O377 O 0.57481 0.08664 0.16644 0.0
H378 H 0.59753 0.13675 0.12744 0.0
H379 H 0.57011 0.09382 0.05035 0.0
O380 O 0.59409 0.11367 0.22393 0.0
C381 C 0.56206 0.0754 0.15066 0.0
O382 O 0.55015 0.07719 0.1498 0.0
N383 N 0.5705 0.12102 0.20673 0.0
C384 C 0.5598 0.141 0.23392 0.0
C385 C 0.56731 0.13723 0.27896 0.0
C386 C 0.57234 0.12707 0.26479 0.0
C387 C 0.56298 0.12439 0.16277 0.0
C388 C 0.5578 0.1345 0.17497 0.0
H389 H 0.57752 0.12392 0.30111 0.0
H390 H 0.56036 0.11873 0.11845 0.0
H391 H 0.58287 0.09931 0.32411 0.0
H392 H 0.53642 0.0812 0.36029 0.0
H393 H 0.60274 0.13867 0.0075 0.0
H394 H 0.56909 0.14189 0.32524 0.0
H395 H 0.55161 0.13663 0.13928 0.0
C396 C 0.46659 0.92306 0.72397 0.0
C397 C 0.46972 0.92696 0.66257 0.0
N398 N 0.47991 0.92307 0.64334 0.0
N399 N 0.47477 0.91676 0.74336 0.0
C400 C 0.48287 0.91704 0.69345 0.0
H401 H 0.45839 0.92413 0.75208 0.0
Co402 Co 0.47315 0.90825 0.82096 0.0
C403 C 0.48028 0.88361 0.78938 0.0
O404 O 0.46725 0.87302 0.81116 0.0
N405 N 0.47151 0.89979 0.9011 0.0
C406 C 0.46456 0.88447 0.98334 0.0
C407 C 0.46208 0.88553 0.92157 0.0
C408 C 0.47938 0.90719 0.95236 0.0
N409 N 0.47544 0.89813 0.00259 0.0
O410 O 0.49255 0.92539 0.84292 0.0
H411 H 0.45341 0.87644 0.89455 0.0
H412 H 0.48779 0.91905 0.95367 0.0
O413 O 0.4835 0.89746 0.79049 0.0
C414 C 0.49156 0.9371 0.85542 0.0
O415 O 0.47817 0.93602 0.85226 0.0
N416 N 0.45353 0.89265 0.79918 0.0
C417 C 0.42301 0.87399 0.76705 0.0
C418 C 0.43465 0.87446 0.73034 0.0
C419 C 0.44986 0.88406 0.74668 0.0
C420 C 0.44239 0.89266 0.83419 0.0
C421 C 0.42714 0.88321 0.81989 0.0
H422 H 0.45866 0.88497 0.71601 0.0
H423 H 0.44541 0.90021 0.87342 0.0
H424 H 0.49047 0.91252 0.69323 0.0
H425 H 0.46424 0.93147 0.63353 0.0
H426 H 0.45836 0.87459 0.01248 0.0
H427 H 0.43207 0.86794 0.68806 0.0
H428 H 0.41866 0.88329 0.8499 0.0
C429 C 0.08667 0.55469 0.72062 0.0
C430 C 0.08379 0.55507 0.65857 0.0
N431 N 0.09598 0.56691 0.63254 0.0
N432 N 0.10059 0.56626 0.73376 0.0
C433 C 0.10597 0.57352 0.67926 0.0
H434 H 0.07926 0.54624 0.75358 0.0
Co435 Co 0.11052 0.56976 0.80921 0.0
C436 C 0.13386 0.60286 0.80941 0.0
O437 O 0.1423 0.60084 0.84996 0.0
N438 N 0.1205 0.57297 0.88721 0.0
C439 C 0.13438 0.57222 0.96558 0.0
C440 C 0.1313 0.56957 0.90358 0.0
C441 C 0.11744 0.57787 0.94077 0.0
N442 N 0.12553 0.57729 0.98927 0.0
O443 O 0.09441 0.57162 0.84774 0.0
H444 H 0.13661 0.56519 0.87331 0.0
H445 H 0.109 0.58129 0.94491 0.0
O446 O 0.12148 0.59153 0.79059 0.0
C447 C 0.08505 0.55956 0.87631 0.0
O448 O 0.08769 0.54819 0.87717 0.0
N449 N 0.12502 0.56617 0.77076 0.0
C450 C 0.14311 0.55509 0.72235 0.0
C451 C 0.14758 0.57054 0.71753 0.0
C452 C 0.13831 0.57587 0.74173 0.0
C453 C 0.12023 0.5511 0.77352 0.0
C454 C 0.12912 0.54536 0.75049 0.0
H455 H 0.14187 0.58768 0.73646 0.0
H456 H 0.10955 0.54354 0.79578 0.0
H457 H 0.1173 0.58304 0.67338 0.0
H458 H 0.07359 0.54707 0.6344 0.0
H459 H 0.14239 0.57029 0.9913 0.0
H460 H 0.15808 0.57844 0.69482 0.0
H461 H 0.12518 0.53342 0.75628 0.0
C462 C 0.47963 0.55932 0.71514 0.0
C463 C 0.48162 0.55712 0.65385 0.0
N464 N 0.46829 0.54612 0.63131 0.0
N465 N 0.46511 0.5498 0.73111 0.0
C466 C 0.45856 0.5417 0.67956 0.0
H467 H 0.48799 0.56788 0.74531 0.0
Co468 Co 0.45637 0.54993 0.80643 0.0
C469 C 0.42569 0.54171 0.7505 0.0
O470 O 0.42786 0.55549 0.75316 0.0
N471 N 0.44777 0.54978 0.88303 0.0
C472 C 0.43401 0.55082 0.96071 0.0
C473 C 0.43644 0.55246 0.89787 0.0
C474 C 0.45214 0.54673 0.93763 0.0
N475 N 0.4439 0.54718 0.98562 0.0
O476 O 0.45504 0.53084 0.82738 0.0
H477 H 0.43049 0.55574 0.86588 0.0
H478 H 0.46115 0.54412 0.94203 0.0
O479 O 0.43578 0.53871 0.77001 0.0
C480 C 0.46781 0.53203 0.84067 0.0
O481 O 0.47998 0.54551 0.83884 0.0
N482 N 0.4593 0.56955 0.78726 0.0
C483 C 0.4695 0.60015 0.76083 0.0
C484 C 0.46267 0.58904 0.71489 0.0
C485 C 0.45782 0.57389 0.72878 0.0
C486 C 0.4662 0.58032 0.83209 0.0
C487 C 0.4711 0.59556 0.82025 0.0
H488 H 0.45307 0.56566 0.69196 0.0
H489 H 0.46857 0.57726 0.87695 0.0
H490 H 0.44672 0.53318 0.67672 0.0
H491 H 0.49181 0.56384 0.62707 0.0
H492 H 0.42583 0.55253 0.98613 0.0
H493 H 0.46125 0.59205 0.66821 0.0
H494 H 0.47676 0.60378 0.85668 0.0
C495 C 0.60857 0.8162 0.62091 0.0
C496 C 0.61115 0.81961 0.68287 0.0
N497 N 0.59844 0.8183 0.70811 0.0
N498 N 0.59433 0.81282 0.60695 0.0
C499 C 0.58844 0.81422 0.66093 0.0
H500 H 0.61646 0.81581 0.58855 0.0
Co501 Co 0.58482 0.80606 0.53094 0.0
C502 C 0.56251 0.8173 0.52175 0.0
O503 O 0.55498 0.80794 0.47657 0.0
N504 N 0.57539 0.79897 0.45267 0.0
C505 C 0.56275 0.7839 0.37366 0.0
C506 C 0.56573 0.7845 0.43584 0.0
C507 C 0.57806 0.80692 0.39918 0.0
N508 N 0.57062 0.798 0.35036 0.0
O509 O 0.60126 0.82368 0.49197 0.0
H510 H 0.56132 0.77474 0.46585 0.0
H511 H 0.58574 0.81897 0.39558 0.0
O512 O 0.57394 0.81719 0.54577 0.0
C513 C 0.61045 0.8205 0.46475 0.0
O514 O 0.60739 0.80636 0.46526 0.0
N515 N 0.56991 0.78829 0.56969 0.0
C516 C 0.55071 0.75885 0.61211 0.0
C517 C 0.54563 0.76937 0.60863 0.0
C518 C 0.55545 0.78412 0.58718 0.0
C519 C 0.57525 0.7785 0.57658 0.0
C520 C 0.56586 0.76375 0.59729 0.0
H521 H 0.55121 0.79187 0.58337 0.0
H522 H 0.58679 0.78205 0.56318 0.0
H523 H 0.57681 0.81159 0.66601 0.0
H524 H 0.62152 0.8226 0.70751 0.0
H525 H 0.55553 0.77375 0.34754 0.0
H526 H 0.53403 0.76607 0.62006 0.0
H527 H 0.57037 0.75614 0.60059 0.0
C528 C 0.2061 0.79554 0.61359 0.0
C529 C 0.20236 0.79428 0.6754 0.0
N530 N 0.20442 0.78332 0.7004 0.0
N531 N 0.21038 0.78534 0.59966 0.0
C532 C 0.20922 0.77806 0.6534 0.0
H533 H 0.20618 0.80373 0.58155 0.0
Co534 Co 0.21782 0.78298 0.52472 0.0
C535 C 0.20672 0.74947 0.5154 0.0
O536 O 0.21631 0.75128 0.47107 0.0
N537 N 0.22555 0.78094 0.44783 0.0
C538 C 0.24114 0.78371 0.37031 0.0
C539 C 0.24015 0.78585 0.43246 0.0
C540 C 0.21794 0.77586 0.39369 0.0
N541 N 0.22717 0.77756 0.3457 0.0
O542 O 0.20041 0.78178 0.48326 0.0
H543 H 0.24971 0.79117 0.46343 0.0
H544 H 0.20591 0.77154 0.38895 0.0
O545 O 0.20671 0.76099 0.5386 0.0
C546 C 0.20356 0.79426 0.45722 0.0
O547 O 0.21753 0.80561 0.46136 0.0
N548 N 0.23538 0.78579 0.56581 0.0
C549 C 0.26428 0.79577 0.61503 0.0
C550 C 0.25398 0.78024 0.60728 0.0
C551 C 0.23952 0.77544 0.58281 0.0
C552 C 0.245 0.80084 0.57527 0.0
C553 C 0.25947 0.80607 0.59948 0.0
H554 H 0.23193 0.76351 0.57682 0.0
H555 H 0.24156 0.80889 0.56155 0.0
H556 H 0.21222 0.76931 0.65819 0.0
H557 H 0.19913 0.80141 0.70058 0.0
H558 H 0.25148 0.78687 0.34509 0.0
H559 H 0.25709 0.77185 0.61964 0.0
H560 H 0.26699 0.81816 0.60373 0.0
C561 C 0.21696 0.42751 0.61871 0.0
C562 C 0.21513 0.42325 0.67995 0.0
N563 N 0.22864 0.42602 0.70239 0.0
N564 N 0.23156 0.43299 0.60266 0.0
C565 C 0.23833 0.43166 0.65411 0.0
H566 H 0.20842 0.42741 0.58866 0.0
Co567 Co 0.24005 0.44205 0.52719 0.0
C568 C 0.27037 0.4653 0.58265 0.0
O569 O 0.26735 0.47637 0.57993 0.0
N570 N 0.24842 0.45066 0.45038 0.0
C571 C 0.2619 0.4656 0.37248 0.0
C572 C 0.25948 0.46476 0.43533 0.0
C573 C 0.24419 0.44324 0.39586 0.0
N574 N 0.25227 0.45201 0.34775 0.0
O575 O 0.24206 0.42469 0.50606 0.0
H576 H 0.26528 0.47402 0.46717 0.0
H577 H 0.23542 0.43154 0.39163 0.0
O578 O 0.26075 0.45204 0.56326 0.0
C579 C 0.22944 0.41296 0.49289 0.0
O580 O 0.21706 0.41393 0.49497 0.0
N581 N 0.23641 0.45833 0.54653 0.0
C582 C 0.22539 0.47807 0.57301 0.0
C583 C 0.23212 0.47374 0.61933 0.0
C584 C 0.23742 0.46379 0.60534 0.0
C585 C 0.22954 0.46221 0.50138 0.0
C586 C 0.22429 0.47228 0.51323 0.0
H587 H 0.24223 0.46038 0.64231 0.0
H588 H 0.2275 0.45704 0.45615 0.0
H589 H 0.25027 0.43538 0.65683 0.0
H590 H 0.20488 0.41942 0.70677 0.0
H591 H 0.26991 0.47555 0.34695 0.0
H592 H 0.23312 0.47786 0.66628 0.0
H593 H 0.21873 0.47494 0.47651 0.0
H594 H 0.12096 0.22971 0.40957 0.0
H595 H 0.12834 0.23355 0.51807 0.0
H596 H 0.17408 0.24606 0.46724 0.0
H597 H 0.16672 0.24223 0.35764 0.0
H598 H 0.14045 0.22015 0.59253 0.0
H599 H 0.17974 0.28221 0.56996 0.0
H600 H 0.16662 0.2712 0.50952 0.0
H601 H 0.18359 0.27026 0.52118 0.0
C602 C 0.13254 0.23308 0.42123 0.0
C603 C 0.14325 0.23567 0.37479 0.0
C604 C 0.13677 0.23533 0.4834 0.0
C605 C 0.15178 0.24024 0.50069 0.0
C606 C 0.16248 0.24253 0.45477 0.0
H607 H 0.16811 0.24382 0.90448 0.0
H608 H 0.16896 0.23825 0.79453 0.0
C609 C 0.15826 0.24034 0.39224 0.0
C610 C 0.15603 0.24323 0.56694 0.0
H611 H 0.17567 0.27185 0.66995 0.0
C612 C 0.14831 0.2314 0.60957 0.0
C613 C 0.16623 0.25796 0.58882 0.0
C614 C 0.17447 0.2712 0.54523 0.0
C615 C 0.14999 0.23401 0.67364 0.0
C616 C 0.1599 0.24881 0.69556 0.0
C617 C 0.16814 0.26051 0.65291 0.0
C618 C 0.16053 0.25276 0.76194 0.0
C619 C 0.14045 0.2211 0.71714 0.0
C620 C 0.15597 0.2631 0.77987 0.0
C621 C 0.15557 0.26635 0.84229 0.0
C622 C 0.15971 0.25933 0.88827 0.0
C623 C 0.16463 0.24923 0.87018 0.0
C624 C 0.16512 0.24604 0.80745 0.0
H625 H 0.13131 0.21119 0.69243 0.0
H626 H 0.14776 0.2174 0.74054 0.0
H627 H 0.1352 0.22473 0.75335 0.0
H628 H 0.15233 0.26838 0.74552 0.0
H629 H 0.15154 0.27402 0.8545 0.0
H630 H 0.78694 0.9266 0.36771 0.0
H631 H 0.78176 0.92854 0.47701 0.0
H632 H 0.79568 0.89622 0.52474 0.0
H633 H 0.80032 0.89375 0.41617 0.0
H634 H 0.76748 0.88931 0.5725 0.0
H635 H 0.81151 0.94885 0.62247 0.0
H636 H 0.79956 0.94597 0.55658 0.0
H637 H 0.8124 0.93873 0.55553 0.0
C638 C 0.78891 0.91991 0.40143 0.0
C639 C 0.79403 0.90999 0.38287 0.0
C640 C 0.7861 0.92117 0.46394 0.0
C641 C 0.78846 0.91262 0.50887 0.0
C642 C 0.79385 0.90297 0.4907 0.0
H643 H 0.79444 0.91217 0.90171 0.0
H644 H 0.79864 0.91638 0.79039 0.0
C645 C 0.79662 0.90167 0.42847 0.0
C646 C 0.78454 0.91289 0.57457 0.0
H647 H 0.79484 0.935 0.70401 0.0
C648 C 0.77337 0.89932 0.60124 0.0
C649 C 0.79232 0.92597 0.6117 0.0
C650 C 0.8047 0.94071 0.58549 0.0
C651 C 0.77001 0.89834 0.66455 0.0
C652 C 0.77783 0.9114 0.70189 0.0
C653 C 0.7888 0.92507 0.67501 0.0
C654 C 0.7756 0.91067 0.76973 0.0
C655 C 0.7586 0.88317 0.69134 0.0
C656 C 0.76136 0.90651 0.79511 0.0
C657 C 0.75891 0.90403 0.85877 0.0
C658 C 0.77071 0.90584 0.89811 0.0
C659 C 0.78515 0.91079 0.87281 0.0
C660 C 0.78757 0.91318 0.80917 0.0
H661 H 0.75606 0.87372 0.65906 0.0
H662 H 0.76274 0.88104 0.73568 0.0
H663 H 0.74785 0.8831 0.70076 0.0
H664 H 0.75206 0.90481 0.76549 0.0
H665 H 0.74775 0.90051 0.87713 0.0
H666 H 0.15499 0.90498 0.87751 0.0
H667 H 0.15089 0.90321 0.76573 0.0
H668 H 0.1121 0.85859 0.78792 0.0
H669 H 0.11618 0.86021 0.9 0.0
H670 H 0.14899 0.88176 0.67698 0.0
H671 H 0.09516 0.88281 0.69884 0.0
H672 H 0.10844 0.8878 0.76191 0.0
H673 H 0.09587 0.86825 0.74317 0.0
C674 C 0.14574 0.89467 0.85867 0.0
C675 C 0.13583 0.88277 0.89777 0.0
C676 C 0.14338 0.89372 0.79478 0.0
C677 C 0.13105 0.88089 0.7689 0.0
C678 C 0.1215 0.86872 0.80732 0.0
H679 H 0.09309 0.855 0.40378 0.0
H680 H 0.09954 0.85648 0.51315 0.0
C681 C 0.12384 0.86967 0.87126 0.0
C682 C 0.12791 0.88047 0.70193 0.0
H683 H 0.10164 0.87851 0.59864 0.0
C684 C 0.13867 0.8811 0.65969 0.0
C685 C 0.11448 0.87971 0.67983 0.0
C686 C 0.10287 0.87974 0.72317 0.0
C687 C 0.13617 0.88061 0.5956 0.0
C688 C 0.12266 0.8797 0.57361 0.0
C689 C 0.11197 0.87918 0.61587 0.0
C690 C 0.11917 0.87889 0.50688 0.0
C691 C 0.14778 0.8807 0.55198 0.0
C692 C 0.12803 0.89108 0.4673 0.0
C693 C 0.1243 0.89033 0.40459 0.0
C694 C 0.1116 0.87741 0.38065 0.0
C695 C 0.10278 0.86523 0.4207 0.0
C696 C 0.10651 0.866 0.48321 0.0
H697 H 0.15587 0.87815 0.57633 0.0
H698 H 0.14219 0.87232 0.51428 0.0
H699 H 0.15435 0.89207 0.53048 0.0
H700 H 0.1377 0.90125 0.48509 0.0
H701 H 0.1312 0.89994 0.37508 0.0
H702 H 0.26515 0.15154 0.62215 0.0
H703 H 0.26974 0.15719 0.51167 0.0
H704 H 0.22192 0.1397 0.48266 0.0
H705 H 0.21728 0.1337 0.59312 0.0
H706 H 0.23231 0.1266 0.40816 0.0
H707 H 0.27108 0.18845 0.39461 0.0
H708 H 0.27808 0.17957 0.44635 0.0
H709 H 0.26064 0.17925 0.46408 0.0
C710 C 0.25568 0.14928 0.59245 0.0
C711 C 0.24084 0.14212 0.616 0.0
C712 C 0.25832 0.15258 0.52932 0.0
C713 C 0.24619 0.14904 0.4889 0.0
C714 C 0.23145 0.14256 0.513 0.0
H715 H 0.25558 0.16337 0.08645 0.0
H716 H 0.25053 0.16524 0.19618 0.0
C717 C 0.22879 0.13909 0.57593 0.0
C718 C 0.24861 0.15024 0.42095 0.0
H719 H 0.27046 0.17396 0.30506 0.0
C720 C 0.24049 0.13703 0.3856 0.0
C721 C 0.25921 0.16386 0.39132 0.0
C722 C 0.26763 0.17861 0.42602 0.0
C723 C 0.24307 0.13692 0.322 0.0
C724 C 0.2543 0.15029 0.29318 0.0
C725 C 0.26201 0.16368 0.32768 0.0
C726 C 0.25848 0.15028 0.2277 0.0
C727 C 0.23386 0.12243 0.28622 0.0
C728 C 0.26495 0.14155 0.20964 0.0
C729 C 0.26776 0.14039 0.14729 0.0
C730 C 0.26419 0.14798 0.10171 0.0
C731 C 0.25823 0.1572 0.12031 0.0
C732 C 0.25544 0.15837 0.1829 0.0
H733 H 0.22323 0.11451 0.3109 0.0
H734 H 0.23091 0.12477 0.23953 0.0
H735 H 0.24061 0.11671 0.28026 0.0
H736 H 0.26751 0.13535 0.24378 0.0
H737 H 0.27222 0.1331 0.13479 0.0
H738 H 0.89165 0.13026 0.60602 0.0
H739 H 0.88784 0.13447 0.49783 0.0
H740 H 0.87319 0.08778 0.45678 0.0
H741 H 0.87636 0.08329 0.56529 0.0
H742 H 0.90275 0.13113 0.39946 0.0
H743 H 0.84083 0.09356 0.37136 0.0
H744 H 0.84981 0.09904 0.44635 0.0
H745 H 0.85009 0.08406 0.40354 0.0
C746 C 0.88732 0.12079 0.57441 0.0
C747 C 0.88431 0.10641 0.59455 0.0
C748 C 0.88521 0.12324 0.51247 0.0
C749 C 0.88001 0.11138 0.46954 0.0
C750 C 0.87689 0.09701 0.48943 0.0
H751 H 0.87795 0.10188 0.07623 0.0
H752 H 0.8746 0.09821 0.18812 0.0
C753 C 0.87895 0.09452 0.55137 0.0
C754 C 0.87906 0.11432 0.40305 0.0
H755 H 0.85541 0.10243 0.27792 0.0
C756 C 0.89235 0.12502 0.37303 0.0
C757 C 0.86548 0.10628 0.36879 0.0
C758 C 0.85071 0.09519 0.39925 0.0
C759 C 0.89258 0.12752 0.30914 0.0
C760 C 0.87909 0.11924 0.27463 0.0
C761 C 0.86571 0.10874 0.30471 0.0
C762 C 0.87897 0.12088 0.20672 0.0
C763 C 0.90738 0.13858 0.27864 0.0
C764 C 0.88199 0.13467 0.1802 0.0
C765 C 0.88387 0.13679 0.11624 0.0
C766 C 0.88272 0.12514 0.07777 0.0
C767 C 0.87881 0.11105 0.10434 0.0
C768 C 0.87695 0.10894 0.16832 0.0
H769 H 0.91723 0.1418 0.30964 0.0
H770 H 0.90908 0.13374 0.23539 0.0
H771 H 0.90714 0.14903 0.26623 0.0
H772 H 0.88335 0.14393 0.20919 0.0
H773 H 0.88658 0.14767 0.09703 0.0
H774 H 0.90749 0.74159 0.10697 0.0
H775 H 0.91166 0.74602 0.21856 0.0
H776 H 0.92198 0.79215 0.19274 0.0
H777 H 0.91791 0.78784 0.08142 0.0
H778 H 0.9408 0.78901 0.28031 0.0
H779 H 0.87962 0.74893 0.32309 0.0
H780 H 0.88951 0.74115 0.28214 0.0
H781 H 0.88707 0.75575 0.24668 0.0
C782 C 0.91074 0.75269 0.12512 0.0
C783 C 0.9122 0.76431 0.08555 0.0
C784 C 0.91314 0.75521 0.18874 0.0
C785 C 0.91687 0.76933 0.21385 0.0
C786 C 0.9191 0.78117 0.17417 0.0
H787 H 0.89792 0.79245 0.56737 0.0
H788 H 0.90081 0.78821 0.45872 0.0
C789 C 0.9168 0.77869 0.11053 0.0
C790 C 0.91735 0.77152 0.28166 0.0
H791 H 0.89488 0.76048 0.41023 0.0
C792 C 0.93082 0.78271 0.30896 0.0
C793 C 0.90422 0.76339 0.31853 0.0
C794 C 0.88924 0.75172 0.29125 0.0
C795 C 0.93146 0.78613 0.37227 0.0
C796 C 0.91831 0.778 0.40896 0.0
C797 C 0.90495 0.76663 0.38184 0.0
C798 C 0.91775 0.78171 0.47471 0.0
C799 C 0.94597 0.79874 0.39895 0.0
C800 C 0.92646 0.7796 0.51972 0.0
C801 C 0.92496 0.78218 0.58225 0.0
C802 C 0.91464 0.78681 0.60075 0.0
C803 C 0.90615 0.78913 0.55509 0.0
C804 C 0.90769 0.78659 0.49283 0.0
H805 H 0.95409 0.80579 0.36221 0.0
H806 H 0.94363 0.80615 0.42907 0.0
H807 H 0.95146 0.79381 0.42778 0.0
H808 H 0.93416 0.77563 0.5067 0.0
H809 H 0.93178 0.78042 0.61604 0.0
H810 H 0.79672 0.59206 0.21071 0.0
H811 H 0.80175 0.59015 0.10198 0.0
H812 H 0.84049 0.58598 0.15246 0.0
H813 H 0.83548 0.58789 0.26226 0.0
H814 H 0.82693 0.60738 0.02743 0.0
H815 H 0.81464 0.54786 0.0498 0.0
H816 H 0.81009 0.55713 0.11023 0.0
H817 H 0.82936 0.56164 0.09857 0.0
C818 C 0.80646 0.59099 0.19896 0.0
C819 C 0.81568 0.59008 0.24534 0.0
C820 C 0.8093 0.58984 0.13664 0.0
C821 C 0.82139 0.58777 0.11918 0.0
C822 C 0.83093 0.58732 0.16505 0.0
H823 H 0.83365 0.58512 0.71374 0.0
H824 H 0.84053 0.59209 0.82254 0.0
C825 C 0.82805 0.5884 0.22769 0.0
C826 C 0.82336 0.58542 0.05291 0.0
H827 H 0.81878 0.55811 0.94981 0.0
C828 C 0.82541 0.59671 0.01032 0.0
C829 C 0.8213 0.57145 0.03097 0.0
C830 C 0.81862 0.55875 0.07452 0.0
C831 C 0.82469 0.59414 0.94624 0.0
C832 C 0.82209 0.57997 0.92437 0.0
C833 C 0.82083 0.56898 0.9669 0.0
C834 C 0.81857 0.57557 0.85853 0.0
C835 C 0.82576 0.60622 0.90264 0.0
C836 C 0.80408 0.5638 0.84295 0.0
C837 C 0.80014 0.5598 0.78124 0.0
C838 C 0.81062 0.56747 0.73354 0.0
C839 C 0.82525 0.57913 0.74929 0.0
C840 C 0.82921 0.58312 0.81137 0.0
H841 H 0.82539 0.61556 0.92755 0.0
H842 H 0.8366 0.61111 0.8767 0.0
H843 H 0.81637 0.60131 0.86845 0.0
H844 H 0.79567 0.55788 0.87863 0.0
H845 H 0.78872 0.55095 0.771 0.0
H846 H 0.45408 0.25036 0.23317 0.0
H847 H 0.45603 0.25539 0.12203 0.0
H848 H 0.40919 0.22094 0.09911 0.0
H849 H 0.40728 0.21573 0.21044 0.0
H850 H 0.42712 0.21626 0.02478 0.0
H851 H 0.4419 0.27611 0.00235 0.0
H852 H 0.45431 0.27398 0.05517 0.0
H853 H 0.43445 0.26549 0.07317 0.0
C854 C 0.44409 0.24417 0.20474 0.0
C855 C 0.43054 0.2326 0.23036 0.0
C856 C 0.44519 0.24709 0.14117 0.0
C857 C 0.4327 0.23867 0.10229 0.0
C858 C 0.41896 0.22761 0.12829 0.0
H859 H 0.43824 0.25156 0.69837 0.0
H860 H 0.43074 0.25049 0.80685 0.0
C861 C 0.41789 0.22459 0.19174 0.0
C862 C 0.43457 0.24001 0.03412 0.0
H863 H 0.44824 0.26547 0.915 0.0
C864 C 0.4315 0.22699 0.00071 0.0
C865 C 0.44014 0.25397 0.00252 0.0
C866 C 0.44273 0.26814 0.03511 0.0
C867 C 0.4345 0.22766 0.93718 0.0
C868 C 0.44105 0.24179 0.9065 0.0
C869 C 0.44344 0.2547 0.93901 0.0
C870 C 0.44613 0.24336 0.84144 0.0
C871 C 0.4308 0.21324 0.90358 0.0
C872 C 0.4575 0.24006 0.82543 0.0
C873 C 0.46171 0.24052 0.76371 0.0
C874 C 0.4547 0.2444 0.71664 0.0
C875 C 0.44368 0.24826 0.73322 0.0
C876 C 0.43945 0.24777 0.79518 0.0
H877 H 0.42205 0.20309 0.92861 0.0
H878 H 0.42668 0.2132 0.85591 0.0
H879 H 0.44118 0.21231 0.90026 0.0
H880 H 0.46295 0.23687 0.86071 0.0
H881 H 0.47014 0.23737 0.75293 0.0
H882 H 0.80258 0.21291 0.69931 0.0
H883 H 0.80491 0.20921 0.80956 0.0
H884 H 0.7584 0.1975 0.83783 0.0
H885 H 0.75589 0.201 0.72732 0.0
H886 H 0.77845 0.21931 0.91915 0.0
H887 H 0.78784 0.17023 0.9122 0.0
H888 H 0.80032 0.18552 0.86232 0.0
H889 H 0.78029 0.17554 0.84726 0.0
C890 C 0.79275 0.20929 0.7286 0.0
C891 C 0.77904 0.20725 0.70425 0.0
C892 C 0.7941 0.20715 0.79169 0.0
C893 C 0.78176 0.20285 0.83165 0.0
C894 C 0.76804 0.20074 0.80763 0.0
H895 H 0.78014 0.18388 0.22952 0.0
H896 H 0.77381 0.18125 0.11876 0.0
C897 C 0.76667 0.20287 0.74453 0.0
C898 C 0.78351 0.20161 0.89912 0.0
H899 H 0.79372 0.18396 0.00778 0.0
C900 C 0.78162 0.21146 0.93859 0.0
C901 C 0.78751 0.19126 0.92438 0.0
C902 C 0.78897 0.17993 0.88446 0.0
C903 C 0.78419 0.21165 0.00242 0.0
C904 C 0.7889 0.20182 0.02722 0.0
C905 C 0.79023 0.19155 0.98831 0.0
C906 C 0.79319 0.2027 0.09306 0.0
C907 C 0.78207 0.2225 0.04293 0.0
C908 C 0.80632 0.21545 0.11459 0.0
C909 C 0.80995 0.21698 0.17741 0.0
C910 C 0.80049 0.20577 0.22006 0.0
C911 C 0.78756 0.19276 0.19793 0.0
C912 C 0.78397 0.1912 0.13479 0.0
H913 H 0.77533 0.22688 0.01937 0.0
H914 H 0.77633 0.21694 0.08694 0.0
H915 H 0.79332 0.23227 0.05461 0.0
H916 H 0.8136 0.22439 0.08285 0.0
H917 H 0.81987 0.22724 0.19268 0.0
H918 H 0.89015 0.47967 0.91351 0.0
H919 H 0.89592 0.48177 0.80291 0.0
H920 H 0.92887 0.4678 0.83596 0.0
H921 H 0.92298 0.4653 0.94633 0.0
H922 H 0.93842 0.49455 0.75444 0.0
H923 H 0.88368 0.44397 0.68869 0.0
H924 H 0.88257 0.45781 0.7366 0.0
H925 H 0.89087 0.44721 0.76697 0.0
C926 C 0.89851 0.47689 0.89741 0.0
C927 C 0.90601 0.47222 0.93915 0.0
C928 C 0.90185 0.47819 0.83417 0.0
C929 C 0.91275 0.47486 0.81147 0.0
C930 C 0.92045 0.47046 0.8528 0.0
H931 H 0.92886 0.45296 0.44743 0.0
H932 H 0.92563 0.45505 0.55807 0.0
C933 C 0.91709 0.46909 0.916 0.0
C934 C 0.91586 0.47557 0.74434 0.0
H935 H 0.90041 0.45781 0.60762 0.0
C936 C 0.93012 0.48658 0.72216 0.0
C937 C 0.905 0.46506 0.70274 0.0
C938 C 0.88969 0.45275 0.72468 0.0
C939 C 0.9338 0.48736 0.65906 0.0
C940 C 0.92293 0.47685 0.61754 0.0
C941 C 0.90867 0.46588 0.63975 0.0
C942 C 0.92629 0.47653 0.55116 0.0
C943 C 0.94937 0.49911 0.63733 0.0
C944 C 0.92789 0.48802 0.51077 0.0
C945 C 0.9298 0.4869 0.44718 0.0
C946 C 0.93015 0.47425 0.42312 0.0
C947 C 0.92892 0.46297 0.46425 0.0
C948 C 0.92694 0.46408 0.52755 0.0
H949 H 0.9572 0.5049 0.6766 0.0
H950 H 0.95432 0.49384 0.60737 0.0
H951 H 0.94848 0.50777 0.60929 0.0
H952 H 0.92726 0.49765 0.52819 0.0
H953 H 0.9308 0.4958 0.41677 0.0
H954 H 0.57699 0.45945 0.92131 0.0
H955 H 0.56937 0.45627 0.81302 0.0
H956 H 0.52448 0.42105 0.86325 0.0
H957 H 0.53214 0.42384 0.97233 0.0
H958 H 0.53747 0.41492 0.75455 0.0
H959 H 0.54053 0.47074 0.74545 0.0
H960 H 0.55736 0.47156 0.77562 0.0
H961 H 0.53981 0.46135 0.81741 0.0
C962 C 0.56557 0.45084 0.90958 0.0
C963 C 0.55516 0.44195 0.95575 0.0
C964 C 0.56119 0.44915 0.84761 0.0
C965 C 0.54632 0.43861 0.83046 0.0
C966 C 0.53599 0.42934 0.87583 0.0
H967 H 0.51703 0.44761 0.46124 0.0
H968 H 0.51654 0.44268 0.5724 0.0
C969 C 0.54036 0.43102 0.93808 0.0
C970 C 0.54161 0.43767 0.76512 0.0
H971 H 0.53962 0.45915 0.64846 0.0
C972 C 0.53774 0.42449 0.73132 0.0
C973 C 0.5417 0.45008 0.73545 0.0
C974 C 0.54493 0.46418 0.77042 0.0
C975 C 0.53467 0.42369 0.66757 0.0
C976 C 0.53575 0.43649 0.63708 0.0
C977 C 0.53891 0.44938 0.67171 0.0
C978 C 0.53453 0.43724 0.56894 0.0
C979 C 0.53038 0.40919 0.63351 0.0
C980 C 0.54466 0.43562 0.52998 0.0
C981 C 0.54493 0.4384 0.46648 0.0
C982 C 0.53522 0.44307 0.44099 0.0
C983 C 0.52476 0.4442 0.47977 0.0
C984 C 0.52441 0.44131 0.54315 0.0
H985 H 0.52521 0.39929 0.66528 0.0
H986 H 0.5223 0.40725 0.59535 0.0
H987 H 0.54073 0.40989 0.61333 0.0
H988 H 0.55285 0.43289 0.54901 0.0
H989 H 0.55326 0.43765 0.43797 0.0
H990 H 0.58302 0.08617 0.41709 0.0
H991 H 0.58858 0.08736 0.52818 0.0
H992 H 0.5504 0.09334 0.56781 0.0
H993 H 0.54476 0.09208 0.45783 0.0
H994 H 0.59606 0.11037 0.60728 0.0
H995 H 0.54345 0.06058 0.68968 0.0
H996 H 0.54854 0.0637 0.60874 0.0
H997 H 0.53931 0.07289 0.6448 0.0
C998 C 0.57576 0.08762 0.44962 0.0
C999 C 0.56336 0.08887 0.42857 0.0
C1000 C 0.57891 0.08824 0.51302 0.0
C1001 C 0.56971 0.09011 0.55644 0.0
C1002 C 0.55736 0.09139 0.53544 0.0
H1003 H 0.5898 0.1327 0.9096 0.0
H1004 H 0.58708 0.12577 0.8003 0.0
C1005 C 0.55416 0.09068 0.47234 0.0
C1006 C 0.57349 0.0918 0.62338 0.0
H1007 H 0.55771 0.07973 0.76635 0.0
C1008 C 0.58776 0.10351 0.64209 0.0
C1009 C 0.5628 0.08266 0.66886 0.0
C1010 C 0.54774 0.06915 0.65195 0.0
C1011 C 0.59131 0.10688 0.70499 0.0
C1012 C 0.58014 0.09856 0.75026 0.0
C1013 C 0.56619 0.08629 0.73166 0.0
C1014 C 0.58235 0.10286 0.81669 0.0
C1015 C 0.60696 0.11938 0.72214 0.0
C1016 C 0.58014 0.09216 0.86255 0.0
C1017 C 0.58148 0.09605 0.92525 0.0
C1018 C 0.58509 0.11073 0.94321 0.0
C1019 C 0.5873 0.1214 0.8972 0.0
C1020 C 0.58581 0.11747 0.83465 0.0
H1021 H 0.61541 0.12083 0.68624 0.0
H1022 H 0.6069 0.1302 0.72555 0.0
H1023 H 0.61067 0.11711 0.76732 0.0
H1024 H 0.57735 0.08078 0.84981 0.0
H1025 H 0.57984 0.08763 0.95964 0.0
H1026 H 0.4821 0.942 0.55068 0.0
H1027 H 0.48613 0.93935 0.44067 0.0
H1028 H 0.49234 0.90147 0.48309 0.0
H1029 H 0.48799 0.90377 0.59262 0.0
H1030 H 0.51084 0.93714 0.37143 0.0
H1031 H 0.45376 0.88539 0.36825 0.0
H1032 H 0.45974 0.89921 0.42956 0.0
H1033 H 0.46673 0.88618 0.42666 0.0
C1034 C 0.48446 0.9332 0.53664 0.0
C1035 C 0.48452 0.92298 0.58036 0.0
C1036 C 0.48689 0.93179 0.47395 0.0
C1037 C 0.48938 0.92014 0.45405 0.0
C1038 C 0.49036 0.9105 0.49779 0.0
H1039 H 0.47862 0.88083 0.08917 0.0
H1040 H 0.48473 0.887 0.19868 0.0
C1041 C 0.48795 0.91189 0.56045 0.0
C1042 C 0.48932 0.91707 0.38729 0.0
H1043 H 0.46745 0.89227 0.2752 0.0
C1044 C 0.50143 0.92731 0.35017 0.0
C1045 C 0.47698 0.90424 0.36013 0.0
C1046 C 0.46348 0.89314 0.39789 0.0
C1047 C 0.50155 0.92497 0.2861 0.0
C1048 C 0.48907 0.91224 0.25876 0.0
C1049 C 0.47705 0.90197 0.29628 0.0
C1050 C 0.48773 0.90952 0.19111 0.0
C1051 C 0.51508 0.93603 0.24858 0.0
C1052 C 0.48764 0.92021 0.15035 0.0
C1053 C 0.48425 0.91673 0.08774 0.0
C1054 C 0.48063 0.90239 0.06516 0.0
C1055 C 0.4812 0.89189 0.10562 0.0
C1056 C 0.48475 0.89544 0.16799 0.0
H1057 H 0.52538 0.94203 0.27789 0.0
H1058 H 0.51746 0.93026 0.21027 0.0
H1059 H 0.51276 0.94467 0.2282 0.0
H1060 H 0.48949 0.93099 0.1674 0.0
H1061 H 0.4837 0.92495 0.05774 0.0
H1062 H 0.1144 0.59459 0.58214 0.0
H1063 H 0.11954 0.6007 0.47184 0.0
H1064 H 0.08866 0.55403 0.42573 0.0
H1065 H 0.08345 0.54789 0.53526 0.0
H1066 H 0.1319 0.59001 0.39058 0.0
H1067 H 0.07491 0.57541 0.30747 0.0
H1068 H 0.07978 0.57762 0.38869 0.0
H1069 H 0.07441 0.56003 0.34983 0.0
C1070 C 0.10865 0.58565 0.54845 0.0
C1071 C 0.09846 0.57075 0.56761 0.0
C1072 C 0.11154 0.58917 0.48543 0.0
C1073 C 0.10426 0.57788 0.44038 0.0
C1074 C 0.09406 0.56303 0.45943 0.0
H1075 H 0.13147 0.56463 0.08807 0.0
H1076 H 0.12738 0.56757 0.19675 0.0
C1077 C 0.09111 0.55952 0.52225 0.0
C1078 C 0.10811 0.58125 0.37376 0.0
H1079 H 0.09222 0.57575 0.23 0.0
C1080 C 0.12326 0.58713 0.35554 0.0
C1081 C 0.0969 0.57779 0.32794 0.0
C1082 C 0.08062 0.57252 0.34453 0.0
C1083 C 0.12734 0.58877 0.29274 0.0
C1084 C 0.11593 0.5841 0.24696 0.0
C1085 C 0.10094 0.57912 0.26511 0.0
C1086 C 0.11912 0.58314 0.18057 0.0
C1087 C 0.14382 0.59526 0.27609 0.0
C1088 C 0.11553 0.59067 0.13489 0.0
C1089 C 0.11787 0.589 0.07213 0.0
C1090 C 0.12374 0.57968 0.05393 0.0
C1091 C 0.1273 0.57219 0.10008 0.0
C1092 C 0.12496 0.57385 0.16252 0.0
H1093 H 0.15134 0.6028 0.31325 0.0
H1094 H 0.14628 0.58588 0.27035 0.0
H1095 H 0.14664 0.60177 0.23209 0.0
H1096 H 0.1109 0.5978 0.14781 0.0
H1097 H 0.11509 0.595 0.03797 0.0
H1098 H 0.48747 0.54856 0.53912 0.0
H1099 H 0.48193 0.54564 0.42811 0.0
H1100 H 0.43517 0.53144 0.46649 0.0
H1101 H 0.44065 0.53489 0.57685 0.0
H1102 H 0.46066 0.52121 0.35276 0.0
H1103 H 0.44979 0.56948 0.35842 0.0
H1104 H 0.4587 0.56531 0.42167 0.0
H1105 H 0.43852 0.55441 0.41143 0.0
C1106 C 0.476 0.54477 0.52399 0.0
C1107 C 0.46459 0.5422 0.56705 0.0
C1108 C 0.47284 0.543 0.46062 0.0
C1109 C 0.45822 0.53861 0.4393 0.0
C1110 C 0.44659 0.53509 0.48215 0.0
H1111 H 0.42216 0.53739 0.07415 0.0
H1112 H 0.42511 0.53382 0.18417 0.0
C1113 C 0.44974 0.53692 0.54542 0.0
C1114 C 0.45536 0.53876 0.3723 0.0
H1115 H 0.44549 0.55656 0.26347 0.0
C1116 C 0.45733 0.52891 0.33309 0.0
C1117 C 0.4511 0.54889 0.34701 0.0
C1118 C 0.44952 0.56023 0.38661 0.0
C1119 C 0.45494 0.52881 0.269 0.0
C1120 C 0.4507 0.53896 0.24383 0.0
C1121 C 0.44866 0.54874 0.28313 0.0
C1122 C 0.4487 0.54003 0.1766 0.0
C1123 C 0.4568 0.51774 0.22888 0.0
C1124 C 0.46102 0.54479 0.13614 0.0
C1125 C 0.45941 0.54696 0.07335 0.0
C1126 C 0.44546 0.5445 0.05001 0.0
C1127 C 0.4331 0.53959 0.09073 0.0
C1128 C 0.43473 0.53742 0.15348 0.0
H1129 H 0.45617 0.50824 0.25649 0.0
H1130 H 0.44799 0.51304 0.1922 0.0
H1131 H 0.46805 0.52369 0.20599 0.0
H1132 H 0.47199 0.54722 0.15342 0.0
H1133 H 0.46921 0.55098 0.04357 0.0
H1134 H 0.57829 0.82565 0.3026 0.0
H1135 H 0.58162 0.83286 0.19284 0.0
H1136 H 0.5698 0.78737 0.14253 0.0
H1137 H 0.5666 0.78014 0.2511 0.0
H1138 H 0.60153 0.83195 0.10908 0.0
H1139 H 0.54276 0.79527 0.0285 0.0
H1140 H 0.54752 0.79923 0.10947 0.0
H1141 H 0.54954 0.78469 0.07085 0.0
C1142 C 0.57636 0.81718 0.26814 0.0
C1143 C 0.57204 0.80227 0.28587 0.0
C1144 C 0.57819 0.8213 0.20546 0.0
C1145 C 0.57563 0.81056 0.15946 0.0
C1146 C 0.57138 0.79573 0.17707 0.0
H1147 H 0.61212 0.81362 0.8065 0.0
H1148 H 0.60667 0.8145 0.91562 0.0
C1149 C 0.56956 0.79161 0.23941 0.0
C1150 C 0.57829 0.81488 0.0931 0.0
H1151 H 0.56227 0.80349 0.95022 0.0
C1152 C 0.59287 0.82594 0.07436 0.0
C1153 C 0.56692 0.80726 0.04784 0.0
C1154 C 0.55077 0.79607 0.06524 0.0
C1155 C 0.59666 0.82883 0.01136 0.0
C1156 C 0.58564 0.82023 0.96608 0.0
C1157 C 0.57079 0.80993 0.98488 0.0
C1158 C 0.58955 0.8208 0.89957 0.0
C1159 C 0.6125 0.8409 0.99401 0.0
C1160 C 0.58151 0.82371 0.85391 0.0
C1161 C 0.58457 0.82313 0.79106 0.0
C1162 C 0.59567 0.81955 0.77277 0.0
C1163 C 0.60373 0.81673 0.81877 0.0
C1164 C 0.60065 0.81727 0.88137 0.0
H1165 H 0.61761 0.84971 0.03054 0.0
H1166 H 0.61973 0.83566 0.98905 0.0
H1167 H 0.61264 0.84644 0.9495 0.0
H1168 H 0.57281 0.82634 0.86691 0.0
H1169 H 0.57824 0.82548 0.75686 0.0
H1170 H 0.19955 0.75868 0.29509 0.0
H1171 H 0.19262 0.75687 0.18557 0.0
H1172 H 0.23889 0.78937 0.13951 0.0
H1173 H 0.2458 0.7917 0.24833 0.0
H1174 H 0.21774 0.79628 0.09081 0.0
H1175 H 0.20227 0.73678 0.04031 0.0
H1176 H 0.19303 0.73953 0.10586 0.0
H1177 H 0.21311 0.74681 0.10774 0.0
C1178 C 0.20826 0.76543 0.26169 0.0
C1179 C 0.22324 0.77536 0.28083 0.0
C1180 C 0.2043 0.76425 0.19904 0.0
C1181 C 0.21528 0.77289 0.15449 0.0
C1182 C 0.23027 0.78255 0.17322 0.0
H1183 H 0.22098 0.77314 0.76054 0.0
H1184 H 0.22137 0.76912 0.87182 0.0
C1185 C 0.23422 0.78376 0.23561 0.0
C1186 C 0.21117 0.77268 0.08862 0.0
H1187 H 0.19924 0.75061 0.95907 0.0
C1188 C 0.21359 0.78628 0.06202 0.0
C1189 C 0.20585 0.75962 0.05137 0.0
C1190 C 0.2035 0.74486 0.0774 0.0
C1191 C 0.21116 0.78728 -0.00125 0.0
C1192 C 0.20586 0.77422 0.96134 0.0
C1193 C 0.20318 0.76054 0.9881 0.0
C1194 C 0.20416 0.77493 0.89354 0.0
C1195 C 0.21489 0.80245 0.97209 0.0
C1196 C 0.19402 0.77909 0.86874 0.0
C1197 C 0.1938 0.78143 0.80506 0.0
C1198 C 0.2036 0.7795 0.76508 0.0
C1199 C 0.21319 0.7746 0.78987 0.0
C1200 C 0.21346 0.77233 0.85353 0.0
H1201 H 0.22191 0.8119 0.00423 0.0
H1202 H 0.22106 0.80456 0.92749 0.0
H1203 H 0.20422 0.80257 0.96318 0.0
H1204 H 0.18654 0.78086 0.89881 0.0
H1205 H 0.18609 0.78493 0.78717 0.0
H1206 H 0.20973 0.40886 0.79462 0.0
H1207 H 0.21526 0.41162 0.90562 0.0
H1208 H 0.26167 0.44515 0.86723 0.0
H1209 H 0.25618 0.44298 0.75685 0.0
H1210 H 0.23692 0.40927 0.98165 0.0
H1211 H 0.24594 0.46771 0.97421 0.0
H1212 H 0.23739 0.45454 0.91112 0.0
H1213 H 0.25758 0.46432 0.9217 0.0
C1214 C 0.22113 0.41679 0.80973 0.0
C1215 C 0.23242 0.42586 0.76665 0.0
C1216 C 0.22428 0.41826 0.87312 0.0
C1217 C 0.23878 0.4288 0.89444 0.0
C1218 C 0.25033 0.43713 0.85157 0.0
H1219 H 0.274 0.46436 0.25933 0.0
H1220 H 0.27129 0.45778 0.1495 0.0
C1221 C 0.24718 0.43574 0.78828 0.0
C1222 C 0.24154 0.43187 0.96143 0.0
H1223 H 0.25054 0.45943 0.06956 0.0
C1224 C 0.23991 0.42022 0.00102 0.0
C1225 C 0.24537 0.44617 0.98633 0.0
C1226 C 0.24655 0.45888 0.94634 0.0
C1227 C 0.24221 0.42258 0.0651 0.0
C1228 C 0.24601 0.43687 0.08988 0.0
C1229 C 0.24771 0.44851 0.05021 0.0
C1230 C 0.2479 0.43999 0.15706 0.0
C1231 C 0.24072 0.40984 0.10565 0.0
C1232 C 0.23561 0.43221 0.19747 0.0
C1233 C 0.23708 0.43602 0.26017 0.0
C1234 C 0.25086 0.44776 0.28347 0.0
C1235 C 0.26319 0.45542 0.2428 0.0
C1236 C 0.2617 0.4516 0.18014 0.0
H1237 H 0.24167 0.40112 0.07839 0.0
H1238 H 0.24951 0.41416 0.14242 0.0
H1239 H 0.22944 0.4043 0.1284 0.0
H1240 H 0.22475 0.42346 0.18021 0.0
H1241 H 0.2273 0.43005 0.28991 0.0
H1242 H 0.20559 0.38483 0.50808 0.0
H1243 H 0.20124 0.36146 0.45952 0.0
H1244 H 0.24575 0.38512 0.37729 0.0
H1245 H 0.25022 0.4088 0.42667 0.0
H1246 H 0.22211 0.36889 0.29207 0.0
H1247 H 0.21686 0.33197 0.48907 0.0
H1248 H 0.20593 0.34114 0.50113 0.0
H1249 H 0.22626 0.35235 0.49566 0.0
C1250 C 0.21461 0.38502 0.48083 0.0
C1251 C 0.22826 0.39863 0.47128 0.0
C1252 C 0.21215 0.3716 0.45341 0.0
C1253 C 0.22323 0.37144 0.41542 0.0
C1254 C 0.2371 0.38494 0.40707 0.0
H1255 H 0.18971 0.28193 0.23384 0.0
H1256 H 0.20837 0.30576 0.28414 0.0
C1257 C 0.23968 0.39843 0.43543 0.0
C1258 C 0.21932 0.35753 0.37936 0.0
H1259 H 0.20276 0.31917 0.39607 0.0
C1260 C 0.21829 0.35807 0.31466 0.0
C1261 C 0.21445 0.34339 0.40856 0.0
C1262 C 0.21608 0.34218 0.47741 0.0
C1263 C 0.21133 0.34475 0.27919 0.0
C1264 C 0.20516 0.33054 0.30918 0.0
C1265 C 0.20737 0.33005 0.37311 0.0
C1266 C 0.1945 0.31628 0.27678 0.0
C1267 C 0.20993 0.34594 0.21015 0.0
C1268 C 0.18051 0.31425 0.25678 0.0
C1269 C 0.16989 0.30074 0.22899 0.0
C1270 C 0.17297 0.28887 0.22016 0.0
C1271 C 0.18705 0.2909 0.23969 0.0
C1272 C 0.19769 0.30447 0.26844 0.0
H1273 H 0.21888 0.35707 0.19214 0.0
H1274 H 0.21067 0.33679 0.18544 0.0
H1275 H 0.19877 0.34486 0.19957 0.0
H1276 H 0.1777 0.32309 0.26363 0.0
H1277 H 0.15919 0.29962 0.21446 0.0
H1278 H 0.7378 0.86861 0.28534 0.0
H1279 H 0.71362 0.86322 0.32935 0.0
H1280 H 0.71753 0.90288 0.2401 0.0
H1281 H 0.742 0.90839 0.19512 0.0
H1282 H 0.70557 0.88112 0.40615 0.0
H1283 H 0.67653 0.86699 0.17694 0.0
H1284 H 0.69469 0.86824 0.18791 0.0
H1285 H 0.69339 0.88514 0.18585 0.0
C1286 C 0.73363 0.87629 0.27519 0.0
C1287 C 0.74179 0.88887 0.23621 0.0
C1288 C 0.71979 0.87321 0.3007 0.0
C1289 C 0.71368 0.88254 0.28761 0.0
C1290 C 0.72198 0.89543 0.2503 0.0
H1291 H 0.62541 0.85159 0.4788 0.0
H1292 H 0.65018 0.87001 0.43438 0.0
C1293 C 0.73598 0.89861 0.22491 0.0
C1294 C 0.69828 0.87805 0.31115 0.0
H1295 H 0.66124 0.86075 0.26535 0.0
C1296 C 0.69588 0.87701 0.37546 0.0
C1297 C 0.68566 0.87259 0.27094 0.0
C1298 C 0.68756 0.87317 0.20152 0.0
C1299 C 0.68117 0.86989 0.40061 0.0
C1300 C 0.66853 0.86375 0.36034 0.0
C1301 C 0.67096 0.86556 0.2961 0.0
C1302 C 0.65295 0.85329 0.38334 0.0
C1303 C 0.67923 0.86803 0.46992 0.0
C1304 C 0.64613 0.83792 0.36803 0.0
C1305 C 0.63214 0.82748 0.39321 0.0
C1306 C 0.62452 0.83214 0.43408 0.0
C1307 C 0.63102 0.84765 0.44749 0.0
C1308 C 0.64518 0.85816 0.42244 0.0
H1309 H 0.6902 0.87209 0.49431 0.0
H1310 H 0.67395 0.87456 0.48724 0.0
H1311 H 0.67159 0.85595 0.48199 0.0
H1312 H 0.65188 0.83389 0.33797 0.0
H1313 H 0.62742 0.81564 0.38141 0.0
H1314 H 0.20896 0.81787 0.38272 0.0
H1315 H 0.19078 0.82259 0.32864 0.0
H1316 H 0.15408 0.78045 0.39732 0.0
H1317 H 0.17243 0.77557 0.45251 0.0
H1318 H 0.1684 0.80398 0.23705 0.0
H1319 H 0.14325 0.81362 0.4495 0.0
H1320 H 0.16133 0.81436 0.45144 0.0
H1321 H 0.14423 0.79651 0.44342 0.0
C1322 C 0.19704 0.80952 0.38651 0.0
C1323 C 0.19216 0.79637 0.4224 0.0
C1324 C 0.18665 0.81224 0.35526 0.0
C1325 C 0.17107 0.80196 0.35925 0.0
C1326 C 0.16606 0.78863 0.39411 0.0
H1327 H 0.11144 0.83505 0.20813 0.0
H1328 H 0.11747 0.81591 0.24768 0.0
C1329 C 0.17654 0.78582 0.42536 0.0
C1330 C 0.16042 0.80572 0.3273 0.0
H1331 H 0.13769 0.82092 0.35443 0.0
C1332 C 0.16137 0.80732 0.26259 0.0
C1333 C 0.15119 0.81002 0.36054 0.0
C1334 C 0.14988 0.80864 0.4301 0.0
C1335 C 0.15416 0.814 0.23078 0.0
C1336 C 0.14594 0.81942 0.26454 0.0
C1337 C 0.14399 0.81676 0.32862 0.0
C1338 C 0.14171 0.8301 0.23622 0.0
C1339 C 0.156 0.81589 0.16149 0.0
C1340 C 0.15329 0.84434 0.21676 0.0
C1341 C 0.14991 0.8552 0.19504 0.0
C1342 C 0.13485 0.8521 0.19181 0.0
C1343 C 0.12314 0.83768 0.20953 0.0
C1344 C 0.12657 0.82679 0.23234 0.0
H1345 H 0.1582 0.80721 0.14065 0.0
H1346 H 0.14578 0.81512 0.13954 0.0
H1347 H 0.16583 0.8272 0.15081 0.0
H1348 H 0.16505 0.84725 0.22019 0.0
H1349 H 0.1592 0.86619 0.18173 0.0
H1350 H 0.39053 0.19876 0.51257 0.0
H1351 H 0.36707 0.19441 0.56053 0.0
H1352 H 0.38944 0.24053 0.62553 0.0
H1353 H 0.41324 0.24503 0.57653 0.0
H1354 H 0.37347 0.21776 0.71885 0.0
H1355 H 0.33684 0.20873 0.51593 0.0
H1356 H 0.34682 0.19843 0.50987 0.0
H1357 H 0.35729 0.2188 0.51097 0.0
C1358 C 0.39045 0.20809 0.53617 0.0
C1359 C 0.40373 0.22225 0.54075 0.0
C1360 C 0.37697 0.20561 0.56321 0.0
C1361 C 0.37641 0.21719 0.59588 0.0
C1362 C 0.38958 0.23148 0.59985 0.0
H1363 H 0.28505 0.18226 0.7616 0.0
H1364 H 0.3092 0.20154 0.71505 0.0
C1365 C 0.40313 0.23406 0.57177 0.0
C1366 C 0.36235 0.21355 0.63031 0.0
H1367 H 0.32397 0.19588 0.61076 0.0
C1368 C 0.36268 0.21339 0.69528 0.0
C1369 C 0.34826 0.20799 0.59976 0.0
C1370 C 0.34727 0.20863 0.53025 0.0
C1371 C 0.34921 0.20656 0.7301 0.0
C1372 C 0.33508 0.19965 0.69913 0.0
C1373 C 0.33479 0.20105 0.63455 0.0
C1374 C 0.3208 0.18894 0.73148 0.0
C1375 C 0.35019 0.20611 0.79967 0.0
C1376 C 0.31931 0.1755 0.7557 0.0
C1377 C 0.30561 0.16451 0.78125 0.0
C1378 C 0.29305 0.1667 0.78363 0.0
C1379 C 0.29458 0.18033 0.76079 0.0
C1380 C 0.30834 0.19131 0.73415 0.0
H1381 H 0.36103 0.21566 0.81707 0.0
H1382 H 0.34061 0.20655 0.82212 0.0
H1383 H 0.34972 0.1954 0.81363 0.0
H1384 H 0.32865 0.17328 0.75318 0.0
H1385 H 0.30483 0.15417 0.79857 0.0
H1386 H 0.84477 0.10372 0.75177 0.0
H1387 H 0.82541 0.10787 0.70125 0.0
H1388 H 0.84934 0.1545 0.75991 0.0
H1389 H 0.86837 0.15043 0.81035 0.0
H1390 H 0.81779 0.14126 0.76981 0.0
H1391 H 0.83554 0.13191 0.53752 0.0
H1392 H 0.82921 0.11686 0.59343 0.0
H1393 H 0.8466 0.13423 0.60614 0.0
C1394 C 0.84566 0.11474 0.75492 0.0
C1395 C 0.85815 0.12678 0.7846 0.0
C1396 C 0.83468 0.11714 0.72562 0.0
C1397 C 0.83604 0.13158 0.72599 0.0
C1398 C 0.84803 0.14329 0.75879 0.0
H1399 H 0.82771 0.19299 0.50941 0.0
H1400 H 0.83209 0.17425 0.56041 0.0
C1401 C 0.85896 0.14094 0.78748 0.0
C1402 C 0.82592 0.13522 0.68892 0.0
H1403 H 0.82017 0.1429 0.54044 0.0
C1404 C 0.81795 0.14125 0.71959 0.0
C1405 C 0.82624 0.13532 0.62336 0.0
C1406 C 0.8349 0.12933 0.5878 0.0
C1407 C 0.81115 0.14825 0.68674 0.0
C1408 C 0.81221 0.14909 0.62135 0.0
C1409 C 0.8193 0.14216 0.59053 0.0
C1410 C 0.80864 0.1594 0.5854 0.0
C1411 C 0.80394 0.15573 0.72242 0.0
C1412 C 0.79387 0.15716 0.58098 0.0
C1413 C 0.79128 0.16797 0.5513 0.0
C1414 C 0.80346 0.18119 0.52612 0.0
C1415 C 0.81807 0.18301 0.52871 0.0
C1416 C 0.82061 0.17225 0.55772 0.0
H1417 H 0.80545 0.1554 0.77325 0.0
H1418 H 0.80885 0.16773 0.70781 0.0
H1419 H 0.79161 0.14987 0.71237 0.0
H1420 H 0.78442 0.14724 0.60144 0.0
H1421 H 0.7799 0.16628 0.55015 0.0
H1422 H 0.87251 0.73014 0.70436 0.0
H1423 H 0.86711 0.70618 0.6585 0.0
H1424 H 0.90806 0.71085 0.73797 0.0
H1425 H 0.91361 0.73512 0.78482 0.0
H1426 H 0.88547 0.69976 0.57517 0.0
H1427 H 0.87322 0.6686 0.79949 0.0
H1428 H 0.87344 0.68637 0.79316 0.0
H1429 H 0.89088 0.68607 0.79067 0.0
C1430 C 0.88045 0.72617 0.71211 0.0
C1431 C 0.89345 0.73453 0.74866 0.0
C1432 C 0.87735 0.71246 0.68561 0.0
C1433 C 0.88709 0.70664 0.69521 0.0
C1434 C 0.90031 0.71506 0.73051 0.0
H1435 H 0.85151 0.6114 0.57156 0.0
H1436 H 0.87094 0.63668 0.6085 0.0
C1437 C 0.9035 0.72895 0.75692 0.0
C1438 C 0.88284 0.69157 0.66887 0.0
H1439 H 0.86601 0.65414 0.70847 0.0
C1440 C 0.88158 0.68982 0.60428 0.0
C1441 C 0.87781 0.67859 0.70682 0.0
C1442 C 0.8788 0.67985 0.77645 0.0
C1443 C 0.87454 0.67541 0.57691 0.0
C1444 C 0.86842 0.6624 0.61506 0.0
C1445 C 0.87072 0.66414 0.67933 0.0
C1446 C 0.85742 0.64723 0.59022 0.0
C1447 C 0.873 0.6742 0.50739 0.0
C1448 C 0.84344 0.6448 0.56822 0.0
C1449 C 0.83242 0.63053 0.54797 0.0
C1450 C 0.83508 0.61826 0.54888 0.0
C1451 C 0.8492 0.62068 0.5699 0.0
C1452 C 0.86025 0.63506 0.59114 0.0
H1453 H 0.882 0.68455 0.48434 0.0
H1454 H 0.87354 0.66422 0.49013 0.0
H1455 H 0.86188 0.67286 0.49394 0.0
H1456 H 0.84091 0.65395 0.56791 0.0
H1457 H 0.8217 0.62909 0.53193 0.0
H1458 H 0.95612 0.51794 0.16136 0.0
H1459 H 0.98054 0.53763 0.1179 0.0
H1460 H 0.98312 0.50376 0.00768 0.0
H1461 H 0.95918 0.48435 0.05031 0.0
H1462 H 1.00884 0.53768 0.12611 0.0
H1463 H 0.99275 0.53773 0.88191 0.0
H1464 H 0.979 0.53056 0.944 0.0
H1465 H 0.98577 0.51886 0.91053 0.0
C1466 C 0.96185 0.51481 0.12721 0.0
C1467 C 0.95575 0.49959 0.10951 0.0
C1468 C 0.97577 0.52603 0.10252 0.0
C1469 C 0.98355 0.52219 0.05879 0.0
C1470 C 0.97723 0.50707 0.04034 0.0
H1471 H 0.0685 0.53889 0.96433 0.0
H1472 H 0.04494 0.5342 0.01212 0.0
C1473 C 0.96356 0.49593 0.06533 0.0
C1474 C 0.99884 0.53343 0.03522 0.0
H1475 H 0.019 0.54467 0.90025 0.0
C1476 C 1.01105 0.53959 0.07684 0.0
C1477 C 1.00177 0.53614 0.97102 0.0
C1478 C 0.98909 0.5306 0.92434 0.0
C1479 C 0.02611 0.54717 0.05554 0.0
C1480 C 0.02902 0.54845 0.99103 0.0
C1481 C 0.01682 0.54355 0.94969 0.0
C1482 C 0.04423 0.55266 0.96571 0.0
C1483 C 0.03878 0.55316 0.10234 0.0
C1484 C 0.05171 0.56456 0.92291 0.0
C1485 C 0.06535 0.56731 0.89518 0.0
C1486 C 0.07151 0.55799 0.90894 0.0
C1487 C 0.06408 0.54628 0.95249 0.0
C1488 C 0.05064 0.54366 0.98044 0.0
H1489 H 0.03533 0.55623 0.14631 0.0
H1490 H 0.04164 0.54423 0.11308 0.0
H1491 H 0.04911 0.56324 0.08437 0.0
H1492 H 0.04687 0.57154 0.9103 0.0
H1493 H 0.07077 0.57636 0.86156 0.0
H1494 H 0.49242 0.52878 0.82869 0.0
H1495 H 0.49699 0.50972 0.87588 0.0
H1496 H 0.45169 0.48709 0.95072 0.0
H1497 H 0.44698 0.50633 0.90274 0.0
H1498 H 0.47479 0.49413 0.03928 0.0
H1499 H 0.48256 0.46514 0.83864 0.0
H1500 H 0.49313 0.48534 0.83019 0.0
H1501 H 0.47275 0.47578 0.83291 0.0
C1502 C 0.48329 0.51958 0.85409 0.0
C1503 C 0.46933 0.51903 0.86194 0.0
C1504 C 0.48589 0.50861 0.8807 0.0
C1505 C 0.47463 0.49683 0.91614 0.0
C1506 C 0.46048 0.49598 0.92291 0.0
H1507 H 0.50806 0.44002 0.09275 0.0
H1508 H 0.48956 0.44542 0.0418 0.0
C1509 C 0.45778 0.50692 0.89535 0.0
C1510 C 0.47853 0.48666 0.95118 0.0
H1511 H 0.49587 0.46557 0.93291 0.0
C1512 C 0.47899 0.48752 0.0161 0.0
C1513 C 0.48391 0.47791 0.92117 0.0
C1514 C 0.48292 0.47585 0.85187 0.0
C1515 C 0.48586 0.48097 0.05124 0.0
C1516 C 0.49251 0.47345 0.0207 0.0
C1517 C 0.49089 0.47146 0.95631 0.0
C1518 C 0.50305 0.46969 0.05343 0.0
C1519 C 0.48662 0.48279 0.12066 0.0
C1520 C 0.51677 0.48151 0.07605 0.0
C1521 C 0.5273 0.4785 0.10421 0.0
C1522 C 0.5244 0.46356 0.1108 0.0
C1523 C 0.51058 0.45163 0.08865 0.0
C1524 C 0.50003 0.4547 0.05954 0.0
H1525 H 0.47741 0.48462 0.13823 0.0
H1526 H 0.48585 0.47271 0.14397 0.0
H1527 H 0.49761 0.49281 0.13344 0.0
H1528 H 0.51945 0.49317 0.07096 0.0
H1529 H 0.53779 0.48797 0.12078 0.0
H1530 H 0.5366 0.04808 0.15504 0.0
H1531 H 0.53195 0.02452 0.10764 0.0
H1532 H 0.57851 0.04592 0.04762 0.0
H1533 H 0.58327 0.06985 0.09554 0.0
H1534 H 0.55768 0.03097 0.95261 0.0
H1535 H 0.54337 0.99279 0.1537 0.0
H1536 H 0.53317 1.0029 0.15611 0.0
H1537 H 0.55355 0.01316 0.16138 0.0
C1538 C 0.54596 0.04775 0.13281 0.0
C1539 C 0.56032 0.06082 0.12915 0.0
C1540 C 0.5433 0.0342 0.10609 0.0
C1541 C 0.55491 0.03332 0.07487 0.0
C1542 C 0.56942 0.04628 0.07216 0.0
H1543 H 0.51757 0.94161 0.9143 0.0
H1544 H 0.53705 0.96523 0.96313 0.0
C1545 C 0.57215 0.05991 0.09972 0.0
C1546 C 0.55115 0.01927 0.04016 0.0
H1547 H 0.53147 0.98079 0.05593 0.0
C1548 C 0.55233 0.02001 0.97532 0.0
C1549 C 0.54438 1.00493 0.06953 0.0
C1550 C 0.54369 1.0034 0.13909 0.0
C1551 C 0.5457 1.0068 0.93906 0.0
C1552 C 0.53751 0.99249 0.96834 0.0
C1553 C 0.53756 0.99173 0.03326 0.0
C1554 C 0.52705 0.97858 0.9332 0.0
C1555 C 0.54699 1.00832 0.86954 0.0
C1556 C 0.51503 0.97823 0.90014 0.0
C1557 C 0.50395 0.96486 0.87287 0.0
C1558 C 0.50458 0.95144 0.87785 0.0
C1559 C 0.51688 0.95182 0.90915 0.0
C1560 C 0.52796 0.96527 0.93722 0.0
H1561 H 0.55761 0.01868 0.85563 0.0
H1562 H 0.54674 0.99833 0.84786 0.0
H1563 H 0.53734 1.00932 0.85119 0.0
H1564 H 0.51383 0.9882 0.89752 0.0
H1565 H 0.49463 0.96496 0.84915 0.0
H1566 H 0.15759 0.2 0.16931 0.0
H1567 H 0.17286 0.19009 0.12495 0.0
H1568 H 0.19467 0.22878 0.0035 0.0
H1569 H 0.17906 0.23865 0.04676 0.0
H1570 H 0.18627 0.20327 0.94133 0.0
H1571 H 0.21641 0.20217 0.15203 0.0
H1572 H 0.19632 0.1921 0.16399 0.0
H1573 H 0.20595 0.21215 0.1487 0.0
C1574 C 0.16572 0.20652 0.13355 0.0
C1575 C 0.16711 0.22018 0.11184 0.0
C1576 C 0.17457 0.20087 0.10855 0.0
C1577 C 0.1852 0.20882 0.06179 0.0
C1578 C 0.18666 0.22249 0.03998 0.0
H1579 H 0.24462 0.17377 0.93792 0.0
H1580 H 0.23605 0.1906 0.98015 0.0
C1581 C 0.17773 0.22814 0.06482 0.0
C1582 C 0.19398 0.20228 0.03321 0.0
H1583 H 0.21538 0.18598 0.06837 0.0
C1584 C 0.19282 0.1997 0.96906 0.0
C1585 C 0.20282 0.19787 0.06891 0.0
C1586 C 0.20559 0.20137 0.1371 0.0
C1587 C 0.19953 0.19214 0.94029 0.0
C1588 C 0.20732 0.18663 0.97682 0.0
C1589 C 0.20921 0.18995 0.0404 0.0
C1590 C 0.21276 0.17668 0.95058 0.0
C1591 C 0.19813 0.19007 0.87096 0.0
C1592 C 0.20252 0.16313 0.92098 0.0
C1593 C 0.20738 0.1536 0.89658 0.0
C1594 C 0.2226 0.15724 0.90189 0.0
C1595 C 0.23284 0.17067 0.93267 0.0
C1596 C 0.22795 0.18029 0.95687 0.0
H1597 H 0.19675 0.19911 0.8483 0.0
H1598 H 0.20819 0.19014 0.85078 0.0
H1599 H 0.18792 0.17907 0.86003 0.0
H1600 H 0.19066 0.15982 0.91721 0.0
H1601 H 0.19911 0.14329 0.87389 0.0
H1602 H 0.79232 0.94368 0.04729 0.0
H1603 H 0.80228 0.96887 0.00108 0.0
H1604 H 0.83641 0.98791 0.14355 0.0
H1605 H 0.82643 0.96295 0.19051 0.0
H1606 H 0.82329 1.00566 0.11844 0.0
H1607 H 0.84169 0.99 0.90188 0.0
H1608 H 0.82196 0.97855 0.92086 0.0
H1609 H 0.83599 0.97815 0.96998 0.0
C1610 C 0.8019 0.95324 0.06899 0.0
C1611 C 0.80864 0.95123 0.12242 0.0
C1612 C 0.80762 0.96763 0.04232 0.0
C1613 C 0.82023 0.98027 0.06833 0.0
C1614 C 0.82669 0.97834 0.12256 0.0
H1615 H 0.89032 0.06307 0.927 0.0
H1616 H 0.87299 0.03803 0.96767 0.0
C1617 C 0.82099 0.96401 0.14925 0.0
C1618 C 0.82716 0.99546 0.03848 0.0
H1619 H 0.84689 0.01511 0.91033 0.0
C1620 C 0.8283 1.00772 0.07263 0.0
C1621 C 0.83379 0.99815 0.97885 0.0
C1622 C 0.83345 0.98558 0.94076 0.0
C1623 C 0.83624 0.02262 0.04949 0.0
C1624 C 0.84309 0.02531 0.99036 0.0
C1625 C 0.84155 0.013 0.95548 0.0
C1626 C 0.85334 0.04088 0.9666 0.0
C1627 C 0.83787 0.03544 0.08963 0.0
C1628 C 0.84808 0.05094 0.95252 0.0
C1629 C 0.85806 0.06546 0.92905 0.0
C1630 C 0.87344 0.0701 0.91913 0.0
C1631 C 0.87858 0.05996 0.9338 0.0
C1632 C 0.86866 0.04556 0.95704 0.0
H1633 H 0.83396 0.03171 0.13783 0.0
H1634 H 0.84986 0.0447 0.0909 0.0
H1635 H 0.83101 0.04012 0.06977 0.0
H1636 H 0.83625 0.04751 0.95887 0.0
H1637 H 0.85372 0.07296 0.91813 0.0
H1638 H 0.96739 0.82075 0.79047 0.0
H1639 H 0.9928 0.83061 0.83248 0.0
H1640 H 0.97564 0.79445 0.96679 0.0
H1641 H 0.94997 0.78464 0.92575 0.0
H1642 H 0.99365 0.82114 0.02025 0.0
H1643 H 0.02312 0.81656 0.81393 0.0
H1644 H 1.0135 0.82683 0.79687 0.0
H1645 H 1.00273 0.80719 0.81905 0.0
C1646 C 0.96898 0.81477 0.82859 0.0
C1647 C 0.95659 0.80186 0.85461 0.0
C1648 C 0.9836 0.82037 0.85223 0.0
C1649 C 0.98626 0.81312 0.90201 0.0
C1650 C 0.97392 0.80017 0.92796 0.0
H1651 H 0.07986 0.84654 0.03671 0.0
H1652 H 0.05466 0.83006 0.99152 0.0
C1653 C 0.95925 0.79457 0.90443 0.0
C1654 C 1.00169 0.81977 0.9296 0.0
H1655 H 0.03907 0.83402 0.89294 0.0
C1656 C 1.00354 0.82374 0.99253 0.0
C1657 C 1.01464 0.82296 0.89395 0.0
C1658 C 1.01339 0.81801 0.82739 0.0
C1659 C 0.01797 0.83149 0.01984 0.0
C1660 C 0.03098 0.8357 0.98301 0.0
C1661 C 0.02913 0.83101 0.92097 0.0
C1662 C 0.04654 0.84576 0.00733 0.0
C1663 C 0.01912 0.83521 0.08795 0.0
C1664 C 0.05052 0.86022 0.02924 0.0
C1665 C 0.06478 0.86956 0.055 0.0
C1666 C 0.07554 0.86477 0.05899 0.0
C1667 C 0.07182 0.85054 0.03455 0.0
C1668 C 0.05742 0.84111 0.00884 0.0
H1669 H 1.00857 0.82726 0.113 0.0
H1670 H 0.0288 0.83483 0.10978 0.0
H1671 H 0.02086 0.84679 0.09366 0.0
H1672 H 0.04249 0.86424 0.02696 0.0
H1673 H 0.06729 0.88053 0.07248 0.0
H1674 H 0.87183 0.80354 0.00841 0.0
H1675 H 0.86087 0.81967 0.02738 0.0
H1676 H 0.89588 0.85497 0.91637 0.0
H1677 H 0.90649 0.8386 0.89437 0.0
H1678 H 0.87103 0.84678 0.08051 0.0
H1679 H 0.85838 0.85034 0.83307 0.0
H1680 H 0.86439 0.83745 0.86041 0.0
H1681 H 0.87804 0.85712 0.84856 0.0
C1682 C 0.87718 0.8147 0.98756 0.0
C1683 C 0.88994 0.81963 0.94898 0.0
C1684 C 0.87094 0.82397 -0.00109 0.0
C1685 C 0.87731 0.83843 0.97218 0.0
C1686 C 0.89051 0.84372 0.93625 0.0
H1687 H 0.84554 0.90074 0.08904 0.0
H1688 H 0.86173 0.88991 0.06701 0.0
C1689 C 0.89671 0.8344 0.92447 0.0
C1690 C 0.86988 0.84773 0.98122 0.0
H1691 H 0.85303 0.86472 0.90371 0.0
C1692 C 0.86715 0.85076 0.04184 0.0
C1693 C 0.86462 0.85276 0.93077 0.0
C1694 C 0.86635 0.84915 0.86455 0.0
C1695 C 0.85921 0.85851 0.05347 0.0
C1696 C 0.85417 0.86376 0.00302 0.0
C1697 C 0.85703 0.86086 0.94239 0.0
C1698 C 0.84499 0.87133 0.01206 0.0
C1699 C 0.85577 0.86043 0.11974 0.0
C1700 C 0.83048 0.86502 0.98581 0.0
C1701 C 0.82131 0.87138 -0.00284 0.0
C1702 C 0.8264 0.88421 0.0353 0.0
C1703 C 0.84122 0.89091 0.0593 0.0
C1704 C 0.85043 0.88458 0.04752 0.0
H1705 H 0.85694 0.85248 0.15143 0.0
H1706 H 0.86386 0.87212 0.13515 0.0
H1707 H 0.84411 0.85859 0.12425 0.0
H1708 H 0.82606 0.8549 0.95771 0.0
H1709 H 0.81012 0.86608 0.9767 0.0
H1710 H 0.18683 0.07487 0.96248 0.0
H1711 H 0.17098 0.04866 -0.00245 0.0
H1712 H 0.20957 0.04204 0.98856 0.0
H1713 H 0.22556 0.06827 0.95638 0.0
H1714 H 0.16417 0.02241 0.93871 0.0
H1715 H 0.19344 0.02583 0.15904 0.0
H1716 H 0.19679 0.04245 0.11636 0.0
H1717 H 0.20619 0.03217 0.09435 0.0
C1718 C 0.192 0.06792 0.96904 0.0
C1719 C 0.20751 0.07375 0.95647 0.0
C1720 C 0.1829 0.05289 0.98866 0.0
C1721 C 0.1891 0.0434 0.9966 0.0
C1722 C 0.20455 0.04919 0.98409 0.0
H1723 H 0.14593 0.94603 0.98996 0.0
H1724 H 0.15816 0.97302 0.96649 0.0
C1725 C 0.21366 0.06418 0.96475 0.0
C1726 C 0.1794 0.0273 0.01556 0.0
H1727 H 0.17686 1.0009 0.12001 0.0
C1728 C 0.16685 0.01775 0.97874 0.0
C1729 C 0.18273 0.0212 0.06833 0.0
C1730 C 0.19542 0.03098 0.11215 0.0
C1731 C 0.1579 1.00221 0.9919 0.0
C1732 C 0.16177 0.99596 0.04259 0.0
C1733 C 0.17397 1.00562 0.08072 0.0
C1734 C 0.1536 0.97941 0.05602 0.0
C1735 C 0.14435 0.99266 0.95147 0.0
C1736 C 0.14717 0.97395 0.11463 0.0
C1737 C 0.1402 0.95847 0.12834 0.0
C1738 C 0.13953 0.9481 0.08375 0.0
C1739 C 0.14591 0.95361 0.02498 0.0
C1740 C 0.15292 0.96908 0.01143 0.0
H1741 H 0.1402 0.99963 0.9282 0.0
H1742 H 0.14763 0.98721 0.9149 0.0
H1743 H 0.13491 0.98364 0.97873 0.0
H1744 H 0.14761 0.9817 0.14994 0.0
H1745 H 0.13534 0.95462 0.17392 0.0
H1746 H 0.9559 0.12138 0.95937 0.0
H1747 H 0.98277 0.13455 0.98678 0.0
H1748 H 0.99141 0.16917 0.85192 0.0
H1749 H 0.96454 0.15669 0.82705 0.0
H1750 H 1.00844 0.14235 0.92365 0.0
H1751 H 1.00938 0.19435 0.00413 0.0
H1752 H 0.99198 0.17719 0.9867 0.0
H1753 H 1.00318 0.18982 0.92537 0.0
C1754 C 0.96345 0.13189 0.93596 0.0
C1755 C 0.95788 0.13798 0.89131 0.0
C1756 C 0.97888 0.13934 0.95132 0.0
C1757 C 0.98911 0.15304 0.92238 0.0
C1758 C 0.98371 0.15882 0.87607 0.0
H1759 H 0.0884 0.19739 0.94156 0.0
H1760 H 0.06177 0.18183 0.91034 0.0
C1761 C 0.96829 0.15149 0.86115 0.0
C1762 C 1.00535 0.16142 0.94131 0.0
H1763 H 0.03324 0.19574 0.99341 0.0
C1764 C 1.01386 0.15401 0.93913 0.0
C1765 C 1.0124 0.17657 0.96255 0.0
C1766 C 1.00373 0.1849 0.9705 0.0
C1767 C 0.02922 0.16138 0.95683 0.0
C1768 C 0.0364 0.17671 0.97577 0.0
C1769 C 0.02783 0.18405 0.97837 0.0
C1770 C 0.05261 0.18534 0.99523 0.0
C1771 C 0.03745 0.15251 0.95657 0.0
C1772 C 0.05642 0.19271 0.05283 0.0
C1773 C 0.07157 0.20179 0.07007 0.0
C1774 C 0.08332 0.20368 0.03033 0.0
C1775 C 0.07957 0.19602 0.97332 0.0
C1776 C 0.06435 0.18706 0.95563 0.0
H1777 H 0.02943 0.14012 0.95893 0.0
H1778 H 0.04399 0.15486 0.91292 0.0
H1779 H 0.04545 0.15576 0.99606 0.0
H1780 H 0.04764 0.19157 0.08434 0.0
H1781 H 0.07412 0.20743 0.11456 0.0
H1782 H 0.8662 0.47121 0.30914 0.0
H1783 H 0.85881 0.48916 0.34575 0.0
H1784 H 0.90004 0.52614 0.27186 0.0
H1785 H 0.90765 0.50805 0.23462 0.0
H1786 H 0.87587 0.51549 0.42804 0.0
H1787 H 0.86387 0.53009 0.19368 0.0
H1788 H 0.86465 0.513 0.20705 0.0
H1789 H 0.88175 0.531 0.20766 0.0
C1790 C 0.87379 0.48315 0.30069 0.0
C1791 C 0.88749 0.48817 0.26852 0.0
C1792 C 0.86953 0.49342 0.32185 0.0
C1793 C 0.87878 0.50896 0.31102 0.0
C1794 C 0.89267 0.51415 0.28015 0.0
H1795 H 0.8419 0.5695 0.40064 0.0
H1796 H 0.86021 0.56203 0.36494 0.0
C1797 C 0.89703 0.50383 0.25926 0.0
C1798 C 0.87344 0.51939 0.33183 0.0
H1799 H 0.85557 0.53813 0.27952 0.0
C1800 C 0.87172 0.52072 0.39559 0.0
C1801 C 0.86809 0.52627 0.28948 0.0
C1802 C 0.86958 0.52506 0.22054 0.0
C1803 C 0.86413 0.52807 0.41804 0.0
C1804 C 0.8578 0.53398 0.37562 0.0
C1805 C 0.86037 0.53354 0.31196 0.0
C1806 C 0.84696 0.53884 0.39631 0.0
C1807 C 0.86252 0.52899 0.48709 0.0
C1808 C 0.83334 0.52824 0.42448 0.0
C1809 C 0.82292 0.53241 0.44454 0.0
C1810 C 0.8258 0.54733 0.43683 0.0
C1811 C 0.83937 0.55795 0.40763 0.0
C1812 C 0.84983 0.5537 0.38718 0.0
H1813 H 0.87176 0.52851 0.5125 0.0
H1814 H 0.86259 0.53957 0.50001 0.0
H1815 H 0.8516 0.51922 0.50237 0.0
H1816 H 0.83072 0.51664 0.43084 0.0
H1817 H 0.8126 0.52387 0.46646 0.0
H1818 H 0.5383 0.38925 0.1506 0.0
H1819 H 0.52346 0.36409 0.19577 0.0
H1820 H 0.50322 0.38114 0.32453 0.0
H1821 H 0.5184 0.40656 0.28049 0.0
H1822 H 0.51223 0.36402 0.38262 0.0
H1823 H 0.47964 0.3328 0.1763 0.0
H1824 H 0.49959 0.34267 0.1608 0.0
H1825 H 0.49021 0.35321 0.17908 0.0
C1826 C 0.53059 0.38767 0.18814 0.0
C1827 C 0.52953 0.39997 0.21171 0.0
C1828 C 0.52199 0.3732 0.21364 0.0
C1829 C 0.51194 0.37058 0.26276 0.0
C1830 C 0.51079 0.38282 0.2863 0.0
H1831 H 0.45291 0.27676 0.39346 0.0
H1832 H 0.46144 0.30215 0.35124 0.0
C1833 C 0.51947 0.39736 0.26101 0.0
C1834 C 0.50344 0.35529 0.29188 0.0
H1835 H 0.4813 0.31766 0.2586 0.0
C1836 C 0.5053 0.35391 0.35557 0.0
C1837 C 0.49412 0.34206 0.25713 0.0
C1838 C 0.49063 0.34277 0.1897 0.0
C1839 C 0.49876 0.33969 0.38467 0.0
C1840 C 0.49042 0.3264 0.3489 0.0
C1841 C 0.48789 0.3278 0.28592 0.0
C1842 C 0.48502 0.31102 0.3752 0.0
C1843 C 0.50093 0.33906 0.45353 0.0
C1844 C 0.49543 0.30745 0.40171 0.0
C1845 C 0.4906 0.29305 0.42601 0.0
C1846 C 0.47523 0.28173 0.42378 0.0
C1847 C 0.46481 0.28521 0.39626 0.0
C1848 C 0.46967 0.29972 0.37206 0.0
H1849 H 0.50282 0.34959 0.47671 0.0
H1850 H 0.49098 0.32926 0.47521 0.0
H1851 H 0.51107 0.33795 0.46198 0.0
H1852 H 0.50738 0.31579 0.4031 0.0
H1853 H 0.49901 0.29078 0.44622 0.0
H1854 H 0.7453 0.20414 0.30078 0.0
H1855 H 0.71879 0.18718 0.27336 0.0
H1856 H 0.71377 0.15908 0.43133 0.0
H1857 H 0.7407 0.17574 0.457 0.0
H1858 H 0.69622 0.14205 0.33489 0.0
H1859 H 0.68735 0.19075 0.37155 0.0
H1860 H 0.70105 0.19456 0.31201 0.0
H1861 H 0.70494 0.19151 0.39053 0.0
C1862 C 0.73862 0.19414 0.32877 0.0
C1863 C 0.74496 0.19127 0.38117 0.0
C1864 C 0.72344 0.18452 0.31342 0.0
C1865 C 0.71411 0.17213 0.35146 0.0
C1866 C 0.72069 0.16865 0.40158 0.0
H1867 H 0.61793 0.14125 0.34771 0.0
H1868 H 0.6439 0.14968 0.38056 0.0
C1869 C 0.73606 0.17812 0.41615 0.0
C1870 C 0.6974 0.16368 0.34144 0.0
H1871 H 0.66713 0.16909 0.32409 0.0
C1872 C 0.6898 0.14791 0.33298 0.0
C1873 C 0.68891 0.17124 0.34047 0.0
C1874 C 0.69595 0.18791 0.35482 0.0
C1875 C 0.67406 0.1396 0.32188 0.0
C1876 C 0.66576 0.14734 0.31737 0.0
C1877 C 0.67338 0.16307 0.32705 0.0
C1878 C 0.6492 0.13965 0.30301 0.0
C1879 C 0.6665 0.12263 0.31639 0.0
C1880 C 0.64318 0.13065 0.24969 0.0
C1881 C 0.62809 0.1254 0.23201 0.0
C1882 C 0.61895 0.12945 0.26636 0.0
C1883 C 0.62477 0.13796 0.32059 0.0
C1884 C 0.63964 0.14283 0.33916 0.0
H1885 H 0.673 0.11817 0.34133 0.0
H1886 H 0.65478 0.117 0.33507 0.0
H1887 H 0.666 0.11954 0.26685 0.0
H1888 H 0.65032 0.12834 0.21988 0.0
H1889 H 0.6239 0.11906 0.18937 0.0
H1890 H 0.54538 0.14128 0.34077 0.0
H1891 H 0.53335 0.15632 0.36354 0.0
H1892 H 0.54704 0.17787 0.18482 0.0
H1893 H 0.55919 0.16291 0.16167 0.0
H1894 H 0.54478 0.18748 0.36857 0.0
H1895 H 0.5012 0.16102 0.18442 0.0
H1896 H 0.51287 0.15325 0.20884 0.0
H1897 H 0.52043 0.16934 0.15784 0.0
C1898 C 0.54604 0.14936 0.30654 0.0
C1899 C 0.55323 0.15082 0.24921 0.0
C1900 C 0.53907 0.15791 0.31956 0.0
C1901 C 0.53908 0.16806 0.27555 0.0
C1902 C 0.5466 0.16987 0.21898 0.0
H1903 H 0.50892 0.23336 0.36311 0.0
H1904 H 0.52425 0.22218 0.33021 0.0
C1905 C 0.55355 0.16131 0.20584 0.0
C1906 C 0.53097 0.17651 0.28878 0.0
H1907 H 0.5014 0.18092 0.24097 0.0
C1908 C 0.53534 0.18612 0.34052 0.0
C1909 C 0.51854 0.17459 0.25254 0.0
C1910 C 0.51285 0.1639 0.19811 0.0
C1911 C 0.52758 0.19377 0.35719 0.0
C1912 C 0.51525 0.19196 0.32058 0.0
C1913 C 0.51095 0.18243 0.26864 0.0
C1914 C 0.50599 0.19899 0.33773 0.0
C1915 C 0.53233 0.20332 0.41507 0.0
C1916 C 0.49052 0.18973 0.35081 0.0
C1917 C 0.48172 0.19607 0.36891 0.0
C1918 C 0.48817 0.21186 0.3743 0.0
C1919 C 0.50358 0.22117 0.3594 0.0
C1920 C 0.51241 0.21479 0.34125 0.0
H1921 H 0.53968 0.20085 0.44519 0.0
H1922 H 0.5388 0.21546 0.40192 0.0
H1923 H 0.52228 0.20145 0.44222 0.0
H1924 H 0.48528 0.17753 0.34792 0.0
H1925 H 0.46983 0.18856 0.37869 0.0
H1926 H 0.82118 0.27576 0.30463 0.0
H1927 H 0.83265 0.30253 0.27741 0.0
H1928 H 0.81373 0.3104 0.44238 0.0
H1929 H 0.80246 0.28362 0.47049 0.0
H1930 H 0.82056 0.32001 0.25247 0.0
H1931 H 0.85737 0.34269 0.45964 0.0
H1932 H 0.84748 0.32281 0.44067 0.0
H1933 H 0.83765 0.33118 0.47814 0.0
C1934 C 0.81939 0.28317 0.33499 0.0
C1935 C 0.81093 0.27755 0.38986 0.0
C1936 C 0.826 0.2985 0.31947 0.0
C1937 C 0.82431 0.30859 0.35833 0.0
C1938 C 0.81558 0.30296 0.41247 0.0
H1939 H 0.85581 0.40536 0.31875 0.0
H1940 H 0.84199 0.37865 0.349 0.0
C1941 C 0.80908 0.28763 0.42837 0.0
C1942 C 0.83157 0.32494 0.34148 0.0
H1943 H 0.85645 0.36067 0.39262 0.0
C1944 C 0.82842 0.32888 0.28316 0.0
C1945 C 0.84187 0.33656 0.38141 0.0
C1946 C 0.84642 0.33313 0.44319 0.0
C1947 C 0.83523 0.34406 0.26385 0.0
C1948 C 0.84548 0.35562 0.30374 0.0
C1949 C 0.8485 0.35176 0.3623 0.0
C1950 C 0.85364 0.37177 0.28451 0.0
C1951 C 0.83138 0.34767 0.20097 0.0
C1952 C 0.86484 0.37677 0.23854 0.0
C1953 C 0.87292 0.39206 0.2217 0.0
C1954 C 0.86994 0.40272 0.25029 0.0
C1955 C 0.85859 0.39758 0.29615 0.0
C1956 C 0.85059 0.38229 0.31333 0.0
H1957 H 0.82114 0.33787 0.18088 0.0
H1958 H 0.82946 0.35746 0.20386 0.0
H1959 H 0.84102 0.35079 0.16898 0.0
H1960 H 0.86752 0.36886 0.2164 0.0
H1961 H 0.88178 0.39555 0.1873 0.0
H1962 H 0.74197 0.51162 0.38038 0.0
H1963 H 0.71525 0.4963 0.35038 0.0
H1964 H 0.70795 0.5332 0.39852 0.0
H1965 H 0.73457 0.54872 0.42556 0.0
H1966 H 0.68957 0.4867 0.41968 0.0
H1967 H 0.6895 0.52279 0.2285 0.0
H1968 H 0.7068 0.52518 0.26192 0.0
H1969 H 0.6967 0.53336 0.2987 0.0
C1970 C 0.73473 0.51656 0.38358 0.0
C1971 C 0.74049 0.53143 0.40563 0.0
C1972 C 0.71942 0.50774 0.36684 0.0
C1973 C 0.7096 0.51366 0.37129 0.0
C1974 C 0.71533 0.52846 0.39335 0.0
H1975 H 0.61497 0.48429 0.36534 0.0
H1976 H 0.64213 0.49558 0.38491 0.0
C1977 C 0.73057 0.53727 0.40975 0.0
C1978 C 0.69325 0.50433 0.35498 0.0
H1979 H 0.66515 0.505 0.27077 0.0
C1980 C 0.68428 0.49059 0.38641 0.0
C1981 C 0.6863 0.50932 0.31126 0.0
C1982 C 0.69536 0.52339 0.2727 0.0
C1983 C 0.6685 0.48211 0.37729 0.0
C1984 C 0.66154 0.48753 0.33588 0.0
C1985 C 0.67053 0.50097 0.30301 0.0
C1986 C 0.64487 0.47975 0.32763 0.0
C1987 C 0.65921 0.46768 0.4133 0.0
C1988 C 0.63738 0.46698 0.28944 0.0
C1989 C 0.62184 0.46057 0.27748 0.0
C1990 C 0.61351 0.46683 0.3035 0.0
C1991 C 0.62103 0.47931 0.34359 0.0
C1992 C 0.63654 0.48574 0.35517 0.0
H1993 H 0.66622 0.46533 0.44596 0.0
H1994 H 0.65024 0.46837 0.43981 0.0
H1995 H 0.65351 0.45804 0.38068 0.0
H1996 H 0.64366 0.46226 0.26743 0.0
H1997 H 0.61651 0.4511 0.24583 0.0
H1998 H 0.57417 0.83737 0.6189 0.0
H1999 H 0.56361 0.85204 0.66546 0.0
H2000 H 0.52694 0.83312 0.53359 0.0
H2001 H 0.53756 0.81879 0.48598 0.0
H2002 H 0.53778 0.86323 0.55005 0.0
H2003 H 0.52695 0.83428 0.7781 0.0
H2004 H 0.54635 0.84357 0.75311 0.0
H2005 H 0.53223 0.82761 0.71048 0.0
C2006 C 0.5639 0.8364 0.59959 0.0
C2007 C 0.55667 0.82681 0.54887 0.0
C2008 C 0.55783 0.84473 0.62654 0.0
C2009 C 0.54432 0.84351 0.60373 0.0
C2010 C 0.53734 0.83424 0.55217 0.0
H2011 H 0.47547 0.85505 0.77353 0.0
H2012 H 0.49246 0.84727 0.72922 0.0
C2013 C 0.54342 0.826 0.52508 0.0
C2014 C 0.53712 0.85148 0.63393 0.0
H2015 H 0.52022 0.85315 0.7681 0.0
C2016 C 0.53404 0.86114 0.5979 0.0
C2017 C 0.53213 0.84864 0.69625 0.0
C2018 C 0.53444 0.83787 0.73673 0.0
C2019 C 0.52581 0.86771 0.62189 0.0
C2020 C 0.52075 0.86478 0.68407 0.0
C2021 C 0.52419 0.85546 0.72056 0.0
C2022 C 0.51064 0.87001 0.7106 0.0
C2023 C 0.52202 0.87714 0.57959 0.0
C2024 C 0.51517 0.88546 0.71517 0.0
C2025 C 0.50535 0.89001 0.74036 0.0
C2026 C 0.49088 0.87917 0.76194 0.0
C2027 C 0.4865 0.86374 0.75753 0.0
C2028 C 0.49624 0.85924 0.73225 0.0
H2029 H 0.52393 0.87563 0.5301 0.0
H2030 H 0.51002 0.8742 0.58552 0.0
H2031 H 0.52932 0.88928 0.59132 0.0
H2032 H 0.52632 0.89401 0.69981 0.0
H2033 H 0.50912 0.90197 0.74331 0.0
H2034 H 0.18371 0.7405 0.60034 0.0
H2035 H 0.16901 0.7156 0.64922 0.0
H2036 H 0.19419 0.69936 0.54531 0.0
H2037 H 0.20847 0.72394 0.49467 0.0
H2038 H 0.16526 0.67855 0.54754 0.0
H2039 H 0.18325 0.69952 0.7869 0.0
H2040 H 0.17371 0.70803 0.74866 0.0
H2041 H 0.1917 0.71135 0.71987 0.0
C2042 C 0.18607 0.7316 0.58773 0.0
C2043 C 0.19733 0.73427 0.54373 0.0
C2044 C 0.17773 0.71738 0.61612 0.0
C2045 C 0.18068 0.70563 0.60206 0.0
C2046 C 0.1917 0.70822 0.55721 0.0
H2047 H 0.16202 0.62768 0.8215 0.0
H2048 H 0.17212 0.65216 0.77032 0.0
C2049 C 0.19989 0.72233 0.52828 0.0
C2050 C 0.17244 0.69065 0.63386 0.0
H2051 H 0.16502 0.67362 0.77603 0.0
C2052 C 0.16519 0.67748 0.59754 0.0
C2053 C 0.17247 0.68919 0.69912 0.0
C2054 C 0.18082 0.70275 0.74094 0.0
C2055 C 0.15818 0.66296 0.62438 0.0
C2056 C 0.15798 0.66151 0.6897 0.0
C2057 C 0.16504 0.67469 0.72604 0.0
C2058 C 0.15142 0.64651 0.72127 0.0
C2059 C 0.15164 0.64935 0.5822 0.0
C2060 C 0.1363 0.63512 0.71159 0.0
C2061 C 0.13052 0.62095 0.74031 0.0
C2062 C 0.13965 0.61798 0.78028 0.0
C2063 C 0.15463 0.62954 0.79113 0.0
C2064 C 0.16045 0.6436 0.76187 0.0
H2065 H 0.15635 0.65241 0.53459 0.0
H2066 H 0.15391 0.64047 0.6003 0.0
H2067 H 0.13919 0.6445 0.579 0.0
H2068 H 0.12896 0.63718 0.68186 0.0
H2069 H 0.1189 0.61233 0.73124 0.0
H2070 H 0.28645 0.48439 0.67536 0.0
H2071 H 0.31289 0.49359 0.70276 0.0
H2072 H 0.31541 0.46426 0.56536 0.0
H2073 H 0.28853 0.45445 0.53971 0.0
H2074 H 0.33258 0.46678 0.66683 0.0
H2075 H 0.34545 0.52379 0.59093 0.0
H2076 H 0.33164 0.51674 0.65177 0.0
H2077 H 0.32724 0.50721 0.57805 0.0
C2078 C 0.29257 0.47971 0.65169 0.0
C2079 C 0.28553 0.46885 0.60494 0.0
C2080 C 0.30772 0.48506 0.66708 0.0
C2081 C 0.31632 0.48002 0.63469 0.0
C2082 C 0.30905 0.46844 0.59055 0.0
H2083 H 0.41381 0.54051 0.6375 0.0
H2084 H 0.38786 0.52334 0.60318 0.0
C2085 C 0.29371 0.46282 0.57599 0.0
C2086 C 0.33301 0.48758 0.64457 0.0
H2087 H 0.36473 0.52251 0.64849 0.0
C2088 C 0.33967 0.47895 0.66228 0.0
C2089 C 0.34237 0.50343 0.6371 0.0
C2090 C 0.33634 0.5133 0.61275 0.0
C2091 C 0.35532 0.48581 0.67483 0.0
C2092 C 0.36448 0.50178 0.67126 0.0
C2093 C 0.35781 0.51029 0.65184 0.0
C2094 C 0.38091 0.51016 0.68793 0.0
C2095 C 0.36184 0.47581 0.69074 0.0
C2096 C 0.38597 0.50822 0.74614 0.0
C2097 C 0.401 0.51778 0.76491 0.0
C2098 C 0.41107 0.52968 0.72648 0.0
C2099 C 0.40623 0.53133 0.66769 0.0
C2100 C 0.39137 0.52156 0.64829 0.0
H2101 H 0.35496 0.46434 0.67041 0.0
H2102 H 0.37369 0.48073 0.67404 0.0
H2103 H 0.36174 0.47447 0.74177 0.0
H2104 H 0.37812 0.49987 0.77852 0.0
H2105 H 0.40445 0.51652 0.81098 0.0
H2106 H 0.13431 0.52762 0.66755 0.0
H2107 H 0.14998 0.51661 0.64103 0.0
H2108 H 0.19001 0.558 0.69432 0.0
H2109 H 0.17428 0.5688 0.72499 0.0
H2110 H 0.17167 0.52337 0.56006 0.0
H2111 H 0.19548 0.52814 0.79539 0.0
H2112 H 0.18019 0.53178 0.78 0.0
H2113 H 0.19945 0.54599 0.76325 0.0
C2114 C 0.14642 0.53437 0.67456 0.0
C2115 C 0.15294 0.54904 0.69971 0.0
C2116 C 0.15541 0.52808 0.65869 0.0
C2117 C 0.17118 0.53631 0.66699 0.0
C2118 C 0.17784 0.55124 0.68913 0.0
H2119 H 0.22815 0.50237 0.50754 0.0
H2120 H 0.21612 0.51753 0.52943 0.0
C2121 C 0.16882 0.5575 0.70575 0.0
C2122 C 0.18047 0.52909 0.65282 0.0
H2123 H 0.20519 0.51934 0.7163 0.0
C2124 C 0.17903 0.52252 0.59423 0.0
C2125 C 0.18991 0.52775 0.69763 0.0
C2126 C 0.19127 0.53365 0.76277 0.0
C2127 C 0.18659 0.51457 0.57938 0.0
C2128 C 0.19632 0.51355 0.62369 0.0
C2129 C 0.19787 0.52023 0.68209 0.0
C2130 C 0.20437 0.50495 0.61164 0.0
C2131 C 0.18358 0.50684 0.51721 0.0
C2132 C 0.20237 0.49325 0.65194 0.0
C2133 C 0.20947 0.48478 0.64015 0.0
C2134 C 0.21868 0.48775 0.58756 0.0
C2135 C 0.22094 0.49967 0.54794 0.0
C2136 C 0.214 0.50829 0.56024 0.0
H2137 H 0.17281 0.50506 0.49656 0.0
H2138 H 0.19289 0.51406 0.48489 0.0
H2139 H 0.18299 0.4957 0.52103 0.0
H2140 H 0.19504 0.49046 0.692 0.0
H2141 H 0.20739 0.4756 0.67128 0.0
H2142 H 0.4855 0.61562 0.65795 0.0
H2143 H 0.49708 0.6427 0.6365 0.0
H2144 H 0.47939 0.64889 0.80858 0.0
H2145 H 0.4679 0.62179 0.83067 0.0
H2146 H 0.48508 0.66118 0.62255 0.0
H2147 H 0.5239 0.67981 0.82489 0.0
H2148 H 0.51347 0.66031 0.80043 0.0
H2149 H 0.50423 0.66835 0.84447 0.0
C2150 C 0.48394 0.6227 0.69101 0.0
C2151 C 0.47581 0.61652 0.7462 0.0
C2152 C 0.49063 0.63821 0.67879 0.0
C2153 C 0.48936 0.64792 0.72142 0.0
C2154 C 0.48088 0.64172 0.77573 0.0
H2155 H 0.52975 0.74712 0.70639 0.0
H2156 H 0.51343 0.72029 0.734 0.0
C2157 C 0.47427 0.62621 0.7882 0.0
C2158 C 0.49698 0.66448 0.70873 0.0
H2159 H 0.52393 0.69904 0.76358 0.0
C2160 C 0.49354 0.66944 0.65352 0.0
C2161 C 0.50802 0.67532 0.74917 0.0
C2162 C 0.51276 0.67071 0.80779 0.0
C2163 C 0.50089 0.68486 0.63747 0.0
C2164 C 0.51209 0.69563 0.67736 0.0
C2165 C 0.51528 0.69076 0.73326 0.0
C2166 C 0.5214 0.71184 0.65968 0.0
C2167 C 0.49666 0.68953 0.57777 0.0
C2168 C 0.5313 0.71596 0.60906 0.0
C2169 C 0.54063 0.73118 0.59348 0.0
C2170 C 0.54028 0.74267 0.62822 0.0
C2171 C 0.5302 0.73853 0.67854 0.0
C2172 C 0.52093 0.72324 0.69448 0.0
H2173 H 0.48536 0.68071 0.56084 0.0
H2174 H 0.49658 0.70031 0.58365 0.0
H2175 H 0.50516 0.69131 0.54173 0.0
H2176 H 0.532 0.70737 0.58205 0.0
H2177 H 0.54813 0.73396 0.55404 0.0
H2178 H 0.28342 0.78501 0.58498 0.0
H2179 H 0.31005 0.79557 0.61422 0.0
H2180 H 0.30797 0.83036 0.71976 0.0
H2181 H 0.28128 0.81952 0.69313 0.0
H2182 H 0.33359 0.82332 0.58738 0.0
H2183 H 0.32841 0.81659 0.84183 0.0
H2184 H 0.31229 0.80708 0.7909 0.0
H2185 H 0.31925 0.82648 0.81292 0.0
C2186 C 0.28851 0.79468 0.61568 0.0
C2187 C 0.28014 0.80138 0.6367 0.0
C2188 C 0.3038 0.80079 0.63193 0.0
C2189 C 0.31102 0.81366 0.66988 0.0
C2190 C 0.30263 0.82024 0.69155 0.0
H2191 H 0.40038 0.88103 0.77803 0.0
H2192 H 0.37355 0.86523 0.75372 0.0
C2193 C 0.28737 0.81413 0.67555 0.0
C2194 C 0.3275 0.8208 0.68396 0.0
H2195 H 0.35312 0.83435 0.80265 0.0
C2196 C 0.33785 0.82552 0.63448 0.0
C2197 C 0.33311 0.82365 0.74543 0.0
C2198 C 0.32267 0.81804 0.80077 0.0
C2199 C 0.35359 0.83358 0.64477 0.0
C2200 C 0.35914 0.83692 0.70611 0.0
C2201 C 0.34883 0.83185 0.75561 0.0
C2202 C 0.37557 0.84637 0.71989 0.0
C2203 C 0.36421 0.83898 0.59001 0.0
C2204 C 0.38566 0.84101 0.70901 0.0
C2205 C 0.40107 0.84997 0.72366 0.0
C2206 C 0.40669 0.86448 0.74955 0.0
C2207 C 0.39649 0.86982 0.75953 0.0
C2208 C 0.38112 0.86084 0.74525 0.0
H2209 H 0.35811 0.83734 0.54551 0.0
H2210 H 0.37274 0.85117 0.59514 0.0
H2211 H 0.37039 0.83259 0.58798 0.0
H2212 H 0.38156 0.8298 0.69002 0.0
H2213 H 0.40852 0.8454 0.7159 0.0
loop_
_geom_bond_atom_site_label_1
_geom_bond_atom_site_label_2
_geom_bond_distance
_geom_bond_site_symmetry_2
_ccdc_geom_bond_type
C0 C1 1.333 1_554 S
C0 N3 1.373 . S
C0 H5 0.941 . S
C1 C0 1.333 1_556 S
C1 N2 1.373 . S
C1 H29 0.930 . S
N2 C1 1.373 . S
N2 C4 1.340 . S
N3 C0 1.373 . S
N3 C4 1.321 1_554 S
N3 Co6 2.135 . S
C4 N2 1.340 . S
C4 N3 1.321 1_556 S
C4 H28 0.930 . S
H5 C0 0.941 . S
Co6 N3 2.135 . S
Co6 N9 2.121 . S
Co6 O14 2.055 . S
Co6 O17 2.039 . S
Co6 N20 2.140 . S
C7 O8 1.227 . S
C7 O17 1.265 . S
O8 C7 1.227 . S
N9 Co6 2.121 . S
N9 C11 1.375 . S
N9 C12 1.313 . S
C10 C11 1.338 . S
C10 N13 1.377 . S
C10 H30 0.930 . S
C11 N9 1.375 . S
C11 C10 1.338 . S
C11 H15 0.931 . S
C12 N9 1.313 . S
C12 N13 1.344 . S
C12 H16 0.930 . S
N13 C10 1.377 . S
N13 C12 1.344 . S
O14 Co6 2.055 . S
O14 C18 1.253 . S
H15 C11 0.931 . S
H16 C12 0.930 . S
O17 Co6 2.039 . S
O17 C7 1.265 . S
C18 O14 1.253 . S
C18 O19 1.227 . S
O19 C18 1.227 . S
N20 Co6 2.140 . S
N20 C23 1.346 . S
N20 C24 1.345 . S
C21 C22 1.387 . S
C21 C25 1.391 . S
C22 C21 1.387 . S
C22 C23 1.369 . S
C22 H31 0.929 . S
C23 N20 1.346 . S
C23 C22 1.369 . S
C23 H26 0.928 . S
C24 N20 1.345 . S
C24 C25 1.371 . S
C24 H27 0.931 . S
C25 C21 1.391 . S
C25 C24 1.371 . S
C25 H32 0.930 . S
H26 C23 0.928 . S
H27 C24 0.931 . S
H28 C4 0.930 . S
H29 C1 0.930 . S
H30 C10 0.930 . S
H31 C22 0.929 . S
H32 C25 0.930 . S
C33 C34 1.333 1_554 S
C33 N36 1.373 . S
C33 H38 0.941 . S
C34 C33 1.333 1_556 S
C34 N35 1.373 . S
C34 H62 0.930 . S
N35 C34 1.373 . S
N35 C37 1.340 . S
N36 C33 1.373 . S
N36 C37 1.321 1_554 S
N36 Co39 2.135 . S
C37 N35 1.340 . S
C37 N36 1.321 1_556 S
C37 H61 0.930 . S
H38 C33 0.941 . S
Co39 N36 2.135 . S
Co39 N42 2.121 . S
Co39 O47 2.055 . S
Co39 O50 2.039 . S
Co39 N53 2.140 . S
C40 O41 1.227 . S
C40 O50 1.265 . S
O41 C40 1.227 . S
N42 Co39 2.121 . S
N42 C44 1.375 . S
N42 C45 1.313 . S
C43 C44 1.338 . S
C43 N46 1.377 . S
C43 H63 0.930 . S
C44 N42 1.375 . S
C44 C43 1.338 . S
C44 H48 0.931 . S
C45 N42 1.313 . S
C45 N46 1.344 . S
C45 H49 0.930 . S
N46 C43 1.377 . S
N46 C45 1.344 . S
O47 Co39 2.055 . S
O47 C51 1.253 . S
H48 C44 0.931 . S
H49 C45 0.930 . S
O50 Co39 2.039 . S
O50 C40 1.265 . S
C51 O47 1.253 . S
C51 O52 1.227 . S
O52 C51 1.227 . S
N53 Co39 2.140 . S
N53 C56 1.346 . S
N53 C57 1.345 . S
C54 C55 1.387 . S
C54 C58 1.391 . S
C55 C54 1.387 . S
C55 C56 1.369 . S
C55 H64 0.929 . S
C56 N53 1.346 . S
C56 C55 1.369 . S
C56 H59 0.928 . S
C57 N53 1.345 . S
C57 C58 1.371 . S
C57 H60 0.931 . S
C58 C54 1.391 . S
C58 C57 1.371 . S
C58 H65 0.930 . S
H59 C56 0.928 . S
H60 C57 0.931 . S
H61 C37 0.930 . S
H62 C34 0.930 . S
H63 C43 0.930 . S
H64 C55 0.929 . S
H65 C58 0.930 . S
C66 C67 1.334 1_554 S
C66 N69 1.373 . S
C66 H71 0.941 . S
C67 C66 1.334 1_556 S
C67 N68 1.373 . S
C67 H95 0.930 . S
N68 C67 1.373 . S
N68 C70 1.340 . S
N69 C66 1.373 . S
N69 C70 1.321 1_554 S
N69 Co72 2.135 . S
C70 N68 1.340 . S
C70 N69 1.321 1_556 S
C70 H94 0.930 . S
H71 C66 0.941 . S
Co72 N69 2.135 . S
Co72 N75 2.121 . S
Co72 O80 2.055 . S
Co72 O83 2.039 . S
Co72 N86 2.140 . S
C73 O74 1.227 . S
C73 O83 1.265 . S
O74 C73 1.227 . S
N75 Co72 2.121 . S
N75 C77 1.375 . S
N75 C78 1.313 . S
C76 C77 1.338 . S
C76 N79 1.377 . S
C76 H96 0.930 . S
C77 N75 1.375 . S
C77 C76 1.338 . S
C77 H81 0.931 . S
C78 N75 1.313 . S
C78 N79 1.344 . S
C78 H82 0.930 . S
N79 C76 1.377 . S
N79 C78 1.344 . S
O80 Co72 2.055 . S
O80 C84 1.253 . S
H81 C77 0.931 . S
H82 C78 0.930 . S
O83 Co72 2.039 . S
O83 C73 1.265 . S
C84 O80 1.253 . S
C84 O85 1.227 . S
O85 C84 1.227 . S
N86 Co72 2.140 . S
N86 C89 1.346 . S
N86 C90 1.345 . S
C87 C88 1.387 . S
C87 C91 1.391 . S
C88 C87 1.387 . S
C88 C89 1.369 . S
C88 H97 0.929 . S
C89 N86 1.346 . S
C89 C88 1.369 . S
C89 H92 0.928 . S
C90 N86 1.345 . S
C90 C91 1.371 . S
C90 H93 0.931 . S
C91 C87 1.391 . S
C91 C90 1.371 . S
C91 H98 0.930 . S
H92 C89 0.928 . S
H93 C90 0.931 . S
H94 C70 0.930 . S
H95 C67 0.930 . S
H96 C76 0.930 . S
H97 C88 0.929 . S
H98 C91 0.930 . S
C99 C100 1.333 1_556 S
C99 N102 1.373 . S
C99 H104 0.941 . S
C100 C99 1.333 1_554 S
C100 N101 1.373 . S
C100 H128 0.930 . S
N101 C100 1.373 . S
N101 C103 1.340 . S
N102 C99 1.373 . S
N102 C103 1.321 1_556 S
N102 Co105 2.135 . S
C103 N101 1.340 . S
C103 N102 1.321 1_554 S
C103 H127 0.930 . S
H104 C99 0.941 . S
Co105 N102 2.135 . S
Co105 N108 2.121 . S
Co105 O113 2.055 . S
Co105 O116 2.039 . S
Co105 N119 2.140 . S
C106 O107 1.227 . S
C106 O116 1.265 . S
O107 C106 1.227 . S
N108 Co105 2.121 . S
N108 C110 1.375 . S
N108 C111 1.313 . S
C109 C110 1.338 . S
C109 N112 1.377 . S
C109 H129 0.930 . S
C110 N108 1.375 . S
C110 C109 1.338 . S
C110 H114 0.931 . S
C111 N108 1.313 . S
C111 N112 1.344 . S
C111 H115 0.930 . S
N112 C109 1.377 . S
N112 C111 1.344 . S
O113 Co105 2.055 . S
O113 C117 1.253 . S
H114 C110 0.931 . S
H115 C111 0.930 . S
O116 Co105 2.039 . S
O116 C106 1.265 . S
C117 O113 1.253 . S
C117 O118 1.227 . S
O118 C117 1.227 . S
N119 Co105 2.140 . S
N119 C122 1.346 . S
N119 C123 1.345 . S
C120 C121 1.387 . S
C120 C124 1.391 . S
C121 C120 1.387 . S
C121 C122 1.369 . S
C121 H130 0.929 . S
C122 N119 1.346 . S
C122 C121 1.369 . S
C122 H125 0.928 . S
C123 N119 1.345 . S
C123 C124 1.371 . S
C123 H126 0.931 . S
C124 C120 1.391 . S
C124 C123 1.371 . S
C124 H131 0.930 . S
H125 C122 0.928 . S
H126 C123 0.931 . S
H127 C103 0.930 . S
H128 C100 0.930 . S
H129 C109 0.930 . S
H130 C121 0.929 . S
H131 C124 0.930 . S
C132 C133 1.334 1_556 S
C132 N135 1.373 . S
C132 H137 0.941 . S
C133 C132 1.334 1_554 S
C133 N134 1.373 . S
C133 H161 0.930 . S
N134 C133 1.373 . S
N134 C136 1.340 . S
N135 C132 1.373 . S
N135 C136 1.321 1_556 S
N135 Co138 2.135 . S
C136 N134 1.340 . S
C136 N135 1.321 1_554 S
C136 H160 0.930 . S
H137 C132 0.941 . S
Co138 N135 2.135 . S
Co138 N141 2.121 . S
Co138 O146 2.055 . S
Co138 O149 2.039 . S
Co138 N152 2.140 . S
C139 O140 1.227 . S
C139 O149 1.265 . S
O140 C139 1.227 . S
N141 Co138 2.121 . S
N141 C143 1.375 . S
N141 C144 1.313 . S
C142 C143 1.338 . S
C142 N145 1.377 . S
C142 H162 0.930 . S
C143 N141 1.375 . S
C143 C142 1.338 . S
C143 H147 0.931 . S
C144 N141 1.313 . S
C144 N145 1.344 . S
C144 H148 0.930 . S
N145 C142 1.377 . S
N145 C144 1.344 . S
O146 Co138 2.055 . S
O146 C150 1.253 . S
H147 C143 0.931 . S
H148 C144 0.930 . S
O149 Co138 2.039 . S
O149 C139 1.265 . S
C150 O146 1.253 . S
C150 O151 1.227 . S
O151 C150 1.227 . S
N152 Co138 2.140 . S
N152 C155 1.346 . S
N152 C156 1.345 . S
C153 C154 1.387 . S
C153 C157 1.391 . S
C154 C153 1.387 . S
C154 C155 1.369 . S
C154 H163 0.929 . S
C155 N152 1.346 . S
C155 C154 1.369 . S
C155 H158 0.928 . S
C156 N152 1.345 . S
C156 C157 1.371 . S
C156 H159 0.931 . S
C157 C153 1.391 . S
C157 C156 1.371 . S
C157 H164 0.930 . S
H158 C155 0.928 . S
H159 C156 0.931 . S
H160 C136 0.930 . S
H161 C133 0.930 . S
H162 C142 0.930 . S
H163 C154 0.929 . S
H164 C157 0.930 . S
C165 C166 1.333 1_556 S
C165 N168 1.373 . S
C165 H170 0.941 . S
C166 C165 1.333 1_554 S
C166 N167 1.373 . S
C166 H194 0.930 . S
N167 C166 1.373 . S
N167 C169 1.340 . S
N168 C165 1.373 . S
N168 C169 1.321 1_556 S
N168 Co171 2.135 . S
C169 N167 1.340 . S
C169 N168 1.321 1_554 S
C169 H193 0.930 . S
H170 C165 0.941 . S
Co171 N168 2.135 . S
Co171 N174 2.121 . S
Co171 O179 2.055 . S
Co171 O182 2.039 . S
Co171 N185 2.140 . S
C172 O173 1.227 . S
C172 O182 1.265 . S
O173 C172 1.227 . S
N174 Co171 2.121 . S
N174 C176 1.375 . S
N174 C177 1.313 . S
C175 C176 1.338 . S
C175 N178 1.377 . S
C175 H195 0.930 . S
C176 N174 1.375 . S
C176 C175 1.338 . S
C176 H180 0.931 . S
C177 N174 1.313 . S
C177 N178 1.344 . S
C177 H181 0.930 . S
N178 C175 1.377 . S
N178 C177 1.344 . S
O179 Co171 2.055 . S
O179 C183 1.253 . S
H180 C176 0.931 . S
H181 C177 0.930 . S
O182 Co171 2.039 . S
O182 C172 1.265 . S
C183 O179 1.253 . S
C183 O184 1.227 . S
O184 C183 1.227 . S
N185 Co171 2.140 . S
N185 C188 1.346 . S
N185 C189 1.345 . S
C186 C187 1.387 . S
C186 C190 1.391 . S
C187 C186 1.387 . S
C187 C188 1.369 . S
C187 H196 0.929 . S
C188 N185 1.346 . S
C188 C187 1.369 . S
C188 H191 0.928 . S
C189 N185 1.345 . S
C189 C190 1.371 . S
C189 H192 0.931 . S
C190 C186 1.391 . S
C190 C189 1.371 . S
C190 H197 0.930 . S
H191 C188 0.928 . S
H192 C189 0.931 . S
H193 C169 0.930 . S
H194 C166 0.930 . S
H195 C175 0.930 . S
H196 C187 0.929 . S
H197 C190 0.930 . S
C198 C199 1.351 . S
C198 N201 1.368 . S
C198 H203 0.931 . S
C199 C198 1.351 . S
C199 N200 1.373 . S
C199 H227 0.930 . S
N200 C199 1.373 . S
N200 C202 1.340 . S
N201 C198 1.368 . S
N201 C202 1.321 . S
N201 Co204 2.135 . S
C202 N200 1.340 . S
C202 N201 1.321 . S
C202 H226 0.930 . S
H203 C198 0.931 . S
Co204 N201 2.135 . S
Co204 N207 2.121 . S
Co204 O212 2.055 . S
Co204 O215 2.039 . S
Co204 N218 2.140 . S
C205 O206 1.227 . S
C205 O215 1.265 . S
O206 C205 1.227 . S
N207 Co204 2.121 . S
N207 C209 1.375 . S
N207 C210 1.313 . S
C208 C209 1.338 . S
C208 N211 1.377 . S
C208 H228 0.930 . S
C209 N207 1.375 . S
C209 C208 1.338 . S
C209 H213 0.931 . S
C210 N207 1.313 . S
C210 N211 1.344 . S
C210 H214 0.930 . S
N211 C208 1.377 . S
N211 C210 1.344 . S
O212 Co204 2.055 . S
O212 C216 1.253 . S
H213 C209 0.931 . S
H214 C210 0.930 . S
O215 Co204 2.039 . S
O215 C205 1.265 . S
C216 O212 1.253 . S
C216 O217 1.227 . S
O217 C216 1.227 . S
N218 Co204 2.140 . S
N218 C221 1.346 . S
N218 C222 1.345 . S
C219 C220 1.387 . S
C219 C223 1.391 . S
C220 C219 1.387 . S
C220 C221 1.369 . S
C220 H229 0.929 . S
C221 N218 1.346 . S
C221 C220 1.369 . S
C221 H224 0.928 . S
C222 N218 1.345 . S
C222 C223 1.371 . S
C222 H225 0.931 . S
C223 C219 1.391 . S
C223 C222 1.371 . S
C223 H230 0.930 . S
H224 C221 0.928 . S
H225 C222 0.931 . S
H226 C202 0.930 . S
H227 C199 0.930 . S
H228 C208 0.930 . S
H229 C220 0.929 . S
H230 C223 0.930 . S
C231 C232 1.351 . S
C231 N234 1.368 . S
C231 H236 0.931 . S
C232 C231 1.351 . S
C232 N233 1.373 . S
C232 H260 0.930 . S
N233 C232 1.373 . S
N233 C235 1.340 . S
N234 C231 1.368 . S
N234 C235 1.321 . S
N234 Co237 2.135 . S
C235 N233 1.340 . S
C235 N234 1.321 . S
C235 H259 0.930 . S
H236 C231 0.931 . S
Co237 N234 2.135 . S
Co237 N240 2.121 . S
Co237 O245 2.055 . S
Co237 O248 2.039 . S
Co237 N251 2.140 . S
C238 O239 1.227 . S
C238 O248 1.265 . S
O239 C238 1.227 . S
N240 Co237 2.121 . S
N240 C242 1.375 . S
N240 C243 1.313 . S
C241 C242 1.338 . S
C241 N244 1.377 . S
C241 H261 0.930 . S
C242 N240 1.375 . S
C242 C241 1.338 . S
C242 H246 0.931 . S
C243 N240 1.313 . S
C243 N244 1.344 . S
C243 H247 0.930 . S
N244 C241 1.377 . S
N244 C243 1.344 . S
O245 Co237 2.055 . S
O245 C249 1.253 . S
H246 C242 0.931 . S
H247 C243 0.930 . S
O248 Co237 2.039 . S
O248 C238 1.265 . S
C249 O245 1.253 . S
C249 O250 1.227 . S
O250 C249 1.227 . S
N251 Co237 2.140 . S
N251 C254 1.346 . S
N251 C255 1.345 . S
C252 C253 1.387 . S
C252 C256 1.391 . S
C253 C252 1.387 . S
C253 C254 1.369 . S
C253 H262 0.929 . S
C254 N251 1.346 . S
C254 C253 1.369 . S
C254 H257 0.928 . S
C255 N251 1.345 . S
C255 C256 1.371 . S
C255 H258 0.931 . S
C256 C252 1.391 . S
C256 C255 1.371 . S
C256 H263 0.930 . S
H257 C254 0.928 . S
H258 C255 0.931 . S
H259 C235 0.930 . S
H260 C232 0.930 . S
H261 C241 0.930 . S
H262 C253 0.929 . S
H263 C256 0.930 . S
C264 C265 1.351 . S
C264 N267 1.368 . S
C264 H269 0.931 . S
C265 C264 1.351 . S
C265 N266 1.373 . S
C265 H293 0.930 . S
N266 C265 1.373 . S
N266 C268 1.340 . S
N267 C264 1.368 . S
N267 C268 1.321 . S
N267 Co270 2.135 . S
C268 N266 1.340 . S
C268 N267 1.321 . S
C268 H292 0.930 . S
H269 C264 0.931 . S
Co270 N267 2.135 . S
Co270 N273 2.121 . S
Co270 O278 2.055 . S
Co270 O281 2.039 . S
Co270 N284 2.140 . S
C271 O272 1.227 . S
C271 O281 1.265 . S
O272 C271 1.227 . S
N273 Co270 2.121 . S
N273 C275 1.375 . S
N273 C276 1.313 . S
C274 C275 1.338 . S
C274 N277 1.377 . S
C274 H294 0.930 . S
C275 N273 1.375 . S
C275 C274 1.338 . S
C275 H279 0.931 . S
C276 N273 1.313 . S
C276 N277 1.344 . S
C276 H280 0.930 . S
N277 C274 1.377 . S
N277 C276 1.344 . S
O278 Co270 2.055 . S
O278 C282 1.253 . S
H279 C275 0.931 . S
H280 C276 0.930 . S
O281 Co270 2.039 . S
O281 C271 1.265 . S
C282 O278 1.253 . S
C282 O283 1.227 . S
O283 C282 1.227 . S
N284 Co270 2.140 . S
N284 C287 1.346 . S
N284 C288 1.345 . S
C285 C286 1.387 . S
C285 C289 1.391 . S
C286 C285 1.387 . S
C286 C287 1.369 . S
C286 H295 0.929 . S
C287 N284 1.346 . S
C287 C286 1.369 . S
C287 H290 0.928 . S
C288 N284 1.345 . S
C288 C289 1.371 . S
C288 H291 0.931 . S
C289 C285 1.391 . S
C289 C288 1.371 . S
C289 H296 0.930 . S
H290 C287 0.928 . S
H291 C288 0.931 . S
H292 C268 0.930 . S
H293 C265 0.930 . S
H294 C274 0.930 . S
H295 C286 0.929 . S
H296 C289 0.930 . S
C297 C298 1.351 . S
C297 N300 1.368 . S
C297 H302 0.931 . S
C298 C297 1.351 . S
C298 N299 1.373 . S
C298 H326 0.930 . S
N299 C298 1.373 . S
N299 C301 1.340 . S
N300 C297 1.368 . S
N300 C301 1.321 . S
N300 Co303 2.135 . S
C301 N299 1.340 . S
C301 N300 1.321 . S
C301 H325 0.930 . S
H302 C297 0.931 . S
Co303 N300 2.135 . S
Co303 N306 2.121 . S
Co303 O311 2.055 . S
Co303 O314 2.039 . S
Co303 N317 2.140 . S
C304 O305 1.227 . S
C304 O314 1.265 . S
O305 C304 1.227 . S
N306 Co303 2.121 . S
N306 C308 1.375 . S
N306 C309 1.313 . S
C307 C308 1.338 . S
C307 N310 1.377 . S
C307 H327 0.930 . S
C308 N306 1.375 . S
C308 C307 1.338 . S
C308 H312 0.931 . S
C309 N306 1.313 . S
C309 N310 1.344 . S
C309 H313 0.930 . S
N310 C307 1.377 . S
N310 C309 1.344 . S
O311 Co303 2.055 . S
O311 C315 1.253 . S
H312 C308 0.931 . S
H313 C309 0.930 . S
O314 Co303 2.039 . S
O314 C304 1.265 . S
C315 O311 1.253 . S
C315 O316 1.227 . S
O316 C315 1.227 . S
N317 Co303 2.140 . S
N317 C320 1.346 . S
N317 C321 1.345 . S
C318 C319 1.387 . S
C318 C322 1.391 . S
C319 C318 1.387 . S
C319 C320 1.369 . S
C319 H328 0.929 . S
C320 N317 1.346 . S
C320 C319 1.369 . S
C320 H323 0.928 . S
C321 N317 1.345 . S
C321 C322 1.371 . S
C321 H324 0.931 . S
C322 C318 1.391 . S
C322 C321 1.371 . S
C322 H329 0.930 . S
H323 C320 0.928 . S
H324 C321 0.931 . S
H325 C301 0.930 . S
H326 C298 0.930 . S
H327 C307 0.930 . S
H328 C319 0.929 . S
H329 C322 0.930 . S
C330 C331 1.351 . S
C330 N333 1.368 . S
C330 H335 0.931 . S
C331 C330 1.351 . S
C331 N332 1.373 . S
C331 H359 0.930 . S
N332 C331 1.373 . S
N332 C334 1.340 . S
N333 C330 1.368 . S
N333 C334 1.321 . S
N333 Co336 2.135 . S
C334 N332 1.340 . S
C334 N333 1.321 . S
C334 H358 0.930 . S
H335 C330 0.931 . S
Co336 N333 2.135 . S
Co336 N339 2.121 . S
Co336 O344 2.055 . S
Co336 O347 2.039 . S
Co336 N350 2.140 . S
C337 O338 1.227 . S
C337 O347 1.265 . S
O338 C337 1.227 . S
N339 Co336 2.121 . S
N339 C341 1.375 . S
N339 C342 1.313 . S
C340 C341 1.338 . S
C340 N343 1.377 . S
C340 H360 0.930 . S
C341 N339 1.375 . S
C341 C340 1.338 . S
C341 H345 0.931 . S
C342 N339 1.313 . S
C342 N343 1.344 . S
C342 H346 0.930 . S
N343 C340 1.377 . S
N343 C342 1.344 . S
O344 Co336 2.055 . S
O344 C348 1.253 . S
H345 C341 0.931 . S
H346 C342 0.930 . S
O347 Co336 2.039 . S
O347 C337 1.265 . S
C348 O344 1.253 . S
C348 O349 1.227 . S
O349 C348 1.227 . S
N350 Co336 2.140 . S
N350 C353 1.346 . S
N350 C354 1.345 . S
C351 C352 1.387 . S
C351 C355 1.391 . S
C352 C351 1.387 . S
C352 C353 1.369 . S
C352 H361 0.929 . S
C353 N350 1.346 . S
C353 C352 1.369 . S
C353 H356 0.928 . S
C354 N350 1.345 . S
C354 C355 1.371 . S
C354 H357 0.931 . S
C355 C351 1.391 . S
C355 C354 1.371 . S
C355 H362 0.930 . S
H356 C353 0.928 . S
H357 C354 0.931 . S
H358 C334 0.930 . S
H359 C331 0.930 . S
H360 C340 0.930 . S
H361 C352 0.929 . S
H362 C355 0.930 . S
C363 C364 1.351 . S
C363 N366 1.368 . S
C363 H368 0.931 . S
C364 C363 1.351 . S
C364 N365 1.373 . S
C364 H392 0.930 . S
N365 C364 1.373 . S
N365 C367 1.340 . S
N366 C363 1.368 . S
N366 C367 1.321 . S
N366 Co369 2.135 . S
C367 N365 1.340 . S
C367 N366 1.321 . S
C367 H391 0.930 . S
H368 C363 0.931 . S
Co369 N366 2.135 . S
Co369 N372 2.121 . S
Co369 O377 2.055 . S
Co369 O380 2.039 . S
Co369 N383 2.140 . S
C370 O371 1.227 . S
C370 O380 1.265 . S
O371 C370 1.227 . S
N372 Co369 2.121 . S
N372 C374 1.375 . S
N372 C375 1.313 . S
C373 C374 1.338 . S
C373 N376 1.377 . S
C373 H393 0.930 . S
C374 N372 1.375 . S
C374 C373 1.338 . S
C374 H378 0.931 . S
C375 N372 1.313 . S
C375 N376 1.344 . S
C375 H379 0.930 . S
N376 C373 1.377 . S
N376 C375 1.344 . S
O377 Co369 2.055 . S
O377 C381 1.253 . S
H378 C374 0.931 . S
H379 C375 0.930 . S
O380 Co369 2.039 . S
O380 C370 1.265 . S
C381 O377 1.253 . S
C381 O382 1.227 . S
O382 C381 1.227 . S
N383 Co369 2.140 . S
N383 C386 1.346 . S
N383 C387 1.345 . S
C384 C385 1.387 . S
C384 C388 1.391 . S
C385 C384 1.387 . S
C385 C386 1.369 . S
C385 H394 0.929 . S
C386 N383 1.346 . S
C386 C385 1.369 . S
C386 H389 0.928 . S
C387 N383 1.345 . S
C387 C388 1.371 . S
C387 H390 0.931 . S
C388 C384 1.391 . S
C388 C387 1.371 . S
C388 H395 0.930 . S
H389 C386 0.928 . S
H390 C387 0.931 . S
H391 C367 0.930 . S
H392 C364 0.930 . S
H393 C373 0.930 . S
H394 C385 0.929 . S
H395 C388 0.930 . S
C396 C397 1.351 . S
C396 N399 1.368 . S
C396 H401 0.931 . S
C397 C396 1.351 . S
C397 N398 1.373 . S
C397 H425 0.930 . S
N398 C397 1.373 . S
N398 C400 1.340 . S
N399 C396 1.368 . S
N399 C400 1.321 . S
N399 Co402 2.135 . S
C400 N398 1.340 . S
C400 N399 1.321 . S
C400 H424 0.930 . S
H401 C396 0.931 . S
Co402 N399 2.135 . S
Co402 N405 2.121 . S
Co402 O410 2.055 . S
Co402 O413 2.039 . S
Co402 N416 2.140 . S
C403 O404 1.227 . S
C403 O413 1.265 . S
O404 C403 1.227 . S
N405 Co402 2.121 . S
N405 C407 1.375 . S
N405 C408 1.313 . S
C406 C407 1.338 . S
C406 N409 1.377 . S
C406 H426 0.930 . S
C407 N405 1.375 . S
C407 C406 1.338 . S
C407 H411 0.931 . S
C408 N405 1.313 . S
C408 N409 1.344 . S
C408 H412 0.930 . S
N409 C406 1.377 . S
N409 C408 1.344 . S
O410 Co402 2.055 . S
O410 C414 1.253 . S
H411 C407 0.931 . S
H412 C408 0.930 . S
O413 Co402 2.039 . S
O413 C403 1.265 . S
C414 O410 1.253 . S
C414 O415 1.227 . S
O415 C414 1.227 . S
N416 Co402 2.140 . S
N416 C419 1.346 . S
N416 C420 1.345 . S
C417 C418 1.387 . S
C417 C421 1.391 . S
C418 C417 1.387 . S
C418 C419 1.369 . S
C418 H427 0.929 . S
C419 N416 1.346 . S
C419 C418 1.369 . S
C419 H422 0.928 . S
C420 N416 1.345 . S
C420 C421 1.371 . S
C420 H423 0.931 . S
C421 C417 1.391 . S
C421 C420 1.371 . S
C421 H428 0.930 . S
H422 C419 0.928 . S
H423 C420 0.931 . S
H424 C400 0.930 . S
H425 C397 0.930 . S
H426 C406 0.930 . S
H427 C418 0.929 . S
H428 C421 0.930 . S
C429 C430 1.351 . S
C429 N432 1.368 . S
C429 H434 0.931 . S
C430 C429 1.351 . S
C430 N431 1.373 . S
C430 H458 0.930 . S
N431 C430 1.373 . S
N431 C433 1.340 . S
N432 C429 1.368 . S
N432 C433 1.321 . S
N432 Co435 2.135 . S
C433 N431 1.340 . S
C433 N432 1.321 . S
C433 H457 0.930 . S
H434 C429 0.931 . S
Co435 N432 2.135 . S
Co435 N438 2.121 . S
Co435 O443 2.055 . S
Co435 O446 2.039 . S
Co435 N449 2.140 . S
C436 O437 1.227 . S
C436 O446 1.265 . S
O437 C436 1.227 . S
N438 Co435 2.121 . S
N438 C440 1.375 . S
N438 C441 1.313 . S
C439 C440 1.338 . S
C439 N442 1.377 . S
C439 H459 0.930 . S
C440 N438 1.375 . S
C440 C439 1.338 . S
C440 H444 0.931 . S
C441 N438 1.313 . S
C441 N442 1.344 . S
C441 H445 0.930 . S
N442 C439 1.377 . S
N442 C441 1.344 . S
O443 Co435 2.055 . S
O443 C447 1.253 . S
H444 C440 0.931 . S
H445 C441 0.930 . S
O446 Co435 2.039 . S
O446 C436 1.265 . S
C447 O443 1.253 . S
C447 O448 1.227 . S
O448 C447 1.227 . S
N449 Co435 2.140 . S
N449 C452 1.346 . S
N449 C453 1.345 . S
C450 C451 1.387 . S
C450 C454 1.391 . S
C451 C450 1.387 . S
C451 C452 1.369 . S
C451 H460 0.929 . S
C452 N449 1.346 . S
C452 C451 1.369 . S
C452 H455 0.928 . S
C453 N449 1.345 . S
C453 C454 1.371 . S
C453 H456 0.931 . S
C454 C450 1.391 . S
C454 C453 1.371 . S
C454 H461 0.930 . S
H455 C452 0.928 . S
H456 C453 0.931 . S
H457 C433 0.930 . S
H458 C430 0.930 . S
H459 C439 0.930 . S
H460 C451 0.929 . S
H461 C454 0.930 . S
C462 C463 1.351 . S
C462 N465 1.368 . S
C462 H467 0.931 . S
C463 C462 1.351 . S
C463 N464 1.373 . S
C463 H491 0.930 . S
N464 C463 1.373 . S
N464 C466 1.340 . S
N465 C462 1.368 . S
N465 C466 1.321 . S
N465 Co468 2.135 . S
C466 N464 1.340 . S
C466 N465 1.321 . S
C466 H490 0.930 . S
H467 C462 0.931 . S
Co468 N465 2.135 . S
Co468 N471 2.121 . S
Co468 O476 2.055 . S
Co468 O479 2.039 . S
Co468 N482 2.140 . S
C469 O470 1.227 . S
C469 O479 1.265 . S
O470 C469 1.227 . S
N471 Co468 2.121 . S
N471 C473 1.375 . S
N471 C474 1.313 . S
C472 C473 1.338 . S
C472 N475 1.377 . S
C472 H492 0.930 . S
C473 N471 1.375 . S
C473 C472 1.338 . S
C473 H477 0.931 . S
C474 N471 1.313 . S
C474 N475 1.344 . S
C474 H478 0.930 . S
N475 C472 1.377 . S
N475 C474 1.344 . S
O476 Co468 2.055 . S
O476 C480 1.253 . S
H477 C473 0.931 . S
H478 C474 0.930 . S
O479 Co468 2.039 . S
O479 C469 1.265 . S
C480 O476 1.253 . S
C480 O481 1.227 . S
O481 C480 1.227 . S
N482 Co468 2.140 . S
N482 C485 1.346 . S
N482 C486 1.345 . S
C483 C484 1.387 . S
C483 C487 1.391 . S
C484 C483 1.387 . S
C484 C485 1.369 . S
C484 H493 0.929 . S
C485 N482 1.346 . S
C485 C484 1.369 . S
C485 H488 0.928 . S
C486 N482 1.345 . S
C486 C487 1.371 . S
C486 H489 0.931 . S
C487 C483 1.391 . S
C487 C486 1.371 . S
C487 H494 0.930 . S
H488 C485 0.928 . S
H489 C486 0.931 . S
H490 C466 0.930 . S
H491 C463 0.930 . S
H492 C472 0.930 . S
H493 C484 0.929 . S
H494 C487 0.930 . S
C495 C496 1.351 . S
C495 N498 1.368 . S
C495 H500 0.931 . S
C496 C495 1.351 . S
C496 N497 1.373 . S
C496 H524 0.930 . S
N497 C496 1.373 . S
N497 C499 1.340 . S
N498 C495 1.368 . S
N498 C499 1.321 . S
N498 Co501 2.135 . S
C499 N497 1.340 . S
C499 N498 1.321 . S
C499 H523 0.930 . S
H500 C495 0.931 . S
Co501 N498 2.135 . S
Co501 N504 2.121 . S
Co501 O509 2.055 . S
Co501 O512 2.039 . S
Co501 N515 2.140 . S
C502 O503 1.227 . S
C502 O512 1.265 . S
O503 C502 1.227 . S
N504 Co501 2.121 . S
N504 C506 1.375 . S
N504 C507 1.313 . S
C505 C506 1.338 . S
C505 N508 1.377 . S
C505 H525 0.930 . S
C506 N504 1.375 . S
C506 C505 1.338 . S
C506 H510 0.931 . S
C507 N504 1.313 . S
C507 N508 1.344 . S
C507 H511 0.930 . S
N508 C505 1.377 . S
N508 C507 1.344 . S
O509 Co501 2.055 . S
O509 C513 1.253 . S
H510 C506 0.931 . S
H511 C507 0.930 . S
O512 Co501 2.039 . S
O512 C502 1.265 . S
C513 O509 1.253 . S
C513 O514 1.227 . S
O514 C513 1.227 . S
N515 Co501 2.140 . S
N515 C518 1.346 . S
N515 C519 1.345 . S
C516 C517 1.387 . S
C516 C520 1.391 . S
C517 C516 1.387 . S
C517 C518 1.369 . S
C517 H526 0.929 . S
C518 N515 1.346 . S
C518 C517 1.369 . S
C518 H521 0.928 . S
C519 N515 1.345 . S
C519 C520 1.371 . S
C519 H522 0.931 . S
C520 C516 1.391 . S
C520 C519 1.371 . S
C520 H527 0.930 . S
H521 C518 0.928 . S
H522 C519 0.931 . S
H523 C499 0.930 . S
H524 C496 0.930 . S
H525 C505 0.930 . S
H526 C517 0.929 . S
H527 C520 0.930 . S
C528 C529 1.351 . S
C528 N531 1.368 . S
C528 H533 0.931 . S
C529 C528 1.351 . S
C529 N530 1.373 . S
C529 H557 0.930 . S
N530 C529 1.373 . S
N530 C532 1.340 . S
N531 C528 1.368 . S
N531 C532 1.321 . S
N531 Co534 2.135 . S
C532 N530 1.340 . S
C532 N531 1.321 . S
C532 H556 0.930 . S
H533 C528 0.931 . S
Co534 N531 2.135 . S
Co534 N537 2.121 . S
Co534 O542 2.055 . S
Co534 O545 2.039 . S
Co534 N548 2.140 . S
C535 O536 1.227 . S
C535 O545 1.265 . S
O536 C535 1.227 . S
N537 Co534 2.121 . S
N537 C539 1.375 . S
N537 C540 1.313 . S
C538 C539 1.338 . S
C538 N541 1.377 . S
C538 H558 0.930 . S
C539 N537 1.375 . S
C539 C538 1.338 . S
C539 H543 0.931 . S
C540 N537 1.313 . S
C540 N541 1.344 . S
C540 H544 0.930 . S
N541 C538 1.377 . S
N541 C540 1.344 . S
O542 Co534 2.055 . S
O542 C546 1.253 . S
H543 C539 0.931 . S
H544 C540 0.930 . S
O545 Co534 2.039 . S
O545 C535 1.265 . S
C546 O542 1.253 . S
C546 O547 1.227 . S
O547 C546 1.227 . S
N548 Co534 2.140 . S
N548 C551 1.346 . S
N548 C552 1.345 . S
C549 C550 1.387 . S
C549 C553 1.391 . S
C550 C549 1.387 . S
C550 C551 1.369 . S
C550 H559 0.929 . S
C551 N548 1.346 . S
C551 C550 1.369 . S
C551 H554 0.928 . S
C552 N548 1.345 . S
C552 C553 1.371 . S
C552 H555 0.931 . S
C553 C549 1.391 . S
C553 C552 1.371 . S
C553 H560 0.930 . S
H554 C551 0.928 . S
H555 C552 0.931 . S
H556 C532 0.930 . S
H557 C529 0.930 . S
H558 C538 0.930 . S
H559 C550 0.929 . S
H560 C553 0.930 . S
C561 C562 1.351 . S
C561 N564 1.368 . S
C561 H566 0.931 . S
C562 C561 1.351 . S
C562 N563 1.373 . S
C562 H590 0.930 . S
N563 C562 1.373 . S
N563 C565 1.340 . S
N564 C561 1.368 . S
N564 C565 1.321 . S
N564 Co567 2.135 . S
C565 N563 1.340 . S
C565 N564 1.321 . S
C565 H589 0.930 . S
H566 C561 0.931 . S
Co567 N564 2.135 . S
Co567 N570 2.121 . S
Co567 O575 2.055 . S
Co567 O578 2.039 . S
Co567 N581 2.140 . S
C568 O569 1.227 . S
C568 O578 1.265 . S
O569 C568 1.227 . S
N570 Co567 2.121 . S
N570 C572 1.375 . S
N570 C573 1.313 . S
C571 C572 1.338 . S
C571 N574 1.377 . S
C571 H591 0.930 . S
C572 N570 1.375 . S
C572 C571 1.338 . S
C572 H576 0.931 . S
C573 N570 1.313 . S
C573 N574 1.344 . S
C573 H577 0.930 . S
N574 C571 1.377 . S
N574 C573 1.344 . S
O575 Co567 2.055 . S
O575 C579 1.253 . S
H576 C572 0.931 . S
H577 C573 0.930 . S
O578 Co567 2.039 . S
O578 C568 1.265 . S
C579 O575 1.253 . S
C579 O580 1.227 . S
O580 C579 1.227 . S
N581 Co567 2.140 . S
N581 C584 1.346 . S
N581 C585 1.345 . S
C582 C583 1.387 . S
C582 C586 1.391 . S
C583 C582 1.387 . S
C583 C584 1.369 . S
C583 H592 0.929 . S
C584 N581 1.346 . S
C584 C583 1.369 . S
C584 H587 0.928 . S
C585 N581 1.345 . S
C585 C586 1.371 . S
C585 H588 0.931 . S
C586 C582 1.391 . S
C586 C585 1.371 . S
C586 H593 0.930 . S
H587 C584 0.928 . S
H588 C585 0.931 . S
H589 C565 0.930 . S
H590 C562 0.930 . S
H591 C571 0.930 . S
H592 C583 0.929 . S
H593 C586 0.930 . S
H594 C602 0.929 . S
H595 C604 0.930 . S
H596 C606 0.930 . S
H597 C609 0.929 . S
H598 C612 0.930 . S
H599 C614 0.960 . S
H600 C614 0.960 . S
H601 C614 0.960 . S
C602 H594 0.929 . S
C602 C603 1.377 . S
C602 C604 1.384 . S
C603 C602 1.377 . S
C603 C609 1.390 . S
C604 H595 0.930 . S
C604 C602 1.384 . S
C604 C605 1.372 . S
C605 C604 1.372 . S
C605 C606 1.400 . S
C605 C610 1.490 . S
C606 H596 0.930 . S
C606 C605 1.400 . S
C606 C609 1.386 . S
H607 C623 0.930 . S
H608 C624 0.931 . S
C609 H597 0.929 . S
C609 C603 1.390 . S
C609 C606 1.386 . S
C610 C605 1.490 . S
C610 C612 1.395 . S
C610 C613 1.403 . S
H611 C617 0.930 . S
C612 H598 0.930 . S
C612 C610 1.395 . S
C612 C615 1.403 . S
C613 C610 1.403 . S
C613 C614 1.524 . S
C613 C617 1.400 . S
C614 H599 0.960 . S
C614 H600 0.960 . S
C614 H601 0.960 . S
C614 C613 1.524 . S
C615 C612 1.403 . S
C615 C616 1.392 . S
C615 C619 1.495 . S
C616 C615 1.392 . S
C616 C617 1.385 . S
C616 C618 1.478 . S
C617 H611 0.930 . S
C617 C613 1.400 . S
C617 C616 1.385 . S
C618 C616 1.478 . S
C618 C620 1.381 . S
C618 C624 1.383 . S
C619 C615 1.495 . S
C619 H625 0.959 . S
C619 H626 0.961 . S
C619 H627 0.960 . S
C620 C618 1.381 . S
C620 C621 1.394 . S
C620 H628 0.930 . S
C621 C620 1.394 . S
C621 C622 1.383 . S
C621 H629 0.929 . S
C622 C621 1.383 . S
C622 C623 1.377 . S
C623 H607 0.930 . S
C623 C622 1.377 . S
C623 C624 1.379 . S
C624 H608 0.931 . S
C624 C618 1.383 . S
C624 C623 1.379 . S
H625 C619 0.959 . S
H626 C619 0.961 . S
H627 C619 0.960 . S
H628 C620 0.930 . S
H629 C621 0.929 . S
H630 C638 0.929 . S
H631 C640 0.930 . S
H632 C642 0.930 . S
H633 C645 0.929 . S
H634 C648 0.930 . S
H635 C650 0.960 . S
H636 C650 0.960 . S
H637 C650 0.960 . S
C638 H630 0.929 . S
C638 C639 1.377 . S
C638 C640 1.384 . S
C639 C638 1.377 . S
C639 C645 1.390 . S
C640 H631 0.930 . S
C640 C638 1.384 . S
C640 C641 1.372 . S
C641 C640 1.372 . S
C641 C642 1.400 . S
C641 C646 1.490 . S
C642 H632 0.930 . S
C642 C641 1.400 . S
C642 C645 1.386 . S
H643 C659 0.930 . S
H644 C660 0.931 . S
C645 H633 0.929 . S
C645 C639 1.390 . S
C645 C642 1.386 . S
C646 C641 1.490 . S
C646 C648 1.395 . S
C646 C649 1.403 . S
H647 C653 0.930 . S
C648 H634 0.930 . S
C648 C646 1.395 . S
C648 C651 1.403 . S
C649 C646 1.403 . S
C649 C650 1.524 . S
C649 C653 1.400 . S
C650 H635 0.960 . S
C650 H636 0.960 . S
C650 H637 0.960 . S
C650 C649 1.524 . S
C651 C648 1.403 . S
C651 C652 1.392 . S
C651 C655 1.495 . S
C652 C651 1.392 . S
C652 C653 1.385 . S
C652 C654 1.478 . S
C653 H647 0.930 . S
C653 C649 1.400 . S
C653 C652 1.385 . S
C654 C652 1.478 . S
C654 C656 1.381 . S
C654 C660 1.383 . S
C655 C651 1.495 . S
C655 H661 0.959 . S
C655 H662 0.961 . S
C655 H663 0.960 . S
C656 C654 1.381 . S
C656 C657 1.394 . S
C656 H664 0.930 . S
C657 C656 1.394 . S
C657 C658 1.383 . S
C657 H665 0.929 . S
C658 C657 1.383 . S
C658 C659 1.377 . S
C659 H643 0.930 . S
C659 C658 1.377 . S
C659 C660 1.379 . S
C660 H644 0.931 . S
C660 C654 1.383 . S
C660 C659 1.379 . S
H661 C655 0.959 . S
H662 C655 0.961 . S
H663 C655 0.960 . S
H664 C656 0.930 . S
H665 C657 0.929 . S
H666 C674 0.929 . S
H667 C676 0.930 . S
H668 C678 0.930 . S
H669 C681 0.929 . S
H670 C684 0.930 . S
H671 C686 0.960 . S
H672 C686 0.960 . S
H673 C686 0.960 . S
C674 H666 0.929 . S
C674 C675 1.377 . S
C674 C676 1.384 . S
C675 C674 1.377 . S
C675 C681 1.390 . S
C676 H667 0.930 . S
C676 C674 1.384 . S
C676 C677 1.372 . S
C677 C676 1.372 . S
C677 C678 1.400 . S
C677 C682 1.490 . S
C678 H668 0.930 . S
C678 C677 1.400 . S
C678 C681 1.386 . S
H679 C695 0.930 . S
H680 C696 0.931 . S
C681 H669 0.929 . S
C681 C675 1.390 . S
C681 C678 1.386 . S
C682 C677 1.490 . S
C682 C684 1.395 . S
C682 C685 1.403 . S
H683 C689 0.930 . S
C684 H670 0.930 . S
C684 C682 1.395 . S
C684 C687 1.403 . S
C685 C682 1.403 . S
C685 C686 1.524 . S
C685 C689 1.400 . S
C686 H671 0.960 . S
C686 H672 0.960 . S
C686 H673 0.960 . S
C686 C685 1.524 . S
C687 C684 1.403 . S
C687 C688 1.392 . S
C687 C691 1.495 . S
C688 C687 1.392 . S
C688 C689 1.385 . S
C688 C690 1.478 . S
C689 H683 0.930 . S
C689 C685 1.400 . S
C689 C688 1.385 . S
C690 C688 1.478 . S
C690 C692 1.381 . S
C690 C696 1.383 . S
C691 C687 1.495 . S
C691 H697 0.959 . S
C691 H698 0.961 . S
C691 H699 0.960 . S
C692 C690 1.381 . S
C692 C693 1.394 . S
C692 H700 0.930 . S
C693 C692 1.394 . S
C693 C694 1.383 . S
C693 H701 0.929 . S
C694 C693 1.383 . S
C694 C695 1.377 . S
C695 H679 0.930 . S
C695 C694 1.377 . S
C695 C696 1.379 . S
C696 H680 0.931 . S
C696 C690 1.383 . S
C696 C695 1.379 . S
H697 C691 0.959 . S
H698 C691 0.961 . S
H699 C691 0.960 . S
H700 C692 0.930 . S
H701 C693 0.929 . S
H702 C710 0.929 . S
H703 C712 0.930 . S
H704 C714 0.930 . S
H705 C717 0.929 . S
H706 C720 0.930 . S
H707 C722 0.960 . S
H708 C722 0.960 . S
H709 C722 0.960 . S
C710 H702 0.929 . S
C710 C711 1.377 . S
C710 C712 1.384 . S
C711 C710 1.377 . S
C711 C717 1.390 . S
C712 H703 0.930 . S
C712 C710 1.384 . S
C712 C713 1.372 . S
C713 C712 1.372 . S
C713 C714 1.400 . S
C713 C718 1.490 . S
C714 H704 0.930 . S
C714 C713 1.400 . S
C714 C717 1.386 . S
H715 C731 0.930 . S
H716 C732 0.931 . S
C717 H705 0.929 . S
C717 C711 1.390 . S
C717 C714 1.386 . S
C718 C713 1.490 . S
C718 C720 1.395 . S
C718 C721 1.403 . S
H719 C725 0.930 . S
C720 H706 0.930 . S
C720 C718 1.395 . S
C720 C723 1.403 . S
C721 C718 1.403 . S
C721 C722 1.524 . S
C721 C725 1.400 . S
C722 H707 0.960 . S
C722 H708 0.960 . S
C722 H709 0.960 . S
C722 C721 1.524 . S
C723 C720 1.403 . S
C723 C724 1.392 . S
C723 C727 1.495 . S
C724 C723 1.392 . S
C724 C725 1.385 . S
C724 C726 1.478 . S
C725 H719 0.930 . S
C725 C721 1.400 . S
C725 C724 1.385 . S
C726 C724 1.478 . S
C726 C728 1.381 . S
C726 C732 1.383 . S
C727 C723 1.495 . S
C727 H733 0.959 . S
C727 H734 0.961 . S
C727 H735 0.960 . S
C728 C726 1.381 . S
C728 C729 1.394 . S
C728 H736 0.930 . S
C729 C728 1.394 . S
C729 C730 1.383 . S
C729 H737 0.929 . S
C730 C729 1.383 . S
C730 C731 1.377 . S
C731 H715 0.930 . S
C731 C730 1.377 . S
C731 C732 1.379 . S
C732 H716 0.931 . S
C732 C726 1.383 . S
C732 C731 1.379 . S
H733 C727 0.959 . S
H734 C727 0.961 . S
H735 C727 0.960 . S
H736 C728 0.930 . S
H737 C729 0.929 . S
H738 C746 0.929 . S
H739 C748 0.930 . S
H740 C750 0.930 . S
H741 C753 0.929 . S
H742 C756 0.930 . S
H743 C758 0.960 . S
H744 C758 0.960 . S
H745 C758 0.960 . S
C746 H738 0.929 . S
C746 C747 1.377 . S
C746 C748 1.384 . S
C747 C746 1.377 . S
C747 C753 1.390 . S
C748 H739 0.930 . S
C748 C746 1.384 . S
C748 C749 1.372 . S
C749 C748 1.372 . S
C749 C750 1.400 . S
C749 C754 1.490 . S
C750 H740 0.930 . S
C750 C749 1.400 . S
C750 C753 1.386 . S
H751 C767 0.930 . S
H752 C768 0.931 . S
C753 H741 0.929 . S
C753 C747 1.390 . S
C753 C750 1.386 . S
C754 C749 1.490 . S
C754 C756 1.395 . S
C754 C757 1.403 . S
H755 C761 0.930 . S
C756 H742 0.930 . S
C756 C754 1.395 . S
C756 C759 1.403 . S
C757 C754 1.403 . S
C757 C758 1.524 . S
C757 C761 1.400 . S
C758 H743 0.960 . S
C758 H744 0.960 . S
C758 H745 0.960 . S
C758 C757 1.524 . S
C759 C756 1.403 . S
C759 C760 1.392 . S
C759 C763 1.495 . S
C760 C759 1.392 . S
C760 C761 1.385 . S
C760 C762 1.478 . S
C761 H755 0.930 . S
C761 C757 1.400 . S
C761 C760 1.385 . S
C762 C760 1.478 . S
C762 C764 1.381 . S
C762 C768 1.383 . S
C763 C759 1.495 . S
C763 H769 0.959 . S
C763 H770 0.961 . S
C763 H771 0.960 . S
C764 C762 1.381 . S
C764 C765 1.394 . S
C764 H772 0.930 . S
C765 C764 1.394 . S
C765 C766 1.383 . S
C765 H773 0.929 . S
C766 C765 1.383 . S
C766 C767 1.377 . S
C767 H751 0.930 . S
C767 C766 1.377 . S
C767 C768 1.379 . S
C768 H752 0.931 . S
C768 C762 1.383 . S
C768 C767 1.379 . S
H769 C763 0.959 . S
H770 C763 0.961 . S
H771 C763 0.960 . S
H772 C764 0.930 . S
H773 C765 0.929 . S
H774 C782 0.929 . S
H775 C784 0.930 . S
H776 C786 0.930 . S
H777 C789 0.929 . S
H778 C792 0.930 . S
H779 C794 0.960 . S
H780 C794 0.960 . S
H781 C794 0.960 . S
C782 H774 0.929 . S
C782 C783 1.377 . S
C782 C784 1.384 . S
C783 C782 1.377 . S
C783 C789 1.390 . S
C784 H775 0.930 . S
C784 C782 1.384 . S
C784 C785 1.372 . S
C785 C784 1.372 . S
C785 C786 1.400 . S
C785 C790 1.490 . S
C786 H776 0.930 . S
C786 C785 1.400 . S
C786 C789 1.386 . S
H787 C803 0.930 . S
H788 C804 0.931 . S
C789 H777 0.929 . S
C789 C783 1.390 . S
C789 C786 1.386 . S
C790 C785 1.490 . S
C790 C792 1.395 . S
C790 C793 1.403 . S
H791 C797 0.930 . S
C792 H778 0.930 . S
C792 C790 1.395 . S
C792 C795 1.403 . S
C793 C790 1.403 . S
C793 C794 1.524 . S
C793 C797 1.400 . S
C794 H779 0.960 . S
C794 H780 0.960 . S
C794 H781 0.960 . S
C794 C793 1.524 . S
C795 C792 1.403 . S
C795 C796 1.392 . S
C795 C799 1.495 . S
C796 C795 1.392 . S
C796 C797 1.385 . S
C796 C798 1.478 . S
C797 H791 0.930 . S
C797 C793 1.400 . S
C797 C796 1.385 . S
C798 C796 1.478 . S
C798 C800 1.381 . S
C798 C804 1.383 . S
C799 C795 1.495 . S
C799 H805 0.959 . S
C799 H806 0.961 . S
C799 H807 0.960 . S
C800 C798 1.381 . S
C800 C801 1.394 . S
C800 H808 0.930 . S
C801 C800 1.394 . S
C801 C802 1.383 . S
C801 H809 0.929 . S
C802 C801 1.383 . S
C802 C803 1.377 . S
C803 H787 0.930 . S
C803 C802 1.377 . S
C803 C804 1.379 . S
C804 H788 0.931 . S
C804 C798 1.383 . S
C804 C803 1.379 . S
H805 C799 0.959 . S
H806 C799 0.961 . S
H807 C799 0.960 . S
H808 C800 0.930 . S
H809 C801 0.929 . S
H810 C818 0.929 . S
H811 C820 0.930 . S
H812 C822 0.930 . S
H813 C825 0.929 . S
H814 C828 0.922 1_554 S
H815 C830 0.960 1_556 S
H816 C830 0.960 . S
H817 C830 0.960 . S
C818 H810 0.929 . S
C818 C819 1.377 . S
C818 C820 1.384 . S
C819 C818 1.377 . S
C819 C825 1.390 . S
C820 H811 0.930 . S
C820 C818 1.384 . S
C820 C821 1.372 . S
C821 C820 1.372 . S
C821 C822 1.400 . S
C821 C826 1.490 . S
C822 H812 0.930 . S
C822 C821 1.400 . S
C822 C825 1.386 . S
H823 C839 0.930 . S
H824 C840 0.931 . S
C825 H813 0.929 . S
C825 C819 1.390 . S
C825 C822 1.386 . S
C826 C821 1.490 . S
C826 C828 1.395 1_554 S
C826 C829 1.403 1_554 S
H827 C833 0.930 . S
C828 H814 0.922 1_556 S
C828 C826 1.395 1_556 S
C828 C831 1.403 . S
C829 C826 1.403 1_556 S
C829 C830 1.524 1_556 S
C829 C833 1.400 . S
C830 H815 0.960 1_554 S
C830 H816 0.960 . S
C830 H817 0.960 . S
C830 C829 1.524 1_554 S
C831 C828 1.403 . S
C831 C832 1.392 . S
C831 C835 1.495 . S
C832 C831 1.392 . S
C832 C833 1.385 . S
C832 C834 1.478 . S
C833 H827 0.930 . S
C833 C829 1.400 . S
C833 C832 1.385 . S
C834 C832 1.478 . S
C834 C836 1.381 . S
C834 C840 1.383 . S
C835 C831 1.495 . S
C835 H841 0.959 . S
C835 H842 0.961 . S
C835 H843 0.960 . S
C836 C834 1.381 . S
C836 C837 1.394 . S
C836 H844 0.930 . S
C837 C836 1.394 . S
C837 C838 1.383 . S
C837 H845 0.929 . S
C838 C837 1.383 . S
C838 C839 1.377 . S
C839 H823 0.930 . S
C839 C838 1.377 . S
C839 C840 1.379 . S
C840 H824 0.931 . S
C840 C834 1.383 . S
C840 C839 1.379 . S
H841 C835 0.959 . S
H842 C835 0.961 . S
H843 C835 0.960 . S
H844 C836 0.930 . S
H845 C837 0.929 . S
H846 C854 0.929 . S
H847 C856 0.930 . S
H848 C858 0.930 . S
H849 C861 0.929 . S
H850 C864 0.930 1_554 S
H851 C866 0.960 1_556 S
H852 C866 0.960 . S
H853 C866 0.960 . S
C854 H846 0.929 . S
C854 C855 1.377 . S
C854 C856 1.384 . S
C855 C854 1.377 . S
C855 C861 1.390 . S
C856 H847 0.930 . S
C856 C854 1.384 . S
C856 C857 1.372 . S
C857 C856 1.372 . S
C857 C858 1.400 . S
C857 C862 1.490 . S
C858 H848 0.930 . S
C858 C857 1.400 . S
C858 C861 1.386 . S
H859 C875 0.930 . S
H860 C876 0.931 . S
C861 H849 0.929 . S
C861 C855 1.390 . S
C861 C858 1.386 . S
C862 C857 1.490 . S
C862 C864 1.395 1_554 S
C862 C865 1.403 1_554 S
H863 C869 0.930 . S
C864 H850 0.930 1_556 S
C864 C862 1.395 1_556 S
C864 C867 1.403 . S
C865 C862 1.403 1_556 S
C865 C866 1.524 1_556 S
C865 C869 1.400 . S
C866 H851 0.960 1_554 S
C866 H852 0.960 . S
C866 H853 0.960 . S
C866 C865 1.524 1_554 S
C867 C864 1.403 . S
C867 C868 1.392 . S
C867 C871 1.495 . S
C868 C867 1.392 . S
C868 C869 1.385 . S
C868 C870 1.478 . S
C869 H863 0.930 . S
C869 C865 1.400 . S
C869 C868 1.385 . S
C870 C868 1.478 . S
C870 C872 1.381 . S
C870 C876 1.383 . S
C871 C867 1.495 . S
C871 H877 0.959 . S
C871 H878 0.961 . S
C871 H879 0.960 . S
C872 C870 1.381 . S
C872 C873 1.394 . S
C872 H880 0.930 . S
C873 C872 1.394 . S
C873 C874 1.383 . S
C873 H881 0.929 . S
C874 C873 1.383 . S
C874 C875 1.377 . S
C875 H859 0.930 . S
C875 C874 1.377 . S
C875 C876 1.379 . S
C876 H860 0.931 . S
C876 C870 1.383 . S
C876 C875 1.379 . S
H877 C871 0.959 . S
H878 C871 0.961 . S
H879 C871 0.960 . S
H880 C872 0.930 . S
H881 C873 0.929 . S
H882 C890 0.929 . S
H883 C892 0.930 . S
H884 C894 0.930 . S
H885 C897 0.929 . S
H886 C900 0.930 . S
H887 C902 0.960 . S
H888 C902 0.960 . S
H889 C902 0.960 . S
C890 H882 0.929 . S
C890 C891 1.377 . S
C890 C892 1.384 . S
C891 C890 1.377 . S
C891 C897 1.390 . S
C892 H883 0.930 . S
C892 C890 1.384 . S
C892 C893 1.372 . S
C893 C892 1.372 . S
C893 C894 1.400 . S
C893 C898 1.490 . S
C894 H884 0.930 . S
C894 C893 1.400 . S
C894 C897 1.386 . S
H895 C911 0.930 . S
H896 C912 0.931 . S
C897 H885 0.929 . S
C897 C891 1.390 . S
C897 C894 1.386 . S
C898 C893 1.490 . S
C898 C900 1.395 . S
C898 C901 1.403 . S
H899 C905 0.921 1_554 S
C900 H886 0.930 . S
C900 C898 1.395 . S
C900 C903 1.403 . S
C901 C898 1.403 . S
C901 C902 1.524 . S
C901 C905 1.400 . S
C902 H887 0.960 . S
C902 H888 0.960 . S
C902 H889 0.960 . S
C902 C901 1.524 . S
C903 C900 1.403 . S
C903 C904 1.392 1_556 S
C903 C907 1.495 1_556 S
C904 C903 1.392 1_554 S
C904 C905 1.385 1_554 S
C904 C906 1.478 . S
C905 H899 0.921 1_556 S
C905 C901 1.400 . S
C905 C904 1.385 1_556 S
C906 C904 1.478 . S
C906 C908 1.381 . S
C906 C912 1.383 . S
C907 C903 1.495 1_554 S
C907 H913 0.959 1_554 S
C907 H914 0.961 . S
C907 H915 0.960 . S
C908 C906 1.381 . S
C908 C909 1.394 . S
C908 H916 0.930 . S
C909 C908 1.394 . S
C909 C910 1.383 . S
C909 H917 0.929 . S
C910 C909 1.383 . S
C910 C911 1.377 . S
C911 H895 0.930 . S
C911 C910 1.377 . S
C911 C912 1.379 . S
C912 H896 0.931 . S
C912 C906 1.383 . S
C912 C911 1.379 . S
H913 C907 0.959 1_556 S
H914 C907 0.961 . S
H915 C907 0.960 . S
H916 C908 0.930 . S
H917 C909 0.929 . S
H918 C926 0.929 . S
H919 C928 0.930 . S
H920 C930 0.930 . S
H921 C933 0.929 . S
H922 C936 0.930 . S
H923 C938 0.960 . S
H924 C938 0.960 . S
H925 C938 0.960 . S
C926 H918 0.929 . S
C926 C927 1.377 . S
C926 C928 1.384 . S
C927 C926 1.377 . S
C927 C933 1.390 . S
C928 H919 0.930 . S
C928 C926 1.384 . S
C928 C929 1.372 . S
C929 C928 1.372 . S
C929 C930 1.400 . S
C929 C934 1.490 . S
C930 H920 0.930 . S
C930 C929 1.400 . S
C930 C933 1.386 . S
H931 C947 0.930 . S
H932 C948 0.931 . S
C933 H921 0.929 . S
C933 C927 1.390 . S
C933 C930 1.386 . S
C934 C929 1.490 . S
C934 C936 1.395 . S
C934 C937 1.403 . S
H935 C941 0.930 . S
C936 H922 0.930 . S
C936 C934 1.395 . S
C936 C939 1.403 . S
C937 C934 1.403 . S
C937 C938 1.524 . S
C937 C941 1.400 . S
C938 H923 0.960 . S
C938 H924 0.960 . S
C938 H925 0.960 . S
C938 C937 1.524 . S
C939 C936 1.403 . S
C939 C940 1.392 . S
C939 C943 1.495 . S
C940 C939 1.392 . S
C940 C941 1.385 . S
C940 C942 1.478 . S
C941 H935 0.930 . S
C941 C937 1.400 . S
C941 C940 1.385 . S
C942 C940 1.478 . S
C942 C944 1.381 . S
C942 C948 1.383 . S
C943 C939 1.495 . S
C943 H949 0.959 . S
C943 H950 0.961 . S
C943 H951 0.960 . S
C944 C942 1.381 . S
C944 C945 1.394 . S
C944 H952 0.930 . S
C945 C944 1.394 . S
C945 C946 1.383 . S
C945 H953 0.929 . S
C946 C945 1.383 . S
C946 C947 1.377 . S
C947 H931 0.930 . S
C947 C946 1.377 . S
C947 C948 1.379 . S
C948 H932 0.931 . S
C948 C942 1.383 . S
C948 C947 1.379 . S
H949 C943 0.959 . S
H950 C943 0.961 . S
H951 C943 0.960 . S
H952 C944 0.930 . S
H953 C945 0.929 . S
H954 C962 0.929 . S
H955 C964 0.930 . S
H956 C966 0.930 . S
H957 C969 0.929 . S
H958 C972 0.930 . S
H959 C974 0.960 . S
H960 C974 0.960 . S
H961 C974 0.960 . S
C962 H954 0.929 . S
C962 C963 1.377 . S
C962 C964 1.384 . S
C963 C962 1.377 . S
C963 C969 1.390 . S
C964 H955 0.930 . S
C964 C962 1.384 . S
C964 C965 1.372 . S
C965 C964 1.372 . S
C965 C966 1.400 . S
C965 C970 1.490 . S
C966 H956 0.930 . S
C966 C965 1.400 . S
C966 C969 1.386 . S
H967 C983 0.930 . S
H968 C984 0.931 . S
C969 H957 0.929 . S
C969 C963 1.390 . S
C969 C966 1.386 . S
C970 C965 1.490 . S
C970 C972 1.395 . S
C970 C973 1.403 . S
H971 C977 0.930 . S
C972 H958 0.930 . S
C972 C970 1.395 . S
C972 C975 1.403 . S
C973 C970 1.403 . S
C973 C974 1.524 . S
C973 C977 1.400 . S
C974 H959 0.960 . S
C974 H960 0.960 . S
C974 H961 0.960 . S
C974 C973 1.524 . S
C975 C972 1.403 . S
C975 C976 1.392 . S
C975 C979 1.495 . S
C976 C975 1.392 . S
C976 C977 1.385 . S
C976 C978 1.478 . S
C977 H971 0.930 . S
C977 C973 1.400 . S
C977 C976 1.385 . S
C978 C976 1.478 . S
C978 C980 1.381 . S
C978 C984 1.383 . S
C979 C975 1.495 . S
C979 H985 0.959 . S
C979 H986 0.961 . S
C979 H987 0.960 . S
C980 C978 1.381 . S
C980 C981 1.394 . S
C980 H988 0.930 . S
C981 C980 1.394 . S
C981 C982 1.383 . S
C981 H989 0.929 . S
C982 C981 1.383 . S
C982 C983 1.377 . S
C983 H967 0.930 . S
C983 C982 1.377 . S
C983 C984 1.379 . S
C984 H968 0.931 . S
C984 C978 1.383 . S
C984 C983 1.379 . S
H985 C979 0.959 . S
H986 C979 0.961 . S
H987 C979 0.960 . S
H988 C980 0.930 . S
H989 C981 0.929 . S
H990 C998 0.929 . S
H991 C1000 0.930 . S
H992 C1002 0.930 . S
H993 C1005 0.929 . S
H994 C1008 0.930 . S
H995 C1010 0.960 . S
H996 C1010 0.960 . S
H997 C1010 0.960 . S
C998 H990 0.929 . S
C998 C999 1.377 . S
C998 C1000 1.384 . S
C999 C998 1.377 . S
C999 C1005 1.390 . S
C1000 H991 0.930 . S
C1000 C998 1.384 . S
C1000 C1001 1.372 . S
C1001 C1000 1.372 . S
C1001 C1002 1.400 . S
C1001 C1006 1.490 . S
C1002 H992 0.930 . S
C1002 C1001 1.400 . S
C1002 C1005 1.386 . S
H1003 C1019 0.930 . S
H1004 C1020 0.931 . S
C1005 H993 0.929 . S
C1005 C999 1.390 . S
C1005 C1002 1.386 . S
C1006 C1001 1.490 . S
C1006 C1008 1.395 . S
C1006 C1009 1.403 . S
H1007 C1013 0.930 . S
C1008 H994 0.930 . S
C1008 C1006 1.395 . S
C1008 C1011 1.403 . S
C1009 C1006 1.403 . S
C1009 C1010 1.524 . S
C1009 C1013 1.400 . S
C1010 H995 0.960 . S
C1010 H996 0.960 . S
C1010 H997 0.960 . S
C1010 C1009 1.524 . S
C1011 C1008 1.403 . S
C1011 C1012 1.392 . S
C1011 C1015 1.495 . S
C1012 C1011 1.392 . S
C1012 C1013 1.385 . S
C1012 C1014 1.478 . S
C1013 H1007 0.930 . S
C1013 C1009 1.400 . S
C1013 C1012 1.385 . S
C1014 C1012 1.478 . S
C1014 C1016 1.381 . S
C1014 C1020 1.383 . S
C1015 C1011 1.495 . S
C1015 H1021 0.959 . S
C1015 H1022 0.961 . S
C1015 H1023 0.960 . S
C1016 C1014 1.381 . S
C1016 C1017 1.394 . S
C1016 H1024 0.930 . S
C1017 C1016 1.394 . S
C1017 C1018 1.383 . S
C1017 H1025 0.929 . S
C1018 C1017 1.383 . S
C1018 C1019 1.377 . S
C1019 H1003 0.930 . S
C1019 C1018 1.377 . S
C1019 C1020 1.379 . S
C1020 H1004 0.931 . S
C1020 C1014 1.383 . S
C1020 C1019 1.379 . S
H1021 C1015 0.959 . S
H1022 C1015 0.961 . S
H1023 C1015 0.960 . S
H1024 C1016 0.930 . S
H1025 C1017 0.929 . S
H1026 C1034 0.929 . S
H1027 C1036 0.930 . S
H1028 C1038 0.930 . S
H1029 C1041 0.929 . S
H1030 C1044 0.930 . S
H1031 C1046 0.960 . S
H1032 C1046 0.960 . S
H1033 C1046 0.960 . S
C1034 H1026 0.929 . S
C1034 C1035 1.377 . S
C1034 C1036 1.384 . S
C1035 C1034 1.377 . S
C1035 C1041 1.390 . S
C1036 H1027 0.930 . S
C1036 C1034 1.384 . S
C1036 C1037 1.372 . S
C1037 C1036 1.372 . S
C1037 C1038 1.400 . S
C1037 C1042 1.490 . S
C1038 H1028 0.930 . S
C1038 C1037 1.400 . S
C1038 C1041 1.386 . S
H1039 C1055 0.930 . S
H1040 C1056 0.931 . S
C1041 H1029 0.929 . S
C1041 C1035 1.390 . S
C1041 C1038 1.386 . S
C1042 C1037 1.490 . S
C1042 C1044 1.395 . S
C1042 C1045 1.403 . S
H1043 C1049 0.930 . S
C1044 H1030 0.930 . S
C1044 C1042 1.395 . S
C1044 C1047 1.403 . S
C1045 C1042 1.403 . S
C1045 C1046 1.524 . S
C1045 C1049 1.400 . S
C1046 H1031 0.960 . S
C1046 H1032 0.960 . S
C1046 H1033 0.960 . S
C1046 C1045 1.524 . S
C1047 C1044 1.403 . S
C1047 C1048 1.392 . S
C1047 C1051 1.495 . S
C1048 C1047 1.392 . S
C1048 C1049 1.385 . S
C1048 C1050 1.478 . S
C1049 H1043 0.930 . S
C1049 C1045 1.400 . S
C1049 C1048 1.385 . S
C1050 C1048 1.478 . S
C1050 C1052 1.381 . S
C1050 C1056 1.383 . S
C1051 C1047 1.495 . S
C1051 H1057 0.959 . S
C1051 H1058 0.961 . S
C1051 H1059 0.960 . S
C1052 C1050 1.381 . S
C1052 C1053 1.394 . S
C1052 H1060 0.930 . S
C1053 C1052 1.394 . S
C1053 C1054 1.383 . S
C1053 H1061 0.929 . S
C1054 C1053 1.383 . S
C1054 C1055 1.377 . S
C1055 H1039 0.930 . S
C1055 C1054 1.377 . S
C1055 C1056 1.379 . S
C1056 H1040 0.931 . S
C1056 C1050 1.383 . S
C1056 C1055 1.379 . S
H1057 C1051 0.959 . S
H1058 C1051 0.961 . S
H1059 C1051 0.960 . S
H1060 C1052 0.930 . S
H1061 C1053 0.929 . S
H1062 C1070 0.929 . S
H1063 C1072 0.930 . S
H1064 C1074 0.930 . S
H1065 C1077 0.929 . S
H1066 C1080 0.930 . S
H1067 C1082 0.960 . S
H1068 C1082 0.960 . S
H1069 C1082 0.960 . S
C1070 H1062 0.929 . S
C1070 C1071 1.377 . S
C1070 C1072 1.384 . S
C1071 C1070 1.377 . S
C1071 C1077 1.390 . S
C1072 H1063 0.930 . S
C1072 C1070 1.384 . S
C1072 C1073 1.372 . S
C1073 C1072 1.372 . S
C1073 C1074 1.400 . S
C1073 C1078 1.490 . S
C1074 H1064 0.930 . S
C1074 C1073 1.400 . S
C1074 C1077 1.386 . S
H1075 C1091 0.930 . S
H1076 C1092 0.931 . S
C1077 H1065 0.929 . S
C1077 C1071 1.390 . S
C1077 C1074 1.386 . S
C1078 C1073 1.490 . S
C1078 C1080 1.395 . S
C1078 C1081 1.403 . S
H1079 C1085 0.930 . S
C1080 H1066 0.930 . S
C1080 C1078 1.395 . S
C1080 C1083 1.403 . S
C1081 C1078 1.403 . S
C1081 C1082 1.524 . S
C1081 C1085 1.400 . S
C1082 H1067 0.960 . S
C1082 H1068 0.960 . S
C1082 H1069 0.960 . S
C1082 C1081 1.524 . S
C1083 C1080 1.403 . S
C1083 C1084 1.392 . S
C1083 C1087 1.495 . S
C1084 C1083 1.392 . S
C1084 C1085 1.385 . S
C1084 C1086 1.478 . S
C1085 H1079 0.930 . S
C1085 C1081 1.400 . S
C1085 C1084 1.385 . S
C1086 C1084 1.478 . S
C1086 C1088 1.381 . S
C1086 C1092 1.383 . S
C1087 C1083 1.495 . S
C1087 H1093 0.959 . S
C1087 H1094 0.961 . S
C1087 H1095 0.960 . S
C1088 C1086 1.381 . S
C1088 C1089 1.394 . S
C1088 H1096 0.930 . S
C1089 C1088 1.394 . S
C1089 C1090 1.383 . S
C1089 H1097 0.929 . S
C1090 C1089 1.383 . S
C1090 C1091 1.377 . S
C1091 H1075 0.930 . S
C1091 C1090 1.377 . S
C1091 C1092 1.379 . S
C1092 H1076 0.931 . S
C1092 C1086 1.383 . S
C1092 C1091 1.379 . S
H1093 C1087 0.959 . S
H1094 C1087 0.961 . S
H1095 C1087 0.960 . S
H1096 C1088 0.930 . S
H1097 C1089 0.929 . S
H1098 C1106 0.929 . S
H1099 C1108 0.930 . S
H1100 C1110 0.930 . S
H1101 C1113 0.929 . S
H1102 C1116 0.930 . S
H1103 C1118 0.960 . S
H1104 C1118 0.960 . S
H1105 C1118 0.960 . S
C1106 H1098 0.929 . S
C1106 C1107 1.377 . S
C1106 C1108 1.384 . S
C1107 C1106 1.377 . S
C1107 C1113 1.390 . S
C1108 H1099 0.930 . S
C1108 C1106 1.384 . S
C1108 C1109 1.372 . S
C1109 C1108 1.372 . S
C1109 C1110 1.400 . S
C1109 C1114 1.490 . S
C1110 H1100 0.930 . S
C1110 C1109 1.400 . S
C1110 C1113 1.386 . S
H1111 C1127 0.930 . S
H1112 C1128 0.931 . S
C1113 H1101 0.929 . S
C1113 C1107 1.390 . S
C1113 C1110 1.386 . S
C1114 C1109 1.490 . S
C1114 C1116 1.395 . S
C1114 C1117 1.403 . S
H1115 C1121 0.930 . S
C1116 H1102 0.930 . S
C1116 C1114 1.395 . S
C1116 C1119 1.403 . S
C1117 C1114 1.403 . S
C1117 C1118 1.524 . S
C1117 C1121 1.400 . S
C1118 H1103 0.960 . S
C1118 H1104 0.960 . S
C1118 H1105 0.960 . S
C1118 C1117 1.524 . S
C1119 C1116 1.403 . S
C1119 C1120 1.392 . S
C1119 C1123 1.495 . S
C1120 C1119 1.392 . S
C1120 C1121 1.385 . S
C1120 C1122 1.478 . S
C1121 H1115 0.930 . S
C1121 C1117 1.400 . S
C1121 C1120 1.385 . S
C1122 C1120 1.478 . S
C1122 C1124 1.381 . S
C1122 C1128 1.383 . S
C1123 C1119 1.495 . S
C1123 H1129 0.959 . S
C1123 H1130 0.961 . S
C1123 H1131 0.960 . S
C1124 C1122 1.381 . S
C1124 C1125 1.394 . S
C1124 H1132 0.930 . S
C1125 C1124 1.394 . S
C1125 C1126 1.383 . S
C1125 H1133 0.929 . S
C1126 C1125 1.383 . S
C1126 C1127 1.377 . S
C1127 H1111 0.930 . S
C1127 C1126 1.377 . S
C1127 C1128 1.379 . S
C1128 H1112 0.931 . S
C1128 C1122 1.383 . S
C1128 C1127 1.379 . S
H1129 C1123 0.959 . S
H1130 C1123 0.961 . S
H1131 C1123 0.960 . S
H1132 C1124 0.930 . S
H1133 C1125 0.929 . S
H1134 C1142 0.929 . S
H1135 C1144 0.930 . S
H1136 C1146 0.930 . S
H1137 C1149 0.929 . S
H1138 C1152 0.930 . S
H1139 C1154 0.960 . S
H1140 C1154 0.960 . S
H1141 C1154 0.960 . S
C1142 H1134 0.929 . S
C1142 C1143 1.377 . S
C1142 C1144 1.384 . S
C1143 C1142 1.377 . S
C1143 C1149 1.390 . S
C1144 H1135 0.930 . S
C1144 C1142 1.384 . S
C1144 C1145 1.372 . S
C1145 C1144 1.372 . S
C1145 C1146 1.400 . S
C1145 C1150 1.490 . S
C1146 H1136 0.930 . S
C1146 C1145 1.400 . S
C1146 C1149 1.386 . S
H1147 C1163 0.930 . S
H1148 C1164 0.931 . S
C1149 H1137 0.929 . S
C1149 C1143 1.390 . S
C1149 C1146 1.386 . S
C1150 C1145 1.490 . S
C1150 C1152 1.395 . S
C1150 C1153 1.403 . S
H1151 C1157 0.930 1_556 S
C1152 H1138 0.930 . S
C1152 C1150 1.395 . S
C1152 C1155 1.403 . S
C1153 C1150 1.403 . S
C1153 C1154 1.524 . S
C1153 C1157 1.400 . S
C1154 H1139 0.960 . S
C1154 H1140 0.960 . S
C1154 H1141 0.960 . S
C1154 C1153 1.524 . S
C1155 C1152 1.403 . S
C1155 C1156 1.392 1_554 S
C1155 C1159 1.495 . S
C1156 C1155 1.392 1_556 S
C1156 C1157 1.385 1_556 S
C1156 C1158 1.478 . S
C1157 H1151 0.930 1_554 S
C1157 C1153 1.400 . S
C1157 C1156 1.385 1_554 S
C1158 C1156 1.478 . S
C1158 C1160 1.381 . S
C1158 C1164 1.383 . S
C1159 C1155 1.495 . S
C1159 H1165 0.959 . S
C1159 H1166 0.961 1_554 S
C1159 H1167 0.960 1_554 S
C1160 C1158 1.381 . S
C1160 C1161 1.394 . S
C1160 H1168 0.930 . S
C1161 C1160 1.394 . S
C1161 C1162 1.383 . S
C1161 H1169 0.929 . S
C1162 C1161 1.383 . S
C1162 C1163 1.377 . S
C1163 H1147 0.930 . S
C1163 C1162 1.377 . S
C1163 C1164 1.379 . S
C1164 H1148 0.931 . S
C1164 C1158 1.383 . S
C1164 C1163 1.379 . S
H1165 C1159 0.959 . S
H1166 C1159 0.961 1_556 S
H1167 C1159 0.960 1_556 S
H1168 C1160 0.930 . S
H1169 C1161 0.929 . S
H1170 C1178 0.929 . S
H1171 C1180 0.930 . S
H1172 C1182 0.930 . S
H1173 C1185 0.929 . S
H1174 C1188 0.930 . S
H1175 C1190 0.960 . S
H1176 C1190 0.960 . S
H1177 C1190 0.960 . S
C1178 H1170 0.929 . S
C1178 C1179 1.377 . S
C1178 C1180 1.384 . S
C1179 C1178 1.377 . S
C1179 C1185 1.390 . S
C1180 H1171 0.930 . S
C1180 C1178 1.384 . S
C1180 C1181 1.372 . S
C1181 C1180 1.372 . S
C1181 C1182 1.400 . S
C1181 C1186 1.490 . S
C1182 H1172 0.930 . S
C1182 C1181 1.400 . S
C1182 C1185 1.386 . S
H1183 C1199 0.930 . S
H1184 C1200 0.931 . S
C1185 H1173 0.929 . S
C1185 C1179 1.390 . S
C1185 C1182 1.386 . S
C1186 C1181 1.490 . S
C1186 C1188 1.395 . S
C1186 C1189 1.403 . S
H1187 C1193 0.930 1_556 S
C1188 H1174 0.930 . S
C1188 C1186 1.395 . S
C1188 C1191 1.403 . S
C1189 C1186 1.403 . S
C1189 C1190 1.524 . S
C1189 C1193 1.400 . S
C1190 H1175 0.960 . S
C1190 H1176 0.960 . S
C1190 H1177 0.960 . S
C1190 C1189 1.524 . S
C1191 C1188 1.403 . S
C1191 C1192 1.392 1_554 S
C1191 C1195 1.495 . S
C1192 C1191 1.392 1_556 S
C1192 C1193 1.385 1_556 S
C1192 C1194 1.478 . S
C1193 H1187 0.930 1_554 S
C1193 C1189 1.400 . S
C1193 C1192 1.385 1_554 S
C1194 C1192 1.478 . S
C1194 C1196 1.381 . S
C1194 C1200 1.383 . S
C1195 C1191 1.495 . S
C1195 H1201 0.959 . S
C1195 H1202 0.961 1_554 S
C1195 H1203 0.960 1_554 S
C1196 C1194 1.381 . S
C1196 C1197 1.394 . S
C1196 H1204 0.930 . S
C1197 C1196 1.394 . S
C1197 C1198 1.383 . S
C1197 H1205 0.929 . S
C1198 C1197 1.383 . S
C1198 C1199 1.377 . S
C1199 H1183 0.930 . S
C1199 C1198 1.377 . S
C1199 C1200 1.379 . S
C1200 H1184 0.931 . S
C1200 C1194 1.383 . S
C1200 C1199 1.379 . S
H1201 C1195 0.959 . S
H1202 C1195 0.961 1_556 S
H1203 C1195 0.960 1_556 S
H1204 C1196 0.930 . S
H1205 C1197 0.929 . S
H1206 C1214 0.929 . S
H1207 C1216 0.930 . S
H1208 C1218 0.930 . S
H1209 C1221 0.929 . S
H1210 C1224 0.930 . S
H1211 C1226 0.960 1_554 S
H1212 C1226 0.960 . S
H1213 C1226 0.960 . S
C1214 H1206 0.929 . S
C1214 C1215 1.377 . S
C1214 C1216 1.384 . S
C1215 C1214 1.377 . S
C1215 C1221 1.390 . S
C1216 H1207 0.930 . S
C1216 C1214 1.384 . S
C1216 C1217 1.372 . S
C1217 C1216 1.372 . S
C1217 C1218 1.400 . S
C1217 C1222 1.490 . S
C1218 H1208 0.930 . S
C1218 C1217 1.400 . S
C1218 C1221 1.386 . S
H1219 C1235 0.930 . S
H1220 C1236 0.931 . S
C1221 H1209 0.929 . S
C1221 C1215 1.390 . S
C1221 C1218 1.386 . S
C1222 C1217 1.490 . S
C1222 C1224 1.395 1_556 S
C1222 C1225 1.403 1_556 S
H1223 C1229 0.930 . S
C1224 H1210 0.930 . S
C1224 C1222 1.395 1_554 S
C1224 C1227 1.403 . S
C1225 C1222 1.403 1_554 S
C1225 C1226 1.524 1_554 S
C1225 C1229 1.400 . S
C1226 H1211 0.960 1_556 S
C1226 H1212 0.960 . S
C1226 H1213 0.960 . S
C1226 C1225 1.524 1_556 S
C1227 C1224 1.403 . S
C1227 C1228 1.392 . S
C1227 C1231 1.495 . S
C1228 C1227 1.392 . S
C1228 C1229 1.385 . S
C1228 C1230 1.478 . S
C1229 H1223 0.930 . S
C1229 C1225 1.400 . S
C1229 C1228 1.385 . S
C1230 C1228 1.478 . S
C1230 C1232 1.381 . S
C1230 C1236 1.383 . S
C1231 C1227 1.495 . S
C1231 H1237 0.959 . S
C1231 H1238 0.961 . S
C1231 H1239 0.960 . S
C1232 C1230 1.381 . S
C1232 C1233 1.394 . S
C1232 H1240 0.930 . S
C1233 C1232 1.394 . S
C1233 C1234 1.383 . S
C1233 H1241 0.929 . S
C1234 C1233 1.383 . S
C1234 C1235 1.377 . S
C1235 H1219 0.930 . S
C1235 C1234 1.377 . S
C1235 C1236 1.379 . S
C1236 H1220 0.931 . S
C1236 C1230 1.383 . S
C1236 C1235 1.379 . S
H1237 C1231 0.959 . S
H1238 C1231 0.961 . S
H1239 C1231 0.960 . S
H1240 C1232 0.930 . S
H1241 C1233 0.929 . S
H1242 C1250 0.929 . S
H1243 C1252 0.930 . S
H1244 C1254 0.930 . S
H1245 C1257 0.929 . S
H1246 C1260 0.930 . S
H1247 C1262 0.960 . S
H1248 C1262 0.960 . S
H1249 C1262 0.960 . S
C1250 H1242 0.929 . S
C1250 C1251 1.377 . S
C1250 C1252 1.384 . S
C1251 C1250 1.377 . S
C1251 C1257 1.390 . S
C1252 H1243 0.930 . S
C1252 C1250 1.384 . S
C1252 C1253 1.372 . S
C1253 C1252 1.372 . S
C1253 C1254 1.400 . S
C1253 C1258 1.490 . S
C1254 H1244 0.930 . S
C1254 C1253 1.400 . S
C1254 C1257 1.386 . S
H1255 C1271 0.930 . S
H1256 C1272 0.931 . S
C1257 H1245 0.929 . S
C1257 C1251 1.390 . S
C1257 C1254 1.386 . S
C1258 C1253 1.490 . S
C1258 C1260 1.395 . S
C1258 C1261 1.403 . S
H1259 C1265 0.930 . S
C1260 H1246 0.930 . S
C1260 C1258 1.395 . S
C1260 C1263 1.403 . S
C1261 C1258 1.403 . S
C1261 C1262 1.524 . S
C1261 C1265 1.400 . S
C1262 H1247 0.960 . S
C1262 H1248 0.960 . S
C1262 H1249 0.960 . S
C1262 C1261 1.524 . S
C1263 C1260 1.403 . S
C1263 C1264 1.392 . S
C1263 C1267 1.495 . S
C1264 C1263 1.392 . S
C1264 C1265 1.385 . S
C1264 C1266 1.478 . S
C1265 H1259 0.930 . S
C1265 C1261 1.400 . S
C1265 C1264 1.385 . S
C1266 C1264 1.478 . S
C1266 C1268 1.381 . S
C1266 C1272 1.383 . S
C1267 C1263 1.495 . S
C1267 H1273 0.959 . S
C1267 H1274 0.961 . S
C1267 H1275 0.960 . S
C1268 C1266 1.381 . S
C1268 C1269 1.394 . S
C1268 H1276 0.930 . S
C1269 C1268 1.394 . S
C1269 C1270 1.383 . S
C1269 H1277 0.929 . S
C1270 C1269 1.383 . S
C1270 C1271 1.377 . S
C1271 H1255 0.930 . S
C1271 C1270 1.377 . S
C1271 C1272 1.379 . S
C1272 H1256 0.931 . S
C1272 C1266 1.383 . S
C1272 C1271 1.379 . S
H1273 C1267 0.959 . S
H1274 C1267 0.961 . S
H1275 C1267 0.960 . S
H1276 C1268 0.930 . S
H1277 C1269 0.929 . S
H1278 C1286 0.929 . S
H1279 C1288 0.930 . S
H1280 C1290 0.930 . S
H1281 C1293 0.929 . S
H1282 C1296 0.930 . S
H1283 C1298 0.960 . S
H1284 C1298 0.960 . S
H1285 C1298 0.960 . S
C1286 H1278 0.929 . S
C1286 C1287 1.377 . S
C1286 C1288 1.384 . S
C1287 C1286 1.377 . S
C1287 C1293 1.390 . S
C1288 H1279 0.930 . S
C1288 C1286 1.384 . S
C1288 C1289 1.372 . S
C1289 C1288 1.372 . S
C1289 C1290 1.400 . S
C1289 C1294 1.490 . S
C1290 H1280 0.930 . S
C1290 C1289 1.400 . S
C1290 C1293 1.386 . S
H1291 C1307 0.930 . S
H1292 C1308 0.931 . S
C1293 H1281 0.929 . S
C1293 C1287 1.390 . S
C1293 C1290 1.386 . S
C1294 C1289 1.490 . S
C1294 C1296 1.395 . S
C1294 C1297 1.403 . S
H1295 C1301 0.930 . S
C1296 H1282 0.930 . S
C1296 C1294 1.395 . S
C1296 C1299 1.403 . S
C1297 C1294 1.403 . S
C1297 C1298 1.524 . S
C1297 C1301 1.400 . S
C1298 H1283 0.960 . S
C1298 H1284 0.960 . S
C1298 H1285 0.960 . S
C1298 C1297 1.524 . S
C1299 C1296 1.403 . S
C1299 C1300 1.392 . S
C1299 C1303 1.495 . S
C1300 C1299 1.392 . S
C1300 C1301 1.385 . S
C1300 C1302 1.478 . S
C1301 H1295 0.930 . S
C1301 C1297 1.400 . S
C1301 C1300 1.385 . S
C1302 C1300 1.478 . S
C1302 C1304 1.381 . S
C1302 C1308 1.383 . S
C1303 C1299 1.495 . S
C1303 H1309 0.959 . S
C1303 H1310 0.961 . S
C1303 H1311 0.960 . S
C1304 C1302 1.381 . S
C1304 C1305 1.394 . S
C1304 H1312 0.930 . S
C1305 C1304 1.394 . S
C1305 C1306 1.383 . S
C1305 H1313 0.929 . S
C1306 C1305 1.383 . S
C1306 C1307 1.377 . S
C1307 H1291 0.930 . S
C1307 C1306 1.377 . S
C1307 C1308 1.379 . S
C1308 H1292 0.931 . S
C1308 C1302 1.383 . S
C1308 C1307 1.379 . S
H1309 C1303 0.959 . S
H1310 C1303 0.961 . S
H1311 C1303 0.960 . S
H1312 C1304 0.930 . S
H1313 C1305 0.929 . S
H1314 C1322 0.929 . S
H1315 C1324 0.930 . S
H1316 C1326 0.930 . S
H1317 C1329 0.929 . S
H1318 C1332 0.930 . S
H1319 C1334 0.960 . S
H1320 C1334 0.960 . S
H1321 C1334 0.960 . S
C1322 H1314 0.929 . S
C1322 C1323 1.377 . S
C1322 C1324 1.384 . S
C1323 C1322 1.377 . S
C1323 C1329 1.390 . S
C1324 H1315 0.930 . S
C1324 C1322 1.384 . S
C1324 C1325 1.372 . S
C1325 C1324 1.372 . S
C1325 C1326 1.400 . S
C1325 C1330 1.490 . S
C1326 H1316 0.930 . S
C1326 C1325 1.400 . S
C1326 C1329 1.386 . S
H1327 C1343 0.930 . S
H1328 C1344 0.931 . S
C1329 H1317 0.929 . S
C1329 C1323 1.390 . S
C1329 C1326 1.386 . S
C1330 C1325 1.490 . S
C1330 C1332 1.395 . S
C1330 C1333 1.403 . S
H1331 C1337 0.930 . S
C1332 H1318 0.930 . S
C1332 C1330 1.395 . S
C1332 C1335 1.403 . S
C1333 C1330 1.403 . S
C1333 C1334 1.524 . S
C1333 C1337 1.400 . S
C1334 H1319 0.960 . S
C1334 H1320 0.960 . S
C1334 H1321 0.960 . S
C1334 C1333 1.524 . S
C1335 C1332 1.403 . S
C1335 C1336 1.392 . S
C1335 C1339 1.495 . S
C1336 C1335 1.392 . S
C1336 C1337 1.385 . S
C1336 C1338 1.478 . S
C1337 H1331 0.930 . S
C1337 C1333 1.400 . S
C1337 C1336 1.385 . S
C1338 C1336 1.478 . S
C1338 C1340 1.381 . S
C1338 C1344 1.383 . S
C1339 C1335 1.495 . S
C1339 H1345 0.959 . S
C1339 H1346 0.961 . S
C1339 H1347 0.960 . S
C1340 C1338 1.381 . S
C1340 C1341 1.394 . S
C1340 H1348 0.930 . S
C1341 C1340 1.394 . S
C1341 C1342 1.383 . S
C1341 H1349 0.929 . S
C1342 C1341 1.383 . S
C1342 C1343 1.377 . S
C1343 H1327 0.930 . S
C1343 C1342 1.377 . S
C1343 C1344 1.379 . S
C1344 H1328 0.931 . S
C1344 C1338 1.383 . S
C1344 C1343 1.379 . S
H1345 C1339 0.959 . S
H1346 C1339 0.961 . S
H1347 C1339 0.960 . S
H1348 C1340 0.930 . S
H1349 C1341 0.929 . S
H1350 C1358 0.929 . S
H1351 C1360 0.930 . S
H1352 C1362 0.930 . S
H1353 C1365 0.929 . S
H1354 C1368 0.930 . S
H1355 C1370 0.960 . S
H1356 C1370 0.960 . S
H1357 C1370 0.960 . S
C1358 H1350 0.929 . S
C1358 C1359 1.377 . S
C1358 C1360 1.384 . S
C1359 C1358 1.377 . S
C1359 C1365 1.390 . S
C1360 H1351 0.930 . S
C1360 C1358 1.384 . S
C1360 C1361 1.372 . S
C1361 C1360 1.372 . S
C1361 C1362 1.400 . S
C1361 C1366 1.490 . S
C1362 H1352 0.930 . S
C1362 C1361 1.400 . S
C1362 C1365 1.386 . S
H1363 C1379 0.930 . S
H1364 C1380 0.931 . S
C1365 H1353 0.929 . S
C1365 C1359 1.390 . S
C1365 C1362 1.386 . S
C1366 C1361 1.490 . S
C1366 C1368 1.395 . S
C1366 C1369 1.403 . S
H1367 C1373 0.930 . S
C1368 H1354 0.930 . S
C1368 C1366 1.395 . S
C1368 C1371 1.403 . S
C1369 C1366 1.403 . S
C1369 C1370 1.524 . S
C1369 C1373 1.400 . S
C1370 H1355 0.960 . S
C1370 H1356 0.960 . S
C1370 H1357 0.960 . S
C1370 C1369 1.524 . S
C1371 C1368 1.403 . S
C1371 C1372 1.392 . S
C1371 C1375 1.495 . S
C1372 C1371 1.392 . S
C1372 C1373 1.385 . S
C1372 C1374 1.478 . S
C1373 H1367 0.930 . S
C1373 C1369 1.400 . S
C1373 C1372 1.385 . S
C1374 C1372 1.478 . S
C1374 C1376 1.381 . S
C1374 C1380 1.383 . S
C1375 C1371 1.495 . S
C1375 H1381 0.959 . S
C1375 H1382 0.961 . S
C1375 H1383 0.960 . S
C1376 C1374 1.381 . S
C1376 C1377 1.394 . S
C1376 H1384 0.930 . S
C1377 C1376 1.394 . S
C1377 C1378 1.383 . S
C1377 H1385 0.929 . S
C1378 C1377 1.383 . S
C1378 C1379 1.377 . S
C1379 H1363 0.930 . S
C1379 C1378 1.377 . S
C1379 C1380 1.379 . S
C1380 H1364 0.931 . S
C1380 C1374 1.383 . S
C1380 C1379 1.379 . S
H1381 C1375 0.959 . S
H1382 C1375 0.961 . S
H1383 C1375 0.960 . S
H1384 C1376 0.930 . S
H1385 C1377 0.929 . S
H1386 C1394 0.929 . S
H1387 C1396 0.930 . S
H1388 C1398 0.930 . S
H1389 C1401 0.929 . S
H1390 C1404 0.930 . S
H1391 C1406 0.960 . S
H1392 C1406 0.960 . S
H1393 C1406 0.960 . S
C1394 H1386 0.929 . S
C1394 C1395 1.377 . S
C1394 C1396 1.384 . S
C1395 C1394 1.377 . S
C1395 C1401 1.390 . S
C1396 H1387 0.930 . S
C1396 C1394 1.384 . S
C1396 C1397 1.372 . S
C1397 C1396 1.372 . S
C1397 C1398 1.400 . S
C1397 C1402 1.490 . S
C1398 H1388 0.930 . S
C1398 C1397 1.400 . S
C1398 C1401 1.386 . S
H1399 C1415 0.930 . S
H1400 C1416 0.931 . S
C1401 H1389 0.929 . S
C1401 C1395 1.390 . S
C1401 C1398 1.386 . S
C1402 C1397 1.490 . S
C1402 C1404 1.395 . S
C1402 C1405 1.403 . S
H1403 C1409 0.930 . S
C1404 H1390 0.930 . S
C1404 C1402 1.395 . S
C1404 C1407 1.403 . S
C1405 C1402 1.403 . S
C1405 C1406 1.524 . S
C1405 C1409 1.400 . S
C1406 H1391 0.960 . S
C1406 H1392 0.960 . S
C1406 H1393 0.960 . S
C1406 C1405 1.524 . S
C1407 C1404 1.403 . S
C1407 C1408 1.392 . S
C1407 C1411 1.495 . S
C1408 C1407 1.392 . S
C1408 C1409 1.385 . S
C1408 C1410 1.478 . S
C1409 H1403 0.930 . S
C1409 C1405 1.400 . S
C1409 C1408 1.385 . S
C1410 C1408 1.478 . S
C1410 C1412 1.381 . S
C1410 C1416 1.383 . S
C1411 C1407 1.495 . S
C1411 H1417 0.959 . S
C1411 H1418 0.961 . S
C1411 H1419 0.960 . S
C1412 C1410 1.381 . S
C1412 C1413 1.394 . S
C1412 H1420 0.930 . S
C1413 C1412 1.394 . S
C1413 C1414 1.383 . S
C1413 H1421 0.929 . S
C1414 C1413 1.383 . S
C1414 C1415 1.377 . S
C1415 H1399 0.930 . S
C1415 C1414 1.377 . S
C1415 C1416 1.379 . S
C1416 H1400 0.931 . S
C1416 C1410 1.383 . S
C1416 C1415 1.379 . S
H1417 C1411 0.959 . S
H1418 C1411 0.961 . S
H1419 C1411 0.960 . S
H1420 C1412 0.930 . S
H1421 C1413 0.929 . S
H1422 C1430 0.929 . S
H1423 C1432 0.930 . S
H1424 C1434 0.930 . S
H1425 C1437 0.929 . S
H1426 C1440 0.930 . S
H1427 C1442 0.960 . S
H1428 C1442 0.960 . S
H1429 C1442 0.960 . S
C1430 H1422 0.929 . S
C1430 C1431 1.377 . S
C1430 C1432 1.384 . S
C1431 C1430 1.377 . S
C1431 C1437 1.390 . S
C1432 H1423 0.930 . S
C1432 C1430 1.384 . S
C1432 C1433 1.372 . S
C1433 C1432 1.372 . S
C1433 C1434 1.400 . S
C1433 C1438 1.490 . S
C1434 H1424 0.930 . S
C1434 C1433 1.400 . S
C1434 C1437 1.386 . S
H1435 C1451 0.930 . S
H1436 C1452 0.931 . S
C1437 H1425 0.929 . S
C1437 C1431 1.390 . S
C1437 C1434 1.386 . S
C1438 C1433 1.490 . S
C1438 C1440 1.395 . S
C1438 C1441 1.403 . S
H1439 C1445 0.930 . S
C1440 H1426 0.930 . S
C1440 C1438 1.395 . S
C1440 C1443 1.403 . S
C1441 C1438 1.403 . S
C1441 C1442 1.524 . S
C1441 C1445 1.400 . S
C1442 H1427 0.960 . S
C1442 H1428 0.960 . S
C1442 H1429 0.960 . S
C1442 C1441 1.524 . S
C1443 C1440 1.403 . S
C1443 C1444 1.392 . S
C1443 C1447 1.495 . S
C1444 C1443 1.392 . S
C1444 C1445 1.385 . S
C1444 C1446 1.478 . S
C1445 H1439 0.930 . S
C1445 C1441 1.400 . S
C1445 C1444 1.385 . S
C1446 C1444 1.478 . S
C1446 C1448 1.381 . S
C1446 C1452 1.383 . S
C1447 C1443 1.495 . S
C1447 H1453 0.959 . S
C1447 H1454 0.961 . S
C1447 H1455 0.960 . S
C1448 C1446 1.381 . S
C1448 C1449 1.394 . S
C1448 H1456 0.930 . S
C1449 C1448 1.394 . S
C1449 C1450 1.383 . S
C1449 H1457 0.929 . S
C1450 C1449 1.383 . S
C1450 C1451 1.377 . S
C1451 H1435 0.930 . S
C1451 C1450 1.377 . S
C1451 C1452 1.379 . S
C1452 H1436 0.931 . S
C1452 C1446 1.383 . S
C1452 C1451 1.379 . S
H1453 C1447 0.959 . S
H1454 C1447 0.961 . S
H1455 C1447 0.960 . S
H1456 C1448 0.930 . S
H1457 C1449 0.929 . S
H1458 C1466 0.929 . S
H1459 C1468 0.930 . S
H1460 C1470 0.930 . S
H1461 C1473 0.929 . S
H1462 C1476 0.930 . S
H1463 C1478 0.960 . S
H1464 C1478 0.960 1_554 S
H1465 C1478 0.960 . S
C1466 H1458 0.929 . S
C1466 C1467 1.377 . S
C1466 C1468 1.384 . S
C1467 C1466 1.377 . S
C1467 C1473 1.390 . S
C1468 H1459 0.930 . S
C1468 C1466 1.384 . S
C1468 C1469 1.372 . S
C1469 C1468 1.372 . S
C1469 C1470 1.400 . S
C1469 C1474 1.490 . S
C1470 H1460 0.930 . S
C1470 C1469 1.400 . S
C1470 C1473 1.386 . S
H1471 C1487 0.930 . S
H1472 C1488 0.931 . S
C1473 H1461 0.929 . S
C1473 C1467 1.390 . S
C1473 C1470 1.386 . S
C1474 C1469 1.490 . S
C1474 C1476 1.395 . S
C1474 C1477 1.403 1_554 S
H1475 C1481 0.930 . S
C1476 H1462 0.930 . S
C1476 C1474 1.395 . S
C1476 C1479 1.403 1_655 S
C1477 C1474 1.403 1_556 S
C1477 C1478 1.524 . S
C1477 C1481 1.400 1_655 S
C1478 H1463 0.960 . S
C1478 H1464 0.960 1_556 S
C1478 H1465 0.960 . S
C1478 C1477 1.524 . S
C1479 C1476 1.403 1_455 S
C1479 C1480 1.392 1_554 S
C1479 C1483 1.495 . S
C1480 C1479 1.392 1_556 S
C1480 C1481 1.385 . S
C1480 C1482 1.478 . S
C1481 H1475 0.930 . S
C1481 C1477 1.400 1_455 S
C1481 C1480 1.385 . S
C1482 C1480 1.478 . S
C1482 C1484 1.381 . S
C1482 C1488 1.383 . S
C1483 C1479 1.495 . S
C1483 H1489 0.959 . S
C1483 H1490 0.961 1_554 S
C1483 H1491 0.960 . S
C1484 C1482 1.381 . S
C1484 C1485 1.394 . S
C1484 H1492 0.930 . S
C1485 C1484 1.394 . S
C1485 C1486 1.383 . S
C1485 H1493 0.929 . S
C1486 C1485 1.383 . S
C1486 C1487 1.377 . S
C1487 H1471 0.930 . S
C1487 C1486 1.377 . S
C1487 C1488 1.379 . S
C1488 H1472 0.931 . S
C1488 C1482 1.383 . S
C1488 C1487 1.379 . S
H1489 C1483 0.959 . S
H1490 C1483 0.961 1_556 S
H1491 C1483 0.960 . S
H1492 C1484 0.930 . S
H1493 C1485 0.929 . S
H1494 C1502 0.929 . S
H1495 C1504 0.930 . S
H1496 C1506 0.930 . S
H1497 C1509 0.929 . S
H1498 C1512 0.930 . S
H1499 C1514 0.960 . S
H1500 C1514 0.960 . S
H1501 C1514 0.960 . S
C1502 H1494 0.929 . S
C1502 C1503 1.377 . S
C1502 C1504 1.384 . S
C1503 C1502 1.377 . S
C1503 C1509 1.390 . S
C1504 H1495 0.930 . S
C1504 C1502 1.384 . S
C1504 C1505 1.372 . S
C1505 C1504 1.372 . S
C1505 C1506 1.400 . S
C1505 C1510 1.490 . S
C1506 H1496 0.930 . S
C1506 C1505 1.400 . S
C1506 C1509 1.386 . S
H1507 C1523 0.930 . S
H1508 C1524 0.931 . S
C1509 H1497 0.929 . S
C1509 C1503 1.390 . S
C1509 C1506 1.386 . S
C1510 C1505 1.490 . S
C1510 C1512 1.395 1_556 S
C1510 C1513 1.403 . S
H1511 C1517 0.930 . S
C1512 H1498 0.930 . S
C1512 C1510 1.395 1_554 S
C1512 C1515 1.403 . S
C1513 C1510 1.403 . S
C1513 C1514 1.524 . S
C1513 C1517 1.400 . S
C1514 H1499 0.960 . S
C1514 H1500 0.960 . S
C1514 H1501 0.960 . S
C1514 C1513 1.524 . S
C1515 C1512 1.403 . S
C1515 C1516 1.392 . S
C1515 C1519 1.495 . S
C1516 C1515 1.392 . S
C1516 C1517 1.385 1_554 S
C1516 C1518 1.478 . S
C1517 H1511 0.930 . S
C1517 C1513 1.400 . S
C1517 C1516 1.385 1_556 S
C1518 C1516 1.478 . S
C1518 C1520 1.381 . S
C1518 C1524 1.383 . S
C1519 C1515 1.495 . S
C1519 H1525 0.959 . S
C1519 H1526 0.961 . S
C1519 H1527 0.960 . S
C1520 C1518 1.381 . S
C1520 C1521 1.394 . S
C1520 H1528 0.930 . S
C1521 C1520 1.394 . S
C1521 C1522 1.383 . S
C1521 H1529 0.929 . S
C1522 C1521 1.383 . S
C1522 C1523 1.377 . S
C1523 H1507 0.930 . S
C1523 C1522 1.377 . S
C1523 C1524 1.379 . S
C1524 H1508 0.931 . S
C1524 C1518 1.383 . S
C1524 C1523 1.379 . S
H1525 C1519 0.959 . S
H1526 C1519 0.961 . S
H1527 C1519 0.960 . S
H1528 C1520 0.930 . S
H1529 C1521 0.929 . S
H1530 C1538 0.929 . S
H1531 C1540 0.930 . S
H1532 C1542 0.930 . S
H1533 C1545 0.929 . S
H1534 C1548 0.930 . S
H1535 C1550 0.960 1_556 S
H1536 C1550 0.960 . S
H1537 C1550 0.960 . S
C1538 H1530 0.929 . S
C1538 C1539 1.377 . S
C1538 C1540 1.384 . S
C1539 C1538 1.377 . S
C1539 C1545 1.390 . S
C1540 H1531 0.930 . S
C1540 C1538 1.384 . S
C1540 C1541 1.372 . S
C1541 C1540 1.372 . S
C1541 C1542 1.400 . S
C1541 C1546 1.490 . S
C1542 H1532 0.930 . S
C1542 C1541 1.400 . S
C1542 C1545 1.386 . S
H1543 C1559 0.930 . S
H1544 C1560 0.931 . S
C1545 H1533 0.929 . S
C1545 C1539 1.390 . S
C1545 C1542 1.386 . S
C1546 C1541 1.490 . S
C1546 C1548 1.395 . S
C1546 C1549 1.403 . S
H1547 C1553 0.930 . S
C1548 H1534 0.930 . S
C1548 C1546 1.395 . S
C1548 C1551 1.403 1_544 S
C1549 C1546 1.403 . S
C1549 C1550 1.524 . S
C1549 C1553 1.400 1_544 S
C1550 H1535 0.960 1_554 S
C1550 H1536 0.960 . S
C1550 H1537 0.960 . S
C1550 C1549 1.524 . S
C1551 C1548 1.403 1_566 S
C1551 C1552 1.392 . S
C1551 C1555 1.495 . S
C1552 C1551 1.392 . S
C1552 C1553 1.385 . S
C1552 C1554 1.478 . S
C1553 H1547 0.930 . S
C1553 C1549 1.400 1_566 S
C1553 C1552 1.385 . S
C1554 C1552 1.478 . S
C1554 C1556 1.381 . S
C1554 C1560 1.383 . S
C1555 C1551 1.495 . S
C1555 H1561 0.959 1_556 S
C1555 H1562 0.961 . S
C1555 H1563 0.960 1_556 S
C1556 C1554 1.381 . S
C1556 C1557 1.394 . S
C1556 H1564 0.930 . S
C1557 C1556 1.394 . S
C1557 C1558 1.383 . S
C1557 H1565 0.929 . S
C1558 C1557 1.383 . S
C1558 C1559 1.377 . S
C1559 H1543 0.930 . S
C1559 C1558 1.377 . S
C1559 C1560 1.379 . S
C1560 H1544 0.931 . S
C1560 C1554 1.383 . S
C1560 C1559 1.379 . S
H1561 C1555 0.959 1_554 S
H1562 C1555 0.961 . S
H1563 C1555 0.960 1_554 S
H1564 C1556 0.930 . S
H1565 C1557 0.929 . S
H1566 C1574 0.929 . S
H1567 C1576 0.930 . S
H1568 C1578 0.930 1_556 S
H1569 C1581 0.929 . S
H1570 C1584 0.930 . S
H1571 C1586 0.960 . S
H1572 C1586 0.960 . S
H1573 C1586 0.960 . S
C1574 H1566 0.929 . S
C1574 C1575 1.377 . S
C1574 C1576 1.384 . S
C1575 C1574 1.377 . S
C1575 C1581 1.390 . S
C1576 H1567 0.930 . S
C1576 C1574 1.384 . S
C1576 C1577 1.372 . S
C1577 C1576 1.372 . S
C1577 C1578 1.400 . S
C1577 C1582 1.490 . S
C1578 H1568 0.930 1_554 S
C1578 C1577 1.400 . S
C1578 C1581 1.386 . S
H1579 C1595 0.930 . S
H1580 C1596 0.931 . S
C1581 H1569 0.929 . S
C1581 C1575 1.390 . S
C1581 C1578 1.386 . S
C1582 C1577 1.490 . S
C1582 C1584 1.395 1_554 S
C1582 C1585 1.403 . S
H1583 C1589 0.930 . S
C1584 H1570 0.930 . S
C1584 C1582 1.395 1_556 S
C1584 C1587 1.403 . S
C1585 C1582 1.403 . S
C1585 C1586 1.524 . S
C1585 C1589 1.400 . S
C1586 H1571 0.960 . S
C1586 H1572 0.960 . S
C1586 H1573 0.960 . S
C1586 C1585 1.524 . S
C1587 C1584 1.403 . S
C1587 C1588 1.392 . S
C1587 C1591 1.495 . S
C1588 C1587 1.392 . S
C1588 C1589 1.385 1_556 S
C1588 C1590 1.478 . S
C1589 H1583 0.930 . S
C1589 C1585 1.400 . S
C1589 C1588 1.385 1_554 S
C1590 C1588 1.478 . S
C1590 C1592 1.381 . S
C1590 C1596 1.383 . S
C1591 C1587 1.495 . S
C1591 H1597 0.959 . S
C1591 H1598 0.961 . S
C1591 H1599 0.960 . S
C1592 C1590 1.381 . S
C1592 C1593 1.394 . S
C1592 H1600 0.930 1_556 S
C1593 C1592 1.394 . S
C1593 C1594 1.383 . S
C1593 H1601 0.929 . S
C1594 C1593 1.383 . S
C1594 C1595 1.377 . S
C1595 H1579 0.930 . S
C1595 C1594 1.377 . S
C1595 C1596 1.379 . S
C1596 H1580 0.931 . S
C1596 C1590 1.383 . S
C1596 C1595 1.379 . S
H1597 C1591 0.959 . S
H1598 C1591 0.961 . S
H1599 C1591 0.960 . S
H1600 C1592 0.930 1_554 S
H1601 C1593 0.929 . S
H1602 C1610 0.929 . S
H1603 C1612 0.930 . S
H1604 C1614 0.930 . S
H1605 C1617 0.929 . S
H1606 C1620 0.930 . S
H1607 C1622 0.960 . S
H1608 C1622 0.960 . S
H1609 C1622 0.960 . S
C1610 H1602 0.929 . S
C1610 C1611 1.377 . S
C1610 C1612 1.384 . S
C1611 C1610 1.377 . S
C1611 C1617 1.390 . S
C1612 H1603 0.930 . S
C1612 C1610 1.384 . S
C1612 C1613 1.372 . S
C1613 C1612 1.372 . S
C1613 C1614 1.400 . S
C1613 C1618 1.490 . S
C1614 H1604 0.930 . S
C1614 C1613 1.400 . S
C1614 C1617 1.386 . S
H1615 C1631 0.930 . S
H1616 C1632 0.931 . S
C1617 H1605 0.929 . S
C1617 C1611 1.390 . S
C1617 C1614 1.386 . S
C1618 C1613 1.490 . S
C1618 C1620 1.395 . S
C1618 C1621 1.403 1_554 S
H1619 C1625 0.930 . S
C1620 H1606 0.930 . S
C1620 C1618 1.395 . S
C1620 C1623 1.403 1_565 S
C1621 C1618 1.403 1_556 S
C1621 C1622 1.524 . S
C1621 C1625 1.400 1_565 S
C1622 H1607 0.960 . S
C1622 H1608 0.960 . S
C1622 H1609 0.960 . S
C1622 C1621 1.524 . S
C1623 C1620 1.403 1_545 S
C1623 C1624 1.392 1_554 S
C1623 C1627 1.495 . S
C1624 C1623 1.392 1_556 S
C1624 C1625 1.385 . S
C1624 C1626 1.478 . S
C1625 H1619 0.930 . S
C1625 C1621 1.400 1_545 S
C1625 C1624 1.385 . S
C1626 C1624 1.478 . S
C1626 C1628 1.381 . S
C1626 C1632 1.383 . S
C1627 C1623 1.495 . S
C1627 H1633 0.959 . S
C1627 H1634 0.961 . S
C1627 H1635 0.960 . S
C1628 C1626 1.381 . S
C1628 C1629 1.394 . S
C1628 H1636 0.930 . S
C1629 C1628 1.394 . S
C1629 C1630 1.383 . S
C1629 H1637 0.929 . S
C1630 C1629 1.383 . S
C1630 C1631 1.377 . S
C1631 H1615 0.930 . S
C1631 C1630 1.377 . S
C1631 C1632 1.379 . S
C1632 H1616 0.931 . S
C1632 C1626 1.383 . S
C1632 C1631 1.379 . S
H1633 C1627 0.959 . S
H1634 C1627 0.961 . S
H1635 C1627 0.960 . S
H1636 C1628 0.930 . S
H1637 C1629 0.929 . S
H1638 C1646 0.929 . S
H1639 C1648 0.930 . S
H1640 C1650 0.930 1_554 S
H1641 C1653 0.929 . S
H1642 C1656 0.930 . S
H1643 C1658 0.960 . S
H1644 C1658 0.960 . S
H1645 C1658 0.960 . S
C1646 H1638 0.929 . S
C1646 C1647 1.377 . S
C1646 C1648 1.384 . S
C1647 C1646 1.377 . S
C1647 C1653 1.390 . S
C1648 H1639 0.930 . S
C1648 C1646 1.384 . S
C1648 C1649 1.372 . S
C1649 C1648 1.372 . S
C1649 C1650 1.400 . S
C1649 C1654 1.490 . S
C1650 H1640 0.930 1_556 S
C1650 C1649 1.400 . S
C1650 C1653 1.386 . S
H1651 C1667 0.930 . S
H1652 C1668 0.931 . S
C1653 H1641 0.929 . S
C1653 C1647 1.390 . S
C1653 C1650 1.386 . S
C1654 C1649 1.490 . S
C1654 C1656 1.395 1_556 S
C1654 C1657 1.403 . S
H1655 C1661 0.930 . S
C1656 H1642 0.930 . S
C1656 C1654 1.395 1_554 S
C1656 C1659 1.403 1_655 S
C1657 C1654 1.403 . S
C1657 C1658 1.524 . S
C1657 C1661 1.400 1_655 S
C1658 H1643 0.960 . S
C1658 H1644 0.960 . S
C1658 H1645 0.960 . S
C1658 C1657 1.524 . S
C1659 C1656 1.403 1_455 S
C1659 C1660 1.392 . S
C1659 C1663 1.495 . S
C1660 C1659 1.392 . S
C1660 C1661 1.385 1_554 S
C1660 C1662 1.478 . S
C1661 H1655 0.930 . S
C1661 C1657 1.400 1_455 S
C1661 C1660 1.385 1_556 S
C1662 C1660 1.478 . S
C1662 C1664 1.381 . S
C1662 C1668 1.383 . S
C1663 C1659 1.495 . S
C1663 H1669 0.959 . S
C1663 H1670 0.961 . S
C1663 H1671 0.960 . S
C1664 C1662 1.381 . S
C1664 C1665 1.394 . S
C1664 H1672 0.930 1_554 S
C1665 C1664 1.394 . S
C1665 C1666 1.383 . S
C1665 H1673 0.929 1_554 S
C1666 C1665 1.383 . S
C1666 C1667 1.377 . S
C1667 H1651 0.930 . S
C1667 C1666 1.377 . S
C1667 C1668 1.379 . S
C1668 H1652 0.931 . S
C1668 C1662 1.383 . S
C1668 C1667 1.379 . S
H1669 C1663 0.959 . S
H1670 C1663 0.961 . S
H1671 C1663 0.960 . S
H1672 C1664 0.930 1_556 S
H1673 C1665 0.929 1_556 S
H1674 C1682 0.929 . S
H1675 C1684 0.930 . S
H1676 C1686 0.930 . S
H1677 C1689 0.929 . S
H1678 C1692 0.930 . S
H1679 C1694 0.960 . S
H1680 C1694 0.960 . S
H1681 C1694 0.960 . S
C1682 H1674 0.929 . S
C1682 C1683 1.377 . S
C1682 C1684 1.384 . S
C1683 C1682 1.377 . S
C1683 C1689 1.390 . S
C1684 H1675 0.930 . S
C1684 C1682 1.384 . S
C1684 C1685 1.372 . S
C1685 C1684 1.372 . S
C1685 C1686 1.400 . S
C1685 C1690 1.490 . S
C1686 H1676 0.930 . S
C1686 C1685 1.400 . S
C1686 C1689 1.386 . S
H1687 C1703 0.930 . S
H1688 C1704 0.931 . S
C1689 H1677 0.929 . S
C1689 C1683 1.390 . S
C1689 C1686 1.386 . S
C1690 C1685 1.490 . S
C1690 C1692 1.395 1_556 S
C1690 C1693 1.403 . S
H1691 C1697 0.930 . S
C1692 H1678 0.930 . S
C1692 C1690 1.395 1_554 S
C1692 C1695 1.403 . S
C1693 C1690 1.403 . S
C1693 C1694 1.524 . S
C1693 C1697 1.400 . S
C1694 H1679 0.960 . S
C1694 H1680 0.960 . S
C1694 H1681 0.960 . S
C1694 C1693 1.524 . S
C1695 C1692 1.403 . S
C1695 C1696 1.392 . S
C1695 C1699 1.495 . S
C1696 C1695 1.392 . S
C1696 C1697 1.385 1_554 S
C1696 C1698 1.478 . S
C1697 H1691 0.930 . S
C1697 C1693 1.400 . S
C1697 C1696 1.385 1_556 S
C1698 C1696 1.478 . S
C1698 C1700 1.381 . S
C1698 C1704 1.383 . S
C1699 C1695 1.495 . S
C1699 H1705 0.959 . S
C1699 H1706 0.961 . S
C1699 H1707 0.960 . S
C1700 C1698 1.381 . S
C1700 C1701 1.394 . S
C1700 H1708 0.930 . S
C1701 C1700 1.394 . S
C1701 C1702 1.383 . S
C1701 H1709 0.929 . S
C1702 C1701 1.383 . S
C1702 C1703 1.377 . S
C1703 H1687 0.930 . S
C1703 C1702 1.377 . S
C1703 C1704 1.379 . S
C1704 H1688 0.931 . S
C1704 C1698 1.383 . S
C1704 C1703 1.379 . S
H1705 C1699 0.959 . S
H1706 C1699 0.961 . S
H1707 C1699 0.960 . S
H1708 C1700 0.930 . S
H1709 C1701 0.929 . S
H1710 C1718 0.930 . S
H1711 C1720 0.930 1_554 S
H1712 C1722 0.930 . S
H1713 C1725 0.929 . S
H1714 C1728 0.930 . S
H1715 C1730 0.960 . S
H1716 C1730 0.960 . S
H1717 C1730 0.960 1_556 S
C1718 H1710 0.930 . S
C1718 C1719 1.377 . S
C1718 C1720 1.384 . S
C1719 C1718 1.377 . S
C1719 C1725 1.390 . S
C1720 H1711 0.930 1_556 S
C1720 C1718 1.384 . S
C1720 C1721 1.372 . S
C1721 C1720 1.372 . S
C1721 C1722 1.400 . S
C1721 C1726 1.490 . S
C1722 H1712 0.930 . S
C1722 C1721 1.400 . S
C1722 C1725 1.386 . S
H1723 C1739 0.930 1_556 S
H1724 C1740 0.933 . S
C1725 H1713 0.929 . S
C1725 C1719 1.390 . S
C1725 C1722 1.386 . S
C1726 C1721 1.490 . S
C1726 C1728 1.395 . S
C1726 C1729 1.403 1_556 S
H1727 C1733 0.930 . S
C1728 H1714 0.930 . S
C1728 C1726 1.395 . S
C1728 C1731 1.405 1_545 S
C1729 C1726 1.403 1_554 S
C1729 C1730 1.524 . S
C1729 C1733 1.400 1_545 S
C1730 H1715 0.960 . S
C1730 H1716 0.960 . S
C1730 H1717 0.960 1_554 S
C1730 C1729 1.524 . S
C1731 C1728 1.405 1_565 S
C1731 C1732 1.390 1_556 S
C1731 C1735 1.496 . S
C1732 C1731 1.390 1_554 S
C1732 C1733 1.385 . S
C1732 C1734 1.478 . S
C1733 H1727 0.930 . S
C1733 C1729 1.400 1_565 S
C1733 C1732 1.385 . S
C1734 C1732 1.478 . S
C1734 C1736 1.381 . S
C1734 C1740 1.382 1_554 S
C1735 C1731 1.496 . S
C1735 H1741 0.959 . S
C1735 H1742 0.961 . S
C1735 H1743 0.960 1_556 S
C1736 C1734 1.381 . S
C1736 C1737 1.394 . S
C1736 H1744 0.930 . S
C1737 C1736 1.394 . S
C1737 C1738 1.383 . S
C1737 H1745 0.929 . S
C1738 C1737 1.383 . S
C1738 C1739 1.377 . S
C1739 H1723 0.930 1_554 S
C1739 C1738 1.377 . S
C1739 C1740 1.379 1_554 S
C1740 H1724 0.933 . S
C1740 C1734 1.382 1_556 S
C1740 C1739 1.379 1_556 S
H1741 C1735 0.959 . S
H1742 C1735 0.961 . S
H1743 C1735 0.960 1_554 S
H1744 C1736 0.930 . S
H1745 C1737 0.929 . S
H1746 C1754 0.929 1_554 S
H1747 C1756 0.930 . S
H1748 C1758 0.930 . S
H1749 C1761 0.929 . S
H1750 C1764 0.930 . S
H1751 C1766 0.960 1_554 S
H1752 C1766 0.960 1_554 S
H1753 C1766 0.960 . S
C1754 H1746 0.929 1_556 S
C1754 C1755 1.377 . S
C1754 C1756 1.384 1_556 S
C1755 C1754 1.377 . S
C1755 C1761 1.390 . S
C1756 H1747 0.930 . S
C1756 C1754 1.384 1_554 S
C1756 C1757 1.372 1_554 S
C1757 C1756 1.372 1_556 S
C1757 C1758 1.400 . S
C1757 C1762 1.490 . S
C1758 H1748 0.930 . S
C1758 C1757 1.400 . S
C1758 C1761 1.386 . S
H1759 C1775 0.930 1_556 S
H1760 C1776 0.931 . S
C1761 H1749 0.929 . S
C1761 C1755 1.390 . S
C1761 C1758 1.386 . S
C1762 C1757 1.490 . S
C1762 C1764 1.395 . S
C1762 C1765 1.403 . S
H1763 C1769 0.930 . S
C1764 H1750 0.930 . S
C1764 C1762 1.395 . S
C1764 C1767 1.403 1_656 S
C1765 C1762 1.403 . S
C1765 C1766 1.524 . S
C1765 C1769 1.400 1_656 S
C1766 H1751 0.960 1_556 S
C1766 H1752 0.960 1_556 S
C1766 H1753 0.960 . S
C1766 C1765 1.524 . S
C1767 C1764 1.403 1_454 S
C1767 C1768 1.392 . S
C1767 C1771 1.495 . S
C1768 C1767 1.392 . S
C1768 C1769 1.385 . S
C1768 C1770 1.478 . S
C1769 H1763 0.930 . S
C1769 C1765 1.400 1_454 S
C1769 C1768 1.385 . S
C1770 C1768 1.478 . S
C1770 C1772 1.381 . S
C1770 C1776 1.383 1_554 S
C1771 C1767 1.495 . S
C1771 H1777 0.959 . S
C1771 H1778 0.961 1_554 S
C1771 H1779 0.960 . S
C1772 C1770 1.381 . S
C1772 C1773 1.394 . S
C1772 H1780 0.930 . S
C1773 C1772 1.394 . S
C1773 C1774 1.383 . S
C1773 H1781 0.929 . S
C1774 C1773 1.383 . S
C1774 C1775 1.377 . S
C1775 H1759 0.930 1_554 S
C1775 C1774 1.377 . S
C1775 C1776 1.379 1_554 S
C1776 H1760 0.931 . S
C1776 C1770 1.383 1_556 S
C1776 C1775 1.379 1_556 S
H1777 C1771 0.959 . S
H1778 C1771 0.961 1_556 S
H1779 C1771 0.960 . S
H1780 C1772 0.930 . S
H1781 C1773 0.929 . S
H1782 C1790 0.929 . S
H1783 C1792 0.930 . S
H1784 C1794 0.930 . S
H1785 C1797 0.929 . S
H1786 C1800 0.930 . S
H1787 C1802 0.960 . S
H1788 C1802 0.960 . S
H1789 C1802 0.960 . S
C1790 H1782 0.929 . S
C1790 C1791 1.377 . S
C1790 C1792 1.384 . S
C1791 C1790 1.377 . S
C1791 C1797 1.390 . S
C1792 H1783 0.930 . S
C1792 C1790 1.384 . S
C1792 C1793 1.372 . S
C1793 C1792 1.372 . S
C1793 C1794 1.400 . S
C1793 C1798 1.490 . S
C1794 H1784 0.930 . S
C1794 C1793 1.400 . S
C1794 C1797 1.386 . S
H1795 C1811 0.930 . S
H1796 C1812 0.931 . S
C1797 H1785 0.929 . S
C1797 C1791 1.390 . S
C1797 C1794 1.386 . S
C1798 C1793 1.490 . S
C1798 C1800 1.395 . S
C1798 C1801 1.403 . S
H1799 C1805 0.930 . S
C1800 H1786 0.930 . S
C1800 C1798 1.395 . S
C1800 C1803 1.403 . S
C1801 C1798 1.403 . S
C1801 C1802 1.524 . S
C1801 C1805 1.400 . S
C1802 H1787 0.960 . S
C1802 H1788 0.960 . S
C1802 H1789 0.960 . S
C1802 C1801 1.524 . S
C1803 C1800 1.403 . S
C1803 C1804 1.392 . S
C1803 C1807 1.495 . S
C1804 C1803 1.392 . S
C1804 C1805 1.385 . S
C1804 C1806 1.478 . S
C1805 H1799 0.930 . S
C1805 C1801 1.400 . S
C1805 C1804 1.385 . S
C1806 C1804 1.478 . S
C1806 C1808 1.381 . S
C1806 C1812 1.383 . S
C1807 C1803 1.495 . S
C1807 H1813 0.959 . S
C1807 H1814 0.961 . S
C1807 H1815 0.960 . S
C1808 C1806 1.381 . S
C1808 C1809 1.394 . S
C1808 H1816 0.930 . S
C1809 C1808 1.394 . S
C1809 C1810 1.383 . S
C1809 H1817 0.929 . S
C1810 C1809 1.383 . S
C1810 C1811 1.377 . S
C1811 H1795 0.930 . S
C1811 C1810 1.377 . S
C1811 C1812 1.379 . S
C1812 H1796 0.931 . S
C1812 C1806 1.383 . S
C1812 C1811 1.379 . S
H1813 C1807 0.959 . S
H1814 C1807 0.961 . S
H1815 C1807 0.960 . S
H1816 C1808 0.930 . S
H1817 C1809 0.929 . S
H1818 C1826 0.929 . S
H1819 C1828 0.930 . S
H1820 C1830 0.930 . S
H1821 C1833 0.929 . S
H1822 C1836 0.930 . S
H1823 C1838 0.960 . S
H1824 C1838 0.960 . S
H1825 C1838 0.960 . S
C1826 H1818 0.929 . S
C1826 C1827 1.377 . S
C1826 C1828 1.384 . S
C1827 C1826 1.377 . S
C1827 C1833 1.390 . S
C1828 H1819 0.930 . S
C1828 C1826 1.384 . S
C1828 C1829 1.372 . S
C1829 C1828 1.372 . S
C1829 C1830 1.400 . S
C1829 C1834 1.490 . S
C1830 H1820 0.930 . S
C1830 C1829 1.400 . S
C1830 C1833 1.386 . S
H1831 C1847 0.930 . S
H1832 C1848 0.931 . S
C1833 H1821 0.929 . S
C1833 C1827 1.390 . S
C1833 C1830 1.386 . S
C1834 C1829 1.490 . S
C1834 C1836 1.395 . S
C1834 C1837 1.403 . S
H1835 C1841 0.930 . S
C1836 H1822 0.930 . S
C1836 C1834 1.395 . S
C1836 C1839 1.403 . S
C1837 C1834 1.403 . S
C1837 C1838 1.524 . S
C1837 C1841 1.400 . S
C1838 H1823 0.960 . S
C1838 H1824 0.960 . S
C1838 H1825 0.960 . S
C1838 C1837 1.524 . S
C1839 C1836 1.403 . S
C1839 C1840 1.392 . S
C1839 C1843 1.495 . S
C1840 C1839 1.392 . S
C1840 C1841 1.385 . S
C1840 C1842 1.478 . S
C1841 H1835 0.930 . S
C1841 C1837 1.400 . S
C1841 C1840 1.385 . S
C1842 C1840 1.478 . S
C1842 C1844 1.381 . S
C1842 C1848 1.383 . S
C1843 C1839 1.495 . S
C1843 H1849 0.959 . S
C1843 H1850 0.961 . S
C1843 H1851 0.960 . S
C1844 C1842 1.381 . S
C1844 C1845 1.394 . S
C1844 H1852 0.930 . S
C1845 C1844 1.394 . S
C1845 C1846 1.383 . S
C1845 H1853 0.929 . S
C1846 C1845 1.383 . S
C1846 C1847 1.377 . S
C1847 H1831 0.930 . S
C1847 C1846 1.377 . S
C1847 C1848 1.379 . S
C1848 H1832 0.931 . S
C1848 C1842 1.383 . S
C1848 C1847 1.379 . S
H1849 C1843 0.959 . S
H1850 C1843 0.961 . S
H1851 C1843 0.960 . S
H1852 C1844 0.930 . S
H1853 C1845 0.929 . S
H1854 C1862 0.929 . S
H1855 C1864 0.930 . S
H1856 C1866 0.930 . S
H1857 C1869 0.929 . S
H1858 C1872 0.930 . S
H1859 C1874 0.960 . S
H1860 C1874 0.960 . S
H1861 C1874 0.960 . S
C1862 H1854 0.929 . S
C1862 C1863 1.377 . S
C1862 C1864 1.384 . S
C1863 C1862 1.377 . S
C1863 C1869 1.390 . S
C1864 H1855 0.930 . S
C1864 C1862 1.384 . S
C1864 C1865 1.372 . S
C1865 C1864 1.372 . S
C1865 C1866 1.400 . S
C1865 C1870 1.490 . S
C1866 H1856 0.930 . S
C1866 C1865 1.400 . S
C1866 C1869 1.386 . S
H1867 C1883 0.930 . S
H1868 C1884 0.931 . S
C1869 H1857 0.929 . S
C1869 C1863 1.390 . S
C1869 C1866 1.386 . S
C1870 C1865 1.490 . S
C1870 C1872 1.395 . S
C1870 C1873 1.403 . S
H1871 C1877 0.930 . S
C1872 H1858 0.930 . S
C1872 C1870 1.395 . S
C1872 C1875 1.403 . S
C1873 C1870 1.403 . S
C1873 C1874 1.524 . S
C1873 C1877 1.400 . S
C1874 H1859 0.960 . S
C1874 H1860 0.960 . S
C1874 H1861 0.960 . S
C1874 C1873 1.524 . S
C1875 C1872 1.403 . S
C1875 C1876 1.392 . S
C1875 C1879 1.495 . S
C1876 C1875 1.392 . S
C1876 C1877 1.385 . S
C1876 C1878 1.478 . S
C1877 H1871 0.930 . S
C1877 C1873 1.400 . S
C1877 C1876 1.385 . S
C1878 C1876 1.478 . S
C1878 C1880 1.381 . S
C1878 C1884 1.383 . S
C1879 C1875 1.495 . S
C1879 H1885 0.959 . S
C1879 H1886 0.961 . S
C1879 H1887 0.960 . S
C1880 C1878 1.381 . S
C1880 C1881 1.394 . S
C1880 H1888 0.930 . S
C1881 C1880 1.394 . S
C1881 C1882 1.383 . S
C1881 H1889 0.929 . S
C1882 C1881 1.383 . S
C1882 C1883 1.377 . S
C1883 H1867 0.930 . S
C1883 C1882 1.377 . S
C1883 C1884 1.379 . S
C1884 H1868 0.931 . S
C1884 C1878 1.383 . S
C1884 C1883 1.379 . S
H1885 C1879 0.959 . S
H1886 C1879 0.961 . S
H1887 C1879 0.960 . S
H1888 C1880 0.930 . S
H1889 C1881 0.929 . S
H1890 C1898 0.929 . S
H1891 C1900 0.930 . S
H1892 C1902 0.930 . S
H1893 C1905 0.929 . S
H1894 C1908 0.930 . S
H1895 C1910 0.960 . S
H1896 C1910 0.960 . S
H1897 C1910 0.960 . S
C1898 H1890 0.929 . S
C1898 C1899 1.377 . S
C1898 C1900 1.384 . S
C1899 C1898 1.377 . S
C1899 C1905 1.390 . S
C1900 H1891 0.930 . S
C1900 C1898 1.384 . S
C1900 C1901 1.372 . S
C1901 C1900 1.372 . S
C1901 C1902 1.400 . S
C1901 C1906 1.490 . S
C1902 H1892 0.930 . S
C1902 C1901 1.400 . S
C1902 C1905 1.386 . S
H1903 C1919 0.930 . S
H1904 C1920 0.931 . S
C1905 H1893 0.929 . S
C1905 C1899 1.390 . S
C1905 C1902 1.386 . S
C1906 C1901 1.490 . S
C1906 C1908 1.395 . S
C1906 C1909 1.403 . S
H1907 C1913 0.930 . S
C1908 H1894 0.930 . S
C1908 C1906 1.395 . S
C1908 C1911 1.403 . S
C1909 C1906 1.403 . S
C1909 C1910 1.524 . S
C1909 C1913 1.400 . S
C1910 H1895 0.960 . S
C1910 H1896 0.960 . S
C1910 H1897 0.960 . S
C1910 C1909 1.524 . S
C1911 C1908 1.403 . S
C1911 C1912 1.392 . S
C1911 C1915 1.495 . S
C1912 C1911 1.392 . S
C1912 C1913 1.385 . S
C1912 C1914 1.478 . S
C1913 H1907 0.930 . S
C1913 C1909 1.400 . S
C1913 C1912 1.385 . S
C1914 C1912 1.478 . S
C1914 C1916 1.381 . S
C1914 C1920 1.383 . S
C1915 C1911 1.495 . S
C1915 H1921 0.959 . S
C1915 H1922 0.961 . S
C1915 H1923 0.960 . S
C1916 C1914 1.381 . S
C1916 C1917 1.394 . S
C1916 H1924 0.930 . S
C1917 C1916 1.394 . S
C1917 C1918 1.383 . S
C1917 H1925 0.929 . S
C1918 C1917 1.383 . S
C1918 C1919 1.377 . S
C1919 H1903 0.930 . S
C1919 C1918 1.377 . S
C1919 C1920 1.379 . S
C1920 H1904 0.931 . S
C1920 C1914 1.383 . S
C1920 C1919 1.379 . S
H1921 C1915 0.959 . S
H1922 C1915 0.961 . S
H1923 C1915 0.960 . S
H1924 C1916 0.930 . S
H1925 C1917 0.929 . S
H1926 C1934 0.929 . S
H1927 C1936 0.930 . S
H1928 C1938 0.930 . S
H1929 C1941 0.929 . S
H1930 C1944 0.930 . S
H1931 C1946 0.960 . S
H1932 C1946 0.960 . S
H1933 C1946 0.960 . S
C1934 H1926 0.929 . S
C1934 C1935 1.377 . S
C1934 C1936 1.384 . S
C1935 C1934 1.377 . S
C1935 C1941 1.390 . S
C1936 H1927 0.930 . S
C1936 C1934 1.384 . S
C1936 C1937 1.372 . S
C1937 C1936 1.372 . S
C1937 C1938 1.400 . S
C1937 C1942 1.490 . S
C1938 H1928 0.930 . S
C1938 C1937 1.400 . S
C1938 C1941 1.386 . S
H1939 C1955 0.930 . S
H1940 C1956 0.931 . S
C1941 H1929 0.929 . S
C1941 C1935 1.390 . S
C1941 C1938 1.386 . S
C1942 C1937 1.490 . S
C1942 C1944 1.395 . S
C1942 C1945 1.403 . S
H1943 C1949 0.930 . S
C1944 H1930 0.930 . S
C1944 C1942 1.395 . S
C1944 C1947 1.403 . S
C1945 C1942 1.403 . S
C1945 C1946 1.524 . S
C1945 C1949 1.400 . S
C1946 H1931 0.960 . S
C1946 H1932 0.960 . S
C1946 H1933 0.960 . S
C1946 C1945 1.524 . S
C1947 C1944 1.403 . S
C1947 C1948 1.392 . S
C1947 C1951 1.495 . S
C1948 C1947 1.392 . S
C1948 C1949 1.385 . S
C1948 C1950 1.478 . S
C1949 H1943 0.930 . S
C1949 C1945 1.400 . S
C1949 C1948 1.385 . S
C1950 C1948 1.478 . S
C1950 C1952 1.381 . S
C1950 C1956 1.383 . S
C1951 C1947 1.495 . S
C1951 H1957 0.959 . S
C1951 H1958 0.961 . S
C1951 H1959 0.960 . S
C1952 C1950 1.381 . S
C1952 C1953 1.394 . S
C1952 H1960 0.930 . S
C1953 C1952 1.394 . S
C1953 C1954 1.383 . S
C1953 H1961 0.929 . S
C1954 C1953 1.383 . S
C1954 C1955 1.377 . S
C1955 H1939 0.930 . S
C1955 C1954 1.377 . S
C1955 C1956 1.379 . S
C1956 H1940 0.931 . S
C1956 C1950 1.383 . S
C1956 C1955 1.379 . S
H1957 C1951 0.959 . S
H1958 C1951 0.961 . S
H1959 C1951 0.960 . S
H1960 C1952 0.930 . S
H1961 C1953 0.929 . S
H1962 C1970 0.929 . S
H1963 C1972 0.930 . S
H1964 C1974 0.930 . S
H1965 C1977 0.929 . S
H1966 C1980 0.930 . S
H1967 C1982 0.960 . S
H1968 C1982 0.960 . S
H1969 C1982 0.960 . S
C1970 H1962 0.929 . S
C1970 C1971 1.377 . S
C1970 C1972 1.384 . S
C1971 C1970 1.377 . S
C1971 C1977 1.390 . S
C1972 H1963 0.930 . S
C1972 C1970 1.384 . S
C1972 C1973 1.372 . S
C1973 C1972 1.372 . S
C1973 C1974 1.400 . S
C1973 C1978 1.490 . S
C1974 H1964 0.930 . S
C1974 C1973 1.400 . S
C1974 C1977 1.386 . S
H1975 C1991 0.930 . S
H1976 C1992 0.931 . S
C1977 H1965 0.929 . S
C1977 C1971 1.390 . S
C1977 C1974 1.386 . S
C1978 C1973 1.490 . S
C1978 C1980 1.395 . S
C1978 C1981 1.403 . S
H1979 C1985 0.930 . S
C1980 H1966 0.930 . S
C1980 C1978 1.395 . S
C1980 C1983 1.403 . S
C1981 C1978 1.403 . S
C1981 C1982 1.524 . S
C1981 C1985 1.400 . S
C1982 H1967 0.960 . S
C1982 H1968 0.960 . S
C1982 H1969 0.960 . S
C1982 C1981 1.524 . S
C1983 C1980 1.403 . S
C1983 C1984 1.392 . S
C1983 C1987 1.495 . S
C1984 C1983 1.392 . S
C1984 C1985 1.385 . S
C1984 C1986 1.478 . S
C1985 H1979 0.930 . S
C1985 C1981 1.400 . S
C1985 C1984 1.385 . S
C1986 C1984 1.478 . S
C1986 C1988 1.381 . S
C1986 C1992 1.383 . S
C1987 C1983 1.495 . S
C1987 H1993 0.959 . S
C1987 H1994 0.961 . S
C1987 H1995 0.960 . S
C1988 C1986 1.381 . S
C1988 C1989 1.394 . S
C1988 H1996 0.930 . S
C1989 C1988 1.394 . S
C1989 C1990 1.383 . S
C1989 H1997 0.929 . S
C1990 C1989 1.383 . S
C1990 C1991 1.377 . S
C1991 H1975 0.930 . S
C1991 C1990 1.377 . S
C1991 C1992 1.379 . S
C1992 H1976 0.931 . S
C1992 C1986 1.383 . S
C1992 C1991 1.379 . S
H1993 C1987 0.959 . S
H1994 C1987 0.961 . S
H1995 C1987 0.960 . S
H1996 C1988 0.930 . S
H1997 C1989 0.929 . S
H1998 C2006 0.929 . S
H1999 C2008 0.930 . S
H2000 C2010 0.930 . S
H2001 C2013 0.929 . S
H2002 C2016 0.930 . S
H2003 C2018 0.960 . S
H2004 C2018 0.960 . S
H2005 C2018 0.960 . S
C2006 H1998 0.929 . S
C2006 C2007 1.377 . S
C2006 C2008 1.384 . S
C2007 C2006 1.377 . S
C2007 C2013 1.390 . S
C2008 H1999 0.930 . S
C2008 C2006 1.384 . S
C2008 C2009 1.372 . S
C2009 C2008 1.372 . S
C2009 C2010 1.400 . S
C2009 C2014 1.490 . S
C2010 H2000 0.930 . S
C2010 C2009 1.400 . S
C2010 C2013 1.386 . S
H2011 C2027 0.930 . S
H2012 C2028 0.931 . S
C2013 H2001 0.929 . S
C2013 C2007 1.390 . S
C2013 C2010 1.386 . S
C2014 C2009 1.490 . S
C2014 C2016 1.395 . S
C2014 C2017 1.403 . S
H2015 C2021 0.930 . S
C2016 H2002 0.930 . S
C2016 C2014 1.395 . S
C2016 C2019 1.403 . S
C2017 C2014 1.403 . S
C2017 C2018 1.524 . S
C2017 C2021 1.400 . S
C2018 H2003 0.960 . S
C2018 H2004 0.960 . S
C2018 H2005 0.960 . S
C2018 C2017 1.524 . S
C2019 C2016 1.403 . S
C2019 C2020 1.392 . S
C2019 C2023 1.495 . S
C2020 C2019 1.392 . S
C2020 C2021 1.385 . S
C2020 C2022 1.478 . S
C2021 H2015 0.930 . S
C2021 C2017 1.400 . S
C2021 C2020 1.385 . S
C2022 C2020 1.478 . S
C2022 C2024 1.381 . S
C2022 C2028 1.383 . S
C2023 C2019 1.495 . S
C2023 H2029 0.959 . S
C2023 H2030 0.961 . S
C2023 H2031 0.960 . S
C2024 C2022 1.381 . S
C2024 C2025 1.394 . S
C2024 H2032 0.930 . S
C2025 C2024 1.394 . S
C2025 C2026 1.383 . S
C2025 H2033 0.929 . S
C2026 C2025 1.383 . S
C2026 C2027 1.377 . S
C2027 H2011 0.930 . S
C2027 C2026 1.377 . S
C2027 C2028 1.379 . S
C2028 H2012 0.931 . S
C2028 C2022 1.383 . S
C2028 C2027 1.379 . S
H2029 C2023 0.959 . S
H2030 C2023 0.961 . S
H2031 C2023 0.960 . S
H2032 C2024 0.930 . S
H2033 C2025 0.929 . S
H2034 C2042 0.929 . S
H2035 C2044 0.930 . S
H2036 C2046 0.930 . S
H2037 C2049 0.929 . S
H2038 C2052 0.930 . S
H2039 C2054 0.960 . S
H2040 C2054 0.960 . S
H2041 C2054 0.960 . S
C2042 H2034 0.929 . S
C2042 C2043 1.377 . S
C2042 C2044 1.384 . S
C2043 C2042 1.377 . S
C2043 C2049 1.390 . S
C2044 H2035 0.930 . S
C2044 C2042 1.384 . S
C2044 C2045 1.372 . S
C2045 C2044 1.372 . S
C2045 C2046 1.400 . S
C2045 C2050 1.490 . S
C2046 H2036 0.930 . S
C2046 C2045 1.400 . S
C2046 C2049 1.386 . S
H2047 C2063 0.930 . S
H2048 C2064 0.931 . S
C2049 H2037 0.929 . S
C2049 C2043 1.390 . S
C2049 C2046 1.386 . S
C2050 C2045 1.490 . S
C2050 C2052 1.395 . S
C2050 C2053 1.403 . S
H2051 C2057 0.930 . S
C2052 H2038 0.930 . S
C2052 C2050 1.395 . S
C2052 C2055 1.403 . S
C2053 C2050 1.403 . S
C2053 C2054 1.524 . S
C2053 C2057 1.400 . S
C2054 H2039 0.960 . S
C2054 H2040 0.960 . S
C2054 H2041 0.960 . S
C2054 C2053 1.524 . S
C2055 C2052 1.403 . S
C2055 C2056 1.392 . S
C2055 C2059 1.495 . S
C2056 C2055 1.392 . S
C2056 C2057 1.385 . S
C2056 C2058 1.478 . S
C2057 H2051 0.930 . S
C2057 C2053 1.400 . S
C2057 C2056 1.385 . S
C2058 C2056 1.478 . S
C2058 C2060 1.381 . S
C2058 C2064 1.383 . S
C2059 C2055 1.495 . S
C2059 H2065 0.959 . S
C2059 H2066 0.961 . S
C2059 H2067 0.960 . S
C2060 C2058 1.381 . S
C2060 C2061 1.394 . S
C2060 H2068 0.930 . S
C2061 C2060 1.394 . S
C2061 C2062 1.383 . S
C2061 H2069 0.929 . S
C2062 C2061 1.383 . S
C2062 C2063 1.377 . S
C2063 H2047 0.930 . S
C2063 C2062 1.377 . S
C2063 C2064 1.379 . S
C2064 H2048 0.931 . S
C2064 C2058 1.383 . S
C2064 C2063 1.379 . S
H2065 C2059 0.959 . S
H2066 C2059 0.961 . S
H2067 C2059 0.960 . S
H2068 C2060 0.930 . S
H2069 C2061 0.929 . S
H2070 C2078 0.929 . S
H2071 C2080 0.930 . S
H2072 C2082 0.930 . S
H2073 C2085 0.929 . S
H2074 C2088 0.930 . S
H2075 C2090 0.960 . S
H2076 C2090 0.960 . S
H2077 C2090 0.960 . S
C2078 H2070 0.929 . S
C2078 C2079 1.377 . S
C2078 C2080 1.384 . S
C2079 C2078 1.377 . S
C2079 C2085 1.390 . S
C2080 H2071 0.930 . S
C2080 C2078 1.384 . S
C2080 C2081 1.372 . S
C2081 C2080 1.372 . S
C2081 C2082 1.400 . S
C2081 C2086 1.490 . S
C2082 H2072 0.930 . S
C2082 C2081 1.400 . S
C2082 C2085 1.386 . S
H2083 C2099 0.930 . S
H2084 C2100 0.931 . S
C2085 H2073 0.929 . S
C2085 C2079 1.390 . S
C2085 C2082 1.386 . S
C2086 C2081 1.490 . S
C2086 C2088 1.395 . S
C2086 C2089 1.403 . S
H2087 C2093 0.930 . S
C2088 H2074 0.930 . S
C2088 C2086 1.395 . S
C2088 C2091 1.403 . S
C2089 C2086 1.403 . S
C2089 C2090 1.524 . S
C2089 C2093 1.400 . S
C2090 H2075 0.960 . S
C2090 H2076 0.960 . S
C2090 H2077 0.960 . S
C2090 C2089 1.524 . S
C2091 C2088 1.403 . S
C2091 C2092 1.392 . S
C2091 C2095 1.495 . S
C2092 C2091 1.392 . S
C2092 C2093 1.385 . S
C2092 C2094 1.478 . S
C2093 H2087 0.930 . S
C2093 C2089 1.400 . S
C2093 C2092 1.385 . S
C2094 C2092 1.478 . S
C2094 C2096 1.381 . S
C2094 C2100 1.383 . S
C2095 C2091 1.495 . S
C2095 H2101 0.959 . S
C2095 H2102 0.961 . S
C2095 H2103 0.960 . S
C2096 C2094 1.381 . S
C2096 C2097 1.394 . S
C2096 H2104 0.930 . S
C2097 C2096 1.394 . S
C2097 C2098 1.383 . S
C2097 H2105 0.929 . S
C2098 C2097 1.383 . S
C2098 C2099 1.377 . S
C2099 H2083 0.930 . S
C2099 C2098 1.377 . S
C2099 C2100 1.379 . S
C2100 H2084 0.931 . S
C2100 C2094 1.383 . S
C2100 C2099 1.379 . S
H2101 C2095 0.959 . S
H2102 C2095 0.961 . S
H2103 C2095 0.960 . S
H2104 C2096 0.930 . S
H2105 C2097 0.929 . S
H2106 C2114 0.929 . S
H2107 C2116 0.930 . S
H2108 C2118 0.930 . S
H2109 C2121 0.929 . S
H2110 C2124 0.930 . S
H2111 C2126 0.960 . S
H2112 C2126 0.960 . S
H2113 C2126 0.960 . S
C2114 H2106 0.929 . S
C2114 C2115 1.377 . S
C2114 C2116 1.384 . S
C2115 C2114 1.377 . S
C2115 C2121 1.390 . S
C2116 H2107 0.930 . S
C2116 C2114 1.384 . S
C2116 C2117 1.372 . S
C2117 C2116 1.372 . S
C2117 C2118 1.400 . S
C2117 C2122 1.490 . S
C2118 H2108 0.930 . S
C2118 C2117 1.400 . S
C2118 C2121 1.386 . S
H2119 C2135 0.930 . S
H2120 C2136 0.931 . S
C2121 H2109 0.929 . S
C2121 C2115 1.390 . S
C2121 C2118 1.386 . S
C2122 C2117 1.490 . S
C2122 C2124 1.395 . S
C2122 C2125 1.403 . S
H2123 C2129 0.930 . S
C2124 H2110 0.930 . S
C2124 C2122 1.395 . S
C2124 C2127 1.403 . S
C2125 C2122 1.403 . S
C2125 C2126 1.524 . S
C2125 C2129 1.400 . S
C2126 H2111 0.960 . S
C2126 H2112 0.960 . S
C2126 H2113 0.960 . S
C2126 C2125 1.524 . S
C2127 C2124 1.403 . S
C2127 C2128 1.392 . S
C2127 C2131 1.495 . S
C2128 C2127 1.392 . S
C2128 C2129 1.385 . S
C2128 C2130 1.478 . S
C2129 H2123 0.930 . S
C2129 C2125 1.400 . S
C2129 C2128 1.385 . S
C2130 C2128 1.478 . S
C2130 C2132 1.381 . S
C2130 C2136 1.383 . S
C2131 C2127 1.495 . S
C2131 H2137 0.959 . S
C2131 H2138 0.961 . S
C2131 H2139 0.960 . S
C2132 C2130 1.381 . S
C2132 C2133 1.394 . S
C2132 H2140 0.930 . S
C2133 C2132 1.394 . S
C2133 C2134 1.383 . S
C2133 H2141 0.929 . S
C2134 C2133 1.383 . S
C2134 C2135 1.377 . S
C2135 H2119 0.930 . S
C2135 C2134 1.377 . S
C2135 C2136 1.379 . S
C2136 H2120 0.931 . S
C2136 C2130 1.383 . S
C2136 C2135 1.379 . S
H2137 C2131 0.959 . S
H2138 C2131 0.961 . S
H2139 C2131 0.960 . S
H2140 C2132 0.930 . S
H2141 C2133 0.929 . S
H2142 C2150 0.929 . S
H2143 C2152 0.930 . S
H2144 C2154 0.930 . S
H2145 C2157 0.929 . S
H2146 C2160 0.930 . S
H2147 C2162 0.960 . S
H2148 C2162 0.960 . S
H2149 C2162 0.960 . S
C2150 H2142 0.929 . S
C2150 C2151 1.377 . S
C2150 C2152 1.384 . S
C2151 C2150 1.377 . S
C2151 C2157 1.390 . S
C2152 H2143 0.930 . S
C2152 C2150 1.384 . S
C2152 C2153 1.372 . S
C2153 C2152 1.372 . S
C2153 C2154 1.400 . S
C2153 C2158 1.490 . S
C2154 H2144 0.930 . S
C2154 C2153 1.400 . S
C2154 C2157 1.386 . S
H2155 C2171 0.930 . S
H2156 C2172 0.931 . S
C2157 H2145 0.929 . S
C2157 C2151 1.390 . S
C2157 C2154 1.386 . S
C2158 C2153 1.490 . S
C2158 C2160 1.395 . S
C2158 C2161 1.403 . S
H2159 C2165 0.930 . S
C2160 H2146 0.930 . S
C2160 C2158 1.395 . S
C2160 C2163 1.403 . S
C2161 C2158 1.403 . S
C2161 C2162 1.524 . S
C2161 C2165 1.400 . S
C2162 H2147 0.960 . S
C2162 H2148 0.960 . S
C2162 H2149 0.960 . S
C2162 C2161 1.524 . S
C2163 C2160 1.403 . S
C2163 C2164 1.392 . S
C2163 C2167 1.495 . S
C2164 C2163 1.392 . S
C2164 C2165 1.385 . S
C2164 C2166 1.478 . S
C2165 H2159 0.930 . S
C2165 C2161 1.400 . S
C2165 C2164 1.385 . S
C2166 C2164 1.478 . S
C2166 C2168 1.381 . S
C2166 C2172 1.383 . S
C2167 C2163 1.495 . S
C2167 H2173 0.959 . S
C2167 H2174 0.961 . S
C2167 H2175 0.960 . S
C2168 C2166 1.381 . S
C2168 C2169 1.394 . S
C2168 H2176 0.930 . S
C2169 C2168 1.394 . S
C2169 C2170 1.383 . S
C2169 H2177 0.929 . S
C2170 C2169 1.383 . S
C2170 C2171 1.377 . S
C2171 H2155 0.930 . S
C2171 C2170 1.377 . S
C2171 C2172 1.379 . S
C2172 H2156 0.931 . S
C2172 C2166 1.383 . S
C2172 C2171 1.379 . S
H2173 C2167 0.959 . S
H2174 C2167 0.961 . S
H2175 C2167 0.960 . S
H2176 C2168 0.930 . S
H2177 C2169 0.929 . S
H2178 C2186 0.929 . S
H2179 C2188 0.930 . S
H2180 C2190 0.930 . S
H2181 C2193 0.929 . S
H2182 C2196 0.930 . S
H2183 C2198 0.960 . S
H2184 C2198 0.960 . S
H2185 C2198 0.960 . S
C2186 H2178 0.929 . S
C2186 C2187 1.377 . S
C2186 C2188 1.384 . S
C2187 C2186 1.377 . S
C2187 C2193 1.390 . S
C2188 H2179 0.930 . S
C2188 C2186 1.384 . S
C2188 C2189 1.372 . S
C2189 C2188 1.372 . S
C2189 C2190 1.400 . S
C2189 C2194 1.490 . S
C2190 H2180 0.930 . S
C2190 C2189 1.400 . S
C2190 C2193 1.386 . S
H2191 C2207 0.930 . S
H2192 C2208 0.931 . S
C2193 H2181 0.929 . S
C2193 C2187 1.390 . S
C2193 C2190 1.386 . S
C2194 C2189 1.490 . S
C2194 C2196 1.395 . S
C2194 C2197 1.403 . S
H2195 C2201 0.930 . S
C2196 H2182 0.930 . S
C2196 C2194 1.395 . S
C2196 C2199 1.403 . S
C2197 C2194 1.403 . S
C2197 C2198 1.524 . S
C2197 C2201 1.400 . S
C2198 H2183 0.960 . S
C2198 H2184 0.960 . S
C2198 H2185 0.960 . S
C2198 C2197 1.524 . S
C2199 C2196 1.403 . S
C2199 C2200 1.392 . S
C2199 C2203 1.495 . S
C2200 C2199 1.392 . S
C2200 C2201 1.385 . S
C2200 C2202 1.478 . S
C2201 H2195 0.930 . S
C2201 C2197 1.400 . S
C2201 C2200 1.385 . S
C2202 C2200 1.478 . S
C2202 C2204 1.381 . S
C2202 C2208 1.383 . S
C2203 C2199 1.495 . S
C2203 H2209 0.959 . S
C2203 H2210 0.961 . S
C2203 H2211 0.960 . S
C2204 C2202 1.381 . S
C2204 C2205 1.394 . S
C2204 H2212 0.930 . S
C2205 C2204 1.394 . S
C2205 C2206 1.383 . S
C2205 H2213 0.929 . S
C2206 C2205 1.383 . S
C2206 C2207 1.377 . S
C2207 H2191 0.930 . S
C2207 C2206 1.377 . S
C2207 C2208 1.379 . S
C2208 H2192 0.931 . S
C2208 C2202 1.383 . S
C2208 C2207 1.379 . S
H2209 C2203 0.959 . S
H2210 C2203 0.961 . S
H2211 C2203 0.960 . S
H2212 C2204 0.930 . S
H2213 C2205 0.929 . S
C603 N13 0.925 . S
C622 N2 0.929 . S
C639 N46 0.919 . S
C658 N35 0.899 . S
C675 N68 0.921 . S
C694 N79 0.937 . S
C711 N112 0.925 . S
C730 N101 0.920 . S
C747 N145 0.923 . S
C766 N134 0.908 . S
C783 N167 0.918 . S
C802 N178 0.901 . S
C819 N200 0.922 . S
C838 N211 0.939 . S
C855 N233 0.924 . S
C874 N244 0.937 . S
C891 N277 0.925 . S
C910 N266 0.919 . S
C927 N310 0.917 1_556 S
C946 N299 0.912 . S
C963 N343 0.924 1_556 S
C982 N332 0.939 . S
C999 N365 0.920 . S
C1018 N376 0.901 1_556 S
C1035 N398 0.917 . S
C1054 N409 0.923 1_554 S
C1071 N431 0.918 . S
C1090 N442 0.901 1_554 S
C1107 N464 0.917 . S
C1126 N475 0.921 1_554 S
C1143 N508 0.918 . S
C1162 N497 0.901 . S
C1179 N541 0.919 . S
C1198 N530 0.899 . S
C1215 N563 0.917 . S
C1234 N574 0.920 . S
C1251 C579 1.575 . S
C1270 C18 1.577 . S
C1287 C51 1.573 . S
C1306 C513 1.584 . S
C1323 C546 1.572 . S
C1342 C84 1.584 . S
C1359 C249 1.574 . S
C1378 C117 1.567 . S
C1395 C150 1.568 . S
C1414 C282 1.561 . S
C1431 C183 1.572 . S
C1450 C216 1.583 . S
C1467 C315 1.574 . S
C1486 C447 1.562 . S
C1503 C480 1.571 . S
C1522 C348 1.580 . S
C1539 C381 1.574 . S
C1558 C414 1.566 . S
C1575 C7 1.506 . S
C1594 C106 1.507 . S
C1611 C40 1.502 . S
C1630 C139 1.489 . S
C1647 C172 1.506 . S
C1666 C73 1.503 . S
C1683 C186 1.538 . S
C1702 C54 1.541 . S
C1719 C120 1.535 . S
C1738 C87 1.532 . S
C1755 C153 1.535 . S
C1774 C21 1.533 . S
C1791 C304 1.506 . S
C1810 C205 1.502 . S
C1827 C337 1.505 . S
C1846 C238 1.512 . S
C1863 C271 1.502 . S
C1882 C370 1.506 . S
C1899 C384 1.537 . S
C1918 C252 1.541 . S
C1935 C285 1.537 . S
C1954 C318 1.541 . S
C1971 C219 1.535 . S
C1990 C351 1.527 . S
C2007 C502 1.502 . S
C2026 C403 1.507 . S
C2043 C535 1.504 . S
C2062 C436 1.489 . S
C2079 C568 1.502 . S
C2098 C469 1.506 . S
C2115 C450 1.538 . S
C2134 C582 1.537 . S
C2151 C483 1.535 . S
C2170 C516 1.538 . S
C2187 C549 1.536 . S
C2206 C417 1.525 . S
