# Generated by pormake.
# Topology wmc, (6)-cn, num edge types: 1
# Building blocks:
#     Node 0, Type 0, BuildingBlock: JUFBIX_clean_sbu_0, # of connection points: 6
#     Node 1, Type 0, BuildingBlock: JUFBIX_clean_sbu_0, # of connection points: 6
#     Node 2, Type 0, BuildingBlock: JUFBIX_clean_sbu_0, # of connection points: 6
#     Node 3, Type 0, BuildingBlock: JUFBIX_clean_sbu_0, # of connection points: 6
#     Node 4, Type 0, BuildingBlock: JUFBIX_clean_sbu_0, # of connection points: 6
#     Node 5, Type 0, BuildingBlock: JUFBIX_clean_sbu_0, # of connection points: 6
#     Node 6, Type 0, BuildingBlock: JUFBIX_clean_sbu_0, # of connection points: 6
#     Node 7, Type 0, BuildingBlock: JUFBIX_clean_sbu_0, # of connection points: 6
#     Node 8, Type 0, BuildingBlock: JUFBIX_clean_sbu_0, # of connection points: 6
#     Node 9, Type 0, BuildingBlock: JUFBIX_clean_sbu_0, # of connection points: 6
#     Node 10, Type 0, BuildingBlock: JUFBIX_clean_sbu_0, # of connection points: 6
#     Node 11, Type 0, BuildingBlock: JUFBIX_clean_sbu_0, # of connection points: 6
#     Node 12, Type 0, BuildingBlock: JUFBIX_clean_sbu_0, # of connection points: 6
#     Node 13, Type 0, BuildingBlock: JUFBIX_clean_sbu_0, # of connection points: 6
#     Node 14, Type 0, BuildingBlock: JUFBIX_clean_sbu_0, # of connection points: 6
#     Node 15, Type 0, BuildingBlock: JUFBIX_clean_sbu_0, # of connection points: 6
#     Node 16, Type 0, BuildingBlock: JUFBIX_clean_sbu_0, # of connection points: 6
#     Node 17, Type 0, BuildingBlock: JUFBIX_clean_sbu_0, # of connection points: 6
#     Edge 18, Type (0, 0), BuildingBlock: KIFKEQ_clean_linker_1, # of connection points: 2
#     Edge 19, Type (0, 0), BuildingBlock: KIFKEQ_clean_linker_1, # of connection points: 2
#     Edge 20, Type (0, 0), BuildingBlock: KIFKEQ_clean_linker_1, # of connection points: 2
#     Edge 21, Type (0, 0), BuildingBlock: KIFKEQ_clean_linker_1, # of connection points: 2
#     Edge 22, Type (0, 0), BuildingBlock: KIFKEQ_clean_linker_1, # of connection points: 2
#     Edge 23, Type (0, 0), BuildingBlock: KIFKEQ_clean_linker_1, # of connection points: 2
#     Edge 24, Type (0, 0), BuildingBlock: KIFKEQ_clean_linker_1, # of connection points: 2
#     Edge 25, Type (0, 0), BuildingBlock: KIFKEQ_clean_linker_1, # of connection points: 2
#     Edge 26, Type (0, 0), BuildingBlock: KIFKEQ_clean_linker_1, # of connection points: 2
#     Edge 27, Type (0, 0), BuildingBlock: KIFKEQ_clean_linker_1, # of connection points: 2
#     Edge 28, Type (0, 0), BuildingBlock: KIFKEQ_clean_linker_1, # of connection points: 2
#     Edge 29, Type (0, 0), BuildingBlock: KIFKEQ_clean_linker_1, # of connection points: 2
#     Edge 30, Type (0, 0), BuildingBlock: KIFKEQ_clean_linker_1, # of connection points: 2
#     Edge 31, Type (0, 0), BuildingBlock: KIFKEQ_clean_linker_1, # of connection points: 2
#     Edge 32, Type (0, 0), BuildingBlock: KIFKEQ_clean_linker_1, # of connection points: 2
#     Edge 33, Type (0, 0), BuildingBlock: KIFKEQ_clean_linker_1, # of connection points: 2
#     Edge 34, Type (0, 0), BuildingBlock: KIFKEQ_clean_linker_1, # of connection points: 2
#     Edge 35, Type (0, 0), BuildingBlock: KIFKEQ_clean_linker_1, # of connection points: 2
#     Edge 36, Type (0, 0), BuildingBlock: KIFKEQ_clean_linker_1, # of connection points: 2
#     Edge 37, Type (0, 0), BuildingBlock: KIFKEQ_clean_linker_1, # of connection points: 2
#     Edge 38, Type (0, 0), BuildingBlock: KIFKEQ_clean_linker_1, # of connection points: 2
#     Edge 39, Type (0, 0), BuildingBlock: KIFKEQ_clean_linker_1, # of connection points: 2
#     Edge 40, Type (0, 0), BuildingBlock: KIFKEQ_clean_linker_1, # of connection points: 2
#     Edge 41, Type (0, 0), BuildingBlock: KIFKEQ_clean_linker_1, # of connection points: 2
#     Edge 42, Type (0, 0), BuildingBlock: KIFKEQ_clean_linker_1, # of connection points: 2
#     Edge 43, Type (0, 0), BuildingBlock: KIFKEQ_clean_linker_1, # of connection points: 2
#     Edge 44, Type (0, 0), BuildingBlock: KIFKEQ_clean_linker_1, # of connection points: 2
#     Edge 45, Type (0, 0), BuildingBlock: KIFKEQ_clean_linker_1, # of connection points: 2
#     Edge 46, Type (0, 0), BuildingBlock: KIFKEQ_clean_linker_1, # of connection points: 2
#     Edge 47, Type (0, 0), BuildingBlock: KIFKEQ_clean_linker_1, # of connection points: 2
#     Edge 48, Type (0, 0), BuildingBlock: KIFKEQ_clean_linker_1, # of connection points: 2
#     Edge 49, Type (0, 0), BuildingBlock: KIFKEQ_clean_linker_1, # of connection points: 2
#     Edge 50, Type (0, 0), BuildingBlock: KIFKEQ_clean_linker_1, # of connection points: 2
#     Edge 51, Type (0, 0), BuildingBlock: KIFKEQ_clean_linker_1, # of connection points: 2
#     Edge 52, Type (0, 0), BuildingBlock: KIFKEQ_clean_linker_1, # of connection points: 2
#     Edge 53, Type (0, 0), BuildingBlock: KIFKEQ_clean_linker_1, # of connection points: 2
#     Edge 54, Type (0, 0), BuildingBlock: KIFKEQ_clean_linker_1, # of connection points: 2
#     Edge 55, Type (0, 0), BuildingBlock: KIFKEQ_clean_linker_1, # of connection points: 2
#     Edge 56, Type (0, 0), BuildingBlock: KIFKEQ_clean_linker_1, # of connection points: 2
#     Edge 57, Type (0, 0), BuildingBlock: KIFKEQ_clean_linker_1, # of connection points: 2
#     Edge 58, Type (0, 0), BuildingBlock: KIFKEQ_clean_linker_1, # of connection points: 2
#     Edge 59, Type (0, 0), BuildingBlock: KIFKEQ_clean_linker_1, # of connection points: 2
#     Edge 60, Type (0, 0), BuildingBlock: KIFKEQ_clean_linker_1, # of connection points: 2
#     Edge 61, Type (0, 0), BuildingBlock: KIFKEQ_clean_linker_1, # of connection points: 2
#     Edge 62, Type (0, 0), BuildingBlock: KIFKEQ_clean_linker_1, # of connection points: 2
#     Edge 63, Type (0, 0), BuildingBlock: KIFKEQ_clean_linker_1, # of connection points: 2
#     Edge 64, Type (0, 0), BuildingBlock: KIFKEQ_clean_linker_1, # of connection points: 2
#     Edge 65, Type (0, 0), BuildingBlock: KIFKEQ_clean_linker_1, # of connection points: 2
#     Edge 66, Type (0, 0), BuildingBlock: KIFKEQ_clean_linker_1, # of connection points: 2
#     Edge 67, Type (0, 0), BuildingBlock: KIFKEQ_clean_linker_1, # of connection points: 2
#     Edge 68, Type (0, 0), BuildingBlock: KIFKEQ_clean_linker_1, # of connection points: 2
#     Edge 69, Type (0, 0), BuildingBlock: KIFKEQ_clean_linker_1, # of connection points: 2
#     Edge 70, Type (0, 0), BuildingBlock: KIFKEQ_clean_linker_1, # of connection points: 2
#     Edge 71, Type (0, 0), BuildingBlock: KIFKEQ_clean_linker_1, # of connection points: 2
# Relax obj value: 0.515
# Max RMSD: 0.260
# Mean RMSD: 0.260
data_MOF--net-wmc--node1-JUFBIX_clean_sbu_0--edge1-KIFKEQ_clean_linker_1
_symmetry_space_group_name_H-M    P1
_symmetry_Int_Tables_number       1
_symmetry_cell_setting            triclinic
loop_
_symmetry_equiv_pos_as_xyz
'x, y, z'
_cell_length_a     51.438343
_cell_length_b     51.45599
_cell_length_c     29.218918
_cell_angle_alpha  89.794097
_cell_angle_beta   90.152471
_cell_angle_gamma 119.94788
loop_
_atom_site_label
_atom_site_type_symbol
_atom_site_fract_x
_atom_site_fract_y
_atom_site_fract_z
_atom_type_partial_charge
Co0 Co 0.61127 0.11594 0.00114 0.0
C1 C 0.5512 0.08231 0.97672 0.0
Co2 Co 0.59137 0.14517 0.98837 0.0
C3 C 0.65788 0.10721 0.042 0.0
C4 C 0.63433 0.07431 0.99043 0.0
N5 N 0.63349 0.09633 0.01393 0.0
N6 N 0.67444 0.0936 0.03615 0.0
C7 C 0.65921 0.07252 0.00398 0.0
H8 H 0.66426 0.12601 0.06468 0.0
H9 H 0.6192 0.0619 0.96278 0.0
C10 C 0.65057 0.17876 0.0093 0.0
N11 N 0.57256 0.16772 0.97753 0.0
C12 C 0.58019 0.1949 -0.00473 0.0
C13 C 0.54806 0.16045 0.95168 0.0
N14 N 0.56144 0.20463 0.98176 0.0
C15 C 0.54105 0.18299 0.95452 0.0
C16 C 0.58663 0.1268 0.0778 0.0
O17 O 0.64806 0.15299 0.01019 0.0
O18 O 0.6275 0.18086 0.00159 0.0
O19 O 0.58012 0.14141 0.0495 0.0
O20 O 0.60125 0.11425 0.06437 0.0
O21 O 0.55522 0.10883 0.97454 0.0
H22 H 0.53603 0.14011 0.93192 0.0
H23 H 0.59884 0.20721 0.0184 0.0
O24 O 0.57304 0.07872 0.99003 0.0
O25 O 0.62032 0.11781 0.9377 0.0
O26 O 0.60275 0.14867 0.92705 0.0
C27 C 0.6148 0.13421 0.91129 0.0
H28 H 0.66645 0.05804 0.98883 0.0
H29 H 0.52275 0.1837 0.93732 0.0
Co30 Co 0.93396 0.50565 -0.00458 0.0
C31 C 0.96887 0.48023 0.97296 0.0
Co32 Co 0.90564 0.45679 0.98148 0.0
C33 C 0.94097 0.56028 0.03584 0.0
C34 C 0.97541 0.57041 0.9866 0.0
N35 N 0.95274 0.54723 0.00878 0.0
N36 N 0.9547 0.5905 0.03062 0.0
C37 C 0.97673 0.59684 -6e-05 0.0
H38 H 0.92158 0.54757 0.05742 0.0
H39 H 0.98871 0.56812 0.96 0.0
C40 C 0.87049 0.48103 0.00029 0.0
N41 N 0.88437 0.41585 0.9697 0.0
C42 C 0.85785 0.39548 0.98827 0.0
C43 C 0.8919 0.39974 0.94192 0.0
N44 N 0.84874 0.36747 0.97343 0.0
C45 C 0.87011 0.36991 0.94443 0.0
C46 C 0.92193 0.46948 0.07204 0.0
O47 O 0.89611 0.50444 0.00326 0.0
O48 O 0.86913 0.45628 -0.00805 0.0
O49 O 0.90789 0.44867 0.04323 0.0
O50 O 0.93478 0.49673 0.05884 0.0
O51 O 0.9425 0.45765 0.9702 0.0
H52 H 0.9118 0.40905 0.92088 0.0
H53 H 0.8455 0.40095 0.01263 0.0
O54 O 0.97195 0.5055 0.98569 0.0
O55 O 0.93302 0.51357 0.93173 0.0
O56 O 0.90353 0.46516 0.9199 0.0
C57 C 0.91759 0.49184 0.90469 0.0
H58 H 0.99164 0.61877 0.98566 0.0
H59 H 0.86958 0.35157 0.9256 0.0
Co60 Co 0.54245 0.43851 0.00231 0.0
C61 C 0.56557 0.49848 0.9801 0.0
Co62 Co 0.59244 0.46245 -0.00256 0.0
C63 C 0.48676 0.38912 0.03656 0.0
C64 C 0.47814 0.41137 0.98168 0.0
N65 N 0.50041 0.41357 0.00867 0.0
N66 N 0.45713 0.37134 0.02747 0.0
C67 C 0.45167 0.38567 -0.00684 0.0
H68 H 0.49875 0.38379 0.06192 0.0
H69 H 0.48128 0.42636 0.95351 0.0
C70 C 0.56986 0.40305 0.01709 0.0
N71 N 0.63433 0.48483 -0.00621 0.0
C72 C 0.65424 0.47515 0.98815 0.0
C73 C 0.65143 0.5143 0.00336 0.0
N74 N 0.68292 0.49729 -0.00544 0.0
C75 C 0.68115 0.52199 0.00377 0.0
C76 C 0.57166 0.46438 0.08281 0.0
O77 O 0.54563 0.40375 0.01436 0.0
O78 O 0.59454 0.42736 0.01258 0.0
O79 O 0.5949 0.47247 0.0587 0.0
O80 O 0.54577 0.44787 0.06559 0.0
O81 O 0.58967 0.49723 0.98214 0.0
H82 H 0.64286 0.52907 0.0118 0.0
H83 H 0.64778 0.45197 0.98205 0.0
O84 O 0.54042 0.4747 0.98826 0.0
O85 O 0.54008 0.43011 0.93922 0.0
O86 O 0.58947 0.45243 0.93559 0.0
C87 C 0.56394 0.43829 0.9163 0.0
H88 H 0.43046 0.37736 0.97556 0.0
H89 H 0.69992 0.54394 0.0115 0.0
Co90 Co 0.90529 0.45884 0.48059 0.0
C91 C 0.86976 0.39966 0.50007 0.0
Co92 Co 0.93315 0.4379 0.49652 0.0
C93 C 0.85877 0.4741 0.4851 0.0
C94 C 0.88944 0.49752 0.43062 0.0
N95 N 0.88413 0.47805 0.46513 0.0
N96 N 0.84774 0.49005 0.46427 0.0
C97 C 0.86714 0.50495 0.43001 0.0
H98 H 0.84851 0.45951 0.51426 0.0
H99 H 0.90792 0.50524 0.40681 0.0
C100 C 0.96827 0.49848 0.47514 0.0
N101 N 0.95204 0.41568 0.51444 0.0
C102 C 0.93929 0.38523 0.51423 0.0
C103 C 0.97646 0.42502 0.5412 0.0
N104 N 0.95411 0.37513 0.54079 0.0
C105 C 0.97784 0.4004 0.55718 0.0
C106 C 0.91907 0.43512 0.40553 0.0
O107 O 0.94202 0.49497 0.47178 0.0
O108 O 0.97107 0.47579 0.48615 0.0
O109 O 0.9332 0.42778 0.43381 0.0
O110 O 0.90551 0.44856 0.41934 0.0
O111 O 0.8952 0.40171 0.50561 0.0
H112 H 0.99096 0.44805 0.55154 0.0
H113 H 0.91854 0.37054 0.49669 0.0
O114 O 0.86875 0.42292 0.48901 0.0
O115 O 0.90529 0.46894 0.54188 0.0
O116 O 0.93313 0.44892 0.55887 0.0
C117 C 0.91956 0.46273 0.57125 0.0
H118 H 0.86491 0.51937 0.4052 0.0
H119 H 0.99402 0.40117 0.58166 0.0
Co120 Co 0.5885 0.45596 0.49169 0.0
C121 C 0.64884 0.48031 0.50327 0.0
Co122 Co 0.61049 0.50521 0.50383 0.0
C123 C 0.57399 0.3941 0.49719 0.0
C124 C 0.54707 0.40043 0.4474 0.0
N125 N 0.56862 0.41515 0.47897 0.0
N126 N 0.55685 0.36681 0.47802 0.0
C127 C 0.53979 0.3708 0.44673 0.0
H128 H 0.59049 0.39893 0.52373 0.0
H129 H 0.53784 0.41077 0.42538 0.0
C130 C 0.54885 0.47951 0.48927 0.0
N131 N 0.63357 0.54669 0.51778 0.0
C132 C 0.65856 0.55946 0.54465 0.0
C133 C 0.63346 0.57016 0.49745 0.0
N134 N 0.67448 0.58981 0.54124 0.0
C135 C 0.65833 0.59648 0.51176 0.0
C136 C 0.60802 0.4909 0.4136 0.0
O137 O 0.55174 0.45635 0.48717 0.0
O138 O 0.57221 0.50509 0.49732 0.0
O139 O 0.61731 0.51335 0.44018 0.0
O140 O 0.59515 0.46453 0.42995 0.0
O141 O 0.64713 0.50389 0.50834 0.0
H142 H 0.61744 0.56821 0.47171 0.0
H143 H 0.66561 0.54648 0.56503 0.0
O144 O 0.62502 0.45575 0.49569 0.0
O145 O 0.5821 0.44775 0.55346 0.0
O146 O 0.60285 0.49607 0.56738 0.0
C147 C 0.59015 0.46906 0.58162 0.0
H148 H 0.52394 0.35384 0.42369 0.0
H149 H 0.66476 0.61868 0.49917 0.0
Co150 Co 0.59307 0.14211 0.48633 0.0
C151 C 0.56911 0.17791 0.50259 0.0
Co152 Co 0.54429 0.11449 0.50161 0.0
C153 C 0.65469 0.18879 0.49139 0.0
C154 C 0.648 0.15724 0.43875 0.0
N155 N 0.63352 0.16309 0.47194 0.0
N156 N 0.68182 0.19949 0.47146 0.0
C157 C 0.67768 0.17955 0.43837 0.0
H158 H 0.65009 0.19954 0.51948 0.0
H159 H 0.63749 0.13838 0.4156 0.0
C160 C 0.56972 0.07904 0.48277 0.0
N161 N 0.50312 0.0958 0.51757 0.0
C162 C 0.49039 0.10843 0.54344 0.0
C163 C 0.47958 0.07081 0.50051 0.0
N164 N 0.46002 0.09288 0.54241 0.0
C165 C 0.45321 0.06891 0.51576 0.0
C166 C 0.55623 0.12765 0.41052 0.0
O167 O 0.59255 0.10517 0.47901 0.0
O168 O 0.54435 0.07652 0.49349 0.0
O169 O 0.53474 0.11363 0.43855 0.0
O170 O 0.58315 0.1415 0.42469 0.0
O171 O 0.54568 0.1525 0.5078 0.0
H172 H 0.48139 0.05588 0.47642 0.0
H173 H 0.50321 0.12935 0.56163 0.0
O174 O 0.59355 0.17883 0.49322 0.0
O175 O 0.60258 0.14257 0.54795 0.0
O176 O 0.55465 0.11533 0.56457 0.0
C177 C 0.58199 0.12897 0.57728 0.0
H178 H 0.69456 0.18143 0.41445 0.0
H179 H 0.43077 0.05205 0.5057 0.0
Co180 Co 0.27749 0.44813 0.33216 0.0
C181 C 0.21636 0.41232 0.31483 0.0
Co182 Co 0.25579 0.47563 0.3179 0.0
C183 C 0.32559 0.44201 0.37402 0.0
C184 C 0.30102 0.40654 0.32645 0.0
N185 N 0.30075 0.42984 0.34676 0.0
N186 N 0.34176 0.42779 0.37086 0.0
C187 C 0.32592 0.40517 0.34115 0.0
H188 H 0.33236 0.46185 0.39448 0.0
H189 H 0.28523 0.3926 0.30044 0.0
C190 C 0.31575 0.51144 0.33259 0.0
N191 N 0.2357 0.49666 0.30545 0.0
C192 C 0.24341 0.52453 0.32 0.0
C193 C 0.21 0.48744 0.28173 0.0
N194 N 0.22362 0.53295 0.30646 0.0
C195 C 0.20243 0.50964 0.28257 0.0
C196 C 0.25504 0.46223 0.40874 0.0
O197 O 0.31393 0.48609 0.33786 0.0
O198 O 0.2921 0.51231 0.32396 0.0
O199 O 0.24788 0.47597 0.37979 0.0
O200 O 0.26869 0.44864 0.39555 0.0
O201 O 0.21941 0.4384 0.31155 0.0
H202 H 0.19747 0.46594 0.26496 0.0
H203 H 0.26287 0.53829 0.34096 0.0
O204 O 0.2395 0.40996 0.32445 0.0
O205 O 0.28532 0.44776 0.26865 0.0
O206 O 0.26394 0.47511 0.2558 0.0
C207 C 0.27721 0.46158 0.24105 0.0
H208 H 0.33261 0.38961 0.32864 0.0
H209 H 0.18314 0.50893 0.26633 0.0
Co210 Co 0.60091 0.83882 0.33179 0.0
C211 C 0.63652 0.81533 0.30554 0.0
Co212 Co 0.57332 0.7896 0.31947 0.0
C213 C 0.60759 0.89369 0.37097 0.0
C214 C 0.64043 0.90359 0.319 0.0
N215 N 0.61879 0.88056 0.34291 0.0
N216 N 0.62076 0.9238 0.36487 0.0
C217 C 0.64175 0.92999 0.33239 0.0
H218 H 0.5891 0.88107 0.39417 0.0
H219 H 0.65309 0.90115 0.2915 0.0
C220 C 0.53745 0.81218 0.34214 0.0
N221 N 0.55349 0.74796 0.31073 0.0
C222 C 0.52367 0.72822 0.30804 0.0
C223 C 0.56623 0.73054 0.31378 0.0
N224 N 0.51748 0.69943 0.31014 0.0
C225 C 0.54426 0.70088 0.31337 0.0
C226 C 0.59313 0.80472 0.40847 0.0
O227 O 0.56272 0.83618 0.34247 0.0
O228 O 0.53665 0.7876 0.33436 0.0
O229 O 0.57905 0.78346 0.38043 0.0
O230 O 0.60435 0.83176 0.39493 0.0
O231 O 0.61041 0.7924 0.30371 0.0
H232 H 0.58989 0.73865 0.3187 0.0
H233 H 0.50664 0.73469 0.30754 0.0
O234 O 0.6393 0.84024 0.31941 0.0
O235 O 0.5973 0.84479 0.26814 0.0
O236 O 0.5678 0.79605 0.25858 0.0
C237 C 0.58113 0.82251 0.24236 0.0
H238 H 0.65598 0.95179 0.31717 0.0
H239 H 0.5477 0.68186 0.31687 0.0
Co240 Co 0.21103 0.77217 0.33906 0.0
C241 C 0.23721 0.8333 0.32016 0.0
Co242 Co 0.26006 0.7932 0.32495 0.0
C243 C 0.152 0.71995 0.35729 0.0
C244 C 0.15439 0.7604 0.38045 0.0
N245 N 0.16983 0.75037 0.3562 0.0
N246 N 0.12672 0.71054 0.38243 0.0
C247 C 0.1281 0.73622 0.39638 0.0
H248 H 0.15839 0.70475 0.34257 0.0
H249 H 0.16267 0.78369 0.38888 0.0
C250 C 0.23534 0.73323 0.3411 0.0
N251 N 0.30049 0.81199 0.31004 0.0
C252 C 0.32164 0.80753 0.33008 0.0
C253 C 0.31488 0.83153 0.27578 0.0
N254 N 0.34869 0.82326 0.30954 0.0
C255 C 0.34446 0.83851 0.27538 0.0
C256 C 0.24899 0.79533 0.41499 0.0
O257 O 0.21197 0.73544 0.34497 0.0
O258 O 0.26017 0.75668 0.33329 0.0
O259 O 0.26994 0.80293 0.38618 0.0
O260 O 0.22178 0.78113 0.40177 0.0
O261 O 0.25993 0.82978 0.31637 0.0
H262 H 0.30436 0.83961 0.25196 0.0
H263 H 0.31708 0.79273 0.35907 0.0
O264 O 0.21179 0.81061 0.33115 0.0
O265 O 0.20113 0.76404 0.27664 0.0
O266 O 0.24956 0.78337 0.26339 0.0
C267 C 0.2227 0.77121 0.24893 0.0
H268 H 0.11196 0.73768 0.41827 0.0
H269 H 0.36121 0.8529 0.25077 0.0
Co270 Co 0.57225 0.79146 0.81875 0.0
C271 C 0.53724 0.73133 0.83352 0.0
Co272 Co 0.60038 0.77047 0.83274 0.0
C273 C 0.52287 0.80302 0.82382 0.0
C274 C 0.55925 0.8369 0.78483 0.0
N275 N 0.55056 0.81106 0.80791 0.0
N276 N 0.51408 0.82279 0.81182 0.0
C277 C 0.53693 0.84426 0.78747 0.0
H278 H 0.50958 0.78341 0.84483 0.0
H279 H 0.58052 0.84973 0.76747 0.0
C280 C 0.63536 0.83167 0.81538 0.0
N281 N 0.61937 0.7477 0.8453 0.0
C282 C 0.60842 0.72352 0.87384 0.0
C283 C 0.63952 0.74512 0.81914 0.0
N284 N 0.62007 0.70549 0.86547 0.0
C285 C 0.63986 0.71926 0.83123 0.0
C286 C 0.58672 0.77152 0.74155 0.0
O287 O 0.60912 0.82828 0.81276 0.0
O288 O 0.63812 0.80873 0.82468 0.0
O289 O 0.60042 0.76324 0.76904 0.0
O290 O 0.57281 0.78433 0.75647 0.0
O291 O 0.56276 0.73357 0.83901 0.0
H292 H 0.65116 0.75952 0.79035 0.0
H293 H 0.58998 0.71758 0.89722 0.0
O294 O 0.536 0.75473 0.82434 0.0
O295 O 0.57182 0.79842 0.88087 0.0
O296 O 0.60018 0.7787 0.89636 0.0
C297 C 0.58581 0.79152 0.90972 0.0
H298 H 0.5373 0.86366 0.77227 0.0
H299 H 0.65251 0.71042 0.81435 0.0
Co300 Co 0.25604 0.78886 0.82927 0.0
C301 C 0.31479 0.81222 0.85004 0.0
Co302 Co 0.27756 0.8384 0.8375 0.0
C303 C 0.24428 0.72744 0.81845 0.0
C304 C 0.20456 0.72978 0.831 0.0
N305 N 0.23428 0.74714 0.82316 0.0
N306 N 0.22207 0.6987 0.82373 0.0
C307 C 0.19703 0.70017 0.83116 0.0
H308 H 0.26768 0.73406 0.81429 0.0
H309 H 0.18949 0.73803 0.83908 0.0
C310 C 0.21787 0.81392 0.81313 0.0
N311 N 0.30156 0.88046 0.84678 0.0
C312 C 0.32689 0.89407 0.87291 0.0
C313 C 0.30103 0.90335 0.82511 0.0
N314 N 0.34245 0.92427 0.86783 0.0
C315 C 0.32591 0.93016 0.83806 0.0
C316 C 0.28011 0.81956 0.74973 0.0
O317 O 0.22127 0.79107 0.81358 0.0
O318 O 0.24033 0.83944 0.82423 0.0
O319 O 0.28671 0.84278 0.77363 0.0
O320 O 0.26694 0.79374 0.76821 0.0
O321 O 0.31311 0.83598 0.84859 0.0
H322 H 0.28447 0.90068 0.79984 0.0
H323 H 0.33432 0.88196 0.89459 0.0
O324 O 0.29109 0.78722 0.84434 0.0
O325 O 0.24522 0.78426 0.88999 0.0
O326 O 0.26754 0.83282 0.90135 0.0
C327 C 0.25221 0.80612 0.91657 0.0
H328 H 0.17497 0.68126 0.83801 0.0
H329 H 0.33208 0.95213 0.82468 0.0
Co330 Co 0.25942 0.47501 0.81685 0.0
C331 C 0.23628 0.5107 0.83645 0.0
Co332 Co 0.21056 0.44713 0.83158 0.0
C333 C 0.3216 0.52073 0.82308 0.0
C334 C 0.31385 0.49084 0.76736 0.0
N335 N 0.29994 0.49583 0.80243 0.0
N336 N 0.34847 0.53176 0.8021 0.0
C337 C 0.34363 0.51283 0.76708 0.0
H338 H 0.3175 0.53079 0.85261 0.0
H339 H 0.30282 0.47295 0.7427 0.0
C340 C 0.23527 0.41185 0.80816 0.0
N341 N 0.16919 0.42886 0.84727 0.0
C342 C 0.15654 0.44176 0.87287 0.0
C343 C 0.14551 0.40406 0.83003 0.0
N344 N 0.12614 0.42654 0.87151 0.0
C345 C 0.11922 0.40252 0.8449 0.0
C346 C 0.22288 0.46302 0.74122 0.0
O347 O 0.25792 0.43813 0.80478 0.0
O348 O 0.2102 0.40893 0.82184 0.0
O349 O 0.20136 0.44749 0.76855 0.0
O350 O 0.24968 0.47707 0.75588 0.0
O351 O 0.21258 0.48529 0.83918 0.0
H352 H 0.1472 0.38899 0.80608 0.0
H353 H 0.16944 0.46262 0.89116 0.0
O354 O 0.26086 0.51169 0.82813 0.0
O355 O 0.2687 0.47272 0.87794 0.0
O356 O 0.2206 0.44677 0.8943 0.0
C357 C 0.2479 0.45904 0.90699 0.0
H358 H 0.36008 0.51533 0.74182 0.0
H359 H 0.09676 0.38583 0.83465 0.0
Co360 Co 0.94388 0.78195 0.66653 0.0
C361 C 0.88196 0.74574 0.65487 0.0
Co362 Co 0.92132 0.80872 0.65413 0.0
C363 C 0.99345 0.77662 0.70438 0.0
C364 C 0.96622 0.73941 0.66095 0.0
N365 N 0.96738 0.76377 0.67991 0.0
N366 N 1.00908 0.76192 0.70043 0.0
C367 C 0.99155 0.73817 0.67345 0.0
H368 H 1.00176 0.79757 0.72254 0.0
H369 H 0.94897 0.72447 0.63743 0.0
C370 C 0.98192 0.84493 0.66302 0.0
N371 N 0.90121 0.82963 0.64248 0.0
C372 C 0.90684 0.85576 0.66179 0.0
C373 C 0.87926 0.82332 0.6118 0.0
N374 N 0.88953 0.8663 0.64418 0.0
C375 C 0.87206 0.84576 0.61272 0.0
C376 C 0.92469 0.79833 0.74444 0.0
O377 O 0.9803 0.8198 0.66955 0.0
O378 O 0.95801 0.84552 0.65509 0.0
O379 O 0.91673 0.81163 0.71601 0.0
O380 O 0.93712 0.78375 0.7304 0.0
O381 O 0.88451 0.77166 0.65262 0.0
H382 H 0.86961 0.804 0.58948 0.0
H383 H 0.9236 0.86687 0.68813 0.0
O384 O 0.90563 0.74376 0.66162 0.0
O385 O 0.94964 0.78014 0.60245 0.0
O386 O 0.92576 0.80527 0.59219 0.0
C387 C 0.93827 0.79146 0.57584 0.0
H388 H 0.99693 0.72143 0.66208 0.0
H389 H 0.85586 0.84719 0.59075 0.0
Co390 Co 0.26716 0.17068 0.66371 0.0
C391 C 0.30225 0.14563 0.64164 0.0
Co392 Co 0.23912 0.12204 0.64839 0.0
C393 C 0.27272 0.22433 0.70585 0.0
C394 C 0.31072 0.23551 0.66349 0.0
N395 N 0.28564 0.21181 0.68009 0.0
N396 N 0.28819 0.25471 0.70521 0.0
C397 C 0.3124 0.26174 0.67892 0.0
H398 H 0.25167 0.21137 0.72372 0.0
H399 H 0.3259 0.23392 0.63962 0.0
C400 C 0.20358 0.14556 0.66672 0.0
N401 N 0.21822 0.08176 0.63311 0.0
C402 C 0.19276 0.06013 0.65258 0.0
C403 C 0.22361 0.0681 0.59814 0.0
N404 N 0.18178 0.03353 0.63094 0.0
C405 C 0.2013 0.03848 0.59675 0.0
C406 C 0.25381 0.1327 0.73897 0.0
O407 O 0.22907 0.16912 0.67 0.0
O408 O 0.20248 0.12092 0.65859 0.0
O409 O 0.24037 0.1121 0.7096 0.0
O410 O 0.26643 0.16006 0.72649 0.0
O411 O 0.27593 0.12319 0.63746 0.0
H412 H 0.242 0.07921 0.57425 0.0
H413 H 0.18225 0.06407 0.68171 0.0
O414 O 0.30524 0.17069 0.65535 0.0
O415 O 0.26795 0.1805 0.60063 0.0
O416 O 0.23807 0.13237 0.58733 0.0
C417 C 0.25261 0.1592 0.57292 0.0
H418 H 0.32932 0.28426 0.66925 0.0
H419 H 0.19901 0.02224 0.57128 0.0
Co420 Co 0.87594 0.10397 0.66593 0.0
C421 C 0.89991 0.16323 0.6393 0.0
Co422 Co 0.92526 0.12536 0.65436 0.0
C423 C 0.82076 0.05574 0.70471 0.0
C424 C 0.81117 0.07869 0.6521 0.0
N425 N 0.83406 0.08011 0.67656 0.0
N426 N 0.7907 0.03873 0.69814 0.0
C427 C 0.7847 0.05354 0.66525 0.0
H428 H 0.83324 0.04986 0.72832 0.0
H429 H 0.81377 0.09379 0.62436 0.0
C430 C 0.90241 0.06691 0.67725 0.0
N431 N 0.96698 0.1471 0.64637 0.0
C432 C 0.98673 0.13702 0.64361 0.0
C433 C 0.98441 0.17716 0.65037 0.0
N434 N 1.01552 0.1595 0.64651 0.0
C435 C 1.01406 0.18479 0.65034 0.0
C436 C 0.90957 0.13 0.74308 0.0
O437 O 0.87848 0.06835 0.67752 0.0
O438 O 0.92707 0.09058 0.66934 0.0
O439 O 0.93096 0.13684 0.7154 0.0
O440 O 0.88258 0.11454 0.72915 0.0
O441 O 0.92272 0.1598 0.63853 0.0
H442 H 0.97627 0.19263 0.65579 0.0
H443 H 0.98021 0.11353 0.64252 0.0
O444 O 0.87471 0.1411 0.65245 0.0
O445 O 0.87042 0.09435 0.60237 0.0
O446 O 0.91926 0.11377 0.59332 0.0
C447 C 0.89286 0.10058 0.57684 0.0
H448 H 0.76301 0.04593 0.64958 0.0
H449 H 0.03305 0.20715 0.65454 0.0
Co450 Co 0.23951 0.12489 0.14974 0.0
C451 C 0.20404 0.06535 0.16748 0.0
Co452 Co 0.26737 0.10368 0.16395 0.0
C453 C 0.19075 0.13765 0.15182 0.0
C454 C 0.22793 0.17059 0.11302 0.0
N455 N 0.21853 0.14502 0.13724 0.0
N456 N 0.18262 0.15758 0.1379 0.0
C457 C 0.20596 0.17846 0.11367 0.0
H458 H 0.17683 0.1183 0.17295 0.0
H459 H 0.24937 0.1828 0.09593 0.0
C460 C 0.30272 0.16426 0.14409 0.0
N461 N 0.28604 0.08084 0.17813 0.0
C462 C 0.2745 0.05634 0.20606 0.0
C463 C 0.30884 0.08032 0.15646 0.0
N464 N 0.28856 0.04008 0.20195 0.0
C465 C 0.31049 0.05555 0.17097 0.0
C466 C 0.25228 0.10244 0.07301 0.0
O467 O 0.27655 0.16102 0.14157 0.0
O468 O 0.30537 0.14138 0.15415 0.0
O469 O 0.26656 0.09479 0.10045 0.0
O470 O 0.23897 0.11588 0.08785 0.0
O471 O 0.22951 0.06736 0.17207 0.0
H472 H 0.3221 0.09575 0.12957 0.0
H473 H 0.25512 0.04982 0.22756 0.0
O474 O 0.20293 0.08875 0.15768 0.0
O475 O 0.24017 0.13375 0.21155 0.0
O476 O 0.26805 0.11351 0.22717 0.0
C477 C 0.25451 0.12722 0.24036 0.0
H478 H 0.20682 0.1977 0.09699 0.0
H479 H 0.32564 0.04865 0.1574 0.0
Co480 Co 0.9232 0.12293 0.15266 0.0
C481 C 0.98316 0.1479 0.16735 0.0
Co482 Co 0.94389 0.17188 0.16677 0.0
C483 C 0.9089 0.06126 0.15879 0.0
C484 C 0.88393 0.06765 0.10565 0.0
N485 N 0.90415 0.08229 0.13897 0.0
N486 N 0.89268 0.03403 0.139 0.0
C487 C 0.87685 0.03805 0.10557 0.0
H488 H 0.92425 0.06603 0.18706 0.0
H489 H 0.87545 0.07799 0.08222 0.0
C490 C 0.88269 0.14557 0.14945 0.0
N491 N 0.96642 0.21328 0.18174 0.0
C492 C 0.99158 0.22615 0.20827 0.0
C493 C 0.96609 0.2367 0.16164 0.0
N494 N 1.00744 0.25651 0.20475 0.0
C495 C 0.99101 0.26308 0.17567 0.0
C496 C 0.94382 0.15927 0.07591 0.0
O497 O 0.8864 0.12297 0.14541 0.0
O498 O 0.90536 0.1711 0.16009 0.0
O499 O 0.95107 0.18088 0.1035 0.0
O500 O 0.93192 0.13252 0.09071 0.0
O501 O 0.9809 0.17124 0.17125 0.0
H502 H 0.94997 0.23469 0.13602 0.0
H503 H 0.99888 0.21322 0.22825 0.0
O504 O 0.95974 0.12301 0.15977 0.0
O505 O 0.91477 0.11385 0.21422 0.0
O506 O 0.93574 0.16188 0.2302 0.0
C507 C 0.92226 0.1346 0.2433 0.0
H508 H 0.86194 0.02114 0.08161 0.0
H509 H 0.99732 0.28523 0.16299 0.0
Co510 Co 0.92624 0.80861 0.15421 0.0
C511 C 0.90309 0.84474 0.17288 0.0
Co512 Co 0.87679 0.78128 0.16443 0.0
C513 C 0.98838 0.85455 0.16232 0.0
C514 C 0.98163 0.82346 0.10891 0.0
N515 N 0.96709 0.82921 0.14214 0.0
N516 N 1.01562 0.86512 0.14275 0.0
C517 C 1.0114 0.84543 0.10921 0.0
H518 H 0.98375 0.86527 0.19042 0.0
H519 H 0.97106 0.80503 0.08502 0.0
C520 C 0.90152 0.74554 0.14334 0.0
N521 N 0.83521 0.76301 0.17775 0.0
C522 C 0.82232 0.77518 0.20432 0.0
C523 C 0.81178 0.73941 0.15755 0.0
N524 N 0.79202 0.76075 0.20073 0.0
C525 C 0.78537 0.7379 0.17165 0.0
C526 C 0.89187 0.79904 0.07625 0.0
O527 O 0.92474 0.77154 0.14277 0.0
O528 O 0.87599 0.74313 0.1526 0.0
O529 O 0.86931 0.78378 0.10184 0.0
O530 O 0.91823 0.81149 0.09269 0.0
O531 O 0.87916 0.81946 0.1744 0.0
H532 H 0.81382 0.72533 0.13207 0.0
H533 H 0.83504 0.79509 0.22483 0.0
O534 O 0.92765 0.84546 0.16527 0.0
O535 O 0.93379 0.80538 0.21572 0.0
O536 O 0.88505 0.77863 0.22685 0.0
C537 C 0.91174 0.79014 0.2421 0.0
H538 H 1.02828 0.84737 0.08522 0.0
H539 H 0.76313 0.72222 0.15915 0.0
H540 H 0.61061 0.25956 0.97864 0.0
H541 H 0.51634 0.21277 0.01028 0.0
H542 H 0.61304 0.30752 -0.00825 0.0
H543 H 0.51871 0.26022 0.02733 0.0
H544 H 0.522 0.34816 -0.00058 0.0
H545 H 0.52058 0.30069 -0.00576 0.0
H546 H 0.61329 0.3432 0.03823 0.0
H547 H 0.61512 0.39153 0.03983 0.0
C548 C 0.59054 0.25969 0.98936 0.0
C549 C 0.56324 0.23267 -0.00698 0.0
C550 C 0.59187 0.28716 -0.00268 0.0
C551 C 0.56601 0.28821 0.01037 0.0
C552 C 0.53897 0.26077 0.01594 0.0
C553 C 0.53753 0.23343 0.0066 0.0
C554 C 0.54207 0.34739 0.00838 0.0
C555 C 0.56872 0.37371 0.01993 0.0
C556 C 0.54122 0.3199 0.00577 0.0
C557 C 0.5668 0.3176 0.01581 0.0
C558 C 0.59323 0.34389 0.02917 0.0
C559 C 0.59427 0.37166 0.03065 0.0
H560 H 0.70444 0.18418 0.98803 0.0
H561 H 0.66385 0.23472 0.03677 0.0
H562 H 0.75262 0.22987 0.98272 0.0
H563 H 0.71257 0.28041 0.0353 0.0
H564 H 0.79376 0.36137 0.97356 0.0
H565 H 0.74626 0.3156 0.9868 0.0
H566 H 0.79438 0.2681 0.01458 0.0
H567 H 0.84151 0.31371 -0.0026 0.0
C568 C 0.70606 0.20507 -0.00121 0.0
C569 C 0.6804 0.20597 0.01247 0.0
C570 C 0.73384 0.23141 -0.00392 0.0
C571 C 0.73685 0.25928 0.0082 0.0
C572 C 0.71124 0.25973 0.02427 0.0
C573 C 0.68328 0.23347 0.02569 0.0
C574 C 0.79393 0.34103 0.98263 0.0
C575 C 0.82104 0.34081 0.98423 0.0
C576 C 0.76674 0.31475 0.9907 0.0
C577 C 0.76609 0.28773 0.00188 0.0
C578 C 0.79361 0.28802 0.00494 0.0
C579 C 0.82071 0.31416 -0.00451 0.0
H580 H 0.69347 0.4579 0.94805 0.0
H581 H 0.73274 0.53019 0.04586 0.0
H582 H 0.73861 0.45357 0.95115 0.0
H583 H 0.77749 0.52564 0.04966 0.0
H584 H 0.86577 0.53149 0.00786 0.0
H585 H 0.82034 0.53504 0.00652 0.0
H586 H 0.76667 0.43844 -0.00134 0.0
H587 H 0.81225 0.43499 -0.00142 0.0
C588 C 0.71163 0.47271 0.97045 0.0
C589 C 0.70954 0.49455 -0.00363 0.0
C590 C 0.73752 0.47019 0.9724 0.0
C591 C 0.76187 0.48931 0.0006 0.0
C592 C 0.75954 0.51092 0.02684 0.0
C593 C 0.7338 0.51355 0.02465 0.0
C594 C 0.84428 0.51098 0.00616 0.0
C595 C 0.8427 0.48296 0.00328 0.0
C596 C 0.81814 0.513 0.00556 0.0
C597 C 0.78969 0.48703 0.00232 0.0
C598 C 0.78814 0.45896 0.00036 0.0
C599 C 0.8143 0.45696 0.00073 0.0
H600 H 0.70421 0.5293 0.51873 0.0
H601 H 0.66029 0.43468 0.48751 0.0
H602 H 0.75295 0.53223 0.51368 0.0
H603 H 0.7089 0.43777 0.48128 0.0
H604 H 0.79903 0.44634 0.50881 0.0
H605 H 0.75186 0.44479 0.52373 0.0
H606 H 0.78525 0.53028 0.4557 0.0
H607 H 0.83306 0.53255 0.4427 0.0
C608 C 0.70494 0.5091 0.51096 0.0
C609 C 0.67835 0.48177 0.5034 0.0
C610 C 0.7329 0.51083 0.50775 0.0
C611 C 0.73491 0.48528 0.49684 0.0
C612 C 0.70824 0.45783 0.49032 0.0
C613 C 0.68031 0.45608 0.49365 0.0
C614 C 0.79663 0.4651 0.49769 0.0
C615 C 0.82002 0.48958 0.47442 0.0
C616 C 0.76934 0.46402 0.50578 0.0
C617 C 0.76462 0.48732 0.49071 0.0
C618 C 0.78816 0.51206 0.4682 0.0
C619 C 0.81551 0.51318 0.4602 0.0
H620 H 0.6141 0.23522 0.48578 0.0
H621 H 0.52062 0.18403 0.52382 0.0
H622 H 0.61071 0.28071 0.48331 0.0
H623 H 0.51742 0.22973 0.52286 0.0
H624 H 0.51361 0.30952 0.45949 0.0
H625 H 0.51682 0.26427 0.46878 0.0
H626 H 0.60531 0.31659 0.52748 0.0
H627 H 0.60276 0.36206 0.51596 0.0
C628 C 0.5929 0.23372 0.49425 0.0
C629 C 0.56759 0.20592 0.50481 0.0
C630 C 0.59099 0.2599 0.49311 0.0
C631 C 0.56376 0.259 0.50274 0.0
C632 C 0.53864 0.23126 0.51449 0.0
C633 C 0.54052 0.20504 0.5154 0.0
C634 C 0.53385 0.31149 0.47411 0.0
C635 C 0.55799 0.33967 0.48658 0.0
C636 C 0.53554 0.28539 0.48005 0.0
C637 C 0.56136 0.28666 0.49883 0.0
C638 C 0.58523 0.31473 0.51231 0.0
C639 C 0.58359 0.34087 0.50621 0.0
H640 H 0.68609 0.24912 0.51141 0.0
H641 H 0.7392 0.21376 0.45325 0.0
H642 H 0.73139 0.29684 0.52482 0.0
H643 H 0.78445 0.26203 0.46479 0.0
H644 H 0.86366 0.34538 0.52395 0.0
H645 H 0.81811 0.29635 0.52203 0.0
H646 H 0.76725 0.33839 0.47954 0.0
H647 H 0.81255 0.38729 0.48237 0.0
C648 C 0.7074 0.25135 0.50179 0.0
C649 C 0.70887 0.22746 0.4811 0.0
C650 C 0.73341 0.27892 0.50901 0.0
C651 C 0.76159 0.28338 0.49566 0.0
C652 C 0.76317 0.25932 0.4759 0.0
C653 C 0.73714 0.23171 0.46873 0.0
C654 C 0.84271 0.34415 0.51459 0.0
C655 C 0.8418 0.37023 0.50304 0.0
C656 C 0.81662 0.31603 0.51324 0.0
C657 C 0.78902 0.31337 0.50034 0.0
C658 C 0.78802 0.33959 0.49014 0.0
C659 C 0.81407 0.36767 0.49155 0.0
H660 H 0.27895 0.71976 0.36341 0.0
H661 H 0.18687 0.67953 0.31891 0.0
H662 H 0.27585 0.67097 0.36009 0.0
H663 H 0.18414 0.6313 0.3122 0.0
H664 H 0.17821 0.5419 0.33099 0.0
H665 H 0.18084 0.58979 0.34543 0.0
H666 H 0.27549 0.63596 0.31208 0.0
H667 H 0.27278 0.58777 0.30117 0.0
C668 C 0.25805 0.70043 0.35281 0.0
C669 C 0.23312 0.70343 0.3417 0.0
C670 C 0.25629 0.67241 0.35037 0.0
C671 C 0.22977 0.64681 0.3355 0.0
C672 C 0.20479 0.65003 0.32479 0.0
C673 C 0.20635 0.67785 0.32838 0.0
C674 C 0.19951 0.56241 0.32704 0.0
C675 C 0.22527 0.56126 0.31498 0.0
C676 C 0.20109 0.58998 0.33498 0.0
C677 C 0.22838 0.61719 0.32973 0.0
C678 C 0.25416 0.61577 0.31757 0.0
C679 C 0.25267 0.58814 0.31088 0.0
H680 H 0.50361 0.65014 0.36071 0.0
H681 H 0.46545 0.68883 0.27047 0.0
H682 H 0.45475 0.60537 0.36912 0.0
H683 H 0.41638 0.64349 0.27754 0.0
H684 H 0.32698 0.56931 0.33108 0.0
H685 H 0.37558 0.61518 0.32757 0.0
H686 H 0.41975 0.56241 0.32943 0.0
H687 H 0.37129 0.51676 0.33488 0.0
C688 C 0.48479 0.64886 0.3421 0.0
C689 C 0.48842 0.6729 0.31458 0.0
C690 C 0.4567 0.62313 0.34687 0.0
C691 C 0.43149 0.62057 0.32381 0.0
C692 C 0.43513 0.64476 0.2964 0.0
C693 C 0.46325 0.67071 0.29209 0.0
C694 C 0.34711 0.56756 0.33118 0.0
C695 C 0.34526 0.53938 0.33331 0.0
C696 C 0.37501 0.59387 0.32872 0.0
C697 C 0.40173 0.59264 0.32793 0.0
C698 C 0.39978 0.56438 0.33066 0.0
C699 C 0.37192 0.53812 0.33358 0.0
H700 H 0.4798 0.76614 0.3318 0.0
H701 H 0.53142 0.86108 0.36016 0.0
H702 H 0.43421 0.76935 0.32814 0.0
H703 H 0.48566 0.86415 0.35784 0.0
H704 H 0.40596 0.86516 0.28791 0.0
H705 H 0.45115 0.86226 0.30091 0.0
H706 H 0.39865 0.77712 0.36959 0.0
H707 H 0.35328 0.77929 0.35459 0.0
C708 C 0.48136 0.7876 0.33814 0.0
C709 C 0.50932 0.81337 0.34602 0.0
C710 C 0.45515 0.78944 0.33621 0.0
C711 C 0.4562 0.81707 0.34234 0.0
C712 C 0.48404 0.84261 0.35209 0.0
C713 C 0.51028 0.8408 0.35382 0.0
C714 C 0.40395 0.84573 0.30556 0.0
C715 C 0.37577 0.8224 0.31987 0.0
C716 C 0.43001 0.84424 0.31361 0.0
C717 C 0.42864 0.81943 0.33633 0.0
C718 C 0.40056 0.7964 0.35151 0.0
C719 C 0.37449 0.79784 0.34335 0.0
H720 H 0.50585 0.86782 0.8407 0.0
H721 H 0.45905 0.77388 0.80706 0.0
H722 H 0.45831 0.86531 0.85799 0.0
H723 H 0.41112 0.77135 0.82072 0.0
H724 H 0.32749 0.76788 0.87231 0.0
H725 H 0.37614 0.77055 0.86947 0.0
H726 H 0.4172 0.86327 0.82602 0.0
H727 H 0.36923 0.86099 0.83236 0.0
C728 C 0.48519 0.84669 0.83658 0.0
C729 C 0.48598 0.82109 0.82247 0.0
C730 C 0.45782 0.84517 0.84613 0.0
C731 C 0.43041 0.81815 0.84045 0.0
C732 C 0.43148 0.79247 0.82653 0.0
C733 C 0.45894 0.79387 0.81825 0.0
C734 C 0.34711 0.78893 0.86298 0.0
C735 C 0.3445 0.81421 0.85266 0.0
C736 C 0.37505 0.79044 0.86076 0.0
C737 C 0.40097 0.81707 0.847 0.0
C738 C 0.39821 0.84247 0.83764 0.0
C739 C 0.37048 0.84115 0.84098 0.0
H740 H 0.18627 0.51622 0.84195 0.0
H741 H 0.28304 0.56852 0.83606 0.0
H742 H 0.18358 0.56206 0.83944 0.0
H743 H 0.2804 0.61455 0.83489 0.0
H744 H 0.26201 0.68786 0.77968 0.0
H745 H 0.26615 0.64262 0.78504 0.0
H746 H 0.19335 0.60507 0.88265 0.0
H747 H 0.189 0.64982 0.87656 0.0
C748 C 0.20701 0.53754 0.84084 0.0
C749 C 0.23486 0.53869 0.8392 0.0
C750 C 0.20548 0.56389 0.83953 0.0
C751 C 0.23178 0.59209 0.83682 0.0
C752 C 0.25968 0.59324 0.83618 0.0
C753 C 0.2612 0.56684 0.83727 0.0
C754 C 0.24702 0.66994 0.80233 0.0
C755 C 0.22496 0.67228 0.8272 0.0
C756 C 0.24943 0.64405 0.8056 0.0
C757 C 0.22996 0.62006 0.83413 0.0
C758 C 0.20828 0.62275 0.85957 0.0
C759 C 0.20576 0.64845 0.85605 0.0
H760 H 0.40538 0.54621 0.77988 0.0
H761 H 0.35392 0.58044 0.84708 0.0
H762 H 0.45098 0.59414 0.79155 0.0
H763 H 0.39964 0.62779 0.86059 0.0
H764 H 0.47972 0.71909 0.81949 0.0
H765 H 0.43442 0.67024 0.81588 0.0
H766 H 0.48621 0.6274 0.84808 0.0
H767 H 0.53182 0.67641 0.85062 0.0
C768 C 0.40376 0.56383 0.79739 0.0
C769 C 0.37581 0.55937 0.81218 0.0
C770 C 0.43002 0.59125 0.80462 0.0
C771 C 0.42902 0.61492 0.82688 0.0
C772 C 0.4012 0.6102 0.84277 0.0
C773 C 0.37495 0.58282 0.83549 0.0
C774 C 0.48146 0.69929 0.82616 0.0
C775 C 0.50944 0.70168 0.83514 0.0
C776 C 0.45541 0.67123 0.82435 0.0
C777 C 0.45662 0.64481 0.83161 0.0
C778 C 0.48452 0.64725 0.84169 0.0
C779 C 0.51064 0.67536 0.84344 0.0
H780 H 0.94796 0.05482 0.6645 0.0
H781 H 0.85367 1.01228 0.69761 0.0
H782 H 0.94438 1.00594 0.66061 0.0
H783 H 0.85027 0.96331 0.69535 0.0
H784 H 0.84687 0.88159 0.62667 0.0
H785 H 0.8503 0.92978 0.63964 0.0
H786 H 0.93776 0.96302 0.70092 0.0
H787 H 0.93512 0.91545 0.68559 0.0
C788 C 0.92658 0.03506 0.67189 0.0
C789 C 0.90108 0.0375 0.68115 0.0
C790 C 0.92453 1.00694 0.66985 0.0
C791 C 0.89697 0.98051 0.67733 0.0
C792 C 0.87173 0.98308 0.68848 0.0
C793 C 0.87374 1.01121 0.69021 0.0
C794 C 0.86695 0.89915 0.64262 0.0
C795 C 0.89077 0.8944 0.65465 0.0
C796 C 0.86875 0.92679 0.6507 0.0
C797 C 0.89434 0.95046 0.67134 0.0
C798 C 0.91786 0.94551 0.68438 0.0
C799 C 0.91615 0.91793 0.67605 0.0
H800 H 0.13235 0.02851 0.67287 0.0
H801 H 0.16724 0.97669 0.60877 0.0
H802 H 0.08455 0.98296 0.68511 0.0
H803 H 0.11895 0.93128 0.61918 0.0
H804 H 0.03703 0.8512 0.68035 0.0
H805 H 0.08577 0.89688 0.67653 0.0
H806 H 0.04231 0.94747 0.6402 0.0
H807 H 0.99354 0.90194 0.64513 0.0
C808 C 0.12998 1.00742 0.66167 0.0
C809 C 0.15377 1.00637 0.63977 0.0
C810 C 0.10238 0.9813 0.66819 0.0
C811 C 0.09782 0.95345 0.65294 0.0
C812 C 0.12174 0.9523 0.63177 0.0
C813 C 0.14937 0.97842 0.62529 0.0
C814 C 0.03785 0.8721 0.67185 0.0
C815 C 1.01139 0.87291 0.6629 0.0
C816 C 0.06582 0.89827 0.66938 0.0
C817 C 0.068 0.92584 0.65784 0.0
C818 C 0.04147 0.9267 0.64973 0.0
C819 C 1.01348 0.90055 0.65229 0.0
H820 H 1.02609 0.11807 0.60717 0.0
H821 H 0.06484 0.1947 0.69705 0.0
H822 H 0.07142 0.11424 0.61436 0.0
H823 H 0.10965 0.19057 0.70531 0.0
H824 H 0.19828 0.19579 0.66861 0.0
H825 H 0.15252 0.19859 0.66426 0.0
H826 H 0.09977 0.10175 0.66535 0.0
H827 H 0.14571 0.09901 0.66805 0.0
C828 C 0.04421 0.13392 0.62872 0.0
C829 C 0.04203 0.15687 0.65107 0.0
C830 C 0.07015 0.13169 0.63308 0.0
C831 C 0.09436 0.15219 0.66031 0.0
C832 C 0.09183 0.1748 0.68323 0.0
C833 C 0.06609 0.17719 0.67851 0.0
C834 C 0.17692 0.17509 0.66832 0.0
C835 C 0.17566 0.14719 0.6686 0.0
C836 C 0.1506 0.17667 0.66598 0.0
C837 C 0.12233 0.15038 0.66426 0.0
C838 C 0.12111 0.12246 0.66573 0.0
C839 C 0.14746 0.12088 0.66771 0.0
H840 H 0.12762 0.10899 0.13097 0.0
H841 H 0.17423 0.20321 0.16287 0.0
H842 H 0.07963 0.10696 0.14051 0.0
H843 H 0.12646 0.20121 0.17609 0.0
H844 H 0.03737 0.19655 0.14744 0.0
H845 H 0.08558 0.19888 0.14199 0.0
H846 H 0.04447 0.10662 0.1879 0.0
H847 H 0.99587 0.10391 0.18967 0.0
C848 C 0.12742 0.12915 0.14091 0.0
C849 C 0.15444 0.15626 0.14599 0.0
C850 C 0.09992 0.12805 0.14681 0.0
C851 C 0.09877 0.15392 0.15921 0.0
C852 C 0.12611 0.18092 0.16545 0.0
C853 C 0.15358 0.18213 0.15826 0.0
C854 C 0.03875 0.17684 0.15653 0.0
C855 C 1.01287 0.15 0.16867 0.0
C856 C 0.06653 0.17818 0.15376 0.0
C857 C 0.0693 0.1529 0.16425 0.0
C858 C 0.04337 0.12637 0.17822 0.0
C859 C 1.01546 0.12483 0.17976 0.0
H860 H 0.94923 0.90226 0.16137 0.0
H861 H 0.85425 0.85109 0.18978 0.0
H862 H 0.94625 0.94795 0.15709 0.0
H863 H 0.8514 0.89694 0.18706 0.0
H864 H 0.85042 0.97674 0.11823 0.0
H865 H 0.85322 0.93152 0.13089 0.0
H866 H 0.93894 0.98383 0.19791 0.0
H867 H 0.93689 0.02929 0.18313 0.0
C868 C 0.92779 0.90081 0.16753 0.0
C869 C 0.90194 0.87295 0.17572 0.0
C870 C 0.92609 0.9271 0.16529 0.0
C871 C 0.89853 0.92623 0.17142 0.0
C872 C 0.8729 0.89845 0.1813 0.0
C873 C 0.87457 0.87215 0.18329 0.0
C874 C 0.86998 0.97873 0.13541 0.0
C875 C 0.8935 1.0069 0.14928 0.0
C876 C 0.8714 0.95263 0.14328 0.0
C877 C 0.89633 0.9539 0.16545 0.0
C878 C 0.91956 0.98198 0.18022 0.0
C879 C 0.91819 1.00811 0.1722 0.0
H880 H 0.19842 1.01097 0.18934 0.0
H881 H 0.14653 0.05293 0.15228 0.0
H882 H 0.15281 0.96202 0.1891 0.0
H883 H 0.10117 1.00402 0.15076 0.0
H884 H 1.02041 0.91475 0.18371 0.0
H885 H 0.06591 0.9625 0.19614 0.0
H886 H 0.11816 0.92743 0.13403 0.0
H887 H 0.07282 0.87919 0.12366 0.0
C888 C 0.17727 1.00978 0.18134 0.0
C889 C 0.17614 0.03587 0.17069 0.0
C890 C 0.15114 0.98167 0.1809 0.0
C891 C 0.12328 0.97899 0.16966 0.0
C892 C 0.12212 1.00522 0.16016 0.0
C893 C 0.1482 0.0333 0.16077 0.0
C894 C 0.0416 0.91693 0.17348 0.0
C895 C 0.04279 0.89298 0.15245 0.0
C896 C 0.06773 0.94453 0.18011 0.0
C897 C 0.09575 0.94896 0.16581 0.0
C898 C 0.09705 0.9248 0.14588 0.0
C899 C 0.07093 0.89718 0.13936 0.0
H900 H 0.52114 0.07852 0.35887 0.0
H901 H 0.58135 0.17415 0.35202 0.0
H902 H 0.52307 0.07559 0.27506 0.0
H903 H 0.58276 0.17143 0.26883 0.0
H904 H 0.56344 0.15827 0.11786 0.0
H905 H 0.54812 0.15595 0.19717 0.0
H906 H 0.57145 0.08768 0.22517 0.0
H907 H 0.58704 0.08995 0.1454 0.0
C908 C 0.53381 0.09896 0.33921 0.0
C909 C 0.55102 0.12657 0.36128 0.0
C910 C 0.53516 0.09725 0.29161 0.0
C911 C 0.55316 0.12327 0.26591 0.0
C912 C 0.56857 0.15112 0.28798 0.0
C913 C 0.56776 0.1527 0.33538 0.0
C914 C 0.56513 0.14256 0.14074 0.0
C915 C 0.57676 0.12449 0.1256 0.0
C916 C 0.55623 0.14121 0.186 0.0
C917 C 0.55849 0.12155 0.21687 0.0
C918 C 0.56916 0.10272 0.20161 0.0
C919 C 0.5784 0.10429 0.15627 0.0
H920 H 0.96817 0.44947 0.35343 0.0
H921 H 0.87244 0.41363 0.34713 0.0
H922 H 0.97107 0.45525 0.26973 0.0
H923 H 0.87513 0.41873 0.26399 0.0
H924 H 0.88881 0.41478 0.11194 0.0
H925 H 0.89014 0.40099 0.19136 0.0
H926 H 0.95963 0.49169 0.22037 0.0
H927 H 0.95834 0.50578 0.14056 0.0
C928 C 0.94769 0.44175 0.3339 0.0
C929 C 0.92006 0.43094 0.3562 0.0
C930 C 0.94938 0.44538 0.28633 0.0
C931 C 0.92334 0.4376 0.26072 0.0
C932 C 0.89548 0.42471 0.28296 0.0
C933 C 0.89391 0.42172 0.33037 0.0
C934 C 0.90454 0.43182 0.13511 0.0
C935 C 0.92332 0.46147 0.12014 0.0
C936 C 0.9053 0.42383 0.18047 0.0
C937 C 0.9251 0.44523 0.21169 0.0
C938 C 0.94447 0.4747 0.19664 0.0
C939 C 0.94347 0.48283 0.15123 0.0
H940 H 0.61232 0.53795 0.363 0.0
H941 H 0.60451 0.45047 0.35221 0.0
H942 H 0.60201 0.53677 0.2804 0.0
H943 H 0.59371 0.44925 0.27114 0.0
H944 H 0.53266 0.43795 0.15351 0.0
H945 H 0.54327 0.45082 0.23464 0.0
H946 H 0.6294 0.52657 0.19961 0.0
H947 H 0.61914 0.51373 0.11864 0.0
C948 C 0.60908 0.51891 0.34289 0.0
C949 C 0.60879 0.49414 0.36381 0.0
C950 C 0.60291 0.51813 0.29611 0.0
C951 C 0.59623 0.49251 0.27056 0.0
C952 C 0.59804 0.46882 0.29086 0.0
C953 C 0.60443 0.46969 0.33703 0.0
C954 C 0.5535 0.45772 0.16312 0.0
C955 C 0.57538 0.47446 0.13031 0.0
C956 C 0.55948 0.46511 0.20922 0.0
C957 C 0.58712 0.48956 0.22263 0.0
C958 C 0.60792 0.50777 0.18963 0.0
C959 C 0.60215 0.50017 0.14362 0.0
H960 H 0.87064 0.46325 0.84728 0.0
H961 H 0.96488 0.52954 0.85124 0.0
H962 H 0.87257 0.46198 0.76396 0.0
H963 H 0.96701 0.52779 0.76738 0.0
H964 H 0.95784 0.46584 0.63876 0.0
H965 H 0.95869 0.48067 0.71845 0.0
H966 H 0.88465 0.49561 0.69106 0.0
H967 H 0.88386 0.4811 0.61141 0.0
C968 C 0.89156 0.47811 0.83005 0.0
C969 C 0.91761 0.49648 0.85525 0.0
C970 C 0.89267 0.47742 0.78253 0.0
C971 C 0.91999 0.49463 0.75959 0.0
C972 C 0.94575 0.51427 0.78459 0.0
C973 C 0.94448 0.51546 0.83227 0.0
C974 C 0.94189 0.47246 0.64972 0.0
C975 C 0.92062 0.47206 0.61909 0.0
C976 C 0.94262 0.48128 0.69505 0.0
C977 C 0.92186 0.48944 0.71049 0.0
C978 C 0.90092 0.48949 0.67974 0.0
C979 C 0.90045 0.48109 0.63433 0.0
H980 H 0.58474 0.50301 0.6482 0.0
H981 H 0.58221 0.41886 0.62429 0.0
H982 H 0.5735 0.48972 0.72923 0.0
H983 H 0.57155 0.40604 0.70521 0.0
H984 H 0.60311 0.43181 0.86262 0.0
H985 H 0.60641 0.43581 0.7792 0.0
H986 H 0.5262 0.44278 0.77529 0.0
H987 H 0.52239 0.43806 0.85879 0.0
C988 C 0.58188 0.48181 0.66033 0.0
C989 C 0.58435 0.46196 0.63033 0.0
C990 C 0.57518 0.47412 0.70629 0.0
C991 C 0.57146 0.44681 0.72269 0.0
C992 C 0.57419 0.42711 0.69287 0.0
C993 C 0.58031 0.4345 0.64685 0.0
C994 C 0.5858 0.43342 0.84376 0.0
C995 C 0.56257 0.43473 0.86669 0.0
C996 C 0.58768 0.43568 0.79632 0.0
C997 C 0.56669 0.43986 0.77155 0.0
C998 C 0.54262 0.4397 0.79417 0.0
C999 C 0.54036 0.43677 0.84161 0.0
H1000 H 0.60625 0.08734 0.85813 0.0
H1001 H 0.63127 0.18088 0.85342 0.0
H1002 H 0.60166 0.08481 0.77442 0.0
H1003 H 0.62734 0.17852 0.77011 0.0
H1004 H 0.54711 0.09151 0.64564 0.0
H1005 H 0.56136 0.09193 0.72575 0.0
H1006 H 0.64962 0.16655 0.69737 0.0
H1007 H 0.63569 0.16606 0.61736 0.0
C1008 C 0.61176 0.10754 0.83903 0.0
C1009 C 0.61902 0.13428 0.86179 0.0
C1010 C 0.60889 0.10602 0.79143 0.0
C1011 C 0.61397 0.13143 0.76627 0.0
C1012 C 0.62345 0.1587 0.7889 0.0
C1013 C 0.62568 0.16004 0.83639 0.0
C1014 C 0.56957 0.10788 0.65651 0.0
C1015 C 0.59022 0.12887 0.62547 0.0
C1016 C 0.5778 0.10789 0.70206 0.0
C1017 C 0.60662 0.12914 0.71725 0.0
C1018 C 0.62733 0.14992 0.6862 0.0
C1019 C 0.61928 0.14964 0.64059 0.0
H1020 H 0.23556 0.49699 0.44857 0.0
H1021 H 0.25411 0.42528 0.4771 0.0
H1022 H 0.22014 0.49554 0.5277 0.0
H1023 H 0.2385 0.42391 0.55659 0.0
H1024 H 0.18727 0.41511 0.68772 0.0
H1025 H 0.19043 0.41326 0.60402 0.0
H1026 H 0.25207 0.50879 0.60124 0.0
H1027 H 0.24933 0.51046 0.68438 0.0
C1028 C 0.23623 0.48083 0.4717 0.0
C1029 C 0.24629 0.46139 0.45684 0.0
C1030 C 0.22729 0.47997 0.51684 0.0
C1031 C 0.22791 0.45946 0.54782 0.0
C1032 C 0.23741 0.43961 0.53294 0.0
C1033 C 0.2467 0.44067 0.48777 0.0
C1034 C 0.20061 0.43576 0.66884 0.0
C1035 C 0.21805 0.46293 0.69194 0.0
C1036 C 0.20267 0.43466 0.62129 0.0
C1037 C 0.22167 0.46085 0.59659 0.0
C1038 C 0.23716 0.48835 0.61958 0.0
C1039 C 0.23558 0.48933 0.66698 0.0
H1040 H 0.62846 0.84258 0.47648 0.0
H1041 H 0.56334 0.74982 0.44827 0.0
H1042 H 0.62969 0.82946 0.55696 0.0
H1043 H 0.56449 0.73717 0.52821 0.0
H1044 H 0.54176 0.75426 0.68074 0.0
H1045 H 0.54649 0.75932 0.59761 0.0
H1046 H 0.6413 0.79041 0.60846 0.0
H1047 H 0.63634 0.78441 0.6921 0.0
C1048 C 0.61469 0.81947 0.48732 0.0
C1049 C 0.59559 0.79732 0.45632 0.0
C1050 C 0.61564 0.81196 0.53304 0.0
C1051 C 0.59726 0.78234 0.54817 0.0
C1052 C 0.57889 0.7601 0.51699 0.0
C1053 C 0.57821 0.76746 0.47139 0.0
C1054 C 0.56338 0.76131 0.66515 0.0
C1055 C 0.58866 0.76883 0.69221 0.0
C1056 C 0.5661 0.76422 0.61786 0.0
C1057 C 0.59427 0.77536 0.5972 0.0
C1058 C 0.61942 0.7818 0.62405 0.0
C1059 C 0.61653 0.77813 0.67149 0.0
H1060 H 0.27682 0.77605 0.6943 0.0
H1061 H 0.29255 0.86689 0.6927 0.0
H1062 H 0.27226 0.77401 0.61143 0.0
H1063 H 0.28844 0.86472 0.60879 0.0
H1064 H 0.30269 0.83712 0.45083 0.0
H1065 H 0.31568 0.84779 0.532 0.0
H1066 H 0.22532 0.78119 0.56897 0.0
H1067 H 0.21197 0.77072 0.48813 0.0
C1068 C 0.27996 0.79582 0.6762 0.0
C1069 C 0.28446 0.82145 0.69993 0.0
C1070 C 0.27734 0.79457 0.62889 0.0
C1071 C 0.27957 0.81903 0.60451 0.0
C1072 C 0.2866 0.84564 0.62745 0.0
C1073 C 0.289 0.84686 0.67518 0.0
C1074 C 0.28556 0.82493 0.47633 0.0
C1075 C 0.25638 0.8029 0.46342 0.0
C1076 C 0.29299 0.83121 0.52247 0.0
C1077 C 0.27145 0.81519 0.556 0.0
C1078 C 0.24218 0.79369 0.54322 0.0
C1079 C 0.2346 0.78774 0.49719 0.0
H1080 H 0.62367 0.79475 0.97831 0.0
H1081 H 0.54754 0.80637 0.9496 0.0
H1082 H 0.62318 0.80909 0.05809 0.0
H1083 H 0.54712 0.82045 0.02891 0.0
H1084 H 0.53407 0.79153 0.18586 0.0
H1085 H 0.53613 0.78822 0.10281 0.0
H1086 H 0.62974 0.85663 0.10452 0.0
H1087 H 0.6275 0.86036 0.18797 0.0
C1088 C 0.60691 0.80033 0.98903 0.0
C1089 C 0.58557 0.79929 0.95797 0.0
C1090 C 0.60687 0.80888 0.03432 0.0
C1091 C 0.58526 0.81607 0.04911 0.0
C1092 C 0.56402 0.81508 0.01807 0.0
C1093 C 0.56427 0.80694 0.97283 0.0
C1094 C 0.55478 0.80652 0.16824 0.0
C1095 C 0.58061 0.8262 0.19285 0.0
C1096 C 0.55598 0.80461 0.12092 0.0
C1097 C 0.58318 0.82195 0.09774 0.0
C1098 C 0.60862 0.84293 0.122 0.0
C1099 C 0.60725 0.84529 0.16941 0.0
H1100 H 0.25868 0.84559 0.98496 0.0
H1101 H 0.22272 0.75124 0.95617 0.0
H1102 H 0.24383 0.83297 0.06547 0.0
H1103 H 0.20841 0.73916 0.0357 0.0
H1104 H 0.24665 0.75028 0.18776 0.0
H1105 H 0.2483 0.75717 0.10488 0.0
H1106 H 0.19202 0.79703 0.11681 0.0
H1107 H 0.18965 0.78928 0.20016 0.0
C1108 C 0.24745 0.82231 -0.00437 0.0
C1109 C 0.24226 0.79951 0.96446 0.0
C1110 C 0.23872 0.8151 0.04134 0.0
C1111 C 0.22501 0.78514 0.05617 0.0
C1112 C 0.21895 0.76238 0.02477 0.0
C1113 C 0.22734 0.76945 0.97934 0.0
C1114 C 0.23385 0.75958 0.17239 0.0
C1115 C 0.21777 0.76896 0.19967 0.0
C1116 C 0.23489 0.76364 0.12527 0.0
C1117 C 0.22043 0.77779 0.10505 0.0
C1118 C 0.20334 0.78615 0.13207 0.0
C1119 C 0.20169 0.78139 0.17931 0.0
H1120 H 0.30208 0.4931 0.94789 0.0
H1121 H 0.21168 0.42126 0.97402 0.0
H1122 H 0.31499 0.492 0.02802 0.0
H1123 H 0.22491 0.42007 0.05423 0.0
H1124 H 0.26726 0.41372 0.18904 0.0
H1125 H 0.26363 0.41095 0.10507 0.0
H1126 H 0.29218 0.50534 0.09918 0.0
H1127 H 0.29502 0.50788 0.18255 0.0
C1128 C 0.28507 0.47686 0.97062 0.0
C1129 C 0.25576 0.45745 0.95494 0.0
C1130 C 0.29254 0.47621 0.01629 0.0
C1131 C 0.27098 0.45582 0.04683 0.0
C1132 C 0.24198 0.43569 0.03095 0.0
C1133 C 0.23434 0.43663 0.98535 0.0
C1134 C 0.27354 0.43394 0.1695 0.0
C1135 C 0.28136 0.46099 0.1917 0.0
C1136 C 0.27126 0.43232 0.12179 0.0
C1137 C 0.27756 0.45792 0.09611 0.0
C1138 C 0.28743 0.48538 0.11836 0.0
C1139 C 0.289 0.48683 0.16587 0.0
H1140 H 0.91138 0.83735 0.78528 0.0
H1141 H 0.92139 0.76006 0.81216 0.0
H1142 H 0.89657 0.83689 0.86444 0.0
H1143 H 0.90646 0.75974 0.89181 0.0
H1144 H 0.8541 0.7537 0.02049 0.0
H1145 H 0.85851 0.75288 0.93693 0.0
H1146 H 0.92752 0.84627 0.93881 0.0
H1147 H 0.92346 0.84691 0.02185 0.0
C1148 C 0.91041 0.82026 0.80815 0.0
C1149 C 0.91769 0.7988 0.79285 0.0
C1150 C 0.90181 0.81998 0.85323 0.0
C1151 C 0.90007 0.79808 0.8836 0.0
C1152 C 0.90719 0.77651 0.86847 0.0
C1153 C 0.91614 0.77697 0.82332 0.0
C1154 C 0.86942 0.7742 0.00264 0.0
C1155 C 0.88853 0.80035 0.02696 0.0
C1156 C 0.87216 0.77365 0.95523 0.0
C1157 C 0.89354 0.79943 0.93203 0.0
C1158 C 0.91083 0.82618 0.95614 0.0
C1159 C 0.90851 0.82657 0.00342 0.0
H1160 H 0.2188 0.07858 0.77976 0.0
H1161 H 0.29169 0.1683 0.80623 0.0
H1162 H 0.21977 0.06518 0.85975 0.0
H1163 H 0.29277 0.15461 0.8862 0.0
H1164 H 0.20539 0.08427 0.01556 0.0
H1165 H 0.20728 0.08726 0.93217 0.0
H1166 H 0.30173 0.11578 0.93584 0.0
H1167 H 0.29962 0.11203 0.0198 0.0
C1168 C 0.2352 0.09534 0.80255 0.0
C1169 C 0.255 0.12459 0.78697 0.0
C1170 C 0.23578 0.0876 0.84814 0.0
C1171 C 0.25649 0.10881 0.87871 0.0
C1172 C 0.2769 0.13778 0.86294 0.0
C1173 C 0.27602 0.14569 0.81745 0.0
C1174 C 0.2263 0.09026 -0.00162 0.0
C1175 C 0.25235 0.0979 0.02363 0.0
C1176 C 0.22738 0.09193 0.95083 0.0
C1177 C 0.25468 0.10191 0.92793 0.0
C1178 C 0.28047 0.10809 0.95302 0.0
C1179 C 0.27922 0.10573 0.00075 0.0
H1180 H 0.87127 0.1265 0.81124 0.0
H1181 H 0.96459 0.15656 0.78266 0.0
H1182 H 0.88434 0.14143 0.89145 0.0
H1183 H 0.97721 0.17101 0.86221 0.0
H1184 H 0.96406 0.13424 0.01545 0.0
H1185 H 0.95826 0.13299 0.93243 0.0
H1186 H 0.92084 0.1915 0.9424 0.0
H1187 H 0.92749 0.19342 0.02597 0.0
C1188 C 0.89448 0.13646 0.82193 0.0
C1189 C 0.91681 0.14003 0.79087 0.0
C1190 C 0.90196 0.14526 0.86751 0.0
C1191 C 0.93176 0.15738 0.88249 0.0
C1192 C 0.95413 0.16174 0.85121 0.0
C1193 C 0.94678 0.15331 0.80579 0.0
C1194 C 0.9555 0.14756 -0.00033 0.0
C1195 C 0.94641 0.16409 0.02652 0.0
C1196 C 0.95212 0.14681 0.9524 0.0
C1197 C 0.93897 0.16203 0.9315 0.0
C1198 C 0.93098 0.1796 0.95812 0.0
C1199 C 0.93505 0.18094 0.00553 0.0
H1200 H 0.29122 0.12767 0.30883 0.0
H1201 H 0.22094 0.14827 0.27988 0.0
H1202 H 0.29272 0.14333 0.38831 0.0
H1203 H 0.22254 0.16375 0.35893 0.0
H1204 H 0.20572 0.134 0.51503 0.0
H1205 H 0.20809 0.13152 0.43196 0.0
H1206 H 0.30401 0.19111 0.43665 0.0
H1207 H 0.30146 0.194 0.52032 0.0
C1208 C 0.27622 0.13559 0.31937 0.0
C1209 C 0.2558 0.13648 0.28832 0.0
C1210 C 0.27735 0.1449 0.36456 0.0
C1211 C 0.25787 0.1549 0.37937 0.0
C1212 C 0.23779 0.15616 0.34819 0.0
C1213 C 0.23685 0.14718 0.30306 0.0
C1214 C 0.22712 0.14737 0.49807 0.0
C1215 C 0.25339 0.16428 0.52358 0.0
C1216 C 0.2285 0.14594 0.45069 0.0
C1217 C 0.25627 0.16093 0.42822 0.0
C1218 C 0.2824 0.17926 0.45347 0.0
C1219 C 0.28091 0.18119 0.50102 0.0
H1220 H 0.91883 0.16901 0.31141 0.0
H1221 H 0.90792 0.08159 0.28377 0.0
H1222 H 0.90499 0.1544 0.39144 0.0
H1223 H 0.89448 0.06733 0.36361 0.0
H1224 H 0.925 0.08567 0.52084 0.0
H1225 H 0.92775 0.09018 0.43756 0.0
H1226 H 0.85726 0.11258 0.43823 0.0
H1227 H 0.85404 0.1074 0.52184 0.0
C1228 C 0.9135 0.14677 0.32244 0.0
C1229 C 0.91458 0.1265 0.29161 0.0
C1230 C 0.90526 0.13832 0.3679 0.0
C1231 C 0.89846 0.10969 0.38315 0.0
C1232 C 0.89951 0.08945 0.35236 0.0
C1233 C 0.90728 0.09769 0.30687 0.0
C1234 C 0.90948 0.09062 0.50298 0.0
C1235 C 0.88934 0.09622 0.52733 0.0
C1236 C 0.91105 0.09321 0.45553 0.0
C1237 C 0.89291 0.102 0.43197 0.0
C1238 C 0.87154 0.10593 0.45602 0.0
C1239 C 0.86951 0.10269 0.50354 0.0
H1240 H 0.96439 0.81859 0.28956 0.0
H1241 H 0.8715 0.74877 0.30101 0.0
H1242 H 0.97215 0.8119 0.37025 0.0
H1243 H 0.87955 0.74167 0.38112 0.0
H1244 H 0.89359 0.78619 0.5226 0.0
H1245 H 0.88835 0.77956 0.44085 0.0
H1246 H 0.97073 0.77647 0.43492 0.0
H1247 H 0.9761 0.78324 0.51866 0.0
C1248 C 0.9458 0.80152 0.30914 0.0
C1249 C 0.91712 0.78477 0.28957 0.0
C1250 C 0.95039 0.79742 0.35501 0.0
C1251 C 0.92639 0.77642 0.38167 0.0
C1252 C 0.8983 0.75824 0.36119 0.0
C1253 C 0.89364 0.76251 0.31558 0.0
C1254 C 0.91062 0.784 0.50407 0.0
C1255 C 0.93554 0.78572 0.52661 0.0
C1256 C 0.90735 0.77975 0.4573 0.0
C1257 C 0.929 0.77724 0.4318 0.0
C1258 C 0.95375 0.77828 0.45418 0.0
C1259 C 0.95682 0.78214 0.50171 0.0
H1260 H 0.38803 0.9138 0.89077 0.0
H1261 H 0.36427 0.98312 0.8874 0.0
H1262 H 0.43834 0.95015 0.91771 0.0
H1263 H 0.41389 1.0192 0.91568 0.0
H1264 H 0.51216 0.0859 0.91814 0.0
H1265 H 0.46306 0.04752 0.89355 0.0
H1266 H 0.47172 0.98206 0.97515 0.0
H1267 H 0.52231 0.02114 -0.00131 0.0
C1268 C 0.39334 0.93671 0.89641 0.0
C1269 C 0.37189 0.94543 0.88647 0.0
C1270 C 0.42236 0.9577 0.91204 0.0
C1271 C 0.4309 0.9881 0.9186 0.0
C1272 C 0.40897 0.99642 0.90994 0.0
C1273 C 0.38018 0.97558 0.89384 0.0
C1274 C 0.50376 0.06339 0.9312 0.0
C1275 C 0.52138 0.05696 0.96107 0.0
C1276 C 0.47515 0.04115 0.9172 0.0
C1277 C 0.46249 1.01137 0.93289 0.0
C1278 C 0.48039 1.00458 0.96202 0.0
C1279 C 0.5095 0.02704 0.97573 0.0
H1280 H 0.03021 0.51312 -0.00487 0.0
H1281 H 0.96586 0.43702 0.91691 0.0
H1282 H 0.06949 0.50124 0.97374 0.0
H1283 H 1.00429 0.42582 0.89489 0.0
H1284 H 0.06781 0.39047 0.89562 0.0
H1285 H 0.03229 0.40516 0.92228 0.0
H1286 H 0.10129 0.49839 0.91542 0.0
H1287 H 0.13714 0.48341 0.88971 0.0
C1288 C 1.02441 0.49407 0.9732 0.0
C1289 C 0.99452 0.4758 0.95857 0.0
C1290 C 0.04697 0.4872 0.96078 0.0
C1291 C 0.04026 0.46199 0.93319 0.0
C1292 C 1.01056 0.44469 0.91744 0.0
C1293 C 0.98828 0.45134 0.93 0.0
C1294 C 0.07551 0.41411 0.89971 0.0
C1295 C 0.10549 0.43559 0.88998 0.0
C1296 C 0.05498 0.4227 0.91493 0.0
C1297 C 0.06342 0.45319 0.92049 0.0
C1298 C 0.09369 0.47472 0.91199 0.0
C1299 C 0.11438 0.46607 0.89708 0.0
H1300 H 0.60465 0.68608 0.95316 0.0
H1301 H 0.61139 0.65639 0.81829 0.0
H1302 H 0.58807 0.63548 0.98345 0.0
H1303 H 0.59406 0.60575 0.84814 0.0
H1304 H 0.53399 0.51097 0.91551 0.0
H1305 H 0.5451 0.56089 0.88816 0.0
H1306 H 0.61476 0.60252 0.9899 0.0
H1307 H 0.60442 0.55296 0.01588 0.0
C1308 C 0.60239 0.66872 0.92996 0.0
C1309 C 0.60968 0.67546 0.88339 0.0
C1310 C 0.59291 0.63972 0.94726 0.0
C1311 C 0.58957 0.61641 0.91822 0.0
C1312 C 0.59613 0.62301 0.87145 0.0
C1313 C 0.60636 0.65215 0.8544 0.0
C1314 C 0.55123 0.53079 0.93256 0.0
C1315 C 0.5681 0.52795 0.9682 0.0
C1316 C 0.55781 0.5594 0.91665 0.0
C1317 C 0.58086 0.58581 0.93683 0.0
C1318 C 0.59675 0.58279 0.97376 0.0
C1319 C 0.59078 0.55434 0.98869 0.0
H1320 H 1.02749 0.51642 0.45076 0.0
H1321 H 0.96769 0.55085 0.47648 0.0
H1322 H 0.06724 0.56736 0.42919 0.0
H1323 H 1.00647 0.60064 0.45479 0.0
H1324 H 0.08795 0.69266 0.45485 0.0
H1325 H 0.05281 0.64199 0.47949 0.0
H1326 H 0.08118 0.6066 0.3689 0.0
H1327 H 0.11663 0.65766 0.34382 0.0
C1328 C 1.02287 0.53475 0.45233 0.0
C1329 C 0.99425 0.52928 0.46557 0.0
C1330 C 0.04556 0.56395 0.43953 0.0
C1331 C 0.04031 0.58846 0.44027 0.0
C1332 C 1.01182 0.58278 0.45432 0.0
C1333 C 0.98933 0.55389 0.4666 0.0
C1334 C 0.08671 0.67433 0.43518 0.0
C1335 C 0.10531 0.67987 0.39675 0.0
C1336 C 0.06642 0.64496 0.44958 0.0
C1337 C 0.06378 0.61982 0.42619 0.0
C1338 C 0.08266 0.62521 0.38821 0.0
C1339 C 0.10302 0.65471 0.37366 0.0
H1340 H 0.53305 0.51977 0.45223 0.0
H1341 H 0.49497 0.42914 0.50249 0.0
H1342 H 0.48315 0.50848 0.42521 0.0
H1343 H 0.44559 0.41815 0.47728 0.0
H1344 H 0.36825 0.39346 0.38047 0.0
H1345 H 0.41759 0.40806 0.41056 0.0
H1346 H 0.43234 0.49666 0.43928 0.0
H1347 H 0.38317 0.48237 0.40698 0.0
C1348 C 0.514 0.49769 0.45853 0.0
C1349 C 0.51828 0.4754 0.47948 0.0
C1350 C 0.48524 0.49109 0.44289 0.0
C1351 C 0.45993 0.46206 0.44796 0.0
C1352 C 0.46427 0.44045 0.47112 0.0
C1353 C 0.4928 0.44692 0.48621 0.0
C1354 C 0.38187 0.41614 0.39285 0.0
C1355 C 0.3711 0.43651 0.39099 0.0
C1356 C 0.41037 0.42453 0.41086 0.0
C1357 C 0.4294 0.45363 0.42816 0.0
C1358 C 0.41873 0.47411 0.42625 0.0
C1359 C 0.39011 0.46571 0.40808 0.0
H1360 H 0.65403 0.98482 0.36844 0.0
H1361 H 0.56769 0.91051 0.40674 0.0
H1362 H 0.63956 0.01963 0.39839 0.0
H1363 H 0.55362 0.94553 0.43872 0.0
H1364 H 0.52879 0.02211 0.44995 0.0
H1365 H 0.53994 0.98343 0.42303 0.0
H1366 H 0.63198 0.03853 0.46642 0.0
H1367 H 0.62108 0.07688 0.49159 0.0
C1368 C 0.63195 0.97573 0.38336 0.0
C1369 C 0.61225 0.9445 0.38487 0.0
C1370 C 0.62367 0.99587 0.40124 0.0
C1371 C 0.59537 0.98571 0.4217 0.0
C1372 C 0.57552 0.95447 0.42315 0.0
C1373 C 0.58383 0.93422 0.40516 0.0
C1374 C 0.55125 0.02565 0.4543 0.0
C1375 C 0.57402 0.05282 0.47275 0.0
C1376 C 0.55775 1.00347 0.43876 0.0
C1377 C 0.58715 1.00784 0.44146 0.0
C1378 C 0.60932 0.03443 0.46215 0.0
C1379 C 0.60294 0.05647 0.47716 0.0
H1380 H 0.16286 0.40943 0.32842 0.0
H1381 H 0.19996 0.35587 0.27938 0.0
H1382 H 0.11311 0.37098 0.30524 0.0
H1383 H 0.14964 0.31717 0.25423 0.0
H1384 H 0.0494 0.24359 0.24004 0.0
H1385 H 0.09908 0.27866 0.27015 0.0
H1386 H 0.08402 0.35231 0.24002 0.0
H1387 H 0.03416 0.31739 0.21226 0.0
C1388 C 0.16039 0.38926 0.31275 0.0
C1389 C 0.18569 0.38597 0.30578 0.0
C1390 C 0.13165 0.36716 0.29884 0.0
C1391 C 0.12689 0.34088 0.2766 0.0
C1392 C 0.15206 0.33692 0.27124 0.0
C1393 C 0.18105 0.35912 0.28576 0.0
C1394 C 0.05638 0.26719 0.24038 0.0
C1395 C 0.03711 0.27727 0.22361 0.0
C1396 C 0.0853 0.28751 0.25727 0.0
C1397 C 0.09604 0.31867 0.25813 0.0
C1398 C 0.07677 0.32862 0.24113 0.0
C1399 C 0.04795 0.3084 0.22445 0.0
H1400 H 0.69731 0.84628 0.33025 0.0
H1401 H 0.63358 0.77517 0.24354 0.0
H1402 H 0.73609 0.83401 0.30764 0.0
H1403 H 0.67171 0.7637 0.22009 0.0
H1404 H 0.73269 0.72518 0.21936 0.0
H1405 H 0.69748 0.74028 0.24604 0.0
H1406 H 0.76877 0.83266 0.24998 0.0
H1407 H 0.80421 0.81722 0.22434 0.0
C1408 C 0.69166 0.82839 0.30595 0.0
C1409 C 0.66211 0.81155 0.28927 0.0
C1410 C 0.71389 0.82126 0.2929 0.0
C1411 C 0.70715 0.79725 0.26262 0.0
C1412 C 0.67788 0.78155 0.24465 0.0
C1413 C 0.65588 0.78841 0.25789 0.0
C1414 C 0.74095 0.74872 0.22585 0.0
C1415 C 0.77145 0.76984 0.2192 0.0
C1416 C 0.72062 0.75755 0.24105 0.0
C1417 C 0.72985 0.78796 0.24965 0.0
C1418 C 0.76057 0.80905 0.24416 0.0
C1419 C 0.78103 0.80014 0.22929 0.0
H1420 H 0.19656 0.84954 0.28637 0.0
H1421 H 0.28854 0.88667 0.32959 0.0
H1422 H 0.20785 0.89946 0.25939 0.0
H1423 H 0.29956 0.93607 0.30457 0.0
H1424 H 0.32239 1.01286 0.2078 0.0
H1425 H 0.30794 0.96353 0.23765 0.0
H1426 H 0.22093 0.9505 0.27409 0.0
H1427 H 0.23495 0.99961 0.24198 0.0
C1428 C 0.21898 0.8684 0.29106 0.0
C1429 C 0.24163 0.86387 0.30997 0.0
C1430 C 0.22556 0.89714 0.2755 0.0
C1431 C 0.25492 0.92215 0.27871 0.0
C1432 C 0.27696 0.91758 0.29985 0.0
C1433 C 0.2705 0.88906 0.31481 0.0
C1434 C 0.30008 0.99963 0.22181 0.0
C1435 C 0.28006 1.01083 0.22211 0.0
C1436 C 0.2918 0.97114 0.23969 0.0
C1437 C 0.2632 0.95262 0.25904 0.0
C1438 C 0.24307 0.96373 0.25938 0.0
C1439 C 0.25135 0.99232 0.2413 0.0
H1440 H 0.80387 0.99899 0.74097 0.0
H1441 H 0.72958 1.01072 0.70054 0.0
H1442 H 0.76874 0.94973 0.77262 0.0
H1443 H 0.69468 0.9613 0.73025 0.0
H1444 H 0.63689 0.88497 0.82311 0.0
H1445 H 0.67514 0.93435 0.79801 0.0
H1446 H 0.73125 0.89822 0.75658 0.0
H1447 H 0.69266 0.84825 0.78332 0.0
C1448 C 0.78014 0.99132 0.73884 0.0
C1449 C 0.76991 1.00943 0.71803 0.0
C1450 C 0.75983 0.96267 0.75666 0.0
C1451 C 0.72856 0.95113 0.75454 0.0
C1452 C 0.71845 0.96926 0.7336 0.0
C1453 C 0.73865 0.99777 0.71587 0.0
C1454 C 0.65749 0.88743 0.80911 0.0
C1455 C 0.66144 0.86232 0.80522 0.0
C1456 C 0.67948 0.91594 0.79414 0.0
C1457 C 0.70636 0.92065 0.77407 0.0
C1458 C 0.711 0.89577 0.77184 0.0
C1459 C 0.68885 0.867 0.78728 0.0
H1460 H 0.04076 0.80209 0.76881 0.0
H1461 H 0.04779 0.74424 0.66896 0.0
H1462 H 0.09152 0.81739 0.79587 0.0
H1463 H 0.09796 0.75947 0.69574 0.0
H1464 H 0.1696 0.76157 0.78585 0.0
H1465 H 0.12088 0.7513 0.76044 0.0
H1466 H 0.14682 0.8443 0.77912 0.0
H1467 H 0.19671 0.8548 0.80611 0.0
C1468 C 0.05297 0.79266 0.75233 0.0
C1469 C 0.03944 0.7714 0.71684 0.0
C1470 C 0.08231 0.80161 0.76787 0.0
C1471 C 0.09909 0.78953 0.74858 0.0
C1472 C 0.08576 0.76886 0.71247 0.0
C1473 C 0.05662 0.75997 0.697 0.0
C1474 C 0.16533 0.78013 0.78496 0.0
C1475 C 0.18766 0.80919 0.7983 0.0
C1476 C 0.13707 0.77414 0.76974 0.0
C1477 C 0.1296 0.7969 0.76681 0.0
C1478 C 0.15158 0.82606 0.78087 0.0
C1479 C 0.1803 0.83216 0.79622 0.0
H1480 H 0.23127 0.24398 0.72198 0.0
H1481 H 0.32441 0.31251 0.73131 0.0
H1482 H 0.2164 0.27979 0.74821 0.0
H1483 H 0.30979 0.34799 0.75846 0.0
H1484 H 0.27878 0.415 0.75268 0.0
H1485 H 0.2897 0.37646 0.73031 0.0
H1486 H 0.21338 0.31104 0.80764 0.0
H1487 H 0.20173 0.35041 0.82937 0.0
C1488 C 0.24866 0.26654 0.73024 0.0
C1489 C 0.27918 0.27527 0.72396 0.0
C1490 C 0.24008 0.28719 0.74544 0.0
C1491 C 0.26171 0.31723 0.75501 0.0
C1492 C 0.29222 0.32548 0.75028 0.0
C1493 C 0.30075 0.30499 0.73479 0.0
C1494 C 0.26415 0.39248 0.76528 0.0
C1495 C 0.23949 0.38617 0.79353 0.0
C1496 C 0.27066 0.37017 0.75256 0.0
C1497 C 0.25303 0.3404 0.76784 0.0
C1498 C 0.22766 0.33363 0.79508 0.0
C1499 C 0.22092 0.35623 0.80769 0.0
H1500 H 0.71643 0.5769 0.57638 0.0
H1501 H 0.70051 0.65048 0.55078 0.0
H1502 H 0.76575 0.6119 0.60783 0.0
H1503 H 0.75 0.68537 0.58011 0.0
H1504 H 0.82802 0.74163 0.67064 0.0
H1505 H 0.77847 0.70303 0.64666 0.0
H1506 H 0.81623 0.65118 0.59213 0.0
H1507 H 0.8663 0.68998 0.61785 0.0
C1508 C 0.72319 0.60044 0.57751 0.0
C1509 C 0.70388 0.6105 0.56091 0.0
C1510 C 0.75188 0.62072 0.59518 0.0
C1511 C 0.7623 0.65178 0.59709 0.0
C1512 C 0.74296 0.66173 0.58035 0.0
C1513 C 0.71439 0.64155 0.56279 0.0
C1514 C 0.82585 0.72181 0.65413 0.0
C1515 C 0.85141 0.71912 0.64627 0.0
C1516 C 0.79724 0.69965 0.63975 0.0
C1517 C 0.79292 0.67393 0.61625 0.0
C1518 C 0.81833 0.67048 0.61013 0.0
C1519 C 0.84717 0.69275 0.62502 0.0
H1520 H 0.36335 0.17872 0.66464 0.0
H1521 H 0.29949 0.1023 0.5863 0.0
H1522 H 0.40284 0.16697 0.64408 0.0
H1523 H 0.33817 0.09131 0.56503 0.0
H1524 H 0.40198 0.05647 0.56741 0.0
H1525 H 0.36623 0.07094 0.59395 0.0
H1526 H 0.4346 0.16434 0.58534 0.0
H1527 H 0.47063 0.14962 0.55981 0.0
C1528 C 0.35773 0.15965 0.64285 0.0
C1529 C 0.32796 0.14128 0.62786 0.0
C1530 C 0.38038 0.15286 0.63092 0.0
C1531 C 0.37383 0.12765 0.60351 0.0
C1532 C 0.34425 0.11021 0.58743 0.0
C1533 C 0.32188 0.11676 0.59951 0.0
C1534 C 0.40947 0.0801 0.57114 0.0
C1535 C 0.4393 0.10174 0.56095 0.0
C1536 C 0.38885 0.08854 0.58628 0.0
C1537 C 0.39708 0.119 0.59124 0.0
C1538 C 0.42722 0.14069 0.58236 0.0
C1539 C 0.44799 0.13219 0.56755 0.0
H1540 H 0.89776 0.32535 0.53582 0.0
H1541 H 0.98876 0.35376 0.57675 0.0
H1542 H 0.88244 0.27403 0.55938 0.0
H1543 H 0.97333 0.30304 0.60154 0.0
H1544 H 0.94785 0.20631 0.59315 0.0
H1545 H 0.95888 0.25565 0.56944 0.0
H1546 H 0.87414 0.23924 0.62419 0.0
H1547 H 0.8626 0.18846 0.64795 0.0
C1548 C 0.91463 0.32085 0.54964 0.0
C1549 C 0.94474 0.34421 0.5539 0.0
C1550 C 0.90566 0.29127 0.56378 0.0
C1551 C 0.92652 0.28394 0.58234 0.0
C1552 C 0.95651 0.30736 0.58683 0.0
C1553 C 0.96542 0.33681 0.57287 0.0
C1554 C 0.93134 0.21291 0.60059 0.0
C1555 C 0.90437 0.19309 0.62334 0.0
C1556 C 0.93788 0.24163 0.58698 0.0
C1557 C 0.91784 0.25213 0.5955 0.0
C1558 C 0.89027 0.23212 0.61697 0.0
C1559 C 0.88361 0.20295 0.63075 0.0
H1560 H 0.30422 0.21746 0.15177 0.0
H1561 H 0.35993 0.18071 0.11165 0.0
H1562 H 0.3423 0.26676 0.12626 0.0
H1563 H 0.39844 0.23071 0.08466 0.0
H1564 H 0.47071 0.33212 0.07064 0.0
H1565 H 0.43576 0.28263 0.10193 0.0
H1566 H 0.36134 0.29288 0.05707 0.0
H1567 H 0.39607 0.34253 0.02762 0.0
C1568 C 0.32477 0.21989 0.13759 0.0
C1569 C 0.32876 0.19481 0.13364 0.0
C1570 C 0.34665 0.24836 0.12243 0.0
C1571 C 0.37345 0.25302 0.10222 0.0
C1572 C 0.37818 0.22821 0.1 0.0
C1573 C 0.35611 0.19946 0.11557 0.0
C1574 C 0.44691 0.32408 0.06796 0.0
C1575 C 0.43646 0.34186 0.04667 0.0
C1576 C 0.42676 0.29534 0.08549 0.0
C1577 C 0.39547 0.28344 0.08258 0.0
C1578 C 0.38515 0.30119 0.06099 0.0
C1579 C 0.40521 0.32979 0.04347 0.0
H1580 H 0.86559 0.18616 0.11811 0.0
H1581 H 0.8296 0.09366 0.15762 0.0
H1582 H 0.8154 0.17468 0.09222 0.0
H1583 H 0.77995 0.08241 0.13361 0.0
H1584 H 0.70224 0.06023 0.03899 0.0
H1585 H 0.75192 0.07473 0.06757 0.0
H1586 H 0.76426 0.1608 0.108 0.0
H1587 H 0.71483 0.14675 0.07719 0.0
C1588 C 0.84694 0.16356 0.1222 0.0
C1589 C 0.8519 0.14088 0.1398 0.0
C1590 C 0.81803 0.15687 0.10726 0.0
C1591 C 0.79324 0.12733 0.10974 0.0
C1592 C 0.79824 0.10519 0.12948 0.0
C1593 C 0.82692 0.11177 0.14386 0.0
C1594 C 0.71541 0.08234 0.05366 0.0
C1595 C 0.7039 0.10207 0.05553 0.0
C1596 C 0.74409 0.09065 0.07078 0.0
C1597 C 0.76254 0.11901 0.09086 0.0
C1598 C 0.75112 0.13885 0.0927 0.0
C1599 C 0.72234 0.13055 0.07541 0.0
H1600 H 0.98827 0.65143 0.03628 0.0
H1601 H 0.90021 0.57725 0.06726 0.0
H1602 H 0.97316 0.68623 0.06406 0.0
H1603 H 0.88543 0.61225 0.09715 0.0
H1604 H 0.86135 0.68947 0.1063 0.0
H1605 H 0.8729 0.65087 0.08016 0.0
H1606 H 0.96339 0.70433 0.13098 0.0
H1607 H 0.95218 0.74256 0.15536 0.0
C1608 C 0.96568 0.64236 0.04915 0.0
C1609 C 0.94571 0.61117 0.04932 0.0
C1610 C 0.95699 0.66249 0.06577 0.0
C1611 C 0.928 0.65237 0.0836 0.0
C1612 C 0.90788 0.62117 0.08362 0.0
C1613 C 0.91658 0.60093 0.06688 0.0
C1614 C 0.88355 0.69269 0.11231 0.0
C1615 C 0.90583 0.71938 0.13266 0.0
C1616 C 0.89027 0.67055 0.09726 0.0
C1617 C 0.91941 0.67448 0.10237 0.0
C1618 C 0.94102 0.70059 0.1248 0.0
C1619 C 0.93443 0.72258 0.13932 0.0
loop_
_geom_bond_atom_site_label_1
_geom_bond_atom_site_label_2
_geom_bond_distance
_geom_bond_site_symmetry_2
_ccdc_geom_bond_type
Co0 N5 2.057 . S
Co0 O17 2.021 . S
Co0 O20 2.062 . S
Co0 O24 2.117 . S
Co0 O25 2.020 1_554 S
C1 O21 1.260 . S
C1 O24 1.258 . S
Co2 N11 2.057 . S
Co2 O18 2.117 . S
Co2 O19 2.020 . S
Co2 O21 2.021 . S
Co2 O26 2.062 1_554 S
C3 N5 1.316 . S
C3 N6 1.347 . S
C3 H8 0.931 . S
C4 N5 1.375 . S
C4 C7 1.350 . S
C4 H9 0.930 1_554 S
N5 Co0 2.057 . S
N5 C3 1.316 . S
N5 C4 1.375 . S
N6 C3 1.347 . S
N6 C7 1.373 . S
C7 C4 1.350 . S
C7 N6 1.373 . S
C7 H28 0.931 . S
H8 C3 0.931 . S
H9 C4 0.930 1_556 S
C10 O17 1.259 . S
C10 O18 1.258 . S
N11 Co2 2.057 . S
N11 C12 1.316 1_554 S
N11 C13 1.375 . S
C12 N11 1.316 1_556 S
C12 N14 1.347 . S
C12 H23 0.931 . S
C13 N11 1.375 . S
C13 C15 1.350 1_554 S
C13 H22 0.930 . S
N14 C12 1.347 . S
N14 C15 1.373 . S
C15 C13 1.350 1_556 S
C15 N14 1.373 . S
C15 H29 0.931 . S
C16 O19 1.256 . S
C16 O20 1.255 . S
O17 Co0 2.021 . S
O17 C10 1.259 . S
O18 Co2 2.117 . S
O18 C10 1.258 . S
O19 Co2 2.020 . S
O19 C16 1.256 . S
O20 Co0 2.062 . S
O20 C16 1.255 . S
O21 C1 1.260 . S
O21 Co2 2.021 . S
H22 C13 0.930 . S
H23 C12 0.931 . S
O24 Co0 2.117 . S
O24 C1 1.258 . S
O25 Co0 2.020 1_556 S
O25 C27 1.256 . S
O26 Co2 2.062 1_556 S
O26 C27 1.255 . S
C27 O25 1.256 . S
C27 O26 1.255 . S
H28 C7 0.931 . S
H29 C15 0.931 . S
Co30 N35 2.057 . S
Co30 O47 2.021 . S
Co30 O50 2.062 . S
Co30 O54 2.117 . S
Co30 O55 2.020 1_554 S
C31 O51 1.260 . S
C31 O54 1.258 . S
Co32 N41 2.057 . S
Co32 O48 2.117 . S
Co32 O49 2.020 . S
Co32 O51 2.021 . S
Co32 O56 2.062 1_554 S
C33 N35 1.316 . S
C33 N36 1.347 . S
C33 H38 0.931 . S
C34 N35 1.375 . S
C34 C37 1.350 . S
C34 H39 0.930 1_554 S
N35 Co30 2.057 . S
N35 C33 1.316 . S
N35 C34 1.375 . S
N36 C33 1.347 . S
N36 C37 1.373 . S
C37 C34 1.350 . S
C37 N36 1.373 . S
C37 H58 0.931 . S
H38 C33 0.931 . S
H39 C34 0.930 1_556 S
C40 O47 1.259 . S
C40 O48 1.258 . S
N41 Co32 2.057 . S
N41 C42 1.316 1_554 S
N41 C43 1.375 . S
C42 N41 1.316 1_556 S
C42 N44 1.347 . S
C42 H53 0.931 . S
C43 N41 1.375 . S
C43 C45 1.350 1_554 S
C43 H52 0.930 . S
N44 C42 1.347 . S
N44 C45 1.373 . S
C45 C43 1.350 1_556 S
C45 N44 1.373 . S
C45 H59 0.931 . S
C46 O49 1.256 . S
C46 O50 1.255 . S
O47 Co30 2.021 . S
O47 C40 1.259 . S
O48 Co32 2.117 . S
O48 C40 1.258 . S
O49 Co32 2.020 . S
O49 C46 1.256 . S
O50 Co30 2.062 . S
O50 C46 1.255 . S
O51 C31 1.260 . S
O51 Co32 2.021 . S
H52 C43 0.930 . S
H53 C42 0.931 . S
O54 Co30 2.117 . S
O54 C31 1.258 . S
O55 Co30 2.020 1_556 S
O55 C57 1.256 . S
O56 Co32 2.062 1_556 S
O56 C57 1.255 . S
C57 O55 1.256 . S
C57 O56 1.255 . S
H58 C37 0.931 . S
H59 C45 0.931 . S
Co60 N65 2.057 . S
Co60 O77 2.021 . S
Co60 O80 2.062 . S
Co60 O84 2.117 . S
Co60 O85 2.020 1_554 S
C61 O81 1.260 . S
C61 O84 1.258 . S
Co62 N71 2.057 . S
Co62 O78 2.117 . S
Co62 O79 2.020 . S
Co62 O81 2.021 . S
Co62 O86 2.062 1_554 S
C63 N65 1.316 . S
C63 N66 1.347 . S
C63 H68 0.931 . S
C64 N65 1.375 . S
C64 C67 1.350 . S
C64 H69 0.930 1_554 S
N65 Co60 2.057 . S
N65 C63 1.316 . S
N65 C64 1.375 . S
N66 C63 1.347 . S
N66 C67 1.373 . S
C67 C64 1.350 . S
C67 N66 1.373 . S
C67 H88 0.931 . S
H68 C63 0.931 . S
H69 C64 0.930 1_556 S
C70 O77 1.259 . S
C70 O78 1.258 . S
N71 Co62 2.057 . S
N71 C72 1.316 1_554 S
N71 C73 1.375 . S
C72 N71 1.316 1_556 S
C72 N74 1.347 . S
C72 H83 0.931 . S
C73 N71 1.375 . S
C73 C75 1.350 1_554 S
C73 H82 0.930 . S
N74 C72 1.347 . S
N74 C75 1.373 . S
C75 C73 1.350 1_556 S
C75 N74 1.373 . S
C75 H89 0.931 . S
C76 O79 1.256 . S
C76 O80 1.255 . S
O77 Co60 2.021 . S
O77 C70 1.259 . S
O78 Co62 2.117 . S
O78 C70 1.258 . S
O79 Co62 2.020 . S
O79 C76 1.256 . S
O80 Co60 2.062 . S
O80 C76 1.255 . S
O81 C61 1.260 . S
O81 Co62 2.021 . S
H82 C73 0.930 . S
H83 C72 0.931 . S
O84 Co60 2.117 . S
O84 C61 1.258 . S
O85 Co60 2.020 1_556 S
O85 C87 1.256 . S
O86 Co62 2.062 1_556 S
O86 C87 1.255 . S
C87 O85 1.256 . S
C87 O86 1.255 . S
H88 C67 0.931 . S
H89 C75 0.931 . S
Co90 N95 2.057 . S
Co90 O107 2.021 . S
Co90 O110 2.062 . S
Co90 O114 2.117 . S
Co90 O115 2.020 . S
C91 O111 1.259 . S
C91 O114 1.258 . S
Co92 N101 2.057 . S
Co92 O108 2.117 . S
Co92 O109 2.020 . S
Co92 O111 2.021 . S
Co92 O116 2.062 . S
C93 N95 1.316 . S
C93 N96 1.347 . S
C93 H98 0.931 . S
C94 N95 1.375 . S
C94 C97 1.350 . S
C94 H99 0.930 . S
N95 Co90 2.057 . S
N95 C93 1.316 . S
N95 C94 1.375 . S
N96 C93 1.347 . S
N96 C97 1.373 . S
C97 C94 1.350 . S
C97 N96 1.373 . S
C97 H118 0.931 . S
H98 C93 0.931 . S
H99 C94 0.930 . S
C100 O107 1.259 . S
C100 O108 1.258 . S
N101 Co92 2.057 . S
N101 C102 1.316 . S
N101 C103 1.375 . S
C102 N101 1.316 . S
C102 N104 1.347 . S
C102 H113 0.931 . S
C103 N101 1.375 . S
C103 C105 1.350 . S
C103 H112 0.930 . S
N104 C102 1.347 . S
N104 C105 1.373 . S
C105 C103 1.350 . S
C105 N104 1.373 . S
C105 H119 0.931 . S
C106 O109 1.256 . S
C106 O110 1.255 . S
O107 Co90 2.021 . S
O107 C100 1.259 . S
O108 Co92 2.117 . S
O108 C100 1.258 . S
O109 Co92 2.020 . S
O109 C106 1.256 . S
O110 Co90 2.062 . S
O110 C106 1.255 . S
O111 C91 1.259 . S
O111 Co92 2.021 . S
H112 C103 0.930 . S
H113 C102 0.931 . S
O114 Co90 2.117 . S
O114 C91 1.258 . S
O115 Co90 2.020 . S
O115 C117 1.256 . S
O116 Co92 2.062 . S
O116 C117 1.255 . S
C117 O115 1.256 . S
C117 O116 1.255 . S
H118 C97 0.931 . S
H119 C105 0.931 . S
Co120 N125 2.057 . S
Co120 O137 2.021 . S
Co120 O140 2.062 . S
Co120 O144 2.117 . S
Co120 O145 2.020 . S
C121 O141 1.259 . S
C121 O144 1.258 . S
Co122 N131 2.057 . S
Co122 O138 2.117 . S
Co122 O139 2.020 . S
Co122 O141 2.021 . S
Co122 O146 2.062 . S
C123 N125 1.316 . S
C123 N126 1.347 . S
C123 H128 0.931 . S
C124 N125 1.375 . S
C124 C127 1.350 . S
C124 H129 0.930 . S
N125 Co120 2.057 . S
N125 C123 1.316 . S
N125 C124 1.375 . S
N126 C123 1.347 . S
N126 C127 1.373 . S
C127 C124 1.350 . S
C127 N126 1.373 . S
C127 H148 0.931 . S
H128 C123 0.931 . S
H129 C124 0.930 . S
C130 O137 1.259 . S
C130 O138 1.258 . S
N131 Co122 2.057 . S
N131 C132 1.316 . S
N131 C133 1.375 . S
C132 N131 1.316 . S
C132 N134 1.347 . S
C132 H143 0.931 . S
C133 N131 1.375 . S
C133 C135 1.350 . S
C133 H142 0.930 . S
N134 C132 1.347 . S
N134 C135 1.373 . S
C135 C133 1.350 . S
C135 N134 1.373 . S
C135 H149 0.931 . S
C136 O139 1.256 . S
C136 O140 1.255 . S
O137 Co120 2.021 . S
O137 C130 1.259 . S
O138 Co122 2.117 . S
O138 C130 1.258 . S
O139 Co122 2.020 . S
O139 C136 1.256 . S
O140 Co120 2.062 . S
O140 C136 1.255 . S
O141 C121 1.259 . S
O141 Co122 2.021 . S
H142 C133 0.930 . S
H143 C132 0.931 . S
O144 Co120 2.117 . S
O144 C121 1.258 . S
O145 Co120 2.020 . S
O145 C147 1.256 . S
O146 Co122 2.062 . S
O146 C147 1.255 . S
C147 O145 1.256 . S
C147 O146 1.255 . S
H148 C127 0.931 . S
H149 C135 0.931 . S
Co150 N155 2.057 . S
Co150 O167 2.021 . S
Co150 O170 2.062 . S
Co150 O174 2.117 . S
Co150 O175 2.020 . S
C151 O171 1.259 . S
C151 O174 1.258 . S
Co152 N161 2.057 . S
Co152 O168 2.117 . S
Co152 O169 2.020 . S
Co152 O171 2.021 . S
Co152 O176 2.062 . S
C153 N155 1.316 . S
C153 N156 1.347 . S
C153 H158 0.931 . S
C154 N155 1.375 . S
C154 C157 1.350 . S
C154 H159 0.930 . S
N155 Co150 2.057 . S
N155 C153 1.316 . S
N155 C154 1.375 . S
N156 C153 1.347 . S
N156 C157 1.373 . S
C157 C154 1.350 . S
C157 N156 1.373 . S
C157 H178 0.931 . S
H158 C153 0.931 . S
H159 C154 0.930 . S
C160 O167 1.259 . S
C160 O168 1.258 . S
N161 Co152 2.057 . S
N161 C162 1.316 . S
N161 C163 1.375 . S
C162 N161 1.316 . S
C162 N164 1.347 . S
C162 H173 0.931 . S
C163 N161 1.375 . S
C163 C165 1.350 . S
C163 H172 0.930 . S
N164 C162 1.347 . S
N164 C165 1.373 . S
C165 C163 1.350 . S
C165 N164 1.373 . S
C165 H179 0.931 . S
C166 O169 1.256 . S
C166 O170 1.255 . S
O167 Co150 2.021 . S
O167 C160 1.259 . S
O168 Co152 2.117 . S
O168 C160 1.258 . S
O169 Co152 2.020 . S
O169 C166 1.256 . S
O170 Co150 2.062 . S
O170 C166 1.255 . S
O171 C151 1.259 . S
O171 Co152 2.021 . S
H172 C163 0.930 . S
H173 C162 0.931 . S
O174 Co150 2.117 . S
O174 C151 1.258 . S
O175 Co150 2.020 . S
O175 C177 1.256 . S
O176 Co152 2.062 . S
O176 C177 1.255 . S
C177 O175 1.256 . S
C177 O176 1.255 . S
H178 C157 0.931 . S
H179 C165 0.931 . S
Co180 N185 2.057 . S
Co180 O197 2.021 . S
Co180 O200 2.062 . S
Co180 O204 2.117 . S
Co180 O205 2.020 . S
C181 O201 1.259 . S
C181 O204 1.258 . S
Co182 N191 2.057 . S
Co182 O198 2.117 . S
Co182 O199 2.020 . S
Co182 O201 2.021 . S
Co182 O206 2.062 . S
C183 N185 1.316 . S
C183 N186 1.347 . S
C183 H188 0.931 . S
C184 N185 1.375 . S
C184 C187 1.350 . S
C184 H189 0.930 . S
N185 Co180 2.057 . S
N185 C183 1.316 . S
N185 C184 1.375 . S
N186 C183 1.347 . S
N186 C187 1.373 . S
C187 C184 1.350 . S
C187 N186 1.373 . S
C187 H208 0.931 . S
H188 C183 0.931 . S
H189 C184 0.930 . S
C190 O197 1.259 . S
C190 O198 1.258 . S
N191 Co182 2.057 . S
N191 C192 1.316 . S
N191 C193 1.375 . S
C192 N191 1.316 . S
C192 N194 1.347 . S
C192 H203 0.931 . S
C193 N191 1.375 . S
C193 C195 1.350 . S
C193 H202 0.930 . S
N194 C192 1.347 . S
N194 C195 1.373 . S
C195 C193 1.350 . S
C195 N194 1.373 . S
C195 H209 0.931 . S
C196 O199 1.256 . S
C196 O200 1.255 . S
O197 Co180 2.021 . S
O197 C190 1.259 . S
O198 Co182 2.117 . S
O198 C190 1.258 . S
O199 Co182 2.020 . S
O199 C196 1.256 . S
O200 Co180 2.062 . S
O200 C196 1.255 . S
O201 C181 1.259 . S
O201 Co182 2.021 . S
H202 C193 0.930 . S
H203 C192 0.931 . S
O204 Co180 2.117 . S
O204 C181 1.258 . S
O205 Co180 2.020 . S
O205 C207 1.256 . S
O206 Co182 2.062 . S
O206 C207 1.255 . S
C207 O205 1.256 . S
C207 O206 1.255 . S
H208 C187 0.931 . S
H209 C195 0.931 . S
Co210 N215 2.057 . S
Co210 O227 2.021 . S
Co210 O230 2.062 . S
Co210 O234 2.117 . S
Co210 O235 2.020 . S
C211 O231 1.259 . S
C211 O234 1.258 . S
Co212 N221 2.057 . S
Co212 O228 2.117 . S
Co212 O229 2.020 . S
Co212 O231 2.021 . S
Co212 O236 2.062 . S
C213 N215 1.316 . S
C213 N216 1.347 . S
C213 H218 0.931 . S
C214 N215 1.375 . S
C214 C217 1.350 . S
C214 H219 0.930 . S
N215 Co210 2.057 . S
N215 C213 1.316 . S
N215 C214 1.375 . S
N216 C213 1.347 . S
N216 C217 1.373 . S
C217 C214 1.350 . S
C217 N216 1.373 . S
C217 H238 0.931 . S
H218 C213 0.931 . S
H219 C214 0.930 . S
C220 O227 1.259 . S
C220 O228 1.258 . S
N221 Co212 2.057 . S
N221 C222 1.316 . S
N221 C223 1.375 . S
C222 N221 1.316 . S
C222 N224 1.347 . S
C222 H233 0.931 . S
C223 N221 1.375 . S
C223 C225 1.350 . S
C223 H232 0.930 . S
N224 C222 1.347 . S
N224 C225 1.373 . S
C225 C223 1.350 . S
C225 N224 1.373 . S
C225 H239 0.931 . S
C226 O229 1.256 . S
C226 O230 1.255 . S
O227 Co210 2.021 . S
O227 C220 1.259 . S
O228 Co212 2.117 . S
O228 C220 1.258 . S
O229 Co212 2.020 . S
O229 C226 1.256 . S
O230 Co210 2.062 . S
O230 C226 1.255 . S
O231 C211 1.259 . S
O231 Co212 2.021 . S
H232 C223 0.930 . S
H233 C222 0.931 . S
O234 Co210 2.117 . S
O234 C211 1.258 . S
O235 Co210 2.020 . S
O235 C237 1.256 . S
O236 Co212 2.062 . S
O236 C237 1.255 . S
C237 O235 1.256 . S
C237 O236 1.255 . S
H238 C217 0.931 . S
H239 C225 0.931 . S
Co240 N245 2.057 . S
Co240 O257 2.021 . S
Co240 O260 2.062 . S
Co240 O264 2.117 . S
Co240 O265 2.020 . S
C241 O261 1.259 . S
C241 O264 1.258 . S
Co242 N251 2.057 . S
Co242 O258 2.117 . S
Co242 O259 2.020 . S
Co242 O261 2.021 . S
Co242 O266 2.062 . S
C243 N245 1.316 . S
C243 N246 1.347 . S
C243 H248 0.931 . S
C244 N245 1.375 . S
C244 C247 1.350 . S
C244 H249 0.930 . S
N245 Co240 2.057 . S
N245 C243 1.316 . S
N245 C244 1.375 . S
N246 C243 1.347 . S
N246 C247 1.373 . S
C247 C244 1.350 . S
C247 N246 1.373 . S
C247 H268 0.931 . S
H248 C243 0.931 . S
H249 C244 0.930 . S
C250 O257 1.259 . S
C250 O258 1.258 . S
N251 Co242 2.057 . S
N251 C252 1.316 . S
N251 C253 1.375 . S
C252 N251 1.316 . S
C252 N254 1.347 . S
C252 H263 0.931 . S
C253 N251 1.375 . S
C253 C255 1.350 . S
C253 H262 0.930 . S
N254 C252 1.347 . S
N254 C255 1.373 . S
C255 C253 1.350 . S
C255 N254 1.373 . S
C255 H269 0.931 . S
C256 O259 1.256 . S
C256 O260 1.255 . S
O257 Co240 2.021 . S
O257 C250 1.259 . S
O258 Co242 2.117 . S
O258 C250 1.258 . S
O259 Co242 2.020 . S
O259 C256 1.256 . S
O260 Co240 2.062 . S
O260 C256 1.255 . S
O261 C241 1.259 . S
O261 Co242 2.021 . S
H262 C253 0.930 . S
H263 C252 0.931 . S
O264 Co240 2.117 . S
O264 C241 1.258 . S
O265 Co240 2.020 . S
O265 C267 1.256 . S
O266 Co242 2.062 . S
O266 C267 1.255 . S
C267 O265 1.256 . S
C267 O266 1.255 . S
H268 C247 0.931 . S
H269 C255 0.931 . S
Co270 N275 2.057 . S
Co270 O287 2.021 . S
Co270 O290 2.062 . S
Co270 O294 2.117 . S
Co270 O295 2.020 . S
C271 O291 1.259 . S
C271 O294 1.258 . S
Co272 N281 2.057 . S
Co272 O288 2.117 . S
Co272 O289 2.020 . S
Co272 O291 2.021 . S
Co272 O296 2.062 . S
C273 N275 1.316 . S
C273 N276 1.347 . S
C273 H278 0.931 . S
C274 N275 1.375 . S
C274 C277 1.350 . S
C274 H279 0.930 . S
N275 Co270 2.057 . S
N275 C273 1.316 . S
N275 C274 1.375 . S
N276 C273 1.347 . S
N276 C277 1.373 . S
C277 C274 1.350 . S
C277 N276 1.373 . S
C277 H298 0.931 . S
H278 C273 0.931 . S
H279 C274 0.930 . S
C280 O287 1.259 . S
C280 O288 1.258 . S
N281 Co272 2.057 . S
N281 C282 1.316 . S
N281 C283 1.375 . S
C282 N281 1.316 . S
C282 N284 1.347 . S
C282 H293 0.931 . S
C283 N281 1.375 . S
C283 C285 1.350 . S
C283 H292 0.930 . S
N284 C282 1.347 . S
N284 C285 1.373 . S
C285 C283 1.350 . S
C285 N284 1.373 . S
C285 H299 0.931 . S
C286 O289 1.256 . S
C286 O290 1.255 . S
O287 Co270 2.021 . S
O287 C280 1.259 . S
O288 Co272 2.117 . S
O288 C280 1.258 . S
O289 Co272 2.020 . S
O289 C286 1.256 . S
O290 Co270 2.062 . S
O290 C286 1.255 . S
O291 C271 1.259 . S
O291 Co272 2.021 . S
H292 C283 0.930 . S
H293 C282 0.931 . S
O294 Co270 2.117 . S
O294 C271 1.258 . S
O295 Co270 2.020 . S
O295 C297 1.256 . S
O296 Co272 2.062 . S
O296 C297 1.255 . S
C297 O295 1.256 . S
C297 O296 1.255 . S
H298 C277 0.931 . S
H299 C285 0.931 . S
Co300 N305 2.057 . S
Co300 O317 2.021 . S
Co300 O320 2.062 . S
Co300 O324 2.117 . S
Co300 O325 2.020 . S
C301 O321 1.259 . S
C301 O324 1.258 . S
Co302 N311 2.057 . S
Co302 O318 2.117 . S
Co302 O319 2.020 . S
Co302 O321 2.021 . S
Co302 O326 2.062 . S
C303 N305 1.316 . S
C303 N306 1.347 . S
C303 H308 0.931 . S
C304 N305 1.375 . S
C304 C307 1.350 . S
C304 H309 0.930 . S
N305 Co300 2.057 . S
N305 C303 1.316 . S
N305 C304 1.375 . S
N306 C303 1.347 . S
N306 C307 1.373 . S
C307 C304 1.350 . S
C307 N306 1.373 . S
C307 H328 0.931 . S
H308 C303 0.931 . S
H309 C304 0.930 . S
C310 O317 1.259 . S
C310 O318 1.258 . S
N311 Co302 2.057 . S
N311 C312 1.316 . S
N311 C313 1.375 . S
C312 N311 1.316 . S
C312 N314 1.347 . S
C312 H323 0.931 . S
C313 N311 1.375 . S
C313 C315 1.350 . S
C313 H322 0.930 . S
N314 C312 1.347 . S
N314 C315 1.373 . S
C315 C313 1.350 . S
C315 N314 1.373 . S
C315 H329 0.931 . S
C316 O319 1.256 . S
C316 O320 1.255 . S
O317 Co300 2.021 . S
O317 C310 1.259 . S
O318 Co302 2.117 . S
O318 C310 1.258 . S
O319 Co302 2.020 . S
O319 C316 1.256 . S
O320 Co300 2.062 . S
O320 C316 1.255 . S
O321 C301 1.259 . S
O321 Co302 2.021 . S
H322 C313 0.930 . S
H323 C312 0.931 . S
O324 Co300 2.117 . S
O324 C301 1.258 . S
O325 Co300 2.020 . S
O325 C327 1.256 . S
O326 Co302 2.062 . S
O326 C327 1.255 . S
C327 O325 1.256 . S
C327 O326 1.255 . S
H328 C307 0.931 . S
H329 C315 0.931 . S
Co330 N335 2.057 . S
Co330 O347 2.021 . S
Co330 O350 2.062 . S
Co330 O354 2.117 . S
Co330 O355 2.020 . S
C331 O351 1.259 . S
C331 O354 1.258 . S
Co332 N341 2.057 . S
Co332 O348 2.117 . S
Co332 O349 2.020 . S
Co332 O351 2.021 . S
Co332 O356 2.062 . S
C333 N335 1.316 . S
C333 N336 1.347 . S
C333 H338 0.931 . S
C334 N335 1.375 . S
C334 C337 1.350 . S
C334 H339 0.930 . S
N335 Co330 2.057 . S
N335 C333 1.316 . S
N335 C334 1.375 . S
N336 C333 1.347 . S
N336 C337 1.373 . S
C337 C334 1.350 . S
C337 N336 1.373 . S
C337 H358 0.931 . S
H338 C333 0.931 . S
H339 C334 0.930 . S
C340 O347 1.259 . S
C340 O348 1.258 . S
N341 Co332 2.057 . S
N341 C342 1.316 . S
N341 C343 1.375 . S
C342 N341 1.316 . S
C342 N344 1.347 . S
C342 H353 0.931 . S
C343 N341 1.375 . S
C343 C345 1.350 . S
C343 H352 0.930 . S
N344 C342 1.347 . S
N344 C345 1.373 . S
C345 C343 1.350 . S
C345 N344 1.373 . S
C345 H359 0.931 . S
C346 O349 1.256 . S
C346 O350 1.255 . S
O347 Co330 2.021 . S
O347 C340 1.259 . S
O348 Co332 2.117 . S
O348 C340 1.258 . S
O349 Co332 2.020 . S
O349 C346 1.256 . S
O350 Co330 2.062 . S
O350 C346 1.255 . S
O351 C331 1.259 . S
O351 Co332 2.021 . S
H352 C343 0.930 . S
H353 C342 0.931 . S
O354 Co330 2.117 . S
O354 C331 1.258 . S
O355 Co330 2.020 . S
O355 C357 1.256 . S
O356 Co332 2.062 . S
O356 C357 1.255 . S
C357 O355 1.256 . S
C357 O356 1.255 . S
H358 C337 0.931 . S
H359 C345 0.931 . S
Co360 N365 2.057 . S
Co360 O377 2.021 . S
Co360 O380 2.062 . S
Co360 O384 2.117 . S
Co360 O385 2.020 . S
C361 O381 1.259 . S
C361 O384 1.258 . S
Co362 N371 2.057 . S
Co362 O378 2.117 . S
Co362 O379 2.020 . S
Co362 O381 2.021 . S
Co362 O386 2.062 . S
C363 N365 1.316 . S
C363 N366 1.347 . S
C363 H368 0.931 1_655 S
C364 N365 1.375 . S
C364 C367 1.350 . S
C364 H369 0.930 . S
N365 Co360 2.057 . S
N365 C363 1.316 . S
N365 C364 1.375 . S
N366 C363 1.347 . S
N366 C367 1.373 . S
C367 C364 1.350 . S
C367 N366 1.373 . S
C367 H388 0.931 . S
H368 C363 0.931 1_455 S
H369 C364 0.930 . S
C370 O377 1.259 . S
C370 O378 1.258 . S
N371 Co362 2.057 . S
N371 C372 1.316 . S
N371 C373 1.375 . S
C372 N371 1.316 . S
C372 N374 1.347 . S
C372 H383 0.931 . S
C373 N371 1.375 . S
C373 C375 1.350 . S
C373 H382 0.930 . S
N374 C372 1.347 . S
N374 C375 1.373 . S
C375 C373 1.350 . S
C375 N374 1.373 . S
C375 H389 0.931 . S
C376 O379 1.256 . S
C376 O380 1.255 . S
O377 Co360 2.021 . S
O377 C370 1.259 . S
O378 Co362 2.117 . S
O378 C370 1.258 . S
O379 Co362 2.020 . S
O379 C376 1.256 . S
O380 Co360 2.062 . S
O380 C376 1.255 . S
O381 C361 1.259 . S
O381 Co362 2.021 . S
H382 C373 0.930 . S
H383 C372 0.931 . S
O384 Co360 2.117 . S
O384 C361 1.258 . S
O385 Co360 2.020 . S
O385 C387 1.256 . S
O386 Co362 2.062 . S
O386 C387 1.255 . S
C387 O385 1.256 . S
C387 O386 1.255 . S
H388 C367 0.931 . S
H389 C375 0.931 . S
Co390 N395 2.057 . S
Co390 O407 2.021 . S
Co390 O410 2.062 . S
Co390 O414 2.117 . S
Co390 O415 2.020 . S
C391 O411 1.259 . S
C391 O414 1.258 . S
Co392 N401 2.057 . S
Co392 O408 2.117 . S
Co392 O409 2.020 . S
Co392 O411 2.021 . S
Co392 O416 2.062 . S
C393 N395 1.316 . S
C393 N396 1.347 . S
C393 H398 0.931 . S
C394 N395 1.375 . S
C394 C397 1.350 . S
C394 H399 0.930 . S
N395 Co390 2.057 . S
N395 C393 1.316 . S
N395 C394 1.375 . S
N396 C393 1.347 . S
N396 C397 1.373 . S
C397 C394 1.350 . S
C397 N396 1.373 . S
C397 H418 0.931 . S
H398 C393 0.931 . S
H399 C394 0.930 . S
C400 O407 1.259 . S
C400 O408 1.258 . S
N401 Co392 2.057 . S
N401 C402 1.316 . S
N401 C403 1.375 . S
C402 N401 1.316 . S
C402 N404 1.347 . S
C402 H413 0.931 . S
C403 N401 1.375 . S
C403 C405 1.350 . S
C403 H412 0.930 . S
N404 C402 1.347 . S
N404 C405 1.373 . S
C405 C403 1.350 . S
C405 N404 1.373 . S
C405 H419 0.931 1_545 S
C406 O409 1.256 . S
C406 O410 1.255 . S
O407 Co390 2.021 . S
O407 C400 1.259 . S
O408 Co392 2.117 . S
O408 C400 1.258 . S
O409 Co392 2.020 . S
O409 C406 1.256 . S
O410 Co390 2.062 . S
O410 C406 1.255 . S
O411 C391 1.259 . S
O411 Co392 2.021 . S
H412 C403 0.930 . S
H413 C402 0.931 . S
O414 Co390 2.117 . S
O414 C391 1.258 . S
O415 Co390 2.020 . S
O415 C417 1.256 . S
O416 Co392 2.062 . S
O416 C417 1.255 . S
C417 O415 1.256 . S
C417 O416 1.255 . S
H418 C397 0.931 . S
H419 C405 0.931 1_565 S
Co420 N425 2.057 . S
Co420 O437 2.021 . S
Co420 O440 2.062 . S
Co420 O444 2.117 . S
Co420 O445 2.020 . S
C421 O441 1.259 . S
C421 O444 1.258 . S
Co422 N431 2.057 . S
Co422 O438 2.117 . S
Co422 O439 2.020 . S
Co422 O441 2.021 . S
Co422 O446 2.062 . S
C423 N425 1.316 . S
C423 N426 1.347 . S
C423 H428 0.931 1_545 S
C424 N425 1.375 . S
C424 C427 1.350 . S
C424 H429 0.930 . S
N425 Co420 2.057 . S
N425 C423 1.316 . S
N425 C424 1.375 . S
N426 C423 1.347 . S
N426 C427 1.373 . S
C427 C424 1.350 . S
C427 N426 1.373 . S
C427 H448 0.931 . S
H428 C423 0.931 1_565 S
H429 C424 0.930 . S
C430 O437 1.259 . S
C430 O438 1.258 . S
N431 Co422 2.057 . S
N431 C432 1.316 . S
N431 C433 1.375 . S
C432 N431 1.316 . S
C432 N434 1.347 . S
C432 H443 0.931 . S
C433 N431 1.375 . S
C433 C435 1.350 . S
C433 H442 0.930 . S
N434 C432 1.347 . S
N434 C435 1.373 . S
C435 C433 1.350 . S
C435 N434 1.373 . S
C435 H449 0.931 1_655 S
C436 O439 1.256 . S
C436 O440 1.255 . S
O437 Co420 2.021 . S
O437 C430 1.259 . S
O438 Co422 2.117 . S
O438 C430 1.258 . S
O439 Co422 2.020 . S
O439 C436 1.256 . S
O440 Co420 2.062 . S
O440 C436 1.255 . S
O441 C421 1.259 . S
O441 Co422 2.021 . S
H442 C433 0.930 . S
H443 C432 0.931 . S
O444 Co420 2.117 . S
O444 C421 1.258 . S
O445 Co420 2.020 . S
O445 C447 1.256 . S
O446 Co422 2.062 . S
O446 C447 1.255 . S
C447 O445 1.256 . S
C447 O446 1.255 . S
H448 C427 0.931 . S
H449 C435 0.931 1_455 S
Co450 N455 2.057 . S
Co450 O467 2.021 . S
Co450 O470 2.062 . S
Co450 O474 2.117 . S
Co450 O475 2.020 . S
C451 O471 1.259 . S
C451 O474 1.258 . S
Co452 N461 2.057 . S
Co452 O468 2.117 . S
Co452 O469 2.020 . S
Co452 O471 2.021 . S
Co452 O476 2.062 . S
C453 N455 1.316 . S
C453 N456 1.347 . S
C453 H458 0.931 . S
C454 N455 1.375 . S
C454 C457 1.350 . S
C454 H459 0.930 . S
N455 Co450 2.057 . S
N455 C453 1.316 . S
N455 C454 1.375 . S
N456 C453 1.347 . S
N456 C457 1.373 . S
C457 C454 1.350 . S
C457 N456 1.373 . S
C457 H478 0.931 . S
H458 C453 0.931 . S
H459 C454 0.930 . S
C460 O467 1.259 . S
C460 O468 1.258 . S
N461 Co452 2.057 . S
N461 C462 1.316 . S
N461 C463 1.375 . S
C462 N461 1.316 . S
C462 N464 1.347 . S
C462 H473 0.931 1_545 S
C463 N461 1.375 . S
C463 C465 1.350 . S
C463 H472 0.930 . S
N464 C462 1.347 . S
N464 C465 1.373 . S
C465 C463 1.350 . S
C465 N464 1.373 . S
C465 H479 0.931 . S
C466 O469 1.256 . S
C466 O470 1.255 . S
O467 Co450 2.021 . S
O467 C460 1.259 . S
O468 Co452 2.117 . S
O468 C460 1.258 . S
O469 Co452 2.020 . S
O469 C466 1.256 . S
O470 Co450 2.062 . S
O470 C466 1.255 . S
O471 C451 1.259 . S
O471 Co452 2.021 . S
H472 C463 0.930 . S
H473 C462 0.931 1_565 S
O474 Co450 2.117 . S
O474 C451 1.258 . S
O475 Co450 2.020 . S
O475 C477 1.256 . S
O476 Co452 2.062 . S
O476 C477 1.255 . S
C477 O475 1.256 . S
C477 O476 1.255 . S
H478 C457 0.931 . S
H479 C465 0.931 . S
Co480 N485 2.057 . S
Co480 O497 2.021 . S
Co480 O500 2.062 . S
Co480 O504 2.117 . S
Co480 O505 2.020 . S
C481 O501 1.259 . S
C481 O504 1.258 . S
Co482 N491 2.057 . S
Co482 O498 2.117 . S
Co482 O499 2.020 . S
Co482 O501 2.021 . S
Co482 O506 2.062 . S
C483 N485 1.316 . S
C483 N486 1.347 . S
C483 H488 0.931 . S
C484 N485 1.375 . S
C484 C487 1.350 . S
C484 H489 0.930 . S
N485 Co480 2.057 . S
N485 C483 1.316 . S
N485 C484 1.375 . S
N486 C483 1.347 . S
N486 C487 1.373 . S
C487 C484 1.350 . S
C487 N486 1.373 . S
C487 H508 0.931 1_545 S
H488 C483 0.931 . S
H489 C484 0.930 . S
C490 O497 1.259 . S
C490 O498 1.258 . S
N491 Co482 2.057 . S
N491 C492 1.316 . S
N491 C493 1.375 . S
C492 N491 1.316 . S
C492 N494 1.347 . S
C492 H503 0.931 1_655 S
C493 N491 1.375 . S
C493 C495 1.350 . S
C493 H502 0.930 . S
N494 C492 1.347 . S
N494 C495 1.373 . S
C495 C493 1.350 . S
C495 N494 1.373 . S
C495 H509 0.931 . S
C496 O499 1.256 . S
C496 O500 1.255 . S
O497 Co480 2.021 . S
O497 C490 1.259 . S
O498 Co482 2.117 . S
O498 C490 1.258 . S
O499 Co482 2.020 . S
O499 C496 1.256 . S
O500 Co480 2.062 . S
O500 C496 1.255 . S
O501 C481 1.259 . S
O501 Co482 2.021 . S
H502 C493 0.930 . S
H503 C492 0.931 1_455 S
O504 Co480 2.117 . S
O504 C481 1.258 . S
O505 Co480 2.020 . S
O505 C507 1.256 . S
O506 Co482 2.062 . S
O506 C507 1.255 . S
C507 O505 1.256 . S
C507 O506 1.255 . S
H508 C487 0.931 1_565 S
H509 C495 0.931 . S
Co510 N515 2.057 . S
Co510 O527 2.021 . S
Co510 O530 2.062 . S
Co510 O534 2.117 . S
Co510 O535 2.020 . S
C511 O531 1.259 . S
C511 O534 1.258 . S
Co512 N521 2.057 . S
Co512 O528 2.117 . S
Co512 O529 2.020 . S
Co512 O531 2.021 . S
Co512 O536 2.062 . S
C513 N515 1.316 . S
C513 N516 1.347 . S
C513 H518 0.931 . S
C514 N515 1.375 . S
C514 C517 1.350 . S
C514 H519 0.930 . S
N515 Co510 2.057 . S
N515 C513 1.316 . S
N515 C514 1.375 . S
N516 C513 1.347 . S
N516 C517 1.373 . S
C517 C514 1.350 . S
C517 N516 1.373 . S
C517 H538 0.931 1_655 S
H518 C513 0.931 . S
H519 C514 0.930 . S
C520 O527 1.259 . S
C520 O528 1.258 . S
N521 Co512 2.057 . S
N521 C522 1.316 . S
N521 C523 1.375 . S
C522 N521 1.316 . S
C522 N524 1.347 . S
C522 H533 0.931 . S
C523 N521 1.375 . S
C523 C525 1.350 . S
C523 H532 0.930 . S
N524 C522 1.347 . S
N524 C525 1.373 . S
C525 C523 1.350 . S
C525 N524 1.373 . S
C525 H539 0.931 . S
C526 O529 1.256 . S
C526 O530 1.255 . S
O527 Co510 2.021 . S
O527 C520 1.259 . S
O528 Co512 2.117 . S
O528 C520 1.258 . S
O529 Co512 2.020 . S
O529 C526 1.256 . S
O530 Co510 2.062 . S
O530 C526 1.255 . S
O531 C511 1.259 . S
O531 Co512 2.021 . S
H532 C523 0.930 . S
H533 C522 0.931 . S
O534 Co510 2.117 . S
O534 C511 1.258 . S
O535 Co510 2.020 . S
O535 C537 1.256 . S
O536 Co512 2.062 . S
O536 C537 1.255 . S
C537 O535 1.256 . S
C537 O536 1.255 . S
H538 C517 0.931 1_455 S
H539 C525 0.931 . S
H540 C548 0.950 . S
H541 C553 0.950 . S
H542 C550 0.950 . S
H543 C552 0.950 . S
H544 C554 0.950 . S
H545 C556 0.950 . S
H546 C558 0.950 . S
H547 C559 0.950 . S
C548 H540 0.950 . S
C548 C549 1.386 . S
C548 C550 1.391 . S
C549 C548 1.386 . S
C549 C553 1.393 . S
C550 H542 0.950 . S
C550 C548 1.391 . S
C550 C551 1.400 . S
C551 C550 1.400 . S
C551 C552 1.398 . S
C551 C557 1.491 1_556 S
C552 H543 0.950 . S
C552 C551 1.398 . S
C552 C553 1.391 . S
C553 H541 0.950 . S
C553 C549 1.393 . S
C553 C552 1.391 . S
C554 H544 0.950 . S
C554 C555 1.386 . S
C554 C556 1.391 . S
C555 C554 1.386 . S
C555 C559 1.393 . S
C556 H545 0.950 . S
C556 C554 1.391 . S
C556 C557 1.400 . S
C557 C551 1.491 1_554 S
C557 C556 1.400 . S
C557 C558 1.398 . S
C558 H546 0.950 . S
C558 C557 1.398 . S
C558 C559 1.391 . S
C559 H547 0.950 . S
C559 C555 1.393 . S
C559 C558 1.391 . S
H560 C568 0.950 . S
H561 C573 0.950 . S
H562 C570 0.950 . S
H563 C572 0.947 1_556 S
H564 C574 0.950 . S
H565 C576 0.950 . S
H566 C578 0.950 . S
H567 C579 0.950 . S
C568 H560 0.950 . S
C568 C569 1.386 . S
C568 C570 1.391 . S
C569 C568 1.386 . S
C569 C573 1.393 . S
C570 H562 0.950 . S
C570 C568 1.391 . S
C570 C571 1.399 1_554 S
C571 C570 1.399 1_556 S
C571 C572 1.398 1_556 S
C571 C577 1.492 . S
C572 H563 0.947 1_554 S
C572 C571 1.398 1_554 S
C572 C573 1.395 . S
C573 H561 0.950 . S
C573 C569 1.393 . S
C573 C572 1.395 . S
C574 H564 0.950 . S
C574 C575 1.386 . S
C574 C576 1.391 . S
C575 C574 1.386 . S
C575 C579 1.393 . S
C576 H565 0.950 . S
C576 C574 1.391 . S
C576 C577 1.400 . S
C577 C571 1.492 . S
C577 C576 1.400 . S
C577 C578 1.398 . S
C578 H566 0.950 . S
C578 C577 1.398 . S
C578 C579 1.391 . S
C579 H567 0.950 . S
C579 C575 1.393 . S
C579 C578 1.391 . S
H580 C588 0.950 . S
H581 C593 0.950 . S
H582 C590 0.950 . S
H583 C592 0.950 . S
H584 C594 0.950 . S
H585 C596 0.950 . S
H586 C598 0.950 . S
H587 C599 0.950 . S
C588 H580 0.950 . S
C588 C589 1.386 . S
C588 C590 1.391 . S
C589 C588 1.386 . S
C589 C593 1.393 1_556 S
C590 H582 0.950 . S
C590 C588 1.391 . S
C590 C591 1.400 . S
C591 C590 1.400 . S
C591 C592 1.398 1_556 S
C591 C597 1.487 1_556 S
C592 H583 0.950 . S
C592 C591 1.398 1_554 S
C592 C593 1.391 . S
C593 H581 0.950 . S
C593 C589 1.393 1_554 S
C593 C592 1.391 . S
C594 H584 0.950 . S
C594 C595 1.386 . S
C594 C596 1.391 . S
C595 C594 1.386 . S
C595 C599 1.393 1_554 S
C596 H585 0.950 . S
C596 C594 1.391 . S
C596 C597 1.417 . S
C597 C591 1.487 1_554 S
C597 C596 1.417 . S
C597 C598 1.386 1_554 S
C598 H586 0.950 . S
C598 C597 1.386 1_556 S
C598 C599 1.391 . S
C599 H587 0.950 . S
C599 C595 1.393 1_556 S
C599 C598 1.391 . S
H600 C608 0.950 . S
H601 C613 0.950 . S
H602 C610 0.950 . S
H603 C612 0.950 . S
H604 C614 0.950 . S
H605 C616 0.950 . S
H606 C618 0.950 . S
H607 C619 0.950 . S
C608 H600 0.950 . S
C608 C609 1.386 . S
C608 C610 1.391 . S
C609 C608 1.386 . S
C609 C613 1.393 . S
C610 H602 0.950 . S
C610 C608 1.391 . S
C610 C611 1.400 . S
C611 C610 1.400 . S
C611 C612 1.398 . S
C611 C617 1.491 . S
C612 H603 0.950 . S
C612 C611 1.398 . S
C612 C613 1.391 . S
C613 H601 0.950 . S
C613 C609 1.393 . S
C613 C612 1.391 . S
C614 H604 0.950 . S
C614 C615 1.386 . S
C614 C616 1.391 . S
C615 C614 1.386 . S
C615 C619 1.393 . S
C616 H605 0.950 . S
C616 C614 1.391 . S
C616 C617 1.400 . S
C617 C611 1.491 . S
C617 C616 1.400 . S
C617 C618 1.398 . S
C618 H606 0.950 . S
C618 C617 1.398 . S
C618 C619 1.391 . S
C619 H607 0.950 . S
C619 C615 1.393 . S
C619 C618 1.391 . S
H620 C628 0.950 . S
H621 C633 0.950 . S
H622 C630 0.950 . S
H623 C632 0.950 . S
H624 C634 0.950 . S
H625 C636 0.950 . S
H626 C638 0.950 . S
H627 C639 0.950 . S
C628 H620 0.950 . S
C628 C629 1.386 . S
C628 C630 1.391 . S
C629 C628 1.386 . S
C629 C633 1.393 . S
C630 H622 0.950 . S
C630 C628 1.391 . S
C630 C631 1.400 . S
C631 C630 1.400 . S
C631 C632 1.398 . S
C631 C637 1.491 . S
C632 H623 0.950 . S
C632 C631 1.398 . S
C632 C633 1.391 . S
C633 H621 0.950 . S
C633 C629 1.393 . S
C633 C632 1.391 . S
C634 H624 0.950 . S
C634 C635 1.386 . S
C634 C636 1.391 . S
C635 C634 1.386 . S
C635 C639 1.393 . S
C636 H625 0.950 . S
C636 C634 1.391 . S
C636 C637 1.400 . S
C637 C631 1.491 . S
C637 C636 1.400 . S
C637 C638 1.398 . S
C638 H626 0.950 . S
C638 C637 1.398 . S
C638 C639 1.391 . S
C639 H627 0.950 . S
C639 C635 1.393 . S
C639 C638 1.391 . S
H640 C648 0.950 . S
H641 C653 0.950 . S
H642 C650 0.950 . S
H643 C652 0.950 . S
H644 C654 0.950 . S
H645 C656 0.950 . S
H646 C658 0.950 . S
H647 C659 0.950 . S
C648 H640 0.950 . S
C648 C649 1.386 . S
C648 C650 1.391 . S
C649 C648 1.386 . S
C649 C653 1.393 . S
C650 H642 0.950 . S
C650 C648 1.391 . S
C650 C651 1.400 . S
C651 C650 1.400 . S
C651 C652 1.398 . S
C651 C657 1.491 . S
C652 H643 0.950 . S
C652 C651 1.398 . S
C652 C653 1.391 . S
C653 H641 0.950 . S
C653 C649 1.393 . S
C653 C652 1.391 . S
C654 H644 0.950 . S
C654 C655 1.386 . S
C654 C656 1.391 . S
C655 C654 1.386 . S
C655 C659 1.393 . S
C656 H645 0.950 . S
C656 C654 1.391 . S
C656 C657 1.400 . S
C657 C651 1.491 . S
C657 C656 1.400 . S
C657 C658 1.398 . S
C658 H646 0.950 . S
C658 C657 1.398 . S
C658 C659 1.391 . S
C659 H647 0.950 . S
C659 C655 1.393 . S
C659 C658 1.391 . S
H660 C668 0.950 . S
H661 C673 0.950 . S
H662 C670 0.950 . S
H663 C672 0.950 . S
H664 C674 0.950 . S
H665 C676 0.950 . S
H666 C678 0.950 . S
H667 C679 0.950 . S
C668 H660 0.950 . S
C668 C669 1.386 . S
C668 C670 1.391 . S
C669 C668 1.386 . S
C669 C673 1.393 . S
C670 H662 0.950 . S
C670 C668 1.391 . S
C670 C671 1.400 . S
C671 C670 1.400 . S
C671 C672 1.398 . S
C671 C677 1.491 . S
C672 H663 0.950 . S
C672 C671 1.398 . S
C672 C673 1.391 . S
C673 H661 0.950 . S
C673 C669 1.393 . S
C673 C672 1.391 . S
C674 H664 0.950 . S
C674 C675 1.386 . S
C674 C676 1.391 . S
C675 C674 1.386 . S
C675 C679 1.393 . S
C676 H665 0.950 . S
C676 C674 1.391 . S
C676 C677 1.400 . S
C677 C671 1.491 . S
C677 C676 1.400 . S
C677 C678 1.398 . S
C678 H666 0.950 . S
C678 C677 1.398 . S
C678 C679 1.391 . S
C679 H667 0.950 . S
C679 C675 1.393 . S
C679 C678 1.391 . S
H680 C688 0.950 . S
H681 C693 0.950 . S
H682 C690 0.950 . S
H683 C692 0.950 . S
H684 C694 0.950 . S
H685 C696 0.950 . S
H686 C698 0.950 . S
H687 C699 0.950 . S
C688 H680 0.950 . S
C688 C689 1.386 . S
C688 C690 1.391 . S
C689 C688 1.386 . S
C689 C693 1.393 . S
C690 H682 0.950 . S
C690 C688 1.391 . S
C690 C691 1.400 . S
C691 C690 1.400 . S
C691 C692 1.398 . S
C691 C697 1.491 . S
C692 H683 0.950 . S
C692 C691 1.398 . S
C692 C693 1.391 . S
C693 H681 0.950 . S
C693 C689 1.393 . S
C693 C692 1.391 . S
C694 H684 0.950 . S
C694 C695 1.386 . S
C694 C696 1.391 . S
C695 C694 1.386 . S
C695 C699 1.393 . S
C696 H685 0.950 . S
C696 C694 1.391 . S
C696 C697 1.400 . S
C697 C691 1.491 . S
C697 C696 1.400 . S
C697 C698 1.398 . S
C698 H686 0.950 . S
C698 C697 1.398 . S
C698 C699 1.391 . S
C699 H687 0.950 . S
C699 C695 1.393 . S
C699 C698 1.391 . S
H700 C708 0.950 . S
H701 C713 0.950 . S
H702 C710 0.950 . S
H703 C712 0.950 . S
H704 C714 0.950 . S
H705 C716 0.950 . S
H706 C718 0.950 . S
H707 C719 0.950 . S
C708 H700 0.950 . S
C708 C709 1.386 . S
C708 C710 1.391 . S
C709 C708 1.386 . S
C709 C713 1.393 . S
C710 H702 0.950 . S
C710 C708 1.391 . S
C710 C711 1.400 . S
C711 C710 1.400 . S
C711 C712 1.398 . S
C711 C717 1.491 . S
C712 H703 0.950 . S
C712 C711 1.398 . S
C712 C713 1.391 . S
C713 H701 0.950 . S
C713 C709 1.393 . S
C713 C712 1.391 . S
C714 H704 0.950 . S
C714 C715 1.386 . S
C714 C716 1.391 . S
C715 C714 1.386 . S
C715 C719 1.393 . S
C716 H705 0.950 . S
C716 C714 1.391 . S
C716 C717 1.400 . S
C717 C711 1.491 . S
C717 C716 1.400 . S
C717 C718 1.398 . S
C718 H706 0.950 . S
C718 C717 1.398 . S
C718 C719 1.391 . S
C719 H707 0.950 . S
C719 C715 1.393 . S
C719 C718 1.391 . S
H720 C728 0.950 . S
H721 C733 0.950 . S
H722 C730 0.950 . S
H723 C732 0.950 . S
H724 C734 0.950 . S
H725 C736 0.950 . S
H726 C738 0.950 . S
H727 C739 0.950 . S
C728 H720 0.950 . S
C728 C729 1.386 . S
C728 C730 1.391 . S
C729 C728 1.386 . S
C729 C733 1.393 . S
C730 H722 0.950 . S
C730 C728 1.391 . S
C730 C731 1.400 . S
C731 C730 1.400 . S
C731 C732 1.398 . S
C731 C737 1.491 . S
C732 H723 0.950 . S
C732 C731 1.398 . S
C732 C733 1.391 . S
C733 H721 0.950 . S
C733 C729 1.393 . S
C733 C732 1.391 . S
C734 H724 0.950 . S
C734 C735 1.386 . S
C734 C736 1.391 . S
C735 C734 1.386 . S
C735 C739 1.393 . S
C736 H725 0.950 . S
C736 C734 1.391 . S
C736 C737 1.400 . S
C737 C731 1.491 . S
C737 C736 1.400 . S
C737 C738 1.398 . S
C738 H726 0.950 . S
C738 C737 1.398 . S
C738 C739 1.391 . S
C739 H727 0.950 . S
C739 C735 1.393 . S
C739 C738 1.391 . S
H740 C748 0.950 . S
H741 C753 0.950 . S
H742 C750 0.950 . S
H743 C752 0.950 . S
H744 C754 0.950 . S
H745 C756 0.950 . S
H746 C758 0.950 . S
H747 C759 0.950 . S
C748 H740 0.950 . S
C748 C749 1.386 . S
C748 C750 1.391 . S
C749 C748 1.386 . S
C749 C753 1.393 . S
C750 H742 0.950 . S
C750 C748 1.391 . S
C750 C751 1.400 . S
C751 C750 1.400 . S
C751 C752 1.398 . S
C751 C757 1.491 . S
C752 H743 0.950 . S
C752 C751 1.398 . S
C752 C753 1.391 . S
C753 H741 0.950 . S
C753 C749 1.393 . S
C753 C752 1.391 . S
C754 H744 0.950 . S
C754 C755 1.386 . S
C754 C756 1.391 . S
C755 C754 1.386 . S
C755 C759 1.393 . S
C756 H745 0.950 . S
C756 C754 1.391 . S
C756 C757 1.400 . S
C757 C751 1.491 . S
C757 C756 1.400 . S
C757 C758 1.398 . S
C758 H746 0.950 . S
C758 C757 1.398 . S
C758 C759 1.391 . S
C759 H747 0.950 . S
C759 C755 1.393 . S
C759 C758 1.391 . S
H760 C768 0.950 . S
H761 C773 0.950 . S
H762 C770 0.950 . S
H763 C772 0.950 . S
H764 C774 0.950 . S
H765 C776 0.950 . S
H766 C778 0.950 . S
H767 C779 0.950 . S
C768 H760 0.950 . S
C768 C769 1.386 . S
C768 C770 1.391 . S
C769 C768 1.386 . S
C769 C773 1.393 . S
C770 H762 0.950 . S
C770 C768 1.391 . S
C770 C771 1.400 . S
C771 C770 1.400 . S
C771 C772 1.398 . S
C771 C777 1.491 . S
C772 H763 0.950 . S
C772 C771 1.398 . S
C772 C773 1.391 . S
C773 H761 0.950 . S
C773 C769 1.393 . S
C773 C772 1.391 . S
C774 H764 0.950 . S
C774 C775 1.386 . S
C774 C776 1.391 . S
C775 C774 1.386 . S
C775 C779 1.393 . S
C776 H765 0.950 . S
C776 C774 1.391 . S
C776 C777 1.400 . S
C777 C771 1.491 . S
C777 C776 1.400 . S
C777 C778 1.398 . S
C778 H766 0.950 . S
C778 C777 1.398 . S
C778 C779 1.391 . S
C779 H767 0.950 . S
C779 C775 1.393 . S
C779 C778 1.391 . S
H780 C788 0.950 1_545 S
H781 C793 0.950 . S
H782 C790 0.950 . S
H783 C792 0.950 . S
H784 C794 0.950 . S
H785 C796 0.950 . S
H786 C798 0.950 . S
H787 C799 0.950 . S
C788 H780 0.950 1_565 S
C788 C789 1.386 1_565 S
C788 C790 1.391 . S
C789 C788 1.386 1_545 S
C789 C793 1.393 1_545 S
C790 H782 0.950 . S
C790 C788 1.391 . S
C790 C791 1.400 . S
C791 C790 1.400 . S
C791 C792 1.398 . S
C791 C797 1.491 . S
C792 H783 0.950 . S
C792 C791 1.398 . S
C792 C793 1.391 . S
C793 H781 0.950 . S
C793 C789 1.393 1_565 S
C793 C792 1.391 . S
C794 H784 0.950 . S
C794 C795 1.386 . S
C794 C796 1.391 . S
C795 C794 1.386 . S
C795 C799 1.393 . S
C796 H785 0.950 . S
C796 C794 1.391 . S
C796 C797 1.400 . S
C797 C791 1.491 . S
C797 C796 1.400 . S
C797 C798 1.398 . S
C798 H786 0.950 . S
C798 C797 1.398 . S
C798 C799 1.391 . S
C799 H787 0.950 . S
C799 C795 1.393 . S
C799 C798 1.391 . S
H800 C808 0.950 1_545 S
H801 C813 0.950 . S
H802 C810 0.950 . S
H803 C812 0.950 . S
H804 C814 0.947 1_655 S
H805 C816 0.950 . S
H806 C818 0.950 . S
H807 C819 0.950 1_655 S
C808 H800 0.950 1_565 S
C808 C809 1.386 . S
C808 C810 1.391 . S
C809 C808 1.386 . S
C809 C813 1.393 . S
C810 H802 0.950 . S
C810 C808 1.391 . S
C810 C811 1.400 . S
C811 C810 1.400 . S
C811 C812 1.398 . S
C811 C817 1.491 . S
C812 H803 0.950 . S
C812 C811 1.398 . S
C812 C813 1.391 . S
C813 H801 0.950 . S
C813 C809 1.393 . S
C813 C812 1.391 . S
C814 H804 0.947 1_455 S
C814 C815 1.386 1_455 S
C814 C816 1.391 . S
C815 C814 1.386 1_655 S
C815 C819 1.393 1_655 S
C816 H805 0.950 . S
C816 C814 1.391 . S
C816 C817 1.400 . S
C817 C811 1.491 . S
C817 C816 1.400 . S
C817 C818 1.398 . S
C818 H806 0.950 . S
C818 C817 1.398 . S
C818 C819 1.391 . S
C819 H807 0.950 1_455 S
C819 C815 1.393 1_455 S
C819 C818 1.391 . S
H820 C828 0.950 1_655 S
H821 C833 0.950 . S
H822 C830 0.950 . S
H823 C832 0.950 . S
H824 C834 0.950 . S
H825 C836 0.950 . S
H826 C838 0.950 . S
H827 C839 0.950 . S
C828 H820 0.950 1_455 S
C828 C829 1.386 . S
C828 C830 1.391 . S
C829 C828 1.386 . S
C829 C833 1.393 . S
C830 H822 0.950 . S
C830 C828 1.391 . S
C830 C831 1.400 . S
C831 C830 1.400 . S
C831 C832 1.398 . S
C831 C837 1.491 . S
C832 H823 0.950 . S
C832 C831 1.398 . S
C832 C833 1.391 . S
C833 H821 0.950 . S
C833 C829 1.393 . S
C833 C832 1.391 . S
C834 H824 0.950 . S
C834 C835 1.386 . S
C834 C836 1.391 . S
C835 C834 1.386 . S
C835 C839 1.393 . S
C836 H825 0.950 . S
C836 C834 1.391 . S
C836 C837 1.400 . S
C837 C831 1.491 . S
C837 C836 1.400 . S
C837 C838 1.398 . S
C838 H826 0.950 . S
C838 C837 1.398 . S
C838 C839 1.391 . S
C839 H827 0.950 . S
C839 C835 1.393 . S
C839 C838 1.391 . S
H840 C848 0.950 . S
H841 C853 0.950 . S
H842 C850 0.950 . S
H843 C852 0.950 . S
H844 C854 0.950 . S
H845 C856 0.950 . S
H846 C858 0.950 . S
H847 C859 0.954 . S
C848 H840 0.950 . S
C848 C849 1.386 . S
C848 C850 1.391 . S
C849 C848 1.386 . S
C849 C853 1.393 . S
C850 H842 0.950 . S
C850 C848 1.391 . S
C850 C851 1.400 . S
C851 C850 1.400 . S
C851 C852 1.398 . S
C851 C857 1.491 . S
C852 H843 0.950 . S
C852 C851 1.398 . S
C852 C853 1.391 . S
C853 H841 0.950 . S
C853 C849 1.393 . S
C853 C852 1.391 . S
C854 H844 0.950 . S
C854 C855 1.386 1_455 S
C854 C856 1.391 . S
C855 C854 1.386 1_655 S
C855 C859 1.402 . S
C856 H845 0.950 . S
C856 C854 1.391 . S
C856 C857 1.400 . S
C857 C851 1.491 . S
C857 C856 1.400 . S
C857 C858 1.398 . S
C858 H846 0.950 . S
C858 C857 1.398 . S
C858 C859 1.378 1_455 S
C859 H847 0.954 . S
C859 C855 1.402 . S
C859 C858 1.378 1_655 S
H860 C868 0.950 . S
H861 C873 0.950 . S
H862 C870 0.950 . S
H863 C872 0.950 . S
H864 C874 0.950 . S
H865 C876 0.950 . S
H866 C878 0.950 . S
H867 C879 0.950 1_545 S
C868 H860 0.950 . S
C868 C869 1.386 . S
C868 C870 1.391 . S
C869 C868 1.386 . S
C869 C873 1.393 . S
C870 H862 0.950 . S
C870 C868 1.391 . S
C870 C871 1.400 . S
C871 C870 1.400 . S
C871 C872 1.398 . S
C871 C877 1.491 . S
C872 H863 0.950 . S
C872 C871 1.398 . S
C872 C873 1.391 . S
C873 H861 0.950 . S
C873 C869 1.393 . S
C873 C872 1.391 . S
C874 H864 0.950 . S
C874 C875 1.386 . S
C874 C876 1.391 . S
C875 C874 1.386 . S
C875 C879 1.393 . S
C876 H865 0.950 . S
C876 C874 1.391 . S
C876 C877 1.400 . S
C877 C871 1.491 . S
C877 C876 1.400 . S
C877 C878 1.398 . S
C878 H866 0.950 . S
C878 C877 1.398 . S
C878 C879 1.391 . S
C879 H867 0.950 1_565 S
C879 C875 1.393 . S
C879 C878 1.391 . S
H880 C888 0.950 1_545 S
H881 C893 0.944 1_545 S
H882 C890 0.950 . S
H883 C892 0.950 . S
H884 C894 0.950 1_655 S
H885 C896 0.950 . S
H886 C898 0.950 . S
H887 C899 0.950 . S
C888 H880 0.950 1_565 S
C888 C889 1.386 1_565 S
C888 C890 1.391 . S
C889 C888 1.386 1_545 S
C889 C893 1.393 1_545 S
C890 H882 0.950 . S
C890 C888 1.391 . S
C890 C891 1.400 . S
C891 C890 1.400 . S
C891 C892 1.398 . S
C891 C897 1.491 . S
C892 H883 0.950 . S
C892 C891 1.398 . S
C892 C893 1.391 . S
C893 H881 0.944 1_565 S
C893 C889 1.393 1_565 S
C893 C892 1.391 . S
C894 H884 0.950 1_455 S
C894 C895 1.386 . S
C894 C896 1.391 . S
C895 C894 1.386 . S
C895 C899 1.393 . S
C896 H885 0.950 . S
C896 C894 1.391 . S
C896 C897 1.400 . S
C897 C891 1.491 . S
C897 C896 1.400 . S
C897 C898 1.398 . S
C898 H886 0.950 . S
C898 C897 1.398 . S
C898 C899 1.391 . S
C899 H887 0.950 . S
C899 C895 1.393 . S
C899 C898 1.391 . S
H900 C908 0.950 . S
H901 C913 0.950 . S
H902 C910 0.950 . S
H903 C912 0.950 . S
H904 C914 0.950 . S
H905 C916 0.950 . S
H906 C918 0.950 . S
H907 C919 0.950 . S
C908 H900 0.950 . S
C908 C909 1.386 . S
C908 C910 1.391 . S
C909 C908 1.386 . S
C909 C913 1.393 . S
C910 H902 0.950 . S
C910 C908 1.391 . S
C910 C911 1.400 . S
C911 C910 1.400 . S
C911 C912 1.398 . S
C911 C917 1.491 . S
C912 H903 0.950 . S
C912 C911 1.398 . S
C912 C913 1.391 . S
C913 H901 0.950 . S
C913 C909 1.393 . S
C913 C912 1.391 . S
C914 H904 0.950 . S
C914 C915 1.386 . S
C914 C916 1.391 . S
C915 C914 1.386 . S
C915 C919 1.393 . S
C916 H905 0.950 . S
C916 C914 1.391 . S
C916 C917 1.400 . S
C917 C911 1.491 . S
C917 C916 1.400 . S
C917 C918 1.398 . S
C918 H906 0.950 . S
C918 C917 1.398 . S
C918 C919 1.391 . S
C919 H907 0.950 . S
C919 C915 1.393 . S
C919 C918 1.391 . S
H920 C928 0.950 . S
H921 C933 0.950 . S
H922 C930 0.950 . S
H923 C932 0.950 . S
H924 C934 0.950 . S
H925 C936 0.950 . S
H926 C938 0.950 . S
H927 C939 0.950 . S
C928 H920 0.950 . S
C928 C929 1.386 . S
C928 C930 1.391 . S
C929 C928 1.386 . S
C929 C933 1.393 . S
C930 H922 0.950 . S
C930 C928 1.391 . S
C930 C931 1.400 . S
C931 C930 1.400 . S
C931 C932 1.398 . S
C931 C937 1.491 . S
C932 H923 0.950 . S
C932 C931 1.398 . S
C932 C933 1.391 . S
C933 H921 0.950 . S
C933 C929 1.393 . S
C933 C932 1.391 . S
C934 H924 0.950 . S
C934 C935 1.386 . S
C934 C936 1.391 . S
C935 C934 1.386 . S
C935 C939 1.393 . S
C936 H925 0.950 . S
C936 C934 1.391 . S
C936 C937 1.400 . S
C937 C931 1.491 . S
C937 C936 1.400 . S
C937 C938 1.398 . S
C938 H926 0.950 . S
C938 C937 1.398 . S
C938 C939 1.391 . S
C939 H927 0.950 . S
C939 C935 1.393 . S
C939 C938 1.391 . S
H940 C948 0.950 . S
H941 C953 0.950 . S
H942 C950 0.950 . S
H943 C952 0.950 . S
H944 C954 0.950 . S
H945 C956 0.950 . S
H946 C958 0.950 . S
H947 C959 0.950 . S
C948 H940 0.950 . S
C948 C949 1.386 . S
C948 C950 1.391 . S
C949 C948 1.386 . S
C949 C953 1.393 . S
C950 H942 0.950 . S
C950 C948 1.391 . S
C950 C951 1.400 . S
C951 C950 1.400 . S
C951 C952 1.398 . S
C951 C957 1.491 . S
C952 H943 0.950 . S
C952 C951 1.398 . S
C952 C953 1.391 . S
C953 H941 0.950 . S
C953 C949 1.393 . S
C953 C952 1.391 . S
C954 H944 0.950 . S
C954 C955 1.386 . S
C954 C956 1.391 . S
C955 C954 1.386 . S
C955 C959 1.393 . S
C956 H945 0.950 . S
C956 C954 1.391 . S
C956 C957 1.400 . S
C957 C951 1.491 . S
C957 C956 1.400 . S
C957 C958 1.398 . S
C958 H946 0.950 . S
C958 C957 1.398 . S
C958 C959 1.391 . S
C959 H947 0.950 . S
C959 C955 1.393 . S
C959 C958 1.391 . S
H960 C968 0.950 . S
H961 C973 0.950 . S
H962 C970 0.950 . S
H963 C972 0.950 . S
H964 C974 0.950 . S
H965 C976 0.950 . S
H966 C978 0.950 . S
H967 C979 0.950 . S
C968 H960 0.950 . S
C968 C969 1.386 . S
C968 C970 1.391 . S
C969 C968 1.386 . S
C969 C973 1.393 . S
C970 H962 0.950 . S
C970 C968 1.391 . S
C970 C971 1.400 . S
C971 C970 1.400 . S
C971 C972 1.398 . S
C971 C977 1.491 . S
C972 H963 0.950 . S
C972 C971 1.398 . S
C972 C973 1.391 . S
C973 H961 0.950 . S
C973 C969 1.393 . S
C973 C972 1.391 . S
C974 H964 0.950 . S
C974 C975 1.386 . S
C974 C976 1.391 . S
C975 C974 1.386 . S
C975 C979 1.393 . S
C976 H965 0.950 . S
C976 C974 1.391 . S
C976 C977 1.400 . S
C977 C971 1.491 . S
C977 C976 1.400 . S
C977 C978 1.398 . S
C978 H966 0.950 . S
C978 C977 1.398 . S
C978 C979 1.391 . S
C979 H967 0.950 . S
C979 C975 1.393 . S
C979 C978 1.391 . S
H980 C988 0.950 . S
H981 C993 0.950 . S
H982 C990 0.950 . S
H983 C992 0.950 . S
H984 C994 0.950 . S
H985 C996 0.950 . S
H986 C998 0.950 . S
H987 C999 0.950 . S
C988 H980 0.950 . S
C988 C989 1.386 . S
C988 C990 1.391 . S
C989 C988 1.386 . S
C989 C993 1.393 . S
C990 H982 0.950 . S
C990 C988 1.391 . S
C990 C991 1.400 . S
C991 C990 1.400 . S
C991 C992 1.398 . S
C991 C997 1.491 . S
C992 H983 0.950 . S
C992 C991 1.398 . S
C992 C993 1.391 . S
C993 H981 0.950 . S
C993 C989 1.393 . S
C993 C992 1.391 . S
C994 H984 0.950 . S
C994 C995 1.386 . S
C994 C996 1.391 . S
C995 C994 1.386 . S
C995 C999 1.393 . S
C996 H985 0.950 . S
C996 C994 1.391 . S
C996 C997 1.400 . S
C997 C991 1.491 . S
C997 C996 1.400 . S
C997 C998 1.398 . S
C998 H986 0.950 . S
C998 C997 1.398 . S
C998 C999 1.391 . S
C999 H987 0.950 . S
C999 C995 1.393 . S
C999 C998 1.391 . S
H1000 C1008 0.950 . S
H1001 C1013 0.950 . S
H1002 C1010 0.950 . S
H1003 C1012 0.950 . S
H1004 C1014 0.950 . S
H1005 C1016 0.950 . S
H1006 C1018 0.950 . S
H1007 C1019 0.950 . S
C1008 H1000 0.950 . S
C1008 C1009 1.386 . S
C1008 C1010 1.391 . S
C1009 C1008 1.386 . S
C1009 C1013 1.393 . S
C1010 H1002 0.950 . S
C1010 C1008 1.391 . S
C1010 C1011 1.400 . S
C1011 C1010 1.400 . S
C1011 C1012 1.398 . S
C1011 C1017 1.491 . S
C1012 H1003 0.950 . S
C1012 C1011 1.398 . S
C1012 C1013 1.391 . S
C1013 H1001 0.950 . S
C1013 C1009 1.393 . S
C1013 C1012 1.391 . S
C1014 H1004 0.950 . S
C1014 C1015 1.386 . S
C1014 C1016 1.391 . S
C1015 C1014 1.386 . S
C1015 C1019 1.393 . S
C1016 H1005 0.950 . S
C1016 C1014 1.391 . S
C1016 C1017 1.400 . S
C1017 C1011 1.491 . S
C1017 C1016 1.400 . S
C1017 C1018 1.398 . S
C1018 H1006 0.950 . S
C1018 C1017 1.398 . S
C1018 C1019 1.391 . S
C1019 H1007 0.950 . S
C1019 C1015 1.393 . S
C1019 C1018 1.391 . S
H1020 C1028 0.950 . S
H1021 C1033 0.950 . S
H1022 C1030 0.950 . S
H1023 C1032 0.950 . S
H1024 C1034 0.950 . S
H1025 C1036 0.950 . S
H1026 C1038 0.950 . S
H1027 C1039 0.950 . S
C1028 H1020 0.950 . S
C1028 C1029 1.386 . S
C1028 C1030 1.391 . S
C1029 C1028 1.386 . S
C1029 C1033 1.393 . S
C1030 H1022 0.950 . S
C1030 C1028 1.391 . S
C1030 C1031 1.400 . S
C1031 C1030 1.400 . S
C1031 C1032 1.398 . S
C1031 C1037 1.491 . S
C1032 H1023 0.950 . S
C1032 C1031 1.398 . S
C1032 C1033 1.391 . S
C1033 H1021 0.950 . S
C1033 C1029 1.393 . S
C1033 C1032 1.391 . S
C1034 H1024 0.950 . S
C1034 C1035 1.386 . S
C1034 C1036 1.391 . S
C1035 C1034 1.386 . S
C1035 C1039 1.393 . S
C1036 H1025 0.950 . S
C1036 C1034 1.391 . S
C1036 C1037 1.400 . S
C1037 C1031 1.491 . S
C1037 C1036 1.400 . S
C1037 C1038 1.398 . S
C1038 H1026 0.950 . S
C1038 C1037 1.398 . S
C1038 C1039 1.391 . S
C1039 H1027 0.950 . S
C1039 C1035 1.393 . S
C1039 C1038 1.391 . S
H1040 C1048 0.950 . S
H1041 C1053 0.950 . S
H1042 C1050 0.950 . S
H1043 C1052 0.950 . S
H1044 C1054 0.950 . S
H1045 C1056 0.950 . S
H1046 C1058 0.950 . S
H1047 C1059 0.950 . S
C1048 H1040 0.950 . S
C1048 C1049 1.386 . S
C1048 C1050 1.391 . S
C1049 C1048 1.386 . S
C1049 C1053 1.393 . S
C1050 H1042 0.950 . S
C1050 C1048 1.391 . S
C1050 C1051 1.400 . S
C1051 C1050 1.400 . S
C1051 C1052 1.398 . S
C1051 C1057 1.491 . S
C1052 H1043 0.950 . S
C1052 C1051 1.398 . S
C1052 C1053 1.391 . S
C1053 H1041 0.950 . S
C1053 C1049 1.393 . S
C1053 C1052 1.391 . S
C1054 H1044 0.950 . S
C1054 C1055 1.386 . S
C1054 C1056 1.391 . S
C1055 C1054 1.386 . S
C1055 C1059 1.393 . S
C1056 H1045 0.950 . S
C1056 C1054 1.391 . S
C1056 C1057 1.400 . S
C1057 C1051 1.491 . S
C1057 C1056 1.400 . S
C1057 C1058 1.398 . S
C1058 H1046 0.950 . S
C1058 C1057 1.398 . S
C1058 C1059 1.391 . S
C1059 H1047 0.950 . S
C1059 C1055 1.393 . S
C1059 C1058 1.391 . S
H1060 C1068 0.950 . S
H1061 C1073 0.950 . S
H1062 C1070 0.950 . S
H1063 C1072 0.950 . S
H1064 C1074 0.950 . S
H1065 C1076 0.950 . S
H1066 C1078 0.950 . S
H1067 C1079 0.950 . S
C1068 H1060 0.950 . S
C1068 C1069 1.386 . S
C1068 C1070 1.391 . S
C1069 C1068 1.386 . S
C1069 C1073 1.393 . S
C1070 H1062 0.950 . S
C1070 C1068 1.391 . S
C1070 C1071 1.400 . S
C1071 C1070 1.400 . S
C1071 C1072 1.398 . S
C1071 C1077 1.491 . S
C1072 H1063 0.950 . S
C1072 C1071 1.398 . S
C1072 C1073 1.391 . S
C1073 H1061 0.950 . S
C1073 C1069 1.393 . S
C1073 C1072 1.391 . S
C1074 H1064 0.950 . S
C1074 C1075 1.386 . S
C1074 C1076 1.391 . S
C1075 C1074 1.386 . S
C1075 C1079 1.393 . S
C1076 H1065 0.950 . S
C1076 C1074 1.391 . S
C1076 C1077 1.400 . S
C1077 C1071 1.491 . S
C1077 C1076 1.400 . S
C1077 C1078 1.398 . S
C1078 H1066 0.950 . S
C1078 C1077 1.398 . S
C1078 C1079 1.391 . S
C1079 H1067 0.950 . S
C1079 C1075 1.393 . S
C1079 C1078 1.391 . S
H1080 C1088 0.950 1_556 S
H1081 C1093 0.950 . S
H1082 C1090 0.950 . S
H1083 C1092 0.950 . S
H1084 C1094 0.950 . S
H1085 C1096 0.950 . S
H1086 C1098 0.950 . S
H1087 C1099 0.950 . S
C1088 H1080 0.950 1_554 S
C1088 C1089 1.386 1_554 S
C1088 C1090 1.391 . S
C1089 C1088 1.386 1_556 S
C1089 C1093 1.393 . S
C1090 H1082 0.950 . S
C1090 C1088 1.391 . S
C1090 C1091 1.400 . S
C1091 C1090 1.400 . S
C1091 C1092 1.398 . S
C1091 C1097 1.491 . S
C1092 H1083 0.950 . S
C1092 C1091 1.398 . S
C1092 C1093 1.391 1_554 S
C1093 H1081 0.950 . S
C1093 C1089 1.393 . S
C1093 C1092 1.391 1_556 S
C1094 H1084 0.950 . S
C1094 C1095 1.386 . S
C1094 C1096 1.391 . S
C1095 C1094 1.386 . S
C1095 C1099 1.393 . S
C1096 H1085 0.950 . S
C1096 C1094 1.391 . S
C1096 C1097 1.400 . S
C1097 C1091 1.491 . S
C1097 C1096 1.400 . S
C1097 C1098 1.398 . S
C1098 H1086 0.950 . S
C1098 C1097 1.398 . S
C1098 C1099 1.391 . S
C1099 H1087 0.950 . S
C1099 C1095 1.393 . S
C1099 C1098 1.391 . S
H1100 C1108 0.950 . S
H1101 C1113 0.959 . S
H1102 C1110 0.950 . S
H1103 C1112 0.950 . S
H1104 C1114 0.950 . S
H1105 C1116 0.950 . S
H1106 C1118 0.950 . S
H1107 C1119 0.950 . S
C1108 H1100 0.950 . S
C1108 C1109 1.386 . S
C1108 C1110 1.391 1_556 S
C1109 C1108 1.386 . S
C1109 C1113 1.405 . S
C1110 H1102 0.950 . S
C1110 C1108 1.391 1_554 S
C1110 C1111 1.400 . S
C1111 C1110 1.400 . S
C1111 C1112 1.398 . S
C1111 C1117 1.491 . S
C1112 H1103 0.950 . S
C1112 C1111 1.398 . S
C1112 C1113 1.370 1_554 S
C1113 H1101 0.959 . S
C1113 C1109 1.405 . S
C1113 C1112 1.370 1_556 S
C1114 H1104 0.950 . S
C1114 C1115 1.386 . S
C1114 C1116 1.391 . S
C1115 C1114 1.386 . S
C1115 C1119 1.393 . S
C1116 H1105 0.950 . S
C1116 C1114 1.391 . S
C1116 C1117 1.400 . S
C1117 C1111 1.491 . S
C1117 C1116 1.400 . S
C1117 C1118 1.398 . S
C1118 H1106 0.950 . S
C1118 C1117 1.398 . S
C1118 C1119 1.391 . S
C1119 H1107 0.950 . S
C1119 C1115 1.393 . S
C1119 C1118 1.391 . S
H1120 C1128 0.950 . S
H1121 C1133 0.945 1_556 S
H1122 C1130 0.950 . S
H1123 C1132 0.950 . S
H1124 C1134 0.950 . S
H1125 C1136 0.950 . S
H1126 C1138 0.950 . S
H1127 C1139 0.950 . S
C1128 H1120 0.950 . S
C1128 C1129 1.386 . S
C1128 C1130 1.391 1_556 S
C1129 C1128 1.386 . S
C1129 C1133 1.393 1_556 S
C1130 H1122 0.950 . S
C1130 C1128 1.391 1_554 S
C1130 C1131 1.400 . S
C1131 C1130 1.400 . S
C1131 C1132 1.398 . S
C1131 C1137 1.491 . S
C1132 H1123 0.950 . S
C1132 C1131 1.398 . S
C1132 C1133 1.391 . S
C1133 H1121 0.945 1_554 S
C1133 C1129 1.393 1_554 S
C1133 C1132 1.391 . S
C1134 H1124 0.950 . S
C1134 C1135 1.386 . S
C1134 C1136 1.391 . S
C1135 C1134 1.386 . S
C1135 C1139 1.393 . S
C1136 H1125 0.950 . S
C1136 C1134 1.391 . S
C1136 C1137 1.400 . S
C1137 C1131 1.491 . S
C1137 C1136 1.400 . S
C1137 C1138 1.398 . S
C1138 H1126 0.950 . S
C1138 C1137 1.398 . S
C1138 C1139 1.391 . S
C1139 H1127 0.950 . S
C1139 C1135 1.393 . S
C1139 C1138 1.391 . S
H1140 C1148 0.950 . S
H1141 C1153 0.950 . S
H1142 C1150 0.950 . S
H1143 C1152 0.950 . S
H1144 C1154 0.950 . S
H1145 C1156 0.950 . S
H1146 C1158 0.950 . S
H1147 C1159 0.950 . S
C1148 H1140 0.950 . S
C1148 C1149 1.386 . S
C1148 C1150 1.391 . S
C1149 C1148 1.386 . S
C1149 C1153 1.393 . S
C1150 H1142 0.950 . S
C1150 C1148 1.391 . S
C1150 C1151 1.400 . S
C1151 C1150 1.400 . S
C1151 C1152 1.398 . S
C1151 C1157 1.491 . S
C1152 H1143 0.950 . S
C1152 C1151 1.398 . S
C1152 C1153 1.391 . S
C1153 H1141 0.950 . S
C1153 C1149 1.393 . S
C1153 C1152 1.391 . S
C1154 H1144 0.950 . S
C1154 C1155 1.386 . S
C1154 C1156 1.391 1_554 S
C1155 C1154 1.386 . S
C1155 C1159 1.393 . S
C1156 H1145 0.950 . S
C1156 C1154 1.391 1_556 S
C1156 C1157 1.400 . S
C1157 C1151 1.491 . S
C1157 C1156 1.400 . S
C1157 C1158 1.398 . S
C1158 H1146 0.950 . S
C1158 C1157 1.398 . S
C1158 C1159 1.391 1_556 S
C1159 H1147 0.950 . S
C1159 C1155 1.393 . S
C1159 C1158 1.391 1_554 S
H1160 C1168 0.950 . S
H1161 C1173 0.950 . S
H1162 C1170 0.950 . S
H1163 C1172 0.950 . S
H1164 C1174 0.950 . S
H1165 C1176 0.950 . S
H1166 C1178 0.950 . S
H1167 C1179 0.950 . S
C1168 H1160 0.950 . S
C1168 C1169 1.386 . S
C1168 C1170 1.391 . S
C1169 C1168 1.386 . S
C1169 C1173 1.393 . S
C1170 H1162 0.950 . S
C1170 C1168 1.391 . S
C1170 C1171 1.400 . S
C1171 C1170 1.400 . S
C1171 C1172 1.398 . S
C1171 C1177 1.491 . S
C1172 H1163 0.950 . S
C1172 C1171 1.398 . S
C1172 C1173 1.391 . S
C1173 H1161 0.950 . S
C1173 C1169 1.393 . S
C1173 C1172 1.391 . S
C1174 H1164 0.950 . S
C1174 C1175 1.386 . S
C1174 C1176 1.391 1_554 S
C1175 C1174 1.386 . S
C1175 C1179 1.393 . S
C1176 H1165 0.950 . S
C1176 C1174 1.391 1_556 S
C1176 C1177 1.400 . S
C1177 C1171 1.491 . S
C1177 C1176 1.400 . S
C1177 C1178 1.398 . S
C1178 H1166 0.950 . S
C1178 C1177 1.398 . S
C1178 C1179 1.391 1_556 S
C1179 H1167 0.950 . S
C1179 C1175 1.393 . S
C1179 C1178 1.391 1_554 S
H1180 C1188 0.950 . S
H1181 C1193 0.950 . S
H1182 C1190 0.950 . S
H1183 C1192 0.950 . S
H1184 C1194 0.950 . S
H1185 C1196 0.950 . S
H1186 C1198 0.950 . S
H1187 C1199 0.950 . S
C1188 H1180 0.950 . S
C1188 C1189 1.386 . S
C1188 C1190 1.391 . S
C1189 C1188 1.386 . S
C1189 C1193 1.393 . S
C1190 H1182 0.950 . S
C1190 C1188 1.391 . S
C1190 C1191 1.400 . S
C1191 C1190 1.400 . S
C1191 C1192 1.398 . S
C1191 C1197 1.491 . S
C1192 H1183 0.950 . S
C1192 C1191 1.398 . S
C1192 C1193 1.391 . S
C1193 H1181 0.950 . S
C1193 C1189 1.393 . S
C1193 C1192 1.391 . S
C1194 H1184 0.950 . S
C1194 C1195 1.386 . S
C1194 C1196 1.391 1_554 S
C1195 C1194 1.386 . S
C1195 C1199 1.393 . S
C1196 H1185 0.950 . S
C1196 C1194 1.391 1_556 S
C1196 C1197 1.400 . S
C1197 C1191 1.491 . S
C1197 C1196 1.400 . S
C1197 C1198 1.398 . S
C1198 H1186 0.950 . S
C1198 C1197 1.398 . S
C1198 C1199 1.391 1_556 S
C1199 H1187 0.950 . S
C1199 C1195 1.393 . S
C1199 C1198 1.391 1_554 S
H1200 C1208 0.950 . S
H1201 C1213 0.950 . S
H1202 C1210 0.950 . S
H1203 C1212 0.950 . S
H1204 C1214 0.950 . S
H1205 C1216 0.950 . S
H1206 C1218 0.950 . S
H1207 C1219 0.950 . S
C1208 H1200 0.950 . S
C1208 C1209 1.386 . S
C1208 C1210 1.391 . S
C1209 C1208 1.386 . S
C1209 C1213 1.393 . S
C1210 H1202 0.950 . S
C1210 C1208 1.391 . S
C1210 C1211 1.400 . S
C1211 C1210 1.400 . S
C1211 C1212 1.398 . S
C1211 C1217 1.491 . S
C1212 H1203 0.950 . S
C1212 C1211 1.398 . S
C1212 C1213 1.391 . S
C1213 H1201 0.950 . S
C1213 C1209 1.393 . S
C1213 C1212 1.391 . S
C1214 H1204 0.950 . S
C1214 C1215 1.386 . S
C1214 C1216 1.391 . S
C1215 C1214 1.386 . S
C1215 C1219 1.393 . S
C1216 H1205 0.950 . S
C1216 C1214 1.391 . S
C1216 C1217 1.400 . S
C1217 C1211 1.491 . S
C1217 C1216 1.400 . S
C1217 C1218 1.398 . S
C1218 H1206 0.950 . S
C1218 C1217 1.398 . S
C1218 C1219 1.391 . S
C1219 H1207 0.950 . S
C1219 C1215 1.393 . S
C1219 C1218 1.391 . S
H1220 C1228 0.950 . S
H1221 C1233 0.950 . S
H1222 C1230 0.950 . S
H1223 C1232 0.950 . S
H1224 C1234 0.950 . S
H1225 C1236 0.950 . S
H1226 C1238 0.950 . S
H1227 C1239 0.950 . S
C1228 H1220 0.950 . S
C1228 C1229 1.386 . S
C1228 C1230 1.391 . S
C1229 C1228 1.386 . S
C1229 C1233 1.393 . S
C1230 H1222 0.950 . S
C1230 C1228 1.391 . S
C1230 C1231 1.400 . S
C1231 C1230 1.400 . S
C1231 C1232 1.398 . S
C1231 C1237 1.491 . S
C1232 H1223 0.950 . S
C1232 C1231 1.398 . S
C1232 C1233 1.391 . S
C1233 H1221 0.950 . S
C1233 C1229 1.393 . S
C1233 C1232 1.391 . S
C1234 H1224 0.950 . S
C1234 C1235 1.386 . S
C1234 C1236 1.391 . S
C1235 C1234 1.386 . S
C1235 C1239 1.393 . S
C1236 H1225 0.950 . S
C1236 C1234 1.391 . S
C1236 C1237 1.400 . S
C1237 C1231 1.491 . S
C1237 C1236 1.400 . S
C1237 C1238 1.398 . S
C1238 H1226 0.950 . S
C1238 C1237 1.398 . S
C1238 C1239 1.391 . S
C1239 H1227 0.950 . S
C1239 C1235 1.393 . S
C1239 C1238 1.391 . S
H1240 C1248 0.950 . S
H1241 C1253 0.950 . S
H1242 C1250 0.950 . S
H1243 C1252 0.950 . S
H1244 C1254 0.950 . S
H1245 C1256 0.950 . S
H1246 C1258 0.950 . S
H1247 C1259 0.950 . S
C1248 H1240 0.950 . S
C1248 C1249 1.386 . S
C1248 C1250 1.391 . S
C1249 C1248 1.386 . S
C1249 C1253 1.393 . S
C1250 H1242 0.950 . S
C1250 C1248 1.391 . S
C1250 C1251 1.400 . S
C1251 C1250 1.400 . S
C1251 C1252 1.398 . S
C1251 C1257 1.491 . S
C1252 H1243 0.950 . S
C1252 C1251 1.398 . S
C1252 C1253 1.391 . S
C1253 H1241 0.950 . S
C1253 C1249 1.393 . S
C1253 C1252 1.391 . S
C1254 H1244 0.950 . S
C1254 C1255 1.386 . S
C1254 C1256 1.391 . S
C1255 C1254 1.386 . S
C1255 C1259 1.393 . S
C1256 H1245 0.950 . S
C1256 C1254 1.391 . S
C1256 C1257 1.400 . S
C1257 C1251 1.491 . S
C1257 C1256 1.400 . S
C1257 C1258 1.398 . S
C1258 H1246 0.950 . S
C1258 C1257 1.398 . S
C1258 C1259 1.391 . S
C1259 H1247 0.950 . S
C1259 C1255 1.393 . S
C1259 C1258 1.391 . S
H1260 C1268 0.950 . S
H1261 C1273 0.950 . S
H1262 C1270 0.950 . S
H1263 C1272 0.950 . S
H1264 C1274 0.950 . S
H1265 C1276 0.950 1_554 S
H1266 C1278 0.950 . S
H1267 C1279 0.950 . S
C1268 H1260 0.950 . S
C1268 C1269 1.386 . S
C1268 C1270 1.391 . S
C1269 C1268 1.386 . S
C1269 C1273 1.393 . S
C1270 H1262 0.950 . S
C1270 C1268 1.391 . S
C1270 C1271 1.400 . S
C1271 C1270 1.400 . S
C1271 C1272 1.398 . S
C1271 C1277 1.491 1_565 S
C1272 H1263 0.950 . S
C1272 C1271 1.398 . S
C1272 C1273 1.391 . S
C1273 H1261 0.950 . S
C1273 C1269 1.393 . S
C1273 C1272 1.391 . S
C1274 H1264 0.950 . S
C1274 C1275 1.386 1_554 S
C1274 C1276 1.391 1_554 S
C1275 C1274 1.386 1_556 S
C1275 C1279 1.393 . S
C1276 H1265 0.950 1_556 S
C1276 C1274 1.391 1_556 S
C1276 C1277 1.400 . S
C1277 C1271 1.491 1_545 S
C1277 C1276 1.400 . S
C1277 C1278 1.398 . S
C1278 H1266 0.950 . S
C1278 C1277 1.398 . S
C1278 C1279 1.391 . S
C1279 H1267 0.950 . S
C1279 C1275 1.393 . S
C1279 C1278 1.391 . S
H1280 C1288 0.950 . S
H1281 C1293 0.950 . S
H1282 C1290 0.950 1_554 S
H1283 C1292 0.950 . S
H1284 C1294 0.950 . S
H1285 C1296 0.950 . S
H1286 C1298 0.950 . S
H1287 C1299 0.950 . S
C1288 H1280 0.950 . S
C1288 C1289 1.386 1_554 S
C1288 C1290 1.391 1_554 S
C1289 C1288 1.386 1_556 S
C1289 C1293 1.393 . S
C1290 H1282 0.950 1_556 S
C1290 C1288 1.391 1_556 S
C1290 C1291 1.400 . S
C1291 C1290 1.400 . S
C1291 C1292 1.398 . S
C1291 C1297 1.491 1_655 S
C1292 H1283 0.950 . S
C1292 C1291 1.398 . S
C1292 C1293 1.391 . S
C1293 H1281 0.950 . S
C1293 C1289 1.393 . S
C1293 C1292 1.391 . S
C1294 H1284 0.950 . S
C1294 C1295 1.386 . S
C1294 C1296 1.391 . S
C1295 C1294 1.386 . S
C1295 C1299 1.393 . S
C1296 H1285 0.950 . S
C1296 C1294 1.391 . S
C1296 C1297 1.400 . S
C1297 C1291 1.491 1_455 S
C1297 C1296 1.400 . S
C1297 C1298 1.398 . S
C1298 H1286 0.950 . S
C1298 C1297 1.398 . S
C1298 C1299 1.391 . S
C1299 H1287 0.950 . S
C1299 C1295 1.393 . S
C1299 C1298 1.391 . S
H1300 C1308 0.950 . S
H1301 C1313 0.950 . S
H1302 C1310 0.950 . S
H1303 C1312 0.950 . S
H1304 C1314 0.950 . S
H1305 C1316 0.950 . S
H1306 C1318 0.950 1_554 S
H1307 C1319 0.950 . S
C1308 H1300 0.950 . S
C1308 C1309 1.386 . S
C1308 C1310 1.391 . S
C1309 C1308 1.386 . S
C1309 C1313 1.393 . S
C1310 H1302 0.950 . S
C1310 C1308 1.391 . S
C1310 C1311 1.400 . S
C1311 C1310 1.400 . S
C1311 C1312 1.398 . S
C1311 C1317 1.491 . S
C1312 H1303 0.950 . S
C1312 C1311 1.398 . S
C1312 C1313 1.391 . S
C1313 H1301 0.950 . S
C1313 C1309 1.393 . S
C1313 C1312 1.391 . S
C1314 H1304 0.950 . S
C1314 C1315 1.386 . S
C1314 C1316 1.391 . S
C1315 C1314 1.386 . S
C1315 C1319 1.393 1_556 S
C1316 H1305 0.950 . S
C1316 C1314 1.391 . S
C1316 C1317 1.400 . S
C1317 C1311 1.491 . S
C1317 C1316 1.400 . S
C1317 C1318 1.398 . S
C1318 H1306 0.950 1_556 S
C1318 C1317 1.398 . S
C1318 C1319 1.391 1_556 S
C1319 H1307 0.950 . S
C1319 C1315 1.393 1_554 S
C1319 C1318 1.391 1_554 S
H1320 C1328 0.950 . S
H1321 C1333 0.950 . S
H1322 C1330 0.950 . S
H1323 C1332 0.950 . S
H1324 C1334 0.950 . S
H1325 C1336 0.950 . S
H1326 C1338 0.950 . S
H1327 C1339 0.950 . S
C1328 H1320 0.950 . S
C1328 C1329 1.386 . S
C1328 C1330 1.391 . S
C1329 C1328 1.386 . S
C1329 C1333 1.393 . S
C1330 H1322 0.950 . S
C1330 C1328 1.391 . S
C1330 C1331 1.400 . S
C1331 C1330 1.400 . S
C1331 C1332 1.398 . S
C1331 C1337 1.491 1_655 S
C1332 H1323 0.950 . S
C1332 C1331 1.398 . S
C1332 C1333 1.391 . S
C1333 H1321 0.950 . S
C1333 C1329 1.393 . S
C1333 C1332 1.391 . S
C1334 H1324 0.950 . S
C1334 C1335 1.386 . S
C1334 C1336 1.391 . S
C1335 C1334 1.386 . S
C1335 C1339 1.393 . S
C1336 H1325 0.950 . S
C1336 C1334 1.391 . S
C1336 C1337 1.400 . S
C1337 C1331 1.491 1_455 S
C1337 C1336 1.400 . S
C1337 C1338 1.398 . S
C1338 H1326 0.950 . S
C1338 C1337 1.398 . S
C1338 C1339 1.391 . S
C1339 H1327 0.950 . S
C1339 C1335 1.393 . S
C1339 C1338 1.391 . S
H1340 C1348 0.950 . S
H1341 C1353 0.950 . S
H1342 C1350 0.950 . S
H1343 C1352 0.950 . S
H1344 C1354 0.950 . S
H1345 C1356 0.950 . S
H1346 C1358 0.950 . S
H1347 C1359 0.950 . S
C1348 H1340 0.950 . S
C1348 C1349 1.386 . S
C1348 C1350 1.391 . S
C1349 C1348 1.386 . S
C1349 C1353 1.393 . S
C1350 H1342 0.950 . S
C1350 C1348 1.391 . S
C1350 C1351 1.400 . S
C1351 C1350 1.400 . S
C1351 C1352 1.398 . S
C1351 C1357 1.491 . S
C1352 H1343 0.950 . S
C1352 C1351 1.398 . S
C1352 C1353 1.391 . S
C1353 H1341 0.950 . S
C1353 C1349 1.393 . S
C1353 C1352 1.391 . S
C1354 H1344 0.950 . S
C1354 C1355 1.386 . S
C1354 C1356 1.391 . S
C1355 C1354 1.386 . S
C1355 C1359 1.393 . S
C1356 H1345 0.950 . S
C1356 C1354 1.391 . S
C1356 C1357 1.400 . S
C1357 C1351 1.491 . S
C1357 C1356 1.400 . S
C1357 C1358 1.398 . S
C1358 H1346 0.950 . S
C1358 C1357 1.398 . S
C1358 C1359 1.391 . S
C1359 H1347 0.950 . S
C1359 C1355 1.393 . S
C1359 C1358 1.391 . S
H1360 C1368 0.950 . S
H1361 C1373 0.950 . S
H1362 C1370 0.950 1_545 S
H1363 C1372 0.950 . S
H1364 C1374 0.950 . S
H1365 C1376 0.950 1_565 S
H1366 C1378 0.950 . S
H1367 C1379 0.950 . S
C1368 H1360 0.950 . S
C1368 C1369 1.386 . S
C1368 C1370 1.391 . S
C1369 C1368 1.386 . S
C1369 C1373 1.393 . S
C1370 H1362 0.950 1_565 S
C1370 C1368 1.391 . S
C1370 C1371 1.400 . S
C1371 C1370 1.400 . S
C1371 C1372 1.398 . S
C1371 C1377 1.491 1_565 S
C1372 H1363 0.950 . S
C1372 C1371 1.398 . S
C1372 C1373 1.391 . S
C1373 H1361 0.950 . S
C1373 C1369 1.393 . S
C1373 C1372 1.391 . S
C1374 H1364 0.950 . S
C1374 C1375 1.386 . S
C1374 C1376 1.391 . S
C1375 C1374 1.386 . S
C1375 C1379 1.393 . S
C1376 H1365 0.950 1_545 S
C1376 C1374 1.391 . S
C1376 C1377 1.400 . S
C1377 C1371 1.491 1_545 S
C1377 C1376 1.400 . S
C1377 C1378 1.398 . S
C1378 H1366 0.950 . S
C1378 C1377 1.398 . S
C1378 C1379 1.391 . S
C1379 H1367 0.950 . S
C1379 C1375 1.393 . S
C1379 C1378 1.391 . S
H1380 C1388 0.950 . S
H1381 C1393 0.950 . S
H1382 C1390 0.950 . S
H1383 C1392 0.950 . S
H1384 C1394 0.950 . S
H1385 C1396 0.950 . S
H1386 C1398 0.950 . S
H1387 C1399 0.950 . S
C1388 H1380 0.950 . S
C1388 C1389 1.386 . S
C1388 C1390 1.391 . S
C1389 C1388 1.386 . S
C1389 C1393 1.393 . S
C1390 H1382 0.950 . S
C1390 C1388 1.391 . S
C1390 C1391 1.400 . S
C1391 C1390 1.400 . S
C1391 C1392 1.398 . S
C1391 C1397 1.491 . S
C1392 H1383 0.950 . S
C1392 C1391 1.398 . S
C1392 C1393 1.391 . S
C1393 H1381 0.950 . S
C1393 C1389 1.393 . S
C1393 C1392 1.391 . S
C1394 H1384 0.950 . S
C1394 C1395 1.386 . S
C1394 C1396 1.391 . S
C1395 C1394 1.386 . S
C1395 C1399 1.393 . S
C1396 H1385 0.950 . S
C1396 C1394 1.391 . S
C1396 C1397 1.400 . S
C1397 C1391 1.491 . S
C1397 C1396 1.400 . S
C1397 C1398 1.398 . S
C1398 H1386 0.950 . S
C1398 C1397 1.398 . S
C1398 C1399 1.391 . S
C1399 H1387 0.950 . S
C1399 C1395 1.393 . S
C1399 C1398 1.391 . S
H1400 C1408 0.950 . S
H1401 C1413 0.950 . S
H1402 C1410 0.950 . S
H1403 C1412 0.950 . S
H1404 C1414 0.950 . S
H1405 C1416 0.950 . S
H1406 C1418 0.950 . S
H1407 C1419 0.950 . S
C1408 H1400 0.950 . S
C1408 C1409 1.386 . S
C1408 C1410 1.391 . S
C1409 C1408 1.386 . S
C1409 C1413 1.393 . S
C1410 H1402 0.950 . S
C1410 C1408 1.391 . S
C1410 C1411 1.400 . S
C1411 C1410 1.400 . S
C1411 C1412 1.398 . S
C1411 C1417 1.491 . S
C1412 H1403 0.950 . S
C1412 C1411 1.398 . S
C1412 C1413 1.391 . S
C1413 H1401 0.950 . S
C1413 C1409 1.393 . S
C1413 C1412 1.391 . S
C1414 H1404 0.950 . S
C1414 C1415 1.386 . S
C1414 C1416 1.391 . S
C1415 C1414 1.386 . S
C1415 C1419 1.393 . S
C1416 H1405 0.950 . S
C1416 C1414 1.391 . S
C1416 C1417 1.400 . S
C1417 C1411 1.491 . S
C1417 C1416 1.400 . S
C1417 C1418 1.398 . S
C1418 H1406 0.950 . S
C1418 C1417 1.398 . S
C1418 C1419 1.391 . S
C1419 H1407 0.950 . S
C1419 C1415 1.393 . S
C1419 C1418 1.391 . S
H1420 C1428 0.950 . S
H1421 C1433 0.950 . S
H1422 C1430 0.950 . S
H1423 C1432 0.950 . S
H1424 C1434 0.950 . S
H1425 C1436 0.950 . S
H1426 C1438 0.950 . S
H1427 C1439 0.950 . S
C1428 H1420 0.950 . S
C1428 C1429 1.386 . S
C1428 C1430 1.391 . S
C1429 C1428 1.386 . S
C1429 C1433 1.393 . S
C1430 H1422 0.950 . S
C1430 C1428 1.391 . S
C1430 C1431 1.400 . S
C1431 C1430 1.400 . S
C1431 C1432 1.398 . S
C1431 C1437 1.491 . S
C1432 H1423 0.950 . S
C1432 C1431 1.398 . S
C1432 C1433 1.391 . S
C1433 H1421 0.950 . S
C1433 C1429 1.393 . S
C1433 C1432 1.391 . S
C1434 H1424 0.950 . S
C1434 C1435 1.386 . S
C1434 C1436 1.391 . S
C1435 C1434 1.386 . S
C1435 C1439 1.393 . S
C1436 H1425 0.950 . S
C1436 C1434 1.391 . S
C1436 C1437 1.400 . S
C1437 C1431 1.491 . S
C1437 C1436 1.400 . S
C1437 C1438 1.398 . S
C1438 H1426 0.950 . S
C1438 C1437 1.398 . S
C1438 C1439 1.391 . S
C1439 H1427 0.950 . S
C1439 C1435 1.393 . S
C1439 C1438 1.391 . S
H1440 C1448 0.950 . S
H1441 C1453 0.950 . S
H1442 C1450 0.950 . S
H1443 C1452 0.950 . S
H1444 C1454 0.950 . S
H1445 C1456 0.950 . S
H1446 C1458 0.950 . S
H1447 C1459 0.950 . S
C1448 H1440 0.950 . S
C1448 C1449 1.386 . S
C1448 C1450 1.391 . S
C1449 C1448 1.386 . S
C1449 C1453 1.393 . S
C1450 H1442 0.950 . S
C1450 C1448 1.391 . S
C1450 C1451 1.400 . S
C1451 C1450 1.400 . S
C1451 C1452 1.398 . S
C1451 C1457 1.491 . S
C1452 H1443 0.950 . S
C1452 C1451 1.398 . S
C1452 C1453 1.391 . S
C1453 H1441 0.950 . S
C1453 C1449 1.393 . S
C1453 C1452 1.391 . S
C1454 H1444 0.950 . S
C1454 C1455 1.386 . S
C1454 C1456 1.391 . S
C1455 C1454 1.386 . S
C1455 C1459 1.393 . S
C1456 H1445 0.950 . S
C1456 C1454 1.391 . S
C1456 C1457 1.400 . S
C1457 C1451 1.491 . S
C1457 C1456 1.400 . S
C1457 C1458 1.398 . S
C1458 H1446 0.950 . S
C1458 C1457 1.398 . S
C1458 C1459 1.391 . S
C1459 H1447 0.950 . S
C1459 C1455 1.393 . S
C1459 C1458 1.391 . S
H1460 C1468 0.950 . S
H1461 C1473 0.950 . S
H1462 C1470 0.950 . S
H1463 C1472 0.950 . S
H1464 C1474 0.950 . S
H1465 C1476 0.950 . S
H1466 C1478 0.950 . S
H1467 C1479 0.950 . S
C1468 H1460 0.950 . S
C1468 C1469 1.386 . S
C1468 C1470 1.391 . S
C1469 C1468 1.386 . S
C1469 C1473 1.393 . S
C1470 H1462 0.950 . S
C1470 C1468 1.391 . S
C1470 C1471 1.400 . S
C1471 C1470 1.400 . S
C1471 C1472 1.398 . S
C1471 C1477 1.491 . S
C1472 H1463 0.950 . S
C1472 C1471 1.398 . S
C1472 C1473 1.391 . S
C1473 H1461 0.950 . S
C1473 C1469 1.393 . S
C1473 C1472 1.391 . S
C1474 H1464 0.950 . S
C1474 C1475 1.386 . S
C1474 C1476 1.391 . S
C1475 C1474 1.386 . S
C1475 C1479 1.393 . S
C1476 H1465 0.950 . S
C1476 C1474 1.391 . S
C1476 C1477 1.400 . S
C1477 C1471 1.491 . S
C1477 C1476 1.400 . S
C1477 C1478 1.398 . S
C1478 H1466 0.950 . S
C1478 C1477 1.398 . S
C1478 C1479 1.391 . S
C1479 H1467 0.950 . S
C1479 C1475 1.393 . S
C1479 C1478 1.391 . S
H1480 C1488 0.950 . S
H1481 C1493 0.950 . S
H1482 C1490 0.950 . S
H1483 C1492 0.950 . S
H1484 C1494 0.950 . S
H1485 C1496 0.950 . S
H1486 C1498 0.950 . S
H1487 C1499 0.950 . S
C1488 H1480 0.950 . S
C1488 C1489 1.386 . S
C1488 C1490 1.391 . S
C1489 C1488 1.386 . S
C1489 C1493 1.393 . S
C1490 H1482 0.950 . S
C1490 C1488 1.391 . S
C1490 C1491 1.400 . S
C1491 C1490 1.400 . S
C1491 C1492 1.398 . S
C1491 C1497 1.491 . S
C1492 H1483 0.950 . S
C1492 C1491 1.398 . S
C1492 C1493 1.391 . S
C1493 H1481 0.950 . S
C1493 C1489 1.393 . S
C1493 C1492 1.391 . S
C1494 H1484 0.950 . S
C1494 C1495 1.386 . S
C1494 C1496 1.391 . S
C1495 C1494 1.386 . S
C1495 C1499 1.393 . S
C1496 H1485 0.950 . S
C1496 C1494 1.391 . S
C1496 C1497 1.400 . S
C1497 C1491 1.491 . S
C1497 C1496 1.400 . S
C1497 C1498 1.398 . S
C1498 H1486 0.950 . S
C1498 C1497 1.398 . S
C1498 C1499 1.391 . S
C1499 H1487 0.950 . S
C1499 C1495 1.393 . S
C1499 C1498 1.391 . S
H1500 C1508 0.950 . S
H1501 C1513 0.950 . S
H1502 C1510 0.950 . S
H1503 C1512 0.950 . S
H1504 C1514 0.950 . S
H1505 C1516 0.950 . S
H1506 C1518 0.950 . S
H1507 C1519 0.950 . S
C1508 H1500 0.950 . S
C1508 C1509 1.386 . S
C1508 C1510 1.391 . S
C1509 C1508 1.386 . S
C1509 C1513 1.393 . S
C1510 H1502 0.950 . S
C1510 C1508 1.391 . S
C1510 C1511 1.400 . S
C1511 C1510 1.400 . S
C1511 C1512 1.398 . S
C1511 C1517 1.491 . S
C1512 H1503 0.950 . S
C1512 C1511 1.398 . S
C1512 C1513 1.391 . S
C1513 H1501 0.950 . S
C1513 C1509 1.393 . S
C1513 C1512 1.391 . S
C1514 H1504 0.950 . S
C1514 C1515 1.386 . S
C1514 C1516 1.391 . S
C1515 C1514 1.386 . S
C1515 C1519 1.393 . S
C1516 H1505 0.950 . S
C1516 C1514 1.391 . S
C1516 C1517 1.400 . S
C1517 C1511 1.491 . S
C1517 C1516 1.400 . S
C1517 C1518 1.398 . S
C1518 H1506 0.950 . S
C1518 C1517 1.398 . S
C1518 C1519 1.391 . S
C1519 H1507 0.950 . S
C1519 C1515 1.393 . S
C1519 C1518 1.391 . S
H1520 C1528 0.950 . S
H1521 C1533 0.950 . S
H1522 C1530 0.950 . S
H1523 C1532 0.950 . S
H1524 C1534 0.950 . S
H1525 C1536 0.950 . S
H1526 C1538 0.950 . S
H1527 C1539 0.950 . S
C1528 H1520 0.950 . S
C1528 C1529 1.386 . S
C1528 C1530 1.391 . S
C1529 C1528 1.386 . S
C1529 C1533 1.393 . S
C1530 H1522 0.950 . S
C1530 C1528 1.391 . S
C1530 C1531 1.400 . S
C1531 C1530 1.400 . S
C1531 C1532 1.398 . S
C1531 C1537 1.491 . S
C1532 H1523 0.950 . S
C1532 C1531 1.398 . S
C1532 C1533 1.391 . S
C1533 H1521 0.950 . S
C1533 C1529 1.393 . S
C1533 C1532 1.391 . S
C1534 H1524 0.950 . S
C1534 C1535 1.386 . S
C1534 C1536 1.391 . S
C1535 C1534 1.386 . S
C1535 C1539 1.393 . S
C1536 H1525 0.950 . S
C1536 C1534 1.391 . S
C1536 C1537 1.400 . S
C1537 C1531 1.491 . S
C1537 C1536 1.400 . S
C1537 C1538 1.398 . S
C1538 H1526 0.950 . S
C1538 C1537 1.398 . S
C1538 C1539 1.391 . S
C1539 H1527 0.950 . S
C1539 C1535 1.393 . S
C1539 C1538 1.391 . S
H1540 C1548 0.950 . S
H1541 C1553 0.950 . S
H1542 C1550 0.950 . S
H1543 C1552 0.950 . S
H1544 C1554 0.950 . S
H1545 C1556 0.950 . S
H1546 C1558 0.950 . S
H1547 C1559 0.950 . S
C1548 H1540 0.950 . S
C1548 C1549 1.386 . S
C1548 C1550 1.391 . S
C1549 C1548 1.386 . S
C1549 C1553 1.393 . S
C1550 H1542 0.950 . S
C1550 C1548 1.391 . S
C1550 C1551 1.400 . S
C1551 C1550 1.400 . S
C1551 C1552 1.398 . S
C1551 C1557 1.491 . S
C1552 H1543 0.950 . S
C1552 C1551 1.398 . S
C1552 C1553 1.391 . S
C1553 H1541 0.950 . S
C1553 C1549 1.393 . S
C1553 C1552 1.391 . S
C1554 H1544 0.950 . S
C1554 C1555 1.386 . S
C1554 C1556 1.391 . S
C1555 C1554 1.386 . S
C1555 C1559 1.393 . S
C1556 H1545 0.950 . S
C1556 C1554 1.391 . S
C1556 C1557 1.400 . S
C1557 C1551 1.491 . S
C1557 C1556 1.400 . S
C1557 C1558 1.398 . S
C1558 H1546 0.950 . S
C1558 C1557 1.398 . S
C1558 C1559 1.391 . S
C1559 H1547 0.950 . S
C1559 C1555 1.393 . S
C1559 C1558 1.391 . S
H1560 C1568 0.950 . S
H1561 C1573 0.950 . S
H1562 C1570 0.950 . S
H1563 C1572 0.950 . S
H1564 C1574 0.950 . S
H1565 C1576 0.950 . S
H1566 C1578 0.950 . S
H1567 C1579 0.950 . S
C1568 H1560 0.950 . S
C1568 C1569 1.386 . S
C1568 C1570 1.391 . S
C1569 C1568 1.386 . S
C1569 C1573 1.393 . S
C1570 H1562 0.950 . S
C1570 C1568 1.391 . S
C1570 C1571 1.400 . S
C1571 C1570 1.400 . S
C1571 C1572 1.398 . S
C1571 C1577 1.491 . S
C1572 H1563 0.950 . S
C1572 C1571 1.398 . S
C1572 C1573 1.391 . S
C1573 H1561 0.950 . S
C1573 C1569 1.393 . S
C1573 C1572 1.391 . S
C1574 H1564 0.950 . S
C1574 C1575 1.386 . S
C1574 C1576 1.391 . S
C1575 C1574 1.386 . S
C1575 C1579 1.393 . S
C1576 H1565 0.950 . S
C1576 C1574 1.391 . S
C1576 C1577 1.400 . S
C1577 C1571 1.491 . S
C1577 C1576 1.400 . S
C1577 C1578 1.398 . S
C1578 H1566 0.950 . S
C1578 C1577 1.398 . S
C1578 C1579 1.391 . S
C1579 H1567 0.950 . S
C1579 C1575 1.393 . S
C1579 C1578 1.391 . S
H1580 C1588 0.950 . S
H1581 C1593 0.950 . S
H1582 C1590 0.950 . S
H1583 C1592 0.950 . S
H1584 C1594 0.950 . S
H1585 C1596 0.950 . S
H1586 C1598 0.950 . S
H1587 C1599 0.950 . S
C1588 H1580 0.950 . S
C1588 C1589 1.386 . S
C1588 C1590 1.391 . S
C1589 C1588 1.386 . S
C1589 C1593 1.393 . S
C1590 H1582 0.950 . S
C1590 C1588 1.391 . S
C1590 C1591 1.400 . S
C1591 C1590 1.400 . S
C1591 C1592 1.398 . S
C1591 C1597 1.491 . S
C1592 H1583 0.950 . S
C1592 C1591 1.398 . S
C1592 C1593 1.391 . S
C1593 H1581 0.950 . S
C1593 C1589 1.393 . S
C1593 C1592 1.391 . S
C1594 H1584 0.950 . S
C1594 C1595 1.386 . S
C1594 C1596 1.391 . S
C1595 C1594 1.386 . S
C1595 C1599 1.393 . S
C1596 H1585 0.950 . S
C1596 C1594 1.391 . S
C1596 C1597 1.400 . S
C1597 C1591 1.491 . S
C1597 C1596 1.400 . S
C1597 C1598 1.398 . S
C1598 H1586 0.950 . S
C1598 C1597 1.398 . S
C1598 C1599 1.391 . S
C1599 H1587 0.950 . S
C1599 C1595 1.393 . S
C1599 C1598 1.391 . S
H1600 C1608 0.950 . S
H1601 C1613 0.950 . S
H1602 C1610 0.950 . S
H1603 C1612 0.950 . S
H1604 C1614 0.950 . S
H1605 C1616 0.950 . S
H1606 C1618 0.950 . S
H1607 C1619 0.950 . S
C1608 H1600 0.950 . S
C1608 C1609 1.386 . S
C1608 C1610 1.391 . S
C1609 C1608 1.386 . S
C1609 C1613 1.393 . S
C1610 H1602 0.950 . S
C1610 C1608 1.391 . S
C1610 C1611 1.400 . S
C1611 C1610 1.400 . S
C1611 C1612 1.398 . S
C1611 C1617 1.491 . S
C1612 H1603 0.950 . S
C1612 C1611 1.398 . S
C1612 C1613 1.391 . S
C1613 H1601 0.950 . S
C1613 C1609 1.393 . S
C1613 C1612 1.391 . S
C1614 H1604 0.950 . S
C1614 C1615 1.386 . S
C1614 C1616 1.391 . S
C1615 C1614 1.386 . S
C1615 C1619 1.393 . S
C1616 H1605 0.950 . S
C1616 C1614 1.391 . S
C1616 C1617 1.400 . S
C1617 C1611 1.491 . S
C1617 C1616 1.400 . S
C1617 C1618 1.398 . S
C1618 H1606 0.950 . S
C1618 C1617 1.398 . S
C1618 C1619 1.391 . S
C1619 H1607 0.950 . S
C1619 C1615 1.393 . S
C1619 C1618 1.391 . S
C549 N14 0.805 . S
C555 C70 0.839 . S
C569 C10 0.812 . S
C575 N44 0.764 . S
C589 N74 0.824 . S
C595 C40 0.843 . S
C609 C121 0.823 . S
C615 N96 0.768 . S
C629 C151 0.814 . S
C635 N126 0.768 . S
C649 N156 0.783 . S
C655 C91 0.820 . S
C669 C250 0.839 . S
C675 N194 0.806 . S
C689 N224 0.744 . S
C695 C190 0.805 . S
C709 C220 0.811 . S
C715 N254 0.743 . S
C729 N276 0.822 . S
C735 C301 0.844 . S
C749 C331 0.844 . S
C755 N306 0.822 . S
C769 N336 0.743 . S
C775 C271 0.811 . S
C789 C430 0.827 . S
C795 N374 0.776 . S
C809 N404 0.756 1_565 S
C815 C370 0.817 . S
C829 N434 0.821 1_455 S
C835 C400 0.844 . S
C849 N456 0.776 . S
C855 C481 0.817 . S
C869 C511 0.821 . S
C875 N486 0.784 1_565 S
C889 C451 0.816 . S
C895 N516 0.754 1_455 S
C909 C166 1.308 . S
C915 C16 1.310 . S
C929 C106 1.303 . S
C935 C46 1.306 . S
C949 C136 1.305 . S
C955 C76 1.307 . S
C969 C57 1.308 . S
C975 C117 1.310 . S
C989 C147 1.302 . S
C995 C87 1.299 . S
C1009 C27 1.288 . S
C1015 C177 1.291 . S
C1029 C196 1.289 . S
C1035 C346 1.286 . S
C1049 C226 1.310 . S
C1055 C286 1.308 . S
C1069 C316 1.289 . S
C1075 C256 1.292 . S
C1089 C297 1.291 . S
C1095 C237 1.288 . S
C1109 C327 1.289 . S
C1115 C267 1.286 . S
C1129 C357 1.308 . S
C1135 C207 1.306 . S
C1149 C376 1.290 . S
C1155 C526 1.286 . S
C1169 C406 1.308 . S
C1175 C466 1.305 . S
C1189 C436 1.302 . S
C1195 C496 1.299 . S
C1209 C477 1.290 . S
C1215 C417 1.287 . S
C1229 C507 1.297 . S
C1235 C447 1.294 . S
C1249 C537 1.304 . S
C1255 C387 1.302 . S
C1269 N314 2.233 . S
C1275 C1 2.199 1_556 S
C1289 C31 2.184 1_556 S
C1295 N344 2.226 . S
C1309 N284 2.226 . S
C1315 C61 2.185 1_556 S
C1329 C100 2.184 . S
C1335 N246 2.226 . S
C1349 C130 2.191 . S
C1355 N186 2.231 . S
C1369 N216 2.229 . S
C1375 C160 2.195 . S
C1389 C181 2.191 . S
C1395 N494 2.231 1_455 S
C1409 C211 2.199 . S
C1415 N524 2.232 . S
C1429 C241 2.191 . S
C1435 N464 2.227 1_565 S
C1449 N426 2.232 1_565 S
C1455 C280 2.192 . S
C1469 N366 2.234 1_455 S
C1475 C310 2.197 . S
C1489 N396 2.234 . S
C1495 C340 2.199 . S
C1509 N134 2.226 . S
C1515 C361 2.189 . S
C1529 C391 2.198 . S
C1535 N164 2.231 . S
C1549 N104 2.233 . S
C1555 C421 2.200 . S
C1569 C460 2.199 . S
C1575 N66 2.232 . S
C1589 C490 2.186 . S
C1595 N6 2.228 . S
C1609 N36 2.226 . S
C1615 C520 2.189 . S
